# Generated by pormake.
# Topology snx, (6)-cn, num edge types: 1
# Building blocks:
#     Node 0, Type 0, BuildingBlock: MIDCAF_clean_sbu_0, # of connection points: 6
#     Node 1, Type 0, BuildingBlock: MIDCAF_clean_sbu_0, # of connection points: 6
#     Node 2, Type 0, BuildingBlock: MIDCAF_clean_sbu_0, # of connection points: 6
#     Node 3, Type 0, BuildingBlock: MIDCAF_clean_sbu_0, # of connection points: 6
#     Node 4, Type 0, BuildingBlock: MIDCAF_clean_sbu_0, # of connection points: 6
#     Node 5, Type 0, BuildingBlock: MIDCAF_clean_sbu_0, # of connection points: 6
#     Edge 6, Type (0, 0), BuildingBlock: FUNLAD_clean_linker_1, # of connection points: 2
#     Edge 7, Type (0, 0), BuildingBlock: FUNLAD_clean_linker_1, # of connection points: 2
#     Edge 8, Type (0, 0), BuildingBlock: FUNLAD_clean_linker_1, # of connection points: 2
#     Edge 9, Type (0, 0), BuildingBlock: FUNLAD_clean_linker_1, # of connection points: 2
#     Edge 10, Type (0, 0), BuildingBlock: FUNLAD_clean_linker_1, # of connection points: 2
#     Edge 11, Type (0, 0), BuildingBlock: FUNLAD_clean_linker_1, # of connection points: 2
#     Edge 12, Type (0, 0), BuildingBlock: FUNLAD_clean_linker_1, # of connection points: 2
#     Edge 13, Type (0, 0), BuildingBlock: FUNLAD_clean_linker_1, # of connection points: 2
#     Edge 14, Type (0, 0), BuildingBlock: FUNLAD_clean_linker_1, # of connection points: 2
#     Edge 15, Type (0, 0), BuildingBlock: FUNLAD_clean_linker_1, # of connection points: 2
#     Edge 16, Type (0, 0), BuildingBlock: FUNLAD_clean_linker_1, # of connection points: 2
#     Edge 17, Type (0, 0), BuildingBlock: FUNLAD_clean_linker_1, # of connection points: 2
#     Edge 18, Type (0, 0), BuildingBlock: FUNLAD_clean_linker_1, # of connection points: 2
#     Edge 19, Type (0, 0), BuildingBlock: FUNLAD_clean_linker_1, # of connection points: 2
#     Edge 20, Type (0, 0), BuildingBlock: FUNLAD_clean_linker_1, # of connection points: 2
#     Edge 21, Type (0, 0), BuildingBlock: FUNLAD_clean_linker_1, # of connection points: 2
#     Edge 22, Type (0, 0), BuildingBlock: FUNLAD_clean_linker_1, # of connection points: 2
#     Edge 23, Type (0, 0), BuildingBlock: FUNLAD_clean_linker_1, # of connection points: 2
# Relax obj value: 0.219
# Max RMSD: 0.238
# Mean RMSD: 0.238
data_MOF--net-snx--node1-MIDCAF_clean_sbu_0--edge1-FUNLAD_clean_linker_1
_symmetry_space_group_name_H-M    P1
_symmetry_Int_Tables_number       1
_symmetry_cell_setting            triclinic
loop_
_symmetry_equiv_pos_as_xyz
'x, y, z'
_cell_length_a     35.078027
_cell_length_b     35.080028
_cell_length_c     22.930991
_cell_angle_alpha  90.065548
_cell_angle_beta   90.289046
_cell_angle_gamma 119.94937
loop_
_atom_site_label
_atom_site_type_symbol
_atom_site_fract_x
_atom_site_fract_y
_atom_site_fract_z
_atom_type_partial_charge
Zn0 Zn 0.1029 0.36072 0.25592 0.0
Zn1 Zn 0.26261 0.3724 0.26791 0.0
Zn2 Zn 0.18168 0.3624 0.25683 0.0
C3 C 0.22008 0.32465 0.16315 0.0
C4 C 0.21508 0.3209 0.35979 0.0
O5 O 0.19141 0.43005 0.26227 0.0
O6 O 0.1262 0.42549 0.25709 0.0
C7 C 0.10783 0.31416 0.15756 0.0
O8 O 0.18911 0.33193 0.17845 0.0
O9 O 0.25411 0.33775 0.1947 0.0
O10 O 0.25455 0.3421 0.34336 0.0
O11 O 0.18492 0.32477 0.33272 0.0
O12 O 0.08379 0.32683 0.18193 0.0
O13 O 0.14609 0.32537 0.1785 0.0
O14 O 0.14509 0.3253 0.33254 0.0
O15 O 0.08231 0.32604 0.32955 0.0
C16 C 0.10709 0.31408 0.35372 0.0
O17 O 0.23256 0.43304 0.25468 0.0
O18 O 0.29747 0.43749 0.26416 0.0
C19 C 0.16756 0.44856 0.26163 0.0
C20 C 0.27487 0.45608 0.25711 0.0
Zn21 Zn 0.74673 0.10738 0.75929 0.0
Zn22 Zn 0.89597 0.24046 0.76957 0.0
Zn23 Zn 0.82317 0.17522 0.7597 0.0
C24 C 0.90358 0.1911 0.68281 0.0
C25 C 0.88549 0.2033 0.87298 0.0
O26 O 0.77287 0.19651 0.76131 0.0
O27 O 0.71274 0.1351 0.78609 0.0
C28 C 0.78344 0.11206 0.65042 0.0
O29 O 0.86163 0.17473 0.68472 0.0
O30 O 0.92779 0.21797 0.72161 0.0
O31 O 0.90498 0.24241 0.85509 0.0
O32 O 0.85607 0.17237 0.84087 0.0
O33 O 0.74618 0.09509 0.67425 0.0
O34 O 0.81791 0.14132 0.67744 0.0
O35 O 0.81895 0.13191 0.8323 0.0
O36 O 0.75712 0.07001 0.81437 0.0
C37 C 0.7922 0.09113 0.84361 0.0
O38 O 0.81547 0.23434 0.75855 0.0
O39 O 0.88324 0.28472 0.73536 0.0
C40 C 0.73189 0.17574 0.77561 0.0
C41 C 0.84362 0.27399 0.7434 0.0
Zn42 Zn 0.64479 0.89173 0.22925 0.0
Zn43 Zn 0.63308 0.73992 0.28312 0.0
Zn44 Zn 0.64462 0.81683 0.25354 0.0
C45 C 0.70012 0.80104 0.35445 0.0
C46 C 0.66417 0.75765 0.16769 0.0
O47 O 0.57762 0.80905 0.2597 0.0
O48 O 0.58181 0.87243 0.23751 0.0
C49 C 0.7014 0.9068 0.32509 0.0
O50 O 0.68951 0.82688 0.32816 0.0
O51 O 0.68015 0.76048 0.34237 0.0
O52 O 0.64701 0.72666 0.20405 0.0
O53 O 0.66766 0.79522 0.17894 0.0
O54 O 0.6862 0.92565 0.29343 0.0
O55 O 0.68926 0.86599 0.31691 0.0
O56 O 0.67437 0.83778 0.16676 0.0
O57 O 0.66944 0.8975 0.15049 0.0
C58 C 0.68101 0.87041 0.13433 0.0
O59 O 0.5734 0.76723 0.26747 0.0
O60 O 0.57096 0.70873 0.30758 0.0
C61 C 0.55919 0.83267 0.25246 0.0
C62 C 0.55132 0.72824 0.28929 0.0
Zn63 Zn 0.90278 0.64159 0.75983 0.0
Zn64 Zn 0.76099 0.64639 0.69999 0.0
Zn65 Zn 0.83328 0.64656 0.72868 0.0
C66 C 0.82304 0.69678 0.61734 0.0
C67 C 0.78752 0.68726 0.80845 0.0
O68 O 0.81529 0.57629 0.73661 0.0
O69 O 0.87623 0.57718 0.76444 0.0
C70 C 0.92157 0.68492 0.65266 0.0
O71 O 0.84594 0.68352 0.6459 0.0
O72 O 0.78449 0.68582 0.63274 0.0
O73 O 0.75479 0.67171 0.77424 0.0
O74 O 0.82082 0.68251 0.79731 0.0
O75 O 0.9387 0.67244 0.69112 0.0
O76 O 0.88201 0.67782 0.65848 0.0
O77 O 0.86151 0.68611 0.81004 0.0
O78 O 0.9179 0.67696 0.83143 0.0
C79 C 0.89509 0.69476 0.84234 0.0
O80 O 0.77646 0.57701 0.72307 0.0
O81 O 0.72186 0.58333 0.68463 0.0
C82 C 0.83599 0.55583 0.75063 0.0
C83 C 0.73665 0.55944 0.7032 0.0
Zn84 Zn 0.24971 0.90527 0.23255 0.0
Zn85 Zn 0.12129 0.75796 0.1673 0.0
Zn86 Zn 0.18125 0.82926 0.21276 0.0
C87 C 0.12708 0.81433 0.08841 0.0
C88 C 0.09035 0.77777 0.2721 0.0
O89 O 0.24124 0.82213 0.21363 0.0
O90 O 0.29642 0.89076 0.21961 0.0
C91 C 0.21039 0.92121 0.14213 0.0
O92 O 0.15048 0.83846 0.13162 0.0
O93 O 0.114 0.77377 0.08765 0.0
O94 O 0.07767 0.75478 0.22611 0.0
O95 O 0.13101 0.80717 0.27934 0.0
O96 O 0.24325 0.9428 0.17498 0.0
O97 O 0.1856 0.8794 0.14926 0.0
O98 O 0.16853 0.8469 0.29993 0.0
O99 O 0.23146 0.90889 0.31264 0.0
C100 C 0.19401 0.88068 0.3313 0.0
O101 O 0.20441 0.77975 0.2071 0.0
O102 O 0.14583 0.71891 0.17571 0.0
C103 C 0.2829 0.85021 0.21497 0.0
C104 C 0.18494 0.73835 0.19407 0.0
Zn105 Zn 0.36959 0.25659 0.69721 0.0
Zn106 Zn 0.3691 0.10868 0.75184 0.0
Zn107 Zn 0.36445 0.18021 0.72381 0.0
C108 C 0.30603 0.08797 0.66123 0.0
C109 C 0.33869 0.13186 0.84872 0.0
O110 O 0.43415 0.23348 0.71644 0.0
O111 O 0.43464 0.2958 0.69978 0.0
C112 C 0.31568 0.19483 0.61364 0.0
O113 O 0.32247 0.12993 0.6606 0.0
O114 O 0.31846 0.07005 0.69884 0.0
O115 O 0.35668 0.10953 0.83605 0.0
O116 O 0.3367 0.15806 0.81121 0.0
O117 O 0.33671 0.23589 0.62271 0.0
O118 O 0.32176 0.16893 0.64711 0.0
O119 O 0.33572 0.19647 0.79705 0.0
O120 O 0.33474 0.25574 0.76629 0.0
C121 C 0.32511 0.22629 0.8043 0.0
O122 O 0.43244 0.19298 0.71366 0.0
O123 O 0.43084 0.12976 0.72712 0.0
C124 C 0.45534 0.27558 0.70977 0.0
C125 C 0.45191 0.17009 0.71407 0.0
H126 H 0.22105 0.51496 0.28724 0.0
C127 C 0.18855 0.49689 0.26756 0.0
H128 H 0.135 0.50003 0.2313 0.0
H129 H 0.15021 0.66922 0.3309 0.0
H130 H 0.08739 0.61373 0.38325 0.0
H131 H 0.06947 0.53622 0.38218 0.0
H132 H 0.11409 0.51376 0.32773 0.0
C133 C 0.16791 0.51848 0.24991 0.0
C134 C 0.1855 0.56639 0.26049 0.0
C135 C 0.16032 0.57947 0.29461 0.0
C136 C 0.1714 0.62439 0.2965 0.0
C137 C 0.14404 0.63586 0.32843 0.0
C138 C 0.10771 0.60425 0.35885 0.0
C139 C 0.09758 0.56062 0.35816 0.0
C140 C 0.12338 0.54817 0.32648 0.0
H141 H 0.20241 0.68985 0.16536 0.0
C142 C 0.20599 0.71142 0.20163 0.0
H143 H 0.21271 0.71968 0.29243 0.0
H144 H 0.24207 0.55378 0.19123 0.0
H145 H 0.31067 0.61054 0.1505 0.0
H146 H 0.33396 0.68902 0.16355 0.0
H147 H 0.28738 0.71068 0.21596 0.0
C148 C 0.21322 0.70076 0.2552 0.0
C149 C 0.20835 0.65642 0.2652 0.0
C150 C 0.23647 0.64406 0.23708 0.0
C151 C 0.22437 0.59889 0.23289 0.0
C152 C 0.251 0.58752 0.19929 0.0
C153 C 0.29021 0.61985 0.17488 0.0
C154 C 0.30322 0.66403 0.18199 0.0
C155 C 0.2764 0.67609 0.21198 0.0
H156 H 0.67698 0.18366 0.80426 0.0
C157 C 0.7044 0.19647 0.77402 0.0
H158 H 0.72794 0.22772 0.69325 0.0
H159 H 0.52448 0.13281 0.6251 0.0
H160 H 0.55217 0.09753 0.56002 0.0
H161 H 0.63024 0.11724 0.56348 0.0
H162 H 0.68104 0.17225 0.63177 0.0
C163 C 0.70322 0.21857 0.72693 0.0
C164 C 0.66119 0.21736 0.71251 0.0
C165 C 0.63247 0.1863 0.67079 0.0
C166 C 0.58746 0.17467 0.66905 0.0
C167 C 0.55892 0.14239 0.62853 0.0
C168 C 0.57441 0.12206 0.59085 0.0
C169 C 0.61837 0.13319 0.59277 0.0
C170 C 0.64719 0.1648 0.63228 0.0
H171 H 0.51539 0.22361 0.68068 0.0
C172 C 0.49939 0.1916 0.70148 0.0
H173 H 0.50746 0.14093 0.73794 0.0
H174 H 0.70974 0.28457 0.78752 0.0
H175 H 0.68408 0.32503 0.84616 0.0
H176 H 0.60586 0.30512 0.84339 0.0
H177 H 0.55342 0.24497 0.78249 0.0
C178 C 0.52334 0.17328 0.71792 0.0
C179 C 0.57151 0.1945 0.7084 0.0
C180 C 0.60143 0.22964 0.74474 0.0
C181 C 0.6464 0.24099 0.74677 0.0
C182 C 0.67554 0.27524 0.78434 0.0
C183 C 0.66108 0.29846 0.81822 0.0
C184 C 0.61709 0.28726 0.81663 0.0
C185 C 0.58732 0.2528 0.78112 0.0
H186 H 0.27928 0.51825 0.2277 0.0
C187 C 0.29727 0.5041 0.24809 0.0
H188 H 0.35836 0.51511 0.27964 0.0
H189 H 0.49523 0.67331 0.1472 0.0
H190 H 0.49278 0.61506 0.08691 0.0
H191 H 0.43184 0.53854 0.09608 0.0
H192 H 0.37312 0.51983 0.16585 0.0
C193 C 0.34009 0.5297 0.26091 0.0
C194 C 0.36651 0.5762 0.24198 0.0
C195 C 0.39953 0.58675 0.19965 0.0
C196 C 0.43433 0.63077 0.194 0.0
C197 C 0.46802 0.64027 0.15317 0.0
C198 C 0.46691 0.60719 0.11822 0.0
C199 C 0.43262 0.56411 0.12341 0.0
C200 C 0.39928 0.55378 0.16371 0.0
H201 H 0.48713 0.67702 0.32024 0.0
C202 C 0.5029 0.70341 0.28858 0.0
H203 H 0.49536 0.72704 0.20723 0.0
H204 H 0.30211 0.56879 0.31625 0.0
H205 H 0.2994 0.62897 0.36507 0.0
H206 H 0.35917 0.70578 0.35251 0.0
H207 H 0.42224 0.72255 0.29114 0.0
C208 C 0.47933 0.7037 0.24233 0.0
C209 C 0.43594 0.66384 0.23099 0.0
C210 C 0.39915 0.6546 0.26579 0.0
C211 C 0.36435 0.61045 0.27191 0.0
C212 C 0.32903 0.60178 0.30931 0.0
C213 C 0.32717 0.63603 0.33762 0.0
C214 C 0.36085 0.67929 0.33062 0.0
C215 C 0.39683 0.68856 0.29566 0.0
H216 H 0.77966 0.48907 0.73361 0.0
C217 C 0.81323 0.50728 0.74926 0.0
H218 H 0.86731 0.50336 0.78247 0.0
H219 H 0.78923 0.31681 0.877 0.0
H220 H 0.79842 0.35659 0.96722 0.0
H221 H 0.81307 0.43308 0.96618 0.0
H222 H 0.81889 0.47031 0.87453 0.0
C223 C 0.83396 0.48544 0.76517 0.0
C224 C 0.81242 0.43665 0.76517 0.0
C225 C 0.80764 0.41486 0.81891 0.0
C226 C 0.79861 0.37062 0.81948 0.0
C227 C 0.79586 0.3503 0.87383 0.0
C228 C 0.80097 0.37275 0.92605 0.0
C229 C 0.80925 0.41583 0.92548 0.0
C230 C 0.8127 0.43686 0.87266 0.0
H231 H 0.85452 0.33777 0.71303 0.0
C232 C 0.83174 0.30845 0.737 0.0
H233 H 0.77771 0.28062 0.79351 0.0
H234 H 0.81349 0.46654 0.65384 0.0
H235 H 0.79414 0.42334 0.56498 0.0
H236 H 0.77163 0.34453 0.5675 0.0
H237 H 0.77002 0.30897 0.65931 0.0
C238 C 0.79818 0.30801 0.76532 0.0
C239 C 0.79415 0.34838 0.7661 0.0
C240 C 0.79181 0.36781 0.71304 0.0
C241 C 0.80237 0.41255 0.71215 0.0
C242 C 0.80409 0.43229 0.65768 0.0
C243 C 0.79321 0.40785 0.60616 0.0
C244 C 0.78065 0.36351 0.60754 0.0
C245 C 0.78008 0.34358 0.66026 0.0
H246 H 0.49367 0.78217 0.28372 0.0
C247 C 0.51135 0.81309 0.26083 0.0
H248 H 0.50706 0.86276 0.21488 0.0
H249 H 0.31489 0.77304 0.13405 0.0
H250 H 0.34864 0.76596 0.04531 0.0
H251 H 0.42475 0.77937 0.04662 0.0
H252 H 0.4676 0.80006 0.13657 0.0
C253 C 0.48957 0.83264 0.23998 0.0
C254 C 0.44093 0.81249 0.24308 0.0
C255 C 0.41624 0.79988 0.19051 0.0
C256 C 0.37251 0.79225 0.18969 0.0
C257 C 0.34864 0.78012 0.13652 0.0
C258 C 0.36748 0.7756 0.08553 0.0
C259 C 0.41031 0.78311 0.08629 0.0
C260 C 0.43461 0.79518 0.13804 0.0
H261 H 0.3469 0.8597 0.18866 0.0
C262 C 0.31632 0.83681 0.21011 0.0
H263 H 0.28559 0.782 0.26523 0.0
H264 H 0.47639 0.82814 0.35341 0.0
H265 H 0.43956 0.82667 0.44317 0.0
H266 H 0.36268 0.81083 0.442 0.0
H267 H 0.32233 0.79674 0.35089 0.0
C268 C 0.31388 0.80226 0.23842 0.0
C269 C 0.35357 0.79711 0.24156 0.0
C270 C 0.37586 0.80317 0.29549 0.0
C271 C 0.42 0.8116 0.29624 0.0
C272 C 0.44262 0.82067 0.35026 0.0
C273 C 0.42188 0.82006 0.40218 0.0
C274 C 0.3786 0.81119 0.40152 0.0
C275 C 0.35581 0.80319 0.34889 0.0
H276 H 0.68208 0.49928 0.6665 0.0
C277 C 0.70666 0.51153 0.70121 0.0
H278 H 0.7235 0.49737 0.78342 0.0
H279 H 0.51846 0.36608 0.81761 0.0
H280 H 0.53755 0.41481 0.90156 0.0
H281 H 0.61362 0.47557 0.91642 0.0
H282 H 0.67103 0.48792 0.84776 0.0
C283 C 0.70197 0.4846 0.74555 0.0
C284 C 0.66132 0.44051 0.74815 0.0
C285 C 0.62864 0.43315 0.78975 0.0
C286 C 0.58473 0.39842 0.78094 0.0
C287 C 0.55222 0.39242 0.82201 0.0
C288 C 0.56276 0.42 0.87041 0.0
C289 C 0.60561 0.45419 0.87879 0.0
C290 C 0.63826 0.46098 0.83894 0.0
H291 H 0.52009 0.283 0.73312 0.0
C292 C 0.5036 0.30044 0.71845 0.0
H293 H 0.51016 0.36243 0.70145 0.0
H294 H 0.71905 0.43768 0.67175 0.0
H295 H 0.70127 0.38471 0.59282 0.0
H296 H 0.62494 0.32507 0.57653 0.0
H297 H 0.56583 0.31792 0.63858 0.0
C298 C 0.52678 0.34438 0.71325 0.0
C299 C 0.57381 0.37104 0.731 0.0
C300 C 0.60773 0.37431 0.69442 0.0
C301 C 0.6517 0.40905 0.70331 0.0
C302 C 0.68511 0.41219 0.66604 0.0
C303 C 0.67536 0.38195 0.62097 0.0
C304 C 0.63233 0.34834 0.61177 0.0
C305 C 0.59869 0.34458 0.64769 0.0
H306 H 0.30585 0.21039 0.89648 0.0
C307 C 0.30346 0.22753 0.85841 0.0
H308 H 0.28119 0.26883 0.82416 0.0
H309 H 0.18746 0.20955 0.08708 0.0
H310 H 0.14507 0.13558 0.04705 0.0
H311 H 0.15886 0.11892 0.94735 0.0
H312 H 0.21553 0.17588 0.88739 0.0
C313 C 0.28337 0.25149 0.86215 0.0
C314 C 0.271 0.26162 0.91936 0.0
C315 C 0.2369 0.22814 0.95292 0.0
C316 C 0.2282 0.23796 0.00978 0.0
C317 C 0.19496 0.20383 0.04333 0.0
C318 C 0.17038 0.16133 0.02083 0.0
C319 C 0.17816 0.15194 0.96469 0.0
C320 C 0.21095 0.18485 0.93087 0.0
H321 H 0.19295 0.29996 0.07495 0.0
C322 C 0.21745 0.30323 0.10684 0.0
H323 H 0.27233 0.2953 0.12414 0.0
H324 H 0.3372 0.3341 0.86483 0.0
H325 H 0.37721 0.40824 0.90353 0.0
H326 H 0.36074 0.42548 0.0013 0.0
H327 H 0.30421 0.36851 0.06095 0.0
C328 C 0.24725 0.29145 0.09285 0.0
C329 C 0.25293 0.28132 0.03202 0.0
C330 C 0.2856 0.3152 -0.00257 0.0
C331 C 0.2947 0.30535 0.94097 0.0
C332 C 0.32835 0.33967 0.90782 0.0
C333 C 0.35173 0.38247 0.92955 0.0
C334 C 0.3425 0.39216 0.98459 0.0
C335 C 0.30995 0.35908 0.01838 0.0
H336 H 0.91031 0.18259 0.58937 0.0
C337 C 0.92446 0.18379 0.63207 0.0
H338 H 0.9774 0.1879 0.68027 0.0
H339 H 0.00552 0.19222 0.38694 0.0
H340 H 0.948 0.11522 0.38617 0.0
H341 H 0.91237 0.0775 0.47764 0.0
H342 H 0.93327 0.11698 0.5704 0.0
C343 C 0.96436 0.18747 0.63708 0.0
C344 C 0.99486 0.20318 0.58677 0.0
C345 C 0.98274 0.17964 0.53347 0.0
C346 C 1.00383 0.2012 0.48113 0.0
C347 C 0.99042 0.17732 0.42804 0.0
C348 C 0.95771 0.13312 0.42707 0.0
C349 C 0.93762 0.11187 0.47859 0.0
C350 C 0.94961 0.13483 0.53131 0.0
H351 H 0.11646 0.28205 0.43066 0.0
C352 C 0.09275 0.28739 0.40695 0.0
H353 H 0.02729 0.27455 0.40263 0.0
H354 H 0.03486 0.25316 0.6847 0.0
H355 H 0.09652 0.32731 0.68695 0.0
H356 H 0.13138 0.36609 0.59588 0.0
H357 H 0.10494 0.33075 0.50238 0.0
C358 C 0.0518 0.27093 0.42738 0.0
C359 C 0.03741 0.24596 0.48268 0.0
C360 C 0.05347 0.26767 0.53707 0.0
C361 C 0.03263 0.24576 0.58947 0.0
C362 C 0.04886 0.26815 0.64334 0.0
C363 C 0.08444 0.31087 0.64537 0.0
C364 C 0.10412 0.33264 0.59414 0.0
C365 C 0.08871 0.31168 0.54054 0.0
H366 H 0.83289 0.08748 0.91526 0.0
C367 C 0.80245 0.069 0.89067 0.0
H368 H 0.74457 0.00792 0.87815 0.0
H369 H 0.77612 0.87232 0.00221 0.0
H370 H 0.78556 0.85683 0.90115 0.0
H371 H 0.79337 0.9083 0.82265 0.0
H372 H 0.79265 0.97587 0.84458 0.0
C373 C 0.77423 0.02686 0.90415 0.0
C374 C 0.78179 0.00295 0.9521 0.0
C375 C 0.78311 0.96416 0.93845 0.0
C376 C 0.77811 0.9342 0.98329 0.0
C377 C 0.77901 0.8955 0.96897 0.0
C378 C 0.78463 0.88647 0.91146 0.0
C379 C 0.7891 0.9155 0.86726 0.0
C380 C 0.7884 0.95399 0.88034 0.0
H381 H 0.68928 0.88111 0.04102 0.0
C382 C 0.7063 0.88055 0.08051 0.0
H383 H 0.767 0.9094 0.12489 0.0
H384 H 0.78218 0.07671 -0.00458 0.0
H385 H 0.77928 0.09383 0.09664 0.0
H386 H 0.77426 0.04299 0.17435 0.0
H387 H 0.77166 0.97436 0.15063 0.0
C388 C 0.75019 0.90647 0.08374 0.0
C389 C 0.77154 0.94297 0.04126 0.0
C390 C 0.77631 0.98438 0.05608 0.0
C391 C 0.78049 0.0142 0.01132 0.0
C392 C 0.78067 0.05336 0.02718 0.0
C393 C 0.77864 0.06353 0.08541 0.0
C394 C 0.77573 0.0349 0.12914 0.0
C395 C 0.77425 0.9956 0.1149 0.0
H396 H 0.7556 0.85346 0.40606 0.0
C397 C 0.73771 0.81859 0.39581 0.0
H398 H 0.73441 0.75725 0.40511 0.0
H399 H 0.90648 0.77927 0.47977 0.0
H400 H 0.91421 0.77386 0.37485 0.0
H401 H 0.86573 0.78401 0.30569 0.0
H402 H 0.8095 0.79974 0.34111 0.0
C403 C 0.75122 0.79174 0.41782 0.0
C404 C 0.79099 0.80607 0.45482 0.0
C405 C 0.82464 0.7988 0.43342 0.0
C406 C 0.85253 0.793 0.47297 0.0
C407 C 0.88463 0.78382 0.45092 0.0
C408 C 0.88931 0.78074 0.39106 0.0
C409 C 0.862 0.78643 0.35216 0.0
C410 C 0.82984 0.79522 0.37288 0.0
H411 H 0.82359 0.71108 0.5257 0.0
C412 C 0.84039 0.72559 0.56665 0.0
H413 H 0.87315 0.78312 0.61664 0.0
H414 H 0.73708 0.83062 0.50915 0.0
H415 H 0.7352 0.8435 0.61284 0.0
H416 H 0.78582 0.83652 0.68105 0.0
H417 H 0.83802 0.81571 0.6464 0.0
C418 C 0.85927 0.76934 0.57418 0.0
C419 C 0.84658 0.79449 0.53369 0.0
C420 C 0.81884 0.81022 0.5544 0.0
C421 C 0.79026 0.81526 0.51483 0.0
C422 C 0.75987 0.8269 0.53707 0.0
C423 C 0.75852 0.8345 0.59647 0.0
C424 C 0.78695 0.83043 0.63496 0.0
C425 C 0.81664 0.8182 0.61449 0.0
H426 H 0.89035 0.74314 0.90088 0.0
C427 C 0.91048 0.72901 0.88839 0.0
H428 H 0.97211 0.73246 0.89557 0.0
H429 H 0.10992 0.90728 0.97635 0.0
H430 H 0.11454 0.92599 0.87286 0.0
H431 H 0.05429 0.87905 0.80485 0.0
H432 H 0.98853 0.81356 0.83988 0.0
C433 C 0.95128 0.74522 0.91063 0.0
C434 C 0.97323 0.78314 0.95121 0.0
C435 C 0.01036 0.82176 0.93058 0.0
C436 C 0.04521 0.8485 0.96946 0.0
C437 C 0.08288 0.88594 0.94777 0.0
C438 C 0.08581 0.89688 0.88887 0.0
C439 C 0.05178 0.87048 0.85056 0.0
C440 C 0.01445 0.8331 0.87093 0.0
H441 H 0.10215 0.81546 0.00185 0.0
C442 C 0.10828 0.83084 0.04471 0.0
H443 H 0.08691 0.86036 0.10639 0.0
H444 H 0.90067 0.71935 0.00619 0.0
H445 H 0.89274 0.70545 0.11079 0.0
H446 H 0.95298 0.75224 0.17879 0.0
H447 H 0.02148 0.81298 0.14296 0.0
C448 C 0.08378 0.84848 0.06187 0.0
C449 C 0.04266 0.83622 0.02854 0.0
C450 C 1.00196 0.80283 0.05098 0.0
C451 C 0.96712 0.77592 0.0119 0.0
C452 C 0.92796 0.74061 0.03437 0.0
C453 C 0.92301 0.73244 0.09412 0.0
C454 C 0.95696 0.75879 0.13244 0.0
C455 C 0.99618 0.79347 0.11133 0.0
H456 H 0.27967 0.07296 0.57177 0.0
C457 C 0.2743 0.06042 0.61606 0.0
H458 H 0.23646 0.00832 0.67291 0.0
H459 H 0.16308 0.97033 0.39182 0.0
H460 H 0.15178 0.03321 0.4018 0.0
H461 H 0.16802 0.07395 0.49497 0.0
H462 H 0.196 0.05232 0.57846 0.0
C463 C 0.24161 0.01947 0.628 0.0
C464 C 0.21724 0.98721 0.58037 0.0
C465 C 0.19834 0.99854 0.53355 0.0
C466 C 0.18821 0.9746 0.48039 0.0
C467 C 0.17151 0.98782 0.43306 0.0
C468 C 0.16461 0.02352 0.4384 0.0
C469 C 0.17377 0.04648 0.49085 0.0
C470 C 0.19018 0.03407 0.53816 0.0
H471 H 0.1522 0.86188 0.4107 0.0
C472 C 0.18042 0.88819 0.3891 0.0
H473 H 0.23112 0.9545 0.39216 0.0
H474 H 0.23984 0.94841 0.66807 0.0
H475 H 0.24499 0.88247 0.66018 0.0
H476 H 0.22803 0.84136 0.56746 0.0
H477 H 0.20553 0.8659 0.48238 0.0
C478 C 0.20414 0.92763 0.41535 0.0
C479 C 0.19611 0.93895 0.47466 0.0
C480 C 0.20796 0.92318 0.52447 0.0
C481 C 0.21823 0.94724 0.5778 0.0
C482 C 0.23176 0.93184 0.62636 0.0
C483 C 0.23485 0.89385 0.6225 0.0
C484 C 0.22527 0.87069 0.57033 0.0
C485 C 0.21232 0.88521 0.52166 0.0
H486 H 0.66724 0.71537 0.09963 0.0
C487 C 0.68034 0.74947 0.11295 0.0
H488 H 0.72818 0.81558 0.09555 0.0
H489 H 0.7904 0.68636 0.96552 0.0
H490 H 0.82005 0.68668 0.06084 0.0
H491 H 0.81088 0.72688 0.14293 0.0
H492 H 0.77026 0.76575 0.12998 0.0
C493 C 0.7129 0.78143 0.08215 0.0
C494 C 0.72961 0.76954 0.0301 0.0
C495 C 0.75603 0.74979 0.03727 0.0
C496 C 0.76356 0.72893 0.98912 0.0
C497 C 0.7859 0.70521 -0.00077 0.0
C498 C 0.8028 0.70471 0.05416 0.0
C499 C 0.79742 0.72712 0.10043 0.0
C500 C 0.77401 0.74917 0.09246 0.0
H501 H 0.81862 0.73454 0.88121 0.0
C502 C 0.78748 0.71144 0.86082 0.0
H503 H 0.7185 0.68212 0.8621 0.0
H504 H 0.68058 0.80765 0.00175 0.0
H505 H 0.65669 0.81433 0.9046 0.0
H506 H 0.67564 0.78454 0.81895 0.0
H507 H 0.71763 0.7471 0.83015 0.0
C508 C 0.74946 0.70504 0.88322 0.0
C509 C 0.74716 0.73085 0.93306 0.0
C510 C 0.72429 0.75437 0.9252 0.0
C511 C 0.71465 0.77287 0.97406 0.0
C512 C 0.68938 0.79372 0.96574 0.0
C513 C 0.67549 0.79776 0.91026 0.0
C514 C 0.68613 0.78096 0.86208 0.0
C515 C 0.71011 0.75938 0.86918 0.0
H516 H 0.98395 0.72089 0.6062 0.0
C517 C 0.94872 0.70838 0.60227 0.0
H518 H 0.89701 0.69583 0.54382 0.0
H519 H 0.07977 0.84909 0.4142 0.0
H520 H 0.07304 0.9002 0.47894 0.0
H521 H 0.01532 0.87319 0.55419 0.0
H522 H 0.96389 0.7949 0.56474 0.0
C523 C 0.93222 0.71141 0.5509 0.0
C524 C 0.9622 0.72849 0.50034 0.0
C525 C 0.99211 0.77418 0.49515 0.0
C526 C 0.02578 0.78964 0.45253 0.0
C527 C 0.05444 0.83554 0.44701 0.0
C528 C 0.05069 0.86522 0.48362 0.0
C529 C 0.01821 0.85001 0.52598 0.0
C530 C 0.9891 0.80505 0.53181 0.0
H531 H 0.02286 0.7533 0.30201 0.0
C532 C 0.05706 0.76946 0.31628 0.0
H533 H 0.09997 0.79001 0.3889 0.0
H534 H 0.90718 0.63935 0.49544 0.0
H535 H 0.91604 0.58768 0.43462 0.0
H536 H 0.97863 0.61358 0.36713 0.0
H537 H 0.032 0.69105 0.3592 0.0
C538 C 0.0663 0.77533 0.37333 0.0
C539 C 0.0302 0.75922 0.41656 0.0
C540 C 1.00013 0.71338 0.42184 0.0
C541 C 0.96518 0.69823 0.46245 0.0
C542 C 0.93482 0.65252 0.46594 0.0
C543 C 0.93949 0.6225 0.4313 0.0
C544 C 0.97463 0.63709 0.39318 0.0
C545 C 0.00482 0.68186 0.3886 0.0
H546 H 0.16888 0.92769 0.07391 0.0
C547 C 0.20059 0.94433 0.09587 0.0
H548 H 0.26209 1.00209 0.10409 0.0
H549 H 0.22943 0.04166 0.83724 0.0
H550 H 0.20932 0.96686 0.81019 0.0
H551 H 0.19756 0.91206 0.88568 0.0
H552 H 0.20491 0.9311 0.98769 0.0
C553 C 0.23092 0.9854 0.08059 0.0
C554 C 0.22467 0.01179 0.03482 0.0
C555 C 0.21997 0.99923 0.97507 0.0
C556 C 0.22843 0.03116 0.93135 0.0
C557 C 0.22405 0.01862 0.87191 0.0
C558 C 0.21256 0.97592 0.85585 0.0
C559 C 0.20588 0.94507 0.89836 0.0
C560 C 0.20984 0.95647 0.95722 0.0
H561 H 0.32903 0.11299 0.94011 0.0
C562 C 0.31524 0.1225 0.90408 0.0
H563 H 0.2568 0.11531 0.86702 0.0
H564 H 0.2242 0.04301 0.14398 0.0
H565 H 0.24362 0.11813 0.16924 0.0
H566 H 0.2646 0.1746 0.09278 0.0
H567 H 0.26556 0.15598 0.99047 0.0
C568 C 0.27236 0.11021 0.90502 0.0
C569 C 0.24454 0.07565 0.94739 0.0
C570 C 0.24428 0.0869 0.00632 0.0
C571 C 0.23332 0.05463 0.05014 0.0
C572 C 0.23317 0.06666 0.10905 0.0
C573 C 0.2441 0.10951 0.12401 0.0
C574 C 0.25589 0.14132 0.08097 0.0
C575 C 0.25633 0.13034 0.02266 0.0
H576 H 0.25734 0.14143 0.56756 0.0
C577 C 0.27942 0.17676 0.57025 0.0
H578 H 0.29168 0.23969 0.54545 0.0
H579 H 0.17809 0.19228 0.32407 0.0
H580 H 0.21779 0.15781 0.28344 0.0
H581 H 0.26193 0.13767 0.34716 0.0
H582 H 0.26682 0.15207 0.45202 0.0
C583 C 0.27016 0.20434 0.54103 0.0
C584 C 0.22807 0.19107 0.5105 0.0
C585 C 0.22409 0.18063 0.45053 0.0
C586 C 0.19859 0.19214 0.41401 0.0
C587 C 0.19709 0.18404 0.35346 0.0
C588 C 0.21958 0.16426 0.32985 0.0
C589 C 0.24449 0.15293 0.36575 0.0
C590 C 0.24717 0.16136 0.42552 0.0
H591 H 0.22884 0.29904 0.4422 0.0
C592 C 0.2044 0.28948 0.40756 0.0
H593 H 0.15171 0.23584 0.3639 0.0
H594 H 0.21693 0.19999 0.62608 0.0
H595 H 0.16981 0.22578 0.66805 0.0
H596 H 0.12486 0.24501 0.60438 0.0
H597 H 0.12699 0.2387 0.49839 0.0
C598 C 0.1734 0.24685 0.40176 0.0
C599 C 0.17781 0.21423 0.43822 0.0
C600 C 0.17412 0.21551 0.49936 0.0
C601 C 0.19959 0.20407 0.53575 0.0
C602 C 0.19794 0.2084 0.59682 0.0
C603 C 0.17105 0.22295 0.62117 0.0
C604 C 0.14575 0.23383 0.58532 0.0
C605 C 0.14735 0.23039 0.5249 0.0
H606 H 0.91002 0.21657 0.96234 0.0
C607 C 0.90206 0.19363 0.9262 0.0
H608 H 0.91801 0.14978 0.8846 0.0
H609 H 0.10113 0.29628 -0.00447 0.0
H610 H 0.11587 0.3074 0.89193 0.0
H611 H 0.05963 0.25995 0.81961 0.0
H612 H 0.98808 0.20117 0.85089 0.0
C613 C 0.92163 0.16912 0.92345 0.0
C614 C 0.95947 0.18115 0.96313 0.0
C615 C 1.00201 0.21309 0.94425 0.0
C616 C 0.03459 0.23993 0.98596 0.0
C617 C 0.07544 0.27435 0.96594 0.0
C618 C 0.08429 0.28115 0.90648 0.0
C619 C 0.05263 0.25447 0.86574 0.0
C620 C 0.01175 0.22096 0.88418 0.0
H621 H 0.10861 0.26892 0.09023 0.0
C622 C 0.0897 0.28298 0.10812 0.0
H623 H 0.02932 0.28232 0.1088 0.0
H624 H 0.88584 0.11402 0.01096 0.0
H625 H 0.8731 0.09706 0.1148 0.0
H626 H 0.93 0.14214 0.18777 0.0
H627 H 1.00016 0.20425 0.15761 0.0
C628 C 0.04865 0.26945 0.0888 0.0
C629 C 0.02449 0.23331 0.04616 0.0
C630 C 0.98466 0.19626 0.06443 0.0
C631 C 0.95192 0.17024 0.02269 0.0
C632 C 0.91151 0.13471 0.04168 0.0
C633 C 0.90393 0.12469 0.1008 0.0
C634 C 0.93604 0.15006 0.14192 0.0
C635 C 0.97598 0.18561 0.12419 0.0
H636 H 0.75171 0.91852 0.39234 0.0
C637 C 0.73317 0.93205 0.37171 0.0
H638 H 0.72015 0.98445 0.36825 0.0
H639 H 0.79885 0.01682 0.63585 0.0
H640 H 0.74844 0.93945 0.65611 0.0
H641 H 0.70428 0.88852 0.57692 0.0
H642 H 0.7116 0.91355 0.47777 0.0
C643 C 0.73814 0.97066 0.38998 0.0
C644 C 0.76868 0.99771 0.43752 0.0
C645 C 0.76287 0.98177 0.49568 0.0
C646 C 0.7861 0.01153 0.54193 0.0
C647 C 0.78088 0.99541 0.59961 0.0
C648 C 0.7522 0.95125 0.61174 0.0
C649 C 0.72758 0.92253 0.56713 0.0
C650 C 0.73249 0.93743 0.50986 0.0
H651 H 0.75677 0.08091 0.56612 0.0
C652 C 0.78631 0.09521 0.59322 0.0
H653 H 0.84764 0.09855 0.60755 0.0
H654 H 0.79507 0.03699 0.33075 0.0
H655 H 0.84499 0.11476 0.31271 0.0
H656 H 0.87927 0.167 0.3946 0.0
H657 H 0.86458 0.14144 0.49515 0.0
C658 C 0.81941 0.08833 0.5789 0.0
C659 C 0.81162 0.05714 0.53064 0.0
C660 C 0.82019 0.07247 0.47274 0.0
C661 C 0.79949 0.04252 0.42591 0.0
C662 C 0.80916 0.05859 0.36809 0.0
C663 C 0.83781 0.10307 0.35718 0.0
C664 C 0.8571 0.13249 0.40327 0.0
C665 C 0.84831 0.11755 0.46058 0.0
loop_
_geom_bond_atom_site_label_1
_geom_bond_atom_site_label_2
_geom_bond_distance
_geom_bond_site_symmetry_2
_ccdc_geom_bond_type
Zn0 O6 1.920 . S
Zn0 O12 1.898 . S
Zn0 O15 1.905 . S
Zn1 O9 1.905 . S
Zn1 O10 1.898 . S
Zn1 O18 1.920 . S
Zn2 O5 2.080 . S
Zn2 O8 2.114 . S
Zn2 O11 2.120 . S
Zn2 O13 2.120 . S
Zn2 O14 2.114 . S
Zn2 O17 2.080 . S
C3 O8 1.166 . S
C3 O9 1.182 . S
C4 O10 1.167 . S
C4 O11 1.299 . S
O5 Zn2 2.080 . S
O5 C19 1.305 . S
O6 Zn0 1.920 . S
O6 C19 1.234 . S
C7 O12 1.167 . S
C7 O13 1.299 . S
O8 Zn2 2.114 . S
O8 C3 1.166 . S
O9 Zn1 1.905 . S
O9 C3 1.182 . S
O10 Zn1 1.898 . S
O10 C4 1.167 . S
O11 Zn2 2.120 . S
O11 C4 1.299 . S
O12 Zn0 1.898 . S
O12 C7 1.167 . S
O13 Zn2 2.120 . S
O13 C7 1.299 . S
O14 Zn2 2.114 . S
O14 C16 1.166 . S
O15 Zn0 1.905 . S
O15 C16 1.182 . S
C16 O14 1.166 . S
C16 O15 1.182 . S
O17 Zn2 2.080 . S
O17 C20 1.305 . S
O18 Zn1 1.920 . S
O18 C20 1.234 . S
C19 O5 1.305 . S
C19 O6 1.234 . S
C20 O17 1.305 . S
C20 O18 1.234 . S
Zn21 O27 1.920 . S
Zn21 O33 1.898 . S
Zn21 O36 1.905 . S
Zn22 O30 1.905 . S
Zn22 O31 1.898 . S
Zn22 O39 1.920 . S
Zn23 O26 2.080 . S
Zn23 O29 2.114 . S
Zn23 O32 2.120 . S
Zn23 O34 2.120 . S
Zn23 O35 2.114 . S
Zn23 O38 2.080 . S
C24 O29 1.166 . S
C24 O30 1.182 . S
C25 O31 1.167 . S
C25 O32 1.299 . S
O26 Zn23 2.080 . S
O26 C40 1.305 . S
O27 Zn21 1.920 . S
O27 C40 1.234 . S
C28 O33 1.167 . S
C28 O34 1.299 . S
O29 Zn23 2.114 . S
O29 C24 1.166 . S
O30 Zn22 1.905 . S
O30 C24 1.182 . S
O31 Zn22 1.898 . S
O31 C25 1.167 . S
O32 Zn23 2.120 . S
O32 C25 1.299 . S
O33 Zn21 1.898 . S
O33 C28 1.167 . S
O34 Zn23 2.120 . S
O34 C28 1.299 . S
O35 Zn23 2.114 . S
O35 C37 1.166 . S
O36 Zn21 1.905 . S
O36 C37 1.182 . S
C37 O35 1.166 . S
C37 O36 1.182 . S
O38 Zn23 2.080 . S
O38 C41 1.305 . S
O39 Zn22 1.920 . S
O39 C41 1.234 . S
C40 O26 1.305 . S
C40 O27 1.234 . S
C41 O38 1.305 . S
C41 O39 1.234 . S
Zn42 O48 1.920 . S
Zn42 O54 1.898 . S
Zn42 O57 1.905 . S
Zn43 O51 1.905 . S
Zn43 O52 1.898 . S
Zn43 O60 1.920 . S
Zn44 O47 2.080 . S
Zn44 O50 2.114 . S
Zn44 O53 2.120 . S
Zn44 O55 2.120 . S
Zn44 O56 2.114 . S
Zn44 O59 2.080 . S
C45 O50 1.166 . S
C45 O51 1.182 . S
C46 O52 1.167 . S
C46 O53 1.299 . S
O47 Zn44 2.080 . S
O47 C61 1.305 . S
O48 Zn42 1.920 . S
O48 C61 1.234 . S
C49 O54 1.167 . S
C49 O55 1.299 . S
O50 Zn44 2.114 . S
O50 C45 1.166 . S
O51 Zn43 1.905 . S
O51 C45 1.182 . S
O52 Zn43 1.898 . S
O52 C46 1.167 . S
O53 Zn44 2.120 . S
O53 C46 1.299 . S
O54 Zn42 1.898 . S
O54 C49 1.167 . S
O55 Zn44 2.120 . S
O55 C49 1.299 . S
O56 Zn44 2.114 . S
O56 C58 1.166 . S
O57 Zn42 1.905 . S
O57 C58 1.182 . S
C58 O56 1.166 . S
C58 O57 1.182 . S
O59 Zn44 2.080 . S
O59 C62 1.305 . S
O60 Zn43 1.920 . S
O60 C62 1.234 . S
C61 O47 1.305 . S
C61 O48 1.234 . S
C62 O59 1.305 . S
C62 O60 1.234 . S
Zn63 O69 1.920 . S
Zn63 O75 1.898 . S
Zn63 O78 1.905 . S
Zn64 O72 1.905 . S
Zn64 O73 1.898 . S
Zn64 O81 1.920 . S
Zn65 O68 2.080 . S
Zn65 O71 2.114 . S
Zn65 O74 2.120 . S
Zn65 O76 2.120 . S
Zn65 O77 2.114 . S
Zn65 O80 2.080 . S
C66 O71 1.166 . S
C66 O72 1.182 . S
C67 O73 1.167 . S
C67 O74 1.299 . S
O68 Zn65 2.080 . S
O68 C82 1.305 . S
O69 Zn63 1.920 . S
O69 C82 1.234 . S
C70 O75 1.167 . S
C70 O76 1.299 . S
O71 Zn65 2.114 . S
O71 C66 1.166 . S
O72 Zn64 1.905 . S
O72 C66 1.182 . S
O73 Zn64 1.898 . S
O73 C67 1.167 . S
O74 Zn65 2.120 . S
O74 C67 1.299 . S
O75 Zn63 1.898 . S
O75 C70 1.167 . S
O76 Zn65 2.120 . S
O76 C70 1.299 . S
O77 Zn65 2.114 . S
O77 C79 1.166 . S
O78 Zn63 1.905 . S
O78 C79 1.182 . S
C79 O77 1.166 . S
C79 O78 1.182 . S
O80 Zn65 2.080 . S
O80 C83 1.305 . S
O81 Zn64 1.920 . S
O81 C83 1.234 . S
C82 O68 1.305 . S
C82 O69 1.234 . S
C83 O80 1.305 . S
C83 O81 1.234 . S
Zn84 O90 1.920 . S
Zn84 O96 1.898 . S
Zn84 O99 1.905 . S
Zn85 O93 1.905 . S
Zn85 O94 1.898 . S
Zn85 O102 1.920 . S
Zn86 O89 2.080 . S
Zn86 O92 2.114 . S
Zn86 O95 2.120 . S
Zn86 O97 2.120 . S
Zn86 O98 2.114 . S
Zn86 O101 2.080 . S
C87 O92 1.166 . S
C87 O93 1.182 . S
C88 O94 1.167 . S
C88 O95 1.299 . S
O89 Zn86 2.080 . S
O89 C103 1.305 . S
O90 Zn84 1.920 . S
O90 C103 1.234 . S
C91 O96 1.167 . S
C91 O97 1.299 . S
O92 Zn86 2.114 . S
O92 C87 1.166 . S
O93 Zn85 1.905 . S
O93 C87 1.182 . S
O94 Zn85 1.898 . S
O94 C88 1.167 . S
O95 Zn86 2.120 . S
O95 C88 1.299 . S
O96 Zn84 1.898 . S
O96 C91 1.167 . S
O97 Zn86 2.120 . S
O97 C91 1.299 . S
O98 Zn86 2.114 . S
O98 C100 1.166 . S
O99 Zn84 1.905 . S
O99 C100 1.182 . S
C100 O98 1.166 . S
C100 O99 1.182 . S
O101 Zn86 2.080 . S
O101 C104 1.305 . S
O102 Zn85 1.920 . S
O102 C104 1.234 . S
C103 O89 1.305 . S
C103 O90 1.234 . S
C104 O101 1.305 . S
C104 O102 1.234 . S
Zn105 O111 1.920 . S
Zn105 O117 1.898 . S
Zn105 O120 1.905 . S
Zn106 O114 1.905 . S
Zn106 O115 1.898 . S
Zn106 O123 1.920 . S
Zn107 O110 2.080 . S
Zn107 O113 2.114 . S
Zn107 O116 2.120 . S
Zn107 O118 2.120 . S
Zn107 O119 2.114 . S
Zn107 O122 2.080 . S
C108 O113 1.166 . S
C108 O114 1.182 . S
C109 O115 1.167 . S
C109 O116 1.299 . S
O110 Zn107 2.080 . S
O110 C124 1.305 . S
O111 Zn105 1.920 . S
O111 C124 1.234 . S
C112 O117 1.167 . S
C112 O118 1.299 . S
O113 Zn107 2.114 . S
O113 C108 1.166 . S
O114 Zn106 1.905 . S
O114 C108 1.182 . S
O115 Zn106 1.898 . S
O115 C109 1.167 . S
O116 Zn107 2.120 . S
O116 C109 1.299 . S
O117 Zn105 1.898 . S
O117 C112 1.167 . S
O118 Zn107 2.120 . S
O118 C112 1.299 . S
O119 Zn107 2.114 . S
O119 C121 1.166 . S
O120 Zn105 1.905 . S
O120 C121 1.182 . S
C121 O119 1.166 . S
C121 O120 1.182 . S
O122 Zn107 2.080 . S
O122 C125 1.305 . S
O123 Zn106 1.920 . S
O123 C125 1.234 . S
C124 O110 1.305 . S
C124 O111 1.234 . S
C125 O122 1.305 . S
C125 O123 1.234 . S
H126 C127 0.951 . S
C127 H126 0.951 . S
C127 C133 1.265 . S
H128 C133 0.950 . S
H129 C137 0.949 . S
H130 C138 0.950 . S
H131 C139 0.951 . S
H132 C140 0.951 . S
C133 C127 1.265 . S
C133 H128 0.950 . S
C133 C134 1.478 . S
C134 C133 1.478 . S
C134 C135 1.397 . S
C134 C151 1.394 . S
C135 C134 1.397 . S
C135 C136 1.438 . S
C135 C140 1.429 . S
C136 C135 1.438 . S
C136 C137 1.428 . S
C136 C149 1.394 . S
C137 H129 0.949 . S
C137 C136 1.428 . S
C137 C138 1.345 . S
C138 H130 0.950 . S
C138 C137 1.345 . S
C138 C139 1.424 . S
C139 H131 0.951 . S
C139 C138 1.424 . S
C139 C140 1.347 . S
C140 H132 0.951 . S
C140 C135 1.429 . S
C140 C139 1.347 . S
H141 C142 0.951 . S
C142 H141 0.951 . S
C142 C148 1.265 . S
H143 C148 0.950 . S
H144 C152 0.949 . S
H145 C153 0.950 . S
H146 C154 0.951 . S
H147 C155 0.951 . S
C148 C142 1.265 . S
C148 H143 0.950 . S
C148 C149 1.478 . S
C149 C136 1.394 . S
C149 C148 1.478 . S
C149 C150 1.397 . S
C150 C149 1.397 . S
C150 C151 1.438 . S
C150 C155 1.429 . S
C151 C134 1.394 . S
C151 C150 1.438 . S
C151 C152 1.428 . S
C152 H144 0.949 . S
C152 C151 1.428 . S
C152 C153 1.345 . S
C153 H145 0.950 . S
C153 C152 1.345 . S
C153 C154 1.424 . S
C154 H146 0.951 . S
C154 C153 1.424 . S
C154 C155 1.347 . S
C155 H147 0.951 . S
C155 C150 1.429 . S
C155 C154 1.347 . S
H156 C157 0.951 . S
C157 H156 0.951 . S
C157 C163 1.265 . S
H158 C163 0.950 . S
H159 C167 0.949 . S
H160 C168 0.950 . S
H161 C169 0.951 . S
H162 C170 0.951 . S
C163 C157 1.265 . S
C163 H158 0.950 . S
C163 C164 1.478 . S
C164 C163 1.478 . S
C164 C165 1.397 . S
C164 C181 1.394 . S
C165 C164 1.397 . S
C165 C166 1.438 . S
C165 C170 1.429 . S
C166 C165 1.438 . S
C166 C167 1.428 . S
C166 C179 1.394 . S
C167 H159 0.949 . S
C167 C166 1.428 . S
C167 C168 1.345 . S
C168 H160 0.950 . S
C168 C167 1.345 . S
C168 C169 1.424 . S
C169 H161 0.951 . S
C169 C168 1.424 . S
C169 C170 1.347 . S
C170 H162 0.951 . S
C170 C165 1.429 . S
C170 C169 1.347 . S
H171 C172 0.951 . S
C172 H171 0.951 . S
C172 C178 1.265 . S
H173 C178 0.950 . S
H174 C182 0.949 . S
H175 C183 0.950 . S
H176 C184 0.951 . S
H177 C185 0.951 . S
C178 C172 1.265 . S
C178 H173 0.950 . S
C178 C179 1.478 . S
C179 C166 1.394 . S
C179 C178 1.478 . S
C179 C180 1.397 . S
C180 C179 1.397 . S
C180 C181 1.438 . S
C180 C185 1.429 . S
C181 C164 1.394 . S
C181 C180 1.438 . S
C181 C182 1.428 . S
C182 H174 0.949 . S
C182 C181 1.428 . S
C182 C183 1.345 . S
C183 H175 0.950 . S
C183 C182 1.345 . S
C183 C184 1.424 . S
C184 H176 0.951 . S
C184 C183 1.424 . S
C184 C185 1.347 . S
C185 H177 0.951 . S
C185 C180 1.429 . S
C185 C184 1.347 . S
H186 C187 0.951 . S
C187 H186 0.951 . S
C187 C193 1.265 . S
H188 C193 0.950 . S
H189 C197 0.949 . S
H190 C198 0.950 . S
H191 C199 0.951 . S
H192 C200 0.951 . S
C193 C187 1.265 . S
C193 H188 0.950 . S
C193 C194 1.478 . S
C194 C193 1.478 . S
C194 C195 1.397 . S
C194 C211 1.394 . S
C195 C194 1.397 . S
C195 C196 1.438 . S
C195 C200 1.429 . S
C196 C195 1.438 . S
C196 C197 1.428 . S
C196 C209 1.394 . S
C197 H189 0.949 . S
C197 C196 1.428 . S
C197 C198 1.345 . S
C198 H190 0.950 . S
C198 C197 1.345 . S
C198 C199 1.424 . S
C199 H191 0.951 . S
C199 C198 1.424 . S
C199 C200 1.347 . S
C200 H192 0.951 . S
C200 C195 1.429 . S
C200 C199 1.347 . S
H201 C202 0.951 . S
C202 H201 0.951 . S
C202 C208 1.265 . S
H203 C208 0.950 . S
H204 C212 0.949 . S
H205 C213 0.950 . S
H206 C214 0.951 . S
H207 C215 0.951 . S
C208 C202 1.265 . S
C208 H203 0.950 . S
C208 C209 1.478 . S
C209 C196 1.394 . S
C209 C208 1.478 . S
C209 C210 1.397 . S
C210 C209 1.397 . S
C210 C211 1.438 . S
C210 C215 1.429 . S
C211 C194 1.394 . S
C211 C210 1.438 . S
C211 C212 1.428 . S
C212 H204 0.949 . S
C212 C211 1.428 . S
C212 C213 1.345 . S
C213 H205 0.950 . S
C213 C212 1.345 . S
C213 C214 1.424 . S
C214 H206 0.951 . S
C214 C213 1.424 . S
C214 C215 1.347 . S
C215 H207 0.951 . S
C215 C210 1.429 . S
C215 C214 1.347 . S
H216 C217 0.951 . S
C217 H216 0.951 . S
C217 C223 1.265 . S
H218 C223 0.950 . S
H219 C227 0.949 . S
H220 C228 0.950 . S
H221 C229 0.951 . S
H222 C230 0.951 . S
C223 C217 1.265 . S
C223 H218 0.950 . S
C223 C224 1.478 . S
C224 C223 1.478 . S
C224 C225 1.397 . S
C224 C241 1.394 . S
C225 C224 1.397 . S
C225 C226 1.438 . S
C225 C230 1.429 . S
C226 C225 1.438 . S
C226 C227 1.428 . S
C226 C239 1.394 . S
C227 H219 0.949 . S
C227 C226 1.428 . S
C227 C228 1.345 . S
C228 H220 0.950 . S
C228 C227 1.345 . S
C228 C229 1.424 . S
C229 H221 0.951 . S
C229 C228 1.424 . S
C229 C230 1.347 . S
C230 H222 0.951 . S
C230 C225 1.429 . S
C230 C229 1.347 . S
H231 C232 0.951 . S
C232 H231 0.951 . S
C232 C238 1.265 . S
H233 C238 0.950 . S
H234 C242 0.949 . S
H235 C243 0.950 . S
H236 C244 0.951 . S
H237 C245 0.951 . S
C238 C232 1.265 . S
C238 H233 0.950 . S
C238 C239 1.478 . S
C239 C226 1.394 . S
C239 C238 1.478 . S
C239 C240 1.397 . S
C240 C239 1.397 . S
C240 C241 1.438 . S
C240 C245 1.429 . S
C241 C224 1.394 . S
C241 C240 1.438 . S
C241 C242 1.428 . S
C242 H234 0.949 . S
C242 C241 1.428 . S
C242 C243 1.345 . S
C243 H235 0.950 . S
C243 C242 1.345 . S
C243 C244 1.424 . S
C244 H236 0.951 . S
C244 C243 1.424 . S
C244 C245 1.347 . S
C245 H237 0.951 . S
C245 C240 1.429 . S
C245 C244 1.347 . S
H246 C247 0.951 . S
C247 H246 0.951 . S
C247 C253 1.265 . S
H248 C253 0.950 . S
H249 C257 0.949 . S
H250 C258 0.950 . S
H251 C259 0.951 . S
H252 C260 0.951 . S
C253 C247 1.265 . S
C253 H248 0.950 . S
C253 C254 1.478 . S
C254 C253 1.478 . S
C254 C255 1.397 . S
C254 C271 1.394 . S
C255 C254 1.397 . S
C255 C256 1.438 . S
C255 C260 1.429 . S
C256 C255 1.438 . S
C256 C257 1.428 . S
C256 C269 1.394 . S
C257 H249 0.949 . S
C257 C256 1.428 . S
C257 C258 1.345 . S
C258 H250 0.950 . S
C258 C257 1.345 . S
C258 C259 1.424 . S
C259 H251 0.951 . S
C259 C258 1.424 . S
C259 C260 1.347 . S
C260 H252 0.951 . S
C260 C255 1.429 . S
C260 C259 1.347 . S
H261 C262 0.951 . S
C262 H261 0.951 . S
C262 C268 1.265 . S
H263 C268 0.950 . S
H264 C272 0.949 . S
H265 C273 0.950 . S
H266 C274 0.951 . S
H267 C275 0.951 . S
C268 C262 1.265 . S
C268 H263 0.950 . S
C268 C269 1.478 . S
C269 C256 1.394 . S
C269 C268 1.478 . S
C269 C270 1.397 . S
C270 C269 1.397 . S
C270 C271 1.438 . S
C270 C275 1.429 . S
C271 C254 1.394 . S
C271 C270 1.438 . S
C271 C272 1.428 . S
C272 H264 0.949 . S
C272 C271 1.428 . S
C272 C273 1.345 . S
C273 H265 0.950 . S
C273 C272 1.345 . S
C273 C274 1.424 . S
C274 H266 0.951 . S
C274 C273 1.424 . S
C274 C275 1.347 . S
C275 H267 0.951 . S
C275 C270 1.429 . S
C275 C274 1.347 . S
H276 C277 0.951 . S
C277 H276 0.951 . S
C277 C283 1.265 . S
H278 C283 0.950 . S
H279 C287 0.949 . S
H280 C288 0.950 . S
H281 C289 0.951 . S
H282 C290 0.951 . S
C283 C277 1.265 . S
C283 H278 0.950 . S
C283 C284 1.478 . S
C284 C283 1.478 . S
C284 C285 1.397 . S
C284 C301 1.394 . S
C285 C284 1.397 . S
C285 C286 1.438 . S
C285 C290 1.429 . S
C286 C285 1.438 . S
C286 C287 1.428 . S
C286 C299 1.394 . S
C287 H279 0.949 . S
C287 C286 1.428 . S
C287 C288 1.345 . S
C288 H280 0.950 . S
C288 C287 1.345 . S
C288 C289 1.424 . S
C289 H281 0.951 . S
C289 C288 1.424 . S
C289 C290 1.347 . S
C290 H282 0.951 . S
C290 C285 1.429 . S
C290 C289 1.347 . S
H291 C292 0.951 . S
C292 H291 0.951 . S
C292 C298 1.265 . S
H293 C298 0.950 . S
H294 C302 0.949 . S
H295 C303 0.950 . S
H296 C304 0.951 . S
H297 C305 0.951 . S
C298 C292 1.265 . S
C298 H293 0.950 . S
C298 C299 1.478 . S
C299 C286 1.394 . S
C299 C298 1.478 . S
C299 C300 1.397 . S
C300 C299 1.397 . S
C300 C301 1.438 . S
C300 C305 1.429 . S
C301 C284 1.394 . S
C301 C300 1.438 . S
C301 C302 1.428 . S
C302 H294 0.949 . S
C302 C301 1.428 . S
C302 C303 1.345 . S
C303 H295 0.950 . S
C303 C302 1.345 . S
C303 C304 1.424 . S
C304 H296 0.951 . S
C304 C303 1.424 . S
C304 C305 1.347 . S
C305 H297 0.951 . S
C305 C300 1.429 . S
C305 C304 1.347 . S
H306 C307 0.951 . S
C307 H306 0.951 . S
C307 C313 1.265 . S
H308 C313 0.950 . S
H309 C317 0.949 . S
H310 C318 0.950 . S
H311 C319 0.951 . S
H312 C320 0.951 . S
C313 C307 1.265 . S
C313 H308 0.950 . S
C313 C314 1.478 . S
C314 C313 1.478 . S
C314 C315 1.397 . S
C314 C331 1.394 . S
C315 C314 1.397 . S
C315 C316 1.438 1_556 S
C315 C320 1.429 . S
C316 C315 1.438 1_554 S
C316 C317 1.428 . S
C316 C329 1.394 . S
C317 H309 0.949 . S
C317 C316 1.428 . S
C317 C318 1.345 . S
C318 H310 0.950 . S
C318 C317 1.345 . S
C318 C319 1.424 . S
C319 H311 0.951 . S
C319 C318 1.424 . S
C319 C320 1.347 1_554 S
C320 H312 0.951 . S
C320 C315 1.429 . S
C320 C319 1.347 1_556 S
H321 C322 0.951 . S
C322 H321 0.951 . S
C322 C328 1.265 . S
H323 C328 0.950 . S
H324 C332 0.949 . S
H325 C333 0.950 . S
H326 C334 0.951 . S
H327 C335 0.951 . S
C328 C322 1.265 . S
C328 H323 0.950 . S
C328 C329 1.478 . S
C329 C316 1.394 . S
C329 C328 1.478 . S
C329 C330 1.397 . S
C330 C329 1.397 . S
C330 C331 1.438 1_554 S
C330 C335 1.429 . S
C331 C314 1.394 . S
C331 C330 1.438 1_556 S
C331 C332 1.428 . S
C332 H324 0.949 . S
C332 C331 1.428 . S
C332 C333 1.345 . S
C333 H325 0.950 . S
C333 C332 1.345 . S
C333 C334 1.424 . S
C334 H326 0.951 . S
C334 C333 1.424 . S
C334 C335 1.347 1_556 S
C335 H327 0.951 . S
C335 C330 1.429 . S
C335 C334 1.347 1_554 S
H336 C337 0.951 . S
C337 H336 0.951 . S
C337 C343 1.265 . S
H338 C343 0.950 . S
H339 C347 0.949 1_455 S
H340 C348 0.950 . S
H341 C349 0.951 . S
H342 C350 0.951 . S
C343 C337 1.265 . S
C343 H338 0.950 . S
C343 C344 1.478 . S
C344 C343 1.478 . S
C344 C345 1.397 . S
C344 C361 1.394 1_655 S
C345 C344 1.397 . S
C345 C346 1.438 . S
C345 C350 1.429 . S
C346 C345 1.438 . S
C346 C347 1.428 . S
C346 C359 1.394 1_655 S
C347 H339 0.949 1_655 S
C347 C346 1.428 . S
C347 C348 1.345 . S
C348 H340 0.950 . S
C348 C347 1.345 . S
C348 C349 1.424 . S
C349 H341 0.951 . S
C349 C348 1.424 . S
C349 C350 1.347 . S
C350 H342 0.951 . S
C350 C345 1.429 . S
C350 C349 1.347 . S
H351 C352 0.951 . S
C352 H351 0.951 . S
C352 C358 1.265 . S
H353 C358 0.950 . S
H354 C362 0.949 1_655 S
H355 C363 0.950 . S
H356 C364 0.951 . S
H357 C365 0.951 . S
C358 C352 1.265 . S
C358 H353 0.950 . S
C358 C359 1.478 . S
C359 C346 1.394 1_455 S
C359 C358 1.478 . S
C359 C360 1.397 . S
C360 C359 1.397 . S
C360 C361 1.438 . S
C360 C365 1.429 . S
C361 C344 1.394 1_455 S
C361 C360 1.438 . S
C361 C362 1.428 . S
C362 H354 0.949 1_455 S
C362 C361 1.428 . S
C362 C363 1.345 . S
C363 H355 0.950 . S
C363 C362 1.345 . S
C363 C364 1.424 . S
C364 H356 0.951 . S
C364 C363 1.424 . S
C364 C365 1.347 . S
C365 H357 0.951 . S
C365 C360 1.429 . S
C365 C364 1.347 . S
H366 C367 0.951 . S
C367 H366 0.951 . S
C367 C373 1.265 . S
H368 C373 0.950 . S
H369 C377 0.949 . S
H370 C378 0.950 . S
H371 C379 0.951 . S
H372 C380 0.951 . S
C373 C367 1.265 . S
C373 H368 0.950 . S
C373 C374 1.478 . S
C374 C373 1.478 . S
C374 C375 1.397 1_545 S
C374 C391 1.394 . S
C375 C374 1.397 1_565 S
C375 C376 1.438 1_556 S
C375 C380 1.429 . S
C376 C375 1.438 1_554 S
C376 C377 1.428 . S
C376 C389 1.394 . S
C377 H369 0.949 . S
C377 C376 1.428 . S
C377 C378 1.345 1_554 S
C378 H370 0.950 . S
C378 C377 1.345 1_556 S
C378 C379 1.424 . S
C379 H371 0.951 . S
C379 C378 1.424 . S
C379 C380 1.347 . S
C380 H372 0.951 . S
C380 C375 1.429 . S
C380 C379 1.347 . S
H381 C382 0.951 . S
C382 H381 0.951 . S
C382 C388 1.265 . S
H383 C388 0.950 . S
H384 C392 0.949 . S
H385 C393 0.950 . S
H386 C394 0.951 . S
H387 C395 0.951 . S
C388 C382 1.265 . S
C388 H383 0.950 . S
C388 C389 1.478 . S
C389 C376 1.394 . S
C389 C388 1.478 . S
C389 C390 1.397 1_565 S
C390 C389 1.397 1_545 S
C390 C391 1.438 1_554 S
C390 C395 1.429 . S
C391 C374 1.394 . S
C391 C390 1.438 1_556 S
C391 C392 1.428 . S
C392 H384 0.949 . S
C392 C391 1.428 . S
C392 C393 1.345 1_556 S
C393 H385 0.950 . S
C393 C392 1.345 1_554 S
C393 C394 1.424 . S
C394 H386 0.951 . S
C394 C393 1.424 . S
C394 C395 1.347 . S
C395 H387 0.951 . S
C395 C390 1.429 . S
C395 C394 1.347 . S
H396 C397 0.951 . S
C397 H396 0.951 . S
C397 C403 1.265 . S
H398 C403 0.950 . S
H399 C407 0.949 . S
H400 C408 0.950 . S
H401 C409 0.951 . S
H402 C410 0.951 . S
C403 C397 1.265 . S
C403 H398 0.950 . S
C403 C404 1.478 . S
C404 C403 1.478 . S
C404 C405 1.397 . S
C404 C421 1.394 . S
C405 C404 1.397 . S
C405 C406 1.438 . S
C405 C410 1.429 . S
C406 C405 1.438 . S
C406 C407 1.428 . S
C406 C419 1.394 . S
C407 H399 0.949 . S
C407 C406 1.428 . S
C407 C408 1.345 . S
C408 H400 0.950 . S
C408 C407 1.345 . S
C408 C409 1.424 . S
C409 H401 0.951 . S
C409 C408 1.424 . S
C409 C410 1.347 . S
C410 H402 0.951 . S
C410 C405 1.429 . S
C410 C409 1.347 . S
H411 C412 0.951 . S
C412 H411 0.951 . S
C412 C418 1.265 . S
H413 C418 0.950 . S
H414 C422 0.949 . S
H415 C423 0.950 . S
H416 C424 0.951 . S
H417 C425 0.951 . S
C418 C412 1.265 . S
C418 H413 0.950 . S
C418 C419 1.478 . S
C419 C406 1.394 . S
C419 C418 1.478 . S
C419 C420 1.397 . S
C420 C419 1.397 . S
C420 C421 1.438 . S
C420 C425 1.429 . S
C421 C404 1.394 . S
C421 C420 1.438 . S
C421 C422 1.428 . S
C422 H414 0.949 . S
C422 C421 1.428 . S
C422 C423 1.345 . S
C423 H415 0.950 . S
C423 C422 1.345 . S
C423 C424 1.424 . S
C424 H416 0.951 . S
C424 C423 1.424 . S
C424 C425 1.347 . S
C425 H417 0.951 . S
C425 C420 1.429 . S
C425 C424 1.347 . S
H426 C427 0.951 . S
C427 H426 0.951 . S
C427 C433 1.265 . S
H428 C433 0.950 . S
H429 C437 0.949 1_554 S
H430 C438 0.950 . S
H431 C439 0.951 . S
H432 C440 0.951 . S
C433 C427 1.265 . S
C433 H428 0.950 . S
C433 C434 1.478 . S
C434 C433 1.478 . S
C434 C435 1.397 1_655 S
C434 C451 1.394 1_556 S
C435 C434 1.397 1_455 S
C435 C436 1.438 . S
C435 C440 1.429 . S
C436 C435 1.438 . S
C436 C437 1.428 . S
C436 C449 1.394 1_556 S
C437 H429 0.949 1_556 S
C437 C436 1.428 . S
C437 C438 1.345 . S
C438 H430 0.950 . S
C438 C437 1.345 . S
C438 C439 1.424 . S
C439 H431 0.951 . S
C439 C438 1.424 . S
C439 C440 1.347 . S
C440 H432 0.951 . S
C440 C435 1.429 . S
C440 C439 1.347 . S
H441 C442 0.951 . S
C442 H441 0.951 . S
C442 C448 1.265 . S
H443 C448 0.950 . S
H444 C452 0.949 1_556 S
H445 C453 0.950 . S
H446 C454 0.951 . S
H447 C455 0.951 . S
C448 C442 1.265 . S
C448 H443 0.950 . S
C448 C449 1.478 . S
C449 C436 1.394 1_554 S
C449 C448 1.478 . S
C449 C450 1.397 1_455 S
C450 C449 1.397 1_655 S
C450 C451 1.438 . S
C450 C455 1.429 . S
C451 C434 1.394 1_554 S
C451 C450 1.438 . S
C451 C452 1.428 . S
C452 H444 0.949 1_554 S
C452 C451 1.428 . S
C452 C453 1.345 . S
C453 H445 0.950 . S
C453 C452 1.345 . S
C453 C454 1.424 . S
C454 H446 0.951 . S
C454 C453 1.424 . S
C454 C455 1.347 . S
C455 H447 0.951 . S
C455 C450 1.429 . S
C455 C454 1.347 . S
H456 C457 0.951 . S
C457 H456 0.951 . S
C457 C463 1.265 . S
H458 C463 0.950 . S
H459 C467 0.949 . S
H460 C468 0.950 . S
H461 C469 0.951 . S
H462 C470 0.951 . S
C463 C457 1.265 . S
C463 H458 0.950 . S
C463 C464 1.478 . S
C464 C463 1.478 . S
C464 C465 1.397 . S
C464 C481 1.394 1_545 S
C465 C464 1.397 . S
C465 C466 1.438 . S
C465 C470 1.429 . S
C466 C465 1.438 . S
C466 C467 1.428 . S
C466 C479 1.394 1_545 S
C467 H459 0.949 . S
C467 C466 1.428 . S
C467 C468 1.345 . S
C468 H460 0.950 . S
C468 C467 1.345 . S
C468 C469 1.424 . S
C469 H461 0.951 . S
C469 C468 1.424 . S
C469 C470 1.347 . S
C470 H462 0.951 . S
C470 C465 1.429 . S
C470 C469 1.347 . S
H471 C472 0.951 . S
C472 H471 0.951 . S
C472 C478 1.265 . S
H473 C478 0.950 . S
H474 C482 0.949 . S
H475 C483 0.950 . S
H476 C484 0.951 . S
H477 C485 0.951 . S
C478 C472 1.265 . S
C478 H473 0.950 . S
C478 C479 1.478 . S
C479 C466 1.394 1_565 S
C479 C478 1.478 . S
C479 C480 1.397 . S
C480 C479 1.397 . S
C480 C481 1.438 . S
C480 C485 1.429 . S
C481 C464 1.394 1_565 S
C481 C480 1.438 . S
C481 C482 1.428 . S
C482 H474 0.949 . S
C482 C481 1.428 . S
C482 C483 1.345 . S
C483 H475 0.950 . S
C483 C482 1.345 . S
C483 C484 1.424 . S
C484 H476 0.951 . S
C484 C483 1.424 . S
C484 C485 1.347 . S
C485 H477 0.951 . S
C485 C480 1.429 . S
C485 C484 1.347 . S
H486 C487 0.951 . S
C487 H486 0.951 . S
C487 C493 1.265 . S
H488 C493 0.950 . S
H489 C497 0.949 . S
H490 C498 0.950 . S
H491 C499 0.951 . S
H492 C500 0.951 . S
C493 C487 1.265 . S
C493 H488 0.950 . S
C493 C494 1.478 . S
C494 C493 1.478 . S
C494 C495 1.397 . S
C494 C511 1.394 . S
C495 C494 1.397 . S
C495 C496 1.438 1_554 S
C495 C500 1.429 . S
C496 C495 1.438 1_556 S
C496 C497 1.428 . S
C496 C509 1.394 . S
C497 H489 0.949 . S
C497 C496 1.428 . S
C497 C498 1.345 . S
C498 H490 0.950 . S
C498 C497 1.345 . S
C498 C499 1.424 . S
C499 H491 0.951 . S
C499 C498 1.424 . S
C499 C500 1.347 1_556 S
C500 H492 0.951 . S
C500 C495 1.429 . S
C500 C499 1.347 1_554 S
H501 C502 0.951 . S
C502 H501 0.951 . S
C502 C508 1.265 . S
H503 C508 0.950 . S
H504 C512 0.949 . S
H505 C513 0.950 . S
H506 C514 0.951 . S
H507 C515 0.951 . S
C508 C502 1.265 . S
C508 H503 0.950 . S
C508 C509 1.478 . S
C509 C496 1.394 . S
C509 C508 1.478 . S
C509 C510 1.397 . S
C510 C509 1.397 . S
C510 C511 1.438 1_556 S
C510 C515 1.429 . S
C511 C494 1.394 . S
C511 C510 1.438 1_554 S
C511 C512 1.428 . S
C512 H504 0.949 . S
C512 C511 1.428 . S
C512 C513 1.345 . S
C513 H505 0.950 . S
C513 C512 1.345 . S
C513 C514 1.424 . S
C514 H506 0.951 . S
C514 C513 1.424 . S
C514 C515 1.347 1_554 S
C515 H507 0.951 . S
C515 C510 1.429 . S
C515 C514 1.347 1_556 S
H516 C517 0.951 . S
C517 H516 0.951 . S
C517 C523 1.265 . S
H518 C523 0.950 . S
H519 C527 0.949 . S
H520 C528 0.950 . S
H521 C529 0.951 . S
H522 C530 0.951 . S
C523 C517 1.265 . S
C523 H518 0.950 . S
C523 C524 1.478 . S
C524 C523 1.478 . S
C524 C525 1.397 . S
C524 C541 1.394 . S
C525 C524 1.397 . S
C525 C526 1.438 1_655 S
C525 C530 1.429 . S
C526 C525 1.438 1_455 S
C526 C527 1.428 . S
C526 C539 1.394 . S
C527 H519 0.949 . S
C527 C526 1.428 . S
C527 C528 1.345 . S
C528 H520 0.950 . S
C528 C527 1.345 . S
C528 C529 1.424 1_455 S
C529 H521 0.951 . S
C529 C528 1.424 1_655 S
C529 C530 1.347 . S
C530 H522 0.951 . S
C530 C525 1.429 . S
C530 C529 1.347 . S
H531 C532 0.951 . S
C532 H531 0.951 . S
C532 C538 1.265 . S
H533 C538 0.950 . S
H534 C542 0.949 . S
H535 C543 0.950 . S
H536 C544 0.951 . S
H537 C545 0.951 . S
C538 C532 1.265 . S
C538 H533 0.950 . S
C538 C539 1.478 . S
C539 C526 1.394 . S
C539 C538 1.478 . S
C539 C540 1.397 . S
C540 C539 1.397 . S
C540 C541 1.438 1_455 S
C540 C545 1.429 . S
C541 C524 1.394 . S
C541 C540 1.438 1_655 S
C541 C542 1.428 . S
C542 H534 0.949 . S
C542 C541 1.428 . S
C542 C543 1.345 . S
C543 H535 0.950 . S
C543 C542 1.345 . S
C543 C544 1.424 1_655 S
C544 H536 0.951 . S
C544 C543 1.424 1_455 S
C544 C545 1.347 . S
C545 H537 0.951 . S
C545 C540 1.429 . S
C545 C544 1.347 . S
H546 C547 0.951 . S
C547 H546 0.951 . S
C547 C553 1.265 . S
H548 C553 0.950 . S
H549 C557 0.949 1_545 S
H550 C558 0.950 . S
H551 C559 0.951 . S
H552 C560 0.951 . S
C553 C547 1.265 . S
C553 H548 0.950 . S
C553 C554 1.478 . S
C554 C553 1.478 . S
C554 C555 1.397 1_554 S
C554 C571 1.421 . S
C555 C554 1.397 1_556 S
C555 C556 1.417 1_565 S
C555 C560 1.429 . S
C556 C555 1.417 1_545 S
C556 C557 1.421 1_545 S
C556 C569 1.421 . S
C557 H549 0.949 1_565 S
C557 C556 1.421 1_565 S
C557 C558 1.345 . S
C558 H550 0.950 . S
C558 C557 1.345 . S
C558 C559 1.424 . S
C559 H551 0.951 . S
C559 C558 1.424 . S
C559 C560 1.347 . S
C560 H552 0.951 . S
C560 C555 1.429 . S
C560 C559 1.347 . S
H561 C562 0.951 . S
C562 H561 0.951 . S
C562 C568 1.265 . S
H563 C568 0.950 . S
H564 C572 0.949 1_565 S
H565 C573 0.950 . S
H566 C574 0.951 . S
H567 C575 0.951 . S
C568 C562 1.265 . S
C568 H563 0.950 . S
C568 C569 1.478 . S
C569 C556 1.421 . S
C569 C568 1.478 . S
C569 C570 1.397 1_556 S
C570 C569 1.397 1_554 S
C570 C571 1.417 1_545 S
C570 C575 1.429 . S
C571 C554 1.421 . S
C571 C570 1.417 1_565 S
C571 C572 1.421 1_565 S
C572 H564 0.949 1_545 S
C572 C571 1.421 1_545 S
C572 C573 1.345 . S
C573 H565 0.950 . S
C573 C572 1.345 . S
C573 C574 1.424 . S
C574 H566 0.951 . S
C574 C573 1.424 . S
C574 C575 1.347 . S
C575 H567 0.951 . S
C575 C570 1.429 . S
C575 C574 1.347 . S
H576 C577 0.951 . S
C577 H576 0.951 . S
C577 C583 1.265 . S
H578 C583 0.950 . S
H579 C587 0.949 . S
H580 C588 0.950 . S
H581 C589 0.951 . S
H582 C590 0.951 . S
C583 C577 1.265 . S
C583 H578 0.950 . S
C583 C584 1.478 . S
C584 C583 1.478 . S
C584 C585 1.397 . S
C584 C601 1.394 . S
C585 C584 1.397 . S
C585 C586 1.438 . S
C585 C590 1.429 . S
C586 C585 1.438 . S
C586 C587 1.428 . S
C586 C599 1.394 . S
C587 H579 0.949 . S
C587 C586 1.428 . S
C587 C588 1.345 . S
C588 H580 0.950 . S
C588 C587 1.345 . S
C588 C589 1.424 . S
C589 H581 0.951 . S
C589 C588 1.424 . S
C589 C590 1.347 . S
C590 H582 0.951 . S
C590 C585 1.429 . S
C590 C589 1.347 . S
H591 C592 0.951 . S
C592 H591 0.951 . S
C592 C598 1.265 . S
H593 C598 0.950 . S
H594 C602 0.949 . S
H595 C603 0.950 . S
H596 C604 0.951 . S
H597 C605 0.951 . S
C598 C592 1.265 . S
C598 H593 0.950 . S
C598 C599 1.478 . S
C599 C586 1.394 . S
C599 C598 1.478 . S
C599 C600 1.397 . S
C600 C599 1.397 . S
C600 C601 1.438 . S
C600 C605 1.429 . S
C601 C584 1.394 . S
C601 C600 1.438 . S
C601 C602 1.428 . S
C602 H594 0.949 . S
C602 C601 1.428 . S
C602 C603 1.345 . S
C603 H595 0.950 . S
C603 C602 1.345 . S
C603 C604 1.424 . S
C604 H596 0.951 . S
C604 C603 1.424 . S
C604 C605 1.347 . S
C605 H597 0.951 . S
C605 C600 1.429 . S
C605 C604 1.347 . S
H606 C607 0.951 . S
C607 H606 0.951 . S
C607 C613 1.265 . S
H608 C613 0.950 . S
H609 C617 0.949 1_554 S
H610 C618 0.950 . S
H611 C619 0.951 . S
H612 C620 0.947 1_655 S
C613 C607 1.265 . S
C613 H608 0.950 . S
C613 C614 1.478 . S
C614 C613 1.478 . S
C614 C615 1.397 1_655 S
C614 C631 1.394 1_556 S
C615 C614 1.397 1_455 S
C615 C616 1.438 . S
C615 C620 1.429 . S
C616 C615 1.438 . S
C616 C617 1.428 . S
C616 C629 1.394 1_556 S
C617 H609 0.949 1_556 S
C617 C616 1.428 . S
C617 C618 1.345 . S
C618 H610 0.950 . S
C618 C617 1.345 . S
C618 C619 1.424 . S
C619 H611 0.951 . S
C619 C618 1.424 . S
C619 C620 1.347 . S
C620 H612 0.947 1_455 S
C620 C615 1.429 . S
C620 C619 1.347 . S
H621 C622 0.951 . S
C622 H621 0.951 . S
C622 C628 1.265 . S
H623 C628 0.950 . S
H624 C632 0.949 1_556 S
H625 C633 0.950 . S
H626 C634 0.951 . S
H627 C635 0.947 1_455 S
C628 C622 1.265 . S
C628 H623 0.950 . S
C628 C629 1.478 . S
C629 C616 1.394 1_554 S
C629 C628 1.478 . S
C629 C630 1.397 1_455 S
C630 C629 1.397 1_655 S
C630 C631 1.438 . S
C630 C635 1.429 . S
C631 C614 1.394 1_554 S
C631 C630 1.438 . S
C631 C632 1.428 . S
C632 H624 0.949 1_554 S
C632 C631 1.428 . S
C632 C633 1.345 . S
C633 H625 0.950 . S
C633 C632 1.345 . S
C633 C634 1.424 . S
C634 H626 0.951 . S
C634 C633 1.424 . S
C634 C635 1.347 . S
C635 H627 0.947 1_655 S
C635 C630 1.429 . S
C635 C634 1.347 . S
H636 C637 0.951 . S
C637 H636 0.951 . S
C637 C643 1.265 . S
H638 C643 0.950 . S
H639 C647 0.949 1_545 S
H640 C648 0.950 . S
H641 C649 0.951 . S
H642 C650 0.951 . S
C643 C637 1.265 . S
C643 H638 0.950 . S
C643 C644 1.478 . S
C644 C643 1.478 . S
C644 C645 1.397 . S
C644 C661 1.401 . S
C645 C644 1.397 . S
C645 C646 1.427 1_565 S
C645 C650 1.429 . S
C646 C645 1.427 1_545 S
C646 C647 1.431 1_545 S
C646 C659 1.401 . S
C647 H639 0.949 1_565 S
C647 C646 1.431 1_565 S
C647 C648 1.345 . S
C648 H640 0.950 . S
C648 C647 1.345 . S
C648 C649 1.424 . S
C649 H641 0.951 . S
C649 C648 1.424 . S
C649 C650 1.347 . S
C650 H642 0.951 . S
C650 C645 1.429 . S
C650 C649 1.347 . S
H651 C652 0.951 . S
C652 H651 0.951 . S
C652 C658 1.265 . S
H653 C658 0.950 . S
H654 C662 0.949 1_565 S
H655 C663 0.950 . S
H656 C664 0.951 . S
H657 C665 0.951 . S
C658 C652 1.265 . S
C658 H653 0.950 . S
C658 C659 1.478 . S
C659 C646 1.401 . S
C659 C658 1.478 . S
C659 C660 1.397 . S
C660 C659 1.397 . S
C660 C661 1.427 1_545 S
C660 C665 1.429 . S
C661 C644 1.401 . S
C661 C660 1.427 1_565 S
C661 C662 1.431 1_565 S
C662 H654 0.949 1_545 S
C662 C661 1.431 1_545 S
C662 C663 1.345 . S
C663 H655 0.950 . S
C663 C662 1.345 . S
C663 C664 1.424 . S
C664 H656 0.951 . S
C664 C663 1.424 . S
C664 C665 1.347 . S
C665 H657 0.951 . S
C665 C660 1.429 . S
C665 C664 1.347 . S
C127 C19 1.455 . S
C142 C104 1.374 . S
C157 C40 1.417 . S
C172 C125 1.428 . S
C187 C20 1.447 . S
C202 C62 1.390 . S
C217 C82 1.459 . S
C232 C41 1.332 . S
C247 C61 1.363 . S
C262 C103 1.345 . S
C277 C83 1.329 . S
C292 C124 1.457 . S
C307 C121 1.371 . S
C322 C3 1.472 . S
C337 C24 1.353 . S
C352 C16 1.474 . S
C367 C37 1.468 . S
C382 C58 1.385 . S
C397 C45 1.455 . S
C412 C66 1.328 . S
C427 C79 1.470 . S
C442 C87 1.339 . S
C457 C108 1.346 . S
C472 C100 1.473 . S
C487 C46 1.102 . S
C502 C67 1.128 . S
C517 C70 1.101 . S
C532 C88 1.142 . S
C547 C91 1.255 . S
C562 C109 1.174 . S
C577 C112 1.196 . S
C592 C4 1.120 . S
C607 C25 1.239 . S
C622 C7 1.289 . S
C637 C49 1.253 . S
C652 C28 1.172 . S
