# Generated by pormake.
# Topology unm, (4)-cn, num edge types: 1
# Building blocks:
#     Node 0, Type 0, BuildingBlock: NAHDIM_clean_sbu_0, # of connection points: 4
#     Node 1, Type 0, BuildingBlock: NAHDIM_clean_sbu_0, # of connection points: 4
#     Node 2, Type 0, BuildingBlock: NAHDIM_clean_sbu_0, # of connection points: 4
#     Node 3, Type 0, BuildingBlock: NAHDIM_clean_sbu_0, # of connection points: 4
#     Node 4, Type 0, BuildingBlock: NAHDIM_clean_sbu_0, # of connection points: 4
#     Node 5, Type 0, BuildingBlock: NAHDIM_clean_sbu_0, # of connection points: 4
#     Node 6, Type 0, BuildingBlock: NAHDIM_clean_sbu_0, # of connection points: 4
#     Node 7, Type 0, BuildingBlock: NAHDIM_clean_sbu_0, # of connection points: 4
#     Edge 8, Type (0, 0), BuildingBlock: UVAHIK_clean_linker_0, # of connection points: 2
#     Edge 9, Type (0, 0), BuildingBlock: UVAHIK_clean_linker_0, # of connection points: 2
#     Edge 10, Type (0, 0), BuildingBlock: UVAHIK_clean_linker_0, # of connection points: 2
#     Edge 11, Type (0, 0), BuildingBlock: UVAHIK_clean_linker_0, # of connection points: 2
#     Edge 12, Type (0, 0), BuildingBlock: UVAHIK_clean_linker_0, # of connection points: 2
#     Edge 13, Type (0, 0), BuildingBlock: UVAHIK_clean_linker_0, # of connection points: 2
#     Edge 14, Type (0, 0), BuildingBlock: UVAHIK_clean_linker_0, # of connection points: 2
#     Edge 15, Type (0, 0), BuildingBlock: UVAHIK_clean_linker_0, # of connection points: 2
#     Edge 16, Type (0, 0), BuildingBlock: UVAHIK_clean_linker_0, # of connection points: 2
#     Edge 17, Type (0, 0), BuildingBlock: UVAHIK_clean_linker_0, # of connection points: 2
#     Edge 18, Type (0, 0), BuildingBlock: UVAHIK_clean_linker_0, # of connection points: 2
#     Edge 19, Type (0, 0), BuildingBlock: UVAHIK_clean_linker_0, # of connection points: 2
#     Edge 20, Type (0, 0), BuildingBlock: UVAHIK_clean_linker_0, # of connection points: 2
#     Edge 21, Type (0, 0), BuildingBlock: UVAHIK_clean_linker_0, # of connection points: 2
#     Edge 22, Type (0, 0), BuildingBlock: UVAHIK_clean_linker_0, # of connection points: 2
#     Edge 23, Type (0, 0), BuildingBlock: UVAHIK_clean_linker_0, # of connection points: 2
# Relax obj value: 0.218
# Max RMSD: 0.179
# Mean RMSD: 0.179
data_MOF--net-unm--node1-NAHDIM_clean_sbu_0--edge1-UVAHIK_clean_linker_0
_symmetry_space_group_name_H-M    P1
_symmetry_Int_Tables_number       1
_symmetry_cell_setting            triclinic
loop_
_symmetry_equiv_pos_as_xyz
'x, y, z'
_cell_length_a     33.8132
_cell_length_b     33.771065
_cell_length_c     53.910955
_cell_angle_alpha  90.017095
_cell_angle_beta   90.164986
_cell_angle_gamma 90.008585
loop_
_atom_site_label
_atom_site_type_symbol
_atom_site_fract_x
_atom_site_fract_y
_atom_site_fract_z
_atom_type_partial_charge
C0 C 0.18712 0.22999 0.17153 0.0
O1 O 0.18205 0.1969 0.1591 0.0
O2 O 0.06925 0.21754 0.18556 0.0
Zn3 Zn 0.10441 0.24226 0.15974 0.0
O4 O 0.10954 0.2091 0.12885 0.0
C5 C 0.07564 0.31926 0.16841 0.0
O6 O 0.08856 0.31007 0.19069 0.0
O7 O 0.15806 0.25339 0.17428 0.0
C8 C 0.08582 0.21353 0.11073 0.0
O9 O 0.05672 0.23912 0.1126 0.0
C10 C 0.03604 0.20291 0.17937 0.0
O11 O 0.02696 0.20039 0.15573 0.0
O12 O 0.07969 0.29434 0.15098 0.0
C13 C 0.22049 0.67092 0.69241 0.0
O14 O 0.19818 0.64047 0.69824 0.0
O15 O 0.2775 0.57307 0.68655 0.0
Zn16 Zn 0.25547 0.61213 0.66196 0.0
O17 O 0.28847 0.61551 0.63096 0.0
C18 C 0.19079 0.55724 0.65413 0.0
O19 O 0.21646 0.53112 0.66233 0.0
O20 O 0.24892 0.66594 0.67735 0.0
C21 C 0.28632 0.58765 0.61514 0.0
O22 O 0.26424 0.55666 0.62001 0.0
C23 C 0.30868 0.55275 0.68329 0.0
O24 O 0.3308 0.55959 0.66377 0.0
O25 O 0.20105 0.59333 0.65223 0.0
C26 C 0.82646 0.7455 0.19687 0.0
O27 O 0.85816 0.72638 0.20435 0.0
O28 O 0.92025 0.80699 0.18997 0.0
Zn29 Zn 0.88376 0.78038 0.16543 0.0
O30 O 0.87883 0.80907 0.13279 0.0
C31 C 0.89591 0.70177 0.14355 0.0
O32 O 0.86827 0.71171 0.12755 0.0
O33 O 0.82997 0.77204 0.1803 0.0
C34 C 0.90382 0.80408 0.11548 0.0
O35 O 0.93453 0.78103 0.11932 0.0
C36 C 0.9513 0.82515 0.18317 0.0
O37 O 0.95717 0.83135 0.15943 0.0
O38 O 0.90681 0.72645 0.15998 0.0
C39 C 0.76948 0.30852 0.68202 0.0
O40 O 0.79231 0.33876 0.68757 0.0
O41 O 0.7147 0.40477 0.68484 0.0
Zn42 Zn 0.73011 0.36979 0.65622 0.0
O43 O 0.69111 0.37061 0.62777 0.0
C44 C 0.79098 0.42682 0.6455 0.0
O45 O 0.76468 0.45154 0.65449 0.0
O46 O 0.73912 0.3143 0.66851 0.0
C47 C 0.68433 0.40238 0.61582 0.0
O48 O 0.70125 0.4354 0.62309 0.0
C49 C 0.68432 0.4267 0.68666 0.0
O50 O 0.65688 0.42527 0.6694 0.0
O51 O 0.78255 0.39021 0.64396 0.0
C52 C 0.69515 0.25469 0.32822 0.0
O53 O 0.69317 0.25647 0.35253 0.0
O54 O 0.56945 0.27445 0.30552 0.0
Zn55 Zn 0.61062 0.26383 0.33163 0.0
O56 O 0.61188 0.30385 0.35937 0.0
C57 C 0.56129 0.20214 0.35048 0.0
O58 O 0.53402 0.22922 0.34687 0.0
O59 O 0.6637 0.25857 0.31549 0.0
C60 C 0.58101 0.31732 0.36983 0.0
O61 O 0.54605 0.30719 0.36128 0.0
C62 C 0.55107 0.30595 0.29977 0.0
O63 O 0.55917 0.33919 0.31138 0.0
O64 O 0.59715 0.21046 0.3458 0.0
C65 C 0.26791 0.16967 0.78948 0.0
O66 O 0.29092 0.13939 0.78441 0.0
O67 O 0.20824 0.07235 0.7964 0.0
Zn68 Zn 0.2308 0.11202 0.82042 0.0
O69 O 0.19835 0.11949 0.85125 0.0
C70 C 0.29136 0.05504 0.83212 0.0
O71 O 0.26277 0.02972 0.82749 0.0
O72 O 0.23884 0.16476 0.80405 0.0
C73 C 0.1899 0.09158 0.86613 0.0
O74 O 0.20034 0.05517 0.86064 0.0
C75 C 0.17532 0.05435 0.79778 0.0
O76 O 0.15037 0.06361 0.81548 0.0
O77 O 0.28437 0.09193 0.83063 0.0
C78 C 0.3011 0.75104 0.32188 0.0
O79 O 0.30415 0.7504 0.34618 0.0
O80 O 0.42426 0.71547 0.30123 0.0
Zn81 Zn 0.3843 0.73665 0.32546 0.0
O82 O 0.37904 0.70202 0.35579 0.0
C83 C 0.43885 0.80103 0.33499 0.0
O84 O 0.46513 0.77556 0.32683 0.0
O85 O 0.33164 0.74437 0.30883 0.0
C86 C 0.40316 0.70672 0.37369 0.0
O87 O 0.43186 0.73265 0.37149 0.0
C88 C 0.44794 0.68723 0.30597 0.0
O89 O 0.44426 0.66768 0.32689 0.0
O90 O 0.40271 0.7908 0.33618 0.0
C91 C 0.76683 0.78851 0.81318 0.0
O92 O 0.7898 0.79072 0.83282 0.0
O93 O 0.77736 0.91339 0.79626 0.0
Zn94 Zn 0.75738 0.87324 0.82076 0.0
O95 O 0.79048 0.86913 0.85172 0.0
C96 C 0.69374 0.92691 0.83212 0.0
O97 O 0.72073 0.95382 0.8274 0.0
O98 O 0.75127 0.8199 0.80457 0.0
C99 C 0.79934 0.89841 0.86547 0.0
O100 O 0.78884 0.93425 0.85867 0.0
C101 C 0.81058 0.93096 0.79614 0.0
O102 O 0.83751 0.92149 0.81271 0.0
O103 O 0.70288 0.89048 0.83073 0.0
C104 C 0.12925 0.17404 0.08254 0.0
C105 C 0.09285 0.19274 0.08704 0.0
C106 C 0.13747 0.15808 0.05922 0.0
C107 C 0.09373 0.12347 0.00068 0.0
H108 H 0.19117 0.16186 0.97143 0.0
C109 C 0.15996 0.07032 0.90649 0.0
C110 C 0.17261 0.10078 0.8906 0.0
C111 C 0.14725 0.07903 0.93055 0.0
C112 C 0.16388 0.15093 0.97938 0.0
H113 H 0.03571 0.20744 0.07111 0.0
H114 H 0.05002 0.17909 0.03042 0.0
H115 H 0.17513 0.17931 0.01416 0.0
H116 H 0.18057 0.16435 0.88719 0.0
H117 H 0.15895 0.17932 0.92923 0.0
H118 H 0.08261 0.09514 0.96568 0.0
C119 C 0.07217 0.17701 0.04492 0.0
C120 C 0.1549 0.16058 0.00386 0.0
C121 C 0.06412 0.19343 0.06815 0.0
C122 C 0.1711 0.14018 0.89896 0.0
C123 C 0.15893 0.14878 0.92306 0.0
C124 C 0.10305 0.11328 0.97622 0.0
C125 C 0.10926 0.16003 0.04009 0.0
C126 C 0.11958 0.14729 0.01467 0.0
C127 C 0.14753 0.11826 0.93919 0.0
C128 C 0.13796 0.12742 0.9653 0.0
H129 H 0.15196 0.17296 0.09673 0.0
H130 H 0.16618 0.14484 0.05599 0.0
H131 H 0.06636 0.11281 0.00866 0.0
H132 H 0.16066 0.0397 0.90054 0.0
H133 H 0.13863 0.05501 0.9427 0.0
C134 C 0.33231 0.62239 0.586 0.0
C135 C 0.30549 0.59151 0.59068 0.0
C136 C 0.34769 0.62789 0.56221 0.0
C137 C 0.32053 0.61334 0.49787 0.0
H138 H 0.43039 0.63742 0.48408 0.0
C139 C 0.37038 0.65423 0.39925 0.0
C140 C 0.39731 0.68574 0.39742 0.0
C141 C 0.36293 0.63649 0.42219 0.0
C142 C 0.39954 0.63106 0.48763 0.0
H143 H 0.27483 0.54136 0.57432 0.0
H144 H 0.30127 0.55145 0.53275 0.0
H145 H 0.41081 0.61843 0.52599 0.0
H146 H 0.43826 0.72276 0.41805 0.0
H147 H 0.42433 0.69295 0.45801 0.0
H148 H 0.30858 0.62777 0.46006 0.0
C149 C 0.31034 0.5713 0.5475 0.0
C150 C 0.38844 0.62004 0.5116 0.0
C151 C 0.29535 0.5655 0.57131 0.0
C152 C 0.41742 0.69843 0.41882 0.0
C153 C 0.40963 0.68108 0.44177 0.0
C154 C 0.33149 0.62486 0.47401 0.0
C155 C 0.33616 0.60289 0.54265 0.0
C156 C 0.34876 0.61151 0.51697 0.0
C157 C 0.38189 0.65023 0.44383 0.0
C158 C 0.37105 0.6344 0.46864 0.0
H159 H 0.3408 0.64281 0.60057 0.0
H160 H 0.36735 0.65265 0.55891 0.0
H161 H 0.28963 0.6074 0.50161 0.0
H162 H 0.3547 0.64357 0.38302 0.0
H163 H 0.34196 0.61229 0.42299 0.0
C164 C 0.85949 0.83724 0.08461 0.0
C165 C 0.89666 0.82126 0.09067 0.0
C166 C 0.85142 0.84984 0.06046 0.0
C167 C 0.89572 0.88031 0.0014 0.0
H168 H 0.80084 0.83501 0.97235 0.0
C169 C 0.82899 0.92341 0.90521 0.0
C170 C 0.81711 0.89149 0.89017 0.0
C171 C 0.84202 0.91682 0.92951 0.0
C172 C 0.82745 0.8478 0.98022 0.0
H173 H 0.95513 0.80783 0.07649 0.0
H174 H 0.94103 0.83031 0.0343 0.0
H175 H 0.81661 0.82201 0.01578 0.0
H176 H 0.81105 0.82752 0.88854 0.0
H177 H 0.83327 0.81625 0.93097 0.0
H178 H 0.90638 0.90614 0.96564 0.0
C179 C 0.91819 0.83288 0.04826 0.0
C180 C 0.83627 0.84069 0.0051 0.0
C181 C 0.92614 0.81981 0.07236 0.0
C182 C 0.81984 0.8528 0.89963 0.0
C183 C 0.83237 0.8463 0.92396 0.0
C184 C 0.88656 0.88793 0.97652 0.0
C185 C 0.88048 0.84717 0.04198 0.0
C186 C 0.87059 0.85663 0.01589 0.0
C187 C 0.84289 0.87827 0.93926 0.0
C188 C 0.85255 0.87135 0.96568 0.0
H189 H 0.83617 0.83884 0.09831 0.0
H190 H 0.82221 0.8611 0.05612 0.0
H191 H 0.92231 0.89301 0.00935 0.0
H192 H 0.82737 0.95355 0.89841 0.0
H193 H 0.84992 0.94196 0.94099 0.0
C194 C 0.62195 0.34894 0.40307 0.0
C195 C 0.58451 0.33945 0.3934 0.0
C196 C 0.62566 0.36487 0.42685 0.0
C197 C 0.62554 0.41077 0.47507 0.0
H198 H 0.56639 0.35385 0.52525 0.0
C199 C 0.65551 0.43641 0.57873 0.0
C200 C 0.66133 0.40149 0.59245 0.0
C201 C 0.63824 0.43499 0.55518 0.0
C202 C 0.58299 0.37014 0.51145 0.0
H203 H 0.5214 0.34148 0.40053 0.0
H204 H 0.52795 0.36948 0.44209 0.0
H205 H 0.55233 0.34207 0.48148 0.0
H206 H 0.65155 0.33801 0.59283 0.0
H207 H 0.62193 0.33546 0.55167 0.0
H208 H 0.6577 0.43721 0.50497 0.0
C209 C 0.55443 0.36408 0.43135 0.0
C210 C 0.57464 0.36374 0.48638 0.0
C211 C 0.55071 0.34823 0.4075 0.0
C212 C 0.64759 0.36543 0.58271 0.0
C213 C 0.63036 0.36402 0.55915 0.0
C214 C 0.63387 0.41719 0.50013 0.0
C215 C 0.592 0.37166 0.4415 0.0
C216 C 0.5966 0.38316 0.46791 0.0
C217 C 0.62641 0.39864 0.54487 0.0
C218 C 0.61342 0.39613 0.51859 0.0
H219 H 0.64859 0.34267 0.39266 0.0
H220 H 0.65506 0.37 0.43419 0.0
H221 H 0.64263 0.42653 0.46127 0.0
H222 H 0.66541 0.46475 0.58581 0.0
H223 H 0.63502 0.46225 0.54478 0.0
C224 C 0.25806 0.21357 0.18023 0.0
C225 C 0.22616 0.23999 0.18231 0.0
C226 C 0.2947 0.22273 0.19081 0.0
C227 C 0.35531 0.30554 0.21476 0.0
H228 H 0.40852 0.22242 0.25151 0.0
C229 C 0.48849 0.33283 0.28104 0.0
C230 C 0.5177 0.30329 0.28207 0.0
C231 C 0.45439 0.32728 0.26664 0.0
C232 C 0.39441 0.24585 0.241 0.0
H233 H 0.2079 0.29709 0.19682 0.0
H234 H 0.27178 0.31287 0.21544 0.0
H235 H 0.34624 0.20824 0.23073 0.0
H236 H 0.53541 0.24606 0.26752 0.0
H237 H 0.47664 0.23684 0.24216 0.0
H238 H 0.40358 0.34322 0.22527 0.0
C239 C 0.26854 0.28523 0.20543 0.0
C240 C 0.35865 0.23769 0.22911 0.0
C241 C 0.23186 0.27603 0.19491 0.0
C242 C 0.51319 0.26917 0.2674 0.0
C243 C 0.47938 0.26375 0.25297 0.0
C244 C 0.39124 0.31371 0.22665 0.0
C245 C 0.30027 0.25854 0.20366 0.0
C246 C 0.33868 0.2674 0.21585 0.0
C247 C 0.44905 0.29217 0.25296 0.0
C248 C 0.41121 0.2839 0.23988 0.0
H249 H 0.25473 0.18565 0.17054 0.0
H250 H 0.31874 0.20177 0.18887 0.0
H251 H 0.34077 0.32896 0.20448 0.0
H252 H 0.49112 0.35942 0.29216 0.0
H253 H 0.43149 0.34968 0.2671 0.0
C254 C 0.17879 0.71633 0.71813 0.0
C255 C 0.21106 0.71081 0.70211 0.0
C256 C 0.16898 0.75414 0.72665 0.0
C257 C 0.18306 0.86046 0.71275 0.0
H258 H 0.15818 0.87497 0.78233 0.0
C259 C 0.19526 0.01006 0.76289 0.0
C260 C 0.16885 0.01884 0.78222 0.0
C261 C 0.19352 0.97366 0.75071 0.0
C262 C 0.16426 0.87138 0.76274 0.0
H263 H 0.25847 0.74068 0.68258 0.0
H264 H 0.24167 0.80657 0.6977 0.0
H265 H 0.1697 0.80853 0.76633 0.0
H266 H 0.11828 -0.00276 0.80285 0.0
H267 H 0.1151 0.93355 0.7814 0.0
H268 H 0.17852 0.92346 0.70932 0.0
C269 C 0.22357 0.78172 0.70338 0.0
C270 C 0.17099 0.83328 0.75359 0.0
C271 C 0.23342 0.74391 0.69488 0.0
C272 C 0.13914 0.99133 0.7881 0.0
C273 C 0.1375 0.95474 0.77595 0.0
C274 C 0.17632 0.89857 0.72191 0.0
C275 C 0.19118 0.78729 0.71931 0.0
C276 C 0.18118 0.82746 0.72859 0.0
C277 C 0.16536 0.94513 0.75758 0.0
C278 C 0.16755 0.90452 0.7471 0.0
H279 H 0.16085 0.69148 0.72399 0.0
H280 H 0.14367 0.75748 0.73874 0.0
H281 H 0.19007 0.85687 0.69329 0.0
H282 H 0.21841 0.03067 0.75782 0.0
H283 H 0.21562 0.96712 0.7368 0.0
C284 C 0.48935 0.70581 0.2694 0.0
C285 C 0.48349 0.68183 0.29039 0.0
C286 C 0.52558 0.7057 0.25706 0.0
C287 C 0.63022 0.68749 0.2702 0.0
H288 H 0.64235 0.70386 0.19943 0.0
C289 C 0.78342 0.70469 0.22458 0.0
C290 C 0.78712 0.73483 0.20676 0.0
C291 C 0.74627 0.69388 0.23357 0.0
C292 C 0.63938 0.69955 0.21925 0.0
H293 H 0.51014 0.63683 0.31378 0.0
H294 H 0.5733 0.63632 0.29201 0.0
H295 H 0.57691 0.69001 0.21642 0.0
H296 H 0.75464 0.77726 0.18439 0.0
H297 H 0.68981 0.75874 0.20035 0.0
H298 H 0.69245 0.6978 0.27314 0.0
C299 C 0.55007 0.65578 0.28543 0.0
C300 C 0.60195 0.69151 0.22896 0.0
C301 C 0.51378 0.65588 0.29779 0.0
C302 C 0.75282 0.75392 0.19812 0.0
C303 C 0.71564 0.74308 0.2071 0.0
C304 C 0.66761 0.69549 0.26049 0.0
C305 C 0.55675 0.68155 0.26539 0.0
C306 C 0.59687 0.68593 0.25459 0.0
C307 C 0.71195 0.71295 0.22495 0.0
C308 C 0.67254 0.70216 0.23496 0.0
H309 H 0.46659 0.72608 0.26315 0.0
H310 H 0.5298 0.72612 0.24181 0.0
H311 H 0.62727 0.68406 0.29008 0.0
H312 H 0.80923 0.68923 0.23154 0.0
H313 H 0.74439 0.67028 0.24712 0.0
C314 C 0.81339 0.26234 0.70574 0.0
C315 C 0.77935 0.26843 0.6912 0.0
C316 C 0.8227 0.22463 0.71465 0.0
C317 C 0.80151 0.11807 0.70522 0.0
H318 H 0.83355 0.10881 0.7741 0.0
C319 C 0.78768 0.97414 0.76135 0.0
C320 C 0.81611 0.9655 0.77964 0.0
C321 C 0.78954 0.00941 0.74795 0.0
C322 C 0.82542 0.11087 0.75469 0.0
H323 H 0.72859 0.23958 0.6744 0.0
H324 H 0.74455 0.17386 0.69023 0.0
H325 H 0.82387 0.17413 0.756 0.0
H326 H 0.87003 0.98619 0.79726 0.0
H327 H 0.87336 0.04793 0.77369 0.0
H328 H 0.80211 0.05468 0.70415 0.0
C329 C 0.76436 0.19816 0.69446 0.0
C330 C 0.81977 0.14834 0.74432 0.0
C331 C 0.75503 0.2359 0.68555 0.0
C332 C 0.84761 0.99203 0.78335 0.0
C333 C 0.84937 0.0275 0.76998 0.0
C334 C 0.80715 0.08057 0.7156 0.0
C335 C 0.7982 0.19213 0.70921 0.0
C336 C 0.80709 0.15236 0.71959 0.0
C337 C 0.81983 0.03695 0.75253 0.0
C338 C 0.81849 0.07654 0.74058 0.0
H339 H 0.8329 0.28672 0.71032 0.0
H340 H 0.84922 0.2209 0.72572 0.0
H341 H 0.79245 0.12019 0.68598 0.0
H342 H 0.7631 0.95428 0.75794 0.0
H343 H 0.7661 0.01591 0.73483 0.0
C344 C 0.76876 0.24522 0.32909 0.0
C345 C 0.73294 0.24536 0.31577 0.0
C346 C 0.80419 0.23509 0.31733 0.0
C347 C 0.84305 0.18099 0.26346 0.0
H348 H 0.9336 0.25086 0.26906 0.0
C349 C 0.9669 0.18507 0.19113 0.0
C350 C 0.00543 0.19559 0.19838 0.0
C351 C 0.93629 0.18436 0.20842 0.0
C352 C 0.90897 0.23046 0.26769 0.0
H353 H 0.70622 0.23494 0.2797 0.0
H354 H 0.76787 0.21716 0.25931 0.0
H355 H 0.87482 0.26365 0.29388 0.0
H356 H 0.0426 0.21092 0.22982 0.0
H357 H 0.9892 0.20892 0.26014 0.0
H358 H 0.87683 0.14801 0.2371 0.0
C359 C 0.76854 0.22467 0.27885 0.0
C360 C 0.87524 0.23794 0.28186 0.0
C361 C 0.73329 0.2352 0.29049 0.0
C362 C 0.01316 0.20299 0.2236 0.0
C363 C 0.9825 0.20213 0.24095 0.0
C364 C 0.87687 0.17329 0.24946 0.0
C365 C 0.80431 0.22441 0.29214 0.0
C366 C 0.84161 0.21388 0.27939 0.0
C367 C 0.94349 0.19392 0.23342 0.0
C368 C 0.90986 0.19855 0.2509 0.0
H369 H 0.76945 0.25289 0.3486 0.0
H370 H 0.83138 0.23507 0.328 0.0
H371 H 0.81774 0.16155 0.26154 0.0
H372 H 0.95991 0.17913 0.17187 0.0
H373 H 0.90659 0.17832 0.20187 0.0
C374 C 0.34506 0.48975 0.69251 0.0
C375 C 0.31563 0.51733 0.69884 0.0
C376 C 0.34724 0.45328 0.70471 0.0
C377 C 0.31036 0.39722 0.75935 0.0
H378 H 0.31685 0.30703 0.71499 0.0
C379 C 0.25444 0.24243 0.78662 0.0
C380 C 0.27714 0.20945 0.77959 0.0
C381 C 0.26401 0.28022 0.77803 0.0
C382 C 0.31561 0.33184 0.7277 0.0
H383 H 0.26712 0.52931 0.72403 0.0
H384 H 0.27073 0.46583 0.74507 0.0
H385 H 0.32726 0.37351 0.69879 0.0
H386 H 0.32764 0.1903 0.75792 0.0
H387 H 0.34428 0.25637 0.7429 0.0
H388 H 0.29762 0.3555 0.78813 0.0
C389 C 0.29228 0.47231 0.73081 0.0
C390 C 0.3217 0.36997 0.71844 0.0
C391 C 0.29007 0.50868 0.71863 0.0
C392 C 0.30947 0.21507 0.76363 0.0
C393 C 0.31897 0.25289 0.75497 0.0
C394 C 0.30419 0.35909 0.76861 0.0
C395 C 0.32014 0.44374 0.72353 0.0
C396 C 0.31845 0.40315 0.73407 0.0
C397 C 0.29644 0.2859 0.76217 0.0
C398 C 0.30604 0.32606 0.75278 0.0
H399 H 0.36536 0.49558 0.67745 0.0
H400 H 0.36947 0.43211 0.69896 0.0
H401 H 0.30825 0.42213 0.77194 0.0
H402 H 0.22933 0.23914 0.79888 0.0
H403 H 0.24568 0.30497 0.78358 0.0
C404 C 0.2623 0.77232 0.2846 0.0
C405 C 0.26334 0.76228 0.30989 0.0
C406 C 0.22708 0.78483 0.27351 0.0
C407 C 0.11991 0.77781 0.27863 0.0
H408 H 0.11997 0.86913 0.23501 0.0
C409 C 0.97877 0.82275 0.22638 0.0
C410 C 0.98399 0.83124 0.20108 0.0
C411 C 0.01128 0.82137 0.24244 0.0
C412 C 0.11945 0.84343 0.24701 0.0
H413 H 0.22813 0.75696 0.3433 0.0
H414 H 0.16634 0.77816 0.32371 0.0
H415 H 0.18028 0.85098 0.25723 0.0
H416 H 0.0271 0.84755 0.17316 0.0
H417 H 0.08364 0.84425 0.20086 0.0
H418 H 0.05979 0.769 0.26771 0.0
C419 C 0.19291 0.77655 0.31258 0.0
C420 C 0.15399 0.83311 0.25975 0.0
C421 C 0.22827 0.76449 0.32377 0.0
C422 C 0.02201 0.84086 0.19254 0.0
C423 C 0.05452 0.83914 0.20852 0.0
C424 C 0.08549 0.78785 0.2657 0.0
C425 C 0.19207 0.78714 0.28739 0.0
C426 C 0.15471 0.79984 0.27538 0.0
C427 C 0.04974 0.82816 0.23351 0.0
C428 C 0.08498 0.82043 0.2494 0.0
H429 H 0.28881 0.77105 0.2734 0.0
H430 H 0.22714 0.79231 0.25397 0.0
H431 H 0.11974 0.75183 0.29041 0.0
H432 H 0.94978 0.81558 0.23361 0.0
H433 H 0.00639 0.81375 0.2617 0.0
C434 C 0.66046 0.49234 0.7022 0.0
C435 C 0.68441 0.45873 0.70535 0.0
C436 C 0.66601 0.52572 0.71716 0.0
C437 C 0.74514 0.57315 0.75364 0.0
H438 H 0.66205 0.64603 0.77273 0.0
C439 C 0.77576 0.71497 0.81054 0.0
C440 C 0.75703 0.74962 0.80212 0.0
C441 C 0.76548 0.67812 0.80063 0.0
C442 C 0.68555 0.626 0.76739 0.0
H443 H 0.73063 0.43245 0.72796 0.0
H444 H 0.73953 0.49015 0.75445 0.0
H445 H 0.64472 0.58288 0.75344 0.0
H446 H 0.71284 0.77276 0.77669 0.0
H447 H 0.69507 0.70846 0.75939 0.0
H448 H 0.78595 0.61635 0.76742 0.0
C449 C 0.71734 0.49129 0.73994 0.0
C450 C 0.67564 0.58986 0.75635 0.0
C451 C 0.71202 0.4581 0.72488 0.0
C452 C 0.72789 0.74664 0.78356 0.0
C453 C 0.71744 0.70979 0.77379 0.0
C454 C 0.755 0.60914 0.76478 0.0
C455 C 0.69541 0.526 0.7357 0.0
C456 C 0.70536 0.56315 0.74913 0.0
C457 C 0.73608 0.67514 0.78224 0.0
C458 C 0.72536 0.63613 0.77153 0.0
H459 H 0.63899 0.49378 0.68727 0.0
H460 H 0.64873 0.552 0.71328 0.0
H461 H 0.76886 0.55373 0.74785 0.0
H462 H 0.79827 0.71624 0.82485 0.0
H463 H 0.78018 0.65187 0.8076 0.0
C464 C 0.93544 0.64881 0.16413 0.0
C465 C 0.91282 0.66144 0.1437 0.0
C466 C 0.95032 0.6104 0.1651 0.0
C467 C 0.98024 0.52631 0.12751 0.0
H468 H 0.96752 0.46808 0.18899 0.0
C469 C 0.03793 0.36588 0.14094 0.0
C470 C 0.05567 0.35752 0.16397 0.0
C471 C 0.01813 0.40173 0.13712 0.0
C472 C 0.97167 0.48405 0.17177 0.0
H473 H 0.88871 0.64391 0.10803 0.0
H474 H 0.91547 0.57643 0.10962 0.0
H475 H 0.9372 0.53308 0.18448 0.0
H476 H 0.06715 0.38043 0.20089 0.0
H477 H 0.03344 0.44305 0.19411 0.0
H478 H 0.01573 0.47772 0.11505 0.0
C479 C 0.92134 0.59648 0.12488 0.0
C480 C 0.95416 0.52118 0.16918 0.0
C481 C 0.90596 0.63496 0.12403 0.0
C482 C 0.05359 0.38584 0.18299 0.0
C483 C 0.03399 0.42165 0.17915 0.0
C484 C -0.00193 0.48916 0.13017 0.0
C485 C 0.94325 0.58379 0.14559 0.0
C486 C 0.95885 0.54295 0.14721 0.0
C487 C 0.01576 0.42992 0.15625 0.0
C488 C 0.99456 0.46797 0.15252 0.0
H489 H 0.94127 0.66842 0.17961 0.0
H490 H 0.96759 0.60153 0.18112 0.0
H491 H 0.98444 0.54264 0.11043 0.0
H492 H 0.03892 0.34457 0.12593 0.0
H493 H 0.00414 0.40706 0.11934 0.0
C494 C 0.83839 0.48185 0.63721 0.0
C495 C 0.83102 0.44109 0.6394 0.0
C496 C 0.87687 0.49576 0.63391 0.0
C497 C 0.97981 0.46441 0.61925 0.0
H498 H 0.00711 0.55534 0.65979 0.0
C499 C 0.13955 0.50472 0.64788 0.0
C500 C 0.15009 0.54497 0.64777 0.0
C501 C 0.10062 0.49324 0.64303 0.0
C502 C -0.00015 0.5303 0.64806 0.0
H503 H 0.8579 0.38279 0.63891 0.0
H504 H 0.92522 0.40707 0.63387 0.0
H505 H 0.93884 0.53311 0.65786 0.0
H506 H 0.12832 0.6047 0.64183 0.0
H507 H 0.06027 0.58457 0.63352 0.0
H508 H 0.04144 0.46096 0.61028 0.0
C509 C 0.90126 0.42834 0.63421 0.0
C510 C 0.96067 0.51757 0.64688 0.0
C511 C 0.86268 0.41439 0.63724 0.0
C512 C 0.12111 0.57345 0.64215 0.0
C513 C 0.08214 0.56197 0.63747 0.0
C514 C 0.01914 0.477 0.62059 0.0
C515 C 0.90889 0.46924 0.63303 0.0
C516 C 0.95019 0.48426 0.63265 0.0
C517 C 0.07143 0.5218 0.63813 0.0
C518 C 0.02955 0.50985 0.6352 0.0
H519 H 0.8145 0.50311 0.63849 0.0
H520 H 0.88159 0.5274 0.63249 0.0
H521 H 0.97267 0.439 0.60782 0.0
H522 H 0.16123 0.48206 0.65206 0.0
H523 H 0.0931 0.46209 0.6439 0.0
C524 C 0.57689 0.13003 0.3551 0.0
C525 C 0.54965 0.1613 0.35699 0.0
C526 C 0.56447 0.09088 0.3581 0.0
C527 C 0.47451 0.03118 0.35113 0.0
H528 H 0.53947 0.94753 0.37891 0.0
C529 C 0.42304 0.86896 0.3507 0.0
C530 C 0.45113 0.84131 0.34244 0.0
C531 C 0.43444 0.90757 0.35661 0.0
C532 C 0.52108 0.97061 0.37104 0.0
H533 H 0.48871 0.1763 0.36525 0.0
H534 H 0.46724 0.10808 0.37093 0.0
H535 H 0.56074 0.01643 0.38279 0.0
H536 H 0.51338 0.83215 0.33458 0.0
H537 H 0.53313 0.89966 0.34461 0.0
H538 H 0.43528 0.98552 0.33893 0.0
C539 C 0.49795 0.11371 0.3665 0.0
C540 C 0.53325 0.01002 0.37325 0.0
C541 C 0.5103 0.15281 0.36335 0.0
C542 C 0.491 0.85277 0.34084 0.0
C543 C 0.50238 0.89138 0.34678 0.0
C544 C 0.46233 0.99189 0.34898 0.0
C545 C 0.52462 0.08225 0.3632 0.0
C546 C 0.51033 0.0407 0.36302 0.0
C547 C 0.47414 0.91932 0.35441 0.0
C548 C 0.48573 0.96113 0.3586 0.0
H549 H 0.60744 0.13563 0.35024 0.0
H550 H 0.58572 0.06733 0.35523 0.0
H551 H 0.45651 0.05398 0.3426 0.0
H552 H 0.39213 0.86098 0.3523 0.0
H553 H 0.41209 0.92835 0.36272 0.0
C554 C 0.33941 1e-05 0.83966 0.0
C555 C 0.33181 0.04074 0.83737 0.0
C556 C 0.37803 0.9863 0.84296 0.0
C557 C 0.4796 0.01806 0.85995 0.0
H558 H 0.5105 0.92827 0.81956 0.0
C559 C 0.64203 0.97901 0.83817 0.0
C560 C 0.65254 0.93878 0.83738 0.0
C561 C 0.60263 0.99019 0.84147 0.0
C562 C 0.50223 0.95297 0.83127 0.0
H563 H 0.35862 0.09914 0.83742 0.0
H564 H 0.426 0.07518 0.84278 0.0
H565 H 0.44194 0.95004 0.81947 0.0
H566 H 0.63016 0.87872 0.84033 0.0
H567 H 0.56144 0.8983 0.84618 0.0
H568 H 0.5403 0.02146 0.87124 0.0
C569 C 0.40211 0.05383 0.84237 0.0
C570 C 0.4629 0.96545 0.83123 0.0
C571 C 0.36348 0.06755 0.83915 0.0
C572 C 0.62301 0.90998 0.8407 0.0
C573 C 0.58362 0.92116 0.84394 0.0
C574 C 0.51901 0.00563 0.85993 0.0
C575 C 0.40987 0.01302 0.84397 0.0
C576 C 0.45119 -0.00163 0.84538 0.0
C577 C 0.57294 0.96136 0.84401 0.0
C578 C 0.53079 0.97318 0.8454 0.0
H579 H 0.31562 0.9786 0.83855 0.0
H580 H 0.38297 0.95471 0.84453 0.0
H581 H 0.4714 0.04318 0.87133 0.0
H582 H 0.66408 0.00193 0.83571 0.0
H583 H 0.59526 0.0214 0.8412 0.0
loop_
_geom_bond_atom_site_label_1
_geom_bond_atom_site_label_2
_geom_bond_distance
_geom_bond_site_symmetry_2
_ccdc_geom_bond_type
C0 O1 1.160 . S
C0 O7 1.185 . S
O1 C0 1.160 . S
O2 Zn3 1.899 . S
O2 C10 1.284 . S
Zn3 O2 1.899 . S
Zn3 O4 2.032 . S
Zn3 O7 2.086 . S
Zn3 O12 1.977 . S
O4 Zn3 2.032 . S
O4 C8 1.278 . S
C5 O6 1.203 . S
C5 O12 1.267 . S
O6 C5 1.203 . S
O7 C0 1.185 . S
O7 Zn3 2.086 . S
C8 O4 1.278 . S
C8 O9 1.211 . S
O9 C8 1.211 . S
C10 O2 1.284 . S
C10 O11 1.273 . S
O11 C10 1.273 . S
O12 Zn3 1.977 . S
O12 C5 1.267 . S
C13 O14 1.160 . S
C13 O20 1.185 . S
O14 C13 1.160 . S
O15 Zn16 1.899 . S
O15 C23 1.284 . S
Zn16 O15 1.899 . S
Zn16 O17 2.032 . S
Zn16 O20 2.086 . S
Zn16 O25 1.977 . S
O17 Zn16 2.032 . S
O17 C21 1.278 . S
C18 O19 1.203 . S
C18 O25 1.267 . S
O19 C18 1.203 . S
O20 C13 1.185 . S
O20 Zn16 2.086 . S
C21 O17 1.278 . S
C21 O22 1.211 . S
O22 C21 1.211 . S
C23 O15 1.284 . S
C23 O24 1.273 . S
O24 C23 1.273 . S
O25 Zn16 1.977 . S
O25 C18 1.267 . S
C26 O27 1.160 . S
C26 O33 1.185 . S
O27 C26 1.160 . S
O28 Zn29 1.899 . S
O28 C36 1.284 . S
Zn29 O28 1.899 . S
Zn29 O30 2.032 . S
Zn29 O33 2.086 . S
Zn29 O38 1.977 . S
O30 Zn29 2.032 . S
O30 C34 1.278 . S
C31 O32 1.203 . S
C31 O38 1.267 . S
O32 C31 1.203 . S
O33 C26 1.185 . S
O33 Zn29 2.086 . S
C34 O30 1.278 . S
C34 O35 1.211 . S
O35 C34 1.211 . S
C36 O28 1.284 . S
C36 O37 1.273 . S
O37 C36 1.273 . S
O38 Zn29 1.977 . S
O38 C31 1.267 . S
C39 O40 1.160 . S
C39 O46 1.185 . S
O40 C39 1.160 . S
O41 Zn42 1.899 . S
O41 C49 1.284 . S
Zn42 O41 1.899 . S
Zn42 O43 2.032 . S
Zn42 O46 2.086 . S
Zn42 O51 1.977 . S
O43 Zn42 2.032 . S
O43 C47 1.278 . S
C44 O45 1.203 . S
C44 O51 1.267 . S
O45 C44 1.203 . S
O46 C39 1.185 . S
O46 Zn42 2.086 . S
C47 O43 1.278 . S
C47 O48 1.211 . S
O48 C47 1.211 . S
C49 O41 1.284 . S
C49 O50 1.273 . S
O50 C49 1.273 . S
O51 Zn42 1.977 . S
O51 C44 1.267 . S
C52 O53 1.160 . S
C52 O59 1.185 . S
O53 C52 1.160 . S
O54 Zn55 1.899 . S
O54 C62 1.284 . S
Zn55 O54 1.899 . S
Zn55 O56 2.032 . S
Zn55 O59 2.086 . S
Zn55 O64 1.977 . S
O56 Zn55 2.032 . S
O56 C60 1.278 . S
C57 O58 1.203 . S
C57 O64 1.267 . S
O58 C57 1.203 . S
O59 C52 1.185 . S
O59 Zn55 2.086 . S
C60 O56 1.278 . S
C60 O61 1.211 . S
O61 C60 1.211 . S
C62 O54 1.284 . S
C62 O63 1.273 . S
O63 C62 1.273 . S
O64 Zn55 1.977 . S
O64 C57 1.267 . S
C65 O66 1.160 . S
C65 O72 1.185 . S
O66 C65 1.160 . S
O67 Zn68 1.899 . S
O67 C75 1.284 . S
Zn68 O67 1.899 . S
Zn68 O69 2.032 . S
Zn68 O72 2.086 . S
Zn68 O77 1.977 . S
O69 Zn68 2.032 . S
O69 C73 1.278 . S
C70 O71 1.203 . S
C70 O77 1.267 . S
O71 C70 1.203 . S
O72 C65 1.185 . S
O72 Zn68 2.086 . S
C73 O69 1.278 . S
C73 O74 1.211 . S
O74 C73 1.211 . S
C75 O67 1.284 . S
C75 O76 1.273 . S
O76 C75 1.273 . S
O77 Zn68 1.977 . S
O77 C70 1.267 . S
C78 O79 1.160 . S
C78 O85 1.185 . S
O79 C78 1.160 . S
O80 Zn81 1.899 . S
O80 C88 1.284 . S
Zn81 O80 1.899 . S
Zn81 O82 2.032 . S
Zn81 O85 2.086 . S
Zn81 O90 1.977 . S
O82 Zn81 2.032 . S
O82 C86 1.278 . S
C83 O84 1.203 . S
C83 O90 1.267 . S
O84 C83 1.203 . S
O85 C78 1.185 . S
O85 Zn81 2.086 . S
C86 O82 1.278 . S
C86 O87 1.211 . S
O87 C86 1.211 . S
C88 O80 1.284 . S
C88 O89 1.273 . S
O89 C88 1.273 . S
O90 Zn81 1.977 . S
O90 C83 1.267 . S
C91 O92 1.160 . S
C91 O98 1.185 . S
O92 C91 1.160 . S
O93 Zn94 1.899 . S
O93 C101 1.284 . S
Zn94 O93 1.899 . S
Zn94 O95 2.032 . S
Zn94 O98 2.086 . S
Zn94 O103 1.977 . S
O95 Zn94 2.032 . S
O95 C99 1.278 . S
C96 O97 1.203 . S
C96 O103 1.267 . S
O97 C96 1.203 . S
O98 C91 1.185 . S
O98 Zn94 2.086 . S
C99 O95 1.278 . S
C99 O100 1.211 . S
O100 C99 1.211 . S
C101 O93 1.284 . S
C101 O102 1.273 . S
O102 C101 1.273 . S
O103 Zn94 1.977 . S
O103 C96 1.267 . S
C104 C105 1.349 . S
C104 C106 1.327 . S
C104 H129 0.950 . S
C105 C104 1.349 . S
C105 C121 1.349 . S
C106 C104 1.327 . S
C106 C125 1.429 . S
C106 H130 0.950 . S
C107 C124 1.574 1_554 S
C107 C126 1.368 . S
C107 H131 0.949 . S
H108 C112 0.949 . S
C109 C110 1.349 . S
C109 C111 1.327 . S
C109 H132 0.950 . S
C110 C109 1.349 . S
C110 C122 1.349 . S
C111 C109 1.327 . S
C111 C127 1.429 . S
C111 H133 0.950 . S
C112 H108 0.949 . S
C112 C120 1.574 1_556 S
C112 C128 1.368 . S
H113 C121 0.950 . S
H114 C119 0.950 . S
H115 C120 0.949 . S
H116 C122 0.950 . S
H117 C123 0.950 . S
H118 C124 0.949 . S
C119 H114 0.950 . S
C119 C121 1.327 . S
C119 C125 1.429 . S
C120 C112 1.574 1_554 S
C120 H115 0.949 . S
C120 C126 1.368 . S
C121 C105 1.349 . S
C121 H113 0.950 . S
C121 C119 1.327 . S
C122 C110 1.349 . S
C122 H116 0.950 . S
C122 C123 1.327 . S
C123 H117 0.950 . S
C123 C122 1.327 . S
C123 C127 1.429 . S
C124 C107 1.574 1_556 S
C124 H118 0.949 . S
C124 C128 1.368 . S
C125 C106 1.429 . S
C125 C119 1.429 . S
C125 C126 1.523 . S
C126 C107 1.368 . S
C126 C120 1.368 . S
C126 C125 1.523 . S
C127 C111 1.429 . S
C127 C123 1.429 . S
C127 C128 1.523 . S
C128 C112 1.368 . S
C128 C124 1.368 . S
C128 C127 1.523 . S
H129 C104 0.950 . S
H130 C106 0.950 . S
H131 C107 0.949 . S
H132 C109 0.950 . S
H133 C111 0.950 . S
C134 C135 1.349 . S
C134 C136 1.327 . S
C134 H159 0.950 . S
C135 C134 1.349 . S
C135 C151 1.349 . S
C136 C134 1.327 . S
C136 C155 1.429 . S
C136 H160 0.950 . S
C137 C154 1.574 . S
C137 C156 1.368 . S
C137 H161 0.949 . S
H138 C142 0.949 . S
C139 C140 1.349 . S
C139 C141 1.327 . S
C139 H162 0.950 . S
C140 C139 1.349 . S
C140 C152 1.349 . S
C141 C139 1.327 . S
C141 C157 1.429 . S
C141 H163 0.950 . S
C142 H138 0.949 . S
C142 C150 1.574 . S
C142 C158 1.368 . S
H143 C151 0.950 . S
H144 C149 0.950 . S
H145 C150 0.949 . S
H146 C152 0.950 . S
H147 C153 0.950 . S
H148 C154 0.949 . S
C149 H144 0.950 . S
C149 C151 1.327 . S
C149 C155 1.429 . S
C150 C142 1.574 . S
C150 H145 0.949 . S
C150 C156 1.368 . S
C151 C135 1.349 . S
C151 H143 0.950 . S
C151 C149 1.327 . S
C152 C140 1.349 . S
C152 H146 0.950 . S
C152 C153 1.327 . S
C153 H147 0.950 . S
C153 C152 1.327 . S
C153 C157 1.429 . S
C154 C137 1.574 . S
C154 H148 0.949 . S
C154 C158 1.368 . S
C155 C136 1.429 . S
C155 C149 1.429 . S
C155 C156 1.523 . S
C156 C137 1.368 . S
C156 C150 1.368 . S
C156 C155 1.523 . S
C157 C141 1.429 . S
C157 C153 1.429 . S
C157 C158 1.523 . S
C158 C142 1.368 . S
C158 C154 1.368 . S
C158 C157 1.523 . S
H159 C134 0.950 . S
H160 C136 0.950 . S
H161 C137 0.949 . S
H162 C139 0.950 . S
H163 C141 0.950 . S
C164 C165 1.349 . S
C164 C166 1.327 . S
C164 H189 0.950 . S
C165 C164 1.349 . S
C165 C181 1.349 . S
C166 C164 1.327 . S
C166 C185 1.429 . S
C166 H190 0.950 . S
C167 C184 1.574 1_554 S
C167 C186 1.368 . S
C167 H191 0.949 . S
H168 C172 0.949 . S
C169 C170 1.349 . S
C169 C171 1.327 . S
C169 H192 0.950 . S
C170 C169 1.349 . S
C170 C182 1.349 . S
C171 C169 1.327 . S
C171 C187 1.429 . S
C171 H193 0.950 . S
C172 H168 0.949 . S
C172 C180 1.574 1_556 S
C172 C188 1.368 . S
H173 C181 0.950 . S
H174 C179 0.950 . S
H175 C180 0.949 . S
H176 C182 0.950 . S
H177 C183 0.950 . S
H178 C184 0.949 . S
C179 H174 0.950 . S
C179 C181 1.327 . S
C179 C185 1.429 . S
C180 C172 1.574 1_554 S
C180 H175 0.949 . S
C180 C186 1.368 . S
C181 C165 1.349 . S
C181 H173 0.950 . S
C181 C179 1.327 . S
C182 C170 1.349 . S
C182 H176 0.950 . S
C182 C183 1.327 . S
C183 H177 0.950 . S
C183 C182 1.327 . S
C183 C187 1.429 . S
C184 C167 1.574 1_556 S
C184 H178 0.949 . S
C184 C188 1.368 . S
C185 C166 1.429 . S
C185 C179 1.429 . S
C185 C186 1.523 . S
C186 C167 1.368 . S
C186 C180 1.368 . S
C186 C185 1.523 . S
C187 C171 1.429 . S
C187 C183 1.429 . S
C187 C188 1.523 . S
C188 C172 1.368 . S
C188 C184 1.368 . S
C188 C187 1.523 . S
H189 C164 0.950 . S
H190 C166 0.950 . S
H191 C167 0.949 . S
H192 C169 0.950 . S
H193 C171 0.950 . S
C194 C195 1.349 . S
C194 C196 1.327 . S
C194 H219 0.950 . S
C195 C194 1.349 . S
C195 C211 1.349 . S
C196 C194 1.327 . S
C196 C215 1.429 . S
C196 H220 0.950 . S
C197 C214 1.574 . S
C197 C216 1.368 . S
C197 H221 0.949 . S
H198 C202 0.949 . S
C199 C200 1.349 . S
C199 C201 1.327 . S
C199 H222 0.950 . S
C200 C199 1.349 . S
C200 C212 1.349 . S
C201 C199 1.327 . S
C201 C217 1.429 . S
C201 H223 0.950 . S
C202 H198 0.949 . S
C202 C210 1.574 . S
C202 C218 1.368 . S
H203 C211 0.950 . S
H204 C209 0.950 . S
H205 C210 0.949 . S
H206 C212 0.950 . S
H207 C213 0.950 . S
H208 C214 0.949 . S
C209 H204 0.950 . S
C209 C211 1.327 . S
C209 C215 1.429 . S
C210 C202 1.574 . S
C210 H205 0.949 . S
C210 C216 1.368 . S
C211 C195 1.349 . S
C211 H203 0.950 . S
C211 C209 1.327 . S
C212 C200 1.349 . S
C212 H206 0.950 . S
C212 C213 1.327 . S
C213 H207 0.950 . S
C213 C212 1.327 . S
C213 C217 1.429 . S
C214 C197 1.574 . S
C214 H208 0.949 . S
C214 C218 1.368 . S
C215 C196 1.429 . S
C215 C209 1.429 . S
C215 C216 1.523 . S
C216 C197 1.368 . S
C216 C210 1.368 . S
C216 C215 1.523 . S
C217 C201 1.429 . S
C217 C213 1.429 . S
C217 C218 1.523 . S
C218 C202 1.368 . S
C218 C214 1.368 . S
C218 C217 1.523 . S
H219 C194 0.950 . S
H220 C196 0.950 . S
H221 C197 0.949 . S
H222 C199 0.950 . S
H223 C201 0.950 . S
C224 C225 1.349 . S
C224 C226 1.327 . S
C224 H249 0.950 . S
C225 C224 1.349 . S
C225 C241 1.349 . S
C226 C224 1.327 . S
C226 C245 1.429 . S
C226 H250 0.950 . S
C227 C244 1.574 . S
C227 C246 1.368 . S
C227 H251 0.949 . S
H228 C232 0.949 . S
C229 C230 1.349 . S
C229 C231 1.327 . S
C229 H252 0.950 . S
C230 C229 1.349 . S
C230 C242 1.349 . S
C231 C229 1.327 . S
C231 C247 1.429 . S
C231 H253 0.950 . S
C232 H228 0.949 . S
C232 C240 1.574 . S
C232 C248 1.368 . S
H233 C241 0.950 . S
H234 C239 0.950 . S
H235 C240 0.949 . S
H236 C242 0.950 . S
H237 C243 0.950 . S
H238 C244 0.949 . S
C239 H234 0.950 . S
C239 C241 1.327 . S
C239 C245 1.429 . S
C240 C232 1.574 . S
C240 H235 0.949 . S
C240 C246 1.368 . S
C241 C225 1.349 . S
C241 H233 0.950 . S
C241 C239 1.327 . S
C242 C230 1.349 . S
C242 H236 0.950 . S
C242 C243 1.327 . S
C243 H237 0.950 . S
C243 C242 1.327 . S
C243 C247 1.429 . S
C244 C227 1.574 . S
C244 H238 0.949 . S
C244 C248 1.368 . S
C245 C226 1.429 . S
C245 C239 1.429 . S
C245 C246 1.523 . S
C246 C227 1.368 . S
C246 C240 1.368 . S
C246 C245 1.523 . S
C247 C231 1.429 . S
C247 C243 1.429 . S
C247 C248 1.523 . S
C248 C232 1.368 . S
C248 C244 1.368 . S
C248 C247 1.523 . S
H249 C224 0.950 . S
H250 C226 0.950 . S
H251 C227 0.949 . S
H252 C229 0.950 . S
H253 C231 0.950 . S
C254 C255 1.349 . S
C254 C256 1.327 . S
C254 H279 0.950 . S
C255 C254 1.349 . S
C255 C271 1.349 . S
C256 C254 1.327 . S
C256 C275 1.429 . S
C256 H280 0.950 . S
C257 C274 1.574 . S
C257 C276 1.368 . S
C257 H281 0.949 . S
H258 C262 0.949 . S
C259 C260 1.349 . S
C259 C261 1.327 1_545 S
C259 H282 0.950 . S
C260 C259 1.349 . S
C260 C272 1.349 1_545 S
C261 C259 1.327 1_565 S
C261 C277 1.429 . S
C261 H283 0.950 . S
C262 H258 0.949 . S
C262 C270 1.574 . S
C262 C278 1.368 . S
H263 C271 0.950 . S
H264 C269 0.950 . S
H265 C270 0.949 . S
H266 C272 0.950 . S
H267 C273 0.950 . S
H268 C274 0.949 . S
C269 H264 0.950 . S
C269 C271 1.327 . S
C269 C275 1.429 . S
C270 C262 1.574 . S
C270 H265 0.949 . S
C270 C276 1.368 . S
C271 C255 1.349 . S
C271 H263 0.950 . S
C271 C269 1.327 . S
C272 C260 1.349 1_565 S
C272 H266 0.950 . S
C272 C273 1.327 . S
C273 H267 0.950 . S
C273 C272 1.327 . S
C273 C277 1.429 . S
C274 C257 1.574 . S
C274 H268 0.949 . S
C274 C278 1.368 . S
C275 C256 1.429 . S
C275 C269 1.429 . S
C275 C276 1.523 . S
C276 C257 1.368 . S
C276 C270 1.368 . S
C276 C275 1.523 . S
C277 C261 1.429 . S
C277 C273 1.429 . S
C277 C278 1.523 . S
C278 C262 1.368 . S
C278 C274 1.368 . S
C278 C277 1.523 . S
H279 C254 0.950 . S
H280 C256 0.950 . S
H281 C257 0.949 . S
H282 C259 0.950 . S
H283 C261 0.950 . S
C284 C285 1.349 . S
C284 C286 1.327 . S
C284 H309 0.950 . S
C285 C284 1.349 . S
C285 C301 1.349 . S
C286 C284 1.327 . S
C286 C305 1.429 . S
C286 H310 0.950 . S
C287 C304 1.574 . S
C287 C306 1.368 . S
C287 H311 0.949 . S
H288 C292 0.949 . S
C289 C290 1.349 . S
C289 C291 1.327 . S
C289 H312 0.950 . S
C290 C289 1.349 . S
C290 C302 1.349 . S
C291 C289 1.327 . S
C291 C307 1.429 . S
C291 H313 0.950 . S
C292 H288 0.949 . S
C292 C300 1.574 . S
C292 C308 1.368 . S
H293 C301 0.950 . S
H294 C299 0.950 . S
H295 C300 0.949 . S
H296 C302 0.950 . S
H297 C303 0.950 . S
H298 C304 0.949 . S
C299 H294 0.950 . S
C299 C301 1.327 . S
C299 C305 1.429 . S
C300 C292 1.574 . S
C300 H295 0.949 . S
C300 C306 1.368 . S
C301 C285 1.349 . S
C301 H293 0.950 . S
C301 C299 1.327 . S
C302 C290 1.349 . S
C302 H296 0.950 . S
C302 C303 1.327 . S
C303 H297 0.950 . S
C303 C302 1.327 . S
C303 C307 1.429 . S
C304 C287 1.574 . S
C304 H298 0.949 . S
C304 C308 1.368 . S
C305 C286 1.429 . S
C305 C299 1.429 . S
C305 C306 1.523 . S
C306 C287 1.368 . S
C306 C300 1.368 . S
C306 C305 1.523 . S
C307 C291 1.429 . S
C307 C303 1.429 . S
C307 C308 1.523 . S
C308 C292 1.368 . S
C308 C304 1.368 . S
C308 C307 1.523 . S
H309 C284 0.950 . S
H310 C286 0.950 . S
H311 C287 0.949 . S
H312 C289 0.950 . S
H313 C291 0.950 . S
C314 C315 1.349 . S
C314 C316 1.327 . S
C314 H339 0.950 . S
C315 C314 1.349 . S
C315 C331 1.349 . S
C316 C314 1.327 . S
C316 C335 1.429 . S
C316 H340 0.950 . S
C317 C334 1.574 . S
C317 C336 1.368 . S
C317 H341 0.949 . S
H318 C322 0.949 . S
C319 C320 1.349 . S
C319 C321 1.327 1_565 S
C319 H342 0.950 . S
C320 C319 1.349 . S
C320 C332 1.349 1_565 S
C321 C319 1.327 1_545 S
C321 C337 1.429 . S
C321 H343 0.950 . S
C322 H318 0.949 . S
C322 C330 1.574 . S
C322 C338 1.368 . S
H323 C331 0.950 . S
H324 C329 0.950 . S
H325 C330 0.949 . S
H326 C332 0.950 . S
H327 C333 0.950 . S
H328 C334 0.949 . S
C329 H324 0.950 . S
C329 C331 1.327 . S
C329 C335 1.429 . S
C330 C322 1.574 . S
C330 H325 0.949 . S
C330 C336 1.368 . S
C331 C315 1.349 . S
C331 H323 0.950 . S
C331 C329 1.327 . S
C332 C320 1.349 1_545 S
C332 H326 0.950 . S
C332 C333 1.327 . S
C333 H327 0.950 . S
C333 C332 1.327 . S
C333 C337 1.429 . S
C334 C317 1.574 . S
C334 H328 0.949 . S
C334 C338 1.368 . S
C335 C316 1.429 . S
C335 C329 1.429 . S
C335 C336 1.523 . S
C336 C317 1.368 . S
C336 C330 1.368 . S
C336 C335 1.523 . S
C337 C321 1.429 . S
C337 C333 1.429 . S
C337 C338 1.523 . S
C338 C322 1.368 . S
C338 C334 1.368 . S
C338 C337 1.523 . S
H339 C314 0.950 . S
H340 C316 0.950 . S
H341 C317 0.949 . S
H342 C319 0.950 . S
H343 C321 0.950 . S
C344 C345 1.349 . S
C344 C346 1.327 . S
C344 H369 0.950 . S
C345 C344 1.349 . S
C345 C361 1.349 . S
C346 C344 1.327 . S
C346 C365 1.429 . S
C346 H370 0.950 . S
C347 C364 1.574 . S
C347 C366 1.368 . S
C347 H371 0.949 . S
H348 C352 0.949 . S
C349 C350 1.349 1_655 S
C349 C351 1.327 . S
C349 H372 0.950 . S
C350 C349 1.349 1_455 S
C350 C362 1.349 . S
C351 C349 1.327 . S
C351 C367 1.429 . S
C351 H373 0.950 . S
C352 H348 0.949 . S
C352 C360 1.574 . S
C352 C368 1.368 . S
H353 C361 0.950 . S
H354 C359 0.950 . S
H355 C360 0.949 . S
H356 C362 0.950 . S
H357 C363 0.950 . S
H358 C364 0.949 . S
C359 H354 0.950 . S
C359 C361 1.327 . S
C359 C365 1.429 . S
C360 C352 1.574 . S
C360 H355 0.949 . S
C360 C366 1.368 . S
C361 C345 1.349 . S
C361 H353 0.950 . S
C361 C359 1.327 . S
C362 C350 1.349 . S
C362 H356 0.950 . S
C362 C363 1.327 1_455 S
C363 H357 0.950 . S
C363 C362 1.327 1_655 S
C363 C367 1.429 . S
C364 C347 1.574 . S
C364 H358 0.949 . S
C364 C368 1.368 . S
C365 C346 1.429 . S
C365 C359 1.429 . S
C365 C366 1.523 . S
C366 C347 1.368 . S
C366 C360 1.368 . S
C366 C365 1.523 . S
C367 C351 1.429 . S
C367 C363 1.429 . S
C367 C368 1.523 . S
C368 C352 1.368 . S
C368 C364 1.368 . S
C368 C367 1.523 . S
H369 C344 0.950 . S
H370 C346 0.950 . S
H371 C347 0.949 . S
H372 C349 0.950 . S
H373 C351 0.950 . S
C374 C375 1.349 . S
C374 C376 1.327 . S
C374 H399 0.950 . S
C375 C374 1.349 . S
C375 C391 1.349 . S
C376 C374 1.327 . S
C376 C395 1.429 . S
C376 H400 0.950 . S
C377 C394 1.574 . S
C377 C396 1.368 . S
C377 H401 0.949 . S
H378 C382 0.949 . S
C379 C380 1.349 . S
C379 C381 1.327 . S
C379 H402 0.950 . S
C380 C379 1.349 . S
C380 C392 1.349 . S
C381 C379 1.327 . S
C381 C397 1.429 . S
C381 H403 0.950 . S
C382 H378 0.949 . S
C382 C390 1.574 . S
C382 C398 1.368 . S
H383 C391 0.950 . S
H384 C389 0.950 . S
H385 C390 0.949 . S
H386 C392 0.950 . S
H387 C393 0.950 . S
H388 C394 0.949 . S
C389 H384 0.950 . S
C389 C391 1.327 . S
C389 C395 1.429 . S
C390 C382 1.574 . S
C390 H385 0.949 . S
C390 C396 1.368 . S
C391 C375 1.349 . S
C391 H383 0.950 . S
C391 C389 1.327 . S
C392 C380 1.349 . S
C392 H386 0.950 . S
C392 C393 1.327 . S
C393 H387 0.950 . S
C393 C392 1.327 . S
C393 C397 1.429 . S
C394 C377 1.574 . S
C394 H388 0.949 . S
C394 C398 1.368 . S
C395 C376 1.429 . S
C395 C389 1.429 . S
C395 C396 1.523 . S
C396 C377 1.368 . S
C396 C390 1.368 . S
C396 C395 1.523 . S
C397 C381 1.429 . S
C397 C393 1.429 . S
C397 C398 1.523 . S
C398 C382 1.368 . S
C398 C394 1.368 . S
C398 C397 1.523 . S
H399 C374 0.950 . S
H400 C376 0.950 . S
H401 C377 0.949 . S
H402 C379 0.950 . S
H403 C381 0.950 . S
C404 C405 1.349 . S
C404 C406 1.327 . S
C404 H429 0.950 . S
C405 C404 1.349 . S
C405 C421 1.349 . S
C406 C404 1.327 . S
C406 C425 1.429 . S
C406 H430 0.950 . S
C407 C424 1.574 . S
C407 C426 1.368 . S
C407 H431 0.949 . S
H408 C412 0.949 . S
C409 C410 1.349 . S
C409 C411 1.327 1_655 S
C409 H432 0.950 . S
C410 C409 1.349 . S
C410 C422 1.349 1_655 S
C411 C409 1.327 1_455 S
C411 C427 1.429 . S
C411 H433 0.950 . S
C412 H408 0.949 . S
C412 C420 1.574 . S
C412 C428 1.368 . S
H413 C421 0.950 . S
H414 C419 0.950 . S
H415 C420 0.949 . S
H416 C422 0.950 . S
H417 C423 0.950 . S
H418 C424 0.949 . S
C419 H414 0.950 . S
C419 C421 1.327 . S
C419 C425 1.429 . S
C420 C412 1.574 . S
C420 H415 0.949 . S
C420 C426 1.368 . S
C421 C405 1.349 . S
C421 H413 0.950 . S
C421 C419 1.327 . S
C422 C410 1.349 1_455 S
C422 H416 0.950 . S
C422 C423 1.327 . S
C423 H417 0.950 . S
C423 C422 1.327 . S
C423 C427 1.429 . S
C424 C407 1.574 . S
C424 H418 0.949 . S
C424 C428 1.368 . S
C425 C406 1.429 . S
C425 C419 1.429 . S
C425 C426 1.523 . S
C426 C407 1.368 . S
C426 C420 1.368 . S
C426 C425 1.523 . S
C427 C411 1.429 . S
C427 C423 1.429 . S
C427 C428 1.523 . S
C428 C412 1.368 . S
C428 C424 1.368 . S
C428 C427 1.523 . S
H429 C404 0.950 . S
H430 C406 0.950 . S
H431 C407 0.949 . S
H432 C409 0.950 . S
H433 C411 0.950 . S
C434 C435 1.349 . S
C434 C436 1.327 . S
C434 H459 0.950 . S
C435 C434 1.349 . S
C435 C451 1.349 . S
C436 C434 1.327 . S
C436 C455 1.429 . S
C436 H460 0.950 . S
C437 C454 1.574 . S
C437 C456 1.368 . S
C437 H461 0.949 . S
H438 C442 0.949 . S
C439 C440 1.349 . S
C439 C441 1.327 . S
C439 H462 0.950 . S
C440 C439 1.349 . S
C440 C452 1.349 . S
C441 C439 1.327 . S
C441 C457 1.429 . S
C441 H463 0.950 . S
C442 H438 0.949 . S
C442 C450 1.574 . S
C442 C458 1.368 . S
H443 C451 0.950 . S
H444 C449 0.950 . S
H445 C450 0.949 . S
H446 C452 0.950 . S
H447 C453 0.950 . S
H448 C454 0.949 . S
C449 H444 0.950 . S
C449 C451 1.327 . S
C449 C455 1.429 . S
C450 C442 1.574 . S
C450 H445 0.949 . S
C450 C456 1.368 . S
C451 C435 1.349 . S
C451 H443 0.950 . S
C451 C449 1.327 . S
C452 C440 1.349 . S
C452 H446 0.950 . S
C452 C453 1.327 . S
C453 H447 0.950 . S
C453 C452 1.327 . S
C453 C457 1.429 . S
C454 C437 1.574 . S
C454 H448 0.949 . S
C454 C458 1.368 . S
C455 C436 1.429 . S
C455 C449 1.429 . S
C455 C456 1.523 . S
C456 C437 1.368 . S
C456 C450 1.368 . S
C456 C455 1.523 . S
C457 C441 1.429 . S
C457 C453 1.429 . S
C457 C458 1.523 . S
C458 C442 1.368 . S
C458 C454 1.368 . S
C458 C457 1.523 . S
H459 C434 0.950 . S
H460 C436 0.950 . S
H461 C437 0.949 . S
H462 C439 0.950 . S
H463 C441 0.950 . S
C464 C465 1.349 . S
C464 C466 1.327 . S
C464 H489 0.950 . S
C465 C464 1.349 . S
C465 C481 1.349 . S
C466 C464 1.327 . S
C466 C485 1.429 . S
C466 H490 0.950 . S
C467 C484 1.574 . S
C467 C486 1.368 1_455 S
C467 H491 0.949 . S
H468 C472 0.949 . S
C469 C470 1.349 . S
C469 C471 1.327 . S
C469 H492 0.950 . S
C470 C469 1.349 . S
C470 C482 1.349 . S
C471 C469 1.327 . S
C471 C487 1.429 . S
C471 H493 0.950 . S
C472 H468 0.949 . S
C472 C480 1.574 . S
C472 C488 1.368 1_655 S
H473 C481 0.950 . S
H474 C479 0.950 . S
H475 C480 0.949 . S
H476 C482 0.950 . S
H477 C483 0.950 . S
H478 C484 0.949 . S
C479 H474 0.950 . S
C479 C481 1.327 . S
C479 C485 1.429 . S
C480 C472 1.574 . S
C480 H475 0.949 . S
C480 C486 1.368 . S
C481 C465 1.349 . S
C481 H473 0.950 . S
C481 C479 1.327 . S
C482 C470 1.349 . S
C482 H476 0.950 . S
C482 C483 1.327 . S
C483 H477 0.950 . S
C483 C482 1.327 . S
C483 C487 1.429 . S
C484 C467 1.574 . S
C484 H478 0.949 . S
C484 C488 1.368 . S
C485 C466 1.429 . S
C485 C479 1.429 . S
C485 C486 1.523 . S
C486 C467 1.368 1_655 S
C486 C480 1.368 . S
C486 C485 1.523 . S
C487 C471 1.429 . S
C487 C483 1.429 . S
C487 C488 1.523 . S
C488 C472 1.368 1_455 S
C488 C484 1.368 . S
C488 C487 1.523 . S
H489 C464 0.950 . S
H490 C466 0.950 . S
H491 C467 0.949 . S
H492 C469 0.950 . S
H493 C471 0.950 . S
C494 C495 1.349 . S
C494 C496 1.327 . S
C494 H519 0.950 . S
C495 C494 1.349 . S
C495 C511 1.349 . S
C496 C494 1.327 . S
C496 C515 1.429 . S
C496 H520 0.950 . S
C497 C514 1.574 1_655 S
C497 C516 1.368 . S
C497 H521 0.949 . S
H498 C502 0.949 . S
C499 C500 1.349 . S
C499 C501 1.327 . S
C499 H522 0.950 . S
C500 C499 1.349 . S
C500 C512 1.349 . S
C501 C499 1.327 . S
C501 C517 1.429 . S
C501 H523 0.950 . S
C502 H498 0.949 . S
C502 C510 1.574 1_455 S
C502 C518 1.368 . S
H503 C511 0.950 . S
H504 C509 0.950 . S
H505 C510 0.949 . S
H506 C512 0.950 . S
H507 C513 0.950 . S
H508 C514 0.949 . S
C509 H504 0.950 . S
C509 C511 1.327 . S
C509 C515 1.429 . S
C510 C502 1.574 1_655 S
C510 H505 0.949 . S
C510 C516 1.368 . S
C511 C495 1.349 . S
C511 H503 0.950 . S
C511 C509 1.327 . S
C512 C500 1.349 . S
C512 H506 0.950 . S
C512 C513 1.327 . S
C513 H507 0.950 . S
C513 C512 1.327 . S
C513 C517 1.429 . S
C514 C497 1.574 1_455 S
C514 H508 0.949 . S
C514 C518 1.368 . S
C515 C496 1.429 . S
C515 C509 1.429 . S
C515 C516 1.523 . S
C516 C497 1.368 . S
C516 C510 1.368 . S
C516 C515 1.523 . S
C517 C501 1.429 . S
C517 C513 1.429 . S
C517 C518 1.523 . S
C518 C502 1.368 . S
C518 C514 1.368 . S
C518 C517 1.523 . S
H519 C494 0.950 . S
H520 C496 0.950 . S
H521 C497 0.949 . S
H522 C499 0.950 . S
H523 C501 0.950 . S
C524 C525 1.349 . S
C524 C526 1.327 . S
C524 H549 0.950 . S
C525 C524 1.349 . S
C525 C541 1.349 . S
C526 C524 1.327 . S
C526 C545 1.429 . S
C526 H550 0.950 . S
C527 C544 1.574 1_545 S
C527 C546 1.368 . S
C527 H551 0.949 . S
H528 C532 0.949 . S
C529 C530 1.349 . S
C529 C531 1.327 . S
C529 H552 0.950 . S
C530 C529 1.349 . S
C530 C542 1.349 . S
C531 C529 1.327 . S
C531 C547 1.429 . S
C531 H553 0.950 . S
C532 H528 0.949 . S
C532 C540 1.574 1_565 S
C532 C548 1.368 . S
H533 C541 0.950 . S
H534 C539 0.950 . S
H535 C540 0.949 . S
H536 C542 0.950 . S
H537 C543 0.950 . S
H538 C544 0.949 . S
C539 H534 0.950 . S
C539 C541 1.327 . S
C539 C545 1.429 . S
C540 C532 1.574 1_545 S
C540 H535 0.949 . S
C540 C546 1.368 . S
C541 C525 1.349 . S
C541 H533 0.950 . S
C541 C539 1.327 . S
C542 C530 1.349 . S
C542 H536 0.950 . S
C542 C543 1.327 . S
C543 H537 0.950 . S
C543 C542 1.327 . S
C543 C547 1.429 . S
C544 C527 1.574 1_565 S
C544 H538 0.949 . S
C544 C548 1.368 . S
C545 C526 1.429 . S
C545 C539 1.429 . S
C545 C546 1.523 . S
C546 C527 1.368 . S
C546 C540 1.368 . S
C546 C545 1.523 . S
C547 C531 1.429 . S
C547 C543 1.429 . S
C547 C548 1.523 . S
C548 C532 1.368 . S
C548 C544 1.368 . S
C548 C547 1.523 . S
H549 C524 0.950 . S
H550 C526 0.950 . S
H551 C527 0.949 . S
H552 C529 0.950 . S
H553 C531 0.950 . S
C554 C555 1.349 . S
C554 C556 1.327 . S
C554 H579 0.950 . S
C555 C554 1.349 . S
C555 C571 1.349 . S
C556 C554 1.327 . S
C556 C575 1.429 . S
C556 H580 0.950 . S
C557 C574 1.574 . S
C557 C576 1.368 . S
C557 H581 0.949 . S
H558 C562 0.949 . S
C559 C560 1.349 . S
C559 C561 1.327 . S
C559 H582 0.950 . S
C560 C559 1.349 . S
C560 C572 1.349 . S
C561 C559 1.327 . S
C561 C577 1.429 . S
C561 H583 0.950 . S
C562 H558 0.949 . S
C562 C570 1.574 . S
C562 C578 1.368 . S
H563 C571 0.950 . S
H564 C569 0.950 . S
H565 C570 0.949 . S
H566 C572 0.950 . S
H567 C573 0.950 . S
H568 C574 0.949 . S
C569 H564 0.950 . S
C569 C571 1.327 . S
C569 C575 1.429 . S
C570 C562 1.574 . S
C570 H565 0.949 . S
C570 C576 1.368 1_565 S
C571 C555 1.349 . S
C571 H563 0.950 . S
C571 C569 1.327 . S
C572 C560 1.349 . S
C572 H566 0.950 . S
C572 C573 1.327 . S
C573 H567 0.950 . S
C573 C572 1.327 . S
C573 C577 1.429 . S
C574 C557 1.574 . S
C574 H568 0.949 . S
C574 C578 1.368 1_545 S
C575 C556 1.429 . S
C575 C569 1.429 . S
C575 C576 1.523 . S
C576 C557 1.368 . S
C576 C570 1.368 1_545 S
C576 C575 1.523 . S
C577 C561 1.429 . S
C577 C573 1.429 . S
C577 C578 1.523 . S
C578 C562 1.368 . S
C578 C574 1.368 1_565 S
C578 C577 1.523 . S
H579 C554 0.950 . S
H580 C556 0.950 . S
H581 C557 0.949 . S
H582 C559 0.950 . S
H583 C561 0.950 . S
C105 C8 1.207 . S
C110 C73 1.207 . S
C135 C21 1.207 . S
C140 C86 1.207 . S
C165 C34 1.207 . S
C170 C99 1.207 . S
C195 C60 1.207 . S
C200 C47 1.207 . S
C225 C0 1.485 . S
C230 C62 1.473 . S
C255 C13 1.485 . S
C260 C75 1.473 . S
C285 C88 1.473 . S
C290 C26 1.485 . S
C315 C39 1.485 . S
C320 C101 1.473 . S
C345 C52 1.485 . S
C350 C10 1.473 . S
C375 C23 1.473 . S
C380 C65 1.485 . S
C405 C78 1.485 . S
C410 C36 1.473 . S
C435 C49 1.473 . S
C440 C91 1.485 . S
C465 C31 0.440 . S
C470 C5 0.440 . S
C495 C44 0.440 . S
C500 C18 0.440 . S
C525 C57 0.440 . S
C530 C83 0.440 . S
C555 C70 0.440 . S
C560 C96 0.440 . S
