# Generated by pormake.
# Topology uns, (4)-cn, num edge types: 1
# Building blocks:
#     Node 0, Type 0, BuildingBlock: NAWXER_clean_sbu_0, # of connection points: 4
#     Node 1, Type 0, BuildingBlock: NAWXER_clean_sbu_0, # of connection points: 4
#     Node 2, Type 0, BuildingBlock: NAWXER_clean_sbu_0, # of connection points: 4
#     Node 3, Type 0, BuildingBlock: NAWXER_clean_sbu_0, # of connection points: 4
#     Node 4, Type 0, BuildingBlock: NAWXER_clean_sbu_0, # of connection points: 4
#     Node 5, Type 0, BuildingBlock: NAWXER_clean_sbu_0, # of connection points: 4
#     Node 6, Type 0, BuildingBlock: NAWXER_clean_sbu_0, # of connection points: 4
#     Node 7, Type 0, BuildingBlock: NAWXER_clean_sbu_0, # of connection points: 4
#     Node 8, Type 0, BuildingBlock: NAWXER_clean_sbu_0, # of connection points: 4
#     Node 9, Type 0, BuildingBlock: NAWXER_clean_sbu_0, # of connection points: 4
#     Node 10, Type 0, BuildingBlock: NAWXER_clean_sbu_0, # of connection points: 4
#     Node 11, Type 0, BuildingBlock: NAWXER_clean_sbu_0, # of connection points: 4
#     Node 12, Type 0, BuildingBlock: NAWXER_clean_sbu_0, # of connection points: 4
#     Node 13, Type 0, BuildingBlock: NAWXER_clean_sbu_0, # of connection points: 4
#     Node 14, Type 0, BuildingBlock: NAWXER_clean_sbu_0, # of connection points: 4
#     Node 15, Type 0, BuildingBlock: NAWXER_clean_sbu_0, # of connection points: 4
#     Node 16, Type 0, BuildingBlock: NAWXER_clean_sbu_0, # of connection points: 4
#     Node 17, Type 0, BuildingBlock: NAWXER_clean_sbu_0, # of connection points: 4
#     Node 18, Type 0, BuildingBlock: NAWXER_clean_sbu_0, # of connection points: 4
#     Node 19, Type 0, BuildingBlock: NAWXER_clean_sbu_0, # of connection points: 4
#     Node 20, Type 0, BuildingBlock: NAWXER_clean_sbu_0, # of connection points: 4
#     Node 21, Type 0, BuildingBlock: NAWXER_clean_sbu_0, # of connection points: 4
#     Node 22, Type 0, BuildingBlock: NAWXER_clean_sbu_0, # of connection points: 4
#     Node 23, Type 0, BuildingBlock: NAWXER_clean_sbu_0, # of connection points: 4
#     Node 24, Type 0, BuildingBlock: NAWXER_clean_sbu_0, # of connection points: 4
#     Node 25, Type 0, BuildingBlock: NAWXER_clean_sbu_0, # of connection points: 4
#     Node 26, Type 0, BuildingBlock: NAWXER_clean_sbu_0, # of connection points: 4
#     Node 27, Type 0, BuildingBlock: NAWXER_clean_sbu_0, # of connection points: 4
#     Node 28, Type 0, BuildingBlock: NAWXER_clean_sbu_0, # of connection points: 4
#     Node 29, Type 0, BuildingBlock: NAWXER_clean_sbu_0, # of connection points: 4
#     Node 30, Type 0, BuildingBlock: NAWXER_clean_sbu_0, # of connection points: 4
#     Node 31, Type 0, BuildingBlock: NAWXER_clean_sbu_0, # of connection points: 4
#     Node 32, Type 0, BuildingBlock: NAWXER_clean_sbu_0, # of connection points: 4
#     Node 33, Type 0, BuildingBlock: NAWXER_clean_sbu_0, # of connection points: 4
#     Node 34, Type 0, BuildingBlock: NAWXER_clean_sbu_0, # of connection points: 4
#     Node 35, Type 0, BuildingBlock: NAWXER_clean_sbu_0, # of connection points: 4
#     Edge 36, Type (0, 0), BuildingBlock: XIVTED_clean_linker_0, # of connection points: 2
#     Edge 37, Type (0, 0), BuildingBlock: XIVTED_clean_linker_0, # of connection points: 2
#     Edge 38, Type (0, 0), BuildingBlock: XIVTED_clean_linker_0, # of connection points: 2
#     Edge 39, Type (0, 0), BuildingBlock: XIVTED_clean_linker_0, # of connection points: 2
#     Edge 40, Type (0, 0), BuildingBlock: XIVTED_clean_linker_0, # of connection points: 2
#     Edge 41, Type (0, 0), BuildingBlock: XIVTED_clean_linker_0, # of connection points: 2
#     Edge 42, Type (0, 0), BuildingBlock: XIVTED_clean_linker_0, # of connection points: 2
#     Edge 43, Type (0, 0), BuildingBlock: XIVTED_clean_linker_0, # of connection points: 2
#     Edge 44, Type (0, 0), BuildingBlock: XIVTED_clean_linker_0, # of connection points: 2
#     Edge 45, Type (0, 0), BuildingBlock: XIVTED_clean_linker_0, # of connection points: 2
#     Edge 46, Type (0, 0), BuildingBlock: XIVTED_clean_linker_0, # of connection points: 2
#     Edge 47, Type (0, 0), BuildingBlock: XIVTED_clean_linker_0, # of connection points: 2
#     Edge 48, Type (0, 0), BuildingBlock: XIVTED_clean_linker_0, # of connection points: 2
#     Edge 49, Type (0, 0), BuildingBlock: XIVTED_clean_linker_0, # of connection points: 2
#     Edge 50, Type (0, 0), BuildingBlock: XIVTED_clean_linker_0, # of connection points: 2
#     Edge 51, Type (0, 0), BuildingBlock: XIVTED_clean_linker_0, # of connection points: 2
#     Edge 52, Type (0, 0), BuildingBlock: XIVTED_clean_linker_0, # of connection points: 2
#     Edge 53, Type (0, 0), BuildingBlock: XIVTED_clean_linker_0, # of connection points: 2
#     Edge 54, Type (0, 0), BuildingBlock: XIVTED_clean_linker_0, # of connection points: 2
#     Edge 55, Type (0, 0), BuildingBlock: XIVTED_clean_linker_0, # of connection points: 2
#     Edge 56, Type (0, 0), BuildingBlock: XIVTED_clean_linker_0, # of connection points: 2
#     Edge 57, Type (0, 0), BuildingBlock: XIVTED_clean_linker_0, # of connection points: 2
#     Edge 58, Type (0, 0), BuildingBlock: XIVTED_clean_linker_0, # of connection points: 2
#     Edge 59, Type (0, 0), BuildingBlock: XIVTED_clean_linker_0, # of connection points: 2
#     Edge 60, Type (0, 0), BuildingBlock: XIVTED_clean_linker_0, # of connection points: 2
#     Edge 61, Type (0, 0), BuildingBlock: XIVTED_clean_linker_0, # of connection points: 2
#     Edge 62, Type (0, 0), BuildingBlock: XIVTED_clean_linker_0, # of connection points: 2
#     Edge 63, Type (0, 0), BuildingBlock: XIVTED_clean_linker_0, # of connection points: 2
#     Edge 64, Type (0, 0), BuildingBlock: XIVTED_clean_linker_0, # of connection points: 2
#     Edge 65, Type (0, 0), BuildingBlock: XIVTED_clean_linker_0, # of connection points: 2
#     Edge 66, Type (0, 0), BuildingBlock: XIVTED_clean_linker_0, # of connection points: 2
#     Edge 67, Type (0, 0), BuildingBlock: XIVTED_clean_linker_0, # of connection points: 2
#     Edge 68, Type (0, 0), BuildingBlock: XIVTED_clean_linker_0, # of connection points: 2
#     Edge 69, Type (0, 0), BuildingBlock: XIVTED_clean_linker_0, # of connection points: 2
#     Edge 70, Type (0, 0), BuildingBlock: XIVTED_clean_linker_0, # of connection points: 2
#     Edge 71, Type (0, 0), BuildingBlock: XIVTED_clean_linker_0, # of connection points: 2
#     Edge 72, Type (0, 0), BuildingBlock: XIVTED_clean_linker_0, # of connection points: 2
#     Edge 73, Type (0, 0), BuildingBlock: XIVTED_clean_linker_0, # of connection points: 2
#     Edge 74, Type (0, 0), BuildingBlock: XIVTED_clean_linker_0, # of connection points: 2
#     Edge 75, Type (0, 0), BuildingBlock: XIVTED_clean_linker_0, # of connection points: 2
#     Edge 76, Type (0, 0), BuildingBlock: XIVTED_clean_linker_0, # of connection points: 2
#     Edge 77, Type (0, 0), BuildingBlock: XIVTED_clean_linker_0, # of connection points: 2
#     Edge 78, Type (0, 0), BuildingBlock: XIVTED_clean_linker_0, # of connection points: 2
#     Edge 79, Type (0, 0), BuildingBlock: XIVTED_clean_linker_0, # of connection points: 2
#     Edge 80, Type (0, 0), BuildingBlock: XIVTED_clean_linker_0, # of connection points: 2
#     Edge 81, Type (0, 0), BuildingBlock: XIVTED_clean_linker_0, # of connection points: 2
#     Edge 82, Type (0, 0), BuildingBlock: XIVTED_clean_linker_0, # of connection points: 2
#     Edge 83, Type (0, 0), BuildingBlock: XIVTED_clean_linker_0, # of connection points: 2
#     Edge 84, Type (0, 0), BuildingBlock: XIVTED_clean_linker_0, # of connection points: 2
#     Edge 85, Type (0, 0), BuildingBlock: XIVTED_clean_linker_0, # of connection points: 2
#     Edge 86, Type (0, 0), BuildingBlock: XIVTED_clean_linker_0, # of connection points: 2
#     Edge 87, Type (0, 0), BuildingBlock: XIVTED_clean_linker_0, # of connection points: 2
#     Edge 88, Type (0, 0), BuildingBlock: XIVTED_clean_linker_0, # of connection points: 2
#     Edge 89, Type (0, 0), BuildingBlock: XIVTED_clean_linker_0, # of connection points: 2
#     Edge 90, Type (0, 0), BuildingBlock: XIVTED_clean_linker_0, # of connection points: 2
#     Edge 91, Type (0, 0), BuildingBlock: XIVTED_clean_linker_0, # of connection points: 2
#     Edge 92, Type (0, 0), BuildingBlock: XIVTED_clean_linker_0, # of connection points: 2
#     Edge 93, Type (0, 0), BuildingBlock: XIVTED_clean_linker_0, # of connection points: 2
#     Edge 94, Type (0, 0), BuildingBlock: XIVTED_clean_linker_0, # of connection points: 2
#     Edge 95, Type (0, 0), BuildingBlock: XIVTED_clean_linker_0, # of connection points: 2
#     Edge 96, Type (0, 0), BuildingBlock: XIVTED_clean_linker_0, # of connection points: 2
#     Edge 97, Type (0, 0), BuildingBlock: XIVTED_clean_linker_0, # of connection points: 2
#     Edge 98, Type (0, 0), BuildingBlock: XIVTED_clean_linker_0, # of connection points: 2
#     Edge 99, Type (0, 0), BuildingBlock: XIVTED_clean_linker_0, # of connection points: 2
#     Edge 100, Type (0, 0), BuildingBlock: XIVTED_clean_linker_0, # of connection points: 2
#     Edge 101, Type (0, 0), BuildingBlock: XIVTED_clean_linker_0, # of connection points: 2
#     Edge 102, Type (0, 0), BuildingBlock: XIVTED_clean_linker_0, # of connection points: 2
#     Edge 103, Type (0, 0), BuildingBlock: XIVTED_clean_linker_0, # of connection points: 2
#     Edge 104, Type (0, 0), BuildingBlock: XIVTED_clean_linker_0, # of connection points: 2
#     Edge 105, Type (0, 0), BuildingBlock: XIVTED_clean_linker_0, # of connection points: 2
#     Edge 106, Type (0, 0), BuildingBlock: XIVTED_clean_linker_0, # of connection points: 2
#     Edge 107, Type (0, 0), BuildingBlock: XIVTED_clean_linker_0, # of connection points: 2
# Relax obj value: 0.008
# Max RMSD: 0.156
# Mean RMSD: 0.156
data_MOF--net-uns--node1-NAWXER_clean_sbu_0--edge1-XIVTED_clean_linker_0
_symmetry_space_group_name_H-M    P1
_symmetry_Int_Tables_number       1
_symmetry_cell_setting            triclinic
loop_
_symmetry_equiv_pos_as_xyz
'x, y, z'
_cell_length_a     61.083652
_cell_length_b     61.030164
_cell_length_c     45.799271
_cell_angle_alpha  90.020255
_cell_angle_beta   89.979235
_cell_angle_gamma 120.05479
loop_
_atom_site_label
_atom_site_type_symbol
_atom_site_fract_x
_atom_site_fract_y
_atom_site_fract_z
_atom_type_partial_charge
C0 C 0.27192 0.18005 0.10401 0.0
C1 C 0.20769 0.19218 0.05581 0.0
O2 O 0.25111 0.17657 0.11437 0.0
Zn3 Zn 0.23962 0.18564 0.07989 0.0
O4 O 0.27778 0.18737 0.07742 0.0
Zn5 Zn 0.26121 0.19671 0.04111 0.0
O6 O 0.28572 0.23171 0.03366 0.0
O7 O 0.26669 0.2254 0.07635 0.0
O8 O 0.22616 0.19675 0.03878 0.0
O9 O 0.20779 0.18519 0.08189 0.0
O10 O 0.23244 0.15515 0.05045 0.0
O11 O 0.25693 0.17223 0.01196 0.0
C12 C 0.28293 0.24044 0.05768 0.0
C13 C 0.24033 0.15272 0.02534 0.0
C14 C 0.80571 0.01681 0.05467 0.0
C15 C 0.81864 0.09328 0.10371 0.0
O16 O 0.8136 0.0241 0.08049 0.0
Zn17 Zn 0.81245 0.05503 0.07918 0.0
O18 O 0.80037 0.03051 0.03819 0.0
Zn19 Zn 0.80047 0.06587 0.0413 0.0
O20 O 0.82418 0.08599 0.01137 0.0
O21 O 0.84206 0.07813 0.0487 0.0
O22 O 0.81091 0.09177 0.07736 0.0
O23 O 0.822 0.0758 0.11381 0.0
O24 O 0.77243 0.04082 0.07629 0.0
O25 O 0.76542 0.05603 0.03583 0.0
C26 C 0.84392 0.08854 0.02376 0.0
C27 C 0.7571 0.04277 0.05884 0.0
C28 C 0.90818 0.75187 0.01626 0.0
C29 C 0.95207 0.71156 0.05865 0.0
O30 O 0.90976 0.7332 0.00668 0.0
Zn31 Zn 0.92991 0.73136 0.03787 0.0
O32 O 0.91887 0.76227 0.04047 0.0
Zn33 Zn 0.94076 0.75676 0.0733 0.0
O34 O 0.97162 0.7888 0.07295 0.0
O35 O 0.96651 0.76546 0.0338 0.0
O36 O 0.95456 0.73015 0.07427 0.0
O37 O 0.93869 0.70534 0.03562 0.0
O38 O 0.90431 0.71816 0.07405 0.0
O39 O 0.91973 0.74782 0.10783 0.0
C40 C 0.9799 0.78566 0.04879 0.0
C41 C 0.90261 0.72609 0.09938 0.0
C42 C 0.15521 0.24487 0.4776 0.0
C43 C 0.2426 0.28732 0.44406 0.0
O44 O 0.17479 0.26158 0.49077 0.0
Zn45 Zn 0.19903 0.26576 0.46127 0.0
O46 O 0.15746 0.23694 0.45244 0.0
Zn47 Zn 0.1876 0.24406 0.42255 0.0
O48 O 0.18696 0.21215 0.42035 0.0
O49 O 0.1989 0.23054 0.46343 0.0
O50 O 0.22737 0.27102 0.42558 0.0
O51 O 0.23411 0.29022 0.46821 0.0
O52 O 0.18955 0.28241 0.42521 0.0
O53 O 0.17827 0.25558 0.38835 0.0
C54 C 0.19409 0.21201 0.44635 0.0
C55 C 0.182 0.2765 0.39871 0.0
C56 C 0.78998 0.98276 0.44276 0.0
C57 C 0.72529 0.90726 0.39308 0.0
O58 O 0.79031 0.9758 0.41669 0.0
Zn59 Zn 0.75811 0.94486 0.41782 0.0
O60 O 0.77112 0.96885 0.45937 0.0
Zn61 Zn 0.73583 0.93364 0.45628 0.0
O62 O 0.73971 0.91283 0.48505 0.0
O63 O 0.76461 0.92091 0.44682 0.0
O64 O 0.71963 0.9085 0.41975 0.0
O65 O 0.74611 0.92464 0.38275 0.0
O66 O 0.73244 0.95909 0.42225 0.0
O67 O 0.7108 0.94357 0.46307 0.0
C68 C 0.7564 0.91011 0.47164 0.0
C69 C 0.71544 0.95703 0.44026 0.0
C70 C 0.01407 0.80385 0.44353 0.0
C71 C 0.09317 0.82128 0.39799 0.0
O72 O 0.02278 0.8142 0.41897 0.0
Zn73 Zn 0.05432 0.81404 0.42117 0.0
O74 O 0.02744 0.79837 0.46029 0.0
Zn75 Zn 0.06418 0.80189 0.45965 0.0
O76 O 0.08266 0.82604 0.49025 0.0
O77 O 0.07616 0.84362 0.45172 0.0
O78 O 0.09112 0.81311 0.42425 0.0
O79 O 0.07587 0.8247 0.38741 0.0
O80 O 0.04258 0.77416 0.42309 0.0
O81 O 0.05538 0.76726 0.46547 0.0
C82 C 0.08567 0.84571 0.47721 0.0
C83 C 0.04422 0.75894 0.44115 0.0
C84 C 0.75997 0.84733 0.97244 0.0
C85 C 0.71455 0.76039 0.93736 0.0
O86 O 0.76726 0.84521 0.94688 0.0
Zn87 Zn 0.75948 0.81536 0.91666 0.0
O88 O 0.74357 0.82765 0.98571 0.0
Zn89 Zn 0.73773 0.80338 0.95533 0.0
O90 O 0.77076 0.7996 0.95567 0.0
O91 O 0.79117 0.81539 0.91429 0.0
O92 O 0.71191 0.7689 0.96165 0.0
O93 O 0.73129 0.77544 0.91906 0.0
O94 O 0.7482 0.82555 0.88279 0.0
O95 O 0.72161 0.81407 0.9199 0.0
C96 C 0.7895 0.80492 0.93877 0.0
C97 C 0.72746 0.82197 0.89351 0.0
C98 C 0.19213 0.98096 0.94835 0.0
C99 C 0.17941 0.90507 0.89828 0.0
O100 O 0.19697 0.96693 0.96485 0.0
Zn101 Zn 0.19718 0.93185 0.96111 0.0
O102 O 0.18485 0.97412 0.92227 0.0
Zn103 Zn 0.18531 0.94283 0.92335 0.0
O104 O 0.15553 0.91976 0.95375 0.0
O105 O 0.17329 0.91041 0.99 0.0
O106 O 0.17536 0.92224 0.88865 0.0
O107 O 0.18745 0.90655 0.92448 0.0
O108 O 0.23225 0.94238 0.96733 0.0
O109 O 0.22519 0.95571 0.9255 0.0
C110 C 0.15366 0.90851 0.97807 0.0
C111 C 0.24055 0.95427 0.94342 0.0
C112 C 0.08671 0.24137 0.97408 0.0
C113 C 0.04303 0.28498 0.94025 0.0
O114 O 0.07636 0.23342 0.94899 0.0
Zn115 Zn 0.05367 0.24091 0.91904 0.0
O116 O 0.08429 0.2584 0.98714 0.0
Zn117 Zn 0.06442 0.26287 0.95768 0.0
O118 O 0.02908 0.22807 0.96015 0.0
O119 O 0.02191 0.2093 0.91721 0.0
O120 O 0.05435 0.2878 0.96442 0.0
O121 O 0.04164 0.26844 0.9219 0.0
O122 O 0.07456 0.25202 0.88473 0.0
O123 O 0.09046 0.27889 0.92151 0.0
C124 C 0.01496 0.20952 0.9433 0.0
C125 C 0.09199 0.27283 0.89505 0.0
C126 C 0.84189 0.75298 0.5186 0.0
C127 C 0.7561 0.71212 0.55655 0.0
O128 O 0.84084 0.7626 0.54313 0.0
Zn129 Zn 0.81196 0.756 0.57491 0.0
O130 O 0.82188 0.73501 0.50755 0.0
Zn131 Zn 0.79899 0.73278 0.53756 0.0
O132 O 0.79908 0.76807 0.53421 0.0
O133 O 0.8125 0.78779 0.57643 0.0
O134 O 0.76383 0.70823 0.53241 0.0
O135 O 0.77193 0.72907 0.57407 0.0
O136 O 0.8228 0.74561 0.6091 0.0
O137 O 0.80961 0.71741 0.57362 0.0
C138 C 0.80442 0.78711 0.55071 0.0
C139 C 0.81836 0.72423 0.59953 0.0
C140 C 0.27211 0.0934 0.60543 0.0
C141 C 0.20806 0.01622 0.55811 0.0
O142 O 0.27792 0.09178 0.57887 0.0
Zn143 Zn 0.26135 0.06548 0.54283 0.0
O144 O 0.25137 0.07603 0.61595 0.0
Zn145 Zn 0.2399 0.05512 0.58171 0.0
O146 O 0.26722 0.04282 0.5784 0.0
O147 O 0.28605 0.05525 0.53556 0.0
O148 O 0.20823 0.02354 0.5841 0.0
O149 O 0.22642 0.03011 0.5409 0.0
O150 O 0.2568 0.08533 0.51343 0.0
O151 O 0.23238 0.07797 0.55197 0.0
C152 C 0.28347 0.04402 0.55975 0.0
C153 C 0.24014 0.08815 0.52676 0.0
C154 C 0.90623 0.17998 0.60389 0.0
C155 C 0.98307 0.19396 0.55519 0.0
O156 O 0.90746 0.18729 0.57734 0.0
Zn157 Zn 0.9333 0.19721 0.54092 0.0
O158 O 0.92386 0.17693 0.6141 0.0
Zn159 Zn 0.94437 0.1865 0.57953 0.0
O160 O 0.95628 0.22612 0.57619 0.0
O161 O 0.94301 0.23202 0.53369 0.0
O162 O 0.97615 0.18684 0.58128 0.0
O163 O 0.96884 0.19816 0.5383 0.0
O164 O 0.91336 0.17258 0.51173 0.0
O165 O 0.92145 0.15584 0.55002 0.0
C166 C 0.95459 0.24095 0.55764 0.0
C167 C 0.91098 0.15322 0.52497 0.0
C168 C 0.93806 0.51214 0.43764 0.0
C169 C 0.87643 0.52866 0.39067 0.0
O170 O 0.91722 0.50867 0.44789 0.0
Zn171 Zn 0.90651 0.51893 0.41372 0.0
O172 O 0.94435 0.52011 0.41132 0.0
Zn173 Zn 0.92875 0.53087 0.37538 0.0
O174 O 0.95453 0.56553 0.36933 0.0
O175 O 0.93457 0.55882 0.41153 0.0
O176 O 0.8954 0.53413 0.37409 0.0
O177 O 0.87473 0.51855 0.41539 0.0
O178 O 0.89916 0.48912 0.38372 0.0
O179 O 0.92338 0.50647 0.3452 0.0
C180 C 0.95152 0.57396 0.39349 0.0
C181 C 0.90676 0.48686 0.3584 0.0
C182 C 0.4746 0.34977 0.39018 0.0
C183 C 0.48727 0.42634 0.4389 0.0
O184 O 0.48166 0.35673 0.41629 0.0
Zn185 Zn 0.48144 0.38831 0.41472 0.0
O186 O 0.47007 0.36382 0.37337 0.0
Zn187 Zn 0.47035 0.39898 0.37601 0.0
O188 O 0.49478 0.41924 0.34685 0.0
O189 O 0.51187 0.41175 0.38525 0.0
O190 O 0.47991 0.42483 0.41235 0.0
O191 O 0.49073 0.40898 0.44928 0.0
O192 O 0.44176 0.37594 0.41154 0.0
O193 O 0.43542 0.38878 0.36898 0.0
C194 C 0.51428 0.42215 0.36019 0.0
C195 C 0.42674 0.37734 0.39306 0.0
C196 C 0.57507 0.08798 0.3579 0.0
C197 C 0.62124 0.04677 0.39117 0.0
O198 O 0.5773 0.07068 0.34525 0.0
Zn199 Zn 0.59804 0.06714 0.3744 0.0
O200 O 0.58602 0.09665 0.38255 0.0
Zn201 Zn 0.6097 0.09027 0.41211 0.0
O202 O 0.64077 0.12229 0.41261 0.0
O203 O 0.63348 0.10223 0.37046 0.0
O204 O 0.62358 0.06422 0.40865 0.0
O205 O 0.60763 0.04175 0.36844 0.0
O206 O 0.57311 0.05183 0.41131 0.0
O207 O 0.58975 0.07929 0.44736 0.0
C208 C 0.64758 0.12138 0.38663 0.0
C209 C 0.5722 0.05823 0.43776 0.0
C210 C 0.81976 0.57715 0.80888 0.0
C211 C 0.90668 0.61926 0.7736 0.0
O212 O 0.83946 0.59425 0.82146 0.0
Zn213 Zn 0.86357 0.59849 0.7914 0.0
O214 O 0.82177 0.56871 0.78399 0.0
Zn215 Zn 0.8512 0.57493 0.754 0.0
O216 O 0.84987 0.54268 0.75379 0.0
O217 O 0.8662 0.56461 0.79428 0.0
O218 O 0.89141 0.60147 0.7565 0.0
O219 O 0.89833 0.62452 0.79639 0.0
O220 O 0.85302 0.61332 0.75488 0.0
O221 O 0.84152 0.58559 0.71902 0.0
C222 C 0.86023 0.54502 0.77852 0.0
C223 C 0.84515 0.60669 0.72864 0.0
C224 C 0.37913 0.28838 0.77768 0.0
C225 C 0.42214 0.24417 0.81142 0.0
O226 O 0.37617 0.2769 0.80177 0.0
Zn227 Zn 0.40095 0.26671 0.795 0.0
O228 O 0.39565 0.28975 0.75934 0.0
Zn229 Zn 0.42297 0.27746 0.75643 0.0
O230 O 0.41188 0.25666 0.72199 0.0
O231 O 0.38496 0.24072 0.75871 0.0
O232 O 0.43019 0.25455 0.78636 0.0
O233 O 0.40517 0.24669 0.82444 0.0
O234 O 0.43584 0.30199 0.79766 0.0
O235 O 0.45468 0.30909 0.7548 0.0
C236 C 0.39105 0.23922 0.73224 0.0
C237 C 0.45446 0.31606 0.78088 0.0
C238 C 0.75529 0.17993 0.80744 0.0
C239 C 0.71083 0.09246 0.77396 0.0
O240 O 0.75266 0.16042 0.82053 0.0
Zn241 Zn 0.73246 0.13604 0.79123 0.0
O242 O 0.74478 0.17756 0.78246 0.0
Zn243 Zn 0.72152 0.14723 0.75281 0.0
O244 O 0.68992 0.14727 0.75144 0.0
O245 O 0.69717 0.13552 0.79419 0.0
O246 O 0.70931 0.10755 0.75568 0.0
O247 O 0.72241 0.10105 0.79797 0.0
O248 O 0.75821 0.14601 0.75471 0.0
O249 O 0.74199 0.15685 0.71818 0.0
C250 C 0.68303 0.14003 0.77752 0.0
C251 C 0.7595 0.15352 0.72824 0.0
C252 C 0.42457 0.17978 0.3063 0.0
C253 C 0.38 0.0924 0.27251 0.0
O254 O 0.43245 0.17735 0.28117 0.0
Zn255 Zn 0.42451 0.14692 0.25115 0.0
O256 O 0.4074 0.16036 0.31925 0.0
Zn257 Zn 0.40262 0.13599 0.2897 0.0
O258 O 0.43705 0.13475 0.29217 0.0
O259 O 0.45585 0.14633 0.24927 0.0
O260 O 0.37733 0.1012 0.29654 0.0
O261 O 0.39662 0.10729 0.25408 0.0
O262 O 0.41369 0.15692 0.21676 0.0
O263 O 0.38691 0.14637 0.25354 0.0
C264 C 0.4555 0.13895 0.27528 0.0
C265 C 0.39304 0.15389 0.22707 0.0
C266 C 0.85884 0.31599 0.27869 0.0
C267 C 0.84749 0.24003 0.22999 0.0
O268 O 0.86367 0.30218 0.29563 0.0
Zn269 Zn 0.86348 0.26674 0.293 0.0
O270 O 0.85152 0.30875 0.25271 0.0
Zn271 Zn 0.85265 0.27783 0.25453 0.0
O272 O 0.82199 0.25418 0.28369 0.0
O273 O 0.83892 0.24636 0.32198 0.0
O274 O 0.84437 0.25757 0.21963 0.0
O275 O 0.85436 0.24121 0.25668 0.0
O276 O 0.89828 0.2765 0.30023 0.0
O277 O 0.89264 0.29213 0.25924 0.0
C278 C 0.81947 0.24362 0.30866 0.0
C279 C 0.90738 0.29003 0.27752 0.0
C280 C 0.75776 0.58234 0.31428 0.0
C281 C 0.71138 0.62174 0.27698 0.0
O282 O 0.74678 0.57232 0.29002 0.0
Zn283 Zn 0.72381 0.57819 0.2586 0.0
O284 O 0.75567 0.60033 0.32518 0.0
Zn285 Zn 0.73434 0.6018 0.29558 0.0
O286 O 0.69945 0.56623 0.29978 0.0
O287 O 0.69282 0.54616 0.25775 0.0
O288 O 0.72333 0.62599 0.30092 0.0
O289 O 0.71024 0.60473 0.25955 0.0
O290 O 0.74445 0.58841 0.22398 0.0
O291 O 0.75967 0.61716 0.25887 0.0
C292 C 0.68572 0.54696 0.2836 0.0
C293 C 0.76128 0.61008 0.23296 0.0
C294 C 0.48552 0.05858 0.93561 0.0
C295 C 0.47231 0.12231 0.88802 0.0
O296 O 0.47784 0.05257 0.90917 0.0
Zn297 Zn 0.46786 0.06881 0.87319 0.0
O298 O 0.48905 0.07941 0.94601 0.0
Zn299 Zn 0.47933 0.09063 0.91184 0.0
O300 O 0.43962 0.06335 0.90911 0.0
O301 O 0.43282 0.04408 0.86652 0.0
O302 O 0.4796 0.12237 0.91399 0.0
O303 O 0.46761 0.10377 0.87101 0.0
O304 O 0.49196 0.0731 0.84351 0.0
O305 O 0.5094 0.09792 0.8817 0.0
C306 C 0.42439 0.04692 0.89073 0.0
C307 C 0.51157 0.08994 0.85652 0.0
C308 C 0.94 0.42864 0.93466 0.0
C309 C 0.87774 0.35201 0.88482 0.0
O310 O 0.94693 0.42698 0.9087 0.0
Zn311 Zn 0.93191 0.4013 0.87234 0.0
O312 O 0.91868 0.41146 0.94409 0.0
Zn313 Zn 0.90856 0.3905 0.90964 0.0
O314 O 0.93573 0.37777 0.90859 0.0
O315 O 0.95666 0.39096 0.86705 0.0
O316 O 0.8769 0.35904 0.9107 0.0
O317 O 0.89679 0.36601 0.86851 0.0
O318 O 0.92963 0.42223 0.84269 0.0
O319 O 0.90192 0.413 0.87827 0.0
C320 C 0.9528 0.3792 0.89108 0.0
C321 C 0.91156 0.42399 0.85388 0.0
C322 C 0.57232 0.51425 0.9386 0.0
C323 C 0.64915 0.52771 0.89036 0.0
O324 O 0.5737 0.52171 0.91209 0.0
Zn325 Zn 0.59966 0.53139 0.87574 0.0
O326 O 0.58969 0.51075 0.94873 0.0
Zn327 Zn 0.61031 0.52025 0.91429 0.0
O328 O 0.62259 0.55997 0.91116 0.0
O329 O 0.60966 0.56625 0.86861 0.0
O330 O 0.64194 0.52033 0.91631 0.0
O331 O 0.63514 0.53214 0.87337 0.0
O332 O 0.57974 0.50708 0.84634 0.0
O333 O 0.58735 0.48985 0.88451 0.0
C334 C 0.62114 0.57497 0.89265 0.0
C335 C 0.57707 0.48754 0.85939 0.0
C336 C 0.57228 0.82069 0.69054 0.0
C337 C 0.61774 0.90739 0.72678 0.0
O338 O 0.58884 0.84043 0.67749 0.0
Zn339 Zn 0.5947 0.86448 0.70826 0.0
O340 O 0.56505 0.82267 0.7162 0.0
Zn341 Zn 0.57302 0.85217 0.74697 0.0
O342 O 0.54129 0.85192 0.74979 0.0
O343 O 0.56144 0.86795 0.70832 0.0
O344 O 0.60106 0.89211 0.74497 0.0
O345 O 0.6204 0.89913 0.70231 0.0
O346 O 0.61093 0.85351 0.74331 0.0
O347 O 0.58433 0.84162 0.78044 0.0
C348 C 0.54274 0.86239 0.72537 0.0
C349 C 0.60508 0.84533 0.76961 0.0
C350 C 0.09069 0.71128 0.72418 0.0
C351 C 0.17725 0.75712 0.68866 0.0
O352 O 0.09904 0.7247 0.70129 0.0
Zn353 Zn 0.13393 0.73415 0.70651 0.0
O354 O 0.10598 0.70891 0.74133 0.0
Zn355 Zn 0.14611 0.72278 0.74363 0.0
O356 O 0.15607 0.74322 0.77863 0.0
O357 O 0.14422 0.75928 0.74307 0.0
O358 O 0.17565 0.7458 0.71286 0.0
O359 O 0.15751 0.7554 0.67729 0.0
O360 O 0.13348 0.69852 0.70244 0.0
O361 O 0.14683 0.69176 0.74449 0.0
C362 C 0.15226 0.76059 0.7692 0.0
C363 C 0.13868 0.68458 0.71873 0.0
C364 C 0.28679 0.37943 0.72378 0.0
C365 C 0.24133 0.41969 0.68626 0.0
O366 O 0.27513 0.37557 0.6997 0.0
Zn367 Zn 0.26446 0.4 0.70499 0.0
O368 O 0.28801 0.39639 0.74134 0.0
Zn369 Zn 0.27486 0.4233 0.74226 0.0
O370 O 0.25383 0.41295 0.7767 0.0
O371 O 0.23874 0.38471 0.74126 0.0
O372 O 0.25212 0.42952 0.71068 0.0
O373 O 0.24352 0.40181 0.67522 0.0
O374 O 0.29941 0.4354 0.70117 0.0
O375 O 0.30607 0.45525 0.74335 0.0
C376 C 0.23689 0.39153 0.76721 0.0
C377 C 0.31318 0.45455 0.71748 0.0
C378 C 0.48608 0.90956 0.14258 0.0
C379 C 0.57314 0.95133 0.10829 0.0
O380 O 0.50575 0.92682 0.15507 0.0
Zn381 Zn 0.52965 0.93062 0.1254 0.0
O382 O 0.48809 0.90107 0.11766 0.0
Zn383 Zn 0.51799 0.90787 0.08745 0.0
O384 O 0.51707 0.87592 0.08605 0.0
O385 O 0.52997 0.89549 0.12847 0.0
O386 O 0.558 0.93402 0.09066 0.0
O387 O 0.56458 0.95602 0.13127 0.0
O388 O 0.51953 0.9461 0.08916 0.0
O389 O 0.50866 0.91902 0.05269 0.0
C390 C 0.52484 0.87653 0.11192 0.0
C391 C 0.51202 0.93988 0.06274 0.0
C392 C 0.12003 0.6473 0.11663 0.0
C393 C 0.05673 0.5725 0.065 0.0
O394 O 0.12089 0.64033 0.09072 0.0
Zn395 Zn 0.08882 0.60967 0.0912 0.0
O396 O 0.10077 0.63342 0.1328 0.0
Zn397 Zn 0.06522 0.59814 0.12825 0.0
O398 O 0.06704 0.57623 0.15693 0.0
O399 O 0.09481 0.58594 0.12134 0.0
O400 O 0.05002 0.57356 0.09123 0.0
O401 O 0.07808 0.58976 0.0558 0.0
O402 O 0.06321 0.6243 0.09423 0.0
O403 O 0.04026 0.60814 0.13408 0.0
C404 C 0.08491 0.57435 0.14536 0.0
C405 C 0.04569 0.62204 0.11155 0.0
C406 C 0.37733 0.42545 0.10531 0.0
C407 C 0.41982 0.51014 0.1465 0.0
O408 O 0.38909 0.43296 0.1294 0.0
Zn409 Zn 0.39824 0.46765 0.12557 0.0
O410 O 0.37564 0.44135 0.08841 0.0
Zn411 Zn 0.38826 0.48167 0.08909 0.0
O412 O 0.40985 0.49379 0.05516 0.0
O413 O 0.42468 0.47976 0.08987 0.0
O414 O 0.40975 0.5097 0.12178 0.0
O415 O 0.41764 0.48988 0.15683 0.0
O416 O 0.36162 0.46473 0.12803 0.0
O417 O 0.35696 0.48218 0.08801 0.0
C418 C 0.42681 0.48927 0.06434 0.0
C419 C 0.34831 0.471 0.1122 0.0
C420 C 0.05942 0.48679 0.56084 0.0
C421 C 0.12169 0.47181 0.60888 0.0
O422 O 0.05324 0.47916 0.58728 0.0
Zn423 Zn 0.06908 0.4691 0.62359 0.0
O424 O 0.08031 0.49032 0.55067 0.0
Zn425 Zn 0.09124 0.48072 0.5852 0.0
O426 O 0.06348 0.44074 0.58801 0.0
O427 O 0.04357 0.43447 0.63017 0.0
O428 O 0.12327 0.48154 0.58393 0.0
O429 O 0.10266 0.46632 0.62534 0.0
O430 O 0.07417 0.49376 0.65325 0.0
O431 O 0.0982 0.51086 0.61453 0.0
C432 C 0.04663 0.42576 0.60625 0.0
C433 C 0.09053 0.51331 0.63973 0.0
C434 C 0.52368 0.65062 0.60805 0.0
C435 C 0.51074 0.57348 0.56071 0.0
O436 O 0.52833 0.63681 0.62514 0.0
Zn437 Zn 0.52809 0.6016 0.62315 0.0
O438 O 0.51644 0.64329 0.58208 0.0
Zn439 Zn 0.51669 0.61176 0.58432 0.0
O440 O 0.4865 0.58877 0.61427 0.0
O441 O 0.50389 0.58172 0.65271 0.0
O442 O 0.50717 0.59069 0.55015 0.0
O443 O 0.51831 0.57527 0.58722 0.0
O444 O 0.56311 0.612 0.63003 0.0
O445 O 0.55638 0.62424 0.58727 0.0
C446 C 0.48428 0.57868 0.63949 0.0
C447 C 0.57157 0.62315 0.60576 0.0
C448 C 0.42171 0.91326 0.65022 0.0
C449 C 0.37889 0.95505 0.60902 0.0
O450 O 0.41156 0.90358 0.62554 0.0
Zn451 Zn 0.39005 0.90995 0.59289 0.0
O452 O 0.41962 0.93139 0.6606 0.0
Zn453 Zn 0.40003 0.93404 0.62941 0.0
O454 O 0.36357 0.90006 0.63203 0.0
O455 O 0.35884 0.87795 0.59195 0.0
O456 O 0.39065 0.95945 0.63313 0.0
O457 O 0.37729 0.93744 0.5922 0.0
O458 O 0.41167 0.91955 0.559 0.0
O459 O 0.42646 0.94847 0.59371 0.0
C460 C 0.35029 0.88038 0.61627 0.0
C461 C 0.42862 0.94109 0.56819 0.0
C462 C 0.15505 0.39405 0.26989 0.0
C463 C 0.13802 0.45404 0.21911 0.0
O464 O 0.1457 0.3864 0.2444 0.0
Zn465 Zn 0.13356 0.39972 0.2082 0.0
O466 O 0.15946 0.41563 0.27869 0.0
Zn467 Zn 0.14778 0.42489 0.24398 0.0
O468 O 0.10737 0.3983 0.24442 0.0
O469 O 0.09874 0.3737 0.20562 0.0
O470 O 0.14912 0.45703 0.24346 0.0
O471 O 0.1313 0.43388 0.20408 0.0
O472 O 0.15589 0.40161 0.17739 0.0
O473 O 0.17556 0.43032 0.21165 0.0
C474 C 0.09139 0.37978 0.22861 0.0
C475 C 0.1761 0.42004 0.18746 0.0
C476 C 0.60399 0.76062 0.26898 0.0
C477 C 0.54141 0.68124 0.22434 0.0
O478 O 0.60992 0.75821 0.24275 0.0
Zn479 Zn 0.59376 0.73093 0.2077 0.0
O480 O 0.5832 0.74356 0.27978 0.0
Zn481 Zn 0.57188 0.72163 0.24629 0.0
O482 O 0.59968 0.70953 0.24454 0.0
O483 O 0.61925 0.72175 0.20199 0.0
O484 O 0.53991 0.69022 0.24877 0.0
O485 O 0.56028 0.69435 0.20748 0.0
O486 O 0.58832 0.74927 0.17687 0.0
O487 O 0.56449 0.74348 0.21549 0.0
C488 C 0.61637 0.71083 0.22648 0.0
C489 C 0.57192 0.7527 0.18988 0.0
C490 C 0.23934 0.8477 0.27268 0.0
C491 C 0.31532 0.85945 0.22362 0.0
O492 O 0.24054 0.8545 0.24593 0.0
Zn493 Zn 0.26596 0.86334 0.20934 0.0
O494 O 0.25683 0.84453 0.28318 0.0
Zn495 Zn 0.2771 0.8531 0.24838 0.0
O496 O 0.28938 0.89269 0.24404 0.0
O497 O 0.27611 0.89819 0.20132 0.0
O498 O 0.3087 0.85298 0.24994 0.0
O499 O 0.30105 0.86357 0.2067 0.0
O500 O 0.24541 0.83816 0.18093 0.0
O501 O 0.25342 0.82199 0.21983 0.0
C502 C 0.28781 0.90736 0.22516 0.0
C503 C 0.24272 0.81898 0.19487 0.0
H504 H 0.26609 0.16507 0.16131 0.0
H505 H 0.39926 0.16936 0.16987 0.0
H506 H 0.31796 0.18601 0.08877 0.0
H507 H 0.34736 0.14872 0.24233 0.0
H508 H 0.36989 0.17584 0.13985 0.0
H509 H 0.29573 0.15908 0.19135 0.0
C510 C 0.28369 0.16839 0.15167 0.0
C511 C 0.28952 0.17605 0.12245 0.0
C512 C 0.36495 0.16992 0.16234 0.0
C513 C 0.32359 0.16925 0.15677 0.0
C514 C 0.38173 0.16624 0.1795 0.0
C515 C 0.37579 0.15847 0.20868 0.0
C516 C 0.34203 0.16579 0.1744 0.0
C517 C 0.35277 0.15471 0.21995 0.0
C518 C 0.30063 0.16498 0.16885 0.0
C519 C 0.31264 0.18008 0.11118 0.0
N520 N 0.33674 0.15838 0.2028 0.0
N521 N 0.32881 0.17664 0.12835 0.0
H522 H 0.81352 0.13378 0.0883 0.0
H523 H 0.85298 0.19972 0.24544 0.0
H524 H 0.83428 0.10278 0.16088 0.0
H525 H 0.83277 0.23088 0.17255 0.0
H526 H 0.84633 0.16417 0.21484 0.0
H527 H 0.82067 0.16952 0.1188 0.0
C528 C 0.81962 0.13447 0.11066 0.0
C529 C 0.82329 0.11519 0.12204 0.0
C530 C 0.84335 0.17877 0.20552 0.0
C531 C 0.83149 0.15619 0.15716 0.0
C532 C 0.84713 0.19911 0.22299 0.0
C533 C 0.84341 0.21835 0.21157 0.0
C534 C 0.83578 0.1776 0.17635 0.0
C535 C 0.83585 0.21649 0.1823 0.0
C536 C 0.82369 0.15493 0.12808 0.0
C537 C 0.83121 0.11718 0.15117 0.0
N538 N 0.83228 0.19648 0.16572 0.0
N539 N 0.83502 0.1373 0.16773 0.0
H540 H 0.80012 0.65772 0.24543 0.0
H541 H 0.86296 0.67908 0.08702 0.0
H542 H 0.77036 0.60208 0.17639 0.0
H543 H 0.89347 0.73498 0.15574 0.0
H544 H 0.82861 0.651 0.11936 0.0
H545 H 0.83422 0.68641 0.21297 0.0
C546 C 0.80076 0.65149 0.22346 0.0
C547 C 0.78232 0.6274 0.21364 0.0
C548 C 0.84276 0.66942 0.1274 0.0
C549 C 0.82135 0.66027 0.17631 0.0
C550 C 0.86242 0.68552 0.10891 0.0
C551 C 0.8812 0.70946 0.11867 0.0
C552 C 0.84179 0.67722 0.15596 0.0
C553 C 0.87942 0.71671 0.14727 0.0
C554 C 0.82024 0.66793 0.20492 0.0
C555 C 0.78415 0.62043 0.18493 0.0
N556 N 0.86009 0.70062 0.16493 0.0
N557 N 0.8033 0.63678 0.1673 0.0
H558 H 0.189 0.3231 0.41361 0.0
H559 H 0.14896 0.34785 0.25608 0.0
H560 H 0.16635 0.27036 0.34174 0.0
H561 H 0.17216 0.40183 0.32671 0.0
H562 H 0.15567 0.31957 0.28738 0.0
H563 H 0.18313 0.3523 0.38248 0.0
C564 C 0.18276 0.31762 0.3913 0.0
C565 C 0.17814 0.2942 0.38028 0.0
C566 C 0.15935 0.3376 0.29609 0.0
C567 C 0.17145 0.3276 0.34453 0.0
C568 C 0.15553 0.35382 0.27819 0.0
C569 C 0.15996 0.37729 0.28878 0.0
C570 C 0.16765 0.34477 0.32491 0.0
C571 C 0.1685 0.38393 0.31763 0.0
C572 C 0.17944 0.33434 0.37354 0.0
C573 C 0.17012 0.28817 0.3512 0.0
N574 N 0.17203 0.36772 0.33473 0.0
N575 N 0.16704 0.30476 0.33437 0.0
H576 H 0.6498 0.80041 0.25239 0.0
H577 H 0.67923 0.86771 0.40884 0.0
H578 H 0.59865 0.7715 0.32578 0.0
H579 H 0.73029 0.89771 0.33548 0.0
H580 H 0.64953 0.83249 0.37854 0.0
H581 H 0.67935 0.83632 0.28218 0.0
C582 C 0.64472 0.80162 0.27475 0.0
C583 C 0.62168 0.78285 0.28661 0.0
C584 C 0.66721 0.84675 0.36902 0.0
C585 C 0.65555 0.82397 0.32087 0.0
C586 C 0.68424 0.86691 0.38634 0.0
C587 C 0.70735 0.88574 0.37471 0.0
C588 C 0.67326 0.8453 0.33978 0.0
C589 C 0.71272 0.88363 0.34538 0.0
C590 C 0.66165 0.82215 0.29176 0.0
C591 C 0.61618 0.78549 0.31571 0.0
N592 N 0.6958 0.86376 0.32892 0.0
N593 N 0.63301 0.80563 0.33184 0.0
H594 H 0.13344 0.81605 0.41414 0.0
H595 H 0.19939 0.85355 0.25695 0.0
H596 H 0.1033 0.83712 0.34099 0.0
H597 H 0.23018 0.83344 0.33029 0.0
H598 H 0.16418 0.84777 0.2875 0.0
H599 H 0.16917 0.82268 0.38395 0.0
C600 C 0.13435 0.82214 0.39174 0.0
C601 C 0.11529 0.82601 0.38008 0.0
C602 C 0.17862 0.84461 0.29694 0.0
C603 C 0.1562 0.83356 0.34533 0.0
C604 C 0.19876 0.84789 0.27949 0.0
C605 C 0.2178 0.84396 0.29106 0.0
C606 C 0.17744 0.83733 0.32623 0.0
C607 C 0.21594 0.83667 0.32043 0.0
C608 C 0.15478 0.8259 0.3745 0.0
C609 C 0.11753 0.8339 0.35091 0.0
N610 N 0.19611 0.83358 0.337 0.0
N611 N 0.13759 0.83737 0.33454 0.0
H612 H 0.65096 0.85168 0.75305 0.0
H613 H 0.6816 0.81569 0.90989 0.0
H614 H 0.60007 0.82975 0.82665 0.0
H615 H 0.73243 0.83717 0.83626 0.0
H616 H 0.65165 0.82096 0.87975 0.0
H617 H 0.68092 0.84629 0.78306 0.0
C618 C 0.64602 0.84565 0.7755 0.0
C619 C 0.62293 0.84118 0.78734 0.0
C620 C 0.66936 0.82455 0.87017 0.0
C621 C 0.65729 0.83506 0.8219 0.0
C622 C 0.68653 0.8216 0.88739 0.0
C623 C 0.70961 0.82599 0.8756 0.0
C624 C 0.67525 0.83196 0.84088 0.0
C625 C 0.71489 0.83358 0.84629 0.0
C626 C 0.66319 0.84261 0.79265 0.0
C627 C 0.61762 0.83341 0.81659 0.0
N628 N 0.69783 0.8363 0.82994 0.0
N629 N 0.63469 0.83064 0.83287 0.0
H630 H 0.18628 0.86541 0.91254 0.0
H631 H 0.14588 0.80051 0.75507 0.0
H632 H 0.16328 0.89573 0.84132 0.0
H633 H 0.16847 0.76975 0.82622 0.0
H634 H 0.15241 0.83559 0.78632 0.0
H635 H 0.17996 0.83033 0.88131 0.0
C636 C 0.17987 0.8647 0.89033 0.0
C637 C 0.1753 0.88358 0.87954 0.0
C638 C 0.15596 0.8212 0.79513 0.0
C639 C 0.16806 0.84339 0.84362 0.0
C640 C 0.15225 0.80113 0.77728 0.0
C641 C 0.15662 0.78211 0.78803 0.0
C642 C 0.1641 0.82235 0.82402 0.0
C643 C 0.16486 0.78397 0.817 0.0
C644 C 0.17628 0.84464 0.8725 0.0
C645 C 0.16702 0.88162 0.85058 0.0
N646 N 0.16832 0.80374 0.834 0.0
N647 N 0.16369 0.86188 0.83363 0.0
H648 H 0.1319 0.31908 0.91014 0.0
H649 H 0.19738 0.34494 0.75284 0.0
H650 H 0.10158 0.26665 0.83801 0.0
H651 H 0.2272 0.39836 0.8241 0.0
H652 H 0.16232 0.31602 0.7839 0.0
H653 H 0.16714 0.34817 0.87925 0.0
C654 C 0.13265 0.31364 0.88782 0.0
C655 C 0.11371 0.29035 0.87666 0.0
C656 C 0.1765 0.33407 0.79277 0.0
C657 C 0.15406 0.32367 0.84112 0.0
C658 C 0.19656 0.35064 0.77503 0.0
C659 C 0.21531 0.37416 0.78587 0.0
C660 C 0.17511 0.34097 0.82165 0.0
C661 C 0.21318 0.38044 0.81481 0.0
C662 C 0.15279 0.3303 0.87017 0.0
C663 C 0.11572 0.28437 0.84755 0.0
N664 N 0.19346 0.36393 0.83171 0.0
N665 N 0.13552 0.30093 0.83081 0.0
H666 H 0.81117 0.67752 0.58533 0.0
H667 H 0.85172 0.65313 0.74276 0.0
H668 H 0.83527 0.73136 0.65619 0.0
H669 H 0.82903 0.59969 0.67159 0.0
H670 H 0.84548 0.68181 0.71142 0.0
H671 H 0.8175 0.64876 0.61653 0.0
C672 C 0.81784 0.68334 0.60745 0.0
C673 C 0.82269 0.70693 0.61815 0.0
C674 C 0.84184 0.66381 0.70263 0.0
C675 C 0.82992 0.67396 0.65406 0.0
C676 C 0.84538 0.64737 0.72054 0.0
C677 C 0.84089 0.62392 0.70981 0.0
C678 C 0.83375 0.65683 0.6737 0.0
C679 C 0.83271 0.61756 0.68081 0.0
C680 C 0.82144 0.66687 0.62526 0.0
C681 C 0.8313 0.71339 0.64699 0.0
N682 N 0.82941 0.63393 0.66376 0.0
N683 N 0.83461 0.69699 0.66394 0.0
H684 H 0.34518 0.19893 0.74753 0.0
H685 H 0.31807 0.13358 0.58991 0.0
H686 H 0.397 0.2299 0.67496 0.0
H687 H 0.26642 0.10287 0.66267 0.0
H688 H 0.34719 0.169 0.62062 0.0
H689 H 0.31622 0.16357 0.71675 0.0
C690 C 0.35051 0.1983 0.72512 0.0
C691 C 0.37359 0.21746 0.71383 0.0
C692 C 0.32948 0.15453 0.62987 0.0
C693 C 0.34039 0.17693 0.67838 0.0
C694 C 0.31281 0.13428 0.61233 0.0
C695 C 0.28972 0.11518 0.62371 0.0
C696 C 0.32308 0.15574 0.65904 0.0
C697 C 0.28398 0.11714 0.65294 0.0
C698 C 0.33392 0.17807 0.70754 0.0
C699 C 0.37943 0.21558 0.68461 0.0
N700 N 0.30054 0.13703 0.66958 0.0
N701 N 0.36293 0.19569 0.6679 0.0
H702 H 0.89736 0.16481 0.66116 0.0
H703 H 0.76839 0.16882 0.671 0.0
H704 H 0.86576 0.18533 0.58899 0.0
H705 H 0.79985 0.14796 0.743 0.0
H706 H 0.804 0.17511 0.64063 0.0
H707 H 0.86173 0.15849 0.69148 0.0
C708 C 0.88292 0.16795 0.65166 0.0
C709 C 0.88458 0.17562 0.62246 0.0
C710 C 0.80311 0.16917 0.66308 0.0
C711 C 0.84373 0.16846 0.6571 0.0
C712 C 0.78279 0.1656 0.68045 0.0
C713 C 0.78111 0.15784 0.70961 0.0
C714 C 0.82192 0.16497 0.67493 0.0
C715 C 0.80034 0.15394 0.72065 0.0
C716 C 0.86258 0.16435 0.669 0.0
C717 C 0.86529 0.17941 0.61137 0.0
N718 N 0.81991 0.15753 0.70331 0.0
N719 N 0.8457 0.17581 0.62869 0.0
H720 H 0.93164 0.4961 0.49457 0.0
H721 H 0.06567 0.50236 0.50372 0.0
H722 H 0.98409 0.51819 0.42249 0.0
H723 H 0.01328 0.48052 0.57583 0.0
H724 H 0.036 0.50822 0.47355 0.0
H725 H 0.9612 0.48998 0.5246 0.0
C726 C 0.94933 0.49961 0.48502 0.0
C727 C 0.95538 0.50768 0.45596 0.0
C728 C 0.03101 0.50216 0.49599 0.0
C729 C 0.98936 0.50078 0.49025 0.0
C730 C 0.04796 0.49884 0.51323 0.0
C731 C 0.04197 0.49094 0.54236 0.0
C732 C 0.00788 0.49755 0.50792 0.0
C733 C 0.01872 0.48664 0.55349 0.0
C734 C 0.96623 0.49614 0.5022 0.0
C735 C 0.97861 0.51195 0.44478 0.0
N736 N 0.00254 0.48998 0.53627 0.0
N737 N 0.99475 0.50847 0.46195 0.0
H738 H 0.50222 0.43585 0.49628 0.0
H739 H 0.49549 0.56361 0.50353 0.0
H740 H 0.48113 0.46619 0.42333 0.0
H741 H 0.51701 0.5337 0.57652 0.0
H742 H 0.4899 0.52786 0.47389 0.0
H743 H 0.50774 0.47152 0.5261 0.0
C744 C 0.49879 0.45001 0.48651 0.0
C745 C 0.4912 0.44799 0.45724 0.0
C746 C 0.49582 0.52911 0.4964 0.0
C747 C 0.49742 0.48886 0.49128 0.0
C748 C 0.49899 0.54951 0.51335 0.0
C749 C 0.50674 0.55169 0.54257 0.0
C750 C 0.50043 0.5107 0.50872 0.0
C751 C 0.51101 0.53283 0.5541 0.0
C752 C 0.50192 0.47037 0.50356 0.0
C753 C 0.48701 0.46693 0.44578 0.0
N754 N 0.50782 0.51316 0.53715 0.0
N755 N 0.49016 0.48652 0.46281 0.0
H756 H 0.53244 0.01154 0.42403 0.0
H757 H 0.46837 0.98777 0.58198 0.0
H758 H 0.56357 0.06513 0.49501 0.0
H759 H 0.43847 0.93327 0.51179 0.0
H760 H 0.50341 0.01623 0.55053 0.0
H761 H 0.49788 0.98273 0.45581 0.0
C762 C 0.53202 0.0173 0.4463 0.0
C763 C 0.55098 0.04085 0.45685 0.0
C764 C 0.48923 0.99803 0.542 0.0
C765 C 0.51135 0.0078 0.49343 0.0
C766 C 0.46919 0.98172 0.55997 0.0
C767 C 0.45038 0.95806 0.54951 0.0
C768 C 0.49053 0.99071 0.51329 0.0
C769 C 0.45251 0.95131 0.52079 0.0
C770 C 0.51226 0.00078 0.46446 0.0
C771 C 0.54939 0.0472 0.48593 0.0
N772 N 0.47218 0.96757 0.50367 0.0
N773 N 0.52992 0.03077 0.50319 0.0
H774 H 0.47958 0.01257 0.92017 0.0
H775 H 0.51765 0.98576 0.07783 0.0
H776 H 0.50088 0.06448 0.99275 0.0
H777 H 0.49687 0.93376 0.00539 0.0
H778 H 0.51139 0.01467 0.04694 0.0
H779 H 0.48581 0.98347 0.95092 0.0
C780 C 0.48562 0.01789 0.94257 0.0
C781 C 0.48971 0.04104 0.95389 0.0
C782 C 0.50818 0.99694 0.03777 0.0
C783 C 0.49682 0.00772 0.98925 0.0
C784 C 0.51172 0.98037 0.05542 0.0
C785 C 0.50778 0.95726 0.04419 0.0
C786 C 0.50062 0.99042 0.00862 0.0
C787 C 0.50012 0.95136 0.01498 0.0
C788 C 0.48915 0.00124 0.96012 0.0
C789 C 0.4975 0.04687 0.98308 0.0
N790 N 0.49681 0.96785 0.99819 0.0
N791 N 0.50078 0.03032 0.99974 0.0
H792 H 0.98662 0.46844 0.92079 0.0
H793 H 0.00988 0.53299 0.0784 0.0
H794 H 0.9325 0.43816 0.9913 0.0
H795 H 0.064 0.56366 0.00793 0.0
H796 H 0.98132 0.49826 0.04671 0.0
H797 H 0.01505 0.50356 0.95219 0.0
C798 C 0.98067 0.46917 0.94288 0.0
C799 C 0.9571 0.45027 0.95342 0.0
C800 C -0.00057 0.51257 0.03814 0.0
C801 C 0.98969 0.49052 0.98955 0.0
C802 C 0.0158 0.53244 0.05625 0.0
C803 C 0.03943 0.55131 0.04583 0.0
C804 C 0.00667 0.51147 0.00934 0.0
C805 C 0.046 0.54955 0.0169 0.0
C806 C 0.99695 0.48926 0.9608 0.0
C807 C 0.95046 0.45228 0.98223 0.0
N808 N 0.0297 0.52997 0.99967 0.0
N809 N 0.96669 0.47203 0.99929 0.0
H810 H 0.56309 0.49841 0.99557 0.0
H811 H 0.43676 0.50715 0.00801 0.0
H812 H 0.53278 0.52142 0.92437 0.0
H813 H 0.46639 0.48219 0.078 0.0
H814 H 0.47222 0.51342 0.97725 0.0
H815 H 0.52802 0.49298 0.02627 0.0
C816 C 0.54904 0.50228 0.98635 0.0
C817 C 0.5509 0.51037 0.95732 0.0
C818 C 0.47096 0.50661 0.99937 0.0
C819 C 0.51067 0.50425 0.99242 0.0
C820 C 0.45074 0.50307 0.01695 0.0
C821 C 0.44855 0.4941 0.04563 0.0
C822 C 0.48914 0.50115 0.01053 0.0
C823 C 0.46725 0.48911 0.05603 0.0
C824 C 0.52902 0.4992 0.00392 0.0
C825 C 0.53212 0.51512 0.94661 0.0
N826 N 0.4867 0.49267 0.0385 0.0
N827 N 0.51282 0.51201 0.96416 0.0
H828 H 0.19512 0.99562 0.00518 0.0
H829 H 0.2451 0.14027 0.96905 0.0
H830 H 0.19851 0.02202 0.91697 0.0
H831 H 0.21397 0.10709 0.05299 0.0
H832 H 0.2308 0.09781 0.94957 0.0
H833 H 0.2046 0.0371 0.02338 0.0
C834 C 0.19774 0.01012 0.98964 0.0
C835 C 0.19609 0.0054 0.95951 0.0
C836 C 0.22695 0.09986 0.97218 0.0
C837 C 0.20724 0.05299 0.9802 0.0
C838 C 0.23519 0.12406 0.98334 0.0
C839 C 0.23079 0.12722 0.01272 0.0
C840 C 0.21463 0.07875 0.99066 0.0
C841 C 0.21776 0.10555 0.03021 0.0
C842 C 0.20307 0.03376 5e-05 0.0
C843 C 0.19955 0.02485 0.94037 0.0
N844 N 0.21036 0.08227 0.01899 0.0
N845 N 0.20525 0.04792 0.95103 0.0
H846 H 0.00141 0.19616 -0.0001 0.0
H847 H 0.8551 0.107 0.96772 0.0
H848 H 0.9727 0.17678 0.91195 0.0
H849 H 0.89013 0.10548 0.04898 0.0
H850 H 0.89724 0.1343 0.94686 0.0
H851 H 0.95998 0.16469 0.01852 0.0
C852 C 0.98638 0.18516 0.98449 0.0
C853 C 0.99045 0.18911 0.95434 0.0
C854 C 0.89563 0.12778 0.96917 0.0
C855 C 0.94286 0.15326 0.97554 0.0
C856 C 0.87162 0.11232 0.98113 0.0
C857 C 0.86909 0.10404 0.01019 0.0
C858 C 0.91718 0.13532 0.98656 0.0
C859 C 0.89115 0.11141 0.02651 0.0
C860 C 0.96276 0.16715 0.99513 0.0
C861 C 0.97035 0.17425 0.93536 0.0
N862 N 0.91423 0.1268 0.01456 0.0
N863 N 0.94727 0.15713 0.94629 0.0
H864 H 0.91598 0.79997 0.01375 0.0
H865 H 0.77951 0.76142 0.96564 0.0
H866 H 0.86558 0.72381 0.98395 0.0
H867 H 0.84102 0.83083 0.93126 0.0
H868 H 0.80991 0.74855 0.98076 0.0
H869 H 0.88817 0.81352 0.99111 0.0
C870 C 0.89917 0.78618 0.00225 0.0
C871 C 0.89297 0.76075 0.00066 0.0
C872 C 0.81669 0.76653 0.96978 0.0
C873 C 0.86109 0.77595 0.97559 0.0
C874 C 0.79946 0.77395 0.96135 0.0
C875 C 0.80789 0.79721 0.94728 0.0
C876 C 0.84257 0.78284 0.96492 0.0
C877 C 0.83387 0.81272 0.942 0.0
C878 C 0.88347 0.79394 0.9893 0.0
C879 C 0.87104 0.74361 0.98552 0.0
N880 N 0.85045 0.80543 0.95129 0.0
N881 N 0.85559 0.75142 0.97401 0.0
H882 H 0.99755 0.19589 0.49856 0.0
H883 H 0.14306 0.25047 0.53382 0.0
H884 H 0.02476 0.20246 0.58689 0.0
H885 H 0.10945 0.21717 0.45075 0.0
H886 H 0.10062 0.23558 0.55372 0.0
H887 H 0.0392 0.20618 0.48044 0.0
C888 C 0.01228 0.19939 0.51416 0.0
C889 C 0.00772 0.19838 0.54428 0.0
C890 C 0.1026 0.23141 0.53121 0.0
C891 C 0.05556 0.21046 0.52366 0.0
C892 C 0.12678 0.23997 0.5198 0.0
C893 C 0.1298 0.23514 0.49054 0.0
C894 C 0.08137 0.21829 0.51308 0.0
C895 C 0.10804 0.22134 0.47342 0.0
C896 C 0.03603 0.20518 0.50379 0.0
C897 C 0.02748 0.20296 0.56349 0.0
N898 N 0.08479 0.21361 0.48486 0.0
N899 N 0.05067 0.20909 0.55285 0.0
H900 H 0.79873 0.8219 0.5828 0.0
H901 H 0.7827 0.89115 0.44341 0.0
H902 H 0.80013 0.79854 0.49418 0.0
H903 H 0.75153 0.8922 0.52768 0.0
H904 H 0.79662 0.86297 0.46319 0.0
H905 H 0.78876 0.85362 0.56422 0.0
C906 C 0.79719 0.82361 0.55945 0.0
C907 C 0.80015 0.8075 0.53999 0.0
C908 C 0.7868 0.86944 0.47736 0.0
C909 C 0.78895 0.84372 0.51871 0.0
C910 C 0.77892 0.8856 0.46614 0.0
C911 C 0.76581 0.89394 0.48389 0.0
C912 C 0.78185 0.86181 0.50666 0.0
C913 C 0.76143 0.88607 0.51318 0.0
C914 C 0.79137 0.84159 0.54891 0.0
C915 C 0.79783 0.81045 0.50996 0.0
N916 N 0.76948 0.87046 0.52369 0.0
N917 N 0.79243 0.82823 0.50024 0.0
H918 H 0.1747 0.97507 0.59059 0.0
H919 H 0.10292 0.89151 0.45079 0.0
H920 H 0.19467 0.00118 0.50178 0.0
H921 H 0.10366 0.85789 0.53346 0.0
H922 H 0.13051 0.93333 0.47147 0.0
H923 H 0.14265 0.93338 0.57202 0.0
C924 C 0.17217 0.97211 0.56723 0.0
C925 C 0.18743 0.99155 0.54767 0.0
C926 C 0.12455 0.91681 0.48512 0.0
C927 C 0.15087 0.94419 0.52643 0.0
C928 C 0.10871 0.8929 0.47339 0.0
C929 C 0.10108 0.87111 0.49037 0.0
C930 C 0.13268 0.91907 0.51418 0.0
C931 C 0.10923 0.87417 0.51954 0.0
C932 C 0.15401 0.94833 0.55669 0.0
C933 C 0.18346 0.98668 0.51763 0.0
N934 N 0.12463 0.89774 0.53055 0.0
N935 N 0.16555 0.96352 0.50795 0.0
H936 H 0.78653 0.89313 0.94533 0.0
H937 H 0.80031 0.9762 0.08629 0.0
H938 H 0.7554 0.85944 0.02908 0.0
H939 H 0.80216 0.00174 0.99798 0.0
H940 H 0.7913 0.93492 0.06712 0.0
H941 H 0.80009 0.93486 0.96604 0.0
C942 C 0.78273 0.89451 0.96816 0.0
C943 C 0.76967 0.87273 0.98547 0.0
C944 C 0.7938 0.94965 0.05202 0.0
C945 C 0.78525 0.92051 0.00929 0.0
C946 C 0.79906 0.9732 0.06289 0.0
C947 C 0.80187 0.99236 0.04368 0.0
C948 C 0.79179 0.94545 0.02175 0.0
C949 C 0.79995 0.98745 0.01358 0.0
C950 C 0.79039 0.91834 0.97991 0.0
C951 C 0.76526 0.87572 0.01491 0.0
N952 N 0.79509 0.9645 0.00354 0.0
N953 N 0.77305 0.8992 0.02593 0.0
H954 H 0.11259 0.91507 0.97681 0.0
H955 H 0.01343 0.77635 0.02043 0.0
H956 H 0.13758 0.86454 0.00805 0.0
H957 H 0.00442 0.83723 0.05466 0.0
H958 H 0.0566 0.80739 0.00521 0.0
H959 H 0.06997 0.88576 0.99569 0.0
C960 C 0.1091 0.89788 0.98777 0.0
C961 C 0.12853 0.89216 0.99103 0.0
C962 C 0.04509 0.81386 0.01603 0.0
C963 C 0.08009 0.85857 0.01168 0.0
C964 C 0.0205 0.79628 0.02449 0.0
C965 C 0.00547 0.80436 0.03875 0.0
C966 C 0.05436 0.83969 0.02109 0.0
C967 C 0.01554 0.83034 0.04379 0.0
C968 C 0.08492 0.88131 0.99854 0.0
C969 C 0.12312 0.86968 0.00533 0.0
N970 N 0.03935 0.84722 0.03461 0.0
N971 N 0.09925 0.85345 0.01474 0.0
H972 H 0.1038 0.21278 0.94738 0.0
H973 H 0.17413 0.19989 0.08786 0.0
H974 H 0.10458 0.24695 0.03023 0.0
H975 H 0.19454 0.19357 0.99931 0.0
H976 H 0.14239 0.20968 0.06888 0.0
H977 H 0.13094 0.19803 0.96815 0.0
C978 C 0.10953 0.21704 0.97001 0.0
C979 C 0.10205 0.23129 0.98704 0.0
C980 C 0.15376 0.206 0.05369 0.0
C981 C 0.13303 0.21431 0.01096 0.0
C982 C 0.17174 0.20029 0.06447 0.0
C983 C 0.18707 0.19606 0.04511 0.0
C984 C 0.15087 0.20705 0.02339 0.0
C985 C 0.18327 0.19691 0.01501 0.0
C986 C 0.12509 0.20868 0.98181 0.0
C987 C 0.11007 0.2362 0.01626 0.0
N988 N 0.16555 0.20228 0.00508 0.0
N989 N 0.12515 0.22772 0.02732 0.0
H990 H 0.88322 0.80064 0.51895 0.0
H991 H 0.98014 0.76068 0.47074 0.0
H992 H 0.85652 0.72515 0.48617 0.0
H993 H 0.98936 0.83062 0.43643 0.0
H994 H 0.93707 0.7486 0.48607 0.0
H995 H 0.92502 0.8139 0.49755 0.0
C996 C 0.88615 0.78694 0.50712 0.0
C997 C 0.8665 0.76179 0.50424 0.0
C998 C 0.94855 0.76654 0.4751 0.0
C999 C 0.914 0.7766 0.48061 0.0
C1000 C 0.97306 0.7735 0.46654 0.0
C1001 C 0.98816 0.79665 0.45235 0.0
C1002 C 0.93942 0.7832 0.47027 0.0
C1003 C 0.97815 0.81256 0.44722 0.0
C1004 C 0.90985 0.79453 0.49488 0.0
C1005 C 0.87117 0.74474 0.4887 0.0
N1006 N 0.95441 0.80572 0.45661 0.0
N1007 N 0.89461 0.75235 0.47789 0.0
H1008 H 0.20068 0.17782 0.41407 0.0
H1009 H 0.21268 0.10631 0.554 0.0
H1010 H 0.19593 0.19894 0.5028 0.0
H1011 H 0.24548 0.10593 0.47061 0.0
H1012 H 0.1988 0.13431 0.53361 0.0
H1013 H 0.20967 0.14542 0.43277 0.0
C1014 C 0.20128 0.17547 0.43745 0.0
C1015 C 0.1977 0.19117 0.45693 0.0
C1016 C 0.20895 0.12801 0.51975 0.0
C1017 C 0.20776 0.1542 0.47833 0.0
C1018 C 0.21681 0.11195 0.53133 0.0
C1019 C 0.23042 0.1039 0.51403 0.0
C1020 C 0.21447 0.13587 0.49056 0.0
C1021 C 0.23521 0.11184 0.48478 0.0
C1022 C 0.20652 0.15711 0.44806 0.0
C1023 C 0.19877 0.18739 0.487 0.0
N1024 N 0.22723 0.12742 0.47394 0.0
N1025 N 0.20367 0.16928 0.49677 0.0
H1026 H 0.82448 0.02392 0.41125 0.0
H1027 H 0.89294 0.10758 0.55228 0.0
H1028 H 0.802 0.99739 0.49953 0.0
H1029 H 0.89376 0.14064 0.46867 0.0
H1030 H 0.86563 0.06553 0.53163 0.0
H1031 H 0.85609 0.06542 0.43056 0.0
C1032 C 0.82638 0.02673 0.43466 0.0
C1033 C 0.81052 0.00724 0.45383 0.0
C1034 C 0.87188 0.082 0.51779 0.0
C1035 C 0.84659 0.05445 0.47594 0.0
C1036 C 0.88753 0.106 0.52951 0.0
C1037 C 0.89552 0.12767 0.51221 0.0
C1038 C 0.86438 0.07958 0.48845 0.0
C1039 C 0.88788 0.12445 0.48285 0.0
C1040 C 0.84429 0.05042 0.44563 0.0
C1041 C 0.81371 0.01194 0.48397 0.0
N1042 N 0.87274 0.10083 0.47186 0.0
N1043 N 0.83139 0.03505 0.49409 0.0
H1044 H 0.87919 0.4413 0.38566 0.0
H1045 H 0.86568 0.35677 0.24629 0.0
H1046 H 0.91215 0.47424 0.30222 0.0
H1047 H 0.86158 0.33141 0.33513 0.0
H1048 H 0.87543 0.39848 0.26474 0.0
H1049 H 0.86514 0.39933 0.36549 0.0
C1050 C 0.88332 0.43972 0.36301 0.0
C1051 C 0.89701 0.46136 0.34564 0.0
C1052 C 0.87227 0.3837 0.28012 0.0
C1053 C 0.88084 0.41325 0.32242 0.0
C1054 C 0.86657 0.35989 0.26965 0.0
C1055 C 0.86291 0.34065 0.28923 0.0
C1056 C 0.87388 0.38808 0.31034 0.0
C1057 C 0.86442 0.34575 0.31926 0.0
C1058 C 0.87537 0.41574 0.35157 0.0
C1059 C 0.9018 0.45808 0.31643 0.0
N1060 N 0.86973 0.36894 0.32889 0.0
N1061 N 0.89371 0.43444 0.3057 0.0
H1062 H 0.52679 0.43925 0.30387 0.0
H1063 H 0.67072 0.53592 0.34042 0.0
H1064 H 0.55981 0.44199 0.38808 0.0
H1065 H 0.64513 0.51149 0.25228 0.0
H1066 H 0.62934 0.50365 0.35857 0.0
H1067 H 0.5692 0.4678 0.28454 0.0
C1068 C 0.54295 0.44577 0.31825 0.0
C1069 C 0.53976 0.43829 0.34765 0.0
C1070 C 0.63284 0.50522 0.33527 0.0
C1071 C 0.58817 0.47107 0.32578 0.0
C1072 C 0.65642 0.52368 0.32489 0.0
C1073 C 0.66134 0.52641 0.29479 0.0
C1074 C 0.61387 0.48966 0.3154 0.0
C1075 C 0.64214 0.50996 0.27567 0.0
C1076 C 0.56712 0.46196 0.30718 0.0
C1077 C 0.56138 0.44723 0.36527 0.0
N1078 N 0.61912 0.49244 0.28628 0.0
N1079 N 0.58463 0.46335 0.35414 0.0
H1080 H 0.55806 0.11676 0.38429 0.0
H1081 H 0.48847 0.13014 0.24348 0.0
H1082 H 0.55653 0.08152 0.30197 0.0
H1083 H 0.46806 0.13695 0.33186 0.0
H1084 H 0.51948 0.1194 0.26273 0.0
H1085 H 0.53098 0.13149 0.36333 0.0
C1086 C 0.55216 0.11223 0.36174 0.0
C1087 C 0.55945 0.09774 0.3449 0.0
C1088 C 0.50825 0.12338 0.27782 0.0
C1089 C 0.52855 0.11472 0.32075 0.0
C1090 C 0.49069 0.12963 0.26688 0.0
C1091 C 0.47561 0.13432 0.28612 0.0
C1092 C 0.51097 0.12226 0.30814 0.0
C1093 C 0.47917 0.13329 0.31625 0.0
C1094 C 0.53663 0.12059 0.34984 0.0
C1095 C 0.55119 0.09248 0.31579 0.0
N1096 N 0.4965 0.12743 0.32632 0.0
N1097 N 0.53618 0.101 0.30459 0.0
H1098 H 0.69056 0.53607 0.92259 0.0
H1099 H 0.77398 0.54849 0.78259 0.0
H1100 H 0.66413 0.52977 0.83392 0.0
H1101 H 0.80771 0.58386 0.86486 0.0
H1102 H 0.7322 0.5342 0.80335 0.0
H1103 H 0.73236 0.54647 0.90378 0.0
C1104 C 0.69347 0.53661 0.89921 0.0
C1105 C 0.6739 0.53215 0.87976 0.0
C1106 C 0.74874 0.54502 0.81689 0.0
C1107 C 0.72139 0.54383 0.85826 0.0
C1108 C 0.77262 0.55313 0.80511 0.0
C1109 C 0.79442 0.56754 0.82197 0.0
C1110 C 0.74652 0.55107 0.84588 0.0
C1111 C 0.79141 0.57295 0.85103 0.0
C1112 C 0.71732 0.54268 0.88854 0.0
C1113 C 0.67872 0.53324 0.84969 0.0
N1114 N 0.76786 0.56468 0.86211 0.0
N1115 N 0.70194 0.5389 0.83988 0.0
H1116 H 0.41612 0.22595 0.86744 0.0
H1117 H 0.47106 0.13558 0.83159 0.0
H1118 H 0.45058 0.22693 0.78476 0.0
H1119 H 0.464 0.15545 0.92014 0.0
H1120 H 0.4612 0.16734 0.81382 0.0
H1121 H 0.43108 0.19844 0.88723 0.0
C1122 C 0.4269 0.22047 0.85349 0.0
C1123 C 0.43201 0.22865 0.82436 0.0
C1124 C 0.46201 0.16492 0.83715 0.0
C1125 C 0.44895 0.19713 0.84676 0.0
C1126 C 0.46755 0.14674 0.84731 0.0
C1127 C 0.46827 0.14285 0.87738 0.0
C1128 C 0.45668 0.17904 0.85717 0.0
C1129 C 0.4637 0.15793 0.89677 0.0
C1130 C 0.43551 0.20489 0.86484 0.0
C1131 C 0.44618 0.22108 0.80732 0.0
N1132 N 0.45779 0.17521 0.88633 0.0
N1133 N 0.45393 0.20556 0.81869 0.0
H1134 H 0.86647 0.3372 0.82802 0.0
H1135 H 0.77272 0.19227 0.86369 0.0
H1136 H 0.8432 0.31079 0.91618 0.0
H1137 H 0.77412 0.22563 0.78011 0.0
H1138 H 0.80068 0.23475 0.88334 0.0
H1139 H 0.83482 0.29558 0.80978 0.0
C1140 C 0.85461 0.32266 0.84354 0.0
C1141 C 0.85749 0.32743 0.87366 0.0
C1142 C 0.79468 0.23272 0.86077 0.0
C1143 C 0.82145 0.27968 0.85294 0.0
C1144 C 0.77883 0.20851 0.84952 0.0
C1145 C 0.77114 0.2054 0.82019 0.0
C1146 C 0.80323 0.25388 0.84242 0.0
C1147 C 0.77954 0.22712 0.80284 0.0
C1148 C 0.8365 0.29895 0.83311 0.0
C1149 C 0.84154 0.30792 0.89278 0.0
N1150 N 0.79532 0.2504 0.81414 0.0
N1151 N 0.82435 0.28477 0.8821 0.0
H1152 H 0.45327 0.22569 0.27992 0.0
H1153 H 0.46671 0.30811 0.42165 0.0
H1154 H 0.4193 0.19182 0.36265 0.0
H1155 H 0.47319 0.33565 0.33348 0.0
H1156 H 0.45677 0.26664 0.40207 0.0
H1157 H 0.46825 0.26755 0.30118 0.0
C1158 C 0.44911 0.22705 0.30262 0.0
C1159 C 0.43485 0.2052 0.31948 0.0
C1160 C 0.46052 0.28186 0.38709 0.0
C1161 C 0.45208 0.25309 0.34396 0.0
C1162 C 0.46632 0.30551 0.39822 0.0
C1163 C 0.47063 0.32528 0.37914 0.0
C1164 C 0.45946 0.27815 0.35674 0.0
C1165 C 0.46978 0.32088 0.34897 0.0
C1166 C 0.4576 0.25095 0.3147 0.0
C1167 C 0.43006 0.20815 0.3488 0.0
N1168 N 0.46433 0.29781 0.33871 0.0
N1169 N 0.43866 0.23168 0.36014 0.0
H1170 H 0.66221 0.13219 0.32969 0.0
H1171 H 0.80702 0.22659 0.365 0.0
H1172 H 0.68882 0.1563 0.41761 0.0
H1173 H 0.77385 0.22423 0.28101 0.0
H1174 H 0.76459 0.19868 0.38463 0.0
H1175 H 0.70375 0.16374 0.31115 0.0
C1176 C 0.67677 0.14422 0.34509 0.0
C1177 C 0.67208 0.1416 0.37524 0.0
C1178 C 0.76664 0.20445 0.36197 0.0
C1179 C 0.71974 0.17751 0.35417 0.0
C1180 C 0.79083 0.22027 0.35072 0.0
C1181 C 0.79398 0.22769 0.32129 0.0
C1182 C 0.74552 0.19565 0.34354 0.0
C1183 C 0.77231 0.21902 0.30382 0.0
C1184 C 0.70044 0.16226 0.33449 0.0
C1185 C 0.69162 0.15775 0.39419 0.0
N1186 N 0.74903 0.20327 0.31514 0.0
N1187 N 0.71472 0.17486 0.38336 0.0
H1188 H 0.82503 0.50201 0.39846 0.0
H1189 H 0.80062 0.61083 0.34582 0.0
H1190 H 0.88542 0.57121 0.36216 0.0
H1191 H 0.75143 0.53471 0.31502 0.0
H1192 H 0.82894 0.59715 0.3664 0.0
H1193 H 0.79439 0.5144 0.38149 0.0
C1194 C 0.83178 0.51983 0.38711 0.0
C1195 C 0.85764 0.5356 0.38146 0.0
C1196 C 0.81179 0.58348 0.35536 0.0
C1197 C 0.82319 0.55 0.36302 0.0
C1198 C 0.79563 0.59118 0.34377 0.0
C1199 C 0.7738 0.57386 0.32862 0.0
C1200 C 0.80565 0.55816 0.35249 0.0
C1201 C 0.76823 0.54864 0.32638 0.0
C1202 C 0.81439 0.52678 0.37742 0.0
C1203 C 0.86557 0.55847 0.36666 0.0
N1204 N 0.78403 0.54144 0.33838 0.0
N1205 N 0.84842 0.56514 0.35819 0.0
H1206 H 0.52341 0.08442 0.80015 0.0
H1207 H 0.66889 0.1381 0.83428 0.0
H1208 H 0.55749 0.11765 0.88308 0.0
H1209 H 0.64134 0.13206 0.7462 0.0
H1210 H 0.62743 0.12815 0.85276 0.0
H1211 H 0.56571 0.09922 0.77993 0.0
C1212 C 0.53976 0.0949 0.81406 0.0
C1213 C 0.53691 0.09972 0.84339 0.0
C1214 C 0.63049 0.1292 0.82939 0.0
C1215 C 0.5852 0.11646 0.82047 0.0
C1216 C 0.65412 0.1348 0.81882 0.0
C1217 C 0.65853 0.13585 0.78865 0.0
C1218 C 0.61092 0.12415 0.80969 0.0
C1219 C 0.63874 0.13151 0.76962 0.0
C1220 C 0.56387 0.10341 0.80247 0.0
C1221 C 0.55877 0.11349 0.86037 0.0
N1222 N 0.61566 0.12556 0.78046 0.0
N1223 N 0.58195 0.12115 0.84874 0.0
H1224 H 0.86375 0.41711 0.8541 0.0
H1225 H 0.90288 0.55455 0.80715 0.0
H1226 H 0.93933 0.46717 0.82253 0.0
H1227 H 0.83355 0.49339 0.77214 0.0
H1228 H 0.91504 0.52376 0.82307 0.0
H1229 H 0.85027 0.4457 0.83336 0.0
C1230 C 0.87742 0.43403 0.84268 0.0
C1231 C 0.90266 0.43986 0.83991 0.0
C1232 C 0.89719 0.51715 0.81189 0.0
C1233 C 0.88759 0.47261 0.81709 0.0
C1234 C 0.89017 0.5346 0.80302 0.0
C1235 C 0.86719 0.52637 0.7884 0.0
C1236 C 0.88077 0.4913 0.8069 0.0
C1237 C 0.85146 0.50037 0.7833 0.0
C1238 C 0.86971 0.45018 0.83083 0.0
C1239 C 0.91968 0.46196 0.82494 0.0
N1240 N 0.85838 0.4836 0.79293 0.0
N1241 N 0.91194 0.47781 0.81449 0.0
H1242 H 0.55975 0.4756 0.80308 0.0
H1243 H 0.46682 0.33027 0.8376 0.0
H1244 H 0.5586 0.44161 0.88613 0.0
H1245 H 0.48847 0.35763 0.74945 0.0
H1246 H 0.49868 0.37168 0.85599 0.0
H1247 H 0.53196 0.43327 0.78299 0.0
C1248 C 0.55374 0.45925 0.81705 0.0
C1249 C 0.56142 0.46214 0.84637 0.0
C1250 C 0.49662 0.36859 0.83262 0.0
C1251 C 0.52954 0.41381 0.8236 0.0
C1252 C 0.47838 0.34498 0.8221 0.0
C1253 C 0.47496 0.34054 0.79195 0.0
C1254 C 0.51129 0.38809 0.81288 0.0
C1255 C 0.49055 0.36026 0.77287 0.0
C1256 C 0.53799 0.43512 0.80553 0.0
C1257 C 0.55317 0.44029 0.86342 0.0
N1258 N 0.50789 0.38331 0.78366 0.0
N1259 N 0.53748 0.41708 0.85187 0.0
H1260 H 0.53156 0.69196 0.57587 0.0
H1261 H 0.54355 0.77474 0.7166 0.0
H1262 H 0.52505 0.66529 0.66446 0.0
H1263 H 0.57792 0.80883 0.63407 0.0
H1264 H 0.52906 0.73302 0.69547 0.0
H1265 H 0.54123 0.73357 0.59481 0.0
C1266 C 0.5319 0.69478 0.59925 0.0
C1267 C 0.52763 0.67521 0.61865 0.0
C1268 C 0.53968 0.74963 0.68195 0.0
C1269 C 0.53846 0.72246 0.6403 0.0
C1270 C 0.5479 0.77348 0.69394 0.0
C1271 C 0.56215 0.79536 0.67713 0.0
C1272 C 0.54548 0.74752 0.65281 0.0
C1273 C 0.56716 0.79246 0.64787 0.0
C1274 C 0.53754 0.71851 0.61001 0.0
C1275 C 0.52842 0.67989 0.64873 0.0
N1276 N 0.55884 0.76895 0.63661 0.0
N1277 N 0.53369 0.70299 0.65862 0.0
H1278 H 0.21851 0.75075 0.6892 0.0
H1279 H 0.31657 0.88923 0.64478 0.0
H1280 H 0.19274 0.80073 0.65817 0.0
H1281 H 0.32574 0.82884 0.6093 0.0
H1282 H 0.27354 0.85798 0.66007 0.0
H1283 H 0.2608 0.77999 0.66933 0.0
C1284 C 0.22175 0.76779 0.67808 0.0
C1285 C 0.2022 0.77339 0.6752 0.0
C1286 C 0.28503 0.85165 0.64893 0.0
C1287 C 0.25026 0.80688 0.65338 0.0
C1288 C 0.30954 0.86936 0.64039 0.0
C1289 C 0.3246 0.8615 0.62581 0.0
C1290 C 0.27585 0.82588 0.64363 0.0
C1291 C 0.31459 0.83557 0.62041 0.0
C1292 C 0.24574 0.78431 0.66673 0.0
C1293 C 0.20729 0.79568 0.66064 0.0
N1294 N 0.29085 0.81853 0.62971 0.0
N1295 N 0.23098 0.81186 0.65069 0.0
H1296 H 0.19878 0.39121 0.65431 0.0
H1297 H 0.17313 0.49889 0.60124 0.0
H1298 H 0.24715 0.46717 0.68606 0.0
H1299 H 0.11314 0.42973 0.63813 0.0
H1300 H 0.20406 0.48707 0.61872 0.0
H1301 H 0.1703 0.40466 0.63372 0.0
C1302 C 0.20357 0.41079 0.65656 0.0
C1303 C 0.22522 0.42813 0.67196 0.0
C1304 C 0.18409 0.47458 0.62282 0.0
C1305 C 0.19316 0.44356 0.64809 0.0
C1306 C 0.16653 0.48121 0.61284 0.0
C1307 C 0.14069 0.46527 0.61848 0.0
C1308 C 0.17548 0.45152 0.63749 0.0
C1309 C 0.13297 0.44259 0.63362 0.0
C1310 C 0.1873 0.41835 0.64497 0.0
C1311 C 0.23051 0.45324 0.67448 0.0
N1312 N 0.15028 0.43622 0.64234 0.0
N1313 N 0.21462 0.46032 0.66246 0.0
H1314 H 0.32849 0.85908 0.16693 0.0
H1315 H 0.47485 0.91641 0.19872 0.0
H1316 H 0.35765 0.86898 0.2547 0.0
H1317 H 0.43986 0.88038 0.11718 0.0
H1318 H 0.43274 0.90139 0.21962 0.0
H1319 H 0.36978 0.86891 0.14807 0.0
C1320 C 0.34357 0.86319 0.18225 0.0
C1321 C 0.33968 0.8633 0.21242 0.0
C1322 C 0.43434 0.89663 0.19724 0.0
C1323 C 0.38712 0.87487 0.19094 0.0
C1324 C 0.45834 0.90528 0.18525 0.0
C1325 C 0.46088 0.89974 0.15611 0.0
C1326 C 0.41279 0.8827 0.17981 0.0
C1327 C 0.43882 0.88513 0.13973 0.0
C1328 C 0.36712 0.86872 0.17147 0.0
C1329 C 0.35986 0.86863 0.23128 0.0
N1330 N 0.41574 0.87733 0.15172 0.0
N1331 N 0.38286 0.87451 0.22021 0.0
H1332 H 0.16544 0.50562 0.2248 0.0
H1333 H 0.05643 0.53059 0.17549 0.0
H1334 H 0.09541 0.44501 0.19047 0.0
H1335 H 0.13237 0.58033 0.14473 0.0
H1336 H 0.07001 0.50158 0.19417 0.0
H1337 H 0.1532 0.53629 0.20765 0.0
C1338 C 0.14751 0.49883 0.21373 0.0
C1339 C 0.13143 0.47287 0.20881 0.0
C1340 C 0.08366 0.51896 0.1835 0.0
C1341 C 0.11718 0.50743 0.19016 0.0
C1342 C 0.07602 0.53554 0.17303 0.0
C1343 C 0.09333 0.55778 0.15851 0.0
C1344 C 0.10892 0.52508 0.18016 0.0
C1345 C 0.11846 0.56326 0.15567 0.0
C1346 C 0.14063 0.51625 0.20395 0.0
C1347 C 0.10841 0.46492 0.19439 0.0
N1348 N 0.12561 0.54707 0.16662 0.0
N1349 N 0.1018 0.48214 0.18586 0.0
H1350 H 0.55031 0.64653 0.19873 0.0
H1351 H 0.41415 0.55187 0.1463 0.0
H1352 H 0.4898 0.65728 0.23023 0.0
H1353 H 0.46103 0.52365 0.18084 0.0
H1354 H 0.44256 0.59324 0.16885 0.0
H1355 H 0.51902 0.60358 0.18318 0.0
C1356 C 0.53039 0.63979 0.20231 0.0
C1357 C 0.52249 0.6553 0.21573 0.0
C1358 C 0.44634 0.57782 0.17168 0.0
C1359 C 0.48684 0.60669 0.19753 0.0
C1360 C 0.4303 0.55436 0.15879 0.0
C1361 C 0.43532 0.53441 0.16177 0.0
C1362 C 0.46789 0.58144 0.18673 0.0
C1363 C 0.45644 0.53853 0.17817 0.0
C1364 C 0.51266 0.61534 0.19362 0.0
C1365 C 0.49653 0.64573 0.22005 0.0
N1366 N 0.47225 0.56176 0.18961 0.0
N1367 N 0.47947 0.62206 0.21051 0.0
H1368 H 0.13337 0.64422 0.75062 0.0
H1369 H 0.11617 0.55854 0.6113 0.0
H1370 H 0.13334 0.66853 0.66214 0.0
H1371 H 0.08624 0.52643 0.696 0.0
H1372 H 0.12986 0.60064 0.63096 0.0
H1373 H 0.12324 0.60248 0.73207 0.0
C1374 C 0.13146 0.64086 0.72729 0.0
C1375 C 0.13412 0.65984 0.70787 0.0
C1376 C 0.12036 0.58438 0.64525 0.0
C1377 C 0.12272 0.61232 0.68662 0.0
C1378 C 0.11263 0.56034 0.63411 0.0
C1379 C 0.09994 0.5389 0.65202 0.0
C1380 C 0.11569 0.58711 0.67463 0.0
C1381 C 0.09583 0.54243 0.68139 0.0
C1382 C 0.12556 0.61702 0.71678 0.0
C1383 C 0.13131 0.65441 0.67788 0.0
N1384 N 0.10374 0.56612 0.69182 0.0
N1385 N 0.12583 0.63117 0.66817 0.0
H1386 H 0.32778 0.46598 0.66066 0.0
H1387 H 0.47222 0.5617 0.69595 0.0
H1388 H 0.35415 0.48962 0.74875 0.0
H1389 H 0.43851 0.5592 0.61227 0.0
H1390 H 0.42992 0.53341 0.71576 0.0
H1391 H 0.36908 0.49816 0.64231 0.0
C1392 C 0.34225 0.47803 0.67614 0.0
C1393 C 0.33756 0.4751 0.70628 0.0
C1394 C 0.43183 0.53925 0.69314 0.0
C1395 C 0.38497 0.51176 0.68542 0.0
C1396 C 0.45593 0.5553 0.68179 0.0
C1397 C 0.4589 0.56275 0.65238 0.0
C1398 C 0.41062 0.53028 0.67482 0.0
C1399 C 0.43713 0.55396 0.63507 0.0
C1400 C 0.36578 0.49645 0.66564 0.0
C1401 C 0.35696 0.49131 0.72534 0.0
N1402 N 0.41395 0.538 0.64646 0.0
N1403 N 0.37995 0.5088 0.7146 0.0
H1404 H 0.55185 0.90582 0.69899 0.0
H1405 H 0.41515 0.86555 0.65068 0.0
H1406 H 0.49126 0.83551 0.73278 0.0
H1407 H 0.46368 0.9411 0.68347 0.0
H1408 H 0.44353 0.85236 0.6726 0.0
H1409 H 0.52078 0.91795 0.68428 0.0
C1410 C 0.53197 0.89294 0.70323 0.0
C1411 C 0.52398 0.86966 0.71705 0.0
C1412 C 0.44768 0.87171 0.67521 0.0
C1413 C 0.48857 0.88316 0.69985 0.0
C1414 C 0.43166 0.87926 0.66268 0.0
C1415 C 0.43716 0.90442 0.66535 0.0
C1416 C 0.46969 0.88968 0.68956 0.0
C1417 C 0.45874 0.9215 0.68109 0.0
C1418 C 0.51436 0.89993 0.69503 0.0
C1419 C 0.49806 0.85367 0.72226 0.0
N1420 N 0.47452 0.91393 0.69216 0.0
N1421 N 0.48111 0.86054 0.71319 0.0
H1422 H 0.21671 0.46797 0.18522 0.0
H1423 H 0.31478 0.42813 0.1405 0.0
H1424 H 0.19095 0.39151 0.15664 0.0
H1425 H 0.32322 0.49736 0.10484 0.0
H1426 H 0.2716 0.41579 0.15562 0.0
H1427 H 0.25849 0.48106 0.16398 0.0
C1428 C 0.21983 0.45402 0.17428 0.0
C1429 C 0.20046 0.42865 0.17258 0.0
C1430 C 0.28294 0.43364 0.14442 0.0
C1431 C 0.24801 0.4433 0.14919 0.0
C1432 C 0.30754 0.44077 0.13601 0.0
C1433 C 0.32247 0.46379 0.12149 0.0
C1434 C 0.27352 0.45 0.13906 0.0
C1435 C 0.31219 0.47942 0.11594 0.0
C1436 C 0.24354 0.46151 0.16215 0.0
C1437 C 0.20538 0.41127 0.15822 0.0
N1438 N 0.28837 0.47241 0.12514 0.0
N1439 N 0.22886 0.41883 0.14751 0.0
H1440 H 0.52765 0.86465 0.16858 0.0
H1441 H 0.57746 0.76986 0.13332 0.0
H1442 H 0.53148 0.84211 0.08026 0.0
H1443 H 0.54481 0.7715 0.21637 0.0
H1444 H 0.56351 0.79815 0.11327 0.0
H1445 H 0.53685 0.8325 0.18664 0.0
C1446 C 0.53033 0.85285 0.15299 0.0
C1447 C 0.52884 0.85606 0.12288 0.0
C1448 C 0.55925 0.79209 0.1358 0.0
C1449 C 0.53965 0.8194 0.1434 0.0
C1450 C 0.56725 0.77604 0.14727 0.0
C1451 C 0.56238 0.76839 0.1766 0.0
C1452 C 0.54668 0.80082 0.15393 0.0
C1453 C 0.54901 0.77689 0.19366 0.0
C1454 C 0.53549 0.83444 0.16331 0.0
C1455 C 0.53238 0.84017 0.10365 0.0
N1456 N 0.54186 0.79284 0.18216 0.0
N1457 N 0.5379 0.82266 0.11424 0.0
H1458 H 0.22306 0.77406 0.22419 0.0
H1459 H 0.15571 0.68742 0.08501 0.0
H1460 H 0.22564 0.80513 0.13875 0.0
H1461 H 0.1305 0.66327 0.17334 0.0
H1462 H 0.18732 0.72908 0.10365 0.0
H1463 H 0.19486 0.73164 0.20494 0.0
C1464 C 0.21785 0.77196 0.20132 0.0
C1465 C 0.22662 0.79319 0.18306 0.0
C1466 C 0.17492 0.71459 0.1189 0.0
C1467 C 0.19451 0.74469 0.16093 0.0
C1468 C 0.15699 0.69079 0.10834 0.0
C1469 C 0.14039 0.67189 0.12767 0.0
C1470 C 0.17651 0.71937 0.14903 0.0
C1471 C 0.14281 0.67735 0.15766 0.0
C1472 C 0.20168 0.74775 0.19041 0.0
C1473 C 0.21918 0.7893 0.15363 0.0
N1474 N 0.16057 0.70058 0.16743 0.0
N1475 N 0.20358 0.7655 0.14344 0.0
H1476 H 0.29127 0.26285 0.1111 0.0
H1477 H 0.35953 0.40406 0.05162 0.0
H1478 H 0.30915 0.28006 0.01979 0.0
H1479 H 0.36696 0.38528 0.14056 0.0
H1480 H 0.33776 0.35891 0.0393 0.0
H1481 H 0.31555 0.30798 0.12224 0.0
C1482 C 0.30032 0.27614 0.09337 0.0
C1483 C 0.29817 0.26771 0.06446 0.0
C1484 C 0.34431 0.36475 0.06145 0.0
C1485 C 0.32584 0.31941 0.07708 0.0
C1486 C 0.35663 0.39046 0.06852 0.0
C1487 C 0.36502 0.39842 0.09718 0.0
C1488 C 0.34 0.3469 0.08329 0.0
C1489 C 0.36086 0.38 0.11819 0.0
C1490 C 0.31427 0.30189 0.09978 0.0
C1491 C 0.31041 0.28578 0.04239 0.0
N1492 N 0.34845 0.35509 0.11088 0.0
N1493 N 0.32358 0.31086 0.04913 0.0
H1494 H 0.60679 0.00144 0.11814 0.0
H1495 H 0.72968 0.99619 0.08315 0.0
H1496 H 0.60112 0.93311 0.08331 0.0
H1497 H 0.72302 0.05882 0.05028 0.0
H1498 H 0.68444 0.97392 0.09525 0.0
H1499 H 0.65203 0.02451 0.10513 0.0
C1500 C 0.61514 0.99132 0.10797 0.0
C1501 C 0.60037 0.96542 0.1017 0.0
C1502 C 0.69297 0.99253 0.08539 0.0
C1503 C 0.65163 0.99134 0.08748 0.0
C1504 C 0.71866 0.00523 0.07858 0.0
C1505 C 0.7299 0.02925 0.06561 0.0
C1506 C 0.67871 0.00432 0.08004 0.0
C1507 C 0.71488 0.0402 0.06005 0.0
C1508 C 0.64075 0.00446 0.10043 0.0
C1509 C 0.61192 0.95312 0.08834 0.0
N1510 N 0.69 0.02775 0.06765 0.0
N1511 N 0.637 0.96613 0.08197 0.0
H1512 H 0.93564 0.66115 0.05235 0.0
H1513 H 0.06472 0.6688 0.08749 0.0
H1514 H 0.99829 0.73099 0.08423 0.0
H1515 H 0.99565 0.6059 0.12054 0.0
H1516 H 0.0415 0.69087 0.07567 0.0
H1517 H 0.95821 0.63893 0.06693 0.0
C1518 C 0.95415 0.67176 0.06233 0.0
C1519 C 0.96518 0.69786 0.06722 0.0
C1520 C 0.03153 0.67226 0.08558 0.0
C1521 C 0.99103 0.67286 0.08318 0.0
C1522 C 0.04466 0.65967 0.0922 0.0
C1523 C 0.032 0.6356 0.10506 0.0
C1524 C 0.00547 0.66032 0.09102 0.0
C1525 C 0.00604 0.62454 0.11082 0.0
C1526 C 0.96687 0.6591 0.07074 0.0
C1527 C 0.98914 0.71081 0.08031 0.0
N1528 N 0.99348 0.63687 0.10338 0.0
N1529 N 0.00147 0.69822 0.08751 0.0
H1530 H 0.28227 0.31468 0.48137 0.0
H1531 H 0.38734 0.36612 0.35579 0.0
H1532 H 0.26484 0.29434 0.39058 0.0
H1533 H 0.40431 0.36215 0.44647 0.0
H1534 H 0.34232 0.34567 0.36824 0.0
H1535 H 0.32735 0.33821 0.46891 0.0
C1536 C 0.28791 0.31528 0.45882 0.0
C1537 C 0.26981 0.30242 0.437 0.0
C1538 C 0.35595 0.34933 0.38537 0.0
C1539 C 0.32118 0.32937 0.42263 0.0
C1540 C 0.38162 0.36106 0.37831 0.0
C1541 C 0.39956 0.36569 0.4001 0.0
C1542 C 0.34826 0.34256 0.41448 0.0
C1543 C 0.39109 0.35873 0.42894 0.0
C1544 C 0.3136 0.32861 0.45176 0.0
C1545 C 0.27817 0.30381 0.40813 0.0
N1546 N 0.36606 0.34757 0.43531 0.0
N1547 N 0.30325 0.31708 0.40177 0.0
H1548 H 0.60514 0.99663 0.38179 0.0
H1549 H 0.73426 0.00388 0.4169 0.0
H1550 H 0.66769 0.0656 0.41561 0.0
H1551 H 0.6652 0.94044 0.44912 0.0
H1552 H 0.71087 0.02571 0.40496 0.0
H1553 H 0.62772 0.97404 0.39504 0.0
C1554 C 0.62367 0.00699 0.39176 0.0
C1555 C 0.63465 0.03293 0.39768 0.0
C1556 C 0.70092 0.00703 0.41468 0.0
C1557 C 0.66044 0.00754 0.41224 0.0
C1558 C 0.71416 0.99459 0.42143 0.0
C1559 C 0.70157 0.97046 0.43413 0.0
C1560 C 0.67481 0.99488 0.41981 0.0
C1561 C 0.67554 0.95917 0.43959 0.0
C1562 C 0.63637 0.99411 0.39947 0.0
C1563 C 0.65859 0.04555 0.41084 0.0
N1564 N 0.66286 0.97137 0.43203 0.0
N1565 N 0.67086 0.03279 0.41738 0.0
H1566 H 0.02947 0.73706 0.38735 0.0
H1567 H 0.95847 0.59597 0.44716 0.0
H1568 H 0.03252 0.7191 0.47788 0.0
H1569 H 0.97985 0.61373 0.35668 0.0
H1570 H 0.98288 0.64106 0.45886 0.0
H1571 H 0.00865 0.69196 0.37557 0.0
C1572 C 0.02581 0.72363 0.40475 0.0
C1573 C 0.03267 0.73183 0.43367 0.0
C1574 C 0.98235 0.63507 0.43648 0.0
C1575 C 0.00868 0.68023 0.42034 0.0
C1576 C 0.96834 0.60936 0.42975 0.0
C1577 C 0.96707 0.6011 0.40087 0.0
C1578 C 0.99485 0.65271 0.41412 0.0
C1579 C 0.98036 0.61928 0.37923 0.0
C1580 C 0.01403 0.69792 0.39797 0.0
C1581 C 0.02759 0.7136 0.45529 0.0
N1582 N 0.99352 0.64428 0.38625 0.0
N1583 N 0.01568 0.68861 0.44823 0.0
H1584 H 0.63634 0.59762 0.94592 0.0
H1585 H 0.70727 0.73796 0.88387 0.0
H1586 H 0.63304 0.61431 0.85498 0.0
H1587 H 0.68633 0.72101 0.97457 0.0
H1588 H 0.68277 0.69275 0.87271 0.0
H1589 H 0.65737 0.64284 0.95683 0.0
C1590 C 0.64002 0.61081 0.92824 0.0
C1591 C 0.63302 0.60221 0.89947 0.0
C1592 C 0.68341 0.69896 0.89501 0.0
C1593 C 0.65721 0.65397 0.91181 0.0
C1594 C 0.69747 0.72473 0.90143 0.0
C1595 C 0.6989 0.73324 0.93023 0.0
C1596 C 0.67103 0.68154 0.91761 0.0
C1597 C 0.6857 0.71527 0.95208 0.0
C1598 C 0.65191 0.63659 0.93452 0.0
C1599 C 0.6381 0.62014 0.87746 0.0
N1600 N 0.6725 0.69022 0.94536 0.0
N1601 N 0.65011 0.64523 0.88405 0.0
H1602 H 0.28037 0.96561 0.97999 0.0
H1603 H 0.38459 0.01953 0.8536 0.0
H1604 H 0.2625 0.97054 0.88991 0.0
H1605 H 0.4024 0.03945 0.94442 0.0
H1606 H 0.33959 0.99552 0.86638 0.0
H1607 H 0.32533 0.98686 0.96706 0.0
C1608 C 0.28589 0.97105 0.9575 0.0
C1609 C 0.2677 0.96643 0.93602 0.0
C1610 C 0.3534 0.00513 0.88347 0.0
C1611 C 0.31894 0.9905 0.9211 0.0
C1612 C 0.37905 0.01874 0.87622 0.0
C1613 C 0.39723 0.0316 0.89796 0.0
C1614 C 0.34596 0.0041 0.9127 0.0
C1615 C 0.389 0.02998 0.92693 0.0
C1616 C 0.31151 0.98324 0.95017 0.0
C1617 C 0.27591 0.97391 0.90721 0.0
N1618 N 0.36398 0.01643 0.93347 0.0
N1619 N 0.30092 0.98552 0.90056 0.0
H1620 H 0.02914 0.29282 0.88645 0.0
H1621 H 0.95757 0.36264 0.94485 0.0
H1622 H 0.03035 0.31225 0.9773 0.0
H1623 H 0.98165 0.36781 0.85524 0.0
H1624 H 0.98109 0.34118 0.95722 0.0
H1625 H 0.00863 0.31724 0.87455 0.0
C1626 C 0.02511 0.30225 0.90391 0.0
C1627 C 0.0314 0.30045 0.93294 0.0
C1628 C 0.98132 0.34715 0.9349 0.0
C1629 C 0.00775 0.32828 0.91945 0.0
C1630 C 0.96783 0.35929 0.92778 0.0
C1631 C 0.9676 0.36695 0.89893 0.0
C1632 C 0.99435 0.34228 0.91295 0.0
C1633 C 0.98134 0.36225 0.87775 0.0
C1634 C 0.0135 0.31627 0.89706 0.0
C1635 C 0.02586 0.31319 0.95463 0.0
N1636 N 0.99399 0.35002 0.88513 0.0
N1637 N 0.01413 0.3264 0.94748 0.0
H1638 H 0.73488 0.70752 0.61038 0.0
H1639 H 0.5934 0.63705 0.55197 0.0
H1640 H 0.71572 0.6836 0.52076 0.0
H1641 H 0.61147 0.63583 0.64285 0.0
H1642 H 0.63835 0.65731 0.54009 0.0
H1643 H 0.68987 0.68444 0.62278 0.0
C1644 C 0.72121 0.69739 0.59331 0.0
C1645 C 0.72904 0.69753 0.56446 0.0
C1646 C 0.63247 0.6525 0.56261 0.0
C1647 C 0.67759 0.6713 0.5785 0.0
C1648 C 0.60683 0.64104 0.56944 0.0
C1649 C 0.5987 0.63481 0.59847 0.0
C1650 C 0.65017 0.65814 0.585 0.0
C1651 C 0.61694 0.64029 0.62019 0.0
C1652 C 0.69556 0.68415 0.60045 0.0
C1653 C 0.71052 0.68396 0.54328 0.0
N1654 N 0.64188 0.65186 0.61304 0.0
N1655 N 0.68563 0.67156 0.55067 0.0
H1656 H 0.29223 0.0308 0.61343 0.0
H1657 H 0.36115 0.95827 0.5552 0.0
H1658 H 0.30987 0.03064 0.52219 0.0
H1659 H 0.36834 0.98493 0.64394 0.0
H1660 H 0.33926 0.98138 0.54251 0.0
H1661 H 0.31688 0.01049 0.625 0.0
C1662 C 0.30131 0.02649 0.59581 0.0
C1663 C 0.29896 0.03236 0.56678 0.0
C1664 C 0.34579 0.98226 0.56469 0.0
C1665 C 0.32707 0.00895 0.5799 0.0
C1666 C 0.35818 0.96902 0.57199 0.0
C1667 C 0.36653 0.96964 0.6007 0.0
C1668 C 0.34136 0.99584 0.58637 0.0
C1669 C 0.36227 0.98396 0.62154 0.0
C1670 C 0.31547 0.01501 0.60247 0.0
C1671 C 0.31126 0.02648 0.54486 0.0
N1672 N 0.34979 0.99631 0.61401 0.0
N1673 N 0.32464 0.01487 0.55184 0.0
H1674 H 0.01826 0.38657 0.64369 0.0
H1675 H 0.96611 0.28005 0.51972 0.0
H1676 H 0.03984 0.40292 0.55308 0.0
H1677 H 0.9697 0.26392 0.6108 0.0
H1678 H 0.98706 0.3253 0.53147 0.0
H1679 H 0.99415 0.34139 0.63177 0.0
C1680 C 0.01781 0.38068 0.62128 0.0
C1681 C 0.03119 0.39851 0.59937 0.0
C1682 C 0.98318 0.3118 0.54884 0.0
C1683 C 0.00355 0.34699 0.5856 0.0
C1684 C 0.97116 0.28601 0.54219 0.0
C1685 C 0.96629 0.26823 0.56429 0.0
C1686 C 0.99001 0.31978 0.57785 0.0
C1687 C 0.97328 0.277 0.59304 0.0
C1688 C 0.00414 0.35492 0.61452 0.0
C1689 C 0.02997 0.3898 0.57069 0.0
N1690 N 0.98473 0.30215 0.599 0.0
N1691 N 0.01634 0.36466 0.56461 0.0
H1692 H 0.93428 0.5997 0.75101 0.0
H1693 H 0.05714 0.72773 0.71426 0.0
H1694 H 0.94063 0.6697 0.78081 0.0
H1695 H 0.06274 0.66538 0.75015 0.0
H1696 H 0.01197 0.70571 0.72743 0.0
H1697 H 0.9796 0.62255 0.73929 0.0
C1698 C 0.94525 0.6199 0.75496 0.0
C1699 C 0.93389 0.63292 0.76692 0.0
C1700 C 0.02321 0.69698 0.73236 0.0
C1701 C 0.98519 0.65902 0.753 0.0
C1702 C 0.04879 0.70937 0.72473 0.0
C1703 C 0.06353 0.69827 0.73119 0.0
C1704 C 0.0123 0.67309 0.74563 0.0
C1705 C 0.05197 0.67456 0.74495 0.0
C1706 C 0.97099 0.63282 0.7484 0.0
C1707 C 0.94884 0.65905 0.77178 0.0
N1708 N 0.02691 0.66256 0.75141 0.0
N1709 N 0.97379 0.67139 0.76444 0.0
H1710 H 0.29798 0.35051 0.68789 0.0
H1711 H 0.3519 0.30098 0.81485 0.0
H1712 H 0.30323 0.37446 0.77758 0.0
H1713 H 0.3716 0.30271 0.72401 0.0
H1714 H 0.32799 0.32208 0.80198 0.0
H1715 H 0.3191 0.32687 0.70131 0.0
C1716 C 0.30348 0.35071 0.71041 0.0
C1717 C 0.29898 0.36458 0.73162 0.0
C1718 C 0.33755 0.31777 0.78493 0.0
C1719 C 0.32292 0.33746 0.74711 0.0
C1720 C 0.35108 0.30566 0.79222 0.0
C1721 C 0.36385 0.30022 0.77048 0.0
C1722 C 0.33649 0.32406 0.75567 0.0
C1723 C 0.3622 0.30674 0.7415 0.0
C1724 C 0.31559 0.3373 0.71802 0.0
C1725 C 0.30652 0.36418 0.76049 0.0
N1726 N 0.34872 0.31825 0.73493 0.0
N1727 N 0.31807 0.35077 0.76743 0.0
H1728 H 0.62495 0.92927 0.78061 0.0
H1729 H 0.6957 0.07027 0.72046 0.0
H1730 H 0.64593 0.94722 0.69006 0.0
H1731 H 0.69893 0.05274 0.81111 0.0
H1732 H 0.67477 0.02516 0.70897 0.0
H1733 H 0.64936 0.97437 0.7924 0.0
C1734 C 0.63474 0.94269 0.76321 0.0
C1735 C 0.63334 0.93449 0.73428 0.0
C1736 C 0.68019 0.03119 0.73134 0.0
C1737 C 0.66111 0.98608 0.74762 0.0
C1738 C 0.69203 0.05692 0.73796 0.0
C1739 C 0.69899 0.06526 0.76682 0.0
C1740 C 0.67488 0.0136 0.7538 0.0
C1741 C 0.69391 0.04713 0.78857 0.0
C1742 C 0.64874 0.9684 0.76999 0.0
C1743 C 0.64652 0.95271 0.71265 0.0
N1744 N 0.68194 0.02209 0.78165 0.0
N1745 N 0.65968 0.97769 0.71973 0.0
H1746 H 0.29944 0.94623 0.18677 0.0
H1747 H 0.35169 0.05334 0.31014 0.0
H1748 H 0.30297 0.9307 0.27806 0.0
H1749 H 0.37284 0.0694 0.21939 0.0
H1750 H 0.32752 0.00813 0.29842 0.0
H1751 H 0.32036 0.99157 0.19814 0.0
C1752 C 0.30449 0.95234 0.20919 0.0
C1753 C 0.29961 0.9347 0.23148 0.0
C1754 C 0.33742 0.0216 0.2811 0.0
C1755 C 0.32325 0.98633 0.24461 0.0
C1756 C 0.35112 0.04738 0.28774 0.0
C1757 C 0.36441 0.06513 0.26574 0.0
C1758 C 0.33673 0.01357 0.25219 0.0
C1759 C 0.36304 0.05634 0.23707 0.0
C1760 C 0.31648 0.97817 0.21563 0.0
C1761 C 0.30656 0.94365 0.26016 0.0
N1762 N 0.34941 0.03117 0.23111 0.0
N1763 N 0.31798 0.96883 0.26591 0.0
H1764 H 0.93575 0.33689 0.25413 0.0
H1765 H 0.05747 0.32939 0.22186 0.0
H1766 H 0.94102 0.27377 0.28805 0.0
H1767 H 0.06438 0.39899 0.25411 0.0
H1768 H 0.01251 0.30705 0.23587 0.0
H1769 H 0.98129 0.35898 0.24366 0.0
C1770 C 0.94654 0.32772 0.25933 0.0
C1771 C 0.9348 0.30358 0.27201 0.0
C1772 C 0.024 0.32719 0.23991 0.0
C1773 C 0.98636 0.32832 0.25949 0.0
C1774 C 0.04947 0.33992 0.23181 0.0
C1775 C 0.0645 0.36599 0.23693 0.0
C1776 C 0.01348 0.34086 0.25226 0.0
C1777 C 0.05338 0.37883 0.24999 0.0
C1778 C 0.97241 0.34033 0.25347 0.0
C1779 C 0.94953 0.29247 0.27844 0.0
N1780 N 0.02838 0.36619 0.25686 0.0
N1781 N 0.97459 0.30481 0.2717 0.0
H1782 H 0.69456 0.62602 0.22322 0.0
H1783 H 0.62378 0.69699 0.2806 0.0
H1784 H 0.69934 0.65014 0.31277 0.0
H1785 H 0.64398 0.69826 0.19003 0.0
H1786 H 0.6482 0.67653 0.29298 0.0
H1787 H 0.67272 0.64911 0.21069 0.0
C1788 C 0.69102 0.63618 0.24025 0.0
C1789 C 0.69872 0.63612 0.26911 0.0
C1790 C 0.6474 0.68142 0.27043 0.0
C1791 C 0.67363 0.6624 0.25493 0.0
C1792 C 0.63339 0.69299 0.26332 0.0
C1793 C 0.63182 0.69928 0.23422 0.0
C1794 C 0.65959 0.67572 0.24823 0.0
C1795 C 0.64475 0.69379 0.21274 0.0
C1796 C 0.67867 0.64944 0.23304 0.0
C1797 C 0.69377 0.64973 0.29025 0.0
N1798 N 0.65794 0.6821 0.22015 0.0
N1799 N 0.68134 0.66216 0.28278 0.0
loop_
_geom_bond_atom_site_label_1
_geom_bond_atom_site_label_2
_geom_bond_distance
_geom_bond_site_symmetry_2
_ccdc_geom_bond_type
C0 O2 1.247 . S
C0 O4 1.258 . S
C1 O8 1.247 . S
C1 O9 1.258 . S
O2 C0 1.247 . S
O2 Zn3 2.028 . S
Zn3 O2 2.028 . S
Zn3 O7 2.035 . S
Zn3 O9 2.035 . S
Zn3 O10 2.028 . S
O4 C0 1.258 . S
O4 Zn5 2.035 . S
Zn5 O4 2.035 . S
Zn5 O6 2.028 . S
Zn5 O8 2.028 . S
Zn5 O11 2.035 . S
O6 Zn5 2.028 . S
O6 C12 1.247 . S
O7 Zn3 2.035 . S
O7 C12 1.258 . S
O8 C1 1.247 . S
O8 Zn5 2.028 . S
O9 C1 1.258 . S
O9 Zn3 2.035 . S
O10 Zn3 2.028 . S
O10 C13 1.247 . S
O11 Zn5 2.035 . S
O11 C13 1.258 . S
C12 O6 1.247 . S
C12 O7 1.258 . S
C13 O10 1.247 . S
C13 O11 1.258 . S
C14 O16 1.247 . S
C14 O18 1.258 . S
C15 O22 1.247 . S
C15 O23 1.258 . S
O16 C14 1.247 . S
O16 Zn17 2.028 . S
Zn17 O16 2.028 . S
Zn17 O21 2.035 . S
Zn17 O23 2.035 . S
Zn17 O24 2.028 . S
O18 C14 1.258 . S
O18 Zn19 2.035 . S
Zn19 O18 2.035 . S
Zn19 O20 2.028 . S
Zn19 O22 2.028 . S
Zn19 O25 2.035 . S
O20 Zn19 2.028 . S
O20 C26 1.247 . S
O21 Zn17 2.035 . S
O21 C26 1.258 . S
O22 C15 1.247 . S
O22 Zn19 2.028 . S
O23 C15 1.258 . S
O23 Zn17 2.035 . S
O24 Zn17 2.028 . S
O24 C27 1.247 . S
O25 Zn19 2.035 . S
O25 C27 1.258 . S
C26 O20 1.247 . S
C26 O21 1.258 . S
C27 O24 1.247 . S
C27 O25 1.258 . S
C28 O30 1.247 . S
C28 O32 1.258 . S
C29 O36 1.247 . S
C29 O37 1.258 . S
O30 C28 1.247 . S
O30 Zn31 2.028 . S
Zn31 O30 2.028 . S
Zn31 O35 2.035 . S
Zn31 O37 2.035 . S
Zn31 O38 2.028 . S
O32 C28 1.258 . S
O32 Zn33 2.035 . S
Zn33 O32 2.035 . S
Zn33 O34 2.028 . S
Zn33 O36 2.028 . S
Zn33 O39 2.035 . S
O34 Zn33 2.028 . S
O34 C40 1.247 . S
O35 Zn31 2.035 . S
O35 C40 1.258 . S
O36 C29 1.247 . S
O36 Zn33 2.028 . S
O37 C29 1.258 . S
O37 Zn31 2.035 . S
O38 Zn31 2.028 . S
O38 C41 1.247 . S
O39 Zn33 2.035 . S
O39 C41 1.258 . S
C40 O34 1.247 . S
C40 O35 1.258 . S
C41 O38 1.247 . S
C41 O39 1.258 . S
C42 O44 1.247 . S
C42 O46 1.258 . S
C43 O50 1.247 . S
C43 O51 1.258 . S
O44 C42 1.247 . S
O44 Zn45 2.028 . S
Zn45 O44 2.028 . S
Zn45 O49 2.035 . S
Zn45 O51 2.035 . S
Zn45 O52 2.028 . S
O46 C42 1.258 . S
O46 Zn47 2.035 . S
Zn47 O46 2.035 . S
Zn47 O48 2.028 . S
Zn47 O50 2.028 . S
Zn47 O53 2.035 . S
O48 Zn47 2.028 . S
O48 C54 1.247 . S
O49 Zn45 2.035 . S
O49 C54 1.258 . S
O50 C43 1.247 . S
O50 Zn47 2.028 . S
O51 C43 1.258 . S
O51 Zn45 2.035 . S
O52 Zn45 2.028 . S
O52 C55 1.247 . S
O53 Zn47 2.035 . S
O53 C55 1.258 . S
C54 O48 1.247 . S
C54 O49 1.258 . S
C55 O52 1.247 . S
C55 O53 1.258 . S
C56 O58 1.247 . S
C56 O60 1.258 . S
C57 O64 1.247 . S
C57 O65 1.258 . S
O58 C56 1.247 . S
O58 Zn59 2.028 . S
Zn59 O58 2.028 . S
Zn59 O63 2.035 . S
Zn59 O65 2.035 . S
Zn59 O66 2.028 . S
O60 C56 1.258 . S
O60 Zn61 2.035 . S
Zn61 O60 2.035 . S
Zn61 O62 2.028 . S
Zn61 O64 2.028 . S
Zn61 O67 2.035 . S
O62 Zn61 2.028 . S
O62 C68 1.247 . S
O63 Zn59 2.035 . S
O63 C68 1.258 . S
O64 C57 1.247 . S
O64 Zn61 2.028 . S
O65 C57 1.258 . S
O65 Zn59 2.035 . S
O66 Zn59 2.028 . S
O66 C69 1.247 . S
O67 Zn61 2.035 . S
O67 C69 1.258 . S
C68 O62 1.247 . S
C68 O63 1.258 . S
C69 O66 1.247 . S
C69 O67 1.258 . S
C70 O72 1.247 . S
C70 O74 1.258 . S
C71 O78 1.247 . S
C71 O79 1.258 . S
O72 C70 1.247 . S
O72 Zn73 2.028 . S
Zn73 O72 2.028 . S
Zn73 O77 2.035 . S
Zn73 O79 2.035 . S
Zn73 O80 2.028 . S
O74 C70 1.258 . S
O74 Zn75 2.035 . S
Zn75 O74 2.035 . S
Zn75 O76 2.028 . S
Zn75 O78 2.028 . S
Zn75 O81 2.035 . S
O76 Zn75 2.028 . S
O76 C82 1.247 . S
O77 Zn73 2.035 . S
O77 C82 1.258 . S
O78 C71 1.247 . S
O78 Zn75 2.028 . S
O79 C71 1.258 . S
O79 Zn73 2.035 . S
O80 Zn73 2.028 . S
O80 C83 1.247 . S
O81 Zn75 2.035 . S
O81 C83 1.258 . S
C82 O76 1.247 . S
C82 O77 1.258 . S
C83 O80 1.247 . S
C83 O81 1.258 . S
C84 O86 1.247 . S
C84 O88 1.258 . S
C85 O92 1.247 . S
C85 O93 1.258 . S
O86 C84 1.247 . S
O86 Zn87 2.028 . S
Zn87 O86 2.028 . S
Zn87 O91 2.035 . S
Zn87 O93 2.035 . S
Zn87 O94 2.028 . S
O88 C84 1.258 . S
O88 Zn89 2.035 . S
Zn89 O88 2.035 . S
Zn89 O90 2.028 . S
Zn89 O92 2.028 . S
Zn89 O95 2.035 . S
O90 Zn89 2.028 . S
O90 C96 1.247 . S
O91 Zn87 2.035 . S
O91 C96 1.258 . S
O92 C85 1.247 . S
O92 Zn89 2.028 . S
O93 C85 1.258 . S
O93 Zn87 2.035 . S
O94 Zn87 2.028 . S
O94 C97 1.247 . S
O95 Zn89 2.035 . S
O95 C97 1.258 . S
C96 O90 1.247 . S
C96 O91 1.258 . S
C97 O94 1.247 . S
C97 O95 1.258 . S
C98 O100 1.247 . S
C98 O102 1.258 . S
C99 O106 1.247 . S
C99 O107 1.258 . S
O100 C98 1.247 . S
O100 Zn101 2.028 . S
Zn101 O100 2.028 . S
Zn101 O105 2.035 . S
Zn101 O107 2.035 . S
Zn101 O108 2.028 . S
O102 C98 1.258 . S
O102 Zn103 2.035 . S
Zn103 O102 2.035 . S
Zn103 O104 2.028 . S
Zn103 O106 2.028 . S
Zn103 O109 2.035 . S
O104 Zn103 2.028 . S
O104 C110 1.247 . S
O105 Zn101 2.035 . S
O105 C110 1.258 . S
O106 C99 1.247 . S
O106 Zn103 2.028 . S
O107 C99 1.258 . S
O107 Zn101 2.035 . S
O108 Zn101 2.028 . S
O108 C111 1.247 . S
O109 Zn103 2.035 . S
O109 C111 1.258 . S
C110 O104 1.247 . S
C110 O105 1.258 . S
C111 O108 1.247 . S
C111 O109 1.258 . S
C112 O114 1.247 . S
C112 O116 1.258 . S
C113 O120 1.247 . S
C113 O121 1.258 . S
O114 C112 1.247 . S
O114 Zn115 2.028 . S
Zn115 O114 2.028 . S
Zn115 O119 2.035 . S
Zn115 O121 2.035 . S
Zn115 O122 2.028 . S
O116 C112 1.258 . S
O116 Zn117 2.035 . S
Zn117 O116 2.035 . S
Zn117 O118 2.028 . S
Zn117 O120 2.028 . S
Zn117 O123 2.035 . S
O118 Zn117 2.028 . S
O118 C124 1.247 . S
O119 Zn115 2.035 . S
O119 C124 1.258 . S
O120 C113 1.247 . S
O120 Zn117 2.028 . S
O121 C113 1.258 . S
O121 Zn115 2.035 . S
O122 Zn115 2.028 . S
O122 C125 1.247 . S
O123 Zn117 2.035 . S
O123 C125 1.258 . S
C124 O118 1.247 . S
C124 O119 1.258 . S
C125 O122 1.247 . S
C125 O123 1.258 . S
C126 O128 1.247 . S
C126 O130 1.258 . S
C127 O134 1.247 . S
C127 O135 1.258 . S
O128 C126 1.247 . S
O128 Zn129 2.028 . S
Zn129 O128 2.028 . S
Zn129 O133 2.035 . S
Zn129 O135 2.035 . S
Zn129 O136 2.028 . S
O130 C126 1.258 . S
O130 Zn131 2.035 . S
Zn131 O130 2.035 . S
Zn131 O132 2.028 . S
Zn131 O134 2.028 . S
Zn131 O137 2.035 . S
O132 Zn131 2.028 . S
O132 C138 1.247 . S
O133 Zn129 2.035 . S
O133 C138 1.258 . S
O134 C127 1.247 . S
O134 Zn131 2.028 . S
O135 C127 1.258 . S
O135 Zn129 2.035 . S
O136 Zn129 2.028 . S
O136 C139 1.247 . S
O137 Zn131 2.035 . S
O137 C139 1.258 . S
C138 O132 1.247 . S
C138 O133 1.258 . S
C139 O136 1.247 . S
C139 O137 1.258 . S
C140 O142 1.247 . S
C140 O144 1.258 . S
C141 O148 1.247 . S
C141 O149 1.258 . S
O142 C140 1.247 . S
O142 Zn143 2.028 . S
Zn143 O142 2.028 . S
Zn143 O147 2.035 . S
Zn143 O149 2.035 . S
Zn143 O150 2.028 . S
O144 C140 1.258 . S
O144 Zn145 2.035 . S
Zn145 O144 2.035 . S
Zn145 O146 2.028 . S
Zn145 O148 2.028 . S
Zn145 O151 2.035 . S
O146 Zn145 2.028 . S
O146 C152 1.247 . S
O147 Zn143 2.035 . S
O147 C152 1.258 . S
O148 C141 1.247 . S
O148 Zn145 2.028 . S
O149 C141 1.258 . S
O149 Zn143 2.035 . S
O150 Zn143 2.028 . S
O150 C153 1.247 . S
O151 Zn145 2.035 . S
O151 C153 1.258 . S
C152 O146 1.247 . S
C152 O147 1.258 . S
C153 O150 1.247 . S
C153 O151 1.258 . S
C154 O156 1.247 . S
C154 O158 1.258 . S
C155 O162 1.247 . S
C155 O163 1.258 . S
O156 C154 1.247 . S
O156 Zn157 2.028 . S
Zn157 O156 2.028 . S
Zn157 O161 2.035 . S
Zn157 O163 2.035 . S
Zn157 O164 2.028 . S
O158 C154 1.258 . S
O158 Zn159 2.035 . S
Zn159 O158 2.035 . S
Zn159 O160 2.028 . S
Zn159 O162 2.028 . S
Zn159 O165 2.035 . S
O160 Zn159 2.028 . S
O160 C166 1.247 . S
O161 Zn157 2.035 . S
O161 C166 1.258 . S
O162 C155 1.247 . S
O162 Zn159 2.028 . S
O163 C155 1.258 . S
O163 Zn157 2.035 . S
O164 Zn157 2.028 . S
O164 C167 1.247 . S
O165 Zn159 2.035 . S
O165 C167 1.258 . S
C166 O160 1.247 . S
C166 O161 1.258 . S
C167 O164 1.247 . S
C167 O165 1.258 . S
C168 O170 1.247 . S
C168 O172 1.258 . S
C169 O176 1.247 . S
C169 O177 1.258 . S
O170 C168 1.247 . S
O170 Zn171 2.028 . S
Zn171 O170 2.028 . S
Zn171 O175 2.035 . S
Zn171 O177 2.035 . S
Zn171 O178 2.028 . S
O172 C168 1.258 . S
O172 Zn173 2.035 . S
Zn173 O172 2.035 . S
Zn173 O174 2.028 . S
Zn173 O176 2.028 . S
Zn173 O179 2.035 . S
O174 Zn173 2.028 . S
O174 C180 1.247 . S
O175 Zn171 2.035 . S
O175 C180 1.258 . S
O176 C169 1.247 . S
O176 Zn173 2.028 . S
O177 C169 1.258 . S
O177 Zn171 2.035 . S
O178 Zn171 2.028 . S
O178 C181 1.247 . S
O179 Zn173 2.035 . S
O179 C181 1.258 . S
C180 O174 1.247 . S
C180 O175 1.258 . S
C181 O178 1.247 . S
C181 O179 1.258 . S
C182 O184 1.247 . S
C182 O186 1.258 . S
C183 O190 1.247 . S
C183 O191 1.258 . S
O184 C182 1.247 . S
O184 Zn185 2.028 . S
Zn185 O184 2.028 . S
Zn185 O189 2.035 . S
Zn185 O191 2.035 . S
Zn185 O192 2.028 . S
O186 C182 1.258 . S
O186 Zn187 2.035 . S
Zn187 O186 2.035 . S
Zn187 O188 2.028 . S
Zn187 O190 2.028 . S
Zn187 O193 2.035 . S
O188 Zn187 2.028 . S
O188 C194 1.247 . S
O189 Zn185 2.035 . S
O189 C194 1.258 . S
O190 C183 1.247 . S
O190 Zn187 2.028 . S
O191 C183 1.258 . S
O191 Zn185 2.035 . S
O192 Zn185 2.028 . S
O192 C195 1.247 . S
O193 Zn187 2.035 . S
O193 C195 1.258 . S
C194 O188 1.247 . S
C194 O189 1.258 . S
C195 O192 1.247 . S
C195 O193 1.258 . S
C196 O198 1.247 . S
C196 O200 1.258 . S
C197 O204 1.247 . S
C197 O205 1.258 . S
O198 C196 1.247 . S
O198 Zn199 2.028 . S
Zn199 O198 2.028 . S
Zn199 O203 2.035 . S
Zn199 O205 2.035 . S
Zn199 O206 2.028 . S
O200 C196 1.258 . S
O200 Zn201 2.035 . S
Zn201 O200 2.035 . S
Zn201 O202 2.028 . S
Zn201 O204 2.028 . S
Zn201 O207 2.035 . S
O202 Zn201 2.028 . S
O202 C208 1.247 . S
O203 Zn199 2.035 . S
O203 C208 1.258 . S
O204 C197 1.247 . S
O204 Zn201 2.028 . S
O205 C197 1.258 . S
O205 Zn199 2.035 . S
O206 Zn199 2.028 . S
O206 C209 1.247 . S
O207 Zn201 2.035 . S
O207 C209 1.258 . S
C208 O202 1.247 . S
C208 O203 1.258 . S
C209 O206 1.247 . S
C209 O207 1.258 . S
C210 O212 1.247 . S
C210 O214 1.258 . S
C211 O218 1.247 . S
C211 O219 1.258 . S
O212 C210 1.247 . S
O212 Zn213 2.028 . S
Zn213 O212 2.028 . S
Zn213 O217 2.035 . S
Zn213 O219 2.035 . S
Zn213 O220 2.028 . S
O214 C210 1.258 . S
O214 Zn215 2.035 . S
Zn215 O214 2.035 . S
Zn215 O216 2.028 . S
Zn215 O218 2.028 . S
Zn215 O221 2.035 . S
O216 Zn215 2.028 . S
O216 C222 1.247 . S
O217 Zn213 2.035 . S
O217 C222 1.258 . S
O218 C211 1.247 . S
O218 Zn215 2.028 . S
O219 C211 1.258 . S
O219 Zn213 2.035 . S
O220 Zn213 2.028 . S
O220 C223 1.247 . S
O221 Zn215 2.035 . S
O221 C223 1.258 . S
C222 O216 1.247 . S
C222 O217 1.258 . S
C223 O220 1.247 . S
C223 O221 1.258 . S
C224 O226 1.247 . S
C224 O228 1.258 . S
C225 O232 1.247 . S
C225 O233 1.258 . S
O226 C224 1.247 . S
O226 Zn227 2.028 . S
Zn227 O226 2.028 . S
Zn227 O231 2.035 . S
Zn227 O233 2.035 . S
Zn227 O234 2.028 . S
O228 C224 1.258 . S
O228 Zn229 2.035 . S
Zn229 O228 2.035 . S
Zn229 O230 2.028 . S
Zn229 O232 2.028 . S
Zn229 O235 2.035 . S
O230 Zn229 2.028 . S
O230 C236 1.247 . S
O231 Zn227 2.035 . S
O231 C236 1.258 . S
O232 C225 1.247 . S
O232 Zn229 2.028 . S
O233 C225 1.258 . S
O233 Zn227 2.035 . S
O234 Zn227 2.028 . S
O234 C237 1.247 . S
O235 Zn229 2.035 . S
O235 C237 1.258 . S
C236 O230 1.247 . S
C236 O231 1.258 . S
C237 O234 1.247 . S
C237 O235 1.258 . S
C238 O240 1.247 . S
C238 O242 1.258 . S
C239 O246 1.247 . S
C239 O247 1.258 . S
O240 C238 1.247 . S
O240 Zn241 2.028 . S
Zn241 O240 2.028 . S
Zn241 O245 2.035 . S
Zn241 O247 2.035 . S
Zn241 O248 2.028 . S
O242 C238 1.258 . S
O242 Zn243 2.035 . S
Zn243 O242 2.035 . S
Zn243 O244 2.028 . S
Zn243 O246 2.028 . S
Zn243 O249 2.035 . S
O244 Zn243 2.028 . S
O244 C250 1.247 . S
O245 Zn241 2.035 . S
O245 C250 1.258 . S
O246 C239 1.247 . S
O246 Zn243 2.028 . S
O247 C239 1.258 . S
O247 Zn241 2.035 . S
O248 Zn241 2.028 . S
O248 C251 1.247 . S
O249 Zn243 2.035 . S
O249 C251 1.258 . S
C250 O244 1.247 . S
C250 O245 1.258 . S
C251 O248 1.247 . S
C251 O249 1.258 . S
C252 O254 1.247 . S
C252 O256 1.258 . S
C253 O260 1.247 . S
C253 O261 1.258 . S
O254 C252 1.247 . S
O254 Zn255 2.028 . S
Zn255 O254 2.028 . S
Zn255 O259 2.035 . S
Zn255 O261 2.035 . S
Zn255 O262 2.028 . S
O256 C252 1.258 . S
O256 Zn257 2.035 . S
Zn257 O256 2.035 . S
Zn257 O258 2.028 . S
Zn257 O260 2.028 . S
Zn257 O263 2.035 . S
O258 Zn257 2.028 . S
O258 C264 1.247 . S
O259 Zn255 2.035 . S
O259 C264 1.258 . S
O260 C253 1.247 . S
O260 Zn257 2.028 . S
O261 C253 1.258 . S
O261 Zn255 2.035 . S
O262 Zn255 2.028 . S
O262 C265 1.247 . S
O263 Zn257 2.035 . S
O263 C265 1.258 . S
C264 O258 1.247 . S
C264 O259 1.258 . S
C265 O262 1.247 . S
C265 O263 1.258 . S
C266 O268 1.247 . S
C266 O270 1.258 . S
C267 O274 1.247 . S
C267 O275 1.258 . S
O268 C266 1.247 . S
O268 Zn269 2.028 . S
Zn269 O268 2.028 . S
Zn269 O273 2.035 . S
Zn269 O275 2.035 . S
Zn269 O276 2.028 . S
O270 C266 1.258 . S
O270 Zn271 2.035 . S
Zn271 O270 2.035 . S
Zn271 O272 2.028 . S
Zn271 O274 2.028 . S
Zn271 O277 2.035 . S
O272 Zn271 2.028 . S
O272 C278 1.247 . S
O273 Zn269 2.035 . S
O273 C278 1.258 . S
O274 C267 1.247 . S
O274 Zn271 2.028 . S
O275 C267 1.258 . S
O275 Zn269 2.035 . S
O276 Zn269 2.028 . S
O276 C279 1.247 . S
O277 Zn271 2.035 . S
O277 C279 1.258 . S
C278 O272 1.247 . S
C278 O273 1.258 . S
C279 O276 1.247 . S
C279 O277 1.258 . S
C280 O282 1.247 . S
C280 O284 1.258 . S
C281 O288 1.247 . S
C281 O289 1.258 . S
O282 C280 1.247 . S
O282 Zn283 2.028 . S
Zn283 O282 2.028 . S
Zn283 O287 2.035 . S
Zn283 O289 2.035 . S
Zn283 O290 2.028 . S
O284 C280 1.258 . S
O284 Zn285 2.035 . S
Zn285 O284 2.035 . S
Zn285 O286 2.028 . S
Zn285 O288 2.028 . S
Zn285 O291 2.035 . S
O286 Zn285 2.028 . S
O286 C292 1.247 . S
O287 Zn283 2.035 . S
O287 C292 1.258 . S
O288 C281 1.247 . S
O288 Zn285 2.028 . S
O289 C281 1.258 . S
O289 Zn283 2.035 . S
O290 Zn283 2.028 . S
O290 C293 1.247 . S
O291 Zn285 2.035 . S
O291 C293 1.258 . S
C292 O286 1.247 . S
C292 O287 1.258 . S
C293 O290 1.247 . S
C293 O291 1.258 . S
C294 O296 1.247 . S
C294 O298 1.258 . S
C295 O302 1.247 . S
C295 O303 1.258 . S
O296 C294 1.247 . S
O296 Zn297 2.028 . S
Zn297 O296 2.028 . S
Zn297 O301 2.035 . S
Zn297 O303 2.035 . S
Zn297 O304 2.028 . S
O298 C294 1.258 . S
O298 Zn299 2.035 . S
Zn299 O298 2.035 . S
Zn299 O300 2.028 . S
Zn299 O302 2.028 . S
Zn299 O305 2.035 . S
O300 Zn299 2.028 . S
O300 C306 1.247 . S
O301 Zn297 2.035 . S
O301 C306 1.258 . S
O302 C295 1.247 . S
O302 Zn299 2.028 . S
O303 C295 1.258 . S
O303 Zn297 2.035 . S
O304 Zn297 2.028 . S
O304 C307 1.247 . S
O305 Zn299 2.035 . S
O305 C307 1.258 . S
C306 O300 1.247 . S
C306 O301 1.258 . S
C307 O304 1.247 . S
C307 O305 1.258 . S
C308 O310 1.247 . S
C308 O312 1.258 . S
C309 O316 1.247 . S
C309 O317 1.258 . S
O310 C308 1.247 . S
O310 Zn311 2.028 . S
Zn311 O310 2.028 . S
Zn311 O315 2.035 . S
Zn311 O317 2.035 . S
Zn311 O318 2.028 . S
O312 C308 1.258 . S
O312 Zn313 2.035 . S
Zn313 O312 2.035 . S
Zn313 O314 2.028 . S
Zn313 O316 2.028 . S
Zn313 O319 2.035 . S
O314 Zn313 2.028 . S
O314 C320 1.247 . S
O315 Zn311 2.035 . S
O315 C320 1.258 . S
O316 C309 1.247 . S
O316 Zn313 2.028 . S
O317 C309 1.258 . S
O317 Zn311 2.035 . S
O318 Zn311 2.028 . S
O318 C321 1.247 . S
O319 Zn313 2.035 . S
O319 C321 1.258 . S
C320 O314 1.247 . S
C320 O315 1.258 . S
C321 O318 1.247 . S
C321 O319 1.258 . S
C322 O324 1.247 . S
C322 O326 1.258 . S
C323 O330 1.247 . S
C323 O331 1.258 . S
O324 C322 1.247 . S
O324 Zn325 2.028 . S
Zn325 O324 2.028 . S
Zn325 O329 2.035 . S
Zn325 O331 2.035 . S
Zn325 O332 2.028 . S
O326 C322 1.258 . S
O326 Zn327 2.035 . S
Zn327 O326 2.035 . S
Zn327 O328 2.028 . S
Zn327 O330 2.028 . S
Zn327 O333 2.035 . S
O328 Zn327 2.028 . S
O328 C334 1.247 . S
O329 Zn325 2.035 . S
O329 C334 1.258 . S
O330 C323 1.247 . S
O330 Zn327 2.028 . S
O331 C323 1.258 . S
O331 Zn325 2.035 . S
O332 Zn325 2.028 . S
O332 C335 1.247 . S
O333 Zn327 2.035 . S
O333 C335 1.258 . S
C334 O328 1.247 . S
C334 O329 1.258 . S
C335 O332 1.247 . S
C335 O333 1.258 . S
C336 O338 1.247 . S
C336 O340 1.258 . S
C337 O344 1.247 . S
C337 O345 1.258 . S
O338 C336 1.247 . S
O338 Zn339 2.028 . S
Zn339 O338 2.028 . S
Zn339 O343 2.035 . S
Zn339 O345 2.035 . S
Zn339 O346 2.028 . S
O340 C336 1.258 . S
O340 Zn341 2.035 . S
Zn341 O340 2.035 . S
Zn341 O342 2.028 . S
Zn341 O344 2.028 . S
Zn341 O347 2.035 . S
O342 Zn341 2.028 . S
O342 C348 1.247 . S
O343 Zn339 2.035 . S
O343 C348 1.258 . S
O344 C337 1.247 . S
O344 Zn341 2.028 . S
O345 C337 1.258 . S
O345 Zn339 2.035 . S
O346 Zn339 2.028 . S
O346 C349 1.247 . S
O347 Zn341 2.035 . S
O347 C349 1.258 . S
C348 O342 1.247 . S
C348 O343 1.258 . S
C349 O346 1.247 . S
C349 O347 1.258 . S
C350 O352 1.247 . S
C350 O354 1.258 . S
C351 O358 1.247 . S
C351 O359 1.258 . S
O352 C350 1.247 . S
O352 Zn353 2.028 . S
Zn353 O352 2.028 . S
Zn353 O357 2.035 . S
Zn353 O359 2.035 . S
Zn353 O360 2.028 . S
O354 C350 1.258 . S
O354 Zn355 2.035 . S
Zn355 O354 2.035 . S
Zn355 O356 2.028 . S
Zn355 O358 2.028 . S
Zn355 O361 2.035 . S
O356 Zn355 2.028 . S
O356 C362 1.247 . S
O357 Zn353 2.035 . S
O357 C362 1.258 . S
O358 C351 1.247 . S
O358 Zn355 2.028 . S
O359 C351 1.258 . S
O359 Zn353 2.035 . S
O360 Zn353 2.028 . S
O360 C363 1.247 . S
O361 Zn355 2.035 . S
O361 C363 1.258 . S
C362 O356 1.247 . S
C362 O357 1.258 . S
C363 O360 1.247 . S
C363 O361 1.258 . S
C364 O366 1.247 . S
C364 O368 1.258 . S
C365 O372 1.247 . S
C365 O373 1.258 . S
O366 C364 1.247 . S
O366 Zn367 2.028 . S
Zn367 O366 2.028 . S
Zn367 O371 2.035 . S
Zn367 O373 2.035 . S
Zn367 O374 2.028 . S
O368 C364 1.258 . S
O368 Zn369 2.035 . S
Zn369 O368 2.035 . S
Zn369 O370 2.028 . S
Zn369 O372 2.028 . S
Zn369 O375 2.035 . S
O370 Zn369 2.028 . S
O370 C376 1.247 . S
O371 Zn367 2.035 . S
O371 C376 1.258 . S
O372 C365 1.247 . S
O372 Zn369 2.028 . S
O373 C365 1.258 . S
O373 Zn367 2.035 . S
O374 Zn367 2.028 . S
O374 C377 1.247 . S
O375 Zn369 2.035 . S
O375 C377 1.258 . S
C376 O370 1.247 . S
C376 O371 1.258 . S
C377 O374 1.247 . S
C377 O375 1.258 . S
C378 O380 1.247 . S
C378 O382 1.258 . S
C379 O386 1.247 . S
C379 O387 1.258 . S
O380 C378 1.247 . S
O380 Zn381 2.028 . S
Zn381 O380 2.028 . S
Zn381 O385 2.035 . S
Zn381 O387 2.035 . S
Zn381 O388 2.028 . S
O382 C378 1.258 . S
O382 Zn383 2.035 . S
Zn383 O382 2.035 . S
Zn383 O384 2.028 . S
Zn383 O386 2.028 . S
Zn383 O389 2.035 . S
O384 Zn383 2.028 . S
O384 C390 1.247 . S
O385 Zn381 2.035 . S
O385 C390 1.258 . S
O386 C379 1.247 . S
O386 Zn383 2.028 . S
O387 C379 1.258 . S
O387 Zn381 2.035 . S
O388 Zn381 2.028 . S
O388 C391 1.247 . S
O389 Zn383 2.035 . S
O389 C391 1.258 . S
C390 O384 1.247 . S
C390 O385 1.258 . S
C391 O388 1.247 . S
C391 O389 1.258 . S
C392 O394 1.247 . S
C392 O396 1.258 . S
C393 O400 1.247 . S
C393 O401 1.258 . S
O394 C392 1.247 . S
O394 Zn395 2.028 . S
Zn395 O394 2.028 . S
Zn395 O399 2.035 . S
Zn395 O401 2.035 . S
Zn395 O402 2.028 . S
O396 C392 1.258 . S
O396 Zn397 2.035 . S
Zn397 O396 2.035 . S
Zn397 O398 2.028 . S
Zn397 O400 2.028 . S
Zn397 O403 2.035 . S
O398 Zn397 2.028 . S
O398 C404 1.247 . S
O399 Zn395 2.035 . S
O399 C404 1.258 . S
O400 C393 1.247 . S
O400 Zn397 2.028 . S
O401 C393 1.258 . S
O401 Zn395 2.035 . S
O402 Zn395 2.028 . S
O402 C405 1.247 . S
O403 Zn397 2.035 . S
O403 C405 1.258 . S
C404 O398 1.247 . S
C404 O399 1.258 . S
C405 O402 1.247 . S
C405 O403 1.258 . S
C406 O408 1.247 . S
C406 O410 1.258 . S
C407 O414 1.247 . S
C407 O415 1.258 . S
O408 C406 1.247 . S
O408 Zn409 2.028 . S
Zn409 O408 2.028 . S
Zn409 O413 2.035 . S
Zn409 O415 2.035 . S
Zn409 O416 2.028 . S
O410 C406 1.258 . S
O410 Zn411 2.035 . S
Zn411 O410 2.035 . S
Zn411 O412 2.028 . S
Zn411 O414 2.028 . S
Zn411 O417 2.035 . S
O412 Zn411 2.028 . S
O412 C418 1.247 . S
O413 Zn409 2.035 . S
O413 C418 1.258 . S
O414 C407 1.247 . S
O414 Zn411 2.028 . S
O415 C407 1.258 . S
O415 Zn409 2.035 . S
O416 Zn409 2.028 . S
O416 C419 1.247 . S
O417 Zn411 2.035 . S
O417 C419 1.258 . S
C418 O412 1.247 . S
C418 O413 1.258 . S
C419 O416 1.247 . S
C419 O417 1.258 . S
C420 O422 1.247 . S
C420 O424 1.258 . S
C421 O428 1.247 . S
C421 O429 1.258 . S
O422 C420 1.247 . S
O422 Zn423 2.028 . S
Zn423 O422 2.028 . S
Zn423 O427 2.035 . S
Zn423 O429 2.035 . S
Zn423 O430 2.028 . S
O424 C420 1.258 . S
O424 Zn425 2.035 . S
Zn425 O424 2.035 . S
Zn425 O426 2.028 . S
Zn425 O428 2.028 . S
Zn425 O431 2.035 . S
O426 Zn425 2.028 . S
O426 C432 1.247 . S
O427 Zn423 2.035 . S
O427 C432 1.258 . S
O428 C421 1.247 . S
O428 Zn425 2.028 . S
O429 C421 1.258 . S
O429 Zn423 2.035 . S
O430 Zn423 2.028 . S
O430 C433 1.247 . S
O431 Zn425 2.035 . S
O431 C433 1.258 . S
C432 O426 1.247 . S
C432 O427 1.258 . S
C433 O430 1.247 . S
C433 O431 1.258 . S
C434 O436 1.247 . S
C434 O438 1.258 . S
C435 O442 1.247 . S
C435 O443 1.258 . S
O436 C434 1.247 . S
O436 Zn437 2.028 . S
Zn437 O436 2.028 . S
Zn437 O441 2.035 . S
Zn437 O443 2.035 . S
Zn437 O444 2.028 . S
O438 C434 1.258 . S
O438 Zn439 2.035 . S
Zn439 O438 2.035 . S
Zn439 O440 2.028 . S
Zn439 O442 2.028 . S
Zn439 O445 2.035 . S
O440 Zn439 2.028 . S
O440 C446 1.247 . S
O441 Zn437 2.035 . S
O441 C446 1.258 . S
O442 C435 1.247 . S
O442 Zn439 2.028 . S
O443 C435 1.258 . S
O443 Zn437 2.035 . S
O444 Zn437 2.028 . S
O444 C447 1.247 . S
O445 Zn439 2.035 . S
O445 C447 1.258 . S
C446 O440 1.247 . S
C446 O441 1.258 . S
C447 O444 1.247 . S
C447 O445 1.258 . S
C448 O450 1.247 . S
C448 O452 1.258 . S
C449 O456 1.247 . S
C449 O457 1.258 . S
O450 C448 1.247 . S
O450 Zn451 2.028 . S
Zn451 O450 2.028 . S
Zn451 O455 2.035 . S
Zn451 O457 2.035 . S
Zn451 O458 2.028 . S
O452 C448 1.258 . S
O452 Zn453 2.035 . S
Zn453 O452 2.035 . S
Zn453 O454 2.028 . S
Zn453 O456 2.028 . S
Zn453 O459 2.035 . S
O454 Zn453 2.028 . S
O454 C460 1.247 . S
O455 Zn451 2.035 . S
O455 C460 1.258 . S
O456 C449 1.247 . S
O456 Zn453 2.028 . S
O457 C449 1.258 . S
O457 Zn451 2.035 . S
O458 Zn451 2.028 . S
O458 C461 1.247 . S
O459 Zn453 2.035 . S
O459 C461 1.258 . S
C460 O454 1.247 . S
C460 O455 1.258 . S
C461 O458 1.247 . S
C461 O459 1.258 . S
C462 O464 1.247 . S
C462 O466 1.258 . S
C463 O470 1.247 . S
C463 O471 1.258 . S
O464 C462 1.247 . S
O464 Zn465 2.028 . S
Zn465 O464 2.028 . S
Zn465 O469 2.035 . S
Zn465 O471 2.035 . S
Zn465 O472 2.028 . S
O466 C462 1.258 . S
O466 Zn467 2.035 . S
Zn467 O466 2.035 . S
Zn467 O468 2.028 . S
Zn467 O470 2.028 . S
Zn467 O473 2.035 . S
O468 Zn467 2.028 . S
O468 C474 1.247 . S
O469 Zn465 2.035 . S
O469 C474 1.258 . S
O470 C463 1.247 . S
O470 Zn467 2.028 . S
O471 C463 1.258 . S
O471 Zn465 2.035 . S
O472 Zn465 2.028 . S
O472 C475 1.247 . S
O473 Zn467 2.035 . S
O473 C475 1.258 . S
C474 O468 1.247 . S
C474 O469 1.258 . S
C475 O472 1.247 . S
C475 O473 1.258 . S
C476 O478 1.247 . S
C476 O480 1.258 . S
C477 O484 1.247 . S
C477 O485 1.258 . S
O478 C476 1.247 . S
O478 Zn479 2.028 . S
Zn479 O478 2.028 . S
Zn479 O483 2.035 . S
Zn479 O485 2.035 . S
Zn479 O486 2.028 . S
O480 C476 1.258 . S
O480 Zn481 2.035 . S
Zn481 O480 2.035 . S
Zn481 O482 2.028 . S
Zn481 O484 2.028 . S
Zn481 O487 2.035 . S
O482 Zn481 2.028 . S
O482 C488 1.247 . S
O483 Zn479 2.035 . S
O483 C488 1.258 . S
O484 C477 1.247 . S
O484 Zn481 2.028 . S
O485 C477 1.258 . S
O485 Zn479 2.035 . S
O486 Zn479 2.028 . S
O486 C489 1.247 . S
O487 Zn481 2.035 . S
O487 C489 1.258 . S
C488 O482 1.247 . S
C488 O483 1.258 . S
C489 O486 1.247 . S
C489 O487 1.258 . S
C490 O492 1.247 . S
C490 O494 1.258 . S
C491 O498 1.247 . S
C491 O499 1.258 . S
O492 C490 1.247 . S
O492 Zn493 2.028 . S
Zn493 O492 2.028 . S
Zn493 O497 2.035 . S
Zn493 O499 2.035 . S
Zn493 O500 2.028 . S
O494 C490 1.258 . S
O494 Zn495 2.035 . S
Zn495 O494 2.035 . S
Zn495 O496 2.028 . S
Zn495 O498 2.028 . S
Zn495 O501 2.035 . S
O496 Zn495 2.028 . S
O496 C502 1.247 . S
O497 Zn493 2.035 . S
O497 C502 1.258 . S
O498 C491 1.247 . S
O498 Zn495 2.028 . S
O499 C491 1.258 . S
O499 Zn493 2.035 . S
O500 Zn493 2.028 . S
O500 C503 1.247 . S
O501 Zn495 2.035 . S
O501 C503 1.258 . S
C502 O496 1.247 . S
C502 O497 1.258 . S
C503 O500 1.247 . S
C503 O501 1.258 . S
H504 C510 0.930 . S
H505 C514 0.930 . S
H506 C519 0.929 . S
H507 C517 0.929 . S
H508 C512 0.929 . S
H509 C518 0.929 . S
C510 H504 0.930 . S
C510 C511 1.367 . S
C510 C518 1.378 . S
C511 C510 1.367 . S
C511 C519 1.433 . S
C512 H508 0.929 . S
C512 C514 1.378 . S
C512 C516 1.350 . S
C513 C516 1.463 . S
C513 C518 1.350 . S
C513 N521 1.427 . S
C514 H505 0.930 . S
C514 C512 1.378 . S
C514 C515 1.367 . S
C515 C514 1.367 . S
C515 C517 1.433 . S
C516 C512 1.350 . S
C516 C513 1.463 . S
C516 N520 1.427 . S
C517 H507 0.929 . S
C517 C515 1.433 . S
C517 N520 1.384 . S
C518 H509 0.929 . S
C518 C510 1.378 . S
C518 C513 1.350 . S
C519 H506 0.929 . S
C519 C511 1.433 . S
C519 N521 1.384 . S
N520 C516 1.427 . S
N520 C517 1.384 . S
N521 C513 1.427 . S
N521 C519 1.384 . S
H522 C528 0.930 . S
H523 C532 0.930 . S
H524 C537 0.929 . S
H525 C535 0.929 . S
H526 C530 0.929 . S
H527 C536 0.929 . S
C528 H522 0.930 . S
C528 C529 1.367 . S
C528 C536 1.378 . S
C529 C528 1.367 . S
C529 C537 1.433 . S
C530 H526 0.929 . S
C530 C532 1.378 . S
C530 C534 1.350 . S
C531 C534 1.463 . S
C531 C536 1.350 . S
C531 N539 1.427 . S
C532 H523 0.930 . S
C532 C530 1.378 . S
C532 C533 1.367 . S
C533 C532 1.367 . S
C533 C535 1.433 . S
C534 C530 1.350 . S
C534 C531 1.463 . S
C534 N538 1.427 . S
C535 H525 0.929 . S
C535 C533 1.433 . S
C535 N538 1.384 . S
C536 H527 0.929 . S
C536 C528 1.378 . S
C536 C531 1.350 . S
C537 H524 0.929 . S
C537 C529 1.433 . S
C537 N539 1.384 . S
N538 C534 1.427 . S
N538 C535 1.384 . S
N539 C531 1.427 . S
N539 C537 1.384 . S
H540 C546 0.930 . S
H541 C550 0.930 . S
H542 C555 0.929 . S
H543 C553 0.929 . S
H544 C548 0.929 . S
H545 C554 0.929 . S
C546 H540 0.930 . S
C546 C547 1.367 . S
C546 C554 1.378 . S
C547 C546 1.367 . S
C547 C555 1.433 . S
C548 H544 0.929 . S
C548 C550 1.378 . S
C548 C552 1.350 . S
C549 C552 1.463 . S
C549 C554 1.350 . S
C549 N557 1.427 . S
C550 H541 0.930 . S
C550 C548 1.378 . S
C550 C551 1.367 . S
C551 C550 1.367 . S
C551 C553 1.433 . S
C552 C548 1.350 . S
C552 C549 1.463 . S
C552 N556 1.427 . S
C553 H543 0.929 . S
C553 C551 1.433 . S
C553 N556 1.384 . S
C554 H545 0.929 . S
C554 C546 1.378 . S
C554 C549 1.350 . S
C555 H542 0.929 . S
C555 C547 1.433 . S
C555 N557 1.384 . S
N556 C552 1.427 . S
N556 C553 1.384 . S
N557 C549 1.427 . S
N557 C555 1.384 . S
H558 C564 0.930 . S
H559 C568 0.930 . S
H560 C573 0.929 . S
H561 C571 0.929 . S
H562 C566 0.929 . S
H563 C572 0.929 . S
C564 H558 0.930 . S
C564 C565 1.367 . S
C564 C572 1.378 . S
C565 C564 1.367 . S
C565 C573 1.433 . S
C566 H562 0.929 . S
C566 C568 1.378 . S
C566 C570 1.350 . S
C567 C570 1.463 . S
C567 C572 1.350 . S
C567 N575 1.427 . S
C568 H559 0.930 . S
C568 C566 1.378 . S
C568 C569 1.367 . S
C569 C568 1.367 . S
C569 C571 1.433 . S
C570 C566 1.350 . S
C570 C567 1.463 . S
C570 N574 1.427 . S
C571 H561 0.929 . S
C571 C569 1.433 . S
C571 N574 1.384 . S
C572 H563 0.929 . S
C572 C564 1.378 . S
C572 C567 1.350 . S
C573 H560 0.929 . S
C573 C565 1.433 . S
C573 N575 1.384 . S
N574 C570 1.427 . S
N574 C571 1.384 . S
N575 C567 1.427 . S
N575 C573 1.384 . S
H576 C582 0.930 . S
H577 C586 0.930 . S
H578 C591 0.929 . S
H579 C589 0.929 . S
H580 C584 0.929 . S
H581 C590 0.929 . S
C582 H576 0.930 . S
C582 C583 1.367 . S
C582 C590 1.378 . S
C583 C582 1.367 . S
C583 C591 1.433 . S
C584 H580 0.929 . S
C584 C586 1.378 . S
C584 C588 1.350 . S
C585 C588 1.463 . S
C585 C590 1.350 . S
C585 N593 1.427 . S
C586 H577 0.930 . S
C586 C584 1.378 . S
C586 C587 1.367 . S
C587 C586 1.367 . S
C587 C589 1.433 . S
C588 C584 1.350 . S
C588 C585 1.463 . S
C588 N592 1.427 . S
C589 H579 0.929 . S
C589 C587 1.433 . S
C589 N592 1.384 . S
C590 H581 0.929 . S
C590 C582 1.378 . S
C590 C585 1.350 . S
C591 H578 0.929 . S
C591 C583 1.433 . S
C591 N593 1.384 . S
N592 C588 1.427 . S
N592 C589 1.384 . S
N593 C585 1.427 . S
N593 C591 1.384 . S
H594 C600 0.930 . S
H595 C604 0.930 . S
H596 C609 0.929 . S
H597 C607 0.929 . S
H598 C602 0.929 . S
H599 C608 0.929 . S
C600 H594 0.930 . S
C600 C601 1.367 . S
C600 C608 1.378 . S
C601 C600 1.367 . S
C601 C609 1.433 . S
C602 H598 0.929 . S
C602 C604 1.378 . S
C602 C606 1.350 . S
C603 C606 1.463 . S
C603 C608 1.350 . S
C603 N611 1.427 . S
C604 H595 0.930 . S
C604 C602 1.378 . S
C604 C605 1.367 . S
C605 C604 1.367 . S
C605 C607 1.433 . S
C606 C602 1.350 . S
C606 C603 1.463 . S
C606 N610 1.427 . S
C607 H597 0.929 . S
C607 C605 1.433 . S
C607 N610 1.384 . S
C608 H599 0.929 . S
C608 C600 1.378 . S
C608 C603 1.350 . S
C609 H596 0.929 . S
C609 C601 1.433 . S
C609 N611 1.384 . S
N610 C606 1.427 . S
N610 C607 1.384 . S
N611 C603 1.427 . S
N611 C609 1.384 . S
H612 C618 0.930 . S
H613 C622 0.930 . S
H614 C627 0.929 . S
H615 C625 0.929 . S
H616 C620 0.929 . S
H617 C626 0.929 . S
C618 H612 0.930 . S
C618 C619 1.367 . S
C618 C626 1.378 . S
C619 C618 1.367 . S
C619 C627 1.433 . S
C620 H616 0.929 . S
C620 C622 1.378 . S
C620 C624 1.350 . S
C621 C624 1.463 . S
C621 C626 1.350 . S
C621 N629 1.427 . S
C622 H613 0.930 . S
C622 C620 1.378 . S
C622 C623 1.367 . S
C623 C622 1.367 . S
C623 C625 1.433 . S
C624 C620 1.350 . S
C624 C621 1.463 . S
C624 N628 1.427 . S
C625 H615 0.929 . S
C625 C623 1.433 . S
C625 N628 1.384 . S
C626 H617 0.929 . S
C626 C618 1.378 . S
C626 C621 1.350 . S
C627 H614 0.929 . S
C627 C619 1.433 . S
C627 N629 1.384 . S
N628 C624 1.427 . S
N628 C625 1.384 . S
N629 C621 1.427 . S
N629 C627 1.384 . S
H630 C636 0.930 . S
H631 C640 0.930 . S
H632 C645 0.929 . S
H633 C643 0.929 . S
H634 C638 0.929 . S
H635 C644 0.929 . S
C636 H630 0.930 . S
C636 C637 1.367 . S
C636 C644 1.378 . S
C637 C636 1.367 . S
C637 C645 1.433 . S
C638 H634 0.929 . S
C638 C640 1.378 . S
C638 C642 1.350 . S
C639 C642 1.463 . S
C639 C644 1.350 . S
C639 N647 1.427 . S
C640 H631 0.930 . S
C640 C638 1.378 . S
C640 C641 1.367 . S
C641 C640 1.367 . S
C641 C643 1.433 . S
C642 C638 1.350 . S
C642 C639 1.463 . S
C642 N646 1.427 . S
C643 H633 0.929 . S
C643 C641 1.433 . S
C643 N646 1.384 . S
C644 H635 0.929 . S
C644 C636 1.378 . S
C644 C639 1.350 . S
C645 H632 0.929 . S
C645 C637 1.433 . S
C645 N647 1.384 . S
N646 C642 1.427 . S
N646 C643 1.384 . S
N647 C639 1.427 . S
N647 C645 1.384 . S
H648 C654 0.930 . S
H649 C658 0.930 . S
H650 C663 0.929 . S
H651 C661 0.929 . S
H652 C656 0.929 . S
H653 C662 0.929 . S
C654 H648 0.930 . S
C654 C655 1.367 . S
C654 C662 1.378 . S
C655 C654 1.367 . S
C655 C663 1.433 . S
C656 H652 0.929 . S
C656 C658 1.378 . S
C656 C660 1.350 . S
C657 C660 1.463 . S
C657 C662 1.350 . S
C657 N665 1.427 . S
C658 H649 0.930 . S
C658 C656 1.378 . S
C658 C659 1.367 . S
C659 C658 1.367 . S
C659 C661 1.433 . S
C660 C656 1.350 . S
C660 C657 1.463 . S
C660 N664 1.427 . S
C661 H651 0.929 . S
C661 C659 1.433 . S
C661 N664 1.384 . S
C662 H653 0.929 . S
C662 C654 1.378 . S
C662 C657 1.350 . S
C663 H650 0.929 . S
C663 C655 1.433 . S
C663 N665 1.384 . S
N664 C660 1.427 . S
N664 C661 1.384 . S
N665 C657 1.427 . S
N665 C663 1.384 . S
H666 C672 0.930 . S
H667 C676 0.930 . S
H668 C681 0.929 . S
H669 C679 0.929 . S
H670 C674 0.929 . S
H671 C680 0.929 . S
C672 H666 0.930 . S
C672 C673 1.367 . S
C672 C680 1.378 . S
C673 C672 1.367 . S
C673 C681 1.433 . S
C674 H670 0.929 . S
C674 C676 1.378 . S
C674 C678 1.350 . S
C675 C678 1.463 . S
C675 C680 1.350 . S
C675 N683 1.427 . S
C676 H667 0.930 . S
C676 C674 1.378 . S
C676 C677 1.367 . S
C677 C676 1.367 . S
C677 C679 1.433 . S
C678 C674 1.350 . S
C678 C675 1.463 . S
C678 N682 1.427 . S
C679 H669 0.929 . S
C679 C677 1.433 . S
C679 N682 1.384 . S
C680 H671 0.929 . S
C680 C672 1.378 . S
C680 C675 1.350 . S
C681 H668 0.929 . S
C681 C673 1.433 . S
C681 N683 1.384 . S
N682 C678 1.427 . S
N682 C679 1.384 . S
N683 C675 1.427 . S
N683 C681 1.384 . S
H684 C690 0.930 . S
H685 C694 0.930 . S
H686 C699 0.929 . S
H687 C697 0.929 . S
H688 C692 0.929 . S
H689 C698 0.929 . S
C690 H684 0.930 . S
C690 C691 1.367 . S
C690 C698 1.378 . S
C691 C690 1.367 . S
C691 C699 1.433 . S
C692 H688 0.929 . S
C692 C694 1.378 . S
C692 C696 1.350 . S
C693 C696 1.463 . S
C693 C698 1.350 . S
C693 N701 1.427 . S
C694 H685 0.930 . S
C694 C692 1.378 . S
C694 C695 1.367 . S
C695 C694 1.367 . S
C695 C697 1.433 . S
C696 C692 1.350 . S
C696 C693 1.463 . S
C696 N700 1.427 . S
C697 H687 0.929 . S
C697 C695 1.433 . S
C697 N700 1.384 . S
C698 H689 0.929 . S
C698 C690 1.378 . S
C698 C693 1.350 . S
C699 H686 0.929 . S
C699 C691 1.433 . S
C699 N701 1.384 . S
N700 C696 1.427 . S
N700 C697 1.384 . S
N701 C693 1.427 . S
N701 C699 1.384 . S
H702 C708 0.930 . S
H703 C712 0.930 . S
H704 C717 0.929 . S
H705 C715 0.929 . S
H706 C710 0.929 . S
H707 C716 0.929 . S
C708 H702 0.930 . S
C708 C709 1.367 . S
C708 C716 1.378 . S
C709 C708 1.367 . S
C709 C717 1.433 . S
C710 H706 0.929 . S
C710 C712 1.378 . S
C710 C714 1.350 . S
C711 C714 1.463 . S
C711 C716 1.350 . S
C711 N719 1.427 . S
C712 H703 0.930 . S
C712 C710 1.378 . S
C712 C713 1.367 . S
C713 C712 1.367 . S
C713 C715 1.433 . S
C714 C710 1.350 . S
C714 C711 1.463 . S
C714 N718 1.427 . S
C715 H705 0.929 . S
C715 C713 1.433 . S
C715 N718 1.384 . S
C716 H707 0.929 . S
C716 C708 1.378 . S
C716 C711 1.350 . S
C717 H704 0.929 . S
C717 C709 1.433 . S
C717 N719 1.384 . S
N718 C714 1.427 . S
N718 C715 1.384 . S
N719 C711 1.427 . S
N719 C717 1.384 . S
H720 C726 0.930 . S
H721 C730 0.930 . S
H722 C735 0.929 . S
H723 C733 0.929 . S
H724 C728 0.929 . S
H725 C734 0.929 . S
C726 H720 0.930 . S
C726 C727 1.367 . S
C726 C734 1.378 . S
C727 C726 1.367 . S
C727 C735 1.433 . S
C728 H724 0.929 . S
C728 C730 1.378 . S
C728 C732 1.350 . S
C729 C732 1.463 1_655 S
C729 C734 1.350 . S
C729 N737 1.427 1_655 S
C730 H721 0.930 . S
C730 C728 1.378 . S
C730 C731 1.367 . S
C731 C730 1.367 . S
C731 C733 1.433 . S
C732 C728 1.350 . S
C732 C729 1.463 1_455 S
C732 N736 1.427 1_455 S
C733 H723 0.929 . S
C733 C731 1.433 . S
C733 N736 1.384 1_455 S
C734 H725 0.929 . S
C734 C726 1.378 . S
C734 C729 1.350 . S
C735 H722 0.929 . S
C735 C727 1.433 . S
C735 N737 1.384 1_655 S
N736 C732 1.427 1_655 S
N736 C733 1.384 1_655 S
N737 C729 1.427 1_455 S
N737 C735 1.384 1_455 S
H738 C744 0.930 . S
H739 C748 0.930 . S
H740 C753 0.929 . S
H741 C751 0.929 . S
H742 C746 0.929 . S
H743 C752 0.929 . S
C744 H738 0.930 . S
C744 C745 1.367 . S
C744 C752 1.378 . S
C745 C744 1.367 . S
C745 C753 1.433 . S
C746 H742 0.929 . S
C746 C748 1.378 . S
C746 C750 1.350 . S
C747 C750 1.463 . S
C747 C752 1.350 . S
C747 N755 1.427 . S
C748 H739 0.930 . S
C748 C746 1.378 . S
C748 C749 1.367 . S
C749 C748 1.367 . S
C749 C751 1.433 . S
C750 C746 1.350 . S
C750 C747 1.463 . S
C750 N754 1.427 . S
C751 H741 0.929 . S
C751 C749 1.433 . S
C751 N754 1.384 . S
C752 H743 0.929 . S
C752 C744 1.378 . S
C752 C747 1.350 . S
C753 H740 0.929 . S
C753 C745 1.433 . S
C753 N755 1.384 . S
N754 C750 1.427 . S
N754 C751 1.384 . S
N755 C747 1.427 . S
N755 C753 1.384 . S
H756 C762 0.930 . S
H757 C766 0.930 . S
H758 C771 0.929 . S
H759 C769 0.929 . S
H760 C764 0.932 1_545 S
H761 C770 0.932 1_565 S
C762 H756 0.930 . S
C762 C763 1.367 . S
C762 C770 1.376 . S
C763 C762 1.367 . S
C763 C771 1.433 . S
C764 H760 0.932 1_565 S
C764 C766 1.376 . S
C764 C768 1.348 . S
C765 C768 1.463 1_545 S
C765 C770 1.348 . S
C765 N773 1.427 . S
C766 H757 0.930 . S
C766 C764 1.376 . S
C766 C767 1.367 . S
C767 C766 1.367 . S
C767 C769 1.433 . S
C768 C764 1.348 . S
C768 C765 1.463 1_565 S
C768 N772 1.427 . S
C769 H759 0.929 . S
C769 C767 1.433 . S
C769 N772 1.384 . S
C770 H761 0.932 1_545 S
C770 C762 1.376 . S
C770 C765 1.348 . S
C771 H758 0.929 . S
C771 C763 1.433 . S
C771 N773 1.384 . S
N772 C768 1.427 . S
N772 C769 1.384 . S
N773 C765 1.427 . S
N773 C771 1.384 . S
H774 C780 0.930 . S
H775 C784 0.930 . S
H776 C789 0.929 . S
H777 C787 0.929 . S
H778 C782 0.929 1_545 S
H779 C788 0.929 1_565 S
C780 H774 0.930 . S
C780 C781 1.367 . S
C780 C788 1.378 . S
C781 C780 1.367 . S
C781 C789 1.433 . S
C782 H778 0.929 1_565 S
C782 C784 1.378 . S
C782 C786 1.350 . S
C783 C786 1.463 1_546 S
C783 C788 1.350 . S
C783 N791 1.427 1_556 S
C784 H775 0.930 . S
C784 C782 1.378 . S
C784 C785 1.367 . S
C785 C784 1.367 . S
C785 C787 1.433 . S
C786 C782 1.350 . S
C786 C783 1.463 1_564 S
C786 N790 1.427 1_554 S
C787 H777 0.929 . S
C787 C785 1.433 . S
C787 N790 1.384 1_554 S
C788 H779 0.929 1_545 S
C788 C780 1.378 . S
C788 C783 1.350 . S
C789 H776 0.929 . S
C789 C781 1.433 . S
C789 N791 1.384 1_556 S
N790 C786 1.427 1_556 S
N790 C787 1.384 1_556 S
N791 C783 1.427 1_554 S
N791 C789 1.384 1_554 S
H792 C798 0.930 . S
H793 C802 0.930 . S
H794 C807 0.929 . S
H795 C805 0.929 . S
H796 C800 0.929 . S
H797 C806 0.929 . S
C798 H792 0.930 . S
C798 C799 1.367 . S
C798 C806 1.378 . S
C799 C798 1.367 . S
C799 C807 1.433 . S
C800 H796 0.929 . S
C800 C802 1.378 . S
C800 C804 1.350 . S
C801 C804 1.463 1_656 S
C801 C806 1.350 . S
C801 N809 1.427 . S
C802 H793 0.930 . S
C802 C800 1.378 . S
C802 C803 1.367 . S
C803 C802 1.367 . S
C803 C805 1.433 . S
C804 C800 1.350 . S
C804 C801 1.463 1_454 S
C804 N808 1.427 . S
C805 H795 0.929 . S
C805 C803 1.433 . S
C805 N808 1.384 . S
C806 H797 0.929 . S
C806 C798 1.378 . S
C806 C801 1.350 . S
C807 H794 0.929 . S
C807 C799 1.433 . S
C807 N809 1.384 . S
N808 C804 1.427 . S
N808 C805 1.384 . S
N809 C801 1.427 . S
N809 C807 1.384 . S
H810 C816 0.930 . S
H811 C820 0.930 . S
H812 C825 0.929 . S
H813 C823 0.929 . S
H814 C818 0.929 . S
H815 C824 0.929 . S
C816 H810 0.930 . S
C816 C817 1.367 . S
C816 C824 1.378 . S
C817 C816 1.367 . S
C817 C825 1.433 . S
C818 H814 0.929 . S
C818 C820 1.378 . S
C818 C822 1.350 . S
C819 C822 1.463 1_556 S
C819 C824 1.350 . S
C819 N827 1.427 . S
C820 H811 0.930 . S
C820 C818 1.378 . S
C820 C821 1.367 . S
C821 C820 1.367 . S
C821 C823 1.433 . S
C822 C818 1.350 . S
C822 C819 1.463 1_554 S
C822 N826 1.427 . S
C823 H813 0.929 . S
C823 C821 1.433 . S
C823 N826 1.384 . S
C824 H815 0.929 . S
C824 C816 1.378 . S
C824 C819 1.350 . S
C825 H812 0.929 . S
C825 C817 1.433 . S
C825 N827 1.384 . S
N826 C822 1.427 . S
N826 C823 1.384 . S
N827 C819 1.427 . S
N827 C825 1.384 . S
H828 C834 0.930 1_564 S
H829 C838 0.930 . S
H830 C843 0.929 . S
H831 C841 0.929 . S
H832 C836 0.929 1_556 S
H833 C842 0.929 . S
C834 H828 0.930 1_546 S
C834 C835 1.367 . S
C834 C842 1.378 1_556 S
C835 C834 1.367 . S
C835 C843 1.433 . S
C836 H832 0.929 1_554 S
C836 C838 1.378 . S
C836 C840 1.350 . S
C837 C840 1.463 . S
C837 C842 1.350 . S
C837 N845 1.427 1_554 S
C838 H829 0.930 . S
C838 C836 1.378 . S
C838 C839 1.367 . S
C839 C838 1.367 . S
C839 C841 1.433 . S
C840 C836 1.350 . S
C840 C837 1.463 . S
C840 N844 1.427 . S
C841 H831 0.929 . S
C841 C839 1.433 . S
C841 N844 1.384 . S
C842 H833 0.929 . S
C842 C834 1.378 1_554 S
C842 C837 1.350 . S
C843 H830 0.929 . S
C843 C835 1.433 . S
C843 N845 1.384 . S
N844 C840 1.427 . S
N844 C841 1.384 . S
N845 C837 1.427 1_556 S
N845 C843 1.384 . S
H846 C852 0.930 1_455 S
H847 C856 0.930 . S
H848 C861 0.929 . S
H849 C859 0.929 . S
H850 C854 0.929 . S
H851 C860 0.929 1_554 S
C852 H846 0.930 1_655 S
C852 C853 1.367 . S
C852 C860 1.378 . S
C853 C852 1.367 . S
C853 C861 1.433 . S
C854 H850 0.929 . S
C854 C856 1.378 . S
C854 C858 1.350 . S
C855 C858 1.463 . S
C855 C860 1.350 1_554 S
C855 N863 1.427 1_554 S
C856 H847 0.930 . S
C856 C854 1.378 . S
C856 C857 1.367 . S
C857 C856 1.367 . S
C857 C859 1.433 . S
C858 C854 1.350 . S
C858 C855 1.463 . S
C858 N862 1.427 . S
C859 H849 0.929 . S
C859 C857 1.433 . S
C859 N862 1.384 . S
C860 H851 0.929 1_556 S
C860 C852 1.378 . S
C860 C855 1.350 1_556 S
C861 H848 0.929 . S
C861 C853 1.433 . S
C861 N863 1.384 . S
N862 C858 1.427 . S
N862 C859 1.384 . S
N863 C855 1.427 1_556 S
N863 C861 1.384 . S
H864 C870 0.930 . S
H865 C874 0.930 . S
H866 C879 0.929 . S
H867 C877 0.929 . S
H868 C872 0.929 . S
H869 C878 0.929 . S
C870 H864 0.930 . S
C870 C871 1.367 . S
C870 C878 1.378 . S
C871 C870 1.367 . S
C871 C879 1.433 . S
C872 H868 0.929 . S
C872 C874 1.378 . S
C872 C876 1.350 1_556 S
C873 C876 1.463 . S
C873 C878 1.350 . S
C873 N881 1.427 . S
C874 H865 0.930 . S
C874 C872 1.378 . S
C874 C875 1.367 . S
C875 C874 1.367 . S
C875 C877 1.433 . S
C876 C872 1.350 1_554 S
C876 C873 1.463 . S
C876 N880 1.427 1_554 S
C877 H867 0.929 . S
C877 C875 1.433 . S
C877 N880 1.384 . S
C878 H869 0.929 . S
C878 C870 1.378 . S
C878 C873 1.350 . S
C879 H866 0.929 . S
C879 C871 1.433 . S
C879 N881 1.384 . S
N880 C876 1.427 1_556 S
N880 C877 1.384 . S
N881 C873 1.427 . S
N881 C879 1.384 . S
H882 C888 0.930 1_655 S
H883 C892 0.930 . S
H884 C897 0.929 . S
H885 C895 0.929 . S
H886 C890 0.929 . S
H887 C896 0.929 . S
C888 H882 0.930 1_455 S
C888 C889 1.367 . S
C888 C896 1.378 . S
C889 C888 1.367 . S
C889 C897 1.433 . S
C890 H886 0.929 . S
C890 C892 1.378 . S
C890 C894 1.350 . S
C891 C894 1.463 . S
C891 C896 1.350 . S
C891 N899 1.427 . S
C892 H883 0.930 . S
C892 C890 1.378 . S
C892 C893 1.367 . S
C893 C892 1.367 . S
C893 C895 1.433 . S
C894 C890 1.350 . S
C894 C891 1.463 . S
C894 N898 1.427 . S
C895 H885 0.929 . S
C895 C893 1.433 . S
C895 N898 1.384 . S
C896 H887 0.929 . S
C896 C888 1.378 . S
C896 C891 1.350 . S
C897 H884 0.929 . S
C897 C889 1.433 . S
C897 N899 1.384 . S
N898 C894 1.427 . S
N898 C895 1.384 . S
N899 C891 1.427 . S
N899 C897 1.384 . S
H900 C906 0.930 . S
H901 C910 0.930 . S
H902 C915 0.929 . S
H903 C913 0.929 . S
H904 C908 0.929 . S
H905 C914 0.929 . S
C906 H900 0.930 . S
C906 C907 1.367 . S
C906 C914 1.378 . S
C907 C906 1.367 . S
C907 C915 1.433 . S
C908 H904 0.929 . S
C908 C910 1.378 . S
C908 C912 1.350 . S
C909 C912 1.463 . S
C909 C914 1.350 . S
C909 N917 1.427 . S
C910 H901 0.930 . S
C910 C908 1.378 . S
C910 C911 1.367 . S
C911 C910 1.367 . S
C911 C913 1.433 . S
C912 C908 1.350 . S
C912 C909 1.463 . S
C912 N916 1.427 . S
C913 H903 0.929 . S
C913 C911 1.433 . S
C913 N916 1.384 . S
C914 H905 0.929 . S
C914 C906 1.378 . S
C914 C909 1.350 . S
C915 H902 0.929 . S
C915 C907 1.433 . S
C915 N917 1.384 . S
N916 C912 1.427 . S
N916 C913 1.384 . S
N917 C909 1.427 . S
N917 C915 1.384 . S
H918 C924 0.930 . S
H919 C928 0.930 . S
H920 C933 0.929 . S
H921 C931 0.929 . S
H922 C926 0.929 . S
H923 C932 0.929 . S
C924 H918 0.930 . S
C924 C925 1.367 . S
C924 C932 1.378 . S
C925 C924 1.367 . S
C925 C933 1.433 . S
C926 H922 0.929 . S
C926 C928 1.378 . S
C926 C930 1.350 . S
C927 C930 1.463 . S
C927 C932 1.350 . S
C927 N935 1.427 . S
C928 H919 0.930 . S
C928 C926 1.378 . S
C928 C929 1.367 . S
C929 C928 1.367 . S
C929 C931 1.433 . S
C930 C926 1.350 . S
C930 C927 1.463 . S
C930 N934 1.427 . S
C931 H921 0.929 . S
C931 C929 1.433 . S
C931 N934 1.384 . S
C932 H923 0.929 . S
C932 C924 1.378 . S
C932 C927 1.350 . S
C933 H920 0.929 . S
C933 C925 1.433 . S
C933 N935 1.384 . S
N934 C930 1.427 . S
N934 C931 1.384 . S
N935 C927 1.427 . S
N935 C933 1.384 . S
H936 C942 0.930 . S
H937 C946 0.930 . S
H938 C951 0.929 . S
H939 C949 0.929 . S
H940 C944 0.929 . S
H941 C950 0.929 . S
C942 H936 0.930 . S
C942 C943 1.367 . S
C942 C950 1.378 . S
C943 C942 1.367 . S
C943 C951 1.433 . S
C944 H940 0.929 . S
C944 C946 1.378 . S
C944 C948 1.329 1_554 S
C945 C948 1.478 . S
C945 C950 1.350 . S
C945 N953 1.427 . S
C946 H937 0.930 . S
C946 C944 1.378 . S
C946 C947 1.367 . S
C947 C946 1.367 . S
C947 C949 1.433 . S
C948 C944 1.329 1_556 S
C948 C945 1.478 . S
C948 N952 1.435 . S
C949 H939 0.929 . S
C949 C947 1.433 . S
C949 N952 1.384 1_554 S
C950 H941 0.929 . S
C950 C942 1.378 . S
C950 C945 1.350 . S
C951 H938 0.929 . S
C951 C943 1.433 . S
C951 N953 1.384 . S
N952 C948 1.435 . S
N952 C949 1.384 1_556 S
N953 C945 1.427 . S
N953 C951 1.384 . S
H954 C960 0.930 . S
H955 C964 0.930 . S
H956 C969 0.929 . S
H957 C967 0.929 . S
H958 C962 0.929 . S
H959 C968 0.929 . S
C960 H954 0.930 . S
C960 C961 1.367 . S
C960 C968 1.378 . S
C961 C960 1.367 . S
C961 C969 1.433 . S
C962 H958 0.929 . S
C962 C964 1.378 1_556 S
C962 C966 1.350 . S
C963 C966 1.463 . S
C963 C968 1.350 . S
C963 N971 1.427 . S
C964 H955 0.930 . S
C964 C962 1.378 1_554 S
C964 C965 1.367 . S
C965 C964 1.367 . S
C965 C967 1.433 . S
C966 C962 1.350 . S
C966 C963 1.463 . S
C966 N970 1.427 1_556 S
C967 H957 0.929 . S
C967 C965 1.433 . S
C967 N970 1.384 . S
C968 H959 0.929 . S
C968 C960 1.378 . S
C968 C963 1.350 . S
C969 H956 0.929 . S
C969 C961 1.433 . S
C969 N971 1.384 . S
N970 C966 1.427 1_554 S
N970 C967 1.384 . S
N971 C963 1.427 . S
N971 C969 1.384 . S
H972 C978 0.930 . S
H973 C982 0.930 . S
H974 C987 0.929 . S
H975 C985 0.929 . S
H976 C980 0.929 . S
H977 C986 0.929 . S
C978 H972 0.930 . S
C978 C979 1.367 . S
C978 C986 1.378 . S
C979 C978 1.367 . S
C979 C987 1.433 . S
C980 H976 0.929 . S
C980 C982 1.378 . S
C980 C984 1.335 1_554 S
C981 C984 1.471 . S
C981 C986 1.350 . S
C981 N989 1.436 . S
C982 H973 0.930 . S
C982 C980 1.378 . S
C982 C983 1.367 . S
C983 C982 1.367 . S
C983 C985 1.433 1_554 S
C984 C980 1.335 1_556 S
C984 C981 1.471 . S
C984 N988 1.436 . S
C985 H975 0.929 . S
C985 C983 1.433 1_556 S
C985 N988 1.384 . S
C986 H977 0.929 . S
C986 C978 1.378 . S
C986 C981 1.350 . S
C987 H974 0.929 . S
C987 C979 1.433 . S
C987 N989 1.391 . S
N988 C984 1.436 . S
N988 C985 1.384 . S
N989 C981 1.436 . S
N989 C987 1.391 . S
H990 C996 0.930 . S
H991 C1000 0.930 . S
H992 C1005 0.929 . S
H993 C1003 0.929 1_455 S
H994 C998 0.929 . S
H995 C1004 0.929 . S
C996 H990 0.930 . S
C996 C997 1.367 . S
C996 C1004 1.378 . S
C997 C996 1.367 . S
C997 C1005 1.433 . S
C998 H994 0.929 . S
C998 C1000 1.378 . S
C998 C1002 1.350 . S
C999 C1002 1.463 . S
C999 C1004 1.350 . S
C999 N1007 1.427 . S
C1000 H991 0.930 . S
C1000 C998 1.378 . S
C1000 C1001 1.367 . S
C1001 C1000 1.367 . S
C1001 C1003 1.433 . S
C1002 C998 1.350 . S
C1002 C999 1.463 . S
C1002 N1006 1.427 . S
C1003 H993 0.929 1_655 S
C1003 C1001 1.433 . S
C1003 N1006 1.384 . S
C1004 H995 0.929 . S
C1004 C996 1.378 . S
C1004 C999 1.350 . S
C1005 H992 0.929 . S
C1005 C997 1.433 . S
C1005 N1007 1.384 . S
N1006 C1002 1.427 . S
N1006 C1003 1.384 . S
N1007 C999 1.427 . S
N1007 C1005 1.384 . S
H1008 C1014 0.930 . S
H1009 C1018 0.930 . S
H1010 C1023 0.929 . S
H1011 C1021 0.929 . S
H1012 C1016 0.929 . S
H1013 C1022 0.929 . S
C1014 H1008 0.930 . S
C1014 C1015 1.367 . S
C1014 C1022 1.378 . S
C1015 C1014 1.367 . S
C1015 C1023 1.433 . S
C1016 H1012 0.929 . S
C1016 C1018 1.378 . S
C1016 C1020 1.350 . S
C1017 C1020 1.463 . S
C1017 C1022 1.350 . S
C1017 N1025 1.427 . S
C1018 H1009 0.930 . S
C1018 C1016 1.378 . S
C1018 C1019 1.367 . S
C1019 C1018 1.367 . S
C1019 C1021 1.433 . S
C1020 C1016 1.350 . S
C1020 C1017 1.463 . S
C1020 N1024 1.427 . S
C1021 H1011 0.929 . S
C1021 C1019 1.433 . S
C1021 N1024 1.384 . S
C1022 H1013 0.929 . S
C1022 C1014 1.378 . S
C1022 C1017 1.350 . S
C1023 H1010 0.929 . S
C1023 C1015 1.433 . S
C1023 N1025 1.384 . S
N1024 C1020 1.427 . S
N1024 C1021 1.384 . S
N1025 C1017 1.427 . S
N1025 C1023 1.384 . S
H1026 C1032 0.930 . S
H1027 C1036 0.930 . S
H1028 C1041 0.929 1_565 S
H1029 C1039 0.929 . S
H1030 C1034 0.929 . S
H1031 C1040 0.929 . S
C1032 H1026 0.930 . S
C1032 C1033 1.367 . S
C1032 C1040 1.378 . S
C1033 C1032 1.367 . S
C1033 C1041 1.433 . S
C1034 H1030 0.929 . S
C1034 C1036 1.378 . S
C1034 C1038 1.350 . S
C1035 C1038 1.463 . S
C1035 C1040 1.350 . S
C1035 N1043 1.427 . S
C1036 H1027 0.930 . S
C1036 C1034 1.378 . S
C1036 C1037 1.367 . S
C1037 C1036 1.367 . S
C1037 C1039 1.433 . S
C1038 C1034 1.350 . S
C1038 C1035 1.463 . S
C1038 N1042 1.427 . S
C1039 H1029 0.929 . S
C1039 C1037 1.433 . S
C1039 N1042 1.384 . S
C1040 H1031 0.929 . S
C1040 C1032 1.378 . S
C1040 C1035 1.350 . S
C1041 H1028 0.929 1_545 S
C1041 C1033 1.433 . S
C1041 N1043 1.384 . S
N1042 C1038 1.427 . S
N1042 C1039 1.384 . S
N1043 C1035 1.427 . S
N1043 C1041 1.384 . S
H1044 C1050 0.930 . S
H1045 C1054 0.930 . S
H1046 C1059 0.929 . S
H1047 C1057 0.929 . S
H1048 C1052 0.929 . S
H1049 C1058 0.929 . S
C1050 H1044 0.930 . S
C1050 C1051 1.367 . S
C1050 C1058 1.378 . S
C1051 C1050 1.367 . S
C1051 C1059 1.433 . S
C1052 H1048 0.929 . S
C1052 C1054 1.378 . S
C1052 C1056 1.350 . S
C1053 C1056 1.463 . S
C1053 C1058 1.350 . S
C1053 N1061 1.427 . S
C1054 H1045 0.930 . S
C1054 C1052 1.378 . S
C1054 C1055 1.367 . S
C1055 C1054 1.367 . S
C1055 C1057 1.433 . S
C1056 C1052 1.350 . S
C1056 C1053 1.463 . S
C1056 N1060 1.427 . S
C1057 H1047 0.929 . S
C1057 C1055 1.433 . S
C1057 N1060 1.384 . S
C1058 H1049 0.929 . S
C1058 C1050 1.378 . S
C1058 C1053 1.350 . S
C1059 H1046 0.929 . S
C1059 C1051 1.433 . S
C1059 N1061 1.384 . S
N1060 C1056 1.427 . S
N1060 C1057 1.384 . S
N1061 C1053 1.427 . S
N1061 C1059 1.384 . S
H1062 C1068 0.930 . S
H1063 C1072 0.930 . S
H1064 C1077 0.929 . S
H1065 C1075 0.929 . S
H1066 C1070 0.929 . S
H1067 C1076 0.929 . S
C1068 H1062 0.930 . S
C1068 C1069 1.367 . S
C1068 C1076 1.378 . S
C1069 C1068 1.367 . S
C1069 C1077 1.433 . S
C1070 H1066 0.929 . S
C1070 C1072 1.378 . S
C1070 C1074 1.350 . S
C1071 C1074 1.463 . S
C1071 C1076 1.350 . S
C1071 N1079 1.427 . S
C1072 H1063 0.930 . S
C1072 C1070 1.378 . S
C1072 C1073 1.367 . S
C1073 C1072 1.367 . S
C1073 C1075 1.433 . S
C1074 C1070 1.350 . S
C1074 C1071 1.463 . S
C1074 N1078 1.427 . S
C1075 H1065 0.929 . S
C1075 C1073 1.433 . S
C1075 N1078 1.384 . S
C1076 H1067 0.929 . S
C1076 C1068 1.378 . S
C1076 C1071 1.350 . S
C1077 H1064 0.929 . S
C1077 C1069 1.433 . S
C1077 N1079 1.384 . S
N1078 C1074 1.427 . S
N1078 C1075 1.384 . S
N1079 C1071 1.427 . S
N1079 C1077 1.384 . S
H1080 C1086 0.930 . S
H1081 C1090 0.930 . S
H1082 C1095 0.929 . S
H1083 C1093 0.929 . S
H1084 C1088 0.929 . S
H1085 C1094 0.929 . S
C1086 H1080 0.930 . S
C1086 C1087 1.367 . S
C1086 C1094 1.378 . S
C1087 C1086 1.367 . S
C1087 C1095 1.433 . S
C1088 H1084 0.929 . S
C1088 C1090 1.378 . S
C1088 C1092 1.350 . S
C1089 C1092 1.463 . S
C1089 C1094 1.350 . S
C1089 N1097 1.427 . S
C1090 H1081 0.930 . S
C1090 C1088 1.378 . S
C1090 C1091 1.367 . S
C1091 C1090 1.367 . S
C1091 C1093 1.433 . S
C1092 C1088 1.350 . S
C1092 C1089 1.463 . S
C1092 N1096 1.427 . S
C1093 H1083 0.929 . S
C1093 C1091 1.433 . S
C1093 N1096 1.384 . S
C1094 H1085 0.929 . S
C1094 C1086 1.378 . S
C1094 C1089 1.350 . S
C1095 H1082 0.929 . S
C1095 C1087 1.433 . S
C1095 N1097 1.384 . S
N1096 C1092 1.427 . S
N1096 C1093 1.384 . S
N1097 C1089 1.427 . S
N1097 C1095 1.384 . S
H1098 C1104 0.930 . S
H1099 C1108 0.930 . S
H1100 C1113 0.929 . S
H1101 C1111 0.929 . S
H1102 C1106 0.929 . S
H1103 C1112 0.929 . S
C1104 H1098 0.930 . S
C1104 C1105 1.367 . S
C1104 C1112 1.378 . S
C1105 C1104 1.367 . S
C1105 C1113 1.433 . S
C1106 H1102 0.929 . S
C1106 C1108 1.378 . S
C1106 C1110 1.350 . S
C1107 C1110 1.463 . S
C1107 C1112 1.350 . S
C1107 N1115 1.427 . S
C1108 H1099 0.930 . S
C1108 C1106 1.378 . S
C1108 C1109 1.367 . S
C1109 C1108 1.367 . S
C1109 C1111 1.433 . S
C1110 C1106 1.350 . S
C1110 C1107 1.463 . S
C1110 N1114 1.427 . S
C1111 H1101 0.929 . S
C1111 C1109 1.433 . S
C1111 N1114 1.384 . S
C1112 H1103 0.929 . S
C1112 C1104 1.378 . S
C1112 C1107 1.350 . S
C1113 H1100 0.929 . S
C1113 C1105 1.433 . S
C1113 N1115 1.384 . S
N1114 C1110 1.427 . S
N1114 C1111 1.384 . S
N1115 C1107 1.427 . S
N1115 C1113 1.384 . S
H1116 C1122 0.930 . S
H1117 C1126 0.930 . S
H1118 C1131 0.929 . S
H1119 C1129 0.929 . S
H1120 C1124 0.929 . S
H1121 C1130 0.929 . S
C1122 H1116 0.930 . S
C1122 C1123 1.367 . S
C1122 C1130 1.378 . S
C1123 C1122 1.367 . S
C1123 C1131 1.433 . S
C1124 H1120 0.929 . S
C1124 C1126 1.378 . S
C1124 C1128 1.350 . S
C1125 C1128 1.463 . S
C1125 C1130 1.350 . S
C1125 N1133 1.427 . S
C1126 H1117 0.930 . S
C1126 C1124 1.378 . S
C1126 C1127 1.367 . S
C1127 C1126 1.367 . S
C1127 C1129 1.433 . S
C1128 C1124 1.350 . S
C1128 C1125 1.463 . S
C1128 N1132 1.427 . S
C1129 H1119 0.929 . S
C1129 C1127 1.433 . S
C1129 N1132 1.384 . S
C1130 H1121 0.929 . S
C1130 C1122 1.378 . S
C1130 C1125 1.350 . S
C1131 H1118 0.929 . S
C1131 C1123 1.433 . S
C1131 N1133 1.384 . S
N1132 C1128 1.427 . S
N1132 C1129 1.384 . S
N1133 C1125 1.427 . S
N1133 C1131 1.384 . S
H1134 C1140 0.930 . S
H1135 C1144 0.930 . S
H1136 C1149 0.929 . S
H1137 C1147 0.929 . S
H1138 C1142 0.929 . S
H1139 C1148 0.929 . S
C1140 H1134 0.930 . S
C1140 C1141 1.367 . S
C1140 C1148 1.378 . S
C1141 C1140 1.367 . S
C1141 C1149 1.433 . S
C1142 H1138 0.929 . S
C1142 C1144 1.378 . S
C1142 C1146 1.350 . S
C1143 C1146 1.463 . S
C1143 C1148 1.350 . S
C1143 N1151 1.427 . S
C1144 H1135 0.930 . S
C1144 C1142 1.378 . S
C1144 C1145 1.367 . S
C1145 C1144 1.367 . S
C1145 C1147 1.433 . S
C1146 C1142 1.350 . S
C1146 C1143 1.463 . S
C1146 N1150 1.427 . S
C1147 H1137 0.929 . S
C1147 C1145 1.433 . S
C1147 N1150 1.384 . S
C1148 H1139 0.929 . S
C1148 C1140 1.378 . S
C1148 C1143 1.350 . S
C1149 H1136 0.929 . S
C1149 C1141 1.433 . S
C1149 N1151 1.384 . S
N1150 C1146 1.427 . S
N1150 C1147 1.384 . S
N1151 C1143 1.427 . S
N1151 C1149 1.384 . S
H1152 C1158 0.930 . S
H1153 C1162 0.930 . S
H1154 C1167 0.929 . S
H1155 C1165 0.929 . S
H1156 C1160 0.929 . S
H1157 C1166 0.929 . S
C1158 H1152 0.930 . S
C1158 C1159 1.367 . S
C1158 C1166 1.378 . S
C1159 C1158 1.367 . S
C1159 C1167 1.433 . S
C1160 H1156 0.929 . S
C1160 C1162 1.378 . S
C1160 C1164 1.350 . S
C1161 C1164 1.463 . S
C1161 C1166 1.350 . S
C1161 N1169 1.427 . S
C1162 H1153 0.930 . S
C1162 C1160 1.378 . S
C1162 C1163 1.367 . S
C1163 C1162 1.367 . S
C1163 C1165 1.433 . S
C1164 C1160 1.350 . S
C1164 C1161 1.463 . S
C1164 N1168 1.427 . S
C1165 H1155 0.929 . S
C1165 C1163 1.433 . S
C1165 N1168 1.384 . S
C1166 H1157 0.929 . S
C1166 C1158 1.378 . S
C1166 C1161 1.350 . S
C1167 H1154 0.929 . S
C1167 C1159 1.433 . S
C1167 N1169 1.384 . S
N1168 C1164 1.427 . S
N1168 C1165 1.384 . S
N1169 C1161 1.427 . S
N1169 C1167 1.384 . S
H1170 C1176 0.930 . S
H1171 C1180 0.930 . S
H1172 C1185 0.929 . S
H1173 C1183 0.929 . S
H1174 C1178 0.929 . S
H1175 C1184 0.929 . S
C1176 H1170 0.930 . S
C1176 C1177 1.367 . S
C1176 C1184 1.378 . S
C1177 C1176 1.367 . S
C1177 C1185 1.433 . S
C1178 H1174 0.929 . S
C1178 C1180 1.378 . S
C1178 C1182 1.350 . S
C1179 C1182 1.463 . S
C1179 C1184 1.350 . S
C1179 N1187 1.427 . S
C1180 H1171 0.930 . S
C1180 C1178 1.378 . S
C1180 C1181 1.367 . S
C1181 C1180 1.367 . S
C1181 C1183 1.433 . S
C1182 C1178 1.350 . S
C1182 C1179 1.463 . S
C1182 N1186 1.427 . S
C1183 H1173 0.929 . S
C1183 C1181 1.433 . S
C1183 N1186 1.384 . S
C1184 H1175 0.929 . S
C1184 C1176 1.378 . S
C1184 C1179 1.350 . S
C1185 H1172 0.929 . S
C1185 C1177 1.433 . S
C1185 N1187 1.384 . S
N1186 C1182 1.427 . S
N1186 C1183 1.384 . S
N1187 C1179 1.427 . S
N1187 C1185 1.384 . S
H1188 C1194 0.930 . S
H1189 C1198 0.930 . S
H1190 C1203 0.929 . S
H1191 C1201 0.929 . S
H1192 C1196 0.929 . S
H1193 C1202 0.929 . S
C1194 H1188 0.930 . S
C1194 C1195 1.367 . S
C1194 C1202 1.378 . S
C1195 C1194 1.367 . S
C1195 C1203 1.433 . S
C1196 H1192 0.929 . S
C1196 C1198 1.378 . S
C1196 C1200 1.350 . S
C1197 C1200 1.463 . S
C1197 C1202 1.350 . S
C1197 N1205 1.427 . S
C1198 H1189 0.930 . S
C1198 C1196 1.378 . S
C1198 C1199 1.367 . S
C1199 C1198 1.367 . S
C1199 C1201 1.433 . S
C1200 C1196 1.350 . S
C1200 C1197 1.463 . S
C1200 N1204 1.427 . S
C1201 H1191 0.929 . S
C1201 C1199 1.433 . S
C1201 N1204 1.384 . S
C1202 H1193 0.929 . S
C1202 C1194 1.378 . S
C1202 C1197 1.350 . S
C1203 H1190 0.929 . S
C1203 C1195 1.433 . S
C1203 N1205 1.384 . S
N1204 C1200 1.427 . S
N1204 C1201 1.384 . S
N1205 C1197 1.427 . S
N1205 C1203 1.384 . S
H1206 C1212 0.930 . S
H1207 C1216 0.930 . S
H1208 C1221 0.929 . S
H1209 C1219 0.929 . S
H1210 C1214 0.929 . S
H1211 C1220 0.929 . S
C1212 H1206 0.930 . S
C1212 C1213 1.367 . S
C1212 C1220 1.378 . S
C1213 C1212 1.367 . S
C1213 C1221 1.433 . S
C1214 H1210 0.929 . S
C1214 C1216 1.378 . S
C1214 C1218 1.350 . S
C1215 C1218 1.463 . S
C1215 C1220 1.350 . S
C1215 N1223 1.427 . S
C1216 H1207 0.930 . S
C1216 C1214 1.378 . S
C1216 C1217 1.367 . S
C1217 C1216 1.367 . S
C1217 C1219 1.433 . S
C1218 C1214 1.350 . S
C1218 C1215 1.463 . S
C1218 N1222 1.427 . S
C1219 H1209 0.929 . S
C1219 C1217 1.433 . S
C1219 N1222 1.384 . S
C1220 H1211 0.929 . S
C1220 C1212 1.378 . S
C1220 C1215 1.350 . S
C1221 H1208 0.929 . S
C1221 C1213 1.433 . S
C1221 N1223 1.384 . S
N1222 C1218 1.427 . S
N1222 C1219 1.384 . S
N1223 C1215 1.427 . S
N1223 C1221 1.384 . S
H1224 C1230 0.930 . S
H1225 C1234 0.930 . S
H1226 C1239 0.929 . S
H1227 C1237 0.929 . S
H1228 C1232 0.929 . S
H1229 C1238 0.929 . S
C1230 H1224 0.930 . S
C1230 C1231 1.367 . S
C1230 C1238 1.378 . S
C1231 C1230 1.367 . S
C1231 C1239 1.433 . S
C1232 H1228 0.929 . S
C1232 C1234 1.378 . S
C1232 C1236 1.350 . S
C1233 C1236 1.463 . S
C1233 C1238 1.350 . S
C1233 N1241 1.427 . S
C1234 H1225 0.930 . S
C1234 C1232 1.378 . S
C1234 C1235 1.367 . S
C1235 C1234 1.367 . S
C1235 C1237 1.433 . S
C1236 C1232 1.350 . S
C1236 C1233 1.463 . S
C1236 N1240 1.427 . S
C1237 H1227 0.929 . S
C1237 C1235 1.433 . S
C1237 N1240 1.384 . S
C1238 H1229 0.929 . S
C1238 C1230 1.378 . S
C1238 C1233 1.350 . S
C1239 H1226 0.929 . S
C1239 C1231 1.433 . S
C1239 N1241 1.384 . S
N1240 C1236 1.427 . S
N1240 C1237 1.384 . S
N1241 C1233 1.427 . S
N1241 C1239 1.384 . S
H1242 C1248 0.930 . S
H1243 C1252 0.930 . S
H1244 C1257 0.929 . S
H1245 C1255 0.929 . S
H1246 C1250 0.929 . S
H1247 C1256 0.929 . S
C1248 H1242 0.930 . S
C1248 C1249 1.367 . S
C1248 C1256 1.378 . S
C1249 C1248 1.367 . S
C1249 C1257 1.433 . S
C1250 H1246 0.929 . S
C1250 C1252 1.378 . S
C1250 C1254 1.350 . S
C1251 C1254 1.463 . S
C1251 C1256 1.350 . S
C1251 N1259 1.427 . S
C1252 H1243 0.930 . S
C1252 C1250 1.378 . S
C1252 C1253 1.367 . S
C1253 C1252 1.367 . S
C1253 C1255 1.433 . S
C1254 C1250 1.350 . S
C1254 C1251 1.463 . S
C1254 N1258 1.427 . S
C1255 H1245 0.929 . S
C1255 C1253 1.433 . S
C1255 N1258 1.384 . S
C1256 H1247 0.929 . S
C1256 C1248 1.378 . S
C1256 C1251 1.350 . S
C1257 H1244 0.929 . S
C1257 C1249 1.433 . S
C1257 N1259 1.384 . S
N1258 C1254 1.427 . S
N1258 C1255 1.384 . S
N1259 C1251 1.427 . S
N1259 C1257 1.384 . S
H1260 C1266 0.930 . S
H1261 C1270 0.930 . S
H1262 C1275 0.929 . S
H1263 C1273 0.929 . S
H1264 C1268 0.929 . S
H1265 C1274 0.929 . S
C1266 H1260 0.930 . S
C1266 C1267 1.367 . S
C1266 C1274 1.378 . S
C1267 C1266 1.367 . S
C1267 C1275 1.433 . S
C1268 H1264 0.929 . S
C1268 C1270 1.378 . S
C1268 C1272 1.350 . S
C1269 C1272 1.463 . S
C1269 C1274 1.350 . S
C1269 N1277 1.427 . S
C1270 H1261 0.930 . S
C1270 C1268 1.378 . S
C1270 C1271 1.367 . S
C1271 C1270 1.367 . S
C1271 C1273 1.433 . S
C1272 C1268 1.350 . S
C1272 C1269 1.463 . S
C1272 N1276 1.427 . S
C1273 H1263 0.929 . S
C1273 C1271 1.433 . S
C1273 N1276 1.384 . S
C1274 H1265 0.929 . S
C1274 C1266 1.378 . S
C1274 C1269 1.350 . S
C1275 H1262 0.929 . S
C1275 C1267 1.433 . S
C1275 N1277 1.384 . S
N1276 C1272 1.427 . S
N1276 C1273 1.384 . S
N1277 C1269 1.427 . S
N1277 C1275 1.384 . S
H1278 C1284 0.930 . S
H1279 C1288 0.930 . S
H1280 C1293 0.929 . S
H1281 C1291 0.929 . S
H1282 C1286 0.929 . S
H1283 C1292 0.929 . S
C1284 H1278 0.930 . S
C1284 C1285 1.367 . S
C1284 C1292 1.378 . S
C1285 C1284 1.367 . S
C1285 C1293 1.433 . S
C1286 H1282 0.929 . S
C1286 C1288 1.378 . S
C1286 C1290 1.350 . S
C1287 C1290 1.463 . S
C1287 C1292 1.350 . S
C1287 N1295 1.427 . S
C1288 H1279 0.930 . S
C1288 C1286 1.378 . S
C1288 C1289 1.367 . S
C1289 C1288 1.367 . S
C1289 C1291 1.433 . S
C1290 C1286 1.350 . S
C1290 C1287 1.463 . S
C1290 N1294 1.427 . S
C1291 H1281 0.929 . S
C1291 C1289 1.433 . S
C1291 N1294 1.384 . S
C1292 H1283 0.929 . S
C1292 C1284 1.378 . S
C1292 C1287 1.350 . S
C1293 H1280 0.929 . S
C1293 C1285 1.433 . S
C1293 N1295 1.384 . S
N1294 C1290 1.427 . S
N1294 C1291 1.384 . S
N1295 C1287 1.427 . S
N1295 C1293 1.384 . S
H1296 C1302 0.930 . S
H1297 C1306 0.930 . S
H1298 C1311 0.929 . S
H1299 C1309 0.929 . S
H1300 C1304 0.929 . S
H1301 C1310 0.929 . S
C1302 H1296 0.930 . S
C1302 C1303 1.367 . S
C1302 C1310 1.378 . S
C1303 C1302 1.367 . S
C1303 C1311 1.433 . S
C1304 H1300 0.929 . S
C1304 C1306 1.378 . S
C1304 C1308 1.350 . S
C1305 C1308 1.463 . S
C1305 C1310 1.350 . S
C1305 N1313 1.427 . S
C1306 H1297 0.930 . S
C1306 C1304 1.378 . S
C1306 C1307 1.367 . S
C1307 C1306 1.367 . S
C1307 C1309 1.433 . S
C1308 C1304 1.350 . S
C1308 C1305 1.463 . S
C1308 N1312 1.427 . S
C1309 H1299 0.929 . S
C1309 C1307 1.433 . S
C1309 N1312 1.384 . S
C1310 H1301 0.929 . S
C1310 C1302 1.378 . S
C1310 C1305 1.350 . S
C1311 H1298 0.929 . S
C1311 C1303 1.433 . S
C1311 N1313 1.384 . S
N1312 C1308 1.427 . S
N1312 C1309 1.384 . S
N1313 C1305 1.427 . S
N1313 C1311 1.384 . S
H1314 C1320 0.930 . S
H1315 C1324 0.930 . S
H1316 C1329 0.929 . S
H1317 C1327 0.929 . S
H1318 C1322 0.929 . S
H1319 C1328 0.929 . S
C1320 H1314 0.930 . S
C1320 C1321 1.367 . S
C1320 C1328 1.378 . S
C1321 C1320 1.367 . S
C1321 C1329 1.433 . S
C1322 H1318 0.929 . S
C1322 C1324 1.378 . S
C1322 C1326 1.350 . S
C1323 C1326 1.463 . S
C1323 C1328 1.350 . S
C1323 N1331 1.427 . S
C1324 H1315 0.930 . S
C1324 C1322 1.378 . S
C1324 C1325 1.367 . S
C1325 C1324 1.367 . S
C1325 C1327 1.433 . S
C1326 C1322 1.350 . S
C1326 C1323 1.463 . S
C1326 N1330 1.427 . S
C1327 H1317 0.929 . S
C1327 C1325 1.433 . S
C1327 N1330 1.384 . S
C1328 H1319 0.929 . S
C1328 C1320 1.378 . S
C1328 C1323 1.350 . S
C1329 H1316 0.929 . S
C1329 C1321 1.433 . S
C1329 N1331 1.384 . S
N1330 C1326 1.427 . S
N1330 C1327 1.384 . S
N1331 C1323 1.427 . S
N1331 C1329 1.384 . S
H1332 C1338 0.930 . S
H1333 C1342 0.930 . S
H1334 C1347 0.929 . S
H1335 C1345 0.929 . S
H1336 C1340 0.929 . S
H1337 C1346 0.929 . S
C1338 H1332 0.930 . S
C1338 C1339 1.367 . S
C1338 C1346 1.378 . S
C1339 C1338 1.367 . S
C1339 C1347 1.433 . S
C1340 H1336 0.929 . S
C1340 C1342 1.378 . S
C1340 C1344 1.350 . S
C1341 C1344 1.463 . S
C1341 C1346 1.350 . S
C1341 N1349 1.427 . S
C1342 H1333 0.930 . S
C1342 C1340 1.378 . S
C1342 C1343 1.367 . S
C1343 C1342 1.367 . S
C1343 C1345 1.433 . S
C1344 C1340 1.350 . S
C1344 C1341 1.463 . S
C1344 N1348 1.427 . S
C1345 H1335 0.929 . S
C1345 C1343 1.433 . S
C1345 N1348 1.384 . S
C1346 H1337 0.929 . S
C1346 C1338 1.378 . S
C1346 C1341 1.350 . S
C1347 H1334 0.929 . S
C1347 C1339 1.433 . S
C1347 N1349 1.384 . S
N1348 C1344 1.427 . S
N1348 C1345 1.384 . S
N1349 C1341 1.427 . S
N1349 C1347 1.384 . S
H1350 C1356 0.930 . S
H1351 C1360 0.930 . S
H1352 C1365 0.929 . S
H1353 C1363 0.929 . S
H1354 C1358 0.929 . S
H1355 C1364 0.929 . S
C1356 H1350 0.930 . S
C1356 C1357 1.367 . S
C1356 C1364 1.378 . S
C1357 C1356 1.367 . S
C1357 C1365 1.433 . S
C1358 H1354 0.929 . S
C1358 C1360 1.378 . S
C1358 C1362 1.350 . S
C1359 C1362 1.463 . S
C1359 C1364 1.350 . S
C1359 N1367 1.427 . S
C1360 H1351 0.930 . S
C1360 C1358 1.378 . S
C1360 C1361 1.367 . S
C1361 C1360 1.367 . S
C1361 C1363 1.433 . S
C1362 C1358 1.350 . S
C1362 C1359 1.463 . S
C1362 N1366 1.427 . S
C1363 H1353 0.929 . S
C1363 C1361 1.433 . S
C1363 N1366 1.384 . S
C1364 H1355 0.929 . S
C1364 C1356 1.378 . S
C1364 C1359 1.350 . S
C1365 H1352 0.929 . S
C1365 C1357 1.433 . S
C1365 N1367 1.384 . S
N1366 C1362 1.427 . S
N1366 C1363 1.384 . S
N1367 C1359 1.427 . S
N1367 C1365 1.384 . S
H1368 C1374 0.930 . S
H1369 C1378 0.930 . S
H1370 C1383 0.929 . S
H1371 C1381 0.929 . S
H1372 C1376 0.929 . S
H1373 C1382 0.929 . S
C1374 H1368 0.930 . S
C1374 C1375 1.367 . S
C1374 C1382 1.378 . S
C1375 C1374 1.367 . S
C1375 C1383 1.433 . S
C1376 H1372 0.929 . S
C1376 C1378 1.378 . S
C1376 C1380 1.350 . S
C1377 C1380 1.463 . S
C1377 C1382 1.350 . S
C1377 N1385 1.427 . S
C1378 H1369 0.930 . S
C1378 C1376 1.378 . S
C1378 C1379 1.367 . S
C1379 C1378 1.367 . S
C1379 C1381 1.433 . S
C1380 C1376 1.350 . S
C1380 C1377 1.463 . S
C1380 N1384 1.427 . S
C1381 H1371 0.929 . S
C1381 C1379 1.433 . S
C1381 N1384 1.384 . S
C1382 H1373 0.929 . S
C1382 C1374 1.378 . S
C1382 C1377 1.350 . S
C1383 H1370 0.929 . S
C1383 C1375 1.433 . S
C1383 N1385 1.384 . S
N1384 C1380 1.427 . S
N1384 C1381 1.384 . S
N1385 C1377 1.427 . S
N1385 C1383 1.384 . S
H1386 C1392 0.930 . S
H1387 C1396 0.930 . S
H1388 C1401 0.929 . S
H1389 C1399 0.929 . S
H1390 C1394 0.929 . S
H1391 C1400 0.929 . S
C1392 H1386 0.930 . S
C1392 C1393 1.367 . S
C1392 C1400 1.378 . S
C1393 C1392 1.367 . S
C1393 C1401 1.433 . S
C1394 H1390 0.929 . S
C1394 C1396 1.378 . S
C1394 C1398 1.350 . S
C1395 C1398 1.463 . S
C1395 C1400 1.350 . S
C1395 N1403 1.427 . S
C1396 H1387 0.930 . S
C1396 C1394 1.378 . S
C1396 C1397 1.367 . S
C1397 C1396 1.367 . S
C1397 C1399 1.433 . S
C1398 C1394 1.350 . S
C1398 C1395 1.463 . S
C1398 N1402 1.427 . S
C1399 H1389 0.929 . S
C1399 C1397 1.433 . S
C1399 N1402 1.384 . S
C1400 H1391 0.929 . S
C1400 C1392 1.378 . S
C1400 C1395 1.350 . S
C1401 H1388 0.929 . S
C1401 C1393 1.433 . S
C1401 N1403 1.384 . S
N1402 C1398 1.427 . S
N1402 C1399 1.384 . S
N1403 C1395 1.427 . S
N1403 C1401 1.384 . S
H1404 C1410 0.930 . S
H1405 C1414 0.930 . S
H1406 C1419 0.929 . S
H1407 C1417 0.929 . S
H1408 C1412 0.929 . S
H1409 C1418 0.929 . S
C1410 H1404 0.930 . S
C1410 C1411 1.367 . S
C1410 C1418 1.378 . S
C1411 C1410 1.367 . S
C1411 C1419 1.433 . S
C1412 H1408 0.929 . S
C1412 C1414 1.378 . S
C1412 C1416 1.350 . S
C1413 C1416 1.463 . S
C1413 C1418 1.350 . S
C1413 N1421 1.427 . S
C1414 H1405 0.930 . S
C1414 C1412 1.378 . S
C1414 C1415 1.367 . S
C1415 C1414 1.367 . S
C1415 C1417 1.433 . S
C1416 C1412 1.350 . S
C1416 C1413 1.463 . S
C1416 N1420 1.427 . S
C1417 H1407 0.929 . S
C1417 C1415 1.433 . S
C1417 N1420 1.384 . S
C1418 H1409 0.929 . S
C1418 C1410 1.378 . S
C1418 C1413 1.350 . S
C1419 H1406 0.929 . S
C1419 C1411 1.433 . S
C1419 N1421 1.384 . S
N1420 C1416 1.427 . S
N1420 C1417 1.384 . S
N1421 C1413 1.427 . S
N1421 C1419 1.384 . S
H1422 C1428 0.930 . S
H1423 C1432 0.930 . S
H1424 C1437 0.929 . S
H1425 C1435 0.929 . S
H1426 C1430 0.929 . S
H1427 C1436 0.929 . S
C1428 H1422 0.930 . S
C1428 C1429 1.367 . S
C1428 C1436 1.378 . S
C1429 C1428 1.367 . S
C1429 C1437 1.433 . S
C1430 H1426 0.929 . S
C1430 C1432 1.378 . S
C1430 C1434 1.350 . S
C1431 C1434 1.463 . S
C1431 C1436 1.350 . S
C1431 N1439 1.427 . S
C1432 H1423 0.930 . S
C1432 C1430 1.378 . S
C1432 C1433 1.367 . S
C1433 C1432 1.367 . S
C1433 C1435 1.433 . S
C1434 C1430 1.350 . S
C1434 C1431 1.463 . S
C1434 N1438 1.427 . S
C1435 H1425 0.929 . S
C1435 C1433 1.433 . S
C1435 N1438 1.384 . S
C1436 H1427 0.929 . S
C1436 C1428 1.378 . S
C1436 C1431 1.350 . S
C1437 H1424 0.929 . S
C1437 C1429 1.433 . S
C1437 N1439 1.384 . S
N1438 C1434 1.427 . S
N1438 C1435 1.384 . S
N1439 C1431 1.427 . S
N1439 C1437 1.384 . S
H1440 C1446 0.930 . S
H1441 C1450 0.930 . S
H1442 C1455 0.929 . S
H1443 C1453 0.929 . S
H1444 C1448 0.929 . S
H1445 C1454 0.929 . S
C1446 H1440 0.930 . S
C1446 C1447 1.367 . S
C1446 C1454 1.378 . S
C1447 C1446 1.367 . S
C1447 C1455 1.433 . S
C1448 H1444 0.929 . S
C1448 C1450 1.378 . S
C1448 C1452 1.350 . S
C1449 C1452 1.463 . S
C1449 C1454 1.350 . S
C1449 N1457 1.427 . S
C1450 H1441 0.930 . S
C1450 C1448 1.378 . S
C1450 C1451 1.367 . S
C1451 C1450 1.367 . S
C1451 C1453 1.433 . S
C1452 C1448 1.350 . S
C1452 C1449 1.463 . S
C1452 N1456 1.427 . S
C1453 H1443 0.929 . S
C1453 C1451 1.433 . S
C1453 N1456 1.384 . S
C1454 H1445 0.929 . S
C1454 C1446 1.378 . S
C1454 C1449 1.350 . S
C1455 H1442 0.929 . S
C1455 C1447 1.433 . S
C1455 N1457 1.384 . S
N1456 C1452 1.427 . S
N1456 C1453 1.384 . S
N1457 C1449 1.427 . S
N1457 C1455 1.384 . S
H1458 C1464 0.930 . S
H1459 C1468 0.930 . S
H1460 C1473 0.929 . S
H1461 C1471 0.929 . S
H1462 C1466 0.929 . S
H1463 C1472 0.929 . S
C1464 H1458 0.930 . S
C1464 C1465 1.367 . S
C1464 C1472 1.378 . S
C1465 C1464 1.367 . S
C1465 C1473 1.433 . S
C1466 H1462 0.929 . S
C1466 C1468 1.378 . S
C1466 C1470 1.350 . S
C1467 C1470 1.463 . S
C1467 C1472 1.350 . S
C1467 N1475 1.427 . S
C1468 H1459 0.930 . S
C1468 C1466 1.378 . S
C1468 C1469 1.367 . S
C1469 C1468 1.367 . S
C1469 C1471 1.433 . S
C1470 C1466 1.350 . S
C1470 C1467 1.463 . S
C1470 N1474 1.427 . S
C1471 H1461 0.929 . S
C1471 C1469 1.433 . S
C1471 N1474 1.384 . S
C1472 H1463 0.929 . S
C1472 C1464 1.378 . S
C1472 C1467 1.350 . S
C1473 H1460 0.929 . S
C1473 C1465 1.433 . S
C1473 N1475 1.384 . S
N1474 C1470 1.427 . S
N1474 C1471 1.384 . S
N1475 C1467 1.427 . S
N1475 C1473 1.384 . S
H1476 C1482 0.930 . S
H1477 C1486 0.930 . S
H1478 C1491 0.929 . S
H1479 C1489 0.929 . S
H1480 C1484 0.929 . S
H1481 C1490 0.929 . S
C1482 H1476 0.930 . S
C1482 C1483 1.367 . S
C1482 C1490 1.378 . S
C1483 C1482 1.367 . S
C1483 C1491 1.433 . S
C1484 H1480 0.929 . S
C1484 C1486 1.378 . S
C1484 C1488 1.350 . S
C1485 C1488 1.463 . S
C1485 C1490 1.350 . S
C1485 N1493 1.427 . S
C1486 H1477 0.930 . S
C1486 C1484 1.378 . S
C1486 C1487 1.367 . S
C1487 C1486 1.367 . S
C1487 C1489 1.433 . S
C1488 C1484 1.350 . S
C1488 C1485 1.463 . S
C1488 N1492 1.427 . S
C1489 H1479 0.929 . S
C1489 C1487 1.433 . S
C1489 N1492 1.384 . S
C1490 H1481 0.929 . S
C1490 C1482 1.378 . S
C1490 C1485 1.350 . S
C1491 H1478 0.929 . S
C1491 C1483 1.433 . S
C1491 N1493 1.384 . S
N1492 C1488 1.427 . S
N1492 C1489 1.384 . S
N1493 C1485 1.427 . S
N1493 C1491 1.384 . S
H1494 C1500 0.930 . S
H1495 C1504 0.930 . S
H1496 C1509 0.929 . S
H1497 C1507 0.929 . S
H1498 C1502 0.929 . S
H1499 C1508 0.929 . S
C1500 H1494 0.930 . S
C1500 C1501 1.367 . S
C1500 C1508 1.378 . S
C1501 C1500 1.367 . S
C1501 C1509 1.433 . S
C1502 H1498 0.929 . S
C1502 C1504 1.378 . S
C1502 C1506 1.350 . S
C1503 C1506 1.463 . S
C1503 C1508 1.350 . S
C1503 N1511 1.427 . S
C1504 H1495 0.930 . S
C1504 C1502 1.378 . S
C1504 C1505 1.367 1_565 S
C1505 C1504 1.367 1_545 S
C1505 C1507 1.433 . S
C1506 C1502 1.350 . S
C1506 C1503 1.463 . S
C1506 N1510 1.427 1_565 S
C1507 H1497 0.929 . S
C1507 C1505 1.433 . S
C1507 N1510 1.384 . S
C1508 H1499 0.929 . S
C1508 C1500 1.378 . S
C1508 C1503 1.350 . S
C1509 H1496 0.929 . S
C1509 C1501 1.433 . S
C1509 N1511 1.384 . S
N1510 C1506 1.427 1_545 S
N1510 C1507 1.384 . S
N1511 C1503 1.427 . S
N1511 C1509 1.384 . S
H1512 C1518 0.930 . S
H1513 C1522 0.930 . S
H1514 C1527 0.929 . S
H1515 C1525 0.929 . S
H1516 C1520 0.929 . S
H1517 C1526 0.929 . S
C1518 H1512 0.930 . S
C1518 C1519 1.367 . S
C1518 C1526 1.378 . S
C1519 C1518 1.367 . S
C1519 C1527 1.433 1_655 S
C1520 H1516 0.929 . S
C1520 C1522 1.378 . S
C1520 C1524 1.350 . S
C1521 C1524 1.463 . S
C1521 C1526 1.350 1_455 S
C1521 N1529 1.427 . S
C1522 H1513 0.930 . S
C1522 C1520 1.378 . S
C1522 C1523 1.367 . S
C1523 C1522 1.367 . S
C1523 C1525 1.433 . S
C1524 C1520 1.350 . S
C1524 C1521 1.463 . S
C1524 N1528 1.427 . S
C1525 H1515 0.929 . S
C1525 C1523 1.433 . S
C1525 N1528 1.384 . S
C1526 H1517 0.929 . S
C1526 C1518 1.378 . S
C1526 C1521 1.350 1_655 S
C1527 H1514 0.929 . S
C1527 C1519 1.433 1_455 S
C1527 N1529 1.384 . S
N1528 C1524 1.427 . S
N1528 C1525 1.384 . S
N1529 C1521 1.427 . S
N1529 C1527 1.384 . S
H1530 C1536 0.930 . S
H1531 C1540 0.930 . S
H1532 C1545 0.929 . S
H1533 C1543 0.929 . S
H1534 C1538 0.929 . S
H1535 C1544 0.929 . S
C1536 H1530 0.930 . S
C1536 C1537 1.367 . S
C1536 C1544 1.378 . S
C1537 C1536 1.367 . S
C1537 C1545 1.433 . S
C1538 H1534 0.929 . S
C1538 C1540 1.378 . S
C1538 C1542 1.350 . S
C1539 C1542 1.463 . S
C1539 C1544 1.350 . S
C1539 N1547 1.427 . S
C1540 H1531 0.930 . S
C1540 C1538 1.378 . S
C1540 C1541 1.367 . S
C1541 C1540 1.367 . S
C1541 C1543 1.433 . S
C1542 C1538 1.350 . S
C1542 C1539 1.463 . S
C1542 N1546 1.427 . S
C1543 H1533 0.929 . S
C1543 C1541 1.433 . S
C1543 N1546 1.384 . S
C1544 H1535 0.929 . S
C1544 C1536 1.378 . S
C1544 C1539 1.350 . S
C1545 H1532 0.929 . S
C1545 C1537 1.433 . S
C1545 N1547 1.384 . S
N1546 C1542 1.427 . S
N1546 C1543 1.384 . S
N1547 C1539 1.427 . S
N1547 C1545 1.384 . S
H1548 C1554 0.930 . S
H1549 C1558 0.930 . S
H1550 C1563 0.929 . S
H1551 C1561 0.929 . S
H1552 C1556 0.929 . S
H1553 C1562 0.922 1_565 S
C1554 H1548 0.930 . S
C1554 C1555 1.367 . S
C1554 C1562 1.378 . S
C1555 C1554 1.367 . S
C1555 C1563 1.433 . S
C1556 H1552 0.929 . S
C1556 C1558 1.378 . S
C1556 C1560 1.350 . S
C1557 C1560 1.463 . S
C1557 C1562 1.350 . S
C1557 N1565 1.427 . S
C1558 H1549 0.930 . S
C1558 C1556 1.378 . S
C1558 C1559 1.367 1_545 S
C1559 C1558 1.367 1_565 S
C1559 C1561 1.433 . S
C1560 C1556 1.350 . S
C1560 C1557 1.463 . S
C1560 N1564 1.427 1_545 S
C1561 H1551 0.929 . S
C1561 C1559 1.433 . S
C1561 N1564 1.384 . S
C1562 H1553 0.922 1_545 S
C1562 C1554 1.378 . S
C1562 C1557 1.350 . S
C1563 H1550 0.929 . S
C1563 C1555 1.433 . S
C1563 N1565 1.384 . S
N1564 C1560 1.427 1_565 S
N1564 C1561 1.384 . S
N1565 C1557 1.427 . S
N1565 C1563 1.384 . S
H1566 C1572 0.930 . S
H1567 C1576 0.930 . S
H1568 C1581 0.929 . S
H1569 C1579 0.929 . S
H1570 C1574 0.929 . S
H1571 C1580 0.929 . S
C1572 H1566 0.930 . S
C1572 C1573 1.367 . S
C1572 C1580 1.378 1_455 S
C1573 C1572 1.367 . S
C1573 C1581 1.433 1_455 S
C1574 H1570 0.929 . S
C1574 C1576 1.378 . S
C1574 C1578 1.350 . S
C1575 C1578 1.463 . S
C1575 C1580 1.350 . S
C1575 N1583 1.427 . S
C1576 H1567 0.930 . S
C1576 C1574 1.378 . S
C1576 C1577 1.367 . S
C1577 C1576 1.367 . S
C1577 C1579 1.433 . S
C1578 C1574 1.350 . S
C1578 C1575 1.463 . S
C1578 N1582 1.427 . S
C1579 H1569 0.929 . S
C1579 C1577 1.433 . S
C1579 N1582 1.384 . S
C1580 H1571 0.929 . S
C1580 C1572 1.378 1_655 S
C1580 C1575 1.350 . S
C1581 H1568 0.929 . S
C1581 C1573 1.433 1_655 S
C1581 N1583 1.384 . S
N1582 C1578 1.427 . S
N1582 C1579 1.384 . S
N1583 C1575 1.427 . S
N1583 C1581 1.384 . S
H1584 C1590 0.930 . S
H1585 C1594 0.930 . S
H1586 C1599 0.929 . S
H1587 C1597 0.929 . S
H1588 C1592 0.929 . S
H1589 C1598 0.929 . S
C1590 H1584 0.930 . S
C1590 C1591 1.367 . S
C1590 C1598 1.378 . S
C1591 C1590 1.367 . S
C1591 C1599 1.433 . S
C1592 H1588 0.929 . S
C1592 C1594 1.378 . S
C1592 C1596 1.350 . S
C1593 C1596 1.463 . S
C1593 C1598 1.350 . S
C1593 N1601 1.427 . S
C1594 H1585 0.930 . S
C1594 C1592 1.378 . S
C1594 C1595 1.367 . S
C1595 C1594 1.367 . S
C1595 C1597 1.433 . S
C1596 C1592 1.350 . S
C1596 C1593 1.463 . S
C1596 N1600 1.427 . S
C1597 H1587 0.929 . S
C1597 C1595 1.433 . S
C1597 N1600 1.384 . S
C1598 H1589 0.929 . S
C1598 C1590 1.378 . S
C1598 C1593 1.350 . S
C1599 H1586 0.929 . S
C1599 C1591 1.433 . S
C1599 N1601 1.384 . S
N1600 C1596 1.427 . S
N1600 C1597 1.384 . S
N1601 C1593 1.427 . S
N1601 C1599 1.384 . S
H1602 C1608 0.930 . S
H1603 C1612 0.930 . S
H1604 C1617 0.929 . S
H1605 C1615 0.929 . S
H1606 C1610 0.929 . S
H1607 C1616 0.929 . S
C1608 H1602 0.930 . S
C1608 C1609 1.367 . S
C1608 C1616 1.378 . S
C1609 C1608 1.367 . S
C1609 C1617 1.433 1_565 S
C1610 H1606 0.929 . S
C1610 C1612 1.378 . S
C1610 C1614 1.350 . S
C1611 C1614 1.463 . S
C1611 C1616 1.350 1_545 S
C1611 N1619 1.427 . S
C1612 H1603 0.930 . S
C1612 C1610 1.378 . S
C1612 C1613 1.367 . S
C1613 C1612 1.367 . S
C1613 C1615 1.433 . S
C1614 C1610 1.350 . S
C1614 C1611 1.463 . S
C1614 N1618 1.427 . S
C1615 H1605 0.929 . S
C1615 C1613 1.433 . S
C1615 N1618 1.384 . S
C1616 H1607 0.929 . S
C1616 C1608 1.378 . S
C1616 C1611 1.350 1_565 S
C1617 H1604 0.929 . S
C1617 C1609 1.433 1_545 S
C1617 N1619 1.384 . S
N1618 C1614 1.427 . S
N1618 C1615 1.384 . S
N1619 C1611 1.427 . S
N1619 C1617 1.384 . S
H1620 C1626 0.930 . S
H1621 C1630 0.930 . S
H1622 C1635 0.919 1_455 S
H1623 C1633 0.929 . S
H1624 C1628 0.929 . S
H1625 C1634 0.929 . S
C1626 H1620 0.930 . S
C1626 C1627 1.367 . S
C1626 C1634 1.378 1_455 S
C1627 C1626 1.367 . S
C1627 C1635 1.423 1_455 S
C1628 H1624 0.929 . S
C1628 C1630 1.378 . S
C1628 C1632 1.350 . S
C1629 C1632 1.463 . S
C1629 C1634 1.350 . S
C1629 N1637 1.427 . S
C1630 H1621 0.930 . S
C1630 C1628 1.378 . S
C1630 C1631 1.367 . S
C1631 C1630 1.367 . S
C1631 C1633 1.433 . S
C1632 C1628 1.350 . S
C1632 C1629 1.463 . S
C1632 N1636 1.427 . S
C1633 H1623 0.929 . S
C1633 C1631 1.433 . S
C1633 N1636 1.384 . S
C1634 H1625 0.929 . S
C1634 C1626 1.378 1_655 S
C1634 C1629 1.350 . S
C1635 H1622 0.919 1_655 S
C1635 C1627 1.423 1_655 S
C1635 N1637 1.405 . S
N1636 C1632 1.427 . S
N1636 C1633 1.384 . S
N1637 C1629 1.427 . S
N1637 C1635 1.405 . S
H1638 C1644 0.930 . S
H1639 C1648 0.930 . S
H1640 C1653 0.929 . S
H1641 C1651 0.929 . S
H1642 C1646 0.929 . S
H1643 C1652 0.929 . S
C1644 H1638 0.930 . S
C1644 C1645 1.367 . S
C1644 C1652 1.378 . S
C1645 C1644 1.367 . S
C1645 C1653 1.433 . S
C1646 H1642 0.929 . S
C1646 C1648 1.378 . S
C1646 C1650 1.350 . S
C1647 C1650 1.463 . S
C1647 C1652 1.350 . S
C1647 N1655 1.427 . S
C1648 H1639 0.930 . S
C1648 C1646 1.378 . S
C1648 C1649 1.367 . S
C1649 C1648 1.367 . S
C1649 C1651 1.433 . S
C1650 C1646 1.350 . S
C1650 C1647 1.463 . S
C1650 N1654 1.427 . S
C1651 H1641 0.929 . S
C1651 C1649 1.433 . S
C1651 N1654 1.384 . S
C1652 H1643 0.929 . S
C1652 C1644 1.378 . S
C1652 C1647 1.350 . S
C1653 H1640 0.929 . S
C1653 C1645 1.433 . S
C1653 N1655 1.384 . S
N1654 C1650 1.427 . S
N1654 C1651 1.384 . S
N1655 C1647 1.427 . S
N1655 C1653 1.384 . S
H1656 C1662 0.930 . S
H1657 C1666 0.930 . S
H1658 C1671 0.929 . S
H1659 C1669 0.929 . S
H1660 C1664 0.929 . S
H1661 C1670 0.929 . S
C1662 H1656 0.930 . S
C1662 C1663 1.367 1_565 S
C1662 C1670 1.378 . S
C1663 C1662 1.367 1_545 S
C1663 C1671 1.433 . S
C1664 H1660 0.929 . S
C1664 C1666 1.378 . S
C1664 C1668 1.350 . S
C1665 C1668 1.463 . S
C1665 C1670 1.350 . S
C1665 N1673 1.427 . S
C1666 H1657 0.930 . S
C1666 C1664 1.378 . S
C1666 C1667 1.367 . S
C1667 C1666 1.367 . S
C1667 C1669 1.433 . S
C1668 C1664 1.350 . S
C1668 C1665 1.463 . S
C1668 N1672 1.427 . S
C1669 H1659 0.929 . S
C1669 C1667 1.433 . S
C1669 N1672 1.384 . S
C1670 H1661 0.929 . S
C1670 C1662 1.378 . S
C1670 C1665 1.350 . S
C1671 H1658 0.929 . S
C1671 C1663 1.433 . S
C1671 N1673 1.384 1_545 S
N1672 C1668 1.427 . S
N1672 C1669 1.384 . S
N1673 C1665 1.427 . S
N1673 C1671 1.384 1_565 S
H1674 C1680 0.930 . S
H1675 C1684 0.930 . S
H1676 C1689 0.929 . S
H1677 C1687 0.929 . S
H1678 C1682 0.929 . S
H1679 C1688 0.929 . S
C1680 H1674 0.930 . S
C1680 C1681 1.367 . S
C1680 C1688 1.378 . S
C1681 C1680 1.367 . S
C1681 C1689 1.433 . S
C1682 H1678 0.929 . S
C1682 C1684 1.378 . S
C1682 C1686 1.350 . S
C1683 C1686 1.463 . S
C1683 C1688 1.350 . S
C1683 N1691 1.427 . S
C1684 H1675 0.930 . S
C1684 C1682 1.378 . S
C1684 C1685 1.367 1_455 S
C1685 C1684 1.367 1_655 S
C1685 C1687 1.433 . S
C1686 C1682 1.350 . S
C1686 C1683 1.463 . S
C1686 N1690 1.427 1_455 S
C1687 H1677 0.929 . S
C1687 C1685 1.433 . S
C1687 N1690 1.384 . S
C1688 H1679 0.929 . S
C1688 C1680 1.378 . S
C1688 C1683 1.350 . S
C1689 H1676 0.929 . S
C1689 C1681 1.433 . S
C1689 N1691 1.384 . S
N1690 C1686 1.427 1_655 S
N1690 C1687 1.384 . S
N1691 C1683 1.427 . S
N1691 C1689 1.384 . S
H1692 C1698 0.930 . S
H1693 C1702 0.930 . S
H1694 C1707 0.929 . S
H1695 C1705 0.929 . S
H1696 C1700 0.929 . S
H1697 C1706 0.929 . S
C1698 H1692 0.930 . S
C1698 C1699 1.367 . S
C1698 C1706 1.378 . S
C1699 C1698 1.367 . S
C1699 C1707 1.433 . S
C1700 H1696 0.929 . S
C1700 C1702 1.378 . S
C1700 C1704 1.350 . S
C1701 C1704 1.463 1_655 S
C1701 C1706 1.350 . S
C1701 N1709 1.427 . S
C1702 H1693 0.930 . S
C1702 C1700 1.378 . S
C1702 C1703 1.367 . S
C1703 C1702 1.367 . S
C1703 C1705 1.433 . S
C1704 C1700 1.350 . S
C1704 C1701 1.463 1_455 S
C1704 N1708 1.427 . S
C1705 H1695 0.929 . S
C1705 C1703 1.433 . S
C1705 N1708 1.384 . S
C1706 H1697 0.929 . S
C1706 C1698 1.378 . S
C1706 C1701 1.350 . S
C1707 H1694 0.929 . S
C1707 C1699 1.433 . S
C1707 N1709 1.384 . S
N1708 C1704 1.427 . S
N1708 C1705 1.384 . S
N1709 C1701 1.427 . S
N1709 C1707 1.384 . S
H1710 C1716 0.930 . S
H1711 C1720 0.930 . S
H1712 C1725 0.929 . S
H1713 C1723 0.929 . S
H1714 C1718 0.929 . S
H1715 C1724 0.929 . S
C1716 H1710 0.930 . S
C1716 C1717 1.367 . S
C1716 C1724 1.378 . S
C1717 C1716 1.367 . S
C1717 C1725 1.433 . S
C1718 H1714 0.929 . S
C1718 C1720 1.378 . S
C1718 C1722 1.350 . S
C1719 C1722 1.463 . S
C1719 C1724 1.350 . S
C1719 N1727 1.427 . S
C1720 H1711 0.930 . S
C1720 C1718 1.378 . S
C1720 C1721 1.367 . S
C1721 C1720 1.367 . S
C1721 C1723 1.433 . S
C1722 C1718 1.350 . S
C1722 C1719 1.463 . S
C1722 N1726 1.427 . S
C1723 H1713 0.929 . S
C1723 C1721 1.433 . S
C1723 N1726 1.384 . S
C1724 H1715 0.929 . S
C1724 C1716 1.378 . S
C1724 C1719 1.350 . S
C1725 H1712 0.929 . S
C1725 C1717 1.433 . S
C1725 N1727 1.384 . S
N1726 C1722 1.427 . S
N1726 C1723 1.384 . S
N1727 C1719 1.427 . S
N1727 C1725 1.384 . S
H1728 C1734 0.930 . S
H1729 C1738 0.930 . S
H1730 C1743 0.929 . S
H1731 C1741 0.929 . S
H1732 C1736 0.929 . S
H1733 C1742 0.929 . S
C1734 H1728 0.930 . S
C1734 C1735 1.367 . S
C1734 C1742 1.378 . S
C1735 C1734 1.367 . S
C1735 C1743 1.433 . S
C1736 H1732 0.929 . S
C1736 C1738 1.378 . S
C1736 C1740 1.350 . S
C1737 C1740 1.463 1_565 S
C1737 C1742 1.350 . S
C1737 N1745 1.427 . S
C1738 H1729 0.930 . S
C1738 C1736 1.378 . S
C1738 C1739 1.367 . S
C1739 C1738 1.367 . S
C1739 C1741 1.433 . S
C1740 C1736 1.350 . S
C1740 C1737 1.463 1_545 S
C1740 N1744 1.427 . S
C1741 H1731 0.929 . S
C1741 C1739 1.433 . S
C1741 N1744 1.384 . S
C1742 H1733 0.929 . S
C1742 C1734 1.378 . S
C1742 C1737 1.350 . S
C1743 H1730 0.929 . S
C1743 C1735 1.433 . S
C1743 N1745 1.384 . S
N1744 C1740 1.427 . S
N1744 C1741 1.384 . S
N1745 C1737 1.427 . S
N1745 C1743 1.384 . S
H1746 C1752 0.930 . S
H1747 C1756 0.930 . S
H1748 C1761 0.929 . S
H1749 C1759 0.929 . S
H1750 C1754 0.929 . S
H1751 C1760 0.929 . S
C1752 H1746 0.930 . S
C1752 C1753 1.367 . S
C1752 C1760 1.378 . S
C1753 C1752 1.367 . S
C1753 C1761 1.433 . S
C1754 H1750 0.929 . S
C1754 C1756 1.378 . S
C1754 C1758 1.350 . S
C1755 C1758 1.463 1_565 S
C1755 C1760 1.350 . S
C1755 N1763 1.427 . S
C1756 H1747 0.930 . S
C1756 C1754 1.378 . S
C1756 C1757 1.367 . S
C1757 C1756 1.367 . S
C1757 C1759 1.433 . S
C1758 C1754 1.350 . S
C1758 C1755 1.463 1_545 S
C1758 N1762 1.427 . S
C1759 H1749 0.929 . S
C1759 C1757 1.433 . S
C1759 N1762 1.384 . S
C1760 H1751 0.929 . S
C1760 C1752 1.378 . S
C1760 C1755 1.350 . S
C1761 H1748 0.929 . S
C1761 C1753 1.433 . S
C1761 N1763 1.384 . S
N1762 C1758 1.427 . S
N1762 C1759 1.384 . S
N1763 C1755 1.427 . S
N1763 C1761 1.384 . S
H1764 C1770 0.930 . S
H1765 C1774 0.930 . S
H1766 C1779 0.929 . S
H1767 C1777 0.929 . S
H1768 C1772 0.929 . S
H1769 C1778 0.929 . S
C1770 H1764 0.930 . S
C1770 C1771 1.367 . S
C1770 C1778 1.378 . S
C1771 C1770 1.367 . S
C1771 C1779 1.433 . S
C1772 H1768 0.929 . S
C1772 C1774 1.378 . S
C1772 C1776 1.350 . S
C1773 C1776 1.463 1_655 S
C1773 C1778 1.350 . S
C1773 N1781 1.427 . S
C1774 H1765 0.930 . S
C1774 C1772 1.378 . S
C1774 C1775 1.367 . S
C1775 C1774 1.367 . S
C1775 C1777 1.433 . S
C1776 C1772 1.350 . S
C1776 C1773 1.463 1_455 S
C1776 N1780 1.427 . S
C1777 H1767 0.929 . S
C1777 C1775 1.433 . S
C1777 N1780 1.384 . S
C1778 H1769 0.929 . S
C1778 C1770 1.378 . S
C1778 C1773 1.350 . S
C1779 H1766 0.929 . S
C1779 C1771 1.433 . S
C1779 N1781 1.384 . S
N1780 C1776 1.427 . S
N1780 C1777 1.384 . S
N1781 C1773 1.427 . S
N1781 C1779 1.384 . S
H1782 C1788 0.930 . S
H1783 C1792 0.930 . S
H1784 C1797 0.929 . S
H1785 C1795 0.929 . S
H1786 C1790 0.929 . S
H1787 C1796 0.929 . S
C1788 H1782 0.930 . S
C1788 C1789 1.367 . S
C1788 C1796 1.378 . S
C1789 C1788 1.367 . S
C1789 C1797 1.433 . S
C1790 H1786 0.929 . S
C1790 C1792 1.378 . S
C1790 C1794 1.350 . S
C1791 C1794 1.463 . S
C1791 C1796 1.350 . S
C1791 N1799 1.427 . S
C1792 H1783 0.930 . S
C1792 C1790 1.378 . S
C1792 C1793 1.367 . S
C1793 C1792 1.367 . S
C1793 C1795 1.433 . S
C1794 C1790 1.350 . S
C1794 C1791 1.463 . S
C1794 N1798 1.427 . S
C1795 H1785 0.929 . S
C1795 C1793 1.433 . S
C1795 N1798 1.384 . S
C1796 H1787 0.929 . S
C1796 C1788 1.378 . S
C1796 C1791 1.350 . S
C1797 H1784 0.929 . S
C1797 C1789 1.433 . S
C1797 N1799 1.384 . S
N1798 C1794 1.427 . S
N1798 C1795 1.384 . S
N1799 C1791 1.427 . S
N1799 C1797 1.384 . S
C511 C0 1.551 . S
C515 C265 1.551 . S
C529 C15 1.551 . S
C533 C267 1.550 . S
C547 C293 1.553 . S
C551 C41 1.553 . S
C565 C55 1.554 . S
C569 C462 1.554 . S
C583 C476 1.550 . S
C587 C57 1.550 . S
C601 C71 1.552 . S
C605 C490 1.552 . S
C619 C349 1.554 . S
C623 C97 1.553 . S
C637 C99 1.553 . S
C641 C362 1.553 . S
C655 C125 1.552 . S
C659 C376 1.552 . S
C673 C139 1.554 . S
C677 C223 1.554 . S
C691 C236 1.553 . S
C695 C140 1.553 . S
C709 C154 1.551 . S
C713 C251 1.551 . S
C727 C168 1.550 . S
C731 C420 1.551 . S
C745 C183 1.551 . S
C749 C435 1.550 . S
C763 C209 1.553 . S
C767 C461 1.553 . S
C781 C294 1.553 . S
C785 C391 1.553 . S
C799 C308 1.554 . S
C803 C393 1.554 . S
C817 C322 1.552 . S
C821 C418 1.552 . S
C835 C98 1.620 1_545 S
C839 C13 1.599 . S
C853 C124 1.620 1_655 S
C857 C26 1.599 . S
C871 C28 1.605 . S
C875 C96 1.623 . S
C889 C155 1.620 1_455 S
C893 C42 1.598 . S
C907 C138 1.621 . S
C911 C68 1.604 . S
C925 C141 1.620 1_565 S
C929 C82 1.604 . S
C943 C84 1.604 . S
C947 C14 1.620 1_565 S
C961 C110 1.604 . S
C965 C40 1.623 1_455 S
C979 C112 1.608 . S
C983 C1 1.622 . S
C997 C126 1.605 . S
C1001 C70 1.623 1_655 S
C1015 C54 1.622 . S
C1019 C153 1.607 . S
C1033 C56 1.621 1_545 S
C1037 C167 1.606 . S
C1051 C181 1.608 . S
C1055 C266 1.623 . S
C1069 C194 1.599 . S
C1073 C292 1.622 . S
C1087 C196 1.605 . S
C1091 C264 1.623 . S
C1105 C323 1.620 . S
C1109 C210 1.603 . S
C1123 C225 1.600 . S
C1127 C295 1.621 . S
C1141 C309 1.620 . S
C1145 C238 1.598 . S
C1159 C252 1.607 . S
C1163 C182 1.622 . S
C1177 C208 1.621 . S
C1181 C278 1.599 . S
C1195 C169 1.620 . S
C1199 C280 1.603 . S
C1213 C307 1.600 . S
C1217 C250 1.622 . S
C1231 C321 1.602 . S
C1235 C222 1.623 . S
C1249 C335 1.601 . S
C1253 C237 1.623 . S
C1267 C434 1.621 . S
C1271 C336 1.606 . S
C1285 C351 1.604 . S
C1289 C460 1.623 . S
C1303 C365 1.602 . S
C1307 C421 1.620 . S
C1321 C491 1.620 . S
C1325 C378 1.598 . S
C1339 C463 1.620 . S
C1343 C404 1.600 . S
C1357 C477 1.623 . S
C1361 C407 1.606 . S
C1375 C363 1.622 . S
C1379 C433 1.606 . S
C1393 C377 1.621 . S
C1397 C446 1.599 . S
C1411 C348 1.623 . S
C1415 C448 1.605 . S
C1429 C475 1.604 . S
C1433 C419 1.623 . S
C1447 C390 1.620 . S
C1451 C489 1.599 . S
C1465 C503 1.604 . S
C1469 C392 1.620 . S
C1483 C12 1.730 . S
C1487 C406 1.731 . S
C1501 C379 1.725 . S
C1505 C27 1.730 . S
C1519 C29 1.727 . S
C1523 C405 1.731 . S
C1537 C43 1.725 . S
C1541 C195 1.725 . S
C1555 C197 1.726 . S
C1559 C69 1.731 . S
C1573 C83 1.732 . S
C1577 C180 1.731 . S
C1591 C334 1.733 . S
C1595 C85 1.729 . S
C1609 C111 1.723 . S
C1613 C306 1.729 . S
C1627 C113 1.730 . S
C1631 C320 1.733 . S
C1645 C127 1.727 . S
C1649 C447 1.731 . S
C1663 C152 1.733 . S
C1667 C449 1.730 . S
C1681 C432 1.725 . S
C1685 C166 1.729 . S
C1699 C211 1.731 . S
C1703 C350 1.724 . S
C1717 C364 1.725 . S
C1721 C224 1.722 . S
C1735 C337 1.730 . S
C1739 C239 1.733 . S
C1753 C502 1.725 . S
C1757 C253 1.724 . S
C1771 C279 1.730 . S
C1775 C474 1.727 . S
C1789 C281 1.728 . S
C1793 C488 1.733 . S
