# Generated by pormake.
# Topology ukd, (4)-cn, num edge types: 1
# Building blocks:
#     Node 0, Type 0, BuildingBlock: QUQFOY_clean_sbu_3, # of connection points: 4
#     Node 1, Type 0, BuildingBlock: QUQFOY_clean_sbu_3, # of connection points: 4
#     Node 2, Type 0, BuildingBlock: QUQFOY_clean_sbu_3, # of connection points: 4
#     Node 3, Type 0, BuildingBlock: QUQFOY_clean_sbu_3, # of connection points: 4
#     Node 4, Type 0, BuildingBlock: QUQFOY_clean_sbu_3, # of connection points: 4
#     Node 5, Type 0, BuildingBlock: QUQFOY_clean_sbu_3, # of connection points: 4
#     Node 6, Type 0, BuildingBlock: QUQFOY_clean_sbu_3, # of connection points: 4
#     Node 7, Type 0, BuildingBlock: QUQFOY_clean_sbu_3, # of connection points: 4
#     Node 8, Type 0, BuildingBlock: QUQFOY_clean_sbu_3, # of connection points: 4
#     Node 9, Type 0, BuildingBlock: QUQFOY_clean_sbu_3, # of connection points: 4
#     Node 10, Type 0, BuildingBlock: QUQFOY_clean_sbu_3, # of connection points: 4
#     Node 11, Type 0, BuildingBlock: QUQFOY_clean_sbu_3, # of connection points: 4
#     Node 12, Type 0, BuildingBlock: QUQFOY_clean_sbu_3, # of connection points: 4
#     Node 13, Type 0, BuildingBlock: QUQFOY_clean_sbu_3, # of connection points: 4
#     Node 14, Type 0, BuildingBlock: QUQFOY_clean_sbu_3, # of connection points: 4
#     Node 15, Type 0, BuildingBlock: QUQFOY_clean_sbu_3, # of connection points: 4
#     Node 16, Type 0, BuildingBlock: QUQFOY_clean_sbu_3, # of connection points: 4
#     Node 17, Type 0, BuildingBlock: QUQFOY_clean_sbu_3, # of connection points: 4
#     Node 18, Type 0, BuildingBlock: QUQFOY_clean_sbu_3, # of connection points: 4
#     Node 19, Type 0, BuildingBlock: QUQFOY_clean_sbu_3, # of connection points: 4
#     Node 20, Type 0, BuildingBlock: QUQFOY_clean_sbu_3, # of connection points: 4
#     Node 21, Type 0, BuildingBlock: QUQFOY_clean_sbu_3, # of connection points: 4
#     Node 22, Type 0, BuildingBlock: QUQFOY_clean_sbu_3, # of connection points: 4
#     Node 23, Type 0, BuildingBlock: QUQFOY_clean_sbu_3, # of connection points: 4
#     Node 24, Type 0, BuildingBlock: QUQFOY_clean_sbu_3, # of connection points: 4
#     Node 25, Type 0, BuildingBlock: QUQFOY_clean_sbu_3, # of connection points: 4
#     Node 26, Type 0, BuildingBlock: QUQFOY_clean_sbu_3, # of connection points: 4
#     Node 27, Type 0, BuildingBlock: QUQFOY_clean_sbu_3, # of connection points: 4
#     Node 28, Type 0, BuildingBlock: QUQFOY_clean_sbu_3, # of connection points: 4
#     Node 29, Type 0, BuildingBlock: QUQFOY_clean_sbu_3, # of connection points: 4
#     Node 30, Type 0, BuildingBlock: QUQFOY_clean_sbu_3, # of connection points: 4
#     Node 31, Type 0, BuildingBlock: QUQFOY_clean_sbu_3, # of connection points: 4
#     Edge 32, Type (0, 0), BuildingBlock: KIFKEQ_clean_linker_1, # of connection points: 2
#     Edge 33, Type (0, 0), BuildingBlock: KIFKEQ_clean_linker_1, # of connection points: 2
#     Edge 34, Type (0, 0), BuildingBlock: KIFKEQ_clean_linker_1, # of connection points: 2
#     Edge 35, Type (0, 0), BuildingBlock: KIFKEQ_clean_linker_1, # of connection points: 2
#     Edge 36, Type (0, 0), BuildingBlock: KIFKEQ_clean_linker_1, # of connection points: 2
#     Edge 37, Type (0, 0), BuildingBlock: KIFKEQ_clean_linker_1, # of connection points: 2
#     Edge 38, Type (0, 0), BuildingBlock: KIFKEQ_clean_linker_1, # of connection points: 2
#     Edge 39, Type (0, 0), BuildingBlock: KIFKEQ_clean_linker_1, # of connection points: 2
#     Edge 40, Type (0, 0), BuildingBlock: KIFKEQ_clean_linker_1, # of connection points: 2
#     Edge 41, Type (0, 0), BuildingBlock: KIFKEQ_clean_linker_1, # of connection points: 2
#     Edge 42, Type (0, 0), BuildingBlock: KIFKEQ_clean_linker_1, # of connection points: 2
#     Edge 43, Type (0, 0), BuildingBlock: KIFKEQ_clean_linker_1, # of connection points: 2
#     Edge 44, Type (0, 0), BuildingBlock: KIFKEQ_clean_linker_1, # of connection points: 2
#     Edge 45, Type (0, 0), BuildingBlock: KIFKEQ_clean_linker_1, # of connection points: 2
#     Edge 46, Type (0, 0), BuildingBlock: KIFKEQ_clean_linker_1, # of connection points: 2
#     Edge 47, Type (0, 0), BuildingBlock: KIFKEQ_clean_linker_1, # of connection points: 2
#     Edge 48, Type (0, 0), BuildingBlock: KIFKEQ_clean_linker_1, # of connection points: 2
#     Edge 49, Type (0, 0), BuildingBlock: KIFKEQ_clean_linker_1, # of connection points: 2
#     Edge 50, Type (0, 0), BuildingBlock: KIFKEQ_clean_linker_1, # of connection points: 2
#     Edge 51, Type (0, 0), BuildingBlock: KIFKEQ_clean_linker_1, # of connection points: 2
#     Edge 52, Type (0, 0), BuildingBlock: KIFKEQ_clean_linker_1, # of connection points: 2
#     Edge 53, Type (0, 0), BuildingBlock: KIFKEQ_clean_linker_1, # of connection points: 2
#     Edge 54, Type (0, 0), BuildingBlock: KIFKEQ_clean_linker_1, # of connection points: 2
#     Edge 55, Type (0, 0), BuildingBlock: KIFKEQ_clean_linker_1, # of connection points: 2
#     Edge 56, Type (0, 0), BuildingBlock: KIFKEQ_clean_linker_1, # of connection points: 2
#     Edge 57, Type (0, 0), BuildingBlock: KIFKEQ_clean_linker_1, # of connection points: 2
#     Edge 58, Type (0, 0), BuildingBlock: KIFKEQ_clean_linker_1, # of connection points: 2
#     Edge 59, Type (0, 0), BuildingBlock: KIFKEQ_clean_linker_1, # of connection points: 2
#     Edge 60, Type (0, 0), BuildingBlock: KIFKEQ_clean_linker_1, # of connection points: 2
#     Edge 61, Type (0, 0), BuildingBlock: KIFKEQ_clean_linker_1, # of connection points: 2
#     Edge 62, Type (0, 0), BuildingBlock: KIFKEQ_clean_linker_1, # of connection points: 2
#     Edge 63, Type (0, 0), BuildingBlock: KIFKEQ_clean_linker_1, # of connection points: 2
#     Edge 64, Type (0, 0), BuildingBlock: KIFKEQ_clean_linker_1, # of connection points: 2
#     Edge 65, Type (0, 0), BuildingBlock: KIFKEQ_clean_linker_1, # of connection points: 2
#     Edge 66, Type (0, 0), BuildingBlock: KIFKEQ_clean_linker_1, # of connection points: 2
#     Edge 67, Type (0, 0), BuildingBlock: KIFKEQ_clean_linker_1, # of connection points: 2
#     Edge 68, Type (0, 0), BuildingBlock: KIFKEQ_clean_linker_1, # of connection points: 2
#     Edge 69, Type (0, 0), BuildingBlock: KIFKEQ_clean_linker_1, # of connection points: 2
#     Edge 70, Type (0, 0), BuildingBlock: KIFKEQ_clean_linker_1, # of connection points: 2
#     Edge 71, Type (0, 0), BuildingBlock: KIFKEQ_clean_linker_1, # of connection points: 2
#     Edge 72, Type (0, 0), BuildingBlock: KIFKEQ_clean_linker_1, # of connection points: 2
#     Edge 73, Type (0, 0), BuildingBlock: KIFKEQ_clean_linker_1, # of connection points: 2
#     Edge 74, Type (0, 0), BuildingBlock: KIFKEQ_clean_linker_1, # of connection points: 2
#     Edge 75, Type (0, 0), BuildingBlock: KIFKEQ_clean_linker_1, # of connection points: 2
#     Edge 76, Type (0, 0), BuildingBlock: KIFKEQ_clean_linker_1, # of connection points: 2
#     Edge 77, Type (0, 0), BuildingBlock: KIFKEQ_clean_linker_1, # of connection points: 2
#     Edge 78, Type (0, 0), BuildingBlock: KIFKEQ_clean_linker_1, # of connection points: 2
#     Edge 79, Type (0, 0), BuildingBlock: KIFKEQ_clean_linker_1, # of connection points: 2
#     Edge 80, Type (0, 0), BuildingBlock: KIFKEQ_clean_linker_1, # of connection points: 2
#     Edge 81, Type (0, 0), BuildingBlock: KIFKEQ_clean_linker_1, # of connection points: 2
#     Edge 82, Type (0, 0), BuildingBlock: KIFKEQ_clean_linker_1, # of connection points: 2
#     Edge 83, Type (0, 0), BuildingBlock: KIFKEQ_clean_linker_1, # of connection points: 2
#     Edge 84, Type (0, 0), BuildingBlock: KIFKEQ_clean_linker_1, # of connection points: 2
#     Edge 85, Type (0, 0), BuildingBlock: KIFKEQ_clean_linker_1, # of connection points: 2
#     Edge 86, Type (0, 0), BuildingBlock: KIFKEQ_clean_linker_1, # of connection points: 2
#     Edge 87, Type (0, 0), BuildingBlock: KIFKEQ_clean_linker_1, # of connection points: 2
#     Edge 88, Type (0, 0), BuildingBlock: KIFKEQ_clean_linker_1, # of connection points: 2
#     Edge 89, Type (0, 0), BuildingBlock: KIFKEQ_clean_linker_1, # of connection points: 2
#     Edge 90, Type (0, 0), BuildingBlock: KIFKEQ_clean_linker_1, # of connection points: 2
#     Edge 91, Type (0, 0), BuildingBlock: KIFKEQ_clean_linker_1, # of connection points: 2
#     Edge 92, Type (0, 0), BuildingBlock: KIFKEQ_clean_linker_1, # of connection points: 2
#     Edge 93, Type (0, 0), BuildingBlock: KIFKEQ_clean_linker_1, # of connection points: 2
#     Edge 94, Type (0, 0), BuildingBlock: KIFKEQ_clean_linker_1, # of connection points: 2
#     Edge 95, Type (0, 0), BuildingBlock: KIFKEQ_clean_linker_1, # of connection points: 2
# Relax obj value: 0.049
# Max RMSD: 0.080
# Mean RMSD: 0.075
data_MOF--net-ukd--node1-QUQFOY_clean_sbu_3--edge1-KIFKEQ_clean_linker_1
_symmetry_space_group_name_H-M    P1
_symmetry_Int_Tables_number       1
_symmetry_cell_setting            triclinic
loop_
_symmetry_equiv_pos_as_xyz
'x, y, z'
_cell_length_a     46.784325
_cell_length_b     46.841407
_cell_length_c     76.625091
_cell_angle_alpha  89.933733
_cell_angle_beta   90.097484
_cell_angle_gamma 89.994872
loop_
_atom_site_label
_atom_site_type_symbol
_atom_site_fract_x
_atom_site_fract_y
_atom_site_fract_z
_atom_type_partial_charge
C0 C 0.20007 0.2071 0.304 0.0
O1 O 0.1743 0.20003 0.3069 0.0
Cd2 Cd 0.15717 0.17831 0.33314 0.0
O3 O 0.21945 0.20267 0.3154 0.0
Cd4 Cd 0.22349 0.18276 0.34525 0.0
C5 C 0.17764 0.23259 0.36055 0.0
O6 O 0.19143 0.14305 0.3406 0.0
O7 O 0.2025 0.15059 0.36739 0.0
O8 O 0.2687 0.16181 0.33659 0.0
C9 C 0.18935 0.13528 0.35635 0.0
O10 O 0.15775 0.21718 0.3542 0.0
C11 C 0.28259 0.1701 0.3499 0.0
O12 O 0.20387 0.22651 0.35803 0.0
O13 O 0.26919 0.1854 0.36086 0.0
C14 C 0.03262 0.95197 0.55443 0.0
O15 O 0.04279 0.927 0.55631 0.0
Cd16 Cd 0.06385 0.90837 0.5823 0.0
O17 O 0.03382 0.97013 0.5668 0.0
Cd18 Cd 0.05177 0.97311 0.59732 0.0
C19 C 0.00494 0.92128 0.60858 0.0
O20 O 0.09421 0.9448 0.5928 0.0
O21 O 0.08424 0.95301 0.61964 0.0
O22 O 0.06954 0.01994 0.5897 0.0
C23 C 0.10102 0.94172 0.60866 0.0
O24 O 0.02232 0.90429 0.60111 0.0
C25 C 0.06063 0.03246 0.60333 0.0
O26 O 0.00919 0.94819 0.60846 0.0
O27 O 0.04613 0.01755 0.614 0.0
C28 C 0.28518 0.77345 0.80374 0.0
O29 O 0.31111 0.78017 0.80644 0.0
Cd30 Cd 0.32964 0.80272 0.83206 0.0
O31 O 0.26604 0.77859 0.81514 0.0
Cd32 Cd 0.2637 0.79913 0.8449 0.0
C33 C 0.30988 0.74912 0.86 0.0
O34 O 0.29609 0.83846 0.83963 0.0
O35 O 0.2859 0.83126 0.86656 0.0
O36 O 0.21826 0.82062 0.837 0.0
C37 C 0.29882 0.84634 0.85532 0.0
O38 O 0.32969 0.76444 0.8535 0.0
C39 C 0.20509 0.81275 0.85066 0.0
O40 O 0.28361 0.75525 0.8576 0.0
O41 O 0.21891 0.7973 0.8614 0.0
C42 C 0.44085 0.02703 0.05166 0.0
O43 O 0.42824 0.05103 0.05208 0.0
Cd44 Cd 0.41539 0.07446 0.07834 0.0
O45 O 0.44411 0.01216 0.06549 0.0
Cd46 Cd 0.43014 0.01173 0.09691 0.0
C47 C 0.48013 0.06276 0.10041 0.0
O48 O 0.38795 0.04022 0.09339 0.0
O49 O 0.40144 0.03493 0.11998 0.0
O50 O 0.41122 0.96493 0.09082 0.0
C51 C 0.38363 0.04563 0.10933 0.0
O52 O 0.4625 0.07829 0.09196 0.0
C53 C 0.42101 0.95288 0.10441 0.0
O54 O 0.47436 0.03694 0.10435 0.0
O55 O 0.43638 0.96808 0.11449 0.0
C56 C 0.20055 0.77588 0.18678 0.0
O57 O 0.17518 0.785 0.18477 0.0
Cd58 Cd 0.15704 0.80599 0.15853 0.0
O59 O 0.21915 0.77898 0.17479 0.0
Cd60 Cd 0.22313 0.80058 0.14535 0.0
C61 C 0.1763 0.75127 0.13068 0.0
O62 O 0.19151 0.84043 0.15042 0.0
O63 O 0.20168 0.83312 0.12349 0.0
O64 O 0.26835 0.8213 0.15424 0.0
C65 C 0.18882 0.84829 0.13471 0.0
O66 O 0.15692 0.76649 0.13773 0.0
C67 C 0.28231 0.81307 0.14097 0.0
O68 O 0.20269 0.75745 0.13239 0.0
O69 O 0.2689 0.79793 0.12988 0.0
C70 C 0.44815 0.94945 0.4355 0.0
O71 O 0.43784 0.92455 0.43372 0.0
Cd72 Cd 0.42127 0.90601 0.40645 0.0
O73 O 0.44825 0.96699 0.42277 0.0
Cd74 Cd 0.43144 0.9695 0.39216 0.0
C75 C 0.48159 0.92113 0.38209 0.0
O76 O 0.38885 0.94013 0.39488 0.0
O77 O 0.40432 0.94621 0.36871 0.0
O78 O 0.41104 0.01551 0.39912 0.0
C79 C 0.38518 0.93618 0.37869 0.0
O80 O 0.46434 0.90281 0.38845 0.0
C81 C 0.42062 0.02845 0.38579 0.0
O82 O 0.47623 0.94777 0.38281 0.0
O83 O 0.4364 0.01412 0.37553 0.0
C84 C 0.28301 0.20609 0.68554 0.0
O85 O 0.30824 0.19658 0.68359 0.0
Cd86 Cd 0.32629 0.17617 0.65723 0.0
O87 O 0.26446 0.20361 0.67343 0.0
Cd88 Cd 0.2603 0.1828 0.64381 0.0
C89 C 0.30774 0.23227 0.63012 0.0
O90 O 0.29144 0.14243 0.64857 0.0
O91 O 0.28143 0.15072 0.6217 0.0
O92 O 0.21471 0.16265 0.65237 0.0
C93 C 0.29408 0.13504 0.6328 0.0
O94 O 0.32695 0.21657 0.63702 0.0
C95 C 0.20103 0.17116 0.63902 0.0
O96 O 0.28129 0.2262 0.63158 0.0
O97 O 0.21475 0.18622 0.62805 0.0
C98 C 0.03827 0.03699 0.93638 0.0
O99 O 0.04617 0.06249 0.93347 0.0
Cd100 Cd 0.06403 0.07961 0.90618 0.0
O101 O 0.04014 0.01804 0.92452 0.0
Cd102 Cd 0.05604 0.0147 0.89377 0.0
C103 C 0.00481 0.06132 0.88195 0.0
O104 O 0.09762 0.04557 0.89589 0.0
O105 O 0.08233 0.03751 0.86986 0.0
O106 O 0.07813 0.9694 0.90094 0.0
C107 C 0.10119 0.04861 0.87962 0.0
O108 O 0.02178 0.08059 0.88748 0.0
C109 C 0.0683 0.95586 0.88791 0.0
O110 O 0.01053 0.0349 0.88392 0.0
O111 O 0.0516 0.96947 0.87778 0.0
C112 C 0.71744 0.81837 0.62289 0.0
O113 O 0.72697 0.80576 0.60945 0.0
Cd114 Cd 0.76987 0.77721 0.61118 0.0
O115 O 0.72941 0.81468 0.63762 0.0
Cd116 Cd 0.76813 0.7871 0.65108 0.0
C117 C 0.81812 0.82404 0.62934 0.0
O118 O 0.76597 0.74232 0.63407 0.0
O119 O 0.80188 0.74842 0.65161 0.0
O120 O 0.73399 0.77406 0.67322 0.0
C121 C 0.78819 0.73219 0.64137 0.0
O122 O 0.80987 0.80943 0.61626 0.0
C123 C 0.749 0.78211 0.6861 0.0
O124 O 0.80547 0.82179 0.64397 0.0
O125 O 0.77291 0.79372 0.6827 0.0
C126 C 0.92034 0.9662 0.37348 0.0
O127 O 0.93322 0.97426 0.35978 0.0
Cd128 Cd 0.9608 0.01757 0.35986 0.0
O129 O 0.92375 0.97971 0.38771 0.0
Cd130 Cd 0.95194 0.01967 0.39947 0.0
C131 C 0.91288 0.06631 0.37658 0.0
O132 O -0.00351 0.01643 0.38242 0.0
O133 O 0.98888 0.05534 0.39689 0.0
O134 O 0.96753 0.98782 0.42222 0.0
C135 C 0.0059 0.04019 0.38798 0.0
O136 O 0.92738 0.05705 0.36372 0.0
C137 C 0.95983 0.00336 0.43491 0.0
O138 O 0.91597 0.05539 0.3917 0.0
O139 O 0.94725 0.02665 0.43119 0.0
C140 C 0.76438 0.16806 0.1241 0.0
O141 O 0.75639 0.18228 0.11086 0.0
Cd142 Cd 0.71523 0.21324 0.11233 0.0
O143 O 0.75148 0.17097 0.13858 0.0
Cd144 Cd 0.7125 0.19939 0.15116 0.0
C145 C 0.66305 0.16748 0.12677 0.0
O146 O 0.71942 0.24588 0.13632 0.0
O147 O 0.67963 0.23897 0.14997 0.0
O148 O 0.74503 0.20593 0.17533 0.0
C149 C 0.69615 0.2561 0.14212 0.0
O150 O 0.67213 0.18414 0.11486 0.0
C151 C 0.72674 0.20137 0.1872 0.0
O152 O 0.67564 0.16604 0.14148 0.0
O153 O 0.7017 0.19449 0.18232 0.0
C154 C 0.57081 0.01094 0.87489 0.0
O155 O 0.56015 0.00113 0.8609 0.0
Cd156 Cd 0.53423 0.95703 0.86126 0.0
O157 O 0.5659 -0.00134 0.8894 0.0
Cd158 Cd 0.53696 0.9586 0.90067 0.0
C159 C 0.58081 0.91155 0.88195 0.0
O160 O 0.49467 0.96075 0.88134 0.0
O161 O 0.50021 0.92291 0.89715 0.0
O162 O 0.52189 0.99137 0.92329 0.0
C163 C 0.48431 0.93761 0.88722 0.0
O164 O 0.56882 0.91915 0.86775 0.0
C165 C 0.52616 0.97422 0.93586 0.0
O166 O 0.57417 0.92337 0.89629 0.0
O167 O 0.53639 0.94989 0.93211 0.0
C168 C 0.72036 0.1648 0.86798 0.0
O169 O 0.73018 0.17647 0.88167 0.0
Cd170 Cd 0.77293 0.20491 0.88036 0.0
O171 O 0.73191 0.16959 0.85325 0.0
Cd172 Cd 0.77032 0.19861 0.8404 0.0
C173 C 0.82031 0.15922 0.86086 0.0
O174 O 0.76641 0.24196 0.85873 0.0
O175 O 0.80164 0.23922 0.84049 0.0
O176 O 0.73574 0.20784 0.81741 0.0
C177 C 0.7875 0.25392 0.8513 0.0
O178 O 0.81222 0.17175 0.87473 0.0
C179 C 0.75307 0.20353 0.80496 0.0
O180 O 0.80809 0.16429 0.84635 0.0
O181 O 0.77827 0.19591 0.80901 0.0
C182 C 0.56555 0.96994 0.61498 0.0
O183 O 0.55391 0.97914 0.62881 0.0
Cd184 Cd 0.5273 0.02292 0.62818 0.0
O185 O 0.56123 0.98257 0.60051 0.0
Cd186 Cd 0.53237 0.02225 0.5887 0.0
C187 C 0.57437 0.06961 0.60898 0.0
O188 O 0.48905 0.01929 0.60706 0.0
O189 O 0.49467 0.0571 0.59124 0.0
O190 O 0.52002 0.98854 0.56592 0.0
C191 C 0.47862 0.0423 0.60099 0.0
O192 O 0.56174 0.06136 0.62281 0.0
C193 C 0.52428 0.00565 0.55335 0.0
O194 O 0.56869 0.05817 0.59434 0.0
O195 O 0.53307 0.03052 0.55717 0.0
C196 C 0.76655 0.81637 0.36707 0.0
O197 O 0.75672 0.80483 0.3808 0.0
Cd198 Cd 0.71381 0.77657 0.37972 0.0
O199 O 0.75475 0.81175 0.35238 0.0
Cd200 Cd 0.71571 0.78332 0.33969 0.0
C201 C 0.66593 0.82227 0.3606 0.0
O202 O 0.71986 0.73979 0.35793 0.0
O203 O 0.6846 0.74252 0.33964 0.0
O204 O 0.74984 0.77463 0.31648 0.0
C205 C 0.69872 0.72785 0.35052 0.0
O206 O 0.67434 0.80968 0.37441 0.0
C207 C 0.73231 0.77927 0.30415 0.0
O208 O 0.6779 0.81739 0.34602 0.0
O209 O 0.70716 0.78671 0.30836 0.0
C210 C 0.91775 0.01752 0.11652 0.0
O211 O 0.92875 0.00769 0.13042 0.0
Cd212 Cd 0.95543 0.96392 0.12973 0.0
O213 O 0.92291 0.00564 0.10193 0.0
Cd214 Cd 0.95265 0.96652 0.09029 0.0
C215 C 0.90965 0.91809 0.10875 0.0
O216 O -0.00503 0.96706 0.10961 0.0
O217 O 0.9886 0.92997 0.09324 0.0
O218 O 0.97187 -0.00097 0.06876 0.0
C219 C 0.00479 0.94388 0.10342 0.0
O220 O 0.92131 0.92592 0.12299 0.0
C221 C 0.96427 0.98456 0.05556 0.0
O222 O 0.91625 0.93002 0.09439 0.0
O223 O 0.95035 0.96176 0.05847 0.0
C224 C 0.69924 0.70484 0.80431 0.0
O225 O 0.67361 0.69738 0.80732 0.0
Cd226 Cd 0.65701 0.6746 0.83336 0.0
O227 O 0.71895 0.70013 0.81546 0.0
Cd228 Cd 0.72396 0.67926 0.845 0.0
C229 C 0.6779 0.72872 0.86074 0.0
O230 O 0.69187 0.63968 0.84032 0.0
O231 O 0.70373 0.64639 0.86706 0.0
O232 O 0.76927 0.65879 0.83601 0.0
C233 C 0.69015 0.63149 0.856 0.0
O234 O 0.65789 0.71332 0.85453 0.0
C235 C 0.78333 0.66741 0.84918 0.0
O236 O 0.70408 0.72263 0.85807 0.0
O237 O 0.76993 0.68258 0.86022 0.0
C238 C 0.53729 0.45002 0.05552 0.0
O239 O 0.54704 0.42496 0.05773 0.0
Cd240 Cd 0.56475 0.40713 0.08492 0.0
O241 O 0.53811 0.46833 0.06781 0.0
Cd242 Cd 0.55578 0.47261 0.0982 0.0
C243 C 0.5057 0.42446 0.10989 0.0
O244 O 0.59718 0.44247 0.09471 0.0
O245 O 0.58646 0.45189 0.12131 0.0
O246 O 0.57537 0.51852 0.08997 0.0
C247 C 0.60339 0.43986 0.1107 0.0
O248 O 0.52231 0.40561 0.1035 0.0
C249 C 0.56621 0.53196 0.10321 0.0
O250 O 0.51154 0.45098 0.10878 0.0
O251 O 0.55099 0.51794 0.11396 0.0
C252 C 0.77826 0.28614 0.30298 0.0
O253 O 0.80206 0.29913 0.30362 0.0
Cd254 Cd 0.82324 0.31483 0.33021 0.0
O255 O 0.76264 0.28397 0.31653 0.0
Cd256 Cd 0.76109 0.30069 0.34725 0.0
C257 C 0.81217 0.2518 0.35385 0.0
O258 O 0.78945 0.34378 0.34466 0.0
O259 O 0.78552 0.32694 0.37065 0.0
O260 O 0.71539 0.32132 0.34006 0.0
C261 C 0.79523 0.34632 0.36073 0.0
O262 O 0.82807 0.26992 0.34611 0.0
C263 C 0.70202 0.31187 0.35325 0.0
O264 O 0.78547 0.2564 0.35577 0.0
O265 O 0.71597 0.29592 0.36369 0.0
C266 C 0.94166 0.52958 0.5525 0.0
O267 O 0.92877 0.55338 0.55321 0.0
Cd268 Cd 0.91981 0.57565 0.58039 0.0
O269 O 0.94591 0.51489 0.56629 0.0
Cd270 Cd 0.93272 0.51472 0.59783 0.0
C271 C 0.9857 0.56175 0.60041 0.0
O272 O 0.8902 0.54419 0.59655 0.0
O273 O 0.91026 0.54139 0.62178 0.0
O274 O 0.9102 0.46946 0.59192 0.0
C275 C 0.88962 0.55054 0.61259 0.0
O276 O 0.96818 0.5781 0.5925 0.0
C277 C 0.92004 0.45637 0.60513 0.0
O278 O 0.97905 0.5362 0.60442 0.0
O279 O 0.937 0.47023 0.61497 0.0
C280 C 0.69862 0.28138 0.68742 0.0
O281 O 0.6734 0.29086 0.68538 0.0
Cd282 Cd 0.65501 0.30964 0.65863 0.0
O283 O 0.71698 0.28309 0.67519 0.0
Cd284 Cd 0.72106 0.30241 0.64516 0.0
C285 C 0.6736 0.25225 0.63249 0.0
O286 O 0.68985 0.34274 0.64927 0.0
O287 O 0.69934 0.33333 0.62251 0.0
O288 O 0.76622 0.32342 0.65383 0.0
C289 C 0.68683 0.34942 0.63339 0.0
O290 O 0.65455 0.26827 0.63921 0.0
C291 C 0.78019 0.31514 0.64058 0.0
O292 O 0.7001 0.25827 0.63373 0.0
O293 O 0.76689 0.29965 0.62962 0.0
C294 C 0.94345 0.44979 0.93674 0.0
O295 O 0.93224 0.42528 0.93496 0.0
Cd296 Cd 0.91543 0.40648 0.90799 0.0
O297 O 0.94491 0.46705 0.92389 0.0
Cd298 Cd 0.93075 0.46947 0.89267 0.0
C299 C 0.9786 0.41741 0.88507 0.0
O300 O 0.88689 0.44231 0.89486 0.0
O301 O 0.90339 0.44719 0.86889 0.0
O302 O 0.91228 0.51636 0.89918 0.0
C303 C 0.88374 0.43775 0.8787 0.0
O304 O 0.95994 0.40108 0.89193 0.0
C305 C 0.92252 0.52872 0.88584 0.0
O306 O 0.97465 0.44433 0.88427 0.0
O307 O 0.93799 0.51366 0.87578 0.0
C308 C 0.7859 0.70595 0.18564 0.0
O309 O 0.81109 0.69645 0.18352 0.0
Cd310 Cd 0.82928 0.67744 0.15687 0.0
O311 O 0.7674 0.70441 0.17343 0.0
Cd312 Cd 0.76326 0.68543 0.14331 0.0
C313 C 0.81139 0.73481 0.13046 0.0
O314 O 0.79379 0.64476 0.14784 0.0
O315 O 0.7845 0.65368 0.12097 0.0
O316 O 0.71741 0.66564 0.1516 0.0
C317 C 0.79676 0.63767 0.13204 0.0
O318 O 0.83032 0.71867 0.13727 0.0
C319 C 0.70403 0.67405 0.13811 0.0
O320 O 0.78485 0.72902 0.13172 0.0
O321 O 0.71799 0.68904 0.12722 0.0
C322 C 0.5435 0.53163 0.43747 0.0
O323 O 0.55706 0.55505 0.43647 0.0
Cd324 Cd 0.57212 0.57493 0.40935 0.0
O325 O 0.54026 0.51586 0.42407 0.0
Cd326 Cd 0.5552 0.51285 0.39311 0.0
C327 C 0.50784 0.56554 0.38665 0.0
O328 O 0.59936 0.53952 0.39504 0.0
O329 O 0.58197 0.53523 0.36918 0.0
O330 O 0.5741 0.46663 0.40067 0.0
C331 C 0.60191 0.5445 0.37888 0.0
O332 O 0.52675 0.58108 0.39397 0.0
C333 C 0.56397 0.4533 0.38766 0.0
O334 O 0.51151 0.53867 0.385 0.0
O335 O 0.54835 0.46754 0.37718 0.0
C336 C 0.22053 0.31901 0.12225 0.0
O337 O 0.2304 0.30748 0.10856 0.0
Cd338 Cd 0.27426 0.28091 0.11013 0.0
O339 O 0.2325 0.31463 0.13693 0.0
Cd340 Cd 0.27164 0.28622 0.14957 0.0
C341 C 0.32046 0.32755 0.13009 0.0
O342 O 0.27032 0.24291 0.13137 0.0
O343 O 0.30751 0.2494 0.14771 0.0
O344 O 0.23855 0.2697 0.17157 0.0
C345 C 0.29328 0.23298 0.13786 0.0
O346 O 0.31267 0.31508 0.11611 0.0
C347 C 0.25325 0.27786 0.18456 0.0
O348 O 0.3083 0.32198 0.14452 0.0
O349 O 0.27656 0.29071 0.18129 0.0
C350 C 0.41845 0.46863 0.87516 0.0
O351 O 0.42971 0.47849 0.86136 0.0
Cd352 Cd 0.45656 0.52204 0.86231 0.0
O353 O 0.42316 0.48054 0.8898 0.0
Cd354 Cd 0.45217 0.51984 0.90192 0.0
C355 C 0.40963 0.5677 0.88245 0.0
O356 O 0.495 0.51714 0.8832 0.0
O357 O 0.49007 0.55458 0.89936 0.0
O358 O 0.46467 0.48605 0.92475 0.0
C359 C 0.50578 0.53988 0.88937 0.0
O360 O 0.42209 0.56013 0.86843 0.0
C361 C 0.4605 0.50326 0.93726 0.0
O362 O 0.41564 0.5557 0.89688 0.0
O363 O 0.45168 0.5281 0.93336 0.0
C364 C 0.26808 0.67202 0.62072 0.0
O365 O 0.26007 0.68593 0.60736 0.0
Cd366 Cd 0.21818 0.71605 0.60879 0.0
O367 O 0.25514 0.67519 0.63516 0.0
Cd368 Cd 0.2164 0.70325 0.64803 0.0
C369 C 0.1675 0.66918 0.62406 0.0
O370 O 0.22112 0.7493 0.63258 0.0
O371 O 0.18218 0.74164 0.64705 0.0
O372 O 0.24932 0.71415 0.67125 0.0
C373 C 0.19773 0.75894 0.63859 0.0
O374 O 0.17634 0.68534 0.61183 0.0
C375 C 0.23322 0.70624 0.68364 0.0
O376 O 0.17982 0.66906 0.63889 0.0
O377 O 0.20905 0.69582 0.67948 0.0
C378 C 0.06906 0.51331 0.3746 0.0
O379 O 0.05873 0.5031 0.36062 0.0
Cd380 Cd 0.03235 0.45911 0.36109 0.0
O381 O 0.06369 0.5015 0.3892 0.0
Cd382 Cd 0.03469 0.46169 0.40063 0.0
C383 C 0.0785 0.41392 0.38207 0.0
O384 O 0.99248 0.46318 0.38094 0.0
O385 O -0.00344 0.42748 0.39879 0.0
O386 O 0.01998 0.49491 0.42315 0.0
C387 C 0.98146 0.44116 0.38792 0.0
O388 O 0.06682 0.42142 0.36777 0.0
C389 C 0.02462 0.47797 0.43578 0.0
O390 O 0.07152 0.4258 0.39634 0.0
O391 O 0.03505 0.4537 0.43209 0.0
C392 C 0.22003 0.66619 0.36765 0.0
O393 O 0.22837 0.6797 0.38109 0.0
Cd394 Cd 0.26937 0.71092 0.38003 0.0
O395 O 0.23242 0.66991 0.35307 0.0
Cd396 Cd 0.27065 0.69872 0.33994 0.0
C397 C 0.3213 0.66608 0.36404 0.0
O398 O 0.26317 0.74375 0.35621 0.0
O399 O 0.2998 0.74106 0.33904 0.0
O400 O 0.23692 0.70301 0.31605 0.0
C401 C 0.2844 0.75595 0.34908 0.0
O402 O 0.31164 0.68094 0.37663 0.0
C403 C 0.25514 0.69885 0.30407 0.0
O404 O 0.30933 0.6669 0.34912 0.0
O405 O 0.28061 0.69344 0.3088 0.0
C406 C 0.06809 0.46988 0.11535 0.0
O407 O 0.05751 0.47979 0.12932 0.0
Cd408 Cd 0.03223 0.5243 0.12867 0.0
O409 O 0.06313 0.48211 0.10083 0.0
Cd410 Cd 0.0342 0.52196 0.08935 0.0
C411 C 0.0787 0.56918 0.10743 0.0
O412 O 0.99228 0.52178 0.10876 0.0
O413 O -0.00099 0.55917 0.09267 0.0
O414 O 0.01344 0.48996 0.06819 0.0
C415 C 0.98266 0.54514 0.10268 0.0
O416 O 0.06719 0.56147 0.12173 0.0
C417 C 0.02095 0.50409 0.05484 0.0
O418 O 0.07146 0.55759 0.09309 0.0
O419 O 0.03569 0.52647 0.05746 0.0
C420 C 0.26668 0.31701 0.86628 0.0
O421 O 0.25805 0.30348 0.87964 0.0
Cd422 Cd 0.21653 0.27309 0.87854 0.0
O423 O 0.25426 0.31376 0.85164 0.0
Cd424 Cd 0.2155 0.28594 0.83824 0.0
C425 C 0.16579 0.31946 0.8624 0.0
O426 O 0.22209 0.24082 0.85449 0.0
O427 O 0.1854 0.24418 0.83735 0.0
O428 O 0.24903 0.28104 0.81438 0.0
C429 C 0.20055 0.22902 0.84743 0.0
O430 O 0.17516 0.30424 0.87495 0.0
C431 C 0.23085 0.28562 0.80239 0.0
O432 O 0.17762 0.31851 0.84746 0.0
O433 O 0.20553 0.2916 0.80711 0.0
C434 C 0.4151 0.51547 0.61447 0.0
O435 O 0.42592 0.50575 0.62845 0.0
Cd436 Cd 0.45171 0.46151 0.62804 0.0
O437 O 0.41977 0.503 0.60002 0.0
Cd438 Cd 0.44848 0.46278 0.58884 0.0
C439 C 0.40502 0.41565 0.60788 0.0
O440 O 0.49122 0.4646 0.60783 0.0
O441 O 0.48494 0.42677 0.59216 0.0
O442 O 0.46356 0.49593 0.5664 0.0
C443 C 0.50122 0.44133 0.60191 0.0
O444 O 0.41716 0.42347 0.62197 0.0
C445 C 0.45909 0.47911 0.55372 0.0
O446 O 0.41139 0.42737 0.59343 0.0
O447 O 0.44879 0.45473 0.55732 0.0
H448 H 0.11173 0.39602 0.35508 0.0
H449 H 0.09195 0.3782 0.40907 0.0
H450 H 0.14195 0.35357 0.35404 0.0
H451 H 0.12184 0.3353 0.40786 0.0
H452 H 0.13003 0.243 0.37972 0.0
H453 H 0.1116 0.28956 0.38849 0.0
H454 H 0.18781 0.32992 0.36856 0.0
H455 H 0.20664 0.28311 0.36008 0.0
C456 C 0.11416 0.38323 0.36678 0.0
C457 C 0.0993 0.39023 0.3821 0.0
C458 C 0.13164 0.35912 0.36623 0.0
C459 C 0.13419 0.34129 0.38089 0.0
C460 C 0.12022 0.34882 0.39642 0.0
C461 C 0.10317 0.37331 0.39708 0.0
C462 C 0.1432 0.26173 0.37768 0.0
C463 C 0.16963 0.25955 0.36913 0.0
C464 C 0.13273 0.28832 0.38278 0.0
C465 C 0.14827 0.31323 0.37909 0.0
C466 C 0.17548 0.31094 0.3715 0.0
C467 C 0.18626 0.28421 0.36674 0.0
H468 H 0.99161 0.86514 0.6124 0.0
H469 H 0.95743 0.94984 0.6208 0.0
H470 H 0.94526 0.84464 0.61908 0.0
H471 H 0.91069 0.92877 0.62776 0.0
H472 H 0.84133 0.86107 0.65343 0.0
H473 H 0.88661 0.88737 0.65093 0.0
H474 H 0.89811 0.85398 0.59898 0.0
H475 H 0.85325 0.82818 0.60121 0.0
C476 C 0.97437 0.87943 0.61595 0.0
C477 C 0.97815 0.90921 0.61576 0.0
C478 C 0.94784 0.8676 0.61977 0.0
C479 C 0.9245 0.8852 0.62367 0.0
C480 C 0.92851 0.91485 0.62475 0.0
C481 C 0.95519 0.92683 0.62076 0.0
C482 C 0.85338 0.85965 0.64141 0.0
C483 C 0.8438 0.84229 0.62758 0.0
C484 C 0.87916 0.87475 0.63999 0.0
C485 C 0.89579 0.87234 0.62485 0.0
C486 C 0.88571 0.85589 0.61086 0.0
C487 C 0.85997 0.84116 0.61216 0.0
H488 H 0.39489 0.60323 0.90919 0.0
H489 H 0.37822 0.58624 0.85469 0.0
H490 H 0.36511 0.64616 0.90747 0.0
H491 H 0.34804 0.62873 0.85315 0.0
H492 H 0.28158 0.69827 0.85892 0.0
H493 H 0.3009 0.65151 0.86725 0.0
H494 H 0.3761 0.69244 0.88823 0.0
H495 H 0.35722 0.73897 0.87956 0.0
C496 C 0.38439 0.60833 0.89696 0.0
C497 C 0.38905 0.59158 0.88202 0.0
C498 C 0.3674 0.63284 0.89601 0.0
C499 C 0.35426 0.64057 0.88021 0.0
C500 C 0.35769 0.623 0.86553 0.0
C501 C 0.37514 0.59886 0.86638 0.0
C502 C 0.30183 0.69728 0.86578 0.0
C503 C 0.31804 0.72211 0.86852 0.0
C504 C 0.3129 0.67059 0.87044 0.0
C505 C 0.33997 0.66851 0.8783 0.0
C506 C 0.35509 0.69354 0.8823 0.0
C507 C 0.34435 0.7201 0.87729 0.0
H508 H 0.51085 0.05826 0.1308 0.0
H509 H 0.51288 0.09428 0.07899 0.0
H510 H 0.55565 0.08283 0.13785 0.0
H511 H 0.55828 0.11694 0.08535 0.0
H512 H 0.61877 0.18199 0.10588 0.0
H513 H 0.57528 0.15551 0.10037 0.0
H514 H 0.60517 0.08769 0.13421 0.0
H515 H 0.64816 0.11556 0.14062 0.0
C516 C 0.52123 0.07104 0.12086 0.0
C517 C 0.50837 0.07484 0.10448 0.0
C518 C 0.54695 0.085 0.12482 0.0
C519 C 0.56048 0.10242 0.11229 0.0
C520 C 0.54811 0.1047 0.09559 0.0
C521 C 0.52218 0.09149 0.09185 0.0
C522 C 0.61606 0.1614 0.11212 0.0
C523 C 0.6369 0.1507 0.12355 0.0
C524 C 0.59117 0.14601 0.10887 0.0
C525 C 0.58675 0.11906 0.11655 0.0
C526 C 0.60762 0.10843 0.12814 0.0
C527 C 0.63234 0.12427 0.13175 0.0
H528 H 0.20596 0.70117 0.12936 0.0
H529 H 0.12687 0.74079 0.11316 0.0
H530 H 0.18728 0.65451 0.12043 0.0
H531 H 0.10859 0.69438 0.1039 0.0
H532 H 0.09008 0.60665 0.08102 0.0
H533 H 0.11901 0.65018 0.08275 0.0
H534 H 0.14262 0.62888 0.13565 0.0
H535 H 0.11329 0.58583 0.13413 0.0
C536 C 0.18499 0.70002 0.12339 0.0
C537 C 0.16773 0.72448 0.12207 0.0
C538 C 0.17432 0.67338 0.11836 0.0
C539 C 0.14654 0.67098 0.11154 0.0
C540 C 0.13016 0.69574 0.10899 0.0
C541 C 0.14055 0.72223 0.11438 0.0
C542 C 0.10191 0.61101 0.09288 0.0
C543 C 0.09927 0.59305 0.1075 0.0
C544 C 0.11838 0.63587 0.09386 0.0
C545 C 0.13302 0.64272 0.1093 0.0
C546 C 0.13176 0.62387 0.12354 0.0
C547 C 0.11482 0.59939 0.1227 0.0
H548 H 0.53298 0.94862 0.3829 0.0
H549 H 0.49229 0.8706 0.366 0.0
H550 H 0.5798 0.92848 0.37545 0.0
H551 H 0.53892 0.85092 0.35814 0.0
H552 H 0.62823 0.83512 0.33454 0.0
H553 H 0.58418 0.86315 0.33695 0.0
H554 H 0.60392 0.88144 0.39081 0.0
H555 H 0.64752 0.85287 0.38861 0.0
C556 C 0.534 0.92751 0.37718 0.0
C557 C 0.50912 0.91106 0.3751 0.0
C558 C 0.56071 0.91601 0.373 0.0
C559 C 0.56278 0.88824 0.36625 0.0
C560 C 0.53777 0.87247 0.36321 0.0
C561 C 0.51118 0.88367 0.36778 0.0
C562 C 0.62335 0.84547 0.34681 0.0
C563 C 0.64114 0.84168 0.36144 0.0
C564 C 0.59821 0.86142 0.34817 0.0
C565 C 0.59088 0.87442 0.36403 0.0
C566 C 0.60933 0.8718 0.3784 0.0
C567 C 0.63411 0.85532 0.37717 0.0
H568 H 0.35724 0.24323 0.61286 0.0
H569 H 0.27857 0.28267 0.62976 0.0
H570 H 0.37575 0.28994 0.60426 0.0
H571 H 0.29752 0.3296 0.62155 0.0
H572 H 0.37239 0.39777 0.6352 0.0
H573 H 0.34343 0.35443 0.63687 0.0
H574 H 0.36401 0.33492 0.58333 0.0
H575 H 0.3925 0.3787 0.58144 0.0
C576 C 0.34371 0.26183 0.61439 0.0
C577 C 0.31656 0.25942 0.62203 0.0
C578 C 0.35424 0.28849 0.60941 0.0
C579 C 0.33804 0.31323 0.61232 0.0
C580 C 0.31034 0.31073 0.61919 0.0
C581 C 0.29951 0.28395 0.6238 0.0
C582 C 0.37029 0.38452 0.62369 0.0
C583 C 0.38481 0.39148 0.60823 0.0
C584 C 0.35357 0.35988 0.62461 0.0
C585 C 0.35155 0.3415 0.61021 0.0
C586 C 0.36525 0.34888 0.59456 0.0
C587 C 0.38146 0.37389 0.59351 0.0
H588 H 0.9536 0.03373 0.88447 0.0
H589 H -0.00656 0.10951 0.86349 0.0
H590 H 0.90643 0.05313 0.87697 0.0
H591 H 0.94649 0.12844 0.85565 0.0
H592 H 0.85649 0.14487 0.83435 0.0
H593 H 0.90021 0.11628 0.83643 0.0
H594 H 0.8831 0.10035 0.89089 0.0
H595 H 0.83979 0.12936 0.889 0.0
C596 C 0.9523 0.05411 0.87781 0.0
C597 C 0.97706 0.07025 0.87464 0.0
C598 C 0.92539 0.06521 0.87361 0.0
C599 C 0.92298 0.09223 0.86578 0.0
C600 C 0.94785 0.10746 0.86156 0.0
C601 C 0.97465 0.0967 0.86612 0.0
C602 C 0.86185 0.13491 0.8467 0.0
C603 C 0.84491 0.13952 0.86156 0.0
C604 C 0.88682 0.11862 0.84786 0.0
C605 C 0.89483 0.10612 0.86379 0.0
C606 C 0.87716 0.10954 0.87842 0.0
C607 C 0.85255 0.12632 0.87736 0.0
H608 H 0.89948 0.58738 0.63931 0.0
H609 H 0.83725 0.56534 0.59994 0.0
H610 H 0.87186 0.62926 0.64695 0.0
H611 H 0.80819 0.60628 0.60836 0.0
H612 H 0.78531 0.70164 0.61116 0.0
H613 H 0.80693 0.65523 0.60543 0.0
H614 H 0.83275 0.64952 0.65962 0.0
H615 H 0.81311 0.6968 0.66478 0.0
C616 C 0.87939 0.59109 0.63264 0.0
C617 C 0.87055 0.57325 0.61898 0.0
C618 C 0.86334 0.6151 0.63708 0.0
C619 C 0.83765 0.62146 0.62825 0.0
C620 C 0.82813 0.60259 0.61518 0.0
C621 C 0.8446 0.57894 0.61045 0.0
C622 C 0.79547 0.69022 0.6218 0.0
C623 C 0.79795 0.70279 0.63832 0.0
C624 C 0.80772 0.66349 0.6186 0.0
C625 C 0.82201 0.64852 0.63201 0.0
C626 C 0.82282 0.66063 0.6488 0.0
C627 C 0.81135 0.68765 0.65183 0.0
H628 H 0.17291 0.12159 0.38955 0.0
H629 H 0.155 0.10314 0.33537 0.0
H630 H 0.13094 0.09403 0.39814 0.0
H631 H 0.1129 0.07598 0.34396 0.0
H632 H 0.0323 0.08708 0.40122 0.0
H633 H 0.07975 0.10499 0.39449 0.0
H634 H 0.09361 0.03382 0.35971 0.0
H635 H 0.04568 0.01587 0.36636 0.0
C636 C 0.16029 0.11129 0.3795 0.0
C637 C 0.167 0.11487 0.36177 0.0
C638 C 0.1362 0.09563 0.38442 0.0
C639 C 0.11844 0.08319 0.37171 0.0
C640 C 0.12624 0.08519 0.35406 0.0
C641 C 0.15028 0.1009 0.34914 0.0
C642 C 0.04548 0.07512 0.3922 0.0
C643 C 0.03519 0.05016 0.38423 0.0
C644 C 0.07281 0.08525 0.38848 0.0
C645 C 0.09048 0.07072 0.37665 0.0
C646 C 0.08039 0.0455 0.36883 0.0
C647 C 0.05301 0.03523 0.37265 0.0
H648 H 0.6377 0.40663 0.09042 0.0
H649 H 0.61564 0.42353 0.14417 0.0
H650 H 0.66515 0.36505 0.09951 0.0
H651 H 0.64364 0.38214 0.15331 0.0
H652 H 0.65024 0.28342 0.15583 0.0
H653 H 0.63355 0.3314 0.1496 0.0
H654 H 0.706 0.34505 0.1157 0.0
H655 H 0.72264 0.29646 0.1218 0.0
C656 C 0.63924 0.40183 0.10423 0.0
C657 C 0.62409 0.41804 0.11656 0.0
C658 C 0.65515 0.37809 0.10945 0.0
C659 C 0.65625 0.3701 0.12711 0.0
C660 C 0.64275 0.38751 0.13957 0.0
C661 C 0.62682 0.41126 0.13434 0.0
C662 C 0.6628 0.29668 0.14716 0.0
C663 C 0.68761 0.28607 0.13917 0.0
C664 C 0.65337 0.32434 0.14373 0.0
C665 C 0.6685 0.34208 0.13219 0.0
C666 C 0.69381 0.33179 0.12456 0.0
C667 C 0.70336 0.30404 0.12808 0.0
H668 H 0.45616 0.89206 0.90082 0.0
H669 H 0.44623 0.96167 0.86423 0.0
H670 H 0.40846 0.87523 0.89375 0.0
H671 H 0.39798 0.94481 0.85723 0.0
H672 H 0.31512 0.86145 0.8883 0.0
H673 H 0.35776 0.88816 0.89664 0.0
H674 H 0.37727 0.90259 0.84226 0.0
H675 H 0.33444 0.87631 0.8339 0.0
C676 C 0.4437 0.90389 0.89132 0.0
C677 C 0.45501 0.9281 0.883 0.0
C678 C 0.41622 0.8944 0.88741 0.0
C679 C 0.39938 0.90882 0.87503 0.0
C680 C 0.41053 0.93323 0.86679 0.0
C681 C 0.43809 0.94287 0.8708 0.0
C682 C 0.32822 0.87078 0.87814 0.0
C683 C 0.32169 0.8664 0.86045 0.0
C684 C 0.35269 0.88595 0.88291 0.0
C685 C 0.37107 0.89708 0.8701 0.0
C686 C 0.36348 0.89437 0.85243 0.0
C687 C 0.33901 0.87917 0.84765 0.0
H688 H 0.83403 0.42057 0.89396 0.0
H689 H 0.88906 0.40436 0.84991 0.0
H690 H 0.80479 0.37942 0.88606 0.0
H691 H 0.86146 0.36236 0.84268 0.0
H692 H 0.80444 0.29251 0.82726 0.0
H693 H 0.82123 0.34093 0.83225 0.0
H694 H 0.80646 0.33026 0.88766 0.0
H695 H 0.78743 0.2826 0.88222 0.0
C696 C 0.83969 0.40828 0.8825 0.0
C697 C 0.8638 0.41557 0.87257 0.0
C698 C 0.82315 0.3845 0.87806 0.0
C699 C 0.8308 0.36713 0.86383 0.0
C700 C 0.85436 0.3753 0.85353 0.0
C701 C 0.87043 0.3994 0.85773 0.0
C702 C 0.80441 0.30084 0.84045 0.0
C703 C 0.79498 0.28393 0.8544 0.0
C704 C 0.81426 0.32851 0.84337 0.0
C705 C 0.81589 0.33954 0.86042 0.0
C706 C 0.80529 0.32282 0.87431 0.0
C707 C 0.79457 0.29539 0.87127 0.0
H708 H 0.31013 0.12049 0.59969 0.0
H709 H 0.32918 0.10391 0.65397 0.0
H710 H 0.35229 0.0932 0.59117 0.0
H711 H 0.37154 0.07712 0.64546 0.0
H712 H 0.45064 0.08782 0.58717 0.0
H713 H 0.40303 0.10492 0.59406 0.0
H714 H 0.39189 0.03521 0.63039 0.0
H715 H 0.4401 0.01812 0.62359 0.0
C716 C 0.32306 0.11067 0.60978 0.0
C717 C 0.3166 0.11471 0.6275 0.0
C718 C 0.34727 0.09517 0.60491 0.0
C719 C 0.36546 0.08339 0.61766 0.0
C720 C 0.3579 0.08581 0.63533 0.0
C721 C 0.3337 0.10131 0.6402 0.0
C722 C 0.43805 0.076 0.59657 0.0
C723 C 0.4492 0.05172 0.60493 0.0
C724 C 0.4106 0.08565 0.60038 0.0
C725 C 0.39361 0.07132 0.61269 0.0
C726 C 0.40456 0.04676 0.6209 0.0
C727 C 0.4321 0.03697 0.617 0.0
H728 H 0.68108 0.68919 0.32671 0.0
H729 H 0.69909 0.69938 0.38155 0.0
H730 H 0.66396 0.64096 0.33198 0.0
H731 H 0.67976 0.65192 0.38727 0.0
H732 H 0.65191 0.56162 0.39391 0.0
H733 H 0.68112 0.60269 0.38582 0.0
H734 H 0.6237 0.61997 0.34271 0.0
H735 H 0.59608 0.57806 0.35014 0.0
C736 C 0.68127 0.68097 0.33993 0.0
C737 C 0.69109 0.6979 0.35377 0.0
C738 C 0.67123 0.65341 0.34301 0.0
C739 C 0.66979 0.64251 0.36012 0.0
C740 C 0.68076 0.65925 0.37389 0.0
C741 C 0.69167 0.68656 0.37069 0.0
C742 C 0.64605 0.57395 0.38248 0.0
C743 C 0.62174 0.56673 0.37267 0.0
C744 C 0.66259 0.59767 0.37793 0.0
C745 C 0.65475 0.61505 0.3637 0.0
C746 C 0.63094 0.607 0.35354 0.0
C747 C 0.61486 0.58295 0.35786 0.0
H748 H 0.17199 0.86306 0.10172 0.0
H749 H 0.15406 0.87909 0.15614 0.0
H750 H 0.1297 0.8905 0.0935 0.0
H751 H 0.11158 0.90605 0.14793 0.0
H752 H 0.0315 0.89756 0.08972 0.0
H753 H 0.07878 0.87934 0.0966 0.0
H754 H 0.09162 0.94846 0.13307 0.0
H755 H 0.04378 0.96667 0.12629 0.0
C756 C 0.15928 0.87278 0.11191 0.0
C757 C 0.16612 0.86858 0.12958 0.0
C758 C 0.13498 0.88836 0.10721 0.0
C759 C 0.1171 0.90007 0.12008 0.0
C760 C 0.12499 0.89741 0.1377 0.0
C761 C 0.14925 0.88182 0.1424 0.0
C762 C 0.04439 0.90899 0.09917 0.0
C763 C 0.03384 0.93348 0.10754 0.0
C764 C 0.07164 0.89869 0.10298 0.0
C765 C 0.08903 0.91258 0.11528 0.0
C766 C 0.07863 0.93725 0.12357 0.0
C767 C 0.0513 0.94768 0.11969 0.0
H768 H 0.70722 0.779 0.85992 0.0
H769 H 0.63037 0.73981 0.87989 0.0
H770 H 0.68875 0.82609 0.86807 0.0
H771 H 0.61232 0.78669 0.88837 0.0
H772 H 0.59451 0.87599 0.90894 0.0
H773 H 0.62369 0.83264 0.90763 0.0
H774 H 0.6426 0.84992 0.85353 0.0
H775 H 0.61304 0.89286 0.85466 0.0
C776 C 0.68687 0.78037 0.86658 0.0
C777 C 0.67008 0.75587 0.86918 0.0
C778 C 0.67629 0.80726 0.87115 0.0
C779 C 0.64913 0.80989 0.87876 0.0
C780 C 0.63341 0.78517 0.88263 0.0
C781 C 0.64368 0.7584 0.87772 0.0
C782 C 0.60532 0.87079 0.89686 0.0
C783 C 0.60132 0.88761 0.88184 0.0
C784 C 0.62196 0.84603 0.89614 0.0
C785 C 0.63539 0.83812 0.88051 0.0
C786 C 0.6327 0.85579 0.86579 0.0
C787 C 0.61561 0.88019 0.8664 0.0
H788 H 0.45488 0.45298 0.10891 0.0
H789 H 0.49406 0.37457 0.12657 0.0
H790 H 0.40764 0.4337 0.11621 0.0
H791 H 0.44701 0.35575 0.13427 0.0
H792 H 0.35719 0.34031 0.15665 0.0
H793 H 0.40138 0.36822 0.15481 0.0
H794 H 0.38324 0.38725 0.1008 0.0
H795 H 0.33949 0.35882 0.10245 0.0
C796 C 0.45345 0.43199 0.1148 0.0
C797 C 0.47803 0.41516 0.11711 0.0
C798 C 0.42649 0.42098 0.11889 0.0
C799 C 0.42386 0.39331 0.12577 0.0
C800 C 0.44858 0.37723 0.12911 0.0
C801 C 0.47542 0.38794 0.12464 0.0
C802 C 0.36241 0.35085 0.14448 0.0
C803 C 0.34505 0.34727 0.12965 0.0
C804 C 0.38765 0.36673 0.14344 0.0
C805 C 0.39551 0.37985 0.12769 0.0
C806 C 0.37742 0.37752 0.11313 0.0
C807 C 0.35254 0.36113 0.11405 0.0
H808 H 0.90319 0.09515 0.34629 0.0
H809 H 0.87925 0.09382 0.40079 0.0
H810 H 0.87638 0.13905 0.34223 0.0
H811 H 0.85211 0.13814 0.39653 0.0
H812 H 0.78667 0.20654 0.37093 0.0
H813 H 0.80822 0.15984 0.37745 0.0
H814 H 0.88811 0.18864 0.35559 0.0
H815 H 0.86718 0.2348 0.34923 0.0
C816 C 0.89197 0.104 0.35739 0.0
C817 C 0.89373 0.09113 0.37393 0.0
C818 C 0.87664 0.1292 0.35503 0.0
C819 C 0.86253 0.14207 0.36912 0.0
C820 C 0.86285 0.12854 0.38548 0.0
C821 C 0.87845 0.10329 0.3879 0.0
C822 C 0.8089 0.20294 0.36769 0.0
C823 C 0.82508 0.22435 0.35941 0.0
C824 C 0.82118 0.17629 0.37145 0.0
C825 C 0.84964 0.17065 0.36677 0.0
C826 C 0.86597 0.19233 0.35906 0.0
C827 C 0.85392 0.21885 0.35549 0.0
H828 H 0.15234 0.61929 0.64046 0.0
H829 H 0.12492 0.67903 0.60088 0.0
H830 H 0.11033 0.5897 0.63454 0.0
H831 H 0.08246 0.65085 0.5957 0.0
H832 H 0.02073 0.58699 0.57734 0.0
H833 H 0.06659 0.60951 0.58293 0.0
H834 H 0.06045 0.58565 0.6374 0.0
H835 H 0.01527 0.56114 0.63125 0.0
C836 C 0.1372 0.62616 0.6306 0.0
C837 C 0.14202 0.65127 0.62099 0.0
C838 C 0.11305 0.60932 0.62726 0.0
C839 C 0.09302 0.61758 0.61446 0.0
C840 C 0.09774 0.64313 0.60522 0.0
C841 C 0.12205 0.65952 0.60829 0.0
C842 C 0.02949 0.58626 0.59044 0.0
C843 C 0.01458 0.57263 0.60391 0.0
C844 C 0.05563 0.59942 0.59373 0.0
C845 C 0.06703 0.60016 0.61074 0.0
C846 C 0.0525 0.58545 0.62412 0.0
C847 C 0.02659 0.57151 0.62067 0.0
H848 H 0.60539 0.08722 0.63712 0.0
H849 H 0.58854 0.10682 0.58295 0.0
H850 H 0.63472 0.13025 0.63951 0.0
H851 H 0.61739 0.15026 0.58554 0.0
H852 H 0.62451 0.24186 0.61466 0.0
H853 H 0.60534 0.19539 0.60613 0.0
H854 H 0.6819 0.1544 0.62519 0.0
H855 H 0.70154 0.20112 0.63332 0.0
C856 C 0.60825 0.10054 0.62568 0.0
C857 C 0.59456 0.0938 0.60988 0.0
C858 C 0.62518 0.12499 0.62702 0.0
C859 C 0.62826 0.14342 0.61269 0.0
C860 C 0.61533 0.13628 0.59674 0.0
C861 C 0.5989 0.11146 0.59528 0.0
C862 C 0.63753 0.22299 0.61662 0.0
C863 C 0.66444 0.225 0.62467 0.0
C864 C 0.62663 0.19648 0.61168 0.0
C865 C 0.64217 0.17145 0.61507 0.0
C866 C 0.66959 0.17349 0.62246 0.0
C867 C 0.68083 0.20015 0.62701 0.0
H868 H 0.13296 0.32234 0.89165 0.0
H869 H 0.14016 0.35678 0.83944 0.0
H870 H 0.08834 0.34802 0.89562 0.0
H871 H 0.09513 0.38271 0.8436 0.0
H872 H 0.0255 0.44424 0.87069 0.0
H873 H 0.07216 0.4227 0.86423 0.0
H874 H 0.03995 0.34042 0.88021 0.0
H875 H -0.00623 0.36142 0.88652 0.0
C876 C 0.12519 0.33556 0.88105 0.0
C877 C 0.14001 0.33723 0.86514 0.0
C878 C 0.09957 0.35021 0.88334 0.0
C879 C 0.08822 0.36703 0.86984 0.0
C880 C 0.10352 0.36985 0.85419 0.0
C881 C 0.12917 0.35492 0.85182 0.0
C882 C 0.02832 0.42151 0.87262 0.0
C883 C 0.00597 0.40464 0.87931 0.0
C884 C 0.05496 0.40923 0.8689 0.0
C885 C 0.05965 0.38004 0.872 0.0
C886 C 0.03701 0.36308 0.878 0.0
C887 C 0.01049 0.37518 0.88155 0.0
H888 H 0.87589 0.90065 0.13561 0.0
H889 H 0.89848 0.88054 0.08238 0.0
H890 H 0.84696 0.85731 0.13715 0.0
H891 H 0.86999 0.83671 0.08413 0.0
H892 H 0.86156 0.74553 0.11387 0.0
H893 H 0.88052 0.79208 0.10532 0.0
H894 H 0.80191 0.8322 0.12155 0.0
H895 H 0.78254 0.78543 0.12974 0.0
C896 C 0.87435 0.88715 0.12418 0.0
C897 C 0.88954 0.89383 0.10891 0.0
C898 C 0.85765 0.8625 0.12502 0.0
C899 C 0.8563 0.84381 0.11074 0.0
C900 C 0.8707 0.8509 0.09527 0.0
C901 C 0.88691 0.87593 0.09429 0.0
C902 C 0.84807 0.7642 0.1152 0.0
C903 C 0.82067 0.76196 0.12254 0.0
C904 C 0.85885 0.79077 0.11024 0.0
C905 C 0.84265 0.8156 0.11285 0.0
C906 C 0.81474 0.81327 0.11942 0.0
C907 C 0.80368 0.78657 0.12403 0.0
H908 H 0.4935 0.62166 0.38933 0.0
H909 H 0.46051 0.54041 0.37162 0.0
H910 H 0.44785 0.64391 0.38303 0.0
H911 H 0.41438 0.56314 0.36525 0.0
H912 H 0.34695 0.62879 0.34119 0.0
H913 H 0.39193 0.60283 0.34544 0.0
H914 H 0.39938 0.63828 0.39722 0.0
H915 H 0.35484 0.66408 0.39311 0.0
C916 C 0.47659 0.6085 0.38398 0.0
C917 C 0.48064 0.57911 0.38116 0.0
C918 C 0.45037 0.62131 0.38044 0.0
C919 C 0.42751 0.60515 0.3739 0.0
C920 C 0.43172 0.57603 0.37032 0.0
C921 C 0.45807 0.56306 0.374 0.0
C922 C 0.35811 0.63088 0.35352 0.0
C923 C 0.3474 0.64872 0.36676 0.0
C924 C 0.38375 0.61592 0.35595 0.0
C925 C 0.39922 0.61883 0.37157 0.0
C926 C 0.38809 0.636 0.38494 0.0
C927 C 0.36248 0.65069 0.38259 0.0
H928 H 0.34979 0.07819 0.08823 0.0
H929 H 0.37386 0.06596 0.1422 0.0
H930 H 0.32429 0.1216 0.09605 0.0
H931 H 0.34772 0.10912 0.15009 0.0
H932 H 0.26774 0.1923 0.11739 0.0
H933 H 0.2847 0.14376 0.11176 0.0
H934 H 0.35802 0.15919 0.14481 0.0
H935 H 0.34092 0.20714 0.15066 0.0
C936 C 0.34911 0.08444 0.10183 0.0
C937 C 0.36421 0.06893 0.11457 0.0
C938 C 0.33435 0.10926 0.10632 0.0
C939 C 0.33433 0.11901 0.12365 0.0
C940 C 0.34786 0.10244 0.13657 0.0
C941 C 0.36268 0.07764 0.13207 0.0
C942 C 0.2874 0.18521 0.12349 0.0
C943 C 0.30307 0.20356 0.1344 0.0
C944 C 0.29712 0.15746 0.12026 0.0
C945 C 0.32262 0.14758 0.12792 0.0
C946 C 0.33801 0.16591 0.13898 0.0
C947 C 0.32835 0.19354 0.14218 0.0
H948 H 0.5434 0.51587 0.86621 0.0
H949 H 0.53457 0.58485 0.90322 0.0
H950 H 0.59154 0.53264 0.859 0.0
H951 H 0.58217 0.60165 0.89591 0.0
H952 H 0.65398 0.60125 0.83509 0.0
H953 H 0.61164 0.57475 0.84396 0.0
H954 H 0.63297 0.58932 0.89809 0.0
H955 H 0.67515 0.61631 0.88922 0.0
C956 C 0.55177 0.53449 0.87284 0.0
C957 C 0.53516 0.54914 0.88519 0.0
C958 C 0.57927 0.5441 0.8687 0.0
C959 C 0.59069 0.56837 0.87695 0.0
C960 C 0.57422 0.5826 0.88954 0.0
C961 C 0.54679 0.57312 0.8936 0.0
C962 C 0.64993 0.59838 0.84889 0.0
C963 C 0.66763 0.61127 0.86146 0.0
C964 C 0.62573 0.58304 0.85397 0.0
C965 C 0.61877 0.58029 0.87171 0.0
C966 C 0.63754 0.59155 0.88431 0.0
C967 C 0.66176 0.60687 0.87923 0.0
H968 H 0.2224 0.79952 0.61761 0.0
H969 H 0.15149 0.7853 0.65263 0.0
H970 H 0.20457 0.84771 0.61158 0.0
H971 H 0.13365 0.83291 0.64648 0.0
H972 H 0.11504 0.92512 0.6418 0.0
H973 H 0.14365 0.88379 0.65026 0.0
H974 H 0.16261 0.86731 0.59604 0.0
H975 H 0.13449 0.90885 0.5876 0.0
C976 C 0.20317 0.80674 0.6241 0.0
C977 C 0.18823 0.78858 0.63549 0.0
C978 C 0.19295 0.83426 0.62062 0.0
C979 C 0.16776 0.84413 0.6286 0.0
C980 C 0.15336 0.82616 0.64035 0.0
C981 C 0.16345 0.79873 0.64373 0.0
C982 C 0.12578 0.913 0.63172 0.0
C983 C 0.12215 0.91995 0.61402 0.0
C984 C 0.14205 0.88927 0.63656 0.0
C985 C 0.15501 0.87206 0.6238 0.0
C986 C 0.15302 0.8802 0.60619 0.0
C987 C 0.13675 0.90393 0.60135 0.0
H988 H 0.95264 0.44142 0.35692 0.0
H989 H 0.94353 0.42173 0.41161 0.0
H990 H 0.90517 0.42181 0.35126 0.0
H991 H 0.89534 0.40437 0.40644 0.0
H992 H 0.83024 0.33882 0.38869 0.0
H993 H 0.87337 0.36495 0.39556 0.0
H994 H 0.85598 0.42344 0.35306 0.0
H995 H 0.81363 0.39565 0.34547 0.0
C996 C 0.9401 0.43347 0.36776 0.0
C997 C 0.95172 0.4326 0.38461 0.0
C998 C 0.91278 0.42242 0.3646 0.0
C999 C 0.8963 0.41103 0.37835 0.0
C1000 C 0.90756 0.41195 0.39539 0.0
C1001 C 0.93512 0.42213 0.39842 0.0
C1002 C 0.8354 0.3575 0.38097 0.0
C1003 C 0.81866 0.36515 0.36651 0.0
C1004 C 0.86017 0.37272 0.38497 0.0
C1005 C 0.86849 0.39646 0.37487 0.0
C1006 C 0.85077 0.40495 0.36091 0.0
C1007 C 0.8263 0.38924 0.35666 0.0
H1008 H 0.30133 0.79525 0.32545 0.0
H1009 H 0.28429 0.78368 0.38027 0.0
H1010 H 0.31921 0.84312 0.33109 0.0
H1011 H 0.30444 0.83062 0.38636 0.0
H1012 H 0.33547 0.91947 0.39414 0.0
H1013 H 0.30477 0.8797 0.38572 0.0
H1014 H 0.36007 0.86295 0.34164 0.0
H1015 H 0.38912 0.90372 0.34942 0.0
C1016 C 0.30142 0.80314 0.33874 0.0
C1017 C 0.29169 0.78593 0.35246 0.0
C1018 C 0.31194 0.83046 0.34204 0.0
C1019 C 0.31402 0.84076 0.35926 0.0
C1020 C 0.30298 0.8238 0.3729 0.0
C1021 C 0.29157 0.79677 0.36948 0.0
C1022 C 0.34055 0.90754 0.38245 0.0
C1023 C 0.36466 0.91459 0.37245 0.0
C1024 C 0.32315 0.88455 0.37769 0.0
C1025 C 0.32993 0.86767 0.36307 0.0
C1026 C 0.35359 0.87556 0.35277 0.0
C1027 C 0.37051 0.89893 0.35729 0.0
H1028 H 0.95664 0.59253 0.08971 0.0
H1029 H 0.94263 0.52064 0.12407 0.0
H1030 H 0.9088 0.60989 0.09585 0.0
H1031 H 0.89428 0.53796 0.13006 0.0
H1032 H 0.82998 0.60496 0.15337 0.0
H1033 H 0.87302 0.57882 0.14549 0.0
H1034 H 0.85823 0.59869 0.09114 0.0
H1035 H 0.81535 0.62536 0.09907 0.0
C1036 C 0.94327 0.58033 0.09852 0.0
C1037 C 0.95346 0.5553 0.10649 0.0
C1038 C 0.91571 0.59013 0.10188 0.0
C1039 C 0.89767 0.57517 0.11332 0.0
C1040 C 0.90776 0.54999 0.12123 0.0
C1041 C 0.9354 0.54009 0.1178 0.0
C1042 C 0.83562 0.60334 0.1397 0.0
C1043 C 0.81956 0.61761 0.12686 0.0
C1044 C 0.86022 0.58822 0.13519 0.0
C1045 C 0.86922 0.58706 0.11773 0.0
C1046 C 0.85208 0.5997 0.10475 0.0
C1047 C 0.82745 0.61482 0.10927 0.0
H1048 H 0.18064 0.1902 0.82436 0.0
H1049 H 0.2022 0.20133 0.87865 0.0
H1050 H 0.16258 0.14256 0.83052 0.0
H1051 H 0.18189 0.15469 0.88532 0.0
H1052 H 0.15169 0.06573 0.89389 0.0
H1053 H 0.18145 0.10577 0.88474 0.0
H1054 H 0.12282 0.12236 0.84211 0.0
H1055 H 0.09475 0.08124 0.85056 0.0
C1056 C 0.18144 0.18229 0.83765 0.0
C1057 C 0.19257 0.19929 0.85107 0.0
C1058 C 0.17082 0.1551 0.84126 0.0
C1059 C 0.17008 0.14472 0.85851 0.0
C1060 C 0.18233 0.16154 0.87184 0.0
C1061 C 0.19383 0.18841 0.86809 0.0
C1062 C 0.14568 0.07769 0.88235 0.0
C1063 C 0.12099 0.07046 0.87293 0.0
C1064 C 0.16253 0.10085 0.87718 0.0
C1065 C 0.15456 0.11775 0.86275 0.0
C1066 C 0.13022 0.10973 0.85306 0.0
C1067 C 0.11387 0.08616 0.85796 0.0
H1068 H 0.54086 0.46619 0.62352 0.0
H1069 H 0.52787 0.39431 0.58909 0.0
H1070 H 0.58914 0.44898 0.63005 0.0
H1071 H 0.57558 0.37706 0.59576 0.0
H1072 H 0.66888 0.36144 0.60019 0.0
H1073 H 0.62623 0.38808 0.5917 0.0
H1074 H 0.61002 0.40812 0.64581 0.0
H1075 H 0.65285 0.382 0.65427 0.0
C1076 C 0.54832 0.4468 0.61733 0.0
C1077 C 0.53053 0.43153 0.60587 0.0
C1078 C 0.5759 0.43694 0.62108 0.0
C1079 C 0.58622 0.41176 0.61333 0.0
C1080 C 0.5685 0.39681 0.60169 0.0
C1081 C 0.54101 0.40656 0.59801 0.0
C1082 C 0.65651 0.37199 0.61023 0.0
C1083 C 0.66398 0.36928 0.62791 0.0
C1084 C 0.63201 0.38711 0.60538 0.0
C1085 C 0.61454 0.39983 0.61811 0.0
C1086 C 0.62308 0.39868 0.63568 0.0
C1087 C 0.64756 0.38356 0.64053 0.0
H1088 H 0.27947 0.29328 0.2151 0.0
H1089 H 0.20682 0.24712 0.19463 0.0
H1090 H 0.26595 0.2793 0.24468 0.0
H1091 H 0.19388 0.23248 0.22396 0.0
H1092 H 0.16367 0.22831 0.27933 0.0
H1093 H 0.17581 0.24915 0.25122 0.0
H1094 H 0.26557 0.23651 0.26226 0.0
H1095 H 0.25345 0.2165 0.29066 0.0
C1096 C 0.26057 0.28027 0.21692 0.0
C1097 C 0.24424 0.27125 0.20255 0.0
C1098 C 0.25293 0.27211 0.23384 0.0
C1099 C 0.22888 0.2547 0.23668 0.0
C1100 C 0.21227 0.24625 0.22229 0.0
C1101 C 0.2198 0.25451 0.20544 0.0
C1102 C 0.18601 0.23008 0.2758 0.0
C1103 C 0.20759 0.22054 0.28717 0.0
C1104 C 0.19297 0.24195 0.25966 0.0
C1105 C 0.22165 0.24431 0.25443 0.0
C1106 C 0.24328 0.23533 0.26596 0.0
C1107 C 0.23632 0.22366 0.28219 0.0
H1108 H 0.01257 0.91583 0.52951 0.0
H1109 H 0.02139 0.00546 0.54165 0.0
H1110 H 0.99125 0.92796 0.50157 0.0
H1111 H 0.00108 0.01772 0.51323 0.0
H1112 H 0.94453 0.03036 0.46527 0.0
H1113 H 0.95918 0.01775 0.49497 0.0
H1114 H 0.00723 0.9463 0.47466 0.0
H1115 H 0.99181 0.95817 0.44538 0.0
C1116 C 0.01011 0.93817 0.52615 0.0
C1117 C 0.01895 0.9597 0.5377 0.0
C1118 C -0.00204 0.94514 0.51009 0.0
C1119 C -0.00525 0.97382 0.50503 0.0
C1120 C 0.00296 -0.00459 0.51677 0.0
C1121 C 0.0148 0.98841 0.533 0.0
C1122 C 0.95794 0.01178 0.46725 0.0
C1123 C 0.96695 -0.00479 0.45301 0.0
C1124 C 0.96651 0.00468 0.48422 0.0
C1125 C 0.98436 0.98098 0.48723 0.0
C1126 C -0.00697 0.96434 0.47293 0.0
C1127 C 0.9843 0.97126 0.45607 0.0
H1128 H 0.28217 0.7308 0.69533 0.0
H1129 H 0.20328 0.69296 0.71332 0.0
H1130 H 0.29435 0.74376 0.725 0.0
H1131 H 0.21602 0.70515 0.74337 0.0
H1132 H 0.23184 0.76777 0.78943 0.0
H1133 H 0.2196 0.74751 0.76108 0.0
H1134 H 0.30841 0.7261 0.75269 0.0
H1135 H 0.32072 0.74729 0.78064 0.0
C1136 C 0.26763 0.72478 0.70569 0.0
C1137 C 0.24169 0.71098 0.70197 0.0
C1138 C 0.27472 0.73205 0.72277 0.0
C1139 C 0.25617 0.72551 0.73661 0.0
C1140 C 0.2306 0.71084 0.73297 0.0
C1141 C 0.2234 0.70367 0.7158 0.0
C1142 C 0.24869 0.75859 0.78155 0.0
C1143 C 0.27729 0.7595 0.78714 0.0
C1144 C 0.24166 0.74677 0.76536 0.0
C1145 C 0.26306 0.73537 0.75454 0.0
C1146 C 0.29148 0.73525 0.76052 0.0
C1147 C 0.29854 0.74735 0.77657 0.0
H1148 H 0.42785 0.04588 0.019 0.0
H1149 H 0.4818 0.98611 0.0467 0.0
H1150 H 0.45024 0.03238 0.99168 0.0
H1151 H 0.50507 0.97327 0.01932 0.0
H1152 H 0.51381 0.02696 0.94855 0.0
H1153 H 0.49452 0.03877 0.9771 0.0
H1154 H 0.49815 0.94971 0.99186 0.0
H1155 H 0.51858 0.93811 0.96346 0.0
C1156 C 0.44456 0.02988 0.01925 0.0
C1157 C 0.45314 0.01714 0.035 0.0
C1158 C 0.4576 0.02231 0.0036 0.0
C1159 C 0.4798 0.00208 0.00333 0.0
C1160 C 0.48793 0.98881 0.01905 0.0
C1161 C 0.47463 -0.00382 0.03473 0.0
C1162 C 0.5108 0.00997 0.95798 0.0
C1163 C 0.5175 0.98161 0.95377 0.0
C1164 C 0.49951 0.01668 0.97428 0.0
C1165 C 0.49428 -0.00489 0.98666 0.0
C1166 C 0.50204 0.96686 0.98267 0.0
C1167 C 0.51368 0.96019 0.9664 0.0
H1168 H 0.29098 0.71099 0.27709 0.0
H1169 H 0.20207 0.69718 0.28954 0.0
H1170 H 0.27759 0.72685 0.24795 0.0
H1171 H 0.18862 0.71155 0.2601 0.0
H1172 H 0.17241 0.77788 0.21783 0.0
H1173 H 0.1857 0.75507 0.24511 0.0
H1174 H 0.25915 0.71703 0.21999 0.0
H1175 H 0.24645 0.74109 0.19283 0.0
C1176 C 0.26861 0.71058 0.2734 0.0
C1177 C 0.24752 0.70319 0.2856 0.0
C1178 C 0.2609 0.71959 0.25666 0.0
C1179 C 0.23194 0.72095 0.25172 0.0
C1180 C 0.21105 0.71159 0.26361 0.0
C1181 C 0.21874 0.70308 0.28043 0.0
C1182 C 0.19136 0.7646 0.21812 0.0
C1183 C 0.20846 0.76141 0.20322 0.0
C1184 C 0.19887 0.75124 0.23374 0.0
C1185 C 0.22344 0.73398 0.23478 0.0
C1186 C 0.24031 0.73045 0.21976 0.0
C1187 C 0.233 0.74418 0.20417 0.0
H1188 H 0.43947 0.9247 0.46724 0.0
H1189 H 0.48521 -0.00673 0.4419 0.0
H1190 H 0.46006 0.93846 0.49511 0.0
H1191 H 0.50698 0.00629 0.46968 0.0
H1192 H 0.51409 0.04084 0.52567 0.0
H1193 H 0.49676 0.02734 0.49685 0.0
H1194 H 0.50261 0.93823 0.51133 0.0
H1195 H 0.51849 0.95193 0.54039 0.0
C1196 C 0.45416 0.94257 0.46762 0.0
C1197 C 0.46066 0.95795 0.4524 0.0
C1198 C 0.4662 0.95033 0.48358 0.0
C1199 C 0.48541 0.97338 0.48468 0.0
C1200 C 0.49199 0.98868 0.4694 0.0
C1201 C 0.47959 0.98117 0.45345 0.0
C1202 C 0.51193 0.01838 0.52259 0.0
C1203 C 0.51738 -0.00257 0.53528 0.0
C1204 C 0.50209 0.0106 0.50604 0.0
C1205 C 0.49794 0.98167 0.50178 0.0
C1206 C 0.50479 0.96072 0.51428 0.0
C1207 C 0.51415 0.96854 0.53089 0.0
H1208 H 0.28387 0.28565 0.78786 0.0
H1209 H 0.19451 0.27437 0.77546 0.0
H1210 H 0.29672 0.27044 0.75853 0.0
H1211 H 0.20728 0.25771 0.74643 0.0
H1212 H 0.23797 0.24198 0.69139 0.0
H1213 H 0.22594 0.26659 0.71842 0.0
H1214 H 0.29816 0.22652 0.74389 0.0
H1215 H 0.31082 0.20314 0.71674 0.0
C1216 C 0.26698 0.28014 0.77878 0.0
C1217 C 0.23823 0.28096 0.78394 0.0
C1218 C 0.27432 0.27115 0.76202 0.0
C1219 C 0.25309 0.26224 0.75019 0.0
C1220 C 0.22421 0.26458 0.75511 0.0
C1221 C 0.21686 0.27406 0.77178 0.0
C1222 C 0.25127 0.23853 0.70278 0.0
C1223 C 0.27531 0.22061 0.70196 0.0
C1224 C 0.24435 0.25258 0.71829 0.0
C1225 C 0.26112 0.24869 0.73336 0.0
C1226 C 0.28512 0.23064 0.73247 0.0
C1227 C 0.29225 0.21696 0.71693 0.0
H1228 H 0.02718 0.98369 0.94937 0.0
H1229 H 0.02165 0.07335 0.96223 0.0
H1230 H 0.00768 0.97153 0.97791 0.0
H1231 H 0.00128 0.06127 0.99044 0.0
H1232 H -0.00093 0.02859 0.04643 0.0
H1233 H 0.01597 0.04108 0.01748 0.0
H1234 H 0.96503 0.97309 -0.00464 0.0
H1235 H 0.94882 0.95993 0.02457 0.0
C1236 C 0.02162 0.0008 0.95824 0.0
C1237 C 0.02617 0.02947 0.95359 0.0
C1238 C 0.01023 -0.00615 0.97454 0.0
C1239 C 0.00295 0.01542 0.98648 0.0
C1240 C 0.00712 0.04409 0.98169 0.0
C1241 C 0.01872 0.05103 0.96548 0.0
C1242 C 0.99131 0.0164 0.03539 0.0
C1243 C 0.97265 -0.00676 0.03777 0.0
C1244 C 0.00089 0.02367 0.01875 0.0
C1245 C 0.99186 0.0081 0.00407 0.0
C1246 C 0.97273 0.98525 0.00642 0.0
C1247 C 0.96327 0.97784 0.02312 0.0
H1248 H 0.70126 0.7537 0.69635 0.0
H1249 H 0.77645 0.79594 0.71655 0.0
H1250 H 0.68902 0.73786 0.72552 0.0
H1251 H 0.76361 0.78085 0.74605 0.0
H1252 H 0.75205 0.71449 0.79024 0.0
H1253 H 0.76305 0.73696 0.76236 0.0
H1254 H 0.67299 0.75201 0.75357 0.0
H1255 H 0.66195 0.72864 0.78109 0.0
C1256 C 0.7149 0.76009 0.7071 0.0
C1257 C 0.73992 0.77592 0.70415 0.0
C1258 C 0.70778 0.75113 0.72387 0.0
C1259 C 0.72539 0.75798 0.73814 0.0
C1260 C 0.74984 0.77482 0.73529 0.0
C1261 C 0.75708 0.78366 0.71843 0.0
C1262 C 0.73462 0.72268 0.78236 0.0
C1263 C 0.70612 0.71948 0.78776 0.0
C1264 C 0.74094 0.73579 0.76645 0.0
C1265 C 0.71889 0.74621 0.75569 0.0
C1266 C 0.69045 0.74375 0.76138 0.0
C1267 C 0.68413 0.73039 0.77718 0.0
H1268 H 0.68966 0.21136 0.21399 0.0
H1269 H 0.77955 0.20514 0.20181 0.0
H1270 H 0.70151 0.23021 0.24278 0.0
H1271 H 0.79147 0.2229 0.23075 0.0
H1272 H 0.80162 0.29317 0.27072 0.0
H1273 H 0.78865 0.26898 0.24386 0.0
H1274 H 0.72249 0.22263 0.27117 0.0
H1275 H 0.73493 0.24763 0.29807 0.0
C1276 C 0.71194 0.21329 0.21766 0.0
C1277 C 0.73369 0.20715 0.20562 0.0
C1278 C 0.71875 0.22407 0.23416 0.0
C1279 C 0.74744 0.22861 0.23893 0.0
C1280 C 0.76915 0.22045 0.22729 0.0
C1281 C 0.76234 0.21003 0.21077 0.0
C1282 C 0.78425 0.27789 0.27102 0.0
C1283 C 0.76934 0.27231 0.28653 0.0
C1284 C 0.77698 0.26378 0.25564 0.0
C1285 C 0.7548 0.24352 0.25542 0.0
C1286 C 0.73959 0.2382 0.27089 0.0
C1287 C 0.74674 0.25252 0.28629 0.0
H1288 H 0.69933 0.20751 0.79149 0.0
H1289 H 0.78849 0.21388 0.77753 0.0
H1290 H 0.68581 0.2231 0.76229 0.0
H1291 H 0.77517 0.23096 0.74865 0.0
H1292 H 0.74268 0.24449 0.69368 0.0
H1293 H 0.75502 0.22141 0.7212 0.0
H1294 H 0.68548 0.2659 0.74651 0.0
H1295 H 0.6724 0.28771 0.71887 0.0
C1296 C 0.71602 0.21214 0.78212 0.0
C1297 C 0.74493 0.20964 0.78676 0.0
C1298 C 0.70832 0.22134 0.76544 0.0
C1299 C 0.72938 0.22877 0.75315 0.0
C1300 C 0.75833 0.22517 0.75765 0.0
C1301 C 0.76601 0.21547 0.77425 0.0
C1302 C 0.73005 0.24925 0.70515 0.0
C1303 C 0.70659 0.26789 0.70414 0.0
C1304 C 0.73716 0.2361 0.72095 0.0
C1305 C 0.72122 0.24167 0.73612 0.0
C1306 C 0.69785 0.26051 0.73505 0.0
C1307 C 0.69048 0.27327 0.71922 0.0
H1308 H 0.78588 0.77635 0.29048 0.0
H1309 H 0.69661 0.76954 0.2767 0.0
H1310 H 0.79917 0.76206 0.26105 0.0
H1311 H 0.70972 0.75375 0.24755 0.0
H1312 H 0.81261 0.699 0.21693 0.0
H1313 H 0.79969 0.7198 0.24481 0.0
H1314 H 0.72947 0.76451 0.22015 0.0
H1315 H 0.74168 0.74242 0.19235 0.0
C1316 C 0.76912 0.77188 0.2811 0.0
C1317 C 0.74025 0.77388 0.28586 0.0
C1318 C 0.77669 0.76344 0.26428 0.0
C1319 C 0.75554 0.75626 0.25196 0.0
C1320 C 0.72661 0.75937 0.25659 0.0
C1321 C 0.71906 0.76832 0.27333 0.0
C1322 C 0.79443 0.7133 0.21746 0.0
C1323 C 0.7781 0.71901 0.20248 0.0
C1324 C 0.78714 0.72547 0.23343 0.0
C1325 C 0.76362 0.74406 0.23476 0.0
C1326 C 0.74746 0.75 0.21968 0.0
C1327 C 0.7545 0.73742 0.20373 0.0
H1328 H 0.50006 0.4935 0.04869 0.0
H1329 H 0.5455 0.42408 0.02413 0.0
H1330 H 0.478 0.50561 0.02082 0.0
H1331 H 0.52471 0.43696 -0.00386 0.0
H1332 H 0.46657 0.44971 0.95059 0.0
H1333 H 0.48245 0.43654 0.97978 0.0
H1334 H 0.48809 0.52593 0.99354 0.0
H1335 H 0.47072 0.53887 0.96464 0.0
C1336 C 0.50555 0.48102 0.03728 0.0
C1337 C 0.52449 0.45785 0.03857 0.0
C1338 C 0.49299 0.48801 0.02129 0.0
C1339 C 0.49948 0.47225 0.00618 0.0
C1340 C 0.51865 0.44919 0.00753 0.0
C1341 C 0.53081 0.44193 0.02356 0.0
C1342 C 0.47087 0.46648 0.95996 0.0
C1343 C 0.46754 0.49529 0.95536 0.0
C1344 C 0.48022 0.45898 0.97664 0.0
C1345 C 0.48698 0.48016 0.98899 0.0
C1346 C 0.48279 0.509 0.98449 0.0
C1347 C 0.47294 0.51646 0.96789 0.0
H1348 H 0.01848 0.44202 0.46356 0.0
H1349 H 0.01087 0.53052 0.44832 0.0
H1350 H -0.0017 0.45332 0.49203 0.0
H1351 H 0.99184 0.5421 0.47698 0.0
H1352 H 0.92689 0.54813 0.52002 0.0
H1353 H 0.94846 0.53502 0.49236 0.0
H1354 H 0.0055 0.47705 0.51923 0.0
H1355 H 0.98305 0.48942 0.54691 0.0
C1356 C 0.01302 0.46399 0.46643 0.0
C1357 C 0.01603 0.48537 0.4537 0.0
C1358 C 0.00151 0.47049 0.48276 0.0
C1359 C -0.00693 0.49856 0.48672 0.0
C1360 C -0.00262 0.52012 0.47421 0.0
C1361 C 0.00855 0.51356 0.45784 0.0
C1362 C 0.94389 0.53243 0.52001 0.0
C1363 C 0.95332 0.51986 0.53564 0.0
C1364 C 0.95647 0.5251 0.50417 0.0
C1365 C 0.97904 0.5053 0.50358 0.0
C1366 C 0.98803 0.49222 0.51918 0.0
C1367 C 0.9752 0.49933 0.53505 0.0
H1368 H 0.0378 0.52619 0.02338 0.0
H1369 H 0.98241 0.46293 0.04661 0.0
H1370 H 0.0204 0.51281 0.99444 0.0
H1371 H 0.96425 0.45041 0.01797 0.0
H1372 H 0.95637 0.4146 0.96391 0.0
H1373 H 0.97729 0.42731 0.99184 0.0
H1374 H 0.97867 0.51609 0.97635 0.0
H1375 H 0.95873 0.50312 0.948 0.0
C1376 C 0.02193 0.50945 0.02229 0.0
C1377 C 0.01156 0.49552 0.03723 0.0
C1378 C 0.01179 0.50194 0.00574 0.0
C1379 C 0.99093 0.48052 0.00386 0.0
C1380 C 0.98071 0.4666 0.01887 0.0
C1381 C 0.99103 0.47389 0.03533 0.0
C1382 C 0.96109 0.43685 0.96646 0.0
C1383 C 0.95573 0.45788 0.95379 0.0
C1384 C 0.97301 0.44417 0.98252 0.0
C1385 C 0.9795 0.47276 0.98641 0.0
C1386 C 0.97429 0.49382 0.97369 0.0
C1387 C 0.96265 0.48643 0.9575 0.0
H1388 H 0.55534 0.55271 0.46983 0.0
H1389 H 0.5021 0.49148 0.44291 0.0
H1390 H 0.53301 0.53978 0.49733 0.0
H1391 H 0.47885 0.47933 0.47036 0.0
H1392 H 0.46674 0.44364 0.52591 0.0
H1393 H 0.48656 0.45595 0.49749 0.0
H1394 H 0.4895 0.5448 0.51269 0.0
H1395 H 0.4709 0.53222 0.54131 0.0
C1396 C 0.53873 0.53659 0.46978 0.0
C1397 C 0.5305 0.52311 0.45421 0.0
C1398 C 0.52573 0.52934 0.48553 0.0
C1399 C 0.5039 0.50871 0.48606 0.0
C1400 C 0.49579 0.49508 0.47047 0.0
C1401 C 0.50907 0.5021 0.45473 0.0
C1402 C 0.47135 0.46582 0.52308 0.0
C1403 C 0.46752 0.48695 0.53584 0.0
C1404 C 0.48264 0.47292 0.50677 0.0
C1405 C 0.48997 0.50134 0.50286 0.0
C1406 C 0.48481 0.5226 0.51541 0.0
C1407 C 0.47391 0.51545 0.53176 0.0
H1408 H 0.31638 0.1807 0.37839 0.0
H1409 H 0.31439 0.13451 0.32963 0.0
H1410 H 0.35913 0.15436 0.38707 0.0
H1411 H 0.35631 0.10769 0.33846 0.0
H1412 H 0.3879 0.06344 0.40581 0.0
H1413 H 0.36239 0.10573 0.39638 0.0
H1414 H 0.40552 0.10231 0.34657 0.0
H1415 H 0.4306 0.05916 0.35594 0.0
C1416 C 0.32541 0.16539 0.36937 0.0
C1417 C 0.31168 0.15924 0.35349 0.0
C1418 C 0.34983 0.1502 0.37437 0.0
C1419 C 0.36086 0.1285 0.36362 0.0
C1420 C 0.34859 0.12432 0.34705 0.0
C1421 C 0.32432 0.13957 0.34203 0.0
C1422 C 0.39248 0.07204 0.39299 0.0
C1423 C 0.41077 0.0576 0.38148 0.0
C1424 C 0.378 0.09655 0.38761 0.0
C1425 C 0.38156 0.10724 0.37059 0.0
C1426 C 0.4019 0.09429 0.35964 0.0
C1427 C 0.41637 0.06966 0.36504 0.0
H1428 H 0.05139 0.0628 0.63338 0.0
H1429 H 0.09232 0.06799 0.58298 0.0
H1430 H 0.07706 0.10554 0.64272 0.0
H1431 H 0.11853 0.10978 0.59241 0.0
H1432 H 0.16719 0.18287 0.61068 0.0
H1433 H 0.12371 0.1577 0.60209 0.0
H1434 H 0.12617 0.1101 0.65045 0.0
H1435 H 0.16874 0.13583 0.65919 0.0
C1436 C 0.06533 0.07343 0.62416 0.0
C1437 C 0.07031 0.06169 0.60758 0.0
C1438 C 0.08018 0.09782 0.62954 0.0
C1439 C 0.10034 0.11081 0.61847 0.0
C1440 C 0.10312 0.10056 0.60131 0.0
C1441 C 0.08822 0.07634 0.59592 0.0
C1442 C 0.15793 0.1676 0.61966 0.0
C1443 C 0.17171 0.1609 0.63545 0.0
C1444 C 0.13309 0.15307 0.61471 0.0
C1445 C 0.12169 0.13145 0.62541 0.0
C1446 C 0.13412 0.12669 0.64189 0.0
C1447 C 0.15879 0.14132 0.64686 0.0
H1448 H 0.1723 0.84814 0.83072 0.0
H1449 H 0.17341 0.80378 0.88018 0.0
H1450 H 0.13131 0.87575 0.84019 0.0
H1451 H 0.13165 0.83097 0.88954 0.0
H1452 H 0.10347 0.92241 0.90751 0.0
H1453 H 0.1291 0.8802 0.89807 0.0
H1454 H 0.08244 0.88105 0.84934 0.0
H1455 H 0.05717 0.92402 0.85869 0.0
C1456 C 0.16325 0.84367 0.84344 0.0
C1457 C 0.17647 0.82422 0.85485 0.0
C1458 C 0.13952 0.85938 0.84884 0.0
C1459 C 0.12841 0.85591 0.86575 0.0
C1460 C 0.14005 0.83455 0.87656 0.0
C1461 C 0.16389 0.81887 0.87117 0.0
C1462 C 0.09817 0.91326 0.89494 0.0
C1463 C 0.07872 0.92688 0.88371 0.0
C1464 C 0.11273 0.88882 0.88956 0.0
C1465 C 0.10812 0.8774 0.87283 0.0
C1466 C 0.08684 0.88962 0.86218 0.0
C1467 C 0.07227 0.91416 0.86757 0.0
H1468 H 0.31342 0.84967 0.16101 0.0
H1469 H 0.31713 0.80094 0.11323 0.0
H1470 H 0.35574 0.87588 0.15238 0.0
H1471 H 0.36039 0.82657 0.1048 0.0
H1472 H 0.39023 0.91598 0.08452 0.0
H1473 H 0.36464 0.87413 0.09443 0.0
H1474 H 0.40492 0.8814 0.14506 0.0
H1475 H 0.43 0.92422 0.13519 0.0
C1476 C 0.32381 0.84392 0.14888 0.0
C1477 C 0.31153 0.82372 0.1376 0.0
C1478 C 0.34834 0.85883 0.14398 0.0
C1479 C 0.36128 0.85372 0.12772 0.0
C1480 C 0.35058 0.83148 0.11723 0.0
C1481 C 0.32586 0.8167 0.12209 0.0
C1482 C 0.39419 0.90831 0.09765 0.0
C1483 C 0.41161 0.92379 0.1092 0.0
C1484 C 0.37966 0.88404 0.10332 0.0
C1485 C 0.38231 0.87458 0.12067 0.0
C1486 C 0.40195 0.88847 0.13172 0.0
C1487 C 0.41646 0.9129 0.12604 0.0
H1488 H 0.68237 0.8278 0.59471 0.0
H1489 H 0.69688 0.85368 0.64813 0.0
H1490 H 0.64283 0.86166 0.59261 0.0
H1491 H 0.65829 0.88801 0.64585 0.0
H1492 H 0.57404 0.93292 0.64215 0.0
H1493 H 0.60797 0.89353 0.64369 0.0
H1494 H 0.63563 0.91207 0.59107 0.0
H1495 H 0.60103 0.95068 0.58932 0.0
C1496 C 0.67715 0.8407 0.60599 0.0
C1497 C 0.69282 0.83808 0.62156 0.0
C1498 C 0.65458 0.8602 0.60477 0.0
C1499 C 0.64737 0.87761 0.61906 0.0
C1500 C 0.66286 0.87463 0.63468 0.0
C1501 C 0.6852 0.85505 0.63594 0.0
C1502 C 0.58721 0.92842 0.63087 0.0
C1503 C 0.58497 0.94505 0.61567 0.0
C1504 C 0.60677 0.90593 0.63177 0.0
C1505 C 0.62472 0.89974 0.61755 0.0
C1506 C 0.62192 0.91595 0.60219 0.0
C1507 C 0.60219 0.93825 0.60124 0.0
H1508 H 0.88361 0.94867 0.39893 0.0
H1509 H 0.91199 0.92829 0.34675 0.0
H1510 H 0.84848 0.9106 0.39742 0.0
H1511 H 0.87741 0.8894 0.34547 0.0
H1512 H 0.7879 0.85007 0.34115 0.0
H1513 H 0.82691 0.8841 0.34297 0.0
H1514 H 0.84124 0.86022 0.39679 0.0
H1515 H 0.80138 0.82677 0.39515 0.0
C1516 C 0.88264 0.93579 0.38721 0.0
C1517 C 0.90047 0.94166 0.3729 0.0
C1518 C 0.86259 0.91379 0.3864 0.0
C1519 C 0.86003 0.89695 0.3713 0.0
C1520 C 0.87847 0.90228 0.35718 0.0
C1521 C 0.8984 0.92447 0.35794 0.0
C1522 C 0.79944 0.85194 0.35337 0.0
C1523 C 0.79139 0.83583 0.36805 0.0
C1524 C 0.822 0.87133 0.35436 0.0
C1525 C 0.83725 0.87494 0.37002 0.0
C1526 C 0.82965 0.85831 0.3846 0.0
C1527 C 0.8069 0.83903 0.38364 0.0
H1528 H 0.80134 0.16035 0.09676 0.0
H1529 H 0.78203 0.12974 0.14866 0.0
H1530 H 0.84073 0.12633 0.09487 0.0
H1531 H 0.82058 0.09527 0.14655 0.0
H1532 H 0.9062 0.05203 0.14443 0.0
H1533 H 0.87127 0.09051 0.14602 0.0
H1534 H 0.84849 0.07608 0.09205 0.0
H1535 H 0.88405 0.03835 0.09029 0.0
C1536 C 0.80544 0.14633 0.10773 0.0
C1537 C 0.78852 0.14776 0.12285 0.0
C1538 C 0.82793 0.12674 0.10663 0.0
C1539 C 0.83387 0.10806 0.12056 0.0
C1540 C 0.81701 0.10967 0.13569 0.0
C1541 C 0.7947 0.12933 0.13685 0.0
C1542 C 0.8939 0.05724 0.13287 0.0
C1543 C 0.89782 0.04202 0.11727 0.0
C1544 C 0.87375 0.0792 0.1338 0.0
C1545 C 0.85688 0.08627 0.1192 0.0
C1546 C 0.86133 0.07148 0.10349 0.0
C1547 C 0.88163 0.04969 0.10251 0.0
H1548 H 0.60579 0.03065 0.90074 0.0
H1549 H 0.57896 0.04807 0.84779 0.0
H1550 H 0.63988 0.06972 0.89915 0.0
H1551 H 0.61229 0.08795 0.84642 0.0
H1552 H 0.70034 0.12968 0.84242 0.0
H1553 H 0.66234 0.09464 0.84443 0.0
H1554 H 0.64637 0.12004 0.89776 0.0
H1555 H 0.68534 0.15451 0.89594 0.0
C1556 C 0.60686 0.04311 0.88884 0.0
C1557 C 0.58986 0.0361 0.87433 0.0
C1558 C 0.62629 0.06568 0.88797 0.0
C1559 C 0.62897 0.08195 0.87263 0.0
C1560 C 0.61121 0.07552 0.85832 0.0
C1561 C 0.59199 0.05274 0.85913 0.0
C1562 C 0.68865 0.12795 0.85456 0.0
C1563 C 0.69598 0.14479 0.86906 0.0
C1564 C 0.66665 0.10795 0.85568 0.0
C1565 C 0.65122 0.10448 0.87126 0.0
C1566 C 0.6581 0.12183 0.88564 0.0
C1567 C 0.68034 0.1417 0.88458 0.0
H1568 H 0.81816 0.68018 0.87686 0.0
H1569 H 0.81481 0.6311 0.8292 0.0
H1570 H 0.86171 0.65505 0.8854 0.0
H1571 H 0.85748 0.60543 0.83792 0.0
H1572 H 0.93201 0.55779 0.8553 0.0
H1573 H 0.90686 0.60059 0.8454 0.0
H1574 H 0.86611 0.60737 0.89583 0.0
H1575 H 0.89173 0.5655 0.90576 0.0
C1576 C 0.82704 0.66446 0.86804 0.0
C1577 C 0.81272 0.65716 0.85254 0.0
C1578 C 0.85193 0.64998 0.87296 0.0
C1579 C 0.86283 0.62779 0.86253 0.0
C1580 C 0.84991 0.62245 0.84627 0.0
C1581 C 0.82519 0.63704 0.84131 0.0
C1582 C 0.91837 0.56901 0.86441 0.0
C1583 C 0.91336 0.55795 0.88118 0.0
C1584 C 0.90382 0.59343 0.85871 0.0
C1585 C 0.884 0.60713 0.86968 0.0
C1586 C 0.88126 0.59758 0.887 0.0
C1587 C 0.89581 0.57331 0.89269 0.0
H1588 H 0.67071 0.64023 0.15861 0.0
H1589 H 0.67171 0.68355 0.10881 0.0
H1590 H 0.62892 0.61344 0.14965 0.0
H1591 H 0.62904 0.65724 0.09996 0.0
H1592 H 0.59986 0.56561 0.08283 0.0
H1593 H 0.62532 0.60825 0.09166 0.0
H1594 H 0.58021 0.608 0.14086 0.0
H1595 H 0.55524 0.5645 0.13214 0.0
C1596 C 0.66145 0.64469 0.14593 0.0
C1597 C 0.6749 0.66351 0.13426 0.0
C1598 C 0.63724 0.62945 0.14082 0.0
C1599 C 0.62583 0.63279 0.12394 0.0
C1600 C 0.63766 0.65372 0.11291 0.0
C1601 C 0.66202 0.66891 0.11801 0.0
C1602 C 0.59484 0.57499 0.09537 0.0
C1603 C 0.57603 0.56132 0.10695 0.0
C1604 C 0.6093 0.59969 0.10041 0.0
C1605 C 0.60518 0.61137 0.11712 0.0
C1606 C 0.5843 0.59921 0.12804 0.0
C1607 C 0.56989 0.57437 0.12301 0.0
H1608 H 0.66828 0.3452 0.33273 0.0
H1609 H 0.66983 0.30214 0.3826 0.0
H1610 H 0.6262 0.37149 0.34149 0.0
H1611 H 0.62669 0.32785 0.39125 0.0
H1612 H 0.5963 0.41887 0.40834 0.0
H1613 H 0.62166 0.37621 0.39967 0.0
H1614 H 0.57789 0.37734 0.34992 0.0
H1615 H 0.55314 0.42106 0.35848 0.0
C1616 C 0.65909 0.3407 0.34541 0.0
C1617 C 0.6728 0.3221 0.35714 0.0
C1618 C 0.63466 0.35563 0.3504 0.0
C1619 C 0.62321 0.35222 0.36722 0.0
C1620 C 0.63531 0.33148 0.37833 0.0
C1621 C 0.65995 0.3166 0.37335 0.0
C1622 C 0.59154 0.4097 0.39569 0.0
C1623 C 0.57326 0.42375 0.38393 0.0
C1624 C 0.60594 0.38494 0.39075 0.0
C1625 C 0.60228 0.37351 0.37393 0.0
C1626 C 0.58173 0.38595 0.36282 0.0
C1627 C 0.5674 0.41091 0.36776 0.0
H1628 H 0.92874 0.42607 0.63536 0.0
H1629 H 0.88689 0.42174 0.58514 0.0
H1630 H 0.90288 0.38335 0.6447 0.0
H1631 H 0.86063 0.37994 0.59452 0.0
H1632 H 0.81415 0.30495 0.61215 0.0
H1633 H 0.85691 0.33144 0.60374 0.0
H1634 H 0.85364 0.37778 0.65245 0.0
H1635 H 0.81174 0.35077 0.66102 0.0
C1636 C 0.91452 0.41566 0.6262 0.0
C1637 C 0.90944 0.42755 0.60964 0.0
C1638 C 0.89958 0.39128 0.63157 0.0
C1639 C 0.87932 0.37841 0.62048 0.0
C1640 C 0.87617 0.38902 0.60341 0.0
C1641 C 0.89108 0.41326 0.59806 0.0
C1642 C 0.82308 0.32023 0.62125 0.0
C1643 C 0.80924 0.32619 0.63709 0.0
C1644 C 0.8475 0.33552 0.6164 0.0
C1645 C 0.85843 0.35716 0.62726 0.0
C1646 C 0.84602 0.36121 0.64377 0.0
C1647 C 0.82175 0.34584 0.64864 0.0
H1648 H 0.07712 0.43321 0.14263 0.0
H1649 H 0.1026 0.45 0.08941 0.0
H1650 H 0.11102 0.39379 0.14407 0.0
H1651 H 0.13722 0.41144 0.09105 0.0
H1652 H 0.20018 0.35395 0.14777 0.0
H1653 H 0.16124 0.388 0.14581 0.0
H1654 H 0.14468 0.36135 0.09274 0.0
H1655 H 0.18456 0.3279 0.0945 0.0
C1656 C 0.08994 0.42848 0.13124 0.0
C1657 C 0.08729 0.44484 0.11595 0.0
C1658 C 0.10949 0.40597 0.13208 0.0
C1659 C 0.12705 0.39955 0.11772 0.0
C1660 C 0.12381 0.41548 0.10229 0.0
C1661 C 0.10406 0.43776 0.10139 0.0
C1662 C 0.18815 0.35519 0.1357 0.0
C1663 C 0.19559 0.33833 0.12125 0.0
C1664 C 0.16562 0.37461 0.13462 0.0
C1665 C 0.14976 0.37746 0.11912 0.0
C1666 C 0.15673 0.36003 0.1048 0.0
C1667 C 0.1795 0.34077 0.10582 0.0
H1668 H 0.38397 0.44785 0.90091 0.0
H1669 H 0.40854 0.43353 0.84728 0.0
H1670 H 0.34908 0.40956 0.89881 0.0
H1671 H 0.3743 0.39447 0.84535 0.0
H1672 H 0.30289 0.3251 0.89401 0.0
H1673 H 0.34214 0.35921 0.89621 0.0
H1674 H 0.32374 0.38909 0.84398 0.0
H1675 H 0.28534 0.3545 0.84158 0.0
C1676 C 0.38222 0.43625 0.88873 0.0
C1677 C 0.39887 0.4439 0.87421 0.0
C1678 C 0.36232 0.41414 0.88757 0.0
C1679 C 0.35876 0.39899 0.87189 0.0
C1680 C 0.3761 0.40605 0.85753 0.0
C1681 C 0.39585 0.42834 0.85865 0.0
C1682 C 0.30736 0.33886 0.88298 0.0
C1683 C 0.29095 0.33712 0.86764 0.0
C1684 C 0.32977 0.35849 0.88426 0.0
C1685 C 0.3361 0.37693 0.87028 0.0
C1686 C 0.31983 0.37491 0.85489 0.0
C1687 C 0.29762 0.35518 0.85357 0.0
H1688 H 0.38147 0.5364 0.58825 0.0
H1689 H 0.40624 0.55198 0.64176 0.0
H1690 H 0.34801 0.57607 0.5896 0.0
H1691 H 0.37349 0.59235 0.64293 0.0
H1692 H 0.28587 0.63498 0.64591 0.0
H1693 H 0.3232 0.59927 0.64403 0.0
H1694 H 0.34252 0.62683 0.5915 0.0
H1695 H 0.30424 0.66219 0.59317 0.0
C1696 C 0.38007 0.54854 0.60024 0.0
C1697 C 0.39632 0.54086 0.61496 0.0
C1698 C 0.361 0.57145 0.60097 0.0
C1699 C 0.35792 0.58734 0.6164 0.0
C1700 C 0.37492 0.58022 0.63094 0.0
C1701 C 0.3938 0.55716 0.63025 0.0
C1702 C 0.29813 0.6336 0.63396 0.0
C1703 C 0.29197 0.65139 0.61965 0.0
C1704 C 0.31975 0.6132 0.63294 0.0
C1705 C 0.33596 0.61018 0.61763 0.0
C1706 C 0.33018 0.62834 0.60341 0.0
C1707 C 0.30835 0.64869 0.60439 0.0
H1708 H 0.10224 0.53447 0.40092 0.0
H1709 H 0.0799 0.54843 0.34683 0.0
H1710 H 0.13705 0.57289 0.39932 0.0
H1711 H 0.11402 0.58765 0.3454 0.0
H1712 H 0.18328 0.65755 0.39501 0.0
H1713 H 0.14425 0.62311 0.39675 0.0
H1714 H 0.16443 0.59341 0.34481 0.0
H1715 H 0.20256 0.62834 0.34285 0.0
C1716 C 0.10445 0.54603 0.38875 0.0
C1717 C 0.08846 0.53823 0.37395 0.0
C1718 C 0.12431 0.56822 0.38786 0.0
C1719 C 0.12849 0.58331 0.3722 0.0
C1720 C 0.11177 0.57611 0.35757 0.0
C1721 C 0.09208 0.55374 0.35841 0.0
C1722 C 0.17925 0.64374 0.38395 0.0
C1723 C 0.19606 0.64568 0.36881 0.0
C1724 C 0.15696 0.62391 0.38496 0.0
C1725 C 0.15115 0.60546 0.37092 0.0
C1726 C 0.16789 0.60761 0.35576 0.0
C1727 C 0.18996 0.62754 0.35469 0.0
loop_
_geom_bond_atom_site_label_1
_geom_bond_atom_site_label_2
_geom_bond_distance
_geom_bond_site_symmetry_2
_ccdc_geom_bond_type
C0 O1 1.306 . S
C0 O3 1.160 . S
O1 C0 1.306 . S
O1 Cd2 2.228 . S
Cd2 O1 2.228 . S
Cd2 O6 2.273 . S
Cd2 O10 2.277 . S
O3 C0 1.160 . S
O3 Cd4 2.203 . S
Cd4 O3 2.203 . S
Cd4 O6 2.411 . S
Cd4 O7 2.333 . S
Cd4 O8 2.352 . S
Cd4 O12 2.277 . S
Cd4 O13 2.356 . S
C5 O10 1.209 . S
C5 O12 1.226 . S
O6 Cd2 2.273 . S
O6 Cd4 2.411 . S
O6 C9 1.320 . S
O7 Cd4 2.333 . S
O7 C9 1.214 . S
O8 Cd4 2.352 . S
O8 C11 1.258 . S
C9 O6 1.320 . S
C9 O7 1.214 . S
O10 Cd2 2.277 . S
O10 C5 1.209 . S
C11 O8 1.258 . S
C11 O13 1.282 . S
O12 Cd4 2.277 . S
O12 C5 1.226 . S
O13 Cd4 2.356 . S
O13 C11 1.282 . S
C14 O15 1.306 . S
C14 O17 1.160 . S
O15 C14 1.306 . S
O15 Cd16 2.228 . S
Cd16 O15 2.228 . S
Cd16 O20 2.273 . S
Cd16 O24 2.277 . S
O17 C14 1.160 . S
O17 Cd18 2.203 . S
Cd18 O17 2.203 . S
Cd18 O20 2.411 . S
Cd18 O21 2.333 . S
Cd18 O22 2.352 . S
Cd18 O26 2.277 . S
Cd18 O27 2.356 1_565 S
C19 O24 1.209 . S
C19 O26 1.226 . S
O20 Cd16 2.273 . S
O20 Cd18 2.411 . S
O20 C23 1.320 . S
O21 Cd18 2.333 . S
O21 C23 1.214 . S
O22 Cd18 2.352 . S
O22 C25 1.258 1_565 S
C23 O20 1.320 . S
C23 O21 1.214 . S
O24 Cd16 2.277 . S
O24 C19 1.209 . S
C25 O22 1.258 1_545 S
C25 O27 1.282 . S
O26 Cd18 2.277 . S
O26 C19 1.226 . S
O27 Cd18 2.356 1_545 S
O27 C25 1.282 . S
C28 O29 1.306 . S
C28 O31 1.160 . S
O29 C28 1.306 . S
O29 Cd30 2.228 . S
Cd30 O29 2.228 . S
Cd30 O34 2.273 . S
Cd30 O38 2.277 . S
O31 C28 1.160 . S
O31 Cd32 2.203 . S
Cd32 O31 2.203 . S
Cd32 O34 2.411 . S
Cd32 O35 2.333 . S
Cd32 O36 2.352 . S
Cd32 O40 2.277 . S
Cd32 O41 2.356 . S
C33 O38 1.209 . S
C33 O40 1.226 . S
O34 Cd30 2.273 . S
O34 Cd32 2.411 . S
O34 C37 1.320 . S
O35 Cd32 2.333 . S
O35 C37 1.214 . S
O36 Cd32 2.352 . S
O36 C39 1.258 . S
C37 O34 1.320 . S
C37 O35 1.214 . S
O38 Cd30 2.277 . S
O38 C33 1.209 . S
C39 O36 1.258 . S
C39 O41 1.282 . S
O40 Cd32 2.277 . S
O40 C33 1.226 . S
O41 Cd32 2.356 . S
O41 C39 1.282 . S
C42 O43 1.306 . S
C42 O45 1.160 . S
O43 C42 1.306 . S
O43 Cd44 2.228 . S
Cd44 O43 2.228 . S
Cd44 O48 2.273 . S
Cd44 O52 2.277 . S
O45 C42 1.160 . S
O45 Cd46 2.203 . S
Cd46 O45 2.203 . S
Cd46 O48 2.411 . S
Cd46 O49 2.333 . S
Cd46 O50 2.352 . S
Cd46 O54 2.277 . S
Cd46 O55 2.356 1_545 S
C47 O52 1.209 . S
C47 O54 1.226 . S
O48 Cd44 2.273 . S
O48 Cd46 2.411 . S
O48 C51 1.320 . S
O49 Cd46 2.333 . S
O49 C51 1.214 . S
O50 Cd46 2.352 . S
O50 C53 1.258 1_545 S
C51 O48 1.320 . S
C51 O49 1.214 . S
O52 Cd44 2.277 . S
O52 C47 1.209 . S
C53 O50 1.258 1_565 S
C53 O55 1.282 . S
O54 Cd46 2.277 . S
O54 C47 1.226 . S
O55 Cd46 2.356 1_565 S
O55 C53 1.282 . S
C56 O57 1.306 . S
C56 O59 1.160 . S
O57 C56 1.306 . S
O57 Cd58 2.228 . S
Cd58 O57 2.228 . S
Cd58 O62 2.273 . S
Cd58 O66 2.277 . S
O59 C56 1.160 . S
O59 Cd60 2.203 . S
Cd60 O59 2.203 . S
Cd60 O62 2.411 . S
Cd60 O63 2.333 . S
Cd60 O64 2.352 . S
Cd60 O68 2.277 . S
Cd60 O69 2.356 . S
C61 O66 1.209 . S
C61 O68 1.226 . S
O62 Cd58 2.273 . S
O62 Cd60 2.411 . S
O62 C65 1.320 . S
O63 Cd60 2.333 . S
O63 C65 1.214 . S
O64 Cd60 2.352 . S
O64 C67 1.258 . S
C65 O62 1.320 . S
C65 O63 1.214 . S
O66 Cd58 2.277 . S
O66 C61 1.209 . S
C67 O64 1.258 . S
C67 O69 1.282 . S
O68 Cd60 2.277 . S
O68 C61 1.226 . S
O69 Cd60 2.356 . S
O69 C67 1.282 . S
C70 O71 1.306 . S
C70 O73 1.160 . S
O71 C70 1.306 . S
O71 Cd72 2.228 . S
Cd72 O71 2.228 . S
Cd72 O76 2.273 . S
Cd72 O80 2.277 . S
O73 C70 1.160 . S
O73 Cd74 2.203 . S
Cd74 O73 2.203 . S
Cd74 O76 2.411 . S
Cd74 O77 2.333 . S
Cd74 O78 2.352 . S
Cd74 O82 2.277 . S
Cd74 O83 2.356 1_565 S
C75 O80 1.209 . S
C75 O82 1.226 . S
O76 Cd72 2.273 . S
O76 Cd74 2.411 . S
O76 C79 1.320 . S
O77 Cd74 2.333 . S
O77 C79 1.214 . S
O78 Cd74 2.352 . S
O78 C81 1.258 1_565 S
C79 O76 1.320 . S
C79 O77 1.214 . S
O80 Cd72 2.277 . S
O80 C75 1.209 . S
C81 O78 1.258 1_545 S
C81 O83 1.282 . S
O82 Cd74 2.277 . S
O82 C75 1.226 . S
O83 Cd74 2.356 1_545 S
O83 C81 1.282 . S
C84 O85 1.306 . S
C84 O87 1.160 . S
O85 C84 1.306 . S
O85 Cd86 2.228 . S
Cd86 O85 2.228 . S
Cd86 O90 2.273 . S
Cd86 O94 2.277 . S
O87 C84 1.160 . S
O87 Cd88 2.203 . S
Cd88 O87 2.203 . S
Cd88 O90 2.411 . S
Cd88 O91 2.333 . S
Cd88 O92 2.352 . S
Cd88 O96 2.277 . S
Cd88 O97 2.356 . S
C89 O94 1.209 . S
C89 O96 1.226 . S
O90 Cd86 2.273 . S
O90 Cd88 2.411 . S
O90 C93 1.320 . S
O91 Cd88 2.333 . S
O91 C93 1.214 . S
O92 Cd88 2.352 . S
O92 C95 1.258 . S
C93 O90 1.320 . S
C93 O91 1.214 . S
O94 Cd86 2.277 . S
O94 C89 1.209 . S
C95 O92 1.258 . S
C95 O97 1.282 . S
O96 Cd88 2.277 . S
O96 C89 1.226 . S
O97 Cd88 2.356 . S
O97 C95 1.282 . S
C98 O99 1.306 . S
C98 O101 1.160 . S
O99 C98 1.306 . S
O99 Cd100 2.228 . S
Cd100 O99 2.228 . S
Cd100 O104 2.273 . S
Cd100 O108 2.277 . S
O101 C98 1.160 . S
O101 Cd102 2.203 . S
Cd102 O101 2.203 . S
Cd102 O104 2.411 . S
Cd102 O105 2.333 . S
Cd102 O106 2.352 . S
Cd102 O110 2.277 . S
Cd102 O111 2.356 1_545 S
C103 O108 1.209 . S
C103 O110 1.226 . S
O104 Cd100 2.273 . S
O104 Cd102 2.411 . S
O104 C107 1.320 . S
O105 Cd102 2.333 . S
O105 C107 1.214 . S
O106 Cd102 2.352 . S
O106 C109 1.258 1_545 S
C107 O104 1.320 . S
C107 O105 1.214 . S
O108 Cd100 2.277 . S
O108 C103 1.209 . S
C109 O106 1.258 1_565 S
C109 O111 1.282 . S
O110 Cd102 2.277 . S
O110 C103 1.226 . S
O111 Cd102 2.356 1_565 S
O111 C109 1.282 . S
C112 O113 1.306 . S
C112 O115 1.160 . S
O113 C112 1.306 . S
O113 Cd114 2.228 . S
Cd114 O113 2.228 . S
Cd114 O118 2.273 . S
Cd114 O122 2.277 . S
O115 C112 1.160 . S
O115 Cd116 2.203 . S
Cd116 O115 2.203 . S
Cd116 O118 2.411 . S
Cd116 O119 2.333 . S
Cd116 O120 2.352 . S
Cd116 O124 2.277 . S
Cd116 O125 2.356 . S
C117 O122 1.209 . S
C117 O124 1.226 . S
O118 Cd114 2.273 . S
O118 Cd116 2.411 . S
O118 C121 1.320 . S
O119 Cd116 2.333 . S
O119 C121 1.214 . S
O120 Cd116 2.352 . S
O120 C123 1.258 . S
C121 O118 1.320 . S
C121 O119 1.214 . S
O122 Cd114 2.277 . S
O122 C117 1.209 . S
C123 O120 1.258 . S
C123 O125 1.282 . S
O124 Cd116 2.277 . S
O124 C117 1.226 . S
O125 Cd116 2.356 . S
O125 C123 1.282 . S
C126 O127 1.316 . S
C126 O129 1.160 1_565 S
O127 C126 1.316 . S
O127 Cd128 2.199 1_565 S
Cd128 O127 2.199 1_545 S
Cd128 O132 2.273 . S
Cd128 O136 2.277 . S
O129 C126 1.160 1_545 S
O129 Cd130 2.203 . S
Cd130 O129 2.203 . S
Cd130 O132 2.411 . S
Cd130 O133 2.333 . S
Cd130 O134 2.352 . S
Cd130 O138 2.277 . S
Cd130 O139 2.356 . S
C131 O136 1.209 . S
C131 O138 1.226 . S
O132 Cd128 2.273 . S
O132 Cd130 2.411 . S
O132 C135 1.320 . S
O133 Cd130 2.333 . S
O133 C135 1.214 . S
O134 Cd130 2.352 . S
O134 C137 1.258 . S
C135 O132 1.320 . S
C135 O133 1.214 . S
O136 Cd128 2.277 . S
O136 C131 1.209 . S
C137 O134 1.258 . S
C137 O139 1.282 . S
O138 Cd130 2.277 . S
O138 C131 1.226 . S
O139 Cd130 2.356 . S
O139 C137 1.282 . S
C140 O141 1.306 . S
C140 O143 1.160 . S
O141 C140 1.306 . S
O141 Cd142 2.228 . S
Cd142 O141 2.228 . S
Cd142 O146 2.273 . S
Cd142 O150 2.277 . S
O143 C140 1.160 . S
O143 Cd144 2.203 . S
Cd144 O143 2.203 . S
Cd144 O146 2.411 . S
Cd144 O147 2.333 . S
Cd144 O148 2.352 . S
Cd144 O152 2.277 . S
Cd144 O153 2.356 . S
C145 O150 1.209 . S
C145 O152 1.226 . S
O146 Cd142 2.273 . S
O146 Cd144 2.411 . S
O146 C149 1.320 . S
O147 Cd144 2.333 . S
O147 C149 1.214 . S
O148 Cd144 2.352 . S
O148 C151 1.258 . S
C149 O146 1.320 . S
C149 O147 1.214 . S
O150 Cd142 2.277 . S
O150 C145 1.209 . S
C151 O148 1.258 . S
C151 O153 1.282 . S
O152 Cd144 2.277 . S
O152 C145 1.226 . S
O153 Cd144 2.356 . S
O153 C151 1.282 . S
C154 O155 1.316 . S
C154 O157 1.160 1_545 S
O155 C154 1.316 . S
O155 Cd156 2.199 1_545 S
Cd156 O155 2.199 1_565 S
Cd156 O160 2.273 . S
Cd156 O164 2.277 . S
O157 C154 1.160 1_565 S
O157 Cd158 2.203 . S
Cd158 O157 2.203 . S
Cd158 O160 2.411 . S
Cd158 O161 2.333 . S
Cd158 O162 2.352 . S
Cd158 O166 2.277 . S
Cd158 O167 2.356 . S
C159 O164 1.209 . S
C159 O166 1.226 . S
O160 Cd156 2.273 . S
O160 Cd158 2.411 . S
O160 C163 1.320 . S
O161 Cd158 2.333 . S
O161 C163 1.214 . S
O162 Cd158 2.352 . S
O162 C165 1.258 . S
C163 O160 1.320 . S
C163 O161 1.214 . S
O164 Cd156 2.277 . S
O164 C159 1.209 . S
C165 O162 1.258 . S
C165 O167 1.282 . S
O166 Cd158 2.277 . S
O166 C159 1.226 . S
O167 Cd158 2.356 . S
O167 C165 1.282 . S
C168 O169 1.306 . S
C168 O171 1.160 . S
O169 C168 1.306 . S
O169 Cd170 2.228 . S
Cd170 O169 2.228 . S
Cd170 O174 2.273 . S
Cd170 O178 2.277 . S
O171 C168 1.160 . S
O171 Cd172 2.203 . S
Cd172 O171 2.203 . S
Cd172 O174 2.411 . S
Cd172 O175 2.333 . S
Cd172 O176 2.352 . S
Cd172 O180 2.277 . S
Cd172 O181 2.356 . S
C173 O178 1.209 . S
C173 O180 1.226 . S
O174 Cd170 2.273 . S
O174 Cd172 2.411 . S
O174 C177 1.320 . S
O175 Cd172 2.333 . S
O175 C177 1.214 . S
O176 Cd172 2.352 . S
O176 C179 1.258 . S
C177 O174 1.320 . S
C177 O175 1.214 . S
O178 Cd170 2.277 . S
O178 C173 1.209 . S
C179 O176 1.258 . S
C179 O181 1.282 . S
O180 Cd172 2.277 . S
O180 C173 1.226 . S
O181 Cd172 2.356 . S
O181 C179 1.282 . S
C182 O183 1.316 . S
C182 O185 1.160 1_565 S
O183 C182 1.316 . S
O183 Cd184 2.199 1_565 S
Cd184 O183 2.199 1_545 S
Cd184 O188 2.273 . S
Cd184 O192 2.277 . S
O185 C182 1.160 1_545 S
O185 Cd186 2.203 . S
Cd186 O185 2.203 . S
Cd186 O188 2.411 . S
Cd186 O189 2.333 . S
Cd186 O190 2.352 . S
Cd186 O194 2.277 . S
Cd186 O195 2.356 . S
C187 O192 1.209 . S
C187 O194 1.226 . S
O188 Cd184 2.273 . S
O188 Cd186 2.411 . S
O188 C191 1.320 . S
O189 Cd186 2.333 . S
O189 C191 1.214 . S
O190 Cd186 2.352 . S
O190 C193 1.258 . S
C191 O188 1.320 . S
C191 O189 1.214 . S
O192 Cd184 2.277 . S
O192 C187 1.209 . S
C193 O190 1.258 . S
C193 O195 1.282 . S
O194 Cd186 2.277 . S
O194 C187 1.226 . S
O195 Cd186 2.356 . S
O195 C193 1.282 . S
C196 O197 1.306 . S
C196 O199 1.160 . S
O197 C196 1.306 . S
O197 Cd198 2.228 . S
Cd198 O197 2.228 . S
Cd198 O202 2.273 . S
Cd198 O206 2.277 . S
O199 C196 1.160 . S
O199 Cd200 2.203 . S
Cd200 O199 2.203 . S
Cd200 O202 2.411 . S
Cd200 O203 2.333 . S
Cd200 O204 2.352 . S
Cd200 O208 2.277 . S
Cd200 O209 2.356 . S
C201 O206 1.209 . S
C201 O208 1.226 . S
O202 Cd198 2.273 . S
O202 Cd200 2.411 . S
O202 C205 1.320 . S
O203 Cd200 2.333 . S
O203 C205 1.214 . S
O204 Cd200 2.352 . S
O204 C207 1.258 . S
C205 O202 1.320 . S
C205 O203 1.214 . S
O206 Cd198 2.277 . S
O206 C201 1.209 . S
C207 O204 1.258 . S
C207 O209 1.282 . S
O208 Cd200 2.277 . S
O208 C201 1.226 . S
O209 Cd200 2.356 . S
O209 C207 1.282 . S
C210 O211 1.316 . S
C210 O213 1.160 1_545 S
O211 C210 1.316 . S
O211 Cd212 2.199 1_545 S
Cd212 O211 2.199 1_565 S
Cd212 O216 2.273 . S
Cd212 O220 2.277 . S
O213 C210 1.160 1_565 S
O213 Cd214 2.203 . S
Cd214 O213 2.203 . S
Cd214 O216 2.411 . S
Cd214 O217 2.333 . S
Cd214 O218 2.352 . S
Cd214 O222 2.277 . S
Cd214 O223 2.356 . S
C215 O220 1.209 . S
C215 O222 1.226 . S
O216 Cd212 2.273 . S
O216 Cd214 2.411 . S
O216 C219 1.320 . S
O217 Cd214 2.333 . S
O217 C219 1.214 . S
O218 Cd214 2.352 . S
O218 C221 1.258 . S
C219 O216 1.320 . S
C219 O217 1.214 . S
O220 Cd212 2.277 . S
O220 C215 1.209 . S
C221 O218 1.258 . S
C221 O223 1.282 . S
O222 Cd214 2.277 . S
O222 C215 1.226 . S
O223 Cd214 2.356 . S
O223 C221 1.282 . S
C224 O225 1.306 . S
C224 O227 1.160 . S
O225 C224 1.306 . S
O225 Cd226 2.228 . S
Cd226 O225 2.228 . S
Cd226 O230 2.273 . S
Cd226 O234 2.277 . S
O227 C224 1.160 . S
O227 Cd228 2.203 . S
Cd228 O227 2.203 . S
Cd228 O230 2.411 . S
Cd228 O231 2.333 . S
Cd228 O232 2.352 . S
Cd228 O236 2.277 . S
Cd228 O237 2.356 . S
C229 O234 1.209 . S
C229 O236 1.226 . S
O230 Cd226 2.273 . S
O230 Cd228 2.411 . S
O230 C233 1.320 . S
O231 Cd228 2.333 . S
O231 C233 1.214 . S
O232 Cd228 2.352 . S
O232 C235 1.258 . S
C233 O230 1.320 . S
C233 O231 1.214 . S
O234 Cd226 2.277 . S
O234 C229 1.209 . S
C235 O232 1.258 . S
C235 O237 1.282 . S
O236 Cd228 2.277 . S
O236 C229 1.226 . S
O237 Cd228 2.356 . S
O237 C235 1.282 . S
C238 O239 1.306 . S
C238 O241 1.160 . S
O239 C238 1.306 . S
O239 Cd240 2.228 . S
Cd240 O239 2.228 . S
Cd240 O244 2.273 . S
Cd240 O248 2.277 . S
O241 C238 1.160 . S
O241 Cd242 2.203 . S
Cd242 O241 2.203 . S
Cd242 O244 2.411 . S
Cd242 O245 2.333 . S
Cd242 O246 2.352 . S
Cd242 O250 2.277 . S
Cd242 O251 2.356 . S
C243 O248 1.209 . S
C243 O250 1.226 . S
O244 Cd240 2.273 . S
O244 Cd242 2.411 . S
O244 C247 1.320 . S
O245 Cd242 2.333 . S
O245 C247 1.214 . S
O246 Cd242 2.352 . S
O246 C249 1.258 . S
C247 O244 1.320 . S
C247 O245 1.214 . S
O248 Cd240 2.277 . S
O248 C243 1.209 . S
C249 O246 1.258 . S
C249 O251 1.282 . S
O250 Cd242 2.277 . S
O250 C243 1.226 . S
O251 Cd242 2.356 . S
O251 C249 1.282 . S
C252 O253 1.306 . S
C252 O255 1.160 . S
O253 C252 1.306 . S
O253 Cd254 2.228 . S
Cd254 O253 2.228 . S
Cd254 O258 2.273 . S
Cd254 O262 2.277 . S
O255 C252 1.160 . S
O255 Cd256 2.203 . S
Cd256 O255 2.203 . S
Cd256 O258 2.411 . S
Cd256 O259 2.333 . S
Cd256 O260 2.352 . S
Cd256 O264 2.277 . S
Cd256 O265 2.356 . S
C257 O262 1.209 . S
C257 O264 1.226 . S
O258 Cd254 2.273 . S
O258 Cd256 2.411 . S
O258 C261 1.320 . S
O259 Cd256 2.333 . S
O259 C261 1.214 . S
O260 Cd256 2.352 . S
O260 C263 1.258 . S
C261 O258 1.320 . S
C261 O259 1.214 . S
O262 Cd254 2.277 . S
O262 C257 1.209 . S
C263 O260 1.258 . S
C263 O265 1.282 . S
O264 Cd256 2.277 . S
O264 C257 1.226 . S
O265 Cd256 2.356 . S
O265 C263 1.282 . S
C266 O267 1.306 . S
C266 O269 1.160 . S
O267 C266 1.306 . S
O267 Cd268 2.228 . S
Cd268 O267 2.228 . S
Cd268 O272 2.273 . S
Cd268 O276 2.277 . S
O269 C266 1.160 . S
O269 Cd270 2.203 . S
Cd270 O269 2.203 . S
Cd270 O272 2.411 . S
Cd270 O273 2.333 . S
Cd270 O274 2.352 . S
Cd270 O278 2.277 . S
Cd270 O279 2.356 . S
C271 O276 1.209 . S
C271 O278 1.226 . S
O272 Cd268 2.273 . S
O272 Cd270 2.411 . S
O272 C275 1.320 . S
O273 Cd270 2.333 . S
O273 C275 1.214 . S
O274 Cd270 2.352 . S
O274 C277 1.258 . S
C275 O272 1.320 . S
C275 O273 1.214 . S
O276 Cd268 2.277 . S
O276 C271 1.209 . S
C277 O274 1.258 . S
C277 O279 1.282 . S
O278 Cd270 2.277 . S
O278 C271 1.226 . S
O279 Cd270 2.356 . S
O279 C277 1.282 . S
C280 O281 1.306 . S
C280 O283 1.160 . S
O281 C280 1.306 . S
O281 Cd282 2.228 . S
Cd282 O281 2.228 . S
Cd282 O286 2.273 . S
Cd282 O290 2.277 . S
O283 C280 1.160 . S
O283 Cd284 2.203 . S
Cd284 O283 2.203 . S
Cd284 O286 2.411 . S
Cd284 O287 2.333 . S
Cd284 O288 2.352 . S
Cd284 O292 2.277 . S
Cd284 O293 2.356 . S
C285 O290 1.209 . S
C285 O292 1.226 . S
O286 Cd282 2.273 . S
O286 Cd284 2.411 . S
O286 C289 1.320 . S
O287 Cd284 2.333 . S
O287 C289 1.214 . S
O288 Cd284 2.352 . S
O288 C291 1.258 . S
C289 O286 1.320 . S
C289 O287 1.214 . S
O290 Cd282 2.277 . S
O290 C285 1.209 . S
C291 O288 1.258 . S
C291 O293 1.282 . S
O292 Cd284 2.277 . S
O292 C285 1.226 . S
O293 Cd284 2.356 . S
O293 C291 1.282 . S
C294 O295 1.306 . S
C294 O297 1.160 . S
O295 C294 1.306 . S
O295 Cd296 2.228 . S
Cd296 O295 2.228 . S
Cd296 O300 2.273 . S
Cd296 O304 2.277 . S
O297 C294 1.160 . S
O297 Cd298 2.203 . S
Cd298 O297 2.203 . S
Cd298 O300 2.411 . S
Cd298 O301 2.333 . S
Cd298 O302 2.352 . S
Cd298 O306 2.277 . S
Cd298 O307 2.356 . S
C299 O304 1.209 . S
C299 O306 1.226 . S
O300 Cd296 2.273 . S
O300 Cd298 2.411 . S
O300 C303 1.320 . S
O301 Cd298 2.333 . S
O301 C303 1.214 . S
O302 Cd298 2.352 . S
O302 C305 1.258 . S
C303 O300 1.320 . S
C303 O301 1.214 . S
O304 Cd296 2.277 . S
O304 C299 1.209 . S
C305 O302 1.258 . S
C305 O307 1.282 . S
O306 Cd298 2.277 . S
O306 C299 1.226 . S
O307 Cd298 2.356 . S
O307 C305 1.282 . S
C308 O309 1.306 . S
C308 O311 1.160 . S
O309 C308 1.306 . S
O309 Cd310 2.228 . S
Cd310 O309 2.228 . S
Cd310 O314 2.273 . S
Cd310 O318 2.277 . S
O311 C308 1.160 . S
O311 Cd312 2.203 . S
Cd312 O311 2.203 . S
Cd312 O314 2.411 . S
Cd312 O315 2.333 . S
Cd312 O316 2.352 . S
Cd312 O320 2.277 . S
Cd312 O321 2.356 . S
C313 O318 1.209 . S
C313 O320 1.226 . S
O314 Cd310 2.273 . S
O314 Cd312 2.411 . S
O314 C317 1.320 . S
O315 Cd312 2.333 . S
O315 C317 1.214 . S
O316 Cd312 2.352 . S
O316 C319 1.258 . S
C317 O314 1.320 . S
C317 O315 1.214 . S
O318 Cd310 2.277 . S
O318 C313 1.209 . S
C319 O316 1.258 . S
C319 O321 1.282 . S
O320 Cd312 2.277 . S
O320 C313 1.226 . S
O321 Cd312 2.356 . S
O321 C319 1.282 . S
C322 O323 1.306 . S
C322 O325 1.160 . S
O323 C322 1.306 . S
O323 Cd324 2.228 . S
Cd324 O323 2.228 . S
Cd324 O328 2.273 . S
Cd324 O332 2.277 . S
O325 C322 1.160 . S
O325 Cd326 2.203 . S
Cd326 O325 2.203 . S
Cd326 O328 2.411 . S
Cd326 O329 2.333 . S
Cd326 O330 2.352 . S
Cd326 O334 2.277 . S
Cd326 O335 2.356 . S
C327 O332 1.209 . S
C327 O334 1.226 . S
O328 Cd324 2.273 . S
O328 Cd326 2.411 . S
O328 C331 1.320 . S
O329 Cd326 2.333 . S
O329 C331 1.214 . S
O330 Cd326 2.352 . S
O330 C333 1.258 . S
C331 O328 1.320 . S
C331 O329 1.214 . S
O332 Cd324 2.277 . S
O332 C327 1.209 . S
C333 O330 1.258 . S
C333 O335 1.282 . S
O334 Cd326 2.277 . S
O334 C327 1.226 . S
O335 Cd326 2.356 . S
O335 C333 1.282 . S
C336 O337 1.306 . S
C336 O339 1.160 . S
O337 C336 1.306 . S
O337 Cd338 2.228 . S
Cd338 O337 2.228 . S
Cd338 O342 2.273 . S
Cd338 O346 2.277 . S
O339 C336 1.160 . S
O339 Cd340 2.203 . S
Cd340 O339 2.203 . S
Cd340 O342 2.411 . S
Cd340 O343 2.333 . S
Cd340 O344 2.352 . S
Cd340 O348 2.277 . S
Cd340 O349 2.356 . S
C341 O346 1.209 . S
C341 O348 1.226 . S
O342 Cd338 2.273 . S
O342 Cd340 2.411 . S
O342 C345 1.320 . S
O343 Cd340 2.333 . S
O343 C345 1.214 . S
O344 Cd340 2.352 . S
O344 C347 1.258 . S
C345 O342 1.320 . S
C345 O343 1.214 . S
O346 Cd338 2.277 . S
O346 C341 1.209 . S
C347 O344 1.258 . S
C347 O349 1.282 . S
O348 Cd340 2.277 . S
O348 C341 1.226 . S
O349 Cd340 2.356 . S
O349 C347 1.282 . S
C350 O351 1.306 . S
C350 O353 1.160 . S
O351 C350 1.306 . S
O351 Cd352 2.228 . S
Cd352 O351 2.228 . S
Cd352 O356 2.273 . S
Cd352 O360 2.277 . S
O353 C350 1.160 . S
O353 Cd354 2.203 . S
Cd354 O353 2.203 . S
Cd354 O356 2.411 . S
Cd354 O357 2.333 . S
Cd354 O358 2.352 . S
Cd354 O362 2.277 . S
Cd354 O363 2.356 . S
C355 O360 1.209 . S
C355 O362 1.226 . S
O356 Cd352 2.273 . S
O356 Cd354 2.411 . S
O356 C359 1.320 . S
O357 Cd354 2.333 . S
O357 C359 1.214 . S
O358 Cd354 2.352 . S
O358 C361 1.258 . S
C359 O356 1.320 . S
C359 O357 1.214 . S
O360 Cd352 2.277 . S
O360 C355 1.209 . S
C361 O358 1.258 . S
C361 O363 1.282 . S
O362 Cd354 2.277 . S
O362 C355 1.226 . S
O363 Cd354 2.356 . S
O363 C361 1.282 . S
C364 O365 1.306 . S
C364 O367 1.160 . S
O365 C364 1.306 . S
O365 Cd366 2.228 . S
Cd366 O365 2.228 . S
Cd366 O370 2.273 . S
Cd366 O374 2.277 . S
O367 C364 1.160 . S
O367 Cd368 2.203 . S
Cd368 O367 2.203 . S
Cd368 O370 2.411 . S
Cd368 O371 2.333 . S
Cd368 O372 2.352 . S
Cd368 O376 2.277 . S
Cd368 O377 2.356 . S
C369 O374 1.209 . S
C369 O376 1.226 . S
O370 Cd366 2.273 . S
O370 Cd368 2.411 . S
O370 C373 1.320 . S
O371 Cd368 2.333 . S
O371 C373 1.214 . S
O372 Cd368 2.352 . S
O372 C375 1.258 . S
C373 O370 1.320 . S
C373 O371 1.214 . S
O374 Cd366 2.277 . S
O374 C369 1.209 . S
C375 O372 1.258 . S
C375 O377 1.282 . S
O376 Cd368 2.277 . S
O376 C369 1.226 . S
O377 Cd368 2.356 . S
O377 C375 1.282 . S
C378 O379 1.306 . S
C378 O381 1.160 . S
O379 C378 1.306 . S
O379 Cd380 2.228 . S
Cd380 O379 2.228 . S
Cd380 O384 2.273 . S
Cd380 O388 2.277 . S
O381 C378 1.160 . S
O381 Cd382 2.203 . S
Cd382 O381 2.203 . S
Cd382 O384 2.411 . S
Cd382 O385 2.333 . S
Cd382 O386 2.352 . S
Cd382 O390 2.277 . S
Cd382 O391 2.356 . S
C383 O388 1.209 . S
C383 O390 1.226 . S
O384 Cd380 2.273 . S
O384 Cd382 2.411 . S
O384 C387 1.320 . S
O385 Cd382 2.333 . S
O385 C387 1.214 . S
O386 Cd382 2.352 . S
O386 C389 1.258 . S
C387 O384 1.320 . S
C387 O385 1.214 . S
O388 Cd380 2.277 . S
O388 C383 1.209 . S
C389 O386 1.258 . S
C389 O391 1.282 . S
O390 Cd382 2.277 . S
O390 C383 1.226 . S
O391 Cd382 2.356 . S
O391 C389 1.282 . S
C392 O393 1.306 . S
C392 O395 1.160 . S
O393 C392 1.306 . S
O393 Cd394 2.228 . S
Cd394 O393 2.228 . S
Cd394 O398 2.273 . S
Cd394 O402 2.277 . S
O395 C392 1.160 . S
O395 Cd396 2.203 . S
Cd396 O395 2.203 . S
Cd396 O398 2.411 . S
Cd396 O399 2.333 . S
Cd396 O400 2.352 . S
Cd396 O404 2.277 . S
Cd396 O405 2.356 . S
C397 O402 1.209 . S
C397 O404 1.226 . S
O398 Cd394 2.273 . S
O398 Cd396 2.411 . S
O398 C401 1.320 . S
O399 Cd396 2.333 . S
O399 C401 1.214 . S
O400 Cd396 2.352 . S
O400 C403 1.258 . S
C401 O398 1.320 . S
C401 O399 1.214 . S
O402 Cd394 2.277 . S
O402 C397 1.209 . S
C403 O400 1.258 . S
C403 O405 1.282 . S
O404 Cd396 2.277 . S
O404 C397 1.226 . S
O405 Cd396 2.356 . S
O405 C403 1.282 . S
C406 O407 1.306 . S
C406 O409 1.160 . S
O407 C406 1.306 . S
O407 Cd408 2.228 . S
Cd408 O407 2.228 . S
Cd408 O412 2.273 . S
Cd408 O416 2.277 . S
O409 C406 1.160 . S
O409 Cd410 2.203 . S
Cd410 O409 2.203 . S
Cd410 O412 2.411 . S
Cd410 O413 2.333 . S
Cd410 O414 2.352 . S
Cd410 O418 2.277 . S
Cd410 O419 2.356 . S
C411 O416 1.209 . S
C411 O418 1.226 . S
O412 Cd408 2.273 . S
O412 Cd410 2.411 . S
O412 C415 1.320 . S
O413 Cd410 2.333 . S
O413 C415 1.214 . S
O414 Cd410 2.352 . S
O414 C417 1.258 . S
C415 O412 1.320 . S
C415 O413 1.214 . S
O416 Cd408 2.277 . S
O416 C411 1.209 . S
C417 O414 1.258 . S
C417 O419 1.282 . S
O418 Cd410 2.277 . S
O418 C411 1.226 . S
O419 Cd410 2.356 . S
O419 C417 1.282 . S
C420 O421 1.306 . S
C420 O423 1.160 . S
O421 C420 1.306 . S
O421 Cd422 2.228 . S
Cd422 O421 2.228 . S
Cd422 O426 2.273 . S
Cd422 O430 2.277 . S
O423 C420 1.160 . S
O423 Cd424 2.203 . S
Cd424 O423 2.203 . S
Cd424 O426 2.411 . S
Cd424 O427 2.333 . S
Cd424 O428 2.352 . S
Cd424 O432 2.277 . S
Cd424 O433 2.356 . S
C425 O430 1.209 . S
C425 O432 1.226 . S
O426 Cd422 2.273 . S
O426 Cd424 2.411 . S
O426 C429 1.320 . S
O427 Cd424 2.333 . S
O427 C429 1.214 . S
O428 Cd424 2.352 . S
O428 C431 1.258 . S
C429 O426 1.320 . S
C429 O427 1.214 . S
O430 Cd422 2.277 . S
O430 C425 1.209 . S
C431 O428 1.258 . S
C431 O433 1.282 . S
O432 Cd424 2.277 . S
O432 C425 1.226 . S
O433 Cd424 2.356 . S
O433 C431 1.282 . S
C434 O435 1.306 . S
C434 O437 1.160 . S
O435 C434 1.306 . S
O435 Cd436 2.228 . S
Cd436 O435 2.228 . S
Cd436 O440 2.273 . S
Cd436 O444 2.277 . S
O437 C434 1.160 . S
O437 Cd438 2.203 . S
Cd438 O437 2.203 . S
Cd438 O440 2.411 . S
Cd438 O441 2.333 . S
Cd438 O442 2.352 . S
Cd438 O446 2.277 . S
Cd438 O447 2.356 . S
C439 O444 1.209 . S
C439 O446 1.226 . S
O440 Cd436 2.273 . S
O440 Cd438 2.411 . S
O440 C443 1.320 . S
O441 Cd438 2.333 . S
O441 C443 1.214 . S
O442 Cd438 2.352 . S
O442 C445 1.258 . S
C443 O440 1.320 . S
C443 O441 1.214 . S
O444 Cd436 2.277 . S
O444 C439 1.209 . S
C445 O442 1.258 . S
C445 O447 1.282 . S
O446 Cd438 2.277 . S
O446 C439 1.226 . S
O447 Cd438 2.356 . S
O447 C445 1.282 . S
H448 C456 0.950 . S
H449 C461 0.950 . S
H450 C458 0.950 . S
H451 C460 0.950 . S
H452 C462 0.950 . S
H453 C464 0.950 . S
H454 C466 0.950 . S
H455 C467 0.950 . S
C456 H448 0.950 . S
C456 C457 1.386 . S
C456 C458 1.391 . S
C457 C456 1.386 . S
C457 C461 1.393 . S
C458 H450 0.950 . S
C458 C456 1.391 . S
C458 C459 1.400 . S
C459 C458 1.400 . S
C459 C460 1.398 . S
C459 C465 1.491 . S
C460 H451 0.950 . S
C460 C459 1.398 . S
C460 C461 1.391 . S
C461 H449 0.950 . S
C461 C457 1.393 . S
C461 C460 1.391 . S
C462 H452 0.950 . S
C462 C463 1.386 . S
C462 C464 1.391 . S
C463 C462 1.386 . S
C463 C467 1.393 . S
C464 H453 0.950 . S
C464 C462 1.391 . S
C464 C465 1.400 . S
C465 C459 1.491 . S
C465 C464 1.400 . S
C465 C466 1.398 . S
C466 H454 0.950 . S
C466 C465 1.398 . S
C466 C467 1.391 . S
C467 H455 0.950 . S
C467 C463 1.393 . S
C467 C466 1.391 . S
H468 C476 0.950 . S
H469 C481 0.950 . S
H470 C478 0.950 . S
H471 C480 0.950 . S
H472 C482 0.950 . S
H473 C484 0.950 . S
H474 C486 0.950 . S
H475 C487 0.950 . S
C476 H468 0.950 . S
C476 C477 1.386 . S
C476 C478 1.391 . S
C477 C476 1.386 . S
C477 C481 1.393 . S
C478 H470 0.950 . S
C478 C476 1.391 . S
C478 C479 1.400 . S
C479 C478 1.400 . S
C479 C480 1.398 . S
C479 C485 1.491 . S
C480 H471 0.950 . S
C480 C479 1.398 . S
C480 C481 1.391 . S
C481 H469 0.950 . S
C481 C477 1.393 . S
C481 C480 1.391 . S
C482 H472 0.950 . S
C482 C483 1.386 . S
C482 C484 1.391 . S
C483 C482 1.386 . S
C483 C487 1.393 . S
C484 H473 0.950 . S
C484 C482 1.391 . S
C484 C485 1.400 . S
C485 C479 1.491 . S
C485 C484 1.400 . S
C485 C486 1.398 . S
C486 H474 0.950 . S
C486 C485 1.398 . S
C486 C487 1.391 . S
C487 H475 0.950 . S
C487 C483 1.393 . S
C487 C486 1.391 . S
H488 C496 0.950 . S
H489 C501 0.950 . S
H490 C498 0.950 . S
H491 C500 0.950 . S
H492 C502 0.950 . S
H493 C504 0.950 . S
H494 C506 0.950 . S
H495 C507 0.950 . S
C496 H488 0.950 . S
C496 C497 1.386 . S
C496 C498 1.391 . S
C497 C496 1.386 . S
C497 C501 1.393 . S
C498 H490 0.950 . S
C498 C496 1.391 . S
C498 C499 1.400 . S
C499 C498 1.400 . S
C499 C500 1.398 . S
C499 C505 1.491 . S
C500 H491 0.950 . S
C500 C499 1.398 . S
C500 C501 1.391 . S
C501 H489 0.950 . S
C501 C497 1.393 . S
C501 C500 1.391 . S
C502 H492 0.950 . S
C502 C503 1.386 . S
C502 C504 1.391 . S
C503 C502 1.386 . S
C503 C507 1.393 . S
C504 H493 0.950 . S
C504 C502 1.391 . S
C504 C505 1.400 . S
C505 C499 1.491 . S
C505 C504 1.400 . S
C505 C506 1.398 . S
C506 H494 0.950 . S
C506 C505 1.398 . S
C506 C507 1.391 . S
C507 H495 0.950 . S
C507 C503 1.393 . S
C507 C506 1.391 . S
H508 C516 0.950 . S
H509 C521 0.950 . S
H510 C518 0.950 . S
H511 C520 0.950 . S
H512 C522 0.950 . S
H513 C524 0.950 . S
H514 C526 0.950 . S
H515 C527 0.950 . S
C516 H508 0.950 . S
C516 C517 1.386 . S
C516 C518 1.391 . S
C517 C516 1.386 . S
C517 C521 1.393 . S
C518 H510 0.950 . S
C518 C516 1.391 . S
C518 C519 1.400 . S
C519 C518 1.400 . S
C519 C520 1.398 . S
C519 C525 1.491 . S
C520 H511 0.950 . S
C520 C519 1.398 . S
C520 C521 1.391 . S
C521 H509 0.950 . S
C521 C517 1.393 . S
C521 C520 1.391 . S
C522 H512 0.950 . S
C522 C523 1.386 . S
C522 C524 1.391 . S
C523 C522 1.386 . S
C523 C527 1.393 . S
C524 H513 0.950 . S
C524 C522 1.391 . S
C524 C525 1.400 . S
C525 C519 1.491 . S
C525 C524 1.400 . S
C525 C526 1.398 . S
C526 H514 0.950 . S
C526 C525 1.398 . S
C526 C527 1.391 . S
C527 H515 0.950 . S
C527 C523 1.393 . S
C527 C526 1.391 . S
H528 C536 0.950 . S
H529 C541 0.950 . S
H530 C538 0.950 . S
H531 C540 0.950 . S
H532 C542 0.950 . S
H533 C544 0.950 . S
H534 C546 0.950 . S
H535 C547 0.950 . S
C536 H528 0.950 . S
C536 C537 1.386 . S
C536 C538 1.391 . S
C537 C536 1.386 . S
C537 C541 1.393 . S
C538 H530 0.950 . S
C538 C536 1.391 . S
C538 C539 1.400 . S
C539 C538 1.400 . S
C539 C540 1.398 . S
C539 C545 1.491 . S
C540 H531 0.950 . S
C540 C539 1.398 . S
C540 C541 1.391 . S
C541 H529 0.950 . S
C541 C537 1.393 . S
C541 C540 1.391 . S
C542 H532 0.950 . S
C542 C543 1.386 . S
C542 C544 1.391 . S
C543 C542 1.386 . S
C543 C547 1.393 . S
C544 H533 0.950 . S
C544 C542 1.391 . S
C544 C545 1.400 . S
C545 C539 1.491 . S
C545 C544 1.400 . S
C545 C546 1.398 . S
C546 H534 0.950 . S
C546 C545 1.398 . S
C546 C547 1.391 . S
C547 H535 0.950 . S
C547 C543 1.393 . S
C547 C546 1.391 . S
H548 C556 0.950 . S
H549 C561 0.950 . S
H550 C558 0.950 . S
H551 C560 0.950 . S
H552 C562 0.950 . S
H553 C564 0.950 . S
H554 C566 0.950 . S
H555 C567 0.950 . S
C556 H548 0.950 . S
C556 C557 1.386 . S
C556 C558 1.391 . S
C557 C556 1.386 . S
C557 C561 1.393 . S
C558 H550 0.950 . S
C558 C556 1.391 . S
C558 C559 1.400 . S
C559 C558 1.400 . S
C559 C560 1.398 . S
C559 C565 1.491 . S
C560 H551 0.950 . S
C560 C559 1.398 . S
C560 C561 1.391 . S
C561 H549 0.950 . S
C561 C557 1.393 . S
C561 C560 1.391 . S
C562 H552 0.950 . S
C562 C563 1.386 . S
C562 C564 1.391 . S
C563 C562 1.386 . S
C563 C567 1.393 . S
C564 H553 0.950 . S
C564 C562 1.391 . S
C564 C565 1.400 . S
C565 C559 1.491 . S
C565 C564 1.400 . S
C565 C566 1.398 . S
C566 H554 0.950 . S
C566 C565 1.398 . S
C566 C567 1.391 . S
C567 H555 0.950 . S
C567 C563 1.393 . S
C567 C566 1.391 . S
H568 C576 0.950 . S
H569 C581 0.950 . S
H570 C578 0.950 . S
H571 C580 0.950 . S
H572 C582 0.950 . S
H573 C584 0.950 . S
H574 C586 0.950 . S
H575 C587 0.950 . S
C576 H568 0.950 . S
C576 C577 1.386 . S
C576 C578 1.391 . S
C577 C576 1.386 . S
C577 C581 1.393 . S
C578 H570 0.950 . S
C578 C576 1.391 . S
C578 C579 1.400 . S
C579 C578 1.400 . S
C579 C580 1.398 . S
C579 C585 1.491 . S
C580 H571 0.950 . S
C580 C579 1.398 . S
C580 C581 1.391 . S
C581 H569 0.950 . S
C581 C577 1.393 . S
C581 C580 1.391 . S
C582 H572 0.950 . S
C582 C583 1.386 . S
C582 C584 1.391 . S
C583 C582 1.386 . S
C583 C587 1.393 . S
C584 H573 0.950 . S
C584 C582 1.391 . S
C584 C585 1.400 . S
C585 C579 1.491 . S
C585 C584 1.400 . S
C585 C586 1.398 . S
C586 H574 0.950 . S
C586 C585 1.398 . S
C586 C587 1.391 . S
C587 H575 0.950 . S
C587 C583 1.393 . S
C587 C586 1.391 . S
H588 C596 0.950 . S
H589 C601 0.950 . S
H590 C598 0.950 . S
H591 C600 0.950 . S
H592 C602 0.950 . S
H593 C604 0.950 . S
H594 C606 0.950 . S
H595 C607 0.950 . S
C596 H588 0.950 . S
C596 C597 1.386 . S
C596 C598 1.391 . S
C597 C596 1.386 . S
C597 C601 1.393 . S
C598 H590 0.950 . S
C598 C596 1.391 . S
C598 C599 1.400 . S
C599 C598 1.400 . S
C599 C600 1.398 . S
C599 C605 1.491 . S
C600 H591 0.950 . S
C600 C599 1.398 . S
C600 C601 1.391 . S
C601 H589 0.950 . S
C601 C597 1.393 . S
C601 C600 1.391 . S
C602 H592 0.950 . S
C602 C603 1.386 . S
C602 C604 1.391 . S
C603 C602 1.386 . S
C603 C607 1.393 . S
C604 H593 0.950 . S
C604 C602 1.391 . S
C604 C605 1.400 . S
C605 C599 1.491 . S
C605 C604 1.400 . S
C605 C606 1.398 . S
C606 H594 0.950 . S
C606 C605 1.398 . S
C606 C607 1.391 . S
C607 H595 0.950 . S
C607 C603 1.393 . S
C607 C606 1.391 . S
H608 C616 0.950 . S
H609 C621 0.950 . S
H610 C618 0.950 . S
H611 C620 0.950 . S
H612 C622 0.950 . S
H613 C624 0.950 . S
H614 C626 0.950 . S
H615 C627 0.950 . S
C616 H608 0.950 . S
C616 C617 1.386 . S
C616 C618 1.391 . S
C617 C616 1.386 . S
C617 C621 1.393 . S
C618 H610 0.950 . S
C618 C616 1.391 . S
C618 C619 1.400 . S
C619 C618 1.400 . S
C619 C620 1.398 . S
C619 C625 1.491 . S
C620 H611 0.950 . S
C620 C619 1.398 . S
C620 C621 1.391 . S
C621 H609 0.950 . S
C621 C617 1.393 . S
C621 C620 1.391 . S
C622 H612 0.950 . S
C622 C623 1.386 . S
C622 C624 1.391 . S
C623 C622 1.386 . S
C623 C627 1.393 . S
C624 H613 0.950 . S
C624 C622 1.391 . S
C624 C625 1.400 . S
C625 C619 1.491 . S
C625 C624 1.400 . S
C625 C626 1.398 . S
C626 H614 0.950 . S
C626 C625 1.398 . S
C626 C627 1.391 . S
C627 H615 0.950 . S
C627 C623 1.393 . S
C627 C626 1.391 . S
H628 C636 0.950 . S
H629 C641 0.950 . S
H630 C638 0.950 . S
H631 C640 0.950 . S
H632 C642 0.950 1_655 S
H633 C644 0.950 . S
H634 C646 0.950 . S
H635 C647 0.950 . S
C636 H628 0.950 . S
C636 C637 1.386 . S
C636 C638 1.391 . S
C637 C636 1.386 . S
C637 C641 1.393 . S
C638 H630 0.950 . S
C638 C636 1.391 . S
C638 C639 1.400 . S
C639 C638 1.400 . S
C639 C640 1.398 . S
C639 C645 1.491 . S
C640 H631 0.950 . S
C640 C639 1.398 . S
C640 C641 1.391 . S
C641 H629 0.950 . S
C641 C637 1.393 . S
C641 C640 1.391 . S
C642 H632 0.950 1_455 S
C642 C643 1.386 . S
C642 C644 1.391 . S
C643 C642 1.386 . S
C643 C647 1.393 . S
C644 H633 0.950 . S
C644 C642 1.391 . S
C644 C645 1.400 . S
C645 C639 1.491 . S
C645 C644 1.400 . S
C645 C646 1.398 . S
C646 H634 0.950 . S
C646 C645 1.398 . S
C646 C647 1.391 . S
C647 H635 0.950 . S
C647 C643 1.393 . S
C647 C646 1.391 . S
H648 C656 0.950 . S
H649 C661 0.950 . S
H650 C658 0.950 . S
H651 C660 0.950 . S
H652 C662 0.950 . S
H653 C664 0.950 . S
H654 C666 0.950 . S
H655 C667 0.950 . S
C656 H648 0.950 . S
C656 C657 1.386 . S
C656 C658 1.391 . S
C657 C656 1.386 . S
C657 C661 1.393 . S
C658 H650 0.950 . S
C658 C656 1.391 . S
C658 C659 1.400 . S
C659 C658 1.400 . S
C659 C660 1.398 . S
C659 C665 1.491 . S
C660 H651 0.950 . S
C660 C659 1.398 . S
C660 C661 1.391 . S
C661 H649 0.950 . S
C661 C657 1.393 . S
C661 C660 1.391 . S
C662 H652 0.950 . S
C662 C663 1.386 . S
C662 C664 1.391 . S
C663 C662 1.386 . S
C663 C667 1.393 . S
C664 H653 0.950 . S
C664 C662 1.391 . S
C664 C665 1.400 . S
C665 C659 1.491 . S
C665 C664 1.400 . S
C665 C666 1.398 . S
C666 H654 0.950 . S
C666 C665 1.398 . S
C666 C667 1.391 . S
C667 H655 0.950 . S
C667 C663 1.393 . S
C667 C666 1.391 . S
H668 C676 0.950 . S
H669 C681 0.950 . S
H670 C678 0.950 . S
H671 C680 0.950 . S
H672 C682 0.950 . S
H673 C684 0.950 . S
H674 C686 0.950 . S
H675 C687 0.950 . S
C676 H668 0.950 . S
C676 C677 1.386 . S
C676 C678 1.391 . S
C677 C676 1.386 . S
C677 C681 1.393 . S
C678 H670 0.950 . S
C678 C676 1.391 . S
C678 C679 1.400 . S
C679 C678 1.400 . S
C679 C680 1.398 . S
C679 C685 1.491 . S
C680 H671 0.950 . S
C680 C679 1.398 . S
C680 C681 1.391 . S
C681 H669 0.950 . S
C681 C677 1.393 . S
C681 C680 1.391 . S
C682 H672 0.950 . S
C682 C683 1.386 . S
C682 C684 1.391 . S
C683 C682 1.386 . S
C683 C687 1.393 . S
C684 H673 0.950 . S
C684 C682 1.391 . S
C684 C685 1.400 . S
C685 C679 1.491 . S
C685 C684 1.400 . S
C685 C686 1.398 . S
C686 H674 0.950 . S
C686 C685 1.398 . S
C686 C687 1.391 . S
C687 H675 0.950 . S
C687 C683 1.393 . S
C687 C686 1.391 . S
H688 C696 0.950 . S
H689 C701 0.950 . S
H690 C698 0.950 . S
H691 C700 0.950 . S
H692 C702 0.950 . S
H693 C704 0.950 . S
H694 C706 0.950 . S
H695 C707 0.950 . S
C696 H688 0.950 . S
C696 C697 1.386 . S
C696 C698 1.391 . S
C697 C696 1.386 . S
C697 C701 1.393 . S
C698 H690 0.950 . S
C698 C696 1.391 . S
C698 C699 1.400 . S
C699 C698 1.400 . S
C699 C700 1.398 . S
C699 C705 1.491 . S
C700 H691 0.950 . S
C700 C699 1.398 . S
C700 C701 1.391 . S
C701 H689 0.950 . S
C701 C697 1.393 . S
C701 C700 1.391 . S
C702 H692 0.950 . S
C702 C703 1.386 . S
C702 C704 1.391 . S
C703 C702 1.386 . S
C703 C707 1.393 . S
C704 H693 0.950 . S
C704 C702 1.391 . S
C704 C705 1.400 . S
C705 C699 1.491 . S
C705 C704 1.400 . S
C705 C706 1.398 . S
C706 H694 0.950 . S
C706 C705 1.398 . S
C706 C707 1.391 . S
C707 H695 0.950 . S
C707 C703 1.393 . S
C707 C706 1.391 . S
H708 C716 0.950 . S
H709 C721 0.950 . S
H710 C718 0.950 . S
H711 C720 0.950 . S
H712 C722 0.950 . S
H713 C724 0.950 . S
H714 C726 0.950 . S
H715 C727 0.950 . S
C716 H708 0.950 . S
C716 C717 1.386 . S
C716 C718 1.391 . S
C717 C716 1.386 . S
C717 C721 1.393 . S
C718 H710 0.950 . S
C718 C716 1.391 . S
C718 C719 1.400 . S
C719 C718 1.400 . S
C719 C720 1.398 . S
C719 C725 1.491 . S
C720 H711 0.950 . S
C720 C719 1.398 . S
C720 C721 1.391 . S
C721 H709 0.950 . S
C721 C717 1.393 . S
C721 C720 1.391 . S
C722 H712 0.950 . S
C722 C723 1.386 . S
C722 C724 1.391 . S
C723 C722 1.386 . S
C723 C727 1.393 . S
C724 H713 0.950 . S
C724 C722 1.391 . S
C724 C725 1.400 . S
C725 C719 1.491 . S
C725 C724 1.400 . S
C725 C726 1.398 . S
C726 H714 0.950 . S
C726 C725 1.398 . S
C726 C727 1.391 . S
C727 H715 0.950 . S
C727 C723 1.393 . S
C727 C726 1.391 . S
H728 C736 0.950 . S
H729 C741 0.950 . S
H730 C738 0.950 . S
H731 C740 0.950 . S
H732 C742 0.950 . S
H733 C744 0.950 . S
H734 C746 0.950 . S
H735 C747 0.950 . S
C736 H728 0.950 . S
C736 C737 1.386 . S
C736 C738 1.391 . S
C737 C736 1.386 . S
C737 C741 1.393 . S
C738 H730 0.950 . S
C738 C736 1.391 . S
C738 C739 1.400 . S
C739 C738 1.400 . S
C739 C740 1.398 . S
C739 C745 1.491 . S
C740 H731 0.950 . S
C740 C739 1.398 . S
C740 C741 1.391 . S
C741 H729 0.950 . S
C741 C737 1.393 . S
C741 C740 1.391 . S
C742 H732 0.950 . S
C742 C743 1.386 . S
C742 C744 1.391 . S
C743 C742 1.386 . S
C743 C747 1.393 . S
C744 H733 0.950 . S
C744 C742 1.391 . S
C744 C745 1.400 . S
C745 C739 1.491 . S
C745 C744 1.400 . S
C745 C746 1.398 . S
C746 H734 0.950 . S
C746 C745 1.398 . S
C746 C747 1.391 . S
C747 H735 0.950 . S
C747 C743 1.393 . S
C747 C746 1.391 . S
H748 C756 0.950 . S
H749 C761 0.950 . S
H750 C758 0.950 . S
H751 C760 0.950 . S
H752 C762 0.957 . S
H753 C764 0.950 . S
H754 C766 0.950 . S
H755 C767 0.950 . S
C756 H748 0.950 . S
C756 C757 1.386 . S
C756 C758 1.391 . S
C757 C756 1.386 . S
C757 C761 1.393 . S
C758 H750 0.950 . S
C758 C756 1.391 . S
C758 C759 1.400 . S
C759 C758 1.400 . S
C759 C760 1.398 . S
C759 C765 1.491 . S
C760 H751 0.950 . S
C760 C759 1.398 . S
C760 C761 1.391 . S
C761 H749 0.950 . S
C761 C757 1.393 . S
C761 C760 1.391 . S
C762 H752 0.957 . S
C762 C763 1.386 . S
C762 C764 1.391 . S
C763 C762 1.386 . S
C763 C767 1.393 . S
C764 H753 0.950 . S
C764 C762 1.391 . S
C764 C765 1.400 . S
C765 C759 1.491 . S
C765 C764 1.400 . S
C765 C766 1.398 . S
C766 H754 0.950 . S
C766 C765 1.398 . S
C766 C767 1.391 . S
C767 H755 0.950 . S
C767 C763 1.393 . S
C767 C766 1.391 . S
H768 C776 0.950 . S
H769 C781 0.950 . S
H770 C778 0.950 . S
H771 C780 0.950 . S
H772 C782 0.950 . S
H773 C784 0.950 . S
H774 C786 0.950 . S
H775 C787 0.950 . S
C776 H768 0.950 . S
C776 C777 1.386 . S
C776 C778 1.391 . S
C777 C776 1.386 . S
C777 C781 1.393 . S
C778 H770 0.950 . S
C778 C776 1.391 . S
C778 C779 1.400 . S
C779 C778 1.400 . S
C779 C780 1.398 . S
C779 C785 1.491 . S
C780 H771 0.950 . S
C780 C779 1.398 . S
C780 C781 1.391 . S
C781 H769 0.950 . S
C781 C777 1.393 . S
C781 C780 1.391 . S
C782 H772 0.950 . S
C782 C783 1.386 . S
C782 C784 1.391 . S
C783 C782 1.386 . S
C783 C787 1.393 . S
C784 H773 0.950 . S
C784 C782 1.391 . S
C784 C785 1.400 . S
C785 C779 1.491 . S
C785 C784 1.400 . S
C785 C786 1.398 . S
C786 H774 0.950 . S
C786 C785 1.398 . S
C786 C787 1.391 . S
C787 H775 0.950 . S
C787 C783 1.393 . S
C787 C786 1.391 . S
H788 C796 0.950 . S
H789 C801 0.950 . S
H790 C798 0.950 . S
H791 C800 0.950 . S
H792 C802 0.950 . S
H793 C804 0.950 . S
H794 C806 0.950 . S
H795 C807 0.950 . S
C796 H788 0.950 . S
C796 C797 1.386 . S
C796 C798 1.391 . S
C797 C796 1.386 . S
C797 C801 1.393 . S
C798 H790 0.950 . S
C798 C796 1.391 . S
C798 C799 1.400 . S
C799 C798 1.400 . S
C799 C800 1.398 . S
C799 C805 1.491 . S
C800 H791 0.950 . S
C800 C799 1.398 . S
C800 C801 1.391 . S
C801 H789 0.950 . S
C801 C797 1.393 . S
C801 C800 1.391 . S
C802 H792 0.950 . S
C802 C803 1.386 . S
C802 C804 1.391 . S
C803 C802 1.386 . S
C803 C807 1.393 . S
C804 H793 0.950 . S
C804 C802 1.391 . S
C804 C805 1.400 . S
C805 C799 1.491 . S
C805 C804 1.400 . S
C805 C806 1.398 . S
C806 H794 0.950 . S
C806 C805 1.398 . S
C806 C807 1.391 . S
C807 H795 0.950 . S
C807 C803 1.393 . S
C807 C806 1.391 . S
H808 C816 0.950 . S
H809 C821 0.950 . S
H810 C818 0.950 . S
H811 C820 0.950 . S
H812 C822 0.950 . S
H813 C824 0.950 . S
H814 C826 0.950 . S
H815 C827 0.950 . S
C816 H808 0.950 . S
C816 C817 1.386 . S
C816 C818 1.391 . S
C817 C816 1.386 . S
C817 C821 1.393 . S
C818 H810 0.950 . S
C818 C816 1.391 . S
C818 C819 1.400 . S
C819 C818 1.400 . S
C819 C820 1.398 . S
C819 C825 1.491 . S
C820 H811 0.950 . S
C820 C819 1.398 . S
C820 C821 1.391 . S
C821 H809 0.950 . S
C821 C817 1.393 . S
C821 C820 1.391 . S
C822 H812 0.950 . S
C822 C823 1.386 . S
C822 C824 1.391 . S
C823 C822 1.386 . S
C823 C827 1.393 . S
C824 H813 0.950 . S
C824 C822 1.391 . S
C824 C825 1.400 . S
C825 C819 1.491 . S
C825 C824 1.400 . S
C825 C826 1.398 . S
C826 H814 0.950 . S
C826 C825 1.398 . S
C826 C827 1.391 . S
C827 H815 0.950 . S
C827 C823 1.393 . S
C827 C826 1.391 . S
H828 C836 0.950 . S
H829 C841 0.950 . S
H830 C838 0.950 . S
H831 C840 0.950 . S
H832 C842 0.950 . S
H833 C844 0.950 . S
H834 C846 0.950 . S
H835 C847 0.950 . S
C836 H828 0.950 . S
C836 C837 1.386 . S
C836 C838 1.391 . S
C837 C836 1.386 . S
C837 C841 1.393 . S
C838 H830 0.950 . S
C838 C836 1.391 . S
C838 C839 1.400 . S
C839 C838 1.400 . S
C839 C840 1.398 . S
C839 C845 1.491 . S
C840 H831 0.950 . S
C840 C839 1.398 . S
C840 C841 1.391 . S
C841 H829 0.950 . S
C841 C837 1.393 . S
C841 C840 1.391 . S
C842 H832 0.950 . S
C842 C843 1.386 . S
C842 C844 1.391 . S
C843 C842 1.386 . S
C843 C847 1.393 . S
C844 H833 0.950 . S
C844 C842 1.391 . S
C844 C845 1.400 . S
C845 C839 1.491 . S
C845 C844 1.400 . S
C845 C846 1.398 . S
C846 H834 0.950 . S
C846 C845 1.398 . S
C846 C847 1.391 . S
C847 H835 0.950 . S
C847 C843 1.393 . S
C847 C846 1.391 . S
H848 C856 0.950 . S
H849 C861 0.950 . S
H850 C858 0.950 . S
H851 C860 0.950 . S
H852 C862 0.950 . S
H853 C864 0.950 . S
H854 C866 0.950 . S
H855 C867 0.950 . S
C856 H848 0.950 . S
C856 C857 1.386 . S
C856 C858 1.391 . S
C857 C856 1.386 . S
C857 C861 1.393 . S
C858 H850 0.950 . S
C858 C856 1.391 . S
C858 C859 1.400 . S
C859 C858 1.400 . S
C859 C860 1.398 . S
C859 C865 1.491 . S
C860 H851 0.950 . S
C860 C859 1.398 . S
C860 C861 1.391 . S
C861 H849 0.950 . S
C861 C857 1.393 . S
C861 C860 1.391 . S
C862 H852 0.950 . S
C862 C863 1.386 . S
C862 C864 1.391 . S
C863 C862 1.386 . S
C863 C867 1.393 . S
C864 H853 0.950 . S
C864 C862 1.391 . S
C864 C865 1.400 . S
C865 C859 1.491 . S
C865 C864 1.400 . S
C865 C866 1.398 . S
C866 H854 0.950 . S
C866 C865 1.398 . S
C866 C867 1.391 . S
C867 H855 0.950 . S
C867 C863 1.393 . S
C867 C866 1.391 . S
H868 C876 0.950 . S
H869 C881 0.950 . S
H870 C878 0.950 . S
H871 C880 0.950 . S
H872 C882 0.950 . S
H873 C884 0.950 . S
H874 C886 0.950 . S
H875 C887 0.950 . S
C876 H868 0.950 . S
C876 C877 1.386 . S
C876 C878 1.391 . S
C877 C876 1.386 . S
C877 C881 1.393 . S
C878 H870 0.950 . S
C878 C876 1.391 . S
C878 C879 1.400 . S
C879 C878 1.400 . S
C879 C880 1.398 . S
C879 C885 1.491 . S
C880 H871 0.950 . S
C880 C879 1.398 . S
C880 C881 1.391 . S
C881 H869 0.950 . S
C881 C877 1.393 . S
C881 C880 1.391 . S
C882 H872 0.950 . S
C882 C883 1.386 . S
C882 C884 1.391 . S
C883 C882 1.386 . S
C883 C887 1.393 . S
C884 H873 0.950 . S
C884 C882 1.391 . S
C884 C885 1.400 . S
C885 C879 1.491 . S
C885 C884 1.400 . S
C885 C886 1.398 . S
C886 H874 0.950 . S
C886 C885 1.398 . S
C886 C887 1.391 . S
C887 H875 0.950 . S
C887 C883 1.393 . S
C887 C886 1.391 . S
H888 C896 0.950 . S
H889 C901 0.950 . S
H890 C898 0.950 . S
H891 C900 0.950 . S
H892 C902 0.950 . S
H893 C904 0.950 . S
H894 C906 0.950 . S
H895 C907 0.950 . S
C896 H888 0.950 . S
C896 C897 1.386 . S
C896 C898 1.391 . S
C897 C896 1.386 . S
C897 C901 1.393 . S
C898 H890 0.950 . S
C898 C896 1.391 . S
C898 C899 1.400 . S
C899 C898 1.400 . S
C899 C900 1.398 . S
C899 C905 1.491 . S
C900 H891 0.950 . S
C900 C899 1.398 . S
C900 C901 1.391 . S
C901 H889 0.950 . S
C901 C897 1.393 . S
C901 C900 1.391 . S
C902 H892 0.950 . S
C902 C903 1.386 . S
C902 C904 1.391 . S
C903 C902 1.386 . S
C903 C907 1.393 . S
C904 H893 0.950 . S
C904 C902 1.391 . S
C904 C905 1.400 . S
C905 C899 1.491 . S
C905 C904 1.400 . S
C905 C906 1.398 . S
C906 H894 0.950 . S
C906 C905 1.398 . S
C906 C907 1.391 . S
C907 H895 0.950 . S
C907 C903 1.393 . S
C907 C906 1.391 . S
H908 C916 0.950 . S
H909 C921 0.950 . S
H910 C918 0.950 . S
H911 C920 0.950 . S
H912 C922 0.950 . S
H913 C924 0.950 . S
H914 C926 0.950 . S
H915 C927 0.950 . S
C916 H908 0.950 . S
C916 C917 1.386 . S
C916 C918 1.391 . S
C917 C916 1.386 . S
C917 C921 1.393 . S
C918 H910 0.950 . S
C918 C916 1.391 . S
C918 C919 1.400 . S
C919 C918 1.400 . S
C919 C920 1.398 . S
C919 C925 1.491 . S
C920 H911 0.950 . S
C920 C919 1.398 . S
C920 C921 1.391 . S
C921 H909 0.950 . S
C921 C917 1.393 . S
C921 C920 1.391 . S
C922 H912 0.950 . S
C922 C923 1.386 . S
C922 C924 1.391 . S
C923 C922 1.386 . S
C923 C927 1.393 . S
C924 H913 0.950 . S
C924 C922 1.391 . S
C924 C925 1.400 . S
C925 C919 1.491 . S
C925 C924 1.400 . S
C925 C926 1.398 . S
C926 H914 0.950 . S
C926 C925 1.398 . S
C926 C927 1.391 . S
C927 H915 0.950 . S
C927 C923 1.393 . S
C927 C926 1.391 . S
H928 C936 0.950 . S
H929 C941 0.950 . S
H930 C938 0.950 . S
H931 C940 0.950 . S
H932 C942 0.950 . S
H933 C944 0.950 . S
H934 C946 0.950 . S
H935 C947 0.950 . S
C936 H928 0.950 . S
C936 C937 1.386 . S
C936 C938 1.391 . S
C937 C936 1.386 . S
C937 C941 1.393 . S
C938 H930 0.950 . S
C938 C936 1.391 . S
C938 C939 1.400 . S
C939 C938 1.400 . S
C939 C940 1.398 . S
C939 C945 1.491 . S
C940 H931 0.950 . S
C940 C939 1.398 . S
C940 C941 1.391 . S
C941 H929 0.950 . S
C941 C937 1.393 . S
C941 C940 1.391 . S
C942 H932 0.950 . S
C942 C943 1.386 . S
C942 C944 1.391 . S
C943 C942 1.386 . S
C943 C947 1.393 . S
C944 H933 0.950 . S
C944 C942 1.391 . S
C944 C945 1.400 . S
C945 C939 1.491 . S
C945 C944 1.400 . S
C945 C946 1.398 . S
C946 H934 0.950 . S
C946 C945 1.398 . S
C946 C947 1.391 . S
C947 H935 0.950 . S
C947 C943 1.393 . S
C947 C946 1.391 . S
H948 C956 0.950 . S
H949 C961 0.950 . S
H950 C958 0.950 . S
H951 C960 0.950 . S
H952 C962 0.950 . S
H953 C964 0.950 . S
H954 C966 0.950 . S
H955 C967 0.950 . S
C956 H948 0.950 . S
C956 C957 1.386 . S
C956 C958 1.391 . S
C957 C956 1.386 . S
C957 C961 1.393 . S
C958 H950 0.950 . S
C958 C956 1.391 . S
C958 C959 1.400 . S
C959 C958 1.400 . S
C959 C960 1.398 . S
C959 C965 1.491 . S
C960 H951 0.950 . S
C960 C959 1.398 . S
C960 C961 1.391 . S
C961 H949 0.950 . S
C961 C957 1.393 . S
C961 C960 1.391 . S
C962 H952 0.950 . S
C962 C963 1.386 . S
C962 C964 1.391 . S
C963 C962 1.386 . S
C963 C967 1.393 . S
C964 H953 0.950 . S
C964 C962 1.391 . S
C964 C965 1.400 . S
C965 C959 1.491 . S
C965 C964 1.400 . S
C965 C966 1.398 . S
C966 H954 0.950 . S
C966 C965 1.398 . S
C966 C967 1.391 . S
C967 H955 0.950 . S
C967 C963 1.393 . S
C967 C966 1.391 . S
H968 C976 0.950 . S
H969 C981 0.950 . S
H970 C978 0.950 . S
H971 C980 0.950 . S
H972 C982 0.950 . S
H973 C984 0.950 . S
H974 C986 0.950 . S
H975 C987 0.950 . S
C976 H968 0.950 . S
C976 C977 1.386 . S
C976 C978 1.391 . S
C977 C976 1.386 . S
C977 C981 1.393 . S
C978 H970 0.950 . S
C978 C976 1.391 . S
C978 C979 1.400 . S
C979 C978 1.400 . S
C979 C980 1.398 . S
C979 C985 1.491 . S
C980 H971 0.950 . S
C980 C979 1.398 . S
C980 C981 1.391 . S
C981 H969 0.950 . S
C981 C977 1.393 . S
C981 C980 1.391 . S
C982 H972 0.950 . S
C982 C983 1.386 . S
C982 C984 1.391 . S
C983 C982 1.386 . S
C983 C987 1.393 . S
C984 H973 0.950 . S
C984 C982 1.391 . S
C984 C985 1.400 . S
C985 C979 1.491 . S
C985 C984 1.400 . S
C985 C986 1.398 . S
C986 H974 0.950 . S
C986 C985 1.398 . S
C986 C987 1.391 . S
C987 H975 0.950 . S
C987 C983 1.393 . S
C987 C986 1.391 . S
H988 C996 0.950 . S
H989 C1001 0.950 . S
H990 C998 0.950 . S
H991 C1000 0.950 . S
H992 C1002 0.950 . S
H993 C1004 0.950 . S
H994 C1006 0.950 . S
H995 C1007 0.950 . S
C996 H988 0.950 . S
C996 C997 1.386 . S
C996 C998 1.391 . S
C997 C996 1.386 . S
C997 C1001 1.393 . S
C998 H990 0.950 . S
C998 C996 1.391 . S
C998 C999 1.400 . S
C999 C998 1.400 . S
C999 C1000 1.398 . S
C999 C1005 1.491 . S
C1000 H991 0.950 . S
C1000 C999 1.398 . S
C1000 C1001 1.391 . S
C1001 H989 0.950 . S
C1001 C997 1.393 . S
C1001 C1000 1.391 . S
C1002 H992 0.950 . S
C1002 C1003 1.386 . S
C1002 C1004 1.391 . S
C1003 C1002 1.386 . S
C1003 C1007 1.393 . S
C1004 H993 0.950 . S
C1004 C1002 1.391 . S
C1004 C1005 1.400 . S
C1005 C999 1.491 . S
C1005 C1004 1.400 . S
C1005 C1006 1.398 . S
C1006 H994 0.950 . S
C1006 C1005 1.398 . S
C1006 C1007 1.391 . S
C1007 H995 0.950 . S
C1007 C1003 1.393 . S
C1007 C1006 1.391 . S
H1008 C1016 0.950 . S
H1009 C1021 0.950 . S
H1010 C1018 0.950 . S
H1011 C1020 0.950 . S
H1012 C1022 0.950 . S
H1013 C1024 0.950 . S
H1014 C1026 0.950 . S
H1015 C1027 0.950 . S
C1016 H1008 0.950 . S
C1016 C1017 1.386 . S
C1016 C1018 1.391 . S
C1017 C1016 1.386 . S
C1017 C1021 1.393 . S
C1018 H1010 0.950 . S
C1018 C1016 1.391 . S
C1018 C1019 1.400 . S
C1019 C1018 1.400 . S
C1019 C1020 1.398 . S
C1019 C1025 1.491 . S
C1020 H1011 0.950 . S
C1020 C1019 1.398 . S
C1020 C1021 1.391 . S
C1021 H1009 0.950 . S
C1021 C1017 1.393 . S
C1021 C1020 1.391 . S
C1022 H1012 0.950 . S
C1022 C1023 1.386 . S
C1022 C1024 1.391 . S
C1023 C1022 1.386 . S
C1023 C1027 1.393 . S
C1024 H1013 0.950 . S
C1024 C1022 1.391 . S
C1024 C1025 1.400 . S
C1025 C1019 1.491 . S
C1025 C1024 1.400 . S
C1025 C1026 1.398 . S
C1026 H1014 0.950 . S
C1026 C1025 1.398 . S
C1026 C1027 1.391 . S
C1027 H1015 0.950 . S
C1027 C1023 1.393 . S
C1027 C1026 1.391 . S
H1028 C1036 0.950 . S
H1029 C1041 0.950 . S
H1030 C1038 0.950 . S
H1031 C1040 0.950 . S
H1032 C1042 0.950 . S
H1033 C1044 0.950 . S
H1034 C1046 0.950 . S
H1035 C1047 0.950 . S
C1036 H1028 0.950 . S
C1036 C1037 1.386 . S
C1036 C1038 1.391 . S
C1037 C1036 1.386 . S
C1037 C1041 1.393 . S
C1038 H1030 0.950 . S
C1038 C1036 1.391 . S
C1038 C1039 1.400 . S
C1039 C1038 1.400 . S
C1039 C1040 1.398 . S
C1039 C1045 1.491 . S
C1040 H1031 0.950 . S
C1040 C1039 1.398 . S
C1040 C1041 1.391 . S
C1041 H1029 0.950 . S
C1041 C1037 1.393 . S
C1041 C1040 1.391 . S
C1042 H1032 0.950 . S
C1042 C1043 1.386 . S
C1042 C1044 1.391 . S
C1043 C1042 1.386 . S
C1043 C1047 1.393 . S
C1044 H1033 0.950 . S
C1044 C1042 1.391 . S
C1044 C1045 1.400 . S
C1045 C1039 1.491 . S
C1045 C1044 1.400 . S
C1045 C1046 1.398 . S
C1046 H1034 0.950 . S
C1046 C1045 1.398 . S
C1046 C1047 1.391 . S
C1047 H1035 0.950 . S
C1047 C1043 1.393 . S
C1047 C1046 1.391 . S
H1048 C1056 0.950 . S
H1049 C1061 0.950 . S
H1050 C1058 0.950 . S
H1051 C1060 0.950 . S
H1052 C1062 0.950 . S
H1053 C1064 0.950 . S
H1054 C1066 0.950 . S
H1055 C1067 0.950 . S
C1056 H1048 0.950 . S
C1056 C1057 1.386 . S
C1056 C1058 1.391 . S
C1057 C1056 1.386 . S
C1057 C1061 1.393 . S
C1058 H1050 0.950 . S
C1058 C1056 1.391 . S
C1058 C1059 1.400 . S
C1059 C1058 1.400 . S
C1059 C1060 1.398 . S
C1059 C1065 1.491 . S
C1060 H1051 0.950 . S
C1060 C1059 1.398 . S
C1060 C1061 1.391 . S
C1061 H1049 0.950 . S
C1061 C1057 1.393 . S
C1061 C1060 1.391 . S
C1062 H1052 0.950 . S
C1062 C1063 1.386 . S
C1062 C1064 1.391 . S
C1063 C1062 1.386 . S
C1063 C1067 1.393 . S
C1064 H1053 0.950 . S
C1064 C1062 1.391 . S
C1064 C1065 1.400 . S
C1065 C1059 1.491 . S
C1065 C1064 1.400 . S
C1065 C1066 1.398 . S
C1066 H1054 0.950 . S
C1066 C1065 1.398 . S
C1066 C1067 1.391 . S
C1067 H1055 0.950 . S
C1067 C1063 1.393 . S
C1067 C1066 1.391 . S
H1068 C1076 0.950 . S
H1069 C1081 0.950 . S
H1070 C1078 0.950 . S
H1071 C1080 0.950 . S
H1072 C1082 0.950 . S
H1073 C1084 0.950 . S
H1074 C1086 0.950 . S
H1075 C1087 0.950 . S
C1076 H1068 0.950 . S
C1076 C1077 1.386 . S
C1076 C1078 1.391 . S
C1077 C1076 1.386 . S
C1077 C1081 1.393 . S
C1078 H1070 0.950 . S
C1078 C1076 1.391 . S
C1078 C1079 1.400 . S
C1079 C1078 1.400 . S
C1079 C1080 1.398 . S
C1079 C1085 1.491 . S
C1080 H1071 0.950 . S
C1080 C1079 1.398 . S
C1080 C1081 1.391 . S
C1081 H1069 0.950 . S
C1081 C1077 1.393 . S
C1081 C1080 1.391 . S
C1082 H1072 0.950 . S
C1082 C1083 1.386 . S
C1082 C1084 1.391 . S
C1083 C1082 1.386 . S
C1083 C1087 1.393 . S
C1084 H1073 0.950 . S
C1084 C1082 1.391 . S
C1084 C1085 1.400 . S
C1085 C1079 1.491 . S
C1085 C1084 1.400 . S
C1085 C1086 1.398 . S
C1086 H1074 0.950 . S
C1086 C1085 1.398 . S
C1086 C1087 1.391 . S
C1087 H1075 0.950 . S
C1087 C1083 1.393 . S
C1087 C1086 1.391 . S
H1088 C1096 0.950 . S
H1089 C1101 0.950 . S
H1090 C1098 0.950 . S
H1091 C1100 0.950 . S
H1092 C1102 0.950 . S
H1093 C1104 0.950 . S
H1094 C1106 0.950 . S
H1095 C1107 0.950 . S
C1096 H1088 0.950 . S
C1096 C1097 1.386 . S
C1096 C1098 1.391 . S
C1097 C1096 1.386 . S
C1097 C1101 1.393 . S
C1098 H1090 0.950 . S
C1098 C1096 1.391 . S
C1098 C1099 1.400 . S
C1099 C1098 1.400 . S
C1099 C1100 1.398 . S
C1099 C1105 1.491 . S
C1100 H1091 0.950 . S
C1100 C1099 1.398 . S
C1100 C1101 1.391 . S
C1101 H1089 0.950 . S
C1101 C1097 1.393 . S
C1101 C1100 1.391 . S
C1102 H1092 0.950 . S
C1102 C1103 1.386 . S
C1102 C1104 1.391 . S
C1103 C1102 1.386 . S
C1103 C1107 1.393 . S
C1104 H1093 0.950 . S
C1104 C1102 1.391 . S
C1104 C1105 1.400 . S
C1105 C1099 1.491 . S
C1105 C1104 1.400 . S
C1105 C1106 1.398 . S
C1106 H1094 0.950 . S
C1106 C1105 1.398 . S
C1106 C1107 1.391 . S
C1107 H1095 0.950 . S
C1107 C1103 1.393 . S
C1107 C1106 1.391 . S
H1108 C1116 0.950 . S
H1109 C1121 0.950 . S
H1110 C1118 0.959 . S
H1111 C1120 0.950 . S
H1112 C1122 0.950 . S
H1113 C1124 0.950 1_455 S
H1114 C1126 0.950 . S
H1115 C1127 0.950 . S
C1116 H1108 0.950 . S
C1116 C1117 1.386 . S
C1116 C1118 1.391 . S
C1117 C1116 1.386 . S
C1117 C1121 1.393 1_565 S
C1118 H1110 0.959 . S
C1118 C1116 1.391 . S
C1118 C1119 1.400 . S
C1119 C1118 1.400 . S
C1119 C1120 1.398 1_565 S
C1119 C1125 1.491 1_455 S
C1120 H1111 0.950 . S
C1120 C1119 1.398 1_545 S
C1120 C1121 1.391 . S
C1121 H1109 0.950 . S
C1121 C1117 1.393 1_545 S
C1121 C1120 1.391 . S
C1122 H1112 0.950 . S
C1122 C1123 1.386 . S
C1122 C1124 1.391 . S
C1123 C1122 1.386 . S
C1123 C1127 1.393 1_545 S
C1124 H1113 0.950 1_655 S
C1124 C1122 1.391 . S
C1124 C1125 1.400 1_545 S
C1125 C1119 1.491 1_655 S
C1125 C1124 1.400 1_565 S
C1125 C1126 1.398 . S
C1126 H1114 0.950 . S
C1126 C1125 1.398 . S
C1126 C1127 1.391 . S
C1127 H1115 0.950 . S
C1127 C1123 1.393 1_565 S
C1127 C1126 1.391 . S
H1128 C1136 0.950 . S
H1129 C1141 0.950 . S
H1130 C1138 0.950 . S
H1131 C1140 0.950 . S
H1132 C1142 0.950 . S
H1133 C1144 0.950 . S
H1134 C1146 0.950 . S
H1135 C1147 0.950 . S
C1136 H1128 0.950 . S
C1136 C1137 1.386 . S
C1136 C1138 1.391 . S
C1137 C1136 1.386 . S
C1137 C1141 1.393 . S
C1138 H1130 0.950 . S
C1138 C1136 1.391 . S
C1138 C1139 1.400 . S
C1139 C1138 1.400 . S
C1139 C1140 1.398 . S
C1139 C1145 1.491 . S
C1140 H1131 0.950 . S
C1140 C1139 1.398 . S
C1140 C1141 1.391 . S
C1141 H1129 0.950 . S
C1141 C1137 1.393 . S
C1141 C1140 1.391 . S
C1142 H1132 0.950 . S
C1142 C1143 1.386 . S
C1142 C1144 1.391 . S
C1143 C1142 1.386 . S
C1143 C1147 1.393 . S
C1144 H1133 0.950 . S
C1144 C1142 1.391 . S
C1144 C1145 1.400 . S
C1145 C1139 1.491 . S
C1145 C1144 1.400 . S
C1145 C1146 1.398 . S
C1146 H1134 0.950 . S
C1146 C1145 1.398 . S
C1146 C1147 1.391 . S
C1147 H1135 0.950 . S
C1147 C1143 1.393 . S
C1147 C1146 1.391 . S
H1148 C1156 0.950 1_565 S
H1149 C1161 0.950 . S
H1150 C1158 0.950 . S
H1151 C1160 0.950 . S
H1152 C1162 0.950 . S
H1153 C1164 0.950 . S
H1154 C1166 0.950 . S
H1155 C1167 0.950 . S
C1156 H1148 0.950 1_545 S
C1156 C1157 1.386 . S
C1156 C1158 1.391 1_545 S
C1157 C1156 1.386 . S
C1157 C1161 1.393 . S
C1158 H1150 0.950 . S
C1158 C1156 1.391 1_565 S
C1158 C1159 1.400 1_565 S
C1159 C1158 1.400 1_545 S
C1159 C1160 1.398 . S
C1159 C1165 1.491 1_554 S
C1160 H1151 0.950 . S
C1160 C1159 1.398 . S
C1160 C1161 1.391 . S
C1161 H1149 0.950 . S
C1161 C1157 1.393 . S
C1161 C1160 1.391 . S
C1162 H1152 0.950 . S
C1162 C1163 1.386 1_545 S
C1162 C1164 1.391 . S
C1163 C1162 1.386 1_565 S
C1163 C1167 1.393 . S
C1164 H1153 0.950 . S
C1164 C1162 1.391 . S
C1164 C1165 1.400 . S
C1165 C1159 1.491 1_556 S
C1165 C1164 1.400 . S
C1165 C1166 1.398 1_545 S
C1166 H1154 0.950 . S
C1166 C1165 1.398 1_565 S
C1166 C1167 1.391 . S
C1167 H1155 0.950 . S
C1167 C1163 1.393 . S
C1167 C1166 1.391 . S
H1168 C1176 0.950 . S
H1169 C1181 0.950 . S
H1170 C1178 0.950 . S
H1171 C1180 0.950 . S
H1172 C1182 0.950 . S
H1173 C1184 0.950 . S
H1174 C1186 0.950 . S
H1175 C1187 0.950 . S
C1176 H1168 0.950 . S
C1176 C1177 1.386 . S
C1176 C1178 1.391 . S
C1177 C1176 1.386 . S
C1177 C1181 1.393 . S
C1178 H1170 0.950 . S
C1178 C1176 1.391 . S
C1178 C1179 1.400 . S
C1179 C1178 1.400 . S
C1179 C1180 1.398 . S
C1179 C1185 1.491 . S
C1180 H1171 0.950 . S
C1180 C1179 1.398 . S
C1180 C1181 1.391 . S
C1181 H1169 0.950 . S
C1181 C1177 1.393 . S
C1181 C1180 1.391 . S
C1182 H1172 0.950 . S
C1182 C1183 1.386 . S
C1182 C1184 1.391 . S
C1183 C1182 1.386 . S
C1183 C1187 1.393 . S
C1184 H1173 0.950 . S
C1184 C1182 1.391 . S
C1184 C1185 1.400 . S
C1185 C1179 1.491 . S
C1185 C1184 1.400 . S
C1185 C1186 1.398 . S
C1186 H1174 0.950 . S
C1186 C1185 1.398 . S
C1186 C1187 1.391 . S
C1187 H1175 0.950 . S
C1187 C1183 1.393 . S
C1187 C1186 1.391 . S
H1188 C1196 0.950 . S
H1189 C1201 0.950 1_545 S
H1190 C1198 0.950 . S
H1191 C1200 0.950 . S
H1192 C1202 0.950 . S
H1193 C1204 0.950 . S
H1194 C1206 0.950 . S
H1195 C1207 0.950 . S
C1196 H1188 0.950 . S
C1196 C1197 1.386 . S
C1196 C1198 1.391 . S
C1197 C1196 1.386 . S
C1197 C1201 1.393 . S
C1198 H1190 0.950 . S
C1198 C1196 1.391 . S
C1198 C1199 1.400 . S
C1199 C1198 1.400 . S
C1199 C1200 1.398 1_565 S
C1199 C1205 1.491 . S
C1200 H1191 0.950 . S
C1200 C1199 1.398 1_545 S
C1200 C1201 1.391 1_545 S
C1201 H1189 0.950 1_565 S
C1201 C1197 1.393 . S
C1201 C1200 1.391 1_565 S
C1202 H1192 0.950 . S
C1202 C1203 1.386 . S
C1202 C1204 1.391 . S
C1203 C1202 1.386 . S
C1203 C1207 1.393 1_545 S
C1204 H1193 0.950 . S
C1204 C1202 1.391 . S
C1204 C1205 1.400 1_545 S
C1205 C1199 1.491 . S
C1205 C1204 1.400 1_565 S
C1205 C1206 1.398 . S
C1206 H1194 0.950 . S
C1206 C1205 1.398 . S
C1206 C1207 1.391 . S
C1207 H1195 0.950 . S
C1207 C1203 1.393 1_565 S
C1207 C1206 1.391 . S
H1208 C1216 0.950 . S
H1209 C1221 0.950 . S
H1210 C1218 0.950 . S
H1211 C1220 0.950 . S
H1212 C1222 0.950 . S
H1213 C1224 0.950 . S
H1214 C1226 0.950 . S
H1215 C1227 0.950 . S
C1216 H1208 0.950 . S
C1216 C1217 1.386 . S
C1216 C1218 1.391 . S
C1217 C1216 1.386 . S
C1217 C1221 1.393 . S
C1218 H1210 0.950 . S
C1218 C1216 1.391 . S
C1218 C1219 1.400 . S
C1219 C1218 1.400 . S
C1219 C1220 1.398 . S
C1219 C1225 1.491 . S
C1220 H1211 0.950 . S
C1220 C1219 1.398 . S
C1220 C1221 1.391 . S
C1221 H1209 0.950 . S
C1221 C1217 1.393 . S
C1221 C1220 1.391 . S
C1222 H1212 0.950 . S
C1222 C1223 1.386 . S
C1222 C1224 1.391 . S
C1223 C1222 1.386 . S
C1223 C1227 1.393 . S
C1224 H1213 0.950 . S
C1224 C1222 1.391 . S
C1224 C1225 1.400 . S
C1225 C1219 1.491 . S
C1225 C1224 1.400 . S
C1225 C1226 1.398 . S
C1226 H1214 0.950 . S
C1226 C1225 1.398 . S
C1226 C1227 1.391 . S
C1227 H1215 0.950 . S
C1227 C1223 1.393 . S
C1227 C1226 1.391 . S
H1228 C1236 0.950 . S
H1229 C1241 0.950 . S
H1230 C1238 0.950 . S
H1231 C1240 0.950 1_655 S
H1232 C1242 0.950 . S
H1233 C1244 0.950 . S
H1234 C1246 0.950 . S
H1235 C1247 0.950 . S
C1236 H1228 0.950 . S
C1236 C1237 1.386 1_565 S
C1236 C1238 1.391 . S
C1237 C1236 1.386 1_545 S
C1237 C1241 1.393 . S
C1238 H1230 0.950 . S
C1238 C1236 1.391 . S
C1238 C1239 1.400 1_565 S
C1239 C1238 1.400 1_545 S
C1239 C1240 1.398 . S
C1239 C1245 1.491 1_456 S
C1240 H1231 0.950 1_455 S
C1240 C1239 1.398 . S
C1240 C1241 1.391 . S
C1241 H1229 0.950 . S
C1241 C1237 1.393 . S
C1241 C1240 1.391 . S
C1242 H1232 0.950 . S
C1242 C1243 1.386 1_545 S
C1242 C1244 1.391 . S
C1243 C1242 1.386 1_565 S
C1243 C1247 1.393 . S
C1244 H1233 0.950 . S
C1244 C1242 1.391 . S
C1244 C1245 1.400 . S
C1245 C1239 1.491 1_654 S
C1245 C1244 1.400 . S
C1245 C1246 1.398 1_645 S
C1246 H1234 0.950 . S
C1246 C1245 1.398 1_465 S
C1246 C1247 1.391 1_455 S
C1247 H1235 0.950 . S
C1247 C1243 1.393 . S
C1247 C1246 1.391 1_655 S
H1248 C1256 0.950 . S
H1249 C1261 0.950 . S
H1250 C1258 0.950 . S
H1251 C1260 0.950 . S
H1252 C1262 0.950 . S
H1253 C1264 0.950 . S
H1254 C1266 0.950 . S
H1255 C1267 0.950 . S
C1256 H1248 0.950 . S
C1256 C1257 1.386 . S
C1256 C1258 1.391 . S
C1257 C1256 1.386 . S
C1257 C1261 1.393 . S
C1258 H1250 0.950 . S
C1258 C1256 1.391 . S
C1258 C1259 1.400 . S
C1259 C1258 1.400 . S
C1259 C1260 1.398 . S
C1259 C1265 1.491 . S
C1260 H1251 0.950 . S
C1260 C1259 1.398 . S
C1260 C1261 1.391 . S
C1261 H1249 0.950 . S
C1261 C1257 1.393 . S
C1261 C1260 1.391 . S
C1262 H1252 0.950 . S
C1262 C1263 1.386 . S
C1262 C1264 1.391 . S
C1263 C1262 1.386 . S
C1263 C1267 1.393 . S
C1264 H1253 0.950 . S
C1264 C1262 1.391 . S
C1264 C1265 1.400 . S
C1265 C1259 1.491 . S
C1265 C1264 1.400 . S
C1265 C1266 1.398 . S
C1266 H1254 0.950 . S
C1266 C1265 1.398 . S
C1266 C1267 1.391 . S
C1267 H1255 0.950 . S
C1267 C1263 1.393 . S
C1267 C1266 1.391 . S
H1268 C1276 0.950 . S
H1269 C1281 0.950 . S
H1270 C1278 0.950 . S
H1271 C1280 0.950 . S
H1272 C1282 0.950 . S
H1273 C1284 0.950 . S
H1274 C1286 0.950 . S
H1275 C1287 0.950 . S
C1276 H1268 0.950 . S
C1276 C1277 1.386 . S
C1276 C1278 1.391 . S
C1277 C1276 1.386 . S
C1277 C1281 1.393 . S
C1278 H1270 0.950 . S
C1278 C1276 1.391 . S
C1278 C1279 1.400 . S
C1279 C1278 1.400 . S
C1279 C1280 1.398 . S
C1279 C1285 1.491 . S
C1280 H1271 0.950 . S
C1280 C1279 1.398 . S
C1280 C1281 1.391 . S
C1281 H1269 0.950 . S
C1281 C1277 1.393 . S
C1281 C1280 1.391 . S
C1282 H1272 0.950 . S
C1282 C1283 1.386 . S
C1282 C1284 1.391 . S
C1283 C1282 1.386 . S
C1283 C1287 1.393 . S
C1284 H1273 0.950 . S
C1284 C1282 1.391 . S
C1284 C1285 1.400 . S
C1285 C1279 1.491 . S
C1285 C1284 1.400 . S
C1285 C1286 1.398 . S
C1286 H1274 0.950 . S
C1286 C1285 1.398 . S
C1286 C1287 1.391 . S
C1287 H1275 0.950 . S
C1287 C1283 1.393 . S
C1287 C1286 1.391 . S
H1288 C1296 0.950 . S
H1289 C1301 0.950 . S
H1290 C1298 0.950 . S
H1291 C1300 0.950 . S
H1292 C1302 0.950 . S
H1293 C1304 0.950 . S
H1294 C1306 0.950 . S
H1295 C1307 0.950 . S
C1296 H1288 0.950 . S
C1296 C1297 1.386 . S
C1296 C1298 1.391 . S
C1297 C1296 1.386 . S
C1297 C1301 1.393 . S
C1298 H1290 0.950 . S
C1298 C1296 1.391 . S
C1298 C1299 1.400 . S
C1299 C1298 1.400 . S
C1299 C1300 1.398 . S
C1299 C1305 1.491 . S
C1300 H1291 0.950 . S
C1300 C1299 1.398 . S
C1300 C1301 1.391 . S
C1301 H1289 0.950 . S
C1301 C1297 1.393 . S
C1301 C1300 1.391 . S
C1302 H1292 0.950 . S
C1302 C1303 1.386 . S
C1302 C1304 1.391 . S
C1303 C1302 1.386 . S
C1303 C1307 1.393 . S
C1304 H1293 0.950 . S
C1304 C1302 1.391 . S
C1304 C1305 1.400 . S
C1305 C1299 1.491 . S
C1305 C1304 1.400 . S
C1305 C1306 1.398 . S
C1306 H1294 0.950 . S
C1306 C1305 1.398 . S
C1306 C1307 1.391 . S
C1307 H1295 0.950 . S
C1307 C1303 1.393 . S
C1307 C1306 1.391 . S
H1308 C1316 0.950 . S
H1309 C1321 0.950 . S
H1310 C1318 0.950 . S
H1311 C1320 0.950 . S
H1312 C1322 0.950 . S
H1313 C1324 0.950 . S
H1314 C1326 0.950 . S
H1315 C1327 0.950 . S
C1316 H1308 0.950 . S
C1316 C1317 1.386 . S
C1316 C1318 1.391 . S
C1317 C1316 1.386 . S
C1317 C1321 1.393 . S
C1318 H1310 0.950 . S
C1318 C1316 1.391 . S
C1318 C1319 1.400 . S
C1319 C1318 1.400 . S
C1319 C1320 1.398 . S
C1319 C1325 1.491 . S
C1320 H1311 0.950 . S
C1320 C1319 1.398 . S
C1320 C1321 1.391 . S
C1321 H1309 0.950 . S
C1321 C1317 1.393 . S
C1321 C1320 1.391 . S
C1322 H1312 0.950 . S
C1322 C1323 1.386 . S
C1322 C1324 1.391 . S
C1323 C1322 1.386 . S
C1323 C1327 1.393 . S
C1324 H1313 0.950 . S
C1324 C1322 1.391 . S
C1324 C1325 1.400 . S
C1325 C1319 1.491 . S
C1325 C1324 1.400 . S
C1325 C1326 1.398 . S
C1326 H1314 0.950 . S
C1326 C1325 1.398 . S
C1326 C1327 1.391 . S
C1327 H1315 0.950 . S
C1327 C1323 1.393 . S
C1327 C1326 1.391 . S
H1328 C1336 0.950 . S
H1329 C1341 0.950 . S
H1330 C1338 0.950 . S
H1331 C1340 0.950 . S
H1332 C1342 0.950 . S
H1333 C1344 0.950 . S
H1334 C1346 0.950 . S
H1335 C1347 0.950 . S
C1336 H1328 0.950 . S
C1336 C1337 1.386 . S
C1336 C1338 1.391 . S
C1337 C1336 1.386 . S
C1337 C1341 1.393 . S
C1338 H1330 0.950 . S
C1338 C1336 1.391 . S
C1338 C1339 1.400 . S
C1339 C1338 1.400 . S
C1339 C1340 1.398 . S
C1339 C1345 1.491 1_554 S
C1340 H1331 0.950 . S
C1340 C1339 1.398 . S
C1340 C1341 1.391 . S
C1341 H1329 0.950 . S
C1341 C1337 1.393 . S
C1341 C1340 1.391 . S
C1342 H1332 0.950 . S
C1342 C1343 1.386 . S
C1342 C1344 1.391 . S
C1343 C1342 1.386 . S
C1343 C1347 1.393 . S
C1344 H1333 0.950 . S
C1344 C1342 1.391 . S
C1344 C1345 1.400 . S
C1345 C1339 1.491 1_556 S
C1345 C1344 1.400 . S
C1345 C1346 1.398 . S
C1346 H1334 0.950 . S
C1346 C1345 1.398 . S
C1346 C1347 1.391 . S
C1347 H1335 0.950 . S
C1347 C1343 1.393 . S
C1347 C1346 1.391 . S
H1348 C1356 0.950 . S
H1349 C1361 0.950 . S
H1350 C1358 0.950 . S
H1351 C1360 0.950 . S
H1352 C1362 0.950 . S
H1353 C1364 0.950 . S
H1354 C1366 0.950 . S
H1355 C1367 0.946 1_455 S
C1356 H1348 0.950 . S
C1356 C1357 1.386 . S
C1356 C1358 1.391 . S
C1357 C1356 1.386 . S
C1357 C1361 1.393 1_455 S
C1358 H1350 0.950 . S
C1358 C1356 1.391 . S
C1358 C1359 1.400 . S
C1359 C1358 1.400 . S
C1359 C1360 1.398 1_455 S
C1359 C1365 1.491 1_455 S
C1360 H1351 0.950 . S
C1360 C1359 1.398 1_655 S
C1360 C1361 1.391 . S
C1361 H1349 0.950 . S
C1361 C1357 1.393 1_655 S
C1361 C1360 1.391 . S
C1362 H1352 0.950 . S
C1362 C1363 1.386 . S
C1362 C1364 1.391 . S
C1363 C1362 1.386 . S
C1363 C1367 1.398 . S
C1364 H1353 0.950 . S
C1364 C1362 1.391 . S
C1364 C1365 1.400 . S
C1365 C1359 1.491 1_655 S
C1365 C1364 1.400 . S
C1365 C1366 1.398 1_655 S
C1366 H1354 0.950 . S
C1366 C1365 1.398 1_455 S
C1366 C1367 1.389 1_455 S
C1367 H1355 0.946 1_655 S
C1367 C1363 1.398 . S
C1367 C1366 1.389 1_655 S
H1368 C1376 0.950 . S
H1369 C1381 0.950 . S
H1370 C1378 0.950 1_655 S
H1371 C1380 0.950 . S
H1372 C1382 0.950 . S
H1373 C1384 0.950 1_455 S
H1374 C1386 0.950 . S
H1375 C1387 0.950 . S
C1376 H1368 0.950 . S
C1376 C1377 1.386 . S
C1376 C1378 1.391 . S
C1377 C1376 1.386 . S
C1377 C1381 1.393 . S
C1378 H1370 0.950 1_455 S
C1378 C1376 1.391 . S
C1378 C1379 1.400 . S
C1379 C1378 1.400 . S
C1379 C1380 1.398 . S
C1379 C1385 1.491 1_454 S
C1380 H1371 0.950 . S
C1380 C1379 1.398 . S
C1380 C1381 1.391 . S
C1381 H1369 0.950 . S
C1381 C1377 1.393 . S
C1381 C1380 1.391 . S
C1382 H1372 0.950 . S
C1382 C1383 1.386 . S
C1382 C1384 1.391 . S
C1383 C1382 1.386 . S
C1383 C1387 1.393 . S
C1384 H1373 0.950 1_655 S
C1384 C1382 1.391 . S
C1384 C1385 1.400 . S
C1385 C1379 1.491 1_656 S
C1385 C1384 1.400 . S
C1385 C1386 1.398 . S
C1386 H1374 0.950 . S
C1386 C1385 1.398 . S
C1386 C1387 1.391 . S
C1387 H1375 0.950 . S
C1387 C1383 1.393 . S
C1387 C1386 1.391 . S
H1388 C1396 0.950 . S
H1389 C1401 0.950 . S
H1390 C1398 0.950 . S
H1391 C1400 0.950 . S
H1392 C1402 0.950 . S
H1393 C1404 0.950 . S
H1394 C1406 0.950 . S
H1395 C1407 0.950 . S
C1396 H1388 0.950 . S
C1396 C1397 1.386 . S
C1396 C1398 1.391 . S
C1397 C1396 1.386 . S
C1397 C1401 1.393 . S
C1398 H1390 0.950 . S
C1398 C1396 1.391 . S
C1398 C1399 1.400 . S
C1399 C1398 1.400 . S
C1399 C1400 1.398 . S
C1399 C1405 1.491 . S
C1400 H1391 0.950 . S
C1400 C1399 1.398 . S
C1400 C1401 1.391 . S
C1401 H1389 0.950 . S
C1401 C1397 1.393 . S
C1401 C1400 1.391 . S
C1402 H1392 0.950 . S
C1402 C1403 1.386 . S
C1402 C1404 1.391 . S
C1403 C1402 1.386 . S
C1403 C1407 1.393 . S
C1404 H1393 0.950 . S
C1404 C1402 1.391 . S
C1404 C1405 1.400 . S
C1405 C1399 1.491 . S
C1405 C1404 1.400 . S
C1405 C1406 1.398 . S
C1406 H1394 0.950 . S
C1406 C1405 1.398 . S
C1406 C1407 1.391 . S
C1407 H1395 0.950 . S
C1407 C1403 1.393 . S
C1407 C1406 1.391 . S
H1408 C1416 0.950 . S
H1409 C1421 0.950 . S
H1410 C1418 0.950 . S
H1411 C1420 0.950 . S
H1412 C1422 0.950 . S
H1413 C1424 0.950 . S
H1414 C1426 0.950 . S
H1415 C1427 0.950 . S
C1416 H1408 0.950 . S
C1416 C1417 1.386 . S
C1416 C1418 1.391 . S
C1417 C1416 1.386 . S
C1417 C1421 1.393 . S
C1418 H1410 0.950 . S
C1418 C1416 1.391 . S
C1418 C1419 1.400 . S
C1419 C1418 1.400 . S
C1419 C1420 1.398 . S
C1419 C1425 1.491 . S
C1420 H1411 0.950 . S
C1420 C1419 1.398 . S
C1420 C1421 1.391 . S
C1421 H1409 0.950 . S
C1421 C1417 1.393 . S
C1421 C1420 1.391 . S
C1422 H1412 0.950 . S
C1422 C1423 1.386 . S
C1422 C1424 1.391 . S
C1423 C1422 1.386 . S
C1423 C1427 1.393 . S
C1424 H1413 0.950 . S
C1424 C1422 1.391 . S
C1424 C1425 1.400 . S
C1425 C1419 1.491 . S
C1425 C1424 1.400 . S
C1425 C1426 1.398 . S
C1426 H1414 0.950 . S
C1426 C1425 1.398 . S
C1426 C1427 1.391 . S
C1427 H1415 0.950 . S
C1427 C1423 1.393 . S
C1427 C1426 1.391 . S
H1428 C1436 0.950 . S
H1429 C1441 0.950 . S
H1430 C1438 0.950 . S
H1431 C1440 0.950 . S
H1432 C1442 0.950 . S
H1433 C1444 0.950 . S
H1434 C1446 0.950 . S
H1435 C1447 0.950 . S
C1436 H1428 0.950 . S
C1436 C1437 1.386 . S
C1436 C1438 1.391 . S
C1437 C1436 1.386 . S
C1437 C1441 1.393 . S
C1438 H1430 0.950 . S
C1438 C1436 1.391 . S
C1438 C1439 1.400 . S
C1439 C1438 1.400 . S
C1439 C1440 1.398 . S
C1439 C1445 1.491 . S
C1440 H1431 0.950 . S
C1440 C1439 1.398 . S
C1440 C1441 1.391 . S
C1441 H1429 0.950 . S
C1441 C1437 1.393 . S
C1441 C1440 1.391 . S
C1442 H1432 0.950 . S
C1442 C1443 1.386 . S
C1442 C1444 1.391 . S
C1443 C1442 1.386 . S
C1443 C1447 1.393 . S
C1444 H1433 0.950 . S
C1444 C1442 1.391 . S
C1444 C1445 1.400 . S
C1445 C1439 1.491 . S
C1445 C1444 1.400 . S
C1445 C1446 1.398 . S
C1446 H1434 0.950 . S
C1446 C1445 1.398 . S
C1446 C1447 1.391 . S
C1447 H1435 0.950 . S
C1447 C1443 1.393 . S
C1447 C1446 1.391 . S
H1448 C1456 0.950 . S
H1449 C1461 0.950 . S
H1450 C1458 0.950 . S
H1451 C1460 0.950 . S
H1452 C1462 0.950 . S
H1453 C1464 0.950 . S
H1454 C1466 0.950 . S
H1455 C1467 0.950 . S
C1456 H1448 0.950 . S
C1456 C1457 1.386 . S
C1456 C1458 1.391 . S
C1457 C1456 1.386 . S
C1457 C1461 1.393 . S
C1458 H1450 0.950 . S
C1458 C1456 1.391 . S
C1458 C1459 1.400 . S
C1459 C1458 1.400 . S
C1459 C1460 1.398 . S
C1459 C1465 1.491 . S
C1460 H1451 0.950 . S
C1460 C1459 1.398 . S
C1460 C1461 1.391 . S
C1461 H1449 0.950 . S
C1461 C1457 1.393 . S
C1461 C1460 1.391 . S
C1462 H1452 0.950 . S
C1462 C1463 1.386 . S
C1462 C1464 1.391 . S
C1463 C1462 1.386 . S
C1463 C1467 1.393 . S
C1464 H1453 0.950 . S
C1464 C1462 1.391 . S
C1464 C1465 1.400 . S
C1465 C1459 1.491 . S
C1465 C1464 1.400 . S
C1465 C1466 1.398 . S
C1466 H1454 0.950 . S
C1466 C1465 1.398 . S
C1466 C1467 1.391 . S
C1467 H1455 0.950 . S
C1467 C1463 1.393 . S
C1467 C1466 1.391 . S
H1468 C1476 0.950 . S
H1469 C1481 0.950 . S
H1470 C1478 0.950 . S
H1471 C1480 0.950 . S
H1472 C1482 0.950 . S
H1473 C1484 0.950 . S
H1474 C1486 0.950 . S
H1475 C1487 0.950 . S
C1476 H1468 0.950 . S
C1476 C1477 1.386 . S
C1476 C1478 1.391 . S
C1477 C1476 1.386 . S
C1477 C1481 1.393 . S
C1478 H1470 0.950 . S
C1478 C1476 1.391 . S
C1478 C1479 1.400 . S
C1479 C1478 1.400 . S
C1479 C1480 1.398 . S
C1479 C1485 1.491 . S
C1480 H1471 0.950 . S
C1480 C1479 1.398 . S
C1480 C1481 1.391 . S
C1481 H1469 0.950 . S
C1481 C1477 1.393 . S
C1481 C1480 1.391 . S
C1482 H1472 0.950 . S
C1482 C1483 1.386 . S
C1482 C1484 1.391 . S
C1483 C1482 1.386 . S
C1483 C1487 1.393 . S
C1484 H1473 0.950 . S
C1484 C1482 1.391 . S
C1484 C1485 1.400 . S
C1485 C1479 1.491 . S
C1485 C1484 1.400 . S
C1485 C1486 1.398 . S
C1486 H1474 0.950 . S
C1486 C1485 1.398 . S
C1486 C1487 1.391 . S
C1487 H1475 0.950 . S
C1487 C1483 1.393 . S
C1487 C1486 1.391 . S
H1488 C1496 0.950 . S
H1489 C1501 0.950 . S
H1490 C1498 0.950 . S
H1491 C1500 0.950 . S
H1492 C1502 0.950 . S
H1493 C1504 0.950 . S
H1494 C1506 0.950 . S
H1495 C1507 0.950 . S
C1496 H1488 0.950 . S
C1496 C1497 1.386 . S
C1496 C1498 1.391 . S
C1497 C1496 1.386 . S
C1497 C1501 1.393 . S
C1498 H1490 0.950 . S
C1498 C1496 1.391 . S
C1498 C1499 1.400 . S
C1499 C1498 1.400 . S
C1499 C1500 1.398 . S
C1499 C1505 1.491 . S
C1500 H1491 0.950 . S
C1500 C1499 1.398 . S
C1500 C1501 1.391 . S
C1501 H1489 0.950 . S
C1501 C1497 1.393 . S
C1501 C1500 1.391 . S
C1502 H1492 0.950 . S
C1502 C1503 1.386 . S
C1502 C1504 1.391 . S
C1503 C1502 1.386 . S
C1503 C1507 1.393 . S
C1504 H1493 0.950 . S
C1504 C1502 1.391 . S
C1504 C1505 1.400 . S
C1505 C1499 1.491 . S
C1505 C1504 1.400 . S
C1505 C1506 1.398 . S
C1506 H1494 0.950 . S
C1506 C1505 1.398 . S
C1506 C1507 1.391 . S
C1507 H1495 0.950 . S
C1507 C1503 1.393 . S
C1507 C1506 1.391 . S
H1508 C1516 0.950 . S
H1509 C1521 0.950 . S
H1510 C1518 0.950 . S
H1511 C1520 0.950 . S
H1512 C1522 0.950 . S
H1513 C1524 0.950 . S
H1514 C1526 0.950 . S
H1515 C1527 0.950 . S
C1516 H1508 0.950 . S
C1516 C1517 1.386 . S
C1516 C1518 1.391 . S
C1517 C1516 1.386 . S
C1517 C1521 1.393 . S
C1518 H1510 0.950 . S
C1518 C1516 1.391 . S
C1518 C1519 1.400 . S
C1519 C1518 1.400 . S
C1519 C1520 1.398 . S
C1519 C1525 1.491 . S
C1520 H1511 0.950 . S
C1520 C1519 1.398 . S
C1520 C1521 1.391 . S
C1521 H1509 0.950 . S
C1521 C1517 1.393 . S
C1521 C1520 1.391 . S
C1522 H1512 0.950 . S
C1522 C1523 1.386 . S
C1522 C1524 1.391 . S
C1523 C1522 1.386 . S
C1523 C1527 1.393 . S
C1524 H1513 0.950 . S
C1524 C1522 1.391 . S
C1524 C1525 1.400 . S
C1525 C1519 1.491 . S
C1525 C1524 1.400 . S
C1525 C1526 1.398 . S
C1526 H1514 0.950 . S
C1526 C1525 1.398 . S
C1526 C1527 1.391 . S
C1527 H1515 0.950 . S
C1527 C1523 1.393 . S
C1527 C1526 1.391 . S
H1528 C1536 0.950 . S
H1529 C1541 0.950 . S
H1530 C1538 0.950 . S
H1531 C1540 0.950 . S
H1532 C1542 0.950 . S
H1533 C1544 0.950 . S
H1534 C1546 0.950 . S
H1535 C1547 0.950 . S
C1536 H1528 0.950 . S
C1536 C1537 1.386 . S
C1536 C1538 1.391 . S
C1537 C1536 1.386 . S
C1537 C1541 1.393 . S
C1538 H1530 0.950 . S
C1538 C1536 1.391 . S
C1538 C1539 1.400 . S
C1539 C1538 1.400 . S
C1539 C1540 1.398 . S
C1539 C1545 1.491 . S
C1540 H1531 0.950 . S
C1540 C1539 1.398 . S
C1540 C1541 1.391 . S
C1541 H1529 0.950 . S
C1541 C1537 1.393 . S
C1541 C1540 1.391 . S
C1542 H1532 0.950 . S
C1542 C1543 1.386 . S
C1542 C1544 1.391 . S
C1543 C1542 1.386 . S
C1543 C1547 1.393 . S
C1544 H1533 0.950 . S
C1544 C1542 1.391 . S
C1544 C1545 1.400 . S
C1545 C1539 1.491 . S
C1545 C1544 1.400 . S
C1545 C1546 1.398 . S
C1546 H1534 0.950 . S
C1546 C1545 1.398 . S
C1546 C1547 1.391 . S
C1547 H1535 0.950 . S
C1547 C1543 1.393 . S
C1547 C1546 1.391 . S
H1548 C1556 0.950 . S
H1549 C1561 0.950 . S
H1550 C1558 0.950 . S
H1551 C1560 0.950 . S
H1552 C1562 0.950 . S
H1553 C1564 0.950 . S
H1554 C1566 0.950 . S
H1555 C1567 0.950 . S
C1556 H1548 0.950 . S
C1556 C1557 1.386 . S
C1556 C1558 1.391 . S
C1557 C1556 1.386 . S
C1557 C1561 1.393 . S
C1558 H1550 0.950 . S
C1558 C1556 1.391 . S
C1558 C1559 1.400 . S
C1559 C1558 1.400 . S
C1559 C1560 1.398 . S
C1559 C1565 1.491 . S
C1560 H1551 0.950 . S
C1560 C1559 1.398 . S
C1560 C1561 1.391 . S
C1561 H1549 0.950 . S
C1561 C1557 1.393 . S
C1561 C1560 1.391 . S
C1562 H1552 0.950 . S
C1562 C1563 1.386 . S
C1562 C1564 1.391 . S
C1563 C1562 1.386 . S
C1563 C1567 1.393 . S
C1564 H1553 0.950 . S
C1564 C1562 1.391 . S
C1564 C1565 1.400 . S
C1565 C1559 1.491 . S
C1565 C1564 1.400 . S
C1565 C1566 1.398 . S
C1566 H1554 0.950 . S
C1566 C1565 1.398 . S
C1566 C1567 1.391 . S
C1567 H1555 0.950 . S
C1567 C1563 1.393 . S
C1567 C1566 1.391 . S
H1568 C1576 0.950 . S
H1569 C1581 0.950 . S
H1570 C1578 0.950 . S
H1571 C1580 0.950 . S
H1572 C1582 0.950 . S
H1573 C1584 0.950 . S
H1574 C1586 0.950 . S
H1575 C1587 0.950 . S
C1576 H1568 0.950 . S
C1576 C1577 1.386 . S
C1576 C1578 1.391 . S
C1577 C1576 1.386 . S
C1577 C1581 1.393 . S
C1578 H1570 0.950 . S
C1578 C1576 1.391 . S
C1578 C1579 1.400 . S
C1579 C1578 1.400 . S
C1579 C1580 1.398 . S
C1579 C1585 1.491 . S
C1580 H1571 0.950 . S
C1580 C1579 1.398 . S
C1580 C1581 1.391 . S
C1581 H1569 0.950 . S
C1581 C1577 1.393 . S
C1581 C1580 1.391 . S
C1582 H1572 0.950 . S
C1582 C1583 1.386 . S
C1582 C1584 1.391 . S
C1583 C1582 1.386 . S
C1583 C1587 1.393 . S
C1584 H1573 0.950 . S
C1584 C1582 1.391 . S
C1584 C1585 1.400 . S
C1585 C1579 1.491 . S
C1585 C1584 1.400 . S
C1585 C1586 1.398 . S
C1586 H1574 0.950 . S
C1586 C1585 1.398 . S
C1586 C1587 1.391 . S
C1587 H1575 0.950 . S
C1587 C1583 1.393 . S
C1587 C1586 1.391 . S
H1588 C1596 0.950 . S
H1589 C1601 0.950 . S
H1590 C1598 0.950 . S
H1591 C1600 0.950 . S
H1592 C1602 0.950 . S
H1593 C1604 0.950 . S
H1594 C1606 0.950 . S
H1595 C1607 0.950 . S
C1596 H1588 0.950 . S
C1596 C1597 1.386 . S
C1596 C1598 1.391 . S
C1597 C1596 1.386 . S
C1597 C1601 1.393 . S
C1598 H1590 0.950 . S
C1598 C1596 1.391 . S
C1598 C1599 1.400 . S
C1599 C1598 1.400 . S
C1599 C1600 1.398 . S
C1599 C1605 1.491 . S
C1600 H1591 0.950 . S
C1600 C1599 1.398 . S
C1600 C1601 1.391 . S
C1601 H1589 0.950 . S
C1601 C1597 1.393 . S
C1601 C1600 1.391 . S
C1602 H1592 0.950 . S
C1602 C1603 1.386 . S
C1602 C1604 1.391 . S
C1603 C1602 1.386 . S
C1603 C1607 1.393 . S
C1604 H1593 0.950 . S
C1604 C1602 1.391 . S
C1604 C1605 1.400 . S
C1605 C1599 1.491 . S
C1605 C1604 1.400 . S
C1605 C1606 1.398 . S
C1606 H1594 0.950 . S
C1606 C1605 1.398 . S
C1606 C1607 1.391 . S
C1607 H1595 0.950 . S
C1607 C1603 1.393 . S
C1607 C1606 1.391 . S
H1608 C1616 0.950 . S
H1609 C1621 0.950 . S
H1610 C1618 0.950 . S
H1611 C1620 0.950 . S
H1612 C1622 0.950 . S
H1613 C1624 0.950 . S
H1614 C1626 0.950 . S
H1615 C1627 0.950 . S
C1616 H1608 0.950 . S
C1616 C1617 1.386 . S
C1616 C1618 1.391 . S
C1617 C1616 1.386 . S
C1617 C1621 1.393 . S
C1618 H1610 0.950 . S
C1618 C1616 1.391 . S
C1618 C1619 1.400 . S
C1619 C1618 1.400 . S
C1619 C1620 1.398 . S
C1619 C1625 1.491 . S
C1620 H1611 0.950 . S
C1620 C1619 1.398 . S
C1620 C1621 1.391 . S
C1621 H1609 0.950 . S
C1621 C1617 1.393 . S
C1621 C1620 1.391 . S
C1622 H1612 0.950 . S
C1622 C1623 1.386 . S
C1622 C1624 1.391 . S
C1623 C1622 1.386 . S
C1623 C1627 1.393 . S
C1624 H1613 0.950 . S
C1624 C1622 1.391 . S
C1624 C1625 1.400 . S
C1625 C1619 1.491 . S
C1625 C1624 1.400 . S
C1625 C1626 1.398 . S
C1626 H1614 0.950 . S
C1626 C1625 1.398 . S
C1626 C1627 1.391 . S
C1627 H1615 0.950 . S
C1627 C1623 1.393 . S
C1627 C1626 1.391 . S
H1628 C1636 0.950 . S
H1629 C1641 0.950 . S
H1630 C1638 0.950 . S
H1631 C1640 0.950 . S
H1632 C1642 0.950 . S
H1633 C1644 0.950 . S
H1634 C1646 0.950 . S
H1635 C1647 0.950 . S
C1636 H1628 0.950 . S
C1636 C1637 1.386 . S
C1636 C1638 1.391 . S
C1637 C1636 1.386 . S
C1637 C1641 1.393 . S
C1638 H1630 0.950 . S
C1638 C1636 1.391 . S
C1638 C1639 1.400 . S
C1639 C1638 1.400 . S
C1639 C1640 1.398 . S
C1639 C1645 1.491 . S
C1640 H1631 0.950 . S
C1640 C1639 1.398 . S
C1640 C1641 1.391 . S
C1641 H1629 0.950 . S
C1641 C1637 1.393 . S
C1641 C1640 1.391 . S
C1642 H1632 0.950 . S
C1642 C1643 1.386 . S
C1642 C1644 1.391 . S
C1643 C1642 1.386 . S
C1643 C1647 1.393 . S
C1644 H1633 0.950 . S
C1644 C1642 1.391 . S
C1644 C1645 1.400 . S
C1645 C1639 1.491 . S
C1645 C1644 1.400 . S
C1645 C1646 1.398 . S
C1646 H1634 0.950 . S
C1646 C1645 1.398 . S
C1646 C1647 1.391 . S
C1647 H1635 0.950 . S
C1647 C1643 1.393 . S
C1647 C1646 1.391 . S
H1648 C1656 0.950 . S
H1649 C1661 0.950 . S
H1650 C1658 0.950 . S
H1651 C1660 0.950 . S
H1652 C1662 0.950 . S
H1653 C1664 0.950 . S
H1654 C1666 0.950 . S
H1655 C1667 0.950 . S
C1656 H1648 0.950 . S
C1656 C1657 1.386 . S
C1656 C1658 1.391 . S
C1657 C1656 1.386 . S
C1657 C1661 1.393 . S
C1658 H1650 0.950 . S
C1658 C1656 1.391 . S
C1658 C1659 1.400 . S
C1659 C1658 1.400 . S
C1659 C1660 1.398 . S
C1659 C1665 1.491 . S
C1660 H1651 0.950 . S
C1660 C1659 1.398 . S
C1660 C1661 1.391 . S
C1661 H1649 0.950 . S
C1661 C1657 1.393 . S
C1661 C1660 1.391 . S
C1662 H1652 0.950 . S
C1662 C1663 1.386 . S
C1662 C1664 1.391 . S
C1663 C1662 1.386 . S
C1663 C1667 1.393 . S
C1664 H1653 0.950 . S
C1664 C1662 1.391 . S
C1664 C1665 1.400 . S
C1665 C1659 1.491 . S
C1665 C1664 1.400 . S
C1665 C1666 1.398 . S
C1666 H1654 0.950 . S
C1666 C1665 1.398 . S
C1666 C1667 1.391 . S
C1667 H1655 0.950 . S
C1667 C1663 1.393 . S
C1667 C1666 1.391 . S
H1668 C1676 0.950 . S
H1669 C1681 0.950 . S
H1670 C1678 0.950 . S
H1671 C1680 0.950 . S
H1672 C1682 0.950 . S
H1673 C1684 0.950 . S
H1674 C1686 0.950 . S
H1675 C1687 0.950 . S
C1676 H1668 0.950 . S
C1676 C1677 1.386 . S
C1676 C1678 1.391 . S
C1677 C1676 1.386 . S
C1677 C1681 1.393 . S
C1678 H1670 0.950 . S
C1678 C1676 1.391 . S
C1678 C1679 1.400 . S
C1679 C1678 1.400 . S
C1679 C1680 1.398 . S
C1679 C1685 1.491 . S
C1680 H1671 0.950 . S
C1680 C1679 1.398 . S
C1680 C1681 1.391 . S
C1681 H1669 0.950 . S
C1681 C1677 1.393 . S
C1681 C1680 1.391 . S
C1682 H1672 0.950 . S
C1682 C1683 1.386 . S
C1682 C1684 1.391 . S
C1683 C1682 1.386 . S
C1683 C1687 1.393 . S
C1684 H1673 0.950 . S
C1684 C1682 1.391 . S
C1684 C1685 1.400 . S
C1685 C1679 1.491 . S
C1685 C1684 1.400 . S
C1685 C1686 1.398 . S
C1686 H1674 0.950 . S
C1686 C1685 1.398 . S
C1686 C1687 1.391 . S
C1687 H1675 0.950 . S
C1687 C1683 1.393 . S
C1687 C1686 1.391 . S
H1688 C1696 0.950 . S
H1689 C1701 0.950 . S
H1690 C1698 0.950 . S
H1691 C1700 0.950 . S
H1692 C1702 0.950 . S
H1693 C1704 0.950 . S
H1694 C1706 0.950 . S
H1695 C1707 0.950 . S
C1696 H1688 0.950 . S
C1696 C1697 1.386 . S
C1696 C1698 1.391 . S
C1697 C1696 1.386 . S
C1697 C1701 1.393 . S
C1698 H1690 0.950 . S
C1698 C1696 1.391 . S
C1698 C1699 1.400 . S
C1699 C1698 1.400 . S
C1699 C1700 1.398 . S
C1699 C1705 1.491 . S
C1700 H1691 0.950 . S
C1700 C1699 1.398 . S
C1700 C1701 1.391 . S
C1701 H1689 0.950 . S
C1701 C1697 1.393 . S
C1701 C1700 1.391 . S
C1702 H1692 0.950 . S
C1702 C1703 1.386 . S
C1702 C1704 1.391 . S
C1703 C1702 1.386 . S
C1703 C1707 1.393 . S
C1704 H1693 0.950 . S
C1704 C1702 1.391 . S
C1704 C1705 1.400 . S
C1705 C1699 1.491 . S
C1705 C1704 1.400 . S
C1705 C1706 1.398 . S
C1706 H1694 0.950 . S
C1706 C1705 1.398 . S
C1706 C1707 1.391 . S
C1707 H1695 0.950 . S
C1707 C1703 1.393 . S
C1707 C1706 1.391 . S
H1708 C1716 0.950 . S
H1709 C1721 0.950 . S
H1710 C1718 0.950 . S
H1711 C1720 0.950 . S
H1712 C1722 0.950 . S
H1713 C1724 0.950 . S
H1714 C1726 0.950 . S
H1715 C1727 0.950 . S
C1716 H1708 0.950 . S
C1716 C1717 1.386 . S
C1716 C1718 1.391 . S
C1717 C1716 1.386 . S
C1717 C1721 1.393 . S
C1718 H1710 0.950 . S
C1718 C1716 1.391 . S
C1718 C1719 1.400 . S
C1719 C1718 1.400 . S
C1719 C1720 1.398 . S
C1719 C1725 1.491 . S
C1720 H1711 0.950 . S
C1720 C1719 1.398 . S
C1720 C1721 1.391 . S
C1721 H1709 0.950 . S
C1721 C1717 1.393 . S
C1721 C1720 1.391 . S
C1722 H1712 0.950 . S
C1722 C1723 1.386 . S
C1722 C1724 1.391 . S
C1723 C1722 1.386 . S
C1723 C1727 1.393 . S
C1724 H1713 0.950 . S
C1724 C1722 1.391 . S
C1724 C1725 1.400 . S
C1725 C1719 1.491 . S
C1725 C1724 1.400 . S
C1725 C1726 1.398 . S
C1726 H1714 0.950 . S
C1726 C1725 1.398 . S
C1726 C1727 1.391 . S
C1727 H1715 0.950 . S
C1727 C1723 1.393 . S
C1727 C1726 1.391 . S
C457 C383 1.290 . S
C463 C5 1.276 . S
C477 C19 1.276 1_655 S
C483 C117 1.291 . S
C497 C355 1.285 . S
C503 C33 1.286 . S
C517 C47 1.283 . S
C523 C145 1.286 . S
C537 C61 1.277 . S
C543 C411 1.290 . S
C557 C75 1.276 . S
C563 C201 1.290 . S
C577 C89 1.288 . S
C583 C439 1.285 . S
C597 C103 1.278 1_655 S
C603 C173 1.290 . S
C617 C275 1.334 . S
C623 C121 1.321 . S
C637 C9 1.330 . S
C643 C135 1.325 1_455 S
C657 C247 1.327 . S
C663 C149 1.322 . S
C677 C163 1.307 . S
C683 C37 1.335 . S
C697 C303 1.330 . S
C703 C177 1.309 . S
C717 C93 1.328 . S
C723 C191 1.324 . S
C737 C205 1.321 . S
C743 C331 1.334 . S
C757 C65 1.332 . S
C763 C219 1.324 1_455 S
C777 C229 1.280 . S
C783 C159 1.288 . S
C797 C243 1.278 . S
C803 C341 1.290 . S
C817 C131 1.291 . S
C823 C257 1.276 . S
C837 C369 1.285 . S
C843 C271 1.286 1_455 S
C857 C187 1.290 . S
C863 C285 1.277 . S
C877 C425 1.291 . S
C883 C299 1.276 1_455 S
C897 C215 1.287 . S
C903 C313 1.281 . S
C917 C327 1.283 . S
C923 C397 1.288 . S
C937 C51 1.333 . S
C943 C345 1.306 . S
C957 C359 1.323 . S
C963 C233 1.328 . S
C977 C373 1.315 . S
C983 C23 1.328 . S
C997 C387 1.308 1_655 S
C1003 C261 1.330 . S
C1017 C401 1.324 . S
C1023 C79 1.332 . S
C1037 C415 1.312 1_655 S
C1043 C317 1.336 . S
C1057 C429 1.316 . S
C1063 C107 1.336 . S
C1077 C443 1.318 . S
C1083 C289 1.327 . S
C1097 C347 1.509 . S
C1103 C0 1.506 . S
C1117 C14 1.503 . S
C1123 C137 1.509 . S
C1137 C375 1.510 . S
C1143 C28 1.504 . S
C1157 C42 1.499 . S
C1163 C165 1.503 . S
C1177 C403 1.515 . S
C1183 C56 1.510 . S
C1197 C70 1.497 . S
C1203 C193 1.503 . S
C1217 C431 1.502 . S
C1223 C84 1.496 . S
C1237 C98 1.502 . S
C1243 C221 1.506 . S
C1257 C123 1.507 . S
C1263 C224 1.501 . S
C1277 C151 1.515 . S
C1283 C252 1.512 . S
C1297 C179 1.504 . S
C1303 C280 1.498 . S
C1317 C207 1.514 . S
C1323 C308 1.509 . S
C1337 C238 1.507 . S
C1343 C361 1.510 . S
C1357 C389 1.515 . S
C1363 C266 1.511 . S
C1377 C417 1.509 . S
C1383 C294 1.506 . S
C1397 C322 1.496 . S
C1403 C445 1.502 . S
C1417 C11 1.403 . S
C1423 C81 1.406 . S
C1437 C25 1.404 . S
C1443 C95 1.409 . S
C1457 C39 1.409 . S
C1463 C109 1.404 . S
C1477 C67 1.408 . S
C1483 C53 1.403 . S
C1497 C112 1.555 . S
C1503 C182 1.548 . S
C1517 C126 1.548 . S
C1523 C196 1.555 . S
C1537 C140 1.555 . S
C1543 C210 1.547 . S
C1557 C154 1.549 . S
C1563 C168 1.555 . S
C1577 C235 1.404 . S
C1583 C305 1.409 . S
C1597 C319 1.409 . S
C1603 C249 1.404 . S
C1617 C263 1.406 . S
C1623 C333 1.403 . S
C1637 C277 1.404 . S
C1643 C291 1.409 . S
C1657 C406 1.552 . S
C1663 C336 1.554 . S
C1677 C350 1.549 . S
C1683 C420 1.547 . S
C1697 C434 1.546 . S
C1703 C364 1.550 . S
C1717 C378 1.549 . S
C1723 C392 1.547 . S
