# Generated by pormake.
# Topology ukt, (4)-cn, num edge types: 1
# Building blocks:
#     Node 0, Type 0, BuildingBlock: CEKHIL_clean_sbu_0, # of connection points: 4
#     Node 1, Type 0, BuildingBlock: CEKHIL_clean_sbu_0, # of connection points: 4
#     Node 2, Type 0, BuildingBlock: CEKHIL_clean_sbu_0, # of connection points: 4
#     Node 3, Type 0, BuildingBlock: CEKHIL_clean_sbu_0, # of connection points: 4
#     Node 4, Type 0, BuildingBlock: CEKHIL_clean_sbu_0, # of connection points: 4
#     Node 5, Type 0, BuildingBlock: CEKHIL_clean_sbu_0, # of connection points: 4
#     Node 6, Type 0, BuildingBlock: CEKHIL_clean_sbu_0, # of connection points: 4
#     Node 7, Type 0, BuildingBlock: CEKHIL_clean_sbu_0, # of connection points: 4
#     Node 8, Type 0, BuildingBlock: CEKHIL_clean_sbu_0, # of connection points: 4
#     Node 9, Type 0, BuildingBlock: CEKHIL_clean_sbu_0, # of connection points: 4
#     Node 10, Type 0, BuildingBlock: CEKHIL_clean_sbu_0, # of connection points: 4
#     Node 11, Type 0, BuildingBlock: CEKHIL_clean_sbu_0, # of connection points: 4
#     Node 12, Type 0, BuildingBlock: CEKHIL_clean_sbu_0, # of connection points: 4
#     Node 13, Type 0, BuildingBlock: CEKHIL_clean_sbu_0, # of connection points: 4
#     Node 14, Type 0, BuildingBlock: CEKHIL_clean_sbu_0, # of connection points: 4
#     Node 15, Type 0, BuildingBlock: CEKHIL_clean_sbu_0, # of connection points: 4
#     Edge 16, Type (0, 0), BuildingBlock: XIVTED_clean_linker_0, # of connection points: 2
#     Edge 17, Type (0, 0), BuildingBlock: XIVTED_clean_linker_0, # of connection points: 2
#     Edge 18, Type (0, 0), BuildingBlock: XIVTED_clean_linker_0, # of connection points: 2
#     Edge 19, Type (0, 0), BuildingBlock: XIVTED_clean_linker_0, # of connection points: 2
#     Edge 20, Type (0, 0), BuildingBlock: XIVTED_clean_linker_0, # of connection points: 2
#     Edge 21, Type (0, 0), BuildingBlock: XIVTED_clean_linker_0, # of connection points: 2
#     Edge 22, Type (0, 0), BuildingBlock: XIVTED_clean_linker_0, # of connection points: 2
#     Edge 23, Type (0, 0), BuildingBlock: XIVTED_clean_linker_0, # of connection points: 2
#     Edge 24, Type (0, 0), BuildingBlock: XIVTED_clean_linker_0, # of connection points: 2
#     Edge 25, Type (0, 0), BuildingBlock: XIVTED_clean_linker_0, # of connection points: 2
#     Edge 26, Type (0, 0), BuildingBlock: XIVTED_clean_linker_0, # of connection points: 2
#     Edge 27, Type (0, 0), BuildingBlock: XIVTED_clean_linker_0, # of connection points: 2
#     Edge 28, Type (0, 0), BuildingBlock: XIVTED_clean_linker_0, # of connection points: 2
#     Edge 29, Type (0, 0), BuildingBlock: XIVTED_clean_linker_0, # of connection points: 2
#     Edge 30, Type (0, 0), BuildingBlock: XIVTED_clean_linker_0, # of connection points: 2
#     Edge 31, Type (0, 0), BuildingBlock: XIVTED_clean_linker_0, # of connection points: 2
#     Edge 32, Type (0, 0), BuildingBlock: XIVTED_clean_linker_0, # of connection points: 2
#     Edge 33, Type (0, 0), BuildingBlock: XIVTED_clean_linker_0, # of connection points: 2
#     Edge 34, Type (0, 0), BuildingBlock: XIVTED_clean_linker_0, # of connection points: 2
#     Edge 35, Type (0, 0), BuildingBlock: XIVTED_clean_linker_0, # of connection points: 2
#     Edge 36, Type (0, 0), BuildingBlock: XIVTED_clean_linker_0, # of connection points: 2
#     Edge 37, Type (0, 0), BuildingBlock: XIVTED_clean_linker_0, # of connection points: 2
#     Edge 38, Type (0, 0), BuildingBlock: XIVTED_clean_linker_0, # of connection points: 2
#     Edge 39, Type (0, 0), BuildingBlock: XIVTED_clean_linker_0, # of connection points: 2
#     Edge 40, Type (0, 0), BuildingBlock: XIVTED_clean_linker_0, # of connection points: 2
#     Edge 41, Type (0, 0), BuildingBlock: XIVTED_clean_linker_0, # of connection points: 2
#     Edge 42, Type (0, 0), BuildingBlock: XIVTED_clean_linker_0, # of connection points: 2
#     Edge 43, Type (0, 0), BuildingBlock: XIVTED_clean_linker_0, # of connection points: 2
#     Edge 44, Type (0, 0), BuildingBlock: XIVTED_clean_linker_0, # of connection points: 2
#     Edge 45, Type (0, 0), BuildingBlock: XIVTED_clean_linker_0, # of connection points: 2
#     Edge 46, Type (0, 0), BuildingBlock: XIVTED_clean_linker_0, # of connection points: 2
#     Edge 47, Type (0, 0), BuildingBlock: XIVTED_clean_linker_0, # of connection points: 2
# Relax obj value: 0.283
# Max RMSD: 0.165
# Mean RMSD: 0.165
data_MOF--net-ukt--node1-CEKHIL_clean_sbu_0--edge1-XIVTED_clean_linker_0
_symmetry_space_group_name_H-M    P1
_symmetry_Int_Tables_number       1
_symmetry_cell_setting            triclinic
loop_
_symmetry_equiv_pos_as_xyz
'x, y, z'
_cell_length_a     42.02511
_cell_length_b     42.007306
_cell_length_c     34.552602
_cell_angle_alpha  89.944293
_cell_angle_beta   90.024318
_cell_angle_gamma 89.978188
loop_
_atom_site_label
_atom_site_type_symbol
_atom_site_fract_x
_atom_site_fract_y
_atom_site_fract_z
_atom_type_partial_charge
Co0 Co 0.53737 0.14574 0.08992 0.0
O1 O 0.52475 0.1028 0.10005 0.0
O2 O 0.51621 0.12897 0.04508 0.0
C3 C 0.52149 0.16666 0.14636 0.0
O4 O 0.54645 0.19014 0.06949 0.0
Co5 Co 0.58997 0.17723 0.13995 0.0
O6 O 0.5768 0.21664 0.11229 0.0
C7 C 0.60791 0.12994 0.08126 0.0
C8 C 0.51424 0.10258 0.0647 0.0
C9 C 0.56026 0.21564 0.08136 0.0
O10 O 0.57911 0.13005 0.0688 0.0
O11 O 0.61673 0.14512 0.11154 0.0
O12 O 0.50087 0.16229 0.11876 0.0
O13 O 0.54951 0.15515 0.14025 0.0
Co14 Co 0.34914 0.533 0.08764 0.0
O15 O 0.3915 0.51861 0.09786 0.0
O16 O 0.36567 0.5126 0.0422 0.0
C17 C 0.32715 0.51642 0.14313 0.0
O18 O 0.30538 0.54437 0.0668 0.0
Co19 Co 0.31897 0.58536 0.13923 0.0
O20 O 0.27946 0.57445 0.11041 0.0
C21 C 0.36775 0.60305 0.08225 0.0
C22 C 0.39184 0.50938 0.06199 0.0
C23 C 0.28028 0.55883 0.0788 0.0
O24 O 0.36659 0.57466 0.06857 0.0
O25 O 0.35249 0.61164 0.11257 0.0
O26 O 0.33096 0.49638 0.11481 0.0
O27 O 0.33968 0.54416 0.1382 0.0
Co28 Co 0.96044 0.34846 0.08341 0.0
O29 O 0.97407 0.39084 0.09533 0.0
O30 O 0.98124 0.36648 0.03899 0.0
C31 C 0.97661 0.32515 0.13854 0.0
O32 O 0.95008 0.30504 0.06081 0.0
Co33 Co 0.90797 0.31614 0.13301 0.0
O34 O 0.92012 0.27753 0.10315 0.0
C35 C 0.89017 0.36606 0.07742 0.0
C36 C 0.98389 0.39219 0.05973 0.0
C37 C 0.93604 0.27938 0.07182 0.0
O38 O 0.91871 0.36573 0.06411 0.0
O39 O 0.88156 0.34996 0.10711 0.0
O40 O 0.99698 0.33006 0.11079 0.0
O41 O 0.9488 0.33746 0.13344 0.0
Co42 Co 0.14346 0.9645 0.09516 0.0
O43 O 0.10093 0.97911 0.10357 0.0
O44 O 0.12798 0.98441 0.0487 0.0
C45 C 0.16403 0.98177 0.15116 0.0
O46 O 0.18771 0.95291 0.07622 0.0
Co47 Co 0.17259 0.91295 0.14896 0.0
O48 O 0.21271 0.92326 0.1211 0.0
C49 C 0.12555 0.89423 0.0902 0.0
C50 C 0.10144 0.98807 0.06759 0.0
C51 C 0.21256 0.93855 0.0892 0.0
O52 O 0.12653 0.92257 0.07626 0.0
O53 O 0.14022 0.88606 0.12116 0.0
O54 O 0.16107 0.00143 0.12224 0.0
O55 O 0.15164 0.95397 0.1463 0.0
Co56 Co 0.53454 0.34843 0.41275 0.0
O57 O 0.51973 0.39047 0.40136 0.0
O58 O 0.51319 0.36531 0.45739 0.0
C59 C 0.51913 0.3258 0.35708 0.0
O60 O 0.54611 0.3051 0.43475 0.0
Co61 Co 0.58782 0.31795 0.36275 0.0
O62 O 0.57696 0.27876 0.39231 0.0
C63 C 0.60419 0.36787 0.41897 0.0
C64 C 0.50989 0.39117 0.43697 0.0
C65 C 0.56095 0.27995 0.42363 0.0
O66 O 0.5757 0.36663 0.43235 0.0
O67 O 0.6132 0.35228 0.38908 0.0
O68 O 0.4986 0.32938 0.38495 0.0
O69 O 0.54663 0.33858 0.36265 0.0
Co70 Co 0.14706 0.5321 0.4098 0.0
O71 O 0.10462 0.51769 0.4008 0.0
O72 O 0.13179 0.51079 0.45538 0.0
C73 C 0.16758 0.51652 0.35309 0.0
O74 O 0.19131 0.54322 0.42901 0.0
Co75 Co 0.17557 0.58541 0.35814 0.0
O76 O 0.2159 0.57401 0.38495 0.0
C77 C 0.12839 0.602 0.41759 0.0
C78 C 0.10522 0.50769 0.43637 0.0
C79 C 0.21605 0.55783 0.4162 0.0
O80 O 0.12998 0.57339 0.43059 0.0
O81 O 0.14273 0.61109 0.3868 0.0
O82 O 0.16466 0.49601 0.38111 0.0
O83 O 0.15509 0.54412 0.35913 0.0
Co84 Co 0.96114 0.14467 0.40554 0.0
O85 O 0.97319 0.10141 0.39598 0.0
O86 O 0.98229 0.12786 0.4505 0.0
C87 C 0.97687 0.16478 0.34844 0.0
O88 O 0.9526 0.1893 0.42561 0.0
Co89 Co 0.90891 0.17685 0.35533 0.0
O90 O 0.92232 0.21614 0.38298 0.0
C91 C 0.8905 0.12996 0.41453 0.0
C92 C 0.98371 0.10123 0.43133 0.0
C93 C 0.9389 0.21493 0.41387 0.0
O94 O 0.9193 0.12967 0.42703 0.0
O95 O 0.8819 0.14519 0.38413 0.0
O96 O -0.00237 0.16068 0.37597 0.0
O97 O 0.94879 0.15378 0.35521 0.0
Co98 Co 0.35096 0.9608 0.40973 0.0
O99 O 0.39327 0.97504 0.39877 0.0
O100 O 0.36835 0.98067 0.45505 0.0
C101 C 0.32804 0.97821 0.3551 0.0
O102 O 0.3074 0.94963 0.43136 0.0
Co103 Co 0.31964 0.90916 0.35815 0.0
O104 O 0.28066 0.92005 0.38799 0.0
C105 C 0.3688 0.8904 0.41414 0.0
C106 C 0.39415 0.98413 0.43467 0.0
C107 C 0.28202 0.93545 0.41973 0.0
O108 O 0.36834 0.91879 0.42789 0.0
O109 O 0.35298 0.88215 0.38409 0.0
O110 O 0.33267 -0.00213 0.38363 0.0
O111 O 0.34048 0.9503 0.35914 0.0
Co112 Co 0.45772 0.85184 0.90766 0.0
O113 O 0.47097 0.89454 0.89728 0.0
O114 O 0.47904 0.86848 0.95244 0.0
C115 C 0.47338 0.83034 0.85148 0.0
O116 O 0.44797 0.80767 0.92835 0.0
Co117 Co 0.40469 0.82096 0.85773 0.0
O118 O 0.41755 0.78143 0.88537 0.0
C119 C 0.38738 0.86868 0.91618 0.0
C120 C 0.48143 0.89476 0.93266 0.0
C121 C 0.434 0.78229 0.91638 0.0
O122 O 0.41619 0.86822 0.9286 0.0
O123 O 0.37833 0.85349 0.88599 0.0
O124 O 0.49401 0.83462 0.87908 0.0
O125 O 0.44552 0.84234 0.85736 0.0
Co126 Co 0.64338 0.46358 0.90504 0.0
O127 O 0.60102 0.4784 0.89623 0.0
O128 O 0.62819 0.48447 0.95092 0.0
C129 C 0.66416 0.47955 0.84861 0.0
O130 O 0.68757 0.45189 0.92414 0.0
Co131 Co 0.67152 0.41057 0.8527 0.0
O132 O 0.71196 0.42155 0.8795 0.0
C133 C 0.62429 0.39372 0.91197 0.0
C134 C 0.60162 0.48791 0.93196 0.0
C135 C 0.71223 0.43733 0.91102 0.0
O136 O 0.626 0.42222 0.92521 0.0
O137 O 0.63864 0.38476 0.88115 0.0
O138 O 0.66131 0.49981 0.87688 0.0
O139 O 0.65137 0.45202 0.85423 0.0
Co140 Co 0.03296 0.64853 0.91068 0.0
O141 O 0.01719 0.60656 0.90089 0.0
O142 O 0.01563 0.63119 0.9577 0.0
C143 C 0.01262 0.67222 0.85827 0.0
O144 O 0.04616 0.69171 0.93143 0.0
Co145 Co 0.08206 0.67889 0.85531 0.0
O146 O 0.07278 0.71829 0.88521 0.0
C147 C 0.10338 0.62989 0.91011 0.0
C148 C 0.0105 0.60552 0.93756 0.0
C149 C 0.05938 0.7171 0.91828 0.0
O150 O 0.07542 0.63013 0.925 0.0
O151 O 0.11071 0.64613 0.88001 0.0
O152 O 0.99496 0.66804 0.88875 0.0
O153 O 0.0404 0.65905 0.85895 0.0
Co154 Co 0.85166 0.03235 0.9024 0.0
O155 O 0.89381 0.0165 0.89418 0.0
O156 O 0.86809 0.01602 0.95035 0.0
C157 C 0.82914 0.01088 0.85006 0.0
O158 O 0.8081 0.04587 0.92168 0.0
Co159 Co 0.82205 0.08031 0.84503 0.0
O160 O 0.78224 0.07221 0.87462 0.0
C161 C 0.86999 0.10285 0.90037 0.0
C162 C 0.89412 0.01054 0.93107 0.0
C163 C 0.78298 0.05924 0.90798 0.0
O164 O 0.86966 0.07511 0.91589 0.0
O165 O 0.85414 0.10966 0.86979 0.0
O166 O 0.83281 0.99387 0.8812 0.0
O167 O 0.8421 0.03879 0.85022 0.0
Co168 Co 0.46339 0.64417 0.5913 0.0
O169 O 0.4777 0.60178 0.60135 0.0
O170 O 0.48391 0.62773 0.54578 0.0
C171 C 0.47977 0.6659 0.64706 0.0
O172 O 0.45218 0.68812 0.57089 0.0
Co173 Co 0.41095 0.67402 0.64313 0.0
O174 O 0.42233 0.71376 0.61498 0.0
C175 C 0.39331 0.62581 0.58542 0.0
C176 C 0.48708 0.60151 0.56555 0.0
C177 C 0.43797 0.71321 0.58336 0.0
O178 O 0.42174 0.62692 0.57188 0.0
O179 O 0.3847 0.64083 0.61591 0.0
O180 O 0.49992 0.66225 0.6188 0.0
O181 O 0.45211 0.65333 0.64188 0.0
Co182 Co 0.85276 0.46116 0.59108 0.0
O183 O 0.89519 0.4752 0.60134 0.0
O184 O 0.8692 0.48202 0.54589 0.0
C185 C 0.8306 0.47723 0.64661 0.0
O186 O 0.80881 0.45041 0.57049 0.0
Co187 Co 0.82304 0.40801 0.64174 0.0
O188 O 0.78326 0.41993 0.61406 0.0
C189 C 0.87123 0.39102 0.58394 0.0
C190 C 0.89542 0.4849 0.56564 0.0
C191 C 0.78371 0.43614 0.58283 0.0
O192 O 0.86998 0.41968 0.57108 0.0
O193 O 0.85618 0.38188 0.61419 0.0
O194 O 0.83487 0.49757 0.61866 0.0
O195 O 0.84324 0.44951 0.64158 0.0
Co196 Co 0.03347 0.84938 0.59132 0.0
O197 O 0.01841 0.89184 0.59984 0.0
O198 O 0.01505 0.86554 0.54427 0.0
C199 C 0.01426 0.82749 0.64554 0.0
O200 O 0.04566 0.80546 0.57191 0.0
Co201 Co 0.08367 0.81993 0.64601 0.0
O202 O 0.0739 0.77992 0.61759 0.0
C203 C 0.104 0.86727 0.58859 0.0
C204 C 0.01071 0.89184 0.56343 0.0
C205 C 0.05943 0.78037 0.58516 0.0
O206 O 0.07573 0.86682 0.57459 0.0
O207 O 0.11188 0.85187 0.61913 0.0
O208 O 0.99587 0.83109 0.61556 0.0
O209 O 0.04218 0.84024 0.64318 0.0
Co210 Co 0.64629 0.03267 0.59314 0.0
O211 O 0.60431 0.01662 0.60174 0.0
O212 O 0.62958 0.01645 0.54526 0.0
C213 C 0.66921 0.01102 0.64517 0.0
O214 O 0.68966 0.04643 0.57359 0.0
Co215 Co 0.67593 0.08048 0.65055 0.0
O216 O 0.71565 0.07237 0.62082 0.0
C217 C 0.62792 0.10319 0.59533 0.0
C218 C 0.60376 0.01072 0.56486 0.0
C219 C 0.71482 0.05967 0.58734 0.0
O220 O 0.62806 0.07542 0.57995 0.0
O221 O 0.64394 0.10998 0.62577 0.0
O222 O 0.66543 0.99415 0.61397 0.0
O223 O 0.65611 0.03888 0.64527 0.0
H224 H 0.54771 0.21834 0.00368 0.0
H225 H 0.59964 0.40054 0.98485 0.0
H226 H 0.57296 0.27745 0.10114 0.0
H227 H 0.60881 0.33232 0.892 0.0
H228 H 0.57621 0.35914 0.02539 0.0
H229 H 0.55621 0.26382 0.96062 0.0
C230 C 0.55443 0.24102 0.01614 0.0
C231 C 0.56006 0.24401 0.05604 0.0
C232 C 0.58309 0.35337 0.99601 0.0
C233 C 0.56977 0.29596 0.00693 0.0
C234 C 0.59642 0.37698 0.97275 0.0
C235 C 0.60672 0.36979 0.93506 0.0
C236 C 0.57971 0.32242 0.98143 0.0
C237 C 0.60164 0.33885 0.92101 0.0
C238 C 0.55945 0.26687 0.99149 0.0
C239 C 0.56879 0.27397 0.07051 0.0
N240 N 0.58867 0.31623 0.94431 0.0
N241 N 0.57358 0.29875 0.04593 0.0
H242 H 0.16589 0.62019 0.88887 0.0
H243 H 0.21818 0.56881 0.09893 0.0
H244 H 0.09818 0.59859 0.97924 0.0
H245 H 0.27886 0.5536 -9e-05 0.0
H246 H 0.17372 0.57956 0.05522 0.0
H247 H 0.20784 0.59574 0.92821 0.0
C248 C 0.15974 0.61004 0.9167 0.0
C249 C 0.12849 0.61189 0.9309 0.0
C250 C 0.19665 0.57341 0.04303 0.0
C251 C 0.17637 0.58421 0.97609 0.0
C252 C 0.22203 0.56734 0.06798 0.0
C253 C 0.25227 0.56052 0.05302 0.0
C254 C 0.20171 0.57338 0.00284 0.0
C255 C 0.2559 0.55874 0.01266 0.0
C256 C 0.18368 0.59601 0.93908 0.0
C257 C 0.12193 0.59809 0.96714 0.0
N258 N 0.23103 0.5657 0.98892 0.0
N259 N 0.14573 0.58528 0.98866 0.0
H260 H 0.87717 0.16601 0.88005 0.0
H261 H 0.92883 0.21659 0.09034 0.0
H262 H 0.90287 0.09775 0.96836 0.0
H263 H 0.94056 0.27977 0.99284 0.0
H264 H 0.91956 0.17256 0.0456 0.0
H265 H 0.90058 0.20827 0.91978 0.0
C266 C 0.88803 0.1598 0.90747 0.0
C267 C 0.88756 0.12829 0.92105 0.0
C268 C 0.92463 0.19596 0.03394 0.0
C269 C 0.91404 0.1765 0.96667 0.0
C270 C 0.92986 0.22109 0.05948 0.0
C271 C 0.93527 0.25187 0.04526 0.0
C272 C 0.92407 0.20179 0.9939 0.0
C273 C 0.93651 0.25636 0.00499 0.0
C274 C 0.90144 0.18393 0.93008 0.0
C275 C 0.90222 0.1217 0.95678 0.0
N276 N 0.93037 0.23168 0.98066 0.0
N277 N 0.9144 0.14563 0.97853 0.0
H278 H 0.32623 0.88458 0.89578 0.0
H279 H 0.2736 0.92322 0.11006 0.0
H280 H 0.39356 0.89177 0.98986 0.0
H281 H 0.21619 0.94863 0.01107 0.0
H282 H 0.31818 0.91223 0.06665 0.0
H283 H 0.28555 0.90834 0.93728 0.0
C284 C 0.33255 0.89137 0.92502 0.0
C285 C 0.36329 0.88585 0.93943 0.0
C286 C 0.29596 0.92065 0.05449 0.0
C287 C 0.31679 0.91281 0.98713 0.0
C288 C 0.27049 0.92688 0.07925 0.0
C289 C 0.24103 0.93657 0.06415 0.0
C290 C 0.29177 0.92357 0.01432 0.0
C291 C 0.23844 0.94114 0.02399 0.0
C292 C 0.30935 0.90506 0.94864 0.0
C293 C 0.37015 0.8954 0.97751 0.0
N294 N 0.26332 0.93409 0.0004 0.0
N295 N 0.34697 0.908 0.00019 0.0
H296 H 0.57014 0.21745 0.40493 0.0
H297 H 0.62095 0.1664 0.61544 0.0
H298 H 0.55615 0.27989 0.50256 0.0
H299 H 0.59515 0.09819 0.52728 0.0
H300 H 0.59779 0.20875 0.57546 0.0
H301 H 0.57999 0.17341 0.44963 0.0
C302 C 0.56877 0.22178 0.43579 0.0
C303 C 0.56247 0.25235 0.45007 0.0
C304 C 0.59686 0.1844 0.56526 0.0
C305 C 0.57431 0.20228 0.50137 0.0
C306 C 0.61011 0.16023 0.58801 0.0
C307 C 0.61045 0.12869 0.57456 0.0
C308 C 0.58431 0.17699 0.52866 0.0
C309 C 0.59587 0.12215 0.53879 0.0
C310 C 0.57431 0.19665 0.4613 0.0
C311 C 0.56084 0.25664 0.49035 0.0
N312 N 0.58385 0.14612 0.51689 0.0
N313 N 0.56729 0.23198 0.51466 0.0
H314 H 0.33248 0.61005 0.6073 0.0
H315 H 0.27707 0.57183 0.39436 0.0
H316 H 0.39867 0.60152 0.51223 0.0
H317 H 0.22037 0.54715 0.49413 0.0
H318 H 0.32239 0.58165 0.43704 0.0
H319 H 0.29122 0.58612 0.56681 0.0
C320 C 0.33844 0.6029 0.57807 0.0
C321 C 0.36901 0.60819 0.56303 0.0
C322 C 0.30016 0.57362 0.44954 0.0
C323 C 0.32184 0.58105 0.51652 0.0
C324 C 0.27428 0.56808 0.42519 0.0
C325 C 0.24482 0.55897 0.44075 0.0
C326 C 0.29638 0.57064 0.48976 0.0
C327 C 0.24262 0.55422 0.4809 0.0
C328 C 0.3149 0.58912 0.55504 0.0
C329 C 0.37541 0.59815 0.52503 0.0
N330 N 0.26792 0.56064 0.50411 0.0
N331 N 0.3519 0.5855 0.50291 0.0
H332 H 0.89785 0.39874 0.51221 0.0
H333 H 0.95038 0.21682 0.49182 0.0
H334 H 0.88577 0.32912 0.60317 0.0
H335 H 0.92675 0.27704 0.39463 0.0
H336 H 0.94089 0.26175 0.53535 0.0
H337 H 0.92228 0.35788 0.47183 0.0
C338 C 0.90061 0.37497 0.52394 0.0
C339 C 0.88921 0.36726 0.56103 0.0
C340 C 0.93825 0.26516 0.50444 0.0
C341 C 0.91743 0.3205 0.51483 0.0
C342 C 0.94386 0.23964 0.47953 0.0
C343 C 0.93894 0.24309 0.43953 0.0
C344 C 0.92808 0.29441 0.48919 0.0
C345 C 0.9304 0.27321 0.4253 0.0
C346 C 0.91454 0.35168 0.50077 0.0
C347 C 0.89378 0.33607 0.57462 0.0
N348 N 0.92504 0.29767 0.45014 0.0
N349 N 0.90737 0.31376 0.55141 0.0
H350 H 0.0978 0.89584 0.51781 0.0
H351 H 0.28112 0.94307 0.49843 0.0
H352 H 0.16661 0.87838 0.60837 0.0
H353 H 0.21988 0.92376 0.4009 0.0
H354 H 0.2364 0.93249 0.54206 0.0
H355 H 0.1397 0.91916 0.47824 0.0
C356 C 0.12164 0.89717 0.52965 0.0
C357 C 0.12872 0.88464 0.56641 0.0
C358 C 0.23275 0.93096 0.51109 0.0
C359 C 0.17679 0.91158 0.521 0.0
C360 C 0.25815 0.93719 0.48615 0.0
C361 C 0.25428 0.93397 0.44596 0.0
C362 C 0.20322 0.92194 0.49567 0.0
C363 C 0.22401 0.92616 0.43169 0.0
C364 C 0.14555 0.91046 0.5069 0.0
C365 C 0.16009 0.88737 0.58009 0.0
N366 N 0.19967 0.92029 0.45654 0.0
N367 N 0.18304 0.90041 0.55727 0.0
H368 H 0.44483 0.7796 0.99442 0.0
H369 H 0.39508 0.59668 0.01076 0.0
H370 H 0.4224 0.72044 0.896 0.0
H371 H 0.38163 0.66465 0.10313 0.0
H372 H 0.41918 0.63849 0.97149 0.0
H373 H 0.4359 0.73391 0.03707 0.0
C374 C 0.43865 0.75687 0.98169 0.0
C375 C 0.43393 0.75389 0.94162 0.0
C376 C 0.41122 0.64411 0.0005 0.0
C377 C 0.42378 0.70173 0.99021 0.0
C378 C 0.39749 0.62028 0.02304 0.0
C379 C 0.38577 0.62727 0.06016 0.0
C380 C 0.41356 0.6751 0.01525 0.0
C381 C 0.38989 0.65826 0.0745 0.0
C382 C 0.43339 0.73091 0.00608 0.0
C383 C 0.42586 0.72389 0.92677 0.0
N384 N 0.40327 0.68112 0.0519 0.0
N385 N 0.42085 0.69899 0.9511 0.0
H386 H 0.77326 0.4241 0.88853 0.0
H387 H 0.82926 0.38085 0.09985 0.0
H388 H 0.71669 0.44624 0.98924 0.0
H389 H 0.89534 0.39228 0.00512 0.0
H390 H 0.78781 0.40558 0.06031 0.0
H391 H 0.81873 0.41346 0.93073 0.0
C392 C 0.77053 0.42712 0.91949 0.0
C393 C 0.74107 0.43575 0.93542 0.0
C394 C 0.81151 0.40305 0.04841 0.0
C395 C 0.7928 0.42314 0.98387 0.0
C396 C 0.83516 0.38881 0.0709 0.0
C397 C 0.86575 0.3841 0.05566 0.0
C398 C 0.81836 0.41218 0.0102 0.0
C399 C 0.87206 0.39518 0.01804 0.0
C400 C 0.7965 0.42112 0.94355 0.0
C401 C 0.73894 0.43957 0.97572 0.0
N402 N 0.84845 0.40827 0.99641 0.0
N403 N 0.76432 0.43269 0.99863 0.0
H404 H 0.07111 0.77897 0.89778 0.0
H405 H 0.11225 0.83258 0.11142 0.0
H406 H 0.05313 0.71914 0.99707 0.0
H407 H 0.10041 0.89938 0.01734 0.0
H408 H 0.08971 0.7908 0.07058 0.0
H409 H 0.081 0.82372 0.94127 0.0
C410 C 0.06896 0.77532 0.92871 0.0
C411 C 0.06161 0.74521 0.94383 0.0
C412 C 0.0917 0.81471 0.05909 0.0
C413 C 0.07323 0.7962 0.99375 0.0
C414 C 0.10465 0.83857 0.08235 0.0
C415 C 0.10863 0.86949 0.06769 0.0
C416 C 0.08307 0.82172 0.02073 0.0
C417 C 0.09808 0.87587 0.02986 0.0
C418 C 0.0745 0.8009 0.95352 0.0
C419 C 0.05882 0.74192 0.98415 0.0
N420 N 0.0862 0.85209 0.00754 0.0
N421 N 0.06511 0.767 0.00775 0.0
H422 H 0.66936 0.11518 0.10155 0.0
H423 H 0.72172 0.07404 0.88731 0.0
H424 H 0.60203 0.10659 0.00763 0.0
H425 H 0.78019 0.05219 0.98665 0.0
H426 H 0.67733 0.0857 0.93076 0.0
H427 H 0.71035 0.09196 0.0601 0.0
C428 C 0.66311 0.10821 0.07234 0.0
C429 C 0.63226 0.11316 0.05798 0.0
C430 C 0.69977 0.07797 0.94301 0.0
C431 C 0.67914 0.08681 0.01032 0.0
C432 C 0.72514 0.07139 0.91822 0.0
C433 C 0.75482 0.06242 0.93336 0.0
C434 C 0.70426 0.0761 0.98323 0.0
C435 C 0.75778 0.05911 0.97367 0.0
C436 C 0.6865 0.09484 0.04874 0.0
C437 C 0.62551 0.10339 0.01995 0.0
N438 N 0.73296 0.0664 0.99723 0.0
N439 N 0.64886 0.09107 0.99729 0.0
H440 H 0.42641 0.77489 0.6044 0.0
H441 H 0.38198 0.82881 0.39249 0.0
H442 H 0.44579 0.71603 0.50482 0.0
H443 H 0.39607 0.89576 0.48577 0.0
H444 H 0.40614 0.78722 0.43246 0.0
H445 H 0.41626 0.81986 0.56122 0.0
C446 C 0.42892 0.77155 0.57347 0.0
C447 C 0.43666 0.74162 0.55816 0.0
C448 C 0.40431 0.81114 0.44392 0.0
C449 C 0.42459 0.7928 0.50859 0.0
C450 C 0.39041 0.83487 0.42117 0.0
C451 C 0.38659 0.86577 0.43592 0.0
C452 C 0.414 0.81824 0.48185 0.0
C453 C 0.39824 0.87225 0.47322 0.0
C454 C 0.4232 0.79723 0.54883 0.0
C455 C 0.43984 0.73868 0.51786 0.0
N456 N 0.41098 0.8486 0.49508 0.0
N457 N 0.43325 0.76383 0.49439 0.0
H458 H 0.78009 0.44723 0.50487 0.0
H459 H 0.5979 0.39445 0.49092 0.0
H460 H 0.7223 0.42339 0.60404 0.0
H461 H 0.66511 0.38342 0.39728 0.0
H462 H 0.63963 0.41904 0.52989 0.0
H463 H 0.73409 0.43794 0.4629 0.0
C464 C 0.7576 0.44063 0.51791 0.0
C465 C 0.75511 0.43563 0.55798 0.0
C466 C 0.64509 0.41152 0.50066 0.0
C467 C 0.70258 0.42508 0.51016 0.0
C468 C 0.6213 0.39753 0.47831 0.0
C469 C 0.62814 0.38633 0.44092 0.0
C470 C 0.67586 0.41464 0.48544 0.0
C471 C 0.65887 0.39125 0.42613 0.0
C472 C 0.73146 0.43518 0.4939 0.0
C473 C 0.72538 0.42706 0.57325 0.0
N474 N 0.68168 0.40486 0.44855 0.0
N475 N 0.70031 0.42186 0.54928 0.0
H476 H 0.10541 0.59561 0.49137 0.0
H477 H 0.04823 0.7765 0.50722 0.0
H478 H 0.11151 0.66289 0.39701 0.0
H479 H 0.07521 0.71935 0.60589 0.0
H480 H 0.05864 0.73098 0.46505 0.0
H481 H 0.08178 0.63703 0.53172 0.0
C482 C 0.10149 0.61897 0.47893 0.0
C483 C 0.11093 0.62589 0.44082 0.0
C484 C 0.06193 0.72837 0.49598 0.0
C485 C 0.0837 0.67327 0.48694 0.0
C486 C 0.05585 0.75427 0.52013 0.0
C487 C 0.06127 0.75187 0.56015 0.0
C488 C 0.07315 0.69979 0.51199 0.0
C489 C 0.07113 0.72241 0.57517 0.0
C490 C 0.08806 0.64259 0.50207 0.0
C491 C 0.10501 0.65657 0.42634 0.0
N492 N 0.07693 0.69755 0.55105 0.0
N493 N 0.09192 0.67919 0.44949 0.0
H494 H 0.77624 0.07348 0.60811 0.0
H495 H 0.8287 0.1168 0.39443 0.0
H496 H 0.71728 0.05395 0.50854 0.0
H497 H 0.89615 0.10582 0.48788 0.0
H498 H 0.78741 0.09393 0.43571 0.0
H499 H 0.82066 0.0853 0.56474 0.0
C500 C 0.77272 0.07138 0.57716 0.0
C501 C 0.74292 0.063 0.56193 0.0
C502 C 0.81135 0.09621 0.447 0.0
C503 C 0.79349 0.07684 0.5122 0.0
C504 C 0.83491 0.10938 0.42349 0.0
C505 C 0.8659 0.11353 0.43778 0.0
C506 C 0.81869 0.08755 0.48524 0.0
C507 C 0.87258 0.10324 0.47564 0.0
C508 C 0.7981 0.07805 0.55243 0.0
C509 C 0.7398 0.06039 0.52158 0.0
N510 N 0.84907 0.09109 0.4982 0.0
N511 N 0.76465 0.06773 0.49809 0.0
H512 H 0.48921 0.95256 0.89812 0.0
H513 H 0.50679 0.04469 0.09909 0.0
H514 H 0.49367 0.90556 0.00919 0.0
H515 H 0.50243 0.09175 0.98806 0.0
H516 H 0.50085 0.99351 0.06671 0.0
H517 H 0.49547 0.00374 0.93044 0.0
C518 C 0.49196 0.95299 0.92929 0.0
C519 C 0.49078 0.92484 0.95108 0.0
C520 C 0.50099 0.01503 0.04943 0.0
C521 C 0.49734 0.98329 0.98825 0.0
C522 C 0.50414 0.04427 0.06791 0.0
C523 C 0.50522 0.07245 0.04616 0.0
C524 C 0.49901 0.01399 0.00891 0.0
C525 C 0.50167 0.07057 0.0059 0.0
C526 C 0.4953 0.98223 0.94774 0.0
C527 C 0.49447 0.92673 0.99132 0.0
N528 N 0.49895 0.04175 0.9885 0.0
N529 N 0.49735 0.95554 0.00868 0.0
H530 H 0.40254 0.49935 0.98502 0.0
H531 H 0.59176 0.4964 0.00952 0.0
H532 H 0.4501 0.50262 0.09575 0.0
H533 H 0.54356 0.49758 0.89914 0.0
H534 H 0.54019 0.4997 0.04194 0.0
H535 H 0.45427 0.49659 0.95317 0.0
C536 C 0.42385 0.4989 0.00266 0.0
C537 C 0.42209 0.50135 0.04303 0.0
C538 C 0.54094 0.49953 0.01062 0.0
C539 C 0.48127 0.49893 0.00685 0.0
C540 C 0.57038 0.49799 0.99212 0.0
C541 C 0.57186 0.49654 0.95163 0.0
C542 C 0.51294 0.49954 0.98838 0.0
C543 C 0.54345 0.49846 0.93045 0.0
C544 C 0.45339 0.49768 0.98446 0.0
C545 C 0.45043 0.50086 0.0645 0.0
N546 N 0.51512 0.4996 0.9491 0.0
N547 N 0.47891 0.49992 0.0461 0.0
H548 H 0.00287 0.5934 0.01487 0.0
H549 H 0.99621 0.40479 0.98359 0.0
H550 H 0.00137 0.54807 0.90278 0.0
H551 H 0.99 0.44966 0.0957 0.0
H552 H 0.00122 0.45725 0.95378 0.0
H553 H -0.00138 0.54104 0.04538 0.0
C554 C 0.00114 0.57248 0.99668 0.0
C555 C 0.00254 0.57504 0.95626 0.0
C556 C -0.00103 0.45562 0.98493 0.0
C557 C -0.00163 0.51516 0.99088 0.0
C558 C 0.99643 0.42565 0.00199 0.0
C559 C 0.99256 0.42291 0.04214 0.0
C560 C -0.00235 0.48298 0.00823 0.0
C561 C 0.99284 0.45072 0.06459 0.0
C562 C -0.00101 0.54259 0.0141 0.0
C563 C 0.00041 0.54718 0.93407 0.0
N564 N 0.99512 0.47965 0.04729 0.0
N565 N -0.00135 0.51837 0.95169 0.0
H566 H 0.04396 0.00081 0.10047 0.0
H567 H 0.95184 -0.00155 0.89821 0.0
H568 H 0.09104 0.99364 0.98979 0.0
H569 H 0.90505 0.00721 0.00892 0.0
H570 H 0.00303 0.99561 0.9313 0.0
H571 H 0.99293 0.00489 0.06725 0.0
C572 C 0.04358 0.0006 0.06912 0.0
C573 C 0.0717 0.99673 0.04781 0.0
C574 C 0.98156 -0.00204 0.94838 0.0
C575 C 0.01339 0.00071 0.00967 0.0
C576 C 0.9523 -0.00069 0.92954 0.0
C577 C 0.9242 0.00315 0.95089 0.0
C578 C 0.98268 0.00055 0.98885 0.0
C579 C 0.92616 0.00419 0.99137 0.0
C580 C 0.01443 0.00268 0.05019 0.0
C581 C 0.06989 0.99664 0.0073 0.0
N582 N 0.95498 0.00311 0.00905 0.0
N583 N 0.04114 -0.00172 0.98951 0.0
H584 H 0.49827 0.54446 0.60038 0.0
H585 H 0.49985 0.44816 0.4012 0.0
H586 H 0.49319 0.58945 0.48815 0.0
H587 H 0.50141 0.4036 0.51384 0.0
H588 H 0.49625 0.50013 0.43233 0.0
H589 H 0.50132 0.49269 0.56887 0.0
C590 C 0.4983 0.54346 0.56905 0.0
C591 C 0.49535 0.57123 0.5468 0.0
C592 C 0.49711 0.47898 0.45024 0.0
C593 C 0.49814 0.51206 0.51059 0.0
C594 C 0.49889 0.44929 0.4325 0.0
C595 C 0.50109 0.42158 0.45502 0.0
C596 C 0.4977 0.48092 0.49077 0.0
C597 C 0.49974 0.42438 0.4954 0.0
C598 C 0.49976 0.51387 0.55109 0.0
C599 C 0.49553 0.5686 0.50636 0.0
N600 N 0.49843 0.4536 0.51202 0.0
N601 N 0.49661 0.53944 0.48951 0.0
H602 H 0.09524 0.49877 0.51381 0.0
H603 H 0.90613 0.49493 0.48866 0.0
H604 H 0.04733 0.49782 0.40323 0.0
H605 H 0.95353 0.49214 0.59953 0.0
H606 H 0.95789 0.49794 0.45692 0.0
H607 H 0.04361 0.49511 0.54601 0.0
C608 C 0.0739 0.49715 0.49632 0.0
C609 C 0.07547 0.4988 0.45585 0.0
C610 C 0.95696 0.49691 0.48822 0.0
C611 C 0.0165 0.49539 0.49234 0.0
C612 C 0.92741 0.49555 0.50635 0.0
C613 C 0.92561 0.49314 0.54673 0.0
C614 C 0.98481 0.49585 0.51069 0.0
C615 C 0.9539 0.49385 0.56827 0.0
C616 C 0.04444 0.49542 0.51469 0.0
C617 C 0.04714 0.49682 0.43454 0.0
N618 N 0.9824 0.49491 0.54994 0.0
N619 N 0.01877 0.49548 0.45307 0.0
H620 H 0.00072 0.90152 0.48604 0.0
H621 H 0.99671 0.09114 0.50792 0.0
H622 H 0.00312 0.9505 0.59581 0.0
H623 H 0.98812 0.0424 0.39846 0.0
H624 H 0.00146 0.03969 0.54039 0.0
H625 H 0.99591 0.95286 0.45321 0.0
C626 C -0.00027 0.92303 0.50326 0.0
C627 C 0.00241 0.92179 0.54368 0.0
C628 C -0.00126 0.04026 0.50923 0.0
C629 C 0.99759 0.98053 0.50636 0.0
C630 C 0.99634 0.06964 0.49065 0.0
C631 C 0.99194 0.071 0.45047 0.0
C632 C 0.99673 0.01211 0.48742 0.0
C633 C 0.99142 0.0424 0.42953 0.0
C634 C 0.99725 0.95234 0.4845 0.0
C635 C 0.00118 0.95038 0.56457 0.0
N636 N 0.9936 0.0141 0.44829 0.0
N637 N -0.00092 0.97861 0.54564 0.0
H638 H 0.54681 0.99755 0.5988 0.0
H639 H 0.45119 0.99425 0.39908 0.0
H640 H 0.59187 0.00725 0.48712 0.0
H641 H 0.40642 0.99281 0.51152 0.0
H642 H 0.50298 -0.00068 0.43045 0.0
H643 H 0.49531 0.99346 0.56683 0.0
C644 C 0.54591 -0.00162 0.56748 0.0
C645 C 0.57361 0.00283 0.54554 0.0
C646 C 0.48181 -0.00184 0.44825 0.0
C647 C 0.5147 -0.00125 0.50882 0.0
C648 C 0.45223 0.99549 0.43037 0.0
C649 C 0.42453 0.99297 0.4528 0.0
C650 C 0.48365 -0.00189 0.4888 0.0
C651 C 0.4272 0.99469 0.49316 0.0
C652 C 0.51646 0.99632 0.54926 0.0
C653 C 0.57107 0.00377 0.5051 0.0
N654 N 0.45632 0.99688 0.50991 0.0
N655 N 0.54203 0.00194 0.48799 0.0
H656 H 0.55848 0.31777 0.29622 0.0
H657 H 0.4661 0.19811 0.16614 0.0
H658 H 0.46789 0.2865 0.34142 0.0
H659 H 0.56356 0.18362 0.20183 0.0
H660 H 0.4603 0.23833 0.21785 0.0
H661 H 0.55427 0.27841 0.24505 0.0
C662 C 0.53751 0.30281 0.29521 0.0
C663 C 0.51377 0.30494 0.32353 0.0
C664 C 0.48269 0.22589 0.21431 0.0
C665 C 0.50887 0.26007 0.26479 0.0
C666 C 0.48607 0.20312 0.18499 0.0
C667 C 0.51551 0.1879 0.17941 0.0
C668 C 0.50915 0.2336 0.23716 0.0
C669 C 0.5406 0.19504 0.20464 0.0
C670 C 0.53519 0.28039 0.26602 0.0
C671 C 0.48684 0.28529 0.32026 0.0
N672 N 0.53698 0.21774 0.23198 0.0
N673 N 0.48513 0.26327 0.29136 0.0
H674 H 0.17808 0.55735 0.29401 0.0
H675 H 0.29202 0.46249 0.15957 0.0
H676 H 0.2038 0.46366 0.33519 0.0
H677 H 0.31329 0.55703 0.2013 0.0
H678 H 0.25136 0.45738 0.2109 0.0
H679 H 0.21745 0.55242 0.24289 0.0
C680 C 0.19177 0.53555 0.29209 0.0
C681 C 0.18814 0.5111 0.3193 0.0
C682 C 0.26538 0.47894 0.20875 0.0
C683 C 0.23292 0.50537 0.26061 0.0
C684 C 0.28841 0.48192 0.17967 0.0
C685 C 0.30563 0.51043 0.1759 0.0
C686 C 0.25948 0.5049 0.23318 0.0
C687 C 0.30026 0.53484 0.20269 0.0
C688 C 0.2142 0.53284 0.26294 0.0
C689 C 0.20621 0.48317 0.31492 0.0
N690 N 0.27729 0.53171 0.22977 0.0
N691 N 0.22821 0.48105 0.28606 0.0
H692 H 0.03142 0.29163 0.15634 0.0
H693 H 0.93734 0.1732 0.28773 0.0
H694 H 0.93475 0.30773 0.19398 0.0
H695 H 0.02932 0.20201 0.33112 0.0
H696 H 0.9422 0.21205 0.23593 0.0
H697 H 0.03682 0.2503 0.207 0.0
C698 C 0.01153 0.2867 0.17534 0.0
C699 C 0.98244 0.30279 0.17066 0.0
C700 C 0.96146 0.20959 0.25658 0.0
C701 C 0.98831 0.25581 0.22721 0.0
C702 C 0.95878 0.18746 0.28614 0.0
C703 C 0.9827 0.18485 0.3142 0.0
C704 C 0.98834 0.22916 0.25473 0.0
C705 C 0.01022 0.2036 0.31019 0.0
C706 C 0.01468 0.26329 0.20406 0.0
C707 C 0.95745 0.29569 0.19607 0.0
N708 N 0.01225 0.2254 0.281 0.0
N709 N 0.96082 0.27243 0.2228 0.0
H710 H 0.29572 0.0339 0.33902 0.0
H711 H 0.17031 0.94505 0.21484 0.0
H712 H 0.30922 0.93743 0.29905 0.0
H713 H 0.20469 0.03239 0.16374 0.0
H714 H 0.21061 0.94963 0.26509 0.0
H715 H 0.25364 0.04083 0.28969 0.0
C716 C 0.29009 0.01438 0.31974 0.0
C717 C 0.3056 0.98488 0.32341 0.0
C718 C 0.20895 0.968 0.24314 0.0
C719 C 0.25783 0.99252 0.26843 0.0
C720 C 0.18604 0.96547 0.21448 0.0
C721 C 0.18464 0.98805 0.18468 0.0
C722 C 0.23043 0.9934 0.24228 0.0
C723 C 0.20531 0.01433 0.18609 0.0
C724 C 0.26627 0.01842 0.29179 0.0
C725 C 0.29763 0.96041 0.29768 0.0
N726 N 0.22783 0.01619 0.2144 0.0
N727 N 0.27392 0.96461 0.27173 0.0
H728 H 0.4312 0.81343 0.79602 0.0
H729 H 0.53145 0.70494 0.66108 0.0
H730 H 0.52828 0.79777 0.8326 0.0
H731 H 0.4403 0.67647 0.70729 0.0
H732 H 0.53462 0.74654 0.71149 0.0
H733 H 0.43763 0.77245 0.74705 0.0
C734 C 0.45401 0.80161 0.79355 0.0
C735 C 0.47908 0.80859 0.81885 0.0
C736 C 0.5143 0.73071 0.7106 0.0
C737 C 0.48653 0.76197 0.76254 0.0
C738 C 0.51243 0.70711 0.68205 0.0
C739 C 0.48531 0.68765 0.67971 0.0
C740 C 0.48861 0.73486 0.73598 0.0
C741 C 0.46137 0.69128 0.70756 0.0
C742 C 0.45758 0.77822 0.76566 0.0
C743 C 0.50828 0.79275 0.81382 0.0
N744 N 0.46333 0.7148 0.73409 0.0
N745 N 0.51127 0.76988 0.78611 0.0
H746 H 0.79824 0.53238 0.66453 0.0
H747 H 0.67333 0.43991 0.78811 0.0
H748 H 0.81107 0.4347 0.7005 0.0
H749 H 0.70323 0.5309 0.8335 0.0
H750 H 0.71426 0.44375 0.73862 0.0
H751 H 0.75562 0.5379 0.71328 0.0
C752 C 0.79233 0.51228 0.68282 0.0
C753 C 0.80787 0.4829 0.67822 0.0
C754 C 0.71158 0.46301 0.75922 0.0
C755 C 0.75936 0.48892 0.73248 0.0
C756 C 0.68826 0.46092 0.78741 0.0
C757 C 0.68536 0.48484 0.81539 0.0
C758 C 0.73194 0.48933 0.75864 0.0
C759 C 0.70502 0.51181 0.8126 0.0
C760 C 0.76817 0.5155 0.71043 0.0
C761 C 0.7995 0.45764 0.70265 0.0
N762 N 0.72788 0.51329 0.78471 0.0
N763 N 0.77546 0.4611 0.72829 0.0
H764 H 0.97979 0.77262 0.64273 0.0
H765 H 0.99122 0.73283 0.86692 0.0
H766 H 0.03039 0.83433 0.72116 0.0
H767 H 0.01589 0.66291 0.78078 0.0
H768 H 0.98483 0.77274 0.81517 0.0
H769 H 0.97223 0.7343 0.6959 0.0
C770 C 0.98863 0.77836 0.67134 0.0
C771 C 0.00584 0.80642 0.67783 0.0
C772 C 0.99095 0.74844 0.80775 0.0
C773 C 0.99672 0.7635 0.73817 0.0
C774 C 0.99441 0.72578 0.83701 0.0
C775 C 0.00403 0.69479 0.8277 0.0
C776 C 0.99624 0.73956 0.76917 0.0
C777 C 0.00848 0.68669 0.7888 0.0
C778 C 0.98443 0.75656 0.70141 0.0
C779 C 0.01716 0.81277 0.71517 0.0
N780 N 0.00445 0.709 0.76076 0.0
N781 N 0.01234 0.79144 0.74412 0.0
H782 H 0.66134 0.01928 0.72234 0.0
H783 H 0.83676 0.02101 0.77314 0.0
H784 H 0.72668 0.98196 0.63757 0.0
H785 H 0.77248 0.98009 0.85671 0.0
H786 H 0.79718 0.01142 0.7222 0.0
H787 H 0.70119 0.00959 0.773 0.0
C788 C 0.68393 0.00858 0.71464 0.0
C789 C 0.69097 0.00133 0.67607 0.0
C790 C 0.7921 0.00395 0.75158 0.0
C791 C 0.73648 0.99115 0.73306 0.0
C792 C 0.81448 0.00954 0.78051 0.0
C793 C 0.80764 0.00126 0.81886 0.0
C794 C 0.76241 0.99116 0.76154 0.0
C795 C 0.77852 0.98658 0.82728 0.0
C796 C 0.70646 0.00293 0.7434 0.0
C797 C 0.72048 0.98762 0.6672 0.0
N798 N 0.75649 0.98267 0.79889 0.0
N799 N 0.74262 0.98367 0.69546 0.0
loop_
_geom_bond_atom_site_label_1
_geom_bond_atom_site_label_2
_geom_bond_distance
_geom_bond_site_symmetry_2
_ccdc_geom_bond_type
Co0 O1 2.216 . S
Co0 O2 2.091 . S
Co0 O4 2.004 . S
Co0 O10 2.021 . S
Co0 O12 2.137 . S
Co0 O13 2.244 . S
O1 Co0 2.216 . S
O1 C8 1.247 . S
O2 Co0 2.091 . S
O2 C8 1.261 . S
C3 O12 1.247 . S
C3 O13 1.272 . S
O4 Co0 2.004 . S
O4 C9 1.259 . S
Co5 O6 2.061 . S
Co5 O11 2.052 . S
Co5 O13 2.135 . S
O6 Co5 2.061 . S
O6 C9 1.235 . S
C7 O10 1.238 . S
C7 O11 1.241 . S
C8 O1 1.247 . S
C8 O2 1.261 . S
C9 O4 1.259 . S
C9 O6 1.235 . S
O10 Co0 2.021 . S
O10 C7 1.238 . S
O11 Co5 2.052 . S
O11 C7 1.241 . S
O12 Co0 2.137 . S
O12 C3 1.247 . S
O13 Co0 2.244 . S
O13 C3 1.272 . S
O13 Co5 2.135 . S
Co14 O15 2.216 . S
Co14 O16 2.091 . S
Co14 O18 2.004 . S
Co14 O24 2.021 . S
Co14 O26 2.137 . S
Co14 O27 2.244 . S
O15 Co14 2.216 . S
O15 C22 1.247 . S
O16 Co14 2.091 . S
O16 C22 1.261 . S
C17 O26 1.247 . S
C17 O27 1.272 . S
O18 Co14 2.004 . S
O18 C23 1.259 . S
Co19 O20 2.061 . S
Co19 O25 2.052 . S
Co19 O27 2.135 . S
O20 Co19 2.061 . S
O20 C23 1.235 . S
C21 O24 1.238 . S
C21 O25 1.241 . S
C22 O15 1.247 . S
C22 O16 1.261 . S
C23 O18 1.259 . S
C23 O20 1.235 . S
O24 Co14 2.021 . S
O24 C21 1.238 . S
O25 Co19 2.052 . S
O25 C21 1.241 . S
O26 Co14 2.137 . S
O26 C17 1.247 . S
O27 Co14 2.244 . S
O27 C17 1.272 . S
O27 Co19 2.135 . S
Co28 O29 2.216 . S
Co28 O30 2.081 1_655 S
Co28 O32 2.004 . S
Co28 O38 2.021 . S
Co28 O40 2.137 . S
Co28 O41 2.244 . S
O29 Co28 2.216 . S
O29 C36 1.247 . S
O30 Co28 2.081 1_455 S
O30 C36 1.259 1_455 S
C31 O40 1.247 . S
C31 O41 1.272 . S
O32 Co28 2.004 . S
O32 C37 1.259 . S
Co33 O34 2.061 . S
Co33 O39 2.052 . S
Co33 O41 2.135 . S
O34 Co33 2.061 . S
O34 C37 1.235 . S
C35 O38 1.238 . S
C35 O39 1.241 . S
C36 O29 1.247 . S
C36 O30 1.259 1_655 S
C37 O32 1.259 . S
C37 O34 1.235 . S
O38 Co28 2.021 . S
O38 C35 1.238 . S
O39 Co33 2.052 . S
O39 C35 1.241 . S
O40 Co28 2.137 . S
O40 C31 1.247 . S
O41 Co28 2.244 . S
O41 C31 1.272 . S
O41 Co33 2.135 . S
Co42 O43 2.216 . S
Co42 O44 2.080 1_565 S
Co42 O46 2.004 . S
Co42 O52 2.021 . S
Co42 O54 2.137 . S
Co42 O55 2.244 . S
O43 Co42 2.216 . S
O43 C50 1.247 . S
O44 Co42 2.080 1_545 S
O44 C50 1.259 1_545 S
C45 O54 1.247 . S
C45 O55 1.272 . S
O46 Co42 2.004 . S
O46 C51 1.259 . S
Co47 O48 2.061 . S
Co47 O53 2.052 . S
Co47 O55 2.135 . S
O48 Co47 2.061 . S
O48 C51 1.235 . S
C49 O52 1.238 . S
C49 O53 1.241 . S
C50 O43 1.247 . S
C50 O44 1.259 1_565 S
C51 O46 1.259 . S
C51 O48 1.235 . S
O52 Co42 2.021 . S
O52 C49 1.238 . S
O53 Co47 2.052 . S
O53 C49 1.241 . S
O54 Co42 2.137 . S
O54 C45 1.247 . S
O55 Co42 2.244 . S
O55 C45 1.272 . S
O55 Co47 2.135 . S
Co56 O57 2.216 . S
Co56 O58 2.091 . S
Co56 O60 2.004 . S
Co56 O66 2.021 . S
Co56 O68 2.137 . S
Co56 O69 2.244 . S
O57 Co56 2.216 . S
O57 C64 1.247 . S
O58 Co56 2.091 . S
O58 C64 1.261 . S
C59 O68 1.247 . S
C59 O69 1.272 . S
O60 Co56 2.004 . S
O60 C65 1.259 . S
Co61 O62 2.061 . S
Co61 O67 2.052 . S
Co61 O69 2.135 . S
O62 Co61 2.061 . S
O62 C65 1.235 . S
C63 O66 1.238 . S
C63 O67 1.241 . S
C64 O57 1.247 . S
C64 O58 1.261 . S
C65 O60 1.259 . S
C65 O62 1.235 . S
O66 Co56 2.021 . S
O66 C63 1.238 . S
O67 Co61 2.052 . S
O67 C63 1.241 . S
O68 Co56 2.137 . S
O68 C59 1.247 . S
O69 Co56 2.244 . S
O69 C59 1.272 . S
O69 Co61 2.135 . S
Co70 O71 2.216 . S
Co70 O72 2.091 . S
Co70 O74 2.004 . S
Co70 O80 2.021 . S
Co70 O82 2.137 . S
Co70 O83 2.244 . S
O71 Co70 2.216 . S
O71 C78 1.247 . S
O72 Co70 2.091 . S
O72 C78 1.261 . S
C73 O82 1.247 . S
C73 O83 1.272 . S
O74 Co70 2.004 . S
O74 C79 1.259 . S
Co75 O76 2.061 . S
Co75 O81 2.052 . S
Co75 O83 2.135 . S
O76 Co75 2.061 . S
O76 C79 1.235 . S
C77 O80 1.238 . S
C77 O81 1.241 . S
C78 O71 1.247 . S
C78 O72 1.261 . S
C79 O74 1.259 . S
C79 O76 1.235 . S
O80 Co70 2.021 . S
O80 C77 1.238 . S
O81 Co75 2.052 . S
O81 C77 1.241 . S
O82 Co70 2.137 . S
O82 C73 1.247 . S
O83 Co70 2.244 . S
O83 C73 1.272 . S
O83 Co75 2.135 . S
Co84 O85 2.216 . S
Co84 O86 2.080 1_655 S
Co84 O88 2.004 . S
Co84 O94 2.021 . S
Co84 O96 2.137 . S
Co84 O97 2.244 . S
O85 Co84 2.216 . S
O85 C92 1.247 . S
O86 Co84 2.080 1_455 S
O86 C92 1.259 1_455 S
C87 O96 1.247 . S
C87 O97 1.272 . S
O88 Co84 2.004 . S
O88 C93 1.259 . S
Co89 O90 2.061 . S
Co89 O95 2.052 . S
Co89 O97 2.135 . S
O90 Co89 2.061 . S
O90 C93 1.235 . S
C91 O94 1.238 . S
C91 O95 1.241 . S
C92 O85 1.247 . S
C92 O86 1.259 1_655 S
C93 O88 1.259 . S
C93 O90 1.235 . S
O94 Co84 2.021 . S
O94 C91 1.238 . S
O95 Co89 2.052 . S
O95 C91 1.241 . S
O96 Co84 2.137 . S
O96 C87 1.247 . S
O97 Co84 2.244 . S
O97 C87 1.272 . S
O97 Co89 2.135 . S
Co98 O99 2.216 . S
Co98 O100 2.080 1_565 S
Co98 O102 2.004 . S
Co98 O108 2.021 . S
Co98 O110 2.137 . S
Co98 O111 2.244 . S
O99 Co98 2.216 . S
O99 C106 1.247 . S
O100 Co98 2.080 1_545 S
O100 C106 1.259 1_545 S
C101 O110 1.247 . S
C101 O111 1.272 . S
O102 Co98 2.004 . S
O102 C107 1.259 . S
Co103 O104 2.061 . S
Co103 O109 2.052 . S
Co103 O111 2.135 . S
O104 Co103 2.061 . S
O104 C107 1.235 . S
C105 O108 1.238 . S
C105 O109 1.241 . S
C106 O99 1.247 . S
C106 O100 1.259 1_565 S
C107 O102 1.259 . S
C107 O104 1.235 . S
O108 Co98 2.021 . S
O108 C105 1.238 . S
O109 Co103 2.052 . S
O109 C105 1.241 . S
O110 Co98 2.137 . S
O110 C101 1.247 . S
O111 Co98 2.244 . S
O111 C101 1.272 . S
O111 Co103 2.135 . S
Co112 O113 2.216 . S
Co112 O114 2.091 . S
Co112 O116 2.004 . S
Co112 O122 2.021 . S
Co112 O124 2.137 . S
Co112 O125 2.244 . S
O113 Co112 2.216 . S
O113 C120 1.247 . S
O114 Co112 2.091 . S
O114 C120 1.261 . S
C115 O124 1.247 . S
C115 O125 1.272 . S
O116 Co112 2.004 . S
O116 C121 1.259 . S
Co117 O118 2.061 . S
Co117 O123 2.052 . S
Co117 O125 2.135 . S
O118 Co117 2.061 . S
O118 C121 1.235 . S
C119 O122 1.238 . S
C119 O123 1.241 . S
C120 O113 1.247 . S
C120 O114 1.261 . S
C121 O116 1.259 . S
C121 O118 1.235 . S
O122 Co112 2.021 . S
O122 C119 1.238 . S
O123 Co117 2.052 . S
O123 C119 1.241 . S
O124 Co112 2.137 . S
O124 C115 1.247 . S
O125 Co112 2.244 . S
O125 C115 1.272 . S
O125 Co117 2.135 . S
Co126 O127 2.216 . S
Co126 O128 2.091 . S
Co126 O130 2.004 . S
Co126 O136 2.021 . S
Co126 O138 2.137 . S
Co126 O139 2.244 . S
O127 Co126 2.216 . S
O127 C134 1.247 . S
O128 Co126 2.091 . S
O128 C134 1.261 . S
C129 O138 1.247 . S
C129 O139 1.272 . S
O130 Co126 2.004 . S
O130 C135 1.259 . S
Co131 O132 2.061 . S
Co131 O137 2.052 . S
Co131 O139 2.135 . S
O132 Co131 2.061 . S
O132 C135 1.235 . S
C133 O136 1.238 . S
C133 O137 1.241 . S
C134 O127 1.247 . S
C134 O128 1.261 . S
C135 O130 1.259 . S
C135 O132 1.235 . S
O136 Co126 2.021 . S
O136 C133 1.238 . S
O137 Co131 2.052 . S
O137 C133 1.241 . S
O138 Co126 2.137 . S
O138 C129 1.247 . S
O139 Co126 2.244 . S
O139 C129 1.272 . S
O139 Co131 2.135 . S
Co140 O141 2.216 . S
Co140 O142 2.081 1_455 S
Co140 O144 2.004 . S
Co140 O150 2.021 . S
Co140 O152 2.137 . S
Co140 O153 2.244 . S
O141 Co140 2.216 . S
O141 C148 1.247 . S
O142 Co140 2.081 1_655 S
O142 C148 1.259 1_655 S
C143 O152 1.247 . S
C143 O153 1.272 . S
O144 Co140 2.004 . S
O144 C149 1.259 . S
Co145 O146 2.061 . S
Co145 O151 2.052 . S
Co145 O153 2.135 . S
O146 Co145 2.061 . S
O146 C149 1.235 . S
C147 O150 1.238 . S
C147 O151 1.241 . S
C148 O141 1.247 . S
C148 O142 1.259 1_455 S
C149 O144 1.259 . S
C149 O146 1.235 . S
O150 Co140 2.021 . S
O150 C147 1.238 . S
O151 Co145 2.052 . S
O151 C147 1.241 . S
O152 Co140 2.137 . S
O152 C143 1.247 . S
O153 Co140 2.244 . S
O153 C143 1.272 . S
O153 Co145 2.135 . S
Co154 O155 2.216 . S
Co154 O156 2.080 1_545 S
Co154 O158 2.004 . S
Co154 O164 2.021 . S
Co154 O166 2.137 . S
Co154 O167 2.244 . S
O155 Co154 2.216 . S
O155 C162 1.247 . S
O156 Co154 2.080 1_565 S
O156 C162 1.259 1_565 S
C157 O166 1.247 . S
C157 O167 1.272 . S
O158 Co154 2.004 . S
O158 C163 1.259 . S
Co159 O160 2.061 . S
Co159 O165 2.052 . S
Co159 O167 2.135 . S
O160 Co159 2.061 . S
O160 C163 1.235 . S
C161 O164 1.238 . S
C161 O165 1.241 . S
C162 O155 1.247 . S
C162 O156 1.259 1_545 S
C163 O158 1.259 . S
C163 O160 1.235 . S
O164 Co154 2.021 . S
O164 C161 1.238 . S
O165 Co159 2.052 . S
O165 C161 1.241 . S
O166 Co154 2.137 . S
O166 C157 1.247 . S
O167 Co154 2.244 . S
O167 C157 1.272 . S
O167 Co159 2.135 . S
Co168 O169 2.216 . S
Co168 O170 2.091 . S
Co168 O172 2.004 . S
Co168 O178 2.021 . S
Co168 O180 2.137 . S
Co168 O181 2.244 . S
O169 Co168 2.216 . S
O169 C176 1.247 . S
O170 Co168 2.091 . S
O170 C176 1.261 . S
C171 O180 1.247 . S
C171 O181 1.272 . S
O172 Co168 2.004 . S
O172 C177 1.259 . S
Co173 O174 2.061 . S
Co173 O179 2.052 . S
Co173 O181 2.135 . S
O174 Co173 2.061 . S
O174 C177 1.235 . S
C175 O178 1.238 . S
C175 O179 1.241 . S
C176 O169 1.247 . S
C176 O170 1.261 . S
C177 O172 1.259 . S
C177 O174 1.235 . S
O178 Co168 2.021 . S
O178 C175 1.238 . S
O179 Co173 2.052 . S
O179 C175 1.241 . S
O180 Co168 2.137 . S
O180 C171 1.247 . S
O181 Co168 2.244 . S
O181 C171 1.272 . S
O181 Co173 2.135 . S
Co182 O183 2.216 . S
Co182 O184 2.091 . S
Co182 O186 2.004 . S
Co182 O192 2.021 . S
Co182 O194 2.137 . S
Co182 O195 2.244 . S
O183 Co182 2.216 . S
O183 C190 1.247 . S
O184 Co182 2.091 . S
O184 C190 1.261 . S
C185 O194 1.247 . S
C185 O195 1.272 . S
O186 Co182 2.004 . S
O186 C191 1.259 . S
Co187 O188 2.061 . S
Co187 O193 2.052 . S
Co187 O195 2.135 . S
O188 Co187 2.061 . S
O188 C191 1.235 . S
C189 O192 1.238 . S
C189 O193 1.241 . S
C190 O183 1.247 . S
C190 O184 1.261 . S
C191 O186 1.259 . S
C191 O188 1.235 . S
O192 Co182 2.021 . S
O192 C189 1.238 . S
O193 Co187 2.052 . S
O193 C189 1.241 . S
O194 Co182 2.137 . S
O194 C185 1.247 . S
O195 Co182 2.244 . S
O195 C185 1.272 . S
O195 Co187 2.135 . S
Co196 O197 2.216 . S
Co196 O198 2.080 1_455 S
Co196 O200 2.004 . S
Co196 O206 2.021 . S
Co196 O208 2.137 . S
Co196 O209 2.244 . S
O197 Co196 2.216 . S
O197 C204 1.247 . S
O198 Co196 2.080 1_655 S
O198 C204 1.259 1_655 S
C199 O208 1.247 . S
C199 O209 1.272 . S
O200 Co196 2.004 . S
O200 C205 1.259 . S
Co201 O202 2.061 . S
Co201 O207 2.052 . S
Co201 O209 2.135 . S
O202 Co201 2.061 . S
O202 C205 1.235 . S
C203 O206 1.238 . S
C203 O207 1.241 . S
C204 O197 1.247 . S
C204 O198 1.259 1_455 S
C205 O200 1.259 . S
C205 O202 1.235 . S
O206 Co196 2.021 . S
O206 C203 1.238 . S
O207 Co201 2.052 . S
O207 C203 1.241 . S
O208 Co196 2.137 . S
O208 C199 1.247 . S
O209 Co196 2.244 . S
O209 C199 1.272 . S
O209 Co201 2.135 . S
Co210 O211 2.216 . S
Co210 O212 2.080 1_545 S
Co210 O214 2.004 . S
Co210 O220 2.021 . S
Co210 O222 2.137 . S
Co210 O223 2.244 . S
O211 Co210 2.216 . S
O211 C218 1.247 . S
O212 Co210 2.080 1_565 S
O212 C218 1.259 1_565 S
C213 O222 1.247 . S
C213 O223 1.272 . S
O214 Co210 2.004 . S
O214 C219 1.259 . S
Co215 O216 2.061 . S
Co215 O221 2.052 . S
Co215 O223 2.135 . S
O216 Co215 2.061 . S
O216 C219 1.235 . S
C217 O220 1.238 . S
C217 O221 1.241 . S
C218 O211 1.247 . S
C218 O212 1.259 1_545 S
C219 O214 1.259 . S
C219 O216 1.235 . S
O220 Co210 2.021 . S
O220 C217 1.238 . S
O221 Co215 2.052 . S
O221 C217 1.241 . S
O222 Co210 2.137 . S
O222 C213 1.247 . S
O223 Co210 2.244 . S
O223 C213 1.272 . S
O223 Co215 2.135 . S
H224 C230 0.930 . S
H225 C234 0.930 . S
H226 C239 0.929 . S
H227 C237 0.929 . S
H228 C232 0.929 . S
H229 C238 0.929 . S
C230 H224 0.930 . S
C230 C231 1.367 1_556 S
C230 C238 1.378 . S
C231 C230 1.367 1_554 S
C231 C239 1.433 . S
C232 H228 0.929 . S
C232 C234 1.378 . S
C232 C236 1.350 1_554 S
C233 C236 1.463 . S
C233 C238 1.350 . S
C233 N241 1.427 1_556 S
C234 H225 0.930 . S
C234 C232 1.378 . S
C234 C235 1.367 1_554 S
C235 C234 1.367 1_556 S
C235 C237 1.433 . S
C236 C232 1.350 1_556 S
C236 C233 1.463 . S
C236 N240 1.427 . S
C237 H227 0.929 . S
C237 C235 1.433 . S
C237 N240 1.384 . S
C238 H229 0.929 . S
C238 C230 1.378 . S
C238 C233 1.350 . S
C239 H226 0.929 . S
C239 C231 1.433 . S
C239 N241 1.384 . S
N240 C236 1.427 . S
N240 C237 1.384 . S
N241 C233 1.427 1_554 S
N241 C239 1.384 . S
H242 C248 0.930 . S
H243 C252 0.930 . S
H244 C257 0.929 . S
H245 C255 0.929 . S
H246 C250 0.929 . S
H247 C256 0.929 . S
C248 H242 0.930 . S
C248 C249 1.367 . S
C248 C256 1.378 . S
C249 C248 1.367 . S
C249 C257 1.433 1_556 S
C250 H246 0.929 . S
C250 C252 1.378 . S
C250 C254 1.323 1_554 S
C251 C254 1.470 . S
C251 C256 1.350 . S
C251 N259 1.427 1_556 S
C252 H243 0.930 . S
C252 C250 1.378 . S
C252 C253 1.367 . S
C253 C252 1.367 . S
C253 C255 1.433 1_554 S
C254 C250 1.323 1_556 S
C254 C251 1.470 . S
C254 N258 1.449 . S
C255 H245 0.929 . S
C255 C253 1.433 1_556 S
C255 N258 1.384 . S
C256 H247 0.929 . S
C256 C248 1.378 . S
C256 C251 1.350 . S
C257 H244 0.929 . S
C257 C249 1.433 1_554 S
C257 N259 1.384 . S
N258 C254 1.449 . S
N258 C255 1.384 . S
N259 C251 1.427 1_554 S
N259 C257 1.384 . S
H260 C266 0.930 . S
H261 C270 0.930 . S
H262 C275 0.929 . S
H263 C273 0.929 . S
H264 C268 0.929 . S
H265 C274 0.929 . S
C266 H260 0.930 . S
C266 C267 1.367 . S
C266 C274 1.378 . S
C267 C266 1.367 . S
C267 C275 1.433 . S
C268 H264 0.929 . S
C268 C270 1.378 . S
C268 C272 1.350 1_554 S
C269 C272 1.463 . S
C269 C274 1.350 . S
C269 N277 1.427 . S
C270 H261 0.930 . S
C270 C268 1.378 . S
C270 C271 1.367 . S
C271 C270 1.367 . S
C271 C273 1.433 . S
C272 C268 1.350 1_556 S
C272 C269 1.463 . S
C272 N276 1.427 . S
C273 H263 0.929 . S
C273 C271 1.433 . S
C273 N276 1.384 1_554 S
C274 H265 0.929 . S
C274 C266 1.378 . S
C274 C269 1.350 . S
C275 H262 0.929 . S
C275 C267 1.433 . S
C275 N277 1.384 . S
N276 C272 1.427 . S
N276 C273 1.384 1_556 S
N277 C269 1.427 . S
N277 C275 1.384 . S
H278 C284 0.930 . S
H279 C288 0.930 . S
H280 C293 0.929 . S
H281 C291 0.929 . S
H282 C286 0.929 . S
H283 C292 0.929 . S
C284 H278 0.930 . S
C284 C285 1.367 . S
C284 C292 1.378 . S
C285 C284 1.367 . S
C285 C293 1.433 1_556 S
C286 H282 0.929 . S
C286 C288 1.378 . S
C286 C290 1.350 1_554 S
C287 C290 1.463 . S
C287 C292 1.350 . S
C287 N295 1.427 1_556 S
C288 H279 0.930 . S
C288 C286 1.378 . S
C288 C289 1.367 . S
C289 C288 1.367 . S
C289 C291 1.433 1_554 S
C290 C286 1.350 1_556 S
C290 C287 1.463 . S
C290 N294 1.427 . S
C291 H281 0.929 . S
C291 C289 1.433 1_556 S
C291 N294 1.384 . S
C292 H283 0.929 . S
C292 C284 1.378 . S
C292 C287 1.350 . S
C293 H280 0.929 . S
C293 C285 1.433 1_554 S
C293 N295 1.384 . S
N294 C290 1.427 . S
N294 C291 1.384 . S
N295 C287 1.427 1_554 S
N295 C293 1.384 . S
H296 C302 0.930 . S
H297 C306 0.930 . S
H298 C311 0.929 . S
H299 C309 0.929 . S
H300 C304 0.929 . S
H301 C310 0.929 . S
C302 H296 0.930 . S
C302 C303 1.367 . S
C302 C310 1.378 . S
C303 C302 1.367 . S
C303 C311 1.433 . S
C304 H300 0.929 . S
C304 C306 1.378 . S
C304 C308 1.350 . S
C305 C308 1.463 . S
C305 C310 1.350 . S
C305 N313 1.427 . S
C306 H297 0.930 . S
C306 C304 1.378 . S
C306 C307 1.367 . S
C307 C306 1.367 . S
C307 C309 1.433 . S
C308 C304 1.350 . S
C308 C305 1.463 . S
C308 N312 1.427 . S
C309 H299 0.929 . S
C309 C307 1.433 . S
C309 N312 1.384 . S
C310 H301 0.929 . S
C310 C302 1.378 . S
C310 C305 1.350 . S
C311 H298 0.929 . S
C311 C303 1.433 . S
C311 N313 1.384 . S
N312 C308 1.427 . S
N312 C309 1.384 . S
N313 C305 1.427 . S
N313 C311 1.384 . S
H314 C320 0.930 . S
H315 C324 0.930 . S
H316 C329 0.929 . S
H317 C327 0.929 . S
H318 C322 0.929 . S
H319 C328 0.929 . S
C320 H314 0.930 . S
C320 C321 1.367 . S
C320 C328 1.378 . S
C321 C320 1.367 . S
C321 C329 1.433 . S
C322 H318 0.929 . S
C322 C324 1.378 . S
C322 C326 1.350 . S
C323 C326 1.463 . S
C323 C328 1.350 . S
C323 N331 1.427 . S
C324 H315 0.930 . S
C324 C322 1.378 . S
C324 C325 1.367 . S
C325 C324 1.367 . S
C325 C327 1.433 . S
C326 C322 1.350 . S
C326 C323 1.463 . S
C326 N330 1.427 . S
C327 H317 0.929 . S
C327 C325 1.433 . S
C327 N330 1.384 . S
C328 H319 0.929 . S
C328 C320 1.378 . S
C328 C323 1.350 . S
C329 H316 0.929 . S
C329 C321 1.433 . S
C329 N331 1.384 . S
N330 C326 1.427 . S
N330 C327 1.384 . S
N331 C323 1.427 . S
N331 C329 1.384 . S
H332 C338 0.930 . S
H333 C342 0.930 . S
H334 C347 0.929 . S
H335 C345 0.929 . S
H336 C340 0.929 . S
H337 C346 0.929 . S
C338 H332 0.930 . S
C338 C339 1.367 . S
C338 C346 1.378 . S
C339 C338 1.367 . S
C339 C347 1.433 . S
C340 H336 0.929 . S
C340 C342 1.378 . S
C340 C344 1.350 . S
C341 C344 1.463 . S
C341 C346 1.350 . S
C341 N349 1.427 . S
C342 H333 0.930 . S
C342 C340 1.378 . S
C342 C343 1.367 . S
C343 C342 1.367 . S
C343 C345 1.433 . S
C344 C340 1.350 . S
C344 C341 1.463 . S
C344 N348 1.427 . S
C345 H335 0.929 . S
C345 C343 1.433 . S
C345 N348 1.384 . S
C346 H337 0.929 . S
C346 C338 1.378 . S
C346 C341 1.350 . S
C347 H334 0.929 . S
C347 C339 1.433 . S
C347 N349 1.384 . S
N348 C344 1.427 . S
N348 C345 1.384 . S
N349 C341 1.427 . S
N349 C347 1.384 . S
H350 C356 0.930 . S
H351 C360 0.930 . S
H352 C365 0.929 . S
H353 C363 0.929 . S
H354 C358 0.929 . S
H355 C364 0.929 . S
C356 H350 0.930 . S
C356 C357 1.367 . S
C356 C364 1.378 . S
C357 C356 1.367 . S
C357 C365 1.433 . S
C358 H354 0.929 . S
C358 C360 1.378 . S
C358 C362 1.350 . S
C359 C362 1.463 . S
C359 C364 1.350 . S
C359 N367 1.427 . S
C360 H351 0.930 . S
C360 C358 1.378 . S
C360 C361 1.367 . S
C361 C360 1.367 . S
C361 C363 1.433 . S
C362 C358 1.350 . S
C362 C359 1.463 . S
C362 N366 1.427 . S
C363 H353 0.929 . S
C363 C361 1.433 . S
C363 N366 1.384 . S
C364 H355 0.929 . S
C364 C356 1.378 . S
C364 C359 1.350 . S
C365 H352 0.929 . S
C365 C357 1.433 . S
C365 N367 1.384 . S
N366 C362 1.427 . S
N366 C363 1.384 . S
N367 C359 1.427 . S
N367 C365 1.384 . S
H368 C374 0.930 . S
H369 C378 0.930 . S
H370 C383 0.929 . S
H371 C381 0.929 . S
H372 C376 0.929 . S
H373 C382 0.929 . S
C374 H368 0.930 . S
C374 C375 1.367 1_554 S
C374 C382 1.378 . S
C375 C374 1.367 1_556 S
C375 C383 1.433 . S
C376 H372 0.929 . S
C376 C378 1.378 . S
C376 C380 1.350 1_556 S
C377 C380 1.463 . S
C377 C382 1.350 . S
C377 N385 1.427 1_554 S
C378 H369 0.930 . S
C378 C376 1.378 . S
C378 C379 1.367 1_556 S
C379 C378 1.367 1_554 S
C379 C381 1.433 . S
C380 C376 1.350 1_554 S
C380 C377 1.463 . S
C380 N384 1.427 . S
C381 H371 0.929 . S
C381 C379 1.433 . S
C381 N384 1.384 . S
C382 H373 0.929 . S
C382 C374 1.378 . S
C382 C377 1.350 . S
C383 H370 0.929 . S
C383 C375 1.433 . S
C383 N385 1.384 . S
N384 C380 1.427 . S
N384 C381 1.384 . S
N385 C377 1.427 1_556 S
N385 C383 1.384 . S
H386 C392 0.930 . S
H387 C396 0.930 . S
H388 C401 0.929 . S
H389 C399 0.929 . S
H390 C394 0.929 . S
H391 C400 0.929 . S
C392 H386 0.930 . S
C392 C393 1.367 . S
C392 C400 1.378 1_556 S
C393 C392 1.367 . S
C393 C401 1.433 . S
C394 H390 0.929 . S
C394 C396 1.378 . S
C394 C398 1.350 . S
C395 C398 1.463 . S
C395 C400 1.350 . S
C395 N403 1.427 1_554 S
C396 H387 0.930 . S
C396 C394 1.378 . S
C396 C397 1.367 . S
C397 C396 1.367 . S
C397 C399 1.433 . S
C398 C394 1.350 . S
C398 C395 1.463 . S
C398 N402 1.427 . S
C399 H389 0.929 . S
C399 C397 1.433 . S
C399 N402 1.384 . S
C400 H391 0.929 . S
C400 C392 1.378 1_554 S
C400 C395 1.350 . S
C401 H388 0.929 . S
C401 C393 1.433 . S
C401 N403 1.384 . S
N402 C398 1.427 . S
N402 C399 1.384 . S
N403 C395 1.427 1_556 S
N403 C401 1.384 . S
H404 C410 0.930 . S
H405 C414 0.930 . S
H406 C419 0.929 . S
H407 C417 0.928 1_556 S
H408 C412 0.929 . S
H409 C418 0.929 . S
C410 H404 0.930 . S
C410 C411 1.367 . S
C410 C418 1.378 . S
C411 C410 1.367 . S
C411 C419 1.433 1_556 S
C412 H408 0.929 . S
C412 C414 1.378 . S
C412 C416 1.350 . S
C413 C416 1.463 . S
C413 C418 1.350 1_554 S
C413 N421 1.427 . S
C414 H405 0.930 . S
C414 C412 1.378 . S
C414 C415 1.367 . S
C415 C414 1.367 . S
C415 C417 1.435 . S
C416 C412 1.350 . S
C416 C413 1.463 . S
C416 N420 1.427 1_554 S
C417 H407 0.928 1_554 S
C417 C415 1.435 . S
C417 N420 1.383 1_554 S
C418 H409 0.929 . S
C418 C410 1.378 . S
C418 C413 1.350 1_556 S
C419 H406 0.929 . S
C419 C411 1.433 1_554 S
C419 N421 1.384 . S
N420 C416 1.427 1_556 S
N420 C417 1.383 1_556 S
N421 C413 1.427 . S
N421 C419 1.384 . S
H422 C428 0.930 . S
H423 C432 0.930 . S
H424 C437 0.929 . S
H425 C435 0.929 . S
H426 C430 0.929 . S
H427 C436 0.929 . S
C428 H422 0.930 . S
C428 C429 1.367 . S
C428 C436 1.378 . S
C429 C428 1.367 . S
C429 C437 1.433 1_554 S
C430 H426 0.929 . S
C430 C432 1.378 . S
C430 C434 1.323 1_556 S
C431 C434 1.470 . S
C431 C436 1.350 . S
C431 N439 1.427 1_554 S
C432 H423 0.930 . S
C432 C430 1.378 . S
C432 C433 1.367 . S
C433 C432 1.367 . S
C433 C435 1.433 1_556 S
C434 C430 1.323 1_554 S
C434 C431 1.470 . S
C434 N438 1.449 . S
C435 H425 0.929 . S
C435 C433 1.433 1_554 S
C435 N438 1.384 . S
C436 H427 0.929 . S
C436 C428 1.378 . S
C436 C431 1.350 . S
C437 H424 0.929 . S
C437 C429 1.433 1_556 S
C437 N439 1.384 . S
N438 C434 1.449 . S
N438 C435 1.384 . S
N439 C431 1.427 1_556 S
N439 C437 1.384 . S
H440 C446 0.930 . S
H441 C450 0.930 . S
H442 C455 0.929 . S
H443 C453 0.929 . S
H444 C448 0.929 . S
H445 C454 0.929 . S
C446 H440 0.930 . S
C446 C447 1.367 . S
C446 C454 1.378 . S
C447 C446 1.367 . S
C447 C455 1.433 . S
C448 H444 0.929 . S
C448 C450 1.378 . S
C448 C452 1.350 . S
C449 C452 1.463 . S
C449 C454 1.350 . S
C449 N457 1.427 . S
C450 H441 0.930 . S
C450 C448 1.378 . S
C450 C451 1.367 . S
C451 C450 1.367 . S
C451 C453 1.433 . S
C452 C448 1.350 . S
C452 C449 1.463 . S
C452 N456 1.427 . S
C453 H443 0.929 . S
C453 C451 1.433 . S
C453 N456 1.384 . S
C454 H445 0.929 . S
C454 C446 1.378 . S
C454 C449 1.350 . S
C455 H442 0.929 . S
C455 C447 1.433 . S
C455 N457 1.384 . S
N456 C452 1.427 . S
N456 C453 1.384 . S
N457 C449 1.427 . S
N457 C455 1.384 . S
H458 C464 0.930 . S
H459 C468 0.930 . S
H460 C473 0.929 . S
H461 C471 0.929 . S
H462 C466 0.929 . S
H463 C472 0.929 . S
C464 H458 0.930 . S
C464 C465 1.367 . S
C464 C472 1.378 . S
C465 C464 1.367 . S
C465 C473 1.433 . S
C466 H462 0.929 . S
C466 C468 1.378 . S
C466 C470 1.350 . S
C467 C470 1.463 . S
C467 C472 1.350 . S
C467 N475 1.427 . S
C468 H459 0.930 . S
C468 C466 1.378 . S
C468 C469 1.367 . S
C469 C468 1.367 . S
C469 C471 1.433 . S
C470 C466 1.350 . S
C470 C467 1.463 . S
C470 N474 1.427 . S
C471 H461 0.929 . S
C471 C469 1.433 . S
C471 N474 1.384 . S
C472 H463 0.929 . S
C472 C464 1.378 . S
C472 C467 1.350 . S
C473 H460 0.929 . S
C473 C465 1.433 . S
C473 N475 1.384 . S
N474 C470 1.427 . S
N474 C471 1.384 . S
N475 C467 1.427 . S
N475 C473 1.384 . S
H476 C482 0.930 . S
H477 C486 0.930 . S
H478 C491 0.929 . S
H479 C489 0.929 . S
H480 C484 0.929 . S
H481 C490 0.929 . S
C482 H476 0.930 . S
C482 C483 1.367 . S
C482 C490 1.378 . S
C483 C482 1.367 . S
C483 C491 1.433 . S
C484 H480 0.929 . S
C484 C486 1.378 . S
C484 C488 1.350 . S
C485 C488 1.463 . S
C485 C490 1.350 . S
C485 N493 1.427 . S
C486 H477 0.930 . S
C486 C484 1.378 . S
C486 C487 1.367 . S
C487 C486 1.367 . S
C487 C489 1.433 . S
C488 C484 1.350 . S
C488 C485 1.463 . S
C488 N492 1.427 . S
C489 H479 0.929 . S
C489 C487 1.433 . S
C489 N492 1.384 . S
C490 H481 0.929 . S
C490 C482 1.378 . S
C490 C485 1.350 . S
C491 H478 0.929 . S
C491 C483 1.433 . S
C491 N493 1.384 . S
N492 C488 1.427 . S
N492 C489 1.384 . S
N493 C485 1.427 . S
N493 C491 1.384 . S
H494 C500 0.930 . S
H495 C504 0.930 . S
H496 C509 0.929 . S
H497 C507 0.929 . S
H498 C502 0.929 . S
H499 C508 0.929 . S
C500 H494 0.930 . S
C500 C501 1.367 . S
C500 C508 1.378 . S
C501 C500 1.367 . S
C501 C509 1.433 . S
C502 H498 0.929 . S
C502 C504 1.378 . S
C502 C506 1.350 . S
C503 C506 1.463 . S
C503 C508 1.350 . S
C503 N511 1.427 . S
C504 H495 0.930 . S
C504 C502 1.378 . S
C504 C505 1.367 . S
C505 C504 1.367 . S
C505 C507 1.433 . S
C506 C502 1.350 . S
C506 C503 1.463 . S
C506 N510 1.427 . S
C507 H497 0.929 . S
C507 C505 1.433 . S
C507 N510 1.384 . S
C508 H499 0.929 . S
C508 C500 1.378 . S
C508 C503 1.350 . S
C509 H496 0.929 . S
C509 C501 1.433 . S
C509 N511 1.384 . S
N510 C506 1.427 . S
N510 C507 1.384 . S
N511 C503 1.427 . S
N511 C509 1.384 . S
H512 C518 0.930 . S
H513 C522 0.930 . S
H514 C527 0.929 . S
H515 C525 0.929 . S
H516 C520 0.929 . S
H517 C526 0.929 . S
C518 H512 0.930 . S
C518 C519 1.367 . S
C518 C526 1.378 . S
C519 C518 1.367 . S
C519 C527 1.433 1_556 S
C520 H516 0.929 . S
C520 C522 1.378 . S
C520 C524 1.350 . S
C521 C524 1.463 1_566 S
C521 C526 1.350 . S
C521 N529 1.427 1_556 S
C522 H513 0.930 . S
C522 C520 1.378 . S
C522 C523 1.367 . S
C523 C522 1.367 . S
C523 C525 1.433 1_554 S
C524 C520 1.350 . S
C524 C521 1.463 1_544 S
C524 N528 1.427 1_554 S
C525 H515 0.929 . S
C525 C523 1.433 1_556 S
C525 N528 1.384 . S
C526 H517 0.929 . S
C526 C518 1.378 . S
C526 C521 1.350 . S
C527 H514 0.929 . S
C527 C519 1.433 1_554 S
C527 N529 1.384 . S
N528 C524 1.427 1_556 S
N528 C525 1.384 . S
N529 C521 1.427 1_554 S
N529 C527 1.384 . S
H530 C536 0.930 . S
H531 C540 0.930 . S
H532 C545 0.929 . S
H533 C543 0.929 . S
H534 C538 0.931 . S
H535 C544 0.931 . S
C536 H530 0.930 . S
C536 C537 1.367 . S
C536 C544 1.376 1_554 S
C537 C536 1.367 . S
C537 C545 1.433 . S
C538 H534 0.931 . S
C538 C540 1.376 1_554 S
C538 C542 1.349 1_554 S
C539 C542 1.463 1_554 S
C539 C544 1.349 1_554 S
C539 N547 1.427 . S
C540 H531 0.930 . S
C540 C538 1.376 1_556 S
C540 C541 1.367 . S
C541 C540 1.367 . S
C541 C543 1.433 . S
C542 C538 1.349 1_556 S
C542 C539 1.463 1_556 S
C542 N546 1.427 . S
C543 H533 0.929 . S
C543 C541 1.433 . S
C543 N546 1.384 . S
C544 H535 0.931 . S
C544 C536 1.376 1_556 S
C544 C539 1.349 1_556 S
C545 H532 0.929 . S
C545 C537 1.433 . S
C545 N547 1.384 . S
N546 C542 1.427 . S
N546 C543 1.384 . S
N547 C539 1.427 . S
N547 C545 1.384 . S
H548 C554 0.930 . S
H549 C558 0.930 . S
H550 C563 0.929 . S
H551 C561 0.929 . S
H552 C556 0.929 1_556 S
H553 C562 0.929 1_554 S
C554 H548 0.930 . S
C554 C555 1.367 . S
C554 C562 1.378 . S
C555 C554 1.367 . S
C555 C563 1.433 1_655 S
C556 H552 0.929 1_554 S
C556 C558 1.378 . S
C556 C560 1.350 . S
C557 C560 1.463 1_656 S
C557 C562 1.350 . S
C557 N565 1.427 1_655 S
C558 H549 0.930 . S
C558 C556 1.378 . S
C558 C559 1.367 . S
C559 C558 1.367 . S
C559 C561 1.433 1_455 S
C560 C556 1.350 . S
C560 C557 1.463 1_454 S
C560 N564 1.427 1_455 S
C561 H551 0.929 . S
C561 C559 1.433 1_655 S
C561 N564 1.384 . S
C562 H553 0.929 1_556 S
C562 C554 1.378 . S
C562 C557 1.350 . S
C563 H550 0.929 . S
C563 C555 1.433 1_455 S
C563 N565 1.384 . S
N564 C560 1.427 1_655 S
N564 C561 1.384 . S
N565 C557 1.427 1_455 S
N565 C563 1.384 . S
H566 C572 0.930 . S
H567 C576 0.930 . S
H568 C581 0.929 . S
H569 C579 0.929 . S
H570 C574 0.929 . S
H571 C580 0.929 . S
C572 H566 0.930 . S
C572 C573 1.367 . S
C572 C580 1.378 . S
C573 C572 1.367 . S
C573 C581 1.433 1_545 S
C574 H570 0.929 . S
C574 C576 1.378 . S
C574 C578 1.350 . S
C575 C578 1.463 1_444 S
C575 C580 1.350 . S
C575 N583 1.423 1_544 S
C576 H567 0.930 . S
C576 C574 1.378 . S
C576 C577 1.367 . S
C577 C576 1.367 . S
C577 C579 1.433 1_565 S
C578 C574 1.350 . S
C578 C575 1.463 1_666 S
C578 N582 1.423 1_566 S
C579 H569 0.929 . S
C579 C577 1.433 1_545 S
C579 N582 1.377 1_556 S
C580 H571 0.929 . S
C580 C572 1.378 . S
C580 C575 1.350 . S
C581 H568 0.929 . S
C581 C573 1.433 1_565 S
C581 N583 1.377 1_554 S
N582 C578 1.423 1_544 S
N582 C579 1.377 1_554 S
N583 C575 1.423 1_566 S
N583 C581 1.377 1_556 S
H584 C590 0.930 . S
H585 C594 0.930 . S
H586 C599 0.929 . S
H587 C597 0.929 . S
H588 C592 0.929 . S
H589 C598 0.929 . S
C590 H584 0.930 . S
C590 C591 1.367 . S
C590 C598 1.378 . S
C591 C590 1.367 . S
C591 C599 1.433 . S
C592 H588 0.929 . S
C592 C594 1.378 . S
C592 C596 1.350 . S
C593 C596 1.463 . S
C593 C598 1.350 . S
C593 N601 1.427 . S
C594 H585 0.930 . S
C594 C592 1.378 . S
C594 C595 1.367 . S
C595 C594 1.367 . S
C595 C597 1.433 . S
C596 C592 1.350 . S
C596 C593 1.463 . S
C596 N600 1.427 . S
C597 H587 0.929 . S
C597 C595 1.433 . S
C597 N600 1.384 . S
C598 H589 0.929 . S
C598 C590 1.378 . S
C598 C593 1.350 . S
C599 H586 0.929 . S
C599 C591 1.433 . S
C599 N601 1.384 . S
N600 C596 1.427 . S
N600 C597 1.384 . S
N601 C593 1.427 . S
N601 C599 1.384 . S
H602 C608 0.930 . S
H603 C612 0.930 . S
H604 C617 0.929 . S
H605 C615 0.929 . S
H606 C610 0.929 . S
H607 C616 0.929 . S
C608 H602 0.930 . S
C608 C609 1.367 . S
C608 C616 1.378 . S
C609 C608 1.367 . S
C609 C617 1.433 . S
C610 H606 0.929 . S
C610 C612 1.378 . S
C610 C614 1.350 . S
C611 C614 1.463 1_455 S
C611 C616 1.350 . S
C611 N619 1.427 . S
C612 H603 0.930 . S
C612 C610 1.378 . S
C612 C613 1.367 . S
C613 C612 1.367 . S
C613 C615 1.433 . S
C614 C610 1.350 . S
C614 C611 1.463 1_655 S
C614 N618 1.427 . S
C615 H605 0.929 . S
C615 C613 1.433 . S
C615 N618 1.384 . S
C616 H607 0.929 . S
C616 C608 1.378 . S
C616 C611 1.350 . S
C617 H604 0.929 . S
C617 C609 1.433 . S
C617 N619 1.384 . S
N618 C614 1.427 . S
N618 C615 1.384 . S
N619 C611 1.427 . S
N619 C617 1.384 . S
H620 C626 0.930 . S
H621 C630 0.930 . S
H622 C635 0.929 . S
H623 C633 0.929 . S
H624 C628 0.929 . S
H625 C634 0.929 . S
C626 H620 0.930 . S
C626 C627 1.367 . S
C626 C634 1.378 . S
C627 C626 1.367 . S
C627 C635 1.433 1_655 S
C628 H624 0.929 . S
C628 C630 1.378 . S
C628 C632 1.350 . S
C629 C632 1.463 1_665 S
C629 C634 1.350 . S
C629 N637 1.427 1_655 S
C630 H621 0.930 . S
C630 C628 1.378 . S
C630 C631 1.367 . S
C631 C630 1.367 . S
C631 C633 1.433 1_455 S
C632 C628 1.350 . S
C632 C629 1.463 1_445 S
C632 N636 1.427 1_455 S
C633 H623 0.929 . S
C633 C631 1.433 1_655 S
C633 N636 1.384 . S
C634 H625 0.929 . S
C634 C626 1.378 . S
C634 C629 1.350 . S
C635 H622 0.929 . S
C635 C627 1.433 1_455 S
C635 N637 1.384 . S
N636 C632 1.427 1_655 S
N636 C633 1.384 . S
N637 C629 1.427 1_455 S
N637 C635 1.384 . S
H638 C644 0.930 . S
H639 C648 0.930 . S
H640 C653 0.929 . S
H641 C651 0.929 . S
H642 C646 0.929 . S
H643 C652 0.929 . S
C644 H638 0.930 . S
C644 C645 1.367 . S
C644 C652 1.378 . S
C645 C644 1.367 . S
C645 C653 1.433 1_565 S
C646 H642 0.929 . S
C646 C648 1.378 . S
C646 C650 1.350 . S
C647 C650 1.463 1_565 S
C647 C652 1.350 . S
C647 N655 1.427 1_565 S
C648 H639 0.930 . S
C648 C646 1.378 . S
C648 C649 1.367 . S
C649 C648 1.367 . S
C649 C651 1.433 1_545 S
C650 C646 1.350 . S
C650 C647 1.463 1_545 S
C650 N654 1.427 1_545 S
C651 H641 0.929 . S
C651 C649 1.433 1_565 S
C651 N654 1.384 . S
C652 H643 0.929 . S
C652 C644 1.378 . S
C652 C647 1.350 . S
C653 H640 0.929 . S
C653 C645 1.433 1_545 S
C653 N655 1.384 . S
N654 C650 1.427 1_565 S
N654 C651 1.384 . S
N655 C647 1.427 1_545 S
N655 C653 1.384 . S
H656 C662 0.930 . S
H657 C666 0.930 . S
H658 C671 0.929 . S
H659 C669 0.929 . S
H660 C664 0.929 . S
H661 C670 0.929 . S
C662 H656 0.930 . S
C662 C663 1.367 . S
C662 C670 1.378 . S
C663 C662 1.367 . S
C663 C671 1.433 . S
C664 H660 0.929 . S
C664 C666 1.378 . S
C664 C668 1.350 . S
C665 C668 1.463 . S
C665 C670 1.350 . S
C665 N673 1.427 . S
C666 H657 0.930 . S
C666 C664 1.378 . S
C666 C667 1.367 . S
C667 C666 1.367 . S
C667 C669 1.433 . S
C668 C664 1.350 . S
C668 C665 1.463 . S
C668 N672 1.427 . S
C669 H659 0.929 . S
C669 C667 1.433 . S
C669 N672 1.384 . S
C670 H661 0.929 . S
C670 C662 1.378 . S
C670 C665 1.350 . S
C671 H658 0.929 . S
C671 C663 1.433 . S
C671 N673 1.384 . S
N672 C668 1.427 . S
N672 C669 1.384 . S
N673 C665 1.427 . S
N673 C671 1.384 . S
H674 C680 0.930 . S
H675 C684 0.930 . S
H676 C689 0.929 . S
H677 C687 0.929 . S
H678 C682 0.929 . S
H679 C688 0.929 . S
C680 H674 0.930 . S
C680 C681 1.367 . S
C680 C688 1.378 . S
C681 C680 1.367 . S
C681 C689 1.433 . S
C682 H678 0.929 . S
C682 C684 1.378 . S
C682 C686 1.350 . S
C683 C686 1.463 . S
C683 C688 1.350 . S
C683 N691 1.427 . S
C684 H675 0.930 . S
C684 C682 1.378 . S
C684 C685 1.367 . S
C685 C684 1.367 . S
C685 C687 1.433 . S
C686 C682 1.350 . S
C686 C683 1.463 . S
C686 N690 1.427 . S
C687 H677 0.929 . S
C687 C685 1.433 . S
C687 N690 1.384 . S
C688 H679 0.929 . S
C688 C680 1.378 . S
C688 C683 1.350 . S
C689 H676 0.929 . S
C689 C681 1.433 . S
C689 N691 1.384 . S
N690 C686 1.427 . S
N690 C687 1.384 . S
N691 C683 1.427 . S
N691 C689 1.384 . S
H692 C698 0.930 . S
H693 C702 0.930 . S
H694 C707 0.929 . S
H695 C705 0.929 . S
H696 C700 0.929 . S
H697 C706 0.929 . S
C698 H692 0.930 . S
C698 C699 1.367 1_455 S
C698 C706 1.378 . S
C699 C698 1.367 1_655 S
C699 C707 1.433 . S
C700 H696 0.929 . S
C700 C702 1.378 . S
C700 C704 1.350 . S
C701 C704 1.463 . S
C701 C706 1.350 1_655 S
C701 N709 1.427 . S
C702 H693 0.930 . S
C702 C700 1.378 . S
C702 C703 1.367 . S
C703 C702 1.367 . S
C703 C705 1.433 1_655 S
C704 C700 1.350 . S
C704 C701 1.463 . S
C704 N708 1.427 1_655 S
C705 H695 0.929 . S
C705 C703 1.433 1_455 S
C705 N708 1.384 . S
C706 H697 0.929 . S
C706 C698 1.378 . S
C706 C701 1.350 1_455 S
C707 H694 0.929 . S
C707 C699 1.433 . S
C707 N709 1.384 . S
N708 C704 1.427 1_455 S
N708 C705 1.384 . S
N709 C701 1.427 . S
N709 C707 1.384 . S
H710 C716 0.927 1_545 S
H711 C720 0.930 . S
H712 C725 0.929 . S
H713 C723 0.935 . S
H714 C718 0.929 . S
H715 C724 0.925 1_545 S
C716 H710 0.927 1_565 S
C716 C717 1.370 . S
C716 C724 1.378 . S
C717 C716 1.370 . S
C717 C725 1.433 . S
C718 H714 0.929 . S
C718 C720 1.378 . S
C718 C722 1.350 . S
C719 C722 1.463 . S
C719 C724 1.353 . S
C719 N727 1.427 . S
C720 H711 0.930 . S
C720 C718 1.378 . S
C720 C721 1.367 . S
C721 C720 1.367 . S
C721 C723 1.428 1_565 S
C722 C718 1.350 . S
C722 C719 1.463 . S
C722 N726 1.427 . S
C723 H713 0.935 . S
C723 C721 1.428 1_545 S
C723 N726 1.384 1_545 S
C724 H715 0.925 1_565 S
C724 C716 1.378 . S
C724 C719 1.353 . S
C725 H712 0.929 . S
C725 C717 1.433 . S
C725 N727 1.384 . S
N726 C722 1.427 . S
N726 C723 1.384 1_565 S
N727 C719 1.427 . S
N727 C725 1.384 . S
H728 C734 0.930 . S
H729 C738 0.930 . S
H730 C743 0.929 . S
H731 C741 0.929 . S
H732 C736 0.929 . S
H733 C742 0.929 . S
C734 H728 0.930 . S
C734 C735 1.367 . S
C734 C742 1.378 . S
C735 C734 1.367 . S
C735 C743 1.433 . S
C736 H732 0.929 . S
C736 C738 1.378 . S
C736 C740 1.350 . S
C737 C740 1.463 . S
C737 C742 1.350 . S
C737 N745 1.427 . S
C738 H729 0.930 . S
C738 C736 1.378 . S
C738 C739 1.367 . S
C739 C738 1.367 . S
C739 C741 1.433 . S
C740 C736 1.350 . S
C740 C737 1.463 . S
C740 N744 1.427 . S
C741 H731 0.929 . S
C741 C739 1.433 . S
C741 N744 1.384 . S
C742 H733 0.929 . S
C742 C734 1.378 . S
C742 C737 1.350 . S
C743 H730 0.929 . S
C743 C735 1.433 . S
C743 N745 1.384 . S
N744 C740 1.427 . S
N744 C741 1.384 . S
N745 C737 1.427 . S
N745 C743 1.384 . S
H746 C752 0.930 . S
H747 C756 0.930 . S
H748 C761 0.929 . S
H749 C759 0.929 . S
H750 C754 0.929 . S
H751 C760 0.929 . S
C752 H746 0.930 . S
C752 C753 1.367 . S
C752 C760 1.378 . S
C753 C752 1.367 . S
C753 C761 1.433 . S
C754 H750 0.929 . S
C754 C756 1.378 . S
C754 C758 1.350 . S
C755 C758 1.463 . S
C755 C760 1.350 . S
C755 N763 1.427 . S
C756 H747 0.930 . S
C756 C754 1.378 . S
C756 C757 1.367 . S
C757 C756 1.367 . S
C757 C759 1.433 . S
C758 C754 1.350 . S
C758 C755 1.463 . S
C758 N762 1.427 . S
C759 H749 0.929 . S
C759 C757 1.433 . S
C759 N762 1.384 . S
C760 H751 0.929 . S
C760 C752 1.378 . S
C760 C755 1.350 . S
C761 H748 0.929 . S
C761 C753 1.433 . S
C761 N763 1.384 . S
N762 C758 1.427 . S
N762 C759 1.384 . S
N763 C755 1.427 . S
N763 C761 1.384 . S
H764 C770 0.930 . S
H765 C774 0.930 . S
H766 C779 0.929 . S
H767 C777 0.929 . S
H768 C772 0.929 . S
H769 C778 0.929 . S
C770 H764 0.930 . S
C770 C771 1.367 . S
C770 C778 1.378 . S
C771 C770 1.367 . S
C771 C779 1.433 . S
C772 H768 0.929 . S
C772 C774 1.378 . S
C772 C776 1.350 . S
C773 C776 1.463 . S
C773 C778 1.350 . S
C773 N781 1.427 . S
C774 H765 0.930 . S
C774 C772 1.378 . S
C774 C775 1.367 . S
C775 C774 1.367 . S
C775 C777 1.433 . S
C776 C772 1.350 . S
C776 C773 1.463 . S
C776 N780 1.427 . S
C777 H767 0.929 . S
C777 C775 1.433 . S
C777 N780 1.384 . S
C778 H769 0.929 . S
C778 C770 1.378 . S
C778 C773 1.350 . S
C779 H766 0.929 . S
C779 C771 1.433 . S
C779 N781 1.384 . S
N780 C776 1.427 . S
N780 C777 1.384 . S
N781 C773 1.427 . S
N781 C779 1.384 . S
H782 C788 0.930 . S
H783 C792 0.930 . S
H784 C797 0.929 . S
H785 C795 0.929 . S
H786 C790 0.929 . S
H787 C796 0.929 . S
C788 H782 0.930 . S
C788 C789 1.367 . S
C788 C796 1.378 . S
C789 C788 1.367 . S
C789 C797 1.433 . S
C790 H786 0.929 . S
C790 C792 1.378 . S
C790 C794 1.350 . S
C791 C794 1.463 . S
C791 C796 1.350 . S
C791 N799 1.427 . S
C792 H783 0.930 . S
C792 C790 1.378 . S
C792 C793 1.367 . S
C793 C792 1.367 . S
C793 C795 1.433 . S
C794 C790 1.350 . S
C794 C791 1.463 . S
C794 N798 1.427 . S
C795 H785 0.929 . S
C795 C793 1.433 . S
C795 N798 1.384 . S
C796 H787 0.929 . S
C796 C788 1.378 . S
C796 C791 1.350 . S
C797 H784 0.929 . S
C797 C789 1.433 . S
C797 N799 1.384 . S
N798 C794 1.427 . S
N798 C795 1.384 . S
N799 C791 1.427 . S
N799 C797 1.384 . S
C231 C9 0.847 . S
C235 C133 0.863 . S
C249 C147 0.848 . S
C253 C23 0.829 . S
C267 C161 0.849 . S
C271 C37 0.847 . S
C285 C119 0.854 . S
C289 C51 0.819 . S
C303 C65 0.852 . S
C307 C217 0.853 . S
C321 C175 0.849 . S
C325 C79 0.824 . S
C339 C189 0.863 . S
C343 C93 0.845 . S
C357 C203 0.862 . S
C361 C107 0.848 . S
C375 C121 0.835 . S
C379 C21 0.865 . S
C393 C135 0.851 . S
C397 C35 0.851 . S
C411 C149 0.838 . S
C415 C49 0.847 . S
C429 C7 0.851 . S
C433 C163 0.822 . S
C447 C177 0.839 . S
C451 C105 0.847 . S
C465 C191 0.849 . S
C469 C63 0.861 . S
C483 C77 0.857 . S
C487 C205 0.853 . S
C501 C219 0.852 . S
C505 C91 0.852 . S
C519 C120 1.769 . S
C523 C8 1.769 . S
C537 C22 1.777 . S
C541 C134 1.777 . S
C555 C148 1.777 1_655 S
C559 C36 1.777 1_455 S
C573 C50 1.777 1_545 S
C577 C162 1.777 1_565 S
C591 C176 1.770 . S
C595 C64 1.770 . S
C609 C78 1.765 . S
C613 C190 1.765 . S
C627 C204 1.777 1_655 S
C631 C92 1.777 1_455 S
C645 C218 1.776 1_565 S
C649 C106 1.776 1_545 S
C663 C59 1.696 . S
C667 C3 1.698 . S
C681 C73 1.691 . S
C685 C17 1.694 . S
C699 C31 1.698 . S
C703 C87 1.694 . S
C717 C101 1.698 . S
C721 C45 1.695 . S
C735 C115 1.691 . S
C739 C171 1.693 . S
C753 C185 1.698 . S
C757 C129 1.696 . S
C771 C199 1.692 . S
C775 C143 1.691 . S
C789 C213 1.698 . S
C793 C157 1.698 . S
