# Generated by pormake.
# Topology som, (6)-cn, num edge types: 1
# Building blocks:
#     Node 0, Type 0, BuildingBlock: MIDCAF_clean_sbu_0, # of connection points: 6
#     Node 1, Type 0, BuildingBlock: MIDCAF_clean_sbu_0, # of connection points: 6
#     Node 2, Type 0, BuildingBlock: MIDCAF_clean_sbu_0, # of connection points: 6
#     Node 3, Type 0, BuildingBlock: MIDCAF_clean_sbu_0, # of connection points: 6
#     Node 4, Type 0, BuildingBlock: MIDCAF_clean_sbu_0, # of connection points: 6
#     Node 5, Type 0, BuildingBlock: MIDCAF_clean_sbu_0, # of connection points: 6
#     Node 6, Type 0, BuildingBlock: MIDCAF_clean_sbu_0, # of connection points: 6
#     Node 7, Type 0, BuildingBlock: MIDCAF_clean_sbu_0, # of connection points: 6
#     Node 8, Type 0, BuildingBlock: MIDCAF_clean_sbu_0, # of connection points: 6
#     Node 9, Type 0, BuildingBlock: MIDCAF_clean_sbu_0, # of connection points: 6
#     Node 10, Type 0, BuildingBlock: MIDCAF_clean_sbu_0, # of connection points: 6
#     Node 11, Type 0, BuildingBlock: MIDCAF_clean_sbu_0, # of connection points: 6
#     Node 12, Type 0, BuildingBlock: MIDCAF_clean_sbu_0, # of connection points: 6
#     Node 13, Type 0, BuildingBlock: MIDCAF_clean_sbu_0, # of connection points: 6
#     Node 14, Type 0, BuildingBlock: MIDCAF_clean_sbu_0, # of connection points: 6
#     Node 15, Type 0, BuildingBlock: MIDCAF_clean_sbu_0, # of connection points: 6
#     Node 16, Type 0, BuildingBlock: MIDCAF_clean_sbu_0, # of connection points: 6
#     Node 17, Type 0, BuildingBlock: MIDCAF_clean_sbu_0, # of connection points: 6
#     Node 18, Type 0, BuildingBlock: MIDCAF_clean_sbu_0, # of connection points: 6
#     Node 19, Type 0, BuildingBlock: MIDCAF_clean_sbu_0, # of connection points: 6
#     Node 20, Type 0, BuildingBlock: MIDCAF_clean_sbu_0, # of connection points: 6
#     Node 21, Type 0, BuildingBlock: MIDCAF_clean_sbu_0, # of connection points: 6
#     Node 22, Type 0, BuildingBlock: MIDCAF_clean_sbu_0, # of connection points: 6
#     Node 23, Type 0, BuildingBlock: MIDCAF_clean_sbu_0, # of connection points: 6
#     Node 24, Type 0, BuildingBlock: MIDCAF_clean_sbu_0, # of connection points: 6
#     Node 25, Type 0, BuildingBlock: MIDCAF_clean_sbu_0, # of connection points: 6
#     Node 26, Type 0, BuildingBlock: MIDCAF_clean_sbu_0, # of connection points: 6
#     Node 27, Type 0, BuildingBlock: MIDCAF_clean_sbu_0, # of connection points: 6
#     Node 28, Type 0, BuildingBlock: MIDCAF_clean_sbu_0, # of connection points: 6
#     Node 29, Type 0, BuildingBlock: MIDCAF_clean_sbu_0, # of connection points: 6
#     Node 30, Type 0, BuildingBlock: MIDCAF_clean_sbu_0, # of connection points: 6
#     Node 31, Type 0, BuildingBlock: MIDCAF_clean_sbu_0, # of connection points: 6
#     Edge 32, Type (0, 0), BuildingBlock: KIFKEQ_clean_linker_1, # of connection points: 2
#     Edge 33, Type (0, 0), BuildingBlock: KIFKEQ_clean_linker_1, # of connection points: 2
#     Edge 34, Type (0, 0), BuildingBlock: KIFKEQ_clean_linker_1, # of connection points: 2
#     Edge 35, Type (0, 0), BuildingBlock: KIFKEQ_clean_linker_1, # of connection points: 2
#     Edge 36, Type (0, 0), BuildingBlock: KIFKEQ_clean_linker_1, # of connection points: 2
#     Edge 37, Type (0, 0), BuildingBlock: KIFKEQ_clean_linker_1, # of connection points: 2
#     Edge 38, Type (0, 0), BuildingBlock: KIFKEQ_clean_linker_1, # of connection points: 2
#     Edge 39, Type (0, 0), BuildingBlock: KIFKEQ_clean_linker_1, # of connection points: 2
#     Edge 40, Type (0, 0), BuildingBlock: KIFKEQ_clean_linker_1, # of connection points: 2
#     Edge 41, Type (0, 0), BuildingBlock: KIFKEQ_clean_linker_1, # of connection points: 2
#     Edge 42, Type (0, 0), BuildingBlock: KIFKEQ_clean_linker_1, # of connection points: 2
#     Edge 43, Type (0, 0), BuildingBlock: KIFKEQ_clean_linker_1, # of connection points: 2
#     Edge 44, Type (0, 0), BuildingBlock: KIFKEQ_clean_linker_1, # of connection points: 2
#     Edge 45, Type (0, 0), BuildingBlock: KIFKEQ_clean_linker_1, # of connection points: 2
#     Edge 46, Type (0, 0), BuildingBlock: KIFKEQ_clean_linker_1, # of connection points: 2
#     Edge 47, Type (0, 0), BuildingBlock: KIFKEQ_clean_linker_1, # of connection points: 2
#     Edge 48, Type (0, 0), BuildingBlock: KIFKEQ_clean_linker_1, # of connection points: 2
#     Edge 49, Type (0, 0), BuildingBlock: KIFKEQ_clean_linker_1, # of connection points: 2
#     Edge 50, Type (0, 0), BuildingBlock: KIFKEQ_clean_linker_1, # of connection points: 2
#     Edge 51, Type (0, 0), BuildingBlock: KIFKEQ_clean_linker_1, # of connection points: 2
#     Edge 52, Type (0, 0), BuildingBlock: KIFKEQ_clean_linker_1, # of connection points: 2
#     Edge 53, Type (0, 0), BuildingBlock: KIFKEQ_clean_linker_1, # of connection points: 2
#     Edge 54, Type (0, 0), BuildingBlock: KIFKEQ_clean_linker_1, # of connection points: 2
#     Edge 55, Type (0, 0), BuildingBlock: KIFKEQ_clean_linker_1, # of connection points: 2
#     Edge 56, Type (0, 0), BuildingBlock: KIFKEQ_clean_linker_1, # of connection points: 2
#     Edge 57, Type (0, 0), BuildingBlock: KIFKEQ_clean_linker_1, # of connection points: 2
#     Edge 58, Type (0, 0), BuildingBlock: KIFKEQ_clean_linker_1, # of connection points: 2
#     Edge 59, Type (0, 0), BuildingBlock: KIFKEQ_clean_linker_1, # of connection points: 2
#     Edge 60, Type (0, 0), BuildingBlock: KIFKEQ_clean_linker_1, # of connection points: 2
#     Edge 61, Type (0, 0), BuildingBlock: KIFKEQ_clean_linker_1, # of connection points: 2
#     Edge 62, Type (0, 0), BuildingBlock: KIFKEQ_clean_linker_1, # of connection points: 2
#     Edge 63, Type (0, 0), BuildingBlock: KIFKEQ_clean_linker_1, # of connection points: 2
#     Edge 64, Type (0, 0), BuildingBlock: KIFKEQ_clean_linker_1, # of connection points: 2
#     Edge 65, Type (0, 0), BuildingBlock: KIFKEQ_clean_linker_1, # of connection points: 2
#     Edge 66, Type (0, 0), BuildingBlock: KIFKEQ_clean_linker_1, # of connection points: 2
#     Edge 67, Type (0, 0), BuildingBlock: KIFKEQ_clean_linker_1, # of connection points: 2
#     Edge 68, Type (0, 0), BuildingBlock: KIFKEQ_clean_linker_1, # of connection points: 2
#     Edge 69, Type (0, 0), BuildingBlock: KIFKEQ_clean_linker_1, # of connection points: 2
#     Edge 70, Type (0, 0), BuildingBlock: KIFKEQ_clean_linker_1, # of connection points: 2
#     Edge 71, Type (0, 0), BuildingBlock: KIFKEQ_clean_linker_1, # of connection points: 2
#     Edge 72, Type (0, 0), BuildingBlock: KIFKEQ_clean_linker_1, # of connection points: 2
#     Edge 73, Type (0, 0), BuildingBlock: KIFKEQ_clean_linker_1, # of connection points: 2
#     Edge 74, Type (0, 0), BuildingBlock: KIFKEQ_clean_linker_1, # of connection points: 2
#     Edge 75, Type (0, 0), BuildingBlock: KIFKEQ_clean_linker_1, # of connection points: 2
#     Edge 76, Type (0, 0), BuildingBlock: KIFKEQ_clean_linker_1, # of connection points: 2
#     Edge 77, Type (0, 0), BuildingBlock: KIFKEQ_clean_linker_1, # of connection points: 2
#     Edge 78, Type (0, 0), BuildingBlock: KIFKEQ_clean_linker_1, # of connection points: 2
#     Edge 79, Type (0, 0), BuildingBlock: KIFKEQ_clean_linker_1, # of connection points: 2
#     Edge 80, Type (0, 0), BuildingBlock: KIFKEQ_clean_linker_1, # of connection points: 2
#     Edge 81, Type (0, 0), BuildingBlock: KIFKEQ_clean_linker_1, # of connection points: 2
#     Edge 82, Type (0, 0), BuildingBlock: KIFKEQ_clean_linker_1, # of connection points: 2
#     Edge 83, Type (0, 0), BuildingBlock: KIFKEQ_clean_linker_1, # of connection points: 2
#     Edge 84, Type (0, 0), BuildingBlock: KIFKEQ_clean_linker_1, # of connection points: 2
#     Edge 85, Type (0, 0), BuildingBlock: KIFKEQ_clean_linker_1, # of connection points: 2
#     Edge 86, Type (0, 0), BuildingBlock: KIFKEQ_clean_linker_1, # of connection points: 2
#     Edge 87, Type (0, 0), BuildingBlock: KIFKEQ_clean_linker_1, # of connection points: 2
#     Edge 88, Type (0, 0), BuildingBlock: KIFKEQ_clean_linker_1, # of connection points: 2
#     Edge 89, Type (0, 0), BuildingBlock: KIFKEQ_clean_linker_1, # of connection points: 2
#     Edge 90, Type (0, 0), BuildingBlock: KIFKEQ_clean_linker_1, # of connection points: 2
#     Edge 91, Type (0, 0), BuildingBlock: KIFKEQ_clean_linker_1, # of connection points: 2
#     Edge 92, Type (0, 0), BuildingBlock: KIFKEQ_clean_linker_1, # of connection points: 2
#     Edge 93, Type (0, 0), BuildingBlock: KIFKEQ_clean_linker_1, # of connection points: 2
#     Edge 94, Type (0, 0), BuildingBlock: KIFKEQ_clean_linker_1, # of connection points: 2
#     Edge 95, Type (0, 0), BuildingBlock: KIFKEQ_clean_linker_1, # of connection points: 2
#     Edge 96, Type (0, 0), BuildingBlock: KIFKEQ_clean_linker_1, # of connection points: 2
#     Edge 97, Type (0, 0), BuildingBlock: KIFKEQ_clean_linker_1, # of connection points: 2
#     Edge 98, Type (0, 0), BuildingBlock: KIFKEQ_clean_linker_1, # of connection points: 2
#     Edge 99, Type (0, 0), BuildingBlock: KIFKEQ_clean_linker_1, # of connection points: 2
#     Edge 100, Type (0, 0), BuildingBlock: KIFKEQ_clean_linker_1, # of connection points: 2
#     Edge 101, Type (0, 0), BuildingBlock: KIFKEQ_clean_linker_1, # of connection points: 2
#     Edge 102, Type (0, 0), BuildingBlock: KIFKEQ_clean_linker_1, # of connection points: 2
#     Edge 103, Type (0, 0), BuildingBlock: KIFKEQ_clean_linker_1, # of connection points: 2
#     Edge 104, Type (0, 0), BuildingBlock: KIFKEQ_clean_linker_1, # of connection points: 2
#     Edge 105, Type (0, 0), BuildingBlock: KIFKEQ_clean_linker_1, # of connection points: 2
#     Edge 106, Type (0, 0), BuildingBlock: KIFKEQ_clean_linker_1, # of connection points: 2
#     Edge 107, Type (0, 0), BuildingBlock: KIFKEQ_clean_linker_1, # of connection points: 2
#     Edge 108, Type (0, 0), BuildingBlock: KIFKEQ_clean_linker_1, # of connection points: 2
#     Edge 109, Type (0, 0), BuildingBlock: KIFKEQ_clean_linker_1, # of connection points: 2
#     Edge 110, Type (0, 0), BuildingBlock: KIFKEQ_clean_linker_1, # of connection points: 2
#     Edge 111, Type (0, 0), BuildingBlock: KIFKEQ_clean_linker_1, # of connection points: 2
#     Edge 112, Type (0, 0), BuildingBlock: KIFKEQ_clean_linker_1, # of connection points: 2
#     Edge 113, Type (0, 0), BuildingBlock: KIFKEQ_clean_linker_1, # of connection points: 2
#     Edge 114, Type (0, 0), BuildingBlock: KIFKEQ_clean_linker_1, # of connection points: 2
#     Edge 115, Type (0, 0), BuildingBlock: KIFKEQ_clean_linker_1, # of connection points: 2
#     Edge 116, Type (0, 0), BuildingBlock: KIFKEQ_clean_linker_1, # of connection points: 2
#     Edge 117, Type (0, 0), BuildingBlock: KIFKEQ_clean_linker_1, # of connection points: 2
#     Edge 118, Type (0, 0), BuildingBlock: KIFKEQ_clean_linker_1, # of connection points: 2
#     Edge 119, Type (0, 0), BuildingBlock: KIFKEQ_clean_linker_1, # of connection points: 2
#     Edge 120, Type (0, 0), BuildingBlock: KIFKEQ_clean_linker_1, # of connection points: 2
#     Edge 121, Type (0, 0), BuildingBlock: KIFKEQ_clean_linker_1, # of connection points: 2
#     Edge 122, Type (0, 0), BuildingBlock: KIFKEQ_clean_linker_1, # of connection points: 2
#     Edge 123, Type (0, 0), BuildingBlock: KIFKEQ_clean_linker_1, # of connection points: 2
#     Edge 124, Type (0, 0), BuildingBlock: KIFKEQ_clean_linker_1, # of connection points: 2
#     Edge 125, Type (0, 0), BuildingBlock: KIFKEQ_clean_linker_1, # of connection points: 2
#     Edge 126, Type (0, 0), BuildingBlock: KIFKEQ_clean_linker_1, # of connection points: 2
#     Edge 127, Type (0, 0), BuildingBlock: KIFKEQ_clean_linker_1, # of connection points: 2
# Relax obj value: 0.165
# Max RMSD: 0.191
# Mean RMSD: 0.191
data_MOF--net-som--node1-MIDCAF_clean_sbu_0--edge1-KIFKEQ_clean_linker_1
_symmetry_space_group_name_H-M    P1
_symmetry_Int_Tables_number       1
_symmetry_cell_setting            triclinic
loop_
_symmetry_equiv_pos_as_xyz
'x, y, z'
_cell_length_a     15.380225
_cell_length_b     58.691147
_cell_length_c     122.62872
_cell_angle_alpha  89.962375
_cell_angle_beta   90.078213
_cell_angle_gamma 90.070229
loop_
_atom_site_label
_atom_site_type_symbol
_atom_site_fract_x
_atom_site_fract_y
_atom_site_fract_z
_atom_type_partial_charge
Zn0 Zn 0.91334 0.53157 0.07474 0.0
Zn1 Zn 0.10771 0.49837 0.05342 0.0
Zn2 Zn 0.00362 0.50556 0.06577 0.0
C3 C 0.19196 0.50123 0.07235 0.0
C4 C 0.96653 0.50687 0.04207 0.0
O5 O 0.87055 0.49517 0.06105 0.0
O6 O 0.79926 0.52338 0.0688 0.0
C7 C 0.9894 0.4984 0.08988 0.0
O8 O 0.11855 0.49197 0.07485 0.0
O9 O 0.19796 0.51185 0.0634 0.0
O10 O 0.04172 0.51554 0.04221 0.0
O11 O 0.93826 0.49638 0.05054 0.0
O12 O 0.9428 0.51608 0.08893 0.0
O13 O 0.02724 0.48981 0.08149 0.0
O14 O 0.06067 0.53882 0.06248 0.0
O15 O 0.96509 0.56122 0.07029 0.0
C16 C 0.03352 0.55878 0.06476 0.0
O17 O 0.0551 0.47261 0.07156 0.0
O18 O 0.0867 0.46367 0.05464 0.0
C19 C 0.79862 0.50508 0.06343 0.0
C20 C 0.06954 0.45719 0.06426 0.0
Zn21 Zn 0.40907 0.74132 0.07856 0.0
Zn22 Zn 0.20986 0.76918 0.05616 0.0
Zn23 Zn 0.31494 0.7648 0.06859 0.0
C24 C 0.12411 0.76094 0.07438 0.0
C25 C 0.34922 0.77258 0.04475 0.0
O26 O 0.44042 0.7797 0.06411 0.0
O27 O 0.51824 0.75399 0.0729 0.0
C28 C 0.31501 0.77108 0.09325 0.0
O29 O 0.19163 0.77237 0.07742 0.0
O30 O 0.12728 0.7505 0.06535 0.0
O31 O 0.28785 0.7582 0.04431 0.0
O32 O 0.37003 0.78101 0.05406 0.0
O33 O 0.36985 0.75504 0.09268 0.0
O34 O 0.27752 0.77834 0.08452 0.0
O35 O 0.2782 0.73026 0.06417 0.0
O36 O 0.37228 0.71034 0.07367 0.0
C37 C 0.30971 0.71105 0.06701 0.0
O38 O 0.24424 0.79448 0.07503 0.0
O39 O 0.20569 0.80408 0.05839 0.0
C40 C 0.51424 0.77172 0.0671 0.0
C41 C 0.22008 0.80997 0.06817 0.0
Zn42 Zn 0.97497 0.74624 0.18049 0.0
Zn43 Zn 0.09098 0.81566 0.20226 0.0
Zn44 Zn 0.03186 0.78067 0.19207 0.0
C45 C 0.21177 0.80733 0.18629 0.0
C46 C 0.10013 0.77919 0.21694 0.0
O47 O 0.89645 0.78889 0.18736 0.0
O48 O 0.85656 0.75833 0.17803 0.0
C49 C 0.10781 0.76451 0.16847 0.0
O50 O 0.1563 0.79129 0.18441 0.0
O51 O 0.1968 0.82177 0.19366 0.0
O52 O 0.11295 0.8004 0.2163 0.0
O53 O 0.06752 0.76829 0.20875 0.0
O54 O 0.05556 0.74796 0.16803 0.0
O55 O 0.10946 0.77755 0.17692 0.0
O56 O 0.03315 0.74927 0.2029 0.0
O57 O 0.99056 0.72217 0.1915 0.0
C58 C 0.01568 0.72811 0.20087 0.0
O59 O 0.93409 0.80951 0.19114 0.0
O60 O -0.00491 0.83735 0.20055 0.0
C61 C 0.83872 0.77768 0.18191 0.0
C62 C 0.93353 0.83031 0.19463 0.0
Zn63 Zn 0.01362 0.4887 0.19589 0.0
Zn64 Zn 0.1156 0.55883 0.18278 0.0
Zn65 Zn 0.0751 0.52387 0.19112 0.0
C66 C 0.04144 0.57277 0.20141 0.0
C67 C 0.03118 0.53643 0.16661 0.0
O68 O 0.178 0.49738 0.18916 0.0
O69 O 0.08674 0.46877 0.187 0.0
C70 C 0.04875 0.51171 0.21535 0.0
O71 O 0.06132 0.55192 0.2037 0.0
O72 O 0.0445 0.57947 0.19165 0.0
O73 O 0.08512 0.5525 0.16747 0.0
O74 O 0.00532 0.52611 0.17532 0.0
O75 O 0.03982 0.49191 0.2115 0.0
O76 O 0.05448 0.52884 0.20881 0.0
O77 O 0.94793 0.5171 0.18263 0.0
O78 O 0.89176 0.48869 0.19208 0.0
C79 C 0.88354 0.50369 0.18482 0.0
O80 O 0.20893 0.51998 0.18601 0.0
O81 O 0.24249 0.55649 0.18568 0.0
C82 C 0.16299 0.47649 0.18649 0.0
C83 C 0.2657 0.5359 0.18505 0.0
Zn84 Zn 0.77636 0.55307 0.94467 0.0
Zn85 Zn 0.00187 0.51599 0.92778 0.0
Zn86 Zn 0.89304 0.52986 0.93943 0.0
C87 C 0.89081 0.47928 0.93309 0.0
C88 C 0.93711 0.54565 0.91422 0.0
O89 O 0.89491 0.56605 0.93233 0.0
O90 O 0.79536 0.58521 0.94141 0.0
C91 C 0.87661 0.53731 0.96322 0.0
O92 O 0.84107 0.49564 0.9362 0.0
O93 O 0.96659 0.4838 0.92977 0.0
O94 O 0.98657 0.52871 0.91325 0.0
O95 O 0.90282 0.55 0.92363 0.0
O96 O 0.80244 0.54398 0.96008 0.0
O97 O 0.93572 0.53311 0.95611 0.0
O98 O 0.76745 0.50987 0.94104 0.0
O99 O 0.67741 0.53798 0.93746 0.0
C100 C 0.68938 0.5171 0.93927 0.0
O101 O 0.01292 0.52404 0.94966 0.0
O102 O 0.10484 0.5259 0.93593 0.0
C103 C 0.85835 0.58523 0.93488 0.0
C104 C 0.09164 0.52471 0.94604 0.0
Zn105 Zn 0.88217 0.23562 0.95476 0.0
Zn106 Zn 0.69971 0.27276 0.92818 0.0
Zn107 Zn 0.79164 0.25897 0.94221 0.0
C108 C 0.78667 0.3103 0.93763 0.0
C109 C 0.79516 0.24666 0.91596 0.0
O110 O 0.83209 0.22596 0.93439 0.0
O111 O 0.92094 0.20935 0.94609 0.0
C112 C 0.72355 0.23849 0.96511 0.0
O113 O 0.83821 0.29447 0.94097 0.0
O114 O 0.71764 0.30492 0.93267 0.0
O115 O 0.74613 0.26336 0.91405 0.0
O116 O 0.81213 0.24122 0.92596 0.0
O117 O 0.7957 0.22848 0.96588 0.0
O118 O 0.70805 0.25133 0.95678 0.0
O119 O 0.90539 0.28108 0.94632 0.0
O120 O 0.96883 0.25885 0.95848 0.0
C121 C 0.96778 0.27719 0.95312 0.0
O122 O 0.65345 0.26235 0.94827 0.0
O123 O 0.58771 0.25958 0.93236 0.0
C124 C 0.88098 0.20894 0.93711 0.0
C125 C 0.58281 0.26082 0.94259 0.0
Zn126 Zn 0.13728 0.28185 0.8336 0.0
Zn127 Zn 0.98673 0.22208 0.81036 0.0
Zn128 Zn 0.06597 0.25398 0.82009 0.0
C129 C 0.87802 0.25906 0.80844 0.0
C130 C 0.14091 0.22987 0.79866 0.0
O131 O 0.19561 0.26157 0.81297 0.0
O132 O 0.24801 0.28442 0.82574 0.0
C133 C 0.09194 0.24749 0.84692 0.0
O134 O 0.93935 0.26816 0.81418 0.0
O135 O 0.88373 0.23857 0.80548 0.0
O136 O 0.07579 0.21683 0.79916 0.0
O137 O 0.15123 0.2456 0.80591 0.0
O138 O 0.13248 0.26608 0.8478 0.0
O139 O 0.0666 0.2407 0.8374 0.0
O140 O 0.98735 0.28611 0.81929 0.0
O141 O 0.05689 0.30751 0.83134 0.0
C142 C -0.00251 0.30523 0.82433 0.0
O143 O 0.0566 0.22179 0.83009 0.0
O144 O 0.97265 0.19759 0.82115 0.0
C145 C 0.25702 0.27434 0.81673 0.0
C146 C 0.02 0.20201 0.82927 0.0
Zn147 Zn 0.84942 0.5425 0.8033 0.0
Zn148 Zn 0.70826 0.49514 0.83237 0.0
Zn149 Zn 0.77483 0.5185 0.81717 0.0
C150 C 0.84344 0.46868 0.82524 0.0
C151 C 0.74336 0.53537 0.84241 0.0
O152 O 0.80431 0.55317 0.82426 0.0
O153 O 0.8874 0.56906 0.81173 0.0
C154 C 0.68539 0.53591 0.79495 0.0
O155 O 0.84823 0.48546 0.81844 0.0
O156 O 0.79098 0.46963 0.83312 0.0
O157 O 0.70529 0.51685 0.8445 0.0
O158 O 0.77424 0.53889 0.83276 0.0
O159 O 0.75199 0.54798 0.79336 0.0
O160 O 0.68148 0.52272 0.80336 0.0
O161 O 0.89909 0.50136 0.81209 0.0
O162 O 0.9421 0.52238 0.79819 0.0
C163 C 0.95427 0.50559 0.80441 0.0
O164 O 0.64042 0.50935 0.81155 0.0
O165 O 0.59714 0.48778 0.82528 0.0
C166 C 0.85036 0.57021 0.82086 0.0
C167 C 0.58238 0.49655 0.81607 0.0
Zn168 Zn 0.0133 0.98307 0.55326 0.0
Zn169 Zn 0.86474 0.03803 0.57664 0.0
Zn170 Zn 0.93993 1.0116 0.56453 0.0
C171 C 0.01362 0.06068 0.5717 0.0
C172 C 0.87846 1.0017 0.58971 0.0
O173 O 0.961 0.97947 0.57429 0.0
O174 O 0.04846 0.95965 0.5637 0.0
C175 C 0.86242 0.98949 0.54235 0.0
O176 O 0.01954 0.0435 0.56519 0.0
O177 O 0.95426 0.06131 0.57875 0.0
O178 O 0.83484 0.01983 0.58943 0.0
O179 O 0.92414 0.99593 0.58131 0.0
O180 O 0.92181 0.97475 0.54283 0.0
O181 O 0.85819 1.0051 0.54975 0.0
O182 O 0.06844 0.02658 0.5593 0.0
O183 O 0.10894 1.00099 0.54719 0.0
C184 C 0.12322 0.0195 0.55208 0.0
O185 O 0.80954 0.01969 0.55695 0.0
O186 O 0.76662 0.04762 0.56766 0.0
C187 C 0.00799 0.96159 0.57257 0.0
C188 C 0.75337 0.03518 0.55946 0.0
Zn189 Zn 0.30188 0.24198 0.58561 0.0
Zn190 Zn 0.15804 0.30042 0.56491 0.0
Zn191 Zn 0.23337 0.27165 0.57474 0.0
C192 C 0.04432 0.26584 0.56316 0.0
C193 C 0.29913 0.29355 0.55246 0.0
O194 O 0.35884 0.26265 0.56643 0.0
O195 O 0.39443 0.2319 0.5757 0.0
C196 C 0.31596 0.27939 0.59866 0.0
O197 O 0.09945 0.25827 0.57026 0.0
O198 O 0.06029 0.28425 0.55829 0.0
O199 O 0.24768 0.30975 0.55439 0.0
O200 O 0.3046 0.27703 0.55934 0.0
O201 O 0.34514 0.25942 0.59801 0.0
O202 O 0.26698 0.28731 0.59099 0.0
O203 O 0.14859 0.24051 0.57546 0.0
O204 O 0.20939 0.21984 0.5884 0.0
C205 C 0.15048 0.22229 0.58135 0.0
O206 O 0.22499 0.3043 0.58464 0.0
O207 O 0.12426 0.32319 0.57567 0.0
C208 C 0.41126 0.24587 0.56818 0.0
C209 C 0.17582 0.32205 0.58362 0.0
Zn210 Zn 0.16614 0.23633 0.68354 0.0
Zn211 Zn 0.28883 0.29257 0.71074 0.0
Zn212 Zn 0.21876 0.26397 0.69841 0.0
C213 C 0.404 0.29149 0.69463 0.0
C214 C 0.28417 0.25201 0.72256 0.0
O215 O 0.08585 0.2755 0.69424 0.0
O216 O 0.05168 0.25098 0.68123 0.0
C217 C 0.29851 0.25752 0.67361 0.0
O218 O 0.34694 0.27643 0.69178 0.0
O219 O 0.39151 0.30332 0.70304 0.0
O220 O 0.31184 0.27221 0.723 0.0
O221 O 0.24469 0.24487 0.71391 0.0
O222 O 0.25096 0.24049 0.67166 0.0
O223 O 0.29579 0.26719 0.68305 0.0
O224 O 0.21069 0.22874 0.70615 0.0
O225 O 0.16504 0.20818 0.69214 0.0
C226 C 0.1866 0.20942 0.70205 0.0
O227 O 0.12417 0.29264 0.70088 0.0
O228 O 0.19583 0.31466 0.71239 0.0
C229 C 0.03137 0.26775 0.68714 0.0
C230 C 0.12931 0.31096 0.70666 0.0
Zn231 Zn 0.21621 0.0279 0.67408 0.0
Zn232 Zn 0.09915 0.96312 0.69857 0.0
Zn233 Zn 0.16122 0.99676 0.68772 0.0
C234 C 0.97989 0.96849 0.68267 0.0
C235 C 0.09057 1.0023 0.71198 0.0
O236 O 0.29533 0.98717 0.68286 0.0
O237 O 0.3303 1.01371 0.67082 0.0
C238 C 0.07613 1.00944 0.66382 0.0
O239 O 0.03383 0.98495 0.68082 0.0
O240 O -0.00269 0.95389 0.6899 0.0
O241 O 0.07081 0.98145 0.7115 0.0
O242 O 0.12946 1.01196 0.70388 0.0
O243 O 0.12637 0.02622 0.66251 0.0
O244 O 0.0802 0.99749 0.67264 0.0
O245 O 0.1678 0.02965 0.69736 0.0
O246 O 0.21735 0.0532 0.6847 0.0
C247 C 0.19381 0.0497 0.69442 0.0
O248 O 0.25998 0.96854 0.68866 0.0
O249 O 0.19927 0.94248 0.69923 0.0
C250 C 0.35021 0.99601 0.67611 0.0
C251 C 0.26263 0.94903 0.69353 0.0
Zn252 Zn 0.95255 1.00381 0.42784 0.0
Zn253 Zn 0.83986 0.06981 0.4523 0.0
Zn254 Zn 0.89809 0.03553 0.44121 0.0
C255 C 0.7162 0.06319 0.43671 0.0
C256 C 0.83592 0.03097 0.46595 0.0
O257 O 0.03242 0.04445 0.43627 0.0
O258 O 0.06833 0.01707 0.42473 0.0
C259 C 0.8119 0.0224 0.41763 0.0
O260 O 0.77111 0.04724 0.43448 0.0
O261 O 0.73284 0.07725 0.44419 0.0
O262 O 0.82092 0.05211 0.46574 0.0
O263 O 0.86805 0.02093 0.45752 0.0
O264 O 0.86343 1.00596 0.41625 0.0
O265 O 0.81546 0.03437 0.42643 0.0
O266 O 0.90249 1.00276 0.45102 0.0
O267 O 0.94922 0.97865 0.43846 0.0
C268 C 0.92564 0.98246 0.44814 0.0
O269 O -0.0042 0.06423 0.44102 0.0
O270 O 0.93729 0.0913 0.45114 0.0
C271 C 0.08805 0.03503 0.42982 0.0
C272 C -0.00181 0.08454 0.44508 0.0
Zn273 Zn 0.95003 0.74244 0.44898 0.0
Zn274 Zn 0.83875 0.80769 0.42917 0.0
Zn275 Zn 0.88219 0.77451 0.44123 0.0
C276 C 0.87067 0.82588 0.44999 0.0
C277 C 0.9609 0.78704 0.41689 0.0
O278 O 0.78884 0.74579 0.43941 0.0
O279 O 0.88941 0.71918 0.44048 0.0
C280 C 0.89593 0.76804 0.46659 0.0
O281 O 0.87883 0.80466 0.45261 0.0
O282 O 0.85875 0.83151 0.44016 0.0
O283 O 0.91247 0.80429 0.41617 0.0
O284 O 0.96413 0.77586 0.42599 0.0
O285 O 0.91342 0.74779 0.46396 0.0
O286 O 0.88956 0.78338 0.45906 0.0
O287 O 0.01376 0.76672 0.43432 0.0
O288 O 0.07356 0.74323 0.44624 0.0
C289 C 0.07976 0.75517 0.43776 0.0
O290 O 0.7519 0.76644 0.43529 0.0
O291 O 0.71753 0.7981 0.42653 0.0
C292 C 0.81278 0.72491 0.43819 0.0
C293 C 0.69728 0.7784 0.42978 0.0
Zn294 Zn 0.18871 0.77343 0.32885 0.0
Zn295 Zn -0.00766 0.73528 0.30507 0.0
Zn296 Zn 0.08031 0.75828 0.3168 0.0
C297 C 0.90607 0.77595 0.30534 0.0
C298 C 0.1366 0.73571 0.29349 0.0
O299 O 0.21269 0.76126 0.30837 0.0
O300 O 0.29979 0.7669 0.32243 0.0
C301 C 0.11628 0.74554 0.34277 0.0
O302 O 0.96198 0.77924 0.31305 0.0
O303 O 0.91338 0.75871 0.2993 0.0
O304 O 0.07224 0.72254 0.29427 0.0
O305 O 0.15059 0.75052 0.30111 0.0
O306 O 0.17421 0.76063 0.34318 0.0
O307 O 0.07756 0.74132 0.33361 0.0
O308 O 0.02912 0.79327 0.31858 0.0
O309 O 0.14775 0.80503 0.3269 0.0
C310 C 0.0753 0.80957 0.32257 0.0
O311 O 0.04117 0.72596 0.32569 0.0
O312 O 0.93863 0.71286 0.31481 0.0
C313 C 0.29 0.76378 0.31237 0.0
C314 C 0.98191 0.71098 0.32348 0.0
Zn315 Zn 0.70812 0.98692 0.33007 0.0
Zn316 Zn 0.84358 0.05051 0.30817 0.0
Zn317 Zn 0.77797 0.01767 0.31891 0.0
C318 C 0.97699 0.01915 0.31099 0.0
C319 C 0.7197 0.03171 0.29473 0.0
O320 O 0.65674 1.00587 0.31043 0.0
O321 O 0.61498 0.97652 0.32036 0.0
C322 C 0.69535 0.02488 0.34295 0.0
O323 O 0.9153 1.00744 0.3154 0.0
O324 O 0.96217 0.03891 0.30742 0.0
O325 O 0.7731 0.04802 0.29482 0.0
O326 O 0.70993 0.0191 0.30323 0.0
O327 O 0.66901 1.00455 0.34268 0.0
O328 O 0.74018 0.03296 0.33493 0.0
O329 O 0.87201 0.98872 0.32046 0.0
O330 O 0.80505 0.96591 0.33211 0.0
C331 C 0.86928 0.97011 0.32607 0.0
O332 O 0.76976 0.05092 0.32834 0.0
O333 O 0.82807 0.07683 0.31747 0.0
C334 C 0.60251 0.98952 0.31233 0.0
C335 C 0.79184 0.07181 0.32635 0.0
Zn336 Zn 0.45829 0.55298 0.5807 0.0
Zn337 Zn 0.56888 0.47719 0.56525 0.0
Zn338 Zn 0.51185 0.51606 0.57163 0.0
C339 C 0.69473 0.49158 0.57892 0.0
C340 C 0.55656 0.50629 0.54688 0.0
O341 O 0.37553 0.51095 0.57696 0.0
O342 O 0.33655 0.54452 0.58352 0.0
C343 C 0.58245 0.53616 0.59454 0.0
O344 O 0.63676 0.50734 0.57991 0.0
O345 O 0.68194 0.4752 0.57248 0.0
O346 O 0.56922 0.48594 0.54981 0.0
O347 O 0.53691 0.52162 0.554 0.0
O348 O 0.53312 0.55323 0.59375 0.0
O349 O 0.58716 0.52171 0.58666 0.0
O350 O 0.5264 0.54425 0.55894 0.0
O351 O 0.48301 0.57379 0.56871 0.0
C352 C 0.51278 0.56593 0.55991 0.0
O353 O 0.40977 0.48934 0.57478 0.0
O354 O 0.47762 0.45714 0.57086 0.0
C355 C 0.318 0.52411 0.5813 0.0
C356 C 0.41207 0.46734 0.57457 0.0
Zn357 Zn 0.77838 0.72806 0.58238 0.0
Zn358 Zn 0.66424 0.79911 0.56131 0.0
Zn359 Zn 0.72531 0.76266 0.57081 0.0
C360 C 0.53564 0.78666 0.5751 0.0
C361 C 0.70402 0.76724 0.54485 0.0
O362 O 0.85676 0.77013 0.57723 0.0
O363 O 0.89676 0.73874 0.58588 0.0
C364 C 0.638 0.74504 0.59357 0.0
O365 O 0.59548 0.77207 0.57749 0.0
O366 O 0.54758 0.80094 0.56757 0.0
O367 O 0.67836 0.78741 0.54637 0.0
O368 O 0.72086 0.75414 0.55306 0.0
O369 O 0.69316 0.72925 0.59439 0.0
O370 O 0.63757 0.75809 0.58509 0.0
O371 O 0.72358 0.73254 0.55923 0.0
O372 O 0.76321 0.70539 0.57073 0.0
C373 C 0.73886 0.71129 0.5613 0.0
O374 O 0.82031 0.79066 0.57363 0.0
O375 O 0.75092 0.82075 0.56709 0.0
C376 C 0.9137 0.75869 0.58269 0.0
C377 C 0.81498 0.81234 0.57208 0.0
Zn378 Zn 0.34815 0.72568 0.68664 0.0
Zn379 Zn 0.54322 0.76001 0.70696 0.0
Zn380 Zn 0.43908 0.75262 0.69478 0.0
C381 C 0.62864 0.75124 0.68865 0.0
C382 C 0.40302 0.76224 0.71832 0.0
O383 O 0.31182 0.76698 0.69878 0.0
O384 O 0.23677 0.73923 0.69112 0.0
C385 C 0.43707 0.75223 0.66995 0.0
O386 O 0.55873 0.76135 0.68544 0.0
O387 O 0.62905 0.742 0.69798 0.0
O388 O 0.46686 0.7487 0.71899 0.0
O389 O 0.38131 0.7699 0.70889 0.0
O390 O 0.38834 0.7352 0.67173 0.0
O391 O 0.47072 0.7631 0.67805 0.0
O392 O 0.4837 0.71956 0.70102 0.0
O393 O 0.38581 0.6968 0.69387 0.0
C394 C 0.45119 0.69965 0.69995 0.0
O395 O 0.50001 0.78278 0.68722 0.0
O396 O 0.53493 0.79443 0.70367 0.0
C397 C 0.23885 0.75805 0.69607 0.0
C398 C 0.51828 0.7993 0.69381 0.0
Zn399 Zn 0.5706 0.46394 0.70667 0.0
Zn400 Zn 0.71907 0.52715 0.68774 0.0
Zn401 Zn 0.64663 0.49481 0.69659 0.0
C402 C 0.67513 0.54731 0.70596 0.0
C403 C 0.58681 0.51543 0.67385 0.0
O404 O 0.74273 0.46639 0.69884 0.0
O405 O 0.66501 0.44253 0.70881 0.0
C406 C 0.55925 0.50042 0.72048 0.0
O407 O 0.63675 0.52768 0.7063 0.0
O408 O 0.73079 0.55117 0.69867 0.0
O409 O 0.6341 0.53245 0.67594 0.0
O410 O 0.58262 0.49874 0.68064 0.0
O411 O 0.53085 0.48034 0.71968 0.0
O412 O 0.60541 0.50895 0.71269 0.0
O413 O 0.52611 0.48433 0.68732 0.0
O414 O 0.47958 0.45457 0.69659 0.0
C415 C 0.46998 0.46822 0.68876 0.0
O416 O 0.78454 0.4839 0.69283 0.0
O417 O 0.82695 0.51311 0.68282 0.0
C418 C 0.73523 0.44739 0.70408 0.0
C419 C 0.84226 0.49371 0.68676 0.0
Zn420 Zn 0.58582 0.49271 0.42911 0.0
Zn421 Zn 0.4444 0.54923 0.45262 0.0
Zn422 Zn 0.51781 0.52108 0.44113 0.0
C423 C 0.32832 0.54487 0.4364 0.0
C424 C 0.46613 0.51448 0.46661 0.0
O425 O 0.64549 0.535 0.43502 0.0
O426 O 0.68129 0.50992 0.42244 0.0
C427 C 0.42999 0.49871 0.41967 0.0
O428 O 0.38452 0.52918 0.43415 0.0
O429 O 0.34282 0.55833 0.44418 0.0
O430 O 0.42025 0.53216 0.46588 0.0
O431 O 0.50971 0.50752 0.45826 0.0
O432 O 0.48999 0.48415 0.41938 0.0
O433 O 0.42994 0.51422 0.42711 0.0
O434 O 0.54223 0.48966 0.45129 0.0
O435 O 0.62264 0.47002 0.43978 0.0
C436 C 0.58868 0.47195 0.44907 0.0
O437 O 0.59798 0.55228 0.44068 0.0
O438 O 0.53559 0.5724 0.45368 0.0
C439 C 0.69822 0.52803 0.42753 0.0
C440 C 0.59386 0.57045 0.44654 0.0
Zn441 Zn 0.42074 0.235 0.46048 0.0
Zn442 Zn 0.29476 0.3044 0.43981 0.0
Zn443 Zn 0.35619 0.26972 0.45042 0.0
C444 C 0.45416 0.31865 0.44723 0.0
C445 C 0.29016 0.26799 0.42531 0.0
O446 O 0.34165 0.23811 0.44011 0.0
O447 O 0.40313 0.21072 0.44979 0.0
C448 C 0.29504 0.25336 0.47408 0.0
O449 O 0.45333 0.29804 0.45091 0.0
O450 O 0.39243 0.32585 0.4414 0.0
O451 O 0.27326 0.28899 0.42581 0.0
O452 O 0.32224 0.25757 0.43367 0.0
O453 O 0.34508 0.23638 0.47351 0.0
O454 O 0.28678 0.26686 0.46587 0.0
O455 O 0.49332 0.27809 0.45488 0.0
O456 O 0.53903 0.24655 0.46292 0.0
C457 C 0.55345 0.26668 0.4598 0.0
O458 O 0.23474 0.28045 0.45869 0.0
O459 O 0.19119 0.30989 0.44889 0.0
C460 C 0.36238 0.21691 0.44137 0.0
C461 C 0.17862 0.29621 0.45667 0.0
Zn462 Zn 0.42345 0.29064 0.32942 0.0
Zn463 Zn 0.31894 0.21848 0.31772 0.0
Zn464 Zn 0.37306 0.2552 0.32258 0.0
C465 C 0.18712 0.23486 0.32913 0.0
C466 C 0.35124 0.24203 0.29823 0.0
O467 O 0.50989 0.25239 0.32718 0.0
O468 O 0.54759 0.28847 0.3254 0.0
C469 C 0.34082 0.26938 0.34666 0.0
O470 O 0.25076 0.24832 0.3315 0.0
O471 O 0.19631 0.22001 0.32181 0.0
O472 O 0.34931 0.22208 0.30211 0.0
O473 O 0.34854 0.25918 0.30481 0.0
O474 O 0.4005 0.28371 0.34499 0.0
O475 O 0.30529 0.25936 0.33843 0.0
O476 O 0.34627 0.28204 0.30964 0.0
O477 O 0.34759 0.3111 0.32107 0.0
C478 C 0.33079 0.30327 0.31174 0.0
O479 O 0.47926 0.22961 0.32558 0.0
O480 O 0.3934 0.19969 0.32716 0.0
C481 C 0.56874 0.26797 0.32701 0.0
C482 C 0.46722 0.20864 0.3284 0.0
Zn483 Zn 0.10872 0.4688 0.33053 0.0
Zn484 Zn 0.23089 0.54045 0.31143 0.0
Zn485 Zn 0.16659 0.50468 0.32048 0.0
C486 C 0.35471 0.52842 0.32601 0.0
C487 C 0.20017 0.50928 0.29473 0.0
O488 O 0.03486 0.51278 0.32662 0.0
O489 O -0.00797 0.48033 0.33409 0.0
C490 C 0.24713 0.48414 0.34277 0.0
O491 O 0.29525 0.51338 0.32789 0.0
O492 O 0.34371 0.54311 0.31864 0.0
O493 O 0.22767 0.52921 0.29643 0.0
O494 O 0.17673 0.4965 0.30278 0.0
O495 O 0.19232 0.46815 0.34274 0.0
O496 O 0.2496 0.49851 0.33482 0.0
O497 O 0.17033 0.47484 0.30859 0.0
O498 O 0.12161 0.44644 0.3188 0.0
C499 C 0.15181 0.45346 0.30985 0.0
O500 O 0.07326 0.53341 0.32328 0.0
O501 O 0.14289 0.56262 0.31592 0.0
C502 C 0.97686 0.50082 0.33163 0.0
C503 C 0.07903 0.55492 0.32118 0.0
Zn504 Zn 0.56324 0.97189 0.06082 0.0
Zn505 Zn 0.46564 0.04721 0.07728 0.0
Zn506 Zn 0.50862 1.00957 0.0675 0.0
C507 C 0.53046 0.05958 0.05685 0.0
C508 C 0.57923 0.02543 0.09129 0.0
O509 O 0.40034 0.98432 0.0691 0.0
O510 O 0.47297 0.95212 0.0669 0.0
C511 C 0.5409 1.0006 0.04244 0.0
O512 O 0.52901 0.0378 0.0553 0.0
O513 O 0.51059 0.06783 0.066 0.0
O514 O 0.53073 0.04276 0.09114 0.0
O515 O 0.58436 1.01248 0.08282 0.0
O516 O 0.5512 0.9801 0.04529 0.0
O517 O 0.53139 0.01608 0.04981 0.0
O518 O 0.63357 0.99968 0.07552 0.0
O519 O 0.68119 0.96939 0.06673 0.0
C520 C 0.69355 0.98477 0.07373 0.0
O521 O 0.37281 1.00605 0.07292 0.0
O522 O 0.33911 0.04132 0.0777 0.0
C523 C 0.40345 0.96236 0.0692 0.0
C524 C 0.31685 0.02086 0.07618 0.0
Zn525 Zn 0.78587 0.22101 0.07689 0.0
Zn526 Zn 0.67194 0.29523 0.06065 0.0
Zn527 Zn 0.72976 0.25776 0.0676 0.0
C528 C 0.55278 0.28349 0.07577 0.0
C529 C 0.66636 0.26414 0.04308 0.0
O530 O 0.86927 0.26332 0.07173 0.0
O531 O 0.90749 0.23048 0.07917 0.0
C532 C 0.6694 0.2392 0.09149 0.0
O533 O 0.61029 0.26762 0.07682 0.0
O534 O 0.5644 0.29917 0.0689 0.0
O535 O 0.65936 0.28499 0.04544 0.0
O536 O 0.68802 0.24971 0.05055 0.0
O537 O 0.71441 0.22142 0.0903 0.0
O538 O 0.66435 0.2539 0.08368 0.0
O539 O 0.70765 0.22851 0.0559 0.0
O540 O 0.75951 0.19918 0.06522 0.0
C541 C 0.72383 0.20696 0.05674 0.0
O542 O 0.83723 0.28406 0.0675 0.0
O543 O 0.76754 0.31604 0.06363 0.0
C544 C 0.92687 0.2505 0.07631 0.0
C545 C 0.83675 0.30591 0.06616 0.0
Zn546 Zn 0.3724 0.24786 0.17852 0.0
Zn547 Zn 0.52098 0.2928 0.20546 0.0
Zn548 Zn 0.44395 0.27222 0.19223 0.0
C549 C 0.64896 0.2833 0.19247 0.0
C550 C 0.43739 0.26416 0.21827 0.0
O551 O 0.32359 0.29034 0.18707 0.0
O552 O 0.2763 0.2675 0.17404 0.0
C553 C 0.52951 0.25548 0.16936 0.0
O554 O 0.58055 0.27893 0.18673 0.0
O555 O 0.64251 0.28571 0.20265 0.0
O556 O 0.46993 0.28371 0.21924 0.0
O557 O 0.4311 0.25491 0.20873 0.0
O558 O 0.46343 0.24328 0.16773 0.0
O559 O 0.53538 0.26761 0.17811 0.0
O560 O 0.41117 0.23866 0.20051 0.0
O561 O 0.33996 0.22135 0.18723 0.0
C562 C 0.36884 0.22118 0.19684 0.0
O563 O 0.38108 0.30648 0.19215 0.0
O564 O 0.49097 0.32325 0.20035 0.0
C565 C 0.26668 0.28519 0.17972 0.0
C566 C 0.42147 0.32483 0.19498 0.0
Zn567 Zn 0.6465 0.05071 0.18487 0.0
Zn568 Zn 0.50938 0.98091 0.20148 0.0
Zn569 Zn 0.58554 0.01549 0.19421 0.0
C570 C 0.38469 1.01296 0.20299 0.0
C571 C 0.64029 0.99323 0.2165 0.0
O572 O 0.70676 0.02449 0.20309 0.0
O573 O 0.74924 0.05524 0.19418 0.0
C574 C 0.65142 0.0168 0.16919 0.0
O575 O 0.44841 0.0246 0.19896 0.0
O576 O 0.39319 0.99192 0.20465 0.0
O577 O 0.5827 0.97837 0.21467 0.0
O578 O 0.65585 1.00872 0.20933 0.0
O579 O 0.66939 0.0376 0.17048 0.0
O580 O 0.61847 1.00521 0.17712 0.0
O581 O 0.49046 0.04464 0.19549 0.0
O582 O 0.55271 0.07296 0.18649 0.0
C583 C 0.49082 0.06559 0.19221 0.0
O584 O 0.60242 0.98463 0.1832 0.0
O585 O 0.52235 0.95732 0.19045 0.0
C586 C 0.76231 0.04066 0.20155 0.0
C587 C 0.57587 0.96366 0.1833 0.0
Zn588 Zn 0.46298 0.05804 0.94329 0.0
Zn589 Zn 0.57537 0.97993 0.92704 0.0
Zn590 Zn 0.52036 0.01868 0.93595 0.0
C591 C 0.52136 0.96979 0.94842 0.0
C592 C 0.44246 0.99665 0.91368 0.0
O593 O 0.62444 0.04451 0.93366 0.0
O594 O 0.55958 0.07702 0.93788 0.0
C595 C 0.47899 0.02785 0.96122 0.0
O596 O 0.50568 0.9914 0.9486 0.0
O597 O 0.55325 0.96066 0.94001 0.0
O598 O 0.49262 0.97973 0.91456 0.0
O599 O 0.4416 1.01216 0.92113 0.0
O600 O 0.46337 0.04838 0.9588 0.0
O601 O 0.49746 1.01338 0.95365 0.0
O602 O 0.39632 0.02787 0.9277 0.0
O603 O 0.35076 0.0595 0.93561 0.0
C604 C 0.33822 0.04351 0.92893 0.0
O605 O 0.65648 0.02312 0.93045 0.0
O606 O 0.69562 0.98969 0.92369 0.0
C607 C 0.62497 0.06642 0.93435 0.0
C608 C 0.71381 1.01011 0.92597 0.0
Zn609 Zn 0.3373 0.74202 0.95133 0.0
Zn610 Zn 0.19662 0.81281 0.93663 0.0
Zn611 Zn 0.27294 0.77741 0.943 0.0
C612 C 0.26579 0.82828 0.95507 0.0
C613 C 0.3217 0.80093 0.92078 0.0
O614 O 0.17375 0.74886 0.94257 0.0
O615 O 0.24118 0.72042 0.95081 0.0
C616 C 0.35631 0.77492 0.96723 0.0
O617 O 0.29282 0.80741 0.95455 0.0
O618 O 0.21276 0.83557 0.94806 0.0
O619 O 0.26651 0.81598 0.92323 0.0
O620 O 0.33786 0.78464 0.9275 0.0
O621 O 0.37239 0.75416 0.96556 0.0
O622 O 0.31759 0.78676 0.9598 0.0
O623 O 0.39113 0.76866 0.93333 0.0
O624 O 0.43347 0.7367 0.94117 0.0
C625 C 0.44581 0.75208 0.93416 0.0
O626 O 0.13319 0.76892 0.93884 0.0
O627 O 0.07933 0.80217 0.93373 0.0
C628 C 0.17519 0.72794 0.9459 0.0
C629 C 0.06943 0.78109 0.93517 0.0
Zn630 Zn 0.47959 0.73179 0.81306 0.0
Zn631 Zn 0.6125 0.80527 0.82649 0.0
Zn632 Zn 0.53897 0.76943 0.82009 0.0
C633 C 0.55335 0.8181 0.80678 0.0
C634 C 0.48038 0.79569 0.84143 0.0
O635 O 0.63971 0.74163 0.82152 0.0
O636 O 0.57637 0.7107 0.8149 0.0
C637 C 0.4596 0.7628 0.79594 0.0
O638 O 0.52322 0.79756 0.8076 0.0
O639 O 0.60384 0.82574 0.814 0.0
O640 O 0.5349 0.8109 0.83894 0.0
O641 O 0.46986 0.77832 0.83517 0.0
O642 O 0.4493 0.74204 0.7983 0.0
O643 O 0.4941 0.77641 0.803 0.0
O644 O 0.41948 0.76135 0.82963 0.0
O645 O 0.37972 0.72808 0.82289 0.0
C646 C 0.36536 0.74455 0.82924 0.0
O647 O 0.67857 0.76206 0.8248 0.0
O648 O 0.72791 0.79515 0.83079 0.0
C649 C 0.64118 0.72012 0.81926 0.0
C650 C 0.74003 0.77427 0.82905 0.0
Zn651 Zn 0.28547 0.041 0.80024 0.0
Zn652 Zn 0.18728 0.97944 0.81898 0.0
Zn653 Zn 0.24227 1.01104 0.81041 0.0
C654 C 0.27839 0.96205 0.80207 0.0
C655 C 0.28988 1.00036 0.83463 0.0
O656 O 0.25972 0.03791 0.82289 0.0
O657 O 0.21017 0.06079 0.81012 0.0
C658 C 0.16429 0.02848 0.7879 0.0
O659 O 0.31075 0.98198 0.80333 0.0
O660 O 0.20878 0.95703 0.80698 0.0
O661 O 0.26639 0.98043 0.83202 0.0
O662 O 0.2803 0.01677 0.82772 0.0
O663 O 0.24152 0.03424 0.78586 0.0
O664 O 0.14376 0.02205 0.79764 0.0
O665 O 0.35496 0.02863 0.81841 0.0
O666 O 0.41057 0.04092 0.80297 0.0
C667 C 0.41991 0.03657 0.81297 0.0
O668 O 0.10338 0.01755 0.80841 0.0
O669 O 0.07051 0.993 0.82132 0.0
C670 C 0.22039 0.0565 0.82015 0.0
C671 C 0.04827 1.00933 0.81523 0.0
H672 H 0.98322 0.43577 0.08083 0.0
H673 H 0.15374 0.42305 0.0536 0.0
H674 H 0.95816 0.39492 0.08275 0.0
H675 H 0.1325 0.38219 0.05581 0.0
H676 H 0.93018 0.32418 0.04992 0.0
H677 H 0.01424 0.35904 0.05115 0.0
H678 H -0.00253 0.35638 0.08633 0.0
H679 H 0.91057 0.32146 0.08491 0.0
C680 C 0.0175 0.42417 0.07548 0.0
C681 C 0.06889 0.43259 0.06693 0.0
C682 C 0.0037 0.40068 0.07661 0.0
C683 C 0.0421 0.38511 0.06931 0.0
C684 C 0.09993 0.39361 0.0614 0.0
C685 C 0.11241 0.41706 0.06015 0.0
C686 C 0.94828 0.33046 0.05792 0.0
C687 C 0.91486 0.32011 0.06731 0.0
C688 C -0.00362 0.35058 0.05866 0.0
C689 C 0.01167 0.36091 0.06886 0.0
C690 C 0.98553 0.34919 0.07834 0.0
C691 C 0.93713 0.32897 0.07756 0.0
H692 H 0.28982 0.94566 0.05461 0.0
H693 H 0.35503 0.94507 0.08875 0.0
H694 H 0.21295 0.90989 0.05666 0.0
H695 H 0.2726 0.90987 0.09117 0.0
H696 H 0.30376 0.83234 0.08448 0.0
H697 H 0.31294 0.87327 0.08692 0.0
H698 H 0.11537 0.88267 0.06214 0.0
H699 H 0.11143 0.84161 0.05925 0.0
C700 C 0.28269 0.93852 0.06271 0.0
C701 C 0.3275 0.94809 0.07153 0.0
C702 C 0.23862 0.91785 0.06394 0.0
C703 C 0.2382 0.90642 0.07406 0.0
C704 C 0.27381 0.91769 0.08318 0.0
C705 C 0.3196 0.93812 0.08187 0.0
C706 C 0.26096 0.84317 0.07975 0.0
C707 C 0.20861 0.83392 0.0715 0.0
C708 C 0.26552 0.86677 0.08118 0.0
C709 C 0.21627 0.8816 0.07454 0.0
C710 C 0.15658 0.87197 0.06714 0.0
C711 C 0.15379 0.8484 0.06552 0.0
H712 H 0.51502 0.9224 0.17639 0.0
H713 H 0.74922 0.96262 0.1789 0.0
H714 H 0.60167 0.8875 0.17671 0.0
H715 H 0.83541 0.92772 0.17938 0.0
H716 H 0.88956 0.86945 0.20487 0.0
H717 H 0.80702 0.90135 0.19764 0.0
H718 H 0.74782 0.86279 0.16865 0.0
H719 H 0.83529 0.83081 0.17568 0.0
C720 C 0.58526 0.92384 0.17639 0.0
C721 C 0.62516 0.9453 0.17778 0.0
C722 C 0.63478 0.90381 0.17665 0.0
C723 C 0.72486 0.90495 0.17834 0.0
C724 C 0.76576 0.92642 0.17819 0.0
C725 C 0.71639 0.94645 0.17776 0.0
C726 C 0.85858 0.86756 0.19698 0.0
C727 C 0.86849 0.8474 0.19092 0.0
C728 C 0.81198 0.88597 0.1928 0.0
C729 C 0.77279 0.88473 0.18248 0.0
C730 C 0.77832 0.86423 0.17658 0.0
C731 C 0.82702 0.84582 0.1807 0.0
H732 H 0.3052 0.46748 0.19887 0.0
H733 H 0.16935 0.44696 0.16971 0.0
H734 H 0.37746 0.43054 0.19953 0.0
H735 H 0.2436 0.41029 0.17005 0.0
H736 H 0.26615 0.33861 0.18565 0.0
H737 H 0.22157 0.37762 0.1815 0.0
H738 H 0.47163 0.40235 0.19247 0.0
H739 H 0.51422 0.3639 0.19697 0.0
C740 C 0.29465 0.45551 0.19227 0.0
C741 C 0.23191 0.45991 0.18426 0.0
C742 C 0.33528 0.43421 0.19268 0.0
C743 C 0.3143 0.41715 0.185 0.0
C744 C 0.25911 0.42273 0.17627 0.0
C745 C 0.21797 0.44388 0.17595 0.0
C746 C 0.3112 0.35236 0.18718 0.0
C747 C 0.39275 0.34804 0.19184 0.0
C748 C 0.28632 0.37475 0.18469 0.0
C749 C 0.3431 0.39321 0.18669 0.0
C750 C 0.42565 0.3887 0.191 0.0
C751 C 0.44994 0.3665 0.19357 0.0
H752 H 0.77359 0.62582 0.93313 0.0
H753 H 0.0272 0.59513 0.92983 0.0
H754 H 0.8406 0.66365 0.93374 0.0
H755 H 0.09387 0.63304 0.93062 0.0
H756 H 0.12405 0.69203 0.95804 0.0
H757 H 0.04258 0.65879 0.9519 0.0
H758 H -0.00745 0.69157 0.92107 0.0
H759 H 0.0772 0.72503 0.9271 0.0
C760 C 0.84335 0.62721 0.9321 0.0
C761 C 0.89531 0.60748 0.93154 0.0
C762 C 0.88144 0.64887 0.93243 0.0
C763 C 0.97206 0.65113 0.93226 0.0
C764 C 0.02363 0.63163 0.93069 0.0
C765 C 0.98547 0.60996 0.9302 0.0
C766 C 0.0942 0.69244 0.95003 0.0
C767 C 0.10665 0.71121 0.94308 0.0
C768 C 0.04828 0.67334 0.9465 0.0
C769 C 0.01306 0.67257 0.93597 0.0
C770 C 0.01998 0.69182 0.9292 0.0
C771 C 0.06717 0.71102 0.93271 0.0
H772 H 0.7594 0.19489 0.92227 0.0
H773 H -0.0038 0.17369 0.93827 0.0
H774 H 0.72677 0.15545 0.91787 0.0
H775 H 0.96428 0.13416 0.9337 0.0
H776 H 0.75709 0.08081 0.94703 0.0
H777 H 0.85039 0.11338 0.94333 0.0
H778 H 0.7487 0.11709 0.9105 0.0
H779 H 0.65508 0.08422 0.91435 0.0
C780 C 0.80662 0.18195 0.9244 0.0
C781 C 0.87895 0.18732 0.93091 0.0
C782 C 0.788 0.15923 0.92185 0.0
C783 C 0.84173 0.14157 0.92573 0.0
C784 C 0.92052 0.14734 0.93085 0.0
C785 C 0.93889 0.17001 0.93343 0.0
C786 C 0.75809 0.08792 0.93888 0.0
C787 C 0.70012 0.08 0.93093 0.0
C788 C 0.81156 0.1066 0.93671 0.0
C789 C 0.80647 0.11803 0.92662 0.0
C790 C 0.75368 0.10877 0.91836 0.0
C791 C 0.70072 0.08989 0.92052 0.0
H792 H 0.91703 0.16965 0.8386 0.0
H793 H 0.18422 0.19028 0.83484 0.0
H794 H 0.96372 0.13094 0.84281 0.0
H795 H 0.23133 0.15139 0.83813 0.0
H796 H 0.30623 0.0795 0.83648 0.0
H797 H 0.25447 0.11461 0.84526 0.0
H798 H 0.00506 0.10572 0.82939 0.0
H799 H 0.05635 0.07102 0.82109 0.0
C800 C 0.986 0.16604 0.83909 0.0
C801 C 0.047 0.18277 0.83623 0.0
C802 C 0.01298 0.14377 0.84133 0.0
C803 C 0.10117 0.13763 0.84027 0.0
C804 C 0.16284 0.15521 0.83895 0.0
C805 C 0.13586 0.17766 0.83706 0.0
C806 C 0.2393 0.08472 0.83534 0.0
C807 C 0.18518 0.0728 0.8281 0.0
C808 C 0.20977 0.10494 0.84024 0.0
C809 C 0.12576 0.11343 0.83795 0.0
C810 C 0.06962 0.09994 0.83155 0.0
C811 C 0.09912 0.07998 0.82668 0.0
H812 H 0.7649 0.70038 0.80683 0.0
H813 H 0.66709 0.7042 0.83967 0.0
H814 H 0.84132 0.66522 0.81132 0.0
H815 H 0.74191 0.66851 0.8442 0.0
H816 H 0.9743 0.60313 0.81984 0.0
H817 H 0.95106 0.64375 0.82273 0.0
H818 H 0.69922 0.6293 0.83662 0.0
H819 H 0.72232 0.58859 0.83366 0.0
C820 C 0.76352 0.69424 0.81516 0.0
C821 C 0.71159 0.70509 0.82295 0.0
C822 C 0.80686 0.67403 0.81776 0.0
C823 C 0.79705 0.66397 0.82811 0.0
C824 C 0.75049 0.67583 0.83616 0.0
C825 C 0.7086 0.69636 0.83361 0.0
C826 C 0.91532 0.60855 0.8239 0.0
C827 C 0.84942 0.5927 0.82635 0.0
C828 C 0.90201 0.63183 0.82552 0.0
C829 C 0.82267 0.63975 0.82968 0.0
C830 C 0.7612 0.62372 0.8334 0.0
C831 C 0.77444 0.60034 0.83174 0.0
H832 H 0.1359 0.93075 0.57619 0.0
H833 H 0.86867 0.9456 0.58409 0.0
H834 H 0.11199 0.89068 0.58047 0.0
H835 H 0.84419 0.90545 0.58825 0.0
H836 H 0.95784 0.83068 0.56264 0.0
H837 H 0.02573 0.86658 0.5679 0.0
H838 H 0.87083 0.86795 0.59726 0.0
H839 H 0.8038 0.83171 0.59194 0.0
C840 C 0.07301 0.9256 0.57932 0.0
C841 C 0.00358 0.94116 0.57959 0.0
C842 C 0.0592 0.90261 0.58169 0.0
C843 C 0.97565 0.89476 0.58437 0.0
C844 C 0.90939 0.91091 0.58617 0.0
C845 C 0.92337 0.934 0.58383 0.0
C846 C 0.94198 0.83806 0.57049 0.0
C847 C 0.877 0.82836 0.57698 0.0
C848 C 0.98052 0.85869 0.57352 0.0
C849 C 0.95316 0.87025 0.58298 0.0
C850 C 0.89299 0.85953 0.58991 0.0
C851 C 0.85536 0.8387 0.58693 0.0
H852 H 0.32894 0.33725 0.59249 0.0
H853 H 0.06094 0.35624 0.58738 0.0
H854 H 0.36816 0.37747 0.59401 0.0
H855 H 0.10037 0.39637 0.58874 0.0
H856 H 0.42223 0.45206 0.59517 0.0
H857 H 0.35072 0.41783 0.60229 0.0
H858 H 0.19073 0.41494 0.57337 0.0
H859 H 0.26428 0.44871 0.56618 0.0
C860 C 0.27769 0.34989 0.59228 0.0
C861 C 0.19221 0.34358 0.58959 0.0
C862 C 0.30021 0.37301 0.59307 0.0
C863 C 0.23752 0.39007 0.59119 0.0
C864 C 0.1502 0.38361 0.59002 0.0
C865 C 0.12766 0.36059 0.58934 0.0
C866 C 0.36883 0.44467 0.5906 0.0
C867 C 0.34727 0.45322 0.58024 0.0
C868 C 0.32867 0.42497 0.59463 0.0
C869 C 0.2654 0.41365 0.58839 0.0
C870 C 0.23848 0.42344 0.57845 0.0
C871 C 0.27999 0.44288 0.57433 0.0
H872 H 0.08927 0.3399 0.72287 0.0
H873 H 0.02621 0.32428 0.68939 0.0
H874 H 0.00443 0.37441 0.72181 0.0
H875 H 0.93458 0.35849 0.6885 0.0
H876 H 0.84678 0.43378 0.68777 0.0
H877 H 0.94133 0.40001 0.68811 0.0
H878 H 0.86172 0.38669 0.72133 0.0
H879 H 0.77355 0.42069 0.72114 0.0
C880 C 0.05498 0.34356 0.71534 0.0
C881 C 0.06311 0.32915 0.70627 0.0
C882 C 0.00596 0.3634 0.71474 0.0
C883 C 0.96209 0.3693 0.70508 0.0
C884 C 0.9683 0.3546 0.69603 0.0
C885 C 0.01896 0.33474 0.6966 0.0
C886 C 0.85257 0.424 0.69523 0.0
C887 C 0.80447 0.43007 0.7045 0.0
C888 C 0.90498 0.40441 0.69536 0.0
C889 C 0.9091 0.39052 0.70474 0.0
C890 C 0.86187 0.39707 0.71402 0.0
C891 C 0.81097 0.4166 0.71392 0.0
H892 H 0.60546 0.83468 0.70303 0.0
H893 H 0.42474 0.81865 0.67719 0.0
H894 H 0.57226 0.87503 0.70104 0.0
H895 H 0.38954 0.85914 0.67537 0.0
H896 H 0.33553 0.93459 0.67439 0.0
H897 H 0.42552 0.90031 0.67203 0.0
H898 H 0.43676 0.89229 0.70704 0.0
H899 H 0.34747 0.92606 0.70927 0.0
C900 C 0.56024 0.83986 0.69672 0.0
C901 C 0.5165 0.82349 0.6904 0.0
C902 C 0.54099 0.86299 0.6956 0.0
C903 C 0.47674 0.87029 0.68823 0.0
C904 C 0.4395 0.85413 0.68112 0.0
C905 C 0.45951 0.8309 0.68217 0.0
C906 C 0.36017 0.92586 0.68154 0.0
C907 C 0.33505 0.9329 0.69202 0.0
C908 C 0.41086 0.90615 0.6802 0.0
C909 C 0.43806 0.89346 0.68934 0.0
C910 C 0.41813 0.90172 0.69981 0.0
C911 C 0.36673 0.92107 0.70112 0.0
H912 H 0.08879 0.08835 0.42574 0.0
H913 H 0.05627 0.11969 0.45733 0.0
H914 H 0.18442 0.12006 0.42019 0.0
H915 H 0.14777 0.15144 0.45162 0.0
H916 H 0.43235 0.17586 0.43605 0.0
H917 H 0.3473 0.14095 0.43382 0.0
H918 H 0.11363 0.18093 0.4309 0.0
H919 H 0.19859 0.21594 0.43294 0.0
C920 C 0.1036 0.10166 0.43156 0.0
C921 C 0.06619 0.10132 0.44204 0.0
C922 C 0.15702 0.11991 0.42832 0.0
C923 C 0.1717 0.13826 0.43544 0.0
C924 C 0.13619 0.13759 0.44596 0.0
C925 C 0.08437 0.11935 0.44923 0.0
C926 C 0.36356 0.17728 0.43426 0.0
C927 C 0.32191 0.19861 0.4348 0.0
C928 C 0.31497 0.15727 0.43302 0.0
C929 C 0.22416 0.15835 0.43231 0.0
C930 C 0.18383 0.17976 0.43139 0.0
C931 C 0.23261 0.19981 0.43248 0.0
H932 H 0.66503 0.71243 0.44865 0.0
H933 H 0.83421 0.69466 0.42199 0.0
H934 H 0.60966 0.67348 0.44906 0.0
H935 H 0.78238 0.65547 0.42268 0.0
H936 H 0.65454 0.60205 0.46058 0.0
H937 H 0.69111 0.64127 0.45615 0.0
H938 H 0.67232 0.62559 0.42179 0.0
H939 H 0.63783 0.58592 0.42631 0.0
C940 C 0.68661 0.70054 0.44247 0.0
C941 C 0.75314 0.70648 0.43523 0.0
C942 C 0.65687 0.67806 0.44289 0.0
C943 C 0.69423 0.66124 0.43617 0.0
C944 C 0.75277 0.66794 0.42801 0.0
C945 C 0.78193 0.69043 0.42755 0.0
C946 C 0.66087 0.60685 0.45208 0.0
C947 C 0.6433 0.59107 0.44379 0.0
C948 C 0.67978 0.62941 0.44953 0.0
C949 C 0.68081 0.63674 0.43862 0.0
C950 C 0.67063 0.62051 0.43028 0.0
C951 C 0.65222 0.59775 0.43285 0.0
H952 H 0.0895 0.57155 0.34161 0.0
H953 H 0.94924 0.57838 0.31137 0.0
H954 H 0.0467 0.61023 0.3468 0.0
H955 H 0.90497 0.61674 0.31654 0.0
H956 H 0.10685 0.68726 0.33471 0.0
H957 H 0.10337 0.6462 0.33805 0.0
H958 H 0.83232 0.64437 0.32891 0.0
H959 H 0.83606 0.68527 0.32552 0.0
C960 C 0.04506 0.58084 0.33638 0.0
C961 C 0.02136 0.57191 0.32617 0.0
C962 C 0.02175 0.60312 0.33927 0.0
C963 C 0.97332 0.61671 0.33204 0.0
C964 C 0.94164 0.60673 0.32237 0.0
C965 C 0.96626 0.58464 0.31941 0.0
C966 C 0.04556 0.67829 0.33393 0.0
C967 C 0.97226 0.68941 0.32966 0.0
C968 C 0.04348 0.65469 0.33581 0.0
C969 C 0.96795 0.64191 0.33348 0.0
C970 C 0.89187 0.65362 0.33056 0.0
C971 C 0.89398 0.6771 0.3287 0.0
H972 H 0.88271 0.11021 0.33087 0.0
H973 H 0.63571 0.07746 0.3365 0.0
H974 H 0.8193 0.14705 0.33539 0.0
H975 H 0.57111 0.11426 0.34072 0.0
H976 H 0.45717 0.18118 0.34597 0.0
H977 H 0.55177 0.14911 0.35027 0.0
H978 H 0.72497 0.16967 0.32431 0.0
H979 H 0.63102 0.20216 0.3203 0.0
C980 C 0.81552 0.11081 0.33351 0.0
C981 C 0.76378 0.09105 0.33324 0.0
C982 C 0.77889 0.13197 0.33595 0.0
C983 C 0.68948 0.13382 0.33809 0.0
C984 C 0.64026 0.1136 0.33911 0.0
C985 C 0.67728 0.09237 0.33676 0.0
C986 C 0.51722 0.17923 0.34145 0.0
C987 C 0.53685 0.194 0.33277 0.0
C988 C 0.57101 0.16074 0.34385 0.0
C989 C 0.64509 0.1564 0.3375 0.0
C990 C 0.66876 0.17246 0.32944 0.0
C991 C 0.61506 0.19113 0.3271 0.0
H992 H 0.86826 0.48295 0.10389 0.0
H993 H 0.14145 0.49825 0.10108 0.0
H994 H 0.87665 0.48769 0.12365 0.0
H995 H 0.15014 0.50315 0.12089 0.0
H996 H 0.07377 0.55566 0.14722 0.0
H997 H 0.07252 0.53796 0.12938 0.0
H998 H 0.94629 0.47856 0.14281 0.0
H999 H 0.94897 0.4962 0.161 0.0
C1000 C 0.93121 0.486 0.1076 0.0
C1001 C 0.00433 0.49018 0.10103 0.0
C1002 C 0.93583 0.48889 0.1189 0.0
C1003 C 0.01349 0.49631 0.12374 0.0
C1004 C 0.08914 0.49771 0.1173 0.0
C1005 C 0.08465 0.49456 0.106 0.0
C1006 C 0.04489 0.53892 0.14644 0.0
C1007 C 0.01184 0.52735 0.15559 0.0
C1008 C 0.04542 0.52862 0.13622 0.0
C1009 C 0.012 0.50658 0.13479 0.0
C1010 C 0.97388 0.49542 0.14375 0.0
C1011 C 0.97443 0.50567 0.1541 0.0
H1012 H 0.42299 0.77329 0.11052 0.0
H1013 H 0.15834 0.78744 0.10083 0.0
H1014 H 0.38247 0.77703 0.12962 0.0
H1015 H 0.11807 0.79141 0.12018 0.0
H1016 H 0.1454 0.80676 0.16036 0.0
H1017 H 0.20009 0.81544 0.14194 0.0
H1018 H 0.23478 0.74364 0.13595 0.0
H1019 H 0.17847 0.7349 0.1541 0.0
C1020 C 0.35662 0.77792 0.11247 0.0
C1021 C 0.29331 0.77968 0.10422 0.0
C1022 C 0.33385 0.78017 0.12339 0.0
C1023 C 0.24753 0.78445 0.12628 0.0
C1024 C 0.18539 0.78833 0.11806 0.0
C1025 C 0.20828 0.78605 0.10703 0.0
C1026 C 0.1667 0.79293 0.15518 0.0
C1027 C 0.15807 0.77015 0.15862 0.0
C1028 C 0.1968 0.79789 0.14465 0.0
C1029 C 0.22022 0.78014 0.1376 0.0
C1030 C 0.21636 0.75754 0.14128 0.0
C1031 C 0.18482 0.75257 0.15165 0.0
H1032 H 0.88305 0.56388 0.84565 0.0
H1033 H 0.64285 0.54142 0.86027 0.0
H1034 H 0.92909 0.57973 0.86313 0.0
H1035 H 0.68997 0.55587 0.87776 0.0
H1036 H 0.78863 0.57017 0.90981 0.0
H1037 H 0.73638 0.58053 0.8916 0.0
H1038 H 0.98235 0.55919 0.87795 0.0
H1039 H 0.03434 0.54987 0.89596 0.0
C1040 C 0.83868 0.56309 0.85248 0.0
C1041 C 0.75997 0.55109 0.85163 0.0
C1042 C 0.86551 0.57188 0.86258 0.0
C1043 C 0.81471 0.56849 0.87202 0.0
C1044 C 0.7314 0.55891 0.87078 0.0
C1045 C 0.70444 0.55037 0.86071 0.0
C1046 C 0.8324 0.56863 0.90294 0.0
C1047 C 0.91464 0.55865 0.90426 0.0
C1048 C 0.80231 0.57434 0.89247 0.0
C1049 C 0.85395 0.57008 0.88317 0.0
C1050 C 0.94009 0.56278 0.88478 0.0
C1051 C 0.96995 0.55718 0.89518 0.0
H1052 H 0.95324 0.21851 0.84971 0.0
H1053 H 0.16307 0.25102 0.86722 0.0
H1054 H 0.8853 0.20814 0.86696 0.0
H1055 H 0.0937 0.24154 0.88441 0.0
H1056 H 0.95595 0.22621 0.91502 0.0
H1057 H 0.03638 0.21664 0.89839 0.0
H1058 H 0.80946 0.233 0.8791 0.0
H1059 H 0.72997 0.24205 0.89557 0.0
C1060 C 0.98666 0.22272 0.85721 0.0
C1061 C 0.06335 0.23577 0.85705 0.0
C1062 C 0.94701 0.21704 0.86714 0.0
C1063 C 0.98288 0.2244 0.87712 0.0
C1064 C 0.06404 0.23546 0.87694 0.0
C1065 C 0.10368 0.24108 0.86704 0.0
C1066 C 0.92263 0.22693 0.90724 0.0
C1067 C 0.83703 0.23515 0.90658 0.0
C1068 C 0.96887 0.22166 0.8977 0.0
C1069 C 0.93 0.22433 0.88735 0.0
C1070 C 0.84177 0.23052 0.88686 0.0
C1071 C 0.79611 0.23591 0.89634 0.0
H1072 H 0.01892 0.97862 0.59808 0.0
H1073 H 0.75818 1.00039 0.60581 0.0
H1074 H 0.04948 0.97403 0.61759 0.0
H1075 H 0.78949 0.99626 0.6252 0.0
H1076 H 0.97982 0.03637 0.65053 0.0
H1077 H 0.91494 0.02583 0.63304 0.0
H1078 H -0.00804 0.95595 0.63809 0.0
H1079 H 0.05398 0.9664 0.65592 0.0
C1080 C 0.96689 0.98132 0.60387 0.0
C1081 C 0.88666 0.99023 0.60043 0.0
C1082 C 0.9845 0.97879 0.61505 0.0
C1083 C 0.92213 0.98519 0.62286 0.0
C1084 C 0.83875 0.9914 0.61934 0.0
C1085 C 0.82097 0.99371 0.60823 0.0
C1086 C 0.98031 0.01865 0.64807 0.0
C1087 C 0.02134 1.00219 0.65456 0.0
C1088 C 0.94336 1.0126 0.63808 0.0
C1089 C 0.94881 0.99009 0.63423 0.0
C1090 C 0.98688 0.97338 0.6409 0.0
C1091 C 0.02165 0.97934 0.6511 0.0
H1092 H 0.20001 0.29997 0.61237 0.0
H1093 H 0.47182 0.28425 0.60837 0.0
H1094 H 0.22164 0.3026 0.63215 0.0
H1095 H 0.49338 0.28673 0.62803 0.0
H1096 H 0.39351 0.23805 0.65747 0.0
H1097 H 0.41738 0.25404 0.63935 0.0
H1098 H 0.30928 0.31814 0.64992 0.0
H1099 H 0.28881 0.30229 0.66828 0.0
C1100 C 0.26522 0.29846 0.61565 0.0
C1101 C 0.33404 0.29168 0.6089 0.0
C1102 C 0.27766 0.29982 0.62698 0.0
C1103 C 0.35895 0.29439 0.63161 0.0
C1104 C 0.43001 0.29077 0.62468 0.0
C1105 C 0.41769 0.28951 0.61342 0.0
C1106 C 0.37899 0.25587 0.65607 0.0
C1107 C 0.34002 0.26897 0.66426 0.0
C1108 C 0.39225 0.26505 0.64569 0.0
C1109 C 0.36458 0.28731 0.64322 0.0
C1110 C 0.33123 0.30097 0.65162 0.0
C1111 C 0.32041 0.29196 0.66213 0.0
H1112 H 0.79002 0.06541 0.40984 0.0
H1113 H 0.71686 0.9954 0.40428 0.0
H1114 H 0.73677 0.07556 0.39156 0.0
H1115 H 0.66115 1.00553 0.38632 0.0
H1116 H 0.80848 0.05362 0.35336 0.0
H1117 H 0.80823 0.06056 0.37305 0.0
H1118 H 0.55264 0.03056 0.3754 0.0
H1119 H 0.55308 0.02358 0.35582 0.0
C1120 C 0.75908 0.05244 0.40489 0.0
C1121 C 0.75756 0.02961 0.40838 0.0
C1122 C 0.7292 0.05822 0.39444 0.0
C1123 C 0.69501 0.04135 0.38754 0.0
C1124 C 0.6863 0.01896 0.3915 0.0
C1125 C 0.71826 1.0131 0.40177 0.0
C1126 C 0.75053 0.04964 0.358 0.0
C1127 C 0.68172 0.0376 0.35317 0.0
C1128 C 0.7503 0.05358 0.36928 0.0
C1129 C 0.68113 0.04557 0.37575 0.0
C1130 C 0.60718 0.03659 0.37061 0.0
C1131 C 0.60749 0.03264 0.35941 0.0
H1132 H 0.95061 0.74723 0.35021 0.0
H1133 H 0.21111 0.72843 0.35954 0.0
H1134 H 0.91466 0.75387 0.36937 0.0
H1135 H 0.17488 0.73467 0.37872 0.0
H1136 H 0.03812 0.74504 0.41361 0.0
H1137 H 0.06876 0.72696 0.39597 0.0
H1138 H -0.00828 0.78857 0.37942 0.0
H1139 H 0.96404 0.80685 0.39682 0.0
C1140 C -0.00155 0.74308 0.35639 0.0
C1141 C 0.08364 0.73737 0.35339 0.0
C1142 C 0.97843 0.74728 0.36735 0.0
C1143 C 0.04278 0.74532 0.37548 0.0
C1144 C 0.12419 0.73641 0.37263 0.0
C1145 C 0.1446 0.73258 0.36166 0.0
C1146 C 0.03015 0.75496 0.40623 0.0
C1147 C -0.00139 0.77748 0.40669 0.0
C1148 C 0.04647 0.74445 0.39613 0.0
C1149 C 0.02979 0.75613 0.38633 0.0
C1150 C 0.00261 0.77892 0.38683 0.0
C1151 C 0.98793 0.7895 0.39685 0.0
H1152 H 0.63801 0.56439 0.61067 0.0
H1153 H 0.5854 0.49378 0.60339 0.0
H1154 H 0.63029 0.55605 0.63009 0.0
H1155 H 0.57271 0.48556 0.6228 0.0
H1156 H 0.61547 0.4796 0.6605 0.0
H1157 H 0.62945 0.48251 0.64073 0.0
H1158 H 0.51124 0.54929 0.64178 0.0
H1159 H 0.50233 0.54672 0.66157 0.0
C1160 C 0.62744 0.54694 0.61326 0.0
C1161 C 0.61189 0.52979 0.60555 0.0
C1162 C 0.62082 0.54222 0.62437 0.0
C1163 C 0.59674 0.52034 0.62801 0.0
C1164 C 0.59031 0.50265 0.62031 0.0
C1165 C 0.59863 0.50731 0.60917 0.0
C1166 C 0.58908 0.49444 0.65642 0.0
C1167 C 0.55789 0.51296 0.66251 0.0
C1168 C 0.59819 0.49627 0.64509 0.0
C1169 C 0.57483 0.51653 0.6397 0.0
C1170 C 0.5336 0.53384 0.64572 0.0
C1171 C 0.52618 0.53218 0.65702 0.0
H1172 H 0.6076 0.78656 0.6028 0.0
H1173 H 0.55356 0.71482 0.60644 0.0
H1174 H 0.55164 0.79348 0.62131 0.0
H1175 H 0.49551 0.72175 0.62465 0.0
H1176 H 0.33317 0.74303 0.65279 0.0
H1177 H 0.36776 0.74544 0.63353 0.0
H1178 H 0.61308 0.77726 0.64128 0.0
H1179 H 0.57864 0.77468 0.6609 0.0
C1180 C 0.58088 0.77244 0.60741 0.0
C1181 C 0.58409 0.75016 0.6032 0.0
C1182 C 0.55014 0.77636 0.61802 0.0
C1183 C 0.52 0.75813 0.62441 0.0
C1184 C 0.5182 0.73613 0.61988 0.0
C1185 C 0.55083 0.73216 0.60945 0.0
C1186 C 0.39417 0.75087 0.65045 0.0
C1187 C 0.45412 0.75822 0.65839 0.0
C1188 C 0.41361 0.7523 0.63939 0.0
C1189 C 0.49331 0.76127 0.63593 0.0
C1190 C 0.55089 0.77033 0.64377 0.0
C1191 C 0.53139 0.76883 0.65497 0.0
H1192 H 0.26396 0.52503 0.35275 0.0
H1193 H 0.32559 0.45375 0.35623 0.0
H1194 H 0.29195 0.53095 0.37209 0.0
H1195 H 0.36058 0.45976 0.37536 0.0
H1196 H 0.32918 0.46596 0.41057 0.0
H1197 H 0.28651 0.46449 0.39146 0.0
H1198 H 0.38183 0.53331 0.38705 0.0
H1199 H 0.41712 0.53514 0.40639 0.0
C1200 C 0.28744 0.51084 0.35758 0.0
C1201 C 0.29257 0.48892 0.35306 0.0
C1202 C 0.30287 0.51417 0.36871 0.0
C1203 C 0.32571 0.49569 0.37546 0.0
C1204 C 0.3391 0.47422 0.3706 0.0
C1205 C 0.32127 0.47081 0.35956 0.0
C1206 C 0.33683 0.48108 0.40558 0.0
C1207 C 0.37564 0.50068 0.40989 0.0
C1208 C 0.31477 0.4801 0.39455 0.0
C1209 C 0.33424 0.49843 0.38752 0.0
C1210 C 0.36603 0.51879 0.39212 0.0
C1211 C 0.38559 0.51997 0.40325 0.0
H1212 H 0.39694 0.23723 0.41522 0.0
H1213 H 0.15685 0.27424 0.41124 0.0
H1214 H 0.3997 0.22974 0.39555 0.0
H1215 H 0.15908 0.26669 0.39172 0.0
H1216 H 0.19198 0.24994 0.35552 0.0
H1217 H 0.16729 0.24034 0.37484 0.0
H1218 H 0.42801 0.26255 0.38251 0.0
H1219 H 0.45165 0.27244 0.36361 0.0
C1220 C 0.3429 0.24286 0.41023 0.0
C1221 C 0.27756 0.25664 0.41468 0.0
C1222 C 0.3446 0.2387 0.39897 0.0
C1223 C 0.28032 0.248 0.39207 0.0
C1224 C 0.20938 0.25928 0.39679 0.0
C1225 C 0.20837 0.26369 0.40797 0.0
C1226 C 0.24373 0.25264 0.36136 0.0
C1227 C 0.32292 0.26243 0.35807 0.0
C1228 C 0.22993 0.24702 0.37238 0.0
C1229 C 0.29617 0.25043 0.38017 0.0
C1230 C 0.37622 0.25929 0.37672 0.0
C1231 C 0.38914 0.26534 0.36587 0.0
H1232 H 0.544 0.9892 0.15705 0.0
H1233 H 0.79118 0.02397 0.15646 0.0
H1234 H 0.54867 0.98577 0.13708 0.0
H1235 H 0.79613 0.02048 0.13668 0.0
H1236 H 0.65016 0.05353 0.10642 0.0
H1237 H 0.68796 0.044 0.12518 0.0
H1238 H 0.6323 0.97312 0.11883 0.0
H1239 H 0.59667 0.98269 0.09981 0.0
C1240 C 0.60104 0.99511 0.15271 0.0
C1241 C 0.66658 1.00714 0.15824 0.0
C1242 C 0.60373 0.99322 0.14129 0.0
C1243 C 0.67206 1.00329 0.13534 0.0
C1244 C 0.74219 1.01287 0.14105 0.0
C1245 C 0.73943 1.01478 0.15237 0.0
C1246 C 0.64871 0.03583 0.10893 0.0
C1247 C 0.6208 0.01886 0.10168 0.0
C1248 C 0.67034 0.03033 0.11966 0.0
C1249 C 0.66274 1.0078 0.12347 0.0
C1250 C 0.63859 0.9906 0.1161 0.0
C1251 C 0.61902 0.99605 0.10522 0.0
H1252 H 0.61032 0.20944 0.10673 0.0
H1253 H 0.66283 0.28077 0.1014 0.0
H1254 H 0.59366 0.21644 0.12614 0.0
H1255 H 0.65117 0.28779 0.12098 0.0
H1256 H 0.64202 0.22499 0.16072 0.0
H1257 H 0.67914 0.2233 0.14142 0.0
H1258 H 0.56638 0.29008 0.13676 0.0
H1259 H 0.53524 0.29212 0.1562 0.0
C1260 C 0.617 0.22672 0.10973 0.0
C1261 C 0.63752 0.24455 0.10256 0.0
C1262 C 0.60946 0.23071 0.12091 0.0
C1263 C 0.62424 0.25258 0.12528 0.0
C1264 C 0.63968 0.27071 0.11799 0.0
C1265 C 0.6456 0.26675 0.10673 0.0
C1266 C 0.63003 0.23979 0.15565 0.0
C1267 C 0.58693 0.25878 0.15995 0.0
C1268 C 0.64883 0.23863 0.14451 0.0
C1269 C 0.62235 0.25614 0.13737 0.0
C1270 C 0.5875 0.27617 0.14192 0.0
C1271 C 0.5706 0.27751 0.15312 0.0
H1272 H 0.39231 0.97257 0.84652 0.0
H1273 H 0.25341 0.03626 0.84821 0.0
H1274 H 0.41855 0.97393 0.86603 0.0
H1275 H 0.27643 0.03729 0.86804 0.0
H1276 H 0.37225 0.96392 0.90079 0.0
H1277 H 0.33237 0.96759 0.88168 0.0
H1278 H 0.37626 0.04025 0.88339 0.0
H1279 H 0.41223 0.03655 0.90278 0.0
C1280 C 0.36824 0.98704 0.85109 0.0
C1281 C 0.32062 1.00424 0.84588 0.0
C1282 C 0.382 0.98767 0.86232 0.0
C1283 C 0.3469 1.0053 0.86872 0.0
C1284 C 0.30385 0.02336 0.8634 0.0
C1285 C 0.29112 0.02288 0.85204 0.0
C1286 C 0.3709 0.98075 0.89716 0.0
C1287 C 0.39608 0.99989 0.90323 0.0
C1288 C 0.34937 0.98287 0.88615 0.0
C1289 C 0.35442 1.00412 0.88085 0.0
C1290 C 0.37236 0.0236 0.88716 0.0
C1291 C 0.39255 0.02151 0.89829 0.0
H1292 H 0.47068 0.83277 0.85443 0.0
H1293 H 0.40479 0.7612 0.85338 0.0
H1294 H 0.44069 0.83365 0.8737 0.0
H1295 H 0.36883 0.7624 0.87282 0.0
H1296 H 0.40859 0.76668 0.90991 0.0
H1297 H 0.4399 0.76523 0.89036 0.0
H1298 H 0.33254 0.83286 0.88661 0.0
H1299 H 0.3073 0.83487 0.90595 0.0
C1300 C 0.44724 0.81731 0.85827 0.0
C1301 C 0.44044 0.79689 0.85236 0.0
C1302 C 0.42971 0.81783 0.86938 0.0
C1303 C 0.40291 0.79805 0.87489 0.0
C1304 C 0.39112 0.77783 0.86887 0.0
C1305 C 0.40994 0.77724 0.85769 0.0
C1306 C 0.39428 0.78145 0.90493 0.0
C1307 C 0.35591 0.80092 0.90952 0.0
C1308 C 0.41049 0.78045 0.89369 0.0
C1309 C 0.38799 0.79884 0.88686 0.0
C1310 C 0.35199 0.81847 0.89158 0.0
C1311 C 0.33723 0.8196 0.90273 0.0
H1312 H 0.39561 0.6727 0.06112 0.0
H1313 H 0.13821 0.70071 0.06464 0.0
H1314 H 0.33388 0.63532 0.05734 0.0
H1315 H 0.07561 0.66314 0.06177 0.0
H1316 H 0.96894 0.59547 0.05423 0.0
H1317 H 0.03937 0.63222 0.05158 0.0
H1318 H 0.27349 0.60555 0.06652 0.0
H1319 H 0.20421 0.5684 0.06824 0.0
C1320 C 0.32553 0.67078 0.06101 0.0
C1321 C 0.27149 0.68947 0.06318 0.0
C1322 C 0.28995 0.64929 0.05897 0.0
C1323 C 0.19943 0.64582 0.05942 0.0
C1324 C 0.14544 0.66493 0.06115 0.0
C1325 C 0.18114 0.68657 0.06286 0.0
C1326 C 0.03636 0.59745 0.05663 0.0
C1327 C 0.0815 0.57927 0.06142 0.0
C1328 C 0.07655 0.6186 0.05527 0.0
C1329 C 0.16191 0.62229 0.05905 0.0
C1330 C 0.20826 0.60355 0.06335 0.0
C1331 C 0.16868 0.58218 0.0644 0.0
H1332 H 0.16207 0.70376 0.20433 0.0
H1333 H 0.89422 0.70898 0.21408 0.0
H1334 H 0.16475 0.66411 0.21008 0.0
H1335 H 0.89676 0.66943 0.22032 0.0
H1336 H 0.89415 0.59672 0.20434 0.0
H1337 H 0.891 0.63646 0.20962 0.0
H1338 H 0.15578 0.63123 0.22119 0.0
H1339 H 0.15844 0.5912 0.21559 0.0
C1340 C 0.10529 0.69679 0.20836 0.0
C1341 C 0.0283 0.70955 0.20886 0.0
C1342 C 0.10641 0.67387 0.21163 0.0
C1343 C 0.03025 0.66312 0.21547 0.0
C1344 C 0.95617 0.67682 0.21717 0.0
C1345 C 0.95499 0.69969 0.21379 0.0
C1346 C 0.94985 0.60368 0.20862 0.0
C1347 C 0.02616 0.59074 0.20963 0.0
C1348 C 0.94856 0.62671 0.2116 0.0
C1349 C 0.02396 0.63751 0.21563 0.0
C1350 C 0.09699 0.62374 0.2179 0.0
C1351 C 0.09805 0.60059 0.21492 0.0
H1352 H 0.66631 0.34367 0.93857 0.0
H1353 H 0.94351 0.33268 0.94053 0.0
H1354 H 0.68868 0.38454 0.9385 0.0
H1355 H 0.9662 0.37414 0.94065 0.0
H1356 H 0.97125 0.44361 0.92344 0.0
H1357 H 0.94897 0.40332 0.92654 0.0
H1358 H 0.73617 0.41853 0.94829 0.0
H1359 H 0.7585 0.45946 0.94513 0.0
C1360 C 0.73233 0.35003 0.93914 0.0
C1361 C 0.80342 0.33491 0.93936 0.0
C1362 C 0.74494 0.37355 0.93921 0.0
C1363 C 0.82911 0.38268 0.93945 0.0
C1364 C 0.90039 0.3676 0.94028 0.0
C1365 C 0.88764 0.34389 0.9403 0.0
C1366 C 0.91923 0.4385 0.92887 0.0
C1367 C 0.86663 0.45486 0.93405 0.0
C1368 C 0.90733 0.4153 0.93075 0.0
C1369 C 0.84215 0.40764 0.93784 0.0
C1370 C 0.78734 0.42389 0.9428 0.0
C1371 C 0.79954 0.44732 0.94093 0.0
H1372 H 0.86297 0.44595 0.80588 0.0
H1373 H 0.91431 0.44076 0.84036 0.0
H1374 H 0.88747 0.40481 0.80392 0.0
H1375 H 0.94143 0.40017 0.83843 0.0
H1376 H 0.88082 0.32745 0.83684 0.0
H1377 H 0.84837 0.36803 0.83571 0.0
H1378 H 0.98549 0.37192 0.80504 0.0
H1379 H 0.01476 0.33093 0.80607 0.0
C1380 C 0.88297 0.43618 0.81295 0.0
C1381 C 0.88658 0.44653 0.82328 0.0
C1382 C 0.896 0.41256 0.81186 0.0
C1383 C 0.91324 0.39895 0.82109 0.0
C1384 C 0.92476 0.40986 0.83121 0.0
C1385 C 0.911 0.43325 0.8323 0.0
C1386 C 0.90017 0.33678 0.8296 0.0
C1387 C 0.94889 0.32601 0.82146 0.0
C1388 C 0.88355 0.36017 0.82906 0.0
C1389 C 0.91701 0.37349 0.82046 0.0
C1390 C 0.95906 0.36229 0.8118 0.0
C1391 C 0.97488 0.33873 0.81231 0.0
H1392 H 0.00036 0.08933 0.55454 0.0
H1393 H 0.12478 0.08087 0.58576 0.0
H1394 H 0.02016 0.1306 0.55579 0.0
H1395 H 0.14879 0.12184 0.58687 0.0
H1396 H 0.07387 0.19188 0.5949 0.0
H1397 H 0.05004 0.1518 0.5908 0.0
H1398 H 0.10724 0.16469 0.55685 0.0
H1399 H 0.12702 0.20515 0.56098 0.0
C1400 C 0.03662 0.09623 0.56136 0.0
C1401 C 0.06187 0.08198 0.57001 0.0
C1402 C 0.04679 0.11992 0.56218 0.0
C1403 C 0.08303 0.12967 0.57163 0.0
C1404 C 0.11739 0.11503 0.57967 0.0
C1405 C 0.10598 0.09148 0.57892 0.0
C1406 C 0.07743 0.1863 0.58649 0.0
C1407 C 0.10213 0.20158 0.57827 0.0
C1408 C 0.06605 0.16322 0.58416 0.0
C1409 C 0.08071 0.15478 0.57357 0.0
C1410 C 0.0965 0.1705 0.56512 0.0
C1411 C 0.10662 0.19376 0.56745 0.0
H1412 H 0.31735 0.18741 0.7132 0.0
H1413 H 0.04781 0.18191 0.70402 0.0
H1414 H 0.32152 0.14625 0.71664 0.0
H1415 H 0.05161 0.14114 0.70706 0.0
H1416 H 0.06862 0.06679 0.70836 0.0
H1417 H 0.06616 0.10562 0.71584 0.0
H1418 H 0.32724 0.11654 0.70388 0.0
H1419 H 0.32956 0.07808 0.69681 0.0
C1420 C 0.25803 0.17758 0.7124 0.0
C1421 C 0.18234 0.18785 0.70832 0.0
C1422 C 0.26051 0.15388 0.71418 0.0
C1423 C 0.18747 0.14 0.71185 0.0
C1424 C 0.10928 0.15092 0.70901 0.0
C1425 C 0.10694 0.17447 0.70725 0.0
C1426 C 0.12649 0.07726 0.70778 0.0
C1427 C 0.19908 0.06946 0.70195 0.0
C1428 C 0.12495 0.09965 0.71193 0.0
C1429 C 0.19597 0.11465 0.71032 0.0
C1430 C 0.27137 0.10579 0.70543 0.0
C1431 C 0.27268 0.08362 0.70129 0.0
H1432 H 0.00709 0.84184 0.46224 0.0
H1433 H 0.73827 0.85408 0.45443 0.0
H1434 H 0.02329 0.88166 0.46779 0.0
H1435 H 0.75424 0.89379 0.45932 0.0
H1436 H 0.79427 0.967 0.46161 0.0
H1437 H 0.77964 0.92779 0.46833 0.0
H1438 H 0.03966 0.91318 0.4569 0.0
H1439 H 0.05422 0.95205 0.45076 0.0
C1440 C 0.95037 0.85277 0.46223 0.0
C1441 C 0.8714 0.84484 0.45793 0.0
C1442 C 0.95986 0.87582 0.46517 0.0
C1443 C 0.89101 0.89149 0.46364 0.0
C1444 C 0.80922 0.88265 0.46066 0.0
C1445 C 0.79969 0.85966 0.45787 0.0
C1446 C 0.8494 0.9556 0.46105 0.0
C1447 C 0.92517 0.96254 0.4556 0.0
C1448 C 0.84079 0.93294 0.46473 0.0
C1449 C 0.90754 0.91678 0.46294 0.0
C1450 C 0.98652 0.92472 0.45855 0.0
C1451 C -0.00498 0.9472 0.45495 0.0
H1452 H 0.16212 0.84505 0.33155 0.0
H1453 H 0.93205 0.82973 0.31257 0.0
H1454 H 0.12816 0.88508 0.33094 0.0
H1455 H 0.89691 0.87067 0.31217 0.0
H1456 H 0.89945 0.94852 0.30694 0.0
H1457 H 0.95246 0.90926 0.30511 0.0
H1458 H 0.01578 0.9085 0.33943 0.0
H1459 H 0.96284 0.94743 0.34118 0.0
C1460 C 0.10375 0.85015 0.32724 0.0
C1461 C 0.04935 0.83395 0.32216 0.0
C1462 C 0.08444 0.87326 0.32692 0.0
C1463 C 0.00989 0.88109 0.32155 0.0
C1464 C 0.95547 0.86511 0.3163 0.0
C1465 C 0.97494 0.84168 0.31662 0.0
C1466 C 0.92863 0.94023 0.31395 0.0
C1467 C 0.9294 0.95112 0.32415 0.0
C1468 C 0.95697 0.91763 0.31296 0.0
C1469 C 0.98725 0.90569 0.32214 0.0
C1470 C -0.00663 0.91723 0.33217 0.0
C1471 C 0.96414 0.93963 0.33317 0.0
H1472 H 0.42064 0.60246 0.55333 0.0
H1473 H 0.66883 0.56987 0.54904 0.0
H1474 H 0.48269 0.63874 0.54838 0.0
H1475 H 0.73163 0.6062 0.54326 0.0
H1476 H 0.83353 0.67306 0.55871 0.0
H1477 H 0.77955 0.63658 0.5528 0.0
H1478 H 0.54721 0.66907 0.54036 0.0
H1479 H 0.60075 0.7058 0.54706 0.0
C1480 C 0.48785 0.60286 0.55069 0.0
C1481 C 0.53997 0.5833 0.55176 0.0
C1482 C 0.52413 0.62391 0.54784 0.0
C1483 C 0.6139 0.62606 0.5458 0.0
C1484 C 0.66313 0.60569 0.54524 0.0
C1485 C 0.62673 0.58457 0.54828 0.0
C1486 C 0.77212 0.67256 0.55437 0.0
C1487 C 0.72091 0.69234 0.55354 0.0
C1488 C 0.7407 0.6514 0.5509 0.0
C1489 C 0.65692 0.64925 0.54635 0.0
C1490 C 0.61055 0.66963 0.5442 0.0
C1491 C 0.64194 0.69092 0.54783 0.0
H1492 H 0.50646 0.55859 0.70922 0.0
H1493 H 0.76804 0.58187 0.71513 0.0
H1494 H 0.45328 0.59719 0.71113 0.0
H1495 H 0.71495 0.62051 0.71792 0.0
H1496 H 0.62077 0.68603 0.70054 0.0
H1497 H 0.67487 0.64893 0.70628 0.0
H1498 H 0.41853 0.63148 0.71827 0.0
H1499 H 0.36424 0.66789 0.71164 0.0
C1500 C 0.55197 0.57182 0.71157 0.0
C1501 C 0.64137 0.5673 0.7119 0.0
C1502 C 0.52161 0.5942 0.71263 0.0
C1503 C 0.57998 0.61248 0.71432 0.0
C1504 C 0.66816 0.60723 0.71615 0.0
C1505 C 0.69864 0.58495 0.7148 0.0
C1506 C 0.5768 0.67434 0.7046 0.0
C1507 C 0.48838 0.67962 0.70555 0.0
C1508 C 0.60768 0.653 0.70798 0.0
C1509 C 0.55104 0.63667 0.71264 0.0
C1510 C 0.46392 0.64304 0.71441 0.0
C1511 C 0.43274 0.66405 0.71073 0.0
H1512 H 0.72897 0.4453 0.45252 0.0
H1513 H 0.45735 0.45173 0.46062 0.0
H1514 H 0.72162 0.40438 0.45579 0.0
H1515 H 0.45021 0.41064 0.46405 0.0
H1516 H 0.5727 0.34368 0.43606 0.0
H1517 H 0.62682 0.38107 0.4416 0.0
H1518 H 0.51158 0.37205 0.47338 0.0
H1519 H 0.46073 0.33405 0.46792 0.0
C1520 C 0.66884 0.43814 0.45561 0.0
C1521 C 0.59335 0.45162 0.45616 0.0
C1522 C 0.66461 0.41467 0.4574 0.0
C1523 C 0.58504 0.40429 0.45994 0.0
C1524 C 0.51251 0.41822 0.4621 0.0
C1525 C 0.51663 0.44181 0.46022 0.0
C1526 C 0.56348 0.34915 0.44442 0.0
C1527 C 0.51408 0.3359 0.45162 0.0
C1528 C 0.59381 0.37061 0.4476 0.0
C1529 C 0.57287 0.37952 0.45792 0.0
C1530 C 0.52877 0.36557 0.4654 0.0
C1531 C 0.50068 0.34377 0.46232 0.0
H1532 H 0.41892 0.32891 0.29689 0.0
H1533 H 0.16418 0.31695 0.31017 0.0
H1534 H 0.37385 0.36688 0.29092 0.0
H1535 H 0.11924 0.35482 0.30469 0.0
H1536 H 0.04562 0.42442 0.29887 0.0
H1537 H 0.08452 0.38557 0.29381 0.0
H1538 H 0.3546 0.40111 0.30023 0.0
H1539 H 0.3151 0.44014 0.30463 0.0
C1540 C 0.35177 0.33395 0.29801 0.0
C1541 C 0.29453 0.31972 0.3038 0.0
C1542 C 0.32627 0.356 0.29482 0.0
C1543 C 0.24314 0.36449 0.29749 0.0
C1544 C 0.18346 0.34921 0.30231 0.0
C1545 C 0.20892 0.3272 0.30541 0.0
C1546 C 0.11381 0.41985 0.29854 0.0
C1547 C 0.17734 0.43547 0.30202 0.0
C1548 C 0.13621 0.39734 0.29589 0.0
C1549 C 0.22266 0.38963 0.29694 0.0
C1550 C 0.28731 0.40607 0.29925 0.0
C1551 C 0.26486 0.42872 0.3017 0.0
H1552 H 0.69692 0.07109 0.05286 0.0
H1553 H 0.43363 0.087 0.04378 0.0
H1554 H 0.7429 0.10899 0.04755 0.0
H1555 H 0.47941 0.12483 0.03779 0.0
H1556 H 0.55657 0.19486 0.05327 0.0
H1557 H 0.50972 0.15702 0.04786 0.0
H1558 H 0.77205 0.14133 0.03766 0.0
H1559 H 0.81884 0.17893 0.04381 0.0
C1560 C 0.6499 0.08225 0.04901 0.0
C1561 C 0.56195 0.07601 0.04865 0.0
C1562 C 0.67602 0.10425 0.046 0.0
C1563 C 0.61464 0.12056 0.04248 0.0
C1564 C 0.5284 0.11316 0.04078 0.0
C1565 C 0.50221 0.09123 0.04396 0.0
C1566 C 0.60314 0.1837 0.04937 0.0
C1567 C 0.69114 0.18988 0.04891 0.0
C1568 C 0.57651 0.16177 0.04627 0.0
C1569 C 0.63737 0.14553 0.04256 0.0
C1570 C 0.72351 0.15292 0.0408 0.0
C1571 C 0.75028 0.1747 0.04411 0.0
H1572 H 0.49376 0.19856 0.20857 0.0
H1573 H 0.22765 0.19387 0.19769 0.0
H1574 H 0.49757 0.15707 0.21089 0.0
H1575 H 0.23129 0.15263 0.19997 0.0
H1576 H 0.37291 0.09111 0.18124 0.0
H1577 H 0.32213 0.12866 0.18687 0.0
H1578 H 0.43717 0.11864 0.21864 0.0
H1579 H 0.4854 0.08056 0.21302 0.0
C1580 C 0.43471 0.18884 0.20727 0.0
C1581 C 0.36076 0.1994 0.20284 0.0
C1582 C 0.43692 0.16503 0.20852 0.0
C1583 C 0.36518 0.15154 0.20537 0.0
C1584 C 0.2879 0.16251 0.2023 0.0
C1585 C 0.28567 0.18617 0.20109 0.0
C1586 C 0.3828 0.09641 0.18961 0.0
C1587 C 0.43147 0.08281 0.19675 0.0
C1588 C 0.35443 0.118 0.19284 0.0
C1589 C 0.37632 0.12672 0.20319 0.0
C1590 C 0.41947 0.11241 0.21062 0.0
C1591 C 0.4459 0.09051 0.20746 0.0
H1592 H 0.43899 0.8352 0.9572 0.0
H1593 H 0.1909 0.86157 0.96734 0.0
H1594 H 0.50574 0.87182 0.96071 0.0
H1595 H 0.25818 0.89795 0.97186 0.0
H1596 H 0.35488 0.96368 0.95477 0.0
H1597 H 0.29622 0.92819 0.96164 0.0
H1598 H 0.55739 0.90419 0.96811 0.0
H1599 H 0.61495 0.93925 0.96028 0.0
C1600 C 0.39976 0.8485 0.96083 0.0
C1601 C 0.30968 0.84563 0.96187 0.0
C1602 C 0.43801 0.86979 0.96285 0.0
C1603 C 0.38722 0.88858 0.96622 0.0
C1604 C 0.29924 0.88445 0.96879 0.0
C1605 C 0.26064 0.86338 0.96644 0.0
C1606 C 0.39941 0.9512 0.95811 0.0
C1607 C 0.4893 0.95416 0.95695 0.0
C1608 C 0.36586 0.93056 0.96206 0.0
C1609 C 0.42168 0.91254 0.96516 0.0
C1610 C 0.51181 0.91702 0.96539 0.0
C1611 C 0.54519 0.93739 0.96113 0.0
H1612 H 0.63947 0.85102 0.79553 0.0
H1613 H 0.3831 0.82443 0.80177 0.0
H1614 H 0.57672 0.88689 0.78935 0.0
H1615 H 0.31983 0.86054 0.7963 0.0
H1616 H 0.21098 0.92753 0.78998 0.0
H1617 H 0.28091 0.89137 0.78576 0.0
H1618 H 0.52204 0.91723 0.79914 0.0
H1619 H 0.45271 0.95367 0.80268 0.0
C1620 C 0.56933 0.85261 0.79519 0.0
C1621 C 0.51611 0.83502 0.79918 0.0
C1622 C 0.53323 0.87335 0.79185 0.0
C1623 C 0.44312 0.87716 0.79268 0.0
C1624 C 0.38943 0.85852 0.7955 0.0
C1625 C 0.42562 0.83761 0.79863 0.0
C1626 C 0.27987 0.92567 0.79161 0.0
C1627 C 0.3264 0.94335 0.7967 0.0
C1628 C 0.31985 0.90481 0.78933 0.0
C1629 C 0.40688 0.90089 0.79235 0.0
C1630 C 0.45522 0.91939 0.79658 0.0
C1631 C 0.41554 0.94044 0.79864 0.0
H1632 H 0.74182 0.46518 0.07203 0.0
H1633 H 0.66267 0.52266 0.05251 0.0
H1634 H 0.58967 0.45864 0.07733 0.0
H1635 H 0.51176 0.51614 0.05771 0.0
H1636 H 0.26169 0.45897 0.07193 0.0
H1637 H 0.41764 0.45329 0.06884 0.0
H1638 H 0.4663 0.5225 0.07898 0.0
H1639 H 0.31115 0.52819 0.0819 0.0
C1640 C 0.69131 0.4755 0.06835 0.0
C1641 C 0.71346 0.49435 0.06181 0.0
C1642 C 0.60469 0.47201 0.07154 0.0
C1643 C 0.54005 0.48738 0.06821 0.0
C1644 C 0.56105 0.50439 0.06058 0.0
C1645 C 0.64702 0.50786 0.05742 0.0
C1646 C 0.30646 0.47242 0.07421 0.0
C1647 C 0.27475 0.49405 0.07713 0.0
C1648 C 0.39547 0.46928 0.07225 0.0
C1649 C 0.45296 0.48771 0.07332 0.0
C1650 C 0.42263 0.50817 0.07788 0.0
C1651 C 0.33412 0.5113 0.07979 0.0
H1652 H 0.58358 0.80565 0.07905 0.0
H1653 H 0.63297 0.76119 0.05182 0.0
H1654 H 0.73928 0.80664 0.08323 0.0
H1655 H 0.7882 0.7623 0.05588 0.0
H1656 H 0.99101 0.7316 0.07687 0.0
H1657 H 0.83949 0.74184 0.07389 0.0
H1658 H 0.90565 0.81311 0.07646 0.0
H1659 H 0.05812 0.80277 0.07961 0.0
C1660 C 0.62844 0.79742 0.0735 0.0
C1661 C 0.59673 0.78336 0.0651 0.0
C1662 C 0.7173 0.79766 0.07602 0.0
C1663 C 0.77479 0.78387 0.07012 0.0
C1664 C 0.74451 0.77264 0.06072 0.0
C1665 C 0.656 0.77241 0.05822 0.0
C1666 C 0.97258 0.74939 0.07736 0.0
C1667 C 0.03634 0.76637 0.07832 0.0
C1668 C 0.88631 0.75529 0.0754 0.0
C1669 C 0.86212 0.77828 0.07444 0.0
C1670 C 0.92332 0.79527 0.07693 0.0
C1671 C 0.01026 0.78932 0.07891 0.0
H1672 H 0.74671 0.80682 0.19494 0.0
H1673 H 0.73086 0.76856 0.16494 0.0
H1674 H 0.59454 0.81785 0.1929 0.0
H1675 H 0.57897 0.77957 0.16287 0.0
H1676 H 0.29317 0.77177 0.17616 0.0
H1677 H 0.44823 0.76836 0.17278 0.0
H1678 H 0.48496 0.83865 0.18218 0.0
H1679 H 0.32942 0.84207 0.18559 0.0
C1680 C 0.71128 0.80124 0.18779 0.0
C1681 C 0.75044 0.78681 0.18013 0.0
C1682 C 0.62418 0.80759 0.18658 0.0
C1683 C 0.57456 0.79947 0.17773 0.0
C1684 C 0.61511 0.78586 0.16983 0.0
C1685 C 0.70203 0.77957 0.17103 0.0
C1686 C 0.33354 0.78676 0.17709 0.0
C1687 C 0.29904 0.8071 0.18126 0.0
C1688 C 0.42278 0.78479 0.17519 0.0
C1689 C 0.47911 0.80313 0.17744 0.0
C1690 C 0.44341 0.82409 0.18062 0.0
C1691 C 0.35423 0.82606 0.18249 0.0
H1692 H 0.82003 0.54108 0.1741 0.0
H1693 H 0.7547 0.47236 0.18379 0.0
H1694 H 0.66659 0.54863 0.17038 0.0
H1695 H 0.60267 0.48002 0.18051 0.0
H1696 H 0.32783 0.49792 0.17496 0.0
H1697 H 0.47834 0.48977 0.17011 0.0
H1698 H 0.55719 0.55427 0.18407 0.0
H1699 H 0.40695 0.56256 0.18858 0.0
C1700 C 0.77334 0.52745 0.17513 0.0
C1701 C 0.79839 0.50643 0.17957 0.0
C1702 C 0.68553 0.53177 0.17309 0.0
C1703 C 0.62232 0.51514 0.17548 0.0
C1704 C 0.64931 0.49326 0.17861 0.0
C1705 C 0.73663 0.48894 0.1806 0.0
C1706 C 0.37761 0.51023 0.17703 0.0
C1707 C 0.35638 0.5306 0.18237 0.0
C1708 C 0.46354 0.50571 0.17414 0.0
C1709 C 0.52973 0.5214 0.17666 0.0
C1710 C 0.5077 0.54203 0.18177 0.0
C1711 C 0.42183 0.54663 0.18454 0.0
H1712 H 0.64313 0.5049 0.95965 0.0
H1713 H 0.55553 0.50401 0.92627 0.0
H1714 H 0.49174 0.50271 0.96589 0.0
H1715 H 0.40482 0.50083 0.9325 0.0
H1716 H 0.21597 0.55358 0.95349 0.0
H1717 H 0.36979 0.54305 0.95428 0.0
H1718 H 0.30001 0.47215 0.95177 0.0
H1719 H 0.14587 0.48265 0.95142 0.0
C1720 C 0.59202 0.50259 0.95366 0.0
C1721 C 0.61123 0.50414 0.94246 0.0
C1722 C 0.50539 0.50168 0.95725 0.0
C1723 C 0.43698 0.50164 0.94967 0.0
C1724 C 0.45665 0.50063 0.93849 0.0
C1725 C 0.54294 0.50212 0.93491 0.0
C1726 C 0.23305 0.5357 0.95397 0.0
C1727 C 0.16868 0.51894 0.95263 0.0
C1728 C 0.3212 0.52966 0.95425 0.0
C1729 C 0.34645 0.5068 0.95303 0.0
C1730 C 0.28211 0.48986 0.95284 0.0
C1731 C 0.19382 0.49588 0.95281 0.0
H1732 H 0.43524 0.24022 0.93607 0.0
H1733 H 0.53204 0.29046 0.95872 0.0
H1734 H 0.2875 0.25343 0.93913 0.0
H1735 H 0.38215 0.30346 0.96204 0.0
H1736 H 0.07172 0.28775 0.97032 0.0
H1737 H 0.23016 0.28705 0.96914 0.0
H1738 H 0.21255 0.29193 0.93411 0.0
H1739 H 0.05411 0.29266 0.9353 0.0
C1740 C 0.42453 0.25367 0.94197 0.0
C1741 C 0.49515 0.26413 0.94724 0.0
C1742 C 0.34009 0.26152 0.94357 0.0
C1743 C 0.32374 0.27999 0.95053 0.0
C1744 C 0.39328 0.2894 0.9565 0.0
C1745 C 0.4787 0.28164 0.95479 0.0
C1746 C 0.10186 0.29012 0.96242 0.0
C1747 C 0.05063 0.28988 0.95288 0.0
C1748 C 0.19268 0.28946 0.96175 0.0
C1749 C 0.23326 0.2886 0.95153 0.0
C1750 C 0.1825 0.29205 0.9421 0.0
C1751 C 0.09169 0.29291 0.94278 0.0
H1752 H 0.77544 0.25363 0.79071 0.0
H1753 H 0.79147 0.28963 0.82133 0.0
H1754 H 0.62062 0.26197 0.78957 0.0
H1755 H 0.63599 0.2978 0.82029 0.0
H1756 H 0.34904 0.24256 0.80511 0.0
H1757 H 0.50298 0.24504 0.80028 0.0
H1758 H 0.50969 0.31486 0.81142 0.0
H1759 H 0.35655 0.31223 0.81629 0.0
C1760 C 0.74621 0.26398 0.79704 0.0
C1761 C 0.79505 0.27075 0.80619 0.0
C1762 C 0.6574 0.26856 0.79642 0.0
C1763 C 0.61552 0.28003 0.80495 0.0
C1764 C 0.66627 0.28892 0.81355 0.0
C1765 C 0.75556 0.28436 0.81415 0.0
C1766 C 0.38274 0.25863 0.80614 0.0
C1767 C 0.34131 0.2771 0.81115 0.0
C1768 C 0.47102 0.26011 0.80341 0.0
C1769 C 0.51899 0.2801 0.80565 0.0
C1770 C 0.47515 0.29913 0.8098 0.0
C1771 C 0.38736 0.29763 0.81253 0.0
H1772 H 0.04035 0.4823 0.82057 0.0
H1773 H 0.06453 0.50447 0.78711 0.0
H1774 H 0.1969 0.4756 0.82127 0.0
H1775 H 0.22073 0.4979 0.78784 0.0
H1776 H 0.48027 0.45943 0.81894 0.0
H1777 H 0.32704 0.45523 0.81432 0.0
H1778 H 0.3332 0.52038 0.79794 0.0
H1779 H 0.48686 0.52471 0.80272 0.0
C1780 C 0.07833 0.48487 0.81324 0.0
C1781 C 0.04013 0.49423 0.80385 0.0
C1782 C 0.1683 0.48117 0.81364 0.0
C1783 C 0.22146 0.48677 0.80467 0.0
C1784 C 0.18183 0.49394 0.79495 0.0
C1785 C 0.09215 0.49749 0.79453 0.0
C1786 C 0.44936 0.4727 0.81416 0.0
C1787 C 0.49567 0.49246 0.81119 0.0
C1788 C 0.36148 0.47028 0.81156 0.0
C1789 C 0.3177 0.48752 0.80586 0.0
C1790 C 0.36533 0.50665 0.80225 0.0
C1791 C 0.45352 0.50914 0.80493 0.0
H1792 H 0.22736 1.01487 0.53438 0.0
H1793 H 0.21612 0.04728 0.56596 0.0
H1794 H 0.38303 0.02207 0.53348 0.0
H1795 H 0.37257 0.05476 0.56497 0.0
H1796 H 0.65091 0.07269 0.55886 0.0
H1797 H 0.4957 0.07401 0.55502 0.0
H1798 H 0.50385 1.00395 0.54437 0.0
H1799 H 0.65982 1.0025 0.54837 0.0
C1800 C 0.25771 0.02412 0.54101 0.0
C1801 C 0.20943 0.03025 0.55032 0.0
C1802 C 0.34712 0.02808 0.5405 0.0
C1803 C 0.39042 0.03854 0.54923 0.0
C1804 C 0.34095 0.04663 0.5581 0.0
C1805 C 0.25114 0.04249 0.55865 0.0
C1806 C 0.62014 0.05768 0.55544 0.0
C1807 C 0.66757 0.03737 0.55403 0.0
C1808 C 0.53101 0.05846 0.55332 0.0
C1809 C 0.48717 0.03901 0.5496 0.0
C1810 C 0.53591 0.01927 0.54723 0.0
C1811 C 0.62543 0.01843 0.54945 0.0
H1812 H 0.50347 0.27946 0.55759 0.0
H1813 H 0.51903 0.20916 0.56784 0.0
H1814 H 0.66047 0.27961 0.55441 0.0
H1815 H 0.67533 0.20942 0.56478 0.0
H1816 H 0.95033 0.23737 0.57666 0.0
H1817 H 0.79457 0.22904 0.57518 0.0
H1818 H 0.78579 0.26343 0.54407 0.0
H1819 H 0.94046 0.27156 0.54548 0.0
C1820 C 0.53967 0.26384 0.55881 0.0
C1821 C 0.49871 0.24443 0.5631 0.0
C1822 C 0.62984 0.26393 0.55705 0.0
C1823 C 0.68066 0.24462 0.55958 0.0
C1824 C 0.63841 0.22468 0.56298 0.0
C1825 C 0.54857 0.22453 0.56464 0.0
C1826 C 0.91576 0.24246 0.56935 0.0
C1827 C 0.95765 0.25537 0.56127 0.0
C1828 C 0.82638 0.2378 0.56851 0.0
C1829 C 0.77746 0.246 0.55958 0.0
C1830 C 0.82108 0.25731 0.55114 0.0
C1831 C 0.90999 0.26182 0.55194 0.0
H1832 H 0.92496 0.265 0.66947 0.0
H1833 H 0.93589 0.2906 0.70246 0.0
H1834 H 0.77119 0.27491 0.66842 0.0
H1835 H 0.78253 0.30097 0.70132 0.0
H1836 H 0.51758 0.32691 0.69565 0.0
H1837 H 0.67266 0.32551 0.69176 0.0
H1838 H 0.64103 0.25836 0.67794 0.0
H1839 H 0.4856 0.25967 0.68189 0.0
C1840 C 0.89491 0.27316 0.67643 0.0
C1841 C 0.94263 0.27713 0.68605 0.0
C1842 C 0.8069 0.2788 0.67581 0.0
C1843 C 0.76485 0.28866 0.68477 0.0
C1844 C 0.81354 0.29366 0.69421 0.0
C1845 C 0.90147 0.2878 0.69487 0.0
C1846 C 0.54322 0.31208 0.6915 0.0
C1847 C 0.48962 0.29321 0.68924 0.0
C1848 C 0.63213 0.31127 0.68934 0.0
C1849 C 0.66914 0.29165 0.68479 0.0
C1850 C 0.61422 0.27373 0.68147 0.0
C1851 C 0.52501 0.2745 0.68369 0.0
H1852 H 0.8961 1.00331 0.67211 0.0
H1853 H 0.86253 0.9336 0.68269 0.0
H1854 H 0.74119 1.00578 0.66825 0.0
H1855 H 0.70695 0.93635 0.67907 0.0
H1856 H 0.4586 1.00125 0.65875 0.0
H1857 H 0.61208 0.99094 0.65761 0.0
H1858 H 0.5966 0.95991 0.68948 0.0
H1859 H 0.44417 0.97091 0.69079 0.0
C1860 C 0.85655 0.98823 0.67321 0.0
C1861 C 0.89195 0.96828 0.67773 0.0
C1862 C 0.76742 0.9897 0.67106 0.0
C1863 C 0.71187 0.97135 0.67352 0.0
C1864 C 0.74814 0.95085 0.67725 0.0
C1865 C 0.83732 0.94929 0.67927 0.0
C1866 C 0.48765 0.99191 0.66545 0.0
C1867 C 0.4389 0.98664 0.67483 0.0
C1868 C 0.57546 0.98603 0.66478 0.0
C1869 C 0.61624 0.9746 0.67343 0.0
C1870 C 0.56653 0.96838 0.68259 0.0
C1871 C 0.47894 0.97453 0.68332 0.0
H1872 H 0.59881 0.09797 0.43682 0.0
H1873 H 0.63329 0.0285 0.42601 0.0
H1874 H 0.44347 0.09518 0.43298 0.0
H1875 H 0.47883 0.02591 0.42201 0.0
H1876 H 0.19736 0.02933 0.41262 0.0
H1877 H 0.35042 0.04013 0.41147 0.0
H1878 H 0.33291 0.07185 0.44316 0.0
H1879 H 0.18045 0.06068 0.4444 0.0
C1880 C 0.57381 0.08233 0.43332 0.0
C1881 C 0.6285 0.06341 0.43175 0.0
C1882 C 0.48484 0.08074 0.43117 0.0
C1883 C 0.44898 0.06025 0.42734 0.0
C1884 C 0.50473 0.042 0.42488 0.0
C1885 C 0.59361 0.04352 0.42712 0.0
C1886 C 0.22598 0.03888 0.41928 0.0
C1887 C 0.17687 0.04425 0.42859 0.0
C1888 C 0.31347 0.04506 0.4186 0.0
C1889 C 0.35354 0.05682 0.42721 0.0
C1890 C 0.30342 0.06309 0.43631 0.0
C1891 C 0.21609 0.0567 0.43704 0.0
H1892 H 0.60624 0.74692 0.44131 0.0
H1893 H 0.58947 0.79137 0.41333 0.0
H1894 H 0.45351 0.73744 0.43933 0.0
H1895 H 0.43593 0.78178 0.41122 0.0
H1896 H 0.1585 0.79086 0.42751 0.0
H1897 H 0.31115 0.79249 0.42209 0.0
H1898 H 0.3375 0.72055 0.429 0.0
H1899 H 0.18638 0.71931 0.43485 0.0
C1900 C 0.57054 0.75399 0.4345 0.0
C1901 C 0.6093 0.76989 0.42753 0.0
C1902 C 0.48289 0.74858 0.43333 0.0
C1903 C 0.43249 0.75897 0.42512 0.0
C1904 C 0.47287 0.77376 0.4177 0.0
C1905 C 0.56057 0.77923 0.41891 0.0
C1906 C 0.19666 0.77536 0.42757 0.0
C1907 C 0.16245 0.75517 0.43188 0.0
C1908 C 0.28382 0.77619 0.42442 0.0
C1909 C 0.3368 0.75672 0.4254 0.0
C1910 C 0.2989 0.73594 0.42847 0.0
C1911 C 0.2126 0.73523 0.43179 0.0
H1912 H 0.34085 0.7977 0.2986 0.0
H1913 H 0.42242 0.73415 0.31292 0.0
H1914 H 0.49418 0.80846 0.29585 0.0
H1915 H 0.57429 0.74494 0.31037 0.0
H1916 H 0.80152 0.78584 0.32249 0.0
H1917 H 0.64279 0.78447 0.32145 0.0
H1918 H 0.6553 0.78786 0.28638 0.0
H1919 H 0.81433 0.7888 0.28739 0.0
C1920 C 0.39131 0.78551 0.30057 0.0
C1921 C 0.36986 0.76491 0.3058 0.0
C1922 C 0.47887 0.79187 0.29922 0.0
C1923 C 0.54554 0.77779 0.30321 0.0
C1924 C 0.5239 0.75627 0.30742 0.0
C1925 C 0.43703 0.74986 0.30864 0.0
C1926 C 0.77053 0.78769 0.3146 0.0
C1927 C 0.82042 0.78733 0.30503 0.0
C1928 C 0.67965 0.78651 0.31398 0.0
C1929 C 0.63731 0.78556 0.30381 0.0
C1930 C 0.68645 0.78847 0.2943 0.0
C1931 C 0.77743 0.78929 0.2949 0.0
H1932 H 0.0376 0.97613 0.30586 0.0
H1933 H 0.12027 0.04431 0.31397 0.0
H1934 H 0.18981 0.96558 0.30229 0.0
H1935 H 0.26989 0.03404 0.31065 0.0
H1936 H 0.52525 0.02151 0.29913 0.0
H1937 H 0.36919 0.02548 0.29635 0.0
H1938 H 0.32716 0.95985 0.31144 0.0
H1939 H 0.48289 0.95532 0.31363 0.0
C1940 C 0.08834 0.98865 0.30708 0.0
C1941 C 0.06741 1.01096 0.31023 0.0
C1942 C 0.17524 0.98276 0.30491 0.0
C1943 C 0.24208 0.99915 0.30587 0.0
C1944 C 0.22032 0.02118 0.30938 0.0
C1945 C 0.13444 0.02699 0.31147 0.0
C1946 C 0.48321 1.00748 0.3014 0.0
C1947 C 0.5164 0.98844 0.30692 0.0
C1948 C 0.39343 1.00988 0.29996 0.0
C1949 C 0.33539 0.99343 0.30414 0.0
C1950 C 0.36955 0.97301 0.30826 0.0
C1951 C 0.45925 0.97047 0.30955 0.0
H1952 H 0.2271 0.49046 0.57101 0.0
H1953 H 0.20995 0.53944 0.59715 0.0
H1954 H 0.07591 0.47974 0.57401 0.0
H1955 H 0.05876 0.52874 0.60023 0.0
H1956 H 0.77248 0.53025 0.58662 0.0
H1957 H 0.92726 0.53537 0.5899 0.0
H1958 H 0.96767 0.46297 0.58597 0.0
H1959 H 0.81296 0.45794 0.58246 0.0
C1960 C 0.19168 0.49842 0.5776 0.0
C1961 C 0.23 0.51574 0.58382 0.0
C1962 C 0.10504 0.49232 0.57935 0.0
C1963 C 0.05517 0.50347 0.58735 0.0
C1964 C 0.09506 0.52006 0.59391 0.0
C1965 C 0.18153 0.52617 0.59214 0.0
C1966 C 0.81385 0.51534 0.58682 0.0
C1967 C 0.78102 0.49379 0.58406 0.0
C1968 C 0.90276 0.51825 0.5887 0.0
C1969 C 0.96 0.49961 0.58793 0.0
C1970 C 0.92548 0.47772 0.58633 0.0
C1971 C 0.83683 0.47484 0.58439 0.0
H1972 H 0.45519 0.7501 0.58452 0.0
H1973 H 0.42221 0.82169 0.57747 0.0
H1974 H 0.30229 0.74735 0.58941 0.0
H1975 H 0.26937 0.81906 0.58252 0.0
H1976 H 0.00052 0.7905 0.57074 0.0
H1977 H 0.15277 0.80106 0.57235 0.0
H1978 H 0.17824 0.7576 0.60065 0.0
H1979 H 0.02523 0.74706 0.599 0.0
C1980 C 0.41606 0.76542 0.58441 0.0
C1981 C 0.45011 0.78601 0.58047 0.0
C1982 C 0.3283 0.76388 0.58722 0.0
C1983 C 0.2734 0.78294 0.58616 0.0
C1984 C 0.30965 0.80399 0.58318 0.0
C1985 C 0.39712 0.80549 0.58033 0.0
C1986 C 0.03771 0.78389 0.57753 0.0
C1987 C 0.00114 0.768 0.58473 0.0
C1988 C 0.12518 0.78988 0.57846 0.0
C1989 C 0.17777 0.78003 0.5866 0.0
C1990 C 0.13965 0.76522 0.59421 0.0
C1991 C 0.05216 0.75922 0.59327 0.0
H1992 H 0.695 0.79322 0.68421 0.0
H1993 H 0.75723 0.72158 0.68436 0.0
H1994 H 0.84938 0.80248 0.68677 0.0
H1995 H 0.91055 0.73077 0.6868 0.0
H1996 H 0.11354 0.74781 0.71052 0.0
H1997 H 0.95939 0.75028 0.70597 0.0
H1998 H 0.01965 0.79414 0.67876 0.0
H1999 H 0.17464 0.79172 0.68341 0.0
C2000 C 0.74216 0.77953 0.68411 0.0
C2001 C 0.71451 0.75666 0.68414 0.0
C2002 C 0.83018 0.78484 0.68576 0.0
C2003 C 0.89071 0.76728 0.68738 0.0
C2004 C 0.86442 0.74458 0.68586 0.0
C2005 C 0.77705 0.73931 0.68423 0.0
C2006 C 0.09337 0.75915 0.70401 0.0
C2007 C 0.1555 0.7697 0.69737 0.0
C2008 C 0.00548 0.76021 0.70126 0.0
C2009 C 0.97854 0.77182 0.69181 0.0
C2010 C 0.03916 0.78495 0.68602 0.0
C2011 C 0.12752 0.78387 0.6888 0.0
H2012 H 0.94291 0.4662 0.69989 0.0
H2013 H 0.93938 0.5002 0.66866 0.0
H2014 H 0.0962 0.45641 0.69706 0.0
H2015 H 0.0925 0.49114 0.66603 0.0
H2016 H 0.38445 0.50365 0.67878 0.0
H2017 H 0.2269 0.50589 0.6762 0.0
H2018 H 0.20246 0.43473 0.68453 0.0
H2019 H 0.35944 0.43231 0.68689 0.0
C2020 C 0.9739 0.4709 0.69229 0.0
C2021 C 0.92886 0.48378 0.68448 0.0
C2022 C 0.06182 0.46548 0.69069 0.0
C2023 C 0.10644 0.4732 0.68134 0.0
C2024 C 0.06016 0.48517 0.67334 0.0
C2025 C 0.9724 0.49027 0.67486 0.0
C2026 C 0.34604 0.48826 0.67957 0.0
C2027 C 0.38439 0.46791 0.6832 0.0
C2028 C 0.2556 0.48956 0.67819 0.0
C2029 C 0.20231 0.47059 0.68046 0.0
C2030 C 0.24171 0.44972 0.68297 0.0
C2031 C 0.33179 0.44834 0.68421 0.0
H2032 H 0.80668 0.5216 0.4103 0.0
H2033 H 0.78891 0.55666 0.44119 0.0
H2034 H 0.96249 0.52889 0.40978 0.0
H2035 H 0.94503 0.56419 0.44057 0.0
H2036 H 0.22368 0.58195 0.43526 0.0
H2037 H 0.06938 0.58274 0.43087 0.0
H2038 H 0.08153 0.51204 0.42129 0.0
H2039 H 0.23646 0.51115 0.42583 0.0
C2040 C 0.83556 0.53143 0.41685 0.0
C2041 C 0.78533 0.53833 0.42587 0.0
C2042 C 0.92504 0.53544 0.41656 0.0
C2043 C 0.96635 0.54672 0.42521 0.0
C2044 C 0.91502 0.55547 0.43375 0.0
C2045 C 0.82531 0.55127 0.43409 0.0
C2046 C 0.194 0.56667 0.43198 0.0
C2047 C 0.24227 0.54639 0.43099 0.0
C2048 C 0.10541 0.56714 0.42953 0.0
C2049 C 0.06292 0.5474 0.42591 0.0
C2050 C 0.11256 0.52759 0.42403 0.0
C2051 C 0.20152 0.52708 0.42657 0.0
H2052 H 0.06352 0.33136 0.4576 0.0
H2053 H 0.09663 0.26101 0.46706 0.0
H2054 H 0.90777 0.32833 0.46086 0.0
H2055 H 0.94088 0.25779 0.4701 0.0
H2056 H 0.65914 0.25654 0.47676 0.0
H2057 H 0.80997 0.26777 0.47938 0.0
H2058 H 0.79572 0.30953 0.45038 0.0
H2059 H 0.64364 0.29858 0.44793 0.0
C2060 C 0.03781 0.31541 0.46066 0.0
C2061 C 0.09214 0.2963 0.46191 0.0
C2062 C 0.9484 0.31363 0.46242 0.0
C2063 C 0.91139 0.2927 0.46546 0.0
C2064 C 0.96701 0.27423 0.46777 0.0
C2065 C 0.05665 0.27605 0.46606 0.0
C2066 C 0.68792 0.26841 0.47103 0.0
C2067 C 0.64004 0.27651 0.46206 0.0
C2068 C 0.77445 0.27479 0.47253 0.0
C2069 C 0.81555 0.28927 0.46503 0.0
C2070 C 0.76597 0.2985 0.4564 0.0
C2071 C 0.6788 0.29223 0.45495 0.0
H2072 H 0.12157 0.27355 0.33823 0.0
H2073 H 0.05782 0.20361 0.33061 0.0
H2074 H 0.96759 0.28166 0.34107 0.0
H2075 H 0.9045 0.21178 0.33322 0.0
H2076 H 0.62852 0.23329 0.33968 0.0
H2077 H 0.77968 0.22486 0.34433 0.0
H2078 H 0.86252 0.28354 0.32569 0.0
H2079 H 0.71213 0.29162 0.32093 0.0
C2080 C 0.07501 0.25976 0.33753 0.0
C2081 C 0.10085 0.23812 0.33395 0.0
C2082 C 0.98705 0.26442 0.33908 0.0
C2083 C 0.92438 0.24747 0.3371 0.0
C2084 C 0.95141 0.22518 0.33479 0.0
C2085 C 0.03912 0.22055 0.33321 0.0
C2086 C 0.67939 0.24404 0.33641 0.0
C2087 C 0.65937 0.26259 0.32965 0.0
C2088 C 0.76546 0.23949 0.33925 0.0
C2089 C 0.83251 0.25367 0.33546 0.0
C2090 C 0.81196 0.2726 0.32893 0.0
C2091 C 0.72612 0.27704 0.32607 0.0
H2092 H 0.88965 0.53494 0.32108 0.0
H2093 H 0.8681 0.48728 0.34779 0.0
H2094 H 0.73703 0.54488 0.32323 0.0
H2095 H 0.71579 0.49747 0.3501 0.0
H2096 H 0.43614 0.49138 0.33484 0.0
H2097 H 0.59017 0.48851 0.33921 0.0
H2098 H 0.62024 0.56089 0.33381 0.0
H2099 H 0.46652 0.56359 0.32921 0.0
C2100 C 0.85307 0.52717 0.32764 0.0
C2101 C 0.89036 0.51018 0.33417 0.0
C2102 C 0.76547 0.53286 0.3289 0.0
C2103 C 0.71385 0.52173 0.33677 0.0
C2104 C 0.75326 0.506 0.34383 0.0
C2105 C 0.84051 0.50023 0.34252 0.0
C2106 C 0.475 0.50677 0.33495 0.0
C2107 C 0.43986 0.5276 0.33151 0.0
C2108 C 0.56347 0.50518 0.33745 0.0
C2109 C 0.61791 0.52444 0.33663 0.0
C2110 C 0.58052 0.54566 0.33425 0.0
C2111 C 0.49242 0.54721 0.33168 0.0
H2112 H 0.75992 0.02135 0.08488 0.0
H2113 H 0.82595 0.95401 0.0733 0.0
H2114 H 0.91254 0.02886 0.08858 0.0
H2115 H 0.97875 0.96194 0.0765 0.0
H2116 H 0.25474 0.98151 0.08504 0.0
H2117 H 0.10234 0.97098 0.08798 0.0
H2118 H 0.02331 0.03651 0.07523 0.0
H2119 H 0.17472 0.04664 0.07231 0.0
C2120 C 0.80639 1.00788 0.08343 0.0
C2121 C 0.78083 0.98722 0.07862 0.0
C2122 C 0.89416 1.0123 0.08542 0.0
C2123 C 0.95789 0.99624 0.08254 0.0
C2124 C 0.93143 0.97472 0.07879 0.0
C2125 C 0.84369 0.97023 0.07689 0.0
C2126 C 0.2043 0.99331 0.08269 0.0
C2127 C 0.22582 1.01446 0.07813 0.0
C2128 C 0.11735 0.98751 0.08452 0.0
C2129 C 0.05065 1.00295 0.08188 0.0
C2130 C 0.07294 0.02439 0.07758 0.0
C2131 C 0.1596 0.03011 0.07578 0.0
H2132 H 0.0324 0.23688 0.09277 0.0
H2133 H 0.02268 0.28215 0.06505 0.0
H2134 H 0.18336 0.24751 0.09603 0.0
H2135 H 0.17374 0.29302 0.06834 0.0
H2136 H 0.43277 0.31709 0.07834 0.0
H2137 H 0.27699 0.31169 0.08078 0.0
H2138 H 0.31919 0.23991 0.08649 0.0
H2139 H 0.47508 0.24534 0.08416 0.0
C2140 C 0.06237 0.24932 0.08744 0.0
C2141 C 0.01564 0.2588 0.07867 0.0
C2142 C 0.1488 0.2554 0.08932 0.0
C2143 C 0.19066 0.27108 0.08246 0.0
C2144 C 0.14294 0.28119 0.07391 0.0
C2145 C 0.05628 0.27504 0.07202 0.0
C2146 C 0.40907 0.30027 0.08047 0.0
C2147 C 0.46605 0.28155 0.08087 0.0
C2148 C 0.31972 0.29717 0.08176 0.0
C2149 C 0.28556 0.2753 0.08352 0.0
C2150 C 0.3434 0.257 0.08511 0.0
C2151 C 0.43301 0.26011 0.08382 0.0
H2152 H 0.74187 0.32067 0.19696 0.0
H2153 H 0.74258 0.26053 0.17675 0.0
H2154 H 0.89001 0.32942 0.19145 0.0
H2155 H 0.89328 0.26877 0.17146 0.0
H2156 H 0.15976 0.28822 0.16212 0.0
H2157 H 0.00247 0.29335 0.16281 0.0
H2158 H 0.02235 0.31098 0.19694 0.0
H2159 H 0.17905 0.306 0.19619 0.0
C2160 C 0.7739 0.30944 0.19121 0.0
C2161 C 0.7321 0.28968 0.18743 0.0
C2162 C 0.85866 0.31445 0.18808 0.0
C2163 C 0.9041 0.29959 0.1812 0.0
C2164 C 0.85987 0.28065 0.17674 0.0
C2165 C 0.77393 0.2758 0.17979 0.0
C2166 C 0.13063 0.29407 0.16966 0.0
C2167 C 0.18136 0.29652 0.17914 0.0
C2168 C 0.04053 0.29675 0.17007 0.0
C2169 C -0.00031 0.30204 0.17997 0.0
C2170 C 0.05165 0.30695 0.18915 0.0
C2171 C 0.14177 0.30423 0.18874 0.0
H2172 H 0.28506 1.0019 0.22024 0.0
H2173 H 0.29466 0.04688 0.19242 0.0
H2174 H 0.1345 1.01251 0.22352 0.0
H2175 H 0.14265 0.05731 0.19555 0.0
H2176 H 0.87326 0.07646 0.20385 0.0
H2177 H 0.02951 0.07421 0.20695 0.0
H2178 H 0.00468 1.00218 0.21359 0.0
H2179 H 0.84842 1.00451 0.2106 0.0
C2180 C 0.25513 1.01441 0.21493 0.0
C2181 C 0.30093 0.0234 0.20599 0.0
C2182 C 0.16882 0.0204 0.21679 0.0
C2183 C 0.12596 0.0354 0.2097 0.0
C2184 C 0.1739 0.04579 0.20122 0.0
C2185 C 0.26096 0.03986 0.19941 0.0
C2186 C 0.90088 0.06027 0.20631 0.0
C2187 C 0.84878 0.04056 0.20683 0.0
C2188 C 0.99052 0.05898 0.20799 0.0
C2189 C 0.0299 0.03796 0.21026 0.0
C2190 C 0.97651 0.0187 0.21187 0.0
C2191 C 0.88667 0.02 0.21019 0.0
H2192 H 0.80643 0.04156 0.93741 0.0
H2193 H 0.82174 0.99662 0.90967 0.0
H2194 H 0.95719 0.05287 0.93461 0.0
H2195 H 0.97358 1.00753 0.90693 0.0
H2196 H 0.21798 0.07697 0.92603 0.0
H2197 H 0.06319 0.0717 0.92258 0.0
H2198 H 0.1062 0.99977 0.91748 0.0
H2199 H 0.26067 1.00503 0.92089 0.0
C2200 C 0.84122 0.03475 0.93048 0.0
C2201 C 0.80216 0.01855 0.92367 0.0
C2202 C 0.92777 0.0411 0.92889 0.0
C2203 C 0.97729 0.03112 0.92051 0.0
C2204 C 0.93726 1.01539 0.91349 0.0
C2205 C 0.85052 1.00915 0.91506 0.0
C2206 C 0.19473 0.06014 0.92386 0.0
C2207 C 0.25142 0.04136 0.92386 0.0
C2208 C 0.10603 0.05713 0.92195 0.0
C2209 C 0.07232 0.03527 0.91999 0.0
C2210 C 0.1302 0.01686 0.91893 0.0
C2211 C 0.21904 0.01988 0.92085 0.0
H2212 H 0.97354 0.74823 0.94578 0.0
H2213 H 0.97282 0.79264 0.91773 0.0
H2214 H 0.82201 0.73787 0.94196 0.0
H2215 H 0.8223 0.78246 0.91391 0.0
H2216 H 0.53092 0.7892 0.92579 0.0
H2217 H 0.68795 0.79247 0.92362 0.0
H2218 H 0.7154 0.72016 0.92916 0.0
H2219 H 0.55844 0.71686 0.93131 0.0
C2220 C 0.94184 0.75519 0.93863 0.0
C2221 C 0.98458 0.77124 0.93207 0.0
C2222 C 0.85512 0.74934 0.93642 0.0
C2223 C 0.80988 0.75957 0.92768 0.0
C2224 C 0.85478 0.77457 0.92079 0.0
C2225 C 0.94099 0.78033 0.92297 0.0
C2226 C 0.56993 0.77386 0.92609 0.0
C2227 C 0.53234 0.75287 0.92891 0.0
C2228 C 0.6602 0.77572 0.92491 0.0
C2229 C 0.71428 0.75662 0.92651 0.0
C2230 C 0.67566 0.73525 0.92815 0.0
C2231 C 0.5856 0.73337 0.92927 0.0
H2232 H 0.25049 0.70984 0.83246 0.0
H2233 H 0.2809 0.78245 0.83684 0.0
H2234 H 0.09397 0.71354 0.83486 0.0
H2235 H 0.12437 0.78611 0.83928 0.0
H2236 H 0.84051 0.78696 0.84607 0.0
H2237 H -0.0084 0.7769 0.84955 0.0
H2238 H 0.98555 0.73063 0.82217 0.0
H2239 H 0.83396 0.74098 0.81864 0.0
C2240 C 0.22413 0.72652 0.83427 0.0
C2241 C 0.27812 0.74593 0.83429 0.0
C2242 C 0.1343 0.72862 0.83555 0.0
C2243 C 0.09657 0.75014 0.837 0.0
C2244 C 0.15142 0.76924 0.83817 0.0
C2245 C 0.24143 0.76716 0.83683 0.0
C2246 C 0.87104 0.77431 0.8409 0.0
C2247 C 0.82552 0.76469 0.83207 0.0
C2248 C 0.95761 0.76861 0.8429 0.0
C2249 C 0.00086 0.75315 0.8361 0.0
C2250 C 0.95374 0.74243 0.82765 0.0
C2251 C 0.86677 0.74822 0.82564 0.0
H2252 H 0.5035 1.00766 0.82685 0.0
H2253 H 0.53461 0.07028 0.80883 0.0
H2254 H 0.66112 1.00484 0.8288 0.0
H2255 H 0.69178 0.06801 0.81104 0.0
H2256 H 0.9478 1.00685 0.83322 0.0
H2257 H 0.7975 0.01847 0.83537 0.0
H2258 H 0.79663 0.0439 0.80227 0.0
H2259 H 0.94923 0.03284 0.80026 0.0
C2260 C 0.54394 0.02135 0.82377 0.0
C2261 C 0.50746 0.03904 0.81762 0.0
C2262 C 0.63438 0.01973 0.82481 0.0
C2263 C 0.68929 0.03594 0.81981 0.0
C2264 C 0.65161 0.05491 0.81469 0.0
C2265 C 0.5616 0.05638 0.81357 0.0
C2266 C 0.91574 1.01508 0.82641 0.0
C2267 C 0.95965 0.01857 0.81648 0.0
C2268 C 0.82945 0.02171 0.82766 0.0
C2269 C 0.78444 0.03183 0.81898 0.0
C2270 C 0.8296 0.03632 0.80918 0.0
C2271 C 0.91677 0.02988 0.80797 0.0
H2272 H 0.8856 0.54343 0.03379 0.0
H2273 H 0.95419 0.47383 0.02678 0.0
H2274 H 0.86259 0.55059 0.01444 0.0
H2275 H 0.93012 0.48072 0.00728 0.0
H2276 H 0.00438 0.51238 0.97371 0.0
H2277 H 0.0099 0.50284 0.99321 0.0
H2278 H 0.77714 0.54237 0.9986 0.0
H2279 H 0.77313 0.55237 0.97949 0.0
C2280 C 0.89114 0.52936 0.02811 0.0
C2281 C 0.91915 0.50796 0.03174 0.0
C2282 C 0.87916 0.53348 0.01701 0.0
C2283 C 0.8958 0.51629 0.00929 0.0
C2284 C 0.91818 0.4944 0.01301 0.0
C2285 C 0.92979 0.49027 0.02417 0.0
C2286 C 0.95541 0.51926 0.97912 0.0
C2287 C 0.88862 0.53317 0.97504 0.0
C2288 C 0.95764 0.51353 0.99024 0.0
C2289 C 0.89338 0.5217 0.99744 0.0
C2290 C 0.8279 0.53591 0.99333 0.0
C2291 C 0.82572 0.54161 0.98233 0.0
H2292 H 0.48155 0.75934 0.98081 0.0
H2293 H 0.28622 0.81177 0.97808 0.0
H2294 H 0.50008 0.76792 0.9999 0.0
H2295 H 0.30938 0.82177 0.99718 0.0
H2296 H 0.23815 0.79336 0.03141 0.0
H2297 H 0.25993 0.80295 0.01249 0.0
H2298 H 0.53406 0.78765 0.01578 0.0
H2299 H 0.50983 0.77699 0.03493 0.0
C2300 C 0.44438 0.77328 0.98423 0.0
C2301 C 0.38087 0.78454 0.97797 0.0
C2302 C 0.45607 0.77848 0.99522 0.0
C2303 C 0.40498 0.79525 1.00026 0.0
C2304 C 0.34831 0.80829 0.99367 0.0
C2305 C 0.33569 0.80281 0.98265 0.0
C2306 C 0.30358 0.79262 0.02815 0.0
C2307 C 0.37204 0.78404 0.03449 0.0
C2308 C 0.3165 0.79838 0.01727 0.0
C2309 C 0.39861 0.79572 0.01242 0.0
C2310 C 0.4694 0.78938 0.01915 0.0
C2311 C 0.45608 0.78347 0.03013 0.0
H2312 H 0.1485 0.70289 0.27786 0.0
H2313 H 0.21033 0.7734 0.28423 0.0
H2314 H 0.15878 0.70984 0.25831 0.0
H2315 H 0.21873 0.78054 0.26473 0.0
H2316 H 0.23991 0.78989 0.22919 0.0
H2317 H 0.27863 0.77572 0.24716 0.0
H2318 H 0.06159 0.72891 0.24592 0.0
H2319 H 0.02463 0.7428 0.22764 0.0
C2320 C 0.16742 0.71971 0.27509 0.0
C2321 C 0.17746 0.73768 0.2826 0.0
C2322 C 0.17191 0.72377 0.26386 0.0
C2323 C 0.18687 0.74588 0.25989 0.0
C2324 C 0.20691 0.76325 0.26744 0.0
C2325 C 0.20275 0.75916 0.27869 0.0
C2326 C 0.20113 0.77631 0.23269 0.0
C2327 C 0.12845 0.76763 0.22708 0.0
C2328 C 0.22324 0.76825 0.24303 0.0
C2329 C 0.1726 0.75145 0.24813 0.0
C2330 C 0.10271 0.74176 0.24223 0.0
C2331 C 0.08112 0.7497 0.23176 0.0
H2332 H 0.13314 0.54455 0.22761 0.0
H2333 H 0.98504 0.48224 0.23022 0.0
H2334 H 0.16929 0.54183 0.24707 0.0
H2335 H 0.02379 0.47891 0.24924 0.0
H2336 H 0.05523 0.48945 0.28614 0.0
H2337 H 0.00914 0.49204 0.26711 0.0
H2338 H 0.26108 0.5193 0.25843 0.0
H2339 H 0.30498 0.51753 0.2775 0.0
C2340 C 0.10714 0.53056 0.23236 0.0
C2341 C 0.05698 0.51354 0.22736 0.0
C2342 C 0.12895 0.52872 0.24346 0.0
C2343 C 0.10098 0.50984 0.24973 0.0
C2344 C 0.04644 0.4937 0.24479 0.0
C2345 C 0.0245 0.49559 0.2338 0.0
C2346 C 0.10154 0.4952 0.28008 0.0
C2347 C 0.18376 0.50313 0.28326 0.0
C2348 C 0.07497 0.49698 0.26917 0.0
C2349 C 0.13063 0.50647 0.26122 0.0
C2350 C 0.21534 0.51267 0.26434 0.0
C2351 C 0.24133 0.51115 0.27523 0.0
H2352 H 0.61483 0.2717 0.97299 0.0
H2353 H 0.7098 0.20401 0.97969 0.0
H2354 H 0.57129 0.27553 0.99203 0.0
H2355 H 0.67301 0.2083 0.99875 0.0
H2356 H 0.6182 0.22244 0.0342 0.0
H2357 H 0.59471 0.21374 0.01484 0.0
H2358 H 0.66212 0.28325 0.00664 0.0
H2359 H 0.6824 0.29176 0.02563 0.0
C2360 C 0.62321 0.25731 0.97841 0.0
C2361 C 0.66715 0.23776 0.97488 0.0
C2362 C 0.60016 0.25963 0.98942 0.0
C2363 C 0.62229 0.24263 0.99711 0.0
C2364 C 0.65548 0.2219 0.99321 0.0
C2365 C 0.67696 0.21946 0.98221 0.0
C2366 C 0.62792 0.23571 0.02821 0.0
C2367 C 0.65277 0.25769 0.03149 0.0
C2368 C 0.61396 0.23084 0.01711 0.0
C2369 C 0.62529 0.24785 0.00906 0.0
C2370 C 0.64964 0.26979 0.01247 0.0
C2371 C 0.66263 0.27463 0.02346 0.0
H2372 H 0.16167 0.19269 0.7858 0.0
H2373 H 0.23994 0.26311 0.78881 0.0
H2374 H 0.21465 0.19194 0.7671 0.0
H2375 H 0.29484 0.26217 0.77009 0.0
H2376 H 0.16557 0.22174 0.73103 0.0
H2377 H 0.15284 0.21204 0.75041 0.0
H2378 H 0.40035 0.24421 0.75675 0.0
H2379 H 0.4133 0.25365 0.73748 0.0
C2380 C 0.19254 0.20786 0.78257 0.0
C2381 C 0.1959 0.22807 0.78877 0.0
C2382 C 0.2224 0.2074 0.77183 0.0
C2383 C 0.25764 0.22704 0.76707 0.0
C2384 C 0.26819 0.24669 0.77356 0.0
C2385 C 0.23728 0.24724 0.78431 0.0
C2386 C 0.21891 0.22577 0.73648 0.0
C2387 C 0.28978 0.23869 0.73278 0.0
C2388 C 0.21149 0.2204 0.7476 0.0
C2389 C 0.27479 0.22791 0.75514 0.0
C2390 C 0.3498 0.23865 0.75119 0.0
C2391 C 0.35744 0.24384 0.74013 0.0
H2392 H 0.63563 0.57069 0.78188 0.0
H2393 H 0.59589 0.49883 0.78746 0.0
H2394 H 0.57649 0.56688 0.76351 0.0
H2395 H 0.53651 0.49496 0.76908 0.0
H2396 H 0.65733 0.53473 0.72941 0.0
H2397 H 0.6542 0.54749 0.7483 0.0
H2398 H 0.43037 0.50487 0.75439 0.0
H2399 H 0.43261 0.49238 0.73544 0.0
C2400 C 0.61094 0.55424 0.77931 0.0
C2401 C 0.62114 0.53498 0.78602 0.0
C2402 C 0.57773 0.55205 0.76878 0.0
C2403 C 0.55381 0.53056 0.76477 0.0
C2404 C 0.55436 0.51178 0.77194 0.0
C2405 C 0.58796 0.51397 0.7825 0.0
C2406 C 0.60522 0.52885 0.73462 0.0
C2407 C 0.54563 0.51248 0.73093 0.0
C2408 C 0.6035 0.53608 0.74549 0.0
C2409 C 0.54248 0.52695 0.75287 0.0
C2410 C 0.47874 0.51196 0.74894 0.0
C2411 C 0.4801 0.50487 0.73807 0.0
H2412 H 0.7869 0.02737 0.53344 0.0
H2413 H 0.83433 0.95598 0.52739 0.0
H2414 H 0.75909 0.03317 0.51411 0.0
H2415 H 0.80654 0.96178 0.50802 0.0
H2416 H 0.92141 0.99509 0.47573 0.0
H2417 H 0.89839 0.98125 0.49437 0.0
H2418 H 0.67646 0.0258 0.49761 0.0
H2419 H 0.70029 0.0397 0.47917 0.0
C2420 C 0.78751 1.01271 0.52808 0.0
C2421 C 0.81402 0.99131 0.53194 0.0
C2422 C 0.77214 0.01603 0.51694 0.0
C2423 C 0.78281 0.998 0.50947 0.0
C2424 C 0.79992 0.97611 0.51352 0.0
C2425 C 0.81487 0.97277 0.52465 0.0
C2426 C 0.86642 1.00137 0.48034 0.0
C2427 C 0.81353 0.01867 0.47608 0.0
C2428 C 0.85299 0.99348 0.49101 0.0
C2429 C 0.78627 1.00274 0.49755 0.0
C2430 C 0.72942 0.01868 0.4929 0.0
C2431 C 0.74304 0.02658 0.48232 0.0
H2432 H 0.30033 0.29662 0.48144 0.0
H2433 H 0.24654 0.22766 0.49159 0.0
H2434 H 0.32156 0.30777 0.50022 0.0
H2435 H 0.25987 0.23909 0.5106 0.0
H2436 H 0.37065 0.25571 0.54278 0.0
H2437 H 0.36489 0.24727 0.52336 0.0
H2438 H 0.27497 0.31589 0.51705 0.0
H2439 H 0.2888 0.32473 0.53612 0.0
C2440 C 0.28837 0.28409 0.48776 0.0
C2441 C 0.27167 0.26127 0.48506 0.0
C2442 C 0.30141 0.29043 0.49861 0.0
C2443 C 0.29507 0.27424 0.50706 0.0
C2444 C 0.26927 0.25188 0.50436 0.0
C2445 C 0.25899 0.2454 0.49347 0.0
C2446 C 0.35344 0.26924 0.53717 0.0
C2447 C 0.32833 0.29074 0.54105 0.0
C2448 C 0.3477 0.26425 0.52603 0.0
C2449 C 0.31539 0.28053 0.51859 0.0
C2450 C 0.29951 0.30272 0.5224 0.0
C2451 C 0.30757 0.30785 0.53345 0.0
H2452 H 0.07021 0.99396 0.77885 0.0
H2453 H 0.12916 0.06547 0.77579 0.0
H2454 H 0.02741 0.9929 0.75964 0.0
H2455 H 0.08634 0.0646 0.75663 0.0
H2456 H 0.18492 0.03568 0.72244 0.0
H2457 H 0.17003 0.04647 0.74164 0.0
H2458 H 0.9372 1.00557 0.74409 0.0
H2459 H 0.95231 0.99484 0.72502 0.0
C2460 C 0.06904 1.00971 0.77423 0.0
C2461 C 0.10252 0.02978 0.77877 0.0
C2462 C 0.0455 1.00913 0.76319 0.0
C2463 C 0.05545 0.02862 0.75655 0.0
C2464 C 0.07952 0.04925 0.76146 0.0
C2465 C 0.10265 0.04981 0.77247 0.0
C2466 C 0.12896 0.02974 0.72698 0.0
C2467 C 0.07056 1.01421 0.72229 0.0
C2468 C 0.1203 0.03584 0.73799 0.0
C2469 C 0.05309 0.0265 0.74445 0.0
C2470 C 0.99046 1.01268 0.73942 0.0
C2471 C -0.00095 1.00664 0.72848 0.0
H2472 H 0.782 0.79808 0.47667 0.0
H2473 H 0.97283 0.746 0.4832 0.0
H2474 H 0.73606 0.79647 0.49584 0.0
H2475 H 0.92422 0.74312 0.50178 0.0
H2476 H 0.86011 0.75222 0.53757 0.0
H2477 H 0.91464 0.75599 0.51904 0.0
H2478 H 0.65673 0.77426 0.50795 0.0
H2479 H 0.60476 0.77198 0.52669 0.0
C2480 C 0.81527 0.78668 0.48223 0.0
C2481 C 0.88077 0.77214 0.47839 0.0
C2482 C 0.7878 0.78531 0.49318 0.0
C2483 C 0.82486 0.76925 0.50046 0.0
C2484 C 0.89396 0.75584 0.49664 0.0
C2485 C 0.92185 0.75744 0.48587 0.0
C2486 C 0.81464 0.75621 0.53108 0.0
C2487 C 0.72788 0.76133 0.53354 0.0
C2488 C 0.84593 0.75865 0.52041 0.0
C2489 C 0.7907 0.76582 0.51184 0.0
C2490 C 0.7023 0.76942 0.51427 0.0
C2491 C 0.67169 0.76749 0.52498 0.0
H2492 H 0.73349 0.02837 0.22563 0.0
H2493 H 0.61703 0.96316 0.23312 0.0
H2494 H 0.74834 0.03613 0.24501 0.0
H2495 H 0.62504 0.97164 0.25235 0.0
H2496 H 0.70473 0.98845 0.28735 0.0
H2497 H 0.69991 0.97709 0.26831 0.0
H2498 H 0.65502 0.04724 0.25896 0.0
H2499 H 0.66626 0.05859 0.278 0.0
C2500 C 0.71283 1.01547 0.23138 0.0
C2501 C 0.67311 0.99529 0.22779 0.0
C2502 C 0.71932 0.02014 0.24252 0.0
C2503 C 0.68478 1.00491 0.25029 0.0
C2504 C 0.65206 0.98388 0.24668 0.0
C2505 C 0.64737 0.97901 0.23558 0.0
C2506 C 0.69115 1.00129 0.28123 0.0
C2507 C 0.686 0.02438 0.28409 0.0
C2508 C 0.68911 0.99484 0.27028 0.0
C2509 C 0.6797 1.01133 0.26201 0.0
C2510 C 0.66612 0.03417 0.26504 0.0
C2511 C 0.67036 0.04066 0.27596 0.0
H2512 H 0.65765 0.48493 0.53213 0.0
H2513 H 0.46039 0.53687 0.53483 0.0
H2514 H 0.6379 0.4838 0.51252 0.0
H2515 H 0.44214 0.53631 0.51495 0.0
H2516 H 0.34728 0.50996 0.48269 0.0
H2517 H 0.37815 0.50976 0.50217 0.0
H2518 H 0.65206 0.50209 0.49527 0.0
H2519 H 0.6202 0.50165 0.47573 0.0
C2520 C 0.61151 0.4966 0.52846 0.0
C2521 C 0.55977 0.51083 0.53502 0.0
C2522 C 0.60029 0.49594 0.51719 0.0
C2523 C 0.53705 0.50955 0.51215 0.0
C2524 C 0.48984 0.52512 0.51862 0.0
C2525 C 0.50122 0.52579 0.52998 0.0
C2526 C 0.41371 0.50735 0.48537 0.0
C2527 C 0.48133 0.50572 0.47772 0.0
C2528 C 0.43169 0.50779 0.49652 0.0
C2529 C 0.51787 0.50674 0.5003 0.0
C2530 C 0.5849 0.5031 0.49266 0.0
C2531 C 0.56669 0.5025 0.48146 0.0
H2532 H 0.34304 0.74135 0.78302 0.0
H2533 H 0.50611 0.80116 0.78409 0.0
H2534 H 0.30613 0.74925 0.76439 0.0
H2535 H 0.46214 0.81068 0.76552 0.0
H2536 H 0.50282 0.79155 0.72919 0.0
H2537 H 0.49745 0.79869 0.74855 0.0
H2538 H 0.24366 0.76674 0.74996 0.0
H2539 H 0.25392 0.75799 0.73048 0.0
C2540 C 0.36947 0.75665 0.77935 0.0
C2541 C 0.4286 0.7705 0.78507 0.0
C2542 C 0.34667 0.76149 0.7686 0.0
C2543 C 0.38114 0.78062 0.76321 0.0
C2544 C 0.43538 0.79549 0.76923 0.0
C2545 C 0.45971 0.79031 0.78 0.0
C2546 C 0.44447 0.78681 0.7336 0.0
C2547 C 0.3792 0.77405 0.72844 0.0
C2548 C 0.44106 0.79095 0.74479 0.0
C2549 C 0.37144 0.78263 0.75107 0.0
C2550 C 0.30027 0.77258 0.74553 0.0
C2551 C 0.30488 0.76793 0.73432 0.0
H2552 H 0.33521 0.28076 0.28535 0.0
H2553 H 0.38178 0.20822 0.28366 0.0
H2554 H 0.34543 0.28285 0.26538 0.0
H2555 H 0.39077 0.21032 0.264 0.0
H2556 H 0.5132 0.23092 0.23049 0.0
H2557 H 0.48834 0.2251 0.25003 0.0
H2558 H 0.26779 0.27052 0.24863 0.0
H2559 H 0.29371 0.27635 0.22917 0.0
C2560 C 0.34741 0.26533 0.28077 0.0
C2561 C 0.35752 0.24438 0.28616 0.0
C2562 C 0.35262 0.26644 0.26932 0.0
C2563 C 0.36877 0.24668 0.26307 0.0
C2564 C 0.37909 0.22587 0.26852 0.0
C2565 C 0.37339 0.22473 0.27985 0.0
C2566 C 0.45705 0.23873 0.23428 0.0
C2567 C 0.40403 0.2536 0.22831 0.0
C2568 C 0.44336 0.2357 0.2455 0.0
C2569 C 0.3769 0.24771 0.25095 0.0
C2570 C 0.32049 0.26138 0.24476 0.0
C2571 C 0.33406 0.26431 0.23357 0.0
H2572 H 0.52054 0.04198 0.03171 0.0
H2573 H 0.54842 0.96968 0.02603 0.0
H2574 H 0.50645 0.04802 0.01202 0.0
H2575 H 0.53038 0.97547 0.00674 0.0
H2576 H 0.57373 0.99413 0.97121 0.0
H2577 H 0.59428 0.98864 0.99078 0.0
H2578 H 0.40975 0.04248 0.99726 0.0
H2579 H 0.39234 0.04847 0.97777 0.0
C2580 C 0.52382 0.02743 0.02632 0.0
C2581 C 0.53594 1.00541 0.03053 0.0
C2582 C 0.51491 0.0308 0.01501 0.0
C2583 C 0.51713 1.0122 0.0077 0.0
C2584 C 0.52996 0.9903 0.01199 0.0
C2585 C 0.5397 0.98699 0.02317 0.0
C2586 C 0.53663 1.0045 0.97683 0.0
C2587 C 0.48143 0.02169 0.97294 0.0
C2588 C 0.54849 1.00145 0.98808 0.0
C2589 C 0.50438 1.0153 0.99569 0.0
C2590 C 0.44668 0.03189 0.99172 0.0
C2591 C 0.43577 0.03512 0.98051 0.0
loop_
_geom_bond_atom_site_label_1
_geom_bond_atom_site_label_2
_geom_bond_distance
_geom_bond_site_symmetry_2
_ccdc_geom_bond_type
Zn0 O6 1.920 . S
Zn0 O12 1.898 1_655 S
Zn0 O15 1.905 . S
Zn1 O9 1.905 . S
Zn1 O10 1.898 . S
Zn1 O18 1.920 . S
Zn2 O5 2.080 1_455 S
Zn2 O8 2.114 . S
Zn2 O11 2.120 . S
Zn2 O13 2.120 . S
Zn2 O14 2.114 . S
Zn2 O17 2.080 . S
C3 O8 1.166 . S
C3 O9 1.182 . S
C4 O10 1.167 . S
C4 O11 1.299 . S
O5 Zn2 2.080 1_655 S
O5 C19 1.305 . S
O6 Zn0 1.920 . S
O6 C19 1.234 . S
C7 O12 1.167 . S
C7 O13 1.299 . S
O8 Zn2 2.114 . S
O8 C3 1.166 . S
O9 Zn1 1.905 . S
O9 C3 1.182 . S
O10 Zn1 1.898 . S
O10 C4 1.167 . S
O11 Zn2 2.120 . S
O11 C4 1.299 . S
O12 Zn0 1.898 1_455 S
O12 C7 1.167 . S
O13 Zn2 2.120 . S
O13 C7 1.299 . S
O14 Zn2 2.114 . S
O14 C16 1.166 . S
O15 Zn0 1.905 . S
O15 C16 1.182 1_655 S
C16 O14 1.166 . S
C16 O15 1.182 1_455 S
O17 Zn2 2.080 . S
O17 C20 1.305 1_455 S
O18 Zn1 1.920 . S
O18 C20 1.234 1_455 S
C19 O5 1.305 . S
C19 O6 1.234 . S
C20 O17 1.305 1_655 S
C20 O18 1.234 1_655 S
Zn21 O27 1.920 . S
Zn21 O33 1.898 . S
Zn21 O36 1.905 . S
Zn22 O30 1.905 . S
Zn22 O31 1.898 . S
Zn22 O39 1.920 . S
Zn23 O26 2.080 . S
Zn23 O29 2.114 . S
Zn23 O32 2.120 . S
Zn23 O34 2.120 . S
Zn23 O35 2.114 . S
Zn23 O38 2.080 . S
C24 O29 1.166 . S
C24 O30 1.182 . S
C25 O31 1.167 . S
C25 O32 1.299 . S
O26 Zn23 2.080 . S
O26 C40 1.305 . S
O27 Zn21 1.920 . S
O27 C40 1.234 . S
C28 O33 1.167 . S
C28 O34 1.299 . S
O29 Zn23 2.114 . S
O29 C24 1.166 . S
O30 Zn22 1.905 . S
O30 C24 1.182 . S
O31 Zn22 1.898 . S
O31 C25 1.167 . S
O32 Zn23 2.120 . S
O32 C25 1.299 . S
O33 Zn21 1.898 . S
O33 C28 1.167 . S
O34 Zn23 2.120 . S
O34 C28 1.299 . S
O35 Zn23 2.114 . S
O35 C37 1.166 . S
O36 Zn21 1.905 . S
O36 C37 1.182 . S
C37 O35 1.166 . S
C37 O36 1.182 . S
O38 Zn23 2.080 . S
O38 C41 1.305 . S
O39 Zn22 1.920 . S
O39 C41 1.234 . S
C40 O26 1.305 . S
C40 O27 1.234 . S
C41 O38 1.305 . S
C41 O39 1.234 . S
Zn42 O48 1.920 . S
Zn42 O54 1.898 1_655 S
Zn42 O57 1.905 . S
Zn43 O51 1.905 . S
Zn43 O52 1.898 . S
Zn43 O60 1.920 . S
Zn44 O47 2.080 1_455 S
Zn44 O50 2.114 . S
Zn44 O53 2.120 . S
Zn44 O55 2.120 . S
Zn44 O56 2.114 . S
Zn44 O59 2.080 . S
C45 O50 1.166 . S
C45 O51 1.182 . S
C46 O52 1.167 . S
C46 O53 1.299 . S
O47 Zn44 2.080 1_655 S
O47 C61 1.305 . S
O48 Zn42 1.920 . S
O48 C61 1.234 . S
C49 O54 1.167 . S
C49 O55 1.299 . S
O50 Zn44 2.114 . S
O50 C45 1.166 . S
O51 Zn43 1.905 . S
O51 C45 1.182 . S
O52 Zn43 1.898 . S
O52 C46 1.167 . S
O53 Zn44 2.120 . S
O53 C46 1.299 . S
O54 Zn42 1.898 1_455 S
O54 C49 1.167 . S
O55 Zn44 2.120 . S
O55 C49 1.299 . S
O56 Zn44 2.114 . S
O56 C58 1.166 . S
O57 Zn42 1.905 . S
O57 C58 1.182 1_655 S
C58 O56 1.166 . S
C58 O57 1.182 1_455 S
O59 Zn44 2.080 . S
O59 C62 1.305 1_455 S
O60 Zn43 1.920 . S
O60 C62 1.234 1_455 S
C61 O47 1.305 . S
C61 O48 1.234 . S
C62 O59 1.305 1_655 S
C62 O60 1.234 1_655 S
Zn63 O69 1.920 . S
Zn63 O75 1.898 . S
Zn63 O78 1.905 . S
Zn64 O72 1.905 . S
Zn64 O73 1.898 . S
Zn64 O81 1.920 . S
Zn65 O68 2.080 . S
Zn65 O71 2.114 . S
Zn65 O74 2.120 . S
Zn65 O76 2.120 . S
Zn65 O77 2.114 . S
Zn65 O80 2.080 . S
C66 O71 1.166 . S
C66 O72 1.182 . S
C67 O73 1.167 . S
C67 O74 1.299 . S
O68 Zn65 2.080 . S
O68 C82 1.305 . S
O69 Zn63 1.920 . S
O69 C82 1.234 . S
C70 O75 1.167 . S
C70 O76 1.299 . S
O71 Zn65 2.114 . S
O71 C66 1.166 . S
O72 Zn64 1.905 . S
O72 C66 1.182 . S
O73 Zn64 1.898 . S
O73 C67 1.167 . S
O74 Zn65 2.120 . S
O74 C67 1.299 . S
O75 Zn63 1.898 . S
O75 C70 1.167 . S
O76 Zn65 2.120 . S
O76 C70 1.299 . S
O77 Zn65 2.114 . S
O77 C79 1.166 . S
O78 Zn63 1.905 . S
O78 C79 1.182 . S
C79 O77 1.166 . S
C79 O78 1.182 . S
O80 Zn65 2.080 . S
O80 C83 1.305 . S
O81 Zn64 1.920 . S
O81 C83 1.234 . S
C82 O68 1.305 . S
C82 O69 1.234 . S
C83 O80 1.305 . S
C83 O81 1.234 . S
Zn84 O90 1.920 . S
Zn84 O96 1.898 . S
Zn84 O99 1.905 . S
Zn85 O93 1.905 . S
Zn85 O94 1.898 1_455 S
Zn85 O102 1.920 . S
Zn86 O89 2.080 . S
Zn86 O92 2.114 . S
Zn86 O95 2.120 . S
Zn86 O97 2.120 . S
Zn86 O98 2.114 . S
Zn86 O101 2.080 1_655 S
C87 O92 1.166 . S
C87 O93 1.182 1_655 S
C88 O94 1.167 . S
C88 O95 1.299 . S
O89 Zn86 2.080 . S
O89 C103 1.305 1_655 S
O90 Zn84 1.920 . S
O90 C103 1.234 1_655 S
C91 O96 1.167 . S
C91 O97 1.299 . S
O92 Zn86 2.114 . S
O92 C87 1.166 . S
O93 Zn85 1.905 . S
O93 C87 1.182 1_455 S
O94 Zn85 1.898 1_655 S
O94 C88 1.167 . S
O95 Zn86 2.120 . S
O95 C88 1.299 . S
O96 Zn84 1.898 . S
O96 C91 1.167 . S
O97 Zn86 2.120 . S
O97 C91 1.299 . S
O98 Zn86 2.114 . S
O98 C100 1.166 . S
O99 Zn84 1.905 . S
O99 C100 1.182 . S
C100 O98 1.166 . S
C100 O99 1.182 . S
O101 Zn86 2.080 1_455 S
O101 C104 1.305 . S
O102 Zn85 1.920 . S
O102 C104 1.234 . S
C103 O89 1.305 1_455 S
C103 O90 1.234 1_455 S
C104 O101 1.305 . S
C104 O102 1.234 . S
Zn105 O111 1.920 . S
Zn105 O117 1.898 . S
Zn105 O120 1.905 . S
Zn106 O114 1.905 . S
Zn106 O115 1.898 . S
Zn106 O123 1.920 . S
Zn107 O110 2.080 . S
Zn107 O113 2.114 . S
Zn107 O116 2.120 . S
Zn107 O118 2.120 . S
Zn107 O119 2.114 . S
Zn107 O122 2.080 . S
C108 O113 1.166 . S
C108 O114 1.182 . S
C109 O115 1.167 . S
C109 O116 1.299 . S
O110 Zn107 2.080 . S
O110 C124 1.305 . S
O111 Zn105 1.920 . S
O111 C124 1.234 . S
C112 O117 1.167 . S
C112 O118 1.299 . S
O113 Zn107 2.114 . S
O113 C108 1.166 . S
O114 Zn106 1.905 . S
O114 C108 1.182 . S
O115 Zn106 1.898 . S
O115 C109 1.167 . S
O116 Zn107 2.120 . S
O116 C109 1.299 . S
O117 Zn105 1.898 . S
O117 C112 1.167 . S
O118 Zn107 2.120 . S
O118 C112 1.299 . S
O119 Zn107 2.114 . S
O119 C121 1.166 . S
O120 Zn105 1.905 . S
O120 C121 1.182 . S
C121 O119 1.166 . S
C121 O120 1.182 . S
O122 Zn107 2.080 . S
O122 C125 1.305 . S
O123 Zn106 1.920 . S
O123 C125 1.234 . S
C124 O110 1.305 . S
C124 O111 1.234 . S
C125 O122 1.305 . S
C125 O123 1.234 . S
Zn126 O132 1.920 . S
Zn126 O138 1.898 1_455 S
Zn126 O141 1.905 . S
Zn127 O135 1.905 . S
Zn127 O136 1.898 . S
Zn127 O144 1.920 . S
Zn128 O131 2.080 1_655 S
Zn128 O134 2.114 . S
Zn128 O137 2.120 . S
Zn128 O139 2.120 . S
Zn128 O140 2.114 . S
Zn128 O143 2.080 . S
C129 O134 1.166 . S
C129 O135 1.182 . S
C130 O136 1.167 . S
C130 O137 1.299 . S
O131 Zn128 2.080 1_455 S
O131 C145 1.305 . S
O132 Zn126 1.920 . S
O132 C145 1.234 . S
C133 O138 1.167 . S
C133 O139 1.299 . S
O134 Zn128 2.114 . S
O134 C129 1.166 . S
O135 Zn127 1.905 . S
O135 C129 1.182 . S
O136 Zn127 1.898 . S
O136 C130 1.167 . S
O137 Zn128 2.120 . S
O137 C130 1.299 . S
O138 Zn126 1.898 1_655 S
O138 C133 1.167 . S
O139 Zn128 2.120 . S
O139 C133 1.299 . S
O140 Zn128 2.114 . S
O140 C142 1.166 . S
O141 Zn126 1.905 . S
O141 C142 1.182 1_455 S
C142 O140 1.166 . S
C142 O141 1.182 1_655 S
O143 Zn128 2.080 . S
O143 C146 1.305 1_655 S
O144 Zn127 1.920 . S
O144 C146 1.234 1_655 S
C145 O131 1.305 . S
C145 O132 1.234 . S
C146 O143 1.305 1_455 S
C146 O144 1.234 1_455 S
Zn147 O153 1.920 . S
Zn147 O159 1.898 . S
Zn147 O162 1.905 . S
Zn148 O156 1.905 . S
Zn148 O157 1.898 . S
Zn148 O165 1.920 . S
Zn149 O152 2.080 . S
Zn149 O155 2.114 . S
Zn149 O158 2.120 . S
Zn149 O160 2.120 . S
Zn149 O161 2.114 . S
Zn149 O164 2.080 . S
C150 O155 1.166 . S
C150 O156 1.182 . S
C151 O157 1.167 . S
C151 O158 1.299 . S
O152 Zn149 2.080 . S
O152 C166 1.305 . S
O153 Zn147 1.920 . S
O153 C166 1.234 . S
C154 O159 1.167 . S
C154 O160 1.299 . S
O155 Zn149 2.114 . S
O155 C150 1.166 . S
O156 Zn148 1.905 . S
O156 C150 1.182 . S
O157 Zn148 1.898 . S
O157 C151 1.167 . S
O158 Zn149 2.120 . S
O158 C151 1.299 . S
O159 Zn147 1.898 . S
O159 C154 1.167 . S
O160 Zn149 2.120 . S
O160 C154 1.299 . S
O161 Zn149 2.114 . S
O161 C163 1.166 . S
O162 Zn147 1.905 . S
O162 C163 1.182 . S
C163 O161 1.166 . S
C163 O162 1.182 . S
O164 Zn149 2.080 . S
O164 C167 1.305 . S
O165 Zn148 1.920 . S
O165 C167 1.234 . S
C166 O152 1.305 . S
C166 O153 1.234 . S
C167 O164 1.305 . S
C167 O165 1.234 . S
Zn168 O174 1.920 . S
Zn168 O180 1.898 . S
Zn168 O183 1.905 . S
Zn169 O177 1.905 . S
Zn169 O178 1.898 1_655 S
Zn169 O186 1.920 . S
Zn170 O173 2.080 . S
Zn170 O176 2.114 1_565 S
Zn170 O179 2.120 . S
Zn170 O181 2.120 . S
Zn170 O182 2.114 . S
Zn170 O185 2.087 1_455 S
C171 O176 1.166 . S
C171 O177 1.182 1_455 S
C172 O178 1.167 . S
C172 O179 1.299 1_545 S
O173 Zn170 2.080 . S
O173 C187 1.305 1_455 S
O174 Zn168 1.920 . S
O174 C187 1.234 1_455 S
C175 O180 1.167 . S
C175 O181 1.299 . S
O176 Zn170 2.114 1_545 S
O176 C171 1.166 . S
O177 Zn169 1.905 . S
O177 C171 1.182 1_655 S
O178 Zn169 1.898 1_455 S
O178 C172 1.167 . S
O179 Zn170 2.120 . S
O179 C172 1.299 1_565 S
O180 Zn168 1.898 . S
O180 C175 1.167 . S
O181 Zn170 2.120 . S
O181 C175 1.299 . S
O182 Zn170 2.114 . S
O182 C184 1.166 . S
O183 Zn168 1.905 . S
O183 C184 1.182 . S
C184 O182 1.166 . S
C184 O183 1.182 . S
O185 Zn170 2.087 1_655 S
O185 C188 1.305 . S
O186 Zn169 1.920 . S
O186 C188 1.215 1_545 S
C187 O173 1.305 1_655 S
C187 O174 1.234 1_655 S
C188 O185 1.305 . S
C188 O186 1.215 1_565 S
Zn189 O195 1.920 . S
Zn189 O201 1.898 . S
Zn189 O204 1.905 . S
Zn190 O198 1.905 . S
Zn190 O199 1.898 . S
Zn190 O207 1.920 . S
Zn191 O194 2.080 . S
Zn191 O197 2.114 . S
Zn191 O200 2.120 . S
Zn191 O202 2.120 . S
Zn191 O203 2.114 . S
Zn191 O206 2.080 . S
C192 O197 1.166 . S
C192 O198 1.182 . S
C193 O199 1.167 . S
C193 O200 1.299 . S
O194 Zn191 2.080 . S
O194 C208 1.305 . S
O195 Zn189 1.920 . S
O195 C208 1.234 . S
C196 O201 1.167 . S
C196 O202 1.299 . S
O197 Zn191 2.114 . S
O197 C192 1.166 . S
O198 Zn190 1.905 . S
O198 C192 1.182 . S
O199 Zn190 1.898 . S
O199 C193 1.167 . S
O200 Zn191 2.120 . S
O200 C193 1.299 . S
O201 Zn189 1.898 . S
O201 C196 1.167 . S
O202 Zn191 2.120 . S
O202 C196 1.299 . S
O203 Zn191 2.114 . S
O203 C205 1.166 . S
O204 Zn189 1.905 . S
O204 C205 1.182 . S
C205 O203 1.166 . S
C205 O204 1.182 . S
O206 Zn191 2.080 . S
O206 C209 1.305 . S
O207 Zn190 1.920 . S
O207 C209 1.234 . S
C208 O194 1.305 . S
C208 O195 1.234 . S
C209 O206 1.305 . S
C209 O207 1.234 . S
Zn210 O216 1.920 . S
Zn210 O222 1.898 1_655 S
Zn210 O225 1.905 . S
Zn211 O219 1.905 . S
Zn211 O220 1.898 . S
Zn211 O228 1.920 . S
Zn212 O215 2.080 1_455 S
Zn212 O218 2.114 . S
Zn212 O221 2.120 . S
Zn212 O223 2.120 . S
Zn212 O224 2.114 . S
Zn212 O227 2.080 . S
C213 O218 1.166 . S
C213 O219 1.182 . S
C214 O220 1.167 . S
C214 O221 1.299 . S
O215 Zn212 2.080 1_655 S
O215 C229 1.305 . S
O216 Zn210 1.920 . S
O216 C229 1.234 . S
C217 O222 1.167 . S
C217 O223 1.299 . S
O218 Zn212 2.114 . S
O218 C213 1.166 . S
O219 Zn211 1.905 . S
O219 C213 1.182 . S
O220 Zn211 1.898 . S
O220 C214 1.167 . S
O221 Zn212 2.120 . S
O221 C214 1.299 . S
O222 Zn210 1.898 1_455 S
O222 C217 1.167 . S
O223 Zn212 2.120 . S
O223 C217 1.299 . S
O224 Zn212 2.114 . S
O224 C226 1.166 . S
O225 Zn210 1.905 . S
O225 C226 1.182 1_655 S
C226 O224 1.166 . S
C226 O225 1.182 1_455 S
O227 Zn212 2.080 . S
O227 C230 1.305 1_455 S
O228 Zn211 1.920 . S
O228 C230 1.234 1_455 S
C229 O215 1.305 . S
C229 O216 1.234 . S
C230 O227 1.305 1_655 S
C230 O228 1.234 1_655 S
Zn231 O237 1.920 . S
Zn231 O243 1.898 . S
Zn231 O246 1.905 . S
Zn232 O240 1.905 . S
Zn232 O241 1.898 . S
Zn232 O249 1.920 . S
Zn233 O236 2.087 . S
Zn233 O239 2.114 . S
Zn233 O242 2.120 . S
Zn233 O244 2.120 . S
Zn233 O245 2.114 1_565 S
Zn233 O248 2.080 . S
C234 O239 1.166 . S
C234 O240 1.182 . S
C235 O241 1.167 . S
C235 O242 1.299 . S
O236 Zn233 2.087 . S
O236 C250 1.305 . S
O237 Zn231 1.920 . S
O237 C250 1.215 1_545 S
C238 O243 1.167 . S
C238 O244 1.299 1_545 S
O239 Zn233 2.114 . S
O239 C234 1.166 . S
O240 Zn232 1.905 . S
O240 C234 1.182 . S
O241 Zn232 1.898 . S
O241 C235 1.167 . S
O242 Zn233 2.120 . S
O242 C235 1.299 . S
O243 Zn231 1.898 . S
O243 C238 1.167 . S
O244 Zn233 2.120 . S
O244 C238 1.299 1_565 S
O245 Zn233 2.114 1_545 S
O245 C247 1.166 . S
O246 Zn231 1.905 . S
O246 C247 1.182 . S
C247 O245 1.166 . S
C247 O246 1.182 . S
O248 Zn233 2.080 . S
O248 C251 1.305 . S
O249 Zn232 1.920 . S
O249 C251 1.234 . S
C250 O236 1.305 . S
C250 O237 1.215 1_565 S
C251 O248 1.305 . S
C251 O249 1.234 . S
Zn252 O258 1.920 . S
Zn252 O264 1.898 1_455 S
Zn252 O267 1.905 . S
Zn253 O261 1.905 . S
Zn253 O262 1.898 . S
Zn253 O270 1.920 . S
Zn254 O257 2.087 1_655 S
Zn254 O260 2.114 . S
Zn254 O263 2.120 . S
Zn254 O265 2.120 . S
Zn254 O266 2.114 1_545 S
Zn254 O269 2.080 . S
C255 O260 1.166 . S
C255 O261 1.182 . S
C256 O262 1.167 . S
C256 O263 1.299 . S
O257 Zn254 2.087 1_455 S
O257 C271 1.305 . S
O258 Zn252 1.920 . S
O258 C271 1.215 1_565 S
C259 O264 1.167 . S
C259 O265 1.299 1_565 S
O260 Zn254 2.114 . S
O260 C255 1.166 . S
O261 Zn253 1.905 . S
O261 C255 1.182 . S
O262 Zn253 1.898 . S
O262 C256 1.167 . S
O263 Zn254 2.120 . S
O263 C256 1.299 . S
O264 Zn252 1.898 1_655 S
O264 C259 1.167 . S
O265 Zn254 2.120 . S
O265 C259 1.299 1_545 S
O266 Zn254 2.114 1_565 S
O266 C268 1.166 . S
O267 Zn252 1.905 . S
O267 C268 1.182 1_455 S
C268 O266 1.166 . S
C268 O267 1.182 1_655 S
O269 Zn254 2.080 . S
O269 C272 1.305 1_655 S
O270 Zn253 1.920 . S
O270 C272 1.234 1_655 S
C271 O257 1.305 . S
C271 O258 1.215 1_545 S
C272 O269 1.305 1_455 S
C272 O270 1.234 1_455 S
Zn273 O279 1.920 . S
Zn273 O285 1.898 . S
Zn273 O288 1.905 . S
Zn274 O282 1.905 . S
Zn274 O283 1.898 . S
Zn274 O291 1.920 . S
Zn275 O278 2.080 . S
Zn275 O281 2.114 . S
Zn275 O284 2.120 . S
Zn275 O286 2.120 . S
Zn275 O287 2.114 . S
Zn275 O290 2.080 . S
C276 O281 1.166 . S
C276 O282 1.182 . S
C277 O283 1.167 . S
C277 O284 1.299 . S
O278 Zn275 2.080 . S
O278 C292 1.305 . S
O279 Zn273 1.920 . S
O279 C292 1.234 . S
C280 O285 1.167 . S
C280 O286 1.299 . S
O281 Zn275 2.114 . S
O281 C276 1.166 . S
O282 Zn274 1.905 . S
O282 C276 1.182 . S
O283 Zn274 1.898 . S
O283 C277 1.167 . S
O284 Zn275 2.120 . S
O284 C277 1.299 . S
O285 Zn273 1.898 . S
O285 C280 1.167 . S
O286 Zn275 2.120 . S
O286 C280 1.299 . S
O287 Zn275 2.114 . S
O287 C289 1.166 . S
O288 Zn273 1.905 . S
O288 C289 1.182 . S
C289 O287 1.166 . S
C289 O288 1.182 . S
O290 Zn275 2.080 . S
O290 C293 1.305 . S
O291 Zn274 1.920 . S
O291 C293 1.234 . S
C292 O278 1.305 . S
C292 O279 1.234 . S
C293 O290 1.305 . S
C293 O291 1.234 . S
Zn294 O300 1.920 . S
Zn294 O306 1.898 1_455 S
Zn294 O309 1.905 . S
Zn295 O303 1.905 . S
Zn295 O304 1.898 . S
Zn295 O312 1.920 . S
Zn296 O299 2.080 1_655 S
Zn296 O302 2.114 . S
Zn296 O305 2.120 . S
Zn296 O307 2.120 . S
Zn296 O308 2.114 . S
Zn296 O311 2.080 . S
C297 O302 1.166 . S
C297 O303 1.182 . S
C298 O304 1.167 . S
C298 O305 1.299 . S
O299 Zn296 2.080 1_455 S
O299 C313 1.305 . S
O300 Zn294 1.920 . S
O300 C313 1.234 . S
C301 O306 1.167 . S
C301 O307 1.299 . S
O302 Zn296 2.114 . S
O302 C297 1.166 . S
O303 Zn295 1.905 . S
O303 C297 1.182 . S
O304 Zn295 1.898 . S
O304 C298 1.167 . S
O305 Zn296 2.120 . S
O305 C298 1.299 . S
O306 Zn294 1.898 1_655 S
O306 C301 1.167 . S
O307 Zn296 2.120 . S
O307 C301 1.299 . S
O308 Zn296 2.114 . S
O308 C310 1.166 . S
O309 Zn294 1.905 . S
O309 C310 1.182 1_455 S
C310 O308 1.166 . S
C310 O309 1.182 1_655 S
O311 Zn296 2.080 . S
O311 C314 1.305 1_655 S
O312 Zn295 1.920 . S
O312 C314 1.234 1_655 S
C313 O299 1.305 . S
C313 O300 1.234 . S
C314 O311 1.305 1_455 S
C314 O312 1.234 1_455 S
Zn315 O321 1.920 . S
Zn315 O327 1.898 . S
Zn315 O330 1.905 . S
Zn316 O324 1.905 . S
Zn316 O325 1.898 . S
Zn316 O333 1.920 . S
Zn317 O320 2.087 . S
Zn317 O323 2.114 . S
Zn317 O326 2.120 . S
Zn317 O328 2.120 . S
Zn317 O329 2.114 1_545 S
Zn317 O332 2.080 . S
C318 O323 1.166 . S
C318 O324 1.182 . S
C319 O325 1.167 . S
C319 O326 1.299 . S
O320 Zn317 2.087 . S
O320 C334 1.305 . S
O321 Zn315 1.920 . S
O321 C334 1.215 1_565 S
C322 O327 1.167 . S
C322 O328 1.299 1_565 S
O323 Zn317 2.114 . S
O323 C318 1.166 . S
O324 Zn316 1.905 . S
O324 C318 1.182 . S
O325 Zn316 1.898 . S
O325 C319 1.167 . S
O326 Zn317 2.120 . S
O326 C319 1.299 . S
O327 Zn315 1.898 . S
O327 C322 1.167 . S
O328 Zn317 2.120 . S
O328 C322 1.299 1_545 S
O329 Zn317 2.114 1_565 S
O329 C331 1.166 . S
O330 Zn315 1.905 . S
O330 C331 1.182 . S
C331 O329 1.166 . S
C331 O330 1.182 . S
O332 Zn317 2.080 . S
O332 C335 1.305 . S
O333 Zn316 1.920 . S
O333 C335 1.234 . S
C334 O320 1.305 . S
C334 O321 1.215 1_545 S
C335 O332 1.305 . S
C335 O333 1.234 . S
Zn336 O342 1.920 . S
Zn336 O348 1.898 . S
Zn336 O351 1.905 . S
Zn337 O345 1.905 . S
Zn337 O346 1.898 . S
Zn337 O354 1.920 . S
Zn338 O341 2.080 . S
Zn338 O344 2.114 . S
Zn338 O347 2.120 . S
Zn338 O349 2.120 . S
Zn338 O350 2.114 . S
Zn338 O353 2.080 . S
C339 O344 1.166 . S
C339 O345 1.182 . S
C340 O346 1.167 . S
C340 O347 1.299 . S
O341 Zn338 2.080 . S
O341 C355 1.305 . S
O342 Zn336 1.920 . S
O342 C355 1.234 . S
C343 O348 1.167 . S
C343 O349 1.299 . S
O344 Zn338 2.114 . S
O344 C339 1.166 . S
O345 Zn337 1.905 . S
O345 C339 1.182 . S
O346 Zn337 1.898 . S
O346 C340 1.167 . S
O347 Zn338 2.120 . S
O347 C340 1.299 . S
O348 Zn336 1.898 . S
O348 C343 1.167 . S
O349 Zn338 2.120 . S
O349 C343 1.299 . S
O350 Zn338 2.114 . S
O350 C352 1.166 . S
O351 Zn336 1.905 . S
O351 C352 1.182 . S
C352 O350 1.166 . S
C352 O351 1.182 . S
O353 Zn338 2.080 . S
O353 C356 1.305 . S
O354 Zn337 1.920 . S
O354 C356 1.234 . S
C355 O341 1.305 . S
C355 O342 1.234 . S
C356 O353 1.305 . S
C356 O354 1.234 . S
Zn357 O363 1.920 . S
Zn357 O369 1.898 . S
Zn357 O372 1.905 . S
Zn358 O366 1.905 . S
Zn358 O367 1.898 . S
Zn358 O375 1.920 . S
Zn359 O362 2.080 . S
Zn359 O365 2.114 . S
Zn359 O368 2.120 . S
Zn359 O370 2.120 . S
Zn359 O371 2.114 . S
Zn359 O374 2.080 . S
C360 O365 1.166 . S
C360 O366 1.182 . S
C361 O367 1.167 . S
C361 O368 1.299 . S
O362 Zn359 2.080 . S
O362 C376 1.305 . S
O363 Zn357 1.920 . S
O363 C376 1.234 . S
C364 O369 1.167 . S
C364 O370 1.299 . S
O365 Zn359 2.114 . S
O365 C360 1.166 . S
O366 Zn358 1.905 . S
O366 C360 1.182 . S
O367 Zn358 1.898 . S
O367 C361 1.167 . S
O368 Zn359 2.120 . S
O368 C361 1.299 . S
O369 Zn357 1.898 . S
O369 C364 1.167 . S
O370 Zn359 2.120 . S
O370 C364 1.299 . S
O371 Zn359 2.114 . S
O371 C373 1.166 . S
O372 Zn357 1.905 . S
O372 C373 1.182 . S
C373 O371 1.166 . S
C373 O372 1.182 . S
O374 Zn359 2.080 . S
O374 C377 1.305 . S
O375 Zn358 1.920 . S
O375 C377 1.234 . S
C376 O362 1.305 . S
C376 O363 1.234 . S
C377 O374 1.305 . S
C377 O375 1.234 . S
Zn378 O384 1.920 . S
Zn378 O390 1.898 . S
Zn378 O393 1.905 . S
Zn379 O387 1.905 . S
Zn379 O388 1.898 . S
Zn379 O396 1.920 . S
Zn380 O383 2.080 . S
Zn380 O386 2.114 . S
Zn380 O389 2.120 . S
Zn380 O391 2.120 . S
Zn380 O392 2.114 . S
Zn380 O395 2.080 . S
C381 O386 1.166 . S
C381 O387 1.182 . S
C382 O388 1.167 . S
C382 O389 1.299 . S
O383 Zn380 2.080 . S
O383 C397 1.305 . S
O384 Zn378 1.920 . S
O384 C397 1.234 . S
C385 O390 1.167 . S
C385 O391 1.299 . S
O386 Zn380 2.114 . S
O386 C381 1.166 . S
O387 Zn379 1.905 . S
O387 C381 1.182 . S
O388 Zn379 1.898 . S
O388 C382 1.167 . S
O389 Zn380 2.120 . S
O389 C382 1.299 . S
O390 Zn378 1.898 . S
O390 C385 1.167 . S
O391 Zn380 2.120 . S
O391 C385 1.299 . S
O392 Zn380 2.114 . S
O392 C394 1.166 . S
O393 Zn378 1.905 . S
O393 C394 1.182 . S
C394 O392 1.166 . S
C394 O393 1.182 . S
O395 Zn380 2.080 . S
O395 C398 1.305 . S
O396 Zn379 1.920 . S
O396 C398 1.234 . S
C397 O383 1.305 . S
C397 O384 1.234 . S
C398 O395 1.305 . S
C398 O396 1.234 . S
Zn399 O405 1.920 . S
Zn399 O411 1.898 . S
Zn399 O414 1.905 . S
Zn400 O408 1.905 . S
Zn400 O409 1.898 . S
Zn400 O417 1.920 . S
Zn401 O404 2.080 . S
Zn401 O407 2.114 . S
Zn401 O410 2.120 . S
Zn401 O412 2.120 . S
Zn401 O413 2.114 . S
Zn401 O416 2.080 . S
C402 O407 1.166 . S
C402 O408 1.182 . S
C403 O409 1.167 . S
C403 O410 1.299 . S
O404 Zn401 2.080 . S
O404 C418 1.305 . S
O405 Zn399 1.920 . S
O405 C418 1.234 . S
C406 O411 1.167 . S
C406 O412 1.299 . S
O407 Zn401 2.114 . S
O407 C402 1.166 . S
O408 Zn400 1.905 . S
O408 C402 1.182 . S
O409 Zn400 1.898 . S
O409 C403 1.167 . S
O410 Zn401 2.120 . S
O410 C403 1.299 . S
O411 Zn399 1.898 . S
O411 C406 1.167 . S
O412 Zn401 2.120 . S
O412 C406 1.299 . S
O413 Zn401 2.114 . S
O413 C415 1.166 . S
O414 Zn399 1.905 . S
O414 C415 1.182 . S
C415 O413 1.166 . S
C415 O414 1.182 . S
O416 Zn401 2.080 . S
O416 C419 1.305 . S
O417 Zn400 1.920 . S
O417 C419 1.234 . S
C418 O404 1.305 . S
C418 O405 1.234 . S
C419 O416 1.305 . S
C419 O417 1.234 . S
Zn420 O426 1.920 . S
Zn420 O432 1.898 . S
Zn420 O435 1.905 . S
Zn421 O429 1.905 . S
Zn421 O430 1.898 . S
Zn421 O438 1.920 . S
Zn422 O425 2.080 . S
Zn422 O428 2.114 . S
Zn422 O431 2.120 . S
Zn422 O433 2.120 . S
Zn422 O434 2.114 . S
Zn422 O437 2.080 . S
C423 O428 1.166 . S
C423 O429 1.182 . S
C424 O430 1.167 . S
C424 O431 1.299 . S
O425 Zn422 2.080 . S
O425 C439 1.305 . S
O426 Zn420 1.920 . S
O426 C439 1.234 . S
C427 O432 1.167 . S
C427 O433 1.299 . S
O428 Zn422 2.114 . S
O428 C423 1.166 . S
O429 Zn421 1.905 . S
O429 C423 1.182 . S
O430 Zn421 1.898 . S
O430 C424 1.167 . S
O431 Zn422 2.120 . S
O431 C424 1.299 . S
O432 Zn420 1.898 . S
O432 C427 1.167 . S
O433 Zn422 2.120 . S
O433 C427 1.299 . S
O434 Zn422 2.114 . S
O434 C436 1.166 . S
O435 Zn420 1.905 . S
O435 C436 1.182 . S
C436 O434 1.166 . S
C436 O435 1.182 . S
O437 Zn422 2.080 . S
O437 C440 1.305 . S
O438 Zn421 1.920 . S
O438 C440 1.234 . S
C439 O425 1.305 . S
C439 O426 1.234 . S
C440 O437 1.305 . S
C440 O438 1.234 . S
Zn441 O447 1.920 . S
Zn441 O453 1.898 . S
Zn441 O456 1.905 . S
Zn442 O450 1.905 . S
Zn442 O451 1.898 . S
Zn442 O459 1.920 . S
Zn443 O446 2.080 . S
Zn443 O449 2.114 . S
Zn443 O452 2.120 . S
Zn443 O454 2.120 . S
Zn443 O455 2.114 . S
Zn443 O458 2.080 . S
C444 O449 1.166 . S
C444 O450 1.182 . S
C445 O451 1.167 . S
C445 O452 1.299 . S
O446 Zn443 2.080 . S
O446 C460 1.305 . S
O447 Zn441 1.920 . S
O447 C460 1.234 . S
C448 O453 1.167 . S
C448 O454 1.299 . S
O449 Zn443 2.114 . S
O449 C444 1.166 . S
O450 Zn442 1.905 . S
O450 C444 1.182 . S
O451 Zn442 1.898 . S
O451 C445 1.167 . S
O452 Zn443 2.120 . S
O452 C445 1.299 . S
O453 Zn441 1.898 . S
O453 C448 1.167 . S
O454 Zn443 2.120 . S
O454 C448 1.299 . S
O455 Zn443 2.114 . S
O455 C457 1.166 . S
O456 Zn441 1.905 . S
O456 C457 1.182 . S
C457 O455 1.166 . S
C457 O456 1.182 . S
O458 Zn443 2.080 . S
O458 C461 1.305 . S
O459 Zn442 1.920 . S
O459 C461 1.234 . S
C460 O446 1.305 . S
C460 O447 1.234 . S
C461 O458 1.305 . S
C461 O459 1.234 . S
Zn462 O468 1.920 . S
Zn462 O474 1.898 . S
Zn462 O477 1.905 . S
Zn463 O471 1.905 . S
Zn463 O472 1.898 . S
Zn463 O480 1.920 . S
Zn464 O467 2.080 . S
Zn464 O470 2.114 . S
Zn464 O473 2.120 . S
Zn464 O475 2.120 . S
Zn464 O476 2.114 . S
Zn464 O479 2.080 . S
C465 O470 1.166 . S
C465 O471 1.182 . S
C466 O472 1.167 . S
C466 O473 1.299 . S
O467 Zn464 2.080 . S
O467 C481 1.305 . S
O468 Zn462 1.920 . S
O468 C481 1.234 . S
C469 O474 1.167 . S
C469 O475 1.299 . S
O470 Zn464 2.114 . S
O470 C465 1.166 . S
O471 Zn463 1.905 . S
O471 C465 1.182 . S
O472 Zn463 1.898 . S
O472 C466 1.167 . S
O473 Zn464 2.120 . S
O473 C466 1.299 . S
O474 Zn462 1.898 . S
O474 C469 1.167 . S
O475 Zn464 2.120 . S
O475 C469 1.299 . S
O476 Zn464 2.114 . S
O476 C478 1.166 . S
O477 Zn462 1.905 . S
O477 C478 1.182 . S
C478 O476 1.166 . S
C478 O477 1.182 . S
O479 Zn464 2.080 . S
O479 C482 1.305 . S
O480 Zn463 1.920 . S
O480 C482 1.234 . S
C481 O467 1.305 . S
C481 O468 1.234 . S
C482 O479 1.305 . S
C482 O480 1.234 . S
Zn483 O489 1.920 . S
Zn483 O495 1.898 . S
Zn483 O498 1.905 . S
Zn484 O492 1.905 . S
Zn484 O493 1.898 . S
Zn484 O501 1.920 . S
Zn485 O488 2.080 . S
Zn485 O491 2.114 . S
Zn485 O494 2.120 . S
Zn485 O496 2.120 . S
Zn485 O497 2.114 . S
Zn485 O500 2.080 . S
C486 O491 1.166 . S
C486 O492 1.182 . S
C487 O493 1.167 . S
C487 O494 1.299 . S
O488 Zn485 2.080 . S
O488 C502 1.305 . S
O489 Zn483 1.920 . S
O489 C502 1.234 . S
C490 O495 1.167 . S
C490 O496 1.299 . S
O491 Zn485 2.114 . S
O491 C486 1.166 . S
O492 Zn484 1.905 . S
O492 C486 1.182 . S
O493 Zn484 1.898 . S
O493 C487 1.167 . S
O494 Zn485 2.120 . S
O494 C487 1.299 . S
O495 Zn483 1.898 . S
O495 C490 1.167 . S
O496 Zn485 2.120 . S
O496 C490 1.299 . S
O497 Zn485 2.114 . S
O497 C499 1.166 . S
O498 Zn483 1.905 . S
O498 C499 1.182 . S
C499 O497 1.166 . S
C499 O498 1.182 . S
O500 Zn485 2.080 . S
O500 C503 1.305 . S
O501 Zn484 1.920 . S
O501 C503 1.234 . S
C502 O488 1.305 . S
C502 O489 1.234 . S
C503 O500 1.305 . S
C503 O501 1.234 . S
Zn504 O510 1.920 . S
Zn504 O516 1.898 . S
Zn504 O519 1.905 . S
Zn505 O513 1.905 . S
Zn505 O514 1.898 . S
Zn505 O522 1.920 . S
Zn506 O509 2.080 . S
Zn506 O512 2.114 1_565 S
Zn506 O515 2.120 . S
Zn506 O517 2.120 . S
Zn506 O518 2.114 . S
Zn506 O521 2.087 . S
C507 O512 1.166 . S
C507 O513 1.182 . S
C508 O514 1.167 . S
C508 O515 1.299 1_545 S
O509 Zn506 2.080 . S
O509 C523 1.305 . S
O510 Zn504 1.920 . S
O510 C523 1.234 . S
C511 O516 1.167 . S
C511 O517 1.299 . S
O512 Zn506 2.114 1_545 S
O512 C507 1.166 . S
O513 Zn505 1.905 . S
O513 C507 1.182 . S
O514 Zn505 1.898 . S
O514 C508 1.167 . S
O515 Zn506 2.120 . S
O515 C508 1.299 1_565 S
O516 Zn504 1.898 . S
O516 C511 1.167 . S
O517 Zn506 2.120 . S
O517 C511 1.299 . S
O518 Zn506 2.114 . S
O518 C520 1.166 . S
O519 Zn504 1.905 . S
O519 C520 1.182 . S
C520 O518 1.166 . S
C520 O519 1.182 . S
O521 Zn506 2.087 . S
O521 C524 1.305 . S
O522 Zn505 1.920 . S
O522 C524 1.215 1_545 S
C523 O509 1.305 . S
C523 O510 1.234 . S
C524 O521 1.305 . S
C524 O522 1.215 1_565 S
Zn525 O531 1.920 . S
Zn525 O537 1.898 . S
Zn525 O540 1.905 . S
Zn526 O534 1.905 . S
Zn526 O535 1.898 . S
Zn526 O543 1.920 . S
Zn527 O530 2.080 . S
Zn527 O533 2.114 . S
Zn527 O536 2.120 . S
Zn527 O538 2.120 . S
Zn527 O539 2.114 . S
Zn527 O542 2.080 . S
C528 O533 1.166 . S
C528 O534 1.182 . S
C529 O535 1.167 . S
C529 O536 1.299 . S
O530 Zn527 2.080 . S
O530 C544 1.305 . S
O531 Zn525 1.920 . S
O531 C544 1.234 . S
C532 O537 1.167 . S
C532 O538 1.299 . S
O533 Zn527 2.114 . S
O533 C528 1.166 . S
O534 Zn526 1.905 . S
O534 C528 1.182 . S
O535 Zn526 1.898 . S
O535 C529 1.167 . S
O536 Zn527 2.120 . S
O536 C529 1.299 . S
O537 Zn525 1.898 . S
O537 C532 1.167 . S
O538 Zn527 2.120 . S
O538 C532 1.299 . S
O539 Zn527 2.114 . S
O539 C541 1.166 . S
O540 Zn525 1.905 . S
O540 C541 1.182 . S
C541 O539 1.166 . S
C541 O540 1.182 . S
O542 Zn527 2.080 . S
O542 C545 1.305 . S
O543 Zn526 1.920 . S
O543 C545 1.234 . S
C544 O530 1.305 . S
C544 O531 1.234 . S
C545 O542 1.305 . S
C545 O543 1.234 . S
Zn546 O552 1.920 . S
Zn546 O558 1.898 . S
Zn546 O561 1.905 . S
Zn547 O555 1.905 . S
Zn547 O556 1.898 . S
Zn547 O564 1.920 . S
Zn548 O551 2.080 . S
Zn548 O554 2.114 . S
Zn548 O557 2.120 . S
Zn548 O559 2.120 . S
Zn548 O560 2.114 . S
Zn548 O563 2.080 . S
C549 O554 1.166 . S
C549 O555 1.182 . S
C550 O556 1.167 . S
C550 O557 1.299 . S
O551 Zn548 2.080 . S
O551 C565 1.305 . S
O552 Zn546 1.920 . S
O552 C565 1.234 . S
C553 O558 1.167 . S
C553 O559 1.299 . S
O554 Zn548 2.114 . S
O554 C549 1.166 . S
O555 Zn547 1.905 . S
O555 C549 1.182 . S
O556 Zn547 1.898 . S
O556 C550 1.167 . S
O557 Zn548 2.120 . S
O557 C550 1.299 . S
O558 Zn546 1.898 . S
O558 C553 1.167 . S
O559 Zn548 2.120 . S
O559 C553 1.299 . S
O560 Zn548 2.114 . S
O560 C562 1.166 . S
O561 Zn546 1.905 . S
O561 C562 1.182 . S
C562 O560 1.166 . S
C562 O561 1.182 . S
O563 Zn548 2.080 . S
O563 C566 1.305 . S
O564 Zn547 1.920 . S
O564 C566 1.234 . S
C565 O551 1.305 . S
C565 O552 1.234 . S
C566 O563 1.305 . S
C566 O564 1.234 . S
Zn567 O573 1.920 . S
Zn567 O579 1.898 . S
Zn567 O582 1.905 . S
Zn568 O576 1.905 . S
Zn568 O577 1.898 . S
Zn568 O585 1.920 . S
Zn569 O572 2.087 . S
Zn569 O575 2.114 . S
Zn569 O578 2.120 . S
Zn569 O580 2.120 . S
Zn569 O581 2.114 1_565 S
Zn569 O584 2.080 . S
C570 O575 1.166 . S
C570 O576 1.182 . S
C571 O577 1.167 . S
C571 O578 1.299 . S
O572 Zn569 2.087 . S
O572 C586 1.305 . S
O573 Zn567 1.920 . S
O573 C586 1.215 1_545 S
C574 O579 1.167 . S
C574 O580 1.299 1_545 S
O575 Zn569 2.114 . S
O575 C570 1.166 . S
O576 Zn568 1.905 . S
O576 C570 1.182 . S
O577 Zn568 1.898 . S
O577 C571 1.167 . S
O578 Zn569 2.120 . S
O578 C571 1.299 . S
O579 Zn567 1.898 . S
O579 C574 1.167 . S
O580 Zn569 2.120 . S
O580 C574 1.299 1_565 S
O581 Zn569 2.114 1_545 S
O581 C583 1.166 . S
O582 Zn567 1.905 . S
O582 C583 1.182 . S
C583 O581 1.166 . S
C583 O582 1.182 . S
O584 Zn569 2.080 . S
O584 C587 1.305 . S
O585 Zn568 1.920 . S
O585 C587 1.234 . S
C586 O572 1.305 . S
C586 O573 1.215 1_565 S
C587 O584 1.305 . S
C587 O585 1.234 . S
Zn588 O594 1.920 . S
Zn588 O600 1.898 . S
Zn588 O603 1.905 . S
Zn589 O597 1.905 . S
Zn589 O598 1.898 . S
Zn589 O606 1.920 . S
Zn590 O593 2.080 . S
Zn590 O596 2.114 1_545 S
Zn590 O599 2.120 . S
Zn590 O601 2.120 . S
Zn590 O602 2.114 . S
Zn590 O605 2.087 . S
C591 O596 1.166 . S
C591 O597 1.182 . S
C592 O598 1.167 . S
C592 O599 1.299 1_565 S
O593 Zn590 2.080 . S
O593 C607 1.305 . S
O594 Zn588 1.920 . S
O594 C607 1.234 . S
C595 O600 1.167 . S
C595 O601 1.299 . S
O596 Zn590 2.114 1_565 S
O596 C591 1.166 . S
O597 Zn589 1.905 . S
O597 C591 1.182 . S
O598 Zn589 1.898 . S
O598 C592 1.167 . S
O599 Zn590 2.120 . S
O599 C592 1.299 1_545 S
O600 Zn588 1.898 . S
O600 C595 1.167 . S
O601 Zn590 2.120 . S
O601 C595 1.299 . S
O602 Zn590 2.114 . S
O602 C604 1.166 . S
O603 Zn588 1.905 . S
O603 C604 1.182 . S
C604 O602 1.166 . S
C604 O603 1.182 . S
O605 Zn590 2.087 . S
O605 C608 1.305 . S
O606 Zn589 1.920 . S
O606 C608 1.215 1_565 S
C607 O593 1.305 . S
C607 O594 1.234 . S
C608 O605 1.305 . S
C608 O606 1.215 1_545 S
Zn609 O615 1.920 . S
Zn609 O621 1.898 . S
Zn609 O624 1.905 . S
Zn610 O618 1.905 . S
Zn610 O619 1.898 . S
Zn610 O627 1.920 . S
Zn611 O614 2.080 . S
Zn611 O617 2.114 . S
Zn611 O620 2.120 . S
Zn611 O622 2.120 . S
Zn611 O623 2.114 . S
Zn611 O626 2.080 . S
C612 O617 1.166 . S
C612 O618 1.182 . S
C613 O619 1.167 . S
C613 O620 1.299 . S
O614 Zn611 2.080 . S
O614 C628 1.305 . S
O615 Zn609 1.920 . S
O615 C628 1.234 . S
C616 O621 1.167 . S
C616 O622 1.299 . S
O617 Zn611 2.114 . S
O617 C612 1.166 . S
O618 Zn610 1.905 . S
O618 C612 1.182 . S
O619 Zn610 1.898 . S
O619 C613 1.167 . S
O620 Zn611 2.120 . S
O620 C613 1.299 . S
O621 Zn609 1.898 . S
O621 C616 1.167 . S
O622 Zn611 2.120 . S
O622 C616 1.299 . S
O623 Zn611 2.114 . S
O623 C625 1.166 . S
O624 Zn609 1.905 . S
O624 C625 1.182 . S
C625 O623 1.166 . S
C625 O624 1.182 . S
O626 Zn611 2.080 . S
O626 C629 1.305 . S
O627 Zn610 1.920 . S
O627 C629 1.234 . S
C628 O614 1.305 . S
C628 O615 1.234 . S
C629 O626 1.305 . S
C629 O627 1.234 . S
Zn630 O636 1.920 . S
Zn630 O642 1.898 . S
Zn630 O645 1.905 . S
Zn631 O639 1.905 . S
Zn631 O640 1.898 . S
Zn631 O648 1.920 . S
Zn632 O635 2.080 . S
Zn632 O638 2.114 . S
Zn632 O641 2.120 . S
Zn632 O643 2.120 . S
Zn632 O644 2.114 . S
Zn632 O647 2.080 . S
C633 O638 1.166 . S
C633 O639 1.182 . S
C634 O640 1.167 . S
C634 O641 1.299 . S
O635 Zn632 2.080 . S
O635 C649 1.305 . S
O636 Zn630 1.920 . S
O636 C649 1.234 . S
C637 O642 1.167 . S
C637 O643 1.299 . S
O638 Zn632 2.114 . S
O638 C633 1.166 . S
O639 Zn631 1.905 . S
O639 C633 1.182 . S
O640 Zn631 1.898 . S
O640 C634 1.167 . S
O641 Zn632 2.120 . S
O641 C634 1.299 . S
O642 Zn630 1.898 . S
O642 C637 1.167 . S
O643 Zn632 2.120 . S
O643 C637 1.299 . S
O644 Zn632 2.114 . S
O644 C646 1.166 . S
O645 Zn630 1.905 . S
O645 C646 1.182 . S
C646 O644 1.166 . S
C646 O645 1.182 . S
O647 Zn632 2.080 . S
O647 C650 1.305 . S
O648 Zn631 1.920 . S
O648 C650 1.234 . S
C649 O635 1.305 . S
C649 O636 1.234 . S
C650 O647 1.305 . S
C650 O648 1.234 . S
Zn651 O657 1.920 . S
Zn651 O663 1.898 . S
Zn651 O666 1.905 . S
Zn652 O660 1.905 . S
Zn652 O661 1.898 . S
Zn652 O669 1.920 . S
Zn653 O656 2.080 . S
Zn653 O659 2.114 1_545 S
Zn653 O662 2.120 . S
Zn653 O664 2.120 . S
Zn653 O665 2.114 . S
Zn653 O668 2.087 . S
C654 O659 1.166 . S
C654 O660 1.182 . S
C655 O661 1.167 . S
C655 O662 1.299 1_565 S
O656 Zn653 2.080 . S
O656 C670 1.305 . S
O657 Zn651 1.920 . S
O657 C670 1.234 . S
C658 O663 1.167 . S
C658 O664 1.299 . S
O659 Zn653 2.114 1_565 S
O659 C654 1.166 . S
O660 Zn652 1.905 . S
O660 C654 1.182 . S
O661 Zn652 1.898 . S
O661 C655 1.167 . S
O662 Zn653 2.120 . S
O662 C655 1.299 1_545 S
O663 Zn651 1.898 . S
O663 C658 1.167 . S
O664 Zn653 2.120 . S
O664 C658 1.299 . S
O665 Zn653 2.114 . S
O665 C667 1.166 . S
O666 Zn651 1.905 . S
O666 C667 1.182 . S
C667 O665 1.166 . S
C667 O666 1.182 . S
O668 Zn653 2.087 . S
O668 C671 1.305 . S
O669 Zn652 1.920 . S
O669 C671 1.215 1_565 S
C670 O656 1.305 . S
C670 O657 1.234 . S
C671 O668 1.305 . S
C671 O669 1.215 1_545 S
H672 C680 0.950 . S
H673 C685 0.950 . S
H674 C682 0.950 . S
H675 C684 0.950 1_455 S
H676 C686 0.950 . S
H677 C688 0.950 . S
H678 C690 0.950 . S
H679 C691 0.950 . S
C680 H672 0.950 . S
C680 C681 1.386 . S
C680 C682 1.391 . S
C681 C680 1.386 . S
C681 C685 1.393 1_655 S
C682 H674 0.950 . S
C682 C680 1.391 . S
C682 C683 1.400 . S
C683 C682 1.400 . S
C683 C684 1.398 . S
C683 C689 1.491 . S
C684 H675 0.950 1_655 S
C684 C683 1.398 . S
C684 C685 1.391 1_655 S
C685 H673 0.950 . S
C685 C681 1.393 1_455 S
C685 C684 1.391 1_455 S
C686 H676 0.950 . S
C686 C687 1.386 . S
C686 C688 1.391 . S
C687 C686 1.386 . S
C687 C691 1.393 . S
C688 H677 0.950 . S
C688 C686 1.391 . S
C688 C689 1.400 . S
C689 C683 1.491 . S
C689 C688 1.400 . S
C689 C690 1.398 . S
C690 H678 0.950 . S
C690 C689 1.398 . S
C690 C691 1.391 . S
C691 H679 0.950 . S
C691 C687 1.393 . S
C691 C690 1.391 . S
H692 C700 0.950 . S
H693 C705 0.950 . S
H694 C702 0.950 . S
H695 C704 0.950 . S
H696 C706 0.950 . S
H697 C708 0.950 . S
H698 C710 0.950 . S
H699 C711 0.950 . S
C700 H692 0.950 . S
C700 C701 1.386 . S
C700 C702 1.391 . S
C701 C700 1.386 . S
C701 C705 1.393 . S
C702 H694 0.950 . S
C702 C700 1.391 . S
C702 C703 1.400 . S
C703 C702 1.400 . S
C703 C704 1.398 . S
C703 C709 1.491 . S
C704 H695 0.950 . S
C704 C703 1.398 . S
C704 C705 1.391 . S
C705 H693 0.950 . S
C705 C701 1.393 . S
C705 C704 1.391 . S
C706 H696 0.950 . S
C706 C707 1.386 . S
C706 C708 1.391 . S
C707 C706 1.386 . S
C707 C711 1.393 . S
C708 H697 0.950 . S
C708 C706 1.391 . S
C708 C709 1.400 . S
C709 C703 1.491 . S
C709 C708 1.400 . S
C709 C710 1.398 . S
C710 H698 0.950 . S
C710 C709 1.398 . S
C710 C711 1.391 . S
C711 H699 0.950 . S
C711 C707 1.393 . S
C711 C710 1.391 . S
H712 C720 0.950 . S
H713 C725 0.950 . S
H714 C722 0.950 . S
H715 C724 0.950 . S
H716 C726 0.950 . S
H717 C728 0.950 . S
H718 C730 0.950 . S
H719 C731 0.950 . S
C720 H712 0.950 . S
C720 C721 1.386 . S
C720 C722 1.391 . S
C721 C720 1.386 . S
C721 C725 1.393 . S
C722 H714 0.950 . S
C722 C720 1.391 . S
C722 C723 1.400 . S
C723 C722 1.400 . S
C723 C724 1.398 . S
C723 C729 1.491 . S
C724 H715 0.950 . S
C724 C723 1.398 . S
C724 C725 1.391 . S
C725 H713 0.950 . S
C725 C721 1.393 . S
C725 C724 1.391 . S
C726 H716 0.950 . S
C726 C727 1.386 . S
C726 C728 1.391 . S
C727 C726 1.386 . S
C727 C731 1.393 . S
C728 H717 0.950 . S
C728 C726 1.391 . S
C728 C729 1.400 . S
C729 C723 1.491 . S
C729 C728 1.400 . S
C729 C730 1.398 . S
C730 H718 0.950 . S
C730 C729 1.398 . S
C730 C731 1.391 . S
C731 H719 0.950 . S
C731 C727 1.393 . S
C731 C730 1.391 . S
H732 C740 0.950 . S
H733 C745 0.950 . S
H734 C742 0.950 . S
H735 C744 0.950 . S
H736 C746 0.950 . S
H737 C748 0.950 . S
H738 C750 0.950 . S
H739 C751 0.950 . S
C740 H732 0.950 . S
C740 C741 1.386 . S
C740 C742 1.391 . S
C741 C740 1.386 . S
C741 C745 1.393 . S
C742 H734 0.950 . S
C742 C740 1.391 . S
C742 C743 1.400 . S
C743 C742 1.400 . S
C743 C744 1.398 . S
C743 C749 1.491 . S
C744 H735 0.950 . S
C744 C743 1.398 . S
C744 C745 1.391 . S
C745 H733 0.950 . S
C745 C741 1.393 . S
C745 C744 1.391 . S
C746 H736 0.950 . S
C746 C747 1.386 . S
C746 C748 1.391 . S
C747 C746 1.386 . S
C747 C751 1.393 . S
C748 H737 0.950 . S
C748 C746 1.391 . S
C748 C749 1.400 . S
C749 C743 1.491 . S
C749 C748 1.400 . S
C749 C750 1.398 . S
C750 H738 0.950 . S
C750 C749 1.398 . S
C750 C751 1.391 . S
C751 H739 0.950 . S
C751 C747 1.393 . S
C751 C750 1.391 . S
H752 C760 0.950 1_655 S
H753 C765 0.950 . S
H754 C762 0.950 . S
H755 C764 0.950 . S
H756 C766 0.950 . S
H757 C768 0.950 . S
H758 C770 0.950 . S
H759 C771 0.950 . S
C760 H752 0.950 1_455 S
C760 C761 1.386 . S
C760 C762 1.391 . S
C761 C760 1.386 . S
C761 C765 1.393 . S
C762 H754 0.950 . S
C762 C760 1.391 . S
C762 C763 1.400 . S
C763 C762 1.400 . S
C763 C764 1.398 . S
C763 C769 1.491 . S
C764 H755 0.950 . S
C764 C763 1.398 . S
C764 C765 1.391 . S
C765 H753 0.950 . S
C765 C761 1.393 . S
C765 C764 1.391 . S
C766 H756 0.950 . S
C766 C767 1.386 . S
C766 C768 1.391 . S
C767 C766 1.386 . S
C767 C771 1.393 . S
C768 H757 0.950 . S
C768 C766 1.391 . S
C768 C769 1.400 . S
C769 C763 1.491 . S
C769 C768 1.400 . S
C769 C770 1.398 . S
C770 H758 0.950 . S
C770 C769 1.398 . S
C770 C771 1.391 . S
C771 H759 0.950 . S
C771 C767 1.393 . S
C771 C770 1.391 . S
H772 C780 0.950 . S
H773 C785 0.950 . S
H774 C782 0.950 . S
H775 C784 0.950 . S
H776 C786 0.950 . S
H777 C788 0.950 . S
H778 C790 0.950 . S
H779 C791 0.950 . S
C780 H772 0.950 . S
C780 C781 1.386 . S
C780 C782 1.391 . S
C781 C780 1.386 . S
C781 C785 1.393 . S
C782 H774 0.950 . S
C782 C780 1.391 . S
C782 C783 1.400 . S
C783 C782 1.400 . S
C783 C784 1.398 . S
C783 C789 1.491 . S
C784 H775 0.950 . S
C784 C783 1.398 . S
C784 C785 1.391 . S
C785 H773 0.950 . S
C785 C781 1.393 . S
C785 C784 1.391 . S
C786 H776 0.950 . S
C786 C787 1.386 . S
C786 C788 1.391 . S
C787 C786 1.386 . S
C787 C791 1.393 . S
C788 H777 0.950 . S
C788 C786 1.391 . S
C788 C789 1.400 . S
C789 C783 1.491 . S
C789 C788 1.400 . S
C789 C790 1.398 . S
C790 H778 0.950 . S
C790 C789 1.398 . S
C790 C791 1.391 . S
C791 H779 0.950 . S
C791 C787 1.393 . S
C791 C790 1.391 . S
H792 C800 0.950 1_655 S
H793 C805 0.950 . S
H794 C802 0.950 . S
H795 C804 0.950 . S
H796 C806 0.950 . S
H797 C808 0.950 . S
H798 C810 0.950 . S
H799 C811 0.950 . S
C800 H792 0.950 1_455 S
C800 C801 1.386 . S
C800 C802 1.391 . S
C801 C800 1.386 . S
C801 C805 1.393 . S
C802 H794 0.950 . S
C802 C800 1.391 . S
C802 C803 1.400 . S
C803 C802 1.400 . S
C803 C804 1.398 . S
C803 C809 1.491 . S
C804 H795 0.950 . S
C804 C803 1.398 . S
C804 C805 1.391 . S
C805 H793 0.950 . S
C805 C801 1.393 . S
C805 C804 1.391 . S
C806 H796 0.950 . S
C806 C807 1.386 . S
C806 C808 1.391 . S
C807 C806 1.386 . S
C807 C811 1.393 . S
C808 H797 0.950 . S
C808 C806 1.391 . S
C808 C809 1.400 . S
C809 C803 1.491 . S
C809 C808 1.400 . S
C809 C810 1.398 . S
C810 H798 0.950 . S
C810 C809 1.398 . S
C810 C811 1.391 . S
C811 H799 0.950 . S
C811 C807 1.393 . S
C811 C810 1.391 . S
H812 C820 0.950 . S
H813 C825 0.950 . S
H814 C822 0.950 . S
H815 C824 0.950 . S
H816 C826 0.950 . S
H817 C828 0.950 . S
H818 C830 0.950 . S
H819 C831 0.950 . S
C820 H812 0.950 . S
C820 C821 1.386 . S
C820 C822 1.391 . S
C821 C820 1.386 . S
C821 C825 1.393 . S
C822 H814 0.950 . S
C822 C820 1.391 . S
C822 C823 1.400 . S
C823 C822 1.400 . S
C823 C824 1.398 . S
C823 C829 1.491 . S
C824 H815 0.950 . S
C824 C823 1.398 . S
C824 C825 1.391 . S
C825 H813 0.950 . S
C825 C821 1.393 . S
C825 C824 1.391 . S
C826 H816 0.950 . S
C826 C827 1.386 . S
C826 C828 1.391 . S
C827 C826 1.386 . S
C827 C831 1.393 . S
C828 H817 0.950 . S
C828 C826 1.391 . S
C828 C829 1.400 . S
C829 C823 1.491 . S
C829 C828 1.400 . S
C829 C830 1.398 . S
C830 H818 0.950 . S
C830 C829 1.398 . S
C830 C831 1.391 . S
C831 H819 0.950 . S
C831 C827 1.393 . S
C831 C830 1.391 . S
H832 C840 0.950 1_455 S
H833 C845 0.950 . S
H834 C842 0.950 . S
H835 C844 0.950 . S
H836 C846 0.950 . S
H837 C848 0.950 . S
H838 C850 0.950 . S
H839 C851 0.950 . S
C840 H832 0.950 1_655 S
C840 C841 1.386 . S
C840 C842 1.391 . S
C841 C840 1.386 . S
C841 C845 1.393 . S
C842 H834 0.950 . S
C842 C840 1.391 . S
C842 C843 1.400 . S
C843 C842 1.400 . S
C843 C844 1.398 . S
C843 C849 1.491 . S
C844 H835 0.950 . S
C844 C843 1.398 . S
C844 C845 1.391 . S
C845 H833 0.950 . S
C845 C841 1.393 . S
C845 C844 1.391 . S
C846 H836 0.950 . S
C846 C847 1.386 . S
C846 C848 1.391 . S
C847 C846 1.386 . S
C847 C851 1.393 . S
C848 H837 0.950 . S
C848 C846 1.391 . S
C848 C849 1.400 . S
C849 C843 1.491 . S
C849 C848 1.400 . S
C849 C850 1.398 . S
C850 H838 0.950 . S
C850 C849 1.398 . S
C850 C851 1.391 . S
C851 H839 0.950 . S
C851 C847 1.393 . S
C851 C850 1.391 . S
H852 C860 0.950 . S
H853 C865 0.950 . S
H854 C862 0.950 . S
H855 C864 0.950 . S
H856 C866 0.950 . S
H857 C868 0.950 . S
H858 C870 0.950 . S
H859 C871 0.950 . S
C860 H852 0.950 . S
C860 C861 1.386 . S
C860 C862 1.391 . S
C861 C860 1.386 . S
C861 C865 1.393 . S
C862 H854 0.950 . S
C862 C860 1.391 . S
C862 C863 1.400 . S
C863 C862 1.400 . S
C863 C864 1.398 . S
C863 C869 1.491 . S
C864 H855 0.950 . S
C864 C863 1.398 . S
C864 C865 1.391 . S
C865 H853 0.950 . S
C865 C861 1.393 . S
C865 C864 1.391 . S
C866 H856 0.950 . S
C866 C867 1.386 . S
C866 C868 1.391 . S
C867 C866 1.386 . S
C867 C871 1.393 . S
C868 H857 0.950 . S
C868 C866 1.391 . S
C868 C869 1.400 . S
C869 C863 1.491 . S
C869 C868 1.400 . S
C869 C870 1.398 . S
C870 H858 0.950 . S
C870 C869 1.398 . S
C870 C871 1.391 . S
C871 H859 0.950 . S
C871 C867 1.393 . S
C871 C870 1.391 . S
H872 C880 0.950 . S
H873 C885 0.950 . S
H874 C882 0.950 1_455 S
H875 C884 0.950 . S
H876 C886 0.950 . S
H877 C888 0.950 . S
H878 C890 0.950 . S
H879 C891 0.950 . S
C880 H872 0.950 . S
C880 C881 1.386 1_455 S
C880 C882 1.391 1_455 S
C881 C880 1.386 1_655 S
C881 C885 1.393 . S
C882 H874 0.950 1_655 S
C882 C880 1.391 1_655 S
C882 C883 1.400 . S
C883 C882 1.400 . S
C883 C884 1.398 . S
C883 C889 1.491 . S
C884 H875 0.950 . S
C884 C883 1.398 . S
C884 C885 1.391 . S
C885 H873 0.950 . S
C885 C881 1.393 . S
C885 C884 1.391 . S
C886 H876 0.950 . S
C886 C887 1.386 . S
C886 C888 1.391 . S
C887 C886 1.386 . S
C887 C891 1.393 . S
C888 H877 0.950 . S
C888 C886 1.391 . S
C888 C889 1.400 . S
C889 C883 1.491 . S
C889 C888 1.400 . S
C889 C890 1.398 . S
C890 H878 0.950 . S
C890 C889 1.398 . S
C890 C891 1.391 . S
C891 H879 0.950 . S
C891 C887 1.393 . S
C891 C890 1.391 . S
H892 C900 0.950 . S
H893 C905 0.950 . S
H894 C902 0.950 . S
H895 C904 0.950 . S
H896 C906 0.950 . S
H897 C908 0.950 . S
H898 C910 0.950 . S
H899 C911 0.950 . S
C900 H892 0.950 . S
C900 C901 1.386 . S
C900 C902 1.391 . S
C901 C900 1.386 . S
C901 C905 1.393 . S
C902 H894 0.950 . S
C902 C900 1.391 . S
C902 C903 1.400 . S
C903 C902 1.400 . S
C903 C904 1.398 . S
C903 C909 1.491 . S
C904 H895 0.950 . S
C904 C903 1.398 . S
C904 C905 1.391 . S
C905 H893 0.950 . S
C905 C901 1.393 . S
C905 C904 1.391 . S
C906 H896 0.950 . S
C906 C907 1.386 . S
C906 C908 1.391 . S
C907 C906 1.386 . S
C907 C911 1.393 . S
C908 H897 0.950 . S
C908 C906 1.391 . S
C908 C909 1.400 . S
C909 C903 1.491 . S
C909 C908 1.400 . S
C909 C910 1.398 . S
C910 H898 0.950 . S
C910 C909 1.398 . S
C910 C911 1.391 . S
C911 H899 0.950 . S
C911 C907 1.393 . S
C911 C910 1.391 . S
H912 C920 0.950 . S
H913 C925 0.950 . S
H914 C922 0.950 1_655 S
H915 C924 0.950 . S
H916 C926 0.950 . S
H917 C928 0.950 . S
H918 C930 0.950 . S
H919 C931 0.950 . S
C920 H912 0.950 . S
C920 C921 1.386 1_655 S
C920 C922 1.391 1_655 S
C921 C920 1.386 1_455 S
C921 C925 1.393 . S
C922 H914 0.950 1_455 S
C922 C920 1.391 1_455 S
C922 C923 1.400 . S
C923 C922 1.400 . S
C923 C924 1.398 . S
C923 C929 1.491 . S
C924 H915 0.950 . S
C924 C923 1.398 . S
C924 C925 1.391 . S
C925 H913 0.950 . S
C925 C921 1.393 . S
C925 C924 1.391 . S
C926 H916 0.950 . S
C926 C927 1.386 . S
C926 C928 1.391 . S
C927 C926 1.386 . S
C927 C931 1.393 . S
C928 H917 0.950 . S
C928 C926 1.391 . S
C928 C929 1.400 . S
C929 C923 1.491 . S
C929 C928 1.400 . S
C929 C930 1.398 . S
C930 H918 0.950 . S
C930 C929 1.398 . S
C930 C931 1.391 . S
C931 H919 0.950 . S
C931 C927 1.393 . S
C931 C930 1.391 . S
H932 C940 0.950 . S
H933 C945 0.950 . S
H934 C942 0.950 . S
H935 C944 0.950 . S
H936 C946 0.950 . S
H937 C948 0.950 . S
H938 C950 0.950 . S
H939 C951 0.950 . S
C940 H932 0.950 . S
C940 C941 1.386 . S
C940 C942 1.391 . S
C941 C940 1.386 . S
C941 C945 1.393 . S
C942 H934 0.950 . S
C942 C940 1.391 . S
C942 C943 1.400 . S
C943 C942 1.400 . S
C943 C944 1.398 . S
C943 C949 1.491 . S
C944 H935 0.950 . S
C944 C943 1.398 . S
C944 C945 1.391 . S
C945 H933 0.950 . S
C945 C941 1.393 . S
C945 C944 1.391 . S
C946 H936 0.950 . S
C946 C947 1.386 . S
C946 C948 1.391 . S
C947 C946 1.386 . S
C947 C951 1.393 . S
C948 H937 0.950 . S
C948 C946 1.391 . S
C948 C949 1.400 . S
C949 C943 1.491 . S
C949 C948 1.400 . S
C949 C950 1.398 . S
C950 H938 0.950 . S
C950 C949 1.398 . S
C950 C951 1.391 . S
C951 H939 0.950 . S
C951 C947 1.393 . S
C951 C950 1.391 . S
H952 C960 0.950 . S
H953 C965 0.950 . S
H954 C962 0.950 . S
H955 C964 0.950 . S
H956 C966 0.950 . S
H957 C968 0.950 . S
H958 C970 0.950 . S
H959 C971 0.950 1_655 S
C960 H952 0.950 . S
C960 C961 1.386 . S
C960 C962 1.391 . S
C961 C960 1.386 . S
C961 C965 1.393 . S
C962 H954 0.950 . S
C962 C960 1.391 . S
C962 C963 1.400 . S
C963 C962 1.400 . S
C963 C964 1.398 . S
C963 C969 1.491 . S
C964 H955 0.950 . S
C964 C963 1.398 . S
C964 C965 1.391 . S
C965 H953 0.950 . S
C965 C961 1.393 . S
C965 C964 1.391 . S
C966 H956 0.950 . S
C966 C967 1.386 . S
C966 C968 1.391 . S
C967 C966 1.386 . S
C967 C971 1.393 . S
C968 H957 0.950 . S
C968 C966 1.391 . S
C968 C969 1.400 . S
C969 C963 1.491 . S
C969 C968 1.400 . S
C969 C970 1.398 . S
C970 H958 0.950 . S
C970 C969 1.398 . S
C970 C971 1.391 . S
C971 H959 0.950 1_455 S
C971 C967 1.393 . S
C971 C970 1.391 . S
H972 C980 0.950 . S
H973 C985 0.950 . S
H974 C982 0.950 . S
H975 C984 0.950 . S
H976 C986 0.950 . S
H977 C988 0.950 . S
H978 C990 0.950 . S
H979 C991 0.950 . S
C980 H972 0.950 . S
C980 C981 1.386 . S
C980 C982 1.391 . S
C981 C980 1.386 . S
C981 C985 1.393 . S
C982 H974 0.950 . S
C982 C980 1.391 . S
C982 C983 1.400 . S
C983 C982 1.400 . S
C983 C984 1.398 . S
C983 C989 1.491 . S
C984 H975 0.950 . S
C984 C983 1.398 . S
C984 C985 1.391 . S
C985 H973 0.950 . S
C985 C981 1.393 . S
C985 C984 1.391 . S
C986 H976 0.950 . S
C986 C987 1.386 . S
C986 C988 1.391 . S
C987 C986 1.386 . S
C987 C991 1.393 . S
C988 H977 0.950 . S
C988 C986 1.391 . S
C988 C989 1.400 . S
C989 C983 1.491 . S
C989 C988 1.400 . S
C989 C990 1.398 . S
C990 H978 0.950 . S
C990 C989 1.398 . S
C990 C991 1.391 . S
C991 H979 0.950 . S
C991 C987 1.393 . S
C991 C990 1.391 . S
H992 C1000 0.950 1_655 S
H993 C1005 0.950 . S
H994 C1002 0.950 . S
H995 C1004 0.950 . S
H996 C1006 0.950 . S
H997 C1008 0.950 . S
H998 C1010 0.950 . S
H999 C1011 0.950 . S
C1000 H992 0.950 1_455 S
C1000 C1001 1.386 . S
C1000 C1002 1.391 . S
C1001 C1000 1.386 . S
C1001 C1005 1.393 . S
C1002 H994 0.950 . S
C1002 C1000 1.391 . S
C1002 C1003 1.400 . S
C1003 C1002 1.400 . S
C1003 C1004 1.398 . S
C1003 C1009 1.491 . S
C1004 H995 0.950 . S
C1004 C1003 1.398 . S
C1004 C1005 1.391 . S
C1005 H993 0.950 . S
C1005 C1001 1.393 . S
C1005 C1004 1.391 . S
C1006 H996 0.950 . S
C1006 C1007 1.386 . S
C1006 C1008 1.391 . S
C1007 C1006 1.386 . S
C1007 C1011 1.393 . S
C1008 H997 0.950 . S
C1008 C1006 1.391 . S
C1008 C1009 1.400 . S
C1009 C1003 1.491 . S
C1009 C1008 1.400 . S
C1009 C1010 1.398 . S
C1010 H998 0.950 . S
C1010 C1009 1.398 . S
C1010 C1011 1.391 . S
C1011 H999 0.950 . S
C1011 C1007 1.393 . S
C1011 C1010 1.391 . S
H1012 C1020 0.950 . S
H1013 C1025 0.950 . S
H1014 C1022 0.950 . S
H1015 C1024 0.950 . S
H1016 C1026 0.950 1_655 S
H1017 C1028 0.950 1_655 S
H1018 C1030 0.950 . S
H1019 C1031 0.950 . S
C1020 H1012 0.950 . S
C1020 C1021 1.386 . S
C1020 C1022 1.391 . S
C1021 C1020 1.386 . S
C1021 C1025 1.393 . S
C1022 H1014 0.950 . S
C1022 C1020 1.391 . S
C1022 C1023 1.400 . S
C1023 C1022 1.400 . S
C1023 C1024 1.398 . S
C1023 C1029 1.491 . S
C1024 H1015 0.950 . S
C1024 C1023 1.398 . S
C1024 C1025 1.391 . S
C1025 H1013 0.950 . S
C1025 C1021 1.393 . S
C1025 C1024 1.391 . S
C1026 H1016 0.950 1_455 S
C1026 C1027 1.386 . S
C1026 C1028 1.391 . S
C1027 C1026 1.386 . S
C1027 C1031 1.393 . S
C1028 H1017 0.950 1_455 S
C1028 C1026 1.391 . S
C1028 C1029 1.400 . S
C1029 C1023 1.491 . S
C1029 C1028 1.400 . S
C1029 C1030 1.398 . S
C1030 H1018 0.950 . S
C1030 C1029 1.398 . S
C1030 C1031 1.391 . S
C1031 H1019 0.950 . S
C1031 C1027 1.393 . S
C1031 C1030 1.391 . S
H1032 C1040 0.950 . S
H1033 C1045 0.950 . S
H1034 C1042 0.950 . S
H1035 C1044 0.950 . S
H1036 C1046 0.950 . S
H1037 C1048 0.950 . S
H1038 C1050 0.950 . S
H1039 C1051 0.950 . S
C1040 H1032 0.950 . S
C1040 C1041 1.386 . S
C1040 C1042 1.391 . S
C1041 C1040 1.386 . S
C1041 C1045 1.393 . S
C1042 H1034 0.950 . S
C1042 C1040 1.391 . S
C1042 C1043 1.400 . S
C1043 C1042 1.400 . S
C1043 C1044 1.398 . S
C1043 C1049 1.491 . S
C1044 H1035 0.950 . S
C1044 C1043 1.398 . S
C1044 C1045 1.391 . S
C1045 H1033 0.950 . S
C1045 C1041 1.393 . S
C1045 C1044 1.391 . S
C1046 H1036 0.950 . S
C1046 C1047 1.386 . S
C1046 C1048 1.391 . S
C1047 C1046 1.386 . S
C1047 C1051 1.393 . S
C1048 H1037 0.950 . S
C1048 C1046 1.391 . S
C1048 C1049 1.400 . S
C1049 C1043 1.491 . S
C1049 C1048 1.400 . S
C1049 C1050 1.398 . S
C1050 H1038 0.950 . S
C1050 C1049 1.398 . S
C1050 C1051 1.391 . S
C1051 H1039 0.950 . S
C1051 C1047 1.393 . S
C1051 C1050 1.391 . S
H1052 C1060 0.950 . S
H1053 C1065 0.950 . S
H1054 C1062 0.950 . S
H1055 C1064 0.950 . S
H1056 C1066 0.950 . S
H1057 C1068 0.950 . S
H1058 C1070 0.950 . S
H1059 C1071 0.950 . S
C1060 H1052 0.950 . S
C1060 C1061 1.386 . S
C1060 C1062 1.391 . S
C1061 C1060 1.386 . S
C1061 C1065 1.393 . S
C1062 H1054 0.950 . S
C1062 C1060 1.391 . S
C1062 C1063 1.400 . S
C1063 C1062 1.400 . S
C1063 C1064 1.398 . S
C1063 C1069 1.491 . S
C1064 H1055 0.950 . S
C1064 C1063 1.398 . S
C1064 C1065 1.391 . S
C1065 H1053 0.950 . S
C1065 C1061 1.393 . S
C1065 C1064 1.391 . S
C1066 H1056 0.950 . S
C1066 C1067 1.386 . S
C1066 C1068 1.391 . S
C1067 C1066 1.386 . S
C1067 C1071 1.393 . S
C1068 H1057 0.950 . S
C1068 C1066 1.391 . S
C1068 C1069 1.400 . S
C1069 C1063 1.491 . S
C1069 C1068 1.400 . S
C1069 C1070 1.398 . S
C1070 H1058 0.950 . S
C1070 C1069 1.398 . S
C1070 C1071 1.391 . S
C1071 H1059 0.950 . S
C1071 C1067 1.393 . S
C1071 C1070 1.391 . S
H1072 C1080 0.950 . S
H1073 C1085 0.950 1_655 S
H1074 C1082 0.950 . S
H1075 C1084 0.953 1_655 S
H1076 C1086 0.950 . S
H1077 C1088 0.950 . S
H1078 C1090 0.950 . S
H1079 C1091 0.950 . S
C1080 H1072 0.950 . S
C1080 C1081 1.387 . S
C1080 C1082 1.391 . S
C1081 C1080 1.387 . S
C1081 C1085 1.392 1_545 S
C1082 H1074 0.950 . S
C1082 C1080 1.391 . S
C1082 C1083 1.400 1_545 S
C1083 C1082 1.400 1_565 S
C1083 C1084 1.397 . S
C1083 C1089 1.490 . S
C1084 H1075 0.953 1_455 S
C1084 C1083 1.397 . S
C1084 C1085 1.392 . S
C1085 H1073 0.950 1_455 S
C1085 C1081 1.392 1_565 S
C1085 C1084 1.392 . S
C1086 H1076 0.950 . S
C1086 C1087 1.386 . S
C1086 C1088 1.391 . S
C1087 C1086 1.386 . S
C1087 C1091 1.392 1_565 S
C1088 H1077 0.950 . S
C1088 C1086 1.391 . S
C1088 C1089 1.405 . S
C1089 C1083 1.490 . S
C1089 C1088 1.405 . S
C1089 C1090 1.397 1_565 S
C1090 H1078 0.950 . S
C1090 C1089 1.397 1_545 S
C1090 C1091 1.391 . S
C1091 H1079 0.950 . S
C1091 C1087 1.392 1_545 S
C1091 C1090 1.391 . S
H1092 C1100 0.950 . S
H1093 C1105 0.950 . S
H1094 C1102 0.950 . S
H1095 C1104 0.950 . S
H1096 C1106 0.950 . S
H1097 C1108 0.950 . S
H1098 C1110 0.950 1_655 S
H1099 C1111 0.950 1_655 S
C1100 H1092 0.950 . S
C1100 C1101 1.386 . S
C1100 C1102 1.391 . S
C1101 C1100 1.386 . S
C1101 C1105 1.393 . S
C1102 H1094 0.950 . S
C1102 C1100 1.391 . S
C1102 C1103 1.400 . S
C1103 C1102 1.400 . S
C1103 C1104 1.398 . S
C1103 C1109 1.491 . S
C1104 H1095 0.950 . S
C1104 C1103 1.398 . S
C1104 C1105 1.391 . S
C1105 H1093 0.950 . S
C1105 C1101 1.393 . S
C1105 C1104 1.391 . S
C1106 H1096 0.950 . S
C1106 C1107 1.386 . S
C1106 C1108 1.391 . S
C1107 C1106 1.386 . S
C1107 C1111 1.393 . S
C1108 H1097 0.950 . S
C1108 C1106 1.391 . S
C1108 C1109 1.400 . S
C1109 C1103 1.491 . S
C1109 C1108 1.400 . S
C1109 C1110 1.398 . S
C1110 H1098 0.950 1_455 S
C1110 C1109 1.398 . S
C1110 C1111 1.391 . S
C1111 H1099 0.950 1_455 S
C1111 C1107 1.393 . S
C1111 C1110 1.391 . S
H1112 C1120 0.950 . S
H1113 C1125 0.950 . S
H1114 C1122 0.950 . S
H1115 C1124 0.950 . S
H1116 C1126 0.950 . S
H1117 C1128 0.950 . S
H1118 C1130 0.950 . S
H1119 C1131 0.950 . S
C1120 H1112 0.950 . S
C1120 C1121 1.410 . S
C1120 C1122 1.391 . S
C1121 C1120 1.410 . S
C1121 C1125 1.369 1_545 S
C1122 H1114 0.950 . S
C1122 C1120 1.391 . S
C1122 C1123 1.423 . S
C1123 C1122 1.423 . S
C1123 C1124 1.376 1_545 S
C1123 C1129 1.491 . S
C1124 H1115 0.950 . S
C1124 C1123 1.376 1_565 S
C1124 C1125 1.391 . S
C1125 H1113 0.950 . S
C1125 C1121 1.369 1_565 S
C1125 C1124 1.391 . S
C1126 H1116 0.950 . S
C1126 C1127 1.371 1_565 S
C1126 C1128 1.391 . S
C1127 C1126 1.371 1_545 S
C1127 C1131 1.407 . S
C1128 H1117 0.950 . S
C1128 C1126 1.391 . S
C1128 C1129 1.384 1_565 S
C1129 C1123 1.491 . S
C1129 C1128 1.384 1_545 S
C1129 C1130 1.415 . S
C1130 H1118 0.950 . S
C1130 C1129 1.415 . S
C1130 C1131 1.391 . S
C1131 H1119 0.950 . S
C1131 C1127 1.407 . S
C1131 C1130 1.391 . S
H1132 C1140 0.950 . S
H1133 C1145 0.950 . S
H1134 C1142 0.950 . S
H1135 C1144 0.950 . S
H1136 C1146 0.950 . S
H1137 C1148 0.950 . S
H1138 C1150 0.950 . S
H1139 C1151 0.950 . S
C1140 H1132 0.950 . S
C1140 C1141 1.386 . S
C1140 C1142 1.391 . S
C1141 C1140 1.386 . S
C1141 C1145 1.393 . S
C1142 H1134 0.950 . S
C1142 C1140 1.391 . S
C1142 C1143 1.400 . S
C1143 C1142 1.400 . S
C1143 C1144 1.398 . S
C1143 C1149 1.491 . S
C1144 H1135 0.950 . S
C1144 C1143 1.398 . S
C1144 C1145 1.391 . S
C1145 H1133 0.950 . S
C1145 C1141 1.393 . S
C1145 C1144 1.391 . S
C1146 H1136 0.950 . S
C1146 C1147 1.386 . S
C1146 C1148 1.391 . S
C1147 C1146 1.386 . S
C1147 C1151 1.393 . S
C1148 H1137 0.950 . S
C1148 C1146 1.391 . S
C1148 C1149 1.400 . S
C1149 C1143 1.491 . S
C1149 C1148 1.400 . S
C1149 C1150 1.398 . S
C1150 H1138 0.950 . S
C1150 C1149 1.398 . S
C1150 C1151 1.391 . S
C1151 H1139 0.950 . S
C1151 C1147 1.393 . S
C1151 C1150 1.391 . S
H1152 C1160 0.950 . S
H1153 C1165 0.950 . S
H1154 C1162 0.950 . S
H1155 C1164 0.950 . S
H1156 C1166 0.950 . S
H1157 C1168 0.950 . S
H1158 C1170 0.950 . S
H1159 C1171 0.950 . S
C1160 H1152 0.950 . S
C1160 C1161 1.386 . S
C1160 C1162 1.391 . S
C1161 C1160 1.386 . S
C1161 C1165 1.393 . S
C1162 H1154 0.950 . S
C1162 C1160 1.391 . S
C1162 C1163 1.400 . S
C1163 C1162 1.400 . S
C1163 C1164 1.398 . S
C1163 C1169 1.491 . S
C1164 H1155 0.950 . S
C1164 C1163 1.398 . S
C1164 C1165 1.391 . S
C1165 H1153 0.950 . S
C1165 C1161 1.393 . S
C1165 C1164 1.391 . S
C1166 H1156 0.950 . S
C1166 C1167 1.386 . S
C1166 C1168 1.391 . S
C1167 C1166 1.386 . S
C1167 C1171 1.393 . S
C1168 H1157 0.950 . S
C1168 C1166 1.391 . S
C1168 C1169 1.400 . S
C1169 C1163 1.491 . S
C1169 C1168 1.400 . S
C1169 C1170 1.398 . S
C1170 H1158 0.950 . S
C1170 C1169 1.398 . S
C1170 C1171 1.391 . S
C1171 H1159 0.950 . S
C1171 C1167 1.393 . S
C1171 C1170 1.391 . S
H1172 C1180 0.950 . S
H1173 C1185 0.950 . S
H1174 C1182 0.950 . S
H1175 C1184 0.950 . S
H1176 C1186 0.950 . S
H1177 C1188 0.950 . S
H1178 C1190 0.950 . S
H1179 C1191 0.950 . S
C1180 H1172 0.950 . S
C1180 C1181 1.386 . S
C1180 C1182 1.391 . S
C1181 C1180 1.386 . S
C1181 C1185 1.393 . S
C1182 H1174 0.950 . S
C1182 C1180 1.391 . S
C1182 C1183 1.400 . S
C1183 C1182 1.400 . S
C1183 C1184 1.398 . S
C1183 C1189 1.491 . S
C1184 H1175 0.950 . S
C1184 C1183 1.398 . S
C1184 C1185 1.391 . S
C1185 H1173 0.950 . S
C1185 C1181 1.393 . S
C1185 C1184 1.391 . S
C1186 H1176 0.950 . S
C1186 C1187 1.386 . S
C1186 C1188 1.391 . S
C1187 C1186 1.386 . S
C1187 C1191 1.393 . S
C1188 H1177 0.950 . S
C1188 C1186 1.391 . S
C1188 C1189 1.400 . S
C1189 C1183 1.491 . S
C1189 C1188 1.400 . S
C1189 C1190 1.398 . S
C1190 H1178 0.950 . S
C1190 C1189 1.398 . S
C1190 C1191 1.391 . S
C1191 H1179 0.950 . S
C1191 C1187 1.393 . S
C1191 C1190 1.391 . S
H1192 C1200 0.950 . S
H1193 C1205 0.950 . S
H1194 C1202 0.950 . S
H1195 C1204 0.950 . S
H1196 C1206 0.950 . S
H1197 C1208 0.950 . S
H1198 C1210 0.950 . S
H1199 C1211 0.950 . S
C1200 H1192 0.950 . S
C1200 C1201 1.386 . S
C1200 C1202 1.391 . S
C1201 C1200 1.386 . S
C1201 C1205 1.393 . S
C1202 H1194 0.950 . S
C1202 C1200 1.391 . S
C1202 C1203 1.400 . S
C1203 C1202 1.400 . S
C1203 C1204 1.398 . S
C1203 C1209 1.491 . S
C1204 H1195 0.950 . S
C1204 C1203 1.398 . S
C1204 C1205 1.391 . S
C1205 H1193 0.950 . S
C1205 C1201 1.393 . S
C1205 C1204 1.391 . S
C1206 H1196 0.950 . S
C1206 C1207 1.386 . S
C1206 C1208 1.391 . S
C1207 C1206 1.386 . S
C1207 C1211 1.393 . S
C1208 H1197 0.950 . S
C1208 C1206 1.391 . S
C1208 C1209 1.400 . S
C1209 C1203 1.491 . S
C1209 C1208 1.400 . S
C1209 C1210 1.398 . S
C1210 H1198 0.950 . S
C1210 C1209 1.398 . S
C1210 C1211 1.391 . S
C1211 H1199 0.950 . S
C1211 C1207 1.393 . S
C1211 C1210 1.391 . S
H1212 C1220 0.950 . S
H1213 C1225 0.950 . S
H1214 C1222 0.950 . S
H1215 C1224 0.950 . S
H1216 C1226 0.950 . S
H1217 C1228 0.950 . S
H1218 C1230 0.950 . S
H1219 C1231 0.950 . S
C1220 H1212 0.950 . S
C1220 C1221 1.386 . S
C1220 C1222 1.391 . S
C1221 C1220 1.386 . S
C1221 C1225 1.393 . S
C1222 H1214 0.950 . S
C1222 C1220 1.391 . S
C1222 C1223 1.400 . S
C1223 C1222 1.400 . S
C1223 C1224 1.398 . S
C1223 C1229 1.491 . S
C1224 H1215 0.950 . S
C1224 C1223 1.398 . S
C1224 C1225 1.391 . S
C1225 H1213 0.950 . S
C1225 C1221 1.393 . S
C1225 C1224 1.391 . S
C1226 H1216 0.950 . S
C1226 C1227 1.386 . S
C1226 C1228 1.391 . S
C1227 C1226 1.386 . S
C1227 C1231 1.393 . S
C1228 H1217 0.950 . S
C1228 C1226 1.391 . S
C1228 C1229 1.400 . S
C1229 C1223 1.491 . S
C1229 C1228 1.400 . S
C1229 C1230 1.398 . S
C1230 H1218 0.950 . S
C1230 C1229 1.398 . S
C1230 C1231 1.391 . S
C1231 H1219 0.950 . S
C1231 C1227 1.393 . S
C1231 C1230 1.391 . S
H1232 C1240 0.950 . S
H1233 C1245 0.950 . S
H1234 C1242 0.950 . S
H1235 C1244 0.950 . S
H1236 C1246 0.950 . S
H1237 C1248 0.950 . S
H1238 C1250 0.950 . S
H1239 C1251 0.950 . S
C1240 H1232 0.950 . S
C1240 C1241 1.387 . S
C1240 C1242 1.391 . S
C1241 C1240 1.387 . S
C1241 C1245 1.392 1_545 S
C1242 H1234 0.950 . S
C1242 C1240 1.391 . S
C1242 C1243 1.399 1_545 S
C1243 C1242 1.399 1_565 S
C1243 C1244 1.400 . S
C1243 C1249 1.490 . S
C1244 H1235 0.950 . S
C1244 C1243 1.400 . S
C1244 C1245 1.391 . S
C1245 H1233 0.950 . S
C1245 C1241 1.392 1_565 S
C1245 C1244 1.391 . S
C1246 H1236 0.950 . S
C1246 C1247 1.386 . S
C1246 C1248 1.391 . S
C1247 C1246 1.386 . S
C1247 C1251 1.393 1_565 S
C1248 H1237 0.950 . S
C1248 C1246 1.391 . S
C1248 C1249 1.421 . S
C1249 C1243 1.490 . S
C1249 C1248 1.421 . S
C1249 C1250 1.380 1_565 S
C1250 H1238 0.950 . S
C1250 C1249 1.380 1_545 S
C1250 C1251 1.391 . S
C1251 H1239 0.950 . S
C1251 C1247 1.393 1_545 S
C1251 C1250 1.391 . S
H1252 C1260 0.950 . S
H1253 C1265 0.950 . S
H1254 C1262 0.950 . S
H1255 C1264 0.950 . S
H1256 C1266 0.950 . S
H1257 C1268 0.950 . S
H1258 C1270 0.950 . S
H1259 C1271 0.950 . S
C1260 H1252 0.950 . S
C1260 C1261 1.386 . S
C1260 C1262 1.391 . S
C1261 C1260 1.386 . S
C1261 C1265 1.393 . S
C1262 H1254 0.950 . S
C1262 C1260 1.391 . S
C1262 C1263 1.400 . S
C1263 C1262 1.400 . S
C1263 C1264 1.398 . S
C1263 C1269 1.491 . S
C1264 H1255 0.950 . S
C1264 C1263 1.398 . S
C1264 C1265 1.391 . S
C1265 H1253 0.950 . S
C1265 C1261 1.393 . S
C1265 C1264 1.391 . S
C1266 H1256 0.950 . S
C1266 C1267 1.386 . S
C1266 C1268 1.391 . S
C1267 C1266 1.386 . S
C1267 C1271 1.393 . S
C1268 H1257 0.950 . S
C1268 C1266 1.391 . S
C1268 C1269 1.400 . S
C1269 C1263 1.491 . S
C1269 C1268 1.400 . S
C1269 C1270 1.398 . S
C1270 H1258 0.950 . S
C1270 C1269 1.398 . S
C1270 C1271 1.391 . S
C1271 H1259 0.950 . S
C1271 C1267 1.393 . S
C1271 C1270 1.391 . S
H1272 C1280 0.950 . S
H1273 C1285 0.950 . S
H1274 C1282 0.950 . S
H1275 C1284 0.950 . S
H1276 C1286 0.950 . S
H1277 C1288 0.950 . S
H1278 C1290 0.950 . S
H1279 C1291 0.950 . S
C1280 H1272 0.950 . S
C1280 C1281 1.386 1_565 S
C1280 C1282 1.391 . S
C1281 C1280 1.386 1_545 S
C1281 C1285 1.393 . S
C1282 H1274 0.950 . S
C1282 C1280 1.391 . S
C1282 C1283 1.387 1_565 S
C1283 C1282 1.387 1_545 S
C1283 C1284 1.415 . S
C1283 C1289 1.490 . S
C1284 H1275 0.950 . S
C1284 C1283 1.415 . S
C1284 C1285 1.391 . S
C1285 H1273 0.950 . S
C1285 C1281 1.393 . S
C1285 C1284 1.391 . S
C1286 H1276 0.950 . S
C1286 C1287 1.382 1_545 S
C1286 C1288 1.391 . S
C1287 C1286 1.382 1_565 S
C1287 C1291 1.396 . S
C1288 H1277 0.950 . S
C1288 C1286 1.391 . S
C1288 C1289 1.400 . S
C1289 C1283 1.490 . S
C1289 C1288 1.400 . S
C1289 C1290 1.399 1_545 S
C1290 H1278 0.950 . S
C1290 C1289 1.399 1_565 S
C1290 C1291 1.391 . S
C1291 H1279 0.950 . S
C1291 C1287 1.396 . S
C1291 C1290 1.391 . S
H1292 C1300 0.950 . S
H1293 C1305 0.950 . S
H1294 C1302 0.950 . S
H1295 C1304 0.950 . S
H1296 C1306 0.950 . S
H1297 C1308 0.950 . S
H1298 C1310 0.950 . S
H1299 C1311 0.950 . S
C1300 H1292 0.950 . S
C1300 C1301 1.386 . S
C1300 C1302 1.391 . S
C1301 C1300 1.386 . S
C1301 C1305 1.393 . S
C1302 H1294 0.950 . S
C1302 C1300 1.391 . S
C1302 C1303 1.400 . S
C1303 C1302 1.400 . S
C1303 C1304 1.398 . S
C1303 C1309 1.491 . S
C1304 H1295 0.950 . S
C1304 C1303 1.398 . S
C1304 C1305 1.391 . S
C1305 H1293 0.950 . S
C1305 C1301 1.393 . S
C1305 C1304 1.391 . S
C1306 H1296 0.950 . S
C1306 C1307 1.386 . S
C1306 C1308 1.391 . S
C1307 C1306 1.386 . S
C1307 C1311 1.393 . S
C1308 H1297 0.950 . S
C1308 C1306 1.391 . S
C1308 C1309 1.400 . S
C1309 C1303 1.491 . S
C1309 C1308 1.400 . S
C1309 C1310 1.398 . S
C1310 H1298 0.950 . S
C1310 C1309 1.398 . S
C1310 C1311 1.391 . S
C1311 H1299 0.950 . S
C1311 C1307 1.393 . S
C1311 C1310 1.391 . S
H1312 C1320 0.950 . S
H1313 C1325 0.950 . S
H1314 C1322 0.950 . S
H1315 C1324 0.950 . S
H1316 C1326 0.950 . S
H1317 C1328 0.950 1_655 S
H1318 C1330 0.950 . S
H1319 C1331 0.950 . S
C1320 H1312 0.950 . S
C1320 C1321 1.386 . S
C1320 C1322 1.391 . S
C1321 C1320 1.386 . S
C1321 C1325 1.393 . S
C1322 H1314 0.950 . S
C1322 C1320 1.391 . S
C1322 C1323 1.400 . S
C1323 C1322 1.400 . S
C1323 C1324 1.398 . S
C1323 C1329 1.491 . S
C1324 H1315 0.950 . S
C1324 C1323 1.398 . S
C1324 C1325 1.391 . S
C1325 H1313 0.950 . S
C1325 C1321 1.393 . S
C1325 C1324 1.391 . S
C1326 H1316 0.950 . S
C1326 C1327 1.386 1_655 S
C1326 C1328 1.391 1_655 S
C1327 C1326 1.386 1_455 S
C1327 C1331 1.393 . S
C1328 H1317 0.950 1_455 S
C1328 C1326 1.391 1_455 S
C1328 C1329 1.400 . S
C1329 C1323 1.491 . S
C1329 C1328 1.400 . S
C1329 C1330 1.398 . S
C1330 H1318 0.950 . S
C1330 C1329 1.398 . S
C1330 C1331 1.391 . S
C1331 H1319 0.950 . S
C1331 C1327 1.393 . S
C1331 C1330 1.391 . S
H1332 C1340 0.950 . S
H1333 C1345 0.950 1_655 S
H1334 C1342 0.950 . S
H1335 C1344 0.950 . S
H1336 C1346 0.950 . S
H1337 C1348 0.950 . S
H1338 C1350 0.950 . S
H1339 C1351 0.950 . S
C1340 H1332 0.950 . S
C1340 C1341 1.386 . S
C1340 C1342 1.391 . S
C1341 C1340 1.386 . S
C1341 C1345 1.393 . S
C1342 H1334 0.950 . S
C1342 C1340 1.391 . S
C1342 C1343 1.400 . S
C1343 C1342 1.400 . S
C1343 C1344 1.398 . S
C1343 C1349 1.491 . S
C1344 H1335 0.950 . S
C1344 C1343 1.398 . S
C1344 C1345 1.391 . S
C1345 H1333 0.950 1_455 S
C1345 C1341 1.393 . S
C1345 C1344 1.391 . S
C1346 H1336 0.950 . S
C1346 C1347 1.386 . S
C1346 C1348 1.391 . S
C1347 C1346 1.386 . S
C1347 C1351 1.393 . S
C1348 H1337 0.950 . S
C1348 C1346 1.391 . S
C1348 C1349 1.400 . S
C1349 C1343 1.491 . S
C1349 C1348 1.400 . S
C1349 C1350 1.398 . S
C1350 H1338 0.950 . S
C1350 C1349 1.398 . S
C1350 C1351 1.391 . S
C1351 H1339 0.950 . S
C1351 C1347 1.393 . S
C1351 C1350 1.391 . S
H1352 C1360 0.950 . S
H1353 C1365 0.950 . S
H1354 C1362 0.950 . S
H1355 C1364 0.950 . S
H1356 C1366 0.950 1_455 S
H1357 C1368 0.950 . S
H1358 C1370 0.950 . S
H1359 C1371 0.950 . S
C1360 H1352 0.950 . S
C1360 C1361 1.386 . S
C1360 C1362 1.391 . S
C1361 C1360 1.386 . S
C1361 C1365 1.393 . S
C1362 H1354 0.950 . S
C1362 C1360 1.391 . S
C1362 C1363 1.400 . S
C1363 C1362 1.400 . S
C1363 C1364 1.398 . S
C1363 C1369 1.491 . S
C1364 H1355 0.950 . S
C1364 C1363 1.398 . S
C1364 C1365 1.391 . S
C1365 H1353 0.950 . S
C1365 C1361 1.393 . S
C1365 C1364 1.391 . S
C1366 H1356 0.950 1_655 S
C1366 C1367 1.386 . S
C1366 C1368 1.391 . S
C1367 C1366 1.386 . S
C1367 C1371 1.393 . S
C1368 H1357 0.950 . S
C1368 C1366 1.391 . S
C1368 C1369 1.400 . S
C1369 C1363 1.491 . S
C1369 C1368 1.400 . S
C1369 C1370 1.398 . S
C1370 H1358 0.950 . S
C1370 C1369 1.398 . S
C1370 C1371 1.391 . S
C1371 H1359 0.950 . S
C1371 C1367 1.393 . S
C1371 C1370 1.391 . S
H1372 C1380 0.950 . S
H1373 C1385 0.950 . S
H1374 C1382 0.950 . S
H1375 C1384 0.950 . S
H1376 C1386 0.950 . S
H1377 C1388 0.950 . S
H1378 C1390 0.950 1_455 S
H1379 C1391 0.950 1_455 S
C1380 H1372 0.950 . S
C1380 C1381 1.386 . S
C1380 C1382 1.391 . S
C1381 C1380 1.386 . S
C1381 C1385 1.393 . S
C1382 H1374 0.950 . S
C1382 C1380 1.391 . S
C1382 C1383 1.400 . S
C1383 C1382 1.400 . S
C1383 C1384 1.398 . S
C1383 C1389 1.491 . S
C1384 H1375 0.950 . S
C1384 C1383 1.398 . S
C1384 C1385 1.391 . S
C1385 H1373 0.950 . S
C1385 C1381 1.393 . S
C1385 C1384 1.391 . S
C1386 H1376 0.950 . S
C1386 C1387 1.386 . S
C1386 C1388 1.391 . S
C1387 C1386 1.386 . S
C1387 C1391 1.393 . S
C1388 H1377 0.950 . S
C1388 C1386 1.391 . S
C1388 C1389 1.400 . S
C1389 C1383 1.491 . S
C1389 C1388 1.400 . S
C1389 C1390 1.398 . S
C1390 H1378 0.950 1_655 S
C1390 C1389 1.398 . S
C1390 C1391 1.391 . S
C1391 H1379 0.950 1_655 S
C1391 C1387 1.393 . S
C1391 C1390 1.391 . S
H1392 C1400 0.950 . S
H1393 C1405 0.950 . S
H1394 C1402 0.950 . S
H1395 C1404 0.950 . S
H1396 C1406 0.950 . S
H1397 C1408 0.950 . S
H1398 C1410 0.950 . S
H1399 C1411 0.950 . S
C1400 H1392 0.950 . S
C1400 C1401 1.386 . S
C1400 C1402 1.391 . S
C1401 C1400 1.386 . S
C1401 C1405 1.393 . S
C1402 H1394 0.950 . S
C1402 C1400 1.391 . S
C1402 C1403 1.400 . S
C1403 C1402 1.400 . S
C1403 C1404 1.398 . S
C1403 C1409 1.491 . S
C1404 H1395 0.950 . S
C1404 C1403 1.398 . S
C1404 C1405 1.391 . S
C1405 H1393 0.950 . S
C1405 C1401 1.393 . S
C1405 C1404 1.391 . S
C1406 H1396 0.950 . S
C1406 C1407 1.386 . S
C1406 C1408 1.391 . S
C1407 C1406 1.386 . S
C1407 C1411 1.393 . S
C1408 H1397 0.950 . S
C1408 C1406 1.391 . S
C1408 C1409 1.400 . S
C1409 C1403 1.491 . S
C1409 C1408 1.400 . S
C1409 C1410 1.398 . S
C1410 H1398 0.950 . S
C1410 C1409 1.398 . S
C1410 C1411 1.391 . S
C1411 H1399 0.950 . S
C1411 C1407 1.393 . S
C1411 C1410 1.391 . S
H1412 C1420 0.950 . S
H1413 C1425 0.950 . S
H1414 C1422 0.950 . S
H1415 C1424 0.950 1_655 S
H1416 C1426 0.950 . S
H1417 C1428 0.950 . S
H1418 C1430 0.950 . S
H1419 C1431 0.950 . S
C1420 H1412 0.950 . S
C1420 C1421 1.386 . S
C1420 C1422 1.391 . S
C1421 C1420 1.386 . S
C1421 C1425 1.393 1_455 S
C1422 H1414 0.950 . S
C1422 C1420 1.391 . S
C1422 C1423 1.400 . S
C1423 C1422 1.400 . S
C1423 C1424 1.398 . S
C1423 C1429 1.491 . S
C1424 H1415 0.950 1_455 S
C1424 C1423 1.398 . S
C1424 C1425 1.391 1_455 S
C1425 H1413 0.950 . S
C1425 C1421 1.393 1_655 S
C1425 C1424 1.391 1_655 S
C1426 H1416 0.950 . S
C1426 C1427 1.386 . S
C1426 C1428 1.391 . S
C1427 C1426 1.386 . S
C1427 C1431 1.393 . S
C1428 H1417 0.950 . S
C1428 C1426 1.391 . S
C1428 C1429 1.400 . S
C1429 C1423 1.491 . S
C1429 C1428 1.400 . S
C1429 C1430 1.398 . S
C1430 H1418 0.950 . S
C1430 C1429 1.398 . S
C1430 C1431 1.391 . S
C1431 H1419 0.950 . S
C1431 C1427 1.393 . S
C1431 C1430 1.391 . S
H1432 C1440 0.950 . S
H1433 C1445 0.950 . S
H1434 C1442 0.950 . S
H1435 C1444 0.950 . S
H1436 C1446 0.950 . S
H1437 C1448 0.950 . S
H1438 C1450 0.950 . S
H1439 C1451 0.950 1_455 S
C1440 H1432 0.950 . S
C1440 C1441 1.386 . S
C1440 C1442 1.391 . S
C1441 C1440 1.386 . S
C1441 C1445 1.393 . S
C1442 H1434 0.950 . S
C1442 C1440 1.391 . S
C1442 C1443 1.400 . S
C1443 C1442 1.400 . S
C1443 C1444 1.398 . S
C1443 C1449 1.491 . S
C1444 H1435 0.950 . S
C1444 C1443 1.398 . S
C1444 C1445 1.391 . S
C1445 H1433 0.950 . S
C1445 C1441 1.393 . S
C1445 C1444 1.391 . S
C1446 H1436 0.950 . S
C1446 C1447 1.386 . S
C1446 C1448 1.391 . S
C1447 C1446 1.386 . S
C1447 C1451 1.393 . S
C1448 H1437 0.950 . S
C1448 C1446 1.391 . S
C1448 C1449 1.400 . S
C1449 C1443 1.491 . S
C1449 C1448 1.400 . S
C1449 C1450 1.398 . S
C1450 H1438 0.950 . S
C1450 C1449 1.398 . S
C1450 C1451 1.391 . S
C1451 H1439 0.950 1_655 S
C1451 C1447 1.393 . S
C1451 C1450 1.391 . S
H1452 C1460 0.950 . S
H1453 C1465 0.950 . S
H1454 C1462 0.950 1_455 S
H1455 C1464 0.950 . S
H1456 C1466 0.950 . S
H1457 C1468 0.950 . S
H1458 C1470 0.950 . S
H1459 C1471 0.950 . S
C1460 H1452 0.950 . S
C1460 C1461 1.386 1_455 S
C1460 C1462 1.391 1_455 S
C1461 C1460 1.386 1_655 S
C1461 C1465 1.393 . S
C1462 H1454 0.950 1_655 S
C1462 C1460 1.391 1_655 S
C1462 C1463 1.400 . S
C1463 C1462 1.400 . S
C1463 C1464 1.398 . S
C1463 C1469 1.491 . S
C1464 H1455 0.950 . S
C1464 C1463 1.398 . S
C1464 C1465 1.391 . S
C1465 H1453 0.950 . S
C1465 C1461 1.393 . S
C1465 C1464 1.391 . S
C1466 H1456 0.950 . S
C1466 C1467 1.386 . S
C1466 C1468 1.391 . S
C1467 C1466 1.386 . S
C1467 C1471 1.393 . S
C1468 H1457 0.950 . S
C1468 C1466 1.391 . S
C1468 C1469 1.400 . S
C1469 C1463 1.491 . S
C1469 C1468 1.400 . S
C1469 C1470 1.398 . S
C1470 H1458 0.950 . S
C1470 C1469 1.398 . S
C1470 C1471 1.391 . S
C1471 H1459 0.950 . S
C1471 C1467 1.393 . S
C1471 C1470 1.391 . S
H1472 C1480 0.950 . S
H1473 C1485 0.950 . S
H1474 C1482 0.950 . S
H1475 C1484 0.950 . S
H1476 C1486 0.950 . S
H1477 C1488 0.950 . S
H1478 C1490 0.950 . S
H1479 C1491 0.950 . S
C1480 H1472 0.950 . S
C1480 C1481 1.386 . S
C1480 C1482 1.391 . S
C1481 C1480 1.386 . S
C1481 C1485 1.393 . S
C1482 H1474 0.950 . S
C1482 C1480 1.391 . S
C1482 C1483 1.400 . S
C1483 C1482 1.400 . S
C1483 C1484 1.398 . S
C1483 C1489 1.491 . S
C1484 H1475 0.950 . S
C1484 C1483 1.398 . S
C1484 C1485 1.391 . S
C1485 H1473 0.950 . S
C1485 C1481 1.393 . S
C1485 C1484 1.391 . S
C1486 H1476 0.950 . S
C1486 C1487 1.386 . S
C1486 C1488 1.391 . S
C1487 C1486 1.386 . S
C1487 C1491 1.393 . S
C1488 H1477 0.950 . S
C1488 C1486 1.391 . S
C1488 C1489 1.400 . S
C1489 C1483 1.491 . S
C1489 C1488 1.400 . S
C1489 C1490 1.398 . S
C1490 H1478 0.950 . S
C1490 C1489 1.398 . S
C1490 C1491 1.391 . S
C1491 H1479 0.950 . S
C1491 C1487 1.393 . S
C1491 C1490 1.391 . S
H1492 C1500 0.950 . S
H1493 C1505 0.950 . S
H1494 C1502 0.950 . S
H1495 C1504 0.950 . S
H1496 C1506 0.950 . S
H1497 C1508 0.950 . S
H1498 C1510 0.950 . S
H1499 C1511 0.950 . S
C1500 H1492 0.950 . S
C1500 C1501 1.386 . S
C1500 C1502 1.391 . S
C1501 C1500 1.386 . S
C1501 C1505 1.393 . S
C1502 H1494 0.950 . S
C1502 C1500 1.391 . S
C1502 C1503 1.400 . S
C1503 C1502 1.400 . S
C1503 C1504 1.398 . S
C1503 C1509 1.491 . S
C1504 H1495 0.950 . S
C1504 C1503 1.398 . S
C1504 C1505 1.391 . S
C1505 H1493 0.950 . S
C1505 C1501 1.393 . S
C1505 C1504 1.391 . S
C1506 H1496 0.950 . S
C1506 C1507 1.386 . S
C1506 C1508 1.391 . S
C1507 C1506 1.386 . S
C1507 C1511 1.393 . S
C1508 H1497 0.950 . S
C1508 C1506 1.391 . S
C1508 C1509 1.400 . S
C1509 C1503 1.491 . S
C1509 C1508 1.400 . S
C1509 C1510 1.398 . S
C1510 H1498 0.950 . S
C1510 C1509 1.398 . S
C1510 C1511 1.391 . S
C1511 H1499 0.950 . S
C1511 C1507 1.393 . S
C1511 C1510 1.391 . S
H1512 C1520 0.950 . S
H1513 C1525 0.950 . S
H1514 C1522 0.950 . S
H1515 C1524 0.950 . S
H1516 C1526 0.950 . S
H1517 C1528 0.950 . S
H1518 C1530 0.950 . S
H1519 C1531 0.950 . S
C1520 H1512 0.950 . S
C1520 C1521 1.386 . S
C1520 C1522 1.391 . S
C1521 C1520 1.386 . S
C1521 C1525 1.393 . S
C1522 H1514 0.950 . S
C1522 C1520 1.391 . S
C1522 C1523 1.400 . S
C1523 C1522 1.400 . S
C1523 C1524 1.398 . S
C1523 C1529 1.491 . S
C1524 H1515 0.950 . S
C1524 C1523 1.398 . S
C1524 C1525 1.391 . S
C1525 H1513 0.950 . S
C1525 C1521 1.393 . S
C1525 C1524 1.391 . S
C1526 H1516 0.950 . S
C1526 C1527 1.386 . S
C1526 C1528 1.391 . S
C1527 C1526 1.386 . S
C1527 C1531 1.393 . S
C1528 H1517 0.950 . S
C1528 C1526 1.391 . S
C1528 C1529 1.400 . S
C1529 C1523 1.491 . S
C1529 C1528 1.400 . S
C1529 C1530 1.398 . S
C1530 H1518 0.950 . S
C1530 C1529 1.398 . S
C1530 C1531 1.391 . S
C1531 H1519 0.950 . S
C1531 C1527 1.393 . S
C1531 C1530 1.391 . S
H1532 C1540 0.950 . S
H1533 C1545 0.950 . S
H1534 C1542 0.950 . S
H1535 C1544 0.950 . S
H1536 C1546 0.950 . S
H1537 C1548 0.950 . S
H1538 C1550 0.950 . S
H1539 C1551 0.950 . S
C1540 H1532 0.950 . S
C1540 C1541 1.386 . S
C1540 C1542 1.391 . S
C1541 C1540 1.386 . S
C1541 C1545 1.393 . S
C1542 H1534 0.950 . S
C1542 C1540 1.391 . S
C1542 C1543 1.400 . S
C1543 C1542 1.400 . S
C1543 C1544 1.398 . S
C1543 C1549 1.491 . S
C1544 H1535 0.950 . S
C1544 C1543 1.398 . S
C1544 C1545 1.391 . S
C1545 H1533 0.950 . S
C1545 C1541 1.393 . S
C1545 C1544 1.391 . S
C1546 H1536 0.950 . S
C1546 C1547 1.386 . S
C1546 C1548 1.391 . S
C1547 C1546 1.386 . S
C1547 C1551 1.393 . S
C1548 H1537 0.950 . S
C1548 C1546 1.391 . S
C1548 C1549 1.400 . S
C1549 C1543 1.491 . S
C1549 C1548 1.400 . S
C1549 C1550 1.398 . S
C1550 H1538 0.950 . S
C1550 C1549 1.398 . S
C1550 C1551 1.391 . S
C1551 H1539 0.950 . S
C1551 C1547 1.393 . S
C1551 C1550 1.391 . S
H1552 C1560 0.950 . S
H1553 C1565 0.950 . S
H1554 C1562 0.950 . S
H1555 C1564 0.950 . S
H1556 C1566 0.950 . S
H1557 C1568 0.950 . S
H1558 C1570 0.950 . S
H1559 C1571 0.950 . S
C1560 H1552 0.950 . S
C1560 C1561 1.386 . S
C1560 C1562 1.391 . S
C1561 C1560 1.386 . S
C1561 C1565 1.393 . S
C1562 H1554 0.950 . S
C1562 C1560 1.391 . S
C1562 C1563 1.400 . S
C1563 C1562 1.400 . S
C1563 C1564 1.398 . S
C1563 C1569 1.491 . S
C1564 H1555 0.950 . S
C1564 C1563 1.398 . S
C1564 C1565 1.391 . S
C1565 H1553 0.950 . S
C1565 C1561 1.393 . S
C1565 C1564 1.391 . S
C1566 H1556 0.950 . S
C1566 C1567 1.386 . S
C1566 C1568 1.391 . S
C1567 C1566 1.386 . S
C1567 C1571 1.393 . S
C1568 H1557 0.950 . S
C1568 C1566 1.391 . S
C1568 C1569 1.400 . S
C1569 C1563 1.491 . S
C1569 C1568 1.400 . S
C1569 C1570 1.398 . S
C1570 H1558 0.950 . S
C1570 C1569 1.398 . S
C1570 C1571 1.391 . S
C1571 H1559 0.950 . S
C1571 C1567 1.393 . S
C1571 C1570 1.391 . S
H1572 C1580 0.950 . S
H1573 C1585 0.950 . S
H1574 C1582 0.950 . S
H1575 C1584 0.950 . S
H1576 C1586 0.950 . S
H1577 C1588 0.950 . S
H1578 C1590 0.950 . S
H1579 C1591 0.950 . S
C1580 H1572 0.950 . S
C1580 C1581 1.386 . S
C1580 C1582 1.391 . S
C1581 C1580 1.386 . S
C1581 C1585 1.393 . S
C1582 H1574 0.950 . S
C1582 C1580 1.391 . S
C1582 C1583 1.400 . S
C1583 C1582 1.400 . S
C1583 C1584 1.398 . S
C1583 C1589 1.491 . S
C1584 H1575 0.950 . S
C1584 C1583 1.398 . S
C1584 C1585 1.391 . S
C1585 H1573 0.950 . S
C1585 C1581 1.393 . S
C1585 C1584 1.391 . S
C1586 H1576 0.950 . S
C1586 C1587 1.386 . S
C1586 C1588 1.391 . S
C1587 C1586 1.386 . S
C1587 C1591 1.393 . S
C1588 H1577 0.950 . S
C1588 C1586 1.391 . S
C1588 C1589 1.400 . S
C1589 C1583 1.491 . S
C1589 C1588 1.400 . S
C1589 C1590 1.398 . S
C1590 H1578 0.950 . S
C1590 C1589 1.398 . S
C1590 C1591 1.391 . S
C1591 H1579 0.950 . S
C1591 C1587 1.393 . S
C1591 C1590 1.391 . S
H1592 C1600 0.950 . S
H1593 C1605 0.950 . S
H1594 C1602 0.950 . S
H1595 C1604 0.950 . S
H1596 C1606 0.950 . S
H1597 C1608 0.950 . S
H1598 C1610 0.950 . S
H1599 C1611 0.950 . S
C1600 H1592 0.950 . S
C1600 C1601 1.386 . S
C1600 C1602 1.391 . S
C1601 C1600 1.386 . S
C1601 C1605 1.393 . S
C1602 H1594 0.950 . S
C1602 C1600 1.391 . S
C1602 C1603 1.400 . S
C1603 C1602 1.400 . S
C1603 C1604 1.398 . S
C1603 C1609 1.491 . S
C1604 H1595 0.950 . S
C1604 C1603 1.398 . S
C1604 C1605 1.391 . S
C1605 H1593 0.950 . S
C1605 C1601 1.393 . S
C1605 C1604 1.391 . S
C1606 H1596 0.950 . S
C1606 C1607 1.386 . S
C1606 C1608 1.391 . S
C1607 C1606 1.386 . S
C1607 C1611 1.393 . S
C1608 H1597 0.950 . S
C1608 C1606 1.391 . S
C1608 C1609 1.400 . S
C1609 C1603 1.491 . S
C1609 C1608 1.400 . S
C1609 C1610 1.398 . S
C1610 H1598 0.950 . S
C1610 C1609 1.398 . S
C1610 C1611 1.391 . S
C1611 H1599 0.950 . S
C1611 C1607 1.393 . S
C1611 C1610 1.391 . S
H1612 C1620 0.950 . S
H1613 C1625 0.950 . S
H1614 C1622 0.950 . S
H1615 C1624 0.950 . S
H1616 C1626 0.950 . S
H1617 C1628 0.950 . S
H1618 C1630 0.950 . S
H1619 C1631 0.950 . S
C1620 H1612 0.950 . S
C1620 C1621 1.386 . S
C1620 C1622 1.391 . S
C1621 C1620 1.386 . S
C1621 C1625 1.393 . S
C1622 H1614 0.950 . S
C1622 C1620 1.391 . S
C1622 C1623 1.400 . S
C1623 C1622 1.400 . S
C1623 C1624 1.398 . S
C1623 C1629 1.491 . S
C1624 H1615 0.950 . S
C1624 C1623 1.398 . S
C1624 C1625 1.391 . S
C1625 H1613 0.950 . S
C1625 C1621 1.393 . S
C1625 C1624 1.391 . S
C1626 H1616 0.950 . S
C1626 C1627 1.386 . S
C1626 C1628 1.391 . S
C1627 C1626 1.386 . S
C1627 C1631 1.393 . S
C1628 H1617 0.950 . S
C1628 C1626 1.391 . S
C1628 C1629 1.400 . S
C1629 C1623 1.491 . S
C1629 C1628 1.400 . S
C1629 C1630 1.398 . S
C1630 H1618 0.950 . S
C1630 C1629 1.398 . S
C1630 C1631 1.391 . S
C1631 H1619 0.950 . S
C1631 C1627 1.393 . S
C1631 C1630 1.391 . S
H1632 C1640 0.950 . S
H1633 C1645 0.950 . S
H1634 C1642 0.950 . S
H1635 C1644 0.950 . S
H1636 C1646 0.950 . S
H1637 C1648 0.950 . S
H1638 C1650 0.950 . S
H1639 C1651 0.950 . S
C1640 H1632 0.950 . S
C1640 C1641 1.386 . S
C1640 C1642 1.391 . S
C1641 C1640 1.386 . S
C1641 C1645 1.393 . S
C1642 H1634 0.950 . S
C1642 C1640 1.391 . S
C1642 C1643 1.400 . S
C1643 C1642 1.400 . S
C1643 C1644 1.398 . S
C1643 C1649 1.491 . S
C1644 H1635 0.950 . S
C1644 C1643 1.398 . S
C1644 C1645 1.391 . S
C1645 H1633 0.950 . S
C1645 C1641 1.393 . S
C1645 C1644 1.391 . S
C1646 H1636 0.950 . S
C1646 C1647 1.386 . S
C1646 C1648 1.391 . S
C1647 C1646 1.386 . S
C1647 C1651 1.393 . S
C1648 H1637 0.950 . S
C1648 C1646 1.391 . S
C1648 C1649 1.400 . S
C1649 C1643 1.491 . S
C1649 C1648 1.400 . S
C1649 C1650 1.398 . S
C1650 H1638 0.950 . S
C1650 C1649 1.398 . S
C1650 C1651 1.391 . S
C1651 H1639 0.950 . S
C1651 C1647 1.393 . S
C1651 C1650 1.391 . S
H1652 C1660 0.950 . S
H1653 C1665 0.950 . S
H1654 C1662 0.950 . S
H1655 C1664 0.950 . S
H1656 C1666 0.950 . S
H1657 C1668 0.950 . S
H1658 C1670 0.950 . S
H1659 C1671 0.950 . S
C1660 H1652 0.950 . S
C1660 C1661 1.386 . S
C1660 C1662 1.391 . S
C1661 C1660 1.386 . S
C1661 C1665 1.393 . S
C1662 H1654 0.950 . S
C1662 C1660 1.391 . S
C1662 C1663 1.400 . S
C1663 C1662 1.400 . S
C1663 C1664 1.398 . S
C1663 C1669 1.491 . S
C1664 H1655 0.950 . S
C1664 C1663 1.398 . S
C1664 C1665 1.391 . S
C1665 H1653 0.950 . S
C1665 C1661 1.393 . S
C1665 C1664 1.391 . S
C1666 H1656 0.950 . S
C1666 C1667 1.386 . S
C1666 C1668 1.391 . S
C1667 C1666 1.386 . S
C1667 C1671 1.393 . S
C1668 H1657 0.950 . S
C1668 C1666 1.391 . S
C1668 C1669 1.400 . S
C1669 C1663 1.491 . S
C1669 C1668 1.400 . S
C1669 C1670 1.398 . S
C1670 H1658 0.950 . S
C1670 C1669 1.398 . S
C1670 C1671 1.391 . S
C1671 H1659 0.950 . S
C1671 C1667 1.393 . S
C1671 C1670 1.391 . S
H1672 C1680 0.950 . S
H1673 C1685 0.950 . S
H1674 C1682 0.950 . S
H1675 C1684 0.950 . S
H1676 C1686 0.950 . S
H1677 C1688 0.950 . S
H1678 C1690 0.950 . S
H1679 C1691 0.950 . S
C1680 H1672 0.950 . S
C1680 C1681 1.386 . S
C1680 C1682 1.391 . S
C1681 C1680 1.386 . S
C1681 C1685 1.393 . S
C1682 H1674 0.950 . S
C1682 C1680 1.391 . S
C1682 C1683 1.400 . S
C1683 C1682 1.400 . S
C1683 C1684 1.398 . S
C1683 C1689 1.491 . S
C1684 H1675 0.950 . S
C1684 C1683 1.398 . S
C1684 C1685 1.391 . S
C1685 H1673 0.950 . S
C1685 C1681 1.393 . S
C1685 C1684 1.391 . S
C1686 H1676 0.950 . S
C1686 C1687 1.386 . S
C1686 C1688 1.391 . S
C1687 C1686 1.386 . S
C1687 C1691 1.393 . S
C1688 H1677 0.950 . S
C1688 C1686 1.391 . S
C1688 C1689 1.400 . S
C1689 C1683 1.491 . S
C1689 C1688 1.400 . S
C1689 C1690 1.398 . S
C1690 H1678 0.950 . S
C1690 C1689 1.398 . S
C1690 C1691 1.391 . S
C1691 H1679 0.950 . S
C1691 C1687 1.393 . S
C1691 C1690 1.391 . S
H1692 C1700 0.950 . S
H1693 C1705 0.950 . S
H1694 C1702 0.950 . S
H1695 C1704 0.950 . S
H1696 C1706 0.950 . S
H1697 C1708 0.950 . S
H1698 C1710 0.950 . S
H1699 C1711 0.950 . S
C1700 H1692 0.950 . S
C1700 C1701 1.386 . S
C1700 C1702 1.391 . S
C1701 C1700 1.386 . S
C1701 C1705 1.393 . S
C1702 H1694 0.950 . S
C1702 C1700 1.391 . S
C1702 C1703 1.400 . S
C1703 C1702 1.400 . S
C1703 C1704 1.398 . S
C1703 C1709 1.491 . S
C1704 H1695 0.950 . S
C1704 C1703 1.398 . S
C1704 C1705 1.391 . S
C1705 H1693 0.950 . S
C1705 C1701 1.393 . S
C1705 C1704 1.391 . S
C1706 H1696 0.950 . S
C1706 C1707 1.386 . S
C1706 C1708 1.391 . S
C1707 C1706 1.386 . S
C1707 C1711 1.393 . S
C1708 H1697 0.950 . S
C1708 C1706 1.391 . S
C1708 C1709 1.400 . S
C1709 C1703 1.491 . S
C1709 C1708 1.400 . S
C1709 C1710 1.398 . S
C1710 H1698 0.950 . S
C1710 C1709 1.398 . S
C1710 C1711 1.391 . S
C1711 H1699 0.950 . S
C1711 C1707 1.393 . S
C1711 C1710 1.391 . S
H1712 C1720 0.950 . S
H1713 C1725 0.950 . S
H1714 C1722 0.950 . S
H1715 C1724 0.950 . S
H1716 C1726 0.950 . S
H1717 C1728 0.950 . S
H1718 C1730 0.950 . S
H1719 C1731 0.950 . S
C1720 H1712 0.950 . S
C1720 C1721 1.386 . S
C1720 C1722 1.391 . S
C1721 C1720 1.386 . S
C1721 C1725 1.393 . S
C1722 H1714 0.950 . S
C1722 C1720 1.391 . S
C1722 C1723 1.400 . S
C1723 C1722 1.400 . S
C1723 C1724 1.398 . S
C1723 C1729 1.491 . S
C1724 H1715 0.950 . S
C1724 C1723 1.398 . S
C1724 C1725 1.391 . S
C1725 H1713 0.950 . S
C1725 C1721 1.393 . S
C1725 C1724 1.391 . S
C1726 H1716 0.950 . S
C1726 C1727 1.386 . S
C1726 C1728 1.391 . S
C1727 C1726 1.386 . S
C1727 C1731 1.393 . S
C1728 H1717 0.950 . S
C1728 C1726 1.391 . S
C1728 C1729 1.400 . S
C1729 C1723 1.491 . S
C1729 C1728 1.400 . S
C1729 C1730 1.398 . S
C1730 H1718 0.950 . S
C1730 C1729 1.398 . S
C1730 C1731 1.391 . S
C1731 H1719 0.950 . S
C1731 C1727 1.393 . S
C1731 C1730 1.391 . S
H1732 C1740 0.950 . S
H1733 C1745 0.950 . S
H1734 C1742 0.950 . S
H1735 C1744 0.950 . S
H1736 C1746 0.950 . S
H1737 C1748 0.950 . S
H1738 C1750 0.950 . S
H1739 C1751 0.950 . S
C1740 H1732 0.950 . S
C1740 C1741 1.386 . S
C1740 C1742 1.391 . S
C1741 C1740 1.386 . S
C1741 C1745 1.393 . S
C1742 H1734 0.950 . S
C1742 C1740 1.391 . S
C1742 C1743 1.400 . S
C1743 C1742 1.400 . S
C1743 C1744 1.398 . S
C1743 C1749 1.491 . S
C1744 H1735 0.950 . S
C1744 C1743 1.398 . S
C1744 C1745 1.391 . S
C1745 H1733 0.950 . S
C1745 C1741 1.393 . S
C1745 C1744 1.391 . S
C1746 H1736 0.950 . S
C1746 C1747 1.386 . S
C1746 C1748 1.391 . S
C1747 C1746 1.386 . S
C1747 C1751 1.393 . S
C1748 H1737 0.950 . S
C1748 C1746 1.391 . S
C1748 C1749 1.400 . S
C1749 C1743 1.491 . S
C1749 C1748 1.400 . S
C1749 C1750 1.398 . S
C1750 H1738 0.950 . S
C1750 C1749 1.398 . S
C1750 C1751 1.391 . S
C1751 H1739 0.950 . S
C1751 C1747 1.393 . S
C1751 C1750 1.391 . S
H1752 C1760 0.950 . S
H1753 C1765 0.950 . S
H1754 C1762 0.950 . S
H1755 C1764 0.950 . S
H1756 C1766 0.950 . S
H1757 C1768 0.950 . S
H1758 C1770 0.950 . S
H1759 C1771 0.950 . S
C1760 H1752 0.950 . S
C1760 C1761 1.386 . S
C1760 C1762 1.391 . S
C1761 C1760 1.386 . S
C1761 C1765 1.393 . S
C1762 H1754 0.950 . S
C1762 C1760 1.391 . S
C1762 C1763 1.400 . S
C1763 C1762 1.400 . S
C1763 C1764 1.398 . S
C1763 C1769 1.491 . S
C1764 H1755 0.950 . S
C1764 C1763 1.398 . S
C1764 C1765 1.391 . S
C1765 H1753 0.950 . S
C1765 C1761 1.393 . S
C1765 C1764 1.391 . S
C1766 H1756 0.950 . S
C1766 C1767 1.386 . S
C1766 C1768 1.391 . S
C1767 C1766 1.386 . S
C1767 C1771 1.393 . S
C1768 H1757 0.950 . S
C1768 C1766 1.391 . S
C1768 C1769 1.400 . S
C1769 C1763 1.491 . S
C1769 C1768 1.400 . S
C1769 C1770 1.398 . S
C1770 H1758 0.950 . S
C1770 C1769 1.398 . S
C1770 C1771 1.391 . S
C1771 H1759 0.950 . S
C1771 C1767 1.393 . S
C1771 C1770 1.391 . S
H1772 C1780 0.950 . S
H1773 C1785 0.950 . S
H1774 C1782 0.950 . S
H1775 C1784 0.950 . S
H1776 C1786 0.950 . S
H1777 C1788 0.950 . S
H1778 C1790 0.950 . S
H1779 C1791 0.950 . S
C1780 H1772 0.950 . S
C1780 C1781 1.386 . S
C1780 C1782 1.391 . S
C1781 C1780 1.386 . S
C1781 C1785 1.393 . S
C1782 H1774 0.950 . S
C1782 C1780 1.391 . S
C1782 C1783 1.400 . S
C1783 C1782 1.400 . S
C1783 C1784 1.398 . S
C1783 C1789 1.491 . S
C1784 H1775 0.950 . S
C1784 C1783 1.398 . S
C1784 C1785 1.391 . S
C1785 H1773 0.950 . S
C1785 C1781 1.393 . S
C1785 C1784 1.391 . S
C1786 H1776 0.950 . S
C1786 C1787 1.386 . S
C1786 C1788 1.391 . S
C1787 C1786 1.386 . S
C1787 C1791 1.393 . S
C1788 H1777 0.950 . S
C1788 C1786 1.391 . S
C1788 C1789 1.400 . S
C1789 C1783 1.491 . S
C1789 C1788 1.400 . S
C1789 C1790 1.398 . S
C1790 H1778 0.950 . S
C1790 C1789 1.398 . S
C1790 C1791 1.391 . S
C1791 H1779 0.950 . S
C1791 C1787 1.393 . S
C1791 C1790 1.391 . S
H1792 C1800 0.950 . S
H1793 C1805 0.950 . S
H1794 C1802 0.950 . S
H1795 C1804 0.950 . S
H1796 C1806 0.950 . S
H1797 C1808 0.950 . S
H1798 C1810 0.950 . S
H1799 C1811 0.950 . S
C1800 H1792 0.950 . S
C1800 C1801 1.386 . S
C1800 C1802 1.391 . S
C1801 C1800 1.386 . S
C1801 C1805 1.393 . S
C1802 H1794 0.950 . S
C1802 C1800 1.391 . S
C1802 C1803 1.400 . S
C1803 C1802 1.400 . S
C1803 C1804 1.398 . S
C1803 C1809 1.491 . S
C1804 H1795 0.950 . S
C1804 C1803 1.398 . S
C1804 C1805 1.391 . S
C1805 H1793 0.950 . S
C1805 C1801 1.393 . S
C1805 C1804 1.391 . S
C1806 H1796 0.950 . S
C1806 C1807 1.386 . S
C1806 C1808 1.391 . S
C1807 C1806 1.386 . S
C1807 C1811 1.393 . S
C1808 H1797 0.950 . S
C1808 C1806 1.391 . S
C1808 C1809 1.400 . S
C1809 C1803 1.491 . S
C1809 C1808 1.400 . S
C1809 C1810 1.398 . S
C1810 H1798 0.950 . S
C1810 C1809 1.398 . S
C1810 C1811 1.391 . S
C1811 H1799 0.950 . S
C1811 C1807 1.393 . S
C1811 C1810 1.391 . S
H1812 C1820 0.950 . S
H1813 C1825 0.950 . S
H1814 C1822 0.950 . S
H1815 C1824 0.950 . S
H1816 C1826 0.950 . S
H1817 C1828 0.950 . S
H1818 C1830 0.950 . S
H1819 C1831 0.950 . S
C1820 H1812 0.950 . S
C1820 C1821 1.386 . S
C1820 C1822 1.391 . S
C1821 C1820 1.386 . S
C1821 C1825 1.393 . S
C1822 H1814 0.950 . S
C1822 C1820 1.391 . S
C1822 C1823 1.400 . S
C1823 C1822 1.400 . S
C1823 C1824 1.398 . S
C1823 C1829 1.491 . S
C1824 H1815 0.950 . S
C1824 C1823 1.398 . S
C1824 C1825 1.391 . S
C1825 H1813 0.950 . S
C1825 C1821 1.393 . S
C1825 C1824 1.391 . S
C1826 H1816 0.950 . S
C1826 C1827 1.386 . S
C1826 C1828 1.391 . S
C1827 C1826 1.386 . S
C1827 C1831 1.393 . S
C1828 H1817 0.950 . S
C1828 C1826 1.391 . S
C1828 C1829 1.400 . S
C1829 C1823 1.491 . S
C1829 C1828 1.400 . S
C1829 C1830 1.398 . S
C1830 H1818 0.950 . S
C1830 C1829 1.398 . S
C1830 C1831 1.391 . S
C1831 H1819 0.950 . S
C1831 C1827 1.393 . S
C1831 C1830 1.391 . S
H1832 C1840 0.950 . S
H1833 C1845 0.950 . S
H1834 C1842 0.950 . S
H1835 C1844 0.950 . S
H1836 C1846 0.950 . S
H1837 C1848 0.950 . S
H1838 C1850 0.950 . S
H1839 C1851 0.950 . S
C1840 H1832 0.950 . S
C1840 C1841 1.386 . S
C1840 C1842 1.391 . S
C1841 C1840 1.386 . S
C1841 C1845 1.393 . S
C1842 H1834 0.950 . S
C1842 C1840 1.391 . S
C1842 C1843 1.400 . S
C1843 C1842 1.400 . S
C1843 C1844 1.398 . S
C1843 C1849 1.491 . S
C1844 H1835 0.950 . S
C1844 C1843 1.398 . S
C1844 C1845 1.391 . S
C1845 H1833 0.950 . S
C1845 C1841 1.393 . S
C1845 C1844 1.391 . S
C1846 H1836 0.950 . S
C1846 C1847 1.386 . S
C1846 C1848 1.391 . S
C1847 C1846 1.386 . S
C1847 C1851 1.393 . S
C1848 H1837 0.950 . S
C1848 C1846 1.391 . S
C1848 C1849 1.400 . S
C1849 C1843 1.491 . S
C1849 C1848 1.400 . S
C1849 C1850 1.398 . S
C1850 H1838 0.950 . S
C1850 C1849 1.398 . S
C1850 C1851 1.391 . S
C1851 H1839 0.950 . S
C1851 C1847 1.393 . S
C1851 C1850 1.391 . S
H1852 C1860 0.946 1_545 S
H1853 C1865 0.950 . S
H1854 C1862 0.950 . S
H1855 C1864 0.950 . S
H1856 C1866 0.950 . S
H1857 C1868 0.950 . S
H1858 C1870 0.950 . S
H1859 C1871 0.950 . S
C1860 H1852 0.946 1_565 S
C1860 C1861 1.390 . S
C1860 C1862 1.391 1_565 S
C1861 C1860 1.390 . S
C1861 C1865 1.393 . S
C1862 H1854 0.950 . S
C1862 C1860 1.391 1_545 S
C1862 C1863 1.400 1_545 S
C1863 C1862 1.400 1_565 S
C1863 C1864 1.398 . S
C1863 C1869 1.491 . S
C1864 H1855 0.950 . S
C1864 C1863 1.398 . S
C1864 C1865 1.391 . S
C1865 H1853 0.950 . S
C1865 C1861 1.393 . S
C1865 C1864 1.391 . S
C1866 H1856 0.950 . S
C1866 C1867 1.386 . S
C1866 C1868 1.391 . S
C1867 C1866 1.386 . S
C1867 C1871 1.393 1_565 S
C1868 H1857 0.950 . S
C1868 C1866 1.391 . S
C1868 C1869 1.400 . S
C1869 C1863 1.491 . S
C1869 C1868 1.400 . S
C1869 C1870 1.398 1_565 S
C1870 H1858 0.950 . S
C1870 C1869 1.398 1_545 S
C1870 C1871 1.391 . S
C1871 H1859 0.950 . S
C1871 C1867 1.393 1_545 S
C1871 C1870 1.391 . S
H1872 C1880 0.950 . S
H1873 C1885 0.950 1_565 S
H1874 C1882 0.950 . S
H1875 C1884 0.981 . S
H1876 C1886 0.950 . S
H1877 C1888 0.950 . S
H1878 C1890 0.950 . S
H1879 C1891 0.950 . S
C1880 H1872 0.950 . S
C1880 C1881 1.386 . S
C1880 C1882 1.391 . S
C1881 C1880 1.386 . S
C1881 C1885 1.393 . S
C1882 H1874 0.950 . S
C1882 C1880 1.391 . S
C1882 C1883 1.400 . S
C1883 C1882 1.400 . S
C1883 C1884 1.371 1_545 S
C1883 C1889 1.491 . S
C1884 H1875 0.981 . S
C1884 C1883 1.371 1_565 S
C1884 C1885 1.388 1_565 S
C1885 H1873 0.950 1_545 S
C1885 C1881 1.393 . S
C1885 C1884 1.388 1_545 S
C1886 H1876 0.950 . S
C1886 C1887 1.386 1_565 S
C1886 C1888 1.391 . S
C1887 C1886 1.386 1_545 S
C1887 C1891 1.393 . S
C1888 H1877 0.950 . S
C1888 C1886 1.391 . S
C1888 C1889 1.400 1_565 S
C1889 C1883 1.491 . S
C1889 C1888 1.400 1_545 S
C1889 C1890 1.398 . S
C1890 H1878 0.950 . S
C1890 C1889 1.398 . S
C1890 C1891 1.391 . S
C1891 H1879 0.950 . S
C1891 C1887 1.393 . S
C1891 C1890 1.391 . S
H1892 C1900 0.950 . S
H1893 C1905 0.950 . S
H1894 C1902 0.950 . S
H1895 C1904 0.950 . S
H1896 C1906 0.950 . S
H1897 C1908 0.950 . S
H1898 C1910 0.950 . S
H1899 C1911 0.950 . S
C1900 H1892 0.950 . S
C1900 C1901 1.386 . S
C1900 C1902 1.391 . S
C1901 C1900 1.386 . S
C1901 C1905 1.393 . S
C1902 H1894 0.950 . S
C1902 C1900 1.391 . S
C1902 C1903 1.400 . S
C1903 C1902 1.400 . S
C1903 C1904 1.398 . S
C1903 C1909 1.491 . S
C1904 H1895 0.950 . S
C1904 C1903 1.398 . S
C1904 C1905 1.391 . S
C1905 H1893 0.950 . S
C1905 C1901 1.393 . S
C1905 C1904 1.391 . S
C1906 H1896 0.950 . S
C1906 C1907 1.386 . S
C1906 C1908 1.391 . S
C1907 C1906 1.386 . S
C1907 C1911 1.393 . S
C1908 H1897 0.950 . S
C1908 C1906 1.391 . S
C1908 C1909 1.400 . S
C1909 C1903 1.491 . S
C1909 C1908 1.400 . S
C1909 C1910 1.398 . S
C1910 H1898 0.950 . S
C1910 C1909 1.398 . S
C1910 C1911 1.391 . S
C1911 H1899 0.950 . S
C1911 C1907 1.393 . S
C1911 C1910 1.391 . S
H1912 C1920 0.950 . S
H1913 C1925 0.950 . S
H1914 C1922 0.950 . S
H1915 C1924 0.950 . S
H1916 C1926 0.950 . S
H1917 C1928 0.950 . S
H1918 C1930 0.950 . S
H1919 C1931 0.950 . S
C1920 H1912 0.950 . S
C1920 C1921 1.386 . S
C1920 C1922 1.391 . S
C1921 C1920 1.386 . S
C1921 C1925 1.393 . S
C1922 H1914 0.950 . S
C1922 C1920 1.391 . S
C1922 C1923 1.400 . S
C1923 C1922 1.400 . S
C1923 C1924 1.398 . S
C1923 C1929 1.491 . S
C1924 H1915 0.950 . S
C1924 C1923 1.398 . S
C1924 C1925 1.391 . S
C1925 H1913 0.950 . S
C1925 C1921 1.393 . S
C1925 C1924 1.391 . S
C1926 H1916 0.950 . S
C1926 C1927 1.386 . S
C1926 C1928 1.391 . S
C1927 C1926 1.386 . S
C1927 C1931 1.393 . S
C1928 H1917 0.950 . S
C1928 C1926 1.391 . S
C1928 C1929 1.400 . S
C1929 C1923 1.491 . S
C1929 C1928 1.400 . S
C1929 C1930 1.398 . S
C1930 H1918 0.950 . S
C1930 C1929 1.398 . S
C1930 C1931 1.391 . S
C1931 H1919 0.950 . S
C1931 C1927 1.393 . S
C1931 C1930 1.391 . S
H1932 C1940 0.950 1_565 S
H1933 C1945 0.950 . S
H1934 C1942 0.958 . S
H1935 C1944 0.950 . S
H1936 C1946 0.950 . S
H1937 C1948 0.950 . S
H1938 C1950 0.950 . S
H1939 C1951 0.950 . S
C1940 H1932 0.950 1_545 S
C1940 C1941 1.386 . S
C1940 C1942 1.390 1_545 S
C1941 C1940 1.386 . S
C1941 C1945 1.393 . S
C1942 H1934 0.958 . S
C1942 C1940 1.390 1_565 S
C1942 C1943 1.393 1_565 S
C1943 C1942 1.393 1_545 S
C1943 C1944 1.398 . S
C1943 C1949 1.491 . S
C1944 H1935 0.950 . S
C1944 C1943 1.398 . S
C1944 C1945 1.391 . S
C1945 H1933 0.950 . S
C1945 C1941 1.393 . S
C1945 C1944 1.391 . S
C1946 H1936 0.950 . S
C1946 C1947 1.386 . S
C1946 C1948 1.391 . S
C1947 C1946 1.386 . S
C1947 C1951 1.393 1_545 S
C1948 H1937 0.950 . S
C1948 C1946 1.391 . S
C1948 C1949 1.400 . S
C1949 C1943 1.491 . S
C1949 C1948 1.400 . S
C1949 C1950 1.398 1_545 S
C1950 H1938 0.950 . S
C1950 C1949 1.398 1_565 S
C1950 C1951 1.391 . S
C1951 H1939 0.950 . S
C1951 C1947 1.393 1_565 S
C1951 C1950 1.391 . S
H1952 C1960 0.950 . S
H1953 C1965 0.950 . S
H1954 C1962 0.950 . S
H1955 C1964 0.950 . S
H1956 C1966 0.950 . S
H1957 C1968 0.950 . S
H1958 C1970 0.950 . S
H1959 C1971 0.950 . S
C1960 H1952 0.950 . S
C1960 C1961 1.386 . S
C1960 C1962 1.391 . S
C1961 C1960 1.386 . S
C1961 C1965 1.393 . S
C1962 H1954 0.950 . S
C1962 C1960 1.391 . S
C1962 C1963 1.400 . S
C1963 C1962 1.400 . S
C1963 C1964 1.398 . S
C1963 C1969 1.491 1_455 S
C1964 H1955 0.950 . S
C1964 C1963 1.398 . S
C1964 C1965 1.391 . S
C1965 H1953 0.950 . S
C1965 C1961 1.393 . S
C1965 C1964 1.391 . S
C1966 H1956 0.950 . S
C1966 C1967 1.386 . S
C1966 C1968 1.391 . S
C1967 C1966 1.386 . S
C1967 C1971 1.393 . S
C1968 H1957 0.950 . S
C1968 C1966 1.391 . S
C1968 C1969 1.400 . S
C1969 C1963 1.491 1_655 S
C1969 C1968 1.400 . S
C1969 C1970 1.398 . S
C1970 H1958 0.950 . S
C1970 C1969 1.398 . S
C1970 C1971 1.391 . S
C1971 H1959 0.950 . S
C1971 C1967 1.393 . S
C1971 C1970 1.391 . S
H1972 C1980 0.950 . S
H1973 C1985 0.950 . S
H1974 C1982 0.950 . S
H1975 C1984 0.950 . S
H1976 C1986 0.950 1_655 S
H1977 C1988 0.950 . S
H1978 C1990 0.950 . S
H1979 C1991 0.950 . S
C1980 H1972 0.950 . S
C1980 C1981 1.386 . S
C1980 C1982 1.391 . S
C1981 C1980 1.386 . S
C1981 C1985 1.393 . S
C1982 H1974 0.950 . S
C1982 C1980 1.391 . S
C1982 C1983 1.400 . S
C1983 C1982 1.400 . S
C1983 C1984 1.398 . S
C1983 C1989 1.491 . S
C1984 H1975 0.950 . S
C1984 C1983 1.398 . S
C1984 C1985 1.391 . S
C1985 H1973 0.950 . S
C1985 C1981 1.393 . S
C1985 C1984 1.391 . S
C1986 H1976 0.950 1_455 S
C1986 C1987 1.386 1_455 S
C1986 C1988 1.391 . S
C1987 C1986 1.386 1_655 S
C1987 C1991 1.393 1_655 S
C1988 H1977 0.950 . S
C1988 C1986 1.391 . S
C1988 C1989 1.400 . S
C1989 C1983 1.491 . S
C1989 C1988 1.400 . S
C1989 C1990 1.398 . S
C1990 H1978 0.950 . S
C1990 C1989 1.398 . S
C1990 C1991 1.391 . S
C1991 H1979 0.950 . S
C1991 C1987 1.393 1_455 S
C1991 C1990 1.391 . S
H1992 C2000 0.950 . S
H1993 C2005 0.950 . S
H1994 C2002 0.950 . S
H1995 C2004 0.950 . S
H1996 C2006 0.950 . S
H1997 C2008 0.950 . S
H1998 C2010 0.950 . S
H1999 C2011 0.950 . S
C2000 H1992 0.950 . S
C2000 C2001 1.386 . S
C2000 C2002 1.391 . S
C2001 C2000 1.386 . S
C2001 C2005 1.393 . S
C2002 H1994 0.950 . S
C2002 C2000 1.391 . S
C2002 C2003 1.400 . S
C2003 C2002 1.400 . S
C2003 C2004 1.398 . S
C2003 C2009 1.491 1_655 S
C2004 H1995 0.950 . S
C2004 C2003 1.398 . S
C2004 C2005 1.391 . S
C2005 H1993 0.950 . S
C2005 C2001 1.393 . S
C2005 C2004 1.391 . S
C2006 H1996 0.950 . S
C2006 C2007 1.386 . S
C2006 C2008 1.391 . S
C2007 C2006 1.386 . S
C2007 C2011 1.393 . S
C2008 H1997 0.950 . S
C2008 C2006 1.391 . S
C2008 C2009 1.400 . S
C2009 C2003 1.491 1_455 S
C2009 C2008 1.400 . S
C2009 C2010 1.398 . S
C2010 H1998 0.950 . S
C2010 C2009 1.398 . S
C2010 C2011 1.391 . S
C2011 H1999 0.950 . S
C2011 C2007 1.393 . S
C2011 C2010 1.391 . S
H2012 C2020 0.950 1_655 S
H2013 C2025 0.950 . S
H2014 C2022 0.950 . S
H2015 C2024 0.950 . S
H2016 C2026 0.950 . S
H2017 C2028 0.950 . S
H2018 C2030 0.950 . S
H2019 C2031 0.950 . S
C2020 H2012 0.950 1_455 S
C2020 C2021 1.386 1_455 S
C2020 C2022 1.391 . S
C2021 C2020 1.386 1_655 S
C2021 C2025 1.393 1_655 S
C2022 H2014 0.950 . S
C2022 C2020 1.391 . S
C2022 C2023 1.400 . S
C2023 C2022 1.400 . S
C2023 C2024 1.398 . S
C2023 C2029 1.491 . S
C2024 H2015 0.950 . S
C2024 C2023 1.398 . S
C2024 C2025 1.391 . S
C2025 H2013 0.950 . S
C2025 C2021 1.393 1_455 S
C2025 C2024 1.391 . S
C2026 H2016 0.950 . S
C2026 C2027 1.386 . S
C2026 C2028 1.391 . S
C2027 C2026 1.386 . S
C2027 C2031 1.393 . S
C2028 H2017 0.950 . S
C2028 C2026 1.391 . S
C2028 C2029 1.400 . S
C2029 C2023 1.491 . S
C2029 C2028 1.400 . S
C2029 C2030 1.398 . S
C2030 H2018 0.950 . S
C2030 C2029 1.398 . S
C2030 C2031 1.391 . S
C2031 H2019 0.950 . S
C2031 C2027 1.393 . S
C2031 C2030 1.391 . S
H2032 C2040 0.950 . S
H2033 C2045 0.950 . S
H2034 C2042 0.950 . S
H2035 C2044 0.950 . S
H2036 C2046 0.950 . S
H2037 C2048 0.950 . S
H2038 C2050 0.950 . S
H2039 C2051 0.950 . S
C2040 H2032 0.950 . S
C2040 C2041 1.386 . S
C2040 C2042 1.391 . S
C2041 C2040 1.386 . S
C2041 C2045 1.393 . S
C2042 H2034 0.950 . S
C2042 C2040 1.391 . S
C2042 C2043 1.400 . S
C2043 C2042 1.400 . S
C2043 C2044 1.398 . S
C2043 C2049 1.491 1_655 S
C2044 H2035 0.950 . S
C2044 C2043 1.398 . S
C2044 C2045 1.391 . S
C2045 H2033 0.950 . S
C2045 C2041 1.393 . S
C2045 C2044 1.391 . S
C2046 H2036 0.950 . S
C2046 C2047 1.386 . S
C2046 C2048 1.391 . S
C2047 C2046 1.386 . S
C2047 C2051 1.393 . S
C2048 H2037 0.950 . S
C2048 C2046 1.391 . S
C2048 C2049 1.400 . S
C2049 C2043 1.491 1_455 S
C2049 C2048 1.400 . S
C2049 C2050 1.398 . S
C2050 H2038 0.950 . S
C2050 C2049 1.398 . S
C2050 C2051 1.391 . S
C2051 H2039 0.950 . S
C2051 C2047 1.393 . S
C2051 C2050 1.391 . S
H2052 C2060 0.950 . S
H2053 C2065 0.950 . S
H2054 C2062 0.950 . S
H2055 C2064 0.950 . S
H2056 C2066 0.950 . S
H2057 C2068 0.950 . S
H2058 C2070 0.950 . S
H2059 C2071 0.950 . S
C2060 H2052 0.950 . S
C2060 C2061 1.386 1_655 S
C2060 C2062 1.391 . S
C2061 C2060 1.386 1_455 S
C2061 C2065 1.393 1_455 S
C2062 H2054 0.950 . S
C2062 C2060 1.391 . S
C2062 C2063 1.400 . S
C2063 C2062 1.400 . S
C2063 C2064 1.398 . S
C2063 C2069 1.491 . S
C2064 H2055 0.950 . S
C2064 C2063 1.398 . S
C2064 C2065 1.391 . S
C2065 H2053 0.950 . S
C2065 C2061 1.393 1_655 S
C2065 C2064 1.391 . S
C2066 H2056 0.950 . S
C2066 C2067 1.386 . S
C2066 C2068 1.391 . S
C2067 C2066 1.386 . S
C2067 C2071 1.393 . S
C2068 H2057 0.950 . S
C2068 C2066 1.391 . S
C2068 C2069 1.400 . S
C2069 C2063 1.491 . S
C2069 C2068 1.400 . S
C2069 C2070 1.398 . S
C2070 H2058 0.950 . S
C2070 C2069 1.398 . S
C2070 C2071 1.391 . S
C2071 H2059 0.950 . S
C2071 C2067 1.393 . S
C2071 C2070 1.391 . S
H2072 C2080 0.950 . S
H2073 C2085 0.950 . S
H2074 C2082 0.950 . S
H2075 C2084 0.950 . S
H2076 C2086 0.950 . S
H2077 C2088 0.950 . S
H2078 C2090 0.950 . S
H2079 C2091 0.950 . S
C2080 H2072 0.950 . S
C2080 C2081 1.386 . S
C2080 C2082 1.391 . S
C2081 C2080 1.386 . S
C2081 C2085 1.393 . S
C2082 H2074 0.950 . S
C2082 C2080 1.391 . S
C2082 C2083 1.400 . S
C2083 C2082 1.400 . S
C2083 C2084 1.398 . S
C2083 C2089 1.491 1_455 S
C2084 H2075 0.950 . S
C2084 C2083 1.398 . S
C2084 C2085 1.391 . S
C2085 H2073 0.950 . S
C2085 C2081 1.393 . S
C2085 C2084 1.391 . S
C2086 H2076 0.950 . S
C2086 C2087 1.386 . S
C2086 C2088 1.391 . S
C2087 C2086 1.386 . S
C2087 C2091 1.393 . S
C2088 H2077 0.950 . S
C2088 C2086 1.391 . S
C2088 C2089 1.400 . S
C2089 C2083 1.491 1_655 S
C2089 C2088 1.400 . S
C2089 C2090 1.398 . S
C2090 H2078 0.950 . S
C2090 C2089 1.398 . S
C2090 C2091 1.391 . S
C2091 H2079 0.950 . S
C2091 C2087 1.393 . S
C2091 C2090 1.391 . S
H2092 C2100 0.950 1_455 S
H2093 C2105 0.950 . S
H2094 C2102 0.950 . S
H2095 C2104 0.950 . S
H2096 C2106 0.950 . S
H2097 C2108 0.950 . S
H2098 C2110 0.950 . S
H2099 C2111 0.950 . S
C2100 H2092 0.950 1_655 S
C2100 C2101 1.386 1_655 S
C2100 C2102 1.391 . S
C2101 C2100 1.386 1_455 S
C2101 C2105 1.393 1_455 S
C2102 H2094 0.950 . S
C2102 C2100 1.391 . S
C2102 C2103 1.400 . S
C2103 C2102 1.400 . S
C2103 C2104 1.398 . S
C2103 C2109 1.491 . S
C2104 H2095 0.950 . S
C2104 C2103 1.398 . S
C2104 C2105 1.391 . S
C2105 H2093 0.950 . S
C2105 C2101 1.393 1_655 S
C2105 C2104 1.391 . S
C2106 H2096 0.950 . S
C2106 C2107 1.386 . S
C2106 C2108 1.391 . S
C2107 C2106 1.386 . S
C2107 C2111 1.393 . S
C2108 H2097 0.950 . S
C2108 C2106 1.391 . S
C2108 C2109 1.400 . S
C2109 C2103 1.491 . S
C2109 C2108 1.400 . S
C2109 C2110 1.398 . S
C2110 H2098 0.950 . S
C2110 C2109 1.398 . S
C2110 C2111 1.391 . S
C2111 H2099 0.950 . S
C2111 C2107 1.393 . S
C2111 C2110 1.391 . S
H2112 C2120 0.964 . S
H2113 C2125 0.950 . S
H2114 C2122 0.950 . S
H2115 C2124 0.950 . S
H2116 C2126 0.950 . S
H2117 C2128 0.950 . S
H2118 C2130 0.950 . S
H2119 C2131 0.950 . S
C2120 H2112 0.964 . S
C2120 C2121 1.370 1_545 S
C2120 C2122 1.393 . S
C2121 C2120 1.370 1_565 S
C2121 C2125 1.393 . S
C2122 H2114 0.950 . S
C2122 C2120 1.393 . S
C2122 C2123 1.400 1_545 S
C2123 C2122 1.400 1_565 S
C2123 C2124 1.398 . S
C2123 C2129 1.491 1_655 S
C2124 H2115 0.950 . S
C2124 C2123 1.398 . S
C2124 C2125 1.391 . S
C2125 H2113 0.950 . S
C2125 C2121 1.393 . S
C2125 C2124 1.391 . S
C2126 H2116 0.950 . S
C2126 C2127 1.386 . S
C2126 C2128 1.391 . S
C2127 C2126 1.386 . S
C2127 C2131 1.393 1_565 S
C2128 H2117 0.950 . S
C2128 C2126 1.391 . S
C2128 C2129 1.400 . S
C2129 C2123 1.491 1_455 S
C2129 C2128 1.400 . S
C2129 C2130 1.398 1_565 S
C2130 H2118 0.950 . S
C2130 C2129 1.398 1_545 S
C2130 C2131 1.391 . S
C2131 H2119 0.950 . S
C2131 C2127 1.393 1_545 S
C2131 C2130 1.391 . S
H2132 C2140 0.950 . S
H2133 C2145 0.954 . S
H2134 C2142 0.950 . S
H2135 C2144 0.950 . S
H2136 C2146 0.950 . S
H2137 C2148 0.950 . S
H2138 C2150 0.950 . S
H2139 C2151 0.950 . S
C2140 H2132 0.950 . S
C2140 C2141 1.386 1_455 S
C2140 C2142 1.391 . S
C2141 C2140 1.386 1_655 S
C2141 C2145 1.393 1_655 S
C2142 H2134 0.950 . S
C2142 C2140 1.391 . S
C2142 C2143 1.400 . S
C2143 C2142 1.400 . S
C2143 C2144 1.398 . S
C2143 C2149 1.491 . S
C2144 H2135 0.950 . S
C2144 C2143 1.398 . S
C2144 C2145 1.391 . S
C2145 H2133 0.954 . S
C2145 C2141 1.393 1_455 S
C2145 C2144 1.391 . S
C2146 H2136 0.950 . S
C2146 C2147 1.386 . S
C2146 C2148 1.391 . S
C2147 C2146 1.386 . S
C2147 C2151 1.393 . S
C2148 H2137 0.950 . S
C2148 C2146 1.391 . S
C2148 C2149 1.400 . S
C2149 C2143 1.491 . S
C2149 C2148 1.400 . S
C2149 C2150 1.398 . S
C2150 H2138 0.950 . S
C2150 C2149 1.398 . S
C2150 C2151 1.391 . S
C2151 H2139 0.950 . S
C2151 C2147 1.393 . S
C2151 C2150 1.391 . S
H2152 C2160 0.950 . S
H2153 C2165 0.950 . S
H2154 C2162 0.950 . S
H2155 C2164 0.950 . S
H2156 C2166 0.950 . S
H2157 C2168 0.950 . S
H2158 C2170 0.950 . S
H2159 C2171 0.950 . S
C2160 H2152 0.950 . S
C2160 C2161 1.386 . S
C2160 C2162 1.391 . S
C2161 C2160 1.386 . S
C2161 C2165 1.393 . S
C2162 H2154 0.950 . S
C2162 C2160 1.391 . S
C2162 C2163 1.400 . S
C2163 C2162 1.400 . S
C2163 C2164 1.398 . S
C2163 C2169 1.491 1_655 S
C2164 H2155 0.950 . S
C2164 C2163 1.398 . S
C2164 C2165 1.391 . S
C2165 H2153 0.950 . S
C2165 C2161 1.393 . S
C2165 C2164 1.391 . S
C2166 H2156 0.950 . S
C2166 C2167 1.386 . S
C2166 C2168 1.391 . S
C2167 C2166 1.386 . S
C2167 C2171 1.393 . S
C2168 H2157 0.950 . S
C2168 C2166 1.391 . S
C2168 C2169 1.400 . S
C2169 C2163 1.491 1_455 S
C2169 C2168 1.400 . S
C2169 C2170 1.398 . S
C2170 H2158 0.950 . S
C2170 C2169 1.398 . S
C2170 C2171 1.391 . S
C2171 H2159 0.950 . S
C2171 C2167 1.393 . S
C2171 C2170 1.391 . S
H2172 C2180 0.950 . S
H2173 C2185 0.950 1_545 S
H2174 C2182 0.950 . S
H2175 C2184 0.950 1_545 S
H2176 C2186 0.950 . S
H2177 C2188 0.950 . S
H2178 C2190 0.950 . S
H2179 C2191 0.950 . S
C2180 H2172 0.950 . S
C2180 C2181 1.386 . S
C2180 C2182 1.391 . S
C2181 C2180 1.386 . S
C2181 C2185 1.393 . S
C2182 H2174 0.950 . S
C2182 C2180 1.391 . S
C2182 C2183 1.400 . S
C2183 C2182 1.400 . S
C2183 C2184 1.398 . S
C2183 C2189 1.491 . S
C2184 H2175 0.950 1_565 S
C2184 C2183 1.398 . S
C2184 C2185 1.391 . S
C2185 H2173 0.950 1_565 S
C2185 C2181 1.393 . S
C2185 C2184 1.391 . S
C2186 H2176 0.950 . S
C2186 C2187 1.386 1_445 S
C2186 C2188 1.391 . S
C2187 C2186 1.386 1_665 S
C2187 C2191 1.393 1_655 S
C2188 H2177 0.950 . S
C2188 C2186 1.391 . S
C2188 C2189 1.400 1_545 S
C2189 C2183 1.491 . S
C2189 C2188 1.400 1_565 S
C2189 C2190 1.398 . S
C2190 H2178 0.950 . S
C2190 C2189 1.398 . S
C2190 C2191 1.391 . S
C2191 H2179 0.950 . S
C2191 C2187 1.393 1_455 S
C2191 C2190 1.391 . S
H2192 C2200 0.976 . S
H2193 C2205 0.950 . S
H2194 C2202 0.950 1_565 S
H2195 C2204 0.950 . S
H2196 C2206 0.950 . S
H2197 C2208 0.950 . S
H2198 C2210 0.950 . S
H2199 C2211 0.950 . S
C2200 H2192 0.976 . S
C2200 C2201 1.366 1_565 S
C2200 C2202 1.387 1_565 S
C2201 C2200 1.366 1_545 S
C2201 C2205 1.393 . S
C2202 H2194 0.950 1_545 S
C2202 C2200 1.387 1_545 S
C2202 C2203 1.400 . S
C2203 C2202 1.400 . S
C2203 C2204 1.398 . S
C2203 C2209 1.491 1_655 S
C2204 H2195 0.950 . S
C2204 C2203 1.398 . S
C2204 C2205 1.391 . S
C2205 H2193 0.950 . S
C2205 C2201 1.393 . S
C2205 C2204 1.391 . S
C2206 H2196 0.950 . S
C2206 C2207 1.386 . S
C2206 C2208 1.391 . S
C2207 C2206 1.386 . S
C2207 C2211 1.393 . S
C2208 H2197 0.950 . S
C2208 C2206 1.391 . S
C2208 C2209 1.400 . S
C2209 C2203 1.491 1_455 S
C2209 C2208 1.400 . S
C2209 C2210 1.398 . S
C2210 H2198 0.950 . S
C2210 C2209 1.398 . S
C2210 C2211 1.391 . S
C2211 H2199 0.950 . S
C2211 C2207 1.393 . S
C2211 C2210 1.391 . S
H2212 C2220 0.950 1_455 S
H2213 C2225 0.950 . S
H2214 C2222 0.950 . S
H2215 C2224 0.950 . S
H2216 C2226 0.950 . S
H2217 C2228 0.950 . S
H2218 C2230 0.950 . S
H2219 C2231 0.950 . S
C2220 H2212 0.950 1_655 S
C2220 C2221 1.386 1_655 S
C2220 C2222 1.391 . S
C2221 C2220 1.386 1_455 S
C2221 C2225 1.393 1_455 S
C2222 H2214 0.950 . S
C2222 C2220 1.391 . S
C2222 C2223 1.400 . S
C2223 C2222 1.400 . S
C2223 C2224 1.398 . S
C2223 C2229 1.491 . S
C2224 H2215 0.950 . S
C2224 C2223 1.398 . S
C2224 C2225 1.391 . S
C2225 H2213 0.950 . S
C2225 C2221 1.393 1_655 S
C2225 C2224 1.391 . S
C2226 H2216 0.950 . S
C2226 C2227 1.386 . S
C2226 C2228 1.391 . S
C2227 C2226 1.386 . S
C2227 C2231 1.393 . S
C2228 H2217 0.950 . S
C2228 C2226 1.391 . S
C2228 C2229 1.400 . S
C2229 C2223 1.491 . S
C2229 C2228 1.400 . S
C2229 C2230 1.398 . S
C2230 H2218 0.950 . S
C2230 C2229 1.398 . S
C2230 C2231 1.391 . S
C2231 H2219 0.950 . S
C2231 C2227 1.393 . S
C2231 C2230 1.391 . S
H2232 C2240 0.950 . S
H2233 C2245 0.950 . S
H2234 C2242 0.950 . S
H2235 C2244 0.950 . S
H2236 C2246 0.950 . S
H2237 C2248 0.950 . S
H2238 C2250 0.950 . S
H2239 C2251 0.950 . S
C2240 H2232 0.950 . S
C2240 C2241 1.386 . S
C2240 C2242 1.391 . S
C2241 C2240 1.386 . S
C2241 C2245 1.393 . S
C2242 H2234 0.950 . S
C2242 C2240 1.391 . S
C2242 C2243 1.400 . S
C2243 C2242 1.400 . S
C2243 C2244 1.398 . S
C2243 C2249 1.491 1_455 S
C2244 H2235 0.950 . S
C2244 C2243 1.398 . S
C2244 C2245 1.391 . S
C2245 H2233 0.950 . S
C2245 C2241 1.393 . S
C2245 C2244 1.391 . S
C2246 H2236 0.950 . S
C2246 C2247 1.386 . S
C2246 C2248 1.391 . S
C2247 C2246 1.386 . S
C2247 C2251 1.393 . S
C2248 H2237 0.950 . S
C2248 C2246 1.391 . S
C2248 C2249 1.400 . S
C2249 C2243 1.491 1_655 S
C2249 C2248 1.400 . S
C2249 C2250 1.398 . S
C2250 H2238 0.950 . S
C2250 C2249 1.398 . S
C2250 C2251 1.391 . S
C2251 H2239 0.950 . S
C2251 C2247 1.393 . S
C2251 C2250 1.391 . S
H2252 C2260 0.950 1_565 S
H2253 C2265 0.950 . S
H2254 C2262 0.950 1_565 S
H2255 C2264 0.950 . S
H2256 C2266 0.950 . S
H2257 C2268 0.950 . S
H2258 C2270 0.950 . S
H2259 C2271 0.950 . S
C2260 H2252 0.950 1_545 S
C2260 C2261 1.386 . S
C2260 C2262 1.391 . S
C2261 C2260 1.386 . S
C2261 C2265 1.393 . S
C2262 H2254 0.950 1_545 S
C2262 C2260 1.391 . S
C2262 C2263 1.400 . S
C2263 C2262 1.400 . S
C2263 C2264 1.398 . S
C2263 C2269 1.491 . S
C2264 H2255 0.950 . S
C2264 C2263 1.398 . S
C2264 C2265 1.391 . S
C2265 H2253 0.950 . S
C2265 C2261 1.393 . S
C2265 C2264 1.391 . S
C2266 H2256 0.950 . S
C2266 C2267 1.386 1_655 S
C2266 C2268 1.391 . S
C2267 C2266 1.386 1_455 S
C2267 C2271 1.393 1_445 S
C2268 H2257 0.950 . S
C2268 C2266 1.391 . S
C2268 C2269 1.400 . S
C2269 C2263 1.491 . S
C2269 C2268 1.400 . S
C2269 C2270 1.398 1_545 S
C2270 H2258 0.950 . S
C2270 C2269 1.398 1_565 S
C2270 C2271 1.391 . S
C2271 H2259 0.950 . S
C2271 C2267 1.393 1_665 S
C2271 C2270 1.391 . S
H2272 C2280 0.950 . S
H2273 C2285 0.950 . S
H2274 C2282 0.950 . S
H2275 C2284 0.950 . S
H2276 C2286 0.950 . S
H2277 C2288 0.950 . S
H2278 C2290 0.950 . S
H2279 C2291 0.950 . S
C2280 H2272 0.950 . S
C2280 C2281 1.386 . S
C2280 C2282 1.391 . S
C2281 C2280 1.386 . S
C2281 C2285 1.393 1_455 S
C2282 H2274 0.950 . S
C2282 C2280 1.391 . S
C2282 C2283 1.400 . S
C2283 C2282 1.400 . S
C2283 C2284 1.398 1_455 S
C2283 C2289 1.491 1_454 S
C2284 H2275 0.950 . S
C2284 C2283 1.398 1_655 S
C2284 C2285 1.391 . S
C2285 H2273 0.950 . S
C2285 C2281 1.393 1_655 S
C2285 C2284 1.391 . S
C2286 H2276 0.950 . S
C2286 C2287 1.386 . S
C2286 C2288 1.391 . S
C2287 C2286 1.386 . S
C2287 C2291 1.393 1_655 S
C2288 H2277 0.950 . S
C2288 C2286 1.391 . S
C2288 C2289 1.400 . S
C2289 C2283 1.491 1_656 S
C2289 C2288 1.400 . S
C2289 C2290 1.398 1_655 S
C2290 H2278 0.950 . S
C2290 C2289 1.398 1_455 S
C2290 C2291 1.391 . S
C2291 H2279 0.950 . S
C2291 C2287 1.393 1_455 S
C2291 C2290 1.391 . S
H2292 C2300 0.950 . S
H2293 C2305 0.950 . S
H2294 C2302 0.950 . S
H2295 C2304 0.950 . S
H2296 C2306 0.950 . S
H2297 C2308 0.950 . S
H2298 C2310 0.950 . S
H2299 C2311 0.950 . S
C2300 H2292 0.950 . S
C2300 C2301 1.386 . S
C2300 C2302 1.391 . S
C2301 C2300 1.386 . S
C2301 C2305 1.393 . S
C2302 H2294 0.950 . S
C2302 C2300 1.391 . S
C2302 C2303 1.400 . S
C2303 C2302 1.400 . S
C2303 C2304 1.398 . S
C2303 C2309 1.491 1_556 S
C2304 H2295 0.950 . S
C2304 C2303 1.398 . S
C2304 C2305 1.391 . S
C2305 H2293 0.950 . S
C2305 C2301 1.393 . S
C2305 C2304 1.391 . S
C2306 H2296 0.950 . S
C2306 C2307 1.386 . S
C2306 C2308 1.391 . S
C2307 C2306 1.386 . S
C2307 C2311 1.393 . S
C2308 H2297 0.950 . S
C2308 C2306 1.391 . S
C2308 C2309 1.400 . S
C2309 C2303 1.491 1_554 S
C2309 C2308 1.400 . S
C2309 C2310 1.398 . S
C2310 H2298 0.950 . S
C2310 C2309 1.398 . S
C2310 C2311 1.391 . S
C2311 H2299 0.950 . S
C2311 C2307 1.393 . S
C2311 C2310 1.391 . S
H2312 C2320 0.950 . S
H2313 C2325 0.950 . S
H2314 C2322 0.950 . S
H2315 C2324 0.950 . S
H2316 C2326 0.950 . S
H2317 C2328 0.950 . S
H2318 C2330 0.950 . S
H2319 C2331 0.950 . S
C2320 H2312 0.950 . S
C2320 C2321 1.386 . S
C2320 C2322 1.391 . S
C2321 C2320 1.386 . S
C2321 C2325 1.393 1_655 S
C2322 H2314 0.950 . S
C2322 C2320 1.391 . S
C2322 C2323 1.400 . S
C2323 C2322 1.400 . S
C2323 C2324 1.398 1_655 S
C2323 C2329 1.491 1_655 S
C2324 H2315 0.950 . S
C2324 C2323 1.398 1_455 S
C2324 C2325 1.391 . S
C2325 H2313 0.950 . S
C2325 C2321 1.393 1_455 S
C2325 C2324 1.391 . S
C2326 H2316 0.950 . S
C2326 C2327 1.386 . S
C2326 C2328 1.391 . S
C2327 C2326 1.386 . S
C2327 C2331 1.393 1_455 S
C2328 H2317 0.950 . S
C2328 C2326 1.391 . S
C2328 C2329 1.400 . S
C2329 C2323 1.491 1_455 S
C2329 C2328 1.400 . S
C2329 C2330 1.398 1_455 S
C2330 H2318 0.950 . S
C2330 C2329 1.398 1_655 S
C2330 C2331 1.391 . S
C2331 H2319 0.950 . S
C2331 C2327 1.393 1_655 S
C2331 C2330 1.391 . S
H2332 C2340 0.950 . S
H2333 C2345 0.950 . S
H2334 C2342 0.950 . S
H2335 C2344 0.950 . S
H2336 C2346 0.950 . S
H2337 C2348 0.950 . S
H2338 C2350 0.950 . S
H2339 C2351 0.950 . S
C2340 H2332 0.950 . S
C2340 C2341 1.386 . S
C2340 C2342 1.391 . S
C2341 C2340 1.386 . S
C2341 C2345 1.393 . S
C2342 H2334 0.950 . S
C2342 C2340 1.391 . S
C2342 C2343 1.400 . S
C2343 C2342 1.400 . S
C2343 C2344 1.398 . S
C2343 C2349 1.491 . S
C2344 H2335 0.950 . S
C2344 C2343 1.398 . S
C2344 C2345 1.391 . S
C2345 H2333 0.950 . S
C2345 C2341 1.393 . S
C2345 C2344 1.391 . S
C2346 H2336 0.950 . S
C2346 C2347 1.386 . S
C2346 C2348 1.391 . S
C2347 C2346 1.386 . S
C2347 C2351 1.393 . S
C2348 H2337 0.950 . S
C2348 C2346 1.391 . S
C2348 C2349 1.400 . S
C2349 C2343 1.491 . S
C2349 C2348 1.400 . S
C2349 C2350 1.398 . S
C2350 H2338 0.950 . S
C2350 C2349 1.398 . S
C2350 C2351 1.391 . S
C2351 H2339 0.950 . S
C2351 C2347 1.393 . S
C2351 C2350 1.391 . S
H2352 C2360 0.950 . S
H2353 C2365 0.950 . S
H2354 C2362 0.950 . S
H2355 C2364 0.950 . S
H2356 C2366 0.950 . S
H2357 C2368 0.950 . S
H2358 C2370 0.950 . S
H2359 C2371 0.950 . S
C2360 H2352 0.950 . S
C2360 C2361 1.386 . S
C2360 C2362 1.391 . S
C2361 C2360 1.386 . S
C2361 C2365 1.393 . S
C2362 H2354 0.950 . S
C2362 C2360 1.391 . S
C2362 C2363 1.400 . S
C2363 C2362 1.400 . S
C2363 C2364 1.398 . S
C2363 C2369 1.491 1_556 S
C2364 H2355 0.950 . S
C2364 C2363 1.398 . S
C2364 C2365 1.391 . S
C2365 H2353 0.950 . S
C2365 C2361 1.393 . S
C2365 C2364 1.391 . S
C2366 H2356 0.950 . S
C2366 C2367 1.386 . S
C2366 C2368 1.391 . S
C2367 C2366 1.386 . S
C2367 C2371 1.393 . S
C2368 H2357 0.950 . S
C2368 C2366 1.391 . S
C2368 C2369 1.400 . S
C2369 C2363 1.491 1_554 S
C2369 C2368 1.400 . S
C2369 C2370 1.398 . S
C2370 H2358 0.950 . S
C2370 C2369 1.398 . S
C2370 C2371 1.391 . S
C2371 H2359 0.950 . S
C2371 C2367 1.393 . S
C2371 C2370 1.391 . S
H2372 C2380 0.950 . S
H2373 C2385 0.950 . S
H2374 C2382 0.950 . S
H2375 C2384 0.950 . S
H2376 C2386 0.950 . S
H2377 C2388 0.950 . S
H2378 C2390 0.950 . S
H2379 C2391 0.950 . S
C2380 H2372 0.950 . S
C2380 C2381 1.386 1_455 S
C2380 C2382 1.391 . S
C2381 C2380 1.386 1_655 S
C2381 C2385 1.393 . S
C2382 H2374 0.950 . S
C2382 C2380 1.391 . S
C2382 C2383 1.400 1_455 S
C2383 C2382 1.400 1_655 S
C2383 C2384 1.398 . S
C2383 C2389 1.491 1_655 S
C2384 H2375 0.950 . S
C2384 C2383 1.398 . S
C2384 C2385 1.391 . S
C2385 H2373 0.950 . S
C2385 C2381 1.393 . S
C2385 C2384 1.391 . S
C2386 H2376 0.950 . S
C2386 C2387 1.386 1_655 S
C2386 C2388 1.391 . S
C2387 C2386 1.386 1_455 S
C2387 C2391 1.393 . S
C2388 H2377 0.950 . S
C2388 C2386 1.391 . S
C2388 C2389 1.400 1_655 S
C2389 C2383 1.491 1_455 S
C2389 C2388 1.400 1_455 S
C2389 C2390 1.398 . S
C2390 H2378 0.950 . S
C2390 C2389 1.398 . S
C2390 C2391 1.391 . S
C2391 H2379 0.950 . S
C2391 C2387 1.393 . S
C2391 C2390 1.391 . S
H2392 C2400 0.950 . S
H2393 C2405 0.950 . S
H2394 C2402 0.950 . S
H2395 C2404 0.950 . S
H2396 C2406 0.950 . S
H2397 C2408 0.950 . S
H2398 C2410 0.950 . S
H2399 C2411 0.950 . S
C2400 H2392 0.950 . S
C2400 C2401 1.386 . S
C2400 C2402 1.391 . S
C2401 C2400 1.386 . S
C2401 C2405 1.393 . S
C2402 H2394 0.950 . S
C2402 C2400 1.391 . S
C2402 C2403 1.400 . S
C2403 C2402 1.400 . S
C2403 C2404 1.398 . S
C2403 C2409 1.491 . S
C2404 H2395 0.950 . S
C2404 C2403 1.398 . S
C2404 C2405 1.391 . S
C2405 H2393 0.950 . S
C2405 C2401 1.393 . S
C2405 C2404 1.391 . S
C2406 H2396 0.950 . S
C2406 C2407 1.386 . S
C2406 C2408 1.391 . S
C2407 C2406 1.386 . S
C2407 C2411 1.393 . S
C2408 H2397 0.950 . S
C2408 C2406 1.391 . S
C2408 C2409 1.400 . S
C2409 C2403 1.491 . S
C2409 C2408 1.400 . S
C2409 C2410 1.398 . S
C2410 H2398 0.950 . S
C2410 C2409 1.398 . S
C2410 C2411 1.391 . S
C2411 H2399 0.950 . S
C2411 C2407 1.393 . S
C2411 C2410 1.391 . S
H2412 C2420 0.950 . S
H2413 C2425 0.950 . S
H2414 C2422 0.950 . S
H2415 C2424 0.950 . S
H2416 C2426 0.950 . S
H2417 C2428 0.950 . S
H2418 C2430 0.950 . S
H2419 C2431 0.950 . S
C2420 H2412 0.950 . S
C2420 C2421 1.386 1_665 S
C2420 C2422 1.391 . S
C2421 C2420 1.386 1_445 S
C2421 C2425 1.393 . S
C2422 H2414 0.950 . S
C2422 C2420 1.391 . S
C2422 C2423 1.371 1_665 S
C2423 C2422 1.371 1_445 S
C2423 C2424 1.431 . S
C2423 C2429 1.487 1_445 S
C2424 H2415 0.950 . S
C2424 C2423 1.431 . S
C2424 C2425 1.391 . S
C2425 H2413 0.950 . S
C2425 C2421 1.393 . S
C2425 C2424 1.391 . S
C2426 H2416 0.950 . S
C2426 C2427 1.386 1_445 S
C2426 C2428 1.391 . S
C2427 C2426 1.386 1_665 S
C2427 C2431 1.393 . S
C2428 H2417 0.950 . S
C2428 C2426 1.391 . S
C2428 C2429 1.371 1_445 S
C2429 C2423 1.487 1_665 S
C2429 C2428 1.371 1_665 S
C2429 C2430 1.431 . S
C2430 H2418 0.950 . S
C2430 C2429 1.431 . S
C2430 C2431 1.391 . S
C2431 H2419 0.950 . S
C2431 C2427 1.393 . S
C2431 C2430 1.391 . S
H2432 C2440 0.950 . S
H2433 C2445 0.950 . S
H2434 C2442 0.950 . S
H2435 C2444 0.950 . S
H2436 C2446 0.950 . S
H2437 C2448 0.950 . S
H2438 C2450 0.950 . S
H2439 C2451 0.950 . S
C2440 H2432 0.950 . S
C2440 C2441 1.386 . S
C2440 C2442 1.391 . S
C2441 C2440 1.386 . S
C2441 C2445 1.393 . S
C2442 H2434 0.950 . S
C2442 C2440 1.391 . S
C2442 C2443 1.400 . S
C2443 C2442 1.400 . S
C2443 C2444 1.398 . S
C2443 C2449 1.491 . S
C2444 H2435 0.950 . S
C2444 C2443 1.398 . S
C2444 C2445 1.391 . S
C2445 H2433 0.950 . S
C2445 C2441 1.393 . S
C2445 C2444 1.391 . S
C2446 H2436 0.950 . S
C2446 C2447 1.386 . S
C2446 C2448 1.391 . S
C2447 C2446 1.386 . S
C2447 C2451 1.393 . S
C2448 H2437 0.950 . S
C2448 C2446 1.391 . S
C2448 C2449 1.400 . S
C2449 C2443 1.491 . S
C2449 C2448 1.400 . S
C2449 C2450 1.398 . S
C2450 H2438 0.950 . S
C2450 C2449 1.398 . S
C2450 C2451 1.391 . S
C2451 H2439 0.950 . S
C2451 C2447 1.393 . S
C2451 C2450 1.391 . S
H2452 C2460 0.950 . S
H2453 C2465 0.950 . S
H2454 C2462 0.950 . S
H2455 C2464 0.950 . S
H2456 C2466 0.950 . S
H2457 C2468 0.950 . S
H2458 C2470 0.950 . S
H2459 C2471 0.950 . S
C2460 H2452 0.950 . S
C2460 C2461 1.386 . S
C2460 C2462 1.391 . S
C2461 C2460 1.386 . S
C2461 C2465 1.393 1_565 S
C2462 H2454 0.950 . S
C2462 C2460 1.391 . S
C2462 C2463 1.407 . S
C2463 C2462 1.407 . S
C2463 C2464 1.392 1_565 S
C2463 C2469 1.490 1_565 S
C2464 H2455 0.950 . S
C2464 C2463 1.392 1_545 S
C2464 C2465 1.391 . S
C2465 H2453 0.950 . S
C2465 C2461 1.393 1_545 S
C2465 C2464 1.391 . S
C2466 H2456 0.950 . S
C2466 C2467 1.386 . S
C2466 C2468 1.391 . S
C2467 C2466 1.386 . S
C2467 C2471 1.393 1_545 S
C2468 H2457 0.950 . S
C2468 C2466 1.391 . S
C2468 C2469 1.407 . S
C2469 C2463 1.490 1_545 S
C2469 C2468 1.407 . S
C2469 C2470 1.392 1_545 S
C2470 H2458 0.950 . S
C2470 C2469 1.392 1_565 S
C2470 C2471 1.391 . S
C2471 H2459 0.950 . S
C2471 C2467 1.393 1_565 S
C2471 C2470 1.391 . S
H2472 C2480 0.950 . S
H2473 C2485 0.950 . S
H2474 C2482 0.950 . S
H2475 C2484 0.950 . S
H2476 C2486 0.950 . S
H2477 C2488 0.950 . S
H2478 C2490 0.950 . S
H2479 C2491 0.950 . S
C2480 H2472 0.950 . S
C2480 C2481 1.386 . S
C2480 C2482 1.391 . S
C2481 C2480 1.386 . S
C2481 C2485 1.393 . S
C2482 H2474 0.950 . S
C2482 C2480 1.391 . S
C2482 C2483 1.400 . S
C2483 C2482 1.400 . S
C2483 C2484 1.398 . S
C2483 C2489 1.491 . S
C2484 H2475 0.950 . S
C2484 C2483 1.398 . S
C2484 C2485 1.391 . S
C2485 H2473 0.950 . S
C2485 C2481 1.393 . S
C2485 C2484 1.391 . S
C2486 H2476 0.950 . S
C2486 C2487 1.386 . S
C2486 C2488 1.391 . S
C2487 C2486 1.386 . S
C2487 C2491 1.393 . S
C2488 H2477 0.950 . S
C2488 C2486 1.391 . S
C2488 C2489 1.400 . S
C2489 C2483 1.491 . S
C2489 C2488 1.400 . S
C2489 C2490 1.398 . S
C2490 H2478 0.950 . S
C2490 C2489 1.398 . S
C2490 C2491 1.391 . S
C2491 H2479 0.950 . S
C2491 C2487 1.393 . S
C2491 C2490 1.391 . S
H2492 C2500 0.950 . S
H2493 C2505 0.950 . S
H2494 C2502 0.950 . S
H2495 C2504 0.950 . S
H2496 C2506 0.950 . S
H2497 C2508 0.950 . S
H2498 C2510 0.950 . S
H2499 C2511 0.950 . S
C2500 H2492 0.950 . S
C2500 C2501 1.386 . S
C2500 C2502 1.391 . S
C2501 C2500 1.386 . S
C2501 C2505 1.393 1_545 S
C2502 H2494 0.950 . S
C2502 C2500 1.391 . S
C2502 C2503 1.409 . S
C2503 C2502 1.409 . S
C2503 C2504 1.390 1_545 S
C2503 C2509 1.490 1_545 S
C2504 H2495 0.950 . S
C2504 C2503 1.390 1_565 S
C2504 C2505 1.391 . S
C2505 H2493 0.950 . S
C2505 C2501 1.393 1_565 S
C2505 C2504 1.391 . S
C2506 H2496 0.950 . S
C2506 C2507 1.386 . S
C2506 C2508 1.391 . S
C2507 C2506 1.386 . S
C2507 C2511 1.393 1_565 S
C2508 H2497 0.950 . S
C2508 C2506 1.391 . S
C2508 C2509 1.409 . S
C2509 C2503 1.490 1_565 S
C2509 C2508 1.409 . S
C2509 C2510 1.390 1_565 S
C2510 H2498 0.950 . S
C2510 C2509 1.390 1_545 S
C2510 C2511 1.391 . S
C2511 H2499 0.950 . S
C2511 C2507 1.393 1_545 S
C2511 C2510 1.391 . S
H2512 C2520 0.950 . S
H2513 C2525 0.950 . S
H2514 C2522 0.950 . S
H2515 C2524 0.950 . S
H2516 C2526 0.950 . S
H2517 C2528 0.950 . S
H2518 C2530 0.950 . S
H2519 C2531 0.950 . S
C2520 H2512 0.950 . S
C2520 C2521 1.386 . S
C2520 C2522 1.391 . S
C2521 C2520 1.386 . S
C2521 C2525 1.393 . S
C2522 H2514 0.950 . S
C2522 C2520 1.391 . S
C2522 C2523 1.400 . S
C2523 C2522 1.400 . S
C2523 C2524 1.398 . S
C2523 C2529 1.491 . S
C2524 H2515 0.950 . S
C2524 C2523 1.398 . S
C2524 C2525 1.391 . S
C2525 H2513 0.950 . S
C2525 C2521 1.393 . S
C2525 C2524 1.391 . S
C2526 H2516 0.950 . S
C2526 C2527 1.386 . S
C2526 C2528 1.391 . S
C2527 C2526 1.386 . S
C2527 C2531 1.393 . S
C2528 H2517 0.950 . S
C2528 C2526 1.391 . S
C2528 C2529 1.400 . S
C2529 C2523 1.491 . S
C2529 C2528 1.400 . S
C2529 C2530 1.398 . S
C2530 H2518 0.950 . S
C2530 C2529 1.398 . S
C2530 C2531 1.391 . S
C2531 H2519 0.950 . S
C2531 C2527 1.393 . S
C2531 C2530 1.391 . S
H2532 C2540 0.950 . S
H2533 C2545 0.950 . S
H2534 C2542 0.950 . S
H2535 C2544 0.950 . S
H2536 C2546 0.950 . S
H2537 C2548 0.950 . S
H2538 C2550 0.950 . S
H2539 C2551 0.950 . S
C2540 H2532 0.950 . S
C2540 C2541 1.386 . S
C2540 C2542 1.391 . S
C2541 C2540 1.386 . S
C2541 C2545 1.393 . S
C2542 H2534 0.950 . S
C2542 C2540 1.391 . S
C2542 C2543 1.400 . S
C2543 C2542 1.400 . S
C2543 C2544 1.398 . S
C2543 C2549 1.491 . S
C2544 H2535 0.950 . S
C2544 C2543 1.398 . S
C2544 C2545 1.391 . S
C2545 H2533 0.950 . S
C2545 C2541 1.393 . S
C2545 C2544 1.391 . S
C2546 H2536 0.950 . S
C2546 C2547 1.386 . S
C2546 C2548 1.391 . S
C2547 C2546 1.386 . S
C2547 C2551 1.393 . S
C2548 H2537 0.950 . S
C2548 C2546 1.391 . S
C2548 C2549 1.400 . S
C2549 C2543 1.491 . S
C2549 C2548 1.400 . S
C2549 C2550 1.398 . S
C2550 H2538 0.950 . S
C2550 C2549 1.398 . S
C2550 C2551 1.391 . S
C2551 H2539 0.950 . S
C2551 C2547 1.393 . S
C2551 C2550 1.391 . S
H2552 C2560 0.950 . S
H2553 C2565 0.950 . S
H2554 C2562 0.950 . S
H2555 C2564 0.950 . S
H2556 C2566 0.950 . S
H2557 C2568 0.950 . S
H2558 C2570 0.950 . S
H2559 C2571 0.950 . S
C2560 H2552 0.950 . S
C2560 C2561 1.386 . S
C2560 C2562 1.391 . S
C2561 C2560 1.386 . S
C2561 C2565 1.393 . S
C2562 H2554 0.950 . S
C2562 C2560 1.391 . S
C2562 C2563 1.400 . S
C2563 C2562 1.400 . S
C2563 C2564 1.398 . S
C2563 C2569 1.491 . S
C2564 H2555 0.950 . S
C2564 C2563 1.398 . S
C2564 C2565 1.391 . S
C2565 H2553 0.950 . S
C2565 C2561 1.393 . S
C2565 C2564 1.391 . S
C2566 H2556 0.950 . S
C2566 C2567 1.386 . S
C2566 C2568 1.391 . S
C2567 C2566 1.386 . S
C2567 C2571 1.393 . S
C2568 H2557 0.950 . S
C2568 C2566 1.391 . S
C2568 C2569 1.400 . S
C2569 C2563 1.491 . S
C2569 C2568 1.400 . S
C2569 C2570 1.398 . S
C2570 H2558 0.950 . S
C2570 C2569 1.398 . S
C2570 C2571 1.391 . S
C2571 H2559 0.950 . S
C2571 C2567 1.393 . S
C2571 C2570 1.391 . S
H2572 C2580 0.950 . S
H2573 C2585 0.950 . S
H2574 C2582 0.950 . S
H2575 C2584 0.950 . S
H2576 C2586 0.950 . S
H2577 C2588 0.950 . S
H2578 C2590 0.950 . S
H2579 C2591 0.950 . S
C2580 H2572 0.950 . S
C2580 C2581 1.386 . S
C2580 C2582 1.391 . S
C2581 C2580 1.386 . S
C2581 C2585 1.393 1_545 S
C2582 H2574 0.950 . S
C2582 C2580 1.391 . S
C2582 C2583 1.424 . S
C2583 C2582 1.424 . S
C2583 C2584 1.380 1_545 S
C2583 C2589 1.487 1_544 S
C2584 H2575 0.950 . S
C2584 C2583 1.380 1_565 S
C2584 C2585 1.391 . S
C2585 H2573 0.950 . S
C2585 C2581 1.393 1_565 S
C2585 C2584 1.391 . S
C2586 H2576 0.950 . S
C2586 C2587 1.386 . S
C2586 C2588 1.391 . S
C2587 C2586 1.386 . S
C2587 C2591 1.393 1_565 S
C2588 H2577 0.950 . S
C2588 C2586 1.391 . S
C2588 C2589 1.424 . S
C2589 C2583 1.487 1_566 S
C2589 C2588 1.424 . S
C2589 C2590 1.380 1_565 S
C2590 H2578 0.950 . S
C2590 C2589 1.380 1_545 S
C2590 C2591 1.391 . S
C2591 H2579 0.950 . S
C2591 C2587 1.393 1_545 S
C2591 C2590 1.391 . S
C681 C20 1.043 . S
C687 C545 1.065 . S
C701 C523 1.053 . S
C707 C41 1.079 . S
C721 C587 1.084 . S
C727 C62 1.083 . S
C741 C82 1.073 . S
C747 C566 1.047 . S
C761 C103 1.041 . S
C767 C628 1.055 . S
C781 C124 1.074 . S
C787 C607 1.049 . S
C801 C146 1.043 . S
C807 C670 1.064 . S
C821 C649 1.073 . S
C827 C166 1.087 . S
C841 C187 1.087 . S
C847 C377 1.071 . S
C861 C209 1.042 . S
C867 C356 1.051 . S
C881 C230 1.072 . S
C887 C418 1.047 . S
C901 C398 1.085 . S
C907 C251 1.063 . S
C921 C272 1.054 . S
C927 C460 1.080 . S
C941 C292 1.067 . S
C947 C440 1.044 . S
C961 C503 1.056 . S
C967 C314 1.041 . S
C981 C335 1.059 . S
C987 C482 1.083 . S
C1001 C7 1.307 . S
C1007 C67 1.290 . S
C1021 C28 1.305 . S
C1027 C49 1.284 . S
C1041 C151 1.271 . S
C1047 C88 1.264 . S
C1061 C133 1.306 . S
C1067 C109 1.288 . S
C1081 C172 1.272 . S
C1087 C238 1.294 1_565 S
C1101 C196 1.265 . S
C1107 C217 1.285 . S
C1121 C259 1.261 1_545 S
C1127 C322 1.262 1_545 S
C1141 C301 1.298 . S
C1147 C277 1.307 . S
C1161 C343 1.263 . S
C1167 C403 1.275 . S
C1181 C364 1.292 . S
C1187 C385 1.268 . S
C1201 C490 1.276 . S
C1207 C427 1.263 . S
C1221 C445 1.272 . S
C1227 C469 1.263 . S
C1241 C574 1.265 . S
C1247 C508 1.283 1_565 S
C1261 C532 1.273 . S
C1267 C553 1.297 . S
C1281 C655 1.301 1_545 S
C1287 C592 1.280 . S
C1301 C634 1.302 . S
C1307 C613 1.279 . S
C1321 C37 1.686 . S
C1327 C16 1.717 . S
C1341 C58 1.708 . S
C1347 C66 1.691 . S
C1361 C108 1.711 . S
C1367 C87 1.699 . S
C1381 C150 1.689 . S
C1387 C142 1.718 . S
C1401 C171 1.692 . S
C1407 C205 1.707 . S
C1421 C226 1.718 . S
C1427 C247 1.687 . S
C1441 C276 1.692 . S
C1447 C268 1.716 . S
C1461 C310 1.717 . S
C1467 C331 1.689 . S
C1481 C352 1.689 . S
C1487 C373 1.718 . S
C1501 C402 1.713 . S
C1507 C394 1.688 . S
C1521 C436 1.698 . S
C1527 C444 1.712 . S
C1541 C478 1.715 . S
C1547 C499 1.687 . S
C1561 C507 1.715 . S
C1567 C541 1.686 . S
C1581 C562 1.709 . S
C1587 C583 1.690 . S
C1601 C612 1.692 . S
C1607 C591 1.707 . S
C1621 C633 1.713 . S
C1627 C654 1.687 . S
C1641 C19 1.205 . S
C1647 C3 1.207 . S
C1661 C40 1.182 . S
C1667 C24 1.172 1_655 S
C1681 C61 1.188 . S
C1687 C45 1.168 . S
C1701 C79 1.208 1_655 S
C1707 C83 1.216 . S
C1721 C100 1.168 . S
C1727 C104 1.185 . S
C1741 C125 1.209 . S
C1747 C121 1.208 1_455 S
C1761 C129 1.171 . S
C1767 C145 1.183 . S
C1781 C163 1.202 1_455 S
C1787 C167 1.219 . S
C1801 C184 1.179 . S
C1807 C188 1.195 . S
C1821 C208 1.181 . S
C1827 C192 1.175 1_655 S
C1841 C229 1.193 . S
C1847 C213 1.198 . S
C1861 C234 1.208 1_655 S
C1867 C250 1.226 . S
C1881 C255 1.206 . S
C1887 C271 1.218 . S
C1901 C293 1.183 . S
C1907 C289 1.184 1_455 S
C1921 C313 1.187 . S
C1927 C297 1.168 . S
C1941 C318 1.172 1_455 S
C1947 C334 1.215 . S
C1961 C355 1.206 . S
C1967 C339 1.177 . S
C1981 C360 1.190 . S
C1987 C376 1.186 . S
C2001 C381 1.169 . S
C2007 C397 1.185 . S
C2021 C419 1.193 . S
C2027 C415 1.169 . S
C2041 C439 1.214 . S
C2047 C423 1.187 . S
C2061 C461 1.182 . S
C2067 C457 1.178 . S
C2081 C465 1.168 . S
C2087 C481 1.189 . S
C2101 C502 1.189 . S
C2107 C486 1.194 . S
C2121 C520 1.207 . S
C2127 C524 1.219 . S
C2141 C544 1.184 . S
C2147 C528 1.185 . S
C2161 C549 1.171 . S
C2167 C565 1.199 . S
C2181 C570 1.170 . S
C2187 C586 1.197 . S
C2201 C608 1.196 . S
C2207 C604 1.172 . S
C2221 C629 1.198 . S
C2227 C625 1.202 . S
C2241 C646 1.207 . S
C2247 C650 1.205 . S
C2261 C667 1.173 . S
C2267 C671 1.196 . S
C2281 C4 1.318 . S
C2287 C91 1.318 . S
C2301 C616 1.347 . S
C2307 C25 1.347 . S
C2321 C298 1.362 . S
C2327 C46 1.362 . S
C2341 C70 1.335 . S
C2347 C487 1.335 . S
C2361 C112 1.319 . S
C2367 C529 1.319 . S
C2381 C130 1.326 . S
C2387 C214 1.326 . S
C2401 C154 1.319 . S
C2407 C406 1.319 . S
C2421 C175 1.359 1_545 S
C2427 C256 1.359 1_565 S
C2441 C448 1.319 . S
C2447 C193 1.319 . S
C2461 C658 1.327 1_565 S
C2467 C235 1.327 1_545 S
C2481 C280 1.319 . S
C2487 C361 1.319 . S
C2501 C571 1.323 1_545 S
C2507 C319 1.323 1_565 S
C2521 C340 1.327 . S
C2527 C424 1.327 . S
C2541 C637 1.347 . S
C2547 C382 1.347 . S
C2561 C466 1.353 . S
C2567 C550 1.353 . S
C2581 C511 1.355 1_545 S
C2587 C595 1.355 1_565 S
