# Generated by pormake.
# Topology uoy, (4)-cn, num edge types: 1
# Building blocks:
#     Node 0, Type 0, BuildingBlock: TATPOV_clean_sbu_0, # of connection points: 4
#     Node 1, Type 0, BuildingBlock: TATPOV_clean_sbu_0, # of connection points: 4
#     Node 2, Type 0, BuildingBlock: TATPOV_clean_sbu_0, # of connection points: 4
#     Node 3, Type 0, BuildingBlock: TATPOV_clean_sbu_0, # of connection points: 4
#     Node 4, Type 0, BuildingBlock: TATPOV_clean_sbu_0, # of connection points: 4
#     Node 5, Type 0, BuildingBlock: TATPOV_clean_sbu_0, # of connection points: 4
#     Node 6, Type 0, BuildingBlock: TATPOV_clean_sbu_0, # of connection points: 4
#     Node 7, Type 0, BuildingBlock: TATPOV_clean_sbu_0, # of connection points: 4
#     Node 8, Type 0, BuildingBlock: TATPOV_clean_sbu_0, # of connection points: 4
#     Node 9, Type 0, BuildingBlock: TATPOV_clean_sbu_0, # of connection points: 4
#     Node 10, Type 0, BuildingBlock: TATPOV_clean_sbu_0, # of connection points: 4
#     Node 11, Type 0, BuildingBlock: TATPOV_clean_sbu_0, # of connection points: 4
#     Node 12, Type 0, BuildingBlock: TATPOV_clean_sbu_0, # of connection points: 4
#     Node 13, Type 0, BuildingBlock: TATPOV_clean_sbu_0, # of connection points: 4
#     Node 14, Type 0, BuildingBlock: TATPOV_clean_sbu_0, # of connection points: 4
#     Node 15, Type 0, BuildingBlock: TATPOV_clean_sbu_0, # of connection points: 4
#     Edge 16, Type (0, 0), BuildingBlock: EZIPEK_clean_linker_0, # of connection points: 2
#     Edge 17, Type (0, 0), BuildingBlock: EZIPEK_clean_linker_0, # of connection points: 2
#     Edge 18, Type (0, 0), BuildingBlock: EZIPEK_clean_linker_0, # of connection points: 2
#     Edge 19, Type (0, 0), BuildingBlock: EZIPEK_clean_linker_0, # of connection points: 2
#     Edge 20, Type (0, 0), BuildingBlock: EZIPEK_clean_linker_0, # of connection points: 2
#     Edge 21, Type (0, 0), BuildingBlock: EZIPEK_clean_linker_0, # of connection points: 2
#     Edge 22, Type (0, 0), BuildingBlock: EZIPEK_clean_linker_0, # of connection points: 2
#     Edge 23, Type (0, 0), BuildingBlock: EZIPEK_clean_linker_0, # of connection points: 2
#     Edge 24, Type (0, 0), BuildingBlock: EZIPEK_clean_linker_0, # of connection points: 2
#     Edge 25, Type (0, 0), BuildingBlock: EZIPEK_clean_linker_0, # of connection points: 2
#     Edge 26, Type (0, 0), BuildingBlock: EZIPEK_clean_linker_0, # of connection points: 2
#     Edge 27, Type (0, 0), BuildingBlock: EZIPEK_clean_linker_0, # of connection points: 2
#     Edge 28, Type (0, 0), BuildingBlock: EZIPEK_clean_linker_0, # of connection points: 2
#     Edge 29, Type (0, 0), BuildingBlock: EZIPEK_clean_linker_0, # of connection points: 2
#     Edge 30, Type (0, 0), BuildingBlock: EZIPEK_clean_linker_0, # of connection points: 2
#     Edge 31, Type (0, 0), BuildingBlock: EZIPEK_clean_linker_0, # of connection points: 2
#     Edge 32, Type (0, 0), BuildingBlock: EZIPEK_clean_linker_0, # of connection points: 2
#     Edge 33, Type (0, 0), BuildingBlock: EZIPEK_clean_linker_0, # of connection points: 2
#     Edge 34, Type (0, 0), BuildingBlock: EZIPEK_clean_linker_0, # of connection points: 2
#     Edge 35, Type (0, 0), BuildingBlock: EZIPEK_clean_linker_0, # of connection points: 2
#     Edge 36, Type (0, 0), BuildingBlock: EZIPEK_clean_linker_0, # of connection points: 2
#     Edge 37, Type (0, 0), BuildingBlock: EZIPEK_clean_linker_0, # of connection points: 2
#     Edge 38, Type (0, 0), BuildingBlock: EZIPEK_clean_linker_0, # of connection points: 2
#     Edge 39, Type (0, 0), BuildingBlock: EZIPEK_clean_linker_0, # of connection points: 2
#     Edge 40, Type (0, 0), BuildingBlock: EZIPEK_clean_linker_0, # of connection points: 2
#     Edge 41, Type (0, 0), BuildingBlock: EZIPEK_clean_linker_0, # of connection points: 2
#     Edge 42, Type (0, 0), BuildingBlock: EZIPEK_clean_linker_0, # of connection points: 2
#     Edge 43, Type (0, 0), BuildingBlock: EZIPEK_clean_linker_0, # of connection points: 2
#     Edge 44, Type (0, 0), BuildingBlock: EZIPEK_clean_linker_0, # of connection points: 2
#     Edge 45, Type (0, 0), BuildingBlock: EZIPEK_clean_linker_0, # of connection points: 2
#     Edge 46, Type (0, 0), BuildingBlock: EZIPEK_clean_linker_0, # of connection points: 2
#     Edge 47, Type (0, 0), BuildingBlock: EZIPEK_clean_linker_0, # of connection points: 2
# Relax obj value: 0.091
# Max RMSD: 0.152
# Mean RMSD: 0.151
data_MOF--net-uoy--node1-TATPOV_clean_sbu_0--edge1-EZIPEK_clean_linker_0
_symmetry_space_group_name_H-M    P1
_symmetry_Int_Tables_number       1
_symmetry_cell_setting            triclinic
loop_
_symmetry_equiv_pos_as_xyz
'x, y, z'
_cell_length_a     19.823745
_cell_length_b     19.81228
_cell_length_c     78.991734
_cell_angle_alpha  90.04269
_cell_angle_beta   89.841437
_cell_angle_gamma 89.849562
loop_
_atom_site_label
_atom_site_type_symbol
_atom_site_fract_x
_atom_site_fract_y
_atom_site_fract_z
_atom_type_partial_charge
Zn0 Zn 0.36829 0.17319 0.16594 0.0
Zn1 Zn 0.26794 0.0801 0.16861 0.0
O2 O 0.24453 0.15131 0.18641 0.0
O3 O 0.32384 0.22761 0.18455 0.0
O4 O 0.19285 0.01277 0.17125 0.0
O5 O 0.33908 0.18695 0.14176 0.0
O6 O 0.25653 0.11319 0.14438 0.0
C7 C 0.2689 0.20779 0.19103 0.0
C8 C 0.417 0.04017 0.1733 0.0
O9 O 0.35458 0.02516 0.17263 0.0
O10 O 0.43651 0.10037 0.17122 0.0
C11 C 0.13388 0.02968 0.1666 0.0
O12 O 0.12317 0.08994 0.16024 0.0
C13 C 0.28952 0.15537 0.13553 0.0
Zn14 Zn 0.73732 0.85826 0.43226 0.0
Zn15 Zn 0.83938 0.76769 0.43101 0.0
O16 O 0.81467 0.77024 0.45623 0.0
O17 O 0.73423 0.84727 0.45769 0.0
O18 O 0.90513 0.68987 0.42808 0.0
O19 O 0.68022 0.80597 0.41567 0.0
O20 O 0.76942 0.74179 0.41326 0.0
C21 C 0.77477 0.80716 0.46491 0.0
C22 C 0.8674 0.91411 0.42255 0.0
O23 O 0.88981 0.85465 0.42519 0.0
O24 O 0.80485 0.92706 0.42362 0.0
C25 C 0.93104 0.65517 0.43995 0.0
O26 O 0.91979 0.67216 0.45578 0.0
C27 C 0.71005 0.75705 0.40853 0.0
Zn28 Zn 0.1567 0.25956 0.66575 0.0
Zn29 Zn 0.25034 0.36022 0.67101 0.0
O30 O 0.27089 0.28501 0.68794 0.0
O31 O 0.19924 0.20263 0.68416 0.0
O32 O 0.33087 0.42287 0.67338 0.0
O33 O 0.18639 0.253 0.64116 0.0
O34 O 0.25584 0.33753 0.64601 0.0
C35 C 0.24961 0.2265 0.69189 0.0
C36 C 0.10152 0.39258 0.67551 0.0
O37 O 0.16272 0.41253 0.67593 0.0
O38 O 0.08717 0.33191 0.67188 0.0
C39 C 0.3671 0.42581 0.68663 0.0
O40 O 0.34803 0.39385 0.70038 0.0
C41 C 0.2293 0.29543 0.63591 0.0
Zn42 Zn 0.73734 0.67662 0.94164 0.0
Zn43 Zn 0.6421 0.77464 0.93814 0.0
O44 O 0.68921 0.7981 0.96022 0.0
O45 O 0.77069 0.72428 0.96292 0.0
O46 O 0.57488 0.85006 0.9358 0.0
O47 O 0.77134 0.70033 0.9181 0.0
O48 O 0.69718 0.78302 0.91641 0.0
C49 C 0.74012 0.77634 0.96831 0.0
C50 C 0.60051 0.62615 0.94044 0.0
O51 O 0.5855 0.68826 0.9385 0.0
O52 O 0.66116 0.60795 0.9427 0.0
C53 C 0.59783 0.90873 0.93288 0.0
O54 O 0.66324 0.91781 0.93155 0.0
C55 C 0.74438 0.74807 0.90985 0.0
Zn56 Zn 0.32488 0.23423 0.0333 0.0
Zn57 Zn 0.22573 0.32831 0.03812 0.0
O58 O 0.20016 0.27776 0.01654 0.0
O59 O 0.27584 0.19853 0.01278 0.0
O60 O 0.14709 0.39181 0.04166 0.0
O61 O 0.30616 0.19873 0.05676 0.0
O62 O 0.22436 0.27347 0.05985 0.0
C63 C 0.22167 0.22707 0.00821 0.0
C64 C 0.37251 0.37263 0.03427 0.0
O65 O 0.31071 0.38735 0.03692 0.0
O66 O 0.3907 0.3121 0.03171 0.0
C67 C 0.11356 0.41679 0.02946 0.0
O68 O 0.13299 0.40554 0.01381 0.0
C69 C 0.26038 0.22573 0.06571 0.0
Zn70 Zn 0.73048 0.84379 0.31171 0.0
Zn71 Zn 0.63443 0.75273 0.30257 0.0
O72 O 0.71317 0.73753 0.28624 0.0
O73 O 0.79375 0.80707 0.29366 0.0
O74 O 0.57222 0.67606 0.29689 0.0
O75 O 0.72888 0.80628 0.33559 0.0
O76 O 0.64853 0.73616 0.32782 0.0
C77 C 0.77226 0.76098 0.28401 0.0
C78 C 0.60294 0.90183 0.29958 0.0
O79 O 0.58391 0.84082 0.2978 0.0
O80 O 0.66128 0.91555 0.30515 0.0
C81 C 0.59899 0.61786 0.29813 0.0
O82 O 0.66307 0.61261 0.30211 0.0
C83 C 0.68681 0.76045 0.33915 0.0
Zn84 Zn 0.19786 0.37171 0.54217 0.0
Zn85 Zn 0.29352 0.25537 0.5493 0.0
O86 O 0.28582 0.25566 0.52371 0.0
O87 O 0.24671 0.3597 0.51923 0.0
O88 O 0.37848 0.20654 0.55653 0.0
O89 O 0.23539 0.43298 0.56222 0.0
O90 O 0.2991 0.35063 0.55543 0.0
C91 C 0.27037 0.30395 0.51373 0.0
C92 C 0.14868 0.23089 0.55522 0.0
O93 O 0.2089 0.2111 0.55796 0.0
O94 O 0.13632 0.2882 0.54849 0.0
C95 C 0.40175 0.15834 0.54761 0.0
O96 O 0.36923 0.13942 0.53395 0.0
C97 C 0.2709 0.38391 0.56716 0.0
Zn98 Zn 0.79432 0.63665 0.81106 0.0
Zn99 Zn 0.88096 0.73951 0.80536 0.0
O100 O 0.80708 0.75269 0.78755 0.0
O101 O 0.73386 0.67253 0.7927 0.0
O102 O 0.94377 0.81773 0.80114 0.0
O103 O 0.78306 0.66917 0.83499 0.0
O104 O 0.85172 0.75443 0.8301 0.0
C105 C 0.75146 0.72358 0.78416 0.0
C106 C 0.9263 0.59193 0.80081 0.0
O107 O 0.93912 0.65498 0.80073 0.0
O108 O 0.86829 0.57059 0.80482 0.0
C109 C 0.92021 0.87745 0.80074 0.0
O110 O 0.85528 0.88752 0.80297 0.0
C111 C 0.8133 0.72159 0.84005 0.0
Zn112 Zn 0.8457 0.72436 0.68791 0.0
Zn113 Zn 0.73942 0.64143 0.6812 0.0
O114 O 0.72035 0.68203 0.70461 0.0
O115 O 0.80758 0.74542 0.71093 0.0
O116 O 0.65368 0.58783 0.67733 0.0
O117 O 0.82288 0.77766 0.66686 0.0
O118 O 0.73957 0.7075 0.66133 0.0
C119 C 0.75162 0.71949 0.71504 0.0
C120 C 0.88393 0.58499 0.68239 0.0
O121 O 0.82078 0.57493 0.68034 0.0
O122 O 0.90628 0.64341 0.68558 0.0
C123 C 0.636 0.53986 0.68704 0.0
O124 O 0.67654 0.52008 0.69918 0.0
C125 C 0.77576 0.75798 0.65727 0.0
Zn126 Zn 0.27252 0.36678 0.91849 0.0
Zn127 Zn 0.36852 0.26894 0.92244 0.0
O128 O 0.29308 0.24356 0.93875 0.0
O129 O 0.21424 0.32044 0.93614 0.0
O130 O 0.43634 0.19506 0.92626 0.0
O131 O 0.2671 0.33703 0.894 0.0
O132 O 0.34341 0.25716 0.89763 0.0
C133 C 0.23491 0.26601 0.94272 0.0
C134 C 0.40214 0.41823 0.92868 0.0
O135 O 0.41949 0.35633 0.92797 0.0
O136 O 0.34234 0.43629 0.92532 0.0
C137 C 0.41792 0.13484 0.92333 0.0
O138 O 0.35662 0.12294 0.91785 0.0
C139 C 0.30238 0.28884 0.88817 0.0
Zn140 Zn 0.68145 0.70783 0.18752 0.0
Zn141 Zn 0.77611 0.80209 0.17993 0.0
O142 O 0.80307 0.77028 0.20345 0.0
O143 O 0.72133 0.70218 0.21119 0.0
O144 O 0.84909 0.86953 0.17506 0.0
O145 O 0.71522 0.65302 0.16729 0.0
O146 O 0.78456 0.73458 0.1606 0.0
C147 C 0.77447 0.73464 0.21472 0.0
C148 C 0.62633 0.83983 0.18081 0.0
O149 O 0.68808 0.85671 0.17943 0.0
O150 O 0.60975 0.77918 0.18362 0.0
C151 C 0.90902 0.84748 0.17353 0.0
O152 O 0.92095 0.78245 0.1747 0.0
C153 C 0.75932 0.67704 0.15735 0.0
Zn154 Zn 0.20324 0.16877 0.41371 0.0
Zn155 Zn 0.11167 0.2738 0.41632 0.0
O156 O 0.17137 0.27519 0.43725 0.0
O157 O 0.24919 0.1958 0.43557 0.0
O158 O 0.0524 0.35594 0.42003 0.0
O159 O 0.22917 0.20755 0.39105 0.0
O160 O 0.15599 0.29121 0.39342 0.0
C161 C 0.22201 0.24439 0.44345 0.0
C162 C 0.06172 0.12851 0.41564 0.0
O163 O 0.04886 0.19162 0.41611 0.0
O164 O 0.12191 0.10704 0.41479 0.0
C165 C 0.0811 0.41117 0.42397 0.0
O166 O 0.14718 0.41313 0.42505 0.0
C167 C 0.20051 0.2593 0.38497 0.0
Zn168 Zn 0.89823 0.89521 0.56484 0.0
Zn169 Zn 0.79074 0.9811 0.56289 0.0
O170 O 0.78629 0.92455 0.54108 0.0
O171 O 0.87159 0.85303 0.54259 0.0
O172 O 0.70889 0.04154 0.56054 0.0
O173 O 0.86049 0.86012 0.58672 0.0
O174 O 0.77344 0.92947 0.5851 0.0
C175 C 0.82071 0.87611 0.53486 0.0
C176 C 0.93567 0.0359 0.5639 0.0
O177 O 0.87214 0.04608 0.56325 0.0
O178 O 0.95937 0.97661 0.56472 0.0
C179 C 0.65042 0.01579 0.56194 0.0
O180 O 0.64445 0.95131 0.56547 0.0
C181 C 0.80613 0.88347 0.59282 0.0
Zn182 Zn 0.25535 0.32801 0.78499 0.0
Zn183 Zn 0.15701 0.23334 0.78789 0.0
O184 O 0.20959 0.20593 0.76652 0.0
O185 O 0.29241 0.27831 0.76453 0.0
O186 O 0.08559 0.1613 0.79004 0.0
O187 O 0.28347 0.30541 0.80891 0.0
O188 O 0.20706 0.2249 0.81026 0.0
C189 C 0.26309 0.22588 0.75911 0.0
C190 C 0.12165 0.38425 0.78513 0.0
O191 O 0.10426 0.32286 0.78712 0.0
O192 O 0.18301 0.3999 0.78303 0.0
C193 C 0.10395 0.09979 0.79024 0.0
O194 O 0.16816 0.08447 0.78876 0.0
C195 C 0.25358 0.25943 0.81712 0.0
Zn196 Zn 0.6356 0.69177 0.06097 0.0
Zn197 Zn 0.73305 0.60193 0.05073 0.0
O198 O 0.74722 0.68614 0.03625 0.0
O199 O 0.67131 0.76045 0.0441 0.0
O200 O 0.80958 0.54147 0.04325 0.0
O201 O 0.6738 0.68485 0.08478 0.0
O202 O 0.75069 0.61176 0.07607 0.0
C203 C 0.72097 0.74462 0.03482 0.0
C204 C 0.58393 0.56594 0.04715 0.0
O205 O 0.64603 0.55051 0.04537 0.0
O206 O 0.56651 0.62242 0.05333 0.0
C207 C 0.86888 0.56487 0.04491 0.0
O208 O 0.87702 0.62602 0.051 0.0
C209 C 0.72327 0.64618 0.08782 0.0
Zn210 Zn 0.2727 0.16091 0.28703 0.0
Zn211 Zn 0.3646 0.26258 0.28485 0.0
O212 O 0.30603 0.27148 0.26378 0.0
O213 O 0.22923 0.19266 0.26532 0.0
O214 O 0.42568 0.34321 0.28277 0.0
O215 O 0.24355 0.19842 0.30969 0.0
O216 O 0.31744 0.28088 0.30735 0.0
C217 C 0.25367 0.24334 0.25776 0.0
C218 C 0.41214 0.11592 0.28658 0.0
O219 O 0.42583 0.17873 0.28582 0.0
O220 O 0.35159 0.09565 0.28674 0.0
C221 C 0.45898 0.36324 0.29552 0.0
O222 O 0.45723 0.32819 0.30961 0.0
C223 C 0.27193 0.25033 0.31569 0.0
C224 C 0.2619 0.25833 0.09638 0.0
C225 C 0.25537 0.20748 0.08379 0.0
C226 C 0.26537 0.11991 0.10549 0.0
C227 C 0.26867 0.17107 0.11805 0.0
N228 N 0.24702 0.28679 0.12589 0.0
N229 N 0.23291 0.09123 0.07681 0.0
C230 C 0.25911 0.23959 0.11362 0.0
C231 C 0.25114 0.13857 0.08851 0.0
N232 N 0.27615 0.32364 0.09208 0.0
N233 N 0.27974 0.05432 0.10948 0.0
H234 H 0.22095 0.10369 0.06433 0.0
H235 H 0.22302 0.0411 0.0799 0.0
H236 H 0.29158 0.03841 0.12168 0.0
H237 H 0.28536 0.01653 0.1004 0.0
H238 H 0.28836 0.36038 0.101 0.0
H239 H 0.28318 0.34003 0.07968 0.0
H240 H 0.23366 0.33652 0.12316 0.0
H241 H 0.24289 0.27437 0.13869 0.0
C242 C 0.72584 0.68696 0.38225 0.0
C243 C 0.68384 0.72925 0.3922 0.0
C244 C 0.62572 0.76822 0.36682 0.0
C245 C 0.67838 0.73937 0.35693 0.0
N246 N 0.77345 0.66399 0.35447 0.0
N247 N 0.57231 0.77561 0.39451 0.0
C248 C 0.72621 0.69527 0.36438 0.0
C249 C 0.62643 0.75887 0.38464 0.0
N250 N 0.76296 0.63772 0.38995 0.0
N251 N 0.57789 0.80798 0.35934 0.0
H252 H 0.57075 0.76352 0.40737 0.0
H253 H 0.52672 0.79338 0.38973 0.0
H254 H 0.57493 0.81469 0.34626 0.0
H255 H 0.54316 0.83691 0.3661 0.0
H256 H 0.79188 0.60225 0.38343 0.0
H257 H 0.75804 0.62776 0.40287 0.0
H258 H 0.81445 0.63734 0.35928 0.0
H259 H 0.77282 0.66698 0.34128 0.0
C260 C 0.31218 0.32383 0.59334 0.0
C261 C 0.25786 0.35326 0.5841 0.0
C262 C 0.18397 0.34032 0.60887 0.0
C263 C 0.23693 0.3075 0.61761 0.0
N264 N 0.34647 0.2554 0.61736 0.0
N265 N 0.13635 0.37037 0.58201 0.0
C266 C 0.29943 0.29497 0.60953 0.0
C267 C 0.19212 0.35608 0.59152 0.0
N268 N 0.37672 0.32728 0.58724 0.0
N269 N 0.12642 0.35918 0.61726 0.0
H270 H 0.13735 0.38029 0.56913 0.0
H271 H 0.08727 0.36442 0.58652 0.0
H272 H 0.11657 0.34702 0.62986 0.0
H273 H 0.09063 0.39178 0.61209 0.0
H274 H 0.41883 0.31309 0.59426 0.0
H275 H 0.38942 0.35007 0.5758 0.0
H276 H 0.39033 0.23844 0.61142 0.0
H277 H 0.3384 0.2343 0.6293 0.0
C278 C 0.73128 0.75894 0.86184 0.0
C279 C 0.79918 0.74606 0.85737 0.0
C280 C 0.83185 0.75935 0.88705 0.0
C281 C 0.76272 0.75731 0.89178 0.0
N282 N 0.64553 0.74617 0.88319 0.0
N283 N 0.91543 0.73189 0.86564 0.0
C284 C 0.71186 0.75601 0.87907 0.0
C285 C 0.85023 0.74681 0.8699 0.0
N286 N 0.68523 0.77357 0.84952 0.0
N287 N 0.87965 0.77399 0.89891 0.0
H288 H 0.93093 0.72316 0.85321 0.0
H289 H 0.95323 0.72386 0.87455 0.0
H290 H 0.86735 0.78503 0.91147 0.0
H291 H 0.93024 0.78197 0.89595 0.0
H292 H 0.63625 0.78973 0.85217 0.0
H293 H 0.69838 0.7767 0.83673 0.0
H294 H 0.60841 0.73702 0.87417 0.0
H295 H 0.62778 0.74028 0.89549 0.0
C296 C 0.77521 0.89388 0.62369 0.0
C297 C 0.78064 0.85415 0.60879 0.0
C298 C 0.77432 0.75067 0.6255 0.0
C299 C 0.76801 0.7901 0.64047 0.0
N300 N 0.74342 0.89768 0.65336 0.0
N301 N 0.76269 0.74733 0.59501 0.0
C302 C 0.76208 0.86136 0.63939 0.0
C303 C 0.77227 0.78333 0.60957 0.0
N304 N 0.78664 0.96182 0.62306 0.0
N305 N 0.78781 0.68301 0.62637 0.0
H306 H 0.76007 0.7703 0.58314 0.0
H307 H 0.75013 0.69628 0.59493 0.0
H308 H 0.79316 0.65661 0.63768 0.0
H309 H 0.80034 0.65406 0.61579 0.0
H310 H 0.79132 0.99182 0.63383 0.0
H311 H 0.7961 0.9877 0.61183 0.0
H312 H 0.73233 0.94908 0.653 0.0
H313 H 0.73243 0.87494 0.66496 0.0
C314 C 0.34699 0.26542 0.85875 0.0
C315 C 0.29232 0.26783 0.87039 0.0
C316 C 0.21185 0.25907 0.8472 0.0
C317 C 0.26632 0.2534 0.83551 0.0
N318 N 0.38469 0.23267 0.83069 0.0
N319 N 0.1754 0.24317 0.87612 0.0
C320 C 0.33368 0.25039 0.84148 0.0
C321 C 0.22564 0.25656 0.86473 0.0
N322 N 0.41079 0.28143 0.86385 0.0
N323 N 0.14767 0.27247 0.84181 0.0
H324 H 0.18419 0.23914 0.8891 0.0
H325 H 0.12707 0.22858 0.87248 0.0
H326 H 0.13459 0.27975 0.82919 0.0
H327 H 0.10832 0.28394 0.85012 0.0
H328 H 0.45088 0.28763 0.85544 0.0
H329 H 0.42279 0.29415 0.87628 0.0
H330 H 0.43395 0.22377 0.83468 0.0
H331 H 0.37613 0.22003 0.81804 0.0
C332 C 0.80234 0.67648 0.11129 0.0
C333 C 0.74668 0.63833 0.10542 0.0
C334 C 0.72703 0.5957 0.13409 0.0
C335 C 0.77129 0.64587 0.14029 0.0
N336 N 0.87581 0.70304 0.13495 0.0
N337 N 0.65941 0.55616 0.11056 0.0
C338 C 0.81707 0.67673 0.12889 0.0
C339 C 0.71072 0.59529 0.11659 0.0
N340 N 0.83856 0.71508 0.1002 0.0
N341 N 0.70426 0.54643 0.14472 0.0
H342 H 0.6482 0.55238 0.09769 0.0
H343 H 0.62598 0.53006 0.11834 0.0
H344 H 0.72256 0.54141 0.15702 0.0
H345 H 0.67519 0.50569 0.14077 0.0
H346 H 0.87459 0.75013 0.10395 0.0
H347 H 0.83022 0.71427 0.08717 0.0
H348 H 0.91395 0.7223 0.12728 0.0
H349 H 0.88956 0.69766 0.14762 0.0
C350 C 0.28555 0.28493 0.36286 0.0
C351 C 0.21678 0.27865 0.36737 0.0
C352 C 0.1862 0.28182 0.3374 0.0
C353 C 0.25486 0.2718 0.3331 0.0
N354 N 0.37079 0.25747 0.34214 0.0
N355 N 0.10009 0.26714 0.35874 0.0
C356 C 0.30522 0.27314 0.34587 0.0
C357 C 0.16628 0.27756 0.35463 0.0
N358 N 0.33199 0.30106 0.37494 0.0
N359 N 0.14017 0.29501 0.32499 0.0
H360 H 0.0825 0.26286 0.37111 0.0
H361 H 0.06299 0.25763 0.34973 0.0
H362 H 0.15382 0.29915 0.31226 0.0
H363 H 0.09037 0.30877 0.32751 0.0
H364 H 0.38216 0.31204 0.37213 0.0
H365 H 0.31834 0.3105 0.3875 0.0
H366 H 0.40758 0.25052 0.35137 0.0
H367 H 0.38757 0.2451 0.33004 0.0
C368 C 0.18238 0.21701 0.21435 0.0
C369 C 0.23867 0.24467 0.20576 0.0
C370 C 0.26511 0.31094 0.23093 0.0
C371 C 0.22912 0.26243 0.24051 0.0
N372 N 0.12877 0.19408 0.24145 0.0
N373 N 0.30908 0.34324 0.20333 0.0
C374 C 0.17892 0.22368 0.23225 0.0
C375 C 0.2721 0.30055 0.2132 0.0
N376 N 0.13174 0.18789 0.20527 0.0
N377 N 0.28957 0.36722 0.23875 0.0
H378 H 0.30517 0.34294 0.19016 0.0
H379 H 0.34111 0.38018 0.20807 0.0
H380 H 0.2778 0.37817 0.25134 0.0
H381 H 0.31509 0.40585 0.23256 0.0
H382 H 0.08745 0.16937 0.2106 0.0
H383 H 0.13128 0.18924 0.19206 0.0
H384 H 0.09556 0.15844 0.23659 0.0
H385 H 0.11957 0.20734 0.25404 0.0
C386 C 0.74082 0.79837 0.49557 0.0
C387 C 0.78861 0.81785 0.4831 0.0
C388 C 0.85456 0.87806 0.50455 0.0
C389 C 0.80914 0.85514 0.51717 0.0
N390 N 0.71377 0.78791 0.52552 0.0
N391 N 0.89548 0.86958 0.47579 0.0
C392 C 0.75344 0.8137 0.51292 0.0
C393 C 0.8471 0.85518 0.48765 0.0
N394 N 0.68307 0.76621 0.49074 0.0
N395 N 0.90262 0.92498 0.50854 0.0
H396 H 0.89046 0.85948 0.46292 0.0
H397 H 0.94307 0.88802 0.47882 0.0
H398 H 0.91008 0.94332 0.52077 0.0
H399 H 0.9315 0.95043 0.49958 0.0
H400 H 0.64261 0.75704 0.49883 0.0
H401 H 0.67415 0.75146 0.47826 0.0
H402 H 0.6763 0.75212 0.52354 0.0
H403 H 0.72135 0.79914 0.53829 0.0
C404 C 0.23755 0.14628 0.71679 0.0
C405 C 0.27676 0.19336 0.70748 0.0
C406 C 0.33859 0.22276 0.73314 0.0
C407 C 0.28441 0.19496 0.7426 0.0
N408 N 0.21401 0.09671 0.74438 0.0
N409 N 0.38642 0.24352 0.70513 0.0
C410 C 0.24345 0.14561 0.73474 0.0
C411 C 0.33515 0.22072 0.71516 0.0
N412 N 0.19545 0.10302 0.70856 0.0
N413 N 0.39255 0.2498 0.74139 0.0
H414 H 0.38543 0.23704 0.692 0.0
H415 H 0.43099 0.2644 0.70961 0.0
H416 H 0.39973 0.24252 0.75434 0.0
H417 H 0.43137 0.27607 0.73549 0.0
H418 H 0.15878 0.07413 0.71458 0.0
H419 H 0.19952 0.09424 0.69558 0.0
H420 H 0.18576 0.05709 0.73949 0.0
H421 H 0.22491 0.09176 0.75723 0.0
C422 C 0.69746 0.83204 0.01192 0.0
C423 C 0.74315 0.78844 0.02044 0.0
C424 C 0.81153 0.77863 -0.00518 0.0
C425 C 0.75559 0.80355 0.98557 0.0
N426 N 0.67231 0.89211 0.98581 0.0
N427 N 0.85976 0.75763 0.02266 0.0
C428 C 0.70673 0.84287 -0.00574 0.0
C429 C 0.80608 0.77421 0.01272 0.0
N430 N 0.64573 0.86222 0.02049 0.0
N431 N 0.86843 0.75854 0.98646 0.0
H432 H 0.85571 0.7571 0.03585 0.0
H433 H 0.90865 0.7512 0.01809 0.0
H434 H 0.87578 0.76924 0.97365 0.0
H435 H 0.90805 0.73264 -0.00784 0.0
H436 H 0.60515 0.88569 0.01454 0.0
H437 H 0.64497 0.86588 0.03364 0.0
H438 H 0.63821 0.92499 -0.00844 0.0
H439 H 0.68466 0.90538 0.9734 0.0
C440 C 0.22079 0.16007 0.981 0.0
C441 C 0.19119 0.21025 -0.00855 0.0
C442 C 0.14861 0.26911 0.96659 0.0
C443 C 0.19738 0.23319 0.95693 0.0
N444 N 0.24367 0.12272 0.95215 0.0
N445 N 0.09287 0.28064 -0.00602 0.0
C446 C 0.2215 0.17078 0.96324 0.0
C447 C 0.1435 0.25484 0.98418 0.0
N448 N 0.24845 0.10381 -0.01186 0.0
N449 N 0.1082 0.31603 0.95906 0.0
H450 H 0.08589 0.26486 0.00648 0.0
H451 H 0.05448 0.31154 -0.01057 0.0
H452 H 0.10307 0.31874 0.94594 0.0
H453 H 0.07808 0.35004 0.96572 0.0
H454 H 0.27724 0.06856 0.98151 0.0
H455 H 0.24063 0.09212 0.00088 0.0
H456 H 0.25974 0.07477 0.9557 0.0
H457 H 0.23979 0.12967 0.93908 0.0
C458 C 0.79647 0.68061 0.26023 0.0
C459 C 0.80806 0.744 0.26795 0.0
C460 C 0.81689 0.79811 0.2405 0.0
C461 C 0.79883 0.73608 0.23251 0.0
N462 N 0.79748 0.61451 0.2343 0.0
N463 N 0.86934 0.84817 0.26507 0.0
C464 C 0.79748 0.67574 0.24225 0.0
C465 C 0.83256 0.79756 0.25795 0.0
N466 N 0.78276 0.62606 0.27018 0.0
N467 N 0.8131 0.85855 0.23221 0.0
H468 H 0.8859 0.84586 0.27758 0.0
H469 H 0.89143 0.8865 0.25793 0.0
H470 H 0.79602 0.86445 0.21987 0.0
H471 H 0.8199 0.9046 0.23836 0.0
H472 H 0.76652 0.57976 0.2655 0.0
H473 H 0.78685 0.62845 0.28335 0.0
H474 H 0.80074 0.56866 0.24067 0.0
H475 H 0.801 0.60999 0.22116 0.0
C476 C 0.30362 0.27641 0.46666 0.0
C477 C 0.23831 0.25603 0.46144 0.0
C478 C 0.19474 0.27289 0.49003 0.0
C479 C 0.26078 0.28857 0.49565 0.0
N480 N 0.38011 0.2959 0.49019 0.0
N481 N 0.12822 0.2142 0.46925 0.0
C482 C 0.3161 0.28715 0.48423 0.0
C483 C 0.18571 0.24834 0.47345 0.0
N484 N 0.35262 0.2879 0.45482 0.0
N485 N 0.14011 0.28212 0.5004 0.0
H486 H 0.12116 0.19177 0.45745 0.0
H487 H 0.09125 0.20113 0.47806 0.0
H488 H 0.14359 0.29822 0.51292 0.0
H489 H 0.09053 0.27889 0.49613 0.0
H490 H 0.39917 0.30926 0.45765 0.0
H491 H 0.34486 0.28041 0.4419 0.0
H492 H 0.42314 0.28884 0.4828 0.0
H493 H 0.39026 0.30586 0.5029 0.0
C494 C 0.73424 0.79346 0.74047 0.0
C495 C 0.726 0.72942 0.73257 0.0
C496 C 0.68412 0.68565 0.75944 0.0
C497 C 0.71664 0.73905 0.76788 0.0
N498 N 0.75356 0.85424 0.7668 0.0
N499 N 0.69625 0.61062 0.73585 0.0
C500 C 0.73475 0.79701 0.75847 0.0
C501 C 0.69981 0.67459 0.74222 0.0
N502 N 0.74089 0.85012 0.73078 0.0
N503 N 0.64024 0.64486 0.76789 0.0
H504 H 0.71441 0.59677 0.72401 0.0
H505 H 0.68242 0.56933 0.74326 0.0
H506 H 0.62498 0.65549 0.78027 0.0
H507 H 0.61273 0.60707 0.76185 0.0
H508 H 0.74304 0.89871 0.73577 0.0
H509 H 0.73742 0.84875 0.7176 0.0
H510 H 0.77539 0.89576 0.76087 0.0
H511 H 0.74741 0.85905 0.77988 0.0
C512 C 0.057 0.94253 0.15443 0.0
C513 C 0.07715 0.98214 0.16848 0.0
C514 C 0.98895 0.93101 0.18607 0.0
C515 C 0.9659 0.89488 0.1717 0.0
N516 N 0.97119 0.8713 0.1418 0.0
N517 N 0.05977 0.02046 0.19712 0.0
C518 C 0.99817 0.90188 0.15575 0.0
C519 C 0.04241 0.97815 0.18417 0.0
N520 N 0.09515 0.94266 0.13997 0.0
N521 N 0.96126 0.91839 0.20164 0.0
H522 H 0.1006 0.05343 0.19641 0.0
H523 H 0.03161 0.02607 0.20818 0.0
H524 H 0.92142 0.88487 0.20349 0.0
H525 H 0.9805 0.93732 0.21292 0.0
H526 H 0.08765 0.90963 0.12991 0.0
H527 H 0.13787 0.97278 0.13848 0.0
H528 H 0.98792 0.87975 0.12949 0.0
H529 H 0.92829 0.84099 0.14237 0.0
C530 C 0.99038 0.47184 0.44045 0.0
C531 C 0.04094 0.47288 0.42769 0.0
C532 C 0.02459 0.59503 0.42439 0.0
C533 C 0.96935 0.5926 0.43585 0.0
N534 N 0.88978 0.52496 0.45166 0.0
N535 N 0.09628 0.5328 0.40499 0.0
C536 C 0.94942 0.52995 0.44303 0.0
C537 C 0.0553 0.53378 0.41894 0.0
N538 N 0.98321 0.41657 0.45064 0.0
N539 N 0.0496 0.65588 0.41922 0.0
H540 H 0.11819 0.48868 0.40028 0.0
H541 H 0.10296 0.57439 0.39711 0.0
H542 H 0.02973 0.70196 0.42326 0.0
H543 H 0.09409 0.66071 0.41229 0.0
H544 H 0.95203 0.41612 0.46128 0.0
H545 H 0.01322 0.37349 0.44953 0.0
H546 H 0.8697 0.47903 0.45561 0.0
H547 H 0.85678 0.56549 0.45332 0.0
C548 C 0.45009 0.5115 0.69726 0.0
C549 C 0.43476 0.45787 0.68601 0.0
C550 C 0.549 0.46445 0.67391 0.0
C551 C 0.56622 0.51322 0.68629 0.0
N552 N 0.53595 0.58007 0.71071 0.0
N553 N 0.47278 0.37502 0.66561 0.0
C554 C 0.51753 0.53579 0.69827 0.0
C555 C 0.48489 0.43239 0.67476 0.0
N556 N 0.39951 0.54094 0.70651 0.0
N557 N 0.59392 0.4488 0.66134 0.0
H558 H 0.42738 0.34868 0.66616 0.0
H559 H 0.50974 0.34981 0.65865 0.0
H560 H 0.6422 0.46948 0.66069 0.0
H561 H 0.58161 0.41948 0.65085 0.0
H562 H 0.40569 0.58474 0.71362 0.0
H563 H 0.34949 0.5249 0.70594 0.0
H564 H 0.5055 0.592 0.72105 0.0
H565 H 0.58357 0.6022 0.71128 0.0
C566 C 0.46521 0.04358 0.94168 0.0
C567 C 0.46511 0.07816 0.92597 0.0
C568 C 0.54777 0.99825 0.91442 0.0
C569 C 0.55136 0.96637 0.93048 0.0
N570 N 0.52161 0.96347 0.9601 0.0
N571 N 0.51178 0.09562 0.89812 0.0
C572 C 0.51205 0.99013 0.94431 0.0
C573 C 0.50814 0.05766 0.91255 0.0
N574 N 0.41988 0.06138 0.954 0.0
N575 N 0.57986 0.96995 0.90079 0.0
H576 H 0.48209 0.13844 0.89613 0.0
H577 H 0.54758 0.08782 0.88865 0.0
H578 H 0.60879 0.92601 0.90162 0.0
H579 H 0.57341 0.98646 0.88839 0.0
H580 H 0.41161 0.03323 0.96493 0.0
H581 H 0.38728 0.10252 0.95283 0.0
H582 H 0.50015 0.98343 0.97106 0.0
H583 H 0.5553 0.92414 0.96251 0.0
C584 C 0.03913 0.51889 0.02601 0.0
C585 C 0.04963 0.45354 0.03287 0.0
C586 C 0.94167 0.46137 0.04801 0.0
C587 C 0.92883 0.52427 0.04007 0.0
N588 N 0.95744 0.60444 0.01828 0.0
N589 N 1.00275 0.35563 0.0468 0.0
C590 C 0.9753 0.55061 0.02811 0.0
C591 C 0.99855 0.42268 0.04285 0.0
N592 N 0.09079 0.55198 0.01812 0.0
N593 N 0.90139 0.4397 0.06097 0.0
H594 H 0.04213 0.32461 0.04271 0.0
H595 H 0.96361 0.32918 0.05258 0.0
H596 H 0.85968 0.46681 0.06534 0.0
H597 H 0.91299 0.39786 0.06841 0.0
H598 H 0.08778 0.6024 0.01445 0.0
H599 H 0.13889 0.53129 0.01669 0.0
H600 H 0.9868 0.62197 0.00825 0.0
H601 H 0.90981 0.62675 0.01895 0.0
C602 C 0.57479 0.50877 0.28344 0.0
C603 C 0.55823 0.55591 0.29633 0.0
C604 C 0.46919 0.48096 0.30666 0.0
C605 C 0.49181 0.43022 0.29527 0.0
N606 N 0.57062 0.39246 0.27393 0.0
N607 N 0.4963 0.58352 0.3218 0.0
C608 C 0.54558 0.4433 0.28385 0.0
C609 C 0.50691 0.54138 0.30833 0.0
N610 N 0.61715 0.52732 0.27059 0.0
N611 N 0.41034 0.47243 0.31547 0.0
H612 H 0.52289 0.62828 0.3236 0.0
H613 H 0.46514 0.57131 0.33198 0.0
H614 H 0.38034 0.42949 0.31435 0.0
H615 H 0.38777 0.51062 0.32259 0.0
H616 H 0.62619 0.49765 0.25993 0.0
H617 H 0.63838 0.57535 0.26979 0.0
H618 H 0.61447 0.39689 0.26673 0.0
H619 H 0.55066 0.34381 0.27391 0.0
C620 C 0.5398 0.0642 0.57169 0.0
C621 C 0.5891 0.0569 0.55875 0.0
C622 C 0.52028 0.12654 0.53979 0.0
C623 C 0.46725 0.12623 0.55191 0.0
N624 N 0.42294 0.0877 0.5787 0.0
N625 N 0.62196 0.07218 0.52953 0.0
C626 C 0.47612 0.09355 0.56774 0.0
C627 C 0.57841 0.08595 0.54255 0.0
N628 N 0.55455 0.04475 0.58787 0.0
N629 N 0.51618 0.16747 0.5259 0.0
H630 H 0.66474 0.04195 0.53089 0.0
H631 H 0.61243 0.08566 0.51702 0.0
H632 H 0.4752 0.1993 0.52362 0.0
H633 H 0.55624 0.17506 0.51756 0.0
H634 H 0.52349 0.05523 0.5982 0.0
H635 H 0.60088 0.02367 0.59124 0.0
H636 H 0.42431 0.05801 0.58957 0.0
H637 H 0.37532 0.10784 0.57625 0.0
C638 C 0.03646 1.00331 0.7789 0.0
C639 C 0.05389 0.04539 0.79273 0.0
C640 C 0.97885 0.98104 0.81145 0.0
C641 C 0.96572 0.9356 0.79793 0.0
N642 N 0.98461 0.8995 0.76913 0.0
N643 N 0.04845 0.07158 0.8225 0.0
C644 C 0.99546 0.94552 0.78175 0.0
C645 C 0.02651 0.03387 0.80909 0.0
N646 N 0.05712 0.02032 0.76292 0.0
N647 N 0.94577 0.9736 0.82655 0.0
H648 H 0.08248 0.11134 0.82123 0.0
H649 H 0.03675 0.06096 0.83507 0.0
H650 H 0.91398 0.93308 0.82919 0.0
H651 H 0.94658 0.00943 0.83619 0.0
H652 H 0.04097 0.99599 0.75199 0.0
H653 H 0.08648 0.06278 0.76042 0.0
H654 H 0.01097 0.89909 0.75772 0.0
H655 H 0.9515 0.85896 0.77037 0.0
C656 C 0.54049 0.89902 0.16311 0.0
C657 C 0.57286 0.89121 0.17897 0.0
C658 C 0.50282 0.98111 0.19123 0.0
C659 C 0.46814 0.9866 0.17559 0.0
N660 N 0.44742 0.94688 0.14719 0.0
N661 N 0.5809 0.91725 0.2087 0.0
C662 C 0.48491 0.94416 0.1617 0.0
C663 C 0.553 0.93025 0.19321 0.0
N664 N 0.56452 0.86481 0.14928 0.0
N665 N 0.48818 0.0251 0.20409 0.0
H666 H 0.61899 0.88154 0.2105 0.0
H667 H 0.56372 0.93846 0.21997 0.0
H668 H 0.44922 0.06049 0.20341 0.0
H669 H 0.5165 0.02917 0.21511 0.0
H670 H 0.54837 0.87352 0.13696 0.0
H671 H 0.60452 0.83057 0.14992 0.0
H672 H 0.45186 0.91225 0.13734 0.0
H673 H 0.40837 0.98144 0.14534 0.0
C674 C 0.92216 0.01849 0.43371 0.0
C675 C 0.91503 0.97074 0.42038 0.0
C676 C 0.99512 0.03432 0.40293 0.0
C677 C 0.00659 0.07855 0.41676 0.0
N678 N 0.9868 0.11014 0.44585 0.0
N679 N 0.94726 0.92896 0.39286 0.0
C680 C 0.97107 0.07047 0.43224 0.0
C681 C 0.95233 0.9774 0.40514 0.0
N682 N 0.88238 0.01392 0.44786 0.0
N683 N 0.02352 0.04832 0.38752 0.0
H684 H 0.91393 0.88843 0.39371 0.0
H685 H 0.97863 0.92647 0.3823 0.0
H686 H 0.05427 0.09021 0.38546 0.0
H687 H 0.01235 0.02217 0.37646 0.0
H688 H 0.87858 0.0518 0.45695 0.0
H689 H 0.84994 0.97368 0.45022 0.0
H690 H 0.96977 0.10116 0.45811 0.0
H691 H 0.0206 0.15019 0.44518 0.0
C692 C 1.00382 0.44014 0.69201 0.0
C693 C 0.0455 0.44172 0.67736 0.0
C694 C 0.97652 0.53278 0.66533 0.0
C695 C 0.93387 0.53018 0.67979 0.0
N696 N 0.90014 0.47687 0.70583 0.0
N697 N 0.0668 0.48136 0.64898 0.0
C698 C 0.9453 0.48212 0.69278 0.0
C699 C 0.03061 0.48592 0.66372 0.0
N700 N 0.02189 0.40031 0.7054 0.0
N701 N 0.9658 0.5811 0.65325 0.0
H702 H 0.10832 0.4495 0.64749 0.0
H703 H 0.05351 0.50581 0.63782 0.0
H704 H 0.92364 0.61275 0.65324 0.0
H705 H 0.99989 0.59208 0.6436 0.0
H706 H 0.99794 0.40121 0.71713 0.0
H707 H 0.06444 0.3692 0.70519 0.0
H708 H 0.90165 0.43908 0.71496 0.0
H709 H 0.85777 0.50792 0.70692 0.0
C710 C 0.47524 0.48383 0.94869 0.0
C711 C 0.45354 0.47055 0.93191 0.0
C712 C 0.52439 0.56215 0.92106 0.0
C713 C 0.54842 0.57382 0.93775 0.0
N714 N 0.55235 0.5438 0.96729 0.0
N715 N 0.46362 0.48867 0.90185 0.0
C716 C 0.52559 0.53385 0.95154 0.0
C717 C 0.47956 0.50766 0.91802 0.0
N718 N 0.44621 0.44973 0.96187 0.0
N719 N 0.54455 0.60324 0.90809 0.0
H720 H 0.43067 0.4492 0.8991 0.0
H721 H 0.48664 0.50821 0.89107 0.0
H722 H 0.58143 0.64022 0.9094 0.0
H723 H 0.52238 0.60343 0.89617 0.0
H724 H 0.45508 0.46033 0.97455 0.0
H725 H 0.40993 0.41231 0.96015 0.0
H726 H 0.54336 0.51256 0.97762 0.0
H727 H 0.58657 0.58227 0.96994 0.0
C728 C 0.48858 0.52466 0.02899 0.0
C729 C 0.5311 0.51567 0.04329 0.0
C730 C 0.46461 0.41805 0.05233 0.0
C731 C 0.42531 0.42371 0.03739 0.0
N732 N 0.4012 0.47795 0.01085 0.0
N733 N 0.56525 0.45041 0.06761 0.0
C734 C 0.43742 0.47605 0.02555 0.0
C735 C 0.52093 0.46115 0.05463 0.0
N736 N 0.49722 0.57976 0.0188 0.0
N737 N 0.44593 0.37357 0.06474 0.0
H738 H 0.60502 0.48287 0.07039 0.0
H739 H 0.5656 0.40687 0.07498 0.0
H740 H 0.4045 0.3415 0.06369 0.0
H741 H 0.46752 0.37236 0.07673 0.0
H742 H 0.46417 0.59351 0.00919 0.0
H743 H 0.53641 0.61417 0.02045 0.0
H744 H 0.41076 0.51116 0.00095 0.0
H745 H 0.36309 0.44342 0.00811 0.0
C746 C 0.48548 0.02149 0.27593 0.0
C747 C 0.4664 0.06574 0.28925 0.0
C748 C 0.53359 1.00001 0.30939 0.0
C749 C 0.55569 0.95789 0.29592 0.0
N750 N 0.56241 0.93433 0.26602 0.0
N751 N 0.47981 0.10455 0.31801 0.0
C752 C 0.53427 0.97014 0.27906 0.0
C753 C 0.49319 0.0575 0.30576 0.0
N754 N 0.45622 0.02811 0.26036 0.0
N755 N 0.54816 0.98292 0.32577 0.0
H756 H 0.44822 0.14597 0.3161 0.0
H757 H 0.50403 0.10562 0.32969 0.0
H758 H 0.57664 0.94055 0.32901 0.0
H759 H 0.52719 0.00706 0.33625 0.0
H760 H 0.4618 0.99295 0.25065 0.0
H761 H 0.42312 0.06739 0.2574 0.0
H762 H 0.55439 0.94547 0.25331 0.0
H763 H 0.59825 0.8964 0.26786 0.0
C764 C 1.00016 0.11609 0.54581 0.0
C765 C 0.98359 0.09263 0.56224 0.0
C766 C 0.07215 0.16409 0.57447 0.0
C767 C 0.09228 0.18293 0.55787 0.0
N768 N 0.08582 0.16485 0.52774 0.0
N769 N 1.00516 0.08948 0.59221 0.0
C770 C 0.05873 0.15613 0.54352 0.0
C771 C 0.01985 0.11552 0.5766 0.0
N772 N 0.96028 0.09947 0.53234 0.0
N773 N 0.10253 0.19324 0.58814 0.0
H774 H 0.96491 0.05664 0.59429 0.0
H775 H 0.03434 0.09775 0.60294 0.0
H776 H 0.14332 0.22591 0.58697 0.0
H777 H 0.08549 0.18799 0.60054 0.0
H778 H 0.96568 0.12086 0.52038 0.0
H779 H 0.91794 0.06863 0.53343 0.0
H780 H 0.06762 0.14114 0.51691 0.0
H781 H 0.13131 0.18983 0.52571 0.0
C782 C 0.03019 0.52626 0.80802 0.0
C783 C 0.97915 0.54235 0.79615 0.0
C784 C 0.02499 0.45837 0.77624 0.0
C785 C 0.07239 0.43863 0.78869 0.0
N786 N 0.11505 0.44609 0.81723 0.0
N787 N 0.92381 0.52222 0.76947 0.0
C788 C 0.07389 0.47074 0.80478 0.0
C789 C 0.97536 0.50793 0.78038 0.0
N790 N 0.03698 0.56419 0.8224 0.0
N791 N 0.02874 0.43097 0.76037 0.0
H792 H 0.88893 0.56084 0.77162 0.0
H793 H 0.91335 0.49399 0.75868 0.0
H794 H 0.06384 0.3938 0.7571 0.0
H795 H 1.00045 0.44785 0.75013 0.0
H796 H 0.07788 0.56022 0.83057 0.0
H797 H 1.00415 0.60341 0.8256 0.0
H798 H 0.11285 0.46187 0.82979 0.0
H799 H 0.14814 0.40569 0.8154 0.0
loop_
_geom_bond_atom_site_label_1
_geom_bond_atom_site_label_2
_geom_bond_distance
_geom_bond_site_symmetry_2
_ccdc_geom_bond_type
Zn0 O3 2.031 . S
Zn0 O5 2.049 . S
Zn0 O10 2.067 . S
Zn1 O2 1.962 . S
Zn1 O4 1.986 . S
Zn1 O6 1.996 . S
Zn1 O9 1.943 . S
O2 Zn1 1.962 . S
O2 C7 1.254 . S
O3 Zn0 2.031 . S
O3 C7 1.269 . S
O4 Zn1 1.986 . S
O4 C11 1.262 . S
O5 Zn0 2.049 . S
O5 C13 1.260 . S
O6 Zn1 1.996 . S
O6 C13 1.257 . S
C7 O2 1.254 . S
C7 O3 1.269 . S
C8 O9 1.249 . S
C8 O10 1.270 . S
O9 Zn1 1.943 . S
O9 C8 1.249 . S
O10 Zn0 2.067 . S
O10 C8 1.270 . S
C11 O4 1.262 . S
C11 O12 1.232 . S
O12 C11 1.232 . S
C13 O5 1.260 . S
C13 O6 1.257 . S
Zn14 O17 2.031 . S
Zn14 O19 2.049 . S
Zn14 O24 2.067 . S
Zn15 O16 1.962 . S
Zn15 O18 1.986 . S
Zn15 O20 1.996 . S
Zn15 O23 1.943 . S
O16 Zn15 1.962 . S
O16 C21 1.254 . S
O17 Zn14 2.031 . S
O17 C21 1.269 . S
O18 Zn15 1.986 . S
O18 C25 1.262 . S
O19 Zn14 2.049 . S
O19 C27 1.260 . S
O20 Zn15 1.996 . S
O20 C27 1.257 . S
C21 O16 1.254 . S
C21 O17 1.269 . S
C22 O23 1.249 . S
C22 O24 1.270 . S
O23 Zn15 1.943 . S
O23 C22 1.249 . S
O24 Zn14 2.067 . S
O24 C22 1.270 . S
C25 O18 1.262 . S
C25 O26 1.232 . S
O26 C25 1.232 . S
C27 O19 1.260 . S
C27 O20 1.257 . S
Zn28 O31 2.031 . S
Zn28 O33 2.049 . S
Zn28 O38 2.067 . S
Zn29 O30 1.962 . S
Zn29 O32 1.986 . S
Zn29 O34 1.996 . S
Zn29 O37 1.943 . S
O30 Zn29 1.962 . S
O30 C35 1.254 . S
O31 Zn28 2.031 . S
O31 C35 1.269 . S
O32 Zn29 1.986 . S
O32 C39 1.262 . S
O33 Zn28 2.049 . S
O33 C41 1.260 . S
O34 Zn29 1.996 . S
O34 C41 1.257 . S
C35 O30 1.254 . S
C35 O31 1.269 . S
C36 O37 1.249 . S
C36 O38 1.270 . S
O37 Zn29 1.943 . S
O37 C36 1.249 . S
O38 Zn28 2.067 . S
O38 C36 1.270 . S
C39 O32 1.262 . S
C39 O40 1.232 . S
O40 C39 1.232 . S
C41 O33 1.260 . S
C41 O34 1.257 . S
Zn42 O45 2.031 . S
Zn42 O47 2.049 . S
Zn42 O52 2.067 . S
Zn43 O44 1.962 . S
Zn43 O46 1.986 . S
Zn43 O48 1.996 . S
Zn43 O51 1.943 . S
O44 Zn43 1.962 . S
O44 C49 1.254 . S
O45 Zn42 2.031 . S
O45 C49 1.269 . S
O46 Zn43 1.986 . S
O46 C53 1.262 . S
O47 Zn42 2.049 . S
O47 C55 1.260 . S
O48 Zn43 1.996 . S
O48 C55 1.257 . S
C49 O44 1.254 . S
C49 O45 1.269 . S
C50 O51 1.249 . S
C50 O52 1.270 . S
O51 Zn43 1.943 . S
O51 C50 1.249 . S
O52 Zn42 2.067 . S
O52 C50 1.270 . S
C53 O46 1.262 . S
C53 O54 1.232 . S
O54 C53 1.232 . S
C55 O47 1.260 . S
C55 O48 1.257 . S
Zn56 O59 2.031 . S
Zn56 O61 2.049 . S
Zn56 O66 2.067 . S
Zn57 O58 1.962 . S
Zn57 O60 1.986 . S
Zn57 O62 1.996 . S
Zn57 O65 1.943 . S
O58 Zn57 1.962 . S
O58 C63 1.254 . S
O59 Zn56 2.031 . S
O59 C63 1.269 . S
O60 Zn57 1.986 . S
O60 C67 1.262 . S
O61 Zn56 2.049 . S
O61 C69 1.260 . S
O62 Zn57 1.996 . S
O62 C69 1.257 . S
C63 O58 1.254 . S
C63 O59 1.269 . S
C64 O65 1.249 . S
C64 O66 1.270 . S
O65 Zn57 1.943 . S
O65 C64 1.249 . S
O66 Zn56 2.067 . S
O66 C64 1.270 . S
C67 O60 1.262 . S
C67 O68 1.232 . S
O68 C67 1.232 . S
C69 O61 1.260 . S
C69 O62 1.257 . S
Zn70 O73 2.031 . S
Zn70 O75 2.049 . S
Zn70 O80 2.067 . S
Zn71 O72 1.962 . S
Zn71 O74 1.986 . S
Zn71 O76 1.996 . S
Zn71 O79 1.943 . S
O72 Zn71 1.962 . S
O72 C77 1.254 . S
O73 Zn70 2.031 . S
O73 C77 1.269 . S
O74 Zn71 1.986 . S
O74 C81 1.262 . S
O75 Zn70 2.049 . S
O75 C83 1.260 . S
O76 Zn71 1.996 . S
O76 C83 1.257 . S
C77 O72 1.254 . S
C77 O73 1.269 . S
C78 O79 1.249 . S
C78 O80 1.270 . S
O79 Zn71 1.943 . S
O79 C78 1.249 . S
O80 Zn70 2.067 . S
O80 C78 1.270 . S
C81 O74 1.262 . S
C81 O82 1.232 . S
O82 C81 1.232 . S
C83 O75 1.260 . S
C83 O76 1.257 . S
Zn84 O87 2.031 . S
Zn84 O89 2.049 . S
Zn84 O94 2.067 . S
Zn85 O86 1.962 . S
Zn85 O88 1.986 . S
Zn85 O90 1.996 . S
Zn85 O93 1.943 . S
O86 Zn85 1.962 . S
O86 C91 1.254 . S
O87 Zn84 2.031 . S
O87 C91 1.269 . S
O88 Zn85 1.986 . S
O88 C95 1.262 . S
O89 Zn84 2.049 . S
O89 C97 1.260 . S
O90 Zn85 1.996 . S
O90 C97 1.257 . S
C91 O86 1.254 . S
C91 O87 1.269 . S
C92 O93 1.249 . S
C92 O94 1.270 . S
O93 Zn85 1.943 . S
O93 C92 1.249 . S
O94 Zn84 2.067 . S
O94 C92 1.270 . S
C95 O88 1.262 . S
C95 O96 1.232 . S
O96 C95 1.232 . S
C97 O89 1.260 . S
C97 O90 1.257 . S
Zn98 O101 2.031 . S
Zn98 O103 2.049 . S
Zn98 O108 2.067 . S
Zn99 O100 1.962 . S
Zn99 O102 1.986 . S
Zn99 O104 1.996 . S
Zn99 O107 1.943 . S
O100 Zn99 1.962 . S
O100 C105 1.254 . S
O101 Zn98 2.031 . S
O101 C105 1.269 . S
O102 Zn99 1.986 . S
O102 C109 1.262 . S
O103 Zn98 2.049 . S
O103 C111 1.260 . S
O104 Zn99 1.996 . S
O104 C111 1.257 . S
C105 O100 1.254 . S
C105 O101 1.269 . S
C106 O107 1.249 . S
C106 O108 1.270 . S
O107 Zn99 1.943 . S
O107 C106 1.249 . S
O108 Zn98 2.067 . S
O108 C106 1.270 . S
C109 O102 1.262 . S
C109 O110 1.232 . S
O110 C109 1.232 . S
C111 O103 1.260 . S
C111 O104 1.257 . S
Zn112 O115 2.031 . S
Zn112 O117 2.049 . S
Zn112 O122 2.067 . S
Zn113 O114 1.962 . S
Zn113 O116 1.986 . S
Zn113 O118 1.996 . S
Zn113 O121 1.943 . S
O114 Zn113 1.962 . S
O114 C119 1.254 . S
O115 Zn112 2.031 . S
O115 C119 1.269 . S
O116 Zn113 1.986 . S
O116 C123 1.262 . S
O117 Zn112 2.049 . S
O117 C125 1.260 . S
O118 Zn113 1.996 . S
O118 C125 1.257 . S
C119 O114 1.254 . S
C119 O115 1.269 . S
C120 O121 1.249 . S
C120 O122 1.270 . S
O121 Zn113 1.943 . S
O121 C120 1.249 . S
O122 Zn112 2.067 . S
O122 C120 1.270 . S
C123 O116 1.262 . S
C123 O124 1.232 . S
O124 C123 1.232 . S
C125 O117 1.260 . S
C125 O118 1.257 . S
Zn126 O129 2.031 . S
Zn126 O131 2.049 . S
Zn126 O136 2.067 . S
Zn127 O128 1.962 . S
Zn127 O130 1.986 . S
Zn127 O132 1.996 . S
Zn127 O135 1.943 . S
O128 Zn127 1.962 . S
O128 C133 1.254 . S
O129 Zn126 2.031 . S
O129 C133 1.269 . S
O130 Zn127 1.986 . S
O130 C137 1.262 . S
O131 Zn126 2.049 . S
O131 C139 1.260 . S
O132 Zn127 1.996 . S
O132 C139 1.257 . S
C133 O128 1.254 . S
C133 O129 1.269 . S
C134 O135 1.249 . S
C134 O136 1.270 . S
O135 Zn127 1.943 . S
O135 C134 1.249 . S
O136 Zn126 2.067 . S
O136 C134 1.270 . S
C137 O130 1.262 . S
C137 O138 1.232 . S
O138 C137 1.232 . S
C139 O131 1.260 . S
C139 O132 1.257 . S
Zn140 O143 2.031 . S
Zn140 O145 2.049 . S
Zn140 O150 2.067 . S
Zn141 O142 1.962 . S
Zn141 O144 1.986 . S
Zn141 O146 1.996 . S
Zn141 O149 1.943 . S
O142 Zn141 1.962 . S
O142 C147 1.254 . S
O143 Zn140 2.031 . S
O143 C147 1.269 . S
O144 Zn141 1.986 . S
O144 C151 1.262 . S
O145 Zn140 2.049 . S
O145 C153 1.260 . S
O146 Zn141 1.996 . S
O146 C153 1.257 . S
C147 O142 1.254 . S
C147 O143 1.269 . S
C148 O149 1.249 . S
C148 O150 1.270 . S
O149 Zn141 1.943 . S
O149 C148 1.249 . S
O150 Zn140 2.067 . S
O150 C148 1.270 . S
C151 O144 1.262 . S
C151 O152 1.232 . S
O152 C151 1.232 . S
C153 O145 1.260 . S
C153 O146 1.257 . S
Zn154 O157 2.031 . S
Zn154 O159 2.049 . S
Zn154 O164 2.067 . S
Zn155 O156 1.962 . S
Zn155 O158 1.986 . S
Zn155 O160 1.996 . S
Zn155 O163 1.943 . S
O156 Zn155 1.962 . S
O156 C161 1.254 . S
O157 Zn154 2.031 . S
O157 C161 1.269 . S
O158 Zn155 1.986 . S
O158 C165 1.262 . S
O159 Zn154 2.049 . S
O159 C167 1.260 . S
O160 Zn155 1.996 . S
O160 C167 1.257 . S
C161 O156 1.254 . S
C161 O157 1.269 . S
C162 O163 1.249 . S
C162 O164 1.270 . S
O163 Zn155 1.943 . S
O163 C162 1.249 . S
O164 Zn154 2.067 . S
O164 C162 1.270 . S
C165 O158 1.262 . S
C165 O166 1.232 . S
O166 C165 1.232 . S
C167 O159 1.260 . S
C167 O160 1.257 . S
Zn168 O171 2.031 . S
Zn168 O173 2.049 . S
Zn168 O178 2.067 . S
Zn169 O170 1.962 . S
Zn169 O172 1.986 . S
Zn169 O174 1.996 . S
Zn169 O177 1.943 . S
O170 Zn169 1.962 . S
O170 C175 1.254 . S
O171 Zn168 2.031 . S
O171 C175 1.269 . S
O172 Zn169 1.986 . S
O172 C179 1.262 . S
O173 Zn168 2.049 . S
O173 C181 1.260 . S
O174 Zn169 1.996 . S
O174 C181 1.257 . S
C175 O170 1.254 . S
C175 O171 1.269 . S
C176 O177 1.249 . S
C176 O178 1.270 . S
O177 Zn169 1.943 . S
O177 C176 1.249 . S
O178 Zn168 2.067 . S
O178 C176 1.270 . S
C179 O172 1.262 . S
C179 O180 1.232 . S
O180 C179 1.232 . S
C181 O173 1.260 . S
C181 O174 1.257 . S
Zn182 O185 2.031 . S
Zn182 O187 2.049 . S
Zn182 O192 2.067 . S
Zn183 O184 1.962 . S
Zn183 O186 1.986 . S
Zn183 O188 1.996 . S
Zn183 O191 1.943 . S
O184 Zn183 1.962 . S
O184 C189 1.254 . S
O185 Zn182 2.031 . S
O185 C189 1.269 . S
O186 Zn183 1.986 . S
O186 C193 1.262 . S
O187 Zn182 2.049 . S
O187 C195 1.260 . S
O188 Zn183 1.996 . S
O188 C195 1.257 . S
C189 O184 1.254 . S
C189 O185 1.269 . S
C190 O191 1.249 . S
C190 O192 1.270 . S
O191 Zn183 1.943 . S
O191 C190 1.249 . S
O192 Zn182 2.067 . S
O192 C190 1.270 . S
C193 O186 1.262 . S
C193 O194 1.232 . S
O194 C193 1.232 . S
C195 O187 1.260 . S
C195 O188 1.257 . S
Zn196 O199 2.031 . S
Zn196 O201 2.049 . S
Zn196 O206 2.067 . S
Zn197 O198 1.962 . S
Zn197 O200 1.986 . S
Zn197 O202 1.996 . S
Zn197 O205 1.943 . S
O198 Zn197 1.962 . S
O198 C203 1.254 . S
O199 Zn196 2.031 . S
O199 C203 1.269 . S
O200 Zn197 1.986 . S
O200 C207 1.262 . S
O201 Zn196 2.049 . S
O201 C209 1.260 . S
O202 Zn197 1.996 . S
O202 C209 1.257 . S
C203 O198 1.254 . S
C203 O199 1.269 . S
C204 O205 1.249 . S
C204 O206 1.270 . S
O205 Zn197 1.943 . S
O205 C204 1.249 . S
O206 Zn196 2.067 . S
O206 C204 1.270 . S
C207 O200 1.262 . S
C207 O208 1.232 . S
O208 C207 1.232 . S
C209 O201 1.260 . S
C209 O202 1.257 . S
Zn210 O213 2.031 . S
Zn210 O215 2.049 . S
Zn210 O220 2.067 . S
Zn211 O212 1.962 . S
Zn211 O214 1.986 . S
Zn211 O216 1.996 . S
Zn211 O219 1.943 . S
O212 Zn211 1.962 . S
O212 C217 1.254 . S
O213 Zn210 2.031 . S
O213 C217 1.269 . S
O214 Zn211 1.986 . S
O214 C221 1.262 . S
O215 Zn210 2.049 . S
O215 C223 1.260 . S
O216 Zn211 1.996 . S
O216 C223 1.257 . S
C217 O212 1.254 . S
C217 O213 1.269 . S
C218 O219 1.249 . S
C218 O220 1.270 . S
O219 Zn211 1.943 . S
O219 C218 1.249 . S
O220 Zn210 2.067 . S
O220 C218 1.270 . S
C221 O214 1.262 . S
C221 O222 1.232 . S
O222 C221 1.232 . S
C223 O215 1.260 . S
C223 O216 1.257 . S
C224 C225 1.363 . S
C224 C230 1.379 . S
C224 N232 1.356 . S
C225 C224 1.363 . S
C225 C231 1.363 . S
C226 C227 1.363 . S
C226 C231 1.379 . S
C226 N233 1.356 . S
C227 C226 1.363 . S
C227 C230 1.363 . S
N228 C230 1.356 . S
N228 H240 0.984 . S
N228 H241 0.985 . S
N229 C231 1.356 . S
N229 H234 0.984 . S
N229 H235 0.985 . S
C230 C224 1.379 . S
C230 C227 1.363 . S
C230 N228 1.356 . S
C231 C225 1.363 . S
C231 C226 1.379 . S
C231 N229 1.356 . S
N232 C224 1.356 . S
N232 H238 0.984 . S
N232 H239 0.984 . S
N233 C226 1.356 . S
N233 H236 0.984 . S
N233 H237 0.985 . S
H234 N229 0.984 . S
H235 N229 0.985 . S
H236 N233 0.984 . S
H237 N233 0.985 . S
H238 N232 0.984 . S
H239 N232 0.984 . S
H240 N228 0.984 . S
H241 N228 0.985 . S
C242 C243 1.363 . S
C242 C248 1.379 . S
C242 N250 1.356 . S
C243 C242 1.363 . S
C243 C249 1.363 . S
C244 C245 1.363 . S
C244 C249 1.379 . S
C244 N251 1.356 . S
C245 C244 1.363 . S
C245 C248 1.363 . S
N246 C248 1.356 . S
N246 H258 0.984 . S
N246 H259 0.985 . S
N247 C249 1.356 . S
N247 H252 0.984 . S
N247 H253 0.985 . S
C248 C242 1.379 . S
C248 C245 1.363 . S
C248 N246 1.356 . S
C249 C243 1.363 . S
C249 C244 1.379 . S
C249 N247 1.356 . S
N250 C242 1.356 . S
N250 H256 0.984 . S
N250 H257 0.984 . S
N251 C244 1.356 . S
N251 H254 0.984 . S
N251 H255 0.985 . S
H252 N247 0.984 . S
H253 N247 0.985 . S
H254 N251 0.984 . S
H255 N251 0.985 . S
H256 N250 0.984 . S
H257 N250 0.984 . S
H258 N246 0.984 . S
H259 N246 0.985 . S
C260 C261 1.363 . S
C260 C266 1.379 . S
C260 N268 1.356 . S
C261 C260 1.363 . S
C261 C267 1.363 . S
C262 C263 1.363 . S
C262 C267 1.379 . S
C262 N269 1.356 . S
C263 C262 1.363 . S
C263 C266 1.363 . S
N264 C266 1.356 . S
N264 H276 0.984 . S
N264 H277 0.985 . S
N265 C267 1.356 . S
N265 H270 0.984 . S
N265 H271 0.985 . S
C266 C260 1.379 . S
C266 C263 1.363 . S
C266 N264 1.356 . S
C267 C261 1.363 . S
C267 C262 1.379 . S
C267 N265 1.356 . S
N268 C260 1.356 . S
N268 H274 0.984 . S
N268 H275 0.984 . S
N269 C262 1.356 . S
N269 H272 0.984 . S
N269 H273 0.985 . S
H270 N265 0.984 . S
H271 N265 0.985 . S
H272 N269 0.984 . S
H273 N269 0.985 . S
H274 N268 0.984 . S
H275 N268 0.984 . S
H276 N264 0.984 . S
H277 N264 0.985 . S
C278 C279 1.363 . S
C278 C284 1.379 . S
C278 N286 1.356 . S
C279 C278 1.363 . S
C279 C285 1.363 . S
C280 C281 1.363 . S
C280 C285 1.379 . S
C280 N287 1.356 . S
C281 C280 1.363 . S
C281 C284 1.363 . S
N282 C284 1.356 . S
N282 H294 0.984 . S
N282 H295 0.985 . S
N283 C285 1.356 . S
N283 H288 0.984 . S
N283 H289 0.985 . S
C284 C278 1.379 . S
C284 C281 1.363 . S
C284 N282 1.356 . S
C285 C279 1.363 . S
C285 C280 1.379 . S
C285 N283 1.356 . S
N286 C278 1.356 . S
N286 H292 0.984 . S
N286 H293 0.984 . S
N287 C280 1.356 . S
N287 H290 0.984 . S
N287 H291 0.985 . S
H288 N283 0.984 . S
H289 N283 0.985 . S
H290 N287 0.984 . S
H291 N287 0.985 . S
H292 N286 0.984 . S
H293 N286 0.984 . S
H294 N282 0.984 . S
H295 N282 0.985 . S
C296 C297 1.363 . S
C296 C302 1.379 . S
C296 N304 1.356 . S
C297 C296 1.363 . S
C297 C303 1.363 . S
C298 C299 1.363 . S
C298 C303 1.379 . S
C298 N305 1.356 . S
C299 C298 1.363 . S
C299 C302 1.363 . S
N300 C302 1.356 . S
N300 H312 0.984 . S
N300 H313 0.985 . S
N301 C303 1.356 . S
N301 H306 0.984 . S
N301 H307 0.985 . S
C302 C296 1.379 . S
C302 C299 1.363 . S
C302 N300 1.356 . S
C303 C297 1.363 . S
C303 C298 1.379 . S
C303 N301 1.356 . S
N304 C296 1.356 . S
N304 H310 0.984 . S
N304 H311 0.984 . S
N305 C298 1.356 . S
N305 H308 0.984 . S
N305 H309 0.985 . S
H306 N301 0.984 . S
H307 N301 0.985 . S
H308 N305 0.984 . S
H309 N305 0.985 . S
H310 N304 0.984 . S
H311 N304 0.984 . S
H312 N300 0.984 . S
H313 N300 0.985 . S
C314 C315 1.363 . S
C314 C320 1.379 . S
C314 N322 1.356 . S
C315 C314 1.363 . S
C315 C321 1.363 . S
C316 C317 1.363 . S
C316 C321 1.379 . S
C316 N323 1.356 . S
C317 C316 1.363 . S
C317 C320 1.363 . S
N318 C320 1.356 . S
N318 H330 0.984 . S
N318 H331 0.985 . S
N319 C321 1.356 . S
N319 H324 0.984 . S
N319 H325 0.985 . S
C320 C314 1.379 . S
C320 C317 1.363 . S
C320 N318 1.356 . S
C321 C315 1.363 . S
C321 C316 1.379 . S
C321 N319 1.356 . S
N322 C314 1.356 . S
N322 H328 0.984 . S
N322 H329 0.984 . S
N323 C316 1.356 . S
N323 H326 0.984 . S
N323 H327 0.985 . S
H324 N319 0.984 . S
H325 N319 0.985 . S
H326 N323 0.984 . S
H327 N323 0.985 . S
H328 N322 0.984 . S
H329 N322 0.984 . S
H330 N318 0.984 . S
H331 N318 0.985 . S
C332 C333 1.363 . S
C332 C338 1.379 . S
C332 N340 1.356 . S
C333 C332 1.363 . S
C333 C339 1.363 . S
C334 C335 1.363 . S
C334 C339 1.379 . S
C334 N341 1.356 . S
C335 C334 1.363 . S
C335 C338 1.363 . S
N336 C338 1.356 . S
N336 H348 0.984 . S
N336 H349 0.985 . S
N337 C339 1.356 . S
N337 H342 0.984 . S
N337 H343 0.985 . S
C338 C332 1.379 . S
C338 C335 1.363 . S
C338 N336 1.356 . S
C339 C333 1.363 . S
C339 C334 1.379 . S
C339 N337 1.356 . S
N340 C332 1.356 . S
N340 H346 0.984 . S
N340 H347 0.984 . S
N341 C334 1.356 . S
N341 H344 0.984 . S
N341 H345 0.985 . S
H342 N337 0.984 . S
H343 N337 0.985 . S
H344 N341 0.984 . S
H345 N341 0.985 . S
H346 N340 0.984 . S
H347 N340 0.984 . S
H348 N336 0.984 . S
H349 N336 0.985 . S
C350 C351 1.363 . S
C350 C356 1.379 . S
C350 N358 1.356 . S
C351 C350 1.363 . S
C351 C357 1.363 . S
C352 C353 1.363 . S
C352 C357 1.379 . S
C352 N359 1.356 . S
C353 C352 1.363 . S
C353 C356 1.363 . S
N354 C356 1.356 . S
N354 H366 0.984 . S
N354 H367 0.985 . S
N355 C357 1.356 . S
N355 H360 0.984 . S
N355 H361 0.985 . S
C356 C350 1.379 . S
C356 C353 1.363 . S
C356 N354 1.356 . S
C357 C351 1.363 . S
C357 C352 1.379 . S
C357 N355 1.356 . S
N358 C350 1.356 . S
N358 H364 0.984 . S
N358 H365 0.984 . S
N359 C352 1.356 . S
N359 H362 0.984 . S
N359 H363 0.985 . S
H360 N355 0.984 . S
H361 N355 0.985 . S
H362 N359 0.984 . S
H363 N359 0.985 . S
H364 N358 0.984 . S
H365 N358 0.984 . S
H366 N354 0.984 . S
H367 N354 0.985 . S
C368 C369 1.363 . S
C368 C374 1.379 . S
C368 N376 1.356 . S
C369 C368 1.363 . S
C369 C375 1.363 . S
C370 C371 1.363 . S
C370 C375 1.379 . S
C370 N377 1.356 . S
C371 C370 1.363 . S
C371 C374 1.363 . S
N372 C374 1.356 . S
N372 H384 0.984 . S
N372 H385 0.985 . S
N373 C375 1.356 . S
N373 H378 0.984 . S
N373 H379 0.985 . S
C374 C368 1.379 . S
C374 C371 1.363 . S
C374 N372 1.356 . S
C375 C369 1.363 . S
C375 C370 1.379 . S
C375 N373 1.356 . S
N376 C368 1.356 . S
N376 H382 0.984 . S
N376 H383 0.984 . S
N377 C370 1.356 . S
N377 H380 0.984 . S
N377 H381 0.985 . S
H378 N373 0.984 . S
H379 N373 0.985 . S
H380 N377 0.984 . S
H381 N377 0.985 . S
H382 N376 0.984 . S
H383 N376 0.984 . S
H384 N372 0.984 . S
H385 N372 0.985 . S
C386 C387 1.363 . S
C386 C392 1.379 . S
C386 N394 1.356 . S
C387 C386 1.363 . S
C387 C393 1.363 . S
C388 C389 1.363 . S
C388 C393 1.379 . S
C388 N395 1.356 . S
C389 C388 1.363 . S
C389 C392 1.363 . S
N390 C392 1.356 . S
N390 H402 0.984 . S
N390 H403 0.985 . S
N391 C393 1.356 . S
N391 H396 0.984 . S
N391 H397 0.985 . S
C392 C386 1.379 . S
C392 C389 1.363 . S
C392 N390 1.356 . S
C393 C387 1.363 . S
C393 C388 1.379 . S
C393 N391 1.356 . S
N394 C386 1.356 . S
N394 H400 0.984 . S
N394 H401 0.984 . S
N395 C388 1.356 . S
N395 H398 0.984 . S
N395 H399 0.985 . S
H396 N391 0.984 . S
H397 N391 0.985 . S
H398 N395 0.984 . S
H399 N395 0.985 . S
H400 N394 0.984 . S
H401 N394 0.984 . S
H402 N390 0.984 . S
H403 N390 0.985 . S
C404 C405 1.363 . S
C404 C410 1.379 . S
C404 N412 1.356 . S
C405 C404 1.363 . S
C405 C411 1.363 . S
C406 C407 1.363 . S
C406 C411 1.379 . S
C406 N413 1.356 . S
C407 C406 1.363 . S
C407 C410 1.363 . S
N408 C410 1.356 . S
N408 H420 0.984 . S
N408 H421 0.985 . S
N409 C411 1.356 . S
N409 H414 0.984 . S
N409 H415 0.985 . S
C410 C404 1.379 . S
C410 C407 1.363 . S
C410 N408 1.356 . S
C411 C405 1.363 . S
C411 C406 1.379 . S
C411 N409 1.356 . S
N412 C404 1.356 . S
N412 H418 0.984 . S
N412 H419 0.984 . S
N413 C406 1.356 . S
N413 H416 0.984 . S
N413 H417 0.985 . S
H414 N409 0.984 . S
H415 N409 0.985 . S
H416 N413 0.984 . S
H417 N413 0.985 . S
H418 N412 0.984 . S
H419 N412 0.984 . S
H420 N408 0.984 . S
H421 N408 0.985 . S
C422 C423 1.363 . S
C422 C428 1.379 1_554 S
C422 N430 1.356 . S
C423 C422 1.363 . S
C423 C429 1.363 . S
C424 C425 1.363 . S
C424 C429 1.379 1_556 S
C424 N431 1.356 . S
C425 C424 1.363 . S
C425 C428 1.363 . S
N426 C428 1.356 . S
N426 H438 0.984 . S
N426 H439 0.985 . S
N427 C429 1.356 . S
N427 H432 0.984 . S
N427 H433 0.985 . S
C428 C422 1.379 1_556 S
C428 C425 1.363 . S
C428 N426 1.356 . S
C429 C423 1.363 . S
C429 C424 1.379 1_554 S
C429 N427 1.356 . S
N430 C422 1.356 . S
N430 H436 0.984 . S
N430 H437 0.984 . S
N431 C424 1.356 . S
N431 H434 0.984 . S
N431 H435 0.985 . S
H432 N427 0.984 . S
H433 N427 0.985 . S
H434 N431 0.984 . S
H435 N431 0.985 . S
H436 N430 0.984 . S
H437 N430 0.984 . S
H438 N426 0.984 . S
H439 N426 0.985 . S
C440 C441 1.363 . S
C440 C446 1.379 1_554 S
C440 N448 1.356 . S
C441 C440 1.363 . S
C441 C447 1.363 . S
C442 C443 1.363 . S
C442 C447 1.379 1_556 S
C442 N449 1.356 . S
C443 C442 1.363 . S
C443 C446 1.363 . S
N444 C446 1.356 . S
N444 H456 0.984 . S
N444 H457 0.985 . S
N445 C447 1.356 . S
N445 H450 0.984 . S
N445 H451 0.985 . S
C446 C440 1.379 1_556 S
C446 C443 1.363 . S
C446 N444 1.356 . S
C447 C441 1.363 . S
C447 C442 1.379 1_554 S
C447 N445 1.356 . S
N448 C440 1.356 . S
N448 H454 0.984 . S
N448 H455 0.984 . S
N449 C442 1.356 . S
N449 H452 0.984 . S
N449 H453 0.985 . S
H450 N445 0.984 . S
H451 N445 0.985 . S
H452 N449 0.984 . S
H453 N449 0.985 . S
H454 N448 0.984 . S
H455 N448 0.984 . S
H456 N444 0.984 . S
H457 N444 0.985 . S
C458 C459 1.363 . S
C458 C464 1.379 . S
C458 N466 1.356 . S
C459 C458 1.363 . S
C459 C465 1.363 . S
C460 C461 1.363 . S
C460 C465 1.379 . S
C460 N467 1.356 . S
C461 C460 1.363 . S
C461 C464 1.363 . S
N462 C464 1.356 . S
N462 H474 0.984 . S
N462 H475 0.985 . S
N463 C465 1.356 . S
N463 H468 0.984 . S
N463 H469 0.985 . S
C464 C458 1.379 . S
C464 C461 1.363 . S
C464 N462 1.356 . S
C465 C459 1.363 . S
C465 C460 1.379 . S
C465 N463 1.356 . S
N466 C458 1.356 . S
N466 H472 0.984 . S
N466 H473 0.984 . S
N467 C460 1.356 . S
N467 H470 0.984 . S
N467 H471 0.985 . S
H468 N463 0.984 . S
H469 N463 0.985 . S
H470 N467 0.984 . S
H471 N467 0.985 . S
H472 N466 0.984 . S
H473 N466 0.984 . S
H474 N462 0.984 . S
H475 N462 0.985 . S
C476 C477 1.363 . S
C476 C482 1.379 . S
C476 N484 1.356 . S
C477 C476 1.363 . S
C477 C483 1.363 . S
C478 C479 1.363 . S
C478 C483 1.379 . S
C478 N485 1.356 . S
C479 C478 1.363 . S
C479 C482 1.363 . S
N480 C482 1.356 . S
N480 H492 0.984 . S
N480 H493 0.985 . S
N481 C483 1.356 . S
N481 H486 0.984 . S
N481 H487 0.985 . S
C482 C476 1.379 . S
C482 C479 1.363 . S
C482 N480 1.356 . S
C483 C477 1.363 . S
C483 C478 1.379 . S
C483 N481 1.356 . S
N484 C476 1.356 . S
N484 H490 0.984 . S
N484 H491 0.984 . S
N485 C478 1.356 . S
N485 H488 0.984 . S
N485 H489 0.985 . S
H486 N481 0.984 . S
H487 N481 0.985 . S
H488 N485 0.984 . S
H489 N485 0.985 . S
H490 N484 0.984 . S
H491 N484 0.984 . S
H492 N480 0.984 . S
H493 N480 0.985 . S
C494 C495 1.363 . S
C494 C500 1.379 . S
C494 N502 1.356 . S
C495 C494 1.363 . S
C495 C501 1.363 . S
C496 C497 1.363 . S
C496 C501 1.379 . S
C496 N503 1.356 . S
C497 C496 1.363 . S
C497 C500 1.363 . S
N498 C500 1.356 . S
N498 H510 0.984 . S
N498 H511 0.985 . S
N499 C501 1.356 . S
N499 H504 0.984 . S
N499 H505 0.985 . S
C500 C494 1.379 . S
C500 C497 1.363 . S
C500 N498 1.356 . S
C501 C495 1.363 . S
C501 C496 1.379 . S
C501 N499 1.356 . S
N502 C494 1.356 . S
N502 H508 0.984 . S
N502 H509 0.984 . S
N503 C496 1.356 . S
N503 H506 0.984 . S
N503 H507 0.985 . S
H504 N499 0.984 . S
H505 N499 0.985 . S
H506 N503 0.984 . S
H507 N503 0.985 . S
H508 N502 0.984 . S
H509 N502 0.984 . S
H510 N498 0.984 . S
H511 N498 0.985 . S
C512 C513 1.363 1_565 S
C512 C518 1.379 1_455 S
C512 N520 1.356 . S
C513 C512 1.363 1_545 S
C513 C519 1.363 . S
C514 C515 1.363 1_545 S
C514 C519 1.379 1_655 S
C514 N521 1.356 . S
C515 C514 1.363 1_565 S
C515 C518 1.363 . S
N516 C518 1.356 . S
N516 H528 0.984 . S
N516 H529 0.985 . S
N517 C519 1.356 . S
N517 H522 0.984 . S
N517 H523 0.985 . S
C518 C512 1.379 1_655 S
C518 C515 1.363 . S
C518 N516 1.356 . S
C519 C513 1.363 . S
C519 C514 1.379 1_455 S
C519 N517 1.356 . S
N520 C512 1.356 . S
N520 H526 0.984 . S
N520 H527 0.984 . S
N521 C514 1.356 . S
N521 H524 0.984 . S
N521 H525 0.985 . S
H522 N517 0.984 . S
H523 N517 0.985 . S
H524 N521 0.984 . S
H525 N521 0.985 . S
H526 N520 0.984 . S
H527 N520 0.984 . S
H528 N516 0.984 . S
H529 N516 0.985 . S
C530 C531 1.363 1_655 S
C530 C536 1.379 . S
C530 N538 1.356 . S
C531 C530 1.363 1_455 S
C531 C537 1.363 . S
C532 C533 1.363 1_455 S
C532 C537 1.379 . S
C532 N539 1.356 . S
C533 C532 1.363 1_655 S
C533 C536 1.363 . S
N534 C536 1.356 . S
N534 H546 0.984 . S
N534 H547 0.985 . S
N535 C537 1.356 . S
N535 H540 0.984 . S
N535 H541 0.985 . S
C536 C530 1.379 . S
C536 C533 1.363 . S
C536 N534 1.356 . S
C537 C531 1.363 . S
C537 C532 1.379 . S
C537 N535 1.356 . S
N538 C530 1.356 . S
N538 H544 0.984 . S
N538 H545 0.984 . S
N539 C532 1.356 . S
N539 H542 0.984 . S
N539 H543 0.985 . S
H540 N535 0.984 . S
H541 N535 0.985 . S
H542 N539 0.984 . S
H543 N539 0.985 . S
H544 N538 0.984 . S
H545 N538 0.984 . S
H546 N534 0.984 . S
H547 N534 0.985 . S
C548 C549 1.363 . S
C548 C554 1.379 . S
C548 N556 1.356 . S
C549 C548 1.363 . S
C549 C555 1.363 . S
C550 C551 1.363 . S
C550 C555 1.379 . S
C550 N557 1.356 . S
C551 C550 1.363 . S
C551 C554 1.363 . S
N552 C554 1.356 . S
N552 H564 0.984 . S
N552 H565 0.985 . S
N553 C555 1.356 . S
N553 H558 0.984 . S
N553 H559 0.985 . S
C554 C548 1.379 . S
C554 C551 1.363 . S
C554 N552 1.356 . S
C555 C549 1.363 . S
C555 C550 1.379 . S
C555 N553 1.356 . S
N556 C548 1.356 . S
N556 H562 0.984 . S
N556 H563 0.984 . S
N557 C550 1.356 . S
N557 H560 0.984 . S
N557 H561 0.985 . S
H558 N553 0.984 . S
H559 N553 0.985 . S
H560 N557 0.984 . S
H561 N557 0.985 . S
H562 N556 0.984 . S
H563 N556 0.984 . S
H564 N552 0.984 . S
H565 N552 0.985 . S
C566 C567 1.363 . S
C566 C572 1.379 1_545 S
C566 N574 1.356 . S
C567 C566 1.363 . S
C567 C573 1.363 . S
C568 C569 1.363 . S
C568 C573 1.379 1_565 S
C568 N575 1.356 . S
C569 C568 1.363 . S
C569 C572 1.363 . S
N570 C572 1.356 . S
N570 H582 0.984 . S
N570 H583 0.985 . S
N571 C573 1.356 . S
N571 H576 0.984 . S
N571 H577 0.985 . S
C572 C566 1.379 1_565 S
C572 C569 1.363 . S
C572 N570 1.356 . S
C573 C567 1.363 . S
C573 C568 1.379 1_545 S
C573 N571 1.356 . S
N574 C566 1.356 . S
N574 H580 0.984 . S
N574 H581 0.984 . S
N575 C568 1.356 . S
N575 H578 0.984 . S
N575 H579 0.985 . S
H576 N571 0.984 . S
H577 N571 0.985 . S
H578 N575 0.984 . S
H579 N575 0.985 . S
H580 N574 0.984 . S
H581 N574 0.984 . S
H582 N570 0.984 . S
H583 N570 0.985 . S
C584 C585 1.363 . S
C584 C590 1.379 1_455 S
C584 N592 1.356 . S
C585 C584 1.363 . S
C585 C591 1.363 . S
C586 C587 1.363 . S
C586 C591 1.379 1_655 S
C586 N593 1.356 . S
C587 C586 1.363 . S
C587 C590 1.363 . S
N588 C590 1.356 . S
N588 H600 0.984 . S
N588 H601 0.985 . S
N589 C591 1.356 . S
N589 H594 0.984 . S
N589 H595 0.985 . S
C590 C584 1.379 1_655 S
C590 C587 1.363 . S
C590 N588 1.356 . S
C591 C585 1.363 . S
C591 C586 1.379 1_455 S
C591 N589 1.356 . S
N592 C584 1.356 . S
N592 H598 0.984 . S
N592 H599 0.984 . S
N593 C586 1.356 . S
N593 H596 0.984 . S
N593 H597 0.985 . S
H594 N589 0.984 . S
H595 N589 0.985 . S
H596 N593 0.984 . S
H597 N593 0.985 . S
H598 N592 0.984 . S
H599 N592 0.984 . S
H600 N588 0.984 . S
H601 N588 0.985 . S
C602 C603 1.363 . S
C602 C608 1.379 . S
C602 N610 1.356 . S
C603 C602 1.363 . S
C603 C609 1.363 . S
C604 C605 1.363 . S
C604 C609 1.379 . S
C604 N611 1.356 . S
C605 C604 1.363 . S
C605 C608 1.363 . S
N606 C608 1.356 . S
N606 H618 0.984 . S
N606 H619 0.985 . S
N607 C609 1.356 . S
N607 H612 0.984 . S
N607 H613 0.985 . S
C608 C602 1.379 . S
C608 C605 1.363 . S
C608 N606 1.356 . S
C609 C603 1.363 . S
C609 C604 1.379 . S
C609 N607 1.356 . S
N610 C602 1.356 . S
N610 H616 0.984 . S
N610 H617 0.984 . S
N611 C604 1.356 . S
N611 H614 0.984 . S
N611 H615 0.985 . S
H612 N607 0.984 . S
H613 N607 0.985 . S
H614 N611 0.984 . S
H615 N611 0.985 . S
H616 N610 0.984 . S
H617 N610 0.984 . S
H618 N606 0.984 . S
H619 N606 0.985 . S
C620 C621 1.363 . S
C620 C626 1.379 . S
C620 N628 1.356 . S
C621 C620 1.363 . S
C621 C627 1.363 1_565 S
C622 C623 1.363 . S
C622 C627 1.379 . S
C622 N629 1.356 . S
C623 C622 1.363 . S
C623 C626 1.363 1_545 S
N624 C626 1.356 . S
N624 H636 0.984 . S
N624 H637 0.985 . S
N625 C627 1.356 . S
N625 H630 0.984 . S
N625 H631 0.985 . S
C626 C620 1.379 . S
C626 C623 1.363 1_565 S
C626 N624 1.356 . S
C627 C621 1.363 1_545 S
C627 C622 1.379 . S
C627 N625 1.356 . S
N628 C620 1.356 . S
N628 H634 0.984 . S
N628 H635 0.984 . S
N629 C622 1.356 . S
N629 H632 0.984 . S
N629 H633 0.985 . S
H630 N625 0.984 . S
H631 N625 0.985 . S
H632 N629 0.984 . S
H633 N629 0.985 . S
H634 N628 0.984 . S
H635 N628 0.984 . S
H636 N624 0.984 . S
H637 N624 0.985 . S
C638 C639 1.363 . S
C638 C644 1.379 1_545 S
C638 N646 1.356 . S
C639 C638 1.363 . S
C639 C645 1.363 1_455 S
C640 C641 1.363 . S
C640 C645 1.379 1_565 S
C640 N647 1.356 . S
C641 C640 1.363 . S
C641 C644 1.363 1_655 S
N642 C644 1.356 . S
N642 H654 0.984 . S
N642 H655 0.985 . S
N643 C645 1.356 . S
N643 H648 0.984 . S
N643 H649 0.985 . S
C644 C638 1.379 1_565 S
C644 C641 1.363 1_455 S
C644 N642 1.356 . S
C645 C639 1.363 1_655 S
C645 C640 1.379 1_545 S
C645 N643 1.356 . S
N646 C638 1.356 . S
N646 H652 0.984 . S
N646 H653 0.984 . S
N647 C640 1.356 . S
N647 H650 0.984 . S
N647 H651 0.985 . S
H648 N643 0.984 . S
H649 N643 0.985 . S
H650 N647 0.984 . S
H651 N647 0.985 . S
H652 N646 0.984 . S
H653 N646 0.984 . S
H654 N642 0.984 . S
H655 N642 0.985 . S
C656 C657 1.363 1_545 S
C656 C662 1.379 . S
C656 N664 1.356 . S
C657 C656 1.363 1_565 S
C657 C663 1.363 . S
C658 C659 1.363 1_565 S
C658 C663 1.379 . S
C658 N665 1.356 . S
C659 C658 1.363 1_545 S
C659 C662 1.363 . S
N660 C662 1.356 . S
N660 H672 0.984 . S
N660 H673 0.985 . S
N661 C663 1.356 . S
N661 H666 0.984 . S
N661 H667 0.985 . S
C662 C656 1.379 . S
C662 C659 1.363 . S
C662 N660 1.356 . S
C663 C657 1.363 . S
C663 C658 1.379 . S
C663 N661 1.356 . S
N664 C656 1.356 . S
N664 H670 0.984 . S
N664 H671 0.984 . S
N665 C658 1.356 . S
N665 H668 0.984 . S
N665 H669 0.985 . S
H666 N661 0.984 . S
H667 N661 0.985 . S
H668 N665 0.984 . S
H669 N665 0.985 . S
H670 N664 0.984 . S
H671 N664 0.984 . S
H672 N660 0.984 . S
H673 N660 0.985 . S
C674 C675 1.363 . S
C674 C680 1.379 1_565 S
C674 N682 1.356 . S
C675 C674 1.363 . S
C675 C681 1.363 1_655 S
C676 C677 1.363 . S
C676 C681 1.379 1_545 S
C676 N683 1.356 . S
C677 C676 1.363 . S
C677 C680 1.363 1_455 S
N678 C680 1.356 . S
N678 H690 0.984 . S
N678 H691 0.985 . S
N679 C681 1.356 . S
N679 H684 0.984 . S
N679 H685 0.985 . S
C680 C674 1.379 1_545 S
C680 C677 1.363 1_655 S
C680 N678 1.356 . S
C681 C675 1.363 1_455 S
C681 C676 1.379 1_565 S
C681 N679 1.356 . S
N682 C674 1.356 . S
N682 H688 0.984 . S
N682 H689 0.984 . S
N683 C676 1.356 . S
N683 H686 0.984 . S
N683 H687 0.985 . S
H684 N679 0.984 . S
H685 N679 0.985 . S
H686 N683 0.984 . S
H687 N683 0.985 . S
H688 N682 0.984 . S
H689 N682 0.984 . S
H690 N678 0.984 . S
H691 N678 0.985 . S
C692 C693 1.363 . S
C692 C698 1.379 1_455 S
C692 N700 1.356 . S
C693 C692 1.363 . S
C693 C699 1.363 . S
C694 C695 1.363 . S
C694 C699 1.379 1_655 S
C694 N701 1.356 . S
C695 C694 1.363 . S
C695 C698 1.363 . S
N696 C698 1.356 . S
N696 H708 0.984 . S
N696 H709 0.985 . S
N697 C699 1.356 . S
N697 H702 0.984 . S
N697 H703 0.985 . S
C698 C692 1.379 1_655 S
C698 C695 1.363 . S
C698 N696 1.356 . S
C699 C693 1.363 . S
C699 C694 1.379 1_455 S
C699 N697 1.356 . S
N700 C692 1.356 . S
N700 H706 0.984 . S
N700 H707 0.984 . S
N701 C694 1.356 . S
N701 H704 0.984 . S
N701 H705 0.985 . S
H702 N697 0.984 . S
H703 N697 0.985 . S
H704 N701 0.984 . S
H705 N701 0.985 . S
H706 N700 0.984 . S
H707 N700 0.984 . S
H708 N696 0.984 . S
H709 N696 0.985 . S
C710 C711 1.363 . S
C710 C716 1.379 . S
C710 N718 1.356 . S
C711 C710 1.363 . S
C711 C717 1.363 . S
C712 C713 1.363 . S
C712 C717 1.379 . S
C712 N719 1.356 . S
C713 C712 1.363 . S
C713 C716 1.363 . S
N714 C716 1.356 . S
N714 H726 0.984 . S
N714 H727 0.985 . S
N715 C717 1.356 . S
N715 H720 0.984 . S
N715 H721 0.985 . S
C716 C710 1.379 . S
C716 C713 1.363 . S
C716 N714 1.356 . S
C717 C711 1.363 . S
C717 C712 1.379 . S
C717 N715 1.356 . S
N718 C710 1.356 . S
N718 H724 0.984 . S
N718 H725 0.984 . S
N719 C712 1.356 . S
N719 H722 0.984 . S
N719 H723 0.985 . S
H720 N715 0.984 . S
H721 N715 0.985 . S
H722 N719 0.984 . S
H723 N719 0.985 . S
H724 N718 0.984 . S
H725 N718 0.984 . S
H726 N714 0.984 . S
H727 N714 0.985 . S
C728 C729 1.363 . S
C728 C734 1.379 . S
C728 N736 1.356 . S
C729 C728 1.363 . S
C729 C735 1.363 . S
C730 C731 1.363 . S
C730 C735 1.379 . S
C730 N737 1.356 . S
C731 C730 1.363 . S
C731 C734 1.363 . S
N732 C734 1.356 . S
N732 H744 0.984 . S
N732 H745 0.985 . S
N733 C735 1.356 . S
N733 H738 0.984 . S
N733 H739 0.985 . S
C734 C728 1.379 . S
C734 C731 1.363 . S
C734 N732 1.356 . S
C735 C729 1.363 . S
C735 C730 1.379 . S
C735 N733 1.356 . S
N736 C728 1.356 . S
N736 H742 0.984 . S
N736 H743 0.984 . S
N737 C730 1.356 . S
N737 H740 0.984 . S
N737 H741 0.985 . S
H738 N733 0.984 . S
H739 N733 0.985 . S
H740 N737 0.984 . S
H741 N737 0.985 . S
H742 N736 0.984 . S
H743 N736 0.984 . S
H744 N732 0.984 . S
H745 N732 0.985 . S
C746 C747 1.363 . S
C746 C752 1.379 1_545 S
C746 N754 1.356 . S
C747 C746 1.363 . S
C747 C753 1.363 . S
C748 C749 1.363 . S
C748 C753 1.379 1_565 S
C748 N755 1.356 . S
C749 C748 1.363 . S
C749 C752 1.363 . S
N750 C752 1.356 . S
N750 H762 0.984 . S
N750 H763 0.985 . S
N751 C753 1.356 . S
N751 H756 0.984 . S
N751 H757 0.985 . S
C752 C746 1.379 1_565 S
C752 C749 1.363 . S
C752 N750 1.356 . S
C753 C747 1.363 . S
C753 C748 1.379 1_545 S
C753 N751 1.356 . S
N754 C746 1.356 . S
N754 H760 0.984 . S
N754 H761 0.984 . S
N755 C748 1.356 . S
N755 H758 0.984 . S
N755 H759 0.985 . S
H756 N751 0.984 . S
H757 N751 0.985 . S
H758 N755 0.984 . S
H759 N755 0.985 . S
H760 N754 0.984 . S
H761 N754 0.984 . S
H762 N750 0.984 . S
H763 N750 0.985 . S
C764 C765 1.363 . S
C764 C770 1.379 1_655 S
C764 N772 1.356 . S
C765 C764 1.363 . S
C765 C771 1.363 1_565 S
C766 C767 1.363 . S
C766 C771 1.379 1_455 S
C766 N773 1.356 . S
C767 C766 1.363 . S
C767 C770 1.363 1_545 S
N768 C770 1.356 . S
N768 H780 0.984 . S
N768 H781 0.985 . S
N769 C771 1.356 . S
N769 H774 0.984 . S
N769 H775 0.985 . S
C770 C764 1.379 1_455 S
C770 C767 1.363 1_565 S
C770 N768 1.356 . S
C771 C765 1.363 1_545 S
C771 C766 1.379 1_655 S
C771 N769 1.356 . S
N772 C764 1.356 . S
N772 H778 0.984 . S
N772 H779 0.984 . S
N773 C766 1.356 . S
N773 H776 0.984 . S
N773 H777 0.985 . S
H774 N769 0.984 . S
H775 N769 0.985 . S
H776 N773 0.984 . S
H777 N773 0.985 . S
H778 N772 0.984 . S
H779 N772 0.984 . S
H780 N768 0.984 . S
H781 N768 0.985 . S
C782 C783 1.363 1_455 S
C782 C788 1.379 . S
C782 N790 1.356 . S
C783 C782 1.363 1_655 S
C783 C789 1.363 . S
C784 C785 1.363 1_655 S
C784 C789 1.379 . S
C784 N791 1.356 . S
C785 C784 1.363 1_455 S
C785 C788 1.363 . S
N786 C788 1.356 . S
N786 H798 0.984 . S
N786 H799 0.985 . S
N787 C789 1.356 . S
N787 H792 0.984 . S
N787 H793 0.985 . S
C788 C782 1.379 . S
C788 C785 1.363 . S
C788 N786 1.356 . S
C789 C783 1.363 . S
C789 C784 1.379 . S
C789 N787 1.356 . S
N790 C782 1.356 . S
N790 H796 0.984 . S
N790 H797 0.984 . S
N791 C784 1.356 . S
N791 H794 0.984 . S
N791 H795 0.985 . S
H792 N787 0.984 . S
H793 N787 0.985 . S
H794 N791 0.984 . S
H795 N791 0.985 . S
H796 N790 0.984 . S
H797 N790 0.984 . S
H798 N786 0.984 . S
H799 N786 0.985 . S
C225 C69 1.256 . S
C227 C13 1.256 . S
C243 C27 1.256 . S
C245 C83 1.256 . S
C261 C97 1.256 . S
C263 C41 1.256 . S
C279 C111 1.256 . S
C281 C55 1.256 . S
C297 C181 1.257 . S
C299 C125 1.257 . S
C315 C139 1.257 . S
C317 C195 1.256 . S
C333 C209 1.257 . S
C335 C153 1.257 . S
C351 C167 1.257 . S
C353 C223 1.257 . S
C369 C7 1.333 . S
C371 C217 1.333 . S
C387 C21 1.333 . S
C389 C175 1.333 . S
C405 C35 1.333 . S
C407 C189 1.333 . S
C423 C203 1.333 . S
C425 C49 1.333 . S
C441 C63 1.333 . S
C443 C133 1.333 . S
C459 C77 1.333 . S
C461 C147 1.333 . S
C477 C161 1.333 . S
C479 C91 1.333 . S
C495 C119 1.333 . S
C497 C105 1.333 . S
C513 C11 1.494 . S
C515 C151 1.494 . S
C531 C165 1.493 . S
C533 C25 1.493 . S
C549 C39 1.493 . S
C551 C123 1.493 . S
C567 C137 1.493 . S
C569 C53 1.493 . S
C585 C67 1.493 . S
C587 C207 1.493 . S
C603 C81 1.493 . S
C605 C221 1.493 . S
C621 C179 1.493 . S
C623 C95 1.493 . S
C639 C193 1.494 . S
C641 C109 1.494 . S
C657 C148 1.468 . S
C659 C8 1.468 . S
C675 C22 1.468 . S
C677 C162 1.468 . S
C693 C36 1.468 . S
C695 C120 1.468 . S
C711 C134 1.468 . S
C713 C50 1.468 . S
C729 C204 1.468 . S
C731 C64 1.468 . S
C747 C218 1.468 . S
C749 C78 1.468 . S
C765 C176 1.468 . S
C767 C92 1.468 . S
C783 C106 1.468 . S
C785 C190 1.468 . S
