# Generated by pormake.
# Topology wlp, (5)-cn, num edge types: 1
# Building blocks:
#     Node 0, Type 0, BuildingBlock: XOMCOT_clean_sbu_0, # of connection points: 5
#     Node 1, Type 0, BuildingBlock: XOMCOT_clean_sbu_0, # of connection points: 5
#     Node 2, Type 0, BuildingBlock: XOMCOT_clean_sbu_0, # of connection points: 5
#     Node 3, Type 0, BuildingBlock: XOMCOT_clean_sbu_0, # of connection points: 5
#     Node 4, Type 0, BuildingBlock: XOMCOT_clean_sbu_0, # of connection points: 5
#     Node 5, Type 0, BuildingBlock: XOMCOT_clean_sbu_0, # of connection points: 5
#     Node 6, Type 0, BuildingBlock: XOMCOT_clean_sbu_0, # of connection points: 5
#     Node 7, Type 0, BuildingBlock: XOMCOT_clean_sbu_0, # of connection points: 5
#     Node 8, Type 0, BuildingBlock: XOMCOT_clean_sbu_0, # of connection points: 5
#     Node 9, Type 0, BuildingBlock: XOMCOT_clean_sbu_0, # of connection points: 5
#     Node 10, Type 0, BuildingBlock: XOMCOT_clean_sbu_0, # of connection points: 5
#     Node 11, Type 0, BuildingBlock: XOMCOT_clean_sbu_0, # of connection points: 5
#     Node 12, Type 0, BuildingBlock: XOMCOT_clean_sbu_0, # of connection points: 5
#     Node 13, Type 0, BuildingBlock: XOMCOT_clean_sbu_0, # of connection points: 5
#     Node 14, Type 0, BuildingBlock: XOMCOT_clean_sbu_0, # of connection points: 5
#     Node 15, Type 0, BuildingBlock: XOMCOT_clean_sbu_0, # of connection points: 5
#     Node 16, Type 0, BuildingBlock: XOMCOT_clean_sbu_0, # of connection points: 5
#     Node 17, Type 0, BuildingBlock: XOMCOT_clean_sbu_0, # of connection points: 5
#     Node 18, Type 0, BuildingBlock: XOMCOT_clean_sbu_0, # of connection points: 5
#     Node 19, Type 0, BuildingBlock: XOMCOT_clean_sbu_0, # of connection points: 5
#     Node 20, Type 0, BuildingBlock: XOMCOT_clean_sbu_0, # of connection points: 5
#     Node 21, Type 0, BuildingBlock: XOMCOT_clean_sbu_0, # of connection points: 5
#     Node 22, Type 0, BuildingBlock: XOMCOT_clean_sbu_0, # of connection points: 5
#     Node 23, Type 0, BuildingBlock: XOMCOT_clean_sbu_0, # of connection points: 5
#     Node 24, Type 0, BuildingBlock: XOMCOT_clean_sbu_0, # of connection points: 5
#     Node 25, Type 0, BuildingBlock: XOMCOT_clean_sbu_0, # of connection points: 5
#     Node 26, Type 0, BuildingBlock: XOMCOT_clean_sbu_0, # of connection points: 5
#     Node 27, Type 0, BuildingBlock: XOMCOT_clean_sbu_0, # of connection points: 5
#     Node 28, Type 0, BuildingBlock: XOMCOT_clean_sbu_0, # of connection points: 5
#     Node 29, Type 0, BuildingBlock: XOMCOT_clean_sbu_0, # of connection points: 5
#     Node 30, Type 0, BuildingBlock: XOMCOT_clean_sbu_0, # of connection points: 5
#     Node 31, Type 0, BuildingBlock: XOMCOT_clean_sbu_0, # of connection points: 5
#     Node 32, Type 0, BuildingBlock: XOMCOT_clean_sbu_0, # of connection points: 5
#     Node 33, Type 0, BuildingBlock: XOMCOT_clean_sbu_0, # of connection points: 5
#     Node 34, Type 0, BuildingBlock: XOMCOT_clean_sbu_0, # of connection points: 5
#     Node 35, Type 0, BuildingBlock: XOMCOT_clean_sbu_0, # of connection points: 5
#     Edge 36, Type (0, 0), BuildingBlock: XIVTED_clean_linker_0, # of connection points: 2
#     Edge 37, Type (0, 0), BuildingBlock: XIVTED_clean_linker_0, # of connection points: 2
#     Edge 38, Type (0, 0), BuildingBlock: XIVTED_clean_linker_0, # of connection points: 2
#     Edge 39, Type (0, 0), BuildingBlock: XIVTED_clean_linker_0, # of connection points: 2
#     Edge 40, Type (0, 0), BuildingBlock: XIVTED_clean_linker_0, # of connection points: 2
#     Edge 41, Type (0, 0), BuildingBlock: XIVTED_clean_linker_0, # of connection points: 2
#     Edge 42, Type (0, 0), BuildingBlock: XIVTED_clean_linker_0, # of connection points: 2
#     Edge 43, Type (0, 0), BuildingBlock: XIVTED_clean_linker_0, # of connection points: 2
#     Edge 44, Type (0, 0), BuildingBlock: XIVTED_clean_linker_0, # of connection points: 2
#     Edge 45, Type (0, 0), BuildingBlock: XIVTED_clean_linker_0, # of connection points: 2
#     Edge 46, Type (0, 0), BuildingBlock: XIVTED_clean_linker_0, # of connection points: 2
#     Edge 47, Type (0, 0), BuildingBlock: XIVTED_clean_linker_0, # of connection points: 2
#     Edge 48, Type (0, 0), BuildingBlock: XIVTED_clean_linker_0, # of connection points: 2
#     Edge 49, Type (0, 0), BuildingBlock: XIVTED_clean_linker_0, # of connection points: 2
#     Edge 50, Type (0, 0), BuildingBlock: XIVTED_clean_linker_0, # of connection points: 2
#     Edge 51, Type (0, 0), BuildingBlock: XIVTED_clean_linker_0, # of connection points: 2
#     Edge 52, Type (0, 0), BuildingBlock: XIVTED_clean_linker_0, # of connection points: 2
#     Edge 53, Type (0, 0), BuildingBlock: XIVTED_clean_linker_0, # of connection points: 2
#     Edge 54, Type (0, 0), BuildingBlock: XIVTED_clean_linker_0, # of connection points: 2
#     Edge 55, Type (0, 0), BuildingBlock: XIVTED_clean_linker_0, # of connection points: 2
#     Edge 56, Type (0, 0), BuildingBlock: XIVTED_clean_linker_0, # of connection points: 2
#     Edge 57, Type (0, 0), BuildingBlock: XIVTED_clean_linker_0, # of connection points: 2
#     Edge 58, Type (0, 0), BuildingBlock: XIVTED_clean_linker_0, # of connection points: 2
#     Edge 59, Type (0, 0), BuildingBlock: XIVTED_clean_linker_0, # of connection points: 2
#     Edge 60, Type (0, 0), BuildingBlock: XIVTED_clean_linker_0, # of connection points: 2
#     Edge 61, Type (0, 0), BuildingBlock: XIVTED_clean_linker_0, # of connection points: 2
#     Edge 62, Type (0, 0), BuildingBlock: XIVTED_clean_linker_0, # of connection points: 2
#     Edge 63, Type (0, 0), BuildingBlock: XIVTED_clean_linker_0, # of connection points: 2
#     Edge 64, Type (0, 0), BuildingBlock: XIVTED_clean_linker_0, # of connection points: 2
#     Edge 65, Type (0, 0), BuildingBlock: XIVTED_clean_linker_0, # of connection points: 2
#     Edge 66, Type (0, 0), BuildingBlock: XIVTED_clean_linker_0, # of connection points: 2
#     Edge 67, Type (0, 0), BuildingBlock: XIVTED_clean_linker_0, # of connection points: 2
#     Edge 68, Type (0, 0), BuildingBlock: XIVTED_clean_linker_0, # of connection points: 2
#     Edge 69, Type (0, 0), BuildingBlock: XIVTED_clean_linker_0, # of connection points: 2
#     Edge 70, Type (0, 0), BuildingBlock: XIVTED_clean_linker_0, # of connection points: 2
#     Edge 71, Type (0, 0), BuildingBlock: XIVTED_clean_linker_0, # of connection points: 2
#     Edge 72, Type (0, 0), BuildingBlock: XIVTED_clean_linker_0, # of connection points: 2
#     Edge 73, Type (0, 0), BuildingBlock: XIVTED_clean_linker_0, # of connection points: 2
#     Edge 74, Type (0, 0), BuildingBlock: XIVTED_clean_linker_0, # of connection points: 2
#     Edge 75, Type (0, 0), BuildingBlock: XIVTED_clean_linker_0, # of connection points: 2
#     Edge 76, Type (0, 0), BuildingBlock: XIVTED_clean_linker_0, # of connection points: 2
#     Edge 77, Type (0, 0), BuildingBlock: XIVTED_clean_linker_0, # of connection points: 2
#     Edge 78, Type (0, 0), BuildingBlock: XIVTED_clean_linker_0, # of connection points: 2
#     Edge 79, Type (0, 0), BuildingBlock: XIVTED_clean_linker_0, # of connection points: 2
#     Edge 80, Type (0, 0), BuildingBlock: XIVTED_clean_linker_0, # of connection points: 2
#     Edge 81, Type (0, 0), BuildingBlock: XIVTED_clean_linker_0, # of connection points: 2
#     Edge 82, Type (0, 0), BuildingBlock: XIVTED_clean_linker_0, # of connection points: 2
#     Edge 83, Type (0, 0), BuildingBlock: XIVTED_clean_linker_0, # of connection points: 2
#     Edge 84, Type (0, 0), BuildingBlock: XIVTED_clean_linker_0, # of connection points: 2
#     Edge 85, Type (0, 0), BuildingBlock: XIVTED_clean_linker_0, # of connection points: 2
#     Edge 86, Type (0, 0), BuildingBlock: XIVTED_clean_linker_0, # of connection points: 2
#     Edge 87, Type (0, 0), BuildingBlock: XIVTED_clean_linker_0, # of connection points: 2
#     Edge 88, Type (0, 0), BuildingBlock: XIVTED_clean_linker_0, # of connection points: 2
#     Edge 89, Type (0, 0), BuildingBlock: XIVTED_clean_linker_0, # of connection points: 2
#     Edge 90, Type (0, 0), BuildingBlock: XIVTED_clean_linker_0, # of connection points: 2
#     Edge 91, Type (0, 0), BuildingBlock: XIVTED_clean_linker_0, # of connection points: 2
#     Edge 92, Type (0, 0), BuildingBlock: XIVTED_clean_linker_0, # of connection points: 2
#     Edge 93, Type (0, 0), BuildingBlock: XIVTED_clean_linker_0, # of connection points: 2
#     Edge 94, Type (0, 0), BuildingBlock: XIVTED_clean_linker_0, # of connection points: 2
#     Edge 95, Type (0, 0), BuildingBlock: XIVTED_clean_linker_0, # of connection points: 2
#     Edge 96, Type (0, 0), BuildingBlock: XIVTED_clean_linker_0, # of connection points: 2
#     Edge 97, Type (0, 0), BuildingBlock: XIVTED_clean_linker_0, # of connection points: 2
#     Edge 98, Type (0, 0), BuildingBlock: XIVTED_clean_linker_0, # of connection points: 2
#     Edge 99, Type (0, 0), BuildingBlock: XIVTED_clean_linker_0, # of connection points: 2
#     Edge 100, Type (0, 0), BuildingBlock: XIVTED_clean_linker_0, # of connection points: 2
#     Edge 101, Type (0, 0), BuildingBlock: XIVTED_clean_linker_0, # of connection points: 2
#     Edge 102, Type (0, 0), BuildingBlock: XIVTED_clean_linker_0, # of connection points: 2
#     Edge 103, Type (0, 0), BuildingBlock: XIVTED_clean_linker_0, # of connection points: 2
#     Edge 104, Type (0, 0), BuildingBlock: XIVTED_clean_linker_0, # of connection points: 2
#     Edge 105, Type (0, 0), BuildingBlock: XIVTED_clean_linker_0, # of connection points: 2
#     Edge 106, Type (0, 0), BuildingBlock: XIVTED_clean_linker_0, # of connection points: 2
#     Edge 107, Type (0, 0), BuildingBlock: XIVTED_clean_linker_0, # of connection points: 2
#     Edge 108, Type (0, 0), BuildingBlock: XIVTED_clean_linker_0, # of connection points: 2
#     Edge 109, Type (0, 0), BuildingBlock: XIVTED_clean_linker_0, # of connection points: 2
#     Edge 110, Type (0, 0), BuildingBlock: XIVTED_clean_linker_0, # of connection points: 2
#     Edge 111, Type (0, 0), BuildingBlock: XIVTED_clean_linker_0, # of connection points: 2
#     Edge 112, Type (0, 0), BuildingBlock: XIVTED_clean_linker_0, # of connection points: 2
#     Edge 113, Type (0, 0), BuildingBlock: XIVTED_clean_linker_0, # of connection points: 2
#     Edge 114, Type (0, 0), BuildingBlock: XIVTED_clean_linker_0, # of connection points: 2
#     Edge 115, Type (0, 0), BuildingBlock: XIVTED_clean_linker_0, # of connection points: 2
#     Edge 116, Type (0, 0), BuildingBlock: XIVTED_clean_linker_0, # of connection points: 2
#     Edge 117, Type (0, 0), BuildingBlock: XIVTED_clean_linker_0, # of connection points: 2
#     Edge 118, Type (0, 0), BuildingBlock: XIVTED_clean_linker_0, # of connection points: 2
#     Edge 119, Type (0, 0), BuildingBlock: XIVTED_clean_linker_0, # of connection points: 2
#     Edge 120, Type (0, 0), BuildingBlock: XIVTED_clean_linker_0, # of connection points: 2
#     Edge 121, Type (0, 0), BuildingBlock: XIVTED_clean_linker_0, # of connection points: 2
#     Edge 122, Type (0, 0), BuildingBlock: XIVTED_clean_linker_0, # of connection points: 2
#     Edge 123, Type (0, 0), BuildingBlock: XIVTED_clean_linker_0, # of connection points: 2
#     Edge 124, Type (0, 0), BuildingBlock: XIVTED_clean_linker_0, # of connection points: 2
#     Edge 125, Type (0, 0), BuildingBlock: XIVTED_clean_linker_0, # of connection points: 2
# Relax obj value: 0.190
# Max RMSD: 0.208
# Mean RMSD: 0.208
data_MOF--net-wlp--node1-XOMCOT_clean_sbu_0--edge1-XIVTED_clean_linker_0
_symmetry_space_group_name_H-M    P1
_symmetry_Int_Tables_number       1
_symmetry_cell_setting            triclinic
loop_
_symmetry_equiv_pos_as_xyz
'x, y, z'
_cell_length_a     114.67606
_cell_length_b     114.60537
_cell_length_c     20.240306
_cell_angle_alpha  89.949275
_cell_angle_beta   90.07477
_cell_angle_gamma 119.99631
loop_
_atom_site_label
_atom_site_type_symbol
_atom_site_fract_x
_atom_site_fract_y
_atom_site_fract_z
_atom_type_partial_charge
Co0 Co 0.23393 0.16889 0.06128 0.0
C1 C 0.23386 0.14851 0.96236 0.0
C2 C 0.21455 0.14583 0.98773 0.0
C3 C 0.21264 0.13598 0.94384 0.0
N4 N 0.2278 0.15374 1.00018 0.0
N5 N 0.22474 0.13763 0.92728 0.0
H6 H 0.24457 0.15266 0.95847 0.0
H7 H 0.20668 0.14722 0.00901 0.0
C8 C 0.22698 0.17775 0.93803 0.0
O9 O 0.23443 0.17349 0.90921 0.0
N10 N 0.23876 0.18344 0.12281 0.0
C11 C 0.25011 0.19025 0.15871 0.0
C12 C 0.24874 0.19915 0.19939 0.0
C13 C 0.2306 0.18807 0.14254 0.0
N14 N 0.23643 0.19769 0.1893 0.0
C15 C 0.26035 0.17461 0.02762 0.0
C16 C 0.2704 0.2014 0.99547 0.0
C17 C 0.27947 0.19676 0.0069 0.0
C18 C 0.27419 0.18303 0.02015 0.0
C19 C 0.25652 0.19257 1.00288 0.0
N20 N 0.25164 0.17937 0.02022 0.0
H21 H 0.2568 0.16449 0.04501 0.0
H22 H 0.24988 0.19671 1.00099 0.0
H23 H 0.25865 0.18868 0.15635 0.0
H24 H 0.22054 0.18434 0.12337 0.0
O25 O 0.239 0.15989 0.12536 0.0
O26 O 0.21855 0.15725 0.11768 0.0
O27 O 0.22559 0.17688 1.0009 0.0
C28 C 0.22679 0.15419 0.14724 0.0
H29 H 0.20297 0.12813 0.92619 0.0
H30 H 0.25605 0.20584 0.23515 0.0
H31 H 0.27403 0.21197 0.98609 0.0
H32 H 0.28077 0.17893 0.02872 0.0
Co33 Co 0.83034 0.06711 0.04674 0.0
C34 C 0.85275 0.08773 0.95542 0.0
C35 C 0.85224 0.06899 0.97057 0.0
C36 C 0.86312 0.07696 0.93185 0.0
N37 N 0.84561 0.07559 0.98588 0.0
N38 N 0.86352 0.08877 0.92229 0.0
H39 H 0.85044 0.09575 0.95749 0.0
H40 H 0.84933 0.05893 0.98719 0.0
C41 C 0.82098 0.05098 0.92473 0.0
O42 O 0.82558 0.06269 0.89527 0.0
N43 N 0.81571 0.0577 0.10835 0.0
C44 C 0.80887 0.0623 0.14357 0.0
C45 C 0.80016 0.05216 0.18561 0.0
C46 C 0.81129 0.04505 0.12986 0.0
N47 N 0.80179 0.04137 0.17711 0.0
C48 C 0.82537 0.08813 0.00882 0.0
C49 C 0.7983 0.07191 0.98109 0.0
C50 C 0.80343 0.08577 0.99074 0.0
C51 C 0.8173 0.09393 1.00124 0.0
C52 C 0.80684 0.06648 0.98815 0.0
N53 N 0.82017 0.07454 0.00381 0.0
H54 H 0.83551 0.09454 0.02598 0.0
H55 H 0.80239 0.05565 0.98779 0.0
H56 H 0.81033 0.07236 0.14007 0.0
H57 H 0.81516 0.03875 0.11184 0.0
O58 O 0.83936 0.08138 0.1094 0.0
O59 O 0.84183 0.06343 0.10503 0.0
O60 O 0.82203 0.05057 0.98761 0.0
C61 C 0.84488 0.07486 0.13332 0.0
H62 H 0.87011 0.07418 0.91142 0.0
H63 H 0.79353 0.05286 0.22137 0.0
H64 H 0.78762 0.06519 0.97362 0.0
H65 H 0.82177 0.1047 0.00841 0.0
Co66 Co 0.93824 0.76326 0.01964 0.0
C67 C 0.92197 0.77001 0.9263 0.0
C68 C 0.9379 0.76863 0.8784 0.0
C69 C 0.93123 0.77181 0.83168 0.0
N70 N 0.93219 0.76757 0.93794 0.0
N71 N 0.92121 0.77268 0.86171 0.0
H72 H 0.91517 0.7698 0.9638 0.0
H73 H 0.94619 0.76689 0.86916 0.0
C74 C 0.96902 0.77686 1.00003 0.0
O75 O 0.97068 0.77065 0.05042 0.0
N76 N 0.94426 0.75912 0.10154 0.0
C77 C 0.94003 0.74684 0.12786 0.0
C78 C 0.94716 0.74833 0.18503 0.0
C79 C 0.95319 0.76793 0.14551 0.0
N80 N 0.95561 0.76159 0.19555 0.0
C81 C 0.92371 0.73828 0.95396 0.0
C82 C 0.94233 0.72982 0.96627 0.0
C83 C 0.92917 0.72049 0.94638 0.0
C84 C 0.91998 0.72506 0.93782 0.0
C85 C 0.9457 0.74308 0.98133 0.0
N86 N 0.93624 0.747 0.97795 0.0
H87 H 0.91616 0.74128 0.95127 0.0
H88 H 0.95555 0.74969 1.00058 0.0
H89 H 0.93249 0.73743 0.10629 0.0
H90 H 0.9586 0.77873 0.13792 0.0
O91 O 0.92053 0.7551 0.05644 0.0
O92 O 0.93577 0.77669 0.06793 0.0
O93 O 0.95734 0.77492 0.98466 0.0
C94 C 0.92372 0.76673 0.08143 0.0
H95 H 0.93331 0.77291 0.7792 0.0
H96 H 0.9464 0.74022 0.21552 0.0
H97 H 0.9498 0.72677 0.9729 0.0
H98 H 0.90966 0.71825 0.92325 0.0
Co99 Co 0.1778 0.24154 0.63003 0.0
C100 C 0.15476 0.2347 0.72347 0.0
C101 C 0.17287 0.23817 0.77191 0.0
C102 C 0.16315 0.23503 0.81901 0.0
N103 N 0.16768 0.23797 0.71187 0.0
N104 N 0.15172 0.2328 0.7888 0.0
H105 H 0.1477 0.23364 0.68527 0.0
H106 H 0.18314 0.24061 0.78098 0.0
C107 C 0.19473 0.22777 0.65291 0.0
O108 O 0.20236 0.23352 0.60129 0.0
N109 N 0.18781 0.24505 0.54802 0.0
C110 C 0.1958 0.25717 0.52016 0.0
C111 C 0.20123 0.25537 0.46318 0.0
C112 C 0.18771 0.23599 0.50505 0.0
N113 N 0.19633 0.24204 0.45428 0.0
C114 C 0.18868 0.26715 0.68963 0.0
C115 C 0.21561 0.27489 0.67933 0.0
C116 C 0.21207 0.28458 0.69586 0.0
C117 C 0.19839 0.28042 0.70352 0.0
C118 C 0.20553 0.26161 0.66659 0.0
N119 N 0.19224 0.25804 0.66887 0.0
H120 H 0.17819 0.26438 0.69156 0.0
H121 H 0.20855 0.25467 0.64997 0.0
H122 H 0.19777 0.26672 0.54044 0.0
H123 H 0.18228 0.22523 0.51381 0.0
O124 O 0.16828 0.24949 0.58974 0.0
O125 O 0.16183 0.22779 0.58389 0.0
O126 O 0.1852 0.23004 0.66827 0.0
C127 C 0.15996 0.23769 0.56594 0.0
H128 H 0.16454 0.23476 0.87176 0.0
H129 H 0.20851 0.2633 0.43167 0.0
H130 H 0.22607 0.27766 0.67351 0.0
H131 H 0.19512 0.28754 0.71562 0.0
Co132 Co 0.75978 0.9379 0.61591 0.0
C133 C 0.76784 0.92299 0.71161 0.0
C134 C 0.76262 0.93648 0.75894 0.0
C135 C 0.76632 0.93044 0.80677 0.0
N136 N 0.76357 0.93186 0.69911 0.0
N137 N 0.76962 0.92196 0.7771 0.0
H138 H 0.76971 0.91745 0.67404 0.0
H139 H 0.7593 0.94369 0.76737 0.0
C140 C 0.77013 0.96807 0.6429 0.0
O141 O 0.76374 0.96937 0.59219 0.0
N142 N 0.75635 0.94411 0.53272 0.0
C143 C 0.74456 0.93915 0.50015 0.0
C144 C 0.7465 0.94692 0.44477 0.0
C145 C 0.76546 0.9542 0.49432 0.0
N146 N 0.75963 0.95649 0.44163 0.0
C147 C 0.73424 0.92063 0.6707 0.0
C148 C 0.7226 0.93633 0.64843 0.0
C149 C 0.71426 0.92258 0.66225 0.0
C150 C 0.72037 0.91494 0.67717 0.0
C151 C 0.73658 0.94171 0.64295 0.0
N152 N 0.74214 0.93365 0.6503 0.0
H153 H 0.73852 0.91417 0.67708 0.0
H154 H 0.74253 0.95192 0.62669 0.0
H155 H 0.73513 0.93067 0.51624 0.0
H156 H 0.77597 0.96039 0.5076 0.0
O157 O 0.75381 0.9207 0.57576 0.0
O158 O 0.77493 0.93745 0.57329 0.0
O159 O 0.76938 0.95677 0.6559 0.0
C160 C 0.76604 0.92515 0.55596 0.0
H161 H 0.76625 0.93194 0.85952 0.0
H162 H 0.73878 0.94578 0.41028 0.0
H163 H 0.7183 0.94263 0.63689 0.0
H164 H 0.71438 0.90437 0.68993 0.0
Co165 Co 0.06669 0.83345 0.59098 0.0
C166 C 0.08832 0.8547 0.68207 0.0
C167 C 0.07091 0.85661 0.6652 0.0
C168 C 0.07951 0.86694 0.70545 0.0
N169 N 0.07629 0.84883 0.65021 0.0
N170 N 0.09049 0.86581 0.71612 0.0
H171 H 0.09543 0.85117 0.68075 0.0
H172 H 0.0612 0.85479 0.64815 0.0
C173 C 0.05103 0.82595 0.71447 0.0
O174 O 0.06274 0.83009 0.74323 0.0
N175 N 0.05646 0.81872 0.531 0.0
C176 C 0.06054 0.81127 0.49737 0.0
C177 C 0.05011 0.80241 0.45728 0.0
C178 C 0.04378 0.81449 0.51052 0.0
N179 N 0.03961 0.8045 0.46546 0.0
C180 C 0.08643 0.82655 0.63032 0.0
C181 C 0.06869 0.80068 0.67292 0.0
C182 C 0.08243 0.80486 0.66896 0.0
C183 C 0.09134 0.81806 0.64835 0.0
C184 C 0.0642 0.80963 0.65556 0.0
N185 N 0.07306 0.82248 0.63505 0.0
H186 H 0.09336 0.83611 0.60826 0.0
H187 H 0.05349 0.8059 0.65454 0.0
H188 H 0.07045 0.81235 0.50093 0.0
H189 H 0.03779 0.81874 0.52804 0.0
O190 O 0.08084 0.84157 0.52691 0.0
O191 O 0.06372 0.84537 0.53274 0.0
O192 O 0.05043 0.82644 0.65137 0.0
C193 C 0.07488 0.84776 0.50383 0.0
H194 H 0.07765 0.87454 0.72642 0.0
H195 H 0.05041 0.79528 0.42323 0.0
H196 H 0.06143 0.79048 0.68748 0.0
H197 H 0.10197 0.82156 0.64217 0.0
Co198 Co 0.76684 0.83342 0.10447 0.0
C199 C 0.76792 0.85332 0.20608 0.0
C200 C 0.76198 0.83369 0.24503 0.0
C201 C 0.7622 0.84169 0.29577 0.0
N202 N 0.76552 0.84087 0.1886 0.0
N203 N 0.76587 0.85403 0.27162 0.0
H204 H 0.77091 0.86159 0.17193 0.0
H205 H 0.75938 0.82325 0.24907 0.0
C206 C 0.77907 0.81566 0.14305 0.0
O207 O 0.77606 0.80936 0.08617 0.0
N208 N 0.76826 0.82607 0.02055 0.0
C209 C 0.75835 0.81938 0.97612 0.0
C210 C 0.76354 0.81598 0.92299 0.0
C211 C 0.77948 0.82732 0.9922 0.0
N212 N 0.77678 0.82079 0.93375 0.0
C213 C 0.73882 0.82122 0.12436 0.0
C214 C 0.73204 0.79457 0.11113 0.0
C215 C 0.72177 0.79782 0.11225 0.0
C216 C 0.7253 0.8113 0.12098 0.0
C217 C 0.74554 0.80489 0.11401 0.0
N218 N 0.7488 0.81809 0.11848 0.0
H219 H 0.74131 0.83161 0.1289 0.0
H220 H 0.75316 0.80218 0.10888 0.0
H221 H 0.74799 0.81689 0.98246 0.0
H222 H 0.78928 0.83224 0.01572 0.0
O223 O 0.76131 0.84419 0.05605 0.0
O224 O 0.78257 0.85062 0.07989 0.0
O225 O 0.77596 0.82476 0.15542 0.0
C226 C 0.77393 0.85309 0.04995 0.0
H227 H 0.75997 0.83863 0.34693 0.0
H228 H 0.75786 0.8098 0.88144 0.0
H229 H 0.7297 0.78424 0.1047 0.0
H230 H 0.71766 0.81421 0.12368 0.0
Co231 Co 0.18019 0.93511 0.11006 0.0
C232 C 0.15521 0.91773 0.18934 0.0
C233 C 0.17243 0.93025 0.24945 0.0
C234 C 0.16148 0.92334 0.29011 0.0
N235 N 0.16854 0.92683 0.18615 0.0
N236 N 0.15067 0.91549 0.2523 0.0
H237 H 0.14883 0.91301 0.14694 0.0
H238 H 0.18258 0.93737 0.26504 0.0
C239 C 0.19735 0.96496 0.15174 0.0
O240 O 0.20584 0.96806 0.10265 0.0
N241 N 0.19155 0.94346 0.03362 0.0
C242 C 0.19989 0.94001 0.00389 0.0
C243 C 0.20613 0.94868 0.95188 0.0
C244 C 0.19212 0.95353 0.99657 0.0
N245 N 0.20138 0.95733 0.94794 0.0
C246 C 0.18907 0.9183 0.16569 0.0
C247 C 0.21637 0.93656 0.16823 0.0
C248 C 0.21189 0.92295 0.18178 0.0
C249 C 0.19801 0.91388 0.1823 0.0
C250 C 0.20701 0.94064 0.15296 0.0
N251 N 0.19355 0.93144 0.14959 0.0
H252 H 0.17846 0.91096 0.16252 0.0
H253 H 0.21073 0.95096 0.13944 0.0
H254 H 0.20152 0.9319 0.01947 0.0
H255 H 0.18658 0.95862 0.00831 0.0
O256 O 0.17094 0.91875 0.0602 0.0
O257 O 0.16525 0.93459 0.0611 0.0
O258 O 0.18744 0.95296 0.15902 0.0
C259 C 0.16312 0.92302 0.03819 0.0
H260 H 0.1615 0.92391 0.3435 0.0
H261 H 0.21378 0.94877 0.92028 0.0
H262 H 0.22703 0.9439 0.16753 0.0
H263 H 0.19406 0.90325 0.19163 0.0
Co264 Co 0.06988 0.24221 0.11419 0.0
C265 C 0.0895 0.24119 0.20987 0.0
C266 C 0.07111 0.23723 0.2565 0.0
C267 C 0.0788 0.23528 0.30217 0.0
N268 N 0.07768 0.24086 0.19803 0.0
N269 N 0.0903 0.23768 0.27296 0.0
H270 H 0.09712 0.24337 0.17288 0.0
H271 H 0.06122 0.23576 0.26618 0.0
C272 C 0.04344 0.23887 0.16134 0.0
O273 O 0.04568 0.2494 0.12581 0.0
N274 N 0.06166 0.24287 0.03012 0.0
C275 C 0.06803 0.24935 0.97411 0.0
C276 C 0.05878 0.24604 0.9242 0.0
C277 C 0.04859 0.23516 0.01167 0.0
N278 N 0.04653 0.23716 0.94786 0.0
C279 C 0.08382 0.27058 0.09182 0.0
C280 C 0.07558 0.27852 0.20242 0.0
C281 C 0.08363 0.28826 0.15546 0.0
C282 C 0.08789 0.28411 0.10028 0.0
C283 C 0.07145 0.26487 0.19115 0.0
N284 N 0.07509 0.26095 0.13456 0.0
H285 H 0.0881 0.268 0.05128 0.0
H286 H 0.06531 0.25756 0.22791 0.0
H287 H 0.07876 0.25543 0.96755 0.0
H288 H 0.0408 0.22772 0.04304 0.0
O289 O 0.086 0.24596 0.06768 0.0
O290 O 0.0687 0.22543 0.08441 0.0
O291 O 0.05181 0.23458 0.15996 0.0
C292 C 0.08053 0.2331 0.05822 0.0
H293 H 0.07609 0.23224 0.35309 0.0
H294 H 0.06099 0.24974 0.87395 0.0
H295 H 0.07242 0.2814 0.24692 0.0
H296 H 0.09469 0.29138 0.06456 0.0
Co297 Co 0.82911 0.76336 0.52882 0.0
C298 C 0.8493 0.76454 0.42915 0.0
C299 C 0.82982 0.75867 0.38843 0.0
C300 C 0.83794 0.75883 0.33851 0.0
N301 N 0.83683 0.76216 0.44547 0.0
N302 N 0.85017 0.76247 0.36385 0.0
H303 H 0.85747 0.76747 0.46391 0.0
H304 H 0.81942 0.75611 0.38351 0.0
C305 C 0.81201 0.77618 0.489 0.0
O306 O 0.80529 0.77286 0.54472 0.0
N307 N 0.8215 0.7648 0.61175 0.0
C308 C 0.81426 0.75493 0.65556 0.0
C309 C 0.81107 0.76043 0.70829 0.0
C310 C 0.82321 0.77623 0.6399 0.0
N311 N 0.81655 0.77378 0.69774 0.0
C312 C 0.8168 0.73548 0.50526 0.0
C313 C 0.7901 0.72863 0.51509 0.0
C314 C 0.79336 0.71837 0.51234 0.0
C315 C 0.80687 0.72196 0.50539 0.0
C316 C 0.80046 0.74217 0.51543 0.0
N317 N 0.81367 0.74544 0.51248 0.0
H318 H 0.82719 0.73795 0.502 0.0
H319 H 0.79775 0.7498 0.52157 0.0
H320 H 0.81131 0.74444 0.64921 0.0
H321 H 0.82867 0.78604 0.61674 0.0
O322 O 0.83937 0.75735 0.5782 0.0
O323 O 0.84638 0.77878 0.5558 0.0
O324 O 0.82105 0.77297 0.47745 0.0
C325 C 0.84845 0.76987 0.58585 0.0
H326 H 0.83506 0.75649 0.28716 0.0
H327 H 0.80466 0.75493 0.74954 0.0
H328 H 0.77973 0.72621 0.52046 0.0
H329 H 0.80979 0.71432 0.50204 0.0
Co330 Co 0.24326 0.06615 0.53995 0.0
C331 C 0.23514 0.08309 0.45988 0.0
C332 C 0.24024 0.07079 0.40044 0.0
C333 C 0.23604 0.07752 0.35934 0.0
N334 N 0.23962 0.07417 0.46359 0.0
N335 N 0.23282 0.08522 0.39669 0.0
H336 H 0.23334 0.08775 0.50205 0.0
H337 H 0.24352 0.06385 0.38524 0.0
C338 C 0.23109 0.03629 0.499 0.0
O339 O 0.23652 0.03336 0.54861 0.0
N340 N 0.24668 0.05814 0.61672 0.0
C341 C 0.25864 0.0622 0.64623 0.0
C342 C 0.25673 0.05373 0.69846 0.0
C343 C 0.23755 0.04789 0.6543 0.0
N344 N 0.24348 0.04456 0.7028 0.0
C345 C 0.26887 0.08325 0.48466 0.0
C346 C 0.27826 0.06525 0.48331 0.0
C347 C 0.2873 0.07892 0.47088 0.0
C348 C 0.28231 0.08785 0.46944 0.0
C349 C 0.26475 0.061 0.49736 0.0
N350 N 0.26034 0.07007 0.50044 0.0
H351 H 0.26546 0.09048 0.48745 0.0
H352 H 0.25825 0.05065 0.51054 0.0
H353 H 0.26814 0.07059 0.63026 0.0
H354 H 0.2269 0.04235 0.643 0.0
O355 O 0.25014 0.08252 0.58957 0.0
O356 O 0.2287 0.06641 0.58864 0.0
O357 O 0.23294 0.04821 0.4913 0.0
C358 C 0.23804 0.07803 0.61169 0.0
H359 H 0.23559 0.07695 0.30593 0.0
H360 H 0.26457 0.05415 0.72985 0.0
H361 H 0.2817 0.058 0.48454 0.0
H362 H 0.28892 0.09852 0.46086 0.0
Co363 Co 0.93852 0.17624 0.53333 0.0
C364 C 0.91907 0.15446 0.43867 0.0
C365 C 0.93967 0.15964 0.42925 0.0
C366 C 0.93214 0.14884 0.38951 0.0
N367 N 0.93172 0.16367 0.45877 0.0
N368 N 0.91913 0.14549 0.39482 0.0
H369 H 0.91 0.1537 0.45866 0.0
H370 H 0.95021 0.16355 0.43988 0.0
C371 C 0.95882 0.1903 0.42986 0.0
O372 O 0.94832 0.1879 0.39369 0.0
N373 N 0.9461 0.18795 0.60898 0.0
C374 C 0.94038 0.1927 0.65116 0.0
C375 C 0.94953 0.19972 0.70091 0.0
C376 C 0.95846 0.19198 0.63359 0.0
N377 N 0.9609 0.19926 0.6895 0.0
C378 C 0.92106 0.18473 0.47639 0.0
C379 C 0.93881 0.2121 0.4872 0.0
C380 C 0.92532 0.20765 0.47146 0.0
C381 C 0.91652 0.19377 0.46417 0.0
C382 C 0.94299 0.20269 0.49839 0.0
N383 N 0.93408 0.18913 0.49417 0.0
H384 H 0.91377 0.17417 0.47657 0.0
H385 H 0.95323 0.2063 0.51444 0.0
H386 H 0.93026 0.19103 0.64655 0.0
H387 H 0.96535 0.18919 0.61205 0.0
O388 O 0.92189 0.16609 0.57875 0.0
O389 O 0.93858 0.16173 0.5854 0.0
O390 O 0.95706 0.1858 0.48938 0.0
C391 C 0.92638 0.15868 0.60307 0.0
H392 H 0.93595 0.1433 0.36261 0.0
H393 H 0.94792 0.20475 0.74215 0.0
H394 H 0.94598 0.22273 0.49319 0.0
H395 H 0.90594 0.18983 0.45365 0.0
Co396 Co 0.90354 0.5054 0.38464 0.0
C397 C 0.90332 0.48448 0.28864 0.0
C398 C 0.88412 0.48229 0.31224 0.0
C399 C 0.88204 0.47202 0.2707 0.0
N400 N 0.89742 0.49019 0.32401 0.0
N401 N 0.89407 0.47333 0.25581 0.0
H402 H 0.91398 0.48813 0.28656 0.0
H403 H 0.87637 0.48397 0.33257 0.0
C404 C 0.89436 0.51314 0.26513 0.0
O405 O 0.90182 0.50919 0.23387 0.0
N406 N 0.90824 0.5199 0.44633 0.0
C407 C 0.91895 0.52582 0.4871 0.0
C408 C 0.91696 0.53392 0.53082 0.0
C409 C 0.89997 0.52445 0.4653 0.0
N410 N 0.90503 0.53302 0.51675 0.0
C411 C 0.92986 0.51276 0.33871 0.0
C412 C 0.9376 0.53898 0.30427 0.0
C413 C 0.94729 0.53493 0.30452 0.0
C414 C 0.94318 0.52154 0.32072 0.0
C415 C 0.92423 0.52973 0.32139 0.0
N416 N 0.92046 0.51674 0.33819 0.0
H417 H 0.92742 0.50303 0.35798 0.0
H418 H 0.91716 0.53332 0.32548 0.0
H419 H 0.92728 0.52391 0.48698 0.0
H420 H 0.89004 0.52087 0.44462 0.0
O421 O 0.91042 0.49737 0.44468 0.0
O422 O 0.88935 0.49314 0.44553 0.0
O423 O 0.89361 0.51237 0.32831 0.0
C424 C 0.89859 0.49099 0.47101 0.0
H425 H 0.8724 0.46433 0.25182 0.0
H426 H 0.92359 0.53973 0.57087 0.0
H427 H 0.9404 0.5493 0.29309 0.0
H428 H 0.9504 0.5181 0.324 0.0
Co429 Co 0.49682 0.39829 0.3962 0.0
C430 C 0.51737 0.41787 0.29524 0.0
C431 C 0.51888 0.4005 0.31975 0.0
C432 C 0.52876 0.408 0.2751 0.0
N433 N 0.51166 0.40656 0.33301 0.0
N434 N 0.52784 0.41892 0.25915 0.0
H435 H 0.51394 0.42505 0.29243 0.0
H436 H 0.51703 0.39109 0.34133 0.0
C437 C 0.48706 0.38148 0.27625 0.0
O438 O 0.4914 0.39303 0.24559 0.0
N439 N 0.48259 0.38919 0.45997 0.0
C440 C 0.47589 0.39398 0.49493 0.0
C441 C 0.4672 0.38401 0.53767 0.0
C442 C 0.4781 0.37658 0.48224 0.0
N443 N 0.46868 0.37311 0.52976 0.0
C444 C 0.49133 0.41892 0.35574 0.0
C445 C 0.46452 0.40229 0.3241 0.0
C446 C 0.46968 0.41626 0.3262 0.0
C447 C 0.48335 0.42458 0.34089 0.0
C448 C 0.47299 0.39701 0.33791 0.0
N449 N 0.48627 0.40532 0.35354 0.0
H450 H 0.50141 0.42553 0.37352 0.0
H451 H 0.46859 0.3862 0.34061 0.0
H452 H 0.47738 0.40404 0.49045 0.0
H453 H 0.48178 0.37013 0.46421 0.0
O454 O 0.50623 0.41295 0.45687 0.0
O455 O 0.50874 0.39503 0.45342 0.0
O456 O 0.48832 0.38139 0.33916 0.0
C457 C 0.51203 0.40663 0.48021 0.0
H458 H 0.53617 0.40561 0.2567 0.0
H459 H 0.46063 0.38487 0.57321 0.0
H460 H 0.45396 0.39548 0.31389 0.0
H461 H 0.48767 0.43539 0.34523 0.0
Co462 Co 0.60583 0.09522 0.37532 0.0
C463 C 0.5889 0.10219 0.2886 0.0
C464 C 0.60268 0.09841 0.2339 0.0
C465 C 0.59588 0.10207 0.19021 0.0
N466 N 0.59838 0.09853 0.29572 0.0
N467 N 0.58723 0.10447 0.22461 0.0
H468 H 0.58347 0.10343 0.32901 0.0
H469 H 0.61032 0.09587 0.2214 0.0
C470 C 0.63601 0.10758 0.34462 0.0
O471 O 0.63779 0.10134 0.39454 0.0
N472 N 0.61327 0.09221 0.45558 0.0
C473 C 0.6096 0.08044 0.48643 0.0
C474 C 0.61772 0.08298 0.54117 0.0
C475 C 0.6229 0.10177 0.49427 0.0
N476 N 0.62623 0.09638 0.5452 0.0
C477 C 0.58943 0.06917 0.32402 0.0
C478 C 0.60775 0.06025 0.33123 0.0
C479 C 0.59402 0.0508 0.32559 0.0
C480 C 0.58492 0.05546 0.31817 0.0
C481 C 0.61186 0.07395 0.33718 0.0
N482 N 0.6026 0.07815 0.33792 0.0
H483 H 0.58208 0.07244 0.32295 0.0
H484 H 0.62226 0.08078 0.34683 0.0
H485 H 0.60183 0.07066 0.46952 0.0
H486 H 0.62803 0.11241 0.4826 0.0
O487 O 0.58893 0.08799 0.4203 0.0
O488 O 0.6046 0.10955 0.42178 0.0
O489 O 0.62435 0.10601 0.33167 0.0
C490 C 0.59284 0.1 0.44222 0.0
H491 H 0.59708 0.10275 0.13706 0.0
H492 H 0.61786 0.07549 0.57321 0.0
H493 H 0.61511 0.05701 0.33658 0.0
H494 H 0.57424 0.04848 0.31221 0.0
Co495 Co 0.84299 0.57524 0.95696 0.0
C496 C 0.82203 0.57186 0.05785 0.0
C497 C 0.84077 0.57546 0.09969 0.0
C498 C 0.8324 0.57446 0.15018 0.0
N499 N 0.83439 0.57386 0.04163 0.0
N500 N 0.82064 0.57226 0.12422 0.0
H501 H 0.81443 0.57062 0.02237 0.0
H502 H 0.85103 0.57757 0.10502 0.0
C503 C 0.86146 0.5634 0.98608 0.0
O504 O 0.8687 0.56871 0.93279 0.0
N505 N 0.85153 0.57652 0.87239 0.0
C506 C 0.85829 0.58763 0.83468 0.0
C507 C 0.86295 0.58432 0.77912 0.0
C508 C 0.85147 0.56647 0.83737 0.0
N509 N 0.85885 0.57106 0.78153 0.0
C510 C 0.8536 0.60232 0.99508 0.0
C511 C 0.88064 0.61101 0.97897 0.0
C512 C 0.87651 0.62058 0.98496 0.0
C513 C 0.86287 0.61606 0.99609 0.0
C514 C 0.87095 0.59725 0.97781 0.0
N515 N 0.85754 0.59309 0.98252 0.0
H516 H 0.84304 0.59912 1.0 0.0
H517 H 0.87433 0.59026 0.96836 0.0
H518 H 0.86004 0.59754 0.84747 0.0
H519 H 0.84682 0.55615 0.85456 0.0
O520 O 0.83217 0.58133 0.91304 0.0
O521 O 0.8265 0.55986 0.92261 0.0
O522 O 0.85168 0.56534 1.00058 0.0
C523 C 0.82382 0.56885 0.89867 0.0
H524 H 0.83485 0.57544 0.2023 0.0
H525 H 0.8695 0.59129 0.74185 0.0
H526 H 0.89113 0.61412 0.9706 0.0
H527 H 0.8593 0.62314 1.00231 0.0
Co528 Co 0.42526 0.26834 0.9635 0.0
C529 C 0.43245 0.25154 0.05099 0.0
C530 C 0.42935 0.26594 0.10434 0.0
C531 C 0.433 0.25924 0.14858 0.0
N532 N 0.42912 0.26126 0.04295 0.0
N533 N 0.43496 0.25021 0.11516 0.0
H534 H 0.43312 0.24562 0.01121 0.0
H535 H 0.4269 0.27365 0.11642 0.0
C536 C 0.43571 0.29821 0.99719 0.0
O537 O 0.42929 0.29974 0.94732 0.0
N538 N 0.42168 0.2755 0.8838 0.0
C539 C 0.40975 0.27114 0.85334 0.0
C540 C 0.4117 0.27917 0.79903 0.0
C541 C 0.43083 0.28549 0.84505 0.0
N542 N 0.42494 0.2883 0.79435 0.0
C543 C 0.3997 0.25043 0.01708 0.0
C544 C 0.38867 0.26702 0.01243 0.0
C545 C 0.38021 0.25326 0.02567 0.0
C546 C 0.38603 0.24506 0.03014 0.0
C547 C 0.40243 0.27206 1.00066 0.0
N548 N 0.40769 0.26367 1.00036 0.0
H549 H 0.40373 0.2437 0.0167 0.0
H550 H 0.40845 0.28245 0.98726 0.0
H551 H 0.40024 0.26282 0.8698 0.0
H552 H 0.44146 0.29121 0.85671 0.0
O553 O 0.41934 0.25178 0.91633 0.0
O554 O 0.44045 0.26859 0.91816 0.0
O555 O 0.43488 0.2868 0.00854 0.0
C556 C 0.4316 0.25673 0.89548 0.0
H557 H 0.4338 0.26066 0.20162 0.0
H558 H 0.40393 0.27846 0.76612 0.0
H559 H 0.38462 0.27375 0.00912 0.0
H560 H 0.37992 0.23436 0.03965 0.0
Co561 Co 0.73619 0.16403 0.94371 0.0
C562 C 0.75736 0.18735 0.02684 0.0
C563 C 0.73734 0.18407 0.03383 0.0
C564 C 0.74564 0.19536 0.06933 0.0
N565 N 0.74445 0.17864 0.00846 0.0
N566 N 0.75826 0.19752 0.06497 0.0
H567 H 0.76604 0.18694 0.00973 0.0
H568 H 0.72676 0.18036 0.02484 0.0
C569 C 0.71841 0.15377 0.05965 0.0
O570 O 0.72965 0.15711 0.09155 0.0
N571 N 0.72719 0.15015 0.87785 0.0
C572 C 0.73259 0.14518 0.83499 0.0
C573 C 0.72273 0.13697 0.79048 0.0
C574 C 0.71423 0.14493 0.85925 0.0
N575 N 0.71123 0.13683 0.80615 0.0
C576 C 0.75543 0.15727 0.99405 0.0
C577 C 0.73767 0.13002 0.00928 0.0
C578 C 0.75153 0.13477 0.01416 0.0
C579 C 0.76039 0.14865 0.0083 0.0
C580 C 0.73308 0.13908 0.99632 0.0
N581 N 0.74195 0.15255 0.9879 0.0
H582 H 0.76259 0.16751 0.98192 0.0
H583 H 0.72243 0.13509 0.98831 0.0
H584 H 0.74303 0.14773 0.83467 0.0
H585 H 0.70734 0.14761 0.88179 0.0
O586 O 0.7515 0.17301 0.88736 0.0
O587 O 0.73428 0.17667 0.88536 0.0
O588 O 0.71882 0.15584 0.99719 0.0
C589 C 0.74593 0.17931 0.86115 0.0
H590 H 0.74257 0.20158 0.09577 0.0
H591 H 0.72399 0.13173 0.74907 0.0
H592 H 0.73047 0.11935 0.01303 0.0
H593 H 0.77119 0.15274 0.00963 0.0
Co594 Co 0.43212 0.16328 0.46186 0.0
C595 C 0.43719 0.18632 0.55162 0.0
C596 C 0.43734 0.16998 0.60256 0.0
C597 C 0.43988 0.17993 0.64759 0.0
N598 N 0.43581 0.17398 0.54207 0.0
N599 N 0.43978 0.1902 0.6157 0.0
H600 H 0.43625 0.19233 0.51303 0.0
H601 H 0.43632 0.16029 0.61385 0.0
C602 C 0.44342 0.14439 0.48999 0.0
O603 O 0.43694 0.13667 0.43961 0.0
N604 N 0.42851 0.15281 0.38117 0.0
C605 C 0.41644 0.14494 0.35256 0.0
C606 C 0.41824 0.13902 0.29732 0.0
C607 C 0.43757 0.15232 0.34023 0.0
N608 N 0.43151 0.14349 0.29019 0.0
C609 C 0.40614 0.15449 0.51229 0.0
C610 C 0.39653 0.12708 0.50818 0.0
C611 C 0.38734 0.13172 0.51323 0.0
C612 C 0.39239 0.1456 0.51912 0.0
C613 C 0.4103 0.13638 0.50154 0.0
N614 N 0.41483 0.14991 0.49924 0.0
H615 H 0.40968 0.16517 0.51228 0.0
H616 H 0.41692 0.13251 0.49278 0.0
H617 H 0.40693 0.1434 0.37106 0.0
H618 H 0.44827 0.15745 0.35026 0.0
O619 O 0.42566 0.17366 0.41654 0.0
O620 O 0.44697 0.17857 0.41651 0.0
O621 O 0.44228 0.15469 0.50418 0.0
C622 C 0.43782 0.18126 0.3951 0.0
H623 H 0.4412 0.17945 0.70031 0.0
H624 H 0.41032 0.13173 0.26576 0.0
H625 H 0.39305 0.11641 0.50414 0.0
H626 H 0.38567 0.14961 0.52503 0.0
Co627 Co 0.84552 0.27263 0.44736 0.0
C628 C 0.82196 0.25243 0.53063 0.0
C629 C 0.82615 0.27274 0.53948 0.0
C630 C 0.81479 0.26467 0.57519 0.0
N631 N 0.8311 0.26526 0.51329 0.0
N632 N 0.81206 0.25185 0.56968 0.0
H633 H 0.82182 0.24359 0.51148 0.0
H634 H 0.83017 0.28338 0.53084 0.0
C635 C 0.85661 0.29224 0.5572 0.0
O636 O 0.85282 0.28166 0.5953 0.0
N637 N 0.85918 0.28062 0.3798 0.0
C638 C 0.86462 0.27487 0.34218 0.0
C639 C 0.87275 0.28411 0.29506 0.0
C640 C 0.86394 0.2931 0.35518 0.0
N641 N 0.87229 0.29557 0.30354 0.0
C642 C 0.85201 0.25382 0.50447 0.0
C643 C 0.8795 0.27122 0.50965 0.0
C644 C 0.87455 0.2573 0.51273 0.0
C645 C 0.8606 0.24866 0.51402 0.0
C646 C 0.87048 0.27601 0.5007 0.0
N647 N 0.85691 0.26726 0.49516 0.0
H648 H 0.84157 0.24671 0.49683 0.0
H649 H 0.87457 0.28663 0.49101 0.0
H650 H 0.86257 0.26462 0.34762 0.0
H651 H 0.86082 0.30002 0.37296 0.0
O652 O 0.83625 0.25664 0.39563 0.0
O653 O 0.83285 0.27395 0.38661 0.0
O654 O 0.85427 0.29071 0.49489 0.0
C655 C 0.83007 0.26199 0.36614 0.0
H656 H 0.80889 0.26805 0.60224 0.0
H657 H 0.87844 0.28247 0.25725 0.0
H658 H 0.89023 0.27824 0.50806 0.0
H659 H 0.85635 0.23784 0.51689 0.0
Co660 Co 0.73365 0.57493 0.46219 0.0
C661 C 0.75095 0.56998 0.55799 0.0
C662 C 0.73648 0.57383 0.60533 0.0
C663 C 0.74329 0.57113 0.65328 0.0
N664 N 0.74118 0.57306 0.54539 0.0
N665 N 0.75237 0.56869 0.62361 0.0
H666 H 0.75677 0.56848 0.52046 0.0
H667 H 0.7286 0.57622 0.61369 0.0
C668 C 0.70324 0.56141 0.49415 0.0
O669 O 0.70051 0.5666 0.44283 0.0
N670 N 0.72588 0.57624 0.37926 0.0
C671 C 0.72913 0.58727 0.34259 0.0
C672 C 0.72056 0.58348 0.28888 0.0
C673 C 0.71602 0.56585 0.34539 0.0
N674 N 0.71217 0.57003 0.29155 0.0
C675 C 0.74825 0.60114 0.51599 0.0
C676 C 0.72928 0.60905 0.50032 0.0
C677 C 0.74223 0.61854 0.52221 0.0
C678 C 0.75166 0.61432 0.53113 0.0
C679 C 0.72618 0.59579 0.48677 0.0
N680 N 0.7357 0.592 0.49363 0.0
H681 H 0.75597 0.59839 0.5199 0.0
H682 H 0.71644 0.58899 0.46708 0.0
H683 H 0.73684 0.59741 0.3552 0.0
H684 H 0.71112 0.55551 0.36243 0.0
O685 O 0.7508 0.58262 0.41955 0.0
O686 O 0.73612 0.56073 0.42207 0.0
O687 O 0.71524 0.56378 0.50549 0.0
C688 C 0.74776 0.57056 0.40209 0.0
H689 H 0.74184 0.5712 0.70608 0.0
H690 H 0.71998 0.59019 0.25303 0.0
H691 H 0.72171 0.61192 0.49242 0.0
H692 H 0.76187 0.62133 0.5466 0.0
Co693 Co 0.50134 0.10249 0.89313 0.0
C694 C 0.52227 0.10256 0.79798 0.0
C695 C 0.52236 0.12122 0.80802 0.0
C696 C 0.53263 0.1233 0.76662 0.0
N697 N 0.51572 0.10824 0.82786 0.0
N698 N 0.53266 0.11164 0.76029 0.0
H699 H 0.51988 0.09227 0.80416 0.0
H700 H 0.51992 0.12878 0.82341 0.0
C701 C 0.49124 0.10926 0.77351 0.0
O702 O 0.49493 0.10152 0.74293 0.0
N703 N 0.4876 0.09813 0.95885 0.0
C704 C 0.48093 0.0869 0.99567 0.0
C705 C 0.47254 0.0886 0.03855 0.0
C706 C 0.48339 0.10654 0.98019 0.0
N707 N 0.47417 0.10099 0.02886 0.0
C708 C 0.49464 0.07572 0.85823 0.0
C709 C 0.46777 0.06621 0.83053 0.0
C710 C 0.47225 0.05692 0.83824 0.0
C711 C 0.48599 0.06193 0.84978 0.0
C712 C 0.47682 0.08003 0.83922 0.0
N713 N 0.49011 0.08467 0.85371 0.0
H714 H 0.50475 0.07898 0.87455 0.0
H715 H 0.47284 0.08681 0.83998 0.0
H716 H 0.48221 0.07818 0.99219 0.0
H717 H 0.48708 0.11657 0.96047 0.0
O718 O 0.51086 0.09735 0.95365 0.0
O719 O 0.51389 0.11798 0.94667 0.0
O720 O 0.49289 0.1109 0.83611 0.0
C721 C 0.51705 0.10966 0.97454 0.0
H722 H 0.53949 0.13271 0.74249 0.0
H723 H 0.46604 0.08142 0.07523 0.0
H724 H 0.45719 0.06278 0.82281 0.0
H725 H 0.48994 0.05516 0.85604 0.0
Co726 Co 0.91542 0.40335 0.87443 0.0
C727 C 0.91197 0.4221 0.78299 0.0
C728 C 0.90825 0.40397 0.73441 0.0
C729 C 0.90486 0.41114 0.69199 0.0
N730 N 0.91273 0.41074 0.79204 0.0
N731 N 0.90704 0.42247 0.72267 0.0
H732 H 0.91422 0.42961 0.82068 0.0
H733 H 0.9069 0.39414 0.72383 0.0
C734 C 0.91016 0.37661 0.81983 0.0
O735 O 0.92194 0.37899 0.84161 0.0
N736 N 0.91726 0.39553 0.95762 0.0
C737 C 0.92324 0.40223 0.01394 0.0
C738 C 0.9206 0.39319 0.0641 0.0
C739 C 0.91053 0.38238 0.97619 0.0
N740 N 0.91258 0.38068 0.04048 0.0
C741 C 0.94366 0.41546 0.88815 0.0
C742 C 0.95016 0.40989 0.76554 0.0
C743 C 0.9605 0.41792 0.80994 0.0
C744 C 0.95706 0.42049 0.87192 0.0
C745 C 0.93663 0.40493 0.78412 0.0
N746 N 0.93348 0.40759 0.84558 0.0
H747 H 0.94166 0.41866 0.93423 0.0
H748 H 0.92883 0.39911 0.74876 0.0
H749 H 0.92852 0.41303 0.02029 0.0
H750 H 0.90347 0.37424 0.94521 0.0
O751 O 0.92113 0.42019 0.91783 0.0
O752 O 0.89994 0.40364 0.91359 0.0
O753 O 0.90597 0.38483 0.83216 0.0
C754 C 0.90872 0.41569 0.93453 0.0
H755 H 0.90076 0.40805 0.64277 0.0
H756 H 0.92402 0.3957 0.11467 0.0
H757 H 0.9525 0.40789 0.7165 0.0
H758 H 0.96477 0.42689 0.90705 0.0
Co759 Co 0.60192 0.50991 0.88216 0.0
C760 C 0.58339 0.48605 0.79828 0.0
C761 C 0.5962 0.50369 0.74134 0.0
C762 C 0.58885 0.4932 0.69857 0.0
N763 N 0.59285 0.49926 0.804 0.0
N764 N 0.58083 0.48211 0.73435 0.0
H765 H 0.57872 0.4793 0.83952 0.0
H766 H 0.60365 0.51386 0.72763 0.0
C767 C 0.63158 0.52648 0.83819 0.0
O768 O 0.63493 0.53485 0.88796 0.0
N769 N 0.61114 0.52012 0.96059 0.0
C770 C 0.60821 0.52804 0.9981 0.0
C771 C 0.6173 0.5331 0.04971 0.0
C772 C 0.62138 0.51983 0.99209 0.0
N773 N 0.62568 0.52808 0.045 0.0
C774 C 0.58616 0.52059 0.83287 0.0
C775 C 0.60492 0.54768 0.84259 0.0
C776 C 0.59154 0.54382 0.82732 0.0
C777 C 0.58222 0.53007 0.82079 0.0
C778 C 0.60854 0.5378 0.85298 0.0
N779 N 0.59912 0.5244 0.84976 0.0
H780 H 0.57855 0.51005 0.83194 0.0
H781 H 0.61865 0.54105 0.86808 0.0
H782 H 0.60022 0.53019 0.988 0.0
H783 H 0.62605 0.51422 0.97445 0.0
O784 O 0.58576 0.50109 0.93324 0.0
O785 O 0.60041 0.49391 0.92502 0.0
O786 O 0.61948 0.51673 0.83086 0.0
C787 C 0.58932 0.49246 0.95101 0.0
H788 H 0.58935 0.4937 0.64516 0.0
H789 H 0.6181 0.54041 0.08596 0.0
H790 H 0.61242 0.55822 0.84827 0.0
H791 H 0.57172 0.5266 0.81021 0.0
Co792 Co 0.57012 0.83835 0.72585 0.0
C793 C 0.57007 0.81741 0.63039 0.0
C794 C 0.55076 0.81334 0.66497 0.0
C795 C 0.54888 0.8032 0.62304 0.0
N796 N 0.56402 0.82232 0.67049 0.0
N797 N 0.56097 0.80572 0.60068 0.0
H798 H 0.58072 0.82238 0.62063 0.0
H799 H 0.54285 0.8142 0.68933 0.0
C800 C 0.56036 0.84432 0.60282 0.0
O801 O 0.5677 0.84005 0.57313 0.0
N802 N 0.57491 0.85368 0.78215 0.0
C803 C 0.58665 0.86165 0.8132 0.0
C804 C 0.58508 0.8706 0.85259 0.0
C805 C 0.56634 0.85769 0.80349 0.0
N806 N 0.57227 0.86803 0.84663 0.0
C807 C 0.59632 0.84511 0.68141 0.0
C808 C 0.60398 0.8708 0.6377 0.0
C809 C 0.61374 0.86688 0.64254 0.0
C810 C 0.60965 0.85372 0.66315 0.0
C811 C 0.59059 0.86172 0.65527 0.0
N812 N 0.58689 0.84902 0.67719 0.0
H813 H 0.5938 0.83553 0.70313 0.0
H814 H 0.58348 0.86529 0.65607 0.0
H815 H 0.59561 0.86083 0.80867 0.0
H816 H 0.5559 0.85296 0.78828 0.0
O817 O 0.57719 0.83126 0.79031 0.0
O818 O 0.55611 0.827 0.78945 0.0
O819 O 0.55994 0.84438 0.66603 0.0
C820 C 0.5654 0.82524 0.81724 0.0
H821 H 0.53924 0.79459 0.61043 0.0
H822 H 0.59264 0.87808 0.8849 0.0
H823 H 0.60674 0.88094 0.62282 0.0
H824 H 0.6169 0.85037 0.66957 0.0
Co825 Co 0.16031 0.73632 0.70842 0.0
C826 C 0.18433 0.75348 0.62218 0.0
C827 C 0.16614 0.74157 0.56723 0.0
C828 C 0.17653 0.74832 0.5233 0.0
N829 N 0.17096 0.74474 0.62937 0.0
N830 N 0.18798 0.75577 0.55776 0.0
H831 H 0.19136 0.75782 0.66269 0.0
H832 H 0.15573 0.73468 0.55466 0.0
C833 C 0.14177 0.70682 0.6652 0.0
O834 O 0.13353 0.70417 0.71499 0.0
N835 N 0.15004 0.72764 0.78753 0.0
C836 C 0.14285 0.73133 0.8261 0.0
C837 C 0.13747 0.72231 0.8779 0.0
C838 C 0.14959 0.71697 0.81844 0.0
N839 N 0.14157 0.71318 0.8722 0.0
C840 C 0.15154 0.75382 0.66217 0.0
C841 C 0.12413 0.73712 0.67715 0.0
C842 C 0.12922 0.75096 0.66714 0.0
C843 C 0.14305 0.75916 0.6564 0.0
C844 C 0.13306 0.73211 0.68212 0.0
N845 N 0.14667 0.74056 0.67743 0.0
H846 H 0.16227 0.76066 0.65894 0.0
H847 H 0.12899 0.72173 0.69521 0.0
H848 H 0.14143 0.73983 0.81675 0.0
H849 H 0.15454 0.7117 0.8 0.0
O850 O 0.17025 0.75247 0.7586 0.0
O851 O 0.17591 0.73668 0.75062 0.0
O852 O 0.15215 0.71855 0.65766 0.0
C853 C 0.1783 0.74817 0.77609 0.0
H854 H 0.17571 0.74783 0.46997 0.0
H855 H 0.13062 0.72213 0.91516 0.0
H856 H 0.11349 0.73042 0.68567 0.0
H857 H 0.14742 0.76985 0.647 0.0
Co858 Co 0.27424 0.42844 0.70051 0.0
C859 C 0.25751 0.43584 0.61428 0.0
C860 C 0.27276 0.43423 0.56054 0.0
C861 C 0.2659 0.43788 0.51717 0.0
N862 N 0.26762 0.43305 0.62166 0.0
N863 N 0.25633 0.4389 0.55092 0.0
H864 H 0.25116 0.43569 0.65401 0.0
H865 H 0.28084 0.43235 0.54799 0.0
C866 C 0.30451 0.44016 0.67439 0.0
O867 O 0.30575 0.43338 0.72343 0.0
N868 N 0.28075 0.42399 0.78005 0.0
C869 C 0.27651 0.41166 0.80573 0.0
C870 C 0.28413 0.41296 0.86084 0.0
C871 C 0.29016 0.43267 0.82278 0.0
N872 N 0.29287 0.42617 0.87091 0.0
C873 C 0.25745 0.40316 0.64239 0.0
C874 C 0.275 0.39327 0.64931 0.0
C875 C 0.26118 0.38423 0.64257 0.0
C876 C 0.2525 0.38941 0.6347 0.0
C877 C 0.27956 0.40704 0.65678 0.0
N878 N 0.27062 0.41165 0.65834 0.0
H879 H 0.25039 0.40679 0.64175 0.0
H880 H 0.28998 0.41355 0.66779 0.0
H881 H 0.26862 0.40231 0.78523 0.0
H882 H 0.29572 0.44346 0.8152 0.0
O883 O 0.25713 0.42137 0.74324 0.0
O884 O 0.27344 0.44264 0.75033 0.0
O885 O 0.29309 0.43907 0.6605 0.0
C886 C 0.2614 0.43324 0.76813 0.0
H887 H 0.26759 0.43931 0.46445 0.0
H888 H 0.28349 0.40477 0.89023 0.0
H889 H 0.28204 0.38964 0.65491 0.0
H890 H 0.24179 0.38276 0.62773 0.0
Co891 Co 0.51233 0.9087 0.29726 0.0
C892 C 0.49047 0.90364 0.396 0.0
C893 C 0.5076 0.90353 0.4382 0.0
C894 C 0.49872 0.90159 0.48789 0.0
N895 N 0.5025 0.90478 0.38033 0.0
N896 N 0.48798 0.90175 0.4618 0.0
H897 H 0.48396 0.90475 0.36098 0.0
H898 H 0.51741 0.90451 0.44447 0.0
C899 C 0.52905 0.89446 0.31416 0.0
O900 O 0.53683 0.90056 0.26341 0.0
N901 N 0.52203 0.91255 0.21407 0.0
C902 C 0.5299 0.92479 0.1871 0.0
C903 C 0.53537 0.92326 0.12954 0.0
C904 C 0.52204 0.9037 0.17008 0.0
N905 N 0.53063 0.91 0.11944 0.0
C906 C 0.52361 0.9338 0.36234 0.0
C907 C 0.55047 0.94163 0.34648 0.0
C908 C 0.54703 0.95117 0.36766 0.0
C909 C 0.53341 0.94693 0.37801 0.0
C910 C 0.54029 0.92846 0.33211 0.0
N911 N 0.52703 0.92485 0.33733 0.0
H912 H 0.51315 0.93106 0.36626 0.0
H913 H 0.5432 0.92167 0.3119 0.0
H914 H 0.53183 0.93423 0.2086 0.0
H915 H 0.51673 0.89292 0.17805 0.0
O916 O 0.50287 0.91712 0.26158 0.0
O917 O 0.49612 0.89541 0.25126 0.0
O918 O 0.51958 0.89673 0.33063 0.0
C919 C 0.49427 0.90549 0.23705 0.0
H920 H 0.50023 0.90041 0.53973 0.0
H921 H 0.54258 0.93136 0.09858 0.0
H922 H 0.56088 0.94445 0.33831 0.0
H923 H 0.53021 0.95393 0.39353 0.0
Co924 Co 0.09364 0.60355 0.286 0.0
C925 C 0.10013 0.58623 0.37315 0.0
C926 C 0.09383 0.59818 0.4275 0.0
C927 C 0.09736 0.59135 0.47178 0.0
N928 N 0.0956 0.59504 0.36552 0.0
N929 N 0.10134 0.58386 0.43763 0.0
H930 H 0.10287 0.58188 0.33294 0.0
H931 H 0.09037 0.60513 0.43975 0.0
C932 C 0.10453 0.63303 0.32943 0.0
O933 O 0.0991 0.63577 0.27913 0.0
N934 N 0.09229 0.61228 0.20642 0.0
C935 C 0.08152 0.60855 0.16689 0.0
C936 C 0.08526 0.61759 0.11513 0.0
C937 C 0.10255 0.623 0.17616 0.0
N938 N 0.09844 0.62677 0.12181 0.0
C939 C 0.06718 0.58601 0.32944 0.0
C940 C 0.05661 0.60281 0.3129 0.0
C941 C 0.04779 0.58896 0.32169 0.0
C942 C 0.05332 0.58069 0.33324 0.0
C943 C 0.07057 0.6078 0.30978 0.0
N944 N 0.07566 0.59929 0.31513 0.0
H945 H 0.07103 0.57914 0.33329 0.0
H946 H 0.07696 0.6182 0.29749 0.0
H947 H 0.0716 0.60001 0.17557 0.0
H948 H 0.11272 0.62832 0.19541 0.0
O949 O 0.08764 0.58743 0.23575 0.0
O950 O 0.10903 0.60324 0.24569 0.0
O951 O 0.1031 0.62127 0.33716 0.0
C952 C 0.10006 0.59173 0.2199 0.0
H953 H 0.09696 0.59182 0.52509 0.0
H954 H 0.07867 0.61773 0.07719 0.0
H955 H 0.05275 0.60957 0.30384 0.0
H956 H 0.04693 0.56998 0.34171 0.0
Co957 Co 0.4031 0.49621 0.26712 0.0
C958 C 0.42318 0.51873 0.36036 0.0
C959 C 0.40447 0.51801 0.34121 0.0
C960 C 0.41197 0.52877 0.38132 0.0
N961 N 0.41129 0.51155 0.32765 0.0
N962 N 0.42375 0.52928 0.394 0.0
H963 H 0.43119 0.51642 0.36051 0.0
H964 H 0.39456 0.51511 0.32218 0.0
C965 C 0.38672 0.48712 0.38797 0.0
O966 O 0.39831 0.49153 0.4183 0.0
N967 N 0.39387 0.4815 0.20578 0.0
C968 C 0.39854 0.47475 0.17037 0.0
C969 C 0.38844 0.46604 0.12806 0.0
C970 C 0.38121 0.477 0.18428 0.0
N971 N 0.37759 0.46758 0.1367 0.0
C972 C 0.42409 0.49147 0.30849 0.0
C973 C 0.40793 0.4644 0.33648 0.0
C974 C 0.42185 0.46963 0.3292 0.0
C975 C 0.42996 0.4835 0.3184 0.0
C976 C 0.40243 0.47283 0.32725 0.0
N977 N 0.41048 0.48617 0.31164 0.0
H978 H 0.43051 0.50164 0.29154 0.0
H979 H 0.3916 0.46832 0.32627 0.0
H980 H 0.40863 0.47631 0.17377 0.0
H981 H 0.37488 0.48082 0.20247 0.0
O982 O 0.4175 0.50524 0.20531 0.0
O983 O 0.39943 0.50753 0.20776 0.0
O984 O 0.38646 0.488 0.32499 0.0
C985 C 0.41095 0.51068 0.18046 0.0
H986 H 0.40903 0.53586 0.39838 0.0
H987 H 0.38921 0.4595 0.09199 0.0
H988 H 0.40122 0.45371 0.34405 0.0
H989 H 0.44077 0.48808 0.31321 0.0
Co990 Co 0.1056 0.50148 0.77495 0.0
C991 C 0.10612 0.52176 0.8743 0.0
C992 C 0.12465 0.52166 0.86431 0.0
C993 C 0.12667 0.53163 0.90793 0.0
N994 N 0.11175 0.51527 0.84348 0.0
N995 N 0.11505 0.53176 0.91424 0.0
H996 H 0.09597 0.51967 0.86674 0.0
H997 H 0.1322 0.51928 0.84798 0.0
C998 C 0.11365 0.49034 0.88746 0.0
O999 O 0.10643 0.49379 0.92427 0.0
N1000 N 0.10057 0.48823 0.70589 0.0
C1001 C 0.08895 0.48189 0.67161 0.0
C1002 C 0.0899 0.47341 0.62628 0.0
C1003 C 0.10847 0.48375 0.68064 0.0
N1004 N 0.10221 0.47466 0.63199 0.0
C1005 C 0.07908 0.49432 0.81509 0.0
C1006 C 0.06993 0.46732 0.83702 0.0
C1007 C 0.0605 0.47171 0.83298 0.0
C1008 C 0.06537 0.48551 0.82374 0.0
C1009 C 0.08369 0.47656 0.82827 0.0
N1010 N 0.08815 0.48991 0.81663 0.0
H1011 H 0.08211 0.50445 0.80011 0.0
H1012 H 0.09053 0.47268 0.82492 0.0
H1013 H 0.08043 0.48337 0.6788 0.0
H1014 H 0.1186 0.48708 0.69778 0.0
O1015 O 0.10005 0.51149 0.72003 0.0
O1016 O 0.12067 0.51444 0.72039 0.0
O1017 O 0.11445 0.49255 0.82506 0.0
C1018 C 0.11215 0.51778 0.69662 0.0
H1019 H 0.13601 0.53825 0.93322 0.0
H1020 H 0.08227 0.46708 0.59086 0.0
H1021 H 0.06669 0.45676 0.84374 0.0
H1022 H 0.05858 0.48942 0.81767 0.0
Co1023 Co 0.50977 0.60581 0.77734 0.0
C1024 C 0.4868 0.58621 0.86701 0.0
C1025 C 0.48803 0.60523 0.85032 0.0
C1026 C 0.47683 0.59748 0.88759 0.0
N1027 N 0.49452 0.59838 0.83798 0.0
N1028 N 0.476 0.58549 0.89836 0.0
H1029 H 0.48871 0.57793 0.86464 0.0
H1030 H 0.49107 0.61518 0.83146 0.0
C1031 C 0.51832 0.62494 0.88927 0.0
O1032 O 0.51331 0.61422 0.92727 0.0
N1033 N 0.52436 0.61398 0.71474 0.0
C1034 C 0.53154 0.60894 0.6865 0.0
C1035 C 0.54014 0.61815 0.64054 0.0
C1036 C 0.52846 0.62594 0.68533 0.0
N1037 N 0.53807 0.62876 0.63971 0.0
C1038 C 0.51587 0.58662 0.83186 0.0
C1039 C 0.54275 0.60459 0.85643 0.0
C1040 C 0.53839 0.59081 0.85222 0.0
C1041 C 0.52464 0.58178 0.8438 0.0
C1042 C 0.53355 0.60906 0.84481 0.0
N1043 N 0.52035 0.60011 0.82987 0.0
H1044 H 0.50587 0.57945 0.81568 0.0
H1045 H 0.53747 0.61977 0.83983 0.0
H1046 H 0.53041 0.59918 0.69747 0.0
H1047 H 0.5243 0.63236 0.69665 0.0
O1048 O 0.50107 0.59009 0.7228 0.0
O1049 O 0.49805 0.60762 0.71244 0.0
O1050 O 0.51781 0.62367 0.82625 0.0
C1051 C 0.49532 0.59571 0.69181 0.0
H1052 H 0.46956 0.60031 0.90319 0.0
H1053 H 0.54702 0.61692 0.60865 0.0
H1054 H 0.55334 0.61191 0.86205 0.0
H1055 H 0.52087 0.57104 0.84024 0.0
Co1056 Co 0.40402 0.91099 0.79124 0.0
C1057 C 0.42262 0.90923 0.89229 0.0
C1058 C 0.40191 0.89428 0.90452 0.0
C1059 C 0.40935 0.89152 0.94802 0.0
N1060 N 0.41005 0.90565 0.87048 0.0
N1061 N 0.42238 0.90087 0.94033 0.0
H1062 H 0.43182 0.91698 0.87019 0.0
H1063 H 0.39132 0.88767 0.89529 0.0
C1064 C 0.38165 0.90453 0.88492 0.0
O1065 O 0.39081 0.91368 0.92394 0.0
N1066 N 0.39735 0.91497 0.71164 0.0
C1067 C 0.40293 0.92615 0.67388 0.0
C1068 C 0.39418 0.9243 0.62259 0.0
C1069 C 0.38555 0.90642 0.68237 0.0
N1070 N 0.38331 0.91185 0.62808 0.0
C1071 C 0.42125 0.93699 0.84779 0.0
C1072 C 0.40418 0.94725 0.83072 0.0
C1073 C 0.41751 0.95599 0.85059 0.0
C1074 C 0.42594 0.95057 0.8605 0.0
C1075 C 0.39978 0.93356 0.81966 0.0
N1076 N 0.40835 0.92857 0.82748 0.0
H1077 H 0.4284 0.93358 0.84964 0.0
H1078 H 0.38967 0.92713 0.80129 0.0
H1079 H 0.41257 0.93504 0.68338 0.0
H1080 H 0.37863 0.89646 0.70119 0.0
O1081 O 0.42106 0.91693 0.74997 0.0
O1082 O 0.40397 0.89598 0.7446 0.0
O1083 O 0.38503 0.90189 0.82896 0.0
C1084 C 0.4164 0.90474 0.7288 0.0
H1085 H 0.40549 0.88298 0.98125 0.0
H1086 H 0.39575 0.93148 0.58398 0.0
H1087 H 0.39732 0.95101 0.82216 0.0
H1088 H 0.43642 0.95697 0.87388 0.0
Co1089 Co 0.16811 0.43365 0.21273 0.0
C1090 C 0.18874 0.43419 0.11559 0.0
C1091 C 0.18797 0.45244 0.12221 0.0
C1092 C 0.19821 0.45463 0.08026 0.0
N1093 N 0.18181 0.4396 0.14401 0.0
N1094 N 0.19877 0.44321 0.07613 0.0
H1095 H 0.18703 0.42421 0.12505 0.0
H1096 H 0.18535 0.45989 0.13729 0.0
C1097 C 0.15701 0.4418 0.10038 0.0
O1098 O 0.16007 0.43427 0.0636 0.0
N1099 N 0.15499 0.42892 0.28208 0.0
C1100 C 0.14835 0.41736 0.31661 0.0
C1101 C 0.14041 0.41886 0.36324 0.0
C1102 C 0.15123 0.43731 0.30842 0.0
N1103 N 0.14233 0.43145 0.35809 0.0
C1104 C 0.16061 0.40697 0.17275 0.0
C1105 C 0.1336 0.39808 0.15282 0.0
C1106 C 0.13784 0.38856 0.15831 0.0
C1107 C 0.1516 0.39323 0.16576 0.0
C1108 C 0.143 0.41184 0.16033 0.0
N1109 N 0.15634 0.41617 0.17145 0.0
H1110 H 0.17079 0.40995 0.1863 0.0
H1111 H 0.13926 0.4188 0.16367 0.0
H1112 H 0.14933 0.40855 0.30899 0.0
H1113 H 0.15502 0.44755 0.29159 0.0
O1114 O 0.178 0.42796 0.26774 0.0
O1115 O 0.18125 0.4487 0.26678 0.0
O1116 O 0.15935 0.44267 0.16266 0.0
C1117 C 0.18443 0.44009 0.29094 0.0
H1118 H 0.20477 0.46398 0.05488 0.0
H1119 H 0.13404 0.41142 0.39932 0.0
H1120 H 0.12301 0.39487 0.14808 0.0
H1121 H 0.15531 0.38623 0.17025 0.0
Co1122 Co 0.58058 0.73549 0.20839 0.0
C1123 C 0.57537 0.75468 0.12987 0.0
C1124 C 0.57176 0.73729 0.07403 0.0
C1125 C 0.56792 0.74476 0.03648 0.0
N1126 N 0.5764 0.74339 0.13302 0.0
N1127 N 0.57009 0.75563 0.07164 0.0
H1128 H 0.57788 0.76177 0.16994 0.0
H1129 H 0.57072 0.72778 0.0592 0.0
C1130 C 0.57332 0.70795 0.15806 0.0
O1131 O 0.58455 0.70954 0.18376 0.0
N1132 N 0.5841 0.72711 0.28389 0.0
C1133 C 0.5951 0.73179 0.32294 0.0
C1134 C 0.59284 0.72232 0.37063 0.0
C1135 C 0.57513 0.71509 0.31053 0.0
N1136 N 0.58031 0.71181 0.36259 0.0
C1137 C 0.60917 0.74987 0.19606 0.0
C1138 C 0.61175 0.73719 0.08591 0.0
C1139 C 0.62331 0.74632 0.12076 0.0
C1140 C 0.62191 0.75296 0.17513 0.0
C1141 C 0.59901 0.73421 0.10948 0.0
N1142 N 0.5978 0.73986 0.16691 0.0
H1143 H 0.60861 0.75553 0.23701 0.0
H1144 H 0.59028 0.72727 0.08157 0.0
H1145 H 0.60408 0.74148 0.31932 0.0
H1146 H 0.56507 0.70876 0.2913 0.0
O1147 O 0.58706 0.75184 0.25818 0.0
O1148 O 0.56591 0.73532 0.25871 0.0
O1149 O 0.57023 0.71719 0.16419 0.0
C1150 C 0.575 0.74708 0.28116 0.0
H1151 H 0.56372 0.74231 0.98715 0.0
H1152 H 0.59981 0.72325 0.40919 0.0
H1153 H 0.61253 0.73228 0.04182 0.0
H1154 H 0.63068 0.76056 0.20137 0.0
Co1155 Co 0.27395 0.83899 0.2226 0.0
C1156 C 0.25337 0.81824 0.12706 0.0
C1157 C 0.27299 0.82036 0.12392 0.0
C1158 C 0.26483 0.81023 0.08155 0.0
N1159 N 0.26601 0.82569 0.15183 0.0
N1160 N 0.25247 0.80883 0.08344 0.0
H1161 H 0.24482 0.81907 0.14228 0.0
H1162 H 0.28336 0.82343 0.13506 0.0
C1163 C 0.29249 0.85159 0.10974 0.0
O1164 O 0.28169 0.84907 0.07596 0.0
N1165 N 0.28259 0.85175 0.29357 0.0
C1166 C 0.27756 0.85791 0.33096 0.0
C1167 C 0.28737 0.86635 0.375 0.0
C1168 C 0.29521 0.85627 0.31587 0.0
N1169 N 0.29844 0.86525 0.36547 0.0
C1170 C 0.25457 0.84644 0.18489 0.0
C1171 C 0.27238 0.87372 0.17114 0.0
C1172 C 0.25854 0.86916 0.1738 0.0
C1173 C 0.24962 0.85528 0.17815 0.0
C1174 C 0.27695 0.86449 0.17792 0.0
N1175 N 0.26807 0.85098 0.18548 0.0
H1176 H 0.24745 0.83614 0.19657 0.0
H1177 H 0.28765 0.86839 0.18302 0.0
H1178 H 0.26751 0.85644 0.32629 0.0
H1179 H 0.30195 0.85315 0.29559 0.0
O1180 O 0.25856 0.82876 0.27791 0.0
O1181 O 0.27606 0.82555 0.27305 0.0
O1182 O 0.29147 0.84817 0.17069 0.0
C1183 C 0.26433 0.82221 0.29848 0.0
H1184 H 0.26782 0.80434 0.05172 0.0
H1185 H 0.28637 0.87263 0.41185 0.0
H1186 H 0.27963 0.8844 0.16912 0.0
H1187 H 0.23885 0.85131 0.18065 0.0
H1188 H 0.21382 0.07588 0.6475 0.0
H1189 H 0.24714 0.13511 0.91603 0.0
H1190 H 0.25651 0.09861 0.68655 0.0
H1191 H 0.20761 0.12093 0.8325 0.0
H1192 H 0.2502 0.12019 0.84056 0.0
H1193 H 0.21056 0.09046 0.72557 0.0
C1194 C 0.22247 0.08386 0.67272 0.0
C1195 C 0.23544 0.08609 0.66031 0.0
C1196 C 0.24085 0.12037 0.83901 0.0
C1197 C 0.23184 0.1027 0.74949 0.0
C1198 C 0.23913 0.12896 0.8819 0.0
C1199 C 0.22705 0.12929 0.88148 0.0
C1200 C 0.2304 0.11196 0.79564 0.0
C1201 C 0.21698 0.1209 0.83618 0.0
C1202 C 0.22063 0.09221 0.71696 0.0
C1203 C 0.24633 0.0966 0.69422 0.0
N1204 N 0.21886 0.11257 0.79549 0.0
N1205 N 0.24428 0.10448 0.73725 0.0
H1206 H 0.89974 0.14858 0.62059 0.0
H1207 H 0.88971 0.09591 0.9037 0.0
H1208 H 0.93266 0.14377 0.69057 0.0
H1209 H 0.85988 0.10658 0.84912 0.0
H1210 H 0.90554 0.11275 0.82605 0.0
H1211 H 0.88504 0.13234 0.7013 0.0
C1212 C 0.90392 0.14407 0.65295 0.0
C1213 C 0.91756 0.14767 0.64891 0.0
C1214 C 0.89557 0.11147 0.83132 0.0
C1215 C 0.90051 0.12884 0.74271 0.0
C1216 C 0.8865 0.10183 0.8755 0.0
C1217 C 0.87337 0.09973 0.88249 0.0
C1218 C 0.8915 0.11904 0.79335 0.0
C1219 C 0.86987 0.10788 0.84562 0.0
C1220 C 0.89545 0.13477 0.6994 0.0
C1221 C 0.92224 0.14129 0.69187 0.0
N1222 N 0.87884 0.11707 0.8023 0.0
N1223 N 0.91371 0.13218 0.73728 0.0
H1224 H 0.87517 0.79009 0.57679 0.0
H1225 H 0.89532 0.7633 0.89992 0.0
H1226 H 0.84719 0.75717 0.69936 0.0
H1227 H 0.92418 0.78702 0.74966 0.0
H1228 H 0.87796 0.76513 0.83844 0.0
H1229 H 0.89365 0.79302 0.65058 0.0
C1230 C 0.87292 0.78366 0.61969 0.0
C1231 C 0.85972 0.7733 0.63183 0.0
C1232 C 0.88812 0.77003 0.81913 0.0
C1233 C 0.88055 0.7766 0.71603 0.0
C1234 C 0.89806 0.76906 0.85452 0.0
C1235 C 0.9112 0.77486 0.82958 0.0
C1236 C 0.89131 0.77693 0.7584 0.0
C1237 C 0.91412 0.78215 0.77003 0.0
C1238 C 0.88342 0.78527 0.66147 0.0
C1239 C 0.85728 0.76517 0.6878 0.0
N1240 N 0.90424 0.78291 0.73625 0.0
N1241 N 0.86756 0.76697 0.72761 0.0
H1242 H 0.09431 0.22026 0.0929 0.0
H1243 H 0.1321 0.23765 0.74394 0.0
H1244 H 0.08309 0.23583 0.92598 0.0
H1245 H 0.14271 0.22079 0.90843 0.0
H1246 H 0.11229 0.23432 0.80511 0.0
H1247 H 0.11016 0.21748 0.02201 0.0
C1248 C 0.09487 0.22264 0.04077 0.0
C1249 C 0.0873 0.22808 0.0147 0.0
C1250 C 0.1189 0.23125 0.82764 0.0
C1251 C 0.10563 0.22541 0.93395 0.0
C1252 C 0.13021 0.2331 0.79249 0.0
C1253 C 0.13927 0.22971 0.82128 0.0
C1254 C 0.11661 0.22598 0.89219 0.0
C1255 C 0.13625 0.2239 0.88473 0.0
C1256 C 0.10401 0.22121 1.00044 0.0
C1257 C 0.08868 0.23147 0.94751 0.0
N1258 N 0.12528 0.22234 0.91816 0.0
N1259 N 0.09774 0.23018 0.90957 0.0
H1260 H 0.7895 0.88036 0.07414 0.0
H1261 H 0.76597 0.89796 0.73276 0.0
H1262 H 0.76625 0.85139 0.92366 0.0
H1263 H 0.78197 0.92571 0.8964 0.0
H1264 H 0.77043 0.88221 0.79373 0.0
H1265 H 0.79122 0.89848 1.0015 0.0
C1266 C 0.78511 0.8779 0.02515 0.0
C1267 C 0.77775 0.86446 0.00445 0.0
C1268 C 0.77307 0.8918 0.81615 0.0
C1269 C 0.77949 0.88487 0.922 0.0
C1270 C 0.77059 0.90084 0.7811 0.0
C1271 C 0.77341 0.91312 0.80975 0.0
C1272 C 0.77846 0.89503 0.8804 0.0
C1273 C 0.77934 0.91623 0.87294 0.0
C1274 C 0.78597 0.88817 0.98401 0.0
C1275 C 0.772 0.86168 0.9412 0.0
N1276 N 0.78157 0.90721 0.90632 0.0
N1277 N 0.77293 0.87176 0.90241 0.0
H1278 H 0.15591 0.89785 0.99547 0.0
H1279 H 0.09952 0.89214 0.74392 0.0
H1280 H 0.14596 0.92927 0.97096 0.0
H1281 H 0.10726 0.85963 0.78368 0.0
H1282 H 0.11719 0.9063 0.82194 0.0
H1283 H 0.13882 0.88422 0.91442 0.0
C1284 C 0.15011 0.9019 0.97305 0.0
C1285 C 0.15238 0.91476 0.99013 0.0
C1286 C 0.11506 0.89608 0.81358 0.0
C1287 C 0.13271 0.89909 0.8965 0.0
C1288 C 0.10492 0.88795 0.76911 0.0
C1289 C 0.10175 0.87458 0.75763 0.0
C1290 C 0.12218 0.89088 0.84694 0.0
C1291 C 0.10936 0.86986 0.79061 0.0
C1292 C 0.14033 0.89407 0.92662 0.0
C1293 C 0.14451 0.91942 0.95939 0.0
N1294 N 0.11917 0.87798 0.83398 0.0
N1295 N 0.13503 0.91158 0.91391 0.0
H1296 H 0.75633 0.89897 0.5816 0.0
H1297 H 0.78172 0.88113 0.24767 0.0
H1298 H 0.78219 0.93012 0.4453 0.0
H1299 H 0.75223 0.85253 0.38305 0.0
H1300 H 0.78386 0.89959 0.31895 0.0
H1301 H 0.7574 0.8823 0.51237 0.0
C1302 C 0.76243 0.90232 0.53723 0.0
C1303 C 0.76918 0.91593 0.51914 0.0
C1304 C 0.77697 0.88925 0.33283 0.0
C1305 C 0.77015 0.8967 0.43754 0.0
C1306 C 0.77568 0.87872 0.29201 0.0
C1307 C 0.7669 0.8652 0.3097 0.0
C1308 C 0.76943 0.88618 0.39153 0.0
C1309 C 0.75937 0.8627 0.36788 0.0
C1310 C 0.76297 0.89276 0.49726 0.0
C1311 C 0.77694 0.91971 0.46114 0.0
N1312 N 0.76084 0.87302 0.40635 0.0
N1313 N 0.7771 0.91009 0.42172 0.0
H1314 H 0.1326 0.89119 0.20094 0.0
H1315 H 0.08063 0.87396 0.49977 0.0
H1316 H 0.13808 0.91908 0.35686 0.0
H1317 H 0.08485 0.84411 0.38996 0.0
H1318 H 0.09726 0.89152 0.42621 0.0
H1319 H 0.11083 0.87485 0.24937 0.0
C1320 C 0.12911 0.89395 0.24467 0.0
C1321 C 0.13722 0.90641 0.27554 0.0
C1322 C 0.09426 0.88108 0.41722 0.0
C1323 C 0.11237 0.88786 0.3309 0.0
C1324 C 0.08467 0.87108 0.45857 0.0
C1325 C 0.0814 0.85764 0.45043 0.0
C1326 C 0.10043 0.87751 0.36731 0.0
C1327 C 0.08713 0.8544 0.3975 0.0
C1328 C 0.11673 0.88462 0.27241 0.0
C1329 C 0.13224 0.90947 0.33233 0.0
N1330 N 0.09644 0.86426 0.3582 0.0
N1331 N 0.12018 0.90024 0.35842 0.0
H1332 H 0.13616 0.21488 0.53063 0.0
H1333 H 0.11726 0.25404 0.25982 0.0
H1334 H 0.16061 0.25735 0.48928 0.0
H1335 H 0.08725 0.21817 0.35801 0.0
H1336 H 0.13479 0.25302 0.32558 0.0
H1337 H 0.11936 0.2137 0.45051 0.0
C1338 C 0.13802 0.2239 0.50452 0.0
C1339 C 0.14969 0.23625 0.51715 0.0
C1340 C 0.12437 0.24529 0.33218 0.0
C1341 C 0.13081 0.23495 0.42503 0.0
C1342 C 0.11442 0.24584 0.29436 0.0
C1343 C 0.10083 0.23627 0.30414 0.0
C1344 C 0.12069 0.23498 0.37923 0.0
C1345 C 0.09762 0.22585 0.34984 0.0
C1346 C 0.12846 0.22324 0.45898 0.0
C1347 C 0.15165 0.24765 0.4818 0.0
N1348 N 0.10746 0.22549 0.38584 0.0
N1349 N 0.14235 0.24672 0.43739 0.0
H1350 H 0.92759 0.78558 0.17819 0.0
H1351 H 0.84861 0.74665 0.2623 0.0
H1352 H 0.89685 0.75044 0.07737 0.0
H1353 H 0.87712 0.78 0.38105 0.0
H1354 H 0.86684 0.74886 0.19338 0.0
H1355 H 0.91 0.78505 0.25101 0.0
C1356 C 0.91717 0.77789 0.17089 0.0
C1357 C 0.91367 0.768 0.12192 0.0
C1358 C 0.86924 0.75575 0.2344 0.0
C1359 C 0.89368 0.76725 0.20464 0.0
C1360 C 0.85877 0.75449 0.27378 0.0
C1361 C 0.86131 0.76324 0.3271 0.0
C1362 C 0.88253 0.76587 0.24783 0.0
C1363 C 0.87475 0.77304 0.34044 0.0
C1364 C 0.90717 0.77752 0.21266 0.0
C1365 C 0.90006 0.7582 0.11479 0.0
N1366 N 0.8849 0.77416 0.30074 0.0
N1367 N 0.89065 0.75808 0.15554 0.0
H1368 H 0.21677 0.08131 0.2911 0.0
H1369 H 0.23871 0.15791 0.2663 0.0
H1370 H 0.23859 0.10949 0.44702 0.0
H1371 H 0.20692 0.12778 0.14608 0.0
H1372 H 0.23705 0.14021 0.33987 0.0
H1373 H 0.21151 0.09768 0.24243 0.0
C1374 C 0.22036 0.09092 0.31536 0.0
C1375 C 0.22829 0.09413 0.37264 0.0
C1376 C 0.23016 0.13744 0.29856 0.0
C1377 C 0.22235 0.11297 0.31713 0.0
C1378 C 0.23104 0.14755 0.25687 0.0
C1379 C 0.22284 0.14424 0.2007 0.0
C1380 C 0.2213 0.12388 0.28265 0.0
C1381 C 0.21327 0.1307 0.18961 0.0
C1382 C 0.21726 0.10023 0.28786 0.0
C1383 C 0.23247 0.10663 0.40279 0.0
N1384 N 0.21295 0.12095 0.22947 0.0
N1385 N 0.22965 0.11569 0.37404 0.0
H1386 H 0.84177 0.08639 0.24285 0.0
H1387 H 0.92017 0.13216 0.28592 0.0
H1388 H 0.87024 0.07831 0.14419 0.0
H1389 H 0.89242 0.13228 0.42974 0.0
H1390 H 0.90189 0.1123 0.23542 0.0
H1391 H 0.8597 0.10232 0.31574 0.0
C1392 C 0.85176 0.08769 0.23804 0.0
C1393 C 0.85457 0.08101 0.18786 0.0
C1394 C 0.89978 0.11655 0.27846 0.0
C1395 C 0.87523 0.09961 0.2692 0.0
C1396 C 0.91028 0.12796 0.30775 0.0
C1397 C 0.90799 0.13395 0.36324 0.0
C1398 C 0.88671 0.11108 0.30352 0.0
C1399 C 0.89473 0.12814 0.38708 0.0
C1400 C 0.862 0.09685 0.27934 0.0
C1401 C 0.86766 0.08314 0.18289 0.0
N1402 N 0.88458 0.11707 0.35681 0.0
N1403 N 0.87759 0.09247 0.22226 0.0
H1404 H 0.92416 0.4425 0.9548 0.0
H1405 H 0.87701 0.44676 0.23273 0.0
H1406 H 0.88608 0.40832 0.01123 0.0
H1407 H 0.91583 0.47998 0.17795 0.0
H1408 H 0.87975 0.4326 0.15134 0.0
H1409 H 0.9206 0.45641 0.03334 0.0
C1410 C 0.91496 0.43791 0.98353 0.0
C1411 C 0.90541 0.42418 0.97667 0.0
C1412 C 0.88768 0.44297 0.15713 0.0
C1413 C 0.90134 0.44016 0.06778 0.0
C1414 C 0.88612 0.45109 0.20351 0.0
C1415 C 0.89618 0.46464 0.2119 0.0
C1416 C 0.89938 0.4484 0.11855 0.0
C1417 C 0.90787 0.4696 0.17355 0.0
C1418 C 0.91296 0.4459 0.02863 0.0
C1419 C 0.89366 0.41886 0.01485 0.0
N1420 N 0.90912 0.4615 0.12837 0.0
N1421 N 0.89199 0.42687 0.05922 0.0
H1422 H 0.54306 0.41713 0.16063 0.0
H1423 H 0.57037 0.49201 0.03221 0.0
H1424 H 0.5326 0.44474 0.25177 0.0
H1425 H 0.58886 0.46857 0.97813 0.0
H1426 H 0.55546 0.47421 0.10738 0.0
H1427 H 0.55865 0.43513 0.08826 0.0
C1428 C 0.54406 0.42698 0.166 0.0
C1429 C 0.53652 0.42938 0.2134 0.0
C1430 C 0.56279 0.47294 0.0794 0.0
C1431 C 0.55434 0.45007 0.12897 0.0
C1432 C 0.57131 0.48309 0.0362 0.0
C1433 C 0.58086 0.48174 0.99858 0.0
C1434 C 0.56366 0.46121 0.08481 0.0
C1435 C 0.58166 0.47001 0.0063 0.0
C1436 C 0.55298 0.43726 0.12424 0.0
C1437 C 0.53808 0.44233 0.21604 0.0
N1438 N 0.57308 0.46012 0.04829 0.0
N1439 N 0.5468 0.45217 0.17444 0.0
H1440 H 0.51391 0.09839 0.09486 0.0
H1441 H 0.59077 0.11965 0.11545 0.0
H1442 H 0.54378 0.12859 0.96727 0.0
H1443 H 0.5626 0.09819 0.27195 0.0
H1444 H 0.57419 0.12434 0.06447 0.0
H1445 H 0.53182 0.09981 0.16599 0.0
C1446 C 0.52429 0.10566 0.08321 0.0
C1447 C 0.52743 0.11352 0.02587 0.0
C1448 C 0.57169 0.11875 0.11041 0.0
C1449 C 0.54803 0.11477 0.1051 0.0
C1450 C 0.58111 0.11597 0.13925 0.0
C1451 C 0.57801 0.10836 0.19764 0.0
C1452 C 0.55895 0.11372 0.13955 0.0
C1453 C 0.56543 0.10409 0.22701 0.0
C1454 C 0.53452 0.1064 0.12348 0.0
C1455 C 0.54099 0.12256 0.01185 0.0
N1456 N 0.5563 0.10666 0.19717 0.0
N1457 N 0.55083 0.12276 0.05054 0.0
H1458 H 0.74354 0.55106 0.30848 0.0
H1459 H 0.82271 0.58646 0.23361 0.0
H1460 H 0.77466 0.58624 0.40723 0.0
H1461 H 0.79357 0.55684 0.10074 0.0
H1462 H 0.80459 0.5846 0.30243 0.0
H1463 H 0.761 0.55085 0.23732 0.0
C1464 C 0.75402 0.55858 0.3158 0.0
C1465 C 0.75768 0.5687 0.36363 0.0
C1466 C 0.80203 0.57846 0.25828 0.0
C1467 C 0.77751 0.5686 0.2829 0.0
C1468 C 0.81243 0.57951 0.21898 0.0
C1469 C 0.80967 0.57172 0.16159 0.0
C1470 C 0.78859 0.56953 0.24068 0.0
C1471 C 0.79611 0.56306 0.1445 0.0
C1472 C 0.76393 0.55854 0.2749 0.0
C1473 C 0.77135 0.5783 0.3707 0.0
N1474 N 0.78602 0.56213 0.18414 0.0
N1475 N 0.78069 0.57801 0.33099 0.0
H1476 H 0.4591 0.20735 0.38538 0.0
H1477 H 0.42577 0.22434 0.07765 0.0
H1478 H 0.42203 0.17852 0.29112 0.0
H1479 H 0.45133 0.25428 0.21965 0.0
H1480 H 0.42888 0.20747 0.13778 0.0
H1481 H 0.46072 0.22475 0.3076 0.0
C1482 C 0.45148 0.20465 0.34756 0.0
C1483 C 0.44037 0.19158 0.34472 0.0
C1484 C 0.43395 0.21779 0.15525 0.0
C1485 C 0.44219 0.21116 0.25593 0.0
C1486 C 0.43224 0.2274 0.12071 0.0
C1487 C 0.43816 0.24066 0.14422 0.0
C1488 C 0.44179 0.2215 0.21319 0.0
C1489 C 0.4464 0.2441 0.20062 0.0
C1490 C 0.45236 0.21454 0.30357 0.0
C1491 C 0.43069 0.18855 0.29524 0.0
N1492 N 0.44793 0.23457 0.23342 0.0
N1493 N 0.43181 0.19825 0.25291 0.0
H1494 H 0.76212 0.22222 0.09841 0.0
H1495 H 0.82993 0.24208 0.2947 0.0
H1496 H 0.78128 0.19803 0.10284 0.0
H1497 H 0.80924 0.26469 0.31189 0.0
H1498 H 0.81373 0.22776 0.21231 0.0
H1499 H 0.78056 0.23941 0.16412 0.0
C1500 C 0.77021 0.22051 0.11301 0.0
C1501 C 0.76999 0.20849 0.09593 0.0
C1502 C 0.8127 0.23587 0.23359 0.0
C1503 C 0.79129 0.22832 0.17076 0.0
C1504 C 0.82196 0.24409 0.2809 0.0
C1505 C 0.82083 0.25452 0.31103 0.0
C1506 C 0.80207 0.23795 0.21597 0.0
C1507 C 0.81044 0.25674 0.2901 0.0
C1508 C 0.78079 0.23039 0.15035 0.0
C1509 C 0.781 0.20709 0.11473 0.0
N1510 N 0.80134 0.2484 0.24421 0.0
N1511 N 0.79112 0.21682 0.15158 0.0
H1512 H 0.45611 0.20427 0.71748 0.0
H1513 H 0.41522 0.24097 0.79825 0.0
H1514 H 0.42611 0.20316 0.5852 0.0
H1515 H 0.45479 0.25521 0.88012 0.0
H1516 H 0.41892 0.22673 0.72157 0.0
H1517 H 0.45594 0.22261 0.77905 0.0
C1518 C 0.44959 0.208 0.70105 0.0
C1519 C 0.44104 0.20213 0.64644 0.0
C1520 C 0.42688 0.23306 0.75568 0.0
C1521 C 0.44067 0.22299 0.71706 0.0
C1522 C 0.42475 0.24114 0.79974 0.0
C1523 C 0.4347 0.24921 0.84579 0.0
C1524 C 0.43894 0.23275 0.75848 0.0
C1525 C 0.44689 0.24914 0.84522 0.0
C1526 C 0.44955 0.2185 0.73598 0.0
C1527 C 0.43289 0.20743 0.6268 0.0
N1528 N 0.4486 0.24084 0.80291 0.0
N1529 N 0.43274 0.2174 0.66271 0.0
H1530 H 0.74403 0.20137 0.81907 0.0
H1531 H 0.80997 0.22756 0.59496 0.0
H1532 H 0.76412 0.17882 0.77895 0.0
H1533 H 0.7884 0.24929 0.6141 0.0
H1534 H 0.79201 0.20883 0.65565 0.0
H1535 H 0.75887 0.21838 0.73773 0.0
C1536 C 0.75138 0.19989 0.79243 0.0
C1537 C 0.75298 0.18879 0.80632 0.0
C1538 C 0.79115 0.21767 0.64624 0.0
C1539 C 0.76996 0.20809 0.71424 0.0
C1540 C 0.80142 0.22837 0.61113 0.0
C1541 C 0.80089 0.24017 0.59992 0.0
C1542 C 0.78025 0.21875 0.67088 0.0
C1543 C 0.78949 0.24059 0.62282 0.0
C1544 C 0.75988 0.2096 0.74633 0.0
C1545 C 0.76268 0.18735 0.77062 0.0
N1546 N 0.77972 0.23011 0.65769 0.0
N1547 N 0.77083 0.19691 0.72686 0.0
H1548 H 0.82639 0.58127 0.78277 0.0
H1549 H 0.74867 0.55506 0.73849 0.0
H1550 H 0.79672 0.54988 0.90653 0.0
H1551 H 0.77774 0.57589 0.58455 0.0
H1552 H 0.76567 0.55254 0.80018 0.0
H1553 H 0.80855 0.57895 0.70876 0.0
C1554 C 0.81606 0.57374 0.79377 0.0
C1555 C 0.81297 0.56576 0.85067 0.0
C1556 C 0.76828 0.5575 0.75253 0.0
C1557 C 0.7924 0.56322 0.76686 0.0
C1558 C 0.75862 0.55903 0.71749 0.0
C1559 C 0.76184 0.56584 0.65659 0.0
C1560 C 0.78136 0.56301 0.72705 0.0
C1561 C 0.77482 0.57057 0.63119 0.0
C1562 C 0.80588 0.5724 0.75145 0.0
C1563 C 0.79948 0.55616 0.86282 0.0
N1564 N 0.78415 0.56923 0.66695 0.0
N1565 N 0.78962 0.5553 0.82174 0.0
H1566 H 0.55854 0.13016 0.73175 0.0
H1567 H 0.5674 0.08164 0.47895 0.0
H1568 H 0.52811 0.08883 0.69665 0.0
H1569 H 0.59825 0.12294 0.51208 0.0
H1570 H 0.55315 0.08419 0.55937 0.0
H1571 H 0.57344 0.12765 0.65439 0.0
C1572 C 0.55498 0.12053 0.70776 0.0
C1573 C 0.54196 0.10971 0.72019 0.0
C1574 C 0.56301 0.09273 0.54923 0.0
C1575 C 0.55908 0.10677 0.63146 0.0
C1576 C 0.5712 0.09131 0.50304 0.0
C1577 C 0.58409 0.10212 0.48865 0.0
C1578 C 0.56767 0.10506 0.58178 0.0
C1579 C 0.58838 0.11437 0.52149 0.0
C1580 C 0.56353 0.11911 0.66368 0.0
C1581 C 0.53805 0.0974 0.68879 0.0
N1582 N 0.58018 0.11551 0.56668 0.0
N1583 N 0.54654 0.09629 0.64555 0.0
H1584 H 0.88692 0.4179 0.63721 0.0
H1585 H 0.91435 0.49577 0.57789 0.0
H1586 H 0.91915 0.44922 0.75115 0.0
H1587 H 0.87841 0.46469 0.48467 0.0
H1588 H 0.91457 0.47895 0.65112 0.0
H1589 H 0.88229 0.43465 0.58853 0.0
C1590 C 0.89304 0.42832 0.65201 0.0
C1591 C 0.90362 0.43219 0.69754 0.0
C1592 C 0.90644 0.47578 0.61579 0.0
C1593 C 0.89825 0.45148 0.64222 0.0
C1594 C 0.90626 0.4854 0.5743 0.0
C1595 C 0.8963 0.48158 0.52561 0.0
C1596 C 0.89677 0.46214 0.6075 0.0
C1597 C 0.88615 0.46804 0.52225 0.0
C1598 C 0.8903 0.43787 0.6246 0.0
C1599 C 0.91095 0.44579 0.71615 0.0
N1600 N 0.88678 0.45874 0.56188 0.0
N1601 N 0.90824 0.45496 0.68782 0.0
H1602 H 0.5385 0.41332 0.47766 0.0
H1603 H 0.55665 0.46366 0.78555 0.0
H1604 H 0.50883 0.41581 0.59762 0.0
H1605 H 0.58384 0.47039 0.62437 0.0
H1606 H 0.54015 0.4422 0.73472 0.0
H1607 H 0.55631 0.43012 0.54973 0.0
C1608 C 0.53573 0.417 0.52075 0.0
C1609 C 0.52223 0.41314 0.53241 0.0
C1610 C 0.5498 0.44831 0.71093 0.0
C1611 C 0.54241 0.43243 0.61378 0.0
C1612 C 0.55922 0.46052 0.74003 0.0
C1613 C 0.57155 0.4689 0.70865 0.0
C1614 C 0.55281 0.44436 0.6505 0.0
C1615 C 0.57435 0.46436 0.64951 0.0
C1616 C 0.54587 0.4267 0.56125 0.0
C1617 C 0.51915 0.41849 0.58756 0.0
N1618 N 0.56504 0.45244 0.62223 0.0
N1619 N 0.52915 0.42792 0.62598 0.0
H1620 H 0.58428 0.80531 0.57919 0.0
H1621 H 0.55053 0.74368 0.32279 0.0
H1622 H 0.54293 0.78719 0.51436 0.0
H1623 H 0.59341 0.76865 0.35091 0.0
H1624 H 0.54705 0.75803 0.40152 0.0
H1625 H 0.5875 0.79067 0.50254 0.0
C1626 C 0.5759 0.79834 0.54888 0.0
C1627 C 0.56329 0.79751 0.55407 0.0
C1628 C 0.55721 0.76032 0.39034 0.0
C1629 C 0.56685 0.7805 0.46672 0.0
C1630 C 0.55918 0.75211 0.34568 0.0
C1631 C 0.57226 0.75501 0.33005 0.0
C1632 C 0.56841 0.77138 0.41995 0.0
C1633 C 0.58314 0.76608 0.36109 0.0
C1634 C 0.57772 0.78991 0.50529 0.0
C1635 C 0.55277 0.7881 0.51358 0.0
N1636 N 0.58097 0.77382 0.40448 0.0
N1637 N 0.55477 0.77997 0.472 0.0
H1638 H 0.20803 0.77926 0.60833 0.0
H1639 H 0.25464 0.7951 0.28705 0.0
H1640 H 0.19816 0.75194 0.44424 0.0
H1641 H 0.25728 0.82549 0.42106 0.0
H1642 H 0.23752 0.77764 0.35926 0.0
H1643 H 0.22949 0.79477 0.55461 0.0
C1644 C 0.21046 0.77644 0.56151 0.0
C1645 C 0.2012 0.76438 0.53029 0.0
C1646 C 0.24211 0.78811 0.37372 0.0
C1647 C 0.22574 0.78202 0.4686 0.0
C1648 C 0.25199 0.79803 0.33303 0.0
C1649 C 0.25745 0.81168 0.34888 0.0
C1650 C 0.23774 0.79194 0.43047 0.0
C1651 C 0.25339 0.81503 0.40777 0.0
C1652 C 0.22268 0.7853 0.53072 0.0
C1653 C 0.20487 0.76126 0.46941 0.0
N1654 N 0.24373 0.80525 0.44622 0.0
N1655 N 0.2168 0.77003 0.44044 0.0
H1656 H 0.25964 0.45525 0.44707 0.0
H1657 H 0.18148 0.42598 0.40216 0.0
H1658 H 0.2305 0.42929 0.59101 0.0
H1659 H 0.21066 0.46085 0.29457 0.0
H1660 H 0.19931 0.42794 0.47554 0.0
H1661 H 0.2422 0.45827 0.39316 0.0
C1662 C 0.24958 0.45025 0.46757 0.0
C1663 C 0.24649 0.44188 0.52322 0.0
C1664 C 0.20183 0.43536 0.43687 0.0
C1665 C 0.22644 0.44527 0.46166 0.0
C1666 C 0.19165 0.43426 0.39514 0.0
C1667 C 0.19464 0.44333 0.34274 0.0
C1668 C 0.21522 0.44538 0.42501 0.0
C1669 C 0.20796 0.45379 0.33506 0.0
C1670 C 0.23965 0.45206 0.43705 0.0
C1671 C 0.23334 0.43583 0.54835 0.0
N1672 N 0.21784 0.45439 0.37506 0.0
N1673 N 0.22376 0.43749 0.51684 0.0
H1674 H 0.48926 0.9108 0.5861 0.0
H1675 H 0.41109 0.88826 0.61909 0.0
H1676 H 0.46177 0.89194 0.42361 0.0
H1677 H 0.44259 0.91439 0.75336 0.0
H1678 H 0.42815 0.88656 0.55116 0.0
H1679 H 0.47104 0.90942 0.65191 0.0
C1680 C 0.47933 0.90625 0.56425 0.0
C1681 C 0.47707 0.90136 0.49925 0.0
C1682 C 0.43123 0.89255 0.59587 0.0
C1683 C 0.45589 0.89991 0.57494 0.0
C1684 C 0.42151 0.89339 0.63485 0.0
C1685 C 0.42549 0.90148 0.69177 0.0
C1686 C 0.44488 0.89971 0.6149 0.0
C1687 C 0.43911 0.9081 0.70969 0.0
C1688 C 0.46887 0.90553 0.60192 0.0
C1689 C 0.46396 0.89588 0.47341 0.0
N1690 N 0.44825 0.90708 0.67154 0.0
N1691 N 0.45381 0.89527 0.51143 0.0
H1692 H 0.12983 0.54484 0.70499 0.0
H1693 H 0.09776 0.56033 0.38721 0.0
H1694 H 0.10084 0.51416 0.576 0.0
H1695 H 0.11537 0.58765 0.55122 0.0
H1696 H 0.10381 0.54483 0.44059 0.0
H1697 H 0.12983 0.56217 0.63286 0.0
C1698 C 0.1239 0.54181 0.66005 0.0
C1699 C 0.11547 0.52813 0.64563 0.0
C1700 C 0.10647 0.55429 0.46452 0.0
C1701 C 0.11513 0.54772 0.56417 0.0
C1702 C 0.10306 0.56315 0.43395 0.0
C1703 C 0.1059 0.57521 0.46524 0.0
C1704 C 0.11292 0.5576 0.52641 0.0
C1705 C 0.11275 0.57834 0.52601 0.0
C1706 C 0.12374 0.55165 0.61945 0.0
C1707 C 0.1076 0.52465 0.58812 0.0
N1708 N 0.11598 0.56958 0.55471 0.0
N1709 N 0.10755 0.53436 0.54967 0.0
H1710 H 0.49767 0.57915 0.60507 0.0
H1711 H 0.42162 0.54484 0.48938 0.0
H1712 H 0.47182 0.59507 0.65556 0.0
H1713 H 0.45052 0.53699 0.3923 0.0
H1714 H 0.43972 0.56275 0.55226 0.0
H1715 H 0.48072 0.56365 0.52724 0.0
C1716 C 0.48847 0.57952 0.59885 0.0
C1717 C 0.4861 0.58837 0.63677 0.0
C1718 C 0.44214 0.55719 0.51687 0.0
C1719 C 0.46651 0.57041 0.54883 0.0
C1720 C 0.43178 0.54692 0.48054 0.0
C1721 C 0.43448 0.53939 0.43433 0.0
C1722 C 0.45539 0.55994 0.50819 0.0
C1723 C 0.44789 0.54241 0.42735 0.0
C1724 C 0.4788 0.57065 0.55448 0.0
C1725 C 0.47406 0.58846 0.62688 0.0
N1726 N 0.45783 0.55242 0.46402 0.0
N1727 N 0.46459 0.57944 0.5845 0.0
H1728 H 0.09139 0.52739 0.96671 0.0
H1729 H 0.12464 0.59738 0.16652 0.0
H1730 H 0.13374 0.55682 0.95665 0.0
H1731 H 0.0825 0.56709 0.17106 0.0
H1732 H 0.12858 0.58302 0.08963 0.0
H1733 H 0.08814 0.54234 0.04048 0.0
C1734 C 0.09999 0.53703 0.97951 0.0
C1735 C 0.11286 0.54077 0.9555 0.0
C1736 C 0.11849 0.57957 0.10768 0.0
C1737 C 0.10927 0.55797 0.04105 0.0
C1738 C 0.11626 0.58775 0.1516 0.0
C1739 C 0.10324 0.58347 0.17523 0.0
C1740 C 0.1076 0.56708 0.08757 0.0
C1741 C 0.09273 0.57088 0.15418 0.0
C1742 C 0.09817 0.54555 0.02213 0.0
C1743 C 0.12367 0.55338 0.97473 0.0
N1744 N 0.09513 0.56319 0.11176 0.0
N1745 N 0.12164 0.56151 0.01639 0.0
H1746 H 0.425 0.50868 0.07895 0.0
H1747 H 0.45945 0.58648 0.99158 0.0
H1748 H 0.41144 0.53463 0.1596 0.0
H1749 H 0.46799 0.55878 0.88692 0.0
H1750 H 0.4412 0.56757 0.04945 0.0
H1751 H 0.43961 0.52651 1.00268 0.0
C1752 C 0.42491 0.51809 0.07945 0.0
C1753 C 0.41705 0.52024 0.12546 0.0
C1754 C 0.44699 0.56561 0.01347 0.0
C1755 C 0.43406 0.54087 0.03964 0.0
C1756 C 0.45745 0.57643 0.98012 0.0
C1757 C 0.46534 0.57429 0.93385 0.0
C1758 C 0.44441 0.5525 1.00122 0.0
C1759 C 0.46235 0.56099 0.92258 0.0
C1760 C 0.4333 0.52829 0.03612 0.0
C1761 C 0.41728 0.53257 0.12439 0.0
N1762 N 0.45217 0.55062 0.9562 0.0
N1763 N 0.42586 0.54255 0.08281 0.0
H1764 H 0.49041 0.92582 0.19517 0.0
H1765 H 0.42433 0.87955 0.9843 0.0
H1766 H 0.47393 0.8829 0.17549 0.0
H1767 H 0.44579 0.92295 0.9766 0.0
H1768 H 0.44204 0.88033 0.05464 0.0
H1769 H 0.47368 0.92468 0.1177 0.0
C1770 C 0.48321 0.9161 0.17476 0.0
C1771 C 0.48356 0.90441 0.19214 0.0
C1772 C 0.44294 0.88968 0.03725 0.0
C1773 C 0.46429 0.90307 0.10254 0.0
C1774 C 0.43281 0.88926 0.99728 0.0
C1775 C 0.43352 0.90123 0.97518 0.0
C1776 C 0.45384 0.90218 0.0559 0.0
C1777 C 0.44487 0.9135 0.99242 0.0
C1778 C 0.47369 0.91549 0.13008 0.0
C1779 C 0.474 0.89215 0.16367 0.0
N1780 N 0.45451 0.91367 0.03234 0.0
N1781 N 0.4647 0.89179 0.12036 0.0
H1782 H 0.19525 0.42001 0.02148 0.0
H1783 H 0.26671 0.45645 0.83495 0.0
H1784 H 0.22416 0.46233 0.04199 0.0
H1785 H 0.23629 0.41473 0.80848 0.0
H1786 H 0.25183 0.45884 0.91454 0.0
H1787 H 0.21096 0.41769 0.94842 0.0
C1788 C 0.20494 0.42878 0.01116 0.0
C1789 C 0.20831 0.4414 0.03739 0.0
C1790 C 0.24845 0.44918 0.89117 0.0
C1791 C 0.22633 0.4389 0.95314 0.0
C1792 C 0.25692 0.44783 0.84568 0.0
C1793 C 0.25274 0.4354 0.8149 0.0
C1794 C 0.23576 0.43799 0.9059 0.0
C1795 C 0.23997 0.42454 0.83084 0.0
C1796 C 0.21389 0.42749 0.96903 0.0
C1797 C 0.221 0.45246 0.02183 0.0
N1798 N 0.23198 0.42609 0.87508 0.0
N1799 N 0.22952 0.45097 0.98062 0.0
H1800 H 0.54921 0.75195 0.9946 0.0
H1801 H 0.58226 0.82968 0.91933 0.0
H1802 H 0.58363 0.78234 0.10075 0.0
H1803 H 0.54362 0.80022 0.84137 0.0
H1804 H 0.58136 0.81293 0.99677 0.0
H1805 H 0.54551 0.76948 0.94765 0.0
C1806 C 0.55595 0.76234 0.00831 0.0
C1807 C 0.5669 0.76574 0.05067 0.0
C1808 C 0.57291 0.81014 0.9639 0.0
C1809 C 0.56272 0.7859 0.99712 0.0
C1810 C 0.5734 0.81973 0.91985 0.0
C1811 C 0.56301 0.81627 0.874 0.0
C1812 C 0.56209 0.79688 0.96098 0.0
C1813 C 0.55179 0.80327 0.87636 0.0
C1814 C 0.55377 0.77234 0.98188 0.0
C1815 C 0.57512 0.7793 0.06808 0.0
N1816 N 0.55174 0.79393 0.91825 0.0
N1817 N 0.57299 0.78892 0.04038 0.0
H1818 H 0.19793 0.74324 0.82726 0.0
H1819 H 0.23109 0.81119 0.04388 0.0
H1820 H 0.1837 0.77171 0.83305 0.0
H1821 H 0.24747 0.78454 0.03577 0.0
H1822 H 0.21272 0.79575 0.97178 0.0
H1823 H 0.21566 0.75743 0.90716 0.0
C1824 C 0.19853 0.75243 0.84515 0.0
C1825 C 0.18934 0.75629 0.82321 0.0
C1826 C 0.22032 0.79325 0.98588 0.0
C1827 C 0.20941 0.77245 0.91451 0.0
C1828 C 0.23076 0.80204 0.02755 0.0
C1829 C 0.24094 0.79927 0.04552 0.0
C1830 C 0.22 0.78156 0.96191 0.0
C1831 C 0.24002 0.78726 0.02217 0.0
C1832 C 0.20861 0.76051 0.89078 0.0
C1833 C 0.19055 0.76829 0.84822 0.0
N1834 N 0.22979 0.77889 0.98142 0.0
N1835 N 0.20035 0.77589 0.89226 0.0
H1836 H 0.18306 0.21637 0.40711 0.0
H1837 H 0.24937 0.22283 0.24171 0.0
H1838 H 0.22118 0.25343 0.39882 0.0
H1839 H 0.20992 0.18805 0.21555 0.0
H1840 H 0.23918 0.23397 0.30195 0.0
H1841 H 0.19258 0.20556 0.33851 0.0
C1842 C 0.19339 0.22226 0.39057 0.0
C1843 C 0.2013 0.23584 0.40881 0.0
C1844 C 0.23273 0.22392 0.28278 0.0
C1845 C 0.2123 0.22354 0.33067 0.0
C1846 C 0.23857 0.21753 0.24875 0.0
C1847 C 0.2305 0.20449 0.22358 0.0
C1848 C 0.21872 0.21719 0.29244 0.0
C1849 C 0.21651 0.19816 0.23346 0.0
C1850 C 0.19881 0.2161 0.35127 0.0
C1851 C 0.21461 0.24301 0.38544 0.0
N1852 N 0.21108 0.20453 0.26745 0.0
N1853 N 0.2197 0.23675 0.34814 0.0
H1854 H 0.77678 0.0288 0.23115 0.0
H1855 H 0.7857 0.97068 0.40156 0.0
H1856 H 0.81227 0.02533 0.2066 0.0
H1857 H 0.74742 0.96905 0.38442 0.0
H1858 H 0.79602 0.99132 0.33501 0.0
H1859 H 0.76623 0.00759 0.2932 0.0
C1860 C 0.78236 0.0236 0.23895 0.0
C1861 C 0.79541 0.02884 0.21345 0.0
C1862 C 0.78534 0.98638 0.34545 0.0
C1863 C 0.78342 0.00455 0.28441 0.0
C1864 C 0.77946 0.97462 0.38358 0.0
C1865 C 0.76567 0.96808 0.39846 0.0
C1866 C 0.77741 0.99176 0.32272 0.0
C1867 C 0.75804 0.97362 0.37348 0.0
C1868 C 0.77631 0.01145 0.27399 0.0
C1869 C 0.80213 0.02159 0.22454 0.0
N1870 N 0.76403 0.98517 0.33733 0.0
N1871 N 0.7961 0.00987 0.25943 0.0
H1872 H 0.96813 0.78713 0.24466 0.0
H1873 H 0.02674 0.77913 0.4156 0.0
H1874 H 0.96872 0.7498 0.25138 0.0
H1875 H 0.02333 0.81476 0.43622 0.0
H1876 H 0.00552 0.76833 0.35444 0.0
H1877 H 0.98827 0.79755 0.31469 0.0
C1878 C 0.97243 0.7811 0.26112 0.0
C1879 C 0.96668 0.76755 0.24194 0.0
C1880 C 0.00937 0.77849 0.37258 0.0
C1881 C 0.98978 0.77942 0.32191 0.0
C1882 C 0.02154 0.78469 0.40718 0.0
C1883 C 0.02687 0.79789 0.43101 0.0
C1884 C 1.00247 0.78556 0.36105 0.0
C1885 C 0.01956 0.80454 0.41937 0.0
C1886 C 0.98391 0.78704 0.30126 0.0
C1887 C 0.97264 0.7602 0.26537 0.0
N1888 N 0.00779 0.79834 0.3849 0.0
N1889 N 0.98389 0.76625 0.30358 0.0
H1890 H 0.81342 0.77457 0.82996 0.0
H1891 H 0.77753 0.81783 0.80153 0.0
H1892 H 0.8125 0.79334 0.6469 0.0
H1893 H 0.79487 0.81458 0.98483 0.0
H1894 H 0.78953 0.80822 0.74323 0.0
H1895 H 0.80585 0.78837 0.88841 0.0
C1896 C 0.81175 0.7817 0.80231 0.0
C1897 C 0.81359 0.78284 0.73364 0.0
C1898 C 0.79087 0.8098 0.79609 0.0
C1899 C 0.80475 0.79844 0.7996 0.0
C1900 C 0.78401 0.81525 0.82924 0.0
C1901 C 0.78521 0.81699 0.89796 0.0
C1902 C 0.79873 0.80577 0.83219 0.0
C1903 C 0.79374 0.81351 0.93175 0.0
C1904 C 0.8075 0.7896 0.83557 0.0
C1905 C 0.81133 0.79225 0.69995 0.0
N1906 N 0.80001 0.80786 0.8987 0.0
N1907 N 0.80684 0.79955 0.7331 0.0
H1908 H 0.18863 0.97093 0.91002 0.0
H1909 H 0.25577 0.03153 0.7537 0.0
H1910 H 0.22662 0.9718 0.89762 0.0
H1911 H 0.21718 0.02939 0.74004 0.0
H1912 H 0.24521 0.01019 0.81239 0.0
H1913 H 0.19872 0.99257 0.85168 0.0
C1914 C 0.19906 0.97562 0.89487 0.0
C1915 C 0.20676 0.96948 0.90877 0.0
C1916 C 0.23902 0.01438 0.79679 0.0
C1917 C 0.21839 0.99427 0.84228 0.0
C1918 C 0.24509 0.0267 0.76376 0.0
C1919 C 0.23739 0.03238 0.7419 0.0
C1920 C 0.22509 0.00758 0.80849 0.0
C1921 C 0.22351 0.02537 0.75544 0.0
C1922 C 0.20481 0.98797 0.86146 0.0
C1923 C 0.22021 0.97599 0.88735 0.0
N1924 N 0.2178 0.01334 0.78787 0.0
N1925 N 0.22558 0.98803 0.85561 0.0
H1926 H 0.96361 0.2047 0.8217 0.0
H1927 H 0.04309 0.23205 0.81629 0.0
H1928 H 0.98615 0.20688 0.64706 0.0
H1929 H 0.02128 0.22824 0.996 0.0
H1930 H 0.02213 0.22296 0.75429 0.0
H1931 H 0.9844 0.21367 0.88687 0.0
C1932 C 0.97291 0.20712 0.79696 0.0
C1933 C 0.97307 0.20494 0.72872 0.0
C1934 C 0.02187 0.22407 0.8073 0.0
C1935 C 0.99689 0.21512 0.8031 0.0
C1936 C 0.03388 0.22933 0.84279 0.0
C1937 C 0.03399 0.23101 0.91152 0.0
C1938 C 0.00977 0.22047 0.84045 0.0
C1939 C 0.02166 0.22704 0.94317 0.0
C1940 C 0.98477 0.21216 0.83429 0.0
C1941 C 0.98544 0.20816 0.69956 0.0
N1942 N 0.01005 0.22202 0.90736 0.0
N1943 N 0.99679 0.21307 0.73679 0.0
H1944 H 0.88913 0.54216 0.46738 0.0
H1945 H 0.86526 0.55238 0.82164 0.0
H1946 H 0.90525 0.53648 0.64927 0.0
H1947 H 0.86448 0.57441 0.6505 0.0
H1948 H 0.87637 0.54285 0.75582 0.0
H1949 H 0.87684 0.55084 0.53085 0.0
C1950 C 0.89007 0.54276 0.52068 0.0
C1951 C 0.89825 0.53868 0.55322 0.0
C1952 C 0.87369 0.54971 0.73259 0.0
C1953 C 0.8841 0.54834 0.62594 0.0
C1954 C 0.86721 0.55503 0.76991 0.0
C1955 C 0.86393 0.5642 0.7414 0.0
C1956 C 0.87671 0.55339 0.66598 0.0
C1957 C 0.86691 0.56743 0.67432 0.0
C1958 C 0.8831 0.54773 0.55675 0.0
C1959 C 0.89918 0.53969 0.62232 0.0
N1960 N 0.8731 0.56201 0.63876 0.0
N1961 N 0.8921 0.54431 0.65646 0.0
H1962 H 0.45085 0.30157 0.75113 0.0
H1963 H 0.44375 0.36112 0.58456 0.0
H1964 H 0.41337 0.30175 0.74033 0.0
H1965 H 0.47856 0.35653 0.55856 0.0
H1966 H 0.43282 0.33995 0.64667 0.0
H1967 H 0.46156 0.3222 0.68459 0.0
C1968 C 0.44486 0.30592 0.73458 0.0
C1969 C 0.43118 0.29988 0.75127 0.0
C1970 C 0.44283 0.34355 0.62716 0.0
C1971 C 0.44337 0.32354 0.67543 0.0
C1972 C 0.4491 0.35568 0.59208 0.0
C1973 C 0.46208 0.36061 0.56618 0.0
C1974 C 0.44964 0.33634 0.63713 0.0
C1975 C 0.4685 0.35305 0.57685 0.0
C1976 C 0.45096 0.31766 0.69643 0.0
C1977 C 0.42389 0.30592 0.728 0.0
N1978 N 0.46224 0.34134 0.61173 0.0
N1979 N 0.43009 0.31744 0.69173 0.0
H1980 H 0.65069 0.1168 0.50844 0.0
H1981 H 0.68608 0.12528 0.85722 0.0
H1982 H 0.62928 0.09088 0.67246 0.0
H1983 H 0.70784 0.1343 0.67344 0.0
H1984 H 0.66483 0.11551 0.79492 0.0
H1985 H 0.67146 0.12661 0.57334 0.0
C1986 C 0.65031 0.11332 0.55852 0.0
C1987 C 0.63822 0.10303 0.58526 0.0
C1988 C 0.67426 0.11958 0.76837 0.0
C1989 C 0.66199 0.11419 0.65967 0.0
C1990 C 0.68635 0.12518 0.80376 0.0
C1991 C 0.69869 0.13054 0.7703 0.0
C1992 C 0.67456 0.11966 0.69904 0.0
C1993 C 0.69853 0.13013 0.70103 0.0
C1994 C 0.6622 0.11882 0.59524 0.0
C1995 C 0.6384 0.09876 0.65009 0.0
N1996 N 0.68666 0.12491 0.66764 0.0
N1997 N 0.65009 0.1044 0.68531 0.0
H1998 H 0.45724 0.15605 0.24401 0.0
H1999 H 0.44942 0.08851 0.08562 0.0
H2000 H 0.41981 0.11826 0.23867 0.0
H2001 H 0.48425 0.12767 0.0534 0.0
H2002 H 0.43881 0.09917 0.14639 0.0
H2003 H 0.46773 0.14587 0.17773 0.0
C2004 C 0.45121 0.14565 0.22866 0.0
C2005 C 0.4376 0.13804 0.24684 0.0
C2006 C 0.44876 0.10545 0.12584 0.0
C2007 C 0.44954 0.12627 0.17143 0.0
C2008 C 0.45486 0.09934 0.09151 0.0
C2009 C 0.46775 0.10719 0.06431 0.0
C2010 C 0.45565 0.11952 0.13377 0.0
C2011 C 0.47425 0.12123 0.07284 0.0
C2012 C 0.45719 0.13985 0.19069 0.0
C2013 C 0.43025 0.1246 0.22516 0.0
N2014 N 0.46817 0.12694 0.10708 0.0
N2015 N 0.43633 0.11915 0.18911 0.0
H2016 H 0.90702 0.3776 0.17178 0.0
H2017 H 0.8795 0.29809 0.17371 0.0
H2018 H 0.90447 0.35536 0.99525 0.0
H2019 H 0.87972 0.3209 0.3436 0.0
H2020 H 0.88946 0.31883 0.10771 0.0
H2021 H 0.8977 0.35685 0.23528 0.0
C2022 C 0.90458 0.36836 0.14629 0.0
C2023 C 0.90664 0.36829 0.07795 0.0
C2024 C 0.88732 0.31927 0.15945 0.0
C2025 C 0.89576 0.34427 0.15084 0.0
C2026 C 0.88172 0.30745 0.19727 0.0
C2027 C 0.87869 0.30772 0.26431 0.0
C2028 C 0.88999 0.33146 0.189 0.0
C2029 C 0.88167 0.32014 0.29197 0.0
C2030 C 0.89916 0.35645 0.18266 0.0
C2031 C 0.90297 0.35589 0.04769 0.0
N2032 N 0.88714 0.33147 0.2543 0.0
N2033 N 0.89775 0.34438 0.08436 0.0
H2034 H 0.64971 0.53354 0.99427 0.0
H2035 H 0.68807 0.55056 0.33826 0.0
H2036 H 0.63006 0.53331 0.17597 0.0
H2037 H 0.70804 0.57231 0.16129 0.0
H2038 H 0.66672 0.53931 0.2778 0.0
H2039 H 0.67122 0.54301 0.0537 0.0
C2040 C 0.64991 0.5353 0.04688 0.0
C2041 C 0.63812 0.53263 0.08048 0.0
C2042 C 0.67581 0.54647 0.25218 0.0
C2043 C 0.66258 0.54331 0.1485 0.0
C2044 C 0.68801 0.55282 0.28641 0.0
C2045 C 0.69986 0.56241 0.25466 0.0
C2046 C 0.67548 0.54947 0.18529 0.0
C2047 C 0.69912 0.56503 0.18751 0.0
C2048 C 0.66217 0.54079 0.08052 0.0
C2049 C 0.63895 0.53528 0.14846 0.0
N2050 N 0.68714 0.55855 0.15484 0.0
N2051 N 0.65097 0.54039 0.18045 0.0
H2052 H 0.58438 0.89362 0.8937 0.0
H2053 H 0.51795 0.88426 0.07253 0.0
H2054 H 0.54587 0.85711 0.88043 0.0
H2055 H 0.5553 0.92207 0.06131 0.0
H2056 H 0.52778 0.87402 1.00217 0.0
H2057 H 0.57379 0.90411 0.9559 0.0
C2058 C 0.5737 0.8878 0.90395 0.0
C2059 C 0.56603 0.87445 0.88181 0.0
C2060 C 0.53377 0.88459 0.01472 0.0
C2061 C 0.55377 0.88642 0.95299 0.0
C2062 C 0.52817 0.89043 0.05505 0.0
C2063 C 0.53576 0.90407 0.07303 0.0
C2064 C 0.54713 0.8924 0.99263 0.0
C2065 C 0.54895 0.91159 0.04828 0.0
C2066 C 0.56763 0.89382 0.93915 0.0
C2067 C 0.55217 0.86746 0.89583 0.0
N2068 N 0.55421 0.90565 0.00989 0.0
N2069 N 0.5465 0.87349 0.93081 0.0
H2070 H 0.11637 0.65125 0.17128 0.0
H2071 H 0.13535 0.68875 0.8234 0.0
H2072 H 0.09729 0.63073 0.99039 0.0
H2073 H 0.13613 0.70921 0.00334 0.0
H2074 H 0.12548 0.66741 0.88428 0.0
H2075 H 0.12779 0.67262 0.11055 0.0
C2076 C 0.11473 0.65123 0.11859 0.0
C2077 C 0.10589 0.63921 0.08566 0.0
C2078 C 0.12788 0.67658 0.91045 0.0
C2079 C 0.11896 0.66358 0.01603 0.0
C2080 C 0.13361 0.68877 0.87594 0.0
C2081 C 0.13659 0.70076 0.90853 0.0
C2082 C 0.12536 0.67641 0.97835 0.0
C2083 C 0.13393 0.70017 0.97648 0.0
C2084 C 0.12116 0.66342 0.08415 0.0
C2085 C 0.10398 0.63978 0.01751 0.0
N2086 N 0.12853 0.68821 0.0093 0.0
N2087 N 0.11052 0.65176 0.9848 0.0
H2088 H 0.30583 0.45148 0.92235 0.0
H2089 H 0.36538 0.44289 0.07858 0.0
H2090 H 0.30644 0.41415 0.91872 0.0
H2091 H 0.36122 0.47783 0.11062 0.0
H2092 H 0.34417 0.43244 0.01657 0.0
H2093 H 0.32641 0.46155 0.98919 0.0
C2094 C 0.31024 0.44538 0.93585 0.0
C2095 C 0.30434 0.43193 0.91493 0.0
C2096 C 0.34788 0.44238 0.03742 0.0
C2097 C 0.32797 0.44341 0.99114 0.0
C2098 C 0.36003 0.44837 0.07246 0.0
C2099 C 0.36509 0.46124 0.10012 0.0
C2100 C 0.34078 0.44934 0.02931 0.0
C2101 C 0.35764 0.46783 0.09111 0.0
C2102 C 0.32198 0.45112 0.97414 0.0
C2103 C 0.31048 0.42449 0.93437 0.0
N2104 N 0.34592 0.46184 0.05634 0.0
N2105 N 0.32198 0.43034 0.97091 0.0
H2106 H 0.08871 0.44977 0.57669 0.0
H2107 H 0.15392 0.45772 0.39284 0.0
H2108 H 0.12833 0.48453 0.59792 0.0
H2109 H 0.11766 0.4193 0.41604 0.0
H2110 H 0.14399 0.46818 0.46011 0.0
H2111 H 0.09841 0.43885 0.50998 0.0
C2112 C 0.09943 0.45511 0.56712 0.0
C2113 C 0.10773 0.46806 0.59298 0.0
C2114 C 0.1382 0.45746 0.45065 0.0
C2115 C 0.11887 0.45568 0.51682 0.0
C2116 C 0.14383 0.4515 0.41184 0.0
C2117 C 0.13659 0.43763 0.39862 0.0
C2118 C 0.12514 0.44953 0.47601 0.0
C2119 C 0.12362 0.43001 0.42548 0.0
C2120 C 0.10497 0.44885 0.52946 0.0
C2121 C 0.12158 0.47448 0.57967 0.0
N2122 N 0.11827 0.43607 0.4626 0.0
N2123 N 0.1267 0.46826 0.54227 0.0
H2124 H 0.56339 0.64107 0.58925 0.0
H2125 H 0.55362 0.69582 0.38778 0.0
H2126 H 0.52678 0.64297 0.59242 0.0
H2127 H 0.59246 0.6997 0.42433 0.0
H2128 H 0.54311 0.67507 0.45319 0.0
H2129 H 0.57377 0.66122 0.51902 0.0
C2130 C 0.55753 0.64569 0.57488 0.0
C2131 C 0.54424 0.6404 0.59709 0.0
C2132 C 0.55394 0.68047 0.44693 0.0
C2133 C 0.556 0.66341 0.51687 0.0
C2134 C 0.55993 0.69228 0.40929 0.0
C2135 C 0.57394 0.69954 0.40081 0.0
C2136 C 0.56201 0.6758 0.47574 0.0
C2137 C 0.58164 0.69453 0.43039 0.0
C2138 C 0.56346 0.65722 0.53517 0.0
C2139 C 0.53711 0.64683 0.57736 0.0
N2140 N 0.57558 0.68296 0.46635 0.0
N2141 N 0.54306 0.65797 0.53832 0.0
H2142 H 0.3153 0.85576 0.39373 0.0
H2143 H 0.37137 0.92396 0.56396 0.0
H2144 H 0.31031 0.89037 0.41854 0.0
H2145 H 0.36842 0.88541 0.59672 0.0
H2146 H 0.35072 0.91279 0.49709 0.0
H2147 H 0.33654 0.86745 0.45494 0.0
C2148 C 0.31872 0.86586 0.41171 0.0
C2149 C 0.31101 0.87209 0.40113 0.0
C2150 C 0.35462 0.9068 0.51889 0.0
C2151 C 0.33533 0.88556 0.47115 0.0
C2152 C 0.36644 0.91318 0.55658 0.0
C2153 C 0.37157 0.90559 0.58612 0.0
C2154 C 0.34803 0.89277 0.5098 0.0
C2155 C 0.36471 0.89161 0.57551 0.0
C2156 C 0.3308 0.8725 0.44698 0.0
C2157 C 0.31587 0.88515 0.42624 0.0
N2158 N 0.35334 0.88566 0.53809 0.0
N2159 N 0.32775 0.89148 0.45982 0.0
H2160 H 0.18615 0.21899 0.78031 0.0
H2161 H 0.22876 0.18113 0.80466 0.0
H2162 H 0.21078 0.21724 0.6239 0.0
H2163 H 0.2116 0.189 0.97696 0.0
H2164 H 0.21986 0.19228 0.73644 0.0
H2165 H 0.19305 0.20609 0.85146 0.0
C2166 C 0.19291 0.21583 0.76075 0.0
C2167 C 0.19794 0.21928 0.69604 0.0
C2168 C 0.218 0.1916 0.78913 0.0
C2169 C 0.20582 0.20452 0.77697 0.0
C2170 C 0.22308 0.18518 0.82834 0.0
C2171 C 0.22101 0.18417 0.89693 0.0
C2172 C 0.21071 0.19709 0.81823 0.0
C2173 C 0.21348 0.18959 0.92432 0.0
C2174 C 0.19688 0.20852 0.80148 0.0
C2175 C 0.2067 0.21493 0.67346 0.0
N2176 N 0.20862 0.19586 0.88487 0.0
N2177 N 0.21034 0.20781 0.71374 0.0
H2178 H 0.81526 0.0491 0.79333 0.0
H2179 H 0.78095 0.96895 0.7661 0.0
H2180 H 0.81074 0.0244 0.96332 0.0
H2181 H 0.77754 0.99431 0.6186 0.0
H2182 H 0.79364 0.98887 0.83664 0.0
H2183 H 0.80341 0.02893 0.72639 0.0
C2184 C 0.8118 0.03942 0.81677 0.0
C2185 C 0.814 0.0385 0.88437 0.0
C2186 C 0.79009 0.99002 0.78882 0.0
C2187 C 0.80029 0.01514 0.80707 0.0
C2188 C 0.78289 0.97868 0.7484 0.0
C2189 C 0.77812 0.97992 0.68623 0.0
C2190 C 0.79268 1.00271 0.76653 0.0
C2191 C 0.78093 0.99279 0.66609 0.0
C2192 C 0.80498 0.02785 0.7783 0.0
C2193 C 0.80925 0.02559 0.91148 0.0
N2194 N 0.78802 0.00363 0.70591 0.0
N2195 N 0.80262 0.0144 0.8727 0.0
H2196 H 0.04965 0.82315 0.84813 0.0
H2197 H 0.96943 0.78682 0.87521 0.0
H2198 H 0.02439 0.81504 0.67619 0.0
H2199 H 0.99554 0.78644 0.02804 0.0
H2200 H 0.9892 0.79963 0.80428 0.0
H2201 H 0.0297 0.81237 0.91701 0.0
C2202 C 0.03989 0.81913 0.82466 0.0
C2203 C 0.03873 0.81994 0.75596 0.0
C2204 C 0.99055 0.79675 0.85343 0.0
C2205 C 0.01566 0.80748 0.83543 0.0
C2206 C 0.97929 0.78948 0.89406 0.0
C2207 C 0.9808 0.78544 0.95763 0.0
C2208 C 1.0034 0.80015 0.87693 0.0
C2209 C 0.99384 0.78922 0.97935 0.0
C2210 C 0.02846 0.81294 0.86426 0.0
C2211 C 0.02576 0.8146 0.72888 0.0
N2212 N 0.00459 0.79634 0.93918 0.0
N2213 N 0.0147 0.80855 0.76872 0.0
H2214 H 0.81864 0.77943 0.35712 0.0
H2215 H 0.78082 0.82071 0.2767 0.0
H2216 H 0.79749 0.78902 0.50415 0.0
H2217 H 0.79154 0.80083 0.12762 0.0
H2218 H 0.78992 0.81215 0.36146 0.0
H2219 H 0.81177 0.79021 0.27306 0.0
C2220 C 0.81263 0.78387 0.37184 0.0
C2221 C 0.80856 0.78322 0.43776 0.0
C2222 C 0.79032 0.80972 0.31013 0.0
C2223 C 0.80073 0.79564 0.34185 0.0
C2224 C 0.78517 0.81464 0.2617 0.0
C2225 C 0.78531 0.8114 0.19493 0.0
C2226 C 0.7958 0.80163 0.29163 0.0
C2227 C 0.79109 0.80348 0.17849 0.0
C2228 C 0.80868 0.78998 0.32379 0.0
C2229 C 0.80077 0.78916 0.45387 0.0
N2230 N 0.79609 0.79888 0.22642 0.0
N2231 N 0.79712 0.79511 0.40633 0.0
H2232 H 0.22656 0.0398 0.36902 0.0
H2233 H 0.18846 0.96132 0.28017 0.0
H2234 H 0.21908 0.00898 0.51258 0.0
H2235 H 0.21242 0.99233 0.13865 0.0
H2236 H 0.19488 0.9787 0.36521 0.0
H2237 H 0.21659 0.02238 0.2834 0.0
C2238 C 0.22268 0.02938 0.38275 0.0
C2239 C 0.22379 0.02586 0.44796 0.0
C2240 C 0.19863 0.98167 0.31536 0.0
C2241 C 0.21225 0.00591 0.35049 0.0
C2242 C 0.19494 0.97177 0.26675 0.0
C2243 C 0.20003 0.97536 0.20232 0.0
C2244 C 0.20726 0.99527 0.29913 0.0
C2245 C 0.20839 0.98909 0.18784 0.0
C2246 C 0.21705 0.01946 0.33382 0.0
C2247 C 0.21857 0.01216 0.46282 0.0
N2248 N 0.21174 0.99855 0.23583 0.0
N2249 N 0.21303 1.00269 0.4145 0.0
H2250 H 0.98235 0.18977 0.45489 0.0
H2251 H 0.02286 0.24433 0.17146 0.0
H2252 H 0.96589 0.20927 0.33538 0.0
H2253 H 0.0365 0.21818 0.25018 0.0
H2254 H 1.00319 0.23344 0.24312 0.0
H2255 H 1.00369 0.2021 0.39285 0.0
C2256 C 0.98328 0.19675 0.41632 0.0
C2257 C 0.97232 0.19842 0.39983 0.0
C2258 C 0.01048 0.23007 0.24485 0.0
C2259 C 0.9965 0.21248 0.32921 0.0
C2260 C 0.02174 0.2363 0.2038 0.0
C2261 C 0.03136 0.23216 0.20443 0.0
C2262 C 0.00878 0.21963 0.2874 0.0
C2263 C 0.02933 0.22169 0.24782 0.0
C2264 C 0.99539 0.2037 0.38069 0.0
C2265 C 0.97402 0.20753 0.34925 0.0
N2266 N 0.01827 0.21579 0.28759 0.0
N2267 N 0.98582 0.21417 0.3159 0.0
H2268 H 0.89346 0.51465 0.13151 0.0
H2269 H 0.85383 0.55557 0.11563 0.0
H2270 H 0.88051 0.52579 0.30891 0.0
H2271 H 0.87716 0.55255 0.95627 0.0
H2272 H 0.86072 0.54254 0.18631 0.0
H2273 H 0.88445 0.52602 0.0659 0.0
C2274 C 0.88867 0.51946 0.1569 0.0
C2275 C 0.88787 0.51933 0.22612 0.0
C2276 C 0.86428 0.54475 0.13583 0.0
C2277 C 0.87745 0.53254 0.15031 0.0
C2278 C 0.86033 0.55214 0.09542 0.0
C2279 C 0.86498 0.55523 0.02993 0.0
C2280 C 0.87275 0.54028 0.11012 0.0
C2281 C 0.8734 0.55053 0.00644 0.0
C2282 C 0.88353 0.526 0.11915 0.0
C2283 C 0.88139 0.52567 0.25571 0.0
N2284 N 0.87696 0.54331 0.04632 0.0
N2285 N 0.87646 0.53208 0.2176 0.0
H2286 H 0.48172 0.37918 0.14457 0.0
H2287 H 0.44652 0.29891 0.12075 0.0
H2288 H 0.47652 0.35494 0.31737 0.0
H2289 H 0.44345 0.32447 0.97324 0.0
H2290 H 0.45941 0.31886 0.19132 0.0
H2291 H 0.46987 0.35887 0.07902 0.0
C2292 C 0.47811 0.36957 0.16897 0.0
C2293 C 0.48011 0.36884 0.23696 0.0
C2294 C 0.45588 0.32003 0.14348 0.0
C2295 C 0.46636 0.34526 0.16109 0.0
C2296 C 0.44857 0.30867 0.10308 0.0
C2297 C 0.44383 0.30998 0.0409 0.0
C2298 C 0.45861 0.33277 0.12105 0.0
C2299 C 0.44679 0.32289 0.02074 0.0
C2300 C 0.47128 0.35791 0.13125 0.0
C2301 C 0.47518 0.35599 0.26519 0.0
N2302 N 0.45398 0.33371 0.06044 0.0
N2303 N 0.46852 0.34468 0.22709 0.0
H2304 H 0.69214 0.14332 0.01466 0.0
H2305 H 0.66231 0.11926 0.37849 0.0
H2306 H 0.71567 0.15103 0.19268 0.0
H2307 H 0.63656 0.11486 0.21348 0.0
H2308 H 0.68184 0.13127 0.30799 0.0
H2309 H 0.67153 0.13313 0.08279 0.0
C2310 C 0.69299 0.14294 0.06782 0.0
C2311 C 0.70567 0.14797 0.09784 0.0
C2312 C 0.67196 0.12778 0.28678 0.0
C2313 C 0.68227 0.1364 0.17562 0.0
C2314 C 0.66076 0.12087 0.32722 0.0
C2315 C 0.64776 0.11596 0.30182 0.0
C2316 C 0.67028 0.12974 0.21969 0.0
C2317 C 0.64642 0.1185 0.23504 0.0
C2318 C 0.68124 0.13714 0.1066 0.0
C2319 C 0.70618 0.14722 0.16692 0.0
N2320 N 0.65757 0.12512 0.19594 0.0
N2321 N 0.69471 0.14154 0.20306 0.0
H2322 H 0.45164 0.12654 0.46001 0.0
H2323 H 0.48208 0.12628 0.81569 0.0
H2324 H 0.45355 0.15308 0.61614 0.0
H2325 H 0.48578 0.10657 0.64186 0.0
H2326 H 0.47114 0.13592 0.74755 0.0
H2327 H 0.46364 0.11883 0.52969 0.0
C2328 C 0.4546 0.13079 0.50909 0.0
C2329 C 0.45147 0.14044 0.53222 0.0
C2330 C 0.47442 0.12952 0.72458 0.0
C2331 C 0.46533 0.13152 0.61323 0.0
C2332 C 0.48063 0.124 0.76339 0.0
C2333 C 0.48483 0.11555 0.7346 0.0
C2334 C 0.47234 0.12647 0.65676 0.0
C2335 C 0.48272 0.11297 0.66657 0.0
C2336 C 0.46151 0.12638 0.54899 0.0
C2337 C 0.45572 0.14561 0.59626 0.0
N2338 N 0.47661 0.11834 0.63033 0.0
N2339 N 0.46236 0.14102 0.63481 0.0
H2340 H 0.88268 0.36201 0.81134 0.0
H2341 H 0.87907 0.31505 0.51322 0.0
H2342 H 0.91865 0.36394 0.73429 0.0
H2343 H 0.85029 0.2998 0.67238 0.0
H2344 H 0.89218 0.33631 0.57496 0.0
H2345 H 0.86906 0.3421 0.74214 0.0
C2346 C 0.8877 0.35826 0.77973 0.0
C2347 C 0.9018 0.36452 0.77902 0.0
C2348 C 0.8829 0.32833 0.59575 0.0
C2349 C 0.88633 0.34209 0.69856 0.0
C2350 C 0.87539 0.3163 0.56043 0.0
C2351 C 0.86362 0.30573 0.58796 0.0
C2352 C 0.87836 0.32985 0.6579 0.0
C2353 C 0.85934 0.30774 0.64967 0.0
C2354 C 0.87994 0.34693 0.74038 0.0
C2355 C 0.9078 0.35928 0.73694 0.0
N2356 N 0.86666 0.31958 0.68245 0.0
N2357 N 0.90004 0.34843 0.69795 0.0
H2358 H 0.65875 0.53958 0.85582 0.0
H2359 H 0.67605 0.54963 0.47517 0.0
H2360 H 0.62818 0.51936 0.70682 0.0
H2361 H 0.70559 0.55543 0.62328 0.0
H2362 H 0.65834 0.53887 0.55834 0.0
H2363 H 0.67608 0.54589 0.77132 0.0
C2364 C 0.65568 0.53638 0.80531 0.0
C2365 C 0.642 0.52902 0.78821 0.0
C2366 C 0.66868 0.54236 0.57243 0.0
C2367 C 0.66181 0.53637 0.69103 0.0
C2368 C 0.67881 0.54856 0.52507 0.0
C2369 C 0.69237 0.55359 0.54242 0.0
C2370 C 0.67212 0.54139 0.63796 0.0
C2371 C 0.69531 0.55179 0.60771 0.0
C2372 C 0.66559 0.53995 0.75716 0.0
C2373 C 0.63861 0.52505 0.72212 0.0
N2374 N 0.6853 0.54602 0.65332 0.0
N2375 N 0.64846 0.52896 0.67567 0.0
H2376 H 0.54546 0.85596 0.64344 0.0
H2377 H 0.54516 0.88407 0.28319 0.0
H2378 H 0.56055 0.84632 0.4688 0.0
H2379 H 0.51988 0.88463 0.43954 0.0
H2380 H 0.55144 0.87086 0.35348 0.0
H2381 H 0.5364 0.86707 0.57286 0.0
C2382 C 0.54678 0.85608 0.59042 0.0
C2383 C 0.55386 0.85026 0.56214 0.0
C2384 C 0.54446 0.8738 0.37248 0.0
C2385 C 0.54366 0.86301 0.48151 0.0
C2386 C 0.54088 0.88139 0.33231 0.0
C2387 C 0.53205 0.88559 0.35554 0.0
C2388 C 0.53932 0.87045 0.43697 0.0
C2389 C 0.52677 0.88169 0.41962 0.0
C2390 C 0.54161 0.86241 0.55022 0.0
C2391 C 0.55526 0.85072 0.4931 0.0
N2392 N 0.53059 0.87444 0.45841 0.0
N2393 N 0.55032 0.85706 0.45544 0.0
H2394 H 0.14939 0.70951 0.53478 0.0
H2395 H 0.10939 0.63026 0.45995 0.0
H2396 H 0.12661 0.67964 0.68314 0.0
H2397 H 0.11669 0.66024 0.31165 0.0
H2398 H 0.12018 0.6483 0.54242 0.0
H2399 H 0.14193 0.69145 0.45232 0.0
C2400 C 0.14296 0.69916 0.55017 0.0
C2401 C 0.1385 0.69609 0.61577 0.0
C2402 C 0.11949 0.65089 0.49167 0.0
C2403 C 0.13008 0.67543 0.52207 0.0
C2404 C 0.11339 0.64063 0.44459 0.0
C2405 C 0.11202 0.64374 0.37899 0.0
C2406 C 0.12448 0.66437 0.4727 0.0
C2407 C 0.11739 0.65737 0.36186 0.0
C2408 C 0.13867 0.68888 0.50309 0.0
C2409 C 0.13017 0.68248 0.63293 0.0
N2410 N 0.12338 0.66717 0.40835 0.0
N2411 N 0.12623 0.67266 0.58644 0.0
H2412 H 0.36041 0.47715 0.34632 0.0
H2413 H 0.33068 0.44923 0.70581 0.0
H2414 H 0.38445 0.48304 0.52083 0.0
H2415 H 0.30567 0.44973 0.54758 0.0
H2416 H 0.35033 0.46122 0.63562 0.0
H2417 H 0.34006 0.46662 0.41566 0.0
C2418 C 0.36143 0.47627 0.39904 0.0
C2419 C 0.37417 0.48095 0.42769 0.0
C2420 C 0.34058 0.4588 0.61604 0.0
C2421 C 0.35102 0.46895 0.5069 0.0
C2422 C 0.32931 0.4519 0.6562 0.0
C2423 C 0.31647 0.44838 0.63252 0.0
C2424 C 0.33909 0.46215 0.55104 0.0
C2425 C 0.31538 0.45224 0.56786 0.0
C2426 C 0.34982 0.4703 0.43853 0.0
C2427 C 0.37488 0.47957 0.49627 0.0
N2428 N 0.32655 0.45883 0.52905 0.0
N2429 N 0.36351 0.47367 0.53322 0.0
H2430 H 0.15313 0.44395 0.9685 0.0
H2431 H 0.11597 0.48669 0.01936 0.0
H2432 H 0.14688 0.45654 0.15972 0.0
H2433 H 0.1268 0.47852 0.82787 0.0
H2434 H 0.12667 0.47522 0.07131 0.0
H2435 H 0.14298 0.45596 0.91645 0.0
C2436 C 0.14962 0.44923 0.9997 0.0
C2437 C 0.15087 0.44919 0.0688 0.0
C2438 C 0.12675 0.47595 0.01795 0.0
C2439 C 0.13916 0.46303 0.00902 0.0
C2440 C 0.12061 0.48249 0.98808 0.0
C2441 C 0.12045 0.48359 0.91893 0.0
C2442 C 0.13276 0.47032 0.97861 0.0
C2443 C 0.12668 0.47795 0.88128 0.0
C2444 C 0.14384 0.45613 0.96977 0.0
C2445 C 0.14615 0.45629 0.10635 0.0
N2446 N 0.13253 0.47153 0.91157 0.0
N2447 N 0.14048 0.46287 0.07601 0.0
H2448 H 0.58174 0.69391 0.08198 0.0
H2449 H 0.51041 0.63314 0.99744 0.0
H2450 H 0.54613 0.6954 0.13593 0.0
H2451 H 0.54253 0.64679 0.85507 0.0
H2452 H 0.52354 0.6542 0.05927 0.0
H2453 H 0.56794 0.6747 0.00935 0.0
C2454 C 0.571 0.69013 0.07885 0.0
C2455 C 0.56503 0.69618 0.11529 0.0
C2456 C 0.52763 0.65266 0.01405 0.0
C2457 C 0.54926 0.67421 0.03292 0.0
C2458 C 0.52017 0.64068 0.97883 0.0
C2459 C 0.5254 0.63832 0.92098 0.0
C2460 C 0.5406 0.66213 0.99248 0.0
C2461 C 0.53811 0.64833 0.8991 0.0
C2462 C 0.56319 0.67928 0.03697 0.0
C2463 C 0.55111 0.691 0.10871 0.0
N2464 N 0.54542 0.65973 0.93558 0.0
N2465 N 0.54364 0.68018 0.06902 0.0
H2466 H 0.31417 0.84762 0.11845 0.0
H2467 H 0.36644 0.91399 0.93958 0.0
H2468 H 0.30079 0.87287 0.02694 0.0
H2469 H 0.36575 0.87706 0.8906 0.0
H2470 H 0.34442 0.9008 0.99357 0.0
H2471 H 0.33567 0.86009 0.05784 0.0
C2472 C 0.31583 0.85585 0.08612 0.0
C2473 C 0.30576 0.85926 0.07743 0.0
C2474 C 0.34908 0.89561 0.97055 0.0
C2475 C 0.33015 0.87354 0.00953 0.0
C2476 C 0.36156 0.90309 0.93969 0.0
C2477 C 0.36777 0.89655 0.91004 0.0
C2478 C 0.34303 0.88154 0.97397 0.0
C2479 C 0.36116 0.88243 0.91217 0.0
C2480 C 0.32798 0.86284 0.05131 0.0
C2481 C 0.3083 0.86992 0.03465 0.0
N2482 N 0.3492 0.87536 0.94462 0.0
N2483 N 0.32031 0.8768 1.0029 0.0
H2484 H 0.2966 0.19665 0.10022 0.0
H2485 H 0.36355 0.25792 0.94579 0.0
H2486 H 0.29602 0.21871 0.92855 0.0
H2487 H 0.36286 0.23425 0.11313 0.0
H2488 H 0.33885 0.24531 0.94375 0.0
H2489 H 0.32077 0.2116 0.10938 0.0
C2490 C 0.30158 0.20458 0.06393 0.0
C2491 C 0.29425 0.20622 0.01266 0.0
C2492 C 0.34411 0.24297 0.98127 0.0
C2493 C 0.32214 0.22368 0.0237 0.0
C2494 C 0.35821 0.25025 0.98286 0.0
C2495 C 0.36531 0.24709 0.02951 0.0
C2496 C 0.33705 0.23248 0.02676 0.0
C2497 C 0.35784 0.23692 0.07573 0.0
C2498 C 0.31542 0.21322 0.06958 0.0
C2499 C 0.30126 0.21702 0.96863 0.0
N2500 N 0.34417 0.22996 0.07292 0.0
N2501 N 0.31483 0.22528 0.97484 0.0
H2502 H 0.80507 0.10372 0.08369 0.0
H2503 H 0.74396 0.11156 0.94368 0.0
H2504 H 0.78102 0.08086 0.91702 0.0
H2505 H 0.77188 0.13699 0.09345 0.0
H2506 H 0.75535 0.09823 0.94121 0.0
H2507 H 0.7912 0.11411 0.09479 0.0
C2508 C 0.79692 0.10096 0.04888 0.0
C2509 C 0.79444 0.09161 0.99826 0.0
C2510 C 0.75889 0.10665 0.97504 0.0
C2511 C 0.77821 0.10341 0.01165 0.0
C2512 C 0.75232 0.11418 0.97695 0.0
C2513 C 0.75701 0.12544 0.01873 0.0
C2514 C 0.77018 0.11036 0.0155 0.0
C2515 C 0.768 0.12848 0.06003 0.0
C2516 C 0.78891 0.10685 0.05564 0.0
C2517 C 0.78337 0.08809 0.95641 0.0
N2518 N 0.77422 0.12104 0.05714 0.0
N2519 N 0.77572 0.09407 0.96369 0.0
H2520 H 0.87294 0.63687 0.90037 0.0
H2521 H 0.93523 0.70508 0.02814 0.0
H2522 H 0.90146 0.63719 0.04037 0.0
H2523 H 0.91196 0.70232 0.85505 0.0
H2524 H 0.92408 0.68046 0.03131 0.0
H2525 H 0.88767 0.66093 0.88242 0.0
C2526 C 0.88234 0.64206 0.92745 0.0
C2527 C 0.88591 0.6351 0.97264 0.0
C2528 C 0.92158 0.68526 0.99208 0.0
C2529 C 0.90293 0.66274 0.95223 0.0
C2530 C 0.92801 0.69934 0.98987 0.0
C2531 C 0.92442 0.70582 0.94165 0.0
C2532 C 0.9114 0.67761 0.94608 0.0
C2533 C 0.91486 0.69779 0.89394 0.0
C2534 C 0.89081 0.65579 0.91682 0.0
C2535 C 0.89833 0.64224 0.00537 0.0
N2536 N 0.90858 0.68414 0.89788 0.0
N2537 N 0.90634 0.65574 0.99517 0.0
H2538 H 0.24131 0.36867 0.72806 0.0
H2539 H 0.23324 0.29891 0.61136 0.0
H2540 H 0.26836 0.36674 0.58646 0.0
H2541 H 0.2138 0.30358 0.78356 0.0
H2542 H 0.24707 0.32346 0.60323 0.0
H2543 H 0.23152 0.34469 0.749 0.0
C2544 C 0.24512 0.36313 0.70096 0.0
C2545 C 0.25548 0.36962 0.65451 0.0
C2546 C 0.23993 0.3191 0.64337 0.0
C2547 C 0.24438 0.34206 0.6788 0.0
C2548 C 0.2321 0.30508 0.64841 0.0
C2549 C 0.22223 0.29917 0.69784 0.0
C2550 C 0.23779 0.32724 0.6878 0.0
C2551 C 0.22109 0.30769 0.74391 0.0
C2552 C 0.23962 0.34944 0.71344 0.0
C2553 C 0.2603 0.36204 0.62221 0.0
N2554 N 0.22864 0.32126 0.73727 0.0
N2555 N 0.25458 0.34858 0.63437 0.0
H2556 H 0.69649 0.93081 0.70379 0.0
H2557 H 0.63208 0.86289 0.5752 0.0
H2558 H 0.69813 0.89883 0.59971 0.0
H2559 H 0.62864 0.89283 0.68897 0.0
H2560 H 0.65648 0.87746 0.57385 0.0
H2561 H 0.67184 0.91851 0.69039 0.0
C2562 C 0.69169 0.92125 0.67802 0.0
C2563 C 0.69937 0.91572 0.65399 0.0
C2564 C 0.65043 0.88095 0.5987 0.0
C2565 C 0.67129 0.90169 0.63801 0.0
C2566 C 0.63648 0.87261 0.59935 0.0
C2567 C 0.62831 0.87659 0.63261 0.0
C2568 C 0.65637 0.89337 0.63202 0.0
C2569 C 0.63456 0.88939 0.66244 0.0
C2570 C 0.67764 0.91423 0.67045 0.0
C2571 C 0.69262 0.90333 0.62065 0.0
N2572 N 0.64823 0.89727 0.66209 0.0
N2573 N 0.67904 0.89675 0.61392 0.0
H2574 H 0.10455 0.8094 0.74003 0.0
H2575 H 0.10381 0.74258 0.61621 0.0
H2576 H 0.07218 0.77896 0.62313 0.0
H2577 H 0.13506 0.77364 0.73574 0.0
H2578 H 0.09089 0.7544 0.62488 0.0
H2579 H 0.11468 0.79511 0.74643 0.0
C2580 C 0.09951 0.79963 0.71618 0.0
C2581 C 0.08756 0.79541 0.68068 0.0
C2582 C 0.10055 0.75856 0.64939 0.0
C2583 C 0.09918 0.77895 0.68707 0.0
C2584 C 0.1079 0.75181 0.64454 0.0
C2585 C 0.12065 0.75727 0.67417 0.0
C2586 C 0.10598 0.77078 0.68453 0.0
C2587 C 0.12545 0.76923 0.71057 0.0
C2588 C 0.10529 0.79145 0.71979 0.0
C2589 C 0.08138 0.78257 0.65131 0.0
N2590 N 0.11817 0.77558 0.71436 0.0
N2591 N 0.08734 0.77485 0.6545 0.0
H2592 H 0.63764 0.75986 0.01148 0.0
H2593 H 0.70715 0.77312 0.17232 0.0
H2594 H 0.64019 0.74075 0.18992 0.0
H2595 H 0.70389 0.79899 0.02761 0.0
H2596 H 0.68286 0.75736 0.16116 0.0
H2597 H 0.66212 0.77017 0.99766 0.0
C2598 C 0.64333 0.7575 0.04641 0.0
C2599 C 0.637 0.74948 0.10176 0.0
C2600 C 0.68751 0.76642 0.13133 0.0
C2601 C 0.66487 0.76138 0.08745 0.0
C2602 C 0.70135 0.77538 0.1376 0.0
C2603 C 0.70745 0.78746 0.1017 0.0
C2604 C 0.6798 0.76953 0.08834 0.0
C2605 C 0.6995 0.7899 0.05724 0.0
C2606 C 0.65728 0.76347 0.03903 0.0
C2607 C 0.64478 0.74688 0.1465 0.0
N2608 N 0.68608 0.78108 0.05214 0.0
N2609 N 0.65834 0.75292 0.13879 0.0
H2610 H 0.24022 0.86798 0.26257 0.0
H2611 H 0.23425 0.92895 0.10754 0.0
H2612 H 0.26528 0.89216 0.1016 0.0
H2613 H 0.21094 0.90487 0.27296 0.0
H2614 H 0.24737 0.91738 0.11026 0.0
H2615 H 0.23081 0.88279 0.27158 0.0
C2616 C 0.24369 0.8764 0.22876 0.0
C2617 C 0.25336 0.87868 0.18034 0.0
C2618 C 0.2395 0.91476 0.14646 0.0
C2619 C 0.24267 0.89588 0.19085 0.0
C2620 C 0.23208 0.92144 0.14531 0.0
C2621 C 0.2214 0.91779 0.18977 0.0
C2622 C 0.2362 0.90437 0.19243 0.0
C2623 C 0.21894 0.90787 0.23712 0.0
C2624 C 0.23838 0.88494 0.23427 0.0
C2625 C 0.25777 0.89 0.13929 0.0
N2626 N 0.22619 0.90145 0.23681 0.0
N2627 N 0.25229 0.89812 0.14498 0.0
H2628 H 0.08196 0.30525 0.06664 0.0
H2629 H 0.13731 0.37101 0.25076 0.0
H2630 H 0.09663 0.30446 0.26176 0.0
H2631 H 0.11596 0.37274 0.07897 0.0
H2632 H 0.12205 0.34671 0.25688 0.0
H2633 H 0.09344 0.32987 0.07191 0.0
C2634 C 0.08742 0.31029 0.1111 0.0
C2635 C 0.08839 0.30283 0.1638 0.0
C2636 C 0.12061 0.35238 0.21804 0.0
C2637 C 0.1018 0.33103 0.1697 0.0
C2638 C 0.1294 0.36625 0.21417 0.0
C2639 C 0.12804 0.37388 0.16358 0.0
C2640 C 0.11042 0.34598 0.17056 0.0
C2641 C 0.1174 0.36723 0.11852 0.0
C2642 C 0.09399 0.32434 0.11405 0.0
C2643 C 0.09557 0.30983 0.22025 0.0
N2644 N 0.1091 0.35362 0.12256 0.0
N2645 N 0.10217 0.32355 0.22132 0.0
H2646 H 0.75694 0.63517 0.62351 0.0
H2647 H 0.76991 0.70289 0.4424 0.0
H2648 H 0.7374 0.63492 0.4409 0.0
H2649 H 0.79369 0.70115 0.60306 0.0
H2650 H 0.75482 0.67833 0.45196 0.0
H2651 H 0.76716 0.65961 0.6283 0.0
C2652 C 0.75468 0.64026 0.58474 0.0
C2653 C 0.74645 0.633 0.53128 0.0
C2654 C 0.76326 0.68338 0.48553 0.0
C2655 C 0.75823 0.6611 0.53609 0.0
C2656 C 0.77181 0.69736 0.48024 0.0
C2657 C 0.78311 0.70397 0.52151 0.0
C2658 C 0.76601 0.67607 0.53294 0.0
C2659 C 0.78518 0.69638 0.56969 0.0
C2660 C 0.76053 0.65423 0.58744 0.0
C2661 C 0.74368 0.64012 0.48303 0.0
N2662 N 0.77677 0.68288 0.57384 0.0
N2663 N 0.74971 0.65381 0.48608 0.0
H2664 H 0.30511 0.09775 0.38441 0.0
H2665 H 0.37098 0.10678 0.56977 0.0
H2666 H 0.30312 0.07256 0.5475 0.0
H2667 H 0.3704 0.13551 0.43393 0.0
H2668 H 0.34662 0.09205 0.55209 0.0
H2669 H 0.32963 0.10936 0.39007 0.0
C2670 C 0.30985 0.09457 0.42097 0.0
C2671 C 0.30205 0.08428 0.46601 0.0
C2672 C 0.35187 0.10158 0.52621 0.0
C2673 C 0.33018 0.09761 0.47321 0.0
C2674 C 0.36574 0.10996 0.53626 0.0
C2675 C 0.37266 0.12248 0.5042 0.0
C2676 C 0.34499 0.1057 0.48304 0.0
C2677 C 0.36542 0.1261 0.46095 0.0
C2678 C 0.32386 0.10121 0.42431 0.0
C2679 C 0.30874 0.08041 0.51165 0.0
N2680 N 0.35202 0.11778 0.45176 0.0
N2681 N 0.32244 0.08718 0.51462 0.0
H2682 H 0.89853 0.26424 0.57636 0.0
H2683 H 0.90714 0.20778 0.38397 0.0
H2684 H 0.87123 0.23754 0.42792 0.0
H2685 H 0.93116 0.22895 0.55396 0.0
H2686 H 0.89607 0.22121 0.39021 0.0
H2687 H 0.91264 0.25382 0.56073 0.0
C2688 C 0.89554 0.25623 0.54052 0.0
C2689 C 0.88356 0.25156 0.50436 0.0
C2690 C 0.90384 0.22301 0.42593 0.0
C2691 C 0.89964 0.23978 0.48558 0.0
C2692 C 0.91016 0.21533 0.42235 0.0
C2693 C 0.92 0.21713 0.46886 0.0
C2694 C 0.90731 0.23258 0.47658 0.0
C2695 C 0.92367 0.22726 0.51682 0.0
C2696 C 0.90356 0.25029 0.53163 0.0
C2697 C 0.88019 0.24123 0.45811 0.0
N2698 N 0.91723 0.23452 0.51986 0.0
N2699 N 0.88815 0.23569 0.45023 0.0
H2700 H 0.0305 0.59713 0.37106 0.0
H2701 H 0.96522 0.53161 0.22966 0.0
H2702 H 0.03137 0.56667 0.24955 0.0
H2703 H 0.96259 0.56026 0.35772 0.0
H2704 H 0.98963 0.54605 0.22685 0.0
H2705 H 0.00584 0.58544 0.35828 0.0
C2706 C 0.02552 0.58806 0.34144 0.0
C2707 C 0.03298 0.58273 0.3124 0.0
C2708 C 0.98376 0.54929 0.25516 0.0
C2709 C 0.00489 0.56939 0.29724 0.0
C2710 C 0.9698 0.54103 0.25667 0.0
C2711 C 0.96186 0.54468 0.29433 0.0
C2712 C 0.98994 0.56129 0.29209 0.0
C2713 C 0.96832 0.55709 0.32778 0.0
C2714 C 0.01147 0.58138 0.33425 0.0
C2715 C 0.02602 0.57097 0.27425 0.0
N2716 N 0.98201 0.56489 0.32654 0.0
N2717 N 0.01244 0.56471 0.26811 0.0
H2718 H 0.44128 0.47169 0.24412 0.0
H2719 H 0.44513 0.40827 0.38414 0.0
H2720 H 0.41587 0.44686 0.40288 0.0
H2721 H 0.47442 0.43827 0.25312 0.0
H2722 H 0.43237 0.42026 0.38211 0.0
H2723 H 0.45168 0.45775 0.23852 0.0
C2724 C 0.43796 0.46338 0.27848 0.0
C2725 C 0.42786 0.46069 0.3252 0.0
C2726 C 0.44152 0.42414 0.35341 0.0
C2727 C 0.43964 0.44433 0.31778 0.0
C2728 C 0.44874 0.41724 0.35403 0.0
C2729 C 0.46088 0.4223 0.31882 0.0
C2730 C 0.44642 0.43612 0.31685 0.0
C2731 C 0.46518 0.43407 0.28142 0.0
C2732 C 0.44386 0.45532 0.27479 0.0
C2733 C 0.42366 0.44939 0.36635 0.0
N2734 N 0.458 0.44057 0.28158 0.0
N2735 N 0.42962 0.44167 0.36196 0.0
H2736 H 0.5748 0.0346 0.41252 0.0
H2737 H 0.56774 0.9662 0.28184 0.0
H2738 H 0.60181 0.0341 0.26603 0.0
H2739 H 0.54919 0.96947 0.46094 0.0
H2740 H 0.58126 0.99081 0.27698 0.0
H2741 H 0.56575 0.01062 0.4311 0.0
C2742 C 0.57878 0.02938 0.38399 0.0
C2743 C 0.58889 0.03626 0.33685 0.0
C2744 C 0.5744 0.98612 0.31791 0.0
C2745 C 0.57862 0.00872 0.35818 0.0
C2746 C 0.56674 0.97206 0.32106 0.0
C2747 C 0.55718 0.96575 0.37149 0.0
C2748 C 0.57238 0.99389 0.36521 0.0
C2749 C 0.55623 0.97389 0.42044 0.0
C2750 C 0.5737 0.0157 0.39506 0.0
C2751 C 0.59393 0.0291 0.30244 0.0
N2752 N 0.56358 0.98752 0.41557 0.0
N2753 N 0.58861 0.01563 0.31317 0.0
H2754 H 0.43406 0.97292 0.94688 0.0
H2755 H 0.45038 0.04109 0.75801 0.0
H2756 H 0.41419 0.97296 0.76591 0.0
H2757 H 0.47204 0.03903 0.92787 0.0
H2758 H 0.43528 0.01653 0.76515 0.0
H2759 H 0.44609 0.99748 0.94664 0.0
C2760 C 0.43214 0.97811 0.90732 0.0
C2761 C 0.42318 0.97084 0.85604 0.0
C2762 C 0.44334 0.02149 0.80084 0.0
C2763 C 0.43706 0.99913 0.85507 0.0
C2764 C 0.45193 0.0355 0.79685 0.0
C2765 C 0.46265 0.04212 0.84168 0.0
C2766 C 0.44539 0.0141 0.85049 0.0
C2767 C 0.46415 0.03436 0.89117 0.0
C2768 C 0.43903 0.99217 0.90713 0.0
C2769 C 0.42095 0.97814 0.8066 0.0
N2770 N 0.45568 0.02083 0.89407 0.0
N2771 N 0.42795 0.99189 0.80693 0.0
H2772 H 0.9767 0.44464 0.79451 0.0
H2773 H 0.04669 0.44628 0.77698 0.0
H2774 H 0.97714 0.40728 0.79184 0.0
H2775 H 0.04029 0.47522 0.88376 0.0
H2776 H 0.02221 0.43234 0.76152 0.0
H2777 H 1.00128 0.45701 0.79837 0.0
C2778 C 0.98205 0.43908 0.79267 0.0
C2779 C 0.97495 0.42496 0.79251 0.0
C2780 C 0.02625 0.44172 0.78853 0.0
C2781 C 1.00306 0.43902 0.79873 0.0
C2782 C 0.0402 0.44964 0.79806 0.0
C2783 C 0.04567 0.4621 0.83117 0.0
C2784 C 0.01778 0.44642 0.81115 0.0
C2785 C 0.03667 0.46593 0.85644 0.0
C2786 C 0.99604 0.44612 0.79583 0.0
C2787 C 0.98231 0.41818 0.79115 0.0
N2788 N 0.02325 0.45824 0.84517 0.0
N2789 N 0.99604 0.42529 0.79481 0.0
H2790 H 0.59682 0.56452 0.91276 0.0
H2791 H 0.53871 0.57483 0.75486 0.0
H2792 H 0.57514 0.54537 0.7342 0.0
H2793 H 0.56028 0.59588 0.93043 0.0
H2794 H 0.55366 0.56567 0.7426 0.0
H2795 H 0.5856 0.57801 0.91538 0.0
C2796 C 0.58993 0.56337 0.87334 0.0
C2797 C 0.58681 0.55373 0.82345 0.0
C2798 C 0.55521 0.5723 0.78389 0.0
C2799 C 0.57382 0.56893 0.8267 0.0
C2800 C 0.5466 0.57746 0.79117 0.0
C2801 C 0.54807 0.58588 0.84461 0.0
C2802 C 0.56543 0.57547 0.8306 0.0
C2803 C 0.55873 0.5893 0.88895 0.0
C2804 C 0.58345 0.57099 0.87517 0.0
C2805 C 0.5777 0.55255 0.77404 0.0
N2806 N 0.56693 0.58394 0.88144 0.0
N2807 N 0.57147 0.55995 0.77726 0.0
loop_
_geom_bond_atom_site_label_1
_geom_bond_atom_site_label_2
_geom_bond_distance
_geom_bond_site_symmetry_2
_ccdc_geom_bond_type
Co0 N4 2.148 1_554 S
Co0 N10 2.128 . S
Co0 N20 2.194 1_554 S
Co0 O25 2.351 . S
Co0 O26 2.155 . S
Co0 O27 2.096 1_554 S
C1 N4 1.301 . S
C1 N5 1.328 . S
C1 H6 0.930 . S
C2 C3 1.333 . S
C2 N4 1.317 . S
C2 H7 0.930 . S
C3 C2 1.333 . S
C3 N5 1.350 . S
C3 H29 0.931 . S
N4 Co0 2.148 1_556 S
N4 C1 1.301 . S
N4 C2 1.317 . S
N5 C1 1.328 . S
N5 C3 1.350 . S
H6 C1 0.930 . S
H7 C2 0.930 . S
C8 O9 1.224 . S
C8 O27 1.247 . S
O9 C8 1.224 . S
N10 Co0 2.128 . S
N10 C11 1.355 . S
N10 C13 1.311 . S
C11 N10 1.355 . S
C11 C12 1.363 . S
C11 H23 0.929 . S
C12 C11 1.363 . S
C12 N14 1.375 . S
C12 H30 0.931 . S
C13 N10 1.311 . S
C13 N14 1.347 . S
C13 H24 0.929 . S
N14 C12 1.375 . S
N14 C13 1.347 . S
C15 C18 1.365 . S
C15 N20 1.328 1_554 S
C15 H21 0.929 . S
C16 C17 1.362 . S
C16 C19 1.378 . S
C16 H31 0.929 . S
C17 C16 1.362 . S
C17 C18 1.366 1_556 S
C18 C15 1.365 . S
C18 C17 1.366 1_554 S
C18 H32 0.930 . S
C19 C16 1.378 . S
C19 N20 1.315 . S
C19 H22 0.930 . S
N20 Co0 2.194 1_556 S
N20 C15 1.328 1_556 S
N20 C19 1.315 . S
H21 C15 0.929 . S
H22 C19 0.930 . S
H23 C11 0.929 . S
H24 C13 0.929 . S
O25 Co0 2.351 . S
O25 C28 1.244 . S
O26 Co0 2.155 . S
O26 C28 1.240 . S
O27 Co0 2.096 1_556 S
O27 C8 1.247 . S
C28 O25 1.244 . S
C28 O26 1.240 . S
H29 C3 0.931 . S
H30 C12 0.931 . S
H31 C16 0.929 . S
H32 C18 0.930 . S
Co33 N37 2.148 1_554 S
Co33 N43 2.128 . S
Co33 N53 2.194 1_554 S
Co33 O58 2.351 . S
Co33 O59 2.155 . S
Co33 O60 2.096 1_554 S
C34 N37 1.301 . S
C34 N38 1.328 . S
C34 H39 0.930 . S
C35 C36 1.333 . S
C35 N37 1.317 . S
C35 H40 0.930 . S
C36 C35 1.333 . S
C36 N38 1.350 . S
C36 H62 0.931 . S
N37 Co33 2.148 1_556 S
N37 C34 1.301 . S
N37 C35 1.317 . S
N38 C34 1.328 . S
N38 C36 1.350 . S
H39 C34 0.930 . S
H40 C35 0.930 . S
C41 O42 1.224 . S
C41 O60 1.247 . S
O42 C41 1.224 . S
N43 Co33 2.128 . S
N43 C44 1.355 . S
N43 C46 1.311 . S
C44 N43 1.355 . S
C44 C45 1.363 . S
C44 H56 0.929 . S
C45 C44 1.363 . S
C45 N47 1.375 . S
C45 H63 0.931 . S
C46 N43 1.311 . S
C46 N47 1.347 . S
C46 H57 0.929 . S
N47 C45 1.375 . S
N47 C46 1.347 . S
C48 C51 1.365 . S
C48 N53 1.328 1_554 S
C48 H54 0.929 . S
C49 C50 1.362 . S
C49 C52 1.378 . S
C49 H64 0.929 . S
C50 C49 1.362 . S
C50 C51 1.366 1_556 S
C51 C48 1.365 . S
C51 C50 1.366 1_554 S
C51 H65 0.930 . S
C52 C49 1.378 . S
C52 N53 1.315 . S
C52 H55 0.930 . S
N53 Co33 2.194 1_556 S
N53 C48 1.328 1_556 S
N53 C52 1.315 . S
H54 C48 0.929 . S
H55 C52 0.930 . S
H56 C44 0.929 . S
H57 C46 0.929 . S
O58 Co33 2.351 . S
O58 C61 1.244 . S
O59 Co33 2.155 . S
O59 C61 1.240 . S
O60 Co33 2.096 1_556 S
O60 C41 1.247 . S
C61 O58 1.244 . S
C61 O59 1.240 . S
H62 C36 0.931 . S
H63 C45 0.931 . S
H64 C49 0.929 . S
H65 C51 0.930 . S
Co66 N70 2.148 1_554 S
Co66 N76 2.128 . S
Co66 N86 2.194 1_554 S
Co66 O91 2.351 . S
Co66 O92 2.155 . S
Co66 O93 2.096 1_554 S
C67 N70 1.301 . S
C67 N71 1.328 . S
C67 H72 0.930 . S
C68 C69 1.333 . S
C68 N70 1.317 . S
C68 H73 0.930 . S
C69 C68 1.333 . S
C69 N71 1.350 . S
C69 H95 0.931 . S
N70 Co66 2.148 1_556 S
N70 C67 1.301 . S
N70 C68 1.317 . S
N71 C67 1.328 . S
N71 C69 1.350 . S
H72 C67 0.930 . S
H73 C68 0.930 . S
C74 O75 1.224 . S
C74 O93 1.247 . S
O75 C74 1.224 . S
N76 Co66 2.128 . S
N76 C77 1.355 . S
N76 C79 1.311 . S
C77 N76 1.355 . S
C77 C78 1.363 . S
C77 H89 0.929 . S
C78 C77 1.363 . S
C78 N80 1.375 . S
C78 H96 0.931 . S
C79 N76 1.311 . S
C79 N80 1.347 . S
C79 H90 0.929 . S
N80 C78 1.375 . S
N80 C79 1.347 . S
C81 C84 1.365 . S
C81 N86 1.328 1_554 S
C81 H87 0.929 . S
C82 C83 1.362 . S
C82 C85 1.378 . S
C82 H97 0.929 . S
C83 C82 1.362 . S
C83 C84 1.366 1_556 S
C84 C81 1.365 . S
C84 C83 1.366 1_554 S
C84 H98 0.930 . S
C85 C82 1.378 . S
C85 N86 1.315 . S
C85 H88 0.930 . S
N86 Co66 2.194 1_556 S
N86 C81 1.328 1_556 S
N86 C85 1.315 . S
H87 C81 0.929 . S
H88 C85 0.930 . S
H89 C77 0.929 . S
H90 C79 0.929 . S
O91 Co66 2.351 . S
O91 C94 1.244 . S
O92 Co66 2.155 . S
O92 C94 1.240 . S
O93 Co66 2.096 1_556 S
O93 C74 1.247 . S
C94 O91 1.244 . S
C94 O92 1.240 . S
H95 C69 0.931 . S
H96 C78 0.931 . S
H97 C82 0.929 . S
H98 C84 0.930 . S
Co99 N103 2.148 . S
Co99 N109 2.128 . S
Co99 N119 2.194 . S
Co99 O124 2.351 . S
Co99 O125 2.155 . S
Co99 O126 2.096 . S
C100 N103 1.301 . S
C100 N104 1.328 . S
C100 H105 0.930 . S
C101 C102 1.333 . S
C101 N103 1.317 . S
C101 H106 0.930 . S
C102 C101 1.333 . S
C102 N104 1.350 . S
C102 H128 0.931 . S
N103 Co99 2.148 . S
N103 C100 1.301 . S
N103 C101 1.317 . S
N104 C100 1.328 . S
N104 C102 1.350 . S
H105 C100 0.930 . S
H106 C101 0.930 . S
C107 O108 1.224 . S
C107 O126 1.247 . S
O108 C107 1.224 . S
N109 Co99 2.128 . S
N109 C110 1.355 . S
N109 C112 1.311 . S
C110 N109 1.355 . S
C110 C111 1.363 . S
C110 H122 0.929 . S
C111 C110 1.363 . S
C111 N113 1.375 . S
C111 H129 0.931 . S
C112 N109 1.311 . S
C112 N113 1.347 . S
C112 H123 0.929 . S
N113 C111 1.375 . S
N113 C112 1.347 . S
C114 C117 1.365 . S
C114 N119 1.328 . S
C114 H120 0.929 . S
C115 C116 1.362 . S
C115 C118 1.378 . S
C115 H130 0.929 . S
C116 C115 1.362 . S
C116 C117 1.366 . S
C117 C114 1.365 . S
C117 C116 1.366 . S
C117 H131 0.930 . S
C118 C115 1.378 . S
C118 N119 1.315 . S
C118 H121 0.930 . S
N119 Co99 2.194 . S
N119 C114 1.328 . S
N119 C118 1.315 . S
H120 C114 0.929 . S
H121 C118 0.930 . S
H122 C110 0.929 . S
H123 C112 0.929 . S
O124 Co99 2.351 . S
O124 C127 1.244 . S
O125 Co99 2.155 . S
O125 C127 1.240 . S
O126 Co99 2.096 . S
O126 C107 1.247 . S
C127 O124 1.244 . S
C127 O125 1.240 . S
H128 C102 0.931 . S
H129 C111 0.931 . S
H130 C115 0.929 . S
H131 C117 0.930 . S
Co132 N136 2.148 . S
Co132 N142 2.128 . S
Co132 N152 2.194 . S
Co132 O157 2.351 . S
Co132 O158 2.155 . S
Co132 O159 2.096 . S
C133 N136 1.301 . S
C133 N137 1.328 . S
C133 H138 0.930 . S
C134 C135 1.333 . S
C134 N136 1.317 . S
C134 H139 0.930 . S
C135 C134 1.333 . S
C135 N137 1.350 . S
C135 H161 0.931 . S
N136 Co132 2.148 . S
N136 C133 1.301 . S
N136 C134 1.317 . S
N137 C133 1.328 . S
N137 C135 1.350 . S
H138 C133 0.930 . S
H139 C134 0.930 . S
C140 O141 1.224 . S
C140 O159 1.247 . S
O141 C140 1.224 . S
N142 Co132 2.128 . S
N142 C143 1.355 . S
N142 C145 1.311 . S
C143 N142 1.355 . S
C143 C144 1.363 . S
C143 H155 0.929 . S
C144 C143 1.363 . S
C144 N146 1.375 . S
C144 H162 0.931 . S
C145 N142 1.311 . S
C145 N146 1.347 . S
C145 H156 0.929 . S
N146 C144 1.375 . S
N146 C145 1.347 . S
C147 C150 1.365 . S
C147 N152 1.328 . S
C147 H153 0.929 . S
C148 C149 1.362 . S
C148 C151 1.378 . S
C148 H163 0.929 . S
C149 C148 1.362 . S
C149 C150 1.366 . S
C150 C147 1.365 . S
C150 C149 1.366 . S
C150 H164 0.930 . S
C151 C148 1.378 . S
C151 N152 1.315 . S
C151 H154 0.930 . S
N152 Co132 2.194 . S
N152 C147 1.328 . S
N152 C151 1.315 . S
H153 C147 0.929 . S
H154 C151 0.930 . S
H155 C143 0.929 . S
H156 C145 0.929 . S
O157 Co132 2.351 . S
O157 C160 1.244 . S
O158 Co132 2.155 . S
O158 C160 1.240 . S
O159 Co132 2.096 . S
O159 C140 1.247 . S
C160 O157 1.244 . S
C160 O158 1.240 . S
H161 C135 0.931 . S
H162 C144 0.931 . S
H163 C148 0.929 . S
H164 C150 0.930 . S
Co165 N169 2.148 . S
Co165 N175 2.128 . S
Co165 N185 2.194 . S
Co165 O190 2.351 . S
Co165 O191 2.155 . S
Co165 O192 2.096 . S
C166 N169 1.301 . S
C166 N170 1.328 . S
C166 H171 0.930 . S
C167 C168 1.333 . S
C167 N169 1.317 . S
C167 H172 0.930 . S
C168 C167 1.333 . S
C168 N170 1.350 . S
C168 H194 0.931 . S
N169 Co165 2.148 . S
N169 C166 1.301 . S
N169 C167 1.317 . S
N170 C166 1.328 . S
N170 C168 1.350 . S
H171 C166 0.930 . S
H172 C167 0.930 . S
C173 O174 1.224 . S
C173 O192 1.247 . S
O174 C173 1.224 . S
N175 Co165 2.128 . S
N175 C176 1.355 . S
N175 C178 1.311 . S
C176 N175 1.355 . S
C176 C177 1.363 . S
C176 H188 0.929 . S
C177 C176 1.363 . S
C177 N179 1.375 . S
C177 H195 0.931 . S
C178 N175 1.311 . S
C178 N179 1.347 . S
C178 H189 0.929 . S
N179 C177 1.375 . S
N179 C178 1.347 . S
C180 C183 1.365 . S
C180 N185 1.328 . S
C180 H186 0.929 . S
C181 C182 1.362 . S
C181 C184 1.378 . S
C181 H196 0.929 . S
C182 C181 1.362 . S
C182 C183 1.366 . S
C183 C180 1.365 . S
C183 C182 1.366 . S
C183 H197 0.930 . S
C184 C181 1.378 . S
C184 N185 1.315 . S
C184 H187 0.930 . S
N185 Co165 2.194 . S
N185 C180 1.328 . S
N185 C184 1.315 . S
H186 C180 0.929 . S
H187 C184 0.930 . S
H188 C176 0.929 . S
H189 C178 0.929 . S
O190 Co165 2.351 . S
O190 C193 1.244 . S
O191 Co165 2.155 . S
O191 C193 1.240 . S
O192 Co165 2.096 . S
O192 C173 1.247 . S
C193 O190 1.244 . S
C193 O191 1.240 . S
H194 C168 0.931 . S
H195 C177 0.931 . S
H196 C181 0.929 . S
H197 C183 0.930 . S
Co198 N202 2.148 . S
Co198 N208 2.128 . S
Co198 N218 2.194 . S
Co198 O223 2.351 . S
Co198 O224 2.155 . S
Co198 O225 2.096 . S
C199 N202 1.301 . S
C199 N203 1.328 . S
C199 H204 0.930 . S
C200 C201 1.333 . S
C200 N202 1.317 . S
C200 H205 0.930 . S
C201 C200 1.333 . S
C201 N203 1.350 . S
C201 H227 0.931 . S
N202 Co198 2.148 . S
N202 C199 1.301 . S
N202 C200 1.317 . S
N203 C199 1.328 . S
N203 C201 1.350 . S
H204 C199 0.930 . S
H205 C200 0.930 . S
C206 O207 1.224 . S
C206 O225 1.247 . S
O207 C206 1.224 . S
N208 Co198 2.128 . S
N208 C209 1.355 . S
N208 C211 1.311 . S
C209 N208 1.355 . S
C209 C210 1.363 1_554 S
C209 H221 0.929 . S
C210 C209 1.363 1_556 S
C210 N212 1.375 1_556 S
C210 H228 0.931 . S
C211 N208 1.311 . S
C211 N212 1.347 . S
C211 H222 0.929 . S
N212 C210 1.375 1_554 S
N212 C211 1.347 . S
C213 C216 1.365 . S
C213 N218 1.328 . S
C213 H219 0.929 . S
C214 C215 1.362 . S
C214 C217 1.378 . S
C214 H229 0.929 . S
C215 C214 1.362 . S
C215 C216 1.366 . S
C216 C213 1.365 . S
C216 C215 1.366 . S
C216 H230 0.930 . S
C217 C214 1.378 . S
C217 N218 1.315 . S
C217 H220 0.930 . S
N218 Co198 2.194 . S
N218 C213 1.328 . S
N218 C217 1.315 . S
H219 C213 0.929 . S
H220 C217 0.930 . S
H221 C209 0.929 . S
H222 C211 0.929 . S
O223 Co198 2.351 . S
O223 C226 1.244 . S
O224 Co198 2.155 . S
O224 C226 1.240 . S
O225 Co198 2.096 . S
O225 C206 1.247 . S
C226 O223 1.244 . S
C226 O224 1.240 . S
H227 C201 0.931 . S
H228 C210 0.931 . S
H229 C214 0.929 . S
H230 C216 0.930 . S
Co231 N235 2.148 . S
Co231 N241 2.128 . S
Co231 N251 2.194 . S
Co231 O256 2.351 . S
Co231 O257 2.155 . S
Co231 O258 2.096 . S
C232 N235 1.301 . S
C232 N236 1.328 . S
C232 H237 0.930 . S
C233 C234 1.333 . S
C233 N235 1.317 . S
C233 H238 0.930 . S
C234 C233 1.333 . S
C234 N236 1.350 . S
C234 H260 0.931 . S
N235 Co231 2.148 . S
N235 C232 1.301 . S
N235 C233 1.317 . S
N236 C232 1.328 . S
N236 C234 1.350 . S
H237 C232 0.930 . S
H238 C233 0.930 . S
C239 O240 1.224 . S
C239 O258 1.247 . S
O240 C239 1.224 . S
N241 Co231 2.128 . S
N241 C242 1.355 . S
N241 C244 1.311 . S
C242 N241 1.355 . S
C242 C243 1.363 1_554 S
C242 H254 0.929 . S
C243 C242 1.363 1_556 S
C243 N245 1.370 1_556 S
C243 H261 0.931 . S
C244 N241 1.311 . S
C244 N245 1.360 . S
C244 H255 0.929 . S
N245 C243 1.370 1_554 S
N245 C244 1.360 . S
C246 C249 1.365 . S
C246 N251 1.328 . S
C246 H252 0.929 . S
C247 C248 1.362 . S
C247 C250 1.378 . S
C247 H262 0.929 . S
C248 C247 1.362 . S
C248 C249 1.366 . S
C249 C246 1.365 . S
C249 C248 1.366 . S
C249 H263 0.930 . S
C250 C247 1.378 . S
C250 N251 1.315 . S
C250 H253 0.930 . S
N251 Co231 2.194 . S
N251 C246 1.328 . S
N251 C250 1.315 . S
H252 C246 0.929 . S
H253 C250 0.930 . S
H254 C242 0.929 . S
H255 C244 0.929 . S
O256 Co231 2.351 . S
O256 C259 1.244 . S
O257 Co231 2.155 . S
O257 C259 1.240 . S
O258 Co231 2.096 . S
O258 C239 1.247 . S
C259 O256 1.244 . S
C259 O257 1.240 . S
H260 C234 0.931 . S
H261 C243 0.931 . S
H262 C247 0.929 . S
H263 C249 0.930 . S
Co264 N268 2.148 . S
Co264 N274 2.128 . S
Co264 N284 2.194 . S
Co264 O289 2.351 . S
Co264 O290 2.155 . S
Co264 O291 2.096 . S
C265 N268 1.301 . S
C265 N269 1.328 . S
C265 H270 0.930 . S
C266 C267 1.333 . S
C266 N268 1.317 . S
C266 H271 0.930 . S
C267 C266 1.333 . S
C267 N269 1.350 . S
C267 H293 0.931 . S
N268 Co264 2.148 . S
N268 C265 1.301 . S
N268 C266 1.317 . S
N269 C265 1.328 . S
N269 C267 1.350 . S
H270 C265 0.930 . S
H271 C266 0.930 . S
C272 O273 1.224 . S
C272 O291 1.247 . S
O273 C272 1.224 . S
N274 Co264 2.128 . S
N274 C275 1.355 . S
N274 C277 1.311 . S
C275 N274 1.355 . S
C275 C276 1.363 1_554 S
C275 H287 0.929 . S
C276 C275 1.363 1_556 S
C276 N278 1.369 1_556 S
C276 H294 0.931 . S
C277 N274 1.311 . S
C277 N278 1.361 . S
C277 H288 0.929 . S
N278 C276 1.369 1_554 S
N278 C277 1.361 . S
C279 C282 1.365 . S
C279 N284 1.328 . S
C279 H285 0.929 . S
C280 C281 1.362 . S
C280 C283 1.378 . S
C280 H295 0.929 . S
C281 C280 1.362 . S
C281 C282 1.366 . S
C282 C279 1.365 . S
C282 C281 1.366 . S
C282 H296 0.930 . S
C283 C280 1.378 . S
C283 N284 1.315 . S
C283 H286 0.930 . S
N284 Co264 2.194 . S
N284 C279 1.328 . S
N284 C283 1.315 . S
H285 C279 0.929 . S
H286 C283 0.930 . S
H287 C275 0.929 . S
H288 C277 0.929 . S
O289 Co264 2.351 . S
O289 C292 1.244 . S
O290 Co264 2.155 . S
O290 C292 1.240 . S
O291 Co264 2.096 . S
O291 C272 1.247 . S
C292 O289 1.244 . S
C292 O290 1.240 . S
H293 C267 0.931 . S
H294 C276 0.931 . S
H295 C280 0.929 . S
H296 C282 0.930 . S
Co297 N301 2.148 . S
Co297 N307 2.128 . S
Co297 N317 2.194 . S
Co297 O322 2.351 . S
Co297 O323 2.155 . S
Co297 O324 2.096 . S
C298 N301 1.301 . S
C298 N302 1.328 . S
C298 H303 0.930 . S
C299 C300 1.333 . S
C299 N301 1.317 . S
C299 H304 0.930 . S
C300 C299 1.333 . S
C300 N302 1.350 . S
C300 H326 0.931 . S
N301 Co297 2.148 . S
N301 C298 1.301 . S
N301 C299 1.317 . S
N302 C298 1.328 . S
N302 C300 1.350 . S
H303 C298 0.930 . S
H304 C299 0.930 . S
C305 O306 1.224 . S
C305 O324 1.247 . S
O306 C305 1.224 . S
N307 Co297 2.128 . S
N307 C308 1.355 . S
N307 C310 1.311 . S
C308 N307 1.355 . S
C308 C309 1.363 . S
C308 H320 0.929 . S
C309 C308 1.363 . S
C309 N311 1.375 . S
C309 H327 0.931 . S
C310 N307 1.311 . S
C310 N311 1.347 . S
C310 H321 0.929 . S
N311 C309 1.375 . S
N311 C310 1.347 . S
C312 C315 1.365 . S
C312 N317 1.328 . S
C312 H318 0.929 . S
C313 C314 1.362 . S
C313 C316 1.378 . S
C313 H328 0.929 . S
C314 C313 1.362 . S
C314 C315 1.366 . S
C315 C312 1.365 . S
C315 C314 1.366 . S
C315 H329 0.930 . S
C316 C313 1.378 . S
C316 N317 1.315 . S
C316 H319 0.930 . S
N317 Co297 2.194 . S
N317 C312 1.328 . S
N317 C316 1.315 . S
H318 C312 0.929 . S
H319 C316 0.930 . S
H320 C308 0.929 . S
H321 C310 0.929 . S
O322 Co297 2.351 . S
O322 C325 1.244 . S
O323 Co297 2.155 . S
O323 C325 1.240 . S
O324 Co297 2.096 . S
O324 C305 1.247 . S
C325 O322 1.244 . S
C325 O323 1.240 . S
H326 C300 0.931 . S
H327 C309 0.931 . S
H328 C313 0.929 . S
H329 C315 0.930 . S
Co330 N334 2.148 . S
Co330 N340 2.128 . S
Co330 N350 2.194 . S
Co330 O355 2.351 . S
Co330 O356 2.155 . S
Co330 O357 2.096 . S
C331 N334 1.301 . S
C331 N335 1.328 . S
C331 H336 0.930 . S
C332 C333 1.333 . S
C332 N334 1.317 . S
C332 H337 0.930 . S
C333 C332 1.333 . S
C333 N335 1.350 . S
C333 H359 0.931 . S
N334 Co330 2.148 . S
N334 C331 1.301 . S
N334 C332 1.317 . S
N335 C331 1.328 . S
N335 C333 1.350 . S
H336 C331 0.930 . S
H337 C332 0.930 . S
C338 O339 1.224 . S
C338 O357 1.247 . S
O339 C338 1.224 . S
N340 Co330 2.128 . S
N340 C341 1.355 . S
N340 C343 1.311 . S
C341 N340 1.355 . S
C341 C342 1.363 . S
C341 H353 0.929 . S
C342 C341 1.363 . S
C342 N344 1.375 . S
C342 H360 0.931 . S
C343 N340 1.311 . S
C343 N344 1.347 . S
C343 H354 0.929 . S
N344 C342 1.375 . S
N344 C343 1.347 . S
C345 C348 1.365 . S
C345 N350 1.328 . S
C345 H351 0.929 . S
C346 C347 1.362 . S
C346 C349 1.378 . S
C346 H361 0.929 . S
C347 C346 1.362 . S
C347 C348 1.366 . S
C348 C345 1.365 . S
C348 C347 1.366 . S
C348 H362 0.930 . S
C349 C346 1.378 . S
C349 N350 1.315 . S
C349 H352 0.930 . S
N350 Co330 2.194 . S
N350 C345 1.328 . S
N350 C349 1.315 . S
H351 C345 0.929 . S
H352 C349 0.930 . S
H353 C341 0.929 . S
H354 C343 0.929 . S
O355 Co330 2.351 . S
O355 C358 1.244 . S
O356 Co330 2.155 . S
O356 C358 1.240 . S
O357 Co330 2.096 . S
O357 C338 1.247 . S
C358 O355 1.244 . S
C358 O356 1.240 . S
H359 C333 0.931 . S
H360 C342 0.931 . S
H361 C346 0.929 . S
H362 C348 0.930 . S
Co363 N367 2.148 . S
Co363 N373 2.128 . S
Co363 N383 2.194 . S
Co363 O388 2.351 . S
Co363 O389 2.155 . S
Co363 O390 2.096 . S
C364 N367 1.301 . S
C364 N368 1.328 . S
C364 H369 0.930 . S
C365 C366 1.333 . S
C365 N367 1.317 . S
C365 H370 0.930 . S
C366 C365 1.333 . S
C366 N368 1.350 . S
C366 H392 0.931 . S
N367 Co363 2.148 . S
N367 C364 1.301 . S
N367 C365 1.317 . S
N368 C364 1.328 . S
N368 C366 1.350 . S
H369 C364 0.930 . S
H370 C365 0.930 . S
C371 O372 1.224 . S
C371 O390 1.247 . S
O372 C371 1.224 . S
N373 Co363 2.128 . S
N373 C374 1.355 . S
N373 C376 1.311 . S
C374 N373 1.355 . S
C374 C375 1.363 . S
C374 H386 0.929 . S
C375 C374 1.363 . S
C375 N377 1.375 . S
C375 H393 0.931 . S
C376 N373 1.311 . S
C376 N377 1.347 . S
C376 H387 0.929 . S
N377 C375 1.375 . S
N377 C376 1.347 . S
C378 C381 1.365 . S
C378 N383 1.328 . S
C378 H384 0.929 . S
C379 C380 1.362 . S
C379 C382 1.378 . S
C379 H394 0.929 . S
C380 C379 1.362 . S
C380 C381 1.366 . S
C381 C378 1.365 . S
C381 C380 1.366 . S
C381 H395 0.930 . S
C382 C379 1.378 . S
C382 N383 1.315 . S
C382 H385 0.930 . S
N383 Co363 2.194 . S
N383 C378 1.328 . S
N383 C382 1.315 . S
H384 C378 0.929 . S
H385 C382 0.930 . S
H386 C374 0.929 . S
H387 C376 0.929 . S
O388 Co363 2.351 . S
O388 C391 1.244 . S
O389 Co363 2.155 . S
O389 C391 1.240 . S
O390 Co363 2.096 . S
O390 C371 1.247 . S
C391 O388 1.244 . S
C391 O389 1.240 . S
H392 C366 0.931 . S
H393 C375 0.931 . S
H394 C379 0.929 . S
H395 C381 0.930 . S
Co396 N400 2.148 . S
Co396 N406 2.128 . S
Co396 N416 2.194 . S
Co396 O421 2.351 . S
Co396 O422 2.155 . S
Co396 O423 2.096 . S
C397 N400 1.301 . S
C397 N401 1.328 . S
C397 H402 0.930 . S
C398 C399 1.333 . S
C398 N400 1.317 . S
C398 H403 0.930 . S
C399 C398 1.333 . S
C399 N401 1.350 . S
C399 H425 0.931 . S
N400 Co396 2.148 . S
N400 C397 1.301 . S
N400 C398 1.317 . S
N401 C397 1.328 . S
N401 C399 1.350 . S
H402 C397 0.930 . S
H403 C398 0.930 . S
C404 O405 1.224 . S
C404 O423 1.247 . S
O405 C404 1.224 . S
N406 Co396 2.128 . S
N406 C407 1.355 . S
N406 C409 1.311 . S
C407 N406 1.355 . S
C407 C408 1.363 . S
C407 H419 0.929 . S
C408 C407 1.363 . S
C408 N410 1.375 . S
C408 H426 0.931 . S
C409 N406 1.311 . S
C409 N410 1.347 . S
C409 H420 0.929 . S
N410 C408 1.375 . S
N410 C409 1.347 . S
C411 C414 1.365 . S
C411 N416 1.328 . S
C411 H417 0.929 . S
C412 C413 1.362 . S
C412 C415 1.378 . S
C412 H427 0.929 . S
C413 C412 1.362 . S
C413 C414 1.366 . S
C414 C411 1.365 . S
C414 C413 1.366 . S
C414 H428 0.930 . S
C415 C412 1.378 . S
C415 N416 1.315 . S
C415 H418 0.930 . S
N416 Co396 2.194 . S
N416 C411 1.328 . S
N416 C415 1.315 . S
H417 C411 0.929 . S
H418 C415 0.930 . S
H419 C407 0.929 . S
H420 C409 0.929 . S
O421 Co396 2.351 . S
O421 C424 1.244 . S
O422 Co396 2.155 . S
O422 C424 1.240 . S
O423 Co396 2.096 . S
O423 C404 1.247 . S
C424 O421 1.244 . S
C424 O422 1.240 . S
H425 C399 0.931 . S
H426 C408 0.931 . S
H427 C412 0.929 . S
H428 C414 0.930 . S
Co429 N433 2.148 . S
Co429 N439 2.128 . S
Co429 N449 2.194 . S
Co429 O454 2.351 . S
Co429 O455 2.155 . S
Co429 O456 2.096 . S
C430 N433 1.301 . S
C430 N434 1.328 . S
C430 H435 0.930 . S
C431 C432 1.333 . S
C431 N433 1.317 . S
C431 H436 0.930 . S
C432 C431 1.333 . S
C432 N434 1.350 . S
C432 H458 0.931 . S
N433 Co429 2.148 . S
N433 C430 1.301 . S
N433 C431 1.317 . S
N434 C430 1.328 . S
N434 C432 1.350 . S
H435 C430 0.930 . S
H436 C431 0.930 . S
C437 O438 1.224 . S
C437 O456 1.247 . S
O438 C437 1.224 . S
N439 Co429 2.128 . S
N439 C440 1.355 . S
N439 C442 1.311 . S
C440 N439 1.355 . S
C440 C441 1.363 . S
C440 H452 0.929 . S
C441 C440 1.363 . S
C441 N443 1.375 . S
C441 H459 0.931 . S
C442 N439 1.311 . S
C442 N443 1.347 . S
C442 H453 0.929 . S
N443 C441 1.375 . S
N443 C442 1.347 . S
C444 C447 1.365 . S
C444 N449 1.328 . S
C444 H450 0.929 . S
C445 C446 1.362 . S
C445 C448 1.378 . S
C445 H460 0.929 . S
C446 C445 1.362 . S
C446 C447 1.366 . S
C447 C444 1.365 . S
C447 C446 1.366 . S
C447 H461 0.930 . S
C448 C445 1.378 . S
C448 N449 1.315 . S
C448 H451 0.930 . S
N449 Co429 2.194 . S
N449 C444 1.328 . S
N449 C448 1.315 . S
H450 C444 0.929 . S
H451 C448 0.930 . S
H452 C440 0.929 . S
H453 C442 0.929 . S
O454 Co429 2.351 . S
O454 C457 1.244 . S
O455 Co429 2.155 . S
O455 C457 1.240 . S
O456 Co429 2.096 . S
O456 C437 1.247 . S
C457 O454 1.244 . S
C457 O455 1.240 . S
H458 C432 0.931 . S
H459 C441 0.931 . S
H460 C445 0.929 . S
H461 C447 0.930 . S
Co462 N466 2.148 . S
Co462 N472 2.128 . S
Co462 N482 2.194 . S
Co462 O487 2.351 . S
Co462 O488 2.155 . S
Co462 O489 2.096 . S
C463 N466 1.301 . S
C463 N467 1.328 . S
C463 H468 0.930 . S
C464 C465 1.333 . S
C464 N466 1.317 . S
C464 H469 0.930 . S
C465 C464 1.333 . S
C465 N467 1.350 . S
C465 H491 0.931 . S
N466 Co462 2.148 . S
N466 C463 1.301 . S
N466 C464 1.317 . S
N467 C463 1.328 . S
N467 C465 1.350 . S
H468 C463 0.930 . S
H469 C464 0.930 . S
C470 O471 1.224 . S
C470 O489 1.247 . S
O471 C470 1.224 . S
N472 Co462 2.128 . S
N472 C473 1.355 . S
N472 C475 1.311 . S
C473 N472 1.355 . S
C473 C474 1.363 . S
C473 H485 0.929 . S
C474 C473 1.363 . S
C474 N476 1.375 . S
C474 H492 0.931 . S
C475 N472 1.311 . S
C475 N476 1.347 . S
C475 H486 0.929 . S
N476 C474 1.375 . S
N476 C475 1.347 . S
C477 C480 1.365 . S
C477 N482 1.328 . S
C477 H483 0.929 . S
C478 C479 1.362 . S
C478 C481 1.378 . S
C478 H493 0.929 . S
C479 C478 1.362 . S
C479 C480 1.366 . S
C480 C477 1.365 . S
C480 C479 1.366 . S
C480 H494 0.930 . S
C481 C478 1.378 . S
C481 N482 1.315 . S
C481 H484 0.930 . S
N482 Co462 2.194 . S
N482 C477 1.328 . S
N482 C481 1.315 . S
H483 C477 0.929 . S
H484 C481 0.930 . S
H485 C473 0.929 . S
H486 C475 0.929 . S
O487 Co462 2.351 . S
O487 C490 1.244 . S
O488 Co462 2.155 . S
O488 C490 1.240 . S
O489 Co462 2.096 . S
O489 C470 1.247 . S
C490 O487 1.244 . S
C490 O488 1.240 . S
H491 C465 0.931 . S
H492 C474 0.931 . S
H493 C478 0.929 . S
H494 C480 0.930 . S
Co495 N499 2.148 1_556 S
Co495 N505 2.128 . S
Co495 N515 2.194 . S
Co495 O520 2.351 . S
Co495 O521 2.155 . S
Co495 O522 2.096 1_556 S
C496 N499 1.301 . S
C496 N500 1.328 . S
C496 H501 0.930 . S
C497 C498 1.333 . S
C497 N499 1.317 . S
C497 H502 0.930 . S
C498 C497 1.333 . S
C498 N500 1.350 . S
C498 H524 0.931 . S
N499 Co495 2.148 1_554 S
N499 C496 1.301 . S
N499 C497 1.317 . S
N500 C496 1.328 . S
N500 C498 1.350 . S
H501 C496 0.930 . S
H502 C497 0.930 . S
C503 O504 1.224 . S
C503 O522 1.247 . S
O504 C503 1.224 . S
N505 Co495 2.128 . S
N505 C506 1.355 . S
N505 C508 1.311 . S
C506 N505 1.355 . S
C506 C507 1.363 . S
C506 H518 0.929 . S
C507 C506 1.363 . S
C507 N509 1.375 . S
C507 H525 0.931 . S
C508 N505 1.311 . S
C508 N509 1.347 . S
C508 H519 0.929 . S
N509 C507 1.375 . S
N509 C508 1.347 . S
C510 C513 1.365 . S
C510 N515 1.328 . S
C510 H516 0.929 . S
C511 C512 1.370 . S
C511 C514 1.378 . S
C511 H526 0.929 . S
C512 C511 1.370 . S
C512 C513 1.358 1_554 S
C513 C510 1.365 . S
C513 C512 1.358 1_556 S
C513 H527 0.930 . S
C514 C511 1.378 . S
C514 N515 1.315 1_554 S
C514 H517 0.930 . S
N515 Co495 2.194 . S
N515 C510 1.328 . S
N515 C514 1.315 1_556 S
H516 C510 0.929 . S
H517 C514 0.930 . S
H518 C506 0.929 . S
H519 C508 0.929 . S
O520 Co495 2.351 . S
O520 C523 1.244 . S
O521 Co495 2.155 . S
O521 C523 1.240 . S
O522 Co495 2.096 1_554 S
O522 C503 1.247 . S
C523 O520 1.244 . S
C523 O521 1.240 . S
H524 C498 0.931 . S
H525 C507 0.931 . S
H526 C511 0.929 . S
H527 C513 0.930 . S
Co528 N532 2.148 1_556 S
Co528 N538 2.128 . S
Co528 N548 2.194 . S
Co528 O553 2.351 . S
Co528 O554 2.155 . S
Co528 O555 2.096 1_556 S
C529 N532 1.301 . S
C529 N533 1.328 . S
C529 H534 0.930 . S
C530 C531 1.333 . S
C530 N532 1.317 . S
C530 H535 0.930 . S
C531 C530 1.333 . S
C531 N533 1.350 . S
C531 H557 0.931 . S
N532 Co528 2.148 1_554 S
N532 C529 1.301 . S
N532 C530 1.317 . S
N533 C529 1.328 . S
N533 C531 1.350 . S
H534 C529 0.930 . S
H535 C530 0.930 . S
C536 O537 1.224 . S
C536 O555 1.247 . S
O537 C536 1.224 . S
N538 Co528 2.128 . S
N538 C539 1.355 . S
N538 C541 1.311 . S
C539 N538 1.355 . S
C539 C540 1.363 . S
C539 H551 0.929 . S
C540 C539 1.363 . S
C540 N542 1.375 . S
C540 H558 0.931 . S
C541 N538 1.311 . S
C541 N542 1.347 . S
C541 H552 0.929 . S
N542 C540 1.375 . S
N542 C541 1.347 . S
C543 C546 1.365 . S
C543 N548 1.328 . S
C543 H549 0.929 . S
C544 C545 1.370 . S
C544 C547 1.378 . S
C544 H559 0.929 . S
C545 C544 1.370 . S
C545 C546 1.358 1_554 S
C546 C543 1.365 . S
C546 C545 1.358 1_556 S
C546 H560 0.930 . S
C547 C544 1.378 . S
C547 N548 1.315 1_554 S
C547 H550 0.930 . S
N548 Co528 2.194 . S
N548 C543 1.328 . S
N548 C547 1.315 1_556 S
H549 C543 0.929 . S
H550 C547 0.930 . S
H551 C539 0.929 . S
H552 C541 0.929 . S
O553 Co528 2.351 . S
O553 C556 1.244 . S
O554 Co528 2.155 . S
O554 C556 1.240 . S
O555 Co528 2.096 1_554 S
O555 C536 1.247 . S
C556 O553 1.244 . S
C556 O554 1.240 . S
H557 C531 0.931 . S
H558 C540 0.931 . S
H559 C544 0.929 . S
H560 C546 0.930 . S
Co561 N565 2.148 1_556 S
Co561 N571 2.128 . S
Co561 N581 2.194 . S
Co561 O586 2.351 . S
Co561 O587 2.155 . S
Co561 O588 2.096 1_556 S
C562 N565 1.301 . S
C562 N566 1.328 . S
C562 H567 0.930 . S
C563 C564 1.333 . S
C563 N565 1.317 . S
C563 H568 0.930 . S
C564 C563 1.333 . S
C564 N566 1.350 . S
C564 H590 0.931 . S
N565 Co561 2.148 1_554 S
N565 C562 1.301 . S
N565 C563 1.317 . S
N566 C562 1.328 . S
N566 C564 1.350 . S
H567 C562 0.930 . S
H568 C563 0.930 . S
C569 O570 1.224 . S
C569 O588 1.247 . S
O570 C569 1.224 . S
N571 Co561 2.128 . S
N571 C572 1.355 . S
N571 C574 1.311 . S
C572 N571 1.355 . S
C572 C573 1.363 . S
C572 H584 0.929 . S
C573 C572 1.363 . S
C573 N575 1.375 . S
C573 H591 0.931 . S
C574 N571 1.311 . S
C574 N575 1.347 . S
C574 H585 0.929 . S
N575 C573 1.375 . S
N575 C574 1.347 . S
C576 C579 1.365 . S
C576 N581 1.328 . S
C576 H582 0.929 . S
C577 C578 1.369 . S
C577 C580 1.378 . S
C577 H592 0.929 . S
C578 C577 1.369 . S
C578 C579 1.359 1_554 S
C579 C576 1.365 . S
C579 C578 1.359 1_556 S
C579 H593 0.930 . S
C580 C577 1.378 . S
C580 N581 1.315 1_554 S
C580 H583 0.930 . S
N581 Co561 2.194 . S
N581 C576 1.328 . S
N581 C580 1.315 1_556 S
H582 C576 0.929 . S
H583 C580 0.930 . S
H584 C572 0.929 . S
H585 C574 0.929 . S
O586 Co561 2.351 . S
O586 C589 1.244 . S
O587 Co561 2.155 . S
O587 C589 1.240 . S
O588 Co561 2.096 1_554 S
O588 C569 1.247 . S
C589 O586 1.244 . S
C589 O587 1.240 . S
H590 C564 0.931 . S
H591 C573 0.931 . S
H592 C577 0.929 . S
H593 C579 0.930 . S
Co594 N598 2.148 . S
Co594 N604 2.128 . S
Co594 N614 2.194 . S
Co594 O619 2.351 . S
Co594 O620 2.155 . S
Co594 O621 2.096 . S
C595 N598 1.301 . S
C595 N599 1.328 . S
C595 H600 0.930 . S
C596 C597 1.333 . S
C596 N598 1.317 . S
C596 H601 0.930 . S
C597 C596 1.333 . S
C597 N599 1.350 . S
C597 H623 0.931 . S
N598 Co594 2.148 . S
N598 C595 1.301 . S
N598 C596 1.317 . S
N599 C595 1.328 . S
N599 C597 1.350 . S
H600 C595 0.930 . S
H601 C596 0.930 . S
C602 O603 1.224 . S
C602 O621 1.247 . S
O603 C602 1.224 . S
N604 Co594 2.128 . S
N604 C605 1.355 . S
N604 C607 1.311 . S
C605 N604 1.355 . S
C605 C606 1.363 . S
C605 H617 0.929 . S
C606 C605 1.363 . S
C606 N608 1.375 . S
C606 H624 0.931 . S
C607 N604 1.311 . S
C607 N608 1.347 . S
C607 H618 0.929 . S
N608 C606 1.375 . S
N608 C607 1.347 . S
C609 C612 1.365 . S
C609 N614 1.328 . S
C609 H615 0.929 . S
C610 C611 1.362 . S
C610 C613 1.378 . S
C610 H625 0.929 . S
C611 C610 1.362 . S
C611 C612 1.366 . S
C612 C609 1.365 . S
C612 C611 1.366 . S
C612 H626 0.930 . S
C613 C610 1.378 . S
C613 N614 1.315 . S
C613 H616 0.930 . S
N614 Co594 2.194 . S
N614 C609 1.328 . S
N614 C613 1.315 . S
H615 C609 0.929 . S
H616 C613 0.930 . S
H617 C605 0.929 . S
H618 C607 0.929 . S
O619 Co594 2.351 . S
O619 C622 1.244 . S
O620 Co594 2.155 . S
O620 C622 1.240 . S
O621 Co594 2.096 . S
O621 C602 1.247 . S
C622 O619 1.244 . S
C622 O620 1.240 . S
H623 C597 0.931 . S
H624 C606 0.931 . S
H625 C610 0.929 . S
H626 C612 0.930 . S
Co627 N631 2.148 . S
Co627 N637 2.128 . S
Co627 N647 2.194 . S
Co627 O652 2.351 . S
Co627 O653 2.155 . S
Co627 O654 2.096 . S
C628 N631 1.301 . S
C628 N632 1.328 . S
C628 H633 0.930 . S
C629 C630 1.333 . S
C629 N631 1.317 . S
C629 H634 0.930 . S
C630 C629 1.333 . S
C630 N632 1.350 . S
C630 H656 0.931 . S
N631 Co627 2.148 . S
N631 C628 1.301 . S
N631 C629 1.317 . S
N632 C628 1.328 . S
N632 C630 1.350 . S
H633 C628 0.930 . S
H634 C629 0.930 . S
C635 O636 1.224 . S
C635 O654 1.247 . S
O636 C635 1.224 . S
N637 Co627 2.128 . S
N637 C638 1.355 . S
N637 C640 1.311 . S
C638 N637 1.355 . S
C638 C639 1.363 . S
C638 H650 0.929 . S
C639 C638 1.363 . S
C639 N641 1.375 . S
C639 H657 0.931 . S
C640 N637 1.311 . S
C640 N641 1.347 . S
C640 H651 0.929 . S
N641 C639 1.375 . S
N641 C640 1.347 . S
C642 C645 1.365 . S
C642 N647 1.328 . S
C642 H648 0.929 . S
C643 C644 1.362 . S
C643 C646 1.378 . S
C643 H658 0.929 . S
C644 C643 1.362 . S
C644 C645 1.366 . S
C645 C642 1.365 . S
C645 C644 1.366 . S
C645 H659 0.930 . S
C646 C643 1.378 . S
C646 N647 1.315 . S
C646 H649 0.930 . S
N647 Co627 2.194 . S
N647 C642 1.328 . S
N647 C646 1.315 . S
H648 C642 0.929 . S
H649 C646 0.930 . S
H650 C638 0.929 . S
H651 C640 0.929 . S
O652 Co627 2.351 . S
O652 C655 1.244 . S
O653 Co627 2.155 . S
O653 C655 1.240 . S
O654 Co627 2.096 . S
O654 C635 1.247 . S
C655 O652 1.244 . S
C655 O653 1.240 . S
H656 C630 0.931 . S
H657 C639 0.931 . S
H658 C643 0.929 . S
H659 C645 0.930 . S
Co660 N664 2.148 . S
Co660 N670 2.128 . S
Co660 N680 2.194 . S
Co660 O685 2.351 . S
Co660 O686 2.155 . S
Co660 O687 2.096 . S
C661 N664 1.301 . S
C661 N665 1.328 . S
C661 H666 0.930 . S
C662 C663 1.333 . S
C662 N664 1.317 . S
C662 H667 0.930 . S
C663 C662 1.333 . S
C663 N665 1.350 . S
C663 H689 0.931 . S
N664 Co660 2.148 . S
N664 C661 1.301 . S
N664 C662 1.317 . S
N665 C661 1.328 . S
N665 C663 1.350 . S
H666 C661 0.930 . S
H667 C662 0.930 . S
C668 O669 1.224 . S
C668 O687 1.247 . S
O669 C668 1.224 . S
N670 Co660 2.128 . S
N670 C671 1.355 . S
N670 C673 1.311 . S
C671 N670 1.355 . S
C671 C672 1.363 . S
C671 H683 0.929 . S
C672 C671 1.363 . S
C672 N674 1.375 . S
C672 H690 0.931 . S
C673 N670 1.311 . S
C673 N674 1.347 . S
C673 H684 0.929 . S
N674 C672 1.375 . S
N674 C673 1.347 . S
C675 C678 1.365 . S
C675 N680 1.328 . S
C675 H681 0.929 . S
C676 C677 1.362 . S
C676 C679 1.378 . S
C676 H691 0.929 . S
C677 C676 1.362 . S
C677 C678 1.366 . S
C678 C675 1.365 . S
C678 C677 1.366 . S
C678 H692 0.930 . S
C679 C676 1.378 . S
C679 N680 1.315 . S
C679 H682 0.930 . S
N680 Co660 2.194 . S
N680 C675 1.328 . S
N680 C679 1.315 . S
H681 C675 0.929 . S
H682 C679 0.930 . S
H683 C671 0.929 . S
H684 C673 0.929 . S
O685 Co660 2.351 . S
O685 C688 1.244 . S
O686 Co660 2.155 . S
O686 C688 1.240 . S
O687 Co660 2.096 . S
O687 C668 1.247 . S
C688 O685 1.244 . S
C688 O686 1.240 . S
H689 C663 0.931 . S
H690 C672 0.931 . S
H691 C676 0.929 . S
H692 C678 0.930 . S
Co693 N697 2.148 . S
Co693 N703 2.128 . S
Co693 N713 2.194 . S
Co693 O718 2.351 . S
Co693 O719 2.155 . S
Co693 O720 2.096 . S
C694 N697 1.301 . S
C694 N698 1.328 . S
C694 H699 0.930 . S
C695 C696 1.333 . S
C695 N697 1.317 . S
C695 H700 0.930 . S
C696 C695 1.333 . S
C696 N698 1.350 . S
C696 H722 0.931 . S
N697 Co693 2.148 . S
N697 C694 1.301 . S
N697 C695 1.317 . S
N698 C694 1.328 . S
N698 C696 1.350 . S
H699 C694 0.930 . S
H700 C695 0.930 . S
C701 O702 1.224 . S
C701 O720 1.247 . S
O702 C701 1.224 . S
N703 Co693 2.128 . S
N703 C704 1.355 . S
N703 C706 1.311 . S
C704 N703 1.355 . S
C704 C705 1.363 1_556 S
C704 H716 0.929 . S
C705 C704 1.363 1_554 S
C705 N707 1.375 1_554 S
C705 H723 0.931 . S
C706 N703 1.311 . S
C706 N707 1.347 . S
C706 H717 0.929 . S
N707 C705 1.375 1_556 S
N707 C706 1.347 . S
C708 C711 1.365 . S
C708 N713 1.328 . S
C708 H714 0.929 . S
C709 C710 1.362 . S
C709 C712 1.378 . S
C709 H724 0.929 . S
C710 C709 1.362 . S
C710 C711 1.366 . S
C711 C708 1.365 . S
C711 C710 1.366 . S
C711 H725 0.930 . S
C712 C709 1.378 . S
C712 N713 1.315 . S
C712 H715 0.930 . S
N713 Co693 2.194 . S
N713 C708 1.328 . S
N713 C712 1.315 . S
H714 C708 0.929 . S
H715 C712 0.930 . S
H716 C704 0.929 . S
H717 C706 0.929 . S
O718 Co693 2.351 . S
O718 C721 1.244 . S
O719 Co693 2.155 . S
O719 C721 1.240 . S
O720 Co693 2.096 . S
O720 C701 1.247 . S
C721 O718 1.244 . S
C721 O719 1.240 . S
H722 C696 0.931 . S
H723 C705 0.931 . S
H724 C709 0.929 . S
H725 C711 0.930 . S
Co726 N730 2.148 . S
Co726 N736 2.128 . S
Co726 N746 2.194 . S
Co726 O751 2.351 . S
Co726 O752 2.155 . S
Co726 O753 2.096 . S
C727 N730 1.301 . S
C727 N731 1.328 . S
C727 H732 0.930 . S
C728 C729 1.333 . S
C728 N730 1.317 . S
C728 H733 0.930 . S
C729 C728 1.333 . S
C729 N731 1.350 . S
C729 H755 0.931 . S
N730 Co726 2.148 . S
N730 C727 1.301 . S
N730 C728 1.317 . S
N731 C727 1.328 . S
N731 C729 1.350 . S
H732 C727 0.930 . S
H733 C728 0.930 . S
C734 O735 1.224 . S
C734 O753 1.247 . S
O735 C734 1.224 . S
N736 Co726 2.128 . S
N736 C737 1.355 . S
N736 C739 1.311 . S
C737 N736 1.355 . S
C737 C738 1.363 1_556 S
C737 H749 0.929 . S
C738 C737 1.363 1_554 S
C738 N740 1.375 1_554 S
C738 H756 0.931 . S
C739 N736 1.311 . S
C739 N740 1.347 . S
C739 H750 0.929 . S
N740 C738 1.375 1_556 S
N740 C739 1.347 . S
C741 C744 1.365 . S
C741 N746 1.328 . S
C741 H747 0.929 . S
C742 C743 1.362 . S
C742 C745 1.378 . S
C742 H757 0.929 . S
C743 C742 1.362 . S
C743 C744 1.366 . S
C744 C741 1.365 . S
C744 C743 1.366 . S
C744 H758 0.930 . S
C745 C742 1.378 . S
C745 N746 1.315 . S
C745 H748 0.930 . S
N746 Co726 2.194 . S
N746 C741 1.328 . S
N746 C745 1.315 . S
H747 C741 0.929 . S
H748 C745 0.930 . S
H749 C737 0.929 . S
H750 C739 0.929 . S
O751 Co726 2.351 . S
O751 C754 1.244 . S
O752 Co726 2.155 . S
O752 C754 1.240 . S
O753 Co726 2.096 . S
O753 C734 1.247 . S
C754 O751 1.244 . S
C754 O752 1.240 . S
H755 C729 0.931 . S
H756 C738 0.931 . S
H757 C742 0.929 . S
H758 C744 0.930 . S
Co759 N763 2.148 . S
Co759 N769 2.128 . S
Co759 N779 2.194 . S
Co759 O784 2.351 . S
Co759 O785 2.155 . S
Co759 O786 2.096 . S
C760 N763 1.301 . S
C760 N764 1.328 . S
C760 H765 0.930 . S
C761 C762 1.333 . S
C761 N763 1.317 . S
C761 H766 0.930 . S
C762 C761 1.333 . S
C762 N764 1.350 . S
C762 H788 0.931 . S
N763 Co759 2.148 . S
N763 C760 1.301 . S
N763 C761 1.317 . S
N764 C760 1.328 . S
N764 C762 1.350 . S
H765 C760 0.930 . S
H766 C761 0.930 . S
C767 O768 1.224 . S
C767 O786 1.247 . S
O768 C767 1.224 . S
N769 Co759 2.128 . S
N769 C770 1.355 . S
N769 C772 1.311 . S
C770 N769 1.355 . S
C770 C771 1.363 1_556 S
C770 H782 0.929 . S
C771 C770 1.363 1_554 S
C771 N773 1.375 1_554 S
C771 H789 0.931 . S
C772 N769 1.311 . S
C772 N773 1.347 . S
C772 H783 0.929 . S
N773 C771 1.375 1_556 S
N773 C772 1.347 . S
C774 C777 1.365 . S
C774 N779 1.328 . S
C774 H780 0.929 . S
C775 C776 1.362 . S
C775 C778 1.378 . S
C775 H790 0.929 . S
C776 C775 1.362 . S
C776 C777 1.366 . S
C777 C774 1.365 . S
C777 C776 1.366 . S
C777 H791 0.930 . S
C778 C775 1.378 . S
C778 N779 1.315 . S
C778 H781 0.930 . S
N779 Co759 2.194 . S
N779 C774 1.328 . S
N779 C778 1.315 . S
H780 C774 0.929 . S
H781 C778 0.930 . S
H782 C770 0.929 . S
H783 C772 0.929 . S
O784 Co759 2.351 . S
O784 C787 1.244 . S
O785 Co759 2.155 . S
O785 C787 1.240 . S
O786 Co759 2.096 . S
O786 C767 1.247 . S
C787 O784 1.244 . S
C787 O785 1.240 . S
H788 C762 0.931 . S
H789 C771 0.931 . S
H790 C775 0.929 . S
H791 C777 0.930 . S
Co792 N796 2.148 . S
Co792 N802 2.128 . S
Co792 N812 2.194 . S
Co792 O817 2.351 . S
Co792 O818 2.155 . S
Co792 O819 2.096 . S
C793 N796 1.301 . S
C793 N797 1.328 . S
C793 H798 0.930 . S
C794 C795 1.333 . S
C794 N796 1.317 . S
C794 H799 0.930 . S
C795 C794 1.333 . S
C795 N797 1.350 . S
C795 H821 0.931 . S
N796 Co792 2.148 . S
N796 C793 1.301 . S
N796 C794 1.317 . S
N797 C793 1.328 . S
N797 C795 1.350 . S
H798 C793 0.930 . S
H799 C794 0.930 . S
C800 O801 1.224 . S
C800 O819 1.247 . S
O801 C800 1.224 . S
N802 Co792 2.128 . S
N802 C803 1.355 . S
N802 C805 1.311 . S
C803 N802 1.355 . S
C803 C804 1.363 . S
C803 H815 0.929 . S
C804 C803 1.363 . S
C804 N806 1.375 . S
C804 H822 0.931 . S
C805 N802 1.311 . S
C805 N806 1.347 . S
C805 H816 0.929 . S
N806 C804 1.375 . S
N806 C805 1.347 . S
C807 C810 1.365 . S
C807 N812 1.328 . S
C807 H813 0.929 . S
C808 C809 1.362 . S
C808 C811 1.378 . S
C808 H823 0.929 . S
C809 C808 1.362 . S
C809 C810 1.366 . S
C810 C807 1.365 . S
C810 C809 1.366 . S
C810 H824 0.930 . S
C811 C808 1.378 . S
C811 N812 1.315 . S
C811 H814 0.930 . S
N812 Co792 2.194 . S
N812 C807 1.328 . S
N812 C811 1.315 . S
H813 C807 0.929 . S
H814 C811 0.930 . S
H815 C803 0.929 . S
H816 C805 0.929 . S
O817 Co792 2.351 . S
O817 C820 1.244 . S
O818 Co792 2.155 . S
O818 C820 1.240 . S
O819 Co792 2.096 . S
O819 C800 1.247 . S
C820 O817 1.244 . S
C820 O818 1.240 . S
H821 C795 0.931 . S
H822 C804 0.931 . S
H823 C808 0.929 . S
H824 C810 0.930 . S
Co825 N829 2.148 . S
Co825 N835 2.128 . S
Co825 N845 2.194 . S
Co825 O850 2.351 . S
Co825 O851 2.155 . S
Co825 O852 2.096 . S
C826 N829 1.301 . S
C826 N830 1.328 . S
C826 H831 0.930 . S
C827 C828 1.333 . S
C827 N829 1.317 . S
C827 H832 0.930 . S
C828 C827 1.333 . S
C828 N830 1.350 . S
C828 H854 0.931 . S
N829 Co825 2.148 . S
N829 C826 1.301 . S
N829 C827 1.317 . S
N830 C826 1.328 . S
N830 C828 1.350 . S
H831 C826 0.930 . S
H832 C827 0.930 . S
C833 O834 1.224 . S
C833 O852 1.247 . S
O834 C833 1.224 . S
N835 Co825 2.128 . S
N835 C836 1.355 . S
N835 C838 1.311 . S
C836 N835 1.355 . S
C836 C837 1.363 . S
C836 H848 0.929 . S
C837 C836 1.363 . S
C837 N839 1.375 . S
C837 H855 0.931 . S
C838 N835 1.311 . S
C838 N839 1.347 . S
C838 H849 0.929 . S
N839 C837 1.375 . S
N839 C838 1.347 . S
C840 C843 1.365 . S
C840 N845 1.328 . S
C840 H846 0.929 . S
C841 C842 1.362 . S
C841 C844 1.378 . S
C841 H856 0.929 . S
C842 C841 1.362 . S
C842 C843 1.366 . S
C843 C840 1.365 . S
C843 C842 1.366 . S
C843 H857 0.930 . S
C844 C841 1.378 . S
C844 N845 1.315 . S
C844 H847 0.930 . S
N845 Co825 2.194 . S
N845 C840 1.328 . S
N845 C844 1.315 . S
H846 C840 0.929 . S
H847 C844 0.930 . S
H848 C836 0.929 . S
H849 C838 0.929 . S
O850 Co825 2.351 . S
O850 C853 1.244 . S
O851 Co825 2.155 . S
O851 C853 1.240 . S
O852 Co825 2.096 . S
O852 C833 1.247 . S
C853 O850 1.244 . S
C853 O851 1.240 . S
H854 C828 0.931 . S
H855 C837 0.931 . S
H856 C841 0.929 . S
H857 C843 0.930 . S
Co858 N862 2.148 . S
Co858 N868 2.128 . S
Co858 N878 2.194 . S
Co858 O883 2.351 . S
Co858 O884 2.155 . S
Co858 O885 2.096 . S
C859 N862 1.301 . S
C859 N863 1.328 . S
C859 H864 0.930 . S
C860 C861 1.333 . S
C860 N862 1.317 . S
C860 H865 0.930 . S
C861 C860 1.333 . S
C861 N863 1.350 . S
C861 H887 0.931 . S
N862 Co858 2.148 . S
N862 C859 1.301 . S
N862 C860 1.317 . S
N863 C859 1.328 . S
N863 C861 1.350 . S
H864 C859 0.930 . S
H865 C860 0.930 . S
C866 O867 1.224 . S
C866 O885 1.247 . S
O867 C866 1.224 . S
N868 Co858 2.128 . S
N868 C869 1.355 . S
N868 C871 1.311 . S
C869 N868 1.355 . S
C869 C870 1.363 . S
C869 H881 0.929 . S
C870 C869 1.363 . S
C870 N872 1.375 . S
C870 H888 0.931 . S
C871 N868 1.311 . S
C871 N872 1.347 . S
C871 H882 0.929 . S
N872 C870 1.375 . S
N872 C871 1.347 . S
C873 C876 1.365 . S
C873 N878 1.328 . S
C873 H879 0.929 . S
C874 C875 1.362 . S
C874 C877 1.378 . S
C874 H889 0.929 . S
C875 C874 1.362 . S
C875 C876 1.366 . S
C876 C873 1.365 . S
C876 C875 1.366 . S
C876 H890 0.930 . S
C877 C874 1.378 . S
C877 N878 1.315 . S
C877 H880 0.930 . S
N878 Co858 2.194 . S
N878 C873 1.328 . S
N878 C877 1.315 . S
H879 C873 0.929 . S
H880 C877 0.930 . S
H881 C869 0.929 . S
H882 C871 0.929 . S
O883 Co858 2.351 . S
O883 C886 1.244 . S
O884 Co858 2.155 . S
O884 C886 1.240 . S
O885 Co858 2.096 . S
O885 C866 1.247 . S
C886 O883 1.244 . S
C886 O884 1.240 . S
H887 C861 0.931 . S
H888 C870 0.931 . S
H889 C874 0.929 . S
H890 C876 0.930 . S
Co891 N895 2.148 . S
Co891 N901 2.128 . S
Co891 N911 2.194 . S
Co891 O916 2.351 . S
Co891 O917 2.155 . S
Co891 O918 2.096 . S
C892 N895 1.301 . S
C892 N896 1.328 . S
C892 H897 0.930 . S
C893 C894 1.333 . S
C893 N895 1.317 . S
C893 H898 0.930 . S
C894 C893 1.333 . S
C894 N896 1.350 . S
C894 H920 0.931 . S
N895 Co891 2.148 . S
N895 C892 1.301 . S
N895 C893 1.317 . S
N896 C892 1.328 . S
N896 C894 1.350 . S
H897 C892 0.930 . S
H898 C893 0.930 . S
C899 O900 1.224 . S
C899 O918 1.247 . S
O900 C899 1.224 . S
N901 Co891 2.128 . S
N901 C902 1.355 . S
N901 C904 1.311 . S
C902 N901 1.355 . S
C902 C903 1.363 . S
C902 H914 0.929 . S
C903 C902 1.363 . S
C903 N905 1.375 . S
C903 H921 0.931 . S
C904 N901 1.311 . S
C904 N905 1.347 . S
C904 H915 0.929 . S
N905 C903 1.375 . S
N905 C904 1.347 . S
C906 C909 1.365 . S
C906 N911 1.328 . S
C906 H912 0.929 . S
C907 C908 1.362 . S
C907 C910 1.378 . S
C907 H922 0.929 . S
C908 C907 1.362 . S
C908 C909 1.366 . S
C909 C906 1.365 . S
C909 C908 1.366 . S
C909 H923 0.930 . S
C910 C907 1.378 . S
C910 N911 1.315 . S
C910 H913 0.930 . S
N911 Co891 2.194 . S
N911 C906 1.328 . S
N911 C910 1.315 . S
H912 C906 0.929 . S
H913 C910 0.930 . S
H914 C902 0.929 . S
H915 C904 0.929 . S
O916 Co891 2.351 . S
O916 C919 1.244 . S
O917 Co891 2.155 . S
O917 C919 1.240 . S
O918 Co891 2.096 . S
O918 C899 1.247 . S
C919 O916 1.244 . S
C919 O917 1.240 . S
H920 C894 0.931 . S
H921 C903 0.931 . S
H922 C907 0.929 . S
H923 C909 0.930 . S
Co924 N928 2.148 . S
Co924 N934 2.128 . S
Co924 N944 2.194 . S
Co924 O949 2.351 . S
Co924 O950 2.155 . S
Co924 O951 2.096 . S
C925 N928 1.301 . S
C925 N929 1.328 . S
C925 H930 0.930 . S
C926 C927 1.333 . S
C926 N928 1.317 . S
C926 H931 0.930 . S
C927 C926 1.333 . S
C927 N929 1.350 . S
C927 H953 0.931 . S
N928 Co924 2.148 . S
N928 C925 1.301 . S
N928 C926 1.317 . S
N929 C925 1.328 . S
N929 C927 1.350 . S
H930 C925 0.930 . S
H931 C926 0.930 . S
C932 O933 1.224 . S
C932 O951 1.247 . S
O933 C932 1.224 . S
N934 Co924 2.128 . S
N934 C935 1.355 . S
N934 C937 1.311 . S
C935 N934 1.355 . S
C935 C936 1.363 . S
C935 H947 0.929 . S
C936 C935 1.363 . S
C936 N938 1.375 . S
C936 H954 0.931 . S
C937 N934 1.311 . S
C937 N938 1.347 . S
C937 H948 0.929 . S
N938 C936 1.375 . S
N938 C937 1.347 . S
C939 C942 1.365 . S
C939 N944 1.328 . S
C939 H945 0.929 . S
C940 C941 1.362 . S
C940 C943 1.378 . S
C940 H955 0.929 . S
C941 C940 1.362 . S
C941 C942 1.366 . S
C942 C939 1.365 . S
C942 C941 1.366 . S
C942 H956 0.930 . S
C943 C940 1.378 . S
C943 N944 1.315 . S
C943 H946 0.930 . S
N944 Co924 2.194 . S
N944 C939 1.328 . S
N944 C943 1.315 . S
H945 C939 0.929 . S
H946 C943 0.930 . S
H947 C935 0.929 . S
H948 C937 0.929 . S
O949 Co924 2.351 . S
O949 C952 1.244 . S
O950 Co924 2.155 . S
O950 C952 1.240 . S
O951 Co924 2.096 . S
O951 C932 1.247 . S
C952 O949 1.244 . S
C952 O950 1.240 . S
H953 C927 0.931 . S
H954 C936 0.931 . S
H955 C940 0.929 . S
H956 C942 0.930 . S
Co957 N961 2.148 . S
Co957 N967 2.128 . S
Co957 N977 2.194 . S
Co957 O982 2.351 . S
Co957 O983 2.155 . S
Co957 O984 2.096 . S
C958 N961 1.301 . S
C958 N962 1.328 . S
C958 H963 0.930 . S
C959 C960 1.333 . S
C959 N961 1.317 . S
C959 H964 0.930 . S
C960 C959 1.333 . S
C960 N962 1.350 . S
C960 H986 0.931 . S
N961 Co957 2.148 . S
N961 C958 1.301 . S
N961 C959 1.317 . S
N962 C958 1.328 . S
N962 C960 1.350 . S
H963 C958 0.930 . S
H964 C959 0.930 . S
C965 O966 1.224 . S
C965 O984 1.247 . S
O966 C965 1.224 . S
N967 Co957 2.128 . S
N967 C968 1.355 . S
N967 C970 1.311 . S
C968 N967 1.355 . S
C968 C969 1.363 . S
C968 H980 0.929 . S
C969 C968 1.363 . S
C969 N971 1.375 . S
C969 H987 0.931 . S
C970 N967 1.311 . S
C970 N971 1.347 . S
C970 H981 0.929 . S
N971 C969 1.375 . S
N971 C970 1.347 . S
C972 C975 1.365 . S
C972 N977 1.328 . S
C972 H978 0.929 . S
C973 C974 1.362 . S
C973 C976 1.378 . S
C973 H988 0.929 . S
C974 C973 1.362 . S
C974 C975 1.366 . S
C975 C972 1.365 . S
C975 C974 1.366 . S
C975 H989 0.930 . S
C976 C973 1.378 . S
C976 N977 1.315 . S
C976 H979 0.930 . S
N977 Co957 2.194 . S
N977 C972 1.328 . S
N977 C976 1.315 . S
H978 C972 0.929 . S
H979 C976 0.930 . S
H980 C968 0.929 . S
H981 C970 0.929 . S
O982 Co957 2.351 . S
O982 C985 1.244 . S
O983 Co957 2.155 . S
O983 C985 1.240 . S
O984 Co957 2.096 . S
O984 C965 1.247 . S
C985 O982 1.244 . S
C985 O983 1.240 . S
H986 C960 0.931 . S
H987 C969 0.931 . S
H988 C973 0.929 . S
H989 C975 0.930 . S
Co990 N994 2.148 . S
Co990 N1000 2.128 . S
Co990 N1010 2.194 . S
Co990 O1015 2.351 . S
Co990 O1016 2.155 . S
Co990 O1017 2.096 . S
C991 N994 1.301 . S
C991 N995 1.328 . S
C991 H996 0.930 . S
C992 C993 1.333 . S
C992 N994 1.317 . S
C992 H997 0.930 . S
C993 C992 1.333 . S
C993 N995 1.350 . S
C993 H1019 0.931 1_556 S
N994 Co990 2.148 . S
N994 C991 1.301 . S
N994 C992 1.317 . S
N995 C991 1.328 . S
N995 C993 1.350 . S
H996 C991 0.930 . S
H997 C992 0.930 . S
C998 O999 1.224 . S
C998 O1017 1.247 . S
O999 C998 1.224 . S
N1000 Co990 2.128 . S
N1000 C1001 1.355 . S
N1000 C1003 1.311 . S
C1001 N1000 1.355 . S
C1001 C1002 1.363 . S
C1001 H1013 0.929 . S
C1002 C1001 1.363 . S
C1002 N1004 1.375 . S
C1002 H1020 0.931 . S
C1003 N1000 1.311 . S
C1003 N1004 1.347 . S
C1003 H1014 0.929 . S
N1004 C1002 1.375 . S
N1004 C1003 1.347 . S
C1005 C1008 1.365 . S
C1005 N1010 1.328 . S
C1005 H1011 0.929 . S
C1006 C1007 1.362 . S
C1006 C1009 1.378 . S
C1006 H1021 0.929 . S
C1007 C1006 1.362 . S
C1007 C1008 1.366 . S
C1008 C1005 1.365 . S
C1008 C1007 1.366 . S
C1008 H1022 0.930 . S
C1009 C1006 1.378 . S
C1009 N1010 1.315 . S
C1009 H1012 0.930 . S
N1010 Co990 2.194 . S
N1010 C1005 1.328 . S
N1010 C1009 1.315 . S
H1011 C1005 0.929 . S
H1012 C1009 0.930 . S
H1013 C1001 0.929 . S
H1014 C1003 0.929 . S
O1015 Co990 2.351 . S
O1015 C1018 1.244 . S
O1016 Co990 2.155 . S
O1016 C1018 1.240 . S
O1017 Co990 2.096 . S
O1017 C998 1.247 . S
C1018 O1015 1.244 . S
C1018 O1016 1.240 . S
H1019 C993 0.931 1_554 S
H1020 C1002 0.931 . S
H1021 C1006 0.929 . S
H1022 C1008 0.930 . S
Co1023 N1027 2.148 . S
Co1023 N1033 2.128 . S
Co1023 N1043 2.194 . S
Co1023 O1048 2.351 . S
Co1023 O1049 2.155 . S
Co1023 O1050 2.096 . S
C1024 N1027 1.301 . S
C1024 N1028 1.328 . S
C1024 H1029 0.930 . S
C1025 C1026 1.333 . S
C1025 N1027 1.317 . S
C1025 H1030 0.930 . S
C1026 C1025 1.333 . S
C1026 N1028 1.350 . S
C1026 H1052 0.931 1_556 S
N1027 Co1023 2.148 . S
N1027 C1024 1.301 . S
N1027 C1025 1.317 . S
N1028 C1024 1.328 . S
N1028 C1026 1.350 . S
H1029 C1024 0.930 . S
H1030 C1025 0.930 . S
C1031 O1032 1.224 . S
C1031 O1050 1.247 . S
O1032 C1031 1.224 . S
N1033 Co1023 2.128 . S
N1033 C1034 1.355 . S
N1033 C1036 1.311 . S
C1034 N1033 1.355 . S
C1034 C1035 1.363 . S
C1034 H1046 0.929 . S
C1035 C1034 1.363 . S
C1035 N1037 1.375 . S
C1035 H1053 0.931 . S
C1036 N1033 1.311 . S
C1036 N1037 1.347 . S
C1036 H1047 0.929 . S
N1037 C1035 1.375 . S
N1037 C1036 1.347 . S
C1038 C1041 1.365 . S
C1038 N1043 1.328 . S
C1038 H1044 0.929 . S
C1039 C1040 1.362 . S
C1039 C1042 1.378 . S
C1039 H1054 0.929 . S
C1040 C1039 1.362 . S
C1040 C1041 1.366 . S
C1041 C1038 1.365 . S
C1041 C1040 1.366 . S
C1041 H1055 0.930 . S
C1042 C1039 1.378 . S
C1042 N1043 1.315 . S
C1042 H1045 0.930 . S
N1043 Co1023 2.194 . S
N1043 C1038 1.328 . S
N1043 C1042 1.315 . S
H1044 C1038 0.929 . S
H1045 C1042 0.930 . S
H1046 C1034 0.929 . S
H1047 C1036 0.929 . S
O1048 Co1023 2.351 . S
O1048 C1051 1.244 . S
O1049 Co1023 2.155 . S
O1049 C1051 1.240 . S
O1050 Co1023 2.096 . S
O1050 C1031 1.247 . S
C1051 O1048 1.244 . S
C1051 O1049 1.240 . S
H1052 C1026 0.931 1_554 S
H1053 C1035 0.931 . S
H1054 C1039 0.929 . S
H1055 C1041 0.930 . S
Co1056 N1060 2.148 . S
Co1056 N1066 2.128 . S
Co1056 N1076 2.194 . S
Co1056 O1081 2.351 . S
Co1056 O1082 2.155 . S
Co1056 O1083 2.096 . S
C1057 N1060 1.301 . S
C1057 N1061 1.328 . S
C1057 H1062 0.930 . S
C1058 C1059 1.333 . S
C1058 N1060 1.317 . S
C1058 H1063 0.930 . S
C1059 C1058 1.333 . S
C1059 N1061 1.350 . S
C1059 H1085 0.931 1_556 S
N1060 Co1056 2.148 . S
N1060 C1057 1.301 . S
N1060 C1058 1.317 . S
N1061 C1057 1.328 . S
N1061 C1059 1.350 . S
H1062 C1057 0.930 . S
H1063 C1058 0.930 . S
C1064 O1065 1.224 . S
C1064 O1083 1.247 . S
O1065 C1064 1.224 . S
N1066 Co1056 2.128 . S
N1066 C1067 1.355 . S
N1066 C1069 1.311 . S
C1067 N1066 1.355 . S
C1067 C1068 1.363 . S
C1067 H1079 0.929 . S
C1068 C1067 1.363 . S
C1068 N1070 1.375 . S
C1068 H1086 0.931 . S
C1069 N1066 1.311 . S
C1069 N1070 1.347 . S
C1069 H1080 0.929 . S
N1070 C1068 1.375 . S
N1070 C1069 1.347 . S
C1071 C1074 1.365 . S
C1071 N1076 1.328 . S
C1071 H1077 0.929 . S
C1072 C1073 1.362 . S
C1072 C1075 1.378 . S
C1072 H1087 0.929 . S
C1073 C1072 1.362 . S
C1073 C1074 1.366 . S
C1074 C1071 1.365 . S
C1074 C1073 1.366 . S
C1074 H1088 0.930 . S
C1075 C1072 1.378 . S
C1075 N1076 1.315 . S
C1075 H1078 0.930 . S
N1076 Co1056 2.194 . S
N1076 C1071 1.328 . S
N1076 C1075 1.315 . S
H1077 C1071 0.929 . S
H1078 C1075 0.930 . S
H1079 C1067 0.929 . S
H1080 C1069 0.929 . S
O1081 Co1056 2.351 . S
O1081 C1084 1.244 . S
O1082 Co1056 2.155 . S
O1082 C1084 1.240 . S
O1083 Co1056 2.096 . S
O1083 C1064 1.247 . S
C1084 O1081 1.244 . S
C1084 O1082 1.240 . S
H1085 C1059 0.931 1_554 S
H1086 C1068 0.931 . S
H1087 C1072 0.929 . S
H1088 C1074 0.930 . S
Co1089 N1093 2.148 . S
Co1089 N1099 2.128 . S
Co1089 N1109 2.194 . S
Co1089 O1114 2.351 . S
Co1089 O1115 2.155 . S
Co1089 O1116 2.096 . S
C1090 N1093 1.301 . S
C1090 N1094 1.328 . S
C1090 H1095 0.930 . S
C1091 C1092 1.333 1_554 S
C1091 N1093 1.317 . S
C1091 H1096 0.930 . S
C1092 C1091 1.333 1_556 S
C1092 N1094 1.350 1_556 S
C1092 H1118 0.931 . S
N1093 Co1089 2.148 . S
N1093 C1090 1.301 . S
N1093 C1091 1.317 . S
N1094 C1090 1.328 . S
N1094 C1092 1.350 1_554 S
H1095 C1090 0.930 . S
H1096 C1091 0.930 . S
C1097 O1098 1.224 . S
C1097 O1116 1.247 . S
O1098 C1097 1.224 . S
N1099 Co1089 2.128 . S
N1099 C1100 1.355 . S
N1099 C1102 1.311 . S
C1100 N1099 1.355 . S
C1100 C1101 1.363 . S
C1100 H1112 0.929 . S
C1101 C1100 1.363 . S
C1101 N1103 1.375 . S
C1101 H1119 0.931 . S
C1102 N1099 1.311 . S
C1102 N1103 1.347 . S
C1102 H1113 0.929 . S
N1103 C1101 1.375 . S
N1103 C1102 1.347 . S
C1104 C1107 1.365 . S
C1104 N1109 1.328 . S
C1104 H1110 0.929 . S
C1105 C1106 1.362 . S
C1105 C1108 1.378 . S
C1105 H1120 0.929 . S
C1106 C1105 1.362 . S
C1106 C1107 1.366 . S
C1107 C1104 1.365 . S
C1107 C1106 1.366 . S
C1107 H1121 0.930 . S
C1108 C1105 1.378 . S
C1108 N1109 1.315 . S
C1108 H1111 0.930 . S
N1109 Co1089 2.194 . S
N1109 C1104 1.328 . S
N1109 C1108 1.315 . S
H1110 C1104 0.929 . S
H1111 C1108 0.930 . S
H1112 C1100 0.929 . S
H1113 C1102 0.929 . S
O1114 Co1089 2.351 . S
O1114 C1117 1.244 . S
O1115 Co1089 2.155 . S
O1115 C1117 1.240 . S
O1116 Co1089 2.096 . S
O1116 C1097 1.247 . S
C1117 O1114 1.244 . S
C1117 O1115 1.240 . S
H1118 C1092 0.931 . S
H1119 C1101 0.931 . S
H1120 C1105 0.929 . S
H1121 C1107 0.930 . S
Co1122 N1126 2.148 . S
Co1122 N1132 2.128 . S
Co1122 N1142 2.194 . S
Co1122 O1147 2.351 . S
Co1122 O1148 2.155 . S
Co1122 O1149 2.096 . S
C1123 N1126 1.301 . S
C1123 N1127 1.328 . S
C1123 H1128 0.930 . S
C1124 C1125 1.333 1_554 S
C1124 N1126 1.317 . S
C1124 H1129 0.930 . S
C1125 C1124 1.333 1_556 S
C1125 N1127 1.350 1_556 S
C1125 H1151 0.931 . S
N1126 Co1122 2.148 . S
N1126 C1123 1.301 . S
N1126 C1124 1.317 . S
N1127 C1123 1.328 . S
N1127 C1125 1.350 1_554 S
H1128 C1123 0.930 . S
H1129 C1124 0.930 . S
C1130 O1131 1.224 . S
C1130 O1149 1.247 . S
O1131 C1130 1.224 . S
N1132 Co1122 2.128 . S
N1132 C1133 1.355 . S
N1132 C1135 1.311 . S
C1133 N1132 1.355 . S
C1133 C1134 1.363 . S
C1133 H1145 0.929 . S
C1134 C1133 1.363 . S
C1134 N1136 1.375 . S
C1134 H1152 0.931 . S
C1135 N1132 1.311 . S
C1135 N1136 1.347 . S
C1135 H1146 0.929 . S
N1136 C1134 1.375 . S
N1136 C1135 1.347 . S
C1137 C1140 1.365 . S
C1137 N1142 1.328 . S
C1137 H1143 0.929 . S
C1138 C1139 1.362 . S
C1138 C1141 1.378 . S
C1138 H1153 0.929 . S
C1139 C1138 1.362 . S
C1139 C1140 1.366 . S
C1140 C1137 1.365 . S
C1140 C1139 1.366 . S
C1140 H1154 0.930 . S
C1141 C1138 1.378 . S
C1141 N1142 1.315 . S
C1141 H1144 0.930 . S
N1142 Co1122 2.194 . S
N1142 C1137 1.328 . S
N1142 C1141 1.315 . S
H1143 C1137 0.929 . S
H1144 C1141 0.930 . S
H1145 C1133 0.929 . S
H1146 C1135 0.929 . S
O1147 Co1122 2.351 . S
O1147 C1150 1.244 . S
O1148 Co1122 2.155 . S
O1148 C1150 1.240 . S
O1149 Co1122 2.096 . S
O1149 C1130 1.247 . S
C1150 O1147 1.244 . S
C1150 O1148 1.240 . S
H1151 C1125 0.931 . S
H1152 C1134 0.931 . S
H1153 C1138 0.929 . S
H1154 C1140 0.930 . S
Co1155 N1159 2.148 . S
Co1155 N1165 2.128 . S
Co1155 N1175 2.194 . S
Co1155 O1180 2.351 . S
Co1155 O1181 2.155 . S
Co1155 O1182 2.096 . S
C1156 N1159 1.301 . S
C1156 N1160 1.328 . S
C1156 H1161 0.930 . S
C1157 C1158 1.333 1_554 S
C1157 N1159 1.317 . S
C1157 H1162 0.930 . S
C1158 C1157 1.333 1_556 S
C1158 N1160 1.350 1_556 S
C1158 H1184 0.931 . S
N1159 Co1155 2.148 . S
N1159 C1156 1.301 . S
N1159 C1157 1.317 . S
N1160 C1156 1.328 . S
N1160 C1158 1.350 1_554 S
H1161 C1156 0.930 . S
H1162 C1157 0.930 . S
C1163 O1164 1.224 . S
C1163 O1182 1.247 . S
O1164 C1163 1.224 . S
N1165 Co1155 2.128 . S
N1165 C1166 1.355 . S
N1165 C1168 1.311 . S
C1166 N1165 1.355 . S
C1166 C1167 1.363 . S
C1166 H1178 0.929 . S
C1167 C1166 1.363 . S
C1167 N1169 1.375 . S
C1167 H1185 0.931 . S
C1168 N1165 1.311 . S
C1168 N1169 1.347 . S
C1168 H1179 0.929 . S
N1169 C1167 1.375 . S
N1169 C1168 1.347 . S
C1170 C1173 1.365 . S
C1170 N1175 1.328 . S
C1170 H1176 0.929 . S
C1171 C1172 1.362 . S
C1171 C1174 1.378 . S
C1171 H1186 0.929 . S
C1172 C1171 1.362 . S
C1172 C1173 1.366 . S
C1173 C1170 1.365 . S
C1173 C1172 1.366 . S
C1173 H1187 0.930 . S
C1174 C1171 1.378 . S
C1174 N1175 1.315 . S
C1174 H1177 0.930 . S
N1175 Co1155 2.194 . S
N1175 C1170 1.328 . S
N1175 C1174 1.315 . S
H1176 C1170 0.929 . S
H1177 C1174 0.930 . S
H1178 C1166 0.929 . S
H1179 C1168 0.929 . S
O1180 Co1155 2.351 . S
O1180 C1183 1.244 . S
O1181 Co1155 2.155 . S
O1181 C1183 1.240 . S
O1182 Co1155 2.096 . S
O1182 C1163 1.247 . S
C1183 O1180 1.244 . S
C1183 O1181 1.240 . S
H1184 C1158 0.931 . S
H1185 C1167 0.931 . S
H1186 C1171 0.929 . S
H1187 C1173 0.930 . S
H1188 C1194 0.930 . S
H1189 C1198 0.930 . S
H1190 C1203 0.929 . S
H1191 C1201 0.929 . S
H1192 C1196 0.929 . S
H1193 C1202 0.929 . S
C1194 H1188 0.930 . S
C1194 C1195 1.367 . S
C1194 C1202 1.378 . S
C1195 C1194 1.367 . S
C1195 C1203 1.433 . S
C1196 H1192 0.929 . S
C1196 C1198 1.378 . S
C1196 C1200 1.350 . S
C1197 C1200 1.463 . S
C1197 C1202 1.350 . S
C1197 N1205 1.427 . S
C1198 H1189 0.930 . S
C1198 C1196 1.378 . S
C1198 C1199 1.367 . S
C1199 C1198 1.367 . S
C1199 C1201 1.433 . S
C1200 C1196 1.350 . S
C1200 C1197 1.463 . S
C1200 N1204 1.427 . S
C1201 H1191 0.929 . S
C1201 C1199 1.433 . S
C1201 N1204 1.384 . S
C1202 H1193 0.929 . S
C1202 C1194 1.378 . S
C1202 C1197 1.350 . S
C1203 H1190 0.929 . S
C1203 C1195 1.433 . S
C1203 N1205 1.384 . S
N1204 C1200 1.427 . S
N1204 C1201 1.384 . S
N1205 C1197 1.427 . S
N1205 C1203 1.384 . S
H1206 C1212 0.930 . S
H1207 C1216 0.930 . S
H1208 C1221 0.929 . S
H1209 C1219 0.929 . S
H1210 C1214 0.929 . S
H1211 C1220 0.929 . S
C1212 H1206 0.930 . S
C1212 C1213 1.367 . S
C1212 C1220 1.378 . S
C1213 C1212 1.367 . S
C1213 C1221 1.433 . S
C1214 H1210 0.929 . S
C1214 C1216 1.378 . S
C1214 C1218 1.350 . S
C1215 C1218 1.463 . S
C1215 C1220 1.350 . S
C1215 N1223 1.427 . S
C1216 H1207 0.930 . S
C1216 C1214 1.378 . S
C1216 C1217 1.367 . S
C1217 C1216 1.367 . S
C1217 C1219 1.433 . S
C1218 C1214 1.350 . S
C1218 C1215 1.463 . S
C1218 N1222 1.427 . S
C1219 H1209 0.929 . S
C1219 C1217 1.433 . S
C1219 N1222 1.384 . S
C1220 H1211 0.929 . S
C1220 C1212 1.378 . S
C1220 C1215 1.350 . S
C1221 H1208 0.929 . S
C1221 C1213 1.433 . S
C1221 N1223 1.384 . S
N1222 C1218 1.427 . S
N1222 C1219 1.384 . S
N1223 C1215 1.427 . S
N1223 C1221 1.384 . S
H1224 C1230 0.930 . S
H1225 C1234 0.930 . S
H1226 C1239 0.929 . S
H1227 C1237 0.929 . S
H1228 C1232 0.929 . S
H1229 C1238 0.929 . S
C1230 H1224 0.930 . S
C1230 C1231 1.367 . S
C1230 C1238 1.378 . S
C1231 C1230 1.367 . S
C1231 C1239 1.433 . S
C1232 H1228 0.929 . S
C1232 C1234 1.378 . S
C1232 C1236 1.350 . S
C1233 C1236 1.463 . S
C1233 C1238 1.350 . S
C1233 N1241 1.427 . S
C1234 H1225 0.930 . S
C1234 C1232 1.378 . S
C1234 C1235 1.367 . S
C1235 C1234 1.367 . S
C1235 C1237 1.433 . S
C1236 C1232 1.350 . S
C1236 C1233 1.463 . S
C1236 N1240 1.427 . S
C1237 H1227 0.929 . S
C1237 C1235 1.433 . S
C1237 N1240 1.384 . S
C1238 H1229 0.929 . S
C1238 C1230 1.378 . S
C1238 C1233 1.350 . S
C1239 H1226 0.929 . S
C1239 C1231 1.433 . S
C1239 N1241 1.384 . S
N1240 C1236 1.427 . S
N1240 C1237 1.384 . S
N1241 C1233 1.427 . S
N1241 C1239 1.384 . S
H1242 C1248 0.930 . S
H1243 C1252 0.930 . S
H1244 C1257 0.929 . S
H1245 C1255 0.929 . S
H1246 C1250 0.929 . S
H1247 C1256 0.929 . S
C1248 H1242 0.930 . S
C1248 C1249 1.367 . S
C1248 C1256 1.378 . S
C1249 C1248 1.367 . S
C1249 C1257 1.433 1_554 S
C1250 H1246 0.929 . S
C1250 C1252 1.378 . S
C1250 C1254 1.350 . S
C1251 C1254 1.463 . S
C1251 C1256 1.350 1_556 S
C1251 N1259 1.427 . S
C1252 H1243 0.930 . S
C1252 C1250 1.378 . S
C1252 C1253 1.367 . S
C1253 C1252 1.367 . S
C1253 C1255 1.433 . S
C1254 C1250 1.350 . S
C1254 C1251 1.463 . S
C1254 N1258 1.427 . S
C1255 H1245 0.929 . S
C1255 C1253 1.433 . S
C1255 N1258 1.384 . S
C1256 H1247 0.929 . S
C1256 C1248 1.378 . S
C1256 C1251 1.350 1_554 S
C1257 H1244 0.929 . S
C1257 C1249 1.433 1_556 S
C1257 N1259 1.384 . S
N1258 C1254 1.427 . S
N1258 C1255 1.384 . S
N1259 C1251 1.427 . S
N1259 C1257 1.384 . S
H1260 C1266 0.930 . S
H1261 C1270 0.930 . S
H1262 C1275 0.929 . S
H1263 C1273 0.929 . S
H1264 C1268 0.929 . S
H1265 C1274 0.929 . S
C1266 H1260 0.930 . S
C1266 C1267 1.367 . S
C1266 C1274 1.378 1_554 S
C1267 C1266 1.367 . S
C1267 C1275 1.433 . S
C1268 H1264 0.929 . S
C1268 C1270 1.378 . S
C1268 C1272 1.350 . S
C1269 C1272 1.463 . S
C1269 C1274 1.350 . S
C1269 N1277 1.427 . S
C1270 H1261 0.930 . S
C1270 C1268 1.378 . S
C1270 C1271 1.367 . S
C1271 C1270 1.367 . S
C1271 C1273 1.433 . S
C1272 C1268 1.350 . S
C1272 C1269 1.463 . S
C1272 N1276 1.427 . S
C1273 H1263 0.929 . S
C1273 C1271 1.433 . S
C1273 N1276 1.384 . S
C1274 H1265 0.929 . S
C1274 C1266 1.378 1_556 S
C1274 C1269 1.350 . S
C1275 H1262 0.929 . S
C1275 C1267 1.433 . S
C1275 N1277 1.384 1_554 S
N1276 C1272 1.427 . S
N1276 C1273 1.384 . S
N1277 C1269 1.427 . S
N1277 C1275 1.384 1_556 S
H1278 C1284 0.931 . S
H1279 C1288 0.930 . S
H1280 C1293 0.929 . S
H1281 C1291 0.929 . S
H1282 C1286 0.929 . S
H1283 C1292 0.929 . S
C1284 H1278 0.931 . S
C1284 C1285 1.373 . S
C1284 C1292 1.371 1_554 S
C1285 C1284 1.373 . S
C1285 C1293 1.433 . S
C1286 H1282 0.929 . S
C1286 C1288 1.378 . S
C1286 C1290 1.350 . S
C1287 C1290 1.463 . S
C1287 C1292 1.350 . S
C1287 N1295 1.427 . S
C1288 H1279 0.930 . S
C1288 C1286 1.378 . S
C1288 C1289 1.367 . S
C1289 C1288 1.367 . S
C1289 C1291 1.433 . S
C1290 C1286 1.350 . S
C1290 C1287 1.463 . S
C1290 N1294 1.427 . S
C1291 H1281 0.929 . S
C1291 C1289 1.433 . S
C1291 N1294 1.384 . S
C1292 H1283 0.929 . S
C1292 C1284 1.371 1_556 S
C1292 C1287 1.350 . S
C1293 H1280 0.929 . S
C1293 C1285 1.433 . S
C1293 N1295 1.384 1_554 S
N1294 C1290 1.427 . S
N1294 C1291 1.384 . S
N1295 C1287 1.427 . S
N1295 C1293 1.384 1_556 S
H1296 C1302 0.930 . S
H1297 C1306 0.930 . S
H1298 C1311 0.929 . S
H1299 C1309 0.929 . S
H1300 C1304 0.929 . S
H1301 C1310 0.929 . S
C1302 H1296 0.930 . S
C1302 C1303 1.367 . S
C1302 C1310 1.378 . S
C1303 C1302 1.367 . S
C1303 C1311 1.433 . S
C1304 H1300 0.929 . S
C1304 C1306 1.378 . S
C1304 C1308 1.350 . S
C1305 C1308 1.463 . S
C1305 C1310 1.350 . S
C1305 N1313 1.427 . S
C1306 H1297 0.930 . S
C1306 C1304 1.378 . S
C1306 C1307 1.367 . S
C1307 C1306 1.367 . S
C1307 C1309 1.433 . S
C1308 C1304 1.350 . S
C1308 C1305 1.463 . S
C1308 N1312 1.427 . S
C1309 H1299 0.929 . S
C1309 C1307 1.433 . S
C1309 N1312 1.384 . S
C1310 H1301 0.929 . S
C1310 C1302 1.378 . S
C1310 C1305 1.350 . S
C1311 H1298 0.929 . S
C1311 C1303 1.433 . S
C1311 N1313 1.384 . S
N1312 C1308 1.427 . S
N1312 C1309 1.384 . S
N1313 C1305 1.427 . S
N1313 C1311 1.384 . S
H1314 C1320 0.930 . S
H1315 C1324 0.930 . S
H1316 C1329 0.929 . S
H1317 C1327 0.929 . S
H1318 C1322 0.929 . S
H1319 C1328 0.929 . S
C1320 H1314 0.930 . S
C1320 C1321 1.367 . S
C1320 C1328 1.378 . S
C1321 C1320 1.367 . S
C1321 C1329 1.433 . S
C1322 H1318 0.929 . S
C1322 C1324 1.378 . S
C1322 C1326 1.350 . S
C1323 C1326 1.463 . S
C1323 C1328 1.350 . S
C1323 N1331 1.427 . S
C1324 H1315 0.930 . S
C1324 C1322 1.378 . S
C1324 C1325 1.367 . S
C1325 C1324 1.367 . S
C1325 C1327 1.433 . S
C1326 C1322 1.350 . S
C1326 C1323 1.463 . S
C1326 N1330 1.427 . S
C1327 H1317 0.929 . S
C1327 C1325 1.433 . S
C1327 N1330 1.384 . S
C1328 H1319 0.929 . S
C1328 C1320 1.378 . S
C1328 C1323 1.350 . S
C1329 H1316 0.929 . S
C1329 C1321 1.433 . S
C1329 N1331 1.384 . S
N1330 C1326 1.427 . S
N1330 C1327 1.384 . S
N1331 C1323 1.427 . S
N1331 C1329 1.384 . S
H1332 C1338 0.930 . S
H1333 C1342 0.930 . S
H1334 C1347 0.929 . S
H1335 C1345 0.929 . S
H1336 C1340 0.929 . S
H1337 C1346 0.929 . S
C1338 H1332 0.930 . S
C1338 C1339 1.367 . S
C1338 C1346 1.378 . S
C1339 C1338 1.367 . S
C1339 C1347 1.433 . S
C1340 H1336 0.929 . S
C1340 C1342 1.378 . S
C1340 C1344 1.350 . S
C1341 C1344 1.463 . S
C1341 C1346 1.350 . S
C1341 N1349 1.427 . S
C1342 H1333 0.930 . S
C1342 C1340 1.378 . S
C1342 C1343 1.367 . S
C1343 C1342 1.367 . S
C1343 C1345 1.433 . S
C1344 C1340 1.350 . S
C1344 C1341 1.463 . S
C1344 N1348 1.427 . S
C1345 H1335 0.929 . S
C1345 C1343 1.433 . S
C1345 N1348 1.384 . S
C1346 H1337 0.929 . S
C1346 C1338 1.378 . S
C1346 C1341 1.350 . S
C1347 H1334 0.929 . S
C1347 C1339 1.433 . S
C1347 N1349 1.384 . S
N1348 C1344 1.427 . S
N1348 C1345 1.384 . S
N1349 C1341 1.427 . S
N1349 C1347 1.384 . S
H1350 C1356 0.930 . S
H1351 C1360 0.930 . S
H1352 C1365 0.929 . S
H1353 C1363 0.929 . S
H1354 C1358 0.929 . S
H1355 C1364 0.929 . S
C1356 H1350 0.930 . S
C1356 C1357 1.367 . S
C1356 C1364 1.378 . S
C1357 C1356 1.367 . S
C1357 C1365 1.433 . S
C1358 H1354 0.929 . S
C1358 C1360 1.378 . S
C1358 C1362 1.350 . S
C1359 C1362 1.463 . S
C1359 C1364 1.350 . S
C1359 N1367 1.427 . S
C1360 H1351 0.930 . S
C1360 C1358 1.378 . S
C1360 C1361 1.367 . S
C1361 C1360 1.367 . S
C1361 C1363 1.433 . S
C1362 C1358 1.350 . S
C1362 C1359 1.463 . S
C1362 N1366 1.427 . S
C1363 H1353 0.929 . S
C1363 C1361 1.433 . S
C1363 N1366 1.384 . S
C1364 H1355 0.929 . S
C1364 C1356 1.378 . S
C1364 C1359 1.350 . S
C1365 H1352 0.929 . S
C1365 C1357 1.433 . S
C1365 N1367 1.384 . S
N1366 C1362 1.427 . S
N1366 C1363 1.384 . S
N1367 C1359 1.427 . S
N1367 C1365 1.384 . S
H1368 C1374 0.930 . S
H1369 C1378 0.930 . S
H1370 C1383 0.929 . S
H1371 C1381 0.929 . S
H1372 C1376 0.929 . S
H1373 C1382 0.929 . S
C1374 H1368 0.930 . S
C1374 C1375 1.367 . S
C1374 C1382 1.378 . S
C1375 C1374 1.367 . S
C1375 C1383 1.433 . S
C1376 H1372 0.929 . S
C1376 C1378 1.378 . S
C1376 C1380 1.350 . S
C1377 C1380 1.463 . S
C1377 C1382 1.350 . S
C1377 N1385 1.427 . S
C1378 H1369 0.930 . S
C1378 C1376 1.378 . S
C1378 C1379 1.367 . S
C1379 C1378 1.367 . S
C1379 C1381 1.433 . S
C1380 C1376 1.350 . S
C1380 C1377 1.463 . S
C1380 N1384 1.427 . S
C1381 H1371 0.929 . S
C1381 C1379 1.433 . S
C1381 N1384 1.384 . S
C1382 H1373 0.929 . S
C1382 C1374 1.378 . S
C1382 C1377 1.350 . S
C1383 H1370 0.929 . S
C1383 C1375 1.433 . S
C1383 N1385 1.384 . S
N1384 C1380 1.427 . S
N1384 C1381 1.384 . S
N1385 C1377 1.427 . S
N1385 C1383 1.384 . S
H1386 C1392 0.930 . S
H1387 C1396 0.930 . S
H1388 C1401 0.929 . S
H1389 C1399 0.929 . S
H1390 C1394 0.929 . S
H1391 C1400 0.929 . S
C1392 H1386 0.930 . S
C1392 C1393 1.367 . S
C1392 C1400 1.378 . S
C1393 C1392 1.367 . S
C1393 C1401 1.433 . S
C1394 H1390 0.929 . S
C1394 C1396 1.378 . S
C1394 C1398 1.350 . S
C1395 C1398 1.463 . S
C1395 C1400 1.350 . S
C1395 N1403 1.427 . S
C1396 H1387 0.930 . S
C1396 C1394 1.378 . S
C1396 C1397 1.367 . S
C1397 C1396 1.367 . S
C1397 C1399 1.433 . S
C1398 C1394 1.350 . S
C1398 C1395 1.463 . S
C1398 N1402 1.427 . S
C1399 H1389 0.929 . S
C1399 C1397 1.433 . S
C1399 N1402 1.384 . S
C1400 H1391 0.929 . S
C1400 C1392 1.378 . S
C1400 C1395 1.350 . S
C1401 H1388 0.929 . S
C1401 C1393 1.433 . S
C1401 N1403 1.384 . S
N1402 C1398 1.427 . S
N1402 C1399 1.384 . S
N1403 C1395 1.427 . S
N1403 C1401 1.384 . S
H1404 C1410 0.930 . S
H1405 C1414 0.930 . S
H1406 C1419 0.929 1_554 S
H1407 C1417 0.929 . S
H1408 C1412 0.929 . S
H1409 C1418 0.929 . S
C1410 H1404 0.930 . S
C1410 C1411 1.367 . S
C1410 C1418 1.378 . S
C1411 C1410 1.367 . S
C1411 C1419 1.433 . S
C1412 H1408 0.929 . S
C1412 C1414 1.378 . S
C1412 C1416 1.350 . S
C1413 C1416 1.463 . S
C1413 C1418 1.350 1_554 S
C1413 N1421 1.427 . S
C1414 H1405 0.930 . S
C1414 C1412 1.378 . S
C1414 C1415 1.367 . S
C1415 C1414 1.367 . S
C1415 C1417 1.433 . S
C1416 C1412 1.350 . S
C1416 C1413 1.463 . S
C1416 N1420 1.427 . S
C1417 H1407 0.929 . S
C1417 C1415 1.433 . S
C1417 N1420 1.384 . S
C1418 H1409 0.929 . S
C1418 C1410 1.378 . S
C1418 C1413 1.350 1_556 S
C1419 H1406 0.929 1_556 S
C1419 C1411 1.433 . S
C1419 N1421 1.384 1_556 S
N1420 C1416 1.427 . S
N1420 C1417 1.384 . S
N1421 C1413 1.427 . S
N1421 C1419 1.384 1_554 S
H1422 C1428 0.930 . S
H1423 C1432 0.930 . S
H1424 C1437 0.929 . S
H1425 C1435 0.929 . S
H1426 C1430 0.929 . S
H1427 C1436 0.929 1_556 S
C1428 H1422 0.930 . S
C1428 C1429 1.367 . S
C1428 C1436 1.378 . S
C1429 C1428 1.367 . S
C1429 C1437 1.433 . S
C1430 H1426 0.929 . S
C1430 C1432 1.378 . S
C1430 C1434 1.350 . S
C1431 C1434 1.463 . S
C1431 C1436 1.350 . S
C1431 N1439 1.427 . S
C1432 H1423 0.930 . S
C1432 C1430 1.378 . S
C1432 C1433 1.367 1_554 S
C1433 C1432 1.367 1_556 S
C1433 C1435 1.433 . S
C1434 C1430 1.350 . S
C1434 C1431 1.463 . S
C1434 N1438 1.427 1_554 S
C1435 H1425 0.929 . S
C1435 C1433 1.433 . S
C1435 N1438 1.384 . S
C1436 H1427 0.929 1_554 S
C1436 C1428 1.378 . S
C1436 C1431 1.350 . S
C1437 H1424 0.929 . S
C1437 C1429 1.433 . S
C1437 N1439 1.384 . S
N1438 C1434 1.427 1_556 S
N1438 C1435 1.384 . S
N1439 C1431 1.427 . S
N1439 C1437 1.384 . S
H1440 C1446 0.930 . S
H1441 C1450 0.930 . S
H1442 C1455 0.929 . S
H1443 C1453 0.929 . S
H1444 C1448 0.929 . S
H1445 C1454 0.929 . S
C1446 H1440 0.930 . S
C1446 C1447 1.367 1_554 S
C1446 C1454 1.378 . S
C1447 C1446 1.367 1_556 S
C1447 C1455 1.433 . S
C1448 H1444 0.929 . S
C1448 C1450 1.378 . S
C1448 C1452 1.350 . S
C1449 C1452 1.463 . S
C1449 C1454 1.350 . S
C1449 N1457 1.427 1_554 S
C1450 H1441 0.930 . S
C1450 C1448 1.378 . S
C1450 C1451 1.367 . S
C1451 C1450 1.367 . S
C1451 C1453 1.433 . S
C1452 C1448 1.350 . S
C1452 C1449 1.463 . S
C1452 N1456 1.427 . S
C1453 H1443 0.929 . S
C1453 C1451 1.433 . S
C1453 N1456 1.384 . S
C1454 H1445 0.929 . S
C1454 C1446 1.378 . S
C1454 C1449 1.350 . S
C1455 H1442 0.929 . S
C1455 C1447 1.433 . S
C1455 N1457 1.384 . S
N1456 C1452 1.427 . S
N1456 C1453 1.384 . S
N1457 C1449 1.427 1_556 S
N1457 C1455 1.384 . S
H1458 C1464 0.930 . S
H1459 C1468 0.930 . S
H1460 C1473 0.929 . S
H1461 C1471 0.929 . S
H1462 C1466 0.929 . S
H1463 C1472 0.929 . S
C1464 H1458 0.930 . S
C1464 C1465 1.367 . S
C1464 C1472 1.378 . S
C1465 C1464 1.367 . S
C1465 C1473 1.433 . S
C1466 H1462 0.929 . S
C1466 C1468 1.378 . S
C1466 C1470 1.350 . S
C1467 C1470 1.463 . S
C1467 C1472 1.350 . S
C1467 N1475 1.427 . S
C1468 H1459 0.930 . S
C1468 C1466 1.378 . S
C1468 C1469 1.367 . S
C1469 C1468 1.367 . S
C1469 C1471 1.433 . S
C1470 C1466 1.350 . S
C1470 C1467 1.463 . S
C1470 N1474 1.427 . S
C1471 H1461 0.929 . S
C1471 C1469 1.433 . S
C1471 N1474 1.384 . S
C1472 H1463 0.929 . S
C1472 C1464 1.378 . S
C1472 C1467 1.350 . S
C1473 H1460 0.929 . S
C1473 C1465 1.433 . S
C1473 N1475 1.384 . S
N1474 C1470 1.427 . S
N1474 C1471 1.384 . S
N1475 C1467 1.427 . S
N1475 C1473 1.384 . S
H1476 C1482 0.930 . S
H1477 C1486 0.930 . S
H1478 C1491 0.929 . S
H1479 C1489 0.929 . S
H1480 C1484 0.929 . S
H1481 C1490 0.929 . S
C1482 H1476 0.930 . S
C1482 C1483 1.367 . S
C1482 C1490 1.378 . S
C1483 C1482 1.367 . S
C1483 C1491 1.433 . S
C1484 H1480 0.929 . S
C1484 C1486 1.378 . S
C1484 C1488 1.350 . S
C1485 C1488 1.463 . S
C1485 C1490 1.350 . S
C1485 N1493 1.427 . S
C1486 H1477 0.930 . S
C1486 C1484 1.378 . S
C1486 C1487 1.367 . S
C1487 C1486 1.367 . S
C1487 C1489 1.433 . S
C1488 C1484 1.350 . S
C1488 C1485 1.463 . S
C1488 N1492 1.427 . S
C1489 H1479 0.929 . S
C1489 C1487 1.433 . S
C1489 N1492 1.384 . S
C1490 H1481 0.929 . S
C1490 C1482 1.378 . S
C1490 C1485 1.350 . S
C1491 H1478 0.929 . S
C1491 C1483 1.433 . S
C1491 N1493 1.384 . S
N1492 C1488 1.427 . S
N1492 C1489 1.384 . S
N1493 C1485 1.427 . S
N1493 C1491 1.384 . S
H1494 C1500 0.930 . S
H1495 C1504 0.930 . S
H1496 C1509 0.929 . S
H1497 C1507 0.929 . S
H1498 C1502 0.929 . S
H1499 C1508 0.929 . S
C1500 H1494 0.930 . S
C1500 C1501 1.367 . S
C1500 C1508 1.378 . S
C1501 C1500 1.367 . S
C1501 C1509 1.433 . S
C1502 H1498 0.929 . S
C1502 C1504 1.378 . S
C1502 C1506 1.350 . S
C1503 C1506 1.463 . S
C1503 C1508 1.350 . S
C1503 N1511 1.427 . S
C1504 H1495 0.930 . S
C1504 C1502 1.378 . S
C1504 C1505 1.367 . S
C1505 C1504 1.367 . S
C1505 C1507 1.433 . S
C1506 C1502 1.350 . S
C1506 C1503 1.463 . S
C1506 N1510 1.427 . S
C1507 H1497 0.929 . S
C1507 C1505 1.433 . S
C1507 N1510 1.384 . S
C1508 H1499 0.929 . S
C1508 C1500 1.378 . S
C1508 C1503 1.350 . S
C1509 H1496 0.929 . S
C1509 C1501 1.433 . S
C1509 N1511 1.384 . S
N1510 C1506 1.427 . S
N1510 C1507 1.384 . S
N1511 C1503 1.427 . S
N1511 C1509 1.384 . S
H1512 C1518 0.930 . S
H1513 C1522 0.930 . S
H1514 C1527 0.929 . S
H1515 C1525 0.929 . S
H1516 C1520 0.929 . S
H1517 C1526 0.929 . S
C1518 H1512 0.930 . S
C1518 C1519 1.367 . S
C1518 C1526 1.378 . S
C1519 C1518 1.367 . S
C1519 C1527 1.433 . S
C1520 H1516 0.929 . S
C1520 C1522 1.378 . S
C1520 C1524 1.350 . S
C1521 C1524 1.463 . S
C1521 C1526 1.350 . S
C1521 N1529 1.427 . S
C1522 H1513 0.930 . S
C1522 C1520 1.378 . S
C1522 C1523 1.367 . S
C1523 C1522 1.367 . S
C1523 C1525 1.433 . S
C1524 C1520 1.350 . S
C1524 C1521 1.463 . S
C1524 N1528 1.427 . S
C1525 H1515 0.929 . S
C1525 C1523 1.433 . S
C1525 N1528 1.384 . S
C1526 H1517 0.929 . S
C1526 C1518 1.378 . S
C1526 C1521 1.350 . S
C1527 H1514 0.929 . S
C1527 C1519 1.433 . S
C1527 N1529 1.384 . S
N1528 C1524 1.427 . S
N1528 C1525 1.384 . S
N1529 C1521 1.427 . S
N1529 C1527 1.384 . S
H1530 C1536 0.930 . S
H1531 C1540 0.930 . S
H1532 C1545 0.929 . S
H1533 C1543 0.929 . S
H1534 C1538 0.929 . S
H1535 C1544 0.929 . S
C1536 H1530 0.930 . S
C1536 C1537 1.367 . S
C1536 C1544 1.378 . S
C1537 C1536 1.367 . S
C1537 C1545 1.433 . S
C1538 H1534 0.929 . S
C1538 C1540 1.378 . S
C1538 C1542 1.350 . S
C1539 C1542 1.463 . S
C1539 C1544 1.350 . S
C1539 N1547 1.427 . S
C1540 H1531 0.930 . S
C1540 C1538 1.378 . S
C1540 C1541 1.367 . S
C1541 C1540 1.367 . S
C1541 C1543 1.433 . S
C1542 C1538 1.350 . S
C1542 C1539 1.463 . S
C1542 N1546 1.427 . S
C1543 H1533 0.929 . S
C1543 C1541 1.433 . S
C1543 N1546 1.384 . S
C1544 H1535 0.929 . S
C1544 C1536 1.378 . S
C1544 C1539 1.350 . S
C1545 H1532 0.929 . S
C1545 C1537 1.433 . S
C1545 N1547 1.384 . S
N1546 C1542 1.427 . S
N1546 C1543 1.384 . S
N1547 C1539 1.427 . S
N1547 C1545 1.384 . S
H1548 C1554 0.930 . S
H1549 C1558 0.930 . S
H1550 C1563 0.929 . S
H1551 C1561 0.929 . S
H1552 C1556 0.929 . S
H1553 C1562 0.929 . S
C1554 H1548 0.930 . S
C1554 C1555 1.367 . S
C1554 C1562 1.378 . S
C1555 C1554 1.367 . S
C1555 C1563 1.433 . S
C1556 H1552 0.929 . S
C1556 C1558 1.378 . S
C1556 C1560 1.350 . S
C1557 C1560 1.463 . S
C1557 C1562 1.350 . S
C1557 N1565 1.427 . S
C1558 H1549 0.930 . S
C1558 C1556 1.378 . S
C1558 C1559 1.367 . S
C1559 C1558 1.367 . S
C1559 C1561 1.433 . S
C1560 C1556 1.350 . S
C1560 C1557 1.463 . S
C1560 N1564 1.427 . S
C1561 H1551 0.929 . S
C1561 C1559 1.433 . S
C1561 N1564 1.384 . S
C1562 H1553 0.929 . S
C1562 C1554 1.378 . S
C1562 C1557 1.350 . S
C1563 H1550 0.929 . S
C1563 C1555 1.433 . S
C1563 N1565 1.384 . S
N1564 C1560 1.427 . S
N1564 C1561 1.384 . S
N1565 C1557 1.427 . S
N1565 C1563 1.384 . S
H1566 C1572 0.930 . S
H1567 C1576 0.930 . S
H1568 C1581 0.929 . S
H1569 C1579 0.929 . S
H1570 C1574 0.929 . S
H1571 C1580 0.929 . S
C1572 H1566 0.930 . S
C1572 C1573 1.367 . S
C1572 C1580 1.378 . S
C1573 C1572 1.367 . S
C1573 C1581 1.433 . S
C1574 H1570 0.929 . S
C1574 C1576 1.378 . S
C1574 C1578 1.350 . S
C1575 C1578 1.463 . S
C1575 C1580 1.350 . S
C1575 N1583 1.427 . S
C1576 H1567 0.930 . S
C1576 C1574 1.378 . S
C1576 C1577 1.367 . S
C1577 C1576 1.367 . S
C1577 C1579 1.433 . S
C1578 C1574 1.350 . S
C1578 C1575 1.463 . S
C1578 N1582 1.427 . S
C1579 H1569 0.929 . S
C1579 C1577 1.433 . S
C1579 N1582 1.384 . S
C1580 H1571 0.929 . S
C1580 C1572 1.378 . S
C1580 C1575 1.350 . S
C1581 H1568 0.929 . S
C1581 C1573 1.433 . S
C1581 N1583 1.384 . S
N1582 C1578 1.427 . S
N1582 C1579 1.384 . S
N1583 C1575 1.427 . S
N1583 C1581 1.384 . S
H1584 C1590 0.930 . S
H1585 C1594 0.930 . S
H1586 C1599 0.929 . S
H1587 C1597 0.929 . S
H1588 C1592 0.929 . S
H1589 C1598 0.929 . S
C1590 H1584 0.930 . S
C1590 C1591 1.367 . S
C1590 C1598 1.378 . S
C1591 C1590 1.367 . S
C1591 C1599 1.433 . S
C1592 H1588 0.929 . S
C1592 C1594 1.378 . S
C1592 C1596 1.350 . S
C1593 C1596 1.463 . S
C1593 C1598 1.350 . S
C1593 N1601 1.427 . S
C1594 H1585 0.930 . S
C1594 C1592 1.378 . S
C1594 C1595 1.367 . S
C1595 C1594 1.367 . S
C1595 C1597 1.433 . S
C1596 C1592 1.350 . S
C1596 C1593 1.463 . S
C1596 N1600 1.427 . S
C1597 H1587 0.929 . S
C1597 C1595 1.433 . S
C1597 N1600 1.384 . S
C1598 H1589 0.929 . S
C1598 C1590 1.378 . S
C1598 C1593 1.350 . S
C1599 H1586 0.929 . S
C1599 C1591 1.433 . S
C1599 N1601 1.384 . S
N1600 C1596 1.427 . S
N1600 C1597 1.384 . S
N1601 C1593 1.427 . S
N1601 C1599 1.384 . S
H1602 C1608 0.930 . S
H1603 C1612 0.930 . S
H1604 C1617 0.929 . S
H1605 C1615 0.929 . S
H1606 C1610 0.929 . S
H1607 C1616 0.929 . S
C1608 H1602 0.930 . S
C1608 C1609 1.367 . S
C1608 C1616 1.378 . S
C1609 C1608 1.367 . S
C1609 C1617 1.433 . S
C1610 H1606 0.929 . S
C1610 C1612 1.378 . S
C1610 C1614 1.350 . S
C1611 C1614 1.463 . S
C1611 C1616 1.350 . S
C1611 N1619 1.427 . S
C1612 H1603 0.930 . S
C1612 C1610 1.378 . S
C1612 C1613 1.367 . S
C1613 C1612 1.367 . S
C1613 C1615 1.433 . S
C1614 C1610 1.350 . S
C1614 C1611 1.463 . S
C1614 N1618 1.427 . S
C1615 H1605 0.929 . S
C1615 C1613 1.433 . S
C1615 N1618 1.384 . S
C1616 H1607 0.929 . S
C1616 C1608 1.378 . S
C1616 C1611 1.350 . S
C1617 H1604 0.929 . S
C1617 C1609 1.433 . S
C1617 N1619 1.384 . S
N1618 C1614 1.427 . S
N1618 C1615 1.384 . S
N1619 C1611 1.427 . S
N1619 C1617 1.384 . S
H1620 C1626 0.930 . S
H1621 C1630 0.930 . S
H1622 C1635 0.929 . S
H1623 C1633 0.929 . S
H1624 C1628 0.929 . S
H1625 C1634 0.929 . S
C1626 H1620 0.930 . S
C1626 C1627 1.367 . S
C1626 C1634 1.378 . S
C1627 C1626 1.367 . S
C1627 C1635 1.433 . S
C1628 H1624 0.929 . S
C1628 C1630 1.378 . S
C1628 C1632 1.350 . S
C1629 C1632 1.463 . S
C1629 C1634 1.350 . S
C1629 N1637 1.427 . S
C1630 H1621 0.930 . S
C1630 C1628 1.378 . S
C1630 C1631 1.367 . S
C1631 C1630 1.367 . S
C1631 C1633 1.433 . S
C1632 C1628 1.350 . S
C1632 C1629 1.463 . S
C1632 N1636 1.427 . S
C1633 H1623 0.929 . S
C1633 C1631 1.433 . S
C1633 N1636 1.384 . S
C1634 H1625 0.929 . S
C1634 C1626 1.378 . S
C1634 C1629 1.350 . S
C1635 H1622 0.929 . S
C1635 C1627 1.433 . S
C1635 N1637 1.384 . S
N1636 C1632 1.427 . S
N1636 C1633 1.384 . S
N1637 C1629 1.427 . S
N1637 C1635 1.384 . S
H1638 C1644 0.930 . S
H1639 C1648 0.930 . S
H1640 C1653 0.929 . S
H1641 C1651 0.929 . S
H1642 C1646 0.929 . S
H1643 C1652 0.929 . S
C1644 H1638 0.930 . S
C1644 C1645 1.367 . S
C1644 C1652 1.378 . S
C1645 C1644 1.367 . S
C1645 C1653 1.433 . S
C1646 H1642 0.929 . S
C1646 C1648 1.378 . S
C1646 C1650 1.350 . S
C1647 C1650 1.463 . S
C1647 C1652 1.350 . S
C1647 N1655 1.427 . S
C1648 H1639 0.930 . S
C1648 C1646 1.378 . S
C1648 C1649 1.367 . S
C1649 C1648 1.367 . S
C1649 C1651 1.433 . S
C1650 C1646 1.350 . S
C1650 C1647 1.463 . S
C1650 N1654 1.427 . S
C1651 H1641 0.929 . S
C1651 C1649 1.433 . S
C1651 N1654 1.384 . S
C1652 H1643 0.929 . S
C1652 C1644 1.378 . S
C1652 C1647 1.350 . S
C1653 H1640 0.929 . S
C1653 C1645 1.433 . S
C1653 N1655 1.384 . S
N1654 C1650 1.427 . S
N1654 C1651 1.384 . S
N1655 C1647 1.427 . S
N1655 C1653 1.384 . S
H1656 C1662 0.930 . S
H1657 C1666 0.930 . S
H1658 C1671 0.929 . S
H1659 C1669 0.929 . S
H1660 C1664 0.929 . S
H1661 C1670 0.929 . S
C1662 H1656 0.930 . S
C1662 C1663 1.367 . S
C1662 C1670 1.378 . S
C1663 C1662 1.367 . S
C1663 C1671 1.433 . S
C1664 H1660 0.929 . S
C1664 C1666 1.378 . S
C1664 C1668 1.350 . S
C1665 C1668 1.463 . S
C1665 C1670 1.350 . S
C1665 N1673 1.427 . S
C1666 H1657 0.930 . S
C1666 C1664 1.378 . S
C1666 C1667 1.367 . S
C1667 C1666 1.367 . S
C1667 C1669 1.433 . S
C1668 C1664 1.350 . S
C1668 C1665 1.463 . S
C1668 N1672 1.427 . S
C1669 H1659 0.929 . S
C1669 C1667 1.433 . S
C1669 N1672 1.384 . S
C1670 H1661 0.929 . S
C1670 C1662 1.378 . S
C1670 C1665 1.350 . S
C1671 H1658 0.929 . S
C1671 C1663 1.433 . S
C1671 N1673 1.384 . S
N1672 C1668 1.427 . S
N1672 C1669 1.384 . S
N1673 C1665 1.427 . S
N1673 C1671 1.384 . S
H1674 C1680 0.930 . S
H1675 C1684 0.930 . S
H1676 C1689 0.929 . S
H1677 C1687 0.929 . S
H1678 C1682 0.929 . S
H1679 C1688 0.929 . S
C1680 H1674 0.930 . S
C1680 C1681 1.367 . S
C1680 C1688 1.378 . S
C1681 C1680 1.367 . S
C1681 C1689 1.433 . S
C1682 H1678 0.929 . S
C1682 C1684 1.378 . S
C1682 C1686 1.350 . S
C1683 C1686 1.463 . S
C1683 C1688 1.350 . S
C1683 N1691 1.427 . S
C1684 H1675 0.930 . S
C1684 C1682 1.378 . S
C1684 C1685 1.367 . S
C1685 C1684 1.367 . S
C1685 C1687 1.433 . S
C1686 C1682 1.350 . S
C1686 C1683 1.463 . S
C1686 N1690 1.427 . S
C1687 H1677 0.929 . S
C1687 C1685 1.433 . S
C1687 N1690 1.384 . S
C1688 H1679 0.929 . S
C1688 C1680 1.378 . S
C1688 C1683 1.350 . S
C1689 H1676 0.929 . S
C1689 C1681 1.433 . S
C1689 N1691 1.384 . S
N1690 C1686 1.427 . S
N1690 C1687 1.384 . S
N1691 C1683 1.427 . S
N1691 C1689 1.384 . S
H1692 C1698 0.930 . S
H1693 C1702 0.930 . S
H1694 C1707 0.929 . S
H1695 C1705 0.929 . S
H1696 C1700 0.929 . S
H1697 C1706 0.929 . S
C1698 H1692 0.930 . S
C1698 C1699 1.367 . S
C1698 C1706 1.378 . S
C1699 C1698 1.367 . S
C1699 C1707 1.433 . S
C1700 H1696 0.929 . S
C1700 C1702 1.378 . S
C1700 C1704 1.350 . S
C1701 C1704 1.463 . S
C1701 C1706 1.350 . S
C1701 N1709 1.427 . S
C1702 H1693 0.930 . S
C1702 C1700 1.378 . S
C1702 C1703 1.367 . S
C1703 C1702 1.367 . S
C1703 C1705 1.433 . S
C1704 C1700 1.350 . S
C1704 C1701 1.463 . S
C1704 N1708 1.427 . S
C1705 H1695 0.929 . S
C1705 C1703 1.433 . S
C1705 N1708 1.384 . S
C1706 H1697 0.929 . S
C1706 C1698 1.378 . S
C1706 C1701 1.350 . S
C1707 H1694 0.929 . S
C1707 C1699 1.433 . S
C1707 N1709 1.384 . S
N1708 C1704 1.427 . S
N1708 C1705 1.384 . S
N1709 C1701 1.427 . S
N1709 C1707 1.384 . S
H1710 C1716 0.930 . S
H1711 C1720 0.930 . S
H1712 C1725 0.929 . S
H1713 C1723 0.929 . S
H1714 C1718 0.929 . S
H1715 C1724 0.929 . S
C1716 H1710 0.930 . S
C1716 C1717 1.367 . S
C1716 C1724 1.378 . S
C1717 C1716 1.367 . S
C1717 C1725 1.433 . S
C1718 H1714 0.929 . S
C1718 C1720 1.378 . S
C1718 C1722 1.350 . S
C1719 C1722 1.463 . S
C1719 C1724 1.350 . S
C1719 N1727 1.427 . S
C1720 H1711 0.930 . S
C1720 C1718 1.378 . S
C1720 C1721 1.367 . S
C1721 C1720 1.367 . S
C1721 C1723 1.433 . S
C1722 C1718 1.350 . S
C1722 C1719 1.463 . S
C1722 N1726 1.427 . S
C1723 H1713 0.929 . S
C1723 C1721 1.433 . S
C1723 N1726 1.384 . S
C1724 H1715 0.929 . S
C1724 C1716 1.378 . S
C1724 C1719 1.350 . S
C1725 H1712 0.929 . S
C1725 C1717 1.433 . S
C1725 N1727 1.384 . S
N1726 C1722 1.427 . S
N1726 C1723 1.384 . S
N1727 C1719 1.427 . S
N1727 C1725 1.384 . S
H1728 C1734 0.930 . S
H1729 C1738 0.930 . S
H1730 C1743 0.929 . S
H1731 C1741 0.929 . S
H1732 C1736 0.929 . S
H1733 C1742 0.929 . S
C1734 H1728 0.930 . S
C1734 C1735 1.367 . S
C1734 C1742 1.378 . S
C1735 C1734 1.367 . S
C1735 C1743 1.433 1_554 S
C1736 H1732 0.929 . S
C1736 C1738 1.378 . S
C1736 C1740 1.350 . S
C1737 C1740 1.463 . S
C1737 C1742 1.350 . S
C1737 N1745 1.427 . S
C1738 H1729 0.930 . S
C1738 C1736 1.378 . S
C1738 C1739 1.367 . S
C1739 C1738 1.367 . S
C1739 C1741 1.433 . S
C1740 C1736 1.350 . S
C1740 C1737 1.463 . S
C1740 N1744 1.427 . S
C1741 H1731 0.929 . S
C1741 C1739 1.433 . S
C1741 N1744 1.384 . S
C1742 H1733 0.929 . S
C1742 C1734 1.378 . S
C1742 C1737 1.350 . S
C1743 H1730 0.929 . S
C1743 C1735 1.433 1_556 S
C1743 N1745 1.384 1_556 S
N1744 C1740 1.427 . S
N1744 C1741 1.384 . S
N1745 C1737 1.427 . S
N1745 C1743 1.384 1_554 S
H1746 C1752 0.930 . S
H1747 C1756 0.930 . S
H1748 C1761 0.929 . S
H1749 C1759 0.929 . S
H1750 C1754 0.929 . S
H1751 C1760 0.929 . S
C1752 H1746 0.930 . S
C1752 C1753 1.367 . S
C1752 C1760 1.378 . S
C1753 C1752 1.367 . S
C1753 C1761 1.433 . S
C1754 H1750 0.929 . S
C1754 C1756 1.378 . S
C1754 C1758 1.350 . S
C1755 C1758 1.463 . S
C1755 C1760 1.350 . S
C1755 N1763 1.427 . S
C1756 H1747 0.930 . S
C1756 C1754 1.378 . S
C1756 C1757 1.367 . S
C1757 C1756 1.367 . S
C1757 C1759 1.433 1_554 S
C1758 C1754 1.350 . S
C1758 C1755 1.463 . S
C1758 N1762 1.427 . S
C1759 H1749 0.929 . S
C1759 C1757 1.433 1_556 S
C1759 N1762 1.384 1_556 S
C1760 H1751 0.929 . S
C1760 C1752 1.378 . S
C1760 C1755 1.350 . S
C1761 H1748 0.929 . S
C1761 C1753 1.433 . S
C1761 N1763 1.384 . S
N1762 C1758 1.427 . S
N1762 C1759 1.384 1_554 S
N1763 C1755 1.427 . S
N1763 C1761 1.384 . S
H1764 C1770 0.930 . S
H1765 C1774 0.930 . S
H1766 C1779 0.929 . S
H1767 C1777 0.929 . S
H1768 C1772 0.929 . S
H1769 C1778 0.929 . S
C1770 H1764 0.930 . S
C1770 C1771 1.367 . S
C1770 C1778 1.378 . S
C1771 C1770 1.367 . S
C1771 C1779 1.433 . S
C1772 H1768 0.929 . S
C1772 C1774 1.378 . S
C1772 C1776 1.350 . S
C1773 C1776 1.463 . S
C1773 C1778 1.350 . S
C1773 N1781 1.427 . S
C1774 H1765 0.930 . S
C1774 C1772 1.378 . S
C1774 C1775 1.367 . S
C1775 C1774 1.367 . S
C1775 C1777 1.433 1_554 S
C1776 C1772 1.350 . S
C1776 C1773 1.463 . S
C1776 N1780 1.427 . S
C1777 H1767 0.929 . S
C1777 C1775 1.433 1_556 S
C1777 N1780 1.384 1_556 S
C1778 H1769 0.929 . S
C1778 C1770 1.378 . S
C1778 C1773 1.350 . S
C1779 H1766 0.929 . S
C1779 C1771 1.433 . S
C1779 N1781 1.384 . S
N1780 C1776 1.427 . S
N1780 C1777 1.384 1_554 S
N1781 C1773 1.427 . S
N1781 C1779 1.384 . S
H1782 C1788 0.930 . S
H1783 C1792 0.930 . S
H1784 C1797 0.929 1_554 S
H1785 C1795 0.929 . S
H1786 C1790 0.929 . S
H1787 C1796 0.929 . S
C1788 H1782 0.930 . S
C1788 C1789 1.367 . S
C1788 C1796 1.378 . S
C1789 C1788 1.367 . S
C1789 C1797 1.433 . S
C1790 H1786 0.929 . S
C1790 C1792 1.378 . S
C1790 C1794 1.350 . S
C1791 C1794 1.463 . S
C1791 C1796 1.350 . S
C1791 N1799 1.427 . S
C1792 H1783 0.930 . S
C1792 C1790 1.378 . S
C1792 C1793 1.367 . S
C1793 C1792 1.367 . S
C1793 C1795 1.433 . S
C1794 C1790 1.350 . S
C1794 C1791 1.463 . S
C1794 N1798 1.427 . S
C1795 H1785 0.929 . S
C1795 C1793 1.433 . S
C1795 N1798 1.384 . S
C1796 H1787 0.929 . S
C1796 C1788 1.378 . S
C1796 C1791 1.350 . S
C1797 H1784 0.929 1_556 S
C1797 C1789 1.433 . S
C1797 N1799 1.384 . S
N1798 C1794 1.427 . S
N1798 C1795 1.384 . S
N1799 C1791 1.427 . S
N1799 C1797 1.384 . S
H1800 C1806 0.930 . S
H1801 C1810 0.930 . S
H1802 C1815 0.929 1_554 S
H1803 C1813 0.929 . S
H1804 C1808 0.929 . S
H1805 C1814 0.929 . S
C1806 H1800 0.930 . S
C1806 C1807 1.367 . S
C1806 C1814 1.378 . S
C1807 C1806 1.367 . S
C1807 C1815 1.433 . S
C1808 H1804 0.929 . S
C1808 C1810 1.378 . S
C1808 C1812 1.350 . S
C1809 C1812 1.463 . S
C1809 C1814 1.350 . S
C1809 N1817 1.427 . S
C1810 H1801 0.930 . S
C1810 C1808 1.378 . S
C1810 C1811 1.367 . S
C1811 C1810 1.367 . S
C1811 C1813 1.433 . S
C1812 C1808 1.350 . S
C1812 C1809 1.463 . S
C1812 N1816 1.427 . S
C1813 H1803 0.929 . S
C1813 C1811 1.433 . S
C1813 N1816 1.384 . S
C1814 H1805 0.929 . S
C1814 C1806 1.378 . S
C1814 C1809 1.350 . S
C1815 H1802 0.929 1_556 S
C1815 C1807 1.433 . S
C1815 N1817 1.384 . S
N1816 C1812 1.427 . S
N1816 C1813 1.384 . S
N1817 C1809 1.427 . S
N1817 C1815 1.384 . S
H1818 C1824 0.930 . S
H1819 C1828 0.930 . S
H1820 C1833 0.929 . S
H1821 C1831 0.929 . S
H1822 C1826 0.929 . S
H1823 C1832 0.929 . S
C1824 H1818 0.930 . S
C1824 C1825 1.367 . S
C1824 C1832 1.378 . S
C1825 C1824 1.367 . S
C1825 C1833 1.433 . S
C1826 H1822 0.929 . S
C1826 C1828 1.378 . S
C1826 C1830 1.350 . S
C1827 C1830 1.463 . S
C1827 C1832 1.350 . S
C1827 N1835 1.427 . S
C1828 H1819 0.930 . S
C1828 C1826 1.378 . S
C1828 C1829 1.367 . S
C1829 C1828 1.367 . S
C1829 C1831 1.433 1_556 S
C1830 C1826 1.350 . S
C1830 C1827 1.463 . S
C1830 N1834 1.427 . S
C1831 H1821 0.929 . S
C1831 C1829 1.433 1_554 S
C1831 N1834 1.384 1_554 S
C1832 H1823 0.929 . S
C1832 C1824 1.378 . S
C1832 C1827 1.350 . S
C1833 H1820 0.929 . S
C1833 C1825 1.433 . S
C1833 N1835 1.384 . S
N1834 C1830 1.427 . S
N1834 C1831 1.384 1_556 S
N1835 C1827 1.427 . S
N1835 C1833 1.384 . S
H1836 C1842 0.930 . S
H1837 C1846 0.930 . S
H1838 C1851 0.929 . S
H1839 C1849 0.929 . S
H1840 C1844 0.929 . S
H1841 C1850 0.929 . S
C1842 H1836 0.930 . S
C1842 C1843 1.367 . S
C1842 C1850 1.378 . S
C1843 C1842 1.367 . S
C1843 C1851 1.433 . S
C1844 H1840 0.929 . S
C1844 C1846 1.378 . S
C1844 C1848 1.350 . S
C1845 C1848 1.463 . S
C1845 C1850 1.350 . S
C1845 N1853 1.427 . S
C1846 H1837 0.930 . S
C1846 C1844 1.378 . S
C1846 C1847 1.367 . S
C1847 C1846 1.367 . S
C1847 C1849 1.433 . S
C1848 C1844 1.350 . S
C1848 C1845 1.463 . S
C1848 N1852 1.427 . S
C1849 H1839 0.929 . S
C1849 C1847 1.433 . S
C1849 N1852 1.384 . S
C1850 H1841 0.929 . S
C1850 C1842 1.378 . S
C1850 C1845 1.350 . S
C1851 H1838 0.929 . S
C1851 C1843 1.433 . S
C1851 N1853 1.384 . S
N1852 C1848 1.427 . S
N1852 C1849 1.384 . S
N1853 C1845 1.427 . S
N1853 C1851 1.384 . S
H1854 C1860 0.930 . S
H1855 C1864 0.930 . S
H1856 C1869 0.929 . S
H1857 C1867 0.929 . S
H1858 C1862 0.929 . S
H1859 C1868 0.929 . S
C1860 H1854 0.930 . S
C1860 C1861 1.367 . S
C1860 C1868 1.378 . S
C1861 C1860 1.367 . S
C1861 C1869 1.433 . S
C1862 H1858 0.929 . S
C1862 C1864 1.378 . S
C1862 C1866 1.350 . S
C1863 C1866 1.463 1_545 S
C1863 C1868 1.350 . S
C1863 N1871 1.427 . S
C1864 H1855 0.930 . S
C1864 C1862 1.378 . S
C1864 C1865 1.367 . S
C1865 C1864 1.367 . S
C1865 C1867 1.433 . S
C1866 C1862 1.350 . S
C1866 C1863 1.463 1_565 S
C1866 N1870 1.427 . S
C1867 H1857 0.929 . S
C1867 C1865 1.433 . S
C1867 N1870 1.384 . S
C1868 H1859 0.929 . S
C1868 C1860 1.378 . S
C1868 C1863 1.350 . S
C1869 H1856 0.929 . S
C1869 C1861 1.433 . S
C1869 N1871 1.384 . S
N1870 C1866 1.427 . S
N1870 C1867 1.384 . S
N1871 C1863 1.427 . S
N1871 C1869 1.384 . S
H1872 C1878 0.930 . S
H1873 C1882 0.930 . S
H1874 C1887 0.929 . S
H1875 C1885 0.929 . S
H1876 C1880 0.929 . S
H1877 C1886 0.929 . S
C1878 H1872 0.930 . S
C1878 C1879 1.367 . S
C1878 C1886 1.378 . S
C1879 C1878 1.367 . S
C1879 C1887 1.433 . S
C1880 H1876 0.929 . S
C1880 C1882 1.378 . S
C1880 C1884 1.350 . S
C1881 C1884 1.463 1_655 S
C1881 C1886 1.350 . S
C1881 N1889 1.427 . S
C1882 H1873 0.930 . S
C1882 C1880 1.378 . S
C1882 C1883 1.367 . S
C1883 C1882 1.367 . S
C1883 C1885 1.433 . S
C1884 C1880 1.350 . S
C1884 C1881 1.463 1_455 S
C1884 N1888 1.427 . S
C1885 H1875 0.929 . S
C1885 C1883 1.433 . S
C1885 N1888 1.384 . S
C1886 H1877 0.929 . S
C1886 C1878 1.378 . S
C1886 C1881 1.350 . S
C1887 H1874 0.929 . S
C1887 C1879 1.433 . S
C1887 N1889 1.384 . S
N1888 C1884 1.427 . S
N1888 C1885 1.384 . S
N1889 C1881 1.427 . S
N1889 C1887 1.384 . S
H1890 C1896 0.930 . S
H1891 C1900 0.930 . S
H1892 C1905 0.929 . S
H1893 C1903 0.929 1_554 S
H1894 C1898 0.929 . S
H1895 C1904 0.929 . S
C1896 H1890 0.930 . S
C1896 C1897 1.367 . S
C1896 C1904 1.378 . S
C1897 C1896 1.367 . S
C1897 C1905 1.433 . S
C1898 H1894 0.929 . S
C1898 C1900 1.378 . S
C1898 C1902 1.350 . S
C1899 C1902 1.463 . S
C1899 C1904 1.350 . S
C1899 N1907 1.427 . S
C1900 H1891 0.930 . S
C1900 C1898 1.378 . S
C1900 C1901 1.367 . S
C1901 C1900 1.367 . S
C1901 C1903 1.433 . S
C1902 C1898 1.350 . S
C1902 C1899 1.463 . S
C1902 N1906 1.427 . S
C1903 H1893 0.929 1_556 S
C1903 C1901 1.433 . S
C1903 N1906 1.384 . S
C1904 H1895 0.929 . S
C1904 C1896 1.378 . S
C1904 C1899 1.350 . S
C1905 H1892 0.929 . S
C1905 C1897 1.433 . S
C1905 N1907 1.384 . S
N1906 C1902 1.427 . S
N1906 C1903 1.384 . S
N1907 C1899 1.427 . S
N1907 C1905 1.384 . S
H1908 C1914 0.930 . S
H1909 C1918 0.930 . S
H1910 C1923 0.929 . S
H1911 C1921 0.929 . S
H1912 C1916 0.929 . S
H1913 C1922 0.929 . S
C1914 H1908 0.930 . S
C1914 C1915 1.367 . S
C1914 C1922 1.378 . S
C1915 C1914 1.367 . S
C1915 C1923 1.433 . S
C1916 H1912 0.929 . S
C1916 C1918 1.378 . S
C1916 C1920 1.350 . S
C1917 C1920 1.463 1_565 S
C1917 C1922 1.350 . S
C1917 N1925 1.427 . S
C1918 H1909 0.930 . S
C1918 C1916 1.378 . S
C1918 C1919 1.367 . S
C1919 C1918 1.367 . S
C1919 C1921 1.433 . S
C1920 C1916 1.350 . S
C1920 C1917 1.463 1_545 S
C1920 N1924 1.427 . S
C1921 H1911 0.929 . S
C1921 C1919 1.433 . S
C1921 N1924 1.384 . S
C1922 H1913 0.929 . S
C1922 C1914 1.378 . S
C1922 C1917 1.350 . S
C1923 H1910 0.929 . S
C1923 C1915 1.433 . S
C1923 N1925 1.384 . S
N1924 C1920 1.427 . S
N1924 C1921 1.384 . S
N1925 C1917 1.427 . S
N1925 C1923 1.384 . S
H1926 C1932 0.930 . S
H1927 C1936 0.930 . S
H1928 C1941 0.929 . S
H1929 C1939 0.929 1_554 S
H1930 C1934 0.929 . S
H1931 C1940 0.929 . S
C1932 H1926 0.930 . S
C1932 C1933 1.367 . S
C1932 C1940 1.378 . S
C1933 C1932 1.367 . S
C1933 C1941 1.433 . S
C1934 H1930 0.929 . S
C1934 C1936 1.378 . S
C1934 C1938 1.350 . S
C1935 C1938 1.463 1_655 S
C1935 C1940 1.350 . S
C1935 N1943 1.457 . S
C1936 H1927 0.930 . S
C1936 C1934 1.378 . S
C1936 C1937 1.367 . S
C1937 C1936 1.367 . S
C1937 C1939 1.433 . S
C1938 C1934 1.350 . S
C1938 C1935 1.463 1_455 S
C1938 N1942 1.458 . S
C1939 H1929 0.929 1_556 S
C1939 C1937 1.433 . S
C1939 N1942 1.419 . S
C1940 H1931 0.929 . S
C1940 C1932 1.378 . S
C1940 C1935 1.350 . S
C1941 H1928 0.929 . S
C1941 C1933 1.433 . S
C1941 N1943 1.419 . S
N1942 C1938 1.458 . S
N1942 C1939 1.419 . S
N1943 C1935 1.457 . S
N1943 C1941 1.419 . S
H1944 C1950 0.930 . S
H1945 C1954 0.930 . S
H1946 C1959 0.929 . S
H1947 C1957 0.929 . S
H1948 C1952 0.929 . S
H1949 C1958 0.929 . S
C1950 H1944 0.930 . S
C1950 C1951 1.367 . S
C1950 C1958 1.378 . S
C1951 C1950 1.367 . S
C1951 C1959 1.433 . S
C1952 H1948 0.929 . S
C1952 C1954 1.378 . S
C1952 C1956 1.350 . S
C1953 C1956 1.463 . S
C1953 C1958 1.350 . S
C1953 N1961 1.427 . S
C1954 H1945 0.930 . S
C1954 C1952 1.378 . S
C1954 C1955 1.367 . S
C1955 C1954 1.367 . S
C1955 C1957 1.433 . S
C1956 C1952 1.350 . S
C1956 C1953 1.463 . S
C1956 N1960 1.427 . S
C1957 H1947 0.929 . S
C1957 C1955 1.433 . S
C1957 N1960 1.384 . S
C1958 H1949 0.929 . S
C1958 C1950 1.378 . S
C1958 C1953 1.350 . S
C1959 H1946 0.929 . S
C1959 C1951 1.433 . S
C1959 N1961 1.384 . S
N1960 C1956 1.427 . S
N1960 C1957 1.384 . S
N1961 C1953 1.427 . S
N1961 C1959 1.384 . S
H1962 C1968 0.930 . S
H1963 C1972 0.930 . S
H1964 C1977 0.929 . S
H1965 C1975 0.929 . S
H1966 C1970 0.929 . S
H1967 C1976 0.929 . S
C1968 H1962 0.930 . S
C1968 C1969 1.367 . S
C1968 C1976 1.378 . S
C1969 C1968 1.367 . S
C1969 C1977 1.433 . S
C1970 H1966 0.929 . S
C1970 C1972 1.378 . S
C1970 C1974 1.350 . S
C1971 C1974 1.463 . S
C1971 C1976 1.350 . S
C1971 N1979 1.427 . S
C1972 H1963 0.930 . S
C1972 C1970 1.378 . S
C1972 C1973 1.367 . S
C1973 C1972 1.367 . S
C1973 C1975 1.433 . S
C1974 C1970 1.350 . S
C1974 C1971 1.463 . S
C1974 N1978 1.427 . S
C1975 H1965 0.929 . S
C1975 C1973 1.433 . S
C1975 N1978 1.384 . S
C1976 H1967 0.929 . S
C1976 C1968 1.378 . S
C1976 C1971 1.350 . S
C1977 H1964 0.929 . S
C1977 C1969 1.433 . S
C1977 N1979 1.384 . S
N1978 C1974 1.427 . S
N1978 C1975 1.384 . S
N1979 C1971 1.427 . S
N1979 C1977 1.384 . S
H1980 C1986 0.930 . S
H1981 C1990 0.930 . S
H1982 C1995 0.929 . S
H1983 C1993 0.929 . S
H1984 C1988 0.929 . S
H1985 C1994 0.929 . S
C1986 H1980 0.930 . S
C1986 C1987 1.367 . S
C1986 C1994 1.378 . S
C1987 C1986 1.367 . S
C1987 C1995 1.433 . S
C1988 H1984 0.929 . S
C1988 C1990 1.378 . S
C1988 C1992 1.350 . S
C1989 C1992 1.463 . S
C1989 C1994 1.350 . S
C1989 N1997 1.427 . S
C1990 H1981 0.930 . S
C1990 C1988 1.378 . S
C1990 C1991 1.367 . S
C1991 C1990 1.367 . S
C1991 C1993 1.433 . S
C1992 C1988 1.350 . S
C1992 C1989 1.463 . S
C1992 N1996 1.427 . S
C1993 H1983 0.929 . S
C1993 C1991 1.433 . S
C1993 N1996 1.384 . S
C1994 H1985 0.929 . S
C1994 C1986 1.378 . S
C1994 C1989 1.350 . S
C1995 H1982 0.929 . S
C1995 C1987 1.433 . S
C1995 N1997 1.384 . S
N1996 C1992 1.427 . S
N1996 C1993 1.384 . S
N1997 C1989 1.427 . S
N1997 C1995 1.384 . S
H1998 C2004 0.930 . S
H1999 C2008 0.930 . S
H2000 C2013 0.929 . S
H2001 C2011 0.930 1_556 S
H2002 C2006 0.929 . S
H2003 C2012 0.929 . S
C2004 H1998 0.930 . S
C2004 C2005 1.367 . S
C2004 C2012 1.378 . S
C2005 C2004 1.367 . S
C2005 C2013 1.433 . S
C2006 H2002 0.929 . S
C2006 C2008 1.378 . S
C2006 C2010 1.350 . S
C2007 C2010 1.463 . S
C2007 C2012 1.350 . S
C2007 N2015 1.427 . S
C2008 H1999 0.930 . S
C2008 C2006 1.378 . S
C2008 C2009 1.367 . S
C2009 C2008 1.367 . S
C2009 C2011 1.433 . S
C2010 C2006 1.350 . S
C2010 C2007 1.463 . S
C2010 N2014 1.427 . S
C2011 H2001 0.930 1_554 S
C2011 C2009 1.433 . S
C2011 N2014 1.384 . S
C2012 H2003 0.929 . S
C2012 C2004 1.378 . S
C2012 C2007 1.350 . S
C2013 H2000 0.929 . S
C2013 C2005 1.433 . S
C2013 N2015 1.384 . S
N2014 C2010 1.427 . S
N2014 C2011 1.384 . S
N2015 C2007 1.427 . S
N2015 C2013 1.384 . S
H2016 C2022 0.930 . S
H2017 C2026 0.930 . S
H2018 C2031 0.929 1_556 S
H2019 C2029 0.929 . S
H2020 C2024 0.929 . S
H2021 C2030 0.929 . S
C2022 H2016 0.930 . S
C2022 C2023 1.367 . S
C2022 C2030 1.378 . S
C2023 C2022 1.367 . S
C2023 C2031 1.433 . S
C2024 H2020 0.929 . S
C2024 C2026 1.378 . S
C2024 C2028 1.350 . S
C2025 C2028 1.463 . S
C2025 C2030 1.350 . S
C2025 N2033 1.427 . S
C2026 H2017 0.930 . S
C2026 C2024 1.378 . S
C2026 C2027 1.367 . S
C2027 C2026 1.367 . S
C2027 C2029 1.433 . S
C2028 C2024 1.350 . S
C2028 C2025 1.463 . S
C2028 N2032 1.427 . S
C2029 H2019 0.929 . S
C2029 C2027 1.433 . S
C2029 N2032 1.384 . S
C2030 H2021 0.929 . S
C2030 C2022 1.378 . S
C2030 C2025 1.350 . S
C2031 H2018 0.929 1_554 S
C2031 C2023 1.433 . S
C2031 N2033 1.384 . S
N2032 C2028 1.427 . S
N2032 C2029 1.384 . S
N2033 C2025 1.427 . S
N2033 C2031 1.384 . S
H2034 C2040 0.930 1_556 S
H2035 C2044 0.930 . S
H2036 C2049 0.929 . S
H2037 C2047 0.929 . S
H2038 C2042 0.929 . S
H2039 C2048 0.929 . S
C2040 H2034 0.930 1_554 S
C2040 C2041 1.367 . S
C2040 C2048 1.378 . S
C2041 C2040 1.367 . S
C2041 C2049 1.433 . S
C2042 H2038 0.929 . S
C2042 C2044 1.378 . S
C2042 C2046 1.350 . S
C2043 C2046 1.463 . S
C2043 C2048 1.350 . S
C2043 N2051 1.427 . S
C2044 H2035 0.930 . S
C2044 C2042 1.378 . S
C2044 C2045 1.367 . S
C2045 C2044 1.367 . S
C2045 C2047 1.433 . S
C2046 C2042 1.350 . S
C2046 C2043 1.463 . S
C2046 N2050 1.427 . S
C2047 H2037 0.929 . S
C2047 C2045 1.433 . S
C2047 N2050 1.384 . S
C2048 H2039 0.929 . S
C2048 C2040 1.378 . S
C2048 C2043 1.350 . S
C2049 H2036 0.929 . S
C2049 C2041 1.433 . S
C2049 N2051 1.384 . S
N2050 C2046 1.427 . S
N2050 C2047 1.384 . S
N2051 C2043 1.427 . S
N2051 C2049 1.384 . S
H2052 C2058 0.930 . S
H2053 C2062 0.930 . S
H2054 C2067 0.929 . S
H2055 C2065 0.929 . S
H2056 C2060 0.929 . S
H2057 C2066 0.929 . S
C2058 H2052 0.930 . S
C2058 C2059 1.367 . S
C2058 C2066 1.378 . S
C2059 C2058 1.367 . S
C2059 C2067 1.433 . S
C2060 H2056 0.929 . S
C2060 C2062 1.378 . S
C2060 C2064 1.350 . S
C2061 C2064 1.463 1_556 S
C2061 C2066 1.350 . S
C2061 N2069 1.427 . S
C2062 H2053 0.930 . S
C2062 C2060 1.378 . S
C2062 C2063 1.367 . S
C2063 C2062 1.367 . S
C2063 C2065 1.433 . S
C2064 C2060 1.350 . S
C2064 C2061 1.463 1_554 S
C2064 N2068 1.427 . S
C2065 H2055 0.929 . S
C2065 C2063 1.433 . S
C2065 N2068 1.384 . S
C2066 H2057 0.929 . S
C2066 C2058 1.378 . S
C2066 C2061 1.350 . S
C2067 H2054 0.929 . S
C2067 C2059 1.433 . S
C2067 N2069 1.384 . S
N2068 C2064 1.427 . S
N2068 C2065 1.384 . S
N2069 C2061 1.427 . S
N2069 C2067 1.384 . S
H2070 C2076 0.930 . S
H2071 C2080 0.930 . S
H2072 C2085 0.929 . S
H2073 C2083 0.929 . S
H2074 C2078 0.929 . S
H2075 C2084 0.929 . S
C2076 H2070 0.930 . S
C2076 C2077 1.367 . S
C2076 C2084 1.378 . S
C2077 C2076 1.367 . S
C2077 C2085 1.433 . S
C2078 H2074 0.929 . S
C2078 C2080 1.378 . S
C2078 C2082 1.350 . S
C2079 C2082 1.463 1_554 S
C2079 C2084 1.350 . S
C2079 N2087 1.427 . S
C2080 H2071 0.930 . S
C2080 C2078 1.378 . S
C2080 C2081 1.367 . S
C2081 C2080 1.367 . S
C2081 C2083 1.433 . S
C2082 C2078 1.350 . S
C2082 C2079 1.463 1_556 S
C2082 N2086 1.427 . S
C2083 H2073 0.929 . S
C2083 C2081 1.433 . S
C2083 N2086 1.384 . S
C2084 H2075 0.929 . S
C2084 C2076 1.378 . S
C2084 C2079 1.350 . S
C2085 H2072 0.929 . S
C2085 C2077 1.433 . S
C2085 N2087 1.384 . S
N2086 C2082 1.427 . S
N2086 C2083 1.384 . S
N2087 C2079 1.427 . S
N2087 C2085 1.384 . S
H2088 C2094 0.930 . S
H2089 C2098 0.930 . S
H2090 C2103 0.929 . S
H2091 C2101 0.929 . S
H2092 C2096 0.929 . S
H2093 C2102 0.929 . S
C2094 H2088 0.930 . S
C2094 C2095 1.367 . S
C2094 C2102 1.378 . S
C2095 C2094 1.367 . S
C2095 C2103 1.433 . S
C2096 H2092 0.929 . S
C2096 C2098 1.378 . S
C2096 C2100 1.350 . S
C2097 C2100 1.463 1_556 S
C2097 C2102 1.350 . S
C2097 N2105 1.427 . S
C2098 H2089 0.930 . S
C2098 C2096 1.378 . S
C2098 C2099 1.367 . S
C2099 C2098 1.367 . S
C2099 C2101 1.433 . S
C2100 C2096 1.350 . S
C2100 C2097 1.463 1_554 S
C2100 N2104 1.427 . S
C2101 H2091 0.929 . S
C2101 C2099 1.433 . S
C2101 N2104 1.384 . S
C2102 H2093 0.929 . S
C2102 C2094 1.378 . S
C2102 C2097 1.350 . S
C2103 H2090 0.929 . S
C2103 C2095 1.433 . S
C2103 N2105 1.384 . S
N2104 C2100 1.427 . S
N2104 C2101 1.384 . S
N2105 C2097 1.427 . S
N2105 C2103 1.384 . S
H2106 C2112 0.930 . S
H2107 C2116 0.930 . S
H2108 C2121 0.929 . S
H2109 C2119 0.929 . S
H2110 C2114 0.929 . S
H2111 C2120 0.929 . S
C2112 H2106 0.930 . S
C2112 C2113 1.367 . S
C2112 C2120 1.378 . S
C2113 C2112 1.367 . S
C2113 C2121 1.433 . S
C2114 H2110 0.929 . S
C2114 C2116 1.378 . S
C2114 C2118 1.350 . S
C2115 C2118 1.463 . S
C2115 C2120 1.350 . S
C2115 N2123 1.427 . S
C2116 H2107 0.930 . S
C2116 C2114 1.378 . S
C2116 C2117 1.367 . S
C2117 C2116 1.367 . S
C2117 C2119 1.433 . S
C2118 C2114 1.350 . S
C2118 C2115 1.463 . S
C2118 N2122 1.427 . S
C2119 H2109 0.929 . S
C2119 C2117 1.433 . S
C2119 N2122 1.384 . S
C2120 H2111 0.929 . S
C2120 C2112 1.378 . S
C2120 C2115 1.350 . S
C2121 H2108 0.929 . S
C2121 C2113 1.433 . S
C2121 N2123 1.384 . S
N2122 C2118 1.427 . S
N2122 C2119 1.384 . S
N2123 C2115 1.427 . S
N2123 C2121 1.384 . S
H2124 C2130 0.930 . S
H2125 C2134 0.930 . S
H2126 C2139 0.929 . S
H2127 C2137 0.929 . S
H2128 C2132 0.929 . S
H2129 C2138 0.929 . S
C2130 H2124 0.930 . S
C2130 C2131 1.367 . S
C2130 C2138 1.378 . S
C2131 C2130 1.367 . S
C2131 C2139 1.433 . S
C2132 H2128 0.929 . S
C2132 C2134 1.378 . S
C2132 C2136 1.350 . S
C2133 C2136 1.463 . S
C2133 C2138 1.350 . S
C2133 N2141 1.427 . S
C2134 H2125 0.930 . S
C2134 C2132 1.378 . S
C2134 C2135 1.367 . S
C2135 C2134 1.367 . S
C2135 C2137 1.433 . S
C2136 C2132 1.350 . S
C2136 C2133 1.463 . S
C2136 N2140 1.427 . S
C2137 H2127 0.929 . S
C2137 C2135 1.433 . S
C2137 N2140 1.384 . S
C2138 H2129 0.929 . S
C2138 C2130 1.378 . S
C2138 C2133 1.350 . S
C2139 H2126 0.929 . S
C2139 C2131 1.433 . S
C2139 N2141 1.384 . S
N2140 C2136 1.427 . S
N2140 C2137 1.384 . S
N2141 C2133 1.427 . S
N2141 C2139 1.384 . S
H2142 C2148 0.930 . S
H2143 C2152 0.930 . S
H2144 C2157 0.929 . S
H2145 C2155 0.929 . S
H2146 C2150 0.929 . S
H2147 C2156 0.929 . S
C2148 H2142 0.930 . S
C2148 C2149 1.367 . S
C2148 C2156 1.378 . S
C2149 C2148 1.367 . S
C2149 C2157 1.433 . S
C2150 H2146 0.929 . S
C2150 C2152 1.378 . S
C2150 C2154 1.350 . S
C2151 C2154 1.463 . S
C2151 C2156 1.350 . S
C2151 N2159 1.427 . S
C2152 H2143 0.930 . S
C2152 C2150 1.378 . S
C2152 C2153 1.367 . S
C2153 C2152 1.367 . S
C2153 C2155 1.433 . S
C2154 C2150 1.350 . S
C2154 C2151 1.463 . S
C2154 N2158 1.427 . S
C2155 H2145 0.929 . S
C2155 C2153 1.433 . S
C2155 N2158 1.384 . S
C2156 H2147 0.929 . S
C2156 C2148 1.378 . S
C2156 C2151 1.350 . S
C2157 H2144 0.929 . S
C2157 C2149 1.433 . S
C2157 N2159 1.384 . S
N2158 C2154 1.427 . S
N2158 C2155 1.384 . S
N2159 C2151 1.427 . S
N2159 C2157 1.384 . S
H2160 C2166 0.930 . S
H2161 C2170 0.930 . S
H2162 C2175 0.929 . S
H2163 C2173 0.929 . S
H2164 C2168 0.929 . S
H2165 C2174 0.929 . S
C2166 H2160 0.930 . S
C2166 C2167 1.367 . S
C2166 C2174 1.378 . S
C2167 C2166 1.367 . S
C2167 C2175 1.433 . S
C2168 H2164 0.929 . S
C2168 C2170 1.378 . S
C2168 C2172 1.350 . S
C2169 C2172 1.463 . S
C2169 C2174 1.350 . S
C2169 N2177 1.427 . S
C2170 H2161 0.930 . S
C2170 C2168 1.378 . S
C2170 C2171 1.367 . S
C2171 C2170 1.367 . S
C2171 C2173 1.433 . S
C2172 C2168 1.350 . S
C2172 C2169 1.463 . S
C2172 N2176 1.427 . S
C2173 H2163 0.929 . S
C2173 C2171 1.433 . S
C2173 N2176 1.384 . S
C2174 H2165 0.929 . S
C2174 C2166 1.378 . S
C2174 C2169 1.350 . S
C2175 H2162 0.929 . S
C2175 C2167 1.433 . S
C2175 N2177 1.384 . S
N2176 C2172 1.427 . S
N2176 C2173 1.384 . S
N2177 C2169 1.427 . S
N2177 C2175 1.384 . S
H2178 C2184 0.930 . S
H2179 C2188 0.930 . S
H2180 C2193 0.929 . S
H2181 C2191 0.929 . S
H2182 C2186 0.929 . S
H2183 C2192 0.929 . S
C2184 H2178 0.930 . S
C2184 C2185 1.367 . S
C2184 C2192 1.378 . S
C2185 C2184 1.367 . S
C2185 C2193 1.433 . S
C2186 H2182 0.929 . S
C2186 C2188 1.378 . S
C2186 C2190 1.350 . S
C2187 C2190 1.463 1_545 S
C2187 C2192 1.350 . S
C2187 N2195 1.427 . S
C2188 H2179 0.930 . S
C2188 C2186 1.378 . S
C2188 C2189 1.367 . S
C2189 C2188 1.367 . S
C2189 C2191 1.433 . S
C2190 C2186 1.350 . S
C2190 C2187 1.463 1_565 S
C2190 N2194 1.427 . S
C2191 H2181 0.929 . S
C2191 C2189 1.433 . S
C2191 N2194 1.384 . S
C2192 H2183 0.929 . S
C2192 C2184 1.378 . S
C2192 C2187 1.350 . S
C2193 H2180 0.929 . S
C2193 C2185 1.433 . S
C2193 N2195 1.384 . S
N2194 C2190 1.427 . S
N2194 C2191 1.384 . S
N2195 C2187 1.427 . S
N2195 C2193 1.384 . S
H2196 C2202 0.930 . S
H2197 C2206 0.930 . S
H2198 C2211 0.929 . S
H2199 C2209 0.929 . S
H2200 C2204 0.929 . S
H2201 C2210 0.929 . S
C2202 H2196 0.930 . S
C2202 C2203 1.367 . S
C2202 C2210 1.378 . S
C2203 C2202 1.367 . S
C2203 C2211 1.433 . S
C2204 H2200 0.929 . S
C2204 C2206 1.378 . S
C2204 C2208 1.350 . S
C2205 C2208 1.463 1_455 S
C2205 C2210 1.350 . S
C2205 N2213 1.427 . S
C2206 H2197 0.930 . S
C2206 C2204 1.378 . S
C2206 C2207 1.367 . S
C2207 C2206 1.367 . S
C2207 C2209 1.433 . S
C2208 C2204 1.350 . S
C2208 C2205 1.463 1_655 S
C2208 N2212 1.427 . S
C2209 H2199 0.929 . S
C2209 C2207 1.433 . S
C2209 N2212 1.384 . S
C2210 H2201 0.929 . S
C2210 C2202 1.378 . S
C2210 C2205 1.350 . S
C2211 H2198 0.929 . S
C2211 C2203 1.433 . S
C2211 N2213 1.384 . S
N2212 C2208 1.427 . S
N2212 C2209 1.384 . S
N2213 C2205 1.427 . S
N2213 C2211 1.384 . S
H2214 C2220 0.930 . S
H2215 C2224 0.930 . S
H2216 C2229 0.929 . S
H2217 C2227 0.929 . S
H2218 C2222 0.929 . S
H2219 C2228 0.929 . S
C2220 H2214 0.930 . S
C2220 C2221 1.367 . S
C2220 C2228 1.378 . S
C2221 C2220 1.367 . S
C2221 C2229 1.433 . S
C2222 H2218 0.929 . S
C2222 C2224 1.378 . S
C2222 C2226 1.350 . S
C2223 C2226 1.463 . S
C2223 C2228 1.350 . S
C2223 N2231 1.427 . S
C2224 H2215 0.930 . S
C2224 C2222 1.378 . S
C2224 C2225 1.367 . S
C2225 C2224 1.367 . S
C2225 C2227 1.433 . S
C2226 C2222 1.350 . S
C2226 C2223 1.463 . S
C2226 N2230 1.427 . S
C2227 H2217 0.929 . S
C2227 C2225 1.433 . S
C2227 N2230 1.384 . S
C2228 H2219 0.929 . S
C2228 C2220 1.378 . S
C2228 C2223 1.350 . S
C2229 H2216 0.929 . S
C2229 C2221 1.433 . S
C2229 N2231 1.384 . S
N2230 C2226 1.427 . S
N2230 C2227 1.384 . S
N2231 C2223 1.427 . S
N2231 C2229 1.384 . S
H2232 C2238 0.930 . S
H2233 C2242 0.930 . S
H2234 C2247 0.929 . S
H2235 C2245 0.929 . S
H2236 C2240 0.929 . S
H2237 C2246 0.929 . S
C2238 H2232 0.930 . S
C2238 C2239 1.367 . S
C2238 C2246 1.378 . S
C2239 C2238 1.367 . S
C2239 C2247 1.433 . S
C2240 H2236 0.929 . S
C2240 C2242 1.378 . S
C2240 C2244 1.350 . S
C2241 C2244 1.463 1_545 S
C2241 C2246 1.350 . S
C2241 N2249 1.427 . S
C2242 H2233 0.930 . S
C2242 C2240 1.378 . S
C2242 C2243 1.367 . S
C2243 C2242 1.367 . S
C2243 C2245 1.433 . S
C2244 C2240 1.350 . S
C2244 C2241 1.463 1_565 S
C2244 N2248 1.427 . S
C2245 H2235 0.929 . S
C2245 C2243 1.433 . S
C2245 N2248 1.384 . S
C2246 H2237 0.929 . S
C2246 C2238 1.378 . S
C2246 C2241 1.350 . S
C2247 H2234 0.929 . S
C2247 C2239 1.433 . S
C2247 N2249 1.384 . S
N2248 C2244 1.427 . S
N2248 C2245 1.384 . S
N2249 C2241 1.427 . S
N2249 C2247 1.384 . S
H2250 C2256 0.930 . S
H2251 C2260 0.930 . S
H2252 C2265 0.929 . S
H2253 C2263 0.929 . S
H2254 C2258 0.929 . S
H2255 C2264 0.929 . S
C2256 H2250 0.930 . S
C2256 C2257 1.367 . S
C2256 C2264 1.378 . S
C2257 C2256 1.367 . S
C2257 C2265 1.433 . S
C2258 H2254 0.929 . S
C2258 C2260 1.378 . S
C2258 C2262 1.350 . S
C2259 C2262 1.463 1_655 S
C2259 C2264 1.350 . S
C2259 N2267 1.427 . S
C2260 H2251 0.930 . S
C2260 C2258 1.378 . S
C2260 C2261 1.367 . S
C2261 C2260 1.367 . S
C2261 C2263 1.433 . S
C2262 C2258 1.350 . S
C2262 C2259 1.463 1_455 S
C2262 N2266 1.427 . S
C2263 H2253 0.929 . S
C2263 C2261 1.433 . S
C2263 N2266 1.384 . S
C2264 H2255 0.929 . S
C2264 C2256 1.378 . S
C2264 C2259 1.350 . S
C2265 H2252 0.929 . S
C2265 C2257 1.433 . S
C2265 N2267 1.384 . S
N2266 C2262 1.427 . S
N2266 C2263 1.384 . S
N2267 C2259 1.427 . S
N2267 C2265 1.384 . S
H2268 C2274 0.930 . S
H2269 C2278 0.930 . S
H2270 C2283 0.929 . S
H2271 C2281 0.929 . S
H2272 C2276 0.929 . S
H2273 C2282 0.929 . S
C2274 H2268 0.930 . S
C2274 C2275 1.367 . S
C2274 C2282 1.378 . S
C2275 C2274 1.367 . S
C2275 C2283 1.433 . S
C2276 H2272 0.929 . S
C2276 C2278 1.378 . S
C2276 C2280 1.350 . S
C2277 C2280 1.463 . S
C2277 C2282 1.350 . S
C2277 N2285 1.427 . S
C2278 H2269 0.930 . S
C2278 C2276 1.378 . S
C2278 C2279 1.367 . S
C2279 C2278 1.367 . S
C2279 C2281 1.433 . S
C2280 C2276 1.350 . S
C2280 C2277 1.463 . S
C2280 N2284 1.427 . S
C2281 H2271 0.929 . S
C2281 C2279 1.433 . S
C2281 N2284 1.384 . S
C2282 H2273 0.929 . S
C2282 C2274 1.378 . S
C2282 C2277 1.350 . S
C2283 H2270 0.929 . S
C2283 C2275 1.433 . S
C2283 N2285 1.384 . S
N2284 C2280 1.427 . S
N2284 C2281 1.384 . S
N2285 C2277 1.427 . S
N2285 C2283 1.384 . S
H2286 C2292 0.930 . S
H2287 C2296 0.930 . S
H2288 C2301 0.929 . S
H2289 C2299 0.929 . S
H2290 C2294 0.929 . S
H2291 C2300 0.929 . S
C2292 H2286 0.930 . S
C2292 C2293 1.367 . S
C2292 C2300 1.378 . S
C2293 C2292 1.367 . S
C2293 C2301 1.433 . S
C2294 H2290 0.929 . S
C2294 C2296 1.378 . S
C2294 C2298 1.350 . S
C2295 C2298 1.463 . S
C2295 C2300 1.350 . S
C2295 N2303 1.427 . S
C2296 H2287 0.930 . S
C2296 C2294 1.378 . S
C2296 C2297 1.367 . S
C2297 C2296 1.367 . S
C2297 C2299 1.433 . S
C2298 C2294 1.350 . S
C2298 C2295 1.463 . S
C2298 N2302 1.427 . S
C2299 H2289 0.929 . S
C2299 C2297 1.433 . S
C2299 N2302 1.384 . S
C2300 H2291 0.929 . S
C2300 C2292 1.378 . S
C2300 C2295 1.350 . S
C2301 H2288 0.929 . S
C2301 C2293 1.433 . S
C2301 N2303 1.384 . S
N2302 C2298 1.427 . S
N2302 C2299 1.384 . S
N2303 C2295 1.427 . S
N2303 C2301 1.384 . S
H2304 C2310 0.930 . S
H2305 C2314 0.930 . S
H2306 C2319 0.929 . S
H2307 C2317 0.929 . S
H2308 C2312 0.929 . S
H2309 C2318 0.929 . S
C2310 H2304 0.930 . S
C2310 C2311 1.367 . S
C2310 C2318 1.378 . S
C2311 C2310 1.367 . S
C2311 C2319 1.433 . S
C2312 H2308 0.929 . S
C2312 C2314 1.378 . S
C2312 C2316 1.350 . S
C2313 C2316 1.463 . S
C2313 C2318 1.350 . S
C2313 N2321 1.427 . S
C2314 H2305 0.930 . S
C2314 C2312 1.378 . S
C2314 C2315 1.367 . S
C2315 C2314 1.367 . S
C2315 C2317 1.433 . S
C2316 C2312 1.350 . S
C2316 C2313 1.463 . S
C2316 N2320 1.427 . S
C2317 H2307 0.929 . S
C2317 C2315 1.433 . S
C2317 N2320 1.384 . S
C2318 H2309 0.929 . S
C2318 C2310 1.378 . S
C2318 C2313 1.350 . S
C2319 H2306 0.929 . S
C2319 C2311 1.433 . S
C2319 N2321 1.384 . S
N2320 C2316 1.427 . S
N2320 C2317 1.384 . S
N2321 C2313 1.427 . S
N2321 C2319 1.384 . S
H2322 C2328 0.930 . S
H2323 C2332 0.930 . S
H2324 C2337 0.929 . S
H2325 C2335 0.929 . S
H2326 C2330 0.929 . S
H2327 C2336 0.929 . S
C2328 H2322 0.930 . S
C2328 C2329 1.367 . S
C2328 C2336 1.378 . S
C2329 C2328 1.367 . S
C2329 C2337 1.433 . S
C2330 H2326 0.929 . S
C2330 C2332 1.378 . S
C2330 C2334 1.350 . S
C2331 C2334 1.463 . S
C2331 C2336 1.350 . S
C2331 N2339 1.427 . S
C2332 H2323 0.930 . S
C2332 C2330 1.378 . S
C2332 C2333 1.367 . S
C2333 C2332 1.367 . S
C2333 C2335 1.433 . S
C2334 C2330 1.350 . S
C2334 C2331 1.463 . S
C2334 N2338 1.427 . S
C2335 H2325 0.929 . S
C2335 C2333 1.433 . S
C2335 N2338 1.384 . S
C2336 H2327 0.929 . S
C2336 C2328 1.378 . S
C2336 C2331 1.350 . S
C2337 H2324 0.929 . S
C2337 C2329 1.433 . S
C2337 N2339 1.384 . S
N2338 C2334 1.427 . S
N2338 C2335 1.384 . S
N2339 C2331 1.427 . S
N2339 C2337 1.384 . S
H2340 C2346 0.930 . S
H2341 C2350 0.930 . S
H2342 C2355 0.929 . S
H2343 C2353 0.929 . S
H2344 C2348 0.929 . S
H2345 C2354 0.929 . S
C2346 H2340 0.930 . S
C2346 C2347 1.367 . S
C2346 C2354 1.378 . S
C2347 C2346 1.367 . S
C2347 C2355 1.433 . S
C2348 H2344 0.929 . S
C2348 C2350 1.378 . S
C2348 C2352 1.350 . S
C2349 C2352 1.463 . S
C2349 C2354 1.350 . S
C2349 N2357 1.427 . S
C2350 H2341 0.930 . S
C2350 C2348 1.378 . S
C2350 C2351 1.367 . S
C2351 C2350 1.367 . S
C2351 C2353 1.433 . S
C2352 C2348 1.350 . S
C2352 C2349 1.463 . S
C2352 N2356 1.427 . S
C2353 H2343 0.929 . S
C2353 C2351 1.433 . S
C2353 N2356 1.384 . S
C2354 H2345 0.929 . S
C2354 C2346 1.378 . S
C2354 C2349 1.350 . S
C2355 H2342 0.929 . S
C2355 C2347 1.433 . S
C2355 N2357 1.384 . S
N2356 C2352 1.427 . S
N2356 C2353 1.384 . S
N2357 C2349 1.427 . S
N2357 C2355 1.384 . S
H2358 C2364 0.930 . S
H2359 C2368 0.930 . S
H2360 C2373 0.929 . S
H2361 C2371 0.929 . S
H2362 C2366 0.929 . S
H2363 C2372 0.929 . S
C2364 H2358 0.930 . S
C2364 C2365 1.367 . S
C2364 C2372 1.378 . S
C2365 C2364 1.367 . S
C2365 C2373 1.433 . S
C2366 H2362 0.929 . S
C2366 C2368 1.378 . S
C2366 C2370 1.350 . S
C2367 C2370 1.463 . S
C2367 C2372 1.350 . S
C2367 N2375 1.427 . S
C2368 H2359 0.930 . S
C2368 C2366 1.378 . S
C2368 C2369 1.367 . S
C2369 C2368 1.367 . S
C2369 C2371 1.433 . S
C2370 C2366 1.350 . S
C2370 C2367 1.463 . S
C2370 N2374 1.427 . S
C2371 H2361 0.929 . S
C2371 C2369 1.433 . S
C2371 N2374 1.384 . S
C2372 H2363 0.929 . S
C2372 C2364 1.378 . S
C2372 C2367 1.350 . S
C2373 H2360 0.929 . S
C2373 C2365 1.433 . S
C2373 N2375 1.384 . S
N2374 C2370 1.427 . S
N2374 C2371 1.384 . S
N2375 C2367 1.427 . S
N2375 C2373 1.384 . S
H2376 C2382 0.930 . S
H2377 C2386 0.930 . S
H2378 C2391 0.929 . S
H2379 C2389 0.929 . S
H2380 C2384 0.929 . S
H2381 C2390 0.929 . S
C2382 H2376 0.930 . S
C2382 C2383 1.367 . S
C2382 C2390 1.378 . S
C2383 C2382 1.367 . S
C2383 C2391 1.433 . S
C2384 H2380 0.929 . S
C2384 C2386 1.378 . S
C2384 C2388 1.350 . S
C2385 C2388 1.463 . S
C2385 C2390 1.350 . S
C2385 N2393 1.427 . S
C2386 H2377 0.930 . S
C2386 C2384 1.378 . S
C2386 C2387 1.367 . S
C2387 C2386 1.367 . S
C2387 C2389 1.433 . S
C2388 C2384 1.350 . S
C2388 C2385 1.463 . S
C2388 N2392 1.427 . S
C2389 H2379 0.929 . S
C2389 C2387 1.433 . S
C2389 N2392 1.384 . S
C2390 H2381 0.929 . S
C2390 C2382 1.378 . S
C2390 C2385 1.350 . S
C2391 H2378 0.929 . S
C2391 C2383 1.433 . S
C2391 N2393 1.384 . S
N2392 C2388 1.427 . S
N2392 C2389 1.384 . S
N2393 C2385 1.427 . S
N2393 C2391 1.384 . S
H2394 C2400 0.930 . S
H2395 C2404 0.930 . S
H2396 C2409 0.929 . S
H2397 C2407 0.929 . S
H2398 C2402 0.929 . S
H2399 C2408 0.929 . S
C2400 H2394 0.930 . S
C2400 C2401 1.367 . S
C2400 C2408 1.378 . S
C2401 C2400 1.367 . S
C2401 C2409 1.433 . S
C2402 H2398 0.929 . S
C2402 C2404 1.378 . S
C2402 C2406 1.350 . S
C2403 C2406 1.463 . S
C2403 C2408 1.350 . S
C2403 N2411 1.427 . S
C2404 H2395 0.930 . S
C2404 C2402 1.378 . S
C2404 C2405 1.367 . S
C2405 C2404 1.367 . S
C2405 C2407 1.433 . S
C2406 C2402 1.350 . S
C2406 C2403 1.463 . S
C2406 N2410 1.427 . S
C2407 H2397 0.929 . S
C2407 C2405 1.433 . S
C2407 N2410 1.384 . S
C2408 H2399 0.929 . S
C2408 C2400 1.378 . S
C2408 C2403 1.350 . S
C2409 H2396 0.929 . S
C2409 C2401 1.433 . S
C2409 N2411 1.384 . S
N2410 C2406 1.427 . S
N2410 C2407 1.384 . S
N2411 C2403 1.427 . S
N2411 C2409 1.384 . S
H2412 C2418 0.930 . S
H2413 C2422 0.930 . S
H2414 C2427 0.929 . S
H2415 C2425 0.929 . S
H2416 C2420 0.929 . S
H2417 C2426 0.929 . S
C2418 H2412 0.930 . S
C2418 C2419 1.367 . S
C2418 C2426 1.378 . S
C2419 C2418 1.367 . S
C2419 C2427 1.433 . S
C2420 H2416 0.929 . S
C2420 C2422 1.378 . S
C2420 C2424 1.350 . S
C2421 C2424 1.463 . S
C2421 C2426 1.350 . S
C2421 N2429 1.427 . S
C2422 H2413 0.930 . S
C2422 C2420 1.378 . S
C2422 C2423 1.367 . S
C2423 C2422 1.367 . S
C2423 C2425 1.433 . S
C2424 C2420 1.350 . S
C2424 C2421 1.463 . S
C2424 N2428 1.427 . S
C2425 H2415 0.929 . S
C2425 C2423 1.433 . S
C2425 N2428 1.384 . S
C2426 H2417 0.929 . S
C2426 C2418 1.378 . S
C2426 C2421 1.350 . S
C2427 H2414 0.929 . S
C2427 C2419 1.433 . S
C2427 N2429 1.384 . S
N2428 C2424 1.427 . S
N2428 C2425 1.384 . S
N2429 C2421 1.427 . S
N2429 C2427 1.384 . S
H2430 C2436 0.930 . S
H2431 C2440 0.930 . S
H2432 C2445 0.929 . S
H2433 C2443 0.929 . S
H2434 C2438 0.929 . S
H2435 C2444 0.929 . S
C2436 H2430 0.930 . S
C2436 C2437 1.367 . S
C2436 C2444 1.378 . S
C2437 C2436 1.367 . S
C2437 C2445 1.433 . S
C2438 H2434 0.929 . S
C2438 C2440 1.378 . S
C2438 C2442 1.350 . S
C2439 C2442 1.463 1_554 S
C2439 C2444 1.350 . S
C2439 N2447 1.427 . S
C2440 H2431 0.930 . S
C2440 C2438 1.378 . S
C2440 C2441 1.367 . S
C2441 C2440 1.367 . S
C2441 C2443 1.433 . S
C2442 C2438 1.350 . S
C2442 C2439 1.463 1_556 S
C2442 N2446 1.427 . S
C2443 H2433 0.929 . S
C2443 C2441 1.433 . S
C2443 N2446 1.384 . S
C2444 H2435 0.929 . S
C2444 C2436 1.378 . S
C2444 C2439 1.350 . S
C2445 H2432 0.929 . S
C2445 C2437 1.433 . S
C2445 N2447 1.384 . S
N2446 C2442 1.427 . S
N2446 C2443 1.384 . S
N2447 C2439 1.427 . S
N2447 C2445 1.384 . S
H2448 C2454 0.930 . S
H2449 C2458 0.930 . S
H2450 C2463 0.929 . S
H2451 C2461 0.929 . S
H2452 C2456 0.929 1_554 S
H2453 C2462 0.929 . S
C2454 H2448 0.930 . S
C2454 C2455 1.367 . S
C2454 C2462 1.378 1_554 S
C2455 C2454 1.367 . S
C2455 C2463 1.433 . S
C2456 H2452 0.929 1_556 S
C2456 C2458 1.378 . S
C2456 C2460 1.350 . S
C2457 C2460 1.463 1_554 S
C2457 C2462 1.350 1_554 S
C2457 N2465 1.427 . S
C2458 H2449 0.930 . S
C2458 C2456 1.378 . S
C2458 C2459 1.367 . S
C2459 C2458 1.367 . S
C2459 C2461 1.433 . S
C2460 C2456 1.350 . S
C2460 C2457 1.463 1_556 S
C2460 N2464 1.427 . S
C2461 H2451 0.929 . S
C2461 C2459 1.433 . S
C2461 N2464 1.384 . S
C2462 H2453 0.929 . S
C2462 C2454 1.378 1_556 S
C2462 C2457 1.350 1_556 S
C2463 H2450 0.929 . S
C2463 C2455 1.433 . S
C2463 N2465 1.384 . S
N2464 C2460 1.427 . S
N2464 C2461 1.384 . S
N2465 C2457 1.427 . S
N2465 C2463 1.384 . S
H2466 C2472 0.930 . S
H2467 C2476 0.930 . S
H2468 C2481 0.929 . S
H2469 C2479 0.929 . S
H2470 C2474 0.929 . S
H2471 C2480 0.929 . S
C2472 H2466 0.930 . S
C2472 C2473 1.367 . S
C2472 C2480 1.378 . S
C2473 C2472 1.367 . S
C2473 C2481 1.433 . S
C2474 H2470 0.929 . S
C2474 C2476 1.378 . S
C2474 C2478 1.350 . S
C2475 C2478 1.463 1_554 S
C2475 C2480 1.350 . S
C2475 N2483 1.427 . S
C2476 H2467 0.930 . S
C2476 C2474 1.378 . S
C2476 C2477 1.367 . S
C2477 C2476 1.367 . S
C2477 C2479 1.433 . S
C2478 C2474 1.350 . S
C2478 C2475 1.463 1_556 S
C2478 N2482 1.427 . S
C2479 H2469 0.929 . S
C2479 C2477 1.433 . S
C2479 N2482 1.384 . S
C2480 H2471 0.929 . S
C2480 C2472 1.378 . S
C2480 C2475 1.350 . S
C2481 H2468 0.929 . S
C2481 C2473 1.433 . S
C2481 N2483 1.384 . S
N2482 C2478 1.427 . S
N2482 C2479 1.384 . S
N2483 C2475 1.427 . S
N2483 C2481 1.384 . S
H2484 C2490 0.930 . S
H2485 C2494 0.930 . S
H2486 C2499 0.929 . S
H2487 C2497 0.929 . S
H2488 C2492 0.929 . S
H2489 C2498 0.929 . S
C2490 H2484 0.930 . S
C2490 C2491 1.367 1_554 S
C2490 C2498 1.378 . S
C2491 C2490 1.367 1_556 S
C2491 C2499 1.433 . S
C2492 H2488 0.929 . S
C2492 C2494 1.378 . S
C2492 C2496 1.350 . S
C2493 C2496 1.463 . S
C2493 C2498 1.350 1_556 S
C2493 N2501 1.427 . S
C2494 H2485 0.930 . S
C2494 C2492 1.378 . S
C2494 C2495 1.367 . S
C2495 C2494 1.367 . S
C2495 C2497 1.433 1_556 S
C2496 C2492 1.350 . S
C2496 C2493 1.463 . S
C2496 N2500 1.427 1_556 S
C2497 H2487 0.929 . S
C2497 C2495 1.433 1_554 S
C2497 N2500 1.384 . S
C2498 H2489 0.929 . S
C2498 C2490 1.378 . S
C2498 C2493 1.350 1_554 S
C2499 H2486 0.929 . S
C2499 C2491 1.433 . S
C2499 N2501 1.384 . S
N2500 C2496 1.427 1_554 S
N2500 C2497 1.384 . S
N2501 C2493 1.427 . S
N2501 C2499 1.384 . S
H2502 C2508 0.930 . S
H2503 C2512 0.930 . S
H2504 C2517 0.929 . S
H2505 C2515 0.929 . S
H2506 C2510 0.929 . S
H2507 C2516 0.929 . S
C2508 H2502 0.930 . S
C2508 C2509 1.367 1_554 S
C2508 C2516 1.378 . S
C2509 C2508 1.367 1_556 S
C2509 C2517 1.433 . S
C2510 H2506 0.929 . S
C2510 C2512 1.378 . S
C2510 C2514 1.350 . S
C2511 C2514 1.463 . S
C2511 C2516 1.350 1_556 S
C2511 N2519 1.427 . S
C2512 H2503 0.930 . S
C2512 C2510 1.378 . S
C2512 C2513 1.367 . S
C2513 C2512 1.367 . S
C2513 C2515 1.433 1_556 S
C2514 C2510 1.350 . S
C2514 C2511 1.463 . S
C2514 N2518 1.427 1_556 S
C2515 H2505 0.929 . S
C2515 C2513 1.433 1_554 S
C2515 N2518 1.384 . S
C2516 H2507 0.929 . S
C2516 C2508 1.378 . S
C2516 C2511 1.350 1_554 S
C2517 H2504 0.929 . S
C2517 C2509 1.433 . S
C2517 N2519 1.384 . S
N2518 C2514 1.427 1_554 S
N2518 C2515 1.384 . S
N2519 C2511 1.427 . S
N2519 C2517 1.384 . S
H2520 C2526 0.930 . S
H2521 C2530 0.930 . S
H2522 C2535 0.929 . S
H2523 C2533 0.929 . S
H2524 C2528 0.929 . S
H2525 C2534 0.929 . S
C2526 H2520 0.930 . S
C2526 C2527 1.367 . S
C2526 C2534 1.378 . S
C2527 C2526 1.367 . S
C2527 C2535 1.433 1_556 S
C2528 H2524 0.929 . S
C2528 C2530 1.378 . S
C2528 C2532 1.350 1_554 S
C2529 C2532 1.463 . S
C2529 C2534 1.350 . S
C2529 N2537 1.427 1_556 S
C2530 H2521 0.930 . S
C2530 C2528 1.378 . S
C2530 C2531 1.367 1_554 S
C2531 C2530 1.367 1_556 S
C2531 C2533 1.433 . S
C2532 C2528 1.350 1_556 S
C2532 C2529 1.463 . S
C2532 N2536 1.427 . S
C2533 H2523 0.929 . S
C2533 C2531 1.433 . S
C2533 N2536 1.384 . S
C2534 H2525 0.929 . S
C2534 C2526 1.378 . S
C2534 C2529 1.350 . S
C2535 H2522 0.929 . S
C2535 C2527 1.433 1_554 S
C2535 N2537 1.384 . S
N2536 C2532 1.427 . S
N2536 C2533 1.384 . S
N2537 C2529 1.427 1_554 S
N2537 C2535 1.384 . S
H2538 C2544 0.930 . S
H2539 C2548 0.930 . S
H2540 C2553 0.929 . S
H2541 C2551 0.929 . S
H2542 C2546 0.929 . S
H2543 C2552 0.929 . S
C2544 H2538 0.930 . S
C2544 C2545 1.367 . S
C2544 C2552 1.378 . S
C2545 C2544 1.367 . S
C2545 C2553 1.433 . S
C2546 H2542 0.929 . S
C2546 C2548 1.378 . S
C2546 C2550 1.350 . S
C2547 C2550 1.463 . S
C2547 C2552 1.350 . S
C2547 N2555 1.427 . S
C2548 H2539 0.930 . S
C2548 C2546 1.378 . S
C2548 C2549 1.367 . S
C2549 C2548 1.367 . S
C2549 C2551 1.433 . S
C2550 C2546 1.350 . S
C2550 C2547 1.463 . S
C2550 N2554 1.427 . S
C2551 H2541 0.929 . S
C2551 C2549 1.433 . S
C2551 N2554 1.384 . S
C2552 H2543 0.929 . S
C2552 C2544 1.378 . S
C2552 C2547 1.350 . S
C2553 H2540 0.929 . S
C2553 C2545 1.433 . S
C2553 N2555 1.384 . S
N2554 C2550 1.427 . S
N2554 C2551 1.384 . S
N2555 C2547 1.427 . S
N2555 C2553 1.384 . S
H2556 C2562 0.930 . S
H2557 C2566 0.930 . S
H2558 C2571 0.929 . S
H2559 C2569 0.929 . S
H2560 C2564 0.929 . S
H2561 C2570 0.929 . S
C2562 H2556 0.930 . S
C2562 C2563 1.367 . S
C2562 C2570 1.378 . S
C2563 C2562 1.367 . S
C2563 C2571 1.433 . S
C2564 H2560 0.929 . S
C2564 C2566 1.378 . S
C2564 C2568 1.350 . S
C2565 C2568 1.463 . S
C2565 C2570 1.350 . S
C2565 N2573 1.427 . S
C2566 H2557 0.930 . S
C2566 C2564 1.378 . S
C2566 C2567 1.367 . S
C2567 C2566 1.367 . S
C2567 C2569 1.433 . S
C2568 C2564 1.350 . S
C2568 C2565 1.463 . S
C2568 N2572 1.427 . S
C2569 H2559 0.929 . S
C2569 C2567 1.433 . S
C2569 N2572 1.384 . S
C2570 H2561 0.929 . S
C2570 C2562 1.378 . S
C2570 C2565 1.350 . S
C2571 H2558 0.929 . S
C2571 C2563 1.433 . S
C2571 N2573 1.384 . S
N2572 C2568 1.427 . S
N2572 C2569 1.384 . S
N2573 C2565 1.427 . S
N2573 C2571 1.384 . S
H2574 C2580 0.930 . S
H2575 C2584 0.930 . S
H2576 C2589 0.929 . S
H2577 C2587 0.929 . S
H2578 C2582 0.929 . S
H2579 C2588 0.929 . S
C2580 H2574 0.930 . S
C2580 C2581 1.367 . S
C2580 C2588 1.378 . S
C2581 C2580 1.367 . S
C2581 C2589 1.433 . S
C2582 H2578 0.929 . S
C2582 C2584 1.378 . S
C2582 C2586 1.350 . S
C2583 C2586 1.463 . S
C2583 C2588 1.350 . S
C2583 N2591 1.427 . S
C2584 H2575 0.930 . S
C2584 C2582 1.378 . S
C2584 C2585 1.367 . S
C2585 C2584 1.367 . S
C2585 C2587 1.433 . S
C2586 C2582 1.350 . S
C2586 C2583 1.463 . S
C2586 N2590 1.427 . S
C2587 H2577 0.929 . S
C2587 C2585 1.433 . S
C2587 N2590 1.384 . S
C2588 H2579 0.929 . S
C2588 C2580 1.378 . S
C2588 C2583 1.350 . S
C2589 H2576 0.929 . S
C2589 C2581 1.433 . S
C2589 N2591 1.384 . S
N2590 C2586 1.427 . S
N2590 C2587 1.384 . S
N2591 C2583 1.427 . S
N2591 C2589 1.384 . S
H2592 C2598 0.930 . S
H2593 C2602 0.930 . S
H2594 C2607 0.929 . S
H2595 C2605 0.929 . S
H2596 C2600 0.929 . S
H2597 C2606 0.929 . S
C2598 H2592 0.930 . S
C2598 C2599 1.367 . S
C2598 C2606 1.378 . S
C2599 C2598 1.367 . S
C2599 C2607 1.433 . S
C2600 H2596 0.929 . S
C2600 C2602 1.378 . S
C2600 C2604 1.350 . S
C2601 C2604 1.463 . S
C2601 C2606 1.350 . S
C2601 N2609 1.427 . S
C2602 H2593 0.930 . S
C2602 C2600 1.378 . S
C2602 C2603 1.367 . S
C2603 C2602 1.367 . S
C2603 C2605 1.433 . S
C2604 C2600 1.350 . S
C2604 C2601 1.463 . S
C2604 N2608 1.427 . S
C2605 H2595 0.929 . S
C2605 C2603 1.433 . S
C2605 N2608 1.384 . S
C2606 H2597 0.929 . S
C2606 C2598 1.378 . S
C2606 C2601 1.350 . S
C2607 H2594 0.929 . S
C2607 C2599 1.433 . S
C2607 N2609 1.384 . S
N2608 C2604 1.427 . S
N2608 C2605 1.384 . S
N2609 C2601 1.427 . S
N2609 C2607 1.384 . S
H2610 C2616 0.930 . S
H2611 C2620 0.930 . S
H2612 C2625 0.929 . S
H2613 C2623 0.929 . S
H2614 C2618 0.929 . S
H2615 C2624 0.929 . S
C2616 H2610 0.930 . S
C2616 C2617 1.367 . S
C2616 C2624 1.378 . S
C2617 C2616 1.367 . S
C2617 C2625 1.433 . S
C2618 H2614 0.929 . S
C2618 C2620 1.378 . S
C2618 C2622 1.350 . S
C2619 C2622 1.463 . S
C2619 C2624 1.350 . S
C2619 N2627 1.427 . S
C2620 H2611 0.930 . S
C2620 C2618 1.378 . S
C2620 C2621 1.367 . S
C2621 C2620 1.367 . S
C2621 C2623 1.433 . S
C2622 C2618 1.350 . S
C2622 C2619 1.463 . S
C2622 N2626 1.427 . S
C2623 H2613 0.929 . S
C2623 C2621 1.433 . S
C2623 N2626 1.384 . S
C2624 H2615 0.929 . S
C2624 C2616 1.378 . S
C2624 C2619 1.350 . S
C2625 H2612 0.929 . S
C2625 C2617 1.433 . S
C2625 N2627 1.384 . S
N2626 C2622 1.427 . S
N2626 C2623 1.384 . S
N2627 C2619 1.427 . S
N2627 C2625 1.384 . S
H2628 C2634 0.930 . S
H2629 C2638 0.930 . S
H2630 C2643 0.929 . S
H2631 C2641 0.929 . S
H2632 C2636 0.929 . S
H2633 C2642 0.929 . S
C2634 H2628 0.930 . S
C2634 C2635 1.367 . S
C2634 C2642 1.378 . S
C2635 C2634 1.367 . S
C2635 C2643 1.433 . S
C2636 H2632 0.929 . S
C2636 C2638 1.378 . S
C2636 C2640 1.350 . S
C2637 C2640 1.463 . S
C2637 C2642 1.350 . S
C2637 N2645 1.427 . S
C2638 H2629 0.930 . S
C2638 C2636 1.378 . S
C2638 C2639 1.367 . S
C2639 C2638 1.367 . S
C2639 C2641 1.433 . S
C2640 C2636 1.350 . S
C2640 C2637 1.463 . S
C2640 N2644 1.427 . S
C2641 H2631 0.929 . S
C2641 C2639 1.433 . S
C2641 N2644 1.384 . S
C2642 H2633 0.929 . S
C2642 C2634 1.378 . S
C2642 C2637 1.350 . S
C2643 H2630 0.929 . S
C2643 C2635 1.433 . S
C2643 N2645 1.384 . S
N2644 C2640 1.427 . S
N2644 C2641 1.384 . S
N2645 C2637 1.427 . S
N2645 C2643 1.384 . S
H2646 C2652 0.930 . S
H2647 C2656 0.930 . S
H2648 C2661 0.929 . S
H2649 C2659 0.929 . S
H2650 C2654 0.929 . S
H2651 C2660 0.929 . S
C2652 H2646 0.930 . S
C2652 C2653 1.367 . S
C2652 C2660 1.378 . S
C2653 C2652 1.367 . S
C2653 C2661 1.433 . S
C2654 H2650 0.929 . S
C2654 C2656 1.378 . S
C2654 C2658 1.350 . S
C2655 C2658 1.463 . S
C2655 C2660 1.350 . S
C2655 N2663 1.427 . S
C2656 H2647 0.930 . S
C2656 C2654 1.378 . S
C2656 C2657 1.367 . S
C2657 C2656 1.367 . S
C2657 C2659 1.433 . S
C2658 C2654 1.350 . S
C2658 C2655 1.463 . S
C2658 N2662 1.427 . S
C2659 H2649 0.929 . S
C2659 C2657 1.433 . S
C2659 N2662 1.384 . S
C2660 H2651 0.929 . S
C2660 C2652 1.378 . S
C2660 C2655 1.350 . S
C2661 H2648 0.929 . S
C2661 C2653 1.433 . S
C2661 N2663 1.384 . S
N2662 C2658 1.427 . S
N2662 C2659 1.384 . S
N2663 C2655 1.427 . S
N2663 C2661 1.384 . S
H2664 C2670 0.930 . S
H2665 C2674 0.930 . S
H2666 C2679 0.929 . S
H2667 C2677 0.929 . S
H2668 C2672 0.929 . S
H2669 C2678 0.929 . S
C2670 H2664 0.930 . S
C2670 C2671 1.367 . S
C2670 C2678 1.378 . S
C2671 C2670 1.367 . S
C2671 C2679 1.433 . S
C2672 H2668 0.929 . S
C2672 C2674 1.378 . S
C2672 C2676 1.350 . S
C2673 C2676 1.463 . S
C2673 C2678 1.350 . S
C2673 N2681 1.427 . S
C2674 H2665 0.930 . S
C2674 C2672 1.378 . S
C2674 C2675 1.367 . S
C2675 C2674 1.367 . S
C2675 C2677 1.433 . S
C2676 C2672 1.350 . S
C2676 C2673 1.463 . S
C2676 N2680 1.427 . S
C2677 H2667 0.929 . S
C2677 C2675 1.433 . S
C2677 N2680 1.384 . S
C2678 H2669 0.929 . S
C2678 C2670 1.378 . S
C2678 C2673 1.350 . S
C2679 H2666 0.929 . S
C2679 C2671 1.433 . S
C2679 N2681 1.384 . S
N2680 C2676 1.427 . S
N2680 C2677 1.384 . S
N2681 C2673 1.427 . S
N2681 C2679 1.384 . S
H2682 C2688 0.930 . S
H2683 C2692 0.930 . S
H2684 C2697 0.929 . S
H2685 C2695 0.929 . S
H2686 C2690 0.929 . S
H2687 C2696 0.929 . S
C2688 H2682 0.930 . S
C2688 C2689 1.367 . S
C2688 C2696 1.378 . S
C2689 C2688 1.367 . S
C2689 C2697 1.433 . S
C2690 H2686 0.929 . S
C2690 C2692 1.378 . S
C2690 C2694 1.350 . S
C2691 C2694 1.463 . S
C2691 C2696 1.350 . S
C2691 N2699 1.427 . S
C2692 H2683 0.930 . S
C2692 C2690 1.378 . S
C2692 C2693 1.367 . S
C2693 C2692 1.367 . S
C2693 C2695 1.433 . S
C2694 C2690 1.350 . S
C2694 C2691 1.463 . S
C2694 N2698 1.427 . S
C2695 H2685 0.929 . S
C2695 C2693 1.433 . S
C2695 N2698 1.384 . S
C2696 H2687 0.929 . S
C2696 C2688 1.378 . S
C2696 C2691 1.350 . S
C2697 H2684 0.929 . S
C2697 C2689 1.433 . S
C2697 N2699 1.384 . S
N2698 C2694 1.427 . S
N2698 C2695 1.384 . S
N2699 C2691 1.427 . S
N2699 C2697 1.384 . S
H2700 C2706 0.930 . S
H2701 C2710 0.930 . S
H2702 C2715 0.929 . S
H2703 C2713 0.929 . S
H2704 C2708 0.929 . S
H2705 C2714 0.929 . S
C2706 H2700 0.930 . S
C2706 C2707 1.367 . S
C2706 C2714 1.378 . S
C2707 C2706 1.367 . S
C2707 C2715 1.433 . S
C2708 H2704 0.929 . S
C2708 C2710 1.378 . S
C2708 C2712 1.350 . S
C2709 C2712 1.463 1_455 S
C2709 C2714 1.350 . S
C2709 N2717 1.427 . S
C2710 H2701 0.930 . S
C2710 C2708 1.378 . S
C2710 C2711 1.367 . S
C2711 C2710 1.367 . S
C2711 C2713 1.433 . S
C2712 C2708 1.350 . S
C2712 C2709 1.463 1_655 S
C2712 N2716 1.427 . S
C2713 H2703 0.929 . S
C2713 C2711 1.433 . S
C2713 N2716 1.384 . S
C2714 H2705 0.929 . S
C2714 C2706 1.378 . S
C2714 C2709 1.350 . S
C2715 H2702 0.929 . S
C2715 C2707 1.433 . S
C2715 N2717 1.384 . S
N2716 C2712 1.427 . S
N2716 C2713 1.384 . S
N2717 C2709 1.427 . S
N2717 C2715 1.384 . S
H2718 C2724 0.930 . S
H2719 C2728 0.930 . S
H2720 C2733 0.929 . S
H2721 C2731 0.929 . S
H2722 C2726 0.929 . S
H2723 C2732 0.929 . S
C2724 H2718 0.930 . S
C2724 C2725 1.367 . S
C2724 C2732 1.378 . S
C2725 C2724 1.367 . S
C2725 C2733 1.433 . S
C2726 H2722 0.929 . S
C2726 C2728 1.378 . S
C2726 C2730 1.350 . S
C2727 C2730 1.463 . S
C2727 C2732 1.350 . S
C2727 N2735 1.427 . S
C2728 H2719 0.930 . S
C2728 C2726 1.378 . S
C2728 C2729 1.367 . S
C2729 C2728 1.367 . S
C2729 C2731 1.433 . S
C2730 C2726 1.350 . S
C2730 C2727 1.463 . S
C2730 N2734 1.427 . S
C2731 H2721 0.929 . S
C2731 C2729 1.433 . S
C2731 N2734 1.384 . S
C2732 H2723 0.929 . S
C2732 C2724 1.378 . S
C2732 C2727 1.350 . S
C2733 H2720 0.929 . S
C2733 C2725 1.433 . S
C2733 N2735 1.384 . S
N2734 C2730 1.427 . S
N2734 C2731 1.384 . S
N2735 C2727 1.427 . S
N2735 C2733 1.384 . S
H2736 C2742 0.930 . S
H2737 C2746 0.930 . S
H2738 C2751 0.929 . S
H2739 C2749 0.929 . S
H2740 C2744 0.929 . S
H2741 C2750 0.929 . S
C2742 H2736 0.930 . S
C2742 C2743 1.367 . S
C2742 C2750 1.378 . S
C2743 C2742 1.367 . S
C2743 C2751 1.433 . S
C2744 H2740 0.929 . S
C2744 C2746 1.378 . S
C2744 C2748 1.350 . S
C2745 C2748 1.463 1_545 S
C2745 C2750 1.350 . S
C2745 N2753 1.427 . S
C2746 H2737 0.930 . S
C2746 C2744 1.378 . S
C2746 C2747 1.367 . S
C2747 C2746 1.367 . S
C2747 C2749 1.433 . S
C2748 C2744 1.350 . S
C2748 C2745 1.463 1_565 S
C2748 N2752 1.427 . S
C2749 H2739 0.929 . S
C2749 C2747 1.433 . S
C2749 N2752 1.384 . S
C2750 H2741 0.929 . S
C2750 C2742 1.378 . S
C2750 C2745 1.350 . S
C2751 H2738 0.929 . S
C2751 C2743 1.433 . S
C2751 N2753 1.384 . S
N2752 C2748 1.427 . S
N2752 C2749 1.384 . S
N2753 C2745 1.427 . S
N2753 C2751 1.384 . S
H2754 C2760 0.930 . S
H2755 C2764 0.930 . S
H2756 C2769 0.929 . S
H2757 C2767 0.929 . S
H2758 C2762 0.929 . S
H2759 C2768 0.929 . S
C2760 H2754 0.930 . S
C2760 C2761 1.367 . S
C2760 C2768 1.378 . S
C2761 C2760 1.367 . S
C2761 C2769 1.433 . S
C2762 H2758 0.929 . S
C2762 C2764 1.378 . S
C2762 C2766 1.350 . S
C2763 C2766 1.463 1_565 S
C2763 C2768 1.350 . S
C2763 N2771 1.427 . S
C2764 H2755 0.930 . S
C2764 C2762 1.378 . S
C2764 C2765 1.367 . S
C2765 C2764 1.367 . S
C2765 C2767 1.433 . S
C2766 C2762 1.350 . S
C2766 C2763 1.463 1_545 S
C2766 N2770 1.427 . S
C2767 H2757 0.929 . S
C2767 C2765 1.433 . S
C2767 N2770 1.384 . S
C2768 H2759 0.929 . S
C2768 C2760 1.378 . S
C2768 C2763 1.350 . S
C2769 H2756 0.929 . S
C2769 C2761 1.433 . S
C2769 N2771 1.384 . S
N2770 C2766 1.427 . S
N2770 C2767 1.384 . S
N2771 C2763 1.427 . S
N2771 C2769 1.384 . S
H2772 C2778 0.930 . S
H2773 C2782 0.930 . S
H2774 C2787 0.929 . S
H2775 C2785 0.929 . S
H2776 C2780 0.929 . S
H2777 C2786 0.929 . S
C2778 H2772 0.930 . S
C2778 C2779 1.367 . S
C2778 C2786 1.378 . S
C2779 C2778 1.367 . S
C2779 C2787 1.433 . S
C2780 H2776 0.929 . S
C2780 C2782 1.378 . S
C2780 C2784 1.350 . S
C2781 C2784 1.463 1_655 S
C2781 C2786 1.350 . S
C2781 N2789 1.427 . S
C2782 H2773 0.930 . S
C2782 C2780 1.378 . S
C2782 C2783 1.367 . S
C2783 C2782 1.367 . S
C2783 C2785 1.433 . S
C2784 C2780 1.350 . S
C2784 C2781 1.463 1_455 S
C2784 N2788 1.427 . S
C2785 H2775 0.929 . S
C2785 C2783 1.433 . S
C2785 N2788 1.384 . S
C2786 H2777 0.929 . S
C2786 C2778 1.378 . S
C2786 C2781 1.350 . S
C2787 H2774 0.929 . S
C2787 C2779 1.433 . S
C2787 N2789 1.384 . S
N2788 C2784 1.427 . S
N2788 C2785 1.384 . S
N2789 C2781 1.427 . S
N2789 C2787 1.384 . S
H2790 C2796 0.930 . S
H2791 C2800 0.930 . S
H2792 C2805 0.929 . S
H2793 C2803 0.929 . S
H2794 C2798 0.929 . S
H2795 C2804 0.929 . S
C2796 H2790 0.930 . S
C2796 C2797 1.367 . S
C2796 C2804 1.378 . S
C2797 C2796 1.367 . S
C2797 C2805 1.433 . S
C2798 H2794 0.929 . S
C2798 C2800 1.378 . S
C2798 C2802 1.350 . S
C2799 C2802 1.463 . S
C2799 C2804 1.350 . S
C2799 N2807 1.427 . S
C2800 H2791 0.930 . S
C2800 C2798 1.378 . S
C2800 C2801 1.367 . S
C2801 C2800 1.367 . S
C2801 C2803 1.433 . S
C2802 C2798 1.350 . S
C2802 C2799 1.463 . S
C2802 N2806 1.427 . S
C2803 H2793 0.929 . S
C2803 C2801 1.433 . S
C2803 N2806 1.384 . S
C2804 H2795 0.929 . S
C2804 C2796 1.378 . S
C2804 C2799 1.350 . S
C2805 H2792 0.929 . S
C2805 C2797 1.433 . S
C2805 N2807 1.384 . S
N2806 C2802 1.427 . S
N2806 C2803 1.384 . S
N2807 C2799 1.427 . S
N2807 C2805 1.384 . S
C1195 C358 1.417 . S
C1199 N5 1.406 . S
C1213 C391 1.412 . S
C1217 N38 1.400 . S
C1231 C325 1.409 . S
C1235 N71 1.397 . S
C1249 C292 1.411 . S
C1253 N104 1.398 . S
C1267 C226 1.422 . S
C1271 N137 1.408 . S
C1285 C259 1.408 . S
C1289 N170 1.392 . S
C1303 C160 1.411 . S
C1307 N203 1.398 . S
C1321 N236 1.401 . S
C1325 C193 1.414 . S
C1339 C127 1.421 . S
C1343 N269 1.407 . S
C1357 C94 1.418 . S
C1361 N302 1.402 . S
C1375 N335 1.392 . S
C1379 C28 1.406 . S
C1393 C61 1.415 . S
C1397 N368 1.398 . S
C1411 C754 1.410 . S
C1415 N401 1.396 . S
C1429 N434 1.397 . S
C1433 C787 1.413 . S
C1447 C721 1.416 . S
C1451 N467 1.401 . S
C1465 C688 1.419 . S
C1469 N500 1.403 . S
C1483 C622 1.422 . S
C1487 N533 1.408 . S
C1501 N566 1.396 . S
C1505 C655 1.410 . S
C1519 N599 1.393 . S
C1523 C556 1.409 . S
C1537 C589 1.416 . S
C1541 N632 1.401 . S
C1555 C523 1.408 . S
C1559 N665 1.392 . S
C1573 N698 1.399 . S
C1577 C490 1.412 . S
C1591 N731 1.393 . S
C1595 C424 1.409 . S
C1609 C457 1.409 . S
C1613 N764 1.395 . S
C1627 N797 1.403 . S
C1631 C1150 1.416 . S
C1645 N830 1.407 . S
C1649 C1183 1.420 . S
C1663 N863 1.392 . S
C1667 C1117 1.407 . S
C1681 N896 1.395 . S
C1685 C1084 1.411 . S
C1699 C1018 1.417 . S
C1703 N929 1.405 . S
C1717 C1051 1.411 . S
C1721 N962 1.395 . S
C1735 N995 1.405 1_554 S
C1739 C952 1.420 . S
C1753 C985 1.412 . S
C1757 N1028 1.396 1_554 S
C1771 C919 1.409 . S
C1775 N1061 1.393 1_554 S
C1789 N1094 1.406 1_556 S
C1793 C886 1.420 . S
C1807 N1127 1.394 1_556 S
C1811 C820 1.409 . S
C1825 C853 1.418 . S
C1829 N1160 1.402 1_556 S
C1843 N113 1.552 . S
C1847 N14 1.553 . S
C1861 N47 1.552 . S
C1865 N146 1.549 . S
C1879 N80 1.551 . S
C1883 N179 1.553 . S
C1897 N311 1.549 . S
C1901 N212 1.549 1_556 S
C1915 N245 1.540 1_556 S
C1919 N344 1.551 . S
C1933 N377 1.550 . S
C1937 N278 1.538 1_556 S
C1951 N410 1.561 . S
C1955 N509 1.561 . S
C1969 N542 1.557 . S
C1973 N443 1.559 . S
C1987 N476 1.561 . S
C1991 N575 1.561 . S
C2005 N608 1.550 . S
C2009 N707 1.552 1_554 S
C2023 N740 1.549 1_554 S
C2027 N641 1.551 . S
C2041 N773 1.562 1_554 S
C2045 N674 1.561 . S
C2059 N806 1.555 . S
C2063 N905 1.552 . S
C2077 N938 1.560 . S
C2081 N839 1.561 . S
C2095 N872 1.553 . S
C2099 N971 1.556 . S
C2113 N1004 1.558 . S
C2117 N1103 1.556 . S
C2131 N1037 1.559 . S
C2135 N1136 1.556 . S
C2149 N1169 1.549 . S
C2153 N1070 1.551 . S
C2167 C107 1.020 . S
C2171 C8 1.009 . S
C2185 C41 1.015 . S
C2189 C140 1.011 . S
C2203 C173 1.017 . S
C2207 C74 1.011 . S
C2221 C305 1.012 . S
C2225 C206 1.015 . S
C2239 C338 1.013 . S
C2243 C239 1.012 . S
C2257 C371 1.017 . S
C2261 C272 1.008 . S
C2275 C404 1.018 . S
C2279 C503 1.007 . S
C2293 C437 1.017 . S
C2297 C536 1.008 . S
C2311 C569 1.019 . S
C2315 C470 1.008 . S
C2329 C602 1.019 . S
C2333 C701 1.008 . S
C2347 C734 1.018 . S
C2351 C635 1.009 . S
C2365 C767 1.015 . S
C2369 C668 1.011 . S
C2383 C800 1.009 . S
C2387 C899 1.018 . S
C2401 C833 1.014 . S
C2405 C932 1.011 . S
C2419 C965 1.012 . S
C2423 C866 1.016 . S
C2437 C1097 1.008 . S
C2441 C998 1.020 . S
C2455 C1130 1.009 . S
C2459 C1031 1.018 . S
C2473 C1163 1.020 . S
C2477 C1064 1.008 . S
C2491 C17 1.487 . S
C2495 C545 1.490 1_556 S
C2509 C50 1.489 . S
C2513 C578 1.490 1_556 S
C2527 C512 1.488 1_556 S
C2531 C83 1.491 . S
C2545 C875 1.487 . S
C2549 C116 1.491 . S
C2563 C149 1.493 . S
C2567 C809 1.488 . S
C2581 C182 1.490 . S
C2585 C842 1.490 . S
C2599 C1139 1.488 . S
C2603 C215 1.492 . S
C2617 C1172 1.487 . S
C2621 C248 1.492 . S
C2635 C281 1.491 . S
C2639 C1106 1.488 . S
C2653 C677 1.489 . S
C2657 C314 1.491 . S
C2671 C347 1.488 . S
C2675 C611 1.492 . S
C2689 C644 1.493 . S
C2693 C380 1.487 . S
C2707 C941 1.492 . S
C2711 C413 1.488 . S
C2725 C974 1.488 . S
C2729 C446 1.491 . S
C2743 C479 1.487 . S
C2747 C908 1.492 . S
C2761 C1073 1.488 . S
C2765 C710 1.492 . S
C2779 C743 1.486 . S
C2783 C1007 1.493 . S
C2797 C776 1.491 . S
C2801 C1040 1.488 . S
