# Generated by pormake.
# Topology umq, (4)-cn, num edge types: 1
# Building blocks:
#     Node 0, Type 0, BuildingBlock: KUFVIS_clean_sbu_0, # of connection points: 4
#     Node 1, Type 0, BuildingBlock: KUFVIS_clean_sbu_0, # of connection points: 4
#     Node 2, Type 0, BuildingBlock: KUFVIS_clean_sbu_0, # of connection points: 4
#     Node 3, Type 0, BuildingBlock: KUFVIS_clean_sbu_0, # of connection points: 4
#     Node 4, Type 0, BuildingBlock: KUFVIS_clean_sbu_0, # of connection points: 4
#     Node 5, Type 0, BuildingBlock: KUFVIS_clean_sbu_0, # of connection points: 4
#     Node 6, Type 0, BuildingBlock: KUFVIS_clean_sbu_0, # of connection points: 4
#     Node 7, Type 0, BuildingBlock: KUFVIS_clean_sbu_0, # of connection points: 4
#     Node 8, Type 0, BuildingBlock: KUFVIS_clean_sbu_0, # of connection points: 4
#     Node 9, Type 0, BuildingBlock: KUFVIS_clean_sbu_0, # of connection points: 4
#     Node 10, Type 0, BuildingBlock: KUFVIS_clean_sbu_0, # of connection points: 4
#     Node 11, Type 0, BuildingBlock: KUFVIS_clean_sbu_0, # of connection points: 4
#     Node 12, Type 0, BuildingBlock: KUFVIS_clean_sbu_0, # of connection points: 4
#     Node 13, Type 0, BuildingBlock: KUFVIS_clean_sbu_0, # of connection points: 4
#     Node 14, Type 0, BuildingBlock: KUFVIS_clean_sbu_0, # of connection points: 4
#     Node 15, Type 0, BuildingBlock: KUFVIS_clean_sbu_0, # of connection points: 4
#     Node 16, Type 0, BuildingBlock: KUFVIS_clean_sbu_0, # of connection points: 4
#     Node 17, Type 0, BuildingBlock: KUFVIS_clean_sbu_0, # of connection points: 4
#     Node 18, Type 0, BuildingBlock: KUFVIS_clean_sbu_0, # of connection points: 4
#     Node 19, Type 0, BuildingBlock: KUFVIS_clean_sbu_0, # of connection points: 4
#     Node 20, Type 0, BuildingBlock: KUFVIS_clean_sbu_0, # of connection points: 4
#     Node 21, Type 0, BuildingBlock: KUFVIS_clean_sbu_0, # of connection points: 4
#     Node 22, Type 0, BuildingBlock: KUFVIS_clean_sbu_0, # of connection points: 4
#     Node 23, Type 0, BuildingBlock: KUFVIS_clean_sbu_0, # of connection points: 4
#     Node 24, Type 0, BuildingBlock: KUFVIS_clean_sbu_0, # of connection points: 4
#     Node 25, Type 0, BuildingBlock: KUFVIS_clean_sbu_0, # of connection points: 4
#     Node 26, Type 0, BuildingBlock: KUFVIS_clean_sbu_0, # of connection points: 4
#     Node 27, Type 0, BuildingBlock: KUFVIS_clean_sbu_0, # of connection points: 4
#     Node 28, Type 0, BuildingBlock: KUFVIS_clean_sbu_0, # of connection points: 4
#     Node 29, Type 0, BuildingBlock: KUFVIS_clean_sbu_0, # of connection points: 4
#     Node 30, Type 0, BuildingBlock: KUFVIS_clean_sbu_0, # of connection points: 4
#     Node 31, Type 0, BuildingBlock: KUFVIS_clean_sbu_0, # of connection points: 4
#     Edge 32, Type (0, 0), BuildingBlock: KIFKEQ_clean_linker_1, # of connection points: 2
#     Edge 33, Type (0, 0), BuildingBlock: KIFKEQ_clean_linker_1, # of connection points: 2
#     Edge 34, Type (0, 0), BuildingBlock: KIFKEQ_clean_linker_1, # of connection points: 2
#     Edge 35, Type (0, 0), BuildingBlock: KIFKEQ_clean_linker_1, # of connection points: 2
#     Edge 36, Type (0, 0), BuildingBlock: KIFKEQ_clean_linker_1, # of connection points: 2
#     Edge 37, Type (0, 0), BuildingBlock: KIFKEQ_clean_linker_1, # of connection points: 2
#     Edge 38, Type (0, 0), BuildingBlock: KIFKEQ_clean_linker_1, # of connection points: 2
#     Edge 39, Type (0, 0), BuildingBlock: KIFKEQ_clean_linker_1, # of connection points: 2
#     Edge 40, Type (0, 0), BuildingBlock: KIFKEQ_clean_linker_1, # of connection points: 2
#     Edge 41, Type (0, 0), BuildingBlock: KIFKEQ_clean_linker_1, # of connection points: 2
#     Edge 42, Type (0, 0), BuildingBlock: KIFKEQ_clean_linker_1, # of connection points: 2
#     Edge 43, Type (0, 0), BuildingBlock: KIFKEQ_clean_linker_1, # of connection points: 2
#     Edge 44, Type (0, 0), BuildingBlock: KIFKEQ_clean_linker_1, # of connection points: 2
#     Edge 45, Type (0, 0), BuildingBlock: KIFKEQ_clean_linker_1, # of connection points: 2
#     Edge 46, Type (0, 0), BuildingBlock: KIFKEQ_clean_linker_1, # of connection points: 2
#     Edge 47, Type (0, 0), BuildingBlock: KIFKEQ_clean_linker_1, # of connection points: 2
#     Edge 48, Type (0, 0), BuildingBlock: KIFKEQ_clean_linker_1, # of connection points: 2
#     Edge 49, Type (0, 0), BuildingBlock: KIFKEQ_clean_linker_1, # of connection points: 2
#     Edge 50, Type (0, 0), BuildingBlock: KIFKEQ_clean_linker_1, # of connection points: 2
#     Edge 51, Type (0, 0), BuildingBlock: KIFKEQ_clean_linker_1, # of connection points: 2
#     Edge 52, Type (0, 0), BuildingBlock: KIFKEQ_clean_linker_1, # of connection points: 2
#     Edge 53, Type (0, 0), BuildingBlock: KIFKEQ_clean_linker_1, # of connection points: 2
#     Edge 54, Type (0, 0), BuildingBlock: KIFKEQ_clean_linker_1, # of connection points: 2
#     Edge 55, Type (0, 0), BuildingBlock: KIFKEQ_clean_linker_1, # of connection points: 2
#     Edge 56, Type (0, 0), BuildingBlock: KIFKEQ_clean_linker_1, # of connection points: 2
#     Edge 57, Type (0, 0), BuildingBlock: KIFKEQ_clean_linker_1, # of connection points: 2
#     Edge 58, Type (0, 0), BuildingBlock: KIFKEQ_clean_linker_1, # of connection points: 2
#     Edge 59, Type (0, 0), BuildingBlock: KIFKEQ_clean_linker_1, # of connection points: 2
#     Edge 60, Type (0, 0), BuildingBlock: KIFKEQ_clean_linker_1, # of connection points: 2
#     Edge 61, Type (0, 0), BuildingBlock: KIFKEQ_clean_linker_1, # of connection points: 2
#     Edge 62, Type (0, 0), BuildingBlock: KIFKEQ_clean_linker_1, # of connection points: 2
#     Edge 63, Type (0, 0), BuildingBlock: KIFKEQ_clean_linker_1, # of connection points: 2
#     Edge 64, Type (0, 0), BuildingBlock: KIFKEQ_clean_linker_1, # of connection points: 2
#     Edge 65, Type (0, 0), BuildingBlock: KIFKEQ_clean_linker_1, # of connection points: 2
#     Edge 66, Type (0, 0), BuildingBlock: KIFKEQ_clean_linker_1, # of connection points: 2
#     Edge 67, Type (0, 0), BuildingBlock: KIFKEQ_clean_linker_1, # of connection points: 2
#     Edge 68, Type (0, 0), BuildingBlock: KIFKEQ_clean_linker_1, # of connection points: 2
#     Edge 69, Type (0, 0), BuildingBlock: KIFKEQ_clean_linker_1, # of connection points: 2
#     Edge 70, Type (0, 0), BuildingBlock: KIFKEQ_clean_linker_1, # of connection points: 2
#     Edge 71, Type (0, 0), BuildingBlock: KIFKEQ_clean_linker_1, # of connection points: 2
#     Edge 72, Type (0, 0), BuildingBlock: KIFKEQ_clean_linker_1, # of connection points: 2
#     Edge 73, Type (0, 0), BuildingBlock: KIFKEQ_clean_linker_1, # of connection points: 2
#     Edge 74, Type (0, 0), BuildingBlock: KIFKEQ_clean_linker_1, # of connection points: 2
#     Edge 75, Type (0, 0), BuildingBlock: KIFKEQ_clean_linker_1, # of connection points: 2
#     Edge 76, Type (0, 0), BuildingBlock: KIFKEQ_clean_linker_1, # of connection points: 2
#     Edge 77, Type (0, 0), BuildingBlock: KIFKEQ_clean_linker_1, # of connection points: 2
#     Edge 78, Type (0, 0), BuildingBlock: KIFKEQ_clean_linker_1, # of connection points: 2
#     Edge 79, Type (0, 0), BuildingBlock: KIFKEQ_clean_linker_1, # of connection points: 2
#     Edge 80, Type (0, 0), BuildingBlock: KIFKEQ_clean_linker_1, # of connection points: 2
#     Edge 81, Type (0, 0), BuildingBlock: KIFKEQ_clean_linker_1, # of connection points: 2
#     Edge 82, Type (0, 0), BuildingBlock: KIFKEQ_clean_linker_1, # of connection points: 2
#     Edge 83, Type (0, 0), BuildingBlock: KIFKEQ_clean_linker_1, # of connection points: 2
#     Edge 84, Type (0, 0), BuildingBlock: KIFKEQ_clean_linker_1, # of connection points: 2
#     Edge 85, Type (0, 0), BuildingBlock: KIFKEQ_clean_linker_1, # of connection points: 2
#     Edge 86, Type (0, 0), BuildingBlock: KIFKEQ_clean_linker_1, # of connection points: 2
#     Edge 87, Type (0, 0), BuildingBlock: KIFKEQ_clean_linker_1, # of connection points: 2
#     Edge 88, Type (0, 0), BuildingBlock: KIFKEQ_clean_linker_1, # of connection points: 2
#     Edge 89, Type (0, 0), BuildingBlock: KIFKEQ_clean_linker_1, # of connection points: 2
#     Edge 90, Type (0, 0), BuildingBlock: KIFKEQ_clean_linker_1, # of connection points: 2
#     Edge 91, Type (0, 0), BuildingBlock: KIFKEQ_clean_linker_1, # of connection points: 2
#     Edge 92, Type (0, 0), BuildingBlock: KIFKEQ_clean_linker_1, # of connection points: 2
#     Edge 93, Type (0, 0), BuildingBlock: KIFKEQ_clean_linker_1, # of connection points: 2
#     Edge 94, Type (0, 0), BuildingBlock: KIFKEQ_clean_linker_1, # of connection points: 2
#     Edge 95, Type (0, 0), BuildingBlock: KIFKEQ_clean_linker_1, # of connection points: 2
# Relax obj value: 0.076
# Max RMSD: 0.055
# Mean RMSD: 0.055
data_MOF--net-umq--node1-KUFVIS_clean_sbu_0--edge1-KIFKEQ_clean_linker_1
_symmetry_space_group_name_H-M    P1
_symmetry_Int_Tables_number       1
_symmetry_cell_setting            triclinic
loop_
_symmetry_equiv_pos_as_xyz
'x, y, z'
_cell_length_a     67.050743
_cell_length_b     67.061744
_cell_length_c     43.9996
_cell_angle_alpha  90.006805
_cell_angle_beta   89.879049
_cell_angle_gamma 90.004099
loop_
_atom_site_label
_atom_site_type_symbol
_atom_site_fract_x
_atom_site_fract_y
_atom_site_fract_z
_atom_type_partial_charge
Mn0 Mn 0.24573 0.10536 0.18821 0.0
Mn1 Mn 0.22152 0.13904 0.14456 0.0
C2 C 0.22493 0.12876 0.21085 0.0
C3 C 0.24704 0.07348 0.20987 0.0
C4 C 0.26558 0.14205 0.16024 0.0
O5 O 0.24865 0.09406 0.14517 0.0
O6 O 0.22877 0.11545 0.11973 0.0
C7 C 0.18484 0.11581 0.13253 0.0
N8 N 0.19376 0.13269 0.14302 0.0
C9 C 0.16202 0.14766 0.15451 0.0
C10 C 0.15247 0.13048 0.14365 0.0
C11 C 0.16394 0.11446 0.13272 0.0
C12 C 0.18289 0.1481 0.15387 0.0
H13 H 0.19362 0.10348 0.12412 0.0
C14 C 0.23973 0.09987 0.12115 0.0
O15 O 0.26314 0.08376 0.20492 0.0
O16 O 0.23031 0.08155 0.2017 0.0
N17 N 0.21341 0.16283 0.1652 0.0
C18 C 0.22494 0.17819 0.17531 0.0
C19 C 0.21577 0.19543 0.18687 0.0
C20 C 0.19488 0.19681 0.18756 0.0
C21 C 0.18333 0.18091 0.17675 0.0
C22 C 0.1933 0.16419 0.16521 0.0
H23 H 0.24101 0.17734 0.1745 0.0
O24 O 0.23824 0.11943 0.2268 0.0
O25 O 0.22382 0.12373 0.18237 0.0
O26 O 0.26629 0.12716 0.17833 0.0
O27 O 0.24992 0.14705 0.14555 0.0
C28 C 0.16231 0.18093 0.17717 0.0
C29 C 0.15167 0.16427 0.16622 0.0
H30 H 0.13635 0.12938 0.14375 0.0
H31 H 0.15668 0.10112 0.12442 0.0
H32 H 0.22479 0.20766 0.19513 0.0
H33 H 0.18786 0.21015 0.19643 0.0
H34 H 0.1542 0.1936 0.18619 0.0
H35 H 0.13552 0.16436 0.16699 0.0
Mn36 Mn 0.90628 0.24597 0.18861 0.0
Mn37 Mn 0.87244 0.22231 0.14455 0.0
C38 C 0.88261 0.2253 0.21091 0.0
C39 C 0.93815 0.24692 0.2102 0.0
C40 C 0.86987 0.26632 0.16082 0.0
O41 O 0.91771 0.24892 0.14565 0.0
O42 O 0.89616 0.22942 0.11985 0.0
C43 C 0.8953 0.18544 0.13207 0.0
N44 N 0.87849 0.1945 0.14266 0.0
C45 C 0.86317 0.16288 0.15376 0.0
C46 C 0.88026 0.15319 0.1428 0.0
C47 C 0.89643 0.16452 0.13202 0.0
C48 C 0.86294 0.18375 0.15337 0.0
H49 H 0.90773 0.19412 0.12378 0.0
C50 C 0.91186 0.24019 0.12149 0.0
O51 O 0.92801 0.26312 0.2055 0.0
O52 O 0.92993 0.23028 0.20193 0.0
N53 N 0.84852 0.21438 0.16506 0.0
C54 C 0.83326 0.22603 0.17529 0.0
C55 C 0.8159 0.217 0.18672 0.0
C56 C 0.8143 0.19612 0.18716 0.0
C57 C 0.8301 0.18444 0.17623 0.0
C58 C 0.84695 0.19428 0.16482 0.0
H59 H 0.83429 0.24208 0.17468 0.0
O60 O 0.89203 0.23844 0.22708 0.0
O61 O 0.88769 0.22427 0.18243 0.0
O62 O 0.88471 0.26677 0.17897 0.0
O63 O 0.86474 0.25078 0.14589 0.0
C64 C 0.82985 0.16343 0.1764 0.0
C65 C 0.84642 0.15266 0.16533 0.0
H66 H 0.88119 0.13706 0.14271 0.0
H67 H 0.9097 0.15716 0.12365 0.0
H68 H 0.80375 0.22611 0.19508 0.0
H69 H 0.80087 0.18922 0.19593 0.0
H70 H 0.81709 0.15542 0.18531 0.0
H71 H 0.84616 0.13651 0.16592 0.0
Mn72 Mn 0.76739 0.90594 0.18327 0.0
Mn73 Mn 0.79083 0.87171 0.13942 0.0
C74 C 0.78798 0.88231 0.20568 0.0
C75 C 0.76652 0.9379 0.2047 0.0
C76 C 0.74685 0.86939 0.15609 0.0
O77 O 0.76443 0.91713 0.14018 0.0
O78 O 0.78368 0.89525 0.11445 0.0
C79 C 0.8277 0.89444 0.12635 0.0
N80 N 0.81865 0.87771 0.13722 0.0
C81 C 0.85028 0.8625 0.14844 0.0
C82 C 0.85997 0.87951 0.13718 0.0
C83 C 0.84862 0.89557 0.12619 0.0
C84 C 0.82941 0.86226 0.14813 0.0
H85 H 0.81901 0.90681 0.11791 0.0
C86 C 0.77301 0.91103 0.11598 0.0
O87 O 0.7503 0.92777 0.20007 0.0
O88 O 0.78315 0.92964 0.19636 0.0
N89 N 0.79879 0.84792 0.16015 0.0
C90 C 0.78714 0.83272 0.1706 0.0
C91 C 0.79618 0.81546 0.18226 0.0
C92 C 0.81707 0.81389 0.18271 0.0
C93 C 0.82873 0.82961 0.17149 0.0
C94 C 0.81889 0.84636 0.15986 0.0
H95 H 0.77108 0.83373 0.17001 0.0
O96 O 0.7749 0.89188 0.22182 0.0
O97 O 0.78901 0.88722 0.17714 0.0
O98 O 0.74649 0.8844 0.17397 0.0
O99 O 0.76234 0.86406 0.14113 0.0
C100 C 0.84975 0.82938 0.1716 0.0
C101 C 0.86052 0.84586 0.16024 0.0
H102 H 0.87609 0.88045 0.13702 0.0
H103 H 0.85598 0.90879 0.11759 0.0
H104 H 0.78708 0.80337 0.19082 0.0
H105 H 0.82398 0.80056 0.19171 0.0
H106 H 0.85777 0.81669 0.18068 0.0
H107 H 0.87666 0.84561 0.16078 0.0
Mn108 Mn 0.1069 0.77025 0.18896 0.0
Mn109 Mn 0.14165 0.79594 0.14915 0.0
C110 C 0.13008 0.78991 0.21439 0.0
C111 C 0.07465 0.76861 0.20961 0.0
C112 C 0.14428 0.7513 0.16123 0.0
O113 O 0.09633 0.76916 0.14534 0.0
O114 O 0.11864 0.78947 0.12273 0.0
C115 C 0.11835 0.83285 0.13917 0.0
N116 N 0.13519 0.82368 0.1493 0.0
C117 C 0.15 0.85511 0.16287 0.0
C118 C 0.1329 0.86492 0.15229 0.0
C119 C 0.11697 0.85373 0.14053 0.0
C120 C 0.15047 0.83428 0.16109 0.0
H121 H 0.10606 0.82428 0.13022 0.0
C122 C 0.10284 0.77877 0.12231 0.0
O123 O 0.08474 0.75255 0.20351 0.0
O124 O 0.08309 0.78546 0.20302 0.0
N125 N 0.16501 0.80349 0.17128 0.0
C126 C 0.18024 0.79172 0.1812 0.0
C127 C 0.1974 0.8006 0.19347 0.0
C128 C 0.19883 0.82146 0.19507 0.0
C129 C 0.18304 0.83327 0.18459 0.0
C130 C 0.16641 0.8236 0.17227 0.0
H131 H 0.17934 0.77569 0.17971 0.0
O132 O 0.12042 0.77602 0.22869 0.0
O133 O 0.12557 0.79223 0.18592 0.0
O134 O 0.12865 0.74984 0.1778 0.0
O135 O 0.14981 0.76761 0.14867 0.0
C136 C 0.18308 0.85426 0.18608 0.0
C137 C 0.16651 0.86517 0.17542 0.0
H138 H 0.13179 0.88103 0.15327 0.0
H139 H 0.10367 0.86118 0.13251 0.0
H140 H 0.20953 0.79138 0.20153 0.0
H141 H 0.21213 0.82826 0.20438 0.0
H142 H 0.19567 0.86214 0.19573 0.0
H143 H 0.1666 0.88128 0.17706 0.0
Mn144 Mn 0.24701 0.90741 0.33802 0.0
Mn145 Mn 0.22341 0.87355 0.38232 0.0
C146 C 0.22632 0.88374 0.31598 0.0
C147 C 0.2479 0.93922 0.31609 0.0
C148 C 0.2674 0.87099 0.36579 0.0
O149 O 0.24999 0.91887 0.38093 0.0
O150 O 0.23056 0.89725 0.40689 0.0
C151 C 0.18655 0.89639 0.39498 0.0
N152 N 0.1956 0.87959 0.38437 0.0
C153 C 0.16396 0.86432 0.37337 0.0
C154 C 0.15428 0.88141 0.38435 0.0
C155 C 0.16564 0.89754 0.3951 0.0
C156 C 0.18483 0.86407 0.3737 0.0
H157 H 0.19524 0.90881 0.40324 0.0
C158 C 0.24129 0.91298 0.40516 0.0
O159 O 0.26412 0.92912 0.32084 0.0
O160 O 0.23129 0.93102 0.32462 0.0
N161 N 0.21545 0.84964 0.36191 0.0
C162 C 0.22708 0.83438 0.35164 0.0
C163 C 0.21804 0.81706 0.34019 0.0
C164 C 0.19715 0.8155 0.33975 0.0
C165 C 0.18549 0.83127 0.35078 0.0
C166 C 0.19535 0.84809 0.3622 0.0
H167 H 0.24315 0.83539 0.35222 0.0
O168 O 0.23945 0.89313 0.29968 0.0
O169 O 0.22533 0.88883 0.34444 0.0
O170 O 0.26785 0.88586 0.34765 0.0
O171 O 0.25188 0.86584 0.38081 0.0
C172 C 0.16448 0.83105 0.35067 0.0
C173 C 0.15372 0.84761 0.3618 0.0
H174 H 0.13815 0.88235 0.38449 0.0
H175 H 0.15828 0.91081 0.4035 0.0
H176 H 0.22714 0.80493 0.33177 0.0
H177 H 0.19023 0.80212 0.33088 0.0
H178 H 0.15645 0.81832 0.34174 0.0
H179 H 0.13757 0.84737 0.36125 0.0
Mn180 Mn 0.10553 0.24461 0.3338 0.0
Mn181 Mn 0.13954 0.22026 0.37685 0.0
C182 C 0.12875 0.22376 0.31087 0.0
C183 C 0.07364 0.2461 0.31231 0.0
C184 C 0.14338 0.26398 0.35972 0.0
O185 O 0.09419 0.24752 0.37669 0.0
O186 O 0.11692 0.22946 0.40244 0.0
C187 C 0.11449 0.18532 0.39222 0.0
N188 N 0.13168 0.19298 0.38051 0.0
C189 C 0.14461 0.16016 0.3705 0.0
C190 C 0.1271 0.1519 0.38263 0.0
C191 C 0.11195 0.16455 0.39343 0.0
C192 C 0.14624 0.18097 0.36973 0.0
H193 H 0.10282 0.195 0.40054 0.0
C194 C 0.10096 0.23984 0.40107 0.0
O195 O 0.08398 0.26215 0.31724 0.0
O196 O 0.08167 0.22932 0.32033 0.0
N197 N 0.16252 0.21027 0.35596 0.0
C198 C 0.17847 0.22061 0.34493 0.0
C199 C 0.19505 0.21017 0.33358 0.0
C200 C 0.19518 0.18923 0.33408 0.0
C201 C 0.17874 0.17891 0.34596 0.0
C202 C 0.16273 0.19012 0.35723 0.0
H203 H 0.17855 0.2367 0.34476 0.0
O204 O 0.11951 0.23725 0.29516 0.0
O205 O 0.1238 0.22247 0.33941 0.0
O206 O 0.12745 0.26511 0.34384 0.0
O207 O 0.14893 0.24806 0.37332 0.0
C208 C 0.17755 0.15794 0.34687 0.0
C209 C 0.16044 0.14857 0.35896 0.0
H210 H 0.1251 0.13589 0.38365 0.0
H211 H 0.09836 0.15829 0.40272 0.0
H212 H 0.2077 0.21824 0.32451 0.0
H213 H 0.20798 0.18122 0.32531 0.0
H214 H 0.18963 0.14889 0.33807 0.0
H215 H 0.15961 0.13244 0.35926 0.0
Mn216 Mn 0.76658 0.1047 0.33083 0.0
Mn217 Mn 0.78988 0.13891 0.37473 0.0
C218 C 0.78703 0.12851 0.30841 0.0
C219 C 0.76594 0.07277 0.30929 0.0
C220 C 0.74583 0.14093 0.35861 0.0
O221 O 0.7637 0.0934 0.37388 0.0
O222 O 0.78307 0.11517 0.39949 0.0
C223 C 0.82704 0.11657 0.38715 0.0
N224 N 0.81777 0.13322 0.37654 0.0
C225 C 0.84919 0.14896 0.36543 0.0
C226 C 0.8591 0.13202 0.3764 0.0
C227 C 0.84797 0.11573 0.3872 0.0
C228 C 0.82832 0.14889 0.36582 0.0
H229 H 0.81852 0.10403 0.39547 0.0
C230 C 0.77241 0.09939 0.39798 0.0
O231 O 0.74965 0.08278 0.31404 0.0
O232 O 0.7825 0.08115 0.31754 0.0
N233 N 0.7975 0.16287 0.35415 0.0
C234 C 0.78565 0.17795 0.34393 0.0
C235 C 0.79446 0.19542 0.33249 0.0
C236 C 0.81532 0.19731 0.33204 0.0
C237 C 0.8272 0.18169 0.34296 0.0
C238 C 0.81758 0.16472 0.35436 0.0
H239 H 0.76961 0.17671 0.34457 0.0
O240 O 0.774 0.1189 0.2923 0.0
O241 O 0.78809 0.12353 0.3369 0.0
O242 O 0.74555 0.12608 0.34042 0.0
O243 O 0.76131 0.14624 0.37351 0.0
C244 C 0.84821 0.18222 0.34278 0.0
C245 C 0.8592 0.16582 0.35385 0.0
H246 H 0.87524 0.13132 0.37649 0.0
H247 H 0.85551 0.10257 0.39559 0.0
H248 H 0.78519 0.20743 0.32415 0.0
H249 H 0.82205 0.21082 0.32328 0.0
H250 H 0.85605 0.19508 0.33387 0.0
H251 H 0.87534 0.16631 0.35326 0.0
Mn252 Mn 0.90669 0.7681 0.33306 0.0
Mn253 Mn 0.87119 0.79221 0.3734 0.0
C254 C 0.8832 0.78761 0.308 0.0
C255 C 0.93915 0.76736 0.3131 0.0
C256 C 0.87037 0.7476 0.36065 0.0
O257 O 0.91684 0.76666 0.37704 0.0
O258 O 0.89467 0.78723 0.39955 0.0
C259 C 0.89211 0.83055 0.38309 0.0
N260 N 0.87591 0.8203 0.37294 0.0
C261 C 0.85924 0.85067 0.3588 0.0
C262 C 0.87567 0.86158 0.36937 0.0
C263 C 0.89221 0.85146 0.38144 0.0
C264 C 0.86004 0.82986 0.36091 0.0
H265 H 0.90486 0.8228 0.3923 0.0
C266 C 0.91047 0.77652 0.39998 0.0
O267 O 0.92929 0.75106 0.31844 0.0
O268 O 0.93036 0.78398 0.32006 0.0
N269 N 0.84743 0.79817 0.35116 0.0
C270 C 0.83303 0.78542 0.34117 0.0
C271 C 0.81547 0.79314 0.32843 0.0
C272 C 0.81278 0.81386 0.32641 0.0
C273 C 0.82774 0.82669 0.33698 0.0
C274 C 0.84483 0.81814 0.34974 0.0
H275 H 0.83486 0.76948 0.34304 0.0
O276 O 0.89337 0.77427 0.29325 0.0
O277 O 0.88745 0.78945 0.33663 0.0
O278 O 0.88537 0.74706 0.34273 0.0
O279 O 0.86472 0.76339 0.37453 0.0
C280 C 0.82643 0.84763 0.33516 0.0
C281 C 0.84222 0.85961 0.34589 0.0
H282 H 0.87581 0.87771 0.36814 0.0
H283 H 0.905 0.85977 0.38947 0.0
H284 H 0.80398 0.78314 0.32034 0.0
H285 H 0.79917 0.81975 0.31673 0.0
H286 H 0.81345 0.85466 0.32519 0.0
H287 H 0.84117 0.87568 0.34397 0.0
Mn288 Mn 0.77004 0.90766 0.83161 0.0
Mn289 Mn 0.794 0.87185 0.87135 0.0
C290 C 0.78958 0.88428 0.80623 0.0
C291 C 0.76929 0.9401 0.81177 0.0
C292 C 0.74945 0.87111 0.85834 0.0
O293 O 0.76858 0.91764 0.87577 0.0
O294 O 0.78892 0.89513 0.89787 0.0
C295 C 0.8323 0.89276 0.88151 0.0
N296 N 0.82209 0.8766 0.87112 0.0
C297 C 0.85254 0.85997 0.85705 0.0
C298 C 0.8634 0.87636 0.86789 0.0
C299 C 0.85322 0.89287 0.88003 0.0
C300 C 0.83172 0.86077 0.85897 0.0
H301 H 0.8245 0.90548 0.89076 0.0
C302 C 0.77836 0.91102 0.89859 0.0
O303 O 0.75299 0.93025 0.81718 0.0
O304 O 0.78592 0.93137 0.81878 0.0
N305 N 0.80007 0.84822 0.84875 0.0
C306 C 0.78737 0.83383 0.83859 0.0
C307 C 0.79515 0.81627 0.82587 0.0
C308 C 0.81588 0.81357 0.82407 0.0
C309 C 0.82867 0.82853 0.83476 0.0
C310 C 0.82005 0.84562 0.84752 0.0
H311 H 0.77142 0.83565 0.84034 0.0
O312 O 0.77625 0.89449 0.79162 0.0
O313 O 0.79138 0.88838 0.83491 0.0
O314 O 0.74896 0.88632 0.84091 0.0
O315 O 0.76518 0.86532 0.87216 0.0
C316 C 0.84962 0.8272 0.83314 0.0
C317 C 0.86155 0.84298 0.84408 0.0
H318 H 0.87954 0.87649 0.8668 0.0
H319 H 0.86149 0.90563 0.88825 0.0
H320 H 0.78519 0.80478 0.81768 0.0
H321 H 0.82182 0.79992 0.81449 0.0
H322 H 0.8567 0.81423 0.82317 0.0
H323 H 0.87763 0.84192 0.84232 0.0
Mn324 Mn 0.10432 0.76805 0.83818 0.0
Mn325 Mn 0.13809 0.79221 0.88198 0.0
C326 C 0.12712 0.78969 0.81601 0.0
C327 C 0.07241 0.76634 0.81667 0.0
C328 C 0.14243 0.74879 0.86319 0.0
O329 O 0.09323 0.76415 0.88111 0.0
O330 O 0.11547 0.78268 0.90715 0.0
C331 C 0.11288 0.82689 0.89811 0.0
N332 N 0.13012 0.81942 0.8863 0.0
C333 C 0.14291 0.8524 0.87708 0.0
C334 C 0.12535 0.86045 0.88933 0.0
C335 C 0.11024 0.84763 0.89978 0.0
C336 C 0.14464 0.83161 0.87583 0.0
H337 H 0.10124 0.81708 0.90614 0.0
C338 C 0.09976 0.77193 0.9056 0.0
O339 O 0.08319 0.75046 0.82061 0.0
O340 O 0.08 0.78309 0.82582 0.0
N341 N 0.16107 0.80252 0.86143 0.0
C342 C 0.17714 0.79237 0.85038 0.0
C343 C 0.19372 0.803 0.83945 0.0
C344 C 0.19374 0.82393 0.84039 0.0
C345 C 0.17719 0.83405 0.85231 0.0
C346 C 0.16119 0.82265 0.86317 0.0
H347 H 0.17732 0.77629 0.84986 0.0
O348 O 0.11799 0.77641 0.79975 0.0
O349 O 0.12227 0.79037 0.84462 0.0
O350 O 0.12665 0.74779 0.84698 0.0
O351 O 0.14764 0.76447 0.87773 0.0
C352 C 0.1759 0.855 0.8537 0.0
C353 C 0.15872 0.86417 0.8659 0.0
H354 H 0.12327 0.87644 0.89071 0.0
H355 H 0.0966 0.85373 0.90914 0.0
H356 H 0.20646 0.79508 0.83036 0.0
H357 H 0.20654 0.83208 0.83194 0.0
H358 H 0.18797 0.8642 0.84522 0.0
H359 H 0.15782 0.88029 0.86658 0.0
Mn360 Mn 0.2431 0.10625 0.8375 0.0
Mn361 Mn 0.21838 0.14183 0.877 0.0
C362 C 0.22379 0.1297 0.81203 0.0
C363 C 0.24409 0.07399 0.81701 0.0
C364 C 0.26302 0.14332 0.8643 0.0
O365 O 0.24403 0.09582 0.88132 0.0
O366 O 0.22432 0.1188 0.90365 0.0
C367 C 0.1809 0.11951 0.88755 0.0
N368 N 0.19048 0.13608 0.8772 0.0
C369 C 0.1594 0.15162 0.86362 0.0
C370 C 0.14918 0.13482 0.8745 0.0
C371 C 0.15999 0.11866 0.88636 0.0
C372 C 0.18025 0.15157 0.86526 0.0
H373 H 0.18917 0.10703 0.89653 0.0
C374 C 0.23456 0.1027 0.90427 0.0
O375 O 0.26034 0.08376 0.82297 0.0
O376 O 0.2274 0.0827 0.82381 0.0
N377 N 0.21138 0.16524 0.85454 0.0
C378 C 0.22352 0.1801 0.84429 0.0
C379 C 0.21507 0.19742 0.83185 0.0
C380 C 0.19424 0.19939 0.8304 0.0
C381 C 0.18205 0.18396 0.84121 0.0
C382 C 0.19132 0.16715 0.85371 0.0
H383 H 0.23953 0.17881 0.84568 0.0
O384 O 0.23744 0.11974 0.79765 0.0
O385 O 0.22155 0.12537 0.84057 0.0
O386 O 0.26401 0.12757 0.84801 0.0
O387 O 0.24693 0.14929 0.87708 0.0
C388 C 0.16106 0.18453 0.8399 0.0
C389 C 0.14975 0.16831 0.8509 0.0
H390 H 0.13305 0.13411 0.87363 0.0
H391 H 0.15221 0.10557 0.89457 0.0
H392 H 0.22458 0.20927 0.82354 0.0
H393 H 0.18778 0.21282 0.82097 0.0
H394 H 0.15348 0.19726 0.83011 0.0
H395 H 0.13363 0.1688 0.84937 0.0
Mn396 Mn 0.90864 0.2414 0.83801 0.0
Mn397 Mn 0.87341 0.21619 0.87764 0.0
C398 C 0.88542 0.22179 0.8126 0.0
C399 C 0.94087 0.24286 0.81729 0.0
C400 C 0.8712 0.26075 0.86488 0.0
O401 O 0.91908 0.24255 0.88178 0.0
O402 O 0.89632 0.22264 0.90421 0.0
C403 C 0.89645 0.17918 0.88821 0.0
N404 N 0.87969 0.18841 0.87789 0.0
C405 C 0.86476 0.15701 0.86442 0.0
C406 C 0.88176 0.14714 0.87525 0.0
C407 C 0.89771 0.15829 0.88705 0.0
C408 C 0.86441 0.17785 0.866 0.0
H409 H 0.90876 0.18772 0.89714 0.0
C410 C 0.91228 0.23309 0.90479 0.0
O411 O 0.93086 0.25896 0.82338 0.0
O412 O 0.93242 0.22605 0.82414 0.0
N413 N 0.85011 0.20868 0.85535 0.0
C414 C 0.83495 0.2205 0.8453 0.0
C415 C 0.81777 0.21167 0.83302 0.0
C416 C 0.81623 0.19081 0.83154 0.0
C417 C 0.83194 0.17896 0.8422 0.0
C418 C 0.84859 0.18859 0.85454 0.0
H419 H 0.8359 0.23653 0.84672 0.0
O420 O 0.89521 0.23556 0.79823 0.0
O421 O 0.8898 0.21957 0.84112 0.0
O422 O 0.887 0.26198 0.84867 0.0
O423 O 0.86544 0.24459 0.87762 0.0
C424 C 0.83178 0.15796 0.84091 0.0
C425 C 0.84824 0.147 0.85181 0.0
H426 H 0.88278 0.13103 0.87442 0.0
H427 H 0.91094 0.15079 0.89524 0.0
H428 H 0.80569 0.22093 0.82484 0.0
H429 H 0.80292 0.18406 0.8222 0.0
H430 H 0.81918 0.15011 0.83124 0.0
H431 H 0.84807 0.13088 0.85031 0.0
Mn432 Mn 0.77075 0.1056 0.68158 0.0
Mn433 Mn 0.79586 0.14082 0.64189 0.0
C434 C 0.79044 0.12881 0.70689 0.0
C435 C 0.7695 0.07338 0.70225 0.0
C436 C 0.75129 0.14301 0.65494 0.0
O437 O 0.76956 0.09514 0.63779 0.0
O438 O 0.78942 0.1179 0.61528 0.0
C439 C 0.83291 0.11785 0.63102 0.0
N440 N 0.82366 0.13459 0.64146 0.0
C441 C 0.85505 0.14952 0.65497 0.0
C442 C 0.86494 0.13255 0.64399 0.0
C443 C 0.8538 0.1166 0.63212 0.0
C444 C 0.8342 0.14986 0.65342 0.0
H445 H 0.82438 0.10554 0.62205 0.0
C446 C 0.779 0.10192 0.61474 0.0
O447 O 0.75332 0.0833 0.69637 0.0
O448 O 0.78624 0.0819 0.69521 0.0
N449 N 0.80335 0.1641 0.6643 0.0
C450 C 0.79152 0.17919 0.67462 0.0
C451 C 0.80033 0.19633 0.68709 0.0
C452 C 0.82119 0.19789 0.6885 0.0
C453 C 0.83307 0.18225 0.67758 0.0
C454 C 0.82345 0.16564 0.66506 0.0
H455 H 0.77549 0.17821 0.6733 0.0
O456 O 0.77669 0.11905 0.72136 0.0
O457 O 0.79255 0.12443 0.67834 0.0
O458 O 0.75008 0.12722 0.67113 0.0
O459 O 0.76745 0.14875 0.64211 0.0
C460 C 0.85406 0.18242 0.67882 0.0
C461 C 0.86504 0.166 0.66772 0.0
H462 H 0.88105 0.13153 0.6448 0.0
H463 H 0.86131 0.10339 0.62384 0.0
H464 H 0.79106 0.20835 0.69548 0.0
H465 H 0.82792 0.21117 0.698 0.0
H466 H 0.8619 0.19499 0.68863 0.0
H467 H 0.88117 0.16618 0.66919 0.0
Mn468 Mn 0.9081 0.76721 0.68426 0.0
Mn469 Mn 0.87438 0.79053 0.63951 0.0
C470 C 0.88504 0.78885 0.70582 0.0
C471 C 0.94005 0.7659 0.70564 0.0
C472 C 0.87096 0.74704 0.65845 0.0
O473 O 0.9191 0.7629 0.64124 0.0
O474 O 0.89776 0.78233 0.61491 0.0
C475 C 0.89799 0.82655 0.62478 0.0
N476 N 0.88104 0.81813 0.63602 0.0
C477 C 0.86655 0.85034 0.64574 0.0
C478 C 0.88381 0.85937 0.63408 0.0
C479 C 0.89963 0.84742 0.62366 0.0
C480 C 0.86583 0.82948 0.64643 0.0
H481 H 0.91017 0.8174 0.61677 0.0
C482 C 0.91323 0.77126 0.61677 0.0
O483 O 0.92933 0.74994 0.70214 0.0
O484 O 0.93238 0.78252 0.69612 0.0
N485 N 0.85073 0.79948 0.6598 0.0
C486 C 0.83515 0.78843 0.67045 0.0
C487 C 0.81802 0.79811 0.68145 0.0
C488 C 0.81697 0.81902 0.68098 0.0
C489 C 0.83305 0.83007 0.6695 0.0
C490 C 0.84965 0.81959 0.65856 0.0
H491 H 0.83575 0.77234 0.67052 0.0
O492 O 0.8944 0.77597 0.72251 0.0
O493 O 0.8899 0.78916 0.67721 0.0
O494 O 0.88595 0.74674 0.67632 0.0
O495 O 0.86607 0.76227 0.64262 0.0
C496 C 0.83332 0.85107 0.66864 0.0
C497 C 0.85011 0.8612 0.65694 0.0
H498 H 0.88512 0.87546 0.63315 0.0
H499 H 0.91303 0.85428 0.61475 0.0
H500 H 0.80564 0.78948 0.69018 0.0
H501 H 0.80374 0.82644 0.68945 0.0
H502 H 0.82077 0.85958 0.67718 0.0
H503 H 0.85023 0.87735 0.65669 0.0
Mn504 Mn 0.24173 0.908 0.68858 0.0
Mn505 Mn 0.21649 0.87284 0.64913 0.0
C506 C 0.22191 0.88495 0.71413 0.0
C507 C 0.2432 0.94028 0.70892 0.0
C508 C 0.26102 0.87047 0.66201 0.0
O509 O 0.24305 0.91833 0.64475 0.0
O510 O 0.22306 0.89567 0.62239 0.0
C511 C 0.17956 0.89594 0.63823 0.0
N512 N 0.18872 0.87919 0.64875 0.0
C513 C 0.15724 0.86435 0.66218 0.0
C514 C 0.14744 0.88134 0.65115 0.0
C515 C 0.15866 0.89725 0.63928 0.0
C516 C 0.17809 0.86396 0.66071 0.0
H517 H 0.18815 0.90821 0.62921 0.0
C518 C 0.23361 0.91157 0.62175 0.0
O519 O 0.25931 0.93021 0.70307 0.0
O520 O 0.22639 0.93185 0.70211 0.0
N521 N 0.20886 0.84962 0.67161 0.0
C522 C 0.22061 0.83448 0.68189 0.0
C523 C 0.21171 0.81733 0.69422 0.0
C524 C 0.19084 0.81582 0.69554 0.0
C525 C 0.17904 0.83154 0.68474 0.0
C526 C 0.18875 0.84815 0.67234 0.0
H527 H 0.23665 0.83541 0.68057 0.0
O528 O 0.2357 0.8947 0.72846 0.0
O529 O 0.21982 0.88926 0.68555 0.0
O530 O 0.26227 0.88626 0.67818 0.0
O531 O 0.24486 0.86478 0.64926 0.0
C532 C 0.15804 0.83142 0.68592 0.0
C533 C 0.14715 0.84788 0.67486 0.0
H534 H 0.13133 0.8824 0.65189 0.0
H535 H 0.15122 0.91047 0.63093 0.0
H536 H 0.22091 0.80526 0.70252 0.0
H537 H 0.18402 0.80251 0.70483 0.0
H538 H 0.15013 0.81885 0.69563 0.0
H539 H 0.13102 0.84774 0.67626 0.0
Mn540 Mn 0.10573 0.24418 0.6847 0.0
Mn541 Mn 0.14085 0.22032 0.6432 0.0
C542 C 0.12949 0.22457 0.70883 0.0
C543 C 0.07358 0.24474 0.70576 0.0
C544 C 0.14184 0.26483 0.65664 0.0
O545 O 0.09508 0.24583 0.64101 0.0
O546 O 0.1171 0.22542 0.61775 0.0
C547 C 0.11978 0.18203 0.63369 0.0
N548 N 0.13612 0.19222 0.64345 0.0
C549 C 0.15292 0.16177 0.65683 0.0
C550 C 0.13636 0.15093 0.64661 0.0
C551 C 0.11968 0.16111 0.63513 0.0
C552 C 0.15212 0.18259 0.65495 0.0
H553 H 0.10692 0.18983 0.62499 0.0
C554 C 0.10125 0.23605 0.61786 0.0
O555 O 0.08331 0.2611 0.70026 0.0
O556 O 0.08227 0.22819 0.69817 0.0
N557 N 0.16486 0.21422 0.66476 0.0
C558 C 0.1794 0.22692 0.67445 0.0
C559 C 0.1971 0.21912 0.68664 0.0
C560 C 0.19978 0.19839 0.6884 0.0
C561 C 0.18469 0.18562 0.67808 0.0
C562 C 0.16746 0.19424 0.66586 0.0
H563 H 0.17758 0.24287 0.67279 0.0
O564 O 0.11951 0.23781 0.72406 0.0
O565 O 0.12493 0.22289 0.68031 0.0
O566 O 0.12695 0.26527 0.67478 0.0
O567 O 0.14734 0.24914 0.64235 0.0
C568 C 0.18601 0.16467 0.67963 0.0
C569 C 0.17008 0.15276 0.66919 0.0
H570 H 0.13622 0.13479 0.6477 0.0
H571 H 0.10678 0.15285 0.62741 0.0
H572 H 0.20869 0.22908 0.69453 0.0
H573 H 0.21348 0.19244 0.69771 0.0
H574 H 0.19909 0.15758 0.68918 0.0
H575 H 0.17114 0.13668 0.67092 0.0
Mn576 Mn 0.74411 0.60428 0.68899 0.0
Mn577 Mn 0.71904 0.63764 0.6457 0.0
C578 C 0.72234 0.62672 0.71177 0.0
C579 C 0.74638 0.57227 0.71002 0.0
C580 C 0.76257 0.64265 0.66341 0.0
O581 O 0.74794 0.59339 0.64601 0.0
O582 O 0.7287 0.61517 0.62031 0.0
C583 C 0.68461 0.61192 0.63046 0.0
N584 N 0.69192 0.62927 0.64204 0.0
C585 C 0.65884 0.64164 0.65177 0.0
C586 C 0.65093 0.62396 0.63976 0.0
C587 C 0.66389 0.60901 0.62917 0.0
C588 C 0.67961 0.64364 0.65265 0.0
H589 H 0.69452 0.60041 0.6223 0.0
C590 C 0.73982 0.59971 0.62168 0.0
O591 O 0.76211 0.58329 0.70603 0.0
O592 O 0.72948 0.57974 0.70139 0.0
N593 N 0.70858 0.66047 0.66642 0.0
C594 C 0.71859 0.67664 0.6773 0.0
C595 C 0.70782 0.69308 0.68836 0.0
C596 C 0.68688 0.69285 0.68773 0.0
C597 C 0.6769 0.67617 0.67604 0.0
C598 C 0.68843 0.66032 0.66504 0.0
H599 H 0.73468 0.67702 0.67756 0.0
O600 O 0.73586 0.61769 0.72766 0.0
O601 O 0.72148 0.62193 0.68314 0.0
O602 O 0.76397 0.62694 0.67978 0.0
O603 O 0.74668 0.64758 0.64923 0.0
C604 C 0.65595 0.67462 0.67501 0.0
C605 C 0.64693 0.6573 0.66307 0.0
H606 H 0.63496 0.62167 0.63867 0.0
H607 H 0.6579 0.59529 0.61998 0.0
H608 H 0.71563 0.70592 0.6973 0.0
H609 H 0.67861 0.70555 0.69625 0.0
H610 H 0.64665 0.68657 0.68359 0.0
H611 H 0.63082 0.6562 0.66267 0.0
Mn612 Mn 0.40663 0.74669 0.68846 0.0
Mn613 Mn 0.3729 0.72287 0.64446 0.0
C614 C 0.3836 0.72529 0.71073 0.0
C615 C 0.43874 0.74807 0.70927 0.0
C616 C 0.36975 0.7667 0.66177 0.0
O617 O 0.41751 0.75047 0.64527 0.0
O618 O 0.39644 0.73034 0.61963 0.0
C619 C 0.39601 0.68629 0.63115 0.0
N620 N 0.37917 0.69513 0.64206 0.0
C621 C 0.36417 0.66331 0.65282 0.0
C622 C 0.3813 0.65384 0.64153 0.0
C623 C 0.39731 0.66539 0.63075 0.0
C624 C 0.36377 0.68418 0.65278 0.0
H625 H 0.40833 0.69513 0.62286 0.0
C626 C 0.41182 0.74157 0.62114 0.0
O627 O 0.42806 0.76405 0.70568 0.0
O628 O 0.43088 0.73139 0.70037 0.0
N629 N 0.34916 0.7146 0.66513 0.0
C630 C 0.33384 0.72605 0.67569 0.0
C631 C 0.3166 0.7168 0.68714 0.0
C632 C 0.31518 0.69591 0.68726 0.0
C633 C 0.33103 0.68444 0.67599 0.0
C634 C 0.34775 0.6945 0.66458 0.0
H635 H 0.33472 0.74212 0.67532 0.0
O636 O 0.39301 0.73835 0.72705 0.0
O637 O 0.38839 0.72471 0.6821 0.0
O638 O 0.38452 0.76715 0.68007 0.0
O639 O 0.36495 0.75129 0.6463 0.0
C640 C 0.33096 0.66343 0.67582 0.0
C641 C 0.34757 0.65287 0.66441 0.0
H642 H 0.38236 0.63772 0.64116 0.0
H643 H 0.41061 0.65819 0.62211 0.0
H644 H 0.30441 0.72575 0.69575 0.0
H645 H 0.30184 0.68883 0.69602 0.0
H646 H 0.3183 0.65525 0.68472 0.0
H647 H 0.34744 0.63672 0.66473 0.0
Mn648 Mn 0.27026 0.40524 0.68508 0.0
Mn649 Mn 0.29555 0.3701 0.64552 0.0
C650 C 0.28983 0.38202 0.71061 0.0
C651 C 0.26875 0.43752 0.70537 0.0
C652 C 0.25091 0.36793 0.65799 0.0
O653 O 0.26927 0.41572 0.64134 0.0
O654 O 0.28925 0.39306 0.61887 0.0
C655 C 0.33267 0.39301 0.63498 0.0
N656 N 0.32336 0.3763 0.64538 0.0
C657 C 0.35467 0.36128 0.65903 0.0
C658 C 0.36463 0.37824 0.64815 0.0
C659 C 0.35357 0.39421 0.63622 0.0
C660 C 0.33383 0.36099 0.65735 0.0
H661 H 0.3242 0.40533 0.62591 0.0
C662 C 0.2788 0.40903 0.61833 0.0
O663 O 0.25266 0.42748 0.69942 0.0
O664 O 0.28559 0.42902 0.69887 0.0
N665 N 0.30291 0.34679 0.66794 0.0
C666 C 0.29101 0.33174 0.6782 0.0
C667 C 0.29974 0.31457 0.69071 0.0
C668 C 0.32059 0.31295 0.69221 0.0
C669 C 0.33254 0.32858 0.68141 0.0
C670 C 0.32301 0.34521 0.66885 0.0
H671 H 0.27498 0.33277 0.67678 0.0
O672 O 0.27601 0.39179 0.72492 0.0
O673 O 0.2921 0.38642 0.68207 0.0
O674 O 0.24967 0.38365 0.67433 0.0
O675 O 0.26712 0.36218 0.64534 0.0
C676 C 0.35353 0.32836 0.68279 0.0
C677 C 0.36459 0.34476 0.6718 0.0
H678 H 0.38074 0.37922 0.64905 0.0
H679 H 0.36113 0.40741 0.62798 0.0
H680 H 0.29042 0.30257 0.69902 0.0
H681 H 0.32727 0.29965 0.7017 0.0
H682 H 0.36131 0.31576 0.69261 0.0
H683 H 0.3807 0.34454 0.67337 0.0
Mn684 Mn 0.60758 0.26822 0.68749 0.0
Mn685 Mn 0.64303 0.29261 0.64746 0.0
C686 C 0.63103 0.28762 0.71279 0.0
C687 C 0.57517 0.26726 0.70748 0.0
C688 C 0.64393 0.24793 0.65959 0.0
O689 O 0.59738 0.26708 0.64354 0.0
O690 O 0.61955 0.28776 0.62127 0.0
C691 C 0.62208 0.33098 0.63827 0.0
N692 N 0.63828 0.32069 0.64829 0.0
C693 C 0.65494 0.35101 0.66278 0.0
C694 C 0.63851 0.36196 0.65234 0.0
C695 C 0.62197 0.35189 0.64017 0.0
C696 C 0.65416 0.33021 0.66042 0.0
H697 H 0.60933 0.32328 0.62899 0.0
C698 C 0.60372 0.27709 0.62074 0.0
O699 O 0.58506 0.25102 0.70185 0.0
O700 O 0.58389 0.28396 0.70081 0.0
N701 N 0.66678 0.29848 0.6698 0.0
C702 C 0.68117 0.28569 0.6797 0.0
C703 C 0.69871 0.29335 0.69257 0.0
C704 C 0.7014 0.31407 0.6948 0.0
C705 C 0.68645 0.32694 0.68435 0.0
C706 C 0.66937 0.31845 0.67145 0.0
H707 H 0.67934 0.26975 0.67767 0.0
O708 O 0.62093 0.27416 0.72736 0.0
O709 O 0.62676 0.28963 0.68419 0.0
O710 O 0.62893 0.24728 0.67748 0.0
O711 O 0.64956 0.26381 0.64592 0.0
C712 C 0.68775 0.34787 0.6864 0.0
C713 C 0.67196 0.35989 0.6758 0.0
H714 H 0.63837 0.37808 0.65377 0.0
H715 H 0.60918 0.36023 0.63224 0.0
H716 H 0.71019 0.28332 0.70058 0.0
H717 H 0.715 0.31991 0.70457 0.0
H718 H 0.70072 0.35486 0.69647 0.0
H719 H 0.673 0.37595 0.6779 0.0
Mn720 Mn 0.74716 0.40592 0.83679 0.0
Mn721 Mn 0.72341 0.37224 0.88115 0.0
C722 C 0.72596 0.38269 0.81476 0.0
C723 C 0.74834 0.43795 0.81562 0.0
C724 C 0.76729 0.36923 0.86392 0.0
O725 O 0.7508 0.41697 0.87984 0.0
O726 O 0.73078 0.39587 0.90573 0.0
C727 C 0.68674 0.39529 0.89416 0.0
N728 N 0.69565 0.37845 0.88344 0.0
C729 C 0.66387 0.36339 0.87262 0.0
C730 C 0.65434 0.38053 0.88373 0.0
C731 C 0.66583 0.39657 0.89444 0.0
C732 C 0.68475 0.36301 0.87279 0.0
H733 H 0.69554 0.40765 0.9024 0.0
C734 C 0.74193 0.41131 0.90404 0.0
O735 O 0.7644 0.42741 0.81934 0.0
O736 O 0.73171 0.43 0.82461 0.0
N737 N 0.71524 0.3484 0.86074 0.0
C738 C 0.72674 0.33307 0.85039 0.0
C739 C 0.71754 0.31581 0.83897 0.0
C740 C 0.69665 0.31439 0.83867 0.0
C741 C 0.68513 0.33024 0.84981 0.0
C742 C 0.69512 0.34697 0.86118 0.0
H743 H 0.74281 0.33396 0.85086 0.0
O744 O 0.73899 0.39212 0.79836 0.0
O745 O 0.72527 0.38759 0.84333 0.0
O746 O 0.76772 0.38396 0.8455 0.0
O747 O 0.75185 0.36438 0.87939 0.0
C748 C 0.66411 0.33015 0.84984 0.0
C749 C 0.65349 0.34676 0.86108 0.0
H750 H 0.63822 0.38158 0.88398 0.0
H751 H 0.65859 0.40988 0.90293 0.0
H752 H 0.72654 0.30362 0.83048 0.0
H753 H 0.68961 0.30107 0.82984 0.0
H754 H 0.65597 0.31748 0.84096 0.0
H755 H 0.63734 0.34663 0.86065 0.0
Mn756 Mn 0.6055 0.74522 0.83441 0.0
Mn757 Mn 0.63914 0.7205 0.87765 0.0
C758 C 0.6279 0.72337 0.81175 0.0
C759 C 0.57341 0.74725 0.8136 0.0
C760 C 0.64396 0.76394 0.85923 0.0
O761 O 0.59466 0.74911 0.87744 0.0
O762 O 0.6168 0.73032 0.90322 0.0
C763 C 0.61353 0.68617 0.894 0.0
N764 N 0.6308 0.69341 0.88196 0.0
C765 C 0.64309 0.66027 0.87253 0.0
C766 C 0.62549 0.65244 0.88501 0.0
C767 C 0.61062 0.66546 0.89568 0.0
C768 C 0.64509 0.68103 0.87129 0.0
H769 H 0.60207 0.69613 0.90222 0.0
C770 C 0.60121 0.74126 0.90184 0.0
O771 O 0.58437 0.76304 0.8173 0.0
O772 O 0.58099 0.73043 0.82239 0.0
N773 N 0.66183 0.70991 0.85671 0.0
C774 C 0.67791 0.71985 0.84527 0.0
C775 C 0.69425 0.70901 0.83401 0.0
C776 C 0.69402 0.68808 0.83501 0.0
C777 C 0.67745 0.67817 0.84725 0.0
C778 C 0.66169 0.68977 0.85842 0.0
H779 H 0.67827 0.73593 0.84469 0.0
O780 O 0.61885 0.73684 0.79575 0.0
O781 O 0.62321 0.72266 0.84043 0.0
O782 O 0.62812 0.76524 0.84319 0.0
O783 O 0.64904 0.7481 0.87346 0.0
C784 C 0.67589 0.65724 0.84864 0.0
C785 C 0.65867 0.64829 0.86109 0.0
H786 H 0.62321 0.63648 0.8864 0.0
H787 H 0.59696 0.65953 0.90524 0.0
H788 H 0.70701 0.71677 0.82464 0.0
H789 H 0.70665 0.67976 0.82634 0.0
H790 H 0.68777 0.64789 0.83994 0.0
H791 H 0.65755 0.63219 0.86176 0.0
Mn792 Mn 0.26769 0.60459 0.83078 0.0
Mn793 Mn 0.29124 0.63861 0.8747 0.0
C794 C 0.28833 0.62823 0.80835 0.0
C795 C 0.26692 0.57264 0.80922 0.0
C796 C 0.24723 0.64102 0.85843 0.0
O797 O 0.26461 0.59335 0.87385 0.0
O798 O 0.28417 0.61495 0.89948 0.0
C799 C 0.32817 0.6159 0.88718 0.0
N800 N 0.31907 0.63265 0.87657 0.0
C801 C 0.35066 0.64806 0.86549 0.0
C802 C 0.36039 0.63102 0.87648 0.0
C803 C 0.34909 0.61484 0.88726 0.0
C804 C 0.32978 0.64821 0.86585 0.0
H805 H 0.31951 0.60345 0.8955 0.0
C806 C 0.27335 0.59928 0.89797 0.0
O807 O 0.25067 0.58273 0.81388 0.0
O808 O 0.28349 0.58094 0.81763 0.0
N809 N 0.29912 0.6625 0.85416 0.0
C810 C 0.28743 0.67773 0.84399 0.0
C811 C 0.29642 0.69511 0.83262 0.0
C812 C 0.3173 0.69678 0.83217 0.0
C813 C 0.32901 0.68102 0.84305 0.0
C814 C 0.31922 0.66415 0.8544 0.0
H815 H 0.27138 0.67665 0.84462 0.0
O816 O 0.27526 0.61869 0.79224 0.0
O817 O 0.28934 0.62326 0.83686 0.0
O818 O 0.24682 0.62616 0.84027 0.0
O819 O 0.26274 0.6462 0.87337 0.0
C820 C 0.35002 0.68135 0.8429 0.0
C821 C 0.36084 0.66483 0.85395 0.0
H822 H 0.37652 0.63015 0.87659 0.0
H823 H 0.35649 0.60161 0.89566 0.0
H824 H 0.28728 0.70724 0.82431 0.0
H825 H 0.32417 0.71024 0.82347 0.0
H826 H 0.35801 0.69413 0.83403 0.0
H827 H 0.37699 0.66515 0.85339 0.0
Mn828 Mn 0.40857 0.2667 0.83508 0.0
Mn829 Mn 0.37445 0.29022 0.87902 0.0
C830 C 0.38477 0.2871 0.81272 0.0
C831 C 0.44047 0.26602 0.81321 0.0
C832 C 0.37235 0.24611 0.86322 0.0
O833 O 0.4199 0.26395 0.87812 0.0
O834 O 0.39825 0.28359 0.90364 0.0
C835 C 0.39677 0.32749 0.89084 0.0
N836 N 0.3801 0.31813 0.88049 0.0
C837 C 0.36434 0.34946 0.869 0.0
C838 C 0.3813 0.35946 0.87972 0.0
C839 C 0.39761 0.34842 0.89059 0.0
C840 C 0.36441 0.32859 0.8697 0.0
H841 H 0.40933 0.31904 0.8992 0.0
C842 C 0.41399 0.27286 0.90215 0.0
O843 O 0.4305 0.24973 0.81812 0.0
O844 O 0.43211 0.28258 0.82159 0.0
N845 N 0.35043 0.29769 0.85852 0.0
C846 C 0.33533 0.28576 0.84856 0.0
C847 C 0.31786 0.29447 0.83706 0.0
C848 C 0.31598 0.31532 0.83627 0.0
C849 C 0.3316 0.32729 0.84698 0.0
C850 C 0.34858 0.31776 0.85847 0.0
H851 H 0.33657 0.26973 0.84942 0.0
O852 O 0.39434 0.27401 0.79659 0.0
O853 O 0.38979 0.28823 0.84117 0.0
O854 O 0.38715 0.24573 0.84488 0.0
O855 O 0.36713 0.26164 0.87813 0.0
C856 C 0.33107 0.34829 0.8465 0.0
C857 C 0.34747 0.35937 0.85734 0.0
H858 H 0.382 0.37559 0.87956 0.0
H859 H 0.41078 0.35602 0.89878 0.0
H860 H 0.30585 0.28514 0.82889 0.0
H861 H 0.30249 0.32198 0.82739 0.0
H862 H 0.3182 0.35607 0.83752 0.0
H863 H 0.34699 0.3755 0.85651 0.0
Mn864 Mn 0.26733 0.40964 0.3348 0.0
Mn865 Mn 0.29035 0.3756 0.3794 0.0
C866 C 0.28799 0.38578 0.31305 0.0
C867 C 0.26683 0.44138 0.31253 0.0
C868 C 0.24651 0.37325 0.36217 0.0
O869 O 0.26409 0.42119 0.37767 0.0
O870 O 0.283 0.39929 0.40382 0.0
C871 C 0.32711 0.3984 0.39263 0.0
N872 N 0.31815 0.38161 0.38191 0.0
C873 C 0.34988 0.36628 0.37148 0.0
C874 C 0.35947 0.38337 0.3826 0.0
C875 C 0.34803 0.39952 0.39312 0.0
C876 C 0.329 0.36607 0.37143 0.0
H877 H 0.31836 0.41084 0.40072 0.0
C878 C 0.27247 0.41513 0.40201 0.0
O879 O 0.2505 0.43142 0.31725 0.0
O880 O 0.28331 0.43314 0.32141 0.0
N881 N 0.29848 0.35165 0.35921 0.0
C882 C 0.28693 0.33632 0.34905 0.0
C883 C 0.29606 0.31892 0.33796 0.0
C884 C 0.31695 0.31735 0.33782 0.0
C885 C 0.32852 0.33319 0.34879 0.0
C886 C 0.31858 0.35007 0.35984 0.0
H887 H 0.27086 0.33732 0.34943 0.0
O888 O 0.27506 0.39525 0.29659 0.0
O889 O 0.28884 0.3909 0.34149 0.0
O890 O 0.24628 0.38823 0.34422 0.0
O891 O 0.26189 0.36796 0.37733 0.0
C892 C 0.34953 0.33295 0.34903 0.0
C893 C 0.36021 0.34953 0.3602 0.0
H894 H 0.37559 0.38428 0.38303 0.0
H895 H 0.35532 0.41279 0.40162 0.0
H896 H 0.28702 0.30673 0.32962 0.0
H897 H 0.32394 0.30392 0.32927 0.0
H898 H 0.35763 0.32016 0.34039 0.0
H899 H 0.37636 0.34925 0.35996 0.0
Mn900 Mn 0.60351 0.2683 0.33655 0.0
Mn901 Mn 0.63751 0.29228 0.38014 0.0
C902 C 0.62694 0.28917 0.31413 0.0
C903 C 0.57175 0.26723 0.31442 0.0
C904 C 0.64106 0.24855 0.36265 0.0
O905 O 0.59203 0.26522 0.37941 0.0
O906 O 0.61459 0.28344 0.40531 0.0
C907 C 0.61288 0.3276 0.39503 0.0
N908 N 0.63004 0.31967 0.38365 0.0
C909 C 0.64351 0.35229 0.37373 0.0
C910 C 0.62604 0.36082 0.38555 0.0
C911 C 0.61063 0.34841 0.39613 0.0
C912 C 0.64485 0.33146 0.37305 0.0
H913 H 0.60101 0.31811 0.40316 0.0
C914 C 0.59864 0.27305 0.40381 0.0
O915 O 0.58189 0.25105 0.31934 0.0
O916 O 0.57983 0.28385 0.32305 0.0
N917 N 0.66077 0.30191 0.35956 0.0
C918 C 0.67665 0.29133 0.34885 0.0
C919 C 0.69348 0.30151 0.3378 0.0
C920 C 0.69391 0.32244 0.33825 0.0
C921 C 0.67753 0.33301 0.34978 0.0
C922 C 0.66127 0.32205 0.3608 0.0
H923 H 0.67651 0.27524 0.34872 0.0
O924 O 0.6177 0.27584 0.29811 0.0
O925 O 0.6219 0.29027 0.34262 0.0
O926 O 0.62528 0.24761 0.3464 0.0
O927 O 0.64653 0.26433 0.37671 0.0
C928 C 0.67665 0.354 0.35062 0.0
C929 C 0.65959 0.36363 0.3624 0.0
H930 H 0.62427 0.37686 0.38647 0.0
H931 H 0.59707 0.35487 0.40516 0.0
H932 H 0.70609 0.29324 0.329 0.0
H933 H 0.70691 0.33025 0.32972 0.0
H934 H 0.68892 0.36286 0.34201 0.0
H935 H 0.659 0.37977 0.36265 0.0
Mn936 Mn 0.74358 0.60532 0.3379 0.0
Mn937 Mn 0.71857 0.64036 0.37809 0.0
C938 C 0.72374 0.62854 0.31294 0.0
C939 C 0.74476 0.57312 0.31716 0.0
C940 C 0.7631 0.64261 0.3647 0.0
O941 O 0.74502 0.5948 0.38161 0.0
O942 O 0.725 0.61731 0.40444 0.0
C943 C 0.68149 0.61742 0.38887 0.0
N944 N 0.69075 0.63419 0.3786 0.0
C945 C 0.65936 0.64929 0.36553 0.0
C946 C 0.64946 0.63229 0.37636 0.0
C947 C 0.66058 0.61624 0.38792 0.0
C948 C 0.68022 0.64956 0.36693 0.0
H949 H 0.69 0.60503 0.39759 0.0
C950 C 0.73555 0.60141 0.40475 0.0
O951 O 0.76096 0.58306 0.32285 0.0
O952 O 0.72805 0.58162 0.32439 0.0
N953 N 0.71108 0.66375 0.35595 0.0
C954 C 0.72293 0.67883 0.34567 0.0
C955 C 0.71414 0.69606 0.33346 0.0
C956 C 0.69328 0.69771 0.33227 0.0
C957 C 0.68139 0.68206 0.34312 0.0
C958 C 0.69098 0.66536 0.35538 0.0
H959 H 0.73897 0.67779 0.34682 0.0
O960 O 0.73742 0.61882 0.29825 0.0
O961 O 0.72177 0.62411 0.34148 0.0
O962 O 0.76425 0.62695 0.34822 0.0
O963 O 0.747 0.64823 0.37783 0.0
C964 C 0.66039 0.68231 0.34207 0.0
C965 C 0.64939 0.66587 0.35307 0.0
H966 H 0.63334 0.63132 0.37567 0.0
H967 H 0.65306 0.603 0.39607 0.0
H968 H 0.72342 0.70808 0.32512 0.0
H969 H 0.68656 0.71106 0.32299 0.0
H970 H 0.65256 0.69495 0.33248 0.0
H971 H 0.63326 0.66611 0.35173 0.0
Mn972 Mn 0.40757 0.74211 0.33757 0.0
Mn973 Mn 0.37233 0.71706 0.37738 0.0
C974 C 0.38423 0.72257 0.31225 0.0
C975 C 0.43979 0.74342 0.3168 0.0
C976 C 0.37025 0.76162 0.36454 0.0
O977 O 0.41807 0.74329 0.38128 0.0
O978 O 0.39526 0.72352 0.4039 0.0
C979 C 0.39531 0.68004 0.38809 0.0
N980 N 0.37856 0.68927 0.37773 0.0
C981 C 0.3636 0.65787 0.36435 0.0
C982 C 0.38059 0.648 0.37522 0.0
C983 C 0.39655 0.65914 0.38699 0.0
C984 C 0.36327 0.67871 0.36588 0.0
H985 H 0.40763 0.68857 0.39701 0.0
C986 C 0.41125 0.73394 0.40438 0.0
O987 O 0.42985 0.75957 0.32285 0.0
O988 O 0.43128 0.72665 0.32368 0.0
N989 N 0.34899 0.70955 0.35518 0.0
C990 C 0.33383 0.72136 0.34512 0.0
C991 C 0.31664 0.71254 0.33286 0.0
C992 C 0.31509 0.69168 0.33143 0.0
C993 C 0.33079 0.67982 0.34211 0.0
C994 C 0.34745 0.68945 0.35442 0.0
H995 H 0.33481 0.7374 0.3465 0.0
O996 O 0.39407 0.73628 0.29784 0.0
O997 O 0.38865 0.72034 0.34076 0.0
O998 O 0.38603 0.76278 0.34829 0.0
O999 O 0.36442 0.74548 0.37727 0.0
C1000 C 0.33062 0.65883 0.34086 0.0
C1001 C 0.34707 0.64786 0.35178 0.0
H1002 H 0.3816 0.63188 0.37443 0.0
H1003 H 0.40978 0.65164 0.39521 0.0
H1004 H 0.30458 0.72179 0.32467 0.0
H1005 H 0.30177 0.68493 0.32211 0.0
H1006 H 0.31801 0.65098 0.33122 0.0
H1007 H 0.34688 0.63174 0.35033 0.0
Mn1008 Mn 0.26894 0.60657 0.18193 0.0
Mn1009 Mn 0.29283 0.64233 0.1418 0.0
C1010 C 0.28852 0.63 0.20696 0.0
C1011 C 0.26818 0.57419 0.20191 0.0
C1012 C 0.2483 0.64309 0.15526 0.0
O1013 O 0.2675 0.59645 0.13788 0.0
O1014 O 0.28771 0.61899 0.11544 0.0
C1015 C 0.33111 0.62138 0.13144 0.0
N1016 N 0.32092 0.63758 0.14181 0.0
C1017 C 0.35138 0.65413 0.15584 0.0
C1018 C 0.36222 0.63772 0.14498 0.0
C1019 C 0.35203 0.62124 0.13287 0.0
C1020 C 0.33056 0.65338 0.15394 0.0
H1021 H 0.3233 0.60866 0.12228 0.0
C1022 C 0.27725 0.60302 0.11494 0.0
O1023 O 0.25189 0.58405 0.19658 0.0
O1024 O 0.28482 0.58289 0.19479 0.0
N1025 N 0.29893 0.66598 0.1643 0.0
C1026 C 0.28624 0.68036 0.17462 0.0
C1027 C 0.29404 0.69786 0.1875 0.0
C1028 C 0.31478 0.7005 0.18931 0.0
C1029 C 0.32755 0.68557 0.17837 0.0
C1030 C 0.31891 0.66855 0.16548 0.0
H1031 H 0.27029 0.67858 0.17293 0.0
O1032 O 0.2752 0.61985 0.22178 0.0
O1033 O 0.29027 0.62582 0.17829 0.0
O1034 O 0.24787 0.62788 0.17269 0.0
O1035 O 0.264 0.64887 0.14124 0.0
C1036 C 0.3485 0.68685 0.17995 0.0
C1037 C 0.3604 0.67108 0.16887 0.0
H1038 H 0.37836 0.63755 0.14605 0.0
H1039 H 0.36028 0.60845 0.12466 0.0
H1040 H 0.28409 0.70932 0.19587 0.0
H1041 H 0.32073 0.71405 0.19913 0.0
H1042 H 0.35559 0.69976 0.19001 0.0
H1043 H 0.37648 0.67209 0.17063 0.0
Mn1044 Mn 0.40604 0.27078 0.18581 0.0
Mn1045 Mn 0.3707 0.29608 0.14684 0.0
C1046 C 0.38293 0.29037 0.21169 0.0
C1047 C 0.43834 0.26921 0.20595 0.0
C1048 C 0.36852 0.25148 0.15933 0.0
O1049 O 0.41638 0.26981 0.14192 0.0
O1050 O 0.39349 0.28967 0.11987 0.0
C1051 C 0.3937 0.3331 0.136 0.0
N1052 N 0.37699 0.32386 0.14658 0.0
C1053 C 0.3621 0.35525 0.1603 0.0
C1054 C 0.37905 0.36513 0.14921 0.0
C1055 C 0.39496 0.35399 0.13716 0.0
C1056 C 0.36175 0.3344 0.15871 0.0
H1057 H 0.40598 0.32457 0.12684 0.0
C1058 C 0.4095 0.27928 0.11903 0.0
O1059 O 0.42827 0.25314 0.19992 0.0
O1060 O 0.42988 0.28606 0.19947 0.0
N1061 N 0.34751 0.30356 0.16957 0.0
C1062 C 0.33243 0.29173 0.17996 0.0
C1063 C 0.31529 0.30055 0.19251 0.0
C1064 C 0.31372 0.3214 0.19392 0.0
C1065 C 0.32938 0.33328 0.18303 0.0
C1066 C 0.34598 0.32366 0.17042 0.0
H1067 H 0.33341 0.2757 0.17857 0.0
O1068 O 0.39272 0.27652 0.22582 0.0
O1069 O 0.38722 0.29264 0.18312 0.0
O1070 O 0.38439 0.25023 0.17527 0.0
O1071 O 0.36268 0.26768 0.14684 0.0
C1072 C 0.32922 0.35427 0.18433 0.0
C1073 C 0.34563 0.36524 0.17318 0.0
H1074 H 0.38008 0.38124 0.15005 0.0
H1075 H 0.40816 0.36149 0.12877 0.0
H1076 H 0.30327 0.29128 0.2009 0.0
H1077 H 0.30042 0.32815 0.20338 0.0
H1078 H 0.31665 0.36211 0.1942 0.0
H1079 H 0.34546 0.38136 0.17469 0.0
Mn1080 Mn 0.74197 0.40752 0.18747 0.0
Mn1081 Mn 0.71676 0.37249 0.14766 0.0
C1082 C 0.72206 0.38442 0.21276 0.0
C1083 C 0.74353 0.43973 0.20805 0.0
C1084 C 0.76126 0.37004 0.16074 0.0
O1085 O 0.74342 0.41795 0.1437 0.0
O1086 O 0.72344 0.39538 0.12111 0.0
C1087 C 0.6799 0.39568 0.13671 0.0
N1088 N 0.689 0.37889 0.14717 0.0
C1089 C 0.65746 0.36405 0.16028 0.0
C1090 C 0.64772 0.38109 0.14932 0.0
C1091 C 0.659 0.39702 0.13763 0.0
C1092 C 0.67832 0.36363 0.15894 0.0
H1093 H 0.68853 0.40796 0.12784 0.0
C1094 C 0.73402 0.41125 0.12061 0.0
O1095 O 0.7596 0.42962 0.20217 0.0
O1096 O 0.7267 0.43138 0.20113 0.0
N1097 N 0.70904 0.34922 0.16995 0.0
C1098 C 0.72074 0.33403 0.18019 0.0
C1099 C 0.71178 0.31686 0.19237 0.0
C1100 C 0.6909 0.31538 0.19355 0.0
C1101 C 0.67916 0.33114 0.18277 0.0
C1102 C 0.68892 0.34777 0.17053 0.0
H1103 H 0.73678 0.33494 0.17898 0.0
O1104 O 0.73582 0.39411 0.22723 0.0
O1105 O 0.72003 0.38882 0.18421 0.0
O1106 O 0.76249 0.38578 0.17701 0.0
O1107 O 0.74512 0.36438 0.14789 0.0
C1108 C 0.65816 0.33105 0.18381 0.0
C1109 C 0.64732 0.34756 0.17278 0.0
H1110 H 0.6316 0.38217 0.14996 0.0
H1111 H 0.6516 0.41028 0.12933 0.0
H1112 H 0.72094 0.30475 0.20066 0.0
H1113 H 0.68404 0.30206 0.20274 0.0
H1114 H 0.6502 0.31846 0.19338 0.0
H1115 H 0.63118 0.34744 0.17408 0.0
Mn1116 Mn 0.60504 0.74225 0.18529 0.0
Mn1117 Mn 0.63965 0.71702 0.14448 0.0
C1118 C 0.62832 0.7223 0.20989 0.0
C1119 C 0.57296 0.74366 0.20653 0.0
C1120 C 0.64233 0.7615 0.15782 0.0
O1121 O 0.59429 0.74386 0.14178 0.0
O1122 O 0.61652 0.72375 0.11851 0.0
C1123 C 0.61628 0.68021 0.13397 0.0
N1124 N 0.63319 0.68928 0.14403 0.0
C1125 C 0.64805 0.65772 0.15678 0.0
C1126 C 0.63088 0.64801 0.14621 0.0
C1127 C 0.61489 0.65932 0.13491 0.0
C1128 C 0.64852 0.67857 0.15544 0.0
H1129 H 0.60394 0.68887 0.12541 0.0
C1130 C 0.60072 0.73445 0.11849 0.0
O1131 O 0.58299 0.75979 0.20067 0.0
O1132 O 0.5813 0.72689 0.19922 0.0
N1133 N 0.66312 0.70925 0.16613 0.0
C1134 C 0.67845 0.72091 0.17601 0.0
C1135 C 0.69568 0.71192 0.18783 0.0
C1136 C 0.69709 0.69104 0.18903 0.0
C1137 C 0.68122 0.67934 0.17854 0.0
C1138 C 0.66452 0.68914 0.16666 0.0
H1139 H 0.67758 0.73696 0.17483 0.0
O1140 O 0.61873 0.73601 0.22471 0.0
O1141 O 0.62368 0.72033 0.18143 0.0
O1142 O 0.62676 0.76276 0.17454 0.0
O1143 O 0.64779 0.74537 0.14467 0.0
C1144 C 0.68125 0.65834 0.17958 0.0
C1145 C 0.66461 0.64754 0.16891 0.0
H1146 H 0.62975 0.6319 0.14688 0.0
H1147 H 0.60153 0.65195 0.12692 0.0
H1148 H 0.70788 0.72105 0.19588 0.0
H1149 H 0.71044 0.68416 0.19803 0.0
H1150 H 0.69388 0.65036 0.18889 0.0
H1151 H 0.66469 0.63141 0.17021 0.0
H1152 H 0.37537 0.2131 0.17928 0.0
H1153 H 0.33165 0.24951 0.13321 0.0
H1154 H 0.35261 0.18469 0.17694 0.0
H1155 H 0.30885 0.22162 0.13198 0.0
H1156 H 0.27517 0.16631 0.11274 0.0
H1157 H 0.30197 0.19064 0.10984 0.0
H1158 H 0.32235 0.17264 0.19886 0.0
H1159 H 0.29594 0.14762 0.20108 0.0
C1160 C 0.36097 0.21506 0.16858 0.0
C1161 C 0.35542 0.23367 0.15643 0.0
C1162 C 0.34785 0.19879 0.16742 0.0
C1163 C 0.32883 0.20075 0.15422 0.0
C1164 C 0.32347 0.2193 0.14175 0.0
C1165 C 0.33659 0.23545 0.14267 0.0
C1166 C 0.28553 0.16737 0.13154 0.0
C1167 C 0.28332 0.15513 0.15724 0.0
C1168 C 0.30085 0.18144 0.12999 0.0
C1169 C 0.31419 0.18395 0.15435 0.0
C1170 C 0.3125 0.17109 0.17954 0.0
C1171 C 0.2973 0.15676 0.18088 0.0
H1172 H 0.86427 0.29635 0.20227 0.0
H1173 H 0.84613 0.27655 0.11314 0.0
H1174 H 0.8395 0.323 0.20029 0.0
H1175 H 0.82207 0.3036 0.11048 0.0
H1176 H 0.76322 0.33342 0.13372 0.0
H1177 H 0.79098 0.31047 0.13233 0.0
H1178 H 0.82783 0.35355 0.17896 0.0
H1179 H 0.79953 0.37646 0.18146 0.0
C1180 C 0.85531 0.29798 0.18196 0.0
C1181 C 0.857 0.2842 0.15802 0.0
C1182 C 0.84113 0.31332 0.18075 0.0
C1183 C 0.8285 0.31535 0.1554 0.0
C1184 C 0.83109 0.30221 0.13076 0.0
C1185 C 0.84501 0.28675 0.13216 0.0
C1186 C 0.77724 0.33817 0.14353 0.0
C1187 C 0.77902 0.35686 0.1578 0.0
C1188 C 0.79331 0.32498 0.14251 0.0
C1189 C 0.8118 0.3301 0.15539 0.0
C1190 C 0.81377 0.34897 0.16911 0.0
C1191 C 0.79756 0.36218 0.17037 0.0
H1192 H 0.63637 0.79979 0.17897 0.0
H1193 H 0.67871 0.76325 0.12995 0.0
H1194 H 0.65948 0.82793 0.17608 0.0
H1195 H 0.70187 0.7908 0.12822 0.0
H1196 H 0.73618 0.8456 0.10866 0.0
H1197 H 0.70891 0.82176 0.10648 0.0
H1198 H 0.69022 0.83948 0.19663 0.0
H1199 H 0.71706 0.86405 0.19809 0.0
C1200 C 0.65054 0.79774 0.16752 0.0
C1201 C 0.6556 0.77918 0.1547 0.0
C1202 C 0.66386 0.81385 0.16604 0.0
C1203 C 0.6826 0.81175 0.15186 0.0
C1204 C 0.68746 0.79324 0.13875 0.0
C1205 C 0.67415 0.77728 0.13997 0.0
C1206 C 0.72609 0.84458 0.12786 0.0
C1207 C 0.72888 0.85661 0.15364 0.0
C1208 C 0.7105 0.83079 0.12673 0.0
C1209 C 0.69749 0.82834 0.15161 0.0
C1210 C 0.69979 0.841 0.17691 0.0
C1211 C 0.71524 0.85507 0.17783 0.0
H1212 H 0.23818 0.66805 0.10886 0.0
H1213 H 0.2178 0.64711 0.19635 0.0
H1214 H 0.21098 0.69201 0.10743 0.0
H1215 H 0.19107 0.67177 0.19572 0.0
H1216 H 0.13786 0.71252 0.17988 0.0
H1217 H 0.16071 0.68426 0.17549 0.0
H1218 H 0.20384 0.72232 0.13099 0.0
H1219 H 0.18093 0.75002 0.13417 0.0
C1220 C 0.22781 0.66851 0.12775 0.0
C1221 C 0.23025 0.65576 0.1528 0.0
C1222 C 0.21226 0.68238 0.12709 0.0
C1223 C 0.19895 0.68418 0.15173 0.0
C1224 C 0.20087 0.67077 0.1762 0.0
C1225 C 0.21626 0.65664 0.17662 0.0
C1226 C 0.15214 0.71476 0.16886 0.0
C1227 C 0.15747 0.73362 0.15739 0.0
C1228 C 0.16532 0.69857 0.16651 0.0
C1229 C 0.18419 0.70088 0.1528 0.0
C1230 C 0.18933 0.71971 0.14108 0.0
C1231 C 0.17616 0.73576 0.14315 0.0
H1232 H 0.29729 0.86533 0.32403 0.0
H1233 H 0.2777 0.84717 0.41338 0.0
H1234 H 0.32378 0.84037 0.32567 0.0
H1235 H 0.30459 0.82291 0.41567 0.0
H1236 H 0.33369 0.76383 0.39182 0.0
H1237 H 0.31101 0.7918 0.39354 0.0
H1238 H 0.35434 0.82838 0.3467 0.0
H1239 H 0.37698 0.79988 0.34389 0.0
C1240 C 0.29894 0.85633 0.34431 0.0
C1241 C 0.28526 0.85807 0.36842 0.0
C1242 C 0.31418 0.84204 0.34532 0.0
C1243 C 0.31621 0.82934 0.37062 0.0
C1244 C 0.30319 0.83199 0.39544 0.0
C1245 C 0.28783 0.84602 0.39423 0.0
C1246 C 0.33856 0.77783 0.38204 0.0
C1247 C 0.35724 0.77949 0.36763 0.0
C1248 C 0.32552 0.79402 0.38324 0.0
C1249 C 0.33079 0.8125 0.37041 0.0
C1250 C 0.34965 0.81434 0.35653 0.0
C1251 C 0.3627 0.79801 0.3551 0.0
H1252 H 0.23583 0.34898 0.40907 0.0
H1253 H 0.21691 0.36804 0.31995 0.0
H1254 H 0.20902 0.32461 0.4104 0.0
H1255 H 0.19046 0.34299 0.32065 0.0
H1256 H 0.1369 0.30222 0.33871 0.0
H1257 H 0.15968 0.33066 0.34142 0.0
H1258 H 0.20313 0.2937 0.38698 0.0
H1259 H 0.18037 0.2658 0.38531 0.0
C1260 C 0.22586 0.34801 0.38978 0.0
C1261 C 0.22861 0.36034 0.3643 0.0
C1262 C 0.21054 0.33392 0.39043 0.0
C1263 C 0.19775 0.33149 0.36538 0.0
C1264 C 0.19991 0.34448 0.34044 0.0
C1265 C 0.21512 0.35883 0.33998 0.0
C1266 C 0.15126 0.30025 0.34952 0.0
C1267 C 0.15671 0.28167 0.36185 0.0
C1268 C 0.16437 0.31654 0.35093 0.0
C1269 C 0.18325 0.31459 0.3646 0.0
C1270 C 0.18858 0.296 0.37693 0.0
C1271 C 0.1755 0.27985 0.37573 0.0
H1272 H 0.71609 0.14686 0.31687 0.0
H1273 H 0.73495 0.16376 0.40702 0.0
H1274 H 0.68918 0.17137 0.31939 0.0
H1275 H 0.70765 0.18751 0.4102 0.0
H1276 H 0.67771 0.24639 0.38934 0.0
H1277 H 0.70088 0.21885 0.38943 0.0
H1278 H 0.65831 0.18259 0.34068 0.0
H1279 H 0.63514 0.21074 0.33949 0.0
C1280 C 0.71419 0.15548 0.3375 0.0
C1281 C 0.72779 0.15355 0.3616 0.0
C1282 C 0.69871 0.16951 0.33901 0.0
C1283 C 0.69636 0.18172 0.36482 0.0
C1284 C 0.7093 0.17883 0.38959 0.0
C1285 C 0.7249 0.16509 0.38788 0.0
C1286 C 0.67311 0.23256 0.37875 0.0
C1287 C 0.65446 0.2309 0.36435 0.0
C1288 C 0.68644 0.2166 0.37903 0.0
C1289 C 0.68151 0.19833 0.36527 0.0
C1290 C 0.66273 0.19649 0.35125 0.0
C1291 C 0.64937 0.2126 0.35074 0.0
H1292 H 0.80133 0.6364 0.34331 0.0
H1293 H 0.76504 0.67918 0.39186 0.0
H1294 H 0.82946 0.65954 0.34511 0.0
H1295 H 0.79257 0.70237 0.39246 0.0
H1296 H 0.84713 0.73752 0.40912 0.0
H1297 H 0.82358 0.71007 0.41304 0.0
H1298 H 0.84085 0.68991 0.32342 0.0
H1299 H 0.86516 0.71692 0.32027 0.0
C1300 C 0.79934 0.65067 0.35445 0.0
C1301 C 0.78084 0.65585 0.36742 0.0
C1302 C 0.81545 0.66402 0.3553 0.0
C1303 C 0.81341 0.68292 0.36896 0.0
C1304 C 0.79498 0.68787 0.38231 0.0
C1305 C 0.77902 0.67452 0.38173 0.0
C1306 C 0.84609 0.72705 0.39043 0.0
C1307 C 0.8579 0.72949 0.36429 0.0
C1308 C 0.83246 0.71136 0.39255 0.0
C1309 C 0.82993 0.69789 0.36831 0.0
C1310 C 0.84242 0.69983 0.34268 0.0
C1311 C 0.85634 0.71538 0.34079 0.0
H1312 H 0.73947 0.84649 0.90524 0.0
H1313 H 0.71877 0.86687 0.81775 0.0
H1314 H 0.71219 0.82266 0.90755 0.0
H1315 H 0.69191 0.84233 0.81929 0.0
H1316 H 0.6381 0.80235 0.8385 0.0
H1317 H 0.66152 0.83027 0.84068 0.0
H1318 H 0.70478 0.79219 0.88454 0.0
H1319 H 0.68136 0.76486 0.88354 0.0
C1320 C 0.72901 0.84593 0.88652 0.0
C1321 C 0.73138 0.85848 0.86122 0.0
C1322 C 0.71343 0.83213 0.8877 0.0
C1323 C 0.69999 0.8302 0.86332 0.0
C1324 C 0.70183 0.84341 0.83859 0.0
C1325 C 0.71729 0.85748 0.83765 0.0
C1326 C 0.65257 0.80003 0.84881 0.0
C1327 C 0.65775 0.7813 0.86089 0.0
C1328 C 0.66605 0.81602 0.84992 0.0
C1329 C 0.68508 0.81362 0.86296 0.0
C1330 C 0.69015 0.79487 0.87499 0.0
C1331 C 0.67668 0.77904 0.87416 0.0
H1332 H 0.13662 0.711 0.84004 0.0
H1333 H 0.17944 0.74697 0.88881 0.0
H1334 H 0.15992 0.68297 0.8409 0.0
H1335 H 0.20276 0.71952 0.88857 0.0
H1336 H 0.23673 0.66428 0.90657 0.0
H1337 H 0.20962 0.68824 0.90965 0.0
H1338 H 0.19064 0.67164 0.81928 0.0
H1339 H 0.21738 0.64695 0.81685 0.0
C1340 C 0.15095 0.71296 0.85094 0.0
C1341 C 0.15606 0.7313 0.8644 0.0
C1342 C 0.16437 0.69691 0.85127 0.0
C1343 C 0.18325 0.69885 0.86493 0.0
C1344 C 0.18823 0.71719 0.87845 0.0
C1345 C 0.17483 0.73309 0.87836 0.0
C1346 C 0.22662 0.66557 0.8875 0.0
C1347 C 0.22931 0.65383 0.86137 0.0
C1348 C 0.21112 0.67944 0.88915 0.0
C1349 C 0.19809 0.68224 0.86448 0.0
C1350 C 0.20026 0.66985 0.83882 0.0
C1351 C 0.21563 0.65571 0.83736 0.0
H1352 H 0.34915 0.2356 0.91149 0.0
H1353 H 0.36641 0.21624 0.82164 0.0
H1354 H 0.325 0.20864 0.91445 0.0
H1355 H 0.34155 0.18967 0.82394 0.0
H1356 H 0.30112 0.13652 0.84287 0.0
H1357 H 0.32972 0.15906 0.84515 0.0
H1358 H 0.29367 0.20227 0.89319 0.0
H1359 H 0.26562 0.17968 0.89198 0.0
C1360 C 0.34783 0.2255 0.89239 0.0
C1361 C 0.35958 0.22816 0.86623 0.0
C1362 C 0.33386 0.21009 0.89397 0.0
C1363 C 0.33097 0.19712 0.86921 0.0
C1364 C 0.3434 0.19923 0.84356 0.0
C1365 C 0.35764 0.21451 0.84217 0.0
C1366 C 0.2994 0.15074 0.85425 0.0
C1367 C 0.28099 0.1562 0.86724 0.0
C1368 C 0.31578 0.16374 0.85537 0.0
C1369 C 0.31411 0.18255 0.86941 0.0
C1370 C 0.29577 0.1878 0.88275 0.0
C1371 C 0.27953 0.17481 0.88184 0.0
H1372 H 0.83468 0.2628 0.89231 0.0
H1373 H 0.87749 0.29892 0.84349 0.0
H1374 H 0.81163 0.29047 0.89334 0.0
H1375 H 0.85447 0.32714 0.84561 0.0
H1376 H 0.79708 0.36322 0.82208 0.0
H1377 H 0.82377 0.33849 0.82424 0.0
H1378 H 0.80473 0.32171 0.91462 0.0
H1379 H 0.77765 0.34572 0.91182 0.0
C1380 C 0.83937 0.27676 0.88219 0.0
C1381 C 0.85802 0.27851 0.86773 0.0
C1382 C 0.82611 0.29278 0.88299 0.0
C1383 C 0.83112 0.31119 0.86968 0.0
C1384 C 0.84997 0.31314 0.85579 0.0
C1385 C 0.86324 0.29698 0.85477 0.0
C1386 C 0.79879 0.3544 0.84254 0.0
C1387 C 0.78511 0.35626 0.86663 0.0
C1388 C 0.81415 0.34025 0.84385 0.0
C1389 C 0.81631 0.32782 0.86945 0.0
C1390 C 0.80325 0.33057 0.89418 0.0
C1391 C 0.78776 0.34446 0.89268 0.0
H1392 H 0.649 0.21698 0.69951 0.0
H1393 H 0.66743 0.23822 0.6112 0.0
H1394 H 0.67334 0.19001 0.69618 0.0
H1395 H 0.69101 0.2108 0.60708 0.0
H1396 H 0.74944 0.17975 0.62831 0.0
H1397 H 0.72192 0.20294 0.6278 0.0
H1398 H 0.68484 0.15981 0.67415 0.0
H1399 H 0.71297 0.13666 0.67587 0.0
C1400 C 0.65791 0.21559 0.67906 0.0
C1401 C 0.65645 0.22987 0.65577 0.0
C1402 C 0.67185 0.20006 0.67707 0.0
C1403 C 0.68446 0.1983 0.65154 0.0
C1404 C 0.68204 0.21195 0.6275 0.0
C1405 C 0.66838 0.22762 0.62973 0.0
C1406 C 0.73542 0.17502 0.63824 0.0
C1407 C 0.73356 0.15626 0.65226 0.0
C1408 C 0.71947 0.18837 0.63771 0.0
C1409 C 0.70098 0.18333 0.65081 0.0
C1410 C 0.6989 0.16435 0.66417 0.0
C1411 C 0.71501 0.15099 0.66497 0.0
H1412 H 0.80095 0.63705 0.68426 0.0
H1413 H 0.76348 0.67974 0.63791 0.0
H1414 H 0.8289 0.66039 0.68118 0.0
H1415 H 0.79088 0.70309 0.63594 0.0
H1416 H 0.84581 0.73651 0.61259 0.0
H1417 H 0.82149 0.70966 0.61212 0.0
H1418 H 0.84091 0.69124 0.70144 0.0
H1419 H 0.86592 0.71772 0.70126 0.0
C1420 C 0.79864 0.65138 0.67347 0.0
C1421 C 0.77991 0.65642 0.66128 0.0
C1422 C 0.81464 0.66482 0.67185 0.0
C1423 C 0.81226 0.68365 0.65814 0.0
C1424 C 0.79352 0.6886 0.64602 0.0
C1425 C 0.77766 0.67518 0.64739 0.0
C1426 C 0.84506 0.7266 0.632 0.0
C1427 C 0.85771 0.72936 0.65706 0.0
C1428 C 0.83098 0.71125 0.63185 0.0
C1429 C 0.82891 0.69843 0.65699 0.0
C1430 C 0.84213 0.70069 0.68157 0.0
C1431 C 0.85645 0.71593 0.68153 0.0
H1432 H 0.29927 0.87674 0.68299 0.0
H1433 H 0.26295 0.83388 0.6349 0.0
H1434 H 0.3275 0.85374 0.68061 0.0
H1435 H 0.29063 0.81084 0.63361 0.0
H1436 H 0.34586 0.77699 0.61429 0.0
H1437 H 0.32175 0.80398 0.61184 0.0
H1438 H 0.33906 0.82308 0.70185 0.0
H1439 H 0.36388 0.79647 0.70364 0.0
C1440 C 0.29729 0.86249 0.67184 0.0
C1441 C 0.27876 0.85725 0.65914 0.0
C1442 C 0.31345 0.84922 0.67066 0.0
C1443 C 0.31145 0.83037 0.65687 0.0
C1444 C 0.29298 0.82533 0.64386 0.0
C1445 C 0.27695 0.83858 0.64481 0.0
C1446 C 0.34469 0.78709 0.63342 0.0
C1447 C 0.35668 0.78447 0.65926 0.0
C1448 C 0.33074 0.80253 0.63213 0.0
C1449 C 0.32812 0.81558 0.65686 0.0
C1450 C 0.34071 0.81346 0.68224 0.0
C1451 C 0.35492 0.79814 0.68335 0.0
H1452 H 0.16601 0.27482 0.60911 0.0
H1453 H 0.14674 0.29533 0.69742 0.0
H1454 H 0.19017 0.3018 0.60658 0.0
H1455 H 0.17159 0.32189 0.69561 0.0
H1456 H 0.21242 0.37477 0.67767 0.0
H1457 H 0.18392 0.35217 0.67446 0.0
H1458 H 0.22099 0.3086 0.62906 0.0
H1459 H 0.24896 0.33126 0.63114 0.0
C1460 C 0.16687 0.28518 0.62795 0.0
C1461 C 0.15454 0.28283 0.65355 0.0
C1462 C 0.18086 0.3006 0.62663 0.0
C1463 C 0.18319 0.31388 0.65115 0.0
C1464 C 0.17018 0.31209 0.67618 0.0
C1465 C 0.15594 0.29681 0.67728 0.0
C1466 C 0.2144 0.36045 0.6667 0.0
C1467 C 0.23307 0.35491 0.65468 0.0
C1468 C 0.19806 0.34741 0.66503 0.0
C1469 C 0.20003 0.32849 0.65145 0.0
C1470 C 0.21866 0.32316 0.63911 0.0
C1471 C 0.23486 0.33618 0.64053 0.0
H1472 H 0.21358 0.07543 0.09287 0.0
H1473 H 0.27179 0.10197 0.08393 0.0
H1474 H 0.21368 0.06724 0.03877 0.0
H1475 H 0.27173 0.09466 0.02955 0.0
H1476 H 0.26671 0.0836 0.92998 0.0
H1477 H 0.27019 0.07424 0.98371 0.0
H1478 H 0.2087 0.09083 0.99926 0.0
H1479 H 0.20534 0.09979 0.94636 0.0
C1480 C 0.22672 0.07879 0.07945 0.0
C1481 C 0.24273 0.08916 0.09239 0.0
C1482 C 0.22673 0.07432 0.04841 0.0
C1483 C 0.24252 0.08069 0.02958 0.0
C1484 C 0.25938 0.08939 0.04326 0.0
C1485 C 0.25946 0.09359 0.07445 0.0
C1486 C 0.25383 0.08456 0.9448 0.0
C1487 C 0.2358 0.09257 0.93408 0.0
C1488 C 0.25584 0.07937 0.9756 0.0
C1489 C 0.23978 0.08187 0.99597 0.0
C1490 C 0.22136 0.08839 0.9844 0.0
C1491 C 0.21944 0.09371 0.95396 0.0
H1492 H 0.91583 0.20413 0.94706 0.0
H1493 H 0.93021 0.26589 0.93046 0.0
H1494 H 0.92394 0.20811 1.0002 0.0
H1495 H 0.93871 0.27 0.98438 0.0
H1496 H 0.90915 0.27161 0.08329 0.0
H1497 H 0.91737 0.27121 0.02922 0.0
H1498 H 0.94652 0.21421 0.04069 0.0
H1499 H 0.93745 0.21443 0.09453 0.0
C1500 C 0.92137 0.21846 0.95468 0.0
C1501 C 0.92222 0.23474 0.93466 0.0
C1502 C 0.92619 0.22074 0.98525 0.0
C1503 C 0.93189 0.23944 0.9968 0.0
C1504 C 0.9342 0.25544 0.97629 0.0
C1505 C 0.92951 0.25307 0.94539 0.0
C1506 C 0.91806 0.25945 0.07438 0.0
C1507 C 0.92279 0.2431 0.09288 0.0
C1508 C 0.92281 0.25918 0.04338 0.0
C1509 C 0.93232 0.2425 0.03039 0.0
C1510 C 0.93885 0.22712 0.04979 0.0
C1511 C 0.93388 0.2273 0.08067 0.0
H1512 H 0.80777 0.91508 0.93996 0.0
H1513 H 0.74562 0.92858 0.92527 0.0
H1514 H 0.80427 0.92303 0.99328 0.0
H1515 H 0.742 0.93699 0.97934 0.0
H1516 H 0.74139 0.90799 0.07829 0.0
H1517 H 0.74138 0.91594 0.02415 0.0
H1518 H 0.79845 0.94518 0.03422 0.0
H1519 H 0.79865 0.93635 0.08812 0.0
C1520 C 0.79345 0.92041 0.94803 0.0
C1521 C 0.77694 0.92104 0.92849 0.0
C1522 C 0.79144 0.92513 0.97873 0.0
C1523 C 0.77279 0.93054 0.99087 0.0
C1524 C 0.75654 0.93267 0.97082 0.0
C1525 C 0.75863 0.92806 0.93981 0.0
C1526 C 0.75349 0.91685 0.06905 0.0
C1527 C 0.76996 0.9217 0.0872 0.0
C1528 C 0.75353 0.92144 0.038 0.0
C1529 C 0.77009 0.93093 0.02458 0.0
C1530 C 0.78564 0.93751 0.04362 0.0
C1531 C 0.78569 0.93269 0.07455 0.0
H1532 H 0.10496 0.74075 0.94363 0.0
H1533 H 0.07306 0.79609 0.93342 0.0
H1534 H 0.09774 0.74083 0.99807 0.0
H1535 H 0.06532 0.7961 0.98776 0.0
H1536 H 0.09857 0.80753 0.07975 0.0
H1537 H 0.08961 0.80323 0.02686 0.0
H1538 H 0.07609 0.74119 0.04369 0.0
H1539 H 0.08524 0.74564 0.0973 0.0
C1540 C 0.09549 0.75237 0.95287 0.0
C1541 C 0.08941 0.76833 0.93451 0.0
C1542 C 0.09135 0.75247 0.98407 0.0
C1543 C 0.08119 0.76864 0.9974 0.0
C1544 C 0.07342 0.78357 0.97829 0.0
C1545 C 0.07765 0.7835 0.94715 0.0
C1546 C 0.09313 0.7931 0.07242 0.0
C1547 C 0.09274 0.77689 0.09259 0.0
C1548 C 0.08783 0.79064 0.04204 0.0
C1549 C 0.0822 0.77182 0.03089 0.0
C1550 C 0.08049 0.75585 0.05154 0.0
C1551 C 0.08557 0.75841 0.08225 0.0
H1552 H 0.2154 0.93828 0.43235 0.0
H1553 H 0.27281 0.91038 0.44313 0.0
H1554 H 0.21499 0.94681 0.48636 0.0
H1555 H 0.27223 0.91809 0.49736 0.0
H1556 H 0.26634 0.93002 0.5965 0.0
H1557 H 0.27059 0.93904 0.54275 0.0
H1558 H 0.20902 0.92343 0.52612 0.0
H1559 H 0.20489 0.91479 0.57907 0.0
C1560 C 0.22829 0.93472 0.44614 0.0
C1561 C 0.2442 0.92387 0.43376 0.0
C1562 C 0.22799 0.93937 0.47712 0.0
C1563 C 0.24338 0.93277 0.49641 0.0
C1564 C 0.26019 0.92356 0.48327 0.0
C1565 C 0.26057 0.91913 0.45218 0.0
C1566 C 0.25361 0.92921 0.58143 0.0
C1567 C 0.23533 0.92155 0.59188 0.0
C1568 C 0.25607 0.93421 0.55063 0.0
C1569 C 0.2402 0.93186 0.52996 0.0
C1570 C 0.22154 0.92573 0.54122 0.0
C1571 C 0.21918 0.92059 0.57169 0.0
H1572 H 0.09479 0.20644 0.57748 0.0
H1573 H 0.08517 0.26939 0.5913 0.0
H1574 H 0.08668 0.20996 0.52418 0.0
H1575 H 0.07671 0.27307 0.53731 0.0
H1576 H 0.10692 0.27082 0.43909 0.0
H1577 H 0.0987 0.27166 0.49313 0.0
H1578 H 0.06472 0.2173 0.48293 0.0
H1579 H 0.07362 0.21631 0.42896 0.0
C1580 C 0.09023 0.22096 0.56924 0.0
C1581 C 0.09076 0.23766 0.58845 0.0
C1582 C 0.08544 0.223 0.5386 0.0
C1583 C 0.0812 0.24186 0.52624 0.0
C1584 C 0.08011 0.25836 0.54604 0.0
C1585 C 0.08475 0.25625 0.57699 0.0
C1586 C 0.09702 0.25955 0.44827 0.0
C1587 C 0.09076 0.24358 0.43007 0.0
C1588 C 0.09225 0.26001 0.47924 0.0
C1589 C 0.08123 0.2444 0.49256 0.0
C1590 C 0.07347 0.22939 0.47352 0.0
C1591 C 0.07837 0.22889 0.4426 0.0
H1592 H 0.80794 0.09878 0.57224 0.0
H1593 H 0.74652 0.08313 0.58944 0.0
H1594 H 0.80418 0.08989 0.51937 0.0
H1595 H 0.74264 0.07384 0.53575 0.0
H1596 H 0.74066 0.10176 0.43572 0.0
H1597 H 0.74102 0.09438 0.49005 0.0
H1598 H 0.79872 0.06638 0.47982 0.0
H1599 H 0.79852 0.07463 0.42572 0.0
C1600 C 0.79374 0.09283 0.56483 0.0
C1601 C 0.77749 0.09182 0.58493 0.0
C1602 C 0.79159 0.08755 0.5344 0.0
C1603 C 0.77305 0.0812 0.52307 0.0
C1604 C 0.75708 0.07883 0.54367 0.0
C1605 C 0.75933 0.08397 0.57444 0.0
C1606 C 0.75297 0.09324 0.44496 0.0
C1607 C 0.76951 0.08863 0.42672 0.0
C1608 C 0.75322 0.08899 0.47612 0.0
C1609 C 0.77008 0.08009 0.4895 0.0
C1610 C 0.78567 0.0736 0.4704 0.0
C1611 C 0.7855 0.07809 0.43936 0.0
H1612 H 0.90943 0.73944 0.57951 0.0
H1613 H 0.93913 0.79607 0.58856 0.0
H1614 H 0.9167 0.73928 0.5251 0.0
H1615 H 0.94715 0.79576 0.53434 0.0
H1616 H 0.91479 0.8057 0.44181 0.0
H1617 H 0.92364 0.80196 0.49478 0.0
H1618 H 0.9375 0.73982 0.47936 0.0
H1619 H 0.92831 0.74369 0.42567 0.0
C1620 C 0.91848 0.75132 0.57004 0.0
C1621 C 0.92388 0.76769 0.58807 0.0
C1622 C 0.92264 0.75128 0.53883 0.0
C1623 C 0.93222 0.76769 0.52516 0.0
C1624 C 0.93943 0.78306 0.544 0.0
C1625 C 0.93508 0.78316 0.57511 0.0
C1626 C 0.92027 0.79137 0.44947 0.0
C1627 C 0.92071 0.77496 0.42965 0.0
C1628 C 0.92552 0.78921 0.47993 0.0
C1629 C 0.93121 0.77053 0.49155 0.0
C1630 C 0.93302 0.75438 0.47121 0.0
C1631 C 0.92794 0.75662 0.44043 0.0
H1632 H 0.71613 0.57281 0.59349 0.0
H1633 H 0.77121 0.60529 0.58405 0.0
H1634 H 0.71701 0.56448 0.53938 0.0
H1635 H 0.77195 0.59763 0.5298 0.0
H1636 H 0.76879 0.58474 0.43084 0.0
H1637 H 0.77267 0.57598 0.48473 0.0
H1638 H 0.70998 0.58767 0.49929 0.0
H1639 H 0.70626 0.59618 0.44618 0.0
C1640 C 0.72882 0.57747 0.57997 0.0
C1641 C 0.74368 0.58951 0.59274 0.0
C1642 C 0.72927 0.5729 0.54897 0.0
C1643 C 0.74437 0.58067 0.53008 0.0
C1644 C 0.7602 0.59122 0.5436 0.0
C1645 C 0.75981 0.59565 0.57469 0.0
C1646 C 0.75577 0.5847 0.44546 0.0
C1647 C 0.73725 0.59125 0.43443 0.0
C1648 C 0.75801 0.57986 0.47633 0.0
C1649 C 0.74168 0.58123 0.49646 0.0
C1650 C 0.72286 0.58617 0.48458 0.0
C1651 C 0.72072 0.5912 0.45405 0.0
H1652 H 0.41478 0.7052 0.44702 0.0
H1653 H 0.42919 0.76686 0.42966 0.0
H1654 H 0.42309 0.70942 0.50008 0.0
H1655 H 0.43783 0.77123 0.48349 0.0
H1656 H 0.40867 0.77297 0.5829 0.0
H1657 H 0.41654 0.77249 0.52868 0.0
H1658 H 0.44622 0.71577 0.54004 0.0
H1659 H 0.43756 0.71608 0.59403 0.0
C1660 C 0.42035 0.71955 0.45445 0.0
C1661 C 0.42119 0.73573 0.43424 0.0
C1662 C 0.42528 0.72198 0.48497 0.0
C1663 C 0.43106 0.74072 0.49626 0.0
C1664 C 0.43328 0.75663 0.47558 0.0
C1665 C 0.42852 0.75411 0.44473 0.0
C1666 C 0.41765 0.76088 0.57394 0.0
C1667 C 0.42264 0.74462 0.59246 0.0
C1668 C 0.42217 0.76056 0.54285 0.0
C1669 C 0.43172 0.74391 0.52982 0.0
C1670 C 0.43852 0.72864 0.5492 0.0
C1671 C 0.43379 0.72889 0.58016 0.0
H1672 H 0.24037 0.41287 0.43909 0.0
H1673 H 0.29854 0.43956 0.43045 0.0
H1674 H 0.24074 0.41926 0.49372 0.0
H1675 H 0.29878 0.44671 0.4849 0.0
H1676 H 0.30752 0.41161 0.57531 0.0
H1677 H 0.30379 0.42158 0.52284 0.0
H1678 H 0.24285 0.43917 0.54056 0.0
H1679 H 0.24669 0.42888 0.59383 0.0
C1680 C 0.25273 0.42114 0.44871 0.0
C1681 C 0.26937 0.42586 0.43073 0.0
C1682 C 0.25299 0.42479 0.48005 0.0
C1683 C 0.26997 0.43316 0.49386 0.0
C1684 C 0.28563 0.43989 0.4751 0.0
C1685 C 0.28543 0.43604 0.44387 0.0
C1686 C 0.29346 0.41807 0.56829 0.0
C1687 C 0.27735 0.41929 0.58864 0.0
C1688 C 0.29135 0.42399 0.53812 0.0
C1689 C 0.27298 0.43117 0.5273 0.0
C1690 C 0.25716 0.4336 0.54813 0.0
C1691 C 0.25939 0.42784 0.57865 0.0
H1692 H 0.58513 0.2447 0.59494 0.0
H1693 H 0.5997 0.30653 0.57925 0.0
H1694 H 0.57535 0.2413 0.54142 0.0
H1695 H 0.59025 0.30324 0.52646 0.0
H1696 H 0.60251 0.24108 0.44065 0.0
H1697 H 0.59584 0.24072 0.49522 0.0
H1698 H 0.56604 0.29764 0.48746 0.0
H1699 H 0.57342 0.29811 0.43303 0.0
C1700 C 0.58563 0.25769 0.58033 0.0
C1701 C 0.59333 0.27583 0.59116 0.0
C1702 C 0.5802 0.25572 0.54965 0.0
C1703 C 0.58211 0.27195 0.52949 0.0
C1704 C 0.58829 0.29045 0.5412 0.0
C1705 C 0.59389 0.29233 0.57154 0.0
C1706 C 0.59374 0.25303 0.45049 0.0
C1707 C 0.58834 0.26955 0.43281 0.0
C1708 C 0.5899 0.25287 0.48179 0.0
C1709 C 0.58068 0.26932 0.4959 0.0
C1710 C 0.57348 0.28489 0.47744 0.0
C1711 C 0.57748 0.2851 0.44623 0.0
H1712 H 0.71657 0.43731 0.93085 0.0
H1713 H 0.77324 0.40805 0.94232 0.0
H1714 H 0.71627 0.4462 0.98473 0.0
H1715 H 0.77276 0.41613 0.99643 0.0
H1716 H 0.76714 0.42888 0.09526 0.0
H1717 H 0.77163 0.43747 0.04139 0.0
H1718 H 0.70967 0.42337 0.02496 0.0
H1719 H 0.70533 0.41514 0.07805 0.0
C1720 C 0.72933 0.43351 0.94476 0.0
C1721 C 0.745 0.42219 0.93261 0.0
C1722 C 0.7291 0.43837 0.97567 0.0
C1723 C 0.74429 0.43153 0.99513 0.0
C1724 C 0.76088 0.42181 0.98221 0.0
C1725 C 0.7612 0.41715 0.95118 0.0
C1726 C 0.75439 0.42834 0.08021 0.0
C1727 C 0.73593 0.42121 0.09075 0.0
C1728 C 0.75698 0.43308 0.04934 0.0
C1729 C 0.74106 0.431 0.02869 0.0
C1730 C 0.72224 0.42544 0.04004 0.0
C1731 C 0.71975 0.42055 0.07058 0.0
H1732 H 0.59473 0.70564 0.07658 0.0
H1733 H 0.58506 0.76832 0.09301 0.0
H1734 H 0.58681 0.71018 0.02335 0.0
H1735 H 0.57695 0.77303 0.03907 0.0
H1736 H 0.6079 0.77163 0.9408 0.0
H1737 H 0.59959 0.7719 0.99486 0.0
H1738 H 0.56419 0.71864 0.98269 0.0
H1739 H 0.57304 0.71828 0.92869 0.0
C1740 C 0.59023 0.72031 0.06892 0.0
C1741 C 0.59063 0.73664 0.08886 0.0
C1742 C 0.58555 0.72293 0.03833 0.0
C1743 C 0.58137 0.74202 0.02677 0.0
C1744 C 0.58026 0.75816 0.04723 0.0
C1745 C 0.58472 0.75546 0.07812 0.0
C1746 C 0.59764 0.76053 0.94955 0.0
C1747 C 0.59096 0.74503 0.93078 0.0
C1748 C 0.59284 0.76066 0.98051 0.0
C1749 C 0.58141 0.74514 0.99324 0.0
C1750 C 0.57323 0.73066 0.97369 0.0
C1751 C 0.57812 0.73053 0.94276 0.0
H1752 H 0.30676 0.59933 0.07349 0.0
H1753 H 0.245 0.58426 0.08887 0.0
H1754 H 0.30367 0.59022 0.02062 0.0
H1755 H 0.24181 0.57467 0.0352 0.0
H1756 H 0.29923 0.57484 0.92688 0.0
H1757 H 0.29873 0.56685 0.98106 0.0
H1758 H 0.24079 0.59465 0.98917 0.0
H1759 H 0.2411 0.60169 0.93474 0.0
C1760 C 0.29262 0.59346 0.06569 0.0
C1761 C 0.27608 0.59269 0.08527 0.0
C1762 C 0.29086 0.58804 0.03526 0.0
C1763 C 0.27243 0.58177 0.02339 0.0
C1764 C 0.25617 0.57961 0.04351 0.0
C1765 C 0.25802 0.58492 0.07429 0.0
C1766 C 0.28602 0.57831 0.94008 0.0
C1767 C 0.27014 0.58869 0.9268 0.0
C1768 C 0.28579 0.57398 0.97117 0.0
C1769 C 0.26992 0.58051 0.98973 0.0
C1770 C 0.2532 0.58925 0.9757 0.0
C1771 C 0.25333 0.5933 0.94447 0.0
H1772 H 0.41243 0.24082 0.93935 0.0
H1773 H 0.43782 0.29954 0.93049 0.0
H1774 H 0.41917 0.2413 0.99387 0.0
H1775 H 0.44544 0.29986 0.98476 0.0
H1776 H 0.41166 0.30809 0.07624 0.0
H1777 H 0.42106 0.30451 0.02351 0.0
H1778 H 0.4391 0.24361 0.04025 0.0
H1779 H 0.4293 0.2473 0.09382 0.0
C1780 C 0.42047 0.25336 0.94889 0.0
C1781 C 0.42472 0.2701 0.9309 0.0
C1782 C 0.42433 0.25368 0.98016 0.0
C1783 C 0.4325 0.2708 0.99389 0.0
C1784 C 0.43875 0.28661 0.97506 0.0
C1785 C 0.43464 0.28637 0.94393 0.0
C1786 C 0.41811 0.29407 0.06895 0.0
C1787 C 0.41957 0.27793 0.08913 0.0
C1788 C 0.4237 0.29204 0.03861 0.0
C1789 C 0.43082 0.27372 0.02742 0.0
C1790 C 0.43353 0.25788 0.04807 0.0
C1791 C 0.42808 0.26001 0.07876 0.0
H1792 H 0.21659 0.05482 0.23927 0.0
H1793 H 0.27857 0.04773 0.21513 0.0
H1794 H 0.21719 0.02308 0.26574 0.0
H1795 H 0.27901 0.01519 0.23994 0.0
H1796 H 0.27916 0.96526 0.3102 0.0
H1797 H 0.27918 0.99775 0.28525 0.0
H1798 H 0.21736 0.98919 0.26038 0.0
H1799 H 0.21717 0.95749 0.28699 0.0
C1800 C 0.23031 0.04628 0.23926 0.0
C1801 C 0.24752 0.05376 0.22506 0.0
C1802 C 0.23065 0.02792 0.2543 0.0
C1803 C 0.24812 0.01624 0.255 0.0
C1804 C 0.26534 0.02376 0.24051 0.0
C1805 C 0.26508 0.04238 0.226 0.0
C1806 C 0.26558 0.97045 0.29951 0.0
C1807 C 0.24813 0.9589 0.30076 0.0
C1808 C 0.2656 0.98905 0.28492 0.0
C1809 C 0.24825 0.99637 0.27066 0.0
C1810 C 0.23091 0.98451 0.27164 0.0
C1811 C 0.23079 0.96617 0.28677 0.0
H1812 H 0.96417 0.27824 0.21522 0.0
H1813 H 0.9568 0.21626 0.23896 0.0
H1814 H 0.99699 0.27833 0.23908 0.0
H1815 H 0.98886 0.21652 0.26448 0.0
H1816 H 0.05474 0.21578 0.28315 0.0
H1817 H 0.02268 0.21642 0.25767 0.0
H1818 H 0.01505 0.27816 0.28385 0.0
H1819 H 0.04788 0.27769 0.30768 0.0
C1820 C 0.96952 0.26468 0.22582 0.0
C1821 C 0.95798 0.24721 0.22502 0.0
C1822 C 0.9883 0.26474 0.23977 0.0
C1823 C 0.99585 0.24741 0.25382 0.0
C1824 C 0.984 0.23005 0.25333 0.0
C1825 C 0.96545 0.2299 0.23885 0.0
C1826 C 0.0462 0.22949 0.28344 0.0
C1827 C 0.05382 0.24666 0.29748 0.0
C1828 C 0.02765 0.22985 0.26898 0.0
C1829 C 0.01594 0.2473 0.26873 0.0
C1830 C 0.02363 0.2645 0.28298 0.0
C1831 C 0.04242 0.26423 0.29691 0.0
H1832 H 0.73479 0.04658 0.30411 0.0
H1833 H 0.79677 0.05431 0.2804 0.0
H1834 H 0.73481 0.01395 0.27967 0.0
H1835 H 0.79662 0.02241 0.25426 0.0
H1836 H 0.79719 0.9566 0.23346 0.0
H1837 H 0.79676 0.98849 0.25965 0.0
H1838 H 0.7349 0.99645 0.23453 0.0
H1839 H 0.73517 0.96383 0.21004 0.0
C1840 C 0.74838 0.04135 0.29341 0.0
C1841 C 0.7658 0.05295 0.29434 0.0
C1842 C 0.74839 0.02267 0.2791 0.0
C1843 C 0.76573 0.01528 0.2648 0.0
C1844 C 0.78307 0.02716 0.26554 0.0
C1845 C 0.78316 0.0456 0.28038 0.0
C1846 C 0.78351 0.9652 0.23355 0.0
C1847 C 0.76623 0.95771 0.21966 0.0
C1848 C 0.78326 0.98363 0.24843 0.0
C1849 C 0.76582 0.99536 0.24926 0.0
C1850 C 0.74855 0.98784 0.23502 0.0
C1851 C 0.74871 0.96917 0.22069 0.0
H1852 H 0.05581 0.79876 0.2394 0.0
H1853 H 0.04871 0.73704 0.21394 0.0
H1854 H 0.02386 0.79801 0.26535 0.0
H1855 H 0.01598 0.73647 0.23841 0.0
H1856 H 0.9654 0.73614 0.3081 0.0
H1857 H 0.99817 0.73612 0.28381 0.0
H1858 H 0.98996 0.79798 0.25888 0.0
H1859 H 0.95793 0.79816 0.28468 0.0
C1860 C 0.04724 0.78506 0.23898 0.0
C1861 C 0.05478 0.76798 0.22451 0.0
C1862 C 0.02875 0.78464 0.25375 0.0
C1863 C 0.017 0.76722 0.25396 0.0
C1864 C 0.02459 0.7501 0.23928 0.0
C1865 C 0.04332 0.75044 0.22497 0.0
C1866 C 0.97072 0.74974 0.29757 0.0
C1867 C 0.95914 0.76718 0.29852 0.0
C1868 C 0.98948 0.74972 0.28335 0.0
C1869 C 0.99697 0.76707 0.26925 0.0
C1870 C 0.98512 0.78442 0.27002 0.0
C1871 C 0.9666 0.78452 0.2847 0.0
H1872 H 0.73803 0.96623 0.80618 0.0
H1873 H 0.80006 0.95853 0.78267 0.0
H1874 H 0.73783 0.99845 0.78039 0.0
H1875 H 0.79969 0.98997 0.75537 0.0
H1876 H 0.79999 0.05528 0.73213 0.0
H1877 H 0.79956 0.02396 0.7597 0.0
H1878 H 0.73792 0.01512 0.73415 0.0
H1879 H 0.73817 0.04727 0.70806 0.0
C1880 C 0.7516 0.9714 0.79534 0.0
C1881 C 0.7691 0.9599 0.79668 0.0
C1882 C 0.75147 0.98983 0.78025 0.0
C1883 C 0.76875 0.99706 0.7656 0.0
C1884 C 0.78618 0.98533 0.76686 0.0
C1885 C 0.78639 0.96715 0.78243 0.0
C1886 C 0.78635 0.04662 0.73233 0.0
C1887 C 0.76913 0.05374 0.71779 0.0
C1888 C 0.78611 0.0285 0.74805 0.0
C1889 C 0.76874 0.01669 0.74918 0.0
C1890 C 0.75152 0.02382 0.73436 0.0
C1891 C 0.75167 0.0422 0.7191 0.0
H1892 H 0.95719 0.73473 0.73613 0.0
H1893 H 0.96749 0.79589 0.70983 0.0
H1894 H 0.98872 0.7345 0.76365 0.0
H1895 H 0.99934 0.7955 0.73628 0.0
H1896 H 0.0554 0.73494 0.78649 0.0
H1897 H 0.02389 0.73451 0.75884 0.0
H1898 H 0.01313 0.79563 0.78548 0.0
H1899 H 0.04492 0.79621 0.81204 0.0
C1900 C 0.96631 0.74806 0.73593 0.0
C1901 C 0.95979 0.76534 0.72086 0.0
C1902 C 0.98447 0.74791 0.75162 0.0
C1903 C 0.99667 0.76501 0.75243 0.0
C1904 C 0.99024 0.78217 0.73679 0.0
C1905 C 0.97201 0.78236 0.72136 0.0
C1906 C 0.04625 0.74825 0.7865 0.0
C1907 C 0.05271 0.76562 0.8014 0.0
C1908 C 0.0281 0.74799 0.77074 0.0
C1909 C 0.01588 0.76507 0.76968 0.0
C1910 C 0.02225 0.78231 0.78515 0.0
C1911 C 0.04045 0.78261 0.80065 0.0
H1912 H 0.27481 0.96606 0.71433 0.0
H1913 H 0.21282 0.95892 0.73845 0.0
H1914 H 0.27534 0.9984 0.73987 0.0
H1915 H 0.21351 0.99045 0.76544 0.0
H1916 H 0.21354 0.05592 0.78721 0.0
H1917 H 0.21382 0.02442 0.76012 0.0
H1918 H 0.27536 0.01537 0.78604 0.0
H1919 H 0.27527 0.04768 0.81168 0.0
C1920 C 0.26133 0.97137 0.72526 0.0
C1921 C 0.24374 0.96002 0.72413 0.0
C1922 C 0.26164 0.98986 0.74019 0.0
C1923 C 0.24444 0.99729 0.75484 0.0
C1924 C 0.22695 0.98567 0.75389 0.0
C1925 C 0.22656 0.96743 0.73851 0.0
C1926 C 0.22712 0.04718 0.7872 0.0
C1927 C 0.24435 0.05427 0.80172 0.0
C1928 C 0.22728 0.02896 0.77176 0.0
C1929 C 0.24458 0.01703 0.7709 0.0
C1930 C 0.26182 0.02414 0.78566 0.0
C1931 C 0.26175 0.04262 0.80065 0.0
H1932 H 0.96671 0.27441 0.81178 0.0
H1933 H 0.95923 0.21262 0.78699 0.0
H1934 H 0.99878 0.27508 0.78541 0.0
H1935 H 0.99048 0.21347 0.75914 0.0
H1936 H 0.05574 0.21375 0.73505 0.0
H1937 H 0.0245 0.2137 0.763 0.0
H1938 H 0.01523 0.27556 0.73895 0.0
H1939 H 0.04728 0.27578 0.7125 0.0
C1940 C 0.97188 0.261 0.80053 0.0
C1941 C 0.96051 0.24342 0.80169 0.0
C1942 C 0.99023 0.2614 0.78511 0.0
C1943 C 0.99748 0.24432 0.76998 0.0
C1944 C 0.98584 0.22682 0.77102 0.0
C1945 C 0.96776 0.22634 0.78689 0.0
C1946 C 0.047 0.22733 0.73566 0.0
C1947 C 0.05397 0.24475 0.72146 0.0
C1948 C 0.02893 0.2273 0.7516 0.0
C1949 C 0.01702 0.24459 0.75328 0.0
C1950 C 0.024 0.26201 0.73875 0.0
C1951 C 0.04232 0.26212 0.72328 0.0
H1952 H 0.77808 0.55519 0.73947 0.0
H1953 H 0.71699 0.54425 0.71352 0.0
H1954 H 0.77899 0.52312 0.7657 0.0
H1955 H 0.71806 0.51195 0.73858 0.0
H1956 H 0.71813 0.46511 0.81231 0.0
H1957 H 0.71828 0.49743 0.78721 0.0
H1958 H 0.77946 0.48796 0.75956 0.0
H1959 H 0.77947 0.45589 0.7858 0.0
C1960 C 0.76491 0.54583 0.73908 0.0
C1961 C 0.74744 0.55232 0.72453 0.0
C1962 C 0.76545 0.52737 0.75401 0.0
C1963 C 0.74855 0.51487 0.75453 0.0
C1964 C 0.73123 0.52128 0.73935 0.0
C1965 C 0.73065 0.53978 0.72471 0.0
C1966 C 0.73165 0.46996 0.80099 0.0
C1967 C 0.74878 0.4579 0.80104 0.0
C1968 C 0.7317 0.48847 0.78633 0.0
C1969 C 0.74883 0.49536 0.771 0.0
C1970 C 0.76605 0.48333 0.77137 0.0
C1971 C 0.76605 0.46487 0.78631 0.0
H1972 H 0.55605 0.77874 0.78399 0.0
H1973 H 0.54559 0.71766 0.81057 0.0
H1974 H 0.52389 0.77936 0.75803 0.0
H1975 H 0.51323 0.71844 0.78576 0.0
H1976 H 0.46611 0.71803 0.71253 0.0
H1977 H 0.49852 0.71844 0.73728 0.0
H1978 H 0.48875 0.77961 0.76454 0.0
H1979 H 0.45659 0.77935 0.73866 0.0
C1980 C 0.54678 0.76552 0.78457 0.0
C1981 C 0.55343 0.74813 0.79923 0.0
C1982 C 0.52827 0.76588 0.7698 0.0
C1983 C 0.51589 0.7489 0.76953 0.0
C1984 C 0.52246 0.73167 0.7848 0.0
C1985 C 0.541 0.73126 0.79929 0.0
C1986 C 0.47092 0.7316 0.72369 0.0
C1987 C 0.45874 0.74865 0.72365 0.0
C1988 C 0.48948 0.73181 0.73815 0.0
C1989 C 0.49631 0.74901 0.75326 0.0
C1990 C 0.48417 0.76615 0.75289 0.0
C1991 C 0.46565 0.76599 0.73816 0.0
H1992 H 0.2987 0.45625 0.73565 0.0
H1993 H 0.23733 0.46364 0.70866 0.0
H1994 H 0.29781 0.48822 0.76144 0.0
H1995 H 0.23664 0.49639 0.73289 0.0
H1996 H 0.23557 0.54675 0.8027 0.0
H1997 H 0.23573 0.51411 0.77815 0.0
H1998 H 0.298 0.5221 0.75516 0.0
H1999 H 0.29797 0.55398 0.78129 0.0
C2000 C 0.28507 0.46489 0.73485 0.0
C2001 C 0.26811 0.45743 0.72004 0.0
C2002 C 0.28456 0.48339 0.74951 0.0
C2003 C 0.26718 0.49521 0.74925 0.0
C2004 C 0.25022 0.48771 0.73416 0.0
C2005 C 0.25063 0.46898 0.71999 0.0
C2006 C 0.24929 0.54141 0.7925 0.0
C2007 C 0.26679 0.55287 0.79413 0.0
C2008 C 0.24938 0.52273 0.77815 0.0
C2009 C 0.2669 0.5152 0.76456 0.0
C2010 C 0.2843 0.52696 0.76591 0.0
C2011 C 0.28429 0.5454 0.78077 0.0
H2012 H 0.46646 0.23477 0.8065 0.0
H2013 H 0.45889 0.29704 0.78479 0.0
H2014 H 0.49893 0.23492 0.78135 0.0
H2015 H 0.49061 0.29704 0.75804 0.0
H2016 H 0.55649 0.2976 0.73718 0.0
H2017 H 0.52457 0.29696 0.76333 0.0
H2018 H 0.51623 0.23558 0.73579 0.0
H2019 H 0.54889 0.23604 0.71122 0.0
C2020 C 0.47169 0.24846 0.79611 0.0
C2021 C 0.46018 0.26592 0.79783 0.0
C2022 C 0.49027 0.24854 0.7814 0.0
C2023 C 0.49765 0.26601 0.7675 0.0
C2024 C 0.48586 0.28339 0.76899 0.0
C2025 C 0.46752 0.28339 0.7842 0.0
C2026 C 0.5478 0.28398 0.73667 0.0
C2027 C 0.55521 0.26689 0.72209 0.0
C2028 C 0.52935 0.28362 0.75155 0.0
C2029 C 0.51752 0.26624 0.75175 0.0
C2030 C 0.52492 0.24917 0.73676 0.0
C2031 C 0.54361 0.24944 0.72238 0.0
H2032 H 0.23707 0.54786 0.2065 0.0
H2033 H 0.29864 0.55599 0.23189 0.0
H2034 H 0.23665 0.51567 0.2323 0.0
H2035 H 0.29803 0.52458 0.2593 0.0
H2036 H 0.29803 0.45936 0.28385 0.0
H2037 H 0.29814 0.49055 0.25584 0.0
H2038 H 0.23591 0.49929 0.27845 0.0
H2039 H 0.23566 0.4673 0.30483 0.0
C2040 C 0.25049 0.54279 0.21777 0.0
C2041 C 0.26792 0.5544 0.21698 0.0
C2042 C 0.25024 0.52438 0.23288 0.0
C2043 C 0.2673 0.51729 0.24814 0.0
C2044 C 0.28469 0.52911 0.24736 0.0
C2045 C 0.28504 0.54728 0.23174 0.0
C2046 C 0.28438 0.46797 0.28285 0.0
C2047 C 0.26685 0.46088 0.29661 0.0
C2048 C 0.28444 0.48602 0.2669 0.0
C2049 C 0.26705 0.49775 0.26479 0.0
C2050 C 0.24953 0.49064 0.27891 0.0
C2051 C 0.24939 0.47235 0.29434 0.0
H2052 H 0.55367 0.29818 0.28565 0.0
H2053 H 0.54595 0.23585 0.30689 0.0
H2054 H 0.52233 0.29819 0.25822 0.0
H2055 H 0.51376 0.23601 0.281 0.0
H2056 H 0.46434 0.23771 0.20986 0.0
H2057 H 0.49672 0.23691 0.23513 0.0
H2058 H 0.4884 0.29816 0.26332 0.0
H2059 H 0.45684 0.29916 0.23653 0.0
C2060 C 0.54508 0.28451 0.28482 0.0
C2061 C 0.55225 0.26704 0.29856 0.0
C2062 C 0.52694 0.28452 0.26921 0.0
C2063 C 0.51517 0.26715 0.26743 0.0
C2064 C 0.52241 0.24964 0.28133 0.0
C2065 C 0.54082 0.24954 0.29646 0.0
C2066 C 0.46958 0.25101 0.2213 0.0
C2067 C 0.45811 0.26854 0.22098 0.0
C2068 C 0.4881 0.25053 0.23608 0.0
C2069 C 0.49544 0.26749 0.2514 0.0
C2070 C 0.4837 0.28492 0.25124 0.0
C2071 C 0.46544 0.28549 0.23598 0.0
H2072 H 0.71415 0.55507 0.28756 0.0
H2073 H 0.77604 0.54694 0.31116 0.0
H2074 H 0.71437 0.52367 0.26024 0.0
H2075 H 0.77608 0.51469 0.2853 0.0
H2076 H 0.77518 0.46547 0.2134 0.0
H2077 H 0.77584 0.49773 0.23918 0.0
H2078 H 0.7141 0.48973 0.26525 0.0
H2079 H 0.71328 0.45831 0.238 0.0
C2080 C 0.72777 0.54637 0.28731 0.0
C2081 C 0.74505 0.55347 0.30166 0.0
C2082 C 0.72789 0.5282 0.27174 0.0
C2083 C 0.7452 0.51631 0.27058 0.0
C2084 C 0.76252 0.52344 0.28516 0.0
C2085 C 0.76248 0.54188 0.30027 0.0
C2086 C 0.76175 0.47075 0.22449 0.0
C2087 C 0.74414 0.45942 0.22342 0.0
C2088 C 0.76214 0.4892 0.23956 0.0
C2089 C 0.745 0.4966 0.25441 0.0
C2090 C 0.72749 0.48498 0.25354 0.0
C2091 C 0.72702 0.4668 0.23801 0.0
H2092 H 0.46581 0.77485 0.3113 0.0
H2093 H 0.45806 0.71306 0.28671 0.0
H2094 H 0.49803 0.77526 0.28528 0.0
H2095 H 0.48945 0.71364 0.25924 0.0
H2096 H 0.55474 0.71317 0.23635 0.0
H2097 H 0.52341 0.71362 0.26397 0.0
H2098 H 0.51489 0.77543 0.239 0.0
H2099 H 0.54707 0.77515 0.21283 0.0
C2100 C 0.47096 0.76139 0.30017 0.0
C2101 C 0.45947 0.74388 0.30131 0.0
C2102 C 0.48938 0.76163 0.28496 0.0
C2103 C 0.49661 0.74446 0.27004 0.0
C2104 C 0.48484 0.72706 0.27099 0.0
C2105 C 0.46667 0.72672 0.28665 0.0
C2106 C 0.54616 0.72686 0.23669 0.0
C2107 C 0.55336 0.7441 0.22226 0.0
C2108 C 0.52803 0.72711 0.25243 0.0
C2109 C 0.51628 0.74452 0.2537 0.0
C2110 C 0.52352 0.76179 0.23906 0.0
C2111 C 0.54192 0.76162 0.22377 0.0
H2112 H 0.18465 0.12502 0.21242 0.0
H2113 H 0.23302 0.16172 0.24434 0.0
H2114 H 0.16055 0.14763 0.23623 0.0
H2115 H 0.20909 0.18449 0.26807 0.0
H2116 H 0.16118 0.23235 0.27644 0.0
H2117 H 0.18417 0.20883 0.25234 0.0
H2118 H 0.14844 0.15967 0.28519 0.0
H2119 H 0.1256 0.18339 0.30943 0.0
C2120 C 0.19005 0.138 0.22454 0.0
C2121 C 0.21054 0.14212 0.22578 0.0
C2122 C 0.17631 0.15083 0.23841 0.0
C2123 C 0.18287 0.16802 0.25377 0.0
C2124 C 0.20351 0.17159 0.256 0.0
C2125 C 0.21722 0.15858 0.24253 0.0
C2126 C 0.15832 0.2165 0.27839 0.0
C2127 C 0.14216 0.20955 0.29561 0.0
C2128 C 0.17146 0.20302 0.26467 0.0
C2129 C 0.1683 0.18233 0.26712 0.0
C2130 C 0.15133 0.17549 0.28284 0.0
C2131 C 0.13839 0.189 0.29698 0.0
H2132 H 0.88615 0.18501 0.21191 0.0
H2133 H 0.84957 0.23337 0.24442 0.0
H2134 H 0.86336 0.1609 0.23526 0.0
H2135 H 0.8266 0.20943 0.26764 0.0
H2136 H 0.82737 0.12554 0.30736 0.0
H2137 H 0.85118 0.14863 0.28397 0.0
H2138 H 0.80217 0.18462 0.25159 0.0
H2139 H 0.77852 0.16135 0.27485 0.0
C2140 C 0.87316 0.19041 0.22407 0.0
C2141 C 0.86913 0.2109 0.22561 0.0
C2142 C 0.86022 0.17666 0.23769 0.0
C2143 C 0.84301 0.18321 0.25309 0.0
C2144 C 0.83953 0.20385 0.25559 0.0
C2145 C 0.85265 0.21757 0.24239 0.0
C2146 C 0.82181 0.13843 0.29519 0.0
C2147 C 0.80125 0.14215 0.29365 0.0
C2148 C 0.83538 0.15153 0.28155 0.0
C2149 C 0.82861 0.16862 0.26615 0.0
C2150 C 0.80792 0.1718 0.26364 0.0
C2151 C 0.79437 0.1585 0.27687 0.0
H2152 H 0.85108 0.77848 0.27309 0.0
H2153 H 0.88644 0.82783 0.30506 0.0
H2154 H 0.82832 0.80177 0.24794 0.0
H2155 H 0.86387 0.85124 0.2799 0.0
H2156 H 0.82831 0.88558 0.2068 0.0
H2157 H 0.85219 0.86282 0.23063 0.0
H2158 H 0.80331 0.82642 0.26274 0.0
H2159 H 0.7796 0.84941 0.23921 0.0
C2160 C 0.85396 0.79435 0.27454 0.0
C2161 C 0.87001 0.8015 0.29172 0.0
C2162 C 0.84096 0.80769 0.26026 0.0
C2163 C 0.84413 0.82842 0.26215 0.0
C2164 C 0.86097 0.83541 0.27791 0.0
C2165 C 0.87379 0.82206 0.29256 0.0
C2166 C 0.82279 0.87267 0.21901 0.0
C2167 C 0.80226 0.86878 0.22046 0.0
C2168 C 0.8364 0.85974 0.23287 0.0
C2169 C 0.82969 0.84266 0.2484 0.0
C2170 C 0.80902 0.83926 0.25067 0.0
C2171 C 0.79543 0.8524 0.23727 0.0
H2172 H 0.18607 0.88758 0.31514 0.0
H2173 H 0.23416 0.85055 0.28282 0.0
H2174 H 0.16179 0.86497 0.29197 0.0
H2175 H 0.21005 0.82771 0.25992 0.0
H2176 H 0.16214 0.78046 0.24913 0.0
H2177 H 0.185 0.8035 0.27454 0.0
H2178 H 0.14947 0.85329 0.24364 0.0
H2179 H 0.12671 0.83009 0.21842 0.0
C2180 C 0.19137 0.87452 0.30306 0.0
C2181 C 0.21183 0.87034 0.30145 0.0
C2182 C 0.17752 0.86168 0.28957 0.0
C2183 C 0.18394 0.8444 0.27425 0.0
C2184 C 0.20456 0.84071 0.27182 0.0
C2185 C 0.21838 0.85376 0.28485 0.0
C2186 C 0.15927 0.79634 0.24801 0.0
C2187 C 0.14321 0.80366 0.23103 0.0
C2188 C 0.17235 0.80955 0.26242 0.0
C2189 C 0.16926 0.83029 0.26079 0.0
C2190 C 0.15232 0.83744 0.24541 0.0
C2191 C 0.13941 0.82422 0.23069 0.0
H2192 H 0.85183 0.78079 0.73869 0.0
H2193 H 0.88828 0.82922 0.70608 0.0
H2194 H 0.82856 0.80467 0.76123 0.0
H2195 H 0.86528 0.8533 0.72915 0.0
H2196 H 0.78064 0.8523 0.77086 0.0
H2197 H 0.80408 0.82959 0.74581 0.0
H2198 H 0.85337 0.86515 0.77841 0.0
H2199 H 0.82979 0.88765 0.80353 0.0
C2200 C 0.85482 0.79661 0.73652 0.0
C2201 C 0.87136 0.8033 0.71993 0.0
C2202 C 0.84154 0.81029 0.74939 0.0
C2203 C 0.84497 0.83093 0.74688 0.0
C2204 C 0.86219 0.83753 0.73156 0.0
C2205 C 0.87526 0.82381 0.71815 0.0
C2206 C 0.79649 0.85521 0.77244 0.0
C2207 C 0.80355 0.87122 0.7898 0.0
C2208 C 0.80993 0.84224 0.7582 0.0
C2209 C 0.83064 0.84543 0.76033 0.0
C2210 C 0.83754 0.86226 0.77622 0.0
C2211 C 0.8241 0.87503 0.79084 0.0
H2212 H 0.2309 0.85299 0.7494 0.0
H2213 H 0.18174 0.88863 0.71754 0.0
H2214 H 0.20751 0.83038 0.77471 0.0
H2215 H 0.1582 0.86618 0.74283 0.0
H2216 H 0.16007 0.78167 0.78257 0.0
H2217 H 0.18311 0.80557 0.75961 0.0
H2218 H 0.1463 0.85414 0.79173 0.0
H2219 H 0.12354 0.83003 0.81523 0.0
C2220 C 0.21505 0.85598 0.74804 0.0
C2221 C 0.20796 0.87202 0.73079 0.0
C2222 C 0.20165 0.84306 0.76241 0.0
C2223 C 0.18094 0.84632 0.7605 0.0
C2224 C 0.17402 0.86323 0.74481 0.0
C2225 C 0.18743 0.87596 0.73009 0.0
C2226 C 0.15699 0.79747 0.78461 0.0
C2227 C 0.14053 0.80415 0.8014 0.0
C2228 C 0.17014 0.81117 0.77151 0.0
C2229 C 0.16665 0.83181 0.77396 0.0
C2230 C 0.14944 0.83838 0.78936 0.0
C2231 C 0.13652 0.82464 0.80302 0.0
H2232 H 0.12575 0.18444 0.71145 0.0
H2233 H 0.16233 0.23318 0.74239 0.0
H2234 H 0.14843 0.16063 0.73543 0.0
H2235 H 0.18529 0.20951 0.76611 0.0
H2236 H 0.23299 0.16169 0.77678 0.0
H2237 H 0.20969 0.18449 0.75183 0.0
H2238 H 0.16022 0.14886 0.78392 0.0
H2239 H 0.18365 0.12624 0.80885 0.0
C2240 C 0.13869 0.18998 0.7235 0.0
C2241 C 0.14274 0.21048 0.72448 0.0
C2242 C 0.15158 0.17641 0.73744 0.0
C2243 C 0.16879 0.18312 0.75255 0.0
C2244 C 0.17231 0.20379 0.75443 0.0
C2245 C 0.1592 0.21736 0.74094 0.0
C2246 C 0.21712 0.15878 0.77824 0.0
C2247 C 0.20995 0.14272 0.79543 0.0
C2248 C 0.20377 0.17182 0.76408 0.0
C2249 C 0.18304 0.16866 0.76614 0.0
C2250 C 0.17605 0.15175 0.78181 0.0
C2251 C 0.1894 0.13891 0.79632 0.0
H2252 H 0.85321 0.23115 0.77817 0.0
H2253 H 0.8889 0.18165 0.80873 0.0
H2254 H 0.83028 0.20802 0.75319 0.0
H2255 H 0.86618 0.15837 0.78363 0.0
H2256 H 0.83052 0.12469 0.71012 0.0
H2257 H 0.8543 0.14691 0.73514 0.0
H2258 H 0.80539 0.18352 0.7667 0.0
H2259 H 0.78176 0.16106 0.74182 0.0
C2260 C 0.85615 0.21528 0.77926 0.0
C2261 C 0.87232 0.20802 0.79605 0.0
C2262 C 0.84304 0.20202 0.76508 0.0
C2263 C 0.84626 0.18129 0.76661 0.0
C2264 C 0.86325 0.1742 0.7819 0.0
C2265 C 0.87615 0.18747 0.7965 0.0
C2266 C 0.82497 0.13748 0.72258 0.0
C2267 C 0.80449 0.14164 0.72339 0.0
C2268 C 0.83852 0.1501 0.73713 0.0
C2269 C 0.8318 0.16714 0.75273 0.0
C2270 C 0.81113 0.1707 0.75459 0.0
C2271 C 0.79758 0.15786 0.74045 0.0
H2272 H 0.68192 0.62342 0.71347 0.0
H2273 H 0.73085 0.65935 0.74547 0.0
H2274 H 0.65817 0.6463 0.73767 0.0
H2275 H 0.70732 0.68237 0.76944 0.0
H2276 H 0.62407 0.68302 0.81117 0.0
H2277 H 0.6464 0.65873 0.78704 0.0
H2278 H 0.68282 0.70705 0.75309 0.0
H2279 H 0.66035 0.73112 0.77701 0.0
C2280 C 0.68751 0.63629 0.72566 0.0
C2281 C 0.70806 0.64016 0.72679 0.0
C2282 C 0.67399 0.64926 0.73977 0.0
C2283 C 0.68083 0.66632 0.75517 0.0
C2284 C 0.70152 0.66957 0.75735 0.0
C2285 C 0.715 0.65642 0.7437 0.0
C2286 C 0.6369 0.68831 0.79852 0.0
C2287 C 0.64103 0.70879 0.79675 0.0
C2288 C 0.64955 0.67448 0.78445 0.0
C2289 C 0.66656 0.68093 0.76845 0.0
C2290 C 0.67007 0.70154 0.76566 0.0
C2291 C 0.65723 0.71534 0.77926 0.0
H2292 H 0.27977 0.66112 0.77501 0.0
H2293 H 0.3287 0.62524 0.80705 0.0
H2294 H 0.30334 0.6844 0.75162 0.0
H2295 H 0.35245 0.64834 0.78349 0.0
H2296 H 0.35067 0.73317 0.74448 0.0
H2297 H 0.3278 0.70914 0.76769 0.0
H2298 H 0.36446 0.66074 0.73461 0.0
H2299 H 0.38715 0.68496 0.71121 0.0
C2300 C 0.29562 0.65826 0.7769 0.0
C2301 C 0.30254 0.64189 0.7936 0.0
C2302 C 0.30913 0.67155 0.76359 0.0
C2303 C 0.32982 0.66836 0.7659 0.0
C2304 C 0.33664 0.65125 0.78122 0.0
C2305 C 0.3231 0.63815 0.79496 0.0
C2306 C 0.35375 0.71738 0.74227 0.0
C2307 C 0.37017 0.71078 0.72529 0.0
C2308 C 0.34069 0.70361 0.75548 0.0
C2309 C 0.34417 0.68298 0.75279 0.0
C2310 C 0.36132 0.67649 0.73717 0.0
C2311 C 0.3742 0.6903 0.72353 0.0
H2312 H 0.38822 0.32737 0.8112 0.0
H2313 H 0.35159 0.27876 0.77991 0.0
H2314 H 0.36534 0.3513 0.78784 0.0
H2315 H 0.32845 0.30253 0.75687 0.0
H2316 H 0.33 0.38564 0.71403 0.0
H2317 H 0.35345 0.36319 0.7393 0.0
H2318 H 0.30404 0.32748 0.77139 0.0
H2319 H 0.28072 0.35007 0.74599 0.0
C2320 C 0.3752 0.32188 0.7993 0.0
C2321 C 0.37122 0.30137 0.79803 0.0
C2322 C 0.36219 0.33553 0.78571 0.0
C2323 C 0.34494 0.32887 0.77063 0.0
C2324 C 0.34145 0.30821 0.76855 0.0
C2325 C 0.35466 0.29458 0.78167 0.0
C2326 C 0.32426 0.37298 0.7266 0.0
C2327 C 0.30372 0.36907 0.72731 0.0
C2328 C 0.33763 0.36024 0.74133 0.0
C2329 C 0.33066 0.34335 0.75707 0.0
C2330 C 0.30994 0.34012 0.75902 0.0
C2331 C 0.29658 0.35304 0.74461 0.0
H2332 H 0.62757 0.3278 0.71594 0.0
H2333 H 0.66307 0.27857 0.74791 0.0
H2334 H 0.65 0.35129 0.74125 0.0
H2335 H 0.68566 0.30192 0.77328 0.0
H2336 H 0.68561 0.38594 0.81383 0.0
H2337 H 0.66171 0.36304 0.79031 0.0
H2338 H 0.71058 0.32651 0.75851 0.0
H2339 H 0.73429 0.34961 0.78174 0.0
C2340 C 0.64022 0.32208 0.7285 0.0
C2341 C 0.64409 0.30154 0.72926 0.0
C2342 C 0.65294 0.33546 0.74324 0.0
C2343 C 0.66978 0.32852 0.75904 0.0
C2344 C 0.67303 0.3078 0.76092 0.0
C2345 C 0.66012 0.29442 0.7465 0.0
C2346 C 0.69111 0.37296 0.80178 0.0
C2347 C 0.71164 0.36906 0.80032 0.0
C2348 C 0.67749 0.35996 0.78808 0.0
C2349 C 0.6842 0.3428 0.77273 0.0
C2350 C 0.70487 0.3394 0.77046 0.0
C2351 C 0.71846 0.3526 0.78369 0.0
H2352 H 0.35109 0.28133 0.24743 0.0
H2353 H 0.38664 0.33051 0.21513 0.0
H2354 H 0.32855 0.30471 0.27296 0.0
H2355 H 0.36426 0.35402 0.24055 0.0
H2356 H 0.27978 0.35243 0.28057 0.0
H2357 H 0.30363 0.32907 0.25814 0.0
H2358 H 0.35232 0.36603 0.2892 0.0
H2359 H 0.32829 0.38909 0.31212 0.0
C2360 C 0.35408 0.29718 0.24603 0.0
C2361 C 0.37007 0.30428 0.22858 0.0
C2362 C 0.34119 0.31058 0.26052 0.0
C2363 C 0.34443 0.33129 0.25849 0.0
C2364 C 0.36131 0.33821 0.24264 0.0
C2365 C 0.37401 0.3248 0.22782 0.0
C2366 C 0.2956 0.35546 0.28249 0.0
C2367 C 0.30234 0.37209 0.29874 0.0
C2368 C 0.30927 0.34213 0.2697 0.0
C2369 C 0.32993 0.3456 0.27194 0.0
C2370 C 0.33655 0.36291 0.28695 0.0
C2371 C 0.32285 0.37602 0.30028 0.0
H2372 H 0.65993 0.28099 0.28073 0.0
H2373 H 0.62335 0.32945 0.31288 0.0
H2374 H 0.68304 0.30484 0.25772 0.0
H2375 H 0.64619 0.35349 0.28943 0.0
H2376 H 0.68188 0.38812 0.21597 0.0
H2377 H 0.65825 0.36559 0.24089 0.0
H2378 H 0.70744 0.32961 0.27276 0.0
H2379 H 0.73092 0.35231 0.24782 0.0
C2380 C 0.65685 0.2968 0.28264 0.0
C2381 C 0.64036 0.30353 0.2993 0.0
C2382 C 0.67004 0.31047 0.26953 0.0
C2383 C 0.66657 0.33112 0.27187 0.0
C2384 C 0.64932 0.33772 0.28713 0.0
C2385 C 0.63635 0.32403 0.30077 0.0
C2386 C 0.68753 0.37539 0.22844 0.0
C2387 C 0.70805 0.37144 0.22925 0.0
C2388 C 0.67406 0.36261 0.24295 0.0
C2389 C 0.68092 0.34563 0.25853 0.0
C2390 C 0.70162 0.34235 0.26054 0.0
C2391 C 0.71508 0.35532 0.24639 0.0
H2392 H 0.7323 0.66087 0.27812 0.0
H2393 H 0.68363 0.62449 0.31014 0.0
H2394 H 0.70858 0.68346 0.25372 0.0
H2395 H 0.65976 0.64686 0.28566 0.0
H2396 H 0.62468 0.68215 0.21333 0.0
H2397 H 0.64751 0.65864 0.23766 0.0
H2398 H 0.68394 0.70797 0.26787 0.0
H2399 H 0.6609 0.73132 0.24367 0.0
C2400 C 0.71648 0.6577 0.27966 0.0
C2401 C 0.70963 0.64144 0.29668 0.0
C2402 C 0.70288 0.67061 0.26581 0.0
C2403 C 0.68222 0.66711 0.26794 0.0
C2404 C 0.67554 0.65002 0.28347 0.0
C2405 C 0.68914 0.63731 0.29772 0.0
C2406 C 0.63757 0.68785 0.22533 0.0
C2407 C 0.64152 0.70837 0.22594 0.0
C2408 C 0.65054 0.67445 0.2395 0.0
C2409 C 0.66771 0.68138 0.25449 0.0
C2410 C 0.67105 0.70208 0.25619 0.0
C2411 C 0.65787 0.71547 0.24244 0.0
H2412 H 0.32864 0.62603 0.2093 0.0
H2413 H 0.28009 0.6623 0.242 0.0
H2414 H 0.35258 0.64817 0.23412 0.0
H2415 H 0.30391 0.68473 0.26659 0.0
H2416 H 0.35209 0.73216 0.27781 0.0
H2417 H 0.32903 0.70922 0.25267 0.0
H2418 H 0.36449 0.65929 0.28311 0.0
H2419 H 0.38736 0.68237 0.30835 0.0
C2420 C 0.32317 0.63878 0.22192 0.0
C2421 C 0.30268 0.6429 0.22315 0.0
C2422 C 0.33682 0.65137 0.23634 0.0
C2423 C 0.3302 0.66835 0.25219 0.0
C2424 C 0.30955 0.67193 0.25433 0.0
C2425 C 0.29589 0.65912 0.24035 0.0
C2426 C 0.3549 0.71627 0.2789 0.0
C2427 C 0.37099 0.70888 0.29573 0.0
C2428 C 0.34171 0.70312 0.26463 0.0
C2429 C 0.34476 0.68237 0.26613 0.0
C2430 C 0.36168 0.67515 0.28145 0.0
C2431 C 0.37467 0.6883 0.29612 0.0
loop_
_geom_bond_atom_site_label_1
_geom_bond_atom_site_label_2
_geom_bond_distance
_geom_bond_site_symmetry_2
_ccdc_geom_bond_type
Mn0 O5 2.095 . S
Mn0 O15 2.162 . S
Mn0 O16 2.297 . S
Mn0 O24 2.385 . S
Mn0 O25 2.209 . S
Mn0 O26 2.094 . S
Mn1 O6 2.121 . S
Mn1 N8 2.257 . S
Mn1 N17 2.282 . S
Mn1 O25 2.215 . S
Mn1 O27 2.117 . S
C2 O24 1.234 . S
C2 O25 1.283 . S
C3 O15 1.281 . S
C3 O16 1.236 . S
C4 O26 1.240 . S
C4 O27 1.264 . S
O5 Mn0 2.095 . S
O5 C14 1.250 . S
O6 Mn1 2.121 . S
O6 C14 1.258 . S
C7 N8 1.326 . S
C7 C11 1.460 . S
C7 H13 0.929 . S
N8 Mn1 2.257 . S
N8 C7 1.326 . S
N8 C12 1.362 . S
C9 C10 1.258 . S
C9 C12 1.431 . S
C9 C29 1.449 . S
C10 C9 1.258 . S
C10 C11 1.477 . S
C10 H30 0.931 . S
C11 C7 1.460 . S
C11 C10 1.477 . S
C11 H31 0.930 . S
C12 N8 1.362 . S
C12 C9 1.431 . S
C12 C22 1.476 . S
H13 C7 0.929 . S
C14 O5 1.250 . S
C14 O6 1.258 . S
O15 Mn0 2.162 . S
O15 C3 1.281 . S
O16 Mn0 2.297 . S
O16 C3 1.236 . S
N17 Mn1 2.282 . S
N17 C18 1.328 . S
N17 C22 1.318 . S
C18 N17 1.328 . S
C18 C19 1.457 . S
C18 H23 0.929 . S
C19 C18 1.457 . S
C19 C20 1.291 . S
C19 H32 0.931 . S
C20 C19 1.291 . S
C20 C21 1.373 . S
C20 H33 0.929 . S
C21 C20 1.373 . S
C21 C22 1.396 . S
C21 C28 1.403 . S
C22 C12 1.476 . S
C22 N17 1.318 . S
C22 C21 1.396 . S
H23 C18 0.929 . S
O24 Mn0 2.385 . S
O24 C2 1.234 . S
O25 Mn0 2.209 . S
O25 Mn1 2.215 . S
O25 C2 1.283 . S
O26 Mn0 2.094 . S
O26 C4 1.240 . S
O27 Mn1 2.117 . S
O27 C4 1.264 . S
C28 C21 1.403 . S
C28 C29 1.399 . S
C28 H34 0.929 . S
C29 C9 1.449 . S
C29 C28 1.399 . S
C29 H35 0.930 . S
H30 C10 0.931 . S
H31 C11 0.930 . S
H32 C19 0.931 . S
H33 C20 0.929 . S
H34 C28 0.929 . S
H35 C29 0.930 . S
Mn36 O41 2.095 . S
Mn36 O51 2.162 . S
Mn36 O52 2.297 . S
Mn36 O60 2.385 . S
Mn36 O61 2.209 . S
Mn36 O62 2.094 . S
Mn37 O42 2.121 . S
Mn37 N44 2.257 . S
Mn37 N53 2.282 . S
Mn37 O61 2.215 . S
Mn37 O63 2.117 . S
C38 O60 1.234 . S
C38 O61 1.283 . S
C39 O51 1.281 . S
C39 O52 1.236 . S
C40 O62 1.240 . S
C40 O63 1.264 . S
O41 Mn36 2.095 . S
O41 C50 1.250 . S
O42 Mn37 2.121 . S
O42 C50 1.258 . S
C43 N44 1.326 . S
C43 C47 1.460 . S
C43 H49 0.929 . S
N44 Mn37 2.257 . S
N44 C43 1.326 . S
N44 C48 1.362 . S
C45 C46 1.258 . S
C45 C48 1.431 . S
C45 C65 1.449 . S
C46 C45 1.258 . S
C46 C47 1.477 . S
C46 H66 0.931 . S
C47 C43 1.460 . S
C47 C46 1.477 . S
C47 H67 0.930 . S
C48 N44 1.362 . S
C48 C45 1.431 . S
C48 C58 1.476 . S
H49 C43 0.929 . S
C50 O41 1.250 . S
C50 O42 1.258 . S
O51 Mn36 2.162 . S
O51 C39 1.281 . S
O52 Mn36 2.297 . S
O52 C39 1.236 . S
N53 Mn37 2.282 . S
N53 C54 1.328 . S
N53 C58 1.318 . S
C54 N53 1.328 . S
C54 C55 1.457 . S
C54 H59 0.929 . S
C55 C54 1.457 . S
C55 C56 1.291 . S
C55 H68 0.931 . S
C56 C55 1.291 . S
C56 C57 1.373 . S
C56 H69 0.929 . S
C57 C56 1.373 . S
C57 C58 1.396 . S
C57 C64 1.403 . S
C58 C48 1.476 . S
C58 N53 1.318 . S
C58 C57 1.396 . S
H59 C54 0.929 . S
O60 Mn36 2.385 . S
O60 C38 1.234 . S
O61 Mn36 2.209 . S
O61 Mn37 2.215 . S
O61 C38 1.283 . S
O62 Mn36 2.094 . S
O62 C40 1.240 . S
O63 Mn37 2.117 . S
O63 C40 1.264 . S
C64 C57 1.403 . S
C64 C65 1.399 . S
C64 H70 0.929 . S
C65 C45 1.449 . S
C65 C64 1.399 . S
C65 H71 0.930 . S
H66 C46 0.931 . S
H67 C47 0.930 . S
H68 C55 0.931 . S
H69 C56 0.929 . S
H70 C64 0.929 . S
H71 C65 0.930 . S
Mn72 O77 2.095 . S
Mn72 O87 2.162 . S
Mn72 O88 2.297 . S
Mn72 O96 2.385 . S
Mn72 O97 2.209 . S
Mn72 O98 2.094 . S
Mn73 O78 2.121 . S
Mn73 N80 2.257 . S
Mn73 N89 2.282 . S
Mn73 O97 2.215 . S
Mn73 O99 2.117 . S
C74 O96 1.234 . S
C74 O97 1.283 . S
C75 O87 1.281 . S
C75 O88 1.236 . S
C76 O98 1.240 . S
C76 O99 1.264 . S
O77 Mn72 2.095 . S
O77 C86 1.250 . S
O78 Mn73 2.121 . S
O78 C86 1.258 . S
C79 N80 1.326 . S
C79 C83 1.460 . S
C79 H85 0.929 . S
N80 Mn73 2.257 . S
N80 C79 1.326 . S
N80 C84 1.362 . S
C81 C82 1.258 . S
C81 C84 1.431 . S
C81 C101 1.449 . S
C82 C81 1.258 . S
C82 C83 1.477 . S
C82 H102 0.931 . S
C83 C79 1.460 . S
C83 C82 1.477 . S
C83 H103 0.930 . S
C84 N80 1.362 . S
C84 C81 1.431 . S
C84 C94 1.476 . S
H85 C79 0.929 . S
C86 O77 1.250 . S
C86 O78 1.258 . S
O87 Mn72 2.162 . S
O87 C75 1.281 . S
O88 Mn72 2.297 . S
O88 C75 1.236 . S
N89 Mn73 2.282 . S
N89 C90 1.328 . S
N89 C94 1.318 . S
C90 N89 1.328 . S
C90 C91 1.457 . S
C90 H95 0.929 . S
C91 C90 1.457 . S
C91 C92 1.291 . S
C91 H104 0.931 . S
C92 C91 1.291 . S
C92 C93 1.373 . S
C92 H105 0.929 . S
C93 C92 1.373 . S
C93 C94 1.396 . S
C93 C100 1.403 . S
C94 C84 1.476 . S
C94 N89 1.318 . S
C94 C93 1.396 . S
H95 C90 0.929 . S
O96 Mn72 2.385 . S
O96 C74 1.234 . S
O97 Mn72 2.209 . S
O97 Mn73 2.215 . S
O97 C74 1.283 . S
O98 Mn72 2.094 . S
O98 C76 1.240 . S
O99 Mn73 2.117 . S
O99 C76 1.264 . S
C100 C93 1.403 . S
C100 C101 1.399 . S
C100 H106 0.929 . S
C101 C81 1.449 . S
C101 C100 1.399 . S
C101 H107 0.930 . S
H102 C82 0.931 . S
H103 C83 0.930 . S
H104 C91 0.931 . S
H105 C92 0.929 . S
H106 C100 0.929 . S
H107 C101 0.930 . S
Mn108 O113 2.095 . S
Mn108 O123 2.162 . S
Mn108 O124 2.297 . S
Mn108 O132 2.385 . S
Mn108 O133 2.209 . S
Mn108 O134 2.094 . S
Mn109 O114 2.121 . S
Mn109 N116 2.257 . S
Mn109 N125 2.282 . S
Mn109 O133 2.215 . S
Mn109 O135 2.117 . S
C110 O132 1.234 . S
C110 O133 1.283 . S
C111 O123 1.281 . S
C111 O124 1.236 . S
C112 O134 1.240 . S
C112 O135 1.264 . S
O113 Mn108 2.095 . S
O113 C122 1.250 . S
O114 Mn109 2.121 . S
O114 C122 1.258 . S
C115 N116 1.326 . S
C115 C119 1.460 . S
C115 H121 0.929 . S
N116 Mn109 2.257 . S
N116 C115 1.326 . S
N116 C120 1.362 . S
C117 C118 1.258 . S
C117 C120 1.431 . S
C117 C137 1.449 . S
C118 C117 1.258 . S
C118 C119 1.477 . S
C118 H138 0.931 . S
C119 C115 1.460 . S
C119 C118 1.477 . S
C119 H139 0.930 . S
C120 N116 1.362 . S
C120 C117 1.431 . S
C120 C130 1.476 . S
H121 C115 0.929 . S
C122 O113 1.250 . S
C122 O114 1.258 . S
O123 Mn108 2.162 . S
O123 C111 1.281 . S
O124 Mn108 2.297 . S
O124 C111 1.236 . S
N125 Mn109 2.282 . S
N125 C126 1.328 . S
N125 C130 1.318 . S
C126 N125 1.328 . S
C126 C127 1.457 . S
C126 H131 0.929 . S
C127 C126 1.457 . S
C127 C128 1.291 . S
C127 H140 0.931 . S
C128 C127 1.291 . S
C128 C129 1.373 . S
C128 H141 0.929 . S
C129 C128 1.373 . S
C129 C130 1.396 . S
C129 C136 1.403 . S
C130 C120 1.476 . S
C130 N125 1.318 . S
C130 C129 1.396 . S
H131 C126 0.929 . S
O132 Mn108 2.385 . S
O132 C110 1.234 . S
O133 Mn108 2.209 . S
O133 Mn109 2.215 . S
O133 C110 1.283 . S
O134 Mn108 2.094 . S
O134 C112 1.240 . S
O135 Mn109 2.117 . S
O135 C112 1.264 . S
C136 C129 1.403 . S
C136 C137 1.399 . S
C136 H142 0.929 . S
C137 C117 1.449 . S
C137 C136 1.399 . S
C137 H143 0.930 . S
H138 C118 0.931 . S
H139 C119 0.930 . S
H140 C127 0.931 . S
H141 C128 0.929 . S
H142 C136 0.929 . S
H143 C137 0.930 . S
Mn144 O149 2.095 . S
Mn144 O159 2.162 . S
Mn144 O160 2.297 . S
Mn144 O168 2.385 . S
Mn144 O169 2.209 . S
Mn144 O170 2.094 . S
Mn145 O150 2.121 . S
Mn145 N152 2.257 . S
Mn145 N161 2.282 . S
Mn145 O169 2.215 . S
Mn145 O171 2.117 . S
C146 O168 1.234 . S
C146 O169 1.283 . S
C147 O159 1.281 . S
C147 O160 1.236 . S
C148 O170 1.240 . S
C148 O171 1.264 . S
O149 Mn144 2.095 . S
O149 C158 1.250 . S
O150 Mn145 2.121 . S
O150 C158 1.258 . S
C151 N152 1.326 . S
C151 C155 1.460 . S
C151 H157 0.929 . S
N152 Mn145 2.257 . S
N152 C151 1.326 . S
N152 C156 1.362 . S
C153 C154 1.258 . S
C153 C156 1.431 . S
C153 C173 1.449 . S
C154 C153 1.258 . S
C154 C155 1.477 . S
C154 H174 0.931 . S
C155 C151 1.460 . S
C155 C154 1.477 . S
C155 H175 0.930 . S
C156 N152 1.362 . S
C156 C153 1.431 . S
C156 C166 1.476 . S
H157 C151 0.929 . S
C158 O149 1.250 . S
C158 O150 1.258 . S
O159 Mn144 2.162 . S
O159 C147 1.281 . S
O160 Mn144 2.297 . S
O160 C147 1.236 . S
N161 Mn145 2.282 . S
N161 C162 1.328 . S
N161 C166 1.318 . S
C162 N161 1.328 . S
C162 C163 1.457 . S
C162 H167 0.929 . S
C163 C162 1.457 . S
C163 C164 1.291 . S
C163 H176 0.931 . S
C164 C163 1.291 . S
C164 C165 1.373 . S
C164 H177 0.929 . S
C165 C164 1.373 . S
C165 C166 1.396 . S
C165 C172 1.403 . S
C166 C156 1.476 . S
C166 N161 1.318 . S
C166 C165 1.396 . S
H167 C162 0.929 . S
O168 Mn144 2.385 . S
O168 C146 1.234 . S
O169 Mn144 2.209 . S
O169 Mn145 2.215 . S
O169 C146 1.283 . S
O170 Mn144 2.094 . S
O170 C148 1.240 . S
O171 Mn145 2.117 . S
O171 C148 1.264 . S
C172 C165 1.403 . S
C172 C173 1.399 . S
C172 H178 0.929 . S
C173 C153 1.449 . S
C173 C172 1.399 . S
C173 H179 0.930 . S
H174 C154 0.931 . S
H175 C155 0.930 . S
H176 C163 0.931 . S
H177 C164 0.929 . S
H178 C172 0.929 . S
H179 C173 0.930 . S
Mn180 O185 2.095 . S
Mn180 O195 2.162 . S
Mn180 O196 2.297 . S
Mn180 O204 2.385 . S
Mn180 O205 2.209 . S
Mn180 O206 2.094 . S
Mn181 O186 2.121 . S
Mn181 N188 2.257 . S
Mn181 N197 2.282 . S
Mn181 O205 2.215 . S
Mn181 O207 2.117 . S
C182 O204 1.234 . S
C182 O205 1.283 . S
C183 O195 1.281 . S
C183 O196 1.236 . S
C184 O206 1.240 . S
C184 O207 1.264 . S
O185 Mn180 2.095 . S
O185 C194 1.250 . S
O186 Mn181 2.121 . S
O186 C194 1.258 . S
C187 N188 1.326 . S
C187 C191 1.460 . S
C187 H193 0.929 . S
N188 Mn181 2.257 . S
N188 C187 1.326 . S
N188 C192 1.362 . S
C189 C190 1.258 . S
C189 C192 1.431 . S
C189 C209 1.449 . S
C190 C189 1.258 . S
C190 C191 1.477 . S
C190 H210 0.931 . S
C191 C187 1.460 . S
C191 C190 1.477 . S
C191 H211 0.930 . S
C192 N188 1.362 . S
C192 C189 1.431 . S
C192 C202 1.476 . S
H193 C187 0.929 . S
C194 O185 1.250 . S
C194 O186 1.258 . S
O195 Mn180 2.162 . S
O195 C183 1.281 . S
O196 Mn180 2.297 . S
O196 C183 1.236 . S
N197 Mn181 2.282 . S
N197 C198 1.328 . S
N197 C202 1.318 . S
C198 N197 1.328 . S
C198 C199 1.457 . S
C198 H203 0.929 . S
C199 C198 1.457 . S
C199 C200 1.291 . S
C199 H212 0.931 . S
C200 C199 1.291 . S
C200 C201 1.373 . S
C200 H213 0.929 . S
C201 C200 1.373 . S
C201 C202 1.396 . S
C201 C208 1.403 . S
C202 C192 1.476 . S
C202 N197 1.318 . S
C202 C201 1.396 . S
H203 C198 0.929 . S
O204 Mn180 2.385 . S
O204 C182 1.234 . S
O205 Mn180 2.209 . S
O205 Mn181 2.215 . S
O205 C182 1.283 . S
O206 Mn180 2.094 . S
O206 C184 1.240 . S
O207 Mn181 2.117 . S
O207 C184 1.264 . S
C208 C201 1.403 . S
C208 C209 1.399 . S
C208 H214 0.929 . S
C209 C189 1.449 . S
C209 C208 1.399 . S
C209 H215 0.930 . S
H210 C190 0.931 . S
H211 C191 0.930 . S
H212 C199 0.931 . S
H213 C200 0.929 . S
H214 C208 0.929 . S
H215 C209 0.930 . S
Mn216 O221 2.095 . S
Mn216 O231 2.162 . S
Mn216 O232 2.297 . S
Mn216 O240 2.385 . S
Mn216 O241 2.209 . S
Mn216 O242 2.094 . S
Mn217 O222 2.121 . S
Mn217 N224 2.257 . S
Mn217 N233 2.282 . S
Mn217 O241 2.215 . S
Mn217 O243 2.117 . S
C218 O240 1.234 . S
C218 O241 1.283 . S
C219 O231 1.281 . S
C219 O232 1.236 . S
C220 O242 1.240 . S
C220 O243 1.264 . S
O221 Mn216 2.095 . S
O221 C230 1.250 . S
O222 Mn217 2.121 . S
O222 C230 1.258 . S
C223 N224 1.326 . S
C223 C227 1.460 . S
C223 H229 0.929 . S
N224 Mn217 2.257 . S
N224 C223 1.326 . S
N224 C228 1.362 . S
C225 C226 1.258 . S
C225 C228 1.431 . S
C225 C245 1.449 . S
C226 C225 1.258 . S
C226 C227 1.477 . S
C226 H246 0.931 . S
C227 C223 1.460 . S
C227 C226 1.477 . S
C227 H247 0.930 . S
C228 N224 1.362 . S
C228 C225 1.431 . S
C228 C238 1.476 . S
H229 C223 0.929 . S
C230 O221 1.250 . S
C230 O222 1.258 . S
O231 Mn216 2.162 . S
O231 C219 1.281 . S
O232 Mn216 2.297 . S
O232 C219 1.236 . S
N233 Mn217 2.282 . S
N233 C234 1.328 . S
N233 C238 1.318 . S
C234 N233 1.328 . S
C234 C235 1.457 . S
C234 H239 0.929 . S
C235 C234 1.457 . S
C235 C236 1.291 . S
C235 H248 0.931 . S
C236 C235 1.291 . S
C236 C237 1.373 . S
C236 H249 0.929 . S
C237 C236 1.373 . S
C237 C238 1.396 . S
C237 C244 1.403 . S
C238 C228 1.476 . S
C238 N233 1.318 . S
C238 C237 1.396 . S
H239 C234 0.929 . S
O240 Mn216 2.385 . S
O240 C218 1.234 . S
O241 Mn216 2.209 . S
O241 Mn217 2.215 . S
O241 C218 1.283 . S
O242 Mn216 2.094 . S
O242 C220 1.240 . S
O243 Mn217 2.117 . S
O243 C220 1.264 . S
C244 C237 1.403 . S
C244 C245 1.399 . S
C244 H250 0.929 . S
C245 C225 1.449 . S
C245 C244 1.399 . S
C245 H251 0.930 . S
H246 C226 0.931 . S
H247 C227 0.930 . S
H248 C235 0.931 . S
H249 C236 0.929 . S
H250 C244 0.929 . S
H251 C245 0.930 . S
Mn252 O257 2.095 . S
Mn252 O267 2.162 . S
Mn252 O268 2.297 . S
Mn252 O276 2.385 . S
Mn252 O277 2.209 . S
Mn252 O278 2.094 . S
Mn253 O258 2.121 . S
Mn253 N260 2.257 . S
Mn253 N269 2.282 . S
Mn253 O277 2.215 . S
Mn253 O279 2.117 . S
C254 O276 1.234 . S
C254 O277 1.283 . S
C255 O267 1.281 . S
C255 O268 1.236 . S
C256 O278 1.240 . S
C256 O279 1.264 . S
O257 Mn252 2.095 . S
O257 C266 1.250 . S
O258 Mn253 2.121 . S
O258 C266 1.258 . S
C259 N260 1.326 . S
C259 C263 1.460 . S
C259 H265 0.929 . S
N260 Mn253 2.257 . S
N260 C259 1.326 . S
N260 C264 1.362 . S
C261 C262 1.258 . S
C261 C264 1.431 . S
C261 C281 1.449 . S
C262 C261 1.258 . S
C262 C263 1.477 . S
C262 H282 0.931 . S
C263 C259 1.460 . S
C263 C262 1.477 . S
C263 H283 0.930 . S
C264 N260 1.362 . S
C264 C261 1.431 . S
C264 C274 1.476 . S
H265 C259 0.929 . S
C266 O257 1.250 . S
C266 O258 1.258 . S
O267 Mn252 2.162 . S
O267 C255 1.281 . S
O268 Mn252 2.297 . S
O268 C255 1.236 . S
N269 Mn253 2.282 . S
N269 C270 1.328 . S
N269 C274 1.318 . S
C270 N269 1.328 . S
C270 C271 1.457 . S
C270 H275 0.929 . S
C271 C270 1.457 . S
C271 C272 1.291 . S
C271 H284 0.931 . S
C272 C271 1.291 . S
C272 C273 1.373 . S
C272 H285 0.929 . S
C273 C272 1.373 . S
C273 C274 1.396 . S
C273 C280 1.403 . S
C274 C264 1.476 . S
C274 N269 1.318 . S
C274 C273 1.396 . S
H275 C270 0.929 . S
O276 Mn252 2.385 . S
O276 C254 1.234 . S
O277 Mn252 2.209 . S
O277 Mn253 2.215 . S
O277 C254 1.283 . S
O278 Mn252 2.094 . S
O278 C256 1.240 . S
O279 Mn253 2.117 . S
O279 C256 1.264 . S
C280 C273 1.403 . S
C280 C281 1.399 . S
C280 H286 0.929 . S
C281 C261 1.449 . S
C281 C280 1.399 . S
C281 H287 0.930 . S
H282 C262 0.931 . S
H283 C263 0.930 . S
H284 C271 0.931 . S
H285 C272 0.929 . S
H286 C280 0.929 . S
H287 C281 0.930 . S
Mn288 O293 2.095 . S
Mn288 O303 2.162 . S
Mn288 O304 2.297 . S
Mn288 O312 2.385 . S
Mn288 O313 2.209 . S
Mn288 O314 2.094 . S
Mn289 O294 2.121 . S
Mn289 N296 2.257 . S
Mn289 N305 2.282 . S
Mn289 O313 2.215 . S
Mn289 O315 2.117 . S
C290 O312 1.234 . S
C290 O313 1.283 . S
C291 O303 1.281 . S
C291 O304 1.236 . S
C292 O314 1.240 . S
C292 O315 1.264 . S
O293 Mn288 2.095 . S
O293 C302 1.250 . S
O294 Mn289 2.121 . S
O294 C302 1.258 . S
C295 N296 1.326 . S
C295 C299 1.460 . S
C295 H301 0.929 . S
N296 Mn289 2.257 . S
N296 C295 1.326 . S
N296 C300 1.362 . S
C297 C298 1.258 . S
C297 C300 1.431 . S
C297 C317 1.449 . S
C298 C297 1.258 . S
C298 C299 1.477 . S
C298 H318 0.931 . S
C299 C295 1.460 . S
C299 C298 1.477 . S
C299 H319 0.930 . S
C300 N296 1.362 . S
C300 C297 1.431 . S
C300 C310 1.476 . S
H301 C295 0.929 . S
C302 O293 1.250 . S
C302 O294 1.258 . S
O303 Mn288 2.162 . S
O303 C291 1.281 . S
O304 Mn288 2.297 . S
O304 C291 1.236 . S
N305 Mn289 2.282 . S
N305 C306 1.328 . S
N305 C310 1.318 . S
C306 N305 1.328 . S
C306 C307 1.457 . S
C306 H311 0.929 . S
C307 C306 1.457 . S
C307 C308 1.291 . S
C307 H320 0.931 . S
C308 C307 1.291 . S
C308 C309 1.373 . S
C308 H321 0.929 . S
C309 C308 1.373 . S
C309 C310 1.396 . S
C309 C316 1.403 . S
C310 C300 1.476 . S
C310 N305 1.318 . S
C310 C309 1.396 . S
H311 C306 0.929 . S
O312 Mn288 2.385 . S
O312 C290 1.234 . S
O313 Mn288 2.209 . S
O313 Mn289 2.215 . S
O313 C290 1.283 . S
O314 Mn288 2.094 . S
O314 C292 1.240 . S
O315 Mn289 2.117 . S
O315 C292 1.264 . S
C316 C309 1.403 . S
C316 C317 1.399 . S
C316 H322 0.929 . S
C317 C297 1.449 . S
C317 C316 1.399 . S
C317 H323 0.930 . S
H318 C298 0.931 . S
H319 C299 0.930 . S
H320 C307 0.931 . S
H321 C308 0.929 . S
H322 C316 0.929 . S
H323 C317 0.930 . S
Mn324 O329 2.095 . S
Mn324 O339 2.162 . S
Mn324 O340 2.297 . S
Mn324 O348 2.385 . S
Mn324 O349 2.209 . S
Mn324 O350 2.094 . S
Mn325 O330 2.121 . S
Mn325 N332 2.257 . S
Mn325 N341 2.282 . S
Mn325 O349 2.215 . S
Mn325 O351 2.117 . S
C326 O348 1.234 . S
C326 O349 1.283 . S
C327 O339 1.281 . S
C327 O340 1.236 . S
C328 O350 1.240 . S
C328 O351 1.264 . S
O329 Mn324 2.095 . S
O329 C338 1.250 . S
O330 Mn325 2.121 . S
O330 C338 1.258 . S
C331 N332 1.326 . S
C331 C335 1.460 . S
C331 H337 0.929 . S
N332 Mn325 2.257 . S
N332 C331 1.326 . S
N332 C336 1.362 . S
C333 C334 1.258 . S
C333 C336 1.431 . S
C333 C353 1.449 . S
C334 C333 1.258 . S
C334 C335 1.477 . S
C334 H354 0.931 . S
C335 C331 1.460 . S
C335 C334 1.477 . S
C335 H355 0.930 . S
C336 N332 1.362 . S
C336 C333 1.431 . S
C336 C346 1.476 . S
H337 C331 0.929 . S
C338 O329 1.250 . S
C338 O330 1.258 . S
O339 Mn324 2.162 . S
O339 C327 1.281 . S
O340 Mn324 2.297 . S
O340 C327 1.236 . S
N341 Mn325 2.282 . S
N341 C342 1.328 . S
N341 C346 1.318 . S
C342 N341 1.328 . S
C342 C343 1.457 . S
C342 H347 0.929 . S
C343 C342 1.457 . S
C343 C344 1.291 . S
C343 H356 0.931 . S
C344 C343 1.291 . S
C344 C345 1.373 . S
C344 H357 0.929 . S
C345 C344 1.373 . S
C345 C346 1.396 . S
C345 C352 1.403 . S
C346 C336 1.476 . S
C346 N341 1.318 . S
C346 C345 1.396 . S
H347 C342 0.929 . S
O348 Mn324 2.385 . S
O348 C326 1.234 . S
O349 Mn324 2.209 . S
O349 Mn325 2.215 . S
O349 C326 1.283 . S
O350 Mn324 2.094 . S
O350 C328 1.240 . S
O351 Mn325 2.117 . S
O351 C328 1.264 . S
C352 C345 1.403 . S
C352 C353 1.399 . S
C352 H358 0.929 . S
C353 C333 1.449 . S
C353 C352 1.399 . S
C353 H359 0.930 . S
H354 C334 0.931 . S
H355 C335 0.930 . S
H356 C343 0.931 . S
H357 C344 0.929 . S
H358 C352 0.929 . S
H359 C353 0.930 . S
Mn360 O365 2.095 . S
Mn360 O375 2.162 . S
Mn360 O376 2.297 . S
Mn360 O384 2.385 . S
Mn360 O385 2.209 . S
Mn360 O386 2.094 . S
Mn361 O366 2.121 . S
Mn361 N368 2.257 . S
Mn361 N377 2.282 . S
Mn361 O385 2.215 . S
Mn361 O387 2.117 . S
C362 O384 1.234 . S
C362 O385 1.283 . S
C363 O375 1.281 . S
C363 O376 1.236 . S
C364 O386 1.240 . S
C364 O387 1.264 . S
O365 Mn360 2.095 . S
O365 C374 1.250 . S
O366 Mn361 2.121 . S
O366 C374 1.258 . S
C367 N368 1.326 . S
C367 C371 1.460 . S
C367 H373 0.929 . S
N368 Mn361 2.257 . S
N368 C367 1.326 . S
N368 C372 1.362 . S
C369 C370 1.258 . S
C369 C372 1.431 . S
C369 C389 1.449 . S
C370 C369 1.258 . S
C370 C371 1.477 . S
C370 H390 0.931 . S
C371 C367 1.460 . S
C371 C370 1.477 . S
C371 H391 0.930 . S
C372 N368 1.362 . S
C372 C369 1.431 . S
C372 C382 1.476 . S
H373 C367 0.929 . S
C374 O365 1.250 . S
C374 O366 1.258 . S
O375 Mn360 2.162 . S
O375 C363 1.281 . S
O376 Mn360 2.297 . S
O376 C363 1.236 . S
N377 Mn361 2.282 . S
N377 C378 1.328 . S
N377 C382 1.318 . S
C378 N377 1.328 . S
C378 C379 1.457 . S
C378 H383 0.929 . S
C379 C378 1.457 . S
C379 C380 1.291 . S
C379 H392 0.931 . S
C380 C379 1.291 . S
C380 C381 1.373 . S
C380 H393 0.929 . S
C381 C380 1.373 . S
C381 C382 1.396 . S
C381 C388 1.403 . S
C382 C372 1.476 . S
C382 N377 1.318 . S
C382 C381 1.396 . S
H383 C378 0.929 . S
O384 Mn360 2.385 . S
O384 C362 1.234 . S
O385 Mn360 2.209 . S
O385 Mn361 2.215 . S
O385 C362 1.283 . S
O386 Mn360 2.094 . S
O386 C364 1.240 . S
O387 Mn361 2.117 . S
O387 C364 1.264 . S
C388 C381 1.403 . S
C388 C389 1.399 . S
C388 H394 0.929 . S
C389 C369 1.449 . S
C389 C388 1.399 . S
C389 H395 0.930 . S
H390 C370 0.931 . S
H391 C371 0.930 . S
H392 C379 0.931 . S
H393 C380 0.929 . S
H394 C388 0.929 . S
H395 C389 0.930 . S
Mn396 O401 2.095 . S
Mn396 O411 2.162 . S
Mn396 O412 2.297 . S
Mn396 O420 2.385 . S
Mn396 O421 2.209 . S
Mn396 O422 2.094 . S
Mn397 O402 2.121 . S
Mn397 N404 2.257 . S
Mn397 N413 2.282 . S
Mn397 O421 2.215 . S
Mn397 O423 2.117 . S
C398 O420 1.234 . S
C398 O421 1.283 . S
C399 O411 1.281 . S
C399 O412 1.236 . S
C400 O422 1.240 . S
C400 O423 1.264 . S
O401 Mn396 2.095 . S
O401 C410 1.250 . S
O402 Mn397 2.121 . S
O402 C410 1.258 . S
C403 N404 1.326 . S
C403 C407 1.460 . S
C403 H409 0.929 . S
N404 Mn397 2.257 . S
N404 C403 1.326 . S
N404 C408 1.362 . S
C405 C406 1.258 . S
C405 C408 1.431 . S
C405 C425 1.449 . S
C406 C405 1.258 . S
C406 C407 1.477 . S
C406 H426 0.931 . S
C407 C403 1.460 . S
C407 C406 1.477 . S
C407 H427 0.930 . S
C408 N404 1.362 . S
C408 C405 1.431 . S
C408 C418 1.476 . S
H409 C403 0.929 . S
C410 O401 1.250 . S
C410 O402 1.258 . S
O411 Mn396 2.162 . S
O411 C399 1.281 . S
O412 Mn396 2.297 . S
O412 C399 1.236 . S
N413 Mn397 2.282 . S
N413 C414 1.328 . S
N413 C418 1.318 . S
C414 N413 1.328 . S
C414 C415 1.457 . S
C414 H419 0.929 . S
C415 C414 1.457 . S
C415 C416 1.291 . S
C415 H428 0.931 . S
C416 C415 1.291 . S
C416 C417 1.373 . S
C416 H429 0.929 . S
C417 C416 1.373 . S
C417 C418 1.396 . S
C417 C424 1.403 . S
C418 C408 1.476 . S
C418 N413 1.318 . S
C418 C417 1.396 . S
H419 C414 0.929 . S
O420 Mn396 2.385 . S
O420 C398 1.234 . S
O421 Mn396 2.209 . S
O421 Mn397 2.215 . S
O421 C398 1.283 . S
O422 Mn396 2.094 . S
O422 C400 1.240 . S
O423 Mn397 2.117 . S
O423 C400 1.264 . S
C424 C417 1.403 . S
C424 C425 1.399 . S
C424 H430 0.929 . S
C425 C405 1.449 . S
C425 C424 1.399 . S
C425 H431 0.930 . S
H426 C406 0.931 . S
H427 C407 0.930 . S
H428 C415 0.931 . S
H429 C416 0.929 . S
H430 C424 0.929 . S
H431 C425 0.930 . S
Mn432 O437 2.095 . S
Mn432 O447 2.162 . S
Mn432 O448 2.297 . S
Mn432 O456 2.385 . S
Mn432 O457 2.209 . S
Mn432 O458 2.094 . S
Mn433 O438 2.121 . S
Mn433 N440 2.257 . S
Mn433 N449 2.282 . S
Mn433 O457 2.215 . S
Mn433 O459 2.117 . S
C434 O456 1.234 . S
C434 O457 1.283 . S
C435 O447 1.281 . S
C435 O448 1.236 . S
C436 O458 1.240 . S
C436 O459 1.264 . S
O437 Mn432 2.095 . S
O437 C446 1.250 . S
O438 Mn433 2.121 . S
O438 C446 1.258 . S
C439 N440 1.326 . S
C439 C443 1.460 . S
C439 H445 0.929 . S
N440 Mn433 2.257 . S
N440 C439 1.326 . S
N440 C444 1.362 . S
C441 C442 1.258 . S
C441 C444 1.431 . S
C441 C461 1.449 . S
C442 C441 1.258 . S
C442 C443 1.477 . S
C442 H462 0.931 . S
C443 C439 1.460 . S
C443 C442 1.477 . S
C443 H463 0.930 . S
C444 N440 1.362 . S
C444 C441 1.431 . S
C444 C454 1.476 . S
H445 C439 0.929 . S
C446 O437 1.250 . S
C446 O438 1.258 . S
O447 Mn432 2.162 . S
O447 C435 1.281 . S
O448 Mn432 2.297 . S
O448 C435 1.236 . S
N449 Mn433 2.282 . S
N449 C450 1.328 . S
N449 C454 1.318 . S
C450 N449 1.328 . S
C450 C451 1.457 . S
C450 H455 0.929 . S
C451 C450 1.457 . S
C451 C452 1.291 . S
C451 H464 0.931 . S
C452 C451 1.291 . S
C452 C453 1.373 . S
C452 H465 0.929 . S
C453 C452 1.373 . S
C453 C454 1.396 . S
C453 C460 1.403 . S
C454 C444 1.476 . S
C454 N449 1.318 . S
C454 C453 1.396 . S
H455 C450 0.929 . S
O456 Mn432 2.385 . S
O456 C434 1.234 . S
O457 Mn432 2.209 . S
O457 Mn433 2.215 . S
O457 C434 1.283 . S
O458 Mn432 2.094 . S
O458 C436 1.240 . S
O459 Mn433 2.117 . S
O459 C436 1.264 . S
C460 C453 1.403 . S
C460 C461 1.399 . S
C460 H466 0.929 . S
C461 C441 1.449 . S
C461 C460 1.399 . S
C461 H467 0.930 . S
H462 C442 0.931 . S
H463 C443 0.930 . S
H464 C451 0.931 . S
H465 C452 0.929 . S
H466 C460 0.929 . S
H467 C461 0.930 . S
Mn468 O473 2.095 . S
Mn468 O483 2.162 . S
Mn468 O484 2.297 . S
Mn468 O492 2.385 . S
Mn468 O493 2.209 . S
Mn468 O494 2.094 . S
Mn469 O474 2.121 . S
Mn469 N476 2.257 . S
Mn469 N485 2.282 . S
Mn469 O493 2.215 . S
Mn469 O495 2.117 . S
C470 O492 1.234 . S
C470 O493 1.283 . S
C471 O483 1.281 . S
C471 O484 1.236 . S
C472 O494 1.240 . S
C472 O495 1.264 . S
O473 Mn468 2.095 . S
O473 C482 1.250 . S
O474 Mn469 2.121 . S
O474 C482 1.258 . S
C475 N476 1.326 . S
C475 C479 1.460 . S
C475 H481 0.929 . S
N476 Mn469 2.257 . S
N476 C475 1.326 . S
N476 C480 1.362 . S
C477 C478 1.258 . S
C477 C480 1.431 . S
C477 C497 1.449 . S
C478 C477 1.258 . S
C478 C479 1.477 . S
C478 H498 0.931 . S
C479 C475 1.460 . S
C479 C478 1.477 . S
C479 H499 0.930 . S
C480 N476 1.362 . S
C480 C477 1.431 . S
C480 C490 1.476 . S
H481 C475 0.929 . S
C482 O473 1.250 . S
C482 O474 1.258 . S
O483 Mn468 2.162 . S
O483 C471 1.281 . S
O484 Mn468 2.297 . S
O484 C471 1.236 . S
N485 Mn469 2.282 . S
N485 C486 1.328 . S
N485 C490 1.318 . S
C486 N485 1.328 . S
C486 C487 1.457 . S
C486 H491 0.929 . S
C487 C486 1.457 . S
C487 C488 1.291 . S
C487 H500 0.931 . S
C488 C487 1.291 . S
C488 C489 1.373 . S
C488 H501 0.929 . S
C489 C488 1.373 . S
C489 C490 1.396 . S
C489 C496 1.403 . S
C490 C480 1.476 . S
C490 N485 1.318 . S
C490 C489 1.396 . S
H491 C486 0.929 . S
O492 Mn468 2.385 . S
O492 C470 1.234 . S
O493 Mn468 2.209 . S
O493 Mn469 2.215 . S
O493 C470 1.283 . S
O494 Mn468 2.094 . S
O494 C472 1.240 . S
O495 Mn469 2.117 . S
O495 C472 1.264 . S
C496 C489 1.403 . S
C496 C497 1.399 . S
C496 H502 0.929 . S
C497 C477 1.449 . S
C497 C496 1.399 . S
C497 H503 0.930 . S
H498 C478 0.931 . S
H499 C479 0.930 . S
H500 C487 0.931 . S
H501 C488 0.929 . S
H502 C496 0.929 . S
H503 C497 0.930 . S
Mn504 O509 2.095 . S
Mn504 O519 2.162 . S
Mn504 O520 2.297 . S
Mn504 O528 2.385 . S
Mn504 O529 2.209 . S
Mn504 O530 2.094 . S
Mn505 O510 2.121 . S
Mn505 N512 2.257 . S
Mn505 N521 2.282 . S
Mn505 O529 2.215 . S
Mn505 O531 2.117 . S
C506 O528 1.234 . S
C506 O529 1.283 . S
C507 O519 1.281 . S
C507 O520 1.236 . S
C508 O530 1.240 . S
C508 O531 1.264 . S
O509 Mn504 2.095 . S
O509 C518 1.250 . S
O510 Mn505 2.121 . S
O510 C518 1.258 . S
C511 N512 1.326 . S
C511 C515 1.460 . S
C511 H517 0.929 . S
N512 Mn505 2.257 . S
N512 C511 1.326 . S
N512 C516 1.362 . S
C513 C514 1.258 . S
C513 C516 1.431 . S
C513 C533 1.449 . S
C514 C513 1.258 . S
C514 C515 1.477 . S
C514 H534 0.931 . S
C515 C511 1.460 . S
C515 C514 1.477 . S
C515 H535 0.930 . S
C516 N512 1.362 . S
C516 C513 1.431 . S
C516 C526 1.476 . S
H517 C511 0.929 . S
C518 O509 1.250 . S
C518 O510 1.258 . S
O519 Mn504 2.162 . S
O519 C507 1.281 . S
O520 Mn504 2.297 . S
O520 C507 1.236 . S
N521 Mn505 2.282 . S
N521 C522 1.328 . S
N521 C526 1.318 . S
C522 N521 1.328 . S
C522 C523 1.457 . S
C522 H527 0.929 . S
C523 C522 1.457 . S
C523 C524 1.291 . S
C523 H536 0.931 . S
C524 C523 1.291 . S
C524 C525 1.373 . S
C524 H537 0.929 . S
C525 C524 1.373 . S
C525 C526 1.396 . S
C525 C532 1.403 . S
C526 C516 1.476 . S
C526 N521 1.318 . S
C526 C525 1.396 . S
H527 C522 0.929 . S
O528 Mn504 2.385 . S
O528 C506 1.234 . S
O529 Mn504 2.209 . S
O529 Mn505 2.215 . S
O529 C506 1.283 . S
O530 Mn504 2.094 . S
O530 C508 1.240 . S
O531 Mn505 2.117 . S
O531 C508 1.264 . S
C532 C525 1.403 . S
C532 C533 1.399 . S
C532 H538 0.929 . S
C533 C513 1.449 . S
C533 C532 1.399 . S
C533 H539 0.930 . S
H534 C514 0.931 . S
H535 C515 0.930 . S
H536 C523 0.931 . S
H537 C524 0.929 . S
H538 C532 0.929 . S
H539 C533 0.930 . S
Mn540 O545 2.095 . S
Mn540 O555 2.162 . S
Mn540 O556 2.297 . S
Mn540 O564 2.385 . S
Mn540 O565 2.209 . S
Mn540 O566 2.094 . S
Mn541 O546 2.121 . S
Mn541 N548 2.257 . S
Mn541 N557 2.282 . S
Mn541 O565 2.215 . S
Mn541 O567 2.117 . S
C542 O564 1.234 . S
C542 O565 1.283 . S
C543 O555 1.281 . S
C543 O556 1.236 . S
C544 O566 1.240 . S
C544 O567 1.264 . S
O545 Mn540 2.095 . S
O545 C554 1.250 . S
O546 Mn541 2.121 . S
O546 C554 1.258 . S
C547 N548 1.326 . S
C547 C551 1.460 . S
C547 H553 0.929 . S
N548 Mn541 2.257 . S
N548 C547 1.326 . S
N548 C552 1.362 . S
C549 C550 1.258 . S
C549 C552 1.431 . S
C549 C569 1.449 . S
C550 C549 1.258 . S
C550 C551 1.477 . S
C550 H570 0.931 . S
C551 C547 1.460 . S
C551 C550 1.477 . S
C551 H571 0.930 . S
C552 N548 1.362 . S
C552 C549 1.431 . S
C552 C562 1.476 . S
H553 C547 0.929 . S
C554 O545 1.250 . S
C554 O546 1.258 . S
O555 Mn540 2.162 . S
O555 C543 1.281 . S
O556 Mn540 2.297 . S
O556 C543 1.236 . S
N557 Mn541 2.282 . S
N557 C558 1.328 . S
N557 C562 1.318 . S
C558 N557 1.328 . S
C558 C559 1.457 . S
C558 H563 0.929 . S
C559 C558 1.457 . S
C559 C560 1.291 . S
C559 H572 0.931 . S
C560 C559 1.291 . S
C560 C561 1.373 . S
C560 H573 0.929 . S
C561 C560 1.373 . S
C561 C562 1.396 . S
C561 C568 1.403 . S
C562 C552 1.476 . S
C562 N557 1.318 . S
C562 C561 1.396 . S
H563 C558 0.929 . S
O564 Mn540 2.385 . S
O564 C542 1.234 . S
O565 Mn540 2.209 . S
O565 Mn541 2.215 . S
O565 C542 1.283 . S
O566 Mn540 2.094 . S
O566 C544 1.240 . S
O567 Mn541 2.117 . S
O567 C544 1.264 . S
C568 C561 1.403 . S
C568 C569 1.399 . S
C568 H574 0.929 . S
C569 C549 1.449 . S
C569 C568 1.399 . S
C569 H575 0.930 . S
H570 C550 0.931 . S
H571 C551 0.930 . S
H572 C559 0.931 . S
H573 C560 0.929 . S
H574 C568 0.929 . S
H575 C569 0.930 . S
Mn576 O581 2.095 . S
Mn576 O591 2.162 . S
Mn576 O592 2.297 . S
Mn576 O600 2.385 . S
Mn576 O601 2.209 . S
Mn576 O602 2.094 . S
Mn577 O582 2.121 . S
Mn577 N584 2.257 . S
Mn577 N593 2.282 . S
Mn577 O601 2.215 . S
Mn577 O603 2.117 . S
C578 O600 1.234 . S
C578 O601 1.283 . S
C579 O591 1.281 . S
C579 O592 1.236 . S
C580 O602 1.240 . S
C580 O603 1.264 . S
O581 Mn576 2.095 . S
O581 C590 1.250 . S
O582 Mn577 2.121 . S
O582 C590 1.258 . S
C583 N584 1.326 . S
C583 C587 1.460 . S
C583 H589 0.929 . S
N584 Mn577 2.257 . S
N584 C583 1.326 . S
N584 C588 1.362 . S
C585 C586 1.258 . S
C585 C588 1.431 . S
C585 C605 1.449 . S
C586 C585 1.258 . S
C586 C587 1.477 . S
C586 H606 0.931 . S
C587 C583 1.460 . S
C587 C586 1.477 . S
C587 H607 0.930 . S
C588 N584 1.362 . S
C588 C585 1.431 . S
C588 C598 1.476 . S
H589 C583 0.929 . S
C590 O581 1.250 . S
C590 O582 1.258 . S
O591 Mn576 2.162 . S
O591 C579 1.281 . S
O592 Mn576 2.297 . S
O592 C579 1.236 . S
N593 Mn577 2.282 . S
N593 C594 1.328 . S
N593 C598 1.318 . S
C594 N593 1.328 . S
C594 C595 1.457 . S
C594 H599 0.929 . S
C595 C594 1.457 . S
C595 C596 1.291 . S
C595 H608 0.931 . S
C596 C595 1.291 . S
C596 C597 1.373 . S
C596 H609 0.929 . S
C597 C596 1.373 . S
C597 C598 1.396 . S
C597 C604 1.403 . S
C598 C588 1.476 . S
C598 N593 1.318 . S
C598 C597 1.396 . S
H599 C594 0.929 . S
O600 Mn576 2.385 . S
O600 C578 1.234 . S
O601 Mn576 2.209 . S
O601 Mn577 2.215 . S
O601 C578 1.283 . S
O602 Mn576 2.094 . S
O602 C580 1.240 . S
O603 Mn577 2.117 . S
O603 C580 1.264 . S
C604 C597 1.403 . S
C604 C605 1.399 . S
C604 H610 0.929 . S
C605 C585 1.449 . S
C605 C604 1.399 . S
C605 H611 0.930 . S
H606 C586 0.931 . S
H607 C587 0.930 . S
H608 C595 0.931 . S
H609 C596 0.929 . S
H610 C604 0.929 . S
H611 C605 0.930 . S
Mn612 O617 2.095 . S
Mn612 O627 2.162 . S
Mn612 O628 2.297 . S
Mn612 O636 2.385 . S
Mn612 O637 2.209 . S
Mn612 O638 2.094 . S
Mn613 O618 2.121 . S
Mn613 N620 2.257 . S
Mn613 N629 2.282 . S
Mn613 O637 2.215 . S
Mn613 O639 2.117 . S
C614 O636 1.234 . S
C614 O637 1.283 . S
C615 O627 1.281 . S
C615 O628 1.236 . S
C616 O638 1.240 . S
C616 O639 1.264 . S
O617 Mn612 2.095 . S
O617 C626 1.250 . S
O618 Mn613 2.121 . S
O618 C626 1.258 . S
C619 N620 1.326 . S
C619 C623 1.460 . S
C619 H625 0.929 . S
N620 Mn613 2.257 . S
N620 C619 1.326 . S
N620 C624 1.362 . S
C621 C622 1.258 . S
C621 C624 1.431 . S
C621 C641 1.449 . S
C622 C621 1.258 . S
C622 C623 1.477 . S
C622 H642 0.931 . S
C623 C619 1.460 . S
C623 C622 1.477 . S
C623 H643 0.930 . S
C624 N620 1.362 . S
C624 C621 1.431 . S
C624 C634 1.476 . S
H625 C619 0.929 . S
C626 O617 1.250 . S
C626 O618 1.258 . S
O627 Mn612 2.162 . S
O627 C615 1.281 . S
O628 Mn612 2.297 . S
O628 C615 1.236 . S
N629 Mn613 2.282 . S
N629 C630 1.328 . S
N629 C634 1.318 . S
C630 N629 1.328 . S
C630 C631 1.457 . S
C630 H635 0.929 . S
C631 C630 1.457 . S
C631 C632 1.291 . S
C631 H644 0.931 . S
C632 C631 1.291 . S
C632 C633 1.373 . S
C632 H645 0.929 . S
C633 C632 1.373 . S
C633 C634 1.396 . S
C633 C640 1.403 . S
C634 C624 1.476 . S
C634 N629 1.318 . S
C634 C633 1.396 . S
H635 C630 0.929 . S
O636 Mn612 2.385 . S
O636 C614 1.234 . S
O637 Mn612 2.209 . S
O637 Mn613 2.215 . S
O637 C614 1.283 . S
O638 Mn612 2.094 . S
O638 C616 1.240 . S
O639 Mn613 2.117 . S
O639 C616 1.264 . S
C640 C633 1.403 . S
C640 C641 1.399 . S
C640 H646 0.929 . S
C641 C621 1.449 . S
C641 C640 1.399 . S
C641 H647 0.930 . S
H642 C622 0.931 . S
H643 C623 0.930 . S
H644 C631 0.931 . S
H645 C632 0.929 . S
H646 C640 0.929 . S
H647 C641 0.930 . S
Mn648 O653 2.095 . S
Mn648 O663 2.162 . S
Mn648 O664 2.297 . S
Mn648 O672 2.385 . S
Mn648 O673 2.209 . S
Mn648 O674 2.094 . S
Mn649 O654 2.121 . S
Mn649 N656 2.257 . S
Mn649 N665 2.282 . S
Mn649 O673 2.215 . S
Mn649 O675 2.117 . S
C650 O672 1.234 . S
C650 O673 1.283 . S
C651 O663 1.281 . S
C651 O664 1.236 . S
C652 O674 1.240 . S
C652 O675 1.264 . S
O653 Mn648 2.095 . S
O653 C662 1.250 . S
O654 Mn649 2.121 . S
O654 C662 1.258 . S
C655 N656 1.326 . S
C655 C659 1.460 . S
C655 H661 0.929 . S
N656 Mn649 2.257 . S
N656 C655 1.326 . S
N656 C660 1.362 . S
C657 C658 1.258 . S
C657 C660 1.431 . S
C657 C677 1.449 . S
C658 C657 1.258 . S
C658 C659 1.477 . S
C658 H678 0.931 . S
C659 C655 1.460 . S
C659 C658 1.477 . S
C659 H679 0.930 . S
C660 N656 1.362 . S
C660 C657 1.431 . S
C660 C670 1.476 . S
H661 C655 0.929 . S
C662 O653 1.250 . S
C662 O654 1.258 . S
O663 Mn648 2.162 . S
O663 C651 1.281 . S
O664 Mn648 2.297 . S
O664 C651 1.236 . S
N665 Mn649 2.282 . S
N665 C666 1.328 . S
N665 C670 1.318 . S
C666 N665 1.328 . S
C666 C667 1.457 . S
C666 H671 0.929 . S
C667 C666 1.457 . S
C667 C668 1.291 . S
C667 H680 0.931 . S
C668 C667 1.291 . S
C668 C669 1.373 . S
C668 H681 0.929 . S
C669 C668 1.373 . S
C669 C670 1.396 . S
C669 C676 1.403 . S
C670 C660 1.476 . S
C670 N665 1.318 . S
C670 C669 1.396 . S
H671 C666 0.929 . S
O672 Mn648 2.385 . S
O672 C650 1.234 . S
O673 Mn648 2.209 . S
O673 Mn649 2.215 . S
O673 C650 1.283 . S
O674 Mn648 2.094 . S
O674 C652 1.240 . S
O675 Mn649 2.117 . S
O675 C652 1.264 . S
C676 C669 1.403 . S
C676 C677 1.399 . S
C676 H682 0.929 . S
C677 C657 1.449 . S
C677 C676 1.399 . S
C677 H683 0.930 . S
H678 C658 0.931 . S
H679 C659 0.930 . S
H680 C667 0.931 . S
H681 C668 0.929 . S
H682 C676 0.929 . S
H683 C677 0.930 . S
Mn684 O689 2.095 . S
Mn684 O699 2.162 . S
Mn684 O700 2.297 . S
Mn684 O708 2.385 . S
Mn684 O709 2.209 . S
Mn684 O710 2.094 . S
Mn685 O690 2.121 . S
Mn685 N692 2.257 . S
Mn685 N701 2.282 . S
Mn685 O709 2.215 . S
Mn685 O711 2.117 . S
C686 O708 1.234 . S
C686 O709 1.283 . S
C687 O699 1.281 . S
C687 O700 1.236 . S
C688 O710 1.240 . S
C688 O711 1.264 . S
O689 Mn684 2.095 . S
O689 C698 1.250 . S
O690 Mn685 2.121 . S
O690 C698 1.258 . S
C691 N692 1.326 . S
C691 C695 1.460 . S
C691 H697 0.929 . S
N692 Mn685 2.257 . S
N692 C691 1.326 . S
N692 C696 1.362 . S
C693 C694 1.258 . S
C693 C696 1.431 . S
C693 C713 1.449 . S
C694 C693 1.258 . S
C694 C695 1.477 . S
C694 H714 0.931 . S
C695 C691 1.460 . S
C695 C694 1.477 . S
C695 H715 0.930 . S
C696 N692 1.362 . S
C696 C693 1.431 . S
C696 C706 1.476 . S
H697 C691 0.929 . S
C698 O689 1.250 . S
C698 O690 1.258 . S
O699 Mn684 2.162 . S
O699 C687 1.281 . S
O700 Mn684 2.297 . S
O700 C687 1.236 . S
N701 Mn685 2.282 . S
N701 C702 1.328 . S
N701 C706 1.318 . S
C702 N701 1.328 . S
C702 C703 1.457 . S
C702 H707 0.929 . S
C703 C702 1.457 . S
C703 C704 1.291 . S
C703 H716 0.931 . S
C704 C703 1.291 . S
C704 C705 1.373 . S
C704 H717 0.929 . S
C705 C704 1.373 . S
C705 C706 1.396 . S
C705 C712 1.403 . S
C706 C696 1.476 . S
C706 N701 1.318 . S
C706 C705 1.396 . S
H707 C702 0.929 . S
O708 Mn684 2.385 . S
O708 C686 1.234 . S
O709 Mn684 2.209 . S
O709 Mn685 2.215 . S
O709 C686 1.283 . S
O710 Mn684 2.094 . S
O710 C688 1.240 . S
O711 Mn685 2.117 . S
O711 C688 1.264 . S
C712 C705 1.403 . S
C712 C713 1.399 . S
C712 H718 0.929 . S
C713 C693 1.449 . S
C713 C712 1.399 . S
C713 H719 0.930 . S
H714 C694 0.931 . S
H715 C695 0.930 . S
H716 C703 0.931 . S
H717 C704 0.929 . S
H718 C712 0.929 . S
H719 C713 0.930 . S
Mn720 O725 2.095 . S
Mn720 O735 2.162 . S
Mn720 O736 2.297 . S
Mn720 O744 2.385 . S
Mn720 O745 2.209 . S
Mn720 O746 2.094 . S
Mn721 O726 2.121 . S
Mn721 N728 2.257 . S
Mn721 N737 2.282 . S
Mn721 O745 2.215 . S
Mn721 O747 2.117 . S
C722 O744 1.234 . S
C722 O745 1.283 . S
C723 O735 1.281 . S
C723 O736 1.236 . S
C724 O746 1.240 . S
C724 O747 1.264 . S
O725 Mn720 2.095 . S
O725 C734 1.250 . S
O726 Mn721 2.121 . S
O726 C734 1.258 . S
C727 N728 1.326 . S
C727 C731 1.460 . S
C727 H733 0.929 . S
N728 Mn721 2.257 . S
N728 C727 1.326 . S
N728 C732 1.362 . S
C729 C730 1.258 . S
C729 C732 1.431 . S
C729 C749 1.449 . S
C730 C729 1.258 . S
C730 C731 1.477 . S
C730 H750 0.931 . S
C731 C727 1.460 . S
C731 C730 1.477 . S
C731 H751 0.930 . S
C732 N728 1.362 . S
C732 C729 1.431 . S
C732 C742 1.476 . S
H733 C727 0.929 . S
C734 O725 1.250 . S
C734 O726 1.258 . S
O735 Mn720 2.162 . S
O735 C723 1.281 . S
O736 Mn720 2.297 . S
O736 C723 1.236 . S
N737 Mn721 2.282 . S
N737 C738 1.328 . S
N737 C742 1.318 . S
C738 N737 1.328 . S
C738 C739 1.457 . S
C738 H743 0.929 . S
C739 C738 1.457 . S
C739 C740 1.291 . S
C739 H752 0.931 . S
C740 C739 1.291 . S
C740 C741 1.373 . S
C740 H753 0.929 . S
C741 C740 1.373 . S
C741 C742 1.396 . S
C741 C748 1.403 . S
C742 C732 1.476 . S
C742 N737 1.318 . S
C742 C741 1.396 . S
H743 C738 0.929 . S
O744 Mn720 2.385 . S
O744 C722 1.234 . S
O745 Mn720 2.209 . S
O745 Mn721 2.215 . S
O745 C722 1.283 . S
O746 Mn720 2.094 . S
O746 C724 1.240 . S
O747 Mn721 2.117 . S
O747 C724 1.264 . S
C748 C741 1.403 . S
C748 C749 1.399 . S
C748 H754 0.929 . S
C749 C729 1.449 . S
C749 C748 1.399 . S
C749 H755 0.930 . S
H750 C730 0.931 . S
H751 C731 0.930 . S
H752 C739 0.931 . S
H753 C740 0.929 . S
H754 C748 0.929 . S
H755 C749 0.930 . S
Mn756 O761 2.095 . S
Mn756 O771 2.162 . S
Mn756 O772 2.297 . S
Mn756 O780 2.385 . S
Mn756 O781 2.209 . S
Mn756 O782 2.094 . S
Mn757 O762 2.121 . S
Mn757 N764 2.257 . S
Mn757 N773 2.282 . S
Mn757 O781 2.215 . S
Mn757 O783 2.117 . S
C758 O780 1.234 . S
C758 O781 1.283 . S
C759 O771 1.281 . S
C759 O772 1.236 . S
C760 O782 1.240 . S
C760 O783 1.264 . S
O761 Mn756 2.095 . S
O761 C770 1.250 . S
O762 Mn757 2.121 . S
O762 C770 1.258 . S
C763 N764 1.326 . S
C763 C767 1.460 . S
C763 H769 0.929 . S
N764 Mn757 2.257 . S
N764 C763 1.326 . S
N764 C768 1.362 . S
C765 C766 1.258 . S
C765 C768 1.431 . S
C765 C785 1.449 . S
C766 C765 1.258 . S
C766 C767 1.477 . S
C766 H786 0.931 . S
C767 C763 1.460 . S
C767 C766 1.477 . S
C767 H787 0.930 . S
C768 N764 1.362 . S
C768 C765 1.431 . S
C768 C778 1.476 . S
H769 C763 0.929 . S
C770 O761 1.250 . S
C770 O762 1.258 . S
O771 Mn756 2.162 . S
O771 C759 1.281 . S
O772 Mn756 2.297 . S
O772 C759 1.236 . S
N773 Mn757 2.282 . S
N773 C774 1.328 . S
N773 C778 1.318 . S
C774 N773 1.328 . S
C774 C775 1.457 . S
C774 H779 0.929 . S
C775 C774 1.457 . S
C775 C776 1.291 . S
C775 H788 0.931 . S
C776 C775 1.291 . S
C776 C777 1.373 . S
C776 H789 0.929 . S
C777 C776 1.373 . S
C777 C778 1.396 . S
C777 C784 1.403 . S
C778 C768 1.476 . S
C778 N773 1.318 . S
C778 C777 1.396 . S
H779 C774 0.929 . S
O780 Mn756 2.385 . S
O780 C758 1.234 . S
O781 Mn756 2.209 . S
O781 Mn757 2.215 . S
O781 C758 1.283 . S
O782 Mn756 2.094 . S
O782 C760 1.240 . S
O783 Mn757 2.117 . S
O783 C760 1.264 . S
C784 C777 1.403 . S
C784 C785 1.399 . S
C784 H790 0.929 . S
C785 C765 1.449 . S
C785 C784 1.399 . S
C785 H791 0.930 . S
H786 C766 0.931 . S
H787 C767 0.930 . S
H788 C775 0.931 . S
H789 C776 0.929 . S
H790 C784 0.929 . S
H791 C785 0.930 . S
Mn792 O797 2.095 . S
Mn792 O807 2.162 . S
Mn792 O808 2.297 . S
Mn792 O816 2.385 . S
Mn792 O817 2.209 . S
Mn792 O818 2.094 . S
Mn793 O798 2.121 . S
Mn793 N800 2.257 . S
Mn793 N809 2.282 . S
Mn793 O817 2.215 . S
Mn793 O819 2.117 . S
C794 O816 1.234 . S
C794 O817 1.283 . S
C795 O807 1.281 . S
C795 O808 1.236 . S
C796 O818 1.240 . S
C796 O819 1.264 . S
O797 Mn792 2.095 . S
O797 C806 1.250 . S
O798 Mn793 2.121 . S
O798 C806 1.258 . S
C799 N800 1.326 . S
C799 C803 1.460 . S
C799 H805 0.929 . S
N800 Mn793 2.257 . S
N800 C799 1.326 . S
N800 C804 1.362 . S
C801 C802 1.258 . S
C801 C804 1.431 . S
C801 C821 1.449 . S
C802 C801 1.258 . S
C802 C803 1.477 . S
C802 H822 0.931 . S
C803 C799 1.460 . S
C803 C802 1.477 . S
C803 H823 0.930 . S
C804 N800 1.362 . S
C804 C801 1.431 . S
C804 C814 1.476 . S
H805 C799 0.929 . S
C806 O797 1.250 . S
C806 O798 1.258 . S
O807 Mn792 2.162 . S
O807 C795 1.281 . S
O808 Mn792 2.297 . S
O808 C795 1.236 . S
N809 Mn793 2.282 . S
N809 C810 1.328 . S
N809 C814 1.318 . S
C810 N809 1.328 . S
C810 C811 1.457 . S
C810 H815 0.929 . S
C811 C810 1.457 . S
C811 C812 1.291 . S
C811 H824 0.931 . S
C812 C811 1.291 . S
C812 C813 1.373 . S
C812 H825 0.929 . S
C813 C812 1.373 . S
C813 C814 1.396 . S
C813 C820 1.403 . S
C814 C804 1.476 . S
C814 N809 1.318 . S
C814 C813 1.396 . S
H815 C810 0.929 . S
O816 Mn792 2.385 . S
O816 C794 1.234 . S
O817 Mn792 2.209 . S
O817 Mn793 2.215 . S
O817 C794 1.283 . S
O818 Mn792 2.094 . S
O818 C796 1.240 . S
O819 Mn793 2.117 . S
O819 C796 1.264 . S
C820 C813 1.403 . S
C820 C821 1.399 . S
C820 H826 0.929 . S
C821 C801 1.449 . S
C821 C820 1.399 . S
C821 H827 0.930 . S
H822 C802 0.931 . S
H823 C803 0.930 . S
H824 C811 0.931 . S
H825 C812 0.929 . S
H826 C820 0.929 . S
H827 C821 0.930 . S
Mn828 O833 2.095 . S
Mn828 O843 2.162 . S
Mn828 O844 2.297 . S
Mn828 O852 2.385 . S
Mn828 O853 2.209 . S
Mn828 O854 2.094 . S
Mn829 O834 2.121 . S
Mn829 N836 2.257 . S
Mn829 N845 2.282 . S
Mn829 O853 2.215 . S
Mn829 O855 2.117 . S
C830 O852 1.234 . S
C830 O853 1.283 . S
C831 O843 1.281 . S
C831 O844 1.236 . S
C832 O854 1.240 . S
C832 O855 1.264 . S
O833 Mn828 2.095 . S
O833 C842 1.250 . S
O834 Mn829 2.121 . S
O834 C842 1.258 . S
C835 N836 1.326 . S
C835 C839 1.460 . S
C835 H841 0.929 . S
N836 Mn829 2.257 . S
N836 C835 1.326 . S
N836 C840 1.362 . S
C837 C838 1.258 . S
C837 C840 1.431 . S
C837 C857 1.449 . S
C838 C837 1.258 . S
C838 C839 1.477 . S
C838 H858 0.931 . S
C839 C835 1.460 . S
C839 C838 1.477 . S
C839 H859 0.930 . S
C840 N836 1.362 . S
C840 C837 1.431 . S
C840 C850 1.476 . S
H841 C835 0.929 . S
C842 O833 1.250 . S
C842 O834 1.258 . S
O843 Mn828 2.162 . S
O843 C831 1.281 . S
O844 Mn828 2.297 . S
O844 C831 1.236 . S
N845 Mn829 2.282 . S
N845 C846 1.328 . S
N845 C850 1.318 . S
C846 N845 1.328 . S
C846 C847 1.457 . S
C846 H851 0.929 . S
C847 C846 1.457 . S
C847 C848 1.291 . S
C847 H860 0.931 . S
C848 C847 1.291 . S
C848 C849 1.373 . S
C848 H861 0.929 . S
C849 C848 1.373 . S
C849 C850 1.396 . S
C849 C856 1.403 . S
C850 C840 1.476 . S
C850 N845 1.318 . S
C850 C849 1.396 . S
H851 C846 0.929 . S
O852 Mn828 2.385 . S
O852 C830 1.234 . S
O853 Mn828 2.209 . S
O853 Mn829 2.215 . S
O853 C830 1.283 . S
O854 Mn828 2.094 . S
O854 C832 1.240 . S
O855 Mn829 2.117 . S
O855 C832 1.264 . S
C856 C849 1.403 . S
C856 C857 1.399 . S
C856 H862 0.929 . S
C857 C837 1.449 . S
C857 C856 1.399 . S
C857 H863 0.930 . S
H858 C838 0.931 . S
H859 C839 0.930 . S
H860 C847 0.931 . S
H861 C848 0.929 . S
H862 C856 0.929 . S
H863 C857 0.930 . S
Mn864 O869 2.095 . S
Mn864 O879 2.162 . S
Mn864 O880 2.297 . S
Mn864 O888 2.385 . S
Mn864 O889 2.209 . S
Mn864 O890 2.094 . S
Mn865 O870 2.121 . S
Mn865 N872 2.257 . S
Mn865 N881 2.282 . S
Mn865 O889 2.215 . S
Mn865 O891 2.117 . S
C866 O888 1.234 . S
C866 O889 1.283 . S
C867 O879 1.281 . S
C867 O880 1.236 . S
C868 O890 1.240 . S
C868 O891 1.264 . S
O869 Mn864 2.095 . S
O869 C878 1.250 . S
O870 Mn865 2.121 . S
O870 C878 1.258 . S
C871 N872 1.326 . S
C871 C875 1.460 . S
C871 H877 0.929 . S
N872 Mn865 2.257 . S
N872 C871 1.326 . S
N872 C876 1.362 . S
C873 C874 1.258 . S
C873 C876 1.431 . S
C873 C893 1.449 . S
C874 C873 1.258 . S
C874 C875 1.477 . S
C874 H894 0.931 . S
C875 C871 1.460 . S
C875 C874 1.477 . S
C875 H895 0.930 . S
C876 N872 1.362 . S
C876 C873 1.431 . S
C876 C886 1.476 . S
H877 C871 0.929 . S
C878 O869 1.250 . S
C878 O870 1.258 . S
O879 Mn864 2.162 . S
O879 C867 1.281 . S
O880 Mn864 2.297 . S
O880 C867 1.236 . S
N881 Mn865 2.282 . S
N881 C882 1.328 . S
N881 C886 1.318 . S
C882 N881 1.328 . S
C882 C883 1.457 . S
C882 H887 0.929 . S
C883 C882 1.457 . S
C883 C884 1.291 . S
C883 H896 0.931 . S
C884 C883 1.291 . S
C884 C885 1.373 . S
C884 H897 0.929 . S
C885 C884 1.373 . S
C885 C886 1.396 . S
C885 C892 1.403 . S
C886 C876 1.476 . S
C886 N881 1.318 . S
C886 C885 1.396 . S
H887 C882 0.929 . S
O888 Mn864 2.385 . S
O888 C866 1.234 . S
O889 Mn864 2.209 . S
O889 Mn865 2.215 . S
O889 C866 1.283 . S
O890 Mn864 2.094 . S
O890 C868 1.240 . S
O891 Mn865 2.117 . S
O891 C868 1.264 . S
C892 C885 1.403 . S
C892 C893 1.399 . S
C892 H898 0.929 . S
C893 C873 1.449 . S
C893 C892 1.399 . S
C893 H899 0.930 . S
H894 C874 0.931 . S
H895 C875 0.930 . S
H896 C883 0.931 . S
H897 C884 0.929 . S
H898 C892 0.929 . S
H899 C893 0.930 . S
Mn900 O905 2.095 . S
Mn900 O915 2.162 . S
Mn900 O916 2.297 . S
Mn900 O924 2.385 . S
Mn900 O925 2.209 . S
Mn900 O926 2.094 . S
Mn901 O906 2.121 . S
Mn901 N908 2.257 . S
Mn901 N917 2.282 . S
Mn901 O925 2.215 . S
Mn901 O927 2.117 . S
C902 O924 1.234 . S
C902 O925 1.283 . S
C903 O915 1.281 . S
C903 O916 1.236 . S
C904 O926 1.240 . S
C904 O927 1.264 . S
O905 Mn900 2.095 . S
O905 C914 1.250 . S
O906 Mn901 2.121 . S
O906 C914 1.258 . S
C907 N908 1.326 . S
C907 C911 1.460 . S
C907 H913 0.929 . S
N908 Mn901 2.257 . S
N908 C907 1.326 . S
N908 C912 1.362 . S
C909 C910 1.258 . S
C909 C912 1.431 . S
C909 C929 1.449 . S
C910 C909 1.258 . S
C910 C911 1.477 . S
C910 H930 0.931 . S
C911 C907 1.460 . S
C911 C910 1.477 . S
C911 H931 0.930 . S
C912 N908 1.362 . S
C912 C909 1.431 . S
C912 C922 1.476 . S
H913 C907 0.929 . S
C914 O905 1.250 . S
C914 O906 1.258 . S
O915 Mn900 2.162 . S
O915 C903 1.281 . S
O916 Mn900 2.297 . S
O916 C903 1.236 . S
N917 Mn901 2.282 . S
N917 C918 1.328 . S
N917 C922 1.318 . S
C918 N917 1.328 . S
C918 C919 1.457 . S
C918 H923 0.929 . S
C919 C918 1.457 . S
C919 C920 1.291 . S
C919 H932 0.931 . S
C920 C919 1.291 . S
C920 C921 1.373 . S
C920 H933 0.929 . S
C921 C920 1.373 . S
C921 C922 1.396 . S
C921 C928 1.403 . S
C922 C912 1.476 . S
C922 N917 1.318 . S
C922 C921 1.396 . S
H923 C918 0.929 . S
O924 Mn900 2.385 . S
O924 C902 1.234 . S
O925 Mn900 2.209 . S
O925 Mn901 2.215 . S
O925 C902 1.283 . S
O926 Mn900 2.094 . S
O926 C904 1.240 . S
O927 Mn901 2.117 . S
O927 C904 1.264 . S
C928 C921 1.403 . S
C928 C929 1.399 . S
C928 H934 0.929 . S
C929 C909 1.449 . S
C929 C928 1.399 . S
C929 H935 0.930 . S
H930 C910 0.931 . S
H931 C911 0.930 . S
H932 C919 0.931 . S
H933 C920 0.929 . S
H934 C928 0.929 . S
H935 C929 0.930 . S
Mn936 O941 2.095 . S
Mn936 O951 2.162 . S
Mn936 O952 2.297 . S
Mn936 O960 2.385 . S
Mn936 O961 2.209 . S
Mn936 O962 2.094 . S
Mn937 O942 2.121 . S
Mn937 N944 2.257 . S
Mn937 N953 2.282 . S
Mn937 O961 2.215 . S
Mn937 O963 2.117 . S
C938 O960 1.234 . S
C938 O961 1.283 . S
C939 O951 1.281 . S
C939 O952 1.236 . S
C940 O962 1.240 . S
C940 O963 1.264 . S
O941 Mn936 2.095 . S
O941 C950 1.250 . S
O942 Mn937 2.121 . S
O942 C950 1.258 . S
C943 N944 1.326 . S
C943 C947 1.460 . S
C943 H949 0.929 . S
N944 Mn937 2.257 . S
N944 C943 1.326 . S
N944 C948 1.362 . S
C945 C946 1.258 . S
C945 C948 1.431 . S
C945 C965 1.449 . S
C946 C945 1.258 . S
C946 C947 1.477 . S
C946 H966 0.931 . S
C947 C943 1.460 . S
C947 C946 1.477 . S
C947 H967 0.930 . S
C948 N944 1.362 . S
C948 C945 1.431 . S
C948 C958 1.476 . S
H949 C943 0.929 . S
C950 O941 1.250 . S
C950 O942 1.258 . S
O951 Mn936 2.162 . S
O951 C939 1.281 . S
O952 Mn936 2.297 . S
O952 C939 1.236 . S
N953 Mn937 2.282 . S
N953 C954 1.328 . S
N953 C958 1.318 . S
C954 N953 1.328 . S
C954 C955 1.457 . S
C954 H959 0.929 . S
C955 C954 1.457 . S
C955 C956 1.291 . S
C955 H968 0.931 . S
C956 C955 1.291 . S
C956 C957 1.373 . S
C956 H969 0.929 . S
C957 C956 1.373 . S
C957 C958 1.396 . S
C957 C964 1.403 . S
C958 C948 1.476 . S
C958 N953 1.318 . S
C958 C957 1.396 . S
H959 C954 0.929 . S
O960 Mn936 2.385 . S
O960 C938 1.234 . S
O961 Mn936 2.209 . S
O961 Mn937 2.215 . S
O961 C938 1.283 . S
O962 Mn936 2.094 . S
O962 C940 1.240 . S
O963 Mn937 2.117 . S
O963 C940 1.264 . S
C964 C957 1.403 . S
C964 C965 1.399 . S
C964 H970 0.929 . S
C965 C945 1.449 . S
C965 C964 1.399 . S
C965 H971 0.930 . S
H966 C946 0.931 . S
H967 C947 0.930 . S
H968 C955 0.931 . S
H969 C956 0.929 . S
H970 C964 0.929 . S
H971 C965 0.930 . S
Mn972 O977 2.095 . S
Mn972 O987 2.162 . S
Mn972 O988 2.297 . S
Mn972 O996 2.385 . S
Mn972 O997 2.209 . S
Mn972 O998 2.094 . S
Mn973 O978 2.121 . S
Mn973 N980 2.257 . S
Mn973 N989 2.282 . S
Mn973 O997 2.215 . S
Mn973 O999 2.117 . S
C974 O996 1.234 . S
C974 O997 1.283 . S
C975 O987 1.281 . S
C975 O988 1.236 . S
C976 O998 1.240 . S
C976 O999 1.264 . S
O977 Mn972 2.095 . S
O977 C986 1.250 . S
O978 Mn973 2.121 . S
O978 C986 1.258 . S
C979 N980 1.326 . S
C979 C983 1.460 . S
C979 H985 0.929 . S
N980 Mn973 2.257 . S
N980 C979 1.326 . S
N980 C984 1.362 . S
C981 C982 1.258 . S
C981 C984 1.431 . S
C981 C1001 1.449 . S
C982 C981 1.258 . S
C982 C983 1.477 . S
C982 H1002 0.931 . S
C983 C979 1.460 . S
C983 C982 1.477 . S
C983 H1003 0.930 . S
C984 N980 1.362 . S
C984 C981 1.431 . S
C984 C994 1.476 . S
H985 C979 0.929 . S
C986 O977 1.250 . S
C986 O978 1.258 . S
O987 Mn972 2.162 . S
O987 C975 1.281 . S
O988 Mn972 2.297 . S
O988 C975 1.236 . S
N989 Mn973 2.282 . S
N989 C990 1.328 . S
N989 C994 1.318 . S
C990 N989 1.328 . S
C990 C991 1.457 . S
C990 H995 0.929 . S
C991 C990 1.457 . S
C991 C992 1.291 . S
C991 H1004 0.931 . S
C992 C991 1.291 . S
C992 C993 1.373 . S
C992 H1005 0.929 . S
C993 C992 1.373 . S
C993 C994 1.396 . S
C993 C1000 1.403 . S
C994 C984 1.476 . S
C994 N989 1.318 . S
C994 C993 1.396 . S
H995 C990 0.929 . S
O996 Mn972 2.385 . S
O996 C974 1.234 . S
O997 Mn972 2.209 . S
O997 Mn973 2.215 . S
O997 C974 1.283 . S
O998 Mn972 2.094 . S
O998 C976 1.240 . S
O999 Mn973 2.117 . S
O999 C976 1.264 . S
C1000 C993 1.403 . S
C1000 C1001 1.399 . S
C1000 H1006 0.929 . S
C1001 C981 1.449 . S
C1001 C1000 1.399 . S
C1001 H1007 0.930 . S
H1002 C982 0.931 . S
H1003 C983 0.930 . S
H1004 C991 0.931 . S
H1005 C992 0.929 . S
H1006 C1000 0.929 . S
H1007 C1001 0.930 . S
Mn1008 O1013 2.095 . S
Mn1008 O1023 2.162 . S
Mn1008 O1024 2.297 . S
Mn1008 O1032 2.385 . S
Mn1008 O1033 2.209 . S
Mn1008 O1034 2.094 . S
Mn1009 O1014 2.121 . S
Mn1009 N1016 2.257 . S
Mn1009 N1025 2.282 . S
Mn1009 O1033 2.215 . S
Mn1009 O1035 2.117 . S
C1010 O1032 1.234 . S
C1010 O1033 1.283 . S
C1011 O1023 1.281 . S
C1011 O1024 1.236 . S
C1012 O1034 1.240 . S
C1012 O1035 1.264 . S
O1013 Mn1008 2.095 . S
O1013 C1022 1.250 . S
O1014 Mn1009 2.121 . S
O1014 C1022 1.258 . S
C1015 N1016 1.326 . S
C1015 C1019 1.460 . S
C1015 H1021 0.929 . S
N1016 Mn1009 2.257 . S
N1016 C1015 1.326 . S
N1016 C1020 1.362 . S
C1017 C1018 1.258 . S
C1017 C1020 1.431 . S
C1017 C1037 1.449 . S
C1018 C1017 1.258 . S
C1018 C1019 1.477 . S
C1018 H1038 0.931 . S
C1019 C1015 1.460 . S
C1019 C1018 1.477 . S
C1019 H1039 0.930 . S
C1020 N1016 1.362 . S
C1020 C1017 1.431 . S
C1020 C1030 1.476 . S
H1021 C1015 0.929 . S
C1022 O1013 1.250 . S
C1022 O1014 1.258 . S
O1023 Mn1008 2.162 . S
O1023 C1011 1.281 . S
O1024 Mn1008 2.297 . S
O1024 C1011 1.236 . S
N1025 Mn1009 2.282 . S
N1025 C1026 1.328 . S
N1025 C1030 1.318 . S
C1026 N1025 1.328 . S
C1026 C1027 1.457 . S
C1026 H1031 0.929 . S
C1027 C1026 1.457 . S
C1027 C1028 1.291 . S
C1027 H1040 0.931 . S
C1028 C1027 1.291 . S
C1028 C1029 1.373 . S
C1028 H1041 0.929 . S
C1029 C1028 1.373 . S
C1029 C1030 1.396 . S
C1029 C1036 1.403 . S
C1030 C1020 1.476 . S
C1030 N1025 1.318 . S
C1030 C1029 1.396 . S
H1031 C1026 0.929 . S
O1032 Mn1008 2.385 . S
O1032 C1010 1.234 . S
O1033 Mn1008 2.209 . S
O1033 Mn1009 2.215 . S
O1033 C1010 1.283 . S
O1034 Mn1008 2.094 . S
O1034 C1012 1.240 . S
O1035 Mn1009 2.117 . S
O1035 C1012 1.264 . S
C1036 C1029 1.403 . S
C1036 C1037 1.399 . S
C1036 H1042 0.929 . S
C1037 C1017 1.449 . S
C1037 C1036 1.399 . S
C1037 H1043 0.930 . S
H1038 C1018 0.931 . S
H1039 C1019 0.930 . S
H1040 C1027 0.931 . S
H1041 C1028 0.929 . S
H1042 C1036 0.929 . S
H1043 C1037 0.930 . S
Mn1044 O1049 2.095 . S
Mn1044 O1059 2.162 . S
Mn1044 O1060 2.297 . S
Mn1044 O1068 2.385 . S
Mn1044 O1069 2.209 . S
Mn1044 O1070 2.094 . S
Mn1045 O1050 2.121 . S
Mn1045 N1052 2.257 . S
Mn1045 N1061 2.282 . S
Mn1045 O1069 2.215 . S
Mn1045 O1071 2.117 . S
C1046 O1068 1.234 . S
C1046 O1069 1.283 . S
C1047 O1059 1.281 . S
C1047 O1060 1.236 . S
C1048 O1070 1.240 . S
C1048 O1071 1.264 . S
O1049 Mn1044 2.095 . S
O1049 C1058 1.250 . S
O1050 Mn1045 2.121 . S
O1050 C1058 1.258 . S
C1051 N1052 1.326 . S
C1051 C1055 1.460 . S
C1051 H1057 0.929 . S
N1052 Mn1045 2.257 . S
N1052 C1051 1.326 . S
N1052 C1056 1.362 . S
C1053 C1054 1.258 . S
C1053 C1056 1.431 . S
C1053 C1073 1.449 . S
C1054 C1053 1.258 . S
C1054 C1055 1.477 . S
C1054 H1074 0.931 . S
C1055 C1051 1.460 . S
C1055 C1054 1.477 . S
C1055 H1075 0.930 . S
C1056 N1052 1.362 . S
C1056 C1053 1.431 . S
C1056 C1066 1.476 . S
H1057 C1051 0.929 . S
C1058 O1049 1.250 . S
C1058 O1050 1.258 . S
O1059 Mn1044 2.162 . S
O1059 C1047 1.281 . S
O1060 Mn1044 2.297 . S
O1060 C1047 1.236 . S
N1061 Mn1045 2.282 . S
N1061 C1062 1.328 . S
N1061 C1066 1.318 . S
C1062 N1061 1.328 . S
C1062 C1063 1.457 . S
C1062 H1067 0.929 . S
C1063 C1062 1.457 . S
C1063 C1064 1.291 . S
C1063 H1076 0.931 . S
C1064 C1063 1.291 . S
C1064 C1065 1.373 . S
C1064 H1077 0.929 . S
C1065 C1064 1.373 . S
C1065 C1066 1.396 . S
C1065 C1072 1.403 . S
C1066 C1056 1.476 . S
C1066 N1061 1.318 . S
C1066 C1065 1.396 . S
H1067 C1062 0.929 . S
O1068 Mn1044 2.385 . S
O1068 C1046 1.234 . S
O1069 Mn1044 2.209 . S
O1069 Mn1045 2.215 . S
O1069 C1046 1.283 . S
O1070 Mn1044 2.094 . S
O1070 C1048 1.240 . S
O1071 Mn1045 2.117 . S
O1071 C1048 1.264 . S
C1072 C1065 1.403 . S
C1072 C1073 1.399 . S
C1072 H1078 0.929 . S
C1073 C1053 1.449 . S
C1073 C1072 1.399 . S
C1073 H1079 0.930 . S
H1074 C1054 0.931 . S
H1075 C1055 0.930 . S
H1076 C1063 0.931 . S
H1077 C1064 0.929 . S
H1078 C1072 0.929 . S
H1079 C1073 0.930 . S
Mn1080 O1085 2.095 . S
Mn1080 O1095 2.162 . S
Mn1080 O1096 2.297 . S
Mn1080 O1104 2.385 . S
Mn1080 O1105 2.209 . S
Mn1080 O1106 2.094 . S
Mn1081 O1086 2.121 . S
Mn1081 N1088 2.257 . S
Mn1081 N1097 2.282 . S
Mn1081 O1105 2.215 . S
Mn1081 O1107 2.117 . S
C1082 O1104 1.234 . S
C1082 O1105 1.283 . S
C1083 O1095 1.281 . S
C1083 O1096 1.236 . S
C1084 O1106 1.240 . S
C1084 O1107 1.264 . S
O1085 Mn1080 2.095 . S
O1085 C1094 1.250 . S
O1086 Mn1081 2.121 . S
O1086 C1094 1.258 . S
C1087 N1088 1.326 . S
C1087 C1091 1.460 . S
C1087 H1093 0.929 . S
N1088 Mn1081 2.257 . S
N1088 C1087 1.326 . S
N1088 C1092 1.362 . S
C1089 C1090 1.258 . S
C1089 C1092 1.431 . S
C1089 C1109 1.449 . S
C1090 C1089 1.258 . S
C1090 C1091 1.477 . S
C1090 H1110 0.931 . S
C1091 C1087 1.460 . S
C1091 C1090 1.477 . S
C1091 H1111 0.930 . S
C1092 N1088 1.362 . S
C1092 C1089 1.431 . S
C1092 C1102 1.476 . S
H1093 C1087 0.929 . S
C1094 O1085 1.250 . S
C1094 O1086 1.258 . S
O1095 Mn1080 2.162 . S
O1095 C1083 1.281 . S
O1096 Mn1080 2.297 . S
O1096 C1083 1.236 . S
N1097 Mn1081 2.282 . S
N1097 C1098 1.328 . S
N1097 C1102 1.318 . S
C1098 N1097 1.328 . S
C1098 C1099 1.457 . S
C1098 H1103 0.929 . S
C1099 C1098 1.457 . S
C1099 C1100 1.291 . S
C1099 H1112 0.931 . S
C1100 C1099 1.291 . S
C1100 C1101 1.373 . S
C1100 H1113 0.929 . S
C1101 C1100 1.373 . S
C1101 C1102 1.396 . S
C1101 C1108 1.403 . S
C1102 C1092 1.476 . S
C1102 N1097 1.318 . S
C1102 C1101 1.396 . S
H1103 C1098 0.929 . S
O1104 Mn1080 2.385 . S
O1104 C1082 1.234 . S
O1105 Mn1080 2.209 . S
O1105 Mn1081 2.215 . S
O1105 C1082 1.283 . S
O1106 Mn1080 2.094 . S
O1106 C1084 1.240 . S
O1107 Mn1081 2.117 . S
O1107 C1084 1.264 . S
C1108 C1101 1.403 . S
C1108 C1109 1.399 . S
C1108 H1114 0.929 . S
C1109 C1089 1.449 . S
C1109 C1108 1.399 . S
C1109 H1115 0.930 . S
H1110 C1090 0.931 . S
H1111 C1091 0.930 . S
H1112 C1099 0.931 . S
H1113 C1100 0.929 . S
H1114 C1108 0.929 . S
H1115 C1109 0.930 . S
Mn1116 O1121 2.095 . S
Mn1116 O1131 2.162 . S
Mn1116 O1132 2.297 . S
Mn1116 O1140 2.385 . S
Mn1116 O1141 2.209 . S
Mn1116 O1142 2.094 . S
Mn1117 O1122 2.121 . S
Mn1117 N1124 2.257 . S
Mn1117 N1133 2.282 . S
Mn1117 O1141 2.215 . S
Mn1117 O1143 2.117 . S
C1118 O1140 1.234 . S
C1118 O1141 1.283 . S
C1119 O1131 1.281 . S
C1119 O1132 1.236 . S
C1120 O1142 1.240 . S
C1120 O1143 1.264 . S
O1121 Mn1116 2.095 . S
O1121 C1130 1.250 . S
O1122 Mn1117 2.121 . S
O1122 C1130 1.258 . S
C1123 N1124 1.326 . S
C1123 C1127 1.460 . S
C1123 H1129 0.929 . S
N1124 Mn1117 2.257 . S
N1124 C1123 1.326 . S
N1124 C1128 1.362 . S
C1125 C1126 1.258 . S
C1125 C1128 1.431 . S
C1125 C1145 1.449 . S
C1126 C1125 1.258 . S
C1126 C1127 1.477 . S
C1126 H1146 0.931 . S
C1127 C1123 1.460 . S
C1127 C1126 1.477 . S
C1127 H1147 0.930 . S
C1128 N1124 1.362 . S
C1128 C1125 1.431 . S
C1128 C1138 1.476 . S
H1129 C1123 0.929 . S
C1130 O1121 1.250 . S
C1130 O1122 1.258 . S
O1131 Mn1116 2.162 . S
O1131 C1119 1.281 . S
O1132 Mn1116 2.297 . S
O1132 C1119 1.236 . S
N1133 Mn1117 2.282 . S
N1133 C1134 1.328 . S
N1133 C1138 1.318 . S
C1134 N1133 1.328 . S
C1134 C1135 1.457 . S
C1134 H1139 0.929 . S
C1135 C1134 1.457 . S
C1135 C1136 1.291 . S
C1135 H1148 0.931 . S
C1136 C1135 1.291 . S
C1136 C1137 1.373 . S
C1136 H1149 0.929 . S
C1137 C1136 1.373 . S
C1137 C1138 1.396 . S
C1137 C1144 1.403 . S
C1138 C1128 1.476 . S
C1138 N1133 1.318 . S
C1138 C1137 1.396 . S
H1139 C1134 0.929 . S
O1140 Mn1116 2.385 . S
O1140 C1118 1.234 . S
O1141 Mn1116 2.209 . S
O1141 Mn1117 2.215 . S
O1141 C1118 1.283 . S
O1142 Mn1116 2.094 . S
O1142 C1120 1.240 . S
O1143 Mn1117 2.117 . S
O1143 C1120 1.264 . S
C1144 C1137 1.403 . S
C1144 C1145 1.399 . S
C1144 H1150 0.929 . S
C1145 C1125 1.449 . S
C1145 C1144 1.399 . S
C1145 H1151 0.930 . S
H1146 C1126 0.931 . S
H1147 C1127 0.930 . S
H1148 C1135 0.931 . S
H1149 C1136 0.929 . S
H1150 C1144 0.929 . S
H1151 C1145 0.930 . S
H1152 C1160 0.950 . S
H1153 C1165 0.950 . S
H1154 C1162 0.950 . S
H1155 C1164 0.950 . S
H1156 C1166 0.950 . S
H1157 C1168 0.950 . S
H1158 C1170 0.950 . S
H1159 C1171 0.950 . S
C1160 H1152 0.950 . S
C1160 C1161 1.386 . S
C1160 C1162 1.391 . S
C1161 C1160 1.386 . S
C1161 C1165 1.393 . S
C1162 H1154 0.950 . S
C1162 C1160 1.391 . S
C1162 C1163 1.400 . S
C1163 C1162 1.400 . S
C1163 C1164 1.398 . S
C1163 C1169 1.491 . S
C1164 H1155 0.950 . S
C1164 C1163 1.398 . S
C1164 C1165 1.391 . S
C1165 H1153 0.950 . S
C1165 C1161 1.393 . S
C1165 C1164 1.391 . S
C1166 H1156 0.950 . S
C1166 C1167 1.386 . S
C1166 C1168 1.391 . S
C1167 C1166 1.386 . S
C1167 C1171 1.393 . S
C1168 H1157 0.950 . S
C1168 C1166 1.391 . S
C1168 C1169 1.400 . S
C1169 C1163 1.491 . S
C1169 C1168 1.400 . S
C1169 C1170 1.398 . S
C1170 H1158 0.950 . S
C1170 C1169 1.398 . S
C1170 C1171 1.391 . S
C1171 H1159 0.950 . S
C1171 C1167 1.393 . S
C1171 C1170 1.391 . S
H1172 C1180 0.950 . S
H1173 C1185 0.950 . S
H1174 C1182 0.950 . S
H1175 C1184 0.950 . S
H1176 C1186 0.950 . S
H1177 C1188 0.950 . S
H1178 C1190 0.950 . S
H1179 C1191 0.950 . S
C1180 H1172 0.950 . S
C1180 C1181 1.386 . S
C1180 C1182 1.391 . S
C1181 C1180 1.386 . S
C1181 C1185 1.393 . S
C1182 H1174 0.950 . S
C1182 C1180 1.391 . S
C1182 C1183 1.400 . S
C1183 C1182 1.400 . S
C1183 C1184 1.398 . S
C1183 C1189 1.491 . S
C1184 H1175 0.950 . S
C1184 C1183 1.398 . S
C1184 C1185 1.391 . S
C1185 H1173 0.950 . S
C1185 C1181 1.393 . S
C1185 C1184 1.391 . S
C1186 H1176 0.950 . S
C1186 C1187 1.386 . S
C1186 C1188 1.391 . S
C1187 C1186 1.386 . S
C1187 C1191 1.393 . S
C1188 H1177 0.950 . S
C1188 C1186 1.391 . S
C1188 C1189 1.400 . S
C1189 C1183 1.491 . S
C1189 C1188 1.400 . S
C1189 C1190 1.398 . S
C1190 H1178 0.950 . S
C1190 C1189 1.398 . S
C1190 C1191 1.391 . S
C1191 H1179 0.950 . S
C1191 C1187 1.393 . S
C1191 C1190 1.391 . S
H1192 C1200 0.950 . S
H1193 C1205 0.950 . S
H1194 C1202 0.950 . S
H1195 C1204 0.950 . S
H1196 C1206 0.950 . S
H1197 C1208 0.950 . S
H1198 C1210 0.950 . S
H1199 C1211 0.950 . S
C1200 H1192 0.950 . S
C1200 C1201 1.386 . S
C1200 C1202 1.391 . S
C1201 C1200 1.386 . S
C1201 C1205 1.393 . S
C1202 H1194 0.950 . S
C1202 C1200 1.391 . S
C1202 C1203 1.400 . S
C1203 C1202 1.400 . S
C1203 C1204 1.398 . S
C1203 C1209 1.491 . S
C1204 H1195 0.950 . S
C1204 C1203 1.398 . S
C1204 C1205 1.391 . S
C1205 H1193 0.950 . S
C1205 C1201 1.393 . S
C1205 C1204 1.391 . S
C1206 H1196 0.950 . S
C1206 C1207 1.386 . S
C1206 C1208 1.391 . S
C1207 C1206 1.386 . S
C1207 C1211 1.393 . S
C1208 H1197 0.950 . S
C1208 C1206 1.391 . S
C1208 C1209 1.400 . S
C1209 C1203 1.491 . S
C1209 C1208 1.400 . S
C1209 C1210 1.398 . S
C1210 H1198 0.950 . S
C1210 C1209 1.398 . S
C1210 C1211 1.391 . S
C1211 H1199 0.950 . S
C1211 C1207 1.393 . S
C1211 C1210 1.391 . S
H1212 C1220 0.950 . S
H1213 C1225 0.950 . S
H1214 C1222 0.950 . S
H1215 C1224 0.950 . S
H1216 C1226 0.950 . S
H1217 C1228 0.950 . S
H1218 C1230 0.950 . S
H1219 C1231 0.950 . S
C1220 H1212 0.950 . S
C1220 C1221 1.386 . S
C1220 C1222 1.391 . S
C1221 C1220 1.386 . S
C1221 C1225 1.393 . S
C1222 H1214 0.950 . S
C1222 C1220 1.391 . S
C1222 C1223 1.400 . S
C1223 C1222 1.400 . S
C1223 C1224 1.398 . S
C1223 C1229 1.491 . S
C1224 H1215 0.950 . S
C1224 C1223 1.398 . S
C1224 C1225 1.391 . S
C1225 H1213 0.950 . S
C1225 C1221 1.393 . S
C1225 C1224 1.391 . S
C1226 H1216 0.950 . S
C1226 C1227 1.386 . S
C1226 C1228 1.391 . S
C1227 C1226 1.386 . S
C1227 C1231 1.393 . S
C1228 H1217 0.950 . S
C1228 C1226 1.391 . S
C1228 C1229 1.400 . S
C1229 C1223 1.491 . S
C1229 C1228 1.400 . S
C1229 C1230 1.398 . S
C1230 H1218 0.950 . S
C1230 C1229 1.398 . S
C1230 C1231 1.391 . S
C1231 H1219 0.950 . S
C1231 C1227 1.393 . S
C1231 C1230 1.391 . S
H1232 C1240 0.950 . S
H1233 C1245 0.950 . S
H1234 C1242 0.950 . S
H1235 C1244 0.950 . S
H1236 C1246 0.950 . S
H1237 C1248 0.950 . S
H1238 C1250 0.950 . S
H1239 C1251 0.950 . S
C1240 H1232 0.950 . S
C1240 C1241 1.386 . S
C1240 C1242 1.391 . S
C1241 C1240 1.386 . S
C1241 C1245 1.393 . S
C1242 H1234 0.950 . S
C1242 C1240 1.391 . S
C1242 C1243 1.400 . S
C1243 C1242 1.400 . S
C1243 C1244 1.398 . S
C1243 C1249 1.491 . S
C1244 H1235 0.950 . S
C1244 C1243 1.398 . S
C1244 C1245 1.391 . S
C1245 H1233 0.950 . S
C1245 C1241 1.393 . S
C1245 C1244 1.391 . S
C1246 H1236 0.950 . S
C1246 C1247 1.386 . S
C1246 C1248 1.391 . S
C1247 C1246 1.386 . S
C1247 C1251 1.393 . S
C1248 H1237 0.950 . S
C1248 C1246 1.391 . S
C1248 C1249 1.400 . S
C1249 C1243 1.491 . S
C1249 C1248 1.400 . S
C1249 C1250 1.398 . S
C1250 H1238 0.950 . S
C1250 C1249 1.398 . S
C1250 C1251 1.391 . S
C1251 H1239 0.950 . S
C1251 C1247 1.393 . S
C1251 C1250 1.391 . S
H1252 C1260 0.950 . S
H1253 C1265 0.950 . S
H1254 C1262 0.950 . S
H1255 C1264 0.950 . S
H1256 C1266 0.950 . S
H1257 C1268 0.950 . S
H1258 C1270 0.950 . S
H1259 C1271 0.950 . S
C1260 H1252 0.950 . S
C1260 C1261 1.386 . S
C1260 C1262 1.391 . S
C1261 C1260 1.386 . S
C1261 C1265 1.393 . S
C1262 H1254 0.950 . S
C1262 C1260 1.391 . S
C1262 C1263 1.400 . S
C1263 C1262 1.400 . S
C1263 C1264 1.398 . S
C1263 C1269 1.491 . S
C1264 H1255 0.950 . S
C1264 C1263 1.398 . S
C1264 C1265 1.391 . S
C1265 H1253 0.950 . S
C1265 C1261 1.393 . S
C1265 C1264 1.391 . S
C1266 H1256 0.950 . S
C1266 C1267 1.386 . S
C1266 C1268 1.391 . S
C1267 C1266 1.386 . S
C1267 C1271 1.393 . S
C1268 H1257 0.950 . S
C1268 C1266 1.391 . S
C1268 C1269 1.400 . S
C1269 C1263 1.491 . S
C1269 C1268 1.400 . S
C1269 C1270 1.398 . S
C1270 H1258 0.950 . S
C1270 C1269 1.398 . S
C1270 C1271 1.391 . S
C1271 H1259 0.950 . S
C1271 C1267 1.393 . S
C1271 C1270 1.391 . S
H1272 C1280 0.950 . S
H1273 C1285 0.950 . S
H1274 C1282 0.950 . S
H1275 C1284 0.950 . S
H1276 C1286 0.950 . S
H1277 C1288 0.950 . S
H1278 C1290 0.950 . S
H1279 C1291 0.950 . S
C1280 H1272 0.950 . S
C1280 C1281 1.386 . S
C1280 C1282 1.391 . S
C1281 C1280 1.386 . S
C1281 C1285 1.393 . S
C1282 H1274 0.950 . S
C1282 C1280 1.391 . S
C1282 C1283 1.400 . S
C1283 C1282 1.400 . S
C1283 C1284 1.398 . S
C1283 C1289 1.491 . S
C1284 H1275 0.950 . S
C1284 C1283 1.398 . S
C1284 C1285 1.391 . S
C1285 H1273 0.950 . S
C1285 C1281 1.393 . S
C1285 C1284 1.391 . S
C1286 H1276 0.950 . S
C1286 C1287 1.386 . S
C1286 C1288 1.391 . S
C1287 C1286 1.386 . S
C1287 C1291 1.393 . S
C1288 H1277 0.950 . S
C1288 C1286 1.391 . S
C1288 C1289 1.400 . S
C1289 C1283 1.491 . S
C1289 C1288 1.400 . S
C1289 C1290 1.398 . S
C1290 H1278 0.950 . S
C1290 C1289 1.398 . S
C1290 C1291 1.391 . S
C1291 H1279 0.950 . S
C1291 C1287 1.393 . S
C1291 C1290 1.391 . S
H1292 C1300 0.950 . S
H1293 C1305 0.950 . S
H1294 C1302 0.950 . S
H1295 C1304 0.950 . S
H1296 C1306 0.950 . S
H1297 C1308 0.950 . S
H1298 C1310 0.950 . S
H1299 C1311 0.950 . S
C1300 H1292 0.950 . S
C1300 C1301 1.386 . S
C1300 C1302 1.391 . S
C1301 C1300 1.386 . S
C1301 C1305 1.393 . S
C1302 H1294 0.950 . S
C1302 C1300 1.391 . S
C1302 C1303 1.400 . S
C1303 C1302 1.400 . S
C1303 C1304 1.398 . S
C1303 C1309 1.491 . S
C1304 H1295 0.950 . S
C1304 C1303 1.398 . S
C1304 C1305 1.391 . S
C1305 H1293 0.950 . S
C1305 C1301 1.393 . S
C1305 C1304 1.391 . S
C1306 H1296 0.950 . S
C1306 C1307 1.386 . S
C1306 C1308 1.391 . S
C1307 C1306 1.386 . S
C1307 C1311 1.393 . S
C1308 H1297 0.950 . S
C1308 C1306 1.391 . S
C1308 C1309 1.400 . S
C1309 C1303 1.491 . S
C1309 C1308 1.400 . S
C1309 C1310 1.398 . S
C1310 H1298 0.950 . S
C1310 C1309 1.398 . S
C1310 C1311 1.391 . S
C1311 H1299 0.950 . S
C1311 C1307 1.393 . S
C1311 C1310 1.391 . S
H1312 C1320 0.950 . S
H1313 C1325 0.950 . S
H1314 C1322 0.950 . S
H1315 C1324 0.950 . S
H1316 C1326 0.950 . S
H1317 C1328 0.950 . S
H1318 C1330 0.950 . S
H1319 C1331 0.950 . S
C1320 H1312 0.950 . S
C1320 C1321 1.386 . S
C1320 C1322 1.391 . S
C1321 C1320 1.386 . S
C1321 C1325 1.393 . S
C1322 H1314 0.950 . S
C1322 C1320 1.391 . S
C1322 C1323 1.400 . S
C1323 C1322 1.400 . S
C1323 C1324 1.398 . S
C1323 C1329 1.491 . S
C1324 H1315 0.950 . S
C1324 C1323 1.398 . S
C1324 C1325 1.391 . S
C1325 H1313 0.950 . S
C1325 C1321 1.393 . S
C1325 C1324 1.391 . S
C1326 H1316 0.950 . S
C1326 C1327 1.386 . S
C1326 C1328 1.391 . S
C1327 C1326 1.386 . S
C1327 C1331 1.393 . S
C1328 H1317 0.950 . S
C1328 C1326 1.391 . S
C1328 C1329 1.400 . S
C1329 C1323 1.491 . S
C1329 C1328 1.400 . S
C1329 C1330 1.398 . S
C1330 H1318 0.950 . S
C1330 C1329 1.398 . S
C1330 C1331 1.391 . S
C1331 H1319 0.950 . S
C1331 C1327 1.393 . S
C1331 C1330 1.391 . S
H1332 C1340 0.950 . S
H1333 C1345 0.950 . S
H1334 C1342 0.950 . S
H1335 C1344 0.950 . S
H1336 C1346 0.950 . S
H1337 C1348 0.950 . S
H1338 C1350 0.950 . S
H1339 C1351 0.950 . S
C1340 H1332 0.950 . S
C1340 C1341 1.386 . S
C1340 C1342 1.391 . S
C1341 C1340 1.386 . S
C1341 C1345 1.393 . S
C1342 H1334 0.950 . S
C1342 C1340 1.391 . S
C1342 C1343 1.400 . S
C1343 C1342 1.400 . S
C1343 C1344 1.398 . S
C1343 C1349 1.491 . S
C1344 H1335 0.950 . S
C1344 C1343 1.398 . S
C1344 C1345 1.391 . S
C1345 H1333 0.950 . S
C1345 C1341 1.393 . S
C1345 C1344 1.391 . S
C1346 H1336 0.950 . S
C1346 C1347 1.386 . S
C1346 C1348 1.391 . S
C1347 C1346 1.386 . S
C1347 C1351 1.393 . S
C1348 H1337 0.950 . S
C1348 C1346 1.391 . S
C1348 C1349 1.400 . S
C1349 C1343 1.491 . S
C1349 C1348 1.400 . S
C1349 C1350 1.398 . S
C1350 H1338 0.950 . S
C1350 C1349 1.398 . S
C1350 C1351 1.391 . S
C1351 H1339 0.950 . S
C1351 C1347 1.393 . S
C1351 C1350 1.391 . S
H1352 C1360 0.950 . S
H1353 C1365 0.950 . S
H1354 C1362 0.950 . S
H1355 C1364 0.950 . S
H1356 C1366 0.950 . S
H1357 C1368 0.950 . S
H1358 C1370 0.950 . S
H1359 C1371 0.950 . S
C1360 H1352 0.950 . S
C1360 C1361 1.386 . S
C1360 C1362 1.391 . S
C1361 C1360 1.386 . S
C1361 C1365 1.393 . S
C1362 H1354 0.950 . S
C1362 C1360 1.391 . S
C1362 C1363 1.400 . S
C1363 C1362 1.400 . S
C1363 C1364 1.398 . S
C1363 C1369 1.491 . S
C1364 H1355 0.950 . S
C1364 C1363 1.398 . S
C1364 C1365 1.391 . S
C1365 H1353 0.950 . S
C1365 C1361 1.393 . S
C1365 C1364 1.391 . S
C1366 H1356 0.950 . S
C1366 C1367 1.386 . S
C1366 C1368 1.391 . S
C1367 C1366 1.386 . S
C1367 C1371 1.393 . S
C1368 H1357 0.950 . S
C1368 C1366 1.391 . S
C1368 C1369 1.400 . S
C1369 C1363 1.491 . S
C1369 C1368 1.400 . S
C1369 C1370 1.398 . S
C1370 H1358 0.950 . S
C1370 C1369 1.398 . S
C1370 C1371 1.391 . S
C1371 H1359 0.950 . S
C1371 C1367 1.393 . S
C1371 C1370 1.391 . S
H1372 C1380 0.950 . S
H1373 C1385 0.950 . S
H1374 C1382 0.950 . S
H1375 C1384 0.950 . S
H1376 C1386 0.950 . S
H1377 C1388 0.950 . S
H1378 C1390 0.950 . S
H1379 C1391 0.950 . S
C1380 H1372 0.950 . S
C1380 C1381 1.386 . S
C1380 C1382 1.391 . S
C1381 C1380 1.386 . S
C1381 C1385 1.393 . S
C1382 H1374 0.950 . S
C1382 C1380 1.391 . S
C1382 C1383 1.400 . S
C1383 C1382 1.400 . S
C1383 C1384 1.398 . S
C1383 C1389 1.491 . S
C1384 H1375 0.950 . S
C1384 C1383 1.398 . S
C1384 C1385 1.391 . S
C1385 H1373 0.950 . S
C1385 C1381 1.393 . S
C1385 C1384 1.391 . S
C1386 H1376 0.950 . S
C1386 C1387 1.386 . S
C1386 C1388 1.391 . S
C1387 C1386 1.386 . S
C1387 C1391 1.393 . S
C1388 H1377 0.950 . S
C1388 C1386 1.391 . S
C1388 C1389 1.400 . S
C1389 C1383 1.491 . S
C1389 C1388 1.400 . S
C1389 C1390 1.398 . S
C1390 H1378 0.950 . S
C1390 C1389 1.398 . S
C1390 C1391 1.391 . S
C1391 H1379 0.950 . S
C1391 C1387 1.393 . S
C1391 C1390 1.391 . S
H1392 C1400 0.950 . S
H1393 C1405 0.950 . S
H1394 C1402 0.950 . S
H1395 C1404 0.950 . S
H1396 C1406 0.950 . S
H1397 C1408 0.950 . S
H1398 C1410 0.950 . S
H1399 C1411 0.950 . S
C1400 H1392 0.950 . S
C1400 C1401 1.386 . S
C1400 C1402 1.391 . S
C1401 C1400 1.386 . S
C1401 C1405 1.393 . S
C1402 H1394 0.950 . S
C1402 C1400 1.391 . S
C1402 C1403 1.400 . S
C1403 C1402 1.400 . S
C1403 C1404 1.398 . S
C1403 C1409 1.491 . S
C1404 H1395 0.950 . S
C1404 C1403 1.398 . S
C1404 C1405 1.391 . S
C1405 H1393 0.950 . S
C1405 C1401 1.393 . S
C1405 C1404 1.391 . S
C1406 H1396 0.950 . S
C1406 C1407 1.386 . S
C1406 C1408 1.391 . S
C1407 C1406 1.386 . S
C1407 C1411 1.393 . S
C1408 H1397 0.950 . S
C1408 C1406 1.391 . S
C1408 C1409 1.400 . S
C1409 C1403 1.491 . S
C1409 C1408 1.400 . S
C1409 C1410 1.398 . S
C1410 H1398 0.950 . S
C1410 C1409 1.398 . S
C1410 C1411 1.391 . S
C1411 H1399 0.950 . S
C1411 C1407 1.393 . S
C1411 C1410 1.391 . S
H1412 C1420 0.950 . S
H1413 C1425 0.950 . S
H1414 C1422 0.950 . S
H1415 C1424 0.950 . S
H1416 C1426 0.950 . S
H1417 C1428 0.950 . S
H1418 C1430 0.950 . S
H1419 C1431 0.950 . S
C1420 H1412 0.950 . S
C1420 C1421 1.386 . S
C1420 C1422 1.391 . S
C1421 C1420 1.386 . S
C1421 C1425 1.393 . S
C1422 H1414 0.950 . S
C1422 C1420 1.391 . S
C1422 C1423 1.400 . S
C1423 C1422 1.400 . S
C1423 C1424 1.398 . S
C1423 C1429 1.491 . S
C1424 H1415 0.950 . S
C1424 C1423 1.398 . S
C1424 C1425 1.391 . S
C1425 H1413 0.950 . S
C1425 C1421 1.393 . S
C1425 C1424 1.391 . S
C1426 H1416 0.950 . S
C1426 C1427 1.386 . S
C1426 C1428 1.391 . S
C1427 C1426 1.386 . S
C1427 C1431 1.393 . S
C1428 H1417 0.950 . S
C1428 C1426 1.391 . S
C1428 C1429 1.400 . S
C1429 C1423 1.491 . S
C1429 C1428 1.400 . S
C1429 C1430 1.398 . S
C1430 H1418 0.950 . S
C1430 C1429 1.398 . S
C1430 C1431 1.391 . S
C1431 H1419 0.950 . S
C1431 C1427 1.393 . S
C1431 C1430 1.391 . S
H1432 C1440 0.950 . S
H1433 C1445 0.950 . S
H1434 C1442 0.950 . S
H1435 C1444 0.950 . S
H1436 C1446 0.950 . S
H1437 C1448 0.950 . S
H1438 C1450 0.950 . S
H1439 C1451 0.950 . S
C1440 H1432 0.950 . S
C1440 C1441 1.386 . S
C1440 C1442 1.391 . S
C1441 C1440 1.386 . S
C1441 C1445 1.393 . S
C1442 H1434 0.950 . S
C1442 C1440 1.391 . S
C1442 C1443 1.400 . S
C1443 C1442 1.400 . S
C1443 C1444 1.398 . S
C1443 C1449 1.491 . S
C1444 H1435 0.950 . S
C1444 C1443 1.398 . S
C1444 C1445 1.391 . S
C1445 H1433 0.950 . S
C1445 C1441 1.393 . S
C1445 C1444 1.391 . S
C1446 H1436 0.950 . S
C1446 C1447 1.386 . S
C1446 C1448 1.391 . S
C1447 C1446 1.386 . S
C1447 C1451 1.393 . S
C1448 H1437 0.950 . S
C1448 C1446 1.391 . S
C1448 C1449 1.400 . S
C1449 C1443 1.491 . S
C1449 C1448 1.400 . S
C1449 C1450 1.398 . S
C1450 H1438 0.950 . S
C1450 C1449 1.398 . S
C1450 C1451 1.391 . S
C1451 H1439 0.950 . S
C1451 C1447 1.393 . S
C1451 C1450 1.391 . S
H1452 C1460 0.950 . S
H1453 C1465 0.950 . S
H1454 C1462 0.950 . S
H1455 C1464 0.950 . S
H1456 C1466 0.950 . S
H1457 C1468 0.950 . S
H1458 C1470 0.950 . S
H1459 C1471 0.950 . S
C1460 H1452 0.950 . S
C1460 C1461 1.386 . S
C1460 C1462 1.391 . S
C1461 C1460 1.386 . S
C1461 C1465 1.393 . S
C1462 H1454 0.950 . S
C1462 C1460 1.391 . S
C1462 C1463 1.400 . S
C1463 C1462 1.400 . S
C1463 C1464 1.398 . S
C1463 C1469 1.491 . S
C1464 H1455 0.950 . S
C1464 C1463 1.398 . S
C1464 C1465 1.391 . S
C1465 H1453 0.950 . S
C1465 C1461 1.393 . S
C1465 C1464 1.391 . S
C1466 H1456 0.950 . S
C1466 C1467 1.386 . S
C1466 C1468 1.391 . S
C1467 C1466 1.386 . S
C1467 C1471 1.393 . S
C1468 H1457 0.950 . S
C1468 C1466 1.391 . S
C1468 C1469 1.400 . S
C1469 C1463 1.491 . S
C1469 C1468 1.400 . S
C1469 C1470 1.398 . S
C1470 H1458 0.950 . S
C1470 C1469 1.398 . S
C1470 C1471 1.391 . S
C1471 H1459 0.950 . S
C1471 C1467 1.393 . S
C1471 C1470 1.391 . S
H1472 C1480 0.950 . S
H1473 C1485 0.950 . S
H1474 C1482 0.950 . S
H1475 C1484 0.950 . S
H1476 C1486 0.950 . S
H1477 C1488 0.950 . S
H1478 C1490 0.950 . S
H1479 C1491 0.950 . S
C1480 H1472 0.950 . S
C1480 C1481 1.386 . S
C1480 C1482 1.391 . S
C1481 C1480 1.386 . S
C1481 C1485 1.393 . S
C1482 H1474 0.950 . S
C1482 C1480 1.391 . S
C1482 C1483 1.400 . S
C1483 C1482 1.400 . S
C1483 C1484 1.398 . S
C1483 C1489 1.491 1_554 S
C1484 H1475 0.950 . S
C1484 C1483 1.398 . S
C1484 C1485 1.391 . S
C1485 H1473 0.950 . S
C1485 C1481 1.393 . S
C1485 C1484 1.391 . S
C1486 H1476 0.950 . S
C1486 C1487 1.386 . S
C1486 C1488 1.391 . S
C1487 C1486 1.386 . S
C1487 C1491 1.393 . S
C1488 H1477 0.950 . S
C1488 C1486 1.391 . S
C1488 C1489 1.400 . S
C1489 C1483 1.491 1_556 S
C1489 C1488 1.400 . S
C1489 C1490 1.398 . S
C1490 H1478 0.950 . S
C1490 C1489 1.398 . S
C1490 C1491 1.391 . S
C1491 H1479 0.950 . S
C1491 C1487 1.393 . S
C1491 C1490 1.391 . S
H1492 C1500 0.950 . S
H1493 C1505 0.950 . S
H1494 C1502 0.950 . S
H1495 C1504 0.950 . S
H1496 C1506 0.950 . S
H1497 C1508 0.950 . S
H1498 C1510 0.950 . S
H1499 C1511 0.950 . S
C1500 H1492 0.950 . S
C1500 C1501 1.386 . S
C1500 C1502 1.391 . S
C1501 C1500 1.386 . S
C1501 C1505 1.393 . S
C1502 H1494 0.950 . S
C1502 C1500 1.391 . S
C1502 C1503 1.400 . S
C1503 C1502 1.400 . S
C1503 C1504 1.398 . S
C1503 C1509 1.491 1_556 S
C1504 H1495 0.950 . S
C1504 C1503 1.398 . S
C1504 C1505 1.391 . S
C1505 H1493 0.950 . S
C1505 C1501 1.393 . S
C1505 C1504 1.391 . S
C1506 H1496 0.950 . S
C1506 C1507 1.386 . S
C1506 C1508 1.391 . S
C1507 C1506 1.386 . S
C1507 C1511 1.393 . S
C1508 H1497 0.950 . S
C1508 C1506 1.391 . S
C1508 C1509 1.400 . S
C1509 C1503 1.491 1_554 S
C1509 C1508 1.400 . S
C1509 C1510 1.398 . S
C1510 H1498 0.950 . S
C1510 C1509 1.398 . S
C1510 C1511 1.391 . S
C1511 H1499 0.950 . S
C1511 C1507 1.393 . S
C1511 C1510 1.391 . S
H1512 C1520 0.950 . S
H1513 C1525 0.950 . S
H1514 C1522 0.950 . S
H1515 C1524 0.950 . S
H1516 C1526 0.950 . S
H1517 C1528 0.950 . S
H1518 C1530 0.950 . S
H1519 C1531 0.950 . S
C1520 H1512 0.950 . S
C1520 C1521 1.386 . S
C1520 C1522 1.391 . S
C1521 C1520 1.386 . S
C1521 C1525 1.393 . S
C1522 H1514 0.950 . S
C1522 C1520 1.391 . S
C1522 C1523 1.400 . S
C1523 C1522 1.400 . S
C1523 C1524 1.398 . S
C1523 C1529 1.491 1_556 S
C1524 H1515 0.950 . S
C1524 C1523 1.398 . S
C1524 C1525 1.391 . S
C1525 H1513 0.950 . S
C1525 C1521 1.393 . S
C1525 C1524 1.391 . S
C1526 H1516 0.950 . S
C1526 C1527 1.386 . S
C1526 C1528 1.391 . S
C1527 C1526 1.386 . S
C1527 C1531 1.393 . S
C1528 H1517 0.950 . S
C1528 C1526 1.391 . S
C1528 C1529 1.400 . S
C1529 C1523 1.491 1_554 S
C1529 C1528 1.400 . S
C1529 C1530 1.398 . S
C1530 H1518 0.950 . S
C1530 C1529 1.398 . S
C1530 C1531 1.391 . S
C1531 H1519 0.950 . S
C1531 C1527 1.393 . S
C1531 C1530 1.391 . S
H1532 C1540 0.950 . S
H1533 C1545 0.950 . S
H1534 C1542 0.950 . S
H1535 C1544 0.950 . S
H1536 C1546 0.950 . S
H1537 C1548 0.950 . S
H1538 C1550 0.950 . S
H1539 C1551 0.950 . S
C1540 H1532 0.950 . S
C1540 C1541 1.386 . S
C1540 C1542 1.391 . S
C1541 C1540 1.386 . S
C1541 C1545 1.393 . S
C1542 H1534 0.950 . S
C1542 C1540 1.391 . S
C1542 C1543 1.400 . S
C1543 C1542 1.400 . S
C1543 C1544 1.398 . S
C1543 C1549 1.491 1_556 S
C1544 H1535 0.950 . S
C1544 C1543 1.398 . S
C1544 C1545 1.391 . S
C1545 H1533 0.950 . S
C1545 C1541 1.393 . S
C1545 C1544 1.391 . S
C1546 H1536 0.950 . S
C1546 C1547 1.386 . S
C1546 C1548 1.391 . S
C1547 C1546 1.386 . S
C1547 C1551 1.393 . S
C1548 H1537 0.950 . S
C1548 C1546 1.391 . S
C1548 C1549 1.400 . S
C1549 C1543 1.491 1_554 S
C1549 C1548 1.400 . S
C1549 C1550 1.398 . S
C1550 H1538 0.950 . S
C1550 C1549 1.398 . S
C1550 C1551 1.391 . S
C1551 H1539 0.950 . S
C1551 C1547 1.393 . S
C1551 C1550 1.391 . S
H1552 C1560 0.950 . S
H1553 C1565 0.950 . S
H1554 C1562 0.950 . S
H1555 C1564 0.950 . S
H1556 C1566 0.950 . S
H1557 C1568 0.950 . S
H1558 C1570 0.950 . S
H1559 C1571 0.950 . S
C1560 H1552 0.950 . S
C1560 C1561 1.386 . S
C1560 C1562 1.391 . S
C1561 C1560 1.386 . S
C1561 C1565 1.393 . S
C1562 H1554 0.950 . S
C1562 C1560 1.391 . S
C1562 C1563 1.400 . S
C1563 C1562 1.400 . S
C1563 C1564 1.398 . S
C1563 C1569 1.491 . S
C1564 H1555 0.950 . S
C1564 C1563 1.398 . S
C1564 C1565 1.391 . S
C1565 H1553 0.950 . S
C1565 C1561 1.393 . S
C1565 C1564 1.391 . S
C1566 H1556 0.950 . S
C1566 C1567 1.386 . S
C1566 C1568 1.391 . S
C1567 C1566 1.386 . S
C1567 C1571 1.393 . S
C1568 H1557 0.950 . S
C1568 C1566 1.391 . S
C1568 C1569 1.400 . S
C1569 C1563 1.491 . S
C1569 C1568 1.400 . S
C1569 C1570 1.398 . S
C1570 H1558 0.950 . S
C1570 C1569 1.398 . S
C1570 C1571 1.391 . S
C1571 H1559 0.950 . S
C1571 C1567 1.393 . S
C1571 C1570 1.391 . S
H1572 C1580 0.950 . S
H1573 C1585 0.950 . S
H1574 C1582 0.950 . S
H1575 C1584 0.950 . S
H1576 C1586 0.950 . S
H1577 C1588 0.950 . S
H1578 C1590 0.950 . S
H1579 C1591 0.950 . S
C1580 H1572 0.950 . S
C1580 C1581 1.386 . S
C1580 C1582 1.391 . S
C1581 C1580 1.386 . S
C1581 C1585 1.393 . S
C1582 H1574 0.950 . S
C1582 C1580 1.391 . S
C1582 C1583 1.400 . S
C1583 C1582 1.400 . S
C1583 C1584 1.398 . S
C1583 C1589 1.491 . S
C1584 H1575 0.950 . S
C1584 C1583 1.398 . S
C1584 C1585 1.391 . S
C1585 H1573 0.950 . S
C1585 C1581 1.393 . S
C1585 C1584 1.391 . S
C1586 H1576 0.950 . S
C1586 C1587 1.386 . S
C1586 C1588 1.391 . S
C1587 C1586 1.386 . S
C1587 C1591 1.393 . S
C1588 H1577 0.950 . S
C1588 C1586 1.391 . S
C1588 C1589 1.400 . S
C1589 C1583 1.491 . S
C1589 C1588 1.400 . S
C1589 C1590 1.398 . S
C1590 H1578 0.950 . S
C1590 C1589 1.398 . S
C1590 C1591 1.391 . S
C1591 H1579 0.950 . S
C1591 C1587 1.393 . S
C1591 C1590 1.391 . S
H1592 C1600 0.950 . S
H1593 C1605 0.950 . S
H1594 C1602 0.950 . S
H1595 C1604 0.950 . S
H1596 C1606 0.950 . S
H1597 C1608 0.950 . S
H1598 C1610 0.950 . S
H1599 C1611 0.950 . S
C1600 H1592 0.950 . S
C1600 C1601 1.386 . S
C1600 C1602 1.391 . S
C1601 C1600 1.386 . S
C1601 C1605 1.393 . S
C1602 H1594 0.950 . S
C1602 C1600 1.391 . S
C1602 C1603 1.400 . S
C1603 C1602 1.400 . S
C1603 C1604 1.398 . S
C1603 C1609 1.491 . S
C1604 H1595 0.950 . S
C1604 C1603 1.398 . S
C1604 C1605 1.391 . S
C1605 H1593 0.950 . S
C1605 C1601 1.393 . S
C1605 C1604 1.391 . S
C1606 H1596 0.950 . S
C1606 C1607 1.386 . S
C1606 C1608 1.391 . S
C1607 C1606 1.386 . S
C1607 C1611 1.393 . S
C1608 H1597 0.950 . S
C1608 C1606 1.391 . S
C1608 C1609 1.400 . S
C1609 C1603 1.491 . S
C1609 C1608 1.400 . S
C1609 C1610 1.398 . S
C1610 H1598 0.950 . S
C1610 C1609 1.398 . S
C1610 C1611 1.391 . S
C1611 H1599 0.950 . S
C1611 C1607 1.393 . S
C1611 C1610 1.391 . S
H1612 C1620 0.950 . S
H1613 C1625 0.950 . S
H1614 C1622 0.950 . S
H1615 C1624 0.950 . S
H1616 C1626 0.950 . S
H1617 C1628 0.950 . S
H1618 C1630 0.950 . S
H1619 C1631 0.950 . S
C1620 H1612 0.950 . S
C1620 C1621 1.386 . S
C1620 C1622 1.391 . S
C1621 C1620 1.386 . S
C1621 C1625 1.393 . S
C1622 H1614 0.950 . S
C1622 C1620 1.391 . S
C1622 C1623 1.400 . S
C1623 C1622 1.400 . S
C1623 C1624 1.398 . S
C1623 C1629 1.491 . S
C1624 H1615 0.950 . S
C1624 C1623 1.398 . S
C1624 C1625 1.391 . S
C1625 H1613 0.950 . S
C1625 C1621 1.393 . S
C1625 C1624 1.391 . S
C1626 H1616 0.950 . S
C1626 C1627 1.386 . S
C1626 C1628 1.391 . S
C1627 C1626 1.386 . S
C1627 C1631 1.393 . S
C1628 H1617 0.950 . S
C1628 C1626 1.391 . S
C1628 C1629 1.400 . S
C1629 C1623 1.491 . S
C1629 C1628 1.400 . S
C1629 C1630 1.398 . S
C1630 H1618 0.950 . S
C1630 C1629 1.398 . S
C1630 C1631 1.391 . S
C1631 H1619 0.950 . S
C1631 C1627 1.393 . S
C1631 C1630 1.391 . S
H1632 C1640 0.950 . S
H1633 C1645 0.950 . S
H1634 C1642 0.950 . S
H1635 C1644 0.950 . S
H1636 C1646 0.950 . S
H1637 C1648 0.950 . S
H1638 C1650 0.950 . S
H1639 C1651 0.950 . S
C1640 H1632 0.950 . S
C1640 C1641 1.386 . S
C1640 C1642 1.391 . S
C1641 C1640 1.386 . S
C1641 C1645 1.393 . S
C1642 H1634 0.950 . S
C1642 C1640 1.391 . S
C1642 C1643 1.400 . S
C1643 C1642 1.400 . S
C1643 C1644 1.398 . S
C1643 C1649 1.491 . S
C1644 H1635 0.950 . S
C1644 C1643 1.398 . S
C1644 C1645 1.391 . S
C1645 H1633 0.950 . S
C1645 C1641 1.393 . S
C1645 C1644 1.391 . S
C1646 H1636 0.950 . S
C1646 C1647 1.386 . S
C1646 C1648 1.391 . S
C1647 C1646 1.386 . S
C1647 C1651 1.393 . S
C1648 H1637 0.950 . S
C1648 C1646 1.391 . S
C1648 C1649 1.400 . S
C1649 C1643 1.491 . S
C1649 C1648 1.400 . S
C1649 C1650 1.398 . S
C1650 H1638 0.950 . S
C1650 C1649 1.398 . S
C1650 C1651 1.391 . S
C1651 H1639 0.950 . S
C1651 C1647 1.393 . S
C1651 C1650 1.391 . S
H1652 C1660 0.950 . S
H1653 C1665 0.950 . S
H1654 C1662 0.950 . S
H1655 C1664 0.950 . S
H1656 C1666 0.950 . S
H1657 C1668 0.950 . S
H1658 C1670 0.950 . S
H1659 C1671 0.950 . S
C1660 H1652 0.950 . S
C1660 C1661 1.386 . S
C1660 C1662 1.391 . S
C1661 C1660 1.386 . S
C1661 C1665 1.393 . S
C1662 H1654 0.950 . S
C1662 C1660 1.391 . S
C1662 C1663 1.400 . S
C1663 C1662 1.400 . S
C1663 C1664 1.398 . S
C1663 C1669 1.491 . S
C1664 H1655 0.950 . S
C1664 C1663 1.398 . S
C1664 C1665 1.391 . S
C1665 H1653 0.950 . S
C1665 C1661 1.393 . S
C1665 C1664 1.391 . S
C1666 H1656 0.950 . S
C1666 C1667 1.386 . S
C1666 C1668 1.391 . S
C1667 C1666 1.386 . S
C1667 C1671 1.393 . S
C1668 H1657 0.950 . S
C1668 C1666 1.391 . S
C1668 C1669 1.400 . S
C1669 C1663 1.491 . S
C1669 C1668 1.400 . S
C1669 C1670 1.398 . S
C1670 H1658 0.950 . S
C1670 C1669 1.398 . S
C1670 C1671 1.391 . S
C1671 H1659 0.950 . S
C1671 C1667 1.393 . S
C1671 C1670 1.391 . S
H1672 C1680 0.950 . S
H1673 C1685 0.950 . S
H1674 C1682 0.950 . S
H1675 C1684 0.950 . S
H1676 C1686 0.950 . S
H1677 C1688 0.950 . S
H1678 C1690 0.950 . S
H1679 C1691 0.950 . S
C1680 H1672 0.950 . S
C1680 C1681 1.386 . S
C1680 C1682 1.391 . S
C1681 C1680 1.386 . S
C1681 C1685 1.393 . S
C1682 H1674 0.950 . S
C1682 C1680 1.391 . S
C1682 C1683 1.400 . S
C1683 C1682 1.400 . S
C1683 C1684 1.398 . S
C1683 C1689 1.491 . S
C1684 H1675 0.950 . S
C1684 C1683 1.398 . S
C1684 C1685 1.391 . S
C1685 H1673 0.950 . S
C1685 C1681 1.393 . S
C1685 C1684 1.391 . S
C1686 H1676 0.950 . S
C1686 C1687 1.386 . S
C1686 C1688 1.391 . S
C1687 C1686 1.386 . S
C1687 C1691 1.393 . S
C1688 H1677 0.950 . S
C1688 C1686 1.391 . S
C1688 C1689 1.400 . S
C1689 C1683 1.491 . S
C1689 C1688 1.400 . S
C1689 C1690 1.398 . S
C1690 H1678 0.950 . S
C1690 C1689 1.398 . S
C1690 C1691 1.391 . S
C1691 H1679 0.950 . S
C1691 C1687 1.393 . S
C1691 C1690 1.391 . S
H1692 C1700 0.950 . S
H1693 C1705 0.950 . S
H1694 C1702 0.950 . S
H1695 C1704 0.950 . S
H1696 C1706 0.950 . S
H1697 C1708 0.950 . S
H1698 C1710 0.950 . S
H1699 C1711 0.950 . S
C1700 H1692 0.950 . S
C1700 C1701 1.386 . S
C1700 C1702 1.391 . S
C1701 C1700 1.386 . S
C1701 C1705 1.393 . S
C1702 H1694 0.950 . S
C1702 C1700 1.391 . S
C1702 C1703 1.400 . S
C1703 C1702 1.400 . S
C1703 C1704 1.398 . S
C1703 C1709 1.491 . S
C1704 H1695 0.950 . S
C1704 C1703 1.398 . S
C1704 C1705 1.391 . S
C1705 H1693 0.950 . S
C1705 C1701 1.393 . S
C1705 C1704 1.391 . S
C1706 H1696 0.950 . S
C1706 C1707 1.386 . S
C1706 C1708 1.391 . S
C1707 C1706 1.386 . S
C1707 C1711 1.393 . S
C1708 H1697 0.950 . S
C1708 C1706 1.391 . S
C1708 C1709 1.400 . S
C1709 C1703 1.491 . S
C1709 C1708 1.400 . S
C1709 C1710 1.398 . S
C1710 H1698 0.950 . S
C1710 C1709 1.398 . S
C1710 C1711 1.391 . S
C1711 H1699 0.950 . S
C1711 C1707 1.393 . S
C1711 C1710 1.391 . S
H1712 C1720 0.950 . S
H1713 C1725 0.950 . S
H1714 C1722 0.950 . S
H1715 C1724 0.950 . S
H1716 C1726 0.950 . S
H1717 C1728 0.950 . S
H1718 C1730 0.950 . S
H1719 C1731 0.950 . S
C1720 H1712 0.950 . S
C1720 C1721 1.386 . S
C1720 C1722 1.391 . S
C1721 C1720 1.386 . S
C1721 C1725 1.393 . S
C1722 H1714 0.950 . S
C1722 C1720 1.391 . S
C1722 C1723 1.400 . S
C1723 C1722 1.400 . S
C1723 C1724 1.398 . S
C1723 C1729 1.491 1_556 S
C1724 H1715 0.950 . S
C1724 C1723 1.398 . S
C1724 C1725 1.391 . S
C1725 H1713 0.950 . S
C1725 C1721 1.393 . S
C1725 C1724 1.391 . S
C1726 H1716 0.950 . S
C1726 C1727 1.386 . S
C1726 C1728 1.391 . S
C1727 C1726 1.386 . S
C1727 C1731 1.393 . S
C1728 H1717 0.950 . S
C1728 C1726 1.391 . S
C1728 C1729 1.400 . S
C1729 C1723 1.491 1_554 S
C1729 C1728 1.400 . S
C1729 C1730 1.398 . S
C1730 H1718 0.950 . S
C1730 C1729 1.398 . S
C1730 C1731 1.391 . S
C1731 H1719 0.950 . S
C1731 C1727 1.393 . S
C1731 C1730 1.391 . S
H1732 C1740 0.950 . S
H1733 C1745 0.950 . S
H1734 C1742 0.950 . S
H1735 C1744 0.950 . S
H1736 C1746 0.950 . S
H1737 C1748 0.950 . S
H1738 C1750 0.950 . S
H1739 C1751 0.950 . S
C1740 H1732 0.950 . S
C1740 C1741 1.386 . S
C1740 C1742 1.391 . S
C1741 C1740 1.386 . S
C1741 C1745 1.393 . S
C1742 H1734 0.950 . S
C1742 C1740 1.391 . S
C1742 C1743 1.400 . S
C1743 C1742 1.400 . S
C1743 C1744 1.398 . S
C1743 C1749 1.491 1_554 S
C1744 H1735 0.950 . S
C1744 C1743 1.398 . S
C1744 C1745 1.391 . S
C1745 H1733 0.950 . S
C1745 C1741 1.393 . S
C1745 C1744 1.391 . S
C1746 H1736 0.950 . S
C1746 C1747 1.386 . S
C1746 C1748 1.391 . S
C1747 C1746 1.386 . S
C1747 C1751 1.393 . S
C1748 H1737 0.950 . S
C1748 C1746 1.391 . S
C1748 C1749 1.400 . S
C1749 C1743 1.491 1_556 S
C1749 C1748 1.400 . S
C1749 C1750 1.398 . S
C1750 H1738 0.950 . S
C1750 C1749 1.398 . S
C1750 C1751 1.391 . S
C1751 H1739 0.950 . S
C1751 C1747 1.393 . S
C1751 C1750 1.391 . S
H1752 C1760 0.950 . S
H1753 C1765 0.950 . S
H1754 C1762 0.950 . S
H1755 C1764 0.950 . S
H1756 C1766 0.950 . S
H1757 C1768 0.950 . S
H1758 C1770 0.950 . S
H1759 C1771 0.950 . S
C1760 H1752 0.950 . S
C1760 C1761 1.386 . S
C1760 C1762 1.391 . S
C1761 C1760 1.386 . S
C1761 C1765 1.393 . S
C1762 H1754 0.950 . S
C1762 C1760 1.391 . S
C1762 C1763 1.400 . S
C1763 C1762 1.400 . S
C1763 C1764 1.398 . S
C1763 C1769 1.491 1_554 S
C1764 H1755 0.950 . S
C1764 C1763 1.398 . S
C1764 C1765 1.391 . S
C1765 H1753 0.950 . S
C1765 C1761 1.393 . S
C1765 C1764 1.391 . S
C1766 H1756 0.950 . S
C1766 C1767 1.386 . S
C1766 C1768 1.391 . S
C1767 C1766 1.386 . S
C1767 C1771 1.393 . S
C1768 H1757 0.950 . S
C1768 C1766 1.391 . S
C1768 C1769 1.400 . S
C1769 C1763 1.491 1_556 S
C1769 C1768 1.400 . S
C1769 C1770 1.398 . S
C1770 H1758 0.950 . S
C1770 C1769 1.398 . S
C1770 C1771 1.391 . S
C1771 H1759 0.950 . S
C1771 C1767 1.393 . S
C1771 C1770 1.391 . S
H1772 C1780 0.950 . S
H1773 C1785 0.950 . S
H1774 C1782 0.950 . S
H1775 C1784 0.950 . S
H1776 C1786 0.950 . S
H1777 C1788 0.950 . S
H1778 C1790 0.950 . S
H1779 C1791 0.950 . S
C1780 H1772 0.950 . S
C1780 C1781 1.386 . S
C1780 C1782 1.391 . S
C1781 C1780 1.386 . S
C1781 C1785 1.393 . S
C1782 H1774 0.950 . S
C1782 C1780 1.391 . S
C1782 C1783 1.400 . S
C1783 C1782 1.400 . S
C1783 C1784 1.398 . S
C1783 C1789 1.491 1_556 S
C1784 H1775 0.950 . S
C1784 C1783 1.398 . S
C1784 C1785 1.391 . S
C1785 H1773 0.950 . S
C1785 C1781 1.393 . S
C1785 C1784 1.391 . S
C1786 H1776 0.950 . S
C1786 C1787 1.386 . S
C1786 C1788 1.391 . S
C1787 C1786 1.386 . S
C1787 C1791 1.393 . S
C1788 H1777 0.950 . S
C1788 C1786 1.391 . S
C1788 C1789 1.400 . S
C1789 C1783 1.491 1_554 S
C1789 C1788 1.400 . S
C1789 C1790 1.398 . S
C1790 H1778 0.950 . S
C1790 C1789 1.398 . S
C1790 C1791 1.391 . S
C1791 H1779 0.950 . S
C1791 C1787 1.393 . S
C1791 C1790 1.391 . S
H1792 C1800 0.950 . S
H1793 C1805 0.950 . S
H1794 C1802 0.950 1_565 S
H1795 C1804 0.950 . S
H1796 C1806 0.950 . S
H1797 C1808 0.950 1_545 S
H1798 C1810 0.950 . S
H1799 C1811 0.950 . S
C1800 H1792 0.950 . S
C1800 C1801 1.386 . S
C1800 C1802 1.391 . S
C1801 C1800 1.386 . S
C1801 C1805 1.393 . S
C1802 H1794 0.950 1_545 S
C1802 C1800 1.391 . S
C1802 C1803 1.400 . S
C1803 C1802 1.400 . S
C1803 C1804 1.398 . S
C1803 C1809 1.491 1_545 S
C1804 H1795 0.950 . S
C1804 C1803 1.398 . S
C1804 C1805 1.391 . S
C1805 H1793 0.950 . S
C1805 C1801 1.393 . S
C1805 C1804 1.391 . S
C1806 H1796 0.950 . S
C1806 C1807 1.386 . S
C1806 C1808 1.391 . S
C1807 C1806 1.386 . S
C1807 C1811 1.393 . S
C1808 H1797 0.950 1_565 S
C1808 C1806 1.391 . S
C1808 C1809 1.400 . S
C1809 C1803 1.491 1_565 S
C1809 C1808 1.400 . S
C1809 C1810 1.398 . S
C1810 H1798 0.950 . S
C1810 C1809 1.398 . S
C1810 C1811 1.391 . S
C1811 H1799 0.950 . S
C1811 C1807 1.393 . S
C1811 C1810 1.391 . S
H1812 C1820 0.950 . S
H1813 C1825 0.950 . S
H1814 C1822 0.950 1_455 S
H1815 C1824 0.950 . S
H1816 C1826 0.950 . S
H1817 C1828 0.950 1_655 S
H1818 C1830 0.950 . S
H1819 C1831 0.950 . S
C1820 H1812 0.950 . S
C1820 C1821 1.386 . S
C1820 C1822 1.391 . S
C1821 C1820 1.386 . S
C1821 C1825 1.393 . S
C1822 H1814 0.950 1_655 S
C1822 C1820 1.391 . S
C1822 C1823 1.400 . S
C1823 C1822 1.400 . S
C1823 C1824 1.398 . S
C1823 C1829 1.491 1_655 S
C1824 H1815 0.950 . S
C1824 C1823 1.398 . S
C1824 C1825 1.391 . S
C1825 H1813 0.950 . S
C1825 C1821 1.393 . S
C1825 C1824 1.391 . S
C1826 H1816 0.950 . S
C1826 C1827 1.386 . S
C1826 C1828 1.391 . S
C1827 C1826 1.386 . S
C1827 C1831 1.393 . S
C1828 H1817 0.950 1_455 S
C1828 C1826 1.391 . S
C1828 C1829 1.400 . S
C1829 C1823 1.491 1_455 S
C1829 C1828 1.400 . S
C1829 C1830 1.398 . S
C1830 H1818 0.950 . S
C1830 C1829 1.398 . S
C1830 C1831 1.391 . S
C1831 H1819 0.950 . S
C1831 C1827 1.393 . S
C1831 C1830 1.391 . S
H1832 C1840 0.950 . S
H1833 C1845 0.950 . S
H1834 C1842 0.950 1_565 S
H1835 C1844 0.950 . S
H1836 C1846 0.950 . S
H1837 C1848 0.950 1_545 S
H1838 C1850 0.950 . S
H1839 C1851 0.950 . S
C1840 H1832 0.950 . S
C1840 C1841 1.386 . S
C1840 C1842 1.391 . S
C1841 C1840 1.386 . S
C1841 C1845 1.393 . S
C1842 H1834 0.950 1_545 S
C1842 C1840 1.391 . S
C1842 C1843 1.400 . S
C1843 C1842 1.400 . S
C1843 C1844 1.398 . S
C1843 C1849 1.491 1_545 S
C1844 H1835 0.950 . S
C1844 C1843 1.398 . S
C1844 C1845 1.391 . S
C1845 H1833 0.950 . S
C1845 C1841 1.393 . S
C1845 C1844 1.391 . S
C1846 H1836 0.950 . S
C1846 C1847 1.386 . S
C1846 C1848 1.391 . S
C1847 C1846 1.386 . S
C1847 C1851 1.393 . S
C1848 H1837 0.950 1_565 S
C1848 C1846 1.391 . S
C1848 C1849 1.400 . S
C1849 C1843 1.491 1_565 S
C1849 C1848 1.400 . S
C1849 C1850 1.398 . S
C1850 H1838 0.950 . S
C1850 C1849 1.398 . S
C1850 C1851 1.391 . S
C1851 H1839 0.950 . S
C1851 C1847 1.393 . S
C1851 C1850 1.391 . S
H1852 C1860 0.950 . S
H1853 C1865 0.950 . S
H1854 C1862 0.950 . S
H1855 C1864 0.950 1_655 S
H1856 C1866 0.950 . S
H1857 C1868 0.950 . S
H1858 C1870 0.950 1_455 S
H1859 C1871 0.950 . S
C1860 H1852 0.950 . S
C1860 C1861 1.386 . S
C1860 C1862 1.391 . S
C1861 C1860 1.386 . S
C1861 C1865 1.393 . S
C1862 H1854 0.950 . S
C1862 C1860 1.391 . S
C1862 C1863 1.400 . S
C1863 C1862 1.400 . S
C1863 C1864 1.398 . S
C1863 C1869 1.491 1_455 S
C1864 H1855 0.950 1_455 S
C1864 C1863 1.398 . S
C1864 C1865 1.391 . S
C1865 H1853 0.950 . S
C1865 C1861 1.393 . S
C1865 C1864 1.391 . S
C1866 H1856 0.950 . S
C1866 C1867 1.386 . S
C1866 C1868 1.391 . S
C1867 C1866 1.386 . S
C1867 C1871 1.393 . S
C1868 H1857 0.950 . S
C1868 C1866 1.391 . S
C1868 C1869 1.400 . S
C1869 C1863 1.491 1_655 S
C1869 C1868 1.400 . S
C1869 C1870 1.398 . S
C1870 H1858 0.950 1_655 S
C1870 C1869 1.398 . S
C1870 C1871 1.391 . S
C1871 H1859 0.950 . S
C1871 C1867 1.393 . S
C1871 C1870 1.391 . S
H1872 C1880 0.950 . S
H1873 C1885 0.950 . S
H1874 C1882 0.950 . S
H1875 C1884 0.950 . S
H1876 C1886 0.950 . S
H1877 C1888 0.950 . S
H1878 C1890 0.950 . S
H1879 C1891 0.950 . S
C1880 H1872 0.950 . S
C1880 C1881 1.386 . S
C1880 C1882 1.391 . S
C1881 C1880 1.386 . S
C1881 C1885 1.393 . S
C1882 H1874 0.950 . S
C1882 C1880 1.391 . S
C1882 C1883 1.400 . S
C1883 C1882 1.400 . S
C1883 C1884 1.398 . S
C1883 C1889 1.491 1_565 S
C1884 H1875 0.950 . S
C1884 C1883 1.398 . S
C1884 C1885 1.391 . S
C1885 H1873 0.950 . S
C1885 C1881 1.393 . S
C1885 C1884 1.391 . S
C1886 H1876 0.950 . S
C1886 C1887 1.386 . S
C1886 C1888 1.391 . S
C1887 C1886 1.386 . S
C1887 C1891 1.393 . S
C1888 H1877 0.950 . S
C1888 C1886 1.391 . S
C1888 C1889 1.400 . S
C1889 C1883 1.491 1_545 S
C1889 C1888 1.400 . S
C1889 C1890 1.398 . S
C1890 H1878 0.950 . S
C1890 C1889 1.398 . S
C1890 C1891 1.391 . S
C1891 H1879 0.950 . S
C1891 C1887 1.393 . S
C1891 C1890 1.391 . S
H1892 C1900 0.950 . S
H1893 C1905 0.950 . S
H1894 C1902 0.950 . S
H1895 C1904 0.950 1_455 S
H1896 C1906 0.950 . S
H1897 C1908 0.950 . S
H1898 C1910 0.950 1_655 S
H1899 C1911 0.950 . S
C1900 H1892 0.950 . S
C1900 C1901 1.386 . S
C1900 C1902 1.391 . S
C1901 C1900 1.386 . S
C1901 C1905 1.393 . S
C1902 H1894 0.950 . S
C1902 C1900 1.391 . S
C1902 C1903 1.400 . S
C1903 C1902 1.400 . S
C1903 C1904 1.398 . S
C1903 C1909 1.491 1_655 S
C1904 H1895 0.950 1_655 S
C1904 C1903 1.398 . S
C1904 C1905 1.391 . S
C1905 H1893 0.950 . S
C1905 C1901 1.393 . S
C1905 C1904 1.391 . S
C1906 H1896 0.950 . S
C1906 C1907 1.386 . S
C1906 C1908 1.391 . S
C1907 C1906 1.386 . S
C1907 C1911 1.393 . S
C1908 H1897 0.950 . S
C1908 C1906 1.391 . S
C1908 C1909 1.400 . S
C1909 C1903 1.491 1_455 S
C1909 C1908 1.400 . S
C1909 C1910 1.398 . S
C1910 H1898 0.950 1_455 S
C1910 C1909 1.398 . S
C1910 C1911 1.391 . S
C1911 H1899 0.950 . S
C1911 C1907 1.393 . S
C1911 C1910 1.391 . S
H1912 C1920 0.950 . S
H1913 C1925 0.950 . S
H1914 C1922 0.950 . S
H1915 C1924 0.950 . S
H1916 C1926 0.950 . S
H1917 C1928 0.950 . S
H1918 C1930 0.950 . S
H1919 C1931 0.950 . S
C1920 H1912 0.950 . S
C1920 C1921 1.386 . S
C1920 C1922 1.391 . S
C1921 C1920 1.386 . S
C1921 C1925 1.393 . S
C1922 H1914 0.950 . S
C1922 C1920 1.391 . S
C1922 C1923 1.400 . S
C1923 C1922 1.400 . S
C1923 C1924 1.398 . S
C1923 C1929 1.491 1_565 S
C1924 H1915 0.950 . S
C1924 C1923 1.398 . S
C1924 C1925 1.391 . S
C1925 H1913 0.950 . S
C1925 C1921 1.393 . S
C1925 C1924 1.391 . S
C1926 H1916 0.950 . S
C1926 C1927 1.386 . S
C1926 C1928 1.391 . S
C1927 C1926 1.386 . S
C1927 C1931 1.393 . S
C1928 H1917 0.950 . S
C1928 C1926 1.391 . S
C1928 C1929 1.400 . S
C1929 C1923 1.491 1_545 S
C1929 C1928 1.400 . S
C1929 C1930 1.398 . S
C1930 H1918 0.950 . S
C1930 C1929 1.398 . S
C1930 C1931 1.391 . S
C1931 H1919 0.950 . S
C1931 C1927 1.393 . S
C1931 C1930 1.391 . S
H1932 C1940 0.950 . S
H1933 C1945 0.950 . S
H1934 C1942 0.950 . S
H1935 C1944 0.950 1_455 S
H1936 C1946 0.950 . S
H1937 C1948 0.950 . S
H1938 C1950 0.950 1_655 S
H1939 C1951 0.950 . S
C1940 H1932 0.950 . S
C1940 C1941 1.386 . S
C1940 C1942 1.391 . S
C1941 C1940 1.386 . S
C1941 C1945 1.393 . S
C1942 H1934 0.950 . S
C1942 C1940 1.391 . S
C1942 C1943 1.400 . S
C1943 C1942 1.400 . S
C1943 C1944 1.398 . S
C1943 C1949 1.491 1_655 S
C1944 H1935 0.950 1_655 S
C1944 C1943 1.398 . S
C1944 C1945 1.391 . S
C1945 H1933 0.950 . S
C1945 C1941 1.393 . S
C1945 C1944 1.391 . S
C1946 H1936 0.950 . S
C1946 C1947 1.386 . S
C1946 C1948 1.391 . S
C1947 C1946 1.386 . S
C1947 C1951 1.393 . S
C1948 H1937 0.950 . S
C1948 C1946 1.391 . S
C1948 C1949 1.400 . S
C1949 C1943 1.491 1_455 S
C1949 C1948 1.400 . S
C1949 C1950 1.398 . S
C1950 H1938 0.950 1_455 S
C1950 C1949 1.398 . S
C1950 C1951 1.391 . S
C1951 H1939 0.950 . S
C1951 C1947 1.393 . S
C1951 C1950 1.391 . S
H1952 C1960 0.950 . S
H1953 C1965 0.950 . S
H1954 C1962 0.950 . S
H1955 C1964 0.950 . S
H1956 C1966 0.950 . S
H1957 C1968 0.950 . S
H1958 C1970 0.950 . S
H1959 C1971 0.950 . S
C1960 H1952 0.950 . S
C1960 C1961 1.386 . S
C1960 C1962 1.391 . S
C1961 C1960 1.386 . S
C1961 C1965 1.393 . S
C1962 H1954 0.950 . S
C1962 C1960 1.391 . S
C1962 C1963 1.400 . S
C1963 C1962 1.400 . S
C1963 C1964 1.398 . S
C1963 C1969 1.491 . S
C1964 H1955 0.950 . S
C1964 C1963 1.398 . S
C1964 C1965 1.391 . S
C1965 H1953 0.950 . S
C1965 C1961 1.393 . S
C1965 C1964 1.391 . S
C1966 H1956 0.950 . S
C1966 C1967 1.386 . S
C1966 C1968 1.391 . S
C1967 C1966 1.386 . S
C1967 C1971 1.393 . S
C1968 H1957 0.950 . S
C1968 C1966 1.391 . S
C1968 C1969 1.400 . S
C1969 C1963 1.491 . S
C1969 C1968 1.400 . S
C1969 C1970 1.398 . S
C1970 H1958 0.950 . S
C1970 C1969 1.398 . S
C1970 C1971 1.391 . S
C1971 H1959 0.950 . S
C1971 C1967 1.393 . S
C1971 C1970 1.391 . S
H1972 C1980 0.950 . S
H1973 C1985 0.950 . S
H1974 C1982 0.950 . S
H1975 C1984 0.950 . S
H1976 C1986 0.950 . S
H1977 C1988 0.950 . S
H1978 C1990 0.950 . S
H1979 C1991 0.950 . S
C1980 H1972 0.950 . S
C1980 C1981 1.386 . S
C1980 C1982 1.391 . S
C1981 C1980 1.386 . S
C1981 C1985 1.393 . S
C1982 H1974 0.950 . S
C1982 C1980 1.391 . S
C1982 C1983 1.400 . S
C1983 C1982 1.400 . S
C1983 C1984 1.398 . S
C1983 C1989 1.491 . S
C1984 H1975 0.950 . S
C1984 C1983 1.398 . S
C1984 C1985 1.391 . S
C1985 H1973 0.950 . S
C1985 C1981 1.393 . S
C1985 C1984 1.391 . S
C1986 H1976 0.950 . S
C1986 C1987 1.386 . S
C1986 C1988 1.391 . S
C1987 C1986 1.386 . S
C1987 C1991 1.393 . S
C1988 H1977 0.950 . S
C1988 C1986 1.391 . S
C1988 C1989 1.400 . S
C1989 C1983 1.491 . S
C1989 C1988 1.400 . S
C1989 C1990 1.398 . S
C1990 H1978 0.950 . S
C1990 C1989 1.398 . S
C1990 C1991 1.391 . S
C1991 H1979 0.950 . S
C1991 C1987 1.393 . S
C1991 C1990 1.391 . S
H1992 C2000 0.950 . S
H1993 C2005 0.950 . S
H1994 C2002 0.950 . S
H1995 C2004 0.950 . S
H1996 C2006 0.950 . S
H1997 C2008 0.950 . S
H1998 C2010 0.950 . S
H1999 C2011 0.950 . S
C2000 H1992 0.950 . S
C2000 C2001 1.386 . S
C2000 C2002 1.391 . S
C2001 C2000 1.386 . S
C2001 C2005 1.393 . S
C2002 H1994 0.950 . S
C2002 C2000 1.391 . S
C2002 C2003 1.400 . S
C2003 C2002 1.400 . S
C2003 C2004 1.398 . S
C2003 C2009 1.491 . S
C2004 H1995 0.950 . S
C2004 C2003 1.398 . S
C2004 C2005 1.391 . S
C2005 H1993 0.950 . S
C2005 C2001 1.393 . S
C2005 C2004 1.391 . S
C2006 H1996 0.950 . S
C2006 C2007 1.386 . S
C2006 C2008 1.391 . S
C2007 C2006 1.386 . S
C2007 C2011 1.393 . S
C2008 H1997 0.950 . S
C2008 C2006 1.391 . S
C2008 C2009 1.400 . S
C2009 C2003 1.491 . S
C2009 C2008 1.400 . S
C2009 C2010 1.398 . S
C2010 H1998 0.950 . S
C2010 C2009 1.398 . S
C2010 C2011 1.391 . S
C2011 H1999 0.950 . S
C2011 C2007 1.393 . S
C2011 C2010 1.391 . S
H2012 C2020 0.950 . S
H2013 C2025 0.950 . S
H2014 C2022 0.950 . S
H2015 C2024 0.950 . S
H2016 C2026 0.950 . S
H2017 C2028 0.950 . S
H2018 C2030 0.950 . S
H2019 C2031 0.950 . S
C2020 H2012 0.950 . S
C2020 C2021 1.386 . S
C2020 C2022 1.391 . S
C2021 C2020 1.386 . S
C2021 C2025 1.393 . S
C2022 H2014 0.950 . S
C2022 C2020 1.391 . S
C2022 C2023 1.400 . S
C2023 C2022 1.400 . S
C2023 C2024 1.398 . S
C2023 C2029 1.491 . S
C2024 H2015 0.950 . S
C2024 C2023 1.398 . S
C2024 C2025 1.391 . S
C2025 H2013 0.950 . S
C2025 C2021 1.393 . S
C2025 C2024 1.391 . S
C2026 H2016 0.950 . S
C2026 C2027 1.386 . S
C2026 C2028 1.391 . S
C2027 C2026 1.386 . S
C2027 C2031 1.393 . S
C2028 H2017 0.950 . S
C2028 C2026 1.391 . S
C2028 C2029 1.400 . S
C2029 C2023 1.491 . S
C2029 C2028 1.400 . S
C2029 C2030 1.398 . S
C2030 H2018 0.950 . S
C2030 C2029 1.398 . S
C2030 C2031 1.391 . S
C2031 H2019 0.950 . S
C2031 C2027 1.393 . S
C2031 C2030 1.391 . S
H2032 C2040 0.950 . S
H2033 C2045 0.950 . S
H2034 C2042 0.950 . S
H2035 C2044 0.950 . S
H2036 C2046 0.950 . S
H2037 C2048 0.950 . S
H2038 C2050 0.950 . S
H2039 C2051 0.950 . S
C2040 H2032 0.950 . S
C2040 C2041 1.386 . S
C2040 C2042 1.391 . S
C2041 C2040 1.386 . S
C2041 C2045 1.393 . S
C2042 H2034 0.950 . S
C2042 C2040 1.391 . S
C2042 C2043 1.400 . S
C2043 C2042 1.400 . S
C2043 C2044 1.398 . S
C2043 C2049 1.491 . S
C2044 H2035 0.950 . S
C2044 C2043 1.398 . S
C2044 C2045 1.391 . S
C2045 H2033 0.950 . S
C2045 C2041 1.393 . S
C2045 C2044 1.391 . S
C2046 H2036 0.950 . S
C2046 C2047 1.386 . S
C2046 C2048 1.391 . S
C2047 C2046 1.386 . S
C2047 C2051 1.393 . S
C2048 H2037 0.950 . S
C2048 C2046 1.391 . S
C2048 C2049 1.400 . S
C2049 C2043 1.491 . S
C2049 C2048 1.400 . S
C2049 C2050 1.398 . S
C2050 H2038 0.950 . S
C2050 C2049 1.398 . S
C2050 C2051 1.391 . S
C2051 H2039 0.950 . S
C2051 C2047 1.393 . S
C2051 C2050 1.391 . S
H2052 C2060 0.950 . S
H2053 C2065 0.950 . S
H2054 C2062 0.950 . S
H2055 C2064 0.950 . S
H2056 C2066 0.950 . S
H2057 C2068 0.950 . S
H2058 C2070 0.950 . S
H2059 C2071 0.950 . S
C2060 H2052 0.950 . S
C2060 C2061 1.386 . S
C2060 C2062 1.391 . S
C2061 C2060 1.386 . S
C2061 C2065 1.393 . S
C2062 H2054 0.950 . S
C2062 C2060 1.391 . S
C2062 C2063 1.400 . S
C2063 C2062 1.400 . S
C2063 C2064 1.398 . S
C2063 C2069 1.491 . S
C2064 H2055 0.950 . S
C2064 C2063 1.398 . S
C2064 C2065 1.391 . S
C2065 H2053 0.950 . S
C2065 C2061 1.393 . S
C2065 C2064 1.391 . S
C2066 H2056 0.950 . S
C2066 C2067 1.386 . S
C2066 C2068 1.391 . S
C2067 C2066 1.386 . S
C2067 C2071 1.393 . S
C2068 H2057 0.950 . S
C2068 C2066 1.391 . S
C2068 C2069 1.400 . S
C2069 C2063 1.491 . S
C2069 C2068 1.400 . S
C2069 C2070 1.398 . S
C2070 H2058 0.950 . S
C2070 C2069 1.398 . S
C2070 C2071 1.391 . S
C2071 H2059 0.950 . S
C2071 C2067 1.393 . S
C2071 C2070 1.391 . S
H2072 C2080 0.950 . S
H2073 C2085 0.950 . S
H2074 C2082 0.950 . S
H2075 C2084 0.950 . S
H2076 C2086 0.950 . S
H2077 C2088 0.950 . S
H2078 C2090 0.950 . S
H2079 C2091 0.950 . S
C2080 H2072 0.950 . S
C2080 C2081 1.386 . S
C2080 C2082 1.391 . S
C2081 C2080 1.386 . S
C2081 C2085 1.393 . S
C2082 H2074 0.950 . S
C2082 C2080 1.391 . S
C2082 C2083 1.400 . S
C2083 C2082 1.400 . S
C2083 C2084 1.398 . S
C2083 C2089 1.491 . S
C2084 H2075 0.950 . S
C2084 C2083 1.398 . S
C2084 C2085 1.391 . S
C2085 H2073 0.950 . S
C2085 C2081 1.393 . S
C2085 C2084 1.391 . S
C2086 H2076 0.950 . S
C2086 C2087 1.386 . S
C2086 C2088 1.391 . S
C2087 C2086 1.386 . S
C2087 C2091 1.393 . S
C2088 H2077 0.950 . S
C2088 C2086 1.391 . S
C2088 C2089 1.400 . S
C2089 C2083 1.491 . S
C2089 C2088 1.400 . S
C2089 C2090 1.398 . S
C2090 H2078 0.950 . S
C2090 C2089 1.398 . S
C2090 C2091 1.391 . S
C2091 H2079 0.950 . S
C2091 C2087 1.393 . S
C2091 C2090 1.391 . S
H2092 C2100 0.950 . S
H2093 C2105 0.950 . S
H2094 C2102 0.950 . S
H2095 C2104 0.950 . S
H2096 C2106 0.950 . S
H2097 C2108 0.950 . S
H2098 C2110 0.950 . S
H2099 C2111 0.950 . S
C2100 H2092 0.950 . S
C2100 C2101 1.386 . S
C2100 C2102 1.391 . S
C2101 C2100 1.386 . S
C2101 C2105 1.393 . S
C2102 H2094 0.950 . S
C2102 C2100 1.391 . S
C2102 C2103 1.400 . S
C2103 C2102 1.400 . S
C2103 C2104 1.398 . S
C2103 C2109 1.491 . S
C2104 H2095 0.950 . S
C2104 C2103 1.398 . S
C2104 C2105 1.391 . S
C2105 H2093 0.950 . S
C2105 C2101 1.393 . S
C2105 C2104 1.391 . S
C2106 H2096 0.950 . S
C2106 C2107 1.386 . S
C2106 C2108 1.391 . S
C2107 C2106 1.386 . S
C2107 C2111 1.393 . S
C2108 H2097 0.950 . S
C2108 C2106 1.391 . S
C2108 C2109 1.400 . S
C2109 C2103 1.491 . S
C2109 C2108 1.400 . S
C2109 C2110 1.398 . S
C2110 H2098 0.950 . S
C2110 C2109 1.398 . S
C2110 C2111 1.391 . S
C2111 H2099 0.950 . S
C2111 C2107 1.393 . S
C2111 C2110 1.391 . S
H2112 C2120 0.950 . S
H2113 C2125 0.950 . S
H2114 C2122 0.950 . S
H2115 C2124 0.950 . S
H2116 C2126 0.950 . S
H2117 C2128 0.950 . S
H2118 C2130 0.950 . S
H2119 C2131 0.950 . S
C2120 H2112 0.950 . S
C2120 C2121 1.386 . S
C2120 C2122 1.391 . S
C2121 C2120 1.386 . S
C2121 C2125 1.393 . S
C2122 H2114 0.950 . S
C2122 C2120 1.391 . S
C2122 C2123 1.400 . S
C2123 C2122 1.400 . S
C2123 C2124 1.398 . S
C2123 C2129 1.491 . S
C2124 H2115 0.950 . S
C2124 C2123 1.398 . S
C2124 C2125 1.391 . S
C2125 H2113 0.950 . S
C2125 C2121 1.393 . S
C2125 C2124 1.391 . S
C2126 H2116 0.950 . S
C2126 C2127 1.386 . S
C2126 C2128 1.391 . S
C2127 C2126 1.386 . S
C2127 C2131 1.393 . S
C2128 H2117 0.950 . S
C2128 C2126 1.391 . S
C2128 C2129 1.400 . S
C2129 C2123 1.491 . S
C2129 C2128 1.400 . S
C2129 C2130 1.398 . S
C2130 H2118 0.950 . S
C2130 C2129 1.398 . S
C2130 C2131 1.391 . S
C2131 H2119 0.950 . S
C2131 C2127 1.393 . S
C2131 C2130 1.391 . S
H2132 C2140 0.950 . S
H2133 C2145 0.950 . S
H2134 C2142 0.950 . S
H2135 C2144 0.950 . S
H2136 C2146 0.950 . S
H2137 C2148 0.950 . S
H2138 C2150 0.950 . S
H2139 C2151 0.950 . S
C2140 H2132 0.950 . S
C2140 C2141 1.386 . S
C2140 C2142 1.391 . S
C2141 C2140 1.386 . S
C2141 C2145 1.393 . S
C2142 H2134 0.950 . S
C2142 C2140 1.391 . S
C2142 C2143 1.400 . S
C2143 C2142 1.400 . S
C2143 C2144 1.398 . S
C2143 C2149 1.491 . S
C2144 H2135 0.950 . S
C2144 C2143 1.398 . S
C2144 C2145 1.391 . S
C2145 H2133 0.950 . S
C2145 C2141 1.393 . S
C2145 C2144 1.391 . S
C2146 H2136 0.950 . S
C2146 C2147 1.386 . S
C2146 C2148 1.391 . S
C2147 C2146 1.386 . S
C2147 C2151 1.393 . S
C2148 H2137 0.950 . S
C2148 C2146 1.391 . S
C2148 C2149 1.400 . S
C2149 C2143 1.491 . S
C2149 C2148 1.400 . S
C2149 C2150 1.398 . S
C2150 H2138 0.950 . S
C2150 C2149 1.398 . S
C2150 C2151 1.391 . S
C2151 H2139 0.950 . S
C2151 C2147 1.393 . S
C2151 C2150 1.391 . S
H2152 C2160 0.950 . S
H2153 C2165 0.950 . S
H2154 C2162 0.950 . S
H2155 C2164 0.950 . S
H2156 C2166 0.950 . S
H2157 C2168 0.950 . S
H2158 C2170 0.950 . S
H2159 C2171 0.950 . S
C2160 H2152 0.950 . S
C2160 C2161 1.386 . S
C2160 C2162 1.391 . S
C2161 C2160 1.386 . S
C2161 C2165 1.393 . S
C2162 H2154 0.950 . S
C2162 C2160 1.391 . S
C2162 C2163 1.400 . S
C2163 C2162 1.400 . S
C2163 C2164 1.398 . S
C2163 C2169 1.491 . S
C2164 H2155 0.950 . S
C2164 C2163 1.398 . S
C2164 C2165 1.391 . S
C2165 H2153 0.950 . S
C2165 C2161 1.393 . S
C2165 C2164 1.391 . S
C2166 H2156 0.950 . S
C2166 C2167 1.386 . S
C2166 C2168 1.391 . S
C2167 C2166 1.386 . S
C2167 C2171 1.393 . S
C2168 H2157 0.950 . S
C2168 C2166 1.391 . S
C2168 C2169 1.400 . S
C2169 C2163 1.491 . S
C2169 C2168 1.400 . S
C2169 C2170 1.398 . S
C2170 H2158 0.950 . S
C2170 C2169 1.398 . S
C2170 C2171 1.391 . S
C2171 H2159 0.950 . S
C2171 C2167 1.393 . S
C2171 C2170 1.391 . S
H2172 C2180 0.950 . S
H2173 C2185 0.950 . S
H2174 C2182 0.950 . S
H2175 C2184 0.950 . S
H2176 C2186 0.950 . S
H2177 C2188 0.950 . S
H2178 C2190 0.950 . S
H2179 C2191 0.950 . S
C2180 H2172 0.950 . S
C2180 C2181 1.386 . S
C2180 C2182 1.391 . S
C2181 C2180 1.386 . S
C2181 C2185 1.393 . S
C2182 H2174 0.950 . S
C2182 C2180 1.391 . S
C2182 C2183 1.400 . S
C2183 C2182 1.400 . S
C2183 C2184 1.398 . S
C2183 C2189 1.491 . S
C2184 H2175 0.950 . S
C2184 C2183 1.398 . S
C2184 C2185 1.391 . S
C2185 H2173 0.950 . S
C2185 C2181 1.393 . S
C2185 C2184 1.391 . S
C2186 H2176 0.950 . S
C2186 C2187 1.386 . S
C2186 C2188 1.391 . S
C2187 C2186 1.386 . S
C2187 C2191 1.393 . S
C2188 H2177 0.950 . S
C2188 C2186 1.391 . S
C2188 C2189 1.400 . S
C2189 C2183 1.491 . S
C2189 C2188 1.400 . S
C2189 C2190 1.398 . S
C2190 H2178 0.950 . S
C2190 C2189 1.398 . S
C2190 C2191 1.391 . S
C2191 H2179 0.950 . S
C2191 C2187 1.393 . S
C2191 C2190 1.391 . S
H2192 C2200 0.950 . S
H2193 C2205 0.950 . S
H2194 C2202 0.950 . S
H2195 C2204 0.950 . S
H2196 C2206 0.950 . S
H2197 C2208 0.950 . S
H2198 C2210 0.950 . S
H2199 C2211 0.950 . S
C2200 H2192 0.950 . S
C2200 C2201 1.386 . S
C2200 C2202 1.391 . S
C2201 C2200 1.386 . S
C2201 C2205 1.393 . S
C2202 H2194 0.950 . S
C2202 C2200 1.391 . S
C2202 C2203 1.400 . S
C2203 C2202 1.400 . S
C2203 C2204 1.398 . S
C2203 C2209 1.491 . S
C2204 H2195 0.950 . S
C2204 C2203 1.398 . S
C2204 C2205 1.391 . S
C2205 H2193 0.950 . S
C2205 C2201 1.393 . S
C2205 C2204 1.391 . S
C2206 H2196 0.950 . S
C2206 C2207 1.386 . S
C2206 C2208 1.391 . S
C2207 C2206 1.386 . S
C2207 C2211 1.393 . S
C2208 H2197 0.950 . S
C2208 C2206 1.391 . S
C2208 C2209 1.400 . S
C2209 C2203 1.491 . S
C2209 C2208 1.400 . S
C2209 C2210 1.398 . S
C2210 H2198 0.950 . S
C2210 C2209 1.398 . S
C2210 C2211 1.391 . S
C2211 H2199 0.950 . S
C2211 C2207 1.393 . S
C2211 C2210 1.391 . S
H2212 C2220 0.950 . S
H2213 C2225 0.950 . S
H2214 C2222 0.950 . S
H2215 C2224 0.950 . S
H2216 C2226 0.950 . S
H2217 C2228 0.950 . S
H2218 C2230 0.950 . S
H2219 C2231 0.950 . S
C2220 H2212 0.950 . S
C2220 C2221 1.386 . S
C2220 C2222 1.391 . S
C2221 C2220 1.386 . S
C2221 C2225 1.393 . S
C2222 H2214 0.950 . S
C2222 C2220 1.391 . S
C2222 C2223 1.400 . S
C2223 C2222 1.400 . S
C2223 C2224 1.398 . S
C2223 C2229 1.491 . S
C2224 H2215 0.950 . S
C2224 C2223 1.398 . S
C2224 C2225 1.391 . S
C2225 H2213 0.950 . S
C2225 C2221 1.393 . S
C2225 C2224 1.391 . S
C2226 H2216 0.950 . S
C2226 C2227 1.386 . S
C2226 C2228 1.391 . S
C2227 C2226 1.386 . S
C2227 C2231 1.393 . S
C2228 H2217 0.950 . S
C2228 C2226 1.391 . S
C2228 C2229 1.400 . S
C2229 C2223 1.491 . S
C2229 C2228 1.400 . S
C2229 C2230 1.398 . S
C2230 H2218 0.950 . S
C2230 C2229 1.398 . S
C2230 C2231 1.391 . S
C2231 H2219 0.950 . S
C2231 C2227 1.393 . S
C2231 C2230 1.391 . S
H2232 C2240 0.950 . S
H2233 C2245 0.950 . S
H2234 C2242 0.950 . S
H2235 C2244 0.950 . S
H2236 C2246 0.950 . S
H2237 C2248 0.950 . S
H2238 C2250 0.950 . S
H2239 C2251 0.950 . S
C2240 H2232 0.950 . S
C2240 C2241 1.386 . S
C2240 C2242 1.391 . S
C2241 C2240 1.386 . S
C2241 C2245 1.393 . S
C2242 H2234 0.950 . S
C2242 C2240 1.391 . S
C2242 C2243 1.400 . S
C2243 C2242 1.400 . S
C2243 C2244 1.398 . S
C2243 C2249 1.491 . S
C2244 H2235 0.950 . S
C2244 C2243 1.398 . S
C2244 C2245 1.391 . S
C2245 H2233 0.950 . S
C2245 C2241 1.393 . S
C2245 C2244 1.391 . S
C2246 H2236 0.950 . S
C2246 C2247 1.386 . S
C2246 C2248 1.391 . S
C2247 C2246 1.386 . S
C2247 C2251 1.393 . S
C2248 H2237 0.950 . S
C2248 C2246 1.391 . S
C2248 C2249 1.400 . S
C2249 C2243 1.491 . S
C2249 C2248 1.400 . S
C2249 C2250 1.398 . S
C2250 H2238 0.950 . S
C2250 C2249 1.398 . S
C2250 C2251 1.391 . S
C2251 H2239 0.950 . S
C2251 C2247 1.393 . S
C2251 C2250 1.391 . S
H2252 C2260 0.950 . S
H2253 C2265 0.950 . S
H2254 C2262 0.950 . S
H2255 C2264 0.950 . S
H2256 C2266 0.950 . S
H2257 C2268 0.950 . S
H2258 C2270 0.950 . S
H2259 C2271 0.950 . S
C2260 H2252 0.950 . S
C2260 C2261 1.386 . S
C2260 C2262 1.391 . S
C2261 C2260 1.386 . S
C2261 C2265 1.393 . S
C2262 H2254 0.950 . S
C2262 C2260 1.391 . S
C2262 C2263 1.400 . S
C2263 C2262 1.400 . S
C2263 C2264 1.398 . S
C2263 C2269 1.491 . S
C2264 H2255 0.950 . S
C2264 C2263 1.398 . S
C2264 C2265 1.391 . S
C2265 H2253 0.950 . S
C2265 C2261 1.393 . S
C2265 C2264 1.391 . S
C2266 H2256 0.950 . S
C2266 C2267 1.386 . S
C2266 C2268 1.391 . S
C2267 C2266 1.386 . S
C2267 C2271 1.393 . S
C2268 H2257 0.950 . S
C2268 C2266 1.391 . S
C2268 C2269 1.400 . S
C2269 C2263 1.491 . S
C2269 C2268 1.400 . S
C2269 C2270 1.398 . S
C2270 H2258 0.950 . S
C2270 C2269 1.398 . S
C2270 C2271 1.391 . S
C2271 H2259 0.950 . S
C2271 C2267 1.393 . S
C2271 C2270 1.391 . S
H2272 C2280 0.950 . S
H2273 C2285 0.950 . S
H2274 C2282 0.950 . S
H2275 C2284 0.950 . S
H2276 C2286 0.950 . S
H2277 C2288 0.950 . S
H2278 C2290 0.950 . S
H2279 C2291 0.950 . S
C2280 H2272 0.950 . S
C2280 C2281 1.386 . S
C2280 C2282 1.391 . S
C2281 C2280 1.386 . S
C2281 C2285 1.393 . S
C2282 H2274 0.950 . S
C2282 C2280 1.391 . S
C2282 C2283 1.400 . S
C2283 C2282 1.400 . S
C2283 C2284 1.398 . S
C2283 C2289 1.491 . S
C2284 H2275 0.950 . S
C2284 C2283 1.398 . S
C2284 C2285 1.391 . S
C2285 H2273 0.950 . S
C2285 C2281 1.393 . S
C2285 C2284 1.391 . S
C2286 H2276 0.950 . S
C2286 C2287 1.386 . S
C2286 C2288 1.391 . S
C2287 C2286 1.386 . S
C2287 C2291 1.393 . S
C2288 H2277 0.950 . S
C2288 C2286 1.391 . S
C2288 C2289 1.400 . S
C2289 C2283 1.491 . S
C2289 C2288 1.400 . S
C2289 C2290 1.398 . S
C2290 H2278 0.950 . S
C2290 C2289 1.398 . S
C2290 C2291 1.391 . S
C2291 H2279 0.950 . S
C2291 C2287 1.393 . S
C2291 C2290 1.391 . S
H2292 C2300 0.950 . S
H2293 C2305 0.950 . S
H2294 C2302 0.950 . S
H2295 C2304 0.950 . S
H2296 C2306 0.950 . S
H2297 C2308 0.950 . S
H2298 C2310 0.950 . S
H2299 C2311 0.950 . S
C2300 H2292 0.950 . S
C2300 C2301 1.386 . S
C2300 C2302 1.391 . S
C2301 C2300 1.386 . S
C2301 C2305 1.393 . S
C2302 H2294 0.950 . S
C2302 C2300 1.391 . S
C2302 C2303 1.400 . S
C2303 C2302 1.400 . S
C2303 C2304 1.398 . S
C2303 C2309 1.491 . S
C2304 H2295 0.950 . S
C2304 C2303 1.398 . S
C2304 C2305 1.391 . S
C2305 H2293 0.950 . S
C2305 C2301 1.393 . S
C2305 C2304 1.391 . S
C2306 H2296 0.950 . S
C2306 C2307 1.386 . S
C2306 C2308 1.391 . S
C2307 C2306 1.386 . S
C2307 C2311 1.393 . S
C2308 H2297 0.950 . S
C2308 C2306 1.391 . S
C2308 C2309 1.400 . S
C2309 C2303 1.491 . S
C2309 C2308 1.400 . S
C2309 C2310 1.398 . S
C2310 H2298 0.950 . S
C2310 C2309 1.398 . S
C2310 C2311 1.391 . S
C2311 H2299 0.950 . S
C2311 C2307 1.393 . S
C2311 C2310 1.391 . S
H2312 C2320 0.950 . S
H2313 C2325 0.950 . S
H2314 C2322 0.950 . S
H2315 C2324 0.950 . S
H2316 C2326 0.950 . S
H2317 C2328 0.950 . S
H2318 C2330 0.950 . S
H2319 C2331 0.950 . S
C2320 H2312 0.950 . S
C2320 C2321 1.386 . S
C2320 C2322 1.391 . S
C2321 C2320 1.386 . S
C2321 C2325 1.393 . S
C2322 H2314 0.950 . S
C2322 C2320 1.391 . S
C2322 C2323 1.400 . S
C2323 C2322 1.400 . S
C2323 C2324 1.398 . S
C2323 C2329 1.491 . S
C2324 H2315 0.950 . S
C2324 C2323 1.398 . S
C2324 C2325 1.391 . S
C2325 H2313 0.950 . S
C2325 C2321 1.393 . S
C2325 C2324 1.391 . S
C2326 H2316 0.950 . S
C2326 C2327 1.386 . S
C2326 C2328 1.391 . S
C2327 C2326 1.386 . S
C2327 C2331 1.393 . S
C2328 H2317 0.950 . S
C2328 C2326 1.391 . S
C2328 C2329 1.400 . S
C2329 C2323 1.491 . S
C2329 C2328 1.400 . S
C2329 C2330 1.398 . S
C2330 H2318 0.950 . S
C2330 C2329 1.398 . S
C2330 C2331 1.391 . S
C2331 H2319 0.950 . S
C2331 C2327 1.393 . S
C2331 C2330 1.391 . S
H2332 C2340 0.950 . S
H2333 C2345 0.950 . S
H2334 C2342 0.950 . S
H2335 C2344 0.950 . S
H2336 C2346 0.950 . S
H2337 C2348 0.950 . S
H2338 C2350 0.950 . S
H2339 C2351 0.950 . S
C2340 H2332 0.950 . S
C2340 C2341 1.386 . S
C2340 C2342 1.391 . S
C2341 C2340 1.386 . S
C2341 C2345 1.393 . S
C2342 H2334 0.950 . S
C2342 C2340 1.391 . S
C2342 C2343 1.400 . S
C2343 C2342 1.400 . S
C2343 C2344 1.398 . S
C2343 C2349 1.491 . S
C2344 H2335 0.950 . S
C2344 C2343 1.398 . S
C2344 C2345 1.391 . S
C2345 H2333 0.950 . S
C2345 C2341 1.393 . S
C2345 C2344 1.391 . S
C2346 H2336 0.950 . S
C2346 C2347 1.386 . S
C2346 C2348 1.391 . S
C2347 C2346 1.386 . S
C2347 C2351 1.393 . S
C2348 H2337 0.950 . S
C2348 C2346 1.391 . S
C2348 C2349 1.400 . S
C2349 C2343 1.491 . S
C2349 C2348 1.400 . S
C2349 C2350 1.398 . S
C2350 H2338 0.950 . S
C2350 C2349 1.398 . S
C2350 C2351 1.391 . S
C2351 H2339 0.950 . S
C2351 C2347 1.393 . S
C2351 C2350 1.391 . S
H2352 C2360 0.950 . S
H2353 C2365 0.950 . S
H2354 C2362 0.950 . S
H2355 C2364 0.950 . S
H2356 C2366 0.950 . S
H2357 C2368 0.950 . S
H2358 C2370 0.950 . S
H2359 C2371 0.950 . S
C2360 H2352 0.950 . S
C2360 C2361 1.386 . S
C2360 C2362 1.391 . S
C2361 C2360 1.386 . S
C2361 C2365 1.393 . S
C2362 H2354 0.950 . S
C2362 C2360 1.391 . S
C2362 C2363 1.400 . S
C2363 C2362 1.400 . S
C2363 C2364 1.398 . S
C2363 C2369 1.491 . S
C2364 H2355 0.950 . S
C2364 C2363 1.398 . S
C2364 C2365 1.391 . S
C2365 H2353 0.950 . S
C2365 C2361 1.393 . S
C2365 C2364 1.391 . S
C2366 H2356 0.950 . S
C2366 C2367 1.386 . S
C2366 C2368 1.391 . S
C2367 C2366 1.386 . S
C2367 C2371 1.393 . S
C2368 H2357 0.950 . S
C2368 C2366 1.391 . S
C2368 C2369 1.400 . S
C2369 C2363 1.491 . S
C2369 C2368 1.400 . S
C2369 C2370 1.398 . S
C2370 H2358 0.950 . S
C2370 C2369 1.398 . S
C2370 C2371 1.391 . S
C2371 H2359 0.950 . S
C2371 C2367 1.393 . S
C2371 C2370 1.391 . S
H2372 C2380 0.950 . S
H2373 C2385 0.950 . S
H2374 C2382 0.950 . S
H2375 C2384 0.950 . S
H2376 C2386 0.950 . S
H2377 C2388 0.950 . S
H2378 C2390 0.950 . S
H2379 C2391 0.950 . S
C2380 H2372 0.950 . S
C2380 C2381 1.386 . S
C2380 C2382 1.391 . S
C2381 C2380 1.386 . S
C2381 C2385 1.393 . S
C2382 H2374 0.950 . S
C2382 C2380 1.391 . S
C2382 C2383 1.400 . S
C2383 C2382 1.400 . S
C2383 C2384 1.398 . S
C2383 C2389 1.491 . S
C2384 H2375 0.950 . S
C2384 C2383 1.398 . S
C2384 C2385 1.391 . S
C2385 H2373 0.950 . S
C2385 C2381 1.393 . S
C2385 C2384 1.391 . S
C2386 H2376 0.950 . S
C2386 C2387 1.386 . S
C2386 C2388 1.391 . S
C2387 C2386 1.386 . S
C2387 C2391 1.393 . S
C2388 H2377 0.950 . S
C2388 C2386 1.391 . S
C2388 C2389 1.400 . S
C2389 C2383 1.491 . S
C2389 C2388 1.400 . S
C2389 C2390 1.398 . S
C2390 H2378 0.950 . S
C2390 C2389 1.398 . S
C2390 C2391 1.391 . S
C2391 H2379 0.950 . S
C2391 C2387 1.393 . S
C2391 C2390 1.391 . S
H2392 C2400 0.950 . S
H2393 C2405 0.950 . S
H2394 C2402 0.950 . S
H2395 C2404 0.950 . S
H2396 C2406 0.950 . S
H2397 C2408 0.950 . S
H2398 C2410 0.950 . S
H2399 C2411 0.950 . S
C2400 H2392 0.950 . S
C2400 C2401 1.386 . S
C2400 C2402 1.391 . S
C2401 C2400 1.386 . S
C2401 C2405 1.393 . S
C2402 H2394 0.950 . S
C2402 C2400 1.391 . S
C2402 C2403 1.400 . S
C2403 C2402 1.400 . S
C2403 C2404 1.398 . S
C2403 C2409 1.491 . S
C2404 H2395 0.950 . S
C2404 C2403 1.398 . S
C2404 C2405 1.391 . S
C2405 H2393 0.950 . S
C2405 C2401 1.393 . S
C2405 C2404 1.391 . S
C2406 H2396 0.950 . S
C2406 C2407 1.386 . S
C2406 C2408 1.391 . S
C2407 C2406 1.386 . S
C2407 C2411 1.393 . S
C2408 H2397 0.950 . S
C2408 C2406 1.391 . S
C2408 C2409 1.400 . S
C2409 C2403 1.491 . S
C2409 C2408 1.400 . S
C2409 C2410 1.398 . S
C2410 H2398 0.950 . S
C2410 C2409 1.398 . S
C2410 C2411 1.391 . S
C2411 H2399 0.950 . S
C2411 C2407 1.393 . S
C2411 C2410 1.391 . S
H2412 C2420 0.950 . S
H2413 C2425 0.950 . S
H2414 C2422 0.950 . S
H2415 C2424 0.950 . S
H2416 C2426 0.950 . S
H2417 C2428 0.950 . S
H2418 C2430 0.950 . S
H2419 C2431 0.950 . S
C2420 H2412 0.950 . S
C2420 C2421 1.386 . S
C2420 C2422 1.391 . S
C2421 C2420 1.386 . S
C2421 C2425 1.393 . S
C2422 H2414 0.950 . S
C2422 C2420 1.391 . S
C2422 C2423 1.400 . S
C2423 C2422 1.400 . S
C2423 C2424 1.398 . S
C2423 C2429 1.491 . S
C2424 H2415 0.950 . S
C2424 C2423 1.398 . S
C2424 C2425 1.391 . S
C2425 H2413 0.950 . S
C2425 C2421 1.393 . S
C2425 C2424 1.391 . S
C2426 H2416 0.950 . S
C2426 C2427 1.386 . S
C2426 C2428 1.391 . S
C2427 C2426 1.386 . S
C2427 C2431 1.393 . S
C2428 H2417 0.950 . S
C2428 C2426 1.391 . S
C2428 C2429 1.400 . S
C2429 C2423 1.491 . S
C2429 C2428 1.400 . S
C2429 C2430 1.398 . S
C2430 H2418 0.950 . S
C2430 C2429 1.398 . S
C2430 C2431 1.391 . S
C2431 H2419 0.950 . S
C2431 C2427 1.393 . S
C2431 C2430 1.391 . S
C1161 C1048 1.526 . S
C1167 C4 1.524 . S
C1181 C40 1.527 . S
C1187 C1084 1.522 . S
C1201 C1120 1.519 . S
C1207 C76 1.530 . S
C1221 C1012 1.531 . S
C1227 C112 1.518 . S
C1241 C148 1.530 . S
C1247 C976 1.519 . S
C1261 C868 1.531 . S
C1267 C184 1.518 . S
C1281 C220 1.530 . S
C1287 C904 1.519 . S
C1301 C940 1.518 . S
C1307 C256 1.531 . S
C1321 C292 1.529 . S
C1327 C760 1.520 . S
C1341 C328 1.520 . S
C1347 C796 1.529 . S
C1361 C832 1.518 . S
C1367 C364 1.531 . S
C1381 C400 1.531 . S
C1387 C724 1.518 . S
C1401 C688 1.528 . S
C1407 C436 1.521 . S
C1421 C580 1.530 . S
C1427 C472 1.519 . S
C1441 C508 1.519 . S
C1447 C616 1.530 . S
C1461 C544 1.531 . S
C1467 C652 1.518 . S
C1481 C14 1.284 . S
C1487 C374 1.320 . S
C1501 C410 1.311 . S
C1507 C50 1.294 . S
C1521 C302 1.319 . S
C1527 C86 1.285 . S
C1541 C338 1.292 . S
C1547 C122 1.313 . S
C1561 C158 1.286 . S
C1567 C518 1.318 . S
C1581 C554 1.302 . S
C1587 C194 1.303 . S
C1601 C446 1.320 . S
C1607 C230 1.284 . S
C1621 C482 1.305 . S
C1627 C266 1.300 . S
C1641 C590 1.287 . S
C1647 C950 1.317 . S
C1661 C986 1.319 . S
C1667 C626 1.285 . S
C1681 C878 1.305 . S
C1687 C662 1.300 . S
C1701 C698 1.307 . S
C1707 C914 1.298 . S
C1721 C734 1.284 . S
C1727 C1094 1.320 . S
C1741 C1130 1.301 . S
C1747 C770 1.304 . S
C1761 C1022 1.313 . S
C1767 C806 1.292 . S
C1781 C842 1.312 . S
C1787 C1058 1.293 . S
C1801 C3 1.429 . S
C1807 C147 1.436 . S
C1821 C39 1.428 . S
C1827 C183 1.434 . S
C1841 C219 1.428 . S
C1847 C75 1.434 . S
C1861 C111 1.436 . S
C1867 C255 1.431 . S
C1881 C291 1.435 . S
C1887 C435 1.435 . S
C1901 C471 1.429 . S
C1907 C327 1.435 . S
C1921 C507 1.434 . S
C1927 C363 1.435 . S
C1941 C399 1.431 . S
C1947 C543 1.436 . S
C1961 C579 1.432 . S
C1967 C723 1.428 . S
C1981 C759 1.428 . S
C1987 C615 1.432 . S
C2001 C651 1.436 . S
C2007 C795 1.433 . S
C2021 C831 1.435 . S
C2027 C687 1.429 . S
C2041 C1011 1.430 . S
C2047 C867 1.436 . S
C2061 C903 1.430 . S
C2067 C1047 1.429 . S
C2081 C939 1.429 . S
C2087 C1083 1.430 . S
C2101 C975 1.431 . S
C2107 C1119 1.436 . S
C2121 C2 1.351 . S
C2127 C182 1.359 . S
C2141 C38 1.365 . S
C2147 C218 1.352 . S
C2161 C254 1.363 . S
C2167 C74 1.363 . S
C2181 C146 1.352 . S
C2187 C110 1.356 . S
C2201 C470 1.361 . S
C2207 C290 1.351 . S
C2221 C506 1.363 . S
C2227 C326 1.351 . S
C2241 C542 1.358 . S
C2247 C362 1.366 . S
C2261 C398 1.359 . S
C2267 C434 1.351 . S
C2281 C578 1.359 . S
C2287 C758 1.351 . S
C2301 C794 1.358 . S
C2307 C614 1.366 . S
C2321 C830 1.366 . S
C2327 C650 1.355 . S
C2341 C686 1.362 . S
C2347 C722 1.351 . S
C2361 C1046 1.361 . S
C2367 C866 1.351 . S
C2381 C902 1.358 . S
C2387 C1082 1.351 . S
C2401 C938 1.353 . S
C2407 C1118 1.356 . S
C2421 C1010 1.359 . S
C2427 C974 1.366 . S
