# Generated by pormake.
# Topology wjg, (4)-cn, num edge types: 1
# Building blocks:
#     Node 0, Type 0, BuildingBlock: TATPOV_clean_sbu_0, # of connection points: 4
#     Node 1, Type 0, BuildingBlock: TATPOV_clean_sbu_0, # of connection points: 4
#     Node 2, Type 0, BuildingBlock: TATPOV_clean_sbu_0, # of connection points: 4
#     Node 3, Type 0, BuildingBlock: TATPOV_clean_sbu_0, # of connection points: 4
#     Node 4, Type 0, BuildingBlock: TATPOV_clean_sbu_0, # of connection points: 4
#     Node 5, Type 0, BuildingBlock: TATPOV_clean_sbu_0, # of connection points: 4
#     Node 6, Type 0, BuildingBlock: TATPOV_clean_sbu_0, # of connection points: 4
#     Node 7, Type 0, BuildingBlock: TATPOV_clean_sbu_0, # of connection points: 4
#     Node 8, Type 0, BuildingBlock: TATPOV_clean_sbu_0, # of connection points: 4
#     Node 9, Type 0, BuildingBlock: TATPOV_clean_sbu_0, # of connection points: 4
#     Node 10, Type 0, BuildingBlock: TATPOV_clean_sbu_0, # of connection points: 4
#     Node 11, Type 0, BuildingBlock: TATPOV_clean_sbu_0, # of connection points: 4
#     Edge 12, Type (0, 0), BuildingBlock: ZUJKAS_clean_linker_0, # of connection points: 2
#     Edge 13, Type (0, 0), BuildingBlock: ZUJKAS_clean_linker_0, # of connection points: 2
#     Edge 14, Type (0, 0), BuildingBlock: ZUJKAS_clean_linker_0, # of connection points: 2
#     Edge 15, Type (0, 0), BuildingBlock: ZUJKAS_clean_linker_0, # of connection points: 2
#     Edge 16, Type (0, 0), BuildingBlock: ZUJKAS_clean_linker_0, # of connection points: 2
#     Edge 17, Type (0, 0), BuildingBlock: ZUJKAS_clean_linker_0, # of connection points: 2
#     Edge 18, Type (0, 0), BuildingBlock: ZUJKAS_clean_linker_0, # of connection points: 2
#     Edge 19, Type (0, 0), BuildingBlock: ZUJKAS_clean_linker_0, # of connection points: 2
#     Edge 20, Type (0, 0), BuildingBlock: ZUJKAS_clean_linker_0, # of connection points: 2
#     Edge 21, Type (0, 0), BuildingBlock: ZUJKAS_clean_linker_0, # of connection points: 2
#     Edge 22, Type (0, 0), BuildingBlock: ZUJKAS_clean_linker_0, # of connection points: 2
#     Edge 23, Type (0, 0), BuildingBlock: ZUJKAS_clean_linker_0, # of connection points: 2
#     Edge 24, Type (0, 0), BuildingBlock: ZUJKAS_clean_linker_0, # of connection points: 2
#     Edge 25, Type (0, 0), BuildingBlock: ZUJKAS_clean_linker_0, # of connection points: 2
#     Edge 26, Type (0, 0), BuildingBlock: ZUJKAS_clean_linker_0, # of connection points: 2
#     Edge 27, Type (0, 0), BuildingBlock: ZUJKAS_clean_linker_0, # of connection points: 2
#     Edge 28, Type (0, 0), BuildingBlock: ZUJKAS_clean_linker_0, # of connection points: 2
#     Edge 29, Type (0, 0), BuildingBlock: ZUJKAS_clean_linker_0, # of connection points: 2
#     Edge 30, Type (0, 0), BuildingBlock: ZUJKAS_clean_linker_0, # of connection points: 2
#     Edge 31, Type (0, 0), BuildingBlock: ZUJKAS_clean_linker_0, # of connection points: 2
#     Edge 32, Type (0, 0), BuildingBlock: ZUJKAS_clean_linker_0, # of connection points: 2
#     Edge 33, Type (0, 0), BuildingBlock: ZUJKAS_clean_linker_0, # of connection points: 2
#     Edge 34, Type (0, 0), BuildingBlock: ZUJKAS_clean_linker_0, # of connection points: 2
#     Edge 35, Type (0, 0), BuildingBlock: ZUJKAS_clean_linker_0, # of connection points: 2
# Relax obj value: 0.300
# Max RMSD: 0.116
# Mean RMSD: 0.115
data_MOF--net-wjg--node1-TATPOV_clean_sbu_0--edge1-ZUJKAS_clean_linker_0
_symmetry_space_group_name_H-M    P1
_symmetry_Int_Tables_number       1
_symmetry_cell_setting            triclinic
loop_
_symmetry_equiv_pos_as_xyz
'x, y, z'
_cell_length_a     45.489247
_cell_length_b     45.446624
_cell_length_c     46.151866
_cell_angle_alpha  89.993625
_cell_angle_beta   90.016563
_cell_angle_gamma 120.04098
loop_
_atom_site_label
_atom_site_type_symbol
_atom_site_fract_x
_atom_site_fract_y
_atom_site_fract_z
_atom_type_partial_charge
Zn0 Zn 0.22698 0.43776 0.34815 0.0
Zn1 Zn 0.17479 0.42172 0.31663 0.0
O2 O 0.2058 0.4753 0.31461 0.0
O3 O 0.2481 0.4871 0.3445 0.0
O4 O 0.13876 0.41127 0.28616 0.0
O5 O 0.24284 0.41128 0.32478 0.0
O6 O 0.19322 0.39057 0.30343 0.0
C7 C 0.23308 0.49691 0.32748 0.0
C8 C 0.16392 0.40122 0.37944 0.0
O9 O 0.15016 0.40168 0.35549 0.0
O10 O 0.19585 0.41499 0.3815 0.0
C11 C 0.10713 0.39927 0.29028 0.0
O12 O 0.09519 0.39344 0.31686 0.0
C13 C 0.22048 0.38986 0.30791 0.0
Zn14 Zn 0.74555 0.20825 0.74051 0.0
Zn15 Zn 0.72773 0.15172 0.67108 0.0
O16 O 0.69856 0.17472 0.66191 0.0
O17 O 0.7183 0.18876 0.7044 0.0
O18 O 0.72466 0.12431 0.63547 0.0
O19 O 0.79164 0.22073 0.72205 0.0
O20 O 0.7786 0.18772 0.68189 0.0
C21 C 0.70282 0.19316 0.68373 0.0
C22 C 0.71808 0.13576 0.72861 0.0
O23 O 0.71313 0.11874 0.70558 0.0
O24 O 0.71052 0.15914 0.72723 0.0
C25 C 0.69446 0.10172 0.62892 0.0
O26 O 0.66946 0.09845 0.64543 0.0
C27 C 0.80027 0.21071 0.69922 0.0
Zn28 Zn 0.55589 0.74151 0.04448 0.0
Zn29 Zn 0.58023 0.73972 0.99004 0.0
O30 O 0.52701 0.71335 0.9879 0.0
O31 O 0.50863 0.71858 0.03081 0.0
O32 O 0.5966 0.7288 0.95286 0.0
O33 O 0.58763 0.79247 0.0367 0.0
O34 O 0.59838 0.79038 0.99017 0.0
C35 C 0.50271 0.70787 0.00504 0.0
C36 C 0.60473 0.72858 0.04889 0.0
O37 O 0.61008 0.73728 0.02239 0.0
O38 O 0.57422 0.71144 0.0569 0.0
C39 C 0.59776 0.70149 0.95068 0.0
O40 O 0.58772 0.68034 0.97271 0.0
C41 C 0.6015 0.80742 0.01308 0.0
Zn42 Zn 0.8124 0.55457 0.39173 0.0
Zn43 Zn 0.84067 0.57991 0.34344 0.0
O44 O 0.81809 0.52684 0.33912 0.0
O45 O 0.79391 0.50628 0.38129 0.0
O46 O 0.86906 0.59862 0.30714 0.0
O47 O 0.78589 0.57952 0.38554 0.0
O48 O 0.80606 0.59558 0.34144 0.0
C49 C 0.80071 0.50152 0.35582 0.0
C50 C 0.87552 0.60531 0.40398 0.0
O51 O 0.87297 0.60915 0.37687 0.0
O52 O 0.85415 0.57775 0.41585 0.0
C53 C 0.89441 0.59454 0.30291 0.0
O54 O 0.90164 0.57801 0.32238 0.0
C55 C 0.78739 0.59505 0.36223 0.0
Zn56 Zn 0.23289 0.7965 0.70165 0.0
Zn57 Zn 0.25054 0.83523 0.65715 0.0
O58 O 0.27496 0.8061 0.6534 0.0
O59 O 0.25896 0.77413 0.69263 0.0
O60 O 0.26587 0.86458 0.62085 0.0
O61 O 0.18364 0.77527 0.69161 0.0
O62 O 0.19802 0.80852 0.65337 0.0
C63 C 0.27589 0.78362 0.66947 0.0
C64 C 0.26492 0.86494 0.71879 0.0
O65 O 0.26487 0.86973 0.69157 0.0
O66 O 0.25353 0.83524 0.7286 0.0
C67 C 0.2715 0.89498 0.62034 0.0
O68 O 0.2673 0.90829 0.64413 0.0
C69 C 0.17517 0.78563 0.66941 0.0
Zn70 Zn 0.43376 0.2395 0.04278 0.0
Zn71 Zn 0.41652 0.25043 0.99453 0.0
O72 O 0.46981 0.27133 0.99318 0.0
O73 O 0.48225 0.25799 0.03541 0.0
O74 O 0.40559 0.26832 0.9582 0.0
O75 O 0.40025 0.18943 0.03551 0.0
O76 O 0.39166 0.19882 0.99036 0.0
C77 C 0.49166 0.2715 0.01077 0.0
C78 C 0.39506 0.26669 0.05421 0.0
O79 O 0.39039 0.25976 0.02724 0.0
O80 O 0.41972 0.26665 0.06668 0.0
C81 C 0.3761 0.26443 0.95466 0.0
O82 O 0.35275 0.24784 0.97441 0.0
C83 C 0.3863 0.1782 0.01109 0.0
Zn84 Zn 0.6014 0.81123 0.28643 0.0
Zn85 Zn 0.61038 0.84819 0.32946 0.0
O86 O 0.55763 0.81383 0.32957 0.0
O87 O 0.55345 0.7789 0.29471 0.0
O88 O 0.62047 0.87812 0.36493 0.0
O89 O 0.63763 0.80075 0.29614 0.0
O90 O 0.6404 0.82614 0.3374 0.0
C91 C 0.5396 0.78734 0.31418 0.0
C92 C 0.62302 0.87746 0.26815 0.0
O93 O 0.62737 0.88338 0.29529 0.0
O94 O 0.61053 0.84747 0.25879 0.0
C95 C 0.59901 0.88166 0.37995 0.0
O96 O 0.56678 0.86482 0.37264 0.0
C97 C 0.64971 0.80939 0.32135 0.0
Zn98 Zn 0.75715 0.55812 0.61218 0.0
Zn99 Zn 0.74356 0.58232 0.65659 0.0
O100 O 0.71879 0.52886 0.66116 0.0
O101 O 0.72897 0.50949 0.62099 0.0
O102 O 0.72653 0.59648 0.6916 0.0
O103 O 0.80687 0.58455 0.62367 0.0
O104 O 0.795 0.60566 0.66195 0.0
C105 C 0.71501 0.50394 0.64554 0.0
C106 C 0.73596 0.60251 0.59389 0.0
O107 O 0.73641 0.60686 0.62126 0.0
O108 O 0.74037 0.5791 0.58395 0.0
C109 C 0.72972 0.62578 0.6946 0.0
O110 O 0.74486 0.64857 0.67412 0.0
C111 C 0.81665 0.60382 0.64568 0.0
Zn112 Zn 0.21106 0.77499 0.93924 0.0
Zn113 Zn 0.15615 0.7432 0.0063 0.0
O114 O 0.18485 0.71943 0.01261 0.0
O115 O 0.20879 0.74519 0.97268 0.0
O116 O 0.12563 0.73293 0.04134 0.0
O117 O 0.21301 0.81564 0.95944 0.0
O118 O 0.18559 0.79595 0.00214 0.0
C119 C 0.20749 0.72658 0.99351 0.0
C120 C 0.14291 0.73261 0.94803 0.0
O121 O 0.12546 0.72908 0.97044 0.0
O122 O 0.1696 0.73111 0.95181 0.0
C123 C 0.10473 0.70216 0.04781 0.0
O124 O 0.10375 0.6779 0.03162 0.0
C125 C 0.20369 0.82017 0.98438 0.0
Zn126 Zn 0.43751 0.23259 0.31139 0.0
Zn127 Zn 0.41624 0.17832 0.34242 0.0
O128 O 0.46961 0.20666 0.34712 0.0
O129 O 0.48519 0.25447 0.32365 0.0
O130 O 0.40225 0.14051 0.37182 0.0
O131 O 0.40653 0.246 0.33025 0.0
O132 O 0.38671 0.19877 0.35546 0.0
C133 C 0.49268 0.23629 0.33912 0.0
C134 C 0.40292 0.17075 0.278 0.0
O135 O 0.39773 0.15622 0.3026 0.0
O136 O 0.42106 0.20277 0.27603 0.0
C137 C 0.38525 0.10864 0.36731 0.0
O138 O 0.37595 0.09731 0.34077 0.0
C139 C 0.38575 0.22541 0.34854 0.0
Zn140 Zn 0.2097 0.42074 0.63181 0.0
Zn141 Zn 0.23234 0.40437 0.67551 0.0
O142 O 0.26051 0.45828 0.67305 0.0
O143 O 0.24091 0.46965 0.63355 0.0
O144 O 0.25143 0.39312 0.71081 0.0
O145 O 0.16296 0.40001 0.64844 0.0
O146 O 0.18108 0.38262 0.68523 0.0
C147 C 0.26111 0.47978 0.65475 0.0
C148 C 0.2323 0.37581 0.61541 0.0
O149 O 0.23799 0.37618 0.6425 0.0
O150 O 0.22082 0.39382 0.60519 0.0
C151 C 0.28071 0.39596 0.7106 0.0
O152 O 0.29937 0.40726 0.68707 0.0
C153 C 0.15701 0.38357 0.67189 0.0
Zn154 Zn 0.81089 0.2051 0.95147 0.0
Zn155 Zn 0.84423 0.23782 0.99644 0.0
O156 O 0.80585 0.2504 0.99318 0.0
O157 O 0.77794 0.22144 0.95457 0.0
O158 O 0.87001 0.26195 0.0329 0.0
O159 O 0.80083 0.16027 0.96606 0.0
O160 O 0.82739 0.18667 0.00601 0.0
C161 C 0.78183 0.24178 0.97484 0.0
C162 C 0.87812 0.2525 0.93655 0.0
O163 O 0.8809 0.25944 0.96353 0.0
O164 O 0.85027 0.22976 0.92613 0.0
C165 C 0.90048 0.2686 0.0364 0.0
O166 O 0.91484 0.25991 0.01603 0.0
C167 C 0.81119 0.15937 0.99124 0.0
H168 H 0.24179 0.54242 0.36849 0.0
H169 H 0.2849 0.60267 0.36785 0.0
H170 H 0.30551 0.59404 0.27798 0.0
H171 H 0.26173 0.53368 0.27852 0.0
H172 H 0.34948 0.615 0.35781 0.0
H173 H 0.31921 0.6905 0.28179 0.0
H174 H 0.28699 0.65055 0.29692 0.0
H175 H 0.31242 0.65106 0.26689 0.0
C176 C 0.25425 0.5539 0.34819 0.0
C177 C 0.2483 0.53372 0.32345 0.0
C178 C 0.279 0.58824 0.3479 0.0
C179 C 0.29841 0.6029 0.3229 0.0
C180 C 0.29039 0.58347 0.29736 0.0
H181 H 0.49503 0.74607 0.27381 0.0
H182 H 0.43467 0.70665 0.27928 0.0
C183 C 0.26532 0.54901 0.29761 0.0
C184 C 0.33085 0.63555 0.32525 0.0
H185 H 0.37808 0.7138 0.29438 0.0
C186 C 0.35549 0.63695 0.34445 0.0
C187 C 0.33868 0.66393 0.30761 0.0
C188 C 0.31283 0.66416 0.28731 0.0
C189 C 0.38834 0.66524 0.34539 0.0
C190 C 0.39657 0.69324 0.32707 0.0
C191 C 0.37155 0.69243 0.30866 0.0
C192 C 0.43218 0.72087 0.32352 0.0
C193 C 0.41462 0.66398 0.36454 0.0
C194 C 0.45078 0.74269 0.34647 0.0
C195 C 0.48573 0.76551 0.34345 0.0
C196 C 0.50235 0.76642 0.31752 0.0
C197 C 0.48314 0.74561 0.29428 0.0
C198 C 0.4485 0.72321 0.29723 0.0
H199 H 0.4053 0.63841 0.37419 0.0
H200 H 0.43807 0.67098 0.35201 0.0
H201 H 0.42146 0.68256 0.38245 0.0
H202 H 0.43847 0.74141 0.36689 0.0
H203 H 0.49987 0.7814 0.36161 0.0
H204 H 0.67939 0.2156 0.63893 0.0
H205 H 0.6718 0.26544 0.63888 0.0
H206 H 0.70115 0.28348 0.72883 0.0
H207 H 0.70902 0.23414 0.72903 0.0
H208 H 0.63111 0.28398 0.67528 0.0
H209 H 0.77011 0.37201 0.68691 0.0
H210 H 0.75247 0.32813 0.67632 0.0
H211 H 0.75137 0.33886 0.71361 0.0
C212 C 0.68396 0.23006 0.65873 0.0
C213 C 0.69526 0.22124 0.68386 0.0
C214 C 0.67954 0.25843 0.65869 0.0
C215 C 0.6864 0.27838 0.68375 0.0
C216 C 0.69626 0.26874 0.70916 0.0
H217 H 0.71446 0.48245 0.70106 0.0
H218 H 0.70065 0.42485 0.71543 0.0
C219 C 0.70072 0.24051 0.7092 0.0
C220 C 0.68503 0.31026 0.68299 0.0
H221 H 0.7352 0.39649 0.68706 0.0
C222 C 0.6538 0.3086 0.67799 0.0
C223 C 0.71468 0.3423 0.68666 0.0
C224 C 0.74914 0.34566 0.69094 0.0
C225 C 0.65151 0.33828 0.6763 0.0
C226 C 0.68129 0.37033 0.67937 0.0
C227 C 0.71233 0.37187 0.68509 0.0
C228 C 0.68196 0.40267 0.67316 0.0
C229 C 0.61734 0.33516 0.67109 0.0
C230 C 0.67499 0.40897 0.64498 0.0
C231 C 0.68303 0.44169 0.63676 0.0
C232 C 0.69808 0.46875 0.65659 0.0
C233 C 0.7025 0.46197 0.68546 0.0
C234 C 0.69481 0.42915 0.69362 0.0
H235 H 0.59633 0.31004 0.67831 0.0
H236 H 0.61521 0.3555 0.68254 0.0
H237 H 0.61411 0.33757 0.64754 0.0
H238 H 0.66571 0.38915 0.62869 0.0
H239 H 0.67945 0.44626 0.61434 0.0
H240 H 0.44707 0.65723 0.03065 0.0
H241 H 0.38888 0.64562 0.02437 0.0
H242 H 0.42149 0.71634 0.95294 0.0
H243 H 0.4795 0.72682 0.9585 0.0
H244 H 0.3775 0.69658 0.03452 0.0
H245 H 0.32889 0.64569 0.92502 0.0
H246 H 0.36498 0.64504 0.94066 0.0
H247 H 0.37002 0.6832 0.92416 0.0
C248 C 0.44136 0.6689 0.01268 0.0
C249 C 0.4675 0.69263 0.99487 0.0
C250 C 0.40821 0.66247 0.00923 0.0
C251 C 0.40075 0.68008 0.98822 0.0
C252 C 0.42639 0.70185 0.9689 0.0
H253 H 0.26281 0.74902 0.95952 0.0
H254 H 0.30582 0.7326 0.95997 0.0
C255 C 0.45955 0.70782 0.97202 0.0
C256 C 0.36827 0.68024 0.98995 0.0
H257 H 0.30131 0.67168 0.95005 0.0
C258 C 0.36044 0.69045 0.01621 0.0
C259 C 0.3463 0.67265 0.96598 0.0
C260 C 0.3528 0.66073 0.93745 0.0
C261 C 0.3321 0.69472 0.01883 0.0
C262 C 0.31051 0.68782 0.99468 0.0
C263 C 0.31774 0.67662 0.96865 0.0
C264 C 0.28295 0.69618 0.99475 0.0
C265 C 0.32665 0.70844 0.04687 0.0
C266 C 0.25556 0.68113 0.01432 0.0
C267 C 0.23071 0.69084 0.01441 0.0
C268 C 0.23286 0.71537 0.99466 0.0
C269 C 0.26017 0.72991 0.97499 0.0
C270 C 0.28485 0.72048 0.97509 0.0
H271 H 0.34933 0.71887 0.06117 0.0
H272 H 0.32047 0.72879 0.04263 0.0
H273 H 0.30501 0.68763 0.05872 0.0
H274 H 0.25342 0.66193 0.02944 0.0
H275 H 0.20988 0.67912 0.02967 0.0
H276 H 0.53399 0.20902 0.33139 0.0
H277 H 0.59659 0.24044 0.3346 0.0
H278 H 0.59381 0.32809 0.36692 0.0
H279 H 0.5321 0.2972 0.3635 0.0
H280 H 0.63764 0.30154 0.30309 0.0
H281 H 0.66314 0.32324 0.42018 0.0
H282 H 0.62343 0.28943 0.40609 0.0
H283 H 0.63034 0.33194 0.40951 0.0
C284 C 0.54689 0.23456 0.34017 0.0
C285 C 0.52845 0.2507 0.34754 0.0
C286 C 0.58252 0.25253 0.34175 0.0
C287 C 0.59981 0.28648 0.35129 0.0
C288 C 0.58105 0.30176 0.36006 0.0
H289 H 0.75681 0.47484 0.31094 0.0
H290 H 0.71369 0.41506 0.30591 0.0
C291 C 0.5458 0.28411 0.3581 0.0
C292 C 0.63725 0.30789 0.34934 0.0
H293 H 0.7034 0.36821 0.38842 0.0
C294 C 0.65249 0.31549 0.32182 0.0
C295 C 0.65683 0.32555 0.37376 0.0
C296 C 0.64264 0.31683 0.40408 0.0
C297 C 0.6858 0.34261 0.31783 0.0
C298 C 0.70388 0.36304 0.34188 0.0
C299 C 0.68968 0.3531 0.36973 0.0
C300 C 0.73501 0.39705 0.3388 0.0
C301 C 0.70067 0.34963 0.28774 0.0
C302 C 0.76215 0.40714 0.3583 0.0
C303 C 0.7862 0.44153 0.36175 0.0
C304 C 0.78412 0.46632 0.34519 0.0
C305 C 0.75935 0.45607 0.32347 0.0
C306 C 0.73469 0.42173 0.32055 0.0
H307 H 0.69176 0.32551 0.27561 0.0
H308 H 0.69186 0.36492 0.27568 0.0
H309 H 0.72886 0.36368 0.28817 0.0
H310 H 0.76311 0.38873 0.37259 0.0
H311 H 0.8049 0.44897 0.37888 0.0
H312 H 0.27063 0.74768 0.62047 0.0
H313 H 0.28651 0.70337 0.61723 0.0
H314 H 0.33826 0.73575 0.69928 0.0
H315 H 0.3222 0.77954 0.70272 0.0
H316 H 0.35963 0.70229 0.63566 0.0
H317 H 0.24111 0.63498 0.70151 0.0
H318 H 0.24709 0.66722 0.67555 0.0
H319 H 0.27097 0.67912 0.70859 0.0
C320 C 0.28691 0.74643 0.63698 0.0
C321 C 0.29538 0.76697 0.66177 0.0
C322 C 0.2958 0.72106 0.63522 0.0
C323 C 0.31343 0.71636 0.65811 0.0
C324 C 0.32487 0.73919 0.68137 0.0
H325 H 0.28284 0.51707 0.70512 0.0
H326 H 0.30556 0.57872 0.7091 0.0
C327 C 0.31576 0.76421 0.68325 0.0
C328 C 0.31392 0.68422 0.66071 0.0
H329 H 0.26855 0.60478 0.68968 0.0
C330 C 0.33989 0.68095 0.64755 0.0
C331 C 0.28846 0.65679 0.67672 0.0
C332 C 0.26018 0.65936 0.69144 0.0
C333 C 0.34052 0.65036 0.64942 0.0
C334 C 0.31416 0.62234 0.66443 0.0
C335 C 0.28892 0.62625 0.6784 0.0
C336 C 0.30925 0.58751 0.66276 0.0
C337 C 0.36934 0.64839 0.63523 0.0
C338 C 0.30504 0.57226 0.63553 0.0
C339 C 0.29233 0.5374 0.6333 0.0
C340 C 0.28318 0.51686 0.65822 0.0
C341 C 0.28993 0.53235 0.6856 0.0
C342 C 0.30272 0.56749 0.68784 0.0
H343 H 0.3929 0.67364 0.63515 0.0
H344 H 0.3746 0.62984 0.64634 0.0
H345 H 0.36261 0.64037 0.61233 0.0
H346 H 0.30901 0.58676 0.61585 0.0
H347 H 0.28746 0.52613 0.61189 0.0
H348 H 0.74467 0.24564 0.93071 0.0
H349 H 0.70202 0.26292 0.93262 0.0
H350 H 0.72188 0.28496 0.02378 0.0
H351 H 0.76566 0.26839 0.02183 0.0
H352 H 0.6452 0.23087 0.96423 0.0
H353 H 0.71655 0.36689 0.99547 0.0
H354 H 0.73729 0.34439 0.98244 0.0
H355 H 0.72318 0.33962 0.01944 0.0
C356 C 0.74034 0.25456 0.95116 0.0
C357 C 0.75834 0.25538 0.97623 0.0
C358 C 0.71598 0.26455 0.95216 0.0
C359 C 0.70887 0.27547 0.97825 0.0
C360 C 0.72744 0.27729 0.00324 0.0
H361 H 0.54558 0.29192 0.04661 0.0
H362 H 0.60067 0.29855 0.03465 0.0
C363 C 0.75227 0.26761 0.00218 0.0
C364 C 0.67968 0.28145 0.97959 0.0
H365 H 0.65596 0.33928 0.99842 0.0
C366 C 0.64764 0.25476 0.97132 0.0
C367 C 0.68292 0.31261 0.98885 0.0
C368 C 0.71689 0.34265 0.9968 0.0
C369 C 0.61854 0.25785 0.97303 0.0
C370 C 0.62162 0.28877 0.98283 0.0
C371 C 0.65375 0.31575 0.9906 0.0
C372 C 0.59116 0.29177 0.98854 0.0
C373 C 0.58453 0.22738 0.96566 0.0
C374 C 0.56814 0.28753 0.96636 0.0
C375 C 0.53633 0.28363 0.97317 0.0
C376 C 0.5273 0.28392 0.00224 0.0
C377 C 0.55165 0.29117 0.02402 0.0
C378 C 0.58325 0.29509 0.01723 0.0
H379 H 0.58593 0.20375 0.96361 0.0
H380 H 0.56539 0.22329 0.98247 0.0
H381 H 0.57552 0.23189 0.94468 0.0
H382 H 0.57407 0.28548 0.94399 0.0
H383 H 0.5181 0.27811 0.95596 0.0
H384 H 0.27588 0.38718 0.28971 0.0
H385 H 0.28394 0.33812 0.29508 0.0
H386 H 0.1787 0.27559 0.31886 0.0
H387 H 0.17014 0.32432 0.31234 0.0
H388 H 0.23712 0.29282 0.36324 0.0
H389 H 0.24536 0.23618 0.25911 0.0
H390 H 0.26376 0.28168 0.25913 0.0
H391 H 0.21879 0.25499 0.26401 0.0
C392 C 0.25409 0.36255 0.2945 0.0
C393 C 0.22243 0.35942 0.30049 0.0
C394 C 0.25869 0.33458 0.29765 0.0
C395 C 0.23189 0.30338 0.3074 0.0
C396 C 0.19952 0.29941 0.31101 0.0
H397 H 0.31944 0.1759 0.35142 0.0
H398 H 0.27074 0.18503 0.3478 0.0
C399 C 0.19467 0.32721 0.30709 0.0
C400 C 0.24001 0.2782 0.31937 0.0
H401 H 0.27588 0.23108 0.29954 0.0
C402 C 0.24454 0.27829 0.34947 0.0
C403 C 0.24942 0.25924 0.30136 0.0
C404 C 0.24388 0.25766 0.26908 0.0
C405 C 0.26155 0.26272 0.36169 0.0
C406 C 0.27405 0.24669 0.34331 0.0
C407 C 0.2663 0.24352 0.31359 0.0
C408 C 0.30078 0.23955 0.35301 0.0
C409 C 0.26823 0.26562 0.39385 0.0
C410 C 0.33344 0.26708 0.35818 0.0
C411 C 0.3612 0.26203 0.35977 0.0
C412 C 0.35662 0.2293 0.35667 0.0
C413 C 0.32352 0.20133 0.35435 0.0
C414 C 0.29574 0.20649 0.35209 0.0
H415 H 0.24927 0.26955 0.40581 0.0
H416 H 0.26777 0.24253 0.40235 0.0
H417 H 0.29377 0.2878 0.39812 0.0
H418 H 0.33786 0.29283 0.35854 0.0
H419 H 0.3865 0.28397 0.36128 0.0
H420 H 0.83016 0.18017 0.66965 0.0
H421 H 0.89084 0.19826 0.66819 0.0
H422 H 0.91349 0.28694 0.71871 0.0
H423 H 0.85328 0.26927 0.7202 0.0
H424 H 0.94417 0.25663 0.64638 0.0
H425 H 0.96048 0.2397 0.76021 0.0
H426 H 0.91997 0.23257 0.74753 0.0
H427 H 0.95208 0.27398 0.76056 0.0
C428 C 0.84815 0.20375 0.68012 0.0
C429 C 0.83693 0.22329 0.69507 0.0
C430 C 0.88271 0.21381 0.67956 0.0
C431 C 0.9065 0.24342 0.69407 0.0
C432 C 0.89543 0.26347 0.70814 0.0
H433 H 0.10472 0.39409 0.65966 0.0
H434 H 0.04435 0.35451 0.6666 0.0
C435 C 0.86104 0.25353 0.70866 0.0
C436 C 0.94328 0.2551 0.69304 0.0
H437 H 0.0139 0.2881 0.73593 0.0
C438 C 0.95935 0.26285 0.66595 0.0
C439 C 0.96313 0.2622 0.71849 0.0
C440 C 0.94758 0.25122 0.74817 0.0
C441 C 0.99486 0.28039 0.66377 0.0
C442 C 0.01468 0.29131 0.68934 0.0
C443 C 0.99868 0.28069 0.71634 0.0
C444 C 0.0515 0.31632 0.6883 0.0
C445 C 0.01078 0.28789 0.63403 0.0
C446 C 0.07561 0.30901 0.70007 0.0
C447 C 0.1104 0.33204 0.69659 0.0
C448 C 0.12134 0.36255 0.68125 0.0
C449 C 0.09706 0.37062 0.67126 0.0
C450 C 0.06254 0.34787 0.67496 0.0
H451 H 0.9939 0.26841 0.61808 0.0
H452 H 0.01484 0.31287 0.62655 0.0
H453 H 0.03566 0.28885 0.63426 0.0
H454 H 0.06756 0.28499 0.71086 0.0
H455 H 0.12858 0.32513 0.70444 0.0
H456 H 0.8098 0.10752 0.96181 0.0
H457 H 0.78143 0.048 0.97637 0.0
H458 H 0.76324 0.0753 0.06124 0.0
H459 H 0.79202 0.13551 0.04667 0.0
H460 H 0.78414 0.00711 0.02565 0.0
H461 H 0.66815 0.01929 0.01989 0.0
H462 H 0.70827 0.05142 0.0052 0.0
H463 H 0.70197 0.0474 0.04369 0.0
C464 C 0.80069 0.10099 0.98388 0.0
C465 C 0.80259 0.1259 0.00303 0.0
C466 C 0.78463 0.06701 0.99219 0.0
C467 C 0.76986 0.0573 0.01968 0.0
C468 C 0.77438 0.08243 0.03984 0.0
H469 H 0.60127 0.85258 0.05158 0.0
H470 H 0.64311 0.91283 0.05618 0.0
C471 C 0.7909 0.11672 0.03158 0.0
C472 C 0.74531 0.02097 0.02481 0.0
H473 H 0.66024 0.96456 0.02233 0.0
C474 C 0.75702 0.9977 0.0255 0.0
C475 C 0.71 0.00891 0.02442 0.0
C476 C 0.69611 0.03289 0.02312 0.0
C477 C 0.73421 0.96249 0.02518 0.0
C478 C 0.69892 0.95047 0.02311 0.0
C479 C 0.68729 0.97381 0.02364 0.0
C480 C 0.67347 0.9139 0.01975 0.0
C481 C 0.74817 0.93863 0.02701 0.0
C482 C 0.67562 0.89482 0.99673 0.0
C483 C 0.65131 0.86041 0.99367 0.0
C484 C 0.62446 0.84458 0.01358 0.0
C485 C 0.62177 0.86403 0.03598 0.0
C486 C 0.64586 0.89839 0.03884 0.0
H487 H 0.77335 0.9509 0.03789 0.0
H488 H 0.73067 0.91506 0.039 0.0
H489 H 0.7516 0.93152 0.00479 0.0
H490 H 0.69607 0.90652 0.98112 0.0
H491 H 0.65414 0.84601 0.97629 0.0
H492 H 0.69007 0.79404 0.28927 0.0
H493 H 0.71905 0.76401 0.30518 0.0
H494 H 0.6898 0.76716 0.39349 0.0
H495 H 0.66053 0.79753 0.37763 0.0
H496 H 0.77034 0.77618 0.35 0.0
H497 H 0.64198 0.66386 0.36952 0.0
H498 H 0.6478 0.70001 0.3487 0.0
H499 H 0.65252 0.70317 0.38734 0.0
C500 C 0.69033 0.78896 0.31218 0.0
C501 C 0.67259 0.7976 0.33218 0.0
C502 C 0.70704 0.77194 0.32123 0.0
C503 C 0.70608 0.76298 0.35039 0.0
C504 C 0.69049 0.77366 0.37082 0.0
H505 H 0.75285 0.60627 0.40532 0.0
H506 H 0.73449 0.64842 0.40582 0.0
C507 C 0.67395 0.79108 0.36178 0.0
C508 C 0.718 0.73917 0.35821 0.0
H509 H 0.68839 0.65497 0.37115 0.0
C510 C 0.75257 0.74979 0.35511 0.0
C511 C 0.69465 0.70478 0.36478 0.0
C512 C 0.65711 0.69199 0.36768 0.0
C513 C 0.7643 0.72662 0.35763 0.0
C514 C 0.74066 0.69188 0.36262 0.0
C515 C 0.70636 0.68159 0.36708 0.0
C516 C 0.75074 0.66556 0.36195 0.0
C517 C 0.80183 0.73945 0.35462 0.0
C518 C 0.7648 0.6604 0.33672 0.0
C519 C 0.77522 0.63624 0.33627 0.0
C520 C 0.77152 0.61662 0.36102 0.0
C521 C 0.75599 0.62084 0.38584 0.0
C522 C 0.74566 0.64507 0.38626 0.0
H523 H 0.81714 0.76705 0.35953 0.0
H524 H 0.81 0.72547 0.36924 0.0
H525 H 0.80738 0.7356 0.33198 0.0
H526 H 0.76807 0.67535 0.31746 0.0
H527 H 0.787 0.63362 0.3168 0.0
H528 H 0.14553 0.81011 0.63161 0.0
H529 H 0.08455 0.78996 0.62628 0.0
H530 H 0.06181 0.71083 0.68881 0.0
H531 H 0.12197 0.73088 0.6946 0.0
H532 H 0.03159 0.72961 0.60915 0.0
H533 H 0.01003 0.75379 0.72179 0.0
H534 H 0.05209 0.77141 0.7066 0.0
H535 H 0.03073 0.72905 0.72155 0.0
C536 C 0.12745 0.78834 0.6441 0.0
C537 C 0.13862 0.77226 0.6637 0.0
C538 C 0.09269 0.77699 0.64115 0.0
C539 C 0.06874 0.74954 0.65782 0.0
C540 C 0.07987 0.73279 0.67649 0.0
H541 H 0.86822 0.59413 0.62815 0.0
H542 H 0.92899 0.63479 0.63016 0.0
C543 C 0.11435 0.74411 0.67954 0.0
C544 C 0.03184 0.73697 0.65528 0.0
H545 H 0.96084 0.70833 0.69701 0.0
C546 C 0.01611 0.72556 0.62824 0.0
C547 C 0.01165 0.7328 0.67997 0.0
C548 C 0.0271 0.74783 0.70901 0.0
C549 C 0.98059 0.7074 0.62573 0.0
C550 C 0.96044 0.69938 0.6511 0.0
C551 C 0.9762 0.7135 0.67767 0.0
C552 C 0.92347 0.67453 0.65088 0.0
C553 C 0.96512 0.69661 0.59595 0.0
C554 C 0.90021 0.68242 0.66363 0.0
C555 C 0.86542 0.65869 0.66336 0.0
C556 C 0.85337 0.62682 0.65013 0.0
C557 C 0.87678 0.6186 0.63829 0.0
C558 C 0.91148 0.64203 0.63903 0.0
H559 H 0.98174 0.71503 0.57921 0.0
H560 H 0.96249 0.67161 0.59057 0.0
H561 H 0.9397 0.69437 0.59475 0.0
H562 H 0.90888 0.70716 0.67327 0.0
H563 H 0.8479 0.66581 0.67243 0.0
H564 H 0.35057 0.14393 0.96251 0.0
H565 H 0.3108 0.08271 0.95787 0.0
H566 H 0.32956 0.06814 0.04688 0.0
H567 H 0.36865 0.12883 0.05187 0.0
H568 H 0.32413 0.03084 0.96464 0.0
H569 H 0.22671 0.01655 0.04394 0.0
H570 H 0.25854 0.05742 0.03012 0.0
H571 H 0.26847 0.03772 0.05947 0.0
C572 C 0.3461 0.12767 0.9811 0.0
C573 C 0.36282 0.14128 0.00754 0.0
C574 C 0.32331 0.09277 0.97845 0.0
C575 C 0.31671 0.07106 0.00223 0.0
C576 C 0.33356 0.08456 0.0285 0.0
H577 H 0.23991 0.85876 0.03068 0.0
H578 H 0.2635 0.92058 0.03573 0.0
C579 C 0.35624 0.11929 0.03118 0.0
C580 C 0.2941 0.03391 0.99933 0.0
H581 H 0.22719 0.96527 0.03136 0.0
C582 C 0.30262 0.01655 0.97891 0.0
C583 C 0.26595 0.01536 0.01791 0.0
C584 C 0.25415 0.03277 0.03887 0.0
C585 C 0.2847 0.98098 0.97752 0.0
C586 C 0.25766 0.96249 0.99703 0.0
C587 C 0.24833 0.97973 0.01679 0.0
C588 C 0.23911 0.92509 0.99705 0.0
C589 C 0.2953 0.96325 0.95575 0.0
C590 C 0.2167 0.90746 0.97439 0.0
C591 C 0.20331 0.87256 0.97165 0.0
C592 C 0.21221 0.85492 0.99142 0.0
C593 C 0.23272 0.87205 0.01529 0.0
C594 C 0.2462 0.90716 0.01809 0.0
H595 H 0.3195 0.98112 0.94474 0.0
H596 H 0.2983 0.94305 0.96651 0.0
H597 H 0.27523 0.95088 0.93901 0.0
H598 H 0.21081 0.92094 0.95813 0.0
H599 H 0.18696 0.85944 0.95347 0.0
H600 H 0.96802 0.29417 0.04688 0.0
H601 H 0.99924 0.3198 0.09162 0.0
H602 H 0.90763 0.30613 0.1316 0.0
H603 H 0.87603 0.28057 0.08676 0.0
H604 H 0.00172 0.37967 0.12477 0.0
H605 H 0.94787 0.25715 0.185 0.0
H606 H 0.94882 0.25879 0.14588 0.0
H607 H 0.91924 0.26647 0.16537 0.0
C608 C 0.95444 0.29666 0.06513 0.0
C609 C 0.91947 0.28518 0.06327 0.0
C610 C 0.97238 0.3114 0.09063 0.0
C611 C 0.95567 0.31463 0.11489 0.0
C612 C 0.92088 0.30364 0.11311 0.0
H613 H 0.03796 0.37204 0.2907 0.0
H614 H 0.9996 0.35438 0.24893 0.0
C615 C 0.90292 0.28913 0.08747 0.0
C616 C 0.97477 0.32895 0.14213 0.0
H617 H 0.98886 0.30626 0.20897 0.0
C618 C 0.99879 0.36374 0.1433 0.0
C619 C 0.97064 0.30809 0.16626 0.0
C620 C 0.9454 0.27048 0.16579 0.0
C621 C 0.01918 0.3782 0.16794 0.0
C622 C 0.01607 0.35707 0.19169 0.0
C623 C 0.9913 0.32243 0.19077 0.0
C624 C 0.03945 0.36988 0.21696 0.0
C625 C 0.04374 0.41598 0.16831 0.0
C626 C 0.07459 0.38436 0.21291 0.0
C627 C 0.09656 0.39456 0.23668 0.0
C628 C 0.08384 0.39017 0.2651 0.0
C629 C 0.04863 0.37586 0.26913 0.0
C630 C 0.02665 0.36573 0.24527 0.0
H631 H 0.0353 0.42967 0.15359 0.0
H632 H 0.04669 0.42659 0.19048 0.0
H633 H 0.06895 0.42093 0.16069 0.0
H634 H 0.08503 0.38703 0.19135 0.0
H635 H 0.12349 0.4053 0.23275 0.0
H636 H 0.73955 0.09878 0.59091 0.0
H637 H 0.72601 0.06262 0.54772 0.0
H638 H 0.61915 0.01891 0.56545 0.0
H639 H 0.63225 0.0547 0.60833 0.0
H640 H 0.68527 0.98846 0.54428 0.0
H641 H 0.63052 0.05308 0.48044 0.0
H642 H 0.65755 0.07249 0.51153 0.0
H643 H 0.61366 0.04089 0.51642 0.0
C644 C 0.71318 0.0815 0.58557 0.0
C645 C 0.68699 0.07979 0.60299 0.0
C646 C 0.70551 0.06085 0.56094 0.0
C647 C 0.67158 0.03848 0.5532 0.0
C648 C 0.64548 0.03642 0.57077 0.0
H649 H 0.55989 0.89321 0.41826 0.0
H650 H 0.57893 0.93112 0.46029 0.0
C651 C 0.65308 0.05684 0.59537 0.0
C652 C 0.66311 0.01689 0.52696 0.0
H653 H 0.62169 0.00044 0.46208 0.0
C654 C 0.67166 0.99122 0.52615 0.0
C655 C 0.64522 0.02051 0.50345 0.0
C656 C 0.63641 0.0484 0.50275 0.0
C657 C 0.66184 0.96834 0.5028 0.0
C658 C 0.64361 0.97173 0.47939 0.0
C659 C 0.63554 0.99777 0.48006 0.0
C660 C 0.63229 0.94835 0.4541 0.0
C661 C 0.67006 0.94004 0.50389 0.0
C662 C 0.65597 0.94569 0.43645 0.0
C663 C 0.64516 0.92395 0.41246 0.0
C664 C 0.61043 0.90464 0.40546 0.0
C665 C 0.5868 0.90763 0.42303 0.0
C666 C 0.59764 0.92931 0.44707 0.0
H667 H 0.67585 0.93553 0.5263 0.0
H668 H 0.64867 0.91596 0.49536 0.0
H669 H 0.69274 0.94703 0.4903 0.0
H670 H 0.68288 0.9607 0.44104 0.0
H671 H 0.66408 0.92246 0.39931 0.0
H672 H 0.62238 0.7404 0.9016 0.0
H673 H 0.64415 0.72749 0.85775 0.0
H674 H 0.6249 0.63267 0.89545 0.0
H675 H 0.60285 0.64515 0.93919 0.0
H676 H 0.69896 0.71497 0.85274 0.0
H677 H 0.57795 0.60389 0.81611 0.0
H678 H 0.57949 0.63356 0.84293 0.0
H679 H 0.58937 0.60125 0.85288 0.0
C680 C 0.6226 0.71671 0.90052 0.0
C681 C 0.61069 0.69373 0.92389 0.0
C682 C 0.63511 0.70941 0.87545 0.0
C683 C 0.63571 0.67891 0.87316 0.0
C684 C 0.62407 0.65605 0.8965 0.0
H685 H 0.70114 0.58623 0.74271 0.0
H686 H 0.67943 0.60009 0.78598 0.0
C687 C 0.61162 0.66333 0.92158 0.0
C688 C 0.64928 0.67135 0.84665 0.0
H689 H 0.6279 0.61441 0.7912 0.0
C690 C 0.68341 0.6931 0.83917 0.0
C691 C 0.62897 0.64272 0.82906 0.0
C692 C 0.59183 0.61913 0.83543 0.0
C693 C 0.69799 0.68663 0.8149 0.0
C694 C 0.67766 0.658 0.79725 0.0
C695 C 0.64348 0.63631 0.80472 0.0
C696 C 0.69132 0.64998 0.77101 0.0
C697 C 0.73525 0.71 0.80886 0.0
C698 C 0.70491 0.67324 0.748 0.0
C699 C 0.71752 0.66546 0.72327 0.0
C700 C 0.71645 0.63407 0.72089 0.0
C701 C 0.70243 0.61065 0.74382 0.0
C702 C 0.68997 0.61852 0.76859 0.0
H703 H 0.74905 0.7246 0.82845 0.0
H704 H 0.74741 0.69554 0.801 0.0
H705 H 0.73812 0.72851 0.79185 0.0
H706 H 0.70548 0.69732 0.74903 0.0
H707 H 0.72787 0.68398 0.70595 0.0
H708 H 0.09711 0.74568 0.08426 0.0
H709 H 0.06023 0.73089 0.12686 0.0
H710 H 0.02458 0.62459 0.112 0.0
H711 H 0.06078 0.63902 0.06921 0.0
H712 H 0.97258 0.63708 0.12512 0.0
H713 H 0.07788 0.69994 0.20469 0.0
H714 H 0.07811 0.72709 0.1763 0.0
H715 H 0.08482 0.69235 0.16762 0.0
C716 C 0.08144 0.71915 0.09007 0.0
C717 C 0.08212 0.69355 0.07341 0.0
C718 C 0.06047 0.71075 0.11451 0.0
C719 C 0.04004 0.67666 0.1229 0.0
C720 C 0.04021 0.65108 0.106 0.0
H721 H 0.94861 0.58792 0.28674 0.0
H722 H 0.98287 0.60928 0.24281 0.0
C723 C 0.06102 0.65941 0.08155 0.0
C724 C 0.01855 0.66735 0.14934 0.0
H725 H 0.02208 0.67537 0.22306 0.0
C726 C 0.98335 0.64556 0.14654 0.0
C727 C 0.03271 0.67819 0.17729 0.0
C728 C 0.07047 0.70044 0.18183 0.0
C729 C 0.96198 0.63408 0.17092 0.0
C730 C 0.97612 0.6451 0.19884 0.0
C731 C 0.01126 0.66713 0.20163 0.0
C732 C 0.95521 0.63265 0.22558 0.0
C733 C 0.92462 0.60935 0.16662 0.0
C734 C 0.92845 0.639 0.23069 0.0
C735 C 0.90867 0.62667 0.25579 0.0
C736 C 0.91544 0.60797 0.27637 0.0
C737 C 0.9426 0.60213 0.27135 0.0
C738 C 0.96228 0.61439 0.24626 0.0
H739 H 0.91925 0.59742 0.14481 0.0
H740 H 0.91503 0.58894 0.18324 0.0
H741 H 0.91028 0.62306 0.1688 0.0
H742 H 0.92295 0.6536 0.21532 0.0
H743 H 0.88811 0.63184 0.25907 0.0
H744 H 0.39464 0.12425 0.42501 0.0
H745 H 0.37456 0.08505 0.46607 0.0
H746 H 0.33112 0.99982 0.40741 0.0
H747 H 0.35102 0.03888 0.36598 0.0
H748 H 0.30189 0.03159 0.47512 0.0
H749 H 0.39126 0.98171 0.46722 0.0
H750 H 0.40081 0.02205 0.45169 0.0
H751 H 0.37034 0.98318 0.43457 0.0
C752 C 0.38103 0.09718 0.42074 0.0
C753 C 0.37445 0.08472 0.39215 0.0
C754 C 0.36954 0.07483 0.44427 0.0
C755 C 0.35158 0.03961 0.43974 0.0
C756 C 0.34527 0.02697 0.41131 0.0
H757 H 0.27243 0.87294 0.56518 0.0
H758 H 0.29 0.90677 0.52061 0.0
C759 C 0.35657 0.04933 0.38769 0.0
C760 C 0.33843 0.01628 0.4649 0.0
H761 H 0.35025 0.95948 0.50433 0.0
C762 C 0.31236 0.01573 0.48152 0.0
C763 C 0.35197 0.99546 0.47293 0.0
C764 C 0.38028 0.99555 0.45586 0.0
C765 C 0.29944 0.99489 0.50609 0.0
C766 C 0.31372 0.97482 0.51478 0.0
C767 C 0.3394 0.97494 0.49777 0.0
C768 C 0.30296 0.95424 0.54181 0.0
C769 C 0.27023 0.99424 0.52219 0.0
C770 C 0.3049 0.96971 0.56862 0.0
C771 C 0.29456 0.95041 0.59403 0.0
C772 C 0.28263 0.91528 0.59328 0.0
C773 C 0.28144 0.89993 0.5665 0.0
C774 C 0.29148 0.91923 0.54101 0.0
H775 H 0.25545 0.00181 0.50793 0.0
H776 H 0.25275 0.9686 0.53114 0.0
H777 H 0.28035 0.01261 0.54041 0.0
H778 H 0.31463 0.99683 0.56996 0.0
H779 H 0.29621 0.96314 0.61432 0.0
H780 H 0.41599 0.29513 0.90701 0.0
H781 H 0.40288 0.32037 0.86554 0.0
H782 H 0.30572 0.29265 0.90326 0.0
H783 H 0.31848 0.26742 0.94467 0.0
H784 H 0.34519 0.28725 0.82678 0.0
H785 H 0.34935 0.39587 0.88554 0.0
H786 H 0.36835 0.37218 0.8997 0.0
H787 H 0.32326 0.35508 0.90216 0.0
C788 C 0.39186 0.29446 0.90651 0.0
C789 C 0.36832 0.27933 0.92922 0.0
C790 C 0.38442 0.30888 0.8828 0.0
C791 C 0.35355 0.30881 0.88155 0.0
C792 C 0.32994 0.2935 0.90404 0.0
H793 H 0.24844 0.371 0.76251 0.0
H794 H 0.26784 0.35098 0.80351 0.0
C795 C 0.33722 0.27889 0.92762 0.0
C796 C 0.34548 0.32391 0.85644 0.0
H797 H 0.32674 0.38545 0.83778 0.0
C798 C 0.34146 0.30891 0.82907 0.0
C799 C 0.34056 0.35211 0.85957 0.0
C800 C 0.34586 0.37001 0.88825 0.0
C801 C 0.33159 0.32071 0.80489 0.0
C802 C 0.32626 0.34868 0.80807 0.0
C803 C 0.33077 0.36398 0.83539 0.0
C804 C 0.31524 0.36194 0.78345 0.0
C805 C 0.32584 0.30241 0.77635 0.0
C806 C 0.33575 0.37538 0.75878 0.0
C807 C 0.32473 0.38683 0.73528 0.0
C808 C 0.29303 0.38521 0.73605 0.0
C809 C 0.27292 0.37249 0.76111 0.0
C810 C 0.28398 0.36107 0.7846 0.0
H811 H 0.32303 0.27684 0.77915 0.0
H812 H 0.3028 0.29948 0.76537 0.0
H813 H 0.34794 0.31746 0.76196 0.0
H814 H 0.36027 0.37693 0.75766 0.0
H815 H 0.34098 0.39667 0.71642 0.0
H816 H 0.12299 0.33302 0.37886 0.0
H817 H 0.11515 0.29674 0.42086 0.0
H818 H 0.15635 0.38488 0.47641 0.0
H819 H 0.16454 0.42086 0.43461 0.0
H820 H 0.1749 0.31048 0.44763 0.0
H821 H 0.08783 0.31174 0.52982 0.0
H822 H 0.0848 0.32011 0.49193 0.0
H823 H 0.11412 0.35364 0.51553 0.0
C824 C 0.12821 0.34418 0.40032 0.0
C825 C 0.14405 0.3796 0.40369 0.0
C826 C 0.12411 0.3235 0.42425 0.0
C827 C 0.13512 0.33804 0.45179 0.0
C828 C 0.14702 0.37291 0.45552 0.0
H829 H 0.26904 0.3861 0.56673 0.0
H830 H 0.24062 0.35527 0.52318 0.0
C831 C 0.15159 0.39354 0.43163 0.0
C832 C 0.14181 0.31961 0.475 0.0
H833 H 0.13971 0.31418 0.54849 0.0
C834 C 0.16625 0.30995 0.46963 0.0
C835 C 0.13019 0.31823 0.50358 0.0
C836 C 0.1025 0.32617 0.51047 0.0
C837 C 0.1825 0.30337 0.49251 0.0
C838 C 0.1742 0.30677 0.52134 0.0
C839 C 0.14654 0.31185 0.52643 0.0
C840 C 0.19821 0.314 0.54572 0.0
C841 C 0.21014 0.29538 0.4856 0.0
C842 C 0.18592 0.29939 0.57308 0.0
C843 C 0.20265 0.31714 0.59821 0.0
C844 C 0.23123 0.3498 0.59598 0.0
C845 C 0.24705 0.36091 0.56895 0.0
C846 C 0.23054 0.34319 0.54388 0.0
H847 H 0.20359 0.27933 0.46585 0.0
H848 H 0.23409 0.3194 0.48104 0.0
H849 H 0.21456 0.2821 0.50382 0.0
H850 H 0.16116 0.2768 0.57506 0.0
H851 H 0.1899 0.30806 0.61885 0.0
H852 H 0.93008 0.24136 0.92275 0.0
H853 H 0.93587 0.23274 0.87144 0.0
H854 H 0.88625 0.29005 0.85078 0.0
H855 H 0.88509 0.30213 0.90107 0.0
H856 H 0.88058 0.19105 0.85453 0.0
H857 H 0.9122 0.29043 0.77322 0.0
H858 H 0.93181 0.30093 0.80865 0.0
H859 H 0.89165 0.29906 0.80185 0.0
C860 C 0.92365 0.25494 0.90701 0.0
C861 C 0.90557 0.27098 0.91567 0.0
C862 C 0.92622 0.24936 0.87749 0.0
C863 C 0.90989 0.25906 0.85678 0.0
C864 C 0.89925 0.28196 0.86552 0.0
H865 H 0.729 0.15941 0.7834 0.0
H866 H 0.78274 0.18521 0.80986 0.0
C867 C 0.89855 0.28904 0.89483 0.0
C868 C 0.89363 0.23718 0.83076 0.0
H869 H 0.85491 0.2379 0.76765 0.0
C870 C 0.87657 0.20161 0.83488 0.0
C871 C 0.88778 0.25002 0.80469 0.0
C872 C 0.90728 0.28722 0.79687 0.0
C873 C 0.85108 0.17939 0.81583 0.0
C874 C 0.84226 0.1929 0.79218 0.0
C875 C 0.86168 0.22771 0.78603 0.0
C876 C 0.80921 0.17283 0.77752 0.0
C877 C 0.83134 0.14193 0.82265 0.0
C878 C 0.8061 0.15596 0.7513 0.0
C879 C 0.77507 0.14049 0.73637 0.0
C880 C 0.74723 0.14259 0.74728 0.0
C881 C 0.75002 0.1575 0.77451 0.0
C882 C 0.78074 0.17247 0.78949 0.0
H883 H 0.84484 0.13451 0.83852 0.0
H884 H 0.80631 0.13555 0.83192 0.0
H885 H 0.8266 0.12674 0.80256 0.0
H886 H 0.82791 0.15599 0.74185 0.0
H887 H 0.77376 0.12937 0.71532 0.0
H888 H 0.68902 0.92547 0.25883 0.0
H889 H 0.70989 0.92964 0.20953 0.0
H890 H 0.60748 0.88825 0.17748 0.0
H891 H 0.58773 0.88713 0.2261 0.0
H892 H 0.69064 0.87055 0.19401 0.0
H893 H 0.6544 0.92369 0.10502 0.0
H894 H 0.65055 0.93484 0.14155 0.0
H895 H 0.6153 0.89875 0.124 0.0
C896 C 0.6716 0.92037 0.241 0.0
C897 C 0.63655 0.9043 0.24613 0.0
C898 C 0.68344 0.92209 0.2127 0.0
C899 C 0.66013 0.90762 0.18969 0.0
C900 C 0.62631 0.8994 0.19447 0.0
H901 H 0.60036 0.72641 0.10792 0.0
H902 H 0.62366 0.77555 0.13999 0.0
C903 C 0.61487 0.8989 0.22259 0.0
C904 C 0.66753 0.89083 0.16525 0.0
H905 H 0.64218 0.86219 0.09627 0.0
C906 C 0.68118 0.86991 0.17233 0.0
C907 C 0.65543 0.88952 0.13674 0.0
C908 C 0.64334 0.9132 0.12655 0.0
C909 C 0.68008 0.84578 0.15282 0.0
C910 C 0.66435 0.84182 0.12565 0.0
C911 C 0.65365 0.86476 0.11738 0.0
C912 C 0.65514 0.81171 0.10718 0.0
C913 C 0.69436 0.8236 0.16207 0.0
C914 C 0.66601 0.81546 0.07832 0.0
C915 C 0.65303 0.7872 0.05994 0.0
C916 C 0.62801 0.7548 0.06987 0.0
C917 C 0.6195 0.75083 0.09948 0.0
C918 C 0.63271 0.77902 0.11785 0.0
H919 H 0.71501 0.83676 0.17825 0.0
H920 H 0.67396 0.80018 0.17237 0.0
H921 H 0.70443 0.81615 0.14327 0.0
H922 H 0.68334 0.84045 0.06967 0.0
H923 H 0.66034 0.79146 0.03732 0.0
H924 H 0.8988 0.67209 0.38979 0.0
H925 H 0.89489 0.71161 0.42307 0.0
H926 H 0.88265 0.64489 0.49439 0.0
H927 H 0.88862 0.60689 0.4617 0.0
H928 H 0.83797 0.69281 0.44287 0.0
H929 H 0.915 0.72634 0.54029 0.0
H930 H 0.9278 0.71297 0.50817 0.0
H931 H 0.90138 0.68241 0.5354 0.0
C932 C 0.89762 0.66701 0.41282 0.0
C933 C 0.89263 0.63562 0.423 0.0
C934 C 0.89497 0.68956 0.4319 0.0
C935 C 0.8875 0.68108 0.46134 0.0
C936 C 0.88867 0.65267 0.47201 0.0
H937 H 0.71906 0.59675 0.537 0.0
H938 H 0.75765 0.63606 0.50159 0.0
C939 C 0.89192 0.63054 0.45308 0.0
C940 C 0.86975 0.6952 0.47878 0.0
H941 H 0.85104 0.69878 0.54953 0.0
C942 C 0.8417 0.69551 0.46614 0.0
C943 C 0.87481 0.70059 0.50899 0.0
C944 C 0.90672 0.70595 0.52375 0.0
C945 C 0.81604 0.69519 0.48327 0.0
C946 C 0.81779 0.69314 0.51376 0.0
C947 C 0.84853 0.69886 0.52618 0.0
C948 C 0.78663 0.6768 0.53221 0.0
C949 C 0.78632 0.69473 0.46834 0.0
C950 C 0.78763 0.68707 0.56115 0.0
C951 C 0.76552 0.66391 0.58177 0.0
C952 C 0.74237 0.63024 0.57359 0.0
C953 C 0.73697 0.62241 0.54396 0.0
C954 C 0.75926 0.64524 0.52349 0.0
H955 H 0.7955 0.71368 0.45049 0.0
H956 H 0.77004 0.66943 0.45829 0.0
H957 H 0.77086 0.70041 0.48349 0.0
H958 H 0.80804 0.71145 0.56847 0.0
H959 H 0.77013 0.67087 0.60446 0.0
H960 H 0.16196 0.73179 0.89311 0.0
H961 H 0.17924 0.77677 0.85712 0.0
H962 H 0.14577 0.83003 0.91327 0.0
H963 H 0.12859 0.78485 0.94985 0.0
H964 H 0.14206 0.80578 0.82971 0.0
H965 H 0.25379 0.89205 0.89611 0.0
H966 H 0.22119 0.85144 0.90934 0.0
H967 H 0.21476 0.88746 0.90954 0.0
C968 C 0.15723 0.7525 0.89743 0.0
C969 C 0.14374 0.75468 0.92416 0.0
C970 C 0.16738 0.77834 0.87698 0.0
C971 C 0.16428 0.80696 0.88279 0.0
C972 C 0.1487 0.80829 0.90862 0.0
H973 H 0.23623 0.90521 0.71963 0.0
H974 H 0.21219 0.91108 0.76521 0.0
C975 C 0.1384 0.78221 0.92923 0.0
C976 C 0.17914 0.83555 0.86189 0.0
H977 H 0.25211 0.91038 0.84851 0.0
C978 C 0.16569 0.82917 0.83383 0.0
C979 C 0.20998 0.86595 0.86753 0.0
C980 C 0.22591 0.87447 0.89723 0.0
C981 C 0.18386 0.85035 0.81055 0.0
C982 C 0.21606 0.87967 0.81578 0.0
C983 C 0.22758 0.88802 0.84447 0.0
C984 C 0.24125 0.89567 0.79195 0.0
C985 C 0.1699 0.83872 0.78038 0.0
C986 C 0.26997 0.89173 0.7925 0.0
C987 C 0.28477 0.89 0.7666 0.0
C988 C 0.27021 0.89112 0.74012 0.0
C989 C 0.24736 0.90342 0.73984 0.0
C990 C 0.23301 0.90598 0.76593 0.0
H991 H 0.14621 0.81357 0.78033 0.0
H992 H 0.16395 0.85731 0.77038 0.0
H993 H 0.18882 0.8367 0.76661 0.0
H994 H 0.27774 0.88481 0.81235 0.0
H995 H 0.30302 0.8813 0.76733 0.0
H996 H 0.33468 0.12878 0.27703 0.0
H997 H 0.29884 0.12276 0.23523 0.0
H998 H 0.38781 0.16945 0.18074 0.0
H999 H 0.42338 0.17586 0.22232 0.0
H1000 H 0.31069 0.18305 0.21249 0.0
H1001 H 0.31691 0.10589 0.12371 0.0
H1002 H 0.32437 0.0993 0.16104 0.0
H1003 H 0.35841 0.13081 0.13906 0.0
C1004 C 0.34623 0.13576 0.25576 0.0
C1005 C 0.38175 0.15281 0.25278 0.0
C1006 C 0.32575 0.13259 0.23194 0.0
C1007 C 0.34057 0.14566 0.20483 0.0
C1008 C 0.37561 0.15859 0.20125 0.0
H1009 H 0.39766 0.29373 0.10736 0.0
H1010 H 0.36124 0.25833 0.14603 0.0
C1011 C 0.39605 0.16226 0.22505 0.0
C1012 C 0.3223 0.15383 0.18248 0.0
H1013 H 0.32226 0.161 0.10922 0.0
C1014 C 0.31182 0.17719 0.18987 0.0
C1015 C 0.32269 0.14563 0.15304 0.0
C1016 C 0.33086 0.1187 0.14384 0.0
C1017 C 0.30694 0.19631 0.16848 0.0
C1018 C 0.31308 0.19213 0.13917 0.0
C1019 C 0.31817 0.16496 0.13169 0.0
C1020 C 0.32362 0.21994 0.1176 0.0
C1021 C 0.298 0.22269 0.1777 0.0
C1022 C 0.31299 0.2123 0.08862 0.0
C1023 C 0.33409 0.23288 0.06629 0.0
C1024 C 0.36625 0.26072 0.0729 0.0
C1025 C 0.37324 0.27211 0.1017 0.0
C1026 C 0.3522 0.25165 0.12397 0.0
H1027 H 0.27932 0.21281 0.19573 0.0
H1028 H 0.32114 0.24545 0.18594 0.0
H1029 H 0.28732 0.23039 0.15952 0.0
H1030 H 0.29082 0.18821 0.08314 0.0
H1031 H 0.3277 0.22365 0.04423 0.0
loop_
_geom_bond_atom_site_label_1
_geom_bond_atom_site_label_2
_geom_bond_distance
_geom_bond_site_symmetry_2
_ccdc_geom_bond_type
Zn0 O3 2.031 . S
Zn0 O5 2.049 . S
Zn0 O10 2.067 . S
Zn1 O2 1.962 . S
Zn1 O4 1.986 . S
Zn1 O6 1.996 . S
Zn1 O9 1.943 . S
O2 Zn1 1.962 . S
O2 C7 1.254 . S
O3 Zn0 2.031 . S
O3 C7 1.269 . S
O4 Zn1 1.986 . S
O4 C11 1.262 . S
O5 Zn0 2.049 . S
O5 C13 1.260 . S
O6 Zn1 1.996 . S
O6 C13 1.257 . S
C7 O2 1.254 . S
C7 O3 1.269 . S
C8 O9 1.249 . S
C8 O10 1.270 . S
O9 Zn1 1.943 . S
O9 C8 1.249 . S
O10 Zn0 2.067 . S
O10 C8 1.270 . S
C11 O4 1.262 . S
C11 O12 1.232 . S
O12 C11 1.232 . S
C13 O5 1.260 . S
C13 O6 1.257 . S
Zn14 O17 2.031 . S
Zn14 O19 2.049 . S
Zn14 O24 2.067 . S
Zn15 O16 1.962 . S
Zn15 O18 1.986 . S
Zn15 O20 1.996 . S
Zn15 O23 1.943 . S
O16 Zn15 1.962 . S
O16 C21 1.254 . S
O17 Zn14 2.031 . S
O17 C21 1.269 . S
O18 Zn15 1.986 . S
O18 C25 1.262 . S
O19 Zn14 2.049 . S
O19 C27 1.260 . S
O20 Zn15 1.996 . S
O20 C27 1.257 . S
C21 O16 1.254 . S
C21 O17 1.269 . S
C22 O23 1.249 . S
C22 O24 1.270 . S
O23 Zn15 1.943 . S
O23 C22 1.249 . S
O24 Zn14 2.067 . S
O24 C22 1.270 . S
C25 O18 1.262 . S
C25 O26 1.232 . S
O26 C25 1.232 . S
C27 O19 1.260 . S
C27 O20 1.257 . S
Zn28 O31 2.031 . S
Zn28 O33 2.049 . S
Zn28 O38 2.067 . S
Zn29 O30 1.962 . S
Zn29 O32 1.986 . S
Zn29 O34 1.996 . S
Zn29 O37 1.943 1_556 S
O30 Zn29 1.962 . S
O30 C35 1.254 . S
O31 Zn28 2.031 . S
O31 C35 1.269 1_554 S
O32 Zn29 1.986 . S
O32 C39 1.262 . S
O33 Zn28 2.049 . S
O33 C41 1.243 1_554 S
O34 Zn29 1.996 . S
O34 C41 1.265 . S
C35 O30 1.254 . S
C35 O31 1.269 1_556 S
C36 O37 1.249 . S
C36 O38 1.270 . S
O37 Zn29 1.943 1_554 S
O37 C36 1.249 . S
O38 Zn28 2.067 . S
O38 C36 1.270 . S
C39 O32 1.262 . S
C39 O40 1.232 . S
O40 C39 1.232 . S
C41 O33 1.243 1_556 S
C41 O34 1.265 . S
Zn42 O45 2.031 . S
Zn42 O47 2.049 . S
Zn42 O52 2.067 . S
Zn43 O44 1.962 . S
Zn43 O46 1.986 . S
Zn43 O48 1.996 . S
Zn43 O51 1.943 . S
O44 Zn43 1.962 . S
O44 C49 1.254 . S
O45 Zn42 2.031 . S
O45 C49 1.269 . S
O46 Zn43 1.986 . S
O46 C53 1.262 . S
O47 Zn42 2.049 . S
O47 C55 1.260 . S
O48 Zn43 1.996 . S
O48 C55 1.257 . S
C49 O44 1.254 . S
C49 O45 1.269 . S
C50 O51 1.249 . S
C50 O52 1.270 . S
O51 Zn43 1.943 . S
O51 C50 1.249 . S
O52 Zn42 2.067 . S
O52 C50 1.270 . S
C53 O46 1.262 . S
C53 O54 1.232 . S
O54 C53 1.232 . S
C55 O47 1.260 . S
C55 O48 1.257 . S
Zn56 O59 2.031 . S
Zn56 O61 2.049 . S
Zn56 O66 2.067 . S
Zn57 O58 1.962 . S
Zn57 O60 1.986 . S
Zn57 O62 1.996 . S
Zn57 O65 1.943 . S
O58 Zn57 1.962 . S
O58 C63 1.254 . S
O59 Zn56 2.031 . S
O59 C63 1.269 . S
O60 Zn57 1.986 . S
O60 C67 1.262 . S
O61 Zn56 2.049 . S
O61 C69 1.260 . S
O62 Zn57 1.996 . S
O62 C69 1.257 . S
C63 O58 1.254 . S
C63 O59 1.269 . S
C64 O65 1.249 . S
C64 O66 1.270 . S
O65 Zn57 1.943 . S
O65 C64 1.249 . S
O66 Zn56 2.067 . S
O66 C64 1.270 . S
C67 O60 1.262 . S
C67 O68 1.232 . S
O68 C67 1.232 . S
C69 O61 1.260 . S
C69 O62 1.257 . S
Zn70 O73 2.031 . S
Zn70 O75 2.049 . S
Zn70 O80 2.067 . S
Zn71 O72 1.962 . S
Zn71 O74 1.986 . S
Zn71 O76 1.996 . S
Zn71 O79 1.943 1_556 S
O72 Zn71 1.962 . S
O72 C77 1.254 . S
O73 Zn70 2.031 . S
O73 C77 1.269 1_554 S
O74 Zn71 1.986 . S
O74 C81 1.262 . S
O75 Zn70 2.049 . S
O75 C83 1.243 1_554 S
O76 Zn71 1.996 . S
O76 C83 1.265 . S
C77 O72 1.254 . S
C77 O73 1.269 1_556 S
C78 O79 1.249 . S
C78 O80 1.270 . S
O79 Zn71 1.943 1_554 S
O79 C78 1.249 . S
O80 Zn70 2.067 . S
O80 C78 1.270 . S
C81 O74 1.262 . S
C81 O82 1.232 . S
O82 C81 1.232 . S
C83 O75 1.243 1_556 S
C83 O76 1.265 . S
Zn84 O87 2.031 . S
Zn84 O89 2.049 . S
Zn84 O94 2.067 . S
Zn85 O86 1.962 . S
Zn85 O88 1.986 . S
Zn85 O90 1.996 . S
Zn85 O93 1.943 . S
O86 Zn85 1.962 . S
O86 C91 1.254 . S
O87 Zn84 2.031 . S
O87 C91 1.269 . S
O88 Zn85 1.986 . S
O88 C95 1.262 . S
O89 Zn84 2.049 . S
O89 C97 1.260 . S
O90 Zn85 1.996 . S
O90 C97 1.257 . S
C91 O86 1.254 . S
C91 O87 1.269 . S
C92 O93 1.249 . S
C92 O94 1.270 . S
O93 Zn85 1.943 . S
O93 C92 1.249 . S
O94 Zn84 2.067 . S
O94 C92 1.270 . S
C95 O88 1.262 . S
C95 O96 1.232 . S
O96 C95 1.232 . S
C97 O89 1.260 . S
C97 O90 1.257 . S
Zn98 O101 2.031 . S
Zn98 O103 2.049 . S
Zn98 O108 2.067 . S
Zn99 O100 1.962 . S
Zn99 O102 1.986 . S
Zn99 O104 1.996 . S
Zn99 O107 1.943 . S
O100 Zn99 1.962 . S
O100 C105 1.254 . S
O101 Zn98 2.031 . S
O101 C105 1.269 . S
O102 Zn99 1.986 . S
O102 C109 1.262 . S
O103 Zn98 2.049 . S
O103 C111 1.260 . S
O104 Zn99 1.996 . S
O104 C111 1.257 . S
C105 O100 1.254 . S
C105 O101 1.269 . S
C106 O107 1.249 . S
C106 O108 1.270 . S
O107 Zn99 1.943 . S
O107 C106 1.249 . S
O108 Zn98 2.067 . S
O108 C106 1.270 . S
C109 O102 1.262 . S
C109 O110 1.232 . S
O110 C109 1.232 . S
C111 O103 1.260 . S
C111 O104 1.257 . S
Zn112 O115 2.031 . S
Zn112 O117 2.049 . S
Zn112 O122 2.067 . S
Zn113 O114 1.962 . S
Zn113 O116 1.986 . S
Zn113 O118 1.996 . S
Zn113 O121 1.943 1_554 S
O114 Zn113 1.962 . S
O114 C119 1.254 . S
O115 Zn112 2.031 . S
O115 C119 1.269 1_556 S
O116 Zn113 1.986 . S
O116 C123 1.262 . S
O117 Zn112 2.049 . S
O117 C125 1.243 1_556 S
O118 Zn113 1.996 . S
O118 C125 1.265 . S
C119 O114 1.254 . S
C119 O115 1.269 1_554 S
C120 O121 1.249 . S
C120 O122 1.270 . S
O121 Zn113 1.943 1_556 S
O121 C120 1.249 . S
O122 Zn112 2.067 . S
O122 C120 1.270 . S
C123 O116 1.262 . S
C123 O124 1.232 . S
O124 C123 1.232 . S
C125 O117 1.243 1_554 S
C125 O118 1.265 . S
Zn126 O129 2.031 . S
Zn126 O131 2.049 . S
Zn126 O136 2.067 . S
Zn127 O128 1.962 . S
Zn127 O130 1.986 . S
Zn127 O132 1.996 . S
Zn127 O135 1.943 . S
O128 Zn127 1.962 . S
O128 C133 1.254 . S
O129 Zn126 2.031 . S
O129 C133 1.269 . S
O130 Zn127 1.986 . S
O130 C137 1.262 . S
O131 Zn126 2.049 . S
O131 C139 1.260 . S
O132 Zn127 1.996 . S
O132 C139 1.257 . S
C133 O128 1.254 . S
C133 O129 1.269 . S
C134 O135 1.249 . S
C134 O136 1.270 . S
O135 Zn127 1.943 . S
O135 C134 1.249 . S
O136 Zn126 2.067 . S
O136 C134 1.270 . S
C137 O130 1.262 . S
C137 O138 1.232 . S
O138 C137 1.232 . S
C139 O131 1.260 . S
C139 O132 1.257 . S
Zn140 O143 2.031 . S
Zn140 O145 2.049 . S
Zn140 O150 2.067 . S
Zn141 O142 1.962 . S
Zn141 O144 1.986 . S
Zn141 O146 1.996 . S
Zn141 O149 1.943 . S
O142 Zn141 1.962 . S
O142 C147 1.254 . S
O143 Zn140 2.031 . S
O143 C147 1.269 . S
O144 Zn141 1.986 . S
O144 C151 1.262 . S
O145 Zn140 2.049 . S
O145 C153 1.260 . S
O146 Zn141 1.996 . S
O146 C153 1.257 . S
C147 O142 1.254 . S
C147 O143 1.269 . S
C148 O149 1.249 . S
C148 O150 1.270 . S
O149 Zn141 1.943 . S
O149 C148 1.249 . S
O150 Zn140 2.067 . S
O150 C148 1.270 . S
C151 O144 1.262 . S
C151 O152 1.232 . S
O152 C151 1.232 . S
C153 O145 1.260 . S
C153 O146 1.257 . S
Zn154 O157 2.031 . S
Zn154 O159 2.049 . S
Zn154 O164 2.067 . S
Zn155 O156 1.962 . S
Zn155 O158 1.986 . S
Zn155 O160 1.996 . S
Zn155 O163 1.943 1_554 S
O156 Zn155 1.962 . S
O156 C161 1.254 . S
O157 Zn154 2.031 . S
O157 C161 1.269 1_556 S
O158 Zn155 1.986 . S
O158 C165 1.262 . S
O159 Zn154 2.049 . S
O159 C167 1.243 1_556 S
O160 Zn155 1.996 . S
O160 C167 1.265 . S
C161 O156 1.254 . S
C161 O157 1.269 1_554 S
C162 O163 1.249 . S
C162 O164 1.270 . S
O163 Zn155 1.943 1_556 S
O163 C162 1.249 . S
O164 Zn154 2.067 . S
O164 C162 1.270 . S
C165 O158 1.262 . S
C165 O166 1.232 . S
O166 C165 1.232 . S
C167 O159 1.243 1_554 S
C167 O160 1.265 . S
H168 C176 0.929 . S
H169 C178 0.930 . S
H170 C180 0.930 . S
H171 C183 0.929 . S
H172 C186 0.930 . S
H173 C188 0.960 . S
H174 C188 0.960 . S
H175 C188 0.960 . S
C176 H168 0.929 . S
C176 C177 1.377 . S
C176 C178 1.384 . S
C177 C176 1.377 . S
C177 C183 1.390 . S
C178 H169 0.930 . S
C178 C176 1.384 . S
C178 C179 1.372 . S
C179 C178 1.372 . S
C179 C180 1.400 . S
C179 C184 1.490 . S
C180 H170 0.930 . S
C180 C179 1.400 . S
C180 C183 1.386 . S
H181 C197 0.930 . S
H182 C198 0.931 . S
C183 H171 0.929 . S
C183 C177 1.390 . S
C183 C180 1.386 . S
C184 C179 1.490 . S
C184 C186 1.395 . S
C184 C187 1.403 . S
H185 C191 0.930 . S
C186 H172 0.930 . S
C186 C184 1.395 . S
C186 C189 1.403 . S
C187 C184 1.403 . S
C187 C188 1.524 . S
C187 C191 1.400 . S
C188 H173 0.960 . S
C188 H174 0.960 . S
C188 H175 0.960 . S
C188 C187 1.524 . S
C189 C186 1.403 . S
C189 C190 1.392 . S
C189 C193 1.495 . S
C190 C189 1.392 . S
C190 C191 1.385 . S
C190 C192 1.478 . S
C191 H185 0.930 . S
C191 C187 1.400 . S
C191 C190 1.385 . S
C192 C190 1.478 . S
C192 C194 1.381 . S
C192 C198 1.383 . S
C193 C189 1.495 . S
C193 H199 0.959 . S
C193 H200 0.961 . S
C193 H201 0.960 . S
C194 C192 1.381 . S
C194 C195 1.394 . S
C194 H202 0.930 . S
C195 C194 1.394 . S
C195 C196 1.383 . S
C195 H203 0.929 . S
C196 C195 1.383 . S
C196 C197 1.377 . S
C197 H181 0.930 . S
C197 C196 1.377 . S
C197 C198 1.379 . S
C198 H182 0.931 . S
C198 C192 1.383 . S
C198 C197 1.379 . S
H199 C193 0.959 . S
H200 C193 0.961 . S
H201 C193 0.960 . S
H202 C194 0.930 . S
H203 C195 0.929 . S
H204 C212 0.929 . S
H205 C214 0.930 . S
H206 C216 0.930 . S
H207 C219 0.929 . S
H208 C222 0.930 . S
H209 C224 0.960 . S
H210 C224 0.960 . S
H211 C224 0.960 . S
C212 H204 0.929 . S
C212 C213 1.377 . S
C212 C214 1.384 . S
C213 C212 1.377 . S
C213 C219 1.390 . S
C214 H205 0.930 . S
C214 C212 1.384 . S
C214 C215 1.372 . S
C215 C214 1.372 . S
C215 C216 1.400 . S
C215 C220 1.490 . S
C216 H206 0.930 . S
C216 C215 1.400 . S
C216 C219 1.386 . S
H217 C233 0.930 . S
H218 C234 0.931 . S
C219 H207 0.929 . S
C219 C213 1.390 . S
C219 C216 1.386 . S
C220 C215 1.490 . S
C220 C222 1.395 . S
C220 C223 1.403 . S
H221 C227 0.930 . S
C222 H208 0.930 . S
C222 C220 1.395 . S
C222 C225 1.403 . S
C223 C220 1.403 . S
C223 C224 1.524 . S
C223 C227 1.400 . S
C224 H209 0.960 . S
C224 H210 0.960 . S
C224 H211 0.960 . S
C224 C223 1.524 . S
C225 C222 1.403 . S
C225 C226 1.392 . S
C225 C229 1.495 . S
C226 C225 1.392 . S
C226 C227 1.385 . S
C226 C228 1.478 . S
C227 H221 0.930 . S
C227 C223 1.400 . S
C227 C226 1.385 . S
C228 C226 1.478 . S
C228 C230 1.381 . S
C228 C234 1.383 . S
C229 C225 1.495 . S
C229 H235 0.959 . S
C229 H236 0.961 . S
C229 H237 0.960 . S
C230 C228 1.381 . S
C230 C231 1.394 . S
C230 H238 0.930 . S
C231 C230 1.394 . S
C231 C232 1.383 . S
C231 H239 0.929 . S
C232 C231 1.383 . S
C232 C233 1.377 . S
C233 H217 0.930 . S
C233 C232 1.377 . S
C233 C234 1.379 . S
C234 H218 0.931 . S
C234 C228 1.383 . S
C234 C233 1.379 . S
H235 C229 0.959 . S
H236 C229 0.961 . S
H237 C229 0.960 . S
H238 C230 0.930 . S
H239 C231 0.929 . S
H240 C248 0.929 . S
H241 C250 0.930 . S
H242 C252 0.930 . S
H243 C255 0.929 . S
H244 C258 0.930 . S
H245 C260 0.960 . S
H246 C260 0.960 . S
H247 C260 0.960 . S
C248 H240 0.929 . S
C248 C249 1.377 1_554 S
C248 C250 1.384 . S
C249 C248 1.377 1_556 S
C249 C255 1.390 . S
C250 H241 0.930 . S
C250 C248 1.384 . S
C250 C251 1.372 1_554 S
C251 C250 1.372 1_556 S
C251 C252 1.400 . S
C251 C256 1.490 1_556 S
C252 H242 0.930 . S
C252 C251 1.400 . S
C252 C255 1.386 . S
H253 C269 0.932 . S
H254 C270 0.928 1_556 S
C255 H243 0.929 . S
C255 C249 1.390 . S
C255 C252 1.386 . S
C256 C251 1.490 1_554 S
C256 C258 1.393 . S
C256 C259 1.404 1_554 S
H257 C263 0.930 . S
C258 H244 0.930 . S
C258 C256 1.393 . S
C258 C261 1.403 . S
C259 C256 1.404 1_556 S
C259 C260 1.524 . S
C259 C263 1.400 . S
C260 H245 0.960 . S
C260 H246 0.960 . S
C260 H247 0.960 . S
C260 C259 1.524 . S
C261 C258 1.403 . S
C261 C262 1.392 . S
C261 C265 1.495 . S
C262 C261 1.392 . S
C262 C263 1.385 1_554 S
C262 C264 1.478 . S
C263 H257 0.930 . S
C263 C259 1.400 . S
C263 C262 1.385 1_556 S
C264 C262 1.478 . S
C264 C266 1.381 . S
C264 C270 1.386 . S
C265 C261 1.495 . S
C265 H271 0.959 . S
C265 H272 0.961 . S
C265 H273 0.960 . S
C266 C264 1.381 . S
C266 C267 1.394 . S
C266 H274 0.930 . S
C267 C266 1.394 . S
C267 C268 1.383 . S
C267 H275 0.929 . S
C268 C267 1.383 . S
C268 C269 1.375 1_554 S
C269 H253 0.932 . S
C269 C268 1.375 1_556 S
C269 C270 1.379 1_556 S
C270 H254 0.928 1_554 S
C270 C264 1.386 . S
C270 C269 1.379 1_554 S
H271 C265 0.959 . S
H272 C265 0.961 . S
H273 C265 0.960 . S
H274 C266 0.930 . S
H275 C267 0.929 . S
H276 C284 0.929 . S
H277 C286 0.930 . S
H278 C288 0.930 . S
H279 C291 0.929 . S
H280 C294 0.930 . S
H281 C296 0.960 . S
H282 C296 0.960 . S
H283 C296 0.960 . S
C284 H276 0.929 . S
C284 C285 1.377 . S
C284 C286 1.384 . S
C285 C284 1.377 . S
C285 C291 1.390 . S
C286 H277 0.930 . S
C286 C284 1.384 . S
C286 C287 1.372 . S
C287 C286 1.372 . S
C287 C288 1.400 . S
C287 C292 1.490 . S
C288 H278 0.930 . S
C288 C287 1.400 . S
C288 C291 1.386 . S
H289 C305 0.930 . S
H290 C306 0.931 . S
C291 H279 0.929 . S
C291 C285 1.390 . S
C291 C288 1.386 . S
C292 C287 1.490 . S
C292 C294 1.395 . S
C292 C295 1.403 . S
H293 C299 0.930 . S
C294 H280 0.930 . S
C294 C292 1.395 . S
C294 C297 1.403 . S
C295 C292 1.403 . S
C295 C296 1.524 . S
C295 C299 1.400 . S
C296 H281 0.960 . S
C296 H282 0.960 . S
C296 H283 0.960 . S
C296 C295 1.524 . S
C297 C294 1.403 . S
C297 C298 1.392 . S
C297 C301 1.495 . S
C298 C297 1.392 . S
C298 C299 1.385 . S
C298 C300 1.478 . S
C299 H293 0.930 . S
C299 C295 1.400 . S
C299 C298 1.385 . S
C300 C298 1.478 . S
C300 C302 1.381 . S
C300 C306 1.383 . S
C301 C297 1.495 . S
C301 H307 0.959 . S
C301 H308 0.961 . S
C301 H309 0.960 . S
C302 C300 1.381 . S
C302 C303 1.394 . S
C302 H310 0.930 . S
C303 C302 1.394 . S
C303 C304 1.383 . S
C303 H311 0.929 . S
C304 C303 1.383 . S
C304 C305 1.377 . S
C305 H289 0.930 . S
C305 C304 1.377 . S
C305 C306 1.379 . S
C306 H290 0.931 . S
C306 C300 1.383 . S
C306 C305 1.379 . S
H307 C301 0.959 . S
H308 C301 0.961 . S
H309 C301 0.960 . S
H310 C302 0.930 . S
H311 C303 0.929 . S
H312 C320 0.929 . S
H313 C322 0.930 . S
H314 C324 0.930 . S
H315 C327 0.929 . S
H316 C330 0.930 . S
H317 C332 0.960 . S
H318 C332 0.960 . S
H319 C332 0.960 . S
C320 H312 0.929 . S
C320 C321 1.377 . S
C320 C322 1.384 . S
C321 C320 1.377 . S
C321 C327 1.390 . S
C322 H313 0.930 . S
C322 C320 1.384 . S
C322 C323 1.372 . S
C323 C322 1.372 . S
C323 C324 1.400 . S
C323 C328 1.490 . S
C324 H314 0.930 . S
C324 C323 1.400 . S
C324 C327 1.386 . S
H325 C341 0.930 . S
H326 C342 0.931 . S
C327 H315 0.929 . S
C327 C321 1.390 . S
C327 C324 1.386 . S
C328 C323 1.490 . S
C328 C330 1.395 . S
C328 C331 1.403 . S
H329 C335 0.930 . S
C330 H316 0.930 . S
C330 C328 1.395 . S
C330 C333 1.403 . S
C331 C328 1.403 . S
C331 C332 1.524 . S
C331 C335 1.400 . S
C332 H317 0.960 . S
C332 H318 0.960 . S
C332 H319 0.960 . S
C332 C331 1.524 . S
C333 C330 1.403 . S
C333 C334 1.392 . S
C333 C337 1.495 . S
C334 C333 1.392 . S
C334 C335 1.385 . S
C334 C336 1.478 . S
C335 H329 0.930 . S
C335 C331 1.400 . S
C335 C334 1.385 . S
C336 C334 1.478 . S
C336 C338 1.381 . S
C336 C342 1.383 . S
C337 C333 1.495 . S
C337 H343 0.959 . S
C337 H344 0.961 . S
C337 H345 0.960 . S
C338 C336 1.381 . S
C338 C339 1.394 . S
C338 H346 0.930 . S
C339 C338 1.394 . S
C339 C340 1.383 . S
C339 H347 0.929 . S
C340 C339 1.383 . S
C340 C341 1.377 . S
C341 H325 0.930 . S
C341 C340 1.377 . S
C341 C342 1.379 . S
C342 H326 0.931 . S
C342 C336 1.383 . S
C342 C341 1.379 . S
H343 C337 0.959 . S
H344 C337 0.961 . S
H345 C337 0.960 . S
H346 C338 0.930 . S
H347 C339 0.929 . S
H348 C356 0.929 . S
H349 C358 0.930 . S
H350 C360 0.930 . S
H351 C363 0.929 . S
H352 C366 0.930 . S
H353 C368 0.960 . S
H354 C368 0.960 . S
H355 C368 0.960 . S
C356 H348 0.929 . S
C356 C357 1.377 1_556 S
C356 C358 1.384 . S
C357 C356 1.377 1_554 S
C357 C363 1.390 . S
C358 H349 0.930 . S
C358 C356 1.384 . S
C358 C359 1.372 1_556 S
C359 C358 1.372 1_554 S
C359 C360 1.400 . S
C359 C364 1.489 1_554 S
C360 H350 0.930 . S
C360 C359 1.400 . S
C360 C363 1.386 . S
H361 C377 0.930 . S
H362 C378 0.931 . S
C363 H351 0.929 . S
C363 C357 1.390 . S
C363 C360 1.386 . S
C364 C359 1.489 1_556 S
C364 C366 1.406 . S
C364 C367 1.394 1_556 S
H365 C371 0.930 . S
C366 H352 0.930 . S
C366 C364 1.406 . S
C366 C369 1.403 . S
C367 C364 1.394 1_554 S
C367 C368 1.524 . S
C367 C371 1.400 . S
C368 H353 0.960 . S
C368 H354 0.960 . S
C368 H355 0.960 . S
C368 C367 1.524 . S
C369 C366 1.403 . S
C369 C370 1.392 . S
C369 C373 1.495 . S
C370 C369 1.392 . S
C370 C371 1.385 1_556 S
C370 C372 1.478 . S
C371 H365 0.930 . S
C371 C367 1.400 . S
C371 C370 1.385 1_554 S
C372 C370 1.478 . S
C372 C374 1.381 . S
C372 C378 1.383 1_556 S
C373 C369 1.495 . S
C373 H379 0.959 . S
C373 H380 0.961 . S
C373 H381 0.960 . S
C374 C372 1.381 . S
C374 C375 1.394 . S
C374 H382 0.930 . S
C375 C374 1.394 . S
C375 C376 1.383 . S
C375 H383 0.929 . S
C376 C375 1.383 . S
C376 C377 1.377 1_556 S
C377 H361 0.930 . S
C377 C376 1.377 1_554 S
C377 C378 1.379 . S
C378 H362 0.931 . S
C378 C372 1.383 1_554 S
C378 C377 1.379 . S
H379 C373 0.959 . S
H380 C373 0.961 . S
H381 C373 0.960 . S
H382 C374 0.930 . S
H383 C375 0.929 . S
H384 C392 0.929 . S
H385 C394 0.930 . S
H386 C396 0.930 . S
H387 C399 0.929 . S
H388 C402 0.930 . S
H389 C404 0.960 . S
H390 C404 0.960 . S
H391 C404 0.960 . S
C392 H384 0.929 . S
C392 C393 1.377 . S
C392 C394 1.384 . S
C393 C392 1.377 . S
C393 C399 1.390 . S
C394 H385 0.930 . S
C394 C392 1.384 . S
C394 C395 1.372 . S
C395 C394 1.372 . S
C395 C396 1.400 . S
C395 C400 1.490 . S
C396 H386 0.930 . S
C396 C395 1.400 . S
C396 C399 1.386 . S
H397 C413 0.930 . S
H398 C414 0.931 . S
C399 H387 0.929 . S
C399 C393 1.390 . S
C399 C396 1.386 . S
C400 C395 1.490 . S
C400 C402 1.395 . S
C400 C403 1.403 . S
H401 C407 0.930 . S
C402 H388 0.930 . S
C402 C400 1.395 . S
C402 C405 1.403 . S
C403 C400 1.403 . S
C403 C404 1.524 . S
C403 C407 1.400 . S
C404 H389 0.960 . S
C404 H390 0.960 . S
C404 H391 0.960 . S
C404 C403 1.524 . S
C405 C402 1.403 . S
C405 C406 1.392 . S
C405 C409 1.495 . S
C406 C405 1.392 . S
C406 C407 1.385 . S
C406 C408 1.478 . S
C407 H401 0.930 . S
C407 C403 1.400 . S
C407 C406 1.385 . S
C408 C406 1.478 . S
C408 C410 1.381 . S
C408 C414 1.383 . S
C409 C405 1.495 . S
C409 H415 0.959 . S
C409 H416 0.961 . S
C409 H417 0.960 . S
C410 C408 1.381 . S
C410 C411 1.394 . S
C410 H418 0.930 . S
C411 C410 1.394 . S
C411 C412 1.383 . S
C411 H419 0.929 . S
C412 C411 1.383 . S
C412 C413 1.377 . S
C413 H397 0.930 . S
C413 C412 1.377 . S
C413 C414 1.379 . S
C414 H398 0.931 . S
C414 C408 1.383 . S
C414 C413 1.379 . S
H415 C409 0.959 . S
H416 C409 0.961 . S
H417 C409 0.960 . S
H418 C410 0.930 . S
H419 C411 0.929 . S
H420 C428 0.929 . S
H421 C430 0.930 . S
H422 C432 0.930 . S
H423 C435 0.929 . S
H424 C438 0.930 . S
H425 C440 0.960 . S
H426 C440 0.960 . S
H427 C440 0.960 . S
C428 H420 0.929 . S
C428 C429 1.377 . S
C428 C430 1.384 . S
C429 C428 1.377 . S
C429 C435 1.390 . S
C430 H421 0.930 . S
C430 C428 1.384 . S
C430 C431 1.372 . S
C431 C430 1.372 . S
C431 C432 1.400 . S
C431 C436 1.490 . S
C432 H422 0.930 . S
C432 C431 1.400 . S
C432 C435 1.386 . S
H433 C449 0.930 . S
H434 C450 0.931 . S
C435 H423 0.929 . S
C435 C429 1.390 . S
C435 C432 1.386 . S
C436 C431 1.490 . S
C436 C438 1.395 . S
C436 C439 1.403 . S
H437 C443 0.930 . S
C438 H424 0.930 . S
C438 C436 1.395 . S
C438 C441 1.403 1_655 S
C439 C436 1.403 . S
C439 C440 1.524 . S
C439 C443 1.400 1_655 S
C440 H425 0.960 . S
C440 H426 0.960 . S
C440 H427 0.960 . S
C440 C439 1.524 . S
C441 C438 1.403 1_455 S
C441 C442 1.392 . S
C441 C445 1.495 . S
C442 C441 1.392 . S
C442 C443 1.385 . S
C442 C444 1.478 . S
C443 H437 0.930 . S
C443 C439 1.400 1_455 S
C443 C442 1.385 . S
C444 C442 1.478 . S
C444 C446 1.381 . S
C444 C450 1.383 . S
C445 C441 1.495 . S
C445 H451 0.959 . S
C445 H452 0.961 . S
C445 H453 0.960 . S
C446 C444 1.381 . S
C446 C447 1.394 . S
C446 H454 0.930 . S
C447 C446 1.394 . S
C447 C448 1.383 . S
C447 H455 0.929 . S
C448 C447 1.383 . S
C448 C449 1.377 . S
C449 H433 0.930 . S
C449 C448 1.377 . S
C449 C450 1.379 . S
C450 H434 0.931 . S
C450 C444 1.383 . S
C450 C449 1.379 . S
H451 C445 0.959 . S
H452 C445 0.961 . S
H453 C445 0.960 . S
H454 C446 0.930 . S
H455 C447 0.929 . S
H456 C464 0.929 . S
H457 C466 0.930 . S
H458 C468 0.930 . S
H459 C471 0.929 . S
H460 C474 0.930 . S
H461 C476 0.960 . S
H462 C476 0.960 . S
H463 C476 0.960 1_554 S
C464 H456 0.929 . S
C464 C465 1.377 1_556 S
C464 C466 1.384 . S
C465 C464 1.377 1_554 S
C465 C471 1.390 . S
C466 H457 0.930 . S
C466 C464 1.384 . S
C466 C467 1.372 1_556 S
C467 C466 1.372 1_554 S
C467 C468 1.400 . S
C467 C472 1.492 . S
C468 H458 0.930 . S
C468 C467 1.400 . S
C468 C471 1.386 . S
H469 C485 0.930 . S
H470 C486 0.931 . S
C471 H459 0.929 . S
C471 C465 1.390 . S
C471 C468 1.386 . S
C472 C467 1.492 . S
C472 C474 1.397 . S
C472 C475 1.399 1_554 S
H473 C479 0.930 . S
C474 H460 0.930 . S
C474 C472 1.397 . S
C474 C477 1.403 1_545 S
C475 C472 1.399 1_556 S
C475 C476 1.524 . S
C475 C479 1.400 1_545 S
C476 H461 0.960 . S
C476 H462 0.960 . S
C476 H463 0.960 1_556 S
C476 C475 1.524 . S
C477 C474 1.403 1_565 S
C477 C478 1.392 1_554 S
C477 C481 1.495 . S
C478 C477 1.392 1_556 S
C478 C479 1.385 . S
C478 C480 1.478 . S
C479 H473 0.930 . S
C479 C475 1.400 1_565 S
C479 C478 1.385 . S
C480 C478 1.478 . S
C480 C482 1.381 . S
C480 C486 1.383 1_556 S
C481 C477 1.495 . S
C481 H487 0.959 . S
C481 H488 0.961 . S
C481 H489 0.960 1_554 S
C482 C480 1.381 . S
C482 C483 1.394 . S
C482 H490 0.930 . S
C483 C482 1.394 . S
C483 C484 1.383 . S
C483 H491 0.929 . S
C484 C483 1.383 . S
C484 C485 1.377 1_556 S
C485 H469 0.930 . S
C485 C484 1.377 1_554 S
C485 C486 1.379 . S
C486 H470 0.931 . S
C486 C480 1.383 1_554 S
C486 C485 1.379 . S
H487 C481 0.959 . S
H488 C481 0.961 . S
H489 C481 0.960 1_556 S
H490 C482 0.930 . S
H491 C483 0.929 . S
H492 C500 0.929 . S
H493 C502 0.930 . S
H494 C504 0.930 . S
H495 C507 0.929 . S
H496 C510 0.930 . S
H497 C512 0.960 . S
H498 C512 0.960 . S
H499 C512 0.960 . S
C500 H492 0.929 . S
C500 C501 1.377 . S
C500 C502 1.384 . S
C501 C500 1.377 . S
C501 C507 1.390 . S
C502 H493 0.930 . S
C502 C500 1.384 . S
C502 C503 1.372 . S
C503 C502 1.372 . S
C503 C504 1.400 . S
C503 C508 1.490 . S
C504 H494 0.930 . S
C504 C503 1.400 . S
C504 C507 1.386 . S
H505 C521 0.930 . S
H506 C522 0.931 . S
C507 H495 0.929 . S
C507 C501 1.390 . S
C507 C504 1.386 . S
C508 C503 1.490 . S
C508 C510 1.395 . S
C508 C511 1.403 . S
H509 C515 0.930 . S
C510 H496 0.930 . S
C510 C508 1.395 . S
C510 C513 1.403 . S
C511 C508 1.403 . S
C511 C512 1.524 . S
C511 C515 1.400 . S
C512 H497 0.960 . S
C512 H498 0.960 . S
C512 H499 0.960 . S
C512 C511 1.524 . S
C513 C510 1.403 . S
C513 C514 1.392 . S
C513 C517 1.495 . S
C514 C513 1.392 . S
C514 C515 1.385 . S
C514 C516 1.478 . S
C515 H509 0.930 . S
C515 C511 1.400 . S
C515 C514 1.385 . S
C516 C514 1.478 . S
C516 C518 1.381 . S
C516 C522 1.383 . S
C517 C513 1.495 . S
C517 H523 0.959 . S
C517 H524 0.961 . S
C517 H525 0.960 . S
C518 C516 1.381 . S
C518 C519 1.394 . S
C518 H526 0.930 . S
C519 C518 1.394 . S
C519 C520 1.383 . S
C519 H527 0.929 . S
C520 C519 1.383 . S
C520 C521 1.377 . S
C521 H505 0.930 . S
C521 C520 1.377 . S
C521 C522 1.379 . S
C522 H506 0.931 . S
C522 C516 1.383 . S
C522 C521 1.379 . S
H523 C517 0.959 . S
H524 C517 0.961 . S
H525 C517 0.960 . S
H526 C518 0.930 . S
H527 C519 0.929 . S
H528 C536 0.929 . S
H529 C538 0.930 . S
H530 C540 0.930 . S
H531 C543 0.929 . S
H532 C546 0.930 . S
H533 C548 0.960 . S
H534 C548 0.960 . S
H535 C548 0.960 . S
C536 H528 0.929 . S
C536 C537 1.377 . S
C536 C538 1.384 . S
C537 C536 1.377 . S
C537 C543 1.390 . S
C538 H529 0.930 . S
C538 C536 1.384 . S
C538 C539 1.372 . S
C539 C538 1.372 . S
C539 C540 1.400 . S
C539 C544 1.490 . S
C540 H530 0.930 . S
C540 C539 1.400 . S
C540 C543 1.386 . S
H541 C557 0.930 . S
H542 C558 0.931 . S
C543 H531 0.929 . S
C543 C537 1.390 . S
C543 C540 1.386 . S
C544 C539 1.490 . S
C544 C546 1.395 . S
C544 C547 1.403 . S
H545 C551 0.930 . S
C546 H532 0.930 . S
C546 C544 1.395 . S
C546 C549 1.403 1_455 S
C547 C544 1.403 . S
C547 C548 1.524 . S
C547 C551 1.400 1_455 S
C548 H533 0.960 . S
C548 H534 0.960 . S
C548 H535 0.960 . S
C548 C547 1.524 . S
C549 C546 1.403 1_655 S
C549 C550 1.392 . S
C549 C553 1.495 . S
C550 C549 1.392 . S
C550 C551 1.385 . S
C550 C552 1.478 . S
C551 H545 0.930 . S
C551 C547 1.400 1_655 S
C551 C550 1.385 . S
C552 C550 1.478 . S
C552 C554 1.381 . S
C552 C558 1.383 . S
C553 C549 1.495 . S
C553 H559 0.959 . S
C553 H560 0.961 . S
C553 H561 0.960 . S
C554 C552 1.381 . S
C554 C555 1.394 . S
C554 H562 0.930 . S
C555 C554 1.394 . S
C555 C556 1.383 . S
C555 H563 0.929 . S
C556 C555 1.383 . S
C556 C557 1.377 . S
C557 H541 0.930 . S
C557 C556 1.377 . S
C557 C558 1.379 . S
C558 H542 0.931 . S
C558 C552 1.383 . S
C558 C557 1.379 . S
H559 C553 0.959 . S
H560 C553 0.961 . S
H561 C553 0.960 . S
H562 C554 0.930 . S
H563 C555 0.929 . S
H564 C572 0.929 . S
H565 C574 0.930 . S
H566 C576 0.930 . S
H567 C579 0.929 . S
H568 C582 0.930 . S
H569 C584 0.960 . S
H570 C584 0.960 . S
H571 C584 0.960 . S
C572 H564 0.929 . S
C572 C573 1.377 . S
C572 C574 1.384 . S
C573 C572 1.377 . S
C573 C579 1.390 1_556 S
C574 H565 0.930 . S
C574 C572 1.384 . S
C574 C575 1.372 . S
C575 C574 1.372 . S
C575 C576 1.400 1_556 S
C575 C580 1.490 . S
C576 H566 0.930 . S
C576 C575 1.400 1_554 S
C576 C579 1.386 . S
H577 C593 0.930 . S
H578 C594 0.931 . S
C579 H567 0.929 . S
C579 C573 1.390 1_554 S
C579 C576 1.386 . S
C580 C575 1.490 . S
C580 C582 1.395 . S
C580 C583 1.403 1_556 S
H581 C587 0.930 . S
C582 H568 0.930 . S
C582 C580 1.395 . S
C582 C585 1.403 1_545 S
C583 C580 1.403 1_554 S
C583 C584 1.524 . S
C583 C587 1.400 1_545 S
C584 H569 0.960 . S
C584 H570 0.960 . S
C584 H571 0.960 . S
C584 C583 1.524 . S
C585 C582 1.403 1_565 S
C585 C586 1.392 . S
C585 C589 1.495 . S
C586 C585 1.392 . S
C586 C587 1.385 1_556 S
C586 C588 1.478 . S
C587 H581 0.930 . S
C587 C583 1.400 1_565 S
C587 C586 1.385 1_554 S
C588 C586 1.478 . S
C588 C590 1.381 . S
C588 C594 1.383 1_556 S
C589 C585 1.495 . S
C589 H595 0.959 . S
C589 H596 0.961 . S
C589 H597 0.960 . S
C590 C588 1.381 . S
C590 C591 1.394 . S
C590 H598 0.930 . S
C591 C590 1.394 . S
C591 C592 1.383 1_556 S
C591 H599 0.929 . S
C592 C591 1.383 1_554 S
C592 C593 1.377 . S
C593 H577 0.930 . S
C593 C592 1.377 . S
C593 C594 1.379 . S
C594 H578 0.931 . S
C594 C588 1.383 1_554 S
C594 C593 1.379 . S
H595 C589 0.959 . S
H596 C589 0.961 . S
H597 C589 0.960 . S
H598 C590 0.930 . S
H599 C591 0.929 . S
H600 C608 0.929 . S
H601 C610 0.930 . S
H602 C612 0.930 . S
H603 C615 0.929 . S
H604 C618 0.930 . S
H605 C620 0.960 . S
H606 C620 0.960 . S
H607 C620 0.960 . S
C608 H600 0.929 . S
C608 C609 1.377 . S
C608 C610 1.384 . S
C609 C608 1.377 . S
C609 C615 1.390 . S
C610 H601 0.930 . S
C610 C608 1.384 . S
C610 C611 1.372 . S
C611 C610 1.372 . S
C611 C612 1.400 . S
C611 C616 1.490 . S
C612 H602 0.930 . S
C612 C611 1.400 . S
C612 C615 1.386 . S
H613 C629 0.930 . S
H614 C630 0.931 . S
C615 H603 0.929 . S
C615 C609 1.390 . S
C615 C612 1.386 . S
C616 C611 1.490 . S
C616 C618 1.395 1_655 S
C616 C619 1.403 . S
H617 C623 0.930 . S
C618 H604 0.930 . S
C618 C616 1.395 1_455 S
C618 C621 1.403 . S
C619 C616 1.403 . S
C619 C620 1.524 . S
C619 C623 1.400 1_655 S
C620 H605 0.960 . S
C620 H606 0.960 . S
C620 H607 0.960 . S
C620 C619 1.524 . S
C621 C618 1.403 . S
C621 C622 1.392 . S
C621 C625 1.495 . S
C622 C621 1.392 . S
C622 C623 1.385 . S
C622 C624 1.478 . S
C623 H617 0.930 . S
C623 C619 1.400 1_455 S
C623 C622 1.385 . S
C624 C622 1.478 . S
C624 C626 1.381 . S
C624 C630 1.383 . S
C625 C621 1.495 . S
C625 H631 0.959 . S
C625 H632 0.961 . S
C625 H633 0.960 . S
C626 C624 1.381 . S
C626 C627 1.394 . S
C626 H634 0.930 . S
C627 C626 1.394 . S
C627 C628 1.383 . S
C627 H635 0.929 . S
C628 C627 1.383 . S
C628 C629 1.377 . S
C629 H613 0.930 . S
C629 C628 1.377 . S
C629 C630 1.379 . S
C630 H614 0.931 . S
C630 C624 1.383 . S
C630 C629 1.379 . S
H631 C625 0.959 . S
H632 C625 0.961 . S
H633 C625 0.960 . S
H634 C626 0.930 . S
H635 C627 0.929 . S
H636 C644 0.929 . S
H637 C646 0.930 . S
H638 C648 0.930 . S
H639 C651 0.929 . S
H640 C654 0.930 . S
H641 C656 0.960 . S
H642 C656 0.960 . S
H643 C656 0.960 . S
C644 H636 0.929 . S
C644 C645 1.377 . S
C644 C646 1.384 . S
C645 C644 1.377 . S
C645 C651 1.390 . S
C646 H637 0.930 . S
C646 C644 1.384 . S
C646 C647 1.372 . S
C647 C646 1.372 . S
C647 C648 1.400 . S
C647 C652 1.490 . S
C648 H638 0.930 . S
C648 C647 1.400 . S
C648 C651 1.386 . S
H649 C665 0.930 . S
H650 C666 0.931 . S
C651 H639 0.929 . S
C651 C645 1.390 . S
C651 C648 1.386 . S
C652 C647 1.490 . S
C652 C654 1.395 1_545 S
C652 C655 1.403 . S
H653 C659 0.935 . S
C654 H640 0.930 . S
C654 C652 1.395 1_565 S
C654 C657 1.403 . S
C655 C652 1.403 . S
C655 C656 1.524 . S
C655 C659 1.407 . S
C656 H641 0.960 . S
C656 H642 0.960 . S
C656 H643 0.960 . S
C656 C655 1.524 . S
C657 C654 1.403 . S
C657 C658 1.392 . S
C657 C661 1.495 . S
C658 C657 1.392 . S
C658 C659 1.374 1_565 S
C658 C660 1.478 . S
C659 H653 0.935 . S
C659 C655 1.407 . S
C659 C658 1.374 1_545 S
C660 C658 1.478 . S
C660 C662 1.381 . S
C660 C666 1.383 . S
C661 C657 1.495 . S
C661 H667 0.959 . S
C661 H668 0.961 . S
C661 H669 0.960 . S
C662 C660 1.381 . S
C662 C663 1.394 . S
C662 H670 0.930 . S
C663 C662 1.394 . S
C663 C664 1.383 . S
C663 H671 0.929 . S
C664 C663 1.383 . S
C664 C665 1.377 . S
C665 H649 0.930 . S
C665 C664 1.377 . S
C665 C666 1.379 . S
C666 H650 0.931 . S
C666 C660 1.383 . S
C666 C665 1.379 . S
H667 C661 0.959 . S
H668 C661 0.961 . S
H669 C661 0.960 . S
H670 C662 0.930 . S
H671 C663 0.929 . S
H672 C680 0.929 . S
H673 C682 0.930 . S
H674 C684 0.930 . S
H675 C687 0.929 . S
H676 C690 0.930 . S
H677 C692 0.960 . S
H678 C692 0.960 . S
H679 C692 0.960 . S
C680 H672 0.929 . S
C680 C681 1.377 . S
C680 C682 1.384 . S
C681 C680 1.377 . S
C681 C687 1.390 . S
C682 H673 0.930 . S
C682 C680 1.384 . S
C682 C683 1.372 . S
C683 C682 1.372 . S
C683 C684 1.400 . S
C683 C688 1.490 . S
C684 H674 0.930 . S
C684 C683 1.400 . S
C684 C687 1.386 . S
H685 C701 0.930 . S
H686 C702 0.931 . S
C687 H675 0.929 . S
C687 C681 1.390 . S
C687 C684 1.386 . S
C688 C683 1.490 . S
C688 C690 1.395 . S
C688 C691 1.403 . S
H689 C695 0.930 . S
C690 H676 0.930 . S
C690 C688 1.395 . S
C690 C693 1.403 . S
C691 C688 1.403 . S
C691 C692 1.524 . S
C691 C695 1.400 . S
C692 H677 0.960 . S
C692 H678 0.960 . S
C692 H679 0.960 . S
C692 C691 1.524 . S
C693 C690 1.403 . S
C693 C694 1.392 . S
C693 C697 1.495 . S
C694 C693 1.392 . S
C694 C695 1.385 . S
C694 C696 1.478 . S
C695 H689 0.930 . S
C695 C691 1.400 . S
C695 C694 1.385 . S
C696 C694 1.478 . S
C696 C698 1.381 . S
C696 C702 1.383 . S
C697 C693 1.495 . S
C697 H703 0.959 . S
C697 H704 0.961 . S
C697 H705 0.960 . S
C698 C696 1.381 . S
C698 C699 1.394 . S
C698 H706 0.930 . S
C699 C698 1.394 . S
C699 C700 1.383 . S
C699 H707 0.929 . S
C700 C699 1.383 . S
C700 C701 1.377 . S
C701 H685 0.930 . S
C701 C700 1.377 . S
C701 C702 1.379 . S
C702 H686 0.931 . S
C702 C696 1.383 . S
C702 C701 1.379 . S
H703 C697 0.959 . S
H704 C697 0.961 . S
H705 C697 0.960 . S
H706 C698 0.930 . S
H707 C699 0.929 . S
H708 C716 0.929 . S
H709 C718 0.930 . S
H710 C720 0.930 . S
H711 C723 0.929 . S
H712 C726 0.930 . S
H713 C728 0.960 . S
H714 C728 0.960 . S
H715 C728 0.960 . S
C716 H708 0.929 . S
C716 C717 1.377 . S
C716 C718 1.384 . S
C717 C716 1.377 . S
C717 C723 1.390 . S
C718 H709 0.930 . S
C718 C716 1.384 . S
C718 C719 1.372 . S
C719 C718 1.372 . S
C719 C720 1.400 . S
C719 C724 1.490 . S
C720 H710 0.930 . S
C720 C719 1.400 . S
C720 C723 1.386 . S
H721 C737 0.930 . S
H722 C738 0.931 . S
C723 H711 0.929 . S
C723 C717 1.390 . S
C723 C720 1.386 . S
C724 C719 1.490 . S
C724 C726 1.395 1_455 S
C724 C727 1.403 . S
H725 C731 0.930 . S
C726 H712 0.930 . S
C726 C724 1.395 1_655 S
C726 C729 1.403 . S
C727 C724 1.403 . S
C727 C728 1.524 . S
C727 C731 1.400 . S
C728 H713 0.960 . S
C728 H714 0.960 . S
C728 H715 0.960 . S
C728 C727 1.524 . S
C729 C726 1.403 . S
C729 C730 1.392 . S
C729 C733 1.495 . S
C730 C729 1.392 . S
C730 C731 1.385 1_655 S
C730 C732 1.478 . S
C731 H725 0.930 . S
C731 C727 1.400 . S
C731 C730 1.385 1_455 S
C732 C730 1.478 . S
C732 C734 1.381 . S
C732 C738 1.383 . S
C733 C729 1.495 . S
C733 H739 0.959 . S
C733 H740 0.961 . S
C733 H741 0.960 . S
C734 C732 1.381 . S
C734 C735 1.394 . S
C734 H742 0.930 . S
C735 C734 1.394 . S
C735 C736 1.383 . S
C735 H743 0.929 . S
C736 C735 1.383 . S
C736 C737 1.377 . S
C737 H721 0.930 . S
C737 C736 1.377 . S
C737 C738 1.379 . S
C738 H722 0.931 . S
C738 C732 1.383 . S
C738 C737 1.379 . S
H739 C733 0.959 . S
H740 C733 0.961 . S
H741 C733 0.960 . S
H742 C734 0.930 . S
H743 C735 0.929 . S
H744 C752 0.929 . S
H745 C754 0.930 . S
H746 C756 0.930 . S
H747 C759 0.929 . S
H748 C762 0.930 . S
H749 C764 0.960 . S
H750 C764 0.960 1_545 S
H751 C764 0.960 . S
C752 H744 0.929 . S
C752 C753 1.377 . S
C752 C754 1.384 . S
C753 C752 1.377 . S
C753 C759 1.390 . S
C754 H745 0.930 . S
C754 C752 1.384 . S
C754 C755 1.372 . S
C755 C754 1.372 . S
C755 C756 1.400 . S
C755 C760 1.490 . S
C756 H746 0.930 . S
C756 C755 1.400 . S
C756 C759 1.386 . S
H757 C773 0.930 . S
H758 C774 0.931 . S
C759 H747 0.929 . S
C759 C753 1.390 . S
C759 C756 1.386 . S
C760 C755 1.490 . S
C760 C762 1.395 . S
C760 C763 1.366 1_545 S
H761 C767 0.930 . S
C762 H748 0.930 . S
C762 C760 1.395 . S
C762 C765 1.403 . S
C763 C760 1.366 1_565 S
C763 C764 1.544 . S
C763 C767 1.418 . S
C764 H749 0.960 . S
C764 H750 0.960 1_565 S
C764 H751 0.960 . S
C764 C763 1.544 . S
C765 C762 1.403 . S
C765 C766 1.392 1_545 S
C765 C769 1.495 . S
C766 C765 1.392 1_565 S
C766 C767 1.385 . S
C766 C768 1.478 . S
C767 H761 0.930 . S
C767 C763 1.418 . S
C767 C766 1.385 . S
C768 C766 1.478 . S
C768 C770 1.381 . S
C768 C774 1.383 . S
C769 C765 1.495 . S
C769 H775 0.959 . S
C769 H776 0.961 1_545 S
C769 H777 0.960 . S
C770 C768 1.381 . S
C770 C771 1.394 . S
C770 H778 0.930 . S
C771 C770 1.394 . S
C771 C772 1.383 . S
C771 H779 0.929 . S
C772 C771 1.383 . S
C772 C773 1.377 . S
C773 H757 0.930 . S
C773 C772 1.377 . S
C773 C774 1.379 . S
C774 H758 0.931 . S
C774 C768 1.383 . S
C774 C773 1.379 . S
H775 C769 0.959 . S
H776 C769 0.961 1_565 S
H777 C769 0.960 . S
H778 C770 0.930 . S
H779 C771 0.929 . S
H780 C788 0.929 . S
H781 C790 0.930 . S
H782 C792 0.930 . S
H783 C795 0.929 . S
H784 C798 0.930 . S
H785 C800 0.960 . S
H786 C800 0.960 . S
H787 C800 0.960 . S
C788 H780 0.929 . S
C788 C789 1.377 . S
C788 C790 1.384 . S
C789 C788 1.377 . S
C789 C795 1.390 . S
C790 H781 0.930 . S
C790 C788 1.384 . S
C790 C791 1.372 . S
C791 C790 1.372 . S
C791 C792 1.400 . S
C791 C796 1.490 . S
C792 H782 0.930 . S
C792 C791 1.400 . S
C792 C795 1.386 . S
H793 C809 0.930 . S
H794 C810 0.931 . S
C795 H783 0.929 . S
C795 C789 1.390 . S
C795 C792 1.386 . S
C796 C791 1.490 . S
C796 C798 1.395 . S
C796 C799 1.403 . S
H797 C803 0.930 . S
C798 H784 0.930 . S
C798 C796 1.395 . S
C798 C801 1.403 . S
C799 C796 1.403 . S
C799 C800 1.524 . S
C799 C803 1.400 . S
C800 H785 0.960 . S
C800 H786 0.960 . S
C800 H787 0.960 . S
C800 C799 1.524 . S
C801 C798 1.403 . S
C801 C802 1.392 . S
C801 C805 1.495 . S
C802 C801 1.392 . S
C802 C803 1.385 . S
C802 C804 1.478 . S
C803 H797 0.930 . S
C803 C799 1.400 . S
C803 C802 1.385 . S
C804 C802 1.478 . S
C804 C806 1.381 . S
C804 C810 1.383 . S
C805 C801 1.495 . S
C805 H811 0.959 . S
C805 H812 0.961 . S
C805 H813 0.960 . S
C806 C804 1.381 . S
C806 C807 1.394 . S
C806 H814 0.930 . S
C807 C806 1.394 . S
C807 C808 1.383 . S
C807 H815 0.929 . S
C808 C807 1.383 . S
C808 C809 1.377 . S
C809 H793 0.930 . S
C809 C808 1.377 . S
C809 C810 1.379 . S
C810 H794 0.931 . S
C810 C804 1.383 . S
C810 C809 1.379 . S
H811 C805 0.959 . S
H812 C805 0.961 . S
H813 C805 0.960 . S
H814 C806 0.930 . S
H815 C807 0.929 . S
H816 C824 0.929 . S
H817 C826 0.930 . S
H818 C828 0.930 . S
H819 C831 0.929 . S
H820 C834 0.930 . S
H821 C836 0.960 . S
H822 C836 0.960 . S
H823 C836 0.960 . S
C824 H816 0.929 . S
C824 C825 1.377 . S
C824 C826 1.384 . S
C825 C824 1.377 . S
C825 C831 1.390 . S
C826 H817 0.930 . S
C826 C824 1.384 . S
C826 C827 1.372 . S
C827 C826 1.372 . S
C827 C828 1.400 . S
C827 C832 1.490 . S
C828 H818 0.930 . S
C828 C827 1.400 . S
C828 C831 1.386 . S
H829 C845 0.930 . S
H830 C846 0.931 . S
C831 H819 0.929 . S
C831 C825 1.390 . S
C831 C828 1.386 . S
C832 C827 1.490 . S
C832 C834 1.395 . S
C832 C835 1.403 . S
H833 C839 0.930 . S
C834 H820 0.930 . S
C834 C832 1.395 . S
C834 C837 1.403 . S
C835 C832 1.403 . S
C835 C836 1.524 . S
C835 C839 1.400 . S
C836 H821 0.960 . S
C836 H822 0.960 . S
C836 H823 0.960 . S
C836 C835 1.524 . S
C837 C834 1.403 . S
C837 C838 1.392 . S
C837 C841 1.495 . S
C838 C837 1.392 . S
C838 C839 1.385 . S
C838 C840 1.478 . S
C839 H833 0.930 . S
C839 C835 1.400 . S
C839 C838 1.385 . S
C840 C838 1.478 . S
C840 C842 1.381 . S
C840 C846 1.383 . S
C841 C837 1.495 . S
C841 H847 0.959 . S
C841 H848 0.961 . S
C841 H849 0.960 . S
C842 C840 1.381 . S
C842 C843 1.394 . S
C842 H850 0.930 . S
C843 C842 1.394 . S
C843 C844 1.383 . S
C843 H851 0.929 . S
C844 C843 1.383 . S
C844 C845 1.377 . S
C845 H829 0.930 . S
C845 C844 1.377 . S
C845 C846 1.379 . S
C846 H830 0.931 . S
C846 C840 1.383 . S
C846 C845 1.379 . S
H847 C841 0.959 . S
H848 C841 0.961 . S
H849 C841 0.960 . S
H850 C842 0.930 . S
H851 C843 0.929 . S
H852 C860 0.929 . S
H853 C862 0.930 . S
H854 C864 0.930 . S
H855 C867 0.929 . S
H856 C870 0.930 . S
H857 C872 0.960 . S
H858 C872 0.960 . S
H859 C872 0.960 . S
C860 H852 0.929 . S
C860 C861 1.377 . S
C860 C862 1.384 . S
C861 C860 1.377 . S
C861 C867 1.390 . S
C862 H853 0.930 . S
C862 C860 1.384 . S
C862 C863 1.372 . S
C863 C862 1.372 . S
C863 C864 1.400 . S
C863 C868 1.490 . S
C864 H854 0.930 . S
C864 C863 1.400 . S
C864 C867 1.386 . S
H865 C881 0.930 . S
H866 C882 0.931 . S
C867 H855 0.929 . S
C867 C861 1.390 . S
C867 C864 1.386 . S
C868 C863 1.490 . S
C868 C870 1.395 . S
C868 C871 1.403 . S
H869 C875 0.930 . S
C870 H856 0.930 . S
C870 C868 1.395 . S
C870 C873 1.403 . S
C871 C868 1.403 . S
C871 C872 1.524 . S
C871 C875 1.400 . S
C872 H857 0.960 . S
C872 H858 0.960 . S
C872 H859 0.960 . S
C872 C871 1.524 . S
C873 C870 1.403 . S
C873 C874 1.392 . S
C873 C877 1.495 . S
C874 C873 1.392 . S
C874 C875 1.385 . S
C874 C876 1.478 . S
C875 H869 0.930 . S
C875 C871 1.400 . S
C875 C874 1.385 . S
C876 C874 1.478 . S
C876 C878 1.381 . S
C876 C882 1.383 . S
C877 C873 1.495 . S
C877 H883 0.959 . S
C877 H884 0.961 . S
C877 H885 0.960 . S
C878 C876 1.381 . S
C878 C879 1.394 . S
C878 H886 0.930 . S
C879 C878 1.394 . S
C879 C880 1.383 . S
C879 H887 0.929 . S
C880 C879 1.383 . S
C880 C881 1.377 . S
C881 H865 0.930 . S
C881 C880 1.377 . S
C881 C882 1.379 . S
C882 H866 0.931 . S
C882 C876 1.383 . S
C882 C881 1.379 . S
H883 C877 0.959 . S
H884 C877 0.961 . S
H885 C877 0.960 . S
H886 C878 0.930 . S
H887 C879 0.929 . S
H888 C896 0.929 . S
H889 C898 0.930 . S
H890 C900 0.930 . S
H891 C903 0.929 . S
H892 C906 0.930 . S
H893 C908 0.960 . S
H894 C908 0.960 . S
H895 C908 0.960 . S
C896 H888 0.929 . S
C896 C897 1.377 . S
C896 C898 1.384 . S
C897 C896 1.377 . S
C897 C903 1.390 . S
C898 H889 0.930 . S
C898 C896 1.384 . S
C898 C899 1.372 . S
C899 C898 1.372 . S
C899 C900 1.400 . S
C899 C904 1.490 . S
C900 H890 0.930 . S
C900 C899 1.400 . S
C900 C903 1.386 . S
H901 C917 0.930 . S
H902 C918 0.931 . S
C903 H891 0.929 . S
C903 C897 1.390 . S
C903 C900 1.386 . S
C904 C899 1.490 . S
C904 C906 1.395 . S
C904 C907 1.403 . S
H905 C911 0.930 . S
C906 H892 0.930 . S
C906 C904 1.395 . S
C906 C909 1.403 . S
C907 C904 1.403 . S
C907 C908 1.524 . S
C907 C911 1.400 . S
C908 H893 0.960 . S
C908 H894 0.960 . S
C908 H895 0.960 . S
C908 C907 1.524 . S
C909 C906 1.403 . S
C909 C910 1.392 . S
C909 C913 1.495 . S
C910 C909 1.392 . S
C910 C911 1.385 . S
C910 C912 1.478 . S
C911 H905 0.930 . S
C911 C907 1.400 . S
C911 C910 1.385 . S
C912 C910 1.478 . S
C912 C914 1.381 . S
C912 C918 1.383 . S
C913 C909 1.495 . S
C913 H919 0.959 . S
C913 H920 0.961 . S
C913 H921 0.960 . S
C914 C912 1.381 . S
C914 C915 1.394 . S
C914 H922 0.930 . S
C915 C914 1.394 . S
C915 C916 1.383 . S
C915 H923 0.929 . S
C916 C915 1.383 . S
C916 C917 1.377 . S
C917 H901 0.930 . S
C917 C916 1.377 . S
C917 C918 1.379 . S
C918 H902 0.931 . S
C918 C912 1.383 . S
C918 C917 1.379 . S
H919 C913 0.959 . S
H920 C913 0.961 . S
H921 C913 0.960 . S
H922 C914 0.930 . S
H923 C915 0.929 . S
H924 C932 0.929 . S
H925 C934 0.930 . S
H926 C936 0.930 . S
H927 C939 0.929 . S
H928 C942 0.930 . S
H929 C944 0.960 . S
H930 C944 0.960 . S
H931 C944 0.960 . S
C932 H924 0.929 . S
C932 C933 1.377 . S
C932 C934 1.384 . S
C933 C932 1.377 . S
C933 C939 1.390 . S
C934 H925 0.930 . S
C934 C932 1.384 . S
C934 C935 1.372 . S
C935 C934 1.372 . S
C935 C936 1.400 . S
C935 C940 1.490 . S
C936 H926 0.930 . S
C936 C935 1.400 . S
C936 C939 1.386 . S
H937 C953 0.930 . S
H938 C954 0.931 . S
C939 H927 0.929 . S
C939 C933 1.390 . S
C939 C936 1.386 . S
C940 C935 1.490 . S
C940 C942 1.395 . S
C940 C943 1.403 . S
H941 C947 0.930 . S
C942 H928 0.930 . S
C942 C940 1.395 . S
C942 C945 1.403 . S
C943 C940 1.403 . S
C943 C944 1.524 . S
C943 C947 1.400 . S
C944 H929 0.960 . S
C944 H930 0.960 . S
C944 H931 0.960 . S
C944 C943 1.524 . S
C945 C942 1.403 . S
C945 C946 1.392 . S
C945 C949 1.495 . S
C946 C945 1.392 . S
C946 C947 1.385 . S
C946 C948 1.478 . S
C947 H941 0.930 . S
C947 C943 1.400 . S
C947 C946 1.385 . S
C948 C946 1.478 . S
C948 C950 1.381 . S
C948 C954 1.383 . S
C949 C945 1.495 . S
C949 H955 0.959 . S
C949 H956 0.961 . S
C949 H957 0.960 . S
C950 C948 1.381 . S
C950 C951 1.394 . S
C950 H958 0.930 . S
C951 C950 1.394 . S
C951 C952 1.383 . S
C951 H959 0.929 . S
C952 C951 1.383 . S
C952 C953 1.377 . S
C953 H937 0.930 . S
C953 C952 1.377 . S
C953 C954 1.379 . S
C954 H938 0.931 . S
C954 C948 1.383 . S
C954 C953 1.379 . S
H955 C949 0.959 . S
H956 C949 0.961 . S
H957 C949 0.960 . S
H958 C950 0.930 . S
H959 C951 0.929 . S
H960 C968 0.929 . S
H961 C970 0.930 . S
H962 C972 0.930 . S
H963 C975 0.929 . S
H964 C978 0.930 . S
H965 C980 0.960 . S
H966 C980 0.960 . S
H967 C980 0.960 . S
C968 H960 0.929 . S
C968 C969 1.377 . S
C968 C970 1.384 . S
C969 C968 1.377 . S
C969 C975 1.390 . S
C970 H961 0.930 . S
C970 C968 1.384 . S
C970 C971 1.372 . S
C971 C970 1.372 . S
C971 C972 1.400 . S
C971 C976 1.490 . S
C972 H962 0.930 . S
C972 C971 1.400 . S
C972 C975 1.386 . S
H973 C989 0.930 . S
H974 C990 0.931 . S
C975 H963 0.929 . S
C975 C969 1.390 . S
C975 C972 1.386 . S
C976 C971 1.490 . S
C976 C978 1.395 . S
C976 C979 1.403 . S
H977 C983 0.930 . S
C978 H964 0.930 . S
C978 C976 1.395 . S
C978 C981 1.403 . S
C979 C976 1.403 . S
C979 C980 1.524 . S
C979 C983 1.400 . S
C980 H965 0.960 . S
C980 H966 0.960 . S
C980 H967 0.960 . S
C980 C979 1.524 . S
C981 C978 1.403 . S
C981 C982 1.392 . S
C981 C985 1.495 . S
C982 C981 1.392 . S
C982 C983 1.385 . S
C982 C984 1.478 . S
C983 H977 0.930 . S
C983 C979 1.400 . S
C983 C982 1.385 . S
C984 C982 1.478 . S
C984 C986 1.381 . S
C984 C990 1.383 . S
C985 C981 1.495 . S
C985 H991 0.959 . S
C985 H992 0.961 . S
C985 H993 0.960 . S
C986 C984 1.381 . S
C986 C987 1.394 . S
C986 H994 0.930 . S
C987 C986 1.394 . S
C987 C988 1.383 . S
C987 H995 0.929 . S
C988 C987 1.383 . S
C988 C989 1.377 . S
C989 H973 0.930 . S
C989 C988 1.377 . S
C989 C990 1.379 . S
C990 H974 0.931 . S
C990 C984 1.383 . S
C990 C989 1.379 . S
H991 C985 0.959 . S
H992 C985 0.961 . S
H993 C985 0.960 . S
H994 C986 0.930 . S
H995 C987 0.929 . S
H996 C1004 0.929 . S
H997 C1006 0.930 . S
H998 C1008 0.930 . S
H999 C1011 0.929 . S
H1000 C1014 0.930 . S
H1001 C1016 0.960 . S
H1002 C1016 0.960 . S
H1003 C1016 0.960 . S
C1004 H996 0.929 . S
C1004 C1005 1.377 . S
C1004 C1006 1.384 . S
C1005 C1004 1.377 . S
C1005 C1011 1.390 . S
C1006 H997 0.930 . S
C1006 C1004 1.384 . S
C1006 C1007 1.372 . S
C1007 C1006 1.372 . S
C1007 C1008 1.400 . S
C1007 C1012 1.490 . S
C1008 H998 0.930 . S
C1008 C1007 1.400 . S
C1008 C1011 1.386 . S
H1009 C1025 0.930 . S
H1010 C1026 0.931 . S
C1011 H999 0.929 . S
C1011 C1005 1.390 . S
C1011 C1008 1.386 . S
C1012 C1007 1.490 . S
C1012 C1014 1.395 . S
C1012 C1015 1.403 . S
H1013 C1019 0.930 . S
C1014 H1000 0.930 . S
C1014 C1012 1.395 . S
C1014 C1017 1.403 . S
C1015 C1012 1.403 . S
C1015 C1016 1.524 . S
C1015 C1019 1.400 . S
C1016 H1001 0.960 . S
C1016 H1002 0.960 . S
C1016 H1003 0.960 . S
C1016 C1015 1.524 . S
C1017 C1014 1.403 . S
C1017 C1018 1.392 . S
C1017 C1021 1.495 . S
C1018 C1017 1.392 . S
C1018 C1019 1.385 . S
C1018 C1020 1.478 . S
C1019 H1013 0.930 . S
C1019 C1015 1.400 . S
C1019 C1018 1.385 . S
C1020 C1018 1.478 . S
C1020 C1022 1.381 . S
C1020 C1026 1.383 . S
C1021 C1017 1.495 . S
C1021 H1027 0.959 . S
C1021 H1028 0.961 . S
C1021 H1029 0.960 . S
C1022 C1020 1.381 . S
C1022 C1023 1.394 . S
C1022 H1030 0.930 . S
C1023 C1022 1.394 . S
C1023 C1024 1.383 . S
C1023 H1031 0.929 . S
C1024 C1023 1.383 . S
C1024 C1025 1.377 . S
C1025 H1009 0.930 . S
C1025 C1024 1.377 . S
C1025 C1026 1.379 . S
C1026 H1010 0.931 . S
C1026 C1020 1.383 . S
C1026 C1025 1.379 . S
H1027 C1021 0.959 . S
H1028 C1021 0.961 . S
H1029 C1021 0.960 . S
H1030 C1022 0.930 . S
H1031 C1023 0.929 . S
C177 C7 1.272 . S
C196 C91 1.243 . S
C213 C21 1.272 . S
C232 C105 1.297 . S
C249 C35 1.263 . S
C268 C119 1.265 . S
C285 C133 1.275 . S
C304 C49 1.293 . S
C321 C63 1.266 . S
C340 C147 1.281 . S
C357 C161 1.260 . S
C376 C77 1.231 . S
C393 C13 0.755 . S
C412 C139 0.717 . S
C429 C27 0.745 . S
C448 C153 0.743 . S
C465 C167 0.738 . S
C484 C41 0.804 . S
C501 C97 0.732 . S
C520 C55 0.807 . S
C537 C69 0.763 . S
C556 C111 0.662 . S
C573 C83 0.767 . S
C592 C125 0.667 . S
C609 C165 1.831 . S
C628 C11 1.815 . S
C645 C25 1.847 . S
C664 C95 1.838 . S
C681 C39 1.827 . S
C700 C109 1.824 . S
C717 C123 1.829 . S
C736 C53 1.810 . S
C753 C137 1.848 . S
C772 C67 1.852 . S
C789 C81 1.828 . S
C808 C151 1.831 . S
C825 C8 0.718 . S
C844 C148 0.787 . S
C861 C162 0.711 . S
C880 C22 0.664 . S
C897 C92 0.710 . S
C916 C36 0.661 . S
C933 C50 0.705 . S
C952 C106 0.800 . S
C969 C120 0.703 . S
C988 C64 0.620 . S
C1005 C134 0.704 . S
C1024 C78 0.785 . S
