# Generated by pormake.
# Topology wkl, (6)-cn, num edge types: 1
# Building blocks:
#     Node 0, Type 0, BuildingBlock: OJICUG_clean_sbu_0, # of connection points: 6
#     Node 1, Type 0, BuildingBlock: OJICUG_clean_sbu_0, # of connection points: 6
#     Node 2, Type 0, BuildingBlock: OJICUG_clean_sbu_0, # of connection points: 6
#     Node 3, Type 0, BuildingBlock: OJICUG_clean_sbu_0, # of connection points: 6
#     Node 4, Type 0, BuildingBlock: OJICUG_clean_sbu_0, # of connection points: 6
#     Node 5, Type 0, BuildingBlock: OJICUG_clean_sbu_0, # of connection points: 6
#     Node 6, Type 0, BuildingBlock: OJICUG_clean_sbu_0, # of connection points: 6
#     Node 7, Type 0, BuildingBlock: OJICUG_clean_sbu_0, # of connection points: 6
#     Node 8, Type 0, BuildingBlock: OJICUG_clean_sbu_0, # of connection points: 6
#     Node 9, Type 0, BuildingBlock: OJICUG_clean_sbu_0, # of connection points: 6
#     Node 10, Type 0, BuildingBlock: OJICUG_clean_sbu_0, # of connection points: 6
#     Node 11, Type 0, BuildingBlock: OJICUG_clean_sbu_0, # of connection points: 6
#     Edge 12, Type (0, 0), BuildingBlock: CIFDUS_clean_linker_0, # of connection points: 2
#     Edge 13, Type (0, 0), BuildingBlock: CIFDUS_clean_linker_0, # of connection points: 2
#     Edge 14, Type (0, 0), BuildingBlock: CIFDUS_clean_linker_0, # of connection points: 2
#     Edge 15, Type (0, 0), BuildingBlock: CIFDUS_clean_linker_0, # of connection points: 2
#     Edge 16, Type (0, 0), BuildingBlock: CIFDUS_clean_linker_0, # of connection points: 2
#     Edge 17, Type (0, 0), BuildingBlock: CIFDUS_clean_linker_0, # of connection points: 2
#     Edge 18, Type (0, 0), BuildingBlock: CIFDUS_clean_linker_0, # of connection points: 2
#     Edge 19, Type (0, 0), BuildingBlock: CIFDUS_clean_linker_0, # of connection points: 2
#     Edge 20, Type (0, 0), BuildingBlock: CIFDUS_clean_linker_0, # of connection points: 2
#     Edge 21, Type (0, 0), BuildingBlock: CIFDUS_clean_linker_0, # of connection points: 2
#     Edge 22, Type (0, 0), BuildingBlock: CIFDUS_clean_linker_0, # of connection points: 2
#     Edge 23, Type (0, 0), BuildingBlock: CIFDUS_clean_linker_0, # of connection points: 2
#     Edge 24, Type (0, 0), BuildingBlock: CIFDUS_clean_linker_0, # of connection points: 2
#     Edge 25, Type (0, 0), BuildingBlock: CIFDUS_clean_linker_0, # of connection points: 2
#     Edge 26, Type (0, 0), BuildingBlock: CIFDUS_clean_linker_0, # of connection points: 2
#     Edge 27, Type (0, 0), BuildingBlock: CIFDUS_clean_linker_0, # of connection points: 2
#     Edge 28, Type (0, 0), BuildingBlock: CIFDUS_clean_linker_0, # of connection points: 2
#     Edge 29, Type (0, 0), BuildingBlock: CIFDUS_clean_linker_0, # of connection points: 2
#     Edge 30, Type (0, 0), BuildingBlock: CIFDUS_clean_linker_0, # of connection points: 2
#     Edge 31, Type (0, 0), BuildingBlock: CIFDUS_clean_linker_0, # of connection points: 2
#     Edge 32, Type (0, 0), BuildingBlock: CIFDUS_clean_linker_0, # of connection points: 2
#     Edge 33, Type (0, 0), BuildingBlock: CIFDUS_clean_linker_0, # of connection points: 2
#     Edge 34, Type (0, 0), BuildingBlock: CIFDUS_clean_linker_0, # of connection points: 2
#     Edge 35, Type (0, 0), BuildingBlock: CIFDUS_clean_linker_0, # of connection points: 2
#     Edge 36, Type (0, 0), BuildingBlock: CIFDUS_clean_linker_0, # of connection points: 2
#     Edge 37, Type (0, 0), BuildingBlock: CIFDUS_clean_linker_0, # of connection points: 2
#     Edge 38, Type (0, 0), BuildingBlock: CIFDUS_clean_linker_0, # of connection points: 2
#     Edge 39, Type (0, 0), BuildingBlock: CIFDUS_clean_linker_0, # of connection points: 2
#     Edge 40, Type (0, 0), BuildingBlock: CIFDUS_clean_linker_0, # of connection points: 2
#     Edge 41, Type (0, 0), BuildingBlock: CIFDUS_clean_linker_0, # of connection points: 2
#     Edge 42, Type (0, 0), BuildingBlock: CIFDUS_clean_linker_0, # of connection points: 2
#     Edge 43, Type (0, 0), BuildingBlock: CIFDUS_clean_linker_0, # of connection points: 2
#     Edge 44, Type (0, 0), BuildingBlock: CIFDUS_clean_linker_0, # of connection points: 2
#     Edge 45, Type (0, 0), BuildingBlock: CIFDUS_clean_linker_0, # of connection points: 2
#     Edge 46, Type (0, 0), BuildingBlock: CIFDUS_clean_linker_0, # of connection points: 2
#     Edge 47, Type (0, 0), BuildingBlock: CIFDUS_clean_linker_0, # of connection points: 2
# Relax obj value: 0.345
# Max RMSD: 0.288
# Mean RMSD: 0.288
data_MOF--net-wkl--node1-OJICUG_clean_sbu_0--edge1-CIFDUS_clean_linker_0
_symmetry_space_group_name_H-M    P1
_symmetry_Int_Tables_number       1
_symmetry_cell_setting            triclinic
loop_
_symmetry_equiv_pos_as_xyz
'x, y, z'
_cell_length_a     64.477941
_cell_length_b     64.541471
_cell_length_c     13.867502
_cell_angle_alpha  90.027431
_cell_angle_beta   90.051792
_cell_angle_gamma 119.91478
loop_
_atom_site_label
_atom_site_type_symbol
_atom_site_fract_x
_atom_site_fract_y
_atom_site_fract_z
_atom_type_partial_charge
Sc0 Sc 0.47203 0.10108 0.22669 0.0
Sc1 Sc 0.48454 0.14253 0.04523 0.0
Sc2 Sc 0.42677 0.11033 0.13643 0.0
O3 O 0.46105 0.11792 0.13645 0.0
C4 C 0.42209 0.059 0.16053 0.0
C5 C 0.50016 0.10455 0.03074 0.0
C6 C 0.43723 0.11682 0.91798 0.0
C7 C 0.51755 0.15055 0.2305 0.0
C8 C 0.43598 0.10949 0.35633 0.0
C9 C 0.45675 0.16729 0.11793 0.0
O10 O 0.44418 0.06706 0.17788 0.0
O11 O 0.49309 0.11703 0.98515 0.0
O12 O 0.42382 0.10365 0.98495 0.0
O13 O 0.5009 0.13425 0.2805 0.0
O14 O 0.42774 0.1164 0.2883 0.0
O15 O 0.47689 0.16864 0.10401 0.0
O16 O 0.44993 0.10111 0.34346 0.0
O17 O 0.51458 0.15411 0.14263 0.0
O18 O 0.437 0.14755 0.11712 0.0
O19 O 0.49585 0.09953 0.12005 0.0
O20 O 0.4128 0.07234 0.15478 0.0
O21 O 0.4583 0.13406 0.93251 0.0
Sc22 Sc 0.36102 0.48108 0.2504 0.0
Sc23 Sc 0.32792 0.48635 0.06819 0.0
Sc24 Sc 0.31072 0.43036 0.16426 0.0
O25 O 0.33316 0.46572 0.1611 0.0
C26 C 0.3625 0.43542 0.1887 0.0
C27 C 0.38215 0.50864 0.05061 0.0
C28 C 0.31242 0.43948 0.94526 0.0
C29 C 0.34853 0.52059 0.25232 0.0
C30 C 0.32033 0.44102 0.38293 0.0
C31 C 0.27674 0.45334 0.14457 0.0
O32 O 0.3733 0.45789 0.20157 0.0
O33 O 0.36227 0.49811 1.00605 0.0
O34 O 0.31523 0.42789 0.01274 0.0
O35 O 0.34927 0.50465 0.30306 0.0
O36 O 0.30522 0.431 0.31574 0.0
O37 O 0.29367 0.47454 0.12932 0.0
O38 O 0.34191 0.45724 0.36854 0.0
O39 O 0.34388 0.51763 0.16242 0.0
O40 O 0.2797 0.43514 0.145 0.0
O41 O 0.38379 0.50698 0.14179 0.0
O42 O 0.33971 0.42252 0.18568 0.0
O43 O 0.3121 0.45878 0.95922 0.0
Sc44 Sc 0.87045 0.35537 0.36387 0.0
Sc45 Sc 0.82782 0.33155 0.18453 0.0
Sc46 Sc 0.85342 0.29924 0.27256 0.0
O47 O 0.851 0.32893 0.27289 0.0
C48 C 0.90755 0.34015 0.31013 0.0
C49 C 0.87105 0.38205 0.16634 0.0
C50 C 0.84815 0.30493 0.05614 0.0
C51 C 0.82471 0.35867 0.371 0.0
C52 C 0.85484 0.30885 0.49218 0.0
C53 C 0.79827 0.28066 0.26583 0.0
O54 O 0.90265 0.35687 0.31731 0.0
O55 O 0.85644 0.36313 0.12099 0.0
O56 O 0.86128 0.30383 0.12183 0.0
O57 O 0.83912 0.35469 0.4187 0.0
O58 O 0.84552 0.2939 0.42373 0.0
O59 O 0.79953 0.30074 0.25277 0.0
O60 O 0.86702 0.33136 0.47934 0.0
O61 O 0.82125 0.35427 0.28116 0.0
O62 O 0.81546 0.27701 0.24551 0.0
O63 O 0.87557 0.38217 0.25626 0.0
O64 O 0.89161 0.31821 0.30166 0.0
O65 O 0.83169 0.30989 0.07339 0.0
Sc66 Sc 0.50621 0.89362 0.52186 0.0
Sc67 Sc 0.49048 0.84719 0.36249 0.0
Sc68 Sc 0.5483 0.87757 0.45458 0.0
O69 O 0.51511 0.87274 0.44754 0.0
C70 C 0.55743 0.93083 0.45109 0.0
C71 C 0.48137 0.88845 0.31651 0.0
C72 C 0.5371 0.86517 0.23511 0.0
C73 C 0.45837 0.84726 0.53883 0.0
C74 C 0.54006 0.8862 0.67176 0.0
C75 C 0.51358 0.82053 0.45701 0.0
O76 O 0.53555 0.92466 0.46145 0.0
O77 O 0.48678 0.87346 0.28274 0.0
O78 O 0.55127 0.88 0.29751 0.0
O79 O 0.47598 0.86337 0.58548 0.0
O80 O 0.54722 0.87604 0.61198 0.0
O81 O 0.49435 0.8209 0.44039 0.0
O82 O 0.52731 0.89529 0.64649 0.0
O83 O 0.46055 0.84148 0.45321 0.0
O84 O 0.53435 0.83913 0.45201 0.0
O85 O 0.48411 0.89453 0.40523 0.0
O86 O 0.56538 0.91635 0.45876 0.0
O87 O 0.51592 0.84912 0.25614 0.0
Sc88 Sc 0.62635 0.53035 0.88741 0.0
Sc89 Sc 0.65803 0.5152 0.72903 0.0
Sc90 Sc 0.68152 0.57475 0.79989 0.0
O91 O 0.65547 0.54021 0.80558 0.0
C92 C 0.63334 0.57722 0.7923 0.0
C93 C 0.60409 0.49731 0.70063 0.0
C94 C 0.6801 0.55965 0.5826 0.0
C95 C 0.63431 0.48783 0.92752 0.0
C96 C 0.66774 0.56981 0.02012 0.0
C97 C 0.71064 0.54636 0.79771 0.0
O98 O 0.61974 0.55541 0.81429 0.0
O99 O 0.62417 0.50372 0.66139 0.0
O100 O 0.68053 0.57485 0.64263 0.0
O101 O 0.63206 0.50474 0.96299 0.0
O102 O 0.68424 0.57661 0.957 0.0
O103 O 0.69223 0.52572 0.78999 0.0
O104 O 0.64581 0.55583 1.00044 0.0
O105 O 0.64093 0.48804 0.84067 0.0
O106 O 0.70969 0.56562 0.79638 0.0
O107 O 0.60221 0.50303 0.78676 0.0
O108 O 0.6561 0.58763 0.79821 0.0
O109 O 0.67489 0.53859 0.60711 0.0
Sc110 Sc 0.10212 0.60209 0.05993 0.0
Sc111 Sc 0.14456 0.63111 0.88292 0.0
Sc112 Sc 0.11092 0.65569 0.96722 0.0
O113 O 0.11923 0.62969 0.9702 0.0
C114 C 0.06008 0.60844 0.98669 0.0
C115 C 0.10761 0.57743 0.86871 0.0
C116 C 0.11753 0.65047 0.75017 0.0
C117 C 0.15223 0.60831 0.07624 0.0
C118 C 0.10927 0.64638 0.18641 0.0
C119 C 0.16798 0.68406 0.94201 0.0
O120 O 0.06852 0.59463 1.00127 0.0
O121 O 0.11978 0.59698 0.82355 0.0
O122 O 0.10395 0.65052 0.81612 0.0
O123 O 0.13535 0.6088 0.12137 0.0
O124 O 0.11768 0.66162 0.11879 0.0
O125 O 0.17011 0.66551 0.93802 0.0
O126 O 0.09958 0.62395 0.1725 0.0
O127 O 0.15615 0.61354 0.98691 0.0
O128 O 0.14773 0.68307 0.94186 0.0
O129 O 0.1027 0.57659 0.95821 0.0
O130 O 0.07299 0.63115 0.98875 0.0
O131 O 0.13546 0.64773 0.76664 0.0
Sc132 Sc 0.88268 0.56178 0.73106 0.0
Sc133 Sc 0.84727 0.50184 0.79464 0.0
Sc134 Sc 0.89481 0.51866 0.63928 0.0
O135 O 0.87487 0.52753 0.72173 0.0
C136 C 0.89241 0.5582 0.51045 0.0
C137 C 0.8253 0.53256 0.72619 0.0
C138 C 0.84487 0.47643 0.59193 0.0
C139 C 0.86853 0.54532 0.94676 0.0
C140 C 0.93341 0.56465 0.74321 0.0
C141 C 0.8833 0.48405 0.82055 0.0
O142 O 0.88195 0.56409 0.57383 0.0
O143 O 0.8235 0.5121 0.73278 0.0
O144 O 0.86408 0.49375 0.55888 0.0
O145 O 0.8833 0.56101 0.88835 0.0
O146 O 0.92562 0.54303 0.71885 0.0
O147 O 0.86981 0.49046 0.86144 0.0
O148 O 0.92111 0.5751 0.7347 0.0
O149 O 0.85294 0.52436 0.91962 0.0
O150 O 0.89098 0.49026 0.73489 0.0
O151 O 0.84518 0.55207 0.73314 0.0
O152 O 0.90154 0.54522 0.53008 0.0
O153 O 0.83819 0.47573 0.67909 0.0
Sc154 Sc 0.2953 0.87709 0.93018 0.0
Sc155 Sc 0.32351 0.84648 0.01303 0.0
Sc156 Sc 0.35285 0.8927 0.85186 0.0
O157 O 0.32362 0.87198 0.93038 0.0
C158 C 0.31072 0.88633 0.71027 0.0
C159 C 0.27268 0.81976 0.9255 0.0
C160 C 0.35389 0.84625 0.8297 0.0
C161 C 0.29516 0.86365 0.14831 0.0
C162 C 0.34014 0.92983 0.94092 0.0
C163 C 0.37438 0.88766 0.05225 0.0
O164 O 0.29403 0.8768 0.77273 0.0
O165 O 0.29237 0.82016 0.94035 0.0
O166 O 0.3521 0.86241 0.78468 0.0
O167 O 0.29477 0.87817 0.08729 0.0
O168 O 0.35519 0.92352 0.91709 0.0
O169 O 0.35431 0.87275 0.08852 0.0
O170 O 0.31754 0.91593 0.93633 0.0
O171 O 0.30144 0.84851 0.12568 0.0
O172 O 0.37697 0.89346 0.96335 0.0
O173 O 0.27068 0.83853 0.92822 0.0
O174 O 0.33268 0.89476 0.7314 0.0
O175 O 0.34653 0.84049 0.91599 0.0
Sc176 Sc 0.44204 0.31949 0.23299 0.0
Sc177 Sc 0.50007 0.34769 0.32261 0.0
Sc178 Sc 0.4845 0.37482 0.14465 0.0
O179 O 0.47544 0.34737 0.23352 0.0
C180 C 0.45054 0.32967 0.01416 0.0
C181 C 0.47483 0.2954 0.25102 0.0
C182 C 0.53108 0.37291 0.13428 0.0
C183 C 0.4529 0.32437 0.45074 0.0
C184 C 0.43363 0.36399 0.20452 0.0
C185 C 0.51228 0.4001 0.34086 0.0
O186 O 0.44391 0.3144 0.08154 0.0
O187 O 0.49447 0.31485 0.26193 0.0
O188 O 0.51346 0.37139 0.08758 0.0
O189 O 0.43907 0.3237 0.38423 0.0
O190 O 0.45573 0.37922 0.19549 0.0
O191 O 0.50634 0.38066 0.38499 0.0
O192 O 0.42577 0.34156 0.20882 0.0
O193 O 0.4741 0.32854 0.43517 0.0
O194 O 0.50809 0.40084 0.25125 0.0
O195 O 0.45449 0.29422 0.25552 0.0
O196 O 0.46241 0.35215 0.02837 0.0
O197 O 0.52972 0.36772 0.22352 0.0
Sc198 Sc 0.09633 0.40329 0.37649 0.0
Sc199 Sc 0.13497 0.46143 0.45783 0.0
Sc200 Sc 0.08899 0.45081 0.30229 0.0
O201 O 0.10665 0.43833 0.37912 0.0
C202 C 0.08842 0.41163 0.15843 0.0
C203 C 0.15323 0.4297 0.36252 0.0
C204 C 0.14012 0.49234 0.2693 0.0
C205 C 0.11074 0.41561 0.5952 0.0
C206 C 0.04694 0.40369 0.38421 0.0
C207 C 0.10109 0.48111 0.49881 0.0
O208 O 0.09685 0.4029 0.21912 0.0
O209 O 0.15647 0.45035 0.38223 0.0
O210 O 0.12104 0.47617 0.23055 0.0
O211 O 0.09517 0.40184 0.53388 0.0
O212 O 0.05642 0.42602 0.37029 0.0
O213 O 0.11394 0.47321 0.53467 0.0
O214 O 0.0584 0.39236 0.37732 0.0
O215 O 0.12814 0.43601 0.57259 0.0
O216 O 0.09357 0.47691 0.41194 0.0
O217 O 0.13315 0.41053 0.37258 0.0
O218 O 0.08205 0.42669 0.1822 0.0
O219 O 0.14588 0.49079 0.35581 0.0
Sc220 Sc 0.68079 0.12042 0.58519 0.0
Sc221 Sc 0.6534 0.15034 0.6793 0.0
Sc222 Sc 0.62643 0.11062 0.49238 0.0
O223 O 0.65328 0.12665 0.58581 0.0
C224 C 0.67223 0.12228 0.36447 0.0
C225 C 0.70474 0.17644 0.59987 0.0
C226 C 0.62634 0.15779 0.50184 0.0
C227 C 0.67669 0.12583 0.80228 0.0
C228 C 0.63626 0.06888 0.5385 0.0
C229 C 0.60105 0.11021 0.6936 0.0
O230 O 0.68702 0.12854 0.434 0.0
O231 O 0.68548 0.17706 0.61195 0.0
O232 O 0.62964 0.14395 0.44724 0.0
O233 O 0.67562 0.11185 0.73571 0.0
O234 O 0.62149 0.07631 0.52776 0.0
O235 O 0.62039 0.12305 0.74056 0.0
O236 O 0.65851 0.08269 0.55357 0.0
O237 O 0.67387 0.14368 0.78647 0.0
O238 O 0.60066 0.10637 0.6029 0.0
O239 O 0.70613 0.15769 0.61514 0.0
O240 O 0.6498 0.1136 0.37551 0.0
O241 O 0.6321 0.16021 0.59035 0.0
Sc242 Sc 0.55019 0.67326 0.55429 0.0
Sc243 Sc 0.49128 0.65277 0.62844 0.0
Sc244 Sc 0.50388 0.61816 0.47338 0.0
O245 O 0.51521 0.64814 0.55188 0.0
C246 C 0.54321 0.65785 0.33409 0.0
C247 C 0.52348 0.70389 0.54488 0.0
C248 C 0.46162 0.62725 0.43647 0.0
C249 C 0.53625 0.67433 0.77188 0.0
C250 C 0.5513 0.6243 0.56295 0.0
C251 C 0.47287 0.59894 0.66727 0.0
O252 O 0.55186 0.67452 0.39692 0.0
O253 O 0.50264 0.68637 0.56057 0.0
O254 O 0.47763 0.62355 0.40117 0.0
O255 O 0.5508 0.67363 0.71155 0.0
O256 O 0.52945 0.61109 0.54014 0.0
O257 O 0.47911 0.61951 0.70113 0.0
O258 O 0.56182 0.64705 0.56143 0.0
O259 O 0.51548 0.67018 0.74794 0.0
O260 O 0.47813 0.59569 0.58208 0.0
O261 O 0.54233 0.7022 0.54928 0.0
O262 O 0.52781 0.63637 0.35464 0.0
O263 O 0.46297 0.6353 0.52152 0.0
H264 H 0.44155 0.14687 0.77469 0.0
H265 H 0.41581 0.07264 0.83898 0.0
H266 H 0.41066 0.06299 0.66687 0.0
H267 H 0.41908 0.07697 0.49878 0.0
H268 H 0.44269 0.15074 0.43419 0.0
H269 H 0.44281 0.15942 0.6062 0.0
C270 C 0.43431 0.12854 0.7506 0.0
C271 C 0.42935 0.1105 0.81804 0.0
C272 C 0.43123 0.12316 0.65209 0.0
C273 C 0.41971 0.08673 0.78743 0.0
C274 C 0.41693 0.08126 0.68934 0.0
C275 C 0.42369 0.09477 0.5228 0.0
C276 C 0.43114 0.1133 0.45557 0.0
C277 C 0.42347 0.09949 0.62112 0.0
C278 C 0.43689 0.13629 0.48581 0.0
C279 C 0.43711 0.14126 0.58379 0.0
H280 H 0.28347 0.43766 0.80139 0.0
H281 H 0.34221 0.42598 0.86663 0.0
H282 H 0.34887 0.42332 0.6945 0.0
H283 H 0.34134 0.43004 0.52638 0.0
H284 H 0.28118 0.43941 0.4609 0.0
H285 H 0.27139 0.43701 0.63255 0.0
C286 C 0.29731 0.43394 0.77749 0.0
C287 C 0.31252 0.43226 0.84532 0.0
C288 C 0.30089 0.43231 0.67892 0.0
C289 C 0.33029 0.42724 0.81485 0.0
C290 C 0.33422 0.42594 0.71672 0.0
C291 C 0.32585 0.43108 0.55011 0.0
C292 C 0.31216 0.43524 0.48266 0.0
C293 C 0.32018 0.42933 0.64826 0.0
C294 C 0.29191 0.43625 0.51261 0.0
C295 C 0.2864 0.43499 0.6104 0.0
H296 H 0.88706 0.32089 0.63472 0.0
H297 H 0.81179 0.27825 0.57138 0.0
H298 H 0.80281 0.27128 0.74397 0.0
H299 H 0.81631 0.2821 0.91254 0.0
H300 H 0.89186 0.32285 0.97465 0.0
H301 H 0.90097 0.32561 0.80251 0.0
C302 C 0.86878 0.30964 0.65909 0.0
C303 C 0.85005 0.30031 0.59184 0.0
C304 C 0.86386 0.30561 0.7577 0.0
C305 C 0.82642 0.28554 0.62279 0.0
C306 C 0.82129 0.28173 0.72117 0.0
C307 C 0.83475 0.29116 0.88804 0.0
C308 C 0.85341 0.30256 0.95515 0.0
C309 C 0.83983 0.2924 0.78927 0.0
C310 C 0.87726 0.31399 0.92368 0.0
C311 C 0.88246 0.31568 0.82548 0.0
H312 H 0.55306 0.90425 0.12067 0.0
H313 H 0.53428 0.83022 0.11746 0.0
H314 H 0.53676 0.83092 0.94112 0.0
H315 H 0.53928 0.85126 0.7865 0.0
H316 H 0.55357 0.92399 0.79137 0.0
H317 H 0.55802 0.92528 0.96661 0.0
C318 C 0.55027 0.88854 0.08126 0.0
C319 C 0.54393 0.86734 0.13196 0.0
C320 C 0.55054 0.88876 0.97946 0.0
C321 C 0.53953 0.84683 0.07995 0.0
C322 C 0.54075 0.84718 0.97904 0.0
C323 C 0.54389 0.86752 0.82594 0.0
C324 C 0.54615 0.88752 0.7759 0.0
C325 C 0.54551 0.86784 0.92768 0.0
C326 C 0.55169 0.90834 0.82821 0.0
C327 C 0.55421 0.90909 0.92855 0.0
H328 H 0.69707 0.56164 0.13431 0.0
H329 H 0.64981 0.59076 0.13712 0.0
H330 H 0.65217 0.59353 0.31337 0.0
H331 H 0.66353 0.58273 0.46799 0.0
H332 H 0.70701 0.54927 0.46387 0.0
H333 H 0.71052 0.55327 0.28852 0.0
C334 C 0.68794 0.56929 0.17362 0.0
C335 C 0.67364 0.57639 0.12293 0.0
C336 C 0.68843 0.56967 0.27537 0.0
C337 C 0.6612 0.58551 0.17472 0.0
C338 C 0.6624 0.5869 0.27555 0.0
C339 C 0.67422 0.57687 0.42868 0.0
C340 C 0.68508 0.56582 0.47885 0.0
C341 C 0.67535 0.57834 0.32698 0.0
C342 C 0.69848 0.55783 0.42682 0.0
C343 C 0.70046 0.56007 0.32646 0.0
H344 H 0.14726 0.67652 0.60603 0.0
H345 H 0.07344 0.62635 0.67071 0.0
H346 H 0.06348 0.6224 0.49897 0.0
H347 H 0.07703 0.62947 0.33035 0.0
H348 H 0.15028 0.68138 0.26533 0.0
H349 H 0.15927 0.68888 0.43762 0.0
C350 C 0.12896 0.66508 0.58213 0.0
C351 C 0.11114 0.65146 0.64963 0.0
C352 C 0.12334 0.66321 0.48376 0.0
C353 C 0.08738 0.63694 0.61919 0.0
C354 C 0.08172 0.6346 0.52128 0.0
C355 C 0.09478 0.64282 0.35431 0.0
C356 C 0.11306 0.65472 0.28649 0.0
C357 C 0.09971 0.6471 0.45292 0.0
C358 C 0.13597 0.67213 0.31708 0.0
C359 C 0.14115 0.67624 0.4153 0.0
H360 H 0.90796 0.57108 0.06121 0.0
H361 H 0.83087 0.53112 0.06817 0.0
H362 H 0.8314 0.53511 0.24347 0.0
H363 H 0.85375 0.54593 0.39695 0.0
H364 H 0.9307 0.58185 0.39179 0.0
H365 H 0.93039 0.5839 0.21533 0.0
C366 C 0.89131 0.5637 0.1011 0.0
C367 C 0.8694 0.55086 0.05148 0.0
C368 C 0.89176 0.56531 0.20289 0.0
C369 C 0.84798 0.54102 0.10451 0.0
C370 C 0.84826 0.54329 0.20492 0.0
C371 C 0.87042 0.55487 0.35709 0.0
C372 C 0.89223 0.5642 0.4073 0.0
C373 C 0.87003 0.55487 0.25527 0.0
C374 C 0.91372 0.57494 0.35469 0.0
C375 C 0.91352 0.57591 0.25372 0.0
H376 H 0.27956 0.84931 0.59691 0.0
H377 H 0.33041 0.92476 0.59179 0.0
H378 H 0.32707 0.92524 0.4161 0.0
H379 H 0.31364 0.9032 0.26218 0.0
H380 H 0.26661 0.82693 0.2668 0.0
H381 H 0.26415 0.82766 0.4428 0.0
C382 C 0.28936 0.86592 0.55726 0.0
C383 C 0.30499 0.88702 0.60715 0.0
C384 C 0.28818 0.86582 0.45554 0.0
C385 C 0.31813 0.90834 0.55485 0.0
C386 C 0.31631 0.90859 0.45433 0.0
C387 C 0.30233 0.8869 0.30179 0.0
C388 C 0.29008 0.86508 0.25163 0.0
C389 C 0.30194 0.88732 0.40353 0.0
C390 C 0.27604 0.84395 0.30391 0.0
C391 C 0.27474 0.84435 0.40461 0.0
H392 H 0.43296 0.34447 0.87057 0.0
H393 H 0.45952 0.2966 0.93556 0.0
H394 H 0.46061 0.2887 0.76343 0.0
H395 H 0.45895 0.29977 0.59479 0.0
H396 H 0.43014 0.34581 0.53019 0.0
H397 H 0.42454 0.34986 0.70219 0.0
C398 C 0.43846 0.33193 0.84663 0.0
C399 C 0.44642 0.32131 0.91422 0.0
C400 C 0.43878 0.32733 0.74817 0.0
C401 C 0.45331 0.30489 0.88384 0.0
C402 C 0.45408 0.30052 0.78575 0.0
C403 C 0.451 0.31026 0.61876 0.0
C404 C 0.44522 0.32274 0.55114 0.0
C405 C 0.44761 0.31227 0.7173 0.0
C406 C 0.43466 0.33607 0.58175 0.0
C407 C 0.43162 0.33851 0.67982 0.0
H408 H 0.12284 0.41139 0.04493 0.0
H409 H 0.05087 0.39939 0.03804 0.0
H410 H 0.05001 0.39574 0.86224 0.0
H411 H 0.07141 0.40075 0.70867 0.0
H412 H 0.14496 0.41754 0.71517 0.0
H413 H 0.14354 0.41425 0.89122 0.0
C414 C 0.10679 0.40737 1.00489 0.0
C415 C 0.08685 0.40541 0.05448 0.0
C416 C 0.10682 0.40637 0.90308 0.0
C417 C 0.06639 0.40083 1.0015 0.0
C418 C 0.06593 0.39884 0.90087 0.0
C419 C 0.08687 0.40301 0.74869 0.0
C420 C 0.10816 0.40903 0.69892 0.0
C421 C 0.08625 0.40222 0.85051 0.0
C422 C 0.12831 0.41265 0.75185 0.0
C423 C 0.12754 0.41091 0.85261 0.0
H424 H 0.70205 0.15741 0.94259 0.0
H425 H 0.65652 0.08213 0.88656 0.0
H426 H 0.65327 0.07384 0.05969 0.0
H427 H 0.65854 0.08896 0.22609 0.0
H428 H 0.70522 0.16394 0.28282 0.0
H429 H 0.71324 0.17155 0.1098 0.0
C430 C 0.69187 0.13916 0.96857 0.0
C431 C 0.67923 0.12041 0.90291 0.0
C432 C 0.69016 0.13458 0.0678 0.0
C433 C 0.66636 0.09679 0.93635 0.0
C434 C 0.66436 0.09208 0.03513 0.0
C435 C 0.67091 0.10683 0.20021 0.0
C436 C 0.68114 0.12595 0.2655 0.0
C437 C 0.67545 0.11095 0.10137 0.0
C438 C 0.69727 0.14904 0.23282 0.0
C439 C 0.70169 0.15338 0.13423 0.0
H440 H 0.5392 0.69013 0.22158 0.0
H441 H 0.55985 0.63617 0.21459 0.0
H442 H 0.56315 0.63912 0.0386 0.0
H443 H 0.55531 0.65349 0.8851 0.0
H444 H 0.52988 0.7038 0.89238 0.0
H445 H 0.5335 0.70614 0.06823 0.0
C446 C 0.54508 0.67956 0.18143 0.0
C447 C 0.54966 0.66324 0.23091 0.0
C448 C 0.54578 0.68053 0.07969 0.0
C449 C 0.55652 0.64906 0.17799 0.0
C450 C 0.55825 0.65064 0.07731 0.0
C451 C 0.55118 0.6654 0.92525 0.0
C452 C 0.54257 0.67865 0.8758 0.0
C453 C 0.55227 0.66581 0.02702 0.0
C454 C 0.53666 0.69355 0.92886 0.0
C455 C 0.53864 0.69481 0.02949 0.0
H456 H 0.37787 0.03603 0.0757 0.0
H457 H 0.43275 0.02402 0.19746 0.0
H458 H 0.41109 0.98264 0.14437 0.0
H459 H 0.37874 0.95103 0.05326 0.0
H460 H 0.32338 0.96162 0.92917 0.0
H461 H 0.34301 0.00254 0.99446 0.0
C462 C 0.3849 0.02426 0.09187 0.0
C463 C 0.40708 0.03323 0.1395 0.0
C464 C 0.37245 0.00041 0.06004 0.0
C465 C 0.41591 0.01771 0.15998 0.0
C466 C 0.40355 -0.00597 0.12961 0.0
C467 C 0.37093 0.96229 0.04031 0.0
C468 C 0.35002 0.95367 0.98479 0.0
C469 C 0.38221 0.98544 0.07762 0.0
C470 C 0.33965 0.96808 0.97105 0.0
C471 C 0.35088 0.99141 1.00815 0.0
H472 H 0.44292 0.40828 0.15667 0.0
H473 H 0.38576 0.3397 0.25124 0.0
H474 H 0.35797 0.35524 0.2496 0.0
H475 H 0.35045 0.38902 0.22537 0.0
H476 H 0.40863 0.4571 0.13076 0.0
H477 H 0.4354 0.44085 0.12766 0.0
C478 C 0.42442 0.39665 0.17744 0.0
C479 C 0.41651 0.37293 0.20493 0.0
C480 C 0.40867 0.40559 0.17585 0.0
C481 C 0.39235 0.35809 0.23012 0.0
C482 C 0.37646 0.36695 0.22908 0.0
C483 C 0.36892 0.40015 0.20314 0.0
C484 C 0.37756 0.42427 0.17915 0.0
C485 C 0.38446 0.39075 0.20236 0.0
C486 C 0.40156 0.43855 0.15073 0.0
C487 C 0.41693 0.4293 0.14886 0.0
H488 H 0.01415 0.36126 0.30526 0.0
H489 H 0.02191 0.41773 0.49485 0.0
H490 H 0.9788 0.40193 0.49194 0.0
H491 H 0.93999 0.37523 0.42126 0.0
H492 H 0.93106 0.31877 0.22935 0.0
H493 H 0.97368 0.33141 0.24687 0.0
C494 C 0.00622 0.36961 0.34795 0.0
C495 C 0.021 0.39062 0.39989 0.0
C496 C 0.98144 0.36083 0.34354 0.0
C497 C 0.01074 0.40156 0.45415 0.0
C498 C 0.98618 0.39266 0.45198 0.0
C499 C 0.94738 0.36569 0.38307 0.0
C500 C 0.93272 0.34654 0.3222 0.0
C501 C 0.97156 0.3729 0.3941 0.0
C502 C 0.94223 0.33381 0.2756 0.0
C503 C 0.96651 0.341 0.28579 0.0
H504 H 0.59991 0.95841 0.54152 0.0
H505 H 0.5512 0.96026 0.33284 0.0
H506 H 0.57291 0.00382 0.33686 0.0
H507 H 0.6021 0.04065 0.41441 0.0
H508 H 0.65067 0.04005 0.62675 0.0
H509 H 0.63269 -0.00341 0.60696 0.0
C510 C 0.59459 0.96848 0.49506 0.0
C511 C 0.57404 0.95639 0.43726 0.0
C512 C 0.60671 -0.00645 0.50022 0.0
C513 C 0.56698 0.96939 0.37802 0.0
C514 C 0.57925 -0.00579 0.38079 0.0
C515 C 0.60878 0.031 0.45636 0.0
C516 C 0.62716 0.04323 0.52372 0.0
C517 C 0.59848 0.00636 0.4444 0.0
C518 C 0.63625 0.03079 0.57539 0.0
C519 C 0.626 0.00603 0.56398 0.0
H520 H 0.5894 0.55791 0.71468 0.0
H521 H 0.65199 0.62586 0.77821 0.0
H522 H 0.63238 0.64669 0.70931 0.0
H523 H 0.59698 0.64523 0.6338 0.0
H524 H 0.53516 0.57651 0.56942 0.0
H525 H 0.55521 0.55638 0.63579 0.0
C526 C 0.59877 0.5773 0.71433 0.0
C527 C 0.62198 0.59033 0.75265 0.0
C528 C 0.5876 0.58901 0.67398 0.0
C529 C 0.63403 0.61543 0.74954 0.0
C530 C 0.62285 0.62732 0.71013 0.0
C531 C 0.58796 0.62587 0.63367 0.0
C532 C 0.56452 0.61247 0.597 0.0
C533 C 0.59958 0.61425 0.67231 0.0
C534 C 0.55314 0.58735 0.59739 0.0
C535 C 0.56455 0.57575 0.63553 0.0
H536 H 0.03731 0.6306 0.90884 0.0
H537 H 0.02577 0.56158 1.0 0.0
H538 H 0.98549 0.54238 0.93381 0.0
H539 H 0.95467 0.54466 0.84201 0.0
H540 H 0.96498 0.61304 0.75037 0.0
H541 H 0.00481 0.63311 0.82528 0.0
C542 C 0.02587 0.6114 0.91552 0.0
C543 C 0.03467 0.59754 0.95862 0.0
C544 C 0.00271 0.60035 0.87625 0.0
C545 C 0.01958 0.57268 0.96655 0.0
C546 C -0.00346 0.56164 0.92849 0.0
C547 C 0.96565 0.56398 0.83786 0.0
C548 C 0.95717 0.57736 0.78914 0.0
C549 C 0.98818 0.57524 0.88143 0.0
C550 C 0.97129 0.60238 0.7868 0.0
C551 C -0.00601 0.61381 0.82962 0.0
H552 H 0.50389 0.09857 0.83896 0.0
H553 H 0.53522 0.09894 0.11454 0.0
H554 H 0.56845 0.09817 0.03412 0.0
H555 H 0.59115 0.10271 0.8855 0.0
H556 H 0.55938 0.10171 0.6101 0.0
H557 H 0.52375 0.09709 0.69035 0.0
C558 C 0.51777 0.09801 0.88128 0.0
C559 C 0.51724 0.09908 0.9823 0.0
C560 C 0.53688 0.09766 0.83466 0.0
C561 C 0.53517 0.09807 0.03651 0.0
C562 C 0.5543 0.09782 0.99062 0.0
C563 C 0.57623 0.10103 0.84316 0.0
C564 C 0.57804 0.10281 0.74222 0.0
C565 C 0.55574 0.09842 0.88974 0.0
C566 C 0.55846 0.10034 0.68802 0.0
C567 C 0.53811 0.09787 0.73382 0.0
H568 H 0.39089 0.50629 0.8612 0.0
H569 H 0.42096 0.54924 0.11684 0.0
H570 H 0.45314 0.58042 0.02083 0.0
H571 H 0.47025 0.59701 0.86228 0.0
H572 H 0.4404 0.55397 0.60669 0.0
H573 H 0.41073 0.52111 0.7049 0.0
C574 C 0.40469 0.52236 0.89594 0.0
C575 C 0.40348 0.52559 0.99561 0.0
C576 C 0.42305 0.5402 0.84034 0.0
C577 C 0.42159 0.54631 0.0402 0.0
C578 C 0.43988 0.56421 0.98528 0.0
C579 C 0.4574 0.58033 0.82823 0.0
C580 C 0.45728 0.578 0.72736 0.0
C581 C 0.44041 0.56158 0.88502 0.0
C582 C 0.44083 0.55619 0.68424 0.0
C583 C 0.42379 0.53745 0.74026 0.0
H584 H 0.88838 0.48049 0.0123 0.0
H585 H 0.88691 0.44753 0.73987 0.0
H586 H 0.88564 0.41361 0.82388 0.0
H587 H 0.87955 0.39111 0.97468 0.0
H588 H 0.88182 0.42466 0.24686 0.0
H589 H 0.88853 0.4607 0.1632 0.0
C590 C 0.88824 0.46607 0.97153 0.0
C591 C 0.88744 0.46628 0.87038 0.0
C592 C 0.88749 0.44668 0.02021 0.0
C593 C 0.88758 0.44772 0.81796 0.0
C594 C 0.88667 0.42825 0.86592 0.0
C595 C 0.882 0.40651 0.01556 0.0
C596 C 0.87994 0.40515 0.11656 0.0
C597 C 0.88581 0.42719 0.96698 0.0
C598 C 0.88341 0.42528 0.169 0.0
C599 C 0.88706 0.44585 0.12121 0.0
H600 H 0.44733 0.89866 0.37102 0.0
H601 H 0.4846 0.89387 0.12133 0.0
H602 H 0.45644 0.89776 0.01523 0.0
H603 H 0.41779 0.89589 0.99478 0.0
H604 H 0.37827 0.89608 0.24526 0.0
H605 H 0.41093 0.90102 0.35013 0.0
C606 C 0.44967 0.89916 0.29341 0.0
C607 C 0.46783 0.89584 0.25376 0.0
C608 C 0.43283 0.90029 0.23321 0.0
C609 C 0.47057 0.89622 0.15318 0.0
C610 C 0.45446 0.89837 0.09263 0.0
C611 C 0.41667 0.8977 0.07212 0.0
C612 C 0.39573 0.89551 0.11267 0.0
C613 C 0.43498 0.89943 0.13193 0.0
C614 C 0.39424 0.89755 0.21291 0.0
C615 C 0.41284 0.90031 0.27273 0.0
H616 H 0.59732 0.49469 0.50724 0.0
H617 H 0.56223 0.46193 0.7748 0.0
H618 H 0.52897 0.4298 0.68584 0.0
H619 H 0.51243 0.40866 0.53255 0.0
H620 H 0.54722 0.44189 0.26502 0.0
H621 H 0.57786 0.47638 0.35327 0.0
C622 C 0.58219 0.48069 0.54588 0.0
C623 C 0.58232 0.48046 0.64723 0.0
C624 C 0.56316 0.46233 0.49433 0.0
C625 C 0.5625 0.46247 0.6967 0.0
C626 C 0.54356 0.44403 0.64591 0.0
C627 C 0.52648 0.42368 0.49364 0.0
C628 C 0.52771 0.42267 0.39265 0.0
C629 C 0.54407 0.44342 0.54483 0.0
C630 C 0.54583 0.44231 0.34278 0.0
C631 C 0.56347 0.46195 0.39323 0.0
H632 H 0.1014 0.48478 0.69434 0.0
H633 H 0.09175 0.51537 0.43306 0.0
H634 H 0.09064 0.54684 0.52638 0.0
H635 H 0.09662 0.56797 0.67993 0.0
H636 H 0.10562 0.53731 0.94193 0.0
H637 H 0.10249 0.50338 0.85083 0.0
C638 C 0.09877 0.49818 0.65805 0.0
C639 C 0.09697 0.49792 0.55689 0.0
C640 C 0.09812 0.51623 0.71217 0.0
C641 C 0.0932 0.51517 0.51085 0.0
C642 C 0.09268 0.53325 0.56408 0.0
C643 C 0.09751 0.55364 0.7171 0.0
C644 C 0.10152 0.55515 0.81706 0.0
C645 C 0.09574 0.53429 0.66438 0.0
C646 C 0.1024 0.53642 0.86493 0.0
C647 C 0.1008 0.51714 0.81281 0.0
H648 H 0.49453 0.2112 0.15803 0.0
H649 H 0.41762 0.17312 0.12549 0.0
H650 H 0.41651 0.20932 0.16554 0.0
H651 H 0.43721 0.25151 0.21018 0.0
H652 H 0.5141 0.28967 0.24359 0.0
H653 H 0.51527 0.2535 0.20308 0.0
C654 C 0.47752 0.21081 0.1591 0.0
C655 C 0.45621 0.18947 0.13856 0.0
C656 C 0.47696 0.23162 0.18286 0.0
C657 C 0.43431 0.18928 0.14109 0.0
C658 C 0.43364 0.20997 0.16406 0.0
C659 C 0.45425 0.25197 0.20909 0.0
C660 C 0.47552 0.27331 0.23011 0.0
C661 C 0.45483 0.23118 0.18541 0.0
C662 C 0.49743 0.27351 0.22784 0.0
C663 C 0.49813 0.25284 0.2045 0.0
H664 H 0.18784 0.46308 0.25324 0.0
H665 H 0.16378 0.39343 0.37651 0.0
H666 H 0.19941 0.39358 0.31266 0.0
H667 H 0.23876 0.41516 0.23097 0.0
H668 H 0.26145 0.48481 0.10833 0.0
H669 H 0.22474 0.48286 0.16239 0.0
C670 C 0.19039 0.44791 0.26641 0.0
C671 C 0.17359 0.42849 0.32099 0.0
C672 C 0.2106 0.44812 0.22946 0.0
C673 C 0.17669 0.40867 0.33521 0.0
C674 C 0.19701 0.40879 0.29886 0.0
C675 C 0.23548 0.42972 0.2149 0.0
C676 C 0.25298 0.45023 0.16677 0.0
C677 C 0.21429 0.42862 0.24703 0.0
C678 C 0.24846 0.46896 0.14638 0.0
C679 C 0.22747 0.4679 0.17725 0.0
H680 H 0.7044 0.21132 0.49242 0.0
H681 H 0.75121 0.18697 0.60307 0.0
H682 H 0.78396 0.21657 0.50493 0.0
H683 H 0.79861 0.24774 0.38272 0.0
H684 H 0.75251 0.27292 0.27264 0.0
H685 H 0.71979 0.24408 0.37463 0.0
C686 C 0.7219 0.21281 0.49649 0.0
C687 C 0.72541 0.197 0.55485 0.0
C688 C 0.74048 0.22949 0.43831 0.0
C689 C 0.74808 0.19893 0.55855 0.0
C690 C 0.76674 0.21571 0.502 0.0
C691 C 0.78128 0.24668 0.37983 0.0
C692 C 0.77772 0.26199 0.31889 0.0
C693 C 0.76295 0.23064 0.44011 0.0
C694 C 0.75547 0.261 0.31816 0.0
C695 C 0.73688 0.24469 0.37685 0.0
H696 H 0.54962 0.81019 0.46202 0.0
H697 H 0.47319 0.7785 0.49902 0.0
H698 H 0.46966 0.73967 0.52751 0.0
H699 H 0.48798 0.71477 0.54082 0.0
H700 H 0.56435 0.74601 0.50378 0.0
H701 H 0.56808 0.78506 0.47578 0.0
C702 C 0.5322 0.79484 0.47687 0.0
C703 C 0.51172 0.79728 0.47835 0.0
C704 C 0.53023 0.77249 0.49257 0.0
C705 C 0.48926 0.77714 0.49713 0.0
C706 C 0.48719 0.75491 0.51339 0.0
C707 C 0.50549 0.73006 0.52637 0.0
C708 C 0.52585 0.72742 0.52441 0.0
C709 C 0.50753 0.75238 0.51082 0.0
C710 C 0.54836 0.7475 0.5057 0.0
C711 C 0.55052 0.76985 0.48986 0.0
H712 H 0.81759 0.5683 0.78654 0.0
H713 H 0.78246 0.49794 0.65792 0.0
H714 H 0.74388 0.49587 0.67305 0.0
H715 H 0.72006 0.51303 0.72823 0.0
H716 H 0.75422 0.58354 0.85488 0.0
H717 H 0.7934 0.58644 0.83627 0.0
C718 C 0.80153 0.55273 0.76027 0.0
C719 C 0.80285 0.53328 0.72138 0.0
C720 C 0.77928 0.55146 0.77063 0.0
C721 C 0.78189 0.51309 0.6885 0.0
C722 C 0.75981 0.51183 0.69755 0.0
C723 C 0.73601 0.52897 0.75299 0.0
C724 C 0.73423 0.54789 0.79438 0.0
C725 C 0.75828 0.53068 0.74019 0.0
C726 C 0.75515 0.56863 0.82367 0.0
C727 C 0.77752 0.57034 0.81253 0.0
H728 H 0.17099 0.72717 0.91456 0.0
H729 H 0.21423 0.69423 0.96441 0.0
H730 H 0.25041 0.73325 0.95628 0.0
H731 H 0.26959 0.77641 0.93863 0.0
H732 H 0.22666 0.80979 0.8914 0.0
H733 H 0.19041 0.77059 0.89321 0.0
C734 C 0.1883 0.72849 0.92417 0.0
C735 C 0.18986 0.70779 0.94068 0.0
C736 C 0.20905 0.75095 0.91892 0.0
C737 C 0.21248 0.70986 0.95187 0.0
C738 C 0.2332 0.73215 0.94698 0.0
C739 C 0.25237 0.77522 0.92779 0.0
C740 C 0.2509 0.79609 0.91518 0.0
C741 C 0.23166 0.75277 0.93066 0.0
C742 C 0.22835 0.79406 0.90132 0.0
C743 C 0.2076 0.77166 0.90284 0.0
H744 H 0.53227 0.1589 0.41785 0.0
H745 H 0.55829 0.16589 0.1263 0.0
H746 H 0.59672 0.17271 0.18597 0.0
H747 H 0.61991 0.16904 0.31931 0.0
H748 H 0.5943 0.163 0.61104 0.0
H749 H 0.55912 0.16396 0.55323 0.0
C750 C 0.54661 0.16263 0.36765 0.0
C751 C 0.54228 0.16149 0.26796 0.0
C752 C 0.56872 0.16644 0.40238 0.0
C753 C 0.5611 0.16663 0.20356 0.0
C754 C 0.58307 0.17033 0.23753 0.0
C755 C 0.60698 0.1687 0.37026 0.0
C756 C 0.60955 0.16563 0.46893 0.0
C757 C 0.58666 0.16914 0.33654 0.0
C758 C 0.5928 0.16542 0.53454 0.0
C759 C 0.5725 0.16572 0.50152 0.0
H760 H 0.3805 0.56075 0.16155 0.0
H761 H 0.34523 0.53439 0.43468 0.0
H762 H 0.37586 0.57052 0.515 0.0
H763 H 0.41723 0.60374 0.51249 0.0
H764 H 0.45503 0.62628 0.24227 0.0
H765 H 0.41888 0.59797 0.15538 0.0
C766 C 0.37894 0.56345 0.23787 0.0
C767 C 0.36075 0.54499 0.29241 0.0
C768 C 0.39749 0.58343 0.28432 0.0
C769 C 0.35913 0.54843 0.39151 0.0
C770 C 0.37678 0.56897 0.43749 0.0
C771 C 0.41722 0.60315 0.43429 0.0
C772 C 0.43872 0.61688 0.38373 0.0
C773 C 0.3968 0.5858 0.38556 0.0
C774 C 0.43865 0.61575 0.28254 0.0
C775 C 0.41803 0.59945 0.23297 0.0
H776 H 0.8252 0.39705 0.2926 0.0
H777 H 0.8085 0.35574 0.55414 0.0
H778 H 0.80794 0.38804 0.64421 0.0
H779 H 0.82068 0.43061 0.65383 0.0
H780 H 0.84266 0.47353 0.39558 0.0
H781 H 0.83234 0.43806 0.29854 0.0
C782 C 0.82047 0.39479 0.3685 0.0
C783 C 0.81685 0.37414 0.41699 0.0
C784 C 0.82164 0.41398 0.42066 0.0
C785 C 0.81128 0.37153 0.51566 0.0
C786 C 0.81117 0.39007 0.56717 0.0
C787 C 0.82242 0.43206 0.57596 0.0
C788 C 0.83263 0.45465 0.53196 0.0
C789 C 0.8176 0.41182 0.52138 0.0
C790 C 0.83503 0.45632 0.43108 0.0
C791 C 0.82922 0.43607 0.37565 0.0
H792 H 0.36047 0.83947 0.6409 0.0
H793 H 0.38414 0.83625 0.92873 0.0
H794 H 0.41766 0.83328 0.86346 0.0
H795 H 0.44362 0.83799 0.72519 0.0
H796 H 0.41924 0.83963 0.43714 0.0
H797 H 0.38252 0.83641 0.5015 0.0
C798 C 0.37262 0.83745 0.68905 0.0
C799 C 0.36997 0.83831 0.7893 0.0
C800 C 0.39188 0.8357 0.65103 0.0
C801 C 0.3857 0.83552 0.85117 0.0
C802 C 0.40504 0.83404 0.81395 0.0
C803 C 0.42993 0.83697 0.67666 0.0
C804 C 0.43417 0.83923 0.57687 0.0
C805 C 0.40881 0.83505 0.71414 0.0
C806 C 0.4163 0.83776 0.51434 0.0
C807 C 0.39539 0.83615 0.55111 0.0
H808 H 0.60997 0.4428 0.85759 0.0
H809 H 0.63447 0.48286 0.12259 0.0
H810 H 0.6075 0.44723 0.21498 0.0
H811 H 0.5712 0.40786 0.21621 0.0
H812 H 0.5431 0.36999 0.94878 0.0
H813 H 0.57748 0.40115 0.8616 0.0
C814 C 0.61006 0.44347 0.93578 0.0
C815 C 0.62402 0.4654 0.98332 0.0
C816 C 0.59355 0.42327 0.98783 0.0
C817 C 0.62375 0.46615 0.08456 0.0
C818 C 0.60823 0.44582 0.1373 0.0
C819 C 0.57317 0.40597 0.13951 0.0
C820 C 0.55475 0.38674 0.08872 0.0
C821 C 0.59216 0.42468 0.08926 0.0
C822 C 0.55716 0.38468 0.98908 0.0
C823 C 0.57669 0.40259 0.93923 0.0
H824 H 0.15925 0.53644 0.34765 0.0
H825 H 0.14801 0.49963 0.07643 0.0
H826 H 0.15759 0.53622 0.98922 0.0
H827 H 0.16002 0.57525 0.99223 0.0
H828 H 0.16521 0.60981 0.26437 0.0
H829 H 0.16793 0.57803 0.34919 0.0
C830 C 0.15985 0.53673 0.26945 0.0
C831 C 0.15285 0.51543 0.21834 0.0
C832 C 0.16403 0.55746 0.22009 0.0
C833 C 0.15328 0.51586 0.11707 0.0
C834 C 0.15862 0.53673 0.06728 0.0
C835 C 0.16282 0.57635 0.06967 0.0
C836 C 0.16242 0.59478 0.12218 0.0
C837 C 0.16273 0.55723 0.11819 0.0
C838 C 0.16553 0.59577 0.22267 0.0
C839 C 0.16683 0.57748 0.27116 0.0
loop_
_geom_bond_atom_site_label_1
_geom_bond_atom_site_label_2
_geom_bond_distance
_geom_bond_site_symmetry_2
_ccdc_geom_bond_type
Sc0 O3 2.025 . S
Sc0 O10 2.105 . S
Sc0 O13 2.105 . S
Sc0 O16 2.105 . S
Sc0 O19 2.105 1_554 S
Sc1 O3 2.025 1_556 S
Sc1 O11 2.105 . S
Sc1 O15 2.105 1_556 S
Sc1 O17 2.105 1_556 S
Sc1 O21 2.105 . S
Sc2 O3 2.025 . S
Sc2 O12 2.105 1_554 S
Sc2 O14 2.105 . S
Sc2 O18 2.105 . S
Sc2 O20 2.105 1_554 S
O3 Sc0 2.025 . S
O3 Sc1 2.025 1_554 S
O3 Sc2 2.025 . S
C4 O10 1.265 1_556 S
C4 O20 1.268 . S
C5 O11 1.268 . S
C5 O19 1.268 . S
C6 O12 1.268 . S
C6 O21 1.268 . S
C7 O13 1.268 . S
C7 O17 1.268 . S
C8 O14 1.268 . S
C8 O16 1.268 . S
C9 O15 1.268 . S
C9 O18 1.268 . S
O10 Sc0 2.105 . S
O10 C4 1.265 1_554 S
O11 Sc1 2.105 . S
O11 C5 1.268 . S
O12 Sc2 2.105 1_556 S
O12 C6 1.268 . S
O13 Sc0 2.105 . S
O13 C7 1.268 . S
O14 Sc2 2.105 . S
O14 C8 1.268 . S
O15 Sc1 2.105 1_554 S
O15 C9 1.268 . S
O16 Sc0 2.105 . S
O16 C8 1.268 . S
O17 Sc1 2.105 1_554 S
O17 C7 1.268 . S
O18 Sc2 2.105 . S
O18 C9 1.268 . S
O19 Sc0 2.105 1_556 S
O19 C5 1.268 . S
O20 Sc2 2.105 1_556 S
O20 C4 1.268 . S
O21 Sc1 2.105 . S
O21 C6 1.268 . S
Sc22 O25 2.025 . S
Sc22 O32 2.105 . S
Sc22 O35 2.105 . S
Sc22 O38 2.105 . S
Sc22 O41 2.105 . S
Sc23 O25 2.025 . S
Sc23 O33 2.105 . S
Sc23 O37 2.105 . S
Sc23 O39 2.105 . S
Sc23 O43 2.105 1_554 S
Sc24 O25 2.025 . S
Sc24 O34 2.105 . S
Sc24 O36 2.105 . S
Sc24 O40 2.105 . S
Sc24 O42 2.105 . S
O25 Sc22 2.025 . S
O25 Sc23 2.025 . S
O25 Sc24 2.025 . S
C26 O32 1.268 . S
C26 O42 1.268 . S
C27 O33 1.268 . S
C27 O41 1.268 . S
C28 O34 1.268 1_556 S
C28 O43 1.268 . S
C29 O35 1.268 . S
C29 O39 1.268 . S
C30 O36 1.268 . S
C30 O38 1.268 . S
C31 O37 1.268 . S
C31 O40 1.268 . S
O32 Sc22 2.105 . S
O32 C26 1.268 . S
O33 Sc23 2.105 . S
O33 C27 1.268 . S
O34 Sc24 2.105 . S
O34 C28 1.268 1_554 S
O35 Sc22 2.105 . S
O35 C29 1.268 . S
O36 Sc24 2.105 . S
O36 C30 1.268 . S
O37 Sc23 2.105 . S
O37 C31 1.268 . S
O38 Sc22 2.105 . S
O38 C30 1.268 . S
O39 Sc23 2.105 . S
O39 C29 1.268 . S
O40 Sc24 2.105 . S
O40 C31 1.268 . S
O41 Sc22 2.105 . S
O41 C27 1.268 . S
O42 Sc24 2.105 . S
O42 C26 1.268 . S
O43 Sc23 2.105 1_556 S
O43 C28 1.268 . S
Sc44 O47 2.025 . S
Sc44 O54 2.105 . S
Sc44 O57 2.105 . S
Sc44 O60 2.105 . S
Sc44 O63 2.105 . S
Sc45 O47 2.025 . S
Sc45 O55 2.105 . S
Sc45 O59 2.105 . S
Sc45 O61 2.105 . S
Sc45 O65 2.105 . S
Sc46 O47 2.025 . S
Sc46 O56 2.105 . S
Sc46 O58 2.105 . S
Sc46 O62 2.105 . S
Sc46 O64 2.105 . S
O47 Sc44 2.025 . S
O47 Sc45 2.025 . S
O47 Sc46 2.025 . S
C48 O54 1.268 . S
C48 O64 1.268 . S
C49 O55 1.268 . S
C49 O63 1.268 . S
C50 O56 1.268 . S
C50 O65 1.268 . S
C51 O57 1.268 . S
C51 O61 1.268 . S
C52 O58 1.268 . S
C52 O60 1.268 . S
C53 O59 1.268 . S
C53 O62 1.268 . S
O54 Sc44 2.105 . S
O54 C48 1.268 . S
O55 Sc45 2.105 . S
O55 C49 1.268 . S
O56 Sc46 2.105 . S
O56 C50 1.268 . S
O57 Sc44 2.105 . S
O57 C51 1.268 . S
O58 Sc46 2.105 . S
O58 C52 1.268 . S
O59 Sc45 2.105 . S
O59 C53 1.268 . S
O60 Sc44 2.105 . S
O60 C52 1.268 . S
O61 Sc45 2.105 . S
O61 C51 1.268 . S
O62 Sc46 2.105 . S
O62 C53 1.268 . S
O63 Sc44 2.105 . S
O63 C49 1.268 . S
O64 Sc46 2.105 . S
O64 C48 1.268 . S
O65 Sc45 2.105 . S
O65 C50 1.268 . S
Sc66 O69 2.025 . S
Sc66 O76 2.105 . S
Sc66 O79 2.105 . S
Sc66 O82 2.105 . S
Sc66 O85 2.105 . S
Sc67 O69 2.025 . S
Sc67 O77 2.105 . S
Sc67 O81 2.105 . S
Sc67 O83 2.105 . S
Sc67 O87 2.105 . S
Sc68 O69 2.025 . S
Sc68 O78 2.105 . S
Sc68 O80 2.105 . S
Sc68 O84 2.105 . S
Sc68 O86 2.105 . S
O69 Sc66 2.025 . S
O69 Sc67 2.025 . S
O69 Sc68 2.025 . S
C70 O76 1.268 . S
C70 O86 1.268 . S
C71 O77 1.268 . S
C71 O85 1.268 . S
C72 O78 1.268 . S
C72 O87 1.268 . S
C73 O79 1.268 . S
C73 O83 1.268 . S
C74 O80 1.268 . S
C74 O82 1.268 . S
C75 O81 1.268 . S
C75 O84 1.268 . S
O76 Sc66 2.105 . S
O76 C70 1.268 . S
O77 Sc67 2.105 . S
O77 C71 1.268 . S
O78 Sc68 2.105 . S
O78 C72 1.268 . S
O79 Sc66 2.105 . S
O79 C73 1.268 . S
O80 Sc68 2.105 . S
O80 C74 1.268 . S
O81 Sc67 2.105 . S
O81 C75 1.268 . S
O82 Sc66 2.105 . S
O82 C74 1.268 . S
O83 Sc67 2.105 . S
O83 C73 1.268 . S
O84 Sc68 2.105 . S
O84 C75 1.268 . S
O85 Sc66 2.105 . S
O85 C71 1.268 . S
O86 Sc68 2.105 . S
O86 C70 1.268 . S
O87 Sc67 2.105 . S
O87 C72 1.268 . S
Sc88 O91 2.025 . S
Sc88 O98 2.105 . S
Sc88 O101 2.105 . S
Sc88 O104 2.105 . S
Sc88 O107 2.105 . S
Sc89 O91 2.025 . S
Sc89 O99 2.105 . S
Sc89 O103 2.105 . S
Sc89 O105 2.105 . S
Sc89 O109 2.105 . S
Sc90 O91 2.025 . S
Sc90 O100 2.105 . S
Sc90 O102 2.105 . S
Sc90 O106 2.105 . S
Sc90 O108 2.105 . S
O91 Sc88 2.025 . S
O91 Sc89 2.025 . S
O91 Sc90 2.025 . S
C92 O98 1.268 . S
C92 O108 1.268 . S
C93 O99 1.268 . S
C93 O107 1.268 . S
C94 O100 1.268 . S
C94 O109 1.268 . S
C95 O101 1.268 . S
C95 O105 1.268 . S
C96 O102 1.268 . S
C96 O104 1.268 . S
C97 O103 1.268 . S
C97 O106 1.268 . S
O98 Sc88 2.105 . S
O98 C92 1.268 . S
O99 Sc89 2.105 . S
O99 C93 1.268 . S
O100 Sc90 2.105 . S
O100 C94 1.268 . S
O101 Sc88 2.105 . S
O101 C95 1.268 . S
O102 Sc90 2.105 . S
O102 C96 1.268 . S
O103 Sc89 2.105 . S
O103 C97 1.268 . S
O104 Sc88 2.105 . S
O104 C96 1.268 . S
O105 Sc89 2.105 . S
O105 C95 1.268 . S
O106 Sc90 2.105 . S
O106 C97 1.268 . S
O107 Sc88 2.105 . S
O107 C93 1.268 . S
O108 Sc90 2.105 . S
O108 C92 1.268 . S
O109 Sc89 2.105 . S
O109 C94 1.268 . S
Sc110 O113 2.025 . S
Sc110 O120 2.105 . S
Sc110 O123 2.105 . S
Sc110 O126 2.105 1_556 S
Sc110 O129 2.105 . S
Sc111 O113 2.025 . S
Sc111 O121 2.105 . S
Sc111 O125 2.105 . S
Sc111 O127 2.105 . S
Sc111 O131 2.105 . S
Sc112 O113 2.025 . S
Sc112 O122 2.105 . S
Sc112 O124 2.105 1_556 S
Sc112 O128 2.105 . S
Sc112 O130 2.105 . S
O113 Sc110 2.025 . S
O113 Sc111 2.025 . S
O113 Sc112 2.025 . S
C114 O120 1.268 . S
C114 O130 1.268 . S
C115 O121 1.268 . S
C115 O129 1.268 . S
C116 O122 1.268 . S
C116 O131 1.268 . S
C117 O123 1.268 . S
C117 O127 1.268 . S
C118 O124 1.268 . S
C118 O126 1.268 . S
C119 O125 1.268 . S
C119 O128 1.268 . S
O120 Sc110 2.105 . S
O120 C114 1.268 . S
O121 Sc111 2.105 . S
O121 C115 1.268 . S
O122 Sc112 2.105 . S
O122 C116 1.268 . S
O123 Sc110 2.105 . S
O123 C117 1.268 . S
O124 Sc112 2.105 1_554 S
O124 C118 1.268 . S
O125 Sc111 2.105 . S
O125 C119 1.268 . S
O126 Sc110 2.105 1_554 S
O126 C118 1.268 . S
O127 Sc111 2.105 . S
O127 C117 1.268 . S
O128 Sc112 2.105 . S
O128 C119 1.268 . S
O129 Sc110 2.105 . S
O129 C115 1.268 . S
O130 Sc112 2.105 . S
O130 C114 1.268 . S
O131 Sc111 2.105 . S
O131 C116 1.268 . S
Sc132 O135 2.025 . S
Sc132 O142 2.105 . S
Sc132 O145 2.105 . S
Sc132 O148 2.105 . S
Sc132 O151 2.105 . S
Sc133 O135 2.025 . S
Sc133 O143 2.105 . S
Sc133 O147 2.105 . S
Sc133 O149 2.105 1_556 S
Sc133 O153 2.105 . S
Sc134 O135 2.025 . S
Sc134 O144 2.105 . S
Sc134 O146 2.105 . S
Sc134 O150 2.105 . S
Sc134 O152 2.105 . S
O135 Sc132 2.025 . S
O135 Sc133 2.025 . S
O135 Sc134 2.025 . S
C136 O142 1.268 . S
C136 O152 1.268 . S
C137 O143 1.268 . S
C137 O151 1.268 . S
C138 O144 1.268 . S
C138 O153 1.268 . S
C139 O145 1.268 1_554 S
C139 O149 1.268 . S
C140 O146 1.268 . S
C140 O148 1.268 . S
C141 O147 1.268 . S
C141 O150 1.268 . S
O142 Sc132 2.105 . S
O142 C136 1.268 . S
O143 Sc133 2.105 . S
O143 C137 1.268 . S
O144 Sc134 2.105 . S
O144 C138 1.268 . S
O145 Sc132 2.105 . S
O145 C139 1.268 1_556 S
O146 Sc134 2.105 . S
O146 C140 1.268 . S
O147 Sc133 2.105 . S
O147 C141 1.268 . S
O148 Sc132 2.105 . S
O148 C140 1.268 . S
O149 Sc133 2.105 1_554 S
O149 C139 1.268 . S
O150 Sc134 2.105 . S
O150 C141 1.268 . S
O151 Sc132 2.105 . S
O151 C137 1.268 . S
O152 Sc134 2.105 . S
O152 C136 1.268 . S
O153 Sc133 2.105 . S
O153 C138 1.268 . S
Sc154 O157 2.025 . S
Sc154 O164 2.105 . S
Sc154 O167 2.105 1_556 S
Sc154 O170 2.105 1_556 S
Sc154 O173 2.105 . S
Sc155 O157 2.025 1_554 S
Sc155 O165 2.105 . S
Sc155 O169 2.105 . S
Sc155 O171 2.105 . S
Sc155 O175 2.105 1_554 S
Sc156 O157 2.025 . S
Sc156 O166 2.105 . S
Sc156 O168 2.105 . S
Sc156 O172 2.105 1_556 S
Sc156 O174 2.105 . S
O157 Sc154 2.025 . S
O157 Sc155 2.025 1_556 S
O157 Sc156 2.025 . S
C158 O164 1.268 . S
C158 O174 1.268 . S
C159 O165 1.268 1_556 S
C159 O173 1.268 . S
C160 O166 1.268 . S
C160 O175 1.268 . S
C161 O167 1.268 . S
C161 O171 1.268 . S
C162 O168 1.268 1_554 S
C162 O170 1.268 . S
C163 O169 1.268 . S
C163 O172 1.268 . S
O164 Sc154 2.105 . S
O164 C158 1.268 . S
O165 Sc155 2.105 . S
O165 C159 1.268 1_554 S
O166 Sc156 2.105 . S
O166 C160 1.268 . S
O167 Sc154 2.105 1_554 S
O167 C161 1.268 . S
O168 Sc156 2.105 . S
O168 C162 1.268 1_556 S
O169 Sc155 2.105 . S
O169 C163 1.268 . S
O170 Sc154 2.105 1_554 S
O170 C162 1.268 . S
O171 Sc155 2.105 . S
O171 C161 1.268 . S
O172 Sc156 2.105 1_554 S
O172 C163 1.268 . S
O173 Sc154 2.105 . S
O173 C159 1.268 . S
O174 Sc156 2.105 . S
O174 C158 1.268 . S
O175 Sc155 2.105 1_556 S
O175 C160 1.268 . S
Sc176 O179 2.025 . S
Sc176 O186 2.105 . S
Sc176 O189 2.105 . S
Sc176 O192 2.105 . S
Sc176 O195 2.105 . S
Sc177 O179 2.025 . S
Sc177 O187 2.105 . S
Sc177 O191 2.105 . S
Sc177 O193 2.105 . S
Sc177 O197 2.105 . S
Sc178 O179 2.025 . S
Sc178 O188 2.105 . S
Sc178 O190 2.105 . S
Sc178 O194 2.105 . S
Sc178 O196 2.105 1_554 S
O179 Sc176 2.025 . S
O179 Sc177 2.025 . S
O179 Sc178 2.025 . S
C180 O186 1.268 1_556 S
C180 O196 1.268 . S
C181 O187 1.268 . S
C181 O195 1.268 . S
C182 O188 1.268 . S
C182 O197 1.268 . S
C183 O189 1.268 . S
C183 O193 1.268 . S
C184 O190 1.268 . S
C184 O192 1.268 . S
C185 O191 1.268 . S
C185 O194 1.268 . S
O186 Sc176 2.105 . S
O186 C180 1.268 1_554 S
O187 Sc177 2.105 . S
O187 C181 1.268 . S
O188 Sc178 2.105 . S
O188 C182 1.268 . S
O189 Sc176 2.105 . S
O189 C183 1.268 . S
O190 Sc178 2.105 . S
O190 C184 1.268 . S
O191 Sc177 2.105 . S
O191 C185 1.268 . S
O192 Sc176 2.105 . S
O192 C184 1.268 . S
O193 Sc177 2.105 . S
O193 C183 1.268 . S
O194 Sc178 2.105 . S
O194 C185 1.268 . S
O195 Sc176 2.105 . S
O195 C181 1.268 . S
O196 Sc178 2.105 1_556 S
O196 C180 1.268 . S
O197 Sc177 2.105 . S
O197 C182 1.268 . S
Sc198 O201 2.025 . S
Sc198 O208 2.105 . S
Sc198 O211 2.105 . S
Sc198 O214 2.105 . S
Sc198 O217 2.105 . S
Sc199 O201 2.025 . S
Sc199 O209 2.105 . S
Sc199 O213 2.105 . S
Sc199 O215 2.105 . S
Sc199 O219 2.105 . S
Sc200 O201 2.025 . S
Sc200 O210 2.105 . S
Sc200 O212 2.105 . S
Sc200 O216 2.105 . S
Sc200 O218 2.105 . S
O201 Sc198 2.025 . S
O201 Sc199 2.025 . S
O201 Sc200 2.025 . S
C202 O208 1.268 . S
C202 O218 1.268 . S
C203 O209 1.268 . S
C203 O217 1.268 . S
C204 O210 1.268 . S
C204 O219 1.268 . S
C205 O211 1.268 . S
C205 O215 1.268 . S
C206 O212 1.268 . S
C206 O214 1.268 . S
C207 O213 1.268 . S
C207 O216 1.268 . S
O208 Sc198 2.105 . S
O208 C202 1.268 . S
O209 Sc199 2.105 . S
O209 C203 1.268 . S
O210 Sc200 2.105 . S
O210 C204 1.268 . S
O211 Sc198 2.105 . S
O211 C205 1.268 . S
O212 Sc200 2.105 . S
O212 C206 1.268 . S
O213 Sc199 2.105 . S
O213 C207 1.268 . S
O214 Sc198 2.105 . S
O214 C206 1.268 . S
O215 Sc199 2.105 . S
O215 C205 1.268 . S
O216 Sc200 2.105 . S
O216 C207 1.268 . S
O217 Sc198 2.105 . S
O217 C203 1.268 . S
O218 Sc200 2.105 . S
O218 C202 1.268 . S
O219 Sc199 2.105 . S
O219 C204 1.268 . S
Sc220 O223 2.025 . S
Sc220 O230 2.105 . S
Sc220 O233 2.105 . S
Sc220 O236 2.105 . S
Sc220 O239 2.105 . S
Sc221 O223 2.025 . S
Sc221 O231 2.105 . S
Sc221 O235 2.105 . S
Sc221 O237 2.105 . S
Sc221 O241 2.105 . S
Sc222 O223 2.025 . S
Sc222 O232 2.105 . S
Sc222 O234 2.105 . S
Sc222 O238 2.105 . S
Sc222 O240 2.105 . S
O223 Sc220 2.025 . S
O223 Sc221 2.025 . S
O223 Sc222 2.025 . S
C224 O230 1.268 . S
C224 O240 1.268 . S
C225 O231 1.268 . S
C225 O239 1.268 . S
C226 O232 1.268 . S
C226 O241 1.268 . S
C227 O233 1.268 . S
C227 O237 1.268 . S
C228 O234 1.268 . S
C228 O236 1.268 . S
C229 O235 1.268 . S
C229 O238 1.268 . S
O230 Sc220 2.105 . S
O230 C224 1.268 . S
O231 Sc221 2.105 . S
O231 C225 1.268 . S
O232 Sc222 2.105 . S
O232 C226 1.268 . S
O233 Sc220 2.105 . S
O233 C227 1.268 . S
O234 Sc222 2.105 . S
O234 C228 1.268 . S
O235 Sc221 2.105 . S
O235 C229 1.268 . S
O236 Sc220 2.105 . S
O236 C228 1.268 . S
O237 Sc221 2.105 . S
O237 C227 1.268 . S
O238 Sc222 2.105 . S
O238 C229 1.268 . S
O239 Sc220 2.105 . S
O239 C225 1.268 . S
O240 Sc222 2.105 . S
O240 C224 1.268 . S
O241 Sc221 2.105 . S
O241 C226 1.268 . S
Sc242 O245 2.025 . S
Sc242 O252 2.105 . S
Sc242 O255 2.105 . S
Sc242 O258 2.105 . S
Sc242 O261 2.105 . S
Sc243 O245 2.025 . S
Sc243 O253 2.105 . S
Sc243 O257 2.105 . S
Sc243 O259 2.105 . S
Sc243 O263 2.105 . S
Sc244 O245 2.025 . S
Sc244 O254 2.105 . S
Sc244 O256 2.105 . S
Sc244 O260 2.105 . S
Sc244 O262 2.105 . S
O245 Sc242 2.025 . S
O245 Sc243 2.025 . S
O245 Sc244 2.025 . S
C246 O252 1.268 . S
C246 O262 1.268 . S
C247 O253 1.268 . S
C247 O261 1.268 . S
C248 O254 1.268 . S
C248 O263 1.268 . S
C249 O255 1.268 . S
C249 O259 1.268 . S
C250 O256 1.268 . S
C250 O258 1.268 . S
C251 O257 1.268 . S
C251 O260 1.268 . S
O252 Sc242 2.105 . S
O252 C246 1.268 . S
O253 Sc243 2.105 . S
O253 C247 1.268 . S
O254 Sc244 2.105 . S
O254 C248 1.268 . S
O255 Sc242 2.105 . S
O255 C249 1.268 . S
O256 Sc244 2.105 . S
O256 C250 1.268 . S
O257 Sc243 2.105 . S
O257 C251 1.268 . S
O258 Sc242 2.105 . S
O258 C250 1.268 . S
O259 Sc243 2.105 . S
O259 C249 1.268 . S
O260 Sc244 2.105 . S
O260 C251 1.268 . S
O261 Sc242 2.105 . S
O261 C247 1.268 . S
O262 Sc244 2.105 . S
O262 C246 1.268 . S
O263 Sc243 2.105 . S
O263 C248 1.268 . S
H264 C270 0.930 . S
H265 C273 0.930 . S
H266 C274 0.930 . S
H267 C275 0.930 . S
H268 C278 0.930 . S
H269 C279 0.930 . S
C270 H264 0.930 . S
C270 C271 1.355 . S
C270 C272 1.415 . S
C271 C270 1.355 . S
C271 C273 1.419 . S
C272 C270 1.415 . S
C272 C277 1.425 . S
C272 C279 1.409 . S
C273 H265 0.930 . S
C273 C271 1.419 . S
C273 C274 1.362 . S
C274 H266 0.930 . S
C274 C273 1.362 . S
C274 C277 1.409 . S
C275 H267 0.930 . S
C275 C276 1.355 . S
C275 C277 1.415 . S
C276 C275 1.355 . S
C276 C278 1.419 . S
C277 C272 1.425 . S
C277 C274 1.409 . S
C277 C275 1.415 . S
C278 H268 0.930 . S
C278 C276 1.419 . S
C278 C279 1.362 . S
C279 H269 0.930 . S
C279 C272 1.409 . S
C279 C278 1.362 . S
H280 C286 0.930 . S
H281 C289 0.930 . S
H282 C290 0.930 . S
H283 C291 0.930 . S
H284 C294 0.930 . S
H285 C295 0.930 . S
C286 H280 0.930 . S
C286 C287 1.355 . S
C286 C288 1.415 . S
C287 C286 1.355 . S
C287 C289 1.419 . S
C288 C286 1.415 . S
C288 C293 1.425 . S
C288 C295 1.409 . S
C289 H281 0.930 . S
C289 C287 1.419 . S
C289 C290 1.362 . S
C290 H282 0.930 . S
C290 C289 1.362 . S
C290 C293 1.409 . S
C291 H283 0.930 . S
C291 C292 1.355 . S
C291 C293 1.415 . S
C292 C291 1.355 . S
C292 C294 1.419 . S
C293 C288 1.425 . S
C293 C290 1.409 . S
C293 C291 1.415 . S
C294 H284 0.930 . S
C294 C292 1.419 . S
C294 C295 1.362 . S
C295 H285 0.930 . S
C295 C288 1.409 . S
C295 C294 1.362 . S
H296 C302 0.930 . S
H297 C305 0.930 . S
H298 C306 0.930 . S
H299 C307 0.930 1_554 S
H300 C310 0.930 1_554 S
H301 C311 0.930 . S
C302 H296 0.930 . S
C302 C303 1.355 . S
C302 C304 1.415 . S
C303 C302 1.355 . S
C303 C305 1.419 . S
C304 C302 1.415 . S
C304 C309 1.425 . S
C304 C311 1.409 . S
C305 H297 0.930 . S
C305 C303 1.419 . S
C305 C306 1.362 . S
C306 H298 0.930 . S
C306 C305 1.362 . S
C306 C309 1.409 . S
C307 H299 0.930 1_556 S
C307 C308 1.355 1_556 S
C307 C309 1.415 . S
C308 C307 1.355 1_554 S
C308 C310 1.419 1_554 S
C309 C304 1.425 . S
C309 C306 1.409 . S
C309 C307 1.415 . S
C310 H300 0.930 1_556 S
C310 C308 1.419 1_556 S
C310 C311 1.362 . S
C311 H301 0.930 . S
C311 C304 1.409 . S
C311 C310 1.362 . S
H312 C318 0.930 . S
H313 C321 0.930 . S
H314 C322 0.930 . S
H315 C323 0.930 . S
H316 C326 0.930 . S
H317 C327 0.930 1_554 S
C318 H312 0.930 . S
C318 C319 1.355 . S
C318 C320 1.415 . S
C319 C318 1.355 . S
C319 C321 1.419 . S
C320 C318 1.415 . S
C320 C325 1.420 1_554 S
C320 C327 1.409 1_554 S
C321 H313 0.930 . S
C321 C319 1.419 . S
C321 C322 1.362 . S
C322 H314 0.930 . S
C322 C321 1.362 . S
C322 C325 1.403 1_554 S
C323 H315 0.930 . S
C323 C324 1.355 . S
C323 C325 1.425 . S
C324 C323 1.355 . S
C324 C326 1.419 . S
C325 C320 1.420 1_556 S
C325 C322 1.403 1_556 S
C325 C323 1.425 . S
C326 H316 0.930 . S
C326 C324 1.419 . S
C326 C327 1.362 . S
C327 H317 0.930 1_556 S
C327 C320 1.409 1_556 S
C327 C326 1.362 . S
H328 C334 0.930 . S
H329 C337 0.930 . S
H330 C338 0.930 . S
H331 C339 0.930 . S
H332 C342 0.930 . S
H333 C343 0.930 . S
C334 H328 0.930 . S
C334 C335 1.355 . S
C334 C336 1.415 . S
C335 C334 1.355 . S
C335 C337 1.419 . S
C336 C334 1.415 . S
C336 C341 1.425 . S
C336 C343 1.409 . S
C337 H329 0.930 . S
C337 C335 1.419 . S
C337 C338 1.362 . S
C338 H330 0.930 . S
C338 C337 1.362 . S
C338 C341 1.409 . S
C339 H331 0.930 . S
C339 C340 1.355 . S
C339 C341 1.415 . S
C340 C339 1.355 . S
C340 C342 1.419 . S
C341 C336 1.425 . S
C341 C338 1.409 . S
C341 C339 1.415 . S
C342 H332 0.930 . S
C342 C340 1.419 . S
C342 C343 1.362 . S
C343 H333 0.930 . S
C343 C336 1.409 . S
C343 C342 1.362 . S
H344 C350 0.930 . S
H345 C353 0.930 . S
H346 C354 0.930 . S
H347 C355 0.930 . S
H348 C358 0.930 . S
H349 C359 0.930 . S
C350 H344 0.930 . S
C350 C351 1.355 . S
C350 C352 1.415 . S
C351 C350 1.355 . S
C351 C353 1.419 . S
C352 C350 1.415 . S
C352 C357 1.425 . S
C352 C359 1.409 . S
C353 H345 0.930 . S
C353 C351 1.419 . S
C353 C354 1.362 . S
C354 H346 0.930 . S
C354 C353 1.362 . S
C354 C357 1.409 . S
C355 H347 0.930 . S
C355 C356 1.355 . S
C355 C357 1.415 . S
C356 C355 1.355 . S
C356 C358 1.419 . S
C357 C352 1.425 . S
C357 C354 1.409 . S
C357 C355 1.415 . S
C358 H348 0.930 . S
C358 C356 1.419 . S
C358 C359 1.362 . S
C359 H349 0.930 . S
C359 C352 1.409 . S
C359 C358 1.362 . S
H360 C366 0.930 . S
H361 C369 0.930 . S
H362 C370 0.930 . S
H363 C371 0.930 . S
H364 C374 0.930 . S
H365 C375 0.930 . S
C366 H360 0.930 . S
C366 C367 1.355 . S
C366 C368 1.415 . S
C367 C366 1.355 . S
C367 C369 1.419 . S
C368 C366 1.415 . S
C368 C373 1.425 . S
C368 C375 1.409 . S
C369 H361 0.930 . S
C369 C367 1.419 . S
C369 C370 1.362 . S
C370 H362 0.930 . S
C370 C369 1.362 . S
C370 C373 1.409 . S
C371 H363 0.930 . S
C371 C372 1.355 . S
C371 C373 1.415 . S
C372 C371 1.355 . S
C372 C374 1.419 . S
C373 C368 1.425 . S
C373 C370 1.409 . S
C373 C371 1.415 . S
C374 H364 0.930 . S
C374 C372 1.419 . S
C374 C375 1.362 . S
C375 H365 0.930 . S
C375 C368 1.409 . S
C375 C374 1.362 . S
H376 C382 0.930 . S
H377 C385 0.930 . S
H378 C386 0.930 . S
H379 C387 0.930 . S
H380 C390 0.930 . S
H381 C391 0.930 . S
C382 H376 0.930 . S
C382 C383 1.355 . S
C382 C384 1.415 . S
C383 C382 1.355 . S
C383 C385 1.419 . S
C384 C382 1.415 . S
C384 C389 1.425 . S
C384 C391 1.409 . S
C385 H377 0.930 . S
C385 C383 1.419 . S
C385 C386 1.362 . S
C386 H378 0.930 . S
C386 C385 1.362 . S
C386 C389 1.409 . S
C387 H379 0.930 . S
C387 C388 1.355 . S
C387 C389 1.415 . S
C388 C387 1.355 . S
C388 C390 1.419 . S
C389 C384 1.425 . S
C389 C386 1.409 . S
C389 C387 1.415 . S
C390 H380 0.930 . S
C390 C388 1.419 . S
C390 C391 1.362 . S
C391 H381 0.930 . S
C391 C384 1.409 . S
C391 C390 1.362 . S
H392 C398 0.930 . S
H393 C401 0.930 . S
H394 C402 0.930 . S
H395 C403 0.930 . S
H396 C406 0.930 . S
H397 C407 0.930 . S
C398 H392 0.930 . S
C398 C399 1.355 . S
C398 C400 1.415 . S
C399 C398 1.355 . S
C399 C401 1.419 . S
C400 C398 1.415 . S
C400 C405 1.425 . S
C400 C407 1.409 . S
C401 H393 0.930 . S
C401 C399 1.419 . S
C401 C402 1.362 . S
C402 H394 0.930 . S
C402 C401 1.362 . S
C402 C405 1.409 . S
C403 H395 0.930 . S
C403 C404 1.355 . S
C403 C405 1.415 . S
C404 C403 1.355 . S
C404 C406 1.419 . S
C405 C400 1.425 . S
C405 C402 1.409 . S
C405 C403 1.415 . S
C406 H396 0.930 . S
C406 C404 1.419 . S
C406 C407 1.362 . S
C407 H397 0.930 . S
C407 C400 1.409 . S
C407 C406 1.362 . S
H408 C414 0.930 . S
H409 C417 0.930 . S
H410 C418 0.930 . S
H411 C419 0.930 . S
H412 C422 0.930 . S
H413 C423 0.930 . S
C414 H408 0.930 . S
C414 C415 1.355 . S
C414 C416 1.415 . S
C415 C414 1.355 . S
C415 C417 1.419 . S
C416 C414 1.415 . S
C416 C421 1.425 . S
C416 C423 1.409 . S
C417 H409 0.930 . S
C417 C415 1.419 . S
C417 C418 1.362 . S
C418 H410 0.930 . S
C418 C417 1.362 . S
C418 C421 1.409 . S
C419 H411 0.930 . S
C419 C420 1.355 . S
C419 C421 1.415 . S
C420 C419 1.355 . S
C420 C422 1.419 . S
C421 C416 1.425 . S
C421 C418 1.409 . S
C421 C419 1.415 . S
C422 H412 0.930 . S
C422 C420 1.419 . S
C422 C423 1.362 . S
C423 H413 0.930 . S
C423 C416 1.409 . S
C423 C422 1.362 . S
H424 C430 0.930 . S
H425 C433 0.930 . S
H426 C434 0.930 . S
H427 C435 0.930 . S
H428 C438 0.930 . S
H429 C439 0.930 . S
C430 H424 0.930 . S
C430 C431 1.355 . S
C430 C432 1.415 . S
C431 C430 1.355 . S
C431 C433 1.419 . S
C432 C430 1.415 . S
C432 C437 1.425 . S
C432 C439 1.409 1_556 S
C433 H425 0.930 . S
C433 C431 1.419 . S
C433 C434 1.362 . S
C434 H426 0.930 . S
C434 C433 1.362 . S
C434 C437 1.409 . S
C435 H427 0.930 . S
C435 C436 1.355 . S
C435 C437 1.415 1_554 S
C436 C435 1.355 . S
C436 C438 1.419 . S
C437 C432 1.425 . S
C437 C434 1.409 . S
C437 C435 1.415 1_556 S
C438 H428 0.930 . S
C438 C436 1.419 . S
C438 C439 1.362 . S
C439 H429 0.930 . S
C439 C432 1.409 1_554 S
C439 C438 1.362 . S
H440 C446 0.930 . S
H441 C449 0.930 . S
H442 C450 0.930 . S
H443 C451 0.930 . S
H444 C454 0.930 1_556 S
H445 C455 0.930 . S
C446 H440 0.930 . S
C446 C447 1.355 . S
C446 C448 1.415 . S
C447 C446 1.355 . S
C447 C449 1.419 . S
C448 C446 1.415 . S
C448 C453 1.425 . S
C448 C455 1.409 . S
C449 H441 0.930 . S
C449 C447 1.419 . S
C449 C450 1.362 . S
C450 H442 0.930 . S
C450 C449 1.362 . S
C450 C453 1.409 . S
C451 H443 0.930 . S
C451 C452 1.355 1_554 S
C451 C453 1.415 . S
C452 C451 1.355 1_556 S
C452 C454 1.419 1_556 S
C453 C448 1.425 . S
C453 C450 1.409 . S
C453 C451 1.415 . S
C454 H444 0.930 1_554 S
C454 C452 1.419 1_554 S
C454 C455 1.362 . S
C455 H445 0.930 . S
C455 C448 1.409 . S
C455 C454 1.362 . S
H456 C462 0.930 . S
H457 C465 0.930 . S
H458 C466 0.930 . S
H459 C467 0.930 . S
H460 C470 0.930 . S
H461 C471 0.930 1_556 S
C462 H456 0.930 . S
C462 C463 1.355 . S
C462 C464 1.415 1_556 S
C463 C462 1.355 . S
C463 C465 1.419 . S
C464 C462 1.415 1_554 S
C464 C469 1.425 1_545 S
C464 C471 1.409 1_545 S
C465 H457 0.930 . S
C465 C463 1.419 . S
C465 C466 1.362 1_556 S
C466 H458 0.930 . S
C466 C465 1.362 1_554 S
C466 C469 1.409 1_545 S
C467 H459 0.930 . S
C467 C468 1.355 . S
C467 C469 1.415 . S
C468 C467 1.355 . S
C468 C470 1.419 . S
C469 C464 1.425 1_565 S
C469 C466 1.409 1_565 S
C469 C467 1.415 . S
C470 H460 0.930 . S
C470 C468 1.419 . S
C470 C471 1.362 . S
C471 H461 0.930 1_554 S
C471 C464 1.409 1_565 S
C471 C470 1.362 . S
H472 C478 0.930 . S
H473 C481 0.930 . S
H474 C482 0.930 . S
H475 C483 0.930 . S
H476 C486 0.930 . S
H477 C487 0.930 . S
C478 H472 0.930 . S
C478 C479 1.355 . S
C478 C480 1.415 . S
C479 C478 1.355 . S
C479 C481 1.419 . S
C480 C478 1.415 . S
C480 C485 1.425 . S
C480 C487 1.409 . S
C481 H473 0.930 . S
C481 C479 1.419 . S
C481 C482 1.362 . S
C482 H474 0.930 . S
C482 C481 1.362 . S
C482 C485 1.409 . S
C483 H475 0.930 . S
C483 C484 1.355 . S
C483 C485 1.415 . S
C484 C483 1.355 . S
C484 C486 1.419 . S
C485 C480 1.425 . S
C485 C482 1.409 . S
C485 C483 1.415 . S
C486 H476 0.930 . S
C486 C484 1.419 . S
C486 C487 1.362 . S
C487 H477 0.930 . S
C487 C480 1.409 . S
C487 C486 1.362 . S
H488 C494 0.930 . S
H489 C497 0.930 . S
H490 C498 0.930 . S
H491 C499 0.930 . S
H492 C502 0.930 . S
H493 C503 0.930 . S
C494 H488 0.930 . S
C494 C495 1.355 . S
C494 C496 1.415 . S
C495 C494 1.355 . S
C495 C497 1.419 . S
C496 C494 1.415 . S
C496 C501 1.425 1_455 S
C496 C503 1.409 1_455 S
C497 H489 0.930 . S
C497 C495 1.419 . S
C497 C498 1.362 . S
C498 H490 0.930 . S
C498 C497 1.362 . S
C498 C501 1.409 1_455 S
C499 H491 0.930 . S
C499 C500 1.355 . S
C499 C501 1.415 . S
C500 C499 1.355 . S
C500 C502 1.419 . S
C501 C496 1.425 1_655 S
C501 C498 1.409 1_655 S
C501 C499 1.415 . S
C502 H492 0.930 . S
C502 C500 1.419 . S
C502 C503 1.362 . S
C503 H493 0.930 . S
C503 C496 1.409 1_655 S
C503 C502 1.362 . S
H504 C510 0.930 . S
H505 C513 0.930 . S
H506 C514 0.949 . S
H507 C515 0.930 . S
H508 C518 0.930 . S
H509 C519 0.948 . S
C510 H504 0.930 . S
C510 C511 1.355 . S
C510 C512 1.415 . S
C511 C510 1.355 . S
C511 C513 1.419 . S
C512 C510 1.415 . S
C512 C517 1.425 1_565 S
C512 C519 1.409 1_565 S
C513 H505 0.930 . S
C513 C511 1.419 . S
C513 C514 1.362 . S
C514 H506 0.949 . S
C514 C513 1.362 . S
C514 C517 1.409 1_565 S
C515 H507 0.930 . S
C515 C516 1.355 . S
C515 C517 1.415 . S
C516 C515 1.355 . S
C516 C518 1.419 . S
C517 C512 1.425 1_545 S
C517 C514 1.409 1_545 S
C517 C515 1.415 . S
C518 H508 0.930 . S
C518 C516 1.419 . S
C518 C519 1.362 . S
C519 H509 0.948 . S
C519 C512 1.409 1_545 S
C519 C518 1.362 . S
H520 C526 0.930 . S
H521 C529 0.930 . S
H522 C530 0.930 . S
H523 C531 0.930 . S
H524 C534 0.930 . S
H525 C535 0.930 . S
C526 H520 0.930 . S
C526 C527 1.355 . S
C526 C528 1.415 . S
C527 C526 1.355 . S
C527 C529 1.419 . S
C528 C526 1.415 . S
C528 C533 1.425 . S
C528 C535 1.409 . S
C529 H521 0.930 . S
C529 C527 1.419 . S
C529 C530 1.362 . S
C530 H522 0.930 . S
C530 C529 1.362 . S
C530 C533 1.409 . S
C531 H523 0.930 . S
C531 C532 1.355 . S
C531 C533 1.415 . S
C532 C531 1.355 . S
C532 C534 1.419 . S
C533 C528 1.425 . S
C533 C530 1.409 . S
C533 C531 1.415 . S
C534 H524 0.930 . S
C534 C532 1.419 . S
C534 C535 1.362 . S
C535 H525 0.930 . S
C535 C528 1.409 . S
C535 C534 1.362 . S
H536 C542 0.930 . S
H537 C545 0.930 . S
H538 C546 0.930 . S
H539 C547 0.930 . S
H540 C550 0.930 . S
H541 C551 0.930 . S
C542 H536 0.930 . S
C542 C543 1.355 . S
C542 C544 1.415 . S
C543 C542 1.355 . S
C543 C545 1.419 . S
C544 C542 1.415 . S
C544 C549 1.425 1_455 S
C544 C551 1.409 1_455 S
C545 H537 0.930 . S
C545 C543 1.419 . S
C545 C546 1.362 . S
C546 H538 0.930 . S
C546 C545 1.362 . S
C546 C549 1.409 1_455 S
C547 H539 0.930 . S
C547 C548 1.355 . S
C547 C549 1.415 . S
C548 C547 1.355 . S
C548 C550 1.419 . S
C549 C544 1.425 1_655 S
C549 C546 1.409 1_655 S
C549 C547 1.415 . S
C550 H540 0.930 . S
C550 C548 1.419 . S
C550 C551 1.362 . S
C551 H541 0.930 . S
C551 C544 1.409 1_655 S
C551 C550 1.362 . S
H552 C558 0.930 . S
H553 C561 0.930 . S
H554 C562 0.930 . S
H555 C563 0.930 . S
H556 C566 0.930 . S
H557 C567 0.930 . S
C558 H552 0.930 . S
C558 C559 1.355 . S
C558 C560 1.415 . S
C559 C558 1.355 . S
C559 C561 1.419 . S
C560 C558 1.415 . S
C560 C565 1.425 . S
C560 C567 1.409 . S
C561 H553 0.930 . S
C561 C559 1.419 . S
C561 C562 1.362 . S
C562 H554 0.930 . S
C562 C561 1.362 . S
C562 C565 1.409 . S
C563 H555 0.930 . S
C563 C564 1.355 . S
C563 C565 1.415 . S
C564 C563 1.355 . S
C564 C566 1.419 . S
C565 C560 1.425 . S
C565 C562 1.409 . S
C565 C563 1.415 . S
C566 H556 0.930 . S
C566 C564 1.419 . S
C566 C567 1.362 . S
C567 H557 0.930 . S
C567 C560 1.409 . S
C567 C566 1.362 . S
H568 C574 0.930 . S
H569 C577 0.930 . S
H570 C578 0.930 . S
H571 C579 0.930 . S
H572 C582 0.930 . S
H573 C583 0.930 . S
C574 H568 0.930 . S
C574 C575 1.355 . S
C574 C576 1.415 1_554 S
C575 C574 1.355 . S
C575 C577 1.419 1_554 S
C576 C574 1.415 1_556 S
C576 C581 1.425 . S
C576 C583 1.409 . S
C577 H569 0.930 . S
C577 C575 1.419 1_556 S
C577 C578 1.362 . S
C578 H570 0.930 . S
C578 C577 1.362 . S
C578 C581 1.409 . S
C579 H571 0.930 . S
C579 C580 1.355 . S
C579 C581 1.415 . S
C580 C579 1.355 . S
C580 C582 1.419 . S
C581 C576 1.425 . S
C581 C578 1.409 . S
C581 C579 1.415 . S
C582 H572 0.930 . S
C582 C580 1.419 . S
C582 C583 1.362 . S
C583 H573 0.930 . S
C583 C576 1.409 . S
C583 C582 1.362 . S
H584 C590 0.930 . S
H585 C593 0.930 . S
H586 C594 0.930 . S
H587 C595 0.930 . S
H588 C598 0.930 . S
H589 C599 0.930 . S
C590 H584 0.930 . S
C590 C591 1.355 1_554 S
C590 C592 1.415 . S
C591 C590 1.355 1_556 S
C591 C593 1.419 . S
C592 C590 1.415 . S
C592 C597 1.425 . S
C592 C599 1.409 . S
C593 H585 0.930 . S
C593 C591 1.419 . S
C593 C594 1.362 1_556 S
C594 H586 0.930 . S
C594 C593 1.362 1_554 S
C594 C597 1.409 . S
C595 H587 0.930 . S
C595 C596 1.355 . S
C595 C597 1.415 . S
C596 C595 1.355 . S
C596 C598 1.419 . S
C597 C592 1.425 . S
C597 C594 1.409 . S
C597 C595 1.415 . S
C598 H588 0.930 . S
C598 C596 1.419 . S
C598 C599 1.362 . S
C599 H589 0.930 . S
C599 C592 1.409 . S
C599 C598 1.362 . S
H600 C606 0.930 . S
H601 C609 0.930 . S
H602 C610 0.930 . S
H603 C611 0.930 . S
H604 C614 0.930 . S
H605 C615 0.930 . S
C606 H600 0.930 . S
C606 C607 1.355 . S
C606 C608 1.415 . S
C607 C606 1.355 . S
C607 C609 1.419 . S
C608 C606 1.415 . S
C608 C613 1.425 . S
C608 C615 1.409 . S
C609 H601 0.930 . S
C609 C607 1.419 . S
C609 C610 1.362 . S
C610 H602 0.930 . S
C610 C609 1.362 . S
C610 C613 1.409 . S
C611 H603 0.930 . S
C611 C612 1.355 . S
C611 C613 1.415 . S
C612 C611 1.355 . S
C612 C614 1.419 . S
C613 C608 1.425 . S
C613 C610 1.409 . S
C613 C611 1.415 . S
C614 H604 0.930 . S
C614 C612 1.419 . S
C614 C615 1.362 . S
C615 H605 0.930 . S
C615 C608 1.409 . S
C615 C614 1.362 . S
H616 C622 0.930 . S
H617 C625 0.930 . S
H618 C626 0.930 . S
H619 C627 0.930 . S
H620 C630 0.930 . S
H621 C631 0.930 . S
C622 H616 0.930 . S
C622 C623 1.355 . S
C622 C624 1.415 . S
C623 C622 1.355 . S
C623 C625 1.419 . S
C624 C622 1.415 . S
C624 C629 1.425 . S
C624 C631 1.409 . S
C625 H617 0.930 . S
C625 C623 1.419 . S
C625 C626 1.362 . S
C626 H618 0.930 . S
C626 C625 1.362 . S
C626 C629 1.409 . S
C627 H619 0.930 . S
C627 C628 1.355 . S
C627 C629 1.415 . S
C628 C627 1.355 . S
C628 C630 1.419 . S
C629 C624 1.425 . S
C629 C626 1.409 . S
C629 C627 1.415 . S
C630 H620 0.930 . S
C630 C628 1.419 . S
C630 C631 1.362 . S
C631 H621 0.930 . S
C631 C624 1.409 . S
C631 C630 1.362 . S
H632 C638 0.930 . S
H633 C641 0.930 . S
H634 C642 0.930 . S
H635 C643 0.930 . S
H636 C646 0.930 . S
H637 C647 0.930 . S
C638 H632 0.930 . S
C638 C639 1.355 . S
C638 C640 1.415 . S
C639 C638 1.355 . S
C639 C641 1.419 . S
C640 C638 1.415 . S
C640 C645 1.425 . S
C640 C647 1.409 . S
C641 H633 0.930 . S
C641 C639 1.419 . S
C641 C642 1.362 . S
C642 H634 0.930 . S
C642 C641 1.362 . S
C642 C645 1.409 . S
C643 H635 0.930 . S
C643 C644 1.355 . S
C643 C645 1.415 . S
C644 C643 1.355 . S
C644 C646 1.419 . S
C645 C640 1.425 . S
C645 C642 1.409 . S
C645 C643 1.415 . S
C646 H636 0.930 . S
C646 C644 1.419 . S
C646 C647 1.362 . S
C647 H637 0.930 . S
C647 C640 1.409 . S
C647 C646 1.362 . S
H648 C654 0.930 . S
H649 C657 0.930 . S
H650 C658 0.930 . S
H651 C659 0.930 . S
H652 C662 0.930 . S
H653 C663 0.930 . S
C654 H648 0.930 . S
C654 C655 1.355 . S
C654 C656 1.415 . S
C655 C654 1.355 . S
C655 C657 1.419 . S
C656 C654 1.415 . S
C656 C661 1.425 . S
C656 C663 1.409 . S
C657 H649 0.930 . S
C657 C655 1.419 . S
C657 C658 1.362 . S
C658 H650 0.930 . S
C658 C657 1.362 . S
C658 C661 1.409 . S
C659 H651 0.930 . S
C659 C660 1.355 . S
C659 C661 1.415 . S
C660 C659 1.355 . S
C660 C662 1.419 . S
C661 C656 1.425 . S
C661 C658 1.409 . S
C661 C659 1.415 . S
C662 H652 0.930 . S
C662 C660 1.419 . S
C662 C663 1.362 . S
C663 H653 0.930 . S
C663 C656 1.409 . S
C663 C662 1.362 . S
H664 C670 0.930 . S
H665 C673 0.930 . S
H666 C674 0.930 . S
H667 C675 0.930 . S
H668 C678 0.930 . S
H669 C679 0.930 . S
C670 H664 0.930 . S
C670 C671 1.355 . S
C670 C672 1.415 . S
C671 C670 1.355 . S
C671 C673 1.419 . S
C672 C670 1.415 . S
C672 C677 1.425 . S
C672 C679 1.409 . S
C673 H665 0.930 . S
C673 C671 1.419 . S
C673 C674 1.362 . S
C674 H666 0.930 . S
C674 C673 1.362 . S
C674 C677 1.409 . S
C675 H667 0.930 . S
C675 C676 1.355 . S
C675 C677 1.415 . S
C676 C675 1.355 . S
C676 C678 1.419 . S
C677 C672 1.425 . S
C677 C674 1.409 . S
C677 C675 1.415 . S
C678 H668 0.930 . S
C678 C676 1.419 . S
C678 C679 1.362 . S
C679 H669 0.930 . S
C679 C672 1.409 . S
C679 C678 1.362 . S
H680 C686 0.930 . S
H681 C689 0.930 . S
H682 C690 0.930 . S
H683 C691 0.930 . S
H684 C694 0.930 . S
H685 C695 0.930 . S
C686 H680 0.930 . S
C686 C687 1.355 . S
C686 C688 1.415 . S
C687 C686 1.355 . S
C687 C689 1.419 . S
C688 C686 1.415 . S
C688 C693 1.425 . S
C688 C695 1.409 . S
C689 H681 0.930 . S
C689 C687 1.419 . S
C689 C690 1.362 . S
C690 H682 0.930 . S
C690 C689 1.362 . S
C690 C693 1.409 . S
C691 H683 0.930 . S
C691 C692 1.355 . S
C691 C693 1.415 . S
C692 C691 1.355 . S
C692 C694 1.419 . S
C693 C688 1.425 . S
C693 C690 1.409 . S
C693 C691 1.415 . S
C694 H684 0.930 . S
C694 C692 1.419 . S
C694 C695 1.362 . S
C695 H685 0.930 . S
C695 C688 1.409 . S
C695 C694 1.362 . S
H696 C702 0.930 . S
H697 C705 0.930 . S
H698 C706 0.930 . S
H699 C707 0.930 . S
H700 C710 0.930 . S
H701 C711 0.930 . S
C702 H696 0.930 . S
C702 C703 1.355 . S
C702 C704 1.415 . S
C703 C702 1.355 . S
C703 C705 1.419 . S
C704 C702 1.415 . S
C704 C709 1.425 . S
C704 C711 1.409 . S
C705 H697 0.930 . S
C705 C703 1.419 . S
C705 C706 1.362 . S
C706 H698 0.930 . S
C706 C705 1.362 . S
C706 C709 1.409 . S
C707 H699 0.930 . S
C707 C708 1.355 . S
C707 C709 1.415 . S
C708 C707 1.355 . S
C708 C710 1.419 . S
C709 C704 1.425 . S
C709 C706 1.409 . S
C709 C707 1.415 . S
C710 H700 0.930 . S
C710 C708 1.419 . S
C710 C711 1.362 . S
C711 H701 0.930 . S
C711 C704 1.409 . S
C711 C710 1.362 . S
H712 C718 0.930 . S
H713 C721 0.930 . S
H714 C722 0.930 . S
H715 C723 0.930 . S
H716 C726 0.930 . S
H717 C727 0.930 . S
C718 H712 0.930 . S
C718 C719 1.355 . S
C718 C720 1.415 . S
C719 C718 1.355 . S
C719 C721 1.419 . S
C720 C718 1.415 . S
C720 C725 1.425 . S
C720 C727 1.409 . S
C721 H713 0.930 . S
C721 C719 1.419 . S
C721 C722 1.362 . S
C722 H714 0.930 . S
C722 C721 1.362 . S
C722 C725 1.409 . S
C723 H715 0.930 . S
C723 C724 1.355 . S
C723 C725 1.415 . S
C724 C723 1.355 . S
C724 C726 1.419 . S
C725 C720 1.425 . S
C725 C722 1.409 . S
C725 C723 1.415 . S
C726 H716 0.930 . S
C726 C724 1.419 . S
C726 C727 1.362 . S
C727 H717 0.930 . S
C727 C720 1.409 . S
C727 C726 1.362 . S
H728 C734 0.930 . S
H729 C737 0.930 . S
H730 C738 0.930 . S
H731 C739 0.930 . S
H732 C742 0.930 . S
H733 C743 0.930 . S
C734 H728 0.930 . S
C734 C735 1.355 . S
C734 C736 1.415 . S
C735 C734 1.355 . S
C735 C737 1.419 . S
C736 C734 1.415 . S
C736 C741 1.425 . S
C736 C743 1.409 . S
C737 H729 0.930 . S
C737 C735 1.419 . S
C737 C738 1.362 . S
C738 H730 0.930 . S
C738 C737 1.362 . S
C738 C741 1.409 . S
C739 H731 0.930 . S
C739 C740 1.355 . S
C739 C741 1.415 . S
C740 C739 1.355 . S
C740 C742 1.419 . S
C741 C736 1.425 . S
C741 C738 1.409 . S
C741 C739 1.415 . S
C742 H732 0.930 . S
C742 C740 1.419 . S
C742 C743 1.362 . S
C743 H733 0.930 . S
C743 C736 1.409 . S
C743 C742 1.362 . S
H744 C750 0.930 . S
H745 C753 0.930 . S
H746 C754 0.930 . S
H747 C755 0.930 . S
H748 C758 0.930 . S
H749 C759 0.930 . S
C750 H744 0.930 . S
C750 C751 1.355 . S
C750 C752 1.415 . S
C751 C750 1.355 . S
C751 C753 1.419 . S
C752 C750 1.415 . S
C752 C757 1.425 . S
C752 C759 1.409 . S
C753 H745 0.930 . S
C753 C751 1.419 . S
C753 C754 1.362 . S
C754 H746 0.930 . S
C754 C753 1.362 . S
C754 C757 1.409 . S
C755 H747 0.930 . S
C755 C756 1.355 . S
C755 C757 1.415 . S
C756 C755 1.355 . S
C756 C758 1.419 . S
C757 C752 1.425 . S
C757 C754 1.409 . S
C757 C755 1.415 . S
C758 H748 0.930 . S
C758 C756 1.419 . S
C758 C759 1.362 . S
C759 H749 0.930 . S
C759 C752 1.409 . S
C759 C758 1.362 . S
H760 C766 0.930 . S
H761 C769 0.930 . S
H762 C770 0.930 . S
H763 C771 0.930 . S
H764 C774 0.930 . S
H765 C775 0.930 . S
C766 H760 0.930 . S
C766 C767 1.355 . S
C766 C768 1.415 . S
C767 C766 1.355 . S
C767 C769 1.419 . S
C768 C766 1.415 . S
C768 C773 1.425 . S
C768 C775 1.409 . S
C769 H761 0.930 . S
C769 C767 1.419 . S
C769 C770 1.362 . S
C770 H762 0.930 . S
C770 C769 1.362 . S
C770 C773 1.409 . S
C771 H763 0.930 . S
C771 C772 1.355 . S
C771 C773 1.415 . S
C772 C771 1.355 . S
C772 C774 1.419 . S
C773 C768 1.425 . S
C773 C770 1.409 . S
C773 C771 1.415 . S
C774 H764 0.930 . S
C774 C772 1.419 . S
C774 C775 1.362 . S
C775 H765 0.930 . S
C775 C768 1.409 . S
C775 C774 1.362 . S
H776 C782 0.930 . S
H777 C785 0.930 . S
H778 C786 0.930 . S
H779 C787 0.930 . S
H780 C790 0.930 . S
H781 C791 0.930 . S
C782 H776 0.930 . S
C782 C783 1.355 . S
C782 C784 1.415 . S
C783 C782 1.355 . S
C783 C785 1.419 . S
C784 C782 1.415 . S
C784 C789 1.425 . S
C784 C791 1.409 . S
C785 H777 0.930 . S
C785 C783 1.419 . S
C785 C786 1.362 . S
C786 H778 0.930 . S
C786 C785 1.362 . S
C786 C789 1.409 . S
C787 H779 0.930 . S
C787 C788 1.355 . S
C787 C789 1.415 . S
C788 C787 1.355 . S
C788 C790 1.419 . S
C789 C784 1.425 . S
C789 C786 1.409 . S
C789 C787 1.415 . S
C790 H780 0.930 . S
C790 C788 1.419 . S
C790 C791 1.362 . S
C791 H781 0.930 . S
C791 C784 1.409 . S
C791 C790 1.362 . S
H792 C798 0.930 . S
H793 C801 0.930 . S
H794 C802 0.930 . S
H795 C803 0.930 . S
H796 C806 0.930 . S
H797 C807 0.930 . S
C798 H792 0.930 . S
C798 C799 1.355 . S
C798 C800 1.415 . S
C799 C798 1.355 . S
C799 C801 1.419 . S
C800 C798 1.415 . S
C800 C805 1.425 . S
C800 C807 1.409 . S
C801 H793 0.930 . S
C801 C799 1.419 . S
C801 C802 1.362 . S
C802 H794 0.930 . S
C802 C801 1.362 . S
C802 C805 1.409 . S
C803 H795 0.930 . S
C803 C804 1.355 . S
C803 C805 1.415 . S
C804 C803 1.355 . S
C804 C806 1.419 . S
C805 C800 1.425 . S
C805 C802 1.409 . S
C805 C803 1.415 . S
C806 H796 0.930 . S
C806 C804 1.419 . S
C806 C807 1.362 . S
C807 H797 0.930 . S
C807 C800 1.409 . S
C807 C806 1.362 . S
H808 C814 0.930 . S
H809 C817 0.930 . S
H810 C818 0.930 1_554 S
H811 C819 0.930 1_554 S
H812 C822 0.930 . S
H813 C823 0.930 . S
C814 H808 0.930 . S
C814 C815 1.355 . S
C814 C816 1.415 . S
C815 C814 1.355 . S
C815 C817 1.419 . S
C816 C814 1.415 . S
C816 C821 1.425 . S
C816 C823 1.409 . S
C817 H809 0.930 . S
C817 C815 1.419 . S
C817 C818 1.362 . S
C818 H810 0.930 1_556 S
C818 C817 1.362 . S
C818 C821 1.409 . S
C819 H811 0.930 1_556 S
C819 C820 1.355 . S
C819 C821 1.415 . S
C820 C819 1.355 . S
C820 C822 1.419 . S
C821 C816 1.425 . S
C821 C818 1.409 . S
C821 C819 1.415 . S
C822 H812 0.930 . S
C822 C820 1.419 . S
C822 C823 1.362 . S
C823 H813 0.930 . S
C823 C816 1.409 . S
C823 C822 1.362 . S
H824 C830 0.930 . S
H825 C833 0.930 . S
H826 C834 0.930 . S
H827 C835 0.930 . S
H828 C838 0.930 . S
H829 C839 0.930 . S
C830 H824 0.930 . S
C830 C831 1.355 . S
C830 C832 1.415 . S
C831 C830 1.355 . S
C831 C833 1.419 . S
C832 C830 1.415 . S
C832 C837 1.425 . S
C832 C839 1.409 . S
C833 H825 0.930 . S
C833 C831 1.419 . S
C833 C834 1.362 . S
C834 H826 0.930 . S
C834 C833 1.362 . S
C834 C837 1.409 . S
C835 H827 0.930 . S
C835 C836 1.355 . S
C835 C837 1.415 . S
C836 C835 1.355 . S
C836 C838 1.419 . S
C837 C832 1.425 . S
C837 C834 1.409 . S
C837 C835 1.415 . S
C838 H828 0.930 . S
C838 C836 1.419 . S
C838 C839 1.362 . S
C839 H829 0.930 . S
C839 C832 1.409 . S
C839 C838 1.362 . S
C271 C6 1.678 . S
C276 C8 1.655 . S
C287 C28 1.644 . S
C292 C30 1.680 . S
C303 C52 1.654 . S
C308 C50 1.678 . S
C319 C72 1.661 . S
C324 C74 1.671 . S
C335 C96 1.677 1_554 S
C340 C94 1.652 . S
C351 C116 1.661 . S
C356 C118 1.665 . S
C367 C139 1.649 . S
C372 C136 1.679 . S
C383 C158 1.655 . S
C388 C161 1.678 . S
C399 C180 1.655 . S
C404 C183 1.675 . S
C415 C202 1.668 1_556 S
C420 C205 1.665 . S
C431 C227 1.669 . S
C436 C224 1.659 . S
C447 C246 1.675 . S
C452 C249 1.655 . S
C463 C4 1.455 . S
C468 C162 1.471 . S
C479 C184 1.511 . S
C484 C26 1.497 . S
C495 C206 1.457 . S
C500 C48 1.474 . S
C511 C70 1.514 . S
C516 C228 1.519 . S
C527 C92 1.470 . S
C532 C250 1.454 . S
C543 C114 1.440 . S
C548 C140 1.448 . S
C559 C5 1.142 . S
C564 C229 1.079 . S
C575 C27 1.089 . S
C580 C251 1.165 . S
C591 C141 1.079 . S
C596 C49 1.142 . S
C607 C71 1.150 . S
C612 C163 1.165 . S
C623 C93 1.159 . S
C628 C185 1.084 . S
C639 C207 1.109 . S
C644 C115 1.089 . S
C655 C9 1.184 . S
C660 C181 1.198 . S
C671 C203 1.182 . S
C676 C31 1.197 . S
C687 C225 1.164 . S
C692 C53 1.178 . S
C703 C75 1.208 . S
C708 C247 1.195 . S
C719 C137 1.196 . S
C724 C97 1.181 . S
C735 C119 1.190 . S
C740 C159 1.174 . S
C751 C7 1.244 . S
C756 C226 1.179 . S
C767 C29 1.235 . S
C772 C248 1.301 . S
C783 C51 1.214 . S
C788 C138 1.299 . S
C799 C160 1.186 . S
C804 C73 1.222 . S
C815 C95 1.301 . S
C820 C182 1.243 1_556 S
C831 C204 1.301 . S
C836 C117 1.225 1_554 S
