# Generated by pormake.
# Topology ukc, (4)-cn, num edge types: 1
# Building blocks:
#     Node 0, Type 0, BuildingBlock: ICAMEG_clean_sbu_1, # of connection points: 4
#     Node 1, Type 0, BuildingBlock: ICAMEG_clean_sbu_1, # of connection points: 4
#     Node 2, Type 0, BuildingBlock: ICAMEG_clean_sbu_1, # of connection points: 4
#     Node 3, Type 0, BuildingBlock: ICAMEG_clean_sbu_1, # of connection points: 4
#     Node 4, Type 0, BuildingBlock: ICAMEG_clean_sbu_1, # of connection points: 4
#     Node 5, Type 0, BuildingBlock: ICAMEG_clean_sbu_1, # of connection points: 4
#     Node 6, Type 0, BuildingBlock: ICAMEG_clean_sbu_1, # of connection points: 4
#     Node 7, Type 0, BuildingBlock: ICAMEG_clean_sbu_1, # of connection points: 4
#     Node 8, Type 0, BuildingBlock: ICAMEG_clean_sbu_1, # of connection points: 4
#     Node 9, Type 0, BuildingBlock: ICAMEG_clean_sbu_1, # of connection points: 4
#     Node 10, Type 0, BuildingBlock: ICAMEG_clean_sbu_1, # of connection points: 4
#     Node 11, Type 0, BuildingBlock: ICAMEG_clean_sbu_1, # of connection points: 4
#     Node 12, Type 0, BuildingBlock: ICAMEG_clean_sbu_1, # of connection points: 4
#     Node 13, Type 0, BuildingBlock: ICAMEG_clean_sbu_1, # of connection points: 4
#     Node 14, Type 0, BuildingBlock: ICAMEG_clean_sbu_1, # of connection points: 4
#     Node 15, Type 0, BuildingBlock: ICAMEG_clean_sbu_1, # of connection points: 4
#     Node 16, Type 0, BuildingBlock: ICAMEG_clean_sbu_1, # of connection points: 4
#     Node 17, Type 0, BuildingBlock: ICAMEG_clean_sbu_1, # of connection points: 4
#     Node 18, Type 0, BuildingBlock: ICAMEG_clean_sbu_1, # of connection points: 4
#     Node 19, Type 0, BuildingBlock: ICAMEG_clean_sbu_1, # of connection points: 4
#     Node 20, Type 0, BuildingBlock: ICAMEG_clean_sbu_1, # of connection points: 4
#     Node 21, Type 0, BuildingBlock: ICAMEG_clean_sbu_1, # of connection points: 4
#     Node 22, Type 0, BuildingBlock: ICAMEG_clean_sbu_1, # of connection points: 4
#     Node 23, Type 0, BuildingBlock: ICAMEG_clean_sbu_1, # of connection points: 4
#     Node 24, Type 0, BuildingBlock: ICAMEG_clean_sbu_1, # of connection points: 4
#     Node 25, Type 0, BuildingBlock: ICAMEG_clean_sbu_1, # of connection points: 4
#     Node 26, Type 0, BuildingBlock: ICAMEG_clean_sbu_1, # of connection points: 4
#     Node 27, Type 0, BuildingBlock: ICAMEG_clean_sbu_1, # of connection points: 4
#     Node 28, Type 0, BuildingBlock: ICAMEG_clean_sbu_1, # of connection points: 4
#     Node 29, Type 0, BuildingBlock: ICAMEG_clean_sbu_1, # of connection points: 4
#     Node 30, Type 0, BuildingBlock: ICAMEG_clean_sbu_1, # of connection points: 4
#     Node 31, Type 0, BuildingBlock: ICAMEG_clean_sbu_1, # of connection points: 4
#     Edge 32, Type (0, 0), BuildingBlock: KIFKEQ_clean_linker_1, # of connection points: 2
#     Edge 33, Type (0, 0), BuildingBlock: KIFKEQ_clean_linker_1, # of connection points: 2
#     Edge 34, Type (0, 0), BuildingBlock: KIFKEQ_clean_linker_1, # of connection points: 2
#     Edge 35, Type (0, 0), BuildingBlock: KIFKEQ_clean_linker_1, # of connection points: 2
#     Edge 36, Type (0, 0), BuildingBlock: KIFKEQ_clean_linker_1, # of connection points: 2
#     Edge 37, Type (0, 0), BuildingBlock: KIFKEQ_clean_linker_1, # of connection points: 2
#     Edge 38, Type (0, 0), BuildingBlock: KIFKEQ_clean_linker_1, # of connection points: 2
#     Edge 39, Type (0, 0), BuildingBlock: KIFKEQ_clean_linker_1, # of connection points: 2
#     Edge 40, Type (0, 0), BuildingBlock: KIFKEQ_clean_linker_1, # of connection points: 2
#     Edge 41, Type (0, 0), BuildingBlock: KIFKEQ_clean_linker_1, # of connection points: 2
#     Edge 42, Type (0, 0), BuildingBlock: KIFKEQ_clean_linker_1, # of connection points: 2
#     Edge 43, Type (0, 0), BuildingBlock: KIFKEQ_clean_linker_1, # of connection points: 2
#     Edge 44, Type (0, 0), BuildingBlock: KIFKEQ_clean_linker_1, # of connection points: 2
#     Edge 45, Type (0, 0), BuildingBlock: KIFKEQ_clean_linker_1, # of connection points: 2
#     Edge 46, Type (0, 0), BuildingBlock: KIFKEQ_clean_linker_1, # of connection points: 2
#     Edge 47, Type (0, 0), BuildingBlock: KIFKEQ_clean_linker_1, # of connection points: 2
#     Edge 48, Type (0, 0), BuildingBlock: KIFKEQ_clean_linker_1, # of connection points: 2
#     Edge 49, Type (0, 0), BuildingBlock: KIFKEQ_clean_linker_1, # of connection points: 2
#     Edge 50, Type (0, 0), BuildingBlock: KIFKEQ_clean_linker_1, # of connection points: 2
#     Edge 51, Type (0, 0), BuildingBlock: KIFKEQ_clean_linker_1, # of connection points: 2
#     Edge 52, Type (0, 0), BuildingBlock: KIFKEQ_clean_linker_1, # of connection points: 2
#     Edge 53, Type (0, 0), BuildingBlock: KIFKEQ_clean_linker_1, # of connection points: 2
#     Edge 54, Type (0, 0), BuildingBlock: KIFKEQ_clean_linker_1, # of connection points: 2
#     Edge 55, Type (0, 0), BuildingBlock: KIFKEQ_clean_linker_1, # of connection points: 2
#     Edge 56, Type (0, 0), BuildingBlock: KIFKEQ_clean_linker_1, # of connection points: 2
#     Edge 57, Type (0, 0), BuildingBlock: KIFKEQ_clean_linker_1, # of connection points: 2
#     Edge 58, Type (0, 0), BuildingBlock: KIFKEQ_clean_linker_1, # of connection points: 2
#     Edge 59, Type (0, 0), BuildingBlock: KIFKEQ_clean_linker_1, # of connection points: 2
#     Edge 60, Type (0, 0), BuildingBlock: KIFKEQ_clean_linker_1, # of connection points: 2
#     Edge 61, Type (0, 0), BuildingBlock: KIFKEQ_clean_linker_1, # of connection points: 2
#     Edge 62, Type (0, 0), BuildingBlock: KIFKEQ_clean_linker_1, # of connection points: 2
#     Edge 63, Type (0, 0), BuildingBlock: KIFKEQ_clean_linker_1, # of connection points: 2
#     Edge 64, Type (0, 0), BuildingBlock: KIFKEQ_clean_linker_1, # of connection points: 2
#     Edge 65, Type (0, 0), BuildingBlock: KIFKEQ_clean_linker_1, # of connection points: 2
#     Edge 66, Type (0, 0), BuildingBlock: KIFKEQ_clean_linker_1, # of connection points: 2
#     Edge 67, Type (0, 0), BuildingBlock: KIFKEQ_clean_linker_1, # of connection points: 2
#     Edge 68, Type (0, 0), BuildingBlock: KIFKEQ_clean_linker_1, # of connection points: 2
#     Edge 69, Type (0, 0), BuildingBlock: KIFKEQ_clean_linker_1, # of connection points: 2
#     Edge 70, Type (0, 0), BuildingBlock: KIFKEQ_clean_linker_1, # of connection points: 2
#     Edge 71, Type (0, 0), BuildingBlock: KIFKEQ_clean_linker_1, # of connection points: 2
#     Edge 72, Type (0, 0), BuildingBlock: KIFKEQ_clean_linker_1, # of connection points: 2
#     Edge 73, Type (0, 0), BuildingBlock: KIFKEQ_clean_linker_1, # of connection points: 2
#     Edge 74, Type (0, 0), BuildingBlock: KIFKEQ_clean_linker_1, # of connection points: 2
#     Edge 75, Type (0, 0), BuildingBlock: KIFKEQ_clean_linker_1, # of connection points: 2
#     Edge 76, Type (0, 0), BuildingBlock: KIFKEQ_clean_linker_1, # of connection points: 2
#     Edge 77, Type (0, 0), BuildingBlock: KIFKEQ_clean_linker_1, # of connection points: 2
#     Edge 78, Type (0, 0), BuildingBlock: KIFKEQ_clean_linker_1, # of connection points: 2
#     Edge 79, Type (0, 0), BuildingBlock: KIFKEQ_clean_linker_1, # of connection points: 2
#     Edge 80, Type (0, 0), BuildingBlock: KIFKEQ_clean_linker_1, # of connection points: 2
#     Edge 81, Type (0, 0), BuildingBlock: KIFKEQ_clean_linker_1, # of connection points: 2
#     Edge 82, Type (0, 0), BuildingBlock: KIFKEQ_clean_linker_1, # of connection points: 2
#     Edge 83, Type (0, 0), BuildingBlock: KIFKEQ_clean_linker_1, # of connection points: 2
#     Edge 84, Type (0, 0), BuildingBlock: KIFKEQ_clean_linker_1, # of connection points: 2
#     Edge 85, Type (0, 0), BuildingBlock: KIFKEQ_clean_linker_1, # of connection points: 2
#     Edge 86, Type (0, 0), BuildingBlock: KIFKEQ_clean_linker_1, # of connection points: 2
#     Edge 87, Type (0, 0), BuildingBlock: KIFKEQ_clean_linker_1, # of connection points: 2
#     Edge 88, Type (0, 0), BuildingBlock: KIFKEQ_clean_linker_1, # of connection points: 2
#     Edge 89, Type (0, 0), BuildingBlock: KIFKEQ_clean_linker_1, # of connection points: 2
#     Edge 90, Type (0, 0), BuildingBlock: KIFKEQ_clean_linker_1, # of connection points: 2
#     Edge 91, Type (0, 0), BuildingBlock: KIFKEQ_clean_linker_1, # of connection points: 2
#     Edge 92, Type (0, 0), BuildingBlock: KIFKEQ_clean_linker_1, # of connection points: 2
#     Edge 93, Type (0, 0), BuildingBlock: KIFKEQ_clean_linker_1, # of connection points: 2
#     Edge 94, Type (0, 0), BuildingBlock: KIFKEQ_clean_linker_1, # of connection points: 2
#     Edge 95, Type (0, 0), BuildingBlock: KIFKEQ_clean_linker_1, # of connection points: 2
# Relax obj value: 0.064
# Max RMSD: 0.143
# Mean RMSD: 0.143
data_MOF--net-ukc--node1-ICAMEG_clean_sbu_1--edge1-KIFKEQ_clean_linker_1
_symmetry_space_group_name_H-M    P1
_symmetry_Int_Tables_number       1
_symmetry_cell_setting            triclinic
loop_
_symmetry_equiv_pos_as_xyz
'x, y, z'
_cell_length_a     48.899284
_cell_length_b     48.902306
_cell_length_c     91.234355
_cell_angle_alpha  90.022644
_cell_angle_beta   89.964195
_cell_angle_gamma 90.02634
loop_
_atom_site_label
_atom_site_type_symbol
_atom_site_fract_x
_atom_site_fract_y
_atom_site_fract_z
_atom_type_partial_charge
Co0 Co 0.069 0.40138 0.0612 0.0
Co1 Co 0.12379 0.366 0.04889 0.0
O2 O 0.1008 0.39887 0.04812 0.0
C3 C 0.04974 0.428 0.03316 0.0
O4 O 0.06384 0.41092 0.02504 0.0
C5 C 0.18034 0.38912 0.048 0.0
O6 O 0.18515 0.37706 0.0606 0.0
O7 O 0.13109 0.37385 0.07018 0.0
O8 O 0.08727 0.37835 0.07637 0.0
H9 H 0.15865 0.27947 0.07187 0.0
H10 H 0.09625 0.45106 0.04976 0.0
O11 O 0.04942 0.42556 0.04703 0.0
H12 H 0.09611 0.46218 0.10347 0.0
H13 H 0.98979 0.44814 0.08624 0.0
H14 H 0.03843 0.36088 0.07902 0.0
H15 H 0.07519 0.42162 0.09205 0.0
H16 H 0.03077 0.44592 0.07056 0.0
O17 O 0.15621 0.38881 0.04265 0.0
H18 H 0.12965 0.32058 0.07005 0.0
H19 H 0.16771 0.34212 0.02981 0.0
H20 H 0.99772 0.36224 0.09493 0.0
H21 H 0.11704 0.49222 0.0607 0.0
H22 H 0.97307 0.40611 0.09863 0.0
H23 H 0.11716 0.49794 0.08776 0.0
O24 O 0.05389 0.36782 0.05183 0.0
H25 H 0.11379 0.39221 0.9959 0.0
H26 H 0.10668 0.31681 0.03156 0.0
H27 H 0.09606 0.30815 1.00558 0.0
H28 H 0.09971 0.34597 0.98752 0.0
H29 H 0.12382 0.4001 0.02204 0.0
H30 H 0.19717 0.30131 0.03123 0.0
H31 H 0.19272 0.26963 0.05237 0.0
O32 O 0.09152 0.34213 0.05426 0.0
C33 C 0.11232 0.37584 0.07989 0.0
C34 C 0.1608 0.29313 0.06261 0.0
C35 C 0.18241 0.30539 0.0398 0.0
N36 N 0.147 0.33379 0.04987 0.0
C37 C 0.14444 0.31645 0.06153 0.0
C38 C 0.16569 0.32848 0.03907 0.0
C39 C 0.1799 0.28762 0.05167 0.0
C40 C 0.09612 0.45343 0.06153 0.0
N41 N 0.08461 0.43383 0.07025 0.0
C42 C 0.10796 0.47678 0.06767 0.0
C43 C 0.10803 0.47997 0.08285 0.0
C44 C 0.09625 0.45991 0.09167 0.0
C45 C 0.08456 0.43688 0.08514 0.0
C46 C 1.00033 0.42889 0.0847 0.0
C47 C 0.02788 0.38007 0.08057 0.0
C48 C 0.02347 0.42748 0.07576 0.0
N49 N 0.03703 0.40329 0.07383 0.0
C50 C 1.0048 0.38071 0.0896 0.0
C51 C 0.99097 0.40531 0.09166 0.0
C52 C 0.06576 0.34453 0.05205 0.0
C53 C 0.1122 0.37554 1.00366 0.0
C54 C 0.10811 0.33346 0.02381 0.0
C55 C 0.10218 0.32839 0.00909 0.0
C56 C 0.10426 0.34961 0.99896 0.0
N57 N 0.11595 0.35895 0.02834 0.0
C58 C 0.11796 0.37986 0.01847 0.0
Co59 Co 0.86363 0.8346 0.30642 0.0
Co60 Co 0.90716 0.88748 0.29853 0.0
O61 O 0.87339 0.86695 0.29478 0.0
C62 C 0.84572 0.79405 0.28447 0.0
O63 O 0.86412 0.77752 0.29009 0.0
C64 C 0.86556 0.93048 0.28886 0.0
O65 O 0.84547 0.9127 0.28878 0.0
O66 O 0.89629 0.89214 0.31964 0.0
O67 O 0.88187 0.84949 0.32421 0.0
H68 H 0.9917 0.91003 0.32738 0.0
H69 H 0.81927 0.86281 0.29017 0.0
O70 O 0.84457 0.81883 0.2888 0.0
H71 H 0.79283 0.86866 0.34224 0.0
H72 H 0.80011 0.76077 0.32483 0.0
H73 H 0.8934 0.7988 0.32724 0.0
H74 H 0.83524 0.84515 0.33495 0.0
H75 H 0.81248 0.80152 0.31039 0.0
O76 O 0.8893 0.92351 0.29334 0.0
H77 H 0.9495 0.88457 0.32168 0.0
H78 H 0.93636 0.93418 0.28413 0.0
H79 H 0.8819 0.75802 0.34185 0.0
H80 H 0.77644 0.88614 0.29698 0.0
H81 H 0.83496 0.7387 0.3407 0.0
H82 H 0.76301 0.88928 0.32318 0.0
O83 O 0.89891 0.8168 0.30079 0.0
H84 H 0.89005 0.88266 0.24409 0.0
H85 H 0.95936 0.87447 0.28296 0.0
H86 H 0.97283 0.86723 0.25728 0.0
H87 H 0.93808 0.87152 0.23757 0.0
H88 H 0.8774 0.88916 0.26991 0.0
H89 H 0.97819 0.96042 0.28956 0.0
H90 H 1.00628 0.94829 0.31127 0.0
O91 O 0.92727 0.85264 0.30329 0.0
C92 C 0.89002 0.87286 0.32849 0.0
C93 C 0.97966 0.91549 0.31788 0.0
C94 C 0.97204 0.94381 0.29667 0.0
N95 N 0.94046 0.90782 0.30257 0.0
C96 C 0.95576 0.9011 0.31457 0.0
C97 C 0.94827 0.92897 0.2937 0.0
C98 C 0.98781 0.93697 0.30884 0.0
C99 C 0.8135 0.8639 0.30159 0.0
N100 N 0.82984 0.85265 0.31213 0.0
C101 C 0.78925 0.87722 0.30538 0.0
C102 C 0.78174 0.87901 0.32009 0.0
C103 C 0.79848 0.86748 0.33078 0.0
C104 C 0.82258 0.85432 0.32658 0.0
C105 C 0.82065 0.76898 0.32542 0.0
C106 C 0.87295 0.79051 0.32663 0.0
C107 C 0.82778 0.79206 0.31726 0.0
N108 N 0.85372 0.80249 0.31788 0.0
C109 C 0.86654 0.76742 0.33496 0.0
C110 C 0.84021 0.7566 0.33431 0.0
C111 C 0.92291 0.82694 0.30204 0.0
C112 C 0.90542 0.88088 0.25257 0.0
C113 C 0.94405 0.87615 0.27453 0.0
C114 C 0.95183 0.87215 0.25996 0.0
C115 C 0.93235 0.87458 0.24891 0.0
N116 N 0.91764 0.88259 0.27807 0.0
C117 C 0.8984 0.88473 0.26727 0.0
Co118 Co 0.44247 0.61265 0.55891 0.0
Co119 Co 0.38914 0.65435 0.55035 0.0
O120 O 0.41099 0.62127 0.54623 0.0
C121 C 0.45905 0.58978 0.529 0.0
O122 O 0.43837 0.60104 0.52211 0.0
C123 C 0.34874 0.61369 0.53693 0.0
O124 O 0.36737 0.59446 0.53601 0.0
O125 O 0.38144 0.64026 0.57056 0.0
O126 O 0.42461 0.63021 0.5762 0.0
H127 H 0.35988 0.73401 0.58143 0.0
H128 H 0.4143 0.56837 0.54239 0.0
O129 O 0.46264 0.59385 0.54264 0.0
H130 H 0.41123 0.5394 0.59408 0.0
H131 H 0.51845 0.55431 0.57934 0.0
H132 H 0.47413 0.64482 0.58062 0.0
H133 H 0.43371 0.5825 0.58709 0.0
H134 H 0.47825 0.56386 0.56389 0.0
O135 O 0.35436 0.63665 0.54288 0.0
H136 H 0.38716 0.69319 0.57528 0.0
H137 H 0.34435 0.68466 0.53502 0.0
H138 H 0.51411 0.63604 0.59637 0.0
H139 H 0.39199 0.52491 0.54884 0.0
H140 H 0.53657 0.59051 0.59579 0.0
H141 H 0.39025 0.51014 0.57487 0.0
O142 O 0.45926 0.64825 0.55328 0.0
H143 H 0.40108 0.6473 0.49552 0.0
H144 H 0.40614 0.70846 0.53838 0.0
H145 H 0.41715 0.72648 0.5139 0.0
H146 H 0.41451 0.69588 0.49221 0.0
H147 H 0.39063 0.63006 0.52017 0.0
H148 H 0.31645 0.72521 0.54082 0.0
H149 H 0.32422 0.75028 0.56413 0.0
O150 O 0.4226 0.67438 0.5576 0.0
C151 C 0.39991 0.63447 0.57995 0.0
C152 C 0.35634 0.7233 0.57122 0.0
C153 C 0.33194 0.71834 0.54844 0.0
N154 N 0.36748 0.6866 0.55478 0.0
C155 C 0.37176 0.7002 0.56766 0.0
C156 C 0.34775 0.69531 0.54525 0.0
C157 C 0.33632 0.7324 0.56152 0.0
C158 C 0.41388 0.56209 0.55371 0.0
N159 N 0.42541 0.5781 0.56431 0.0
C160 C 0.4011 0.53744 0.55731 0.0
C161 C 0.40009 0.52918 0.57192 0.0
C162 C 0.41183 0.5456 0.58269 0.0
C163 C 0.42443 0.57011 0.57867 0.0
C164 C 0.50886 0.57424 0.57968 0.0
C165 C 0.48375 0.62494 0.5803 0.0
C166 C 0.48617 0.57983 0.5709 0.0
N167 N 0.47384 0.60491 0.57131 0.0
C168 C 0.5064 0.62009 0.58925 0.0
C169 C 0.51901 0.59455 0.58891 0.0
C170 C 0.44825 0.67161 0.55532 0.0
C171 C 0.40207 0.66091 0.50487 0.0
C172 C 0.40486 0.69494 0.52903 0.0
C173 C 0.41114 0.70531 0.51517 0.0
C174 C 0.40966 0.68815 0.50302 0.0
N175 N 0.39712 0.66824 0.53078 0.0
C176 C 0.39594 0.65126 0.5189 0.0
Co177 Co 0.65181 0.1898 0.80906 0.0
Co178 Co 0.61505 0.13612 0.79606 0.0
O179 O 0.64803 0.15897 0.79538 0.0
C180 C 0.67501 0.21063 0.78061 0.0
O181 O 0.65712 0.19629 0.77314 0.0
C182 C 0.63779 0.07966 0.79418 0.0
O183 O 0.62647 0.07467 0.80697 0.0
O184 O 0.62352 0.12727 0.81702 0.0
O185 O 0.63017 0.17035 0.82446 0.0
H186 H 0.52903 0.10028 0.81927 0.0
H187 H 0.70105 0.16467 0.79573 0.0
O188 O 0.67455 0.21053 0.79454 0.0
H189 H 0.71493 0.15754 0.84912 0.0
H190 H 0.70161 0.26692 0.83418 0.0
H191 H 0.61351 0.21881 0.82894 0.0
H192 H 0.67345 0.17929 0.83919 0.0
H193 H 0.69738 0.2273 0.81763 0.0
O194 O 0.63726 0.10389 0.78896 0.0
H195 H 0.57029 0.12911 0.81759 0.0
H196 H 0.59017 0.09373 0.77641 0.0
H197 H 0.61691 0.2582 0.8457 0.0
H198 H 0.74303 0.14306 0.80521 0.0
H199 H 0.66121 0.28256 0.84841 0.0
H200 H 0.75015 0.13933 0.83209 0.0
O201 O 0.61744 0.20587 0.80106 0.0
H202 H 0.63886 0.14856 0.74287 0.0
H203 H 0.56553 0.15551 0.7798 0.0
H204 H 0.55583 0.16782 0.75415 0.0
H205 H 0.5926 0.16425 0.73545 0.0
H206 H 0.64784 0.13692 0.76872 0.0
H207 H 0.54919 0.06445 0.77767 0.0
H208 H 0.51826 0.06763 0.79922 0.0
O209 O 0.59171 0.16805 0.80248 0.0
C210 C 0.62607 0.14514 0.82713 0.0
C211 C 0.54235 0.09869 0.80983 0.0
C212 C 0.55366 0.07858 0.78649 0.0
N213 N 0.58267 0.1131 0.79694 0.0
C214 C 0.56576 0.11496 0.80882 0.0
C215 C 0.57686 0.0952 0.78584 0.0
C216 C 0.53632 0.08038 0.79857 0.0
C217 C 0.70411 0.16334 0.80744 0.0
N218 N 0.6849 0.17342 0.81687 0.0
C219 C 0.72788 0.15099 0.81274 0.0
C220 C 0.73185 0.14889 0.82783 0.0
C221 C 0.71211 0.1591 0.83739 0.0
C222 C 0.68862 0.17135 0.83169 0.0
C223 C 0.68219 0.25648 0.8331 0.0
C224 C 0.63288 0.22923 0.83008 0.0
C225 C 0.67964 0.23408 0.8237 0.0
N226 N 0.65522 0.22069 0.82232 0.0
C227 C 0.63467 0.25156 0.83958 0.0
C228 C 0.65952 0.26523 0.84108 0.0
C229 C 0.59412 0.19405 0.80143 0.0
C230 C 0.62265 0.15014 0.75091 0.0
C231 C 0.58175 0.15416 0.77178 0.0
C232 C 0.57608 0.16103 0.75724 0.0
C233 C 0.5967 0.15899 0.74676 0.0
N234 N 0.60726 0.14547 0.77578 0.0
C235 C 0.62758 0.14345 0.76556 0.0
Co236 Co 0.06981 0.61304 0.46281 0.0
Co237 Co 0.12456 0.65292 0.47256 0.0
O238 O 0.10181 0.62019 0.47517 0.0
C239 C 0.05456 0.59136 0.49287 0.0
O240 O 0.07537 0.60369 0.49907 0.0
C241 C 0.18127 0.62972 0.47308 0.0
O242 O 0.18565 0.64076 0.46016 0.0
O243 O 0.13054 0.64306 0.45139 0.0
O244 O 0.08806 0.62998 0.44558 0.0
H245 H 0.15713 0.73672 0.44593 0.0
H246 H 0.09823 0.56841 0.47898 0.0
O247 O 0.04963 0.59474 0.47929 0.0
H248 H 0.0967 0.53851 0.42741 0.0
H249 H 0.99042 0.55792 0.44349 0.0
H250 H 0.03957 0.64585 0.44081 0.0
H251 H 0.07606 0.58239 0.43464 0.0
H252 H 0.0313 0.56605 0.45867 0.0
O253 O 0.15747 0.63087 0.4788 0.0
H254 H 0.12842 0.69588 0.44983 0.0
H255 H 0.16997 0.67897 0.48968 0.0
H256 H 0.99893 0.63846 0.42534 0.0
H257 H 0.11869 0.5242 0.47229 0.0
H258 H 0.97404 0.59424 0.42662 0.0
H259 H 0.11808 0.50893 0.44633 0.0
O260 O 0.05427 0.64927 0.46839 0.0
H261 H 0.12012 0.63322 0.52661 0.0
H262 H 0.10882 0.70388 0.48864 0.0
H263 H 0.10032 0.71567 0.51449 0.0
H264 H 0.10611 0.6802 0.53372 0.0
H265 H 0.12778 0.62222 0.50057 0.0
H266 H 0.19916 0.71956 0.48619 0.0
H267 H 0.19282 0.74878 0.46419 0.0
O268 O 0.09175 0.67579 0.46701 0.0
C269 C 0.11219 0.63699 0.44195 0.0
C270 C 0.1601 0.72415 0.45556 0.0
C271 C 0.18369 0.71452 0.47815 0.0
N272 N 0.14751 0.68502 0.46995 0.0
C273 C 0.1439 0.701 0.45783 0.0
C274 C 0.1671 0.69154 0.48006 0.0
C275 C 0.18012 0.7309 0.46581 0.0
C276 C 0.0975 0.56188 0.4677 0.0
N277 N 0.08555 0.57796 0.45726 0.0
C278 C 0.1093 0.53682 0.46396 0.0
C279 C 0.109 0.52829 0.44939 0.0
C280 C 0.09702 0.54487 0.43877 0.0
C281 C 0.08542 0.56979 0.44293 0.0
C282 C 1.00109 0.57729 0.44284 0.0
C283 C 0.02892 0.62651 0.44141 0.0
C284 C 0.02419 0.58206 0.45146 0.0
N285 N 0.03788 0.60641 0.45063 0.0
C286 C 1.00589 0.62246 0.43263 0.0
C287 C 0.99192 0.59766 0.43337 0.0
C288 C 0.06575 0.67274 0.46761 0.0
C289 C 0.11744 0.64884 0.51833 0.0
C290 C 0.1108 0.68822 0.49687 0.0
C291 C 0.10624 0.69507 0.51153 0.0
C292 C 0.10955 0.67519 0.52231 0.0
N293 N 0.11838 0.66229 0.49302 0.0
C294 C 0.12181 0.64276 0.50356 0.0
Co295 Co 0.64522 0.81724 0.71032 0.0
Co296 Co 0.6038 0.87138 0.71817 0.0
O297 O 0.63698 0.84983 0.72225 0.0
C298 C 0.67001 0.80573 0.74017 0.0
O299 O 0.66041 0.82857 0.74568 0.0
C300 C 0.64555 0.91239 0.72992 0.0
O301 O 0.66483 0.89377 0.7303 0.0
O302 O 0.61738 0.87755 0.69779 0.0
O303 O 0.62772 0.83411 0.69262 0.0
H304 H 0.52341 0.89909 0.6873 0.0
H305 H 0.69034 0.84782 0.72546 0.0
O306 O 0.66397 0.79848 0.72717 0.0
H307 H 0.71814 0.84261 0.67368 0.0
H308 H 0.70177 0.73756 0.69264 0.0
H309 H 0.61302 0.78487 0.68894 0.0
H310 H 0.67496 0.82183 0.68186 0.0
H311 H 0.69287 0.77929 0.70702 0.0
O312 O 0.62193 0.90657 0.72483 0.0
H313 H 0.5643 0.87203 0.69356 0.0
H314 H 0.57409 0.91718 0.733 0.0
H315 H 0.62119 0.74335 0.67425 0.0
H316 H 0.73381 0.86843 0.71783 0.0
H317 H 0.66584 0.71939 0.67604 0.0
H318 H 0.74807 0.86603 0.69174 0.0
O319 O 0.60956 0.80123 0.71646 0.0
H320 H 0.61278 0.86424 0.7731 0.0
H321 H 0.55018 0.85503 0.73108 0.0
H322 H 0.53314 0.84584 0.75598 0.0
H323 H 0.56448 0.85056 0.77725 0.0
H324 H 0.62903 0.87286 0.74804 0.0
H325 H 0.53346 0.94488 0.72709 0.0
H326 H 0.50774 0.93583 0.70413 0.0
O327 O 0.58329 0.83755 0.71172 0.0
C328 C 0.62342 0.85873 0.68863 0.0
C329 C 0.5344 0.90319 0.69735 0.0
C330 C 0.54007 0.92891 0.71968 0.0
N331 N 0.57149 0.89288 0.71367 0.0
C332 C 0.55754 0.88789 0.70097 0.0
C333 C 0.56312 0.9132 0.72294 0.0
C334 C 0.52564 0.92381 0.7068 0.0
C335 C 0.6963 0.8463 0.71415 0.0
N336 N 0.67994 0.83332 0.7042 0.0
C337 C 0.72102 0.85819 0.70986 0.0
C338 C 0.72899 0.85688 0.69522 0.0
C339 C 0.71221 0.84377 0.68509 0.0
C340 C 0.68766 0.8321 0.6898 0.0
C341 C 0.68225 0.74784 0.69175 0.0
C342 C 0.63255 0.77466 0.68973 0.0
C343 C 0.67704 0.77144 0.69991 0.0
N344 N 0.65247 0.78464 0.69877 0.0
C345 C 0.63704 0.75111 0.68141 0.0
C346 C 0.66208 0.73766 0.68243 0.0
C347 C 0.58614 0.81203 0.71435 0.0
C348 C 0.59887 0.86226 0.76393 0.0
C349 C 0.56404 0.85709 0.74023 0.0
C350 C 0.55422 0.85189 0.75433 0.0
C351 C 0.57179 0.85454 0.76625 0.0
N352 N 0.59061 0.86484 0.73801 0.0
C353 C 0.60796 0.86728 0.74967 0.0
Co354 Co 0.44032 0.4052 0.96166 0.0
Co355 Co 0.38781 0.36193 0.97013 0.0
O356 O 0.40913 0.39537 0.97429 0.0
C357 C 0.45747 0.42603 0.99193 0.0
O358 O 0.43757 0.41347 0.99886 0.0
C359 C 0.34674 0.40237 0.98309 0.0
O360 O 0.36509 0.42192 0.9836 0.0
O361 O 0.38007 0.37552 0.94982 0.0
O362 O 0.42257 0.38834 0.94418 0.0
H363 H 0.36011 0.2815 0.9392 0.0
H364 H 0.41246 0.44828 0.97915 0.0
O365 O 0.46038 0.42338 0.97814 0.0
H366 H 0.40688 0.47985 0.92797 0.0
H367 H 0.51479 0.46615 0.94171 0.0
H368 H 0.47232 0.37479 0.93937 0.0
H369 H 0.4301 0.43668 0.93404 0.0
H370 H 0.475 0.45499 0.9572 0.0
O371 O 0.35267 0.37916 0.9775 0.0
H372 H 0.3867 0.3228 0.9453 0.0
H373 H 0.34338 0.33102 0.98545 0.0
H374 H 0.51189 0.38518 0.92358 0.0
H375 H 0.38945 0.49181 0.97363 0.0
H376 H 0.53344 0.43114 0.9247 0.0
H377 H 0.38643 0.50787 0.94786 0.0
O378 O 0.45787 0.36962 0.96662 0.0
H379 H 0.39838 0.36965 0.02498 0.0
H380 H 0.40591 0.30837 0.98228 0.0
H381 H 0.41685 0.2908 1.00686 0.0
H382 H 0.41296 0.32146 0.02847 0.0
H383 H 0.38806 0.38647 1.00024 0.0
H384 H 0.31616 0.28996 0.9797 0.0
H385 H 0.32453 0.26482 0.95647 0.0
O386 O 0.42163 0.34247 0.96297 0.0
C387 C 0.39828 0.38218 0.94044 0.0
C388 C 0.35631 0.29224 0.94938 0.0
C389 C 0.33162 0.29701 0.9721 0.0
N390 N 0.36672 0.32927 0.96574 0.0
C391 C 0.37135 0.31562 0.95291 0.0
C392 C 0.34704 0.32032 0.97526 0.0
C393 C 0.33633 0.28291 0.95906 0.0
C394 C 0.41145 0.45511 0.96793 0.0
N395 N 0.42262 0.43975 0.95695 0.0
C396 C 0.39829 0.4798 0.96486 0.0
C397 C 0.39657 0.48878 0.9504 0.0
C398 C 0.408 0.47305 0.93924 0.0
C399 C 0.42098 0.44848 0.94274 0.0
C400 C 0.50561 0.44603 0.94114 0.0
C401 C 0.48154 0.39484 0.93993 0.0
C402 C 0.48316 0.43954 0.94995 0.0
N403 N 0.47135 0.41421 0.94925 0.0
C404 C 0.50396 0.40061 0.93095 0.0
C405 C 0.51605 0.42639 0.93159 0.0
C406 C 0.44734 0.34599 0.96471 0.0
C407 C 0.39994 0.35602 0.01567 0.0
C408 C 0.40414 0.32192 0.99159 0.0
C409 C 0.41036 0.3118 1.00551 0.0
C410 C 0.40818 0.329 0.01762 0.0
N411 N 0.39579 0.3484 0.98975 0.0
C412 C 0.39389 0.36542 1.00159 0.0
Co413 Co 0.87401 0.19444 0.20375 0.0
Co414 Co 0.91341 0.14313 0.21724 0.0
O415 O 0.87881 0.16355 0.2174 0.0
C416 C 0.84666 0.21419 0.23144 0.0
O417 O 0.86681 0.20496 0.23955 0.0
C418 C 0.8703 0.10055 0.22586 0.0
O419 O 0.84996 0.11779 0.22426 0.0
O420 O 0.90732 0.1348 0.19593 0.0
O421 O 0.89925 0.17777 0.18905 0.0
H422 H 1.0043 0.11732 0.19562 0.0
H423 H 0.82521 0.16529 0.21508 0.0
O424 O 0.84766 0.21218 0.21756 0.0
H425 H 0.81907 0.15793 0.16128 0.0
H426 H 0.82048 0.26768 0.17756 0.0
H427 H 0.91168 0.22719 0.18518 0.0
H428 H 0.85712 0.18298 0.17283 0.0
H429 H 0.82637 0.22814 0.19398 0.0
O430 O 0.89471 0.10771 0.22271 0.0
H431 H 0.96091 0.14285 0.19712 0.0
H432 H 0.93912 0.09958 0.23577 0.0
H433 H 0.90666 0.26657 0.16858 0.0
H434 H 0.7866 0.14031 0.20399 0.0
H435 H 0.8608 0.28712 0.16467 0.0
H436 H 0.78341 0.13643 0.17689 0.0
O437 O 0.9059 0.21325 0.21292 0.0
H438 H 0.88313 0.15555 0.26964 0.0
H439 H 0.96113 0.16022 0.23556 0.0
H440 H 0.96806 0.17173 0.26155 0.0
H441 H 0.9289 0.16925 0.27885 0.0
H442 H 0.87704 0.14479 0.24355 0.0
H443 H 0.98208 0.07333 0.23457 0.0
H444 H 0.0151 0.08224 0.21443 0.0
O445 O 0.93461 0.17753 0.21239 0.0
C446 C 0.9044 0.15295 0.18601 0.0
C447 C 0.99009 0.11328 0.20446 0.0
C448 C 0.9776 0.08856 0.2263 0.0
N449 N 0.94751 0.12279 0.21653 0.0
C450 C 0.96552 0.12772 0.20539 0.0
C451 C 0.95323 0.1034 0.22688 0.0
C452 C 0.99613 0.09358 0.21501 0.0
C453 C 0.82392 0.16377 0.20329 0.0
N454 N 0.8435 0.17547 0.19464 0.0
C455 C 0.80202 0.14958 0.19707 0.0
C456 C 0.80024 0.1474 0.18187 0.0
C457 C 0.82024 0.15945 0.1731 0.0
C458 C 0.84181 0.17352 0.17972 0.0
C459 C 0.84058 0.25894 0.17919 0.0
C460 C 0.89164 0.23595 0.18355 0.0
C461 C 0.84407 0.23661 0.18854 0.0
N462 N 0.86937 0.22535 0.19061 0.0
C463 C 0.88893 0.25829 0.17413 0.0
C464 C 0.8632 0.26982 0.17195 0.0
C465 C 0.93007 0.20326 0.21336 0.0
C466 C 0.90041 0.15652 0.26223 0.0
C467 C 0.94394 0.15925 0.24294 0.0
C468 C 0.94802 0.1657 0.25769 0.0
C469 C 0.92606 0.16428 0.26739 0.0
N470 N 0.91876 0.15143 0.23794 0.0
C471 C 0.89712 0.15022 0.24741 0.0
Co472 Co 0.94716 0.61633 0.95951 0.0
Co473 Co 0.89295 0.6588 0.9673 0.0
O474 O 0.91497 0.6259 0.97154 0.0
C475 C 0.96123 0.59649 0.99014 0.0
O476 O 0.93942 0.6078 0.99589 0.0
C477 C 0.8522 0.61672 0.97897 0.0
O478 O 0.87101 0.59765 0.97954 0.0
O479 O 0.88732 0.64582 0.94665 0.0
O480 O 0.9297 0.63155 0.94158 0.0
H481 H 0.86558 0.73955 0.93662 0.0
H482 H 0.91874 0.57312 0.97705 0.0
O483 O 0.96685 0.59981 0.97664 0.0
H484 H 0.91883 0.53892 0.92629 0.0
H485 H 0.02545 0.55709 0.94257 0.0
H486 H 0.97857 0.64562 0.93653 0.0
H487 H 0.94003 0.58315 0.93229 0.0
H488 H 0.98458 0.56806 0.95725 0.0
O489 O 0.85776 0.64018 0.97358 0.0
H490 H 0.89296 0.69895 0.94301 0.0
H491 H 0.84589 0.68747 0.98168 0.0
H492 H 0.01925 0.63536 0.92154 0.0
H493 H 0.89779 0.52862 0.97162 0.0
H494 H 0.04299 0.59082 0.92451 0.0
H495 H 0.8976 0.51118 0.94606 0.0
O496 O 0.96361 0.65267 0.9639 0.0
H497 H 0.89923 0.64833 0.02223 0.0
H498 H 0.90609 0.71267 0.98091 0.0
H499 H 0.9142 0.7293 1.00598 0.0
H500 H 0.91062 0.69705 0.02692 0.0
H501 H 0.89189 0.63258 0.997 0.0
H502 H 0.81783 0.72775 0.97561 0.0
H503 H 0.82769 0.75419 0.95297 0.0
O504 O 0.92684 0.67974 0.96134 0.0
C505 C 0.90574 0.63829 0.93757 0.0
C506 C 0.86114 0.72825 0.94653 0.0
C507 C 0.8343 0.72159 0.9684 0.0
N508 N 0.87118 0.69092 0.96274 0.0
C509 C 0.87663 0.70528 0.95023 0.0
C510 C 0.85021 0.69872 0.97175 0.0
C511 C 0.83986 0.73643 0.95571 0.0
C512 C 0.91909 0.56574 0.96595 0.0
N513 N 0.93077 0.58094 0.95504 0.0
C514 C 0.90703 0.54047 0.96291 0.0
C515 C 0.90688 0.53072 0.94857 0.0
C516 C 0.91875 0.54628 0.93748 0.0
C517 C 0.93062 0.57145 0.94094 0.0
C518 C 0.01528 0.57657 0.94117 0.0
C519 C 0.98871 0.62615 0.93786 0.0
C520 C 0.99217 0.58295 0.94949 0.0
N521 N 0.9791 0.60746 0.94774 0.0
C522 C 0.01177 0.62047 0.92935 0.0
C523 C 0.0251 0.59549 0.93104 0.0
C524 C 0.95273 0.67622 0.96228 0.0
C525 C 0.90082 0.66262 0.01321 0.0
C526 C 0.90489 0.6984 0.98987 0.0
C527 C 0.90931 0.708 1.0041 0.0
C528 C 0.90726 0.68992 0.01583 0.0
N529 N 0.89855 0.67158 0.98733 0.0
C530 C 0.89655 0.65379 0.99883 0.0
Co531 Co 0.14745 0.1998 0.70638 0.0
Co532 Co 0.10464 0.14636 0.71305 0.0
O533 O 0.13832 0.16673 0.71772 0.0
C534 C 0.17143 0.20947 0.73663 0.0
O535 O 0.1612 0.18655 0.74172 0.0
C536 C 0.14523 0.10308 0.72359 0.0
O537 O 0.16596 0.11994 0.72235 0.0
O538 O 0.11876 0.14058 0.69272 0.0
O539 O 0.13 0.18412 0.68831 0.0
H540 H 0.02482 0.12168 0.68099 0.0
H541 H 0.19166 0.16783 0.72136 0.0
O542 O 0.16616 0.21731 0.72362 0.0
H543 H 0.22052 0.17464 0.66979 0.0
H544 H 0.20603 0.27916 0.69022 0.0
H545 H 0.11641 0.23383 0.68528 0.0
H546 H 0.17752 0.19578 0.67799 0.0
H547 H 0.19593 0.23694 0.70395 0.0
O548 O 0.1213 0.11055 0.71969 0.0
H549 H 0.06636 0.14721 0.68788 0.0
H550 H 0.0724 0.10177 0.72741 0.0
H551 H 0.12578 0.27587 0.67124 0.0
H552 H 0.23495 0.14685 0.71371 0.0
H553 H 0.17087 0.29883 0.67366 0.0
H554 H 0.24972 0.15005 0.68772 0.0
O555 O 0.11199 0.21627 0.7126 0.0
H556 H 0.11249 0.15019 0.76802 0.0
H557 H 0.05139 0.16472 0.72579 0.0
H558 H 0.0343 0.17356 0.75074 0.0
H559 H 0.06489 0.16619 0.7721 0.0
H560 H 0.12884 0.14193 0.74289 0.0
H561 H 0.03108 0.07558 0.72089 0.0
H562 H 1.00691 0.08555 0.69756 0.0
O563 O 0.08541 0.18085 0.70666 0.0
C564 C 0.1253 0.15979 0.6839 0.0
C565 C 0.03515 0.11716 0.6912 0.0
C566 C 0.03869 0.09126 0.71358 0.0
N567 N 0.0718 0.12605 0.70804 0.0
C568 C 0.05867 0.13158 0.69516 0.0
C569 C 0.06215 0.10609 0.71718 0.0
C570 C 0.02513 0.09688 0.70049 0.0
C571 C 0.1979 0.16975 0.71011 0.0
N572 N 0.18195 0.18337 0.70023 0.0
C573 C 0.22249 0.15762 0.7058 0.0
C574 C 0.23074 0.15938 0.69122 0.0
C575 C 0.21436 0.17314 0.68116 0.0
C576 C 0.18993 0.18502 0.68588 0.0
C577 C 0.18631 0.26933 0.68906 0.0
C578 C 0.13612 0.24362 0.68635 0.0
C579 C 0.18042 0.24546 0.69685 0.0
N580 N 0.15562 0.23281 0.69537 0.0
C581 C 0.1413 0.26746 0.67839 0.0
C582 C 0.16659 0.28035 0.67977 0.0
C583 C 0.08849 0.20604 0.70999 0.0
C584 C 0.09893 0.1534 0.75881 0.0
C585 C 0.06492 0.16157 0.73499 0.0
C586 C 0.05507 0.16655 0.74912 0.0
C587 C 0.07224 0.16241 0.76109 0.0
N588 N 0.09112 0.15264 0.73283 0.0
C589 C 0.10806 0.14864 0.74453 0.0
Co590 Co 0.57488 0.40578 0.4566 0.0
Co591 Co 0.62966 0.36443 0.46467 0.0
O592 O 0.60753 0.39745 0.46852 0.0
C593 C 0.56186 0.42845 0.48682 0.0
O594 O 0.58481 0.41928 0.49238 0.0
C595 C 0.67045 0.40682 0.47603 0.0
O596 O 0.65165 0.4259 0.47674 0.0
O597 O 0.63498 0.37649 0.44387 0.0
O598 O 0.59217 0.38951 0.4388 0.0
H599 H 0.6573 0.28245 0.43494 0.0
H600 H 0.60423 0.45039 0.47279 0.0
O601 O 0.55539 0.4232 0.47361 0.0
H602 H 0.6005 0.4811 0.42146 0.0
H603 H 0.49499 0.46247 0.43938 0.0
H604 H 0.54333 0.37447 0.43447 0.0
H605 H 0.58009 0.43716 0.4287 0.0
H606 H 0.53649 0.4532 0.45386 0.0
O607 O 0.6648 0.38339 0.47063 0.0
H608 H 0.62979 0.32323 0.44085 0.0
H609 H 0.6768 0.33654 0.47936 0.0
H610 H 0.50204 0.38304 0.41969 0.0
H611 H 0.62444 0.49459 0.46612 0.0
H612 H 0.47756 0.42731 0.42209 0.0
H613 H 0.62278 0.51031 0.44026 0.0
O614 O 0.55898 0.36959 0.4619 0.0
H615 H 0.62314 0.37716 0.51949 0.0
H616 H 0.61664 0.3111 0.47892 0.0
H617 H 0.60859 0.29549 0.50417 0.0
H618 H 0.61198 0.3286 0.52474 0.0
H619 H 0.63047 0.3919 0.4941 0.0
H620 H 0.70499 0.29609 0.47376 0.0
H621 H 0.69522 0.26864 0.45146 0.0
O622 O 0.59599 0.3431 0.45901 0.0
C623 C 0.61622 0.38295 0.43476 0.0
C624 C 0.66171 0.2942 0.44472 0.0
C625 C 0.6885 0.30188 0.46649 0.0
N626 N 0.65154 0.3322 0.46047 0.0
C627 C 0.64615 0.31728 0.44814 0.0
C628 C 0.67252 0.32485 0.46956 0.0
C629 C 0.683 0.28648 0.45398 0.0
C630 C 0.60302 0.457 0.46158 0.0
N631 N 0.59068 0.44102 0.45122 0.0
C632 C 0.6147 0.48212 0.45783 0.0
C633 C 0.61381 0.4909 0.44332 0.0
C634 C 0.60134 0.47452 0.43278 0.0
C635 C 0.58989 0.44953 0.43694 0.0
C636 C 0.50549 0.44311 0.43822 0.0
C637 C 0.53289 0.39384 0.43554 0.0
C638 C 0.52897 0.43769 0.44643 0.0
N639 N 0.54246 0.41334 0.44497 0.0
C640 C 0.50948 0.39855 0.42716 0.0
C641 C 0.49573 0.42338 0.42852 0.0
C642 C 0.57015 0.34616 0.46038 0.0
C643 C 0.62167 0.3625 0.51064 0.0
C644 C 0.61786 0.32574 0.48772 0.0
C645 C 0.61343 0.31672 0.50205 0.0
C646 C 0.61536 0.33528 0.51357 0.0
N647 N 0.62413 0.35247 0.48487 0.0
C648 C 0.62596 0.37075 0.49616 0.0
Co649 Co 0.36833 0.8162 0.20744 0.0
Co650 Co 0.40849 0.86959 0.2184 0.0
O651 O 0.37449 0.84818 0.22026 0.0
C652 C 0.34326 0.79908 0.23652 0.0
O653 O 0.35977 0.81472 0.24414 0.0
C654 C 0.3651 0.91197 0.22689 0.0
O655 O 0.34504 0.89419 0.22616 0.0
O656 O 0.40027 0.87584 0.19711 0.0
O657 O 0.39 0.83283 0.19124 0.0
H658 H 0.49615 0.89586 0.19335 0.0
H659 H 0.3211 0.84442 0.22105 0.0
O660 O 0.34545 0.79761 0.22265 0.0
H661 H 0.30372 0.84809 0.16788 0.0
H662 H 0.31301 0.74054 0.18436 0.0
H663 H 0.40416 0.78309 0.18808 0.0
H664 H 0.34473 0.82509 0.17751 0.0
H665 H 0.32014 0.78121 0.19985 0.0
O666 O 0.38943 0.90499 0.22347 0.0
H667 H 0.45377 0.86929 0.19685 0.0
H668 H 0.4349 0.9154 0.23501 0.0
H669 H 0.39788 0.74261 0.17235 0.0
H670 H 0.27956 0.86728 0.21194 0.0
H671 H 0.35203 0.72101 0.17042 0.0
H672 H 0.27068 0.86934 0.18516 0.0
O673 O 0.40229 0.79894 0.21523 0.0
H674 H 0.38418 0.86279 0.27196 0.0
H675 H 0.45834 0.85516 0.23567 0.0
H676 H 0.46827 0.84656 0.2617 0.0
H677 H 0.43105 0.85055 0.28011 0.0
H678 H 0.3751 0.87055 0.24581 0.0
H679 H 0.47687 0.94268 0.23181 0.0
H680 H 0.50792 0.93288 0.2109 0.0
O681 O 0.43 0.83542 0.21375 0.0
C682 C 0.39572 0.85724 0.1876 0.0
C683 C 0.48282 0.90029 0.20252 0.0
C684 C 0.47197 0.9266 0.22409 0.0
N685 N 0.44189 0.8907 0.21614 0.0
C686 C 0.45882 0.88527 0.20458 0.0
C687 C 0.44815 0.91116 0.2258 0.0
C688 C 0.48939 0.92108 0.21236 0.0
C689 C 0.31737 0.84513 0.2094 0.0
N690 N 0.33553 0.83362 0.19983 0.0
C691 C 0.29381 0.85815 0.2043 0.0
C692 C 0.28886 0.85932 0.18927 0.0
C693 C 0.3074 0.84744 0.17957 0.0
C694 C 0.33073 0.8346 0.18508 0.0
C695 C 0.3331 0.74971 0.18514 0.0
C696 C 0.38415 0.77383 0.18733 0.0
C697 C 0.33731 0.77266 0.19398 0.0
N698 N 0.36259 0.78446 0.19498 0.0
C699 C 0.38071 0.75089 0.17839 0.0
C700 C 0.355 0.73878 0.17731 0.0
C701 C 0.42616 0.80963 0.21499 0.0
C702 C 0.40061 0.86109 0.26406 0.0
C703 C 0.44196 0.8566 0.24353 0.0
C704 C 0.44775 0.85188 0.2583 0.0
C705 C 0.42688 0.85416 0.26862 0.0
N706 N 0.41616 0.86349 0.2391 0.0
C707 C 0.39561 0.86566 0.24919 0.0
Co708 Co 0.93817 0.39986 0.56389 0.0
Co709 Co 0.88731 0.36475 0.54685 0.0
O710 O 0.90965 0.39781 0.5488 0.0
C711 C 0.96477 0.4248 0.53749 0.0
O712 O 0.95559 0.40478 0.52926 0.0
C713 C 0.83098 0.38761 0.54403 0.0
O714 O 0.8244 0.3741 0.55596 0.0
O715 O 0.87538 0.36954 0.56777 0.0
O716 O 0.91698 0.37572 0.57742 0.0
H717 H 0.84967 0.27474 0.56404 0.0
H718 H 0.91366 0.4503 0.5516 0.0
O719 O 0.9601 0.42491 0.5512 0.0
H720 H 0.90022 0.4572 0.60505 0.0
H721 H 0.01089 0.44676 0.5939 0.0
H722 H 0.96451 0.35933 0.58354 0.0
H723 H 0.92379 0.41739 0.59433 0.0
H724 H 0.9739 0.44441 0.57561 0.0
O725 O 0.85582 0.38796 0.53969 0.0
H726 H 0.87815 0.31629 0.56559 0.0
H727 H 0.84778 0.34338 0.52448 0.0
H728 H 1.00123 0.36083 0.60201 0.0
H729 H 0.89015 0.49061 0.56188 0.0
H730 H 0.02472 0.40478 0.6073 0.0
H731 H 0.88326 0.49422 0.58879 0.0
O732 O 0.956 0.36704 0.55527 0.0
H733 H 0.90837 0.3993 0.49624 0.0
H734 H 0.90805 0.31842 0.52844 0.0
H735 H 0.92441 0.31393 0.503 0.0
H736 H 0.92452 0.35456 0.48667 0.0
H737 H 0.89263 0.40293 0.52184 0.0
H738 H 0.81888 0.30222 0.52252 0.0
H739 H 0.81974 0.26752 0.54239 0.0
O740 O 0.91879 0.34047 0.55317 0.0
C741 C 0.89149 0.37122 0.57874 0.0
C742 C 0.84912 0.28971 0.55531 0.0
C743 C 0.83183 0.30513 0.53201 0.0
N744 N 0.86464 0.33225 0.54515 0.0
C745 C 0.8652 0.31327 0.55613 0.0
C746 C 0.84822 0.32842 0.53319 0.0
C747 C 0.83233 0.28567 0.54316 0.0
C748 C 0.91083 0.45178 0.56332 0.0
N749 N 0.92013 0.43153 0.57234 0.0
C750 C 0.89748 0.47464 0.56908 0.0
C751 C 0.89361 0.47665 0.58418 0.0
C752 C 0.90314 0.4559 0.59331 0.0
C753 C 0.91642 0.43337 0.58717 0.0
C754 C 1.00083 0.42748 0.59169 0.0
C755 C 0.97455 0.37856 0.5858 0.0
C756 C 0.97993 0.42599 0.58129 0.0
N757 N 0.967 0.40175 0.57849 0.0
C758 C 0.99537 0.37927 0.59626 0.0
C759 C 0.00855 0.40393 0.59921 0.0
C760 C 0.94481 0.34357 0.55378 0.0
C761 C 0.9084 0.38143 0.50324 0.0
C762 C 0.90836 0.33624 0.52148 0.0
C763 C 0.91748 0.33355 0.50705 0.0
C764 C 0.9175 0.35634 0.49789 0.0
N765 N 0.89947 0.36092 0.52667 0.0
C766 C 0.89942 0.38334 0.51774 0.0
Co767 Co 0.35876 0.18293 0.30168 0.0
Co768 Co 0.40345 0.12933 0.29638 0.0
O769 O 0.37085 0.15039 0.29081 0.0
C770 C 0.34769 0.22478 0.27928 0.0
O771 O 0.36514 0.24055 0.28625 0.0
C772 C 0.36202 0.08645 0.28634 0.0
O773 O 0.34201 0.10428 0.28615 0.0
O774 O 0.3895 0.12569 0.31699 0.0
O775 O 0.37077 0.16696 0.32066 0.0
H776 H 0.48253 0.10615 0.32923 0.0
H777 H 0.31943 0.15634 0.28143 0.0
O778 O 0.34562 0.19967 0.28285 0.0
H779 H 0.27627 0.1508 0.33019 0.0
H780 H 0.2926 0.25788 0.31569 0.0
H781 H 0.38352 0.21771 0.32471 0.0
H782 H 0.32109 0.17299 0.32709 0.0
H783 H 0.30764 0.21709 0.30204 0.0
O784 O 0.38574 0.09343 0.29081 0.0
H785 H 0.4419 0.13216 0.32141 0.0
H786 H 0.43408 0.08189 0.28366 0.0
H787 H 0.36923 0.25851 0.33861 0.0
H788 H 0.27424 0.13456 0.28396 0.0
H789 H 0.32349 0.2789 0.33412 0.0
H790 H 0.2524 0.13151 0.30849 0.0
O791 O 0.39576 0.20013 0.29914 0.0
H792 H 0.39458 0.13057 0.24139 0.0
H793 H 0.45781 0.1419 0.28294 0.0
H794 H 0.47501 0.14778 0.25778 0.0
H795 H 0.44332 0.14193 0.23675 0.0
H796 H 0.37818 0.12541 0.26672 0.0
H797 H 0.47442 0.05514 0.29116 0.0
H798 H 0.49903 0.0673 0.31407 0.0
O799 O 0.42337 0.16379 0.30168 0.0
C800 C 0.37949 0.14409 0.32539 0.0
C801 C 0.47201 0.10067 0.31921 0.0
C802 C 0.46742 0.07201 0.29787 0.0
N803 N 0.43562 0.1086 0.30208 0.0
C804 C 0.44901 0.11536 0.31471 0.0
C805 C 0.44449 0.08715 0.29371 0.0
C806 C 0.48124 0.07886 0.31071 0.0
C807 C 0.31001 0.15534 0.29214 0.0
N808 N 0.32312 0.16578 0.30413 0.0
C809 C 0.28444 0.14286 0.29351 0.0
C810 C 0.27222 0.14112 0.30727 0.0
C811 C 0.28563 0.15187 0.31945 0.0
C812 C 0.31118 0.16419 0.31766 0.0
C813 C 0.31259 0.24919 0.31774 0.0
C814 C 0.3636 0.22647 0.32266 0.0
C815 C 0.32123 0.22607 0.31005 0.0
N816 N 0.34655 0.21505 0.31249 0.0
C817 C 0.35561 0.24956 0.33059 0.0
C818 C 0.32993 0.26099 0.32807 0.0
C819 C 0.41947 0.18957 0.30088 0.0
C820 C 0.40862 0.13308 0.25046 0.0
C821 C 0.44382 0.1396 0.27391 0.0
C822 C 0.45372 0.14281 0.25965 0.0
C823 C 0.43595 0.13949 0.24786 0.0
N824 N 0.41702 0.13313 0.27641 0.0
C825 C 0.39946 0.13004 0.26487 0.0
Co826 Co 0.579 0.61559 0.06186 0.0
Co827 Co 0.63257 0.65222 0.04804 0.0
O828 O 0.60965 0.61929 0.04805 0.0
C829 C 0.56129 0.58692 0.03409 0.0
O830 O 0.58179 0.59759 0.02681 0.0
C831 C 0.68913 0.62938 0.04613 0.0
O832 O 0.69476 0.64178 0.05854 0.0
O833 O 0.64166 0.64508 0.06914 0.0
O834 O 0.59903 0.63706 0.07707 0.0
H835 H 0.66873 0.7396 0.06953 0.0
H836 H 0.60518 0.56637 0.04859 0.0
O837 O 0.5572 0.59321 0.04745 0.0
H838 H 0.61082 0.55251 0.102 0.0
H839 H 0.50163 0.56655 0.08724 0.0
H840 H 0.55129 0.65384 0.08232 0.0
H841 H 0.58922 0.59391 0.09192 0.0
H842 H 0.54085 0.57049 0.07039 0.0
O843 O 0.66463 0.62941 0.04127 0.0
H844 H 0.63984 0.69827 0.06869 0.0
H845 H 0.67488 0.67576 0.02781 0.0
H846 H 0.51232 0.6507 0.09938 0.0
H847 H 0.62655 0.52451 0.0582 0.0
H848 H 0.48717 0.60681 0.10192 0.0
H849 H 0.62954 0.51734 0.0851 0.0
O850 O 0.5629 0.65001 0.05409 0.0
H851 H 0.62011 0.62464 0.99536 0.0
H852 H 0.6139 0.70066 0.03064 0.0
H853 H 0.60137 0.70855 1.00484 0.0
H854 H 0.60456 0.67036 0.98696 0.0
H855 H 0.6319 0.61758 0.02134 0.0
H856 H 0.7042 0.71677 0.02825 0.0
H857 H 0.70121 0.74905 0.04922 0.0
O858 O 0.60066 0.67611 0.05405 0.0
C859 C 0.62416 0.64214 0.07942 0.0
C860 C 0.67023 0.72568 0.06034 0.0
C861 C 0.69014 0.71287 0.03717 0.0
N862 N 0.65568 0.68458 0.04824 0.0
C863 C 0.65393 0.70224 0.05981 0.0
C864 C 0.6735 0.68966 0.037 0.0
C865 C 0.68845 0.73098 0.04894 0.0
C866 C 0.60594 0.56329 0.06028 0.0
N867 N 0.59539 0.5824 0.06963 0.0
C868 C 0.61827 0.53958 0.06568 0.0
C869 C 0.61998 0.53559 0.08077 0.0
C870 C 0.60948 0.55529 0.09025 0.0
C871 C 0.59725 0.57871 0.08446 0.0
C872 C 0.51242 0.58578 0.08622 0.0
C873 C 0.54054 0.63463 0.08339 0.0
C874 C 0.5346 0.58818 0.07666 0.0
N875 N 0.54842 0.61238 0.07537 0.0
C876 C 0.51845 0.63299 0.09306 0.0
C877 C 0.50433 0.60837 0.09447 0.0
C878 C 0.57459 0.67339 0.05384 0.0
C879 C 0.61854 0.64142 1.00305 0.0
C880 C 0.61479 0.68383 0.02303 0.0
C881 C 0.60793 0.68847 0.00838 0.0
C882 C 0.60979 0.66707 0.99835 0.0
N883 N 0.62319 0.65858 0.0276 0.0
C884 C 0.62522 0.63756 0.01779 0.0
Co885 Co 0.15351 0.83489 0.80189 0.0
Co886 Co 0.10841 0.8877 0.79629 0.0
O887 O 0.1415 0.86723 0.79086 0.0
C888 C 0.167 0.79369 0.77951 0.0
O889 O 0.14916 0.77766 0.78602 0.0
C890 C 0.14879 0.93098 0.78551 0.0
O891 O 0.16897 0.91334 0.78513 0.0
O892 O 0.12243 0.89206 0.81687 0.0
O893 O 0.13938 0.85014 0.82064 0.0
H894 H 0.02889 0.90992 0.82909 0.0
H895 H 0.19413 0.86268 0.78286 0.0
O896 O 0.16872 0.81872 0.78334 0.0
H897 H 0.23213 0.86867 0.8328 0.0
H898 H 0.22013 0.76118 0.81697 0.0
H899 H 0.12768 0.79912 0.82417 0.0
H900 H 0.18824 0.84543 0.82837 0.0
H901 H 0.20525 0.80187 0.80321 0.0
O902 O 0.12539 0.92387 0.79044 0.0
H903 H 0.07002 0.88457 0.82135 0.0
H904 H 0.0769 0.93437 0.78339 0.0
H905 H 0.14176 0.7584 0.83816 0.0
H906 H 0.23839 0.88564 0.78676 0.0
H907 H 0.18828 0.73912 0.83459 0.0
H908 H 0.25764 0.88888 0.81189 0.0
O909 O 0.11723 0.8171 0.7984 0.0
H910 H 0.11717 0.88464 0.74128 0.0
H911 H 0.05413 0.87428 0.78303 0.0
H912 H 0.03692 0.86743 0.75796 0.0
H913 H 0.06849 0.8728 0.73682 0.0
H914 H 0.1336 0.89076 0.76652 0.0
H915 H 0.03607 0.96048 0.79082 0.0
H916 H 0.01167 0.94821 0.81378 0.0
O917 O 0.0891 0.85281 0.8018 0.0
C918 C 0.13144 0.8733 0.82536 0.0
C919 C 0.03932 0.91544 0.81905 0.0
C920 C 0.04338 0.94385 0.79759 0.0
N921 N 0.07585 0.90791 0.80192 0.0
C922 C 0.06259 0.90111 0.81459 0.0
C923 C 0.06659 0.92908 0.79348 0.0
C924 C 0.02969 0.93693 0.81046 0.0
C925 C 0.20242 0.8638 0.79382 0.0
N926 N 0.18842 0.85283 0.80538 0.0
C927 C 0.22747 0.87693 0.79597 0.0
C928 C 0.23824 0.87877 0.81007 0.0
C929 C 0.22391 0.86749 0.8218 0.0
C930 C 0.19892 0.85453 0.81924 0.0
C931 C 0.1998 0.76938 0.81863 0.0
C932 C 0.14794 0.79086 0.82252 0.0
C933 C 0.19125 0.79244 0.81087 0.0
N934 N 0.16553 0.80286 0.81282 0.0
C935 C 0.15581 0.7678 0.8305 0.0
C936 C 0.18192 0.757 0.8285 0.0
C937 C 0.0934 0.82714 0.80047 0.0
C938 C 0.10317 0.88236 0.7504 0.0
C939 C 0.06808 0.87639 0.77396 0.0
C940 C 0.05817 0.87263 0.75975 0.0
C941 C 0.07588 0.87567 0.7479 0.0
N942 N 0.09484 0.88315 0.77636 0.0
C943 C 0.11234 0.88595 0.76477 0.0
Co944 Co 0.56761 0.90424 0.55798 0.0
Co945 Co 0.62157 0.86323 0.54944 0.0
O946 O 0.5994 0.89589 0.54573 0.0
C947 C 0.5534 0.92508 0.52769 0.0
O948 O 0.57457 0.91277 0.52183 0.0
C949 C 0.6784 0.88565 0.54653 0.0
O950 O 0.68388 0.87673 0.55979 0.0
O951 O 0.62883 0.87655 0.56986 0.0
O952 O 0.58583 0.8881 0.57555 0.0
H953 H 0.65473 0.78369 0.57938 0.0
H954 H 0.59751 0.94731 0.54126 0.0
O955 O 0.54773 0.92181 0.54119 0.0
H956 H 0.59434 0.98079 0.59217 0.0
H957 H 0.48844 0.96086 0.57626 0.0
H958 H 0.53706 0.8729 0.58046 0.0
H959 H 0.57326 0.93678 0.58558 0.0
H960 H 0.52934 0.95165 0.56125 0.0
O961 O 0.65419 0.88358 0.54146 0.0
H962 H 0.62636 0.82417 0.5741 0.0
H963 H 0.66531 0.83365 0.53278 0.0
H964 H 0.49642 0.88141 0.59579 0.0
H965 H 0.61842 0.99162 0.5473 0.0
H966 H 0.4718 0.92566 0.59374 0.0
H967 H 0.617 0.00869 0.57293 0.0
O968 O 0.55181 0.86788 0.5528 0.0
H969 H 0.61369 0.87278 0.4947 0.0
H970 H 0.60284 0.81012 0.53662 0.0
H971 H 0.59229 0.79378 0.51171 0.0
H972 H 0.59781 0.82516 0.49052 0.0
H973 H 0.6236 0.88842 0.51982 0.0
H974 H 0.69413 0.7933 0.53764 0.0
H975 H 0.68893 0.76801 0.56108 0.0
O976 O 0.58894 0.84207 0.55678 0.0
C977 C 0.61036 0.88261 0.57925 0.0
C978 C 0.6572 0.79454 0.56913 0.0
C979 C 0.67932 0.79994 0.5457 0.0
N980 N 0.64419 0.83131 0.55317 0.0
C981 C 0.6412 0.81749 0.56608 0.0
C982 C 0.66295 0.82279 0.54303 0.0
C983 C 0.67638 0.78576 0.55886 0.0
C984 C 0.59639 0.95462 0.55239 0.0
N985 N 0.58371 0.93946 0.56299 0.0
C986 C 0.60846 0.97973 0.55577 0.0
C987 C 0.60771 0.98928 0.57015 0.0
C988 C 0.59501 0.97364 0.58095 0.0
C989 C 0.58315 0.94863 0.57715 0.0
C990 C 0.499 0.9415 0.57726 0.0
C991 C 0.52655 0.89225 0.57954 0.0
C992 C 0.52212 0.93611 0.56874 0.0
N993 N 0.53569 0.91177 0.57001 0.0
C994 C 0.5035 0.89693 0.58823 0.0
C995 C 0.48968 0.92175 0.58707 0.0
C996 C 0.56315 0.84466 0.55487 0.0
C997 C 0.6112 0.85891 0.50385 0.0
C998 C 0.60499 0.82404 0.5275 0.0
C999 C 0.59913 0.8146 0.5134 0.0
C1000 C 0.60226 0.8322 0.50151 0.0
N1001 N 0.61371 0.8503 0.52972 0.0
C1002 C 0.61685 0.86763 0.51811 0.0
Co1003 Co 0.3621 0.31561 0.80997 0.0
Co1004 Co 0.40469 0.36824 0.8014 0.0
O1005 O 0.371 0.34727 0.79744 0.0
C1006 C 0.3386 0.3005 0.78007 0.0
O1007 O 0.35095 0.32077 0.77336 0.0
C1008 C 0.36436 0.41033 0.78916 0.0
O1009 O 0.34415 0.39267 0.789 0.0
O1010 O 0.39111 0.37588 0.82169 0.0
O1011 O 0.38038 0.33284 0.82731 0.0
H1012 H 0.48549 0.3954 0.83216 0.0
H1013 H 0.31802 0.34503 0.79399 0.0
O1014 O 0.34245 0.29631 0.79368 0.0
H1015 H 0.29018 0.34712 0.84588 0.0
H1016 H 0.30292 0.24007 0.83026 0.0
H1017 H 0.39416 0.28299 0.83128 0.0
H1018 H 0.33269 0.32405 0.83842 0.0
H1019 H 0.31283 0.28047 0.81501 0.0
O1020 O 0.38772 0.40352 0.79422 0.0
H1021 H 0.44388 0.36919 0.82617 0.0
H1022 H 0.43601 0.41223 0.78595 0.0
H1023 H 0.38503 0.24281 0.84683 0.0
H1024 H 0.27513 0.36794 0.80091 0.0
H1025 H 0.33913 0.22104 0.84638 0.0
H1026 H 0.26094 0.3692 0.82704 0.0
O1027 O 0.39726 0.29826 0.8039 0.0
H1028 H 0.39577 0.35867 0.74661 0.0
H1029 H 0.45791 0.34968 0.78884 0.0
H1030 H 0.47476 0.3388 0.76409 0.0
H1031 H 0.44366 0.3434 0.74272 0.0
H1032 H 0.37967 0.36895 0.77154 0.0
H1033 H 0.47737 0.43908 0.79158 0.0
H1034 H 0.50249 0.43065 0.8148 0.0
O1035 O 0.42413 0.33428 0.80839 0.0
C1036 C 0.38492 0.35752 0.83106 0.0
C1037 C 0.47475 0.39922 0.82199 0.0
C1038 C 0.47017 0.42376 0.79923 0.0
N1039 N 0.43756 0.38906 0.80571 0.0
C1040 C 0.4512 0.38441 0.81853 0.0
C1041 C 0.4467 0.40855 0.79613 0.0
C1042 C 0.48427 0.41901 0.81226 0.0
C1043 C 0.31199 0.34524 0.80536 0.0
N1044 N 0.32801 0.33314 0.81576 0.0
C1045 C 0.28767 0.35836 0.80922 0.0
C1046 C 0.27973 0.3591 0.82389 0.0
C1047 C 0.29614 0.34674 0.83446 0.0
C1048 C 0.32031 0.33382 0.83017 0.0
C1049 C 0.32302 0.24934 0.83054 0.0
C1050 C 0.37413 0.27368 0.83102 0.0
C1051 C 0.3288 0.27214 0.82186 0.0
N1052 N 0.35409 0.28408 0.82221 0.0
C1053 C 0.36908 0.2509 0.83985 0.0
C1054 C 0.34333 0.23869 0.83959 0.0
C1055 C 0.42089 0.3088 0.80579 0.0
C1056 C 0.40958 0.35675 0.75582 0.0
C1057 C 0.44417 0.35172 0.77964 0.0
C1058 C 0.45388 0.34555 0.76562 0.0
C1059 C 0.43643 0.34814 0.75365 0.0
N1060 N 0.41784 0.36036 0.7817 0.0
C1061 C 0.40059 0.36273 0.77 0.0
Co1062 Co 0.94421 0.11301 0.0527 0.0
Co1063 Co 0.89066 0.15493 0.04668 0.0
O1064 O 0.91093 0.12179 0.04208 0.0
C1065 C 0.98113 0.09294 0.0291 0.0
O1066 O 0.99943 0.1111 0.03317 0.0
C1067 C 0.83258 0.13446 0.04575 0.0
O1068 O 0.8282 0.14432 0.05894 0.0
O1069 O 0.88667 0.14192 0.06754 0.0
O1070 O 0.93088 0.13166 0.07078 0.0
H1071 H 0.86506 0.23583 0.07774 0.0
H1072 H 0.91171 0.0692 0.03844 0.0
O1073 O 0.9574 0.09312 0.03486 0.0
H1074 H 0.91762 0.04254 0.09046 0.0
H1075 H 0.02143 0.05177 0.06909 0.0
H1076 H 0.9822 0.14453 0.07154 0.0
H1077 H 0.93976 0.08477 0.08171 0.0
H1078 H 0.97865 0.06266 0.05607 0.0
O1079 O 0.85651 0.13534 0.04022 0.0
H1080 H 0.89114 0.19439 0.0713 0.0
H1081 H 0.84527 0.18571 0.03205 0.0
H1082 H 0.02499 0.1345 0.08474 0.0
H1083 H 0.88959 0.02659 0.0467 0.0
H1084 H 0.04491 0.08783 0.08357 0.0
H1085 H 0.89244 0.01302 0.07289 0.0
O1086 O 0.96039 0.14841 0.04586 0.0
H1087 H 0.8925 0.14329 0.99192 0.0
H1088 H 0.90727 0.20775 0.03272 0.0
H1089 H 0.91454 0.22326 1.00733 0.0
H1090 H 0.90699 0.19098 0.98669 0.0
H1091 H 0.8858 0.12849 0.01749 0.0
H1092 H 0.81863 0.227 0.03809 0.0
H1093 H 0.82849 0.25239 0.06108 0.0
O1094 O 0.92504 0.17512 0.05222 0.0
C1095 C 0.90717 0.13693 0.07588 0.0
C1096 C 0.86054 0.22492 0.0677 0.0
C1097 C 0.83449 0.21997 0.04546 0.0
N1098 N 0.86967 0.18754 0.05136 0.0
C1099 C 0.87522 0.20142 0.06401 0.0
C1100 C 0.8496 0.19656 0.04211 0.0
C1101 C 0.84003 0.23421 0.05835 0.0
C1102 C 0.9133 0.06331 0.04982 0.0
N1103 N 0.92734 0.07932 0.05952 0.0
C1104 C 0.90062 0.03921 0.05445 0.0
C1105 C 0.90219 0.03163 0.06915 0.0
C1106 C 0.91631 0.04818 0.07901 0.0
C1107 C 0.92877 0.07211 0.07399 0.0
C1108 C 0.01297 0.07219 0.06968 0.0
C1109 C 0.99073 0.12418 0.07094 0.0
C1110 C 0.98875 0.07849 0.06232 0.0
N1111 N 0.97792 0.10426 0.063 0.0
C1112 C 0.01497 0.11862 0.07846 0.0
C1113 C 0.02613 0.09243 0.0778 0.0
C1114 C 0.9502 0.17196 0.04871 0.0
C1115 C 0.89572 0.15759 1.00081 0.0
C1116 C 0.90401 0.19352 0.02382 0.0
C1117 C 0.90812 0.20246 0.00945 0.0
C1118 C 0.90388 0.18434 0.99788 0.0
N1119 N 0.89576 0.1673 0.02661 0.0
C1120 C 0.89184 0.14936 0.01532 0.0
Co1121 Co 0.15118 0.69961 0.31062 0.0
Co1122 Co 0.10943 0.64543 0.30241 0.0
O1123 O 0.14285 0.66693 0.29871 0.0
C1124 C 0.17444 0.7118 0.28049 0.0
O1125 O 0.16325 0.68984 0.27483 0.0
C1126 C 0.15167 0.60355 0.29198 0.0
O1127 O 0.17154 0.62157 0.29215 0.0
O1128 O 0.1214 0.63992 0.32319 0.0
O1129 O 0.13371 0.68291 0.32829 0.0
H1130 H 0.02692 0.61887 0.33201 0.0
H1131 H 0.19602 0.66985 0.29502 0.0
O1132 O 0.16991 0.71835 0.29377 0.0
H1133 H 0.22429 0.67277 0.34679 0.0
H1134 H 0.20861 0.77864 0.32836 0.0
H1135 H 0.11935 0.73219 0.3321 0.0
H1136 H 0.18103 0.6939 0.339 0.0
H1137 H 0.19924 0.73706 0.31394 0.0
O1138 O 0.12782 0.61006 0.29649 0.0
H1139 H 0.0683 0.64565 0.32625 0.0
H1140 H 0.08046 0.59928 0.2874 0.0
H1141 H 0.12799 0.77359 0.34682 0.0
H1142 H 0.2396 0.64891 0.30227 0.0
H1143 H 0.17289 0.79711 0.345 0.0
H1144 H 0.25406 0.65017 0.32835 0.0
O1145 O 0.11551 0.71596 0.30474 0.0
H1146 H 0.12339 0.65023 0.24771 0.0
H1147 H 0.05673 0.66 0.28783 0.0
H1148 H 0.04198 0.66813 0.26243 0.0
H1149 H 0.0754 0.6631 0.2421 0.0
H1150 H 0.1373 0.64287 0.27327 0.0
H1151 H 0.03941 0.57182 0.29283 0.0
H1152 H 0.01224 0.58163 0.31524 0.0
O1153 O 0.08852 0.67944 0.30801 0.0
C1154 C 0.12787 0.65866 0.33232 0.0
C1155 C 0.03856 0.61443 0.32219 0.0
C1156 C 0.04559 0.58799 0.30022 0.0
N1157 N 0.07676 0.62413 0.30648 0.0
C1158 C 0.06198 0.62956 0.31886 0.0
C1159 C 0.0689 0.60354 0.29724 0.0
C1160 C 0.03035 0.59352 0.31279 0.0
C1161 C 0.20212 0.67084 0.30634 0.0
N1162 N 0.18584 0.68331 0.31651 0.0
C1163 C 0.22687 0.65878 0.31041 0.0
C1164 C 0.23494 0.65944 0.32504 0.0
C1165 C 0.21825 0.67209 0.33538 0.0
C1166 C 0.19365 0.68394 0.3309 0.0
C1167 C 0.18897 0.76855 0.32926 0.0
C1168 C 0.13899 0.74222 0.33129 0.0
C1169 C 0.1835 0.74504 0.32108 0.0
N1170 N 0.15878 0.73209 0.32221 0.0
C1171 C 0.14374 0.7657 0.33963 0.0
C1172 C 0.16893 0.7789 0.3386 0.0
C1173 C 0.0919 0.70517 0.3063 0.0
C1174 C 0.10861 0.65248 0.25646 0.0
C1175 C 0.07151 0.65817 0.27913 0.0
C1176 C 0.06298 0.6626 0.26472 0.0
C1177 C 0.08171 0.65973 0.25332 0.0
N1178 N 0.09794 0.65106 0.28217 0.0
C1179 C 0.11638 0.64821 0.27102 0.0
Co1180 Co 0.57475 0.11755 0.96069 0.0
Co1181 Co 0.62783 0.16137 0.96542 0.0
O1182 O 0.60754 0.12865 0.97144 0.0
C1183 C 0.53582 0.10103 0.98383 0.0
O1184 O 0.51854 0.11895 0.97843 0.0
C1185 C 0.66976 0.1219 0.97799 0.0
O1186 O 0.65152 0.10229 0.9786 0.0
O1187 O 0.63243 0.14527 0.94531 0.0
O1188 O 0.58868 0.13371 0.94202 0.0
H1189 H 0.65055 0.23818 0.93094 0.0
H1190 H 0.60442 0.07507 0.97758 0.0
O1191 O 0.56032 0.10033 0.97907 0.0
H1192 H 0.60505 0.04232 0.92648 0.0
H1193 H 0.49955 0.05279 0.9453 0.0
H1194 H 0.53728 0.14582 0.94019 0.0
H1195 H 0.5823 0.08559 0.93293 0.0
H1196 H 0.54135 0.06612 0.95857 0.0
O1197 O 0.66381 0.14484 0.97208 0.0
H1198 H 0.62507 0.19768 0.93947 0.0
H1199 H 0.67443 0.19373 0.97772 0.0
H1200 H 0.49543 0.13332 0.92672 0.0
H1201 H 0.62701 0.03142 0.97164 0.0
H1202 H 0.47627 0.08651 0.92923 0.0
H1203 H 0.62754 0.01481 0.94591 0.0
O1204 O 0.55779 0.15334 0.96589 0.0
H1205 H 0.62355 0.15917 0.02064 0.0
H1206 H 0.61235 0.21651 0.97665 0.0
H1207 H 0.60487 0.2367 1.00104 0.0
H1208 H 0.61066 0.20803 0.02329 0.0
H1209 H 0.6304 0.13971 0.99609 0.0
H1210 H 0.70062 0.234 0.96951 0.0
H1211 H 0.68864 0.2566 0.946 0.0
O1212 O 0.59288 0.18002 0.95918 0.0
C1213 C 0.61255 0.13835 0.93699 0.0
C1214 C 0.65593 0.22855 0.94122 0.0
C1215 C 0.68406 0.22617 0.96285 0.0
N1216 N 0.64815 0.19339 0.9591 0.0
C1217 C 0.64154 0.20563 0.94612 0.0
C1218 C 0.66922 0.20329 0.96741 0.0
C1219 C 0.67732 0.23886 0.94966 0.0
C1220 C 0.60445 0.06797 0.96637 0.0
N1221 N 0.59223 0.08308 0.95562 0.0
C1222 C 0.61733 0.04324 0.96307 0.0
C1223 C 0.61764 0.03394 0.94863 0.0
C1224 C 0.60507 0.04938 0.93772 0.0
C1225 C 0.59238 0.07401 0.94143 0.0
C1226 C 0.50769 0.07325 0.94411 0.0
C1227 C 0.52907 0.12543 0.94137 0.0
C1228 C 0.53138 0.08093 0.9516 0.0
N1229 N 0.54178 0.10679 0.9502 0.0
C1230 C 0.50537 0.11845 0.9337 0.0
C1231 C 0.49464 0.09218 0.9351 0.0
C1232 C 0.56775 0.17678 0.96272 0.0
C1233 C 0.62125 0.17195 0.01104 0.0
C1234 C 0.61504 0.20386 0.98624 0.0
C1235 C 0.61073 0.21544 1.00005 0.0
C1236 C 0.61396 0.19935 0.01252 0.0
N1237 N 0.62261 0.17704 0.98485 0.0
C1238 C 0.62536 0.16107 0.99705 0.0
Co1239 Co 0.15644 0.33857 0.21373 0.0
Co1240 Co 0.10998 0.39036 0.21861 0.0
O1241 O 0.14367 0.37125 0.22419 0.0
C1242 C 0.17207 0.29988 0.23728 0.0
O1243 O 0.15497 0.28205 0.23161 0.0
C1244 C 0.14998 0.43529 0.22733 0.0
O1245 O 0.17098 0.41897 0.22559 0.0
O1246 O 0.1237 0.39398 0.19796 0.0
O1247 O 0.14193 0.35234 0.19469 0.0
H1248 H 0.02964 0.40884 0.18578 0.0
H1249 H 0.19586 0.36955 0.23206 0.0
O1250 O 0.17223 0.32441 0.23256 0.0
H1251 H 0.23495 0.37103 0.18226 0.0
H1252 H 0.22471 0.26536 0.20004 0.0
H1253 H 0.13149 0.30081 0.19217 0.0
H1254 H 0.19156 0.34721 0.18717 0.0
H1255 H 0.20892 0.30659 0.21305 0.0
O1256 O 0.12595 0.42714 0.22406 0.0
H1257 H 0.07158 0.38508 0.19368 0.0
H1258 H 0.07707 0.43646 0.23111 0.0
H1259 H 0.1465 0.25952 0.17892 0.0
H1260 H 0.23972 0.39299 0.22773 0.0
H1261 H 0.19341 0.24149 0.18283 0.0
H1262 H 0.2595 0.39402 0.20266 0.0
O1263 O 0.1206 0.31999 0.21768 0.0
H1264 H 0.11954 0.39172 0.27351 0.0
H1265 H 0.05652 0.37513 0.23236 0.0
H1266 H 0.04004 0.36916 0.25766 0.0
H1267 H 0.07162 0.37765 0.27849 0.0
H1268 H 0.13526 0.39693 0.24804 0.0
H1269 H 0.03538 0.46097 0.22353 0.0
H1270 H 0.01128 0.44711 0.20075 0.0
O1271 O 0.0917 0.35478 0.21358 0.0
C1272 C 0.13321 0.37506 0.1897 0.0
C1273 C 0.03994 0.41505 0.19574 0.0
C1274 C 0.04319 0.44434 0.21691 0.0
N1275 N 0.07678 0.40933 0.21285 0.0
C1276 C 0.06367 0.40164 0.20028 0.0
C1277 C 0.06688 0.43047 0.2211 0.0
C1278 C 0.02966 0.43654 0.20413 0.0
C1279 C 0.20442 0.36962 0.22114 0.0
N1280 N 0.19094 0.35712 0.20986 0.0
C1281 C 0.22923 0.38307 0.21875 0.0
C1282 C 0.24029 0.38368 0.20467 0.0
C1283 C 0.22649 0.37085 0.19322 0.0
C1284 C 0.20173 0.3576 0.19604 0.0
C1285 C 0.20421 0.27298 0.19826 0.0
C1286 C 0.15191 0.29308 0.19397 0.0
C1287 C 0.19512 0.29633 0.2056 0.0
N1288 N 0.1692 0.30607 0.20346 0.0
C1289 C 0.16031 0.2697 0.18641 0.0
C1290 C 0.18663 0.25961 0.18861 0.0
C1291 C 0.09653 0.32933 0.2154 0.0
C1292 C 0.10556 0.38801 0.26454 0.0
C1293 C 0.07047 0.37854 0.24131 0.0
C1294 C 0.06098 0.37529 0.25565 0.0
C1295 C 0.07869 0.38008 0.26732 0.0
N1296 N 0.09683 0.38643 0.23863 0.0
C1297 C 0.11432 0.39103 0.25005 0.0
Co1298 Co 0.93614 0.90014 0.46133 0.0
Co1299 Co 0.88302 0.85736 0.46855 0.0
O1300 O 0.90306 0.89118 0.47245 0.0
C1301 C 0.97304 0.92252 0.48435 0.0
O1302 O 0.99156 0.90444 0.48048 0.0
C1303 C 0.84038 0.89867 0.47852 0.0
O1304 O 0.85861 0.91832 0.47898 0.0
O1305 O 0.8794 0.86864 0.44745 0.0
O1306 O 0.92323 0.87966 0.44371 0.0
H1307 H 0.86251 0.77276 0.43931 0.0
H1308 H 0.90466 0.94544 0.47498 0.0
O1309 O 0.94924 0.92163 0.47869 0.0
H1310 H 0.90635 0.96645 0.42215 0.0
H1311 H 0.01142 0.96234 0.44335 0.0
H1312 H 0.97438 0.86856 0.44262 0.0
H1313 H 0.92955 0.92546 0.43167 0.0
H1314 H 0.96923 0.95111 0.45687 0.0
O1315 O 0.84671 0.87517 0.47342 0.0
H1316 H 0.88757 0.81497 0.44551 0.0
H1317 H 0.83515 0.82833 0.48197 0.0
H1318 H 0.01661 0.87891 0.42896 0.0
H1319 H 0.88153 0.98688 0.46595 0.0
H1320 H 0.03544 0.92609 0.42927 0.0
H1321 H 0.88219 0.99759 0.43934 0.0
O1322 O 0.95351 0.86585 0.46869 0.0
H1323 H 0.88691 0.87379 0.52314 0.0
H1324 H 0.89465 0.80479 0.48404 0.0
H1325 H 0.90081 0.79086 0.50971 0.0
H1326 H 0.89673 0.82543 0.52953 0.0
H1327 H 0.88147 0.88691 0.49737 0.0
H1328 H 0.80931 0.7865 0.47603 0.0
H1329 H 0.82305 0.75829 0.45461 0.0
O1330 O 0.91836 0.83743 0.46428 0.0
C1331 C 0.89948 0.87384 0.43891 0.0
C1332 C 0.85637 0.78484 0.44869 0.0
C1333 C 0.82647 0.79259 0.46928 0.0
N1334 N 0.86296 0.82406 0.46413 0.0
C1335 C 0.87053 0.80873 0.45228 0.0
C1336 C 0.84111 0.81635 0.47254 0.0
C1337 C 0.83421 0.77675 0.45727 0.0
C1338 C 0.90516 0.94998 0.4634 0.0
N1339 N 0.91837 0.93291 0.4539 0.0
C1340 C 0.89197 0.97348 0.45834 0.0
C1341 C 0.89233 0.97946 0.44341 0.0
C1342 C 0.90586 0.96199 0.43377 0.0
C1343 C 0.91884 0.9387 0.43923 0.0
C1344 C 1.00346 0.94169 0.44315 0.0
C1345 C 0.98245 0.88912 0.44286 0.0
C1346 C 0.97958 0.93519 0.4508 0.0
N1347 N 0.96939 0.90913 0.45063 0.0
C1348 C 1.00637 0.89487 0.43508 0.0
C1349 C 0.01691 0.92135 0.43525 0.0
C1350 C 0.94372 0.84178 0.46695 0.0
C1351 C 0.88851 0.85847 0.51461 0.0
C1352 C 0.89291 0.82004 0.49252 0.0
C1353 C 0.89637 0.81198 0.50708 0.0
C1354 C 0.89408 0.83137 0.51819 0.0
N1355 N 0.88708 0.84661 0.48904 0.0
C1356 C 0.8852 0.86577 0.49992 0.0
Co1357 Co 0.3588 0.6789 0.7137 0.0
Co1358 Co 0.40644 0.62891 0.7181 0.0
O1359 O 0.37257 0.64695 0.72441 0.0
C1360 C 0.34213 0.71759 0.73703 0.0
O1361 O 0.3593 0.73544 0.73144 0.0
C1362 C 0.36882 0.58249 0.72719 0.0
O1363 O 0.34716 0.59654 0.72334 0.0
O1364 O 0.39017 0.62286 0.69826 0.0
O1365 O 0.37401 0.66515 0.69468 0.0
H1366 H 0.48326 0.61024 0.68289 0.0
H1367 H 0.32029 0.64667 0.7319 0.0
O1368 O 0.34218 0.693 0.73236 0.0
H1369 H 0.28191 0.64372 0.68197 0.0
H1370 H 0.28879 0.75 0.69945 0.0
H1371 H 0.38307 0.71699 0.69209 0.0
H1372 H 0.32444 0.669 0.687 0.0
H1373 H 0.30549 0.70939 0.71267 0.0
O1374 O 0.39269 0.59228 0.72515 0.0
H1375 H 0.44132 0.63301 0.6916 0.0
H1376 H 0.44284 0.58573 0.73064 0.0
H1377 H 0.36716 0.75766 0.67861 0.0
H1378 H 0.27732 0.62165 0.72744 0.0
H1379 H 0.31971 0.77445 0.68227 0.0
H1380 H 0.25791 0.61993 0.70231 0.0
O1381 O 0.39403 0.69836 0.71785 0.0
H1382 H 0.40509 0.63059 0.77318 0.0
H1383 H 0.46001 0.65017 0.72907 0.0
H1384 H 0.47953 0.65925 0.75349 0.0
H1385 H 0.45206 0.64933 0.77577 0.0
H1386 H 0.38623 0.62213 0.74853 0.0
H1387 H 0.48466 0.56229 0.72229 0.0
H1388 H 0.50522 0.57458 0.69827 0.0
O1389 O 0.42246 0.66465 0.71135 0.0
C1390 C 0.38103 0.64167 0.68985 0.0
C1391 C 0.47452 0.60472 0.69338 0.0
C1392 C 0.47528 0.57779 0.71548 0.0
N1393 N 0.43964 0.61078 0.71163 0.0
C1394 C 0.45078 0.61758 0.69838 0.0
C1395 C 0.45153 0.59107 0.72013 0.0
C1396 C 0.48682 0.58471 0.70201 0.0
C1397 C 0.31185 0.64627 0.72096 0.0
N1398 N 0.32499 0.65927 0.70972 0.0
C1399 C 0.28756 0.63195 0.71849 0.0
C1400 C 0.27671 0.63095 0.70438 0.0
C1401 C 0.29019 0.64425 0.69297 0.0
C1402 C 0.31443 0.65837 0.69586 0.0
C1403 C 0.30952 0.7429 0.69777 0.0
C1404 C 0.36241 0.72417 0.69377 0.0
C1405 C 0.31912 0.71992 0.70524 0.0
N1406 N 0.34532 0.71085 0.70323 0.0
C1407 C 0.35351 0.74721 0.68609 0.0
C1408 C 0.32688 0.75661 0.68814 0.0
C1409 C 0.41787 0.6897 0.71446 0.0
C1410 C 0.4173 0.63491 0.76355 0.0
C1411 C 0.44786 0.64591 0.7387 0.0
C1412 C 0.45906 0.65103 0.7525 0.0
C1413 C 0.44364 0.64546 0.765 0.0
N1414 N 0.42204 0.63544 0.73736 0.0
C1415 C 0.40675 0.63007 0.74956 0.0
Co1416 Co 0.44787 0.1164 0.45295 0.0
Co1417 Co 0.39445 0.15345 0.466 0.0
O1418 O 0.41707 0.12039 0.46657 0.0
C1419 C 0.46907 0.0926 0.48121 0.0
O1420 O 0.45691 0.11163 0.48899 0.0
C1421 C 0.3377 0.13109 0.46746 0.0
O1422 O 0.33267 0.14301 0.45485 0.0
O1423 O 0.38607 0.14575 0.44478 0.0
O1424 O 0.42914 0.13873 0.43774 0.0
H1425 H 0.35991 0.24039 0.44336 0.0
H1426 H 0.42108 0.06786 0.46604 0.0
O1427 O 0.46783 0.09299 0.46731 0.0
H1428 H 0.41589 0.05351 0.41261 0.0
H1429 H 0.52426 0.06574 0.42762 0.0
H1430 H 0.47775 0.15454 0.43331 0.0
H1431 H 0.43831 0.09451 0.42272 0.0
H1432 H 0.48455 0.07033 0.44408 0.0
O1433 O 0.36198 0.1311 0.47259 0.0
H1434 H 0.3885 0.19895 0.44493 0.0
H1435 H 0.35146 0.17788 0.48551 0.0
H1436 H 0.51721 0.1508 0.41664 0.0
H1437 H 0.39881 0.02633 0.45641 0.0
H1438 H 0.54079 0.10615 0.4137 0.0
H1439 H 0.39603 0.01898 0.42951 0.0
O1440 O 0.46438 0.1504 0.46108 0.0
H1441 H 0.40661 0.12632 0.51872 0.0
H1442 H 0.41175 0.20242 0.48346 0.0
H1443 H 0.42354 0.21066 0.50933 0.0
H1444 H 0.42086 0.17245 0.5272 0.0
H1445 H 0.39552 0.11892 0.49267 0.0
H1446 H 0.3224 0.21899 0.48434 0.0
H1447 H 0.32654 0.25061 0.46315 0.0
O1448 O 0.42688 0.17685 0.46027 0.0
C1449 C 0.40407 0.14266 0.43474 0.0
C1450 C 0.3579 0.22676 0.45264 0.0
C1451 C 0.33685 0.21476 0.47564 0.0
N1452 N 0.37164 0.18597 0.46527 0.0
C1453 C 0.37403 0.20327 0.45359 0.0
C1454 C 0.35334 0.19148 0.47623 0.0
C1455 C 0.33919 0.23249 0.46375 0.0
C1456 C 0.42006 0.06476 0.45432 0.0
N1457 N 0.43095 0.08366 0.44496 0.0
C1458 C 0.40738 0.04122 0.44893 0.0
C1459 C 0.40582 0.03711 0.43384 0.0
C1460 C 0.41694 0.05648 0.42436 0.0
C1461 C 0.4295 0.07975 0.43014 0.0
C1462 C 0.5142 0.08532 0.42883 0.0
C1463 C 0.48785 0.13502 0.43211 0.0
C1464 C 0.49178 0.08809 0.4382 0.0
N1465 N 0.47884 0.11271 0.43973 0.0
C1466 C 0.51022 0.13304 0.42265 0.0
C1467 C 0.52344 0.10799 0.42101 0.0
C1468 C 0.4529 0.17391 0.46103 0.0
C1469 C 0.40786 0.14315 0.51104 0.0
C1470 C 0.41096 0.18562 0.49109 0.0
C1471 C 0.41745 0.19044 0.50577 0.0
C1472 C 0.4159 0.16901 0.51579 0.0
N1473 N 0.40312 0.1602 0.48649 0.0
C1474 C 0.40153 0.1391 0.49627 0.0
Co1475 Co 0.65548 0.68322 0.21369 0.0
Co1476 Co 0.61308 0.62849 0.2183 0.0
O1477 O 0.64594 0.64908 0.22371 0.0
C1478 C 0.67312 0.71962 0.23799 0.0
O1479 O 0.65443 0.73725 0.23381 0.0
C1480 C 0.6546 0.58602 0.22826 0.0
O1481 O 0.67372 0.60465 0.2296 0.0
O1482 O 0.62633 0.62697 0.19743 0.0
O1483 O 0.63802 0.67094 0.19507 0.0
H1484 H 0.53209 0.60826 0.18622 0.0
H1485 H 0.69965 0.65236 0.22866 0.0
O1486 O 0.67405 0.696 0.23208 0.0
H1487 H 0.72823 0.65779 0.17692 0.0
H1488 H 0.7178 0.76122 0.19954 0.0
H1489 H 0.62544 0.72185 0.19453 0.0
H1490 H 0.68522 0.67913 0.18507 0.0
H1491 H 0.706 0.71788 0.21179 0.0
O1492 O 0.63139 0.59224 0.22276 0.0
H1493 H 0.57291 0.63385 0.1942 0.0
H1494 H 0.58409 0.57885 0.22973 0.0
H1495 H 0.63639 0.76523 0.1821 0.0
H1496 H 0.74305 0.63107 0.22101 0.0
H1497 H 0.68286 0.78522 0.18457 0.0
H1498 H 0.75757 0.63363 0.19496 0.0
O1499 O 0.61973 0.69917 0.21994 0.0
H1500 H 0.62416 0.6279 0.2733 0.0
H1501 H 0.55881 0.63744 0.23259 0.0
H1502 H 0.54229 0.64106 0.25797 0.0
H1503 H 0.57503 0.63605 0.27859 0.0
H1504 H 0.63987 0.625 0.24781 0.0
H1505 H 0.54363 0.55248 0.222 0.0
H1506 H 0.51721 0.56724 0.20015 0.0
O1507 O 0.59262 0.66358 0.21432 0.0
C1508 C 0.63252 0.64767 0.18952 0.0
C1509 C 0.54339 0.60167 0.19578 0.0
C1510 C 0.5499 0.57033 0.21584 0.0
N1511 N 0.58082 0.60798 0.21246 0.0
C1512 C 0.56648 0.61613 0.20038 0.0
C1513 C 0.5729 0.58528 0.22012 0.0
C1514 C 0.53507 0.57863 0.20359 0.0
C1515 C 0.70584 0.65366 0.21731 0.0
N1516 N 0.68975 0.66686 0.20733 0.0
C1517 C 0.73043 0.64152 0.21304 0.0
C1518 C 0.73856 0.64294 0.19842 0.0
C1519 C 0.72209 0.65646 0.18829 0.0
C1520 C 0.69764 0.66837 0.19297 0.0
C1521 C 0.69746 0.75274 0.1984 0.0
C1522 C 0.64567 0.73044 0.19572 0.0
C1523 C 0.69064 0.72821 0.20533 0.0
N1524 N 0.66496 0.71738 0.20398 0.0
C1525 C 0.65177 0.755 0.18862 0.0
C1526 C 0.67785 0.7662 0.19 0.0
C1527 C 0.59612 0.6889 0.2174 0.0
C1528 C 0.60965 0.6299 0.26441 0.0
C1529 C 0.57327 0.63536 0.24142 0.0
C1530 C 0.56375 0.63735 0.25582 0.0
C1531 C 0.5821 0.63454 0.26738 0.0
N1532 N 0.60028 0.63048 0.23854 0.0
C1533 C 0.61842 0.62806 0.24987 0.0
Co1534 Co 0.08632 0.90285 0.95977 0.0
Co1535 Co 0.13881 0.85741 0.9649 0.0
O1536 O 0.11888 0.89066 0.97047 0.0
C1537 C 0.04651 0.91698 0.98285 0.0
O1538 O 0.02942 0.90001 0.97646 0.0
C1539 C 0.18256 0.89817 0.97433 0.0
O1540 O 0.16559 0.91876 0.97304 0.0
O1541 O 0.1428 0.87153 0.94434 0.0
O1542 O 0.10077 0.8885 0.94086 0.0
H1543 H 0.15972 0.7778 0.93194 0.0
H1544 H 0.11496 0.9436 0.97841 0.0
O1545 O 0.07126 0.91817 0.97852 0.0
H1546 H 0.11923 0.98107 0.92831 0.0
H1547 H 0.0124 0.96993 0.94561 0.0
H1548 H 0.04954 0.8773 0.93789 0.0
H1549 H 0.09612 0.93724 0.9331 0.0
H1550 H 0.05354 0.95477 0.95889 0.0
O1551 O 0.17511 0.87411 0.97064 0.0
H1552 H 0.13493 0.81919 0.93982 0.0
H1553 H 0.18533 0.82539 0.97758 0.0
H1554 H 1.00835 0.89166 0.92439 0.0
H1555 H 0.13771 0.98784 0.97415 0.0
H1556 H 0.98948 0.93827 0.92821 0.0
H1557 H 0.14012 1.00681 0.94894 0.0
O1558 O 0.06835 0.8668 0.96355 0.0
H1559 H 0.13808 0.86639 0.01986 0.0
H1560 H 0.1247 0.80341 0.97835 0.0
H1561 H 0.11831 0.78649 1.00352 0.0
H1562 H 0.12518 0.81805 0.02454 0.0
H1563 H 0.14373 0.88254 0.9945 0.0
H1564 H 0.21087 0.78428 0.97002 0.0
H1565 H 0.19801 0.7601 0.94709 0.0
O1566 O 0.10364 0.83841 0.95959 0.0
C1567 C 0.12387 0.88062 0.93598 0.0
C1568 C 0.16549 0.78814 0.94197 0.0
C1569 C 0.19423 0.7918 0.96332 0.0
N1570 N 0.15861 0.82469 0.95916 0.0
C1571 C 0.15149 0.81155 0.9465 0.0
C1572 C 0.17978 0.81517 0.96751 0.0
C1573 C 0.18699 0.77823 0.95046 0.0
C1574 C 0.11566 0.95178 0.96742 0.0
N1575 N 0.10433 0.93764 0.95601 0.0
C1576 C 0.1287 0.97682 0.96507 0.0
C1577 C 0.13008 0.98743 0.95092 0.0
C1578 C 0.11842 0.97297 0.93934 0.0
C1579 C 0.10555 0.948 0.9421 0.0
C1580 C 0.02042 0.94956 0.94384 0.0
C1581 C 0.04145 0.8976 0.93965 0.0
C1582 C 0.04374 0.94085 0.95133 0.0
N1583 N 0.05393 0.91509 0.94923 0.0
C1584 C 0.01813 0.90563 0.93195 0.0
C1585 C 1.00756 0.93179 0.9341 0.0
C1586 C 0.07807 0.8429 0.96128 0.0
C1587 C 0.13507 0.85242 0.0108 0.0
C1588 C 0.12738 0.81735 0.98737 0.0
C1589 C 0.12391 0.80761 1.00164 0.0
C1590 C 0.1278 0.82531 0.01342 0.0
N1591 N 0.13462 0.84394 0.98486 0.0
C1592 C 0.13835 0.86143 0.99638 0.0
Co1593 Co 0.85907 0.32828 0.70459 0.0
Co1594 Co 0.89615 0.38071 0.71854 0.0
O1595 O 0.86284 0.35839 0.71866 0.0
C1596 C 0.83732 0.30293 0.73234 0.0
O1597 O 0.85899 0.31076 0.73973 0.0
C1598 C 0.87398 0.43733 0.72116 0.0
O1599 O 0.88555 0.44281 0.70849 0.0
O1600 O 0.88819 0.39076 0.69765 0.0
O1601 O 0.88144 0.34805 0.68958 0.0
H1602 H 0.98317 0.41662 0.69645 0.0
H1603 H 0.81014 0.35427 0.71774 0.0
O1604 O 0.8354 0.30792 0.71871 0.0
H1605 H 0.79681 0.36122 0.6643 0.0
H1606 H 0.8092 0.25224 0.67854 0.0
H1607 H 0.89744 0.29973 0.68458 0.0
H1608 H 0.83795 0.33906 0.67439 0.0
H1609 H 0.81341 0.29121 0.69552 0.0
O1610 O 0.87423 0.41286 0.72606 0.0
H1611 H 0.94147 0.38828 0.69741 0.0
H1612 H 0.92112 0.42169 0.73899 0.0
H1613 H 0.89405 0.261 0.66739 0.0
H1614 H 0.76857 0.37647 0.70811 0.0
H1615 H 0.84968 0.23696 0.66427 0.0
H1616 H 0.76172 0.38008 0.68121 0.0
O1617 O 0.89294 0.31138 0.71272 0.0
H1618 H 0.87026 0.36361 0.77104 0.0
H1619 H 0.94521 0.36045 0.7349 0.0
H1620 H 0.95392 0.34596 0.76034 0.0
H1621 H 0.91631 0.34758 0.77864 0.0
H1622 H 0.86234 0.37762 0.74543 0.0
H1623 H 0.96252 0.45047 0.73845 0.0
H1624 H 0.99391 0.44801 0.71707 0.0
O1625 O 0.91923 0.34882 0.71178 0.0
C1626 C 0.88543 0.37342 0.68729 0.0
C1627 C 0.96965 0.41788 0.70583 0.0
C1628 C 0.95806 0.43688 0.72939 0.0
N1629 N 0.92885 0.40333 0.71823 0.0
C1630 C 0.946 0.40189 0.70643 0.0
C1631 C 0.93463 0.42056 0.72963 0.0
C1632 C 0.97566 0.43549 0.7174 0.0
C1633 C 0.80726 0.3557 0.70602 0.0
N1634 N 0.82644 0.34535 0.69665 0.0
C1635 C 0.78369 0.36831 0.70063 0.0
C1636 C 0.77986 0.37033 0.68553 0.0
C1637 C 0.79952 0.35975 0.67604 0.0
C1638 C 0.82281 0.34726 0.68183 0.0
C1639 C 0.82864 0.26256 0.6798 0.0
C1640 C 0.87803 0.28947 0.68326 0.0
C1641 C 0.83119 0.28459 0.68945 0.0
N1642 N 0.85564 0.29785 0.69102 0.0
C1643 C 0.87625 0.2675 0.67352 0.0
C1644 C 0.85136 0.254 0.67179 0.0
C1645 C 0.91644 0.32284 0.71265 0.0
C1646 C 0.88684 0.3629 0.76319 0.0
C1647 C 0.92868 0.3611 0.74277 0.0
C1648 C 0.93377 0.35294 0.75718 0.0
C1649 C 0.91267 0.35387 0.76744 0.0
N1650 N 0.90331 0.37004 0.73869 0.0
C1651 C 0.8825 0.3709 0.74868 0.0
Co1652 Co 0.44816 0.90337 0.05571 0.0
Co1653 Co 0.39469 0.86008 0.04819 0.0
O1654 O 0.41548 0.89381 0.04409 0.0
C1655 C 0.45978 0.92564 0.02522 0.0
O1656 O 0.43786 0.91425 0.01962 0.0
C1657 C 0.3517 0.90147 0.0382 0.0
O1658 O 0.36925 0.92174 0.03846 0.0
O1659 O 0.38954 0.87206 0.06902 0.0
O1660 O 0.43201 0.88668 0.07367 0.0
H1661 H 0.37058 0.77747 0.07828 0.0
H1662 H 0.41741 0.94673 0.03946 0.0
O1663 O 0.46637 0.92137 0.03851 0.0
H1664 H 0.42035 0.9782 0.0907 0.0
H1665 H 0.52604 0.96343 0.07236 0.0
H1666 H 0.48161 0.87341 0.07754 0.0
H1667 H 0.44216 0.93489 0.08356 0.0
H1668 H 0.48454 0.9524 0.05823 0.0
O1669 O 0.3588 0.87768 0.04249 0.0
H1670 H 0.39638 0.81927 0.07216 0.0
H1671 H 0.34876 0.82996 0.03366 0.0
H1672 H 0.52293 0.88371 0.09199 0.0
H1673 H 0.39583 0.99037 0.04603 0.0
H1674 H 0.54545 0.929 0.08944 0.0
H1675 H 0.39707 1.00644 0.07184 0.0
O1676 O 0.46526 0.86766 0.0504 0.0
H1677 H 0.39744 0.87343 0.99343 0.0
H1678 H 0.41016 0.80757 0.03365 0.0
H1679 H 0.41779 0.79268 0.00821 0.0
H1680 H 0.41127 0.82569 0.98783 0.0
H1681 H 0.39058 0.8875 0.01902 0.0
H1682 H 0.32226 0.78846 0.03945 0.0
H1683 H 0.3332 0.76182 0.06187 0.0
O1684 O 0.42919 0.84003 0.0536 0.0
C1685 C 0.40832 0.87938 0.07794 0.0
C1686 C 0.36565 0.78888 0.06846 0.0
C1687 C 0.3385 0.79507 0.04669 0.0
N1688 N 0.37416 0.82704 0.05255 0.0
C1689 C 0.38022 0.81254 0.06493 0.0
C1690 C 0.35351 0.81864 0.0435 0.0
C1691 C 0.34466 0.78012 0.05926 0.0
C1692 C 0.41842 0.95354 0.05066 0.0
N1693 N 0.43125 0.93807 0.06106 0.0
C1694 C 0.40598 0.97831 0.05435 0.0
C1695 C 0.40663 0.98729 0.06883 0.0
C1696 C 0.41965 0.97145 0.07941 0.0
C1697 C 0.43186 0.94679 0.07531 0.0
C1698 C 0.51642 0.94362 0.07357 0.0
C1699 C 0.49121 0.8932 0.0764 0.0
C1700 C 0.49296 0.9372 0.06554 0.0
N1701 N 0.48058 0.91228 0.06706 0.0
C1702 C 0.51464 0.8989 0.0846 0.0
C1703 C 0.52728 0.9243 0.08316 0.0
C1704 C 0.45489 0.8439 0.05211 0.0
C1705 C 0.40032 0.85883 1.0022 0.0
C1706 C 0.40765 0.82217 0.02492 0.0
C1707 C 0.41182 0.81356 0.01049 0.0
C1708 C 0.40812 0.83207 0.99907 0.0
N1709 N 0.39997 0.84845 0.02795 0.0
C1710 C 0.39634 0.86668 0.01677 0.0
Co1711 Co 0.8664 0.69765 0.80724 0.0
Co1712 Co 0.90744 0.64389 0.79749 0.0
O1713 O 0.87406 0.66591 0.79449 0.0
C1714 C 0.8411 0.71339 0.77781 0.0
O1715 O 0.85203 0.69261 0.77085 0.0
C1716 C 0.86464 0.60305 0.78653 0.0
O1717 O 0.84543 0.62175 0.78623 0.0
O1718 O 0.89649 0.63734 0.81842 0.0
O1719 O 0.88522 0.68019 0.82414 0.0
H1720 H 0.99142 0.61596 0.82541 0.0
H1721 H 0.82079 0.66934 0.79175 0.0
O1722 O 0.84638 0.71756 0.79129 0.0
H1723 H 0.79588 0.66667 0.84404 0.0
H1724 H 0.80926 0.77378 0.82853 0.0
H1725 H 0.89983 0.72951 0.82836 0.0
H1726 H 0.83842 0.68904 0.83604 0.0
H1727 H 0.81792 0.73342 0.81303 0.0
O1728 O 0.88841 0.60881 0.79145 0.0
H1729 H 0.95007 0.64332 0.82052 0.0
H1730 H 0.93479 0.59748 0.78181 0.0
H1731 H 0.89197 0.76966 0.84413 0.0
H1732 H 0.77785 0.64718 0.79921 0.0
H1733 H 0.84642 0.79211 0.84428 0.0
H1734 H 0.76511 0.64562 0.82555 0.0
O1735 O 0.90165 0.71449 0.80103 0.0
H1736 H 0.89106 0.65314 0.7431 0.0
H1737 H 0.95986 0.65756 0.78241 0.0
H1738 H 0.97378 0.66678 0.75698 0.0
H1739 H 0.93928 0.66444 0.73705 0.0
H1740 H 0.87802 0.64462 0.76867 0.0
H1741 H 0.97576 0.56944 0.78639 0.0
H1742 H 1.00449 0.5787 0.80828 0.0
O1743 O 0.92884 0.67773 0.80313 0.0
C1744 C 0.89088 0.65581 0.82785 0.0
C1745 C 0.97911 0.61178 0.81581 0.0
C1746 C 0.97029 0.58564 0.79393 0.0
N1747 N 0.94009 0.62215 0.80085 0.0
C1748 C 0.95571 0.62726 0.81296 0.0
C1749 C 0.94703 0.60153 0.79143 0.0
C1750 C 0.98641 0.59086 0.8062 0.0
C1751 C 0.81542 0.66903 0.8032 0.0
N1752 N 0.83227 0.68059 0.81341 0.0
C1753 C 0.79105 0.65632 0.80738 0.0
C1754 C 0.78393 0.65541 0.82215 0.0
C1755 C 0.80119 0.66718 0.83253 0.0
C1756 C 0.82538 0.67971 0.82793 0.0
C1757 C 0.82922 0.76422 0.82854 0.0
C1758 C 0.87995 0.73914 0.82834 0.0
C1759 C 0.8343 0.74144 0.81971 0.0
N1760 N 0.85941 0.72914 0.8197 0.0
C1761 C 0.87562 0.76188 0.83731 0.0
C1762 C 0.85006 0.77448 0.83738 0.0
C1763 C 0.92534 0.7036 0.80203 0.0
C1764 C 0.90633 0.65413 0.75167 0.0
C1765 C 0.94464 0.65675 0.77389 0.0
C1766 C 0.95269 0.66186 0.75946 0.0
C1767 C 0.93335 0.66052 0.74829 0.0
N1768 N 0.91811 0.65036 0.77717 0.0
C1769 C 0.89906 0.64915 0.76624 0.0
Co1770 Co 0.07786 0.11665 0.551 0.0
Co1771 Co 0.1296 0.16239 0.54426 0.0
O1772 O 0.10946 0.12884 0.53949 0.0
C1773 C 0.03669 0.10078 0.52889 0.0
O1774 O 0.01961 0.11749 0.53548 0.0
C1775 C 0.17223 0.12199 0.53315 0.0
O1776 O 0.15422 0.10214 0.53299 0.0
O1777 O 0.13495 0.14934 0.56492 0.0
O1778 O 0.09341 0.13195 0.56944 0.0
H1779 H 0.15177 0.24383 0.57568 0.0
H1780 H 0.10562 0.0755 0.53222 0.0
O1781 O 0.06174 0.10038 0.53274 0.0
H1782 H 0.11404 0.04013 0.5826 0.0
H1783 H 1.00598 0.04916 0.56754 0.0
H1784 H 0.04226 0.14264 0.57329 0.0
H1785 H 0.08993 0.08337 0.57781 0.0
H1786 H 0.04588 0.06434 0.55319 0.0
O1787 O 0.16577 0.14553 0.53815 0.0
H1788 H 0.12665 0.20204 0.56876 0.0
H1789 H 0.17575 0.19357 0.53059 0.0
H1790 H 1.0023 0.12826 0.58786 0.0
H1791 H 0.1294 0.03185 0.53649 0.0
H1792 H 0.98387 0.08122 0.58502 0.0
H1793 H 0.13389 0.01392 0.56184 0.0
O1794 O 0.05924 0.15238 0.54719 0.0
H1795 H 0.12424 0.15205 0.48934 0.0
H1796 H 0.11438 0.21586 0.53079 0.0
H1797 H 0.10628 0.23235 0.50569 0.0
H1798 H 0.1114 0.2004 0.4847 0.0
H1799 H 0.13164 0.13633 0.51459 0.0
H1800 H 0.20158 0.23508 0.53719 0.0
H1801 H 0.18955 0.2606 0.55984 0.0
O1802 O 0.09459 0.18124 0.55 0.0
C1803 C 0.1166 0.14064 0.57377 0.0
C1804 C 0.15716 0.23293 0.56576 0.0
C1805 C 0.18514 0.22799 0.54417 0.0
N1806 N 0.1496 0.19543 0.54925 0.0
C1807 C 0.14296 0.20929 0.56177 0.0
C1808 C 0.17051 0.20442 0.54053 0.0
C1809 C 0.17837 0.24231 0.55688 0.0
C1810 C 0.1073 0.06782 0.54328 0.0
N1811 N 0.09658 0.08224 0.55476 0.0
C1812 C 0.12089 0.04309 0.54563 0.0
C1813 C 0.12343 0.03307 0.55986 0.0
C1814 C 0.11236 0.04779 0.57151 0.0
C1815 C 0.09892 0.07244 0.56874 0.0
C1816 C 0.01381 0.06971 0.56887 0.0
C1817 C 0.03435 0.12215 0.57196 0.0
C1818 C 0.03643 0.07844 0.56078 0.0
N1819 N 0.04639 0.10443 0.56234 0.0
C1820 C 0.01173 0.11411 0.58026 0.0
C1821 C 1.00141 0.08771 0.57867 0.0
C1822 C 0.06894 0.17645 0.54896 0.0
C1823 C 0.12214 0.16623 0.49839 0.0
C1824 C 0.11655 0.20176 0.52178 0.0
C1825 C 0.112 0.21126 0.50755 0.0
C1826 C 0.11488 0.19334 0.49579 0.0
N1827 N 0.12397 0.17521 0.52427 0.0
C1828 C 0.12651 0.15747 0.51277 0.0
Co1829 Co 0.65191 0.30934 0.30579 0.0
Co1830 Co 0.61381 0.36425 0.2948 0.0
O1831 O 0.646 0.34064 0.29272 0.0
C1832 C 0.67372 0.29177 0.27619 0.0
O1833 O 0.65963 0.31081 0.26948 0.0
C1834 C 0.63818 0.42027 0.2931 0.0
O1835 O 0.62755 0.42556 0.30602 0.0
O1836 O 0.62414 0.37164 0.31574 0.0
O1837 O 0.63434 0.3289 0.32249 0.0
H1838 H 0.53101 0.40072 0.32088 0.0
H1839 H 0.6979 0.33566 0.28975 0.0
O1840 O 0.67097 0.28808 0.28992 0.0
H1841 H 0.72497 0.33746 0.34176 0.0
H1842 H 0.70464 0.23038 0.3273 0.0
H1843 H 0.61742 0.28094 0.3278 0.0
H1844 H 0.68112 0.31702 0.3343 0.0
H1845 H 0.69801 0.27043 0.31131 0.0
O1846 O 0.63648 0.39618 0.28779 0.0
H1847 H 0.57116 0.37085 0.31753 0.0
H1848 H 0.58862 0.40882 0.27671 0.0
H1849 H 0.6233 0.24115 0.34406 0.0
H1850 H 0.74213 0.3559 0.29669 0.0
H1851 H 0.66716 0.21555 0.34388 0.0
H1852 H 0.75595 0.35697 0.32288 0.0
O1853 O 0.6156 0.29417 0.29997 0.0
H1854 H 0.63306 0.35531 0.24086 0.0
H1855 H 0.56238 0.34839 0.27917 0.0
H1856 H 0.55024 0.33825 0.25354 0.0
H1857 H 0.58571 0.34184 0.23414 0.0
H1858 H 0.64439 0.36463 0.2667 0.0
H1859 H 0.54872 0.43913 0.27964 0.0
H1860 H 0.51958 0.43518 0.30185 0.0
O1861 O 0.5902 0.33241 0.30113 0.0
C1862 C 0.62918 0.35375 0.32559 0.0
C1863 C 0.54355 0.40264 0.31115 0.0
C1864 C 0.55349 0.4242 0.28801 0.0
N1865 N 0.58224 0.38807 0.29695 0.0
C1866 C 0.56631 0.38578 0.3092 0.0
C1867 C 0.57607 0.40699 0.28642 0.0
C1868 C 0.53715 0.42197 0.30047 0.0
C1869 C 0.70381 0.33572 0.30114 0.0
N1870 N 0.68694 0.32485 0.31157 0.0
C1871 C 0.72887 0.34736 0.30502 0.0
C1872 C 0.7366 0.34799 0.31971 0.0
C1873 C 0.71923 0.33707 0.33031 0.0
C1874 C 0.69434 0.32558 0.32602 0.0
C1875 C 0.68542 0.24135 0.32747 0.0
C1876 C 0.6366 0.26997 0.32767 0.0
C1877 C 0.68149 0.26399 0.31839 0.0
N1878 N 0.65733 0.27807 0.3186 0.0
C1879 C 0.63979 0.24742 0.33689 0.0
C1880 C 0.66439 0.23306 0.33678 0.0
C1881 C 0.59244 0.30632 0.30073 0.0
C1882 C 0.61743 0.3536 0.24922 0.0
C1883 C 0.57804 0.34941 0.27088 0.0
C1884 C 0.57099 0.34392 0.25634 0.0
C1885 C 0.59088 0.34601 0.24545 0.0
N1886 N 0.60415 0.35669 0.27452 0.0
C1887 C 0.6237 0.35892 0.26388 0.0
H1888 H 0.01089 0.57457 0.9833 0.0
H1889 H 0.94436 0.5677 0.01425 0.0
H1890 H 0.03185 0.53367 0.99353 0.0
H1891 H 0.96494 0.52635 0.02426 0.0
H1892 H 0.02217 0.46806 0.04773 0.0
H1893 H 1.00227 0.50943 0.03805 0.0
H1894 H 0.02528 0.4849 0.99425 0.0
H1895 H 0.04631 0.44337 1.00411 0.0
C1896 C 1.00085 0.56446 0.9924 0.0
C1897 C 0.97596 0.57445 0.99799 0.0
C1898 C 0.01272 0.54079 0.99814 0.0
C1899 C 0.99995 0.52642 0.00959 0.0
C1900 C 0.97551 0.53697 0.01552 0.0
C1901 C 0.96371 0.56078 0.00982 0.0
C1902 C 0.02297 0.47123 0.03601 0.0
C1903 C 0.03593 0.45222 0.02671 0.0
C1904 C 0.01134 0.49506 0.03044 0.0
C1905 C 0.0121 0.50063 0.01537 0.0
C1906 C 0.02468 0.48147 1.00597 0.0
C1907 C 0.03652 0.45753 0.01158 0.0
H1908 H 0.67987 0.7681 0.25281 0.0
H1909 H 0.72173 0.69309 0.24181 0.0
H1910 H 0.72178 0.78569 0.26388 0.0
H1911 H 0.76366 0.71101 0.25203 0.0
H1912 H 0.83007 0.74059 0.28275 0.0
H1913 H 0.78775 0.72236 0.2729 0.0
H1914 H 0.76509 0.80317 0.25798 0.0
H1915 H 0.80699 0.82159 0.26859 0.0
C1916 C 0.69792 0.75528 0.25284 0.0
C1917 C 0.69729 0.72913 0.24646 0.0
C1918 C 0.72213 0.7655 0.259 0.0
C1919 C 0.74641 0.74996 0.25876 0.0
C1920 C 0.74546 0.72354 0.25268 0.0
C1921 C 0.72125 0.71321 0.24674 0.0
C1922 C 0.81627 0.75443 0.27717 0.0
C1923 C 0.82204 0.78254 0.27639 0.0
C1924 C 0.79186 0.74395 0.2715 0.0
C1925 C 0.77268 0.76122 0.26465 0.0
C1926 C 0.77894 0.78926 0.26345 0.0
C1927 C 0.8032 0.79981 0.26935 0.0
H1928 H 0.50815 0.44173 0.48328 0.0
H1929 H 0.58113 0.46562 0.50657 0.0
H1930 H 0.48418 0.48145 0.493 0.0
H1931 H 0.55794 0.50623 0.51558 0.0
H1932 H 0.50265 0.563 0.54076 0.0
H1933 H 0.52614 0.52345 0.53139 0.0
H1934 H 0.47939 0.52871 0.49125 0.0
H1935 H 0.45409 0.56753 0.5013 0.0
C1936 C 0.51899 0.45543 0.49059 0.0
C1937 C 0.5464 0.45035 0.49434 0.0
C1938 C 0.50539 0.47851 0.49598 0.0
C1939 C 0.51903 0.49744 0.50502 0.0
C1940 C 0.54643 0.49203 0.5089 0.0
C1941 C 0.55982 0.46864 0.50375 0.0
C1942 C 0.49718 0.5558 0.52994 0.0
C1943 C 0.47604 0.56831 0.52191 0.0
C1944 C 0.51103 0.5331 0.52445 0.0
C1945 C 0.50473 0.52248 0.51054 0.0
C1946 C 0.48443 0.53578 0.50216 0.0
C1947 C 0.47013 0.55834 0.50782 0.0
H1948 H 0.83368 0.2834 0.76064 0.0
H1949 H 0.78754 0.29141 0.72048 0.0
H1950 H 0.79446 0.26078 0.7721 0.0
H1951 H 0.74851 0.26976 0.73195 0.0
H1952 H 0.69186 0.20589 0.752 0.0
H1953 H 0.73171 0.22717 0.74059 0.0
H1954 H 0.74932 0.26973 0.78102 0.0
H1955 H 0.71009 0.24795 0.79248 0.0
C1956 C 0.81522 0.28042 0.75428 0.0
C1957 C 0.81391 0.28911 0.73962 0.0
C1958 C 0.79266 0.2676 0.76086 0.0
C1959 C 0.76823 0.26333 0.75295 0.0
C1960 C 0.76703 0.27214 0.73832 0.0
C1961 C 0.78951 0.28476 0.73175 0.0
C1962 C 0.70413 0.21994 0.7584 0.0
C1963 C 0.69775 0.22516 0.77315 0.0
C1964 C 0.727 0.23219 0.75187 0.0
C1965 C 0.74392 0.25012 0.7599 0.0
C1966 C 0.73718 0.25564 0.77457 0.0
C1967 C 0.71447 0.2433 0.78111 0.0
H1968 H 0.97533 0.43561 0.50842 0.0
H1969 H 0.98618 0.46862 0.55199 0.0
H1970 H 0.99678 0.47654 0.49814 0.0
H1971 H 1.00685 0.50943 0.54176 0.0
H1972 H 0.06807 0.56656 0.51884 0.0
H1973 H 0.0473 0.52575 0.52949 0.0
H1974 H 0.98699 0.52489 0.49491 0.0
H1975 H 1.00792 0.56533 0.48417 0.0
C1976 C 0.98234 0.45148 0.5158 0.0
C1977 C 0.97902 0.44873 0.53102 0.0
C1978 C 0.99443 0.47506 0.50992 0.0
C1979 C 1.00346 0.49637 0.51913 0.0
C1980 C 1.00046 0.49335 0.53435 0.0
C1981 C 0.98843 0.46989 0.5402 0.0
C1982 C 0.05014 0.55791 0.51364 0.0
C1983 C 0.03976 0.56918 0.50062 0.0
C1984 C 0.03825 0.53445 0.51972 0.0
C1985 C 0.01566 0.5218 0.51295 0.0
C1986 C 1.00473 0.53369 0.50022 0.0
C1987 C 0.01661 0.55707 0.49414 0.0
H1988 H 0.68553 0.75251 0.73707 0.0
H1989 H 0.70829 0.82798 0.75832 0.0
H1990 H 0.7276 0.73122 0.74567 0.0
H1991 H 0.75111 0.80751 0.76616 0.0
H1992 H 0.81423 0.75681 0.7898 0.0
H1993 H 0.77238 0.77781 0.78164 0.0
H1994 H 0.7746 0.72877 0.74218 0.0
H1995 H 0.8158 0.70598 0.75107 0.0
C1996 C 0.69949 0.76446 0.7437 0.0
C1997 C 0.69342 0.79178 0.74721 0.0
C1998 C 0.72389 0.75242 0.74844 0.0
C1999 C 0.74317 0.76758 0.75653 0.0
C2000 C 0.73674 0.79486 0.7602 0.0
C2001 C 0.71207 0.80669 0.75573 0.0
C2002 C 0.80587 0.75034 0.77938 0.0
C2003 C 0.81826 0.72926 0.77124 0.0
C2004 C 0.78182 0.76273 0.77458 0.0
C2005 C 0.76965 0.75499 0.76125 0.0
C2006 C 0.78284 0.73486 0.75269 0.0
C2007 C 0.80676 0.72203 0.75767 0.0
H2008 H 0.4545 0.44492 0.02049 0.0
H2009 H 0.49929 0.45522 0.98004 0.0
H2010 H 0.48029 0.48285 0.03125 0.0
H2011 H 0.52293 0.49389 0.9901 0.0
H2012 H 0.57901 0.55035 0.01377 0.0
H2013 H 0.556 0.50942 1.00524 0.0
H2014 H 0.48523 0.53016 0.03151 0.0
H2015 H 0.50945 0.57018 0.04086 0.0
C2016 C 0.46979 0.4552 0.0139 0.0
C2017 C 0.47454 0.44707 0.99934 0.0
C2018 C 0.48437 0.47723 0.01998 0.0
C2019 C 0.50375 0.49183 0.01157 0.0
C2020 C 0.50871 0.48313 0.99713 0.0
C2021 C 0.4947 0.46095 0.99122 0.0
C2022 C 0.55843 0.54629 0.0176 0.0
C2023 C 0.54589 0.56367 0.02781 0.0
C2024 C 0.54509 0.52275 0.01269 0.0
C2025 C 0.51844 0.51631 0.01752 0.0
C2026 C 0.50583 0.53399 0.02768 0.0
C2027 C 0.51953 0.5572 0.03289 0.0
H2028 H 0.80007 0.22963 0.21732 0.0
H2029 H 0.83542 0.22406 0.26062 0.0
H2030 H 0.75786 0.24671 0.2277 0.0
H2031 H 0.79292 0.24199 0.27109 0.0
H2032 H 0.70401 0.24852 0.28603 0.0
H2033 H 0.74567 0.22981 0.27539 0.0
H2034 H 0.73861 0.2861 0.2391 0.0
H2035 H 0.69661 0.30445 0.2496 0.0
C2036 C 0.79901 0.23232 0.22909 0.0
C2037 C 0.82135 0.22556 0.23813 0.0
C2038 C 0.77468 0.24227 0.23504 0.0
C2039 C 0.77189 0.24588 0.25023 0.0
C2040 C 0.79422 0.23917 0.25933 0.0
C2041 C 0.81867 0.22908 0.25334 0.0
C2042 C 0.71117 0.25674 0.27569 0.0
C2043 C 0.69691 0.27803 0.26868 0.0
C2044 C 0.73526 0.24616 0.26967 0.0
C2045 C 0.74576 0.25659 0.25646 0.0
C2046 C 0.73105 0.27735 0.24923 0.0
C2047 C 0.70688 0.28789 0.25523 0.0
H2048 H 0.30899 0.25831 0.79145 0.0
H2049 H 0.31704 0.30751 0.75237 0.0
H2050 H 0.26813 0.23753 0.78177 0.0
H2051 H 0.27679 0.28502 0.74205 0.0
H2052 H 0.18813 0.26239 0.73379 0.0
H2053 H 0.22923 0.28339 0.74383 0.0
H2054 H 0.24913 0.20731 0.76552 0.0
H2055 H 0.20723 0.18705 0.75616 0.0
C2056 C 0.30228 0.26448 0.78066 0.0
C2057 C 0.3162 0.285 0.77282 0.0
C2058 C 0.27881 0.25222 0.77499 0.0
C2059 C 0.26875 0.25958 0.76111 0.0
C2060 C 0.28342 0.27923 0.75293 0.0
C2061 C 0.30678 0.2919 0.75875 0.0
C2062 C 0.20107 0.25039 0.74096 0.0
C2063 C 0.19426 0.22318 0.74434 0.0
C2064 C 0.22492 0.26228 0.74654 0.0
C2065 C 0.24289 0.2471 0.75542 0.0
C2066 C 0.23573 0.21994 0.75896 0.0
C2067 C 0.2116 0.20824 0.7536 0.0
H2068 H 0.20584 0.69215 0.25805 0.0
H2069 H 0.19555 0.76237 0.28623 0.0
H2070 H 0.24765 0.71195 0.24825 0.0
H2071 H 0.23677 0.78286 0.27598 0.0
H2072 H 0.32626 0.80059 0.2654 0.0
H2073 H 0.2852 0.77947 0.27581 0.0
H2074 H 0.26507 0.74615 0.23326 0.0
H2075 H 0.30624 0.76568 0.22324 0.0
C2076 C 0.21213 0.71216 0.26188 0.0
C2077 C 0.19727 0.72573 0.27286 0.0
C2078 C 0.2362 0.72356 0.25628 0.0
C2079 C 0.24583 0.74905 0.26135 0.0
C2080 C 0.23042 0.76297 0.27203 0.0
C2081 C 0.20654 0.75139 0.27776 0.0
C2082 C 0.31321 0.78843 0.25836 0.0
C2083 C 0.31963 0.78498 0.24346 0.0
C2084 C 0.28948 0.77656 0.26427 0.0
C2085 C 0.27159 0.76113 0.25538 0.0
C2086 C 0.27838 0.75745 0.24055 0.0
C2087 C 0.30207 0.76899 0.23474 0.0
H2088 H 0.32977 0.27745 0.28114 0.0
H2089 H 0.31179 0.20007 0.26048 0.0
H2090 H 0.28656 0.29564 0.27255 0.0
H2091 H 0.26903 0.21872 0.25108 0.0
H2092 H 0.1819 0.24859 0.24839 0.0
H2093 H 0.22487 0.23118 0.25822 0.0
H2094 H 0.26114 0.31129 0.25313 0.0
H2095 H 0.21806 0.32883 0.24429 0.0
C2096 C 0.31699 0.26458 0.27432 0.0
C2097 C 0.32436 0.23734 0.27141 0.0
C2098 C 0.29202 0.27501 0.2694 0.0
C2099 C 0.27393 0.25868 0.26117 0.0
C2100 C 0.28197 0.23178 0.25769 0.0
C2101 C 0.30675 0.22118 0.26285 0.0
C2102 C 0.1989 0.26258 0.2497 0.0
C2103 C 0.1964 0.29012 0.24552 0.0
C2104 C 0.22375 0.25251 0.25512 0.0
C2105 C 0.24685 0.26964 0.2563 0.0
C2106 C 0.24393 0.29741 0.25259 0.0
C2107 C 0.21904 0.30753 0.24744 0.0
H2108 H 0.18385 0.74057 0.78026 0.0
H2109 H 0.20441 0.81927 0.76186 0.0
H2110 H 0.22681 0.72205 0.77149 0.0
H2111 H 0.24695 0.80037 0.75227 0.0
H2112 H 0.33334 0.76816 0.74926 0.0
H2113 H 0.2906 0.78596 0.75923 0.0
H2114 H 0.25216 0.70751 0.75175 0.0
H2115 H 0.29499 0.68952 0.74272 0.0
C2116 C 0.19718 0.75374 0.77393 0.0
C2117 C 0.19057 0.78138 0.77168 0.0
C2118 C 0.22199 0.7431 0.76888 0.0
C2119 C 0.24072 0.75966 0.76121 0.0
C2120 C 0.2335 0.78707 0.75844 0.0
C2121 C 0.20886 0.79785 0.76372 0.0
C2122 C 0.31588 0.7546 0.75005 0.0
C2123 C 0.31773 0.72739 0.74521 0.0
C2124 C 0.29118 0.76491 0.75556 0.0
C2125 C 0.26757 0.74837 0.75615 0.0
C2126 C 0.26979 0.72091 0.75171 0.0
C2127 C 0.29453 0.71052 0.74646 0.0
H2128 H 0.57005 0.95118 0.5027 0.0
H2129 H 0.50561 0.95045 0.53511 0.0
H2130 H 0.5507 0.99243 0.49196 0.0
H2131 H 0.48583 0.9913 0.52415 0.0
H2132 H 0.47414 0.08079 0.51067 0.0
H2133 H 0.49427 0.03972 0.5216 0.0
H2134 H 0.51295 0.00891 0.47834 0.0
H2135 H 0.49394 0.04978 0.46758 0.0
C2136 C 0.55142 0.95947 0.50734 0.0
C2137 C 0.5394 0.94748 0.51975 0.0
C2138 C 0.54033 0.98321 0.50121 0.0
C2139 C 0.51679 0.99541 0.50727 0.0
C2140 C 0.50428 0.98286 0.5194 0.0
C2141 C 0.51547 0.95923 0.52558 0.0
C2142 C 0.48281 0.06535 0.50354 0.0
C2143 C 0.48244 0.06872 0.48825 0.0
C2144 C 0.49412 0.04168 0.50978 0.0
C2145 C 0.50522 0.02092 0.50084 0.0
C2146 C 0.50503 0.02456 0.48559 0.0
C2147 C 0.49391 0.04809 0.4794 0.0
H2148 H 0.99401 0.93574 0.98384 0.0
H2149 H 0.07503 0.95203 1.00051 0.0
H2150 H 0.97809 0.97888 0.99383 0.0
H2151 H 0.05882 0.99474 0.01121 0.0
H2152 H 0.03028 0.08257 0.0155 0.0
H2153 H 0.04549 0.0394 1.00479 0.0
H2154 H 0.96684 1.00337 0.01467 0.0
H2155 H 0.95135 0.04652 0.02452 0.0
C2156 C 1.00825 0.94815 0.99004 0.0
C2157 C 0.03577 0.94035 0.99144 0.0
C2158 C 0.99912 0.97305 0.99577 0.0
C2159 C 0.01716 0.99062 1.00327 0.0
C2160 C 0.04444 0.98217 1.00521 0.0
C2161 C 0.05367 0.95744 0.99928 0.0
C2162 C 0.01612 0.06554 0.01512 0.0
C2163 C 0.98958 0.06815 0.02085 0.0
C2164 C 0.02495 0.04062 0.00917 0.0
C2165 C 1.00754 0.01762 0.00897 0.0
C2166 C 0.98079 0.02056 0.0144 0.0
C2167 C 0.97189 0.04547 0.02012 0.0
H2168 H 0.48261 0.08808 0.99044 0.0
H2169 H 0.56539 0.0582 0.9947 0.0
H2170 H 0.46534 0.04456 0.9997 0.0
H2171 H 0.54816 0.01462 1.00345 0.0
H2172 H 0.44195 0.95452 1.00122 0.0
H2173 H 0.46081 0.99736 0.99179 0.0
H2174 H 0.52624 0.99278 0.02351 0.0
H2175 H 0.5081 0.94977 0.03249 0.0
C2176 C 0.49715 0.07242 0.99353 0.0
C2177 C 0.52541 0.07672 0.99182 0.0
C2178 C 0.48723 0.04729 0.99862 0.0
C2179 C 0.50532 0.02589 1.00212 0.0
C2180 C 0.5336 0.03062 1.00094 0.0
C2181 C 0.5435 0.05571 0.99591 0.0
C2182 C 0.46071 0.96235 1.00593 0.0
C2183 C 0.47344 0.94874 0.01764 0.0
C2184 C 0.47128 0.98714 1.00069 0.0
C2185 C 0.49483 0.99878 1.00704 0.0
C2186 C 0.50818 0.98445 0.01829 0.0
C2187 C 0.49769 0.95974 0.02349 0.0
H2188 H 0.98446 0.08102 0.52859 0.0
H2189 H 0.06515 0.06581 0.51115 0.0
H2190 H 0.9689 0.03741 0.51896 0.0
H2191 H 0.04931 0.02262 0.50087 0.0
H2192 H 0.02225 0.93419 0.49752 0.0
H2193 H 0.03694 0.97787 0.50782 0.0
H2194 H 0.95748 0.01224 0.49827 0.0
H2195 H 0.94254 0.96856 0.48877 0.0
C2196 C 0.9987 0.06873 0.52231 0.0
C2197 C 0.02603 0.07699 0.52059 0.0
C2198 C 0.98978 0.04357 0.51679 0.0
C2199 C 1.00786 0.02616 0.50921 0.0
C2200 C 0.03492 0.03506 0.50695 0.0
C2201 C 0.04393 0.06006 0.51265 0.0
C2202 C 1.0078 0.95096 0.49787 0.0
C2203 C 0.9812 0.94774 0.49232 0.0
C2204 C 0.01633 0.97618 0.50359 0.0
C2205 C 0.99854 0.99887 0.50376 0.0
C2206 C 0.97173 0.99531 0.49854 0.0
C2207 C 0.96314 0.9701 0.49301 0.0
H2208 H 0.93678 0.22311 0.05824 0.0
H2209 H 1.00376 0.17725 0.0395 0.0
H2210 H 0.96474 0.26392 0.05858 0.0
H2211 H 0.03172 0.21876 0.03936 0.0
H2212 H 0.08264 0.2916 0.05594 0.0
H2213 H 0.05545 0.25004 0.05474 0.0
H2214 H 0.98416 0.2979 0.0436 0.0
H2215 H 0.0112 0.33964 0.04534 0.0
C2216 C 0.95748 0.22171 0.05407 0.0
C2217 C 0.96795 0.19672 0.04882 0.0
C2218 C 0.97351 0.24534 0.05415 0.0
C2219 C 1.00053 0.24491 0.04888 0.0
C2220 C 0.01111 0.2199 0.04365 0.0
C2221 C 0.99504 0.19607 0.04366 0.0
C2222 C 0.06115 0.29333 0.05323 0.0
C2223 C 0.04911 0.31912 0.05084 0.0
C2224 C 0.04556 0.26936 0.05242 0.0
C2225 C 0.01749 0.27042 0.04911 0.0
C2226 C 1.00558 0.2962 0.04646 0.0
C2227 C 0.02113 0.32021 0.04737 0.0
H2228 H 0.0382 0.6896 0.30405 0.0
H2229 H 0.08901 0.76105 0.30945 0.0
H2230 H 0.99815 0.71804 0.30233 0.0
H2231 H 0.04851 0.78967 0.30957 0.0
H2232 H 0.97625 0.83981 0.29643 0.0
H2233 H 0.01585 0.81075 0.29711 0.0
H2234 H 0.9651 0.74357 0.31191 0.0
H2235 H 0.92488 0.77236 0.30946 0.0
C2236 C 0.04089 0.71147 0.3049 0.0
C2237 C 0.06713 0.72297 0.3064 0.0
C2238 C 0.01757 0.72798 0.30423 0.0
C2239 C 0.01947 0.75661 0.30567 0.0
C2240 C 0.04577 0.76797 0.30784 0.0
C2241 C 0.06923 0.75146 0.30796 0.0
C2242 C 0.97336 0.81871 0.29953 0.0
C2243 C 0.94712 0.80846 0.30264 0.0
C2244 C 0.99643 0.80192 0.30024 0.0
C2245 C 0.99436 0.77443 0.3047 0.0
C2246 C 0.96799 0.76428 0.30806 0.0
C2247 C 0.94469 0.78092 0.3068 0.0
H2248 H 0.43311 0.72323 0.56352 0.0
H2249 H 0.50261 0.67695 0.54801 0.0
H2250 H 0.46061 0.76453 0.56375 0.0
H2251 H 0.53003 0.71867 0.54779 0.0
H2252 H 0.57898 0.79298 0.56265 0.0
H2253 H 0.55166 0.75149 0.56308 0.0
H2254 H 0.4814 0.79724 0.54817 0.0
H2255 H 0.5086 0.83905 0.5482 0.0
C2256 C 0.45427 0.72182 0.56009 0.0
C2257 C 0.4656 0.69662 0.55574 0.0
C2258 C 0.47003 0.74568 0.56012 0.0
C2259 C 0.49759 0.74515 0.55571 0.0
C2260 C 0.509 0.7199 0.55144 0.0
C2261 C 0.49323 0.69593 0.5515 0.0
C2262 C 0.55767 0.79429 0.5595 0.0
C2263 C 0.54603 0.81949 0.5554 0.0
C2264 C 0.54201 0.77035 0.55964 0.0
C2265 C 0.51426 0.77082 0.55561 0.0
C2266 C 0.50259 0.79606 0.55155 0.0
C2267 C 0.51823 0.82009 0.5515 0.0
H2268 H 0.58861 0.2495 0.79715 0.0
H2269 H 0.54173 0.17664 0.80646 0.0
H2270 H 0.54675 0.27655 0.79782 0.0
H2271 H 0.5002 0.2037 0.80771 0.0
H2272 H 0.42593 0.25585 0.79588 0.0
H2273 H 0.46755 0.22844 0.7942 0.0
H2274 H 0.51363 0.29442 0.81382 0.0
H2275 H 0.47245 0.32198 0.81495 0.0
C2276 C 0.56943 0.23925 0.79941 0.0
C2277 C 0.56869 0.21084 0.80174 0.0
C2278 C 0.54535 0.25481 0.7999 0.0
C2279 C 0.51987 0.24245 0.80288 0.0
C2280 C 0.51922 0.214 0.80516 0.0
C2281 C 0.54321 0.19844 0.80454 0.0
C2282 C 0.44494 0.26444 0.79988 0.0
C2283 C 0.44573 0.29117 0.80552 0.0
C2284 C 0.46887 0.24867 0.79897 0.0
C2285 C 0.49421 0.25914 0.80381 0.0
C2286 C 0.49478 0.28575 0.80967 0.0
C2287 C 0.47098 0.30154 0.81045 0.0
H2288 H 0.92984 0.78813 0.4706 0.0
H2289 H 0.99974 0.84027 0.46338 0.0
H2290 H 0.95902 0.74863 0.47137 0.0
H2291 H 0.02911 0.80017 0.46242 0.0
H2292 H 0.08075 0.72605 0.47272 0.0
H2293 H 0.05211 0.76626 0.47326 0.0
H2294 H 0.98301 0.71705 0.45961 0.0
H2295 H 0.01125 0.67644 0.46078 0.0
C2296 C 0.95153 0.79122 0.46912 0.0
C2297 C 0.96234 0.81763 0.4672 0.0
C2298 C 0.96846 0.76822 0.46924 0.0
C2299 C 0.99682 0.77056 0.46681 0.0
C2300 C 1.00762 0.7971 0.46467 0.0
C2301 C 0.99068 0.82031 0.46508 0.0
C2302 C 0.05931 0.72367 0.47015 0.0
C2303 C 0.04827 0.69771 0.46711 0.0
C2304 C 0.04277 0.74706 0.47018 0.0
C2305 C 0.01477 0.74548 0.4666 0.0
C2306 C 1.00406 0.71948 0.46298 0.0
C2307 C 0.02041 0.69597 0.46348 0.0
H2308 H 0.58227 0.75701 0.72021 0.0
H2309 H 0.53322 0.8271 0.7084 0.0
H2310 H 0.54131 0.7286 0.72039 0.0
H2311 H 0.49242 0.79857 0.70827 0.0
H2312 H 0.42066 0.74367 0.72338 0.0
H2313 H 0.46097 0.77341 0.7236 0.0
H2314 H 0.50889 0.7088 0.70403 0.0
H2315 H 0.4692 0.67918 0.70409 0.0
C2316 C 0.56281 0.76637 0.71758 0.0
C2317 C 0.56122 0.79441 0.71428 0.0
C2318 C 0.53925 0.75002 0.71761 0.0
C2319 C 0.51341 0.76119 0.71429 0.0
C2320 C 0.51182 0.78926 0.71106 0.0
C2321 C 0.53536 0.80562 0.71104 0.0
C2322 C 0.43978 0.7359 0.71907 0.0
C2323 C 0.44156 0.70891 0.71381 0.0
C2324 C 0.46292 0.75297 0.71915 0.0
C2325 C 0.4884 0.74348 0.71396 0.0
C2326 C 0.4899 0.7167 0.70843 0.0
C2327 C 0.46692 0.69972 0.70837 0.0
H2328 H 0.51415 0.18083 0.97168 0.0
H2329 H 0.58042 0.22853 0.95352 0.0
H2330 H 0.48553 0.22167 0.9723 0.0
H2331 H 0.55168 0.26901 0.95377 0.0
H2332 H 0.50262 0.34255 0.97011 0.0
H2333 H 0.53128 0.3017 0.96977 0.0
H2334 H 0.46145 0.25302 0.95706 0.0
H2335 H 0.43277 0.2935 0.9578 0.0
C2336 C 0.52257 0.19993 0.96771 0.0
C2337 C 0.54966 0.20127 0.96258 0.0
C2338 C 0.5061 0.2234 0.968 0.0
C2339 C 0.51624 0.24881 0.96312 0.0
C2340 C 0.54325 0.25001 0.95787 0.0
C2341 C 0.55972 0.22663 0.95763 0.0
C2342 C 0.49339 0.32314 0.96722 0.0
C2343 C 0.46532 0.32144 0.96402 0.0
C2344 C 0.50987 0.29967 0.96696 0.0
C2345 C 0.49874 0.2739 0.96342 0.0
C2346 C 0.47071 0.27232 0.9601 0.0
C2347 C 0.45426 0.2957 0.96042 0.0
H2348 H 0.09611 0.27307 0.21237 0.0
H2349 H 0.04228 0.34253 0.21655 0.0
H2350 H 0.05651 0.24298 0.21098 0.0
H2351 H 1.00323 0.31283 0.21694 0.0
H2352 H 0.93254 0.25795 0.2064 0.0
H2353 H 0.97255 0.28722 0.20563 0.0
H2354 H 0.02226 0.22032 0.22164 0.0
H2355 H 0.98289 0.19066 0.2207 0.0
C2356 C 0.07587 0.28191 0.21329 0.0
C2357 C 0.07263 0.31032 0.21481 0.0
C2358 C 0.05293 0.26457 0.21265 0.0
C2359 C 0.02604 0.27504 0.21394 0.0
C2360 C 0.02311 0.30353 0.21555 0.0
C2361 C 0.04587 0.3208 0.21566 0.0
C2362 C 0.95205 0.24953 0.20973 0.0
C2363 C 0.95422 0.22193 0.2138 0.0
C2364 C 0.97523 0.26647 0.20945 0.0
C2365 C 1.00124 0.25662 0.21373 0.0
C2366 C 1.00312 0.22898 0.21796 0.0
C2367 C 0.98016 0.21187 0.21772 0.0
H2368 H 0.93908 0.73007 0.96653 0.0
H2369 H 1.00718 0.67833 0.95502 0.0
H2370 H 0.96855 0.76958 0.96643 0.0
H2371 H 0.03631 0.71823 0.95307 0.0
H2372 H 0.09127 0.78872 0.96331 0.0
H2373 H 0.06146 0.74975 0.96381 0.0
H2374 H 0.99215 0.8028 0.95575 0.0
H2375 H 0.02221 0.84233 0.95712 0.0
C2376 C 0.96039 0.72708 0.96389 0.0
C2377 C 0.97078 0.70074 0.96121 0.0
C2378 C 0.97744 0.75008 0.96353 0.0
C2379 C 1.00535 0.74774 0.95984 0.0
C2380 C 0.01539 0.72133 0.95652 0.0
C2381 C 0.99851 0.6982 0.95746 0.0
C2382 C 0.06962 0.79225 0.96196 0.0
C2383 C 0.05923 0.81893 0.96056 0.0
C2384 C 0.05229 0.76954 0.96192 0.0
C2385 C 0.0239 0.77244 0.95979 0.0
C2386 C 0.0136 0.79924 0.95786 0.0
C2387 C 0.03095 0.82214 0.95848 0.0
H2388 H 0.92093 0.26722 0.71662 0.0
H2389 H 0.96931 0.33958 0.70847 0.0
H2390 H 0.96242 0.23957 0.71644 0.0
H2391 H 0.01051 0.31194 0.70771 0.0
H2392 H 0.08337 0.25865 0.72041 0.0
H2393 H 0.042 0.28647 0.72166 0.0
H2394 H 0.99624 0.22153 0.70087 0.0
H2395 H 0.03717 0.19353 0.70014 0.0
C2396 C 0.94036 0.27724 0.71471 0.0
C2397 C 0.94163 0.30568 0.71256 0.0
C2398 C 0.96424 0.26133 0.7145 0.0
C2399 C 0.99005 0.27338 0.71201 0.0
C2400 C 0.99122 0.30186 0.7099 0.0
C2401 C 0.96743 0.31776 0.71023 0.0
C2402 C 0.06448 0.25036 0.71608 0.0
C2403 C 0.06372 0.22379 0.7102 0.0
C2404 C 0.04069 0.26637 0.71674 0.0
C2405 C 0.01552 0.25634 0.71142 0.0
C2406 C 0.01496 0.22987 0.70538 0.0
C2407 C 0.03862 0.21383 0.70483 0.0
H2408 H 0.51449 0.34246 0.45624 0.0
H2409 H 0.58633 0.29282 0.46298 0.0
H2410 H 0.48655 0.30138 0.45535 0.0
H2411 H 0.55851 0.25228 0.46384 0.0
H2412 H 0.5074 0.17844 0.45414 0.0
H2413 H 0.53479 0.21966 0.45264 0.0
H2414 H 0.46523 0.2674 0.4671 0.0
H2415 H 0.4374 0.22663 0.4669 0.0
C2416 C 0.52429 0.32283 0.45784 0.0
C2417 C 0.5527 0.32118 0.45995 0.0
C2418 C 0.50818 0.29907 0.45749 0.0
C2419 C 0.51988 0.27296 0.45967 0.0
C2420 C 0.54838 0.27156 0.4618 0.0
C2421 C 0.56451 0.29515 0.46163 0.0
C2422 C 0.49796 0.19778 0.45695 0.0
C2423 C 0.47019 0.19899 0.46083 0.0
C2424 C 0.51382 0.22164 0.45624 0.0
C2425 C 0.50264 0.24741 0.45989 0.0
C2426 C 0.47483 0.24839 0.4639 0.0
C2427 C 0.45879 0.22469 0.46409 0.0
H2428 H 0.42974 0.75445 0.2093 0.0
H2429 H 0.47896 0.82429 0.22108 0.0
H2430 H 0.47045 0.7261 0.20899 0.0
H2431 H 0.51893 0.79579 0.2226 0.0
H2432 H 0.59369 0.74476 0.21387 0.0
H2433 H 0.55322 0.77333 0.21231 0.0
H2434 H 0.50242 0.70234 0.22049 0.0
H2435 H 0.54253 0.67388 0.22021 0.0
C2436 C 0.44915 0.76366 0.21218 0.0
C2437 C 0.4508 0.79168 0.21544 0.0
C2438 C 0.47272 0.74728 0.21217 0.0
C2439 C 0.49859 0.7582 0.21592 0.0
C2440 C 0.49993 0.78627 0.21933 0.0
C2441 C 0.4766 0.80276 0.21878 0.0
C2442 C 0.57382 0.73532 0.21527 0.0
C2443 C 0.57156 0.70695 0.21731 0.0
C2444 C 0.55036 0.7518 0.21453 0.0
C2445 C 0.5239 0.74056 0.21635 0.0
C2446 C 0.52194 0.71214 0.21865 0.0
C2447 C 0.54527 0.69563 0.21881 0.0
H2448 H 0.93093 0.29125 0.54561 0.0
H2449 H 0.99863 0.33916 0.56185 0.0
H2450 H 0.96013 0.25125 0.54427 0.0
H2451 H 0.02725 0.29871 0.56185 0.0
H2452 H 0.08198 0.23071 0.54735 0.0
H2453 H 0.05209 0.26976 0.54809 0.0
H2454 H 0.9829 0.21624 0.55537 0.0
H2455 H 0.01301 0.17667 0.55323 0.0
C2456 C 0.95206 0.29329 0.54896 0.0
C2457 C 0.96249 0.31873 0.55352 0.0
C2458 C 0.96884 0.27007 0.54841 0.0
C2459 C 0.99644 0.27134 0.55282 0.0
C2460 C 1.00651 0.29672 0.55786 0.0
C2461 C 0.98994 0.32008 0.55801 0.0
C2462 C 0.06036 0.22707 0.54888 0.0
C2463 C 0.05 0.20031 0.54998 0.0
C2464 C 0.04305 0.24976 0.54958 0.0
C2465 C 0.01476 0.24665 0.55192 0.0
C2466 C 1.00439 0.21978 0.55327 0.0
C2467 C 0.02172 0.19694 0.55216 0.0
H2468 H 0.47298 0.17418 0.2987 0.0
H2469 H 0.42253 0.24546 0.30545 0.0
H2470 H 0.51322 0.20211 0.2984 0.0
H2471 H 0.46355 0.27369 0.3069 0.0
H2472 H 0.53948 0.32294 0.29608 0.0
H2473 H 0.49829 0.29567 0.29611 0.0
H2474 H 0.54555 0.22531 0.30982 0.0
H2475 H 0.58707 0.25211 0.30803 0.0
C2476 C 0.47039 0.19593 0.30022 0.0
C2477 C 0.44419 0.20747 0.30174 0.0
C2478 C 0.49388 0.21216 0.30038 0.0
C2479 C 0.49233 0.24058 0.30272 0.0
C2480 C 0.46603 0.2521 0.3047 0.0
C2481 C 0.4423 0.23584 0.30402 0.0
C2482 C 0.54122 0.30149 0.29876 0.0
C2483 C 0.56691 0.28965 0.30159 0.0
C2484 C 0.51726 0.28576 0.29908 0.0
C2485 C 0.51797 0.2578 0.30281 0.0
C2486 C 0.54371 0.24634 0.3063 0.0
C2487 C 0.56778 0.26186 0.30545 0.0
H2488 H 0.4401 0.79012 0.0501 0.0
H2489 H 0.51079 0.84181 0.05606 0.0
H2490 H 0.46876 0.75024 0.04995 0.0
H2491 H 0.53966 0.80137 0.05762 0.0
H2492 H 0.58997 0.72609 0.04746 0.0
H2493 H 0.56178 0.76667 0.04669 0.0
H2494 H 0.49278 0.71918 0.06214 0.0
H2495 H 0.52044 0.67816 0.06124 0.0
C2496 C 0.46186 0.79306 0.05143 0.0
C2497 C 0.47306 0.81944 0.05272 0.0
C2498 C 0.47848 0.76985 0.05167 0.0
C2499 C 0.50691 0.77198 0.05386 0.0
C2500 C 0.51808 0.79848 0.05554 0.0
C2501 C 0.50144 0.82186 0.05478 0.0
C2502 C 0.56863 0.72416 0.05038 0.0
C2503 C 0.55741 0.69855 0.05402 0.0
C2504 C 0.55239 0.74775 0.05022 0.0
C2505 C 0.52457 0.74674 0.05424 0.0
C2506 C 0.5137 0.72112 0.05843 0.0
C2507 C 0.52972 0.69739 0.05809 0.0
H2508 H 0.92816 0.75847 0.80833 0.0
H2509 H 0.97885 0.68928 0.79731 0.0
H2510 H 0.96844 0.78725 0.80953 0.0
H2511 H 0.01869 0.71833 0.79672 0.0
H2512 H 0.0922 0.7715 0.80544 0.0
H2513 H 0.0523 0.74197 0.80723 0.0
H2514 H 1.00006 0.81139 0.79804 0.0
H2515 H 0.0394 0.84077 0.79805 0.0
C2516 C 0.94786 0.74948 0.80584 0.0
C2517 C 0.95 0.72154 0.80246 0.0
C2518 C 0.9712 0.76614 0.80635 0.0
C2519 C 0.99741 0.75563 0.80299 0.0
C2520 C 0.99935 0.72755 0.79964 0.0
C2521 C 0.97616 0.71075 0.79967 0.0
C2522 C 0.07212 0.78038 0.80391 0.0
C2523 C 0.06923 0.80858 0.80138 0.0
C2524 C 0.04901 0.76334 0.80478 0.0
C2525 C 0.02233 0.77385 0.80269 0.0
C2526 C 0.01976 0.80212 0.80009 0.0
C2527 C 0.04268 0.81918 0.79976 0.0
H2528 H 0.30008 0.37198 0.98008 0.0
H2529 H 0.33458 0.4384 1.00522 0.0
H2530 H 0.2592 0.37294 0.99549 0.0
H2531 H 0.29375 0.439 0.02079 0.0
H2532 H 0.23391 0.39788 0.05578 0.0
H2533 H 0.27307 0.40477 0.03943 0.0
H2534 H 0.21899 0.40433 1.00209 0.0
H2535 H 0.17987 0.39786 0.01834 0.0
C2536 C 0.29881 0.38703 0.98877 0.0
C2537 C 0.32061 0.40518 0.99135 0.0
C2538 C 0.27534 0.38761 0.99759 0.0
C2539 C 0.27324 0.40601 0.0094 0.0
C2540 C 0.29481 0.4245 0.01183 0.0
C2541 C 0.3181 0.42428 1.00283 0.0
C2542 C 0.2303 0.39978 0.04411 0.0
C2543 C 0.20367 0.39732 0.03842 0.0
C2544 C 0.25275 0.40377 0.03474 0.0
C2545 C 0.24916 0.40491 0.01945 0.0
C2546 C 0.22247 0.40331 0.01381 0.0
C2547 C 0.20001 0.39981 0.02317 0.0
H2548 H 0.9074 0.05944 0.22962 0.0
H2549 H 0.82434 0.08191 0.24039 0.0
H2550 H 0.90382 0.0196 0.24538 0.0
H2551 H 0.82077 0.04156 0.25625 0.0
H2552 H 0.82233 0.94896 0.27217 0.0
H2553 H 0.82117 0.98966 0.25651 0.0
H2554 H 0.90115 0.01282 0.27218 0.0
H2555 H 0.90236 0.97254 0.28775 0.0
C2556 C 0.88825 0.05584 0.23527 0.0
C2557 C 0.86627 0.0742 0.23382 0.0
C2558 C 0.88627 0.03299 0.2444 0.0
C2559 C 0.86219 0.02763 0.25232 0.0
C2560 C 0.83964 0.04513 0.25033 0.0
C2561 C 0.84168 0.06824 0.24121 0.0
C2562 C 0.83947 0.96298 0.27246 0.0
C2563 C 0.86259 0.95718 0.28112 0.0
C2564 C 0.8388 0.9863 0.26346 0.0
C2565 C 0.86129 1.00424 0.26286 0.0
C2566 C 0.88375 0.99911 0.27208 0.0
C2567 C 0.88436 0.97601 0.2811 0.0
H2568 H 0.23472 0.6212 0.46483 0.0
H2569 H 0.18151 0.6199 0.50264 0.0
H2570 H 0.27419 0.6135 0.48082 0.0
H2571 H 0.22088 0.61252 0.51851 0.0
H2572 H 0.30184 0.64323 0.54073 0.0
H2573 H 0.26085 0.643 0.52547 0.0
H2574 H 0.2956 0.57899 0.49876 0.0
H2575 H 0.33663 0.57893 0.51418 0.0
C2576 C 0.23135 0.61886 0.47649 0.0
C2577 C 0.20485 0.62124 0.48239 0.0
C2578 C 0.25398 0.61438 0.48566 0.0
C2579 C 0.2507 0.61259 0.50096 0.0
C2580 C 0.22414 0.61406 0.50679 0.0
C2581 C 0.20151 0.61812 0.49764 0.0
C2582 C 0.3006 0.62877 0.53176 0.0
C2583 C 0.32253 0.61103 0.52874 0.0
C2584 C 0.27705 0.6286 0.52302 0.0
C2585 C 0.27497 0.61102 0.51087 0.0
C2586 C 0.29665 0.59288 0.50799 0.0
C2587 C 0.32005 0.5927 0.51691 0.0
H2588 H 0.64394 0.08007 0.76433 0.0
H2589 H 0.64773 0.02633 0.80183 0.0
H2590 H 0.64925 0.04083 0.74801 0.0
H2591 H 0.65342 0.98711 0.78544 0.0
H2592 H 0.6836 0.92505 0.75095 0.0
H2593 H 0.68575 0.96628 0.76614 0.0
H2594 H 0.61773 1.00044 0.74226 0.0
H2595 H 0.61527 0.95916 0.72722 0.0
C2596 C 0.6465 0.05999 0.76913 0.0
C2597 C 0.64538 0.05641 0.78444 0.0
C2598 C 0.64933 0.03746 0.75974 0.0
C2599 C 0.65161 0.01083 0.76541 0.0
C2600 C 0.65187 1.00738 0.78072 0.0
C2601 C 0.64856 0.02986 0.79012 0.0
C2602 C 0.66938 0.94152 0.74877 0.0
C2603 C 0.64927 0.93877 0.73783 0.0
C2604 C 0.6705 0.96506 0.75756 0.0
C2605 C 0.65189 0.98662 0.75543 0.0
C2606 C 0.63251 0.98431 0.74411 0.0
C2607 C 0.63106 0.96061 0.73551 0.0
H2608 H 0.68682 0.62034 0.01651 0.0
H2609 H 0.74313 0.62074 0.05297 0.0
H2610 H 0.72494 0.61376 0.99959 0.0
H2611 H 0.78126 0.61375 0.03597 0.0
H2612 H 0.84107 0.58042 1.0011 0.0
H2613 H 0.80092 0.57951 0.01715 0.0
H2614 H 0.7647 0.64502 0.99215 0.0
H2615 H 0.80493 0.64627 0.97625 0.0
C2616 C 0.70724 0.61845 0.02098 0.0
C2617 C 0.71184 0.62109 0.03616 0.0
C2618 C 0.72913 0.61488 0.01123 0.0
C2619 C 0.75615 0.61337 0.01641 0.0
C2620 C 0.76067 0.61467 0.03163 0.0
C2621 C 0.7388 0.61872 0.04138 0.0
C2622 C 0.82435 0.5943 0.99885 0.0
C2623 C 0.82624 0.61337 0.98734 0.0
C2624 C 0.80145 0.59392 0.00814 0.0
C2625 C 0.77965 0.61223 1.00596 0.0
C2626 C 0.78104 0.6305 0.99407 0.0
C2627 C 0.80413 0.63123 0.98496 0.0
H2628 H 0.11145 0.97262 0.78461 0.0
H2629 H 0.19159 0.95015 0.76871 0.0
H2630 H 0.11244 0.01351 0.76948 0.0
H2631 H 0.19249 0.99132 0.75345 0.0
H2632 H 0.19065 0.08304 0.73795 0.0
H2633 H 0.19345 0.04232 0.75351 0.0
H2634 H 0.10948 0.02298 0.74325 0.0
H2635 H 0.10661 0.06338 0.72785 0.0
C2636 C 0.1294 0.97643 0.77796 0.0
C2637 C 0.15132 0.95779 0.77781 0.0
C2638 C 0.12988 0.99989 0.76919 0.0
C2639 C 0.15233 1.00555 0.76002 0.0
C2640 C 0.17486 0.98764 0.76037 0.0
C2641 C 0.17434 0.96401 0.76914 0.0
C2642 C 0.17288 0.06993 0.73888 0.0
C2643 C 0.14832 0.07675 0.7317 0.0
C2644 C 0.1745 0.04656 0.74782 0.0
C2645 C 0.15156 0.02956 0.74985 0.0
C2646 C 0.12737 0.03592 0.74224 0.0
C2647 C 0.12579 0.05908 0.7333 0.0
H2648 H 0.77697 0.39707 0.5504 0.0
H2649 H 0.83489 0.39866 0.51465 0.0
H2650 H 0.73978 0.40612 0.53314 0.0
H2651 H 0.79764 0.40733 0.49743 0.0
H2652 H 0.71772 0.37751 0.47283 0.0
H2653 H 0.75764 0.37751 0.48892 0.0
H2654 H 0.72141 0.44177 0.51488 0.0
H2655 H 0.68154 0.4421 0.49864 0.0
C2656 C 0.78185 0.3998 0.53891 0.0
C2657 C 0.80897 0.39714 0.53395 0.0
C2658 C 0.76053 0.40505 0.52902 0.0
C2659 C 0.76572 0.4073 0.51389 0.0
C2660 C 0.79294 0.40551 0.50899 0.0
C2661 C 0.81432 0.40074 0.5189 0.0
C2662 C 0.71849 0.39206 0.48178 0.0
C2663 C 0.69642 0.40987 0.48439 0.0
C2664 C 0.74141 0.39208 0.491 0.0
C2665 C 0.74267 0.40957 0.50323 0.0
C2666 C 0.72098 0.42795 0.5056 0.0
C2667 C 0.69825 0.42828 0.49621 0.0
H2668 H 0.3182 0.06697 0.27037 0.0
H2669 H 0.39895 0.04458 0.28535 0.0
H2670 H 0.31643 0.02521 0.25549 0.0
H2671 H 0.39716 1.00334 0.27053 0.0
H2672 H 0.31973 0.93112 0.24176 0.0
H2673 H 0.31648 0.97283 0.25664 0.0
H2674 H 0.39835 0.99518 0.24363 0.0
H2675 H 0.4016 0.95405 0.22882 0.0
C2676 C 0.33539 0.05303 0.27067 0.0
C2677 C 0.35886 0.05942 0.27895 0.0
C2678 C 0.33437 0.02911 0.26213 0.0
C2679 C 0.35687 0.0112 0.2616 0.0
C2680 C 0.37973 0.017 0.27041 0.0
C2681 C 0.38068 0.04067 0.27898 0.0
C2682 C 0.33686 0.94517 0.24189 0.0
C2683 C 0.36106 0.93895 0.2342 0.0
C2684 C 0.33499 0.96905 0.25044 0.0
C2685 C 0.35736 0.98707 0.25156 0.0
C2686 C 0.38098 0.98143 0.24331 0.0
C2687 C 0.38277 0.95783 0.23473 0.0
H2688 H 0.79432 0.86701 0.47652 0.0
H2689 H 0.82803 0.93599 0.49994 0.0
H2690 H 0.75443 0.8675 0.49266 0.0
H2691 H 0.78822 0.93619 0.51619 0.0
H2692 H 0.73232 0.89621 0.55306 0.0
H2693 H 0.77014 0.90286 0.5358 0.0
H2694 H 0.71372 0.89734 0.49959 0.0
H2695 H 0.67598 0.89103 0.5167 0.0
C2696 C 0.79304 0.88255 0.48495 0.0
C2697 C 0.81437 0.90152 0.48687 0.0
C2698 C 0.77015 0.88284 0.49421 0.0
C2699 C 0.76823 0.9018 0.50576 0.0
C2700 C 0.78921 0.92121 0.50746 0.0
C2701 C 0.81189 0.92123 0.49804 0.0
C2702 C 0.72791 0.89685 0.54144 0.0
C2703 C 0.70104 0.89305 0.53633 0.0
C2704 C 0.74958 0.90073 0.53155 0.0
C2705 C 0.74494 0.90046 0.51632 0.0
C2706 C 0.718 0.89741 0.51124 0.0
C2707 C 0.69633 0.89397 0.5211 0.0
H2708 H 0.32232 0.55937 0.73905 0.0
H2709 H 0.40919 0.54624 0.73422 0.0
H2710 H 0.31928 0.51866 0.7546 0.0
H2711 H 0.4061 0.50562 0.7494 0.0
H2712 H 0.40017 0.45321 0.78956 0.0
H2713 H 0.39947 0.4943 0.77462 0.0
H2714 H 0.32286 0.46885 0.75542 0.0
H2715 H 0.3233 0.42771 0.77068 0.0
C2716 C 0.3407 0.54766 0.74114 0.0
C2717 C 0.36603 0.5563 0.73544 0.0
C2718 C 0.33896 0.52427 0.75006 0.0
C2719 C 0.36251 0.50898 0.75349 0.0
C2720 C 0.38762 0.5172 0.74735 0.0
C2721 C 0.38936 0.54048 0.73851 0.0
C2722 C 0.38301 0.4564 0.78226 0.0
C2723 C 0.36189 0.43693 0.78129 0.0
C2724 C 0.38271 0.47995 0.77357 0.0
C2725 C 0.36136 0.48479 0.76356 0.0
C2726 C 0.33961 0.46591 0.76301 0.0
C2727 C 0.33987 0.44226 0.77177 0.0
H2728 H 0.83376 0.12648 0.01608 0.0
H2729 H 0.77821 0.12755 0.05293 0.0
H2730 H 0.79536 0.121 0.99941 0.0
H2731 H 0.7396 0.12158 0.03606 0.0
H2732 H 0.68061 0.08653 1.00052 0.0
H2733 H 0.72005 0.08678 0.01703 0.0
H2734 H 0.75575 0.15293 0.99226 0.0
H2735 H 0.71616 0.15308 0.97589 0.0
C2736 C 0.81342 0.12512 0.0207 0.0
C2737 C 0.80919 0.12754 0.03593 0.0
C2738 C 0.79136 0.12215 0.01108 0.0
C2739 C 0.76444 0.12104 0.01639 0.0
C2740 C 0.76016 0.12226 0.03164 0.0
C2741 C 0.78227 0.12571 0.0413 0.0
C2742 C 0.69704 0.10088 0.99845 0.0
C2743 C 0.69525 0.11972 0.98681 0.0
C2744 C 0.7195 0.10117 1.00801 0.0
C2745 C 0.74096 0.11991 1.00598 0.0
C2746 C 0.73961 0.13812 0.99406 0.0
C2747 C 0.71693 0.1382 0.98468 0.0
H2748 H 0.19469 0.58673 0.27461 0.0
H2749 H 0.11563 0.5609 0.29061 0.0
H2750 H 0.19623 0.54671 0.25847 0.0
H2751 H 0.11724 0.52121 0.27461 0.0
H2752 H 0.11106 0.47442 0.23213 0.0
H2753 H 0.11374 0.51406 0.24812 0.0
H2754 H 0.19827 0.4956 0.25746 0.0
H2755 H 0.19565 0.45564 0.24131 0.0
C2756 C 0.17785 0.57235 0.27489 0.0
C2757 C 0.1549 0.57729 0.28384 0.0
C2758 C 0.17873 0.54941 0.2656 0.0
C2759 C 0.15662 0.53098 0.26501 0.0
C2760 C 0.13432 0.53531 0.27448 0.0
C2761 C 0.1335 0.55805 0.28376 0.0
C2762 C 0.13033 0.47878 0.23748 0.0
C2763 C 0.15306 0.46154 0.2355 0.0
C2764 C 0.13181 0.5015 0.24676 0.0
C2765 C 0.15607 0.50779 0.25432 0.0
C2766 C 0.17925 0.49136 0.25182 0.0
C2767 C 0.17774 0.46845 0.24254 0.0
H2768 H 0.18498 0.08403 0.51214 0.0
H2769 H 0.21839 0.15355 0.53522 0.0
H2770 H 0.22562 0.08262 0.49649 0.0
H2771 H 0.25921 0.15173 0.51973 0.0
H2772 H 0.33876 0.12457 0.49726 0.0
H2773 H 0.29992 0.11944 0.51385 0.0
H2774 H 0.24515 0.11623 0.47684 0.0
H2775 H 0.28401 0.12189 0.46015 0.0
C2776 C 0.20119 0.09868 0.51408 0.0
C2777 C 0.19842 0.11888 0.52499 0.0
C2778 C 0.22438 0.09797 0.50502 0.0
C2779 C 0.24559 0.11708 0.50685 0.0
C2780 C 0.2433 0.1366 0.51812 0.0
C2781 C 0.21989 0.13766 0.52698 0.0
C2782 C 0.31853 0.12229 0.49259 0.0
C2783 C 0.31456 0.12364 0.47732 0.0
C2784 C 0.29624 0.11956 0.50214 0.0
C2785 C 0.26947 0.11757 0.49667 0.0
C2786 C 0.26557 0.11758 0.48139 0.0
C2787 C 0.28783 0.12084 0.47183 0.0
H2788 H 0.64578 0.41907 0.26335 0.0
H2789 H 0.64891 0.47365 0.30056 0.0
H2790 H 0.65326 0.45765 0.24689 0.0
H2791 H 0.6567 0.51225 0.284 0.0
H2792 H 0.6909 0.57256 0.24996 0.0
H2793 H 0.69075 0.53162 0.26535 0.0
H2794 H 0.62396 0.49863 0.24001 0.0
H2795 H 0.62385 0.53963 0.22471 0.0
C2796 C 0.64858 0.4392 0.26807 0.0
C2797 C 0.6467 0.44319 0.28334 0.0
C2798 C 0.65267 0.46135 0.25859 0.0
C2799 C 0.65544 0.48804 0.26411 0.0
C2800 C 0.65483 0.49191 0.2794 0.0
C2801 C 0.6503 0.46979 0.28889 0.0
C2802 C 0.67651 0.55637 0.24748 0.0
C2803 C 0.6574 0.55942 0.23605 0.0
C2804 C 0.67628 0.53302 0.2564 0.0
C2805 C 0.65727 0.51192 0.25396 0.0
C2806 C 0.639 0.51441 0.24213 0.0
C2807 C 0.63892 0.53795 0.23336 0.0
H2808 H 0.22276 0.8601 0.97845 0.0
H2809 H 0.20183 0.94369 0.98889 0.0
H2810 H 0.26254 0.86311 0.9943 0.0
H2811 H 0.24195 0.94664 1.00489 0.0
H2812 H 0.30995 0.86441 0.03661 0.0
H2813 H 0.26995 0.86566 0.02083 0.0
H2814 H 0.29318 0.9459 1.00554 0.0
H2815 H 0.33351 0.94473 0.02144 0.0
C2816 C 0.22668 0.87922 0.98405 0.0
C2817 C 0.2088 0.90155 0.98245 0.0
C2818 C 0.24948 0.88088 0.99325 0.0
C2819 C 0.25523 0.90496 1.00111 0.0
C2820 C 0.23813 0.92778 0.99901 0.0
C2821 C 0.21513 0.92607 0.98982 0.0
C2822 C 0.30654 0.88247 0.02999 0.0
C2823 C 0.32524 0.90435 0.03023 0.0
C2824 C 0.28362 0.8831 0.02085 0.0
C2825 C 0.27857 0.90565 0.01168 0.0
C2826 C 0.29645 0.92819 0.01244 0.0
C2827 C 0.31956 0.92752 0.02159 0.0
H2828 H 0.86386 0.49085 0.71398 0.0
H2829 H 0.86751 0.43596 0.751 0.0
H2830 H 0.85761 0.5295 0.73069 0.0
H2831 H 0.86162 0.47466 0.76765 0.0
H2832 H 0.8946 0.55608 0.7893 0.0
H2833 H 0.89248 0.51509 0.77402 0.0
H2834 H 0.82496 0.54968 0.74992 0.0
H2835 H 0.82679 0.59064 0.76534 0.0
C2836 C 0.86288 0.48695 0.72566 0.0
C2837 C 0.86617 0.46024 0.73111 0.0
C2838 C 0.85924 0.50911 0.73524 0.0
C2839 C 0.85927 0.5052 0.75052 0.0
C2840 C 0.86171 0.4784 0.75595 0.0
C2841 C 0.86487 0.45618 0.74637 0.0
C2842 C 0.87895 0.55477 0.78092 0.0
C2843 C 0.86082 0.57668 0.7786 0.0
C2844 C 0.87771 0.53123 0.77218 0.0
C2845 C 0.85861 0.52913 0.76071 0.0
C2846 C 0.84001 0.55073 0.7586 0.0
C2847 C 0.84093 0.57411 0.76753 0.0
H2848 H 0.07558 0.37388 0.10225 0.0
H2849 H 0.16266 0.37656 0.09395 0.0
H2850 H 0.08374 0.37812 0.12827 0.0
H2851 H 0.17074 0.37959 0.12057 0.0
H2852 H 0.15868 0.3423 0.16961 0.0
H2853 H 0.15757 0.3452 0.14311 0.0
H2854 H 0.1059 0.41642 0.1459 0.0
H2855 H 0.10791 0.41448 0.17279 0.0
C2856 C 0.09658 0.37531 0.10593 0.0
C2857 C 0.1185 0.37522 0.09586 0.0
C2858 C 0.10114 0.37795 0.12091 0.0
C2859 C 0.12777 0.3798 0.12639 0.0
C2860 C 0.14994 0.37857 0.11654 0.0
C2861 C 0.14534 0.37659 0.10135 0.0
C2862 C 0.14772 0.3592 0.16473 0.0
C2863 C 0.13361 0.3784 0.17348 0.0
C2864 C 0.14717 0.36077 0.14947 0.0
C2865 C 0.13188 0.3811 0.14248 0.0
C2866 C 0.11803 0.40062 0.15109 0.0
C2867 C 0.11914 0.39948 0.16645 0.0
H2868 H 0.85398 0.88514 0.422 0.0
H2869 H 0.93881 0.86106 0.41926 0.0
H2870 H 0.85207 0.88766 0.39501 0.0
H2871 H 0.93688 0.8636 0.39273 0.0
H2872 H 0.91161 0.83575 0.3468 0.0
H2873 H 0.91211 0.83625 0.37343 0.0
H2874 H 0.87545 0.91654 0.37336 0.0
H2875 H 0.87502 0.91603 0.34628 0.0
C2876 C 0.87202 0.88006 0.41566 0.0
C2877 C 0.89645 0.87269 0.42275 0.0
C2878 C 0.87106 0.88189 0.40028 0.0
C2879 C 0.89438 0.87594 0.39179 0.0
C2880 C 0.91855 0.86821 0.39894 0.0
C2881 C 0.91961 0.86672 0.41417 0.0
C2882 C 0.90398 0.85372 0.35244 0.0
C2883 C 0.89354 0.87598 0.34449 0.0
C2884 C 0.90421 0.85396 0.36769 0.0
C2885 C 0.89371 0.87637 0.37549 0.0
C2886 C 0.88346 0.89891 0.3676 0.0
C2887 C 0.8836 0.89882 0.35217 0.0
H2888 H 0.40048 0.59818 0.67366 0.0
H2889 H 0.35958 0.67616 0.66928 0.0
H2890 H 0.40136 0.59386 0.64691 0.0
H2891 H 0.36021 0.67153 0.64282 0.0
H2892 H 0.3511 0.64495 0.59443 0.0
H2893 H 0.34304 0.64357 0.62105 0.0
H2894 H 0.4273 0.62085 0.628 0.0
H2895 H 0.43555 0.62274 0.60198 0.0
C2896 C 0.39133 0.61416 0.66707 0.0
C2897 C 0.37999 0.63748 0.67371 0.0
C2898 C 0.39184 0.61171 0.65175 0.0
C2899 C 0.38075 0.63235 0.64277 0.0
C2900 C 0.36852 0.6551 0.64942 0.0
C2901 C 0.36833 0.65775 0.66466 0.0
C2902 C 0.3678 0.63956 0.60166 0.0
C2903 C 0.39388 0.63375 0.59595 0.0
C2904 C 0.3632 0.63873 0.61688 0.0
C2905 C 0.38448 0.63167 0.62659 0.0
C2906 C 0.41034 0.62571 0.62083 0.0
C2907 C 0.41502 0.62696 0.6058 0.0
H2908 H 0.65658 0.11062 0.84409 0.0
H2909 H 0.58794 0.16585 0.84511 0.0
H2910 H 0.65507 0.1072 0.87105 0.0
H2911 H 0.5862 0.16245 0.87175 0.0
H2912 H 0.57244 0.12958 0.91692 0.0
H2913 H 0.57593 0.12702 0.89058 0.0
H2914 H 0.66296 0.14076 0.89321 0.0
H2915 H 0.65967 0.14315 0.92013 0.0
C2916 C 0.64067 0.12127 0.85008 0.0
C2917 C 0.62189 0.13791 0.84261 0.0
C2918 C 0.64011 0.11973 0.86546 0.0
C2919 C 0.62053 0.13457 0.87351 0.0
C2920 C 0.60133 0.15053 0.86588 0.0
C2921 C 0.60216 0.15235 0.85064 0.0
C2922 C 0.5925 0.13201 0.91205 0.0
C2923 C 0.61581 0.13679 0.92078 0.0
C2924 C 0.59441 0.13054 0.89686 0.0
C2925 C 0.61965 0.1338 0.8898 0.0
C2926 C 0.64322 0.13798 0.8984 0.0
C2927 C 0.64131 0.13959 0.91377 0.0
H2928 H 0.14157 0.69412 0.35427 0.0
H2929 H 0.11472 0.61094 0.34693 0.0
H2930 H 0.14223 0.68615 0.38046 0.0
H2931 H 0.11485 0.60327 0.3735 0.0
H2932 H 0.07822 0.62132 0.41983 0.0
H2933 H 0.0856 0.62327 0.39375 0.0
H2934 H 0.16549 0.65836 0.40078 0.0
H2935 H 0.15848 0.65575 0.42746 0.0
C2936 C 0.13611 0.67394 0.35818 0.0
C2937 C 0.12819 0.65309 0.34836 0.0
C2938 C 0.13668 0.66941 0.37327 0.0
C2939 C 0.12885 0.64406 0.37905 0.0
C2940 C 0.12106 0.62305 0.36932 0.0
C2941 C 0.12089 0.62745 0.35412 0.0
C2942 C 0.09772 0.62898 0.41602 0.0
C2943 C 0.11791 0.63814 0.42592 0.0
C2944 C 0.10191 0.62997 0.40094 0.0
C2945 C 0.12619 0.64066 0.39518 0.0
C2946 C 0.14656 0.6499 0.40495 0.0
C2947 C 0.14256 0.64843 0.4202 0.0
H2948 H 0.6131 0.90741 0.6744 0.0
H2949 H 0.63581 0.82322 0.66645 0.0
H2950 H 0.61418 0.91592 0.64792 0.0
H2951 H 0.63748 0.83202 0.64031 0.0
H2952 H 0.65616 0.86307 0.59375 0.0
H2953 H 0.66277 0.85986 0.62042 0.0
H2954 H 0.58407 0.89755 0.6274 0.0
H2955 H 0.57702 0.90001 0.60127 0.0
C2956 C 0.61859 0.89083 0.66709 0.0
C2957 C 0.62444 0.86468 0.67265 0.0
C2958 C 0.6193 0.89572 0.65195 0.0
C2959 C 0.62623 0.87468 0.64207 0.0
C2960 C 0.63263 0.84877 0.64764 0.0
C2961 C 0.6315 0.84376 0.66269 0.0
C2962 C 0.64046 0.87094 0.60099 0.0
C2963 C 0.61619 0.88201 0.59526 0.0
C2964 C 0.64422 0.86909 0.61624 0.0
C2965 C 0.62402 0.87875 0.62598 0.0
C2966 C 0.60023 0.89045 0.62021 0.0
C2967 C 0.59625 0.89179 0.60513 0.0
H2968 H 0.37246 0.32256 0.85341 0.0
H2969 H 0.39588 0.40644 0.84509 0.0
H2970 H 0.37097 0.33171 0.87947 0.0
H2971 H 0.39502 0.41531 0.87157 0.0
H2972 H 0.4318 0.3994 0.91843 0.0
H2973 H 0.42478 0.39708 0.8923 0.0
H2974 H 0.34589 0.35967 0.89919 0.0
H2975 H 0.35248 0.36273 0.92587 0.0
C2976 C 0.37698 0.34313 0.85707 0.0
C2977 C 0.38413 0.36385 0.84702 0.0
C2978 C 0.37594 0.34834 0.87209 0.0
C2979 C 0.38257 0.37425 0.87757 0.0
C2980 C 0.38969 0.39511 0.86762 0.0
C2981 C 0.39028 0.39002 0.85247 0.0
C2982 C 0.41253 0.39127 0.91456 0.0
C2983 C 0.39253 0.38153 0.92442 0.0
C2984 C 0.40856 0.39003 0.89947 0.0
C2985 C 0.38473 0.37845 0.89367 0.0
C2986 C 0.36447 0.36881 0.9034 0.0
C2987 C 0.36822 0.37056 0.91865 0.0
H2988 H 0.88284 0.10971 0.17059 0.0
H2989 H 0.93109 0.18307 0.16594 0.0
H2990 H 0.88122 0.10507 0.14366 0.0
H2991 H 0.92953 0.17857 0.13941 0.0
H2992 H 0.94899 0.14493 0.09476 0.0
H2993 H 0.9484 0.14536 0.12118 0.0
H2994 H 0.86095 0.13348 0.12098 0.0
H2995 H 0.86143 0.13268 0.0939 0.0
C2996 C 0.89369 0.12434 0.16383 0.0
C2997 C 0.90759 0.14641 0.1703 0.0
C2998 C 0.89231 0.12201 0.14847 0.0
C2999 C 0.90516 0.14152 0.13945 0.0
C3000 C 0.91958 0.16311 0.14605 0.0
C3001 C 0.92065 0.16559 0.16124 0.0
C3002 C 0.92947 0.14236 0.1002 0.0
C3003 C 0.90518 0.13882 0.09211 0.0
C3004 C 0.92921 0.14266 0.11543 0.0
C3005 C 0.90468 0.13945 0.12318 0.0
C3006 C 0.88021 0.13577 0.11525 0.0
C3007 C 0.88043 0.13565 0.09979 0.0
H3008 H 0.9032 0.6075 0.84238 0.0
H3009 H 0.87947 0.69157 0.84992 0.0
H3010 H 0.90319 0.59989 0.86905 0.0
H3011 H 0.87869 0.68364 0.87599 0.0
H3012 H 0.85993 0.65591 0.92246 0.0
H3013 H 0.85341 0.65649 0.89576 0.0
H3014 H 0.93279 0.61963 0.88983 0.0
H3015 H 0.93975 0.61972 0.91603 0.0
C3016 C 0.89774 0.6242 0.84961 0.0
C3017 C 0.89115 0.65004 0.84388 0.0
C3018 C 0.89762 0.61983 0.86485 0.0
C3019 C 0.89046 0.6411 0.87457 0.0
C3020 C 0.88363 0.66669 0.86881 0.0
C3021 C 0.88425 0.67118 0.85375 0.0
C3022 C 0.87583 0.6477 0.91546 0.0
C3023 C 0.90026 0.63766 0.92151 0.0
C3024 C 0.8721 0.64797 0.90019 0.0
C3025 C 0.89252 0.63781 0.89073 0.0
C3026 C 0.91648 0.62707 0.89681 0.0
C3027 C 0.92042 0.62725 0.91193 0.0
H3028 H 0.15957 0.16325 0.58937 0.0
H3029 H 0.08343 0.1194 0.59496 0.0
H3030 H 0.1645 0.16551 0.61612 0.0
H3031 H 0.08858 0.12147 0.62126 0.0
H3032 H 0.11526 0.11193 0.66874 0.0
H3033 H 0.11673 0.10502 0.64215 0.0
H3034 H 0.13912 0.18967 0.63613 0.0
H3035 H 0.13745 0.19672 0.66239 0.0
C3036 C 0.14412 0.15381 0.59622 0.0
C3037 C 0.12121 0.14105 0.5899 0.0
C3038 C 0.14689 0.15516 0.61153 0.0
C3039 C 0.12698 0.14349 0.62082 0.0
C3040 C 0.10452 0.13022 0.61447 0.0
C3041 C 0.10158 0.12917 0.59929 0.0
C3042 C 0.1206 0.12901 0.66175 0.0
C3043 C 0.12628 0.15483 0.6678 0.0
C3044 C 0.12147 0.12506 0.64652 0.0
C3045 C 0.12828 0.14678 0.63703 0.0
C3046 C 0.13434 0.1724 0.64311 0.0
C3047 C 0.13319 0.17642 0.65824 0.0
H3048 H 0.66146 0.36332 0.41989 0.0
H3049 H 0.582 0.39989 0.41294 0.0
H3050 H 0.66732 0.35964 0.39324 0.0
H3051 H 0.58829 0.39685 0.3867 0.0
H3052 H 0.61728 0.40346 0.33877 0.0
H3053 H 0.61756 0.41379 0.36516 0.0
H3054 H 0.64159 0.33071 0.37445 0.0
H3055 H 0.6406 0.32014 0.34862 0.0
C3056 C 0.64551 0.37099 0.41277 0.0
C3057 C 0.62136 0.38203 0.41867 0.0
C3058 C 0.64885 0.36889 0.39752 0.0
C3059 C 0.62832 0.3782 0.38789 0.0
C3060 C 0.60467 0.38999 0.39379 0.0
C3061 C 0.60111 0.39162 0.40893 0.0
C3062 C 0.62269 0.38748 0.34646 0.0
C3063 C 0.62908 0.36104 0.34145 0.0
C3064 C 0.62294 0.39339 0.36154 0.0
C3065 C 0.63004 0.37312 0.37185 0.0
C3066 C 0.63667 0.34692 0.3668 0.0
C3067 C 0.63594 0.3409 0.35189 0.0
H3068 H 0.36396 0.85917 0.09336 0.0
H3069 H 0.44274 0.8979 0.09929 0.0
H3070 H 0.35877 0.85679 0.12011 0.0
H3071 H 0.43694 0.89637 0.12559 0.0
H3072 H 0.40575 0.90638 0.17342 0.0
H3073 H 0.40567 0.91458 0.14681 0.0
H3074 H 0.38753 0.82942 0.13921 0.0
H3075 H 0.38856 0.82091 0.16528 0.0
C3076 C 0.37988 0.86759 0.10027 0.0
C3077 C 0.40363 0.87891 0.09406 0.0
C3078 C 0.3769 0.86627 0.11556 0.0
C3079 C 0.39736 0.87672 0.12489 0.0
C3080 C 0.42063 0.88868 0.11869 0.0
C3081 C 0.42388 0.88947 0.10352 0.0
C3082 C 0.40184 0.88945 0.16606 0.0
C3083 C 0.39696 0.86307 0.1716 0.0
C3084 C 0.40162 0.89416 0.15086 0.0
C3085 C 0.39602 0.87269 0.141 0.0
C3086 C 0.39121 0.84647 0.14655 0.0
C3087 C 0.392 0.84166 0.16158 0.0
H3088 H 0.9268 0.36179 0.66882 0.0
H3089 H 0.84781 0.40048 0.67088 0.0
H3090 H 0.92448 0.36138 0.64216 0.0
H3091 H 0.84434 0.3986 0.64413 0.0
H3092 H 0.85944 0.40706 0.59365 0.0
H3093 H 0.85847 0.41213 0.62033 0.0
H3094 H 0.9016 0.33535 0.62467 0.0
H3095 H 0.90393 0.33154 0.59809 0.0
C3096 C 0.90927 0.37094 0.66347 0.0
C3097 C 0.88772 0.38158 0.67183 0.0
C3098 C 0.90753 0.3701 0.6482 0.0
C3099 C 0.88378 0.3791 0.6409 0.0
C3100 C 0.86293 0.39143 0.64929 0.0
C3101 C 0.86498 0.39276 0.66462 0.0
C3102 C 0.86774 0.39083 0.6004 0.0
C3103 C 0.88146 0.36873 0.59388 0.0
C3104 C 0.86748 0.39384 0.6157 0.0
C3105 C 0.88069 0.37458 0.62475 0.0
C3106 C 0.89212 0.35119 0.61812 0.0
C3107 C 0.89286 0.34854 0.60288 0.0
H3108 H 0.35258 0.17526 0.34567 0.0
H3109 H 0.40516 0.10449 0.34196 0.0
H3110 H 0.35433 0.17212 0.37215 0.0
H3111 H 0.40752 0.10208 0.36879 0.0
H3112 H 0.43952 0.14296 0.41181 0.0
H3113 H 0.42984 0.13863 0.386 0.0
H3114 H 0.34326 0.1401 0.39503 0.0
H3115 H 0.35289 0.14347 0.42151 0.0
C3116 C 0.36404 0.15858 0.35043 0.0
C3117 C 0.37865 0.13999 0.34155 0.0
C3118 C 0.36493 0.15684 0.36569 0.0
C3119 C 0.38095 0.13687 0.37251 0.0
C3120 C 0.39493 0.11768 0.36375 0.0
C3121 C 0.3936 0.11906 0.3484 0.0
C3122 C 0.41828 0.14221 0.40849 0.0
C3123 C 0.39694 0.14327 0.41889 0.0
C3124 C 0.41283 0.13947 0.39361 0.0
C3125 C 0.38587 0.13838 0.38854 0.0
C3126 C 0.3643 0.14054 0.39873 0.0
C3127 C 0.36978 0.14271 0.41383 0.0
H3128 H 0.63761 0.68995 0.17039 0.0
H3129 H 0.62906 0.60194 0.17152 0.0
H3130 H 0.63988 0.68886 0.14399 0.0
H3131 H 0.63097 0.60106 0.14455 0.0
H3132 H 0.65985 0.61182 0.09575 0.0
H3133 H 0.66325 0.61167 0.12271 0.0
H3134 H 0.60626 0.67904 0.12465 0.0
H3135 H 0.603 0.67901 0.09801 0.0
C3136 C 0.63614 0.67023 0.16504 0.0
C3137 C 0.63299 0.64597 0.17321 0.0
C3138 C 0.63741 0.6697 0.14981 0.0
C3139 C 0.63553 0.64493 0.14214 0.0
C3140 C 0.63271 0.62048 0.15018 0.0
C3141 C 0.63133 0.62099 0.1656 0.0
C3142 C 0.64889 0.62713 0.10201 0.0
C3143 C 0.6318 0.64597 0.09488 0.0
C3144 C 0.65038 0.62671 0.1174 0.0
C3145 C 0.63499 0.64532 0.12582 0.0
C3146 C 0.61864 0.66465 0.11853 0.0
C3147 C 0.61692 0.66482 0.10327 0.0
H3148 H 0.1145 0.9178 0.84184 0.0
H3149 H 0.15102 0.83759 0.84577 0.0
H3150 H 0.11581 0.92242 0.86862 0.0
H3151 H 0.15215 0.84223 0.87207 0.0
H3152 H 0.16853 0.86467 0.9194 0.0
H3153 H 0.17305 0.86634 0.89265 0.0
H3154 H 0.09214 0.90112 0.88933 0.0
H3155 H 0.08761 0.89967 0.91568 0.0
C3156 C 0.12296 0.90131 0.84833 0.0
C3157 C 0.13266 0.8774 0.84153 0.0
C3158 C 0.12368 0.9039 0.86367 0.0
C3159 C 0.13427 0.88272 0.87251 0.0
C3160 C 0.14438 0.85915 0.86566 0.0
C3161 C 0.1435 0.85648 0.85046 0.0
C3162 C 0.15183 0.87285 0.91296 0.0
C3163 C 0.12776 0.882 0.9198 0.0
C3164 C 0.15437 0.87379 0.89763 0.0
C3165 C 0.13297 0.88401 0.88883 0.0
C3166 C 0.10922 0.89362 0.89572 0.0
C3167 C 0.10661 0.89253 0.91093 0.0
loop_
_geom_bond_atom_site_label_1
_geom_bond_atom_site_label_2
_geom_bond_distance
_geom_bond_site_symmetry_2
_ccdc_geom_bond_type
Co0 O2 2.143 . S
Co0 O8 2.074 . S
Co0 O11 2.093 . S
Co0 O24 2.097 . S
Co0 N41 2.151 . S
Co0 N49 2.214 . S
Co1 O2 2.160 . S
Co1 O7 2.058 . S
Co1 O17 2.057 . S
Co1 O32 2.037 . S
Co1 N36 2.145 . S
Co1 N57 2.257 . S
O2 Co0 2.143 . S
O2 Co1 2.160 . S
C3 O4 1.278 . S
C3 O11 1.224 . S
O4 C3 1.278 . S
C5 O6 1.245 . S
C5 O17 1.232 . S
O6 C5 1.245 . S
O7 Co1 2.058 . S
O7 C33 1.269 . S
O8 Co0 2.074 . S
O8 C33 1.257 . S
H9 C34 0.930 . S
H10 C40 0.930 . S
O11 Co0 2.093 . S
O11 C3 1.224 . S
H12 C44 0.929 . S
H13 C46 0.930 . S
H14 C47 0.930 . S
H15 C45 0.929 . S
H16 C48 0.928 . S
O17 Co1 2.057 . S
O17 C5 1.232 . S
H18 C37 0.929 . S
H19 C38 0.929 . S
H20 C50 0.928 1_655 S
H21 C42 0.929 . S
H22 C51 0.930 . S
H23 C43 0.931 . S
O24 Co0 2.097 . S
O24 C52 1.214 . S
H25 C53 0.929 . S
H26 C54 0.929 . S
H27 C55 0.952 . S
H28 C56 0.929 . S
H29 C58 0.930 . S
H30 C35 0.930 . S
H31 C39 0.930 . S
O32 Co1 2.037 . S
O32 C52 1.234 . S
C33 O7 1.269 . S
C33 O8 1.257 . S
C34 H9 0.930 . S
C34 C37 1.388 . S
C34 C39 1.418 . S
C35 H30 0.930 . S
C35 C38 1.404 . S
C35 C39 1.353 . S
N36 Co1 2.145 . S
N36 C37 1.397 . S
N36 C38 1.334 . S
C37 H18 0.929 . S
C37 C34 1.388 . S
C37 N36 1.397 . S
C38 H19 0.929 . S
C38 C35 1.404 . S
C38 N36 1.334 . S
C39 H31 0.930 . S
C39 C34 1.418 . S
C39 C35 1.353 . S
C40 H10 0.930 . S
C40 N41 1.330 . S
C40 C42 1.446 . S
N41 Co0 2.151 . S
N41 C40 1.330 . S
N41 C45 1.418 . S
C42 H21 0.929 . S
C42 C40 1.446 . S
C42 C43 1.332 . S
C43 H23 0.931 . S
C43 C42 1.332 . S
C43 C44 1.267 . S
C44 H12 0.929 . S
C44 C43 1.267 . S
C44 C45 1.251 . S
C45 H15 0.929 . S
C45 N41 1.418 . S
C45 C44 1.251 . S
C46 H13 0.930 . S
C46 C48 1.406 1_655 S
C46 C51 1.261 . S
C47 H14 0.930 . S
C47 N49 1.325 . S
C47 C50 1.357 . S
C48 H16 0.928 . S
C48 C46 1.406 1_455 S
C48 N49 1.261 . S
N49 Co0 2.214 . S
N49 C47 1.325 . S
N49 C48 1.261 . S
C50 H20 0.928 1_455 S
C50 C47 1.357 . S
C50 C51 1.312 1_455 S
C51 H22 0.930 . S
C51 C46 1.261 . S
C51 C50 1.312 1_655 S
C52 O24 1.214 . S
C52 O32 1.234 . S
C53 H25 0.929 . S
C53 C56 1.391 . S
C53 C58 1.391 1_556 S
C54 H26 0.929 . S
C54 C55 1.314 1_554 S
C54 N57 1.391 . S
C55 H27 0.952 . S
C55 C54 1.314 1_556 S
C55 C56 1.450 . S
C56 H28 0.929 . S
C56 C53 1.391 . S
C56 C55 1.450 . S
N57 Co1 2.257 . S
N57 C54 1.391 . S
N57 C58 1.388 . S
C58 H29 0.930 . S
C58 C53 1.391 1_554 S
C58 N57 1.388 . S
Co59 O61 2.143 . S
Co59 O67 2.074 . S
Co59 O70 2.093 . S
Co59 O83 2.097 . S
Co59 N100 2.151 . S
Co59 N108 2.214 . S
Co60 O61 2.160 . S
Co60 O66 2.058 . S
Co60 O76 2.057 . S
Co60 O91 2.037 . S
Co60 N95 2.145 . S
Co60 N116 2.257 . S
O61 Co59 2.143 . S
O61 Co60 2.160 . S
C62 O63 1.278 . S
C62 O70 1.224 . S
O63 C62 1.278 . S
C64 O65 1.245 . S
C64 O76 1.232 . S
O65 C64 1.245 . S
O66 Co60 2.058 . S
O66 C92 1.269 . S
O67 Co59 2.074 . S
O67 C92 1.257 . S
H68 C93 0.930 . S
H69 C99 0.930 . S
O70 Co59 2.093 . S
O70 C62 1.224 . S
H71 C103 0.929 . S
H72 C105 0.930 . S
H73 C106 0.930 . S
H74 C104 0.929 . S
H75 C107 0.928 . S
O76 Co60 2.057 . S
O76 C64 1.232 . S
H77 C96 0.929 . S
H78 C97 0.929 . S
H79 C109 0.931 . S
H80 C101 0.929 . S
H81 C110 0.930 . S
H82 C102 0.931 . S
O83 Co59 2.097 . S
O83 C111 1.214 . S
H84 C112 0.929 . S
H85 C113 0.929 . S
H86 C114 0.930 . S
H87 C115 0.929 . S
H88 C117 0.930 . S
H89 C94 0.930 . S
H90 C98 0.950 . S
O91 Co60 2.037 . S
O91 C111 1.234 . S
C92 O66 1.269 . S
C92 O67 1.257 . S
C93 H68 0.930 . S
C93 C96 1.388 . S
C93 C98 1.418 . S
C94 H89 0.930 . S
C94 C97 1.404 . S
C94 C98 1.353 . S
N95 Co60 2.145 . S
N95 C96 1.397 . S
N95 C97 1.334 . S
C96 H77 0.929 . S
C96 C93 1.388 . S
C96 N95 1.397 . S
C97 H78 0.929 . S
C97 C94 1.404 . S
C97 N95 1.334 . S
C98 H90 0.950 . S
C98 C93 1.418 . S
C98 C94 1.353 . S
C99 H69 0.930 . S
C99 N100 1.330 . S
C99 C101 1.446 . S
N100 Co59 2.151 . S
N100 C99 1.330 . S
N100 C104 1.418 . S
C101 H80 0.929 . S
C101 C99 1.446 . S
C101 C102 1.332 . S
C102 H82 0.931 . S
C102 C101 1.332 . S
C102 C103 1.267 . S
C103 H71 0.929 . S
C103 C102 1.267 . S
C103 C104 1.251 . S
C104 H74 0.929 . S
C104 N100 1.418 . S
C104 C103 1.251 . S
C105 H72 0.930 . S
C105 C107 1.406 . S
C105 C110 1.261 . S
C106 H73 0.930 . S
C106 N108 1.325 . S
C106 C109 1.357 . S
C107 H75 0.928 . S
C107 C105 1.406 . S
C107 N108 1.261 . S
N108 Co59 2.214 . S
N108 C106 1.325 . S
N108 C107 1.261 . S
C109 H79 0.931 . S
C109 C106 1.357 . S
C109 C110 1.312 . S
C110 H81 0.930 . S
C110 C105 1.261 . S
C110 C109 1.312 . S
C111 O83 1.214 . S
C111 O91 1.234 . S
C112 H84 0.929 . S
C112 C115 1.391 . S
C112 C117 1.391 . S
C113 H85 0.929 . S
C113 C114 1.390 . S
C113 N116 1.391 . S
C114 H86 0.930 . S
C114 C113 1.390 . S
C114 C115 1.392 . S
C115 H87 0.929 . S
C115 C112 1.391 . S
C115 C114 1.392 . S
N116 Co60 2.257 . S
N116 C113 1.391 . S
N116 C117 1.388 . S
C117 H88 0.930 . S
C117 C112 1.391 . S
C117 N116 1.388 . S
Co118 O120 2.143 . S
Co118 O126 2.074 . S
Co118 O129 2.093 . S
Co118 O142 2.097 . S
Co118 N159 2.151 . S
Co118 N167 2.214 . S
Co119 O120 2.160 . S
Co119 O125 2.058 . S
Co119 O135 2.057 . S
Co119 O150 2.037 . S
Co119 N154 2.145 . S
Co119 N175 2.257 . S
O120 Co118 2.143 . S
O120 Co119 2.160 . S
C121 O122 1.278 . S
C121 O129 1.224 . S
O122 C121 1.278 . S
C123 O124 1.245 . S
C123 O135 1.232 . S
O124 C123 1.245 . S
O125 Co119 2.058 . S
O125 C151 1.269 . S
O126 Co118 2.074 . S
O126 C151 1.257 . S
H127 C152 0.930 . S
H128 C158 0.930 . S
O129 Co118 2.093 . S
O129 C121 1.224 . S
H130 C162 0.929 . S
H131 C164 0.930 . S
H132 C165 0.930 . S
H133 C163 0.929 . S
H134 C166 0.928 . S
O135 Co119 2.057 . S
O135 C123 1.232 . S
H136 C155 0.929 . S
H137 C156 0.929 . S
H138 C168 0.931 . S
H139 C160 0.929 . S
H140 C169 0.930 . S
H141 C161 0.931 . S
O142 Co118 2.097 . S
O142 C170 1.214 . S
H143 C171 0.929 . S
H144 C172 0.929 . S
H145 C173 0.930 . S
H146 C174 0.929 . S
H147 C176 0.930 . S
H148 C153 0.930 . S
H149 C157 0.930 . S
O150 Co119 2.037 . S
O150 C170 1.234 . S
C151 O125 1.269 . S
C151 O126 1.257 . S
C152 H127 0.930 . S
C152 C155 1.388 . S
C152 C157 1.418 . S
C153 H148 0.930 . S
C153 C156 1.404 . S
C153 C157 1.353 . S
N154 Co119 2.145 . S
N154 C155 1.397 . S
N154 C156 1.334 . S
C155 H136 0.929 . S
C155 C152 1.388 . S
C155 N154 1.397 . S
C156 H137 0.929 . S
C156 C153 1.404 . S
C156 N154 1.334 . S
C157 H149 0.930 . S
C157 C152 1.418 . S
C157 C153 1.353 . S
C158 H128 0.930 . S
C158 N159 1.330 . S
C158 C160 1.446 . S
N159 Co118 2.151 . S
N159 C158 1.330 . S
N159 C163 1.418 . S
C160 H139 0.929 . S
C160 C158 1.446 . S
C160 C161 1.332 . S
C161 H141 0.931 . S
C161 C160 1.332 . S
C161 C162 1.267 . S
C162 H130 0.929 . S
C162 C161 1.267 . S
C162 C163 1.251 . S
C163 H133 0.929 . S
C163 N159 1.418 . S
C163 C162 1.251 . S
C164 H131 0.930 . S
C164 C166 1.406 . S
C164 C169 1.261 . S
C165 H132 0.930 . S
C165 N167 1.325 . S
C165 C168 1.357 . S
C166 H134 0.928 . S
C166 C164 1.406 . S
C166 N167 1.261 . S
N167 Co118 2.214 . S
N167 C165 1.325 . S
N167 C166 1.261 . S
C168 H138 0.931 . S
C168 C165 1.357 . S
C168 C169 1.312 . S
C169 H140 0.930 . S
C169 C164 1.261 . S
C169 C168 1.312 . S
C170 O142 1.214 . S
C170 O150 1.234 . S
C171 H143 0.929 . S
C171 C174 1.391 . S
C171 C176 1.391 . S
C172 H144 0.929 . S
C172 C173 1.390 . S
C172 N175 1.391 . S
C173 H145 0.930 . S
C173 C172 1.390 . S
C173 C174 1.392 . S
C174 H146 0.929 . S
C174 C171 1.391 . S
C174 C173 1.392 . S
N175 Co119 2.257 . S
N175 C172 1.391 . S
N175 C176 1.388 . S
C176 H147 0.930 . S
C176 C171 1.391 . S
C176 N175 1.388 . S
Co177 O179 2.143 . S
Co177 O185 2.074 . S
Co177 O188 2.093 . S
Co177 O201 2.097 . S
Co177 N218 2.151 . S
Co177 N226 2.214 . S
Co178 O179 2.160 . S
Co178 O184 2.058 . S
Co178 O194 2.057 . S
Co178 O209 2.037 . S
Co178 N213 2.145 . S
Co178 N234 2.257 . S
O179 Co177 2.143 . S
O179 Co178 2.160 . S
C180 O181 1.278 . S
C180 O188 1.224 . S
O181 C180 1.278 . S
C182 O183 1.245 . S
C182 O194 1.232 . S
O183 C182 1.245 . S
O184 Co178 2.058 . S
O184 C210 1.269 . S
O185 Co177 2.074 . S
O185 C210 1.257 . S
H186 C211 0.930 . S
H187 C217 0.930 . S
O188 Co177 2.093 . S
O188 C180 1.224 . S
H189 C221 0.929 . S
H190 C223 0.930 . S
H191 C224 0.930 . S
H192 C222 0.929 . S
H193 C225 0.928 . S
O194 Co178 2.057 . S
O194 C182 1.232 . S
H195 C214 0.929 . S
H196 C215 0.929 . S
H197 C227 0.931 . S
H198 C219 0.929 . S
H199 C228 0.930 . S
H200 C220 0.931 . S
O201 Co177 2.097 . S
O201 C229 1.214 . S
H202 C230 0.929 . S
H203 C231 0.929 . S
H204 C232 0.930 . S
H205 C233 0.929 . S
H206 C235 0.930 . S
H207 C212 0.930 . S
H208 C216 0.930 . S
O209 Co178 2.037 . S
O209 C229 1.234 . S
C210 O184 1.269 . S
C210 O185 1.257 . S
C211 H186 0.930 . S
C211 C214 1.388 . S
C211 C216 1.418 . S
C212 H207 0.930 . S
C212 C215 1.404 . S
C212 C216 1.353 . S
N213 Co178 2.145 . S
N213 C214 1.397 . S
N213 C215 1.334 . S
C214 H195 0.929 . S
C214 C211 1.388 . S
C214 N213 1.397 . S
C215 H196 0.929 . S
C215 C212 1.404 . S
C215 N213 1.334 . S
C216 H208 0.930 . S
C216 C211 1.418 . S
C216 C212 1.353 . S
C217 H187 0.930 . S
C217 N218 1.330 . S
C217 C219 1.446 . S
N218 Co177 2.151 . S
N218 C217 1.330 . S
N218 C222 1.418 . S
C219 H198 0.929 . S
C219 C217 1.446 . S
C219 C220 1.332 . S
C220 H200 0.931 . S
C220 C219 1.332 . S
C220 C221 1.267 . S
C221 H189 0.929 . S
C221 C220 1.267 . S
C221 C222 1.251 . S
C222 H192 0.929 . S
C222 N218 1.418 . S
C222 C221 1.251 . S
C223 H190 0.930 . S
C223 C225 1.406 . S
C223 C228 1.261 . S
C224 H191 0.930 . S
C224 N226 1.325 . S
C224 C227 1.357 . S
C225 H193 0.928 . S
C225 C223 1.406 . S
C225 N226 1.261 . S
N226 Co177 2.214 . S
N226 C224 1.325 . S
N226 C225 1.261 . S
C227 H197 0.931 . S
C227 C224 1.357 . S
C227 C228 1.312 . S
C228 H199 0.930 . S
C228 C223 1.261 . S
C228 C227 1.312 . S
C229 O201 1.214 . S
C229 O209 1.234 . S
C230 H202 0.929 . S
C230 C233 1.391 . S
C230 C235 1.391 . S
C231 H203 0.929 . S
C231 C232 1.390 . S
C231 N234 1.391 . S
C232 H204 0.930 . S
C232 C231 1.390 . S
C232 C233 1.392 . S
C233 H205 0.929 . S
C233 C230 1.391 . S
C233 C232 1.392 . S
N234 Co178 2.257 . S
N234 C231 1.391 . S
N234 C235 1.388 . S
C235 H206 0.930 . S
C235 C230 1.391 . S
C235 N234 1.388 . S
Co236 O238 2.143 . S
Co236 O244 2.074 . S
Co236 O247 2.093 . S
Co236 O260 2.097 . S
Co236 N277 2.151 . S
Co236 N285 2.214 . S
Co237 O238 2.160 . S
Co237 O243 2.058 . S
Co237 O253 2.057 . S
Co237 O268 2.037 . S
Co237 N272 2.145 . S
Co237 N293 2.257 . S
O238 Co236 2.143 . S
O238 Co237 2.160 . S
C239 O240 1.278 . S
C239 O247 1.224 . S
O240 C239 1.278 . S
C241 O242 1.245 . S
C241 O253 1.232 . S
O242 C241 1.245 . S
O243 Co237 2.058 . S
O243 C269 1.269 . S
O244 Co236 2.074 . S
O244 C269 1.257 . S
H245 C270 0.930 . S
H246 C276 0.930 . S
O247 Co236 2.093 . S
O247 C239 1.224 . S
H248 C280 0.929 . S
H249 C282 0.930 . S
H250 C283 0.930 . S
H251 C281 0.929 . S
H252 C284 0.928 . S
O253 Co237 2.057 . S
O253 C241 1.232 . S
H254 C273 0.929 . S
H255 C274 0.929 . S
H256 C286 0.928 1_655 S
H257 C278 0.929 . S
H258 C287 0.930 . S
H259 C279 0.931 . S
O260 Co236 2.097 . S
O260 C288 1.214 . S
H261 C289 0.929 . S
H262 C290 0.929 . S
H263 C291 0.930 . S
H264 C292 0.929 . S
H265 C294 0.930 . S
H266 C271 0.930 . S
H267 C275 0.930 . S
O268 Co237 2.037 . S
O268 C288 1.234 . S
C269 O243 1.269 . S
C269 O244 1.257 . S
C270 H245 0.930 . S
C270 C273 1.388 . S
C270 C275 1.418 . S
C271 H266 0.930 . S
C271 C274 1.404 . S
C271 C275 1.353 . S
N272 Co237 2.145 . S
N272 C273 1.397 . S
N272 C274 1.334 . S
C273 H254 0.929 . S
C273 C270 1.388 . S
C273 N272 1.397 . S
C274 H255 0.929 . S
C274 C271 1.404 . S
C274 N272 1.334 . S
C275 H267 0.930 . S
C275 C270 1.418 . S
C275 C271 1.353 . S
C276 H246 0.930 . S
C276 N277 1.330 . S
C276 C278 1.446 . S
N277 Co236 2.151 . S
N277 C276 1.330 . S
N277 C281 1.418 . S
C278 H257 0.929 . S
C278 C276 1.446 . S
C278 C279 1.332 . S
C279 H259 0.931 . S
C279 C278 1.332 . S
C279 C280 1.267 . S
C280 H248 0.929 . S
C280 C279 1.267 . S
C280 C281 1.251 . S
C281 H251 0.929 . S
C281 N277 1.418 . S
C281 C280 1.251 . S
C282 H249 0.930 . S
C282 C284 1.406 1_655 S
C282 C287 1.261 . S
C283 H250 0.930 . S
C283 N285 1.325 . S
C283 C286 1.357 . S
C284 H252 0.928 . S
C284 C282 1.406 1_455 S
C284 N285 1.261 . S
N285 Co236 2.214 . S
N285 C283 1.325 . S
N285 C284 1.261 . S
C286 H256 0.928 1_455 S
C286 C283 1.357 . S
C286 C287 1.312 1_455 S
C287 H258 0.930 . S
C287 C282 1.261 . S
C287 C286 1.312 1_655 S
C288 O260 1.214 . S
C288 O268 1.234 . S
C289 H261 0.929 . S
C289 C292 1.391 . S
C289 C294 1.391 . S
C290 H262 0.929 . S
C290 C291 1.390 . S
C290 N293 1.391 . S
C291 H263 0.930 . S
C291 C290 1.390 . S
C291 C292 1.392 . S
C292 H264 0.929 . S
C292 C289 1.391 . S
C292 C291 1.392 . S
N293 Co237 2.257 . S
N293 C290 1.391 . S
N293 C294 1.388 . S
C294 H265 0.930 . S
C294 C289 1.391 . S
C294 N293 1.388 . S
Co295 O297 2.143 . S
Co295 O303 2.074 . S
Co295 O306 2.093 . S
Co295 O319 2.097 . S
Co295 N336 2.151 . S
Co295 N344 2.214 . S
Co296 O297 2.160 . S
Co296 O302 2.058 . S
Co296 O312 2.057 . S
Co296 O327 2.037 . S
Co296 N331 2.145 . S
Co296 N352 2.257 . S
O297 Co295 2.143 . S
O297 Co296 2.160 . S
C298 O299 1.278 . S
C298 O306 1.224 . S
O299 C298 1.278 . S
C300 O301 1.245 . S
C300 O312 1.232 . S
O301 C300 1.245 . S
O302 Co296 2.058 . S
O302 C328 1.269 . S
O303 Co295 2.074 . S
O303 C328 1.257 . S
H304 C329 0.930 . S
H305 C335 0.930 . S
O306 Co295 2.093 . S
O306 C298 1.224 . S
H307 C339 0.929 . S
H308 C341 0.930 . S
H309 C342 0.930 . S
H310 C340 0.929 . S
H311 C343 0.928 . S
O312 Co296 2.057 . S
O312 C300 1.232 . S
H313 C332 0.929 . S
H314 C333 0.929 . S
H315 C345 0.931 . S
H316 C337 0.929 . S
H317 C346 0.930 . S
H318 C338 0.931 . S
O319 Co295 2.097 . S
O319 C347 1.214 . S
H320 C348 0.929 . S
H321 C349 0.929 . S
H322 C350 0.930 . S
H323 C351 0.929 . S
H324 C353 0.930 . S
H325 C330 0.930 . S
H326 C334 0.930 . S
O327 Co296 2.037 . S
O327 C347 1.234 . S
C328 O302 1.269 . S
C328 O303 1.257 . S
C329 H304 0.930 . S
C329 C332 1.388 . S
C329 C334 1.418 . S
C330 H325 0.930 . S
C330 C333 1.404 . S
C330 C334 1.353 . S
N331 Co296 2.145 . S
N331 C332 1.397 . S
N331 C333 1.334 . S
C332 H313 0.929 . S
C332 C329 1.388 . S
C332 N331 1.397 . S
C333 H314 0.929 . S
C333 C330 1.404 . S
C333 N331 1.334 . S
C334 H326 0.930 . S
C334 C329 1.418 . S
C334 C330 1.353 . S
C335 H305 0.930 . S
C335 N336 1.330 . S
C335 C337 1.446 . S
N336 Co295 2.151 . S
N336 C335 1.330 . S
N336 C340 1.418 . S
C337 H316 0.929 . S
C337 C335 1.446 . S
C337 C338 1.332 . S
C338 H318 0.931 . S
C338 C337 1.332 . S
C338 C339 1.267 . S
C339 H307 0.929 . S
C339 C338 1.267 . S
C339 C340 1.251 . S
C340 H310 0.929 . S
C340 N336 1.418 . S
C340 C339 1.251 . S
C341 H308 0.930 . S
C341 C343 1.406 . S
C341 C346 1.261 . S
C342 H309 0.930 . S
C342 N344 1.325 . S
C342 C345 1.357 . S
C343 H311 0.928 . S
C343 C341 1.406 . S
C343 N344 1.261 . S
N344 Co295 2.214 . S
N344 C342 1.325 . S
N344 C343 1.261 . S
C345 H315 0.931 . S
C345 C342 1.357 . S
C345 C346 1.312 . S
C346 H317 0.930 . S
C346 C341 1.261 . S
C346 C345 1.312 . S
C347 O319 1.214 . S
C347 O327 1.234 . S
C348 H320 0.929 . S
C348 C351 1.391 . S
C348 C353 1.391 . S
C349 H321 0.929 . S
C349 C350 1.390 . S
C349 N352 1.391 . S
C350 H322 0.930 . S
C350 C349 1.390 . S
C350 C351 1.392 . S
C351 H323 0.929 . S
C351 C348 1.391 . S
C351 C350 1.392 . S
N352 Co296 2.257 . S
N352 C349 1.391 . S
N352 C353 1.388 . S
C353 H324 0.930 . S
C353 C348 1.391 . S
C353 N352 1.388 . S
Co354 O356 2.143 . S
Co354 O362 2.074 . S
Co354 O365 2.093 . S
Co354 O378 2.097 . S
Co354 N395 2.151 . S
Co354 N403 2.214 . S
Co355 O356 2.160 . S
Co355 O361 2.058 . S
Co355 O371 2.057 . S
Co355 O386 2.037 . S
Co355 N390 2.145 . S
Co355 N411 2.257 . S
O356 Co354 2.143 . S
O356 Co355 2.160 . S
C357 O358 1.278 . S
C357 O365 1.224 . S
O358 C357 1.278 . S
C359 O360 1.245 . S
C359 O371 1.232 . S
O360 C359 1.245 . S
O361 Co355 2.058 . S
O361 C387 1.269 . S
O362 Co354 2.074 . S
O362 C387 1.257 . S
H363 C388 0.930 . S
H364 C394 0.930 . S
O365 Co354 2.093 . S
O365 C357 1.224 . S
H366 C398 0.929 . S
H367 C400 0.930 . S
H368 C401 0.930 . S
H369 C399 0.929 . S
H370 C402 0.928 . S
O371 Co355 2.057 . S
O371 C359 1.232 . S
H372 C391 0.929 . S
H373 C392 0.929 . S
H374 C404 0.931 . S
H375 C396 0.929 . S
H376 C405 0.930 . S
H377 C397 0.931 . S
O378 Co354 2.097 . S
O378 C406 1.214 . S
H379 C407 0.929 . S
H380 C408 0.929 . S
H381 C409 0.952 . S
H382 C410 0.929 . S
H383 C412 0.930 . S
H384 C389 0.930 . S
H385 C393 0.930 . S
O386 Co355 2.037 . S
O386 C406 1.234 . S
C387 O361 1.269 . S
C387 O362 1.257 . S
C388 H363 0.930 . S
C388 C391 1.388 . S
C388 C393 1.418 . S
C389 H384 0.930 . S
C389 C392 1.404 . S
C389 C393 1.353 . S
N390 Co355 2.145 . S
N390 C391 1.397 . S
N390 C392 1.334 . S
C391 H372 0.929 . S
C391 C388 1.388 . S
C391 N390 1.397 . S
C392 H373 0.929 . S
C392 C389 1.404 . S
C392 N390 1.334 . S
C393 H385 0.930 . S
C393 C388 1.418 . S
C393 C389 1.353 . S
C394 H364 0.930 . S
C394 N395 1.330 . S
C394 C396 1.446 . S
N395 Co354 2.151 . S
N395 C394 1.330 . S
N395 C399 1.418 . S
C396 H375 0.929 . S
C396 C394 1.446 . S
C396 C397 1.332 . S
C397 H377 0.931 . S
C397 C396 1.332 . S
C397 C398 1.267 . S
C398 H366 0.929 . S
C398 C397 1.267 . S
C398 C399 1.251 . S
C399 H369 0.929 . S
C399 N395 1.418 . S
C399 C398 1.251 . S
C400 H367 0.930 . S
C400 C402 1.406 . S
C400 C405 1.261 . S
C401 H368 0.930 . S
C401 N403 1.325 . S
C401 C404 1.357 . S
C402 H370 0.928 . S
C402 C400 1.406 . S
C402 N403 1.261 . S
N403 Co354 2.214 . S
N403 C401 1.325 . S
N403 C402 1.261 . S
C404 H374 0.931 . S
C404 C401 1.357 . S
C404 C405 1.312 . S
C405 H376 0.930 . S
C405 C400 1.261 . S
C405 C404 1.312 . S
C406 O378 1.214 . S
C406 O386 1.234 . S
C407 H379 0.929 . S
C407 C410 1.391 . S
C407 C412 1.391 1_554 S
C408 H380 0.929 . S
C408 C409 1.314 1_556 S
C408 N411 1.391 . S
C409 H381 0.952 . S
C409 C408 1.314 1_554 S
C409 C410 1.451 . S
C410 H382 0.929 . S
C410 C407 1.391 . S
C410 C409 1.451 . S
N411 Co355 2.257 . S
N411 C408 1.391 . S
N411 C412 1.388 . S
C412 H383 0.930 . S
C412 C407 1.391 1_556 S
C412 N411 1.388 . S
Co413 O415 2.143 . S
Co413 O421 2.074 . S
Co413 O424 2.093 . S
Co413 O437 2.097 . S
Co413 N454 2.151 . S
Co413 N462 2.214 . S
Co414 O415 2.160 . S
Co414 O420 2.058 . S
Co414 O430 2.057 . S
Co414 O445 2.037 . S
Co414 N449 2.145 . S
Co414 N470 2.257 . S
O415 Co413 2.143 . S
O415 Co414 2.160 . S
C416 O417 1.278 . S
C416 O424 1.224 . S
O417 C416 1.278 . S
C418 O419 1.245 . S
C418 O430 1.232 . S
O419 C418 1.245 . S
O420 Co414 2.058 . S
O420 C446 1.269 . S
O421 Co413 2.074 . S
O421 C446 1.257 . S
H422 C447 0.930 . S
H423 C453 0.930 . S
O424 Co413 2.093 . S
O424 C416 1.224 . S
H425 C457 0.929 . S
H426 C459 0.930 . S
H427 C460 0.930 . S
H428 C458 0.929 . S
H429 C461 0.928 . S
O430 Co414 2.057 . S
O430 C418 1.232 . S
H431 C450 0.929 . S
H432 C451 0.929 . S
H433 C463 0.931 . S
H434 C455 0.929 . S
H435 C464 0.930 . S
H436 C456 0.931 . S
O437 Co413 2.097 . S
O437 C465 1.214 . S
H438 C466 0.929 . S
H439 C467 0.929 . S
H440 C468 0.930 . S
H441 C469 0.929 . S
H442 C471 0.930 . S
H443 C448 0.930 . S
H444 C452 0.950 . S
O445 Co414 2.037 . S
O445 C465 1.234 . S
C446 O420 1.269 . S
C446 O421 1.257 . S
C447 H422 0.930 . S
C447 C450 1.388 . S
C447 C452 1.418 . S
C448 H443 0.930 . S
C448 C451 1.404 . S
C448 C452 1.353 . S
N449 Co414 2.145 . S
N449 C450 1.397 . S
N449 C451 1.334 . S
C450 H431 0.929 . S
C450 C447 1.388 . S
C450 N449 1.397 . S
C451 H432 0.929 . S
C451 C448 1.404 . S
C451 N449 1.334 . S
C452 H444 0.950 . S
C452 C447 1.418 . S
C452 C448 1.353 . S
C453 H423 0.930 . S
C453 N454 1.330 . S
C453 C455 1.446 . S
N454 Co413 2.151 . S
N454 C453 1.330 . S
N454 C458 1.418 . S
C455 H434 0.929 . S
C455 C453 1.446 . S
C455 C456 1.332 . S
C456 H436 0.931 . S
C456 C455 1.332 . S
C456 C457 1.267 . S
C457 H425 0.929 . S
C457 C456 1.267 . S
C457 C458 1.251 . S
C458 H428 0.929 . S
C458 N454 1.418 . S
C458 C457 1.251 . S
C459 H426 0.930 . S
C459 C461 1.406 . S
C459 C464 1.261 . S
C460 H427 0.930 . S
C460 N462 1.325 . S
C460 C463 1.357 . S
C461 H429 0.928 . S
C461 C459 1.406 . S
C461 N462 1.261 . S
N462 Co413 2.214 . S
N462 C460 1.325 . S
N462 C461 1.261 . S
C463 H433 0.931 . S
C463 C460 1.357 . S
C463 C464 1.312 . S
C464 H435 0.930 . S
C464 C459 1.261 . S
C464 C463 1.312 . S
C465 O437 1.214 . S
C465 O445 1.234 . S
C466 H438 0.929 . S
C466 C469 1.391 . S
C466 C471 1.391 . S
C467 H439 0.929 . S
C467 C468 1.390 . S
C467 N470 1.391 . S
C468 H440 0.930 . S
C468 C467 1.390 . S
C468 C469 1.392 . S
C469 H441 0.929 . S
C469 C466 1.391 . S
C469 C468 1.392 . S
N470 Co414 2.257 . S
N470 C467 1.391 . S
N470 C471 1.388 . S
C471 H442 0.930 . S
C471 C466 1.391 . S
C471 N470 1.388 . S
Co472 O474 2.143 . S
Co472 O480 2.074 . S
Co472 O483 2.093 . S
Co472 O496 2.097 . S
Co472 N513 2.151 . S
Co472 N521 2.214 . S
Co473 O474 2.160 . S
Co473 O479 2.058 . S
Co473 O489 2.057 . S
Co473 O504 2.037 . S
Co473 N508 2.145 . S
Co473 N529 2.257 . S
O474 Co472 2.143 . S
O474 Co473 2.160 . S
C475 O476 1.278 . S
C475 O483 1.224 . S
O476 C475 1.278 . S
C477 O478 1.245 . S
C477 O489 1.232 . S
O478 C477 1.245 . S
O479 Co473 2.058 . S
O479 C505 1.269 . S
O480 Co472 2.074 . S
O480 C505 1.257 . S
H481 C506 0.930 . S
H482 C512 0.930 . S
O483 Co472 2.093 . S
O483 C475 1.224 . S
H484 C516 0.929 . S
H485 C518 0.930 . S
H486 C519 0.930 . S
H487 C517 0.929 . S
H488 C520 0.928 . S
O489 Co473 2.057 . S
O489 C477 1.232 . S
H490 C509 0.929 . S
H491 C510 0.929 . S
H492 C522 0.928 1_455 S
H493 C514 0.929 . S
H494 C523 0.930 . S
H495 C515 0.931 . S
O496 Co472 2.097 . S
O496 C524 1.214 . S
H497 C525 0.929 . S
H498 C526 0.929 . S
H499 C527 0.952 . S
H500 C528 0.929 . S
H501 C530 0.930 . S
H502 C507 0.930 . S
H503 C511 0.930 . S
O504 Co473 2.037 . S
O504 C524 1.234 . S
C505 O479 1.269 . S
C505 O480 1.257 . S
C506 H481 0.930 . S
C506 C509 1.388 . S
C506 C511 1.418 . S
C507 H502 0.930 . S
C507 C510 1.404 . S
C507 C511 1.353 . S
N508 Co473 2.145 . S
N508 C509 1.397 . S
N508 C510 1.334 . S
C509 H490 0.929 . S
C509 C506 1.388 . S
C509 N508 1.397 . S
C510 H491 0.929 . S
C510 C507 1.404 . S
C510 N508 1.334 . S
C511 H503 0.930 . S
C511 C506 1.418 . S
C511 C507 1.353 . S
C512 H482 0.930 . S
C512 N513 1.330 . S
C512 C514 1.446 . S
N513 Co472 2.151 . S
N513 C512 1.330 . S
N513 C517 1.418 . S
C514 H493 0.929 . S
C514 C512 1.446 . S
C514 C515 1.332 . S
C515 H495 0.931 . S
C515 C514 1.332 . S
C515 C516 1.267 . S
C516 H484 0.929 . S
C516 C515 1.267 . S
C516 C517 1.251 . S
C517 H487 0.929 . S
C517 N513 1.418 . S
C517 C516 1.251 . S
C518 H485 0.930 . S
C518 C520 1.406 1_455 S
C518 C523 1.261 . S
C519 H486 0.930 . S
C519 N521 1.325 . S
C519 C522 1.357 . S
C520 H488 0.928 . S
C520 C518 1.406 1_655 S
C520 N521 1.261 . S
N521 Co472 2.214 . S
N521 C519 1.325 . S
N521 C520 1.261 . S
C522 H492 0.928 1_655 S
C522 C519 1.357 . S
C522 C523 1.312 1_655 S
C523 H494 0.930 . S
C523 C518 1.261 . S
C523 C522 1.312 1_455 S
C524 O496 1.214 . S
C524 O504 1.234 . S
C525 H497 0.929 . S
C525 C528 1.391 . S
C525 C530 1.391 1_554 S
C526 H498 0.929 . S
C526 C527 1.314 1_556 S
C526 N529 1.391 . S
C527 H499 0.952 . S
C527 C526 1.314 1_554 S
C527 C528 1.450 . S
C528 H500 0.929 . S
C528 C525 1.391 . S
C528 C527 1.450 . S
N529 Co473 2.257 . S
N529 C526 1.391 . S
N529 C530 1.388 . S
C530 H501 0.930 . S
C530 C525 1.391 1_556 S
C530 N529 1.388 . S
Co531 O533 2.143 . S
Co531 O539 2.074 . S
Co531 O542 2.093 . S
Co531 O555 2.097 . S
Co531 N572 2.151 . S
Co531 N580 2.214 . S
Co532 O533 2.160 . S
Co532 O538 2.058 . S
Co532 O548 2.057 . S
Co532 O563 2.037 . S
Co532 N567 2.145 . S
Co532 N588 2.257 . S
O533 Co531 2.143 . S
O533 Co532 2.160 . S
C534 O535 1.278 . S
C534 O542 1.224 . S
O535 C534 1.278 . S
C536 O537 1.245 . S
C536 O548 1.232 . S
O537 C536 1.245 . S
O538 Co532 2.058 . S
O538 C564 1.269 . S
O539 Co531 2.074 . S
O539 C564 1.257 . S
H540 C565 0.930 . S
H541 C571 0.930 . S
O542 Co531 2.093 . S
O542 C534 1.224 . S
H543 C575 0.929 . S
H544 C577 0.930 . S
H545 C578 0.930 . S
H546 C576 0.929 . S
H547 C579 0.928 . S
O548 Co532 2.057 . S
O548 C536 1.232 . S
H549 C568 0.929 . S
H550 C569 0.929 . S
H551 C581 0.931 . S
H552 C573 0.929 . S
H553 C582 0.930 . S
H554 C574 0.931 . S
O555 Co531 2.097 . S
O555 C583 1.214 . S
H556 C584 0.929 . S
H557 C585 0.929 . S
H558 C586 0.930 . S
H559 C587 0.929 . S
H560 C589 0.930 . S
H561 C566 0.930 . S
H562 C570 0.950 . S
O563 Co532 2.037 . S
O563 C583 1.234 . S
C564 O538 1.269 . S
C564 O539 1.257 . S
C565 H540 0.930 . S
C565 C568 1.388 . S
C565 C570 1.418 . S
C566 H561 0.930 . S
C566 C569 1.404 . S
C566 C570 1.353 . S
N567 Co532 2.145 . S
N567 C568 1.397 . S
N567 C569 1.334 . S
C568 H549 0.929 . S
C568 C565 1.388 . S
C568 N567 1.397 . S
C569 H550 0.929 . S
C569 C566 1.404 . S
C569 N567 1.334 . S
C570 H562 0.950 . S
C570 C565 1.418 . S
C570 C566 1.353 . S
C571 H541 0.930 . S
C571 N572 1.330 . S
C571 C573 1.446 . S
N572 Co531 2.151 . S
N572 C571 1.330 . S
N572 C576 1.418 . S
C573 H552 0.929 . S
C573 C571 1.446 . S
C573 C574 1.332 . S
C574 H554 0.931 . S
C574 C573 1.332 . S
C574 C575 1.267 . S
C575 H543 0.929 . S
C575 C574 1.267 . S
C575 C576 1.251 . S
C576 H546 0.929 . S
C576 N572 1.418 . S
C576 C575 1.251 . S
C577 H544 0.930 . S
C577 C579 1.406 . S
C577 C582 1.261 . S
C578 H545 0.930 . S
C578 N580 1.325 . S
C578 C581 1.357 . S
C579 H547 0.928 . S
C579 C577 1.406 . S
C579 N580 1.261 . S
N580 Co531 2.214 . S
N580 C578 1.325 . S
N580 C579 1.261 . S
C581 H551 0.931 . S
C581 C578 1.357 . S
C581 C582 1.312 . S
C582 H553 0.930 . S
C582 C577 1.261 . S
C582 C581 1.312 . S
C583 O555 1.214 . S
C583 O563 1.234 . S
C584 H556 0.929 . S
C584 C587 1.391 . S
C584 C589 1.391 . S
C585 H557 0.929 . S
C585 C586 1.390 . S
C585 N588 1.391 . S
C586 H558 0.930 . S
C586 C585 1.390 . S
C586 C587 1.392 . S
C587 H559 0.929 . S
C587 C584 1.391 . S
C587 C586 1.392 . S
N588 Co532 2.257 . S
N588 C585 1.391 . S
N588 C589 1.388 . S
C589 H560 0.930 . S
C589 C584 1.391 . S
C589 N588 1.388 . S
Co590 O592 2.143 . S
Co590 O598 2.074 . S
Co590 O601 2.093 . S
Co590 O614 2.097 . S
Co590 N631 2.151 . S
Co590 N639 2.214 . S
Co591 O592 2.160 . S
Co591 O597 2.058 . S
Co591 O607 2.057 . S
Co591 O622 2.037 . S
Co591 N626 2.145 . S
Co591 N647 2.257 . S
O592 Co590 2.143 . S
O592 Co591 2.160 . S
C593 O594 1.278 . S
C593 O601 1.224 . S
O594 C593 1.278 . S
C595 O596 1.245 . S
C595 O607 1.232 . S
O596 C595 1.245 . S
O597 Co591 2.058 . S
O597 C623 1.269 . S
O598 Co590 2.074 . S
O598 C623 1.257 . S
H599 C624 0.930 . S
H600 C630 0.930 . S
O601 Co590 2.093 . S
O601 C593 1.224 . S
H602 C634 0.929 . S
H603 C636 0.930 . S
H604 C637 0.930 . S
H605 C635 0.929 . S
H606 C638 0.928 . S
O607 Co591 2.057 . S
O607 C595 1.232 . S
H608 C627 0.929 . S
H609 C628 0.929 . S
H610 C640 0.931 . S
H611 C632 0.929 . S
H612 C641 0.930 . S
H613 C633 0.931 . S
O614 Co590 2.097 . S
O614 C642 1.214 . S
H615 C643 0.929 . S
H616 C644 0.929 . S
H617 C645 0.930 . S
H618 C646 0.929 . S
H619 C648 0.930 . S
H620 C625 0.930 . S
H621 C629 0.930 . S
O622 Co591 2.037 . S
O622 C642 1.234 . S
C623 O597 1.269 . S
C623 O598 1.257 . S
C624 H599 0.930 . S
C624 C627 1.388 . S
C624 C629 1.418 . S
C625 H620 0.930 . S
C625 C628 1.404 . S
C625 C629 1.353 . S
N626 Co591 2.145 . S
N626 C627 1.397 . S
N626 C628 1.334 . S
C627 H608 0.929 . S
C627 C624 1.388 . S
C627 N626 1.397 . S
C628 H609 0.929 . S
C628 C625 1.404 . S
C628 N626 1.334 . S
C629 H621 0.930 . S
C629 C624 1.418 . S
C629 C625 1.353 . S
C630 H600 0.930 . S
C630 N631 1.330 . S
C630 C632 1.446 . S
N631 Co590 2.151 . S
N631 C630 1.330 . S
N631 C635 1.418 . S
C632 H611 0.929 . S
C632 C630 1.446 . S
C632 C633 1.332 . S
C633 H613 0.931 . S
C633 C632 1.332 . S
C633 C634 1.267 . S
C634 H602 0.929 . S
C634 C633 1.267 . S
C634 C635 1.251 . S
C635 H605 0.929 . S
C635 N631 1.418 . S
C635 C634 1.251 . S
C636 H603 0.930 . S
C636 C638 1.406 . S
C636 C641 1.261 . S
C637 H604 0.930 . S
C637 N639 1.325 . S
C637 C640 1.357 . S
C638 H606 0.928 . S
C638 C636 1.406 . S
C638 N639 1.261 . S
N639 Co590 2.214 . S
N639 C637 1.325 . S
N639 C638 1.261 . S
C640 H610 0.931 . S
C640 C637 1.357 . S
C640 C641 1.312 . S
C641 H612 0.930 . S
C641 C636 1.261 . S
C641 C640 1.312 . S
C642 O614 1.214 . S
C642 O622 1.234 . S
C643 H615 0.929 . S
C643 C646 1.391 . S
C643 C648 1.391 . S
C644 H616 0.929 . S
C644 C645 1.390 . S
C644 N647 1.391 . S
C645 H617 0.930 . S
C645 C644 1.390 . S
C645 C646 1.392 . S
C646 H618 0.929 . S
C646 C643 1.391 . S
C646 C645 1.392 . S
N647 Co591 2.257 . S
N647 C644 1.391 . S
N647 C648 1.388 . S
C648 H619 0.930 . S
C648 C643 1.391 . S
C648 N647 1.388 . S
Co649 O651 2.143 . S
Co649 O657 2.074 . S
Co649 O660 2.093 . S
Co649 O673 2.097 . S
Co649 N690 2.151 . S
Co649 N698 2.214 . S
Co650 O651 2.160 . S
Co650 O656 2.058 . S
Co650 O666 2.057 . S
Co650 O681 2.037 . S
Co650 N685 2.145 . S
Co650 N706 2.257 . S
O651 Co649 2.143 . S
O651 Co650 2.160 . S
C652 O653 1.278 . S
C652 O660 1.224 . S
O653 C652 1.278 . S
C654 O655 1.245 . S
C654 O666 1.232 . S
O655 C654 1.245 . S
O656 Co650 2.058 . S
O656 C682 1.269 . S
O657 Co649 2.074 . S
O657 C682 1.257 . S
H658 C683 0.930 . S
H659 C689 0.930 . S
O660 Co649 2.093 . S
O660 C652 1.224 . S
H661 C693 0.929 . S
H662 C695 0.930 . S
H663 C696 0.930 . S
H664 C694 0.929 . S
H665 C697 0.928 . S
O666 Co650 2.057 . S
O666 C654 1.232 . S
H667 C686 0.929 . S
H668 C687 0.929 . S
H669 C699 0.931 . S
H670 C691 0.929 . S
H671 C700 0.930 . S
H672 C692 0.931 . S
O673 Co649 2.097 . S
O673 C701 1.214 . S
H674 C702 0.929 . S
H675 C703 0.929 . S
H676 C704 0.930 . S
H677 C705 0.929 . S
H678 C707 0.930 . S
H679 C684 0.930 . S
H680 C688 0.930 . S
O681 Co650 2.037 . S
O681 C701 1.234 . S
C682 O656 1.269 . S
C682 O657 1.257 . S
C683 H658 0.930 . S
C683 C686 1.388 . S
C683 C688 1.418 . S
C684 H679 0.930 . S
C684 C687 1.404 . S
C684 C688 1.353 . S
N685 Co650 2.145 . S
N685 C686 1.397 . S
N685 C687 1.334 . S
C686 H667 0.929 . S
C686 C683 1.388 . S
C686 N685 1.397 . S
C687 H668 0.929 . S
C687 C684 1.404 . S
C687 N685 1.334 . S
C688 H680 0.930 . S
C688 C683 1.418 . S
C688 C684 1.353 . S
C689 H659 0.930 . S
C689 N690 1.330 . S
C689 C691 1.446 . S
N690 Co649 2.151 . S
N690 C689 1.330 . S
N690 C694 1.418 . S
C691 H670 0.929 . S
C691 C689 1.446 . S
C691 C692 1.332 . S
C692 H672 0.931 . S
C692 C691 1.332 . S
C692 C693 1.267 . S
C693 H661 0.929 . S
C693 C692 1.267 . S
C693 C694 1.251 . S
C694 H664 0.929 . S
C694 N690 1.418 . S
C694 C693 1.251 . S
C695 H662 0.930 . S
C695 C697 1.406 . S
C695 C700 1.261 . S
C696 H663 0.930 . S
C696 N698 1.325 . S
C696 C699 1.357 . S
C697 H665 0.928 . S
C697 C695 1.406 . S
C697 N698 1.261 . S
N698 Co649 2.214 . S
N698 C696 1.325 . S
N698 C697 1.261 . S
C699 H669 0.931 . S
C699 C696 1.357 . S
C699 C700 1.312 . S
C700 H671 0.930 . S
C700 C695 1.261 . S
C700 C699 1.312 . S
C701 O673 1.214 . S
C701 O681 1.234 . S
C702 H674 0.929 . S
C702 C705 1.391 . S
C702 C707 1.391 . S
C703 H675 0.929 . S
C703 C704 1.390 . S
C703 N706 1.391 . S
C704 H676 0.930 . S
C704 C703 1.390 . S
C704 C705 1.392 . S
C705 H677 0.929 . S
C705 C702 1.391 . S
C705 C704 1.392 . S
N706 Co650 2.257 . S
N706 C703 1.391 . S
N706 C707 1.388 . S
C707 H678 0.930 . S
C707 C702 1.391 . S
C707 N706 1.388 . S
Co708 O710 2.143 . S
Co708 O716 2.074 . S
Co708 O719 2.093 . S
Co708 O732 2.097 . S
Co708 N749 2.151 . S
Co708 N757 2.214 . S
Co709 O710 2.160 . S
Co709 O715 2.058 . S
Co709 O725 2.057 . S
Co709 O740 2.037 . S
Co709 N744 2.145 . S
Co709 N765 2.257 . S
O710 Co708 2.143 . S
O710 Co709 2.160 . S
C711 O712 1.278 . S
C711 O719 1.224 . S
O712 C711 1.278 . S
C713 O714 1.245 . S
C713 O725 1.232 . S
O714 C713 1.245 . S
O715 Co709 2.058 . S
O715 C741 1.269 . S
O716 Co708 2.074 . S
O716 C741 1.257 . S
H717 C742 0.930 . S
H718 C748 0.930 . S
O719 Co708 2.093 . S
O719 C711 1.224 . S
H720 C752 0.929 . S
H721 C754 0.930 . S
H722 C755 0.930 . S
H723 C753 0.929 . S
H724 C756 0.928 . S
O725 Co709 2.057 . S
O725 C713 1.232 . S
H726 C745 0.929 . S
H727 C746 0.929 . S
H728 C758 0.928 1_455 S
H729 C750 0.929 . S
H730 C759 0.930 . S
H731 C751 0.931 . S
O732 Co708 2.097 . S
O732 C760 1.214 . S
H733 C761 0.929 . S
H734 C762 0.929 . S
H735 C763 0.930 . S
H736 C764 0.929 . S
H737 C766 0.930 . S
H738 C743 0.930 . S
H739 C747 0.930 . S
O740 Co709 2.037 . S
O740 C760 1.234 . S
C741 O715 1.269 . S
C741 O716 1.257 . S
C742 H717 0.930 . S
C742 C745 1.388 . S
C742 C747 1.418 . S
C743 H738 0.930 . S
C743 C746 1.404 . S
C743 C747 1.353 . S
N744 Co709 2.145 . S
N744 C745 1.397 . S
N744 C746 1.334 . S
C745 H726 0.929 . S
C745 C742 1.388 . S
C745 N744 1.397 . S
C746 H727 0.929 . S
C746 C743 1.404 . S
C746 N744 1.334 . S
C747 H739 0.930 . S
C747 C742 1.418 . S
C747 C743 1.353 . S
C748 H718 0.930 . S
C748 N749 1.330 . S
C748 C750 1.446 . S
N749 Co708 2.151 . S
N749 C748 1.330 . S
N749 C753 1.418 . S
C750 H729 0.929 . S
C750 C748 1.446 . S
C750 C751 1.332 . S
C751 H731 0.931 . S
C751 C750 1.332 . S
C751 C752 1.267 . S
C752 H720 0.929 . S
C752 C751 1.267 . S
C752 C753 1.251 . S
C753 H723 0.929 . S
C753 N749 1.418 . S
C753 C752 1.251 . S
C754 H721 0.930 . S
C754 C756 1.406 1_455 S
C754 C759 1.261 . S
C755 H722 0.930 . S
C755 N757 1.325 . S
C755 C758 1.357 . S
C756 H724 0.928 . S
C756 C754 1.406 1_655 S
C756 N757 1.261 . S
N757 Co708 2.214 . S
N757 C755 1.325 . S
N757 C756 1.261 . S
C758 H728 0.928 1_655 S
C758 C755 1.357 . S
C758 C759 1.312 1_655 S
C759 H730 0.930 . S
C759 C754 1.261 . S
C759 C758 1.312 1_455 S
C760 O732 1.214 . S
C760 O740 1.234 . S
C761 H733 0.929 . S
C761 C764 1.391 . S
C761 C766 1.391 . S
C762 H734 0.929 . S
C762 C763 1.390 . S
C762 N765 1.391 . S
C763 H735 0.930 . S
C763 C762 1.390 . S
C763 C764 1.392 . S
C764 H736 0.929 . S
C764 C761 1.391 . S
C764 C763 1.392 . S
N765 Co709 2.257 . S
N765 C762 1.391 . S
N765 C766 1.388 . S
C766 H737 0.930 . S
C766 C761 1.391 . S
C766 N765 1.388 . S
Co767 O769 2.143 . S
Co767 O775 2.074 . S
Co767 O778 2.093 . S
Co767 O791 2.097 . S
Co767 N808 2.151 . S
Co767 N816 2.214 . S
Co768 O769 2.160 . S
Co768 O774 2.058 . S
Co768 O784 2.057 . S
Co768 O799 2.037 . S
Co768 N803 2.145 . S
Co768 N824 2.257 . S
O769 Co767 2.143 . S
O769 Co768 2.160 . S
C770 O771 1.278 . S
C770 O778 1.224 . S
O771 C770 1.278 . S
C772 O773 1.245 . S
C772 O784 1.232 . S
O773 C772 1.245 . S
O774 Co768 2.058 . S
O774 C800 1.269 . S
O775 Co767 2.074 . S
O775 C800 1.257 . S
H776 C801 0.930 . S
H777 C807 0.930 . S
O778 Co767 2.093 . S
O778 C770 1.224 . S
H779 C811 0.929 . S
H780 C813 0.930 . S
H781 C814 0.930 . S
H782 C812 0.929 . S
H783 C815 0.928 . S
O784 Co768 2.057 . S
O784 C772 1.232 . S
H785 C804 0.929 . S
H786 C805 0.929 . S
H787 C817 0.931 . S
H788 C809 0.929 . S
H789 C818 0.930 . S
H790 C810 0.931 . S
O791 Co767 2.097 . S
O791 C819 1.214 . S
H792 C820 0.929 . S
H793 C821 0.929 . S
H794 C822 0.930 . S
H795 C823 0.929 . S
H796 C825 0.930 . S
H797 C802 0.930 . S
H798 C806 0.930 . S
O799 Co768 2.037 . S
O799 C819 1.234 . S
C800 O774 1.269 . S
C800 O775 1.257 . S
C801 H776 0.930 . S
C801 C804 1.388 . S
C801 C806 1.418 . S
C802 H797 0.930 . S
C802 C805 1.404 . S
C802 C806 1.353 . S
N803 Co768 2.145 . S
N803 C804 1.397 . S
N803 C805 1.334 . S
C804 H785 0.929 . S
C804 C801 1.388 . S
C804 N803 1.397 . S
C805 H786 0.929 . S
C805 C802 1.404 . S
C805 N803 1.334 . S
C806 H798 0.930 . S
C806 C801 1.418 . S
C806 C802 1.353 . S
C807 H777 0.930 . S
C807 N808 1.330 . S
C807 C809 1.446 . S
N808 Co767 2.151 . S
N808 C807 1.330 . S
N808 C812 1.418 . S
C809 H788 0.929 . S
C809 C807 1.446 . S
C809 C810 1.332 . S
C810 H790 0.931 . S
C810 C809 1.332 . S
C810 C811 1.267 . S
C811 H779 0.929 . S
C811 C810 1.267 . S
C811 C812 1.251 . S
C812 H782 0.929 . S
C812 N808 1.418 . S
C812 C811 1.251 . S
C813 H780 0.930 . S
C813 C815 1.406 . S
C813 C818 1.261 . S
C814 H781 0.930 . S
C814 N816 1.325 . S
C814 C817 1.357 . S
C815 H783 0.928 . S
C815 C813 1.406 . S
C815 N816 1.261 . S
N816 Co767 2.214 . S
N816 C814 1.325 . S
N816 C815 1.261 . S
C817 H787 0.931 . S
C817 C814 1.357 . S
C817 C818 1.312 . S
C818 H789 0.930 . S
C818 C813 1.261 . S
C818 C817 1.312 . S
C819 O791 1.214 . S
C819 O799 1.234 . S
C820 H792 0.929 . S
C820 C823 1.391 . S
C820 C825 1.391 . S
C821 H793 0.929 . S
C821 C822 1.390 . S
C821 N824 1.391 . S
C822 H794 0.930 . S
C822 C821 1.390 . S
C822 C823 1.392 . S
C823 H795 0.929 . S
C823 C820 1.391 . S
C823 C822 1.392 . S
N824 Co768 2.257 . S
N824 C821 1.391 . S
N824 C825 1.388 . S
C825 H796 0.930 . S
C825 C820 1.391 . S
C825 N824 1.388 . S
Co826 O828 2.143 . S
Co826 O834 2.074 . S
Co826 O837 2.093 . S
Co826 O850 2.097 . S
Co826 N867 2.151 . S
Co826 N875 2.214 . S
Co827 O828 2.160 . S
Co827 O833 2.058 . S
Co827 O843 2.057 . S
Co827 O858 2.037 . S
Co827 N862 2.145 . S
Co827 N883 2.257 . S
O828 Co826 2.143 . S
O828 Co827 2.160 . S
C829 O830 1.278 . S
C829 O837 1.224 . S
O830 C829 1.278 . S
C831 O832 1.245 . S
C831 O843 1.232 . S
O832 C831 1.245 . S
O833 Co827 2.058 . S
O833 C859 1.269 . S
O834 Co826 2.074 . S
O834 C859 1.257 . S
H835 C860 0.930 . S
H836 C866 0.930 . S
O837 Co826 2.093 . S
O837 C829 1.224 . S
H838 C870 0.929 . S
H839 C872 0.930 . S
H840 C873 0.930 . S
H841 C871 0.929 . S
H842 C874 0.928 . S
O843 Co827 2.057 . S
O843 C831 1.232 . S
H844 C863 0.929 . S
H845 C864 0.929 . S
H846 C876 0.931 . S
H847 C868 0.929 . S
H848 C877 0.930 . S
H849 C869 0.931 . S
O850 Co826 2.097 . S
O850 C878 1.214 . S
H851 C879 0.929 . S
H852 C880 0.929 . S
H853 C881 0.952 . S
H854 C882 0.929 . S
H855 C884 0.930 . S
H856 C861 0.930 . S
H857 C865 0.930 . S
O858 Co827 2.037 . S
O858 C878 1.234 . S
C859 O833 1.269 . S
C859 O834 1.257 . S
C860 H835 0.930 . S
C860 C863 1.388 . S
C860 C865 1.418 . S
C861 H856 0.930 . S
C861 C864 1.404 . S
C861 C865 1.353 . S
N862 Co827 2.145 . S
N862 C863 1.397 . S
N862 C864 1.334 . S
C863 H844 0.929 . S
C863 C860 1.388 . S
C863 N862 1.397 . S
C864 H845 0.929 . S
C864 C861 1.404 . S
C864 N862 1.334 . S
C865 H857 0.930 . S
C865 C860 1.418 . S
C865 C861 1.353 . S
C866 H836 0.930 . S
C866 N867 1.330 . S
C866 C868 1.446 . S
N867 Co826 2.151 . S
N867 C866 1.330 . S
N867 C871 1.418 . S
C868 H847 0.929 . S
C868 C866 1.446 . S
C868 C869 1.332 . S
C869 H849 0.931 . S
C869 C868 1.332 . S
C869 C870 1.267 . S
C870 H838 0.929 . S
C870 C869 1.267 . S
C870 C871 1.251 . S
C871 H841 0.929 . S
C871 N867 1.418 . S
C871 C870 1.251 . S
C872 H839 0.930 . S
C872 C874 1.406 . S
C872 C877 1.261 . S
C873 H840 0.930 . S
C873 N875 1.325 . S
C873 C876 1.357 . S
C874 H842 0.928 . S
C874 C872 1.406 . S
C874 N875 1.261 . S
N875 Co826 2.214 . S
N875 C873 1.325 . S
N875 C874 1.261 . S
C876 H846 0.931 . S
C876 C873 1.357 . S
C876 C877 1.312 . S
C877 H848 0.930 . S
C877 C872 1.261 . S
C877 C876 1.312 . S
C878 O850 1.214 . S
C878 O858 1.234 . S
C879 H851 0.929 . S
C879 C882 1.391 . S
C879 C884 1.391 1_556 S
C880 H852 0.929 . S
C880 C881 1.314 1_554 S
C880 N883 1.391 . S
C881 H853 0.952 . S
C881 C880 1.314 1_556 S
C881 C882 1.451 . S
C882 H854 0.929 . S
C882 C879 1.391 . S
C882 C881 1.451 . S
N883 Co827 2.257 . S
N883 C880 1.391 . S
N883 C884 1.388 . S
C884 H855 0.930 . S
C884 C879 1.391 1_554 S
C884 N883 1.388 . S
Co885 O887 2.143 . S
Co885 O893 2.074 . S
Co885 O896 2.093 . S
Co885 O909 2.097 . S
Co885 N926 2.151 . S
Co885 N934 2.214 . S
Co886 O887 2.160 . S
Co886 O892 2.058 . S
Co886 O902 2.057 . S
Co886 O917 2.037 . S
Co886 N921 2.145 . S
Co886 N942 2.257 . S
O887 Co885 2.143 . S
O887 Co886 2.160 . S
C888 O889 1.278 . S
C888 O896 1.224 . S
O889 C888 1.278 . S
C890 O891 1.245 . S
C890 O902 1.232 . S
O891 C890 1.245 . S
O892 Co886 2.058 . S
O892 C918 1.269 . S
O893 Co885 2.074 . S
O893 C918 1.257 . S
H894 C919 0.930 . S
H895 C925 0.930 . S
O896 Co885 2.093 . S
O896 C888 1.224 . S
H897 C929 0.929 . S
H898 C931 0.930 . S
H899 C932 0.930 . S
H900 C930 0.929 . S
H901 C933 0.928 . S
O902 Co886 2.057 . S
O902 C890 1.232 . S
H903 C922 0.929 . S
H904 C923 0.929 . S
H905 C935 0.931 . S
H906 C927 0.929 . S
H907 C936 0.930 . S
H908 C928 0.931 . S
O909 Co885 2.097 . S
O909 C937 1.214 . S
H910 C938 0.929 . S
H911 C939 0.929 . S
H912 C940 0.930 . S
H913 C941 0.929 . S
H914 C943 0.930 . S
H915 C920 0.930 . S
H916 C924 0.950 . S
O917 Co886 2.037 . S
O917 C937 1.234 . S
C918 O892 1.269 . S
C918 O893 1.257 . S
C919 H894 0.930 . S
C919 C922 1.388 . S
C919 C924 1.418 . S
C920 H915 0.930 . S
C920 C923 1.404 . S
C920 C924 1.353 . S
N921 Co886 2.145 . S
N921 C922 1.397 . S
N921 C923 1.334 . S
C922 H903 0.929 . S
C922 C919 1.388 . S
C922 N921 1.397 . S
C923 H904 0.929 . S
C923 C920 1.404 . S
C923 N921 1.334 . S
C924 H916 0.950 . S
C924 C919 1.418 . S
C924 C920 1.353 . S
C925 H895 0.930 . S
C925 N926 1.330 . S
C925 C927 1.446 . S
N926 Co885 2.151 . S
N926 C925 1.330 . S
N926 C930 1.418 . S
C927 H906 0.929 . S
C927 C925 1.446 . S
C927 C928 1.332 . S
C928 H908 0.931 . S
C928 C927 1.332 . S
C928 C929 1.267 . S
C929 H897 0.929 . S
C929 C928 1.267 . S
C929 C930 1.251 . S
C930 H900 0.929 . S
C930 N926 1.418 . S
C930 C929 1.251 . S
C931 H898 0.930 . S
C931 C933 1.406 . S
C931 C936 1.261 . S
C932 H899 0.930 . S
C932 N934 1.325 . S
C932 C935 1.357 . S
C933 H901 0.928 . S
C933 C931 1.406 . S
C933 N934 1.261 . S
N934 Co885 2.214 . S
N934 C932 1.325 . S
N934 C933 1.261 . S
C935 H905 0.931 . S
C935 C932 1.357 . S
C935 C936 1.312 . S
C936 H907 0.930 . S
C936 C931 1.261 . S
C936 C935 1.312 . S
C937 O909 1.214 . S
C937 O917 1.234 . S
C938 H910 0.929 . S
C938 C941 1.391 . S
C938 C943 1.391 . S
C939 H911 0.929 . S
C939 C940 1.390 . S
C939 N942 1.391 . S
C940 H912 0.930 . S
C940 C939 1.390 . S
C940 C941 1.392 . S
C941 H913 0.929 . S
C941 C938 1.391 . S
C941 C940 1.392 . S
N942 Co886 2.257 . S
N942 C939 1.391 . S
N942 C943 1.388 . S
C943 H914 0.930 . S
C943 C938 1.391 . S
C943 N942 1.388 . S
Co944 O946 2.143 . S
Co944 O952 2.074 . S
Co944 O955 2.093 . S
Co944 O968 2.097 . S
Co944 N985 2.151 . S
Co944 N993 2.214 . S
Co945 O946 2.160 . S
Co945 O951 2.058 . S
Co945 O961 2.057 . S
Co945 O976 2.037 . S
Co945 N980 2.145 . S
Co945 N1001 2.257 . S
O946 Co944 2.143 . S
O946 Co945 2.160 . S
C947 O948 1.278 . S
C947 O955 1.224 . S
O948 C947 1.278 . S
C949 O950 1.245 . S
C949 O961 1.232 . S
O950 C949 1.245 . S
O951 Co945 2.058 . S
O951 C977 1.269 . S
O952 Co944 2.074 . S
O952 C977 1.257 . S
H953 C978 0.930 . S
H954 C984 0.930 . S
O955 Co944 2.093 . S
O955 C947 1.224 . S
H956 C988 0.929 . S
H957 C990 0.930 . S
H958 C991 0.930 . S
H959 C989 0.929 . S
H960 C992 0.928 . S
O961 Co945 2.057 . S
O961 C949 1.232 . S
H962 C981 0.929 . S
H963 C982 0.929 . S
H964 C994 0.931 . S
H965 C986 0.929 1_545 S
H966 C995 0.930 . S
H967 C987 0.931 1_545 S
O968 Co944 2.097 . S
O968 C996 1.214 . S
H969 C997 0.929 . S
H970 C998 0.929 . S
H971 C999 0.930 . S
H972 C1000 0.929 . S
H973 C1002 0.930 . S
H974 C979 0.930 . S
H975 C983 0.930 . S
O976 Co945 2.037 . S
O976 C996 1.234 . S
C977 O951 1.269 . S
C977 O952 1.257 . S
C978 H953 0.930 . S
C978 C981 1.388 . S
C978 C983 1.418 . S
C979 H974 0.930 . S
C979 C982 1.404 . S
C979 C983 1.353 . S
N980 Co945 2.145 . S
N980 C981 1.397 . S
N980 C982 1.334 . S
C981 H962 0.929 . S
C981 C978 1.388 . S
C981 N980 1.397 . S
C982 H963 0.929 . S
C982 C979 1.404 . S
C982 N980 1.334 . S
C983 H975 0.930 . S
C983 C978 1.418 . S
C983 C979 1.353 . S
C984 H954 0.930 . S
C984 N985 1.330 . S
C984 C986 1.446 . S
N985 Co944 2.151 . S
N985 C984 1.330 . S
N985 C989 1.418 . S
C986 H965 0.929 1_565 S
C986 C984 1.446 . S
C986 C987 1.332 . S
C987 H967 0.931 1_565 S
C987 C986 1.332 . S
C987 C988 1.267 . S
C988 H956 0.929 . S
C988 C987 1.267 . S
C988 C989 1.251 . S
C989 H959 0.929 . S
C989 N985 1.418 . S
C989 C988 1.251 . S
C990 H957 0.930 . S
C990 C992 1.406 . S
C990 C995 1.261 . S
C991 H958 0.930 . S
C991 N993 1.325 . S
C991 C994 1.357 . S
C992 H960 0.928 . S
C992 C990 1.406 . S
C992 N993 1.261 . S
N993 Co944 2.214 . S
N993 C991 1.325 . S
N993 C992 1.261 . S
C994 H964 0.931 . S
C994 C991 1.357 . S
C994 C995 1.312 . S
C995 H966 0.930 . S
C995 C990 1.261 . S
C995 C994 1.312 . S
C996 O968 1.214 . S
C996 O976 1.234 . S
C997 H969 0.929 . S
C997 C1000 1.391 . S
C997 C1002 1.391 . S
C998 H970 0.929 . S
C998 C999 1.390 . S
C998 N1001 1.391 . S
C999 H971 0.930 . S
C999 C998 1.390 . S
C999 C1000 1.392 . S
C1000 H972 0.929 . S
C1000 C997 1.391 . S
C1000 C999 1.392 . S
N1001 Co945 2.257 . S
N1001 C998 1.391 . S
N1001 C1002 1.388 . S
C1002 H973 0.930 . S
C1002 C997 1.391 . S
C1002 N1001 1.388 . S
Co1003 O1005 2.143 . S
Co1003 O1011 2.074 . S
Co1003 O1014 2.093 . S
Co1003 O1027 2.097 . S
Co1003 N1044 2.151 . S
Co1003 N1052 2.214 . S
Co1004 O1005 2.160 . S
Co1004 O1010 2.058 . S
Co1004 O1020 2.057 . S
Co1004 O1035 2.037 . S
Co1004 N1039 2.145 . S
Co1004 N1060 2.257 . S
O1005 Co1003 2.143 . S
O1005 Co1004 2.160 . S
C1006 O1007 1.278 . S
C1006 O1014 1.224 . S
O1007 C1006 1.278 . S
C1008 O1009 1.245 . S
C1008 O1020 1.232 . S
O1009 C1008 1.245 . S
O1010 Co1004 2.058 . S
O1010 C1036 1.269 . S
O1011 Co1003 2.074 . S
O1011 C1036 1.257 . S
H1012 C1037 0.930 . S
H1013 C1043 0.930 . S
O1014 Co1003 2.093 . S
O1014 C1006 1.224 . S
H1015 C1047 0.929 . S
H1016 C1049 0.930 . S
H1017 C1050 0.930 . S
H1018 C1048 0.929 . S
H1019 C1051 0.928 . S
O1020 Co1004 2.057 . S
O1020 C1008 1.232 . S
H1021 C1040 0.929 . S
H1022 C1041 0.929 . S
H1023 C1053 0.931 . S
H1024 C1045 0.929 . S
H1025 C1054 0.930 . S
H1026 C1046 0.931 . S
O1027 Co1003 2.097 . S
O1027 C1055 1.214 . S
H1028 C1056 0.929 . S
H1029 C1057 0.929 . S
H1030 C1058 0.930 . S
H1031 C1059 0.929 . S
H1032 C1061 0.930 . S
H1033 C1038 0.930 . S
H1034 C1042 0.930 . S
O1035 Co1004 2.037 . S
O1035 C1055 1.234 . S
C1036 O1010 1.269 . S
C1036 O1011 1.257 . S
C1037 H1012 0.930 . S
C1037 C1040 1.388 . S
C1037 C1042 1.418 . S
C1038 H1033 0.930 . S
C1038 C1041 1.404 . S
C1038 C1042 1.353 . S
N1039 Co1004 2.145 . S
N1039 C1040 1.397 . S
N1039 C1041 1.334 . S
C1040 H1021 0.929 . S
C1040 C1037 1.388 . S
C1040 N1039 1.397 . S
C1041 H1022 0.929 . S
C1041 C1038 1.404 . S
C1041 N1039 1.334 . S
C1042 H1034 0.930 . S
C1042 C1037 1.418 . S
C1042 C1038 1.353 . S
C1043 H1013 0.930 . S
C1043 N1044 1.330 . S
C1043 C1045 1.446 . S
N1044 Co1003 2.151 . S
N1044 C1043 1.330 . S
N1044 C1048 1.418 . S
C1045 H1024 0.929 . S
C1045 C1043 1.446 . S
C1045 C1046 1.332 . S
C1046 H1026 0.931 . S
C1046 C1045 1.332 . S
C1046 C1047 1.267 . S
C1047 H1015 0.929 . S
C1047 C1046 1.267 . S
C1047 C1048 1.251 . S
C1048 H1018 0.929 . S
C1048 N1044 1.418 . S
C1048 C1047 1.251 . S
C1049 H1016 0.930 . S
C1049 C1051 1.406 . S
C1049 C1054 1.261 . S
C1050 H1017 0.930 . S
C1050 N1052 1.325 . S
C1050 C1053 1.357 . S
C1051 H1019 0.928 . S
C1051 C1049 1.406 . S
C1051 N1052 1.261 . S
N1052 Co1003 2.214 . S
N1052 C1050 1.325 . S
N1052 C1051 1.261 . S
C1053 H1023 0.931 . S
C1053 C1050 1.357 . S
C1053 C1054 1.312 . S
C1054 H1025 0.930 . S
C1054 C1049 1.261 . S
C1054 C1053 1.312 . S
C1055 O1027 1.214 . S
C1055 O1035 1.234 . S
C1056 H1028 0.929 . S
C1056 C1059 1.391 . S
C1056 C1061 1.391 . S
C1057 H1029 0.929 . S
C1057 C1058 1.390 . S
C1057 N1060 1.391 . S
C1058 H1030 0.930 . S
C1058 C1057 1.390 . S
C1058 C1059 1.392 . S
C1059 H1031 0.929 . S
C1059 C1056 1.391 . S
C1059 C1058 1.392 . S
N1060 Co1004 2.257 . S
N1060 C1057 1.391 . S
N1060 C1061 1.388 . S
C1061 H1032 0.930 . S
C1061 C1056 1.391 . S
C1061 N1060 1.388 . S
Co1062 O1064 2.143 . S
Co1062 O1070 2.074 . S
Co1062 O1073 2.093 . S
Co1062 O1086 2.097 . S
Co1062 N1103 2.151 . S
Co1062 N1111 2.214 . S
Co1063 O1064 2.160 . S
Co1063 O1069 2.058 . S
Co1063 O1079 2.057 . S
Co1063 O1094 2.037 . S
Co1063 N1098 2.145 . S
Co1063 N1119 2.257 . S
O1064 Co1062 2.143 . S
O1064 Co1063 2.160 . S
C1065 O1066 1.278 . S
C1065 O1073 1.224 . S
O1066 C1065 1.278 . S
C1067 O1068 1.245 . S
C1067 O1079 1.232 . S
O1068 C1067 1.245 . S
O1069 Co1063 2.058 . S
O1069 C1095 1.269 . S
O1070 Co1062 2.074 . S
O1070 C1095 1.257 . S
H1071 C1096 0.930 . S
H1072 C1102 0.930 . S
O1073 Co1062 2.093 . S
O1073 C1065 1.224 . S
H1074 C1106 0.929 . S
H1075 C1108 0.930 . S
H1076 C1109 0.930 . S
H1077 C1107 0.929 . S
H1078 C1110 0.928 . S
O1079 Co1063 2.057 . S
O1079 C1067 1.232 . S
H1080 C1099 0.929 . S
H1081 C1100 0.929 . S
H1082 C1112 0.928 1_455 S
H1083 C1104 0.929 1_565 S
H1084 C1113 0.930 . S
H1085 C1105 0.931 1_565 S
O1086 Co1062 2.097 . S
O1086 C1114 1.214 . S
H1087 C1115 0.929 . S
H1088 C1116 0.929 . S
H1089 C1117 0.952 . S
H1090 C1118 0.929 . S
H1091 C1120 0.930 . S
H1092 C1097 0.930 . S
H1093 C1101 0.930 . S
O1094 Co1063 2.037 . S
O1094 C1114 1.234 . S
C1095 O1069 1.269 . S
C1095 O1070 1.257 . S
C1096 H1071 0.930 . S
C1096 C1099 1.388 . S
C1096 C1101 1.418 . S
C1097 H1092 0.930 . S
C1097 C1100 1.404 . S
C1097 C1101 1.353 . S
N1098 Co1063 2.145 . S
N1098 C1099 1.397 . S
N1098 C1100 1.334 . S
C1099 H1080 0.929 . S
C1099 C1096 1.388 . S
C1099 N1098 1.397 . S
C1100 H1081 0.929 . S
C1100 C1097 1.404 . S
C1100 N1098 1.334 . S
C1101 H1093 0.930 . S
C1101 C1096 1.418 . S
C1101 C1097 1.353 . S
C1102 H1072 0.930 . S
C1102 N1103 1.330 . S
C1102 C1104 1.446 . S
N1103 Co1062 2.151 . S
N1103 C1102 1.330 . S
N1103 C1107 1.418 . S
C1104 H1083 0.929 1_545 S
C1104 C1102 1.446 . S
C1104 C1105 1.332 . S
C1105 H1085 0.931 1_545 S
C1105 C1104 1.332 . S
C1105 C1106 1.267 . S
C1106 H1074 0.929 . S
C1106 C1105 1.267 . S
C1106 C1107 1.251 . S
C1107 H1077 0.929 . S
C1107 N1103 1.418 . S
C1107 C1106 1.251 . S
C1108 H1075 0.930 . S
C1108 C1110 1.406 1_455 S
C1108 C1113 1.261 . S
C1109 H1076 0.930 . S
C1109 N1111 1.325 . S
C1109 C1112 1.357 . S
C1110 H1078 0.928 . S
C1110 C1108 1.406 1_655 S
C1110 N1111 1.261 . S
N1111 Co1062 2.214 . S
N1111 C1109 1.325 . S
N1111 C1110 1.261 . S
C1112 H1082 0.928 1_655 S
C1112 C1109 1.357 . S
C1112 C1113 1.312 1_655 S
C1113 H1084 0.930 . S
C1113 C1108 1.261 . S
C1113 C1112 1.312 1_455 S
C1114 O1086 1.214 . S
C1114 O1094 1.234 . S
C1115 H1087 0.929 . S
C1115 C1118 1.391 . S
C1115 C1120 1.391 1_556 S
C1116 H1088 0.929 . S
C1116 C1117 1.314 1_554 S
C1116 N1119 1.391 . S
C1117 H1089 0.952 . S
C1117 C1116 1.314 1_556 S
C1117 C1118 1.450 . S
C1118 H1090 0.929 . S
C1118 C1115 1.391 . S
C1118 C1117 1.450 . S
N1119 Co1063 2.257 . S
N1119 C1116 1.391 . S
N1119 C1120 1.388 . S
C1120 H1091 0.930 . S
C1120 C1115 1.391 1_554 S
C1120 N1119 1.388 . S
Co1121 O1123 2.143 . S
Co1121 O1129 2.074 . S
Co1121 O1132 2.093 . S
Co1121 O1145 2.097 . S
Co1121 N1162 2.151 . S
Co1121 N1170 2.214 . S
Co1122 O1123 2.160 . S
Co1122 O1128 2.058 . S
Co1122 O1138 2.057 . S
Co1122 O1153 2.037 . S
Co1122 N1157 2.145 . S
Co1122 N1178 2.257 . S
O1123 Co1121 2.143 . S
O1123 Co1122 2.160 . S
C1124 O1125 1.278 . S
C1124 O1132 1.224 . S
O1125 C1124 1.278 . S
C1126 O1127 1.245 . S
C1126 O1138 1.232 . S
O1127 C1126 1.245 . S
O1128 Co1122 2.058 . S
O1128 C1154 1.269 . S
O1129 Co1121 2.074 . S
O1129 C1154 1.257 . S
H1130 C1155 0.930 . S
H1131 C1161 0.930 . S
O1132 Co1121 2.093 . S
O1132 C1124 1.224 . S
H1133 C1165 0.929 . S
H1134 C1167 0.930 . S
H1135 C1168 0.930 . S
H1136 C1166 0.929 . S
H1137 C1169 0.928 . S
O1138 Co1122 2.057 . S
O1138 C1126 1.232 . S
H1139 C1158 0.929 . S
H1140 C1159 0.929 . S
H1141 C1171 0.931 . S
H1142 C1163 0.929 . S
H1143 C1172 0.930 . S
H1144 C1164 0.931 . S
O1145 Co1121 2.097 . S
O1145 C1173 1.214 . S
H1146 C1174 0.929 . S
H1147 C1175 0.929 . S
H1148 C1176 0.930 . S
H1149 C1177 0.929 . S
H1150 C1179 0.930 . S
H1151 C1156 0.930 . S
H1152 C1160 0.950 . S
O1153 Co1122 2.037 . S
O1153 C1173 1.234 . S
C1154 O1128 1.269 . S
C1154 O1129 1.257 . S
C1155 H1130 0.930 . S
C1155 C1158 1.388 . S
C1155 C1160 1.418 . S
C1156 H1151 0.930 . S
C1156 C1159 1.404 . S
C1156 C1160 1.353 . S
N1157 Co1122 2.145 . S
N1157 C1158 1.397 . S
N1157 C1159 1.334 . S
C1158 H1139 0.929 . S
C1158 C1155 1.388 . S
C1158 N1157 1.397 . S
C1159 H1140 0.929 . S
C1159 C1156 1.404 . S
C1159 N1157 1.334 . S
C1160 H1152 0.950 . S
C1160 C1155 1.418 . S
C1160 C1156 1.353 . S
C1161 H1131 0.930 . S
C1161 N1162 1.330 . S
C1161 C1163 1.446 . S
N1162 Co1121 2.151 . S
N1162 C1161 1.330 . S
N1162 C1166 1.418 . S
C1163 H1142 0.929 . S
C1163 C1161 1.446 . S
C1163 C1164 1.332 . S
C1164 H1144 0.931 . S
C1164 C1163 1.332 . S
C1164 C1165 1.267 . S
C1165 H1133 0.929 . S
C1165 C1164 1.267 . S
C1165 C1166 1.251 . S
C1166 H1136 0.929 . S
C1166 N1162 1.418 . S
C1166 C1165 1.251 . S
C1167 H1134 0.930 . S
C1167 C1169 1.406 . S
C1167 C1172 1.261 . S
C1168 H1135 0.930 . S
C1168 N1170 1.325 . S
C1168 C1171 1.357 . S
C1169 H1137 0.928 . S
C1169 C1167 1.406 . S
C1169 N1170 1.261 . S
N1170 Co1121 2.214 . S
N1170 C1168 1.325 . S
N1170 C1169 1.261 . S
C1171 H1141 0.931 . S
C1171 C1168 1.357 . S
C1171 C1172 1.312 . S
C1172 H1143 0.930 . S
C1172 C1167 1.261 . S
C1172 C1171 1.312 . S
C1173 O1145 1.214 . S
C1173 O1153 1.234 . S
C1174 H1146 0.929 . S
C1174 C1177 1.391 . S
C1174 C1179 1.391 . S
C1175 H1147 0.929 . S
C1175 C1176 1.390 . S
C1175 N1178 1.391 . S
C1176 H1148 0.930 . S
C1176 C1175 1.390 . S
C1176 C1177 1.392 . S
C1177 H1149 0.929 . S
C1177 C1174 1.391 . S
C1177 C1176 1.392 . S
N1178 Co1122 2.257 . S
N1178 C1175 1.391 . S
N1178 C1179 1.388 . S
C1179 H1150 0.930 . S
C1179 C1174 1.391 . S
C1179 N1178 1.388 . S
Co1180 O1182 2.143 . S
Co1180 O1188 2.074 . S
Co1180 O1191 2.093 . S
Co1180 O1204 2.097 . S
Co1180 N1221 2.151 . S
Co1180 N1229 2.214 . S
Co1181 O1182 2.160 . S
Co1181 O1187 2.058 . S
Co1181 O1197 2.057 . S
Co1181 O1212 2.037 . S
Co1181 N1216 2.145 . S
Co1181 N1237 2.257 . S
O1182 Co1180 2.143 . S
O1182 Co1181 2.160 . S
C1183 O1184 1.278 . S
C1183 O1191 1.224 . S
O1184 C1183 1.278 . S
C1185 O1186 1.245 . S
C1185 O1197 1.232 . S
O1186 C1185 1.245 . S
O1187 Co1181 2.058 . S
O1187 C1213 1.269 . S
O1188 Co1180 2.074 . S
O1188 C1213 1.257 . S
H1189 C1214 0.930 . S
H1190 C1220 0.930 . S
O1191 Co1180 2.093 . S
O1191 C1183 1.224 . S
H1192 C1224 0.929 . S
H1193 C1226 0.930 . S
H1194 C1227 0.930 . S
H1195 C1225 0.929 . S
H1196 C1228 0.928 . S
O1197 Co1181 2.057 . S
O1197 C1185 1.232 . S
H1198 C1217 0.929 . S
H1199 C1218 0.929 . S
H1200 C1230 0.931 . S
H1201 C1222 0.929 1_565 S
H1202 C1231 0.930 . S
H1203 C1223 0.931 1_565 S
O1204 Co1180 2.097 . S
O1204 C1232 1.214 . S
H1205 C1233 0.929 . S
H1206 C1234 0.929 . S
H1207 C1235 0.952 . S
H1208 C1236 0.929 . S
H1209 C1238 0.930 . S
H1210 C1215 0.930 . S
H1211 C1219 0.930 . S
O1212 Co1181 2.037 . S
O1212 C1232 1.234 . S
C1213 O1187 1.269 . S
C1213 O1188 1.257 . S
C1214 H1189 0.930 . S
C1214 C1217 1.388 . S
C1214 C1219 1.418 . S
C1215 H1210 0.930 . S
C1215 C1218 1.404 . S
C1215 C1219 1.353 . S
N1216 Co1181 2.145 . S
N1216 C1217 1.397 . S
N1216 C1218 1.334 . S
C1217 H1198 0.929 . S
C1217 C1214 1.388 . S
C1217 N1216 1.397 . S
C1218 H1199 0.929 . S
C1218 C1215 1.404 . S
C1218 N1216 1.334 . S
C1219 H1211 0.930 . S
C1219 C1214 1.418 . S
C1219 C1215 1.353 . S
C1220 H1190 0.930 . S
C1220 N1221 1.330 . S
C1220 C1222 1.446 . S
N1221 Co1180 2.151 . S
N1221 C1220 1.330 . S
N1221 C1225 1.418 . S
C1222 H1201 0.929 1_545 S
C1222 C1220 1.446 . S
C1222 C1223 1.332 . S
C1223 H1203 0.931 1_545 S
C1223 C1222 1.332 . S
C1223 C1224 1.267 . S
C1224 H1192 0.929 . S
C1224 C1223 1.267 . S
C1224 C1225 1.251 . S
C1225 H1195 0.929 . S
C1225 N1221 1.418 . S
C1225 C1224 1.251 . S
C1226 H1193 0.930 . S
C1226 C1228 1.406 . S
C1226 C1231 1.261 . S
C1227 H1194 0.930 . S
C1227 N1229 1.325 . S
C1227 C1230 1.357 . S
C1228 H1196 0.928 . S
C1228 C1226 1.406 . S
C1228 N1229 1.261 . S
N1229 Co1180 2.214 . S
N1229 C1227 1.325 . S
N1229 C1228 1.261 . S
C1230 H1200 0.931 . S
C1230 C1227 1.357 . S
C1230 C1231 1.312 . S
C1231 H1202 0.930 . S
C1231 C1226 1.261 . S
C1231 C1230 1.312 . S
C1232 O1204 1.214 . S
C1232 O1212 1.234 . S
C1233 H1205 0.929 . S
C1233 C1236 1.391 . S
C1233 C1238 1.391 1_554 S
C1234 H1206 0.929 . S
C1234 C1235 1.314 1_556 S
C1234 N1237 1.391 . S
C1235 H1207 0.952 . S
C1235 C1234 1.314 1_554 S
C1235 C1236 1.451 . S
C1236 H1208 0.929 . S
C1236 C1233 1.391 . S
C1236 C1235 1.451 . S
N1237 Co1181 2.257 . S
N1237 C1234 1.391 . S
N1237 C1238 1.388 . S
C1238 H1209 0.930 . S
C1238 C1233 1.391 1_556 S
C1238 N1237 1.388 . S
Co1239 O1241 2.143 . S
Co1239 O1247 2.074 . S
Co1239 O1250 2.093 . S
Co1239 O1263 2.097 . S
Co1239 N1280 2.151 . S
Co1239 N1288 2.214 . S
Co1240 O1241 2.160 . S
Co1240 O1246 2.058 . S
Co1240 O1256 2.057 . S
Co1240 O1271 2.037 . S
Co1240 N1275 2.145 . S
Co1240 N1296 2.257 . S
O1241 Co1239 2.143 . S
O1241 Co1240 2.160 . S
C1242 O1243 1.278 . S
C1242 O1250 1.224 . S
O1243 C1242 1.278 . S
C1244 O1245 1.245 . S
C1244 O1256 1.232 . S
O1245 C1244 1.245 . S
O1246 Co1240 2.058 . S
O1246 C1272 1.269 . S
O1247 Co1239 2.074 . S
O1247 C1272 1.257 . S
H1248 C1273 0.930 . S
H1249 C1279 0.930 . S
O1250 Co1239 2.093 . S
O1250 C1242 1.224 . S
H1251 C1283 0.929 . S
H1252 C1285 0.930 . S
H1253 C1286 0.930 . S
H1254 C1284 0.929 . S
H1255 C1287 0.928 . S
O1256 Co1240 2.057 . S
O1256 C1244 1.232 . S
H1257 C1276 0.929 . S
H1258 C1277 0.929 . S
H1259 C1289 0.931 . S
H1260 C1281 0.929 . S
H1261 C1290 0.930 . S
H1262 C1282 0.931 . S
O1263 Co1239 2.097 . S
O1263 C1291 1.214 . S
H1264 C1292 0.929 . S
H1265 C1293 0.929 . S
H1266 C1294 0.930 . S
H1267 C1295 0.929 . S
H1268 C1297 0.930 . S
H1269 C1274 0.930 . S
H1270 C1278 0.950 . S
O1271 Co1240 2.037 . S
O1271 C1291 1.234 . S
C1272 O1246 1.269 . S
C1272 O1247 1.257 . S
C1273 H1248 0.930 . S
C1273 C1276 1.388 . S
C1273 C1278 1.418 . S
C1274 H1269 0.930 . S
C1274 C1277 1.404 . S
C1274 C1278 1.353 . S
N1275 Co1240 2.145 . S
N1275 C1276 1.397 . S
N1275 C1277 1.334 . S
C1276 H1257 0.929 . S
C1276 C1273 1.388 . S
C1276 N1275 1.397 . S
C1277 H1258 0.929 . S
C1277 C1274 1.404 . S
C1277 N1275 1.334 . S
C1278 H1270 0.950 . S
C1278 C1273 1.418 . S
C1278 C1274 1.353 . S
C1279 H1249 0.930 . S
C1279 N1280 1.330 . S
C1279 C1281 1.446 . S
N1280 Co1239 2.151 . S
N1280 C1279 1.330 . S
N1280 C1284 1.418 . S
C1281 H1260 0.929 . S
C1281 C1279 1.446 . S
C1281 C1282 1.332 . S
C1282 H1262 0.931 . S
C1282 C1281 1.332 . S
C1282 C1283 1.267 . S
C1283 H1251 0.929 . S
C1283 C1282 1.267 . S
C1283 C1284 1.251 . S
C1284 H1254 0.929 . S
C1284 N1280 1.418 . S
C1284 C1283 1.251 . S
C1285 H1252 0.930 . S
C1285 C1287 1.406 . S
C1285 C1290 1.261 . S
C1286 H1253 0.930 . S
C1286 N1288 1.325 . S
C1286 C1289 1.357 . S
C1287 H1255 0.928 . S
C1287 C1285 1.406 . S
C1287 N1288 1.261 . S
N1288 Co1239 2.214 . S
N1288 C1286 1.325 . S
N1288 C1287 1.261 . S
C1289 H1259 0.931 . S
C1289 C1286 1.357 . S
C1289 C1290 1.312 . S
C1290 H1261 0.930 . S
C1290 C1285 1.261 . S
C1290 C1289 1.312 . S
C1291 O1263 1.214 . S
C1291 O1271 1.234 . S
C1292 H1264 0.929 . S
C1292 C1295 1.391 . S
C1292 C1297 1.391 . S
C1293 H1265 0.929 . S
C1293 C1294 1.390 . S
C1293 N1296 1.391 . S
C1294 H1266 0.930 . S
C1294 C1293 1.390 . S
C1294 C1295 1.392 . S
C1295 H1267 0.929 . S
C1295 C1292 1.391 . S
C1295 C1294 1.392 . S
N1296 Co1240 2.257 . S
N1296 C1293 1.391 . S
N1296 C1297 1.388 . S
C1297 H1268 0.930 . S
C1297 C1292 1.391 . S
C1297 N1296 1.388 . S
Co1298 O1300 2.143 . S
Co1298 O1306 2.074 . S
Co1298 O1309 2.093 . S
Co1298 O1322 2.097 . S
Co1298 N1339 2.151 . S
Co1298 N1347 2.214 . S
Co1299 O1300 2.160 . S
Co1299 O1305 2.058 . S
Co1299 O1315 2.057 . S
Co1299 O1330 2.037 . S
Co1299 N1334 2.145 . S
Co1299 N1355 2.257 . S
O1300 Co1298 2.143 . S
O1300 Co1299 2.160 . S
C1301 O1302 1.278 . S
C1301 O1309 1.224 . S
O1302 C1301 1.278 . S
C1303 O1304 1.245 . S
C1303 O1315 1.232 . S
O1304 C1303 1.245 . S
O1305 Co1299 2.058 . S
O1305 C1331 1.269 . S
O1306 Co1298 2.074 . S
O1306 C1331 1.257 . S
H1307 C1332 0.930 . S
H1308 C1338 0.930 . S
O1309 Co1298 2.093 . S
O1309 C1301 1.224 . S
H1310 C1342 0.929 . S
H1311 C1344 0.930 . S
H1312 C1345 0.930 . S
H1313 C1343 0.929 . S
H1314 C1346 0.928 . S
O1315 Co1299 2.057 . S
O1315 C1303 1.232 . S
H1316 C1335 0.929 . S
H1317 C1336 0.929 . S
H1318 C1348 0.928 1_455 S
H1319 C1340 0.929 1_545 S
H1320 C1349 0.930 . S
H1321 C1341 0.931 1_545 S
O1322 Co1298 2.097 . S
O1322 C1350 1.214 . S
H1323 C1351 0.929 . S
H1324 C1352 0.929 . S
H1325 C1353 0.930 . S
H1326 C1354 0.929 . S
H1327 C1356 0.930 . S
H1328 C1333 0.930 . S
H1329 C1337 0.930 . S
O1330 Co1299 2.037 . S
O1330 C1350 1.234 . S
C1331 O1305 1.269 . S
C1331 O1306 1.257 . S
C1332 H1307 0.930 . S
C1332 C1335 1.388 . S
C1332 C1337 1.418 . S
C1333 H1328 0.930 . S
C1333 C1336 1.404 . S
C1333 C1337 1.353 . S
N1334 Co1299 2.145 . S
N1334 C1335 1.397 . S
N1334 C1336 1.334 . S
C1335 H1316 0.929 . S
C1335 C1332 1.388 . S
C1335 N1334 1.397 . S
C1336 H1317 0.929 . S
C1336 C1333 1.404 . S
C1336 N1334 1.334 . S
C1337 H1329 0.930 . S
C1337 C1332 1.418 . S
C1337 C1333 1.353 . S
C1338 H1308 0.930 . S
C1338 N1339 1.330 . S
C1338 C1340 1.446 . S
N1339 Co1298 2.151 . S
N1339 C1338 1.330 . S
N1339 C1343 1.418 . S
C1340 H1319 0.929 1_565 S
C1340 C1338 1.446 . S
C1340 C1341 1.332 . S
C1341 H1321 0.931 1_565 S
C1341 C1340 1.332 . S
C1341 C1342 1.267 . S
C1342 H1310 0.929 . S
C1342 C1341 1.267 . S
C1342 C1343 1.251 . S
C1343 H1313 0.929 . S
C1343 N1339 1.418 . S
C1343 C1342 1.251 . S
C1344 H1311 0.930 . S
C1344 C1346 1.406 1_455 S
C1344 C1349 1.261 . S
C1345 H1312 0.930 . S
C1345 N1347 1.325 . S
C1345 C1348 1.357 . S
C1346 H1314 0.928 . S
C1346 C1344 1.406 1_655 S
C1346 N1347 1.261 . S
N1347 Co1298 2.214 . S
N1347 C1345 1.325 . S
N1347 C1346 1.261 . S
C1348 H1318 0.928 1_655 S
C1348 C1345 1.357 . S
C1348 C1349 1.312 1_655 S
C1349 H1320 0.930 . S
C1349 C1344 1.261 . S
C1349 C1348 1.312 1_455 S
C1350 O1322 1.214 . S
C1350 O1330 1.234 . S
C1351 H1323 0.929 . S
C1351 C1354 1.391 . S
C1351 C1356 1.391 . S
C1352 H1324 0.929 . S
C1352 C1353 1.390 . S
C1352 N1355 1.391 . S
C1353 H1325 0.930 . S
C1353 C1352 1.390 . S
C1353 C1354 1.392 . S
C1354 H1326 0.929 . S
C1354 C1351 1.391 . S
C1354 C1353 1.392 . S
N1355 Co1299 2.257 . S
N1355 C1352 1.391 . S
N1355 C1356 1.388 . S
C1356 H1327 0.930 . S
C1356 C1351 1.391 . S
C1356 N1355 1.388 . S
Co1357 O1359 2.143 . S
Co1357 O1365 2.074 . S
Co1357 O1368 2.093 . S
Co1357 O1381 2.097 . S
Co1357 N1398 2.151 . S
Co1357 N1406 2.214 . S
Co1358 O1359 2.160 . S
Co1358 O1364 2.058 . S
Co1358 O1374 2.057 . S
Co1358 O1389 2.037 . S
Co1358 N1393 2.145 . S
Co1358 N1414 2.257 . S
O1359 Co1357 2.143 . S
O1359 Co1358 2.160 . S
C1360 O1361 1.278 . S
C1360 O1368 1.224 . S
O1361 C1360 1.278 . S
C1362 O1363 1.245 . S
C1362 O1374 1.232 . S
O1363 C1362 1.245 . S
O1364 Co1358 2.058 . S
O1364 C1390 1.269 . S
O1365 Co1357 2.074 . S
O1365 C1390 1.257 . S
H1366 C1391 0.930 . S
H1367 C1397 0.930 . S
O1368 Co1357 2.093 . S
O1368 C1360 1.224 . S
H1369 C1401 0.929 . S
H1370 C1403 0.930 . S
H1371 C1404 0.930 . S
H1372 C1402 0.929 . S
H1373 C1405 0.928 . S
O1374 Co1358 2.057 . S
O1374 C1362 1.232 . S
H1375 C1394 0.929 . S
H1376 C1395 0.929 . S
H1377 C1407 0.931 . S
H1378 C1399 0.929 . S
H1379 C1408 0.930 . S
H1380 C1400 0.931 . S
O1381 Co1357 2.097 . S
O1381 C1409 1.214 . S
H1382 C1410 0.929 . S
H1383 C1411 0.929 . S
H1384 C1412 0.930 . S
H1385 C1413 0.929 . S
H1386 C1415 0.930 . S
H1387 C1392 0.930 . S
H1388 C1396 0.930 . S
O1389 Co1358 2.037 . S
O1389 C1409 1.234 . S
C1390 O1364 1.269 . S
C1390 O1365 1.257 . S
C1391 H1366 0.930 . S
C1391 C1394 1.388 . S
C1391 C1396 1.418 . S
C1392 H1387 0.930 . S
C1392 C1395 1.404 . S
C1392 C1396 1.353 . S
N1393 Co1358 2.145 . S
N1393 C1394 1.397 . S
N1393 C1395 1.334 . S
C1394 H1375 0.929 . S
C1394 C1391 1.388 . S
C1394 N1393 1.397 . S
C1395 H1376 0.929 . S
C1395 C1392 1.404 . S
C1395 N1393 1.334 . S
C1396 H1388 0.930 . S
C1396 C1391 1.418 . S
C1396 C1392 1.353 . S
C1397 H1367 0.930 . S
C1397 N1398 1.330 . S
C1397 C1399 1.446 . S
N1398 Co1357 2.151 . S
N1398 C1397 1.330 . S
N1398 C1402 1.418 . S
C1399 H1378 0.929 . S
C1399 C1397 1.446 . S
C1399 C1400 1.332 . S
C1400 H1380 0.931 . S
C1400 C1399 1.332 . S
C1400 C1401 1.267 . S
C1401 H1369 0.929 . S
C1401 C1400 1.267 . S
C1401 C1402 1.251 . S
C1402 H1372 0.929 . S
C1402 N1398 1.418 . S
C1402 C1401 1.251 . S
C1403 H1370 0.930 . S
C1403 C1405 1.406 . S
C1403 C1408 1.261 . S
C1404 H1371 0.930 . S
C1404 N1406 1.325 . S
C1404 C1407 1.357 . S
C1405 H1373 0.928 . S
C1405 C1403 1.406 . S
C1405 N1406 1.261 . S
N1406 Co1357 2.214 . S
N1406 C1404 1.325 . S
N1406 C1405 1.261 . S
C1407 H1377 0.931 . S
C1407 C1404 1.357 . S
C1407 C1408 1.312 . S
C1408 H1379 0.930 . S
C1408 C1403 1.261 . S
C1408 C1407 1.312 . S
C1409 O1381 1.214 . S
C1409 O1389 1.234 . S
C1410 H1382 0.929 . S
C1410 C1413 1.391 . S
C1410 C1415 1.391 . S
C1411 H1383 0.929 . S
C1411 C1412 1.390 . S
C1411 N1414 1.391 . S
C1412 H1384 0.930 . S
C1412 C1411 1.390 . S
C1412 C1413 1.392 . S
C1413 H1385 0.929 . S
C1413 C1410 1.391 . S
C1413 C1412 1.392 . S
N1414 Co1358 2.257 . S
N1414 C1411 1.391 . S
N1414 C1415 1.388 . S
C1415 H1386 0.930 . S
C1415 C1410 1.391 . S
C1415 N1414 1.388 . S
Co1416 O1418 2.143 . S
Co1416 O1424 2.074 . S
Co1416 O1427 2.093 . S
Co1416 O1440 2.097 . S
Co1416 N1457 2.151 . S
Co1416 N1465 2.214 . S
Co1417 O1418 2.160 . S
Co1417 O1423 2.058 . S
Co1417 O1433 2.057 . S
Co1417 O1448 2.037 . S
Co1417 N1452 2.145 . S
Co1417 N1473 2.257 . S
O1418 Co1416 2.143 . S
O1418 Co1417 2.160 . S
C1419 O1420 1.278 . S
C1419 O1427 1.224 . S
O1420 C1419 1.278 . S
C1421 O1422 1.245 . S
C1421 O1433 1.232 . S
O1422 C1421 1.245 . S
O1423 Co1417 2.058 . S
O1423 C1449 1.269 . S
O1424 Co1416 2.074 . S
O1424 C1449 1.257 . S
H1425 C1450 0.930 . S
H1426 C1456 0.930 . S
O1427 Co1416 2.093 . S
O1427 C1419 1.224 . S
H1428 C1460 0.929 . S
H1429 C1462 0.930 . S
H1430 C1463 0.930 . S
H1431 C1461 0.929 . S
H1432 C1464 0.928 . S
O1433 Co1417 2.057 . S
O1433 C1421 1.232 . S
H1434 C1453 0.929 . S
H1435 C1454 0.929 . S
H1436 C1466 0.931 . S
H1437 C1458 0.929 1_565 S
H1438 C1467 0.930 . S
H1439 C1459 0.931 1_565 S
O1440 Co1416 2.097 . S
O1440 C1468 1.214 . S
H1441 C1469 0.929 . S
H1442 C1470 0.929 . S
H1443 C1471 0.930 . S
H1444 C1472 0.929 . S
H1445 C1474 0.930 . S
H1446 C1451 0.930 . S
H1447 C1455 0.930 . S
O1448 Co1417 2.037 . S
O1448 C1468 1.234 . S
C1449 O1423 1.269 . S
C1449 O1424 1.257 . S
C1450 H1425 0.930 . S
C1450 C1453 1.388 . S
C1450 C1455 1.418 . S
C1451 H1446 0.930 . S
C1451 C1454 1.404 . S
C1451 C1455 1.353 . S
N1452 Co1417 2.145 . S
N1452 C1453 1.397 . S
N1452 C1454 1.334 . S
C1453 H1434 0.929 . S
C1453 C1450 1.388 . S
C1453 N1452 1.397 . S
C1454 H1435 0.929 . S
C1454 C1451 1.404 . S
C1454 N1452 1.334 . S
C1455 H1447 0.930 . S
C1455 C1450 1.418 . S
C1455 C1451 1.353 . S
C1456 H1426 0.930 . S
C1456 N1457 1.330 . S
C1456 C1458 1.446 . S
N1457 Co1416 2.151 . S
N1457 C1456 1.330 . S
N1457 C1461 1.418 . S
C1458 H1437 0.929 1_545 S
C1458 C1456 1.446 . S
C1458 C1459 1.332 . S
C1459 H1439 0.931 1_545 S
C1459 C1458 1.332 . S
C1459 C1460 1.267 . S
C1460 H1428 0.929 . S
C1460 C1459 1.267 . S
C1460 C1461 1.251 . S
C1461 H1431 0.929 . S
C1461 N1457 1.418 . S
C1461 C1460 1.251 . S
C1462 H1429 0.930 . S
C1462 C1464 1.406 . S
C1462 C1467 1.261 . S
C1463 H1430 0.930 . S
C1463 N1465 1.325 . S
C1463 C1466 1.357 . S
C1464 H1432 0.928 . S
C1464 C1462 1.406 . S
C1464 N1465 1.261 . S
N1465 Co1416 2.214 . S
N1465 C1463 1.325 . S
N1465 C1464 1.261 . S
C1466 H1436 0.931 . S
C1466 C1463 1.357 . S
C1466 C1467 1.312 . S
C1467 H1438 0.930 . S
C1467 C1462 1.261 . S
C1467 C1466 1.312 . S
C1468 O1440 1.214 . S
C1468 O1448 1.234 . S
C1469 H1441 0.929 . S
C1469 C1472 1.391 . S
C1469 C1474 1.391 . S
C1470 H1442 0.929 . S
C1470 C1471 1.390 . S
C1470 N1473 1.391 . S
C1471 H1443 0.930 . S
C1471 C1470 1.390 . S
C1471 C1472 1.392 . S
C1472 H1444 0.929 . S
C1472 C1469 1.391 . S
C1472 C1471 1.392 . S
N1473 Co1417 2.257 . S
N1473 C1470 1.391 . S
N1473 C1474 1.388 . S
C1474 H1445 0.930 . S
C1474 C1469 1.391 . S
C1474 N1473 1.388 . S
Co1475 O1477 2.143 . S
Co1475 O1483 2.074 . S
Co1475 O1486 2.093 . S
Co1475 O1499 2.097 . S
Co1475 N1516 2.151 . S
Co1475 N1524 2.214 . S
Co1476 O1477 2.160 . S
Co1476 O1482 2.058 . S
Co1476 O1492 2.057 . S
Co1476 O1507 2.037 . S
Co1476 N1511 2.145 . S
Co1476 N1532 2.257 . S
O1477 Co1475 2.143 . S
O1477 Co1476 2.160 . S
C1478 O1479 1.278 . S
C1478 O1486 1.224 . S
O1479 C1478 1.278 . S
C1480 O1481 1.245 . S
C1480 O1492 1.232 . S
O1481 C1480 1.245 . S
O1482 Co1476 2.058 . S
O1482 C1508 1.269 . S
O1483 Co1475 2.074 . S
O1483 C1508 1.257 . S
H1484 C1509 0.930 . S
H1485 C1515 0.930 . S
O1486 Co1475 2.093 . S
O1486 C1478 1.224 . S
H1487 C1519 0.929 . S
H1488 C1521 0.930 . S
H1489 C1522 0.930 . S
H1490 C1520 0.929 . S
H1491 C1523 0.928 . S
O1492 Co1476 2.057 . S
O1492 C1480 1.232 . S
H1493 C1512 0.929 . S
H1494 C1513 0.929 . S
H1495 C1525 0.931 . S
H1496 C1517 0.929 . S
H1497 C1526 0.930 . S
H1498 C1518 0.931 . S
O1499 Co1475 2.097 . S
O1499 C1527 1.214 . S
H1500 C1528 0.929 . S
H1501 C1529 0.929 . S
H1502 C1530 0.930 . S
H1503 C1531 0.929 . S
H1504 C1533 0.930 . S
H1505 C1510 0.930 . S
H1506 C1514 0.930 . S
O1507 Co1476 2.037 . S
O1507 C1527 1.234 . S
C1508 O1482 1.269 . S
C1508 O1483 1.257 . S
C1509 H1484 0.930 . S
C1509 C1512 1.388 . S
C1509 C1514 1.418 . S
C1510 H1505 0.930 . S
C1510 C1513 1.404 . S
C1510 C1514 1.353 . S
N1511 Co1476 2.145 . S
N1511 C1512 1.397 . S
N1511 C1513 1.334 . S
C1512 H1493 0.929 . S
C1512 C1509 1.388 . S
C1512 N1511 1.397 . S
C1513 H1494 0.929 . S
C1513 C1510 1.404 . S
C1513 N1511 1.334 . S
C1514 H1506 0.930 . S
C1514 C1509 1.418 . S
C1514 C1510 1.353 . S
C1515 H1485 0.930 . S
C1515 N1516 1.330 . S
C1515 C1517 1.446 . S
N1516 Co1475 2.151 . S
N1516 C1515 1.330 . S
N1516 C1520 1.418 . S
C1517 H1496 0.929 . S
C1517 C1515 1.446 . S
C1517 C1518 1.332 . S
C1518 H1498 0.931 . S
C1518 C1517 1.332 . S
C1518 C1519 1.267 . S
C1519 H1487 0.929 . S
C1519 C1518 1.267 . S
C1519 C1520 1.251 . S
C1520 H1490 0.929 . S
C1520 N1516 1.418 . S
C1520 C1519 1.251 . S
C1521 H1488 0.930 . S
C1521 C1523 1.406 . S
C1521 C1526 1.261 . S
C1522 H1489 0.930 . S
C1522 N1524 1.325 . S
C1522 C1525 1.357 . S
C1523 H1491 0.928 . S
C1523 C1521 1.406 . S
C1523 N1524 1.261 . S
N1524 Co1475 2.214 . S
N1524 C1522 1.325 . S
N1524 C1523 1.261 . S
C1525 H1495 0.931 . S
C1525 C1522 1.357 . S
C1525 C1526 1.312 . S
C1526 H1497 0.930 . S
C1526 C1521 1.261 . S
C1526 C1525 1.312 . S
C1527 O1499 1.214 . S
C1527 O1507 1.234 . S
C1528 H1500 0.929 . S
C1528 C1531 1.391 . S
C1528 C1533 1.391 . S
C1529 H1501 0.929 . S
C1529 C1530 1.390 . S
C1529 N1532 1.391 . S
C1530 H1502 0.930 . S
C1530 C1529 1.390 . S
C1530 C1531 1.392 . S
C1531 H1503 0.929 . S
C1531 C1528 1.391 . S
C1531 C1530 1.392 . S
N1532 Co1476 2.257 . S
N1532 C1529 1.391 . S
N1532 C1533 1.388 . S
C1533 H1504 0.930 . S
C1533 C1528 1.391 . S
C1533 N1532 1.388 . S
Co1534 O1536 2.143 . S
Co1534 O1542 2.074 . S
Co1534 O1545 2.093 . S
Co1534 O1558 2.097 . S
Co1534 N1575 2.151 . S
Co1534 N1583 2.214 . S
Co1535 O1536 2.160 . S
Co1535 O1541 2.058 . S
Co1535 O1551 2.057 . S
Co1535 O1566 2.037 . S
Co1535 N1570 2.145 . S
Co1535 N1591 2.257 . S
O1536 Co1534 2.143 . S
O1536 Co1535 2.160 . S
C1537 O1538 1.278 . S
C1537 O1545 1.224 . S
O1538 C1537 1.278 . S
C1539 O1540 1.245 . S
C1539 O1551 1.232 . S
O1540 C1539 1.245 . S
O1541 Co1535 2.058 . S
O1541 C1567 1.269 . S
O1542 Co1534 2.074 . S
O1542 C1567 1.257 . S
H1543 C1568 0.930 . S
H1544 C1574 0.930 . S
O1545 Co1534 2.093 . S
O1545 C1537 1.224 . S
H1546 C1578 0.929 . S
H1547 C1580 0.930 . S
H1548 C1581 0.930 . S
H1549 C1579 0.929 . S
H1550 C1582 0.928 . S
O1551 Co1535 2.057 . S
O1551 C1539 1.232 . S
H1552 C1571 0.929 . S
H1553 C1572 0.929 . S
H1554 C1584 0.928 1_655 S
H1555 C1576 0.929 1_545 S
H1556 C1585 0.930 . S
H1557 C1577 0.931 1_545 S
O1558 Co1534 2.097 . S
O1558 C1586 1.214 . S
H1559 C1587 0.929 . S
H1560 C1588 0.929 . S
H1561 C1589 0.952 . S
H1562 C1590 0.929 . S
H1563 C1592 0.930 . S
H1564 C1569 0.930 . S
H1565 C1573 0.930 . S
O1566 Co1535 2.037 . S
O1566 C1586 1.234 . S
C1567 O1541 1.269 . S
C1567 O1542 1.257 . S
C1568 H1543 0.930 . S
C1568 C1571 1.388 . S
C1568 C1573 1.418 . S
C1569 H1564 0.930 . S
C1569 C1572 1.404 . S
C1569 C1573 1.353 . S
N1570 Co1535 2.145 . S
N1570 C1571 1.397 . S
N1570 C1572 1.334 . S
C1571 H1552 0.929 . S
C1571 C1568 1.388 . S
C1571 N1570 1.397 . S
C1572 H1553 0.929 . S
C1572 C1569 1.404 . S
C1572 N1570 1.334 . S
C1573 H1565 0.930 . S
C1573 C1568 1.418 . S
C1573 C1569 1.353 . S
C1574 H1544 0.930 . S
C1574 N1575 1.330 . S
C1574 C1576 1.446 . S
N1575 Co1534 2.151 . S
N1575 C1574 1.330 . S
N1575 C1579 1.418 . S
C1576 H1555 0.929 1_565 S
C1576 C1574 1.446 . S
C1576 C1577 1.332 . S
C1577 H1557 0.931 1_565 S
C1577 C1576 1.332 . S
C1577 C1578 1.267 . S
C1578 H1546 0.929 . S
C1578 C1577 1.267 . S
C1578 C1579 1.251 . S
C1579 H1549 0.929 . S
C1579 N1575 1.418 . S
C1579 C1578 1.251 . S
C1580 H1547 0.930 . S
C1580 C1582 1.406 1_655 S
C1580 C1585 1.261 . S
C1581 H1548 0.930 . S
C1581 N1583 1.325 . S
C1581 C1584 1.357 . S
C1582 H1550 0.928 . S
C1582 C1580 1.406 1_455 S
C1582 N1583 1.261 . S
N1583 Co1534 2.214 . S
N1583 C1581 1.325 . S
N1583 C1582 1.261 . S
C1584 H1554 0.928 1_455 S
C1584 C1581 1.357 . S
C1584 C1585 1.312 1_455 S
C1585 H1556 0.930 . S
C1585 C1580 1.261 . S
C1585 C1584 1.312 1_655 S
C1586 O1558 1.214 . S
C1586 O1566 1.234 . S
C1587 H1559 0.929 . S
C1587 C1590 1.391 . S
C1587 C1592 1.391 1_554 S
C1588 H1560 0.929 . S
C1588 C1589 1.314 1_556 S
C1588 N1591 1.391 . S
C1589 H1561 0.952 . S
C1589 C1588 1.314 1_554 S
C1589 C1590 1.450 . S
C1590 H1562 0.929 . S
C1590 C1587 1.391 . S
C1590 C1589 1.450 . S
N1591 Co1535 2.257 . S
N1591 C1588 1.391 . S
N1591 C1592 1.388 . S
C1592 H1563 0.930 . S
C1592 C1587 1.391 1_556 S
C1592 N1591 1.388 . S
Co1593 O1595 2.143 . S
Co1593 O1601 2.074 . S
Co1593 O1604 2.093 . S
Co1593 O1617 2.097 . S
Co1593 N1634 2.151 . S
Co1593 N1642 2.214 . S
Co1594 O1595 2.160 . S
Co1594 O1600 2.058 . S
Co1594 O1610 2.057 . S
Co1594 O1625 2.037 . S
Co1594 N1629 2.145 . S
Co1594 N1650 2.257 . S
O1595 Co1593 2.143 . S
O1595 Co1594 2.160 . S
C1596 O1597 1.278 . S
C1596 O1604 1.224 . S
O1597 C1596 1.278 . S
C1598 O1599 1.245 . S
C1598 O1610 1.232 . S
O1599 C1598 1.245 . S
O1600 Co1594 2.058 . S
O1600 C1626 1.269 . S
O1601 Co1593 2.074 . S
O1601 C1626 1.257 . S
H1602 C1627 0.930 . S
H1603 C1633 0.930 . S
O1604 Co1593 2.093 . S
O1604 C1596 1.224 . S
H1605 C1637 0.929 . S
H1606 C1639 0.930 . S
H1607 C1640 0.930 . S
H1608 C1638 0.929 . S
H1609 C1641 0.928 . S
O1610 Co1594 2.057 . S
O1610 C1598 1.232 . S
H1611 C1630 0.929 . S
H1612 C1631 0.929 . S
H1613 C1643 0.931 . S
H1614 C1635 0.929 . S
H1615 C1644 0.930 . S
H1616 C1636 0.931 . S
O1617 Co1593 2.097 . S
O1617 C1645 1.214 . S
H1618 C1646 0.929 . S
H1619 C1647 0.929 . S
H1620 C1648 0.930 . S
H1621 C1649 0.929 . S
H1622 C1651 0.930 . S
H1623 C1628 0.930 . S
H1624 C1632 0.950 . S
O1625 Co1594 2.037 . S
O1625 C1645 1.234 . S
C1626 O1600 1.269 . S
C1626 O1601 1.257 . S
C1627 H1602 0.930 . S
C1627 C1630 1.388 . S
C1627 C1632 1.418 . S
C1628 H1623 0.930 . S
C1628 C1631 1.404 . S
C1628 C1632 1.353 . S
N1629 Co1594 2.145 . S
N1629 C1630 1.397 . S
N1629 C1631 1.334 . S
C1630 H1611 0.929 . S
C1630 C1627 1.388 . S
C1630 N1629 1.397 . S
C1631 H1612 0.929 . S
C1631 C1628 1.404 . S
C1631 N1629 1.334 . S
C1632 H1624 0.950 . S
C1632 C1627 1.418 . S
C1632 C1628 1.353 . S
C1633 H1603 0.930 . S
C1633 N1634 1.330 . S
C1633 C1635 1.446 . S
N1634 Co1593 2.151 . S
N1634 C1633 1.330 . S
N1634 C1638 1.418 . S
C1635 H1614 0.929 . S
C1635 C1633 1.446 . S
C1635 C1636 1.332 . S
C1636 H1616 0.931 . S
C1636 C1635 1.332 . S
C1636 C1637 1.267 . S
C1637 H1605 0.929 . S
C1637 C1636 1.267 . S
C1637 C1638 1.251 . S
C1638 H1608 0.929 . S
C1638 N1634 1.418 . S
C1638 C1637 1.251 . S
C1639 H1606 0.930 . S
C1639 C1641 1.406 . S
C1639 C1644 1.261 . S
C1640 H1607 0.930 . S
C1640 N1642 1.325 . S
C1640 C1643 1.357 . S
C1641 H1609 0.928 . S
C1641 C1639 1.406 . S
C1641 N1642 1.261 . S
N1642 Co1593 2.214 . S
N1642 C1640 1.325 . S
N1642 C1641 1.261 . S
C1643 H1613 0.931 . S
C1643 C1640 1.357 . S
C1643 C1644 1.312 . S
C1644 H1615 0.930 . S
C1644 C1639 1.261 . S
C1644 C1643 1.312 . S
C1645 O1617 1.214 . S
C1645 O1625 1.234 . S
C1646 H1618 0.929 . S
C1646 C1649 1.391 . S
C1646 C1651 1.391 . S
C1647 H1619 0.929 . S
C1647 C1648 1.390 . S
C1647 N1650 1.391 . S
C1648 H1620 0.930 . S
C1648 C1647 1.390 . S
C1648 C1649 1.392 . S
C1649 H1621 0.929 . S
C1649 C1646 1.391 . S
C1649 C1648 1.392 . S
N1650 Co1594 2.257 . S
N1650 C1647 1.391 . S
N1650 C1651 1.388 . S
C1651 H1622 0.930 . S
C1651 C1646 1.391 . S
C1651 N1650 1.388 . S
Co1652 O1654 2.143 . S
Co1652 O1660 2.074 . S
Co1652 O1663 2.093 . S
Co1652 O1676 2.097 . S
Co1652 N1693 2.151 . S
Co1652 N1701 2.214 . S
Co1653 O1654 2.160 . S
Co1653 O1659 2.058 . S
Co1653 O1669 2.057 . S
Co1653 O1684 2.037 . S
Co1653 N1688 2.145 . S
Co1653 N1709 2.257 . S
O1654 Co1652 2.143 . S
O1654 Co1653 2.160 . S
C1655 O1656 1.278 . S
C1655 O1663 1.224 . S
O1656 C1655 1.278 . S
C1657 O1658 1.245 . S
C1657 O1669 1.232 . S
O1658 C1657 1.245 . S
O1659 Co1653 2.058 . S
O1659 C1685 1.269 . S
O1660 Co1652 2.074 . S
O1660 C1685 1.257 . S
H1661 C1686 0.930 . S
H1662 C1692 0.930 . S
O1663 Co1652 2.093 . S
O1663 C1655 1.224 . S
H1664 C1696 0.929 . S
H1665 C1698 0.930 . S
H1666 C1699 0.930 . S
H1667 C1697 0.929 . S
H1668 C1700 0.928 . S
O1669 Co1653 2.057 . S
O1669 C1657 1.232 . S
H1670 C1689 0.929 . S
H1671 C1690 0.929 . S
H1672 C1702 0.931 . S
H1673 C1694 0.929 1_545 S
H1674 C1703 0.930 . S
H1675 C1695 0.931 1_545 S
O1676 Co1652 2.097 . S
O1676 C1704 1.214 . S
H1677 C1705 0.929 . S
H1678 C1706 0.929 . S
H1679 C1707 0.952 . S
H1680 C1708 0.929 . S
H1681 C1710 0.930 . S
H1682 C1687 0.930 . S
H1683 C1691 0.930 . S
O1684 Co1653 2.037 . S
O1684 C1704 1.234 . S
C1685 O1659 1.269 . S
C1685 O1660 1.257 . S
C1686 H1661 0.930 . S
C1686 C1689 1.388 . S
C1686 C1691 1.418 . S
C1687 H1682 0.930 . S
C1687 C1690 1.404 . S
C1687 C1691 1.353 . S
N1688 Co1653 2.145 . S
N1688 C1689 1.397 . S
N1688 C1690 1.334 . S
C1689 H1670 0.929 . S
C1689 C1686 1.388 . S
C1689 N1688 1.397 . S
C1690 H1671 0.929 . S
C1690 C1687 1.404 . S
C1690 N1688 1.334 . S
C1691 H1683 0.930 . S
C1691 C1686 1.418 . S
C1691 C1687 1.353 . S
C1692 H1662 0.930 . S
C1692 N1693 1.330 . S
C1692 C1694 1.446 . S
N1693 Co1652 2.151 . S
N1693 C1692 1.330 . S
N1693 C1697 1.418 . S
C1694 H1673 0.929 1_565 S
C1694 C1692 1.446 . S
C1694 C1695 1.332 . S
C1695 H1675 0.931 1_565 S
C1695 C1694 1.332 . S
C1695 C1696 1.267 . S
C1696 H1664 0.929 . S
C1696 C1695 1.267 . S
C1696 C1697 1.251 . S
C1697 H1667 0.929 . S
C1697 N1693 1.418 . S
C1697 C1696 1.251 . S
C1698 H1665 0.930 . S
C1698 C1700 1.406 . S
C1698 C1703 1.261 . S
C1699 H1666 0.930 . S
C1699 N1701 1.325 . S
C1699 C1702 1.357 . S
C1700 H1668 0.928 . S
C1700 C1698 1.406 . S
C1700 N1701 1.261 . S
N1701 Co1652 2.214 . S
N1701 C1699 1.325 . S
N1701 C1700 1.261 . S
C1702 H1672 0.931 . S
C1702 C1699 1.357 . S
C1702 C1703 1.312 . S
C1703 H1674 0.930 . S
C1703 C1698 1.261 . S
C1703 C1702 1.312 . S
C1704 O1676 1.214 . S
C1704 O1684 1.234 . S
C1705 H1677 0.929 . S
C1705 C1708 1.391 . S
C1705 C1710 1.391 1_556 S
C1706 H1678 0.929 . S
C1706 C1707 1.314 1_554 S
C1706 N1709 1.391 . S
C1707 H1679 0.952 . S
C1707 C1706 1.314 1_556 S
C1707 C1708 1.451 . S
C1708 H1680 0.929 . S
C1708 C1705 1.391 . S
C1708 C1707 1.451 . S
N1709 Co1653 2.257 . S
N1709 C1706 1.391 . S
N1709 C1710 1.388 . S
C1710 H1681 0.930 . S
C1710 C1705 1.391 1_554 S
C1710 N1709 1.388 . S
Co1711 O1713 2.143 . S
Co1711 O1719 2.074 . S
Co1711 O1722 2.093 . S
Co1711 O1735 2.097 . S
Co1711 N1752 2.151 . S
Co1711 N1760 2.214 . S
Co1712 O1713 2.160 . S
Co1712 O1718 2.058 . S
Co1712 O1728 2.057 . S
Co1712 O1743 2.037 . S
Co1712 N1747 2.145 . S
Co1712 N1768 2.257 . S
O1713 Co1711 2.143 . S
O1713 Co1712 2.160 . S
C1714 O1715 1.278 . S
C1714 O1722 1.224 . S
O1715 C1714 1.278 . S
C1716 O1717 1.245 . S
C1716 O1728 1.232 . S
O1717 C1716 1.245 . S
O1718 Co1712 2.058 . S
O1718 C1744 1.269 . S
O1719 Co1711 2.074 . S
O1719 C1744 1.257 . S
H1720 C1745 0.930 . S
H1721 C1751 0.930 . S
O1722 Co1711 2.093 . S
O1722 C1714 1.224 . S
H1723 C1755 0.929 . S
H1724 C1757 0.930 . S
H1725 C1758 0.930 . S
H1726 C1756 0.929 . S
H1727 C1759 0.928 . S
O1728 Co1712 2.057 . S
O1728 C1716 1.232 . S
H1729 C1748 0.929 . S
H1730 C1749 0.929 . S
H1731 C1761 0.931 . S
H1732 C1753 0.929 . S
H1733 C1762 0.930 . S
H1734 C1754 0.931 . S
O1735 Co1711 2.097 . S
O1735 C1763 1.214 . S
H1736 C1764 0.929 . S
H1737 C1765 0.929 . S
H1738 C1766 0.930 . S
H1739 C1767 0.929 . S
H1740 C1769 0.930 . S
H1741 C1746 0.930 . S
H1742 C1750 0.950 . S
O1743 Co1712 2.037 . S
O1743 C1763 1.234 . S
C1744 O1718 1.269 . S
C1744 O1719 1.257 . S
C1745 H1720 0.930 . S
C1745 C1748 1.388 . S
C1745 C1750 1.418 . S
C1746 H1741 0.930 . S
C1746 C1749 1.404 . S
C1746 C1750 1.353 . S
N1747 Co1712 2.145 . S
N1747 C1748 1.397 . S
N1747 C1749 1.334 . S
C1748 H1729 0.929 . S
C1748 C1745 1.388 . S
C1748 N1747 1.397 . S
C1749 H1730 0.929 . S
C1749 C1746 1.404 . S
C1749 N1747 1.334 . S
C1750 H1742 0.950 . S
C1750 C1745 1.418 . S
C1750 C1746 1.353 . S
C1751 H1721 0.930 . S
C1751 N1752 1.330 . S
C1751 C1753 1.446 . S
N1752 Co1711 2.151 . S
N1752 C1751 1.330 . S
N1752 C1756 1.418 . S
C1753 H1732 0.929 . S
C1753 C1751 1.446 . S
C1753 C1754 1.332 . S
C1754 H1734 0.931 . S
C1754 C1753 1.332 . S
C1754 C1755 1.267 . S
C1755 H1723 0.929 . S
C1755 C1754 1.267 . S
C1755 C1756 1.251 . S
C1756 H1726 0.929 . S
C1756 N1752 1.418 . S
C1756 C1755 1.251 . S
C1757 H1724 0.930 . S
C1757 C1759 1.406 . S
C1757 C1762 1.261 . S
C1758 H1725 0.930 . S
C1758 N1760 1.325 . S
C1758 C1761 1.357 . S
C1759 H1727 0.928 . S
C1759 C1757 1.406 . S
C1759 N1760 1.261 . S
N1760 Co1711 2.214 . S
N1760 C1758 1.325 . S
N1760 C1759 1.261 . S
C1761 H1731 0.931 . S
C1761 C1758 1.357 . S
C1761 C1762 1.312 . S
C1762 H1733 0.930 . S
C1762 C1757 1.261 . S
C1762 C1761 1.312 . S
C1763 O1735 1.214 . S
C1763 O1743 1.234 . S
C1764 H1736 0.929 . S
C1764 C1767 1.391 . S
C1764 C1769 1.391 . S
C1765 H1737 0.929 . S
C1765 C1766 1.390 . S
C1765 N1768 1.391 . S
C1766 H1738 0.930 . S
C1766 C1765 1.390 . S
C1766 C1767 1.392 . S
C1767 H1739 0.929 . S
C1767 C1764 1.391 . S
C1767 C1766 1.392 . S
N1768 Co1712 2.257 . S
N1768 C1765 1.391 . S
N1768 C1769 1.388 . S
C1769 H1740 0.930 . S
C1769 C1764 1.391 . S
C1769 N1768 1.388 . S
Co1770 O1772 2.143 . S
Co1770 O1778 2.074 . S
Co1770 O1781 2.093 . S
Co1770 O1794 2.097 . S
Co1770 N1811 2.151 . S
Co1770 N1819 2.214 . S
Co1771 O1772 2.160 . S
Co1771 O1777 2.058 . S
Co1771 O1787 2.057 . S
Co1771 O1802 2.037 . S
Co1771 N1806 2.145 . S
Co1771 N1827 2.257 . S
O1772 Co1770 2.143 . S
O1772 Co1771 2.160 . S
C1773 O1774 1.278 . S
C1773 O1781 1.224 . S
O1774 C1773 1.278 . S
C1775 O1776 1.245 . S
C1775 O1787 1.232 . S
O1776 C1775 1.245 . S
O1777 Co1771 2.058 . S
O1777 C1803 1.269 . S
O1778 Co1770 2.074 . S
O1778 C1803 1.257 . S
H1779 C1804 0.930 . S
H1780 C1810 0.930 . S
O1781 Co1770 2.093 . S
O1781 C1773 1.224 . S
H1782 C1814 0.929 . S
H1783 C1816 0.930 . S
H1784 C1817 0.930 . S
H1785 C1815 0.929 . S
H1786 C1818 0.928 . S
O1787 Co1771 2.057 . S
O1787 C1775 1.232 . S
H1788 C1807 0.929 . S
H1789 C1808 0.929 . S
H1790 C1820 0.928 1_655 S
H1791 C1812 0.929 1_565 S
H1792 C1821 0.930 . S
H1793 C1813 0.931 1_565 S
O1794 Co1770 2.097 . S
O1794 C1822 1.214 . S
H1795 C1823 0.929 . S
H1796 C1824 0.929 . S
H1797 C1825 0.930 . S
H1798 C1826 0.929 . S
H1799 C1828 0.930 . S
H1800 C1805 0.930 . S
H1801 C1809 0.930 . S
O1802 Co1771 2.037 . S
O1802 C1822 1.234 . S
C1803 O1777 1.269 . S
C1803 O1778 1.257 . S
C1804 H1779 0.930 . S
C1804 C1807 1.388 . S
C1804 C1809 1.418 . S
C1805 H1800 0.930 . S
C1805 C1808 1.404 . S
C1805 C1809 1.353 . S
N1806 Co1771 2.145 . S
N1806 C1807 1.397 . S
N1806 C1808 1.334 . S
C1807 H1788 0.929 . S
C1807 C1804 1.388 . S
C1807 N1806 1.397 . S
C1808 H1789 0.929 . S
C1808 C1805 1.404 . S
C1808 N1806 1.334 . S
C1809 H1801 0.930 . S
C1809 C1804 1.418 . S
C1809 C1805 1.353 . S
C1810 H1780 0.930 . S
C1810 N1811 1.330 . S
C1810 C1812 1.446 . S
N1811 Co1770 2.151 . S
N1811 C1810 1.330 . S
N1811 C1815 1.418 . S
C1812 H1791 0.929 1_545 S
C1812 C1810 1.446 . S
C1812 C1813 1.332 . S
C1813 H1793 0.931 1_545 S
C1813 C1812 1.332 . S
C1813 C1814 1.267 . S
C1814 H1782 0.929 . S
C1814 C1813 1.267 . S
C1814 C1815 1.251 . S
C1815 H1785 0.929 . S
C1815 N1811 1.418 . S
C1815 C1814 1.251 . S
C1816 H1783 0.930 . S
C1816 C1818 1.406 1_655 S
C1816 C1821 1.261 . S
C1817 H1784 0.930 . S
C1817 N1819 1.325 . S
C1817 C1820 1.357 . S
C1818 H1786 0.928 . S
C1818 C1816 1.406 1_455 S
C1818 N1819 1.261 . S
N1819 Co1770 2.214 . S
N1819 C1817 1.325 . S
N1819 C1818 1.261 . S
C1820 H1790 0.928 1_455 S
C1820 C1817 1.357 . S
C1820 C1821 1.312 1_455 S
C1821 H1792 0.930 . S
C1821 C1816 1.261 . S
C1821 C1820 1.312 1_655 S
C1822 O1794 1.214 . S
C1822 O1802 1.234 . S
C1823 H1795 0.929 . S
C1823 C1826 1.391 . S
C1823 C1828 1.391 . S
C1824 H1796 0.929 . S
C1824 C1825 1.390 . S
C1824 N1827 1.391 . S
C1825 H1797 0.930 . S
C1825 C1824 1.390 . S
C1825 C1826 1.392 . S
C1826 H1798 0.929 . S
C1826 C1823 1.391 . S
C1826 C1825 1.392 . S
N1827 Co1771 2.257 . S
N1827 C1824 1.391 . S
N1827 C1828 1.388 . S
C1828 H1799 0.930 . S
C1828 C1823 1.391 . S
C1828 N1827 1.388 . S
Co1829 O1831 2.143 . S
Co1829 O1837 2.074 . S
Co1829 O1840 2.093 . S
Co1829 O1853 2.097 . S
Co1829 N1870 2.151 . S
Co1829 N1878 2.214 . S
Co1830 O1831 2.160 . S
Co1830 O1836 2.058 . S
Co1830 O1846 2.057 . S
Co1830 O1861 2.037 . S
Co1830 N1865 2.145 . S
Co1830 N1886 2.257 . S
O1831 Co1829 2.143 . S
O1831 Co1830 2.160 . S
C1832 O1833 1.278 . S
C1832 O1840 1.224 . S
O1833 C1832 1.278 . S
C1834 O1835 1.245 . S
C1834 O1846 1.232 . S
O1835 C1834 1.245 . S
O1836 Co1830 2.058 . S
O1836 C1862 1.269 . S
O1837 Co1829 2.074 . S
O1837 C1862 1.257 . S
H1838 C1863 0.930 . S
H1839 C1869 0.930 . S
O1840 Co1829 2.093 . S
O1840 C1832 1.224 . S
H1841 C1873 0.929 . S
H1842 C1875 0.930 . S
H1843 C1876 0.930 . S
H1844 C1874 0.929 . S
H1845 C1877 0.928 . S
O1846 Co1830 2.057 . S
O1846 C1834 1.232 . S
H1847 C1866 0.929 . S
H1848 C1867 0.929 . S
H1849 C1879 0.931 . S
H1850 C1871 0.929 . S
H1851 C1880 0.930 . S
H1852 C1872 0.931 . S
O1853 Co1829 2.097 . S
O1853 C1881 1.214 . S
H1854 C1882 0.929 . S
H1855 C1883 0.929 . S
H1856 C1884 0.930 . S
H1857 C1885 0.929 . S
H1858 C1887 0.930 . S
H1859 C1864 0.930 . S
H1860 C1868 0.930 . S
O1861 Co1830 2.037 . S
O1861 C1881 1.234 . S
C1862 O1836 1.269 . S
C1862 O1837 1.257 . S
C1863 H1838 0.930 . S
C1863 C1866 1.388 . S
C1863 C1868 1.418 . S
C1864 H1859 0.930 . S
C1864 C1867 1.404 . S
C1864 C1868 1.353 . S
N1865 Co1830 2.145 . S
N1865 C1866 1.397 . S
N1865 C1867 1.334 . S
C1866 H1847 0.929 . S
C1866 C1863 1.388 . S
C1866 N1865 1.397 . S
C1867 H1848 0.929 . S
C1867 C1864 1.404 . S
C1867 N1865 1.334 . S
C1868 H1860 0.930 . S
C1868 C1863 1.418 . S
C1868 C1864 1.353 . S
C1869 H1839 0.930 . S
C1869 N1870 1.330 . S
C1869 C1871 1.446 . S
N1870 Co1829 2.151 . S
N1870 C1869 1.330 . S
N1870 C1874 1.418 . S
C1871 H1850 0.929 . S
C1871 C1869 1.446 . S
C1871 C1872 1.332 . S
C1872 H1852 0.931 . S
C1872 C1871 1.332 . S
C1872 C1873 1.267 . S
C1873 H1841 0.929 . S
C1873 C1872 1.267 . S
C1873 C1874 1.251 . S
C1874 H1844 0.929 . S
C1874 N1870 1.418 . S
C1874 C1873 1.251 . S
C1875 H1842 0.930 . S
C1875 C1877 1.406 . S
C1875 C1880 1.261 . S
C1876 H1843 0.930 . S
C1876 N1878 1.325 . S
C1876 C1879 1.357 . S
C1877 H1845 0.928 . S
C1877 C1875 1.406 . S
C1877 N1878 1.261 . S
N1878 Co1829 2.214 . S
N1878 C1876 1.325 . S
N1878 C1877 1.261 . S
C1879 H1849 0.931 . S
C1879 C1876 1.357 . S
C1879 C1880 1.312 . S
C1880 H1851 0.930 . S
C1880 C1875 1.261 . S
C1880 C1879 1.312 . S
C1881 O1853 1.214 . S
C1881 O1861 1.234 . S
C1882 H1854 0.929 . S
C1882 C1885 1.391 . S
C1882 C1887 1.391 . S
C1883 H1855 0.929 . S
C1883 C1884 1.390 . S
C1883 N1886 1.391 . S
C1884 H1856 0.930 . S
C1884 C1883 1.390 . S
C1884 C1885 1.392 . S
C1885 H1857 0.929 . S
C1885 C1882 1.391 . S
C1885 C1884 1.392 . S
N1886 Co1830 2.257 . S
N1886 C1883 1.391 . S
N1886 C1887 1.388 . S
C1887 H1858 0.930 . S
C1887 C1882 1.391 . S
C1887 N1886 1.388 . S
H1888 C1896 0.950 . S
H1889 C1901 0.929 1_554 S
H1890 C1898 0.940 1_455 S
H1891 C1900 0.950 . S
H1892 C1902 0.950 . S
H1893 C1904 0.940 1_655 S
H1894 C1906 0.950 . S
H1895 C1907 0.929 1_556 S
C1896 H1888 0.950 . S
C1896 C1897 1.386 . S
C1896 C1898 1.391 . S
C1897 C1896 1.386 . S
C1897 C1901 1.428 . S
C1898 H1890 0.940 1_655 S
C1898 C1896 1.391 . S
C1898 C1899 1.400 . S
C1899 C1898 1.400 . S
C1899 C1900 1.398 1_556 S
C1899 C1905 1.491 1_656 S
C1900 H1891 0.950 . S
C1900 C1899 1.398 1_554 S
C1900 C1901 1.377 1_554 S
C1901 H1889 0.929 1_556 S
C1901 C1897 1.428 . S
C1901 C1900 1.377 1_556 S
C1902 H1892 0.950 . S
C1902 C1903 1.386 . S
C1902 C1904 1.391 . S
C1903 C1902 1.386 . S
C1903 C1907 1.428 . S
C1904 H1893 0.940 1_455 S
C1904 C1902 1.391 . S
C1904 C1905 1.400 . S
C1905 C1899 1.491 1_454 S
C1905 C1904 1.400 . S
C1905 C1906 1.398 1_554 S
C1906 H1894 0.950 . S
C1906 C1905 1.398 1_556 S
C1906 C1907 1.377 1_556 S
C1907 H1895 0.929 1_554 S
C1907 C1903 1.428 . S
C1907 C1906 1.377 1_554 S
H1908 C1916 0.950 . S
H1909 C1921 0.950 . S
H1910 C1918 0.950 . S
H1911 C1920 0.950 . S
H1912 C1922 0.950 . S
H1913 C1924 0.950 . S
H1914 C1926 0.950 . S
H1915 C1927 0.950 . S
C1916 H1908 0.950 . S
C1916 C1917 1.386 . S
C1916 C1918 1.391 . S
C1917 C1916 1.386 . S
C1917 C1921 1.393 . S
C1918 H1910 0.950 . S
C1918 C1916 1.391 . S
C1918 C1919 1.400 . S
C1919 C1918 1.400 . S
C1919 C1920 1.398 . S
C1919 C1925 1.491 . S
C1920 H1911 0.950 . S
C1920 C1919 1.398 . S
C1920 C1921 1.391 . S
C1921 H1909 0.950 . S
C1921 C1917 1.393 . S
C1921 C1920 1.391 . S
C1922 H1912 0.950 . S
C1922 C1923 1.386 . S
C1922 C1924 1.391 . S
C1923 C1922 1.386 . S
C1923 C1927 1.393 . S
C1924 H1913 0.950 . S
C1924 C1922 1.391 . S
C1924 C1925 1.400 . S
C1925 C1919 1.491 . S
C1925 C1924 1.400 . S
C1925 C1926 1.398 . S
C1926 H1914 0.950 . S
C1926 C1925 1.398 . S
C1926 C1927 1.391 . S
C1927 H1915 0.950 . S
C1927 C1923 1.393 . S
C1927 C1926 1.391 . S
H1928 C1936 0.950 . S
H1929 C1941 0.950 . S
H1930 C1938 0.950 . S
H1931 C1940 0.950 . S
H1932 C1942 0.950 . S
H1933 C1944 0.950 . S
H1934 C1946 0.950 . S
H1935 C1947 0.950 . S
C1936 H1928 0.950 . S
C1936 C1937 1.386 . S
C1936 C1938 1.391 . S
C1937 C1936 1.386 . S
C1937 C1941 1.393 . S
C1938 H1930 0.950 . S
C1938 C1936 1.391 . S
C1938 C1939 1.400 . S
C1939 C1938 1.400 . S
C1939 C1940 1.398 . S
C1939 C1945 1.491 . S
C1940 H1931 0.950 . S
C1940 C1939 1.398 . S
C1940 C1941 1.391 . S
C1941 H1929 0.950 . S
C1941 C1937 1.393 . S
C1941 C1940 1.391 . S
C1942 H1932 0.950 . S
C1942 C1943 1.386 . S
C1942 C1944 1.391 . S
C1943 C1942 1.386 . S
C1943 C1947 1.393 . S
C1944 H1933 0.950 . S
C1944 C1942 1.391 . S
C1944 C1945 1.400 . S
C1945 C1939 1.491 . S
C1945 C1944 1.400 . S
C1945 C1946 1.398 . S
C1946 H1934 0.950 . S
C1946 C1945 1.398 . S
C1946 C1947 1.391 . S
C1947 H1935 0.950 . S
C1947 C1943 1.393 . S
C1947 C1946 1.391 . S
H1948 C1956 0.950 . S
H1949 C1961 0.950 . S
H1950 C1958 0.950 . S
H1951 C1960 0.950 . S
H1952 C1962 0.950 . S
H1953 C1964 0.950 . S
H1954 C1966 0.950 . S
H1955 C1967 0.950 . S
C1956 H1948 0.950 . S
C1956 C1957 1.386 . S
C1956 C1958 1.391 . S
C1957 C1956 1.386 . S
C1957 C1961 1.393 . S
C1958 H1950 0.950 . S
C1958 C1956 1.391 . S
C1958 C1959 1.400 . S
C1959 C1958 1.400 . S
C1959 C1960 1.398 . S
C1959 C1965 1.491 . S
C1960 H1951 0.950 . S
C1960 C1959 1.398 . S
C1960 C1961 1.391 . S
C1961 H1949 0.950 . S
C1961 C1957 1.393 . S
C1961 C1960 1.391 . S
C1962 H1952 0.950 . S
C1962 C1963 1.386 . S
C1962 C1964 1.391 . S
C1963 C1962 1.386 . S
C1963 C1967 1.393 . S
C1964 H1953 0.950 . S
C1964 C1962 1.391 . S
C1964 C1965 1.400 . S
C1965 C1959 1.491 . S
C1965 C1964 1.400 . S
C1965 C1966 1.398 . S
C1966 H1954 0.950 . S
C1966 C1965 1.398 . S
C1966 C1967 1.391 . S
C1967 H1955 0.950 . S
C1967 C1963 1.393 . S
C1967 C1966 1.391 . S
H1968 C1976 0.950 . S
H1969 C1981 0.950 . S
H1970 C1978 0.950 . S
H1971 C1980 0.950 1_455 S
H1972 C1982 0.950 . S
H1973 C1984 0.950 . S
H1974 C1986 0.950 1_655 S
H1975 C1987 0.950 . S
C1976 H1968 0.950 . S
C1976 C1977 1.386 . S
C1976 C1978 1.391 . S
C1977 C1976 1.386 . S
C1977 C1981 1.393 . S
C1978 H1970 0.950 . S
C1978 C1976 1.391 . S
C1978 C1979 1.400 . S
C1979 C1978 1.400 . S
C1979 C1980 1.398 . S
C1979 C1985 1.491 1_655 S
C1980 H1971 0.950 1_655 S
C1980 C1979 1.398 . S
C1980 C1981 1.391 . S
C1981 H1969 0.950 . S
C1981 C1977 1.393 . S
C1981 C1980 1.391 . S
C1982 H1972 0.950 . S
C1982 C1983 1.386 . S
C1982 C1984 1.391 . S
C1983 C1982 1.386 . S
C1983 C1987 1.393 . S
C1984 H1973 0.950 . S
C1984 C1982 1.391 . S
C1984 C1985 1.400 . S
C1985 C1979 1.491 1_455 S
C1985 C1984 1.400 . S
C1985 C1986 1.398 . S
C1986 H1974 0.950 1_455 S
C1986 C1985 1.398 . S
C1986 C1987 1.391 . S
C1987 H1975 0.950 . S
C1987 C1983 1.393 . S
C1987 C1986 1.391 . S
H1988 C1996 0.950 . S
H1989 C2001 0.950 . S
H1990 C1998 0.950 . S
H1991 C2000 0.950 . S
H1992 C2002 0.950 . S
H1993 C2004 0.950 . S
H1994 C2006 0.950 . S
H1995 C2007 0.950 . S
C1996 H1988 0.950 . S
C1996 C1997 1.386 . S
C1996 C1998 1.391 . S
C1997 C1996 1.386 . S
C1997 C2001 1.393 . S
C1998 H1990 0.950 . S
C1998 C1996 1.391 . S
C1998 C1999 1.400 . S
C1999 C1998 1.400 . S
C1999 C2000 1.398 . S
C1999 C2005 1.491 . S
C2000 H1991 0.950 . S
C2000 C1999 1.398 . S
C2000 C2001 1.391 . S
C2001 H1989 0.950 . S
C2001 C1997 1.393 . S
C2001 C2000 1.391 . S
C2002 H1992 0.950 . S
C2002 C2003 1.386 . S
C2002 C2004 1.391 . S
C2003 C2002 1.386 . S
C2003 C2007 1.393 . S
C2004 H1993 0.950 . S
C2004 C2002 1.391 . S
C2004 C2005 1.400 . S
C2005 C1999 1.491 . S
C2005 C2004 1.400 . S
C2005 C2006 1.398 . S
C2006 H1994 0.950 . S
C2006 C2005 1.398 . S
C2006 C2007 1.391 . S
C2007 H1995 0.950 . S
C2007 C2003 1.393 . S
C2007 C2006 1.391 . S
H2008 C2016 0.950 . S
H2009 C2021 0.950 . S
H2010 C2018 0.950 1_554 S
H2011 C2020 0.950 . S
H2012 C2022 0.950 . S
H2013 C2024 0.950 1_556 S
H2014 C2026 0.950 . S
H2015 C2027 0.950 . S
C2016 H2008 0.950 . S
C2016 C2017 1.386 . S
C2016 C2018 1.391 . S
C2017 C2016 1.386 . S
C2017 C2021 1.393 . S
C2018 H2010 0.950 1_556 S
C2018 C2016 1.391 . S
C2018 C2019 1.400 . S
C2019 C2018 1.400 . S
C2019 C2020 1.398 . S
C2019 C2025 1.491 1_556 S
C2020 H2011 0.950 . S
C2020 C2019 1.398 . S
C2020 C2021 1.391 . S
C2021 H2009 0.950 . S
C2021 C2017 1.393 . S
C2021 C2020 1.391 . S
C2022 H2012 0.950 . S
C2022 C2023 1.386 . S
C2022 C2024 1.391 . S
C2023 C2022 1.386 . S
C2023 C2027 1.393 . S
C2024 H2013 0.950 1_554 S
C2024 C2022 1.391 . S
C2024 C2025 1.400 . S
C2025 C2019 1.491 1_554 S
C2025 C2024 1.400 . S
C2025 C2026 1.398 . S
C2026 H2014 0.950 . S
C2026 C2025 1.398 . S
C2026 C2027 1.391 . S
C2027 H2015 0.950 . S
C2027 C2023 1.393 . S
C2027 C2026 1.391 . S
H2028 C2036 0.950 . S
H2029 C2041 0.950 . S
H2030 C2038 0.950 . S
H2031 C2040 0.950 . S
H2032 C2042 0.950 . S
H2033 C2044 0.950 . S
H2034 C2046 0.950 . S
H2035 C2047 0.950 . S
C2036 H2028 0.950 . S
C2036 C2037 1.386 . S
C2036 C2038 1.391 . S
C2037 C2036 1.386 . S
C2037 C2041 1.393 . S
C2038 H2030 0.950 . S
C2038 C2036 1.391 . S
C2038 C2039 1.400 . S
C2039 C2038 1.400 . S
C2039 C2040 1.398 . S
C2039 C2045 1.491 . S
C2040 H2031 0.950 . S
C2040 C2039 1.398 . S
C2040 C2041 1.391 . S
C2041 H2029 0.950 . S
C2041 C2037 1.393 . S
C2041 C2040 1.391 . S
C2042 H2032 0.950 . S
C2042 C2043 1.386 . S
C2042 C2044 1.391 . S
C2043 C2042 1.386 . S
C2043 C2047 1.393 . S
C2044 H2033 0.950 . S
C2044 C2042 1.391 . S
C2044 C2045 1.400 . S
C2045 C2039 1.491 . S
C2045 C2044 1.400 . S
C2045 C2046 1.398 . S
C2046 H2034 0.950 . S
C2046 C2045 1.398 . S
C2046 C2047 1.391 . S
C2047 H2035 0.950 . S
C2047 C2043 1.393 . S
C2047 C2046 1.391 . S
H2048 C2056 0.950 . S
H2049 C2061 0.950 . S
H2050 C2058 0.950 . S
H2051 C2060 0.950 . S
H2052 C2062 0.950 . S
H2053 C2064 0.950 . S
H2054 C2066 0.950 . S
H2055 C2067 0.950 . S
C2056 H2048 0.950 . S
C2056 C2057 1.386 . S
C2056 C2058 1.391 . S
C2057 C2056 1.386 . S
C2057 C2061 1.393 . S
C2058 H2050 0.950 . S
C2058 C2056 1.391 . S
C2058 C2059 1.400 . S
C2059 C2058 1.400 . S
C2059 C2060 1.398 . S
C2059 C2065 1.491 . S
C2060 H2051 0.950 . S
C2060 C2059 1.398 . S
C2060 C2061 1.391 . S
C2061 H2049 0.950 . S
C2061 C2057 1.393 . S
C2061 C2060 1.391 . S
C2062 H2052 0.950 . S
C2062 C2063 1.386 . S
C2062 C2064 1.391 . S
C2063 C2062 1.386 . S
C2063 C2067 1.393 . S
C2064 H2053 0.950 . S
C2064 C2062 1.391 . S
C2064 C2065 1.400 . S
C2065 C2059 1.491 . S
C2065 C2064 1.400 . S
C2065 C2066 1.398 . S
C2066 H2054 0.950 . S
C2066 C2065 1.398 . S
C2066 C2067 1.391 . S
C2067 H2055 0.950 . S
C2067 C2063 1.393 . S
C2067 C2066 1.391 . S
H2068 C2076 0.950 . S
H2069 C2081 0.950 . S
H2070 C2078 0.950 . S
H2071 C2080 0.950 . S
H2072 C2082 0.950 . S
H2073 C2084 0.950 . S
H2074 C2086 0.950 . S
H2075 C2087 0.950 . S
C2076 H2068 0.950 . S
C2076 C2077 1.386 . S
C2076 C2078 1.391 . S
C2077 C2076 1.386 . S
C2077 C2081 1.393 . S
C2078 H2070 0.950 . S
C2078 C2076 1.391 . S
C2078 C2079 1.400 . S
C2079 C2078 1.400 . S
C2079 C2080 1.398 . S
C2079 C2085 1.491 . S
C2080 H2071 0.950 . S
C2080 C2079 1.398 . S
C2080 C2081 1.391 . S
C2081 H2069 0.950 . S
C2081 C2077 1.393 . S
C2081 C2080 1.391 . S
C2082 H2072 0.950 . S
C2082 C2083 1.386 . S
C2082 C2084 1.391 . S
C2083 C2082 1.386 . S
C2083 C2087 1.393 . S
C2084 H2073 0.950 . S
C2084 C2082 1.391 . S
C2084 C2085 1.400 . S
C2085 C2079 1.491 . S
C2085 C2084 1.400 . S
C2085 C2086 1.398 . S
C2086 H2074 0.950 . S
C2086 C2085 1.398 . S
C2086 C2087 1.391 . S
C2087 H2075 0.950 . S
C2087 C2083 1.393 . S
C2087 C2086 1.391 . S
H2088 C2096 0.950 . S
H2089 C2101 0.950 . S
H2090 C2098 0.950 . S
H2091 C2100 0.950 . S
H2092 C2102 0.950 . S
H2093 C2104 0.950 . S
H2094 C2106 0.950 . S
H2095 C2107 0.950 . S
C2096 H2088 0.950 . S
C2096 C2097 1.386 . S
C2096 C2098 1.391 . S
C2097 C2096 1.386 . S
C2097 C2101 1.393 . S
C2098 H2090 0.950 . S
C2098 C2096 1.391 . S
C2098 C2099 1.400 . S
C2099 C2098 1.400 . S
C2099 C2100 1.398 . S
C2099 C2105 1.491 . S
C2100 H2091 0.950 . S
C2100 C2099 1.398 . S
C2100 C2101 1.391 . S
C2101 H2089 0.950 . S
C2101 C2097 1.393 . S
C2101 C2100 1.391 . S
C2102 H2092 0.950 . S
C2102 C2103 1.386 . S
C2102 C2104 1.391 . S
C2103 C2102 1.386 . S
C2103 C2107 1.393 . S
C2104 H2093 0.950 . S
C2104 C2102 1.391 . S
C2104 C2105 1.400 . S
C2105 C2099 1.491 . S
C2105 C2104 1.400 . S
C2105 C2106 1.398 . S
C2106 H2094 0.950 . S
C2106 C2105 1.398 . S
C2106 C2107 1.391 . S
C2107 H2095 0.950 . S
C2107 C2103 1.393 . S
C2107 C2106 1.391 . S
H2108 C2116 0.950 . S
H2109 C2121 0.950 . S
H2110 C2118 0.950 . S
H2111 C2120 0.950 . S
H2112 C2122 0.950 . S
H2113 C2124 0.950 . S
H2114 C2126 0.950 . S
H2115 C2127 0.950 . S
C2116 H2108 0.950 . S
C2116 C2117 1.386 . S
C2116 C2118 1.391 . S
C2117 C2116 1.386 . S
C2117 C2121 1.393 . S
C2118 H2110 0.950 . S
C2118 C2116 1.391 . S
C2118 C2119 1.400 . S
C2119 C2118 1.400 . S
C2119 C2120 1.398 . S
C2119 C2125 1.491 . S
C2120 H2111 0.950 . S
C2120 C2119 1.398 . S
C2120 C2121 1.391 . S
C2121 H2109 0.950 . S
C2121 C2117 1.393 . S
C2121 C2120 1.391 . S
C2122 H2112 0.950 . S
C2122 C2123 1.386 . S
C2122 C2124 1.391 . S
C2123 C2122 1.386 . S
C2123 C2127 1.393 . S
C2124 H2113 0.950 . S
C2124 C2122 1.391 . S
C2124 C2125 1.400 . S
C2125 C2119 1.491 . S
C2125 C2124 1.400 . S
C2125 C2126 1.398 . S
C2126 H2114 0.950 . S
C2126 C2125 1.398 . S
C2126 C2127 1.391 . S
C2127 H2115 0.950 . S
C2127 C2123 1.393 . S
C2127 C2126 1.391 . S
H2128 C2136 0.950 . S
H2129 C2141 0.950 . S
H2130 C2138 0.950 1_545 S
H2131 C2140 0.950 . S
H2132 C2142 0.950 . S
H2133 C2144 0.950 1_565 S
H2134 C2146 0.950 . S
H2135 C2147 0.950 . S
C2136 H2128 0.950 . S
C2136 C2137 1.386 . S
C2136 C2138 1.391 . S
C2137 C2136 1.386 . S
C2137 C2141 1.393 . S
C2138 H2130 0.950 1_565 S
C2138 C2136 1.391 . S
C2138 C2139 1.400 . S
C2139 C2138 1.400 . S
C2139 C2140 1.398 . S
C2139 C2145 1.491 1_565 S
C2140 H2131 0.950 . S
C2140 C2139 1.398 . S
C2140 C2141 1.391 . S
C2141 H2129 0.950 . S
C2141 C2137 1.393 . S
C2141 C2140 1.391 . S
C2142 H2132 0.950 . S
C2142 C2143 1.386 . S
C2142 C2144 1.391 . S
C2143 C2142 1.386 . S
C2143 C2147 1.393 . S
C2144 H2133 0.950 1_545 S
C2144 C2142 1.391 . S
C2144 C2145 1.400 . S
C2145 C2139 1.491 1_545 S
C2145 C2144 1.400 . S
C2145 C2146 1.398 . S
C2146 H2134 0.950 . S
C2146 C2145 1.398 . S
C2146 C2147 1.391 . S
C2147 H2135 0.950 . S
C2147 C2143 1.393 . S
C2147 C2146 1.391 . S
H2148 C2156 0.950 . S
H2149 C2161 0.950 . S
H2150 C2158 0.932 1_654 S
H2151 C2160 0.950 1_545 S
H2152 C2162 0.950 . S
H2153 C2164 0.932 1_456 S
H2154 C2166 0.950 1_565 S
H2155 C2167 0.950 . S
C2156 H2148 0.950 . S
C2156 C2157 1.386 . S
C2156 C2158 1.404 . S
C2157 C2156 1.386 . S
C2157 C2161 1.393 . S
C2158 H2150 0.932 1_456 S
C2158 C2156 1.404 . S
C2158 C2159 1.406 . S
C2159 C2158 1.406 . S
C2159 C2160 1.398 . S
C2159 C2165 1.491 1_466 S
C2160 H2151 0.950 1_565 S
C2160 C2159 1.398 . S
C2160 C2161 1.391 . S
C2161 H2149 0.950 . S
C2161 C2157 1.393 . S
C2161 C2160 1.391 . S
C2162 H2152 0.950 . S
C2162 C2163 1.386 . S
C2162 C2164 1.404 . S
C2163 C2162 1.386 . S
C2163 C2167 1.393 . S
C2164 H2153 0.932 1_654 S
C2164 C2162 1.404 . S
C2164 C2165 1.406 . S
C2165 C2159 1.491 1_644 S
C2165 C2164 1.406 . S
C2165 C2166 1.398 . S
C2166 H2154 0.950 1_545 S
C2166 C2165 1.398 . S
C2166 C2167 1.391 . S
C2167 H2155 0.950 . S
C2167 C2163 1.393 . S
C2167 C2166 1.391 . S
H2168 C2176 0.950 1_554 S
H2169 C2181 0.950 . S
H2170 C2178 0.950 . S
H2171 C2180 0.950 1_565 S
H2172 C2182 0.950 1_556 S
H2173 C2184 0.950 . S
H2174 C2186 0.950 1_545 S
H2175 C2187 0.950 . S
C2176 H2168 0.950 1_556 S
C2176 C2177 1.386 . S
C2176 C2178 1.391 1_556 S
C2177 C2176 1.386 . S
C2177 C2181 1.393 . S
C2178 H2170 0.950 . S
C2178 C2176 1.391 1_554 S
C2178 C2179 1.400 1_554 S
C2179 C2178 1.400 1_556 S
C2179 C2180 1.398 . S
C2179 C2185 1.491 1_546 S
C2180 H2171 0.950 1_545 S
C2180 C2179 1.398 . S
C2180 C2181 1.391 . S
C2181 H2169 0.950 . S
C2181 C2177 1.393 . S
C2181 C2180 1.391 . S
C2182 H2172 0.950 1_554 S
C2182 C2183 1.386 . S
C2182 C2184 1.391 1_554 S
C2183 C2182 1.386 . S
C2183 C2187 1.393 . S
C2184 H2173 0.950 . S
C2184 C2182 1.391 1_556 S
C2184 C2185 1.400 1_556 S
C2185 C2179 1.491 1_564 S
C2185 C2184 1.400 1_554 S
C2185 C2186 1.398 . S
C2186 H2174 0.950 1_565 S
C2186 C2185 1.398 . S
C2186 C2187 1.391 . S
C2187 H2175 0.950 . S
C2187 C2183 1.393 . S
C2187 C2186 1.391 . S
H2188 C2196 0.950 . S
H2189 C2201 0.950 . S
H2190 C2198 0.950 1_655 S
H2191 C2200 0.950 1_565 S
H2192 C2202 0.950 . S
H2193 C2204 0.950 1_455 S
H2194 C2206 0.950 1_545 S
H2195 C2207 0.950 . S
C2196 H2188 0.950 . S
C2196 C2197 1.386 . S
C2196 C2198 1.391 . S
C2197 C2196 1.386 . S
C2197 C2201 1.393 . S
C2198 H2190 0.950 1_455 S
C2198 C2196 1.391 . S
C2198 C2199 1.400 . S
C2199 C2198 1.400 . S
C2199 C2200 1.398 . S
C2199 C2205 1.491 1_445 S
C2200 H2191 0.950 1_545 S
C2200 C2199 1.398 . S
C2200 C2201 1.391 . S
C2201 H2189 0.950 . S
C2201 C2197 1.393 . S
C2201 C2200 1.391 . S
C2202 H2192 0.950 . S
C2202 C2203 1.386 . S
C2202 C2204 1.391 . S
C2203 C2202 1.386 . S
C2203 C2207 1.393 . S
C2204 H2193 0.950 1_655 S
C2204 C2202 1.391 . S
C2204 C2205 1.400 . S
C2205 C2199 1.491 1_665 S
C2205 C2204 1.400 . S
C2205 C2206 1.398 . S
C2206 H2194 0.950 1_565 S
C2206 C2205 1.398 . S
C2206 C2207 1.391 . S
C2207 H2195 0.950 . S
C2207 C2203 1.393 . S
C2207 C2206 1.391 . S
H2208 C2216 0.950 . S
H2209 C2221 0.937 1_455 S
H2210 C2218 0.950 . S
H2211 C2220 0.950 . S
H2212 C2222 0.950 . S
H2213 C2224 0.950 . S
H2214 C2226 0.950 . S
H2215 C2227 0.937 1_655 S
C2216 H2208 0.950 . S
C2216 C2217 1.386 . S
C2216 C2218 1.391 . S
C2217 C2216 1.386 . S
C2217 C2221 1.393 . S
C2218 H2210 0.950 . S
C2218 C2216 1.391 . S
C2218 C2219 1.400 . S
C2219 C2218 1.400 . S
C2219 C2220 1.398 1_655 S
C2219 C2225 1.491 1_655 S
C2220 H2211 0.950 . S
C2220 C2219 1.398 1_455 S
C2220 C2221 1.391 1_455 S
C2221 H2209 0.937 1_655 S
C2221 C2217 1.393 . S
C2221 C2220 1.391 1_655 S
C2222 H2212 0.950 . S
C2222 C2223 1.386 . S
C2222 C2224 1.391 . S
C2223 C2222 1.386 . S
C2223 C2227 1.393 . S
C2224 H2213 0.950 . S
C2224 C2222 1.391 . S
C2224 C2225 1.400 . S
C2225 C2219 1.491 1_455 S
C2225 C2224 1.400 . S
C2225 C2226 1.398 1_455 S
C2226 H2214 0.950 . S
C2226 C2225 1.398 1_655 S
C2226 C2227 1.391 1_655 S
C2227 H2215 0.937 1_455 S
C2227 C2223 1.393 . S
C2227 C2226 1.391 1_455 S
H2228 C2236 0.950 . S
H2229 C2241 0.950 . S
H2230 C2238 0.950 . S
H2231 C2240 0.950 . S
H2232 C2242 0.950 . S
H2233 C2244 0.950 . S
H2234 C2246 0.950 . S
H2235 C2247 0.950 . S
C2236 H2228 0.950 . S
C2236 C2237 1.386 . S
C2236 C2238 1.391 . S
C2237 C2236 1.386 . S
C2237 C2241 1.393 . S
C2238 H2230 0.950 . S
C2238 C2236 1.391 . S
C2238 C2239 1.400 . S
C2239 C2238 1.400 . S
C2239 C2240 1.398 . S
C2239 C2245 1.491 1_455 S
C2240 H2231 0.950 . S
C2240 C2239 1.398 . S
C2240 C2241 1.391 . S
C2241 H2229 0.950 . S
C2241 C2237 1.393 . S
C2241 C2240 1.391 . S
C2242 H2232 0.950 . S
C2242 C2243 1.386 . S
C2242 C2244 1.391 . S
C2243 C2242 1.386 . S
C2243 C2247 1.393 . S
C2244 H2233 0.950 . S
C2244 C2242 1.391 . S
C2244 C2245 1.400 . S
C2245 C2239 1.491 1_655 S
C2245 C2244 1.400 . S
C2245 C2246 1.398 . S
C2246 H2234 0.950 . S
C2246 C2245 1.398 . S
C2246 C2247 1.391 . S
C2247 H2235 0.950 . S
C2247 C2243 1.393 . S
C2247 C2246 1.391 . S
H2248 C2256 0.950 . S
H2249 C2261 0.950 . S
H2250 C2258 0.950 . S
H2251 C2260 0.950 . S
H2252 C2262 0.950 . S
H2253 C2264 0.950 . S
H2254 C2266 0.950 . S
H2255 C2267 0.950 . S
C2256 H2248 0.950 . S
C2256 C2257 1.386 . S
C2256 C2258 1.391 . S
C2257 C2256 1.386 . S
C2257 C2261 1.393 . S
C2258 H2250 0.950 . S
C2258 C2256 1.391 . S
C2258 C2259 1.400 . S
C2259 C2258 1.400 . S
C2259 C2260 1.398 . S
C2259 C2265 1.491 . S
C2260 H2251 0.950 . S
C2260 C2259 1.398 . S
C2260 C2261 1.391 . S
C2261 H2249 0.950 . S
C2261 C2257 1.393 . S
C2261 C2260 1.391 . S
C2262 H2252 0.950 . S
C2262 C2263 1.386 . S
C2262 C2264 1.391 . S
C2263 C2262 1.386 . S
C2263 C2267 1.393 . S
C2264 H2253 0.950 . S
C2264 C2262 1.391 . S
C2264 C2265 1.400 . S
C2265 C2259 1.491 . S
C2265 C2264 1.400 . S
C2265 C2266 1.398 . S
C2266 H2254 0.950 . S
C2266 C2265 1.398 . S
C2266 C2267 1.391 . S
C2267 H2255 0.950 . S
C2267 C2263 1.393 . S
C2267 C2266 1.391 . S
H2268 C2276 0.950 . S
H2269 C2281 0.950 . S
H2270 C2278 0.950 . S
H2271 C2280 0.950 . S
H2272 C2282 0.950 . S
H2273 C2284 0.950 . S
H2274 C2286 0.950 . S
H2275 C2287 0.950 . S
C2276 H2268 0.950 . S
C2276 C2277 1.386 . S
C2276 C2278 1.391 . S
C2277 C2276 1.386 . S
C2277 C2281 1.393 . S
C2278 H2270 0.950 . S
C2278 C2276 1.391 . S
C2278 C2279 1.400 . S
C2279 C2278 1.400 . S
C2279 C2280 1.398 . S
C2279 C2285 1.491 . S
C2280 H2271 0.950 . S
C2280 C2279 1.398 . S
C2280 C2281 1.391 . S
C2281 H2269 0.950 . S
C2281 C2277 1.393 . S
C2281 C2280 1.391 . S
C2282 H2272 0.950 . S
C2282 C2283 1.386 . S
C2282 C2284 1.391 . S
C2283 C2282 1.386 . S
C2283 C2287 1.393 . S
C2284 H2273 0.950 . S
C2284 C2282 1.391 . S
C2284 C2285 1.400 . S
C2285 C2279 1.491 . S
C2285 C2284 1.400 . S
C2285 C2286 1.398 . S
C2286 H2274 0.950 . S
C2286 C2285 1.398 . S
C2286 C2287 1.391 . S
C2287 H2275 0.950 . S
C2287 C2283 1.393 . S
C2287 C2286 1.391 . S
H2288 C2296 0.950 . S
H2289 C2301 0.950 . S
H2290 C2298 0.950 . S
H2291 C2300 0.950 1_455 S
H2292 C2302 0.950 . S
H2293 C2304 0.950 . S
H2294 C2306 0.950 1_655 S
H2295 C2307 0.950 . S
C2296 H2288 0.950 . S
C2296 C2297 1.386 . S
C2296 C2298 1.391 . S
C2297 C2296 1.386 . S
C2297 C2301 1.393 . S
C2298 H2290 0.950 . S
C2298 C2296 1.391 . S
C2298 C2299 1.400 . S
C2299 C2298 1.400 . S
C2299 C2300 1.398 . S
C2299 C2305 1.491 1_655 S
C2300 H2291 0.950 1_655 S
C2300 C2299 1.398 . S
C2300 C2301 1.391 . S
C2301 H2289 0.950 . S
C2301 C2297 1.393 . S
C2301 C2300 1.391 . S
C2302 H2292 0.950 . S
C2302 C2303 1.386 . S
C2302 C2304 1.391 . S
C2303 C2302 1.386 . S
C2303 C2307 1.393 . S
C2304 H2293 0.950 . S
C2304 C2302 1.391 . S
C2304 C2305 1.400 . S
C2305 C2299 1.491 1_455 S
C2305 C2304 1.400 . S
C2305 C2306 1.398 . S
C2306 H2294 0.950 1_455 S
C2306 C2305 1.398 . S
C2306 C2307 1.391 . S
C2307 H2295 0.950 . S
C2307 C2303 1.393 . S
C2307 C2306 1.391 . S
H2308 C2316 0.950 . S
H2309 C2321 0.950 . S
H2310 C2318 0.950 . S
H2311 C2320 0.950 . S
H2312 C2322 0.950 . S
H2313 C2324 0.950 . S
H2314 C2326 0.950 . S
H2315 C2327 0.950 . S
C2316 H2308 0.950 . S
C2316 C2317 1.386 . S
C2316 C2318 1.391 . S
C2317 C2316 1.386 . S
C2317 C2321 1.393 . S
C2318 H2310 0.950 . S
C2318 C2316 1.391 . S
C2318 C2319 1.400 . S
C2319 C2318 1.400 . S
C2319 C2320 1.398 . S
C2319 C2325 1.491 . S
C2320 H2311 0.950 . S
C2320 C2319 1.398 . S
C2320 C2321 1.391 . S
C2321 H2309 0.950 . S
C2321 C2317 1.393 . S
C2321 C2320 1.391 . S
C2322 H2312 0.950 . S
C2322 C2323 1.386 . S
C2322 C2324 1.391 . S
C2323 C2322 1.386 . S
C2323 C2327 1.393 . S
C2324 H2313 0.950 . S
C2324 C2322 1.391 . S
C2324 C2325 1.400 . S
C2325 C2319 1.491 . S
C2325 C2324 1.400 . S
C2325 C2326 1.398 . S
C2326 H2314 0.950 . S
C2326 C2325 1.398 . S
C2326 C2327 1.391 . S
C2327 H2315 0.950 . S
C2327 C2323 1.393 . S
C2327 C2326 1.391 . S
H2328 C2336 0.950 . S
H2329 C2341 0.950 . S
H2330 C2338 0.950 . S
H2331 C2340 0.950 . S
H2332 C2342 0.950 . S
H2333 C2344 0.950 . S
H2334 C2346 0.950 . S
H2335 C2347 0.950 . S
C2336 H2328 0.950 . S
C2336 C2337 1.386 . S
C2336 C2338 1.391 . S
C2337 C2336 1.386 . S
C2337 C2341 1.393 . S
C2338 H2330 0.950 . S
C2338 C2336 1.391 . S
C2338 C2339 1.400 . S
C2339 C2338 1.400 . S
C2339 C2340 1.398 . S
C2339 C2345 1.491 . S
C2340 H2331 0.950 . S
C2340 C2339 1.398 . S
C2340 C2341 1.391 . S
C2341 H2329 0.950 . S
C2341 C2337 1.393 . S
C2341 C2340 1.391 . S
C2342 H2332 0.950 . S
C2342 C2343 1.386 . S
C2342 C2344 1.391 . S
C2343 C2342 1.386 . S
C2343 C2347 1.393 . S
C2344 H2333 0.950 . S
C2344 C2342 1.391 . S
C2344 C2345 1.400 . S
C2345 C2339 1.491 . S
C2345 C2344 1.400 . S
C2345 C2346 1.398 . S
C2346 H2334 0.950 . S
C2346 C2345 1.398 . S
C2346 C2347 1.391 . S
C2347 H2335 0.950 . S
C2347 C2343 1.393 . S
C2347 C2346 1.391 . S
H2348 C2356 0.950 . S
H2349 C2361 0.950 . S
H2350 C2358 0.950 . S
H2351 C2360 0.950 . S
H2352 C2362 0.950 . S
H2353 C2364 0.950 . S
H2354 C2366 0.950 . S
H2355 C2367 0.950 . S
C2356 H2348 0.950 . S
C2356 C2357 1.386 . S
C2356 C2358 1.391 . S
C2357 C2356 1.386 . S
C2357 C2361 1.393 . S
C2358 H2350 0.950 . S
C2358 C2356 1.391 . S
C2358 C2359 1.400 . S
C2359 C2358 1.400 . S
C2359 C2360 1.398 . S
C2359 C2365 1.491 1_455 S
C2360 H2351 0.950 . S
C2360 C2359 1.398 . S
C2360 C2361 1.391 . S
C2361 H2349 0.950 . S
C2361 C2357 1.393 . S
C2361 C2360 1.391 . S
C2362 H2352 0.950 . S
C2362 C2363 1.386 . S
C2362 C2364 1.391 . S
C2363 C2362 1.386 . S
C2363 C2367 1.393 . S
C2364 H2353 0.950 . S
C2364 C2362 1.391 . S
C2364 C2365 1.400 . S
C2365 C2359 1.491 1_655 S
C2365 C2364 1.400 . S
C2365 C2366 1.398 . S
C2366 H2354 0.950 . S
C2366 C2365 1.398 . S
C2366 C2367 1.391 . S
C2367 H2355 0.950 . S
C2367 C2363 1.393 . S
C2367 C2366 1.391 . S
H2368 C2376 0.950 . S
H2369 C2381 0.950 . S
H2370 C2378 0.950 . S
H2371 C2380 0.950 1_455 S
H2372 C2382 0.950 . S
H2373 C2384 0.950 . S
H2374 C2386 0.950 1_655 S
H2375 C2387 0.950 . S
C2376 H2368 0.950 . S
C2376 C2377 1.386 . S
C2376 C2378 1.391 . S
C2377 C2376 1.386 . S
C2377 C2381 1.393 . S
C2378 H2370 0.950 . S
C2378 C2376 1.391 . S
C2378 C2379 1.400 . S
C2379 C2378 1.400 . S
C2379 C2380 1.398 . S
C2379 C2385 1.491 1_655 S
C2380 H2371 0.950 1_655 S
C2380 C2379 1.398 . S
C2380 C2381 1.391 . S
C2381 H2369 0.950 . S
C2381 C2377 1.393 . S
C2381 C2380 1.391 . S
C2382 H2372 0.950 . S
C2382 C2383 1.386 . S
C2382 C2384 1.391 . S
C2383 C2382 1.386 . S
C2383 C2387 1.393 . S
C2384 H2373 0.950 . S
C2384 C2382 1.391 . S
C2384 C2385 1.400 . S
C2385 C2379 1.491 1_455 S
C2385 C2384 1.400 . S
C2385 C2386 1.398 . S
C2386 H2374 0.950 1_455 S
C2386 C2385 1.398 . S
C2386 C2387 1.391 . S
C2387 H2375 0.950 . S
C2387 C2383 1.393 . S
C2387 C2386 1.391 . S
H2388 C2396 0.950 . S
H2389 C2401 0.950 . S
H2390 C2398 0.950 . S
H2391 C2400 0.950 . S
H2392 C2402 0.950 . S
H2393 C2404 0.950 . S
H2394 C2406 0.950 . S
H2395 C2407 0.950 . S
C2396 H2388 0.950 . S
C2396 C2397 1.386 . S
C2396 C2398 1.391 . S
C2397 C2396 1.386 . S
C2397 C2401 1.393 . S
C2398 H2390 0.950 . S
C2398 C2396 1.391 . S
C2398 C2399 1.400 . S
C2399 C2398 1.400 . S
C2399 C2400 1.398 . S
C2399 C2405 1.491 1_655 S
C2400 H2391 0.950 . S
C2400 C2399 1.398 . S
C2400 C2401 1.391 . S
C2401 H2389 0.950 . S
C2401 C2397 1.393 . S
C2401 C2400 1.391 . S
C2402 H2392 0.950 . S
C2402 C2403 1.386 . S
C2402 C2404 1.391 . S
C2403 C2402 1.386 . S
C2403 C2407 1.393 . S
C2404 H2393 0.950 . S
C2404 C2402 1.391 . S
C2404 C2405 1.400 . S
C2405 C2399 1.491 1_455 S
C2405 C2404 1.400 . S
C2405 C2406 1.398 . S
C2406 H2394 0.950 . S
C2406 C2405 1.398 . S
C2406 C2407 1.391 . S
C2407 H2395 0.950 . S
C2407 C2403 1.393 . S
C2407 C2406 1.391 . S
H2408 C2416 0.950 . S
H2409 C2421 0.950 . S
H2410 C2418 0.950 . S
H2411 C2420 0.950 . S
H2412 C2422 0.950 . S
H2413 C2424 0.950 . S
H2414 C2426 0.950 . S
H2415 C2427 0.950 . S
C2416 H2408 0.950 . S
C2416 C2417 1.386 . S
C2416 C2418 1.391 . S
C2417 C2416 1.386 . S
C2417 C2421 1.393 . S
C2418 H2410 0.950 . S
C2418 C2416 1.391 . S
C2418 C2419 1.400 . S
C2419 C2418 1.400 . S
C2419 C2420 1.398 . S
C2419 C2425 1.491 . S
C2420 H2411 0.950 . S
C2420 C2419 1.398 . S
C2420 C2421 1.391 . S
C2421 H2409 0.950 . S
C2421 C2417 1.393 . S
C2421 C2420 1.391 . S
C2422 H2412 0.950 . S
C2422 C2423 1.386 . S
C2422 C2424 1.391 . S
C2423 C2422 1.386 . S
C2423 C2427 1.393 . S
C2424 H2413 0.950 . S
C2424 C2422 1.391 . S
C2424 C2425 1.400 . S
C2425 C2419 1.491 . S
C2425 C2424 1.400 . S
C2425 C2426 1.398 . S
C2426 H2414 0.950 . S
C2426 C2425 1.398 . S
C2426 C2427 1.391 . S
C2427 H2415 0.950 . S
C2427 C2423 1.393 . S
C2427 C2426 1.391 . S
H2428 C2436 0.950 . S
H2429 C2441 0.950 . S
H2430 C2438 0.950 . S
H2431 C2440 0.950 . S
H2432 C2442 0.950 . S
H2433 C2444 0.950 . S
H2434 C2446 0.950 . S
H2435 C2447 0.950 . S
C2436 H2428 0.950 . S
C2436 C2437 1.386 . S
C2436 C2438 1.391 . S
C2437 C2436 1.386 . S
C2437 C2441 1.393 . S
C2438 H2430 0.950 . S
C2438 C2436 1.391 . S
C2438 C2439 1.400 . S
C2439 C2438 1.400 . S
C2439 C2440 1.398 . S
C2439 C2445 1.491 . S
C2440 H2431 0.950 . S
C2440 C2439 1.398 . S
C2440 C2441 1.391 . S
C2441 H2429 0.950 . S
C2441 C2437 1.393 . S
C2441 C2440 1.391 . S
C2442 H2432 0.950 . S
C2442 C2443 1.386 . S
C2442 C2444 1.391 . S
C2443 C2442 1.386 . S
C2443 C2447 1.393 . S
C2444 H2433 0.950 . S
C2444 C2442 1.391 . S
C2444 C2445 1.400 . S
C2445 C2439 1.491 . S
C2445 C2444 1.400 . S
C2445 C2446 1.398 . S
C2446 H2434 0.950 . S
C2446 C2445 1.398 . S
C2446 C2447 1.391 . S
C2447 H2435 0.950 . S
C2447 C2443 1.393 . S
C2447 C2446 1.391 . S
H2448 C2456 0.950 . S
H2449 C2461 0.950 . S
H2450 C2458 0.950 . S
H2451 C2460 0.938 1_455 S
H2452 C2462 0.950 . S
H2453 C2464 0.950 . S
H2454 C2466 0.938 1_655 S
H2455 C2467 0.950 . S
C2456 H2448 0.950 . S
C2456 C2457 1.386 . S
C2456 C2458 1.391 . S
C2457 C2456 1.386 . S
C2457 C2461 1.393 . S
C2458 H2450 0.950 . S
C2458 C2456 1.391 . S
C2458 C2459 1.400 . S
C2459 C2458 1.400 . S
C2459 C2460 1.402 . S
C2459 C2465 1.491 1_655 S
C2460 H2451 0.938 1_655 S
C2460 C2459 1.402 . S
C2460 C2461 1.399 . S
C2461 H2449 0.950 . S
C2461 C2457 1.393 . S
C2461 C2460 1.399 . S
C2462 H2452 0.950 . S
C2462 C2463 1.386 . S
C2462 C2464 1.391 . S
C2463 C2462 1.386 . S
C2463 C2467 1.393 . S
C2464 H2453 0.950 . S
C2464 C2462 1.391 . S
C2464 C2465 1.400 . S
C2465 C2459 1.491 1_455 S
C2465 C2464 1.400 . S
C2465 C2466 1.402 . S
C2466 H2454 0.938 1_455 S
C2466 C2465 1.402 . S
C2466 C2467 1.399 . S
C2467 H2455 0.950 . S
C2467 C2463 1.393 . S
C2467 C2466 1.399 . S
H2468 C2476 0.950 . S
H2469 C2481 0.950 . S
H2470 C2478 0.950 . S
H2471 C2480 0.950 . S
H2472 C2482 0.950 . S
H2473 C2484 0.950 . S
H2474 C2486 0.950 . S
H2475 C2487 0.950 . S
C2476 H2468 0.950 . S
C2476 C2477 1.386 . S
C2476 C2478 1.391 . S
C2477 C2476 1.386 . S
C2477 C2481 1.393 . S
C2478 H2470 0.950 . S
C2478 C2476 1.391 . S
C2478 C2479 1.400 . S
C2479 C2478 1.400 . S
C2479 C2480 1.398 . S
C2479 C2485 1.491 . S
C2480 H2471 0.950 . S
C2480 C2479 1.398 . S
C2480 C2481 1.391 . S
C2481 H2469 0.950 . S
C2481 C2477 1.393 . S
C2481 C2480 1.391 . S
C2482 H2472 0.950 . S
C2482 C2483 1.386 . S
C2482 C2484 1.391 . S
C2483 C2482 1.386 . S
C2483 C2487 1.393 . S
C2484 H2473 0.950 . S
C2484 C2482 1.391 . S
C2484 C2485 1.400 . S
C2485 C2479 1.491 . S
C2485 C2484 1.400 . S
C2485 C2486 1.398 . S
C2486 H2474 0.950 . S
C2486 C2485 1.398 . S
C2486 C2487 1.391 . S
C2487 H2475 0.950 . S
C2487 C2483 1.393 . S
C2487 C2486 1.391 . S
H2488 C2496 0.950 . S
H2489 C2501 0.950 . S
H2490 C2498 0.950 . S
H2491 C2500 0.950 . S
H2492 C2502 0.950 . S
H2493 C2504 0.950 . S
H2494 C2506 0.950 . S
H2495 C2507 0.950 . S
C2496 H2488 0.950 . S
C2496 C2497 1.386 . S
C2496 C2498 1.391 . S
C2497 C2496 1.386 . S
C2497 C2501 1.393 . S
C2498 H2490 0.950 . S
C2498 C2496 1.391 . S
C2498 C2499 1.400 . S
C2499 C2498 1.400 . S
C2499 C2500 1.398 . S
C2499 C2505 1.491 . S
C2500 H2491 0.950 . S
C2500 C2499 1.398 . S
C2500 C2501 1.391 . S
C2501 H2489 0.950 . S
C2501 C2497 1.393 . S
C2501 C2500 1.391 . S
C2502 H2492 0.950 . S
C2502 C2503 1.386 . S
C2502 C2504 1.391 . S
C2503 C2502 1.386 . S
C2503 C2507 1.393 . S
C2504 H2493 0.950 . S
C2504 C2502 1.391 . S
C2504 C2505 1.400 . S
C2505 C2499 1.491 . S
C2505 C2504 1.400 . S
C2505 C2506 1.398 . S
C2506 H2494 0.950 . S
C2506 C2505 1.398 . S
C2506 C2507 1.391 . S
C2507 H2495 0.950 . S
C2507 C2503 1.393 . S
C2507 C2506 1.391 . S
H2508 C2516 0.950 . S
H2509 C2521 0.950 . S
H2510 C2518 0.950 . S
H2511 C2520 0.950 1_455 S
H2512 C2522 0.950 . S
H2513 C2524 0.950 . S
H2514 C2526 0.950 1_655 S
H2515 C2527 0.950 . S
C2516 H2508 0.950 . S
C2516 C2517 1.386 . S
C2516 C2518 1.391 . S
C2517 C2516 1.386 . S
C2517 C2521 1.393 . S
C2518 H2510 0.950 . S
C2518 C2516 1.391 . S
C2518 C2519 1.400 . S
C2519 C2518 1.400 . S
C2519 C2520 1.398 . S
C2519 C2525 1.491 1_655 S
C2520 H2511 0.950 1_655 S
C2520 C2519 1.398 . S
C2520 C2521 1.391 . S
C2521 H2509 0.950 . S
C2521 C2517 1.393 . S
C2521 C2520 1.391 . S
C2522 H2512 0.950 . S
C2522 C2523 1.386 . S
C2522 C2524 1.391 . S
C2523 C2522 1.386 . S
C2523 C2527 1.393 . S
C2524 H2513 0.950 . S
C2524 C2522 1.391 . S
C2524 C2525 1.400 . S
C2525 C2519 1.491 1_455 S
C2525 C2524 1.400 . S
C2525 C2526 1.398 . S
C2526 H2514 0.950 1_455 S
C2526 C2525 1.398 . S
C2526 C2527 1.391 . S
C2527 H2515 0.950 . S
C2527 C2523 1.393 . S
C2527 C2526 1.391 . S
H2528 C2536 0.950 . S
H2529 C2541 0.950 . S
H2530 C2538 0.950 . S
H2531 C2540 0.952 . S
H2532 C2542 0.950 . S
H2533 C2544 0.950 . S
H2534 C2546 0.952 . S
H2535 C2547 0.950 . S
C2536 H2528 0.950 . S
C2536 C2537 1.386 . S
C2536 C2538 1.391 . S
C2537 C2536 1.386 . S
C2537 C2541 1.393 . S
C2538 H2530 0.950 . S
C2538 C2536 1.391 . S
C2538 C2539 1.400 . S
C2539 C2538 1.400 . S
C2539 C2540 1.398 1_556 S
C2539 C2545 1.491 1_556 S
C2540 H2531 0.952 . S
C2540 C2539 1.398 1_554 S
C2540 C2541 1.389 1_554 S
C2541 H2529 0.950 . S
C2541 C2537 1.393 . S
C2541 C2540 1.389 1_556 S
C2542 H2532 0.950 . S
C2542 C2543 1.386 . S
C2542 C2544 1.391 . S
C2543 C2542 1.386 . S
C2543 C2547 1.393 . S
C2544 H2533 0.950 . S
C2544 C2542 1.391 . S
C2544 C2545 1.400 . S
C2545 C2539 1.491 1_554 S
C2545 C2544 1.400 . S
C2545 C2546 1.398 1_554 S
C2546 H2534 0.952 . S
C2546 C2545 1.398 1_556 S
C2546 C2547 1.390 1_556 S
C2547 H2535 0.950 . S
C2547 C2543 1.393 . S
C2547 C2546 1.390 1_554 S
H2548 C2556 0.950 . S
H2549 C2561 0.950 . S
H2550 C2558 0.950 . S
H2551 C2560 0.950 . S
H2552 C2562 0.950 . S
H2553 C2564 0.950 . S
H2554 C2566 0.950 . S
H2555 C2567 0.950 . S
C2556 H2548 0.950 . S
C2556 C2557 1.386 . S
C2556 C2558 1.391 . S
C2557 C2556 1.386 . S
C2557 C2561 1.393 . S
C2558 H2550 0.950 . S
C2558 C2556 1.391 . S
C2558 C2559 1.400 . S
C2559 C2558 1.400 . S
C2559 C2560 1.398 . S
C2559 C2565 1.491 1_545 S
C2560 H2551 0.950 . S
C2560 C2559 1.398 . S
C2560 C2561 1.391 . S
C2561 H2549 0.950 . S
C2561 C2557 1.393 . S
C2561 C2560 1.391 . S
C2562 H2552 0.950 . S
C2562 C2563 1.386 . S
C2562 C2564 1.391 . S
C2563 C2562 1.386 . S
C2563 C2567 1.393 . S
C2564 H2553 0.950 . S
C2564 C2562 1.391 . S
C2564 C2565 1.400 . S
C2565 C2559 1.491 1_565 S
C2565 C2564 1.400 . S
C2565 C2566 1.398 . S
C2566 H2554 0.950 . S
C2566 C2565 1.398 . S
C2566 C2567 1.391 . S
C2567 H2555 0.950 . S
C2567 C2563 1.393 . S
C2567 C2566 1.391 . S
H2568 C2576 0.950 . S
H2569 C2581 0.950 . S
H2570 C2578 0.950 . S
H2571 C2580 0.950 . S
H2572 C2582 0.950 . S
H2573 C2584 0.950 . S
H2574 C2586 0.950 . S
H2575 C2587 0.950 . S
C2576 H2568 0.950 . S
C2576 C2577 1.386 . S
C2576 C2578 1.391 . S
C2577 C2576 1.386 . S
C2577 C2581 1.393 . S
C2578 H2570 0.950 . S
C2578 C2576 1.391 . S
C2578 C2579 1.400 . S
C2579 C2578 1.400 . S
C2579 C2580 1.398 . S
C2579 C2585 1.491 . S
C2580 H2571 0.950 . S
C2580 C2579 1.398 . S
C2580 C2581 1.391 . S
C2581 H2569 0.950 . S
C2581 C2577 1.393 . S
C2581 C2580 1.391 . S
C2582 H2572 0.950 . S
C2582 C2583 1.386 . S
C2582 C2584 1.391 . S
C2583 C2582 1.386 . S
C2583 C2587 1.393 . S
C2584 H2573 0.950 . S
C2584 C2582 1.391 . S
C2584 C2585 1.400 . S
C2585 C2579 1.491 . S
C2585 C2584 1.400 . S
C2585 C2586 1.398 . S
C2586 H2574 0.950 . S
C2586 C2585 1.398 . S
C2586 C2587 1.391 . S
C2587 H2575 0.950 . S
C2587 C2583 1.393 . S
C2587 C2586 1.391 . S
H2588 C2596 0.950 . S
H2589 C2601 0.950 . S
H2590 C2598 0.950 . S
H2591 C2600 0.950 1_565 S
H2592 C2602 0.950 . S
H2593 C2604 0.950 . S
H2594 C2606 0.950 1_545 S
H2595 C2607 0.950 . S
C2596 H2588 0.950 . S
C2596 C2597 1.386 . S
C2596 C2598 1.391 . S
C2597 C2596 1.386 . S
C2597 C2601 1.393 . S
C2598 H2590 0.950 . S
C2598 C2596 1.391 . S
C2598 C2599 1.400 . S
C2599 C2598 1.400 . S
C2599 C2600 1.398 . S
C2599 C2605 1.491 1_545 S
C2600 H2591 0.950 1_545 S
C2600 C2599 1.398 . S
C2600 C2601 1.391 . S
C2601 H2589 0.950 . S
C2601 C2597 1.393 . S
C2601 C2600 1.391 . S
C2602 H2592 0.950 . S
C2602 C2603 1.386 . S
C2602 C2604 1.391 . S
C2603 C2602 1.386 . S
C2603 C2607 1.393 . S
C2604 H2593 0.950 . S
C2604 C2602 1.391 . S
C2604 C2605 1.400 . S
C2605 C2599 1.491 1_565 S
C2605 C2604 1.400 . S
C2605 C2606 1.398 . S
C2606 H2594 0.950 1_565 S
C2606 C2605 1.398 . S
C2606 C2607 1.391 . S
C2607 H2595 0.950 . S
C2607 C2603 1.393 . S
C2607 C2606 1.391 . S
H2608 C2616 0.950 . S
H2609 C2621 0.950 . S
H2610 C2618 0.950 1_556 S
H2611 C2620 0.950 . S
H2612 C2622 0.950 . S
H2613 C2624 0.950 1_554 S
H2614 C2626 0.950 . S
H2615 C2627 0.950 . S
C2616 H2608 0.950 . S
C2616 C2617 1.386 . S
C2616 C2618 1.391 . S
C2617 C2616 1.386 . S
C2617 C2621 1.393 . S
C2618 H2610 0.950 1_554 S
C2618 C2616 1.391 . S
C2618 C2619 1.400 . S
C2619 C2618 1.400 . S
C2619 C2620 1.398 . S
C2619 C2625 1.491 1_554 S
C2620 H2611 0.950 . S
C2620 C2619 1.398 . S
C2620 C2621 1.391 . S
C2621 H2609 0.950 . S
C2621 C2617 1.393 . S
C2621 C2620 1.391 . S
C2622 H2612 0.950 . S
C2622 C2623 1.386 . S
C2622 C2624 1.391 . S
C2623 C2622 1.386 . S
C2623 C2627 1.393 . S
C2624 H2613 0.950 1_556 S
C2624 C2622 1.391 . S
C2624 C2625 1.400 . S
C2625 C2619 1.491 1_556 S
C2625 C2624 1.400 . S
C2625 C2626 1.398 . S
C2626 H2614 0.950 . S
C2626 C2625 1.398 . S
C2626 C2627 1.391 . S
C2627 H2615 0.950 . S
C2627 C2623 1.393 . S
C2627 C2626 1.391 . S
H2628 C2636 0.950 . S
H2629 C2641 0.950 . S
H2630 C2638 0.950 . S
H2631 C2640 0.950 . S
H2632 C2642 0.950 . S
H2633 C2644 0.950 . S
H2634 C2646 0.950 . S
H2635 C2647 0.950 . S
C2636 H2628 0.950 . S
C2636 C2637 1.386 . S
C2636 C2638 1.391 . S
C2637 C2636 1.386 . S
C2637 C2641 1.393 . S
C2638 H2630 0.950 . S
C2638 C2636 1.391 . S
C2638 C2639 1.400 . S
C2639 C2638 1.400 . S
C2639 C2640 1.398 . S
C2639 C2645 1.491 1_565 S
C2640 H2631 0.950 . S
C2640 C2639 1.398 . S
C2640 C2641 1.391 . S
C2641 H2629 0.950 . S
C2641 C2637 1.393 . S
C2641 C2640 1.391 . S
C2642 H2632 0.950 . S
C2642 C2643 1.386 . S
C2642 C2644 1.391 . S
C2643 C2642 1.386 . S
C2643 C2647 1.393 . S
C2644 H2633 0.950 . S
C2644 C2642 1.391 . S
C2644 C2645 1.400 . S
C2645 C2639 1.491 1_545 S
C2645 C2644 1.400 . S
C2645 C2646 1.398 . S
C2646 H2634 0.950 . S
C2646 C2645 1.398 . S
C2646 C2647 1.391 . S
C2647 H2635 0.950 . S
C2647 C2643 1.393 . S
C2647 C2646 1.391 . S
H2648 C2656 0.950 . S
H2649 C2661 0.950 . S
H2650 C2658 0.950 . S
H2651 C2660 0.950 . S
H2652 C2662 0.950 . S
H2653 C2664 0.950 . S
H2654 C2666 0.950 . S
H2655 C2667 0.950 . S
C2656 H2648 0.950 . S
C2656 C2657 1.386 . S
C2656 C2658 1.391 . S
C2657 C2656 1.386 . S
C2657 C2661 1.393 . S
C2658 H2650 0.950 . S
C2658 C2656 1.391 . S
C2658 C2659 1.400 . S
C2659 C2658 1.400 . S
C2659 C2660 1.398 . S
C2659 C2665 1.491 . S
C2660 H2651 0.950 . S
C2660 C2659 1.398 . S
C2660 C2661 1.391 . S
C2661 H2649 0.950 . S
C2661 C2657 1.393 . S
C2661 C2660 1.391 . S
C2662 H2652 0.950 . S
C2662 C2663 1.386 . S
C2662 C2664 1.391 . S
C2663 C2662 1.386 . S
C2663 C2667 1.393 . S
C2664 H2653 0.950 . S
C2664 C2662 1.391 . S
C2664 C2665 1.400 . S
C2665 C2659 1.491 . S
C2665 C2664 1.400 . S
C2665 C2666 1.398 . S
C2666 H2654 0.950 . S
C2666 C2665 1.398 . S
C2666 C2667 1.391 . S
C2667 H2655 0.950 . S
C2667 C2663 1.393 . S
C2667 C2666 1.391 . S
H2668 C2676 0.950 . S
H2669 C2681 0.950 . S
H2670 C2678 0.950 . S
H2671 C2680 0.950 1_565 S
H2672 C2682 0.950 . S
H2673 C2684 0.950 . S
H2674 C2686 0.950 1_545 S
H2675 C2687 0.950 . S
C2676 H2668 0.950 . S
C2676 C2677 1.386 . S
C2676 C2678 1.391 . S
C2677 C2676 1.386 . S
C2677 C2681 1.393 . S
C2678 H2670 0.950 . S
C2678 C2676 1.391 . S
C2678 C2679 1.400 . S
C2679 C2678 1.400 . S
C2679 C2680 1.398 . S
C2679 C2685 1.491 1_545 S
C2680 H2671 0.950 1_545 S
C2680 C2679 1.398 . S
C2680 C2681 1.391 . S
C2681 H2669 0.950 . S
C2681 C2677 1.393 . S
C2681 C2680 1.391 . S
C2682 H2672 0.950 . S
C2682 C2683 1.386 . S
C2682 C2684 1.391 . S
C2683 C2682 1.386 . S
C2683 C2687 1.393 . S
C2684 H2673 0.950 . S
C2684 C2682 1.391 . S
C2684 C2685 1.400 . S
C2685 C2679 1.491 1_565 S
C2685 C2684 1.400 . S
C2685 C2686 1.398 . S
C2686 H2674 0.950 1_565 S
C2686 C2685 1.398 . S
C2686 C2687 1.391 . S
C2687 H2675 0.950 . S
C2687 C2683 1.393 . S
C2687 C2686 1.391 . S
H2688 C2696 0.950 . S
H2689 C2701 0.950 . S
H2690 C2698 0.950 . S
H2691 C2700 0.950 . S
H2692 C2702 0.950 . S
H2693 C2704 0.950 . S
H2694 C2706 0.950 . S
H2695 C2707 0.950 . S
C2696 H2688 0.950 . S
C2696 C2697 1.386 . S
C2696 C2698 1.391 . S
C2697 C2696 1.386 . S
C2697 C2701 1.393 . S
C2698 H2690 0.950 . S
C2698 C2696 1.391 . S
C2698 C2699 1.400 . S
C2699 C2698 1.400 . S
C2699 C2700 1.398 . S
C2699 C2705 1.491 . S
C2700 H2691 0.950 . S
C2700 C2699 1.398 . S
C2700 C2701 1.391 . S
C2701 H2689 0.950 . S
C2701 C2697 1.393 . S
C2701 C2700 1.391 . S
C2702 H2692 0.950 . S
C2702 C2703 1.386 . S
C2702 C2704 1.391 . S
C2703 C2702 1.386 . S
C2703 C2707 1.393 . S
C2704 H2693 0.950 . S
C2704 C2702 1.391 . S
C2704 C2705 1.400 . S
C2705 C2699 1.491 . S
C2705 C2704 1.400 . S
C2705 C2706 1.398 . S
C2706 H2694 0.950 . S
C2706 C2705 1.398 . S
C2706 C2707 1.391 . S
C2707 H2695 0.950 . S
C2707 C2703 1.393 . S
C2707 C2706 1.391 . S
H2708 C2716 0.950 . S
H2709 C2721 0.950 . S
H2710 C2718 0.950 . S
H2711 C2720 0.950 . S
H2712 C2722 0.950 . S
H2713 C2724 0.950 . S
H2714 C2726 0.950 . S
H2715 C2727 0.950 . S
C2716 H2708 0.950 . S
C2716 C2717 1.386 . S
C2716 C2718 1.391 . S
C2717 C2716 1.386 . S
C2717 C2721 1.393 . S
C2718 H2710 0.950 . S
C2718 C2716 1.391 . S
C2718 C2719 1.400 . S
C2719 C2718 1.400 . S
C2719 C2720 1.398 . S
C2719 C2725 1.491 . S
C2720 H2711 0.950 . S
C2720 C2719 1.398 . S
C2720 C2721 1.391 . S
C2721 H2709 0.950 . S
C2721 C2717 1.393 . S
C2721 C2720 1.391 . S
C2722 H2712 0.950 . S
C2722 C2723 1.386 . S
C2722 C2724 1.391 . S
C2723 C2722 1.386 . S
C2723 C2727 1.393 . S
C2724 H2713 0.950 . S
C2724 C2722 1.391 . S
C2724 C2725 1.400 . S
C2725 C2719 1.491 . S
C2725 C2724 1.400 . S
C2725 C2726 1.398 . S
C2726 H2714 0.950 . S
C2726 C2725 1.398 . S
C2726 C2727 1.391 . S
C2727 H2715 0.950 . S
C2727 C2723 1.393 . S
C2727 C2726 1.391 . S
H2728 C2736 0.950 . S
H2729 C2741 0.950 . S
H2730 C2738 0.950 . S
H2731 C2740 0.950 . S
H2732 C2742 0.950 . S
H2733 C2744 0.950 . S
H2734 C2746 0.950 . S
H2735 C2747 0.950 . S
C2736 H2728 0.950 . S
C2736 C2737 1.386 . S
C2736 C2738 1.391 1_554 S
C2737 C2736 1.386 . S
C2737 C2741 1.393 . S
C2738 H2730 0.950 . S
C2738 C2736 1.391 1_556 S
C2738 C2739 1.400 1_556 S
C2739 C2738 1.400 1_554 S
C2739 C2740 1.398 . S
C2739 C2745 1.491 1_554 S
C2740 H2731 0.950 . S
C2740 C2739 1.398 . S
C2740 C2741 1.391 . S
C2741 H2729 0.950 . S
C2741 C2737 1.393 . S
C2741 C2740 1.391 . S
C2742 H2732 0.950 . S
C2742 C2743 1.386 . S
C2742 C2744 1.391 1_556 S
C2743 C2742 1.386 . S
C2743 C2747 1.393 . S
C2744 H2733 0.950 . S
C2744 C2742 1.391 1_554 S
C2744 C2745 1.400 1_554 S
C2745 C2739 1.491 1_556 S
C2745 C2744 1.400 1_556 S
C2745 C2746 1.398 . S
C2746 H2734 0.950 . S
C2746 C2745 1.398 . S
C2746 C2747 1.391 . S
C2747 H2735 0.950 . S
C2747 C2743 1.393 . S
C2747 C2746 1.391 . S
H2748 C2756 0.950 . S
H2749 C2761 0.950 . S
H2750 C2758 0.950 . S
H2751 C2760 0.950 . S
H2752 C2762 0.950 . S
H2753 C2764 0.950 . S
H2754 C2766 0.950 . S
H2755 C2767 0.950 . S
C2756 H2748 0.950 . S
C2756 C2757 1.386 . S
C2756 C2758 1.391 . S
C2757 C2756 1.386 . S
C2757 C2761 1.393 . S
C2758 H2750 0.950 . S
C2758 C2756 1.391 . S
C2758 C2759 1.400 . S
C2759 C2758 1.400 . S
C2759 C2760 1.398 . S
C2759 C2765 1.491 . S
C2760 H2751 0.950 . S
C2760 C2759 1.398 . S
C2760 C2761 1.391 . S
C2761 H2749 0.950 . S
C2761 C2757 1.393 . S
C2761 C2760 1.391 . S
C2762 H2752 0.950 . S
C2762 C2763 1.386 . S
C2762 C2764 1.391 . S
C2763 C2762 1.386 . S
C2763 C2767 1.393 . S
C2764 H2753 0.950 . S
C2764 C2762 1.391 . S
C2764 C2765 1.400 . S
C2765 C2759 1.491 . S
C2765 C2764 1.400 . S
C2765 C2766 1.398 . S
C2766 H2754 0.950 . S
C2766 C2765 1.398 . S
C2766 C2767 1.391 . S
C2767 H2755 0.950 . S
C2767 C2763 1.393 . S
C2767 C2766 1.391 . S
H2768 C2776 0.950 . S
H2769 C2781 0.950 . S
H2770 C2778 0.950 . S
H2771 C2780 0.950 . S
H2772 C2782 0.950 . S
H2773 C2784 0.950 . S
H2774 C2786 0.950 . S
H2775 C2787 0.950 . S
C2776 H2768 0.950 . S
C2776 C2777 1.386 . S
C2776 C2778 1.391 . S
C2777 C2776 1.386 . S
C2777 C2781 1.393 . S
C2778 H2770 0.950 . S
C2778 C2776 1.391 . S
C2778 C2779 1.400 . S
C2779 C2778 1.400 . S
C2779 C2780 1.398 . S
C2779 C2785 1.491 . S
C2780 H2771 0.950 . S
C2780 C2779 1.398 . S
C2780 C2781 1.391 . S
C2781 H2769 0.950 . S
C2781 C2777 1.393 . S
C2781 C2780 1.391 . S
C2782 H2772 0.950 . S
C2782 C2783 1.386 . S
C2782 C2784 1.391 . S
C2783 C2782 1.386 . S
C2783 C2787 1.393 . S
C2784 H2773 0.950 . S
C2784 C2782 1.391 . S
C2784 C2785 1.400 . S
C2785 C2779 1.491 . S
C2785 C2784 1.400 . S
C2785 C2786 1.398 . S
C2786 H2774 0.950 . S
C2786 C2785 1.398 . S
C2786 C2787 1.391 . S
C2787 H2775 0.950 . S
C2787 C2783 1.393 . S
C2787 C2786 1.391 . S
H2788 C2796 0.950 . S
H2789 C2801 0.950 . S
H2790 C2798 0.950 . S
H2791 C2800 0.950 . S
H2792 C2802 0.950 . S
H2793 C2804 0.950 . S
H2794 C2806 0.950 . S
H2795 C2807 0.950 . S
C2796 H2788 0.950 . S
C2796 C2797 1.386 . S
C2796 C2798 1.391 . S
C2797 C2796 1.386 . S
C2797 C2801 1.393 . S
C2798 H2790 0.950 . S
C2798 C2796 1.391 . S
C2798 C2799 1.400 . S
C2799 C2798 1.400 . S
C2799 C2800 1.398 . S
C2799 C2805 1.491 . S
C2800 H2791 0.950 . S
C2800 C2799 1.398 . S
C2800 C2801 1.391 . S
C2801 H2789 0.950 . S
C2801 C2797 1.393 . S
C2801 C2800 1.391 . S
C2802 H2792 0.950 . S
C2802 C2803 1.386 . S
C2802 C2804 1.391 . S
C2803 C2802 1.386 . S
C2803 C2807 1.393 . S
C2804 H2793 0.950 . S
C2804 C2802 1.391 . S
C2804 C2805 1.400 . S
C2805 C2799 1.491 . S
C2805 C2804 1.400 . S
C2805 C2806 1.398 . S
C2806 H2794 0.950 . S
C2806 C2805 1.398 . S
C2806 C2807 1.391 . S
C2807 H2795 0.950 . S
C2807 C2803 1.393 . S
C2807 C2806 1.391 . S
H2808 C2816 0.950 . S
H2809 C2821 0.950 . S
H2810 C2818 0.950 . S
H2811 C2820 0.950 . S
H2812 C2822 0.950 . S
H2813 C2824 0.950 . S
H2814 C2826 0.950 . S
H2815 C2827 0.950 . S
C2816 H2808 0.950 . S
C2816 C2817 1.386 . S
C2816 C2818 1.391 . S
C2817 C2816 1.386 . S
C2817 C2821 1.393 . S
C2818 H2810 0.950 . S
C2818 C2816 1.391 . S
C2818 C2819 1.400 . S
C2819 C2818 1.400 . S
C2819 C2820 1.398 1_556 S
C2819 C2825 1.491 1_556 S
C2820 H2811 0.950 . S
C2820 C2819 1.398 1_554 S
C2820 C2821 1.391 1_554 S
C2821 H2809 0.950 . S
C2821 C2817 1.393 . S
C2821 C2820 1.391 1_556 S
C2822 H2812 0.950 . S
C2822 C2823 1.386 . S
C2822 C2824 1.391 . S
C2823 C2822 1.386 . S
C2823 C2827 1.393 . S
C2824 H2813 0.950 . S
C2824 C2822 1.391 . S
C2824 C2825 1.400 . S
C2825 C2819 1.491 1_554 S
C2825 C2824 1.400 . S
C2825 C2826 1.398 1_554 S
C2826 H2814 0.950 . S
C2826 C2825 1.398 1_556 S
C2826 C2827 1.391 1_556 S
C2827 H2815 0.950 . S
C2827 C2823 1.393 . S
C2827 C2826 1.391 1_554 S
H2828 C2836 0.950 . S
H2829 C2841 0.950 . S
H2830 C2838 0.950 . S
H2831 C2840 0.950 . S
H2832 C2842 0.950 . S
H2833 C2844 0.950 . S
H2834 C2846 0.950 . S
H2835 C2847 0.950 . S
C2836 H2828 0.950 . S
C2836 C2837 1.386 . S
C2836 C2838 1.391 . S
C2837 C2836 1.386 . S
C2837 C2841 1.393 . S
C2838 H2830 0.950 . S
C2838 C2836 1.391 . S
C2838 C2839 1.400 . S
C2839 C2838 1.400 . S
C2839 C2840 1.398 . S
C2839 C2845 1.491 . S
C2840 H2831 0.950 . S
C2840 C2839 1.398 . S
C2840 C2841 1.391 . S
C2841 H2829 0.950 . S
C2841 C2837 1.393 . S
C2841 C2840 1.391 . S
C2842 H2832 0.950 . S
C2842 C2843 1.386 . S
C2842 C2844 1.391 . S
C2843 C2842 1.386 . S
C2843 C2847 1.393 . S
C2844 H2833 0.950 . S
C2844 C2842 1.391 . S
C2844 C2845 1.400 . S
C2845 C2839 1.491 . S
C2845 C2844 1.400 . S
C2845 C2846 1.398 . S
C2846 H2834 0.950 . S
C2846 C2845 1.398 . S
C2846 C2847 1.391 . S
C2847 H2835 0.950 . S
C2847 C2843 1.393 . S
C2847 C2846 1.391 . S
H2848 C2856 0.950 . S
H2849 C2861 0.950 . S
H2850 C2858 0.950 . S
H2851 C2860 0.950 . S
H2852 C2862 0.950 . S
H2853 C2864 0.950 . S
H2854 C2866 0.950 . S
H2855 C2867 0.950 . S
C2856 H2848 0.950 . S
C2856 C2857 1.386 . S
C2856 C2858 1.391 . S
C2857 C2856 1.386 . S
C2857 C2861 1.393 . S
C2858 H2850 0.950 . S
C2858 C2856 1.391 . S
C2858 C2859 1.400 . S
C2859 C2858 1.400 . S
C2859 C2860 1.398 . S
C2859 C2865 1.491 . S
C2860 H2851 0.950 . S
C2860 C2859 1.398 . S
C2860 C2861 1.391 . S
C2861 H2849 0.950 . S
C2861 C2857 1.393 . S
C2861 C2860 1.391 . S
C2862 H2852 0.950 . S
C2862 C2863 1.386 . S
C2862 C2864 1.391 . S
C2863 C2862 1.386 . S
C2863 C2867 1.393 . S
C2864 H2853 0.950 . S
C2864 C2862 1.391 . S
C2864 C2865 1.400 . S
C2865 C2859 1.491 . S
C2865 C2864 1.400 . S
C2865 C2866 1.398 . S
C2866 H2854 0.950 . S
C2866 C2865 1.398 . S
C2866 C2867 1.391 . S
C2867 H2855 0.950 . S
C2867 C2863 1.393 . S
C2867 C2866 1.391 . S
H2868 C2876 0.950 . S
H2869 C2881 0.950 . S
H2870 C2878 0.950 . S
H2871 C2880 0.950 . S
H2872 C2882 0.950 . S
H2873 C2884 0.950 . S
H2874 C2886 0.950 . S
H2875 C2887 0.950 . S
C2876 H2868 0.950 . S
C2876 C2877 1.386 . S
C2876 C2878 1.391 . S
C2877 C2876 1.386 . S
C2877 C2881 1.393 . S
C2878 H2870 0.950 . S
C2878 C2876 1.391 . S
C2878 C2879 1.400 . S
C2879 C2878 1.400 . S
C2879 C2880 1.398 . S
C2879 C2885 1.491 . S
C2880 H2871 0.950 . S
C2880 C2879 1.398 . S
C2880 C2881 1.391 . S
C2881 H2869 0.950 . S
C2881 C2877 1.393 . S
C2881 C2880 1.391 . S
C2882 H2872 0.950 . S
C2882 C2883 1.386 . S
C2882 C2884 1.391 . S
C2883 C2882 1.386 . S
C2883 C2887 1.393 . S
C2884 H2873 0.950 . S
C2884 C2882 1.391 . S
C2884 C2885 1.400 . S
C2885 C2879 1.491 . S
C2885 C2884 1.400 . S
C2885 C2886 1.398 . S
C2886 H2874 0.950 . S
C2886 C2885 1.398 . S
C2886 C2887 1.391 . S
C2887 H2875 0.950 . S
C2887 C2883 1.393 . S
C2887 C2886 1.391 . S
H2888 C2896 0.950 . S
H2889 C2901 0.950 . S
H2890 C2898 0.950 . S
H2891 C2900 0.950 . S
H2892 C2902 0.950 . S
H2893 C2904 0.950 . S
H2894 C2906 0.950 . S
H2895 C2907 0.950 . S
C2896 H2888 0.950 . S
C2896 C2897 1.386 . S
C2896 C2898 1.391 . S
C2897 C2896 1.386 . S
C2897 C2901 1.393 . S
C2898 H2890 0.950 . S
C2898 C2896 1.391 . S
C2898 C2899 1.400 . S
C2899 C2898 1.400 . S
C2899 C2900 1.398 . S
C2899 C2905 1.491 . S
C2900 H2891 0.950 . S
C2900 C2899 1.398 . S
C2900 C2901 1.391 . S
C2901 H2889 0.950 . S
C2901 C2897 1.393 . S
C2901 C2900 1.391 . S
C2902 H2892 0.950 . S
C2902 C2903 1.386 . S
C2902 C2904 1.391 . S
C2903 C2902 1.386 . S
C2903 C2907 1.393 . S
C2904 H2893 0.950 . S
C2904 C2902 1.391 . S
C2904 C2905 1.400 . S
C2905 C2899 1.491 . S
C2905 C2904 1.400 . S
C2905 C2906 1.398 . S
C2906 H2894 0.950 . S
C2906 C2905 1.398 . S
C2906 C2907 1.391 . S
C2907 H2895 0.950 . S
C2907 C2903 1.393 . S
C2907 C2906 1.391 . S
H2908 C2916 0.950 . S
H2909 C2921 0.950 . S
H2910 C2918 0.950 . S
H2911 C2920 0.950 . S
H2912 C2922 0.950 . S
H2913 C2924 0.950 . S
H2914 C2926 0.950 . S
H2915 C2927 0.950 . S
C2916 H2908 0.950 . S
C2916 C2917 1.386 . S
C2916 C2918 1.391 . S
C2917 C2916 1.386 . S
C2917 C2921 1.393 . S
C2918 H2910 0.950 . S
C2918 C2916 1.391 . S
C2918 C2919 1.400 . S
C2919 C2918 1.400 . S
C2919 C2920 1.398 . S
C2919 C2925 1.491 . S
C2920 H2911 0.950 . S
C2920 C2919 1.398 . S
C2920 C2921 1.391 . S
C2921 H2909 0.950 . S
C2921 C2917 1.393 . S
C2921 C2920 1.391 . S
C2922 H2912 0.950 . S
C2922 C2923 1.386 . S
C2922 C2924 1.391 . S
C2923 C2922 1.386 . S
C2923 C2927 1.393 . S
C2924 H2913 0.950 . S
C2924 C2922 1.391 . S
C2924 C2925 1.400 . S
C2925 C2919 1.491 . S
C2925 C2924 1.400 . S
C2925 C2926 1.398 . S
C2926 H2914 0.950 . S
C2926 C2925 1.398 . S
C2926 C2927 1.391 . S
C2927 H2915 0.950 . S
C2927 C2923 1.393 . S
C2927 C2926 1.391 . S
H2928 C2936 0.950 . S
H2929 C2941 0.950 . S
H2930 C2938 0.950 . S
H2931 C2940 0.950 . S
H2932 C2942 0.950 . S
H2933 C2944 0.950 . S
H2934 C2946 0.950 . S
H2935 C2947 0.950 . S
C2936 H2928 0.950 . S
C2936 C2937 1.386 . S
C2936 C2938 1.391 . S
C2937 C2936 1.386 . S
C2937 C2941 1.393 . S
C2938 H2930 0.950 . S
C2938 C2936 1.391 . S
C2938 C2939 1.400 . S
C2939 C2938 1.400 . S
C2939 C2940 1.398 . S
C2939 C2945 1.491 . S
C2940 H2931 0.950 . S
C2940 C2939 1.398 . S
C2940 C2941 1.391 . S
C2941 H2929 0.950 . S
C2941 C2937 1.393 . S
C2941 C2940 1.391 . S
C2942 H2932 0.950 . S
C2942 C2943 1.386 . S
C2942 C2944 1.391 . S
C2943 C2942 1.386 . S
C2943 C2947 1.393 . S
C2944 H2933 0.950 . S
C2944 C2942 1.391 . S
C2944 C2945 1.400 . S
C2945 C2939 1.491 . S
C2945 C2944 1.400 . S
C2945 C2946 1.398 . S
C2946 H2934 0.950 . S
C2946 C2945 1.398 . S
C2946 C2947 1.391 . S
C2947 H2935 0.950 . S
C2947 C2943 1.393 . S
C2947 C2946 1.391 . S
H2948 C2956 0.950 . S
H2949 C2961 0.950 . S
H2950 C2958 0.950 . S
H2951 C2960 0.950 . S
H2952 C2962 0.950 . S
H2953 C2964 0.950 . S
H2954 C2966 0.950 . S
H2955 C2967 0.950 . S
C2956 H2948 0.950 . S
C2956 C2957 1.386 . S
C2956 C2958 1.391 . S
C2957 C2956 1.386 . S
C2957 C2961 1.393 . S
C2958 H2950 0.950 . S
C2958 C2956 1.391 . S
C2958 C2959 1.400 . S
C2959 C2958 1.400 . S
C2959 C2960 1.398 . S
C2959 C2965 1.491 . S
C2960 H2951 0.950 . S
C2960 C2959 1.398 . S
C2960 C2961 1.391 . S
C2961 H2949 0.950 . S
C2961 C2957 1.393 . S
C2961 C2960 1.391 . S
C2962 H2952 0.950 . S
C2962 C2963 1.386 . S
C2962 C2964 1.391 . S
C2963 C2962 1.386 . S
C2963 C2967 1.393 . S
C2964 H2953 0.950 . S
C2964 C2962 1.391 . S
C2964 C2965 1.400 . S
C2965 C2959 1.491 . S
C2965 C2964 1.400 . S
C2965 C2966 1.398 . S
C2966 H2954 0.950 . S
C2966 C2965 1.398 . S
C2966 C2967 1.391 . S
C2967 H2955 0.950 . S
C2967 C2963 1.393 . S
C2967 C2966 1.391 . S
H2968 C2976 0.950 . S
H2969 C2981 0.950 . S
H2970 C2978 0.950 . S
H2971 C2980 0.950 . S
H2972 C2982 0.950 . S
H2973 C2984 0.950 . S
H2974 C2986 0.950 . S
H2975 C2987 0.950 . S
C2976 H2968 0.950 . S
C2976 C2977 1.386 . S
C2976 C2978 1.391 . S
C2977 C2976 1.386 . S
C2977 C2981 1.393 . S
C2978 H2970 0.950 . S
C2978 C2976 1.391 . S
C2978 C2979 1.400 . S
C2979 C2978 1.400 . S
C2979 C2980 1.398 . S
C2979 C2985 1.491 . S
C2980 H2971 0.950 . S
C2980 C2979 1.398 . S
C2980 C2981 1.391 . S
C2981 H2969 0.950 . S
C2981 C2977 1.393 . S
C2981 C2980 1.391 . S
C2982 H2972 0.950 . S
C2982 C2983 1.386 . S
C2982 C2984 1.391 . S
C2983 C2982 1.386 . S
C2983 C2987 1.393 . S
C2984 H2973 0.950 . S
C2984 C2982 1.391 . S
C2984 C2985 1.400 . S
C2985 C2979 1.491 . S
C2985 C2984 1.400 . S
C2985 C2986 1.398 . S
C2986 H2974 0.950 . S
C2986 C2985 1.398 . S
C2986 C2987 1.391 . S
C2987 H2975 0.950 . S
C2987 C2983 1.393 . S
C2987 C2986 1.391 . S
H2988 C2996 0.950 . S
H2989 C3001 0.950 . S
H2990 C2998 0.950 . S
H2991 C3000 0.950 . S
H2992 C3002 0.950 . S
H2993 C3004 0.950 . S
H2994 C3006 0.950 . S
H2995 C3007 0.950 . S
C2996 H2988 0.950 . S
C2996 C2997 1.386 . S
C2996 C2998 1.391 . S
C2997 C2996 1.386 . S
C2997 C3001 1.393 . S
C2998 H2990 0.950 . S
C2998 C2996 1.391 . S
C2998 C2999 1.400 . S
C2999 C2998 1.400 . S
C2999 C3000 1.398 . S
C2999 C3005 1.491 . S
C3000 H2991 0.950 . S
C3000 C2999 1.398 . S
C3000 C3001 1.391 . S
C3001 H2989 0.950 . S
C3001 C2997 1.393 . S
C3001 C3000 1.391 . S
C3002 H2992 0.950 . S
C3002 C3003 1.386 . S
C3002 C3004 1.391 . S
C3003 C3002 1.386 . S
C3003 C3007 1.393 . S
C3004 H2993 0.950 . S
C3004 C3002 1.391 . S
C3004 C3005 1.400 . S
C3005 C2999 1.491 . S
C3005 C3004 1.400 . S
C3005 C3006 1.398 . S
C3006 H2994 0.950 . S
C3006 C3005 1.398 . S
C3006 C3007 1.391 . S
C3007 H2995 0.950 . S
C3007 C3003 1.393 . S
C3007 C3006 1.391 . S
H3008 C3016 0.950 . S
H3009 C3021 0.950 . S
H3010 C3018 0.950 . S
H3011 C3020 0.950 . S
H3012 C3022 0.950 . S
H3013 C3024 0.950 . S
H3014 C3026 0.950 . S
H3015 C3027 0.950 . S
C3016 H3008 0.950 . S
C3016 C3017 1.386 . S
C3016 C3018 1.391 . S
C3017 C3016 1.386 . S
C3017 C3021 1.393 . S
C3018 H3010 0.950 . S
C3018 C3016 1.391 . S
C3018 C3019 1.400 . S
C3019 C3018 1.400 . S
C3019 C3020 1.398 . S
C3019 C3025 1.491 . S
C3020 H3011 0.950 . S
C3020 C3019 1.398 . S
C3020 C3021 1.391 . S
C3021 H3009 0.950 . S
C3021 C3017 1.393 . S
C3021 C3020 1.391 . S
C3022 H3012 0.950 . S
C3022 C3023 1.386 . S
C3022 C3024 1.391 . S
C3023 C3022 1.386 . S
C3023 C3027 1.393 . S
C3024 H3013 0.950 . S
C3024 C3022 1.391 . S
C3024 C3025 1.400 . S
C3025 C3019 1.491 . S
C3025 C3024 1.400 . S
C3025 C3026 1.398 . S
C3026 H3014 0.950 . S
C3026 C3025 1.398 . S
C3026 C3027 1.391 . S
C3027 H3015 0.950 . S
C3027 C3023 1.393 . S
C3027 C3026 1.391 . S
H3028 C3036 0.950 . S
H3029 C3041 0.950 . S
H3030 C3038 0.950 . S
H3031 C3040 0.950 . S
H3032 C3042 0.950 . S
H3033 C3044 0.950 . S
H3034 C3046 0.950 . S
H3035 C3047 0.950 . S
C3036 H3028 0.950 . S
C3036 C3037 1.386 . S
C3036 C3038 1.391 . S
C3037 C3036 1.386 . S
C3037 C3041 1.393 . S
C3038 H3030 0.950 . S
C3038 C3036 1.391 . S
C3038 C3039 1.400 . S
C3039 C3038 1.400 . S
C3039 C3040 1.398 . S
C3039 C3045 1.491 . S
C3040 H3031 0.950 . S
C3040 C3039 1.398 . S
C3040 C3041 1.391 . S
C3041 H3029 0.950 . S
C3041 C3037 1.393 . S
C3041 C3040 1.391 . S
C3042 H3032 0.950 . S
C3042 C3043 1.386 . S
C3042 C3044 1.391 . S
C3043 C3042 1.386 . S
C3043 C3047 1.393 . S
C3044 H3033 0.950 . S
C3044 C3042 1.391 . S
C3044 C3045 1.400 . S
C3045 C3039 1.491 . S
C3045 C3044 1.400 . S
C3045 C3046 1.398 . S
C3046 H3034 0.950 . S
C3046 C3045 1.398 . S
C3046 C3047 1.391 . S
C3047 H3035 0.950 . S
C3047 C3043 1.393 . S
C3047 C3046 1.391 . S
H3048 C3056 0.950 . S
H3049 C3061 0.950 . S
H3050 C3058 0.950 . S
H3051 C3060 0.950 . S
H3052 C3062 0.950 . S
H3053 C3064 0.950 . S
H3054 C3066 0.950 . S
H3055 C3067 0.950 . S
C3056 H3048 0.950 . S
C3056 C3057 1.386 . S
C3056 C3058 1.391 . S
C3057 C3056 1.386 . S
C3057 C3061 1.393 . S
C3058 H3050 0.950 . S
C3058 C3056 1.391 . S
C3058 C3059 1.400 . S
C3059 C3058 1.400 . S
C3059 C3060 1.398 . S
C3059 C3065 1.491 . S
C3060 H3051 0.950 . S
C3060 C3059 1.398 . S
C3060 C3061 1.391 . S
C3061 H3049 0.950 . S
C3061 C3057 1.393 . S
C3061 C3060 1.391 . S
C3062 H3052 0.950 . S
C3062 C3063 1.386 . S
C3062 C3064 1.391 . S
C3063 C3062 1.386 . S
C3063 C3067 1.393 . S
C3064 H3053 0.950 . S
C3064 C3062 1.391 . S
C3064 C3065 1.400 . S
C3065 C3059 1.491 . S
C3065 C3064 1.400 . S
C3065 C3066 1.398 . S
C3066 H3054 0.950 . S
C3066 C3065 1.398 . S
C3066 C3067 1.391 . S
C3067 H3055 0.950 . S
C3067 C3063 1.393 . S
C3067 C3066 1.391 . S
H3068 C3076 0.950 . S
H3069 C3081 0.950 . S
H3070 C3078 0.950 . S
H3071 C3080 0.950 . S
H3072 C3082 0.950 . S
H3073 C3084 0.950 . S
H3074 C3086 0.950 . S
H3075 C3087 0.950 . S
C3076 H3068 0.950 . S
C3076 C3077 1.386 . S
C3076 C3078 1.391 . S
C3077 C3076 1.386 . S
C3077 C3081 1.393 . S
C3078 H3070 0.950 . S
C3078 C3076 1.391 . S
C3078 C3079 1.400 . S
C3079 C3078 1.400 . S
C3079 C3080 1.398 . S
C3079 C3085 1.491 . S
C3080 H3071 0.950 . S
C3080 C3079 1.398 . S
C3080 C3081 1.391 . S
C3081 H3069 0.950 . S
C3081 C3077 1.393 . S
C3081 C3080 1.391 . S
C3082 H3072 0.950 . S
C3082 C3083 1.386 . S
C3082 C3084 1.391 . S
C3083 C3082 1.386 . S
C3083 C3087 1.393 . S
C3084 H3073 0.950 . S
C3084 C3082 1.391 . S
C3084 C3085 1.400 . S
C3085 C3079 1.491 . S
C3085 C3084 1.400 . S
C3085 C3086 1.398 . S
C3086 H3074 0.950 . S
C3086 C3085 1.398 . S
C3086 C3087 1.391 . S
C3087 H3075 0.950 . S
C3087 C3083 1.393 . S
C3087 C3086 1.391 . S
H3088 C3096 0.950 . S
H3089 C3101 0.950 . S
H3090 C3098 0.950 . S
H3091 C3100 0.950 . S
H3092 C3102 0.950 . S
H3093 C3104 0.950 . S
H3094 C3106 0.950 . S
H3095 C3107 0.950 . S
C3096 H3088 0.950 . S
C3096 C3097 1.386 . S
C3096 C3098 1.391 . S
C3097 C3096 1.386 . S
C3097 C3101 1.393 . S
C3098 H3090 0.950 . S
C3098 C3096 1.391 . S
C3098 C3099 1.400 . S
C3099 C3098 1.400 . S
C3099 C3100 1.398 . S
C3099 C3105 1.491 . S
C3100 H3091 0.950 . S
C3100 C3099 1.398 . S
C3100 C3101 1.391 . S
C3101 H3089 0.950 . S
C3101 C3097 1.393 . S
C3101 C3100 1.391 . S
C3102 H3092 0.950 . S
C3102 C3103 1.386 . S
C3102 C3104 1.391 . S
C3103 C3102 1.386 . S
C3103 C3107 1.393 . S
C3104 H3093 0.950 . S
C3104 C3102 1.391 . S
C3104 C3105 1.400 . S
C3105 C3099 1.491 . S
C3105 C3104 1.400 . S
C3105 C3106 1.398 . S
C3106 H3094 0.950 . S
C3106 C3105 1.398 . S
C3106 C3107 1.391 . S
C3107 H3095 0.950 . S
C3107 C3103 1.393 . S
C3107 C3106 1.391 . S
H3108 C3116 0.950 . S
H3109 C3121 0.950 . S
H3110 C3118 0.950 . S
H3111 C3120 0.950 . S
H3112 C3122 0.950 . S
H3113 C3124 0.950 . S
H3114 C3126 0.950 . S
H3115 C3127 0.950 . S
C3116 H3108 0.950 . S
C3116 C3117 1.386 . S
C3116 C3118 1.391 . S
C3117 C3116 1.386 . S
C3117 C3121 1.393 . S
C3118 H3110 0.950 . S
C3118 C3116 1.391 . S
C3118 C3119 1.400 . S
C3119 C3118 1.400 . S
C3119 C3120 1.398 . S
C3119 C3125 1.491 . S
C3120 H3111 0.950 . S
C3120 C3119 1.398 . S
C3120 C3121 1.391 . S
C3121 H3109 0.950 . S
C3121 C3117 1.393 . S
C3121 C3120 1.391 . S
C3122 H3112 0.950 . S
C3122 C3123 1.386 . S
C3122 C3124 1.391 . S
C3123 C3122 1.386 . S
C3123 C3127 1.393 . S
C3124 H3113 0.950 . S
C3124 C3122 1.391 . S
C3124 C3125 1.400 . S
C3125 C3119 1.491 . S
C3125 C3124 1.400 . S
C3125 C3126 1.398 . S
C3126 H3114 0.950 . S
C3126 C3125 1.398 . S
C3126 C3127 1.391 . S
C3127 H3115 0.950 . S
C3127 C3123 1.393 . S
C3127 C3126 1.391 . S
H3128 C3136 0.950 . S
H3129 C3141 0.950 . S
H3130 C3138 0.950 . S
H3131 C3140 0.950 . S
H3132 C3142 0.950 . S
H3133 C3144 0.950 . S
H3134 C3146 0.950 . S
H3135 C3147 0.950 . S
C3136 H3128 0.950 . S
C3136 C3137 1.386 . S
C3136 C3138 1.391 . S
C3137 C3136 1.386 . S
C3137 C3141 1.393 . S
C3138 H3130 0.950 . S
C3138 C3136 1.391 . S
C3138 C3139 1.400 . S
C3139 C3138 1.400 . S
C3139 C3140 1.398 . S
C3139 C3145 1.491 . S
C3140 H3131 0.950 . S
C3140 C3139 1.398 . S
C3140 C3141 1.391 . S
C3141 H3129 0.950 . S
C3141 C3137 1.393 . S
C3141 C3140 1.391 . S
C3142 H3132 0.950 . S
C3142 C3143 1.386 . S
C3142 C3144 1.391 . S
C3143 C3142 1.386 . S
C3143 C3147 1.393 . S
C3144 H3133 0.950 . S
C3144 C3142 1.391 . S
C3144 C3145 1.400 . S
C3145 C3139 1.491 . S
C3145 C3144 1.400 . S
C3145 C3146 1.398 . S
C3146 H3134 0.950 . S
C3146 C3145 1.398 . S
C3146 C3147 1.391 . S
C3147 H3135 0.950 . S
C3147 C3143 1.393 . S
C3147 C3146 1.391 . S
H3148 C3156 0.950 . S
H3149 C3161 0.950 . S
H3150 C3158 0.950 . S
H3151 C3160 0.950 . S
H3152 C3162 0.950 . S
H3153 C3164 0.950 . S
H3154 C3166 0.950 . S
H3155 C3167 0.950 . S
C3156 H3148 0.950 . S
C3156 C3157 1.386 . S
C3156 C3158 1.391 . S
C3157 C3156 1.386 . S
C3157 C3161 1.393 . S
C3158 H3150 0.950 . S
C3158 C3156 1.391 . S
C3158 C3159 1.400 . S
C3159 C3158 1.400 . S
C3159 C3160 1.398 . S
C3159 C3165 1.491 . S
C3160 H3151 0.950 . S
C3160 C3159 1.398 . S
C3160 C3161 1.391 . S
C3161 H3149 0.950 . S
C3161 C3157 1.393 . S
C3161 C3160 1.391 . S
C3162 H3152 0.950 . S
C3162 C3163 1.386 . S
C3162 C3164 1.391 . S
C3163 C3162 1.386 . S
C3163 C3167 1.393 . S
C3164 H3153 0.950 . S
C3164 C3162 1.391 . S
C3164 C3165 1.400 . S
C3165 C3159 1.491 . S
C3165 C3164 1.400 . S
C3165 C3166 1.398 . S
C3166 H3154 0.950 . S
C3166 C3165 1.398 . S
C3166 C3167 1.391 . S
C3167 H3155 0.950 . S
C3167 C3163 1.393 . S
C3167 C3166 1.391 . S
C1897 C475 1.391 . S
C1903 C3 1.391 . S
C1917 C1478 1.401 . S
C1923 C62 1.401 . S
C1937 C593 1.390 . S
C1943 C121 1.390 . S
C1957 C1596 1.388 . S
C1963 C180 1.388 . S
C1977 C711 1.397 . S
C1983 C239 1.397 . S
C1997 C298 1.399 . S
C2003 C1714 1.399 . S
C2017 C357 1.398 . S
C2023 C829 1.398 . S
C2037 C416 1.398 . S
C2043 C1832 1.398 . S
C2057 C1006 1.393 . S
C2063 C534 1.393 . S
C2077 C1124 1.391 . S
C2083 C652 1.391 . S
C2097 C770 1.402 . S
C2103 C1242 1.402 . S
C2117 C888 1.402 . S
C2123 C1360 1.402 . S
C2137 C947 1.398 . S
C2143 C1419 1.398 . S
C2157 C1537 1.402 . S
C2163 C1065 1.402 . S
C2177 C1183 1.388 . S
C2183 C1655 1.388 . S
C2197 C1773 1.402 . S
C2203 C1301 1.402 . S
C2217 C1114 1.956 . S
C2223 C52 1.951 . S
C2237 C1173 1.950 . S
C2243 C111 1.947 . S
C2257 C170 1.955 . S
C2263 C996 1.950 . S
C2277 C229 1.947 . S
C2283 C1055 1.951 . S
C2297 C1350 1.956 . S
C2303 C288 1.954 . S
C2317 C347 1.948 . S
C2323 C1409 1.947 . S
C2337 C1232 1.951 . S
C2343 C406 1.955 . S
C2357 C1291 1.954 . S
C2363 C465 1.956 . S
C2377 C524 1.947 . S
C2383 C1586 1.949 . S
C2397 C1645 1.955 . S
C2403 C583 1.951 . S
C2417 C642 1.950 . S
C2423 C1468 1.947 . S
C2437 C701 1.956 . S
C2443 C1527 1.954 . S
C2457 C760 1.954 . S
C2463 C1822 1.956 . S
C2477 C819 1.955 . S
C2483 C1881 1.956 . S
C2497 C1704 1.955 . S
C2503 C878 1.956 . S
C2517 C1763 1.954 . S
C2523 C937 1.949 . S
C2537 C359 1.775 . S
C2543 C5 1.779 . S
C2557 C418 1.776 . S
C2563 C64 1.777 . S
C2577 C241 1.780 . S
C2583 C123 1.783 . S
C2597 C182 1.781 . S
C2603 C300 1.776 . S
C2617 C831 1.781 . S
C2623 C477 1.783 . S
C2637 C890 1.781 . S
C2643 C536 1.782 . S
C2657 C713 1.778 . S
C2663 C595 1.776 . S
C2677 C772 1.776 . S
C2683 C654 1.782 . S
C2697 C1303 1.776 . S
C2703 C949 1.778 . S
C2717 C1362 1.781 . S
C2723 C1008 1.782 . S
C2737 C1067 1.782 . S
C2743 C1185 1.776 . S
C2757 C1126 1.782 . S
C2763 C1244 1.782 . S
C2777 C1775 1.776 . S
C2783 C1421 1.782 . S
C2797 C1834 1.780 . S
C2803 C1480 1.783 . S
C2817 C1539 1.782 . S
C2823 C1657 1.776 . S
C2837 C1598 1.779 . S
C2843 C1716 1.776 . S
C2857 C33 1.500 . S
C2863 C1272 1.502 . S
C2877 C1331 1.496 . S
C2883 C92 1.493 . S
C2897 C1390 1.502 . S
C2903 C151 1.500 . S
C2917 C210 1.493 . S
C2923 C1213 1.494 . S
C2937 C1154 1.500 . S
C2943 C269 1.502 . S
C2957 C328 1.500 . S
C2963 C977 1.496 . S
C2977 C1036 1.493 . S
C2983 C387 1.495 . S
C2997 C446 1.493 . S
C3003 C1095 1.493 . S
C3017 C1744 1.498 . S
C3023 C505 1.501 . S
C3037 C1803 1.495 . S
C3043 C564 1.499 . S
C3057 C623 1.493 . S
C3063 C1862 1.494 . S
C3077 C1685 1.493 . S
C3083 C682 1.495 . S
C3097 C1626 1.494 . S
C3103 C741 1.493 . S
C3117 C800 1.495 . S
C3123 C1449 1.493 . S
C3137 C1508 1.493 . S
C3143 C859 1.496 . S
C3157 C918 1.498 . S
C3163 C1567 1.502 . S
