# Generated by pormake.
# Topology wjd, (6)-cn, num edge types: 1
# Building blocks:
#     Node 0, Type 0, BuildingBlock: LEVNOQ01_clean_sbu_1, # of connection points: 6
#     Node 1, Type 0, BuildingBlock: LEVNOQ01_clean_sbu_1, # of connection points: 6
#     Node 2, Type 0, BuildingBlock: LEVNOQ01_clean_sbu_1, # of connection points: 6
#     Node 3, Type 0, BuildingBlock: LEVNOQ01_clean_sbu_1, # of connection points: 6
#     Node 4, Type 0, BuildingBlock: LEVNOQ01_clean_sbu_1, # of connection points: 6
#     Node 5, Type 0, BuildingBlock: LEVNOQ01_clean_sbu_1, # of connection points: 6
#     Node 6, Type 0, BuildingBlock: LEVNOQ01_clean_sbu_1, # of connection points: 6
#     Node 7, Type 0, BuildingBlock: LEVNOQ01_clean_sbu_1, # of connection points: 6
#     Node 8, Type 0, BuildingBlock: LEVNOQ01_clean_sbu_1, # of connection points: 6
#     Node 9, Type 0, BuildingBlock: LEVNOQ01_clean_sbu_1, # of connection points: 6
#     Node 10, Type 0, BuildingBlock: LEVNOQ01_clean_sbu_1, # of connection points: 6
#     Node 11, Type 0, BuildingBlock: LEVNOQ01_clean_sbu_1, # of connection points: 6
#     Edge 12, Type (0, 0), BuildingBlock: UVAHIK_clean_linker_0, # of connection points: 2
#     Edge 13, Type (0, 0), BuildingBlock: UVAHIK_clean_linker_0, # of connection points: 2
#     Edge 14, Type (0, 0), BuildingBlock: UVAHIK_clean_linker_0, # of connection points: 2
#     Edge 15, Type (0, 0), BuildingBlock: UVAHIK_clean_linker_0, # of connection points: 2
#     Edge 16, Type (0, 0), BuildingBlock: UVAHIK_clean_linker_0, # of connection points: 2
#     Edge 17, Type (0, 0), BuildingBlock: UVAHIK_clean_linker_0, # of connection points: 2
#     Edge 18, Type (0, 0), BuildingBlock: UVAHIK_clean_linker_0, # of connection points: 2
#     Edge 19, Type (0, 0), BuildingBlock: UVAHIK_clean_linker_0, # of connection points: 2
#     Edge 20, Type (0, 0), BuildingBlock: UVAHIK_clean_linker_0, # of connection points: 2
#     Edge 21, Type (0, 0), BuildingBlock: UVAHIK_clean_linker_0, # of connection points: 2
#     Edge 22, Type (0, 0), BuildingBlock: UVAHIK_clean_linker_0, # of connection points: 2
#     Edge 23, Type (0, 0), BuildingBlock: UVAHIK_clean_linker_0, # of connection points: 2
#     Edge 24, Type (0, 0), BuildingBlock: UVAHIK_clean_linker_0, # of connection points: 2
#     Edge 25, Type (0, 0), BuildingBlock: UVAHIK_clean_linker_0, # of connection points: 2
#     Edge 26, Type (0, 0), BuildingBlock: UVAHIK_clean_linker_0, # of connection points: 2
#     Edge 27, Type (0, 0), BuildingBlock: UVAHIK_clean_linker_0, # of connection points: 2
#     Edge 28, Type (0, 0), BuildingBlock: UVAHIK_clean_linker_0, # of connection points: 2
#     Edge 29, Type (0, 0), BuildingBlock: UVAHIK_clean_linker_0, # of connection points: 2
#     Edge 30, Type (0, 0), BuildingBlock: UVAHIK_clean_linker_0, # of connection points: 2
#     Edge 31, Type (0, 0), BuildingBlock: UVAHIK_clean_linker_0, # of connection points: 2
#     Edge 32, Type (0, 0), BuildingBlock: UVAHIK_clean_linker_0, # of connection points: 2
#     Edge 33, Type (0, 0), BuildingBlock: UVAHIK_clean_linker_0, # of connection points: 2
#     Edge 34, Type (0, 0), BuildingBlock: UVAHIK_clean_linker_0, # of connection points: 2
#     Edge 35, Type (0, 0), BuildingBlock: UVAHIK_clean_linker_0, # of connection points: 2
#     Edge 36, Type (0, 0), BuildingBlock: UVAHIK_clean_linker_0, # of connection points: 2
#     Edge 37, Type (0, 0), BuildingBlock: UVAHIK_clean_linker_0, # of connection points: 2
#     Edge 38, Type (0, 0), BuildingBlock: UVAHIK_clean_linker_0, # of connection points: 2
#     Edge 39, Type (0, 0), BuildingBlock: UVAHIK_clean_linker_0, # of connection points: 2
#     Edge 40, Type (0, 0), BuildingBlock: UVAHIK_clean_linker_0, # of connection points: 2
#     Edge 41, Type (0, 0), BuildingBlock: UVAHIK_clean_linker_0, # of connection points: 2
#     Edge 42, Type (0, 0), BuildingBlock: UVAHIK_clean_linker_0, # of connection points: 2
#     Edge 43, Type (0, 0), BuildingBlock: UVAHIK_clean_linker_0, # of connection points: 2
#     Edge 44, Type (0, 0), BuildingBlock: UVAHIK_clean_linker_0, # of connection points: 2
#     Edge 45, Type (0, 0), BuildingBlock: UVAHIK_clean_linker_0, # of connection points: 2
#     Edge 46, Type (0, 0), BuildingBlock: UVAHIK_clean_linker_0, # of connection points: 2
#     Edge 47, Type (0, 0), BuildingBlock: UVAHIK_clean_linker_0, # of connection points: 2
# Relax obj value: 0.145
# Max RMSD: 0.187
# Mean RMSD: 0.187
data_MOF--net-wjd--node1-LEVNOQ01_clean_sbu_1--edge1-UVAHIK_clean_linker_0
_symmetry_space_group_name_H-M    P1
_symmetry_Int_Tables_number       1
_symmetry_cell_setting            triclinic
loop_
_symmetry_equiv_pos_as_xyz
'x, y, z'
_cell_length_a     39.328198
_cell_length_b     39.529993
_cell_length_c     75.209238
_cell_angle_alpha  90.067351
_cell_angle_beta   89.902633
_cell_angle_gamma 120.09872
loop_
_atom_site_label
_atom_site_type_symbol
_atom_site_fract_x
_atom_site_fract_y
_atom_site_fract_z
_atom_type_partial_charge
O0 O 0.26712 0.02682 0.13943 0.0
Mg1 Mg 0.26201 0.07726 0.14117 0.0
O2 O 0.26402 0.0489 0.11367 0.0
Mg3 Mg 0.31056 0.1166 0.11969 0.0
O4 O 0.30905 0.12425 0.1519 0.0
O5 O 0.25454 0.08273 0.16706 0.0
O6 O 0.35649 0.18217 0.12305 0.0
O7 O 0.35619 0.09833 0.12558 0.0
Mg8 Mg 0.37734 0.14763 0.08911 0.0
O9 O 0.31757 0.11726 0.08913 0.0
O10 O 0.39717 0.20369 0.0999 0.0
O11 O 0.39545 0.11171 0.10214 0.0
O12 O 0.35233 0.13396 0.06408 0.0
C13 C 0.22883 0.1135 0.11764 0.0
C14 C 0.25644 0.01972 0.12351 0.0
C15 C 0.28965 0.11239 0.16684 0.0
C16 C 0.38501 0.20957 0.11455 0.0
C17 C 0.38366 0.09671 0.11744 0.0
C18 C 0.31861 0.1159 0.0719 0.0
O19 O 0.21772 0.08354 0.12732 0.0
O20 O 0.26508 0.13484 0.11411 0.0
O21 O 0.68125 0.56795 0.40281 0.0
Mg22 Mg 0.73647 0.58858 0.41485 0.0
O23 O 0.70946 0.60543 0.37937 0.0
Mg24 Mg 0.77341 0.65235 0.38605 0.0
O25 O 0.76669 0.64789 0.41708 0.0
O26 O 0.74398 0.60735 0.44045 0.0
O27 O 0.83745 0.6998 0.39105 0.0
O28 O 0.75255 0.6976 0.38986 0.0
Mg29 Mg 0.79847 0.71599 0.35624 0.0
O30 O 0.7806 0.65789 0.35565 0.0
O31 O 0.85252 0.74558 0.37041 0.0
O32 O 0.75257 0.72509 0.36437 0.0
O33 O 0.79651 0.69447 0.33117 0.0
C34 C 0.79257 0.57853 0.39169 0.0
C35 C 0.67933 0.57845 0.38714 0.0
C36 C 0.76167 0.64248 0.43419 0.0
C37 C 0.86131 0.73266 0.38406 0.0
C38 C 0.74354 0.71899 0.38065 0.0
C39 C 0.78463 0.66093 0.33853 0.0
O40 O 0.77192 0.56657 0.40569 0.0
O41 O 0.79521 0.60733 0.38289 0.0
O42 O 0.93277 0.22498 0.14243 0.0
Mg43 Mg 0.88107 0.17057 0.14465 0.0
O44 O 0.91088 0.20318 0.11607 0.0
Mg45 Mg 0.84363 0.18404 0.1195 0.0
O46 O 0.83288 0.17487 0.15068 0.0
O47 O 0.86483 0.15753 0.17021 0.0
O48 O 0.77783 0.16447 0.12075 0.0
O49 O 0.85982 0.24759 0.12475 0.0
Mg50 Mg 0.8152 0.21773 0.08677 0.0
O51 O 0.84825 0.19168 0.08939 0.0
O52 O 0.75763 0.1775 0.09543 0.0
O53 O 0.84447 0.27137 0.10122 0.0
O54 O 0.83685 0.20907 0.06305 0.0
C55 C 0.84397 0.10289 0.11989 0.0
C56 C 0.94 0.2219 0.12642 0.0
C57 C 0.83764 0.16566 0.16672 0.0
C58 C 0.75064 0.16214 0.11078 0.0
C59 C 0.85883 0.27543 0.11673 0.0
C60 C 0.85368 0.19431 0.07238 0.0
O61 O 0.87259 0.11961 0.13058 0.0
O62 O 0.82551 0.11998 0.11496 0.0
O63 O 0.38063 0.08869 0.40581 0.0
Mg64 Mg 0.36926 0.13166 0.41581 0.0
O65 O 0.35828 0.10021 0.3812 0.0
Mg66 Mg 0.31001 0.11589 0.3879 0.0
O67 O 0.31028 0.11064 0.41898 0.0
O68 O 0.35258 0.12622 0.44168 0.0
O69 O 0.25941 0.12822 0.39089 0.0
O70 O 0.26577 0.0502 0.39129 0.0
Mg71 Mg 0.25566 0.07257 0.35403 0.0
O72 O 0.30875 0.12417 0.35727 0.0
O73 O 0.22496 0.09946 0.36629 0.0
O74 O 0.23677 0.01945 0.36672 0.0
O75 O 0.30622 0.07729 0.3415 0.0
C76 C 0.38841 0.20293 0.39414 0.0
C77 C 0.37754 0.08672 0.38909 0.0
C78 C 0.31697 0.11119 0.43597 0.0
C79 C 0.23018 0.11905 0.3806 0.0
C80 C 0.24325 0.01886 0.38303 0.0
C81 C 0.32235 0.11397 0.34405 0.0
O82 O 0.40223 0.18896 0.40527 0.0
O83 O 0.35452 0.182 0.38729 0.0
O84 O 0.73897 0.70719 0.14286 0.0
Mg85 Mg 0.79014 0.70482 0.14838 0.0
O86 O 0.75889 0.69773 0.1173 0.0
Mg87 Mg 0.78044 0.65283 0.1215 0.0
O88 O 0.78481 0.65155 0.15294 0.0
O89 O 0.79544 0.6958 0.17431 0.0
O90 O 0.80284 0.60826 0.12338 0.0
O91 O 0.7165 0.60447 0.12581 0.0
Mg92 Mg 0.74947 0.59152 0.08881 0.0
O93 O 0.77547 0.65047 0.09099 0.0
O94 O 0.78782 0.57342 0.09851 0.0
O95 O 0.69379 0.56771 0.10153 0.0
O96 O 0.76061 0.62052 0.06477 0.0
C97 C 0.86131 0.7364 0.12465 0.0
C98 C 0.74082 0.71123 0.12622 0.0
C99 C 0.78941 0.66185 0.16962 0.0
C100 C 0.80445 0.58267 0.11358 0.0
C101 C 0.68875 0.57695 0.1171 0.0
C102 C 0.77364 0.65233 0.07384 0.0
O103 O 0.84423 0.74565 0.1364 0.0
O104 O 0.84434 0.70223 0.1179 0.0
O105 O 0.8567 0.27457 0.41325 0.0
Mg106 Mg 0.82005 0.21722 0.42158 0.0
O107 O 0.85984 0.25166 0.38694 0.0
Mg108 Mg 0.8442 0.18614 0.39042 0.0
O109 O 0.84778 0.18541 0.4216 0.0
O110 O 0.82845 0.2029 0.44633 0.0
O111 O 0.82638 0.12175 0.39317 0.0
O112 O 0.91274 0.20812 0.39337 0.0
Mg113 Mg 0.88122 0.17398 0.36522 0.0
O114 O 0.83453 0.18143 0.35885 0.0
O115 O 0.8738 0.12205 0.37772 0.0
O116 O 0.93577 0.22508 0.36655 0.0
O117 O 0.86455 0.16054 0.33984 0.0
C118 C 0.75277 0.16972 0.39777 0.0
C119 C 0.86447 0.27999 0.39682 0.0
C120 C 0.84664 0.18698 0.43891 0.0
C121 C 0.84479 0.10475 0.38812 0.0
C122 C 0.94226 0.22503 0.38292 0.0
C123 C 0.83873 0.17073 0.34297 0.0
O124 O 0.76241 0.19004 0.41181 0.0
O125 O 0.77763 0.1648 0.38899 0.0
O126 O 0.01863 0.27007 0.64341 0.0
Mg127 Mg 0.07076 0.26801 0.64428 0.0
O128 O 0.03858 0.26955 0.61665 0.0
Mg129 Mg 0.10588 0.31857 0.61954 0.0
O130 O 0.11853 0.32007 0.65062 0.0
O131 O 0.0877 0.26926 0.66953 0.0
O132 O 0.17125 0.36576 0.6207 0.0
O133 O 0.08777 0.36461 0.62627 0.0
Mg134 Mg 0.12829 0.38087 0.58936 0.0
O135 O 0.1003 0.32105 0.58887 0.0
O136 O 0.18746 0.40534 0.59745 0.0
O137 O 0.09416 0.40075 0.60268 0.0
O138 O 0.11294 0.35754 0.56443 0.0
C139 C 0.10695 0.23792 0.61881 0.0
C140 C 0.01025 0.25911 0.62754 0.0
C141 C 0.11442 0.30489 0.66637 0.0
C142 C 0.19658 0.39451 0.61162 0.0
C143 C 0.0837 0.39113 0.61868 0.0
C144 C 0.09772 0.32349 0.57174 0.0
O145 O 0.07847 0.22579 0.62962 0.0
O146 O 0.12528 0.27363 0.61414 0.0
O147 O 0.21068 0.94511 0.8627 0.0
Mg148 Mg 0.16297 0.88877 0.85937 0.0
O149 O 0.1961 0.91999 0.8893 0.0
Mg150 Mg 0.17819 0.85376 0.88589 0.0
O151 O 0.17456 0.84492 0.85436 0.0
O152 O 0.15545 0.87323 0.83369 0.0
O153 O 0.15935 0.78737 0.88134 0.0
O154 O 0.24349 0.87373 0.8825 0.0
Mg155 Mg 0.18835 0.815 0.91111 0.0
O156 O 0.1826 0.86191 0.91764 0.0
O157 O 0.13635 0.762 0.9073 0.0
O158 O 0.24046 0.82482 0.89778 0.0
O159 O 0.19661 0.82746 0.93717 0.0
C160 C 0.09262 0.84779 0.88254 0.0
C161 C 0.21102 0.95 0.87925 0.0
C162 C 0.16672 0.8488 0.8379 0.0
C163 C 0.13874 0.75736 0.8909 0.0
C164 C 0.25874 0.85357 0.88735 0.0
C165 C 0.18886 0.85493 0.93393 0.0
O166 O 0.10804 0.87385 0.87066 0.0
O167 O 0.11221 0.83355 0.88947 0.0
O168 O 0.68486 0.7362 0.63902 0.0
Mg169 Mg 0.68729 0.79022 0.64205 0.0
O170 O 0.68885 0.76286 0.61349 0.0
Mg171 Mg 0.64029 0.78118 0.61766 0.0
O172 O 0.63682 0.78791 0.64954 0.0
O173 O 0.68637 0.79943 0.66818 0.0
O174 O 0.59289 0.79953 0.61902 0.0
O175 O 0.59499 0.71653 0.62323 0.0
Mg176 Mg 0.57798 0.7416 0.58684 0.0
O177 O 0.63809 0.77504 0.58702 0.0
O178 O 0.54971 0.77105 0.59722 0.0
O179 O 0.56213 0.6873 0.59874 0.0
O180 O 0.6034 0.7544 0.56199 0.0
C181 C 0.72196 0.86084 0.61871 0.0
C182 C 0.69709 0.74177 0.62327 0.0
C183 C 0.65158 0.79388 0.66553 0.0
C184 C 0.56191 0.79306 0.61078 0.0
C185 C 0.57092 0.68586 0.61482 0.0
C186 C 0.63712 0.77171 0.56982 0.0
O187 O 0.73142 0.84224 0.62944 0.0
O188 O 0.68667 0.84547 0.61328 0.0
O189 O 0.01726 0.2699 0.86696 0.0
Mg190 Mg 0.07041 0.27001 0.86501 0.0
O191 O 0.04117 0.27298 0.8933 0.0
Mg192 Mg 0.10927 0.32004 0.88965 0.0
O193 O 0.11895 0.32138 0.8583 0.0
O194 O 0.08505 0.27103 0.83943 0.0
O195 O 0.17605 0.36697 0.88827 0.0
O196 O 0.09207 0.36668 0.88461 0.0
Mg197 Mg 0.13643 0.38229 0.92238 0.0
O198 O 0.10631 0.32334 0.91992 0.0
O199 O 0.19388 0.40366 0.91264 0.0
O200 O 0.10225 0.40229 0.90903 0.0
O201 O 0.11844 0.35234 0.9463 0.0
C202 C 0.1065 0.23768 0.88925 0.0
C203 C 0.01129 0.26172 0.88323 0.0
C204 C 0.11299 0.3062 0.84245 0.0
C205 C 0.20235 0.39431 0.89783 0.0
C206 C 0.08952 0.39302 0.89322 0.0
C207 C 0.10181 0.3207 0.937 0.0
O208 O 0.07793 0.22705 0.87864 0.0
O209 O 0.1263 0.27321 0.89414 0.0
O210 O 0.20175 0.9468 0.64416 0.0
Mg211 Mg 0.15082 0.89262 0.64842 0.0
O212 O 0.19751 0.92041 0.61803 0.0
Mg213 Mg 0.17511 0.8535 0.62133 0.0
O214 O 0.16208 0.84798 0.65169 0.0
O215 O 0.14074 0.87112 0.67363 0.0
O216 O 0.15162 0.7861 0.62345 0.0
O217 O 0.23784 0.86802 0.62968 0.0
Mg218 Mg 0.21368 0.82403 0.59215 0.0
O219 O 0.1877 0.85721 0.59115 0.0
O220 O 0.17244 0.76714 0.60011 0.0
O221 O 0.26552 0.85329 0.60749 0.0
O222 O 0.21048 0.8424 0.56699 0.0
C223 C 0.09105 0.85347 0.61895 0.0
C224 C 0.20894 0.95071 0.6277 0.0
C225 C 0.15322 0.8482 0.66832 0.0
C226 C 0.15205 0.75921 0.61417 0.0
C227 C 0.26713 0.86729 0.62285 0.0
C228 C 0.1941 0.86037 0.57412 0.0
O229 O 0.10147 0.87718 0.63192 0.0
O230 O 0.11224 0.83926 0.6138 0.0
O231 O 0.70768 0.75187 0.86195 0.0
Mg232 Mg 0.70074 0.80066 0.85871 0.0
O233 O 0.69041 0.75929 0.88859 0.0
Mg234 Mg 0.6483 0.78483 0.88687 0.0
O235 O 0.64518 0.7917 0.85559 0.0
O236 O 0.68921 0.8076 0.8334 0.0
O237 O 0.60697 0.8103 0.88714 0.0
O238 O 0.59726 0.72149 0.87915 0.0
Mg239 Mg 0.59447 0.74232 0.9107 0.0
O240 O 0.65121 0.78019 0.91854 0.0
O241 O 0.55668 0.76175 0.90071 0.0
O242 O 0.58301 0.6865 0.90327 0.0
O243 O 0.59978 0.74918 0.93715 0.0
C244 C 0.73307 0.86784 0.88402 0.0
C245 C 0.70691 0.74599 0.87844 0.0
C246 C 0.65453 0.79852 0.8388 0.0
C247 C 0.57131 0.79342 0.89209 0.0
C248 C 0.58043 0.6881 0.88665 0.0
C249 C 0.63711 0.77085 0.93466 0.0
O250 O 0.74157 0.85385 0.87071 0.0
O251 O 0.69976 0.84824 0.89166 0.0
C252 C -0.00196 0.23554 0.10721 0.0
C253 C -0.02403 0.22057 0.12283 0.0
C254 C 0.03021 0.23021 0.10388 0.0
C255 C 0.09422 0.19964 0.1272 0.0
H256 H 0.11045 0.16903 0.08035 0.0
C257 C 0.16096 0.1035 0.11731 0.0
C258 C 0.20051 0.12557 0.11207 0.0
C259 C 0.13563 0.11815 0.11484 0.0
C260 C 0.10624 0.17787 0.09342 0.0
H261 H 0.96812 0.18634 0.14659 0.0
H262 H 0.02205 0.17563 0.14054 0.0
H263 H 0.06356 0.19242 0.08421 0.0
H264 H 0.24361 0.17866 0.09868 0.0
H265 H 0.19882 0.20416 0.09442 0.0
H266 H 0.13479 0.18268 0.13657 0.0
C267 C 0.01681 0.19352 0.13131 0.0
C268 C 0.07977 0.19151 0.09564 0.0
C269 C -0.01431 0.19958 0.13478 0.0
C270 C 0.21335 0.16111 0.10299 0.0
C271 C 0.18783 0.17565 0.10043 0.0
C272 C 0.11986 0.1854 0.12503 0.0
C273 C 0.03985 0.20907 0.11596 0.0
C274 C 0.07256 0.20132 0.1127 0.0
C275 C 0.14928 0.1548 0.1069 0.0
C276 C 0.12531 0.17359 0.10825 0.0
H277 H -0.00954 0.2512 0.09768 0.0
H278 H 0.04736 0.24247 0.0919 0.0
H279 H 0.09034 0.20803 0.14044 0.0
H280 H 0.15004 0.07588 0.12417 0.0
H281 H 0.10589 0.10179 0.11995 0.0
C282 C 0.19393 -0.01545 0.40649 0.0
C283 C 0.21728 -0.01695 0.39274 0.0
C284 C 0.15843 0.95119 0.41085 0.0
C285 C 0.08605 0.86972 0.38505 0.0
H286 H 0.02433 0.83805 0.42844 0.0
C287 C 0.92887 0.74448 0.38448 0.0
C288 C 0.90146 0.75443 0.39064 0.0
C289 C 0.96855 0.76842 0.38835 0.0
C290 C 0.04144 0.84674 0.41629 0.0
H291 H 0.22532 0.94544 0.37441 0.0
H292 H 0.16433 0.88668 0.38259 0.0
H293 H 0.09511 0.88576 0.42984 0.0
H294 H 0.89253 0.79544 0.40617 0.0
H295 H 0.96264 0.8376 0.41324 0.0
H296 H 0.03276 0.83167 0.37143 0.0
C297 C 0.17258 0.91364 0.38964 0.0
C298 C 0.08174 0.87381 0.41708 0.0
C299 C 0.20763 0.94703 0.38509 0.0
C300 C 0.91359 0.78743 0.40144 0.0
C301 C 0.9534 0.81126 0.40551 0.0
C302 C 0.04616 0.8427 0.3843 0.0
C303 C 0.14631 0.91614 0.40153 0.0
C304 C 0.10442 0.88534 0.40144 0.0
C305 C -0.01878 0.80249 0.39851 0.0
C306 C 0.02355 0.83083 0.39987 0.0
H307 H 0.20053 0.0123 0.41229 0.0
H308 H 0.1388 0.95402 0.42006 0.0
H309 H 0.10227 0.87921 0.37267 0.0
H310 H 0.9198 0.71919 0.376 0.0
H311 H -0.01044 0.76112 0.38286 0.0
C312 C 0.85435 0.04773 0.1112 0.0
C313 C 0.82873 0.06171 0.11523 0.0
C314 C 0.83954 0.00769 0.10866 0.0
C315 C 0.77083 0.91775 0.12622 0.0
H316 H 0.76649 0.86492 0.08207 0.0
C317 C 0.71118 0.75408 0.12723 0.0
C318 C 0.73506 0.74224 0.11853 0.0
C319 C 0.71504 0.79042 0.12345 0.0
C320 C 0.76766 0.87925 0.09452 0.0
H321 H 0.76801 0.04553 0.11981 0.0
H322 H 0.74241 0.97528 0.11615 0.0
H323 H 0.79232 0.93573 0.08213 0.0
H324 H 0.7793 0.75762 0.09802 0.0
H325 H 0.78635 0.82072 0.0916 0.0
H326 H 0.74847 0.8625 0.13896 0.0
C327 C 0.77358 -0.00463 0.1144 0.0
C328 C 0.78239 0.91963 0.0945 0.0
C329 C 0.78819 0.03537 0.11643 0.0
C330 C 0.75999 0.76559 0.10477 0.0
C331 C 0.7642 0.80207 0.10114 0.0
C332 C 0.75675 0.87764 0.12632 0.0
C333 C 0.79918 0.98132 0.11063 0.0
C334 C 0.78399 0.93897 0.11037 0.0
C335 C 0.74333 0.81579 0.11113 0.0
C336 C 0.75494 0.8578 0.11048 0.0
H337 H 0.88575 0.06767 0.11028 0.0
H338 H 0.85968 -0.00285 0.10588 0.0
H339 H 0.77225 0.93242 0.13862 0.0
H340 H 0.69152 0.73648 0.1378 0.0
H341 H 0.69757 0.79959 0.13099 0.0
C342 C 0.20089 0.14628 0.40212 0.0
C343 C 0.20122 0.13112 0.38522 0.0
C344 C 0.17311 0.15739 0.40622 0.0
C345 C 0.07827 0.14553 0.39046 0.0
H346 H 0.11367 0.24671 0.41242 0.0
C347 C 0.00888 0.23648 0.37539 0.0
C348 C -0.01889 0.23138 0.3885 0.0
C349 C 0.03882 0.22857 0.37923 0.0
C350 C 0.10341 0.21817 0.40655 0.0
H351 H 0.17274 0.11593 0.3594 0.0
H352 H 0.12534 0.13597 0.36637 0.0
H353 H 0.15803 0.2199 0.41111 0.0
H354 H 0.96723 0.22073 0.41654 0.0
H355 H 0.01978 0.20646 0.42321 0.0
H356 H 0.02458 0.14496 0.38499 0.0
C357 C 0.14573 0.13843 0.37665 0.0
C358 C 0.12858 0.20273 0.40583 0.0
C359 C 0.17321 0.12722 0.37259 0.0
C360 C -0.01266 0.22361 0.40608 0.0
C361 C 0.01748 0.21571 0.40994 0.0
C362 C 0.05338 0.16105 0.39107 0.0
C363 C 0.14526 0.15361 0.3935 0.0
C364 C 0.11671 0.16688 0.39719 0.0
C365 C 0.042 0.21623 0.39628 0.0
C366 C 0.06622 0.1979 0.39865 0.0
H367 H 0.22191 0.14937 0.41219 0.0
H368 H 0.17331 0.16876 0.41935 0.0
H369 H 0.0679 0.11744 0.38409 0.0
H370 H 0.00543 0.24297 0.36175 0.0
H371 H 0.05772 0.22928 0.36856 0.0
C372 C 0.21188 0.96918 0.10142 0.0
C373 C 0.22346 0.98049 0.11911 0.0
C374 C 0.17394 0.93865 0.09763 0.0
C375 C 0.08103 0.90977 0.11309 0.0
H376 H 0.03583 0.80132 0.09891 0.0
C377 C 0.92441 0.79694 0.13095 0.0
C378 C 0.90196 0.76517 0.11964 0.0
C379 C 0.96351 0.82333 0.12703 0.0
C380 C 0.04799 0.83179 0.10246 0.0
H381 H 0.20646 0.96493 0.14675 0.0
H382 H 0.14082 0.91196 0.14009 0.0
H383 H 0.10744 0.84432 0.09876 0.0
H384 H 0.9023 0.73676 0.09501 0.0
H385 H 0.97099 0.78384 0.08788 0.0
H386 H 0.02235 0.8978 0.11714 0.0
C387 C 0.16077 0.92712 0.12918 0.0
C388 C 0.08884 0.85616 0.10243 0.0
C389 C 0.19847 0.9574 0.13294 0.0
C390 C 0.91912 0.76086 0.10403 0.0
C391 C 0.95837 0.7877 0.09998 0.0
C392 C 0.04041 0.8857 0.11294 0.0
C393 C 0.14771 0.91896 0.11157 0.0
C394 C 0.10541 0.89485 0.1083 0.0
C395 C -0.01895 0.819 0.11155 0.0
C396 C 0.02346 0.84603 0.10832 0.0
H397 H 0.23125 -0.01496 0.09058 0.0
H398 H 0.1643 0.93226 0.08394 0.0
H399 H 0.09354 0.93973 0.11761 0.0
H400 H 0.91215 0.80086 0.14317 0.0
H401 H -0.01969 0.84647 0.13649 0.0
C402 C 0.7102 0.75808 0.38079 0.0
C403 C 0.73358 0.74589 0.38958 0.0
C404 C 0.71263 0.7934 0.3854 0.0
C405 C 0.76353 0.88092 0.41522 0.0
H406 H 0.77591 0.93547 0.37069 0.0
C407 C 0.85538 0.04943 0.39621 0.0
C408 C 0.8297 0.06365 0.39281 0.0
C409 C 0.84037 0.00955 0.39936 0.0
C410 C 0.77239 0.92044 0.38319 0.0
H411 H 0.7747 0.75858 0.41114 0.0
H412 H 0.77982 0.82052 0.4189 0.0
H413 H 0.74989 0.86527 0.37044 0.0
H414 H 0.76869 0.04808 0.39009 0.0
H415 H 0.74267 0.97811 0.39484 0.0
H416 H 0.78816 0.93741 0.42767 0.0
C417 C 0.75897 0.80282 0.40873 0.0
C418 C 0.75693 0.88017 0.38314 0.0
C419 C 0.75587 0.76707 0.40436 0.0
C420 C 0.78897 0.03777 0.39292 0.0
C421 C 0.7741 -0.00205 0.39564 0.0
C422 C 0.77948 0.92151 0.41521 0.0
C423 C 0.73941 0.81755 0.39849 0.0
C424 C 0.75218 0.8598 0.39915 0.0
C425 C 0.79969 -0.01635 0.39876 0.0
C426 C 0.78393 0.9413 0.39917 0.0
H427 H 0.69267 0.74203 0.36939 0.0
H428 H 0.69607 0.80332 0.37768 0.0
H429 H 0.7603 0.86615 0.42776 0.0
H430 H 0.88691 0.06903 0.39622 0.0
H431 H 0.86046 -0.00127 0.40156 0.0
C432 C 0.23937 0.02306 0.62862 0.0
C433 C 0.21676 -0.0123 0.61953 0.0
C434 C 0.236 0.05565 0.62442 0.0
C435 C 0.18767 0.09333 0.59375 0.0
H436 H 0.17306 0.13658 0.63754 0.0
C437 C 0.09589 0.17123 0.61218 0.0
C438 C 0.12167 0.21173 0.61355 0.0
C439 C 0.11067 0.14597 0.60962 0.0
C440 C 0.17727 0.1248 0.62525 0.0
H441 H 0.17477 0.95931 0.59823 0.0
H442 H 0.16893 0.01576 0.59088 0.0
H443 H 0.19812 0.09141 0.63877 0.0
H444 H 0.18279 0.25775 0.61304 0.0
H445 H 0.20857 0.21323 0.60907 0.0
H446 H 0.16496 0.12601 0.58047 0.0
C447 C 0.1899 0.01892 0.60099 0.0
C448 C 0.19209 0.09937 0.62587 0.0
C449 C 0.19357 -0.01349 0.60509 0.0
C450 C 0.1623 0.22669 0.61173 0.0
C451 C 0.17705 0.20139 0.60951 0.0
C452 C 0.17257 0.11872 0.59317 0.0
C453 C 0.20939 0.05313 0.61127 0.0
C454 C 0.19742 0.08323 0.61015 0.0
C455 C 0.15135 0.16095 0.60867 0.0
C456 C 0.16723 0.13438 0.60893 0.0
H457 H 0.25735 0.02462 0.63985 0.0
H458 H 0.25222 0.08197 0.63228 0.0
H459 H 0.19143 0.08144 0.58142 0.0
H460 H 0.06445 0.15908 0.61354 0.0
H461 H 0.09052 0.11471 0.60914 0.0
C462 C 0.03529 0.81233 0.90341 0.0
C463 C 0.05133 0.83331 0.88759 0.0
C464 C -0.00413 0.79891 0.90775 0.0
C465 C 0.91356 0.81502 0.8966 0.0
H466 H 0.84539 0.70547 0.90828 0.0
C467 C 0.75647 0.72491 0.87455 0.0
C468 C 0.73482 0.73522 0.88599 0.0
C469 C 0.79193 0.7286 0.88019 0.0
C470 C 0.86433 0.73623 0.90536 0.0
H471 H 0.03864 0.85603 0.86379 0.0
H472 H 0.97043 0.83219 0.87114 0.0
H473 H 0.91707 0.73325 0.90795 0.0
H474 H 0.73043 0.75198 0.91305 0.0
H475 H 0.79305 0.75925 0.92267 0.0
H476 H 0.86087 0.8175 0.89313 0.0
C477 C -0.01174 0.82699 0.88048 0.0
C478 C 0.90515 0.75215 0.90522 0.0
C479 C 0.02737 0.84047 0.87621 0.0
C480 C 0.74661 0.74417 0.90386 0.0
C481 C 0.78237 0.7483 0.90942 0.0
C482 C 0.873 0.79922 0.89688 0.0
C483 C 0.97208 0.80626 0.8963 0.0
C484 C 0.92999 0.79131 0.90013 0.0
C485 C 0.80601 0.74241 0.89733 0.0
C486 C 0.84819 0.75954 0.90074 0.0
H487 H 0.05319 0.80656 0.91245 0.0
H488 H -0.01593 0.78305 0.92006 0.0
H489 H 0.932 0.84539 0.89285 0.0
H490 H 0.74804 0.71765 0.86075 0.0
H491 H 0.81012 0.72434 0.87064 0.0
C492 C 0.78876 0.91929 0.62173 0.0
C493 C 0.75123 0.90146 0.61395 0.0
C494 C 0.81452 0.9592 0.61963 0.0
C495 C 0.85032 0.04669 0.59607 0.0
H496 H 0.85404 0.09632 0.64111 0.0
C497 C 0.95534 0.21282 0.60751 0.0
C498 C 0.97328 0.22246 0.62429 0.0
C499 C 0.9236 0.17515 0.60433 0.0
C500 C 0.85374 0.08307 0.62846 0.0
H501 H 0.71256 0.91082 0.59664 0.0
H502 H 0.75828 0.98113 0.59294 0.0
H503 H 0.81088 0.02629 0.63776 0.0
H504 H 0.97309 0.20022 0.6507 0.0
H505 H 0.92025 0.13522 0.64503 0.0
H506 H 0.89526 0.10295 0.58709 0.0
C507 C 0.76723 0.96386 0.6007 0.0
C508 C 0.82873 0.04304 0.62655 0.0
C509 C 0.74116 0.92382 0.60291 0.0
C510 C 0.95903 0.19415 0.63779 0.0
C511 C 0.92841 0.15663 0.63452 0.0
C512 C 0.87619 0.08688 0.59809 0.0
C513 C 0.80346 0.98182 0.60952 0.0
C514 C 0.82737 0.02456 0.61048 0.0
C515 C 0.91017 0.14645 0.61778 0.0
C516 C 0.87891 0.10534 0.61449 0.0
H517 H 0.79761 0.90288 0.63017 0.0
H518 H 0.84244 0.97278 0.62656 0.0
H519 H 0.84943 0.03265 0.58356 0.0
H520 H 0.96618 0.23411 0.59686 0.0
H521 H 0.91004 0.1684 0.59132 0.0
C522 C 0.09508 0.16971 0.89019 0.0
C523 C 0.11883 0.20951 0.8944 0.0
C524 C 0.10902 0.14387 0.89268 0.0
C525 C 0.20183 0.14422 0.89346 0.0
H526 H 0.13628 0.03649 0.90832 0.0
C527 C 0.23008 0.01966 0.87432 0.0
C528 C 0.21715 -0.01227 0.88596 0.0
C529 C 0.22472 0.05098 0.87866 0.0
C530 C 0.15528 0.06669 0.90446 0.0
H531 H 0.17477 0.25303 0.90555 0.0
H532 H 0.19905 0.20771 0.90996 0.0
H533 H 0.11111 0.08144 0.91051 0.0
H534 H 0.19214 0.96556 0.91196 0.0
H535 H 0.18437 0.02087 0.91987 0.0
H536 H 0.2458 0.12934 0.88716 0.0
C537 C 0.16989 0.19671 0.9045 0.0
C538 C 0.14064 0.09226 0.90552 0.0
C539 C 0.15588 0.22256 0.90209 0.0
C540 C 0.20266 -0.01029 0.90277 0.0
C541 C 0.19757 0.02115 0.90717 0.0
C542 C 0.2165 0.11865 0.89241 0.0
C543 C 0.14699 0.15737 0.8994 0.0
C544 C 0.1636 0.13113 0.89983 0.0
C545 C 0.20671 0.05109 0.8948 0.0
C546 C 0.19321 0.07951 0.89772 0.0
H547 H 0.06623 0.15873 0.88437 0.0
H548 H 0.09077 0.11373 0.88854 0.0
H549 H 0.21994 0.17389 0.88871 0.0
H550 H 0.24151 0.01909 0.86128 0.0
H551 H 0.23199 0.07356 0.8688 0.0
C552 C 0.03107 0.80287 0.6031 0.0
C553 C 0.05213 0.84004 0.61097 0.0
C554 C -0.00882 0.78691 0.59917 0.0
C555 C 0.91035 0.76817 0.61881 0.0
H556 H 0.85153 0.78462 0.58184 0.0
C557 C 0.7617 0.75284 0.63277 0.0
C558 C 0.73284 0.74007 0.6195 0.0
C559 C 0.79875 0.75855 0.629 0.0
C560 C 0.86737 0.77904 0.5921 0.0
H561 H 0.04941 0.89137 0.61908 0.0
H562 H -0.02016 0.86344 0.61201 0.0
H563 H 0.92216 0.80944 0.57786 0.0
H564 H 0.71935 0.72175 0.59206 0.0
H565 H 0.78448 0.73031 0.58548 0.0
H566 H 0.85668 0.73896 0.6334 0.0
C567 C -0.00587 0.84671 0.60904 0.0
C568 C 0.90767 0.79341 0.58982 0.0
C569 C 0.03375 0.86245 0.61321 0.0
C570 C 0.74124 0.73167 0.60247 0.0
C571 C 0.77847 0.73678 0.59873 0.0
C572 C 0.87031 0.75384 0.62109 0.0
C573 C 0.97235 0.80835 0.60267 0.0
C574 C 0.92934 0.78862 0.60335 0.0
C575 C 0.8078 0.75088 0.61193 0.0
C576 C 0.84855 0.76012 0.60801 0.0
H577 H 0.04454 0.78502 0.60123 0.0
H578 H 0.9745 0.75705 0.59444 0.0
H579 H 0.92688 0.76466 0.62946 0.0
H580 H 0.75645 0.76072 0.64588 0.0
H581 H 0.82083 0.77064 0.63934 0.0
C582 C 0.94512 0.20555 0.87575 0.0
C583 C 0.97265 0.22889 0.88878 0.0
C584 C 0.91474 0.16812 0.87999 0.0
C585 C 0.8468 0.09444 0.90462 0.0
H586 H 0.89372 0.03009 0.89525 0.0
C587 C 0.75474 0.92524 0.9047 0.0
C588 C 0.76151 0.90815 0.8897 0.0
C589 C 0.7807 0.96454 0.90887 0.0
C590 C 0.88018 0.04758 0.89802 0.0
H591 H -0.01299 0.23267 0.91667 0.0
H592 H 0.93326 0.16758 0.92419 0.0
H593 H 0.93447 0.10118 0.89436 0.0
H594 H 0.80143 0.91863 0.86766 0.0
H595 H 0.84556 -0.01351 0.87464 0.0
H596 H 0.79202 0.04093 0.90733 0.0
C597 C 0.93573 0.17835 0.91073 0.0
C598 C 0.90354 0.08814 0.89761 0.0
C599 C 0.96638 0.21566 0.90645 0.0
C600 C 0.79527 0.9307 0.87935 0.0
C601 C 0.8209 0.96972 0.88345 0.0
C602 C 0.82326 0.05368 0.90501 0.0
C603 C 0.91094 0.15385 0.89735 0.0
C604 C 0.88679 0.11168 0.90047 0.0
C605 C 0.81377 -0.01271 0.89811 0.0
C606 C 0.83952 0.02987 0.90111 0.0
H607 H 0.94901 0.21461 0.86195 0.0
H608 H 0.89607 0.14925 0.86945 0.0
H609 H 0.83357 0.11241 0.90683 0.0
H610 H 0.72911 0.90852 0.913 0.0
H611 H 0.77468 0.97724 0.92037 0.0
C612 C 0.29899 0.11896 0.31436 0.0
C613 C 0.3289 0.13566 0.3272 0.0
C614 C 0.30448 0.13472 0.29745 0.0
C615 C 0.37737 0.18422 0.264 0.0
H616 H 0.28655 0.17582 0.23964 0.0
C617 C 0.33495 0.17057 0.18596 0.0
C618 C 0.30751 0.13047 0.1841 0.0
C619 C 0.34778 0.18683 0.203 0.0
C620 C 0.31274 0.17966 0.24624 0.0
H621 H 0.3875 0.18346 0.33266 0.0
H622 H 0.39734 0.21187 0.30241 0.0
H623 H 0.28935 0.17871 0.27202 0.0
H624 H 0.2742 0.07567 0.19835 0.0
H625 H 0.29668 0.10384 0.22766 0.0
H626 H 0.39888 0.18162 0.238 0.0
C627 C 0.36971 0.18603 0.30571 0.0
C628 C 0.31429 0.18109 0.26477 0.0
C629 C 0.3641 0.16998 0.32295 0.0
C630 C 0.29481 0.10677 0.19935 0.0
C631 C 0.30775 0.12278 0.21613 0.0
C632 C 0.37583 0.18292 0.24534 0.0
C633 C 0.33991 0.16816 0.29277 0.0
C634 C 0.34545 0.18094 0.27388 0.0
C635 C 0.33363 0.16293 0.21817 0.0
C636 C 0.34257 0.17868 0.23643 0.0
H637 H 0.27144 0.09256 0.31724 0.0
H638 H 0.28129 0.11958 0.28776 0.0
H639 H 0.4016 0.18387 0.27064 0.0
H640 H 0.34516 0.18944 0.1744 0.0
H641 H 0.3677 0.21798 0.20436 0.0
C642 C 0.74356 0.611 0.31646 0.0
C643 C 0.77745 0.62805 0.32705 0.0
C644 C 0.74352 0.59408 0.30012 0.0
C645 C 0.81597 0.62322 0.26638 0.0
H646 H 0.73301 0.54265 0.23773 0.0
C647 C 0.82325 0.64222 0.19143 0.0
C648 C 0.78807 0.63561 0.1837 0.0
C649 C 0.82298 0.62677 0.20818 0.0
C650 C 0.7565 0.56536 0.24553 0.0
H651 H 0.8361 0.63718 0.3301 0.0
H652 H 0.83614 0.60752 0.30154 0.0
H653 H 0.72845 0.53839 0.27023 0.0
H654 H 0.72498 0.60644 0.18665 0.0
H655 H 0.72419 0.58013 0.21604 0.0
H656 H 0.84245 0.65233 0.24217 0.0
C657 C 0.80959 0.60705 0.30581 0.0
C658 C 0.75398 0.56267 0.26413 0.0
C659 C 0.80947 0.6237 0.32221 0.0
C660 C 0.75237 0.6112 0.1923 0.0
C661 C 0.75206 0.59616 0.20917 0.0
C662 C 0.81819 0.62626 0.2479 0.0
C663 C 0.77767 0.59468 0.29409 0.0
C664 C 0.78333 0.59207 0.27472 0.0
C665 C 0.78755 0.60533 0.21771 0.0
C666 C 0.78803 0.59793 0.23717 0.0
H667 H 0.71881 0.61466 0.31986 0.0
H668 H 0.71855 0.5849 0.29137 0.0
H669 H 0.83859 0.6469 0.27415 0.0
H670 H 0.85116 0.66152 0.18508 0.0
H671 H 0.85082 0.63369 0.21408 0.0
C672 C 0.81878 0.1983 0.18974 0.0
C673 C 0.81222 0.16381 0.18138 0.0
C674 C 0.80511 0.19697 0.2071 0.0
C675 C 0.7917 0.13644 0.24557 0.0
H676 H 0.76325 0.20434 0.27076 0.0
C677 C 0.78958 0.13206 0.32017 0.0
C678 C 0.81358 0.16854 0.32811 0.0
C679 C 0.7756 0.12969 0.30293 0.0
C680 C 0.77106 0.18513 0.26385 0.0
H681 H 0.7832 0.10087 0.18341 0.0
H682 H 0.75789 0.09818 0.21332 0.0
H683 H 0.76249 0.20305 0.23803 0.0
H684 H 0.83955 0.23106 0.32505 0.0
H685 H 0.81564 0.22715 0.29457 0.0
H686 H 0.80206 0.11966 0.27094 0.0
C687 C 0.77427 0.12634 0.20682 0.0
C688 C 0.7706 0.18439 0.24517 0.0
C689 C 0.78838 0.12776 0.18967 0.0
C690 C 0.82058 0.20261 0.3192 0.0
C691 C 0.80693 0.2003 0.30177 0.0
C692 C 0.79214 0.13717 0.26404 0.0
C693 C 0.78473 0.16106 0.21616 0.0
C694 C 0.78106 0.16003 0.23585 0.0
C695 C 0.78622 0.16387 0.29313 0.0
C696 C 0.78197 0.16153 0.27346 0.0
H697 H 0.83755 0.22644 0.18357 0.0
H698 H 0.81366 0.22422 0.21392 0.0
H699 H 0.80135 0.11842 0.23889 0.0
H700 H 0.78411 0.10545 0.3268 0.0
H701 H 0.75904 0.10116 0.29677 0.0
C702 C 0.16413 0.3154 0.68888 0.0
C703 C 0.13981 0.32766 0.68112 0.0
C704 C 0.17861 0.32744 0.70603 0.0
C705 C 0.18221 0.38764 0.74499 0.0
H706 H 0.15347 0.29147 0.77022 0.0
C707 C 0.1319 0.35547 0.8185 0.0
C708 C 0.13823 0.32811 0.82751 0.0
C709 C 0.14596 0.3666 0.80113 0.0
C710 C 0.16274 0.31895 0.76348 0.0
H711 H 0.11366 0.36411 0.68427 0.0
H712 H 0.13809 0.38453 0.71458 0.0
H713 H 0.15424 0.29179 0.73817 0.0
H714 H 0.16666 0.29344 0.82651 0.0
H715 H 0.19278 0.31406 0.79657 0.0
H716 H 0.18884 0.41412 0.77067 0.0
C717 C 0.14688 0.36644 0.70735 0.0
C718 C 0.16317 0.31913 0.745 0.0
C719 C 0.13288 0.35481 0.69002 0.0
C720 C 0.1618 0.31486 0.81976 0.0
C721 C 0.17631 0.32635 0.80257 0.0
C722 C 0.18184 0.38748 0.76364 0.0
C723 C 0.168 0.35103 0.71586 0.0
C724 C 0.17254 0.3533 0.73549 0.0
C725 C 0.16652 0.35043 0.79268 0.0
C726 C 0.17172 0.35295 0.77307 0.0
H727 H 0.16955 0.29425 0.6822 0.0
H728 H 0.19554 0.31576 0.71209 0.0
H729 H 0.18944 0.41438 0.73801 0.0
H730 H 0.11321 0.36549 0.82425 0.0
H731 H 0.13775 0.38505 0.79387 0.0
C732 C 0.20655 0.83234 0.81772 0.0
C733 C 0.16967 0.82525 0.82355 0.0
C734 C 0.21045 0.81939 0.80088 0.0
C735 C 0.15393 0.75998 0.76147 0.0
H736 H 0.22938 0.85072 0.73478 0.0
C737 C 0.12616 0.80096 0.69307 0.0
C738 C 0.15762 0.82349 0.68159 0.0
C739 C 0.13252 0.78716 0.70906 0.0
C740 C 0.20893 0.82457 0.74197 0.0
H741 H 0.10773 0.79693 0.81735 0.0
H742 H 0.11413 0.77361 0.78828 0.0
H743 H 0.23213 0.8519 0.76703 0.0
H744 H 0.21971 0.8469 0.67687 0.0
H745 H 0.23124 0.82333 0.70515 0.0
H746 H 0.12899 0.73387 0.7363 0.0
C747 C 0.14013 0.78888 0.79649 0.0
C748 C 0.2105 0.82526 0.76053 0.0
C749 C 0.13638 0.80226 0.81313 0.0
C750 C 0.19498 0.82919 0.68551 0.0
C751 C 0.20157 0.81599 0.70173 0.0
C752 C 0.15233 0.75931 0.74288 0.0
C753 C 0.17743 0.79888 0.7898 0.0
C754 C 0.18193 0.79368 0.77051 0.0
C755 C 0.17069 0.79644 0.71403 0.0
C756 C 0.17873 0.79231 0.73297 0.0
H757 H 0.23266 0.85057 0.82549 0.0
H758 H 0.23954 0.82738 0.79612 0.0
H759 H 0.13183 0.73498 0.76879 0.0
H760 H 0.09715 0.79648 0.69029 0.0
H761 H 0.10812 0.77248 0.71823 0.0
C762 C 0.62115 0.76072 0.69366 0.0
C763 C 0.62775 0.78989 0.68129 0.0
C764 C 0.60584 0.76043 0.71041 0.0
C765 C 0.61196 0.82791 0.74358 0.0
H766 H 0.54123 0.7332 0.76924 0.0
C767 C 0.6227 0.82524 0.81924 0.0
C768 C 0.62563 0.79317 0.82516 0.0
C769 C 0.60682 0.82439 0.80245 0.0
C770 C 0.56099 0.76002 0.76233 0.0
H771 H 0.62282 0.84113 0.67632 0.0
H772 H 0.59653 0.84127 0.70611 0.0
H773 H 0.54332 0.73228 0.73684 0.0
H774 H 0.61279 0.73461 0.8189 0.0
H775 H 0.5857 0.73292 0.78976 0.0
H776 H 0.63232 0.85493 0.76893 0.0
C777 C 0.60259 0.81822 0.70263 0.0
C778 C 0.56193 0.75951 0.74375 0.0
C779 C 0.61734 0.81804 0.68563 0.0
C780 C 0.60989 0.75929 0.81474 0.0
C781 C 0.59436 0.75847 0.79798 0.0
C782 C 0.61142 0.82833 0.76219 0.0
C783 C 0.59748 0.7898 0.7153 0.0
C784 C 0.58868 0.79299 0.73423 0.0
C785 C 0.59429 0.79167 0.79122 0.0
C786 C 0.58727 0.79386 0.77184 0.0
H787 H 0.62958 0.7391 0.69064 0.0
H788 H 0.60298 0.73863 0.71995 0.0
H789 H 0.63308 0.85411 0.73661 0.0
H790 H 0.6354 0.85197 0.82697 0.0
H791 H 0.60664 0.85024 0.79784 0.0
C792 C 0.19187 0.91528 0.94652 0.0
C793 C 0.18737 0.87812 0.94906 0.0
C794 C 0.19376 0.93818 0.96114 0.0
C795 C 0.21874 0.94818 0.00902 0.0
H796 H 0.18638 0.02609 0.00801 0.0
C797 C 0.257 0.05309 0.06685 0.0
C798 C 0.28357 0.09098 0.06109 0.0
C799 C 0.23233 0.02454 0.05467 0.0
C800 C 0.19512 0.00412 0.00851 0.0
H801 H 0.17881 0.83466 0.96887 0.0
H802 H 0.18095 0.87375 0.99419 0.0
H803 H 0.1684 0.97946 0.9834 0.0
H804 H 0.30185 0.13064 0.03868 0.0
H805 H 0.25763 0.08133 0.01746 0.0
H806 H 0.24584 0.97303 0.03393 0.0
C807 C 0.18433 0.88604 0.98101 0.0
C808 C 0.1852 0.97768 0.99437 0.0
C809 C 0.18294 0.8635 0.96645 0.0
C810 C 0.28165 0.1014 0.04343 0.0
C811 C 0.25631 0.0732 0.0313 0.0
C812 C 0.22806 0.97409 0.02319 0.0
C813 C 0.19084 0.92412 0.97861 0.0
C814 C 0.19762 0.94987 0.99429 0.0
C815 C 0.23328 0.03401 0.0366 0.0
C816 C 0.21704 0.0028 0.02294 0.0
H817 H 0.19556 0.92721 0.9333 0.0
H818 H 0.19919 0.96748 0.95873 0.0
H819 H 0.22972 0.92796 0.00931 0.0
H820 H 0.25838 0.04484 0.08032 0.0
H821 H 0.21465 -0.00546 0.05909 0.0
C822 C 0.76222 0.70296 0.44439 0.0
C823 C 0.77364 0.67492 0.44688 0.0
C824 C 0.76342 0.72645 0.45865 0.0
C825 C 0.75517 0.71853 0.50742 0.0
H826 H 0.76442 0.82065 0.50429 0.0
C827 C 0.70102 0.77387 0.56487 0.0
C828 C 0.6726 0.78283 0.55904 0.0
C829 C 0.72726 0.77231 0.5527 0.0
C830 C 0.76203 0.79223 0.50541 0.0
H831 H 0.79829 0.65148 0.46557 0.0
H832 H 0.80192 0.69326 0.49017 0.0
H833 H 0.78512 0.79577 0.47918 0.0
H834 H 0.65197 0.80145 0.53648 0.0
H835 H 0.69805 0.79979 0.51539 0.0
H836 H 0.73061 0.71411 0.53325 0.0
C837 C 0.79098 0.69662 0.47748 0.0
C838 C 0.77372 0.7779 0.491 0.0
C839 C 0.78932 0.67296 0.46334 0.0
C840 C 0.6736 0.79437 0.54131 0.0
C841 C 0.70014 0.7935 0.52923 0.0
C842 C 0.74365 0.73286 0.5218 0.0
C843 C 0.77622 0.72227 0.4756 0.0
C844 C 0.76945 0.7404 0.49164 0.0
C845 C 0.72585 0.78043 0.53456 0.0
C846 C 0.74584 0.76939 0.5208 0.0
H847 H 0.74915 0.70427 0.43194 0.0
H848 H 0.75154 0.74566 0.45671 0.0
H849 H 0.75066 0.68922 0.50835 0.0
H850 H 0.70065 0.7647 0.57843 0.0
H851 H 0.74702 0.76255 0.55728 0.0
C852 C 0.03387 0.27184 0.9443 0.0
C853 C 0.07385 0.2843 0.94586 0.0
C854 C 0.00712 0.24641 0.95684 0.0
C855 C -0.00869 0.18632 0.99701 0.0
H856 H 0.94447 0.24551 0.01528 0.0
C857 C 0.86609 0.15658 0.04969 0.0
C858 C 0.88061 0.18436 0.06342 0.0
C859 C 0.89131 0.15722 0.03641 0.0
C860 C 0.95733 0.22869 0.01028 0.0
H861 H 0.11766 0.27942 0.96119 0.0
H862 H 0.07085 0.23489 0.98336 0.0
H863 H -0.01904 0.26511 0.98745 0.0
H864 H 0.93272 0.23268 0.07493 0.0
H865 H -0.02318 0.23451 0.05141 0.0
H866 H 0.96704 0.14985 0.0202 0.0
C867 C 0.05987 0.2437 0.97214 0.0
C868 C -0.02222 0.23955 0.99427 0.0
C869 C 0.08662 0.26912 0.95949 0.0
C870 C 0.92115 0.21038 0.06469 0.0
C871 C 0.94628 0.21152 0.05123 0.0
C872 C 0.97007 0.17496 0.01303 0.0
C873 C 0.02026 0.23393 0.97144 0.0
C874 C -0.00475 0.21874 0.9875 0.0
C875 C 0.93113 0.18615 0.03659 0.0
C876 C 0.95355 0.19659 0.01984 0.0
H877 H 0.02396 0.285 0.93447 0.0
H878 H -0.02325 0.23938 0.95602 0.0
H879 H 0.00472 0.16998 0.99208 0.0
H880 H 0.83476 0.13678 0.04833 0.0
H881 H 0.87901 0.13786 0.02508 0.0
C882 C 0.25656 0.05182 0.44661 0.0
C883 C 0.28489 0.09134 0.44896 0.0
C884 C 0.23404 0.02941 0.46108 0.0
C885 C 0.2461 0.02995 0.50964 0.0
H886 H 0.14491 0.93465 0.50775 0.0
C887 C 0.19617 0.9234 0.56803 0.0
C888 C 0.18546 0.88536 0.56273 0.0
C889 C 0.19716 0.95023 0.55558 0.0
C890 C 0.17311 0.96133 0.50852 0.0
H891 H 0.30967 0.13944 0.46763 0.0
H892 H 0.26908 0.10116 0.49261 0.0
H893 H 0.16692 0.97969 0.48248 0.0
H894 H 0.16497 0.84444 0.54076 0.0
H895 H 0.16672 0.89091 0.51907 0.0
H896 H 0.25317 0.01112 0.53525 0.0
C897 C 0.26497 0.08687 0.47986 0.0
C898 C 0.18578 -0.01292 0.49402 0.0
C899 C 0.28788 0.10898 0.46551 0.0
C900 C 0.17311 0.87366 0.54517 0.0
C901 C 0.17393 0.90028 0.53277 0.0
C902 C 0.23341 0.0044 0.5241 0.0
C903 C 0.23937 0.04634 0.4781 0.0
C904 C 0.22287 0.02134 0.49424 0.0
C905 C 0.18754 0.93934 0.53763 0.0
C906 C 0.19721 0.96931 0.52357 0.0
H907 H 0.25451 0.03743 0.43407 0.0
H908 H 0.21488 -0.00172 0.45919 0.0
H909 H 0.27522 0.05545 0.51024 0.0
H910 H 0.20689 0.93324 0.58135 0.0
H911 H 0.20752 0.98004 0.5598 0.0
C912 C 0.75557 0.7031 0.06888 0.0
C913 C 0.77969 0.68759 0.06455 0.0
C914 C 0.74965 0.72611 0.05656 0.0
C915 C 0.77753 0.78007 0.01455 0.0
H916 H 0.66685 0.71662 1.00308 0.0
C917 C 0.70199 0.78785 0.94863 0.0
C918 C 0.66314 0.78023 0.95032 0.0
C919 C 0.72257 0.78663 0.96364 0.0
C920 C 0.69765 0.73522 0.00629 0.0
H921 H 0.81888 0.68609 0.04475 0.0
H922 H 0.80946 0.7274 0.02337 0.0
H923 H 0.69341 0.69916 0.02829 0.0
H924 H 0.61719 0.76986 0.96925 0.0
H925 H 0.65301 0.76843 0.99517 0.0
H926 H 0.78158 0.81598 0.99224 0.0
C927 C 0.79529 0.72195 0.03625 0.0
C928 C 0.71283 0.72516 0.02074 0.0
C929 C 0.80072 0.69842 0.04847 0.0
C930 C 0.64682 0.77521 0.96742 0.0
C931 C 0.66728 0.77416 0.9823 0.0
C932 C 0.76216 0.79048 1.00006 0.0
C933 C 0.76804 0.73414 0.03982 0.0
C934 C 0.75278 0.7475 0.02508 0.0
C935 C 0.70456 0.77791 0.98051 0.0
C936 C 0.72194 0.76819 0.99585 0.0
H937 H 0.73808 0.69406 0.08092 0.0
H938 H 0.72833 0.73504 0.05955 0.0
H939 H 0.80857 0.79743 0.01756 0.0
H940 H 0.71541 0.79199 0.93563 0.0
H941 H 0.75138 0.78986 0.96185 0.0
C942 C 0.09515 0.28914 0.54384 0.0
C943 C 0.0778 0.28887 0.56018 0.0
C944 C 0.07308 0.26283 0.53044 0.0
C945 C 0.97266 0.17944 0.51894 0.0
H946 H -0.00532 0.23638 0.47449 0.0
C947 C 0.8585 0.16752 0.46866 0.0
C948 C 0.86835 0.17416 0.45052 0.0
C949 C 0.88467 0.16674 0.48091 0.0
C950 C -0.0114 0.21949 0.48661 0.0
H951 H 0.02488 0.25925 0.57598 0.0
H952 H -0.01459 0.2141 0.55235 0.0
H953 H 0.04071 0.26398 0.49882 0.0
H954 H 0.91038 0.17942 0.43067 0.0
H955 H 0.9576 0.18002 0.45226 0.0
H956 H 0.91857 0.13653 0.50685 0.0
C957 C 0.01634 0.2339 0.54989 0.0
C958 C 0.01512 0.23533 0.50068 0.0
C959 C 0.03887 0.25975 0.56349 0.0
C960 C 0.90281 0.17542 0.44462 0.0
C961 C 0.9296 0.17559 0.45696 0.0
C962 C 0.94578 0.16383 0.50487 0.0
C963 C 0.03272 0.23645 0.53288 0.0
C964 C 0.00714 0.21608 0.51722 0.0
C965 C 0.92148 0.1731 0.47532 0.0
C966 C 0.95305 0.18424 0.48872 0.0
H967 H 0.12532 0.31124 0.54105 0.0
H968 H 0.0872 0.26483 0.5178 0.0
H969 H 0.96575 0.16341 0.53133 0.0
H970 H 0.83173 0.1657 0.47359 0.0
H971 H 0.8775 0.16477 0.49493 0.0
C972 C 0.67995 0.11618 0.10634 0.0
C973 C 0.71028 0.14263 0.11735 0.0
C974 C 0.64105 0.10159 0.11136 0.0
C975 C 0.57334 0.09494 0.14726 0.0
H976 H 0.5144 0.09788 0.10659 0.0
C977 C 0.42901 0.10264 0.14142 0.0
C978 C 0.40615 0.08199 0.12667 0.0
C979 C 0.46162 0.09938 0.14606 0.0
C980 C 0.53026 0.09623 0.11803 0.0
H981 H 0.72475 0.1736 0.14247 0.0
H982 H 0.65607 0.1496 0.15091 0.0
H983 H 0.58231 0.11575 0.10283 0.0
H984 H 0.39464 0.03756 0.10703 0.0
H985 H 0.45067 0.03063 0.11558 0.0
H986 H 0.52059 0.07716 0.16252 0.0
C987 C 0.66231 0.13916 0.1387 0.0
C988 C 0.56918 0.10644 0.11588 0.0
C989 C 0.70145 0.15299 0.13386 0.0
C990 C 0.41223 0.05379 0.11838 0.0
C991 C 0.44409 0.04981 0.12332 0.0
C992 C 0.53398 0.08502 0.14947 0.0
C993 C 0.63183 0.11434 0.12716 0.0
C994 C 0.59092 0.10495 0.13031 0.0
C995 C 0.47089 0.07511 0.13606 0.0
C996 C 0.51205 0.08466 0.13469 0.0
H997 H 0.68635 0.10757 0.09365 0.0
H998 H 0.61811 0.0816 0.10244 0.0
H999 H 0.58972 0.09416 0.15866 0.0
H1000 H 0.42458 0.12464 0.14789 0.0
H1001 H 0.48199 0.11922 0.1559 0.0
C1002 C 0.64521 0.52614 0.3652 0.0
C1003 C 0.64409 0.55316 0.3769 0.0
C1004 C 0.61063 0.49171 0.36101 0.0
C1005 C 0.51957 0.43089 0.38547 0.0
H1006 H 0.50288 0.35536 0.34867 0.0
C1007 C 0.39787 0.26924 0.38931 0.0
C1008 C 0.41275 0.24366 0.38862 0.0
C1009 C 0.42183 0.30845 0.38469 0.0
C1010 C 0.50718 0.37638 0.35894 0.0
H1011 H 0.60667 0.56932 0.39119 0.0
H1012 H 0.54568 0.51072 0.38267 0.0
H1013 H 0.54987 0.42476 0.34362 0.0
H1014 H 0.46329 0.2378 0.38228 0.0
H1015 H 0.50498 0.30642 0.37355 0.0
H1016 H 0.47726 0.38246 0.40081 0.0
C1017 C 0.57319 0.51472 0.37753 0.0
C1018 C 0.534 0.416 0.35609 0.0
C1019 C 0.60791 0.5485 0.38222 0.0
C1020 C 0.45144 0.25731 0.38289 0.0
C1021 C 0.47505 0.29626 0.3778 0.0
C1022 C 0.4924 0.39156 0.38815 0.0
C1023 C 0.57455 0.48443 0.36826 0.0
C1024 C 0.54114 0.44368 0.3695 0.0
C1025 C 0.4605 0.32215 0.37884 0.0
C1026 C 0.48655 0.36397 0.37507 0.0
H1027 H 0.6731 0.52936 0.36106 0.0
H1028 H 0.61302 0.46932 0.35376 0.0
H1029 H 0.52506 0.45084 0.39639 0.0
H1030 H 0.36814 0.25913 0.39386 0.0
H1031 H 0.41028 0.32816 0.38573 0.0
C1032 C 0.83902 0.30532 0.14027 0.0
C1033 C 0.86595 0.30982 0.12693 0.0
C1034 C 0.83816 0.33789 0.14684 0.0
C1035 C 0.8872 0.4455 0.14739 0.0
H1036 H 0.78701 0.42954 0.13054 0.0
C1037 C 0.82861 0.55795 0.13855 0.0
C1038 C 0.82243 0.56014 0.12025 0.0
C1039 C 0.83845 0.53059 0.14485 0.0
C1040 C 0.81472 0.43418 0.13574 0.0
H1041 H 0.91509 0.35113 0.111 0.0
H1042 H 0.91472 0.40861 0.123 0.0
H1043 H 0.79653 0.37355 0.13395 0.0
H1044 H 0.82505 0.53793 0.09415 0.0
H1045 H 0.84177 0.49036 0.1052 0.0
H1046 H 0.90581 0.50676 0.14811 0.0
C1047 C 0.89418 0.38003 0.12832 0.0
C1048 C 0.82014 0.40222 0.13778 0.0
C1049 C 0.89435 0.34732 0.1214 0.0
C1050 C 0.82905 0.53664 0.10833 0.0
C1051 C 0.83865 0.50944 0.1146 0.0
C1052 C 0.88153 0.47758 0.1456 0.0
C1053 C 0.86479 0.37536 0.14038 0.0
C1054 C 0.85689 0.40778 0.14293 0.0
C1055 C 0.84215 0.50538 0.13289 0.0
C1056 C 0.84574 0.4721 0.13907 0.0
H1057 H 0.81649 0.2764 0.14448 0.0
H1058 H 0.81504 0.3336 0.15601 0.0
H1059 H 0.91578 0.45034 0.15134 0.0
H1060 H 0.82371 0.57571 0.14804 0.0
H1061 H 0.84112 0.52772 0.15902 0.0
C1062 C 0.4257 0.10284 0.36475 0.0
C1063 C 0.40428 0.07825 0.37894 0.0
C1064 C 0.46082 0.10529 0.35935 0.0
C1065 C 0.53257 0.07518 0.361 0.0
H1066 H 0.59555 0.1666 0.39021 0.0
C1067 C 0.68775 0.11717 0.38669 0.0
C1068 C 0.71387 0.15666 0.39034 0.0
C1069 C 0.64954 0.10534 0.38097 0.0
C1070 C 0.57903 0.14175 0.38154 0.0
H1071 H 0.39877 0.03265 0.39666 0.0
H1072 H 0.45975 0.03619 0.38681 0.0
H1073 H 0.52743 0.14617 0.3846 0.0
H1074 H 0.72268 0.21523 0.38973 0.0
H1075 H 0.6574 0.19534 0.37864 0.0
H1076 H 0.58442 0.0709 0.35779 0.0
C1077 C 0.44971 0.05379 0.38006 0.0
C1078 C 0.53987 0.12999 0.37843 0.0
C1079 C 0.41509 0.05199 0.38578 0.0
C1080 C 0.70248 0.18446 0.38728 0.0
C1081 C 0.66497 0.17293 0.38105 0.0
C1082 C 0.57234 0.08755 0.36375 0.0
C1083 C 0.47405 0.08238 0.36776 0.0
C1084 C 0.51633 0.09649 0.36834 0.0
C1085 C 0.63749 0.13309 0.3784 0.0
C1086 C 0.59593 0.12079 0.37425 0.0
H1087 H 0.41797 0.12347 0.35931 0.0
H1088 H 0.47959 0.12789 0.35001 0.0
H1089 H 0.51446 0.04889 0.35338 0.0
H1090 H 0.69634 0.09543 0.38896 0.0
H1091 H 0.62918 0.07441 0.37925 0.0
C1092 C 0.40177 0.27823 0.11198 0.0
C1093 C 0.40433 0.24931 0.12153 0.0
C1094 C 0.42538 0.31734 0.11657 0.0
C1095 C 0.49741 0.3873 0.1491 0.0
H1096 H 0.5441 0.44594 0.10591 0.0
C1097 C 0.64842 0.52864 0.1401 0.0
C1098 C 0.65092 0.55243 0.12575 0.0
C1099 C 0.61213 0.49649 0.14474 0.0
C1100 C 0.53074 0.43041 0.11813 0.0
H1101 H 0.43172 0.23729 0.14367 0.0
H1102 H 0.47483 0.30644 0.15134 0.0
H1103 H 0.49254 0.37874 0.10386 0.0
H1104 H 0.61817 0.56567 0.1067 0.0
H1105 H 0.55445 0.51068 0.11532 0.0
H1106 H 0.53807 0.43944 0.16326 0.0
C1107 C 0.45372 0.29893 0.14069 0.0
C1108 C 0.50111 0.39173 0.11695 0.0
C1109 C 0.4293 0.25953 0.13629 0.0
C1110 C 0.61663 0.54722 0.11768 0.0
C1111 C 0.58037 0.51584 0.12262 0.0
C1112 C 0.52763 0.42641 0.15029 0.0
C1113 C 0.45293 0.32824 0.13042 0.0
C1114 C 0.48378 0.36975 0.13236 0.0
C1115 C 0.57828 0.48845 0.13513 0.0
C1116 C 0.54422 0.44832 0.13475 0.0
H1117 H 0.38253 0.27064 0.10055 0.0
H1118 H 0.42349 0.33923 0.10867 0.0
H1119 H 0.48477 0.37087 0.1612 0.0
H1120 H 0.67484 0.53249 0.14647 0.0
H1121 H 0.61134 0.47589 0.15445 0.0
C1122 C 0.8168 0.53252 0.39733 0.0
C1123 C 0.81113 0.55633 0.38526 0.0
C1124 C 0.82714 0.50567 0.39131 0.0
C1125 C 0.87426 0.47526 0.36267 0.0
H1126 H 0.78954 0.37118 0.37445 0.0
C1127 C 0.87139 0.32227 0.37036 0.0
C1128 C 0.86969 0.3166 0.38891 0.0
C1129 C 0.86712 0.35269 0.36313 0.0
C1130 C 0.81304 0.39981 0.37047 0.0
H1131 H 0.81476 0.5728 0.35751 0.0
H1132 H 0.83333 0.52516 0.34691 0.0
H1133 H 0.7772 0.42589 0.37405 0.0
H1134 H 0.86447 0.33997 0.41434 0.0
H1135 H 0.85647 0.39178 0.40172 0.0
H1136 H 0.911 0.44947 0.36094 0.0
C1137 C 0.82935 0.52756 0.36102 0.0
C1138 C 0.80603 0.43103 0.37028 0.0
C1139 C 0.81891 0.55474 0.36709 0.0
C1140 C 0.86605 0.34328 0.40002 0.0
C1141 C 0.86125 0.37295 0.39283 0.0
C1142 C 0.88131 0.44386 0.36286 0.0
C1143 C 0.83218 0.50206 0.3731 0.0
C1144 C 0.83702 0.46919 0.36727 0.0
C1145 C 0.8608 0.37731 0.3744 0.0
C1146 C 0.85114 0.40637 0.36764 0.0
H1147 H 0.81162 0.53345 0.41143 0.0
H1148 H 0.82968 0.4865 0.40084 0.0
H1149 H 0.89859 0.50461 0.36055 0.0
H1150 H 0.87404 0.30217 0.36145 0.0
H1151 H 0.86698 0.35588 0.34883 0.0
C1152 C 0.12505 0.70887 0.63853 0.0
C1153 C 0.13179 0.71826 0.62034 0.0
C1154 C 0.11387 0.67097 0.64433 0.0
C1155 C 0.13317 0.59508 0.63234 0.0
H1156 H 0.03689 0.51676 0.65496 0.0
C1157 C 0.10672 0.44222 0.64164 0.0
C1158 C 0.07731 0.41821 0.62953 0.0
C1159 C 0.10943 0.47698 0.64753 0.0
C1160 C 0.0642 0.53871 0.64898 0.0
H1161 H 0.12845 0.69472 0.5939 0.0
H1162 H 0.10924 0.62916 0.60404 0.0
H1163 H 0.04879 0.58372 0.65078 0.0
H1164 H 0.02556 0.40903 0.61539 0.0
H1165 H 0.02907 0.46908 0.62641 0.0
H1166 H 0.14818 0.55033 0.62984 0.0
C1167 C 0.11313 0.65105 0.61378 0.0
C1168 C 0.07096 0.57676 0.64661 0.0
C1169 C 0.12408 0.68854 0.60802 0.0
C1170 C 0.04815 0.42704 0.62489 0.0
C1171 C 0.05018 0.46127 0.63121 0.0
C1172 C 0.12681 0.55752 0.63499 0.0
C1173 C 0.1094 0.64237 0.63198 0.0
C1174 C 0.10485 0.60468 0.63768 0.0
C1175 C 0.08215 0.48757 0.6417 0.0
C1176 C 0.09175 0.52868 0.64282 0.0
H1177 H 0.13085 0.73127 0.64831 0.0
H1178 H 0.11102 0.66466 0.65844 0.0
H1179 H 0.15951 0.61625 0.62541 0.0
H1180 H 0.12995 0.43623 0.64508 0.0
H1181 H 0.13454 0.49704 0.65545 0.0
C1182 C 0.33089 0.89748 0.88381 0.0
C1183 C 0.29675 0.8618 0.8803 0.0
C1184 C 0.36773 0.90178 0.88013 0.0
C1185 C 0.41777 0.85384 0.85838 0.0
H1186 H 0.47822 0.88084 0.90205 0.0
C1187 C 0.5086 0.78508 0.88061 0.0
C1188 C 0.54641 0.80977 0.88732 0.0
C1189 C 0.48429 0.80009 0.87631 0.0
C1190 C 0.46221 0.87407 0.88963 0.0
H1191 H 0.27318 0.80414 0.86885 0.0
H1192 H 0.33716 0.81161 0.86215 0.0
H1193 H 0.42458 0.89457 0.89921 0.0
H1194 H 0.58882 0.86906 0.89496 0.0
H1195 H 0.54533 0.89526 0.88814 0.0
H1196 H 0.45384 0.83082 0.84936 0.0
C1197 C 0.33602 0.83626 0.86778 0.0
C1198 C 0.43164 0.8821 0.88794 0.0
C1199 C 0.29942 0.83177 0.87174 0.0
C1200 C 0.55975 0.84969 0.88967 0.0
C1201 C 0.535 0.86456 0.88581 0.0
C1202 C 0.44817 0.84557 0.86012 0.0
C1203 C 0.37056 0.87062 0.87266 0.0
C1204 C 0.40827 0.87084 0.87255 0.0
C1205 C 0.49713 0.83986 0.87906 0.0
C1206 C 0.46978 0.85453 0.87598 0.0
H1207 H 0.32916 0.92092 0.89044 0.0
H1208 H 0.39394 0.92864 0.88391 0.0
H1209 H 0.40043 0.84518 0.84631 0.0
H1210 H 0.49792 0.75419 0.87864 0.0
H1211 H 0.45501 0.78038 0.87134 0.0
C1212 C 0.52494 0.64882 0.63917 0.0
C1213 C 0.54731 0.64929 0.62449 0.0
C1214 C 0.49115 0.61406 0.64399 0.0
C1215 C 0.4205 0.5414 0.61641 0.0
H1216 H 0.35865 0.48778 0.65803 0.0
C1217 C 0.26657 0.41644 0.60688 0.0
C1218 C 0.23726 0.41577 0.61762 0.0
C1219 C 0.30585 0.43989 0.61149 0.0
C1220 C 0.37569 0.50273 0.64634 0.0
H1221 H 0.55668 0.61394 0.60534 0.0
H1222 H 0.49871 0.55293 0.61426 0.0
H1223 H 0.42882 0.53714 0.66136 0.0
H1224 H 0.22475 0.43736 0.64178 0.0
H1225 H 0.29422 0.48048 0.64948 0.0
H1226 H 0.36814 0.50947 0.60139 0.0
C1227 C 0.50643 0.57929 0.62171 0.0
C1228 C 0.41567 0.53059 0.64825 0.0
C1229 C 0.53948 0.61406 0.61659 0.0
C1230 C 0.24734 0.43764 0.6334 0.0
C1231 C 0.28689 0.46199 0.63783 0.0
C1232 C 0.38099 0.51425 0.61454 0.0
C1233 C 0.48019 0.57979 0.63427 0.0
C1234 C 0.43844 0.54938 0.63317 0.0
C1235 C 0.31651 0.4641 0.62661 0.0
C1236 C 0.35826 0.49392 0.62936 0.0
H1237 H 0.53066 0.67591 0.6454 0.0
H1238 H 0.47135 0.6151 0.65373 0.0
H1239 H 0.43699 0.5568 0.60466 0.0
H1240 H 0.25908 0.39934 0.59476 0.0
H1241 H 0.32801 0.44011 0.60284 0.0
C1242 C 0.14066 0.71142 0.86845 0.0
C1243 C 0.12442 0.71768 0.88395 0.0
C1244 C 0.13246 0.67366 0.86399 0.0
C1245 C 0.11331 0.58733 0.88744 0.0
H1246 H 0.06913 0.52534 0.84472 0.0
C1247 C 0.05382 0.42949 0.89301 0.0
C1248 C 0.07721 0.41762 0.88401 0.0
C1249 C 0.05277 0.46237 0.88729 0.0
C1250 C 0.08171 0.54264 0.85661 0.0
H1251 H 0.08453 0.68939 0.90603 0.0
H1252 H 0.07017 0.62388 0.89819 0.0
H1253 H 0.08365 0.59388 0.84562 0.0
H1254 H 0.11401 0.42715 0.86092 0.0
H1255 H 0.11354 0.48618 0.85132 0.0
H1256 H 0.11104 0.53679 0.89865 0.0
C1257 C 0.08954 0.64806 0.88966 0.0
C1258 C 0.09011 0.58158 0.8571 0.0
C1259 C 0.09774 0.68549 0.89412 0.0
C1260 C 0.09571 0.436 0.868 0.0
C1261 C 0.09537 0.46958 0.86247 0.0
C1262 C 0.10496 0.5489 0.88696 0.0
C1263 C 0.10794 0.64204 0.87498 0.0
C1264 C 0.10462 0.60353 0.8728 0.0
C1265 C 0.07599 0.48427 0.87283 0.0
C1266 C 0.08774 0.52583 0.87184 0.0
H1267 H 0.16146 0.73583 0.86042 0.0
H1268 H 0.14702 0.66952 0.85265 0.0
H1269 H 0.12543 0.6041 0.89952 0.0
H1270 H 0.03912 0.4154 0.9053 0.0
H1271 H 0.03731 0.47317 0.89532 0.0
C1272 C 0.33718 0.91008 0.63072 0.0
C1273 C 0.30125 0.87596 0.63376 0.0
C1274 C 0.37224 0.91188 0.63575 0.0
C1275 C 0.41251 0.85021 0.65433 0.0
H1276 H 0.48066 0.89185 0.61314 0.0
C1277 C 0.49799 0.78356 0.62135 0.0
C1278 C 0.53801 0.8089 0.61788 0.0
C1279 C 0.47478 0.79816 0.62805 0.0
C1280 C 0.46236 0.88068 0.6249 0.0
H1281 H 0.27268 0.81864 0.64582 0.0
H1282 H 0.3333 0.82059 0.65379 0.0
H1283 H 0.43034 0.90898 0.61815 0.0
H1284 H 0.58553 0.86895 0.61857 0.0
H1285 H 0.54414 0.89503 0.62943 0.0
H1286 H 0.44286 0.81892 0.65987 0.0
C1287 C 0.33529 0.84664 0.64809 0.0
C1288 C 0.43358 0.89076 0.62793 0.0
C1289 C 0.30032 0.84535 0.64349 0.0
C1290 C 0.55468 0.84902 0.62123 0.0
C1291 C 0.53116 0.86382 0.62744 0.0
C1292 C 0.44081 0.83945 0.65103 0.0
C1293 C 0.37176 0.87889 0.64316 0.0
C1294 C 0.40745 0.87482 0.64241 0.0
C1295 C 0.49108 0.83844 0.63093 0.0
C1296 C 0.4653 0.85396 0.63606 0.0
H1297 H 0.33832 0.93399 0.6232 0.0
H1298 H 0.39972 0.93786 0.63241 0.0
H1299 H 0.39356 0.83791 0.66581 0.0
H1300 H 0.48473 0.75243 0.61895 0.0
H1301 H 0.44382 0.77815 0.63044 0.0
C1302 C 0.5359 0.61609 0.88453 0.0
C1303 C 0.54984 0.65347 0.87724 0.0
C1304 C 0.49991 0.58485 0.87906 0.0
C1305 C 0.42107 0.52391 0.85954 0.0
H1306 H 0.35092 0.55085 0.88402 0.0
C1307 C 0.25186 0.41922 0.87293 0.0
C1308 C 0.24297 0.41834 0.89113 0.0
C1309 C 0.28927 0.44645 0.86653 0.0
C1310 C 0.36998 0.54313 0.87684 0.0
H1311 H 0.53916 0.68671 0.85731 0.0
H1312 H 0.47529 0.63217 0.84831 0.0
H1313 H 0.41903 0.60128 0.87856 0.0
H1314 H 0.26695 0.44361 0.91696 0.0
H1315 H 0.33166 0.49076 0.90577 0.0
H1316 H 0.37204 0.46523 0.85849 0.0
C1317 C 0.49266 0.62709 0.85796 0.0
C1318 C 0.40874 0.57195 0.87361 0.0
C1319 C 0.52914 0.65818 0.86314 0.0
C1320 C 0.27262 0.44382 0.90284 0.0
C1321 C 0.30964 0.47095 0.89646 0.0
C1322 C 0.38186 0.49508 0.86245 0.0
C1323 C 0.47718 0.59072 0.86643 0.0
C1324 C 0.43486 0.56227 0.8655 0.0
C1325 C 0.318 0.47315 0.87823 0.0
C1326 C 0.35658 0.50426 0.87179 0.0
H1327 H 0.55134 0.61169 0.89539 0.0
H1328 H 0.48816 0.55709 0.88591 0.0
H1329 H 0.44102 0.51596 0.8534 0.0
H1330 H 0.22954 0.40006 0.86357 0.0
H1331 H 0.29528 0.44765 0.85241 0.0
loop_
_geom_bond_atom_site_label_1
_geom_bond_atom_site_label_2
_geom_bond_distance
_geom_bond_site_symmetry_2
_ccdc_geom_bond_type
O0 Mg1 1.990 . S
O0 C14 1.253 . S
Mg1 O0 1.990 . S
Mg1 O4 2.180 . S
Mg1 O5 2.117 . S
Mg1 O19 2.030 . S
O2 Mg3 2.072 . S
O2 C14 1.260 . S
Mg3 O2 2.072 . S
Mg3 O4 2.099 . S
Mg3 O6 2.079 . S
Mg3 O7 2.072 . S
Mg3 O9 2.099 . S
Mg3 O20 2.079 . S
O4 Mg1 2.180 . S
O4 Mg3 2.099 . S
O4 C15 1.279 . S
O5 Mg1 2.117 . S
O5 C15 1.250 . S
O6 Mg3 2.079 . S
O6 C16 1.264 . S
O7 Mg3 2.072 . S
O7 C17 1.260 . S
Mg8 O9 2.180 . S
Mg8 O10 2.030 . S
Mg8 O11 1.990 . S
Mg8 O12 2.117 . S
O9 Mg3 2.099 . S
O9 Mg8 2.180 . S
O9 C18 1.279 . S
O10 Mg8 2.030 . S
O10 C16 1.248 . S
O11 Mg8 1.990 . S
O11 C17 1.253 . S
O12 Mg8 2.117 . S
O12 C18 1.250 . S
C13 O19 1.248 . S
C13 O20 1.264 . S
C14 O0 1.253 . S
C14 O2 1.260 . S
C15 O4 1.279 . S
C15 O5 1.250 . S
C16 O6 1.264 . S
C16 O10 1.248 . S
C17 O7 1.260 . S
C17 O11 1.253 . S
C18 O9 1.279 . S
C18 O12 1.250 . S
O19 Mg1 2.030 . S
O19 C13 1.248 . S
O20 Mg3 2.079 . S
O20 C13 1.264 . S
O21 Mg22 1.990 . S
O21 C35 1.253 . S
Mg22 O21 1.990 . S
Mg22 O25 2.180 . S
Mg22 O26 2.117 . S
Mg22 O40 2.030 . S
O23 Mg24 2.072 . S
O23 C35 1.260 . S
Mg24 O23 2.072 . S
Mg24 O25 2.099 . S
Mg24 O27 2.079 . S
Mg24 O28 2.072 . S
Mg24 O30 2.099 . S
Mg24 O41 2.079 . S
O25 Mg22 2.180 . S
O25 Mg24 2.099 . S
O25 C36 1.279 . S
O26 Mg22 2.117 . S
O26 C36 1.250 . S
O27 Mg24 2.079 . S
O27 C37 1.264 . S
O28 Mg24 2.072 . S
O28 C38 1.260 . S
Mg29 O30 2.180 . S
Mg29 O31 2.030 . S
Mg29 O32 1.990 . S
Mg29 O33 2.117 . S
O30 Mg24 2.099 . S
O30 Mg29 2.180 . S
O30 C39 1.279 . S
O31 Mg29 2.030 . S
O31 C37 1.248 . S
O32 Mg29 1.990 . S
O32 C38 1.253 . S
O33 Mg29 2.117 . S
O33 C39 1.250 . S
C34 O40 1.248 . S
C34 O41 1.264 . S
C35 O21 1.253 . S
C35 O23 1.260 . S
C36 O25 1.279 . S
C36 O26 1.250 . S
C37 O27 1.264 . S
C37 O31 1.248 . S
C38 O28 1.260 . S
C38 O32 1.253 . S
C39 O30 1.279 . S
C39 O33 1.250 . S
O40 Mg22 2.030 . S
O40 C34 1.248 . S
O41 Mg24 2.079 . S
O41 C34 1.264 . S
O42 Mg43 1.990 . S
O42 C56 1.253 . S
Mg43 O42 1.990 . S
Mg43 O46 2.180 . S
Mg43 O47 2.117 . S
Mg43 O61 2.030 . S
O44 Mg45 2.072 . S
O44 C56 1.260 . S
Mg45 O44 2.072 . S
Mg45 O46 2.099 . S
Mg45 O48 2.079 . S
Mg45 O49 2.072 . S
Mg45 O51 2.099 . S
Mg45 O62 2.079 . S
O46 Mg43 2.180 . S
O46 Mg45 2.099 . S
O46 C57 1.279 . S
O47 Mg43 2.117 . S
O47 C57 1.250 . S
O48 Mg45 2.079 . S
O48 C58 1.264 . S
O49 Mg45 2.072 . S
O49 C59 1.260 . S
Mg50 O51 2.180 . S
Mg50 O52 2.030 . S
Mg50 O53 1.990 . S
Mg50 O54 2.117 . S
O51 Mg45 2.099 . S
O51 Mg50 2.180 . S
O51 C60 1.279 . S
O52 Mg50 2.030 . S
O52 C58 1.248 . S
O53 Mg50 1.990 . S
O53 C59 1.253 . S
O54 Mg50 2.117 . S
O54 C60 1.250 . S
C55 O61 1.248 . S
C55 O62 1.264 . S
C56 O42 1.253 . S
C56 O44 1.260 . S
C57 O46 1.279 . S
C57 O47 1.250 . S
C58 O48 1.264 . S
C58 O52 1.248 . S
C59 O49 1.260 . S
C59 O53 1.253 . S
C60 O51 1.279 . S
C60 O54 1.250 . S
O61 Mg43 2.030 . S
O61 C55 1.248 . S
O62 Mg45 2.079 . S
O62 C55 1.264 . S
O63 Mg64 1.990 . S
O63 C77 1.253 . S
Mg64 O63 1.990 . S
Mg64 O67 2.180 . S
Mg64 O68 2.117 . S
Mg64 O82 2.030 . S
O65 Mg66 2.072 . S
O65 C77 1.260 . S
Mg66 O65 2.072 . S
Mg66 O67 2.099 . S
Mg66 O69 2.079 . S
Mg66 O70 2.072 . S
Mg66 O72 2.099 . S
Mg66 O83 2.079 . S
O67 Mg64 2.180 . S
O67 Mg66 2.099 . S
O67 C78 1.279 . S
O68 Mg64 2.117 . S
O68 C78 1.250 . S
O69 Mg66 2.079 . S
O69 C79 1.264 . S
O70 Mg66 2.072 . S
O70 C80 1.260 . S
Mg71 O72 2.180 . S
Mg71 O73 2.030 . S
Mg71 O74 1.990 . S
Mg71 O75 2.117 . S
O72 Mg66 2.099 . S
O72 Mg71 2.180 . S
O72 C81 1.279 . S
O73 Mg71 2.030 . S
O73 C79 1.248 . S
O74 Mg71 1.990 . S
O74 C80 1.253 . S
O75 Mg71 2.117 . S
O75 C81 1.250 . S
C76 O82 1.248 . S
C76 O83 1.264 . S
C77 O63 1.253 . S
C77 O65 1.260 . S
C78 O67 1.279 . S
C78 O68 1.250 . S
C79 O69 1.264 . S
C79 O73 1.248 . S
C80 O70 1.260 . S
C80 O74 1.253 . S
C81 O72 1.279 . S
C81 O75 1.250 . S
O82 Mg64 2.030 . S
O82 C76 1.248 . S
O83 Mg66 2.079 . S
O83 C76 1.264 . S
O84 Mg85 1.990 . S
O84 C98 1.253 . S
Mg85 O84 1.990 . S
Mg85 O88 2.180 . S
Mg85 O89 2.117 . S
Mg85 O103 2.030 . S
O86 Mg87 2.072 . S
O86 C98 1.260 . S
Mg87 O86 2.072 . S
Mg87 O88 2.099 . S
Mg87 O90 2.079 . S
Mg87 O91 2.072 . S
Mg87 O93 2.099 . S
Mg87 O104 2.079 . S
O88 Mg85 2.180 . S
O88 Mg87 2.099 . S
O88 C99 1.279 . S
O89 Mg85 2.117 . S
O89 C99 1.250 . S
O90 Mg87 2.079 . S
O90 C100 1.264 . S
O91 Mg87 2.072 . S
O91 C101 1.260 . S
Mg92 O93 2.180 . S
Mg92 O94 2.030 . S
Mg92 O95 1.990 . S
Mg92 O96 2.117 . S
O93 Mg87 2.099 . S
O93 Mg92 2.180 . S
O93 C102 1.279 . S
O94 Mg92 2.030 . S
O94 C100 1.248 . S
O95 Mg92 1.990 . S
O95 C101 1.253 . S
O96 Mg92 2.117 . S
O96 C102 1.250 . S
C97 O103 1.248 . S
C97 O104 1.264 . S
C98 O84 1.253 . S
C98 O86 1.260 . S
C99 O88 1.279 . S
C99 O89 1.250 . S
C100 O90 1.264 . S
C100 O94 1.248 . S
C101 O91 1.260 . S
C101 O95 1.253 . S
C102 O93 1.279 . S
C102 O96 1.250 . S
O103 Mg85 2.030 . S
O103 C97 1.248 . S
O104 Mg87 2.079 . S
O104 C97 1.264 . S
O105 Mg106 1.990 . S
O105 C119 1.253 . S
Mg106 O105 1.990 . S
Mg106 O109 2.180 . S
Mg106 O110 2.117 . S
Mg106 O124 2.030 . S
O107 Mg108 2.072 . S
O107 C119 1.260 . S
Mg108 O107 2.072 . S
Mg108 O109 2.099 . S
Mg108 O111 2.079 . S
Mg108 O112 2.072 . S
Mg108 O114 2.099 . S
Mg108 O125 2.079 . S
O109 Mg106 2.180 . S
O109 Mg108 2.099 . S
O109 C120 1.279 . S
O110 Mg106 2.117 . S
O110 C120 1.250 . S
O111 Mg108 2.079 . S
O111 C121 1.264 . S
O112 Mg108 2.072 . S
O112 C122 1.260 . S
Mg113 O114 2.180 . S
Mg113 O115 2.030 . S
Mg113 O116 1.990 . S
Mg113 O117 2.117 . S
O114 Mg108 2.099 . S
O114 Mg113 2.180 . S
O114 C123 1.279 . S
O115 Mg113 2.030 . S
O115 C121 1.248 . S
O116 Mg113 1.990 . S
O116 C122 1.253 . S
O117 Mg113 2.117 . S
O117 C123 1.250 . S
C118 O124 1.248 . S
C118 O125 1.264 . S
C119 O105 1.253 . S
C119 O107 1.260 . S
C120 O109 1.279 . S
C120 O110 1.250 . S
C121 O111 1.264 . S
C121 O115 1.248 . S
C122 O112 1.260 . S
C122 O116 1.253 . S
C123 O114 1.279 . S
C123 O117 1.250 . S
O124 Mg106 2.030 . S
O124 C118 1.248 . S
O125 Mg108 2.079 . S
O125 C118 1.264 . S
O126 Mg127 1.990 . S
O126 C140 1.253 . S
Mg127 O126 1.990 . S
Mg127 O130 2.180 . S
Mg127 O131 2.117 . S
Mg127 O145 2.030 . S
O128 Mg129 2.072 . S
O128 C140 1.260 . S
Mg129 O128 2.072 . S
Mg129 O130 2.099 . S
Mg129 O132 2.079 . S
Mg129 O133 2.072 . S
Mg129 O135 2.099 . S
Mg129 O146 2.079 . S
O130 Mg127 2.180 . S
O130 Mg129 2.099 . S
O130 C141 1.279 . S
O131 Mg127 2.117 . S
O131 C141 1.250 . S
O132 Mg129 2.079 . S
O132 C142 1.264 . S
O133 Mg129 2.072 . S
O133 C143 1.260 . S
Mg134 O135 2.180 . S
Mg134 O136 2.030 . S
Mg134 O137 1.990 . S
Mg134 O138 2.117 . S
O135 Mg129 2.099 . S
O135 Mg134 2.180 . S
O135 C144 1.279 . S
O136 Mg134 2.030 . S
O136 C142 1.248 . S
O137 Mg134 1.990 . S
O137 C143 1.253 . S
O138 Mg134 2.117 . S
O138 C144 1.250 . S
C139 O145 1.248 . S
C139 O146 1.264 . S
C140 O126 1.253 . S
C140 O128 1.260 . S
C141 O130 1.279 . S
C141 O131 1.250 . S
C142 O132 1.264 . S
C142 O136 1.248 . S
C143 O133 1.260 . S
C143 O137 1.253 . S
C144 O135 1.279 . S
C144 O138 1.250 . S
O145 Mg127 2.030 . S
O145 C139 1.248 . S
O146 Mg129 2.079 . S
O146 C139 1.264 . S
O147 Mg148 1.990 . S
O147 C161 1.253 . S
Mg148 O147 1.990 . S
Mg148 O151 2.180 . S
Mg148 O152 2.117 . S
Mg148 O166 2.030 . S
O149 Mg150 2.072 . S
O149 C161 1.260 . S
Mg150 O149 2.072 . S
Mg150 O151 2.099 . S
Mg150 O153 2.079 . S
Mg150 O154 2.072 . S
Mg150 O156 2.099 . S
Mg150 O167 2.079 . S
O151 Mg148 2.180 . S
O151 Mg150 2.099 . S
O151 C162 1.279 . S
O152 Mg148 2.117 . S
O152 C162 1.250 . S
O153 Mg150 2.079 . S
O153 C163 1.264 . S
O154 Mg150 2.072 . S
O154 C164 1.260 . S
Mg155 O156 2.180 . S
Mg155 O157 2.030 . S
Mg155 O158 1.990 . S
Mg155 O159 2.117 . S
O156 Mg150 2.099 . S
O156 Mg155 2.180 . S
O156 C165 1.279 . S
O157 Mg155 2.030 . S
O157 C163 1.248 . S
O158 Mg155 1.990 . S
O158 C164 1.253 . S
O159 Mg155 2.117 . S
O159 C165 1.250 . S
C160 O166 1.248 . S
C160 O167 1.264 . S
C161 O147 1.253 . S
C161 O149 1.260 . S
C162 O151 1.279 . S
C162 O152 1.250 . S
C163 O153 1.264 . S
C163 O157 1.248 . S
C164 O154 1.260 . S
C164 O158 1.253 . S
C165 O156 1.279 . S
C165 O159 1.250 . S
O166 Mg148 2.030 . S
O166 C160 1.248 . S
O167 Mg150 2.079 . S
O167 C160 1.264 . S
O168 Mg169 1.990 . S
O168 C182 1.253 . S
Mg169 O168 1.990 . S
Mg169 O172 2.180 . S
Mg169 O173 2.117 . S
Mg169 O187 2.030 . S
O170 Mg171 2.072 . S
O170 C182 1.260 . S
Mg171 O170 2.072 . S
Mg171 O172 2.099 . S
Mg171 O174 2.079 . S
Mg171 O175 2.072 . S
Mg171 O177 2.099 . S
Mg171 O188 2.079 . S
O172 Mg169 2.180 . S
O172 Mg171 2.099 . S
O172 C183 1.279 . S
O173 Mg169 2.117 . S
O173 C183 1.250 . S
O174 Mg171 2.079 . S
O174 C184 1.264 . S
O175 Mg171 2.072 . S
O175 C185 1.260 . S
Mg176 O177 2.180 . S
Mg176 O178 2.030 . S
Mg176 O179 1.990 . S
Mg176 O180 2.117 . S
O177 Mg171 2.099 . S
O177 Mg176 2.180 . S
O177 C186 1.279 . S
O178 Mg176 2.030 . S
O178 C184 1.248 . S
O179 Mg176 1.990 . S
O179 C185 1.253 . S
O180 Mg176 2.117 . S
O180 C186 1.250 . S
C181 O187 1.248 . S
C181 O188 1.264 . S
C182 O168 1.253 . S
C182 O170 1.260 . S
C183 O172 1.279 . S
C183 O173 1.250 . S
C184 O174 1.264 . S
C184 O178 1.248 . S
C185 O175 1.260 . S
C185 O179 1.253 . S
C186 O177 1.279 . S
C186 O180 1.250 . S
O187 Mg169 2.030 . S
O187 C181 1.248 . S
O188 Mg171 2.079 . S
O188 C181 1.264 . S
O189 Mg190 1.990 . S
O189 C203 1.253 . S
Mg190 O189 1.990 . S
Mg190 O193 2.180 . S
Mg190 O194 2.117 . S
Mg190 O208 2.030 . S
O191 Mg192 2.072 . S
O191 C203 1.260 . S
Mg192 O191 2.072 . S
Mg192 O193 2.099 . S
Mg192 O195 2.079 . S
Mg192 O196 2.072 . S
Mg192 O198 2.099 . S
Mg192 O209 2.079 . S
O193 Mg190 2.180 . S
O193 Mg192 2.099 . S
O193 C204 1.279 . S
O194 Mg190 2.117 . S
O194 C204 1.250 . S
O195 Mg192 2.079 . S
O195 C205 1.264 . S
O196 Mg192 2.072 . S
O196 C206 1.260 . S
Mg197 O198 2.180 . S
Mg197 O199 2.030 . S
Mg197 O200 1.990 . S
Mg197 O201 2.117 . S
O198 Mg192 2.099 . S
O198 Mg197 2.180 . S
O198 C207 1.279 . S
O199 Mg197 2.030 . S
O199 C205 1.248 . S
O200 Mg197 1.990 . S
O200 C206 1.253 . S
O201 Mg197 2.117 . S
O201 C207 1.250 . S
C202 O208 1.248 . S
C202 O209 1.264 . S
C203 O189 1.253 . S
C203 O191 1.260 . S
C204 O193 1.279 . S
C204 O194 1.250 . S
C205 O195 1.264 . S
C205 O199 1.248 . S
C206 O196 1.260 . S
C206 O200 1.253 . S
C207 O198 1.279 . S
C207 O201 1.250 . S
O208 Mg190 2.030 . S
O208 C202 1.248 . S
O209 Mg192 2.079 . S
O209 C202 1.264 . S
O210 Mg211 1.990 . S
O210 C224 1.253 . S
Mg211 O210 1.990 . S
Mg211 O214 2.180 . S
Mg211 O215 2.117 . S
Mg211 O229 2.030 . S
O212 Mg213 2.072 . S
O212 C224 1.260 . S
Mg213 O212 2.072 . S
Mg213 O214 2.099 . S
Mg213 O216 2.079 . S
Mg213 O217 2.072 . S
Mg213 O219 2.099 . S
Mg213 O230 2.079 . S
O214 Mg211 2.180 . S
O214 Mg213 2.099 . S
O214 C225 1.279 . S
O215 Mg211 2.117 . S
O215 C225 1.250 . S
O216 Mg213 2.079 . S
O216 C226 1.264 . S
O217 Mg213 2.072 . S
O217 C227 1.260 . S
Mg218 O219 2.180 . S
Mg218 O220 2.030 . S
Mg218 O221 1.990 . S
Mg218 O222 2.117 . S
O219 Mg213 2.099 . S
O219 Mg218 2.180 . S
O219 C228 1.279 . S
O220 Mg218 2.030 . S
O220 C226 1.248 . S
O221 Mg218 1.990 . S
O221 C227 1.253 . S
O222 Mg218 2.117 . S
O222 C228 1.250 . S
C223 O229 1.248 . S
C223 O230 1.264 . S
C224 O210 1.253 . S
C224 O212 1.260 . S
C225 O214 1.279 . S
C225 O215 1.250 . S
C226 O216 1.264 . S
C226 O220 1.248 . S
C227 O217 1.260 . S
C227 O221 1.253 . S
C228 O219 1.279 . S
C228 O222 1.250 . S
O229 Mg211 2.030 . S
O229 C223 1.248 . S
O230 Mg213 2.079 . S
O230 C223 1.264 . S
O231 Mg232 1.990 . S
O231 C245 1.253 . S
Mg232 O231 1.990 . S
Mg232 O235 2.180 . S
Mg232 O236 2.117 . S
Mg232 O250 2.030 . S
O233 Mg234 2.072 . S
O233 C245 1.260 . S
Mg234 O233 2.072 . S
Mg234 O235 2.099 . S
Mg234 O237 2.079 . S
Mg234 O238 2.072 . S
Mg234 O240 2.099 . S
Mg234 O251 2.079 . S
O235 Mg232 2.180 . S
O235 Mg234 2.099 . S
O235 C246 1.279 . S
O236 Mg232 2.117 . S
O236 C246 1.250 . S
O237 Mg234 2.079 . S
O237 C247 1.264 . S
O238 Mg234 2.072 . S
O238 C248 1.260 . S
Mg239 O240 2.180 . S
Mg239 O241 2.030 . S
Mg239 O242 1.990 . S
Mg239 O243 2.117 . S
O240 Mg234 2.099 . S
O240 Mg239 2.180 . S
O240 C249 1.279 . S
O241 Mg239 2.030 . S
O241 C247 1.248 . S
O242 Mg239 1.990 . S
O242 C248 1.253 . S
O243 Mg239 2.117 . S
O243 C249 1.250 . S
C244 O250 1.248 . S
C244 O251 1.264 . S
C245 O231 1.253 . S
C245 O233 1.260 . S
C246 O235 1.279 . S
C246 O236 1.250 . S
C247 O237 1.264 . S
C247 O241 1.248 . S
C248 O238 1.260 . S
C248 O242 1.253 . S
C249 O240 1.279 . S
C249 O243 1.250 . S
O250 Mg232 2.030 . S
O250 C244 1.248 . S
O251 Mg234 2.079 . S
O251 C244 1.264 . S
C252 C253 1.349 . S
C252 C254 1.327 1_655 S
C252 H277 0.950 . S
C253 C252 1.349 . S
C253 C269 1.349 . S
C254 C252 1.327 1_455 S
C254 C273 1.429 . S
C254 H278 0.950 . S
C255 C272 1.574 . S
C255 C274 1.368 . S
C255 H279 0.949 . S
H256 C260 0.949 . S
C257 C258 1.349 . S
C257 C259 1.327 . S
C257 H280 0.950 . S
C258 C257 1.349 . S
C258 C270 1.349 . S
C259 C257 1.327 . S
C259 C275 1.429 . S
C259 H281 0.950 . S
C260 H256 0.949 . S
C260 C268 1.574 . S
C260 C276 1.368 . S
H261 C269 0.950 . S
H262 C267 0.950 . S
H263 C268 0.949 . S
H264 C270 0.950 . S
H265 C271 0.950 . S
H266 C272 0.949 . S
C267 H262 0.950 . S
C267 C269 1.327 . S
C267 C273 1.429 1_655 S
C268 C260 1.574 . S
C268 H263 0.949 . S
C268 C274 1.368 . S
C269 C253 1.349 . S
C269 H261 0.950 . S
C269 C267 1.327 . S
C270 C258 1.349 . S
C270 H264 0.950 . S
C270 C271 1.327 . S
C271 H265 0.950 . S
C271 C270 1.327 . S
C271 C275 1.429 . S
C272 C255 1.574 . S
C272 H266 0.949 . S
C272 C276 1.368 . S
C273 C254 1.429 . S
C273 C267 1.429 1_455 S
C273 C274 1.523 . S
C274 C255 1.368 . S
C274 C268 1.368 . S
C274 C273 1.523 . S
C275 C259 1.429 . S
C275 C271 1.429 . S
C275 C276 1.523 . S
C276 C260 1.368 . S
C276 C272 1.368 . S
C276 C275 1.523 . S
H277 C252 0.950 . S
H278 C254 0.950 . S
H279 C255 0.949 . S
H280 C257 0.950 . S
H281 C259 0.950 . S
C282 C283 1.349 . S
C282 C284 1.327 . S
C282 H307 0.950 . S
C283 C282 1.349 . S
C283 C299 1.349 . S
C284 C282 1.327 . S
C284 C303 1.429 1_545 S
C284 H308 0.950 . S
C285 C302 1.574 . S
C285 C304 1.368 . S
C285 H309 0.949 . S
H286 C290 0.949 . S
C287 C288 1.349 . S
C287 C289 1.327 . S
C287 H310 0.950 . S
C288 C287 1.349 . S
C288 C300 1.349 . S
C289 C287 1.327 . S
C289 C305 1.429 1_655 S
C289 H311 0.950 1_655 S
C290 H286 0.949 . S
C290 C298 1.574 . S
C290 C306 1.368 . S
H291 C299 0.950 . S
H292 C297 0.950 . S
H293 C298 0.949 . S
H294 C300 0.950 . S
H295 C301 0.950 . S
H296 C302 0.949 . S
C297 H292 0.950 . S
C297 C299 1.327 1_565 S
C297 C303 1.429 . S
C298 C290 1.574 . S
C298 H293 0.949 . S
C298 C304 1.368 . S
C299 C283 1.349 . S
C299 H291 0.950 . S
C299 C297 1.327 1_545 S
C300 C288 1.349 . S
C300 H294 0.950 . S
C300 C301 1.327 . S
C301 H295 0.950 . S
C301 C300 1.327 . S
C301 C305 1.429 1_655 S
C302 C285 1.574 . S
C302 H296 0.949 . S
C302 C306 1.368 . S
C303 C284 1.429 1_565 S
C303 C297 1.429 . S
C303 C304 1.523 . S
C304 C285 1.368 . S
C304 C298 1.368 . S
C304 C303 1.523 . S
C305 C289 1.429 1_455 S
C305 C301 1.429 1_455 S
C305 C306 1.523 . S
C306 C290 1.368 . S
C306 C302 1.368 . S
C306 C305 1.523 . S
H307 C282 0.950 . S
H308 C284 0.950 . S
H309 C285 0.949 . S
H310 C287 0.950 . S
H311 C289 0.950 1_455 S
C312 C313 1.349 . S
C312 C314 1.327 . S
C312 H337 0.950 . S
C313 C312 1.349 . S
C313 C329 1.349 . S
C314 C312 1.327 . S
C314 C333 1.429 1_545 S
C314 H338 0.950 . S
C315 C332 1.574 . S
C315 C334 1.368 . S
C315 H339 0.949 . S
H316 C320 0.949 . S
C317 C318 1.349 . S
C317 C319 1.327 . S
C317 H340 0.950 . S
C318 C317 1.349 . S
C318 C330 1.349 . S
C319 C317 1.327 . S
C319 C335 1.429 . S
C319 H341 0.950 . S
C320 H316 0.949 . S
C320 C328 1.574 . S
C320 C336 1.368 . S
H321 C329 0.950 . S
H322 C327 0.950 1_565 S
H323 C328 0.949 . S
H324 C330 0.950 . S
H325 C331 0.950 . S
H326 C332 0.949 . S
C327 H322 0.950 1_545 S
C327 C329 1.327 . S
C327 C333 1.429 1_545 S
C328 C320 1.574 . S
C328 H323 0.949 . S
C328 C334 1.368 . S
C329 C313 1.349 . S
C329 H321 0.950 . S
C329 C327 1.327 . S
C330 C318 1.349 . S
C330 H324 0.950 . S
C330 C331 1.327 . S
C331 H325 0.950 . S
C331 C330 1.327 . S
C331 C335 1.429 . S
C332 C315 1.574 . S
C332 H326 0.949 . S
C332 C336 1.368 . S
C333 C314 1.429 1_565 S
C333 C327 1.429 1_565 S
C333 C334 1.523 . S
C334 C315 1.368 . S
C334 C328 1.368 . S
C334 C333 1.523 . S
C335 C319 1.429 . S
C335 C331 1.429 . S
C335 C336 1.523 . S
C336 C320 1.368 . S
C336 C332 1.368 . S
C336 C335 1.523 . S
H337 C312 0.950 . S
H338 C314 0.950 . S
H339 C315 0.949 . S
H340 C317 0.950 . S
H341 C319 0.950 . S
C342 C343 1.349 . S
C342 C344 1.327 . S
C342 H367 0.950 . S
C343 C342 1.349 . S
C343 C359 1.349 . S
C344 C342 1.327 . S
C344 C363 1.429 . S
C344 H368 0.950 . S
C345 C362 1.574 . S
C345 C364 1.368 . S
C345 H369 0.949 . S
H346 C350 0.949 . S
C347 C348 1.349 . S
C347 C349 1.327 1_655 S
C347 H370 0.950 . S
C348 C347 1.349 . S
C348 C360 1.349 . S
C349 C347 1.327 1_455 S
C349 C365 1.429 . S
C349 H371 0.950 . S
C350 H346 0.949 . S
C350 C358 1.574 . S
C350 C366 1.368 . S
H351 C359 0.950 . S
H352 C357 0.950 . S
H353 C358 0.949 . S
H354 C360 0.950 . S
H355 C361 0.950 . S
H356 C362 0.949 . S
C357 H352 0.950 . S
C357 C359 1.327 . S
C357 C363 1.429 . S
C358 C350 1.574 . S
C358 H353 0.949 . S
C358 C364 1.368 . S
C359 C343 1.349 . S
C359 H351 0.950 . S
C359 C357 1.327 . S
C360 C348 1.349 . S
C360 H354 0.950 . S
C360 C361 1.327 1_655 S
C361 H355 0.950 . S
C361 C360 1.327 1_455 S
C361 C365 1.429 . S
C362 C345 1.574 . S
C362 H356 0.949 . S
C362 C366 1.368 . S
C363 C344 1.429 . S
C363 C357 1.429 . S
C363 C364 1.523 . S
C364 C345 1.368 . S
C364 C358 1.368 . S
C364 C363 1.523 . S
C365 C349 1.429 . S
C365 C361 1.429 . S
C365 C366 1.523 . S
C366 C350 1.368 . S
C366 C362 1.368 . S
C366 C365 1.523 . S
H367 C342 0.950 . S
H368 C344 0.950 . S
H369 C345 0.949 . S
H370 C347 0.950 . S
H371 C349 0.950 . S
C372 C373 1.349 . S
C372 C374 1.327 1_545 S
C372 H397 0.950 . S
C373 C372 1.349 . S
C373 C389 1.349 . S
C374 C372 1.327 1_565 S
C374 C393 1.429 . S
C374 H398 0.950 . S
C375 C392 1.574 . S
C375 C394 1.368 . S
C375 H399 0.949 . S
H376 C380 0.949 . S
C377 C378 1.349 . S
C377 C379 1.327 . S
C377 H400 0.950 . S
C378 C377 1.349 . S
C378 C390 1.349 . S
C379 C377 1.327 . S
C379 C395 1.429 1_655 S
C379 H401 0.950 . S
C380 H376 0.949 . S
C380 C388 1.574 . S
C380 C396 1.368 . S
H381 C389 0.950 . S
H382 C387 0.950 . S
H383 C388 0.949 . S
H384 C390 0.950 . S
H385 C391 0.950 1_455 S
H386 C392 0.949 . S
C387 H382 0.950 . S
C387 C389 1.327 1_565 S
C387 C393 1.429 . S
C388 C380 1.574 . S
C388 H383 0.949 . S
C388 C394 1.368 . S
C389 C373 1.349 . S
C389 H381 0.950 . S
C389 C387 1.327 1_545 S
C390 C378 1.349 . S
C390 H384 0.950 . S
C390 C391 1.327 . S
C391 H385 0.950 1_655 S
C391 C390 1.327 . S
C391 C395 1.429 1_655 S
C392 C375 1.574 . S
C392 H386 0.949 . S
C392 C396 1.368 . S
C393 C374 1.429 . S
C393 C387 1.429 . S
C393 C394 1.523 . S
C394 C375 1.368 . S
C394 C388 1.368 . S
C394 C393 1.523 . S
C395 C379 1.429 1_455 S
C395 C391 1.429 1_455 S
C395 C396 1.523 . S
C396 C380 1.368 . S
C396 C392 1.368 . S
C396 C395 1.523 . S
H397 C372 0.950 . S
H398 C374 0.950 . S
H399 C375 0.949 . S
H400 C377 0.950 . S
H401 C379 0.950 . S
C402 C403 1.349 . S
C402 C404 1.327 . S
C402 H427 0.950 . S
C403 C402 1.349 . S
C403 C419 1.349 . S
C404 C402 1.327 . S
C404 C423 1.429 . S
C404 H428 0.950 . S
C405 C422 1.574 . S
C405 C424 1.368 . S
C405 H429 0.949 . S
H406 C410 0.949 . S
C407 C408 1.349 . S
C407 C409 1.327 . S
C407 H430 0.950 . S
C408 C407 1.349 . S
C408 C420 1.349 . S
C409 C407 1.327 . S
C409 C425 1.429 1_545 S
C409 H431 0.950 . S
C410 H406 0.949 . S
C410 C418 1.574 . S
C410 C426 1.368 . S
H411 C419 0.950 . S
H412 C417 0.950 . S
H413 C418 0.949 . S
H414 C420 0.950 . S
H415 C421 0.950 1_565 S
H416 C422 0.949 . S
C417 H412 0.950 . S
C417 C419 1.327 . S
C417 C423 1.429 . S
C418 C410 1.574 . S
C418 H413 0.949 . S
C418 C424 1.368 . S
C419 C403 1.349 . S
C419 H411 0.950 . S
C419 C417 1.327 . S
C420 C408 1.349 . S
C420 H414 0.950 . S
C420 C421 1.327 . S
C421 H415 0.950 1_545 S
C421 C420 1.327 . S
C421 C425 1.429 1_545 S
C422 C405 1.574 . S
C422 H416 0.949 . S
C422 C426 1.368 . S
C423 C404 1.429 . S
C423 C417 1.429 . S
C423 C424 1.523 . S
C424 C405 1.368 . S
C424 C418 1.368 . S
C424 C423 1.523 . S
C425 C409 1.429 1_565 S
C425 C421 1.429 1_565 S
C425 C426 1.523 . S
C426 C410 1.368 . S
C426 C422 1.368 . S
C426 C425 1.523 . S
H427 C402 0.950 . S
H428 C404 0.950 . S
H429 C405 0.949 . S
H430 C407 0.950 . S
H431 C409 0.950 . S
C432 C433 1.349 . S
C432 C434 1.327 1_565 S
C432 H457 0.950 . S
C433 C432 1.349 . S
C433 C449 1.349 . S
C434 C432 1.327 1_545 S
C434 C453 1.429 . S
C434 H458 0.950 . S
C435 C452 1.574 . S
C435 C454 1.368 . S
C435 H459 0.949 . S
H436 C440 0.949 . S
C437 C438 1.349 . S
C437 C439 1.327 . S
C437 H460 0.950 . S
C438 C437 1.349 . S
C438 C450 1.349 . S
C439 C437 1.327 . S
C439 C455 1.429 . S
C439 H461 0.950 . S
C440 H436 0.949 . S
C440 C448 1.574 . S
C440 C456 1.368 . S
H441 C449 0.950 . S
H442 C447 0.961 . S
H443 C448 0.949 . S
H444 C450 0.950 . S
H445 C451 0.950 . S
H446 C452 0.949 . S
C447 H442 0.961 . S
C447 C449 1.327 . S
C447 C453 1.429 1_565 S
C448 C440 1.574 . S
C448 H443 0.949 . S
C448 C454 1.368 . S
C449 C433 1.349 . S
C449 H441 0.950 . S
C449 C447 1.327 . S
C450 C438 1.349 . S
C450 H444 0.950 . S
C450 C451 1.327 . S
C451 H445 0.950 . S
C451 C450 1.327 . S
C451 C455 1.429 . S
C452 C435 1.574 . S
C452 H446 0.949 . S
C452 C456 1.368 . S
C453 C434 1.429 . S
C453 C447 1.429 1_545 S
C453 C454 1.523 . S
C454 C435 1.368 . S
C454 C448 1.368 . S
C454 C453 1.523 . S
C455 C439 1.429 . S
C455 C451 1.429 . S
C455 C456 1.523 . S
C456 C440 1.368 . S
C456 C452 1.368 . S
C456 C455 1.523 . S
H457 C432 0.950 . S
H458 C434 0.950 . S
H459 C435 0.949 . S
H460 C437 0.950 . S
H461 C439 0.950 . S
C462 C463 1.349 . S
C462 C464 1.327 . S
C462 H487 0.950 . S
C463 C462 1.349 . S
C463 C479 1.349 . S
C464 C462 1.327 . S
C464 C483 1.429 1_455 S
C464 H488 0.950 1_455 S
C465 C482 1.574 . S
C465 C484 1.368 . S
C465 H489 0.949 . S
H466 C470 0.949 . S
C467 C468 1.349 . S
C467 C469 1.327 . S
C467 H490 0.950 . S
C468 C467 1.349 . S
C468 C480 1.349 . S
C469 C467 1.327 . S
C469 C485 1.429 . S
C469 H491 0.950 . S
C470 H466 0.949 . S
C470 C478 1.574 . S
C470 C486 1.368 . S
H471 C479 0.950 . S
H472 C477 0.950 . S
H473 C478 0.949 . S
H474 C480 0.950 . S
H475 C481 0.950 . S
H476 C482 0.949 . S
C477 H472 0.950 . S
C477 C479 1.327 . S
C477 C483 1.429 1_455 S
C478 C470 1.574 . S
C478 H473 0.949 . S
C478 C484 1.368 . S
C479 C463 1.349 . S
C479 H471 0.950 . S
C479 C477 1.327 . S
C480 C468 1.349 . S
C480 H474 0.950 . S
C480 C481 1.327 . S
C481 H475 0.950 . S
C481 C480 1.327 . S
C481 C485 1.429 . S
C482 C465 1.574 . S
C482 H476 0.949 . S
C482 C486 1.368 . S
C483 C464 1.429 1_655 S
C483 C477 1.429 1_655 S
C483 C484 1.523 . S
C484 C465 1.368 . S
C484 C478 1.368 . S
C484 C483 1.523 . S
C485 C469 1.429 . S
C485 C481 1.429 . S
C485 C486 1.523 . S
C486 C470 1.368 . S
C486 C482 1.368 . S
C486 C485 1.523 . S
H487 C462 0.950 . S
H488 C464 0.950 1_655 S
H489 C465 0.949 . S
H490 C467 0.950 . S
H491 C469 0.950 . S
C492 C493 1.349 . S
C492 C494 1.327 . S
C492 H517 0.950 . S
C493 C492 1.349 . S
C493 C509 1.349 . S
C494 C492 1.327 . S
C494 C513 1.429 1_565 S
C494 H518 0.950 . S
C495 C512 1.574 . S
C495 C514 1.368 . S
C495 H519 0.949 . S
H496 C500 0.949 . S
C497 C498 1.349 . S
C497 C499 1.327 1_455 S
C497 H520 0.950 . S
C498 C497 1.349 . S
C498 C510 1.349 . S
C499 C497 1.327 1_655 S
C499 C515 1.429 . S
C499 H521 0.950 . S
C500 H496 0.949 . S
C500 C508 1.574 . S
C500 C516 1.368 . S
H501 C509 0.950 . S
H502 C507 0.950 1_545 S
H503 C508 0.949 . S
H504 C510 0.950 . S
H505 C511 0.950 . S
H506 C512 0.949 . S
C507 H502 0.950 1_565 S
C507 C509 1.327 . S
C507 C513 1.429 1_565 S
C508 C500 1.574 . S
C508 H503 0.949 . S
C508 C514 1.368 . S
C509 C493 1.349 . S
C509 H501 0.950 . S
C509 C507 1.327 . S
C510 C498 1.349 . S
C510 H504 0.950 . S
C510 C511 1.328 1_455 S
C511 H505 0.950 . S
C511 C510 1.328 1_655 S
C511 C515 1.428 . S
C512 C495 1.574 . S
C512 H506 0.949 . S
C512 C516 1.368 . S
C513 C494 1.429 1_545 S
C513 C507 1.429 1_545 S
C513 C514 1.523 . S
C514 C495 1.368 . S
C514 C508 1.368 . S
C514 C513 1.523 . S
C515 C499 1.429 . S
C515 C511 1.428 . S
C515 C516 1.523 . S
C516 C500 1.368 . S
C516 C512 1.368 . S
C516 C515 1.523 . S
H517 C492 0.950 . S
H518 C494 0.950 . S
H519 C495 0.949 . S
H520 C497 0.950 . S
H521 C499 0.950 . S
C522 C523 1.349 . S
C522 C524 1.327 . S
C522 H547 0.950 . S
C523 C522 1.349 . S
C523 C539 1.349 . S
C524 C522 1.327 . S
C524 C543 1.429 . S
C524 H548 0.950 . S
C525 C542 1.574 . S
C525 C544 1.368 . S
C525 H549 0.949 . S
H526 C530 0.949 . S
C527 C528 1.349 . S
C527 C529 1.327 1_565 S
C527 H550 0.948 . S
C528 C527 1.349 . S
C528 C540 1.349 . S
C529 C527 1.327 1_545 S
C529 C545 1.429 . S
C529 H551 0.950 . S
C530 H526 0.949 . S
C530 C538 1.574 . S
C530 C546 1.368 . S
H531 C539 0.950 . S
H532 C537 0.950 . S
H533 C538 0.949 . S
H534 C540 0.950 . S
H535 C541 0.950 . S
H536 C542 0.949 . S
C537 H532 0.950 . S
C537 C539 1.327 . S
C537 C543 1.429 . S
C538 C530 1.574 . S
C538 H533 0.949 . S
C538 C544 1.368 . S
C539 C523 1.349 . S
C539 H531 0.950 . S
C539 C537 1.327 . S
C540 C528 1.349 . S
C540 H534 0.950 . S
C540 C541 1.327 . S
C541 H535 0.950 . S
C541 C540 1.327 . S
C541 C545 1.429 1_565 S
C542 C525 1.574 . S
C542 H536 0.949 . S
C542 C546 1.368 . S
C543 C524 1.429 . S
C543 C537 1.429 . S
C543 C544 1.523 . S
C544 C525 1.368 . S
C544 C538 1.368 . S
C544 C543 1.523 . S
C545 C529 1.429 . S
C545 C541 1.429 1_545 S
C545 C546 1.523 . S
C546 C530 1.368 . S
C546 C542 1.368 . S
C546 C545 1.523 . S
H547 C522 0.950 . S
H548 C524 0.950 . S
H549 C525 0.949 . S
H550 C527 0.948 . S
H551 C529 0.950 . S
C552 C553 1.349 . S
C552 C554 1.327 . S
C552 H577 0.950 . S
C553 C552 1.349 . S
C553 C569 1.349 . S
C554 C552 1.327 . S
C554 C573 1.429 1_455 S
C554 H578 0.950 1_455 S
C555 C572 1.574 . S
C555 C574 1.368 . S
C555 H579 0.949 . S
H556 C560 0.949 . S
C557 C558 1.349 . S
C557 C559 1.327 . S
C557 H580 0.950 . S
C558 C557 1.349 . S
C558 C570 1.349 . S
C559 C557 1.327 . S
C559 C575 1.429 . S
C559 H581 0.950 . S
C560 H556 0.949 . S
C560 C568 1.574 . S
C560 C576 1.368 . S
H561 C569 0.950 . S
H562 C567 0.950 . S
H563 C568 0.949 . S
H564 C570 0.950 . S
H565 C571 0.950 . S
H566 C572 0.949 . S
C567 H562 0.950 . S
C567 C569 1.327 . S
C567 C573 1.429 1_455 S
C568 C560 1.574 . S
C568 H563 0.949 . S
C568 C574 1.368 . S
C569 C553 1.349 . S
C569 H561 0.950 . S
C569 C567 1.327 . S
C570 C558 1.349 . S
C570 H564 0.950 . S
C570 C571 1.327 . S
C571 H565 0.950 . S
C571 C570 1.327 . S
C571 C575 1.429 . S
C572 C555 1.574 . S
C572 H566 0.949 . S
C572 C576 1.368 . S
C573 C554 1.429 1_655 S
C573 C567 1.429 1_655 S
C573 C574 1.523 . S
C574 C555 1.368 . S
C574 C568 1.368 . S
C574 C573 1.523 . S
C575 C559 1.429 . S
C575 C571 1.429 . S
C575 C576 1.523 . S
C576 C560 1.368 . S
C576 C572 1.368 . S
C576 C575 1.523 . S
H577 C552 0.950 . S
H578 C554 0.950 1_655 S
H579 C555 0.949 . S
H580 C557 0.950 . S
H581 C559 0.950 . S
C582 C583 1.349 . S
C582 C584 1.321 1_455 S
C582 H607 0.950 . S
C583 C582 1.349 . S
C583 C599 1.349 . S
C584 C582 1.321 1_655 S
C584 C603 1.440 . S
C584 H608 0.945 . S
C585 C602 1.574 . S
C585 C604 1.368 . S
C585 H609 0.949 . S
H586 C590 0.949 . S
C587 C588 1.349 . S
C587 C589 1.327 . S
C587 H610 0.950 . S
C588 C587 1.349 . S
C588 C600 1.349 . S
C589 C587 1.327 . S
C589 C605 1.429 1_565 S
C589 H611 0.950 1_565 S
C590 H586 0.949 . S
C590 C598 1.574 . S
C590 C606 1.368 . S
H591 C599 0.950 . S
H592 C597 0.950 . S
H593 C598 0.949 . S
H594 C600 0.950 . S
H595 C601 0.950 . S
H596 C602 0.949 . S
C597 H592 0.950 . S
C597 C599 1.327 1_655 S
C597 C603 1.429 . S
C598 C590 1.574 . S
C598 H593 0.949 . S
C598 C604 1.368 . S
C599 C583 1.349 . S
C599 H591 0.950 . S
C599 C597 1.327 1_455 S
C600 C588 1.349 . S
C600 H594 0.950 . S
C600 C601 1.327 . S
C601 H595 0.950 . S
C601 C600 1.327 . S
C601 C605 1.429 1_565 S
C602 C585 1.574 . S
C602 H596 0.949 . S
C602 C606 1.368 . S
C603 C584 1.440 . S
C603 C597 1.429 . S
C603 C604 1.523 . S
C604 C585 1.368 . S
C604 C598 1.368 . S
C604 C603 1.523 . S
C605 C589 1.429 1_545 S
C605 C601 1.429 1_545 S
C605 C606 1.523 . S
C606 C590 1.368 . S
C606 C602 1.368 . S
C606 C605 1.523 . S
H607 C582 0.950 . S
H608 C584 0.945 . S
H609 C585 0.949 . S
H610 C587 0.950 . S
H611 C589 0.950 1_545 S
C612 C613 1.349 . S
C612 C614 1.327 . S
C612 H637 0.950 . S
C613 C612 1.349 . S
C613 C629 1.349 . S
C614 C612 1.327 . S
C614 C633 1.429 . S
C614 H638 0.950 . S
C615 C632 1.574 . S
C615 C634 1.368 . S
C615 H639 0.949 . S
H616 C620 0.949 . S
C617 C618 1.349 . S
C617 C619 1.327 . S
C617 H640 0.950 . S
C618 C617 1.349 . S
C618 C630 1.349 . S
C619 C617 1.327 . S
C619 C635 1.429 . S
C619 H641 0.950 . S
C620 H616 0.949 . S
C620 C628 1.574 . S
C620 C636 1.368 . S
H621 C629 0.950 . S
H622 C627 0.950 . S
H623 C628 0.949 . S
H624 C630 0.950 . S
H625 C631 0.950 . S
H626 C632 0.949 . S
C627 H622 0.950 . S
C627 C629 1.327 . S
C627 C633 1.429 . S
C628 C620 1.574 . S
C628 H623 0.949 . S
C628 C634 1.368 . S
C629 C613 1.349 . S
C629 H621 0.950 . S
C629 C627 1.327 . S
C630 C618 1.349 . S
C630 H624 0.950 . S
C630 C631 1.327 . S
C631 H625 0.950 . S
C631 C630 1.327 . S
C631 C635 1.429 . S
C632 C615 1.574 . S
C632 H626 0.949 . S
C632 C636 1.368 . S
C633 C614 1.429 . S
C633 C627 1.429 . S
C633 C634 1.523 . S
C634 C615 1.368 . S
C634 C628 1.368 . S
C634 C633 1.523 . S
C635 C619 1.429 . S
C635 C631 1.429 . S
C635 C636 1.523 . S
C636 C620 1.368 . S
C636 C632 1.368 . S
C636 C635 1.523 . S
H637 C612 0.950 . S
H638 C614 0.950 . S
H639 C615 0.949 . S
H640 C617 0.950 . S
H641 C619 0.950 . S
C642 C643 1.349 . S
C642 C644 1.327 . S
C642 H667 0.950 . S
C643 C642 1.349 . S
C643 C659 1.349 . S
C644 C642 1.327 . S
C644 C663 1.429 . S
C644 H668 0.950 . S
C645 C662 1.574 . S
C645 C664 1.368 . S
C645 H669 0.949 . S
H646 C650 0.949 . S
C647 C648 1.349 . S
C647 C649 1.327 . S
C647 H670 0.950 . S
C648 C647 1.349 . S
C648 C660 1.349 . S
C649 C647 1.327 . S
C649 C665 1.429 . S
C649 H671 0.950 . S
C650 H646 0.949 . S
C650 C658 1.574 . S
C650 C666 1.368 . S
H651 C659 0.950 . S
H652 C657 0.950 . S
H653 C658 0.949 . S
H654 C660 0.950 . S
H655 C661 0.950 . S
H656 C662 0.949 . S
C657 H652 0.950 . S
C657 C659 1.327 . S
C657 C663 1.429 . S
C658 C650 1.574 . S
C658 H653 0.949 . S
C658 C664 1.368 . S
C659 C643 1.349 . S
C659 H651 0.950 . S
C659 C657 1.327 . S
C660 C648 1.349 . S
C660 H654 0.950 . S
C660 C661 1.327 . S
C661 H655 0.950 . S
C661 C660 1.327 . S
C661 C665 1.429 . S
C662 C645 1.574 . S
C662 H656 0.949 . S
C662 C666 1.368 . S
C663 C644 1.429 . S
C663 C657 1.429 . S
C663 C664 1.523 . S
C664 C645 1.368 . S
C664 C658 1.368 . S
C664 C663 1.523 . S
C665 C649 1.429 . S
C665 C661 1.429 . S
C665 C666 1.523 . S
C666 C650 1.368 . S
C666 C662 1.368 . S
C666 C665 1.523 . S
H667 C642 0.950 . S
H668 C644 0.950 . S
H669 C645 0.949 . S
H670 C647 0.950 . S
H671 C649 0.950 . S
C672 C673 1.349 . S
C672 C674 1.327 . S
C672 H697 0.950 . S
C673 C672 1.349 . S
C673 C689 1.349 . S
C674 C672 1.327 . S
C674 C693 1.429 . S
C674 H698 0.950 . S
C675 C692 1.574 . S
C675 C694 1.368 . S
C675 H699 0.949 . S
H676 C680 0.949 . S
C677 C678 1.349 . S
C677 C679 1.327 . S
C677 H700 0.950 . S
C678 C677 1.349 . S
C678 C690 1.349 . S
C679 C677 1.327 . S
C679 C695 1.429 . S
C679 H701 0.950 . S
C680 H676 0.949 . S
C680 C688 1.574 . S
C680 C696 1.368 . S
H681 C689 0.950 . S
H682 C687 0.950 . S
H683 C688 0.949 . S
H684 C690 0.950 . S
H685 C691 0.950 . S
H686 C692 0.949 . S
C687 H682 0.950 . S
C687 C689 1.327 . S
C687 C693 1.429 . S
C688 C680 1.574 . S
C688 H683 0.949 . S
C688 C694 1.368 . S
C689 C673 1.349 . S
C689 H681 0.950 . S
C689 C687 1.327 . S
C690 C678 1.349 . S
C690 H684 0.950 . S
C690 C691 1.327 . S
C691 H685 0.950 . S
C691 C690 1.327 . S
C691 C695 1.429 . S
C692 C675 1.574 . S
C692 H686 0.949 . S
C692 C696 1.368 . S
C693 C674 1.429 . S
C693 C687 1.429 . S
C693 C694 1.523 . S
C694 C675 1.368 . S
C694 C688 1.368 . S
C694 C693 1.523 . S
C695 C679 1.429 . S
C695 C691 1.429 . S
C695 C696 1.523 . S
C696 C680 1.368 . S
C696 C692 1.368 . S
C696 C695 1.523 . S
H697 C672 0.950 . S
H698 C674 0.950 . S
H699 C675 0.949 . S
H700 C677 0.950 . S
H701 C679 0.950 . S
C702 C703 1.349 . S
C702 C704 1.327 . S
C702 H727 0.950 . S
C703 C702 1.349 . S
C703 C719 1.349 . S
C704 C702 1.327 . S
C704 C723 1.429 . S
C704 H728 0.950 . S
C705 C722 1.574 . S
C705 C724 1.368 . S
C705 H729 0.949 . S
H706 C710 0.949 . S
C707 C708 1.349 . S
C707 C709 1.327 . S
C707 H730 0.950 . S
C708 C707 1.349 . S
C708 C720 1.349 . S
C709 C707 1.327 . S
C709 C725 1.429 . S
C709 H731 0.950 . S
C710 H706 0.949 . S
C710 C718 1.574 . S
C710 C726 1.368 . S
H711 C719 0.950 . S
H712 C717 0.950 . S
H713 C718 0.949 . S
H714 C720 0.950 . S
H715 C721 0.950 . S
H716 C722 0.949 . S
C717 H712 0.950 . S
C717 C719 1.327 . S
C717 C723 1.429 . S
C718 C710 1.574 . S
C718 H713 0.949 . S
C718 C724 1.368 . S
C719 C703 1.349 . S
C719 H711 0.950 . S
C719 C717 1.327 . S
C720 C708 1.349 . S
C720 H714 0.950 . S
C720 C721 1.327 . S
C721 H715 0.950 . S
C721 C720 1.327 . S
C721 C725 1.429 . S
C722 C705 1.574 . S
C722 H716 0.949 . S
C722 C726 1.368 . S
C723 C704 1.429 . S
C723 C717 1.429 . S
C723 C724 1.523 . S
C724 C705 1.368 . S
C724 C718 1.368 . S
C724 C723 1.523 . S
C725 C709 1.429 . S
C725 C721 1.429 . S
C725 C726 1.523 . S
C726 C710 1.368 . S
C726 C722 1.368 . S
C726 C725 1.523 . S
H727 C702 0.950 . S
H728 C704 0.950 . S
H729 C705 0.949 . S
H730 C707 0.950 . S
H731 C709 0.950 . S
C732 C733 1.349 . S
C732 C734 1.327 . S
C732 H757 0.950 . S
C733 C732 1.349 . S
C733 C749 1.349 . S
C734 C732 1.327 . S
C734 C753 1.429 . S
C734 H758 0.950 . S
C735 C752 1.574 . S
C735 C754 1.368 . S
C735 H759 0.949 . S
H736 C740 0.949 . S
C737 C738 1.349 . S
C737 C739 1.327 . S
C737 H760 0.950 . S
C738 C737 1.349 . S
C738 C750 1.349 . S
C739 C737 1.327 . S
C739 C755 1.429 . S
C739 H761 0.950 . S
C740 H736 0.949 . S
C740 C748 1.574 . S
C740 C756 1.368 . S
H741 C749 0.950 . S
H742 C747 0.950 . S
H743 C748 0.949 . S
H744 C750 0.950 . S
H745 C751 0.950 . S
H746 C752 0.949 . S
C747 H742 0.950 . S
C747 C749 1.327 . S
C747 C753 1.429 . S
C748 C740 1.574 . S
C748 H743 0.949 . S
C748 C754 1.368 . S
C749 C733 1.349 . S
C749 H741 0.950 . S
C749 C747 1.327 . S
C750 C738 1.349 . S
C750 H744 0.950 . S
C750 C751 1.327 . S
C751 H745 0.950 . S
C751 C750 1.327 . S
C751 C755 1.429 . S
C752 C735 1.574 . S
C752 H746 0.949 . S
C752 C756 1.368 . S
C753 C734 1.429 . S
C753 C747 1.429 . S
C753 C754 1.523 . S
C754 C735 1.368 . S
C754 C748 1.368 . S
C754 C753 1.523 . S
C755 C739 1.429 . S
C755 C751 1.429 . S
C755 C756 1.523 . S
C756 C740 1.368 . S
C756 C752 1.368 . S
C756 C755 1.523 . S
H757 C732 0.950 . S
H758 C734 0.950 . S
H759 C735 0.949 . S
H760 C737 0.950 . S
H761 C739 0.950 . S
C762 C763 1.349 . S
C762 C764 1.327 . S
C762 H787 0.950 . S
C763 C762 1.349 . S
C763 C779 1.349 . S
C764 C762 1.327 . S
C764 C783 1.429 . S
C764 H788 0.950 . S
C765 C782 1.574 . S
C765 C784 1.368 . S
C765 H789 0.949 . S
H766 C770 0.949 . S
C767 C768 1.349 . S
C767 C769 1.327 . S
C767 H790 0.950 . S
C768 C767 1.349 . S
C768 C780 1.349 . S
C769 C767 1.327 . S
C769 C785 1.429 . S
C769 H791 0.950 . S
C770 H766 0.949 . S
C770 C778 1.574 . S
C770 C786 1.368 . S
H771 C779 0.950 . S
H772 C777 0.950 . S
H773 C778 0.949 . S
H774 C780 0.950 . S
H775 C781 0.950 . S
H776 C782 0.949 . S
C777 H772 0.950 . S
C777 C779 1.327 . S
C777 C783 1.429 . S
C778 C770 1.574 . S
C778 H773 0.949 . S
C778 C784 1.368 . S
C779 C763 1.349 . S
C779 H771 0.950 . S
C779 C777 1.327 . S
C780 C768 1.349 . S
C780 H774 0.950 . S
C780 C781 1.327 . S
C781 H775 0.950 . S
C781 C780 1.327 . S
C781 C785 1.429 . S
C782 C765 1.574 . S
C782 H776 0.949 . S
C782 C786 1.368 . S
C783 C764 1.429 . S
C783 C777 1.429 . S
C783 C784 1.523 . S
C784 C765 1.368 . S
C784 C778 1.368 . S
C784 C783 1.523 . S
C785 C769 1.429 . S
C785 C781 1.429 . S
C785 C786 1.523 . S
C786 C770 1.368 . S
C786 C782 1.368 . S
C786 C785 1.523 . S
H787 C762 0.950 . S
H788 C764 0.950 . S
H789 C765 0.949 . S
H790 C767 0.950 . S
H791 C769 0.950 . S
C792 C793 1.349 . S
C792 C794 1.327 . S
C792 H817 0.950 . S
C793 C792 1.349 . S
C793 C809 1.349 . S
C794 C792 1.327 . S
C794 C813 1.429 . S
C794 H818 0.950 . S
C795 C812 1.574 1_556 S
C795 C814 1.368 . S
C795 H819 0.949 . S
H796 C800 0.949 . S
C797 C798 1.349 . S
C797 C799 1.327 . S
C797 H820 0.950 . S
C798 C797 1.349 . S
C798 C810 1.349 . S
C799 C797 1.327 . S
C799 C815 1.429 . S
C799 H821 0.950 . S
C800 H796 0.949 . S
C800 C808 1.574 1_554 S
C800 C816 1.368 . S
H801 C809 0.950 . S
H802 C807 0.950 . S
H803 C808 0.949 . S
H804 C810 0.950 . S
H805 C811 0.950 . S
H806 C812 0.949 . S
C807 H802 0.950 . S
C807 C809 1.327 . S
C807 C813 1.429 . S
C808 C800 1.574 1_556 S
C808 H803 0.949 . S
C808 C814 1.368 1_545 S
C809 C793 1.349 . S
C809 H801 0.950 . S
C809 C807 1.327 . S
C810 C798 1.349 . S
C810 H804 0.950 . S
C810 C811 1.327 . S
C811 H805 0.950 . S
C811 C810 1.327 . S
C811 C815 1.429 . S
C812 C795 1.574 1_554 S
C812 H806 0.949 . S
C812 C816 1.368 1_565 S
C813 C794 1.429 . S
C813 C807 1.429 . S
C813 C814 1.523 . S
C814 C795 1.368 . S
C814 C808 1.368 1_565 S
C814 C813 1.523 . S
C815 C799 1.429 . S
C815 C811 1.429 . S
C815 C816 1.523 . S
C816 C800 1.368 . S
C816 C812 1.368 1_545 S
C816 C815 1.523 . S
H817 C792 0.950 . S
H818 C794 0.950 . S
H819 C795 0.949 . S
H820 C797 0.950 . S
H821 C799 0.950 . S
C822 C823 1.349 . S
C822 C824 1.327 . S
C822 H847 0.950 . S
C823 C822 1.349 . S
C823 C839 1.349 . S
C824 C822 1.327 . S
C824 C843 1.429 . S
C824 H848 0.950 . S
C825 C842 1.574 . S
C825 C844 1.368 . S
C825 H849 0.949 . S
H826 C830 0.949 . S
C827 C828 1.349 . S
C827 C829 1.327 . S
C827 H850 0.950 . S
C828 C827 1.349 . S
C828 C840 1.349 . S
C829 C827 1.327 . S
C829 C845 1.429 . S
C829 H851 0.950 . S
C830 H826 0.949 . S
C830 C838 1.574 . S
C830 C846 1.368 . S
H831 C839 0.950 . S
H832 C837 0.950 . S
H833 C838 0.949 . S
H834 C840 0.950 . S
H835 C841 0.950 . S
H836 C842 0.949 . S
C837 H832 0.950 . S
C837 C839 1.327 . S
C837 C843 1.429 . S
C838 C830 1.574 . S
C838 H833 0.949 . S
C838 C844 1.368 . S
C839 C823 1.349 . S
C839 H831 0.950 . S
C839 C837 1.327 . S
C840 C828 1.349 . S
C840 H834 0.950 . S
C840 C841 1.327 . S
C841 H835 0.950 . S
C841 C840 1.327 . S
C841 C845 1.429 . S
C842 C825 1.574 . S
C842 H836 0.949 . S
C842 C846 1.368 . S
C843 C824 1.429 . S
C843 C837 1.429 . S
C843 C844 1.523 . S
C844 C825 1.368 . S
C844 C838 1.368 . S
C844 C843 1.523 . S
C845 C829 1.429 . S
C845 C841 1.429 . S
C845 C846 1.523 . S
C846 C830 1.368 . S
C846 C842 1.368 . S
C846 C845 1.523 . S
H847 C822 0.950 . S
H848 C824 0.950 . S
H849 C825 0.949 . S
H850 C827 0.950 . S
H851 C829 0.950 . S
C852 C853 1.349 . S
C852 C854 1.327 . S
C852 H877 0.950 . S
C853 C852 1.349 . S
C853 C869 1.349 . S
C854 C852 1.327 . S
C854 C873 1.429 . S
C854 H878 0.950 . S
C855 C872 1.574 1_456 S
C855 C874 1.368 . S
C855 H879 0.949 . S
H856 C860 0.949 . S
C857 C858 1.349 . S
C857 C859 1.327 . S
C857 H880 0.950 . S
C858 C857 1.349 . S
C858 C870 1.349 . S
C859 C857 1.327 . S
C859 C875 1.429 . S
C859 H881 0.950 . S
C860 H856 0.949 . S
C860 C868 1.574 1_654 S
C860 C876 1.368 . S
H861 C869 0.950 . S
H862 C867 0.950 . S
H863 C868 0.949 . S
H864 C870 0.950 . S
H865 C871 0.950 . S
H866 C872 0.949 . S
C867 H862 0.950 . S
C867 C869 1.327 . S
C867 C873 1.429 . S
C868 C860 1.574 1_456 S
C868 H863 0.949 . S
C868 C874 1.368 . S
C869 C853 1.349 . S
C869 H861 0.950 . S
C869 C867 1.327 . S
C870 C858 1.349 . S
C870 H864 0.950 . S
C870 C871 1.327 . S
C871 H865 0.950 . S
C871 C870 1.327 . S
C871 C875 1.429 . S
C872 C855 1.574 1_654 S
C872 H866 0.949 . S
C872 C876 1.368 . S
C873 C854 1.429 . S
C873 C867 1.429 . S
C873 C874 1.523 . S
C874 C855 1.368 . S
C874 C868 1.368 . S
C874 C873 1.523 . S
C875 C859 1.429 . S
C875 C871 1.429 . S
C875 C876 1.523 . S
C876 C860 1.368 . S
C876 C872 1.368 . S
C876 C875 1.523 . S
H877 C852 0.950 . S
H878 C854 0.950 . S
H879 C855 0.949 . S
H880 C857 0.950 . S
H881 C859 0.950 . S
C882 C883 1.349 . S
C882 C884 1.327 . S
C882 H907 0.950 . S
C883 C882 1.349 . S
C883 C899 1.349 . S
C884 C882 1.327 . S
C884 C903 1.429 . S
C884 H908 0.950 . S
C885 C902 1.574 . S
C885 C904 1.368 . S
C885 H909 0.949 . S
H886 C890 0.949 . S
C887 C888 1.349 . S
C887 C889 1.327 . S
C887 H910 0.950 . S
C888 C887 1.349 . S
C888 C900 1.349 . S
C889 C887 1.327 . S
C889 C905 1.429 . S
C889 H911 0.950 . S
C890 H886 0.949 . S
C890 C898 1.574 . S
C890 C906 1.368 . S
H891 C899 0.950 . S
H892 C897 0.950 . S
H893 C898 0.949 . S
H894 C900 0.950 . S
H895 C901 0.950 . S
H896 C902 0.949 . S
C897 H892 0.950 . S
C897 C899 1.327 . S
C897 C903 1.429 . S
C898 C890 1.574 . S
C898 H893 0.949 . S
C898 C904 1.368 1_565 S
C899 C883 1.349 . S
C899 H891 0.950 . S
C899 C897 1.327 . S
C900 C888 1.349 . S
C900 H894 0.950 . S
C900 C901 1.327 . S
C901 H895 0.950 . S
C901 C900 1.327 . S
C901 C905 1.429 . S
C902 C885 1.574 . S
C902 H896 0.949 . S
C902 C906 1.368 1_545 S
C903 C884 1.429 . S
C903 C897 1.429 . S
C903 C904 1.523 . S
C904 C885 1.368 . S
C904 C898 1.368 1_545 S
C904 C903 1.523 . S
C905 C889 1.429 . S
C905 C901 1.429 . S
C905 C906 1.523 . S
C906 C890 1.368 . S
C906 C902 1.368 1_565 S
C906 C905 1.523 . S
H907 C882 0.950 . S
H908 C884 0.950 . S
H909 C885 0.949 . S
H910 C887 0.950 . S
H911 C889 0.950 . S
C912 C913 1.349 . S
C912 C914 1.327 . S
C912 H937 0.950 . S
C913 C912 1.349 . S
C913 C929 1.349 . S
C914 C912 1.327 . S
C914 C933 1.429 . S
C914 H938 0.950 . S
C915 C932 1.574 1_554 S
C915 C934 1.368 . S
C915 H939 0.949 . S
H916 C920 0.949 . S
C917 C918 1.349 . S
C917 C919 1.327 . S
C917 H940 0.950 . S
C918 C917 1.349 . S
C918 C930 1.349 . S
C919 C917 1.327 . S
C919 C935 1.429 . S
C919 H941 0.950 . S
C920 H916 0.949 . S
C920 C928 1.574 1_556 S
C920 C936 1.368 . S
H921 C929 0.950 . S
H922 C927 0.950 . S
H923 C928 0.949 . S
H924 C930 0.950 . S
H925 C931 0.950 . S
H926 C932 0.949 . S
C927 H922 0.950 . S
C927 C929 1.327 . S
C927 C933 1.429 . S
C928 C920 1.574 1_554 S
C928 H923 0.949 . S
C928 C934 1.368 . S
C929 C913 1.349 . S
C929 H921 0.950 . S
C929 C927 1.327 . S
C930 C918 1.349 . S
C930 H924 0.950 . S
C930 C931 1.327 . S
C931 H925 0.950 . S
C931 C930 1.327 . S
C931 C935 1.429 . S
C932 C915 1.574 1_556 S
C932 H926 0.949 . S
C932 C936 1.368 . S
C933 C914 1.429 . S
C933 C927 1.429 . S
C933 C934 1.523 . S
C934 C915 1.368 . S
C934 C928 1.368 . S
C934 C933 1.523 . S
C935 C919 1.429 . S
C935 C931 1.429 . S
C935 C936 1.523 . S
C936 C920 1.368 . S
C936 C932 1.368 . S
C936 C935 1.523 . S
H937 C912 0.950 . S
H938 C914 0.950 . S
H939 C915 0.949 . S
H940 C917 0.950 . S
H941 C919 0.950 . S
C942 C943 1.349 . S
C942 C944 1.327 . S
C942 H967 0.950 . S
C943 C942 1.349 . S
C943 C959 1.349 . S
C944 C942 1.327 . S
C944 C963 1.429 . S
C944 H968 0.950 . S
C945 C962 1.574 . S
C945 C964 1.368 1_655 S
C945 H969 0.949 . S
H946 C950 0.949 . S
C947 C948 1.349 . S
C947 C949 1.327 . S
C947 H970 0.950 . S
C948 C947 1.349 . S
C948 C960 1.349 . S
C949 C947 1.327 . S
C949 C965 1.429 . S
C949 H971 0.950 . S
C950 H946 0.949 . S
C950 C958 1.574 . S
C950 C966 1.368 1_455 S
H951 C959 0.950 . S
H952 C957 0.950 . S
H953 C958 0.949 . S
H954 C960 0.950 . S
H955 C961 0.950 . S
H956 C962 0.949 . S
C957 H952 0.950 . S
C957 C959 1.327 . S
C957 C963 1.429 . S
C958 C950 1.574 . S
C958 H953 0.949 . S
C958 C964 1.368 . S
C959 C943 1.349 . S
C959 H951 0.950 . S
C959 C957 1.327 . S
C960 C948 1.349 . S
C960 H954 0.950 . S
C960 C961 1.327 . S
C961 H955 0.950 . S
C961 C960 1.327 . S
C961 C965 1.429 . S
C962 C945 1.574 . S
C962 H956 0.949 . S
C962 C966 1.368 . S
C963 C944 1.429 . S
C963 C957 1.429 . S
C963 C964 1.523 . S
C964 C945 1.368 1_455 S
C964 C958 1.368 . S
C964 C963 1.523 . S
C965 C949 1.429 . S
C965 C961 1.429 . S
C965 C966 1.523 . S
C966 C950 1.368 1_655 S
C966 C962 1.368 . S
C966 C965 1.523 . S
H967 C942 0.950 . S
H968 C944 0.950 . S
H969 C945 0.949 . S
H970 C947 0.950 . S
H971 C949 0.950 . S
C972 C973 1.349 . S
C972 C974 1.327 . S
C972 H997 0.950 . S
C973 C972 1.349 . S
C973 C989 1.349 . S
C974 C972 1.327 . S
C974 C993 1.429 . S
C974 H998 0.950 . S
C975 C992 1.574 . S
C975 C994 1.368 . S
C975 H999 0.949 . S
H976 C980 0.949 . S
C977 C978 1.349 . S
C977 C979 1.327 . S
C977 H1000 0.950 . S
C978 C977 1.349 . S
C978 C990 1.349 . S
C979 C977 1.327 . S
C979 C995 1.429 . S
C979 H1001 0.950 . S
C980 H976 0.949 . S
C980 C988 1.574 . S
C980 C996 1.368 . S
H981 C989 0.950 . S
H982 C987 0.950 . S
H983 C988 0.949 . S
H984 C990 0.950 . S
H985 C991 0.950 . S
H986 C992 0.949 . S
C987 H982 0.950 . S
C987 C989 1.327 . S
C987 C993 1.429 . S
C988 C980 1.574 . S
C988 H983 0.949 . S
C988 C994 1.368 . S
C989 C973 1.349 . S
C989 H981 0.950 . S
C989 C987 1.327 . S
C990 C978 1.349 . S
C990 H984 0.950 . S
C990 C991 1.327 . S
C991 H985 0.950 . S
C991 C990 1.327 . S
C991 C995 1.429 . S
C992 C975 1.574 . S
C992 H986 0.949 . S
C992 C996 1.368 . S
C993 C974 1.429 . S
C993 C987 1.429 . S
C993 C994 1.523 . S
C994 C975 1.368 . S
C994 C988 1.368 . S
C994 C993 1.523 . S
C995 C979 1.429 . S
C995 C991 1.429 . S
C995 C996 1.523 . S
C996 C980 1.368 . S
C996 C992 1.368 . S
C996 C995 1.523 . S
H997 C972 0.950 . S
H998 C974 0.950 . S
H999 C975 0.949 . S
H1000 C977 0.950 . S
H1001 C979 0.950 . S
C1002 C1003 1.349 . S
C1002 C1004 1.327 . S
C1002 H1027 0.950 . S
C1003 C1002 1.349 . S
C1003 C1019 1.349 . S
C1004 C1002 1.327 . S
C1004 C1023 1.429 . S
C1004 H1028 0.950 . S
C1005 C1022 1.574 . S
C1005 C1024 1.368 . S
C1005 H1029 0.949 . S
H1006 C1010 0.949 . S
C1007 C1008 1.349 . S
C1007 C1009 1.327 . S
C1007 H1030 0.950 . S
C1008 C1007 1.349 . S
C1008 C1020 1.349 . S
C1009 C1007 1.327 . S
C1009 C1025 1.429 . S
C1009 H1031 0.950 . S
C1010 H1006 0.949 . S
C1010 C1018 1.574 . S
C1010 C1026 1.368 . S
H1011 C1019 0.950 . S
H1012 C1017 0.950 . S
H1013 C1018 0.949 . S
H1014 C1020 0.950 . S
H1015 C1021 0.950 . S
H1016 C1022 0.949 . S
C1017 H1012 0.950 . S
C1017 C1019 1.327 . S
C1017 C1023 1.429 . S
C1018 C1010 1.574 . S
C1018 H1013 0.949 . S
C1018 C1024 1.368 . S
C1019 C1003 1.349 . S
C1019 H1011 0.950 . S
C1019 C1017 1.327 . S
C1020 C1008 1.349 . S
C1020 H1014 0.950 . S
C1020 C1021 1.327 . S
C1021 H1015 0.950 . S
C1021 C1020 1.327 . S
C1021 C1025 1.429 . S
C1022 C1005 1.574 . S
C1022 H1016 0.949 . S
C1022 C1026 1.368 . S
C1023 C1004 1.429 . S
C1023 C1017 1.429 . S
C1023 C1024 1.523 . S
C1024 C1005 1.368 . S
C1024 C1018 1.368 . S
C1024 C1023 1.523 . S
C1025 C1009 1.429 . S
C1025 C1021 1.429 . S
C1025 C1026 1.523 . S
C1026 C1010 1.368 . S
C1026 C1022 1.368 . S
C1026 C1025 1.523 . S
H1027 C1002 0.950 . S
H1028 C1004 0.950 . S
H1029 C1005 0.949 . S
H1030 C1007 0.950 . S
H1031 C1009 0.950 . S
C1032 C1033 1.349 . S
C1032 C1034 1.327 . S
C1032 H1057 0.950 . S
C1033 C1032 1.349 . S
C1033 C1049 1.349 . S
C1034 C1032 1.327 . S
C1034 C1053 1.429 . S
C1034 H1058 0.950 . S
C1035 C1052 1.574 . S
C1035 C1054 1.368 . S
C1035 H1059 0.949 . S
H1036 C1040 0.949 . S
C1037 C1038 1.349 . S
C1037 C1039 1.327 . S
C1037 H1060 0.950 . S
C1038 C1037 1.349 . S
C1038 C1050 1.349 . S
C1039 C1037 1.327 . S
C1039 C1055 1.429 . S
C1039 H1061 0.950 . S
C1040 H1036 0.949 . S
C1040 C1048 1.574 . S
C1040 C1056 1.368 . S
H1041 C1049 0.950 . S
H1042 C1047 0.950 . S
H1043 C1048 0.949 . S
H1044 C1050 0.950 . S
H1045 C1051 0.950 . S
H1046 C1052 0.949 . S
C1047 H1042 0.950 . S
C1047 C1049 1.327 . S
C1047 C1053 1.429 . S
C1048 C1040 1.574 . S
C1048 H1043 0.949 . S
C1048 C1054 1.368 . S
C1049 C1033 1.349 . S
C1049 H1041 0.950 . S
C1049 C1047 1.327 . S
C1050 C1038 1.349 . S
C1050 H1044 0.950 . S
C1050 C1051 1.327 . S
C1051 H1045 0.950 . S
C1051 C1050 1.327 . S
C1051 C1055 1.429 . S
C1052 C1035 1.574 . S
C1052 H1046 0.949 . S
C1052 C1056 1.368 . S
C1053 C1034 1.429 . S
C1053 C1047 1.429 . S
C1053 C1054 1.523 . S
C1054 C1035 1.368 . S
C1054 C1048 1.368 . S
C1054 C1053 1.523 . S
C1055 C1039 1.429 . S
C1055 C1051 1.429 . S
C1055 C1056 1.523 . S
C1056 C1040 1.368 . S
C1056 C1052 1.368 . S
C1056 C1055 1.523 . S
H1057 C1032 0.950 . S
H1058 C1034 0.950 . S
H1059 C1035 0.949 . S
H1060 C1037 0.950 . S
H1061 C1039 0.950 . S
C1062 C1063 1.349 . S
C1062 C1064 1.327 . S
C1062 H1087 0.950 . S
C1063 C1062 1.349 . S
C1063 C1079 1.349 . S
C1064 C1062 1.327 . S
C1064 C1083 1.429 . S
C1064 H1088 0.950 . S
C1065 C1082 1.574 . S
C1065 C1084 1.368 . S
C1065 H1089 0.949 . S
H1066 C1070 0.949 . S
C1067 C1068 1.349 . S
C1067 C1069 1.327 . S
C1067 H1090 0.950 . S
C1068 C1067 1.349 . S
C1068 C1080 1.349 . S
C1069 C1067 1.327 . S
C1069 C1085 1.429 . S
C1069 H1091 0.950 . S
C1070 H1066 0.949 . S
C1070 C1078 1.574 . S
C1070 C1086 1.368 . S
H1071 C1079 0.950 . S
H1072 C1077 0.950 . S
H1073 C1078 0.949 . S
H1074 C1080 0.950 . S
H1075 C1081 0.950 . S
H1076 C1082 0.949 . S
C1077 H1072 0.950 . S
C1077 C1079 1.327 . S
C1077 C1083 1.429 . S
C1078 C1070 1.574 . S
C1078 H1073 0.949 . S
C1078 C1084 1.368 . S
C1079 C1063 1.349 . S
C1079 H1071 0.950 . S
C1079 C1077 1.327 . S
C1080 C1068 1.349 . S
C1080 H1074 0.950 . S
C1080 C1081 1.327 . S
C1081 H1075 0.950 . S
C1081 C1080 1.327 . S
C1081 C1085 1.429 . S
C1082 C1065 1.574 . S
C1082 H1076 0.949 . S
C1082 C1086 1.368 . S
C1083 C1064 1.429 . S
C1083 C1077 1.429 . S
C1083 C1084 1.523 . S
C1084 C1065 1.368 . S
C1084 C1078 1.368 . S
C1084 C1083 1.523 . S
C1085 C1069 1.429 . S
C1085 C1081 1.429 . S
C1085 C1086 1.523 . S
C1086 C1070 1.368 . S
C1086 C1082 1.368 . S
C1086 C1085 1.523 . S
H1087 C1062 0.950 . S
H1088 C1064 0.950 . S
H1089 C1065 0.949 . S
H1090 C1067 0.950 . S
H1091 C1069 0.950 . S
C1092 C1093 1.349 . S
C1092 C1094 1.327 . S
C1092 H1117 0.950 . S
C1093 C1092 1.349 . S
C1093 C1109 1.349 . S
C1094 C1092 1.327 . S
C1094 C1113 1.429 . S
C1094 H1118 0.950 . S
C1095 C1112 1.574 . S
C1095 C1114 1.368 . S
C1095 H1119 0.949 . S
H1096 C1100 0.949 . S
C1097 C1098 1.349 . S
C1097 C1099 1.327 . S
C1097 H1120 0.950 . S
C1098 C1097 1.349 . S
C1098 C1110 1.349 . S
C1099 C1097 1.327 . S
C1099 C1115 1.429 . S
C1099 H1121 0.950 . S
C1100 H1096 0.949 . S
C1100 C1108 1.574 . S
C1100 C1116 1.368 . S
H1101 C1109 0.950 . S
H1102 C1107 0.950 . S
H1103 C1108 0.949 . S
H1104 C1110 0.950 . S
H1105 C1111 0.950 . S
H1106 C1112 0.949 . S
C1107 H1102 0.950 . S
C1107 C1109 1.327 . S
C1107 C1113 1.429 . S
C1108 C1100 1.574 . S
C1108 H1103 0.949 . S
C1108 C1114 1.368 . S
C1109 C1093 1.349 . S
C1109 H1101 0.950 . S
C1109 C1107 1.327 . S
C1110 C1098 1.349 . S
C1110 H1104 0.950 . S
C1110 C1111 1.327 . S
C1111 H1105 0.950 . S
C1111 C1110 1.327 . S
C1111 C1115 1.429 . S
C1112 C1095 1.574 . S
C1112 H1106 0.949 . S
C1112 C1116 1.368 . S
C1113 C1094 1.429 . S
C1113 C1107 1.429 . S
C1113 C1114 1.523 . S
C1114 C1095 1.368 . S
C1114 C1108 1.368 . S
C1114 C1113 1.523 . S
C1115 C1099 1.429 . S
C1115 C1111 1.429 . S
C1115 C1116 1.523 . S
C1116 C1100 1.368 . S
C1116 C1112 1.368 . S
C1116 C1115 1.523 . S
H1117 C1092 0.950 . S
H1118 C1094 0.950 . S
H1119 C1095 0.949 . S
H1120 C1097 0.950 . S
H1121 C1099 0.950 . S
C1122 C1123 1.349 . S
C1122 C1124 1.327 . S
C1122 H1147 0.950 . S
C1123 C1122 1.349 . S
C1123 C1139 1.349 . S
C1124 C1122 1.327 . S
C1124 C1143 1.429 . S
C1124 H1148 0.950 . S
C1125 C1142 1.574 . S
C1125 C1144 1.368 . S
C1125 H1149 0.949 . S
H1126 C1130 0.949 . S
C1127 C1128 1.349 . S
C1127 C1129 1.327 . S
C1127 H1150 0.950 . S
C1128 C1127 1.349 . S
C1128 C1140 1.349 . S
C1129 C1127 1.327 . S
C1129 C1145 1.429 . S
C1129 H1151 0.950 . S
C1130 H1126 0.949 . S
C1130 C1138 1.574 . S
C1130 C1146 1.368 . S
H1131 C1139 0.950 . S
H1132 C1137 0.950 . S
H1133 C1138 0.949 . S
H1134 C1140 0.950 . S
H1135 C1141 0.950 . S
H1136 C1142 0.949 . S
C1137 H1132 0.950 . S
C1137 C1139 1.327 . S
C1137 C1143 1.429 . S
C1138 C1130 1.574 . S
C1138 H1133 0.949 . S
C1138 C1144 1.368 . S
C1139 C1123 1.349 . S
C1139 H1131 0.950 . S
C1139 C1137 1.327 . S
C1140 C1128 1.349 . S
C1140 H1134 0.950 . S
C1140 C1141 1.327 . S
C1141 H1135 0.950 . S
C1141 C1140 1.327 . S
C1141 C1145 1.429 . S
C1142 C1125 1.574 . S
C1142 H1136 0.949 . S
C1142 C1146 1.368 . S
C1143 C1124 1.429 . S
C1143 C1137 1.429 . S
C1143 C1144 1.523 . S
C1144 C1125 1.368 . S
C1144 C1138 1.368 . S
C1144 C1143 1.523 . S
C1145 C1129 1.429 . S
C1145 C1141 1.429 . S
C1145 C1146 1.523 . S
C1146 C1130 1.368 . S
C1146 C1142 1.368 . S
C1146 C1145 1.523 . S
H1147 C1122 0.950 . S
H1148 C1124 0.950 . S
H1149 C1125 0.949 . S
H1150 C1127 0.950 . S
H1151 C1129 0.950 . S
C1152 C1153 1.349 . S
C1152 C1154 1.327 . S
C1152 H1177 0.950 . S
C1153 C1152 1.349 . S
C1153 C1169 1.349 . S
C1154 C1152 1.327 . S
C1154 C1173 1.429 . S
C1154 H1178 0.950 . S
C1155 C1172 1.574 . S
C1155 C1174 1.368 . S
C1155 H1179 0.949 . S
H1156 C1160 0.949 . S
C1157 C1158 1.349 . S
C1157 C1159 1.327 . S
C1157 H1180 0.950 . S
C1158 C1157 1.349 . S
C1158 C1170 1.349 . S
C1159 C1157 1.327 . S
C1159 C1175 1.429 . S
C1159 H1181 0.950 . S
C1160 H1156 0.949 . S
C1160 C1168 1.574 . S
C1160 C1176 1.368 . S
H1161 C1169 0.950 . S
H1162 C1167 0.950 . S
H1163 C1168 0.949 . S
H1164 C1170 0.950 . S
H1165 C1171 0.950 . S
H1166 C1172 0.949 . S
C1167 H1162 0.950 . S
C1167 C1169 1.327 . S
C1167 C1173 1.429 . S
C1168 C1160 1.574 . S
C1168 H1163 0.949 . S
C1168 C1174 1.368 . S
C1169 C1153 1.349 . S
C1169 H1161 0.950 . S
C1169 C1167 1.327 . S
C1170 C1158 1.349 . S
C1170 H1164 0.950 . S
C1170 C1171 1.327 . S
C1171 H1165 0.950 . S
C1171 C1170 1.327 . S
C1171 C1175 1.429 . S
C1172 C1155 1.574 . S
C1172 H1166 0.949 . S
C1172 C1176 1.368 . S
C1173 C1154 1.429 . S
C1173 C1167 1.429 . S
C1173 C1174 1.523 . S
C1174 C1155 1.368 . S
C1174 C1168 1.368 . S
C1174 C1173 1.523 . S
C1175 C1159 1.429 . S
C1175 C1171 1.429 . S
C1175 C1176 1.523 . S
C1176 C1160 1.368 . S
C1176 C1172 1.368 . S
C1176 C1175 1.523 . S
H1177 C1152 0.950 . S
H1178 C1154 0.950 . S
H1179 C1155 0.949 . S
H1180 C1157 0.950 . S
H1181 C1159 0.950 . S
C1182 C1183 1.349 . S
C1182 C1184 1.327 . S
C1182 H1207 0.950 . S
C1183 C1182 1.349 . S
C1183 C1199 1.349 . S
C1184 C1182 1.327 . S
C1184 C1203 1.429 . S
C1184 H1208 0.950 . S
C1185 C1202 1.574 . S
C1185 C1204 1.368 . S
C1185 H1209 0.949 . S
H1186 C1190 0.949 . S
C1187 C1188 1.349 . S
C1187 C1189 1.327 . S
C1187 H1210 0.950 . S
C1188 C1187 1.349 . S
C1188 C1200 1.349 . S
C1189 C1187 1.327 . S
C1189 C1205 1.429 . S
C1189 H1211 0.950 . S
C1190 H1186 0.949 . S
C1190 C1198 1.574 . S
C1190 C1206 1.368 . S
H1191 C1199 0.950 . S
H1192 C1197 0.950 . S
H1193 C1198 0.949 . S
H1194 C1200 0.950 . S
H1195 C1201 0.950 . S
H1196 C1202 0.949 . S
C1197 H1192 0.950 . S
C1197 C1199 1.327 . S
C1197 C1203 1.429 . S
C1198 C1190 1.574 . S
C1198 H1193 0.949 . S
C1198 C1204 1.368 . S
C1199 C1183 1.349 . S
C1199 H1191 0.950 . S
C1199 C1197 1.327 . S
C1200 C1188 1.349 . S
C1200 H1194 0.950 . S
C1200 C1201 1.327 . S
C1201 H1195 0.950 . S
C1201 C1200 1.327 . S
C1201 C1205 1.429 . S
C1202 C1185 1.574 . S
C1202 H1196 0.949 . S
C1202 C1206 1.368 . S
C1203 C1184 1.429 . S
C1203 C1197 1.429 . S
C1203 C1204 1.523 . S
C1204 C1185 1.368 . S
C1204 C1198 1.368 . S
C1204 C1203 1.523 . S
C1205 C1189 1.429 . S
C1205 C1201 1.429 . S
C1205 C1206 1.523 . S
C1206 C1190 1.368 . S
C1206 C1202 1.368 . S
C1206 C1205 1.523 . S
H1207 C1182 0.950 . S
H1208 C1184 0.950 . S
H1209 C1185 0.949 . S
H1210 C1187 0.950 . S
H1211 C1189 0.950 . S
C1212 C1213 1.349 . S
C1212 C1214 1.327 . S
C1212 H1237 0.950 . S
C1213 C1212 1.349 . S
C1213 C1229 1.349 . S
C1214 C1212 1.327 . S
C1214 C1233 1.429 . S
C1214 H1238 0.950 . S
C1215 C1232 1.574 . S
C1215 C1234 1.368 . S
C1215 H1239 0.949 . S
H1216 C1220 0.949 . S
C1217 C1218 1.349 . S
C1217 C1219 1.327 . S
C1217 H1240 0.950 . S
C1218 C1217 1.349 . S
C1218 C1230 1.349 . S
C1219 C1217 1.327 . S
C1219 C1235 1.429 . S
C1219 H1241 0.950 . S
C1220 H1216 0.949 . S
C1220 C1228 1.574 . S
C1220 C1236 1.368 . S
H1221 C1229 0.950 . S
H1222 C1227 0.950 . S
H1223 C1228 0.949 . S
H1224 C1230 0.950 . S
H1225 C1231 0.950 . S
H1226 C1232 0.949 . S
C1227 H1222 0.950 . S
C1227 C1229 1.327 . S
C1227 C1233 1.429 . S
C1228 C1220 1.574 . S
C1228 H1223 0.949 . S
C1228 C1234 1.368 . S
C1229 C1213 1.349 . S
C1229 H1221 0.950 . S
C1229 C1227 1.327 . S
C1230 C1218 1.349 . S
C1230 H1224 0.950 . S
C1230 C1231 1.327 . S
C1231 H1225 0.950 . S
C1231 C1230 1.327 . S
C1231 C1235 1.429 . S
C1232 C1215 1.574 . S
C1232 H1226 0.949 . S
C1232 C1236 1.368 . S
C1233 C1214 1.429 . S
C1233 C1227 1.429 . S
C1233 C1234 1.523 . S
C1234 C1215 1.368 . S
C1234 C1228 1.368 . S
C1234 C1233 1.523 . S
C1235 C1219 1.429 . S
C1235 C1231 1.429 . S
C1235 C1236 1.523 . S
C1236 C1220 1.368 . S
C1236 C1232 1.368 . S
C1236 C1235 1.523 . S
H1237 C1212 0.950 . S
H1238 C1214 0.950 . S
H1239 C1215 0.949 . S
H1240 C1217 0.950 . S
H1241 C1219 0.950 . S
C1242 C1243 1.349 . S
C1242 C1244 1.327 . S
C1242 H1267 0.950 . S
C1243 C1242 1.349 . S
C1243 C1259 1.349 . S
C1244 C1242 1.327 . S
C1244 C1263 1.429 . S
C1244 H1268 0.950 . S
C1245 C1262 1.574 . S
C1245 C1264 1.368 . S
C1245 H1269 0.949 . S
H1246 C1250 0.949 . S
C1247 C1248 1.349 . S
C1247 C1249 1.327 . S
C1247 H1270 0.950 . S
C1248 C1247 1.349 . S
C1248 C1260 1.349 . S
C1249 C1247 1.327 . S
C1249 C1265 1.429 . S
C1249 H1271 0.950 . S
C1250 H1246 0.949 . S
C1250 C1258 1.574 . S
C1250 C1266 1.368 . S
H1251 C1259 0.950 . S
H1252 C1257 0.950 . S
H1253 C1258 0.949 . S
H1254 C1260 0.950 . S
H1255 C1261 0.950 . S
H1256 C1262 0.949 . S
C1257 H1252 0.950 . S
C1257 C1259 1.327 . S
C1257 C1263 1.429 . S
C1258 C1250 1.574 . S
C1258 H1253 0.949 . S
C1258 C1264 1.368 . S
C1259 C1243 1.349 . S
C1259 H1251 0.950 . S
C1259 C1257 1.327 . S
C1260 C1248 1.349 . S
C1260 H1254 0.950 . S
C1260 C1261 1.327 . S
C1261 H1255 0.950 . S
C1261 C1260 1.327 . S
C1261 C1265 1.429 . S
C1262 C1245 1.574 . S
C1262 H1256 0.949 . S
C1262 C1266 1.368 . S
C1263 C1244 1.429 . S
C1263 C1257 1.429 . S
C1263 C1264 1.523 . S
C1264 C1245 1.368 . S
C1264 C1258 1.368 . S
C1264 C1263 1.523 . S
C1265 C1249 1.429 . S
C1265 C1261 1.429 . S
C1265 C1266 1.523 . S
C1266 C1250 1.368 . S
C1266 C1262 1.368 . S
C1266 C1265 1.523 . S
H1267 C1242 0.950 . S
H1268 C1244 0.950 . S
H1269 C1245 0.949 . S
H1270 C1247 0.950 . S
H1271 C1249 0.950 . S
C1272 C1273 1.349 . S
C1272 C1274 1.327 . S
C1272 H1297 0.950 . S
C1273 C1272 1.349 . S
C1273 C1289 1.349 . S
C1274 C1272 1.327 . S
C1274 C1293 1.429 . S
C1274 H1298 0.950 . S
C1275 C1292 1.574 . S
C1275 C1294 1.368 . S
C1275 H1299 0.949 . S
H1276 C1280 0.949 . S
C1277 C1278 1.349 . S
C1277 C1279 1.327 . S
C1277 H1300 0.950 . S
C1278 C1277 1.349 . S
C1278 C1290 1.349 . S
C1279 C1277 1.327 . S
C1279 C1295 1.429 . S
C1279 H1301 0.950 . S
C1280 H1276 0.949 . S
C1280 C1288 1.574 . S
C1280 C1296 1.368 . S
H1281 C1289 0.950 . S
H1282 C1287 0.950 . S
H1283 C1288 0.949 . S
H1284 C1290 0.950 . S
H1285 C1291 0.950 . S
H1286 C1292 0.949 . S
C1287 H1282 0.950 . S
C1287 C1289 1.327 . S
C1287 C1293 1.429 . S
C1288 C1280 1.574 . S
C1288 H1283 0.949 . S
C1288 C1294 1.368 . S
C1289 C1273 1.349 . S
C1289 H1281 0.950 . S
C1289 C1287 1.327 . S
C1290 C1278 1.349 . S
C1290 H1284 0.950 . S
C1290 C1291 1.327 . S
C1291 H1285 0.950 . S
C1291 C1290 1.327 . S
C1291 C1295 1.429 . S
C1292 C1275 1.574 . S
C1292 H1286 0.949 . S
C1292 C1296 1.368 . S
C1293 C1274 1.429 . S
C1293 C1287 1.429 . S
C1293 C1294 1.523 . S
C1294 C1275 1.368 . S
C1294 C1288 1.368 . S
C1294 C1293 1.523 . S
C1295 C1279 1.429 . S
C1295 C1291 1.429 . S
C1295 C1296 1.523 . S
C1296 C1280 1.368 . S
C1296 C1292 1.368 . S
C1296 C1295 1.523 . S
H1297 C1272 0.950 . S
H1298 C1274 0.950 . S
H1299 C1275 0.949 . S
H1300 C1277 0.950 . S
H1301 C1279 0.950 . S
C1302 C1303 1.349 . S
C1302 C1304 1.327 . S
C1302 H1327 0.950 . S
C1303 C1302 1.349 . S
C1303 C1319 1.349 . S
C1304 C1302 1.327 . S
C1304 C1323 1.429 . S
C1304 H1328 0.950 . S
C1305 C1322 1.574 . S
C1305 C1324 1.368 . S
C1305 H1329 0.949 . S
H1306 C1310 0.949 . S
C1307 C1308 1.349 . S
C1307 C1309 1.327 . S
C1307 H1330 0.950 . S
C1308 C1307 1.349 . S
C1308 C1320 1.349 . S
C1309 C1307 1.327 . S
C1309 C1325 1.429 . S
C1309 H1331 0.950 . S
C1310 H1306 0.949 . S
C1310 C1318 1.574 . S
C1310 C1326 1.368 . S
H1311 C1319 0.950 . S
H1312 C1317 0.950 . S
H1313 C1318 0.949 . S
H1314 C1320 0.950 . S
H1315 C1321 0.950 . S
H1316 C1322 0.949 . S
C1317 H1312 0.950 . S
C1317 C1319 1.327 . S
C1317 C1323 1.429 . S
C1318 C1310 1.574 . S
C1318 H1313 0.949 . S
C1318 C1324 1.368 . S
C1319 C1303 1.349 . S
C1319 H1311 0.950 . S
C1319 C1317 1.327 . S
C1320 C1308 1.349 . S
C1320 H1314 0.950 . S
C1320 C1321 1.327 . S
C1321 H1315 0.950 . S
C1321 C1320 1.327 . S
C1321 C1325 1.429 . S
C1322 C1305 1.574 . S
C1322 H1316 0.949 . S
C1322 C1326 1.368 . S
C1323 C1304 1.429 . S
C1323 C1317 1.429 . S
C1323 C1324 1.523 . S
C1324 C1305 1.368 . S
C1324 C1318 1.368 . S
C1324 C1323 1.523 . S
C1325 C1309 1.429 . S
C1325 C1321 1.429 . S
C1325 C1326 1.523 . S
C1326 C1310 1.368 . S
C1326 C1322 1.368 . S
C1326 C1325 1.523 . S
H1327 C1302 0.950 . S
H1328 C1304 0.950 . S
H1329 C1305 0.949 . S
H1330 C1307 0.950 . S
H1331 C1309 0.950 . S
C253 C56 0.901 . S
C258 C13 0.896 . S
C283 C80 0.901 . S
C288 C37 0.896 . S
C313 C55 0.896 . S
C318 C98 0.901 . S
C343 C79 0.896 . S
C348 C122 0.901 . S
C373 C14 0.901 . S
C378 C97 0.896 . S
C403 C38 0.901 . S
C408 C121 0.896 . S
C433 C224 0.901 . S
C438 C139 0.896 . S
C463 C160 0.896 . S
C468 C245 0.901 . S
C493 C181 0.896 . S
C498 C140 0.901 . S
C523 C202 0.896 . S
C528 C161 0.901 . S
C553 C223 0.896 . S
C558 C182 0.901 . S
C583 C203 0.901 . S
C588 C244 0.896 . S
C613 C81 1.411 . S
C618 C15 1.411 . S
C643 C39 1.411 . S
C648 C99 1.411 . S
C673 C57 1.411 . S
C678 C123 1.411 . S
C703 C141 1.411 . S
C708 C204 1.411 . S
C733 C162 1.411 . S
C738 C225 1.411 . S
C763 C183 1.411 . S
C768 C246 1.411 . S
C793 C165 1.620 . S
C798 C18 1.620 . S
C823 C36 1.620 . S
C828 C186 1.620 . S
C853 C207 1.620 . S
C858 C60 1.620 . S
C883 C78 1.620 . S
C888 C228 1.620 . S
C913 C102 1.620 . S
C918 C249 1.620 . S
C943 C144 1.620 . S
C948 C120 1.620 . S
C973 C58 1.104 . S
C978 C17 1.057 . S
C1003 C35 1.057 . S
C1008 C76 1.104 . S
C1033 C59 1.057 . S
C1038 C100 1.104 . S
C1063 C77 1.057 . S
C1068 C118 1.104 . S
C1093 C16 1.104 . S
C1098 C101 1.057 . S
C1123 C34 1.104 . S
C1128 C119 1.057 . S
C1153 C226 1.104 . S
C1158 C143 1.057 . S
C1183 C164 1.057 . S
C1188 C247 1.104 . S
C1213 C185 1.057 . S
C1218 C142 1.104 . S
C1243 C163 1.104 . S
C1248 C206 1.057 . S
C1273 C227 1.057 . S
C1278 C184 1.104 . S
C1303 C248 1.057 . S
C1308 C205 1.104 . S
