# Generated by pormake.
# Topology vbm, (6)-cn, num edge types: 1
# Building blocks:
#     Node 0, Type 0, BuildingBlock: HISSIN_clean_sbu_0, # of connection points: 6
#     Node 1, Type 0, BuildingBlock: HISSIN_clean_sbu_0, # of connection points: 6
#     Node 2, Type 0, BuildingBlock: HISSIN_clean_sbu_0, # of connection points: 6
#     Node 3, Type 0, BuildingBlock: HISSIN_clean_sbu_0, # of connection points: 6
#     Node 4, Type 0, BuildingBlock: HISSIN_clean_sbu_0, # of connection points: 6
#     Node 5, Type 0, BuildingBlock: HISSIN_clean_sbu_0, # of connection points: 6
#     Node 6, Type 0, BuildingBlock: HISSIN_clean_sbu_0, # of connection points: 6
#     Node 7, Type 0, BuildingBlock: HISSIN_clean_sbu_0, # of connection points: 6
#     Node 8, Type 0, BuildingBlock: HISSIN_clean_sbu_0, # of connection points: 6
#     Node 9, Type 0, BuildingBlock: HISSIN_clean_sbu_0, # of connection points: 6
#     Node 10, Type 0, BuildingBlock: HISSIN_clean_sbu_0, # of connection points: 6
#     Node 11, Type 0, BuildingBlock: HISSIN_clean_sbu_0, # of connection points: 6
#     Node 12, Type 0, BuildingBlock: HISSIN_clean_sbu_0, # of connection points: 6
#     Node 13, Type 0, BuildingBlock: HISSIN_clean_sbu_0, # of connection points: 6
#     Node 14, Type 0, BuildingBlock: HISSIN_clean_sbu_0, # of connection points: 6
#     Node 15, Type 0, BuildingBlock: HISSIN_clean_sbu_0, # of connection points: 6
#     Edge 16, Type (0, 0), BuildingBlock: KIFKEQ_clean_linker_1, # of connection points: 2
#     Edge 17, Type (0, 0), BuildingBlock: KIFKEQ_clean_linker_1, # of connection points: 2
#     Edge 18, Type (0, 0), BuildingBlock: KIFKEQ_clean_linker_1, # of connection points: 2
#     Edge 19, Type (0, 0), BuildingBlock: KIFKEQ_clean_linker_1, # of connection points: 2
#     Edge 20, Type (0, 0), BuildingBlock: KIFKEQ_clean_linker_1, # of connection points: 2
#     Edge 21, Type (0, 0), BuildingBlock: KIFKEQ_clean_linker_1, # of connection points: 2
#     Edge 22, Type (0, 0), BuildingBlock: KIFKEQ_clean_linker_1, # of connection points: 2
#     Edge 23, Type (0, 0), BuildingBlock: KIFKEQ_clean_linker_1, # of connection points: 2
#     Edge 24, Type (0, 0), BuildingBlock: KIFKEQ_clean_linker_1, # of connection points: 2
#     Edge 25, Type (0, 0), BuildingBlock: KIFKEQ_clean_linker_1, # of connection points: 2
#     Edge 26, Type (0, 0), BuildingBlock: KIFKEQ_clean_linker_1, # of connection points: 2
#     Edge 27, Type (0, 0), BuildingBlock: KIFKEQ_clean_linker_1, # of connection points: 2
#     Edge 28, Type (0, 0), BuildingBlock: KIFKEQ_clean_linker_1, # of connection points: 2
#     Edge 29, Type (0, 0), BuildingBlock: KIFKEQ_clean_linker_1, # of connection points: 2
#     Edge 30, Type (0, 0), BuildingBlock: KIFKEQ_clean_linker_1, # of connection points: 2
#     Edge 31, Type (0, 0), BuildingBlock: KIFKEQ_clean_linker_1, # of connection points: 2
#     Edge 32, Type (0, 0), BuildingBlock: KIFKEQ_clean_linker_1, # of connection points: 2
#     Edge 33, Type (0, 0), BuildingBlock: KIFKEQ_clean_linker_1, # of connection points: 2
#     Edge 34, Type (0, 0), BuildingBlock: KIFKEQ_clean_linker_1, # of connection points: 2
#     Edge 35, Type (0, 0), BuildingBlock: KIFKEQ_clean_linker_1, # of connection points: 2
#     Edge 36, Type (0, 0), BuildingBlock: KIFKEQ_clean_linker_1, # of connection points: 2
#     Edge 37, Type (0, 0), BuildingBlock: KIFKEQ_clean_linker_1, # of connection points: 2
#     Edge 38, Type (0, 0), BuildingBlock: KIFKEQ_clean_linker_1, # of connection points: 2
#     Edge 39, Type (0, 0), BuildingBlock: KIFKEQ_clean_linker_1, # of connection points: 2
#     Edge 40, Type (0, 0), BuildingBlock: KIFKEQ_clean_linker_1, # of connection points: 2
#     Edge 41, Type (0, 0), BuildingBlock: KIFKEQ_clean_linker_1, # of connection points: 2
#     Edge 42, Type (0, 0), BuildingBlock: KIFKEQ_clean_linker_1, # of connection points: 2
#     Edge 43, Type (0, 0), BuildingBlock: KIFKEQ_clean_linker_1, # of connection points: 2
#     Edge 44, Type (0, 0), BuildingBlock: KIFKEQ_clean_linker_1, # of connection points: 2
#     Edge 45, Type (0, 0), BuildingBlock: KIFKEQ_clean_linker_1, # of connection points: 2
#     Edge 46, Type (0, 0), BuildingBlock: KIFKEQ_clean_linker_1, # of connection points: 2
#     Edge 47, Type (0, 0), BuildingBlock: KIFKEQ_clean_linker_1, # of connection points: 2
#     Edge 48, Type (0, 0), BuildingBlock: KIFKEQ_clean_linker_1, # of connection points: 2
#     Edge 49, Type (0, 0), BuildingBlock: KIFKEQ_clean_linker_1, # of connection points: 2
#     Edge 50, Type (0, 0), BuildingBlock: KIFKEQ_clean_linker_1, # of connection points: 2
#     Edge 51, Type (0, 0), BuildingBlock: KIFKEQ_clean_linker_1, # of connection points: 2
#     Edge 52, Type (0, 0), BuildingBlock: KIFKEQ_clean_linker_1, # of connection points: 2
#     Edge 53, Type (0, 0), BuildingBlock: KIFKEQ_clean_linker_1, # of connection points: 2
#     Edge 54, Type (0, 0), BuildingBlock: KIFKEQ_clean_linker_1, # of connection points: 2
#     Edge 55, Type (0, 0), BuildingBlock: KIFKEQ_clean_linker_1, # of connection points: 2
#     Edge 56, Type (0, 0), BuildingBlock: KIFKEQ_clean_linker_1, # of connection points: 2
#     Edge 57, Type (0, 0), BuildingBlock: KIFKEQ_clean_linker_1, # of connection points: 2
#     Edge 58, Type (0, 0), BuildingBlock: KIFKEQ_clean_linker_1, # of connection points: 2
#     Edge 59, Type (0, 0), BuildingBlock: KIFKEQ_clean_linker_1, # of connection points: 2
#     Edge 60, Type (0, 0), BuildingBlock: KIFKEQ_clean_linker_1, # of connection points: 2
#     Edge 61, Type (0, 0), BuildingBlock: KIFKEQ_clean_linker_1, # of connection points: 2
#     Edge 62, Type (0, 0), BuildingBlock: KIFKEQ_clean_linker_1, # of connection points: 2
#     Edge 63, Type (0, 0), BuildingBlock: KIFKEQ_clean_linker_1, # of connection points: 2
# Relax obj value: 0.061
# Max RMSD: 0.139
# Mean RMSD: 0.139
data_MOF--net-vbm--node1-HISSIN_clean_sbu_0--edge1-KIFKEQ_clean_linker_1
_symmetry_space_group_name_H-M    P1
_symmetry_Int_Tables_number       1
_symmetry_cell_setting            triclinic
loop_
_symmetry_equiv_pos_as_xyz
'x, y, z'
_cell_length_a     56.418255
_cell_length_b     25.948894
_cell_length_c     59.783213
_cell_angle_alpha  89.894529
_cell_angle_beta   89.874805
_cell_angle_gamma 89.987141
loop_
_atom_site_label
_atom_site_type_symbol
_atom_site_fract_x
_atom_site_fract_y
_atom_site_fract_z
_atom_type_partial_charge
Eu0 Eu 0.13755 0.08549 0.11839 0.0
Eu1 Eu 0.11517 0.1981 0.13535 0.0
C2 C 0.12686 0.10472 0.17046 0.0
C3 C 0.14831 0.94062 0.10809 0.0
C4 C 0.1371 0.92207 0.1275 0.0
C5 C 0.15036 0.85295 0.09387 0.0
C6 C 0.13273 0.8692 0.13014 0.0
C7 C 0.15476 0.90571 0.09129 0.0
C8 C 0.13942 0.83384 0.1134 0.0
C9 C 0.15371 0.9959 0.10512 0.0
O10 O 0.15155 0.21485 0.12263 0.0
O11 O 0.1689 0.13586 0.12782 0.0
C12 C 0.17044 0.18605 0.12479 0.0
O13 O 0.14044 0.1397 0.08923 0.0
O14 O 0.11795 0.26543 0.15686 0.0
O15 O 0.08879 0.25995 0.13346 0.0
O16 O 0.10897 0.19209 0.09775 0.0
C17 C 0.12414 0.17294 0.08319 0.0
O18 O 0.09759 0.08151 0.11465 0.0
O19 O 0.08616 0.14124 0.14085 0.0
O20 O 0.1265 0.15496 0.16689 0.0
O21 O 0.1384 1.02311 0.09381 0.0
O22 O 0.16169 1.02054 0.12257 0.0
O23 O 0.12678 0.0716 0.15394 0.0
C24 C 0.10328 0.34355 0.142 0.0
C25 C 0.12346 0.35995 0.1302 0.0
C26 C 0.09033 0.43272 0.14486 0.0
C27 C 0.12719 0.41249 0.12598 0.0
C28 C 0.08668 0.38024 0.14912 0.0
C29 C 0.11075 0.44963 0.13342 0.0
C30 C 0.0998 0.28885 0.14796 0.0
C31 C 0.0814 0.10218 0.12777 0.0
H32 H 0.13191 0.94838 0.14069 0.0
H33 H 0.15538 0.82718 0.08045 0.0
H34 H 0.1245 0.85598 0.14549 0.0
H35 H 0.16331 0.91927 0.07613 0.0
H36 H 0.13647 0.33219 0.12449 0.0
H37 H 0.07744 0.46015 0.15106 0.0
H38 H 0.14294 0.42403 0.11687 0.0
H39 H 0.07105 0.36837 0.15835 0.0
Eu40 Eu 0.85793 0.98332 0.12394 0.0
Eu41 Eu 0.88014 0.86981 0.13855 0.0
C42 C 0.86938 0.95784 0.17516 0.0
C43 C 0.84402 0.12841 0.11794 0.0
C44 C 0.86565 0.14705 0.12621 0.0
C45 C 0.82865 0.21589 0.11741 0.0
C46 C 0.86885 0.19993 0.12978 0.0
C47 C 0.82551 0.1631 0.11379 0.0
C48 C 0.85046 0.23513 0.12519 0.0
C49 C 0.84075 0.0735 0.11256 0.0
O50 O 0.84077 0.86428 0.14241 0.0
O51 O 0.82947 0.92446 0.11651 0.0
C52 C 0.82508 0.88298 0.12847 0.0
O53 O 0.87393 0.94795 0.09316 0.0
O54 O 0.88202 0.80675 0.16277 0.0
O55 O 0.90318 0.80373 0.13253 0.0
O56 O 0.87019 0.86235 0.10182 0.0
C57 C 0.87306 0.89948 0.08703 0.0
O58 O 0.89577 0.99901 0.13402 0.0
O59 O 0.91094 0.91817 0.12761 0.0
O60 O 0.8847 0.92264 0.1686 0.0
O61 O 0.85825 0.05084 0.10227 0.0
O62 O 0.8314 0.04432 0.12801 0.0
O63 O 0.85364 0.97667 0.16125 0.0
C64 C 0.89004 0.72446 0.14775 0.0
C65 C 0.87493 0.708 0.13057 0.0
C66 C 0.89405 0.63579 0.1603 0.0
C67 C 0.86958 0.65558 0.12815 0.0
C68 C 0.89946 0.68808 0.16262 0.0
C69 C 0.87911 0.61882 0.14299 0.0
C70 C 0.89628 0.77917 0.15046 0.0
C71 C 0.91381 0.96792 0.13043 0.0
H72 H 0.88019 0.12085 0.12952 0.0
H73 H 0.81397 0.24164 0.11408 0.0
H74 H 0.88594 0.21331 0.13558 0.0
H75 H 0.80867 0.1494 0.10747 0.0
H76 H 0.86733 0.73564 0.11902 0.0
H77 H 0.90191 0.60852 0.17183 0.0
H78 H 0.85781 0.64387 0.11481 0.0
H79 H 0.91116 0.7001 0.17598 0.0
Eu80 Eu 0.13725 0.97282 0.37906 0.0
Eu81 Eu 0.11481 0.86008 0.36297 0.0
C82 C 0.12511 0.95366 0.32768 0.0
C83 C 0.14826 0.11771 0.38873 0.0
C84 C 0.13045 0.13426 0.37402 0.0
C85 C 0.15617 0.20697 0.39849 0.0
C86 C 0.12558 0.18695 0.37151 0.0
C87 C 0.16101 0.15437 0.40096 0.0
C88 C 0.13841 0.22406 0.38371 0.0
C89 C 0.15396 0.06261 0.39141 0.0
O90 O 0.15159 0.84359 0.37444 0.0
O91 O 0.16838 0.92275 0.3683 0.0
C92 C 0.17027 0.87259 0.37136 0.0
O93 O 0.14159 0.91944 0.40823 0.0
O94 O 0.11707 0.79379 0.34063 0.0
O95 O 0.08895 0.79756 0.36535 0.0
O96 O 0.11095 0.86392 0.40098 0.0
C97 C 0.12615 0.88499 0.41501 0.0
O98 O 0.09751 0.97576 0.38504 0.0
O99 O 0.08509 0.9162 0.35925 0.0
O100 O 0.12582 0.90349 0.3313 0.0
O101 O 0.13929 0.03529 0.40346 0.0
O102 O 0.16086 0.03823 0.37347 0.0
O103 O 0.12431 0.98655 0.34425 0.0
C104 C 0.10307 0.71441 0.35481 0.0
C105 C 0.10882 0.69643 0.37631 0.0
C106 C 0.10518 0.62648 0.34092 0.0
C107 C 0.11261 0.64367 0.38008 0.0
C108 C 0.10128 0.67902 0.33721 0.0
C109 C 0.11095 0.60806 0.36238 0.0
C110 C 0.09938 0.76969 0.35005 0.0
C111 C 0.08073 0.95472 0.37278 0.0
H112 H 0.12036 0.10644 0.36446 0.0
H113 H 0.16666 0.23429 0.4079 0.0
H114 H 0.11161 0.19857 0.36019 0.0
H115 H 0.17487 0.14232 0.41234 0.0
H116 H 0.11051 0.72313 0.39012 0.0
H117 H 0.10344 0.60018 0.32697 0.0
H118 H 0.11725 0.63087 0.39675 0.0
H119 H 0.09689 0.69209 0.3205 0.0
Eu120 Eu 0.8559 0.0737 0.38265 0.0
Eu121 Eu 0.88053 0.1873 0.37106 0.0
C122 C 0.86896 0.10427 0.33258 0.0
C123 C 0.84127 0.92806 0.38661 0.0
C124 C 0.8558 0.912 0.36886 0.0
C125 C 0.83458 0.8385 0.39674 0.0
C126 C 0.8597 0.85933 0.36508 0.0
C127 C 0.83067 0.89098 0.40043 0.0
C128 C 0.84919 0.82185 0.37905 0.0
C129 C 0.83761 0.983 0.39169 0.0
O130 O 0.84143 0.19765 0.36664 0.0
O131 O 0.82718 0.13293 0.38921 0.0
C132 C 0.82441 0.17709 0.37864 0.0
O133 O 0.86823 0.10625 0.41529 0.0
O134 O 0.88521 0.25058 0.34739 0.0
O135 O 0.90389 0.252 0.37895 0.0
O136 O 0.86958 0.19299 0.40765 0.0
C137 C 0.86879 0.15436 0.42198 0.0
O138 O 0.89426 0.05725 0.37386 0.0
O139 O 0.90996 0.13623 0.3827 0.0
O140 O 0.88513 0.13616 0.34033 0.0
O141 O 0.85397 1.00499 0.40367 0.0
O142 O 0.83023 1.01271 0.37553 0.0
O143 O 0.85221 0.08649 0.34568 0.0
C144 C 0.89323 0.33226 0.36305 0.0
C145 C 0.87067 0.34879 0.3699 0.0
C146 C 0.90563 0.42164 0.35972 0.0
C147 C 0.86558 0.40153 0.3715 0.0
C148 C 0.91065 0.36899 0.35804 0.0
C149 C 0.88302 0.43864 0.36642 0.0
C150 C 0.89885 0.27711 0.36066 0.0
C151 C 0.91249 0.08685 0.37874 0.0
H152 H 0.86424 0.94015 0.35806 0.0
H153 H 0.82655 0.81101 0.4081 0.0
H154 H 0.87086 0.848 0.35118 0.0
H155 H 0.81957 0.90269 0.41435 0.0
H156 H 0.85703 0.32091 0.37395 0.0
H157 H 0.91938 0.44906 0.35541 0.0
H158 H 0.84807 0.41324 0.37696 0.0
H159 H 0.92815 0.35694 0.35265 0.0
Eu160 Eu 0.87877 0.86587 0.8686 0.0
Eu161 Eu 0.8535 0.97897 0.8791 0.0
C162 C 0.8656 0.89862 0.9192 0.0
C163 C 0.89126 0.72135 0.85997 0.0
C164 C 0.87255 0.7044 0.87364 0.0
C165 C 0.89901 0.63271 0.84916 0.0
C166 C 0.86719 0.65176 0.87514 0.0
C167 C 0.9044 0.68522 0.84775 0.0
C168 C 0.88035 0.61526 0.86288 0.0
C169 C 0.89722 0.77642 0.85805 0.0
O170 O 0.89222 0.99555 0.87199 0.0
O171 O 0.90768 0.91661 0.88145 0.0
C172 C 0.91025 0.96608 0.87766 0.0
O173 O 0.88487 0.91879 0.83866 0.0
O174 O 0.84982 0.0476 0.89971 0.0
O175 O 0.82864 0.04035 0.86979 0.0
O176 O 0.85027 0.96299 0.84229 0.0
C177 C 0.86822 0.9481 0.83004 0.0
O178 O 0.83971 0.85504 0.86371 0.0
O179 O 0.8249 0.91993 0.88577 0.0
O180 O 0.86432 0.94668 0.91237 0.0
O181 O 0.88407 0.80363 0.84455 0.0
O182 O 0.90179 0.80078 0.87661 0.0
O183 O 0.86741 0.85994 0.90503 0.0
C184 C 0.8395 0.12479 0.88109 0.0
C185 C 0.86262 0.14313 0.8775 0.0
C186 C 0.82462 0.21236 0.87766 0.0
C187 C 0.86673 0.1959 0.87436 0.0
C188 C 0.82055 0.15968 0.88087 0.0
C189 C 0.8478 0.23133 0.87469 0.0
C190 C 0.83488 0.07012 0.88629 0.0
C191 C 0.82246 0.87551 0.87545 0.0
H192 H 0.86209 0.73186 0.88308 0.0
H193 H 0.90969 0.60568 0.83972 0.0
H194 H 0.85255 0.63971 0.88566 0.0
H195 H 0.91889 0.69763 0.83711 0.0
H196 H 0.87753 0.11681 0.8776 0.0
H197 H 0.80956 0.23825 0.87758 0.0
H198 H 0.88482 0.20904 0.87233 0.0
H199 H 0.80257 0.14625 0.88353 0.0
Eu200 Eu 0.11213 0.19349 0.86365 0.0
Eu201 Eu 0.13469 0.0805 0.87854 0.0
C202 C 0.12361 0.16565 0.91546 0.0
C203 C 0.09988 0.33879 0.85731 0.0
C204 C 0.12081 0.35534 0.86773 0.0
C205 C 0.0865 0.42772 0.85531 0.0
C206 C 0.12469 0.40787 0.87164 0.0
C207 C 0.0827 0.37525 0.85133 0.0
C208 C 0.10765 0.44478 0.86531 0.0
C209 C 0.09616 0.28416 0.85163 0.0
O210 O 0.09511 0.0771 0.88527 0.0
O211 O 0.08245 0.1374 0.85984 0.0
C212 C 0.07819 0.09857 0.87328 0.0
O213 O 0.12321 0.15159 0.83167 0.0
O214 O 0.13764 1.01719 0.90257 0.0
O215 O 0.15812 1.01548 0.87184 0.0
O216 O 0.12028 0.06844 0.84414 0.0
C217 C 0.12141 0.10173 0.8277 0.0
O218 O 0.14892 0.2099 0.87506 0.0
O219 O 0.16557 0.13127 0.86771 0.0
O220 O 0.13909 0.13184 0.90823 0.0
O221 O 0.11388 0.26079 0.84193 0.0
O222 O 0.08586 0.2553 0.86668 0.0
O223 O 0.10852 0.18802 0.90168 0.0
C224 C 0.14626 0.93523 0.88727 0.0
C225 C 0.13362 0.9168 0.86872 0.0
C226 C 0.14943 0.8476 0.90138 0.0
C227 C 0.12911 0.86396 0.86644 0.0
C228 C 0.15398 0.90031 0.9036 0.0
C229 C 0.13708 0.8286 0.88269 0.0
C230 C 0.15184 0.9904 0.88986 0.0
C231 C 0.16756 0.18115 0.87138 0.0
H232 H 0.13427 0.32771 0.87256 0.0
H233 H 0.07313 0.45505 0.84999 0.0
H234 H 0.14102 0.41959 0.87964 0.0
H235 H 0.06648 0.36322 0.84319 0.0
H236 H 0.12744 0.94317 0.85593 0.0
H237 H 0.15546 0.82177 0.91443 0.0
H238 H 0.11975 0.85076 0.85173 0.0
H239 H 0.16364 0.91383 0.9181 0.0
Eu240 Eu 0.88246 0.20684 0.64054 0.0
Eu241 Eu 0.85794 0.09311 0.6309 0.0
C242 C 0.87524 0.16449 0.59074 0.0
C243 C 0.89469 0.35282 0.64514 0.0
C244 C 0.87887 0.36878 0.6284 0.0
C245 C 0.90084 0.44224 0.65556 0.0
C246 C 0.87418 0.42133 0.62518 0.0
C247 C 0.90557 0.38986 0.65868 0.0
C248 C 0.88512 0.4587 0.63875 0.0
C249 C 0.90028 0.29801 0.64872 0.0
O250 O 0.89641 0.07457 0.63766 0.0
O251 O 0.91319 0.15517 0.63309 0.0
C252 C 0.91496 0.10498 0.63537 0.0
O253 O 0.88711 0.1566 0.6714 0.0
O254 O 0.84241 0.03443 0.60903 0.0
O255 O 0.84332 1.0224 0.64483 0.0
O256 O 0.85188 0.11621 0.66676 0.0
C257 C 0.86965 0.12902 0.67962 0.0
O258 O 0.84334 0.21722 0.64557 0.0
O259 O 0.82966 0.15203 0.62321 0.0
O260 O 0.87621 0.11781 0.59921 0.0
O261 O 0.88674 0.273 0.66274 0.0
O262 O 0.90541 0.27085 0.63101 0.0
O263 O 0.87221 0.20485 0.60377 0.0
C264 C 0.84501 0.94829 0.62231 0.0
C265 C 0.86847 0.93192 0.62552 0.0
C266 C 0.83298 0.85924 0.61708 0.0
C267 C 0.87407 0.87935 0.62485 0.0
C268 C 0.82742 0.91174 0.61777 0.0
C269 C 0.85631 0.84225 0.62098 0.0
C270 C 0.83819 1.00254 0.62544 0.0
C271 C 0.82645 0.19597 0.63371 0.0
H272 H 0.87019 0.34066 0.61784 0.0
H273 H 0.90981 0.46993 0.6661 0.0
H274 H 0.8618 0.43266 0.61226 0.0
H275 H 0.91786 0.37824 0.67166 0.0
H276 H 0.8823 0.95967 0.62907 0.0
H277 H 0.8188 0.83188 0.61434 0.0
H278 H 0.89227 0.86771 0.62762 0.0
H279 H 0.80918 0.92368 0.61541 0.0
Eu280 Eu 0.11445 0.86307 0.63414 0.0
Eu281 Eu 0.13689 0.977 0.61918 0.0
C282 C 0.1202 0.89479 0.58242 0.0
C283 C 0.10382 0.71728 0.64263 0.0
C284 C 0.1255 0.70139 0.63336 0.0
C285 C 0.09217 0.62763 0.64673 0.0
C286 C 0.13051 0.64878 0.63088 0.0
C287 C 0.08723 0.6801 0.64926 0.0
C288 C 0.11387 0.61122 0.63752 0.0
C289 C 0.09819 0.77221 0.64574 0.0
O290 O 0.09948 0.994 0.63041 0.0
O291 O 0.0832 0.91306 0.62634 0.0
C292 C 0.08106 0.96305 0.62896 0.0
O293 O 0.11131 0.91473 0.66472 0.0
O294 O 0.13633 0.0445 0.59735 0.0
O295 O 0.16384 0.03714 0.6223 0.0
O296 O 0.14098 0.97226 0.65652 0.0
C297 C 0.12595 0.95175 0.67077 0.0
O298 O 0.15377 0.85732 0.6376 0.0
O299 O 0.16496 0.91708 0.61144 0.0
O300 O 0.11953 0.94299 0.58891 0.0
O301 O 0.11296 0.79899 0.65778 0.0
O302 O 0.09106 0.79742 0.6281 0.0
O303 O 0.123 0.85714 0.59699 0.0
C304 C 0.15163 0.12159 0.61223 0.0
C305 C 0.13979 0.13816 0.6316 0.0
C306 C 0.15712 0.21088 0.60106 0.0
C307 C 0.13662 0.19093 0.63565 0.0
C308 C 0.16031 0.15826 0.59708 0.0
C309 C 0.14517 0.22802 0.62037 0.0
C310 C 0.15435 0.06648 0.607 0.0
C311 C 0.16934 0.87555 0.62338 0.0
H312 H 0.13849 0.72964 0.62806 0.0
H313 H 0.07909 0.59987 0.65232 0.0
H314 H 0.14728 0.63753 0.62352 0.0
H315 H 0.07044 0.69168 0.65652 0.0
H316 H 0.13287 0.11033 0.64347 0.0
H317 H 0.16358 0.23809 0.58872 0.0
H318 H 0.12756 0.20266 0.65079 0.0
H319 H 0.16931 0.14615 0.58194 0.0
Eu320 Eu 0.64004 0.58428 0.12218 0.0
Eu321 Eu 0.61493 0.69754 0.13252 0.0
C322 C 0.62885 0.61926 0.17153 0.0
C323 C 0.6526 0.43887 0.11549 0.0
C324 C 0.63561 0.41941 0.13048 0.0
C325 C 0.65888 0.35225 0.10122 0.0
C326 C 0.63058 0.3666 0.13109 0.0
C327 C 0.66398 0.405 0.10073 0.0
C328 C 0.64233 0.3322 0.11662 0.0
C329 C 0.65949 0.4937 0.11567 0.0
O330 O 0.65401 0.70946 0.13624 0.0
O331 O 0.66835 0.64344 0.11452 0.0
C332 C 0.67104 0.68825 0.12447 0.0
O333 O 0.62284 0.61063 0.09033 0.0
O334 O 0.61055 0.76323 0.15483 0.0
O335 O 0.59105 0.76066 0.12367 0.0
O336 O 0.62476 0.69785 0.09557 0.0
C337 C 0.62312 0.65766 0.08222 0.0
O338 O 0.60185 0.56519 0.13044 0.0
O339 O 0.58477 0.64496 0.1247 0.0
O340 O 0.6115 0.64798 0.16382 0.0
O341 O 0.65152 0.52265 0.09953 0.0
O342 O 0.65877 0.51703 0.13493 0.0
O343 O 0.6461 0.60535 0.15817 0.0
C344 C 0.6018 0.84269 0.13734 0.0
C345 C 0.62453 0.85889 0.13085 0.0
C346 C 0.58857 0.93176 0.13708 0.0
C347 C 0.6293 0.91138 0.12767 0.0
C348 C 0.58387 0.87939 0.14036 0.0
C349 C 0.61136 0.94845 0.13077 0.0
C350 C 0.59646 0.78792 0.14124 0.0
C351 C 0.58316 0.59503 0.12778 0.0
H352 H 0.62654 0.44485 0.14202 0.0
H353 H 0.66794 0.32719 0.08954 0.0
H354 H 0.61793 0.35262 0.14332 0.0
H355 H 0.67708 0.41928 0.08897 0.0
H356 H 0.63855 0.83099 0.1283 0.0
H357 H 0.57444 0.95929 0.13988 0.0
H358 H 0.64696 0.92289 0.12257 0.0
H359 H 0.56623 0.86755 0.1454 0.0
Eu360 Eu 0.35982 0.47379 0.1144 0.0
Eu361 Eu 0.38208 0.35992 0.12871 0.0
C362 C 0.37332 0.44983 0.16566 0.0
C363 C 0.34493 0.61806 0.10821 0.0
C364 C 0.36631 0.63693 0.11694 0.0
C365 C 0.32934 0.70532 0.10742 0.0
C366 C 0.3693 0.68982 0.12058 0.0
C367 C 0.32642 0.65251 0.10372 0.0
C368 C 0.35093 0.7248 0.11563 0.0
C369 C 0.34194 0.56311 0.10281 0.0
O370 O 0.34324 0.3572 0.13567 0.0
O371 O 0.33104 0.41408 0.10893 0.0
C372 C 0.32685 0.37475 0.12226 0.0
O373 O 0.3755 0.43896 0.08357 0.0
O374 O 0.38433 0.29601 0.15247 0.0
O375 O 0.40435 0.29317 0.12157 0.0
O376 O 0.37126 0.35357 0.09194 0.0
C377 C 0.37364 0.39093 0.07713 0.0
O378 O 0.39785 0.49025 0.12386 0.0
O379 O 0.41344 0.40863 0.11991 0.0
O380 O 0.38686 0.41099 0.15936 0.0
O381 O 0.35958 0.54094 0.09251 0.0
O382 O 0.33279 0.53375 0.1183 0.0
O383 O 0.3583 0.47177 0.15189 0.0
C384 C 0.39148 0.21381 0.13701 0.0
C385 C 0.37665 0.1973 0.11962 0.0
C386 C 0.39467 0.1254 0.1501 0.0
C387 C 0.37104 0.14497 0.11738 0.0
C388 C 0.40034 0.17759 0.15225 0.0
C389 C 0.38002 0.10838 0.13259 0.0
C390 C 0.39799 0.26839 0.13961 0.0
C391 C 0.41602 0.45859 0.12218 0.0
H392 H 0.38084 0.61088 0.12054 0.0
H393 H 0.31467 0.73091 0.10382 0.0
H394 H 0.38622 0.7034 0.12671 0.0
H395 H 0.30976 0.63861 0.09707 0.0
H396 H 0.36948 0.22481 0.10777 0.0
H397 H 0.40212 0.09824 0.16193 0.0
H398 H 0.3595 0.13321 0.10386 0.0
H399 H 0.41181 0.18966 0.16579 0.0
Eu400 Eu 0.6385 0.47786 0.37821 0.0
Eu401 Eu 0.61745 0.36483 0.36133 0.0
C402 C 0.62908 0.45588 0.32606 0.0
C403 C 0.65205 0.6225 0.38575 0.0
C404 C 0.63117 0.64112 0.37587 0.0
C405 C 0.66715 0.71013 0.38749 0.0
C406 C 0.6282 0.69403 0.37208 0.0
C407 C 0.67006 0.6573 0.39132 0.0
C408 C 0.64607 0.72933 0.37804 0.0
C409 C 0.65501 0.56742 0.39115 0.0
O410 O 0.65691 0.36126 0.35832 0.0
O411 O 0.66683 0.41831 0.38586 0.0
C412 C 0.67187 0.37815 0.37331 0.0
O413 O 0.62048 0.44112 0.40779 0.0
O414 O 0.61741 0.3018 0.3371 0.0
O415 O 0.5944 0.29822 0.36611 0.0
O416 O 0.62592 0.35652 0.39836 0.0
C417 C 0.62167 0.39234 0.4134 0.0
O418 O 0.60129 0.49448 0.36642 0.0
O419 O 0.58559 0.41281 0.36954 0.0
O420 O 0.61423 0.41866 0.33142 0.0
O421 O 0.63687 0.54444 0.4003 0.0
O422 O 0.66537 0.5387 0.37617 0.0
O423 O 0.64379 0.47511 0.34086 0.0
C424 C 0.60873 0.21916 0.35171 0.0
C425 C 0.62239 0.20259 0.36996 0.0
C426 C 0.60583 0.13051 0.33896 0.0
C427 C 0.62754 0.15014 0.3728 0.0
C428 C 0.60061 0.18283 0.33621 0.0
C429 C 0.61925 0.11342 0.35734 0.0
C430 C 0.60252 0.27388 0.34862 0.0
C431 C 0.58307 0.46288 0.36742 0.0
H432 H 0.61702 0.61485 0.37143 0.0
H433 H 0.68147 0.73592 0.39192 0.0
H434 H 0.61165 0.70735 0.36498 0.0
H435 H 0.68634 0.64364 0.39889 0.0
H436 H 0.62898 0.23016 0.38204 0.0
H437 H 0.59893 0.10331 0.32689 0.0
H438 H 0.63815 0.13836 0.38699 0.0
H439 H 0.59003 0.19491 0.32203 0.0
Eu440 Eu 0.35972 0.58318 0.37325 0.0
Eu441 Eu 0.3811 0.69692 0.35717 0.0
C442 C 0.37264 0.60452 0.32126 0.0
C443 C 0.34523 0.43925 0.38249 0.0
C444 C 0.35576 0.42094 0.36274 0.0
C445 C 0.34136 0.3511 0.3958 0.0
C446 C 0.35903 0.36788 0.35954 0.0
C447 C 0.33802 0.40399 0.39892 0.0
C448 C 0.352 0.33232 0.37612 0.0
C449 C 0.34216 0.49479 0.38667 0.0
O450 O 0.34207 0.69856 0.35122 0.0
O451 O 0.3311 0.64327 0.37906 0.0
C452 C 0.32629 0.68186 0.36552 0.0
O453 O 0.37772 0.61924 0.40271 0.0
O454 O 0.38168 0.76211 0.33408 0.0
O455 O 0.40434 0.76285 0.36327 0.0
O456 O 0.37098 0.70362 0.39404 0.0
C457 C 0.3756 0.66742 0.40885 0.0
O458 O 0.39745 0.56606 0.36328 0.0
O459 O 0.41296 0.6483 0.36487 0.0
O460 O 0.38533 0.64532 0.32671 0.0
O461 O 0.35977 0.51806 0.39644 0.0
O462 O 0.33303 0.52248 0.37061 0.0
O463 O 0.35852 0.58149 0.33566 0.0
C464 C 0.39089 0.84349 0.34982 0.0
C465 C 0.36779 0.8598 0.35503 0.0
C466 C 0.40422 0.93246 0.35129 0.0
C467 C 0.36294 0.91229 0.35821 0.0
C468 C 0.40902 0.88016 0.34802 0.0
C469 C 0.38113 0.94927 0.3564 0.0
C470 C 0.39657 0.78873 0.34607 0.0
C471 C 0.41555 0.59804 0.36376 0.0
H472 H 0.36161 0.44764 0.34992 0.0
H473 H 0.33546 0.32485 0.40877 0.0
H474 H 0.3675 0.35477 0.34431 0.0
H475 H 0.32987 0.41741 0.41427 0.0
H476 H 0.35355 0.83202 0.35661 0.0
H477 H 0.41858 0.95986 0.34946 0.0
H478 H 0.34501 0.92385 0.36236 0.0
H479 H 0.42694 0.86832 0.34397 0.0
Eu480 Eu 0.37938 0.35399 0.85715 0.0
Eu481 Eu 0.35786 0.46677 0.87358 0.0
C482 C 0.37426 0.38159 0.90909 0.0
C483 C 0.38829 0.20789 0.84789 0.0
C484 C 0.37832 0.18943 0.86791 0.0
C485 C 0.38811 0.12065 0.83313 0.0
C486 C 0.37355 0.13677 0.8706 0.0
C487 C 0.39294 0.17318 0.8305 0.0
C488 C 0.37858 0.10158 0.8533 0.0
C489 C 0.39441 0.26275 0.84485 0.0
O490 O 0.39535 0.48398 0.86269 0.0
O491 O 0.41116 0.40224 0.86533 0.0
C492 C 0.41361 0.45245 0.8637 0.0
O493 O 0.38345 0.40762 0.8272 0.0
O494 O 0.35847 0.53279 0.89607 0.0
O495 O 0.33108 0.5276 0.87095 0.0
O496 O 0.35376 0.4644 0.83613 0.0
C497 C 0.36872 0.44486 0.82156 0.0
O498 O 0.34012 0.35208 0.85222 0.0
O499 O 0.32949 0.40679 0.88033 0.0
O500 O 0.3755 0.43023 0.90327 0.0
O501 O 0.37973 0.29053 0.83309 0.0
O502 O 0.40235 0.28741 0.86229 0.0
O503 O 0.37013 0.34553 0.89415 0.0
C504 C 0.34399 0.61103 0.88134 0.0
C505 C 0.36339 0.62821 0.86862 0.0
C506 C 0.33131 0.69987 0.88615 0.0
C507 C 0.36683 0.68099 0.86485 0.0
C508 C 0.32793 0.64714 0.88994 0.0
C509 C 0.35089 0.71755 0.87369 0.0
C510 C 0.3407 0.55594 0.88646 0.0
C511 C 0.32453 0.36838 0.8668 0.0
H512 H 0.37449 0.2156 0.88155 0.0
H513 H 0.39178 0.095 0.81928 0.0
H514 H 0.36641 0.12351 0.88642 0.0
H515 H 0.40047 0.18669 0.81487 0.0
H516 H 0.37597 0.60083 0.8618 0.0
H517 H 0.31886 0.72685 0.89343 0.0
H518 H 0.38192 0.69317 0.85494 0.0
H519 H 0.31292 0.63459 0.89989 0.0
Eu520 Eu 0.61441 0.69022 0.86208 0.0
Eu521 Eu 0.63635 0.57652 0.87708 0.0
C522 C 0.61933 0.65856 0.91357 0.0
C523 C 0.60484 0.83612 0.85362 0.0
C524 C 0.6197 0.85234 0.87104 0.0
C525 C 0.60118 0.92489 0.84112 0.0
C526 C 0.6251 0.90471 0.87359 0.0
C527 C 0.59571 0.87267 0.83867 0.0
C528 C 0.61587 0.94162 0.85865 0.0
C529 C 0.59862 0.78147 0.85067 0.0
O530 O 0.59904 0.55936 0.86577 0.0
O531 O 0.58288 0.64051 0.8696 0.0
C532 C 0.58065 0.59048 0.86706 0.0
O533 O 0.61128 0.63924 0.83136 0.0
O534 O 0.63609 0.50985 0.89925 0.0
O535 O 0.66315 0.51588 0.87369 0.0
O536 O 0.64041 0.58056 0.83964 0.0
C537 C 0.62578 0.60193 0.82531 0.0
O538 O 0.6537 0.69506 0.85807 0.0
O539 O 0.66463 0.63609 0.88457 0.0
O540 O 0.6181 0.61048 0.90703 0.0
O541 O 0.61294 0.75418 0.83831 0.0
O542 O 0.59155 0.75647 0.86843 0.0
O543 O 0.62342 0.69587 0.89913 0.0
C544 C 0.65055 0.43202 0.88403 0.0
C545 C 0.6291 0.41327 0.87542 0.0
C546 C 0.66594 0.34459 0.885 0.0
C547 C 0.626 0.36036 0.87189 0.0
C548 C 0.66899 0.39742 0.88858 0.0
C549 C 0.64431 0.32524 0.87685 0.0
C550 C 0.65373 0.48706 0.88922 0.0
C551 C 0.66922 0.67701 0.87229 0.0
H552 H 0.62708 0.82456 0.88265 0.0
H553 H 0.59355 0.95229 0.8295 0.0
H554 H 0.63668 0.91626 0.8871 0.0
H555 H 0.58422 0.86082 0.82512 0.0
H556 H 0.61463 0.43941 0.87179 0.0
H557 H 0.68058 0.3189 0.88862 0.0
H558 H 0.60903 0.3469 0.86581 0.0
H559 H 0.6857 0.41122 0.89516 0.0
Eu560 Eu 0.3778 0.68663 0.62788 0.0
Eu561 Eu 0.3538 0.57341 0.61541 0.0
C562 C 0.36744 0.65553 0.57663 0.0
C563 C 0.38915 0.83148 0.63686 0.0
C564 C 0.37252 0.8485 0.62105 0.0
C565 C 0.39465 0.91988 0.64914 0.0
C566 C 0.36713 0.90106 0.61919 0.0
C567 C 0.4001 0.86745 0.65089 0.0
C568 C 0.37814 0.9374 0.63323 0.0
C569 C 0.39524 0.77653 0.6391 0.0
O570 O 0.39209 0.55714 0.62419 0.0
O571 O 0.4076 0.63681 0.61604 0.0
C572 C 0.41024 0.58725 0.61954 0.0
O573 O 0.3827 0.6341 0.65816 0.0
O574 O 0.35249 0.50496 0.59446 0.0
O575 O 0.32775 0.51246 0.62195 0.0
O576 O 0.34991 0.58442 0.65251 0.0
C577 C 0.36664 0.60156 0.66571 0.0
O578 O 0.33861 0.69552 0.63216 0.0
O579 O 0.32524 0.63252 0.60846 0.0
O580 O 0.36691 0.60718 0.58311 0.0
O581 O 0.38156 0.74912 0.65207 0.0
O582 O 0.40091 0.75213 0.62079 0.0
O583 O 0.36743 0.6936 0.5912 0.0
C584 C 0.33968 0.42793 0.61176 0.0
C585 C 0.36202 0.40949 0.61829 0.0
C586 C 0.32444 0.34036 0.61293 0.0
C587 C 0.36563 0.35666 0.62179 0.0
C588 C 0.32089 0.39309 0.60938 0.0
C589 C 0.34694 0.3213 0.61887 0.0
C590 C 0.3359 0.48266 0.60617 0.0
C591 C 0.32204 0.67586 0.61945 0.0
H592 H 0.36374 0.82118 0.61018 0.0
H593 H 0.40366 0.9468 0.66001 0.0
H594 H 0.35414 0.91318 0.60695 0.0
H595 H 0.41296 0.85499 0.6632 0.0
H596 H 0.37679 0.43578 0.62022 0.0
H597 H 0.30954 0.3145 0.61094 0.0
H598 H 0.38323 0.34344 0.62614 0.0
H599 H 0.3035 0.40661 0.60442 0.0
Eu600 Eu 0.61294 0.36268 0.63245 0.0
Eu601 Eu 0.63482 0.47539 0.61605 0.0
C602 C 0.62358 0.38799 0.58041 0.0
C603 C 0.60114 0.2172 0.63926 0.0
C604 C 0.62177 0.20068 0.62824 0.0
C605 C 0.58784 0.12825 0.6416 0.0
C606 C 0.62553 0.14814 0.62415 0.0
C607 C 0.58415 0.1807 0.64574 0.0
C608 C 0.60867 0.11121 0.63093 0.0
C609 C 0.59745 0.27188 0.64495 0.0
O610 O 0.59507 0.47763 0.61046 0.0
O611 O 0.58325 0.4186 0.63682 0.0
C612 C 0.57854 0.45669 0.62314 0.0
O613 O 0.62402 0.40581 0.66395 0.0
O614 O 0.63642 0.53818 0.5916 0.0
O615 O 0.65847 0.54069 0.62123 0.0
O616 O 0.62157 0.48879 0.65097 0.0
C617 C 0.62261 0.45585 0.66759 0.0
O618 O 0.6499 0.34712 0.62103 0.0
O619 O 0.66591 0.42669 0.62762 0.0
O620 O 0.63943 0.42176 0.58688 0.0
O621 O 0.61532 0.29551 0.65421 0.0
O622 O 0.5868 0.30052 0.63008 0.0
O623 O 0.60823 0.36809 0.59466 0.0
C624 C 0.64562 0.62055 0.60624 0.0
C625 C 0.63365 0.6389 0.62524 0.0
C626 C 0.6484 0.70832 0.59218 0.0
C627 C 0.62928 0.69175 0.62778 0.0
C628 C 0.6528 0.65558 0.5897 0.0
C629 C 0.63673 0.72724 0.61132 0.0
C630 C 0.6512 0.56538 0.60348 0.0
C631 C 0.66826 0.37668 0.62469 0.0
H632 H 0.63508 0.22832 0.62302 0.0
H633 H 0.57461 0.10092 0.64728 0.0
H634 H 0.64162 0.13646 0.61564 0.0
H635 H 0.56816 0.19271 0.65435 0.0
H636 H 0.62791 0.61247 0.63821 0.0
H637 H 0.65401 0.73423 0.57897 0.0
H638 H 0.62047 0.70487 0.64283 0.0
H639 H 0.66195 0.64213 0.57486 0.0
H640 H 0.17882 0.28819 0.11791 0.0
H641 H 0.21495 0.14298 0.12795 0.0
H642 H 0.21653 0.33244 0.11617 0.0
H643 H 0.25306 0.18773 0.1257 0.0
H644 H 0.31284 0.29513 0.14893 0.0
H645 H 0.27572 0.24815 0.14811 0.0
H646 H 0.25167 0.34343 0.09333 0.0
H647 H 0.2889 0.39156 0.09441 0.0
C648 C 0.19482 0.26548 0.1196 0.0
C649 C 0.19381 0.21188 0.1232 0.0
C650 C 0.21651 0.29101 0.11839 0.0
C651 C 0.23782 0.2637 0.12073 0.0
C652 C 0.23691 0.20996 0.12407 0.0
C653 C 0.2151 0.18427 0.12528 0.0
C654 C 0.29968 0.3063 0.13668 0.0
C655 C 0.30383 0.34741 0.12178 0.0
C656 C 0.27844 0.27889 0.1361 0.0
C657 C 0.26077 0.29177 0.1206 0.0
C658 C 0.26487 0.33284 0.10563 0.0
C659 C 0.28619 0.36042 0.10623 0.0
H660 H 0.78392 0.91655 0.10882 0.0
H661 H 0.81547 0.78474 0.14158 0.0
H662 H 0.74667 0.86879 0.1051 0.0
H663 H 0.77848 0.73752 0.13787 0.0
H664 H 0.7142 0.65203 0.11005 0.0
H665 H 0.7517 0.69952 0.10843 0.0
H666 H 0.71627 0.83601 0.13267 0.0
H667 H 0.67905 0.78908 0.13433 0.0
C668 C 0.78294 0.87747 0.11515 0.0
C669 C 0.80254 0.85468 0.12571 0.0
C670 C 0.76165 0.85019 0.11305 0.0
C671 C 0.75973 0.79943 0.12117 0.0
C672 C 0.77951 0.77634 0.13124 0.0
C673 C 0.80062 0.80371 0.13357 0.0
C674 C 0.71442 0.69223 0.11488 0.0
C675 C 0.69369 0.71661 0.12249 0.0
C676 C 0.73586 0.71934 0.11401 0.0
C677 C 0.73685 0.77145 0.12041 0.0
C678 C 0.716 0.79609 0.1274 0.0
C679 C 0.6947 0.76895 0.12853 0.0
H680 H 0.28987 0.66638 0.39535 0.0
H681 H 0.31121 0.76174 0.33946 0.0
H682 H 0.25303 0.71536 0.39838 0.0
H683 H 0.27435 0.80963 0.34219 0.0
H684 H 0.21457 0.91557 0.36537 0.0
H685 H 0.25277 0.87066 0.3654 0.0
H686 H 0.21681 0.72632 0.37765 0.0
H687 H 0.17912 0.77066 0.37811 0.0
C688 C 0.28666 0.69745 0.38363 0.0
C689 C 0.30344 0.70982 0.36709 0.0
C690 C 0.26554 0.72554 0.38534 0.0
C691 C 0.26075 0.76653 0.37054 0.0
C692 C 0.27761 0.77891 0.35408 0.0
C693 C 0.29867 0.75096 0.35239 0.0
C694 C 0.21489 0.87433 0.36818 0.0
C695 C 0.19375 0.84687 0.37168 0.0
C696 C 0.23674 0.84853 0.36811 0.0
C697 C 0.23784 0.79484 0.37158 0.0
C698 C 0.2167 0.76771 0.3753 0.0
C699 C 0.19499 0.79331 0.37537 0.0
H700 H 0.78084 0.14219 0.3929 0.0
H701 H 0.81703 0.27816 0.3687 0.0
H702 H 0.74365 0.19108 0.39442 0.0
H703 H 0.78019 0.32649 0.37036 0.0
H704 H 0.71296 0.4096 0.39388 0.0
H705 H 0.74978 0.36017 0.39801 0.0
H706 H 0.71732 0.23074 0.36471 0.0
H707 H 0.68084 0.27964 0.36051 0.0
C708 C 0.78091 0.18243 0.38806 0.0
C709 C 0.80185 0.20608 0.38049 0.0
C710 C 0.75966 0.21037 0.3889 0.0
C711 C 0.75907 0.26264 0.38255 0.0
C712 C 0.78013 0.2865 0.3756 0.0
C713 C 0.80121 0.25853 0.37445 0.0
C714 C 0.71371 0.37055 0.38754 0.0
C715 C 0.6941 0.34883 0.37662 0.0
C716 C 0.73475 0.3423 0.38988 0.0
C717 C 0.73638 0.29156 0.3817 0.0
C718 C 0.71654 0.2695 0.37138 0.0
C719 C 0.69571 0.29785 0.36876 0.0
H720 H 0.67846 0.77514 0.85898 0.0
H721 H 0.71067 0.64423 0.89184 0.0
H722 H 0.71531 0.82289 0.86224 0.0
H723 H 0.74785 0.69262 0.8951 0.0
H724 H 0.81515 0.77429 0.8657 0.0
H725 H 0.77819 0.72613 0.86749 0.0
H726 H 0.74187 0.86185 0.89136 0.0
H727 H 0.779 0.91052 0.88956 0.0
C728 C 0.69343 0.75647 0.86693 0.0
C729 C 0.69172 0.7056 0.87496 0.0
C730 C 0.71448 0.78416 0.86899 0.0
C731 C 0.73443 0.76156 0.87895 0.0
C732 C 0.73274 0.71087 0.88723 0.0
C733 C 0.71149 0.68324 0.88541 0.0
C734 C 0.79931 0.79402 0.87136 0.0
C735 C 0.79995 0.84649 0.87725 0.0
C736 C 0.77819 0.76616 0.8726 0.0
C737 C 0.75717 0.7902 0.87956 0.0
C738 C 0.75782 0.84245 0.8858 0.0
C739 C 0.77906 0.87027 0.8848 0.0
H740 H 0.28776 0.38506 0.89617 0.0
H741 H 0.30939 0.28867 0.84085 0.0
H742 H 0.25051 0.33733 0.89872 0.0
H743 H 0.2722 0.24204 0.84314 0.0
H744 H 0.17659 0.2832 0.87756 0.0
H745 H 0.21447 0.32694 0.87743 0.0
H746 H 0.25007 0.1818 0.86628 0.0
H747 H 0.21175 0.13757 0.86593 0.0
C748 C 0.28455 0.35398 0.8845 0.0
C749 C 0.30154 0.34095 0.86827 0.0
C750 C 0.26319 0.32664 0.88592 0.0
C751 C 0.25839 0.28572 0.87115 0.0
C752 C 0.27545 0.2727 0.85501 0.0
C753 C 0.29673 0.29992 0.85358 0.0
C754 C 0.19243 0.26028 0.87513 0.0
C755 C 0.19107 0.20669 0.87168 0.0
C756 C 0.21423 0.28552 0.87524 0.0
C757 C 0.23534 0.25796 0.87194 0.0
C758 C 0.23409 0.20425 0.86865 0.0
C759 C 0.21216 0.17885 0.86853 0.0
H760 H 0.67798 0.27404 0.62349 0.0
H761 H 0.71203 0.42297 0.62774 0.0
H762 H 0.7162 0.23197 0.62522 0.0
H763 H 0.75071 0.38039 0.62888 0.0
H764 H 0.81222 0.28217 0.65625 0.0
H765 H 0.77454 0.32719 0.65338 0.0
H766 H 0.7513 0.21786 0.60359 0.0
H767 H 0.78878 0.17186 0.60691 0.0
C768 C 0.69366 0.29797 0.6246 0.0
C769 C 0.69191 0.35202 0.62546 0.0
C770 C 0.71565 0.27369 0.62544 0.0
C771 C 0.73656 0.30273 0.62704 0.0
C772 C 0.7349 0.35686 0.62787 0.0
C773 C 0.71277 0.38129 0.62711 0.0
C774 C 0.79908 0.26761 0.6447 0.0
C775 C 0.80346 0.22311 0.63192 0.0
C776 C 0.77753 0.29376 0.64292 0.0
C777 C 0.75988 0.27618 0.62827 0.0
C778 C 0.76437 0.232 0.61531 0.0
C779 C 0.78589 0.20566 0.61716 0.0
H780 H 0.17852 0.77729 0.63664 0.0
H781 H 0.21058 0.90762 0.6031 0.0
H782 H 0.21514 0.72891 0.63266 0.0
H783 H 0.24755 0.85867 0.59921 0.0
H784 H 0.31473 0.77706 0.62882 0.0
H785 H 0.27783 0.82531 0.6269 0.0
H786 H 0.24161 0.68963 0.60303 0.0
H787 H 0.27878 0.64084 0.60491 0.0
C788 C 0.19339 0.79567 0.62837 0.0
C789 C 0.1917 0.84658 0.62036 0.0
C790 C 0.2143 0.76763 0.6259 0.0
C791 C 0.23416 0.78994 0.61558 0.0
C792 C 0.23249 0.84064 0.60732 0.0
C793 C 0.21137 0.8686 0.60952 0.0
C794 C 0.29894 0.75738 0.6231 0.0
C795 C 0.2996 0.70487 0.61727 0.0
C796 C 0.27786 0.78528 0.62178 0.0
C797 C 0.25688 0.76126 0.61482 0.0
C798 C 0.25755 0.70899 0.60858 0.0
C799 C 0.27879 0.68113 0.60961 0.0
H800 H 0.13537 0.05206 0.31486 0.0
H801 H 0.11585 0.90375 0.28797 0.0
H802 H 0.13622 0.08828 0.27746 0.0
H803 H 0.11559 0.94063 0.25034 0.0
H804 H 0.13918 1.0077 0.1837 0.0
H805 H 0.13902 0.97144 0.22113 0.0
H806 H 0.11367 0.11658 0.24735 0.0
H807 H 0.11492 0.15355 0.20978 0.0
C808 C 0.13102 1.02715 0.30094 0.0
C809 C 0.12553 0.97483 0.3045 0.0
C810 C 0.13132 0.04818 0.27937 0.0
C811 C 0.12585 1.01778 0.26062 0.0
C812 C 0.12029 0.96532 0.26421 0.0
C813 C 0.12031 0.94406 0.28584 0.0
C814 C 0.13362 0.03205 0.19745 0.0
C815 C 0.12709 0.08371 0.19367 0.0
C816 C 0.13333 1.01098 0.21901 0.0
C817 C 0.1262 0.04066 0.23752 0.0
C818 C 0.11966 0.09248 0.2337 0.0
C819 C 0.12026 0.11381 0.21209 0.0
H820 H 0.90608 0.10808 0.3024 0.0
H821 H 0.83365 0.05666 0.30955 0.0
H822 H 0.90714 0.0722 0.26438 0.0
H823 H 0.83476 1.02122 0.27198 0.0
H824 H 0.83596 1.01707 0.19583 0.0
H825 H 0.83694 0.05407 0.23313 0.0
H826 H 0.90529 0.98437 0.24472 0.0
H827 H 0.90439 0.94697 0.20703 0.0
C828 C 0.89037 0.08955 0.29585 0.0
C829 C 0.86976 0.08551 0.30905 0.0
C830 C 0.89105 0.06858 0.27416 0.0
C831 C 0.87102 0.04387 0.26511 0.0
C832 C 0.85042 0.04041 0.27829 0.0
C833 C 0.84983 0.06068 0.29993 0.0
C834 C 0.85124 1.00936 0.20626 0.0
C835 C 0.87004 0.97867 0.19838 0.0
C836 C 0.85175 0.03056 0.22773 0.0
C837 C 0.87116 1.02216 0.24198 0.0
C838 C 0.89014 0.99189 0.23411 0.0
C839 C 0.88952 0.97008 0.21259 0.0
H840 H 0.90845 0.09061 0.70133 0.0
H841 H 0.8334 0.11585 0.70903 0.0
H842 H 0.90921 0.04321 0.7366 0.0
H843 H 0.83417 0.07271 0.74508 0.0
H844 H 0.83364 0.95392 0.79879 0.0
H845 H 0.83505 0.99635 0.76259 0.0
H846 H 0.90823 0.03825 0.77453 0.0
H847 H 0.90702 0.99142 0.80998 0.0
C848 C 0.89222 0.08715 0.71094 0.0
C849 C 0.87086 0.10689 0.70247 0.0
C850 C 0.89259 0.05996 0.73128 0.0
C851 C 0.87168 0.05292 0.74396 0.0
C852 C 0.85056 0.07512 0.73573 0.0
C853 C 0.8501 0.1008 0.71512 0.0
C854 C 0.85013 0.97144 0.79339 0.0
C855 C 0.87025 0.96906 0.80706 0.0
C856 C 0.85091 0.99675 0.77271 0.0
C857 C 0.87162 1.02233 0.76543 0.0
C858 C 0.89196 1.01884 0.77911 0.0
C859 C 0.89134 0.99198 0.79954 0.0
H860 H 0.12549 0.15515 0.78786 0.0
H861 H 0.11639 1.00158 0.81461 0.0
H862 H 0.1256 0.11966 0.74992 0.0
H863 H 0.11695 0.96643 0.77706 0.0
H864 H 0.09688 0.9229 0.70567 0.0
H865 H 0.09451 0.96094 0.74295 0.0
H866 H 0.15026 0.06777 0.72545 0.0
H867 H 0.15235 0.03057 0.68819 0.0
C868 C 0.12349 0.11395 0.7857 0.0
C869 C 0.12096 0.08141 0.80438 0.0
C870 C 0.12369 0.0935 0.76394 0.0
C871 C 0.12127 0.04004 0.76034 0.0
C872 C 0.1185 1.00776 0.77906 0.0
C873 C 0.11835 1.02808 0.80071 0.0
C874 C 0.10868 0.9544 0.70978 0.0
C875 C 0.12488 0.97333 0.69386 0.0
C876 C 0.10736 0.97621 0.73121 0.0
C877 C 0.12218 1.01761 0.7373 0.0
C878 C 0.13832 0.03653 0.72133 0.0
C879 C 0.13967 1.01472 0.69996 0.0
H880 H 0.59548 0.44482 0.29299 0.0
H881 H 0.66193 0.5203 0.3074 0.0
H882 H 0.59477 0.48638 0.25611 0.0
H883 H 0.66114 0.56156 0.27084 0.0
H884 H 0.66552 0.57563 0.19437 0.0
H885 H 0.66496 0.53597 0.23128 0.0
H886 H 0.59098 0.5751 0.23852 0.0
H887 H 0.5915 0.61508 0.20128 0.0
C888 C 0.60998 0.46996 0.28829 0.0
C889 C 0.62882 0.4789 0.30319 0.0
C890 C 0.60946 0.49417 0.26723 0.0
C891 C 0.6279 0.52735 0.26049 0.0
C892 C 0.64676 0.53591 0.27536 0.0
C893 C 0.64716 0.51226 0.29641 0.0
C894 C 0.64912 0.57624 0.20384 0.0
C895 C 0.62857 0.59885 0.19483 0.0
C896 C 0.64884 0.55353 0.22508 0.0
C897 C 0.62793 0.55224 0.23791 0.0
C898 C 0.60734 0.57503 0.229 0.0
C899 C 0.60769 0.5984 0.20776 0.0
H900 H 0.3898 0.64974 0.28277 0.0
H901 H 0.36041 0.50738 0.30811 0.0
H902 H 0.3921 0.61182 0.24529 0.0
H903 H 0.36291 0.4697 0.27086 0.0
H904 H 0.39137 0.40464 0.20385 0.0
H905 H 0.39318 0.44194 0.24155 0.0
H906 H 0.36201 0.58261 0.21664 0.0
H907 H 0.36001 0.54564 0.17931 0.0
C908 C 0.38394 0.61039 0.2804 0.0
C909 C 0.37472 0.58188 0.29845 0.0
C910 C 0.38521 0.58868 0.25893 0.0
C911 C 0.3777 0.53767 0.25509 0.0
C912 C 0.36903 0.50886 0.27326 0.0
C913 C 0.36741 0.53075 0.29459 0.0
C914 C 0.385 0.44355 0.20644 0.0
C915 C 0.37537 0.47188 0.18856 0.0
C916 C 0.38596 0.46487 0.22803 0.0
C917 C 0.37777 0.51533 0.23209 0.0
C918 C 0.36868 0.54391 0.21408 0.0
C919 C 0.36735 0.5224 0.19269 0.0
H920 H 0.33541 0.50675 0.80228 0.0
H921 H 0.4029 0.43449 0.78874 0.0
H922 H 0.33592 0.54607 0.76533 0.0
H923 H 0.40336 0.47433 0.75144 0.0
H924 H 0.40417 0.60232 0.69529 0.0
H925 H 0.40558 0.56383 0.73286 0.0
H926 H 0.33274 0.51572 0.72605 0.0
H927 H 0.33131 0.55367 0.68886 0.0
C928 C 0.35038 0.49907 0.79141 0.0
C929 C 0.36906 0.46707 0.79853 0.0
C930 C 0.35062 0.52161 0.77014 0.0
C931 C 0.36965 0.51335 0.75537 0.0
C932 C 0.38851 0.48177 0.76248 0.0
C933 C 0.38814 0.45857 0.78377 0.0
C934 C 0.38843 0.58387 0.70192 0.0
C935 C 0.3676 0.58134 0.68904 0.0
C936 C 0.3893 0.5614 0.72334 0.0
C937 C 0.36926 0.53669 0.73248 0.0
C938 C 0.34843 0.53481 0.71966 0.0
C939 C 0.34765 0.55652 0.69824 0.0
H940 H 0.59774 0.63324 0.79015 0.0
H941 H 0.65212 0.52314 0.80765 0.0
H942 H 0.59603 0.59697 0.7525 0.0
H943 H 0.65067 0.48766 0.77006 0.0
H944 H 0.62589 0.40234 0.70735 0.0
H945 H 0.62589 0.43739 0.74528 0.0
H946 H 0.61903 0.59127 0.71842 0.0
H947 H 0.61862 0.55645 0.68072 0.0
C948 C 0.60943 0.60156 0.78598 0.0
C949 C 0.6251 0.58135 0.80203 0.0
C950 C 0.60851 0.5808 0.76433 0.0
C951 C 0.62318 0.53918 0.75816 0.0
C952 C 0.63885 0.5191 0.77423 0.0
C953 C 0.63981 0.53987 0.79581 0.0
C954 C 0.62431 0.44362 0.70953 0.0
C955 C 0.62228 0.47641 0.69088 0.0
C956 C 0.62443 0.46381 0.73131 0.0
C957 C 0.62247 0.5173 0.73501 0.0
C958 C 0.62025 0.54991 0.71633 0.0
C959 C 0.62018 0.52981 0.69461 0.0
H960 H 0.09279 0.22742 0.93983 0.0
H961 H 0.15373 0.12774 0.94681 0.0
H962 H 0.09231 0.24016 0.98059 0.0
H963 H 0.15279 0.13897 0.98673 0.0
H964 H 0.16126 0.18951 0.05553 0.0
H965 H 0.16077 0.19887 0.01508 0.0
H966 H 0.08419 0.19461 0.01582 0.0
H967 H 0.08484 0.18786 0.05681 0.0
C968 C 0.10612 0.20851 0.94995 0.0
C969 C 0.12333 0.1767 0.93991 0.0
C970 C 0.10576 0.21554 0.97331 0.0
C971 C 0.12267 0.19108 0.98706 0.0
C972 C 0.13983 0.15963 0.97683 0.0
C973 C 0.14022 0.15277 0.95374 0.0
C974 C 0.1443 0.19159 0.04708 0.0
C975 C 0.1231 0.18738 0.05925 0.0
C976 C 0.14399 0.19656 0.02384 0.0
C977 C 0.12245 0.19604 0.012 0.0
C978 C 0.10111 0.19518 0.02432 0.0
C979 C 0.10145 0.19121 0.04779 0.0
H980 H 0.8526 0.96682 0.95122 0.0
H981 H 0.87775 0.81057 0.94314 0.0
H982 H 0.85551 0.95837 0.99138 0.0
H983 H 0.88073 0.80229 0.98416 0.0
H984 H 0.85625 0.81552 0.06322 0.0
H985 H 0.85443 0.80734 0.02214 0.0
H986 H 0.89236 0.95093 0.01535 0.0
H987 H 0.89401 0.9593 0.05568 0.0
C988 C 0.85874 0.93043 0.95798 0.0
C989 C 0.86536 0.88967 0.9438 0.0
C990 C 0.86041 0.92568 0.98111 0.0
C991 C 0.86879 0.88005 0.99094 0.0
C992 C 0.8743 0.838 0.97701 0.0
C993 C 0.87263 0.8428 0.95357 0.0
C994 C 0.86455 0.84471 0.05287 0.0
C995 C 0.87488 0.88854 0.0627 0.0
C996 C 0.86352 0.84 0.02941 0.0
C997 C 0.87284 0.87905 0.01556 0.0
C998 C 0.88455 0.92079 0.02555 0.0
C999 C 0.8855 0.92554 0.04872 0.0
H1000 H 0.09202 0.83199 0.43928 0.0
H1001 H 0.15908 0.91097 0.44613 0.0
H1002 H 0.08936 0.82483 0.48034 0.0
H1003 H 0.15611 0.9042 0.48654 0.0
H1004 H 0.11604 0.9658 0.54918 0.0
H1005 H 0.11689 0.95251 0.5091 0.0
H1006 H 0.12167 0.78829 0.51899 0.0
H1007 H 0.12114 0.80126 0.55989 0.0
C1008 C 0.10636 0.84682 0.44941 0.0
C1009 C 0.12557 0.87276 0.43935 0.0
C1010 C 0.10485 0.84255 0.47286 0.0
C1011 C 0.12251 0.86416 0.48649 0.0
C1012 C 0.14225 0.88733 0.47638 0.0
C1013 C 0.14383 0.89137 0.45317 0.0
C1014 C 0.11709 0.9266 0.54308 0.0
C1015 C 0.11875 0.88459 0.55794 0.0
C1016 C 0.11753 0.91914 0.52001 0.0
C1017 C 0.11938 0.8695 0.51102 0.0
C1018 C 0.12011 0.82697 0.52561 0.0
C1019 C 0.11991 0.83446 0.54895 0.0
H1020 H 0.86276 0.24809 0.56449 0.0
H1021 H 0.89089 0.09349 0.56084 0.0
H1022 H 0.86118 0.25152 0.5234 0.0
H1023 H 0.88975 0.09731 0.52036 0.0
H1024 H 0.85461 0.08713 0.45399 0.0
H1025 H 0.85697 0.09553 0.49416 0.0
H1026 H 0.88487 0.24958 0.48685 0.0
H1027 H 0.88214 0.24141 0.44585 0.0
C1028 C 0.86892 0.21521 0.55497 0.0
C1029 C 0.87659 0.1702 0.566 0.0
C1030 C 0.86807 0.21724 0.53145 0.0
C1031 C 0.8749 0.17431 0.51858 0.0
C1032 C 0.88374 0.13059 0.52971 0.0
C1033 C 0.88448 0.12848 0.55301 0.0
C1034 C 0.86126 0.12301 0.46077 0.0
C1035 C 0.86858 0.1633 0.44658 0.0
C1036 C 0.8627 0.12771 0.48392 0.0
C1037 C 0.87165 0.17274 0.49379 0.0
C1038 C 0.87798 0.21426 0.47976 0.0
C1039 C 0.87645 0.20958 0.45631 0.0
H1040 H 0.62035 0.74754 0.05711 0.0
H1041 H 0.62321 0.58174 0.05098 0.0
H1042 H 0.61751 0.75492 0.01616 0.0
H1043 H 0.62093 0.58914 0.0108 0.0
H1044 H 0.59259 0.60455 0.94288 0.0
H1045 H 0.59189 0.6108 0.98335 0.0
H1046 H 0.63981 0.74044 0.98032 0.0
H1047 H 0.63984 0.73504 0.93921 0.0
C1048 C 0.6204 0.71278 0.04712 0.0
C1049 C 0.62174 0.66404 0.05747 0.0
C1050 C 0.61889 0.71702 0.02366 0.0
C1051 C 0.61859 0.6726 0.01013 0.0
C1052 C 0.62043 0.6242 0.0206 0.0
C1053 C 0.62189 0.61999 0.0438 0.0
C1054 C 0.60276 0.6349 0.95077 0.0
C1055 C 0.61653 0.66885 0.93785 0.0
C1056 C 0.60248 0.63831 0.97405 0.0
C1057 C 0.61629 0.67526 0.98522 0.0
C1058 C 0.62899 0.71144 0.97228 0.0
C1059 C 0.62904 0.70837 0.94875 0.0
H1060 H 0.35124 0.3087 0.93512 0.0
H1061 H 0.40449 0.42782 0.93751 0.0
H1062 H 0.35195 0.30298 0.97631 0.0
H1063 H 0.40576 0.42117 0.978 0.0
H1064 H 0.37403 0.46262 0.04412 0.0
H1065 H 0.3756 0.45076 0.00425 0.0
H1066 H 0.37566 0.28563 0.01305 0.0
H1067 H 0.37374 0.29753 0.054 0.0
C1068 C 0.36354 0.33252 0.94438 0.0
C1069 C 0.37755 0.36928 0.93315 0.0
C1070 C 0.36396 0.32925 0.96794 0.0
C1071 C 0.37853 0.36247 0.9805 0.0
C1072 C 0.39386 0.39598 0.96894 0.0
C1073 C 0.39322 0.39967 0.94568 0.0
C1074 C 0.37447 0.42349 0.03785 0.0
C1075 C 0.37408 0.38101 0.05253 0.0
C1076 C 0.37548 0.41674 0.01479 0.0
C1077 C 0.37628 0.36727 0.00535 0.0
C1078 C 0.37519 0.32431 0.01981 0.0
C1079 C 0.37418 0.33112 0.04324 0.0
H1080 H 0.64557 0.31878 0.43751 0.0
H1081 H 0.59243 0.43759 0.44357 0.0
H1082 H 0.64515 0.30733 0.4784 0.0
H1083 H 0.5915 0.42512 0.48408 0.0
H1084 H 0.58452 0.36209 0.55567 0.0
H1085 H 0.58222 0.35309 0.51484 0.0
H1086 H 0.65781 0.37563 0.50992 0.0
H1087 H 0.66004 0.38598 0.55051 0.0
C1088 C 0.6334 0.34143 0.44751 0.0
C1089 C 0.61908 0.37914 0.43741 0.0
C1090 C 0.63323 0.33508 0.47086 0.0
C1091 C 0.61825 0.36529 0.48439 0.0
C1092 C 0.60306 0.40098 0.47409 0.0
C1093 C 0.60368 0.40826 0.45091 0.0
C1094 C 0.60067 0.36417 0.54589 0.0
C1095 C 0.62244 0.375 0.55627 0.0
C1096 C 0.59935 0.35919 0.52255 0.0
C1097 C 0.61985 0.36357 0.50923 0.0
C1098 C 0.64176 0.3716 0.51976 0.0
C1099 C 0.643 0.37782 0.54299 0.0
H1100 H 0.36447 0.5846 0.54344 0.0
H1101 H 0.37234 0.74858 0.55379 0.0
H1102 H 0.36788 0.59687 0.50357 0.0
H1103 H 0.37592 0.76076 0.51297 0.0
H1104 H 0.35312 0.74264 0.43397 0.0
H1105 H 0.35174 0.74752 0.47517 0.0
H1106 H 0.40181 0.62208 0.47915 0.0
H1107 H 0.40286 0.6167 0.43864 0.0
C1108 C 0.36698 0.6235 0.53728 0.0
C1109 C 0.36844 0.66553 0.55205 0.0
C1110 C 0.36902 0.63046 0.51426 0.0
C1111 C 0.37262 0.67965 0.50506 0.0
C1112 C 0.37325 0.72232 0.51959 0.0
C1113 C 0.37127 0.7153 0.54293 0.0
C1114 C 0.3642 0.71703 0.44374 0.0
C1115 C 0.3778 0.67872 0.4331 0.0
C1116 C 0.36341 0.71981 0.46728 0.0
C1117 C 0.37628 0.68444 0.48041 0.0
C1118 C 0.39124 0.64908 0.46957 0.0
C1119 C 0.39189 0.64609 0.4463 0.0
H1120 H 0.95485 0.91372 0.12545 0.0
H1121 H 0.92801 0.06887 0.1331 0.0
H1122 H 0.99506 0.94664 0.12412 0.0
H1123 H 0.96849 0.10195 0.13127 0.0
H1124 H 0.04461 0.1325 0.1543 0.0
H1125 H 0.00412 0.10106 0.15413 0.0
H1126 H 0.02166 0.99635 0.10046 0.0
H1127 H 0.06254 1.02712 0.1009 0.0
C1128 C 0.95748 0.95495 0.12673 0.0
C1129 C 0.93818 0.98869 0.12947 0.0
C1130 C 0.98058 0.9738 0.12578 0.0
C1131 C 0.98496 1.02686 0.12752 0.0
C1132 C 0.96568 0.06075 0.13013 0.0
C1133 C 0.94249 0.04184 0.13111 0.0
C1134 C 0.03992 0.10276 0.14242 0.0
C1135 C 0.05687 0.08224 0.12762 0.0
C1136 C 0.0166 0.08505 0.14223 0.0
C1137 C 0.00964 0.04644 0.12722 0.0
C1138 C 0.02656 1.02584 0.11238 0.0
C1139 C 0.04996 0.04353 0.11259 0.0
H1140 H 0.95366 0.1392 0.38568 0.0
H1141 H 0.92658 0.9863 0.37266 0.0
H1142 H 0.9938 0.10627 0.38503 0.0
H1143 H 0.96711 0.95289 0.37263 0.0
H1144 H 0.04299 0.92673 0.34704 0.0
H1145 H 0.0023 0.95669 0.34967 0.0
H1146 H 0.0214 0.05405 0.40536 0.0
H1147 H 0.06242 1.02504 0.40236 0.0
C1148 C 0.95621 0.09835 0.38289 0.0
C1149 C 0.93682 0.06539 0.37915 0.0
C1150 C 0.97933 0.07941 0.38269 0.0
C1151 C 0.98373 1.02693 0.37885 0.0
C1152 C 0.96434 0.99369 0.37538 0.0
C1153 C 0.94111 1.01274 0.37551 0.0
C1154 C 0.03857 0.95456 0.35988 0.0
C1155 C 0.05603 0.97365 0.37445 0.0
C1156 C 0.01514 0.97139 0.36149 0.0
C1157 C 0.00852 1.00762 0.37776 0.0
C1158 C 0.02595 1.02655 0.39244 0.0
C1159 C 0.04946 1.00986 0.39076 0.0
H1160 H 0.05984 0.02902 0.90328 0.0
H1161 H 0.04063 0.12574 0.84721 0.0
H1162 H 0.0188 1.00004 0.9063 0.0
H1163 H -3e-05 0.09583 0.84985 0.0
H1164 H 0.95124 0.91412 0.88613 0.0
H1165 H 0.99134 0.94727 0.88617 0.0
H1166 H 0.96472 0.10031 0.87254 0.0
H1167 H 0.92428 0.06668 0.87184 0.0
C1168 C 0.04693 0.04384 0.89153 0.0
C1169 C 0.05354 0.07961 0.87501 0.0
C1170 C 0.02341 1.02721 0.89323 0.0
C1171 C 0.00606 0.04575 0.87835 0.0
C1172 C 0.01274 0.0815 0.86185 0.0
C1173 C 0.03616 0.0983 0.86023 0.0
C1174 C 0.95381 0.95495 0.88323 0.0
C1175 C 0.93448 0.98772 0.87885 0.0
C1176 C 0.97689 0.97402 0.88343 0.0
C1177 C 0.98129 1.02643 0.87937 0.0
C1178 C 0.96195 0.05955 0.87543 0.0
C1179 C 0.93877 0.04036 0.87514 0.0
H1180 H 0.92842 1.00705 0.62413 0.0
H1181 H 0.95572 0.15313 0.64709 0.0
H1182 H 0.96873 0.97304 0.62241 0.0
H1183 H 0.99571 0.11877 0.64648 0.0
H1184 H 0.06649 0.06162 0.62039 0.0
H1185 H 0.02611 0.09495 0.62185 0.0
H1186 H 0.00103 0.94582 0.64409 0.0
H1187 H 0.0411 0.91219 0.64152 0.0
C1188 C 0.94302 0.03158 0.62909 0.0
C1189 C 0.93899 0.08276 0.63557 0.0
C1190 C 0.96612 1.01214 0.62821 0.0
C1191 C 0.98557 0.04326 0.63419 0.0
C1192 C 0.98131 0.09406 0.64122 0.0
C1193 C 0.95833 0.11367 0.64172 0.0
C1194 C 0.05231 0.03613 0.6256 0.0
C1195 C 0.0569 0.98434 0.63072 0.0
C1196 C 0.02916 0.0552 0.62657 0.0
C1197 C 0.01021 1.02305 0.63307 0.0
C1198 C 0.01501 0.97143 0.63854 0.0
C1199 C 0.03805 0.95222 0.63722 0.0
H1200 H 0.43146 0.5568 0.11378 0.0
H1201 H 0.45569 0.40567 0.13377 0.0
H1202 H 0.47216 0.58835 0.11509 0.0
H1203 H 0.49603 0.43748 0.13618 0.0
H1204 H 0.5693 0.4972 0.1166 0.0
H1205 H 0.52876 0.4643 0.11488 0.0
H1206 H 0.50261 0.61009 0.13982 0.0
H1207 H 0.54278 0.6433 0.14042 0.0
C1208 C 0.44545 0.53052 0.11867 0.0
C1209 C 0.44041 0.47879 0.12354 0.0
C1210 C 0.46878 0.54857 0.11956 0.0
C1211 C 0.48749 0.51545 0.12575 0.0
C1212 C 0.48226 0.46385 0.13089 0.0
C1213 C 0.45905 0.44569 0.12964 0.0
C1214 C 0.55483 0.52191 0.12178 0.0
C1215 C 0.55912 0.57284 0.12844 0.0
C1216 C 0.53159 0.50314 0.12088 0.0
C1217 C 0.51229 0.53471 0.12702 0.0
C1218 C 0.51686 0.5851 0.13437 0.0
C1219 C 0.53995 0.60403 0.13489 0.0
H1220 H 0.43047 0.5012 0.37508 0.0
H1221 H 0.45566 0.64856 0.35115 0.0
H1222 H 0.47109 0.46928 0.37595 0.0
H1223 H 0.49606 0.61618 0.35099 0.0
H1224 H 0.56797 0.56115 0.37595 0.0
H1225 H 0.52735 0.59331 0.37497 0.0
H1226 H 0.50299 0.44348 0.3533 0.0
H1227 H 0.54328 0.41104 0.35531 0.0
C1228 C 0.44467 0.5265 0.36972 0.0
C1229 C 0.43991 0.57739 0.36316 0.0
C1230 C 0.46797 0.50821 0.37011 0.0
C1231 C 0.48696 0.54019 0.36359 0.0
C1232 C 0.48202 0.59079 0.3566 0.0
C1233 C 0.4588 0.60927 0.35654 0.0
C1234 C 0.55389 0.53525 0.37095 0.0
C1235 C 0.55876 0.48356 0.36585 0.0
C1236 C 0.53061 0.55366 0.37027 0.0
C1237 C 0.51179 0.52094 0.36413 0.0
C1238 C 0.51687 0.46951 0.3586 0.0
C1239 C 0.54004 0.45097 0.35961 0.0
H1240 H 0.45392 0.40227 0.85149 0.0
H1241 H 0.42814 0.54987 0.87433 0.0
H1242 H 0.4942 0.43529 0.85116 0.0
H1243 H 0.46865 0.58245 0.87509 0.0
H1244 H 0.54072 0.64152 0.85468 0.0
H1245 H 0.50055 0.60839 0.85266 0.0
H1246 H 0.52543 0.4591 0.87479 0.0
H1247 H 0.56593 0.49194 0.87573 0.0
C1248 C 0.45691 0.44176 0.85661 0.0
C1249 C 0.43789 0.47351 0.86297 0.0
C1250 C 0.48006 0.46061 0.85658 0.0
C1251 C 0.48481 0.51148 0.86324 0.0
C1252 C 0.46569 0.54333 0.8695 0.0
C1253 C 0.44245 0.52466 0.86918 0.0
C1254 C 0.53761 0.60155 0.85906 0.0
C1255 C 0.55645 0.56931 0.86543 0.0
C1256 C 0.51451 0.58261 0.85805 0.0
C1257 C 0.5096 0.53113 0.86373 0.0
C1258 C 0.52854 0.49876 0.86997 0.0
C1259 C 0.55176 0.51757 0.87063 0.0
H1260 H 0.42445 0.4866 0.62486 0.0
H1261 H 0.45125 0.64025 0.61256 0.0
H1262 H 0.46502 0.45347 0.62429 0.0
H1263 H 0.49143 0.6075 0.61257 0.0
H1264 H 0.55981 0.52693 0.59378 0.0
H1265 H 0.51871 0.55559 0.59134 0.0
H1266 H 0.50037 0.45743 0.64722 0.0
H1267 H 0.54115 0.42788 0.64933 0.0
C1268 C 0.43893 0.51326 0.62205 0.0
C1269 C 0.43457 0.56604 0.6188 0.0
C1270 C 0.46217 0.49436 0.62182 0.0
C1271 C 0.48146 0.52788 0.61836 0.0
C1272 C 0.477 0.58049 0.61491 0.0
C1273 C 0.45388 0.5993 0.61508 0.0
C1274 C 0.547 0.51149 0.60553 0.0
C1275 C 0.5538 0.47523 0.62176 0.0
C1276 C 0.52346 0.52797 0.60417 0.0
C1277 C 0.50624 0.50871 0.61908 0.0
C1278 C 0.51307 0.47237 0.63525 0.0
C1279 C 0.53654 0.45578 0.63656 0.0
H1280 H 0.10082 0.78543 0.13217 0.0
H1281 H 0.1685 0.75377 0.10118 0.0
H1282 H 0.09421 0.69327 0.13706 0.0
H1283 H 0.1614 0.66169 0.10511 0.0
H1284 H 0.1526 0.50257 0.1374 0.0
H1285 H 0.15946 0.59466 0.13264 0.0
H1286 H 0.08554 0.61628 0.11639 0.0
H1287 H 0.07867 0.52419 0.12133 0.0
C1288 C 0.11432 0.7589 0.12641 0.0
C1289 C 0.13521 0.77731 0.11627 0.0
C1290 C 0.11039 0.70589 0.12896 0.0
C1291 C 0.12723 0.66977 0.12143 0.0
C1292 C 0.14812 0.68821 0.11133 0.0
C1293 C 0.15207 0.74118 0.10881 0.0
C1294 C 0.13785 0.52685 0.13257 0.0
C1295 C 0.11507 0.50581 0.12977 0.0
C1296 C 0.14178 0.57979 0.12984 0.0
C1297 C 0.12306 0.61319 0.12416 0.0
C1298 C 0.10032 0.59203 0.12116 0.0
C1299 C 0.09638 0.53911 0.12395 0.0
H1300 H 0.83474 0.31337 0.09813 0.0
H1301 H 0.87457 0.28526 0.15857 0.0
H1302 H 0.84045 0.4057 0.10273 0.0
H1303 H 0.88128 0.37755 0.16258 0.0
H1304 H 0.8686 0.54846 0.17574 0.0
H1305 H 0.86117 0.45643 0.17158 0.0
H1306 H 0.87063 0.47046 0.10009 0.0
H1307 H 0.87778 0.56261 0.10427 0.0
C1308 C 0.84466 0.32683 0.11246 0.0
C1309 C 0.85411 0.29169 0.12802 0.0
C1310 C 0.84821 0.37987 0.11493 0.0
C1311 C 0.86137 0.39926 0.133 0.0
C1312 C 0.87081 0.36413 0.14859 0.0
C1313 C 0.86722 0.31107 0.14614 0.0
C1314 C 0.86918 0.53184 0.15914 0.0
C1315 C 0.87383 0.56292 0.14034 0.0
C1316 C 0.86497 0.47901 0.15675 0.0
C1317 C 0.86538 0.45581 0.1355 0.0
C1318 C 0.86982 0.48704 0.11668 0.0
C1319 C 0.87394 0.53993 0.11906 0.0
H1320 H 0.1285 0.27675 0.34497 0.0
H1321 H 0.13749 0.29918 0.41602 0.0
H1322 H 0.12134 0.36872 0.34026 0.0
H1323 H 0.13138 0.39149 0.41118 0.0
H1324 H 0.09578 0.54761 0.39734 0.0
H1325 H 0.10179 0.4552 0.40264 0.0
H1326 H 0.14212 0.44929 0.34117 0.0
H1327 H 0.13589 0.54136 0.33581 0.0
C1328 C 0.12887 0.30121 0.35962 0.0
C1329 C 0.13361 0.28033 0.38088 0.0
C1330 C 0.12506 0.35418 0.35688 0.0
C1331 C 0.1259 0.38782 0.37531 0.0
C1332 C 0.13039 0.36685 0.39661 0.0
C1333 C 0.13418 0.31388 0.39935 0.0
C1334 C 0.10609 0.52663 0.38506 0.0
C1335 C 0.11524 0.55194 0.3661 0.0
C1336 C 0.10956 0.47358 0.38809 0.0
C1337 C 0.12235 0.4445 0.37228 0.0
C1338 C 0.13175 0.47006 0.35347 0.0
C1339 C 0.12822 0.52298 0.35041 0.0
H1340 H 0.91118 0.51508 0.38338 0.0
H1341 H 0.84289 0.48954 0.35289 0.0
H1342 H 0.90288 0.60707 0.38546 0.0
H1343 H 0.83463 0.58172 0.35472 0.0
H1344 H 0.81791 0.7414 0.38349 0.0
H1345 H 0.82599 0.64955 0.38052 0.0
H1346 H 0.89871 0.68285 0.36291 0.0
H1347 H 0.89092 0.7747 0.36701 0.0
C1348 C 0.89446 0.52917 0.37692 0.0
C1349 C 0.87772 0.49484 0.36795 0.0
C1350 C 0.88971 0.58203 0.37806 0.0
C1351 C 0.8681 0.6021 0.37018 0.0
C1352 C 0.85132 0.5677 0.36124 0.0
C1353 C 0.85605 0.51476 0.36019 0.0
C1354 C 0.83569 0.7292 0.37915 0.0
C1355 C 0.85379 0.7657 0.37566 0.0
C1356 C 0.84026 0.6764 0.37716 0.0
C1357 C 0.86304 0.65853 0.37154 0.0
C1358 C 0.88103 0.69505 0.3676 0.0
C1359 C 0.87648 0.74789 0.36965 0.0
H1360 H 0.82589 0.30999 0.89729 0.0
H1361 H 0.87978 0.28107 0.84742 0.0
H1362 H 0.83286 0.4022 0.8939 0.0
H1363 H 0.88757 0.37329 0.84482 0.0
H1364 H 0.8788 0.54455 0.82893 0.0
H1365 H 0.87064 0.45248 0.83151 0.0
H1366 H 0.86158 0.46672 0.90302 0.0
H1367 H 0.8695 0.55891 0.90035 0.0
C1368 C 0.83919 0.32324 0.88553 0.0
C1369 C 0.8522 0.28788 0.87256 0.0
C1370 C 0.84342 0.37622 0.88381 0.0
C1371 C 0.86084 0.3954 0.86913 0.0
C1372 C 0.87383 0.36007 0.85613 0.0
C1373 C 0.86957 0.30703 0.85782 0.0
C1374 C 0.87518 0.52797 0.84522 0.0
C1375 C 0.87484 0.55917 0.86444 0.0
C1376 C 0.87054 0.4751 0.84672 0.0
C1377 C 0.8655 0.45194 0.86749 0.0
C1378 C 0.86503 0.48325 0.88669 0.0
C1379 C 0.86958 0.53618 0.88518 0.0
H1380 H 0.07652 0.51874 0.87986 0.0
H1381 H 0.14885 0.49802 0.85789 0.0
H1382 H 0.08357 0.61091 0.88417 0.0
H1383 H 0.15587 0.59017 0.86198 0.0
H1384 H 0.16722 0.74888 0.89266 0.0
H1385 H 0.15996 0.65677 0.88939 0.0
H1386 H 0.09032 0.68794 0.86266 0.0
H1387 H 0.09715 0.78014 0.86695 0.0
C1388 C 0.09389 0.5339 0.87582 0.0
C1389 C 0.11212 0.5009 0.86855 0.0
C1390 C 0.09793 0.58682 0.87824 0.0
C1391 C 0.12029 0.60819 0.87339 0.0
C1392 C 0.13854 0.57508 0.86622 0.0
C1393 C 0.13452 0.52215 0.86387 0.0
C1394 C 0.15023 0.73617 0.88633 0.0
C1395 C 0.13274 0.77215 0.88016 0.0
C1396 C 0.14618 0.68322 0.88418 0.0
C1397 C 0.12455 0.66471 0.87573 0.0
C1398 C 0.10708 0.70068 0.86948 0.0
C1399 C 0.11112 0.75367 0.87167 0.0
H1400 H 0.88533 0.79241 0.65063 0.0
H1401 H 0.8393 0.76455 0.59428 0.0
H1402 H 0.8926 0.70025 0.654 0.0
H1403 H 0.84582 0.67202 0.59824 0.0
H1404 H 0.88156 0.51216 0.59923 0.0
H1405 H 0.8753 0.60457 0.59408 0.0
H1406 H 0.87148 0.6241 0.66575 0.0
H1407 H 0.87785 0.53203 0.67086 0.0
C1408 C 0.8769 0.7667 0.63882 0.0
C1409 C 0.86171 0.78605 0.62218 0.0
C1410 C 0.88081 0.7137 0.64096 0.0
C1411 C 0.86963 0.67855 0.62653 0.0
C1412 C 0.85484 0.69793 0.60957 0.0
C1413 C 0.85091 0.75099 0.60744 0.0
C1414 C 0.87916 0.53614 0.61387 0.0
C1415 C 0.88035 0.51469 0.63546 0.0
C1416 C 0.87558 0.58915 0.61092 0.0
C1417 C 0.87307 0.62195 0.6295 0.0
C1418 C 0.87387 0.60026 0.65106 0.0
C1419 C 0.87748 0.54739 0.654 0.0
H1420 H 0.10552 0.27573 0.63717 0.0
H1421 H 0.17581 0.30803 0.61198 0.0
H1422 H 0.09859 0.36768 0.64207 0.0
H1423 H 0.16845 0.40006 0.61587 0.0
H1424 H 0.1555 0.56008 0.646 0.0
H1425 H 0.16341 0.4679 0.64279 0.0
H1426 H 0.09172 0.44337 0.61988 0.0
H1427 H 0.08382 0.53528 0.62326 0.0
C1428 C 0.11957 0.30236 0.63278 0.0
C1429 C 0.14122 0.28425 0.62413 0.0
C1430 C 0.11546 0.35524 0.63531 0.0
C1431 C 0.13288 0.39151 0.62922 0.0
C1432 C 0.15468 0.37337 0.62091 0.0
C1433 C 0.1588 0.32049 0.61842 0.0
C1434 C 0.1415 0.53505 0.6401 0.0
C1435 C 0.119 0.55514 0.63497 0.0
C1436 C 0.14602 0.48213 0.63826 0.0
C1437 C 0.12817 0.44797 0.63118 0.0
C1438 C 0.10575 0.46824 0.62584 0.0
C1439 C 0.10123 0.52106 0.62773 0.0
H1440 H 0.65016 1.00278 0.14486 0.0
H1441 H 0.58378 1.02071 0.10987 0.0
H1442 H 0.65763 0.09493 0.14108 0.0
H1443 H 0.59134 0.11273 0.1058 0.0
H1444 H 0.59997 0.28259 0.12388 0.0
H1445 H 0.5929 0.19034 0.12726 0.0
H1446 H 0.66712 0.16101 0.11461 0.0
H1447 H 0.67442 0.25329 0.11245 0.0
C1448 C 0.6373 1.02631 0.13611 0.0
C1449 C 0.61635 1.00438 0.12772 0.0
C1450 C 0.64158 0.0792 0.13391 0.0
C1451 C 0.62507 0.11148 0.12317 0.0
C1452 C 0.60425 0.08933 0.11454 0.0
C1453 C 0.59993 0.0365 0.11683 0.0
C1454 C 0.61485 0.25654 0.12204 0.0
C1455 C 0.63778 0.27561 0.11791 0.0
C1456 C 0.61073 0.20349 0.12369 0.0
C1457 C 0.62942 0.16803 0.12117 0.0
C1458 C 0.65233 0.18709 0.11691 0.0
C1459 C 0.65646 0.24013 0.11535 0.0
H1460 H 0.33564 0.80268 0.08817 0.0
H1461 H 0.37424 0.77536 0.1494 0.0
H1462 H 0.3413 0.89505 0.09263 0.0
H1463 H 0.3809 0.86771 0.15328 0.0
H1464 H 0.36846 0.03909 0.16546 0.0
H1465 H 0.36076 0.94708 0.16159 0.0
H1466 H 0.3718 0.95919 0.09023 0.0
H1467 H 0.37924 0.05129 0.09412 0.0
C1468 C 0.34526 0.81633 0.10265 0.0
C1469 C 0.35441 0.7814 0.11846 0.0
C1470 C 0.34879 0.86938 0.10504 0.0
C1471 C 0.36162 0.889 0.12328 0.0
C1472 C 0.3707 0.8541 0.13915 0.0
C1473 C 0.36713 0.80101 0.13678 0.0
C1474 C 0.36932 1.02205 0.14896 0.0
C1475 C 0.37451 0.05256 0.13011 0.0
C1476 C 0.36495 0.96924 0.14673 0.0
C1477 C 0.36573 0.94552 0.1256 0.0
C1478 C 0.3707 0.9762 0.10672 0.0
C1479 C 0.37498 0.02906 0.10894 0.0
H1480 H 0.63217 0.0427 0.32558 0.0
H1481 H 0.61742 0.05728 0.39618 0.0
H1482 H 0.6391 0.95062 0.33046 0.0
H1483 H 0.62407 0.9651 0.40108 0.0
H1484 H 0.65947 0.80773 0.40603 0.0
H1485 H 0.65418 0.90005 0.40081 0.0
H1486 H 0.61844 0.87175 0.33818 0.0
H1487 H 0.62477 0.77946 0.34288 0.0
C1488 C 0.63026 1.02618 0.34213 0.0
C1489 C 0.62421 0.05743 0.36048 0.0
C1490 C 0.63418 0.9733 0.34494 0.0
C1491 C 0.63208 0.95018 0.36616 0.0
C1492 C 0.62621 0.98157 0.38454 0.0
C1493 C 0.62238 0.03451 0.38174 0.0
C1494 C 0.65076 0.82115 0.39098 0.0
C1495 C 0.64263 0.78593 0.37484 0.0
C1496 C 0.64744 0.8742 0.38813 0.0
C1497 C 0.63583 0.89358 0.36909 0.0
C1498 C 0.6277 0.85838 0.35294 0.0
C1499 C 0.63107 0.8053 0.35577 0.0
H1500 H 0.40792 1.01963 0.37918 0.0
H1501 H 0.34323 1.00562 0.34119 0.0
H1502 H 0.40082 0.1117 0.38354 0.0
H1503 H 0.33576 0.09772 0.34611 0.0
H1504 H 0.34515 0.2739 0.33844 0.0
H1505 H 0.35186 0.18144 0.33382 0.0
H1506 H 0.37404 0.17063 0.40276 0.0
H1507 H 0.36798 0.26304 0.40719 0.0
C1508 C 0.39217 0.0362 0.37175 0.0
C1509 C 0.37619 1.00519 0.35976 0.0
C1510 C 0.38797 0.08895 0.37444 0.0
C1511 C 0.36772 0.11219 0.36517 0.0
C1512 C 0.35166 0.08117 0.35327 0.0
C1513 C 0.3558 1.02827 0.35067 0.0
C1514 C 0.35164 0.25183 0.35255 0.0
C1515 C 0.35602 0.27594 0.37318 0.0
C1516 C 0.35523 0.19873 0.34997 0.0
C1517 C 0.36347 0.16855 0.36793 0.0
C1518 C 0.3679 0.19274 0.38853 0.0
C1519 C 0.36419 0.24569 0.39113 0.0
H1520 H 0.31795 0.79235 0.86429 0.0
H1521 H 0.39285 0.77051 0.87565 0.0
H1522 H 0.32444 0.88462 0.85944 0.0
H1523 H 0.39934 0.86272 0.87095 0.0
H1524 H 0.40629 1.02133 0.83892 0.0
H1525 H 0.39922 0.92938 0.84317 0.0
H1526 H 0.33479 0.96152 0.87975 0.0
H1527 H 0.34129 0.05371 0.87456 0.0
C1528 C 0.33579 0.80726 0.86591 0.0
C1529 C 0.35488 0.77388 0.87032 0.0
C1530 C 0.33951 0.86025 0.86317 0.0
C1531 C 0.36243 0.88131 0.8648 0.0
C1532 C 0.38151 0.84787 0.8692 0.0
C1533 C 0.37779 0.79489 0.87189 0.0
C1534 C 0.39044 1.00891 0.84763 0.0
C1535 C 0.37432 0.04517 0.8563 0.0
C1536 C 0.38655 0.95603 0.85034 0.0
C1537 C 0.36645 0.93781 0.86186 0.0
C1538 C 0.35033 0.97404 0.87057 0.0
C1539 C 0.35421 1.02701 0.86783 0.0
H1540 H 0.62088 0.27499 0.84308 0.0
H1541 H 0.65958 0.24708 0.9042 0.0
H1542 H 0.61429 0.18269 0.83899 0.0
H1543 H 0.65399 0.15472 0.89953 0.0
H1544 H 0.61665 0.99777 0.8974 0.0
H1545 H 0.6238 0.0899 0.90169 0.0
H1546 H 0.63456 0.10386 0.83035 0.0
H1547 H 0.62711 1.01188 0.82608 0.0
C1548 C 0.62801 0.24922 0.85564 0.0
C1549 C 0.64076 0.26866 0.87398 0.0
C1550 C 0.62449 0.19615 0.85315 0.0
C1551 C 0.63364 0.16107 0.86891 0.0
C1552 C 0.64646 0.18052 0.88719 0.0
C1553 C 0.64993 0.23357 0.88971 0.0
C1554 C 0.62078 1.02043 0.88267 0.0
C1555 C 0.62123 0.99745 0.8614 0.0
C1556 C 0.6249 0.07331 0.88512 0.0
C1557 C 0.6297 0.10452 0.86636 0.0
C1558 C 0.63048 0.08131 0.84512 0.0
C1559 C 0.62626 0.0285 0.84267 0.0
H1560 H 0.37106 1.00709 0.66697 0.0
H1561 H 0.37297 0.99459 0.59498 0.0
H1562 H 0.3631 0.09916 0.66376 0.0
H1563 H 0.36529 0.08677 0.59171 0.0
H1564 H 0.32881 0.24314 0.59328 0.0
H1565 H 0.33529 0.15087 0.5972 0.0
H1566 H 0.38179 0.17876 0.65321 0.0
H1567 H 0.37439 0.27102 0.64996 0.0
C1568 C 0.36994 1.02408 0.65044 0.0
C1569 C 0.37268 0.99342 0.63123 0.0
C1570 C 0.36542 0.07695 0.64859 0.0
C1571 C 0.3636 0.10062 0.62747 0.0
C1572 C 0.3662 0.06983 0.60826 0.0
C1573 C 0.37063 1.01691 0.61011 0.0
C1574 C 0.34016 0.22964 0.60665 0.0
C1575 C 0.35099 0.26472 0.62136 0.0
C1576 C 0.34414 0.17663 0.60871 0.0
C1577 C 0.35913 0.15716 0.62549 0.0
C1578 C 0.36993 0.19221 0.64024 0.0
C1579 C 0.36591 0.24527 0.63821 0.0
H1580 H 0.66665 0.80684 0.60045 0.0
H1581 H 0.59751 0.77592 0.62863 0.0
H1582 H 0.65973 0.89899 0.60429 0.0
H1583 H 0.59105 0.86812 0.63346 0.0
H1584 H 0.57694 0.03767 0.61727 0.0
H1585 H 0.58367 0.94554 0.61243 0.0
H1586 H 0.65677 0.96532 0.63201 0.0
H1587 H 0.65005 0.05747 0.63666 0.0
C1588 C 0.64993 0.81963 0.60744 0.0
C1589 C 0.63261 0.78372 0.61414 0.0
C1590 C 0.64609 0.8726 0.60991 0.0
C1591 C 0.62483 0.89122 0.61921 0.0
C1592 C 0.60752 0.85532 0.62598 0.0
C1593 C 0.61136 0.80231 0.62348 0.0
C1594 C 0.59442 1.02232 0.62064 0.0
C1595 C 0.61295 0.05508 0.62736 0.0
C1596 C 0.59828 0.96941 0.61791 0.0
C1597 C 0.62076 0.94776 0.62188 0.0
C1598 C 0.63932 0.98062 0.62847 0.0
C1599 C 0.63547 0.03356 0.63114 0.0
loop_
_geom_bond_atom_site_label_1
_geom_bond_atom_site_label_2
_geom_bond_distance
_geom_bond_site_symmetry_2
_ccdc_geom_bond_type
Eu0 C9 2.828 1_545 S
Eu0 O11 2.392 . S
Eu0 O13 2.418 . S
Eu0 O18 2.373 . S
Eu0 O21 2.488 1_545 S
Eu0 O22 2.471 1_545 S
Eu0 O23 2.349 . S
Eu1 O10 2.373 . S
Eu1 O14 2.488 . S
Eu1 O15 2.471 . S
Eu1 O16 2.349 . S
Eu1 O19 2.392 . S
Eu1 O20 2.418 . S
Eu1 C30 2.828 . S
C2 O20 1.244 . S
C2 O23 1.265 . S
C3 C4 1.379 . S
C3 C7 1.373 . S
C3 C9 1.505 . S
C4 C3 1.379 . S
C4 C6 1.369 . S
C4 H32 0.930 . S
C5 C7 1.383 . S
C5 C8 1.382 . S
C5 H33 0.930 . S
C6 C4 1.369 . S
C6 C8 1.392 . S
C6 H34 0.930 . S
C7 C3 1.373 . S
C7 C5 1.383 . S
C7 H35 0.931 . S
C8 C5 1.382 . S
C8 C6 1.392 . S
C9 Eu0 2.828 1_565 S
C9 C3 1.505 . S
C9 O21 1.249 . S
C9 O22 1.244 . S
O10 Eu1 2.373 . S
O10 C12 1.258 . S
O11 Eu0 2.392 . S
O11 C12 1.242 . S
C12 O10 1.258 . S
C12 O11 1.242 . S
O13 Eu0 2.418 . S
O13 C17 1.244 . S
O14 Eu1 2.488 . S
O14 C30 1.249 . S
O15 Eu1 2.471 . S
O15 C30 1.244 . S
O16 Eu1 2.349 . S
O16 C17 1.265 . S
C17 O13 1.244 . S
C17 O16 1.265 . S
O18 Eu0 2.373 . S
O18 C31 1.258 . S
O19 Eu1 2.392 . S
O19 C31 1.242 . S
O20 Eu1 2.418 . S
O20 C2 1.244 . S
O21 Eu0 2.488 1_565 S
O21 C9 1.249 . S
O22 Eu0 2.471 1_565 S
O22 C9 1.244 . S
O23 Eu0 2.349 . S
O23 C2 1.265 . S
C24 C25 1.379 . S
C24 C28 1.373 . S
C24 C30 1.505 . S
C25 C24 1.379 . S
C25 C27 1.369 . S
C25 H36 0.930 . S
C26 C28 1.383 . S
C26 C29 1.382 . S
C26 H37 0.930 . S
C27 C25 1.369 . S
C27 C29 1.392 . S
C27 H38 0.930 . S
C28 C24 1.373 . S
C28 C26 1.383 . S
C28 H39 0.931 . S
C29 C26 1.382 . S
C29 C27 1.392 . S
C30 Eu1 2.828 . S
C30 O14 1.249 . S
C30 O15 1.244 . S
C30 C24 1.505 . S
C31 O18 1.258 . S
C31 O19 1.242 . S
H32 C4 0.930 . S
H33 C5 0.930 . S
H34 C6 0.930 . S
H35 C7 0.931 . S
H36 C25 0.930 . S
H37 C26 0.930 . S
H38 C27 0.930 . S
H39 C28 0.931 . S
Eu40 C49 2.828 1_565 S
Eu40 O51 2.392 . S
Eu40 O53 2.418 . S
Eu40 O58 2.373 . S
Eu40 O61 2.488 1_565 S
Eu40 O62 2.471 1_565 S
Eu40 O63 2.349 . S
Eu41 O50 2.373 . S
Eu41 O54 2.488 . S
Eu41 O55 2.471 . S
Eu41 O56 2.349 . S
Eu41 O59 2.392 . S
Eu41 O60 2.418 . S
Eu41 C70 2.828 . S
C42 O60 1.244 . S
C42 O63 1.265 . S
C43 C44 1.379 . S
C43 C47 1.373 . S
C43 C49 1.505 . S
C44 C43 1.379 . S
C44 C46 1.369 . S
C44 H72 0.930 . S
C45 C47 1.383 . S
C45 C48 1.382 . S
C45 H73 0.930 . S
C46 C44 1.369 . S
C46 C48 1.392 . S
C46 H74 0.930 . S
C47 C43 1.373 . S
C47 C45 1.383 . S
C47 H75 0.931 . S
C48 C45 1.382 . S
C48 C46 1.392 . S
C49 Eu40 2.828 1_545 S
C49 C43 1.505 . S
C49 O61 1.249 . S
C49 O62 1.244 . S
O50 Eu41 2.373 . S
O50 C52 1.258 . S
O51 Eu40 2.392 . S
O51 C52 1.242 . S
C52 O50 1.258 . S
C52 O51 1.242 . S
O53 Eu40 2.418 . S
O53 C57 1.244 . S
O54 Eu41 2.488 . S
O54 C70 1.249 . S
O55 Eu41 2.471 . S
O55 C70 1.244 . S
O56 Eu41 2.349 . S
O56 C57 1.265 . S
C57 O53 1.244 . S
C57 O56 1.265 . S
O58 Eu40 2.373 . S
O58 C71 1.258 . S
O59 Eu41 2.392 . S
O59 C71 1.242 . S
O60 Eu41 2.418 . S
O60 C42 1.244 . S
O61 Eu40 2.488 1_545 S
O61 C49 1.249 . S
O62 Eu40 2.471 1_545 S
O62 C49 1.244 . S
O63 Eu40 2.349 . S
O63 C42 1.265 . S
C64 C65 1.379 . S
C64 C68 1.373 . S
C64 C70 1.505 . S
C65 C64 1.379 . S
C65 C67 1.369 . S
C65 H76 0.930 . S
C66 C68 1.383 . S
C66 C69 1.382 . S
C66 H77 0.930 . S
C67 C65 1.369 . S
C67 C69 1.392 . S
C67 H78 0.930 . S
C68 C64 1.373 . S
C68 C66 1.383 . S
C68 H79 0.931 . S
C69 C66 1.382 . S
C69 C67 1.392 . S
C70 Eu41 2.828 . S
C70 O54 1.249 . S
C70 O55 1.244 . S
C70 C64 1.505 . S
C71 O58 1.258 . S
C71 O59 1.242 . S
H72 C44 0.930 . S
H73 C45 0.930 . S
H74 C46 0.930 . S
H75 C47 0.931 . S
H76 C65 0.930 . S
H77 C66 0.930 . S
H78 C67 0.930 . S
H79 C68 0.931 . S
Eu80 C89 2.828 1_565 S
Eu80 O91 2.392 . S
Eu80 O93 2.418 . S
Eu80 O98 2.373 . S
Eu80 O101 2.488 1_565 S
Eu80 O102 2.471 1_565 S
Eu80 O103 2.349 . S
Eu81 O90 2.373 . S
Eu81 O94 2.488 . S
Eu81 O95 2.471 . S
Eu81 O96 2.349 . S
Eu81 O99 2.392 . S
Eu81 O100 2.418 . S
Eu81 C110 2.828 . S
C82 O100 1.244 . S
C82 O103 1.265 . S
C83 C84 1.379 . S
C83 C87 1.373 . S
C83 C89 1.505 . S
C84 C83 1.379 . S
C84 C86 1.369 . S
C84 H112 0.930 . S
C85 C87 1.383 . S
C85 C88 1.382 . S
C85 H113 0.930 . S
C86 C84 1.369 . S
C86 C88 1.392 . S
C86 H114 0.930 . S
C87 C83 1.373 . S
C87 C85 1.383 . S
C87 H115 0.931 . S
C88 C85 1.382 . S
C88 C86 1.392 . S
C89 Eu80 2.828 1_545 S
C89 C83 1.505 . S
C89 O101 1.249 . S
C89 O102 1.244 . S
O90 Eu81 2.373 . S
O90 C92 1.258 . S
O91 Eu80 2.392 . S
O91 C92 1.242 . S
C92 O90 1.258 . S
C92 O91 1.242 . S
O93 Eu80 2.418 . S
O93 C97 1.244 . S
O94 Eu81 2.488 . S
O94 C110 1.249 . S
O95 Eu81 2.471 . S
O95 C110 1.244 . S
O96 Eu81 2.349 . S
O96 C97 1.265 . S
C97 O93 1.244 . S
C97 O96 1.265 . S
O98 Eu80 2.373 . S
O98 C111 1.258 . S
O99 Eu81 2.392 . S
O99 C111 1.242 . S
O100 Eu81 2.418 . S
O100 C82 1.244 . S
O101 Eu80 2.488 1_545 S
O101 C89 1.249 . S
O102 Eu80 2.471 1_545 S
O102 C89 1.244 . S
O103 Eu80 2.349 . S
O103 C82 1.265 . S
C104 C105 1.379 . S
C104 C108 1.373 . S
C104 C110 1.505 . S
C105 C104 1.379 . S
C105 C107 1.369 . S
C105 H116 0.930 . S
C106 C108 1.383 . S
C106 C109 1.382 . S
C106 H117 0.930 . S
C107 C105 1.369 . S
C107 C109 1.392 . S
C107 H118 0.930 . S
C108 C104 1.373 . S
C108 C106 1.383 . S
C108 H119 0.931 . S
C109 C106 1.382 . S
C109 C107 1.392 . S
C110 Eu81 2.828 . S
C110 O94 1.249 . S
C110 O95 1.244 . S
C110 C104 1.505 . S
C111 O98 1.258 . S
C111 O99 1.242 . S
H112 C84 0.930 . S
H113 C85 0.930 . S
H114 C86 0.930 . S
H115 C87 0.931 . S
H116 C105 0.930 . S
H117 C106 0.930 . S
H118 C107 0.930 . S
H119 C108 0.931 . S
Eu120 C129 2.828 1_545 S
Eu120 O131 2.392 . S
Eu120 O133 2.418 . S
Eu120 O138 2.373 . S
Eu120 O141 2.488 1_545 S
Eu120 O142 2.471 1_545 S
Eu120 O143 2.349 . S
Eu121 O130 2.373 . S
Eu121 O134 2.488 . S
Eu121 O135 2.471 . S
Eu121 O136 2.349 . S
Eu121 O139 2.392 . S
Eu121 O140 2.418 . S
Eu121 C150 2.828 . S
C122 O140 1.244 . S
C122 O143 1.265 . S
C123 C124 1.379 . S
C123 C127 1.373 . S
C123 C129 1.505 . S
C124 C123 1.379 . S
C124 C126 1.369 . S
C124 H152 0.930 . S
C125 C127 1.383 . S
C125 C128 1.382 . S
C125 H153 0.930 . S
C126 C124 1.369 . S
C126 C128 1.392 . S
C126 H154 0.930 . S
C127 C123 1.373 . S
C127 C125 1.383 . S
C127 H155 0.931 . S
C128 C125 1.382 . S
C128 C126 1.392 . S
C129 Eu120 2.828 1_565 S
C129 C123 1.505 . S
C129 O141 1.249 . S
C129 O142 1.244 . S
O130 Eu121 2.373 . S
O130 C132 1.258 . S
O131 Eu120 2.392 . S
O131 C132 1.242 . S
C132 O130 1.258 . S
C132 O131 1.242 . S
O133 Eu120 2.418 . S
O133 C137 1.244 . S
O134 Eu121 2.488 . S
O134 C150 1.249 . S
O135 Eu121 2.471 . S
O135 C150 1.244 . S
O136 Eu121 2.349 . S
O136 C137 1.265 . S
C137 O133 1.244 . S
C137 O136 1.265 . S
O138 Eu120 2.373 . S
O138 C151 1.258 . S
O139 Eu121 2.392 . S
O139 C151 1.242 . S
O140 Eu121 2.418 . S
O140 C122 1.244 . S
O141 Eu120 2.488 1_565 S
O141 C129 1.249 . S
O142 Eu120 2.471 1_565 S
O142 C129 1.244 . S
O143 Eu120 2.349 . S
O143 C122 1.265 . S
C144 C145 1.379 . S
C144 C148 1.373 . S
C144 C150 1.505 . S
C145 C144 1.379 . S
C145 C147 1.369 . S
C145 H156 0.930 . S
C146 C148 1.383 . S
C146 C149 1.382 . S
C146 H157 0.930 . S
C147 C145 1.369 . S
C147 C149 1.392 . S
C147 H158 0.930 . S
C148 C144 1.373 . S
C148 C146 1.383 . S
C148 H159 0.931 . S
C149 C146 1.382 . S
C149 C147 1.392 . S
C150 Eu121 2.828 . S
C150 O134 1.249 . S
C150 O135 1.244 . S
C150 C144 1.505 . S
C151 O138 1.258 . S
C151 O139 1.242 . S
H152 C124 0.930 . S
H153 C125 0.930 . S
H154 C126 0.930 . S
H155 C127 0.931 . S
H156 C145 0.930 . S
H157 C146 0.930 . S
H158 C147 0.930 . S
H159 C148 0.931 . S
Eu160 C169 2.828 . S
Eu160 O171 2.392 . S
Eu160 O173 2.418 . S
Eu160 O178 2.373 . S
Eu160 O181 2.488 . S
Eu160 O182 2.471 . S
Eu160 O183 2.349 . S
Eu161 O170 2.373 . S
Eu161 O174 2.488 1_565 S
Eu161 O175 2.471 1_565 S
Eu161 O176 2.349 . S
Eu161 O179 2.392 . S
Eu161 O180 2.418 . S
Eu161 C190 2.828 1_565 S
C162 O180 1.244 . S
C162 O183 1.265 . S
C163 C164 1.379 . S
C163 C167 1.373 . S
C163 C169 1.505 . S
C164 C163 1.379 . S
C164 C166 1.369 . S
C164 H192 0.930 . S
C165 C167 1.383 . S
C165 C168 1.382 . S
C165 H193 0.930 . S
C166 C164 1.369 . S
C166 C168 1.392 . S
C166 H194 0.930 . S
C167 C163 1.373 . S
C167 C165 1.383 . S
C167 H195 0.931 . S
C168 C165 1.382 . S
C168 C166 1.392 . S
C169 Eu160 2.828 . S
C169 C163 1.505 . S
C169 O181 1.249 . S
C169 O182 1.244 . S
O170 Eu161 2.373 . S
O170 C172 1.258 . S
O171 Eu160 2.392 . S
O171 C172 1.242 . S
C172 O170 1.258 . S
C172 O171 1.242 . S
O173 Eu160 2.418 . S
O173 C177 1.244 . S
O174 Eu161 2.488 1_545 S
O174 C190 1.249 . S
O175 Eu161 2.471 1_545 S
O175 C190 1.244 . S
O176 Eu161 2.349 . S
O176 C177 1.265 . S
C177 O173 1.244 . S
C177 O176 1.265 . S
O178 Eu160 2.373 . S
O178 C191 1.258 . S
O179 Eu161 2.392 . S
O179 C191 1.242 . S
O180 Eu161 2.418 . S
O180 C162 1.244 . S
O181 Eu160 2.488 . S
O181 C169 1.249 . S
O182 Eu160 2.471 . S
O182 C169 1.244 . S
O183 Eu160 2.349 . S
O183 C162 1.265 . S
C184 C185 1.379 . S
C184 C188 1.373 . S
C184 C190 1.505 . S
C185 C184 1.379 . S
C185 C187 1.369 . S
C185 H196 0.930 . S
C186 C188 1.383 . S
C186 C189 1.382 . S
C186 H197 0.930 . S
C187 C185 1.369 . S
C187 C189 1.392 . S
C187 H198 0.930 . S
C188 C184 1.373 . S
C188 C186 1.383 . S
C188 H199 0.931 . S
C189 C186 1.382 . S
C189 C187 1.392 . S
C190 Eu161 2.828 1_545 S
C190 O174 1.249 . S
C190 O175 1.244 . S
C190 C184 1.505 . S
C191 O178 1.258 . S
C191 O179 1.242 . S
H192 C164 0.930 . S
H193 C165 0.930 . S
H194 C166 0.930 . S
H195 C167 0.931 . S
H196 C185 0.930 . S
H197 C186 0.930 . S
H198 C187 0.930 . S
H199 C188 0.931 . S
Eu200 C209 2.828 . S
Eu200 O211 2.392 . S
Eu200 O213 2.418 . S
Eu200 O218 2.373 . S
Eu200 O221 2.488 . S
Eu200 O222 2.471 . S
Eu200 O223 2.349 . S
Eu201 O210 2.373 . S
Eu201 O214 2.488 1_545 S
Eu201 O215 2.471 1_545 S
Eu201 O216 2.349 . S
Eu201 O219 2.392 . S
Eu201 O220 2.418 . S
Eu201 C230 2.828 1_545 S
C202 O220 1.244 . S
C202 O223 1.265 . S
C203 C204 1.379 . S
C203 C207 1.373 . S
C203 C209 1.505 . S
C204 C203 1.379 . S
C204 C206 1.369 . S
C204 H232 0.930 . S
C205 C207 1.383 . S
C205 C208 1.382 . S
C205 H233 0.930 . S
C206 C204 1.369 . S
C206 C208 1.392 . S
C206 H234 0.930 . S
C207 C203 1.373 . S
C207 C205 1.383 . S
C207 H235 0.931 . S
C208 C205 1.382 . S
C208 C206 1.392 . S
C209 Eu200 2.828 . S
C209 C203 1.505 . S
C209 O221 1.249 . S
C209 O222 1.244 . S
O210 Eu201 2.373 . S
O210 C212 1.258 . S
O211 Eu200 2.392 . S
O211 C212 1.242 . S
C212 O210 1.258 . S
C212 O211 1.242 . S
O213 Eu200 2.418 . S
O213 C217 1.244 . S
O214 Eu201 2.488 1_565 S
O214 C230 1.249 . S
O215 Eu201 2.471 1_565 S
O215 C230 1.244 . S
O216 Eu201 2.349 . S
O216 C217 1.265 . S
C217 O213 1.244 . S
C217 O216 1.265 . S
O218 Eu200 2.373 . S
O218 C231 1.258 . S
O219 Eu201 2.392 . S
O219 C231 1.242 . S
O220 Eu201 2.418 . S
O220 C202 1.244 . S
O221 Eu200 2.488 . S
O221 C209 1.249 . S
O222 Eu200 2.471 . S
O222 C209 1.244 . S
O223 Eu200 2.349 . S
O223 C202 1.265 . S
C224 C225 1.379 . S
C224 C228 1.373 . S
C224 C230 1.505 . S
C225 C224 1.379 . S
C225 C227 1.369 . S
C225 H236 0.930 . S
C226 C228 1.383 . S
C226 C229 1.382 . S
C226 H237 0.930 . S
C227 C225 1.369 . S
C227 C229 1.392 . S
C227 H238 0.930 . S
C228 C224 1.373 . S
C228 C226 1.383 . S
C228 H239 0.931 . S
C229 C226 1.382 . S
C229 C227 1.392 . S
C230 Eu201 2.828 1_565 S
C230 O214 1.249 . S
C230 O215 1.244 . S
C230 C224 1.505 . S
C231 O218 1.258 . S
C231 O219 1.242 . S
H232 C204 0.930 . S
H233 C205 0.930 . S
H234 C206 0.930 . S
H235 C207 0.931 . S
H236 C225 0.930 . S
H237 C226 0.930 . S
H238 C227 0.930 . S
H239 C228 0.931 . S
Eu240 C249 2.828 . S
Eu240 O251 2.392 . S
Eu240 O253 2.418 . S
Eu240 O258 2.373 . S
Eu240 O261 2.488 . S
Eu240 O262 2.471 . S
Eu240 O263 2.349 . S
Eu241 O250 2.373 . S
Eu241 O254 2.488 1_545 S
Eu241 O255 2.471 1_545 S
Eu241 O256 2.349 . S
Eu241 O259 2.392 . S
Eu241 O260 2.418 . S
Eu241 C270 2.828 1_545 S
C242 O260 1.244 . S
C242 O263 1.265 . S
C243 C244 1.379 . S
C243 C247 1.373 . S
C243 C249 1.505 . S
C244 C243 1.379 . S
C244 C246 1.369 . S
C244 H272 0.930 . S
C245 C247 1.383 . S
C245 C248 1.382 . S
C245 H273 0.930 . S
C246 C244 1.369 . S
C246 C248 1.392 . S
C246 H274 0.930 . S
C247 C243 1.373 . S
C247 C245 1.383 . S
C247 H275 0.931 . S
C248 C245 1.382 . S
C248 C246 1.392 . S
C249 Eu240 2.828 . S
C249 C243 1.505 . S
C249 O261 1.249 . S
C249 O262 1.244 . S
O250 Eu241 2.373 . S
O250 C252 1.258 . S
O251 Eu240 2.392 . S
O251 C252 1.242 . S
C252 O250 1.258 . S
C252 O251 1.242 . S
O253 Eu240 2.418 . S
O253 C257 1.244 . S
O254 Eu241 2.488 1_565 S
O254 C270 1.249 . S
O255 Eu241 2.471 1_565 S
O255 C270 1.244 . S
O256 Eu241 2.349 . S
O256 C257 1.265 . S
C257 O253 1.244 . S
C257 O256 1.265 . S
O258 Eu240 2.373 . S
O258 C271 1.258 . S
O259 Eu241 2.392 . S
O259 C271 1.242 . S
O260 Eu241 2.418 . S
O260 C242 1.244 . S
O261 Eu240 2.488 . S
O261 C249 1.249 . S
O262 Eu240 2.471 . S
O262 C249 1.244 . S
O263 Eu240 2.349 . S
O263 C242 1.265 . S
C264 C265 1.379 . S
C264 C268 1.373 . S
C264 C270 1.505 . S
C265 C264 1.379 . S
C265 C267 1.369 . S
C265 H276 0.930 . S
C266 C268 1.383 . S
C266 C269 1.382 . S
C266 H277 0.930 . S
C267 C265 1.369 . S
C267 C269 1.392 . S
C267 H278 0.930 . S
C268 C264 1.373 . S
C268 C266 1.383 . S
C268 H279 0.931 . S
C269 C266 1.382 . S
C269 C267 1.392 . S
C270 Eu241 2.828 1_565 S
C270 O254 1.249 . S
C270 O255 1.244 . S
C270 C264 1.505 . S
C271 O258 1.258 . S
C271 O259 1.242 . S
H272 C244 0.930 . S
H273 C245 0.930 . S
H274 C246 0.930 . S
H275 C247 0.931 . S
H276 C265 0.930 . S
H277 C266 0.930 . S
H278 C267 0.930 . S
H279 C268 0.931 . S
Eu280 C289 2.828 . S
Eu280 O291 2.392 . S
Eu280 O293 2.418 . S
Eu280 O298 2.373 . S
Eu280 O301 2.488 . S
Eu280 O302 2.471 . S
Eu280 O303 2.349 . S
Eu281 O290 2.373 . S
Eu281 O294 2.488 1_565 S
Eu281 O295 2.471 1_565 S
Eu281 O296 2.349 . S
Eu281 O299 2.392 . S
Eu281 O300 2.418 . S
Eu281 C310 2.828 1_565 S
C282 O300 1.244 . S
C282 O303 1.265 . S
C283 C284 1.379 . S
C283 C287 1.373 . S
C283 C289 1.505 . S
C284 C283 1.379 . S
C284 C286 1.369 . S
C284 H312 0.930 . S
C285 C287 1.383 . S
C285 C288 1.382 . S
C285 H313 0.930 . S
C286 C284 1.369 . S
C286 C288 1.392 . S
C286 H314 0.930 . S
C287 C283 1.373 . S
C287 C285 1.383 . S
C287 H315 0.931 . S
C288 C285 1.382 . S
C288 C286 1.392 . S
C289 Eu280 2.828 . S
C289 C283 1.505 . S
C289 O301 1.249 . S
C289 O302 1.244 . S
O290 Eu281 2.373 . S
O290 C292 1.258 . S
O291 Eu280 2.392 . S
O291 C292 1.242 . S
C292 O290 1.258 . S
C292 O291 1.242 . S
O293 Eu280 2.418 . S
O293 C297 1.244 . S
O294 Eu281 2.488 1_545 S
O294 C310 1.249 . S
O295 Eu281 2.471 1_545 S
O295 C310 1.244 . S
O296 Eu281 2.349 . S
O296 C297 1.265 . S
C297 O293 1.244 . S
C297 O296 1.265 . S
O298 Eu280 2.373 . S
O298 C311 1.258 . S
O299 Eu281 2.392 . S
O299 C311 1.242 . S
O300 Eu281 2.418 . S
O300 C282 1.244 . S
O301 Eu280 2.488 . S
O301 C289 1.249 . S
O302 Eu280 2.471 . S
O302 C289 1.244 . S
O303 Eu280 2.349 . S
O303 C282 1.265 . S
C304 C305 1.379 . S
C304 C308 1.373 . S
C304 C310 1.505 . S
C305 C304 1.379 . S
C305 C307 1.369 . S
C305 H316 0.930 . S
C306 C308 1.383 . S
C306 C309 1.382 . S
C306 H317 0.930 . S
C307 C305 1.369 . S
C307 C309 1.392 . S
C307 H318 0.930 . S
C308 C304 1.373 . S
C308 C306 1.383 . S
C308 H319 0.931 . S
C309 C306 1.382 . S
C309 C307 1.392 . S
C310 Eu281 2.828 1_545 S
C310 O294 1.249 . S
C310 O295 1.244 . S
C310 C304 1.505 . S
C311 O298 1.258 . S
C311 O299 1.242 . S
H312 C284 0.930 . S
H313 C285 0.930 . S
H314 C286 0.930 . S
H315 C287 0.931 . S
H316 C305 0.930 . S
H317 C306 0.930 . S
H318 C307 0.930 . S
H319 C308 0.931 . S
Eu320 C329 2.828 . S
Eu320 O331 2.392 . S
Eu320 O333 2.418 . S
Eu320 O338 2.373 . S
Eu320 O341 2.488 . S
Eu320 O342 2.471 . S
Eu320 O343 2.349 . S
Eu321 O330 2.373 . S
Eu321 O334 2.488 . S
Eu321 O335 2.471 . S
Eu321 O336 2.349 . S
Eu321 O339 2.392 . S
Eu321 O340 2.418 . S
Eu321 C350 2.828 . S
C322 O340 1.244 . S
C322 O343 1.265 . S
C323 C324 1.379 . S
C323 C327 1.373 . S
C323 C329 1.505 . S
C324 C323 1.379 . S
C324 C326 1.369 . S
C324 H352 0.930 . S
C325 C327 1.383 . S
C325 C328 1.382 . S
C325 H353 0.930 . S
C326 C324 1.369 . S
C326 C328 1.392 . S
C326 H354 0.930 . S
C327 C323 1.373 . S
C327 C325 1.383 . S
C327 H355 0.931 . S
C328 C325 1.382 . S
C328 C326 1.392 . S
C329 Eu320 2.828 . S
C329 C323 1.505 . S
C329 O341 1.249 . S
C329 O342 1.244 . S
O330 Eu321 2.373 . S
O330 C332 1.258 . S
O331 Eu320 2.392 . S
O331 C332 1.242 . S
C332 O330 1.258 . S
C332 O331 1.242 . S
O333 Eu320 2.418 . S
O333 C337 1.244 . S
O334 Eu321 2.488 . S
O334 C350 1.249 . S
O335 Eu321 2.471 . S
O335 C350 1.244 . S
O336 Eu321 2.349 . S
O336 C337 1.265 . S
C337 O333 1.244 . S
C337 O336 1.265 . S
O338 Eu320 2.373 . S
O338 C351 1.258 . S
O339 Eu321 2.392 . S
O339 C351 1.242 . S
O340 Eu321 2.418 . S
O340 C322 1.244 . S
O341 Eu320 2.488 . S
O341 C329 1.249 . S
O342 Eu320 2.471 . S
O342 C329 1.244 . S
O343 Eu320 2.349 . S
O343 C322 1.265 . S
C344 C345 1.379 . S
C344 C348 1.373 . S
C344 C350 1.505 . S
C345 C344 1.379 . S
C345 C347 1.369 . S
C345 H356 0.930 . S
C346 C348 1.383 . S
C346 C349 1.382 . S
C346 H357 0.930 . S
C347 C345 1.369 . S
C347 C349 1.392 . S
C347 H358 0.930 . S
C348 C344 1.373 . S
C348 C346 1.383 . S
C348 H359 0.931 . S
C349 C346 1.382 . S
C349 C347 1.392 . S
C350 Eu321 2.828 . S
C350 O334 1.249 . S
C350 O335 1.244 . S
C350 C344 1.505 . S
C351 O338 1.258 . S
C351 O339 1.242 . S
H352 C324 0.930 . S
H353 C325 0.930 . S
H354 C326 0.930 . S
H355 C327 0.931 . S
H356 C345 0.930 . S
H357 C346 0.930 . S
H358 C347 0.930 . S
H359 C348 0.931 . S
Eu360 C369 2.828 . S
Eu360 O371 2.392 . S
Eu360 O373 2.418 . S
Eu360 O378 2.373 . S
Eu360 O381 2.488 . S
Eu360 O382 2.471 . S
Eu360 O383 2.349 . S
Eu361 O370 2.373 . S
Eu361 O374 2.488 . S
Eu361 O375 2.471 . S
Eu361 O376 2.349 . S
Eu361 O379 2.392 . S
Eu361 O380 2.418 . S
Eu361 C390 2.828 . S
C362 O380 1.244 . S
C362 O383 1.265 . S
C363 C364 1.379 . S
C363 C367 1.373 . S
C363 C369 1.505 . S
C364 C363 1.379 . S
C364 C366 1.369 . S
C364 H392 0.930 . S
C365 C367 1.383 . S
C365 C368 1.382 . S
C365 H393 0.930 . S
C366 C364 1.369 . S
C366 C368 1.392 . S
C366 H394 0.930 . S
C367 C363 1.373 . S
C367 C365 1.383 . S
C367 H395 0.931 . S
C368 C365 1.382 . S
C368 C366 1.392 . S
C369 Eu360 2.828 . S
C369 C363 1.505 . S
C369 O381 1.249 . S
C369 O382 1.244 . S
O370 Eu361 2.373 . S
O370 C372 1.258 . S
O371 Eu360 2.392 . S
O371 C372 1.242 . S
C372 O370 1.258 . S
C372 O371 1.242 . S
O373 Eu360 2.418 . S
O373 C377 1.244 . S
O374 Eu361 2.488 . S
O374 C390 1.249 . S
O375 Eu361 2.471 . S
O375 C390 1.244 . S
O376 Eu361 2.349 . S
O376 C377 1.265 . S
C377 O373 1.244 . S
C377 O376 1.265 . S
O378 Eu360 2.373 . S
O378 C391 1.258 . S
O379 Eu361 2.392 . S
O379 C391 1.242 . S
O380 Eu361 2.418 . S
O380 C362 1.244 . S
O381 Eu360 2.488 . S
O381 C369 1.249 . S
O382 Eu360 2.471 . S
O382 C369 1.244 . S
O383 Eu360 2.349 . S
O383 C362 1.265 . S
C384 C385 1.379 . S
C384 C388 1.373 . S
C384 C390 1.505 . S
C385 C384 1.379 . S
C385 C387 1.369 . S
C385 H396 0.930 . S
C386 C388 1.383 . S
C386 C389 1.382 . S
C386 H397 0.930 . S
C387 C385 1.369 . S
C387 C389 1.392 . S
C387 H398 0.930 . S
C388 C384 1.373 . S
C388 C386 1.383 . S
C388 H399 0.931 . S
C389 C386 1.382 . S
C389 C387 1.392 . S
C390 Eu361 2.828 . S
C390 O374 1.249 . S
C390 O375 1.244 . S
C390 C384 1.505 . S
C391 O378 1.258 . S
C391 O379 1.242 . S
H392 C364 0.930 . S
H393 C365 0.930 . S
H394 C366 0.930 . S
H395 C367 0.931 . S
H396 C385 0.930 . S
H397 C386 0.930 . S
H398 C387 0.930 . S
H399 C388 0.931 . S
Eu400 C409 2.828 . S
Eu400 O411 2.392 . S
Eu400 O413 2.418 . S
Eu400 O418 2.373 . S
Eu400 O421 2.488 . S
Eu400 O422 2.471 . S
Eu400 O423 2.349 . S
Eu401 O410 2.373 . S
Eu401 O414 2.488 . S
Eu401 O415 2.471 . S
Eu401 O416 2.349 . S
Eu401 O419 2.392 . S
Eu401 O420 2.418 . S
Eu401 C430 2.828 . S
C402 O420 1.244 . S
C402 O423 1.265 . S
C403 C404 1.379 . S
C403 C407 1.373 . S
C403 C409 1.505 . S
C404 C403 1.379 . S
C404 C406 1.369 . S
C404 H432 0.930 . S
C405 C407 1.383 . S
C405 C408 1.382 . S
C405 H433 0.930 . S
C406 C404 1.369 . S
C406 C408 1.392 . S
C406 H434 0.930 . S
C407 C403 1.373 . S
C407 C405 1.383 . S
C407 H435 0.931 . S
C408 C405 1.382 . S
C408 C406 1.392 . S
C409 Eu400 2.828 . S
C409 C403 1.505 . S
C409 O421 1.249 . S
C409 O422 1.244 . S
O410 Eu401 2.373 . S
O410 C412 1.258 . S
O411 Eu400 2.392 . S
O411 C412 1.242 . S
C412 O410 1.258 . S
C412 O411 1.242 . S
O413 Eu400 2.418 . S
O413 C417 1.244 . S
O414 Eu401 2.488 . S
O414 C430 1.249 . S
O415 Eu401 2.471 . S
O415 C430 1.244 . S
O416 Eu401 2.349 . S
O416 C417 1.265 . S
C417 O413 1.244 . S
C417 O416 1.265 . S
O418 Eu400 2.373 . S
O418 C431 1.258 . S
O419 Eu401 2.392 . S
O419 C431 1.242 . S
O420 Eu401 2.418 . S
O420 C402 1.244 . S
O421 Eu400 2.488 . S
O421 C409 1.249 . S
O422 Eu400 2.471 . S
O422 C409 1.244 . S
O423 Eu400 2.349 . S
O423 C402 1.265 . S
C424 C425 1.379 . S
C424 C428 1.373 . S
C424 C430 1.505 . S
C425 C424 1.379 . S
C425 C427 1.369 . S
C425 H436 0.930 . S
C426 C428 1.383 . S
C426 C429 1.382 . S
C426 H437 0.930 . S
C427 C425 1.369 . S
C427 C429 1.392 . S
C427 H438 0.930 . S
C428 C424 1.373 . S
C428 C426 1.383 . S
C428 H439 0.931 . S
C429 C426 1.382 . S
C429 C427 1.392 . S
C430 Eu401 2.828 . S
C430 O414 1.249 . S
C430 O415 1.244 . S
C430 C424 1.505 . S
C431 O418 1.258 . S
C431 O419 1.242 . S
H432 C404 0.930 . S
H433 C405 0.930 . S
H434 C406 0.930 . S
H435 C407 0.931 . S
H436 C425 0.930 . S
H437 C426 0.930 . S
H438 C427 0.930 . S
H439 C428 0.931 . S
Eu440 C449 2.828 . S
Eu440 O451 2.392 . S
Eu440 O453 2.418 . S
Eu440 O458 2.373 . S
Eu440 O461 2.488 . S
Eu440 O462 2.471 . S
Eu440 O463 2.349 . S
Eu441 O450 2.373 . S
Eu441 O454 2.488 . S
Eu441 O455 2.471 . S
Eu441 O456 2.349 . S
Eu441 O459 2.392 . S
Eu441 O460 2.418 . S
Eu441 C470 2.828 . S
C442 O460 1.244 . S
C442 O463 1.265 . S
C443 C444 1.379 . S
C443 C447 1.373 . S
C443 C449 1.505 . S
C444 C443 1.379 . S
C444 C446 1.369 . S
C444 H472 0.930 . S
C445 C447 1.383 . S
C445 C448 1.382 . S
C445 H473 0.930 . S
C446 C444 1.369 . S
C446 C448 1.392 . S
C446 H474 0.930 . S
C447 C443 1.373 . S
C447 C445 1.383 . S
C447 H475 0.931 . S
C448 C445 1.382 . S
C448 C446 1.392 . S
C449 Eu440 2.828 . S
C449 C443 1.505 . S
C449 O461 1.249 . S
C449 O462 1.244 . S
O450 Eu441 2.373 . S
O450 C452 1.258 . S
O451 Eu440 2.392 . S
O451 C452 1.242 . S
C452 O450 1.258 . S
C452 O451 1.242 . S
O453 Eu440 2.418 . S
O453 C457 1.244 . S
O454 Eu441 2.488 . S
O454 C470 1.249 . S
O455 Eu441 2.471 . S
O455 C470 1.244 . S
O456 Eu441 2.349 . S
O456 C457 1.265 . S
C457 O453 1.244 . S
C457 O456 1.265 . S
O458 Eu440 2.373 . S
O458 C471 1.258 . S
O459 Eu441 2.392 . S
O459 C471 1.242 . S
O460 Eu441 2.418 . S
O460 C442 1.244 . S
O461 Eu440 2.488 . S
O461 C449 1.249 . S
O462 Eu440 2.471 . S
O462 C449 1.244 . S
O463 Eu440 2.349 . S
O463 C442 1.265 . S
C464 C465 1.379 . S
C464 C468 1.373 . S
C464 C470 1.505 . S
C465 C464 1.379 . S
C465 C467 1.369 . S
C465 H476 0.930 . S
C466 C468 1.383 . S
C466 C469 1.382 . S
C466 H477 0.930 . S
C467 C465 1.369 . S
C467 C469 1.392 . S
C467 H478 0.930 . S
C468 C464 1.373 . S
C468 C466 1.383 . S
C468 H479 0.931 . S
C469 C466 1.382 . S
C469 C467 1.392 . S
C470 Eu441 2.828 . S
C470 O454 1.249 . S
C470 O455 1.244 . S
C470 C464 1.505 . S
C471 O458 1.258 . S
C471 O459 1.242 . S
H472 C444 0.930 . S
H473 C445 0.930 . S
H474 C446 0.930 . S
H475 C447 0.931 . S
H476 C465 0.930 . S
H477 C466 0.930 . S
H478 C467 0.930 . S
H479 C468 0.931 . S
Eu480 C489 2.828 . S
Eu480 O491 2.392 . S
Eu480 O493 2.418 . S
Eu480 O498 2.373 . S
Eu480 O501 2.488 . S
Eu480 O502 2.471 . S
Eu480 O503 2.349 . S
Eu481 O490 2.373 . S
Eu481 O494 2.488 . S
Eu481 O495 2.471 . S
Eu481 O496 2.349 . S
Eu481 O499 2.392 . S
Eu481 O500 2.418 . S
Eu481 C510 2.828 . S
C482 O500 1.244 . S
C482 O503 1.265 . S
C483 C484 1.379 . S
C483 C487 1.373 . S
C483 C489 1.505 . S
C484 C483 1.379 . S
C484 C486 1.369 . S
C484 H512 0.930 . S
C485 C487 1.383 . S
C485 C488 1.382 . S
C485 H513 0.930 . S
C486 C484 1.369 . S
C486 C488 1.392 . S
C486 H514 0.930 . S
C487 C483 1.373 . S
C487 C485 1.383 . S
C487 H515 0.931 . S
C488 C485 1.382 . S
C488 C486 1.392 . S
C489 Eu480 2.828 . S
C489 C483 1.505 . S
C489 O501 1.249 . S
C489 O502 1.244 . S
O490 Eu481 2.373 . S
O490 C492 1.258 . S
O491 Eu480 2.392 . S
O491 C492 1.242 . S
C492 O490 1.258 . S
C492 O491 1.242 . S
O493 Eu480 2.418 . S
O493 C497 1.244 . S
O494 Eu481 2.488 . S
O494 C510 1.249 . S
O495 Eu481 2.471 . S
O495 C510 1.244 . S
O496 Eu481 2.349 . S
O496 C497 1.265 . S
C497 O493 1.244 . S
C497 O496 1.265 . S
O498 Eu480 2.373 . S
O498 C511 1.258 . S
O499 Eu481 2.392 . S
O499 C511 1.242 . S
O500 Eu481 2.418 . S
O500 C482 1.244 . S
O501 Eu480 2.488 . S
O501 C489 1.249 . S
O502 Eu480 2.471 . S
O502 C489 1.244 . S
O503 Eu480 2.349 . S
O503 C482 1.265 . S
C504 C505 1.379 . S
C504 C508 1.373 . S
C504 C510 1.505 . S
C505 C504 1.379 . S
C505 C507 1.369 . S
C505 H516 0.930 . S
C506 C508 1.383 . S
C506 C509 1.382 . S
C506 H517 0.930 . S
C507 C505 1.369 . S
C507 C509 1.392 . S
C507 H518 0.930 . S
C508 C504 1.373 . S
C508 C506 1.383 . S
C508 H519 0.931 . S
C509 C506 1.382 . S
C509 C507 1.392 . S
C510 Eu481 2.828 . S
C510 O494 1.249 . S
C510 O495 1.244 . S
C510 C504 1.505 . S
C511 O498 1.258 . S
C511 O499 1.242 . S
H512 C484 0.930 . S
H513 C485 0.930 . S
H514 C486 0.930 . S
H515 C487 0.931 . S
H516 C505 0.930 . S
H517 C506 0.930 . S
H518 C507 0.930 . S
H519 C508 0.931 . S
Eu520 C529 2.828 . S
Eu520 O531 2.392 . S
Eu520 O533 2.418 . S
Eu520 O538 2.373 . S
Eu520 O541 2.488 . S
Eu520 O542 2.471 . S
Eu520 O543 2.349 . S
Eu521 O530 2.373 . S
Eu521 O534 2.488 . S
Eu521 O535 2.471 . S
Eu521 O536 2.349 . S
Eu521 O539 2.392 . S
Eu521 O540 2.418 . S
Eu521 C550 2.828 . S
C522 O540 1.244 . S
C522 O543 1.265 . S
C523 C524 1.379 . S
C523 C527 1.373 . S
C523 C529 1.505 . S
C524 C523 1.379 . S
C524 C526 1.369 . S
C524 H552 0.930 . S
C525 C527 1.383 . S
C525 C528 1.382 . S
C525 H553 0.930 . S
C526 C524 1.369 . S
C526 C528 1.392 . S
C526 H554 0.930 . S
C527 C523 1.373 . S
C527 C525 1.383 . S
C527 H555 0.931 . S
C528 C525 1.382 . S
C528 C526 1.392 . S
C529 Eu520 2.828 . S
C529 C523 1.505 . S
C529 O541 1.249 . S
C529 O542 1.244 . S
O530 Eu521 2.373 . S
O530 C532 1.258 . S
O531 Eu520 2.392 . S
O531 C532 1.242 . S
C532 O530 1.258 . S
C532 O531 1.242 . S
O533 Eu520 2.418 . S
O533 C537 1.244 . S
O534 Eu521 2.488 . S
O534 C550 1.249 . S
O535 Eu521 2.471 . S
O535 C550 1.244 . S
O536 Eu521 2.349 . S
O536 C537 1.265 . S
C537 O533 1.244 . S
C537 O536 1.265 . S
O538 Eu520 2.373 . S
O538 C551 1.258 . S
O539 Eu521 2.392 . S
O539 C551 1.242 . S
O540 Eu521 2.418 . S
O540 C522 1.244 . S
O541 Eu520 2.488 . S
O541 C529 1.249 . S
O542 Eu520 2.471 . S
O542 C529 1.244 . S
O543 Eu520 2.349 . S
O543 C522 1.265 . S
C544 C545 1.379 . S
C544 C548 1.373 . S
C544 C550 1.505 . S
C545 C544 1.379 . S
C545 C547 1.369 . S
C545 H556 0.930 . S
C546 C548 1.383 . S
C546 C549 1.382 . S
C546 H557 0.930 . S
C547 C545 1.369 . S
C547 C549 1.392 . S
C547 H558 0.930 . S
C548 C544 1.373 . S
C548 C546 1.383 . S
C548 H559 0.931 . S
C549 C546 1.382 . S
C549 C547 1.392 . S
C550 Eu521 2.828 . S
C550 O534 1.249 . S
C550 O535 1.244 . S
C550 C544 1.505 . S
C551 O538 1.258 . S
C551 O539 1.242 . S
H552 C524 0.930 . S
H553 C525 0.930 . S
H554 C526 0.930 . S
H555 C527 0.931 . S
H556 C545 0.930 . S
H557 C546 0.930 . S
H558 C547 0.930 . S
H559 C548 0.931 . S
Eu560 C569 2.828 . S
Eu560 O571 2.392 . S
Eu560 O573 2.418 . S
Eu560 O578 2.373 . S
Eu560 O581 2.488 . S
Eu560 O582 2.471 . S
Eu560 O583 2.349 . S
Eu561 O570 2.373 . S
Eu561 O574 2.488 . S
Eu561 O575 2.471 . S
Eu561 O576 2.349 . S
Eu561 O579 2.392 . S
Eu561 O580 2.418 . S
Eu561 C590 2.828 . S
C562 O580 1.244 . S
C562 O583 1.265 . S
C563 C564 1.379 . S
C563 C567 1.373 . S
C563 C569 1.505 . S
C564 C563 1.379 . S
C564 C566 1.369 . S
C564 H592 0.930 . S
C565 C567 1.383 . S
C565 C568 1.382 . S
C565 H593 0.930 . S
C566 C564 1.369 . S
C566 C568 1.392 . S
C566 H594 0.930 . S
C567 C563 1.373 . S
C567 C565 1.383 . S
C567 H595 0.931 . S
C568 C565 1.382 . S
C568 C566 1.392 . S
C569 Eu560 2.828 . S
C569 C563 1.505 . S
C569 O581 1.249 . S
C569 O582 1.244 . S
O570 Eu561 2.373 . S
O570 C572 1.258 . S
O571 Eu560 2.392 . S
O571 C572 1.242 . S
C572 O570 1.258 . S
C572 O571 1.242 . S
O573 Eu560 2.418 . S
O573 C577 1.244 . S
O574 Eu561 2.488 . S
O574 C590 1.249 . S
O575 Eu561 2.471 . S
O575 C590 1.244 . S
O576 Eu561 2.349 . S
O576 C577 1.265 . S
C577 O573 1.244 . S
C577 O576 1.265 . S
O578 Eu560 2.373 . S
O578 C591 1.258 . S
O579 Eu561 2.392 . S
O579 C591 1.242 . S
O580 Eu561 2.418 . S
O580 C562 1.244 . S
O581 Eu560 2.488 . S
O581 C569 1.249 . S
O582 Eu560 2.471 . S
O582 C569 1.244 . S
O583 Eu560 2.349 . S
O583 C562 1.265 . S
C584 C585 1.379 . S
C584 C588 1.373 . S
C584 C590 1.505 . S
C585 C584 1.379 . S
C585 C587 1.369 . S
C585 H596 0.930 . S
C586 C588 1.383 . S
C586 C589 1.382 . S
C586 H597 0.930 . S
C587 C585 1.369 . S
C587 C589 1.392 . S
C587 H598 0.930 . S
C588 C584 1.373 . S
C588 C586 1.383 . S
C588 H599 0.931 . S
C589 C586 1.382 . S
C589 C587 1.392 . S
C590 Eu561 2.828 . S
C590 O574 1.249 . S
C590 O575 1.244 . S
C590 C584 1.505 . S
C591 O578 1.258 . S
C591 O579 1.242 . S
H592 C564 0.930 . S
H593 C565 0.930 . S
H594 C566 0.930 . S
H595 C567 0.931 . S
H596 C585 0.930 . S
H597 C586 0.930 . S
H598 C587 0.930 . S
H599 C588 0.931 . S
Eu600 C609 2.828 . S
Eu600 O611 2.392 . S
Eu600 O613 2.418 . S
Eu600 O618 2.373 . S
Eu600 O621 2.488 . S
Eu600 O622 2.471 . S
Eu600 O623 2.349 . S
Eu601 O610 2.373 . S
Eu601 O614 2.488 . S
Eu601 O615 2.471 . S
Eu601 O616 2.349 . S
Eu601 O619 2.392 . S
Eu601 O620 2.418 . S
Eu601 C630 2.828 . S
C602 O620 1.244 . S
C602 O623 1.265 . S
C603 C604 1.379 . S
C603 C607 1.373 . S
C603 C609 1.505 . S
C604 C603 1.379 . S
C604 C606 1.369 . S
C604 H632 0.930 . S
C605 C607 1.383 . S
C605 C608 1.382 . S
C605 H633 0.930 . S
C606 C604 1.369 . S
C606 C608 1.392 . S
C606 H634 0.930 . S
C607 C603 1.373 . S
C607 C605 1.383 . S
C607 H635 0.931 . S
C608 C605 1.382 . S
C608 C606 1.392 . S
C609 Eu600 2.828 . S
C609 C603 1.505 . S
C609 O621 1.249 . S
C609 O622 1.244 . S
O610 Eu601 2.373 . S
O610 C612 1.258 . S
O611 Eu600 2.392 . S
O611 C612 1.242 . S
C612 O610 1.258 . S
C612 O611 1.242 . S
O613 Eu600 2.418 . S
O613 C617 1.244 . S
O614 Eu601 2.488 . S
O614 C630 1.249 . S
O615 Eu601 2.471 . S
O615 C630 1.244 . S
O616 Eu601 2.349 . S
O616 C617 1.265 . S
C617 O613 1.244 . S
C617 O616 1.265 . S
O618 Eu600 2.373 . S
O618 C631 1.258 . S
O619 Eu601 2.392 . S
O619 C631 1.242 . S
O620 Eu601 2.418 . S
O620 C602 1.244 . S
O621 Eu600 2.488 . S
O621 C609 1.249 . S
O622 Eu600 2.471 . S
O622 C609 1.244 . S
O623 Eu600 2.349 . S
O623 C602 1.265 . S
C624 C625 1.379 . S
C624 C628 1.373 . S
C624 C630 1.505 . S
C625 C624 1.379 . S
C625 C627 1.369 . S
C625 H636 0.930 . S
C626 C628 1.383 . S
C626 C629 1.382 . S
C626 H637 0.930 . S
C627 C625 1.369 . S
C627 C629 1.392 . S
C627 H638 0.930 . S
C628 C624 1.373 . S
C628 C626 1.383 . S
C628 H639 0.931 . S
C629 C626 1.382 . S
C629 C627 1.392 . S
C630 Eu601 2.828 . S
C630 O614 1.249 . S
C630 O615 1.244 . S
C630 C624 1.505 . S
C631 O618 1.258 . S
C631 O619 1.242 . S
H632 C604 0.930 . S
H633 C605 0.930 . S
H634 C606 0.930 . S
H635 C607 0.931 . S
H636 C625 0.930 . S
H637 C626 0.930 . S
H638 C627 0.930 . S
H639 C628 0.931 . S
H640 C648 0.950 . S
H641 C653 0.950 . S
H642 C650 0.950 . S
H643 C652 0.950 . S
H644 C654 0.950 . S
H645 C656 0.950 . S
H646 C658 0.950 . S
H647 C659 0.950 . S
C648 H640 0.950 . S
C648 C649 1.386 . S
C648 C650 1.391 . S
C649 C648 1.386 . S
C649 C653 1.393 . S
C650 H642 0.950 . S
C650 C648 1.391 . S
C650 C651 1.400 . S
C651 C650 1.400 . S
C651 C652 1.398 . S
C651 C657 1.491 . S
C652 H643 0.950 . S
C652 C651 1.398 . S
C652 C653 1.391 . S
C653 H641 0.950 . S
C653 C649 1.393 . S
C653 C652 1.391 . S
C654 H644 0.950 . S
C654 C655 1.386 . S
C654 C656 1.391 . S
C655 C654 1.386 . S
C655 C659 1.393 . S
C656 H645 0.950 . S
C656 C654 1.391 . S
C656 C657 1.400 . S
C657 C651 1.491 . S
C657 C656 1.400 . S
C657 C658 1.398 . S
C658 H646 0.950 . S
C658 C657 1.398 . S
C658 C659 1.391 . S
C659 H647 0.950 . S
C659 C655 1.393 . S
C659 C658 1.391 . S
H660 C668 0.950 . S
H661 C673 0.950 . S
H662 C670 0.950 . S
H663 C672 0.950 . S
H664 C674 0.950 . S
H665 C676 0.950 . S
H666 C678 0.950 . S
H667 C679 0.950 . S
C668 H660 0.950 . S
C668 C669 1.386 . S
C668 C670 1.391 . S
C669 C668 1.386 . S
C669 C673 1.393 . S
C670 H662 0.950 . S
C670 C668 1.391 . S
C670 C671 1.400 . S
C671 C670 1.400 . S
C671 C672 1.398 . S
C671 C677 1.491 . S
C672 H663 0.950 . S
C672 C671 1.398 . S
C672 C673 1.391 . S
C673 H661 0.950 . S
C673 C669 1.393 . S
C673 C672 1.391 . S
C674 H664 0.950 . S
C674 C675 1.386 . S
C674 C676 1.391 . S
C675 C674 1.386 . S
C675 C679 1.393 . S
C676 H665 0.950 . S
C676 C674 1.391 . S
C676 C677 1.400 . S
C677 C671 1.491 . S
C677 C676 1.400 . S
C677 C678 1.398 . S
C678 H666 0.950 . S
C678 C677 1.398 . S
C678 C679 1.391 . S
C679 H667 0.950 . S
C679 C675 1.393 . S
C679 C678 1.391 . S
H680 C688 0.950 . S
H681 C693 0.950 . S
H682 C690 0.950 . S
H683 C692 0.950 . S
H684 C694 0.950 . S
H685 C696 0.950 . S
H686 C698 0.950 . S
H687 C699 0.950 . S
C688 H680 0.950 . S
C688 C689 1.386 . S
C688 C690 1.391 . S
C689 C688 1.386 . S
C689 C693 1.393 . S
C690 H682 0.950 . S
C690 C688 1.391 . S
C690 C691 1.400 . S
C691 C690 1.400 . S
C691 C692 1.398 . S
C691 C697 1.491 . S
C692 H683 0.950 . S
C692 C691 1.398 . S
C692 C693 1.391 . S
C693 H681 0.950 . S
C693 C689 1.393 . S
C693 C692 1.391 . S
C694 H684 0.950 . S
C694 C695 1.386 . S
C694 C696 1.391 . S
C695 C694 1.386 . S
C695 C699 1.393 . S
C696 H685 0.950 . S
C696 C694 1.391 . S
C696 C697 1.400 . S
C697 C691 1.491 . S
C697 C696 1.400 . S
C697 C698 1.398 . S
C698 H686 0.950 . S
C698 C697 1.398 . S
C698 C699 1.391 . S
C699 H687 0.950 . S
C699 C695 1.393 . S
C699 C698 1.391 . S
H700 C708 0.950 . S
H701 C713 0.950 . S
H702 C710 0.950 . S
H703 C712 0.950 . S
H704 C714 0.950 . S
H705 C716 0.950 . S
H706 C718 0.950 . S
H707 C719 0.950 . S
C708 H700 0.950 . S
C708 C709 1.386 . S
C708 C710 1.391 . S
C709 C708 1.386 . S
C709 C713 1.393 . S
C710 H702 0.950 . S
C710 C708 1.391 . S
C710 C711 1.400 . S
C711 C710 1.400 . S
C711 C712 1.398 . S
C711 C717 1.491 . S
C712 H703 0.950 . S
C712 C711 1.398 . S
C712 C713 1.391 . S
C713 H701 0.950 . S
C713 C709 1.393 . S
C713 C712 1.391 . S
C714 H704 0.950 . S
C714 C715 1.386 . S
C714 C716 1.391 . S
C715 C714 1.386 . S
C715 C719 1.393 . S
C716 H705 0.950 . S
C716 C714 1.391 . S
C716 C717 1.400 . S
C717 C711 1.491 . S
C717 C716 1.400 . S
C717 C718 1.398 . S
C718 H706 0.950 . S
C718 C717 1.398 . S
C718 C719 1.391 . S
C719 H707 0.950 . S
C719 C715 1.393 . S
C719 C718 1.391 . S
H720 C728 0.950 . S
H721 C733 0.950 . S
H722 C730 0.950 . S
H723 C732 0.950 . S
H724 C734 0.950 . S
H725 C736 0.950 . S
H726 C738 0.950 . S
H727 C739 0.950 . S
C728 H720 0.950 . S
C728 C729 1.386 . S
C728 C730 1.391 . S
C729 C728 1.386 . S
C729 C733 1.393 . S
C730 H722 0.950 . S
C730 C728 1.391 . S
C730 C731 1.400 . S
C731 C730 1.400 . S
C731 C732 1.398 . S
C731 C737 1.491 . S
C732 H723 0.950 . S
C732 C731 1.398 . S
C732 C733 1.391 . S
C733 H721 0.950 . S
C733 C729 1.393 . S
C733 C732 1.391 . S
C734 H724 0.950 . S
C734 C735 1.386 . S
C734 C736 1.391 . S
C735 C734 1.386 . S
C735 C739 1.393 . S
C736 H725 0.950 . S
C736 C734 1.391 . S
C736 C737 1.400 . S
C737 C731 1.491 . S
C737 C736 1.400 . S
C737 C738 1.398 . S
C738 H726 0.950 . S
C738 C737 1.398 . S
C738 C739 1.391 . S
C739 H727 0.950 . S
C739 C735 1.393 . S
C739 C738 1.391 . S
H740 C748 0.950 . S
H741 C753 0.950 . S
H742 C750 0.950 . S
H743 C752 0.950 . S
H744 C754 0.950 . S
H745 C756 0.950 . S
H746 C758 0.950 . S
H747 C759 0.950 . S
C748 H740 0.950 . S
C748 C749 1.386 . S
C748 C750 1.391 . S
C749 C748 1.386 . S
C749 C753 1.393 . S
C750 H742 0.950 . S
C750 C748 1.391 . S
C750 C751 1.400 . S
C751 C750 1.400 . S
C751 C752 1.398 . S
C751 C757 1.491 . S
C752 H743 0.950 . S
C752 C751 1.398 . S
C752 C753 1.391 . S
C753 H741 0.950 . S
C753 C749 1.393 . S
C753 C752 1.391 . S
C754 H744 0.950 . S
C754 C755 1.386 . S
C754 C756 1.391 . S
C755 C754 1.386 . S
C755 C759 1.393 . S
C756 H745 0.950 . S
C756 C754 1.391 . S
C756 C757 1.400 . S
C757 C751 1.491 . S
C757 C756 1.400 . S
C757 C758 1.398 . S
C758 H746 0.950 . S
C758 C757 1.398 . S
C758 C759 1.391 . S
C759 H747 0.950 . S
C759 C755 1.393 . S
C759 C758 1.391 . S
H760 C768 0.950 . S
H761 C773 0.950 . S
H762 C770 0.950 . S
H763 C772 0.950 . S
H764 C774 0.950 . S
H765 C776 0.950 . S
H766 C778 0.950 . S
H767 C779 0.950 . S
C768 H760 0.950 . S
C768 C769 1.386 . S
C768 C770 1.391 . S
C769 C768 1.386 . S
C769 C773 1.393 . S
C770 H762 0.950 . S
C770 C768 1.391 . S
C770 C771 1.400 . S
C771 C770 1.400 . S
C771 C772 1.398 . S
C771 C777 1.491 . S
C772 H763 0.950 . S
C772 C771 1.398 . S
C772 C773 1.391 . S
C773 H761 0.950 . S
C773 C769 1.393 . S
C773 C772 1.391 . S
C774 H764 0.950 . S
C774 C775 1.386 . S
C774 C776 1.391 . S
C775 C774 1.386 . S
C775 C779 1.393 . S
C776 H765 0.950 . S
C776 C774 1.391 . S
C776 C777 1.400 . S
C777 C771 1.491 . S
C777 C776 1.400 . S
C777 C778 1.398 . S
C778 H766 0.950 . S
C778 C777 1.398 . S
C778 C779 1.391 . S
C779 H767 0.950 . S
C779 C775 1.393 . S
C779 C778 1.391 . S
H780 C788 0.950 . S
H781 C793 0.950 . S
H782 C790 0.950 . S
H783 C792 0.950 . S
H784 C794 0.950 . S
H785 C796 0.950 . S
H786 C798 0.950 . S
H787 C799 0.950 . S
C788 H780 0.950 . S
C788 C789 1.386 . S
C788 C790 1.391 . S
C789 C788 1.386 . S
C789 C793 1.393 . S
C790 H782 0.950 . S
C790 C788 1.391 . S
C790 C791 1.400 . S
C791 C790 1.400 . S
C791 C792 1.398 . S
C791 C797 1.491 . S
C792 H783 0.950 . S
C792 C791 1.398 . S
C792 C793 1.391 . S
C793 H781 0.950 . S
C793 C789 1.393 . S
C793 C792 1.391 . S
C794 H784 0.950 . S
C794 C795 1.386 . S
C794 C796 1.391 . S
C795 C794 1.386 . S
C795 C799 1.393 . S
C796 H785 0.950 . S
C796 C794 1.391 . S
C796 C797 1.400 . S
C797 C791 1.491 . S
C797 C796 1.400 . S
C797 C798 1.398 . S
C798 H786 0.950 . S
C798 C797 1.398 . S
C798 C799 1.391 . S
C799 H787 0.950 . S
C799 C795 1.393 . S
C799 C798 1.391 . S
H800 C808 0.952 . S
H801 C813 0.950 . S
H802 C810 0.950 . S
H803 C812 0.950 . S
H804 C814 0.952 . S
H805 C816 0.950 . S
H806 C818 0.950 . S
H807 C819 0.950 . S
C808 H800 0.952 . S
C808 C809 1.386 . S
C808 C810 1.391 1_565 S
C809 C808 1.386 . S
C809 C813 1.393 . S
C810 H802 0.950 . S
C810 C808 1.391 1_545 S
C810 C811 1.400 1_545 S
C811 C810 1.400 1_565 S
C811 C812 1.398 . S
C811 C817 1.491 1_565 S
C812 H803 0.950 . S
C812 C811 1.398 . S
C812 C813 1.391 . S
C813 H801 0.950 . S
C813 C809 1.393 . S
C813 C812 1.391 . S
C814 H804 0.952 . S
C814 C815 1.386 . S
C814 C816 1.391 1_545 S
C815 C814 1.386 . S
C815 C819 1.393 . S
C816 H805 0.950 . S
C816 C814 1.391 1_565 S
C816 C817 1.400 1_565 S
C817 C811 1.491 1_545 S
C817 C816 1.400 1_545 S
C817 C818 1.398 . S
C818 H806 0.950 . S
C818 C817 1.398 . S
C818 C819 1.391 . S
C819 H807 0.950 . S
C819 C815 1.393 . S
C819 C818 1.391 . S
H820 C828 0.950 . S
H821 C833 0.950 . S
H822 C830 0.950 . S
H823 C832 0.950 1_565 S
H824 C834 0.950 . S
H825 C836 0.950 . S
H826 C838 0.950 1_545 S
H827 C839 0.950 . S
C828 H820 0.950 . S
C828 C829 1.386 . S
C828 C830 1.391 . S
C829 C828 1.386 . S
C829 C833 1.393 . S
C830 H822 0.950 . S
C830 C828 1.391 . S
C830 C831 1.400 . S
C831 C830 1.400 . S
C831 C832 1.398 . S
C831 C837 1.491 1_545 S
C832 H823 0.950 1_545 S
C832 C831 1.398 . S
C832 C833 1.391 . S
C833 H821 0.950 . S
C833 C829 1.393 . S
C833 C832 1.391 . S
C834 H824 0.950 . S
C834 C835 1.386 . S
C834 C836 1.391 . S
C835 C834 1.386 . S
C835 C839 1.393 . S
C836 H825 0.950 . S
C836 C834 1.391 . S
C836 C837 1.400 . S
C837 C831 1.491 1_565 S
C837 C836 1.400 . S
C837 C838 1.398 . S
C838 H826 0.950 1_565 S
C838 C837 1.398 . S
C838 C839 1.391 . S
C839 H827 0.950 . S
C839 C835 1.393 . S
C839 C838 1.391 . S
H840 C848 0.950 . S
H841 C853 0.950 . S
H842 C850 0.950 1_565 S
H843 C852 0.950 . S
H844 C854 0.950 . S
H845 C856 0.950 1_545 S
H846 C858 0.950 . S
H847 C859 0.950 . S
C848 H840 0.950 . S
C848 C849 1.386 . S
C848 C850 1.391 . S
C849 C848 1.386 . S
C849 C853 1.393 . S
C850 H842 0.950 1_545 S
C850 C848 1.391 . S
C850 C851 1.400 . S
C851 C850 1.400 . S
C851 C852 1.398 . S
C851 C857 1.491 1_545 S
C852 H843 0.950 . S
C852 C851 1.398 . S
C852 C853 1.391 . S
C853 H841 0.950 . S
C853 C849 1.393 . S
C853 C852 1.391 . S
C854 H844 0.950 . S
C854 C855 1.386 . S
C854 C856 1.391 . S
C855 C854 1.386 . S
C855 C859 1.393 . S
C856 H845 0.950 1_565 S
C856 C854 1.391 . S
C856 C857 1.400 . S
C857 C851 1.491 1_565 S
C857 C856 1.400 . S
C857 C858 1.398 . S
C858 H846 0.950 . S
C858 C857 1.398 . S
C858 C859 1.391 . S
C859 H847 0.950 . S
C859 C855 1.393 . S
C859 C858 1.391 . S
H860 C868 0.950 . S
H861 C873 0.950 1_565 S
H862 C870 0.950 . S
H863 C872 0.950 . S
H864 C874 0.950 . S
H865 C876 0.950 . S
H866 C878 0.950 . S
H867 C879 0.950 1_545 S
C868 H860 0.950 . S
C868 C869 1.386 . S
C868 C870 1.391 . S
C869 C868 1.386 . S
C869 C873 1.393 . S
C870 H862 0.950 . S
C870 C868 1.391 . S
C870 C871 1.400 . S
C871 C870 1.400 . S
C871 C872 1.398 1_545 S
C871 C877 1.491 1_545 S
C872 H863 0.950 . S
C872 C871 1.398 1_565 S
C872 C873 1.391 1_565 S
C873 H861 0.950 1_545 S
C873 C869 1.393 . S
C873 C872 1.391 1_545 S
C874 H864 0.950 . S
C874 C875 1.386 . S
C874 C876 1.391 . S
C875 C874 1.386 . S
C875 C879 1.393 . S
C876 H865 0.950 . S
C876 C874 1.391 . S
C876 C877 1.400 . S
C877 C871 1.491 1_565 S
C877 C876 1.400 . S
C877 C878 1.398 1_565 S
C878 H866 0.950 . S
C878 C877 1.398 1_545 S
C878 C879 1.391 1_545 S
C879 H867 0.950 1_565 S
C879 C875 1.393 . S
C879 C878 1.391 1_565 S
H880 C888 0.950 . S
H881 C893 0.950 . S
H882 C890 0.950 . S
H883 C892 0.950 . S
H884 C894 0.950 . S
H885 C896 0.950 . S
H886 C898 0.950 . S
H887 C899 0.950 . S
C888 H880 0.950 . S
C888 C889 1.386 . S
C888 C890 1.391 . S
C889 C888 1.386 . S
C889 C893 1.393 . S
C890 H882 0.950 . S
C890 C888 1.391 . S
C890 C891 1.400 . S
C891 C890 1.400 . S
C891 C892 1.398 . S
C891 C897 1.491 . S
C892 H883 0.950 . S
C892 C891 1.398 . S
C892 C893 1.391 . S
C893 H881 0.950 . S
C893 C889 1.393 . S
C893 C892 1.391 . S
C894 H884 0.950 . S
C894 C895 1.386 . S
C894 C896 1.391 . S
C895 C894 1.386 . S
C895 C899 1.393 . S
C896 H885 0.950 . S
C896 C894 1.391 . S
C896 C897 1.400 . S
C897 C891 1.491 . S
C897 C896 1.400 . S
C897 C898 1.398 . S
C898 H886 0.950 . S
C898 C897 1.398 . S
C898 C899 1.391 . S
C899 H887 0.950 . S
C899 C895 1.393 . S
C899 C898 1.391 . S
H900 C908 0.950 . S
H901 C913 0.950 . S
H902 C910 0.950 . S
H903 C912 0.950 . S
H904 C914 0.950 . S
H905 C916 0.950 . S
H906 C918 0.950 . S
H907 C919 0.950 . S
C908 H900 0.950 . S
C908 C909 1.386 . S
C908 C910 1.391 . S
C909 C908 1.386 . S
C909 C913 1.393 . S
C910 H902 0.950 . S
C910 C908 1.391 . S
C910 C911 1.400 . S
C911 C910 1.400 . S
C911 C912 1.398 . S
C911 C917 1.491 . S
C912 H903 0.950 . S
C912 C911 1.398 . S
C912 C913 1.391 . S
C913 H901 0.950 . S
C913 C909 1.393 . S
C913 C912 1.391 . S
C914 H904 0.950 . S
C914 C915 1.386 . S
C914 C916 1.391 . S
C915 C914 1.386 . S
C915 C919 1.393 . S
C916 H905 0.950 . S
C916 C914 1.391 . S
C916 C917 1.400 . S
C917 C911 1.491 . S
C917 C916 1.400 . S
C917 C918 1.398 . S
C918 H906 0.950 . S
C918 C917 1.398 . S
C918 C919 1.391 . S
C919 H907 0.950 . S
C919 C915 1.393 . S
C919 C918 1.391 . S
H920 C928 0.950 . S
H921 C933 0.950 . S
H922 C930 0.950 . S
H923 C932 0.950 . S
H924 C934 0.950 . S
H925 C936 0.950 . S
H926 C938 0.950 . S
H927 C939 0.950 . S
C928 H920 0.950 . S
C928 C929 1.386 . S
C928 C930 1.391 . S
C929 C928 1.386 . S
C929 C933 1.393 . S
C930 H922 0.950 . S
C930 C928 1.391 . S
C930 C931 1.400 . S
C931 C930 1.400 . S
C931 C932 1.398 . S
C931 C937 1.491 . S
C932 H923 0.950 . S
C932 C931 1.398 . S
C932 C933 1.391 . S
C933 H921 0.950 . S
C933 C929 1.393 . S
C933 C932 1.391 . S
C934 H924 0.950 . S
C934 C935 1.386 . S
C934 C936 1.391 . S
C935 C934 1.386 . S
C935 C939 1.393 . S
C936 H925 0.950 . S
C936 C934 1.391 . S
C936 C937 1.400 . S
C937 C931 1.491 . S
C937 C936 1.400 . S
C937 C938 1.398 . S
C938 H926 0.950 . S
C938 C937 1.398 . S
C938 C939 1.391 . S
C939 H927 0.950 . S
C939 C935 1.393 . S
C939 C938 1.391 . S
H940 C948 0.950 . S
H941 C953 0.950 . S
H942 C950 0.950 . S
H943 C952 0.950 . S
H944 C954 0.950 . S
H945 C956 0.950 . S
H946 C958 0.950 . S
H947 C959 0.950 . S
C948 H940 0.950 . S
C948 C949 1.386 . S
C948 C950 1.391 . S
C949 C948 1.386 . S
C949 C953 1.393 . S
C950 H942 0.950 . S
C950 C948 1.391 . S
C950 C951 1.400 . S
C951 C950 1.400 . S
C951 C952 1.398 . S
C951 C957 1.491 . S
C952 H943 0.950 . S
C952 C951 1.398 . S
C952 C953 1.391 . S
C953 H941 0.950 . S
C953 C949 1.393 . S
C953 C952 1.391 . S
C954 H944 0.950 . S
C954 C955 1.386 . S
C954 C956 1.391 . S
C955 C954 1.386 . S
C955 C959 1.393 . S
C956 H945 0.950 . S
C956 C954 1.391 . S
C956 C957 1.400 . S
C957 C951 1.491 . S
C957 C956 1.400 . S
C957 C958 1.398 . S
C958 H946 0.950 . S
C958 C957 1.398 . S
C958 C959 1.391 . S
C959 H947 0.950 . S
C959 C955 1.393 . S
C959 C958 1.391 . S
H960 C968 0.950 . S
H961 C973 0.950 . S
H962 C970 0.950 . S
H963 C972 0.950 . S
H964 C974 0.950 . S
H965 C976 0.950 . S
H966 C978 0.950 . S
H967 C979 0.950 . S
C968 H960 0.950 . S
C968 C969 1.386 . S
C968 C970 1.391 . S
C969 C968 1.386 . S
C969 C973 1.393 . S
C970 H962 0.950 . S
C970 C968 1.391 . S
C970 C971 1.400 . S
C971 C970 1.400 . S
C971 C972 1.398 . S
C971 C977 1.491 1_556 S
C972 H963 0.950 . S
C972 C971 1.398 . S
C972 C973 1.391 . S
C973 H961 0.950 . S
C973 C969 1.393 . S
C973 C972 1.391 . S
C974 H964 0.950 . S
C974 C975 1.386 . S
C974 C976 1.391 . S
C975 C974 1.386 . S
C975 C979 1.393 . S
C976 H965 0.950 . S
C976 C974 1.391 . S
C976 C977 1.400 . S
C977 C971 1.491 1_554 S
C977 C976 1.400 . S
C977 C978 1.398 . S
C978 H966 0.950 . S
C978 C977 1.398 . S
C978 C979 1.391 . S
C979 H967 0.950 . S
C979 C975 1.393 . S
C979 C978 1.391 . S
H980 C988 0.950 . S
H981 C993 0.950 . S
H982 C990 0.950 . S
H983 C992 0.950 . S
H984 C994 0.950 . S
H985 C996 0.950 . S
H986 C998 0.950 . S
H987 C999 0.950 . S
C988 H980 0.950 . S
C988 C989 1.386 . S
C988 C990 1.391 . S
C989 C988 1.386 . S
C989 C993 1.393 . S
C990 H982 0.950 . S
C990 C988 1.391 . S
C990 C991 1.400 . S
C991 C990 1.400 . S
C991 C992 1.398 . S
C991 C997 1.491 1_556 S
C992 H983 0.950 . S
C992 C991 1.398 . S
C992 C993 1.391 . S
C993 H981 0.950 . S
C993 C989 1.393 . S
C993 C992 1.391 . S
C994 H984 0.950 . S
C994 C995 1.386 . S
C994 C996 1.391 . S
C995 C994 1.386 . S
C995 C999 1.393 . S
C996 H985 0.950 . S
C996 C994 1.391 . S
C996 C997 1.400 . S
C997 C991 1.491 1_554 S
C997 C996 1.400 . S
C997 C998 1.398 . S
C998 H986 0.950 . S
C998 C997 1.398 . S
C998 C999 1.391 . S
C999 H987 0.950 . S
C999 C995 1.393 . S
C999 C998 1.391 . S
H1000 C1008 0.950 . S
H1001 C1013 0.950 . S
H1002 C1010 0.950 . S
H1003 C1012 0.950 . S
H1004 C1014 0.950 . S
H1005 C1016 0.950 . S
H1006 C1018 0.950 . S
H1007 C1019 0.950 . S
C1008 H1000 0.950 . S
C1008 C1009 1.386 . S
C1008 C1010 1.391 . S
C1009 C1008 1.386 . S
C1009 C1013 1.393 . S
C1010 H1002 0.950 . S
C1010 C1008 1.391 . S
C1010 C1011 1.400 . S
C1011 C1010 1.400 . S
C1011 C1012 1.398 . S
C1011 C1017 1.491 . S
C1012 H1003 0.950 . S
C1012 C1011 1.398 . S
C1012 C1013 1.391 . S
C1013 H1001 0.950 . S
C1013 C1009 1.393 . S
C1013 C1012 1.391 . S
C1014 H1004 0.950 . S
C1014 C1015 1.386 . S
C1014 C1016 1.391 . S
C1015 C1014 1.386 . S
C1015 C1019 1.393 . S
C1016 H1005 0.950 . S
C1016 C1014 1.391 . S
C1016 C1017 1.400 . S
C1017 C1011 1.491 . S
C1017 C1016 1.400 . S
C1017 C1018 1.398 . S
C1018 H1006 0.950 . S
C1018 C1017 1.398 . S
C1018 C1019 1.391 . S
C1019 H1007 0.950 . S
C1019 C1015 1.393 . S
C1019 C1018 1.391 . S
H1020 C1028 0.950 . S
H1021 C1033 0.950 . S
H1022 C1030 0.950 . S
H1023 C1032 0.950 . S
H1024 C1034 0.950 . S
H1025 C1036 0.950 . S
H1026 C1038 0.950 . S
H1027 C1039 0.950 . S
C1028 H1020 0.950 . S
C1028 C1029 1.386 . S
C1028 C1030 1.391 . S
C1029 C1028 1.386 . S
C1029 C1033 1.393 . S
C1030 H1022 0.950 . S
C1030 C1028 1.391 . S
C1030 C1031 1.400 . S
C1031 C1030 1.400 . S
C1031 C1032 1.398 . S
C1031 C1037 1.491 . S
C1032 H1023 0.950 . S
C1032 C1031 1.398 . S
C1032 C1033 1.391 . S
C1033 H1021 0.950 . S
C1033 C1029 1.393 . S
C1033 C1032 1.391 . S
C1034 H1024 0.950 . S
C1034 C1035 1.386 . S
C1034 C1036 1.391 . S
C1035 C1034 1.386 . S
C1035 C1039 1.393 . S
C1036 H1025 0.950 . S
C1036 C1034 1.391 . S
C1036 C1037 1.400 . S
C1037 C1031 1.491 . S
C1037 C1036 1.400 . S
C1037 C1038 1.398 . S
C1038 H1026 0.950 . S
C1038 C1037 1.398 . S
C1038 C1039 1.391 . S
C1039 H1027 0.950 . S
C1039 C1035 1.393 . S
C1039 C1038 1.391 . S
H1040 C1048 0.950 . S
H1041 C1053 0.950 . S
H1042 C1050 0.950 . S
H1043 C1052 0.950 . S
H1044 C1054 0.950 . S
H1045 C1056 0.950 . S
H1046 C1058 0.950 . S
H1047 C1059 0.950 . S
C1048 H1040 0.950 . S
C1048 C1049 1.386 . S
C1048 C1050 1.391 . S
C1049 C1048 1.386 . S
C1049 C1053 1.393 . S
C1050 H1042 0.950 . S
C1050 C1048 1.391 . S
C1050 C1051 1.400 . S
C1051 C1050 1.400 . S
C1051 C1052 1.398 . S
C1051 C1057 1.491 1_554 S
C1052 H1043 0.950 . S
C1052 C1051 1.398 . S
C1052 C1053 1.391 . S
C1053 H1041 0.950 . S
C1053 C1049 1.393 . S
C1053 C1052 1.391 . S
C1054 H1044 0.950 . S
C1054 C1055 1.386 . S
C1054 C1056 1.391 . S
C1055 C1054 1.386 . S
C1055 C1059 1.393 . S
C1056 H1045 0.950 . S
C1056 C1054 1.391 . S
C1056 C1057 1.400 . S
C1057 C1051 1.491 1_556 S
C1057 C1056 1.400 . S
C1057 C1058 1.398 . S
C1058 H1046 0.950 . S
C1058 C1057 1.398 . S
C1058 C1059 1.391 . S
C1059 H1047 0.950 . S
C1059 C1055 1.393 . S
C1059 C1058 1.391 . S
H1060 C1068 0.950 . S
H1061 C1073 0.950 . S
H1062 C1070 0.950 . S
H1063 C1072 0.950 . S
H1064 C1074 0.950 . S
H1065 C1076 0.950 . S
H1066 C1078 0.950 . S
H1067 C1079 0.950 . S
C1068 H1060 0.950 . S
C1068 C1069 1.386 . S
C1068 C1070 1.391 . S
C1069 C1068 1.386 . S
C1069 C1073 1.393 . S
C1070 H1062 0.950 . S
C1070 C1068 1.391 . S
C1070 C1071 1.400 . S
C1071 C1070 1.400 . S
C1071 C1072 1.398 . S
C1071 C1077 1.491 1_556 S
C1072 H1063 0.950 . S
C1072 C1071 1.398 . S
C1072 C1073 1.391 . S
C1073 H1061 0.950 . S
C1073 C1069 1.393 . S
C1073 C1072 1.391 . S
C1074 H1064 0.950 . S
C1074 C1075 1.386 . S
C1074 C1076 1.391 . S
C1075 C1074 1.386 . S
C1075 C1079 1.393 . S
C1076 H1065 0.950 . S
C1076 C1074 1.391 . S
C1076 C1077 1.400 . S
C1077 C1071 1.491 1_554 S
C1077 C1076 1.400 . S
C1077 C1078 1.398 . S
C1078 H1066 0.950 . S
C1078 C1077 1.398 . S
C1078 C1079 1.391 . S
C1079 H1067 0.950 . S
C1079 C1075 1.393 . S
C1079 C1078 1.391 . S
H1080 C1088 0.950 . S
H1081 C1093 0.950 . S
H1082 C1090 0.950 . S
H1083 C1092 0.950 . S
H1084 C1094 0.950 . S
H1085 C1096 0.950 . S
H1086 C1098 0.950 . S
H1087 C1099 0.950 . S
C1088 H1080 0.950 . S
C1088 C1089 1.386 . S
C1088 C1090 1.391 . S
C1089 C1088 1.386 . S
C1089 C1093 1.393 . S
C1090 H1082 0.950 . S
C1090 C1088 1.391 . S
C1090 C1091 1.400 . S
C1091 C1090 1.400 . S
C1091 C1092 1.398 . S
C1091 C1097 1.491 . S
C1092 H1083 0.950 . S
C1092 C1091 1.398 . S
C1092 C1093 1.391 . S
C1093 H1081 0.950 . S
C1093 C1089 1.393 . S
C1093 C1092 1.391 . S
C1094 H1084 0.950 . S
C1094 C1095 1.386 . S
C1094 C1096 1.391 . S
C1095 C1094 1.386 . S
C1095 C1099 1.393 . S
C1096 H1085 0.950 . S
C1096 C1094 1.391 . S
C1096 C1097 1.400 . S
C1097 C1091 1.491 . S
C1097 C1096 1.400 . S
C1097 C1098 1.398 . S
C1098 H1086 0.950 . S
C1098 C1097 1.398 . S
C1098 C1099 1.391 . S
C1099 H1087 0.950 . S
C1099 C1095 1.393 . S
C1099 C1098 1.391 . S
H1100 C1108 0.950 . S
H1101 C1113 0.950 . S
H1102 C1110 0.950 . S
H1103 C1112 0.950 . S
H1104 C1114 0.950 . S
H1105 C1116 0.950 . S
H1106 C1118 0.950 . S
H1107 C1119 0.950 . S
C1108 H1100 0.950 . S
C1108 C1109 1.386 . S
C1108 C1110 1.391 . S
C1109 C1108 1.386 . S
C1109 C1113 1.393 . S
C1110 H1102 0.950 . S
C1110 C1108 1.391 . S
C1110 C1111 1.400 . S
C1111 C1110 1.400 . S
C1111 C1112 1.398 . S
C1111 C1117 1.491 . S
C1112 H1103 0.950 . S
C1112 C1111 1.398 . S
C1112 C1113 1.391 . S
C1113 H1101 0.950 . S
C1113 C1109 1.393 . S
C1113 C1112 1.391 . S
C1114 H1104 0.950 . S
C1114 C1115 1.386 . S
C1114 C1116 1.391 . S
C1115 C1114 1.386 . S
C1115 C1119 1.393 . S
C1116 H1105 0.950 . S
C1116 C1114 1.391 . S
C1116 C1117 1.400 . S
C1117 C1111 1.491 . S
C1117 C1116 1.400 . S
C1117 C1118 1.398 . S
C1118 H1106 0.950 . S
C1118 C1117 1.398 . S
C1118 C1119 1.391 . S
C1119 H1107 0.950 . S
C1119 C1115 1.393 . S
C1119 C1118 1.391 . S
H1120 C1128 0.950 . S
H1121 C1133 0.950 . S
H1122 C1130 0.950 . S
H1123 C1132 0.950 . S
H1124 C1134 0.950 . S
H1125 C1136 0.950 . S
H1126 C1138 0.950 . S
H1127 C1139 0.950 . S
C1128 H1120 0.950 . S
C1128 C1129 1.386 . S
C1128 C1130 1.391 . S
C1129 C1128 1.386 . S
C1129 C1133 1.393 1_565 S
C1130 H1122 0.950 . S
C1130 C1128 1.391 . S
C1130 C1131 1.400 . S
C1131 C1130 1.400 . S
C1131 C1132 1.398 1_565 S
C1131 C1137 1.491 1_665 S
C1132 H1123 0.950 . S
C1132 C1131 1.398 1_545 S
C1132 C1133 1.391 . S
C1133 H1121 0.950 . S
C1133 C1129 1.393 1_545 S
C1133 C1132 1.391 . S
C1134 H1124 0.950 . S
C1134 C1135 1.386 . S
C1134 C1136 1.391 . S
C1135 C1134 1.386 . S
C1135 C1139 1.393 1_545 S
C1136 H1125 0.950 . S
C1136 C1134 1.391 . S
C1136 C1137 1.400 . S
C1137 C1131 1.491 1_445 S
C1137 C1136 1.400 . S
C1137 C1138 1.398 1_545 S
C1138 H1126 0.950 . S
C1138 C1137 1.398 1_565 S
C1138 C1139 1.391 . S
C1139 H1127 0.950 . S
C1139 C1135 1.393 1_565 S
C1139 C1138 1.391 . S
H1140 C1148 0.950 . S
H1141 C1153 0.950 . S
H1142 C1150 0.950 . S
H1143 C1152 0.950 . S
H1144 C1154 0.950 . S
H1145 C1156 0.950 . S
H1146 C1158 0.950 . S
H1147 C1159 0.950 . S
C1148 H1140 0.950 . S
C1148 C1149 1.386 . S
C1148 C1150 1.391 . S
C1149 C1148 1.386 . S
C1149 C1153 1.393 1_545 S
C1150 H1142 0.950 . S
C1150 C1148 1.391 . S
C1150 C1151 1.400 . S
C1151 C1150 1.400 . S
C1151 C1152 1.398 1_545 S
C1151 C1157 1.491 1_645 S
C1152 H1143 0.950 . S
C1152 C1151 1.398 1_565 S
C1152 C1153 1.391 . S
C1153 H1141 0.950 . S
C1153 C1149 1.393 1_565 S
C1153 C1152 1.391 . S
C1154 H1144 0.950 . S
C1154 C1155 1.386 . S
C1154 C1156 1.391 . S
C1155 C1154 1.386 . S
C1155 C1159 1.393 1_565 S
C1156 H1145 0.950 . S
C1156 C1154 1.391 . S
C1156 C1157 1.400 . S
C1157 C1151 1.491 1_465 S
C1157 C1156 1.400 . S
C1157 C1158 1.398 1_565 S
C1158 H1146 0.950 . S
C1158 C1157 1.398 1_545 S
C1158 C1159 1.391 . S
C1159 H1147 0.950 . S
C1159 C1155 1.393 1_545 S
C1159 C1158 1.391 . S
H1160 C1168 0.950 . S
H1161 C1173 0.950 . S
H1162 C1170 0.950 . S
H1163 C1172 0.950 . S
H1164 C1174 0.950 . S
H1165 C1176 0.950 . S
H1166 C1178 0.950 . S
H1167 C1179 0.950 . S
C1168 H1160 0.950 . S
C1168 C1169 1.386 . S
C1168 C1170 1.391 . S
C1169 C1168 1.386 . S
C1169 C1173 1.393 . S
C1170 H1162 0.950 . S
C1170 C1168 1.391 . S
C1170 C1171 1.400 . S
C1171 C1170 1.400 . S
C1171 C1172 1.398 . S
C1171 C1177 1.491 1_445 S
C1172 H1163 0.950 . S
C1172 C1171 1.398 . S
C1172 C1173 1.391 . S
C1173 H1161 0.950 . S
C1173 C1169 1.393 . S
C1173 C1172 1.391 . S
C1174 H1164 0.950 . S
C1174 C1175 1.386 . S
C1174 C1176 1.391 . S
C1175 C1174 1.386 . S
C1175 C1179 1.393 . S
C1176 H1165 0.950 . S
C1176 C1174 1.391 . S
C1176 C1177 1.400 . S
C1177 C1171 1.491 1_665 S
C1177 C1176 1.400 . S
C1177 C1178 1.398 . S
C1178 H1166 0.950 . S
C1178 C1177 1.398 . S
C1178 C1179 1.391 . S
C1179 H1167 0.950 . S
C1179 C1175 1.393 . S
C1179 C1178 1.391 . S
H1180 C1188 0.950 . S
H1181 C1193 0.950 . S
H1182 C1190 0.950 . S
H1183 C1192 0.950 . S
H1184 C1194 0.950 . S
H1185 C1196 0.950 . S
H1186 C1198 0.950 . S
H1187 C1199 0.950 . S
C1188 H1180 0.950 . S
C1188 C1189 1.386 1_565 S
C1188 C1190 1.391 . S
C1189 C1188 1.386 1_545 S
C1189 C1193 1.393 . S
C1190 H1182 0.950 . S
C1190 C1188 1.391 . S
C1190 C1191 1.400 1_565 S
C1191 C1190 1.400 1_545 S
C1191 C1192 1.398 . S
C1191 C1197 1.491 1_645 S
C1192 H1183 0.950 . S
C1192 C1191 1.398 . S
C1192 C1193 1.391 . S
C1193 H1181 0.950 . S
C1193 C1189 1.393 . S
C1193 C1192 1.391 . S
C1194 H1184 0.950 . S
C1194 C1195 1.386 1_545 S
C1194 C1196 1.391 . S
C1195 C1194 1.386 1_565 S
C1195 C1199 1.393 . S
C1196 H1185 0.950 . S
C1196 C1194 1.391 . S
C1196 C1197 1.400 1_545 S
C1197 C1191 1.491 1_465 S
C1197 C1196 1.400 1_565 S
C1197 C1198 1.398 . S
C1198 H1186 0.950 . S
C1198 C1197 1.398 . S
C1198 C1199 1.391 . S
C1199 H1187 0.950 . S
C1199 C1195 1.393 . S
C1199 C1198 1.391 . S
H1200 C1208 0.950 . S
H1201 C1213 0.950 . S
H1202 C1210 0.950 . S
H1203 C1212 0.950 . S
H1204 C1214 0.950 . S
H1205 C1216 0.950 . S
H1206 C1218 0.950 . S
H1207 C1219 0.950 . S
C1208 H1200 0.950 . S
C1208 C1209 1.386 . S
C1208 C1210 1.391 . S
C1209 C1208 1.386 . S
C1209 C1213 1.393 . S
C1210 H1202 0.950 . S
C1210 C1208 1.391 . S
C1210 C1211 1.400 . S
C1211 C1210 1.400 . S
C1211 C1212 1.398 . S
C1211 C1217 1.491 . S
C1212 H1203 0.950 . S
C1212 C1211 1.398 . S
C1212 C1213 1.391 . S
C1213 H1201 0.950 . S
C1213 C1209 1.393 . S
C1213 C1212 1.391 . S
C1214 H1204 0.950 . S
C1214 C1215 1.386 . S
C1214 C1216 1.391 . S
C1215 C1214 1.386 . S
C1215 C1219 1.393 . S
C1216 H1205 0.950 . S
C1216 C1214 1.391 . S
C1216 C1217 1.400 . S
C1217 C1211 1.491 . S
C1217 C1216 1.400 . S
C1217 C1218 1.398 . S
C1218 H1206 0.950 . S
C1218 C1217 1.398 . S
C1218 C1219 1.391 . S
C1219 H1207 0.950 . S
C1219 C1215 1.393 . S
C1219 C1218 1.391 . S
H1220 C1228 0.950 . S
H1221 C1233 0.950 . S
H1222 C1230 0.950 . S
H1223 C1232 0.950 . S
H1224 C1234 0.950 . S
H1225 C1236 0.950 . S
H1226 C1238 0.950 . S
H1227 C1239 0.950 . S
C1228 H1220 0.950 . S
C1228 C1229 1.386 . S
C1228 C1230 1.391 . S
C1229 C1228 1.386 . S
C1229 C1233 1.393 . S
C1230 H1222 0.950 . S
C1230 C1228 1.391 . S
C1230 C1231 1.400 . S
C1231 C1230 1.400 . S
C1231 C1232 1.398 . S
C1231 C1237 1.491 . S
C1232 H1223 0.950 . S
C1232 C1231 1.398 . S
C1232 C1233 1.391 . S
C1233 H1221 0.950 . S
C1233 C1229 1.393 . S
C1233 C1232 1.391 . S
C1234 H1224 0.950 . S
C1234 C1235 1.386 . S
C1234 C1236 1.391 . S
C1235 C1234 1.386 . S
C1235 C1239 1.393 . S
C1236 H1225 0.950 . S
C1236 C1234 1.391 . S
C1236 C1237 1.400 . S
C1237 C1231 1.491 . S
C1237 C1236 1.400 . S
C1237 C1238 1.398 . S
C1238 H1226 0.950 . S
C1238 C1237 1.398 . S
C1238 C1239 1.391 . S
C1239 H1227 0.950 . S
C1239 C1235 1.393 . S
C1239 C1238 1.391 . S
H1240 C1248 0.950 . S
H1241 C1253 0.950 . S
H1242 C1250 0.950 . S
H1243 C1252 0.950 . S
H1244 C1254 0.950 . S
H1245 C1256 0.950 . S
H1246 C1258 0.950 . S
H1247 C1259 0.950 . S
C1248 H1240 0.950 . S
C1248 C1249 1.386 . S
C1248 C1250 1.391 . S
C1249 C1248 1.386 . S
C1249 C1253 1.393 . S
C1250 H1242 0.950 . S
C1250 C1248 1.391 . S
C1250 C1251 1.400 . S
C1251 C1250 1.400 . S
C1251 C1252 1.398 . S
C1251 C1257 1.491 . S
C1252 H1243 0.950 . S
C1252 C1251 1.398 . S
C1252 C1253 1.391 . S
C1253 H1241 0.950 . S
C1253 C1249 1.393 . S
C1253 C1252 1.391 . S
C1254 H1244 0.950 . S
C1254 C1255 1.386 . S
C1254 C1256 1.391 . S
C1255 C1254 1.386 . S
C1255 C1259 1.393 . S
C1256 H1245 0.950 . S
C1256 C1254 1.391 . S
C1256 C1257 1.400 . S
C1257 C1251 1.491 . S
C1257 C1256 1.400 . S
C1257 C1258 1.398 . S
C1258 H1246 0.950 . S
C1258 C1257 1.398 . S
C1258 C1259 1.391 . S
C1259 H1247 0.950 . S
C1259 C1255 1.393 . S
C1259 C1258 1.391 . S
H1260 C1268 0.950 . S
H1261 C1273 0.950 . S
H1262 C1270 0.950 . S
H1263 C1272 0.950 . S
H1264 C1274 0.950 . S
H1265 C1276 0.950 . S
H1266 C1278 0.950 . S
H1267 C1279 0.950 . S
C1268 H1260 0.950 . S
C1268 C1269 1.386 . S
C1268 C1270 1.391 . S
C1269 C1268 1.386 . S
C1269 C1273 1.393 . S
C1270 H1262 0.950 . S
C1270 C1268 1.391 . S
C1270 C1271 1.400 . S
C1271 C1270 1.400 . S
C1271 C1272 1.398 . S
C1271 C1277 1.491 . S
C1272 H1263 0.950 . S
C1272 C1271 1.398 . S
C1272 C1273 1.391 . S
C1273 H1261 0.950 . S
C1273 C1269 1.393 . S
C1273 C1272 1.391 . S
C1274 H1264 0.950 . S
C1274 C1275 1.386 . S
C1274 C1276 1.391 . S
C1275 C1274 1.386 . S
C1275 C1279 1.393 . S
C1276 H1265 0.950 . S
C1276 C1274 1.391 . S
C1276 C1277 1.400 . S
C1277 C1271 1.491 . S
C1277 C1276 1.400 . S
C1277 C1278 1.398 . S
C1278 H1266 0.950 . S
C1278 C1277 1.398 . S
C1278 C1279 1.391 . S
C1279 H1267 0.950 . S
C1279 C1275 1.393 . S
C1279 C1278 1.391 . S
H1280 C1288 0.950 . S
H1281 C1293 0.950 . S
H1282 C1290 0.950 . S
H1283 C1292 0.950 . S
H1284 C1294 0.950 . S
H1285 C1296 0.950 . S
H1286 C1298 0.950 . S
H1287 C1299 0.950 . S
C1288 H1280 0.950 . S
C1288 C1289 1.386 . S
C1288 C1290 1.391 . S
C1289 C1288 1.386 . S
C1289 C1293 1.393 . S
C1290 H1282 0.950 . S
C1290 C1288 1.391 . S
C1290 C1291 1.400 . S
C1291 C1290 1.400 . S
C1291 C1292 1.398 . S
C1291 C1297 1.491 . S
C1292 H1283 0.950 . S
C1292 C1291 1.398 . S
C1292 C1293 1.391 . S
C1293 H1281 0.950 . S
C1293 C1289 1.393 . S
C1293 C1292 1.391 . S
C1294 H1284 0.950 . S
C1294 C1295 1.386 . S
C1294 C1296 1.391 . S
C1295 C1294 1.386 . S
C1295 C1299 1.393 . S
C1296 H1285 0.950 . S
C1296 C1294 1.391 . S
C1296 C1297 1.400 . S
C1297 C1291 1.491 . S
C1297 C1296 1.400 . S
C1297 C1298 1.398 . S
C1298 H1286 0.950 . S
C1298 C1297 1.398 . S
C1298 C1299 1.391 . S
C1299 H1287 0.950 . S
C1299 C1295 1.393 . S
C1299 C1298 1.391 . S
H1300 C1308 0.950 . S
H1301 C1313 0.950 . S
H1302 C1310 0.950 . S
H1303 C1312 0.950 . S
H1304 C1314 0.950 . S
H1305 C1316 0.950 . S
H1306 C1318 0.950 . S
H1307 C1319 0.950 . S
C1308 H1300 0.950 . S
C1308 C1309 1.386 . S
C1308 C1310 1.391 . S
C1309 C1308 1.386 . S
C1309 C1313 1.393 . S
C1310 H1302 0.950 . S
C1310 C1308 1.391 . S
C1310 C1311 1.400 . S
C1311 C1310 1.400 . S
C1311 C1312 1.398 . S
C1311 C1317 1.491 . S
C1312 H1303 0.950 . S
C1312 C1311 1.398 . S
C1312 C1313 1.391 . S
C1313 H1301 0.950 . S
C1313 C1309 1.393 . S
C1313 C1312 1.391 . S
C1314 H1304 0.950 . S
C1314 C1315 1.386 . S
C1314 C1316 1.391 . S
C1315 C1314 1.386 . S
C1315 C1319 1.393 . S
C1316 H1305 0.950 . S
C1316 C1314 1.391 . S
C1316 C1317 1.400 . S
C1317 C1311 1.491 . S
C1317 C1316 1.400 . S
C1317 C1318 1.398 . S
C1318 H1306 0.950 . S
C1318 C1317 1.398 . S
C1318 C1319 1.391 . S
C1319 H1307 0.950 . S
C1319 C1315 1.393 . S
C1319 C1318 1.391 . S
H1320 C1328 0.950 . S
H1321 C1333 0.950 . S
H1322 C1330 0.950 . S
H1323 C1332 0.950 . S
H1324 C1334 0.950 . S
H1325 C1336 0.950 . S
H1326 C1338 0.950 . S
H1327 C1339 0.950 . S
C1328 H1320 0.950 . S
C1328 C1329 1.386 . S
C1328 C1330 1.391 . S
C1329 C1328 1.386 . S
C1329 C1333 1.393 . S
C1330 H1322 0.950 . S
C1330 C1328 1.391 . S
C1330 C1331 1.400 . S
C1331 C1330 1.400 . S
C1331 C1332 1.398 . S
C1331 C1337 1.491 . S
C1332 H1323 0.950 . S
C1332 C1331 1.398 . S
C1332 C1333 1.391 . S
C1333 H1321 0.950 . S
C1333 C1329 1.393 . S
C1333 C1332 1.391 . S
C1334 H1324 0.950 . S
C1334 C1335 1.386 . S
C1334 C1336 1.391 . S
C1335 C1334 1.386 . S
C1335 C1339 1.393 . S
C1336 H1325 0.950 . S
C1336 C1334 1.391 . S
C1336 C1337 1.400 . S
C1337 C1331 1.491 . S
C1337 C1336 1.400 . S
C1337 C1338 1.398 . S
C1338 H1326 0.950 . S
C1338 C1337 1.398 . S
C1338 C1339 1.391 . S
C1339 H1327 0.950 . S
C1339 C1335 1.393 . S
C1339 C1338 1.391 . S
H1340 C1348 0.950 . S
H1341 C1353 0.950 . S
H1342 C1350 0.950 . S
H1343 C1352 0.950 . S
H1344 C1354 0.950 . S
H1345 C1356 0.950 . S
H1346 C1358 0.950 . S
H1347 C1359 0.950 . S
C1348 H1340 0.950 . S
C1348 C1349 1.386 . S
C1348 C1350 1.391 . S
C1349 C1348 1.386 . S
C1349 C1353 1.393 . S
C1350 H1342 0.950 . S
C1350 C1348 1.391 . S
C1350 C1351 1.400 . S
C1351 C1350 1.400 . S
C1351 C1352 1.398 . S
C1351 C1357 1.491 . S
C1352 H1343 0.950 . S
C1352 C1351 1.398 . S
C1352 C1353 1.391 . S
C1353 H1341 0.950 . S
C1353 C1349 1.393 . S
C1353 C1352 1.391 . S
C1354 H1344 0.950 . S
C1354 C1355 1.386 . S
C1354 C1356 1.391 . S
C1355 C1354 1.386 . S
C1355 C1359 1.393 . S
C1356 H1345 0.950 . S
C1356 C1354 1.391 . S
C1356 C1357 1.400 . S
C1357 C1351 1.491 . S
C1357 C1356 1.400 . S
C1357 C1358 1.398 . S
C1358 H1346 0.950 . S
C1358 C1357 1.398 . S
C1358 C1359 1.391 . S
C1359 H1347 0.950 . S
C1359 C1355 1.393 . S
C1359 C1358 1.391 . S
H1360 C1368 0.950 . S
H1361 C1373 0.950 . S
H1362 C1370 0.950 . S
H1363 C1372 0.950 . S
H1364 C1374 0.950 . S
H1365 C1376 0.950 . S
H1366 C1378 0.950 . S
H1367 C1379 0.950 . S
C1368 H1360 0.950 . S
C1368 C1369 1.386 . S
C1368 C1370 1.391 . S
C1369 C1368 1.386 . S
C1369 C1373 1.393 . S
C1370 H1362 0.950 . S
C1370 C1368 1.391 . S
C1370 C1371 1.400 . S
C1371 C1370 1.400 . S
C1371 C1372 1.398 . S
C1371 C1377 1.491 . S
C1372 H1363 0.950 . S
C1372 C1371 1.398 . S
C1372 C1373 1.391 . S
C1373 H1361 0.950 . S
C1373 C1369 1.393 . S
C1373 C1372 1.391 . S
C1374 H1364 0.950 . S
C1374 C1375 1.386 . S
C1374 C1376 1.391 . S
C1375 C1374 1.386 . S
C1375 C1379 1.393 . S
C1376 H1365 0.950 . S
C1376 C1374 1.391 . S
C1376 C1377 1.400 . S
C1377 C1371 1.491 . S
C1377 C1376 1.400 . S
C1377 C1378 1.398 . S
C1378 H1366 0.950 . S
C1378 C1377 1.398 . S
C1378 C1379 1.391 . S
C1379 H1367 0.950 . S
C1379 C1375 1.393 . S
C1379 C1378 1.391 . S
H1380 C1388 0.950 . S
H1381 C1393 0.950 . S
H1382 C1390 0.950 . S
H1383 C1392 0.950 . S
H1384 C1394 0.950 . S
H1385 C1396 0.950 . S
H1386 C1398 0.950 . S
H1387 C1399 0.950 . S
C1388 H1380 0.950 . S
C1388 C1389 1.386 . S
C1388 C1390 1.391 . S
C1389 C1388 1.386 . S
C1389 C1393 1.393 . S
C1390 H1382 0.950 . S
C1390 C1388 1.391 . S
C1390 C1391 1.400 . S
C1391 C1390 1.400 . S
C1391 C1392 1.398 . S
C1391 C1397 1.491 . S
C1392 H1383 0.950 . S
C1392 C1391 1.398 . S
C1392 C1393 1.391 . S
C1393 H1381 0.950 . S
C1393 C1389 1.393 . S
C1393 C1392 1.391 . S
C1394 H1384 0.950 . S
C1394 C1395 1.386 . S
C1394 C1396 1.391 . S
C1395 C1394 1.386 . S
C1395 C1399 1.393 . S
C1396 H1385 0.950 . S
C1396 C1394 1.391 . S
C1396 C1397 1.400 . S
C1397 C1391 1.491 . S
C1397 C1396 1.400 . S
C1397 C1398 1.398 . S
C1398 H1386 0.950 . S
C1398 C1397 1.398 . S
C1398 C1399 1.391 . S
C1399 H1387 0.950 . S
C1399 C1395 1.393 . S
C1399 C1398 1.391 . S
H1400 C1408 0.950 . S
H1401 C1413 0.950 . S
H1402 C1410 0.950 . S
H1403 C1412 0.950 . S
H1404 C1414 0.950 . S
H1405 C1416 0.950 . S
H1406 C1418 0.950 . S
H1407 C1419 0.950 . S
C1408 H1400 0.950 . S
C1408 C1409 1.386 . S
C1408 C1410 1.391 . S
C1409 C1408 1.386 . S
C1409 C1413 1.393 . S
C1410 H1402 0.950 . S
C1410 C1408 1.391 . S
C1410 C1411 1.400 . S
C1411 C1410 1.400 . S
C1411 C1412 1.398 . S
C1411 C1417 1.491 . S
C1412 H1403 0.950 . S
C1412 C1411 1.398 . S
C1412 C1413 1.391 . S
C1413 H1401 0.950 . S
C1413 C1409 1.393 . S
C1413 C1412 1.391 . S
C1414 H1404 0.950 . S
C1414 C1415 1.386 . S
C1414 C1416 1.391 . S
C1415 C1414 1.386 . S
C1415 C1419 1.393 . S
C1416 H1405 0.950 . S
C1416 C1414 1.391 . S
C1416 C1417 1.400 . S
C1417 C1411 1.491 . S
C1417 C1416 1.400 . S
C1417 C1418 1.398 . S
C1418 H1406 0.950 . S
C1418 C1417 1.398 . S
C1418 C1419 1.391 . S
C1419 H1407 0.950 . S
C1419 C1415 1.393 . S
C1419 C1418 1.391 . S
H1420 C1428 0.950 . S
H1421 C1433 0.950 . S
H1422 C1430 0.950 . S
H1423 C1432 0.950 . S
H1424 C1434 0.950 . S
H1425 C1436 0.950 . S
H1426 C1438 0.950 . S
H1427 C1439 0.950 . S
C1428 H1420 0.950 . S
C1428 C1429 1.386 . S
C1428 C1430 1.391 . S
C1429 C1428 1.386 . S
C1429 C1433 1.393 . S
C1430 H1422 0.950 . S
C1430 C1428 1.391 . S
C1430 C1431 1.400 . S
C1431 C1430 1.400 . S
C1431 C1432 1.398 . S
C1431 C1437 1.491 . S
C1432 H1423 0.950 . S
C1432 C1431 1.398 . S
C1432 C1433 1.391 . S
C1433 H1421 0.950 . S
C1433 C1429 1.393 . S
C1433 C1432 1.391 . S
C1434 H1424 0.950 . S
C1434 C1435 1.386 . S
C1434 C1436 1.391 . S
C1435 C1434 1.386 . S
C1435 C1439 1.393 . S
C1436 H1425 0.950 . S
C1436 C1434 1.391 . S
C1436 C1437 1.400 . S
C1437 C1431 1.491 . S
C1437 C1436 1.400 . S
C1437 C1438 1.398 . S
C1438 H1426 0.950 . S
C1438 C1437 1.398 . S
C1438 C1439 1.391 . S
C1439 H1427 0.950 . S
C1439 C1435 1.393 . S
C1439 C1438 1.391 . S
H1440 C1448 0.950 . S
H1441 C1453 0.950 . S
H1442 C1450 0.950 . S
H1443 C1452 0.950 . S
H1444 C1454 0.950 . S
H1445 C1456 0.950 . S
H1446 C1458 0.950 . S
H1447 C1459 0.950 . S
C1448 H1440 0.950 . S
C1448 C1449 1.386 . S
C1448 C1450 1.391 1_565 S
C1449 C1448 1.386 . S
C1449 C1453 1.393 . S
C1450 H1442 0.950 . S
C1450 C1448 1.391 1_545 S
C1450 C1451 1.400 . S
C1451 C1450 1.400 . S
C1451 C1452 1.398 . S
C1451 C1457 1.491 . S
C1452 H1443 0.950 . S
C1452 C1451 1.398 . S
C1452 C1453 1.391 1_545 S
C1453 H1441 0.950 . S
C1453 C1449 1.393 . S
C1453 C1452 1.391 1_565 S
C1454 H1444 0.950 . S
C1454 C1455 1.386 . S
C1454 C1456 1.391 . S
C1455 C1454 1.386 . S
C1455 C1459 1.393 . S
C1456 H1445 0.950 . S
C1456 C1454 1.391 . S
C1456 C1457 1.400 . S
C1457 C1451 1.491 . S
C1457 C1456 1.400 . S
C1457 C1458 1.398 . S
C1458 H1446 0.950 . S
C1458 C1457 1.398 . S
C1458 C1459 1.391 . S
C1459 H1447 0.950 . S
C1459 C1455 1.393 . S
C1459 C1458 1.391 . S
H1460 C1468 0.950 . S
H1461 C1473 0.950 . S
H1462 C1470 0.950 . S
H1463 C1472 0.950 . S
H1464 C1474 0.950 . S
H1465 C1476 0.950 . S
H1466 C1478 0.950 . S
H1467 C1479 0.950 . S
C1468 H1460 0.950 . S
C1468 C1469 1.386 . S
C1468 C1470 1.391 . S
C1469 C1468 1.386 . S
C1469 C1473 1.393 . S
C1470 H1462 0.950 . S
C1470 C1468 1.391 . S
C1470 C1471 1.400 . S
C1471 C1470 1.400 . S
C1471 C1472 1.398 . S
C1471 C1477 1.491 . S
C1472 H1463 0.950 . S
C1472 C1471 1.398 . S
C1472 C1473 1.391 . S
C1473 H1461 0.950 . S
C1473 C1469 1.393 . S
C1473 C1472 1.391 . S
C1474 H1464 0.950 . S
C1474 C1475 1.386 . S
C1474 C1476 1.391 1_545 S
C1475 C1474 1.386 . S
C1475 C1479 1.393 . S
C1476 H1465 0.950 . S
C1476 C1474 1.391 1_565 S
C1476 C1477 1.400 . S
C1477 C1471 1.491 . S
C1477 C1476 1.400 . S
C1477 C1478 1.398 . S
C1478 H1466 0.950 . S
C1478 C1477 1.398 . S
C1478 C1479 1.391 1_565 S
C1479 H1467 0.950 . S
C1479 C1475 1.393 . S
C1479 C1478 1.391 1_545 S
H1480 C1488 0.950 . S
H1481 C1493 0.950 . S
H1482 C1490 0.950 . S
H1483 C1492 0.950 . S
H1484 C1494 0.950 . S
H1485 C1496 0.950 . S
H1486 C1498 0.950 . S
H1487 C1499 0.950 . S
C1488 H1480 0.950 . S
C1488 C1489 1.386 . S
C1488 C1490 1.391 1_545 S
C1489 C1488 1.386 . S
C1489 C1493 1.393 . S
C1490 H1482 0.950 . S
C1490 C1488 1.391 1_565 S
C1490 C1491 1.400 . S
C1491 C1490 1.400 . S
C1491 C1492 1.398 . S
C1491 C1497 1.491 . S
C1492 H1483 0.950 . S
C1492 C1491 1.398 . S
C1492 C1493 1.391 1_565 S
C1493 H1481 0.950 . S
C1493 C1489 1.393 . S
C1493 C1492 1.391 1_545 S
C1494 H1484 0.950 . S
C1494 C1495 1.386 . S
C1494 C1496 1.391 . S
C1495 C1494 1.386 . S
C1495 C1499 1.393 . S
C1496 H1485 0.950 . S
C1496 C1494 1.391 . S
C1496 C1497 1.400 . S
C1497 C1491 1.491 . S
C1497 C1496 1.400 . S
C1497 C1498 1.398 . S
C1498 H1486 0.950 . S
C1498 C1497 1.398 . S
C1498 C1499 1.391 . S
C1499 H1487 0.950 . S
C1499 C1495 1.393 . S
C1499 C1498 1.391 . S
H1500 C1508 0.950 . S
H1501 C1513 0.950 . S
H1502 C1510 0.950 . S
H1503 C1512 0.950 . S
H1504 C1514 0.950 . S
H1505 C1516 0.950 . S
H1506 C1518 0.950 . S
H1507 C1519 0.950 . S
C1508 H1500 0.950 . S
C1508 C1509 1.386 . S
C1508 C1510 1.391 1_565 S
C1509 C1508 1.386 . S
C1509 C1513 1.393 . S
C1510 H1502 0.950 . S
C1510 C1508 1.391 1_545 S
C1510 C1511 1.400 . S
C1511 C1510 1.400 . S
C1511 C1512 1.398 . S
C1511 C1517 1.491 . S
C1512 H1503 0.950 . S
C1512 C1511 1.398 . S
C1512 C1513 1.391 1_545 S
C1513 H1501 0.950 . S
C1513 C1509 1.393 . S
C1513 C1512 1.391 1_565 S
C1514 H1504 0.950 . S
C1514 C1515 1.386 . S
C1514 C1516 1.391 . S
C1515 C1514 1.386 . S
C1515 C1519 1.393 . S
C1516 H1505 0.950 . S
C1516 C1514 1.391 . S
C1516 C1517 1.400 . S
C1517 C1511 1.491 . S
C1517 C1516 1.400 . S
C1517 C1518 1.398 . S
C1518 H1506 0.950 . S
C1518 C1517 1.398 . S
C1518 C1519 1.391 . S
C1519 H1507 0.950 . S
C1519 C1515 1.393 . S
C1519 C1518 1.391 . S
H1520 C1528 0.950 . S
H1521 C1533 0.950 . S
H1522 C1530 0.950 . S
H1523 C1532 0.950 . S
H1524 C1534 0.950 . S
H1525 C1536 0.950 . S
H1526 C1538 0.950 . S
H1527 C1539 0.950 . S
C1528 H1520 0.950 . S
C1528 C1529 1.386 . S
C1528 C1530 1.391 . S
C1529 C1528 1.386 . S
C1529 C1533 1.393 . S
C1530 H1522 0.950 . S
C1530 C1528 1.391 . S
C1530 C1531 1.400 . S
C1531 C1530 1.400 . S
C1531 C1532 1.398 . S
C1531 C1537 1.491 . S
C1532 H1523 0.950 . S
C1532 C1531 1.398 . S
C1532 C1533 1.391 . S
C1533 H1521 0.950 . S
C1533 C1529 1.393 . S
C1533 C1532 1.391 . S
C1534 H1524 0.950 . S
C1534 C1535 1.386 . S
C1534 C1536 1.391 1_545 S
C1535 C1534 1.386 . S
C1535 C1539 1.393 . S
C1536 H1525 0.950 . S
C1536 C1534 1.391 1_565 S
C1536 C1537 1.400 . S
C1537 C1531 1.491 . S
C1537 C1536 1.400 . S
C1537 C1538 1.398 . S
C1538 H1526 0.950 . S
C1538 C1537 1.398 . S
C1538 C1539 1.391 1_565 S
C1539 H1527 0.950 . S
C1539 C1535 1.393 . S
C1539 C1538 1.391 1_545 S
H1540 C1548 0.950 . S
H1541 C1553 0.950 . S
H1542 C1550 0.950 . S
H1543 C1552 0.950 . S
H1544 C1554 0.950 . S
H1545 C1556 0.950 . S
H1546 C1558 0.950 . S
H1547 C1559 0.950 . S
C1548 H1540 0.950 . S
C1548 C1549 1.386 . S
C1548 C1550 1.391 . S
C1549 C1548 1.386 . S
C1549 C1553 1.393 . S
C1550 H1542 0.950 . S
C1550 C1548 1.391 . S
C1550 C1551 1.400 . S
C1551 C1550 1.400 . S
C1551 C1552 1.398 . S
C1551 C1557 1.491 . S
C1552 H1543 0.950 . S
C1552 C1551 1.398 . S
C1552 C1553 1.391 . S
C1553 H1541 0.950 . S
C1553 C1549 1.393 . S
C1553 C1552 1.391 . S
C1554 H1544 0.950 . S
C1554 C1555 1.386 . S
C1554 C1556 1.391 1_565 S
C1555 C1554 1.386 . S
C1555 C1559 1.393 . S
C1556 H1545 0.950 . S
C1556 C1554 1.391 1_545 S
C1556 C1557 1.400 . S
C1557 C1551 1.491 . S
C1557 C1556 1.400 . S
C1557 C1558 1.398 . S
C1558 H1546 0.950 . S
C1558 C1557 1.398 . S
C1558 C1559 1.391 1_545 S
C1559 H1547 0.950 . S
C1559 C1555 1.393 . S
C1559 C1558 1.391 1_565 S
H1560 C1568 0.950 . S
H1561 C1573 0.950 . S
H1562 C1570 0.950 . S
H1563 C1572 0.950 . S
H1564 C1574 0.950 . S
H1565 C1576 0.950 . S
H1566 C1578 0.950 . S
H1567 C1579 0.950 . S
C1568 H1560 0.950 . S
C1568 C1569 1.386 . S
C1568 C1570 1.391 1_565 S
C1569 C1568 1.386 . S
C1569 C1573 1.393 . S
C1570 H1562 0.950 . S
C1570 C1568 1.391 1_545 S
C1570 C1571 1.400 . S
C1571 C1570 1.400 . S
C1571 C1572 1.398 . S
C1571 C1577 1.491 . S
C1572 H1563 0.950 . S
C1572 C1571 1.398 . S
C1572 C1573 1.391 1_545 S
C1573 H1561 0.950 . S
C1573 C1569 1.393 . S
C1573 C1572 1.391 1_565 S
C1574 H1564 0.950 . S
C1574 C1575 1.386 . S
C1574 C1576 1.391 . S
C1575 C1574 1.386 . S
C1575 C1579 1.393 . S
C1576 H1565 0.950 . S
C1576 C1574 1.391 . S
C1576 C1577 1.400 . S
C1577 C1571 1.491 . S
C1577 C1576 1.400 . S
C1577 C1578 1.398 . S
C1578 H1566 0.950 . S
C1578 C1577 1.398 . S
C1578 C1579 1.391 . S
C1579 H1567 0.950 . S
C1579 C1575 1.393 . S
C1579 C1578 1.391 . S
H1580 C1588 0.950 . S
H1581 C1593 0.950 . S
H1582 C1590 0.950 . S
H1583 C1592 0.950 . S
H1584 C1594 0.950 . S
H1585 C1596 0.950 . S
H1586 C1598 0.950 . S
H1587 C1599 0.950 . S
C1588 H1580 0.950 . S
C1588 C1589 1.386 . S
C1588 C1590 1.391 . S
C1589 C1588 1.386 . S
C1589 C1593 1.393 . S
C1590 H1582 0.950 . S
C1590 C1588 1.391 . S
C1590 C1591 1.400 . S
C1591 C1590 1.400 . S
C1591 C1592 1.398 . S
C1591 C1597 1.491 . S
C1592 H1583 0.950 . S
C1592 C1591 1.398 . S
C1592 C1593 1.391 . S
C1593 H1581 0.950 . S
C1593 C1589 1.393 . S
C1593 C1592 1.391 . S
C1594 H1584 0.950 . S
C1594 C1595 1.386 . S
C1594 C1596 1.391 1_545 S
C1595 C1594 1.386 . S
C1595 C1599 1.393 . S
C1596 H1585 0.950 . S
C1596 C1594 1.391 1_565 S
C1596 C1597 1.400 . S
C1597 C1591 1.491 . S
C1597 C1596 1.400 . S
C1597 C1598 1.398 . S
C1598 H1586 0.950 . S
C1598 C1597 1.398 . S
C1598 C1599 1.391 1_565 S
C1599 H1587 0.950 . S
C1599 C1595 1.393 . S
C1599 C1598 1.391 1_545 S
C649 C12 1.554 . S
C655 C372 1.553 . S
C669 C52 1.551 . S
C675 C332 1.553 . S
C689 C452 1.551 . S
C695 C92 1.552 . S
C709 C132 1.551 . S
C715 C412 1.554 . S
C729 C551 1.552 . S
C735 C191 1.554 . S
C749 C511 1.554 . S
C755 C231 1.554 . S
C769 C631 1.553 . S
C775 C271 1.554 . S
C789 C311 1.552 . S
C795 C591 1.554 . S
C809 C82 1.684 . S
C815 C2 1.676 . S
C829 C122 1.681 . S
C835 C42 1.682 . S
C849 C257 1.677 . S
C855 C177 1.682 . S
C869 C217 1.685 . S
C875 C297 1.676 . S
C889 C402 1.680 . S
C895 C322 1.683 . S
C909 C442 1.675 . S
C915 C362 1.685 . S
C929 C497 1.681 . S
C935 C577 1.682 . S
C949 C537 1.683 . S
C955 C617 1.676 . S
C969 C202 1.529 . S
C975 C17 1.553 . S
C989 C162 1.551 . S
C995 C57 1.531 . S
C1009 C97 1.544 . S
C1015 C282 1.538 . S
C1029 C242 1.539 . S
C1035 C137 1.543 . S
C1049 C337 1.534 . S
C1055 C522 1.548 . S
C1069 C482 1.553 . S
C1075 C377 1.529 . S
C1089 C417 1.529 . S
C1095 C602 1.553 . S
C1109 C562 1.530 . S
C1115 C457 1.553 . S
C1129 C71 1.630 . S
C1135 C31 1.628 . S
C1149 C151 1.630 . S
C1155 C111 1.629 . S
C1169 C212 1.614 . S
C1175 C172 1.615 . S
C1189 C252 1.616 . S
C1195 C292 1.615 . S
C1209 C391 1.615 . S
C1215 C351 1.617 . S
C1229 C471 1.623 . S
C1235 C431 1.625 . S
C1249 C492 1.627 . S
C1255 C532 1.629 . S
C1269 C572 1.617 . S
C1275 C612 1.616 . S
C1289 C8 1.596 . S
C1295 C29 1.596 . S
C1309 C48 1.580 . S
C1315 C69 1.580 . S
C1329 C88 1.596 . S
C1335 C109 1.596 . S
C1349 C149 1.589 . S
C1355 C128 1.589 . S
C1369 C189 1.599 . S
C1375 C168 1.599 . S
C1389 C208 1.585 . S
C1395 C229 1.585 . S
C1409 C269 1.580 . S
C1415 C248 1.580 . S
C1429 C309 1.585 . S
C1435 C288 1.585 . S
C1449 C349 1.589 . S
C1455 C328 1.589 . S
C1469 C368 1.581 . S
C1475 C389 1.581 . S
C1489 C429 1.598 . S
C1495 C408 1.598 . S
C1509 C469 1.587 . S
C1515 C448 1.587 . S
C1529 C509 1.597 . S
C1535 C488 1.597 . S
C1549 C549 1.580 . S
C1555 C528 1.580 . S
C1569 C568 1.580 . S
C1575 C589 1.580 . S
C1589 C629 1.597 . S
C1595 C608 1.597 . S
