# Generated by pormake.
# Topology whr, (6)-cn, num edge types: 1
# Building blocks:
#     Node 0, Type 0, BuildingBlock: OJICUG_clean_sbu_0, # of connection points: 6
#     Node 1, Type 0, BuildingBlock: OJICUG_clean_sbu_0, # of connection points: 6
#     Node 2, Type 0, BuildingBlock: OJICUG_clean_sbu_0, # of connection points: 6
#     Node 3, Type 0, BuildingBlock: OJICUG_clean_sbu_0, # of connection points: 6
#     Node 4, Type 0, BuildingBlock: OJICUG_clean_sbu_0, # of connection points: 6
#     Node 5, Type 0, BuildingBlock: OJICUG_clean_sbu_0, # of connection points: 6
#     Node 6, Type 0, BuildingBlock: OJICUG_clean_sbu_0, # of connection points: 6
#     Node 7, Type 0, BuildingBlock: OJICUG_clean_sbu_0, # of connection points: 6
#     Node 8, Type 0, BuildingBlock: OJICUG_clean_sbu_0, # of connection points: 6
#     Node 9, Type 0, BuildingBlock: OJICUG_clean_sbu_0, # of connection points: 6
#     Node 10, Type 0, BuildingBlock: OJICUG_clean_sbu_0, # of connection points: 6
#     Node 11, Type 0, BuildingBlock: OJICUG_clean_sbu_0, # of connection points: 6
#     Node 12, Type 0, BuildingBlock: OJICUG_clean_sbu_0, # of connection points: 6
#     Node 13, Type 0, BuildingBlock: OJICUG_clean_sbu_0, # of connection points: 6
#     Node 14, Type 0, BuildingBlock: OJICUG_clean_sbu_0, # of connection points: 6
#     Node 15, Type 0, BuildingBlock: OJICUG_clean_sbu_0, # of connection points: 6
#     Edge 16, Type (0, 0), BuildingBlock: ZUJKAS_clean_linker_0, # of connection points: 2
#     Edge 17, Type (0, 0), BuildingBlock: ZUJKAS_clean_linker_0, # of connection points: 2
#     Edge 18, Type (0, 0), BuildingBlock: ZUJKAS_clean_linker_0, # of connection points: 2
#     Edge 19, Type (0, 0), BuildingBlock: ZUJKAS_clean_linker_0, # of connection points: 2
#     Edge 20, Type (0, 0), BuildingBlock: ZUJKAS_clean_linker_0, # of connection points: 2
#     Edge 21, Type (0, 0), BuildingBlock: ZUJKAS_clean_linker_0, # of connection points: 2
#     Edge 22, Type (0, 0), BuildingBlock: ZUJKAS_clean_linker_0, # of connection points: 2
#     Edge 23, Type (0, 0), BuildingBlock: ZUJKAS_clean_linker_0, # of connection points: 2
#     Edge 24, Type (0, 0), BuildingBlock: ZUJKAS_clean_linker_0, # of connection points: 2
#     Edge 25, Type (0, 0), BuildingBlock: ZUJKAS_clean_linker_0, # of connection points: 2
#     Edge 26, Type (0, 0), BuildingBlock: ZUJKAS_clean_linker_0, # of connection points: 2
#     Edge 27, Type (0, 0), BuildingBlock: ZUJKAS_clean_linker_0, # of connection points: 2
#     Edge 28, Type (0, 0), BuildingBlock: ZUJKAS_clean_linker_0, # of connection points: 2
#     Edge 29, Type (0, 0), BuildingBlock: ZUJKAS_clean_linker_0, # of connection points: 2
#     Edge 30, Type (0, 0), BuildingBlock: ZUJKAS_clean_linker_0, # of connection points: 2
#     Edge 31, Type (0, 0), BuildingBlock: ZUJKAS_clean_linker_0, # of connection points: 2
#     Edge 32, Type (0, 0), BuildingBlock: ZUJKAS_clean_linker_0, # of connection points: 2
#     Edge 33, Type (0, 0), BuildingBlock: ZUJKAS_clean_linker_0, # of connection points: 2
#     Edge 34, Type (0, 0), BuildingBlock: ZUJKAS_clean_linker_0, # of connection points: 2
#     Edge 35, Type (0, 0), BuildingBlock: ZUJKAS_clean_linker_0, # of connection points: 2
#     Edge 36, Type (0, 0), BuildingBlock: ZUJKAS_clean_linker_0, # of connection points: 2
#     Edge 37, Type (0, 0), BuildingBlock: ZUJKAS_clean_linker_0, # of connection points: 2
#     Edge 38, Type (0, 0), BuildingBlock: ZUJKAS_clean_linker_0, # of connection points: 2
#     Edge 39, Type (0, 0), BuildingBlock: ZUJKAS_clean_linker_0, # of connection points: 2
#     Edge 40, Type (0, 0), BuildingBlock: ZUJKAS_clean_linker_0, # of connection points: 2
#     Edge 41, Type (0, 0), BuildingBlock: ZUJKAS_clean_linker_0, # of connection points: 2
#     Edge 42, Type (0, 0), BuildingBlock: ZUJKAS_clean_linker_0, # of connection points: 2
#     Edge 43, Type (0, 0), BuildingBlock: ZUJKAS_clean_linker_0, # of connection points: 2
#     Edge 44, Type (0, 0), BuildingBlock: ZUJKAS_clean_linker_0, # of connection points: 2
#     Edge 45, Type (0, 0), BuildingBlock: ZUJKAS_clean_linker_0, # of connection points: 2
#     Edge 46, Type (0, 0), BuildingBlock: ZUJKAS_clean_linker_0, # of connection points: 2
#     Edge 47, Type (0, 0), BuildingBlock: ZUJKAS_clean_linker_0, # of connection points: 2
#     Edge 48, Type (0, 0), BuildingBlock: ZUJKAS_clean_linker_0, # of connection points: 2
#     Edge 49, Type (0, 0), BuildingBlock: ZUJKAS_clean_linker_0, # of connection points: 2
#     Edge 50, Type (0, 0), BuildingBlock: ZUJKAS_clean_linker_0, # of connection points: 2
#     Edge 51, Type (0, 0), BuildingBlock: ZUJKAS_clean_linker_0, # of connection points: 2
#     Edge 52, Type (0, 0), BuildingBlock: ZUJKAS_clean_linker_0, # of connection points: 2
#     Edge 53, Type (0, 0), BuildingBlock: ZUJKAS_clean_linker_0, # of connection points: 2
#     Edge 54, Type (0, 0), BuildingBlock: ZUJKAS_clean_linker_0, # of connection points: 2
#     Edge 55, Type (0, 0), BuildingBlock: ZUJKAS_clean_linker_0, # of connection points: 2
#     Edge 56, Type (0, 0), BuildingBlock: ZUJKAS_clean_linker_0, # of connection points: 2
#     Edge 57, Type (0, 0), BuildingBlock: ZUJKAS_clean_linker_0, # of connection points: 2
#     Edge 58, Type (0, 0), BuildingBlock: ZUJKAS_clean_linker_0, # of connection points: 2
#     Edge 59, Type (0, 0), BuildingBlock: ZUJKAS_clean_linker_0, # of connection points: 2
#     Edge 60, Type (0, 0), BuildingBlock: ZUJKAS_clean_linker_0, # of connection points: 2
#     Edge 61, Type (0, 0), BuildingBlock: ZUJKAS_clean_linker_0, # of connection points: 2
#     Edge 62, Type (0, 0), BuildingBlock: ZUJKAS_clean_linker_0, # of connection points: 2
#     Edge 63, Type (0, 0), BuildingBlock: ZUJKAS_clean_linker_0, # of connection points: 2
# Relax obj value: 0.342
# Max RMSD: 0.271
# Mean RMSD: 0.271
data_MOF--net-whr--node1-OJICUG_clean_sbu_0--edge1-ZUJKAS_clean_linker_0
_symmetry_space_group_name_H-M    P1
_symmetry_Int_Tables_number       1
_symmetry_cell_setting            triclinic
loop_
_symmetry_equiv_pos_as_xyz
'x, y, z'
_cell_length_a     61.943766
_cell_length_b     61.937137
_cell_length_c     37.681812
_cell_angle_alpha  89.998109
_cell_angle_beta   90.030138
_cell_angle_gamma 90.046952
loop_
_atom_site_label
_atom_site_type_symbol
_atom_site_fract_x
_atom_site_fract_y
_atom_site_fract_z
_atom_type_partial_charge
Sc0 Sc 0.20155 0.05638 0.10076 0.0
Sc1 Sc 0.22905 0.08918 0.03961 0.0
Sc2 Sc 0.24631 0.03557 0.05481 0.0
O3 O 0.22569 0.06038 0.06503 0.0
C4 C 0.24018 0.03038 0.13764 0.0
C5 C 0.21732 0.10385 0.11874 0.0
C6 C 0.27812 0.07635 0.05329 0.0
C7 C 0.17807 0.08499 0.0414 0.0
C8 C 0.20056 0.01135 0.06077 0.0
C9 C 0.23936 0.0553 0.97788 0.0
O10 O 0.22176 0.03935 0.13741 0.0
O11 O 0.22382 0.10793 0.08741 0.0
O12 O 0.2746 0.05612 0.0549 0.0
O13 O 0.17801 0.07314 0.06893 0.0
O14 O 0.22044 0.01211 0.05222 0.0
O15 O 0.2346 0.07416 0.98867 0.0
O16 O 0.19107 0.02658 0.07711 0.0
O17 O 0.19535 0.09116 0.02631 0.0
O18 O 0.2431 0.03966 -0.00123 0.0
O19 O 0.20992 0.08556 0.128 0.0
O20 O 0.25181 0.02858 0.11004 0.0
O21 O 0.26313 0.0902 0.0498 0.0
Sc22 Sc 0.0555 0.79953 0.8951 0.0
Sc23 Sc 0.08821 0.76916 0.9523 0.0
Sc24 Sc 0.03382 0.75426 0.93834 0.0
O25 O 0.05917 0.77427 0.92865 0.0
C26 C 0.01162 0.80117 0.9376 0.0
C27 C 0.08625 0.82003 0.95493 0.0
C28 C 0.05496 0.75753 0.01467 0.0
C29 C 0.10167 0.78269 0.87326 0.0
C30 C 0.02674 0.76329 0.85683 0.0
C31 C 0.0735 0.72127 0.93465 0.0
O32 O 0.02712 0.81077 0.92209 0.0
O33 O 0.09117 0.80218 0.96945 0.0
O34 O 0.03876 0.75584 0.99426 0.0
O35 O 0.08324 0.79013 0.86499 0.0
O36 O 0.0258 0.75046 0.88307 0.0
O37 O 0.08803 0.73567 0.93756 0.0
O38 O 0.03607 0.78153 0.85839 0.0
O39 O 0.10637 0.77612 0.90434 0.0
O40 O 0.05337 0.72533 0.93593 0.0
O41 O 0.07463 0.82121 0.92716 0.0
O42 O 0.01148 0.78092 0.9435 0.0
O43 O 0.07392 0.76155 0.00337 0.0
Sc44 Sc 0.74911 0.96124 0.05408 0.0
Sc45 Sc 0.76674 0.90762 0.03943 0.0
Sc46 Sc 0.79455 0.94112 0.0994 0.0
O47 O 0.77007 0.93664 0.0643 0.0
C48 C 0.79497 0.98526 0.05604 0.0
C49 C 0.75464 0.94018 0.97735 0.0
C50 C 0.81786 0.91174 0.04104 0.0
C51 C 0.71752 0.92077 0.05497 0.0
C52 C 0.75712 0.96843 0.13646 0.0
C53 C 0.77849 0.89381 0.11903 0.0
O54 O 0.77525 0.98399 0.04664 0.0
O55 O 0.76216 0.92217 0.98779 0.0
O56 O 0.81805 0.92452 0.06739 0.0
O57 O 0.721 0.94087 0.05909 0.0
O58 O 0.77481 0.95815 0.13661 0.0
O59 O 0.77117 0.88951 0.08822 0.0
O60 O 0.74568 0.97067 0.10877 0.0
O61 O 0.73241 0.90721 0.04829 0.0
O62 O 0.78675 0.91193 0.12721 0.0
O63 O 0.74935 0.9553 -0.00172 0.0
O64 O 0.80428 0.97094 0.07481 0.0
O65 O 0.80053 0.90481 0.0271 0.0
Sc66 Sc 0.96281 0.24197 0.9323 0.0
Sc67 Sc 0.90824 0.22691 0.9443 0.0
Sc68 Sc 0.94178 0.19635 0.88827 0.0
O69 O 0.9376 0.22179 0.92163 0.0
C70 C 0.97073 0.23252 0.85057 0.0
C71 C 0.9237 0.27513 0.9277 0.0
C72 C 0.89548 0.21361 0.86488 0.0
C73 C 0.94026 0.23829 0.00803 0.0
C74 C 0.98529 0.19535 0.93297 0.0
C75 C 0.91031 0.17559 0.94632 0.0
O76 O 0.97252 0.24458 0.87766 0.0
O77 O 0.90928 0.26087 0.93298 0.0
O78 O 0.91333 0.20426 0.85851 0.0
O79 O 0.95627 0.24197 0.98792 0.0
O80 O 0.97073 0.18602 0.91476 0.0
O81 O 0.90374 0.19353 0.95856 0.0
O82 O 0.98468 0.21533 0.94079 0.0
O83 O 0.9219 0.23227 -0.00352 0.0
O84 O 0.92372 0.17425 0.92092 0.0
O85 O 0.94377 0.27093 0.92655 0.0
O86 O 0.9603 0.21486 0.85094 0.0
O87 O 0.89113 0.2222 0.89473 0.0
Sc88 Sc 0.75487 0.03813 0.55361 0.0
Sc89 Sc 0.7703 0.09227 0.53745 0.0
Sc90 Sc 0.80175 0.0593 0.5931 0.0
O91 O 0.77558 0.06327 0.56137 0.0
C92 C 0.76573 0.03233 0.63507 0.0
C93 C 0.7221 0.07784 0.55599 0.0
C94 C 0.78532 0.10616 0.61543 0.0
C95 C 0.75835 0.05862 0.4762 0.0
C96 C 0.80108 0.01463 0.55212 0.0
C97 C 0.82157 0.08961 0.53275 0.0
O98 O 0.75264 0.03058 0.60925 0.0
O99 O 0.73653 0.09194 0.54988 0.0
O100 O 0.7948 0.08837 0.62183 0.0
O101 O 0.75501 0.04304 0.49745 0.0
O102 O 0.8112 0.0299 0.56729 0.0
O103 O 0.80346 0.09644 0.52159 0.0
O104 O 0.7808 0.01513 0.5467 0.0
O105 O 0.76396 0.0774 0.48648 0.0
O106 O 0.82325 0.07634 0.55825 0.0
O107 O 0.72619 0.05778 0.55826 0.0
O108 O 0.78388 0.04172 0.63236 0.0
O109 O 0.776 0.11016 0.58601 0.0
Sc110 Sc 0.0572 0.2038 0.39068 0.0
Sc111 Sc 0.09078 0.23401 0.44609 0.0
Sc112 Sc 0.0369 0.24997 0.43151 0.0
O113 O 0.0617 0.22939 0.42286 0.0
C114 C 0.02758 0.23937 0.35274 0.0
C115 C 0.10265 0.22032 0.36604 0.0
C116 C 0.07726 0.28231 0.42939 0.0
C117 C 0.08951 0.18342 0.4479 0.0
C118 C 0.01419 0.20312 0.43334 0.0
C119 C 0.05747 0.24581 0.5082 0.0
O120 O 0.03511 0.22047 0.35644 0.0
O121 O 0.10791 0.22641 0.39726 0.0
O122 O 0.05707 0.27849 0.43029 0.0
O123 O 0.07816 0.18258 0.4199 0.0
O124 O 0.01369 0.2237 0.435 0.0
O125 O 0.07648 0.24184 0.49702 0.0
O126 O 0.03046 0.19274 0.42181 0.0
O127 O 0.0935 0.20104 0.46382 0.0
O128 O 0.0413 0.24778 0.48765 0.0
O129 O 0.08376 0.21379 0.35805 0.0
O130 O 0.0301 0.25409 0.3758 0.0
O131 O 0.09142 0.26752 0.43154 0.0
Sc132 Sc 0.19623 0.94335 0.59318 0.0
Sc133 Sc 0.22602 0.90897 0.5375 0.0
Sc134 Sc 0.24317 0.96287 0.55124 0.0
O135 O 0.22185 0.9384 0.56056 0.0
C136 C 0.19764 0.98745 0.54988 0.0
C137 C 0.17493 0.91343 0.53346 0.0
C138 C 0.24017 0.94072 0.4752 0.0
C139 C 0.21099 0.89611 0.61592 0.0
C140 C 0.233 0.97031 0.63286 0.0
C141 C 0.27458 0.92236 0.55627 0.0
O142 O 0.1876 0.97311 0.56751 0.0
O143 O 0.19272 0.90614 0.52177 0.0
O144 O 0.24418 0.95652 0.49557 0.0
O145 O 0.20245 0.91433 0.62243 0.0
O146 O 0.2453 0.97222 0.60611 0.0
O147 O 0.25986 0.90852 0.5502 0.0
O148 O 0.21507 0.96042 0.6317 0.0
O149 O 0.21967 0.89155 0.58625 0.0
O150 O 0.27113 0.94257 0.5579 0.0
O151 O 0.1738 0.92668 0.55913 0.0
O152 O 0.21759 0.98597 0.54211 0.0
O153 O 0.23291 0.92266 0.48594 0.0
Sc154 Sc 0.9601 0.75227 0.43628 0.0
Sc155 Sc 0.90602 0.76861 0.45026 0.0
Sc156 Sc 0.93905 0.79695 0.39027 0.0
O157 O 0.93504 0.77254 0.42558 0.0
C158 C 0.98375 0.79827 0.43148 0.0
C159 C 0.93943 0.75874 0.51292 0.0
C160 C 0.90959 0.81982 0.44908 0.0
C161 C 0.92001 0.71971 0.4365 0.0
C162 C 0.96632 0.75916 0.35357 0.0
C163 C 0.89177 0.7806 0.37095 0.0
O164 O 0.983 0.77852 0.44076 0.0
O165 O 0.92068 0.7638 0.50187 0.0
O166 O 0.92235 0.82021 0.42269 0.0
O167 O 0.94015 0.72359 0.43435 0.0
O168 O 0.95636 0.77707 0.3534 0.0
O169 O 0.88771 0.7731 0.40171 0.0
O170 O 0.96836 0.74765 0.38129 0.0
O171 O 0.90595 0.73444 0.4408 0.0
O172 O 0.90986 0.7889 0.36272 0.0
O173 O 0.95506 0.7547 0.49219 0.0
O174 O 0.96878 0.8074 0.41401 0.0
O175 O 0.90283 0.80235 0.46283 0.0
Sc176 Sc 0.69905 0.55713 0.60243 0.0
Sc177 Sc 0.72908 0.59 0.54451 0.0
Sc178 Sc 0.74436 0.53571 0.55866 0.0
O179 O 0.72422 0.56096 0.56853 0.0
C180 C 0.7358 0.52908 0.64068 0.0
C181 C 0.71609 0.6038 0.62366 0.0
C182 C 0.77748 0.57534 0.56019 0.0
C183 C 0.67785 0.58761 0.54333 0.0
C184 C 0.69786 0.51276 0.56059 0.0
C185 C 0.73959 0.55673 0.48204 0.0
O186 O 0.71779 0.53884 0.63971 0.0
O187 O 0.72403 0.60793 0.59322 0.0
O188 O 0.77331 0.55523 0.56151 0.0
O189 O 0.67678 0.57495 0.5698 0.0
O190 O 0.71791 0.51315 0.55325 0.0
O191 O 0.73488 0.57558 0.49306 0.0
O192 O 0.68837 0.52795 0.57703 0.0
O193 O 0.69566 0.59372 0.52993 0.0
O194 O 0.7427 0.54084 0.50269 0.0
O195 O 0.70736 0.5858 0.63121 0.0
O196 O 0.74812 0.52751 0.61386 0.0
O197 O 0.76299 0.58963 0.5559 0.0
Sc198 Sc 0.55661 0.2977 0.39619 0.0
Sc199 Sc 0.59025 0.26849 0.45383 0.0
Sc200 Sc 0.53598 0.25247 0.44123 0.0
O201 O 0.56096 0.27281 0.43041 0.0
C202 C 0.51298 0.29894 0.44003 0.0
C203 C 0.58725 0.31952 0.45465 0.0
C204 C 0.5578 0.25733 0.51721 0.0
C205 C 0.6031 0.28128 0.37412 0.0
C206 C 0.52812 0.26072 0.35945 0.0
C207 C 0.57605 0.21993 0.43826 0.0
O208 O 0.52792 0.30842 0.4229 0.0
O209 O 0.5932 0.30189 0.46879 0.0
O210 O 0.5417 0.25418 0.49704 0.0
O211 O 0.58471 0.28902 0.36631 0.0
O212 O 0.52702 0.24845 0.38639 0.0
O213 O 0.59026 0.23461 0.44192 0.0
O214 O 0.53774 0.27882 0.35997 0.0
O215 O 0.60786 0.27435 0.40498 0.0
O216 O 0.55587 0.22382 0.43782 0.0
O217 O 0.57495 0.32026 0.42767 0.0
O218 O 0.51342 0.27886 0.44732 0.0
O219 O 0.57645 0.26221 0.50556 0.0
Sc220 Sc 0.25462 0.46408 0.55637 0.0
Sc221 Sc 0.27067 0.4099 0.54379 0.0
Sc222 Sc 0.29855 0.44306 0.60423 0.0
O223 O 0.27454 0.43898 0.56818 0.0
C224 C 0.30079 0.4873 0.56202 0.0
C225 C 0.26158 0.44307 0.48042 0.0
C226 C 0.32172 0.41315 0.54617 0.0
C227 C 0.22187 0.424 0.55608 0.0
C228 C 0.26026 0.47065 0.63906 0.0
C229 C 0.28218 0.39604 0.62368 0.0
O230 O 0.28099 0.48676 0.55307 0.0
O231 O 0.26544 0.42414 0.4919 0.0
O232 O 0.32191 0.42532 0.57337 0.0
O233 O 0.22591 0.44416 0.55672 0.0
O234 O 0.27837 0.46104 0.63993 0.0
O235 O 0.27562 0.39172 0.59242 0.0
O236 O 0.24899 0.47235 0.61105 0.0
O237 O 0.23652 0.40968 0.55375 0.0
O238 O 0.28963 0.4144 0.63244 0.0
O239 O 0.25829 0.45906 0.50073 0.0
O240 O 0.30984 0.4723 0.57959 0.0
O241 O 0.30439 0.40721 0.53095 0.0
Sc242 Sc 0.46248 0.74592 0.43255 0.0
Sc243 Sc 0.40832 0.72959 0.44534 0.0
Sc244 Sc 0.44228 0.69979 0.38883 0.0
O245 O 0.43768 0.72516 0.42222 0.0
C246 C 0.46979 0.73663 0.35048 0.0
C247 C 0.42269 0.77811 0.42805 0.0
C248 C 0.39509 0.71551 0.36662 0.0
C249 C 0.44021 0.74191 0.50843 0.0
C250 C 0.48631 0.70009 0.43267 0.0
C251 C 0.41229 0.6783 0.44802 0.0
O252 O 0.47222 0.74824 0.37796 0.0
O253 O 0.40863 0.76366 0.43437 0.0
O254 O 0.41298 0.70623 0.36033 0.0
O255 O 0.45589 0.7464 0.48809 0.0
O256 O 0.47216 0.69067 0.41375 0.0
O257 O 0.40476 0.69608 0.45935 0.0
O258 O 0.48493 0.71984 0.44172 0.0
O259 O 0.42213 0.73489 0.49736 0.0
O260 O 0.42585 0.67717 0.42281 0.0
O261 O 0.44281 0.77433 0.42605 0.0
O262 O 0.4592 0.71906 0.35057 0.0
O263 O 0.39095 0.72468 0.39608 0.0
Sc264 Sc 0.25546 0.53559 0.05548 0.0
Sc265 Sc 0.27057 0.5902 0.04406 0.0
Sc266 Sc 0.29956 0.55692 0.10287 0.0
O267 O 0.27514 0.56093 0.06751 0.0
C268 C 0.26146 0.52933 0.13835 0.0
C269 C 0.22211 0.575 0.05619 0.0
C270 C 0.28269 0.60383 0.12357 0.0
C271 C 0.2621 0.5573 0.97997 0.0
C272 C 0.30162 0.51251 0.06095 0.0
C273 C 0.3219 0.58728 0.04473 0.0
O274 O 0.25029 0.52714 0.11025 0.0
O275 O 0.23651 0.58957 0.0541 0.0
O276 O 0.29147 0.58587 0.13103 0.0
O277 O 0.25895 0.5411 -8e-05 0.0
O278 O 0.31054 0.52746 0.07878 0.0
O279 O 0.30426 0.59404 0.0315 0.0
O280 O 0.28191 0.5131 0.0516 0.0
O281 O 0.26576 0.57621 0.99181 0.0
O282 O 0.32259 0.57413 0.07063 0.0
O283 O 0.22636 0.55491 0.05606 0.0
O284 O 0.27938 0.53934 0.13919 0.0
O285 O 0.27474 0.60794 0.09316 0.0
Sc286 Sc 0.55966 0.69627 0.89628 0.0
Sc287 Sc 0.59273 0.72961 0.94877 0.0
Sc288 Sc 0.53826 0.74386 0.93279 0.0
O289 O 0.56359 0.72332 0.92592 0.0
C290 C 0.53202 0.73087 0.85232 0.0
C291 C 0.60616 0.71281 0.8717 0.0
C292 C 0.57749 0.77717 0.92784 0.0
C293 C 0.59048 0.67847 0.95747 0.0
C294 C 0.51519 0.6975 0.9377 0.0
C295 C 0.55935 0.74229 0.00992 0.0
O296 O 0.54163 0.71292 0.85618 0.0
O297 O 0.61021 0.72313 0.90017 0.0
O298 O 0.55749 0.77267 0.9262 0.0
O299 O 0.57692 0.67595 0.93258 0.0
O300 O 0.51551 0.7179 0.94166 0.0
O301 O 0.57813 0.73678 -0.00043 0.0
O302 O 0.53051 0.68718 0.92312 0.0
O303 O 0.59751 0.6969 0.96669 0.0
O304 O 0.54356 0.74498 0.98881 0.0
O305 O 0.58852 0.70273 0.86658 0.0
O306 O 0.53039 0.74468 0.87713 0.0
O307 O 0.59188 0.76311 0.93437 0.0
Sc308 Sc 0.70366 0.4424 0.10558 0.0
Sc309 Sc 0.7321 0.40962 0.04619 0.0
Sc310 Sc 0.74827 0.46349 0.06016 0.0
O311 O 0.72805 0.43848 0.07062 0.0
C312 C 0.70217 0.48699 0.06563 0.0
C313 C 0.68132 0.41253 0.0464 0.0
C314 C 0.74232 0.44349 0.98387 0.0
C315 C 0.71933 0.39556 0.12545 0.0
C316 C 0.7419 0.46953 0.1421 0.0
C317 C 0.7805 0.42313 0.05978 0.0
O318 O 0.69232 0.47108 0.07951 0.0
O319 O 0.69873 0.40766 0.03045 0.0
O320 O 0.744 0.45969 0.00434 0.0
O321 O 0.71294 0.41421 0.13475 0.0
O322 O 0.75438 0.46988 0.11536 0.0
O323 O 0.76579 0.40881 0.05964 0.0
O324 O 0.72309 0.46131 0.14119 0.0
O325 O 0.72527 0.39117 0.09391 0.0
O326 O 0.77666 0.44326 0.05793 0.0
O327 O 0.68098 0.42378 0.07463 0.0
O328 O 0.72239 0.48687 0.05962 0.0
O329 O 0.73928 0.42435 0.99524 0.0
Sc330 Sc 0.46514 0.25315 0.94198 0.0
Sc331 Sc 0.41104 0.26971 0.95437 0.0
Sc332 Sc 0.44511 0.29874 0.89716 0.0
O333 O 0.44042 0.2738 0.93119 0.0
C334 C 0.48886 0.29928 0.941 0.0
C335 C 0.44318 0.2577 0.01786 0.0
C336 C 0.41481 0.3207 0.95587 0.0
C337 C 0.42465 0.22109 0.93813 0.0
C338 C 0.47295 0.26148 0.86016 0.0
C339 C 0.3983 0.28312 0.87486 0.0
O340 O 0.48806 0.27925 0.94855 0.0
O341 O 0.42466 0.26298 0.00611 0.0
O342 O 0.42724 0.32142 0.92906 0.0
O343 O 0.44488 0.22475 0.93792 0.0
O344 O 0.46344 0.27962 0.86061 0.0
O345 O 0.39349 0.27598 0.90555 0.0
O346 O 0.47416 0.2493 0.88719 0.0
O347 O 0.41062 0.23589 0.94198 0.0
O348 O 0.41678 0.29073 0.86725 0.0
O349 O 0.45931 0.25451 -0.00222 0.0
O350 O 0.4741 0.30891 0.92369 0.0
O351 O 0.4085 0.30307 0.96965 0.0
H352 H 0.20938 0.14655 0.10627 0.0
H353 H 0.19779 0.17321 0.15021 0.0
H354 H 0.21049 0.12759 0.23418 0.0
H355 H 0.22132 0.10068 0.19034 0.0
H356 H 0.16953 0.1398 0.233 0.0
H357 H 0.22097 0.21292 0.22679 0.0
H358 H 0.21126 0.2045 0.18409 0.0
H359 H 0.22929 0.18727 0.20852 0.0
C360 C 0.21042 0.1425 0.13419 0.0
C361 C 0.21597 0.12149 0.14494 0.0
C362 C 0.2039 0.1578 0.15932 0.0
C363 C 0.20331 0.15242 0.19552 0.0
C364 C 0.2108 0.13208 0.20639 0.0
H365 H 0.14643 0.21824 0.37612 0.0
H366 H 0.17316 0.20546 0.33313 0.0
C367 C 0.21693 0.11671 0.18133 0.0
C368 C 0.19121 0.16605 0.221 0.0
H369 H 0.18632 0.21699 0.25507 0.0
C370 C 0.17344 0.1566 0.23811 0.0
C371 C 0.19622 0.18799 0.22757 0.0
C372 C 0.2156 0.19873 0.21103 0.0
C373 C 0.16034 0.16848 0.26109 0.0
C374 C 0.16481 0.19059 0.26663 0.0
C375 C 0.18283 0.20008 0.2503 0.0
C376 C 0.15057 0.20367 0.28948 0.0
C377 C 0.14167 0.15729 0.27919 0.0
C378 C 0.12934 0.20783 0.27857 0.0
C379 C 0.114 0.2149 0.30303 0.0
C380 C 0.1197 0.21804 0.3388 0.0
C381 C 0.1415 0.21591 0.3488 0.0
C382 C 0.15683 0.20866 0.32428 0.0
H383 H 0.14307 0.13942 0.27776 0.0
H384 H 0.14065 0.16211 0.30753 0.0
H385 H 0.12637 0.16206 0.26604 0.0
H386 H 0.12429 0.20412 0.25171 0.0
H387 H 0.09742 0.21667 0.29435 0.0
H388 H 0.09739 0.7749 0.80278 0.0
H389 H 0.12293 0.7846 0.75605 0.0
H390 H 0.16904 0.80465 0.83544 0.0
H391 H 0.14387 0.7939 0.88224 0.0
H392 H 0.13255 0.82483 0.74793 0.0
H393 H 0.2095 0.78064 0.76282 0.0
H394 H 0.18493 0.77197 0.78437 0.0
H395 H 0.20137 0.79287 0.8038 0.0
C396 C 0.1133 0.78064 0.81019 0.0
C397 C 0.11867 0.78379 0.846 0.0
C398 C 0.12789 0.78616 0.78351 0.0
C399 C 0.14796 0.79536 0.79212 0.0
C400 C 0.15391 0.79714 0.82802 0.0
H401 H 0.20464 0.90157 0.68683 0.0
H402 H 0.19295 0.87424 0.72934 0.0
C403 C 0.13945 0.79113 0.8548 0.0
C404 C 0.16056 0.80665 0.76421 0.0
H405 H 0.21132 0.81473 0.73102 0.0
C406 C 0.14969 0.82222 0.74385 0.0
C407 C 0.18295 0.8034 0.75882 0.0
C408 C 0.1953 0.78614 0.77839 0.0
C409 C 0.16062 0.83508 0.71925 0.0
C410 C 0.18316 0.83268 0.71532 0.0
C411 C 0.19405 0.81664 0.73453 0.0
C412 C 0.19533 0.84767 0.69236 0.0
C413 C 0.14805 0.85156 0.69814 0.0
C414 C 0.20148 0.8415 0.65803 0.0
C415 C 0.20825 0.85711 0.63355 0.0
C416 C 0.2087 0.87907 0.64316 0.0
C417 C 0.20418 0.88483 0.67848 0.0
C418 C 0.19762 0.86924 0.70287 0.0
H419 H 0.1304 0.84841 0.69895 0.0
H420 H 0.15102 0.86787 0.70936 0.0
H421 H 0.15338 0.8517 0.67001 0.0
H422 H 0.19968 0.82489 0.6495 0.0
H423 H 0.21163 0.85218 0.60655 0.0
H424 H 0.89575 0.78328 0.29915 0.0
H425 H 0.86821 0.79541 0.25732 0.0
H426 H 0.82067 0.79487 0.34077 0.0
H427 H 0.84817 0.78251 0.38302 0.0
H428 H 0.80785 0.78215 0.25934 0.0
H429 H 0.84818 0.86074 0.28687 0.0
H430 H 0.86561 0.83834 0.27684 0.0
H431 H 0.84994 0.83809 0.31688 0.0
C432 C 0.8793 0.78508 0.30844 0.0
C433 C 0.87419 0.78228 0.3445 0.0
C434 C 0.86357 0.7919 0.28444 0.0
C435 C 0.84253 0.79615 0.2961 0.0
C436 C 0.83684 0.79153 0.33132 0.0
H437 H 0.77306 0.89811 0.19013 0.0
H438 H 0.78286 0.87192 0.23582 0.0
C439 C 0.85258 0.7845 0.3554 0.0
C440 C 0.82805 0.80911 0.27339 0.0
H441 H 0.82293 0.85998 0.24026 0.0
C442 C 0.81089 0.79922 0.25533 0.0
C443 C 0.83196 0.83139 0.26875 0.0
C444 C 0.84981 0.84291 0.28849 0.0
C445 C 0.79787 0.81108 0.23166 0.0
C446 C 0.80248 0.8332 0.22573 0.0
C447 C 0.81929 0.84306 0.24479 0.0
C448 C 0.79113 0.84652 0.19877 0.0
C449 C 0.77935 0.79984 0.21337 0.0
C450 C 0.79149 0.84064 0.16274 0.0
C451 C 0.78545 0.85551 0.13656 0.0
C452 C 0.77948 0.87661 0.14605 0.0
C453 C 0.77772 0.88197 0.18213 0.0
C454 C 0.78331 0.86701 0.20823 0.0
H455 H 0.77348 0.78589 0.2292 0.0
H456 H 0.76567 0.81106 0.20866 0.0
H457 H 0.78494 0.79358 0.18737 0.0
H458 H 0.79792 0.82516 0.15463 0.0
H459 H 0.78715 0.85106 0.1089 0.0
H460 H 0.80059 0.10232 0.68296 0.0
H461 H 0.808 0.13094 0.72501 0.0
H462 H 0.78052 0.1777 0.65318 0.0
H463 H 0.7735 0.14892 0.60997 0.0
H464 H 0.81889 0.19037 0.67413 0.0
H465 H 0.7748 0.16639 0.79396 0.0
H466 H 0.78957 0.1434 0.77863 0.0
H467 H 0.76868 0.1549 0.75105 0.0
C468 C 0.79572 0.11859 0.67615 0.0
C469 C 0.78661 0.1233 0.64285 0.0
C470 C 0.79972 0.13498 0.70057 0.0
C471 C 0.79445 0.15648 0.69265 0.0
C472 C 0.78452 0.1612 0.66002 0.0
H473 H 0.8532 0.22717 0.86896 0.0
H474 H 0.82461 0.22117 0.82505 0.0
C475 C 0.78053 0.14472 0.63537 0.0
C476 C 0.80225 0.17388 0.71651 0.0
H477 H 0.81056 0.18343 0.80451 0.0
C478 C 0.81653 0.18933 0.7026 0.0
C479 C 0.79872 0.17317 0.75359 0.0
C480 C 0.78187 0.1587 0.77 0.0
C481 C 0.82927 0.20216 0.72503 0.0
C482 C 0.82813 0.19897 0.76216 0.0
C483 C 0.81194 0.18552 0.77602 0.0
C484 C 0.84562 0.20624 0.78631 0.0
C485 C 0.84459 0.21823 0.70857 0.0
C486 C 0.86697 0.20011 0.77901 0.0
C487 C 0.88327 0.20356 0.80383 0.0
C488 C 0.87861 0.21294 0.83693 0.0
C489 C 0.85737 0.21989 0.84375 0.0
C490 C 0.841 0.21648 0.81869 0.0
H491 H 0.83738 0.22547 0.68432 0.0
H492 H 0.84885 0.23139 0.72733 0.0
H493 H 0.85959 0.2098 0.70039 0.0
H494 H 0.87091 0.19157 0.75478 0.0
H495 H 0.8994 0.198 0.79752 0.0
H496 H 0.64819 0.72738 0.87401 0.0
H497 H 0.67665 0.72079 0.83012 0.0
H498 H 0.63079 0.68737 0.76364 0.0
H499 H 0.60243 0.69427 0.80636 0.0
H500 H 0.69182 0.68267 0.81139 0.0
H501 H 0.66198 0.72156 0.69013 0.0
H502 H 0.65107 0.72799 0.73332 0.0
H503 H 0.64059 0.7055 0.70812 0.0
C504 C 0.64408 0.71906 0.84964 0.0
C505 C 0.62301 0.71127 0.84385 0.0
C506 C 0.66037 0.71532 0.8246 0.0
C507 C 0.6558 0.70394 0.79324 0.0
C508 C 0.63464 0.69678 0.78703 0.0
H509 H 0.70298 0.60014 0.69244 0.0
H510 H 0.69567 0.629 0.73406 0.0
C511 C 0.61843 0.70052 0.81185 0.0
C512 C 0.67325 0.69687 0.76893 0.0
H513 H 0.68175 0.68722 0.68105 0.0
C514 C 0.69005 0.68423 0.78286 0.0
C515 C 0.67155 0.69941 0.73173 0.0
C516 C 0.65544 0.7146 0.71509 0.0
C517 C 0.70344 0.67203 0.76055 0.0
C518 C 0.69948 0.67202 0.72356 0.0
C519 C 0.68449 0.68672 0.70947 0.0
C520 C 0.70762 0.65458 0.70011 0.0
C521 C 0.72098 0.65846 0.77704 0.0
C522 C 0.7167 0.65922 0.66681 0.0
C523 C 0.7206 0.64261 0.64241 0.0
C524 C 0.7153 0.6211 0.65085 0.0
C525 C 0.70723 0.61648 0.68489 0.0
C526 C 0.70328 0.63302 0.70905 0.0
H527 H 0.7281 0.66683 0.80036 0.0
H528 H 0.71393 0.64306 0.78668 0.0
H529 H 0.73405 0.65478 0.75782 0.0
H530 H 0.71999 0.67576 0.65919 0.0
H531 H 0.72684 0.64675 0.61645 0.0
H532 H 0.59803 0.27857 0.30261 0.0
H533 H 0.62424 0.28895 0.25735 0.0
H534 H 0.67229 0.29909 0.33861 0.0
H535 H 0.64631 0.28791 0.38392 0.0
H536 H 0.63822 0.32904 0.25752 0.0
H537 H 0.70935 0.275 0.25996 0.0
H538 H 0.68386 0.26768 0.27995 0.0
H539 H 0.70245 0.285 0.30318 0.0
C540 C 0.6144 0.28232 0.31069 0.0
C541 C 0.6201 0.28263 0.34677 0.0
C542 C 0.62938 0.28821 0.28481 0.0
C543 C 0.65026 0.2948 0.29451 0.0
C544 C 0.65645 0.29365 0.33034 0.0
H545 H 0.71748 0.39899 0.19751 0.0
H546 H 0.70443 0.37163 0.23893 0.0
C547 C 0.64153 0.28738 0.35627 0.0
C548 C 0.66386 0.30646 0.26836 0.0
H549 H 0.71446 0.30985 0.23244 0.0
C550 C 0.65478 0.32458 0.25171 0.0
C551 C 0.6855 0.30073 0.26082 0.0
C552 C 0.69581 0.28091 0.27666 0.0
C553 C 0.6668 0.33739 0.22843 0.0
C554 C 0.68867 0.33225 0.22208 0.0
C555 C 0.69773 0.31384 0.23782 0.0
C556 C 0.70201 0.34642 0.19946 0.0
C557 C 0.65607 0.35658 0.21107 0.0
C558 C 0.70603 0.34087 0.164 0.0
C559 C 0.71357 0.35649 0.14017 0.0
C560 C 0.71695 0.37787 0.15156 0.0
C561 C 0.71476 0.38275 0.18783 0.0
C562 C 0.70741 0.36712 0.21158 0.0
H563 H 0.63819 0.35586 0.21328 0.0
H564 H 0.66168 0.37162 0.22417 0.0
H565 H 0.66047 0.35756 0.18255 0.0
H566 H 0.70184 0.32495 0.15422 0.0
H567 H 0.7151 0.35222 0.11241 0.0
H568 H 0.35505 0.28967 0.88451 0.0
H569 H 0.32906 0.30093 0.83922 0.0
H570 H 0.37728 0.29163 0.75807 0.0
H571 H 0.40348 0.28115 0.80331 0.0
H572 H 0.36272 0.33153 0.75828 0.0
H573 H 0.2924 0.27629 0.7603 0.0
H574 H 0.29917 0.28643 0.80351 0.0
H575 H 0.31798 0.26938 0.78035 0.0
C576 C 0.35987 0.28936 0.85688 0.0
C577 C 0.38133 0.28477 0.84743 0.0
C578 C 0.34495 0.29569 0.83096 0.0
C579 C 0.35117 0.29706 0.79517 0.0
C580 C 0.37212 0.29072 0.7855 0.0
H581 H 0.28644 0.35263 0.61145 0.0
H582 H 0.29963 0.32575 0.65404 0.0
C583 C 0.38709 0.28477 0.81137 0.0
C584 C 0.33742 0.30852 0.76896 0.0
H585 H 0.28695 0.31086 0.73221 0.0
C586 C 0.34626 0.32676 0.75229 0.0
C587 C 0.3159 0.30239 0.76115 0.0
C588 C 0.30586 0.28242 0.77701 0.0
C589 C 0.33415 0.33927 0.72868 0.0
C590 C 0.31241 0.33369 0.72199 0.0
C591 C 0.30357 0.31518 0.73782 0.0
C592 C 0.29896 0.3475 0.6989 0.0
C593 C 0.34467 0.35857 0.71127 0.0
C594 C 0.29325 0.36821 0.71054 0.0
C595 C 0.28594 0.3836 0.68635 0.0
C596 C 0.28408 0.37848 0.65012 0.0
C597 C 0.28769 0.35706 0.63918 0.0
C598 C 0.2952 0.34167 0.66346 0.0
H599 H 0.36254 0.35816 0.71374 0.0
H600 H 0.34038 0.35937 0.68268 0.0
H601 H 0.33876 0.37356 0.72414 0.0
H602 H 0.29601 0.37294 0.73786 0.0
H603 H 0.28307 0.3999 0.69565 0.0
H604 H 0.29691 0.60043 0.19183 0.0
H605 H 0.30478 0.62942 0.23292 0.0
H606 H 0.27865 0.6758 0.15907 0.0
H607 H 0.2713 0.64664 0.11678 0.0
H608 H 0.31684 0.68802 0.17905 0.0
H609 H 0.27341 0.66675 0.30079 0.0
H610 H 0.28781 0.64327 0.28658 0.0
H611 H 0.26688 0.65444 0.25868 0.0
C612 C 0.29238 0.6167 0.18441 0.0
C613 C 0.28366 0.62117 0.15073 0.0
C614 C 0.29665 0.63333 0.20829 0.0
C615 C 0.29198 0.65484 0.19948 0.0
C616 C 0.28224 0.65931 0.1666 0.0
H617 H 0.3527 0.7288 0.37091 0.0
H618 H 0.32376 0.72154 0.32814 0.0
C619 C 0.27803 0.64261 0.14246 0.0
C620 C 0.30035 0.67243 0.22251 0.0
H621 H 0.30953 0.68341 0.30986 0.0
C622 C 0.3147 0.68747 0.2076 0.0
C623 C 0.29716 0.67239 0.2597 0.0
C624 C 0.28024 0.65847 0.27718 0.0
C625 C 0.32775 0.70057 0.22913 0.0
C626 C 0.32687 0.69806 0.26643 0.0
C627 C 0.3107 0.68497 0.28125 0.0
C628 C 0.34453 0.70582 0.28988 0.0
C629 C 0.34302 0.71625 0.21156 0.0
C630 C 0.36585 0.69964 0.28248 0.0
C631 C 0.38236 0.70383 0.30664 0.0
C632 C 0.37794 0.714 0.3392 0.0
C633 C 0.3567 0.72093 0.34611 0.0
C634 C 0.34012 0.71679 0.3217 0.0
H635 H 0.33569 0.72304 0.18708 0.0
H636 H 0.34746 0.72974 0.22955 0.0
H637 H 0.35793 0.70759 0.20358 0.0
H638 H 0.36963 0.69056 0.25873 0.0
H639 H 0.39846 0.69823 0.30029 0.0
H640 H 0.16224 0.99813 0.08948 0.0
H641 H 0.14192 0.96535 0.07584 0.0
H642 H 0.18947 0.94788 -0.00267 0.0
H643 H 0.2103 0.98025 0.01171 0.0
H644 H 0.1228 0.95227 0.01732 0.0
H645 H 0.18588 0.89286 0.05262 0.0
H646 H 0.18824 0.92112 0.06349 0.0
H647 H 0.19517 0.91162 0.01977 0.0
C648 C 0.16843 0.98728 0.06938 0.0
C649 C 0.18799 0.99173 0.05186 0.0
C650 C 0.15679 0.96853 0.06164 0.0
C651 C 0.16437 0.9539 0.03608 0.0
C652 C 0.18363 0.95856 0.01794 0.0
H653 H 0.08933 0.8593 0.92237 0.0
H654 H 0.10708 0.89175 0.94444 0.0
C655 C 0.19545 0.97716 0.02601 0.0
C656 C 0.1518 0.93413 0.0277 0.0
H657 H 0.15599 0.87944 0.01895 0.0
C658 C 0.13001 0.93632 0.01799 0.0
C659 C 0.16104 0.91325 0.02929 0.0
C660 C 0.18379 0.90952 0.04224 0.0
C661 C 0.11742 0.91832 0.00881 0.0
C662 C 0.12706 0.8976 0.00822 0.0
C663 C 0.14865 0.89533 0.01897 0.0
C664 C 0.11531 0.87815 0.99562 0.0
C665 C 0.09386 0.92171 0.00028 0.0
C666 C 0.11445 0.85944 0.01665 0.0
C667 C 0.10464 0.84065 0.0038 0.0
C668 C 0.09541 0.84024 0.9697 0.0
C669 C 0.09601 0.85911 0.94893 0.0
C670 C 0.10606 0.87777 0.96162 0.0
H671 H 0.08748 0.93641 0.01352 0.0
H672 H 0.09197 0.92397 0.97123 0.0
H673 H 0.08392 0.90766 0.00857 0.0
H674 H 0.12157 0.85931 0.04292 0.0
H675 H 0.10446 0.8264 0.02048 0.0
H676 H 0.82632 0.89352 0.97631 0.0
H677 H 0.86008 0.8769 0.95668 0.0
H678 H 0.88985 0.89343 0.0566 0.0
H679 H 0.85651 0.91082 0.0758 0.0
H680 H 0.91734 0.89946 0.0041 0.0
H681 H 0.87983 0.81869 0.98922 0.0
H682 H 0.86736 0.83873 0.96169 0.0
H683 H 0.86582 0.84108 0.00925 0.0
C684 C 0.84012 0.89375 0.99397 0.0
C685 C 0.83869 0.90333 0.02772 0.0
C686 C 0.85935 0.88411 0.98283 0.0
C687 C 0.87732 0.88339 0.00555 0.0
C688 C 0.87616 0.89365 0.0387 0.0
H689 H 0.98188 0.79124 0.98858 0.0
H690 H 0.95014 0.81218 0.00579 0.0
C691 C 0.85708 0.90361 0.04963 0.0
C692 C 0.89721 0.87161 0.99528 0.0
H693 H 0.91587 0.82232 0.96894 0.0
C694 C 0.91704 0.88258 -0.00352 0.0
C695 C 0.89685 0.84945 0.98602 0.0
C696 C 0.87636 0.83623 0.98681 0.0
C697 C 0.93651 0.87206 0.98851 0.0
C698 C 0.93604 0.85014 0.97787 0.0
C699 C 0.91621 0.83917 0.9768 0.0
C700 C 0.95589 0.83806 0.96831 0.0
C701 C 0.95738 0.8844 0.99264 0.0
C702 C 0.96969 0.8456 0.94148 0.0
C703 C 0.98805 0.83384 0.93203 0.0
C704 C 0.99267 0.81404 0.94862 0.0
C705 C 0.97873 0.80641 0.97523 0.0
C706 C 0.96058 0.81836 0.98508 0.0
H707 H 0.95556 0.8982 0.01125 0.0
H708 H 0.97054 0.87382 0.00252 0.0
H709 H 0.96225 0.89104 0.96649 0.0
H710 H 0.96609 0.8604 0.9274 0.0
H711 H 0.99833 0.84001 0.9111 0.0
H712 H 0.91006 0.13573 0.91531 0.0
H713 H 0.89122 0.1034 0.93552 0.0
H714 H 0.87071 0.137 0.02993 0.0
H715 H 0.88886 0.16975 0.00922 0.0
H716 H 0.8948 0.07802 0.99145 0.0
H717 H 0.81384 0.11604 0.99279 0.0
H718 H 0.83712 0.12921 0.97395 0.0
H719 H 0.83275 0.12955 0.02118 0.0
C720 C 0.90165 0.13625 0.94049 0.0
C721 C 0.90077 0.15541 0.96048 0.0
C722 C 0.89086 0.11773 0.95199 0.0
C723 C 0.87911 0.1179 0.98383 0.0
C724 C 0.87909 0.13668 0.00473 0.0
H725 H 0.8319 0.00089 0.08629 0.0
H726 H 0.85243 0.03287 0.06911 0.0
C727 C 0.88962 0.15534 0.99299 0.0
C728 C 0.86676 0.09845 0.99476 0.0
H729 H 0.81635 0.08083 0.01727 0.0
C730 C 0.87763 0.07862 -0.00298 0.0
C731 C 0.84426 0.09916 0.00135 0.0
C732 C 0.83125 0.11958 -0.00315 0.0
C733 C 0.86669 0.05951 0.00591 0.0
C734 C 0.84438 0.06038 0.01394 0.0
C735 C 0.83349 0.08019 0.01145 0.0
C736 C 0.83191 0.04093 0.02451 0.0
C737 C 0.87909 0.03853 0.00558 0.0
C738 C 0.81306 0.03521 0.00599 0.0
C739 C 0.801 0.01717 0.01624 0.0
C740 C 0.80766 0.0044 0.04507 0.0
C741 C 0.8265 0.0102 0.06364 0.0
C742 C 0.83835 0.02843 0.05371 0.0
H743 H 0.89364 0.0396 0.98845 0.0
H744 H 0.88459 0.03478 0.03292 0.0
H745 H 0.86889 0.02498 0.99602 0.0
H746 H 0.80772 0.04467 0.98346 0.0
H747 H 0.78659 0.01312 0.00136 0.0
H748 H 0.99952 0.1569 0.90625 0.0
H749 H 0.03142 0.13651 0.92421 0.0
H750 H 0.04509 0.18391 0.00508 0.0
H751 H 0.01363 0.20483 0.98641 0.0
H752 H 0.08032 0.1744 0.96919 0.0
H753 H 0.0403 0.09806 0.00831 0.0
H754 H 0.03423 0.10562 0.96348 0.0
H755 H 0.02538 0.12248 -0.00043 0.0
C756 C 0.0092 0.16289 0.92808 0.0
C757 C 0.00402 0.18247 0.94496 0.0
C758 C 0.02737 0.15113 0.93847 0.0
C759 C 0.04043 0.15845 0.96644 0.0
C760 C 0.03519 0.17791 0.98351 0.0
H761 H 0.13934 0.0859 0.07599 0.0
H762 H 0.106 0.1032 0.05651 0.0
C763 C 0.01721 0.18985 0.97281 0.0
C764 C 0.06015 0.14644 0.9768 0.0
H765 H 0.07865 0.09699 0.00278 0.0
C766 C 0.07994 0.15749 0.97671 0.0
C767 C 0.05959 0.12445 0.98701 0.0
C768 C 0.0387 0.11202 0.98998 0.0
C769 C 0.09921 0.14718 0.98632 0.0
C770 C 0.09879 0.12496 0.9951 0.0
C771 C 0.07898 0.11393 0.9955 0.0
C772 C 0.11861 0.11314 0.0055 0.0
C773 C 0.11968 0.16039 0.98792 0.0
C774 C 0.13658 0.11239 0.98284 0.0
C775 C 0.15579 0.10274 0.99408 0.0
C776 C 0.15722 0.09327 0.02792 0.0
C777 C 0.13881 0.09303 0.04977 0.0
C778 C 0.11972 0.10294 0.03869 0.0
H779 H 0.1162 0.17792 0.99042 0.0
H780 H 0.12996 0.15542 0.01065 0.0
H781 H 0.12898 0.15797 0.96308 0.0
H782 H 0.13587 0.11959 0.95668 0.0
H783 H 0.16959 0.10295 0.97644 0.0
H784 H 0.84464 0.0077 0.55757 0.0
H785 H 0.86482 0.97558 0.54005 0.0
H786 H 0.80589 0.94545 0.50444 0.0
H787 H 0.78552 0.97759 0.5214 0.0
H788 H 0.85993 0.93354 0.56443 0.0
H789 H 0.84614 0.93843 0.41915 0.0
H790 H 0.84092 0.96078 0.44867 0.0
H791 H 0.82178 0.93905 0.44496 0.0
C792 C 0.83592 0.99432 0.54582 0.0
C793 C 0.81341 0.9953 0.54081 0.0
C794 C 0.84751 0.97596 0.53588 0.0
C795 C 0.83689 0.95827 0.52057 0.0
C796 C 0.81445 0.95911 0.51559 0.0
H797 H 0.87949 0.8261 0.50141 0.0
H798 H 0.86337 0.8602 0.52011 0.0
C799 C 0.80283 0.97748 0.52548 0.0
C800 C 0.8492 0.9387 0.51072 0.0
H801 H 0.86144 0.90579 0.44097 0.0
C802 C 0.86038 0.92752 0.53741 0.0
C803 C 0.84999 0.93107 0.47537 0.0
C804 C 0.83925 0.94305 0.44529 0.0
C805 C 0.87192 0.90858 0.52984 0.0
C806 C 0.87198 0.90049 0.49475 0.0
C807 C 0.86123 0.91195 0.46792 0.0
C808 C 0.88283 0.88 0.48524 0.0
C809 C 0.88411 0.89754 0.55938 0.0
C810 C 0.89902 0.8798 0.45923 0.0
C811 C 0.90819 0.86032 0.44827 0.0
C812 C 0.90125 0.84061 0.46298 0.0
C813 C 0.88532 0.84094 0.4896 0.0
C814 C 0.87614 0.86045 0.50049 0.0
H815 H 0.88745 0.90875 0.58173 0.0
H816 H 0.87424 0.88398 0.56978 0.0
H817 H 0.89966 0.89086 0.54968 0.0
H818 H 0.90435 0.89473 0.44707 0.0
H819 H 0.92041 0.86072 0.42773 0.0
H820 H 0.86328 0.07965 0.55026 0.0
H821 H 0.89608 0.09797 0.5308 0.0
H822 H 0.85849 0.13888 0.46193 0.0
H823 H 0.82544 0.12061 0.48104 0.0
H824 H 0.8985 0.12241 0.43193 0.0
H825 H 0.90897 0.1609 0.56411 0.0
H826 H 0.90585 0.13205 0.56481 0.0
H827 H 0.88386 0.14872 0.55018 0.0
C828 C 0.86192 0.09238 0.53068 0.0
C829 C 0.84163 0.09882 0.51754 0.0
C830 C 0.88071 0.10287 0.51972 0.0
C831 C 0.87959 0.11999 0.49549 0.0
C832 C 0.8596 0.12576 0.48088 0.0
H833 H 0.9758 0.21901 0.45827 0.0
H834 H 0.94307 0.19872 0.4724 0.0
C835 C 0.84074 0.1153 0.49185 0.0
C836 C 0.8992 0.13245 0.48659 0.0
H837 H 0.93729 0.1657 0.52269 0.0
C838 C 0.90701 0.13191 0.45169 0.0
C839 C 0.91 0.14504 0.51241 0.0
C840 C 0.9017 0.14694 0.54993 0.0
C841 C 0.92566 0.14336 0.44203 0.0
C842 C 0.93683 0.15543 0.46812 0.0
C843 C 0.92878 0.15627 0.50287 0.0
C844 C 0.95678 0.16754 0.45984 0.0
C845 C 0.9331 0.14273 0.40392 0.0
C846 C 0.97542 0.15663 0.4488 0.0
C847 C 0.99419 0.16815 0.44074 0.0
C848 C 0.99466 0.1908 0.44373 0.0
C849 C 0.97603 0.2016 0.45557 0.0
C850 C 0.95729 0.19005 0.46363 0.0
H851 H 0.92007 0.1372 0.38579 0.0
H852 H 0.93873 0.15889 0.39511 0.0
H853 H 0.94681 0.1313 0.40151 0.0
H854 H 0.97547 0.1392 0.44644 0.0
H855 H 0.00824 0.15927 0.43189 0.0
H856 H 0.10828 0.17556 0.51278 0.0
H857 H 0.12575 0.14216 0.5325 0.0
H858 H 0.11126 0.11248 0.43168 0.0
H859 H 0.09321 0.1453 0.41232 0.0
H860 H 0.10334 0.08535 0.48409 0.0
H861 H 0.18455 0.12136 0.50326 0.0
H862 H 0.16396 0.13398 0.5295 0.0
H863 H 0.16284 0.13572 0.48187 0.0
C864 C 0.10877 0.16188 0.49489 0.0
C865 C 0.09939 0.16314 0.46095 0.0
C866 C 0.11891 0.14286 0.50609 0.0
C867 C 0.1202 0.12495 0.48329 0.0
C868 C 0.11052 0.12609 0.4497 0.0
H869 H 0.2089 0.01718 0.49929 0.0
H870 H 0.18946 0.0501 0.48302 0.0
C871 C 0.10018 0.14492 0.43869 0.0
C872 C 0.13148 0.10487 0.49412 0.0
H873 H 0.18013 0.08497 0.52134 0.0
C874 C 0.12014 0.08527 0.49222 0.0
C875 C 0.15351 0.10473 0.50414 0.0
C876 C 0.16701 0.12503 0.5045 0.0
C877 C 0.13018 0.06553 0.5 0.0
C878 C 0.15201 0.06546 0.51115 0.0
C879 C 0.16336 0.08506 0.51305 0.0
C880 C 0.16346 0.04523 0.52057 0.0
C881 C 0.11745 0.04495 0.49512 0.0
C882 C 0.15539 0.0316 0.54719 0.0
C883 C 0.16626 0.01263 0.55614 0.0
C884 C 0.18572 0.00712 0.53917 0.0
C885 C 0.19395 0.02094 0.51283 0.0
C886 C 0.18288 0.03978 0.50356 0.0
H887 H 0.10376 0.04724 0.47642 0.0
H888 H 0.12782 0.03171 0.48497 0.0
H889 H 0.11062 0.03991 0.52105 0.0
H890 H 0.14078 0.03576 0.56141 0.0
H891 H 0.15964 0.00253 0.57692 0.0
H892 H 0.16907 0.89291 0.46976 0.0
H893 H 0.13603 0.87589 0.44774 0.0
H894 H 0.10227 0.8962 0.54213 0.0
H895 H 0.13488 0.91392 0.5636 0.0
H896 H 0.11504 0.84334 0.47529 0.0
H897 H 0.05898 0.91254 0.46885 0.0
H898 H 0.08767 0.91601 0.47479 0.0
H899 H 0.07057 0.91004 0.51222 0.0
C900 C 0.15449 0.89408 0.48552 0.0
C901 C 0.15459 0.90486 0.51836 0.0
C902 C 0.13563 0.88431 0.47292 0.0
C903 C 0.11655 0.88501 0.49301 0.0
C904 C 0.11657 0.89597 0.52562 0.0
H905 H 0.01357 0.79034 0.48353 0.0
H906 H 0.04579 0.81153 0.49756 0.0
C907 C 0.13531 0.90601 0.53797 0.0
C908 C 0.09711 0.87292 0.48126 0.0
H909 H 0.04267 0.87732 0.46937 0.0
C910 C 0.09925 0.85084 0.47359 0.0
C911 C 0.07655 0.88273 0.47854 0.0
C912 C 0.07334 0.90668 0.48366 0.0
C913 C 0.08135 0.83819 0.46417 0.0
C914 C 0.06059 0.84771 0.46364 0.0
C915 C 0.05853 0.86992 0.47036 0.0
C916 C 0.04082 0.83503 0.45577 0.0
C917 C 0.085 0.81484 0.45436 0.0
C918 C 0.02681 0.84167 0.42862 0.0
C919 C 0.00813 0.82988 0.4211 0.0
C920 C 0.00317 0.81109 0.44042 0.0
C921 C 0.01709 0.80458 0.46788 0.0
C922 C 0.0356 0.81659 0.47575 0.0
H923 H 0.1018 0.81208 0.44509 0.0
H924 H 0.08237 0.80458 0.47811 0.0
H925 H 0.07371 0.80954 0.43318 0.0
H926 H 0.03043 0.85589 0.41296 0.0
H927 H 0.99778 0.83531 0.39971 0.0
H928 H 0.65925 0.49945 0.58808 0.0
H929 H 0.6392 0.46662 0.57367 0.0
H930 H 0.68708 0.45005 0.49516 0.0
H931 H 0.70765 0.48245 0.51034 0.0
H932 H 0.62035 0.45301 0.51508 0.0
H933 H 0.68476 0.39517 0.55102 0.0
H934 H 0.68643 0.4235 0.56172 0.0
H935 H 0.69366 0.41407 0.51809 0.0
C936 C 0.66553 0.48882 0.56775 0.0
C937 C 0.68515 0.49345 0.55057 0.0
C938 C 0.65405 0.47004 0.55957 0.0
C939 C 0.66187 0.45561 0.5339 0.0
C940 C 0.68108 0.46058 0.51586 0.0
H941 H 0.58903 0.35866 0.4215 0.0
H942 H 0.60584 0.39175 0.44305 0.0
C943 C 0.69274 0.47918 0.52439 0.0
C944 C 0.64975 0.43556 0.52563 0.0
H945 H 0.65523 0.38098 0.51747 0.0
C946 C 0.62792 0.43723 0.5159 0.0
C947 C 0.65947 0.41492 0.52746 0.0
C948 C 0.68229 0.41175 0.54052 0.0
C949 C 0.61575 0.4189 0.50694 0.0
C950 C 0.62588 0.39842 0.50659 0.0
C951 C 0.64751 0.39669 0.51732 0.0
C952 C 0.6146 0.37863 0.49434 0.0
C953 C 0.5921 0.4217 0.49843 0.0
C954 C 0.61436 0.36 0.51561 0.0
C955 C 0.60514 0.34087 0.50304 0.0
C956 C 0.59585 0.34004 0.46901 0.0
C957 C 0.59579 0.35882 0.44802 0.0
C958 C 0.60528 0.37783 0.4604 0.0
H959 H 0.58539 0.4363 0.51152 0.0
H960 H 0.59015 0.4238 0.46936 0.0
H961 H 0.58251 0.40746 0.50689 0.0
H962 H 0.62153 0.36021 0.54184 0.0
H963 H 0.60542 0.3267 0.51988 0.0
H964 H 0.33025 0.39497 0.48145 0.0
H965 H 0.36361 0.37733 0.4625 0.0
H966 H 0.39305 0.39266 0.56318 0.0
H967 H 0.36008 0.41098 0.58184 0.0
H968 H 0.42106 0.3982 0.51052 0.0
H969 H 0.38152 0.31841 0.49567 0.0
H970 H 0.36949 0.33878 0.46823 0.0
H971 H 0.36812 0.34116 0.5158 0.0
C972 C 0.34388 0.39472 0.49946 0.0
C973 C 0.34244 0.40422 0.53327 0.0
C974 C 0.36288 0.38449 0.48869 0.0
C975 C 0.38062 0.38316 0.51179 0.0
C976 C 0.37951 0.39335 0.545 0.0
H977 H 0.48373 0.28906 0.49193 0.0
H978 H 0.45243 0.31026 0.51047 0.0
C979 C 0.36064 0.40385 0.55561 0.0
C980 C 0.40023 0.37085 0.50173 0.0
H981 H 0.41757 0.3212 0.4748 0.0
C982 C 0.42032 0.38134 0.5028 0.0
C983 C 0.3993 0.34873 0.49238 0.0
C984 C 0.37849 0.33604 0.49329 0.0
C985 C 0.43948 0.3704 0.49436 0.0
C986 C 0.43843 0.34854 0.48347 0.0
C987 C 0.41836 0.33801 0.48279 0.0
C988 C 0.4579 0.33617 0.47293 0.0
C989 C 0.46066 0.38225 0.4981 0.0
C990 C 0.47133 0.34359 0.44552 0.0
C991 C 0.4894 0.33166 0.43522 0.0
C992 C 0.49413 0.31181 0.45159 0.0
C993 C 0.4805 0.30426 0.47872 0.0
C994 C 0.46261 0.31637 0.48936 0.0
H995 H 0.45932 0.39599 0.51694 0.0
H996 H 0.47367 0.37132 0.50748 0.0
H997 H 0.46542 0.38891 0.47191 0.0
H998 H 0.46768 0.35848 0.43171 0.0
H999 H 0.49941 0.33779 0.41392 0.0
H1000 H 0.29285 0.51534 0.50775 0.0
H1001 H 0.31413 0.54681 0.49042 0.0
H1002 H 0.35876 0.53427 0.57593 0.0
H1003 H 0.338 0.50222 0.59254 0.0
H1004 H 0.32229 0.58246 0.52538 0.0
H1005 H 0.40006 0.54222 0.49553 0.0
H1006 H 0.37544 0.5273 0.50278 0.0
H1007 H 0.39089 0.53717 0.53989 0.0
C1008 C 0.30727 0.5192 0.52274 0.0
C1009 C 0.3138 0.50625 0.55143 0.0
C1010 C 0.31943 0.53719 0.5128 0.0
C1011 C 0.33824 0.54274 0.53151 0.0
C1012 C 0.34466 0.52998 0.56044 0.0
H1013 H 0.39267 0.67254 0.51238 0.0
H1014 H 0.37609 0.63949 0.53522 0.0
C1015 C 0.3327 0.51175 0.57006 0.0
C1016 C 0.35055 0.56236 0.5214 0.0
H1017 H 0.40048 0.5806 0.49735 0.0
C1018 C 0.33938 0.58203 0.51916 0.0
C1019 C 0.3728 0.56176 0.5129 0.0
C1020 C 0.38545 0.54095 0.51253 0.0
C1021 C 0.34976 0.60108 0.50849 0.0
C1022 C 0.37217 0.60063 0.50114 0.0
C1023 C 0.38337 0.58098 0.50346 0.0
C1024 C 0.38401 0.62014 0.48918 0.0
C1025 C 0.33639 0.62128 0.50404 0.0
C1026 C 0.39503 0.61993 0.45665 0.0
C1027 C 0.40495 0.63864 0.44392 0.0
C1028 C 0.40385 0.658 0.46334 0.0
C1029 C 0.39352 0.65796 0.49656 0.0
C1030 C 0.38391 0.63913 0.50954 0.0
H1031 H 0.31896 0.61747 0.50083 0.0
H1032 H 0.33815 0.63152 0.52802 0.0
H1033 H 0.34175 0.63075 0.48063 0.0
H1034 H 0.39543 0.60543 0.44058 0.0
H1035 H 0.41277 0.63812 0.41823 0.0
H1036 H 0.50191 0.66283 0.40366 0.0
H1037 H 0.53404 0.64272 0.42124 0.0
H1038 H 0.5459 0.68848 0.50536 0.0
H1039 H 0.51417 0.70917 0.48709 0.0
H1040 H 0.58196 0.67982 0.47085 0.0
H1041 H 0.54151 0.60258 0.50341 0.0
H1042 H 0.53624 0.61106 0.45875 0.0
H1043 H 0.52667 0.62712 0.49533 0.0
C1044 C 0.51126 0.66855 0.42608 0.0
C1045 C 0.50543 0.68756 0.44409 0.0
C1046 C 0.52957 0.65694 0.43623 0.0
C1047 C 0.54214 0.66382 0.46509 0.0
C1048 C 0.53637 0.68281 0.4831 0.0
H1049 H 0.63832 0.58824 0.57532 0.0
H1050 H 0.60573 0.60652 0.55504 0.0
C1051 C 0.51824 0.69462 0.47264 0.0
C1052 C 0.56175 0.65167 0.47572 0.0
H1053 H 0.57991 0.60172 0.49968 0.0
C1054 C 0.58149 0.66276 0.47732 0.0
C1055 C 0.56109 0.62946 0.48459 0.0
C1056 C 0.5402 0.61691 0.48581 0.0
C1057 C 0.60062 0.65228 0.48735 0.0
C1058 C 0.60011 0.62988 0.49481 0.0
C1059 C 0.58034 0.61881 0.49344 0.0
C1060 C 0.61971 0.61785 0.5058 0.0
C1061 C 0.621 0.66549 0.49083 0.0
C1062 C 0.63828 0.61762 0.48444 0.0
C1063 C 0.6571 0.6074 0.49619 0.0
C1064 C 0.65753 0.59682 0.52921 0.0
C1065 C 0.63857 0.59621 0.54974 0.0
C1066 C 0.6199 0.60668 0.5382 0.0
H1067 H 0.6174 0.68295 0.49417 0.0
H1068 H 0.63084 0.66006 0.51378 0.0
H1069 H 0.63079 0.66365 0.46637 0.0
H1070 H 0.63832 0.62557 0.45884 0.0
H1071 H 0.67135 0.60795 0.47956 0.0
H1072 H 0.39579 0.32779 0.02046 0.0
H1073 H 0.37874 0.36105 0.04134 0.0
H1074 H 0.39636 0.39292 0.94376 0.0
H1075 H 0.4141 0.36006 0.92325 0.0
H1076 H 0.40172 0.41925 -0.00111 0.0
H1077 H 0.32081 0.38114 0.00677 0.0
H1078 H 0.34053 0.3681 0.03427 0.0
H1079 H 0.34362 0.3678 0.98677 0.0
C1080 C 0.39617 0.34193 0.00356 0.0
C1081 C 0.40613 0.34121 0.97005 0.0
C1082 C 0.38629 0.36088 0.01544 0.0
C1083 C 0.38579 0.3793 0.99372 0.0
C1084 C 0.39644 0.37886 0.96088 0.0
H1085 H 0.29352 0.48349 0.008 0.0
H1086 H 0.31492 0.45189 0.99175 0.0
C1087 C 0.40658 0.36004 0.9492 0.0
C1088 C 0.37374 0.39889 0.00463 0.0
H1089 H 0.32377 0.41685 0.02864 0.0
C1090 C 0.38467 0.41875 0.00538 0.0
C1091 C 0.3514 0.39826 0.01246 0.0
C1092 C 0.33833 0.37773 0.0097 0.0
C1093 C 0.37389 0.43801 0.0138 0.0
C1094 C 0.35171 0.43726 0.02279 0.0
C1095 C 0.34081 0.41739 0.02203 0.0
C1096 C 0.33927 0.4569 0.03218 0.0
C1097 C 0.38624 0.459 0.01186 0.0
C1098 C 0.34578 0.47019 0.06041 0.0
C1099 C 0.33374 0.48846 0.06942 0.0
C1100 C 0.31469 0.49349 0.05087 0.0
C1101 C 0.30807 0.48001 0.02289 0.0
C1102 C 0.32029 0.46195 0.01357 0.0
H1103 H 0.40071 0.45756 0.99461 0.0
H1104 H 0.37594 0.47226 0.00155 0.0
H1105 H 0.39184 0.46347 0.03885 0.0
H1106 H 0.36001 0.4663 0.07581 0.0
H1107 H 0.33913 0.49838 0.09138 0.0
H1108 H 0.32751 0.61732 0.99207 0.0
H1109 H 0.36125 0.6341 0.97308 0.0
H1110 H 0.39668 0.59432 0.04671 0.0
H1111 H 0.36303 0.57756 0.0663 0.0
H1112 H 0.40674 0.63794 0.05168 0.0
H1113 H 0.41021 0.60999 0.91191 0.0
H1114 H 0.38516 0.62269 0.92371 0.0
H1115 H 0.39275 0.5977 0.94455 0.0
C1116 C 0.34247 0.6119 0.00397 0.0
C1117 C 0.3425 0.59607 0.03079 0.0
C1118 C 0.36177 0.62147 0.99293 0.0
C1119 C 0.38146 0.61529 0.00825 0.0
C1120 C 0.38163 0.59925 0.0345 0.0
H1121 H 0.50869 0.65378 0.93514 0.0
H1122 H 0.47671 0.6337 0.95369 0.0
C1123 C 0.36236 0.58967 0.0456 0.0
C1124 C 0.40172 0.62645 -0.00164 0.0
H1125 H 0.43472 0.63792 0.92835 0.0
C1126 C 0.41295 0.63784 0.02477 0.0
C1127 C 0.40985 0.62611 0.96332 0.0
C1128 C 0.399 0.61331 0.93427 0.0
C1129 C 0.43191 0.64928 0.01691 0.0
C1130 C 0.43962 0.64957 0.98161 0.0
C1131 C 0.42863 0.63782 0.95534 0.0
C1132 C 0.45914 0.66187 0.97135 0.0
C1133 C 0.44365 0.66074 0.04654 0.0
C1134 C 0.45979 0.6844 0.97501 0.0
C1135 C 0.47808 0.69599 0.96451 0.0
C1136 C 0.496 0.68524 0.94989 0.0
C1137 C 0.49523 0.66263 0.94629 0.0
C1138 C 0.47695 0.65108 0.95683 0.0
H1139 H 0.43895 0.65437 0.07299 0.0
H1140 H 0.46141 0.65915 0.0435 0.0
H1141 H 0.43956 0.67817 0.0458 0.0
H1142 H 0.44604 0.69307 0.98556 0.0
H1143 H 0.47804 0.71338 0.96751 0.0
H1144 H 0.62453 0.67582 0.00391 0.0
H1145 H 0.64194 0.64299 0.02593 0.0
H1146 H 0.5943 0.60413 0.97219 0.0
H1147 H 0.57688 0.63671 0.94973 0.0
H1148 H 0.62635 0.60666 0.06595 0.0
H1149 H 0.65267 0.58456 0.92972 0.0
H1150 H 0.64275 0.61111 0.94079 0.0
H1151 H 0.62418 0.58912 0.93451 0.0
C1152 C 0.61758 0.66031 -0.00291 0.0
C1153 C 0.59949 0.65891 0.9746 0.0
C1154 C 0.62755 0.64159 0.00972 0.0
C1155 C 0.61961 0.62121 8e-05 0.0
C1156 C 0.60089 0.61975 0.97932 0.0
H1157 H 0.6593 0.4951 0.07815 0.0
H1158 H 0.63907 0.52781 0.06354 0.0
C1159 C 0.59095 0.63841 0.96659 0.0
C1160 C 0.63153 0.60147 0.01012 0.0
H1161 H 0.65952 0.5591 0.97511 0.0
C1162 C 0.63361 0.59622 0.04617 0.0
C1163 C 0.6412 0.58811 0.98417 0.0
C1164 C 0.64031 0.59354 0.94513 0.0
C1165 C 0.64494 0.57772 0.05696 0.0
C1166 C 0.65416 0.56411 0.03093 0.0
C1167 C 0.65226 0.56951 0.99494 0.0
C1168 C 0.66637 0.54444 0.0404 0.0
C1169 C 0.64731 0.57308 0.09607 0.0
C1170 C 0.68828 0.54284 0.03151 0.0
C1171 C 0.69987 0.52417 0.03962 0.0
C1172 C 0.68972 0.50665 0.05659 0.0
C1173 C 0.66766 0.50828 0.06516 0.0
C1174 C 0.65609 0.52701 0.05708 0.0
H1175 H 0.64355 0.58747 0.11255 0.0
H1176 H 0.63599 0.55997 0.10363 0.0
H1177 H 0.66395 0.56761 0.10231 0.0
H1178 H 0.69644 0.55611 0.0184 0.0
H1179 H 0.7168 0.52351 0.03253 0.0
H1180 H 0.51861 0.28892 0.992 0.0
H1181 H 0.55039 0.30975 0.00978 0.0
H1182 H 0.53479 0.35836 0.93191 0.0
H1183 H 0.50264 0.33807 0.91487 0.0
H1184 H 0.58509 0.32074 0.97314 0.0
H1185 H 0.54408 0.39538 0.01757 0.0
H1186 H 0.52955 0.37079 0.00819 0.0
H1187 H 0.53749 0.38852 0.97263 0.0
C1188 C 0.52186 0.30413 0.97884 0.0
C1189 C 0.508 0.31191 0.9522 0.0
C1190 C 0.54004 0.31601 0.98902 0.0
C1191 C 0.54478 0.33582 0.97263 0.0
C1192 C 0.53114 0.34346 0.94568 0.0
H1193 H 0.67294 0.39469 0.98117 0.0
H1194 H 0.63963 0.37701 0.96173 0.0
C1195 C 0.51281 0.33175 0.93583 0.0
C1196 C 0.56444 0.34806 0.98285 0.0
H1197 H 0.58226 0.39747 0.0105 0.0
C1198 C 0.58446 0.33749 0.98147 0.0
C1199 C 0.56359 0.36985 0.99415 0.0
C1200 C 0.5425 0.38173 -0.0014 0.0
C1201 C 0.60366 0.3481 0.99084 0.0
C1202 C 0.60291 0.37014 0.00073 0.0
C1203 C 0.58287 0.38067 0.00238 0.0
C1204 C 0.62259 0.38228 0.01114 0.0
C1205 C 0.62443 0.33537 0.991 0.0
C1206 C 0.62371 0.39211 0.04464 0.0
C1207 C 0.64253 0.40261 0.05552 0.0
C1208 C 0.66071 0.40338 0.0332 0.0
C1209 C 0.65931 0.39417 -0.00084 0.0
C1210 C 0.64034 0.3839 0.98811 0.0
H1211 H 0.62137 0.31772 0.99274 0.0
H1212 H 0.63332 0.33846 0.96595 0.0
H1213 H 0.63492 0.34016 0.01358 0.0
H1214 H 0.61018 0.39117 0.06279 0.0
H1215 H 0.64302 0.40949 0.08194 0.0
H1216 H 0.26348 0.00191 0.64311 0.0
H1217 H 0.26949 0.02303 0.6973 0.0
H1218 H 0.22151 0.98494 0.75173 0.0
H1219 H 0.21527 0.96396 0.69808 0.0
H1220 H 0.21584 0.03133 0.75485 0.0
H1221 H 0.29847 0.00398 0.79276 0.0
H1222 H 0.29384 0.01299 0.74795 0.0
H1223 H 0.28161 0.98843 0.76313 0.0
C1224 C 0.25447 0.99782 0.6668 0.0
C1225 C 0.23881 0.98133 0.66626 0.0
C1226 C 0.25791 0.00992 0.69764 0.0
C1227 C 0.24587 0.00552 0.72828 0.0
C1228 C 0.23083 0.98862 0.72815 0.0
H1229 H 0.24475 0.01646 0.9452 0.0
H1230 H 0.24854 0.00937 0.88212 0.0
C1231 C 0.22733 0.97663 0.69748 0.0
C1232 C 0.24805 0.01879 0.76053 0.0
H1233 H 0.27974 0.02556 0.83361 0.0
C1234 C 0.22995 0.03051 0.77187 0.0
C1235 C 0.26655 0.01762 0.78232 0.0
C1236 C 0.28627 0.00504 0.77122 0.0
C1237 C 0.22927 0.03988 0.80567 0.0
C1238 C 0.24732 0.03767 0.8283 0.0
C1239 C 0.26598 0.02721 0.81599 0.0
C1240 C 0.24587 0.04285 0.8664 0.0
C1241 C 0.20872 0.05066 0.81786 0.0
C1242 C 0.24306 0.0641 0.87838 0.0
C1243 C 0.24068 0.06827 0.91466 0.0
C1244 C 0.24124 0.05122 0.93936 0.0
C1245 C 0.24425 0.03001 0.92703 0.0
C1246 C 0.24653 0.0259 0.89096 0.0
H1247 H 0.19533 0.0486 0.79852 0.0
H1248 H 0.20352 0.04398 0.84384 0.0
H1249 H 0.21166 0.0682 0.8214 0.0
H1250 H 0.24269 0.0774 0.85974 0.0
H1251 H 0.23857 0.0848 0.92333 0.0
H1252 H 0.99711 0.72756 0.34544 0.0
H1253 H 0.02005 0.72156 0.29327 0.0
H1254 H 0.98492 0.77057 0.23617 0.0
H1255 H 0.96203 0.7767 0.28765 0.0
H1256 H 0.00884 0.71153 0.21936 0.0
H1257 H 0.04949 0.79056 0.23481 0.0
H1258 H 0.03485 0.77764 0.27047 0.0
H1259 H 0.02061 0.79265 0.23694 0.0
C1260 C 0.99406 0.73682 0.32159 0.0
C1261 C 0.9779 0.75282 0.32087 0.0
C1262 C 0.00725 0.73344 0.29195 0.0
C1263 C 0.00447 0.74605 0.26141 0.0
C1264 C 0.9876 0.76107 0.25992 0.0
H1265 H 0.01704 0.74723 0.04699 0.0
H1266 H 0.01051 0.74074 0.10945 0.0
C1267 C 0.97446 0.76445 0.28933 0.0
C1268 C 0.01912 0.74402 0.23075 0.0
H1269 H 0.04976 0.77518 0.17581 0.0
C1270 C 0.01827 0.7252 0.21019 0.0
C1271 C 0.03185 0.76167 0.21939 0.0
C1272 C 0.03448 0.7817 0.24176 0.0
C1273 C 0.02814 0.72441 0.17673 0.0
C1274 C 0.0387 0.74304 0.16358 0.0
C1275 C 0.0414 0.76102 0.18573 0.0
C1276 C 0.04371 0.74555 0.12548 0.0
C1277 C 0.02626 0.70403 0.15505 0.0
C1278 C 0.0645 0.75115 0.11383 0.0
C1279 C 0.06835 0.75512 0.07778 0.0
C1280 C 0.05136 0.7538 0.05303 0.0
C1281 C 0.03057 0.74834 0.06511 0.0
C1282 C 0.02681 0.74434 0.10087 0.0
H1283 H 0.02535 0.68959 0.17248 0.0
H1284 H 0.01118 0.70462 0.13916 0.0
H1285 H 0.04014 0.70217 0.13666 0.0
H1286 H 0.07767 0.75253 0.13262 0.0
H1287 H 0.08454 0.7593 0.06938 0.0
H1288 H 0.72076 0.96053 0.94752 0.0
H1289 H 0.71673 0.97169 0.88582 0.0
H1290 H 0.77717 0.94079 0.86005 0.0
H1291 H 0.78078 0.92876 0.92186 0.0
H1292 H 0.74336 0.99913 0.85659 0.0
H1293 H 0.74158 0.92509 0.77438 0.0
H1294 H 0.73749 0.92456 0.82183 0.0
H1295 H 0.76437 0.9257 0.80377 0.0
C1296 C 0.73295 0.95572 0.92848 0.0
C1297 C 0.75118 0.94399 0.93929 0.0
C1298 C 0.7306 0.96204 0.89326 0.0
C1299 C 0.74658 0.95702 0.86828 0.0
C1300 C 0.76439 0.94444 0.87869 0.0
H1301 H 0.78878 0.03437 0.69663 0.0
H1302 H 0.78148 0.0158 0.75217 0.0
C1303 C 0.76654 0.93771 0.91398 0.0
C1304 C 0.74598 0.9675 0.833 0.0
H1305 H 0.7503 0.95826 0.74401 0.0
C1306 C 0.74454 0.99012 0.83198 0.0
C1307 C 0.74728 0.95576 0.80088 0.0
C1308 C 0.74753 0.93142 0.80019 0.0
C1309 C 0.74517 0.00138 0.79985 0.0
C1310 C 0.74788 0.98975 0.76794 0.0
C1311 C 0.74842 0.9671 0.76866 0.0
C1312 C 0.75182 0.00099 0.73404 0.0
C1313 C 0.74319 0.02567 0.80041 0.0
C1314 C 0.73767 0.99852 0.70527 0.0
C1315 C 0.74182 0.00911 0.6732 0.0
C1316 C 0.7603 0.02215 0.66944 0.0
C1317 C 0.77435 0.02456 0.69853 0.0
C1318 C 0.77018 0.01401 0.7304 0.0
H1319 H 0.73468 0.03135 0.82462 0.0
H1320 H 0.75958 0.03293 0.80043 0.0
H1321 H 0.73438 0.03167 0.77671 0.0
H1322 H 0.72344 0.98844 0.70767 0.0
H1323 H 0.73074 0.0068 0.65127 0.0
H1324 H 0.9704 0.26368 0.03955 0.0
H1325 H 0.97833 0.26689 0.10268 0.0
H1326 H 0.9257 0.22379 0.12693 0.0
H1327 H 0.9174 0.22053 0.0633 0.0
H1328 H 0.94559 0.27581 0.16881 0.0
H1329 H 0.98959 0.19747 0.15805 0.0
H1330 H 0.98589 0.21471 0.11991 0.0
H1331 H 0.96332 0.20033 0.13795 0.0
C1332 C 0.96032 0.25502 0.05825 0.0
C1333 C 0.94346 0.24157 0.04646 0.0
C1334 C 0.96477 0.25707 0.09429 0.0
C1335 C 0.95256 0.24562 0.11918 0.0
C1336 C 0.93515 0.23285 0.10786 0.0
H1337 H 0.99713 0.21234 0.32842 0.0
H1338 H 0.97544 0.21581 0.27481 0.0
C1339 C 0.9305 0.23095 0.07163 0.0
C1340 C 0.95994 0.24511 0.15628 0.0
H1341 H 0.9925 0.21635 0.21151 0.0
C1342 C 0.9556 0.26273 0.17854 0.0
C1343 C 0.9731 0.22807 0.16841 0.0
C1344 C 0.9784 0.20902 0.145 0.0
C1345 C 0.96421 0.26371 0.21302 0.0
C1346 C 0.97792 0.24691 0.22483 0.0
C1347 C 0.98196 0.22921 0.20248 0.0
C1348 C 0.98846 0.24699 0.2601 0.0
C1349 C 0.95843 0.28257 0.23645 0.0
C1350 C 0.00261 0.26369 0.27024 0.0
C1351 C 0.01481 0.26189 0.30144 0.0
C1352 C 0.01339 0.24311 0.32211 0.0
C1353 C 0.99872 0.22684 0.31253 0.0
C1354 C 0.98627 0.22884 0.28202 0.0
H1355 H 0.94307 0.29023 0.22791 0.0
H1356 H 0.95686 0.27752 0.26461 0.0
H1357 H 0.97136 0.29494 0.2347 0.0
H1358 H 0.00493 0.27763 0.25334 0.0
H1359 H 0.02608 0.27458 0.30841 0.0
H1360 H 0.77228 0.96123 0.20317 0.0
H1361 H 0.76663 0.98351 0.25559 0.0
H1362 H 0.72288 0.0242 0.19691 0.0
H1363 H 0.72835 0.00183 0.1439 0.0
H1364 H 0.77608 0.0304 0.25382 0.0
H1365 H 0.69206 0.00948 0.29456 0.0
H1366 H 0.70803 0.99131 0.26781 0.0
H1367 H 0.6977 0.01571 0.24874 0.0
C1368 C 0.7612 0.97471 0.20141 0.0
C1369 C 0.75088 0.97986 0.16929 0.0
C1370 C 0.75803 0.98744 0.23138 0.0
C1371 C 0.74448 0.0055 0.2299 0.0
C1372 C 0.73334 0.01022 0.19846 0.0
H1373 H 0.75931 0.0877 0.42085 0.0
H1374 H 0.75323 0.08 0.3577 0.0
C1375 C 0.73644 0.9974 0.16831 0.0
C1376 C 0.74329 0.01981 0.26107 0.0
H1377 H 0.71283 0.03001 0.3344 0.0
C1378 C 0.76212 0.03081 0.27118 0.0
C1379 C 0.72498 0.02025 0.28328 0.0
C1380 C 0.70448 0.00856 0.27334 0.0
C1381 C 0.76368 0.04094 0.30432 0.0
C1382 C 0.74581 0.04021 0.32757 0.0
C1383 C 0.72645 0.03055 0.31634 0.0
C1384 C 0.74815 0.04576 0.36546 0.0
C1385 C 0.78494 0.05083 0.3153 0.0
C1386 C 0.74702 0.0291 0.39051 0.0
C1387 C 0.75044 0.03337 0.42628 0.0
C1388 C 0.75506 0.05446 0.4379 0.0
C1389 C 0.75597 0.07125 0.41275 0.0
C1390 C 0.75247 0.06692 0.37672 0.0
H1391 H 0.7979 0.04788 0.29552 0.0
H1392 H 0.78296 0.06854 0.31837 0.0
H1393 H 0.7902 0.04421 0.34129 0.0
H1394 H 0.74386 0.01264 0.38225 0.0
H1395 H 0.74958 0.02001 0.44478 0.0
H1396 H 0.01958 0.25594 0.54091 0.0
H1397 H 0.01266 0.25937 0.60397 0.0
H1398 H 0.0795 0.24558 0.62664 0.0
H1399 H 0.08669 0.24177 0.56293 0.0
H1400 H 0.05185 0.22107 0.66573 0.0
H1401 H 0.02699 0.30633 0.67484 0.0
H1402 H 0.01258 0.293 0.63987 0.0
H1403 H 0.0415 0.29577 0.63704 0.0
C1404 C 0.03296 0.2538 0.55909 0.0
C1405 C 0.05372 0.24853 0.54674 0.0
C1406 C 0.02898 0.25604 0.59523 0.0
C1407 C 0.04567 0.25327 0.61992 0.0
C1408 C 0.06648 0.24809 0.60789 0.0
H1409 H 0.00083 0.26464 0.84133 0.0
H1410 H 0.02294 0.27131 0.78852 0.0
C1411 C 0.07052 0.24585 0.57153 0.0
C1412 C 0.04047 0.25362 0.65818 0.0
H1413 H 0.01127 0.28204 0.71902 0.0
C1414 C 0.04348 0.2346 0.67773 0.0
C1415 C 0.02994 0.27142 0.67409 0.0
C1416 C 0.02779 0.29285 0.65542 0.0
C1417 C 0.03448 0.23223 0.71161 0.0
C1418 C 0.02187 0.24918 0.72581 0.0
C1419 C 0.02056 0.2689 0.70769 0.0
C1420 C 0.00822 0.24588 0.75746 0.0
C1421 C 0.03789 0.2113 0.73131 0.0
C1422 C 0.99215 0.22994 0.75686 0.0
C1423 C 0.9795 0.22612 0.78674 0.0
C1424 C 0.98256 0.2383 0.81783 0.0
C1425 C 0.99808 0.25494 0.81785 0.0
C1426 C 0.01079 0.25872 0.78781 0.0
H1427 H 0.05314 0.20334 0.72301 0.0
H1428 H 0.03834 0.21394 0.76045 0.0
H1429 H 0.02439 0.20011 0.72518 0.0
H1430 H 0.9895 0.2203 0.73326 0.0
H1431 H 0.96756 0.21336 0.78559 0.0
H1432 H 0.21499 0.93356 0.41685 0.0
H1433 H 0.22356 0.94403 0.35563 0.0
H1434 H 0.28745 0.96343 0.38878 0.0
H1435 H 0.27844 0.95411 0.45 0.0
H1436 H 0.26927 0.99467 0.35619 0.0
H1437 H 0.25774 0.92198 0.27376 0.0
H1438 H 0.23422 0.9268 0.30026 0.0
H1439 H 0.25956 0.92062 0.32154 0.0
C1440 C 0.23097 0.93962 0.41069 0.0
C1441 C 0.24602 0.94331 0.43779 0.0
C1442 C 0.23596 0.9454 0.37575 0.0
C1443 C 0.25626 0.95432 0.3675 0.0
C1444 C 0.27172 0.9566 0.39447 0.0
H1445 H 0.27279 0.00095 0.14781 0.0
H1446 H 0.28188 0.98219 0.20324 0.0
C1447 C 0.26656 0.95134 0.42936 0.0
C1448 C 0.26022 0.96427 0.33236 0.0
H1449 H 0.2535 0.95654 0.24341 0.0
C1450 C 0.26631 0.98612 0.33154 0.0
C1451 C 0.25675 0.95313 0.30008 0.0
C1452 C 0.25195 0.92927 0.29896 0.0
C1453 C 0.26758 0.99749 0.29955 0.0
C1454 C 0.26203 0.98689 0.26766 0.0
C1455 C 0.25746 0.96469 0.26806 0.0
C1456 C 0.25813 0.99916 0.23472 0.0
C1457 C 0.27416 0.02095 0.30035 0.0
C1458 C 0.24189 0.01488 0.23432 0.0
C1459 C 0.2367 0.02556 0.20301 0.0
C1460 C 0.24756 0.02062 0.17129 0.0
C1461 C 0.26423 0.0052 0.17186 0.0
C1462 C 0.26938 0.99442 0.20338 0.0
H1463 H 0.28487 0.02439 0.32333 0.0
H1464 H 0.28264 0.02569 0.27558 0.0
H1465 H 0.25953 0.03113 0.30317 0.0
H1466 H 0.23274 0.01846 0.2581 0.0
H1467 H 0.2238 0.03736 0.20357 0.0
H1468 H 0.99583 0.73204 0.84627 0.0
H1469 H 0.97408 0.72639 0.79258 0.0
H1470 H 0.00986 0.77653 0.73919 0.0
H1471 H 0.03143 0.78241 0.7923 0.0
H1472 H 0.96349 0.78079 0.73704 0.0
H1473 H 0.99278 0.69949 0.69561 0.0
H1474 H 0.9839 0.70316 0.74071 0.0
H1475 H 0.00802 0.71631 0.72571 0.0
C1476 C 0.99927 0.74162 0.8229 0.0
C1477 C 0.0153 0.75775 0.82361 0.0
C1478 C 0.98681 0.73839 0.79233 0.0
C1479 C 0.99036 0.75112 0.76211 0.0
C1480 C 0.00679 0.76668 0.76242 0.0
H1481 H 0.97834 0.7542 0.5456 0.0
H1482 H 0.9856 0.75015 0.60853 0.0
C1483 C 0.01914 0.76996 0.7928 0.0
C1484 C 0.97683 0.749 0.73005 0.0
H1485 H 0.97036 0.71815 0.65593 0.0
C1486 C 0.96455 0.76693 0.71953 0.0
C1487 C 0.97831 0.73085 0.70755 0.0
C1488 C 0.9915 0.71132 0.71766 0.0
C1489 C 0.95492 0.76782 0.68589 0.0
C1490 C 0.95745 0.75016 0.66254 0.0
C1491 C 0.96846 0.73162 0.67405 0.0
C1492 C 0.95211 0.75202 0.62445 0.0
C1493 C 0.94352 0.78823 0.67462 0.0
C1494 C 0.93079 0.75452 0.61255 0.0
C1495 C 0.92651 0.75704 0.57627 0.0
C1496 C 0.94351 0.75691 0.5515 0.0
C1497 C 0.9648 0.75431 0.56379 0.0
C1498 C 0.96902 0.7519 0.59981 0.0
H1499 H 0.94529 0.80138 0.69447 0.0
H1500 H 0.94995 0.794 0.6488 0.0
H1501 H 0.92606 0.78486 0.67112 0.0
H1502 H 0.91751 0.75447 0.63123 0.0
H1503 H 0.90992 0.75884 0.56764 0.0
H1504 H 0.74578 0.5867 0.42909 0.0
H1505 H 0.75319 0.5794 0.36617 0.0
H1506 H 0.74751 0.51103 0.38586 0.0
H1507 H 0.74041 0.51802 0.44821 0.0
H1508 H 0.78472 0.52318 0.34601 0.0
H1509 H 0.70823 0.55803 0.29269 0.0
H1510 H 0.725 0.5747 0.32048 0.0
H1511 H 0.71139 0.55181 0.33919 0.0
C1512 C 0.74594 0.57014 0.41987 0.0
C1513 C 0.74251 0.55294 0.44363 0.0
C1514 C 0.75023 0.56602 0.38402 0.0
C1515 C 0.75094 0.54469 0.37154 0.0
C1516 C 0.74725 0.5276 0.39512 0.0
H1517 H 0.7244 0.46465 0.20772 0.0
H1518 H 0.73121 0.48657 0.26018 0.0
C1519 C 0.74309 0.53165 0.43074 0.0
C1520 C 0.75496 0.53958 0.33387 0.0
H1521 H 0.72887 0.53667 0.25437 0.0
C1522 C 0.77287 0.52661 0.32558 0.0
C1523 C 0.73942 0.54414 0.30748 0.0
C1524 C 0.71984 0.55785 0.31517 0.0
C1525 C 0.77472 0.51668 0.2923 0.0
C1526 C 0.75833 0.51996 0.26693 0.0
C1527 C 0.74138 0.5343 0.27415 0.0
C1528 C 0.75625 0.50582 0.23572 0.0
C1529 C 0.79315 0.50137 0.28535 0.0
C1530 C 0.76858 0.50911 0.20503 0.0
C1531 C 0.76479 0.4965 0.17483 0.0
C1532 C 0.7485 0.48061 0.17506 0.0
C1533 C 0.73691 0.47686 0.20652 0.0
C1534 C 0.74075 0.48937 0.23651 0.0
H1535 H 0.805 0.50112 0.3075 0.0
H1536 H 0.78675 0.48478 0.28147 0.0
H1537 H 0.80163 0.50609 0.26059 0.0
H1538 H 0.78061 0.5218 0.20413 0.0
H1539 H 0.77392 0.49982 0.15093 0.0
H1540 H 0.51966 0.25074 0.55138 0.0
H1541 H 0.51362 0.24592 0.6145 0.0
H1542 H 0.5819 0.25239 0.63432 0.0
H1543 H 0.58825 0.25755 0.57056 0.0
H1544 H 0.53077 0.21445 0.66165 0.0
H1545 H 0.55352 0.29881 0.69789 0.0
H1546 H 0.54836 0.29106 0.65252 0.0
H1547 H 0.57284 0.28275 0.67398 0.0
C1548 C 0.5335 0.25115 0.56896 0.0
C1549 C 0.55446 0.25466 0.55584 0.0
C1550 C 0.52999 0.24825 0.60508 0.0
C1551 C 0.5473 0.24881 0.62897 0.0
C1552 C 0.56832 0.25208 0.61621 0.0
H1553 H 0.50488 0.23111 0.85195 0.0
H1554 H 0.52691 0.2249 0.79878 0.0
C1555 C 0.57189 0.25505 0.57984 0.0
C1556 C 0.54261 0.24697 0.66725 0.0
H1557 H 0.5358 0.27816 0.74088 0.0
C1558 C 0.53233 0.22814 0.67941 0.0
C1559 C 0.5447 0.26493 0.6901 0.0
C1560 C 0.55535 0.28562 0.67815 0.0
C1561 C 0.52263 0.2274 0.71301 0.0
C1562 C 0.52348 0.24588 0.73485 0.0
C1563 C 0.5352 0.26407 0.72381 0.0
C1564 C 0.50967 0.24805 0.7665 0.0
C1565 C 0.51014 0.20755 0.72386 0.0
C1566 C 0.49258 0.26284 0.76556 0.0
C1567 C 0.48008 0.26645 0.79562 0.0
C1568 C 0.48442 0.25532 0.82733 0.0
C1569 C 0.50106 0.23984 0.82785 0.0
C1570 C 0.51368 0.2363 0.79761 0.0
H1571 H 0.50971 0.19515 0.70256 0.0
H1572 H 0.5177 0.20031 0.74776 0.0
H1573 H 0.49331 0.212 0.73087 0.0
H1574 H 0.48917 0.27193 0.74162 0.0
H1575 H 0.4673 0.27836 0.7942 0.0
H1576 H 0.23611 0.49328 0.14434 0.0
H1577 H 0.22914 0.47234 0.19856 0.0
H1578 H 0.26404 0.51958 0.25999 0.0
H1579 H 0.27136 0.54038 0.20624 0.0
H1580 H 0.27055 0.46073 0.2496 0.0
H1581 H 0.20037 0.50376 0.30828 0.0
H1582 H 0.20482 0.50203 0.26091 0.0
H1583 H 0.22073 0.52016 0.28729 0.0
C1584 C 0.24191 0.49941 0.16953 0.0
C1585 C 0.25435 0.51842 0.17112 0.0
C1586 C 0.238 0.48739 0.20032 0.0
C1587 C 0.24612 0.49451 0.23299 0.0
C1588 C 0.25764 0.51394 0.23487 0.0
H1589 H 0.26656 0.48132 0.44645 0.0
H1590 H 0.26053 0.48914 0.38402 0.0
C1591 C 0.26181 0.52576 0.20419 0.0
C1592 C 0.24417 0.48121 0.26518 0.0
H1593 H 0.22152 0.48219 0.34742 0.0
C1594 C 0.25948 0.46489 0.27082 0.0
C1595 C 0.22971 0.48685 0.29247 0.0
C1596 C 0.21283 0.50407 0.28707 0.0
C1597 C 0.26184 0.45523 0.3043 0.0
C1598 C 0.2483 0.46197 0.33237 0.0
C1599 C 0.23191 0.47711 0.32581 0.0
C1600 C 0.25286 0.45619 0.36967 0.0
C1601 C 0.27981 0.43919 0.31013 0.0
C1602 C 0.25098 0.43491 0.38215 0.0
C1603 C 0.25466 0.43029 0.41806 0.0
C1604 C 0.25997 0.44698 0.44186 0.0
C1605 C 0.2623 0.46813 0.4289 0.0
C1606 C 0.25881 0.47265 0.39323 0.0
H1607 H 0.29052 0.43773 0.2866 0.0
H1608 H 0.28974 0.44397 0.33338 0.0
H1609 H 0.27279 0.42306 0.31577 0.0
H1610 H 0.24621 0.42203 0.36437 0.0
H1611 H 0.25261 0.41388 0.42738 0.0
H1612 H 0.46259 0.77428 0.53922 0.0
H1613 H 0.47407 0.77671 0.60108 0.0
H1614 H 0.43805 0.71894 0.62545 0.0
H1615 H 0.4259 0.71678 0.56338 0.0
H1616 H 0.43828 0.7511 0.68104 0.0
H1617 H 0.52015 0.73211 0.62955 0.0
H1618 H 0.5081 0.75568 0.61017 0.0
H1619 H 0.49617 0.72959 0.60272 0.0
C1620 C 0.45678 0.76232 0.55794 0.0
C1621 C 0.44371 0.74511 0.54662 0.0
C1622 C 0.46333 0.76375 0.59318 0.0
C1623 C 0.45729 0.74773 0.61745 0.0
C1624 C 0.44292 0.73139 0.6069 0.0
H1625 H 0.52916 0.70362 0.79576 0.0
H1626 H 0.50987 0.70924 0.74044 0.0
C1627 C 0.43603 0.73015 0.57158 0.0
C1628 C 0.468 0.74672 0.65236 0.0
H1629 H 0.51742 0.74 0.69058 0.0
C1630 C 0.45557 0.74871 0.68329 0.0
C1631 C 0.49052 0.74332 0.65496 0.0
C1632 C 0.50452 0.73984 0.62263 0.0
C1633 C 0.46519 0.7474 0.71698 0.0
C1634 C 0.48778 0.7444 0.71947 0.0
C1635 C 0.50013 0.74253 0.68849 0.0
C1636 C 0.4989 0.74138 0.75377 0.0
C1637 C 0.45109 0.74859 0.74954 0.0
C1638 C 0.49933 0.75777 0.77947 0.0
C1639 C 0.51037 0.7546 0.81145 0.0
C1640 C 0.52126 0.73506 0.81796 0.0
C1641 C 0.52102 0.7189 0.79174 0.0
C1642 C 0.50994 0.72203 0.76006 0.0
H1643 H 0.43374 0.7463 0.74299 0.0
H1644 H 0.45592 0.73618 0.76928 0.0
H1645 H 0.45298 0.76469 0.76208 0.0
H1646 H 0.49128 0.77301 0.77471 0.0
H1647 H 0.51028 0.76739 0.83104 0.0
H1648 H 0.26861 0.51962 0.94513 0.0
H1649 H 0.26202 0.51188 0.8828 0.0
H1650 H 0.24457 0.5784 0.86482 0.0
H1651 H 0.2515 0.58647 0.92774 0.0
H1652 H 0.22171 0.51765 0.84869 0.0
H1653 H 0.28792 0.5645 0.78419 0.0
H1654 H 0.28855 0.5579 0.83085 0.0
H1655 H 0.27046 0.5783 0.8149 0.0
C1656 C 0.26357 0.53271 0.92794 0.0
C1657 C 0.26048 0.55365 0.94135 0.0
C1658 C 0.25977 0.52824 0.89233 0.0
C1659 C 0.25273 0.54453 0.86931 0.0
C1660 C 0.25018 0.56565 0.88218 0.0
H1661 H 0.23508 0.50678 0.64452 0.0
H1662 H 0.22805 0.52792 0.69852 0.0
C1663 C 0.25417 0.57023 0.91803 0.0
C1664 C 0.24758 0.53868 0.83225 0.0
H1665 H 0.26825 0.5405 0.74842 0.0
C1666 C 0.23153 0.52302 0.82655 0.0
C1667 C 0.26035 0.54584 0.80349 0.0
C1668 C 0.27788 0.56249 0.8084 0.0
C1669 C 0.22901 0.51316 0.79337 0.0
C1670 C 0.24284 0.51918 0.76537 0.0
C1671 C 0.25769 0.53603 0.77017 0.0
C1672 C 0.24473 0.50574 0.7333 0.0
C1673 C 0.21253 0.49544 0.78891 0.0
C1674 C 0.25613 0.48626 0.73542 0.0
C1675 C 0.26036 0.47435 0.70485 0.0
C1676 C 0.25305 0.48165 0.67167 0.0
C1677 C 0.24074 0.5007 0.66982 0.0
C1678 C 0.2368 0.51282 0.70048 0.0
H1679 H 0.20017 0.49579 0.81025 0.0
H1680 H 0.20436 0.49682 0.76276 0.0
H1681 H 0.22082 0.47956 0.78982 0.0
H1682 H 0.26243 0.48066 0.76062 0.0
H1683 H 0.26982 0.45971 0.70707 0.0
H1684 H 0.58841 0.74033 0.0652 0.0
H1685 H 0.58071 0.74529 0.12856 0.0
H1686 H 0.5137 0.75695 0.10407 0.0
H1687 H 0.52111 0.75245 0.04133 0.0
H1688 H 0.53075 0.78543 0.15509 0.0
H1689 H 0.548 0.69899 0.18553 0.0
H1690 H 0.56912 0.71463 0.16521 0.0
H1691 H 0.54506 0.70856 0.14059 0.0
C1692 C 0.57206 0.74405 0.07334 0.0
C1693 C 0.55535 0.74578 0.04817 0.0
C1694 C 0.56772 0.74688 0.10949 0.0
C1695 C 0.54663 0.75134 0.12086 0.0
C1696 C 0.53012 0.75361 0.09576 0.0
H1697 H 0.46355 0.72032 0.2841 0.0
H1698 H 0.48539 0.72689 0.23144 0.0
C1699 C 0.5344 0.75088 0.05985 0.0
C1700 C 0.54091 0.75227 0.15883 0.0
H1701 H 0.53101 0.7194 0.2295 0.0
C1702 C 0.53121 0.77118 0.1718 0.0
C1703 C 0.54152 0.73356 0.18027 0.0
C1704 C 0.55136 0.7127 0.16733 0.0
C1705 C 0.52077 0.77143 0.2048 0.0
C1706 C 0.52035 0.75236 0.22529 0.0
C1707 C 0.53136 0.73394 0.21344 0.0
C1708 C 0.50641 0.75017 0.25678 0.0
C1709 C 0.50901 0.79154 0.21643 0.0
C1710 C 0.51077 0.76151 0.28815 0.0
C1711 C 0.49818 0.75791 0.31836 0.0
C1712 C 0.48123 0.74274 0.31761 0.0
C1713 C 0.47655 0.732 0.28568 0.0
C1714 C 0.48903 0.73568 0.25559 0.0
H1715 H 0.50875 0.80411 0.1954 0.0
H1716 H 0.49212 0.78758 0.22389 0.0
H1717 H 0.51709 0.79838 0.2402 0.0
H1718 H 0.52426 0.77261 0.28957 0.0
H1719 H 0.50228 0.76636 0.34261 0.0
H1720 H 0.74171 0.4137 0.92955 0.0
H1721 H 0.74697 0.42072 0.86601 0.0
H1722 H 0.75383 0.48873 0.88784 0.0
H1723 H 0.74881 0.48204 0.9507 0.0
H1724 H 0.72202 0.44671 0.82256 0.0
H1725 H 0.80584 0.47686 0.82467 0.0
H1726 H 0.79436 0.46154 0.86088 0.0
H1727 H 0.78982 0.4902 0.85764 0.0
C1728 C 0.74444 0.43013 0.9208 0.0
C1729 C 0.7449 0.44728 0.94531 0.0
C1730 C 0.74754 0.43408 0.88456 0.0
C1731 C 0.75138 0.45516 0.87245 0.0
C1732 C 0.75159 0.47225 0.89678 0.0
H1733 H 0.71555 0.53173 0.70472 0.0
H1734 H 0.7219 0.50972 0.75713 0.0
C1735 C 0.74846 0.46838 0.93276 0.0
C1736 C 0.75337 0.46002 0.83421 0.0
H1737 H 0.78302 0.49069 0.77691 0.0
C1738 C 0.73561 0.4558 0.81223 0.0
C1739 C 0.77129 0.47151 0.82056 0.0
C1740 C 0.7915 0.47507 0.84213 0.0
C1741 C 0.73442 0.46459 0.77803 0.0
C1742 C 0.75127 0.47814 0.76597 0.0
C1743 C 0.76994 0.48062 0.78657 0.0
C1744 C 0.74852 0.4919 0.73432 0.0
C1745 C 0.71468 0.46014 0.75574 0.0
C1746 C 0.76211 0.48985 0.70478 0.0
C1747 C 0.75862 0.50256 0.67461 0.0
C1748 C 0.74155 0.51757 0.67377 0.0
C1749 C 0.72868 0.52019 0.7042 0.0
C1750 C 0.73217 0.50752 0.73414 0.0
H1751 H 0.70698 0.44459 0.76329 0.0
H1752 H 0.70268 0.47318 0.76003 0.0
H1753 H 0.71876 0.45966 0.72705 0.0
H1754 H 0.77502 0.47805 0.70474 0.0
H1755 H 0.76885 0.50016 0.65164 0.0
H1756 H 0.53195 0.27919 0.29423 0.0
H1757 H 0.50924 0.27323 0.24248 0.0
H1758 H 0.47438 0.22344 0.29827 0.0
H1759 H 0.49721 0.22923 0.35073 0.0
H1760 H 0.48546 0.21337 0.22598 0.0
H1761 H 0.44534 0.29272 0.23755 0.0
H1762 H 0.47418 0.29509 0.24003 0.0
H1763 H 0.45987 0.2804 0.2739 0.0
C1764 C 0.51956 0.26686 0.29561 0.0
C1765 C 0.51623 0.25486 0.3268 0.0
C1766 C 0.50651 0.26358 0.26605 0.0
C1767 C 0.48979 0.24836 0.26704 0.0
C1768 C 0.48704 0.2355 0.29733 0.0
H1769 H 0.4131 0.26114 0.07143 0.0
H1770 H 0.41894 0.25494 0.13506 0.0
C1771 C 0.50017 0.23875 0.32712 0.0
C1772 C 0.47551 0.24613 0.2359 0.0
H1773 H 0.44633 0.27706 0.17855 0.0
C1774 C 0.47641 0.22706 0.21596 0.0
C1775 C 0.46322 0.26379 0.2234 0.0
C1776 C 0.46037 0.28407 0.24507 0.0
C1777 C 0.46711 0.22602 0.18206 0.0
C1778 C 0.45712 0.24465 0.1678 0.0
C1779 C 0.4543 0.2629 0.18928 0.0
C1780 C 0.45272 0.24676 0.12941 0.0
C1781 C 0.46895 0.20532 0.1612 0.0
C1782 C 0.46987 0.24468 0.10544 0.0
C1783 C 0.46668 0.24831 0.06941 0.0
C1784 C 0.44625 0.25432 0.05643 0.0
C1785 C 0.42903 0.25654 0.08053 0.0
C1786 C 0.43229 0.25289 0.11682 0.0
H1787 H 0.46914 0.1911 0.17917 0.0
H1788 H 0.45543 0.20351 0.14207 0.0
H1789 H 0.48437 0.20536 0.14622 0.0
H1790 H 0.48594 0.24069 0.11472 0.0
H1791 H 0.48038 0.24654 0.05179 0.0
H1792 H 0.38409 0.20636 0.92395 0.0
H1793 H 0.36891 0.17178 0.94191 0.0
H1794 H 0.432 0.14993 0.97427 0.0
H1795 H 0.44741 0.1848 0.95674 0.0
H1796 H 0.37661 0.12725 0.92875 0.0
H1797 H 0.39666 0.1519 0.06731 0.0
H1798 H 0.3985 0.17057 0.03072 0.0
H1799 H 0.41838 0.14974 0.03587 0.0
C1800 C 0.39488 0.19405 0.93404 0.0
C1801 C 0.41689 0.19849 0.93953 0.0
C1802 C 0.38618 0.17424 0.94422 0.0
C1803 C 0.39926 0.15851 0.96014 0.0
C1804 C 0.42159 0.16204 0.96257 0.0
H1805 H 0.31425 0.05332 0.03469 0.0
H1806 H 0.34909 0.06834 0.01607 0.0
C1807 C 0.43038 0.18191 0.95226 0.0
C1808 C 0.38873 0.13999 0.97795 0.0
H1809 H 0.37177 0.12395 0.06005 0.0
C1810 C 0.37599 0.12601 0.95745 0.0
C1811 C 0.38791 0.13861 0.01544 0.0
C1812 C 0.40097 0.15351 0.03882 0.0
C1813 C 0.36122 0.11181 0.9734 0.0
C1814 C 0.35941 0.11147 0.01084 0.0
C1815 C 0.37333 0.12423 0.03138 0.0
C1816 C 0.34058 0.10136 0.02845 0.0
C1817 C 0.34641 0.09867 0.95002 0.0
C1818 C 0.32485 0.1148 0.04351 0.0
C1819 C 0.30506 0.10633 0.05426 0.0
C1820 C 0.30062 0.0842 0.05026 0.0
C1821 C 0.31713 0.07045 0.03806 0.0
C1822 C 0.33699 0.07901 0.02714 0.0
H1823 H 0.34846 0.10253 0.92143 0.0
H1824 H 0.34983 0.08124 0.95383 0.0
H1825 H 0.32929 0.10154 0.95741 0.0
H1826 H 0.32736 0.13209 0.04493 0.0
H1827 H 0.29279 0.11733 0.06388 0.0
H1828 H 0.19169 0.55765 0.01288 0.0
H1829 H 0.15981 0.57654 0.99028 0.0
H1830 H 0.16988 0.62731 0.06689 0.0
H1831 H 0.20244 0.60906 0.08818 0.0
H1832 H 0.12134 0.59512 0.01043 0.0
H1833 H 0.18145 0.65741 0.97354 0.0
H1834 H 0.18914 0.63152 0.99126 0.0
H1835 H 0.18066 0.65291 0.02051 0.0
C1836 C 0.18662 0.57244 0.02575 0.0
C1837 C 0.19959 0.5821 0.05193 0.0
C1838 C 0.16845 0.58326 0.01272 0.0
C1839 C 0.16293 0.60366 0.02614 0.0
C1840 C 0.17427 0.61187 0.05548 0.0
H1841 H 0.05953 0.69062 0.98017 0.0
H1842 H 0.07921 0.65811 -0.00306 0.0
C1843 C 0.19272 0.60138 0.06785 0.0
C1844 C 0.1477 0.61769 0.00642 0.0
H1845 H 0.14471 0.66686 0.96634 0.0
C1846 C 0.1264 0.61077 0.00052 0.0
C1847 C 0.15456 0.63772 0.99228 0.0
C1848 C 0.17775 0.64523 0.99433 0.0
C1849 C 0.11152 0.62383 0.98215 0.0
C1850 C 0.11803 0.64456 0.97032 0.0
C1851 C 0.13955 0.65103 0.97532 0.0
C1852 C 0.1029 0.66065 0.9548 0.0
C1853 C 0.08917 0.61511 0.97531 0.0
C1854 C 0.10922 0.67282 0.92501 0.0
C1855 C 0.09845 0.69189 0.9163 0.0
C1856 C 0.0807 0.6987 0.93644 0.0
C1857 C 0.07296 0.68543 0.96383 0.0
C1858 C 0.08418 0.66673 0.97333 0.0
H1859 H 0.08942 0.59724 0.9728 0.0
H1860 H 0.07861 0.61917 -0.00188 0.0
H1861 H 0.08202 0.62204 0.95081 0.0
H1862 H 0.12354 0.66846 0.91014 0.0
H1863 H 0.10475 0.70198 0.89521 0.0
H1864 H 0.68206 0.94387 0.03454 0.0
H1865 H 0.64761 0.92894 0.01402 0.0
H1866 H 0.66806 0.86535 0.04621 0.0
H1867 H 0.70244 0.88005 0.06653 0.0
H1868 H 0.64824 0.89821 0.959 0.0
H1869 H 0.60413 0.86641 0.07519 0.0
H1870 H 0.62459 0.88714 0.0789 0.0
H1871 H 0.63215 0.85912 0.07625 0.0
C1872 C 0.67888 0.92684 0.03852 0.0
C1873 C 0.69499 0.91308 0.05199 0.0
C1874 C 0.65923 0.91834 0.0266 0.0
C1875 C 0.65526 0.89608 0.02876 0.0
C1876 C 0.67064 0.88263 0.04482 0.0
H1877 H 0.61718 0.79363 0.91235 0.0
H1878 H 0.63107 0.82867 0.93084 0.0
C1879 C 0.69034 0.89104 0.05629 0.0
C1880 C 0.63698 0.88616 0.0094 0.0
H1881 H 0.5982 0.84761 0.01929 0.0
C1882 C 0.63682 0.88763 0.9722 0.0
C1883 C 0.62191 0.87262 0.02658 0.0
C1884 C 0.62053 0.87139 0.06648 0.0
C1885 C 0.62342 0.87429 0.95167 0.0
C1886 C 0.61003 0.85907 0.96885 0.0
C1887 C 0.60864 0.85916 0.00607 0.0
C1888 C 0.60029 0.84065 0.94958 0.0
C1889 C 0.62454 0.8758 0.91178 0.0
C1890 C 0.57821 0.83599 0.95286 0.0
C1891 C 0.57017 0.81591 0.94208 0.0
C1892 C 0.58423 0.80006 0.9286 0.0
C1893 C 0.60597 0.80548 0.9227 0.0
C1894 C 0.61391 0.82559 0.93309 0.0
H1895 H 0.629 0.89238 0.9032 0.0
H1896 H 0.63717 0.86462 0.90191 0.0
H1897 H 0.60892 0.8713 0.89935 0.0
H1898 H 0.56748 0.84735 0.96574 0.0
H1899 H 0.55337 0.81218 0.9472 0.0
H1900 H 0.80115 0.39122 0.09602 0.0
H1901 H 0.83407 0.37266 0.07725 0.0
H1902 H 0.841 0.41777 0.99058 0.0
H1903 H 0.80921 0.43723 0.01112 0.0
H1904 H 0.83393 0.35195 0.02068 0.0
H1905 H 0.90262 0.40806 0.00862 0.0
H1906 H 0.87855 0.41506 0.03298 0.0
H1907 H 0.87975 0.41877 0.98553 0.0
C1908 C 0.81037 0.3977 0.07404 0.0
C1909 C 0.80282 0.41563 0.05507 0.0
C1910 C 0.8291 0.38707 0.06315 0.0
C1911 C 0.84013 0.39373 0.03237 0.0
C1912 C 0.8333 0.41256 0.01489 0.0
H1913 H 0.88885 0.29388 0.89634 0.0
H1914 H 0.87084 0.32669 0.91713 0.0
C1915 C 0.81499 0.42364 0.02654 0.0
C1916 C 0.85577 0.37889 0.01505 0.0
H1917 H 0.9038 0.37636 0.97052 0.0
C1918 C 0.84936 0.35733 0.01033 0.0
C1919 C 0.87597 0.38571 0.0014 0.0
C1920 C 0.88469 0.40812 0.00777 0.0
C1921 C 0.86227 0.34254 0.99211 0.0
C1922 C 0.88173 0.3497 0.97628 0.0
C1923 C 0.88855 0.37108 0.9817 0.0
C1924 C 0.89548 0.33462 0.95581 0.0
C1925 C 0.85502 0.31924 0.99074 0.0
C1926 C 0.91632 0.32966 0.96787 0.0
C1927 C 0.927 0.31139 0.95498 0.0
C1928 C 0.91674 0.29776 0.93038 0.0
C1929 C 0.897 0.30412 0.91544 0.0
C1930 C 0.88665 0.32271 0.92756 0.0
H1931 H 0.84351 0.3154 0.01245 0.0
H1932 H 0.84665 0.31618 0.96519 0.0
H1933 H 0.86896 0.30804 0.99284 0.0
H1934 H 0.92353 0.33875 0.9894 0.0
H1935 H 0.94217 0.30672 0.96708 0.0
H1936 H 0.68609 0.05382 0.54029 0.0
H1937 H 0.65078 0.06801 0.52243 0.0
H1938 H 0.67174 0.1324 0.54914 0.0
H1939 H 0.70677 0.11844 0.56738 0.0
H1940 H 0.62754 0.12419 0.56418 0.0
H1941 H 0.65104 0.10065 0.42663 0.0
H1942 H 0.64962 0.07986 0.45989 0.0
H1943 H 0.67017 0.10023 0.46272 0.0
C1944 C 0.68292 0.0709 0.54349 0.0
C1945 C 0.69935 0.08508 0.55469 0.0
C1946 C 0.66279 0.07898 0.53298 0.0
C1947 C 0.65887 0.10129 0.5337 0.0
C1948 C 0.6745 0.11513 0.54815 0.0
H1949 H 0.61643 0.20458 0.42482 0.0
H1950 H 0.63114 0.17009 0.44422 0.0
C1951 C 0.69455 0.10713 0.55851 0.0
C1952 C 0.63998 0.11095 0.51561 0.0
H1953 H 0.62301 0.12551 0.43276 0.0
C1954 C 0.62603 0.12402 0.5355 0.0
C1955 C 0.63823 0.11072 0.47814 0.0
C1956 C 0.65306 0.09723 0.45539 0.0
C1957 C 0.61155 0.1382 0.51886 0.0
C1958 C 0.61085 0.13904 0.48132 0.0
C1959 C 0.62355 0.1247 0.4615 0.0
C1960 C 0.60058 0.1574 0.46267 0.0
C1961 C 0.59852 0.1535 0.54151 0.0
C1962 C 0.57829 0.16119 0.46472 0.0
C1963 C 0.56977 0.18101 0.45358 0.0
C1964 C 0.5835 0.19727 0.44038 0.0
C1965 C 0.60546 0.19251 0.43525 0.0
C1966 C 0.6139 0.17276 0.44627 0.0
H1967 H 0.60269 0.15224 0.57012 0.0
H1968 H 0.60116 0.17043 0.53283 0.0
H1969 H 0.58108 0.14981 0.53846 0.0
H1970 H 0.5677 0.14936 0.47678 0.0
H1971 H 0.55277 0.18413 0.4578 0.0
H1972 H 0.05465 0.31764 0.45225 0.0
H1973 H 0.06998 0.35222 0.47114 0.0
H1974 H 0.13246 0.33229 0.43284 0.0
H1975 H 0.11734 0.2979 0.41378 0.0
H1976 H 0.10113 0.35259 0.52289 0.0
H1977 H 0.13153 0.39563 0.40491 0.0
H1978 H 0.11126 0.37468 0.40203 0.0
H1979 H 0.1395 0.36781 0.40399 0.0
C1980 C 0.07148 0.32095 0.44661 0.0
C1981 C 0.08484 0.30494 0.43179 0.0
C1982 C 0.08022 0.3407 0.45757 0.0
C1983 C 0.10233 0.34488 0.45326 0.0
C1984 C 0.11528 0.32961 0.43587 0.0
H1985 H 0.20552 0.38398 0.56985 0.0
H1986 H 0.171 0.36965 0.54974 0.0
C1987 C 0.10663 0.30985 0.42518 0.0
C1988 C 0.11278 0.3632 0.47185 0.0
H1989 H 0.15167 0.40146 0.45993 0.0
C1990 C 0.11171 0.36374 0.50908 0.0
C1991 C 0.12632 0.37797 0.45391 0.0
C1992 C 0.12704 0.37915 0.41396 0.0
C1993 C 0.12538 0.37721 0.52888 0.0
C1994 C 0.1406 0.39024 0.51096 0.0
C1995 C 0.14017 0.39125 0.47372 0.0
C1996 C 0.15915 0.40017 0.52966 0.0
C1997 C 0.12412 0.37659 0.56883 0.0
C1998 C 0.16379 0.42222 0.52579 0.0
C1999 C 0.1836 0.43051 0.53742 0.0
C2000 C 0.19921 0.41675 0.55243 0.0
C2001 C 0.19388 0.39499 0.55834 0.0
C2002 C 0.17406 0.38679 0.54704 0.0
H2003 H 0.10755 0.37245 0.57785 0.0
H2004 H 0.13521 0.36394 0.57894 0.0
H2005 H 0.12889 0.39231 0.58066 0.0
H2006 H 0.15255 0.43277 0.51221 0.0
H2007 H 0.18725 0.44733 0.53226 0.0
H2008 H 0.39105 0.79773 0.38974 0.0
H2009 H 0.37223 0.83094 0.40645 0.0
H2010 H 0.41712 0.83999 0.49297 0.0
H2011 H 0.4369 0.80802 0.47419 0.0
H2012 H 0.35128 0.83169 0.46203 0.0
H2013 H 0.4065 0.90098 0.47347 0.0
H2014 H 0.41406 0.87673 0.45006 0.0
H2015 H 0.41755 0.87867 0.49753 0.0
C2016 C 0.39748 0.80756 0.41107 0.0
C2017 C 0.41544 0.80059 0.43052 0.0
C2018 C 0.38668 0.82643 0.42084 0.0
C2019 C 0.39315 0.8381 0.45112 0.0
C2020 C 0.41205 0.83182 0.46899 0.0
H2021 H 0.29229 0.88636 0.58594 0.0
H2022 H 0.32481 0.86799 0.56471 0.0
C2023 C 0.42333 0.81342 0.45835 0.0
C2024 C 0.37804 0.85375 0.46783 0.0
H2025 H 0.37503 0.90173 0.51242 0.0
C2026 C 0.35652 0.84717 0.47237 0.0
C2027 C 0.38463 0.87405 0.48142 0.0
C2028 C 0.4069 0.88307 0.47497 0.0
C2029 C 0.34157 0.85997 0.49048 0.0
C2030 C 0.34856 0.87943 0.50653 0.0
C2031 C 0.36988 0.88645 0.50116 0.0
C2032 C 0.33339 0.89304 0.52715 0.0
C2033 C 0.31831 0.85258 0.49145 0.0
C2034 C 0.32894 0.91418 0.51601 0.0
C2035 C 0.31091 0.92506 0.52928 0.0
C2036 C 0.29697 0.91474 0.55332 0.0
C2037 C 0.30278 0.89457 0.56729 0.0
C2038 C 0.32118 0.884 0.55485 0.0
H2039 H 0.31461 0.8413 0.46934 0.0
H2040 H 0.31525 0.84387 0.51668 0.0
H2041 H 0.30703 0.86647 0.4897 0.0
H2042 H 0.33827 0.92157 0.49494 0.0
H2043 H 0.30667 0.94055 0.51788 0.0
H2044 H 0.87918 0.70442 0.4268 0.0
H2045 H 0.86508 0.66977 0.44661 0.0
H2046 H 0.92944 0.64889 0.47349 0.0
H2047 H 0.94379 0.68386 0.4541 0.0
H2048 H 0.87293 0.62556 0.4325 0.0
H2049 H 0.89722 0.64976 0.56942 0.0
H2050 H 0.89766 0.66865 0.533 0.0
H2051 H 0.91788 0.648 0.53604 0.0
C2052 C 0.89046 0.69232 0.43613 0.0
C2053 C 0.91256 0.69706 0.43946 0.0
C2054 C 0.88236 0.67247 0.44738 0.0
C2055 C 0.89617 0.65696 0.46222 0.0
C2056 C 0.91849 0.66082 0.46266 0.0
H2057 H 0.8129 0.55165 0.54034 0.0
H2058 H 0.84773 0.56625 0.52077 0.0
C2059 C 0.92666 0.68075 0.45128 0.0
C2060 C 0.88647 0.63822 0.48074 0.0
H2061 H 0.87228 0.62169 0.56399 0.0
C2062 C 0.87323 0.62421 0.4612 0.0
C2063 C 0.88689 0.63666 0.51822 0.0
C2064 C 0.90056 0.65157 0.54061 0.0
C2065 C 0.85907 0.60985 0.47821 0.0
C2066 C 0.85843 0.60934 0.51577 0.0
C2067 C 0.87294 0.62209 0.53523 0.0
C2068 C 0.84011 0.59924 0.5348 0.0
C2069 C 0.84359 0.59677 0.45592 0.0
C2070 C 0.82498 0.61272 0.55137 0.0
C2071 C 0.80522 0.60447 0.56273 0.0
C2072 C 0.80021 0.58254 0.55779 0.0
C2073 C 0.81625 0.56864 0.54444 0.0
C2074 C 0.83608 0.57696 0.53295 0.0
H2075 H 0.84469 0.60084 0.42726 0.0
H2076 H 0.84723 0.57934 0.45907 0.0
H2077 H 0.82672 0.59949 0.46482 0.0
H2078 H 0.82782 0.62995 0.55327 0.0
H2079 H 0.79332 0.61557 0.57326 0.0
loop_
_geom_bond_atom_site_label_1
_geom_bond_atom_site_label_2
_geom_bond_distance
_geom_bond_site_symmetry_2
_ccdc_geom_bond_type
Sc0 O3 2.025 . S
Sc0 O10 2.105 . S
Sc0 O13 2.105 . S
Sc0 O16 2.105 . S
Sc0 O19 2.105 . S
Sc1 O3 2.025 . S
Sc1 O11 2.105 . S
Sc1 O15 2.105 1_554 S
Sc1 O17 2.105 . S
Sc1 O21 2.105 . S
Sc2 O3 2.025 . S
Sc2 O12 2.105 . S
Sc2 O14 2.105 . S
Sc2 O18 2.105 1_554 S
Sc2 O20 2.105 . S
O3 Sc0 2.025 . S
O3 Sc1 2.025 . S
O3 Sc2 2.025 . S
C4 O10 1.268 . S
C4 O20 1.268 . S
C5 O11 1.268 . S
C5 O19 1.268 . S
C6 O12 1.268 . S
C6 O21 1.268 . S
C7 O13 1.268 . S
C7 O17 1.268 . S
C8 O14 1.268 . S
C8 O16 1.268 . S
C9 O15 1.268 . S
C9 O18 1.268 . S
O10 Sc0 2.105 . S
O10 C4 1.268 . S
O11 Sc1 2.105 . S
O11 C5 1.268 . S
O12 Sc2 2.105 . S
O12 C6 1.268 . S
O13 Sc0 2.105 . S
O13 C7 1.268 . S
O14 Sc2 2.105 . S
O14 C8 1.268 . S
O15 Sc1 2.105 1_556 S
O15 C9 1.268 . S
O16 Sc0 2.105 . S
O16 C8 1.268 . S
O17 Sc1 2.105 . S
O17 C7 1.268 . S
O18 Sc2 2.105 1_556 S
O18 C9 1.268 . S
O19 Sc0 2.105 . S
O19 C5 1.268 . S
O20 Sc2 2.105 . S
O20 C4 1.268 . S
O21 Sc1 2.105 . S
O21 C6 1.268 . S
Sc22 O25 2.025 . S
Sc22 O32 2.105 . S
Sc22 O35 2.105 . S
Sc22 O38 2.105 . S
Sc22 O41 2.105 . S
Sc23 O25 2.025 . S
Sc23 O33 2.105 . S
Sc23 O37 2.105 . S
Sc23 O39 2.105 . S
Sc23 O43 2.105 1_556 S
Sc24 O25 2.025 . S
Sc24 O34 2.105 1_556 S
Sc24 O36 2.105 . S
Sc24 O40 2.105 . S
Sc24 O42 2.105 . S
O25 Sc22 2.025 . S
O25 Sc23 2.025 . S
O25 Sc24 2.025 . S
C26 O32 1.268 . S
C26 O42 1.268 . S
C27 O33 1.268 . S
C27 O41 1.268 . S
C28 O34 1.268 . S
C28 O43 1.268 . S
C29 O35 1.268 . S
C29 O39 1.268 . S
C30 O36 1.268 . S
C30 O38 1.268 . S
C31 O37 1.268 . S
C31 O40 1.268 . S
O32 Sc22 2.105 . S
O32 C26 1.268 . S
O33 Sc23 2.105 . S
O33 C27 1.268 . S
O34 Sc24 2.105 1_554 S
O34 C28 1.268 . S
O35 Sc22 2.105 . S
O35 C29 1.268 . S
O36 Sc24 2.105 . S
O36 C30 1.268 . S
O37 Sc23 2.105 . S
O37 C31 1.268 . S
O38 Sc22 2.105 . S
O38 C30 1.268 . S
O39 Sc23 2.105 . S
O39 C29 1.268 . S
O40 Sc24 2.105 . S
O40 C31 1.268 . S
O41 Sc22 2.105 . S
O41 C27 1.268 . S
O42 Sc24 2.105 . S
O42 C26 1.268 . S
O43 Sc23 2.105 1_554 S
O43 C28 1.268 . S
Sc44 O47 2.025 . S
Sc44 O54 2.105 . S
Sc44 O57 2.105 . S
Sc44 O60 2.105 . S
Sc44 O63 2.105 1_554 S
Sc45 O47 2.025 . S
Sc45 O55 2.105 1_554 S
Sc45 O59 2.105 . S
Sc45 O61 2.105 . S
Sc45 O65 2.105 . S
Sc46 O47 2.025 . S
Sc46 O56 2.105 . S
Sc46 O58 2.105 . S
Sc46 O62 2.105 . S
Sc46 O64 2.105 . S
O47 Sc44 2.025 . S
O47 Sc45 2.025 . S
O47 Sc46 2.025 . S
C48 O54 1.268 . S
C48 O64 1.268 . S
C49 O55 1.268 . S
C49 O63 1.268 . S
C50 O56 1.268 . S
C50 O65 1.268 . S
C51 O57 1.268 . S
C51 O61 1.268 . S
C52 O58 1.268 . S
C52 O60 1.268 . S
C53 O59 1.268 . S
C53 O62 1.268 . S
O54 Sc44 2.105 . S
O54 C48 1.268 . S
O55 Sc45 2.105 1_556 S
O55 C49 1.268 . S
O56 Sc46 2.105 . S
O56 C50 1.268 . S
O57 Sc44 2.105 . S
O57 C51 1.268 . S
O58 Sc46 2.105 . S
O58 C52 1.268 . S
O59 Sc45 2.105 . S
O59 C53 1.268 . S
O60 Sc44 2.105 . S
O60 C52 1.268 . S
O61 Sc45 2.105 . S
O61 C51 1.268 . S
O62 Sc46 2.105 . S
O62 C53 1.268 . S
O63 Sc44 2.105 1_556 S
O63 C49 1.268 . S
O64 Sc46 2.105 . S
O64 C48 1.268 . S
O65 Sc45 2.105 . S
O65 C50 1.268 . S
Sc66 O69 2.025 . S
Sc66 O76 2.105 . S
Sc66 O79 2.105 1_556 S
Sc66 O82 2.105 . S
Sc66 O85 2.105 . S
Sc67 O69 2.025 . S
Sc67 O77 2.105 . S
Sc67 O81 2.105 . S
Sc67 O83 2.105 1_556 S
Sc67 O87 2.105 . S
Sc68 O69 2.025 . S
Sc68 O78 2.105 . S
Sc68 O80 2.105 . S
Sc68 O84 2.105 . S
Sc68 O86 2.105 . S
O69 Sc66 2.025 . S
O69 Sc67 2.025 . S
O69 Sc68 2.025 . S
C70 O76 1.268 . S
C70 O86 1.268 . S
C71 O77 1.268 . S
C71 O85 1.268 . S
C72 O78 1.268 . S
C72 O87 1.268 . S
C73 O79 1.268 . S
C73 O83 1.268 . S
C74 O80 1.268 . S
C74 O82 1.268 . S
C75 O81 1.268 . S
C75 O84 1.268 . S
O76 Sc66 2.105 . S
O76 C70 1.268 . S
O77 Sc67 2.105 . S
O77 C71 1.268 . S
O78 Sc68 2.105 . S
O78 C72 1.268 . S
O79 Sc66 2.105 1_554 S
O79 C73 1.268 . S
O80 Sc68 2.105 . S
O80 C74 1.268 . S
O81 Sc67 2.105 . S
O81 C75 1.268 . S
O82 Sc66 2.105 . S
O82 C74 1.268 . S
O83 Sc67 2.105 1_554 S
O83 C73 1.268 . S
O84 Sc68 2.105 . S
O84 C75 1.268 . S
O85 Sc66 2.105 . S
O85 C71 1.268 . S
O86 Sc68 2.105 . S
O86 C70 1.268 . S
O87 Sc67 2.105 . S
O87 C72 1.268 . S
Sc88 O91 2.025 . S
Sc88 O98 2.105 . S
Sc88 O101 2.105 . S
Sc88 O104 2.105 . S
Sc88 O107 2.105 . S
Sc89 O91 2.025 . S
Sc89 O99 2.105 . S
Sc89 O103 2.105 . S
Sc89 O105 2.105 . S
Sc89 O109 2.105 . S
Sc90 O91 2.025 . S
Sc90 O100 2.105 . S
Sc90 O102 2.105 . S
Sc90 O106 2.105 . S
Sc90 O108 2.105 . S
O91 Sc88 2.025 . S
O91 Sc89 2.025 . S
O91 Sc90 2.025 . S
C92 O98 1.268 . S
C92 O108 1.268 . S
C93 O99 1.268 . S
C93 O107 1.268 . S
C94 O100 1.268 . S
C94 O109 1.268 . S
C95 O101 1.268 . S
C95 O105 1.268 . S
C96 O102 1.268 . S
C96 O104 1.268 . S
C97 O103 1.268 . S
C97 O106 1.268 . S
O98 Sc88 2.105 . S
O98 C92 1.268 . S
O99 Sc89 2.105 . S
O99 C93 1.268 . S
O100 Sc90 2.105 . S
O100 C94 1.268 . S
O101 Sc88 2.105 . S
O101 C95 1.268 . S
O102 Sc90 2.105 . S
O102 C96 1.268 . S
O103 Sc89 2.105 . S
O103 C97 1.268 . S
O104 Sc88 2.105 . S
O104 C96 1.268 . S
O105 Sc89 2.105 . S
O105 C95 1.268 . S
O106 Sc90 2.105 . S
O106 C97 1.268 . S
O107 Sc88 2.105 . S
O107 C93 1.268 . S
O108 Sc90 2.105 . S
O108 C92 1.268 . S
O109 Sc89 2.105 . S
O109 C94 1.268 . S
Sc110 O113 2.025 . S
Sc110 O120 2.105 . S
Sc110 O123 2.105 . S
Sc110 O126 2.105 . S
Sc110 O129 2.105 . S
Sc111 O113 2.025 . S
Sc111 O121 2.105 . S
Sc111 O125 2.105 . S
Sc111 O127 2.105 . S
Sc111 O131 2.105 . S
Sc112 O113 2.025 . S
Sc112 O122 2.105 . S
Sc112 O124 2.105 . S
Sc112 O128 2.105 . S
Sc112 O130 2.105 . S
O113 Sc110 2.025 . S
O113 Sc111 2.025 . S
O113 Sc112 2.025 . S
C114 O120 1.268 . S
C114 O130 1.268 . S
C115 O121 1.268 . S
C115 O129 1.268 . S
C116 O122 1.268 . S
C116 O131 1.268 . S
C117 O123 1.268 . S
C117 O127 1.268 . S
C118 O124 1.268 . S
C118 O126 1.268 . S
C119 O125 1.268 . S
C119 O128 1.268 . S
O120 Sc110 2.105 . S
O120 C114 1.268 . S
O121 Sc111 2.105 . S
O121 C115 1.268 . S
O122 Sc112 2.105 . S
O122 C116 1.268 . S
O123 Sc110 2.105 . S
O123 C117 1.268 . S
O124 Sc112 2.105 . S
O124 C118 1.268 . S
O125 Sc111 2.105 . S
O125 C119 1.268 . S
O126 Sc110 2.105 . S
O126 C118 1.268 . S
O127 Sc111 2.105 . S
O127 C117 1.268 . S
O128 Sc112 2.105 . S
O128 C119 1.268 . S
O129 Sc110 2.105 . S
O129 C115 1.268 . S
O130 Sc112 2.105 . S
O130 C114 1.268 . S
O131 Sc111 2.105 . S
O131 C116 1.268 . S
Sc132 O135 2.025 . S
Sc132 O142 2.105 . S
Sc132 O145 2.105 . S
Sc132 O148 2.105 . S
Sc132 O151 2.105 . S
Sc133 O135 2.025 . S
Sc133 O143 2.105 . S
Sc133 O147 2.105 . S
Sc133 O149 2.105 . S
Sc133 O153 2.105 . S
Sc134 O135 2.025 . S
Sc134 O144 2.105 . S
Sc134 O146 2.105 . S
Sc134 O150 2.105 . S
Sc134 O152 2.105 . S
O135 Sc132 2.025 . S
O135 Sc133 2.025 . S
O135 Sc134 2.025 . S
C136 O142 1.268 . S
C136 O152 1.268 . S
C137 O143 1.268 . S
C137 O151 1.268 . S
C138 O144 1.268 . S
C138 O153 1.268 . S
C139 O145 1.268 . S
C139 O149 1.268 . S
C140 O146 1.268 . S
C140 O148 1.268 . S
C141 O147 1.268 . S
C141 O150 1.268 . S
O142 Sc132 2.105 . S
O142 C136 1.268 . S
O143 Sc133 2.105 . S
O143 C137 1.268 . S
O144 Sc134 2.105 . S
O144 C138 1.268 . S
O145 Sc132 2.105 . S
O145 C139 1.268 . S
O146 Sc134 2.105 . S
O146 C140 1.268 . S
O147 Sc133 2.105 . S
O147 C141 1.268 . S
O148 Sc132 2.105 . S
O148 C140 1.268 . S
O149 Sc133 2.105 . S
O149 C139 1.268 . S
O150 Sc134 2.105 . S
O150 C141 1.268 . S
O151 Sc132 2.105 . S
O151 C137 1.268 . S
O152 Sc134 2.105 . S
O152 C136 1.268 . S
O153 Sc133 2.105 . S
O153 C138 1.268 . S
Sc154 O157 2.025 . S
Sc154 O164 2.105 . S
Sc154 O167 2.105 . S
Sc154 O170 2.105 . S
Sc154 O173 2.105 . S
Sc155 O157 2.025 . S
Sc155 O165 2.105 . S
Sc155 O169 2.105 . S
Sc155 O171 2.105 . S
Sc155 O175 2.105 . S
Sc156 O157 2.025 . S
Sc156 O166 2.105 . S
Sc156 O168 2.105 . S
Sc156 O172 2.105 . S
Sc156 O174 2.105 . S
O157 Sc154 2.025 . S
O157 Sc155 2.025 . S
O157 Sc156 2.025 . S
C158 O164 1.268 . S
C158 O174 1.268 . S
C159 O165 1.268 . S
C159 O173 1.268 . S
C160 O166 1.268 . S
C160 O175 1.268 . S
C161 O167 1.268 . S
C161 O171 1.268 . S
C162 O168 1.268 . S
C162 O170 1.268 . S
C163 O169 1.268 . S
C163 O172 1.268 . S
O164 Sc154 2.105 . S
O164 C158 1.268 . S
O165 Sc155 2.105 . S
O165 C159 1.268 . S
O166 Sc156 2.105 . S
O166 C160 1.268 . S
O167 Sc154 2.105 . S
O167 C161 1.268 . S
O168 Sc156 2.105 . S
O168 C162 1.268 . S
O169 Sc155 2.105 . S
O169 C163 1.268 . S
O170 Sc154 2.105 . S
O170 C162 1.268 . S
O171 Sc155 2.105 . S
O171 C161 1.268 . S
O172 Sc156 2.105 . S
O172 C163 1.268 . S
O173 Sc154 2.105 . S
O173 C159 1.268 . S
O174 Sc156 2.105 . S
O174 C158 1.268 . S
O175 Sc155 2.105 . S
O175 C160 1.268 . S
Sc176 O179 2.025 . S
Sc176 O186 2.105 . S
Sc176 O189 2.105 . S
Sc176 O192 2.105 . S
Sc176 O195 2.105 . S
Sc177 O179 2.025 . S
Sc177 O187 2.105 . S
Sc177 O191 2.105 . S
Sc177 O193 2.105 . S
Sc177 O197 2.105 . S
Sc178 O179 2.025 . S
Sc178 O188 2.105 . S
Sc178 O190 2.105 . S
Sc178 O194 2.105 . S
Sc178 O196 2.105 . S
O179 Sc176 2.025 . S
O179 Sc177 2.025 . S
O179 Sc178 2.025 . S
C180 O186 1.268 . S
C180 O196 1.268 . S
C181 O187 1.268 . S
C181 O195 1.268 . S
C182 O188 1.268 . S
C182 O197 1.268 . S
C183 O189 1.268 . S
C183 O193 1.268 . S
C184 O190 1.268 . S
C184 O192 1.268 . S
C185 O191 1.268 . S
C185 O194 1.268 . S
O186 Sc176 2.105 . S
O186 C180 1.268 . S
O187 Sc177 2.105 . S
O187 C181 1.268 . S
O188 Sc178 2.105 . S
O188 C182 1.268 . S
O189 Sc176 2.105 . S
O189 C183 1.268 . S
O190 Sc178 2.105 . S
O190 C184 1.268 . S
O191 Sc177 2.105 . S
O191 C185 1.268 . S
O192 Sc176 2.105 . S
O192 C184 1.268 . S
O193 Sc177 2.105 . S
O193 C183 1.268 . S
O194 Sc178 2.105 . S
O194 C185 1.268 . S
O195 Sc176 2.105 . S
O195 C181 1.268 . S
O196 Sc178 2.105 . S
O196 C180 1.268 . S
O197 Sc177 2.105 . S
O197 C182 1.268 . S
Sc198 O201 2.025 . S
Sc198 O208 2.105 . S
Sc198 O211 2.105 . S
Sc198 O214 2.105 . S
Sc198 O217 2.105 . S
Sc199 O201 2.025 . S
Sc199 O209 2.105 . S
Sc199 O213 2.105 . S
Sc199 O215 2.105 . S
Sc199 O219 2.105 . S
Sc200 O201 2.025 . S
Sc200 O210 2.105 . S
Sc200 O212 2.105 . S
Sc200 O216 2.105 . S
Sc200 O218 2.105 . S
O201 Sc198 2.025 . S
O201 Sc199 2.025 . S
O201 Sc200 2.025 . S
C202 O208 1.268 . S
C202 O218 1.268 . S
C203 O209 1.268 . S
C203 O217 1.268 . S
C204 O210 1.268 . S
C204 O219 1.268 . S
C205 O211 1.268 . S
C205 O215 1.268 . S
C206 O212 1.268 . S
C206 O214 1.268 . S
C207 O213 1.268 . S
C207 O216 1.268 . S
O208 Sc198 2.105 . S
O208 C202 1.268 . S
O209 Sc199 2.105 . S
O209 C203 1.268 . S
O210 Sc200 2.105 . S
O210 C204 1.268 . S
O211 Sc198 2.105 . S
O211 C205 1.268 . S
O212 Sc200 2.105 . S
O212 C206 1.268 . S
O213 Sc199 2.105 . S
O213 C207 1.268 . S
O214 Sc198 2.105 . S
O214 C206 1.268 . S
O215 Sc199 2.105 . S
O215 C205 1.268 . S
O216 Sc200 2.105 . S
O216 C207 1.268 . S
O217 Sc198 2.105 . S
O217 C203 1.268 . S
O218 Sc200 2.105 . S
O218 C202 1.268 . S
O219 Sc199 2.105 . S
O219 C204 1.268 . S
Sc220 O223 2.025 . S
Sc220 O230 2.105 . S
Sc220 O233 2.105 . S
Sc220 O236 2.105 . S
Sc220 O239 2.105 . S
Sc221 O223 2.025 . S
Sc221 O231 2.105 . S
Sc221 O235 2.105 . S
Sc221 O237 2.105 . S
Sc221 O241 2.105 . S
Sc222 O223 2.025 . S
Sc222 O232 2.105 . S
Sc222 O234 2.105 . S
Sc222 O238 2.105 . S
Sc222 O240 2.105 . S
O223 Sc220 2.025 . S
O223 Sc221 2.025 . S
O223 Sc222 2.025 . S
C224 O230 1.268 . S
C224 O240 1.268 . S
C225 O231 1.268 . S
C225 O239 1.268 . S
C226 O232 1.268 . S
C226 O241 1.268 . S
C227 O233 1.268 . S
C227 O237 1.268 . S
C228 O234 1.268 . S
C228 O236 1.268 . S
C229 O235 1.268 . S
C229 O238 1.268 . S
O230 Sc220 2.105 . S
O230 C224 1.268 . S
O231 Sc221 2.105 . S
O231 C225 1.268 . S
O232 Sc222 2.105 . S
O232 C226 1.268 . S
O233 Sc220 2.105 . S
O233 C227 1.268 . S
O234 Sc222 2.105 . S
O234 C228 1.268 . S
O235 Sc221 2.105 . S
O235 C229 1.268 . S
O236 Sc220 2.105 . S
O236 C228 1.268 . S
O237 Sc221 2.105 . S
O237 C227 1.268 . S
O238 Sc222 2.105 . S
O238 C229 1.268 . S
O239 Sc220 2.105 . S
O239 C225 1.268 . S
O240 Sc222 2.105 . S
O240 C224 1.268 . S
O241 Sc221 2.105 . S
O241 C226 1.268 . S
Sc242 O245 2.025 . S
Sc242 O252 2.105 . S
Sc242 O255 2.105 . S
Sc242 O258 2.105 . S
Sc242 O261 2.105 . S
Sc243 O245 2.025 . S
Sc243 O253 2.105 . S
Sc243 O257 2.105 . S
Sc243 O259 2.105 . S
Sc243 O263 2.105 . S
Sc244 O245 2.025 . S
Sc244 O254 2.105 . S
Sc244 O256 2.105 . S
Sc244 O260 2.105 . S
Sc244 O262 2.105 . S
O245 Sc242 2.025 . S
O245 Sc243 2.025 . S
O245 Sc244 2.025 . S
C246 O252 1.268 . S
C246 O262 1.268 . S
C247 O253 1.268 . S
C247 O261 1.268 . S
C248 O254 1.268 . S
C248 O263 1.268 . S
C249 O255 1.268 . S
C249 O259 1.268 . S
C250 O256 1.268 . S
C250 O258 1.268 . S
C251 O257 1.268 . S
C251 O260 1.268 . S
O252 Sc242 2.105 . S
O252 C246 1.268 . S
O253 Sc243 2.105 . S
O253 C247 1.268 . S
O254 Sc244 2.105 . S
O254 C248 1.268 . S
O255 Sc242 2.105 . S
O255 C249 1.268 . S
O256 Sc244 2.105 . S
O256 C250 1.268 . S
O257 Sc243 2.105 . S
O257 C251 1.268 . S
O258 Sc242 2.105 . S
O258 C250 1.268 . S
O259 Sc243 2.105 . S
O259 C249 1.268 . S
O260 Sc244 2.105 . S
O260 C251 1.268 . S
O261 Sc242 2.105 . S
O261 C247 1.268 . S
O262 Sc244 2.105 . S
O262 C246 1.268 . S
O263 Sc243 2.105 . S
O263 C248 1.268 . S
Sc264 O267 2.025 . S
Sc264 O274 2.105 . S
Sc264 O277 2.105 1_554 S
Sc264 O280 2.105 . S
Sc264 O283 2.105 . S
Sc265 O267 2.025 . S
Sc265 O275 2.105 . S
Sc265 O279 2.105 . S
Sc265 O281 2.105 1_554 S
Sc265 O285 2.105 . S
Sc266 O267 2.025 . S
Sc266 O276 2.105 . S
Sc266 O278 2.105 . S
Sc266 O282 2.105 . S
Sc266 O284 2.105 . S
O267 Sc264 2.025 . S
O267 Sc265 2.025 . S
O267 Sc266 2.025 . S
C268 O274 1.268 . S
C268 O284 1.268 . S
C269 O275 1.268 . S
C269 O283 1.268 . S
C270 O276 1.268 . S
C270 O285 1.268 . S
C271 O277 1.268 . S
C271 O281 1.268 . S
C272 O278 1.268 . S
C272 O280 1.268 . S
C273 O279 1.268 . S
C273 O282 1.268 . S
O274 Sc264 2.105 . S
O274 C268 1.268 . S
O275 Sc265 2.105 . S
O275 C269 1.268 . S
O276 Sc266 2.105 . S
O276 C270 1.268 . S
O277 Sc264 2.105 1_556 S
O277 C271 1.268 . S
O278 Sc266 2.105 . S
O278 C272 1.268 . S
O279 Sc265 2.105 . S
O279 C273 1.268 . S
O280 Sc264 2.105 . S
O280 C272 1.268 . S
O281 Sc265 2.105 1_556 S
O281 C271 1.268 . S
O282 Sc266 2.105 . S
O282 C273 1.268 . S
O283 Sc264 2.105 . S
O283 C269 1.268 . S
O284 Sc266 2.105 . S
O284 C268 1.268 . S
O285 Sc265 2.105 . S
O285 C270 1.268 . S
Sc286 O289 2.025 . S
Sc286 O296 2.105 . S
Sc286 O299 2.105 . S
Sc286 O302 2.105 . S
Sc286 O305 2.105 . S
Sc287 O289 2.025 . S
Sc287 O297 2.105 . S
Sc287 O301 2.105 1_556 S
Sc287 O303 2.105 . S
Sc287 O307 2.105 . S
Sc288 O289 2.025 . S
Sc288 O298 2.105 . S
Sc288 O300 2.105 . S
Sc288 O304 2.105 1_556 S
Sc288 O306 2.105 . S
O289 Sc286 2.025 . S
O289 Sc287 2.025 . S
O289 Sc288 2.025 . S
C290 O296 1.268 . S
C290 O306 1.268 . S
C291 O297 1.268 . S
C291 O305 1.268 . S
C292 O298 1.268 . S
C292 O307 1.268 . S
C293 O299 1.268 . S
C293 O303 1.268 . S
C294 O300 1.268 . S
C294 O302 1.268 . S
C295 O301 1.268 . S
C295 O304 1.268 . S
O296 Sc286 2.105 . S
O296 C290 1.268 . S
O297 Sc287 2.105 . S
O297 C291 1.268 . S
O298 Sc288 2.105 . S
O298 C292 1.268 . S
O299 Sc286 2.105 . S
O299 C293 1.268 . S
O300 Sc288 2.105 . S
O300 C294 1.268 . S
O301 Sc287 2.105 1_554 S
O301 C295 1.268 . S
O302 Sc286 2.105 . S
O302 C294 1.268 . S
O303 Sc287 2.105 . S
O303 C293 1.268 . S
O304 Sc288 2.105 1_554 S
O304 C295 1.268 . S
O305 Sc286 2.105 . S
O305 C291 1.268 . S
O306 Sc288 2.105 . S
O306 C290 1.268 . S
O307 Sc287 2.105 . S
O307 C292 1.268 . S
Sc308 O311 2.025 . S
Sc308 O318 2.105 . S
Sc308 O321 2.105 . S
Sc308 O324 2.105 . S
Sc308 O327 2.105 . S
Sc309 O311 2.025 . S
Sc309 O319 2.105 . S
Sc309 O323 2.105 . S
Sc309 O325 2.105 . S
Sc309 O329 2.105 1_554 S
Sc310 O311 2.025 . S
Sc310 O320 2.105 1_554 S
Sc310 O322 2.105 . S
Sc310 O326 2.105 . S
Sc310 O328 2.105 . S
O311 Sc308 2.025 . S
O311 Sc309 2.025 . S
O311 Sc310 2.025 . S
C312 O318 1.268 . S
C312 O328 1.268 . S
C313 O319 1.268 . S
C313 O327 1.268 . S
C314 O320 1.268 . S
C314 O329 1.268 . S
C315 O321 1.268 . S
C315 O325 1.268 . S
C316 O322 1.268 . S
C316 O324 1.268 . S
C317 O323 1.268 . S
C317 O326 1.268 . S
O318 Sc308 2.105 . S
O318 C312 1.268 . S
O319 Sc309 2.105 . S
O319 C313 1.268 . S
O320 Sc310 2.105 1_556 S
O320 C314 1.268 . S
O321 Sc308 2.105 . S
O321 C315 1.268 . S
O322 Sc310 2.105 . S
O322 C316 1.268 . S
O323 Sc309 2.105 . S
O323 C317 1.268 . S
O324 Sc308 2.105 . S
O324 C316 1.268 . S
O325 Sc309 2.105 . S
O325 C315 1.268 . S
O326 Sc310 2.105 . S
O326 C317 1.268 . S
O327 Sc308 2.105 . S
O327 C313 1.268 . S
O328 Sc310 2.105 . S
O328 C312 1.268 . S
O329 Sc309 2.105 1_556 S
O329 C314 1.268 . S
Sc330 O333 2.025 . S
Sc330 O340 2.105 . S
Sc330 O343 2.105 . S
Sc330 O346 2.105 . S
Sc330 O349 2.105 1_556 S
Sc331 O333 2.025 . S
Sc331 O341 2.105 1_556 S
Sc331 O345 2.105 . S
Sc331 O347 2.105 . S
Sc331 O351 2.105 . S
Sc332 O333 2.025 . S
Sc332 O342 2.105 . S
Sc332 O344 2.105 . S
Sc332 O348 2.105 . S
Sc332 O350 2.105 . S
O333 Sc330 2.025 . S
O333 Sc331 2.025 . S
O333 Sc332 2.025 . S
C334 O340 1.268 . S
C334 O350 1.268 . S
C335 O341 1.268 . S
C335 O349 1.268 . S
C336 O342 1.268 . S
C336 O351 1.268 . S
C337 O343 1.268 . S
C337 O347 1.268 . S
C338 O344 1.268 . S
C338 O346 1.268 . S
C339 O345 1.268 . S
C339 O348 1.268 . S
O340 Sc330 2.105 . S
O340 C334 1.268 . S
O341 Sc331 2.105 1_554 S
O341 C335 1.268 . S
O342 Sc332 2.105 . S
O342 C336 1.268 . S
O343 Sc330 2.105 . S
O343 C337 1.268 . S
O344 Sc332 2.105 . S
O344 C338 1.268 . S
O345 Sc331 2.105 . S
O345 C339 1.268 . S
O346 Sc330 2.105 . S
O346 C338 1.268 . S
O347 Sc331 2.105 . S
O347 C337 1.268 . S
O348 Sc332 2.105 . S
O348 C339 1.268 . S
O349 Sc330 2.105 1_554 S
O349 C335 1.268 . S
O350 Sc332 2.105 . S
O350 C334 1.268 . S
O351 Sc331 2.105 . S
O351 C336 1.268 . S
H352 C360 0.929 . S
H353 C362 0.930 . S
H354 C364 0.930 . S
H355 C367 0.929 . S
H356 C370 0.930 . S
H357 C372 0.960 . S
H358 C372 0.960 . S
H359 C372 0.960 . S
C360 H352 0.929 . S
C360 C361 1.377 . S
C360 C362 1.384 . S
C361 C360 1.377 . S
C361 C367 1.390 . S
C362 H353 0.930 . S
C362 C360 1.384 . S
C362 C363 1.372 . S
C363 C362 1.372 . S
C363 C364 1.400 . S
C363 C368 1.490 . S
C364 H354 0.930 . S
C364 C363 1.400 . S
C364 C367 1.386 . S
H365 C381 0.930 . S
H366 C382 0.931 . S
C367 H355 0.929 . S
C367 C361 1.390 . S
C367 C364 1.386 . S
C368 C363 1.490 . S
C368 C370 1.395 . S
C368 C371 1.403 . S
H369 C375 0.930 . S
C370 H356 0.930 . S
C370 C368 1.395 . S
C370 C373 1.403 . S
C371 C368 1.403 . S
C371 C372 1.524 . S
C371 C375 1.400 . S
C372 H357 0.960 . S
C372 H358 0.960 . S
C372 H359 0.960 . S
C372 C371 1.524 . S
C373 C370 1.403 . S
C373 C374 1.392 . S
C373 C377 1.495 . S
C374 C373 1.392 . S
C374 C375 1.385 . S
C374 C376 1.478 . S
C375 H369 0.930 . S
C375 C371 1.400 . S
C375 C374 1.385 . S
C376 C374 1.478 . S
C376 C378 1.381 . S
C376 C382 1.383 . S
C377 C373 1.495 . S
C377 H383 0.959 . S
C377 H384 0.961 . S
C377 H385 0.960 . S
C378 C376 1.381 . S
C378 C379 1.394 . S
C378 H386 0.930 . S
C379 C378 1.394 . S
C379 C380 1.383 . S
C379 H387 0.929 . S
C380 C379 1.383 . S
C380 C381 1.377 . S
C381 H365 0.930 . S
C381 C380 1.377 . S
C381 C382 1.379 . S
C382 H366 0.931 . S
C382 C376 1.383 . S
C382 C381 1.379 . S
H383 C377 0.959 . S
H384 C377 0.961 . S
H385 C377 0.960 . S
H386 C378 0.930 . S
H387 C379 0.929 . S
H388 C396 0.929 . S
H389 C398 0.930 . S
H390 C400 0.930 . S
H391 C403 0.929 . S
H392 C406 0.930 . S
H393 C408 0.960 . S
H394 C408 0.960 . S
H395 C408 0.960 . S
C396 H388 0.929 . S
C396 C397 1.377 . S
C396 C398 1.384 . S
C397 C396 1.377 . S
C397 C403 1.390 . S
C398 H389 0.930 . S
C398 C396 1.384 . S
C398 C399 1.372 . S
C399 C398 1.372 . S
C399 C400 1.400 . S
C399 C404 1.490 . S
C400 H390 0.930 . S
C400 C399 1.400 . S
C400 C403 1.386 . S
H401 C417 0.930 . S
H402 C418 0.931 . S
C403 H391 0.929 . S
C403 C397 1.390 . S
C403 C400 1.386 . S
C404 C399 1.490 . S
C404 C406 1.395 . S
C404 C407 1.403 . S
H405 C411 0.930 . S
C406 H392 0.930 . S
C406 C404 1.395 . S
C406 C409 1.403 . S
C407 C404 1.403 . S
C407 C408 1.524 . S
C407 C411 1.400 . S
C408 H393 0.960 . S
C408 H394 0.960 . S
C408 H395 0.960 . S
C408 C407 1.524 . S
C409 C406 1.403 . S
C409 C410 1.392 . S
C409 C413 1.495 . S
C410 C409 1.392 . S
C410 C411 1.385 . S
C410 C412 1.478 . S
C411 H405 0.930 . S
C411 C407 1.400 . S
C411 C410 1.385 . S
C412 C410 1.478 . S
C412 C414 1.381 . S
C412 C418 1.383 . S
C413 C409 1.495 . S
C413 H419 0.959 . S
C413 H420 0.961 . S
C413 H421 0.960 . S
C414 C412 1.381 . S
C414 C415 1.394 . S
C414 H422 0.930 . S
C415 C414 1.394 . S
C415 C416 1.383 . S
C415 H423 0.929 . S
C416 C415 1.383 . S
C416 C417 1.377 . S
C417 H401 0.930 . S
C417 C416 1.377 . S
C417 C418 1.379 . S
C418 H402 0.931 . S
C418 C412 1.383 . S
C418 C417 1.379 . S
H419 C413 0.959 . S
H420 C413 0.961 . S
H421 C413 0.960 . S
H422 C414 0.930 . S
H423 C415 0.929 . S
H424 C432 0.929 . S
H425 C434 0.930 . S
H426 C436 0.930 . S
H427 C439 0.929 . S
H428 C442 0.930 . S
H429 C444 0.960 . S
H430 C444 0.960 . S
H431 C444 0.960 . S
C432 H424 0.929 . S
C432 C433 1.377 . S
C432 C434 1.384 . S
C433 C432 1.377 . S
C433 C439 1.390 . S
C434 H425 0.930 . S
C434 C432 1.384 . S
C434 C435 1.372 . S
C435 C434 1.372 . S
C435 C436 1.400 . S
C435 C440 1.490 . S
C436 H426 0.930 . S
C436 C435 1.400 . S
C436 C439 1.386 . S
H437 C453 0.930 . S
H438 C454 0.931 . S
C439 H427 0.929 . S
C439 C433 1.390 . S
C439 C436 1.386 . S
C440 C435 1.490 . S
C440 C442 1.395 . S
C440 C443 1.403 . S
H441 C447 0.930 . S
C442 H428 0.930 . S
C442 C440 1.395 . S
C442 C445 1.403 . S
C443 C440 1.403 . S
C443 C444 1.524 . S
C443 C447 1.400 . S
C444 H429 0.960 . S
C444 H430 0.960 . S
C444 H431 0.960 . S
C444 C443 1.524 . S
C445 C442 1.403 . S
C445 C446 1.392 . S
C445 C449 1.495 . S
C446 C445 1.392 . S
C446 C447 1.385 . S
C446 C448 1.478 . S
C447 H441 0.930 . S
C447 C443 1.400 . S
C447 C446 1.385 . S
C448 C446 1.478 . S
C448 C450 1.381 . S
C448 C454 1.383 . S
C449 C445 1.495 . S
C449 H455 0.959 . S
C449 H456 0.961 . S
C449 H457 0.960 . S
C450 C448 1.381 . S
C450 C451 1.394 . S
C450 H458 0.930 . S
C451 C450 1.394 . S
C451 C452 1.383 . S
C451 H459 0.929 . S
C452 C451 1.383 . S
C452 C453 1.377 . S
C453 H437 0.930 . S
C453 C452 1.377 . S
C453 C454 1.379 . S
C454 H438 0.931 . S
C454 C448 1.383 . S
C454 C453 1.379 . S
H455 C449 0.959 . S
H456 C449 0.961 . S
H457 C449 0.960 . S
H458 C450 0.930 . S
H459 C451 0.929 . S
H460 C468 0.929 . S
H461 C470 0.930 . S
H462 C472 0.930 . S
H463 C475 0.929 . S
H464 C478 0.930 . S
H465 C480 0.960 . S
H466 C480 0.960 . S
H467 C480 0.960 . S
C468 H460 0.929 . S
C468 C469 1.377 . S
C468 C470 1.384 . S
C469 C468 1.377 . S
C469 C475 1.390 . S
C470 H461 0.930 . S
C470 C468 1.384 . S
C470 C471 1.372 . S
C471 C470 1.372 . S
C471 C472 1.400 . S
C471 C476 1.490 . S
C472 H462 0.930 . S
C472 C471 1.400 . S
C472 C475 1.386 . S
H473 C489 0.930 . S
H474 C490 0.931 . S
C475 H463 0.929 . S
C475 C469 1.390 . S
C475 C472 1.386 . S
C476 C471 1.490 . S
C476 C478 1.395 . S
C476 C479 1.403 . S
H477 C483 0.930 . S
C478 H464 0.930 . S
C478 C476 1.395 . S
C478 C481 1.403 . S
C479 C476 1.403 . S
C479 C480 1.524 . S
C479 C483 1.400 . S
C480 H465 0.960 . S
C480 H466 0.960 . S
C480 H467 0.960 . S
C480 C479 1.524 . S
C481 C478 1.403 . S
C481 C482 1.392 . S
C481 C485 1.495 . S
C482 C481 1.392 . S
C482 C483 1.385 . S
C482 C484 1.478 . S
C483 H477 0.930 . S
C483 C479 1.400 . S
C483 C482 1.385 . S
C484 C482 1.478 . S
C484 C486 1.381 . S
C484 C490 1.383 . S
C485 C481 1.495 . S
C485 H491 0.959 . S
C485 H492 0.961 . S
C485 H493 0.960 . S
C486 C484 1.381 . S
C486 C487 1.394 . S
C486 H494 0.930 . S
C487 C486 1.394 . S
C487 C488 1.383 . S
C487 H495 0.929 . S
C488 C487 1.383 . S
C488 C489 1.377 . S
C489 H473 0.930 . S
C489 C488 1.377 . S
C489 C490 1.379 . S
C490 H474 0.931 . S
C490 C484 1.383 . S
C490 C489 1.379 . S
H491 C485 0.959 . S
H492 C485 0.961 . S
H493 C485 0.960 . S
H494 C486 0.930 . S
H495 C487 0.929 . S
H496 C504 0.929 . S
H497 C506 0.930 . S
H498 C508 0.930 . S
H499 C511 0.929 . S
H500 C514 0.930 . S
H501 C516 0.960 . S
H502 C516 0.960 . S
H503 C516 0.960 . S
C504 H496 0.929 . S
C504 C505 1.377 . S
C504 C506 1.384 . S
C505 C504 1.377 . S
C505 C511 1.390 . S
C506 H497 0.930 . S
C506 C504 1.384 . S
C506 C507 1.372 . S
C507 C506 1.372 . S
C507 C508 1.400 . S
C507 C512 1.490 . S
C508 H498 0.930 . S
C508 C507 1.400 . S
C508 C511 1.386 . S
H509 C525 0.930 . S
H510 C526 0.931 . S
C511 H499 0.929 . S
C511 C505 1.390 . S
C511 C508 1.386 . S
C512 C507 1.490 . S
C512 C514 1.395 . S
C512 C515 1.403 . S
H513 C519 0.930 . S
C514 H500 0.930 . S
C514 C512 1.395 . S
C514 C517 1.403 . S
C515 C512 1.403 . S
C515 C516 1.524 . S
C515 C519 1.400 . S
C516 H501 0.960 . S
C516 H502 0.960 . S
C516 H503 0.960 . S
C516 C515 1.524 . S
C517 C514 1.403 . S
C517 C518 1.392 . S
C517 C521 1.495 . S
C518 C517 1.392 . S
C518 C519 1.385 . S
C518 C520 1.478 . S
C519 H513 0.930 . S
C519 C515 1.400 . S
C519 C518 1.385 . S
C520 C518 1.478 . S
C520 C522 1.381 . S
C520 C526 1.383 . S
C521 C517 1.495 . S
C521 H527 0.959 . S
C521 H528 0.961 . S
C521 H529 0.960 . S
C522 C520 1.381 . S
C522 C523 1.394 . S
C522 H530 0.930 . S
C523 C522 1.394 . S
C523 C524 1.383 . S
C523 H531 0.929 . S
C524 C523 1.383 . S
C524 C525 1.377 . S
C525 H509 0.930 . S
C525 C524 1.377 . S
C525 C526 1.379 . S
C526 H510 0.931 . S
C526 C520 1.383 . S
C526 C525 1.379 . S
H527 C521 0.959 . S
H528 C521 0.961 . S
H529 C521 0.960 . S
H530 C522 0.930 . S
H531 C523 0.929 . S
H532 C540 0.929 . S
H533 C542 0.930 . S
H534 C544 0.930 . S
H535 C547 0.929 . S
H536 C550 0.930 . S
H537 C552 0.960 . S
H538 C552 0.960 . S
H539 C552 0.960 . S
C540 H532 0.929 . S
C540 C541 1.377 . S
C540 C542 1.384 . S
C541 C540 1.377 . S
C541 C547 1.390 . S
C542 H533 0.930 . S
C542 C540 1.384 . S
C542 C543 1.372 . S
C543 C542 1.372 . S
C543 C544 1.400 . S
C543 C548 1.490 . S
C544 H534 0.930 . S
C544 C543 1.400 . S
C544 C547 1.386 . S
H545 C561 0.930 . S
H546 C562 0.931 . S
C547 H535 0.929 . S
C547 C541 1.390 . S
C547 C544 1.386 . S
C548 C543 1.490 . S
C548 C550 1.395 . S
C548 C551 1.403 . S
H549 C555 0.930 . S
C550 H536 0.930 . S
C550 C548 1.395 . S
C550 C553 1.403 . S
C551 C548 1.403 . S
C551 C552 1.524 . S
C551 C555 1.400 . S
C552 H537 0.960 . S
C552 H538 0.960 . S
C552 H539 0.960 . S
C552 C551 1.524 . S
C553 C550 1.403 . S
C553 C554 1.392 . S
C553 C557 1.495 . S
C554 C553 1.392 . S
C554 C555 1.385 . S
C554 C556 1.478 . S
C555 H549 0.930 . S
C555 C551 1.400 . S
C555 C554 1.385 . S
C556 C554 1.478 . S
C556 C558 1.381 . S
C556 C562 1.383 . S
C557 C553 1.495 . S
C557 H563 0.959 . S
C557 H564 0.961 . S
C557 H565 0.960 . S
C558 C556 1.381 . S
C558 C559 1.394 . S
C558 H566 0.930 . S
C559 C558 1.394 . S
C559 C560 1.383 . S
C559 H567 0.929 . S
C560 C559 1.383 . S
C560 C561 1.377 . S
C561 H545 0.930 . S
C561 C560 1.377 . S
C561 C562 1.379 . S
C562 H546 0.931 . S
C562 C556 1.383 . S
C562 C561 1.379 . S
H563 C557 0.959 . S
H564 C557 0.961 . S
H565 C557 0.960 . S
H566 C558 0.930 . S
H567 C559 0.929 . S
H568 C576 0.929 . S
H569 C578 0.930 . S
H570 C580 0.930 . S
H571 C583 0.929 . S
H572 C586 0.930 . S
H573 C588 0.960 . S
H574 C588 0.960 . S
H575 C588 0.960 . S
C576 H568 0.929 . S
C576 C577 1.377 . S
C576 C578 1.384 . S
C577 C576 1.377 . S
C577 C583 1.390 . S
C578 H569 0.930 . S
C578 C576 1.384 . S
C578 C579 1.372 . S
C579 C578 1.372 . S
C579 C580 1.400 . S
C579 C584 1.490 . S
C580 H570 0.930 . S
C580 C579 1.400 . S
C580 C583 1.386 . S
H581 C597 0.930 . S
H582 C598 0.931 . S
C583 H571 0.929 . S
C583 C577 1.390 . S
C583 C580 1.386 . S
C584 C579 1.490 . S
C584 C586 1.395 . S
C584 C587 1.403 . S
H585 C591 0.930 . S
C586 H572 0.930 . S
C586 C584 1.395 . S
C586 C589 1.403 . S
C587 C584 1.403 . S
C587 C588 1.524 . S
C587 C591 1.400 . S
C588 H573 0.960 . S
C588 H574 0.960 . S
C588 H575 0.960 . S
C588 C587 1.524 . S
C589 C586 1.403 . S
C589 C590 1.392 . S
C589 C593 1.495 . S
C590 C589 1.392 . S
C590 C591 1.385 . S
C590 C592 1.478 . S
C591 H585 0.930 . S
C591 C587 1.400 . S
C591 C590 1.385 . S
C592 C590 1.478 . S
C592 C594 1.381 . S
C592 C598 1.383 . S
C593 C589 1.495 . S
C593 H599 0.959 . S
C593 H600 0.961 . S
C593 H601 0.960 . S
C594 C592 1.381 . S
C594 C595 1.394 . S
C594 H602 0.930 . S
C595 C594 1.394 . S
C595 C596 1.383 . S
C595 H603 0.929 . S
C596 C595 1.383 . S
C596 C597 1.377 . S
C597 H581 0.930 . S
C597 C596 1.377 . S
C597 C598 1.379 . S
C598 H582 0.931 . S
C598 C592 1.383 . S
C598 C597 1.379 . S
H599 C593 0.959 . S
H600 C593 0.961 . S
H601 C593 0.960 . S
H602 C594 0.930 . S
H603 C595 0.929 . S
H604 C612 0.929 . S
H605 C614 0.930 . S
H606 C616 0.930 . S
H607 C619 0.929 . S
H608 C622 0.930 . S
H609 C624 0.960 . S
H610 C624 0.960 . S
H611 C624 0.960 . S
C612 H604 0.929 . S
C612 C613 1.377 . S
C612 C614 1.384 . S
C613 C612 1.377 . S
C613 C619 1.390 . S
C614 H605 0.930 . S
C614 C612 1.384 . S
C614 C615 1.372 . S
C615 C614 1.372 . S
C615 C616 1.400 . S
C615 C620 1.490 . S
C616 H606 0.930 . S
C616 C615 1.400 . S
C616 C619 1.386 . S
H617 C633 0.930 . S
H618 C634 0.931 . S
C619 H607 0.929 . S
C619 C613 1.390 . S
C619 C616 1.386 . S
C620 C615 1.490 . S
C620 C622 1.395 . S
C620 C623 1.403 . S
H621 C627 0.930 . S
C622 H608 0.930 . S
C622 C620 1.395 . S
C622 C625 1.403 . S
C623 C620 1.403 . S
C623 C624 1.524 . S
C623 C627 1.400 . S
C624 H609 0.960 . S
C624 H610 0.960 . S
C624 H611 0.960 . S
C624 C623 1.524 . S
C625 C622 1.403 . S
C625 C626 1.392 . S
C625 C629 1.495 . S
C626 C625 1.392 . S
C626 C627 1.385 . S
C626 C628 1.478 . S
C627 H621 0.930 . S
C627 C623 1.400 . S
C627 C626 1.385 . S
C628 C626 1.478 . S
C628 C630 1.381 . S
C628 C634 1.383 . S
C629 C625 1.495 . S
C629 H635 0.959 . S
C629 H636 0.961 . S
C629 H637 0.960 . S
C630 C628 1.381 . S
C630 C631 1.394 . S
C630 H638 0.930 . S
C631 C630 1.394 . S
C631 C632 1.383 . S
C631 H639 0.929 . S
C632 C631 1.383 . S
C632 C633 1.377 . S
C633 H617 0.930 . S
C633 C632 1.377 . S
C633 C634 1.379 . S
C634 H618 0.931 . S
C634 C628 1.383 . S
C634 C633 1.379 . S
H635 C629 0.959 . S
H636 C629 0.961 . S
H637 C629 0.960 . S
H638 C630 0.930 . S
H639 C631 0.929 . S
H640 C648 0.929 . S
H641 C650 0.930 . S
H642 C652 0.930 1_556 S
H643 C655 0.929 1_556 S
H644 C658 0.930 . S
H645 C660 0.960 . S
H646 C660 0.960 . S
H647 C660 0.960 . S
C648 H640 0.929 . S
C648 C649 1.377 . S
C648 C650 1.384 . S
C649 C648 1.377 . S
C649 C655 1.390 . S
C650 H641 0.930 . S
C650 C648 1.384 . S
C650 C651 1.372 . S
C651 C650 1.372 . S
C651 C652 1.400 . S
C651 C656 1.490 . S
C652 H642 0.930 1_554 S
C652 C651 1.400 . S
C652 C655 1.386 . S
H653 C669 0.930 . S
H654 C670 0.931 . S
C655 H643 0.929 1_554 S
C655 C649 1.390 . S
C655 C652 1.386 . S
C656 C651 1.490 . S
C656 C658 1.395 . S
C656 C659 1.403 . S
H657 C663 0.930 . S
C658 H644 0.930 . S
C658 C656 1.395 . S
C658 C661 1.403 . S
C659 C656 1.403 . S
C659 C660 1.524 . S
C659 C663 1.400 . S
C660 H645 0.960 . S
C660 H646 0.960 . S
C660 H647 0.960 . S
C660 C659 1.524 . S
C661 C658 1.403 . S
C661 C662 1.392 . S
C661 C665 1.495 . S
C662 C661 1.392 . S
C662 C663 1.385 . S
C662 C664 1.478 1_554 S
C663 H657 0.930 . S
C663 C659 1.400 . S
C663 C662 1.385 . S
C664 C662 1.478 1_556 S
C664 C666 1.381 1_556 S
C664 C670 1.383 . S
C665 C661 1.495 . S
C665 H671 0.959 . S
C665 H672 0.961 1_554 S
C665 H673 0.960 . S
C666 C664 1.381 1_554 S
C666 C667 1.394 . S
C666 H674 0.930 . S
C667 C666 1.394 . S
C667 C668 1.383 1_554 S
C667 H675 0.929 . S
C668 C667 1.383 1_556 S
C668 C669 1.377 . S
C669 H653 0.930 . S
C669 C668 1.377 . S
C669 C670 1.379 . S
C670 H654 0.931 . S
C670 C664 1.383 . S
C670 C669 1.379 . S
H671 C665 0.959 . S
H672 C665 0.961 1_556 S
H673 C665 0.960 . S
H674 C666 0.930 . S
H675 C667 0.929 . S
H676 C684 0.929 . S
H677 C686 0.930 . S
H678 C688 0.930 . S
H679 C691 0.929 . S
H680 C694 0.930 . S
H681 C696 0.960 . S
H682 C696 0.960 . S
H683 C696 0.960 1_554 S
C684 H676 0.929 . S
C684 C685 1.377 1_556 S
C684 C686 1.384 . S
C685 C684 1.377 1_554 S
C685 C691 1.390 . S
C686 H677 0.930 . S
C686 C684 1.384 . S
C686 C687 1.372 1_556 S
C687 C686 1.372 1_554 S
C687 C688 1.400 . S
C687 C692 1.490 1_554 S
C688 H678 0.930 . S
C688 C687 1.400 . S
C688 C691 1.386 . S
H689 C705 0.930 1_554 S
H690 C706 0.931 1_554 S
C691 H679 0.929 . S
C691 C685 1.390 . S
C691 C688 1.386 . S
C692 C687 1.490 1_556 S
C692 C694 1.395 . S
C692 C695 1.403 . S
H693 C699 0.930 . S
C694 H680 0.930 . S
C694 C692 1.395 . S
C694 C697 1.403 . S
C695 C692 1.403 . S
C695 C696 1.524 . S
C695 C699 1.400 . S
C696 H681 0.960 . S
C696 H682 0.960 . S
C696 H683 0.960 1_556 S
C696 C695 1.524 . S
C697 C694 1.403 . S
C697 C698 1.392 . S
C697 C701 1.495 . S
C698 C697 1.392 . S
C698 C699 1.385 . S
C698 C700 1.478 . S
C699 H693 0.930 . S
C699 C695 1.400 . S
C699 C698 1.385 . S
C700 C698 1.478 . S
C700 C702 1.381 . S
C700 C706 1.383 . S
C701 C697 1.495 . S
C701 H707 0.959 . S
C701 H708 0.961 1_556 S
C701 H709 0.960 . S
C702 C700 1.381 . S
C702 C703 1.394 . S
C702 H710 0.930 . S
C703 C702 1.394 . S
C703 C704 1.383 . S
C703 H711 0.929 . S
C704 C703 1.383 . S
C704 C705 1.377 . S
C705 H689 0.930 1_556 S
C705 C704 1.377 . S
C705 C706 1.379 . S
C706 H690 0.931 1_556 S
C706 C700 1.383 . S
C706 C705 1.379 . S
H707 C701 0.959 . S
H708 C701 0.961 1_554 S
H709 C701 0.960 . S
H710 C702 0.930 . S
H711 C703 0.929 . S
H712 C720 0.929 . S
H713 C722 0.930 . S
H714 C724 0.930 . S
H715 C727 0.929 . S
H716 C730 0.930 . S
H717 C732 0.960 . S
H718 C732 0.960 . S
H719 C732 0.960 1_554 S
C720 H712 0.929 . S
C720 C721 1.377 . S
C720 C722 1.384 . S
C721 C720 1.377 . S
C721 C727 1.390 1_556 S
C722 H713 0.930 . S
C722 C720 1.384 . S
C722 C723 1.372 . S
C723 C722 1.372 . S
C723 C724 1.400 1_556 S
C723 C728 1.490 1_556 S
C724 H714 0.930 . S
C724 C723 1.400 1_554 S
C724 C727 1.386 . S
H725 C741 0.930 . S
H726 C742 0.931 . S
C727 H715 0.929 . S
C727 C721 1.390 1_554 S
C727 C724 1.386 . S
C728 C723 1.490 1_554 S
C728 C730 1.395 . S
C728 C731 1.403 . S
H729 C735 0.930 . S
C730 H716 0.930 . S
C730 C728 1.395 . S
C730 C733 1.403 . S
C731 C728 1.403 . S
C731 C732 1.520 1_554 S
C731 C735 1.403 . S
C732 H717 0.960 . S
C732 H718 0.960 . S
C732 H719 0.960 1_556 S
C732 C731 1.520 1_556 S
C733 C730 1.403 . S
C733 C734 1.392 . S
C733 C737 1.495 . S
C734 C733 1.392 . S
C734 C735 1.385 . S
C734 C736 1.478 . S
C735 H729 0.930 . S
C735 C731 1.403 . S
C735 C734 1.385 . S
C736 C734 1.478 . S
C736 C738 1.381 . S
C736 C742 1.383 . S
C737 C733 1.495 . S
C737 H743 0.959 . S
C737 H744 0.961 . S
C737 H745 0.960 . S
C738 C736 1.381 . S
C738 C739 1.394 . S
C738 H746 0.930 1_554 S
C739 C738 1.394 . S
C739 C740 1.383 . S
C739 H747 0.929 1_544 S
C740 C739 1.383 . S
C740 C741 1.377 . S
C741 H725 0.930 . S
C741 C740 1.377 . S
C741 C742 1.379 . S
C742 H726 0.931 . S
C742 C736 1.383 . S
C742 C741 1.379 . S
H743 C737 0.959 . S
H744 C737 0.961 . S
H745 C737 0.960 . S
H746 C738 0.930 1_556 S
H747 C739 0.929 1_566 S
H748 C756 0.929 . S
H749 C758 0.930 . S
H750 C760 0.931 . S
H751 C763 0.929 1_554 S
H752 C766 0.930 . S
H753 C768 0.960 . S
H754 C768 0.960 1_556 S
H755 C768 0.960 . S
C756 H748 0.929 . S
C756 C757 1.377 . S
C756 C758 1.384 . S
C757 C756 1.377 . S
C757 C763 1.390 . S
C758 H749 0.930 . S
C758 C756 1.384 . S
C758 C759 1.372 . S
C759 C758 1.372 . S
C759 C760 1.399 1_556 S
C759 C764 1.490 . S
C760 H750 0.931 . S
C760 C759 1.399 1_554 S
C760 C763 1.386 1_554 S
H761 C777 0.930 . S
H762 C778 0.931 . S
C763 H751 0.929 1_556 S
C763 C757 1.390 . S
C763 C760 1.386 1_556 S
C764 C759 1.490 . S
C764 C766 1.395 . S
C764 C767 1.403 . S
H765 C771 0.930 . S
C766 H752 0.930 . S
C766 C764 1.395 . S
C766 C769 1.403 . S
C767 C764 1.403 . S
C767 C768 1.524 1_556 S
C767 C771 1.400 1_556 S
C768 H753 0.960 . S
C768 H754 0.960 1_554 S
C768 H755 0.960 . S
C768 C767 1.524 1_554 S
C769 C766 1.403 . S
C769 C770 1.392 . S
C769 C773 1.495 . S
C770 C769 1.392 . S
C770 C771 1.385 1_556 S
C770 C772 1.473 1_556 S
C771 H765 0.930 . S
C771 C767 1.400 1_554 S
C771 C770 1.385 1_554 S
C772 C770 1.473 1_554 S
C772 C774 1.366 1_554 S
C772 C778 1.403 . S
C773 C769 1.495 . S
C773 H779 0.959 . S
C773 H780 0.961 . S
C773 H781 0.960 . S
C774 C772 1.366 1_556 S
C774 C775 1.394 . S
C774 H782 0.930 . S
C775 C774 1.394 . S
C775 C776 1.383 1_556 S
C775 H783 0.929 . S
C776 C775 1.383 1_554 S
C776 C777 1.377 . S
C777 H761 0.930 . S
C777 C776 1.377 . S
C777 C778 1.379 . S
C778 H762 0.931 . S
C778 C772 1.403 . S
C778 C777 1.379 . S
H779 C773 0.959 . S
H780 C773 0.961 . S
H781 C773 0.960 . S
H782 C774 0.930 . S
H783 C775 0.929 . S
H784 C792 0.929 1_545 S
H785 C794 0.930 . S
H786 C796 0.930 . S
H787 C799 0.929 . S
H788 C802 0.930 . S
H789 C804 0.960 . S
H790 C804 0.960 . S
H791 C804 0.960 . S
C792 H784 0.929 1_565 S
C792 C793 1.377 . S
C792 C794 1.384 . S
C793 C792 1.377 . S
C793 C799 1.390 . S
C794 H785 0.930 . S
C794 C792 1.384 . S
C794 C795 1.372 . S
C795 C794 1.372 . S
C795 C796 1.400 . S
C795 C800 1.490 . S
C796 H786 0.930 . S
C796 C795 1.400 . S
C796 C799 1.386 . S
H797 C813 0.930 . S
H798 C814 0.931 . S
C799 H787 0.929 . S
C799 C793 1.390 . S
C799 C796 1.386 . S
C800 C795 1.490 . S
C800 C802 1.395 . S
C800 C803 1.403 . S
H801 C807 0.930 . S
C802 H788 0.930 . S
C802 C800 1.395 . S
C802 C805 1.403 . S
C803 C800 1.403 . S
C803 C804 1.524 . S
C803 C807 1.400 . S
C804 H789 0.960 . S
C804 H790 0.960 . S
C804 H791 0.960 . S
C804 C803 1.524 . S
C805 C802 1.403 . S
C805 C806 1.392 . S
C805 C809 1.495 . S
C806 C805 1.392 . S
C806 C807 1.385 . S
C806 C808 1.478 . S
C807 H801 0.930 . S
C807 C803 1.400 . S
C807 C806 1.385 . S
C808 C806 1.478 . S
C808 C810 1.381 . S
C808 C814 1.383 . S
C809 C805 1.495 . S
C809 H815 0.959 . S
C809 H816 0.961 . S
C809 H817 0.960 . S
C810 C808 1.381 . S
C810 C811 1.394 . S
C810 H818 0.930 . S
C811 C810 1.394 . S
C811 C812 1.383 . S
C811 H819 0.929 . S
C812 C811 1.383 . S
C812 C813 1.377 . S
C813 H797 0.930 . S
C813 C812 1.377 . S
C813 C814 1.379 . S
C814 H798 0.931 . S
C814 C808 1.383 . S
C814 C813 1.379 . S
H815 C809 0.959 . S
H816 C809 0.961 . S
H817 C809 0.960 . S
H818 C810 0.930 . S
H819 C811 0.929 . S
H820 C828 0.929 . S
H821 C830 0.930 . S
H822 C832 0.930 . S
H823 C835 0.929 . S
H824 C838 0.930 . S
H825 C840 0.960 . S
H826 C840 0.960 . S
H827 C840 0.960 . S
C828 H820 0.929 . S
C828 C829 1.377 . S
C828 C830 1.384 . S
C829 C828 1.377 . S
C829 C835 1.390 . S
C830 H821 0.930 . S
C830 C828 1.384 . S
C830 C831 1.372 . S
C831 C830 1.372 . S
C831 C832 1.400 . S
C831 C836 1.490 . S
C832 H822 0.930 . S
C832 C831 1.400 . S
C832 C835 1.386 . S
H833 C849 0.930 . S
H834 C850 0.931 . S
C835 H823 0.929 . S
C835 C829 1.390 . S
C835 C832 1.386 . S
C836 C831 1.490 . S
C836 C838 1.395 . S
C836 C839 1.403 . S
H837 C843 0.930 . S
C838 H824 0.930 . S
C838 C836 1.395 . S
C838 C841 1.403 . S
C839 C836 1.403 . S
C839 C840 1.524 . S
C839 C843 1.400 . S
C840 H825 0.960 . S
C840 H826 0.960 . S
C840 H827 0.960 . S
C840 C839 1.524 . S
C841 C838 1.403 . S
C841 C842 1.392 . S
C841 C845 1.495 . S
C842 C841 1.392 . S
C842 C843 1.385 . S
C842 C844 1.478 . S
C843 H837 0.930 . S
C843 C839 1.400 . S
C843 C842 1.385 . S
C844 C842 1.478 . S
C844 C846 1.381 . S
C844 C850 1.383 . S
C845 C841 1.495 . S
C845 H851 0.959 . S
C845 H852 0.961 . S
C845 H853 0.960 . S
C846 C844 1.381 . S
C846 C847 1.394 . S
C846 H854 0.930 . S
C847 C846 1.394 . S
C847 C848 1.383 . S
C847 H855 0.929 1_655 S
C848 C847 1.383 . S
C848 C849 1.377 . S
C849 H833 0.930 . S
C849 C848 1.377 . S
C849 C850 1.379 . S
C850 H834 0.931 . S
C850 C844 1.383 . S
C850 C849 1.379 . S
H851 C845 0.959 . S
H852 C845 0.961 . S
H853 C845 0.960 . S
H854 C846 0.930 . S
H855 C847 0.929 1_455 S
H856 C864 0.929 . S
H857 C866 0.930 . S
H858 C868 0.930 . S
H859 C871 0.929 . S
H860 C874 0.930 . S
H861 C876 0.960 . S
H862 C876 0.960 . S
H863 C876 0.960 . S
C864 H856 0.929 . S
C864 C865 1.377 . S
C864 C866 1.384 . S
C865 C864 1.377 . S
C865 C871 1.390 . S
C866 H857 0.930 . S
C866 C864 1.384 . S
C866 C867 1.372 . S
C867 C866 1.372 . S
C867 C868 1.400 . S
C867 C872 1.490 . S
C868 H858 0.930 . S
C868 C867 1.400 . S
C868 C871 1.386 . S
H869 C885 0.930 . S
H870 C886 0.931 . S
C871 H859 0.929 . S
C871 C865 1.390 . S
C871 C868 1.386 . S
C872 C867 1.490 . S
C872 C874 1.395 . S
C872 C875 1.403 . S
H873 C879 0.930 . S
C874 H860 0.930 . S
C874 C872 1.395 . S
C874 C877 1.403 . S
C875 C872 1.403 . S
C875 C876 1.524 . S
C875 C879 1.400 . S
C876 H861 0.960 . S
C876 H862 0.960 . S
C876 H863 0.960 . S
C876 C875 1.524 . S
C877 C874 1.403 . S
C877 C878 1.392 . S
C877 C881 1.495 . S
C878 C877 1.392 . S
C878 C879 1.385 . S
C878 C880 1.478 . S
C879 H873 0.930 . S
C879 C875 1.400 . S
C879 C878 1.385 . S
C880 C878 1.478 . S
C880 C882 1.381 . S
C880 C886 1.383 . S
C881 C877 1.495 . S
C881 H887 0.959 . S
C881 H888 0.961 . S
C881 H889 0.960 . S
C882 C880 1.381 . S
C882 C883 1.394 . S
C882 H890 0.930 . S
C883 C882 1.394 . S
C883 C884 1.383 . S
C883 H891 0.929 1_545 S
C884 C883 1.383 . S
C884 C885 1.377 . S
C885 H869 0.930 . S
C885 C884 1.377 . S
C885 C886 1.379 . S
C886 H870 0.931 . S
C886 C880 1.383 . S
C886 C885 1.379 . S
H887 C881 0.959 . S
H888 C881 0.961 . S
H889 C881 0.960 . S
H890 C882 0.930 . S
H891 C883 0.929 1_565 S
H892 C900 0.929 . S
H893 C902 0.930 . S
H894 C904 0.930 . S
H895 C907 0.929 . S
H896 C910 0.930 . S
H897 C912 0.960 . S
H898 C912 0.960 . S
H899 C912 0.960 . S
C900 H892 0.929 . S
C900 C901 1.377 . S
C900 C902 1.384 . S
C901 C900 1.377 . S
C901 C907 1.390 . S
C902 H893 0.930 . S
C902 C900 1.384 . S
C902 C903 1.372 . S
C903 C902 1.372 . S
C903 C904 1.400 . S
C903 C908 1.490 . S
C904 H894 0.930 . S
C904 C903 1.400 . S
C904 C907 1.386 . S
H905 C921 0.930 . S
H906 C922 0.931 . S
C907 H895 0.929 . S
C907 C901 1.390 . S
C907 C904 1.386 . S
C908 C903 1.490 . S
C908 C910 1.395 . S
C908 C911 1.403 . S
H909 C915 0.930 . S
C910 H896 0.930 . S
C910 C908 1.395 . S
C910 C913 1.403 . S
C911 C908 1.403 . S
C911 C912 1.524 . S
C911 C915 1.400 . S
C912 H897 0.960 . S
C912 H898 0.960 . S
C912 H899 0.960 . S
C912 C911 1.524 . S
C913 C910 1.403 . S
C913 C914 1.392 . S
C913 C917 1.495 . S
C914 C913 1.392 . S
C914 C915 1.385 . S
C914 C916 1.478 . S
C915 H909 0.930 . S
C915 C911 1.400 . S
C915 C914 1.385 . S
C916 C914 1.478 . S
C916 C918 1.381 . S
C916 C922 1.383 . S
C917 C913 1.495 . S
C917 H923 0.959 . S
C917 H924 0.961 . S
C917 H925 0.960 . S
C918 C916 1.381 . S
C918 C919 1.394 . S
C918 H926 0.930 . S
C919 C918 1.394 . S
C919 C920 1.383 . S
C919 H927 0.929 . S
C920 C919 1.383 . S
C920 C921 1.377 . S
C921 H905 0.930 . S
C921 C920 1.377 . S
C921 C922 1.379 . S
C922 H906 0.931 . S
C922 C916 1.383 . S
C922 C921 1.379 . S
H923 C917 0.959 . S
H924 C917 0.961 . S
H925 C917 0.960 . S
H926 C918 0.930 . S
H927 C919 0.929 . S
H928 C936 0.929 . S
H929 C938 0.930 . S
H930 C940 0.930 . S
H931 C943 0.929 . S
H932 C946 0.930 . S
H933 C948 0.960 . S
H934 C948 0.960 . S
H935 C948 0.960 . S
C936 H928 0.929 . S
C936 C937 1.377 . S
C936 C938 1.384 . S
C937 C936 1.377 . S
C937 C943 1.390 . S
C938 H929 0.930 . S
C938 C936 1.384 . S
C938 C939 1.372 . S
C939 C938 1.372 . S
C939 C940 1.400 . S
C939 C944 1.490 . S
C940 H930 0.930 . S
C940 C939 1.400 . S
C940 C943 1.386 . S
H941 C957 0.930 . S
H942 C958 0.931 . S
C943 H931 0.929 . S
C943 C937 1.390 . S
C943 C940 1.386 . S
C944 C939 1.490 . S
C944 C946 1.395 . S
C944 C947 1.403 . S
H945 C951 0.930 . S
C946 H932 0.930 . S
C946 C944 1.395 . S
C946 C949 1.403 . S
C947 C944 1.403 . S
C947 C948 1.524 . S
C947 C951 1.400 . S
C948 H933 0.960 . S
C948 H934 0.960 . S
C948 H935 0.960 . S
C948 C947 1.524 . S
C949 C946 1.403 . S
C949 C950 1.392 . S
C949 C953 1.495 . S
C950 C949 1.392 . S
C950 C951 1.385 . S
C950 C952 1.478 . S
C951 H945 0.930 . S
C951 C947 1.400 . S
C951 C950 1.385 . S
C952 C950 1.478 . S
C952 C954 1.381 . S
C952 C958 1.383 . S
C953 C949 1.495 . S
C953 H959 0.959 . S
C953 H960 0.961 . S
C953 H961 0.960 . S
C954 C952 1.381 . S
C954 C955 1.394 . S
C954 H962 0.930 . S
C955 C954 1.394 . S
C955 C956 1.383 . S
C955 H963 0.929 . S
C956 C955 1.383 . S
C956 C957 1.377 . S
C957 H941 0.930 . S
C957 C956 1.377 . S
C957 C958 1.379 . S
C958 H942 0.931 . S
C958 C952 1.383 . S
C958 C957 1.379 . S
H959 C953 0.959 . S
H960 C953 0.961 . S
H961 C953 0.960 . S
H962 C954 0.930 . S
H963 C955 0.929 . S
H964 C972 0.929 . S
H965 C974 0.930 . S
H966 C976 0.930 . S
H967 C979 0.929 . S
H968 C982 0.930 . S
H969 C984 0.960 . S
H970 C984 0.960 . S
H971 C984 0.960 . S
C972 H964 0.929 . S
C972 C973 1.377 . S
C972 C974 1.384 . S
C973 C972 1.377 . S
C973 C979 1.390 . S
C974 H965 0.930 . S
C974 C972 1.384 . S
C974 C975 1.372 . S
C975 C974 1.372 . S
C975 C976 1.400 . S
C975 C980 1.490 . S
C976 H966 0.930 . S
C976 C975 1.400 . S
C976 C979 1.386 . S
H977 C993 0.930 . S
H978 C994 0.931 . S
C979 H967 0.929 . S
C979 C973 1.390 . S
C979 C976 1.386 . S
C980 C975 1.490 . S
C980 C982 1.395 . S
C980 C983 1.403 . S
H981 C987 0.930 . S
C982 H968 0.930 . S
C982 C980 1.395 . S
C982 C985 1.403 . S
C983 C980 1.403 . S
C983 C984 1.524 . S
C983 C987 1.400 . S
C984 H969 0.960 . S
C984 H970 0.960 . S
C984 H971 0.960 . S
C984 C983 1.524 . S
C985 C982 1.403 . S
C985 C986 1.392 . S
C985 C989 1.495 . S
C986 C985 1.392 . S
C986 C987 1.385 . S
C986 C988 1.478 . S
C987 H981 0.930 . S
C987 C983 1.400 . S
C987 C986 1.385 . S
C988 C986 1.478 . S
C988 C990 1.381 . S
C988 C994 1.383 . S
C989 C985 1.495 . S
C989 H995 0.959 . S
C989 H996 0.961 . S
C989 H997 0.960 . S
C990 C988 1.381 . S
C990 C991 1.394 . S
C990 H998 0.930 . S
C991 C990 1.394 . S
C991 C992 1.383 . S
C991 H999 0.929 . S
C992 C991 1.383 . S
C992 C993 1.377 . S
C993 H977 0.930 . S
C993 C992 1.377 . S
C993 C994 1.379 . S
C994 H978 0.931 . S
C994 C988 1.383 . S
C994 C993 1.379 . S
H995 C989 0.959 . S
H996 C989 0.961 . S
H997 C989 0.960 . S
H998 C990 0.930 . S
H999 C991 0.929 . S
H1000 C1008 0.929 . S
H1001 C1010 0.930 . S
H1002 C1012 0.930 . S
H1003 C1015 0.929 . S
H1004 C1018 0.930 . S
H1005 C1020 0.960 . S
H1006 C1020 0.960 . S
H1007 C1020 0.960 . S
C1008 H1000 0.929 . S
C1008 C1009 1.377 . S
C1008 C1010 1.384 . S
C1009 C1008 1.377 . S
C1009 C1015 1.390 . S
C1010 H1001 0.930 . S
C1010 C1008 1.384 . S
C1010 C1011 1.372 . S
C1011 C1010 1.372 . S
C1011 C1012 1.400 . S
C1011 C1016 1.490 . S
C1012 H1002 0.930 . S
C1012 C1011 1.400 . S
C1012 C1015 1.386 . S
H1013 C1029 0.930 . S
H1014 C1030 0.931 . S
C1015 H1003 0.929 . S
C1015 C1009 1.390 . S
C1015 C1012 1.386 . S
C1016 C1011 1.490 . S
C1016 C1018 1.395 . S
C1016 C1019 1.403 . S
H1017 C1023 0.930 . S
C1018 H1004 0.930 . S
C1018 C1016 1.395 . S
C1018 C1021 1.403 . S
C1019 C1016 1.403 . S
C1019 C1020 1.524 . S
C1019 C1023 1.400 . S
C1020 H1005 0.960 . S
C1020 H1006 0.960 . S
C1020 H1007 0.960 . S
C1020 C1019 1.524 . S
C1021 C1018 1.403 . S
C1021 C1022 1.392 . S
C1021 C1025 1.495 . S
C1022 C1021 1.392 . S
C1022 C1023 1.385 . S
C1022 C1024 1.478 . S
C1023 H1017 0.930 . S
C1023 C1019 1.400 . S
C1023 C1022 1.385 . S
C1024 C1022 1.478 . S
C1024 C1026 1.381 . S
C1024 C1030 1.383 . S
C1025 C1021 1.495 . S
C1025 H1031 0.959 . S
C1025 H1032 0.961 . S
C1025 H1033 0.960 . S
C1026 C1024 1.381 . S
C1026 C1027 1.394 . S
C1026 H1034 0.930 . S
C1027 C1026 1.394 . S
C1027 C1028 1.383 . S
C1027 H1035 0.929 . S
C1028 C1027 1.383 . S
C1028 C1029 1.377 . S
C1029 H1013 0.930 . S
C1029 C1028 1.377 . S
C1029 C1030 1.379 . S
C1030 H1014 0.931 . S
C1030 C1024 1.383 . S
C1030 C1029 1.379 . S
H1031 C1025 0.959 . S
H1032 C1025 0.961 . S
H1033 C1025 0.960 . S
H1034 C1026 0.930 . S
H1035 C1027 0.929 . S
H1036 C1044 0.929 . S
H1037 C1046 0.930 . S
H1038 C1048 0.930 . S
H1039 C1051 0.929 . S
H1040 C1054 0.930 . S
H1041 C1056 0.960 . S
H1042 C1056 0.960 . S
H1043 C1056 0.960 . S
C1044 H1036 0.929 . S
C1044 C1045 1.377 . S
C1044 C1046 1.384 . S
C1045 C1044 1.377 . S
C1045 C1051 1.390 . S
C1046 H1037 0.930 . S
C1046 C1044 1.384 . S
C1046 C1047 1.372 . S
C1047 C1046 1.372 . S
C1047 C1048 1.400 . S
C1047 C1052 1.490 . S
C1048 H1038 0.930 . S
C1048 C1047 1.400 . S
C1048 C1051 1.386 . S
H1049 C1065 0.930 . S
H1050 C1066 0.931 . S
C1051 H1039 0.929 . S
C1051 C1045 1.390 . S
C1051 C1048 1.386 . S
C1052 C1047 1.490 . S
C1052 C1054 1.395 . S
C1052 C1055 1.403 . S
H1053 C1059 0.930 . S
C1054 H1040 0.930 . S
C1054 C1052 1.395 . S
C1054 C1057 1.403 . S
C1055 C1052 1.403 . S
C1055 C1056 1.524 . S
C1055 C1059 1.400 . S
C1056 H1041 0.960 . S
C1056 H1042 0.960 . S
C1056 H1043 0.960 . S
C1056 C1055 1.524 . S
C1057 C1054 1.403 . S
C1057 C1058 1.392 . S
C1057 C1061 1.495 . S
C1058 C1057 1.392 . S
C1058 C1059 1.385 . S
C1058 C1060 1.478 . S
C1059 H1053 0.930 . S
C1059 C1055 1.400 . S
C1059 C1058 1.385 . S
C1060 C1058 1.478 . S
C1060 C1062 1.381 . S
C1060 C1066 1.383 . S
C1061 C1057 1.495 . S
C1061 H1067 0.959 . S
C1061 H1068 0.961 . S
C1061 H1069 0.960 . S
C1062 C1060 1.381 . S
C1062 C1063 1.394 . S
C1062 H1070 0.930 . S
C1063 C1062 1.394 . S
C1063 C1064 1.383 . S
C1063 H1071 0.929 . S
C1064 C1063 1.383 . S
C1064 C1065 1.377 . S
C1065 H1049 0.930 . S
C1065 C1064 1.377 . S
C1065 C1066 1.379 . S
C1066 H1050 0.931 . S
C1066 C1060 1.383 . S
C1066 C1065 1.379 . S
H1067 C1061 0.959 . S
H1068 C1061 0.961 . S
H1069 C1061 0.960 . S
H1070 C1062 0.930 . S
H1071 C1063 0.929 . S
H1072 C1080 0.929 . S
H1073 C1082 0.930 . S
H1074 C1084 0.930 . S
H1075 C1087 0.929 . S
H1076 C1090 0.930 . S
H1077 C1092 0.960 . S
H1078 C1092 0.960 . S
H1079 C1092 0.960 . S
C1080 H1072 0.929 . S
C1080 C1081 1.377 1_554 S
C1080 C1082 1.384 . S
C1081 C1080 1.377 1_556 S
C1081 C1087 1.390 . S
C1082 H1073 0.930 . S
C1082 C1080 1.384 . S
C1082 C1083 1.372 1_554 S
C1083 C1082 1.372 1_556 S
C1083 C1084 1.400 . S
C1083 C1088 1.490 1_556 S
C1084 H1074 0.930 . S
C1084 C1083 1.400 . S
C1084 C1087 1.386 . S
H1085 C1101 0.930 . S
H1086 C1102 0.931 1_556 S
C1087 H1075 0.929 . S
C1087 C1081 1.390 . S
C1087 C1084 1.386 . S
C1088 C1083 1.490 1_554 S
C1088 C1090 1.395 1_554 S
C1088 C1091 1.403 . S
H1089 C1095 0.930 . S
C1090 H1076 0.930 . S
C1090 C1088 1.395 1_556 S
C1090 C1093 1.405 . S
C1091 C1088 1.403 . S
C1091 C1092 1.524 . S
C1091 C1095 1.400 . S
C1092 H1077 0.960 . S
C1092 H1078 0.960 . S
C1092 H1079 0.960 . S
C1092 C1091 1.524 . S
C1093 C1090 1.405 . S
C1093 C1094 1.389 1_556 S
C1093 C1097 1.498 . S
C1094 C1093 1.389 1_554 S
C1094 C1095 1.385 . S
C1094 C1096 1.478 . S
C1095 H1089 0.930 . S
C1095 C1091 1.400 . S
C1095 C1094 1.385 . S
C1096 C1094 1.478 . S
C1096 C1098 1.381 . S
C1096 C1102 1.383 . S
C1097 C1093 1.498 . S
C1097 H1103 0.959 . S
C1097 H1104 0.961 . S
C1097 H1105 0.960 1_556 S
C1098 C1096 1.381 . S
C1098 C1099 1.394 . S
C1098 H1106 0.930 . S
C1099 C1098 1.394 . S
C1099 C1100 1.383 . S
C1099 H1107 0.929 . S
C1100 C1099 1.383 . S
C1100 C1101 1.377 . S
C1101 H1085 0.930 . S
C1101 C1100 1.377 . S
C1101 C1102 1.379 . S
C1102 H1086 0.931 1_554 S
C1102 C1096 1.383 . S
C1102 C1101 1.379 . S
H1103 C1097 0.959 . S
H1104 C1097 0.961 . S
H1105 C1097 0.960 1_554 S
H1106 C1098 0.930 . S
H1107 C1099 0.929 . S
H1108 C1116 0.929 . S
H1109 C1118 0.930 . S
H1110 C1120 0.930 . S
H1111 C1123 0.929 . S
H1112 C1126 0.930 . S
H1113 C1128 0.960 . S
H1114 C1128 0.960 . S
H1115 C1128 0.960 . S
C1116 H1108 0.929 . S
C1116 C1117 1.377 1_556 S
C1116 C1118 1.384 . S
C1117 C1116 1.377 1_554 S
C1117 C1123 1.390 . S
C1118 H1109 0.930 . S
C1118 C1116 1.384 . S
C1118 C1119 1.372 1_556 S
C1119 C1118 1.372 1_554 S
C1119 C1120 1.400 . S
C1119 C1124 1.490 1_554 S
C1120 H1110 0.930 . S
C1120 C1119 1.400 . S
C1120 C1123 1.386 . S
H1121 C1137 0.922 1_554 S
H1122 C1138 0.931 1_554 S
C1123 H1111 0.929 . S
C1123 C1117 1.390 . S
C1123 C1120 1.386 . S
C1124 C1119 1.490 1_556 S
C1124 C1126 1.395 1_556 S
C1124 C1127 1.403 . S
H1125 C1131 0.930 . S
C1126 H1112 0.930 . S
C1126 C1124 1.395 1_554 S
C1126 C1129 1.403 1_554 S
C1127 C1124 1.403 . S
C1127 C1128 1.524 . S
C1127 C1131 1.400 . S
C1128 H1113 0.960 . S
C1128 H1114 0.960 . S
C1128 H1115 0.960 . S
C1128 C1127 1.524 . S
C1129 C1126 1.403 1_556 S
C1129 C1130 1.392 . S
C1129 C1133 1.495 1_556 S
C1130 C1129 1.392 . S
C1130 C1131 1.385 . S
C1130 C1132 1.478 . S
C1131 H1125 0.930 . S
C1131 C1127 1.400 . S
C1131 C1130 1.385 . S
C1132 C1130 1.478 . S
C1132 C1134 1.381 . S
C1132 C1138 1.383 . S
C1133 C1129 1.495 1_554 S
C1133 H1139 0.959 . S
C1133 H1140 0.961 . S
C1133 H1141 0.960 1_554 S
C1134 C1132 1.381 . S
C1134 C1135 1.394 . S
C1134 H1142 0.930 . S
C1135 C1134 1.394 . S
C1135 C1136 1.383 . S
C1135 H1143 0.929 . S
C1136 C1135 1.383 . S
C1136 C1137 1.377 . S
C1137 H1121 0.922 1_556 S
C1137 C1136 1.377 . S
C1137 C1138 1.379 . S
C1138 H1122 0.931 1_556 S
C1138 C1132 1.383 . S
C1138 C1137 1.379 . S
H1139 C1133 0.959 . S
H1140 C1133 0.961 . S
H1141 C1133 0.960 1_556 S
H1142 C1134 0.930 . S
H1143 C1135 0.929 . S
H1144 C1152 0.929 . S
H1145 C1154 0.930 . S
H1146 C1156 0.930 . S
H1147 C1159 0.929 . S
H1148 C1162 0.930 . S
H1149 C1164 0.960 . S
H1150 C1164 0.960 . S
H1151 C1164 0.960 . S
C1152 H1144 0.929 . S
C1152 C1153 1.377 . S
C1152 C1154 1.384 . S
C1153 C1152 1.377 . S
C1153 C1159 1.390 . S
C1154 H1145 0.930 . S
C1154 C1152 1.384 . S
C1154 C1155 1.372 . S
C1155 C1154 1.372 . S
C1155 C1156 1.400 . S
C1155 C1160 1.490 1_556 S
C1156 H1146 0.930 . S
C1156 C1155 1.400 . S
C1156 C1159 1.386 . S
H1157 C1173 0.930 . S
H1158 C1174 0.931 . S
C1159 H1147 0.929 . S
C1159 C1153 1.390 . S
C1159 C1156 1.386 . S
C1160 C1155 1.490 1_554 S
C1160 C1162 1.395 . S
C1160 C1163 1.403 1_554 S
H1161 C1167 0.930 . S
C1162 H1148 0.930 . S
C1162 C1160 1.395 . S
C1162 C1165 1.403 . S
C1163 C1160 1.403 1_556 S
C1163 C1164 1.524 . S
C1163 C1167 1.400 . S
C1164 H1149 0.960 . S
C1164 H1150 0.960 . S
C1164 H1151 0.960 . S
C1164 C1163 1.524 . S
C1165 C1162 1.403 . S
C1165 C1166 1.392 . S
C1165 C1169 1.495 . S
C1166 C1165 1.392 . S
C1166 C1167 1.385 1_554 S
C1166 C1168 1.478 . S
C1167 H1161 0.930 . S
C1167 C1163 1.400 . S
C1167 C1166 1.385 1_556 S
C1168 C1166 1.478 . S
C1168 C1170 1.381 . S
C1168 C1174 1.383 . S
C1169 C1165 1.495 . S
C1169 H1175 0.959 . S
C1169 H1176 0.961 . S
C1169 H1177 0.960 . S
C1170 C1168 1.381 . S
C1170 C1171 1.394 . S
C1170 H1178 0.930 . S
C1171 C1170 1.394 . S
C1171 C1172 1.383 . S
C1171 H1179 0.929 . S
C1172 C1171 1.383 . S
C1172 C1173 1.377 . S
C1173 H1157 0.930 . S
C1173 C1172 1.377 . S
C1173 C1174 1.379 . S
C1174 H1158 0.931 . S
C1174 C1168 1.383 . S
C1174 C1173 1.379 . S
H1175 C1169 0.959 . S
H1176 C1169 0.961 . S
H1177 C1169 0.960 . S
H1178 C1170 0.930 . S
H1179 C1171 0.929 . S
H1180 C1188 0.929 1_554 S
H1181 C1190 0.930 . S
H1182 C1192 0.930 . S
H1183 C1195 0.929 . S
H1184 C1198 0.925 1_554 S
H1185 C1200 0.960 . S
H1186 C1200 0.960 . S
H1187 C1200 0.960 . S
C1188 H1180 0.929 1_556 S
C1188 C1189 1.377 . S
C1188 C1190 1.384 1_556 S
C1189 C1188 1.377 . S
C1189 C1195 1.390 . S
C1190 H1181 0.930 . S
C1190 C1188 1.384 1_554 S
C1190 C1191 1.372 1_554 S
C1191 C1190 1.372 1_556 S
C1191 C1192 1.400 . S
C1191 C1196 1.490 . S
C1192 H1182 0.930 . S
C1192 C1191 1.400 . S
C1192 C1195 1.386 . S
H1193 C1209 0.930 . S
H1194 C1210 0.931 . S
C1195 H1183 0.929 . S
C1195 C1189 1.390 . S
C1195 C1192 1.386 . S
C1196 C1191 1.490 . S
C1196 C1198 1.406 . S
C1196 C1199 1.403 . S
H1197 C1203 0.930 . S
C1198 H1184 0.925 1_556 S
C1198 C1196 1.406 . S
C1198 C1201 1.398 1_556 S
C1199 C1196 1.403 . S
C1199 C1200 1.524 . S
C1199 C1203 1.400 . S
C1200 H1185 0.960 . S
C1200 H1186 0.960 . S
C1200 H1187 0.960 . S
C1200 C1199 1.524 . S
C1201 C1198 1.398 1_554 S
C1201 C1202 1.392 . S
C1201 C1205 1.495 . S
C1202 C1201 1.392 . S
C1202 C1203 1.386 1_554 S
C1202 C1204 1.477 . S
C1203 H1197 0.930 . S
C1203 C1199 1.400 . S
C1203 C1202 1.386 1_556 S
C1204 C1202 1.477 . S
C1204 C1206 1.381 . S
C1204 C1210 1.383 1_554 S
C1205 C1201 1.495 . S
C1205 H1211 0.959 . S
C1205 H1212 0.961 . S
C1205 H1213 0.960 . S
C1206 C1204 1.381 . S
C1206 C1207 1.394 . S
C1206 H1214 0.930 . S
C1207 C1206 1.394 . S
C1207 C1208 1.383 . S
C1207 H1215 0.929 . S
C1208 C1207 1.383 . S
C1208 C1209 1.377 1_554 S
C1209 H1193 0.930 . S
C1209 C1208 1.377 1_556 S
C1209 C1210 1.379 . S
C1210 H1194 0.931 . S
C1210 C1204 1.383 1_556 S
C1210 C1209 1.379 . S
H1211 C1205 0.959 . S
H1212 C1205 0.961 . S
H1213 C1205 0.960 . S
H1214 C1206 0.930 . S
H1215 C1207 0.929 . S
H1216 C1224 0.929 . S
H1217 C1226 0.930 1_545 S
H1218 C1228 0.930 . S
H1219 C1231 0.929 . S
H1220 C1234 0.930 . S
H1221 C1236 0.960 . S
H1222 C1236 0.960 . S
H1223 C1236 0.960 . S
C1224 H1216 0.929 . S
C1224 C1225 1.377 . S
C1224 C1226 1.384 . S
C1225 C1224 1.377 . S
C1225 C1231 1.390 . S
C1226 H1217 0.930 1_565 S
C1226 C1224 1.384 . S
C1226 C1227 1.372 . S
C1227 C1226 1.372 . S
C1227 C1228 1.400 . S
C1227 C1232 1.490 1_565 S
C1228 H1218 0.930 . S
C1228 C1227 1.400 . S
C1228 C1231 1.386 . S
H1229 C1245 0.930 . S
H1230 C1246 0.931 . S
C1231 H1219 0.929 . S
C1231 C1225 1.390 . S
C1231 C1228 1.386 . S
C1232 C1227 1.490 1_545 S
C1232 C1234 1.395 1_545 S
C1232 C1235 1.403 . S
H1233 C1239 0.930 . S
C1234 H1220 0.930 . S
C1234 C1232 1.395 1_565 S
C1234 C1237 1.403 1_565 S
C1235 C1232 1.403 . S
C1235 C1236 1.524 . S
C1235 C1239 1.400 . S
C1236 H1221 0.960 . S
C1236 H1222 0.960 . S
C1236 H1223 0.960 . S
C1236 C1235 1.524 . S
C1237 C1234 1.403 1_545 S
C1237 C1238 1.392 . S
C1237 C1241 1.485 1_545 S
C1238 C1237 1.392 . S
C1238 C1239 1.385 . S
C1238 C1240 1.478 . S
C1239 H1233 0.930 . S
C1239 C1235 1.400 . S
C1239 C1238 1.385 . S
C1240 C1238 1.478 . S
C1240 C1242 1.381 . S
C1240 C1246 1.383 . S
C1241 C1237 1.485 1_565 S
C1241 H1247 0.984 . S
C1241 H1248 0.980 . S
C1241 H1249 0.927 1_565 S
C1242 C1240 1.381 . S
C1242 C1243 1.394 . S
C1242 H1250 0.930 . S
C1243 C1242 1.394 . S
C1243 C1244 1.383 . S
C1243 H1251 0.929 . S
C1244 C1243 1.383 . S
C1244 C1245 1.377 . S
C1245 H1229 0.930 . S
C1245 C1244 1.377 . S
C1245 C1246 1.379 . S
C1246 H1230 0.931 . S
C1246 C1240 1.383 . S
C1246 C1245 1.379 . S
H1247 C1241 0.984 . S
H1248 C1241 0.980 . S
H1249 C1241 0.927 1_545 S
H1250 C1242 0.930 . S
H1251 C1243 0.929 . S
H1252 C1260 0.929 . S
H1253 C1262 0.930 1_455 S
H1254 C1264 0.930 . S
H1255 C1267 0.929 . S
H1256 C1270 0.930 . S
H1257 C1272 0.960 . S
H1258 C1272 0.960 . S
H1259 C1272 0.960 . S
C1260 H1252 0.929 . S
C1260 C1261 1.377 . S
C1260 C1262 1.384 . S
C1261 C1260 1.377 . S
C1261 C1267 1.390 . S
C1262 H1253 0.930 1_655 S
C1262 C1260 1.384 . S
C1262 C1263 1.372 . S
C1263 C1262 1.372 . S
C1263 C1264 1.400 . S
C1263 C1268 1.490 1_655 S
C1264 H1254 0.930 . S
C1264 C1263 1.400 . S
C1264 C1267 1.386 . S
H1265 C1281 0.930 . S
H1266 C1282 0.931 . S
C1267 H1255 0.929 . S
C1267 C1261 1.390 . S
C1267 C1264 1.386 . S
C1268 C1263 1.490 1_455 S
C1268 C1270 1.395 1_455 S
C1268 C1271 1.403 . S
H1269 C1275 0.930 . S
C1270 H1256 0.930 . S
C1270 C1268 1.395 1_655 S
C1270 C1273 1.403 1_655 S
C1271 C1268 1.403 . S
C1271 C1272 1.524 . S
C1271 C1275 1.400 . S
C1272 H1257 0.960 . S
C1272 H1258 0.960 . S
C1272 H1259 0.960 . S
C1272 C1271 1.524 . S
C1273 C1270 1.403 1_455 S
C1273 C1274 1.392 . S
C1273 C1277 1.495 . S
C1274 C1273 1.392 . S
C1274 C1275 1.385 . S
C1274 C1276 1.478 . S
C1275 H1269 0.930 . S
C1275 C1271 1.400 . S
C1275 C1274 1.385 . S
C1276 C1274 1.478 . S
C1276 C1278 1.381 . S
C1276 C1282 1.383 . S
C1277 C1273 1.495 . S
C1277 H1283 0.959 1_455 S
C1277 H1284 0.961 1_455 S
C1277 H1285 0.960 . S
C1278 C1276 1.381 . S
C1278 C1279 1.394 . S
C1278 H1286 0.930 . S
C1279 C1278 1.394 . S
C1279 C1280 1.383 . S
C1279 H1287 0.929 . S
C1280 C1279 1.383 . S
C1280 C1281 1.377 . S
C1281 H1265 0.930 . S
C1281 C1280 1.377 . S
C1281 C1282 1.379 . S
C1282 H1266 0.931 . S
C1282 C1276 1.383 . S
C1282 C1281 1.379 . S
H1283 C1277 0.959 1_655 S
H1284 C1277 0.961 1_655 S
H1285 C1277 0.960 . S
H1286 C1278 0.930 . S
H1287 C1279 0.929 . S
H1288 C1296 0.929 . S
H1289 C1298 0.930 . S
H1290 C1300 0.930 . S
H1291 C1303 0.929 . S
H1292 C1306 0.928 1_545 S
H1293 C1308 0.960 . S
H1294 C1308 0.960 . S
H1295 C1308 0.960 . S
C1296 H1288 0.929 . S
C1296 C1297 1.377 . S
C1296 C1298 1.384 . S
C1297 C1296 1.377 . S
C1297 C1303 1.390 . S
C1298 H1289 0.930 . S
C1298 C1296 1.384 . S
C1298 C1299 1.372 . S
C1299 C1298 1.372 . S
C1299 C1300 1.400 . S
C1299 C1304 1.490 . S
C1300 H1290 0.930 . S
C1300 C1299 1.400 . S
C1300 C1303 1.386 . S
H1301 C1317 0.930 . S
H1302 C1318 0.931 . S
C1303 H1291 0.929 . S
C1303 C1297 1.390 . S
C1303 C1300 1.386 . S
C1304 C1299 1.490 . S
C1304 C1306 1.395 . S
C1304 C1307 1.403 . S
H1305 C1311 0.930 . S
C1306 H1292 0.928 1_565 S
C1306 C1304 1.395 . S
C1306 C1309 1.403 1_565 S
C1307 C1304 1.403 . S
C1307 C1308 1.524 . S
C1307 C1311 1.400 . S
C1308 H1293 0.960 . S
C1308 H1294 0.960 . S
C1308 H1295 0.960 . S
C1308 C1307 1.524 . S
C1309 C1306 1.403 1_545 S
C1309 C1310 1.392 . S
C1309 C1313 1.495 . S
C1310 C1309 1.392 . S
C1310 C1311 1.385 1_545 S
C1310 C1312 1.478 . S
C1311 H1305 0.930 . S
C1311 C1307 1.400 . S
C1311 C1310 1.385 1_565 S
C1312 C1310 1.478 . S
C1312 C1314 1.381 . S
C1312 C1318 1.383 . S
C1313 C1309 1.495 . S
C1313 H1319 0.959 . S
C1313 H1320 0.961 . S
C1313 H1321 0.960 . S
C1314 C1312 1.381 . S
C1314 C1315 1.394 . S
C1314 H1322 0.930 . S
C1315 C1314 1.394 . S
C1315 C1316 1.383 . S
C1315 H1323 0.929 . S
C1316 C1315 1.383 . S
C1316 C1317 1.377 . S
C1317 H1301 0.930 . S
C1317 C1316 1.377 . S
C1317 C1318 1.379 . S
C1318 H1302 0.931 . S
C1318 C1312 1.383 . S
C1318 C1317 1.379 . S
H1319 C1313 0.959 . S
H1320 C1313 0.961 . S
H1321 C1313 0.960 . S
H1322 C1314 0.930 . S
H1323 C1315 0.929 . S
H1324 C1332 0.929 . S
H1325 C1334 0.930 . S
H1326 C1336 0.930 . S
H1327 C1339 0.929 . S
H1328 C1342 0.930 . S
H1329 C1344 0.960 1_455 S
H1330 C1344 0.960 1_455 S
H1331 C1344 0.960 . S
C1332 H1324 0.929 . S
C1332 C1333 1.377 . S
C1332 C1334 1.384 . S
C1333 C1332 1.377 . S
C1333 C1339 1.390 . S
C1334 H1325 0.930 . S
C1334 C1332 1.384 . S
C1334 C1335 1.372 . S
C1335 C1334 1.372 . S
C1335 C1336 1.400 . S
C1335 C1340 1.490 . S
C1336 H1326 0.930 . S
C1336 C1335 1.400 . S
C1336 C1339 1.386 . S
H1337 C1353 0.930 . S
H1338 C1354 0.918 1_655 S
C1339 H1327 0.929 . S
C1339 C1333 1.390 . S
C1339 C1336 1.386 . S
C1340 C1335 1.490 . S
C1340 C1342 1.395 . S
C1340 C1343 1.403 . S
H1341 C1347 0.934 . S
C1342 H1328 0.930 . S
C1342 C1340 1.395 . S
C1342 C1345 1.403 . S
C1343 C1340 1.403 . S
C1343 C1344 1.524 . S
C1343 C1347 1.397 1_655 S
C1344 H1329 0.960 1_655 S
C1344 H1330 0.960 1_655 S
C1344 H1331 0.960 . S
C1344 C1343 1.524 . S
C1345 C1342 1.403 . S
C1345 C1346 1.392 . S
C1345 C1349 1.495 . S
C1346 C1345 1.392 . S
C1346 C1347 1.384 1_655 S
C1346 C1348 1.478 1_655 S
C1347 H1341 0.934 . S
C1347 C1343 1.397 1_455 S
C1347 C1346 1.384 1_455 S
C1348 C1346 1.478 1_455 S
C1348 C1350 1.381 . S
C1348 C1354 1.388 . S
C1349 C1345 1.495 . S
C1349 H1355 0.959 . S
C1349 H1356 0.961 . S
C1349 H1357 0.960 . S
C1350 C1348 1.381 . S
C1350 C1351 1.394 . S
C1350 H1358 0.930 . S
C1351 C1350 1.394 . S
C1351 C1352 1.383 . S
C1351 H1359 0.929 . S
C1352 C1351 1.383 . S
C1352 C1353 1.377 . S
C1353 H1337 0.930 . S
C1353 C1352 1.377 . S
C1353 C1354 1.387 . S
C1354 H1338 0.918 1_455 S
C1354 C1348 1.388 . S
C1354 C1353 1.387 . S
H1355 C1349 0.959 . S
H1356 C1349 0.961 . S
H1357 C1349 0.960 . S
H1358 C1350 0.930 . S
H1359 C1351 0.929 . S
H1360 C1368 0.929 . S
H1361 C1370 0.930 . S
H1362 C1372 0.968 . S
H1363 C1375 0.957 . S
H1364 C1378 0.926 1_565 S
H1365 C1380 0.960 . S
H1366 C1380 0.960 1_565 S
H1367 C1380 0.960 . S
C1368 H1360 0.929 . S
C1368 C1369 1.377 . S
C1368 C1370 1.384 . S
C1369 C1368 1.377 . S
C1369 C1375 1.390 . S
C1370 H1361 0.930 . S
C1370 C1368 1.384 . S
C1370 C1371 1.372 . S
C1371 C1370 1.372 . S
C1371 C1372 1.380 1_565 S
C1371 C1376 1.483 1_565 S
C1372 H1362 0.968 . S
C1372 C1371 1.380 1_545 S
C1372 C1375 1.369 1_545 S
H1373 C1389 0.930 . S
H1374 C1390 0.931 . S
C1375 H1363 0.957 . S
C1375 C1369 1.390 . S
C1375 C1372 1.369 1_565 S
C1376 C1371 1.483 1_545 S
C1376 C1378 1.397 . S
C1376 C1379 1.407 . S
H1377 C1383 0.930 . S
C1378 H1364 0.926 1_545 S
C1378 C1376 1.397 . S
C1378 C1381 1.403 . S
C1379 C1376 1.407 . S
C1379 C1380 1.524 . S
C1379 C1383 1.400 . S
C1380 H1365 0.960 . S
C1380 H1366 0.960 1_545 S
C1380 H1367 0.960 . S
C1380 C1379 1.524 . S
C1381 C1378 1.403 . S
C1381 C1382 1.392 . S
C1381 C1385 1.495 . S
C1382 C1381 1.392 . S
C1382 C1383 1.385 . S
C1382 C1384 1.478 . S
C1383 H1377 0.930 . S
C1383 C1379 1.400 . S
C1383 C1382 1.385 . S
C1384 C1382 1.478 . S
C1384 C1386 1.381 . S
C1384 C1390 1.383 . S
C1385 C1381 1.495 . S
C1385 H1391 0.959 . S
C1385 H1392 0.961 . S
C1385 H1393 0.960 . S
C1386 C1384 1.381 . S
C1386 C1387 1.394 . S
C1386 H1394 0.930 . S
C1387 C1386 1.394 . S
C1387 C1388 1.383 . S
C1387 H1395 0.929 . S
C1388 C1387 1.383 . S
C1388 C1389 1.377 . S
C1389 H1373 0.930 . S
C1389 C1388 1.377 . S
C1389 C1390 1.379 . S
C1390 H1374 0.931 . S
C1390 C1384 1.383 . S
C1390 C1389 1.379 . S
H1391 C1385 0.959 . S
H1392 C1385 0.961 . S
H1393 C1385 0.960 . S
H1394 C1386 0.930 . S
H1395 C1387 0.929 . S
H1396 C1404 0.929 . S
H1397 C1406 0.930 . S
H1398 C1408 0.930 . S
H1399 C1411 0.929 . S
H1400 C1414 0.932 1_655 S
H1401 C1416 0.960 . S
H1402 C1416 0.960 . S
H1403 C1416 0.960 . S
C1404 H1396 0.929 . S
C1404 C1405 1.377 . S
C1404 C1406 1.384 . S
C1405 C1404 1.377 . S
C1405 C1411 1.390 . S
C1406 H1397 0.930 . S
C1406 C1404 1.384 . S
C1406 C1407 1.372 . S
C1407 C1406 1.372 . S
C1407 C1408 1.400 . S
C1407 C1412 1.490 . S
C1408 H1398 0.930 . S
C1408 C1407 1.400 . S
C1408 C1411 1.386 . S
H1409 C1425 0.930 . S
H1410 C1426 0.931 1_455 S
C1411 H1399 0.929 . S
C1411 C1405 1.390 . S
C1411 C1408 1.386 . S
C1412 C1407 1.490 . S
C1412 C1414 1.391 . S
C1412 C1415 1.403 . S
H1413 C1419 0.930 . S
C1414 H1400 0.932 1_455 S
C1414 C1412 1.391 . S
C1414 C1417 1.406 1_455 S
C1415 C1412 1.403 . S
C1415 C1416 1.524 . S
C1415 C1419 1.400 . S
C1416 H1401 0.960 . S
C1416 H1402 0.960 . S
C1416 H1403 0.960 . S
C1416 C1415 1.524 . S
C1417 C1414 1.406 1_655 S
C1417 C1418 1.392 . S
C1417 C1421 1.495 . S
C1418 C1417 1.392 . S
C1418 C1419 1.385 1_655 S
C1418 C1420 1.478 . S
C1419 H1413 0.930 . S
C1419 C1415 1.400 . S
C1419 C1418 1.385 1_455 S
C1420 C1418 1.478 . S
C1420 C1422 1.381 . S
C1420 C1426 1.383 . S
C1421 C1417 1.495 . S
C1421 H1427 0.959 . S
C1421 H1428 0.961 . S
C1421 H1429 0.960 . S
C1422 C1420 1.381 . S
C1422 C1423 1.394 . S
C1422 H1430 0.930 . S
C1423 C1422 1.394 . S
C1423 C1424 1.383 . S
C1423 H1431 0.929 . S
C1424 C1423 1.383 . S
C1424 C1425 1.377 . S
C1425 H1409 0.930 . S
C1425 C1424 1.377 . S
C1425 C1426 1.379 . S
C1426 H1410 0.931 1_655 S
C1426 C1420 1.383 . S
C1426 C1425 1.379 . S
H1427 C1421 0.959 . S
H1428 C1421 0.961 . S
H1429 C1421 0.960 . S
H1430 C1422 0.930 . S
H1431 C1423 0.929 . S
H1432 C1440 0.929 . S
H1433 C1442 0.930 . S
H1434 C1444 0.930 . S
H1435 C1447 0.929 . S
H1436 C1450 0.930 . S
H1437 C1452 0.960 . S
H1438 C1452 0.960 . S
H1439 C1452 0.960 . S
C1440 H1432 0.929 . S
C1440 C1441 1.377 . S
C1440 C1442 1.384 . S
C1441 C1440 1.377 . S
C1441 C1447 1.390 . S
C1442 H1433 0.930 . S
C1442 C1440 1.384 . S
C1442 C1443 1.372 . S
C1443 C1442 1.372 . S
C1443 C1444 1.400 . S
C1443 C1448 1.490 . S
C1444 H1434 0.930 . S
C1444 C1443 1.400 . S
C1444 C1447 1.386 . S
H1445 C1461 0.930 . S
H1446 C1462 0.931 . S
C1447 H1435 0.929 . S
C1447 C1441 1.390 . S
C1447 C1444 1.386 . S
C1448 C1443 1.490 . S
C1448 C1450 1.395 1_565 S
C1448 C1451 1.403 . S
H1449 C1455 0.930 . S
C1450 H1436 0.930 . S
C1450 C1448 1.395 1_545 S
C1450 C1453 1.403 . S
C1451 C1448 1.403 . S
C1451 C1452 1.524 . S
C1451 C1455 1.400 . S
C1452 H1437 0.960 . S
C1452 H1438 0.960 . S
C1452 H1439 0.960 . S
C1452 C1451 1.524 . S
C1453 C1450 1.403 . S
C1453 C1454 1.392 . S
C1453 C1457 1.495 . S
C1454 C1453 1.392 . S
C1454 C1455 1.385 1_545 S
C1454 C1456 1.478 . S
C1455 H1449 0.930 . S
C1455 C1451 1.400 . S
C1455 C1454 1.385 1_565 S
C1456 C1454 1.478 . S
C1456 C1458 1.381 . S
C1456 C1462 1.383 . S
C1457 C1453 1.495 . S
C1457 H1463 0.959 . S
C1457 H1464 0.961 . S
C1457 H1465 0.960 . S
C1458 C1456 1.381 . S
C1458 C1459 1.394 . S
C1458 H1466 0.930 . S
C1459 C1458 1.394 . S
C1459 C1460 1.383 . S
C1459 H1467 0.929 . S
C1460 C1459 1.383 . S
C1460 C1461 1.377 . S
C1461 H1445 0.930 . S
C1461 C1460 1.377 . S
C1461 C1462 1.379 . S
C1462 H1446 0.931 . S
C1462 C1456 1.383 . S
C1462 C1461 1.379 . S
H1463 C1457 0.959 . S
H1464 C1457 0.961 . S
H1465 C1457 0.960 . S
H1466 C1458 0.930 . S
H1467 C1459 0.929 . S
H1468 C1476 0.929 . S
H1469 C1478 0.930 . S
H1470 C1480 0.930 . S
H1471 C1483 0.929 . S
H1472 C1486 0.930 . S
H1473 C1488 0.960 . S
H1474 C1488 0.960 . S
H1475 C1488 0.960 . S
C1476 H1468 0.929 . S
C1476 C1477 1.377 . S
C1476 C1478 1.384 1_455 S
C1477 C1476 1.377 . S
C1477 C1483 1.390 . S
C1478 H1469 0.930 . S
C1478 C1476 1.384 1_655 S
C1478 C1479 1.372 1_655 S
C1479 C1478 1.372 1_455 S
C1479 C1480 1.400 . S
C1479 C1484 1.490 1_455 S
C1480 H1470 0.930 . S
C1480 C1479 1.400 . S
C1480 C1483 1.386 . S
H1481 C1497 0.930 . S
H1482 C1498 0.931 . S
C1483 H1471 0.929 . S
C1483 C1477 1.390 . S
C1483 C1480 1.386 . S
C1484 C1479 1.490 1_655 S
C1484 C1486 1.395 . S
C1484 C1487 1.403 1_655 S
H1485 C1491 0.930 1_455 S
C1486 H1472 0.930 . S
C1486 C1484 1.395 . S
C1486 C1489 1.403 . S
C1487 C1484 1.403 1_455 S
C1487 C1488 1.524 . S
C1487 C1491 1.400 1_455 S
C1488 H1473 0.960 . S
C1488 H1474 0.960 . S
C1488 H1475 0.960 . S
C1488 C1487 1.524 . S
C1489 C1486 1.403 . S
C1489 C1490 1.392 . S
C1489 C1493 1.495 . S
C1490 C1489 1.392 . S
C1490 C1491 1.385 . S
C1490 C1492 1.478 . S
C1491 H1485 0.930 1_655 S
C1491 C1487 1.400 1_655 S
C1491 C1490 1.385 . S
C1492 C1490 1.478 . S
C1492 C1494 1.381 . S
C1492 C1498 1.383 . S
C1493 C1489 1.495 . S
C1493 H1499 0.959 . S
C1493 H1500 0.961 . S
C1493 H1501 0.960 . S
C1494 C1492 1.381 . S
C1494 C1495 1.394 . S
C1494 H1502 0.930 . S
C1495 C1494 1.394 . S
C1495 C1496 1.383 . S
C1495 H1503 0.929 . S
C1496 C1495 1.383 . S
C1496 C1497 1.377 . S
C1497 H1481 0.930 . S
C1497 C1496 1.377 . S
C1497 C1498 1.379 . S
C1498 H1482 0.931 . S
C1498 C1492 1.383 . S
C1498 C1497 1.379 . S
H1499 C1493 0.959 . S
H1500 C1493 0.961 . S
H1501 C1493 0.960 . S
H1502 C1494 0.930 . S
H1503 C1495 0.929 . S
H1504 C1512 0.929 . S
H1505 C1514 0.930 . S
H1506 C1516 0.930 . S
H1507 C1519 0.929 . S
H1508 C1522 0.930 . S
H1509 C1524 0.960 . S
H1510 C1524 0.960 . S
H1511 C1524 0.960 . S
C1512 H1504 0.929 . S
C1512 C1513 1.377 . S
C1512 C1514 1.384 . S
C1513 C1512 1.377 . S
C1513 C1519 1.390 . S
C1514 H1505 0.930 . S
C1514 C1512 1.384 . S
C1514 C1515 1.372 . S
C1515 C1514 1.372 . S
C1515 C1516 1.400 . S
C1515 C1520 1.490 . S
C1516 H1506 0.930 . S
C1516 C1515 1.400 . S
C1516 C1519 1.386 . S
H1517 C1533 0.930 . S
H1518 C1534 0.931 . S
C1519 H1507 0.929 . S
C1519 C1513 1.390 . S
C1519 C1516 1.386 . S
C1520 C1515 1.490 . S
C1520 C1522 1.395 . S
C1520 C1523 1.403 . S
H1521 C1527 0.930 . S
C1522 H1508 0.930 . S
C1522 C1520 1.395 . S
C1522 C1525 1.403 . S
C1523 C1520 1.403 . S
C1523 C1524 1.524 . S
C1523 C1527 1.400 . S
C1524 H1509 0.960 . S
C1524 H1510 0.960 . S
C1524 H1511 0.960 . S
C1524 C1523 1.524 . S
C1525 C1522 1.403 . S
C1525 C1526 1.392 . S
C1525 C1529 1.495 . S
C1526 C1525 1.392 . S
C1526 C1527 1.385 . S
C1526 C1528 1.478 . S
C1527 H1521 0.930 . S
C1527 C1523 1.400 . S
C1527 C1526 1.385 . S
C1528 C1526 1.478 . S
C1528 C1530 1.381 . S
C1528 C1534 1.383 . S
C1529 C1525 1.495 . S
C1529 H1535 0.959 . S
C1529 H1536 0.961 . S
C1529 H1537 0.960 . S
C1530 C1528 1.381 . S
C1530 C1531 1.394 . S
C1530 H1538 0.930 . S
C1531 C1530 1.394 . S
C1531 C1532 1.383 . S
C1531 H1539 0.929 . S
C1532 C1531 1.383 . S
C1532 C1533 1.377 . S
C1533 H1517 0.930 . S
C1533 C1532 1.377 . S
C1533 C1534 1.379 . S
C1534 H1518 0.931 . S
C1534 C1528 1.383 . S
C1534 C1533 1.379 . S
H1535 C1529 0.959 . S
H1536 C1529 0.961 . S
H1537 C1529 0.960 . S
H1538 C1530 0.930 . S
H1539 C1531 0.929 . S
H1540 C1548 0.929 . S
H1541 C1550 0.930 . S
H1542 C1552 0.930 . S
H1543 C1555 0.929 . S
H1544 C1558 0.930 . S
H1545 C1560 0.960 . S
H1546 C1560 0.960 . S
H1547 C1560 0.960 . S
C1548 H1540 0.929 . S
C1548 C1549 1.377 . S
C1548 C1550 1.384 . S
C1549 C1548 1.377 . S
C1549 C1555 1.390 . S
C1550 H1541 0.930 . S
C1550 C1548 1.384 . S
C1550 C1551 1.372 . S
C1551 C1550 1.372 . S
C1551 C1552 1.400 . S
C1551 C1556 1.490 . S
C1552 H1542 0.930 . S
C1552 C1551 1.400 . S
C1552 C1555 1.386 . S
H1553 C1569 0.930 . S
H1554 C1570 0.931 . S
C1555 H1543 0.929 . S
C1555 C1549 1.390 . S
C1555 C1552 1.386 . S
C1556 C1551 1.490 . S
C1556 C1558 1.395 . S
C1556 C1559 1.403 . S
H1557 C1563 0.930 . S
C1558 H1544 0.930 . S
C1558 C1556 1.395 . S
C1558 C1561 1.403 . S
C1559 C1556 1.403 . S
C1559 C1560 1.524 . S
C1559 C1563 1.400 . S
C1560 H1545 0.960 . S
C1560 H1546 0.960 . S
C1560 H1547 0.960 . S
C1560 C1559 1.524 . S
C1561 C1558 1.403 . S
C1561 C1562 1.392 . S
C1561 C1565 1.495 . S
C1562 C1561 1.392 . S
C1562 C1563 1.385 . S
C1562 C1564 1.478 . S
C1563 H1557 0.930 . S
C1563 C1559 1.400 . S
C1563 C1562 1.385 . S
C1564 C1562 1.478 . S
C1564 C1566 1.381 . S
C1564 C1570 1.383 . S
C1565 C1561 1.495 . S
C1565 H1571 0.959 . S
C1565 H1572 0.961 . S
C1565 H1573 0.960 . S
C1566 C1564 1.381 . S
C1566 C1567 1.394 . S
C1566 H1574 0.930 . S
C1567 C1566 1.394 . S
C1567 C1568 1.383 . S
C1567 H1575 0.929 . S
C1568 C1567 1.383 . S
C1568 C1569 1.377 . S
C1569 H1553 0.930 . S
C1569 C1568 1.377 . S
C1569 C1570 1.379 . S
C1570 H1554 0.931 . S
C1570 C1564 1.383 . S
C1570 C1569 1.379 . S
H1571 C1565 0.959 . S
H1572 C1565 0.961 . S
H1573 C1565 0.960 . S
H1574 C1566 0.930 . S
H1575 C1567 0.929 . S
H1576 C1584 0.929 . S
H1577 C1586 0.930 . S
H1578 C1588 0.930 . S
H1579 C1591 0.929 . S
H1580 C1594 0.930 . S
H1581 C1596 0.960 . S
H1582 C1596 0.960 . S
H1583 C1596 0.960 . S
C1584 H1576 0.929 . S
C1584 C1585 1.377 . S
C1584 C1586 1.384 . S
C1585 C1584 1.377 . S
C1585 C1591 1.390 . S
C1586 H1577 0.930 . S
C1586 C1584 1.384 . S
C1586 C1587 1.372 . S
C1587 C1586 1.372 . S
C1587 C1588 1.400 . S
C1587 C1592 1.490 . S
C1588 H1578 0.930 . S
C1588 C1587 1.400 . S
C1588 C1591 1.386 . S
H1589 C1605 0.930 . S
H1590 C1606 0.931 . S
C1591 H1579 0.929 . S
C1591 C1585 1.390 . S
C1591 C1588 1.386 . S
C1592 C1587 1.490 . S
C1592 C1594 1.395 . S
C1592 C1595 1.403 . S
H1593 C1599 0.930 . S
C1594 H1580 0.930 . S
C1594 C1592 1.395 . S
C1594 C1597 1.403 . S
C1595 C1592 1.403 . S
C1595 C1596 1.524 . S
C1595 C1599 1.400 . S
C1596 H1581 0.960 . S
C1596 H1582 0.960 . S
C1596 H1583 0.960 . S
C1596 C1595 1.524 . S
C1597 C1594 1.403 . S
C1597 C1598 1.392 . S
C1597 C1601 1.495 . S
C1598 C1597 1.392 . S
C1598 C1599 1.385 . S
C1598 C1600 1.478 . S
C1599 H1593 0.930 . S
C1599 C1595 1.400 . S
C1599 C1598 1.385 . S
C1600 C1598 1.478 . S
C1600 C1602 1.381 . S
C1600 C1606 1.383 . S
C1601 C1597 1.495 . S
C1601 H1607 0.959 . S
C1601 H1608 0.961 . S
C1601 H1609 0.960 . S
C1602 C1600 1.381 . S
C1602 C1603 1.394 . S
C1602 H1610 0.930 . S
C1603 C1602 1.394 . S
C1603 C1604 1.383 . S
C1603 H1611 0.929 . S
C1604 C1603 1.383 . S
C1604 C1605 1.377 . S
C1605 H1589 0.930 . S
C1605 C1604 1.377 . S
C1605 C1606 1.379 . S
C1606 H1590 0.931 . S
C1606 C1600 1.383 . S
C1606 C1605 1.379 . S
H1607 C1601 0.959 . S
H1608 C1601 0.961 . S
H1609 C1601 0.960 . S
H1610 C1602 0.930 . S
H1611 C1603 0.929 . S
H1612 C1620 0.929 . S
H1613 C1622 0.930 . S
H1614 C1624 0.930 . S
H1615 C1627 0.929 . S
H1616 C1630 0.930 . S
H1617 C1632 0.960 . S
H1618 C1632 0.960 . S
H1619 C1632 0.960 . S
C1620 H1612 0.929 . S
C1620 C1621 1.377 . S
C1620 C1622 1.384 . S
C1621 C1620 1.377 . S
C1621 C1627 1.390 . S
C1622 H1613 0.930 . S
C1622 C1620 1.384 . S
C1622 C1623 1.372 . S
C1623 C1622 1.372 . S
C1623 C1624 1.400 . S
C1623 C1628 1.490 . S
C1624 H1614 0.930 . S
C1624 C1623 1.400 . S
C1624 C1627 1.386 . S
H1625 C1641 0.930 . S
H1626 C1642 0.931 . S
C1627 H1615 0.929 . S
C1627 C1621 1.390 . S
C1627 C1624 1.386 . S
C1628 C1623 1.490 . S
C1628 C1630 1.395 . S
C1628 C1631 1.403 . S
H1629 C1635 0.930 . S
C1630 H1616 0.930 . S
C1630 C1628 1.395 . S
C1630 C1633 1.403 . S
C1631 C1628 1.403 . S
C1631 C1632 1.524 . S
C1631 C1635 1.400 . S
C1632 H1617 0.960 . S
C1632 H1618 0.960 . S
C1632 H1619 0.960 . S
C1632 C1631 1.524 . S
C1633 C1630 1.403 . S
C1633 C1634 1.392 . S
C1633 C1637 1.495 . S
C1634 C1633 1.392 . S
C1634 C1635 1.385 . S
C1634 C1636 1.478 . S
C1635 H1629 0.930 . S
C1635 C1631 1.400 . S
C1635 C1634 1.385 . S
C1636 C1634 1.478 . S
C1636 C1638 1.381 . S
C1636 C1642 1.383 . S
C1637 C1633 1.495 . S
C1637 H1643 0.959 . S
C1637 H1644 0.961 . S
C1637 H1645 0.960 . S
C1638 C1636 1.381 . S
C1638 C1639 1.394 . S
C1638 H1646 0.930 . S
C1639 C1638 1.394 . S
C1639 C1640 1.383 . S
C1639 H1647 0.929 . S
C1640 C1639 1.383 . S
C1640 C1641 1.377 . S
C1641 H1625 0.930 . S
C1641 C1640 1.377 . S
C1641 C1642 1.379 . S
C1642 H1626 0.931 . S
C1642 C1636 1.383 . S
C1642 C1641 1.379 . S
H1643 C1637 0.959 . S
H1644 C1637 0.961 . S
H1645 C1637 0.960 . S
H1646 C1638 0.930 . S
H1647 C1639 0.929 . S
H1648 C1656 0.929 . S
H1649 C1658 0.930 . S
H1650 C1660 0.930 . S
H1651 C1663 0.929 . S
H1652 C1666 0.930 . S
H1653 C1668 0.960 . S
H1654 C1668 0.960 . S
H1655 C1668 0.960 . S
C1656 H1648 0.929 . S
C1656 C1657 1.377 . S
C1656 C1658 1.384 . S
C1657 C1656 1.377 . S
C1657 C1663 1.390 . S
C1658 H1649 0.930 . S
C1658 C1656 1.384 . S
C1658 C1659 1.372 . S
C1659 C1658 1.372 . S
C1659 C1660 1.400 . S
C1659 C1664 1.490 . S
C1660 H1650 0.930 . S
C1660 C1659 1.400 . S
C1660 C1663 1.386 . S
H1661 C1677 0.930 . S
H1662 C1678 0.931 . S
C1663 H1651 0.929 . S
C1663 C1657 1.390 . S
C1663 C1660 1.386 . S
C1664 C1659 1.490 . S
C1664 C1666 1.395 . S
C1664 C1667 1.403 . S
H1665 C1671 0.930 . S
C1666 H1652 0.930 . S
C1666 C1664 1.395 . S
C1666 C1669 1.403 . S
C1667 C1664 1.403 . S
C1667 C1668 1.524 . S
C1667 C1671 1.400 . S
C1668 H1653 0.960 . S
C1668 H1654 0.960 . S
C1668 H1655 0.960 . S
C1668 C1667 1.524 . S
C1669 C1666 1.403 . S
C1669 C1670 1.392 . S
C1669 C1673 1.495 . S
C1670 C1669 1.392 . S
C1670 C1671 1.385 . S
C1670 C1672 1.478 . S
C1671 H1665 0.930 . S
C1671 C1667 1.400 . S
C1671 C1670 1.385 . S
C1672 C1670 1.478 . S
C1672 C1674 1.381 . S
C1672 C1678 1.383 . S
C1673 C1669 1.495 . S
C1673 H1679 0.959 . S
C1673 H1680 0.961 . S
C1673 H1681 0.960 . S
C1674 C1672 1.381 . S
C1674 C1675 1.394 . S
C1674 H1682 0.930 . S
C1675 C1674 1.394 . S
C1675 C1676 1.383 . S
C1675 H1683 0.929 . S
C1676 C1675 1.383 . S
C1676 C1677 1.377 . S
C1677 H1661 0.930 . S
C1677 C1676 1.377 . S
C1677 C1678 1.379 . S
C1678 H1662 0.931 . S
C1678 C1672 1.383 . S
C1678 C1677 1.379 . S
H1679 C1673 0.959 . S
H1680 C1673 0.961 . S
H1681 C1673 0.960 . S
H1682 C1674 0.930 . S
H1683 C1675 0.929 . S
H1684 C1692 0.929 . S
H1685 C1694 0.930 . S
H1686 C1696 0.930 . S
H1687 C1699 0.929 . S
H1688 C1702 0.930 . S
H1689 C1704 0.960 . S
H1690 C1704 0.960 . S
H1691 C1704 0.960 . S
C1692 H1684 0.929 . S
C1692 C1693 1.377 . S
C1692 C1694 1.384 . S
C1693 C1692 1.377 . S
C1693 C1699 1.390 . S
C1694 H1685 0.930 . S
C1694 C1692 1.384 . S
C1694 C1695 1.372 . S
C1695 C1694 1.372 . S
C1695 C1696 1.400 . S
C1695 C1700 1.490 . S
C1696 H1686 0.930 . S
C1696 C1695 1.400 . S
C1696 C1699 1.386 . S
H1697 C1713 0.930 . S
H1698 C1714 0.931 . S
C1699 H1687 0.929 . S
C1699 C1693 1.390 . S
C1699 C1696 1.386 . S
C1700 C1695 1.490 . S
C1700 C1702 1.395 . S
C1700 C1703 1.403 . S
H1701 C1707 0.930 . S
C1702 H1688 0.930 . S
C1702 C1700 1.395 . S
C1702 C1705 1.403 . S
C1703 C1700 1.403 . S
C1703 C1704 1.524 . S
C1703 C1707 1.400 . S
C1704 H1689 0.960 . S
C1704 H1690 0.960 . S
C1704 H1691 0.960 . S
C1704 C1703 1.524 . S
C1705 C1702 1.403 . S
C1705 C1706 1.392 . S
C1705 C1709 1.495 . S
C1706 C1705 1.392 . S
C1706 C1707 1.385 . S
C1706 C1708 1.478 . S
C1707 H1701 0.930 . S
C1707 C1703 1.400 . S
C1707 C1706 1.385 . S
C1708 C1706 1.478 . S
C1708 C1710 1.381 . S
C1708 C1714 1.383 . S
C1709 C1705 1.495 . S
C1709 H1715 0.959 . S
C1709 H1716 0.961 . S
C1709 H1717 0.960 . S
C1710 C1708 1.381 . S
C1710 C1711 1.394 . S
C1710 H1718 0.930 . S
C1711 C1710 1.394 . S
C1711 C1712 1.383 . S
C1711 H1719 0.929 . S
C1712 C1711 1.383 . S
C1712 C1713 1.377 . S
C1713 H1697 0.930 . S
C1713 C1712 1.377 . S
C1713 C1714 1.379 . S
C1714 H1698 0.931 . S
C1714 C1708 1.383 . S
C1714 C1713 1.379 . S
H1715 C1709 0.959 . S
H1716 C1709 0.961 . S
H1717 C1709 0.960 . S
H1718 C1710 0.930 . S
H1719 C1711 0.929 . S
H1720 C1728 0.929 . S
H1721 C1730 0.930 . S
H1722 C1732 0.930 . S
H1723 C1735 0.929 . S
H1724 C1738 0.930 . S
H1725 C1740 0.960 . S
H1726 C1740 0.960 . S
H1727 C1740 0.960 . S
C1728 H1720 0.929 . S
C1728 C1729 1.377 . S
C1728 C1730 1.384 . S
C1729 C1728 1.377 . S
C1729 C1735 1.390 . S
C1730 H1721 0.930 . S
C1730 C1728 1.384 . S
C1730 C1731 1.372 . S
C1731 C1730 1.372 . S
C1731 C1732 1.400 . S
C1731 C1736 1.490 . S
C1732 H1722 0.930 . S
C1732 C1731 1.400 . S
C1732 C1735 1.386 . S
H1733 C1749 0.930 . S
H1734 C1750 0.931 . S
C1735 H1723 0.929 . S
C1735 C1729 1.390 . S
C1735 C1732 1.386 . S
C1736 C1731 1.490 . S
C1736 C1738 1.395 . S
C1736 C1739 1.403 . S
H1737 C1743 0.930 . S
C1738 H1724 0.930 . S
C1738 C1736 1.395 . S
C1738 C1741 1.403 . S
C1739 C1736 1.403 . S
C1739 C1740 1.524 . S
C1739 C1743 1.400 . S
C1740 H1725 0.960 . S
C1740 H1726 0.960 . S
C1740 H1727 0.960 . S
C1740 C1739 1.524 . S
C1741 C1738 1.403 . S
C1741 C1742 1.392 . S
C1741 C1745 1.495 . S
C1742 C1741 1.392 . S
C1742 C1743 1.385 . S
C1742 C1744 1.478 . S
C1743 H1737 0.930 . S
C1743 C1739 1.400 . S
C1743 C1742 1.385 . S
C1744 C1742 1.478 . S
C1744 C1746 1.381 . S
C1744 C1750 1.383 . S
C1745 C1741 1.495 . S
C1745 H1751 0.959 . S
C1745 H1752 0.961 . S
C1745 H1753 0.960 . S
C1746 C1744 1.381 . S
C1746 C1747 1.394 . S
C1746 H1754 0.930 . S
C1747 C1746 1.394 . S
C1747 C1748 1.383 . S
C1747 H1755 0.929 . S
C1748 C1747 1.383 . S
C1748 C1749 1.377 . S
C1749 H1733 0.930 . S
C1749 C1748 1.377 . S
C1749 C1750 1.379 . S
C1750 H1734 0.931 . S
C1750 C1744 1.383 . S
C1750 C1749 1.379 . S
H1751 C1745 0.959 . S
H1752 C1745 0.961 . S
H1753 C1745 0.960 . S
H1754 C1746 0.930 . S
H1755 C1747 0.929 . S
H1756 C1764 0.929 . S
H1757 C1766 0.930 . S
H1758 C1768 0.930 . S
H1759 C1771 0.929 . S
H1760 C1774 0.930 . S
H1761 C1776 0.960 . S
H1762 C1776 0.960 . S
H1763 C1776 0.960 . S
C1764 H1756 0.929 . S
C1764 C1765 1.377 . S
C1764 C1766 1.384 . S
C1765 C1764 1.377 . S
C1765 C1771 1.390 . S
C1766 H1757 0.930 . S
C1766 C1764 1.384 . S
C1766 C1767 1.372 . S
C1767 C1766 1.372 . S
C1767 C1768 1.400 . S
C1767 C1772 1.490 . S
C1768 H1758 0.930 . S
C1768 C1767 1.400 . S
C1768 C1771 1.386 . S
H1769 C1785 0.930 . S
H1770 C1786 0.931 . S
C1771 H1759 0.929 . S
C1771 C1765 1.390 . S
C1771 C1768 1.386 . S
C1772 C1767 1.490 . S
C1772 C1774 1.395 . S
C1772 C1775 1.403 . S
H1773 C1779 0.930 . S
C1774 H1760 0.930 . S
C1774 C1772 1.395 . S
C1774 C1777 1.403 . S
C1775 C1772 1.403 . S
C1775 C1776 1.524 . S
C1775 C1779 1.400 . S
C1776 H1761 0.960 . S
C1776 H1762 0.960 . S
C1776 H1763 0.960 . S
C1776 C1775 1.524 . S
C1777 C1774 1.403 . S
C1777 C1778 1.392 . S
C1777 C1781 1.495 . S
C1778 C1777 1.392 . S
C1778 C1779 1.385 . S
C1778 C1780 1.478 . S
C1779 H1773 0.930 . S
C1779 C1775 1.400 . S
C1779 C1778 1.385 . S
C1780 C1778 1.478 . S
C1780 C1782 1.381 . S
C1780 C1786 1.383 . S
C1781 C1777 1.495 . S
C1781 H1787 0.959 . S
C1781 H1788 0.961 . S
C1781 H1789 0.960 . S
C1782 C1780 1.381 . S
C1782 C1783 1.394 . S
C1782 H1790 0.930 . S
C1783 C1782 1.394 . S
C1783 C1784 1.383 . S
C1783 H1791 0.929 . S
C1784 C1783 1.383 . S
C1784 C1785 1.377 . S
C1785 H1769 0.930 . S
C1785 C1784 1.377 . S
C1785 C1786 1.379 . S
C1786 H1770 0.931 . S
C1786 C1780 1.383 . S
C1786 C1785 1.379 . S
H1787 C1781 0.959 . S
H1788 C1781 0.961 . S
H1789 C1781 0.960 . S
H1790 C1782 0.930 . S
H1791 C1783 0.929 . S
H1792 C1800 0.929 . S
H1793 C1802 0.930 . S
H1794 C1804 0.930 . S
H1795 C1807 0.929 . S
H1796 C1810 0.930 . S
H1797 C1812 0.960 . S
H1798 C1812 0.960 . S
H1799 C1812 0.960 1_556 S
C1800 H1792 0.929 . S
C1800 C1801 1.377 . S
C1800 C1802 1.384 . S
C1801 C1800 1.377 . S
C1801 C1807 1.390 . S
C1802 H1793 0.930 . S
C1802 C1800 1.384 . S
C1802 C1803 1.372 . S
C1803 C1802 1.372 . S
C1803 C1804 1.400 . S
C1803 C1808 1.490 . S
C1804 H1794 0.930 . S
C1804 C1803 1.400 . S
C1804 C1807 1.386 . S
H1805 C1821 0.930 . S
H1806 C1822 0.931 1_556 S
C1807 H1795 0.929 . S
C1807 C1801 1.390 . S
C1807 C1804 1.386 . S
C1808 C1803 1.490 . S
C1808 C1810 1.395 . S
C1808 C1811 1.403 1_556 S
H1809 C1815 0.930 . S
C1810 H1796 0.930 . S
C1810 C1808 1.395 . S
C1810 C1813 1.403 . S
C1811 C1808 1.403 1_554 S
C1811 C1812 1.524 . S
C1811 C1815 1.400 . S
C1812 H1797 0.960 . S
C1812 H1798 0.960 . S
C1812 H1799 0.960 1_554 S
C1812 C1811 1.524 . S
C1813 C1810 1.403 . S
C1813 C1814 1.392 1_556 S
C1813 C1817 1.495 . S
C1814 C1813 1.392 1_554 S
C1814 C1815 1.385 . S
C1814 C1816 1.478 . S
C1815 H1809 0.930 . S
C1815 C1811 1.400 . S
C1815 C1814 1.385 . S
C1816 C1814 1.478 . S
C1816 C1818 1.381 . S
C1816 C1822 1.383 . S
C1817 C1813 1.495 . S
C1817 H1823 0.959 . S
C1817 H1824 0.961 . S
C1817 H1825 0.960 1_556 S
C1818 C1816 1.381 . S
C1818 C1819 1.394 . S
C1818 H1826 0.930 . S
C1819 C1818 1.394 . S
C1819 C1820 1.383 . S
C1819 H1827 0.929 . S
C1820 C1819 1.383 . S
C1820 C1821 1.377 . S
C1821 H1805 0.930 . S
C1821 C1820 1.377 . S
C1821 C1822 1.379 . S
C1822 H1806 0.931 1_554 S
C1822 C1816 1.383 . S
C1822 C1821 1.379 . S
H1823 C1817 0.959 . S
H1824 C1817 0.961 . S
H1825 C1817 0.960 1_554 S
H1826 C1818 0.930 . S
H1827 C1819 0.929 . S
H1828 C1836 0.929 . S
H1829 C1838 0.930 1_556 S
H1830 C1840 0.930 . S
H1831 C1843 0.929 . S
H1832 C1846 0.930 . S
H1833 C1848 0.960 . S
H1834 C1848 0.960 . S
H1835 C1848 0.960 . S
C1836 H1828 0.929 . S
C1836 C1837 1.377 . S
C1836 C1838 1.384 . S
C1837 C1836 1.377 . S
C1837 C1843 1.390 . S
C1838 H1829 0.930 1_554 S
C1838 C1836 1.384 . S
C1838 C1839 1.372 . S
C1839 C1838 1.372 . S
C1839 C1840 1.400 . S
C1839 C1844 1.490 . S
C1840 H1830 0.930 . S
C1840 C1839 1.400 . S
C1840 C1843 1.386 . S
H1841 C1857 0.930 . S
H1842 C1858 0.931 1_554 S
C1843 H1831 0.929 . S
C1843 C1837 1.390 . S
C1843 C1840 1.386 . S
C1844 C1839 1.490 . S
C1844 C1846 1.395 1_554 S
C1844 C1847 1.403 . S
H1845 C1851 0.930 . S
C1846 H1832 0.930 . S
C1846 C1844 1.395 1_556 S
C1846 C1849 1.403 . S
C1847 C1844 1.403 . S
C1847 C1848 1.524 . S
C1847 C1851 1.400 . S
C1848 H1833 0.960 . S
C1848 H1834 0.960 . S
C1848 H1835 0.960 . S
C1848 C1847 1.524 . S
C1849 C1846 1.403 . S
C1849 C1850 1.392 . S
C1849 C1853 1.495 . S
C1850 C1849 1.392 . S
C1850 C1851 1.385 1_556 S
C1850 C1852 1.478 . S
C1851 H1845 0.930 . S
C1851 C1847 1.400 . S
C1851 C1850 1.385 1_554 S
C1852 C1850 1.478 . S
C1852 C1854 1.381 . S
C1852 C1858 1.383 . S
C1853 C1849 1.495 . S
C1853 H1859 0.959 . S
C1853 H1860 0.961 . S
C1853 H1861 0.960 . S
C1854 C1852 1.381 . S
C1854 C1855 1.394 . S
C1854 H1862 0.930 . S
C1855 C1854 1.394 . S
C1855 C1856 1.383 . S
C1855 H1863 0.929 . S
C1856 C1855 1.383 . S
C1856 C1857 1.377 . S
C1857 H1841 0.930 . S
C1857 C1856 1.377 . S
C1857 C1858 1.379 . S
C1858 H1842 0.931 1_556 S
C1858 C1852 1.383 . S
C1858 C1857 1.379 . S
H1859 C1853 0.959 . S
H1860 C1853 0.961 . S
H1861 C1853 0.960 . S
H1862 C1854 0.930 . S
H1863 C1855 0.929 . S
H1864 C1872 0.929 . S
H1865 C1874 0.930 . S
H1866 C1876 0.930 . S
H1867 C1879 0.929 . S
H1868 C1882 0.930 . S
H1869 C1884 0.960 . S
H1870 C1884 0.960 . S
H1871 C1884 0.960 . S
C1872 H1864 0.929 . S
C1872 C1873 1.377 . S
C1872 C1874 1.384 . S
C1873 C1872 1.377 . S
C1873 C1879 1.390 . S
C1874 H1865 0.930 . S
C1874 C1872 1.384 . S
C1874 C1875 1.372 . S
C1875 C1874 1.372 . S
C1875 C1876 1.400 . S
C1875 C1880 1.490 . S
C1876 H1866 0.930 . S
C1876 C1875 1.400 . S
C1876 C1879 1.386 . S
H1877 C1893 0.930 . S
H1878 C1894 0.931 . S
C1879 H1867 0.929 . S
C1879 C1873 1.390 . S
C1879 C1876 1.386 . S
C1880 C1875 1.490 . S
C1880 C1882 1.395 1_554 S
C1880 C1883 1.403 . S
H1881 C1887 0.930 . S
C1882 H1868 0.930 . S
C1882 C1880 1.395 1_556 S
C1882 C1885 1.403 . S
C1883 C1880 1.403 . S
C1883 C1884 1.524 . S
C1883 C1887 1.400 . S
C1884 H1869 0.960 . S
C1884 H1870 0.960 . S
C1884 H1871 0.960 . S
C1884 C1883 1.524 . S
C1885 C1882 1.403 . S
C1885 C1886 1.392 . S
C1885 C1889 1.495 . S
C1886 C1885 1.392 . S
C1886 C1887 1.385 1_556 S
C1886 C1888 1.478 . S
C1887 H1881 0.930 . S
C1887 C1883 1.400 . S
C1887 C1886 1.385 1_554 S
C1888 C1886 1.478 . S
C1888 C1890 1.381 . S
C1888 C1894 1.383 . S
C1889 C1885 1.495 . S
C1889 H1895 0.959 . S
C1889 H1896 0.961 . S
C1889 H1897 0.960 . S
C1890 C1888 1.381 . S
C1890 C1891 1.394 . S
C1890 H1898 0.930 . S
C1891 C1890 1.394 . S
C1891 C1892 1.383 . S
C1891 H1899 0.929 . S
C1892 C1891 1.383 . S
C1892 C1893 1.377 . S
C1893 H1877 0.930 . S
C1893 C1892 1.377 . S
C1893 C1894 1.379 . S
C1894 H1878 0.931 . S
C1894 C1888 1.383 . S
C1894 C1893 1.379 . S
H1895 C1889 0.959 . S
H1896 C1889 0.961 . S
H1897 C1889 0.960 . S
H1898 C1890 0.930 . S
H1899 C1891 0.929 . S
H1900 C1908 0.929 . S
H1901 C1910 0.930 . S
H1902 C1912 0.930 1_556 S
H1903 C1915 0.929 . S
H1904 C1918 0.930 . S
H1905 C1920 0.960 . S
H1906 C1920 0.960 1_554 S
H1907 C1920 0.960 . S
C1908 H1900 0.929 . S
C1908 C1909 1.377 . S
C1908 C1910 1.384 . S
C1909 C1908 1.377 . S
C1909 C1915 1.390 . S
C1910 H1901 0.930 . S
C1910 C1908 1.384 . S
C1910 C1911 1.372 . S
C1911 C1910 1.372 . S
C1911 C1912 1.400 . S
C1911 C1916 1.490 . S
C1912 H1902 0.930 1_554 S
C1912 C1911 1.400 . S
C1912 C1915 1.386 . S
H1913 C1929 0.930 . S
H1914 C1930 0.931 . S
C1915 H1903 0.929 . S
C1915 C1909 1.390 . S
C1915 C1912 1.386 . S
C1916 C1911 1.490 . S
C1916 C1918 1.395 . S
C1916 C1919 1.403 1_554 S
H1917 C1923 0.930 . S
C1918 H1904 0.930 . S
C1918 C1916 1.395 . S
C1918 C1921 1.403 . S
C1919 C1916 1.403 1_556 S
C1919 C1920 1.524 . S
C1919 C1923 1.400 . S
C1920 H1905 0.960 . S
C1920 H1906 0.960 1_556 S
C1920 H1907 0.960 . S
C1920 C1919 1.524 . S
C1921 C1918 1.403 . S
C1921 C1922 1.392 1_554 S
C1921 C1925 1.495 . S
C1922 C1921 1.392 1_556 S
C1922 C1923 1.385 . S
C1922 C1924 1.478 . S
C1923 H1917 0.930 . S
C1923 C1919 1.400 . S
C1923 C1922 1.385 . S
C1924 C1922 1.478 . S
C1924 C1926 1.381 . S
C1924 C1930 1.383 . S
C1925 C1921 1.495 . S
C1925 H1931 0.959 . S
C1925 H1932 0.961 1_554 S
C1925 H1933 0.960 . S
C1926 C1924 1.381 . S
C1926 C1927 1.394 . S
C1926 H1934 0.930 1_556 S
C1927 C1926 1.394 . S
C1927 C1928 1.383 . S
C1927 H1935 0.929 . S
C1928 C1927 1.383 . S
C1928 C1929 1.377 . S
C1929 H1913 0.930 . S
C1929 C1928 1.377 . S
C1929 C1930 1.379 . S
C1930 H1914 0.931 . S
C1930 C1924 1.383 . S
C1930 C1929 1.379 . S
H1931 C1925 0.959 . S
H1932 C1925 0.961 1_556 S
H1933 C1925 0.960 . S
H1934 C1926 0.930 1_554 S
H1935 C1927 0.929 . S
H1936 C1944 0.929 . S
H1937 C1946 0.930 . S
H1938 C1948 0.930 . S
H1939 C1951 0.929 . S
H1940 C1954 0.930 . S
H1941 C1956 0.960 . S
H1942 C1956 0.960 . S
H1943 C1956 0.960 . S
C1944 H1936 0.929 . S
C1944 C1945 1.377 . S
C1944 C1946 1.384 . S
C1945 C1944 1.377 . S
C1945 C1951 1.390 . S
C1946 H1937 0.930 . S
C1946 C1944 1.384 . S
C1946 C1947 1.372 . S
C1947 C1946 1.372 . S
C1947 C1948 1.400 . S
C1947 C1952 1.490 . S
C1948 H1938 0.930 . S
C1948 C1947 1.400 . S
C1948 C1951 1.386 . S
H1949 C1965 0.930 . S
H1950 C1966 0.931 . S
C1951 H1939 0.929 . S
C1951 C1945 1.390 . S
C1951 C1948 1.386 . S
C1952 C1947 1.490 . S
C1952 C1954 1.395 . S
C1952 C1955 1.403 . S
H1953 C1959 0.930 . S
C1954 H1940 0.930 . S
C1954 C1952 1.395 . S
C1954 C1957 1.403 . S
C1955 C1952 1.403 . S
C1955 C1956 1.524 . S
C1955 C1959 1.400 . S
C1956 H1941 0.960 . S
C1956 H1942 0.960 . S
C1956 H1943 0.960 . S
C1956 C1955 1.524 . S
C1957 C1954 1.403 . S
C1957 C1958 1.392 . S
C1957 C1961 1.495 . S
C1958 C1957 1.392 . S
C1958 C1959 1.385 . S
C1958 C1960 1.478 . S
C1959 H1953 0.930 . S
C1959 C1955 1.400 . S
C1959 C1958 1.385 . S
C1960 C1958 1.478 . S
C1960 C1962 1.381 . S
C1960 C1966 1.383 . S
C1961 C1957 1.495 . S
C1961 H1967 0.959 . S
C1961 H1968 0.961 . S
C1961 H1969 0.960 . S
C1962 C1960 1.381 . S
C1962 C1963 1.394 . S
C1962 H1970 0.930 . S
C1963 C1962 1.394 . S
C1963 C1964 1.383 . S
C1963 H1971 0.929 . S
C1964 C1963 1.383 . S
C1964 C1965 1.377 . S
C1965 H1949 0.930 . S
C1965 C1964 1.377 . S
C1965 C1966 1.379 . S
C1966 H1950 0.931 . S
C1966 C1960 1.383 . S
C1966 C1965 1.379 . S
H1967 C1961 0.959 . S
H1968 C1961 0.961 . S
H1969 C1961 0.960 . S
H1970 C1962 0.930 . S
H1971 C1963 0.929 . S
H1972 C1980 0.929 . S
H1973 C1982 0.930 . S
H1974 C1984 0.930 . S
H1975 C1987 0.929 . S
H1976 C1990 0.930 . S
H1977 C1992 0.960 . S
H1978 C1992 0.960 . S
H1979 C1992 0.960 . S
C1980 H1972 0.929 . S
C1980 C1981 1.377 . S
C1980 C1982 1.384 . S
C1981 C1980 1.377 . S
C1981 C1987 1.390 . S
C1982 H1973 0.930 . S
C1982 C1980 1.384 . S
C1982 C1983 1.372 . S
C1983 C1982 1.372 . S
C1983 C1984 1.400 . S
C1983 C1988 1.490 . S
C1984 H1974 0.930 . S
C1984 C1983 1.400 . S
C1984 C1987 1.386 . S
H1985 C2001 0.930 . S
H1986 C2002 0.931 . S
C1987 H1975 0.929 . S
C1987 C1981 1.390 . S
C1987 C1984 1.386 . S
C1988 C1983 1.490 . S
C1988 C1990 1.395 . S
C1988 C1991 1.403 . S
H1989 C1995 0.930 . S
C1990 H1976 0.930 . S
C1990 C1988 1.395 . S
C1990 C1993 1.403 . S
C1991 C1988 1.403 . S
C1991 C1992 1.524 . S
C1991 C1995 1.400 . S
C1992 H1977 0.960 . S
C1992 H1978 0.960 . S
C1992 H1979 0.960 . S
C1992 C1991 1.524 . S
C1993 C1990 1.403 . S
C1993 C1994 1.392 . S
C1993 C1997 1.495 . S
C1994 C1993 1.392 . S
C1994 C1995 1.385 . S
C1994 C1996 1.478 . S
C1995 H1989 0.930 . S
C1995 C1991 1.400 . S
C1995 C1994 1.385 . S
C1996 C1994 1.478 . S
C1996 C1998 1.381 . S
C1996 C2002 1.383 . S
C1997 C1993 1.495 . S
C1997 H2003 0.959 . S
C1997 H2004 0.961 . S
C1997 H2005 0.960 . S
C1998 C1996 1.381 . S
C1998 C1999 1.394 . S
C1998 H2006 0.930 . S
C1999 C1998 1.394 . S
C1999 C2000 1.383 . S
C1999 H2007 0.929 . S
C2000 C1999 1.383 . S
C2000 C2001 1.377 . S
C2001 H1985 0.930 . S
C2001 C2000 1.377 . S
C2001 C2002 1.379 . S
C2002 H1986 0.931 . S
C2002 C1996 1.383 . S
C2002 C2001 1.379 . S
H2003 C1997 0.959 . S
H2004 C1997 0.961 . S
H2005 C1997 0.960 . S
H2006 C1998 0.930 . S
H2007 C1999 0.929 . S
H2008 C2016 0.929 . S
H2009 C2018 0.930 . S
H2010 C2020 0.930 . S
H2011 C2023 0.929 . S
H2012 C2026 0.930 . S
H2013 C2028 0.960 . S
H2014 C2028 0.960 . S
H2015 C2028 0.960 . S
C2016 H2008 0.929 . S
C2016 C2017 1.377 . S
C2016 C2018 1.384 . S
C2017 C2016 1.377 . S
C2017 C2023 1.390 . S
C2018 H2009 0.930 . S
C2018 C2016 1.384 . S
C2018 C2019 1.372 . S
C2019 C2018 1.372 . S
C2019 C2020 1.400 . S
C2019 C2024 1.490 . S
C2020 H2010 0.930 . S
C2020 C2019 1.400 . S
C2020 C2023 1.386 . S
H2021 C2037 0.930 . S
H2022 C2038 0.931 . S
C2023 H2011 0.929 . S
C2023 C2017 1.390 . S
C2023 C2020 1.386 . S
C2024 C2019 1.490 . S
C2024 C2026 1.395 . S
C2024 C2027 1.403 . S
H2025 C2031 0.930 . S
C2026 H2012 0.930 . S
C2026 C2024 1.395 . S
C2026 C2029 1.403 . S
C2027 C2024 1.403 . S
C2027 C2028 1.524 . S
C2027 C2031 1.400 . S
C2028 H2013 0.960 . S
C2028 H2014 0.960 . S
C2028 H2015 0.960 . S
C2028 C2027 1.524 . S
C2029 C2026 1.403 . S
C2029 C2030 1.392 . S
C2029 C2033 1.495 . S
C2030 C2029 1.392 . S
C2030 C2031 1.385 . S
C2030 C2032 1.478 . S
C2031 H2025 0.930 . S
C2031 C2027 1.400 . S
C2031 C2030 1.385 . S
C2032 C2030 1.478 . S
C2032 C2034 1.381 . S
C2032 C2038 1.383 . S
C2033 C2029 1.495 . S
C2033 H2039 0.959 . S
C2033 H2040 0.961 . S
C2033 H2041 0.960 . S
C2034 C2032 1.381 . S
C2034 C2035 1.394 . S
C2034 H2042 0.930 . S
C2035 C2034 1.394 . S
C2035 C2036 1.383 . S
C2035 H2043 0.929 . S
C2036 C2035 1.383 . S
C2036 C2037 1.377 . S
C2037 H2021 0.930 . S
C2037 C2036 1.377 . S
C2037 C2038 1.379 . S
C2038 H2022 0.931 . S
C2038 C2032 1.383 . S
C2038 C2037 1.379 . S
H2039 C2033 0.959 . S
H2040 C2033 0.961 . S
H2041 C2033 0.960 . S
H2042 C2034 0.930 . S
H2043 C2035 0.929 . S
H2044 C2052 0.929 . S
H2045 C2054 0.930 . S
H2046 C2056 0.930 . S
H2047 C2059 0.929 . S
H2048 C2062 0.930 . S
H2049 C2064 0.960 . S
H2050 C2064 0.960 . S
H2051 C2064 0.960 . S
C2052 H2044 0.929 . S
C2052 C2053 1.377 . S
C2052 C2054 1.384 . S
C2053 C2052 1.377 . S
C2053 C2059 1.390 . S
C2054 H2045 0.930 . S
C2054 C2052 1.384 . S
C2054 C2055 1.372 . S
C2055 C2054 1.372 . S
C2055 C2056 1.400 . S
C2055 C2060 1.490 . S
C2056 H2046 0.930 . S
C2056 C2055 1.400 . S
C2056 C2059 1.386 . S
H2057 C2073 0.930 . S
H2058 C2074 0.931 . S
C2059 H2047 0.929 . S
C2059 C2053 1.390 . S
C2059 C2056 1.386 . S
C2060 C2055 1.490 . S
C2060 C2062 1.395 . S
C2060 C2063 1.403 . S
H2061 C2067 0.930 . S
C2062 H2048 0.930 . S
C2062 C2060 1.395 . S
C2062 C2065 1.403 . S
C2063 C2060 1.403 . S
C2063 C2064 1.524 . S
C2063 C2067 1.400 . S
C2064 H2049 0.960 . S
C2064 H2050 0.960 . S
C2064 H2051 0.960 . S
C2064 C2063 1.524 . S
C2065 C2062 1.403 . S
C2065 C2066 1.392 . S
C2065 C2069 1.495 . S
C2066 C2065 1.392 . S
C2066 C2067 1.385 . S
C2066 C2068 1.478 . S
C2067 H2061 0.930 . S
C2067 C2063 1.400 . S
C2067 C2066 1.385 . S
C2068 C2066 1.478 . S
C2068 C2070 1.381 . S
C2068 C2074 1.383 . S
C2069 C2065 1.495 . S
C2069 H2075 0.959 . S
C2069 H2076 0.961 . S
C2069 H2077 0.960 . S
C2070 C2068 1.381 . S
C2070 C2071 1.394 . S
C2070 H2078 0.930 . S
C2071 C2070 1.394 . S
C2071 C2072 1.383 . S
C2071 H2079 0.929 . S
C2072 C2071 1.383 . S
C2072 C2073 1.377 . S
C2073 H2057 0.930 . S
C2073 C2072 1.377 . S
C2073 C2074 1.379 . S
C2074 H2058 0.931 . S
C2074 C2068 1.383 . S
C2074 C2073 1.379 . S
H2075 C2069 0.959 . S
H2076 C2069 0.961 . S
H2077 C2069 0.960 . S
H2078 C2070 0.930 . S
H2079 C2071 0.929 . S
C361 C5 1.126 . S
C380 C115 1.091 . S
C397 C29 1.129 . S
C416 C139 1.097 . S
C433 C163 1.118 . S
C452 C53 1.147 . S
C469 C94 1.117 . S
C488 C72 1.141 . S
C505 C291 1.130 . S
C524 C181 1.147 . S
C541 C205 1.129 . S
C560 C315 1.085 . S
C577 C339 1.123 . S
C596 C229 1.084 . S
C613 C270 1.116 . S
C632 C248 1.143 . S
C649 C8 1.238 1_565 S
C668 C27 1.204 . S
C685 C50 1.181 . S
C704 C26 1.235 1_655 S
C721 C75 1.171 . S
C740 C48 1.229 1_545 S
C757 C74 1.238 1_455 S
C776 C7 1.160 . S
C793 C96 1.243 1_565 S
C812 C160 1.215 . S
C829 C97 1.171 . S
C848 C118 1.231 1_655 S
C865 C117 1.184 . S
C884 C136 1.240 1_545 S
C901 C137 1.187 . S
C920 C158 1.238 1_455 S
C937 C184 1.239 . S
C956 C203 1.217 . S
C973 C226 1.179 . S
C992 C202 1.231 . S
C1009 C224 1.243 . S
C1028 C251 1.156 . S
C1045 C250 1.239 . S
C1064 C183 1.180 . S
C1081 C336 1.184 . S
C1100 C272 1.242 . S
C1117 C273 1.184 . S
C1136 C294 1.248 . S
C1153 C293 1.170 . S
C1172 C312 1.226 . S
C1189 C334 1.242 . S
C1208 C313 1.139 . S
C1225 C140 1.338 . S
C1244 C9 1.387 . S
C1261 C162 1.339 . S
C1280 C28 1.375 . S
C1297 C49 1.393 . S
C1316 C92 1.369 . S
C1333 C73 1.389 . S
C1352 C114 1.357 . S
C1369 C52 1.347 . S
C1388 C95 1.397 . S
C1405 C119 1.389 . S
C1424 C70 1.332 . S
C1441 C138 1.394 . S
C1460 C4 1.356 . S
C1477 C30 1.347 . S
C1496 C159 1.403 . S
C1513 C185 1.393 . S
C1532 C316 1.368 . S
C1549 C204 1.389 . S
C1568 C338 1.355 . S
C1585 C268 1.347 . S
C1604 C225 1.403 . S
C1621 C249 1.389 . S
C1640 C290 1.324 . S
C1657 C271 1.394 . S
C1676 C228 1.353 . S
C1693 C295 1.394 . S
C1712 C246 1.350 . S
C1729 C314 1.392 . S
C1748 C180 1.308 . S
C1765 C206 1.343 . S
C1784 C335 1.383 . S
C1801 C337 1.450 . S
C1820 C6 1.424 . S
C1837 C269 1.451 . S
C1856 C31 1.484 . S
C1873 C51 1.465 . S
C1892 C292 1.489 . S
C1909 C317 1.464 . S
C1928 C71 1.430 . S
C1945 C93 1.454 . S
C1964 C207 1.429 . S
C1981 C116 1.464 . S
C2000 C227 1.477 . S
C2017 C247 1.464 . S
C2036 C141 1.426 . S
C2053 C161 1.452 . S
C2072 C182 1.434 . S
