# Generated by pormake.
# Topology wjs, (5)-cn, num edge types: 1
# Building blocks:
#     Node 0, Type 0, BuildingBlock: XOMCOT_clean_sbu_1, # of connection points: 5
#     Node 1, Type 0, BuildingBlock: XOMCOT_clean_sbu_1, # of connection points: 5
#     Node 2, Type 0, BuildingBlock: XOMCOT_clean_sbu_1, # of connection points: 5
#     Node 3, Type 0, BuildingBlock: XOMCOT_clean_sbu_1, # of connection points: 5
#     Node 4, Type 0, BuildingBlock: XOMCOT_clean_sbu_1, # of connection points: 5
#     Node 5, Type 0, BuildingBlock: XOMCOT_clean_sbu_1, # of connection points: 5
#     Node 6, Type 0, BuildingBlock: XOMCOT_clean_sbu_1, # of connection points: 5
#     Node 7, Type 0, BuildingBlock: XOMCOT_clean_sbu_1, # of connection points: 5
#     Node 8, Type 0, BuildingBlock: XOMCOT_clean_sbu_1, # of connection points: 5
#     Node 9, Type 0, BuildingBlock: XOMCOT_clean_sbu_1, # of connection points: 5
#     Node 10, Type 0, BuildingBlock: XOMCOT_clean_sbu_1, # of connection points: 5
#     Node 11, Type 0, BuildingBlock: XOMCOT_clean_sbu_1, # of connection points: 5
#     Edge 12, Type (0, 0), BuildingBlock: XIVTED_clean_linker_0, # of connection points: 2
#     Edge 13, Type (0, 0), BuildingBlock: XIVTED_clean_linker_0, # of connection points: 2
#     Edge 14, Type (0, 0), BuildingBlock: XIVTED_clean_linker_0, # of connection points: 2
#     Edge 15, Type (0, 0), BuildingBlock: XIVTED_clean_linker_0, # of connection points: 2
#     Edge 16, Type (0, 0), BuildingBlock: XIVTED_clean_linker_0, # of connection points: 2
#     Edge 17, Type (0, 0), BuildingBlock: XIVTED_clean_linker_0, # of connection points: 2
#     Edge 18, Type (0, 0), BuildingBlock: XIVTED_clean_linker_0, # of connection points: 2
#     Edge 19, Type (0, 0), BuildingBlock: XIVTED_clean_linker_0, # of connection points: 2
#     Edge 20, Type (0, 0), BuildingBlock: XIVTED_clean_linker_0, # of connection points: 2
#     Edge 21, Type (0, 0), BuildingBlock: XIVTED_clean_linker_0, # of connection points: 2
#     Edge 22, Type (0, 0), BuildingBlock: XIVTED_clean_linker_0, # of connection points: 2
#     Edge 23, Type (0, 0), BuildingBlock: XIVTED_clean_linker_0, # of connection points: 2
#     Edge 24, Type (0, 0), BuildingBlock: XIVTED_clean_linker_0, # of connection points: 2
#     Edge 25, Type (0, 0), BuildingBlock: XIVTED_clean_linker_0, # of connection points: 2
#     Edge 26, Type (0, 0), BuildingBlock: XIVTED_clean_linker_0, # of connection points: 2
#     Edge 27, Type (0, 0), BuildingBlock: XIVTED_clean_linker_0, # of connection points: 2
#     Edge 28, Type (0, 0), BuildingBlock: XIVTED_clean_linker_0, # of connection points: 2
#     Edge 29, Type (0, 0), BuildingBlock: XIVTED_clean_linker_0, # of connection points: 2
#     Edge 30, Type (0, 0), BuildingBlock: XIVTED_clean_linker_0, # of connection points: 2
#     Edge 31, Type (0, 0), BuildingBlock: XIVTED_clean_linker_0, # of connection points: 2
#     Edge 32, Type (0, 0), BuildingBlock: XIVTED_clean_linker_0, # of connection points: 2
#     Edge 33, Type (0, 0), BuildingBlock: XIVTED_clean_linker_0, # of connection points: 2
#     Edge 34, Type (0, 0), BuildingBlock: XIVTED_clean_linker_0, # of connection points: 2
#     Edge 35, Type (0, 0), BuildingBlock: XIVTED_clean_linker_0, # of connection points: 2
#     Edge 36, Type (0, 0), BuildingBlock: XIVTED_clean_linker_0, # of connection points: 2
#     Edge 37, Type (0, 0), BuildingBlock: XIVTED_clean_linker_0, # of connection points: 2
#     Edge 38, Type (0, 0), BuildingBlock: XIVTED_clean_linker_0, # of connection points: 2
#     Edge 39, Type (0, 0), BuildingBlock: XIVTED_clean_linker_0, # of connection points: 2
#     Edge 40, Type (0, 0), BuildingBlock: XIVTED_clean_linker_0, # of connection points: 2
#     Edge 41, Type (0, 0), BuildingBlock: XIVTED_clean_linker_0, # of connection points: 2
# Relax obj value: 0.371
# Max RMSD: 0.267
# Mean RMSD: 0.267
data_MOF--net-wjs--node1-XOMCOT_clean_sbu_1--edge1-XIVTED_clean_linker_0
_symmetry_space_group_name_H-M    P1
_symmetry_Int_Tables_number       1
_symmetry_cell_setting            triclinic
loop_
_symmetry_equiv_pos_as_xyz
'x, y, z'
_cell_length_a     31.339917
_cell_length_b     31.338957
_cell_length_c     67.776694
_cell_angle_alpha  90.030904
_cell_angle_beta   89.986872
_cell_angle_gamma 120.02936
loop_
_atom_site_label
_atom_site_type_symbol
_atom_site_fract_x
_atom_site_fract_y
_atom_site_fract_z
_atom_type_partial_charge
C0 C 0.28811 0.36005 0.04536 0.0
C1 C 0.30275 0.33161 0.05558 0.0
N2 N 0.26986 0.28389 0.052 0.0
N3 N 0.24661 0.33021 0.03523 0.0
C4 C 0.23632 0.28413 0.03964 0.0
H5 H 0.30616 0.39984 0.0455 0.0
Co6 Co 0.20961 0.34806 0.01962 0.0
C7 C 0.16395 0.26489 0.99029 0.0
O8 O 0.12084 0.26231 0.98956 0.0
N9 N 0.17263 0.36648 0.00415 0.0
C10 C 0.14033 0.38726 0.97938 0.0
C11 C 0.17435 0.3736 0.98447 0.0
C12 C 0.13815 0.37675 0.01072 0.0
N13 N 0.11758 0.38919 0.99596 0.0
O14 O 0.15203 0.30407 0.03455 0.0
H15 H 0.19874 0.3691 0.97448 0.0
H16 H 0.12805 0.37474 0.02608 0.0
O17 O 0.19786 0.2961 1.00148 0.0
C18 C 0.1524 0.32042 0.0518 0.0
O19 O 0.18827 0.36475 0.05642 0.0
N20 N 0.26712 0.39234 0.00609 0.0
C21 C 0.36365 0.46107 0.99572 0.0
C22 C 0.3428 0.4116 0.99001 0.0
C23 C 0.29464 0.3777 0.99548 0.0
C24 C 0.28541 0.44081 0.01057 0.0
C25 C 0.3338 0.47592 0.00555 0.0
H26 H 0.28143 0.33931 0.99247 0.0
H27 H 0.26351 0.45166 0.01931 0.0
H28 H 0.20459 0.25134 0.03393 0.0
H29 H 0.33425 0.34492 0.06531 0.0
H30 H 0.13359 0.39595 0.96467 0.0
H31 H 0.36468 0.39824 0.98278 0.0
H32 H 0.34841 0.51382 0.01016 0.0
C33 C 0.92425 0.27744 0.21518 0.0
C34 C 0.96632 0.29156 0.22602 0.0
N35 N 0.9843 0.26194 0.22111 0.0
N36 N 0.91624 0.23951 0.20337 0.0
C37 C 0.95314 0.23058 0.20742 0.0
H38 H 0.90101 0.29381 0.2158 0.0
Co39 Co 0.86489 0.2081 0.18564 0.0
C40 C 0.90108 0.16027 0.15712 0.0
O41 O 0.85844 0.11936 0.15556 0.0
N42 N 0.81267 0.17699 0.16803 0.0
C43 C 0.76537 0.15492 0.14129 0.0
C44 C 0.81247 0.184 0.14839 0.0
C45 C 0.76552 0.14389 0.17255 0.0
N46 N 0.73598 0.12963 0.15655 0.0
O47 O 0.84367 0.14749 0.19957 0.0
H48 H 0.84447 0.20893 0.13981 0.0
H49 H 0.75267 0.13162 0.1874 0.0
O50 O 0.90588 0.19455 0.16862 0.0
C51 C 0.82301 0.14646 0.21588 0.0
O52 O 0.81468 0.18273 0.21983 0.0
N53 N 0.88611 0.26891 0.17315 0.0
C54 C 0.92689 0.3694 0.1664 0.0
C55 C 0.95288 0.34539 0.16141 0.0
C56 C 0.93203 0.29519 0.16499 0.0
C57 C 0.85853 0.29073 0.17653 0.0
C58 C 0.87824 0.34126 0.17316 0.0
H59 H 0.95503 0.27905 0.16283 0.0
H60 H 0.82272 0.26976 0.18341 0.0
H61 H 0.95739 0.20204 0.20028 0.0
H62 H 0.98202 0.32085 0.23686 0.0
H63 H 0.75368 0.15264 0.12612 0.0
H64 H 0.99047 0.36597 0.15607 0.0
H65 H 0.85721 0.35872 0.17731 0.0
C66 C 0.63439 0.92629 0.37869 0.0
C67 C 0.66202 0.96925 0.3891 0.0
N68 N 0.71 0.98524 0.38558 0.0
N69 N 0.6649 0.91572 0.36849 0.0
C70 C 0.71067 0.95214 0.37304 0.0
H71 H 0.59466 0.90375 0.37883 0.0
Co72 Co 0.64744 0.86073 0.35291 0.0
C73 C 0.73067 0.89857 0.3236 0.0
O74 O 0.73397 0.85842 0.32313 0.0
N75 N 0.62931 0.80515 0.33749 0.0
C76 C 0.6085 0.75198 0.31272 0.0
C77 C 0.6227 0.79983 0.31778 0.0
C78 C 0.61817 0.76015 0.3441 0.0
N79 N 0.60567 0.72707 0.32934 0.0
O80 O 0.69139 0.84757 0.36797 0.0
H81 H 0.62775 0.82884 0.30776 0.0
H82 H 0.61944 0.75187 0.35949 0.0
O83 O 0.6993 0.90105 0.33476 0.0
C84 C 0.67374 0.831 0.38501 0.0
O85 O 0.62892 0.82199 0.389 0.0
N86 N 0.60295 0.87338 0.33927 0.0
C87 C 0.53375 0.90025 0.32868 0.0
C88 C 0.58304 0.92879 0.32277 0.0
C89 C 0.61721 0.91504 0.32837 0.0
C90 C 0.5546 0.8432 0.34394 0.0
C91 C 0.51925 0.85605 0.33884 0.0
H92 H 0.65548 0.94024 0.32519 0.0
H93 H 0.54406 0.81086 0.3529 0.0
H94 H 0.74385 0.95404 0.36735 0.0
H95 H 0.64796 0.98649 0.39897 0.0
H96 H 0.59992 0.73657 0.29799 0.0
H97 H 0.59607 0.96367 0.31527 0.0
H98 H 0.4815 0.83293 0.34364 0.0
C99 C 0.71957 0.64355 0.54921 0.0
C100 C 0.70437 0.67057 0.56013 0.0
N101 N 0.72859 0.71734 0.5535 0.0
N102 N 0.75321 0.67335 0.53587 0.0
C103 C 0.75803 0.71806 0.53885 0.0
H104 H 0.70762 0.60489 0.55106 0.0
Co105 Co 0.78774 0.65557 0.51893 0.0
C106 C 0.83379 0.73981 0.4905 0.0
O107 O 0.87664 0.74178 0.49005 0.0
N108 N 0.82247 0.63659 0.50215 0.0
C109 C 0.8519 0.61581 0.47631 0.0
C110 C 0.81938 0.63069 0.48238 0.0
C111 C 0.85622 0.62433 0.50776 0.0
N112 N 0.87504 0.61183 0.49237 0.0
O113 O 0.84672 0.69833 0.53317 0.0
H114 H 0.79505 0.63682 0.47298 0.0
H115 H 0.86713 0.62485 0.52289 0.0
O116 O 0.79915 0.70843 0.50137 0.0
C117 C 0.85123 0.67962 0.54914 0.0
O118 O 0.81827 0.63381 0.5534 0.0
N119 N 0.72858 0.61273 0.50598 0.0
C120 C 0.6322 0.5459 0.49452 0.0
C121 C 0.65332 0.59618 0.49021 0.0
C122 C 0.70127 0.62906 0.49625 0.0
C123 C 0.70967 0.56372 0.50949 0.0
C124 C 0.66136 0.52953 0.5039 0.0
H125 H 0.71474 0.66784 0.49418 0.0
H126 H 0.73129 0.55146 0.51761 0.0
H127 H 0.78398 0.75095 0.53096 0.0
H128 H 0.67777 0.65697 0.57203 0.0
H129 H 0.85734 0.60772 0.4613 0.0
H130 H 0.63184 0.61066 0.48347 0.0
H131 H 0.6464 0.49099 0.50754 0.0
C132 C 0.06679 0.70944 0.71229 0.0
C133 C 0.02253 0.69418 0.72162 0.0
N134 N 0.00711 0.72612 0.7171 0.0
N135 N 0.07878 0.7504 0.70174 0.0
C136 C 0.04193 0.75988 0.70507 0.0
H137 H 0.08919 0.69219 0.71332 0.0
Co138 Co 0.13602 0.78664 0.68717 0.0
C139 C 0.08657 0.82814 0.66069 0.0
O140 O 0.09564 0.86737 0.67094 0.0
N141 N 0.19347 0.82304 0.67264 0.0
C142 C 0.2459 0.85681 0.64774 0.0
C143 C 0.19863 0.82206 0.65292 0.0
C144 C 0.23811 0.85815 0.67918 0.0
N145 N 0.27065 0.87965 0.66429 0.0
O146 O 0.14878 0.84462 0.70159 0.0
H147 H 0.16971 0.79795 0.64289 0.0
H148 H 0.24625 0.8687 0.6945 0.0
O149 O 0.10068 0.79892 0.66691 0.0
C150 C 0.16411 0.843 0.71883 0.0
O151 O 0.17176 0.80641 0.72305 0.0
N152 N 0.12355 0.72847 0.67426 0.0
C153 C 0.09571 0.6318 0.66401 0.0
C154 C 0.06625 0.65203 0.65886 0.0
C155 C 0.08041 0.70007 0.66435 0.0
C156 C 0.15419 0.71056 0.67846 0.0
C157 C 0.14087 0.66205 0.6735 0.0
H158 H 0.05435 0.71256 0.66208 0.0
H159 H 0.1875 0.7329 0.68683 0.0
H160 H 0.04089 0.79118 0.69892 0.0
H161 H 0.00394 0.66294 0.73145 0.0
H162 H 0.2609 0.86442 0.63294 0.0
H163 H 0.03047 0.62969 0.65207 0.0
H164 H 0.16457 0.64772 0.67781 0.0
C165 C 0.35373 0.06404 0.88082 0.0
C166 C 0.32485 0.02068 0.89079 0.0
N167 N 0.27736 0.00491 0.88632 0.0
N168 N 0.32449 0.0751 0.86998 0.0
C169 C 0.27821 0.03861 0.87371 0.0
H170 H 0.39342 0.08639 0.88161 0.0
Co171 Co 0.34428 0.13014 0.85424 0.0
C172 C 0.26221 0.09543 0.82467 0.0
O173 O 0.26094 0.13669 0.82442 0.0
N174 N 0.36484 0.18583 0.83863 0.0
C175 C 0.38755 0.23856 0.81364 0.0
C176 C 0.37232 0.19064 0.81895 0.0
C177 C 0.37653 0.23119 0.84498 0.0
N178 N 0.39016 0.264 0.83007 0.0
O179 O 0.3012 0.14558 0.86881 0.0
H180 H 0.36693 0.16117 0.8091 0.0
H181 H 0.37466 0.23991 0.86026 0.0
O182 O 0.29244 0.09098 0.83584 0.0
C183 C 0.3184 0.16246 0.88588 0.0
O184 O 0.36245 0.16998 0.89037 0.0
N185 N 0.38779 0.11516 0.84111 0.0
C186 C 0.45468 0.08441 0.83155 0.0
C187 C 0.40551 0.05733 0.82531 0.0
C188 C 0.37249 0.07301 0.83039 0.0
C189 C 0.43614 0.14388 0.84612 0.0
C190 C 0.47032 0.12907 0.84154 0.0
H191 H 0.3341 0.04896 0.82696 0.0
H192 H 0.44747 0.17659 0.85495 0.0
H193 H 0.24577 0.03691 0.86731 0.0
H194 H 0.33772 0.00288 0.90093 0.0
H195 H 0.39681 0.25361 0.79887 0.0
H196 H 0.39161 0.02219 0.8179 0.0
H197 H 0.50803 0.15116 0.84656 0.0
C198 C 0.6384 0.70997 0.77946 0.0
C199 C 0.6666 0.69628 0.76852 0.0
N200 N 0.71437 0.72772 0.77268 0.0
N201 N 0.66837 0.74941 0.79059 0.0
C202 C 0.71438 0.75957 0.78607 0.0
H203 H 0.59867 0.69267 0.77915 0.0
Co204 Co 0.64978 0.78368 0.8074 0.0
C205 C 0.73337 0.82912 0.8362 0.0
O206 O 0.7356 0.8721 0.8366 0.0
N207 N 0.63022 0.8181 0.82405 0.0
C208 C 0.60873 0.84697 0.84986 0.0
C209 C 0.62442 0.81507 0.84383 0.0
C210 C 0.61706 0.85116 0.81839 0.0
N211 N 0.60411 0.86961 0.83377 0.0
O212 O 0.69277 0.84291 0.79337 0.0
H213 H 0.63107 0.79113 0.85324 0.0
H214 H 0.6172 0.86179 0.80324 0.0
O215 O 0.70213 0.79464 0.82521 0.0
C216 C 0.67392 0.84659 0.77729 0.0
O217 O 0.62845 0.81271 0.77299 0.0
N218 N 0.60644 0.72445 0.82011 0.0
C219 C 0.53884 0.62732 0.8302 0.0
C220 C 0.58878 0.64808 0.83512 0.0
C221 C 0.62208 0.69651 0.82979 0.0
C222 C 0.55766 0.70599 0.81622 0.0
C223 C 0.5231 0.6573 0.8211 0.0
H224 H 0.66072 0.70983 0.83222 0.0
H225 H 0.54599 0.72821 0.80818 0.0
H226 H 0.74724 0.78985 0.79247 0.0
H227 H 0.65308 0.66634 0.75798 0.0
H228 H 0.60049 0.85228 0.86486 0.0
H229 H 0.60277 0.62604 0.84173 0.0
H230 H 0.48483 0.64269 0.81707 0.0
C231 C 0.92566 0.63383 0.94806 0.0
C232 C 0.96903 0.66174 0.93793 0.0
N233 N 0.98494 0.70961 0.94168 0.0
N234 N 0.91478 0.66408 0.95829 0.0
C235 C 0.95139 0.70995 0.95404 0.0
H236 H 0.90314 0.5941 0.94777 0.0
Co237 Co 0.85966 0.64648 0.97376 0.0
C238 C 0.89725 0.7293 0.00333 0.0
O239 O 0.8571 0.73261 0.00381 0.0
N240 N 0.80398 0.62826 0.98911 0.0
C241 C 0.7508 0.6075 0.01387 0.0
C242 C 0.79851 0.62122 0.0088 0.0
C243 C 0.7592 0.61786 0.98252 0.0
N244 N 0.72613 0.60543 0.99727 0.0
O245 O 0.84654 0.69055 0.95869 0.0
H246 H 0.82737 0.62574 0.01881 0.0
H247 H 0.75107 0.6197 0.96715 0.0
O248 O 0.89982 0.69814 0.99206 0.0
C249 C 0.82995 0.67272 0.94166 0.0
O250 O 0.82123 0.62797 0.93771 0.0
N251 N 0.87221 0.60187 0.98735 0.0
C252 C 0.89898 0.53247 0.99777 0.0
C253 C 0.92791 0.58186 0.00353 0.0
C254 C 0.91418 0.61609 0.99803 0.0
C255 C 0.84172 0.55349 0.98281 0.0
C256 C 0.85447 0.51804 0.98785 0.0
H257 H 0.93964 0.6544 1.00107 0.0
H258 H 0.80914 0.54297 0.974 0.0
H259 H 0.95318 0.74298 0.95986 0.0
H260 H 0.98666 0.64795 0.92814 0.0
H261 H 0.73533 0.5988 0.02857 0.0
H262 H 0.96304 0.59489 0.01083 0.0
H263 H 0.83098 0.48022 0.98318 0.0
C264 C 0.27477 0.92393 0.11141 0.0
C265 C 0.28835 0.96598 0.10064 0.0
N266 N 0.25884 0.98386 0.10589 0.0
N267 N 0.23729 0.91583 0.1235 0.0
C268 C 0.22809 0.95265 0.1197 0.0
H269 H 0.29124 0.90081 0.11057 0.0
Co270 Co 0.20694 0.86461 0.14134 0.0
C271 C 0.15915 0.90012 0.1702 0.0
O272 O 0.11855 0.85725 0.17183 0.0
N273 N 0.1769 0.81253 0.15906 0.0
C274 C 0.15619 0.76579 0.18593 0.0
C275 C 0.18466 0.8128 0.17866 0.0
C276 C 0.14397 0.76518 0.15474 0.0
N277 N 0.13055 0.73598 0.17082 0.0
O278 O 0.14579 0.84254 0.12767 0.0
H279 H 0.20964 0.84507 0.1871 0.0
H280 H 0.13119 0.75199 0.13996 0.0
O281 O 0.19325 0.90531 0.15851 0.0
C282 C 0.14466 0.82163 0.11141 0.0
O283 O 0.18111 0.81357 0.10744 0.0
N284 N 0.26827 0.8867 0.15353 0.0
C285 C 0.36908 0.92866 0.15982 0.0
C286 C 0.34472 0.95427 0.16488 0.0
C287 C 0.29436 0.93283 0.16153 0.0
C288 C 0.29051 0.85953 0.15006 0.0
C289 C 0.34121 0.87984 0.15321 0.0
H290 H 0.27789 0.95551 0.16373 0.0
H291 H 0.26967 0.82355 0.1433 0.0
H292 H 0.19984 0.95686 0.12713 0.0
H293 H 0.31723 0.98179 0.08964 0.0
H294 H 0.15454 0.75447 0.20113 0.0
H295 H 0.36509 0.99199 0.1701 0.0
H296 H 0.35894 0.8591 0.14902 0.0
C297 C 0.35749 0.28552 0.28178 0.0
C298 C 0.32855 0.2995 0.27154 0.0
N299 N 0.28101 0.26651 0.27536 0.0
N300 N 0.32814 0.24434 0.29216 0.0
C301 C 0.28184 0.23355 0.28788 0.0
H302 H 0.39729 0.30381 0.2815 0.0
Co303 Co 0.34695 0.20838 0.30793 0.0
C304 C 0.26428 0.16202 0.33735 0.0
O305 O 0.26249 0.11926 0.33795 0.0
N306 N 0.36634 0.17243 0.32358 0.0
C307 C 0.38764 0.14129 0.3486 0.0
C308 C 0.37375 0.17497 0.34326 0.0
C309 C 0.37672 0.13783 0.31726 0.0
N310 N 0.38944 0.11794 0.33219 0.0
O311 O 0.30337 0.15018 0.29321 0.0
H312 H 0.36913 0.19958 0.35308 0.0
H313 H 0.37445 0.12702 0.30198 0.0
O314 O 0.29498 0.19628 0.32615 0.0
C315 C 0.31983 0.15043 0.276 0.0
O316 O 0.36407 0.18645 0.27137 0.0
N317 N 0.39081 0.26654 0.32123 0.0
C318 C 0.45869 0.36371 0.3312 0.0
C319 C 0.40916 0.34249 0.33687 0.0
C320 C 0.3757 0.29401 0.3316 0.0
C321 C 0.43935 0.28527 0.31676 0.0
C322 C 0.47404 0.33396 0.32159 0.0
H323 H 0.33721 0.28041 0.33457 0.0
H324 H 0.45057 0.26342 0.3082 0.0
H325 H 0.24933 0.20192 0.29381 0.0
H326 H 0.34142 0.33065 0.26165 0.0
H327 H 0.39648 0.1351 0.36338 0.0
H328 H 0.39542 0.36425 0.34393 0.0
H329 H 0.51199 0.34883 0.31703 0.0
C330 C 0.06377 0.35541 0.44506 0.0
C331 C 0.01956 0.32538 0.43586 0.0
N332 N 0.00439 0.27846 0.4411 0.0
N333 N 0.07604 0.32758 0.45623 0.0
C334 C 0.03937 0.28084 0.45341 0.0
H335 H 0.086 0.39497 0.44347 0.0
Co336 Co 0.13365 0.35064 0.47076 0.0
C337 C 0.08557 0.26186 0.4984 0.0
O338 O 0.09489 0.23136 0.48853 0.0
N339 N 0.19152 0.37389 0.48522 0.0
C340 C 0.24458 0.39579 0.51006 0.0
C341 C 0.19678 0.38108 0.5049 0.0
C342 C 0.23665 0.38506 0.47869 0.0
N343 N 0.26959 0.39811 0.49355 0.0
O344 O 0.14698 0.30472 0.45725 0.0
H345 H 0.16762 0.37567 0.51491 0.0
H346 H 0.24493 0.38251 0.46339 0.0
O347 O 0.09904 0.30467 0.49167 0.0
C348 C 0.16216 0.32055 0.43988 0.0
O349 O 0.16917 0.36423 0.43504 0.0
N350 N 0.12075 0.39702 0.48273 0.0
C351 C 0.09248 0.46621 0.4916 0.0
C352 C 0.06359 0.41705 0.4976 0.0
C353 C 0.07795 0.38292 0.49279 0.0
C354 C 0.15083 0.44515 0.47769 0.0
C355 C 0.13726 0.48049 0.48192 0.0
H356 H 0.05233 0.34457 0.49575 0.0
H357 H 0.18386 0.45552 0.46921 0.0
H358 H 0.0386 0.24914 0.4601 0.0
H359 H 0.00087 0.33701 0.42563 0.0
H360 H 0.2598 0.40449 0.52481 0.0
H361 H 0.02811 0.4041 0.50459 0.0
H362 H 0.1605 0.51809 0.47697 0.0
C363 C 0.71672 0.07576 0.61036 0.0
C364 C 0.70156 0.03276 0.60005 0.0
N365 N 0.7266 0.01132 0.60694 0.0
N366 N 0.75107 0.08123 0.62366 0.0
C367 C 0.7564 0.04146 0.62124 0.0
H368 H 0.70436 0.10201 0.60808 0.0
Co369 Co 0.78567 0.13604 0.63945 0.0
C370 C 0.82409 0.08463 0.66631 0.0
O371 O 0.86578 0.09707 0.65727 0.0
N372 N 0.82075 0.19193 0.65505 0.0
C373 C 0.85352 0.24342 0.68033 0.0
C374 C 0.82036 0.19573 0.67487 0.0
C375 C 0.85374 0.23768 0.6488 0.0
N376 N 0.87461 0.26974 0.66387 0.0
O377 O 0.84506 0.14923 0.62622 0.0
H378 H 0.79761 0.16573 0.68473 0.0
H379 H 0.8631 0.24714 0.63348 0.0
O380 O 0.79481 0.09807 0.65952 0.0
C381 C 0.8501 0.17104 0.60982 0.0
O382 O 0.81712 0.18321 0.60472 0.0
N383 N 0.72622 0.12281 0.6514 0.0
C384 C 0.63082 0.09709 0.66284 0.0
C385 C 0.64915 0.06519 0.66628 0.0
C386 C 0.69647 0.0783 0.66016 0.0
C387 C 0.70978 0.1552 0.64844 0.0
C388 C 0.66188 0.14294 0.65399 0.0
H389 H 0.70769 0.05098 0.66134 0.0
H390 H 0.73307 0.18963 0.6409 0.0
H391 H 0.78309 0.03577 0.62917 0.0
H392 H 0.67461 0.0186 0.58827 0.0
H393 H 0.86111 0.25759 0.69526 0.0
H394 H 0.62591 0.02879 0.67242 0.0
H395 H 0.64878 0.16833 0.65088 0.0
H396 H 0.34861 0.27515 0.06238 0.0
H397 H 0.18194 -0.00017 0.10222 0.0
H398 H 0.18971 0.19577 0.06046 0.0
H399 H 0.33857 0.06713 0.0926 0.0
H400 H 0.18483 0.07419 0.08955 0.0
H401 H 0.34652 0.20185 0.07611 0.0
C402 C 0.31333 0.24235 0.06493 0.0
C403 C 0.26929 0.24136 0.06021 0.0
C404 C 0.21857 0.07268 0.09019 0.0
C405 C 0.26653 0.1576 0.07581 0.0
C406 C 0.21697 0.03039 0.09753 0.0
C407 C 0.26007 0.02737 0.09843 0.0
C408 C 0.26369 0.11238 0.08384 0.0
C409 C 0.30442 0.06777 0.09192 0.0
C410 C 0.31213 0.20049 0.07264 0.0
C411 C 0.22452 0.19782 0.06362 0.0
N412 N 0.30513 0.10873 0.08494 0.0
N413 N 0.22428 0.15771 0.07126 0.0
H414 H 0.19269 0.18588 0.26757 0.0
H415 H 0.06743 0.34218 0.23417 0.0
H416 H 0.27157 0.34468 0.26469 0.0
H417 H 0.0002 0.18517 0.22565 0.0
H418 H 0.1408 0.34381 0.24745 0.0
H419 H 0.11978 0.18476 0.25424 0.0
C420 C 0.19454 0.22053 0.26422 0.0
C421 C 0.23811 0.26547 0.26729 0.0
C422 C 0.11003 0.30903 0.24263 0.0
C423 C 0.15502 0.26451 0.25192 0.0
C424 C 0.06807 0.30804 0.23519 0.0
C425 C 0.02774 0.26346 0.22883 0.0
C426 C 0.11142 0.26503 0.24388 0.0
C427 C 0.03071 0.22037 0.23019 0.0
C428 C 0.15305 0.21987 0.25648 0.0
C429 C 0.23879 0.30927 0.26238 0.0
N430 N 0.07177 0.22219 0.23765 0.0
N431 N 0.19774 0.30773 0.25501 0.0
H432 H 0.99276 0.18734 0.43609 0.0
H433 H 0.71551 0.07063 0.39714 0.0
H434 H 0.91756 0.27028 0.43004 0.0
H435 H 0.7998 0.99636 0.39355 0.0
H436 H 0.78691 0.14209 0.41171 0.0
H437 H 0.91984 0.11459 0.42315 0.0
C438 C 0.96075 0.19012 0.4322 0.0
C439 C 0.96122 0.23493 0.4341 0.0
C440 C 0.7898 0.11017 0.40771 0.0
C441 C 0.87785 0.15203 0.41914 0.0
C442 C 0.74899 0.06932 0.3995 0.0
C443 C 0.7518 0.0276 0.39407 0.0
C444 C 0.83362 0.10913 0.41067 0.0
C445 C 0.79627 0.02803 0.39725 0.0
C446 C 0.91927 0.1487 0.42467 0.0
C447 C 0.91895 0.23662 0.42857 0.0
N448 N 0.8354 0.06812 0.40538 0.0
N449 N 0.87894 0.19575 0.42135 0.0
H450 H 0.73735 0.79487 0.53271 0.0
H451 H 0.73883 0.9447 0.62788 0.0
H452 H 0.7136 0.73404 0.59139 0.0
H453 H 0.71022 0.97802 0.56931 0.0
H454 H 0.73731 0.87093 0.61487 0.0
H455 H 0.73508 0.86643 0.54591 0.0
C456 C 0.73171 0.79671 0.54838 0.0
C457 C 0.72569 0.75867 0.56101 0.0
C458 C 0.73111 0.89429 0.60491 0.0
C459 C 0.7232 0.84017 0.5762 0.0
C460 C 0.73228 0.93643 0.61229 0.0
C461 C 0.72459 0.96732 0.59963 0.0
C462 C 0.72297 0.88352 0.58468 0.0
C463 C 0.71578 0.95483 0.57958 0.0
C464 C 0.73012 0.8373 0.55588 0.0
C465 C 0.71794 0.76244 0.58117 0.0
N466 N 0.71556 0.91405 0.57269 0.0
N467 N 0.71729 0.80272 0.58819 0.0
H468 H 0.92021 0.6462 0.72721 0.0
H469 H 0.8047 0.80717 0.76638 0.0
H470 H 0.99527 0.80487 0.7238 0.0
H471 H 0.72044 0.64918 0.75965 0.0
H472 H 0.87633 0.8069 0.75231 0.0
H473 H 0.84773 0.64624 0.74056 0.0
C474 C 0.92142 0.68103 0.72931 0.0
C475 C 0.96377 0.72559 0.72441 0.0
C476 C 0.84215 0.77229 0.75387 0.0
C477 C 0.88111 0.72599 0.73961 0.0
C478 C 0.80138 0.77239 0.76203 0.0
C479 C 0.75664 0.72809 0.76424 0.0
C480 C 0.83828 0.7275 0.74801 0.0
C481 C 0.75412 0.68417 0.75804 0.0
C482 C 0.88 0.68104 0.73682 0.0
C483 C 0.9632 0.76967 0.72717 0.0
N484 N 0.79447 0.68494 0.75029 0.0
N485 N 0.92259 0.76878 0.73469 0.0
H486 H 0.18653 0.99309 0.89219 0.0
H487 H 0.07091 0.71568 0.93058 0.0
H488 H 0.27057 0.91897 0.89796 0.0
H489 H 0.99613 0.7995 0.93404 0.0
H490 H 0.14284 0.78773 0.91656 0.0
H491 H 0.11448 0.92021 0.9054 0.0
C492 C 0.18972 0.96133 0.89611 0.0
C493 C 0.23458 0.96204 0.89396 0.0
C494 C 0.11071 0.79035 0.92043 0.0
C495 C 0.1524 0.87862 0.90925 0.0
C496 C 0.0696 0.7492 0.92832 0.0
C497 C 0.02759 0.7517 0.93353 0.0
C498 C 0.10957 0.83416 0.91758 0.0
C499 C 0.02799 0.79618 0.9305 0.0
C500 C 0.14868 0.91986 0.90379 0.0
C501 C 0.23683 0.92012 0.89958 0.0
N502 N 0.06829 0.83561 0.92268 0.0
N503 N 0.19626 0.88002 0.90693 0.0
H504 H 0.66656 0.56624 0.96529 0.0
H505 H 0.42707 0.52596 0.02311 0.0
H506 H 0.66845 0.61343 0.02527 0.0
H507 H 0.4236 0.47108 0.96436 0.0
H508 H 0.51693 0.56895 0.02227 0.0
H509 H 0.57935 0.54076 0.9631 0.0
C510 C 0.64886 0.57174 0.97795 0.0
C511 C 0.67497 0.59175 0.99556 0.0
C512 C 0.49657 0.54803 0.00946 0.0
C513 C 0.57471 0.56217 0.99319 0.0
C514 C 0.44518 0.52388 0.00983 0.0
C515 C 0.41768 0.49453 0.99382 0.0
C516 C 0.52072 0.54273 0.99298 0.0
C517 C 0.44332 0.49267 0.97715 0.0
C518 C 0.5989 0.55697 0.97671 0.0
C519 C 0.64969 0.59739 0.01154 0.0
N520 N 0.49336 0.51599 0.97724 0.0
N521 N 0.60096 0.58248 0.01 0.0
H522 H 0.89953 0.4336 0.15097 0.0
H523 H 0.1353 0.67091 0.19568 0.0
H524 H 0.01397 0.42861 0.18444 0.0
H525 H 0.05148 0.6811 0.14728 0.0
H526 H 0.08216 0.5815 0.19549 0.0
H527 H 0.94665 0.52436 0.15286 0.0
C528 C 0.93446 0.45166 0.15871 0.0
C529 C 0.95336 0.42387 0.16731 0.0
C530 C 0.07528 0.60328 0.18493 0.0
C531 C 0.00664 0.52666 0.16979 0.0
C532 C 0.1054 0.65435 0.18514 0.0
C533 C 0.09797 0.68344 0.17141 0.0
C534 C 0.0371 0.58102 0.17101 0.0
C535 C 0.05889 0.6599 0.15792 0.0
C536 C 0.96129 0.50321 0.15974 0.0
C537 C -0.00141 0.44879 0.17729 0.0
N538 N 0.02983 0.60998 0.15805 0.0
N539 N 0.02359 0.49866 0.17828 0.0
H540 H 0.38051 0.05279 0.36055 0.0
H541 H 0.52155 0.94714 0.29681 0.0
H542 H 0.42857 0.09638 0.30054 0.0
H543 H 0.4712 0.90157 0.35646 0.0
H544 H 0.47905 0.99467 0.29651 0.0
H545 H 0.40637 0.99124 0.35826 0.0
C546 C 0.39653 0.04948 0.3469 0.0
C547 C 0.40274 0.08016 0.33078 0.0
C548 C 0.47669 0.9737 0.30957 0.0
C549 C 0.432 0.00936 0.32796 0.0
C550 C 0.50089 0.94652 0.30973 0.0
C551 C 0.50025 0.92066 0.32673 0.0
C552 C 0.452 0.9754 0.3266 0.0
C553 C 0.47246 0.92069 0.34298 0.0
C554 C 0.41094 0.01404 0.34554 0.0
C555 C 0.42277 0.07344 0.31331 0.0
N556 N 0.45001 0.94819 0.34261 0.0
N557 N 0.43702 0.03906 0.31242 0.0
H558 H 0.32404 0.38538 0.52151 0.0
H559 H 0.5761 0.54048 0.46246 0.0
H560 H 0.33182 0.44059 0.46255 0.0
H561 H 0.56574 0.47691 0.51995 0.0
H562 H 0.48608 0.49705 0.46062 0.0
H563 H 0.4117 0.41241 0.5199 0.0
C564 C 0.34422 0.40325 0.50822 0.0
C565 C 0.32065 0.4113 0.49224 0.0
C566 C 0.50348 0.49202 0.47352 0.0
C567 C 0.42122 0.44211 0.4902 0.0
C568 C 0.55486 0.5168 0.47457 0.0
C569 C 0.5785 0.51267 0.49146 0.0
C570 C 0.47548 0.46321 0.48955 0.0
C571 C 0.54918 0.48101 0.50661 0.0
C572 C 0.39425 0.41835 0.50724 0.0
C573 C 0.34845 0.43358 0.4752 0.0
N574 N 0.49924 0.45805 0.5054 0.0
N575 N 0.39737 0.44866 0.4747 0.0
H576 H 0.89443 0.33124 0.63259 0.0
H577 H 0.09688 0.56766 0.69109 0.0
H578 H 0.94102 0.32594 0.69203 0.0
H579 H 0.04657 0.57298 0.63238 0.0
H580 H 0.0488 0.4777 0.68997 0.0
H581 H 0.95707 0.41813 0.63083 0.0
C582 C 0.91804 0.34812 0.64524 0.0
C583 C 0.91207 0.32106 0.66255 0.0
C584 C 0.0488 0.4985 0.67722 0.0
C585 C 0.9839 0.42111 0.66066 0.0
C586 C 0.07672 0.5499 0.67776 0.0
C587 C 0.07542 0.5779 0.66186 0.0
C588 C 0.01929 0.47495 0.66067 0.0
C589 C 0.04804 0.55282 0.64508 0.0
C590 C 0.95379 0.39792 0.64423 0.0
C591 C 0.94357 0.3454 0.67852 0.0
N592 N 0.02066 0.50284 0.64501 0.0
N593 N 0.97795 0.39404 0.67722 0.0
H594 H 0.61046 0.93255 0.86277 0.0
H595 H 0.46583 0.03619 0.79991 0.0
H596 H 0.5611 0.88891 0.80286 0.0
H597 H 0.51552 0.08108 0.85968 0.0
H598 H 0.5077 0.98809 0.79966 0.0
H599 H 0.5815 0.99185 0.86117 0.0
C600 C 0.59348 0.93531 0.8493 0.0
C601 C 0.58807 0.90544 0.83297 0.0
C602 C 0.50997 0.00892 0.81276 0.0
C603 C 0.5553 0.9737 0.83094 0.0
C604 C 0.48611 0.03642 0.81289 0.0
C605 C 0.48693 0.06246 0.82987 0.0
C606 C 0.53455 0.00708 0.82979 0.0
C607 C 0.51421 0.06189 0.8462 0.0
C608 C 0.57729 0.96947 0.84834 0.0
C609 C 0.56655 0.91137 0.81576 0.0
N610 N 0.53645 0.03416 0.84584 0.0
N611 N 0.55075 0.94457 0.81525 0.0
H612 H 0.43073 0.32424 0.86176 0.0
H613 H 0.47192 0.5636 0.80343 0.0
H614 H 0.38353 0.32173 0.80175 0.0
H615 H 0.53106 0.56793 0.86136 0.0
H616 H 0.42838 0.47366 0.80456 0.0
H617 H 0.45785 0.41192 0.86357 0.0
C618 C 0.4256 0.34195 0.84901 0.0
C619 C 0.40506 0.31551 0.83152 0.0
C620 C 0.4504 0.49425 0.81714 0.0
C621 C 0.43646 0.41623 0.83346 0.0
C622 C 0.47486 0.54565 0.81659 0.0
C623 C 0.50548 0.57336 0.83228 0.0
C624 C 0.45661 0.47033 0.83347 0.0
C625 C 0.50842 0.548 0.84882 0.0
C626 C 0.44132 0.39214 0.85003 0.0
C627 C 0.39993 0.34075 0.81541 0.0
N628 N 0.48469 0.49795 0.84891 0.0
N629 N 0.41568 0.3897 0.81674 0.0
H630 H 0.89759 0.46796 0.97023 0.0
H631 H 0.09661 0.42765 0.02802 0.0
H632 H 0.94799 0.52149 0.0292 0.0
H633 H 0.05205 0.38125 0.9679 0.0
H634 H 0.03443 0.45243 0.03027 0.0
H635 H 0.94444 0.42497 0.97098 0.0
C636 C 0.91753 0.46971 0.98354 0.0
C637 C 0.91916 0.49872 0.99963 0.0
C638 C 0.03802 0.43655 0.01662 0.0
C639 C 0.97397 0.45057 1.00038 0.0
C640 C 0.07347 0.42217 0.01533 0.0
C641 C 0.07991 0.40259 0.99768 0.0
C642 C 0.00871 0.4314 1.00013 0.0
C643 C 0.04907 0.39698 0.98168 0.0
C644 C 0.94476 0.44558 0.98387 0.0
C645 C 0.94631 0.50017 0.01635 0.0
N646 N 0.01499 0.41152 0.98326 0.0
N647 N 0.97305 0.47691 0.01621 0.0
H648 H 0.42706 0.01534 0.14134 0.0
H649 H 0.68215 0.05116 0.18046 0.0
H650 H 0.43446 0.90301 0.17539 0.0
H651 H 0.66994 0.13327 0.13189 0.0
H652 H 0.59213 0.99863 0.18069 0.0
H653 H 0.51671 0.06166 0.13965 0.0
C654 C 0.44777 0.00059 0.14856 0.0
C655 C 0.42352 0.95564 0.15873 0.0
C656 C 0.60928 0.02791 0.1699 0.0
C657 C 0.52631 0.0084 0.15677 0.0
C658 C 0.66052 0.05807 0.16984 0.0
C659 C 0.68349 0.09677 0.15619 0.0
C660 C 0.58088 0.03706 0.15638 0.0
C661 C 0.65384 0.10369 0.14256 0.0
C662 C 0.49891 0.02684 0.14746 0.0
C663 C 0.45196 0.93766 0.16747 0.0
N664 N 0.60409 0.07443 0.14313 0.0
N665 N 0.50209 0.96439 0.16646 0.0
H666 H 0.56496 0.6675 0.36122 0.0
H667 H 0.5237 0.42696 0.3038 0.0
H668 H 0.61317 0.66883 0.30145 0.0
H669 H 0.4678 0.42411 0.36228 0.0
H670 H 0.56677 0.51684 0.30451 0.0
H671 H 0.53817 0.57997 0.36341 0.0
C672 C 0.57041 0.6496 0.3486 0.0
C673 C 0.59113 0.67567 0.33106 0.0
C674 C 0.54557 0.49661 0.31729 0.0
C675 C 0.56004 0.57504 0.33344 0.0
C676 C 0.52137 0.44521 0.31699 0.0
C677 C 0.49178 0.41786 0.33297 0.0
C678 C 0.54011 0.52095 0.33367 0.0
C679 C 0.48958 0.44368 0.34952 0.0
C680 C 0.55487 0.59946 0.34985 0.0
C681 C 0.59662 0.65012 0.31514 0.0
N682 N 0.51301 0.49374 0.34937 0.0
N683 N 0.581 0.60124 0.31668 0.0
H684 H 0.89689 0.5717 0.5236 0.0
H685 H 0.09096 0.52804 0.46345 0.0
H686 H 0.93725 0.61736 0.46313 0.0
H687 H 0.046 0.47935 0.52329 0.0
H688 H 0.04335 0.57049 0.46432 0.0
H689 H 0.95824 0.54598 0.52476 0.0
C690 C 0.91891 0.57682 0.51059 0.0
C691 C 0.91163 0.59675 0.49321 0.0
C692 C 0.04443 0.55108 0.47735 0.0
C693 C 0.98198 0.56657 0.49439 0.0
C694 C 0.07205 0.52728 0.47694 0.0
C695 C 0.07215 0.49983 0.49329 0.0
C696 C 0.01671 0.54734 0.49422 0.0
C697 C 0.04638 0.49955 0.51027 0.0
C698 C 0.95392 0.56185 0.51124 0.0
C699 C 0.94097 0.60155 0.47674 0.0
N700 N 0.01936 0.52249 0.51023 0.0
N701 N 0.97472 0.5864 0.47772 0.0
H702 H 0.32343 0.94811 0.6364 0.0
H703 H 0.57571 0.04966 0.69538 0.0
H704 H 0.33316 0.90166 0.69532 0.0
H705 H 0.56491 0.10131 0.63766 0.0
H706 H 0.48579 0.00364 0.69752 0.0
H707 H 0.41037 0.01119 0.63809 0.0
C708 C 0.34385 0.95116 0.6497 0.0
C709 C 0.32109 0.91903 0.66564 0.0
C710 C 0.50301 0.02568 0.68451 0.0
C711 C 0.42074 0.99163 0.66777 0.0
C712 C 0.55433 0.05204 0.68332 0.0
C713 C 0.57773 0.07893 0.66624 0.0
C714 C 0.47484 0.02574 0.66841 0.0
C715 C 0.54837 0.08117 0.65112 0.0
C716 C 0.39345 0.9875 0.65073 0.0
C717 C 0.34913 0.92558 0.6827 0.0
N718 N 0.49842 0.05424 0.65242 0.0
N719 N 0.3976 0.96078 0.68323 0.0
H720 H 0.229 0.15949 0.88197 0.0
H721 H 0.23432 0.23954 0.99468 0.0
H722 H 0.34223 0.1854 0.92439 0.0
H723 H 0.12511 0.22989 0.95338 0.0
H724 H 0.26674 0.20823 0.9695 0.0
H725 H 0.1842 0.17594 0.90801 0.0
C726 C 0.24436 0.16851 0.89671 0.0
C727 C 0.28966 0.17151 0.90096 0.0
C728 C 0.23542 0.21247 0.96588 0.0
C729 C 0.23861 0.1897 0.9307 0.0
C730 C 0.21675 0.2302 0.98032 0.0
C731 C 0.17727 0.23774 0.97605 0.0
C732 C 0.21489 0.20254 0.94684 0.0
C733 C 0.15563 0.22456 0.95725 0.0
C734 C 0.21877 0.17778 0.91154 0.0
C735 C 0.30774 0.18308 0.92032 0.0
N736 N 0.17516 0.20815 0.9432 0.0
N737 N 0.28227 0.19176 0.93437 0.0
H738 H 0.06602 0.23117 0.04755 0.0
H739 H -0.00137 0.22488 0.16197 0.0
H740 H 0.15608 0.34031 0.09091 0.0
H741 H 0.89419 0.12455 0.11943 0.0
H742 H 0.06161 0.25789 0.13643 0.0
H743 H 0.00654 0.18367 0.07376 0.0
C744 C 0.07334 0.24505 0.06253 0.0
C745 C 0.11581 0.29005 0.067 0.0
C746 C 0.02512 0.22829 0.13263 0.0
C747 C 0.04866 0.23585 0.09694 0.0
C748 C 0.9892 0.20924 0.14727 0.0
C749 C 0.94102 0.17229 0.14276 0.0
C750 C 0.01287 0.21069 0.1132 0.0
C751 C 0.93095 0.15307 0.12351 0.0
C752 C 0.0395 0.21793 0.07746 0.0
C753 C 0.12365 0.30617 0.08667 0.0
N754 N 0.96645 0.17302 0.10931 0.0
N755 N 0.09048 0.27921 0.10082 0.0
H756 H 0.7525 0.99365 0.3266 0.0
H757 H 0.83427 0.06439 0.21382 0.0
H758 H 0.76532 0.89315 0.2868 0.0
H759 H 0.78936 0.1433 0.25305 0.0
H760 H 0.81959 0.00538 0.24059 0.0
H761 H 0.77959 0.0546 0.30037 0.0
C762 C 0.76166 0.98465 0.31235 0.0
C763 C 0.75611 0.93807 0.30881 0.0
C764 C 0.81304 0.0357 0.24323 0.0
C765 C 0.78657 0.00768 0.27845 0.0
C766 C 0.82122 0.06923 0.22798 0.0
C767 C 0.8128 0.10873 0.23115 0.0
C768 C 0.79688 0.04223 0.26176 0.0
C769 C 0.79618 0.11341 0.24981 0.0
C770 C 0.77691 0.01941 0.29732 0.0
C771 C 0.76909 0.92866 0.29013 0.0
N772 N 0.78893 0.08075 0.26433 0.0
N773 N 0.78321 0.96303 0.27552 0.0
H774 H 0.6511 0.81493 0.42387 0.0
H775 H 0.87431 0.77389 0.45379 0.0
H776 H 0.76307 0.83351 0.38206 0.0
H777 H 0.76346 0.76565 0.49386 0.0
H778 H 0.84062 0.80356 0.42786 0.0
H779 H 0.69695 0.80311 0.44994 0.0
C780 C 0.68543 0.81643 0.42013 0.0
C781 C 0.70296 0.82468 0.40067 0.0
C782 C 0.82424 0.79594 0.44243 0.0
C783 C 0.75619 0.81105 0.43074 0.0
C784 C 0.84366 0.7794 0.45725 0.0
C785 C 0.82127 0.76685 0.47592 0.0
C786 C 0.78234 0.79993 0.44642 0.0
C787 C 0.78147 0.77429 0.47961 0.0
C788 C 0.71185 0.80989 0.43512 0.0
C789 C 0.7481 0.8269 0.39686 0.0
N790 N 0.76309 0.78986 0.46497 0.0
N791 N 0.77306 0.81967 0.41177 0.0
H792 H 0.90063 0.64442 0.56971 0.0
H793 H 0.0276 0.8632 0.64572 0.0
H794 H 0.89451 0.77714 0.55989 0.0
H795 H 0.08282 0.76487 0.63243 0.0
H796 H 0.97518 0.83285 0.61602 0.0
H797 H 0.96336 0.68704 0.59494 0.0
C798 C 0.91296 0.6828 0.5728 0.0
C799 C 0.89271 0.70746 0.56274 0.0
C800 C -0.0007 0.81851 0.61962 0.0
C801 C 0.96374 0.75631 0.59189 0.0
C802 C 0.02911 0.83572 0.63653 0.0
C803 C 0.05874 0.81566 0.64188 0.0
C804 C -0.0009 0.78088 0.60824 0.0
C805 C 0.05954 0.78039 0.62933 0.0
C806 C 0.94881 0.70717 0.58715 0.0
C807 C 0.90979 0.75717 0.56727 0.0
N808 N 0.02976 0.76375 0.61332 0.0
N809 N 0.94397 0.77995 0.5818 0.0
H810 H 0.17604 0.83452 0.7579 0.0
H811 H 0.22942 0.10352 0.78787 0.0
H812 H 0.16722 0.93273 0.71559 0.0
H813 H 0.23483 -0.00122 0.82757 0.0
H814 H 0.1982 0.04036 0.76179 0.0
H815 H 0.19007 0.89303 0.78389 0.0
C816 C 0.17714 0.8686 0.75403 0.0
C817 C 0.17105 0.87895 0.73445 0.0
C818 C 0.20561 0.03114 0.7763 0.0
C819 C 0.18734 0.9469 0.76447 0.0
C820 C 0.22305 0.067 0.79122 0.0
C821 C 0.23512 0.05643 0.80985 0.0
C822 C 0.20013 0.98457 0.78017 0.0
C823 C 0.22656 0.00871 0.81336 0.0
C824 C 0.185 0.90208 0.76898 0.0
C825 C 0.17209 0.92347 0.73049 0.0
N826 N 0.21001 0.97484 0.79866 0.0
N827 N 0.18059 0.95616 0.74538 0.0
H828 H 0.76869 0.87055 0.87272 0.0
H829 H 0.81304 0.64934 0.90288 0.0
H830 H 0.75787 0.75775 0.83311 0.0
H831 H 0.8311 0.76148 0.94451 0.0
H832 H 0.79923 0.69389 0.87685 0.0
H833 H 0.79929 0.83765 0.89861 0.0
C834 C 0.77374 0.83958 0.86935 0.0
C835 C 0.76028 0.81649 0.85082 0.0
C836 C 0.80631 0.70911 0.89162 0.0
C837 C 0.79451 0.77848 0.88029 0.0
C838 C 0.81402 0.68345 0.90659 0.0
C839 C 0.82272 0.70139 0.92599 0.0
C840 C 0.80676 0.75313 0.89595 0.0
C841 C 0.82421 0.74621 0.92976 0.0
C842 C 0.79083 0.82061 0.88416 0.0
C843 C 0.76719 0.7763 0.84727 0.0
N844 N 0.81586 0.77044 0.91487 0.0
N845 N 0.78338 0.75843 0.86188 0.0
H846 H 0.99223 0.75061 1.00056 0.0
H847 H 0.06281 0.83333 0.11329 0.0
H848 H 0.89161 0.76385 0.04013 0.0
H849 H 0.14086 0.78659 0.07445 0.0
H850 H 0.0038 0.81837 0.08647 0.0
H851 H 0.05284 0.77732 0.02692 0.0
C852 C 0.98312 0.75975 0.01479 0.0
C853 C 0.9366 0.75444 0.01822 0.0
C854 C 0.03393 0.81146 0.08393 0.0
C855 C 0.00586 0.78452 0.04873 0.0
C856 C 0.06745 0.8198 0.09921 0.0
C857 C 0.10675 0.81101 0.09616 0.0
C858 C 0.04026 0.79477 0.06548 0.0
C859 C 0.11116 0.79376 0.07759 0.0
C860 C 0.0177 0.77479 0.0299 0.0
C861 C 0.92708 0.76744 0.03688 0.0
N862 N 0.07854 0.78639 0.06304 0.0
N863 N 0.96128 0.78139 0.05157 0.0
H864 H 0.22338 0.99786 0.16553 0.0
H865 H 0.23048 0.06409 0.28017 0.0
H866 H 0.12402 0.89253 0.20803 0.0
H867 H 0.34004 0.15389 0.23693 0.0
H868 H 0.18292 0.00476 0.2539 0.0
H869 H 0.25665 0.06043 0.19125 0.0
C870 C 0.20801 0.98813 0.18026 0.0
C871 C 0.17126 0.93982 0.1847 0.0
C872 C 0.2173 0.03762 0.25024 0.0
C873 C 0.20996 0.01122 0.21446 0.0
C874 C 0.24445 0.07137 0.26521 0.0
C875 C 0.28956 0.11375 0.26078 0.0
C876 C 0.23528 0.04679 0.23077 0.0
C877 C 0.3058 0.12154 0.24113 0.0
C878 C 0.22721 0.02382 0.195 0.0
C879 C 0.15238 0.9294 0.204 0.0
N880 N 0.27879 0.08848 0.22694 0.0
N881 N 0.17246 0.96468 0.21829 0.0
H882 H 0.17398 0.33827 0.40062 0.0
H883 H 0.2303 0.12264 0.37427 0.0
H884 H 0.16661 0.23492 0.44446 0.0
H885 H 0.23719 0.2312 0.33329 0.0
H886 H 0.19809 0.15555 0.39957 0.0
H887 H 0.18903 0.29269 0.37544 0.0
C888 C 0.17562 0.30588 0.405 0.0
C889 C 0.16964 0.2908 0.42477 0.0
C890 C 0.20606 0.17162 0.38495 0.0
C891 C 0.18714 0.23789 0.39569 0.0
C892 C 0.22406 0.15265 0.37048 0.0
C893 C 0.2368 0.17455 0.35173 0.0
C894 C 0.20066 0.21249 0.38049 0.0
C895 C 0.22839 0.21355 0.34762 0.0
C896 C 0.18407 0.27962 0.39052 0.0
C897 C 0.17137 0.24799 0.4294 0.0
N898 N 0.21125 0.23139 0.36189 0.0
N899 N 0.18045 0.22317 0.41495 0.0
H900 H 0.89388 0.11651 0.60013 0.0
H901 H 0.08135 0.32287 0.52584 0.0
H902 H 0.90086 0.25538 0.58925 0.0
H903 H 0.02908 0.16884 0.5147 0.0
H904 H 0.0305 0.30064 0.55519 0.0
H905 H 0.95757 0.13734 0.57451 0.0
C906 C 0.90954 0.15167 0.59262 0.0
C907 C 0.89234 0.18438 0.59668 0.0
C908 C 0.03021 0.27161 0.5464 0.0
C909 C 0.96455 0.2083 0.56783 0.0
C910 C 0.05915 0.28423 0.52953 0.0
C911 C 0.05856 0.24759 0.51741 0.0
C912 C 0.00038 0.2219 0.55146 0.0
C913 C 0.03017 0.19823 0.52348 0.0
C914 C 0.94537 0.16328 0.57796 0.0
C915 C 0.91306 0.22913 0.58645 0.0
N916 N 0.00169 0.18666 0.54005 0.0
N917 N 0.94808 0.23979 0.57256 0.0
H918 H 0.86191 0.02917 0.68248 0.0
H919 H 0.63666 0.89222 0.7555 0.0
H920 H 0.75408 0.07411 0.69261 0.0
H921 H 0.77227 0.8932 0.76743 0.0
H922 H 0.67856 0.95467 0.73017 0.0
H923 H 0.83041 0.97558 0.71183 0.0
C924 C 0.83197 0.02806 0.69087 0.0
C925 C 0.80979 0.05524 0.68475 0.0
C926 C 0.69947 0.94174 0.73843 0.0
C927 C 0.77379 0.99437 0.71801 0.0
C928 C 0.67551 0.90603 0.75285 0.0
C929 C 0.70119 0.88787 0.76354 0.0
C930 C 0.74934 0.95874 0.73428 0.0
C931 C 0.75148 0.90686 0.75955 0.0
C932 C 0.81414 0.99763 0.70759 0.0
C933 C 0.7714 0.05276 0.69629 0.0
N934 N 0.77396 0.94097 0.74498 0.0
N935 N 0.75436 0.02253 0.71214 0.0
loop_
_geom_bond_atom_site_label_1
_geom_bond_atom_site_label_2
_geom_bond_distance
_geom_bond_site_symmetry_2
_ccdc_geom_bond_type
C0 C1 1.351 . S
C0 N3 1.368 . S
C0 H5 0.931 . S
C1 C0 1.351 . S
C1 N2 1.373 . S
C1 H29 0.930 . S
N2 C1 1.373 . S
N2 C4 1.340 . S
N3 C0 1.368 . S
N3 C4 1.321 . S
N3 Co6 2.135 . S
C4 N2 1.340 . S
C4 N3 1.321 . S
C4 H28 0.930 . S
H5 C0 0.931 . S
Co6 N3 2.135 . S
Co6 N9 2.121 1_554 S
Co6 O14 2.055 . S
Co6 O17 2.039 1_554 S
Co6 N20 2.140 . S
C7 O8 1.227 . S
C7 O17 1.265 . S
O8 C7 1.227 . S
N9 Co6 2.121 1_556 S
N9 C11 1.375 . S
N9 C12 1.313 . S
C10 C11 1.338 . S
C10 N13 1.377 . S
C10 H30 0.930 . S
C11 N9 1.375 . S
C11 C10 1.338 . S
C11 H15 0.931 . S
C12 N9 1.313 . S
C12 N13 1.344 . S
C12 H16 0.930 1_556 S
N13 C10 1.377 . S
N13 C12 1.344 . S
O14 Co6 2.055 . S
O14 C18 1.253 . S
H15 C11 0.931 . S
H16 C12 0.930 1_554 S
O17 Co6 2.039 1_556 S
O17 C7 1.265 . S
C18 O14 1.253 . S
C18 O19 1.227 . S
O19 C18 1.227 . S
N20 Co6 2.140 . S
N20 C23 1.346 . S
N20 C24 1.345 . S
C21 C22 1.387 . S
C21 C25 1.391 . S
C22 C21 1.387 . S
C22 C23 1.369 . S
C22 H31 0.929 . S
C23 N20 1.346 . S
C23 C22 1.369 . S
C23 H26 0.928 . S
C24 N20 1.345 . S
C24 C25 1.371 . S
C24 H27 0.931 . S
C25 C21 1.391 . S
C25 C24 1.371 . S
C25 H32 0.930 . S
H26 C23 0.928 . S
H27 C24 0.931 . S
H28 C4 0.930 . S
H29 C1 0.930 . S
H30 C10 0.930 . S
H31 C22 0.929 . S
H32 C25 0.930 . S
C33 C34 1.351 1_655 S
C33 N36 1.368 . S
C33 H38 0.931 . S
C34 C33 1.351 1_455 S
C34 N35 1.373 . S
C34 H62 0.930 . S
N35 C34 1.373 . S
N35 C37 1.340 . S
N36 C33 1.368 . S
N36 C37 1.321 1_655 S
N36 Co39 2.135 . S
C37 N35 1.340 . S
C37 N36 1.321 1_455 S
C37 H61 0.930 . S
H38 C33 0.931 . S
Co39 N36 2.135 . S
Co39 N42 2.121 . S
Co39 O47 2.055 . S
Co39 O50 2.039 . S
Co39 N53 2.140 . S
C40 O41 1.227 . S
C40 O50 1.265 . S
O41 C40 1.227 . S
N42 Co39 2.121 . S
N42 C44 1.375 . S
N42 C45 1.313 . S
C43 C44 1.338 . S
C43 N46 1.377 . S
C43 H63 0.930 . S
C44 N42 1.375 . S
C44 C43 1.338 . S
C44 H48 0.931 . S
C45 N42 1.313 . S
C45 N46 1.344 . S
C45 H49 0.930 . S
N46 C43 1.377 . S
N46 C45 1.344 . S
O47 Co39 2.055 . S
O47 C51 1.253 . S
H48 C44 0.931 . S
H49 C45 0.930 . S
O50 Co39 2.039 . S
O50 C40 1.265 . S
C51 O47 1.253 . S
C51 O52 1.227 . S
O52 C51 1.227 . S
N53 Co39 2.140 . S
N53 C56 1.346 . S
N53 C57 1.345 . S
C54 C55 1.387 . S
C54 C58 1.391 . S
C55 C54 1.387 . S
C55 C56 1.369 . S
C55 H64 0.929 1_655 S
C56 N53 1.346 . S
C56 C55 1.369 . S
C56 H59 0.928 . S
C57 N53 1.345 . S
C57 C58 1.371 . S
C57 H60 0.931 . S
C58 C54 1.391 . S
C58 C57 1.371 . S
C58 H65 0.930 . S
H59 C56 0.928 . S
H60 C57 0.931 . S
H61 C37 0.930 . S
H62 C34 0.930 . S
H63 C43 0.930 . S
H64 C55 0.929 1_455 S
H65 C58 0.930 . S
C66 C67 1.351 1_565 S
C66 N69 1.368 . S
C66 H71 0.931 . S
C67 C66 1.351 1_545 S
C67 N68 1.373 . S
C67 H95 0.930 . S
N68 C67 1.373 . S
N68 C70 1.340 . S
N69 C66 1.368 . S
N69 C70 1.321 1_565 S
N69 Co72 2.135 . S
C70 N68 1.340 . S
C70 N69 1.321 1_545 S
C70 H94 0.930 . S
H71 C66 0.931 . S
Co72 N69 2.135 . S
Co72 N75 2.121 . S
Co72 O80 2.055 . S
Co72 O83 2.039 . S
Co72 N86 2.140 . S
C73 O74 1.227 . S
C73 O83 1.265 . S
O74 C73 1.227 . S
N75 Co72 2.121 . S
N75 C77 1.375 . S
N75 C78 1.313 . S
C76 C77 1.338 . S
C76 N79 1.377 . S
C76 H96 0.930 . S
C77 N75 1.375 . S
C77 C76 1.338 . S
C77 H81 0.931 . S
C78 N75 1.313 . S
C78 N79 1.344 . S
C78 H82 0.930 . S
N79 C76 1.377 . S
N79 C78 1.344 . S
O80 Co72 2.055 . S
O80 C84 1.253 . S
H81 C77 0.931 . S
H82 C78 0.930 . S
O83 Co72 2.039 . S
O83 C73 1.265 . S
C84 O80 1.253 . S
C84 O85 1.227 . S
O85 C84 1.227 . S
N86 Co72 2.140 . S
N86 C89 1.346 . S
N86 C90 1.345 . S
C87 C88 1.387 . S
C87 C91 1.391 . S
C88 C87 1.387 . S
C88 C89 1.369 . S
C88 H97 0.929 1_565 S
C89 N86 1.346 . S
C89 C88 1.369 . S
C89 H92 0.928 . S
C90 N86 1.345 . S
C90 C91 1.371 . S
C90 H93 0.931 . S
C91 C87 1.391 . S
C91 C90 1.371 . S
C91 H98 0.930 . S
H92 C89 0.928 . S
H93 C90 0.931 . S
H94 C70 0.930 . S
H95 C67 0.930 . S
H96 C76 0.930 . S
H97 C88 0.929 1_545 S
H98 C91 0.930 . S
C99 C100 1.351 . S
C99 N102 1.368 . S
C99 H104 0.931 . S
C100 C99 1.351 . S
C100 N101 1.373 . S
C100 H128 0.930 . S
N101 C100 1.373 . S
N101 C103 1.340 . S
N102 C99 1.368 . S
N102 C103 1.321 . S
N102 Co105 2.135 . S
C103 N101 1.340 . S
C103 N102 1.321 . S
C103 H127 0.930 . S
H104 C99 0.931 . S
Co105 N102 2.135 . S
Co105 N108 2.121 . S
Co105 O113 2.055 . S
Co105 O116 2.039 . S
Co105 N119 2.140 . S
C106 O107 1.227 . S
C106 O116 1.265 . S
O107 C106 1.227 . S
N108 Co105 2.121 . S
N108 C110 1.375 . S
N108 C111 1.313 . S
C109 C110 1.338 . S
C109 N112 1.377 . S
C109 H129 0.930 . S
C110 N108 1.375 . S
C110 C109 1.338 . S
C110 H114 0.931 . S
C111 N108 1.313 . S
C111 N112 1.344 . S
C111 H115 0.930 . S
N112 C109 1.377 . S
N112 C111 1.344 . S
O113 Co105 2.055 . S
O113 C117 1.253 . S
H114 C110 0.931 . S
H115 C111 0.930 . S
O116 Co105 2.039 . S
O116 C106 1.265 . S
C117 O113 1.253 . S
C117 O118 1.227 . S
O118 C117 1.227 . S
N119 Co105 2.140 . S
N119 C122 1.346 . S
N119 C123 1.345 . S
C120 C121 1.387 . S
C120 C124 1.391 . S
C121 C120 1.387 . S
C121 C122 1.369 . S
C121 H130 0.929 . S
C122 N119 1.346 . S
C122 C121 1.369 . S
C122 H125 0.928 . S
C123 N119 1.345 . S
C123 C124 1.371 . S
C123 H126 0.931 . S
C124 C120 1.391 . S
C124 C123 1.371 . S
C124 H131 0.930 . S
H125 C122 0.928 . S
H126 C123 0.931 . S
H127 C103 0.930 . S
H128 C100 0.930 . S
H129 C109 0.930 . S
H130 C121 0.929 . S
H131 C124 0.930 . S
C132 C133 1.351 1_455 S
C132 N135 1.368 . S
C132 H137 0.931 . S
C133 C132 1.351 1_655 S
C133 N134 1.373 . S
C133 H161 0.930 . S
N134 C133 1.373 . S
N134 C136 1.340 . S
N135 C132 1.368 . S
N135 C136 1.321 1_455 S
N135 Co138 2.135 . S
C136 N134 1.340 . S
C136 N135 1.321 1_655 S
C136 H160 0.930 . S
H137 C132 0.931 . S
Co138 N135 2.135 . S
Co138 N141 2.121 . S
Co138 O146 2.055 . S
Co138 O149 2.039 . S
Co138 N152 2.140 . S
C139 O140 1.227 . S
C139 O149 1.265 . S
O140 C139 1.227 . S
N141 Co138 2.121 . S
N141 C143 1.375 . S
N141 C144 1.313 . S
C142 C143 1.338 . S
C142 N145 1.377 . S
C142 H162 0.930 . S
C143 N141 1.375 . S
C143 C142 1.338 . S
C143 H147 0.931 . S
C144 N141 1.313 . S
C144 N145 1.344 . S
C144 H148 0.930 . S
N145 C142 1.377 . S
N145 C144 1.344 . S
O146 Co138 2.055 . S
O146 C150 1.253 . S
H147 C143 0.931 . S
H148 C144 0.930 . S
O149 Co138 2.039 . S
O149 C139 1.265 . S
C150 O146 1.253 . S
C150 O151 1.227 . S
O151 C150 1.227 . S
N152 Co138 2.140 . S
N152 C155 1.346 . S
N152 C156 1.345 . S
C153 C154 1.387 . S
C153 C157 1.391 . S
C154 C153 1.387 . S
C154 C155 1.369 . S
C154 H163 0.929 1_455 S
C155 N152 1.346 . S
C155 C154 1.369 . S
C155 H158 0.928 . S
C156 N152 1.345 . S
C156 C157 1.371 . S
C156 H159 0.931 . S
C157 C153 1.391 . S
C157 C156 1.371 . S
C157 H164 0.930 . S
H158 C155 0.928 . S
H159 C156 0.931 . S
H160 C136 0.930 . S
H161 C133 0.930 . S
H162 C142 0.930 . S
H163 C154 0.929 1_655 S
H164 C157 0.930 . S
C165 C166 1.351 1_545 S
C165 N168 1.368 . S
C165 H170 0.931 . S
C166 C165 1.351 1_565 S
C166 N167 1.373 . S
C166 H194 0.930 . S
N167 C166 1.373 . S
N167 C169 1.340 . S
N168 C165 1.368 . S
N168 C169 1.321 1_545 S
N168 Co171 2.135 . S
C169 N167 1.340 . S
C169 N168 1.321 1_565 S
C169 H193 0.930 . S
H170 C165 0.931 . S
Co171 N168 2.135 . S
Co171 N174 2.121 . S
Co171 O179 2.055 . S
Co171 O182 2.039 . S
Co171 N185 2.140 . S
C172 O173 1.227 . S
C172 O182 1.265 . S
O173 C172 1.227 . S
N174 Co171 2.121 . S
N174 C176 1.375 . S
N174 C177 1.313 . S
C175 C176 1.338 . S
C175 N178 1.377 . S
C175 H195 0.930 . S
C176 N174 1.375 . S
C176 C175 1.338 . S
C176 H180 0.931 . S
C177 N174 1.313 . S
C177 N178 1.344 . S
C177 H181 0.930 . S
N178 C175 1.377 . S
N178 C177 1.344 . S
O179 Co171 2.055 . S
O179 C183 1.253 . S
H180 C176 0.931 . S
H181 C177 0.930 . S
O182 Co171 2.039 . S
O182 C172 1.265 . S
C183 O179 1.253 . S
C183 O184 1.227 . S
O184 C183 1.227 . S
N185 Co171 2.140 . S
N185 C188 1.346 . S
N185 C189 1.345 . S
C186 C187 1.387 . S
C186 C190 1.391 . S
C187 C186 1.387 . S
C187 C188 1.369 . S
C187 H196 0.929 1_545 S
C188 N185 1.346 . S
C188 C187 1.369 . S
C188 H191 0.928 . S
C189 N185 1.345 . S
C189 C190 1.371 . S
C189 H192 0.931 . S
C190 C186 1.391 . S
C190 C189 1.371 . S
C190 H197 0.930 . S
H191 C188 0.928 . S
H192 C189 0.931 . S
H193 C169 0.930 . S
H194 C166 0.930 . S
H195 C175 0.930 . S
H196 C187 0.929 1_565 S
H197 C190 0.930 . S
C198 C199 1.351 . S
C198 N201 1.368 . S
C198 H203 0.931 . S
C199 C198 1.351 . S
C199 N200 1.373 . S
C199 H227 0.930 . S
N200 C199 1.373 . S
N200 C202 1.340 . S
N201 C198 1.368 . S
N201 C202 1.321 . S
N201 Co204 2.135 . S
C202 N200 1.340 . S
C202 N201 1.321 . S
C202 H226 0.930 . S
H203 C198 0.931 . S
Co204 N201 2.135 . S
Co204 N207 2.121 . S
Co204 O212 2.055 . S
Co204 O215 2.039 . S
Co204 N218 2.140 . S
C205 O206 1.227 . S
C205 O215 1.265 . S
O206 C205 1.227 . S
N207 Co204 2.121 . S
N207 C209 1.375 . S
N207 C210 1.313 . S
C208 C209 1.338 . S
C208 N211 1.377 . S
C208 H228 0.930 . S
C209 N207 1.375 . S
C209 C208 1.338 . S
C209 H213 0.931 . S
C210 N207 1.313 . S
C210 N211 1.344 . S
C210 H214 0.930 . S
N211 C208 1.377 . S
N211 C210 1.344 . S
O212 Co204 2.055 . S
O212 C216 1.253 . S
H213 C209 0.931 . S
H214 C210 0.930 . S
O215 Co204 2.039 . S
O215 C205 1.265 . S
C216 O212 1.253 . S
C216 O217 1.227 . S
O217 C216 1.227 . S
N218 Co204 2.140 . S
N218 C221 1.346 . S
N218 C222 1.345 . S
C219 C220 1.387 . S
C219 C223 1.391 . S
C220 C219 1.387 . S
C220 C221 1.369 . S
C220 H229 0.929 . S
C221 N218 1.346 . S
C221 C220 1.369 . S
C221 H224 0.928 . S
C222 N218 1.345 . S
C222 C223 1.371 . S
C222 H225 0.931 . S
C223 C219 1.391 . S
C223 C222 1.371 . S
C223 H230 0.930 . S
H224 C221 0.928 . S
H225 C222 0.931 . S
H226 C202 0.930 . S
H227 C199 0.930 . S
H228 C208 0.930 . S
H229 C220 0.929 . S
H230 C223 0.930 . S
C231 C232 1.351 1_655 S
C231 N234 1.368 . S
C231 H236 0.931 . S
C232 C231 1.351 1_455 S
C232 N233 1.373 . S
C232 H260 0.930 . S
N233 C232 1.373 . S
N233 C235 1.340 . S
N234 C231 1.368 . S
N234 C235 1.321 1_655 S
N234 Co237 2.135 . S
C235 N233 1.340 . S
C235 N234 1.321 1_455 S
C235 H259 0.930 . S
H236 C231 0.931 . S
Co237 N234 2.135 . S
Co237 N240 2.121 . S
Co237 O245 2.055 . S
Co237 O248 2.039 1_556 S
Co237 N251 2.140 . S
C238 O239 1.227 . S
C238 O248 1.265 . S
O239 C238 1.227 . S
N240 Co237 2.121 . S
N240 C242 1.375 1_556 S
N240 C243 1.313 . S
C241 C242 1.338 . S
C241 N244 1.377 . S
C241 H261 0.930 . S
C242 N240 1.375 1_554 S
C242 C241 1.338 . S
C242 H246 0.931 . S
C243 N240 1.313 . S
C243 N244 1.344 1_556 S
C243 H247 0.930 . S
N244 C241 1.377 . S
N244 C243 1.344 1_554 S
O245 Co237 2.055 . S
O245 C249 1.253 . S
H246 C242 0.931 . S
H247 C243 0.930 . S
O248 Co237 2.039 1_554 S
O248 C238 1.265 . S
C249 O245 1.253 . S
C249 O250 1.227 . S
O250 C249 1.227 . S
N251 Co237 2.140 . S
N251 C254 1.346 . S
N251 C255 1.345 . S
C252 C253 1.387 . S
C252 C256 1.391 . S
C253 C252 1.387 . S
C253 C254 1.369 . S
C253 H262 0.929 1_655 S
C254 N251 1.346 . S
C254 C253 1.369 . S
C254 H257 0.928 . S
C255 N251 1.345 . S
C255 C256 1.371 . S
C255 H258 0.931 . S
C256 C252 1.391 . S
C256 C255 1.371 . S
C256 H263 0.930 . S
H257 C254 0.928 . S
H258 C255 0.931 . S
H259 C235 0.930 . S
H260 C232 0.930 . S
H261 C241 0.930 . S
H262 C253 0.929 1_455 S
H263 C256 0.930 . S
C264 C265 1.351 1_565 S
C264 N267 1.368 . S
C264 H269 0.931 . S
C265 C264 1.351 1_545 S
C265 N266 1.373 . S
C265 H293 0.930 . S
N266 C265 1.373 . S
N266 C268 1.340 . S
N267 C264 1.368 . S
N267 C268 1.321 1_565 S
N267 Co270 2.135 . S
C268 N266 1.340 . S
C268 N267 1.321 1_545 S
C268 H292 0.930 . S
H269 C264 0.931 . S
Co270 N267 2.135 . S
Co270 N273 2.121 . S
Co270 O278 2.055 . S
Co270 O281 2.039 . S
Co270 N284 2.140 . S
C271 O272 1.227 . S
C271 O281 1.265 . S
O272 C271 1.227 . S
N273 Co270 2.121 . S
N273 C275 1.375 . S
N273 C276 1.313 . S
C274 C275 1.338 . S
C274 N277 1.377 . S
C274 H294 0.930 . S
C275 N273 1.375 . S
C275 C274 1.338 . S
C275 H279 0.931 . S
C276 N273 1.313 . S
C276 N277 1.344 . S
C276 H280 0.930 . S
N277 C274 1.377 . S
N277 C276 1.344 . S
O278 Co270 2.055 . S
O278 C282 1.253 . S
H279 C275 0.931 . S
H280 C276 0.930 . S
O281 Co270 2.039 . S
O281 C271 1.265 . S
C282 O278 1.253 . S
C282 O283 1.227 . S
O283 C282 1.227 . S
N284 Co270 2.140 . S
N284 C287 1.346 . S
N284 C288 1.345 . S
C285 C286 1.387 . S
C285 C289 1.391 . S
C286 C285 1.387 . S
C286 C287 1.369 . S
C286 H295 0.929 1_565 S
C287 N284 1.346 . S
C287 C286 1.369 . S
C287 H290 0.928 . S
C288 N284 1.345 . S
C288 C289 1.371 . S
C288 H291 0.931 . S
C289 C285 1.391 . S
C289 C288 1.371 . S
C289 H296 0.930 . S
H290 C287 0.928 . S
H291 C288 0.931 . S
H292 C268 0.930 . S
H293 C265 0.930 . S
H294 C274 0.930 . S
H295 C286 0.929 1_545 S
H296 C289 0.930 . S
C297 C298 1.351 . S
C297 N300 1.368 . S
C297 H302 0.931 . S
C298 C297 1.351 . S
C298 N299 1.373 . S
C298 H326 0.930 . S
N299 C298 1.373 . S
N299 C301 1.340 . S
N300 C297 1.368 . S
N300 C301 1.321 . S
N300 Co303 2.135 . S
C301 N299 1.340 . S
C301 N300 1.321 . S
C301 H325 0.930 . S
H302 C297 0.931 . S
Co303 N300 2.135 . S
Co303 N306 2.121 . S
Co303 O311 2.055 . S
Co303 O314 2.039 . S
Co303 N317 2.140 . S
C304 O305 1.227 . S
C304 O314 1.265 . S
O305 C304 1.227 . S
N306 Co303 2.121 . S
N306 C308 1.375 . S
N306 C309 1.313 . S
C307 C308 1.338 . S
C307 N310 1.377 . S
C307 H327 0.930 . S
C308 N306 1.375 . S
C308 C307 1.338 . S
C308 H312 0.931 . S
C309 N306 1.313 . S
C309 N310 1.344 . S
C309 H313 0.930 . S
N310 C307 1.377 . S
N310 C309 1.344 . S
O311 Co303 2.055 . S
O311 C315 1.253 . S
H312 C308 0.931 . S
H313 C309 0.930 . S
O314 Co303 2.039 . S
O314 C304 1.265 . S
C315 O311 1.253 . S
C315 O316 1.227 . S
O316 C315 1.227 . S
N317 Co303 2.140 . S
N317 C320 1.346 . S
N317 C321 1.345 . S
C318 C319 1.387 . S
C318 C322 1.391 . S
C319 C318 1.387 . S
C319 C320 1.369 . S
C319 H328 0.929 . S
C320 N317 1.346 . S
C320 C319 1.369 . S
C320 H323 0.928 . S
C321 N317 1.345 . S
C321 C322 1.371 . S
C321 H324 0.931 . S
C322 C318 1.391 . S
C322 C321 1.371 . S
C322 H329 0.930 . S
H323 C320 0.928 . S
H324 C321 0.931 . S
H325 C301 0.930 . S
H326 C298 0.930 . S
H327 C307 0.930 . S
H328 C319 0.929 . S
H329 C322 0.930 . S
C330 C331 1.351 1_455 S
C330 N333 1.368 . S
C330 H335 0.931 . S
C331 C330 1.351 1_655 S
C331 N332 1.373 . S
C331 H359 0.930 . S
N332 C331 1.373 . S
N332 C334 1.340 . S
N333 C330 1.368 . S
N333 C334 1.321 1_455 S
N333 Co336 2.135 . S
C334 N332 1.340 . S
C334 N333 1.321 1_655 S
C334 H358 0.930 . S
H335 C330 0.931 . S
Co336 N333 2.135 . S
Co336 N339 2.121 . S
Co336 O344 2.055 . S
Co336 O347 2.039 . S
Co336 N350 2.140 . S
C337 O338 1.227 . S
C337 O347 1.265 . S
O338 C337 1.227 . S
N339 Co336 2.121 . S
N339 C341 1.375 . S
N339 C342 1.313 . S
C340 C341 1.338 . S
C340 N343 1.377 . S
C340 H360 0.930 . S
C341 N339 1.375 . S
C341 C340 1.338 . S
C341 H345 0.931 . S
C342 N339 1.313 . S
C342 N343 1.344 . S
C342 H346 0.930 . S
N343 C340 1.377 . S
N343 C342 1.344 . S
O344 Co336 2.055 . S
O344 C348 1.253 . S
H345 C341 0.931 . S
H346 C342 0.930 . S
O347 Co336 2.039 . S
O347 C337 1.265 . S
C348 O344 1.253 . S
C348 O349 1.227 . S
O349 C348 1.227 . S
N350 Co336 2.140 . S
N350 C353 1.346 . S
N350 C354 1.345 . S
C351 C352 1.387 . S
C351 C355 1.391 . S
C352 C351 1.387 . S
C352 C353 1.369 . S
C352 H361 0.929 1_455 S
C353 N350 1.346 . S
C353 C352 1.369 . S
C353 H356 0.928 . S
C354 N350 1.345 . S
C354 C355 1.371 . S
C354 H357 0.931 . S
C355 C351 1.391 . S
C355 C354 1.371 . S
C355 H362 0.930 . S
H356 C353 0.928 . S
H357 C354 0.931 . S
H358 C334 0.930 . S
H359 C331 0.930 . S
H360 C340 0.930 . S
H361 C352 0.929 1_655 S
H362 C355 0.930 . S
C363 C364 1.351 1_545 S
C363 N366 1.368 . S
C363 H368 0.931 . S
C364 C363 1.351 1_565 S
C364 N365 1.373 . S
C364 H392 0.930 . S
N365 C364 1.373 . S
N365 C367 1.340 . S
N366 C363 1.368 . S
N366 C367 1.321 1_545 S
N366 Co369 2.135 . S
C367 N365 1.340 . S
C367 N366 1.321 1_565 S
C367 H391 0.930 . S
H368 C363 0.931 . S
Co369 N366 2.135 . S
Co369 N372 2.121 . S
Co369 O377 2.055 . S
Co369 O380 2.039 . S
Co369 N383 2.140 . S
C370 O371 1.227 . S
C370 O380 1.265 . S
O371 C370 1.227 . S
N372 Co369 2.121 . S
N372 C374 1.375 . S
N372 C375 1.313 . S
C373 C374 1.338 . S
C373 N376 1.377 . S
C373 H393 0.930 . S
C374 N372 1.375 . S
C374 C373 1.338 . S
C374 H378 0.931 . S
C375 N372 1.313 . S
C375 N376 1.344 . S
C375 H379 0.930 . S
N376 C373 1.377 . S
N376 C375 1.344 . S
O377 Co369 2.055 . S
O377 C381 1.253 . S
H378 C374 0.931 . S
H379 C375 0.930 . S
O380 Co369 2.039 . S
O380 C370 1.265 . S
C381 O377 1.253 . S
C381 O382 1.227 . S
O382 C381 1.227 . S
N383 Co369 2.140 . S
N383 C386 1.346 . S
N383 C387 1.345 . S
C384 C385 1.387 . S
C384 C388 1.391 . S
C385 C384 1.387 . S
C385 C386 1.369 . S
C385 H394 0.929 1_545 S
C386 N383 1.346 . S
C386 C385 1.369 . S
C386 H389 0.928 . S
C387 N383 1.345 . S
C387 C388 1.371 . S
C387 H390 0.931 . S
C388 C384 1.391 . S
C388 C387 1.371 . S
C388 H395 0.930 . S
H389 C386 0.928 . S
H390 C387 0.931 . S
H391 C367 0.930 . S
H392 C364 0.930 . S
H393 C373 0.930 . S
H394 C385 0.929 1_565 S
H395 C388 0.930 . S
H396 C402 0.930 . S
H397 C406 0.930 . S
H398 C411 0.929 . S
H399 C409 0.929 . S
H400 C404 0.929 . S
H401 C410 0.929 . S
C402 H396 0.930 . S
C402 C403 1.367 . S
C402 C410 1.378 . S
C403 C402 1.367 . S
C403 C411 1.433 . S
C404 H400 0.929 . S
C404 C406 1.378 . S
C404 C408 1.350 . S
C405 C408 1.463 . S
C405 C410 1.350 . S
C405 N413 1.427 . S
C406 H397 0.930 . S
C406 C404 1.378 . S
C406 C407 1.367 . S
C407 C406 1.367 . S
C407 C409 1.433 . S
C408 C404 1.350 . S
C408 C405 1.463 . S
C408 N412 1.427 . S
C409 H399 0.929 . S
C409 C407 1.433 . S
C409 N412 1.384 . S
C410 H401 0.929 . S
C410 C402 1.378 . S
C410 C405 1.350 . S
C411 H398 0.929 . S
C411 C403 1.433 . S
C411 N413 1.384 . S
N412 C408 1.427 . S
N412 C409 1.384 . S
N413 C405 1.427 . S
N413 C411 1.384 . S
H414 C420 0.930 . S
H415 C424 0.930 . S
H416 C429 0.929 . S
H417 C427 0.929 . S
H418 C422 0.929 . S
H419 C428 0.929 . S
C420 H414 0.930 . S
C420 C421 1.367 . S
C420 C428 1.378 . S
C421 C420 1.367 . S
C421 C429 1.433 . S
C422 H418 0.929 . S
C422 C424 1.378 . S
C422 C426 1.350 . S
C423 C426 1.463 . S
C423 C428 1.350 . S
C423 N431 1.427 . S
C424 H415 0.930 . S
C424 C422 1.378 . S
C424 C425 1.367 . S
C425 C424 1.367 . S
C425 C427 1.433 . S
C426 C422 1.350 . S
C426 C423 1.463 . S
C426 N430 1.427 . S
C427 H417 0.929 . S
C427 C425 1.433 . S
C427 N430 1.384 . S
C428 H419 0.929 . S
C428 C420 1.378 . S
C428 C423 1.350 . S
C429 H416 0.929 . S
C429 C421 1.433 . S
C429 N431 1.384 . S
N430 C426 1.427 . S
N430 C427 1.384 . S
N431 C423 1.427 . S
N431 C429 1.384 . S
H432 C438 0.930 . S
H433 C442 0.930 . S
H434 C447 0.929 . S
H435 C445 0.929 . S
H436 C440 0.929 . S
H437 C446 0.929 . S
C438 H432 0.930 . S
C438 C439 1.367 . S
C438 C446 1.378 . S
C439 C438 1.367 . S
C439 C447 1.433 . S
C440 H436 0.929 . S
C440 C442 1.378 . S
C440 C444 1.350 . S
C441 C444 1.463 . S
C441 C446 1.350 . S
C441 N449 1.427 . S
C442 H433 0.930 . S
C442 C440 1.378 . S
C442 C443 1.367 . S
C443 C442 1.367 . S
C443 C445 1.433 . S
C444 C440 1.350 . S
C444 C441 1.463 . S
C444 N448 1.427 . S
C445 H435 0.929 . S
C445 C443 1.433 . S
C445 N448 1.384 . S
C446 H437 0.929 . S
C446 C438 1.378 . S
C446 C441 1.350 . S
C447 H434 0.929 . S
C447 C439 1.433 . S
C447 N449 1.384 . S
N448 C444 1.427 . S
N448 C445 1.384 . S
N449 C441 1.427 . S
N449 C447 1.384 . S
H450 C456 0.930 . S
H451 C460 0.930 . S
H452 C465 0.929 . S
H453 C463 0.929 . S
H454 C458 0.929 . S
H455 C464 0.929 . S
C456 H450 0.930 . S
C456 C457 1.367 . S
C456 C464 1.378 . S
C457 C456 1.367 . S
C457 C465 1.433 . S
C458 H454 0.929 . S
C458 C460 1.378 . S
C458 C462 1.350 . S
C459 C462 1.463 . S
C459 C464 1.350 . S
C459 N467 1.427 . S
C460 H451 0.930 . S
C460 C458 1.378 . S
C460 C461 1.367 . S
C461 C460 1.367 . S
C461 C463 1.433 . S
C462 C458 1.350 . S
C462 C459 1.463 . S
C462 N466 1.427 . S
C463 H453 0.929 . S
C463 C461 1.433 . S
C463 N466 1.384 . S
C464 H455 0.929 . S
C464 C456 1.378 . S
C464 C459 1.350 . S
C465 H452 0.929 . S
C465 C457 1.433 . S
C465 N467 1.384 . S
N466 C462 1.427 . S
N466 C463 1.384 . S
N467 C459 1.427 . S
N467 C465 1.384 . S
H468 C474 0.930 . S
H469 C478 0.930 . S
H470 C483 0.929 . S
H471 C481 0.929 . S
H472 C476 0.929 . S
H473 C482 0.929 . S
C474 H468 0.930 . S
C474 C475 1.367 . S
C474 C482 1.378 . S
C475 C474 1.367 . S
C475 C483 1.433 . S
C476 H472 0.929 . S
C476 C478 1.378 . S
C476 C480 1.350 . S
C477 C480 1.463 . S
C477 C482 1.350 . S
C477 N485 1.427 . S
C478 H469 0.930 . S
C478 C476 1.378 . S
C478 C479 1.367 . S
C479 C478 1.367 . S
C479 C481 1.433 . S
C480 C476 1.350 . S
C480 C477 1.463 . S
C480 N484 1.427 . S
C481 H471 0.929 . S
C481 C479 1.433 . S
C481 N484 1.384 . S
C482 H473 0.929 . S
C482 C474 1.378 . S
C482 C477 1.350 . S
C483 H470 0.929 . S
C483 C475 1.433 . S
C483 N485 1.384 . S
N484 C480 1.427 . S
N484 C481 1.384 . S
N485 C477 1.427 . S
N485 C483 1.384 . S
H486 C492 0.930 . S
H487 C496 0.930 . S
H488 C501 0.929 . S
H489 C499 0.929 . S
H490 C494 0.929 . S
H491 C500 0.929 . S
C492 H486 0.930 . S
C492 C493 1.367 . S
C492 C500 1.378 . S
C493 C492 1.367 . S
C493 C501 1.433 . S
C494 H490 0.929 . S
C494 C496 1.378 . S
C494 C498 1.350 . S
C495 C498 1.463 . S
C495 C500 1.350 . S
C495 N503 1.427 . S
C496 H487 0.930 . S
C496 C494 1.378 . S
C496 C497 1.367 . S
C497 C496 1.367 . S
C497 C499 1.433 . S
C498 C494 1.350 . S
C498 C495 1.463 . S
C498 N502 1.427 . S
C499 H489 0.929 . S
C499 C497 1.433 . S
C499 N502 1.384 . S
C500 H491 0.929 . S
C500 C492 1.378 . S
C500 C495 1.350 . S
C501 H488 0.929 . S
C501 C493 1.433 . S
C501 N503 1.384 . S
N502 C498 1.427 . S
N502 C499 1.384 . S
N503 C495 1.427 . S
N503 C501 1.384 . S
H504 C510 0.930 . S
H505 C514 0.930 . S
H506 C519 0.929 . S
H507 C517 0.929 . S
H508 C512 0.929 . S
H509 C518 0.929 . S
C510 H504 0.930 . S
C510 C511 1.367 1_556 S
C510 C518 1.378 . S
C511 C510 1.367 1_554 S
C511 C519 1.433 . S
C512 H508 0.929 . S
C512 C514 1.378 . S
C512 C516 1.350 . S
C513 C516 1.463 . S
C513 C518 1.350 1_554 S
C513 N521 1.427 . S
C514 H505 0.930 . S
C514 C512 1.378 . S
C514 C515 1.367 . S
C515 C514 1.367 . S
C515 C517 1.433 1_554 S
C516 C512 1.350 . S
C516 C513 1.463 . S
C516 N520 1.427 1_554 S
C517 H507 0.929 . S
C517 C515 1.433 1_556 S
C517 N520 1.384 . S
C518 H509 0.929 . S
C518 C510 1.378 . S
C518 C513 1.350 1_556 S
C519 H506 0.929 . S
C519 C511 1.433 . S
C519 N521 1.384 . S
N520 C516 1.427 1_556 S
N520 C517 1.384 . S
N521 C513 1.427 . S
N521 C519 1.384 . S
H522 C528 0.930 . S
H523 C532 0.930 . S
H524 C537 0.929 . S
H525 C535 0.929 . S
H526 C530 0.929 . S
H527 C536 0.929 1_655 S
C528 H522 0.930 . S
C528 C529 1.367 . S
C528 C536 1.378 1_655 S
C529 C528 1.367 . S
C529 C537 1.433 1_655 S
C530 H526 0.929 . S
C530 C532 1.378 . S
C530 C534 1.350 . S
C531 C534 1.463 . S
C531 C536 1.350 . S
C531 N539 1.427 . S
C532 H523 0.930 . S
C532 C530 1.378 . S
C532 C533 1.367 . S
C533 C532 1.367 . S
C533 C535 1.433 . S
C534 C530 1.350 . S
C534 C531 1.463 . S
C534 N538 1.427 . S
C535 H525 0.929 . S
C535 C533 1.433 . S
C535 N538 1.384 . S
C536 H527 0.929 1_455 S
C536 C528 1.378 1_455 S
C536 C531 1.350 . S
C537 H524 0.929 . S
C537 C529 1.433 1_455 S
C537 N539 1.384 . S
N538 C534 1.427 . S
N538 C535 1.384 . S
N539 C531 1.427 . S
N539 C537 1.384 . S
H540 C546 0.930 . S
H541 C550 0.930 . S
H542 C555 0.929 . S
H543 C553 0.929 . S
H544 C548 0.929 . S
H545 C554 0.929 . S
C546 H540 0.930 . S
C546 C547 1.367 . S
C546 C554 1.378 . S
C547 C546 1.367 . S
C547 C555 1.433 . S
C548 H544 0.929 . S
C548 C550 1.378 . S
C548 C552 1.350 . S
C549 C552 1.463 . S
C549 C554 1.350 . S
C549 N557 1.427 . S
C550 H541 0.930 . S
C550 C548 1.378 . S
C550 C551 1.367 1_545 S
C551 C550 1.367 1_565 S
C551 C553 1.433 . S
C552 C548 1.350 . S
C552 C549 1.463 . S
C552 N556 1.427 . S
C553 H543 0.929 . S
C553 C551 1.433 . S
C553 N556 1.384 1_565 S
C554 H545 0.929 . S
C554 C546 1.378 . S
C554 C549 1.350 . S
C555 H542 0.929 . S
C555 C547 1.433 . S
C555 N557 1.384 . S
N556 C552 1.427 . S
N556 C553 1.384 1_545 S
N557 C549 1.427 . S
N557 C555 1.384 . S
H558 C564 0.930 . S
H559 C568 0.930 . S
H560 C573 0.929 . S
H561 C571 0.929 . S
H562 C566 0.929 . S
H563 C572 0.929 . S
C564 H558 0.930 . S
C564 C565 1.367 . S
C564 C572 1.378 . S
C565 C564 1.367 . S
C565 C573 1.433 . S
C566 H562 0.929 . S
C566 C568 1.378 . S
C566 C570 1.350 . S
C567 C570 1.463 . S
C567 C572 1.350 . S
C567 N575 1.427 . S
C568 H559 0.930 . S
C568 C566 1.378 . S
C568 C569 1.367 . S
C569 C568 1.367 . S
C569 C571 1.433 . S
C570 C566 1.350 . S
C570 C567 1.463 . S
C570 N574 1.427 . S
C571 H561 0.929 . S
C571 C569 1.433 . S
C571 N574 1.384 . S
C572 H563 0.929 . S
C572 C564 1.378 . S
C572 C567 1.350 . S
C573 H560 0.929 . S
C573 C565 1.433 . S
C573 N575 1.384 . S
N574 C570 1.427 . S
N574 C571 1.384 . S
N575 C567 1.427 . S
N575 C573 1.384 . S
H576 C582 0.930 . S
H577 C586 0.930 . S
H578 C591 0.929 . S
H579 C589 0.929 . S
H580 C584 0.929 . S
H581 C590 0.929 . S
C582 H576 0.930 . S
C582 C583 1.367 . S
C582 C590 1.378 . S
C583 C582 1.367 . S
C583 C591 1.433 . S
C584 H580 0.929 . S
C584 C586 1.378 1_655 S
C584 C588 1.350 . S
C585 C588 1.463 . S
C585 C590 1.350 . S
C585 N593 1.427 . S
C586 H577 0.930 . S
C586 C584 1.378 1_455 S
C586 C587 1.367 . S
C587 C586 1.367 . S
C587 C589 1.433 1_455 S
C588 C584 1.350 . S
C588 C585 1.463 . S
C588 N592 1.427 . S
C589 H579 0.929 . S
C589 C587 1.433 1_655 S
C589 N592 1.384 . S
C590 H581 0.929 . S
C590 C582 1.378 . S
C590 C585 1.350 . S
C591 H578 0.929 . S
C591 C583 1.433 . S
C591 N593 1.384 . S
N592 C588 1.427 . S
N592 C589 1.384 . S
N593 C585 1.427 . S
N593 C591 1.384 . S
H594 C600 0.930 . S
H595 C604 0.930 . S
H596 C609 0.929 . S
H597 C607 0.929 . S
H598 C602 0.929 . S
H599 C608 0.929 . S
C600 H594 0.930 . S
C600 C601 1.367 . S
C600 C608 1.378 . S
C601 C600 1.367 . S
C601 C609 1.433 . S
C602 H598 0.929 . S
C602 C604 1.378 . S
C602 C606 1.350 . S
C603 C606 1.463 . S
C603 C608 1.350 . S
C603 N611 1.427 . S
C604 H595 0.930 . S
C604 C602 1.378 . S
C604 C605 1.367 1_565 S
C605 C604 1.367 1_545 S
C605 C607 1.433 . S
C606 C602 1.350 . S
C606 C603 1.463 . S
C606 N610 1.427 . S
C607 H597 0.929 . S
C607 C605 1.433 . S
C607 N610 1.384 1_545 S
C608 H599 0.929 . S
C608 C600 1.378 . S
C608 C603 1.350 . S
C609 H596 0.929 . S
C609 C601 1.433 . S
C609 N611 1.384 . S
N610 C606 1.427 . S
N610 C607 1.384 1_565 S
N611 C603 1.427 . S
N611 C609 1.384 . S
H612 C618 0.930 . S
H613 C622 0.930 . S
H614 C627 0.929 . S
H615 C625 0.929 . S
H616 C620 0.929 . S
H617 C626 0.929 . S
C618 H612 0.930 . S
C618 C619 1.367 . S
C618 C626 1.378 . S
C619 C618 1.367 . S
C619 C627 1.433 . S
C620 H616 0.929 . S
C620 C622 1.378 . S
C620 C624 1.350 . S
C621 C624 1.463 . S
C621 C626 1.350 . S
C621 N629 1.427 . S
C622 H613 0.930 . S
C622 C620 1.378 . S
C622 C623 1.367 . S
C623 C622 1.367 . S
C623 C625 1.433 . S
C624 C620 1.350 . S
C624 C621 1.463 . S
C624 N628 1.427 . S
C625 H615 0.929 . S
C625 C623 1.433 . S
C625 N628 1.384 . S
C626 H617 0.929 . S
C626 C618 1.378 . S
C626 C621 1.350 . S
C627 H614 0.929 . S
C627 C619 1.433 . S
C627 N629 1.384 . S
N628 C624 1.427 . S
N628 C625 1.384 . S
N629 C621 1.427 . S
N629 C627 1.384 . S
H630 C636 0.932 . S
H631 C640 0.934 1_554 S
H632 C645 0.929 1_654 S
H633 C643 0.929 . S
H634 C638 0.929 1_554 S
H635 C644 0.929 . S
C636 H630 0.932 . S
C636 C637 1.369 . S
C636 C644 1.374 1_655 S
C637 C636 1.369 . S
C637 C645 1.433 1_655 S
C638 H634 0.929 1_556 S
C638 C640 1.378 . S
C638 C642 1.350 . S
C639 C642 1.463 . S
C639 C644 1.350 . S
C639 N647 1.427 . S
C640 H631 0.934 1_556 S
C640 C638 1.378 . S
C640 C641 1.363 . S
C641 C640 1.363 . S
C641 C643 1.433 . S
C642 C638 1.350 . S
C642 C639 1.463 . S
C642 N646 1.427 . S
C643 H633 0.929 . S
C643 C641 1.433 . S
C643 N646 1.384 . S
C644 H635 0.929 . S
C644 C636 1.374 1_455 S
C644 C639 1.350 . S
C645 H632 0.929 1_456 S
C645 C637 1.433 1_455 S
C645 N647 1.384 . S
N646 C642 1.427 . S
N646 C643 1.384 . S
N647 C639 1.427 . S
N647 C645 1.384 . S
H648 C654 0.930 . S
H649 C658 0.930 . S
H650 C663 0.929 . S
H651 C661 0.929 . S
H652 C656 0.929 . S
H653 C662 0.929 . S
C654 H648 0.930 . S
C654 C655 1.367 1_545 S
C654 C662 1.378 . S
C655 C654 1.367 1_565 S
C655 C663 1.433 . S
C656 H652 0.929 . S
C656 C658 1.378 . S
C656 C660 1.350 . S
C657 C660 1.463 . S
C657 C662 1.350 . S
C657 N665 1.427 . S
C658 H649 0.930 . S
C658 C656 1.378 . S
C658 C659 1.367 . S
C659 C658 1.367 . S
C659 C661 1.433 . S
C660 C656 1.350 . S
C660 C657 1.463 . S
C660 N664 1.427 . S
C661 H651 0.929 . S
C661 C659 1.433 . S
C661 N664 1.384 . S
C662 H653 0.929 . S
C662 C654 1.378 . S
C662 C657 1.350 . S
C663 H650 0.929 . S
C663 C655 1.433 . S
C663 N665 1.384 1_565 S
N664 C660 1.427 . S
N664 C661 1.384 . S
N665 C657 1.427 . S
N665 C663 1.384 1_545 S
H666 C672 0.930 . S
H667 C676 0.930 . S
H668 C681 0.929 . S
H669 C679 0.929 . S
H670 C674 0.929 . S
H671 C680 0.929 . S
C672 H666 0.930 . S
C672 C673 1.367 . S
C672 C680 1.378 . S
C673 C672 1.367 . S
C673 C681 1.433 . S
C674 H670 0.929 . S
C674 C676 1.378 . S
C674 C678 1.350 . S
C675 C678 1.463 . S
C675 C680 1.350 . S
C675 N683 1.427 . S
C676 H667 0.930 . S
C676 C674 1.378 . S
C676 C677 1.367 . S
C677 C676 1.367 . S
C677 C679 1.433 . S
C678 C674 1.350 . S
C678 C675 1.463 . S
C678 N682 1.427 . S
C679 H669 0.929 . S
C679 C677 1.433 . S
C679 N682 1.384 . S
C680 H671 0.929 . S
C680 C672 1.378 . S
C680 C675 1.350 . S
C681 H668 0.929 . S
C681 C673 1.433 . S
C681 N683 1.384 . S
N682 C678 1.427 . S
N682 C679 1.384 . S
N683 C675 1.427 . S
N683 C681 1.384 . S
H684 C690 0.930 . S
H685 C694 0.930 . S
H686 C699 0.929 . S
H687 C697 0.929 . S
H688 C692 0.929 . S
H689 C698 0.929 . S
C690 H684 0.930 . S
C690 C691 1.367 . S
C690 C698 1.378 . S
C691 C690 1.367 . S
C691 C699 1.433 . S
C692 H688 0.929 . S
C692 C694 1.378 . S
C692 C696 1.350 1_455 S
C693 C696 1.463 . S
C693 C698 1.350 . S
C693 N701 1.427 . S
C694 H685 0.930 . S
C694 C692 1.378 . S
C694 C695 1.367 . S
C695 C694 1.367 . S
C695 C697 1.433 1_455 S
C696 C692 1.350 1_655 S
C696 C693 1.463 . S
C696 N700 1.427 . S
C697 H687 0.929 . S
C697 C695 1.433 1_655 S
C697 N700 1.384 . S
C698 H689 0.929 . S
C698 C690 1.378 . S
C698 C693 1.350 . S
C699 H686 0.929 . S
C699 C691 1.433 . S
C699 N701 1.384 . S
N700 C696 1.427 . S
N700 C697 1.384 . S
N701 C693 1.427 . S
N701 C699 1.384 . S
H702 C708 0.930 . S
H703 C712 0.930 . S
H704 C717 0.929 . S
H705 C715 0.929 . S
H706 C710 0.929 . S
H707 C716 0.929 . S
C708 H702 0.930 . S
C708 C709 1.367 . S
C708 C716 1.378 . S
C709 C708 1.367 . S
C709 C717 1.433 . S
C710 H706 0.929 . S
C710 C712 1.378 . S
C710 C714 1.350 . S
C711 C714 1.463 . S
C711 C716 1.350 . S
C711 N719 1.427 . S
C712 H703 0.930 . S
C712 C710 1.378 . S
C712 C713 1.367 1_565 S
C713 C712 1.367 1_545 S
C713 C715 1.433 . S
C714 C710 1.350 . S
C714 C711 1.463 . S
C714 N718 1.427 . S
C715 H705 0.929 . S
C715 C713 1.433 . S
C715 N718 1.384 1_545 S
C716 H707 0.929 . S
C716 C708 1.378 . S
C716 C711 1.350 . S
C717 H704 0.929 . S
C717 C709 1.433 . S
C717 N719 1.384 . S
N718 C714 1.427 . S
N718 C715 1.384 1_565 S
N719 C711 1.427 . S
N719 C717 1.384 . S
H720 C726 0.930 . S
H721 C730 0.930 . S
H722 C735 0.929 . S
H723 C733 0.929 . S
H724 C728 0.929 . S
H725 C734 0.929 . S
C726 H720 0.930 . S
C726 C727 1.367 . S
C726 C734 1.378 . S
C727 C726 1.367 . S
C727 C735 1.433 . S
C728 H724 0.929 . S
C728 C730 1.378 . S
C728 C732 1.350 . S
C729 C732 1.463 . S
C729 C734 1.350 . S
C729 N737 1.427 . S
C730 H721 0.930 . S
C730 C728 1.378 . S
C730 C731 1.367 . S
C731 C730 1.367 . S
C731 C733 1.433 . S
C732 C728 1.350 . S
C732 C729 1.463 . S
C732 N736 1.427 . S
C733 H723 0.929 . S
C733 C731 1.433 . S
C733 N736 1.384 . S
C734 H725 0.929 . S
C734 C726 1.378 . S
C734 C729 1.350 . S
C735 H722 0.929 . S
C735 C727 1.433 . S
C735 N737 1.384 . S
N736 C732 1.427 . S
N736 C733 1.384 . S
N737 C729 1.427 . S
N737 C735 1.384 . S
H738 C744 0.930 . S
H739 C748 0.930 . S
H740 C753 0.929 . S
H741 C751 0.929 . S
H742 C746 0.929 . S
H743 C752 0.929 . S
C744 H738 0.930 . S
C744 C745 1.367 . S
C744 C752 1.378 . S
C745 C744 1.367 . S
C745 C753 1.433 . S
C746 H742 0.929 . S
C746 C748 1.378 . S
C746 C750 1.350 . S
C747 C750 1.463 . S
C747 C752 1.350 . S
C747 N755 1.427 . S
C748 H739 0.930 . S
C748 C746 1.378 . S
C748 C749 1.367 1_455 S
C749 C748 1.367 1_655 S
C749 C751 1.433 . S
C750 C746 1.350 . S
C750 C747 1.463 . S
C750 N754 1.427 1_455 S
C751 H741 0.929 . S
C751 C749 1.433 . S
C751 N754 1.384 . S
C752 H743 0.929 . S
C752 C744 1.378 . S
C752 C747 1.350 . S
C753 H740 0.929 . S
C753 C745 1.433 . S
C753 N755 1.384 . S
N754 C750 1.427 1_655 S
N754 C751 1.384 . S
N755 C747 1.427 . S
N755 C753 1.384 . S
H756 C762 0.930 . S
H757 C766 0.930 . S
H758 C771 0.929 . S
H759 C769 0.929 . S
H760 C764 0.929 . S
H761 C770 0.929 . S
C762 H756 0.930 . S
C762 C763 1.367 1_545 S
C762 C770 1.378 . S
C763 C762 1.367 1_565 S
C763 C771 1.433 . S
C764 H760 0.929 . S
C764 C766 1.378 . S
C764 C768 1.350 . S
C765 C768 1.463 . S
C765 C770 1.350 . S
C765 N773 1.427 1_545 S
C766 H757 0.930 . S
C766 C764 1.378 . S
C766 C767 1.367 . S
C767 C766 1.367 . S
C767 C769 1.433 . S
C768 C764 1.350 . S
C768 C765 1.463 . S
C768 N772 1.427 . S
C769 H759 0.929 . S
C769 C767 1.433 . S
C769 N772 1.384 . S
C770 H761 0.929 . S
C770 C762 1.378 . S
C770 C765 1.350 . S
C771 H758 0.929 . S
C771 C763 1.433 . S
C771 N773 1.384 . S
N772 C768 1.427 . S
N772 C769 1.384 . S
N773 C765 1.427 1_565 S
N773 C771 1.384 . S
H774 C780 0.930 . S
H775 C784 0.930 . S
H776 C789 0.929 . S
H777 C787 0.929 . S
H778 C782 0.929 . S
H779 C788 0.929 . S
C780 H774 0.930 . S
C780 C781 1.367 . S
C780 C788 1.378 . S
C781 C780 1.367 . S
C781 C789 1.433 . S
C782 H778 0.929 . S
C782 C784 1.378 . S
C782 C786 1.350 . S
C783 C786 1.463 . S
C783 C788 1.350 . S
C783 N791 1.427 . S
C784 H775 0.930 . S
C784 C782 1.378 . S
C784 C785 1.367 . S
C785 C784 1.367 . S
C785 C787 1.433 . S
C786 C782 1.350 . S
C786 C783 1.463 . S
C786 N790 1.427 . S
C787 H777 0.929 . S
C787 C785 1.433 . S
C787 N790 1.384 . S
C788 H779 0.929 . S
C788 C780 1.378 . S
C788 C783 1.350 . S
C789 H776 0.929 . S
C789 C781 1.433 . S
C789 N791 1.384 . S
N790 C786 1.427 . S
N790 C787 1.384 . S
N791 C783 1.427 . S
N791 C789 1.384 . S
H792 C798 0.930 . S
H793 C802 0.930 . S
H794 C807 0.929 . S
H795 C805 0.929 . S
H796 C800 0.929 . S
H797 C806 0.929 . S
C798 H792 0.930 . S
C798 C799 1.367 . S
C798 C806 1.378 . S
C799 C798 1.367 . S
C799 C807 1.433 . S
C800 H796 0.929 . S
C800 C802 1.378 1_655 S
C800 C804 1.350 . S
C801 C804 1.463 . S
C801 C806 1.350 . S
C801 N809 1.427 . S
C802 H793 0.930 . S
C802 C800 1.378 1_455 S
C802 C803 1.367 . S
C803 C802 1.367 . S
C803 C805 1.433 . S
C804 C800 1.350 . S
C804 C801 1.463 . S
C804 N808 1.427 . S
C805 H795 0.929 . S
C805 C803 1.433 . S
C805 N808 1.384 1_455 S
C806 H797 0.929 . S
C806 C798 1.378 . S
C806 C801 1.350 . S
C807 H794 0.929 . S
C807 C799 1.433 . S
C807 N809 1.384 . S
N808 C804 1.427 . S
N808 C805 1.384 1_655 S
N809 C801 1.427 . S
N809 C807 1.384 . S
H810 C816 0.930 . S
H811 C820 0.930 . S
H812 C825 0.929 . S
H813 C823 0.929 . S
H814 C818 0.929 . S
H815 C824 0.929 . S
C816 H810 0.930 . S
C816 C817 1.367 . S
C816 C824 1.378 . S
C817 C816 1.367 . S
C817 C825 1.433 . S
C818 H814 0.929 . S
C818 C820 1.378 . S
C818 C822 1.350 1_545 S
C819 C822 1.463 . S
C819 C824 1.350 . S
C819 N827 1.427 . S
C820 H811 0.930 . S
C820 C818 1.378 . S
C820 C821 1.367 . S
C821 C820 1.367 . S
C821 C823 1.433 1_545 S
C822 C818 1.350 1_565 S
C822 C819 1.463 . S
C822 N826 1.427 . S
C823 H813 0.929 . S
C823 C821 1.433 1_565 S
C823 N826 1.384 . S
C824 H815 0.929 . S
C824 C816 1.378 . S
C824 C819 1.350 . S
C825 H812 0.929 . S
C825 C817 1.433 . S
C825 N827 1.384 . S
N826 C822 1.427 . S
N826 C823 1.384 . S
N827 C819 1.427 . S
N827 C825 1.384 . S
H828 C834 0.930 . S
H829 C838 0.930 . S
H830 C843 0.929 . S
H831 C841 0.929 . S
H832 C836 0.929 . S
H833 C842 0.929 . S
C834 H828 0.930 . S
C834 C835 1.367 . S
C834 C842 1.378 . S
C835 C834 1.367 . S
C835 C843 1.433 . S
C836 H832 0.929 . S
C836 C838 1.378 . S
C836 C840 1.350 . S
C837 C840 1.463 . S
C837 C842 1.350 . S
C837 N845 1.427 . S
C838 H829 0.930 . S
C838 C836 1.378 . S
C838 C839 1.367 . S
C839 C838 1.367 . S
C839 C841 1.433 . S
C840 C836 1.350 . S
C840 C837 1.463 . S
C840 N844 1.427 . S
C841 H831 0.929 . S
C841 C839 1.433 . S
C841 N844 1.384 . S
C842 H833 0.929 . S
C842 C834 1.378 . S
C842 C837 1.350 . S
C843 H830 0.929 . S
C843 C835 1.433 . S
C843 N845 1.384 . S
N844 C840 1.427 . S
N844 C841 1.384 . S
N845 C837 1.427 . S
N845 C843 1.384 . S
H846 C852 0.930 . S
H847 C856 0.930 . S
H848 C861 0.929 . S
H849 C859 0.929 . S
H850 C854 0.929 . S
H851 C860 0.929 . S
C852 H846 0.930 . S
C852 C853 1.367 1_455 S
C852 C860 1.378 . S
C853 C852 1.367 1_655 S
C853 C861 1.433 . S
C854 H850 0.929 . S
C854 C856 1.378 . S
C854 C858 1.350 . S
C855 C858 1.463 . S
C855 C860 1.350 . S
C855 N863 1.427 1_455 S
C856 H847 0.930 . S
C856 C854 1.378 . S
C856 C857 1.367 . S
C857 C856 1.367 . S
C857 C859 1.433 . S
C858 C854 1.350 . S
C858 C855 1.463 . S
C858 N862 1.427 . S
C859 H849 0.929 . S
C859 C857 1.433 . S
C859 N862 1.384 . S
C860 H851 0.929 . S
C860 C852 1.378 . S
C860 C855 1.350 . S
C861 H848 0.929 . S
C861 C853 1.433 . S
C861 N863 1.384 . S
N862 C858 1.427 . S
N862 C859 1.384 . S
N863 C855 1.427 1_655 S
N863 C861 1.384 . S
H864 C870 0.930 . S
H865 C874 0.930 . S
H866 C879 0.929 . S
H867 C877 0.929 . S
H868 C872 0.929 . S
H869 C878 0.929 . S
C870 H864 0.930 . S
C870 C871 1.367 1_545 S
C870 C878 1.378 . S
C871 C870 1.367 1_565 S
C871 C879 1.433 . S
C872 H868 0.929 . S
C872 C874 1.378 . S
C872 C876 1.350 . S
C873 C876 1.463 . S
C873 C878 1.350 . S
C873 N881 1.427 1_545 S
C874 H865 0.930 . S
C874 C872 1.378 . S
C874 C875 1.367 . S
C875 C874 1.367 . S
C875 C877 1.433 . S
C876 C872 1.350 . S
C876 C873 1.463 . S
C876 N880 1.427 . S
C877 H867 0.929 . S
C877 C875 1.433 . S
C877 N880 1.384 . S
C878 H869 0.929 . S
C878 C870 1.378 . S
C878 C873 1.350 . S
C879 H866 0.929 . S
C879 C871 1.433 . S
C879 N881 1.384 . S
N880 C876 1.427 . S
N880 C877 1.384 . S
N881 C873 1.427 1_565 S
N881 C879 1.384 . S
H882 C888 0.930 . S
H883 C892 0.930 . S
H884 C897 0.929 . S
H885 C895 0.929 . S
H886 C890 0.929 . S
H887 C896 0.929 . S
C888 H882 0.930 . S
C888 C889 1.367 . S
C888 C896 1.378 . S
C889 C888 1.367 . S
C889 C897 1.433 . S
C890 H886 0.929 . S
C890 C892 1.378 . S
C890 C894 1.350 . S
C891 C894 1.463 . S
C891 C896 1.350 . S
C891 N899 1.427 . S
C892 H883 0.930 . S
C892 C890 1.378 . S
C892 C893 1.367 . S
C893 C892 1.367 . S
C893 C895 1.433 . S
C894 C890 1.350 . S
C894 C891 1.463 . S
C894 N898 1.427 . S
C895 H885 0.929 . S
C895 C893 1.433 . S
C895 N898 1.384 . S
C896 H887 0.929 . S
C896 C888 1.378 . S
C896 C891 1.350 . S
C897 H884 0.929 . S
C897 C889 1.433 . S
C897 N899 1.384 . S
N898 C894 1.427 . S
N898 C895 1.384 . S
N899 C891 1.427 . S
N899 C897 1.384 . S
H900 C906 0.930 . S
H901 C910 0.930 . S
H902 C915 0.929 . S
H903 C913 0.929 . S
H904 C908 0.929 . S
H905 C914 0.929 . S
C906 H900 0.930 . S
C906 C907 1.367 . S
C906 C914 1.378 . S
C907 C906 1.367 . S
C907 C915 1.433 . S
C908 H904 0.929 . S
C908 C910 1.378 1_655 S
C908 C912 1.350 . S
C909 C912 1.463 . S
C909 C914 1.350 . S
C909 N917 1.427 . S
C910 H901 0.930 . S
C910 C908 1.378 1_455 S
C910 C911 1.367 . S
C911 C910 1.367 . S
C911 C913 1.433 . S
C912 C908 1.350 . S
C912 C909 1.463 . S
C912 N916 1.427 . S
C913 H903 0.929 . S
C913 C911 1.433 . S
C913 N916 1.384 1_455 S
C914 H905 0.929 . S
C914 C906 1.378 . S
C914 C909 1.350 . S
C915 H902 0.929 . S
C915 C907 1.433 . S
C915 N917 1.384 . S
N916 C912 1.427 . S
N916 C913 1.384 1_655 S
N917 C909 1.427 . S
N917 C915 1.384 . S
H918 C924 0.930 . S
H919 C928 0.930 . S
H920 C933 0.929 . S
H921 C931 0.929 . S
H922 C926 0.929 . S
H923 C932 0.929 . S
C924 H918 0.930 . S
C924 C925 1.367 . S
C924 C932 1.378 1_545 S
C925 C924 1.367 . S
C925 C933 1.433 . S
C926 H922 0.929 . S
C926 C928 1.378 . S
C926 C930 1.350 . S
C927 C930 1.463 . S
C927 C932 1.350 . S
C927 N935 1.427 . S
C928 H919 0.930 . S
C928 C926 1.378 . S
C928 C929 1.367 . S
C929 C928 1.367 . S
C929 C931 1.433 . S
C930 C926 1.350 . S
C930 C927 1.463 . S
C930 N934 1.427 . S
C931 H921 0.929 . S
C931 C929 1.433 . S
C931 N934 1.384 . S
C932 H923 0.929 . S
C932 C924 1.378 1_565 S
C932 C927 1.350 . S
C933 H920 0.929 . S
C933 C925 1.433 . S
C933 N935 1.384 1_545 S
N934 C930 1.427 . S
N934 C931 1.384 . S
N935 C927 1.427 . S
N935 C933 1.384 1_565 S
C403 N2 0.714 . S
C407 N266 0.699 . S
C421 N299 0.694 . S
C425 N35 0.712 . S
C439 N332 0.661 . S
C443 N68 0.672 . S
C457 N101 0.712 . S
C461 N365 0.715 . S
C475 N134 0.693 . S
C479 N200 0.671 . S
C493 N167 0.673 . S
C497 N233 0.695 . S
C511 N244 1.863 . S
C515 C21 1.845 . S
C529 C54 1.845 . S
C533 N277 1.862 . S
C547 N310 1.859 . S
C551 C87 1.840 . S
C565 N343 1.860 . S
C569 C120 1.841 . S
C583 N376 1.863 . S
C587 C153 1.845 . S
C601 N211 1.858 . S
C605 C186 1.839 . S
C619 N178 1.863 . S
C623 C219 1.847 . S
C637 C252 1.845 . S
C641 N13 1.862 . S
C655 C285 1.841 . S
C659 N46 1.860 . S
C673 N79 1.864 . S
C677 C318 1.847 . S
C691 N112 1.864 . S
C695 C351 1.847 . S
C709 N145 1.858 . S
C713 C384 1.839 . S
C727 C183 1.036 . S
C731 C7 0.978 . S
C745 C18 1.028 . S
C749 C40 0.967 . S
C763 C73 0.981 . S
C767 C51 1.036 . S
C781 C84 1.027 . S
C785 C106 0.980 . S
C799 C117 1.038 . S
C803 C139 0.996 . S
C817 C150 1.028 . S
C821 C172 0.984 . S
C835 C205 0.993 . S
C839 C249 1.032 . S
C853 C238 0.980 . S
C857 C282 1.036 . S
C871 C271 0.973 . S
C875 C315 1.033 . S
C889 C348 1.026 . S
C893 C304 0.977 . S
C907 C381 1.026 . S
C911 C337 0.972 . S
C925 C370 0.997 . S
C929 C216 1.038 . S
