# Generated by pormake.
# Topology dei, (4)-cn, num edge types: 1
# Building blocks:
#     Node 0, Type 0, BuildingBlock: CEKHIL_clean_sbu_0, # of connection points: 4
#     Node 1, Type 0, BuildingBlock: CEKHIL_clean_sbu_0, # of connection points: 4
#     Node 2, Type 0, BuildingBlock: CEKHIL_clean_sbu_0, # of connection points: 4
#     Node 3, Type 0, BuildingBlock: CEKHIL_clean_sbu_0, # of connection points: 4
#     Node 4, Type 0, BuildingBlock: CEKHIL_clean_sbu_0, # of connection points: 4
#     Node 5, Type 0, BuildingBlock: CEKHIL_clean_sbu_0, # of connection points: 4
#     Node 6, Type 0, BuildingBlock: CEKHIL_clean_sbu_0, # of connection points: 4
#     Node 7, Type 0, BuildingBlock: CEKHIL_clean_sbu_0, # of connection points: 4
#     Node 8, Type 0, BuildingBlock: CEKHIL_clean_sbu_0, # of connection points: 4
#     Node 9, Type 0, BuildingBlock: CEKHIL_clean_sbu_0, # of connection points: 4
#     Node 10, Type 0, BuildingBlock: CEKHIL_clean_sbu_0, # of connection points: 4
#     Node 11, Type 0, BuildingBlock: CEKHIL_clean_sbu_0, # of connection points: 4
#     Node 12, Type 0, BuildingBlock: CEKHIL_clean_sbu_0, # of connection points: 4
#     Node 13, Type 0, BuildingBlock: CEKHIL_clean_sbu_0, # of connection points: 4
#     Node 14, Type 0, BuildingBlock: CEKHIL_clean_sbu_0, # of connection points: 4
#     Node 15, Type 0, BuildingBlock: CEKHIL_clean_sbu_0, # of connection points: 4
#     Node 16, Type 0, BuildingBlock: CEKHIL_clean_sbu_0, # of connection points: 4
#     Node 17, Type 0, BuildingBlock: CEKHIL_clean_sbu_0, # of connection points: 4
#     Node 18, Type 0, BuildingBlock: CEKHIL_clean_sbu_0, # of connection points: 4
#     Node 19, Type 0, BuildingBlock: CEKHIL_clean_sbu_0, # of connection points: 4
#     Node 20, Type 0, BuildingBlock: CEKHIL_clean_sbu_0, # of connection points: 4
#     Node 21, Type 0, BuildingBlock: CEKHIL_clean_sbu_0, # of connection points: 4
#     Node 22, Type 0, BuildingBlock: CEKHIL_clean_sbu_0, # of connection points: 4
#     Node 23, Type 0, BuildingBlock: CEKHIL_clean_sbu_0, # of connection points: 4
#     Node 24, Type 0, BuildingBlock: CEKHIL_clean_sbu_0, # of connection points: 4
#     Node 25, Type 0, BuildingBlock: CEKHIL_clean_sbu_0, # of connection points: 4
#     Node 26, Type 0, BuildingBlock: CEKHIL_clean_sbu_0, # of connection points: 4
#     Node 27, Type 0, BuildingBlock: CEKHIL_clean_sbu_0, # of connection points: 4
#     Node 28, Type 0, BuildingBlock: CEKHIL_clean_sbu_0, # of connection points: 4
#     Node 29, Type 0, BuildingBlock: CEKHIL_clean_sbu_0, # of connection points: 4
#     Node 30, Type 0, BuildingBlock: CEKHIL_clean_sbu_0, # of connection points: 4
#     Node 31, Type 0, BuildingBlock: CEKHIL_clean_sbu_0, # of connection points: 4
#     Edge 32, Type (0, 0), BuildingBlock: UVAHIK_clean_linker_0, # of connection points: 2
#     Edge 33, Type (0, 0), BuildingBlock: UVAHIK_clean_linker_0, # of connection points: 2
#     Edge 34, Type (0, 0), BuildingBlock: UVAHIK_clean_linker_0, # of connection points: 2
#     Edge 35, Type (0, 0), BuildingBlock: UVAHIK_clean_linker_0, # of connection points: 2
#     Edge 36, Type (0, 0), BuildingBlock: UVAHIK_clean_linker_0, # of connection points: 2
#     Edge 37, Type (0, 0), BuildingBlock: UVAHIK_clean_linker_0, # of connection points: 2
#     Edge 38, Type (0, 0), BuildingBlock: UVAHIK_clean_linker_0, # of connection points: 2
#     Edge 39, Type (0, 0), BuildingBlock: UVAHIK_clean_linker_0, # of connection points: 2
#     Edge 40, Type (0, 0), BuildingBlock: UVAHIK_clean_linker_0, # of connection points: 2
#     Edge 41, Type (0, 0), BuildingBlock: UVAHIK_clean_linker_0, # of connection points: 2
#     Edge 42, Type (0, 0), BuildingBlock: UVAHIK_clean_linker_0, # of connection points: 2
#     Edge 43, Type (0, 0), BuildingBlock: UVAHIK_clean_linker_0, # of connection points: 2
#     Edge 44, Type (0, 0), BuildingBlock: UVAHIK_clean_linker_0, # of connection points: 2
#     Edge 45, Type (0, 0), BuildingBlock: UVAHIK_clean_linker_0, # of connection points: 2
#     Edge 46, Type (0, 0), BuildingBlock: UVAHIK_clean_linker_0, # of connection points: 2
#     Edge 47, Type (0, 0), BuildingBlock: UVAHIK_clean_linker_0, # of connection points: 2
#     Edge 48, Type (0, 0), BuildingBlock: UVAHIK_clean_linker_0, # of connection points: 2
#     Edge 49, Type (0, 0), BuildingBlock: UVAHIK_clean_linker_0, # of connection points: 2
#     Edge 50, Type (0, 0), BuildingBlock: UVAHIK_clean_linker_0, # of connection points: 2
#     Edge 51, Type (0, 0), BuildingBlock: UVAHIK_clean_linker_0, # of connection points: 2
#     Edge 52, Type (0, 0), BuildingBlock: UVAHIK_clean_linker_0, # of connection points: 2
#     Edge 53, Type (0, 0), BuildingBlock: UVAHIK_clean_linker_0, # of connection points: 2
#     Edge 54, Type (0, 0), BuildingBlock: UVAHIK_clean_linker_0, # of connection points: 2
#     Edge 55, Type (0, 0), BuildingBlock: UVAHIK_clean_linker_0, # of connection points: 2
#     Edge 56, Type (0, 0), BuildingBlock: UVAHIK_clean_linker_0, # of connection points: 2
#     Edge 57, Type (0, 0), BuildingBlock: UVAHIK_clean_linker_0, # of connection points: 2
#     Edge 58, Type (0, 0), BuildingBlock: UVAHIK_clean_linker_0, # of connection points: 2
#     Edge 59, Type (0, 0), BuildingBlock: UVAHIK_clean_linker_0, # of connection points: 2
#     Edge 60, Type (0, 0), BuildingBlock: UVAHIK_clean_linker_0, # of connection points: 2
#     Edge 61, Type (0, 0), BuildingBlock: UVAHIK_clean_linker_0, # of connection points: 2
#     Edge 62, Type (0, 0), BuildingBlock: UVAHIK_clean_linker_0, # of connection points: 2
#     Edge 63, Type (0, 0), BuildingBlock: UVAHIK_clean_linker_0, # of connection points: 2
#     Edge 64, Type (0, 0), BuildingBlock: UVAHIK_clean_linker_0, # of connection points: 2
#     Edge 65, Type (0, 0), BuildingBlock: UVAHIK_clean_linker_0, # of connection points: 2
#     Edge 66, Type (0, 0), BuildingBlock: UVAHIK_clean_linker_0, # of connection points: 2
#     Edge 67, Type (0, 0), BuildingBlock: UVAHIK_clean_linker_0, # of connection points: 2
#     Edge 68, Type (0, 0), BuildingBlock: UVAHIK_clean_linker_0, # of connection points: 2
#     Edge 69, Type (0, 0), BuildingBlock: UVAHIK_clean_linker_0, # of connection points: 2
#     Edge 70, Type (0, 0), BuildingBlock: UVAHIK_clean_linker_0, # of connection points: 2
#     Edge 71, Type (0, 0), BuildingBlock: UVAHIK_clean_linker_0, # of connection points: 2
#     Edge 72, Type (0, 0), BuildingBlock: UVAHIK_clean_linker_0, # of connection points: 2
#     Edge 73, Type (0, 0), BuildingBlock: UVAHIK_clean_linker_0, # of connection points: 2
#     Edge 74, Type (0, 0), BuildingBlock: UVAHIK_clean_linker_0, # of connection points: 2
#     Edge 75, Type (0, 0), BuildingBlock: UVAHIK_clean_linker_0, # of connection points: 2
#     Edge 76, Type (0, 0), BuildingBlock: UVAHIK_clean_linker_0, # of connection points: 2
#     Edge 77, Type (0, 0), BuildingBlock: UVAHIK_clean_linker_0, # of connection points: 2
#     Edge 78, Type (0, 0), BuildingBlock: UVAHIK_clean_linker_0, # of connection points: 2
#     Edge 79, Type (0, 0), BuildingBlock: UVAHIK_clean_linker_0, # of connection points: 2
#     Edge 80, Type (0, 0), BuildingBlock: UVAHIK_clean_linker_0, # of connection points: 2
#     Edge 81, Type (0, 0), BuildingBlock: UVAHIK_clean_linker_0, # of connection points: 2
#     Edge 82, Type (0, 0), BuildingBlock: UVAHIK_clean_linker_0, # of connection points: 2
#     Edge 83, Type (0, 0), BuildingBlock: UVAHIK_clean_linker_0, # of connection points: 2
#     Edge 84, Type (0, 0), BuildingBlock: UVAHIK_clean_linker_0, # of connection points: 2
#     Edge 85, Type (0, 0), BuildingBlock: UVAHIK_clean_linker_0, # of connection points: 2
#     Edge 86, Type (0, 0), BuildingBlock: UVAHIK_clean_linker_0, # of connection points: 2
#     Edge 87, Type (0, 0), BuildingBlock: UVAHIK_clean_linker_0, # of connection points: 2
#     Edge 88, Type (0, 0), BuildingBlock: UVAHIK_clean_linker_0, # of connection points: 2
#     Edge 89, Type (0, 0), BuildingBlock: UVAHIK_clean_linker_0, # of connection points: 2
#     Edge 90, Type (0, 0), BuildingBlock: UVAHIK_clean_linker_0, # of connection points: 2
#     Edge 91, Type (0, 0), BuildingBlock: UVAHIK_clean_linker_0, # of connection points: 2
#     Edge 92, Type (0, 0), BuildingBlock: UVAHIK_clean_linker_0, # of connection points: 2
#     Edge 93, Type (0, 0), BuildingBlock: UVAHIK_clean_linker_0, # of connection points: 2
#     Edge 94, Type (0, 0), BuildingBlock: UVAHIK_clean_linker_0, # of connection points: 2
#     Edge 95, Type (0, 0), BuildingBlock: UVAHIK_clean_linker_0, # of connection points: 2
# Relax obj value: 0.248
# Max RMSD: 0.066
# Mean RMSD: 0.066
data_MOF--net-dei--node1-CEKHIL_clean_sbu_0--edge1-UVAHIK_clean_linker_0
_symmetry_space_group_name_H-M    P1
_symmetry_Int_Tables_number       1
_symmetry_cell_setting            triclinic
loop_
_symmetry_equiv_pos_as_xyz
'x, y, z'
_cell_length_a     74.696987
_cell_length_b     74.669907
_cell_length_c     96.511601
_cell_angle_alpha  90.00074
_cell_angle_beta   90.001931
_cell_angle_gamma 89.999979
loop_
_atom_site_label
_atom_site_type_symbol
_atom_site_fract_x
_atom_site_fract_y
_atom_site_fract_z
_atom_type_partial_charge
Co0 Co 0.12529 0.62152 0.02578 0.0
O1 O 0.11885 0.59663 0.02634 0.0
O2 O 0.13658 0.60867 0.01051 0.0
C3 C 0.1318 0.62329 0.04856 0.0
O4 O 0.13501 0.64701 0.02235 0.0
Co5 Co 0.10369 0.64925 0.04312 0.0
O6 O 0.12491 0.66441 0.03973 0.0
C7 C 0.08848 0.63467 0.0171 0.0
C8 C 0.1287 0.59447 0.01544 0.0
C9 C 0.13508 0.66178 0.02934 0.0
O10 O 0.10322 0.62649 0.01432 0.0
O11 O 0.08583 0.64357 0.02826 0.0
O12 O 0.14372 0.61743 0.03987 0.0
O13 O 0.11626 0.6267 0.04339 0.0
Co14 Co 0.6316 0.87335 0.27555 0.0
O15 O 0.65638 0.86706 0.27744 0.0
O16 O 0.64578 0.88493 0.26114 0.0
C17 C 0.62825 0.87907 0.29836 0.0
O18 O 0.60656 0.88333 0.27098 0.0
Co19 Co 0.60228 0.85173 0.291 0.0
O20 O 0.58797 0.87355 0.2877 0.0
C21 C 0.61852 0.83717 0.26533 0.0
C22 C 0.65958 0.87733 0.26693 0.0
C23 C 0.59145 0.8838 0.27751 0.0
O24 O 0.62753 0.85167 0.26346 0.0
O25 O 0.60847 0.83442 0.27587 0.0
O26 O 0.63455 0.89131 0.29014 0.0
O27 O 0.62502 0.86375 0.29272 0.0
Co28 Co 0.38003 0.38213 0.52832 0.0
O29 O 0.38533 0.40715 0.53027 0.0
O30 O 0.36906 0.39569 0.51331 0.0
C31 C 0.37283 0.3785 0.55083 0.0
O32 O 0.37117 0.35673 0.52352 0.0
Co33 Co 0.40169 0.35364 0.54476 0.0
O34 O 0.38062 0.33857 0.54064 0.0
C35 C 0.4173 0.37018 0.5196 0.0
C36 C 0.37579 0.40983 0.51927 0.0
C37 C 0.37083 0.34166 0.53011 0.0
O38 O 0.40264 0.37867 0.51713 0.0
O39 O 0.41974 0.3603 0.53029 0.0
O40 O 0.361 0.38456 0.54215 0.0
O41 O 0.38863 0.37588 0.54584 0.0
Co42 Co 0.87336 0.12922 0.77678 0.0
O43 O 0.84842 0.1346 0.77891 0.0
O44 O 0.85948 0.11758 0.76221 0.0
C45 C 0.87708 0.12307 0.79949 0.0
O46 O 0.89869 0.12017 0.77199 0.0
Co47 Co 0.90203 0.15149 0.79242 0.0
O48 O 0.91697 0.13017 0.78883 0.0
C49 C 0.88513 0.16609 0.76703 0.0
C50 C 0.8455 0.12454 0.76823 0.0
C51 C 0.91379 0.12002 0.77853 0.0
O52 O 0.87661 0.15134 0.765 0.0
O53 O 0.89518 0.16894 0.77756 0.0
O54 O 0.87112 0.11082 0.79112 0.0
O55 O 0.87975 0.13861 0.79405 0.0
Co56 Co 0.12634 0.38043 0.97055 0.0
O57 O 0.11871 0.4049 0.96916 0.0
O58 O 0.13755 0.39484 0.98503 0.0
C59 C 0.13207 0.37765 0.94769 0.0
O60 O 0.13733 0.35565 0.97474 0.0
Co61 Co 0.10565 0.35061 0.95474 0.0
O62 O 0.12786 0.33691 0.95799 0.0
C63 C 0.09079 0.36573 0.98069 0.0
C64 C 0.12885 0.40831 0.9797 0.0
C65 C 0.13806 0.34057 0.96817 0.0
O66 O 0.10495 0.37519 0.98269 0.0
O67 O 0.08826 0.35585 0.97003 0.0
O68 O 0.14403 0.38445 0.95593 0.0
O69 O 0.11691 0.37377 0.95335 0.0
Co70 Co 0.87324 0.87517 0.22052 0.0
O71 O 0.84836 0.86963 0.21809 0.0
O72 O 0.85905 0.88635 0.23512 0.0
C73 C 0.87735 0.88186 0.19795 0.0
O74 O 0.89836 0.88441 0.2257 0.0
Co75 Co 0.90245 0.85352 0.20486 0.0
O76 O 0.91745 0.87449 0.20933 0.0
C77 C 0.88514 0.83814 0.2298 0.0
C78 C 0.84521 0.87943 0.22887 0.0
C79 C 0.91374 0.88457 0.21956 0.0
O80 O 0.87652 0.85279 0.23204 0.0
O81 O 0.89531 0.83563 0.2193 0.0
O82 O 0.87106 0.89386 0.20639 0.0
O83 O 0.88007 0.86624 0.20323 0.0
Co84 Co 0.37722 0.62237 0.46874 0.0
O85 O 0.38267 0.59753 0.46595 0.0
O86 O 0.36672 0.60794 0.48349 0.0
C87 C 0.36943 0.62706 0.44645 0.0
O88 O 0.3683 0.64743 0.47439 0.0
Co89 Co 0.39854 0.65164 0.45283 0.0
O90 O 0.37799 0.6668 0.45812 0.0
C91 C 0.4146 0.63412 0.47739 0.0
C92 C 0.37343 0.5942 0.47699 0.0
C93 C 0.3682 0.66296 0.46849 0.0
O94 O 0.40001 0.62547 0.47976 0.0
O95 O 0.41687 0.64441 0.46692 0.0
O96 O 0.35788 0.62048 0.45514 0.0
O97 O 0.38535 0.62952 0.45127 0.0
Co98 Co 0.63253 0.13139 0.72016 0.0
O99 O 0.65742 0.13714 0.718 0.0
O100 O 0.64659 0.11998 0.73468 0.0
C101 C 0.62868 0.12509 0.69748 0.0
O102 O 0.60742 0.12192 0.72509 0.0
Co103 Co 0.60335 0.15315 0.70462 0.0
O104 O 0.58832 0.1321 0.70884 0.0
C105 C 0.62044 0.16821 0.72977 0.0
C106 C 0.66049 0.12714 0.72869 0.0
C107 C 0.59205 0.12184 0.71895 0.0
O108 O 0.62904 0.15352 0.7319 0.0
O109 O 0.61035 0.17087 0.71924 0.0
O110 O 0.63494 0.11298 0.70585 0.0
O111 O 0.62584 0.14062 0.7029 0.0
Co112 Co 0.87858 0.38161 0.96982 0.0
O113 O 0.88462 0.40645 0.96776 0.0
O114 O 0.86739 0.39577 0.98444 0.0
C115 C 0.8721 0.37796 0.94717 0.0
O116 O 0.86896 0.35646 0.9746 0.0
Co117 Co 0.90002 0.35239 0.95394 0.0
O118 O 0.8784 0.33796 0.95769 0.0
C119 C 0.91494 0.36841 0.97955 0.0
C120 C 0.8747 0.40962 0.97847 0.0
C121 C 0.86845 0.34134 0.96807 0.0
O122 O 0.90065 0.37768 0.98154 0.0
O123 O 0.91747 0.35825 0.96904 0.0
O124 O 0.86012 0.38435 0.95558 0.0
O125 O 0.88764 0.37496 0.9525 0.0
Co126 Co 0.37207 0.12782 0.7201 0.0
O127 O 0.34722 0.13341 0.71764 0.0
O128 O 0.35776 0.11632 0.73449 0.0
C129 C 0.37629 0.12162 0.69745 0.0
O130 O 0.39719 0.11855 0.72525 0.0
Co131 Co 0.40123 0.14996 0.70487 0.0
O132 O 0.41633 0.12897 0.70912 0.0
C133 C 0.3838 0.16463 0.73 0.0
C134 C 0.34398 0.12342 0.72829 0.0
C135 C 0.41262 0.11865 0.7192 0.0
O136 O 0.37522 0.14989 0.73194 0.0
O137 O 0.39403 0.16747 0.71958 0.0
O138 O 0.37001 0.10943 0.70573 0.0
O139 O 0.37894 0.13715 0.70293 0.0
Co140 Co 0.62235 0.62083 0.47068 0.0
O141 O 0.61576 0.59609 0.4696 0.0
O142 O 0.63417 0.60725 0.48533 0.0
C143 C 0.62773 0.62309 0.44775 0.0
O144 O 0.63244 0.64602 0.47452 0.0
Co145 Co 0.6006 0.64945 0.45455 0.0
O146 O 0.62206 0.66432 0.4578 0.0
C147 C 0.58611 0.63398 0.48055 0.0
C148 C 0.62602 0.59332 0.48018 0.0
C149 C 0.63255 0.66103 0.46787 0.0
O150 O 0.6008 0.62544 0.48279 0.0
O151 O 0.58324 0.64341 0.46968 0.0
O152 O 0.64013 0.6173 0.45605 0.0
O153 O 0.6125 0.62656 0.45344 0.0
Co154 Co 0.13333 0.87565 0.2191 0.0
O155 O 0.15809 0.86945 0.21684 0.0
O156 O 0.14755 0.88585 0.23408 0.0
C157 C 0.12969 0.88343 0.1967 0.0
O158 O 0.10835 0.8853 0.22423 0.0
Co159 Co 0.1039 0.85532 0.20258 0.0
O160 O 0.08942 0.87658 0.20735 0.0
C161 C 0.12003 0.83872 0.22754 0.0
C162 C 0.16132 0.87873 0.22789 0.0
C163 C 0.09312 0.88609 0.2179 0.0
O164 O 0.12915 0.85299 0.23008 0.0
O165 O 0.11001 0.83684 0.21687 0.0
O166 O 0.13628 0.89485 0.20548 0.0
O167 O 0.12655 0.86763 0.20152 0.0
Co168 Co 0.87923 0.62282 0.02678 0.0
O169 O 0.88465 0.59785 0.02876 0.0
O170 O 0.86794 0.60905 0.01195 0.0
C171 C 0.87257 0.62615 0.04945 0.0
O172 O 0.87022 0.64826 0.02212 0.0
Co173 Co 0.90104 0.6513 0.04309 0.0
O174 O 0.87981 0.66627 0.03929 0.0
C175 C 0.91626 0.63493 0.01769 0.0
C176 C 0.87478 0.59501 0.01797 0.0
C177 C 0.86993 0.66327 0.02881 0.0
O178 O 0.90161 0.62636 0.01533 0.0
O179 O 0.9188 0.64476 0.02838 0.0
O180 O 0.86052 0.62029 0.04087 0.0
O181 O 0.8882 0.62896 0.04421 0.0
Co182 Co 0.1311 0.13202 0.77651 0.0
O183 O 0.15602 0.13782 0.7783 0.0
O184 O 0.14489 0.12036 0.76192 0.0
C185 C 0.12777 0.1261 0.79929 0.0
O186 O 0.10587 0.1225 0.772 0.0
Co187 Co 0.10225 0.15396 0.79223 0.0
O188 O 0.08755 0.13241 0.78885 0.0
C189 C 0.11852 0.16853 0.76657 0.0
C190 C 0.1589 0.12762 0.76769 0.0
C191 C 0.09081 0.12219 0.7786 0.0
O192 O 0.1273 0.15392 0.76458 0.0
O193 O 0.10858 0.17132 0.77717 0.0
O194 O 0.13385 0.11385 0.79097 0.0
O195 O 0.1248 0.14153 0.79376 0.0
Co196 Co 0.62667 0.37909 0.52629 0.0
O197 O 0.62029 0.40361 0.52919 0.0
O198 O 0.63759 0.39427 0.51209 0.0
C199 C 0.63341 0.37465 0.54881 0.0
O200 O 0.63651 0.35432 0.52073 0.0
Co201 Co 0.60561 0.34908 0.54142 0.0
O202 O 0.62734 0.33506 0.53722 0.0
C203 C 0.58987 0.36684 0.51681 0.0
C204 C 0.6301 0.40762 0.51861 0.0
C205 C 0.63723 0.33897 0.52692 0.0
O206 O 0.60443 0.37564 0.51467 0.0
O207 O 0.58752 0.35636 0.52716 0.0
O208 O 0.64526 0.38136 0.54045 0.0
O209 O 0.61787 0.37165 0.54348 0.0
Co210 Co 0.37469 0.87311 0.27605 0.0
O211 O 0.34989 0.86714 0.2782 0.0
O212 O 0.36049 0.88441 0.26149 0.0
C213 C 0.3783 0.87942 0.29875 0.0
O214 O 0.39979 0.88274 0.27121 0.0
Co215 Co 0.4039 0.85157 0.2917 0.0
O216 O 0.41835 0.87321 0.28803 0.0
C217 C 0.38737 0.83652 0.26631 0.0
C218 C 0.34669 0.87715 0.26755 0.0
C219 C 0.41491 0.88326 0.27772 0.0
O220 O 0.37847 0.85105 0.26428 0.0
O221 O 0.39746 0.83394 0.27686 0.0
O222 O 0.37205 0.89149 0.29035 0.0
O223 O 0.38132 0.86392 0.29333 0.0
Co224 Co 0.62631 0.12216 0.52714 0.0
O225 O 0.62078 0.09721 0.52931 0.0
O226 O 0.63734 0.10825 0.51235 0.0
C227 C 0.63325 0.12607 0.54967 0.0
O228 O 0.63542 0.14738 0.52211 0.0
Co229 Co 0.6048 0.15118 0.54312 0.0
O230 O 0.62608 0.16596 0.53899 0.0
C231 C 0.58939 0.13445 0.51799 0.0
C232 C 0.63041 0.09427 0.5184 0.0
C233 C 0.63588 0.16257 0.52853 0.0
O234 O 0.60388 0.1256 0.51576 0.0
O235 O 0.58692 0.14462 0.52849 0.0
O236 O 0.64515 0.1198 0.54112 0.0
O237 O 0.61755 0.12878 0.54454 0.0
Co238 Co 0.13099 0.37513 0.77674 0.0
O239 O 0.15561 0.36831 0.77871 0.0
O240 O 0.14556 0.38664 0.76252 0.0
C241 C 0.12735 0.38075 0.79955 0.0
O242 O 0.1062 0.38558 0.77202 0.0
Co243 Co 0.10117 0.3537 0.79185 0.0
O244 O 0.0868 0.37533 0.78802 0.0
C245 C 0.11776 0.3391 0.76633 0.0
C246 C 0.15914 0.37857 0.76825 0.0
C247 C 0.09081 0.38582 0.77812 0.0
O248 O 0.12674 0.35362 0.76449 0.0
O249 O 0.10766 0.33632 0.77683 0.0
O250 O 0.13404 0.39291 0.79144 0.0
O251 O 0.124 0.36551 0.7938 0.0
Co252 Co 0.87836 0.8824 0.02753 0.0
O253 O 0.88352 0.90744 0.02952 0.0
O254 O 0.86672 0.89607 0.01285 0.0
C255 C 0.87201 0.87863 0.05019 0.0
O256 O 0.86962 0.8569 0.02282 0.0
Co257 Co 0.90092 0.85408 0.04342 0.0
O258 O 0.87989 0.83879 0.03969 0.0
C259 C 0.91531 0.87076 0.01792 0.0
C260 C 0.87356 0.91019 0.01876 0.0
C261 C 0.86973 0.84179 0.02936 0.0
O262 O 0.90057 0.87925 0.01584 0.0
O263 O 0.91829 0.86081 0.02848 0.0
O264 O 0.85981 0.88455 0.04175 0.0
O265 O 0.88765 0.87617 0.04486 0.0
Co266 Co 0.37155 0.63022 0.27559 0.0
O267 O 0.34687 0.63739 0.27574 0.0
O268 O 0.3585 0.61809 0.26084 0.0
C269 C 0.37279 0.62557 0.29868 0.0
O270 O 0.3967 0.6195 0.27267 0.0
Co271 Co 0.39994 0.65203 0.29202 0.0
O272 O 0.41454 0.63021 0.28956 0.0
C273 C 0.38586 0.66585 0.26535 0.0
C274 C 0.3445 0.62672 0.26533 0.0
C275 C 0.41148 0.61943 0.27963 0.0
O276 O 0.37721 0.65121 0.26316 0.0
O277 O 0.39482 0.66897 0.2764 0.0
O278 O 0.36684 0.6131 0.2905 0.0
O279 O 0.37684 0.64052 0.29278 0.0
Co280 Co 0.62529 0.88167 0.46849 0.0
O281 O 0.6201 0.9066 0.4659 0.0
O282 O 0.6363 0.89582 0.48318 0.0
C283 C 0.63254 0.87712 0.44609 0.0
O284 O 0.63405 0.85644 0.47385 0.0
Co285 Co 0.6033 0.8528 0.45268 0.0
O286 O 0.62401 0.83753 0.45739 0.0
C287 C 0.58788 0.87043 0.47744 0.0
C288 C 0.62964 0.90971 0.47682 0.0
C289 C 0.63402 0.84107 0.4677 0.0
O290 O 0.60266 0.87879 0.47974 0.0
O291 O 0.5853 0.86025 0.46695 0.0
O292 O 0.64436 0.88345 0.45466 0.0
O293 O 0.6167 0.8748 0.4511 0.0
Co294 Co 0.37252 0.37238 0.72116 0.0
O295 O 0.34763 0.36703 0.7187 0.0
O296 O 0.35828 0.38397 0.73555 0.0
C297 C 0.37699 0.37888 0.69855 0.0
O298 O 0.39779 0.38111 0.72649 0.0
Co299 Co 0.40094 0.34941 0.70556 0.0
O300 O 0.41788 0.36752 0.71252 0.0
C301 C 0.38319 0.33505 0.73064 0.0
C302 C 0.34442 0.37688 0.72944 0.0
C303 C 0.41391 0.37872 0.72197 0.0
O304 O 0.3753 0.3501 0.73286 0.0
O305 O 0.39296 0.33192 0.72001 0.0
O306 O 0.37083 0.39101 0.70693 0.0
O307 O 0.37925 0.36322 0.70389 0.0
Co308 Co 0.8761 0.123 0.96958 0.0
O309 O 0.88138 0.09804 0.96725 0.0
O310 O 0.86489 0.10898 0.98429 0.0
C311 C 0.86923 0.12705 0.94704 0.0
O312 O 0.86728 0.14836 0.97462 0.0
Co313 Co 0.8981 0.15171 0.95361 0.0
O314 O 0.87695 0.16669 0.95768 0.0
C315 C 0.91316 0.13482 0.97881 0.0
C316 C 0.87165 0.09503 0.97808 0.0
C317 C 0.86706 0.16352 0.96813 0.0
O318 O 0.89855 0.12614 0.981 0.0
O319 O 0.9158 0.14496 0.9683 0.0
O320 O 0.85726 0.12091 0.95557 0.0
O321 O 0.88496 0.12956 0.95219 0.0
Co322 Co 0.1313 0.6303 0.21947 0.0
O323 O 0.15589 0.6376 0.21861 0.0
O324 O 0.14497 0.61902 0.23434 0.0
C325 C 0.12944 0.62445 0.19656 0.0
O326 O 0.10626 0.61968 0.22314 0.0
Co327 Co 0.10247 0.65128 0.20287 0.0
O328 O 0.08811 0.62948 0.20612 0.0
C329 C 0.11722 0.66642 0.22888 0.0
C330 C 0.15874 0.62751 0.22928 0.0
C331 C 0.09133 0.61924 0.21637 0.0
O332 O 0.12591 0.65188 0.23135 0.0
O333 O 0.10798 0.66901 0.21787 0.0
O334 O 0.13567 0.61243 0.20501 0.0
O335 O 0.1255 0.63968 0.20207 0.0
Co336 Co 0.3788 0.883 0.46894 0.0
O337 O 0.38417 0.90795 0.46651 0.0
O338 O 0.36762 0.89709 0.48355 0.0
C339 C 0.37189 0.87859 0.44645 0.0
O340 O 0.3698 0.85785 0.47424 0.0
Co341 Co 0.4006 0.85387 0.45328 0.0
O342 O 0.37999 0.83855 0.45812 0.0
C343 C 0.41596 0.87141 0.47813 0.0
C344 C 0.37446 0.91102 0.47737 0.0
C345 C 0.36989 0.84233 0.46832 0.0
O346 O 0.40125 0.87992 0.48037 0.0
O347 O 0.41852 0.86122 0.46764 0.0
O348 O 0.35996 0.88496 0.45492 0.0
O349 O 0.38762 0.8761 0.45162 0.0
Co350 Co 0.87255 0.628 0.21917 0.0
O351 O 0.8475 0.63291 0.21713 0.0
O352 O 0.85908 0.61713 0.23433 0.0
C353 C 0.87609 0.62037 0.19674 0.0
O354 O 0.89814 0.6196 0.22393 0.0
Co355 Co 0.90045 0.64989 0.20232 0.0
O356 O 0.9158 0.62904 0.20649 0.0
C357 C 0.88397 0.66564 0.22743 0.0
C358 C 0.8449 0.62349 0.22819 0.0
C359 C 0.91306 0.61936 0.21714 0.0
O360 O 0.87573 0.65089 0.23008 0.0
O361 O 0.8937 0.66807 0.21667 0.0
O362 O 0.8703 0.60863 0.20561 0.0
O363 O 0.87851 0.63631 0.20151 0.0
Co364 Co 0.1264 0.12292 0.96981 0.0
O365 O 0.12065 0.09802 0.96759 0.0
O366 O 0.13775 0.10873 0.98434 0.0
C367 C 0.13286 0.12692 0.9472 0.0
O368 O 0.13577 0.14813 0.97475 0.0
Co369 Co 0.10458 0.15206 0.95417 0.0
O370 O 0.12606 0.16668 0.95797 0.0
C371 C 0.0897 0.13527 0.97947 0.0
C372 C 0.1306 0.09486 0.97829 0.0
C373 C 0.13612 0.16329 0.96828 0.0
O374 O 0.10423 0.12639 0.98151 0.0
O375 O 0.08703 0.14547 0.96901 0.0
O376 O 0.1449 0.12056 0.95557 0.0
O377 O 0.11728 0.12966 0.95254 0.0
Co378 Co 0.63191 0.37684 0.71886 0.0
O379 O 0.65712 0.37247 0.71751 0.0
O380 O 0.64451 0.38881 0.73397 0.0
C381 C 0.62892 0.3832 0.69616 0.0
O382 O 0.60596 0.38485 0.72277 0.0
Co383 Co 0.60531 0.35318 0.70211 0.0
O384 O 0.58919 0.37369 0.70542 0.0
C385 C 0.62123 0.33931 0.72806 0.0
C386 C 0.65905 0.38247 0.72834 0.0
C387 C 0.59124 0.38416 0.71572 0.0
O388 O 0.62891 0.35444 0.73043 0.0
O389 O 0.61205 0.33601 0.71715 0.0
O390 O 0.63415 0.39554 0.70474 0.0
O391 O 0.6268 0.36745 0.70139 0.0
Co392 Co 0.37564 0.1232 0.52736 0.0
O393 O 0.38045 0.09813 0.52948 0.0
O394 O 0.3642 0.10965 0.51251 0.0
C395 C 0.36885 0.12708 0.54993 0.0
O396 O 0.36728 0.14876 0.52253 0.0
Co397 Co 0.39819 0.15127 0.54355 0.0
O398 O 0.37734 0.16671 0.53958 0.0
C399 C 0.41294 0.13436 0.51827 0.0
C400 C 0.37072 0.0955 0.51858 0.0
C401 C 0.36736 0.16383 0.52912 0.0
O402 O 0.39813 0.12609 0.51596 0.0
O403 O 0.4158 0.14425 0.52887 0.0
O404 O 0.35676 0.12127 0.54136 0.0
O405 O 0.38461 0.12936 0.54479 0.0
Co406 Co 0.63226 0.63097 0.27694 0.0
O407 O 0.65715 0.63685 0.27856 0.0
O408 O 0.64604 0.61903 0.26244 0.0
C409 C 0.62927 0.62545 0.29981 0.0
O410 O 0.60697 0.62136 0.27271 0.0
Co411 Co 0.60372 0.65325 0.29266 0.0
O412 O 0.58875 0.63186 0.28943 0.0
C413 C 0.61957 0.66728 0.26667 0.0
C414 C 0.66005 0.62647 0.26808 0.0
C415 C 0.59196 0.62134 0.27936 0.0
O416 O 0.62835 0.65265 0.26479 0.0
O417 O 0.6098 0.67029 0.27733 0.0
O418 O 0.63502 0.61301 0.29152 0.0
O419 O 0.62628 0.64081 0.29415 0.0
Co420 Co 0.1274 0.88204 0.02631 0.0
O421 O 0.12273 0.90719 0.02807 0.0
O422 O 0.13971 0.89533 0.01169 0.0
C423 C 0.133 0.87862 0.04914 0.0
O424 O 0.13575 0.85628 0.02199 0.0
Co425 Co 0.10383 0.8545 0.04213 0.0
O426 O 0.12463 0.83872 0.0389 0.0
C427 C 0.09038 0.87128 0.01637 0.0
C428 C 0.13304 0.90962 0.01748 0.0
C429 C 0.13516 0.8413 0.02872 0.0
O430 O 0.10544 0.87919 0.0143 0.0
O431 O 0.0869 0.86168 0.02702 0.0
O432 O 0.14558 0.88404 0.04084 0.0
O433 O 0.1175 0.87633 0.04353 0.0
Co434 Co 0.87174 0.37346 0.77646 0.0
O435 O 0.84695 0.36732 0.77863 0.0
O436 O 0.85741 0.38503 0.76216 0.0
C437 C 0.87567 0.37935 0.79918 0.0
O438 O 0.89669 0.38337 0.77156 0.0
Co439 Co 0.90128 0.35172 0.79162 0.0
O440 O 0.91602 0.37304 0.7876 0.0
C441 C 0.88426 0.33703 0.76631 0.0
C442 C 0.84365 0.37755 0.7681 0.0
C443 C 0.9121 0.38348 0.77764 0.0
O444 O 0.87545 0.35165 0.76441 0.0
O445 O 0.89444 0.33426 0.77677 0.0
O446 O 0.86919 0.39154 0.79099 0.0
O447 O 0.87867 0.36396 0.79358 0.0
C448 C 0.11994 0.63433 0.17308 0.0
C449 C 0.12923 0.62205 0.1814 0.0
C450 C 0.12163 0.63382 0.1587 0.0
C451 C 0.13699 0.60602 0.12916 0.0
H452 H 0.13897 0.65226 0.11088 0.0
C453 C 0.1486 0.61453 0.06997 0.0
C454 C 0.13511 0.6247 0.06357 0.0
C455 C 0.15013 0.61428 0.08443 0.0
C456 C 0.13848 0.63926 0.11586 0.0
H457 H 0.14706 0.59915 0.18124 0.0
H458 H 0.15031 0.59842 0.15603 0.0
H459 H 0.13664 0.65086 0.13602 0.0
H460 H 0.11321 0.64318 0.06714 0.0
H461 H 0.11619 0.64312 0.09227 0.0
H462 H 0.13891 0.59453 0.10884 0.0
C463 C 0.14153 0.60833 0.16061 0.0
C464 C 0.13699 0.63843 0.13024 0.0
C465 C 0.13967 0.60873 0.17505 0.0
C466 C 0.12371 0.63521 0.07179 0.0
C467 C 0.12546 0.63522 0.08617 0.0
C468 C 0.13866 0.60687 0.11473 0.0
C469 C 0.13285 0.62116 0.1523 0.0
C470 C 0.13577 0.62181 0.13706 0.0
C471 C 0.13845 0.62451 0.09265 0.0
C472 C 0.13902 0.62352 0.10795 0.0
H473 H 0.11166 0.64463 0.17769 0.0
H474 H 0.11432 0.64355 0.15261 0.0
H475 H 0.13601 0.59301 0.13406 0.0
H476 H 0.15749 0.60623 0.06385 0.0
H477 H 0.16031 0.60598 0.0892 0.0
C478 C 0.62438 0.86456 0.42309 0.0
C479 C 0.63598 0.87503 0.43116 0.0
C480 C 0.62581 0.86455 0.40869 0.0
C481 C 0.63839 0.89363 0.38039 0.0
H482 H 0.63455 0.85056 0.35817 0.0
C483 C 0.63832 0.89413 0.32016 0.0
C484 C 0.6277 0.8812 0.31353 0.0
C485 C 0.64018 0.89399 0.33459 0.0
C486 C 0.63538 0.86275 0.36422 0.0
H487 H 0.6586 0.8932 0.43062 0.0
H488 H 0.66092 0.89341 0.40526 0.0
H489 H 0.6377 0.84812 0.38321 0.0
H490 H 0.60972 0.85881 0.31674 0.0
H491 H 0.61233 0.85899 0.34185 0.0
H492 H 0.63542 0.90831 0.36148 0.0
C493 C 0.65078 0.88518 0.41015 0.0
C494 C 0.63735 0.86131 0.37854 0.0
C495 C 0.64954 0.88494 0.42461 0.0
C496 C 0.61814 0.86883 0.32158 0.0
C497 C 0.61981 0.86882 0.33597 0.0
C498 C 0.63623 0.89509 0.36604 0.0
C499 C 0.63871 0.87521 0.40207 0.0
C500 C 0.63863 0.87672 0.38678 0.0
C501 C 0.6313 0.88101 0.34263 0.0
C502 C 0.6344 0.87965 0.35781 0.0
H503 H 0.61382 0.85678 0.42789 0.0
H504 H 0.61627 0.85683 0.4027 0.0
H505 H 0.63915 0.90573 0.38655 0.0
H506 H 0.64593 0.90376 0.31417 0.0
H507 H 0.64918 0.90354 0.33936 0.0
C508 C 0.36771 0.39488 0.67694 0.0
C509 C 0.37787 0.38146 0.68343 0.0
C510 C 0.36589 0.39509 0.66251 0.0
C511 C 0.36952 0.36409 0.63265 0.0
H512 H 0.36713 0.40739 0.61056 0.0
C513 C 0.38071 0.36593 0.57387 0.0
C514 C 0.36938 0.37666 0.56578 0.0
C515 C 0.37927 0.36598 0.58826 0.0
C516 C 0.3675 0.39521 0.61665 0.0
H517 H 0.39516 0.3586 0.67998 0.0
H518 H 0.39263 0.35937 0.65486 0.0
H519 H 0.371 0.4096 0.63565 0.0
H520 H 0.34728 0.39547 0.56628 0.0
H521 H 0.34497 0.3958 0.59166 0.0
H522 H 0.36666 0.34973 0.61358 0.0
C523 C 0.38547 0.36932 0.66086 0.0
C524 C 0.36975 0.39646 0.63101 0.0
C525 C 0.3871 0.36899 0.67524 0.0
C526 C 0.35611 0.38699 0.57231 0.0
C527 C 0.35488 0.38729 0.58678 0.0
C528 C 0.36746 0.36286 0.61832 0.0
C529 C 0.37435 0.38197 0.65433 0.0
C530 C 0.37111 0.38089 0.63915 0.0
C531 C 0.36664 0.37698 0.59487 0.0
C532 C 0.36669 0.37838 0.61016 0.0
H533 H 0.36036 0.40459 0.68304 0.0
H534 H 0.3572 0.405 0.65784 0.0
H535 H 0.36997 0.35183 0.63862 0.0
H536 H 0.39104 0.35784 0.56909 0.0
H537 H 0.38858 0.358 0.59426 0.0
C538 C 0.85294 0.11833 0.92543 0.0
C539 C 0.86612 0.12869 0.93203 0.0
C540 C 0.85211 0.11767 0.91095 0.0
C541 C 0.86599 0.1411 0.87925 0.0
H542 H 0.86912 0.09382 0.86274 0.0
C543 C 0.88698 0.1331 0.8228 0.0
C544 C 0.8776 0.12071 0.81464 0.0
C545 C 0.88505 0.13311 0.83716 0.0
C546 C 0.868 0.10711 0.86715 0.0
H547 H 0.88804 0.14724 0.92882 0.0
H548 H 0.8863 0.14646 0.90362 0.0
H549 H 0.86462 0.0968 0.88773 0.0
H550 H 0.85954 0.09802 0.81507 0.0
H551 H 0.85585 0.09819 0.84024 0.0
H552 H 0.86927 0.15151 0.85882 0.0
C553 C 0.87673 0.13873 0.90957 0.0
C554 C 0.86539 0.1088 0.88145 0.0
C555 C 0.87776 0.13914 0.92398 0.0
C556 C 0.867 0.10767 0.82115 0.0
C557 C 0.86488 0.10779 0.83556 0.0
C558 C 0.86843 0.13942 0.86498 0.0
C559 C 0.86421 0.12765 0.9029 0.0
C560 C 0.86471 0.12582 0.88764 0.0
C561 C 0.87347 0.12088 0.84369 0.0
C562 C 0.86987 0.12242 0.85879 0.0
H563 H 0.84388 0.11006 0.93142 0.0
H564 H 0.84227 0.10912 0.90603 0.0
H565 H 0.86529 0.15437 0.88376 0.0
H566 H 0.8954 0.1432 0.81804 0.0
H567 H 0.89232 0.143 0.84313 0.0
C568 C 0.14764 0.38674 0.92584 0.0
C569 C 0.13461 0.37635 0.93259 0.0
C570 C 0.1483 0.38732 0.91136 0.0
C571 C 0.13453 0.36332 0.87991 0.0
H572 H 0.13264 0.41026 0.86275 0.0
C573 C 0.11662 0.37052 0.82263 0.0
C574 C 0.12639 0.38288 0.81471 0.0
C575 C 0.11784 0.3706 0.83704 0.0
C576 C 0.13341 0.39706 0.86734 0.0
H577 H 0.11266 0.35776 0.92958 0.0
H578 H 0.11407 0.35846 0.90435 0.0
H579 H 0.13619 0.40777 0.88785 0.0
H580 H 0.14449 0.40552 0.81562 0.0
H581 H 0.14695 0.40546 0.84086 0.0
H582 H 0.13196 0.3525 0.85954 0.0
C583 C 0.12367 0.36626 0.91021 0.0
C584 C 0.13546 0.39565 0.88171 0.0
C585 C 0.12283 0.3659 0.92464 0.0
C586 C 0.13674 0.39589 0.82149 0.0
C587 C 0.13814 0.39584 0.83596 0.0
C588 C 0.13267 0.36471 0.86557 0.0
C589 C 0.13615 0.37725 0.90343 0.0
C590 C 0.13576 0.37876 0.88813 0.0
C591 C 0.12906 0.38288 0.84388 0.0
C592 C 0.13176 0.38159 0.85912 0.0
H593 H 0.15684 0.39499 0.93174 0.0
H594 H 0.15814 0.39579 0.90636 0.0
H595 H 0.13495 0.35014 0.88459 0.0
H596 H 0.10839 0.36045 0.81766 0.0
H597 H 0.11022 0.36077 0.84282 0.0
C598 C 0.85563 0.887 0.07185 0.0
C599 C 0.86915 0.8771 0.06524 0.0
C600 C 0.8548 0.88766 0.08633 0.0
C601 C 0.86934 0.86458 0.11796 0.0
H602 H 0.87017 0.91177 0.13478 0.0
C603 C 0.88846 0.87269 0.17477 0.0
C604 C 0.87834 0.88456 0.18286 0.0
C605 C 0.887 0.87285 0.16038 0.0
C606 C 0.8697 0.89849 0.13027 0.0
H607 H 0.89178 0.85942 0.06845 0.0
H608 H 0.89007 0.86021 0.09366 0.0
H609 H 0.86629 0.90886 0.10971 0.0
H610 H 0.85941 0.90653 0.18229 0.0
H611 H 0.85653 0.90662 0.15705 0.0
H612 H 0.87261 0.8541 0.13837 0.0
C613 C 0.88022 0.86757 0.08771 0.0
C614 C 0.86745 0.89684 0.11594 0.0
C615 C 0.88123 0.86716 0.07329 0.0
C616 C 0.86745 0.8973 0.17626 0.0
C617 C 0.8658 0.89732 0.16181 0.0
C618 C 0.87142 0.8662 0.13226 0.0
C619 C 0.86728 0.87815 0.09437 0.0
C620 C 0.86758 0.87987 0.10964 0.0
C621 C 0.87515 0.8847 0.15374 0.0
C622 C 0.87202 0.88319 0.13857 0.0
H623 H 0.84622 0.89487 0.06586 0.0
H624 H 0.84462 0.89581 0.09124 0.0
H625 H 0.86925 0.85133 0.11338 0.0
H626 H 0.8971 0.86285 0.1796 0.0
H627 H 0.89484 0.86334 0.15447 0.0
C628 C 0.37689 0.63997 0.42342 0.0
C629 C 0.36562 0.62926 0.43158 0.0
C630 C 0.37511 0.64012 0.40903 0.0
C631 C 0.36229 0.61117 0.38073 0.0
H632 H 0.36504 0.6545 0.35871 0.0
C633 C 0.36216 0.61087 0.32049 0.0
C634 C 0.3727 0.6239 0.31389 0.0
C635 C 0.3601 0.61109 0.33491 0.0
C636 C 0.3645 0.64225 0.3647 0.0
H637 H 0.34325 0.61078 0.43123 0.0
H638 H 0.34032 0.61082 0.40592 0.0
H639 H 0.36233 0.65666 0.38381 0.0
H640 H 0.39021 0.64665 0.31717 0.0
H641 H 0.38722 0.64663 0.34225 0.0
H642 H 0.36516 0.59672 0.36171 0.0
C643 C 0.35046 0.61914 0.41071 0.0
C644 C 0.36279 0.64352 0.37906 0.0
C645 C 0.35205 0.61923 0.42516 0.0
C646 C 0.38185 0.63655 0.32198 0.0
C647 C 0.37997 0.63665 0.33635 0.0
C648 C 0.36421 0.60988 0.36635 0.0
C649 C 0.36219 0.62936 0.40252 0.0
C650 C 0.36193 0.62801 0.38723 0.0
C651 C 0.36868 0.62424 0.34298 0.0
C652 C 0.36565 0.62542 0.35818 0.0
H653 H 0.38746 0.64783 0.42812 0.0
H654 H 0.3844 0.64804 0.40296 0.0
H655 H 0.36186 0.599 0.38683 0.0
H656 H 0.35488 0.60102 0.31449 0.0
H657 H 0.35125 0.60137 0.33965 0.0
C658 C 0.63829 0.1094 0.67582 0.0
C659 C 0.62787 0.12257 0.68236 0.0
C660 C 0.64001 0.10925 0.66138 0.0
C661 C 0.6355 0.14019 0.63157 0.0
H662 H 0.63879 0.097 0.60943 0.0
C663 C 0.62493 0.13846 0.57268 0.0
C664 C 0.63649 0.12788 0.56466 0.0
C665 C 0.62617 0.13835 0.58709 0.0
C666 C 0.63816 0.10915 0.61553 0.0
H667 H 0.61003 0.14503 0.679 0.0
H668 H 0.6124 0.14436 0.65387 0.0
H669 H 0.63498 0.09466 0.63452 0.0
H670 H 0.65876 0.1093 0.5653 0.0
H671 H 0.66075 0.10888 0.59068 0.0
H672 H 0.63809 0.15465 0.61252 0.0
C673 C 0.61984 0.13457 0.65983 0.0
C674 C 0.63595 0.10783 0.62989 0.0
C675 C 0.61831 0.13484 0.67422 0.0
C676 C 0.64976 0.11766 0.57127 0.0
C677 C 0.65081 0.1173 0.58575 0.0
C678 C 0.63754 0.1415 0.61724 0.0
C679 C 0.63118 0.12218 0.65324 0.0
C680 C 0.63429 0.12335 0.63805 0.0
C681 C 0.63883 0.12745 0.59378 0.0
C682 C 0.63864 0.12601 0.60907 0.0
H683 H 0.64589 0.09984 0.68188 0.0
H684 H 0.64888 0.09954 0.65666 0.0
H685 H 0.63481 0.15243 0.63756 0.0
H686 H 0.61458 0.14646 0.56784 0.0
H687 H 0.6167 0.1462 0.59303 0.0
C688 C 0.86641 0.39478 0.82104 0.0
C689 C 0.87671 0.38167 0.81432 0.0
C690 C 0.865 0.39484 0.8355 0.0
C691 C 0.87033 0.36387 0.86522 0.0
H692 H 0.86692 0.40707 0.88734 0.0
C693 C 0.88084 0.36574 0.92418 0.0
C694 C 0.86912 0.37622 0.93214 0.0
C695 C 0.87973 0.36586 0.90976 0.0
C696 C 0.8676 0.39491 0.88124 0.0
H697 H 0.89464 0.3592 0.81737 0.0
H698 H 0.89282 0.35974 0.84253 0.0
H699 H 0.87047 0.40941 0.86223 0.0
H700 H 0.84671 0.39463 0.93138 0.0
H701 H 0.84495 0.39505 0.906 0.0
H702 H 0.86805 0.34942 0.8843 0.0
C703 C 0.88524 0.36955 0.83671 0.0
C704 C 0.86966 0.39623 0.86688 0.0
C705 C 0.88645 0.36935 0.82229 0.0
C706 C 0.85584 0.38636 0.92546 0.0
C707 C 0.85493 0.38671 0.91098 0.0
C708 C 0.86846 0.36257 0.87956 0.0
C709 C 0.87404 0.38191 0.84347 0.0
C710 C 0.87129 0.38071 0.85871 0.0
C711 C 0.86705 0.37666 0.90301 0.0
C712 C 0.86728 0.37806 0.88772 0.0
H713 H 0.85868 0.40437 0.81511 0.0
H714 H 0.85621 0.40452 0.84035 0.0
H715 H 0.87102 0.35162 0.85923 0.0
H716 H 0.89119 0.3578 0.92907 0.0
H717 H 0.88931 0.35807 0.90386 0.0
C718 C 0.38664 0.13159 0.67424 0.0
C719 C 0.37699 0.11931 0.6823 0.0
C720 C 0.38482 0.13173 0.65987 0.0
C721 C 0.36741 0.10632 0.62968 0.0
H722 H 0.3655 0.15379 0.61338 0.0
C723 C 0.35244 0.11841 0.5715 0.0
C724 C 0.36577 0.12862 0.56495 0.0
C725 C 0.35163 0.11761 0.58598 0.0
C726 C 0.36597 0.14046 0.6178 0.0
H727 H 0.35856 0.09692 0.68169 0.0
H728 H 0.35506 0.09734 0.65651 0.0
H729 H 0.36945 0.15061 0.6383 0.0
H730 H 0.388 0.14677 0.56825 0.0
H731 H 0.3863 0.14575 0.59345 0.0
H732 H 0.36383 0.09629 0.60905 0.0
C733 C 0.36422 0.10674 0.66127 0.0
C734 C 0.3684 0.1386 0.63205 0.0
C735 C 0.36623 0.10647 0.67569 0.0
C736 C 0.3776 0.13879 0.57305 0.0
C737 C 0.3766 0.13824 0.58746 0.0
C738 C 0.36481 0.10821 0.6154 0.0
C739 C 0.37308 0.11975 0.65324 0.0
C740 C 0.36955 0.12151 0.63814 0.0
C741 C 0.36391 0.1273 0.59407 0.0
C742 C 0.36441 0.1253 0.60932 0.0
H743 H 0.39517 0.14152 0.67909 0.0
H744 H 0.39229 0.14156 0.65398 0.0
H745 H 0.3683 0.09297 0.63401 0.0
H746 H 0.34323 0.11035 0.56547 0.0
H747 H 0.34165 0.10917 0.59085 0.0
C748 C 0.64666 0.62088 0.42634 0.0
C749 C 0.62982 0.62326 0.43257 0.0
C750 C 0.64812 0.61972 0.4119 0.0
C751 C 0.62268 0.60708 0.38119 0.0
H752 H 0.65338 0.63953 0.36072 0.0
C753 C 0.63145 0.60637 0.32113 0.0
C754 C 0.62881 0.62322 0.31498 0.0
C755 C 0.6326 0.60479 0.33556 0.0
C756 C 0.64486 0.63031 0.36634 0.0
H757 H 0.60139 0.62647 0.42862 0.0
H758 H 0.60397 0.62418 0.40355 0.0
H759 H 0.65405 0.63968 0.3861 0.0
H760 H 0.62497 0.65155 0.31907 0.0
H761 H 0.6272 0.64878 0.34415 0.0
H762 H 0.61329 0.5979 0.36143 0.0
C763 C 0.61599 0.6232 0.40979 0.0
C764 C 0.64533 0.63032 0.3808 0.0
C765 C 0.61456 0.62467 0.42414 0.0
C766 C 0.62701 0.63838 0.32349 0.0
C767 C 0.62844 0.63684 0.33784 0.0
C768 C 0.62242 0.60686 0.36672 0.0
C769 C 0.63273 0.62058 0.40356 0.0
C770 C 0.63392 0.61902 0.38833 0.0
C771 C 0.63143 0.62009 0.34398 0.0
C772 C 0.63319 0.61879 0.35919 0.0
H773 H 0.65863 0.61974 0.43262 0.0
H774 H 0.66119 0.61777 0.40728 0.0
H775 H 0.61384 0.59817 0.38681 0.0
H776 H 0.6329 0.59448 0.3148 0.0
H777 H 0.63485 0.59172 0.34011 0.0
C778 C 0.11704 0.87635 0.17353 0.0
C779 C 0.12809 0.88718 0.18178 0.0
C780 C 0.11737 0.87793 0.15915 0.0
C781 C 0.14761 0.88875 0.13118 0.0
H782 H 0.10469 0.88776 0.10863 0.0
C783 C 0.14863 0.88803 0.07088 0.0
C784 C 0.1351 0.87812 0.06431 0.0
C785 C 0.14853 0.89011 0.0853 0.0
C786 C 0.11682 0.8878 0.11477 0.0
H787 H 0.14771 0.90856 0.18157 0.0
H788 H 0.14851 0.91111 0.15623 0.0
H789 H 0.10214 0.89118 0.13364 0.0
H790 H 0.11167 0.86155 0.0676 0.0
H791 H 0.11188 0.86455 0.09268 0.0
H792 H 0.16229 0.8847 0.11238 0.0
C793 C 0.13955 0.90149 0.16097 0.0
C794 C 0.11533 0.88993 0.12908 0.0
C795 C 0.13898 0.90013 0.17542 0.0
C796 C 0.12216 0.86943 0.0724 0.0
C797 C 0.12217 0.87132 0.08677 0.0
C798 C 0.14911 0.88644 0.11685 0.0
C799 C 0.12895 0.89018 0.15271 0.0
C800 C 0.13068 0.89013 0.13744 0.0
C801 C 0.13499 0.88216 0.09336 0.0
C802 C 0.13369 0.8856 0.1085 0.0
H803 H 0.10852 0.86627 0.17818 0.0
H804 H 0.10915 0.86896 0.15302 0.0
H805 H 0.15965 0.88868 0.13744 0.0
H806 H 0.15871 0.89496 0.06485 0.0
H807 H 0.15859 0.89857 0.09003 0.0
C808 C 0.85671 0.61594 0.07089 0.0
C809 C 0.86992 0.62655 0.06456 0.0
C810 C 0.85662 0.61367 0.08529 0.0
C811 C 0.88802 0.61641 0.11482 0.0
H812 H 0.84535 0.61418 0.13762 0.0
C813 C 0.88803 0.62787 0.17345 0.0
C814 C 0.8775 0.61668 0.18181 0.0
C815 C 0.8875 0.62626 0.15907 0.0
C816 C 0.85735 0.61448 0.13132 0.0
H817 H 0.89243 0.6442 0.06828 0.0
H818 H 0.8919 0.64078 0.09333 0.0
H819 H 0.84247 0.6183 0.11255 0.0
H820 H 0.85856 0.59469 0.18182 0.0
H821 H 0.85739 0.59209 0.15648 0.0
H822 H 0.90289 0.61323 0.13361 0.0
C823 C 0.88203 0.63366 0.08722 0.0
C824 C 0.85571 0.61688 0.11699 0.0
C825 C 0.88223 0.63578 0.07289 0.0
C826 C 0.8669 0.60339 0.17558 0.0
C827 C 0.86611 0.602 0.16112 0.0
C828 C 0.88964 0.61416 0.1291 0.0
C829 C 0.86967 0.62207 0.09356 0.0
C830 C 0.87107 0.61828 0.10863 0.0
C831 C 0.87622 0.61362 0.15276 0.0
C832 C 0.87435 0.61353 0.13751 0.0
H833 H 0.84712 0.60861 0.06467 0.0
H834 H 0.8469 0.60467 0.08985 0.0
H835 H 0.90011 0.61687 0.10863 0.0
H836 H 0.89631 0.63822 0.17801 0.0
H837 H 0.89533 0.63547 0.15287 0.0
C838 C 0.11746 0.13606 0.82252 0.0
C839 C 0.12704 0.12375 0.81443 0.0
C840 C 0.11893 0.13583 0.83692 0.0
C841 C 0.13495 0.10905 0.86689 0.0
H842 H 0.13671 0.15581 0.88439 0.0
C843 C 0.14912 0.11875 0.92545 0.0
C844 C 0.13581 0.12879 0.93218 0.0
C845 C 0.14999 0.11847 0.91096 0.0
C846 C 0.13626 0.14268 0.87963 0.0
H847 H 0.14507 0.10103 0.81499 0.0
H848 H 0.148 0.10083 0.84021 0.0
H849 H 0.13352 0.15368 0.85934 0.0
H850 H 0.11366 0.14714 0.92921 0.0
H851 H 0.11548 0.14702 0.904 0.0
H852 H 0.13786 0.09815 0.88733 0.0
C853 C 0.13913 0.11052 0.83546 0.0
C854 C 0.13427 0.14142 0.8653 0.0
C855 C 0.13746 0.11062 0.82102 0.0
C856 C 0.12404 0.13927 0.92427 0.0
C857 C 0.1251 0.13924 0.90985 0.0
C858 C 0.13713 0.11033 0.88125 0.0
C859 C 0.13025 0.12345 0.84355 0.0
C860 C 0.13323 0.12459 0.85876 0.0
C861 C 0.1378 0.12852 0.90305 0.0
C862 C 0.1375 0.12716 0.88776 0.0
H863 H 0.10918 0.14621 0.81771 0.0
H864 H 0.11146 0.14562 0.84284 0.0
H865 H 0.13409 0.09589 0.86223 0.0
H866 H 0.15829 0.11047 0.93132 0.0
H867 H 0.15998 0.11019 0.90594 0.0
C868 C 0.6488 0.38503 0.57036 0.0
C869 C 0.63597 0.37408 0.56393 0.0
C870 C 0.64869 0.38724 0.58476 0.0
C871 C 0.61716 0.3834 0.61414 0.0
H872 H 0.65962 0.38818 0.63695 0.0
C873 C 0.6175 0.37413 0.67305 0.0
C874 C 0.62749 0.38613 0.68113 0.0
C875 C 0.618 0.37515 0.65864 0.0
C876 C 0.64767 0.38715 0.63064 0.0
H877 H 0.61396 0.35575 0.56745 0.0
H878 H 0.6142 0.359 0.59253 0.0
H879 H 0.66276 0.3835 0.61198 0.0
H880 H 0.64542 0.40893 0.68061 0.0
H881 H 0.64656 0.41051 0.65521 0.0
H882 H 0.60211 0.38644 0.63286 0.0
C883 C 0.6239 0.36645 0.5865 0.0
C884 C 0.64945 0.38443 0.61637 0.0
C885 C 0.62388 0.36442 0.57215 0.0
C886 C 0.63751 0.3996 0.67458 0.0
C887 C 0.63828 0.40042 0.6601 0.0
C888 C 0.6154 0.38596 0.62838 0.0
C889 C 0.63585 0.3784 0.59294 0.0
C890 C 0.63421 0.38217 0.608 0.0
C891 C 0.62872 0.38801 0.65203 0.0
C892 C 0.63062 0.38756 0.63679 0.0
H893 H 0.65821 0.39271 0.56423 0.0
H894 H 0.65808 0.39655 0.58938 0.0
H895 H 0.60512 0.38228 0.60795 0.0
H896 H 0.60966 0.36363 0.67785 0.0
H897 H 0.61061 0.36534 0.65266 0.0
C898 C 0.38837 0.86966 0.32209 0.0
C899 C 0.37888 0.8819 0.31388 0.0
C900 C 0.38661 0.86989 0.33647 0.0
C901 C 0.36994 0.89652 0.36628 0.0
H902 H 0.36772 0.84966 0.38359 0.0
C903 C 0.35546 0.88673 0.42477 0.0
C904 C 0.36872 0.87659 0.43148 0.0
C905 C 0.35454 0.887 0.41029 0.0
C906 C 0.36829 0.86283 0.37889 0.0
H907 H 0.36076 0.90456 0.31422 0.0
H908 H 0.35737 0.90479 0.33941 0.0
H909 H 0.37136 0.85193 0.35858 0.0
H910 H 0.39068 0.85803 0.42847 0.0
H911 H 0.38878 0.85815 0.40327 0.0
H912 H 0.36676 0.90731 0.38672 0.0
C913 C 0.36636 0.89512 0.33476 0.0
C914 C 0.37053 0.86416 0.36458 0.0
C915 C 0.3683 0.89502 0.32034 0.0
C916 C 0.38035 0.86597 0.42355 0.0
C917 C 0.37923 0.866 0.40913 0.0
C918 C 0.36752 0.89516 0.38061 0.0
C919 C 0.37511 0.88222 0.34296 0.0
C920 C 0.37178 0.88101 0.35812 0.0
C921 C 0.36662 0.87686 0.40235 0.0
C922 C 0.367 0.8783 0.38706 0.0
H923 H 0.39677 0.85952 0.31738 0.0
H924 H 0.394 0.86012 0.34248 0.0
H925 H 0.37093 0.9097 0.36166 0.0
H926 H 0.3464 0.89511 0.43067 0.0
H927 H 0.34462 0.89538 0.40528 0.0
C928 C 0.06122 0.64741 0.00616 0.0
C929 C 0.07323 0.63307 0.00748 0.0
C930 C 0.04488 0.64508 -0.00057 0.0
C931 C 0.01151 0.63812 0.98274 0.0
H932 H 0.98614 0.60042 0.00215 0.0
C933 C 0.93563 0.61636 0.00205 0.0
C934 C 0.93145 0.63299 0.00804 0.0
C935 C 0.95212 0.61385 0.99537 0.0
C936 C 0.99298 0.61068 0.99624 0.0
H937 H 0.07818 0.60535 0.00206 0.0
H938 H 0.04919 0.6011 0.99051 0.0
H939 H 0.0187 0.60051 0.00199 0.0
H940 H 0.94031 0.6604 0.01069 0.0
H941 H 0.96875 0.65617 -0.00099 0.0
H942 H 0.98575 0.64901 0.97789 0.0
C943 C 0.05257 0.61419 0.99457 0.0
C944 C 0.0117 0.61074 0.99615 0.0
C945 C 0.06915 0.61664 0.00112 0.0
C946 C 0.94327 0.6474 0.00624 0.0
C947 C 0.95951 0.645 -0.00059 0.0
C948 C 0.99281 0.63804 0.9828 0.0
C949 C 0.04006 0.62826 0.99405 0.0
C950 C 0.02111 0.62506 0.99013 0.0
C951 C 0.96446 0.62804 0.99438 0.0
C952 C 0.98338 0.62493 0.99029 0.0
H953 H 0.06409 0.66023 0.01093 0.0
H954 H 0.03549 0.65613 -0.00062 0.0
H955 H 0.01844 0.64916 0.97781 0.0
H956 H 0.92674 0.60502 0.00334 0.0
H957 H 0.95556 0.60065 0.99156 0.0
C958 C 0.63781 0.68579 0.25022 0.0
C959 C 0.6213 0.68196 0.25653 0.0
C960 C 0.64022 0.70194 0.24305 0.0
C961 C 0.61608 0.74238 0.22993 0.0
H962 H 0.65355 0.76852 0.24896 0.0
C963 C 0.60609 0.81041 0.25343 0.0
C964 C 0.62041 0.8223 0.25536 0.0
C965 C 0.6086 0.79434 0.24636 0.0
C966 C 0.64335 0.76147 0.24314 0.0
H967 H 0.59395 0.69096 0.25918 0.0
H968 H 0.59801 0.71883 0.24665 0.0
H969 H 0.65376 0.736 0.24925 0.0
H970 H 0.64826 0.82744 0.25051 0.0
H971 H 0.6528 0.79897 0.23831 0.0
H972 H 0.60489 0.76794 0.22481 0.0
C973 C 0.60917 0.70958 0.24719 0.0
C974 C 0.64347 0.74275 0.24331 0.0
C975 C 0.60686 0.69368 0.25451 0.0
C976 C 0.637 0.81847 0.24916 0.0
C977 C 0.6396 0.80218 0.24223 0.0
C978 C 0.61596 0.76109 0.22976 0.0
C979 C 0.62605 0.71427 0.24188 0.0
C980 C 0.62921 0.73306 0.23748 0.0
C981 C 0.62557 0.78968 0.2412 0.0
C982 C 0.62896 0.7708 0.23714 0.0
H983 H 0.64917 0.67696 0.25166 0.0
H984 H 0.65336 0.70519 0.23903 0.0
H985 H 0.6051 0.73524 0.2251 0.0
H986 H 0.59312 0.81311 0.25802 0.0
H987 H 0.59754 0.78498 0.24592 0.0
C988 C 0.43684 0.38897 0.50427 0.0
C989 C 0.43259 0.37224 0.51007 0.0
C990 C 0.4533 0.39152 0.49756 0.0
C991 C 0.49335 0.36749 0.48396 0.0
H992 H 0.52034 0.40346 0.50401 0.0
C993 C 0.56231 0.35544 0.50543 0.0
C994 C 0.57446 0.36952 0.50747 0.0
C995 C 0.54587 0.35855 0.49905 0.0
C996 C 0.51304 0.3937 0.49793 0.0
H997 H 0.44133 0.34476 0.51242 0.0
H998 H 0.46971 0.34904 0.50061 0.0
H999 H 0.4878 0.40406 0.50467 0.0
H1000 H 0.57955 0.39764 0.50362 0.0
H1001 H 0.55043 0.40322 0.49263 0.0
H1002 H 0.51864 0.35635 0.47809 0.0
C1003 C 0.46054 0.36025 0.50121 0.0
C1004 C 0.49433 0.39405 0.49832 0.0
C1005 C 0.44434 0.35781 0.5081 0.0
C1006 C 0.5704 0.38655 0.50213 0.0
C1007 C 0.55374 0.38975 0.49591 0.0
C1008 C 0.51204 0.36716 0.48355 0.0
C1009 C 0.46551 0.37726 0.49631 0.0
C1010 C 0.48435 0.3803 0.49204 0.0
C1011 C 0.54107 0.37587 0.49473 0.0
C1012 C 0.52207 0.37961 0.49125 0.0
H1013 H 0.428 0.40033 0.5057 0.0
H1014 H 0.4568 0.40477 0.49388 0.0
H1015 H 0.48597 0.35691 0.47882 0.0
H1016 H 0.56515 0.34216 0.50938 0.0
H1017 H 0.53639 0.34759 0.49849 0.0
C1018 C 0.86515 0.31796 0.75087 0.0
C1019 C 0.88201 0.32206 0.75649 0.0
C1020 C 0.86237 0.30154 0.74416 0.0
C1021 C 0.88586 0.26072 0.73103 0.0
H1022 H 0.84945 0.23509 0.75167 0.0
C1023 C 0.89693 0.19306 0.75505 0.0
C1024 C 0.88275 0.18106 0.75723 0.0
C1025 C 0.89409 0.20912 0.74806 0.0
C1026 C 0.85933 0.242 0.74543 0.0
H1027 H 0.90951 0.3132 0.75838 0.0
H1028 H 0.9048 0.28487 0.74662 0.0
H1029 H 0.84926 0.26764 0.75146 0.0
H1030 H 0.85475 0.17581 0.75302 0.0
H1031 H 0.84962 0.20433 0.74098 0.0
H1032 H 0.89677 0.23501 0.72597 0.0
C1033 C 0.89366 0.29411 0.74735 0.0
C1034 C 0.85922 0.26072 0.74531 0.0
C1035 C 0.89635 0.31029 0.75422 0.0
C1036 C 0.86591 0.18485 0.75144 0.0
C1037 C 0.86297 0.20116 0.74461 0.0
C1038 C 0.88598 0.24201 0.73116 0.0
C1039 C 0.87649 0.28919 0.74275 0.0
C1040 C 0.87315 0.27025 0.73884 0.0
C1041 C 0.87692 0.2137 0.74324 0.0
C1042 C 0.87337 0.23251 0.73909 0.0
H1043 H 0.85387 0.32681 0.75253 0.0
H1044 H 0.84901 0.29812 0.74068 0.0
H1045 H 0.89656 0.26772 0.72573 0.0
H1046 H 0.91007 0.1904 0.75934 0.0
H1047 H 0.90509 0.21853 0.74736 0.0
C1048 C 0.93944 0.38577 0.99066 0.0
C1049 C 0.92979 0.36975 0.98945 0.0
C1050 C 0.95653 0.38571 0.99663 0.0
C1051 C 0.99305 0.35344 -0.00118 0.0
H1052 H 0.01942 0.39312 0.01475 0.0
C1053 C 0.06823 0.35149 0.99592 0.0
C1054 C 0.07584 0.36712 0.99049 0.0
C1055 C 0.05127 0.35196 0.00196 0.0
C1056 C 0.01223 0.38189 0.01034 0.0
H1057 H 0.92921 0.34161 0.9947 0.0
H1058 H 0.95855 0.34161 0.0058 0.0
H1059 H 0.98663 0.39388 0.01442 0.0
H1060 H 0.07256 0.3957 0.9879 0.0
H1061 H 0.04248 0.39649 0.99779 0.0
H1062 H 0.01822 0.34186 0.99393 0.0
C1063 C 0.95337 0.35411 0.00175 0.0
C1064 C 0.99345 0.38233 0.01016 0.0
C1065 C 0.93652 0.3541 0.99552 0.0
C1066 C 0.06693 0.38351 0.99217 0.0
C1067 C 0.0497 0.38393 0.99787 0.0
C1068 C 0.01166 0.35303 -0.00105 0.0
C1069 C 0.96405 0.36963 0.00157 0.0
C1070 C 0.98366 0.36826 0.0041 0.0
C1071 C 0.0413 0.36797 0.00216 0.0
C1072 C 0.02157 0.36741 0.0044 0.0
H1073 H 0.9345 0.39795 0.9859 0.0
H1074 H 0.96438 0.3979 0.99626 0.0
H1075 H 0.98609 0.34256 0.99373 0.0
H1076 H 0.07497 0.33872 0.99476 0.0
H1077 H 0.04547 0.33952 0.00557 0.0
C1078 C 0.86584 0.81862 0.24478 0.0
C1079 C 0.88274 0.82283 0.23928 0.0
C1080 C 0.86293 0.80197 0.25111 0.0
C1081 C 0.85945 0.76122 0.24927 0.0
H1082 H 0.89694 0.73463 0.26794 0.0
C1083 C 0.89609 0.69303 0.23861 0.0
C1084 C 0.88183 0.68102 0.23688 0.0
C1085 C 0.89355 0.70922 0.2455 0.0
C1086 C 0.88617 0.74187 0.26293 0.0
H1087 H 0.91019 0.81387 0.23726 0.0
H1088 H 0.90527 0.78515 0.24835 0.0
H1089 H 0.89704 0.76732 0.26874 0.0
H1090 H 0.85394 0.67598 0.24166 0.0
H1091 H 0.8493 0.70476 0.25347 0.0
H1092 H 0.84933 0.73583 0.24261 0.0
C1093 C 0.89418 0.79448 0.24781 0.0
C1094 C 0.88623 0.76057 0.26337 0.0
C1095 C 0.897 0.81089 0.24132 0.0
C1096 C 0.86517 0.68502 0.2429 0.0
C1097 C 0.86251 0.70147 0.24961 0.0
C1098 C 0.85936 0.7425 0.24886 0.0
C1099 C 0.87697 0.78949 0.25226 0.0
C1100 C 0.87352 0.77044 0.25581 0.0
C1101 C 0.87658 0.71392 0.25064 0.0
C1102 C 0.87335 0.73271 0.25497 0.0
H1103 H 0.85461 0.82762 0.2433 0.0
H1104 H 0.84954 0.79852 0.2545 0.0
H1105 H 0.84949 0.7684 0.24329 0.0
H1106 H 0.90909 0.69022 0.23412 0.0
H1107 H 0.90461 0.71859 0.24594 0.0
C1108 C 0.43374 0.61519 0.49297 0.0
C1109 C 0.42994 0.63185 0.48687 0.0
C1110 C 0.45001 0.61249 0.49991 0.0
C1111 C 0.49098 0.60912 0.4999 0.0
H1112 H 0.51554 0.64707 0.51968 0.0
C1113 C 0.55922 0.6464 0.49218 0.0
C1114 C 0.5711 0.63206 0.49035 0.0
C1115 C 0.54285 0.6438 0.4988 0.0
C1116 C 0.50886 0.63617 0.51437 0.0
H1117 H 0.43929 0.65911 0.48423 0.0
H1118 H 0.46735 0.65454 0.4964 0.0
H1119 H 0.48288 0.64704 0.51854 0.0
H1120 H 0.5759 0.60406 0.49488 0.0
H1121 H 0.54691 0.59936 0.50629 0.0
H1122 H 0.51693 0.59908 0.49473 0.0
C1123 C 0.45797 0.6435 0.49585 0.0
C1124 C 0.49018 0.63616 0.51372 0.0
C1125 C 0.44196 0.64608 0.48874 0.0
C1126 C 0.56696 0.61535 0.49621 0.0
C1127 C 0.55036 0.61264 0.50267 0.0
C1128 C 0.50968 0.60915 0.50053 0.0
C1129 C 0.46248 0.62653 0.50111 0.0
C1130 C 0.48113 0.62326 0.50575 0.0
C1131 C 0.53788 0.62672 0.50356 0.0
C1132 C 0.51881 0.62332 0.50703 0.0
H1133 H 0.42468 0.60399 0.49165 0.0
H1134 H 0.45316 0.59928 0.50386 0.0
H1135 H 0.48441 0.59902 0.49365 0.0
H1136 H 0.56215 0.65944 0.4878 0.0
H1137 H 0.53352 0.6549 0.49914 0.0
C1138 C 0.63971 0.18736 0.74504 0.0
C1139 C 0.62283 0.18336 0.7394 0.0
C1140 C 0.64265 0.20386 0.7516 0.0
C1141 C 0.64623 0.24467 0.75021 0.0
H1142 H 0.6089 0.27087 0.7694 0.0
C1143 C 0.6092 0.31257 0.74011 0.0
C1144 C 0.62345 0.32448 0.73798 0.0
C1145 C 0.61189 0.29653 0.74718 0.0
C1146 C 0.61964 0.26374 0.76425 0.0
H1147 H 0.59546 0.19254 0.73731 0.0
H1148 H 0.60044 0.22099 0.74883 0.0
H1149 H 0.60877 0.23817 0.76974 0.0
H1150 H 0.65145 0.3296 0.74228 0.0
H1151 H 0.65633 0.30108 0.75443 0.0
H1152 H 0.65628 0.27017 0.74378 0.0
C1153 C 0.61147 0.21161 0.74822 0.0
C1154 C 0.61955 0.24503 0.76444 0.0
C1155 C 0.60863 0.19535 0.74149 0.0
C1156 C 0.64023 0.32063 0.74386 0.0
C1157 C 0.64303 0.30433 0.75074 0.0
C1158 C 0.64632 0.26339 0.75003 0.0
C1159 C 0.62867 0.21639 0.75285 0.0
C1160 C 0.63219 0.23533 0.75668 0.0
C1161 C 0.62898 0.29188 0.75208 0.0
C1162 C 0.63236 0.27307 0.75631 0.0
H1163 H 0.65089 0.17834 0.74352 0.0
H1164 H 0.65603 0.20717 0.7551 0.0
H1165 H 0.65613 0.23761 0.74409 0.0
H1166 H 0.59612 0.31528 0.73572 0.0
H1167 H 0.60083 0.28719 0.74784 0.0
C1168 C 0.39489 0.30828 0.74284 0.0
C1169 C 0.38067 0.32014 0.74045 0.0
C1170 C 0.39202 0.2922 0.74979 0.0
C1171 C 0.38388 0.25906 0.76626 0.0
H1172 H 0.34775 0.23345 0.74532 0.0
C1173 C 0.36436 0.18326 0.74552 0.0
C1174 C 0.38126 0.17958 0.73979 0.0
C1175 C 0.36129 0.19952 0.75239 0.0
C1176 C 0.35754 0.24036 0.75165 0.0
H1177 H 0.35255 0.32521 0.74426 0.0
H1178 H 0.34735 0.29662 0.75623 0.0
H1179 H 0.34756 0.26599 0.74553 0.0
H1180 H 0.40856 0.18904 0.73784 0.0
H1181 H 0.40335 0.21709 0.74991 0.0
H1182 H 0.39474 0.23336 0.77138 0.0
C1183 C 0.36076 0.29991 0.7528 0.0
C1184 C 0.35743 0.25907 0.75177 0.0
C1185 C 0.36373 0.31625 0.74601 0.0
C1186 C 0.39537 0.19162 0.74208 0.0
C1187 C 0.3924 0.20763 0.74912 0.0
C1188 C 0.38401 0.24035 0.76611 0.0
C1189 C 0.37478 0.28747 0.75434 0.0
C1190 C 0.37128 0.26859 0.75833 0.0
C1191 C 0.37518 0.2121 0.75387 0.0
C1192 C 0.37151 0.23086 0.75807 0.0
H1193 H 0.4081 0.31104 0.73872 0.0
H1194 H 0.40308 0.28287 0.75061 0.0
H1195 H 0.39452 0.26606 0.77163 0.0
H1196 H 0.35325 0.17418 0.74386 0.0
H1197 H 0.3479 0.20261 0.75597 0.0
C1198 C 0.10451 0.69372 0.23984 0.0
C1199 C 0.11876 0.68158 0.2386 0.0
C1200 C 0.10691 0.71003 0.24659 0.0
C1201 C 0.11396 0.74365 0.26291 0.0
H1202 H 0.15278 0.76799 0.24404 0.0
C1203 C 0.13774 0.81887 0.24345 0.0
C1204 C 0.12145 0.82327 0.23701 0.0
C1205 C 0.1397 0.80239 0.25025 0.0
C1206 C 0.14219 0.76144 0.24979 0.0
H1207 H 0.14634 0.67636 0.24429 0.0
H1208 H 0.15068 0.70526 0.25592 0.0
H1209 H 0.1521 0.73545 0.24455 0.0
H1210 H 0.09405 0.81477 0.23366 0.0
H1211 H 0.09735 0.78633 0.24554 0.0
H1212 H 0.10334 0.7697 0.26719 0.0
C1213 C 0.13762 0.70203 0.25173 0.0
C1214 C 0.14179 0.74273 0.25009 0.0
C1215 C 0.13512 0.68549 0.24514 0.0
C1216 C 0.10681 0.81164 0.23843 0.0
C1217 C 0.10867 0.79541 0.24538 0.0
C1218 C 0.11436 0.76235 0.26261 0.0
C1219 C 0.12369 0.71471 0.2521 0.0
C1220 C 0.1271 0.73367 0.2559 0.0
C1221 C 0.12529 0.79028 0.25094 0.0
C1222 C 0.1279 0.77139 0.2553 0.0
H1223 H 0.09174 0.69098 0.23495 0.0
H1224 H 0.09595 0.71954 0.24652 0.0
H1225 H 0.10264 0.73701 0.26769 0.0
H1226 H 0.14924 0.82762 0.24248 0.0
H1227 H 0.15265 0.7988 0.25446 0.0
C1228 C 0.10608 0.19521 0.7546 0.0
C1229 C 0.12047 0.18343 0.75665 0.0
C1230 C 0.10855 0.21128 0.74753 0.0
C1231 C 0.14292 0.24455 0.74445 0.0
H1232 H 0.10479 0.27 0.72558 0.0
C1233 C 0.1365 0.32035 0.75039 0.0
C1234 C 0.1198 0.32422 0.75639 0.0
C1235 C 0.13921 0.30403 0.74351 0.0
C1236 C 0.11574 0.26308 0.73065 0.0
H1237 H 0.14844 0.17854 0.7521 0.0
H1238 H 0.15293 0.20706 0.73991 0.0
H1239 H 0.10496 0.23729 0.72566 0.0
H1240 H 0.09245 0.31507 0.75876 0.0
H1241 H 0.09705 0.28691 0.74674 0.0
H1242 H 0.1529 0.27025 0.7504 0.0
C1243 C 0.1397 0.20372 0.74371 0.0
C1244 C 0.11583 0.24437 0.73069 0.0
C1245 C 0.13713 0.18741 0.75063 0.0
C1246 C 0.1055 0.31234 0.75433 0.0
C1247 C 0.10812 0.29626 0.7473 0.0
C1248 C 0.14282 0.26327 0.7444 0.0
C1249 C 0.12555 0.21608 0.7425 0.0
C1250 C 0.12878 0.23495 0.73834 0.0
C1251 C 0.12517 0.29156 0.74233 0.0
C1252 C 0.12859 0.27269 0.73826 0.0
H1253 H 0.09307 0.19239 0.75907 0.0
H1254 H 0.09741 0.22053 0.74696 0.0
H1255 H 0.15307 0.23772 0.75047 0.0
H1256 H 0.14775 0.3293 0.75187 0.0
H1257 H 0.15248 0.30079 0.73974 0.0
C1258 C 0.39906 0.69231 0.25357 0.0
C1259 C 0.38455 0.68057 0.25521 0.0
C1260 C 0.39689 0.70848 0.24657 0.0
C1261 C 0.39016 0.74202 0.23007 0.0
H1262 H 0.35248 0.76736 0.24951 0.0
C1263 C 0.36886 0.81764 0.25027 0.0
C1264 C 0.38543 0.8215 0.25649 0.0
C1265 C 0.36631 0.80136 0.2433 0.0
C1266 C 0.36275 0.76054 0.24359 0.0
H1267 H 0.35675 0.67582 0.24998 0.0
H1268 H 0.35281 0.70448 0.2379 0.0
H1269 H 0.35234 0.73483 0.24905 0.0
H1270 H 0.41271 0.81232 0.25922 0.0
H1271 H 0.4084 0.78423 0.24705 0.0
H1272 H 0.40132 0.76778 0.22557 0.0
C1273 C 0.36589 0.70105 0.24196 0.0
C1274 C 0.36267 0.74183 0.24333 0.0
C1275 C 0.36816 0.68465 0.2488 0.0
C1276 C 0.39976 0.8096 0.25462 0.0
C1277 C 0.39731 0.79356 0.2475 0.0
C1278 C 0.39024 0.76072 0.23033 0.0
C1279 C 0.38009 0.71341 0.24123 0.0
C1280 C 0.37698 0.73239 0.23732 0.0
C1281 C 0.38039 0.78892 0.24223 0.0
C1282 C 0.37715 0.77013 0.23785 0.0
H1283 H 0.41185 0.68942 0.25837 0.0
H1284 H 0.40806 0.71773 0.24635 0.0
H1285 H 0.40119 0.73508 0.22514 0.0
H1286 H 0.35758 0.8266 0.25159 0.0
H1287 H 0.35314 0.79815 0.2393 0.0
C1288 C 0.43499 0.14712 0.50192 0.0
C1289 C 0.42794 0.13208 0.50864 0.0
C1290 C 0.45195 0.14639 0.49588 0.0
C1291 C 0.49168 0.11684 0.48927 0.0
H1292 H 0.51697 0.15827 0.50344 0.0
C1293 C 0.56492 0.11608 0.50792 0.0
C1294 C 0.57422 0.13237 0.50849 0.0
C1295 C 0.54768 0.11543 0.50224 0.0
C1296 C 0.51026 0.14677 0.499 0.0
H1297 H 0.4322 0.10419 0.51364 0.0
H1298 H 0.46223 0.10298 0.50362 0.0
H1299 H 0.48481 0.15815 0.50341 0.0
H1300 H 0.57398 0.16023 0.50242 0.0
H1301 H 0.54441 0.15896 0.49174 0.0
H1302 H 0.5175 0.10518 0.48557 0.0
C1303 C 0.45458 0.11522 0.50257 0.0
C1304 C 0.49164 0.1467 0.49899 0.0
C1305 C 0.4374 0.11588 0.50834 0.0
C1306 C 0.56694 0.14755 0.5021 0.0
C1307 C 0.54995 0.14682 0.49612 0.0
C1308 C 0.51046 0.11692 0.48927 0.0
C1309 C 0.4624 0.13075 0.49691 0.0
C1310 C 0.48206 0.13159 0.49446 0.0
C1311 C 0.53965 0.13105 0.49691 0.0
C1312 C 0.51997 0.13174 0.49447 0.0
H1313 H 0.42783 0.15975 0.50206 0.0
H1314 H 0.45737 0.15845 0.49128 0.0
H1315 H 0.48471 0.10504 0.4856 0.0
H1316 H 0.57029 0.10427 0.51295 0.0
H1317 H 0.54018 0.10308 0.50311 0.0
C1318 C 0.93713 0.85788 0.0014 0.0
C1319 C 0.93014 0.87295 0.00812 0.0
C1320 C 0.95388 0.85869 0.99502 0.0
C1321 C 0.99311 0.88876 0.98762 0.0
H1322 H 0.01931 0.84726 0.00063 0.0
C1323 C 0.06611 0.88987 0.00637 0.0
C1324 C 0.07573 0.87376 0.00645 0.0
C1325 C 0.049 0.89054 0.00049 0.0
C1326 C 0.01232 0.8588 0.99652 0.0
H1327 H 0.93431 0.90095 0.0128 0.0
H1328 H 0.964 0.90228 0.00226 0.0
H1329 H 0.98716 0.84699 0.0012 0.0
H1330 H 0.07618 0.8463 -0.00063 0.0
H1331 H 0.04673 0.84763 0.98844 0.0
H1332 H 0.0187 0.90088 0.98376 0.0
C1333 C 0.95645 0.88995 0.00143 0.0
C1334 C 0.9937 0.85864 0.99684 0.0
C1335 C 0.93946 0.88922 0.00752 0.0
C1336 C 0.06892 0.85887 -0.00062 0.0
C1337 C 0.05201 0.85962 0.99326 0.0
C1338 C 0.01188 0.88893 0.98733 0.0
C1339 C 0.96423 0.87443 0.99572 0.0
C1340 C 0.98381 0.87378 0.99278 0.0
C1341 C 0.04137 0.8751 0.99453 0.0
C1342 C 0.02171 0.8741 0.99215 0.0
H1343 H 0.93008 0.8452 0.00175 0.0
H1344 H 0.95921 0.84662 0.99037 0.0
H1345 H 0.98592 0.90058 0.98424 0.0
H1346 H 0.07111 0.90143 0.01195 0.0
H1347 H 0.04121 0.90266 0.00175 0.0
C1348 C 0.44309 0.85963 0.48985 0.0
C1349 C 0.43121 0.8739 0.48764 0.0
C1350 C 0.45937 0.86246 0.49653 0.0
C1351 C 0.49275 0.89689 0.49819 0.0
H1352 H 0.51844 0.85969 0.51794 0.0
C1353 C 0.56878 0.89002 0.49251 0.0
C1354 C 0.57261 0.87307 0.48691 0.0
C1355 C 0.55235 0.89312 0.49912 0.0
C1356 C 0.51145 0.87038 0.51263 0.0
H1357 H 0.42642 0.90208 0.49146 0.0
H1358 H 0.45532 0.90718 0.50296 0.0
H1359 H 0.48575 0.85992 0.51819 0.0
H1360 H 0.5632 0.84576 0.48489 0.0
H1361 H 0.53488 0.85102 0.49653 0.0
H1362 H 0.51838 0.90653 0.49172 0.0
C1363 C 0.45189 0.89377 0.4996 0.0
C1364 C 0.49275 0.87052 0.51277 0.0
C1365 C 0.43536 0.89085 0.49308 0.0
C1366 C 0.56051 0.85898 0.48904 0.0
C1367 C 0.54434 0.86197 0.49583 0.0
C1368 C 0.51147 0.89677 0.49806 0.0
C1369 C 0.46428 0.87969 0.50099 0.0
C1370 C 0.48323 0.8831 0.50482 0.0
C1371 C 0.53976 0.87921 0.50049 0.0
C1372 C 0.52095 0.88285 0.50456 0.0
H1373 H 0.44015 0.84641 0.48582 0.0
H1374 H 0.46866 0.85135 0.49725 0.0
H1375 H 0.48583 0.90674 0.49193 0.0
H1376 H 0.5779 0.90111 0.49096 0.0
H1377 H 0.54917 0.90653 0.50262 0.0
C1378 C 0.06539 0.11685 0.98972 0.0
C1379 C 0.07466 0.13316 0.9891 0.0
C1380 C 0.04813 0.11621 0.99535 0.0
C1381 C 0.01065 0.14751 0.99807 0.0
H1382 H 0.98494 0.10603 0.01176 0.0
C1383 C 0.93536 0.14793 0.99489 0.0
C1384 C 0.92822 0.13274 0.98842 0.0
C1385 C 0.95233 0.14729 0.00091 0.0
C1386 C 0.99195 0.11776 0.00799 0.0
H1387 H 0.07432 0.16106 0.99505 0.0
H1388 H 0.04469 0.15981 0.00563 0.0
H1389 H 0.01774 0.10615 0.01197 0.0
H1390 H 0.93237 0.1047 0.98388 0.0
H1391 H 0.96243 0.10366 0.99386 0.0
H1392 H 0.98526 0.15882 0.99338 0.0
C1393 C 0.05029 0.14764 0.00134 0.0
C1394 C 0.01073 0.11783 0.00811 0.0
C1395 C 0.06732 0.14836 0.99543 0.0
C1396 C 0.93763 0.11651 0.98897 0.0
C1397 C 0.95483 0.11595 0.99472 0.0
C1398 C 0.99203 0.14744 0.99796 0.0
C1399 C 0.04002 0.13186 0.00056 0.0
C1400 C 0.0203 0.13257 0.00283 0.0
C1401 C 0.96273 0.1316 0.00012 0.0
C1402 C 0.98239 0.13243 0.0026 0.0
H1403 H 0.0708 0.10502 0.98474 0.0
H1404 H 0.04064 0.10384 0.9945 0.0
H1405 H 0.01742 0.15893 0.99357 0.0
H1406 H 0.92825 0.16058 0.99456 0.0
H1407 H 0.95779 0.15946 0.00532 0.0
C1408 C 0.11573 0.43849 0.98323 0.0
C1409 C 0.13038 0.42692 0.98481 0.0
C1410 C 0.11732 0.4567 0.98618 0.0
C1411 C 0.14645 0.49114 0.00293 0.0
H1412 H 0.11775 0.52284 0.98009 0.0
C1413 C 0.14727 0.57016 0.0045 0.0
C1414 C 0.13066 0.57645 0.00931 0.0
C1415 C 0.14926 0.55217 0.00051 0.0
C1416 C 0.12595 0.51415 0.98645 0.0
H1417 H 0.15815 0.42521 0.99106 0.0
H1418 H 0.16124 0.45734 0.99583 0.0
H1419 H 0.11766 0.49079 0.97547 0.0
H1420 H 0.10304 0.56922 0.01326 0.0
H1421 H 0.10632 0.53817 0.00566 0.0
H1422 H 0.15487 0.51492 0.0137 0.0
C1423 C 0.14833 0.45227 0.99258 0.0
C1424 C 0.12575 0.49572 0.98396 0.0
C1425 C 0.1466 0.43385 0.98986 0.0
C1426 C 0.11597 0.56471 0.00956 0.0
C1427 C 0.11784 0.54697 0.00523 0.0
C1428 C 0.1469 0.5097 0.00524 0.0
C1429 C 0.13378 0.46402 0.99047 0.0
C1430 C 0.13556 0.48385 0.99242 0.0
C1431 C 0.13454 0.54045 0.00091 0.0
C1432 C 0.13631 0.52128 0.99722 0.0
H1433 H 0.10299 0.43348 0.9795 0.0
H1434 H 0.1056 0.46507 0.98493 0.0
H1435 H 0.15412 0.48252 0.00971 0.0
H1436 H 0.15882 0.57892 0.00437 0.0
H1437 H 0.16225 0.54739 0.99718 0.0
C1438 C 0.81343 0.88458 0.22266 0.0
C1439 C 0.82654 0.88311 0.233 0.0
C1440 C 0.79543 0.88673 0.22611 0.0
C1441 C 0.76421 0.89594 0.25568 0.0
H1442 H 0.73018 0.87226 0.23144 0.0
C1443 C 0.69232 0.87667 0.27175 0.0
C1444 C 0.67829 0.88058 0.26251 0.0
C1445 C 0.71013 0.87932 0.2679 0.0
C1446 C 0.73949 0.87915 0.2382 0.0
H1447 H 0.83125 0.88306 0.25511 0.0
H1448 H 0.79956 0.88585 0.2613 0.0
H1449 H 0.76182 0.872 0.22562 0.0
H1450 H 0.67194 0.89047 0.24199 0.0
H1451 H 0.70338 0.89461 0.23505 0.0
H1452 H 0.74168 0.90213 0.26863 0.0
C1453 C 0.80319 0.88593 0.25044 0.0
C1454 C 0.7577 0.87909 0.23487 0.0
C1455 C 0.82137 0.88424 0.24694 0.0
C1456 C 0.68247 0.88733 0.24931 0.0
C1457 C 0.70042 0.88967 0.24535 0.0
C1458 C 0.74599 0.89571 0.25913 0.0
C1459 C 0.78991 0.88692 0.24004 0.0
C1460 C 0.77039 0.88745 0.24356 0.0
C1461 C 0.7144 0.88567 0.25464 0.0
C1462 C 0.73347 0.88724 0.25045 0.0
H1463 H 0.81711 0.88404 0.2118 0.0
H1464 H 0.78584 0.88808 0.21776 0.0
H1465 H 0.7734 0.90281 0.26253 0.0
H1466 H 0.68956 0.87155 0.28203 0.0
H1467 H 0.7206 0.87594 0.27522 0.0
C1468 C 0.37443 0.44266 0.52365 0.0
C1469 C 0.37247 0.4283 0.51435 0.0
C1470 C 0.37195 0.46029 0.51927 0.0
C1471 C 0.37655 0.48876 0.48927 0.0
H1472 H 0.34809 0.52284 0.51014 0.0
C1473 C 0.37105 0.56184 0.47129 0.0
C1474 C 0.37041 0.57544 0.48133 0.0
C1475 C 0.36922 0.5439 0.47504 0.0
C1476 C 0.3563 0.5136 0.50429 0.0
H1477 H 0.36617 0.42114 0.49316 0.0
H1478 H 0.36237 0.45227 0.48531 0.0
H1479 H 0.34848 0.49135 0.51701 0.0
H1480 H 0.36703 0.58099 0.50317 0.0
H1481 H 0.36466 0.54947 0.50994 0.0
H1482 H 0.38521 0.51086 0.47699 0.0
C1483 C 0.36564 0.44971 0.49607 0.0
C1484 C 0.35638 0.49552 0.50816 0.0
C1485 C 0.36776 0.43195 0.50054 0.0
C1486 C 0.36754 0.57076 0.49523 0.0
C1487 C 0.36608 0.55267 0.49906 0.0
C1488 C 0.37673 0.50685 0.48554 0.0
C1489 C 0.36776 0.46404 0.50541 0.0
C1490 C 0.36655 0.48294 0.50071 0.0
C1491 C 0.36713 0.53895 0.48901 0.0
C1492 C 0.36662 0.51958 0.49299 0.0
H1493 H 0.37794 0.44028 0.53439 0.0
H1494 H 0.37383 0.47105 0.52666 0.0
H1495 H 0.38475 0.47941 0.4835 0.0
H1496 H 0.37296 0.56507 0.46045 0.0
H1497 H 0.36952 0.53391 0.46692 0.0
C1498 C 0.81357 0.11994 0.77419 0.0
C1499 C 0.8269 0.12074 0.76396 0.0
C1500 C 0.79562 0.11786 0.77058 0.0
C1501 C 0.76478 0.10749 0.74104 0.0
H1502 H 0.73085 0.13335 0.764 0.0
C1503 C 0.69323 0.12674 0.72383 0.0
C1504 C 0.67913 0.12374 0.7332 0.0
C1505 C 0.71098 0.12403 0.7278 0.0
C1506 C 0.74013 0.12586 0.75761 0.0
H1507 H 0.83206 0.11956 0.74194 0.0
H1508 H 0.80045 0.1168 0.73545 0.0
H1509 H 0.76241 0.13346 0.77008 0.0
H1510 H 0.67257 0.11538 0.75408 0.0
H1511 H 0.7039 0.11115 0.76123 0.0
H1512 H 0.74232 0.1008 0.72817 0.0
C1513 C 0.80387 0.11726 0.74634 0.0
C1514 C 0.75829 0.12583 0.76109 0.0
C1515 C 0.822 0.11892 0.75001 0.0
C1516 C 0.68317 0.1178 0.74665 0.0
C1517 C 0.70105 0.11542 0.75073 0.0
C1518 C 0.74662 0.10779 0.73743 0.0
C1519 C 0.79038 0.11702 0.7566 0.0
C1520 C 0.77093 0.11666 0.75287 0.0
C1521 C 0.71512 0.11854 0.74132 0.0
C1522 C 0.73413 0.11703 0.74566 0.0
H1523 H 0.81702 0.12101 0.78506 0.0
H1524 H 0.78583 0.11709 0.77883 0.0
H1525 H 0.77396 0.10003 0.73456 0.0
H1526 H 0.69056 0.13121 0.71335 0.0
H1527 H 0.72154 0.12671 0.72038 0.0
C1528 C 0.87007 0.56304 0.02387 0.0
C1529 C 0.87095 0.5764 0.01366 0.0
C1530 C 0.86781 0.5451 0.02026 0.0
C1531 C 0.85692 0.51438 0.99074 0.0
H1532 H 0.88211 0.48001 0.01376 0.0
C1533 C 0.87468 0.44237 0.97359 0.0
C1534 C 0.87155 0.42832 0.98299 0.0
C1535 C 0.87229 0.46019 0.97755 0.0
C1536 C 0.8748 0.48941 0.00735 0.0
H1537 H 0.86976 0.58157 0.99164 0.0
H1538 H 0.8667 0.54997 0.98514 0.0
H1539 H 0.88282 0.51159 0.01978 0.0
H1540 H 0.86328 0.42194 0.00392 0.0
H1541 H 0.85961 0.45337 0.01105 0.0
H1542 H 0.8498 0.492 0.97791 0.0
C1543 C 0.86723 0.55338 0.99603 0.0
C1544 C 0.87512 0.50759 0.0108 0.0
C1545 C 0.86907 0.57151 -0.0003 0.0
C1546 C 0.86579 0.43249 0.99647 0.0
C1547 C 0.86374 0.45044 0.00054 0.0
C1548 C 0.85688 0.49619 0.98716 0.0
C1549 C 0.86687 0.53987 0.00628 0.0
C1550 C 0.86619 0.5204 0.00256 0.0
C1551 C 0.86701 0.46445 0.9911 0.0
C1552 C 0.86586 0.48353 0.99541 0.0
H1553 H 0.87117 0.56647 0.03475 0.0
H1554 H 0.86696 0.53532 0.02852 0.0
H1555 H 0.84963 0.52368 0.98424 0.0
H1556 H 0.87901 0.43962 0.96309 0.0
H1557 H 0.87508 0.47068 0.9701 0.0
C1558 C 0.19164 0.12683 0.77244 0.0
C1559 C 0.17746 0.12406 0.76309 0.0
C1560 C 0.20934 0.12398 0.7684 0.0
C1561 C 0.23846 0.12601 0.73866 0.0
H1562 H 0.27194 0.09919 0.76133 0.0
C1563 C 0.31195 0.1197 0.72216 0.0
C1564 C 0.32526 0.11994 0.73243 0.0
C1565 C 0.29395 0.11782 0.72567 0.0
C1566 C 0.26287 0.10693 0.75496 0.0
H1567 H 0.17071 0.11598 0.74219 0.0
H1568 H 0.20199 0.11154 0.73491 0.0
H1569 H 0.2403 0.10018 0.7677 0.0
H1570 H 0.33026 0.11801 0.75444 0.0
H1571 H 0.29859 0.11561 0.76079 0.0
H1572 H 0.26086 0.1337 0.72634 0.0
C1573 C 0.19922 0.11572 0.74544 0.0
C1574 C 0.24471 0.10735 0.75855 0.0
C1575 C 0.18137 0.11822 0.74959 0.0
C1576 C 0.32024 0.1178 0.74633 0.0
C1577 C 0.30207 0.11634 0.74992 0.0
C1578 C 0.25663 0.12588 0.7352 0.0
C1579 C 0.21336 0.1186 0.75484 0.0
C1580 C 0.23234 0.11694 0.75046 0.0
C1581 C 0.28863 0.11662 0.73962 0.0
C1582 C 0.26915 0.11636 0.74329 0.0
H1583 H 0.18906 0.13122 0.78295 0.0
H1584 H 0.21996 0.12648 0.77581 0.0
H1585 H 0.22928 0.13378 0.73238 0.0
H1586 H 0.31548 0.12103 0.71131 0.0
H1587 H 0.2842 0.11747 0.71738 0.0
C1588 C 0.64037 0.43208 0.50222 0.0
C1589 C 0.63279 0.4267 0.51489 0.0
C1590 C 0.64177 0.45039 0.49894 0.0
C1591 C 0.61994 0.49307 0.50773 0.0
H1592 H 0.66061 0.51599 0.49015 0.0
C1593 C 0.61477 0.56223 0.48272 0.0
C1594 C 0.62809 0.57494 0.48567 0.0
C1595 C 0.61673 0.54447 0.48685 0.0
C1596 C 0.64925 0.50975 0.49518 0.0
H1597 H 0.62175 0.4363 0.53434 0.0
H1598 H 0.62435 0.46775 0.52873 0.0
H1599 H 0.66194 0.4839 0.49587 0.0
H1600 H 0.65398 0.57903 0.49528 0.0
H1601 H 0.65752 0.54755 0.50248 0.0
H1602 H 0.60717 0.51866 0.50703 0.0
C1603 C 0.6288 0.45801 0.52115 0.0
C1604 C 0.64992 0.49139 0.4983 0.0
C1605 C 0.62733 0.43991 0.52437 0.0
C1606 C 0.64345 0.56952 0.49297 0.0
C1607 C 0.64554 0.55153 0.49696 0.0
C1608 C 0.61922 0.51126 0.50455 0.0
C1609 C 0.63564 0.46352 0.50831 0.0
C1610 C 0.63525 0.48287 0.50463 0.0
C1611 C 0.63214 0.53886 0.49393 0.0
C1612 C 0.63379 0.5198 0.49817 0.0
H1613 H 0.64478 0.4222 0.49475 0.0
H1614 H 0.64708 0.45425 0.48894 0.0
H1615 H 0.60832 0.48691 0.51247 0.0
H1616 H 0.60278 0.56598 0.47711 0.0
H1617 H 0.60624 0.53501 0.48427 0.0
C1618 C 0.19405 0.87901 0.22301 0.0
C1619 C 0.18001 0.88145 0.23254 0.0
C1620 C 0.21185 0.88106 0.22708 0.0
C1621 C 0.24107 0.87607 0.2566 0.0
H1622 H 0.27514 0.9037 0.23507 0.0
C1623 C 0.31455 0.88027 0.27356 0.0
C1624 C 0.32797 0.88063 0.26337 0.0
C1625 C 0.29659 0.88245 0.27001 0.0
C1626 C 0.2659 0.89572 0.2411 0.0
H1627 H 0.17362 0.88811 0.25381 0.0
H1628 H 0.20504 0.89115 0.26111 0.0
H1629 H 0.24349 0.90387 0.22869 0.0
H1630 H 0.33319 0.88392 0.24148 0.0
H1631 H 0.30157 0.88686 0.23505 0.0
H1632 H 0.2633 0.86706 0.26857 0.0
C1633 C 0.2021 0.88785 0.25042 0.0
C1634 C 0.24773 0.89596 0.23751 0.0
C1635 C 0.18417 0.88615 0.24626 0.0
C1636 C 0.32309 0.88362 0.24953 0.0
C1637 C 0.30495 0.8854 0.2459 0.0
C1638 C 0.25924 0.87556 0.26005 0.0
C1639 C 0.2161 0.88529 0.24085 0.0
C1640 C 0.23515 0.88611 0.24521 0.0
C1641 C 0.29141 0.88459 0.2561 0.0
C1642 C 0.27197 0.88538 0.25237 0.0
H1643 H 0.19129 0.8755 0.21233 0.0
H1644 H 0.22235 0.87884 0.21953 0.0
H1645 H 0.23172 0.8681 0.26256 0.0
H1646 H 0.31795 0.87831 0.28437 0.0
H1647 H 0.28677 0.88236 0.27826 0.0
C1648 C 0.63123 0.06147 0.523 0.0
C1649 C 0.63354 0.07571 0.51362 0.0
C1650 C 0.63346 0.04376 0.51873 0.0
C1651 C 0.62865 0.01517 0.48883 0.0
H1652 H 0.6562 0.98066 0.51 0.0
C1653 C 0.63287 0.94195 0.47108 0.0
C1654 C 0.63311 0.92838 0.48114 0.0
C1655 C 0.63507 0.95986 0.4748 0.0
C1656 C 0.64824 0.99003 0.50406 0.0
H1657 H 0.64021 0.08256 0.49244 0.0
H1658 H 0.64359 0.0513 0.4848 0.0
H1659 H 0.65633 0.0122 0.51677 0.0
H1660 H 0.63617 0.92283 0.50301 0.0
H1661 H 0.63916 0.95433 0.50974 0.0
H1662 H 0.6197 0.99318 0.47656 0.0
C1663 C 0.64023 0.05401 0.49551 0.0
C1664 C 0.64846 0.00813 0.50788 0.0
C1665 C 0.63836 0.07185 0.49988 0.0
C1666 C 0.63598 0.93305 0.49505 0.0
C1667 C 0.63778 0.95112 0.49885 0.0
C1668 C 0.62816 0.99707 0.48515 0.0
C1669 C 0.63775 0.03981 0.50492 0.0
C1670 C 0.63863 0.02086 0.50031 0.0
C1671 C 0.63712 0.96482 0.48877 0.0
C1672 C 0.63794 0.98419 0.4927 0.0
H1673 H 0.62762 0.06401 0.53369 0.0
H1674 H 0.6313 0.0331 0.52616 0.0
H1675 H 0.62069 0.02464 0.48296 0.0
H1676 H 0.63099 0.93872 0.46023 0.0
H1677 H 0.63507 0.96982 0.46665 0.0
C1678 C 0.18257 0.39312 0.75308 0.0
C1679 C 0.17795 0.38114 0.76373 0.0
C1680 C 0.20061 0.39568 0.74944 0.0
C1681 C 0.23877 0.38935 0.73862 0.0
H1682 H 0.27497 0.38783 0.76744 0.0
C1683 C 0.31171 0.37129 0.72683 0.0
C1684 C 0.32568 0.37993 0.73396 0.0
C1685 C 0.29389 0.37419 0.73049 0.0
C1686 C 0.26507 0.38855 0.75926 0.0
H1687 H 0.18863 0.36234 0.77877 0.0
H1688 H 0.21967 0.36658 0.77234 0.0
H1689 H 0.24337 0.38842 0.77375 0.0
H1690 H 0.33183 0.39841 0.75059 0.0
H1691 H 0.30044 0.40354 0.75705 0.0
H1692 H 0.26046 0.38944 0.72413 0.0
C1693 C 0.20956 0.37431 0.76696 0.0
C1694 C 0.24692 0.38867 0.76287 0.0
C1695 C 0.19167 0.37174 0.77056 0.0
C1696 C 0.32137 0.39152 0.74493 0.0
C1697 C 0.3034 0.39443 0.74863 0.0
C1698 C 0.25691 0.38924 0.73501 0.0
C1699 C 0.21432 0.38637 0.75643 0.0
C1700 C 0.23353 0.38858 0.75259 0.0
C1701 C 0.28944 0.38585 0.74137 0.0
C1702 C 0.27029 0.38835 0.74528 0.0
H1703 H 0.17232 0.4006 0.74766 0.0
H1704 H 0.20382 0.40512 0.74129 0.0
H1705 H 0.22886 0.38925 0.73043 0.0
H1706 H 0.31449 0.36219 0.71836 0.0
H1707 H 0.28358 0.36701 0.72488 0.0
C1708 C 0.87239 0.94296 0.02345 0.0
C1709 C 0.86995 0.92874 0.01409 0.0
C1710 C 0.86976 0.96067 0.0193 0.0
C1711 C 0.87293 0.98951 0.98934 0.0
H1712 H 0.84633 0.02365 0.01157 0.0
C1713 C 0.86775 0.06291 0.97223 0.0
C1714 C 0.86804 0.07637 0.98239 0.0
C1715 C 0.86564 0.04496 0.97589 0.0
C1716 C 0.85402 0.01439 0.00532 0.0
H1717 H 0.86261 0.92191 0.99304 0.0
H1718 H 0.8585 0.95316 0.98558 0.0
H1719 H 0.84672 0.99205 0.01814 0.0
H1720 H 0.86596 0.0817 0.00435 0.0
H1721 H 0.86314 0.05012 0.01095 0.0
H1722 H 0.88112 0.01167 0.97694 0.0
C1723 C 0.86228 0.95044 0.99621 0.0
C1724 C 0.85409 0.99624 0.00903 0.0
C1725 C 0.86458 0.9326 0.00046 0.0
C1726 C 0.86573 0.07156 0.99632 0.0
C1727 C 0.86403 0.05344 6e-05 0.0
C1728 C 0.87312 0.00765 0.98576 0.0
C1729 C 0.86491 0.96464 0.0056 0.0
C1730 C 0.8636 0.98363 0.0011 0.0
C1731 C 0.86424 0.03985 0.98987 0.0
C1732 C 0.86368 0.02041 0.99369 0.0
H1733 H 0.87642 0.94043 0.03406 0.0
H1734 H 0.87205 0.97131 0.02672 0.0
H1735 H 0.88065 0.98015 0.98318 0.0
H1736 H 0.86918 0.06626 0.96136 0.0
H1737 H 0.86525 0.0351 0.96768 0.0
C1738 C 0.31493 0.6395 0.25905 0.0
C1739 C 0.32645 0.62466 0.2593 0.0
C1740 C 0.29718 0.63764 0.25481 0.0
C1741 C 0.25964 0.60843 0.25532 0.0
H1742 H 0.24076 0.63825 0.22588 0.0
C1743 C 0.18386 0.60938 0.23959 0.0
C1744 C 0.1771 0.62581 0.23482 0.0
C1745 C 0.20222 0.60749 0.24248 0.0
C1746 C 0.24569 0.62999 0.23428 0.0
H1747 H 0.32854 0.59619 0.25531 0.0
H1748 H 0.29697 0.5928 0.24824 0.0
H1749 H 0.27281 0.6379 0.23039 0.0
H1750 H 0.1838 0.65339 0.23025 0.0
H1751 H 0.21528 0.65047 0.23595 0.0
H1752 H 0.23243 0.60125 0.25976 0.0
C1753 C 0.30193 0.6059 0.25114 0.0
C1754 C 0.26411 0.62965 0.23671 0.0
C1755 C 0.31994 0.60787 0.25505 0.0
C1756 C 0.18871 0.64051 0.23376 0.0
C1757 C 0.20684 0.63874 0.23687 0.0
C1758 C 0.24108 0.60899 0.25305 0.0
C1759 C 0.29041 0.6208 0.25105 0.0
C1760 C 0.27123 0.61911 0.24738 0.0
C1761 C 0.21404 0.62207 0.24079 0.0
C1762 C 0.23382 0.62012 0.24268 0.0
H1763 H 0.31961 0.65258 0.26231 0.0
H1764 H 0.28854 0.6493 0.25487 0.0
H1765 H 0.26485 0.6003 0.2637 0.0
H1766 H 0.17519 0.59781 0.24038 0.0
H1767 H 0.20722 0.59445 0.24547 0.0
C1768 C 0.36565 0.06348 0.52408 0.0
C1769 C 0.36691 0.077 0.51403 0.0
C1770 C 0.3637 0.04559 0.52022 0.0
C1771 C 0.35464 0.01526 0.49013 0.0
H1772 H 0.37982 0.98104 0.51329 0.0
C1773 C 0.37422 0.94383 0.47265 0.0
C1774 C 0.37109 0.92964 0.48193 0.0
C1775 C 0.37146 0.96156 0.4767 0.0
C1776 C 0.37252 0.99039 0.50683 0.0
H1777 H 0.36666 0.08257 0.49205 0.0
H1778 H 0.36412 0.05107 0.48514 0.0
H1779 H 0.37955 0.0125 0.5197 0.0
H1780 H 0.36245 0.92291 0.50271 0.0
H1781 H 0.35808 0.95416 0.50997 0.0
H1782 H 0.3485 0.99299 0.4769 0.0
C1783 C 0.36412 0.0543 0.49607 0.0
C1784 C 0.37228 0.00849 0.5105 0.0
C1785 C 0.36565 0.07236 0.49999 0.0
C1786 C 0.36498 0.93357 0.49535 0.0
C1787 C 0.36252 0.95142 0.4995 0.0
C1788 C 0.35515 0.99716 0.48634 0.0
C1789 C 0.36347 0.04062 0.50617 0.0
C1790 C 0.36334 0.02124 0.50222 0.0
C1791 C 0.36577 0.96558 0.4902 0.0
C1792 C 0.36414 0.98456 0.49464 0.0
H1793 H 0.36629 0.06673 0.53501 0.0
H1794 H 0.3626 0.03565 0.52834 0.0
H1795 H 0.34738 0.02453 0.48359 0.0
H1796 H 0.37883 0.94126 0.4622 0.0
H1797 H 0.37425 0.97218 0.46937 0.0
C1798 C 0.68263 0.61586 0.2504 0.0
C1799 C 0.67866 0.62295 0.26353 0.0
C1800 C 0.70051 0.61334 0.24633 0.0
C1801 C 0.74637 0.60779 0.25995 0.0
H1802 H 0.76163 0.62979 0.2256 0.0
C1803 C 0.82149 0.61928 0.24671 0.0
C1804 C 0.82642 0.61958 0.23269 0.0
C1805 C 0.80339 0.61757 0.25045 0.0
C1806 C 0.75766 0.62318 0.2351 0.0
H1807 H 0.69028 0.6324 0.28282 0.0
H1808 H 0.72117 0.62773 0.27582 0.0
H1809 H 0.73007 0.62975 0.2317 0.0
H1810 H 0.81666 0.6171 0.21165 0.0
H1811 H 0.78554 0.61308 0.21808 0.0
H1812 H 0.77387 0.60102 0.26335 0.0
C1813 C 0.71059 0.6242 0.26864 0.0
C1814 C 0.73949 0.62323 0.23859 0.0
C1815 C 0.69285 0.62701 0.27259 0.0
C1816 C 0.81317 0.61721 0.22255 0.0
C1817 C 0.79526 0.61507 0.22626 0.0
C1818 C 0.76454 0.60746 0.25636 0.0
C1819 C 0.71466 0.6175 0.25544 0.0
C1820 C 0.73367 0.61576 0.25113 0.0
C1821 C 0.78996 0.61576 0.24023 0.0
C1822 C 0.7705 0.61533 0.24394 0.0
H1823 H 0.67198 0.61261 0.24322 0.0
H1824 H 0.7033 0.60812 0.23609 0.0
H1825 H 0.74222 0.60183 0.26967 0.0
H1826 H 0.83148 0.62117 0.25471 0.0
H1827 H 0.79991 0.61832 0.26133 0.0
C1828 C 0.13936 0.94131 0.02327 0.0
C1829 C 0.1374 0.92806 0.01307 0.0
C1830 C 0.14155 0.95925 0.01961 0.0
C1831 C 0.14976 0.99019 0.98969 0.0
H1832 H 0.12626 0.02427 0.014 0.0
C1833 C 0.13031 0.06207 0.97344 0.0
C1834 C 0.13395 0.07614 0.98272 0.0
C1835 C 0.13305 0.04427 0.9773 0.0
C1836 C 0.13311 0.01496 0.00721 0.0
H1837 H 0.13665 0.92301 0.99102 0.0
H1838 H 0.13961 0.95461 0.98449 0.0
H1839 H 0.12642 0.99268 0.02002 0.0
H1840 H 0.14346 0.08254 0.00333 0.0
H1841 H 0.1478 0.05115 0.01028 0.0
H1842 H 0.15555 0.01265 0.97656 0.0
C1843 C 0.13999 0.95113 0.99537 0.0
C1844 C 0.13328 0.99677 0.01066 0.0
C1845 C 0.13823 0.933 -0.00093 0.0
C1846 C 0.14053 0.07199 0.99597 0.0
C1847 C 0.14297 0.05406 -6e-05 0.0
C1848 C 0.14932 0.00838 0.98614 0.0
C1849 C 0.14131 0.96457 0.00563 0.0
C1850 C 0.14159 0.98406 0.00196 0.0
C1851 C 0.13924 0.04002 0.99062 0.0
C1852 C 0.14093 0.02094 0.99484 0.0
H1853 H 0.13902 0.93781 0.03416 0.0
H1854 H 0.14316 0.96897 0.02784 0.0
H1855 H 0.15655 0.98096 0.98282 0.0
H1856 H 0.12532 0.0648 0.96312 0.0
H1857 H 0.12987 0.03377 0.96995 0.0
C1858 C 0.82079 0.38882 0.75095 0.0
C1859 C 0.82492 0.38089 0.76375 0.0
C1860 C 0.80287 0.39156 0.74709 0.0
C1861 C 0.75717 0.39611 0.76121 0.0
H1862 H 0.74175 0.37769 0.72566 0.0
C1863 C 0.68207 0.38596 0.74718 0.0
C1864 C 0.67723 0.38695 0.73317 0.0
C1865 C 0.70012 0.38756 0.75108 0.0
C1866 C 0.74577 0.3833 0.73551 0.0
H1867 H 0.81355 0.37003 0.78268 0.0
H1868 H 0.78254 0.37502 0.77602 0.0
H1869 H 0.77328 0.37677 0.73177 0.0
H1870 H 0.68699 0.39164 0.71237 0.0
H1871 H 0.71805 0.39553 0.71913 0.0
H1872 H 0.72972 0.40281 0.76496 0.0
C1873 C 0.79305 0.37908 0.76895 0.0
C1874 C 0.76392 0.38269 0.73901 0.0
C1875 C 0.81084 0.37609 0.7727 0.0
C1876 C 0.69045 0.39061 0.72325 0.0
C1877 C 0.70831 0.39264 0.72713 0.0
C1878 C 0.73901 0.39698 0.75763 0.0
C1879 C 0.78884 0.38673 0.75609 0.0
C1880 C 0.76979 0.38888 0.75195 0.0
C1881 C 0.71356 0.39052 0.74104 0.0
C1882 C 0.733 0.39043 0.74477 0.0
H1883 H 0.83135 0.39268 0.74386 0.0
H1884 H 0.79999 0.39753 0.73711 0.0
H1885 H 0.76135 0.40109 0.77124 0.0
H1886 H 0.67208 0.38301 0.75499 0.0
H1887 H 0.70358 0.38572 0.76188 0.0
C1888 C 0.14405 0.81925 0.01033 0.0
C1889 C 0.14537 0.82544 0.02404 0.0
C1890 C 0.14919 0.80165 0.007 0.0
C1891 C 0.14496 0.76075 0.00756 0.0
H1892 H 0.18286 0.73519 0.0266 0.0
C1893 C 0.15325 0.68881 0.03454 0.0
C1894 C 0.14542 0.67754 0.02459 0.0
C1895 C 0.15861 0.70616 0.03108 0.0
C1896 C 0.17225 0.74211 0.02113 0.0
H1897 H 0.15421 0.81868 0.04474 0.0
H1898 H 0.16348 0.78839 0.03897 0.0
H1899 H 0.18282 0.76788 0.02646 0.0
H1900 H 0.13798 0.67522 0.003 0.0
H1901 H 0.14736 0.70574 0.99686 0.0
H1902 H 0.1339 0.735 0.00283 0.0
C1903 C 0.15855 0.79689 0.03072 0.0
C1904 C 0.17223 0.76086 0.02105 0.0
C1905 C 0.15322 0.81429 0.03406 0.0
C1906 C 0.14421 0.68354 0.01083 0.0
C1907 C 0.14936 0.70109 0.00737 0.0
C1908 C 0.14499 0.74197 0.00763 0.0
C1909 C 0.15594 0.79006 0.01729 0.0
C1910 C 0.1582 0.77044 0.01473 0.0
C1911 C 0.15605 0.71282 0.01759 0.0
C1912 C 0.15825 0.73241 0.01489 0.0
H1913 H 0.13779 0.82748 0.00246 0.0
H1914 H 0.14713 0.79686 0.99653 0.0
H1915 H 0.13385 0.76762 0.0027 0.0
H1916 H 0.1542 0.68457 0.04526 0.0
H1917 H 0.16351 0.71478 0.03927 0.0
C1918 C 0.56508 0.90313 0.28198 0.0
C1919 C 0.57632 0.89465 0.27234 0.0
C1920 C 0.548 0.90891 0.27816 0.0
C1921 C 0.51256 0.89489 0.25472 0.0
H1922 H 0.48667 0.9333 0.27285 0.0
C1923 C 0.4357 0.89261 0.25865 0.0
C1924 C 0.43005 0.89405 0.27249 0.0
C1925 C 0.45294 0.89829 0.2548 0.0
C1926 C 0.49369 0.92256 0.26761 0.0
H1927 H 0.57898 0.88656 0.25091 0.0
H1928 H 0.54893 0.89666 0.24414 0.0
H1929 H 0.51936 0.93346 0.27283 0.0
H1930 H 0.43727 0.90381 0.29284 0.0
H1931 H 0.46692 0.914 0.28618 0.0
H1932 H 0.48695 0.88343 0.2502 0.0
C1933 C 0.55339 0.89886 0.25468 0.0
C1934 C 0.51243 0.92266 0.2676 0.0
C1935 C 0.57067 0.89328 0.2585 0.0
C1936 C 0.44125 0.90267 0.28208 0.0
C1937 C 0.45828 0.90854 0.27822 0.0
C1938 C 0.49381 0.89479 0.25474 0.0
C1939 C 0.54161 0.90612 0.26462 0.0
C1940 C 0.52211 0.90842 0.26168 0.0
C1941 C 0.46467 0.90572 0.26469 0.0
C1942 C 0.48414 0.90821 0.26172 0.0
H1943 H 0.56906 0.9042 0.29275 0.0
H1944 H 0.53933 0.91425 0.28614 0.0
H1945 H 0.51953 0.88361 0.25016 0.0
H1946 H 0.42742 0.88579 0.2511 0.0
H1947 H 0.45739 0.89605 0.24426 0.0
C1948 C 0.35936 0.18535 0.51017 0.0
C1949 C 0.35731 0.17949 0.5239 0.0
C1950 C 0.35442 0.20287 0.50644 0.0
C1951 C 0.35921 0.24365 0.50688 0.0
H1952 H 0.32082 0.27004 0.5246 0.0
C1953 C 0.35178 0.31502 0.53436 0.0
C1954 C 0.36041 0.32628 0.52483 0.0
C1955 C 0.34596 0.29799 0.53045 0.0
C1956 C 0.33156 0.26288 0.51947 0.0
H1957 H 0.3473 0.18666 0.54419 0.0
H1958 H 0.33838 0.21681 0.53774 0.0
H1959 H 0.32006 0.23736 0.52434 0.0
H1960 H 0.36888 0.32899 0.50349 0.0
H1961 H 0.35877 0.29897 0.49656 0.0
H1962 H 0.3712 0.26913 0.50268 0.0
C1963 C 0.34374 0.20813 0.52976 0.0
C1964 C 0.33112 0.24414 0.51932 0.0
C1965 C 0.34888 0.19081 0.5335 0.0
C1966 C 0.36204 0.32065 0.511 0.0
C1967 C 0.35644 0.3034 0.50709 0.0
C1968 C 0.35963 0.26241 0.50701 0.0
C1969 C 0.34715 0.21468 0.51636 0.0
C1970 C 0.34534 0.23427 0.51356 0.0
C1971 C 0.34888 0.29165 0.51691 0.0
C1972 C 0.3462 0.27224 0.51384 0.0
H1973 H 0.36607 0.17697 0.50262 0.0
H1974 H 0.35709 0.20745 0.496 0.0
H1975 H 0.37047 0.23653 0.50245 0.0
H1976 H 0.35048 0.31899 0.54512 0.0
H1977 H 0.3404 0.28932 0.53834 0.0
C1978 C 0.93486 0.11103 0.75954 0.0
C1979 C 0.92918 0.10952 0.77336 0.0
C1980 C 0.95222 0.10569 0.75575 0.0
C1981 C 0.99337 0.08226 0.76875 0.0
H1982 H 0.01856 0.12159 0.75124 0.0
C1983 C 0.06434 0.10306 0.78323 0.0
C1984 C 0.07556 0.11142 0.77352 0.0
C1985 C 0.04732 0.09709 0.77942 0.0
C1986 C 0.01178 0.11022 0.75582 0.0
H1987 H 0.93648 0.09998 0.79376 0.0
H1988 H 0.96637 0.09036 0.7872 0.0
H1989 H 0.98598 0.12116 0.75118 0.0
H1990 H 0.07825 0.1192 0.75203 0.0
H1991 H 0.04827 0.10881 0.7453 0.0
H1992 H 0.01921 0.07189 0.77409 0.0
C1993 C 0.95765 0.09563 0.77921 0.0
C1994 C 0.99303 0.10996 0.75578 0.0
C1995 C 0.94049 0.10117 0.78301 0.0
C1996 C 0.06994 0.11257 0.75966 0.0
C1997 C 0.05271 0.10681 0.75587 0.0
C1998 C 0.01211 0.08252 0.7688 0.0
C1999 C 0.96406 0.09852 0.76569 0.0
C2000 C 0.98358 0.09639 0.76278 0.0
C2001 C 0.04097 0.09958 0.76584 0.0
C2002 C 0.02154 0.09691 0.76286 0.0
H2003 H 0.92648 0.11766 0.75195 0.0
H2004 H 0.95668 0.10797 0.74522 0.0
H2005 H 0.98653 0.07142 0.774 0.0
H2006 H 0.06831 0.10214 0.79401 0.0
H2007 H 0.03866 0.09178 0.78743 0.0
C2008 C 0.1451 0.18446 0.98723 0.0
C2009 C 0.14685 0.17852 0.97349 0.0
C2010 C 0.15071 0.20178 0.99095 0.0
C2011 C 0.14753 0.24271 0.99067 0.0
H2012 H 0.18674 0.26775 0.97286 0.0
C2013 C 0.15752 0.31424 0.96381 0.0
C2014 C 0.14895 0.32547 0.9734 0.0
C2015 C 0.16295 0.29701 0.96757 0.0
C2016 C 0.17578 0.26098 0.978 0.0
H2017 H 0.15699 0.18535 0.95317 0.0
H2018 H 0.16707 0.21515 0.95961 0.0
H2019 H 0.18617 0.23506 0.97287 0.0
H2020 H 0.14036 0.32794 0.99473 0.0
H2021 H 0.1499 0.29768 0.0014 0.0
H2022 H 0.13663 0.26859 0.99514 0.0
C2023 C 0.16143 0.20666 0.96759 0.0
C2024 C 0.17544 0.24222 0.978 0.0
C2025 C 0.15564 0.18955 0.96387 0.0
C2026 C 0.14719 0.31965 0.98718 0.0
C2027 C 0.15243 0.30224 0.99093 0.0
C2028 C 0.14786 0.26148 0.99066 0.0
C2029 C 0.15836 0.21333 0.98102 0.0
C2030 C 0.16094 0.23285 0.98383 0.0
C2031 C 0.15972 0.29046 0.981 0.0
C2032 C 0.16161 0.27086 0.98383 0.0
H2033 H 0.13812 0.17633 0.9948 0.0
H2034 H 0.14828 0.20643 0.00141 0.0
H2035 H 0.13605 0.23601 0.99515 0.0
H2036 H 0.15886 0.31833 0.95308 0.0
H2037 H 0.16834 0.28836 0.95959 0.0
C2038 C 0.93652 0.90836 0.21672 0.0
C2039 C 0.92879 0.89511 0.22509 0.0
C2040 C 0.95408 0.91407 0.21909 0.0
C2041 C 0.99419 0.90903 0.2423 0.0
H2042 H 0.01918 0.90871 0.20712 0.0
C2043 C 0.06901 0.88999 0.23538 0.0
C2044 C 0.07809 0.89645 0.22368 0.0
C2045 C 0.05127 0.8952 0.23798 0.0
C2046 C 0.01254 0.90932 0.21708 0.0
H2047 H 0.93287 0.87808 0.24292 0.0
H2048 H 0.96369 0.88776 0.247 0.0
H2049 H 0.98691 0.90842 0.20743 0.0
H2050 H 0.07649 0.91445 0.20619 0.0
H2051 H 0.04604 0.92439 0.21111 0.0
H2052 H 0.02015 0.90918 0.25188 0.0
C2053 C 0.95613 0.89416 0.2388 0.0
C2054 C 0.99386 0.90914 0.21726 0.0
C2055 C 0.93842 0.88864 0.23653 0.0
C2056 C 0.06982 0.90945 0.21538 0.0
C2057 C 0.05225 0.91489 0.21809 0.0
C2058 C 0.01301 0.90921 0.24212 0.0
C2059 C 0.96449 0.90628 0.22967 0.0
C2060 C 0.98437 0.90873 0.22984 0.0
C2061 C 0.04236 0.90703 0.22893 0.0
C2062 C 0.02244 0.90909 0.22948 0.0
H2063 H 0.92942 0.91334 0.20771 0.0
H2064 H 0.95988 0.92376 0.21205 0.0
H2065 H 0.98736 0.90885 0.25219 0.0
H2066 H 0.07498 0.87963 0.24175 0.0
H2067 H 0.04414 0.88877 0.24639 0.0
C2068 C 0.3653 0.68747 0.48572 0.0
C2069 C 0.35809 0.67802 0.47446 0.0
C2070 C 0.36012 0.70522 0.48828 0.0
C2071 C 0.34454 0.74335 0.46743 0.0
H2072 H 0.34698 0.7693 0.50216 0.0
C2073 C 0.34606 0.81945 0.46609 0.0
C2074 C 0.35962 0.82727 0.47411 0.0
C2075 C 0.34037 0.80194 0.46878 0.0
C2076 C 0.34624 0.76225 0.49237 0.0
H2077 H 0.33893 0.67904 0.4577 0.0
H2078 H 0.32913 0.70959 0.46254 0.0
H2079 H 0.34662 0.7365 0.50229 0.0
H2080 H 0.37731 0.82341 0.49158 0.0
H2081 H 0.3677 0.7927 0.49617 0.0
H2082 H 0.34497 0.76877 0.45742 0.0
C2083 C 0.33912 0.7036 0.46923 0.0
C2084 C 0.34604 0.74344 0.49245 0.0
C2085 C 0.34448 0.68598 0.46657 0.0
C2086 C 0.36651 0.81778 0.48547 0.0
C2087 C 0.36102 0.80013 0.48804 0.0
C2088 C 0.34476 0.76204 0.46736 0.0
C2089 C 0.34761 0.71381 0.47959 0.0
C2090 C 0.34547 0.73373 0.47994 0.0
C2091 C 0.3485 0.79168 0.47929 0.0
C2092 C 0.34591 0.77181 0.47979 0.0
H2093 H 0.37614 0.68174 0.49172 0.0
H2094 H 0.36706 0.71262 0.49629 0.0
H2095 H 0.34458 0.73648 0.45756 0.0
H2096 H 0.34075 0.82643 0.45715 0.0
H2097 H 0.33037 0.79608 0.46203 0.0
C2098 C 0.43708 0.11473 0.73635 0.0
C2099 C 0.42776 0.10826 0.72476 0.0
C2100 C 0.4549 0.10961 0.73869 0.0
C2101 C 0.49324 0.09602 0.71721 0.0
H2102 H 0.51918 0.09635 0.75199 0.0
C2103 C 0.56927 0.09807 0.71589 0.0
C2104 C 0.57704 0.11116 0.72439 0.0
C2105 C 0.5518 0.09212 0.71838 0.0
C2106 C 0.51214 0.09622 0.74218 0.0
H2107 H 0.42905 0.09039 0.70718 0.0
H2108 H 0.4597 0.08062 0.71164 0.0
H2109 H 0.4864 0.09565 0.7521 0.0
H2110 H 0.57315 0.12769 0.74253 0.0
H2111 H 0.54249 0.11764 0.74679 0.0
H2112 H 0.51863 0.09737 0.70723 0.0
C2113 C 0.45358 0.09003 0.71874 0.0
C2114 C 0.49333 0.09581 0.74225 0.0
C2115 C 0.43591 0.09536 0.7163 0.0
C2116 C 0.56756 0.11726 0.73602 0.0
C2117 C 0.54994 0.11153 0.73841 0.0
C2118 C 0.51191 0.09643 0.71714 0.0
C2119 C 0.46367 0.09789 0.72947 0.0
C2120 C 0.48361 0.09598 0.72974 0.0
C2121 C 0.54153 0.09954 0.72919 0.0
C2122 C 0.52168 0.09681 0.7296 0.0
H2123 H 0.43121 0.12504 0.74281 0.0
H2124 H 0.46219 0.11604 0.74701 0.0
H2125 H 0.48636 0.09667 0.70734 0.0
H2126 H 0.57625 0.09336 0.70675 0.0
H2127 H 0.54597 0.08253 0.71127 0.0
C2128 C 0.85987 0.3202 0.98712 0.0
C2129 C 0.85787 0.32608 0.97338 0.0
C2130 C 0.85452 0.30283 0.99091 0.0
C2131 C 0.85825 0.26194 0.99058 0.0
H2132 H 0.81888 0.23645 0.97337 0.0
C2133 C 0.84805 0.1902 0.96397 0.0
C2134 C 0.85679 0.17897 0.97348 0.0
C2135 C 0.84277 0.20745 0.96776 0.0
C2136 C 0.8299 0.24335 0.97834 0.0
H2137 H 0.84751 0.31909 0.95316 0.0
H2138 H 0.83783 0.2892 0.95974 0.0
H2139 H 0.81911 0.26914 0.97333 0.0
H2140 H 0.86597 0.17658 0.99466 0.0
H2141 H 0.85671 0.20693 0.00139 0.0
H2142 H 0.86954 0.23619 0.99492 0.0
C2143 C 0.84349 0.29777 0.96766 0.0
C2144 C 0.83003 0.26211 0.97832 0.0
C2145 C 0.84905 0.31494 0.96386 0.0
C2146 C 0.85901 0.18487 0.98719 0.0
C2147 C 0.85392 0.20233 0.99097 0.0
C2148 C 0.85812 0.24317 0.9906 0.0
C2149 C 0.84685 0.29118 0.98107 0.0
C2150 C 0.84457 0.27164 0.98393 0.0
C2151 C 0.84633 0.21405 0.98114 0.0
C2152 C 0.84431 0.23363 0.98397 0.0
H2153 H 0.86689 0.32842 0.99461 0.0
H2154 H 0.85716 0.29823 0.00135 0.0
H2155 H 0.86975 0.26878 0.99489 0.0
H2156 H 0.84635 0.18603 0.9533 0.0
H2157 H 0.83716 0.21607 0.95985 0.0
C2158 C 0.65725 0.81782 0.46459 0.0
C2159 C 0.64443 0.82589 0.47317 0.0
C2160 C 0.66266 0.80015 0.46694 0.0
C2161 C 0.6579 0.76032 0.49034 0.0
H2162 H 0.65477 0.73518 0.4553 0.0
C2163 C 0.63792 0.68553 0.48479 0.0
C2164 C 0.64326 0.67631 0.47282 0.0
C2165 C 0.64337 0.70329 0.48697 0.0
C2166 C 0.65618 0.74185 0.46521 0.0
H2167 H 0.62789 0.82231 0.49134 0.0
H2168 H 0.6371 0.7913 0.4954 0.0
H2169 H 0.65512 0.76747 0.45552 0.0
H2170 H 0.65954 0.67767 0.45434 0.0
H2171 H 0.67001 0.70815 0.45852 0.0
H2172 H 0.65833 0.73441 0.5 0.0
C2173 C 0.64336 0.79868 0.48705 0.0
C2174 C 0.65636 0.76053 0.46533 0.0
C2175 C 0.63813 0.81649 0.48478 0.0
C2176 C 0.65541 0.68448 0.46373 0.0
C2177 C 0.66113 0.70206 0.46603 0.0
C2178 C 0.65779 0.7415 0.49022 0.0
C2179 C 0.65499 0.79 0.47771 0.0
C2180 C 0.65697 0.77008 0.47788 0.0
C2181 C 0.65436 0.71208 0.47724 0.0
C2182 C 0.65667 0.73199 0.47763 0.0
H2183 H 0.66209 0.82473 0.45546 0.0
H2184 H 0.67195 0.79406 0.45973 0.0
H2185 H 0.65848 0.76723 0.5002 0.0
H2186 H 0.62822 0.67963 0.49178 0.0
H2187 H 0.63777 0.71051 0.49568 0.0
C2188 C 0.85097 0.68991 0.03329 0.0
C2189 C 0.8596 0.6788 0.02365 0.0
C2190 C 0.84561 0.7072 0.02965 0.0
C2191 C 0.83242 0.74313 0.01939 0.0
H2192 H 0.87183 0.76895 0.00255 0.0
C2193 C 0.86136 0.82035 0.01044 0.0
C2194 C 0.85951 0.8262 0.0242 0.0
C2195 C 0.85624 0.80288 0.00671 0.0
C2196 C 0.86045 0.76199 0.00695 0.0
H2197 H 0.8685 0.67665 0.00238 0.0
H2198 H 0.8591 0.70706 0.99592 0.0
H2199 H 0.87184 0.73634 0.00241 0.0
H2200 H 0.8497 0.81901 0.04454 0.0
H2201 H 0.84042 0.78895 0.03807 0.0
H2202 H 0.82154 0.76882 0.0246 0.0
C2203 C 0.85646 0.70234 0.00633 0.0
C2204 C 0.86045 0.74322 0.00687 0.0
C2205 C 0.86163 0.68486 0.00996 0.0
C2206 C 0.85112 0.81488 0.03383 0.0
C2207 C 0.84579 0.79762 0.03009 0.0
C2208 C 0.83243 0.76188 0.01948 0.0
C2209 C 0.84897 0.71395 0.0163 0.0
C2210 C 0.84681 0.73354 0.01359 0.0
C2211 C 0.84896 0.7911 0.01664 0.0
C2212 C 0.8468 0.77156 0.01376 0.0
H2213 H 0.84941 0.68563 0.04395 0.0
H2214 H 0.84008 0.71572 0.03766 0.0
H2215 H 0.82152 0.73612 0.02443 0.0
H2216 H 0.86805 0.82871 0.00286 0.0
H2217 H 0.85875 0.79832 0.99623 0.0
C2218 C 0.64554 0.31814 0.50765 0.0
C2219 C 0.64803 0.32407 0.52132 0.0
C2220 C 0.65086 0.30079 0.50378 0.0
C2221 C 0.64684 0.26004 0.50438 0.0
H2222 H 0.68588 0.23412 0.52166 0.0
C2223 C 0.65507 0.18924 0.53236 0.0
C2224 C 0.64632 0.1778 0.52301 0.0
C2225 C 0.66083 0.20619 0.5282 0.0
C2226 C 0.67497 0.24115 0.51664 0.0
H2227 H 0.65926 0.31728 0.5413 0.0
H2228 H 0.66881 0.28743 0.53461 0.0
H2229 H 0.68646 0.2668 0.5211 0.0
H2230 H 0.63759 0.17468 0.50177 0.0
H2231 H 0.64757 0.20457 0.49443 0.0
H2232 H 0.63492 0.23444 0.50056 0.0
C2233 C 0.66284 0.29593 0.52677 0.0
C2234 C 0.67529 0.25989 0.51633 0.0
C2235 C 0.65736 0.31308 0.53064 0.0
C2236 C 0.64453 0.18316 0.50913 0.0
C2237 C 0.65006 0.20033 0.50499 0.0
C2238 C 0.64656 0.24129 0.50465 0.0
C2239 C 0.65891 0.28921 0.5135 0.0
C2240 C 0.66084 0.26961 0.51075 0.0
C2241 C 0.65772 0.21227 0.51462 0.0
C2242 C 0.66024 0.23164 0.51133 0.0
H2243 H 0.63812 0.32625 0.50032 0.0
H2244 H 0.64779 0.29611 0.49343 0.0
H2245 H 0.6354 0.26701 0.5001 0.0
H2246 H 0.65647 0.18547 0.54315 0.0
H2247 H 0.66648 0.21503 0.53595 0.0
C2248 C 0.93653 0.38859 0.76063 0.0
C2249 C 0.92696 0.39444 0.77229 0.0
C2250 C 0.95411 0.39448 0.75835 0.0
C2251 C 0.99188 0.40919 0.77995 0.0
H2252 H 0.01773 0.41073 0.74516 0.0
C2253 C 0.06783 0.40936 0.78135 0.0
C2254 C 0.07593 0.39667 0.77267 0.0
C2255 C 0.05028 0.41503 0.77887 0.0
C2256 C 0.01072 0.41035 0.75497 0.0
H2257 H 0.92753 0.412 0.79008 0.0
H2258 H 0.95775 0.42309 0.78575 0.0
H2259 H 0.98495 0.41012 0.74508 0.0
H2260 H 0.07255 0.38069 0.75418 0.0
H2261 H 0.04176 0.39022 0.74994 0.0
H2262 H 0.01732 0.40857 0.7899 0.0
C2263 C 0.95201 0.41358 0.77853 0.0
C2264 C 0.9919 0.41001 0.75492 0.0
C2265 C 0.93458 0.40748 0.78091 0.0
C2266 C 0.06671 0.39081 0.76084 0.0
C2267 C 0.049 0.39624 0.75847 0.0
C2268 C 0.01056 0.40951 0.78 0.0
C2269 C 0.9624 0.40638 0.7677 0.0
C2270 C 0.98224 0.40913 0.76744 0.0
C2271 C 0.04024 0.4077 0.76788 0.0
C2272 C 0.02031 0.4098 0.76753 0.0
H2273 H 0.93106 0.3782 0.75403 0.0
H2274 H 0.96165 0.38854 0.74994 0.0
H2275 H 0.98506 0.40803 0.78981 0.0
H2276 H 0.07461 0.41387 0.79064 0.0
H2277 H 0.04418 0.42425 0.78613 0.0
C2278 C 0.4354 0.59739 0.28472 0.0
C2279 C 0.4269 0.6086 0.2751 0.0
C2280 C 0.45311 0.59193 0.28266 0.0
C2281 C 0.49247 0.59427 0.25835 0.0
H2282 H 0.51825 0.60063 0.29284 0.0
C2283 C 0.56727 0.61539 0.26265 0.0
C2284 C 0.57669 0.61043 0.27464 0.0
C2285 C 0.5495 0.60979 0.26071 0.0
C2286 C 0.51138 0.59836 0.28312 0.0
H2287 H 0.4298 0.62212 0.25542 0.0
H2288 H 0.4609 0.61302 0.2519 0.0
H2289 H 0.48598 0.60024 0.29301 0.0
H2290 H 0.57563 0.59467 0.2934 0.0
H2291 H 0.54509 0.58411 0.28974 0.0
H2292 H 0.51824 0.59324 0.24845 0.0
C2293 C 0.45384 0.60797 0.26089 0.0
C2294 C 0.49271 0.59812 0.28321 0.0
C2295 C 0.43595 0.61314 0.26284 0.0
C2296 C 0.56869 0.5985 0.284 0.0
C2297 C 0.55109 0.59271 0.28198 0.0
C2298 C 0.5113 0.59457 0.25825 0.0
C2299 C 0.46294 0.59804 0.27113 0.0
C2300 C 0.48291 0.59627 0.27084 0.0
C2301 C 0.5409 0.59911 0.27074 0.0
C2302 C 0.521 0.59681 0.27065 0.0
H2303 H 0.42875 0.59387 0.29432 0.0
H2304 H 0.45944 0.58384 0.29058 0.0
H2305 H 0.48543 0.5927 0.24862 0.0
H2306 H 0.57304 0.62491 0.25545 0.0
H2307 H 0.54211 0.61507 0.25197 0.0
C2308 C 0.4335 0.40538 0.72662 0.0
C2309 C 0.4293 0.3873 0.72885 0.0
C2310 C 0.45073 0.41184 0.72971 0.0
C2311 C 0.49075 0.41633 0.72486 0.0
H2312 H 0.52234 0.39144 0.75023 0.0
C2313 C 0.56205 0.39836 0.71005 0.0
C2314 C 0.5751 0.39431 0.72006 0.0
C2315 C 0.54498 0.40398 0.71394 0.0
C2316 C 0.51382 0.39893 0.74325 0.0
H2317 H 0.4392 0.36207 0.73671 0.0
H2318 H 0.46893 0.37298 0.74194 0.0
H2319 H 0.49019 0.38975 0.75354 0.0
H2320 H 0.5809 0.39446 0.74204 0.0
H2321 H 0.55099 0.40476 0.74893 0.0
H2322 H 0.51438 0.42566 0.71466 0.0
C2323 C 0.45918 0.3825 0.73813 0.0
C2324 C 0.49525 0.39771 0.74503 0.0
C2325 C 0.44207 0.37615 0.73509 0.0
C2326 C 0.57113 0.39748 0.73408 0.0
C2327 C 0.5539 0.40317 0.73802 0.0
C2328 C 0.50932 0.41782 0.72324 0.0
C2329 C 0.46406 0.40025 0.73498 0.0
C2330 C 0.48342 0.40553 0.73538 0.0
C2331 C 0.54038 0.40585 0.72799 0.0
C2332 C 0.52112 0.40829 0.73193 0.0
H2333 H 0.42393 0.41416 0.72162 0.0
H2334 H 0.45385 0.42566 0.72734 0.0
H2335 H 0.48224 0.42265 0.71721 0.0
H2336 H 0.56471 0.39618 0.69914 0.0
H2337 H 0.53508 0.40563 0.70585 0.0
C2338 C 0.93485 0.61105 0.23588 0.0
C2339 C 0.92871 0.60914 0.22221 0.0
C2340 C 0.95232 0.60577 0.23943 0.0
C2341 C 0.99288 0.58159 0.22607 0.0
H2342 H 0.01902 0.62052 0.24328 0.0
C2343 C 0.06463 0.60038 0.21168 0.0
C2344 C 0.07597 0.60857 0.22141 0.0
C2345 C 0.04741 0.59492 0.21539 0.0
C2346 C 0.01197 0.60926 0.23877 0.0
H2347 H 0.93538 0.59903 0.20184 0.0
H2348 H 0.96545 0.58958 0.20798 0.0
H2349 H 0.98643 0.62077 0.24348 0.0
H2350 H 0.07857 0.61651 0.24287 0.0
H2351 H 0.04828 0.60697 0.24945 0.0
H2352 H 0.01847 0.57063 0.22067 0.0
C2353 C 0.95701 0.59508 0.21604 0.0
C2354 C 0.99321 0.6094 0.23888 0.0
C2355 C 0.93974 0.60053 0.21249 0.0
C2356 C 0.07021 0.60998 0.23522 0.0
C2357 C 0.05278 0.60474 0.23892 0.0
C2358 C 0.01163 0.58147 0.22593 0.0
C2359 C 0.96384 0.59829 0.2294 0.0
C2360 C 0.98342 0.59594 0.23205 0.0
C2361 C 0.04095 0.59775 0.22891 0.0
C2362 C 0.02141 0.59567 0.23179 0.0
H2363 H 0.9267 0.61788 0.24352 0.0
H2364 H 0.9571 0.60829 0.24985 0.0
H2365 H 0.98579 0.57082 0.22093 0.0
H2366 H 0.06869 0.5993 0.20093 0.0
H2367 H 0.03869 0.58977 0.20736 0.0
loop_
_geom_bond_atom_site_label_1
_geom_bond_atom_site_label_2
_geom_bond_distance
_geom_bond_site_symmetry_2
_ccdc_geom_bond_type
Co0 O1 2.216 . S
Co0 O2 2.091 . S
Co0 O4 2.004 . S
Co0 O10 2.021 . S
Co0 O12 2.137 . S
Co0 O13 2.244 . S
O1 Co0 2.216 . S
O1 C8 1.247 . S
O2 Co0 2.091 . S
O2 C8 1.261 . S
C3 O12 1.247 . S
C3 O13 1.272 . S
O4 Co0 2.004 . S
O4 C9 1.259 . S
Co5 O6 2.061 . S
Co5 O11 2.052 . S
Co5 O13 2.135 . S
O6 Co5 2.061 . S
O6 C9 1.235 . S
C7 O10 1.238 . S
C7 O11 1.241 . S
C8 O1 1.247 . S
C8 O2 1.261 . S
C9 O4 1.259 . S
C9 O6 1.235 . S
O10 Co0 2.021 . S
O10 C7 1.238 . S
O11 Co5 2.052 . S
O11 C7 1.241 . S
O12 Co0 2.137 . S
O12 C3 1.247 . S
O13 Co0 2.244 . S
O13 C3 1.272 . S
O13 Co5 2.135 . S
Co14 O15 2.216 . S
Co14 O16 2.091 . S
Co14 O18 2.004 . S
Co14 O24 2.021 . S
Co14 O26 2.137 . S
Co14 O27 2.244 . S
O15 Co14 2.216 . S
O15 C22 1.247 . S
O16 Co14 2.091 . S
O16 C22 1.261 . S
C17 O26 1.247 . S
C17 O27 1.272 . S
O18 Co14 2.004 . S
O18 C23 1.259 . S
Co19 O20 2.061 . S
Co19 O25 2.052 . S
Co19 O27 2.135 . S
O20 Co19 2.061 . S
O20 C23 1.235 . S
C21 O24 1.238 . S
C21 O25 1.241 . S
C22 O15 1.247 . S
C22 O16 1.261 . S
C23 O18 1.259 . S
C23 O20 1.235 . S
O24 Co14 2.021 . S
O24 C21 1.238 . S
O25 Co19 2.052 . S
O25 C21 1.241 . S
O26 Co14 2.137 . S
O26 C17 1.247 . S
O27 Co14 2.244 . S
O27 C17 1.272 . S
O27 Co19 2.135 . S
Co28 O29 2.216 . S
Co28 O30 2.091 . S
Co28 O32 2.004 . S
Co28 O38 2.021 . S
Co28 O40 2.137 . S
Co28 O41 2.244 . S
O29 Co28 2.216 . S
O29 C36 1.247 . S
O30 Co28 2.091 . S
O30 C36 1.261 . S
C31 O40 1.247 . S
C31 O41 1.272 . S
O32 Co28 2.004 . S
O32 C37 1.259 . S
Co33 O34 2.061 . S
Co33 O39 2.052 . S
Co33 O41 2.135 . S
O34 Co33 2.061 . S
O34 C37 1.235 . S
C35 O38 1.238 . S
C35 O39 1.241 . S
C36 O29 1.247 . S
C36 O30 1.261 . S
C37 O32 1.259 . S
C37 O34 1.235 . S
O38 Co28 2.021 . S
O38 C35 1.238 . S
O39 Co33 2.052 . S
O39 C35 1.241 . S
O40 Co28 2.137 . S
O40 C31 1.247 . S
O41 Co28 2.244 . S
O41 C31 1.272 . S
O41 Co33 2.135 . S
Co42 O43 2.216 . S
Co42 O44 2.091 . S
Co42 O46 2.004 . S
Co42 O52 2.021 . S
Co42 O54 2.137 . S
Co42 O55 2.244 . S
O43 Co42 2.216 . S
O43 C50 1.247 . S
O44 Co42 2.091 . S
O44 C50 1.261 . S
C45 O54 1.247 . S
C45 O55 1.272 . S
O46 Co42 2.004 . S
O46 C51 1.259 . S
Co47 O48 2.061 . S
Co47 O53 2.052 . S
Co47 O55 2.135 . S
O48 Co47 2.061 . S
O48 C51 1.235 . S
C49 O52 1.238 . S
C49 O53 1.241 . S
C50 O43 1.247 . S
C50 O44 1.261 . S
C51 O46 1.259 . S
C51 O48 1.235 . S
O52 Co42 2.021 . S
O52 C49 1.238 . S
O53 Co47 2.052 . S
O53 C49 1.241 . S
O54 Co42 2.137 . S
O54 C45 1.247 . S
O55 Co42 2.244 . S
O55 C45 1.272 . S
O55 Co47 2.135 . S
Co56 O57 2.216 . S
Co56 O58 2.091 . S
Co56 O60 2.004 . S
Co56 O66 2.021 . S
Co56 O68 2.137 . S
Co56 O69 2.244 . S
O57 Co56 2.216 . S
O57 C64 1.247 . S
O58 Co56 2.091 . S
O58 C64 1.261 . S
C59 O68 1.247 . S
C59 O69 1.272 . S
O60 Co56 2.004 . S
O60 C65 1.259 . S
Co61 O62 2.061 . S
Co61 O67 2.052 . S
Co61 O69 2.135 . S
O62 Co61 2.061 . S
O62 C65 1.235 . S
C63 O66 1.238 . S
C63 O67 1.241 . S
C64 O57 1.247 . S
C64 O58 1.261 . S
C65 O60 1.259 . S
C65 O62 1.235 . S
O66 Co56 2.021 . S
O66 C63 1.238 . S
O67 Co61 2.052 . S
O67 C63 1.241 . S
O68 Co56 2.137 . S
O68 C59 1.247 . S
O69 Co56 2.244 . S
O69 C59 1.272 . S
O69 Co61 2.135 . S
Co70 O71 2.216 . S
Co70 O72 2.091 . S
Co70 O74 2.004 . S
Co70 O80 2.021 . S
Co70 O82 2.137 . S
Co70 O83 2.244 . S
O71 Co70 2.216 . S
O71 C78 1.247 . S
O72 Co70 2.091 . S
O72 C78 1.261 . S
C73 O82 1.247 . S
C73 O83 1.272 . S
O74 Co70 2.004 . S
O74 C79 1.259 . S
Co75 O76 2.061 . S
Co75 O81 2.052 . S
Co75 O83 2.135 . S
O76 Co75 2.061 . S
O76 C79 1.235 . S
C77 O80 1.238 . S
C77 O81 1.241 . S
C78 O71 1.247 . S
C78 O72 1.261 . S
C79 O74 1.259 . S
C79 O76 1.235 . S
O80 Co70 2.021 . S
O80 C77 1.238 . S
O81 Co75 2.052 . S
O81 C77 1.241 . S
O82 Co70 2.137 . S
O82 C73 1.247 . S
O83 Co70 2.244 . S
O83 C73 1.272 . S
O83 Co75 2.135 . S
Co84 O85 2.216 . S
Co84 O86 2.091 . S
Co84 O88 2.004 . S
Co84 O94 2.021 . S
Co84 O96 2.137 . S
Co84 O97 2.244 . S
O85 Co84 2.216 . S
O85 C92 1.247 . S
O86 Co84 2.091 . S
O86 C92 1.261 . S
C87 O96 1.247 . S
C87 O97 1.272 . S
O88 Co84 2.004 . S
O88 C93 1.259 . S
Co89 O90 2.061 . S
Co89 O95 2.052 . S
Co89 O97 2.135 . S
O90 Co89 2.061 . S
O90 C93 1.235 . S
C91 O94 1.238 . S
C91 O95 1.241 . S
C92 O85 1.247 . S
C92 O86 1.261 . S
C93 O88 1.259 . S
C93 O90 1.235 . S
O94 Co84 2.021 . S
O94 C91 1.238 . S
O95 Co89 2.052 . S
O95 C91 1.241 . S
O96 Co84 2.137 . S
O96 C87 1.247 . S
O97 Co84 2.244 . S
O97 C87 1.272 . S
O97 Co89 2.135 . S
Co98 O99 2.216 . S
Co98 O100 2.091 . S
Co98 O102 2.004 . S
Co98 O108 2.021 . S
Co98 O110 2.137 . S
Co98 O111 2.244 . S
O99 Co98 2.216 . S
O99 C106 1.247 . S
O100 Co98 2.091 . S
O100 C106 1.261 . S
C101 O110 1.247 . S
C101 O111 1.272 . S
O102 Co98 2.004 . S
O102 C107 1.259 . S
Co103 O104 2.061 . S
Co103 O109 2.052 . S
Co103 O111 2.135 . S
O104 Co103 2.061 . S
O104 C107 1.235 . S
C105 O108 1.238 . S
C105 O109 1.241 . S
C106 O99 1.247 . S
C106 O100 1.261 . S
C107 O102 1.259 . S
C107 O104 1.235 . S
O108 Co98 2.021 . S
O108 C105 1.238 . S
O109 Co103 2.052 . S
O109 C105 1.241 . S
O110 Co98 2.137 . S
O110 C101 1.247 . S
O111 Co98 2.244 . S
O111 C101 1.272 . S
O111 Co103 2.135 . S
Co112 O113 2.216 . S
Co112 O114 2.091 . S
Co112 O116 2.004 . S
Co112 O122 2.021 . S
Co112 O124 2.137 . S
Co112 O125 2.244 . S
O113 Co112 2.216 . S
O113 C120 1.247 . S
O114 Co112 2.091 . S
O114 C120 1.261 . S
C115 O124 1.247 . S
C115 O125 1.272 . S
O116 Co112 2.004 . S
O116 C121 1.259 . S
Co117 O118 2.061 . S
Co117 O123 2.052 . S
Co117 O125 2.135 . S
O118 Co117 2.061 . S
O118 C121 1.235 . S
C119 O122 1.238 . S
C119 O123 1.241 . S
C120 O113 1.247 . S
C120 O114 1.261 . S
C121 O116 1.259 . S
C121 O118 1.235 . S
O122 Co112 2.021 . S
O122 C119 1.238 . S
O123 Co117 2.052 . S
O123 C119 1.241 . S
O124 Co112 2.137 . S
O124 C115 1.247 . S
O125 Co112 2.244 . S
O125 C115 1.272 . S
O125 Co117 2.135 . S
Co126 O127 2.216 . S
Co126 O128 2.091 . S
Co126 O130 2.004 . S
Co126 O136 2.021 . S
Co126 O138 2.137 . S
Co126 O139 2.244 . S
O127 Co126 2.216 . S
O127 C134 1.247 . S
O128 Co126 2.091 . S
O128 C134 1.261 . S
C129 O138 1.247 . S
C129 O139 1.272 . S
O130 Co126 2.004 . S
O130 C135 1.259 . S
Co131 O132 2.061 . S
Co131 O137 2.052 . S
Co131 O139 2.135 . S
O132 Co131 2.061 . S
O132 C135 1.235 . S
C133 O136 1.238 . S
C133 O137 1.241 . S
C134 O127 1.247 . S
C134 O128 1.261 . S
C135 O130 1.259 . S
C135 O132 1.235 . S
O136 Co126 2.021 . S
O136 C133 1.238 . S
O137 Co131 2.052 . S
O137 C133 1.241 . S
O138 Co126 2.137 . S
O138 C129 1.247 . S
O139 Co126 2.244 . S
O139 C129 1.272 . S
O139 Co131 2.135 . S
Co140 O141 2.216 . S
Co140 O142 2.091 . S
Co140 O144 2.004 . S
Co140 O150 2.021 . S
Co140 O152 2.137 . S
Co140 O153 2.244 . S
O141 Co140 2.216 . S
O141 C148 1.247 . S
O142 Co140 2.091 . S
O142 C148 1.261 . S
C143 O152 1.247 . S
C143 O153 1.272 . S
O144 Co140 2.004 . S
O144 C149 1.259 . S
Co145 O146 2.061 . S
Co145 O151 2.052 . S
Co145 O153 2.135 . S
O146 Co145 2.061 . S
O146 C149 1.235 . S
C147 O150 1.238 . S
C147 O151 1.241 . S
C148 O141 1.247 . S
C148 O142 1.261 . S
C149 O144 1.259 . S
C149 O146 1.235 . S
O150 Co140 2.021 . S
O150 C147 1.238 . S
O151 Co145 2.052 . S
O151 C147 1.241 . S
O152 Co140 2.137 . S
O152 C143 1.247 . S
O153 Co140 2.244 . S
O153 C143 1.272 . S
O153 Co145 2.135 . S
Co154 O155 2.216 . S
Co154 O156 2.091 . S
Co154 O158 2.004 . S
Co154 O164 2.021 . S
Co154 O166 2.137 . S
Co154 O167 2.244 . S
O155 Co154 2.216 . S
O155 C162 1.247 . S
O156 Co154 2.091 . S
O156 C162 1.261 . S
C157 O166 1.247 . S
C157 O167 1.272 . S
O158 Co154 2.004 . S
O158 C163 1.259 . S
Co159 O160 2.061 . S
Co159 O165 2.052 . S
Co159 O167 2.135 . S
O160 Co159 2.061 . S
O160 C163 1.235 . S
C161 O164 1.238 . S
C161 O165 1.241 . S
C162 O155 1.247 . S
C162 O156 1.261 . S
C163 O158 1.259 . S
C163 O160 1.235 . S
O164 Co154 2.021 . S
O164 C161 1.238 . S
O165 Co159 2.052 . S
O165 C161 1.241 . S
O166 Co154 2.137 . S
O166 C157 1.247 . S
O167 Co154 2.244 . S
O167 C157 1.272 . S
O167 Co159 2.135 . S
Co168 O169 2.216 . S
Co168 O170 2.091 . S
Co168 O172 2.004 . S
Co168 O178 2.021 . S
Co168 O180 2.137 . S
Co168 O181 2.244 . S
O169 Co168 2.216 . S
O169 C176 1.247 . S
O170 Co168 2.091 . S
O170 C176 1.261 . S
C171 O180 1.247 . S
C171 O181 1.272 . S
O172 Co168 2.004 . S
O172 C177 1.259 . S
Co173 O174 2.061 . S
Co173 O179 2.052 . S
Co173 O181 2.135 . S
O174 Co173 2.061 . S
O174 C177 1.235 . S
C175 O178 1.238 . S
C175 O179 1.241 . S
C176 O169 1.247 . S
C176 O170 1.261 . S
C177 O172 1.259 . S
C177 O174 1.235 . S
O178 Co168 2.021 . S
O178 C175 1.238 . S
O179 Co173 2.052 . S
O179 C175 1.241 . S
O180 Co168 2.137 . S
O180 C171 1.247 . S
O181 Co168 2.244 . S
O181 C171 1.272 . S
O181 Co173 2.135 . S
Co182 O183 2.216 . S
Co182 O184 2.091 . S
Co182 O186 2.004 . S
Co182 O192 2.021 . S
Co182 O194 2.137 . S
Co182 O195 2.244 . S
O183 Co182 2.216 . S
O183 C190 1.247 . S
O184 Co182 2.091 . S
O184 C190 1.261 . S
C185 O194 1.247 . S
C185 O195 1.272 . S
O186 Co182 2.004 . S
O186 C191 1.259 . S
Co187 O188 2.061 . S
Co187 O193 2.052 . S
Co187 O195 2.135 . S
O188 Co187 2.061 . S
O188 C191 1.235 . S
C189 O192 1.238 . S
C189 O193 1.241 . S
C190 O183 1.247 . S
C190 O184 1.261 . S
C191 O186 1.259 . S
C191 O188 1.235 . S
O192 Co182 2.021 . S
O192 C189 1.238 . S
O193 Co187 2.052 . S
O193 C189 1.241 . S
O194 Co182 2.137 . S
O194 C185 1.247 . S
O195 Co182 2.244 . S
O195 C185 1.272 . S
O195 Co187 2.135 . S
Co196 O197 2.216 . S
Co196 O198 2.091 . S
Co196 O200 2.004 . S
Co196 O206 2.021 . S
Co196 O208 2.137 . S
Co196 O209 2.244 . S
O197 Co196 2.216 . S
O197 C204 1.247 . S
O198 Co196 2.091 . S
O198 C204 1.261 . S
C199 O208 1.247 . S
C199 O209 1.272 . S
O200 Co196 2.004 . S
O200 C205 1.259 . S
Co201 O202 2.061 . S
Co201 O207 2.052 . S
Co201 O209 2.135 . S
O202 Co201 2.061 . S
O202 C205 1.235 . S
C203 O206 1.238 . S
C203 O207 1.241 . S
C204 O197 1.247 . S
C204 O198 1.261 . S
C205 O200 1.259 . S
C205 O202 1.235 . S
O206 Co196 2.021 . S
O206 C203 1.238 . S
O207 Co201 2.052 . S
O207 C203 1.241 . S
O208 Co196 2.137 . S
O208 C199 1.247 . S
O209 Co196 2.244 . S
O209 C199 1.272 . S
O209 Co201 2.135 . S
Co210 O211 2.216 . S
Co210 O212 2.091 . S
Co210 O214 2.004 . S
Co210 O220 2.021 . S
Co210 O222 2.137 . S
Co210 O223 2.244 . S
O211 Co210 2.216 . S
O211 C218 1.247 . S
O212 Co210 2.091 . S
O212 C218 1.261 . S
C213 O222 1.247 . S
C213 O223 1.272 . S
O214 Co210 2.004 . S
O214 C219 1.259 . S
Co215 O216 2.061 . S
Co215 O221 2.052 . S
Co215 O223 2.135 . S
O216 Co215 2.061 . S
O216 C219 1.235 . S
C217 O220 1.238 . S
C217 O221 1.241 . S
C218 O211 1.247 . S
C218 O212 1.261 . S
C219 O214 1.259 . S
C219 O216 1.235 . S
O220 Co210 2.021 . S
O220 C217 1.238 . S
O221 Co215 2.052 . S
O221 C217 1.241 . S
O222 Co210 2.137 . S
O222 C213 1.247 . S
O223 Co210 2.244 . S
O223 C213 1.272 . S
O223 Co215 2.135 . S
Co224 O225 2.216 . S
Co224 O226 2.091 . S
Co224 O228 2.004 . S
Co224 O234 2.021 . S
Co224 O236 2.137 . S
Co224 O237 2.244 . S
O225 Co224 2.216 . S
O225 C232 1.247 . S
O226 Co224 2.091 . S
O226 C232 1.261 . S
C227 O236 1.247 . S
C227 O237 1.272 . S
O228 Co224 2.004 . S
O228 C233 1.259 . S
Co229 O230 2.061 . S
Co229 O235 2.052 . S
Co229 O237 2.135 . S
O230 Co229 2.061 . S
O230 C233 1.235 . S
C231 O234 1.238 . S
C231 O235 1.241 . S
C232 O225 1.247 . S
C232 O226 1.261 . S
C233 O228 1.259 . S
C233 O230 1.235 . S
O234 Co224 2.021 . S
O234 C231 1.238 . S
O235 Co229 2.052 . S
O235 C231 1.241 . S
O236 Co224 2.137 . S
O236 C227 1.247 . S
O237 Co224 2.244 . S
O237 C227 1.272 . S
O237 Co229 2.135 . S
Co238 O239 2.216 . S
Co238 O240 2.091 . S
Co238 O242 2.004 . S
Co238 O248 2.021 . S
Co238 O250 2.137 . S
Co238 O251 2.244 . S
O239 Co238 2.216 . S
O239 C246 1.247 . S
O240 Co238 2.091 . S
O240 C246 1.261 . S
C241 O250 1.247 . S
C241 O251 1.272 . S
O242 Co238 2.004 . S
O242 C247 1.259 . S
Co243 O244 2.061 . S
Co243 O249 2.052 . S
Co243 O251 2.135 . S
O244 Co243 2.061 . S
O244 C247 1.235 . S
C245 O248 1.238 . S
C245 O249 1.241 . S
C246 O239 1.247 . S
C246 O240 1.261 . S
C247 O242 1.259 . S
C247 O244 1.235 . S
O248 Co238 2.021 . S
O248 C245 1.238 . S
O249 Co243 2.052 . S
O249 C245 1.241 . S
O250 Co238 2.137 . S
O250 C241 1.247 . S
O251 Co238 2.244 . S
O251 C241 1.272 . S
O251 Co243 2.135 . S
Co252 O253 2.216 . S
Co252 O254 2.091 . S
Co252 O256 2.004 . S
Co252 O262 2.021 . S
Co252 O264 2.137 . S
Co252 O265 2.244 . S
O253 Co252 2.216 . S
O253 C260 1.247 . S
O254 Co252 2.091 . S
O254 C260 1.261 . S
C255 O264 1.247 . S
C255 O265 1.272 . S
O256 Co252 2.004 . S
O256 C261 1.259 . S
Co257 O258 2.061 . S
Co257 O263 2.052 . S
Co257 O265 2.135 . S
O258 Co257 2.061 . S
O258 C261 1.235 . S
C259 O262 1.238 . S
C259 O263 1.241 . S
C260 O253 1.247 . S
C260 O254 1.261 . S
C261 O256 1.259 . S
C261 O258 1.235 . S
O262 Co252 2.021 . S
O262 C259 1.238 . S
O263 Co257 2.052 . S
O263 C259 1.241 . S
O264 Co252 2.137 . S
O264 C255 1.247 . S
O265 Co252 2.244 . S
O265 C255 1.272 . S
O265 Co257 2.135 . S
Co266 O267 2.216 . S
Co266 O268 2.091 . S
Co266 O270 2.004 . S
Co266 O276 2.021 . S
Co266 O278 2.137 . S
Co266 O279 2.244 . S
O267 Co266 2.216 . S
O267 C274 1.247 . S
O268 Co266 2.091 . S
O268 C274 1.261 . S
C269 O278 1.247 . S
C269 O279 1.272 . S
O270 Co266 2.004 . S
O270 C275 1.259 . S
Co271 O272 2.061 . S
Co271 O277 2.052 . S
Co271 O279 2.135 . S
O272 Co271 2.061 . S
O272 C275 1.235 . S
C273 O276 1.238 . S
C273 O277 1.241 . S
C274 O267 1.247 . S
C274 O268 1.261 . S
C275 O270 1.259 . S
C275 O272 1.235 . S
O276 Co266 2.021 . S
O276 C273 1.238 . S
O277 Co271 2.052 . S
O277 C273 1.241 . S
O278 Co266 2.137 . S
O278 C269 1.247 . S
O279 Co266 2.244 . S
O279 C269 1.272 . S
O279 Co271 2.135 . S
Co280 O281 2.216 . S
Co280 O282 2.091 . S
Co280 O284 2.004 . S
Co280 O290 2.021 . S
Co280 O292 2.137 . S
Co280 O293 2.244 . S
O281 Co280 2.216 . S
O281 C288 1.247 . S
O282 Co280 2.091 . S
O282 C288 1.261 . S
C283 O292 1.247 . S
C283 O293 1.272 . S
O284 Co280 2.004 . S
O284 C289 1.259 . S
Co285 O286 2.061 . S
Co285 O291 2.052 . S
Co285 O293 2.135 . S
O286 Co285 2.061 . S
O286 C289 1.235 . S
C287 O290 1.238 . S
C287 O291 1.241 . S
C288 O281 1.247 . S
C288 O282 1.261 . S
C289 O284 1.259 . S
C289 O286 1.235 . S
O290 Co280 2.021 . S
O290 C287 1.238 . S
O291 Co285 2.052 . S
O291 C287 1.241 . S
O292 Co280 2.137 . S
O292 C283 1.247 . S
O293 Co280 2.244 . S
O293 C283 1.272 . S
O293 Co285 2.135 . S
Co294 O295 2.216 . S
Co294 O296 2.091 . S
Co294 O298 2.004 . S
Co294 O304 2.021 . S
Co294 O306 2.137 . S
Co294 O307 2.244 . S
O295 Co294 2.216 . S
O295 C302 1.247 . S
O296 Co294 2.091 . S
O296 C302 1.261 . S
C297 O306 1.247 . S
C297 O307 1.272 . S
O298 Co294 2.004 . S
O298 C303 1.259 . S
Co299 O300 2.061 . S
Co299 O305 2.052 . S
Co299 O307 2.135 . S
O300 Co299 2.061 . S
O300 C303 1.235 . S
C301 O304 1.238 . S
C301 O305 1.241 . S
C302 O295 1.247 . S
C302 O296 1.261 . S
C303 O298 1.259 . S
C303 O300 1.235 . S
O304 Co294 2.021 . S
O304 C301 1.238 . S
O305 Co299 2.052 . S
O305 C301 1.241 . S
O306 Co294 2.137 . S
O306 C297 1.247 . S
O307 Co294 2.244 . S
O307 C297 1.272 . S
O307 Co299 2.135 . S
Co308 O309 2.216 . S
Co308 O310 2.091 . S
Co308 O312 2.004 . S
Co308 O318 2.021 . S
Co308 O320 2.137 . S
Co308 O321 2.244 . S
O309 Co308 2.216 . S
O309 C316 1.247 . S
O310 Co308 2.091 . S
O310 C316 1.261 . S
C311 O320 1.247 . S
C311 O321 1.272 . S
O312 Co308 2.004 . S
O312 C317 1.259 . S
Co313 O314 2.061 . S
Co313 O319 2.052 . S
Co313 O321 2.135 . S
O314 Co313 2.061 . S
O314 C317 1.235 . S
C315 O318 1.238 . S
C315 O319 1.241 . S
C316 O309 1.247 . S
C316 O310 1.261 . S
C317 O312 1.259 . S
C317 O314 1.235 . S
O318 Co308 2.021 . S
O318 C315 1.238 . S
O319 Co313 2.052 . S
O319 C315 1.241 . S
O320 Co308 2.137 . S
O320 C311 1.247 . S
O321 Co308 2.244 . S
O321 C311 1.272 . S
O321 Co313 2.135 . S
Co322 O323 2.216 . S
Co322 O324 2.091 . S
Co322 O326 2.004 . S
Co322 O332 2.021 . S
Co322 O334 2.137 . S
Co322 O335 2.244 . S
O323 Co322 2.216 . S
O323 C330 1.247 . S
O324 Co322 2.091 . S
O324 C330 1.261 . S
C325 O334 1.247 . S
C325 O335 1.272 . S
O326 Co322 2.004 . S
O326 C331 1.259 . S
Co327 O328 2.061 . S
Co327 O333 2.052 . S
Co327 O335 2.135 . S
O328 Co327 2.061 . S
O328 C331 1.235 . S
C329 O332 1.238 . S
C329 O333 1.241 . S
C330 O323 1.247 . S
C330 O324 1.261 . S
C331 O326 1.259 . S
C331 O328 1.235 . S
O332 Co322 2.021 . S
O332 C329 1.238 . S
O333 Co327 2.052 . S
O333 C329 1.241 . S
O334 Co322 2.137 . S
O334 C325 1.247 . S
O335 Co322 2.244 . S
O335 C325 1.272 . S
O335 Co327 2.135 . S
Co336 O337 2.216 . S
Co336 O338 2.091 . S
Co336 O340 2.004 . S
Co336 O346 2.021 . S
Co336 O348 2.137 . S
Co336 O349 2.244 . S
O337 Co336 2.216 . S
O337 C344 1.247 . S
O338 Co336 2.091 . S
O338 C344 1.261 . S
C339 O348 1.247 . S
C339 O349 1.272 . S
O340 Co336 2.004 . S
O340 C345 1.259 . S
Co341 O342 2.061 . S
Co341 O347 2.052 . S
Co341 O349 2.135 . S
O342 Co341 2.061 . S
O342 C345 1.235 . S
C343 O346 1.238 . S
C343 O347 1.241 . S
C344 O337 1.247 . S
C344 O338 1.261 . S
C345 O340 1.259 . S
C345 O342 1.235 . S
O346 Co336 2.021 . S
O346 C343 1.238 . S
O347 Co341 2.052 . S
O347 C343 1.241 . S
O348 Co336 2.137 . S
O348 C339 1.247 . S
O349 Co336 2.244 . S
O349 C339 1.272 . S
O349 Co341 2.135 . S
Co350 O351 2.216 . S
Co350 O352 2.091 . S
Co350 O354 2.004 . S
Co350 O360 2.021 . S
Co350 O362 2.137 . S
Co350 O363 2.244 . S
O351 Co350 2.216 . S
O351 C358 1.247 . S
O352 Co350 2.091 . S
O352 C358 1.261 . S
C353 O362 1.247 . S
C353 O363 1.272 . S
O354 Co350 2.004 . S
O354 C359 1.259 . S
Co355 O356 2.061 . S
Co355 O361 2.052 . S
Co355 O363 2.135 . S
O356 Co355 2.061 . S
O356 C359 1.235 . S
C357 O360 1.238 . S
C357 O361 1.241 . S
C358 O351 1.247 . S
C358 O352 1.261 . S
C359 O354 1.259 . S
C359 O356 1.235 . S
O360 Co350 2.021 . S
O360 C357 1.238 . S
O361 Co355 2.052 . S
O361 C357 1.241 . S
O362 Co350 2.137 . S
O362 C353 1.247 . S
O363 Co350 2.244 . S
O363 C353 1.272 . S
O363 Co355 2.135 . S
Co364 O365 2.216 . S
Co364 O366 2.091 . S
Co364 O368 2.004 . S
Co364 O374 2.021 . S
Co364 O376 2.137 . S
Co364 O377 2.244 . S
O365 Co364 2.216 . S
O365 C372 1.247 . S
O366 Co364 2.091 . S
O366 C372 1.261 . S
C367 O376 1.247 . S
C367 O377 1.272 . S
O368 Co364 2.004 . S
O368 C373 1.259 . S
Co369 O370 2.061 . S
Co369 O375 2.052 . S
Co369 O377 2.135 . S
O370 Co369 2.061 . S
O370 C373 1.235 . S
C371 O374 1.238 . S
C371 O375 1.241 . S
C372 O365 1.247 . S
C372 O366 1.261 . S
C373 O368 1.259 . S
C373 O370 1.235 . S
O374 Co364 2.021 . S
O374 C371 1.238 . S
O375 Co369 2.052 . S
O375 C371 1.241 . S
O376 Co364 2.137 . S
O376 C367 1.247 . S
O377 Co364 2.244 . S
O377 C367 1.272 . S
O377 Co369 2.135 . S
Co378 O379 2.216 . S
Co378 O380 2.091 . S
Co378 O382 2.004 . S
Co378 O388 2.021 . S
Co378 O390 2.137 . S
Co378 O391 2.244 . S
O379 Co378 2.216 . S
O379 C386 1.247 . S
O380 Co378 2.091 . S
O380 C386 1.261 . S
C381 O390 1.247 . S
C381 O391 1.272 . S
O382 Co378 2.004 . S
O382 C387 1.259 . S
Co383 O384 2.061 . S
Co383 O389 2.052 . S
Co383 O391 2.135 . S
O384 Co383 2.061 . S
O384 C387 1.235 . S
C385 O388 1.238 . S
C385 O389 1.241 . S
C386 O379 1.247 . S
C386 O380 1.261 . S
C387 O382 1.259 . S
C387 O384 1.235 . S
O388 Co378 2.021 . S
O388 C385 1.238 . S
O389 Co383 2.052 . S
O389 C385 1.241 . S
O390 Co378 2.137 . S
O390 C381 1.247 . S
O391 Co378 2.244 . S
O391 C381 1.272 . S
O391 Co383 2.135 . S
Co392 O393 2.216 . S
Co392 O394 2.091 . S
Co392 O396 2.004 . S
Co392 O402 2.021 . S
Co392 O404 2.137 . S
Co392 O405 2.244 . S
O393 Co392 2.216 . S
O393 C400 1.247 . S
O394 Co392 2.091 . S
O394 C400 1.261 . S
C395 O404 1.247 . S
C395 O405 1.272 . S
O396 Co392 2.004 . S
O396 C401 1.259 . S
Co397 O398 2.061 . S
Co397 O403 2.052 . S
Co397 O405 2.135 . S
O398 Co397 2.061 . S
O398 C401 1.235 . S
C399 O402 1.238 . S
C399 O403 1.241 . S
C400 O393 1.247 . S
C400 O394 1.261 . S
C401 O396 1.259 . S
C401 O398 1.235 . S
O402 Co392 2.021 . S
O402 C399 1.238 . S
O403 Co397 2.052 . S
O403 C399 1.241 . S
O404 Co392 2.137 . S
O404 C395 1.247 . S
O405 Co392 2.244 . S
O405 C395 1.272 . S
O405 Co397 2.135 . S
Co406 O407 2.216 . S
Co406 O408 2.091 . S
Co406 O410 2.004 . S
Co406 O416 2.021 . S
Co406 O418 2.137 . S
Co406 O419 2.244 . S
O407 Co406 2.216 . S
O407 C414 1.247 . S
O408 Co406 2.091 . S
O408 C414 1.261 . S
C409 O418 1.247 . S
C409 O419 1.272 . S
O410 Co406 2.004 . S
O410 C415 1.259 . S
Co411 O412 2.061 . S
Co411 O417 2.052 . S
Co411 O419 2.135 . S
O412 Co411 2.061 . S
O412 C415 1.235 . S
C413 O416 1.238 . S
C413 O417 1.241 . S
C414 O407 1.247 . S
C414 O408 1.261 . S
C415 O410 1.259 . S
C415 O412 1.235 . S
O416 Co406 2.021 . S
O416 C413 1.238 . S
O417 Co411 2.052 . S
O417 C413 1.241 . S
O418 Co406 2.137 . S
O418 C409 1.247 . S
O419 Co406 2.244 . S
O419 C409 1.272 . S
O419 Co411 2.135 . S
Co420 O421 2.216 . S
Co420 O422 2.091 . S
Co420 O424 2.004 . S
Co420 O430 2.021 . S
Co420 O432 2.137 . S
Co420 O433 2.244 . S
O421 Co420 2.216 . S
O421 C428 1.247 . S
O422 Co420 2.091 . S
O422 C428 1.261 . S
C423 O432 1.247 . S
C423 O433 1.272 . S
O424 Co420 2.004 . S
O424 C429 1.259 . S
Co425 O426 2.061 . S
Co425 O431 2.052 . S
Co425 O433 2.135 . S
O426 Co425 2.061 . S
O426 C429 1.235 . S
C427 O430 1.238 . S
C427 O431 1.241 . S
C428 O421 1.247 . S
C428 O422 1.261 . S
C429 O424 1.259 . S
C429 O426 1.235 . S
O430 Co420 2.021 . S
O430 C427 1.238 . S
O431 Co425 2.052 . S
O431 C427 1.241 . S
O432 Co420 2.137 . S
O432 C423 1.247 . S
O433 Co420 2.244 . S
O433 C423 1.272 . S
O433 Co425 2.135 . S
Co434 O435 2.216 . S
Co434 O436 2.091 . S
Co434 O438 2.004 . S
Co434 O444 2.021 . S
Co434 O446 2.137 . S
Co434 O447 2.244 . S
O435 Co434 2.216 . S
O435 C442 1.247 . S
O436 Co434 2.091 . S
O436 C442 1.261 . S
C437 O446 1.247 . S
C437 O447 1.272 . S
O438 Co434 2.004 . S
O438 C443 1.259 . S
Co439 O440 2.061 . S
Co439 O445 2.052 . S
Co439 O447 2.135 . S
O440 Co439 2.061 . S
O440 C443 1.235 . S
C441 O444 1.238 . S
C441 O445 1.241 . S
C442 O435 1.247 . S
C442 O436 1.261 . S
C443 O438 1.259 . S
C443 O440 1.235 . S
O444 Co434 2.021 . S
O444 C441 1.238 . S
O445 Co439 2.052 . S
O445 C441 1.241 . S
O446 Co434 2.137 . S
O446 C437 1.247 . S
O447 Co434 2.244 . S
O447 C437 1.272 . S
O447 Co439 2.135 . S
C448 C449 1.349 . S
C448 C450 1.327 . S
C448 H473 0.950 . S
C449 C448 1.349 . S
C449 C465 1.349 . S
C450 C448 1.327 . S
C450 C469 1.429 . S
C450 H474 0.950 . S
C451 C468 1.574 . S
C451 C470 1.368 . S
C451 H475 0.949 . S
H452 C456 0.949 . S
C453 C454 1.349 . S
C453 C455 1.327 . S
C453 H476 0.950 . S
C454 C453 1.349 . S
C454 C466 1.349 . S
C455 C453 1.327 . S
C455 C471 1.429 . S
C455 H477 0.950 . S
C456 H452 0.949 . S
C456 C464 1.574 . S
C456 C472 1.368 . S
H457 C465 0.950 . S
H458 C463 0.950 . S
H459 C464 0.949 . S
H460 C466 0.950 . S
H461 C467 0.950 . S
H462 C468 0.949 . S
C463 H458 0.950 . S
C463 C465 1.327 . S
C463 C469 1.429 . S
C464 C456 1.574 . S
C464 H459 0.949 . S
C464 C470 1.368 . S
C465 C449 1.349 . S
C465 H457 0.950 . S
C465 C463 1.327 . S
C466 C454 1.349 . S
C466 H460 0.950 . S
C466 C467 1.327 . S
C467 H461 0.950 . S
C467 C466 1.327 . S
C467 C471 1.429 . S
C468 C451 1.574 . S
C468 H462 0.949 . S
C468 C472 1.368 . S
C469 C450 1.429 . S
C469 C463 1.429 . S
C469 C470 1.523 . S
C470 C451 1.368 . S
C470 C464 1.368 . S
C470 C469 1.523 . S
C471 C455 1.429 . S
C471 C467 1.429 . S
C471 C472 1.523 . S
C472 C456 1.368 . S
C472 C468 1.368 . S
C472 C471 1.523 . S
H473 C448 0.950 . S
H474 C450 0.950 . S
H475 C451 0.949 . S
H476 C453 0.950 . S
H477 C455 0.950 . S
C478 C479 1.349 . S
C478 C480 1.327 . S
C478 H503 0.950 . S
C479 C478 1.349 . S
C479 C495 1.349 . S
C480 C478 1.327 . S
C480 C499 1.429 . S
C480 H504 0.950 . S
C481 C498 1.574 . S
C481 C500 1.368 . S
C481 H505 0.949 . S
H482 C486 0.949 . S
C483 C484 1.349 . S
C483 C485 1.327 . S
C483 H506 0.950 . S
C484 C483 1.349 . S
C484 C496 1.349 . S
C485 C483 1.327 . S
C485 C501 1.429 . S
C485 H507 0.950 . S
C486 H482 0.949 . S
C486 C494 1.574 . S
C486 C502 1.368 . S
H487 C495 0.950 . S
H488 C493 0.950 . S
H489 C494 0.949 . S
H490 C496 0.950 . S
H491 C497 0.950 . S
H492 C498 0.949 . S
C493 H488 0.950 . S
C493 C495 1.327 . S
C493 C499 1.429 . S
C494 C486 1.574 . S
C494 H489 0.949 . S
C494 C500 1.368 . S
C495 C479 1.349 . S
C495 H487 0.950 . S
C495 C493 1.327 . S
C496 C484 1.349 . S
C496 H490 0.950 . S
C496 C497 1.327 . S
C497 H491 0.950 . S
C497 C496 1.327 . S
C497 C501 1.429 . S
C498 C481 1.574 . S
C498 H492 0.949 . S
C498 C502 1.368 . S
C499 C480 1.429 . S
C499 C493 1.429 . S
C499 C500 1.523 . S
C500 C481 1.368 . S
C500 C494 1.368 . S
C500 C499 1.523 . S
C501 C485 1.429 . S
C501 C497 1.429 . S
C501 C502 1.523 . S
C502 C486 1.368 . S
C502 C498 1.368 . S
C502 C501 1.523 . S
H503 C478 0.950 . S
H504 C480 0.950 . S
H505 C481 0.949 . S
H506 C483 0.950 . S
H507 C485 0.950 . S
C508 C509 1.349 . S
C508 C510 1.327 . S
C508 H533 0.950 . S
C509 C508 1.349 . S
C509 C525 1.349 . S
C510 C508 1.327 . S
C510 C529 1.429 . S
C510 H534 0.950 . S
C511 C528 1.574 . S
C511 C530 1.368 . S
C511 H535 0.949 . S
H512 C516 0.949 . S
C513 C514 1.349 . S
C513 C515 1.327 . S
C513 H536 0.950 . S
C514 C513 1.349 . S
C514 C526 1.349 . S
C515 C513 1.327 . S
C515 C531 1.429 . S
C515 H537 0.950 . S
C516 H512 0.949 . S
C516 C524 1.574 . S
C516 C532 1.368 . S
H517 C525 0.950 . S
H518 C523 0.950 . S
H519 C524 0.949 . S
H520 C526 0.950 . S
H521 C527 0.950 . S
H522 C528 0.949 . S
C523 H518 0.950 . S
C523 C525 1.327 . S
C523 C529 1.429 . S
C524 C516 1.574 . S
C524 H519 0.949 . S
C524 C530 1.368 . S
C525 C509 1.349 . S
C525 H517 0.950 . S
C525 C523 1.327 . S
C526 C514 1.349 . S
C526 H520 0.950 . S
C526 C527 1.327 . S
C527 H521 0.950 . S
C527 C526 1.327 . S
C527 C531 1.429 . S
C528 C511 1.574 . S
C528 H522 0.949 . S
C528 C532 1.368 . S
C529 C510 1.429 . S
C529 C523 1.429 . S
C529 C530 1.523 . S
C530 C511 1.368 . S
C530 C524 1.368 . S
C530 C529 1.523 . S
C531 C515 1.429 . S
C531 C527 1.429 . S
C531 C532 1.523 . S
C532 C516 1.368 . S
C532 C528 1.368 . S
C532 C531 1.523 . S
H533 C508 0.950 . S
H534 C510 0.950 . S
H535 C511 0.949 . S
H536 C513 0.950 . S
H537 C515 0.950 . S
C538 C539 1.349 . S
C538 C540 1.327 . S
C538 H563 0.950 . S
C539 C538 1.349 . S
C539 C555 1.349 . S
C540 C538 1.327 . S
C540 C559 1.429 . S
C540 H564 0.950 . S
C541 C558 1.574 . S
C541 C560 1.368 . S
C541 H565 0.949 . S
H542 C546 0.949 . S
C543 C544 1.349 . S
C543 C545 1.327 . S
C543 H566 0.950 . S
C544 C543 1.349 . S
C544 C556 1.349 . S
C545 C543 1.327 . S
C545 C561 1.429 . S
C545 H567 0.950 . S
C546 H542 0.949 . S
C546 C554 1.574 . S
C546 C562 1.368 . S
H547 C555 0.950 . S
H548 C553 0.950 . S
H549 C554 0.949 . S
H550 C556 0.950 . S
H551 C557 0.950 . S
H552 C558 0.949 . S
C553 H548 0.950 . S
C553 C555 1.327 . S
C553 C559 1.429 . S
C554 C546 1.574 . S
C554 H549 0.949 . S
C554 C560 1.368 . S
C555 C539 1.349 . S
C555 H547 0.950 . S
C555 C553 1.327 . S
C556 C544 1.349 . S
C556 H550 0.950 . S
C556 C557 1.327 . S
C557 H551 0.950 . S
C557 C556 1.327 . S
C557 C561 1.429 . S
C558 C541 1.574 . S
C558 H552 0.949 . S
C558 C562 1.368 . S
C559 C540 1.429 . S
C559 C553 1.429 . S
C559 C560 1.523 . S
C560 C541 1.368 . S
C560 C554 1.368 . S
C560 C559 1.523 . S
C561 C545 1.429 . S
C561 C557 1.429 . S
C561 C562 1.523 . S
C562 C546 1.368 . S
C562 C558 1.368 . S
C562 C561 1.523 . S
H563 C538 0.950 . S
H564 C540 0.950 . S
H565 C541 0.949 . S
H566 C543 0.950 . S
H567 C545 0.950 . S
C568 C569 1.349 . S
C568 C570 1.327 . S
C568 H593 0.950 . S
C569 C568 1.349 . S
C569 C585 1.349 . S
C570 C568 1.327 . S
C570 C589 1.429 . S
C570 H594 0.950 . S
C571 C588 1.574 . S
C571 C590 1.368 . S
C571 H595 0.949 . S
H572 C576 0.949 . S
C573 C574 1.349 . S
C573 C575 1.327 . S
C573 H596 0.950 . S
C574 C573 1.349 . S
C574 C586 1.349 . S
C575 C573 1.327 . S
C575 C591 1.429 . S
C575 H597 0.950 . S
C576 H572 0.949 . S
C576 C584 1.574 . S
C576 C592 1.368 . S
H577 C585 0.950 . S
H578 C583 0.950 . S
H579 C584 0.949 . S
H580 C586 0.950 . S
H581 C587 0.950 . S
H582 C588 0.949 . S
C583 H578 0.950 . S
C583 C585 1.327 . S
C583 C589 1.429 . S
C584 C576 1.574 . S
C584 H579 0.949 . S
C584 C590 1.368 . S
C585 C569 1.349 . S
C585 H577 0.950 . S
C585 C583 1.327 . S
C586 C574 1.349 . S
C586 H580 0.950 . S
C586 C587 1.327 . S
C587 H581 0.950 . S
C587 C586 1.327 . S
C587 C591 1.429 . S
C588 C571 1.574 . S
C588 H582 0.949 . S
C588 C592 1.368 . S
C589 C570 1.429 . S
C589 C583 1.429 . S
C589 C590 1.523 . S
C590 C571 1.368 . S
C590 C584 1.368 . S
C590 C589 1.523 . S
C591 C575 1.429 . S
C591 C587 1.429 . S
C591 C592 1.523 . S
C592 C576 1.368 . S
C592 C588 1.368 . S
C592 C591 1.523 . S
H593 C568 0.950 . S
H594 C570 0.950 . S
H595 C571 0.949 . S
H596 C573 0.950 . S
H597 C575 0.950 . S
C598 C599 1.349 . S
C598 C600 1.327 . S
C598 H623 0.950 . S
C599 C598 1.349 . S
C599 C615 1.349 . S
C600 C598 1.327 . S
C600 C619 1.429 . S
C600 H624 0.950 . S
C601 C618 1.574 . S
C601 C620 1.368 . S
C601 H625 0.949 . S
H602 C606 0.949 . S
C603 C604 1.349 . S
C603 C605 1.327 . S
C603 H626 0.950 . S
C604 C603 1.349 . S
C604 C616 1.349 . S
C605 C603 1.327 . S
C605 C621 1.429 . S
C605 H627 0.950 . S
C606 H602 0.949 . S
C606 C614 1.574 . S
C606 C622 1.368 . S
H607 C615 0.950 . S
H608 C613 0.950 . S
H609 C614 0.949 . S
H610 C616 0.950 . S
H611 C617 0.950 . S
H612 C618 0.949 . S
C613 H608 0.950 . S
C613 C615 1.327 . S
C613 C619 1.429 . S
C614 C606 1.574 . S
C614 H609 0.949 . S
C614 C620 1.368 . S
C615 C599 1.349 . S
C615 H607 0.950 . S
C615 C613 1.327 . S
C616 C604 1.349 . S
C616 H610 0.950 . S
C616 C617 1.327 . S
C617 H611 0.950 . S
C617 C616 1.327 . S
C617 C621 1.429 . S
C618 C601 1.574 . S
C618 H612 0.949 . S
C618 C622 1.368 . S
C619 C600 1.429 . S
C619 C613 1.429 . S
C619 C620 1.523 . S
C620 C601 1.368 . S
C620 C614 1.368 . S
C620 C619 1.523 . S
C621 C605 1.429 . S
C621 C617 1.429 . S
C621 C622 1.523 . S
C622 C606 1.368 . S
C622 C618 1.368 . S
C622 C621 1.523 . S
H623 C598 0.950 . S
H624 C600 0.950 . S
H625 C601 0.949 . S
H626 C603 0.950 . S
H627 C605 0.950 . S
C628 C629 1.349 . S
C628 C630 1.327 . S
C628 H653 0.950 . S
C629 C628 1.349 . S
C629 C645 1.349 . S
C630 C628 1.327 . S
C630 C649 1.429 . S
C630 H654 0.950 . S
C631 C648 1.574 . S
C631 C650 1.368 . S
C631 H655 0.949 . S
H632 C636 0.949 . S
C633 C634 1.349 . S
C633 C635 1.327 . S
C633 H656 0.950 . S
C634 C633 1.349 . S
C634 C646 1.349 . S
C635 C633 1.327 . S
C635 C651 1.429 . S
C635 H657 0.950 . S
C636 H632 0.949 . S
C636 C644 1.574 . S
C636 C652 1.368 . S
H637 C645 0.950 . S
H638 C643 0.950 . S
H639 C644 0.949 . S
H640 C646 0.950 . S
H641 C647 0.950 . S
H642 C648 0.949 . S
C643 H638 0.950 . S
C643 C645 1.327 . S
C643 C649 1.429 . S
C644 C636 1.574 . S
C644 H639 0.949 . S
C644 C650 1.368 . S
C645 C629 1.349 . S
C645 H637 0.950 . S
C645 C643 1.327 . S
C646 C634 1.349 . S
C646 H640 0.950 . S
C646 C647 1.327 . S
C647 H641 0.950 . S
C647 C646 1.327 . S
C647 C651 1.429 . S
C648 C631 1.574 . S
C648 H642 0.949 . S
C648 C652 1.368 . S
C649 C630 1.429 . S
C649 C643 1.429 . S
C649 C650 1.523 . S
C650 C631 1.368 . S
C650 C644 1.368 . S
C650 C649 1.523 . S
C651 C635 1.429 . S
C651 C647 1.429 . S
C651 C652 1.523 . S
C652 C636 1.368 . S
C652 C648 1.368 . S
C652 C651 1.523 . S
H653 C628 0.950 . S
H654 C630 0.950 . S
H655 C631 0.949 . S
H656 C633 0.950 . S
H657 C635 0.950 . S
C658 C659 1.349 . S
C658 C660 1.327 . S
C658 H683 0.950 . S
C659 C658 1.349 . S
C659 C675 1.349 . S
C660 C658 1.327 . S
C660 C679 1.429 . S
C660 H684 0.950 . S
C661 C678 1.574 . S
C661 C680 1.368 . S
C661 H685 0.949 . S
H662 C666 0.949 . S
C663 C664 1.349 . S
C663 C665 1.327 . S
C663 H686 0.950 . S
C664 C663 1.349 . S
C664 C676 1.349 . S
C665 C663 1.327 . S
C665 C681 1.429 . S
C665 H687 0.950 . S
C666 H662 0.949 . S
C666 C674 1.574 . S
C666 C682 1.368 . S
H667 C675 0.950 . S
H668 C673 0.950 . S
H669 C674 0.949 . S
H670 C676 0.950 . S
H671 C677 0.950 . S
H672 C678 0.949 . S
C673 H668 0.950 . S
C673 C675 1.327 . S
C673 C679 1.429 . S
C674 C666 1.574 . S
C674 H669 0.949 . S
C674 C680 1.368 . S
C675 C659 1.349 . S
C675 H667 0.950 . S
C675 C673 1.327 . S
C676 C664 1.349 . S
C676 H670 0.950 . S
C676 C677 1.327 . S
C677 H671 0.950 . S
C677 C676 1.327 . S
C677 C681 1.429 . S
C678 C661 1.574 . S
C678 H672 0.949 . S
C678 C682 1.368 . S
C679 C660 1.429 . S
C679 C673 1.429 . S
C679 C680 1.523 . S
C680 C661 1.368 . S
C680 C674 1.368 . S
C680 C679 1.523 . S
C681 C665 1.429 . S
C681 C677 1.429 . S
C681 C682 1.523 . S
C682 C666 1.368 . S
C682 C678 1.368 . S
C682 C681 1.523 . S
H683 C658 0.950 . S
H684 C660 0.950 . S
H685 C661 0.949 . S
H686 C663 0.950 . S
H687 C665 0.950 . S
C688 C689 1.349 . S
C688 C690 1.327 . S
C688 H713 0.950 . S
C689 C688 1.349 . S
C689 C705 1.349 . S
C690 C688 1.327 . S
C690 C709 1.429 . S
C690 H714 0.950 . S
C691 C708 1.574 . S
C691 C710 1.368 . S
C691 H715 0.949 . S
H692 C696 0.949 . S
C693 C694 1.349 . S
C693 C695 1.327 . S
C693 H716 0.950 . S
C694 C693 1.349 . S
C694 C706 1.349 . S
C695 C693 1.327 . S
C695 C711 1.429 . S
C695 H717 0.950 . S
C696 H692 0.949 . S
C696 C704 1.574 . S
C696 C712 1.368 . S
H697 C705 0.950 . S
H698 C703 0.950 . S
H699 C704 0.949 . S
H700 C706 0.950 . S
H701 C707 0.950 . S
H702 C708 0.949 . S
C703 H698 0.950 . S
C703 C705 1.327 . S
C703 C709 1.429 . S
C704 C696 1.574 . S
C704 H699 0.949 . S
C704 C710 1.368 . S
C705 C689 1.349 . S
C705 H697 0.950 . S
C705 C703 1.327 . S
C706 C694 1.349 . S
C706 H700 0.950 . S
C706 C707 1.327 . S
C707 H701 0.950 . S
C707 C706 1.327 . S
C707 C711 1.429 . S
C708 C691 1.574 . S
C708 H702 0.949 . S
C708 C712 1.368 . S
C709 C690 1.429 . S
C709 C703 1.429 . S
C709 C710 1.523 . S
C710 C691 1.368 . S
C710 C704 1.368 . S
C710 C709 1.523 . S
C711 C695 1.429 . S
C711 C707 1.429 . S
C711 C712 1.523 . S
C712 C696 1.368 . S
C712 C708 1.368 . S
C712 C711 1.523 . S
H713 C688 0.950 . S
H714 C690 0.950 . S
H715 C691 0.949 . S
H716 C693 0.950 . S
H717 C695 0.950 . S
C718 C719 1.349 . S
C718 C720 1.327 . S
C718 H743 0.950 . S
C719 C718 1.349 . S
C719 C735 1.349 . S
C720 C718 1.327 . S
C720 C739 1.429 . S
C720 H744 0.950 . S
C721 C738 1.574 . S
C721 C740 1.368 . S
C721 H745 0.949 . S
H722 C726 0.949 . S
C723 C724 1.349 . S
C723 C725 1.327 . S
C723 H746 0.950 . S
C724 C723 1.349 . S
C724 C736 1.349 . S
C725 C723 1.327 . S
C725 C741 1.429 . S
C725 H747 0.950 . S
C726 H722 0.949 . S
C726 C734 1.574 . S
C726 C742 1.368 . S
H727 C735 0.950 . S
H728 C733 0.950 . S
H729 C734 0.949 . S
H730 C736 0.950 . S
H731 C737 0.950 . S
H732 C738 0.949 . S
C733 H728 0.950 . S
C733 C735 1.327 . S
C733 C739 1.429 . S
C734 C726 1.574 . S
C734 H729 0.949 . S
C734 C740 1.368 . S
C735 C719 1.349 . S
C735 H727 0.950 . S
C735 C733 1.327 . S
C736 C724 1.349 . S
C736 H730 0.950 . S
C736 C737 1.327 . S
C737 H731 0.950 . S
C737 C736 1.327 . S
C737 C741 1.429 . S
C738 C721 1.574 . S
C738 H732 0.949 . S
C738 C742 1.368 . S
C739 C720 1.429 . S
C739 C733 1.429 . S
C739 C740 1.523 . S
C740 C721 1.368 . S
C740 C734 1.368 . S
C740 C739 1.523 . S
C741 C725 1.429 . S
C741 C737 1.429 . S
C741 C742 1.523 . S
C742 C726 1.368 . S
C742 C738 1.368 . S
C742 C741 1.523 . S
H743 C718 0.950 . S
H744 C720 0.950 . S
H745 C721 0.949 . S
H746 C723 0.950 . S
H747 C725 0.950 . S
C748 C749 1.349 . S
C748 C750 1.327 . S
C748 H773 0.950 . S
C749 C748 1.349 . S
C749 C765 1.349 . S
C750 C748 1.327 . S
C750 C769 1.429 . S
C750 H774 0.950 . S
C751 C768 1.574 . S
C751 C770 1.368 . S
C751 H775 0.949 . S
H752 C756 0.949 . S
C753 C754 1.349 . S
C753 C755 1.327 . S
C753 H776 0.950 . S
C754 C753 1.349 . S
C754 C766 1.349 . S
C755 C753 1.327 . S
C755 C771 1.429 . S
C755 H777 0.950 . S
C756 H752 0.949 . S
C756 C764 1.574 . S
C756 C772 1.368 . S
H757 C765 0.950 . S
H758 C763 0.950 . S
H759 C764 0.949 . S
H760 C766 0.950 . S
H761 C767 0.950 . S
H762 C768 0.949 . S
C763 H758 0.950 . S
C763 C765 1.327 . S
C763 C769 1.429 . S
C764 C756 1.574 . S
C764 H759 0.949 . S
C764 C770 1.368 . S
C765 C749 1.349 . S
C765 H757 0.950 . S
C765 C763 1.327 . S
C766 C754 1.349 . S
C766 H760 0.950 . S
C766 C767 1.327 . S
C767 H761 0.950 . S
C767 C766 1.327 . S
C767 C771 1.429 . S
C768 C751 1.574 . S
C768 H762 0.949 . S
C768 C772 1.368 . S
C769 C750 1.429 . S
C769 C763 1.429 . S
C769 C770 1.523 . S
C770 C751 1.368 . S
C770 C764 1.368 . S
C770 C769 1.523 . S
C771 C755 1.429 . S
C771 C767 1.429 . S
C771 C772 1.523 . S
C772 C756 1.368 . S
C772 C768 1.368 . S
C772 C771 1.523 . S
H773 C748 0.950 . S
H774 C750 0.950 . S
H775 C751 0.949 . S
H776 C753 0.950 . S
H777 C755 0.950 . S
C778 C779 1.349 . S
C778 C780 1.327 . S
C778 H803 0.950 . S
C779 C778 1.349 . S
C779 C795 1.349 . S
C780 C778 1.327 . S
C780 C799 1.429 . S
C780 H804 0.950 . S
C781 C798 1.574 . S
C781 C800 1.368 . S
C781 H805 0.949 . S
H782 C786 0.949 . S
C783 C784 1.349 . S
C783 C785 1.327 . S
C783 H806 0.950 . S
C784 C783 1.349 . S
C784 C796 1.349 . S
C785 C783 1.327 . S
C785 C801 1.429 . S
C785 H807 0.950 . S
C786 H782 0.949 . S
C786 C794 1.574 . S
C786 C802 1.368 . S
H787 C795 0.950 . S
H788 C793 0.950 . S
H789 C794 0.949 . S
H790 C796 0.950 . S
H791 C797 0.950 . S
H792 C798 0.949 . S
C793 H788 0.950 . S
C793 C795 1.327 . S
C793 C799 1.429 . S
C794 C786 1.574 . S
C794 H789 0.949 . S
C794 C800 1.368 . S
C795 C779 1.349 . S
C795 H787 0.950 . S
C795 C793 1.327 . S
C796 C784 1.349 . S
C796 H790 0.950 . S
C796 C797 1.327 . S
C797 H791 0.950 . S
C797 C796 1.327 . S
C797 C801 1.429 . S
C798 C781 1.574 . S
C798 H792 0.949 . S
C798 C802 1.368 . S
C799 C780 1.429 . S
C799 C793 1.429 . S
C799 C800 1.523 . S
C800 C781 1.368 . S
C800 C794 1.368 . S
C800 C799 1.523 . S
C801 C785 1.429 . S
C801 C797 1.429 . S
C801 C802 1.523 . S
C802 C786 1.368 . S
C802 C798 1.368 . S
C802 C801 1.523 . S
H803 C778 0.950 . S
H804 C780 0.950 . S
H805 C781 0.949 . S
H806 C783 0.950 . S
H807 C785 0.950 . S
C808 C809 1.349 . S
C808 C810 1.327 . S
C808 H833 0.950 . S
C809 C808 1.349 . S
C809 C825 1.349 . S
C810 C808 1.327 . S
C810 C829 1.429 . S
C810 H834 0.950 . S
C811 C828 1.574 . S
C811 C830 1.368 . S
C811 H835 0.949 . S
H812 C816 0.949 . S
C813 C814 1.349 . S
C813 C815 1.327 . S
C813 H836 0.950 . S
C814 C813 1.349 . S
C814 C826 1.349 . S
C815 C813 1.327 . S
C815 C831 1.429 . S
C815 H837 0.950 . S
C816 H812 0.949 . S
C816 C824 1.574 . S
C816 C832 1.368 . S
H817 C825 0.950 . S
H818 C823 0.950 . S
H819 C824 0.949 . S
H820 C826 0.950 . S
H821 C827 0.950 . S
H822 C828 0.949 . S
C823 H818 0.950 . S
C823 C825 1.327 . S
C823 C829 1.429 . S
C824 C816 1.574 . S
C824 H819 0.949 . S
C824 C830 1.368 . S
C825 C809 1.349 . S
C825 H817 0.950 . S
C825 C823 1.327 . S
C826 C814 1.349 . S
C826 H820 0.950 . S
C826 C827 1.327 . S
C827 H821 0.950 . S
C827 C826 1.327 . S
C827 C831 1.429 . S
C828 C811 1.574 . S
C828 H822 0.949 . S
C828 C832 1.368 . S
C829 C810 1.429 . S
C829 C823 1.429 . S
C829 C830 1.523 . S
C830 C811 1.368 . S
C830 C824 1.368 . S
C830 C829 1.523 . S
C831 C815 1.429 . S
C831 C827 1.429 . S
C831 C832 1.523 . S
C832 C816 1.368 . S
C832 C828 1.368 . S
C832 C831 1.523 . S
H833 C808 0.950 . S
H834 C810 0.950 . S
H835 C811 0.949 . S
H836 C813 0.950 . S
H837 C815 0.950 . S
C838 C839 1.349 . S
C838 C840 1.327 . S
C838 H863 0.950 . S
C839 C838 1.349 . S
C839 C855 1.349 . S
C840 C838 1.327 . S
C840 C859 1.429 . S
C840 H864 0.950 . S
C841 C858 1.574 . S
C841 C860 1.368 . S
C841 H865 0.949 . S
H842 C846 0.949 . S
C843 C844 1.349 . S
C843 C845 1.327 . S
C843 H866 0.950 . S
C844 C843 1.349 . S
C844 C856 1.349 . S
C845 C843 1.327 . S
C845 C861 1.429 . S
C845 H867 0.950 . S
C846 H842 0.949 . S
C846 C854 1.574 . S
C846 C862 1.368 . S
H847 C855 0.950 . S
H848 C853 0.950 . S
H849 C854 0.949 . S
H850 C856 0.950 . S
H851 C857 0.950 . S
H852 C858 0.949 . S
C853 H848 0.950 . S
C853 C855 1.327 . S
C853 C859 1.429 . S
C854 C846 1.574 . S
C854 H849 0.949 . S
C854 C860 1.368 . S
C855 C839 1.349 . S
C855 H847 0.950 . S
C855 C853 1.327 . S
C856 C844 1.349 . S
C856 H850 0.950 . S
C856 C857 1.327 . S
C857 H851 0.950 . S
C857 C856 1.327 . S
C857 C861 1.429 . S
C858 C841 1.574 . S
C858 H852 0.949 . S
C858 C862 1.368 . S
C859 C840 1.429 . S
C859 C853 1.429 . S
C859 C860 1.523 . S
C860 C841 1.368 . S
C860 C854 1.368 . S
C860 C859 1.523 . S
C861 C845 1.429 . S
C861 C857 1.429 . S
C861 C862 1.523 . S
C862 C846 1.368 . S
C862 C858 1.368 . S
C862 C861 1.523 . S
H863 C838 0.950 . S
H864 C840 0.950 . S
H865 C841 0.949 . S
H866 C843 0.950 . S
H867 C845 0.950 . S
C868 C869 1.349 . S
C868 C870 1.327 . S
C868 H893 0.950 . S
C869 C868 1.349 . S
C869 C885 1.349 . S
C870 C868 1.327 . S
C870 C889 1.429 . S
C870 H894 0.950 . S
C871 C888 1.574 . S
C871 C890 1.368 . S
C871 H895 0.949 . S
H872 C876 0.949 . S
C873 C874 1.349 . S
C873 C875 1.327 . S
C873 H896 0.950 . S
C874 C873 1.349 . S
C874 C886 1.349 . S
C875 C873 1.327 . S
C875 C891 1.429 . S
C875 H897 0.950 . S
C876 H872 0.949 . S
C876 C884 1.574 . S
C876 C892 1.368 . S
H877 C885 0.950 . S
H878 C883 0.950 . S
H879 C884 0.949 . S
H880 C886 0.950 . S
H881 C887 0.950 . S
H882 C888 0.949 . S
C883 H878 0.950 . S
C883 C885 1.327 . S
C883 C889 1.429 . S
C884 C876 1.574 . S
C884 H879 0.949 . S
C884 C890 1.368 . S
C885 C869 1.349 . S
C885 H877 0.950 . S
C885 C883 1.327 . S
C886 C874 1.349 . S
C886 H880 0.950 . S
C886 C887 1.327 . S
C887 H881 0.950 . S
C887 C886 1.327 . S
C887 C891 1.429 . S
C888 C871 1.574 . S
C888 H882 0.949 . S
C888 C892 1.368 . S
C889 C870 1.429 . S
C889 C883 1.429 . S
C889 C890 1.523 . S
C890 C871 1.368 . S
C890 C884 1.368 . S
C890 C889 1.523 . S
C891 C875 1.429 . S
C891 C887 1.429 . S
C891 C892 1.523 . S
C892 C876 1.368 . S
C892 C888 1.368 . S
C892 C891 1.523 . S
H893 C868 0.950 . S
H894 C870 0.950 . S
H895 C871 0.949 . S
H896 C873 0.950 . S
H897 C875 0.950 . S
C898 C899 1.349 . S
C898 C900 1.327 . S
C898 H923 0.950 . S
C899 C898 1.349 . S
C899 C915 1.349 . S
C900 C898 1.327 . S
C900 C919 1.429 . S
C900 H924 0.950 . S
C901 C918 1.574 . S
C901 C920 1.368 . S
C901 H925 0.949 . S
H902 C906 0.949 . S
C903 C904 1.349 . S
C903 C905 1.327 . S
C903 H926 0.950 . S
C904 C903 1.349 . S
C904 C916 1.349 . S
C905 C903 1.327 . S
C905 C921 1.429 . S
C905 H927 0.950 . S
C906 H902 0.949 . S
C906 C914 1.574 . S
C906 C922 1.368 . S
H907 C915 0.950 . S
H908 C913 0.950 . S
H909 C914 0.949 . S
H910 C916 0.950 . S
H911 C917 0.950 . S
H912 C918 0.949 . S
C913 H908 0.950 . S
C913 C915 1.327 . S
C913 C919 1.429 . S
C914 C906 1.574 . S
C914 H909 0.949 . S
C914 C920 1.368 . S
C915 C899 1.349 . S
C915 H907 0.950 . S
C915 C913 1.327 . S
C916 C904 1.349 . S
C916 H910 0.950 . S
C916 C917 1.327 . S
C917 H911 0.950 . S
C917 C916 1.327 . S
C917 C921 1.429 . S
C918 C901 1.574 . S
C918 H912 0.949 . S
C918 C922 1.368 . S
C919 C900 1.429 . S
C919 C913 1.429 . S
C919 C920 1.523 . S
C920 C901 1.368 . S
C920 C914 1.368 . S
C920 C919 1.523 . S
C921 C905 1.429 . S
C921 C917 1.429 . S
C921 C922 1.523 . S
C922 C906 1.368 . S
C922 C918 1.368 . S
C922 C921 1.523 . S
H923 C898 0.950 . S
H924 C900 0.950 . S
H925 C901 0.949 . S
H926 C903 0.950 . S
H927 C905 0.950 . S
C928 C929 1.349 . S
C928 C930 1.327 . S
C928 H953 0.950 . S
C929 C928 1.349 . S
C929 C945 1.349 . S
C930 C928 1.327 . S
C930 C949 1.429 . S
C930 H954 0.950 . S
C931 C948 1.574 1_455 S
C931 C950 1.368 . S
C931 H955 0.949 1_554 S
H932 C936 0.949 . S
C933 C934 1.349 . S
C933 C935 1.327 . S
C933 H956 0.906 1_554 S
C934 C933 1.349 . S
C934 C946 1.349 . S
C935 C933 1.327 . S
C935 C951 1.429 . S
C935 H957 0.950 1_554 S
C936 H932 0.949 . S
C936 C944 1.574 1_655 S
C936 C952 1.368 . S
H937 C945 0.906 1_556 S
H938 C943 0.950 1_556 S
H939 C944 0.949 . S
H940 C946 0.950 . S
H941 C947 0.950 . S
H942 C948 0.949 1_556 S
C943 H938 0.950 1_554 S
C943 C945 1.327 . S
C943 C949 1.429 . S
C944 C936 1.574 1_455 S
C944 H939 0.949 . S
C944 C950 1.368 . S
C945 C929 1.349 . S
C945 H937 0.906 1_554 S
C945 C943 1.327 . S
C946 C934 1.349 . S
C946 H940 0.950 . S
C946 C947 1.327 . S
C947 H941 0.950 . S
C947 C946 1.327 . S
C947 C951 1.429 . S
C948 C931 1.574 1_655 S
C948 H942 0.949 1_554 S
C948 C952 1.368 . S
C949 C930 1.429 . S
C949 C943 1.429 . S
C949 C950 1.523 . S
C950 C931 1.368 . S
C950 C944 1.368 . S
C950 C949 1.523 . S
C951 C935 1.429 . S
C951 C947 1.429 . S
C951 C952 1.523 . S
C952 C936 1.368 . S
C952 C948 1.368 . S
C952 C951 1.523 . S
H953 C928 0.950 . S
H954 C930 0.950 . S
H955 C931 0.949 1_556 S
H956 C933 0.906 1_556 S
H957 C935 0.950 1_556 S
C958 C959 1.349 . S
C958 C960 1.327 . S
C958 H983 0.950 . S
C959 C958 1.349 . S
C959 C975 1.349 . S
C960 C958 1.327 . S
C960 C979 1.429 . S
C960 H984 0.950 . S
C961 C978 1.574 . S
C961 C980 1.368 . S
C961 H985 0.949 . S
H962 C966 0.949 . S
C963 C964 1.349 . S
C963 C965 1.327 . S
C963 H986 0.950 . S
C964 C963 1.349 . S
C964 C976 1.349 . S
C965 C963 1.327 . S
C965 C981 1.429 . S
C965 H987 0.950 . S
C966 H962 0.949 . S
C966 C974 1.574 . S
C966 C982 1.368 . S
H967 C975 0.950 . S
H968 C973 0.950 . S
H969 C974 0.949 . S
H970 C976 0.950 . S
H971 C977 0.950 . S
H972 C978 0.949 . S
C973 H968 0.950 . S
C973 C975 1.327 . S
C973 C979 1.429 . S
C974 C966 1.574 . S
C974 H969 0.949 . S
C974 C980 1.368 . S
C975 C959 1.349 . S
C975 H967 0.950 . S
C975 C973 1.327 . S
C976 C964 1.349 . S
C976 H970 0.950 . S
C976 C977 1.327 . S
C977 H971 0.950 . S
C977 C976 1.327 . S
C977 C981 1.429 . S
C978 C961 1.574 . S
C978 H972 0.949 . S
C978 C982 1.368 . S
C979 C960 1.429 . S
C979 C973 1.429 . S
C979 C980 1.523 . S
C980 C961 1.368 . S
C980 C974 1.368 . S
C980 C979 1.523 . S
C981 C965 1.429 . S
C981 C977 1.429 . S
C981 C982 1.523 . S
C982 C966 1.368 . S
C982 C978 1.368 . S
C982 C981 1.523 . S
H983 C958 0.950 . S
H984 C960 0.950 . S
H985 C961 0.949 . S
H986 C963 0.950 . S
H987 C965 0.950 . S
C988 C989 1.349 . S
C988 C990 1.327 . S
C988 H1013 0.950 . S
C989 C988 1.349 . S
C989 C1005 1.349 . S
C990 C988 1.327 . S
C990 C1009 1.429 . S
C990 H1014 0.950 . S
C991 C1008 1.574 . S
C991 C1010 1.368 . S
C991 H1015 0.949 . S
H992 C996 0.949 . S
C993 C994 1.349 . S
C993 C995 1.327 . S
C993 H1016 0.950 . S
C994 C993 1.349 . S
C994 C1006 1.349 . S
C995 C993 1.327 . S
C995 C1011 1.429 . S
C995 H1017 0.950 . S
C996 H992 0.949 . S
C996 C1004 1.574 . S
C996 C1012 1.368 . S
H997 C1005 0.950 . S
H998 C1003 0.950 . S
H999 C1004 0.949 . S
H1000 C1006 0.950 . S
H1001 C1007 0.950 . S
H1002 C1008 0.949 . S
C1003 H998 0.950 . S
C1003 C1005 1.327 . S
C1003 C1009 1.429 . S
C1004 C996 1.574 . S
C1004 H999 0.949 . S
C1004 C1010 1.368 . S
C1005 C989 1.349 . S
C1005 H997 0.950 . S
C1005 C1003 1.327 . S
C1006 C994 1.349 . S
C1006 H1000 0.950 . S
C1006 C1007 1.327 . S
C1007 H1001 0.950 . S
C1007 C1006 1.327 . S
C1007 C1011 1.429 . S
C1008 C991 1.574 . S
C1008 H1002 0.949 . S
C1008 C1012 1.368 . S
C1009 C990 1.429 . S
C1009 C1003 1.429 . S
C1009 C1010 1.523 . S
C1010 C991 1.368 . S
C1010 C1004 1.368 . S
C1010 C1009 1.523 . S
C1011 C995 1.429 . S
C1011 C1007 1.429 . S
C1011 C1012 1.523 . S
C1012 C996 1.368 . S
C1012 C1008 1.368 . S
C1012 C1011 1.523 . S
H1013 C988 0.950 . S
H1014 C990 0.950 . S
H1015 C991 0.949 . S
H1016 C993 0.950 . S
H1017 C995 0.950 . S
C1018 C1019 1.349 . S
C1018 C1020 1.327 . S
C1018 H1043 0.950 . S
C1019 C1018 1.349 . S
C1019 C1035 1.349 . S
C1020 C1018 1.327 . S
C1020 C1039 1.429 . S
C1020 H1044 0.950 . S
C1021 C1038 1.574 . S
C1021 C1040 1.368 . S
C1021 H1045 0.949 . S
H1022 C1026 0.949 . S
C1023 C1024 1.349 . S
C1023 C1025 1.327 . S
C1023 H1046 0.950 . S
C1024 C1023 1.349 . S
C1024 C1036 1.349 . S
C1025 C1023 1.327 . S
C1025 C1041 1.429 . S
C1025 H1047 0.950 . S
C1026 H1022 0.949 . S
C1026 C1034 1.574 . S
C1026 C1042 1.368 . S
H1027 C1035 0.950 . S
H1028 C1033 0.950 . S
H1029 C1034 0.949 . S
H1030 C1036 0.950 . S
H1031 C1037 0.950 . S
H1032 C1038 0.949 . S
C1033 H1028 0.950 . S
C1033 C1035 1.327 . S
C1033 C1039 1.429 . S
C1034 C1026 1.574 . S
C1034 H1029 0.949 . S
C1034 C1040 1.368 . S
C1035 C1019 1.349 . S
C1035 H1027 0.950 . S
C1035 C1033 1.327 . S
C1036 C1024 1.349 . S
C1036 H1030 0.950 . S
C1036 C1037 1.327 . S
C1037 H1031 0.950 . S
C1037 C1036 1.327 . S
C1037 C1041 1.429 . S
C1038 C1021 1.574 . S
C1038 H1032 0.949 . S
C1038 C1042 1.368 . S
C1039 C1020 1.429 . S
C1039 C1033 1.429 . S
C1039 C1040 1.523 . S
C1040 C1021 1.368 . S
C1040 C1034 1.368 . S
C1040 C1039 1.523 . S
C1041 C1025 1.429 . S
C1041 C1037 1.429 . S
C1041 C1042 1.523 . S
C1042 C1026 1.368 . S
C1042 C1038 1.368 . S
C1042 C1041 1.523 . S
H1043 C1018 0.950 . S
H1044 C1020 0.950 . S
H1045 C1021 0.949 . S
H1046 C1023 0.950 . S
H1047 C1025 0.950 . S
C1048 C1049 1.349 . S
C1048 C1050 1.327 . S
C1048 H1073 0.950 . S
C1049 C1048 1.349 . S
C1049 C1065 1.349 . S
C1050 C1048 1.327 . S
C1050 C1069 1.429 . S
C1050 H1074 0.950 . S
C1051 C1068 1.574 1_655 S
C1051 C1070 1.368 . S
C1051 H1075 0.949 . S
H1052 C1056 0.949 . S
C1053 C1054 1.349 . S
C1053 C1055 1.327 . S
C1053 H1076 0.950 . S
C1054 C1053 1.349 . S
C1054 C1066 1.349 . S
C1055 C1053 1.327 . S
C1055 C1071 1.429 . S
C1055 H1077 0.950 . S
C1056 H1052 0.949 . S
C1056 C1064 1.574 1_455 S
C1056 C1072 1.368 . S
H1057 C1065 0.950 . S
H1058 C1063 0.950 . S
H1059 C1064 0.949 . S
H1060 C1066 0.950 . S
H1061 C1067 0.950 . S
H1062 C1068 0.949 . S
C1063 H1058 0.950 . S
C1063 C1065 1.327 . S
C1063 C1069 1.429 . S
C1064 C1056 1.574 1_655 S
C1064 H1059 0.949 . S
C1064 C1070 1.368 . S
C1065 C1049 1.349 . S
C1065 H1057 0.950 . S
C1065 C1063 1.327 . S
C1066 C1054 1.349 . S
C1066 H1060 0.950 . S
C1066 C1067 1.327 . S
C1067 H1061 0.950 . S
C1067 C1066 1.327 . S
C1067 C1071 1.429 . S
C1068 C1051 1.574 1_455 S
C1068 H1062 0.949 . S
C1068 C1072 1.368 . S
C1069 C1050 1.429 . S
C1069 C1063 1.429 . S
C1069 C1070 1.523 . S
C1070 C1051 1.368 . S
C1070 C1064 1.368 . S
C1070 C1069 1.523 . S
C1071 C1055 1.429 . S
C1071 C1067 1.429 . S
C1071 C1072 1.523 . S
C1072 C1056 1.368 . S
C1072 C1068 1.368 . S
C1072 C1071 1.523 . S
H1073 C1048 0.950 . S
H1074 C1050 0.950 . S
H1075 C1051 0.949 . S
H1076 C1053 0.950 . S
H1077 C1055 0.950 . S
C1078 C1079 1.349 . S
C1078 C1080 1.327 . S
C1078 H1103 0.950 . S
C1079 C1078 1.349 . S
C1079 C1095 1.349 . S
C1080 C1078 1.327 . S
C1080 C1099 1.429 . S
C1080 H1104 0.950 . S
C1081 C1098 1.574 . S
C1081 C1100 1.368 . S
C1081 H1105 0.949 . S
H1082 C1086 0.949 . S
C1083 C1084 1.349 . S
C1083 C1085 1.327 . S
C1083 H1106 0.950 . S
C1084 C1083 1.349 . S
C1084 C1096 1.349 . S
C1085 C1083 1.327 . S
C1085 C1101 1.429 . S
C1085 H1107 0.950 . S
C1086 H1082 0.949 . S
C1086 C1094 1.574 . S
C1086 C1102 1.368 . S
H1087 C1095 0.950 . S
H1088 C1093 0.950 . S
H1089 C1094 0.949 . S
H1090 C1096 0.950 . S
H1091 C1097 0.950 . S
H1092 C1098 0.949 . S
C1093 H1088 0.950 . S
C1093 C1095 1.327 . S
C1093 C1099 1.429 . S
C1094 C1086 1.574 . S
C1094 H1089 0.949 . S
C1094 C1100 1.368 . S
C1095 C1079 1.349 . S
C1095 H1087 0.950 . S
C1095 C1093 1.327 . S
C1096 C1084 1.349 . S
C1096 H1090 0.950 . S
C1096 C1097 1.327 . S
C1097 H1091 0.950 . S
C1097 C1096 1.327 . S
C1097 C1101 1.429 . S
C1098 C1081 1.574 . S
C1098 H1092 0.949 . S
C1098 C1102 1.368 . S
C1099 C1080 1.429 . S
C1099 C1093 1.429 . S
C1099 C1100 1.523 . S
C1100 C1081 1.368 . S
C1100 C1094 1.368 . S
C1100 C1099 1.523 . S
C1101 C1085 1.429 . S
C1101 C1097 1.429 . S
C1101 C1102 1.523 . S
C1102 C1086 1.368 . S
C1102 C1098 1.368 . S
C1102 C1101 1.523 . S
H1103 C1078 0.950 . S
H1104 C1080 0.950 . S
H1105 C1081 0.949 . S
H1106 C1083 0.950 . S
H1107 C1085 0.950 . S
C1108 C1109 1.349 . S
C1108 C1110 1.327 . S
C1108 H1133 0.950 . S
C1109 C1108 1.349 . S
C1109 C1125 1.349 . S
C1110 C1108 1.327 . S
C1110 C1129 1.429 . S
C1110 H1134 0.950 . S
C1111 C1128 1.574 . S
C1111 C1130 1.368 . S
C1111 H1135 0.949 . S
H1112 C1116 0.949 . S
C1113 C1114 1.349 . S
C1113 C1115 1.327 . S
C1113 H1136 0.950 . S
C1114 C1113 1.349 . S
C1114 C1126 1.349 . S
C1115 C1113 1.327 . S
C1115 C1131 1.429 . S
C1115 H1137 0.950 . S
C1116 H1112 0.949 . S
C1116 C1124 1.574 . S
C1116 C1132 1.368 . S
H1117 C1125 0.950 . S
H1118 C1123 0.950 . S
H1119 C1124 0.949 . S
H1120 C1126 0.950 . S
H1121 C1127 0.950 . S
H1122 C1128 0.949 . S
C1123 H1118 0.950 . S
C1123 C1125 1.327 . S
C1123 C1129 1.429 . S
C1124 C1116 1.574 . S
C1124 H1119 0.949 . S
C1124 C1130 1.368 . S
C1125 C1109 1.349 . S
C1125 H1117 0.950 . S
C1125 C1123 1.327 . S
C1126 C1114 1.349 . S
C1126 H1120 0.950 . S
C1126 C1127 1.327 . S
C1127 H1121 0.950 . S
C1127 C1126 1.327 . S
C1127 C1131 1.429 . S
C1128 C1111 1.574 . S
C1128 H1122 0.949 . S
C1128 C1132 1.368 . S
C1129 C1110 1.429 . S
C1129 C1123 1.429 . S
C1129 C1130 1.523 . S
C1130 C1111 1.368 . S
C1130 C1124 1.368 . S
C1130 C1129 1.523 . S
C1131 C1115 1.429 . S
C1131 C1127 1.429 . S
C1131 C1132 1.523 . S
C1132 C1116 1.368 . S
C1132 C1128 1.368 . S
C1132 C1131 1.523 . S
H1133 C1108 0.950 . S
H1134 C1110 0.950 . S
H1135 C1111 0.949 . S
H1136 C1113 0.950 . S
H1137 C1115 0.950 . S
C1138 C1139 1.349 . S
C1138 C1140 1.327 . S
C1138 H1163 0.950 . S
C1139 C1138 1.349 . S
C1139 C1155 1.349 . S
C1140 C1138 1.327 . S
C1140 C1159 1.429 . S
C1140 H1164 0.950 . S
C1141 C1158 1.574 . S
C1141 C1160 1.368 . S
C1141 H1165 0.949 . S
H1142 C1146 0.949 . S
C1143 C1144 1.349 . S
C1143 C1145 1.327 . S
C1143 H1166 0.950 . S
C1144 C1143 1.349 . S
C1144 C1156 1.349 . S
C1145 C1143 1.327 . S
C1145 C1161 1.429 . S
C1145 H1167 0.950 . S
C1146 H1142 0.949 . S
C1146 C1154 1.574 . S
C1146 C1162 1.368 . S
H1147 C1155 0.950 . S
H1148 C1153 0.950 . S
H1149 C1154 0.949 . S
H1150 C1156 0.950 . S
H1151 C1157 0.950 . S
H1152 C1158 0.949 . S
C1153 H1148 0.950 . S
C1153 C1155 1.327 . S
C1153 C1159 1.429 . S
C1154 C1146 1.574 . S
C1154 H1149 0.949 . S
C1154 C1160 1.368 . S
C1155 C1139 1.349 . S
C1155 H1147 0.950 . S
C1155 C1153 1.327 . S
C1156 C1144 1.349 . S
C1156 H1150 0.950 . S
C1156 C1157 1.327 . S
C1157 H1151 0.950 . S
C1157 C1156 1.327 . S
C1157 C1161 1.429 . S
C1158 C1141 1.574 . S
C1158 H1152 0.949 . S
C1158 C1162 1.368 . S
C1159 C1140 1.429 . S
C1159 C1153 1.429 . S
C1159 C1160 1.523 . S
C1160 C1141 1.368 . S
C1160 C1154 1.368 . S
C1160 C1159 1.523 . S
C1161 C1145 1.429 . S
C1161 C1157 1.429 . S
C1161 C1162 1.523 . S
C1162 C1146 1.368 . S
C1162 C1158 1.368 . S
C1162 C1161 1.523 . S
H1163 C1138 0.950 . S
H1164 C1140 0.950 . S
H1165 C1141 0.949 . S
H1166 C1143 0.950 . S
H1167 C1145 0.950 . S
C1168 C1169 1.349 . S
C1168 C1170 1.327 . S
C1168 H1193 0.950 . S
C1169 C1168 1.349 . S
C1169 C1185 1.349 . S
C1170 C1168 1.327 . S
C1170 C1189 1.429 . S
C1170 H1194 0.950 . S
C1171 C1188 1.574 . S
C1171 C1190 1.368 . S
C1171 H1195 0.949 . S
H1172 C1176 0.949 . S
C1173 C1174 1.349 . S
C1173 C1175 1.327 . S
C1173 H1196 0.950 . S
C1174 C1173 1.349 . S
C1174 C1186 1.349 . S
C1175 C1173 1.327 . S
C1175 C1191 1.429 . S
C1175 H1197 0.950 . S
C1176 H1172 0.949 . S
C1176 C1184 1.574 . S
C1176 C1192 1.368 . S
H1177 C1185 0.950 . S
H1178 C1183 0.950 . S
H1179 C1184 0.949 . S
H1180 C1186 0.950 . S
H1181 C1187 0.950 . S
H1182 C1188 0.949 . S
C1183 H1178 0.950 . S
C1183 C1185 1.327 . S
C1183 C1189 1.429 . S
C1184 C1176 1.574 . S
C1184 H1179 0.949 . S
C1184 C1190 1.368 . S
C1185 C1169 1.349 . S
C1185 H1177 0.950 . S
C1185 C1183 1.327 . S
C1186 C1174 1.349 . S
C1186 H1180 0.950 . S
C1186 C1187 1.327 . S
C1187 H1181 0.950 . S
C1187 C1186 1.327 . S
C1187 C1191 1.429 . S
C1188 C1171 1.574 . S
C1188 H1182 0.949 . S
C1188 C1192 1.368 . S
C1189 C1170 1.429 . S
C1189 C1183 1.429 . S
C1189 C1190 1.523 . S
C1190 C1171 1.368 . S
C1190 C1184 1.368 . S
C1190 C1189 1.523 . S
C1191 C1175 1.429 . S
C1191 C1187 1.429 . S
C1191 C1192 1.523 . S
C1192 C1176 1.368 . S
C1192 C1188 1.368 . S
C1192 C1191 1.523 . S
H1193 C1168 0.950 . S
H1194 C1170 0.950 . S
H1195 C1171 0.949 . S
H1196 C1173 0.950 . S
H1197 C1175 0.950 . S
C1198 C1199 1.349 . S
C1198 C1200 1.327 . S
C1198 H1223 0.950 . S
C1199 C1198 1.349 . S
C1199 C1215 1.349 . S
C1200 C1198 1.327 . S
C1200 C1219 1.429 . S
C1200 H1224 0.950 . S
C1201 C1218 1.574 . S
C1201 C1220 1.368 . S
C1201 H1225 0.949 . S
H1202 C1206 0.949 . S
C1203 C1204 1.349 . S
C1203 C1205 1.327 . S
C1203 H1226 0.950 . S
C1204 C1203 1.349 . S
C1204 C1216 1.349 . S
C1205 C1203 1.327 . S
C1205 C1221 1.429 . S
C1205 H1227 0.950 . S
C1206 H1202 0.949 . S
C1206 C1214 1.574 . S
C1206 C1222 1.368 . S
H1207 C1215 0.950 . S
H1208 C1213 0.950 . S
H1209 C1214 0.949 . S
H1210 C1216 0.950 . S
H1211 C1217 0.950 . S
H1212 C1218 0.949 . S
C1213 H1208 0.950 . S
C1213 C1215 1.327 . S
C1213 C1219 1.429 . S
C1214 C1206 1.574 . S
C1214 H1209 0.949 . S
C1214 C1220 1.368 . S
C1215 C1199 1.349 . S
C1215 H1207 0.950 . S
C1215 C1213 1.327 . S
C1216 C1204 1.349 . S
C1216 H1210 0.950 . S
C1216 C1217 1.327 . S
C1217 H1211 0.950 . S
C1217 C1216 1.327 . S
C1217 C1221 1.429 . S
C1218 C1201 1.574 . S
C1218 H1212 0.949 . S
C1218 C1222 1.368 . S
C1219 C1200 1.429 . S
C1219 C1213 1.429 . S
C1219 C1220 1.523 . S
C1220 C1201 1.368 . S
C1220 C1214 1.368 . S
C1220 C1219 1.523 . S
C1221 C1205 1.429 . S
C1221 C1217 1.429 . S
C1221 C1222 1.523 . S
C1222 C1206 1.368 . S
C1222 C1218 1.368 . S
C1222 C1221 1.523 . S
H1223 C1198 0.950 . S
H1224 C1200 0.950 . S
H1225 C1201 0.949 . S
H1226 C1203 0.950 . S
H1227 C1205 0.950 . S
C1228 C1229 1.349 . S
C1228 C1230 1.327 . S
C1228 H1253 0.950 . S
C1229 C1228 1.349 . S
C1229 C1245 1.349 . S
C1230 C1228 1.327 . S
C1230 C1249 1.429 . S
C1230 H1254 0.950 . S
C1231 C1248 1.574 . S
C1231 C1250 1.368 . S
C1231 H1255 0.949 . S
H1232 C1236 0.949 . S
C1233 C1234 1.349 . S
C1233 C1235 1.327 . S
C1233 H1256 0.950 . S
C1234 C1233 1.349 . S
C1234 C1246 1.349 . S
C1235 C1233 1.327 . S
C1235 C1251 1.429 . S
C1235 H1257 0.950 . S
C1236 H1232 0.949 . S
C1236 C1244 1.574 . S
C1236 C1252 1.368 . S
H1237 C1245 0.950 . S
H1238 C1243 0.950 . S
H1239 C1244 0.949 . S
H1240 C1246 0.950 . S
H1241 C1247 0.950 . S
H1242 C1248 0.949 . S
C1243 H1238 0.950 . S
C1243 C1245 1.327 . S
C1243 C1249 1.429 . S
C1244 C1236 1.574 . S
C1244 H1239 0.949 . S
C1244 C1250 1.368 . S
C1245 C1229 1.349 . S
C1245 H1237 0.950 . S
C1245 C1243 1.327 . S
C1246 C1234 1.349 . S
C1246 H1240 0.950 . S
C1246 C1247 1.327 . S
C1247 H1241 0.950 . S
C1247 C1246 1.327 . S
C1247 C1251 1.429 . S
C1248 C1231 1.574 . S
C1248 H1242 0.949 . S
C1248 C1252 1.368 . S
C1249 C1230 1.429 . S
C1249 C1243 1.429 . S
C1249 C1250 1.523 . S
C1250 C1231 1.368 . S
C1250 C1244 1.368 . S
C1250 C1249 1.523 . S
C1251 C1235 1.429 . S
C1251 C1247 1.429 . S
C1251 C1252 1.523 . S
C1252 C1236 1.368 . S
C1252 C1248 1.368 . S
C1252 C1251 1.523 . S
H1253 C1228 0.950 . S
H1254 C1230 0.950 . S
H1255 C1231 0.949 . S
H1256 C1233 0.950 . S
H1257 C1235 0.950 . S
C1258 C1259 1.349 . S
C1258 C1260 1.327 . S
C1258 H1283 0.950 . S
C1259 C1258 1.349 . S
C1259 C1275 1.349 . S
C1260 C1258 1.327 . S
C1260 C1279 1.429 . S
C1260 H1284 0.950 . S
C1261 C1278 1.574 . S
C1261 C1280 1.368 . S
C1261 H1285 0.949 . S
H1262 C1266 0.949 . S
C1263 C1264 1.349 . S
C1263 C1265 1.327 . S
C1263 H1286 0.950 . S
C1264 C1263 1.349 . S
C1264 C1276 1.349 . S
C1265 C1263 1.327 . S
C1265 C1281 1.429 . S
C1265 H1287 0.950 . S
C1266 H1262 0.949 . S
C1266 C1274 1.574 . S
C1266 C1282 1.368 . S
H1267 C1275 0.950 . S
H1268 C1273 0.950 . S
H1269 C1274 0.949 . S
H1270 C1276 0.950 . S
H1271 C1277 0.950 . S
H1272 C1278 0.949 . S
C1273 H1268 0.950 . S
C1273 C1275 1.327 . S
C1273 C1279 1.429 . S
C1274 C1266 1.574 . S
C1274 H1269 0.949 . S
C1274 C1280 1.368 . S
C1275 C1259 1.349 . S
C1275 H1267 0.950 . S
C1275 C1273 1.327 . S
C1276 C1264 1.349 . S
C1276 H1270 0.950 . S
C1276 C1277 1.327 . S
C1277 H1271 0.950 . S
C1277 C1276 1.327 . S
C1277 C1281 1.429 . S
C1278 C1261 1.574 . S
C1278 H1272 0.949 . S
C1278 C1282 1.368 . S
C1279 C1260 1.429 . S
C1279 C1273 1.429 . S
C1279 C1280 1.523 . S
C1280 C1261 1.368 . S
C1280 C1274 1.368 . S
C1280 C1279 1.523 . S
C1281 C1265 1.429 . S
C1281 C1277 1.429 . S
C1281 C1282 1.523 . S
C1282 C1266 1.368 . S
C1282 C1278 1.368 . S
C1282 C1281 1.523 . S
H1283 C1258 0.950 . S
H1284 C1260 0.950 . S
H1285 C1261 0.949 . S
H1286 C1263 0.950 . S
H1287 C1265 0.950 . S
C1288 C1289 1.349 . S
C1288 C1290 1.327 . S
C1288 H1313 0.950 . S
C1289 C1288 1.349 . S
C1289 C1305 1.349 . S
C1290 C1288 1.327 . S
C1290 C1309 1.429 . S
C1290 H1314 0.950 . S
C1291 C1308 1.574 . S
C1291 C1310 1.368 . S
C1291 H1315 0.949 . S
H1292 C1296 0.949 . S
C1293 C1294 1.349 . S
C1293 C1295 1.327 . S
C1293 H1316 0.950 . S
C1294 C1293 1.349 . S
C1294 C1306 1.349 . S
C1295 C1293 1.327 . S
C1295 C1311 1.429 . S
C1295 H1317 0.950 . S
C1296 H1292 0.949 . S
C1296 C1304 1.574 . S
C1296 C1312 1.368 . S
H1297 C1305 0.950 . S
H1298 C1303 0.950 . S
H1299 C1304 0.949 . S
H1300 C1306 0.950 . S
H1301 C1307 0.950 . S
H1302 C1308 0.949 . S
C1303 H1298 0.950 . S
C1303 C1305 1.327 . S
C1303 C1309 1.429 . S
C1304 C1296 1.574 . S
C1304 H1299 0.949 . S
C1304 C1310 1.368 . S
C1305 C1289 1.349 . S
C1305 H1297 0.950 . S
C1305 C1303 1.327 . S
C1306 C1294 1.349 . S
C1306 H1300 0.950 . S
C1306 C1307 1.327 . S
C1307 H1301 0.950 . S
C1307 C1306 1.327 . S
C1307 C1311 1.429 . S
C1308 C1291 1.574 . S
C1308 H1302 0.949 . S
C1308 C1312 1.368 . S
C1309 C1290 1.429 . S
C1309 C1303 1.429 . S
C1309 C1310 1.523 . S
C1310 C1291 1.368 . S
C1310 C1304 1.368 . S
C1310 C1309 1.523 . S
C1311 C1295 1.429 . S
C1311 C1307 1.429 . S
C1311 C1312 1.523 . S
C1312 C1296 1.368 . S
C1312 C1308 1.368 . S
C1312 C1311 1.523 . S
H1313 C1288 0.950 . S
H1314 C1290 0.950 . S
H1315 C1291 0.949 . S
H1316 C1293 0.950 . S
H1317 C1295 0.950 . S
C1318 C1319 1.349 . S
C1318 C1320 1.327 . S
C1318 H1343 0.950 . S
C1319 C1318 1.349 . S
C1319 C1335 1.349 . S
C1320 C1318 1.327 . S
C1320 C1339 1.429 . S
C1320 H1344 0.950 . S
C1321 C1338 1.574 1_655 S
C1321 C1340 1.368 . S
C1321 H1345 0.949 . S
H1322 C1326 0.949 . S
C1323 C1324 1.349 . S
C1323 C1325 1.327 . S
C1323 H1346 0.950 . S
C1324 C1323 1.349 . S
C1324 C1336 1.349 . S
C1325 C1323 1.327 . S
C1325 C1341 1.429 . S
C1325 H1347 0.950 . S
C1326 H1322 0.949 . S
C1326 C1334 1.574 1_455 S
C1326 C1342 1.368 . S
H1327 C1335 0.950 . S
H1328 C1333 0.950 . S
H1329 C1334 0.949 . S
H1330 C1336 0.950 . S
H1331 C1337 0.950 . S
H1332 C1338 0.949 . S
C1333 H1328 0.950 . S
C1333 C1335 1.327 . S
C1333 C1339 1.429 . S
C1334 C1326 1.574 1_655 S
C1334 H1329 0.949 . S
C1334 C1340 1.368 . S
C1335 C1319 1.349 . S
C1335 H1327 0.950 . S
C1335 C1333 1.327 . S
C1336 C1324 1.349 . S
C1336 H1330 0.950 . S
C1336 C1337 1.327 . S
C1337 H1331 0.950 . S
C1337 C1336 1.327 . S
C1337 C1341 1.429 . S
C1338 C1321 1.574 1_455 S
C1338 H1332 0.949 . S
C1338 C1342 1.368 . S
C1339 C1320 1.429 . S
C1339 C1333 1.429 . S
C1339 C1340 1.523 . S
C1340 C1321 1.368 . S
C1340 C1334 1.368 . S
C1340 C1339 1.523 . S
C1341 C1325 1.429 . S
C1341 C1337 1.429 . S
C1341 C1342 1.523 . S
C1342 C1326 1.368 . S
C1342 C1338 1.368 . S
C1342 C1341 1.523 . S
H1343 C1318 0.950 . S
H1344 C1320 0.950 . S
H1345 C1321 0.949 . S
H1346 C1323 0.950 . S
H1347 C1325 0.950 . S
C1348 C1349 1.349 . S
C1348 C1350 1.327 . S
C1348 H1373 0.950 . S
C1349 C1348 1.349 . S
C1349 C1365 1.349 . S
C1350 C1348 1.327 . S
C1350 C1369 1.429 . S
C1350 H1374 0.950 . S
C1351 C1368 1.574 . S
C1351 C1370 1.368 . S
C1351 H1375 0.949 . S
H1352 C1356 0.949 . S
C1353 C1354 1.349 . S
C1353 C1355 1.327 . S
C1353 H1376 0.950 . S
C1354 C1353 1.349 . S
C1354 C1366 1.349 . S
C1355 C1353 1.327 . S
C1355 C1371 1.429 . S
C1355 H1377 0.950 . S
C1356 H1352 0.949 . S
C1356 C1364 1.574 . S
C1356 C1372 1.368 . S
H1357 C1365 0.950 . S
H1358 C1363 0.950 . S
H1359 C1364 0.949 . S
H1360 C1366 0.950 . S
H1361 C1367 0.950 . S
H1362 C1368 0.949 . S
C1363 H1358 0.950 . S
C1363 C1365 1.327 . S
C1363 C1369 1.429 . S
C1364 C1356 1.574 . S
C1364 H1359 0.949 . S
C1364 C1370 1.368 . S
C1365 C1349 1.349 . S
C1365 H1357 0.950 . S
C1365 C1363 1.327 . S
C1366 C1354 1.349 . S
C1366 H1360 0.950 . S
C1366 C1367 1.327 . S
C1367 H1361 0.950 . S
C1367 C1366 1.327 . S
C1367 C1371 1.429 . S
C1368 C1351 1.574 . S
C1368 H1362 0.949 . S
C1368 C1372 1.368 . S
C1369 C1350 1.429 . S
C1369 C1363 1.429 . S
C1369 C1370 1.523 . S
C1370 C1351 1.368 . S
C1370 C1364 1.368 . S
C1370 C1369 1.523 . S
C1371 C1355 1.429 . S
C1371 C1367 1.429 . S
C1371 C1372 1.523 . S
C1372 C1356 1.368 . S
C1372 C1368 1.368 . S
C1372 C1371 1.523 . S
H1373 C1348 0.950 . S
H1374 C1350 0.950 . S
H1375 C1351 0.949 . S
H1376 C1353 0.950 . S
H1377 C1355 0.950 . S
C1378 C1379 1.349 . S
C1378 C1380 1.327 . S
C1378 H1403 0.950 . S
C1379 C1378 1.349 . S
C1379 C1395 1.349 . S
C1380 C1378 1.327 . S
C1380 C1399 1.429 . S
C1380 H1404 0.950 . S
C1381 C1398 1.574 1_455 S
C1381 C1400 1.368 . S
C1381 H1405 0.949 . S
H1382 C1386 0.949 . S
C1383 C1384 1.349 . S
C1383 C1385 1.327 . S
C1383 H1406 0.950 . S
C1384 C1383 1.349 . S
C1384 C1396 1.349 . S
C1385 C1383 1.327 . S
C1385 C1401 1.429 . S
C1385 H1407 0.950 . S
C1386 H1382 0.949 . S
C1386 C1394 1.574 1_655 S
C1386 C1402 1.368 . S
H1387 C1395 0.950 . S
H1388 C1393 0.950 . S
H1389 C1394 0.949 . S
H1390 C1396 0.950 . S
H1391 C1397 0.950 . S
H1392 C1398 0.949 . S
C1393 H1388 0.950 . S
C1393 C1395 1.327 . S
C1393 C1399 1.429 . S
C1394 C1386 1.574 1_455 S
C1394 H1389 0.949 . S
C1394 C1400 1.368 . S
C1395 C1379 1.349 . S
C1395 H1387 0.950 . S
C1395 C1393 1.327 . S
C1396 C1384 1.349 . S
C1396 H1390 0.950 . S
C1396 C1397 1.327 . S
C1397 H1391 0.950 . S
C1397 C1396 1.327 . S
C1397 C1401 1.429 . S
C1398 C1381 1.574 1_655 S
C1398 H1392 0.949 . S
C1398 C1402 1.368 . S
C1399 C1380 1.429 . S
C1399 C1393 1.429 . S
C1399 C1400 1.523 . S
C1400 C1381 1.368 . S
C1400 C1394 1.368 . S
C1400 C1399 1.523 . S
C1401 C1385 1.429 . S
C1401 C1397 1.429 . S
C1401 C1402 1.523 . S
C1402 C1386 1.368 . S
C1402 C1398 1.368 . S
C1402 C1401 1.523 . S
H1403 C1378 0.950 . S
H1404 C1380 0.950 . S
H1405 C1381 0.949 . S
H1406 C1383 0.950 . S
H1407 C1385 0.950 . S
C1408 C1409 1.349 . S
C1408 C1410 1.327 . S
C1408 H1433 0.950 . S
C1409 C1408 1.349 . S
C1409 C1425 1.349 . S
C1410 C1408 1.327 . S
C1410 C1429 1.429 . S
C1410 H1434 0.950 . S
C1411 C1428 1.574 . S
C1411 C1430 1.368 1_554 S
C1411 H1435 0.949 . S
H1412 C1416 0.949 . S
C1413 C1414 1.349 . S
C1413 C1415 1.327 . S
C1413 H1436 0.950 . S
C1414 C1413 1.349 . S
C1414 C1426 1.349 . S
C1415 C1413 1.327 . S
C1415 C1431 1.429 . S
C1415 H1437 0.950 . S
C1416 H1412 0.949 . S
C1416 C1424 1.574 . S
C1416 C1432 1.368 1_556 S
H1417 C1425 0.950 . S
H1418 C1423 0.950 1_554 S
H1419 C1424 0.949 . S
H1420 C1426 0.950 . S
H1421 C1427 0.950 1_556 S
H1422 C1428 0.949 . S
C1423 H1418 0.950 1_556 S
C1423 C1425 1.327 . S
C1423 C1429 1.429 . S
C1424 C1416 1.574 . S
C1424 H1419 0.949 . S
C1424 C1430 1.368 . S
C1425 C1409 1.349 . S
C1425 H1417 0.950 . S
C1425 C1423 1.327 . S
C1426 C1414 1.349 . S
C1426 H1420 0.950 . S
C1426 C1427 1.327 . S
C1427 H1421 0.950 1_554 S
C1427 C1426 1.327 . S
C1427 C1431 1.429 . S
C1428 C1411 1.574 . S
C1428 H1422 0.949 . S
C1428 C1432 1.368 . S
C1429 C1410 1.429 . S
C1429 C1423 1.429 . S
C1429 C1430 1.523 . S
C1430 C1411 1.368 1_556 S
C1430 C1424 1.368 . S
C1430 C1429 1.523 . S
C1431 C1415 1.429 . S
C1431 C1427 1.429 . S
C1431 C1432 1.523 . S
C1432 C1416 1.368 1_554 S
C1432 C1428 1.368 . S
C1432 C1431 1.523 . S
H1433 C1408 0.950 . S
H1434 C1410 0.950 . S
H1435 C1411 0.949 . S
H1436 C1413 0.950 . S
H1437 C1415 0.950 . S
C1438 C1439 1.349 . S
C1438 C1440 1.327 . S
C1438 H1463 0.950 . S
C1439 C1438 1.349 . S
C1439 C1455 1.349 . S
C1440 C1438 1.327 . S
C1440 C1459 1.429 . S
C1440 H1464 0.950 . S
C1441 C1458 1.574 . S
C1441 C1460 1.368 . S
C1441 H1465 0.949 . S
H1442 C1446 0.949 . S
C1443 C1444 1.349 . S
C1443 C1445 1.327 . S
C1443 H1466 0.950 . S
C1444 C1443 1.349 . S
C1444 C1456 1.349 . S
C1445 C1443 1.327 . S
C1445 C1461 1.429 . S
C1445 H1467 0.950 . S
C1446 H1442 0.949 . S
C1446 C1454 1.574 . S
C1446 C1462 1.368 . S
H1447 C1455 0.950 . S
H1448 C1453 0.950 . S
H1449 C1454 0.949 . S
H1450 C1456 0.950 . S
H1451 C1457 0.950 . S
H1452 C1458 0.949 . S
C1453 H1448 0.950 . S
C1453 C1455 1.327 . S
C1453 C1459 1.429 . S
C1454 C1446 1.574 . S
C1454 H1449 0.949 . S
C1454 C1460 1.368 . S
C1455 C1439 1.349 . S
C1455 H1447 0.950 . S
C1455 C1453 1.327 . S
C1456 C1444 1.349 . S
C1456 H1450 0.950 . S
C1456 C1457 1.327 . S
C1457 H1451 0.950 . S
C1457 C1456 1.327 . S
C1457 C1461 1.429 . S
C1458 C1441 1.574 . S
C1458 H1452 0.949 . S
C1458 C1462 1.368 . S
C1459 C1440 1.429 . S
C1459 C1453 1.429 . S
C1459 C1460 1.523 . S
C1460 C1441 1.368 . S
C1460 C1454 1.368 . S
C1460 C1459 1.523 . S
C1461 C1445 1.429 . S
C1461 C1457 1.429 . S
C1461 C1462 1.523 . S
C1462 C1446 1.368 . S
C1462 C1458 1.368 . S
C1462 C1461 1.523 . S
H1463 C1438 0.950 . S
H1464 C1440 0.950 . S
H1465 C1441 0.949 . S
H1466 C1443 0.950 . S
H1467 C1445 0.950 . S
C1468 C1469 1.349 . S
C1468 C1470 1.327 . S
C1468 H1493 0.950 . S
C1469 C1468 1.349 . S
C1469 C1485 1.349 . S
C1470 C1468 1.327 . S
C1470 C1489 1.429 . S
C1470 H1494 0.950 . S
C1471 C1488 1.574 . S
C1471 C1490 1.368 . S
C1471 H1495 0.949 . S
H1472 C1476 0.949 . S
C1473 C1474 1.349 . S
C1473 C1475 1.327 . S
C1473 H1496 0.950 . S
C1474 C1473 1.349 . S
C1474 C1486 1.349 . S
C1475 C1473 1.327 . S
C1475 C1491 1.429 . S
C1475 H1497 0.950 . S
C1476 H1472 0.949 . S
C1476 C1484 1.574 . S
C1476 C1492 1.368 . S
H1477 C1485 0.950 . S
H1478 C1483 0.950 . S
H1479 C1484 0.949 . S
H1480 C1486 0.950 . S
H1481 C1487 0.950 . S
H1482 C1488 0.949 . S
C1483 H1478 0.950 . S
C1483 C1485 1.327 . S
C1483 C1489 1.429 . S
C1484 C1476 1.574 . S
C1484 H1479 0.949 . S
C1484 C1490 1.368 . S
C1485 C1469 1.349 . S
C1485 H1477 0.950 . S
C1485 C1483 1.327 . S
C1486 C1474 1.349 . S
C1486 H1480 0.950 . S
C1486 C1487 1.327 . S
C1487 H1481 0.950 . S
C1487 C1486 1.327 . S
C1487 C1491 1.429 . S
C1488 C1471 1.574 . S
C1488 H1482 0.949 . S
C1488 C1492 1.368 . S
C1489 C1470 1.429 . S
C1489 C1483 1.429 . S
C1489 C1490 1.523 . S
C1490 C1471 1.368 . S
C1490 C1484 1.368 . S
C1490 C1489 1.523 . S
C1491 C1475 1.429 . S
C1491 C1487 1.429 . S
C1491 C1492 1.523 . S
C1492 C1476 1.368 . S
C1492 C1488 1.368 . S
C1492 C1491 1.523 . S
H1493 C1468 0.950 . S
H1494 C1470 0.950 . S
H1495 C1471 0.949 . S
H1496 C1473 0.950 . S
H1497 C1475 0.950 . S
C1498 C1499 1.349 . S
C1498 C1500 1.327 . S
C1498 H1523 0.950 . S
C1499 C1498 1.349 . S
C1499 C1515 1.349 . S
C1500 C1498 1.327 . S
C1500 C1519 1.429 . S
C1500 H1524 0.950 . S
C1501 C1518 1.574 . S
C1501 C1520 1.368 . S
C1501 H1525 0.949 . S
H1502 C1506 0.949 . S
C1503 C1504 1.349 . S
C1503 C1505 1.327 . S
C1503 H1526 0.950 . S
C1504 C1503 1.349 . S
C1504 C1516 1.349 . S
C1505 C1503 1.327 . S
C1505 C1521 1.429 . S
C1505 H1527 0.950 . S
C1506 H1502 0.949 . S
C1506 C1514 1.574 . S
C1506 C1522 1.368 . S
H1507 C1515 0.950 . S
H1508 C1513 0.950 . S
H1509 C1514 0.949 . S
H1510 C1516 0.950 . S
H1511 C1517 0.950 . S
H1512 C1518 0.949 . S
C1513 H1508 0.950 . S
C1513 C1515 1.327 . S
C1513 C1519 1.429 . S
C1514 C1506 1.574 . S
C1514 H1509 0.949 . S
C1514 C1520 1.368 . S
C1515 C1499 1.349 . S
C1515 H1507 0.950 . S
C1515 C1513 1.327 . S
C1516 C1504 1.349 . S
C1516 H1510 0.950 . S
C1516 C1517 1.327 . S
C1517 H1511 0.950 . S
C1517 C1516 1.327 . S
C1517 C1521 1.429 . S
C1518 C1501 1.574 . S
C1518 H1512 0.949 . S
C1518 C1522 1.368 . S
C1519 C1500 1.429 . S
C1519 C1513 1.429 . S
C1519 C1520 1.523 . S
C1520 C1501 1.368 . S
C1520 C1514 1.368 . S
C1520 C1519 1.523 . S
C1521 C1505 1.429 . S
C1521 C1517 1.429 . S
C1521 C1522 1.523 . S
C1522 C1506 1.368 . S
C1522 C1518 1.368 . S
C1522 C1521 1.523 . S
H1523 C1498 0.950 . S
H1524 C1500 0.950 . S
H1525 C1501 0.949 . S
H1526 C1503 0.950 . S
H1527 C1505 0.950 . S
C1528 C1529 1.349 . S
C1528 C1530 1.327 . S
C1528 H1553 0.950 . S
C1529 C1528 1.349 . S
C1529 C1545 1.335 1_554 S
C1530 C1528 1.327 . S
C1530 C1549 1.429 . S
C1530 H1554 0.950 . S
C1531 C1548 1.574 . S
C1531 C1550 1.368 1_556 S
C1531 H1555 0.949 . S
H1532 C1536 0.949 . S
C1533 C1534 1.349 . S
C1533 C1535 1.327 . S
C1533 H1556 0.950 . S
C1534 C1533 1.349 . S
C1534 C1546 1.335 1_556 S
C1535 C1533 1.327 . S
C1535 C1551 1.429 . S
C1535 H1557 0.950 . S
C1536 H1532 0.949 . S
C1536 C1544 1.574 . S
C1536 C1552 1.368 1_554 S
H1537 C1545 0.960 . S
H1538 C1543 0.950 . S
H1539 C1544 0.949 . S
H1540 C1546 0.960 . S
H1541 C1547 0.950 . S
H1542 C1548 0.949 . S
C1543 H1538 0.950 . S
C1543 C1545 1.331 . S
C1543 C1549 1.429 1_556 S
C1544 C1536 1.574 . S
C1544 H1539 0.949 . S
C1544 C1550 1.368 . S
C1545 C1529 1.335 1_556 S
C1545 H1537 0.960 . S
C1545 C1543 1.331 . S
C1546 C1534 1.335 1_554 S
C1546 H1540 0.960 . S
C1546 C1547 1.331 . S
C1547 H1541 0.950 . S
C1547 C1546 1.331 . S
C1547 C1551 1.429 1_554 S
C1548 C1531 1.574 . S
C1548 H1542 0.949 . S
C1548 C1552 1.368 . S
C1549 C1530 1.429 . S
C1549 C1543 1.429 1_554 S
C1549 C1550 1.523 . S
C1550 C1531 1.368 1_554 S
C1550 C1544 1.368 . S
C1550 C1549 1.523 . S
C1551 C1535 1.429 . S
C1551 C1547 1.429 1_556 S
C1551 C1552 1.523 . S
C1552 C1536 1.368 1_556 S
C1552 C1548 1.368 . S
C1552 C1551 1.523 . S
H1553 C1528 0.950 . S
H1554 C1530 0.950 . S
H1555 C1531 0.949 . S
H1556 C1533 0.950 . S
H1557 C1535 0.950 . S
C1558 C1559 1.349 . S
C1558 C1560 1.327 . S
C1558 H1583 0.950 . S
C1559 C1558 1.349 . S
C1559 C1575 1.349 . S
C1560 C1558 1.327 . S
C1560 C1579 1.429 . S
C1560 H1584 0.950 . S
C1561 C1578 1.574 . S
C1561 C1580 1.368 . S
C1561 H1585 0.949 . S
H1562 C1566 0.949 . S
C1563 C1564 1.349 . S
C1563 C1565 1.327 . S
C1563 H1586 0.950 . S
C1564 C1563 1.349 . S
C1564 C1576 1.349 . S
C1565 C1563 1.327 . S
C1565 C1581 1.429 . S
C1565 H1587 0.950 . S
C1566 H1562 0.949 . S
C1566 C1574 1.574 . S
C1566 C1582 1.368 . S
H1567 C1575 0.950 . S
H1568 C1573 0.950 . S
H1569 C1574 0.949 . S
H1570 C1576 0.950 . S
H1571 C1577 0.950 . S
H1572 C1578 0.949 . S
C1573 H1568 0.950 . S
C1573 C1575 1.327 . S
C1573 C1579 1.429 . S
C1574 C1566 1.574 . S
C1574 H1569 0.949 . S
C1574 C1580 1.368 . S
C1575 C1559 1.349 . S
C1575 H1567 0.950 . S
C1575 C1573 1.327 . S
C1576 C1564 1.349 . S
C1576 H1570 0.950 . S
C1576 C1577 1.327 . S
C1577 H1571 0.950 . S
C1577 C1576 1.327 . S
C1577 C1581 1.429 . S
C1578 C1561 1.574 . S
C1578 H1572 0.949 . S
C1578 C1582 1.368 . S
C1579 C1560 1.429 . S
C1579 C1573 1.429 . S
C1579 C1580 1.523 . S
C1580 C1561 1.368 . S
C1580 C1574 1.368 . S
C1580 C1579 1.523 . S
C1581 C1565 1.429 . S
C1581 C1577 1.429 . S
C1581 C1582 1.523 . S
C1582 C1566 1.368 . S
C1582 C1578 1.368 . S
C1582 C1581 1.523 . S
H1583 C1558 0.950 . S
H1584 C1560 0.950 . S
H1585 C1561 0.949 . S
H1586 C1563 0.950 . S
H1587 C1565 0.950 . S
C1588 C1589 1.349 . S
C1588 C1590 1.327 . S
C1588 H1613 0.950 . S
C1589 C1588 1.349 . S
C1589 C1605 1.349 . S
C1590 C1588 1.327 . S
C1590 C1609 1.429 . S
C1590 H1614 0.950 . S
C1591 C1608 1.574 . S
C1591 C1610 1.368 . S
C1591 H1615 0.949 . S
H1592 C1596 0.949 . S
C1593 C1594 1.349 . S
C1593 C1595 1.327 . S
C1593 H1616 0.950 . S
C1594 C1593 1.349 . S
C1594 C1606 1.349 . S
C1595 C1593 1.327 . S
C1595 C1611 1.429 . S
C1595 H1617 0.950 . S
C1596 H1592 0.949 . S
C1596 C1604 1.574 . S
C1596 C1612 1.368 . S
H1597 C1605 0.950 . S
H1598 C1603 0.950 . S
H1599 C1604 0.949 . S
H1600 C1606 0.950 . S
H1601 C1607 0.950 . S
H1602 C1608 0.949 . S
C1603 H1598 0.950 . S
C1603 C1605 1.327 . S
C1603 C1609 1.429 . S
C1604 C1596 1.574 . S
C1604 H1599 0.949 . S
C1604 C1610 1.368 . S
C1605 C1589 1.349 . S
C1605 H1597 0.950 . S
C1605 C1603 1.327 . S
C1606 C1594 1.349 . S
C1606 H1600 0.950 . S
C1606 C1607 1.327 . S
C1607 H1601 0.950 . S
C1607 C1606 1.327 . S
C1607 C1611 1.429 . S
C1608 C1591 1.574 . S
C1608 H1602 0.949 . S
C1608 C1612 1.368 . S
C1609 C1590 1.429 . S
C1609 C1603 1.429 . S
C1609 C1610 1.523 . S
C1610 C1591 1.368 . S
C1610 C1604 1.368 . S
C1610 C1609 1.523 . S
C1611 C1595 1.429 . S
C1611 C1607 1.429 . S
C1611 C1612 1.523 . S
C1612 C1596 1.368 . S
C1612 C1608 1.368 . S
C1612 C1611 1.523 . S
H1613 C1588 0.950 . S
H1614 C1590 0.950 . S
H1615 C1591 0.949 . S
H1616 C1593 0.950 . S
H1617 C1595 0.950 . S
C1618 C1619 1.349 . S
C1618 C1620 1.327 . S
C1618 H1643 0.950 . S
C1619 C1618 1.349 . S
C1619 C1635 1.349 . S
C1620 C1618 1.327 . S
C1620 C1639 1.429 . S
C1620 H1644 0.950 . S
C1621 C1638 1.574 . S
C1621 C1640 1.368 . S
C1621 H1645 0.949 . S
H1622 C1626 0.949 . S
C1623 C1624 1.349 . S
C1623 C1625 1.327 . S
C1623 H1646 0.950 . S
C1624 C1623 1.349 . S
C1624 C1636 1.349 . S
C1625 C1623 1.327 . S
C1625 C1641 1.429 . S
C1625 H1647 0.950 . S
C1626 H1622 0.949 . S
C1626 C1634 1.574 . S
C1626 C1642 1.368 . S
H1627 C1635 0.950 . S
H1628 C1633 0.950 . S
H1629 C1634 0.949 . S
H1630 C1636 0.950 . S
H1631 C1637 0.950 . S
H1632 C1638 0.949 . S
C1633 H1628 0.950 . S
C1633 C1635 1.327 . S
C1633 C1639 1.429 . S
C1634 C1626 1.574 . S
C1634 H1629 0.949 . S
C1634 C1640 1.368 . S
C1635 C1619 1.349 . S
C1635 H1627 0.950 . S
C1635 C1633 1.327 . S
C1636 C1624 1.349 . S
C1636 H1630 0.950 . S
C1636 C1637 1.327 . S
C1637 H1631 0.950 . S
C1637 C1636 1.327 . S
C1637 C1641 1.429 . S
C1638 C1621 1.574 . S
C1638 H1632 0.949 . S
C1638 C1642 1.368 . S
C1639 C1620 1.429 . S
C1639 C1633 1.429 . S
C1639 C1640 1.523 . S
C1640 C1621 1.368 . S
C1640 C1634 1.368 . S
C1640 C1639 1.523 . S
C1641 C1625 1.429 . S
C1641 C1637 1.429 . S
C1641 C1642 1.523 . S
C1642 C1626 1.368 . S
C1642 C1638 1.368 . S
C1642 C1641 1.523 . S
H1643 C1618 0.950 . S
H1644 C1620 0.950 . S
H1645 C1621 0.949 . S
H1646 C1623 0.950 . S
H1647 C1625 0.950 . S
C1648 C1649 1.349 . S
C1648 C1650 1.327 . S
C1648 H1673 0.950 . S
C1649 C1648 1.349 . S
C1649 C1665 1.349 . S
C1650 C1648 1.327 . S
C1650 C1669 1.429 . S
C1650 H1674 0.950 . S
C1651 C1668 1.574 1_545 S
C1651 C1670 1.368 . S
C1651 H1675 0.949 . S
H1652 C1656 0.949 . S
C1653 C1654 1.349 . S
C1653 C1655 1.327 . S
C1653 H1676 0.950 . S
C1654 C1653 1.349 . S
C1654 C1666 1.349 . S
C1655 C1653 1.327 . S
C1655 C1671 1.429 . S
C1655 H1677 0.950 . S
C1656 H1652 0.949 . S
C1656 C1664 1.574 1_565 S
C1656 C1672 1.368 . S
H1657 C1665 0.950 . S
H1658 C1663 0.950 . S
H1659 C1664 0.949 . S
H1660 C1666 0.950 . S
H1661 C1667 0.950 . S
H1662 C1668 0.949 . S
C1663 H1658 0.950 . S
C1663 C1665 1.327 . S
C1663 C1669 1.429 . S
C1664 C1656 1.574 1_545 S
C1664 H1659 0.949 . S
C1664 C1670 1.368 . S
C1665 C1649 1.349 . S
C1665 H1657 0.950 . S
C1665 C1663 1.327 . S
C1666 C1654 1.349 . S
C1666 H1660 0.950 . S
C1666 C1667 1.327 . S
C1667 H1661 0.950 . S
C1667 C1666 1.327 . S
C1667 C1671 1.429 . S
C1668 C1651 1.574 1_565 S
C1668 H1662 0.949 . S
C1668 C1672 1.368 . S
C1669 C1650 1.429 . S
C1669 C1663 1.429 . S
C1669 C1670 1.523 . S
C1670 C1651 1.368 . S
C1670 C1664 1.368 . S
C1670 C1669 1.523 . S
C1671 C1655 1.429 . S
C1671 C1667 1.429 . S
C1671 C1672 1.523 . S
C1672 C1656 1.368 . S
C1672 C1668 1.368 . S
C1672 C1671 1.523 . S
H1673 C1648 0.950 . S
H1674 C1650 0.950 . S
H1675 C1651 0.949 . S
H1676 C1653 0.950 . S
H1677 C1655 0.950 . S
C1678 C1679 1.349 . S
C1678 C1680 1.327 . S
C1678 H1703 0.950 . S
C1679 C1678 1.349 . S
C1679 C1695 1.349 . S
C1680 C1678 1.327 . S
C1680 C1699 1.429 . S
C1680 H1704 0.950 . S
C1681 C1698 1.574 . S
C1681 C1700 1.368 . S
C1681 H1705 0.949 . S
H1682 C1686 0.949 . S
C1683 C1684 1.349 . S
C1683 C1685 1.327 . S
C1683 H1706 0.950 . S
C1684 C1683 1.349 . S
C1684 C1696 1.349 . S
C1685 C1683 1.327 . S
C1685 C1701 1.429 . S
C1685 H1707 0.950 . S
C1686 H1682 0.949 . S
C1686 C1694 1.574 . S
C1686 C1702 1.368 . S
H1687 C1695 0.950 . S
H1688 C1693 0.950 . S
H1689 C1694 0.949 . S
H1690 C1696 0.950 . S
H1691 C1697 0.950 . S
H1692 C1698 0.949 . S
C1693 H1688 0.950 . S
C1693 C1695 1.327 . S
C1693 C1699 1.429 . S
C1694 C1686 1.574 . S
C1694 H1689 0.949 . S
C1694 C1700 1.368 . S
C1695 C1679 1.349 . S
C1695 H1687 0.950 . S
C1695 C1693 1.327 . S
C1696 C1684 1.349 . S
C1696 H1690 0.950 . S
C1696 C1697 1.327 . S
C1697 H1691 0.950 . S
C1697 C1696 1.327 . S
C1697 C1701 1.429 . S
C1698 C1681 1.574 . S
C1698 H1692 0.949 . S
C1698 C1702 1.368 . S
C1699 C1680 1.429 . S
C1699 C1693 1.429 . S
C1699 C1700 1.523 . S
C1700 C1681 1.368 . S
C1700 C1694 1.368 . S
C1700 C1699 1.523 . S
C1701 C1685 1.429 . S
C1701 C1697 1.429 . S
C1701 C1702 1.523 . S
C1702 C1686 1.368 . S
C1702 C1698 1.368 . S
C1702 C1701 1.523 . S
H1703 C1678 0.950 . S
H1704 C1680 0.950 . S
H1705 C1681 0.949 . S
H1706 C1683 0.950 . S
H1707 C1685 0.950 . S
C1708 C1709 1.349 . S
C1708 C1710 1.327 . S
C1708 H1733 0.950 . S
C1709 C1708 1.349 . S
C1709 C1725 1.382 . S
C1710 C1708 1.327 . S
C1710 C1729 1.429 . S
C1710 H1734 0.950 . S
C1711 C1728 1.574 1_565 S
C1711 C1730 1.368 1_556 S
C1711 H1735 0.949 . S
H1712 C1716 0.949 . S
C1713 C1714 1.349 . S
C1713 C1715 1.327 . S
C1713 H1736 0.950 . S
C1714 C1713 1.349 . S
C1714 C1726 1.382 . S
C1715 C1713 1.327 . S
C1715 C1731 1.429 . S
C1715 H1737 0.950 . S
C1716 H1712 0.949 . S
C1716 C1724 1.574 1_545 S
C1716 C1732 1.368 1_554 S
H1717 C1725 0.927 1_556 S
H1718 C1723 0.950 . S
H1719 C1724 0.949 . S
H1720 C1726 0.926 1_554 S
H1721 C1727 0.950 . S
H1722 C1728 0.949 . S
C1723 H1718 0.950 . S
C1723 C1725 1.319 1_556 S
C1723 C1729 1.429 1_556 S
C1724 C1716 1.574 1_565 S
C1724 H1719 0.949 . S
C1724 C1730 1.368 . S
C1725 C1709 1.382 . S
C1725 H1717 0.927 1_554 S
C1725 C1723 1.319 1_554 S
C1726 C1714 1.382 . S
C1726 H1720 0.926 1_556 S
C1726 C1727 1.319 1_556 S
C1727 H1721 0.950 . S
C1727 C1726 1.319 1_554 S
C1727 C1731 1.429 1_554 S
C1728 C1711 1.574 1_545 S
C1728 H1722 0.949 . S
C1728 C1732 1.368 . S
C1729 C1710 1.429 . S
C1729 C1723 1.429 1_554 S
C1729 C1730 1.523 . S
C1730 C1711 1.368 1_554 S
C1730 C1724 1.368 . S
C1730 C1729 1.523 . S
C1731 C1715 1.429 . S
C1731 C1727 1.429 1_556 S
C1731 C1732 1.523 . S
C1732 C1716 1.368 1_556 S
C1732 C1728 1.368 . S
C1732 C1731 1.523 . S
H1733 C1708 0.950 . S
H1734 C1710 0.950 . S
H1735 C1711 0.949 . S
H1736 C1713 0.950 . S
H1737 C1715 0.950 . S
C1738 C1739 1.349 . S
C1738 C1740 1.327 . S
C1738 H1763 0.950 . S
C1739 C1738 1.349 . S
C1739 C1755 1.349 . S
C1740 C1738 1.327 . S
C1740 C1759 1.429 . S
C1740 H1764 0.950 . S
C1741 C1758 1.574 . S
C1741 C1760 1.368 . S
C1741 H1765 0.949 . S
H1742 C1746 0.949 . S
C1743 C1744 1.349 . S
C1743 C1745 1.327 . S
C1743 H1766 0.950 . S
C1744 C1743 1.349 . S
C1744 C1756 1.349 . S
C1745 C1743 1.327 . S
C1745 C1761 1.429 . S
C1745 H1767 0.950 . S
C1746 H1742 0.949 . S
C1746 C1754 1.574 . S
C1746 C1762 1.368 . S
H1747 C1755 0.950 . S
H1748 C1753 0.950 . S
H1749 C1754 0.949 . S
H1750 C1756 0.950 . S
H1751 C1757 0.950 . S
H1752 C1758 0.949 . S
C1753 H1748 0.950 . S
C1753 C1755 1.327 . S
C1753 C1759 1.429 . S
C1754 C1746 1.574 . S
C1754 H1749 0.949 . S
C1754 C1760 1.368 . S
C1755 C1739 1.349 . S
C1755 H1747 0.950 . S
C1755 C1753 1.327 . S
C1756 C1744 1.349 . S
C1756 H1750 0.950 . S
C1756 C1757 1.327 . S
C1757 H1751 0.950 . S
C1757 C1756 1.327 . S
C1757 C1761 1.429 . S
C1758 C1741 1.574 . S
C1758 H1752 0.949 . S
C1758 C1762 1.368 . S
C1759 C1740 1.429 . S
C1759 C1753 1.429 . S
C1759 C1760 1.523 . S
C1760 C1741 1.368 . S
C1760 C1754 1.368 . S
C1760 C1759 1.523 . S
C1761 C1745 1.429 . S
C1761 C1757 1.429 . S
C1761 C1762 1.523 . S
C1762 C1746 1.368 . S
C1762 C1758 1.368 . S
C1762 C1761 1.523 . S
H1763 C1738 0.950 . S
H1764 C1740 0.950 . S
H1765 C1741 0.949 . S
H1766 C1743 0.950 . S
H1767 C1745 0.950 . S
C1768 C1769 1.349 . S
C1768 C1770 1.327 . S
C1768 H1793 0.950 . S
C1769 C1768 1.349 . S
C1769 C1785 1.349 . S
C1770 C1768 1.327 . S
C1770 C1789 1.429 . S
C1770 H1794 0.950 . S
C1771 C1788 1.574 1_545 S
C1771 C1790 1.368 . S
C1771 H1795 0.949 . S
H1772 C1776 0.949 . S
C1773 C1774 1.349 . S
C1773 C1775 1.327 . S
C1773 H1796 0.950 . S
C1774 C1773 1.349 . S
C1774 C1786 1.349 . S
C1775 C1773 1.327 . S
C1775 C1791 1.429 . S
C1775 H1797 0.950 . S
C1776 H1772 0.949 . S
C1776 C1784 1.574 1_565 S
C1776 C1792 1.368 . S
H1777 C1785 0.950 . S
H1778 C1783 0.950 . S
H1779 C1784 0.949 . S
H1780 C1786 0.950 . S
H1781 C1787 0.950 . S
H1782 C1788 0.949 . S
C1783 H1778 0.950 . S
C1783 C1785 1.327 . S
C1783 C1789 1.429 . S
C1784 C1776 1.574 1_545 S
C1784 H1779 0.949 . S
C1784 C1790 1.368 . S
C1785 C1769 1.349 . S
C1785 H1777 0.950 . S
C1785 C1783 1.327 . S
C1786 C1774 1.349 . S
C1786 H1780 0.950 . S
C1786 C1787 1.327 . S
C1787 H1781 0.950 . S
C1787 C1786 1.327 . S
C1787 C1791 1.429 . S
C1788 C1771 1.574 1_565 S
C1788 H1782 0.949 . S
C1788 C1792 1.368 . S
C1789 C1770 1.429 . S
C1789 C1783 1.429 . S
C1789 C1790 1.523 . S
C1790 C1771 1.368 . S
C1790 C1784 1.368 . S
C1790 C1789 1.523 . S
C1791 C1775 1.429 . S
C1791 C1787 1.429 . S
C1791 C1792 1.523 . S
C1792 C1776 1.368 . S
C1792 C1788 1.368 . S
C1792 C1791 1.523 . S
H1793 C1768 0.950 . S
H1794 C1770 0.950 . S
H1795 C1771 0.949 . S
H1796 C1773 0.950 . S
H1797 C1775 0.950 . S
C1798 C1799 1.349 . S
C1798 C1800 1.327 . S
C1798 H1823 0.950 . S
C1799 C1798 1.349 . S
C1799 C1815 1.349 . S
C1800 C1798 1.327 . S
C1800 C1819 1.429 . S
C1800 H1824 0.950 . S
C1801 C1818 1.574 . S
C1801 C1820 1.368 . S
C1801 H1825 0.949 . S
H1802 C1806 0.949 . S
C1803 C1804 1.349 . S
C1803 C1805 1.327 . S
C1803 H1826 0.950 . S
C1804 C1803 1.349 . S
C1804 C1816 1.349 . S
C1805 C1803 1.327 . S
C1805 C1821 1.429 . S
C1805 H1827 0.950 . S
C1806 H1802 0.949 . S
C1806 C1814 1.574 . S
C1806 C1822 1.368 . S
H1807 C1815 0.950 . S
H1808 C1813 0.950 . S
H1809 C1814 0.949 . S
H1810 C1816 0.950 . S
H1811 C1817 0.950 . S
H1812 C1818 0.949 . S
C1813 H1808 0.950 . S
C1813 C1815 1.327 . S
C1813 C1819 1.429 . S
C1814 C1806 1.574 . S
C1814 H1809 0.949 . S
C1814 C1820 1.368 . S
C1815 C1799 1.349 . S
C1815 H1807 0.950 . S
C1815 C1813 1.327 . S
C1816 C1804 1.349 . S
C1816 H1810 0.950 . S
C1816 C1817 1.327 . S
C1817 H1811 0.950 . S
C1817 C1816 1.327 . S
C1817 C1821 1.429 . S
C1818 C1801 1.574 . S
C1818 H1812 0.949 . S
C1818 C1822 1.368 . S
C1819 C1800 1.429 . S
C1819 C1813 1.429 . S
C1819 C1820 1.523 . S
C1820 C1801 1.368 . S
C1820 C1814 1.368 . S
C1820 C1819 1.523 . S
C1821 C1805 1.429 . S
C1821 C1817 1.429 . S
C1821 C1822 1.523 . S
C1822 C1806 1.368 . S
C1822 C1818 1.368 . S
C1822 C1821 1.523 . S
H1823 C1798 0.950 . S
H1824 C1800 0.950 . S
H1825 C1801 0.949 . S
H1826 C1803 0.950 . S
H1827 C1805 0.950 . S
C1828 C1829 1.349 . S
C1828 C1830 1.327 . S
C1828 H1853 0.950 . S
C1829 C1828 1.349 . S
C1829 C1845 1.349 . S
C1830 C1828 1.327 . S
C1830 C1849 1.429 . S
C1830 H1854 0.950 . S
C1831 C1848 1.574 1_565 S
C1831 C1850 1.368 1_556 S
C1831 H1855 0.949 . S
H1832 C1836 0.949 . S
C1833 C1834 1.349 . S
C1833 C1835 1.327 . S
C1833 H1856 0.950 . S
C1834 C1833 1.349 . S
C1834 C1846 1.349 . S
C1835 C1833 1.327 . S
C1835 C1851 1.429 . S
C1835 H1857 0.950 . S
C1836 H1832 0.949 . S
C1836 C1844 1.574 1_545 S
C1836 C1852 1.368 1_554 S
H1837 C1845 0.950 1_556 S
H1838 C1843 0.950 . S
H1839 C1844 0.949 . S
H1840 C1846 0.950 1_554 S
H1841 C1847 0.950 . S
H1842 C1848 0.949 . S
C1843 H1838 0.950 . S
C1843 C1845 1.327 1_556 S
C1843 C1849 1.429 1_556 S
C1844 C1836 1.574 1_565 S
C1844 H1839 0.949 . S
C1844 C1850 1.368 . S
C1845 C1829 1.349 . S
C1845 H1837 0.950 1_554 S
C1845 C1843 1.327 1_554 S
C1846 C1834 1.349 . S
C1846 H1840 0.950 1_556 S
C1846 C1847 1.327 1_556 S
C1847 H1841 0.950 . S
C1847 C1846 1.327 1_554 S
C1847 C1851 1.429 1_554 S
C1848 C1831 1.574 1_545 S
C1848 H1842 0.949 . S
C1848 C1852 1.368 . S
C1849 C1830 1.429 . S
C1849 C1843 1.429 1_554 S
C1849 C1850 1.523 . S
C1850 C1831 1.368 1_554 S
C1850 C1844 1.368 . S
C1850 C1849 1.523 . S
C1851 C1835 1.429 . S
C1851 C1847 1.429 1_556 S
C1851 C1852 1.523 . S
C1852 C1836 1.368 1_556 S
C1852 C1848 1.368 . S
C1852 C1851 1.523 . S
H1853 C1828 0.950 . S
H1854 C1830 0.950 . S
H1855 C1831 0.949 . S
H1856 C1833 0.950 . S
H1857 C1835 0.950 . S
C1858 C1859 1.349 . S
C1858 C1860 1.327 . S
C1858 H1883 0.950 . S
C1859 C1858 1.349 . S
C1859 C1875 1.349 . S
C1860 C1858 1.327 . S
C1860 C1879 1.429 . S
C1860 H1884 0.950 . S
C1861 C1878 1.574 . S
C1861 C1880 1.368 . S
C1861 H1885 0.949 . S
H1862 C1866 0.949 . S
C1863 C1864 1.349 . S
C1863 C1865 1.327 . S
C1863 H1886 0.950 . S
C1864 C1863 1.349 . S
C1864 C1876 1.349 . S
C1865 C1863 1.327 . S
C1865 C1881 1.429 . S
C1865 H1887 0.950 . S
C1866 H1862 0.949 . S
C1866 C1874 1.574 . S
C1866 C1882 1.368 . S
H1867 C1875 0.950 . S
H1868 C1873 0.950 . S
H1869 C1874 0.949 . S
H1870 C1876 0.950 . S
H1871 C1877 0.950 . S
H1872 C1878 0.949 . S
C1873 H1868 0.950 . S
C1873 C1875 1.327 . S
C1873 C1879 1.429 . S
C1874 C1866 1.574 . S
C1874 H1869 0.949 . S
C1874 C1880 1.368 . S
C1875 C1859 1.349 . S
C1875 H1867 0.950 . S
C1875 C1873 1.327 . S
C1876 C1864 1.349 . S
C1876 H1870 0.950 . S
C1876 C1877 1.327 . S
C1877 H1871 0.950 . S
C1877 C1876 1.327 . S
C1877 C1881 1.429 . S
C1878 C1861 1.574 . S
C1878 H1872 0.949 . S
C1878 C1882 1.368 . S
C1879 C1860 1.429 . S
C1879 C1873 1.429 . S
C1879 C1880 1.523 . S
C1880 C1861 1.368 . S
C1880 C1874 1.368 . S
C1880 C1879 1.523 . S
C1881 C1865 1.429 . S
C1881 C1877 1.429 . S
C1881 C1882 1.523 . S
C1882 C1866 1.368 . S
C1882 C1878 1.368 . S
C1882 C1881 1.523 . S
H1883 C1858 0.950 . S
H1884 C1860 0.950 . S
H1885 C1861 0.949 . S
H1886 C1863 0.950 . S
H1887 C1865 0.950 . S
C1888 C1889 1.349 . S
C1888 C1890 1.327 . S
C1888 H1913 0.950 . S
C1889 C1888 1.349 . S
C1889 C1905 1.349 . S
C1890 C1888 1.327 . S
C1890 C1909 1.429 . S
C1890 H1914 0.996 . S
C1891 C1908 1.574 . S
C1891 C1910 1.368 . S
C1891 H1915 0.949 . S
H1892 C1896 0.985 . S
C1893 C1894 1.349 . S
C1893 C1895 1.327 . S
C1893 H1916 0.950 . S
C1894 C1893 1.349 . S
C1894 C1906 1.349 . S
C1895 C1893 1.327 . S
C1895 C1911 1.429 . S
C1895 H1917 0.950 . S
C1896 H1892 0.985 . S
C1896 C1904 1.574 . S
C1896 C1912 1.368 . S
H1897 C1905 0.950 . S
H1898 C1903 0.950 . S
H1899 C1904 0.985 . S
H1900 C1906 0.950 . S
H1901 C1907 0.996 . S
H1902 C1908 0.949 . S
C1903 H1898 0.950 . S
C1903 C1905 1.327 . S
C1903 C1909 1.429 . S
C1904 C1896 1.574 . S
C1904 H1899 0.985 . S
C1904 C1910 1.368 . S
C1905 C1889 1.349 . S
C1905 H1897 0.950 . S
C1905 C1903 1.327 . S
C1906 C1894 1.349 . S
C1906 H1900 0.950 . S
C1906 C1907 1.327 . S
C1907 H1901 0.996 . S
C1907 C1906 1.327 . S
C1907 C1911 1.429 . S
C1908 C1891 1.574 . S
C1908 H1902 0.949 . S
C1908 C1912 1.368 . S
C1909 C1890 1.429 . S
C1909 C1903 1.429 . S
C1909 C1910 1.523 . S
C1910 C1891 1.368 . S
C1910 C1904 1.368 . S
C1910 C1909 1.523 . S
C1911 C1895 1.429 . S
C1911 C1907 1.429 . S
C1911 C1912 1.523 . S
C1912 C1896 1.368 . S
C1912 C1908 1.368 . S
C1912 C1911 1.523 . S
H1913 C1888 0.950 . S
H1914 C1890 0.996 . S
H1915 C1891 0.949 . S
H1916 C1893 0.950 . S
H1917 C1895 0.950 . S
C1918 C1919 1.349 . S
C1918 C1920 1.327 . S
C1918 H1943 0.950 . S
C1919 C1918 1.349 . S
C1919 C1935 1.349 . S
C1920 C1918 1.327 . S
C1920 C1939 1.429 . S
C1920 H1944 0.950 . S
C1921 C1938 1.574 . S
C1921 C1940 1.368 . S
C1921 H1945 0.949 . S
H1922 C1926 0.949 . S
C1923 C1924 1.349 . S
C1923 C1925 1.327 . S
C1923 H1946 0.950 . S
C1924 C1923 1.349 . S
C1924 C1936 1.349 . S
C1925 C1923 1.327 . S
C1925 C1941 1.429 . S
C1925 H1947 0.950 . S
C1926 H1922 0.949 . S
C1926 C1934 1.574 . S
C1926 C1942 1.368 . S
H1927 C1935 0.950 . S
H1928 C1933 0.950 . S
H1929 C1934 0.949 . S
H1930 C1936 0.950 . S
H1931 C1937 0.950 . S
H1932 C1938 0.949 . S
C1933 H1928 0.950 . S
C1933 C1935 1.327 . S
C1933 C1939 1.429 . S
C1934 C1926 1.574 . S
C1934 H1929 0.949 . S
C1934 C1940 1.368 . S
C1935 C1919 1.349 . S
C1935 H1927 0.950 . S
C1935 C1933 1.327 . S
C1936 C1924 1.349 . S
C1936 H1930 0.950 . S
C1936 C1937 1.327 . S
C1937 H1931 0.950 . S
C1937 C1936 1.327 . S
C1937 C1941 1.429 . S
C1938 C1921 1.574 . S
C1938 H1932 0.949 . S
C1938 C1942 1.368 . S
C1939 C1920 1.429 . S
C1939 C1933 1.429 . S
C1939 C1940 1.523 . S
C1940 C1921 1.368 . S
C1940 C1934 1.368 . S
C1940 C1939 1.523 . S
C1941 C1925 1.429 . S
C1941 C1937 1.429 . S
C1941 C1942 1.523 . S
C1942 C1926 1.368 . S
C1942 C1938 1.368 . S
C1942 C1941 1.523 . S
H1943 C1918 0.950 . S
H1944 C1920 0.950 . S
H1945 C1921 0.949 . S
H1946 C1923 0.950 . S
H1947 C1925 0.950 . S
C1948 C1949 1.349 . S
C1948 C1950 1.327 . S
C1948 H1973 0.950 . S
C1949 C1948 1.349 . S
C1949 C1965 1.349 . S
C1950 C1948 1.327 . S
C1950 C1969 1.429 . S
C1950 H1974 0.950 . S
C1951 C1968 1.574 . S
C1951 C1970 1.368 . S
C1951 H1975 0.949 . S
H1952 C1956 0.949 . S
C1953 C1954 1.349 . S
C1953 C1955 1.327 . S
C1953 H1976 0.950 . S
C1954 C1953 1.349 . S
C1954 C1966 1.349 . S
C1955 C1953 1.327 . S
C1955 C1971 1.429 . S
C1955 H1977 0.950 . S
C1956 H1952 0.949 . S
C1956 C1964 1.574 . S
C1956 C1972 1.368 . S
H1957 C1965 0.950 . S
H1958 C1963 0.950 . S
H1959 C1964 0.949 . S
H1960 C1966 0.950 . S
H1961 C1967 0.950 . S
H1962 C1968 0.949 . S
C1963 H1958 0.950 . S
C1963 C1965 1.327 . S
C1963 C1969 1.429 . S
C1964 C1956 1.574 . S
C1964 H1959 0.949 . S
C1964 C1970 1.368 . S
C1965 C1949 1.349 . S
C1965 H1957 0.950 . S
C1965 C1963 1.327 . S
C1966 C1954 1.349 . S
C1966 H1960 0.950 . S
C1966 C1967 1.327 . S
C1967 H1961 0.950 . S
C1967 C1966 1.327 . S
C1967 C1971 1.429 . S
C1968 C1951 1.574 . S
C1968 H1962 0.949 . S
C1968 C1972 1.368 . S
C1969 C1950 1.429 . S
C1969 C1963 1.429 . S
C1969 C1970 1.523 . S
C1970 C1951 1.368 . S
C1970 C1964 1.368 . S
C1970 C1969 1.523 . S
C1971 C1955 1.429 . S
C1971 C1967 1.429 . S
C1971 C1972 1.523 . S
C1972 C1956 1.368 . S
C1972 C1968 1.368 . S
C1972 C1971 1.523 . S
H1973 C1948 0.950 . S
H1974 C1950 0.950 . S
H1975 C1951 0.949 . S
H1976 C1953 0.950 . S
H1977 C1955 0.950 . S
C1978 C1979 1.349 . S
C1978 C1980 1.327 . S
C1978 H2003 0.950 . S
C1979 C1978 1.349 . S
C1979 C1995 1.349 . S
C1980 C1978 1.327 . S
C1980 C1999 1.429 . S
C1980 H2004 0.950 . S
C1981 C1998 1.574 1_655 S
C1981 C2000 1.368 . S
C1981 H2005 0.949 . S
H1982 C1986 0.949 . S
C1983 C1984 1.349 . S
C1983 C1985 1.327 . S
C1983 H2006 0.950 . S
C1984 C1983 1.349 . S
C1984 C1996 1.349 . S
C1985 C1983 1.327 . S
C1985 C2001 1.429 . S
C1985 H2007 0.950 . S
C1986 H1982 0.949 . S
C1986 C1994 1.574 1_455 S
C1986 C2002 1.368 . S
H1987 C1995 0.950 . S
H1988 C1993 0.950 . S
H1989 C1994 0.949 . S
H1990 C1996 0.950 . S
H1991 C1997 0.950 . S
H1992 C1998 0.949 . S
C1993 H1988 0.950 . S
C1993 C1995 1.327 . S
C1993 C1999 1.429 . S
C1994 C1986 1.574 1_655 S
C1994 H1989 0.949 . S
C1994 C2000 1.368 . S
C1995 C1979 1.349 . S
C1995 H1987 0.950 . S
C1995 C1993 1.327 . S
C1996 C1984 1.349 . S
C1996 H1990 0.950 . S
C1996 C1997 1.327 . S
C1997 H1991 0.950 . S
C1997 C1996 1.327 . S
C1997 C2001 1.429 . S
C1998 C1981 1.574 1_455 S
C1998 H1992 0.949 . S
C1998 C2002 1.368 . S
C1999 C1980 1.429 . S
C1999 C1993 1.429 . S
C1999 C2000 1.523 . S
C2000 C1981 1.368 . S
C2000 C1994 1.368 . S
C2000 C1999 1.523 . S
C2001 C1985 1.429 . S
C2001 C1997 1.429 . S
C2001 C2002 1.523 . S
C2002 C1986 1.368 . S
C2002 C1998 1.368 . S
C2002 C2001 1.523 . S
H2003 C1978 0.950 . S
H2004 C1980 0.950 . S
H2005 C1981 0.949 . S
H2006 C1983 0.950 . S
H2007 C1985 0.950 . S
C2008 C2009 1.349 . S
C2008 C2010 1.327 . S
C2008 H2033 0.950 . S
C2009 C2008 1.349 . S
C2009 C2025 1.349 . S
C2010 C2008 1.327 . S
C2010 C2029 1.429 . S
C2010 H2034 0.996 . S
C2011 C2028 1.574 . S
C2011 C2030 1.368 . S
C2011 H2035 0.949 . S
H2012 C2016 0.985 . S
C2013 C2014 1.349 . S
C2013 C2015 1.327 . S
C2013 H2036 0.950 . S
C2014 C2013 1.349 . S
C2014 C2026 1.349 . S
C2015 C2013 1.327 . S
C2015 C2031 1.429 . S
C2015 H2037 0.950 . S
C2016 H2012 0.985 . S
C2016 C2024 1.574 . S
C2016 C2032 1.368 . S
H2017 C2025 0.950 . S
H2018 C2023 0.950 . S
H2019 C2024 0.985 . S
H2020 C2026 0.950 . S
H2021 C2027 0.996 . S
H2022 C2028 0.949 . S
C2023 H2018 0.950 . S
C2023 C2025 1.327 . S
C2023 C2029 1.429 . S
C2024 C2016 1.574 . S
C2024 H2019 0.985 . S
C2024 C2030 1.368 . S
C2025 C2009 1.349 . S
C2025 H2017 0.950 . S
C2025 C2023 1.327 . S
C2026 C2014 1.349 . S
C2026 H2020 0.950 . S
C2026 C2027 1.327 . S
C2027 H2021 0.996 . S
C2027 C2026 1.327 . S
C2027 C2031 1.429 . S
C2028 C2011 1.574 . S
C2028 H2022 0.949 . S
C2028 C2032 1.368 . S
C2029 C2010 1.429 . S
C2029 C2023 1.429 . S
C2029 C2030 1.523 . S
C2030 C2011 1.368 . S
C2030 C2024 1.368 . S
C2030 C2029 1.523 . S
C2031 C2015 1.429 . S
C2031 C2027 1.429 . S
C2031 C2032 1.523 . S
C2032 C2016 1.368 . S
C2032 C2028 1.368 . S
C2032 C2031 1.523 . S
H2033 C2008 0.950 . S
H2034 C2010 0.996 . S
H2035 C2011 0.949 . S
H2036 C2013 0.950 . S
H2037 C2015 0.950 . S
C2038 C2039 1.349 . S
C2038 C2040 1.327 . S
C2038 H2063 0.950 . S
C2039 C2038 1.349 . S
C2039 C2055 1.349 . S
C2040 C2038 1.327 . S
C2040 C2059 1.429 . S
C2040 H2064 0.950 . S
C2041 C2058 1.574 1_655 S
C2041 C2060 1.368 . S
C2041 H2065 0.949 . S
H2042 C2046 0.949 . S
C2043 C2044 1.349 . S
C2043 C2045 1.327 . S
C2043 H2066 0.950 . S
C2044 C2043 1.349 . S
C2044 C2056 1.349 . S
C2045 C2043 1.327 . S
C2045 C2061 1.429 . S
C2045 H2067 0.950 . S
C2046 H2042 0.949 . S
C2046 C2054 1.574 1_455 S
C2046 C2062 1.368 . S
H2047 C2055 0.950 . S
H2048 C2053 0.950 . S
H2049 C2054 0.949 . S
H2050 C2056 0.950 . S
H2051 C2057 0.950 . S
H2052 C2058 0.949 . S
C2053 H2048 0.950 . S
C2053 C2055 1.327 . S
C2053 C2059 1.429 . S
C2054 C2046 1.574 1_655 S
C2054 H2049 0.949 . S
C2054 C2060 1.368 . S
C2055 C2039 1.349 . S
C2055 H2047 0.950 . S
C2055 C2053 1.327 . S
C2056 C2044 1.349 . S
C2056 H2050 0.950 . S
C2056 C2057 1.327 . S
C2057 H2051 0.950 . S
C2057 C2056 1.327 . S
C2057 C2061 1.429 . S
C2058 C2041 1.574 1_455 S
C2058 H2052 0.949 . S
C2058 C2062 1.368 . S
C2059 C2040 1.429 . S
C2059 C2053 1.429 . S
C2059 C2060 1.523 . S
C2060 C2041 1.368 . S
C2060 C2054 1.368 . S
C2060 C2059 1.523 . S
C2061 C2045 1.429 . S
C2061 C2057 1.429 . S
C2061 C2062 1.523 . S
C2062 C2046 1.368 . S
C2062 C2058 1.368 . S
C2062 C2061 1.523 . S
H2063 C2038 0.950 . S
H2064 C2040 0.950 . S
H2065 C2041 0.949 . S
H2066 C2043 0.950 . S
H2067 C2045 0.950 . S
C2068 C2069 1.349 . S
C2068 C2070 1.327 . S
C2068 H2093 0.950 . S
C2069 C2068 1.349 . S
C2069 C2085 1.349 . S
C2070 C2068 1.327 . S
C2070 C2089 1.429 . S
C2070 H2094 0.950 . S
C2071 C2088 1.574 . S
C2071 C2090 1.368 . S
C2071 H2095 0.949 . S
H2072 C2076 0.949 . S
C2073 C2074 1.349 . S
C2073 C2075 1.327 . S
C2073 H2096 0.950 . S
C2074 C2073 1.349 . S
C2074 C2086 1.349 . S
C2075 C2073 1.327 . S
C2075 C2091 1.429 . S
C2075 H2097 0.950 . S
C2076 H2072 0.949 . S
C2076 C2084 1.574 . S
C2076 C2092 1.368 . S
H2077 C2085 0.950 . S
H2078 C2083 0.950 . S
H2079 C2084 0.949 . S
H2080 C2086 0.950 . S
H2081 C2087 0.950 . S
H2082 C2088 0.949 . S
C2083 H2078 0.950 . S
C2083 C2085 1.327 . S
C2083 C2089 1.429 . S
C2084 C2076 1.574 . S
C2084 H2079 0.949 . S
C2084 C2090 1.368 . S
C2085 C2069 1.349 . S
C2085 H2077 0.950 . S
C2085 C2083 1.327 . S
C2086 C2074 1.349 . S
C2086 H2080 0.950 . S
C2086 C2087 1.327 . S
C2087 H2081 0.950 . S
C2087 C2086 1.327 . S
C2087 C2091 1.429 . S
C2088 C2071 1.574 . S
C2088 H2082 0.949 . S
C2088 C2092 1.368 . S
C2089 C2070 1.429 . S
C2089 C2083 1.429 . S
C2089 C2090 1.523 . S
C2090 C2071 1.368 . S
C2090 C2084 1.368 . S
C2090 C2089 1.523 . S
C2091 C2075 1.429 . S
C2091 C2087 1.429 . S
C2091 C2092 1.523 . S
C2092 C2076 1.368 . S
C2092 C2088 1.368 . S
C2092 C2091 1.523 . S
H2093 C2068 0.950 . S
H2094 C2070 0.950 . S
H2095 C2071 0.949 . S
H2096 C2073 0.950 . S
H2097 C2075 0.950 . S
C2098 C2099 1.349 . S
C2098 C2100 1.327 . S
C2098 H2123 0.950 . S
C2099 C2098 1.349 . S
C2099 C2115 1.349 . S
C2100 C2098 1.327 . S
C2100 C2119 1.429 . S
C2100 H2124 0.950 . S
C2101 C2118 1.574 . S
C2101 C2120 1.368 . S
C2101 H2125 0.949 . S
H2102 C2106 0.949 . S
C2103 C2104 1.349 . S
C2103 C2105 1.327 . S
C2103 H2126 0.950 . S
C2104 C2103 1.349 . S
C2104 C2116 1.349 . S
C2105 C2103 1.327 . S
C2105 C2121 1.429 . S
C2105 H2127 0.950 . S
C2106 H2102 0.949 . S
C2106 C2114 1.574 . S
C2106 C2122 1.368 . S
H2107 C2115 0.950 . S
H2108 C2113 0.950 . S
H2109 C2114 0.949 . S
H2110 C2116 0.950 . S
H2111 C2117 0.950 . S
H2112 C2118 0.949 . S
C2113 H2108 0.950 . S
C2113 C2115 1.327 . S
C2113 C2119 1.429 . S
C2114 C2106 1.574 . S
C2114 H2109 0.949 . S
C2114 C2120 1.368 . S
C2115 C2099 1.349 . S
C2115 H2107 0.950 . S
C2115 C2113 1.327 . S
C2116 C2104 1.349 . S
C2116 H2110 0.950 . S
C2116 C2117 1.327 . S
C2117 H2111 0.950 . S
C2117 C2116 1.327 . S
C2117 C2121 1.429 . S
C2118 C2101 1.574 . S
C2118 H2112 0.949 . S
C2118 C2122 1.368 . S
C2119 C2100 1.429 . S
C2119 C2113 1.429 . S
C2119 C2120 1.523 . S
C2120 C2101 1.368 . S
C2120 C2114 1.368 . S
C2120 C2119 1.523 . S
C2121 C2105 1.429 . S
C2121 C2117 1.429 . S
C2121 C2122 1.523 . S
C2122 C2106 1.368 . S
C2122 C2118 1.368 . S
C2122 C2121 1.523 . S
H2123 C2098 0.950 . S
H2124 C2100 0.950 . S
H2125 C2101 0.949 . S
H2126 C2103 0.950 . S
H2127 C2105 0.950 . S
C2128 C2129 1.349 . S
C2128 C2130 1.327 . S
C2128 H2153 0.950 . S
C2129 C2128 1.349 . S
C2129 C2145 1.349 . S
C2130 C2128 1.327 . S
C2130 C2149 1.429 . S
C2130 H2154 0.996 . S
C2131 C2148 1.574 . S
C2131 C2150 1.368 . S
C2131 H2155 0.949 . S
H2132 C2136 0.985 . S
C2133 C2134 1.349 . S
C2133 C2135 1.327 . S
C2133 H2156 0.950 . S
C2134 C2133 1.349 . S
C2134 C2146 1.349 . S
C2135 C2133 1.327 . S
C2135 C2151 1.429 . S
C2135 H2157 0.950 . S
C2136 H2132 0.985 . S
C2136 C2144 1.574 . S
C2136 C2152 1.368 . S
H2137 C2145 0.950 . S
H2138 C2143 0.950 . S
H2139 C2144 0.985 . S
H2140 C2146 0.950 . S
H2141 C2147 0.996 . S
H2142 C2148 0.949 . S
C2143 H2138 0.950 . S
C2143 C2145 1.327 . S
C2143 C2149 1.429 . S
C2144 C2136 1.574 . S
C2144 H2139 0.985 . S
C2144 C2150 1.368 . S
C2145 C2129 1.349 . S
C2145 H2137 0.950 . S
C2145 C2143 1.327 . S
C2146 C2134 1.349 . S
C2146 H2140 0.950 . S
C2146 C2147 1.327 . S
C2147 H2141 0.996 . S
C2147 C2146 1.327 . S
C2147 C2151 1.429 . S
C2148 C2131 1.574 . S
C2148 H2142 0.949 . S
C2148 C2152 1.368 . S
C2149 C2130 1.429 . S
C2149 C2143 1.429 . S
C2149 C2150 1.523 . S
C2150 C2131 1.368 . S
C2150 C2144 1.368 . S
C2150 C2149 1.523 . S
C2151 C2135 1.429 . S
C2151 C2147 1.429 . S
C2151 C2152 1.523 . S
C2152 C2136 1.368 . S
C2152 C2148 1.368 . S
C2152 C2151 1.523 . S
H2153 C2128 0.950 . S
H2154 C2130 0.996 . S
H2155 C2131 0.949 . S
H2156 C2133 0.950 . S
H2157 C2135 0.950 . S
C2158 C2159 1.349 . S
C2158 C2160 1.327 . S
C2158 H2183 0.950 . S
C2159 C2158 1.349 . S
C2159 C2175 1.349 . S
C2160 C2158 1.327 . S
C2160 C2179 1.429 . S
C2160 H2184 0.950 . S
C2161 C2178 1.574 . S
C2161 C2180 1.368 . S
C2161 H2185 0.949 . S
H2162 C2166 0.949 . S
C2163 C2164 1.349 . S
C2163 C2165 1.327 . S
C2163 H2186 0.950 . S
C2164 C2163 1.349 . S
C2164 C2176 1.349 . S
C2165 C2163 1.327 . S
C2165 C2181 1.429 . S
C2165 H2187 0.950 . S
C2166 H2162 0.949 . S
C2166 C2174 1.574 . S
C2166 C2182 1.368 . S
H2167 C2175 0.950 . S
H2168 C2173 0.950 . S
H2169 C2174 0.949 . S
H2170 C2176 0.950 . S
H2171 C2177 0.950 . S
H2172 C2178 0.949 . S
C2173 H2168 0.950 . S
C2173 C2175 1.327 . S
C2173 C2179 1.429 . S
C2174 C2166 1.574 . S
C2174 H2169 0.949 . S
C2174 C2180 1.368 . S
C2175 C2159 1.349 . S
C2175 H2167 0.950 . S
C2175 C2173 1.327 . S
C2176 C2164 1.349 . S
C2176 H2170 0.950 . S
C2176 C2177 1.327 . S
C2177 H2171 0.950 . S
C2177 C2176 1.327 . S
C2177 C2181 1.429 . S
C2178 C2161 1.574 . S
C2178 H2172 0.949 . S
C2178 C2182 1.368 . S
C2179 C2160 1.429 . S
C2179 C2173 1.429 . S
C2179 C2180 1.523 . S
C2180 C2161 1.368 . S
C2180 C2174 1.368 . S
C2180 C2179 1.523 . S
C2181 C2165 1.429 . S
C2181 C2177 1.429 . S
C2181 C2182 1.523 . S
C2182 C2166 1.368 . S
C2182 C2178 1.368 . S
C2182 C2181 1.523 . S
H2183 C2158 0.950 . S
H2184 C2160 0.950 . S
H2185 C2161 0.949 . S
H2186 C2163 0.950 . S
H2187 C2165 0.950 . S
C2188 C2189 1.349 . S
C2188 C2190 1.327 . S
C2188 H2213 0.950 . S
C2189 C2188 1.349 . S
C2189 C2205 1.349 . S
C2190 C2188 1.327 . S
C2190 C2209 1.429 . S
C2190 H2214 0.950 . S
C2191 C2208 1.574 . S
C2191 C2210 1.368 . S
C2191 H2215 0.985 . S
H2192 C2196 0.949 . S
C2193 C2194 1.349 . S
C2193 C2195 1.327 . S
C2193 H2216 0.950 . S
C2194 C2193 1.349 . S
C2194 C2206 1.349 . S
C2195 C2193 1.327 . S
C2195 C2211 1.429 . S
C2195 H2217 0.996 . S
C2196 H2192 0.949 . S
C2196 C2204 1.574 . S
C2196 C2212 1.368 . S
H2197 C2205 0.950 . S
H2198 C2203 0.996 . S
H2199 C2204 0.949 . S
H2200 C2206 0.950 . S
H2201 C2207 0.950 . S
H2202 C2208 0.985 . S
C2203 H2198 0.996 . S
C2203 C2205 1.327 . S
C2203 C2209 1.429 . S
C2204 C2196 1.574 . S
C2204 H2199 0.949 . S
C2204 C2210 1.368 . S
C2205 C2189 1.349 . S
C2205 H2197 0.950 . S
C2205 C2203 1.327 . S
C2206 C2194 1.349 . S
C2206 H2200 0.950 . S
C2206 C2207 1.327 . S
C2207 H2201 0.950 . S
C2207 C2206 1.327 . S
C2207 C2211 1.429 . S
C2208 C2191 1.574 . S
C2208 H2202 0.985 . S
C2208 C2212 1.368 . S
C2209 C2190 1.429 . S
C2209 C2203 1.429 . S
C2209 C2210 1.523 . S
C2210 C2191 1.368 . S
C2210 C2204 1.368 . S
C2210 C2209 1.523 . S
C2211 C2195 1.429 . S
C2211 C2207 1.429 . S
C2211 C2212 1.523 . S
C2212 C2196 1.368 . S
C2212 C2208 1.368 . S
C2212 C2211 1.523 . S
H2213 C2188 0.950 . S
H2214 C2190 0.950 . S
H2215 C2191 0.985 . S
H2216 C2193 0.950 . S
H2217 C2195 0.996 . S
C2218 C2219 1.349 . S
C2218 C2220 1.327 . S
C2218 H2243 0.950 . S
C2219 C2218 1.349 . S
C2219 C2235 1.349 . S
C2220 C2218 1.327 . S
C2220 C2239 1.429 . S
C2220 H2244 0.950 . S
C2221 C2238 1.574 . S
C2221 C2240 1.368 . S
C2221 H2245 0.949 . S
H2222 C2226 0.949 . S
C2223 C2224 1.349 . S
C2223 C2225 1.327 . S
C2223 H2246 0.950 . S
C2224 C2223 1.349 . S
C2224 C2236 1.349 . S
C2225 C2223 1.327 . S
C2225 C2241 1.429 . S
C2225 H2247 0.950 . S
C2226 H2222 0.949 . S
C2226 C2234 1.574 . S
C2226 C2242 1.368 . S
H2227 C2235 0.950 . S
H2228 C2233 0.950 . S
H2229 C2234 0.949 . S
H2230 C2236 0.950 . S
H2231 C2237 0.950 . S
H2232 C2238 0.949 . S
C2233 H2228 0.950 . S
C2233 C2235 1.327 . S
C2233 C2239 1.429 . S
C2234 C2226 1.574 . S
C2234 H2229 0.949 . S
C2234 C2240 1.368 . S
C2235 C2219 1.349 . S
C2235 H2227 0.950 . S
C2235 C2233 1.327 . S
C2236 C2224 1.349 . S
C2236 H2230 0.950 . S
C2236 C2237 1.327 . S
C2237 H2231 0.950 . S
C2237 C2236 1.327 . S
C2237 C2241 1.429 . S
C2238 C2221 1.574 . S
C2238 H2232 0.949 . S
C2238 C2242 1.368 . S
C2239 C2220 1.429 . S
C2239 C2233 1.429 . S
C2239 C2240 1.523 . S
C2240 C2221 1.368 . S
C2240 C2234 1.368 . S
C2240 C2239 1.523 . S
C2241 C2225 1.429 . S
C2241 C2237 1.429 . S
C2241 C2242 1.523 . S
C2242 C2226 1.368 . S
C2242 C2238 1.368 . S
C2242 C2241 1.523 . S
H2243 C2218 0.950 . S
H2244 C2220 0.950 . S
H2245 C2221 0.949 . S
H2246 C2223 0.950 . S
H2247 C2225 0.950 . S
C2248 C2249 1.349 . S
C2248 C2250 1.327 . S
C2248 H2273 0.950 . S
C2249 C2248 1.349 . S
C2249 C2265 1.349 . S
C2250 C2248 1.327 . S
C2250 C2269 1.429 . S
C2250 H2274 0.950 . S
C2251 C2268 1.574 1_655 S
C2251 C2270 1.368 . S
C2251 H2275 0.949 . S
H2252 C2256 0.949 . S
C2253 C2254 1.349 . S
C2253 C2255 1.327 . S
C2253 H2276 0.950 . S
C2254 C2253 1.349 . S
C2254 C2266 1.349 . S
C2255 C2253 1.327 . S
C2255 C2271 1.429 . S
C2255 H2277 0.950 . S
C2256 H2252 0.949 . S
C2256 C2264 1.574 1_455 S
C2256 C2272 1.368 . S
H2257 C2265 0.950 . S
H2258 C2263 0.950 . S
H2259 C2264 0.949 . S
H2260 C2266 0.950 . S
H2261 C2267 0.950 . S
H2262 C2268 0.949 . S
C2263 H2258 0.950 . S
C2263 C2265 1.327 . S
C2263 C2269 1.429 . S
C2264 C2256 1.574 1_655 S
C2264 H2259 0.949 . S
C2264 C2270 1.368 . S
C2265 C2249 1.349 . S
C2265 H2257 0.950 . S
C2265 C2263 1.327 . S
C2266 C2254 1.349 . S
C2266 H2260 0.950 . S
C2266 C2267 1.327 . S
C2267 H2261 0.950 . S
C2267 C2266 1.327 . S
C2267 C2271 1.429 . S
C2268 C2251 1.574 1_455 S
C2268 H2262 0.949 . S
C2268 C2272 1.368 . S
C2269 C2250 1.429 . S
C2269 C2263 1.429 . S
C2269 C2270 1.523 . S
C2270 C2251 1.368 . S
C2270 C2264 1.368 . S
C2270 C2269 1.523 . S
C2271 C2255 1.429 . S
C2271 C2267 1.429 . S
C2271 C2272 1.523 . S
C2272 C2256 1.368 . S
C2272 C2268 1.368 . S
C2272 C2271 1.523 . S
H2273 C2248 0.950 . S
H2274 C2250 0.950 . S
H2275 C2251 0.949 . S
H2276 C2253 0.950 . S
H2277 C2255 0.950 . S
C2278 C2279 1.349 . S
C2278 C2280 1.327 . S
C2278 H2303 0.950 . S
C2279 C2278 1.349 . S
C2279 C2295 1.349 . S
C2280 C2278 1.327 . S
C2280 C2299 1.429 . S
C2280 H2304 0.950 . S
C2281 C2298 1.574 . S
C2281 C2300 1.368 . S
C2281 H2305 0.949 . S
H2282 C2286 0.949 . S
C2283 C2284 1.349 . S
C2283 C2285 1.327 . S
C2283 H2306 0.950 . S
C2284 C2283 1.349 . S
C2284 C2296 1.349 . S
C2285 C2283 1.327 . S
C2285 C2301 1.429 . S
C2285 H2307 0.950 . S
C2286 H2282 0.949 . S
C2286 C2294 1.574 . S
C2286 C2302 1.368 . S
H2287 C2295 0.950 . S
H2288 C2293 0.950 . S
H2289 C2294 0.949 . S
H2290 C2296 0.950 . S
H2291 C2297 0.950 . S
H2292 C2298 0.949 . S
C2293 H2288 0.950 . S
C2293 C2295 1.327 . S
C2293 C2299 1.429 . S
C2294 C2286 1.574 . S
C2294 H2289 0.949 . S
C2294 C2300 1.368 . S
C2295 C2279 1.349 . S
C2295 H2287 0.950 . S
C2295 C2293 1.327 . S
C2296 C2284 1.349 . S
C2296 H2290 0.950 . S
C2296 C2297 1.327 . S
C2297 H2291 0.950 . S
C2297 C2296 1.327 . S
C2297 C2301 1.429 . S
C2298 C2281 1.574 . S
C2298 H2292 0.949 . S
C2298 C2302 1.368 . S
C2299 C2280 1.429 . S
C2299 C2293 1.429 . S
C2299 C2300 1.523 . S
C2300 C2281 1.368 . S
C2300 C2294 1.368 . S
C2300 C2299 1.523 . S
C2301 C2285 1.429 . S
C2301 C2297 1.429 . S
C2301 C2302 1.523 . S
C2302 C2286 1.368 . S
C2302 C2298 1.368 . S
C2302 C2301 1.523 . S
H2303 C2278 0.950 . S
H2304 C2280 0.950 . S
H2305 C2281 0.949 . S
H2306 C2283 0.950 . S
H2307 C2285 0.950 . S
C2308 C2309 1.349 . S
C2308 C2310 1.327 . S
C2308 H2333 0.950 . S
C2309 C2308 1.349 . S
C2309 C2325 1.349 . S
C2310 C2308 1.327 . S
C2310 C2329 1.429 . S
C2310 H2334 0.950 . S
C2311 C2328 1.574 . S
C2311 C2330 1.368 . S
C2311 H2335 0.949 . S
H2312 C2316 0.949 . S
C2313 C2314 1.349 . S
C2313 C2315 1.327 . S
C2313 H2336 0.950 . S
C2314 C2313 1.349 . S
C2314 C2326 1.349 . S
C2315 C2313 1.327 . S
C2315 C2331 1.429 . S
C2315 H2337 0.950 . S
C2316 H2312 0.949 . S
C2316 C2324 1.574 . S
C2316 C2332 1.368 . S
H2317 C2325 0.950 . S
H2318 C2323 0.950 . S
H2319 C2324 0.949 . S
H2320 C2326 0.950 . S
H2321 C2327 0.950 . S
H2322 C2328 0.949 . S
C2323 H2318 0.950 . S
C2323 C2325 1.327 . S
C2323 C2329 1.429 . S
C2324 C2316 1.574 . S
C2324 H2319 0.949 . S
C2324 C2330 1.368 . S
C2325 C2309 1.349 . S
C2325 H2317 0.950 . S
C2325 C2323 1.327 . S
C2326 C2314 1.349 . S
C2326 H2320 0.950 . S
C2326 C2327 1.327 . S
C2327 H2321 0.950 . S
C2327 C2326 1.327 . S
C2327 C2331 1.429 . S
C2328 C2311 1.574 . S
C2328 H2322 0.949 . S
C2328 C2332 1.368 . S
C2329 C2310 1.429 . S
C2329 C2323 1.429 . S
C2329 C2330 1.523 . S
C2330 C2311 1.368 . S
C2330 C2324 1.368 . S
C2330 C2329 1.523 . S
C2331 C2315 1.429 . S
C2331 C2327 1.429 . S
C2331 C2332 1.523 . S
C2332 C2316 1.368 . S
C2332 C2328 1.368 . S
C2332 C2331 1.523 . S
H2333 C2308 0.950 . S
H2334 C2310 0.950 . S
H2335 C2311 0.949 . S
H2336 C2313 0.950 . S
H2337 C2315 0.950 . S
C2338 C2339 1.349 . S
C2338 C2340 1.327 . S
C2338 H2363 0.950 . S
C2339 C2338 1.349 . S
C2339 C2355 1.349 . S
C2340 C2338 1.327 . S
C2340 C2359 1.429 . S
C2340 H2364 0.950 . S
C2341 C2358 1.574 1_655 S
C2341 C2360 1.368 . S
C2341 H2365 0.949 . S
H2342 C2346 0.949 . S
C2343 C2344 1.349 . S
C2343 C2345 1.327 . S
C2343 H2366 0.950 . S
C2344 C2343 1.349 . S
C2344 C2356 1.349 . S
C2345 C2343 1.327 . S
C2345 C2361 1.429 . S
C2345 H2367 0.950 . S
C2346 H2342 0.949 . S
C2346 C2354 1.574 1_455 S
C2346 C2362 1.368 . S
H2347 C2355 0.950 . S
H2348 C2353 0.950 . S
H2349 C2354 0.949 . S
H2350 C2356 0.950 . S
H2351 C2357 0.950 . S
H2352 C2358 0.949 . S
C2353 H2348 0.950 . S
C2353 C2355 1.327 . S
C2353 C2359 1.429 . S
C2354 C2346 1.574 1_655 S
C2354 H2349 0.949 . S
C2354 C2360 1.368 . S
C2355 C2339 1.349 . S
C2355 H2347 0.950 . S
C2355 C2353 1.327 . S
C2356 C2344 1.349 . S
C2356 H2350 0.950 . S
C2356 C2357 1.327 . S
C2357 H2351 0.950 . S
C2357 C2356 1.327 . S
C2357 C2361 1.429 . S
C2358 C2341 1.574 1_455 S
C2358 H2352 0.949 . S
C2358 C2362 1.368 . S
C2359 C2340 1.429 . S
C2359 C2353 1.429 . S
C2359 C2360 1.523 . S
C2360 C2341 1.368 . S
C2360 C2354 1.368 . S
C2360 C2359 1.523 . S
C2361 C2345 1.429 . S
C2361 C2357 1.429 . S
C2361 C2362 1.523 . S
C2362 C2346 1.368 . S
C2362 C2358 1.368 . S
C2362 C2361 1.523 . S
H2363 C2338 0.950 . S
H2364 C2340 0.950 . S
H2365 C2341 0.949 . S
H2366 C2343 0.950 . S
H2367 C2345 0.950 . S
C449 C325 1.685 . S
C454 C3 1.685 . S
C479 C283 1.685 . S
C484 C17 1.685 . S
C509 C297 1.685 . S
C514 C31 1.685 . S
C539 C311 1.685 . S
C544 C45 1.685 . S
C569 C59 1.685 . S
C574 C241 1.685 . S
C599 C255 1.685 . S
C604 C73 1.685 . S
C629 C87 1.685 . S
C634 C269 1.685 . S
C659 C101 1.685 . S
C664 C227 1.685 . S
C689 C437 1.685 . S
C694 C115 1.685 . S
C719 C129 1.685 . S
C724 C395 1.685 . S
C749 C143 1.685 . S
C754 C409 1.685 . S
C779 C157 1.685 . S
C784 C423 1.685 . S
C809 C171 1.685 . S
C814 C353 1.685 . S
C839 C185 1.685 . S
C844 C367 1.685 . S
C869 C199 1.685 . S
C874 C381 1.685 . S
C899 C213 1.685 . S
C904 C339 1.685 . S
C929 C7 1.181 . S
C934 C175 1.181 . S
C959 C413 1.182 . S
C964 C21 1.182 . S
C989 C35 1.181 . S
C994 C203 1.181 . S
C1019 C441 1.181 . S
C1024 C49 1.181 . S
C1049 C119 1.181 . S
C1054 C63 1.181 . S
C1079 C77 1.181 . S
C1084 C357 1.181 . S
C1109 C91 1.181 . S
C1114 C147 1.181 . S
C1139 C105 1.182 . S
C1144 C385 1.182 . S
C1169 C301 1.182 . S
C1174 C133 1.182 . S
C1199 C329 1.181 . S
C1204 C161 1.181 . S
C1229 C189 1.181 . S
C1234 C245 1.181 . S
C1259 C273 1.182 . S
C1264 C217 1.182 . S
C1289 C399 1.181 . S
C1294 C231 1.181 . S
C1319 C259 1.181 . S
C1324 C427 1.181 . S
C1349 C343 1.181 . S
C1354 C287 1.181 . S
C1379 C371 1.181 . S
C1384 C315 1.181 . S
C1409 C64 1.103 . S
C1414 C8 1.103 . S
C1439 C78 1.104 . S
C1444 C22 1.104 . S
C1469 C36 1.103 . S
C1474 C92 1.103 . S
C1499 C50 1.104 . S
C1504 C106 1.104 . S
C1529 C176 1.103 . S
C1534 C120 1.103 . S
C1559 C190 1.104 . S
C1564 C134 1.104 . S
C1589 C204 1.103 . S
C1594 C148 1.103 . S
C1619 C162 1.104 . S
C1624 C218 1.104 . S
C1649 C232 1.103 . S
C1654 C288 1.103 . S
C1679 C246 1.104 . S
C1684 C302 1.104 . S
C1709 C260 1.103 . S
C1714 C316 1.103 . S
C1739 C274 1.104 . S
C1744 C330 1.104 . S
C1769 C400 1.103 . S
C1774 C344 1.103 . S
C1799 C414 1.104 . S
C1804 C358 1.104 . S
C1829 C428 1.103 . S
C1834 C372 1.103 . S
C1859 C442 1.104 . S
C1864 C386 1.104 . S
C1889 C429 1.509 . S
C1894 C9 1.509 . S
C1919 C23 1.510 . S
C1924 C219 1.510 . S
C1949 C401 1.509 . S
C1954 C37 1.509 . S
C1979 C51 1.510 . S
C1984 C191 1.510 . S
C2009 C373 1.509 . S
C2014 C65 1.509 . S
C2039 C79 1.510 . S
C2044 C163 1.510 . S
C2069 C93 1.509 . S
C2074 C345 1.509 . S
C2099 C135 1.510 . S
C2104 C107 1.510 . S
C2129 C121 1.509 . S
C2134 C317 1.509 . S
C2159 C289 1.509 . S
C2164 C149 1.509 . S
C2189 C177 1.509 . S
C2194 C261 1.509 . S
C2219 C205 1.509 . S
C2224 C233 1.509 . S
C2249 C443 1.510 . S
C2254 C247 1.510 . S
C2279 C275 1.510 . S
C2284 C415 1.510 . S
C2309 C303 1.510 . S
C2314 C387 1.510 . S
C2339 C359 1.510 . S
C2344 C331 1.510 . S
