# Generated by pormake.
# Topology wjz, (5)-cn, num edge types: 1
# Building blocks:
#     Node 0, Type 0, BuildingBlock: BEQFEK_clean_sbu_0, # of connection points: 5
#     Node 1, Type 0, BuildingBlock: BEQFEK_clean_sbu_0, # of connection points: 5
#     Node 2, Type 0, BuildingBlock: BEQFEK_clean_sbu_0, # of connection points: 5
#     Node 3, Type 0, BuildingBlock: BEQFEK_clean_sbu_0, # of connection points: 5
#     Node 4, Type 0, BuildingBlock: BEQFEK_clean_sbu_0, # of connection points: 5
#     Node 5, Type 0, BuildingBlock: BEQFEK_clean_sbu_0, # of connection points: 5
#     Node 6, Type 0, BuildingBlock: BEQFEK_clean_sbu_0, # of connection points: 5
#     Node 7, Type 0, BuildingBlock: BEQFEK_clean_sbu_0, # of connection points: 5
#     Node 8, Type 0, BuildingBlock: BEQFEK_clean_sbu_0, # of connection points: 5
#     Node 9, Type 0, BuildingBlock: BEQFEK_clean_sbu_0, # of connection points: 5
#     Node 10, Type 0, BuildingBlock: BEQFEK_clean_sbu_0, # of connection points: 5
#     Node 11, Type 0, BuildingBlock: BEQFEK_clean_sbu_0, # of connection points: 5
#     Edge 12, Type (0, 0), BuildingBlock: XIVTED_clean_linker_0, # of connection points: 2
#     Edge 13, Type (0, 0), BuildingBlock: XIVTED_clean_linker_0, # of connection points: 2
#     Edge 14, Type (0, 0), BuildingBlock: XIVTED_clean_linker_0, # of connection points: 2
#     Edge 15, Type (0, 0), BuildingBlock: XIVTED_clean_linker_0, # of connection points: 2
#     Edge 16, Type (0, 0), BuildingBlock: XIVTED_clean_linker_0, # of connection points: 2
#     Edge 17, Type (0, 0), BuildingBlock: XIVTED_clean_linker_0, # of connection points: 2
#     Edge 18, Type (0, 0), BuildingBlock: XIVTED_clean_linker_0, # of connection points: 2
#     Edge 19, Type (0, 0), BuildingBlock: XIVTED_clean_linker_0, # of connection points: 2
#     Edge 20, Type (0, 0), BuildingBlock: XIVTED_clean_linker_0, # of connection points: 2
#     Edge 21, Type (0, 0), BuildingBlock: XIVTED_clean_linker_0, # of connection points: 2
#     Edge 22, Type (0, 0), BuildingBlock: XIVTED_clean_linker_0, # of connection points: 2
#     Edge 23, Type (0, 0), BuildingBlock: XIVTED_clean_linker_0, # of connection points: 2
#     Edge 24, Type (0, 0), BuildingBlock: XIVTED_clean_linker_0, # of connection points: 2
#     Edge 25, Type (0, 0), BuildingBlock: XIVTED_clean_linker_0, # of connection points: 2
#     Edge 26, Type (0, 0), BuildingBlock: XIVTED_clean_linker_0, # of connection points: 2
#     Edge 27, Type (0, 0), BuildingBlock: XIVTED_clean_linker_0, # of connection points: 2
#     Edge 28, Type (0, 0), BuildingBlock: XIVTED_clean_linker_0, # of connection points: 2
#     Edge 29, Type (0, 0), BuildingBlock: XIVTED_clean_linker_0, # of connection points: 2
#     Edge 30, Type (0, 0), BuildingBlock: XIVTED_clean_linker_0, # of connection points: 2
#     Edge 31, Type (0, 0), BuildingBlock: XIVTED_clean_linker_0, # of connection points: 2
#     Edge 32, Type (0, 0), BuildingBlock: XIVTED_clean_linker_0, # of connection points: 2
#     Edge 33, Type (0, 0), BuildingBlock: XIVTED_clean_linker_0, # of connection points: 2
#     Edge 34, Type (0, 0), BuildingBlock: XIVTED_clean_linker_0, # of connection points: 2
#     Edge 35, Type (0, 0), BuildingBlock: XIVTED_clean_linker_0, # of connection points: 2
#     Edge 36, Type (0, 0), BuildingBlock: XIVTED_clean_linker_0, # of connection points: 2
#     Edge 37, Type (0, 0), BuildingBlock: XIVTED_clean_linker_0, # of connection points: 2
#     Edge 38, Type (0, 0), BuildingBlock: XIVTED_clean_linker_0, # of connection points: 2
#     Edge 39, Type (0, 0), BuildingBlock: XIVTED_clean_linker_0, # of connection points: 2
#     Edge 40, Type (0, 0), BuildingBlock: XIVTED_clean_linker_0, # of connection points: 2
#     Edge 41, Type (0, 0), BuildingBlock: XIVTED_clean_linker_0, # of connection points: 2
# Relax obj value: 0.219
# Max RMSD: 0.196
# Mean RMSD: 0.196
data_MOF--net-wjz--node1-BEQFEK_clean_sbu_0--edge1-XIVTED_clean_linker_0
_symmetry_space_group_name_H-M    P1
_symmetry_Int_Tables_number       1
_symmetry_cell_setting            triclinic
loop_
_symmetry_equiv_pos_as_xyz
'x, y, z'
_cell_length_a     72.202189
_cell_length_b     72.290952
_cell_length_c     18.731122
_cell_angle_alpha  90.046236
_cell_angle_beta   90.041138
_cell_angle_gamma 119.9887
loop_
_atom_site_label
_atom_site_type_symbol
_atom_site_fract_x
_atom_site_fract_y
_atom_site_fract_z
_atom_type_partial_charge
Co0 Co 0.33885 0.45671 0.0421 0.0
Co1 Co 0.35844 0.47726 0.18901 0.0
C2 C 0.35819 0.43766 0.13275 0.0
O3 O 0.34805 0.43666 0.07601 0.0
O4 O 0.36307 0.45247 0.17832 0.0
C5 C 0.32941 0.43678 0.90691 0.0
O6 O 0.3404 0.42823 0.93213 0.0
C7 C 0.3568 0.47173 0.34046 0.0
C8 C 0.37423 0.50455 0.38373 0.0
C9 C 0.36268 0.48323 0.40348 0.0
N10 N 0.3645 0.48552 0.28589 0.0
N11 N 0.37515 0.50514 0.31178 0.0
C12 C 0.34177 0.44825 0.33151 0.0
H13 H 0.33422 0.44473 0.27793 0.0
H14 H 0.32914 0.44226 0.37307 0.0
H15 H 0.35082 0.43967 0.33719 0.0
C16 C 0.30054 0.45533 0.10571 0.0
N17 N 0.32102 0.45982 0.10873 0.0
N18 N 0.3296 0.4696 0.16926 0.0
C19 C 0.31497 0.47214 0.20603 0.0
C20 C 0.29605 0.46303 0.16727 0.0
C21 C 0.28618 0.44516 0.04287 0.0
H22 H 0.29229 0.45635 -0.00301 0.0
H23 H 0.28653 0.43052 0.02734 0.0
H24 H 0.26951 0.44114 0.05445 0.0
O25 O 0.36451 0.48483 0.02227 0.0
O26 O 0.3785 0.5007 0.1256 0.0
H27 H 0.33487 0.49789 0.27663 0.0
H28 H 0.30657 0.48729 0.2902 0.0
C29 C 0.319 0.48315 0.27683 0.0
H30 H 0.31888 0.47238 0.31908 0.0
H31 H 0.38241 0.5189 0.28045 0.0
O32 O 0.32489 0.44789 0.94823 0.0
C33 C 0.37862 0.5007 0.05758 0.0
Co34 Co 0.88205 0.33743 0.21717 0.0
Co35 Co 0.88086 0.35661 0.36435 0.0
C36 C 0.92022 0.35626 0.31023 0.0
O37 O 0.91103 0.34602 0.25368 0.0
O38 O 0.91037 0.36146 0.35499 0.0
C39 C 0.89383 0.33019 0.08214 0.0
O40 O 0.91305 0.34263 0.10831 0.0
C41 C 0.88561 0.35689 0.51642 0.0
C42 C 0.8677 0.37215 0.55668 0.0
C43 C 0.87918 0.36246 0.57834 0.0
N44 N 0.87832 0.36299 0.46058 0.0
N45 N 0.86787 0.37239 0.48468 0.0
C46 C 0.89574 0.34323 0.51002 0.0
H47 H 0.89178 0.33484 0.45786 0.0
H48 H 0.89026 0.33125 0.55359 0.0
H49 H 0.91334 0.35348 0.51422 0.0
C50 C 0.84397 0.29946 0.27701 0.0
N51 N 0.86045 0.31962 0.28199 0.0
N52 N 0.85979 0.32768 0.34426 0.0
C53 C 0.84282 0.31283 0.38124 0.0
C54 C 0.83218 0.29443 0.33982 0.0
C55 C 0.83897 0.28603 0.21119 0.0
H56 H 0.83875 0.29529 0.16433 0.0
H57 H 0.85179 0.28208 0.20237 0.0
H58 H 0.8233 0.27109 0.21504 0.0
O59 O 0.87997 0.36319 0.19658 0.0
O60 O 0.87748 0.37662 0.3002 0.0
H61 H 0.83593 0.33043 0.45847 0.0
H62 H 0.82273 0.30209 0.4764 0.0
C63 C 0.83752 0.31597 0.45602 0.0
H64 H 0.85066 0.31828 0.49198 0.0
H65 H 0.86023 0.37825 0.45212 0.0
O66 O 0.87778 0.32386 0.12303 0.0
C67 C 0.87795 0.37707 0.2322 0.0
Co68 Co 0.54051 0.88111 0.38539 0.0
Co69 Co 0.51903 0.87971 0.53098 0.0
C70 C 0.55935 0.919 0.47855 0.0
O71 O 0.56068 0.91 0.42195 0.0
O72 O 0.54408 0.90907 0.52249 0.0
C73 C 0.55945 0.89231 0.24982 0.0
O74 O 0.56678 0.91163 0.27565 0.0
C75 C 0.52364 0.8832 0.6832 0.0
C76 C 0.4905 0.86736 0.72375 0.0
C77 C 0.51172 0.87723 0.74532 0.0
N78 N 0.51019 0.8772 0.62747 0.0
N79 N 0.49038 0.86797 0.65178 0.0
C80 C 0.54724 0.8919 0.67614 0.0
H81 H 0.55112 0.88789 0.62311 0.0
H82 H 0.55313 0.8854 0.71857 0.0
H83 H 0.55564 0.90952 0.68168 0.0
C84 C 0.54096 0.84366 0.4482 0.0
N85 N 0.53662 0.85973 0.45119 0.0
N86 N 0.52664 0.85847 0.51127 0.0
C87 C 0.52388 0.84122 0.5479 0.0
C88 C 0.53298 0.83136 0.5094 0.0
C89 C 0.5513 0.83957 0.38571 0.0
H90 H 0.5407 0.83564 0.33843 0.0
H91 H 0.56654 0.85432 0.37305 0.0
H92 H 0.55437 0.82623 0.39599 0.0
O93 O 0.5127 0.87911 0.36387 0.0
O94 O 0.49598 0.87673 0.4656 0.0
H95 H 0.49807 0.83529 0.61822 0.0
H96 H 0.50911 0.81807 0.63351 0.0
C97 C 0.51298 0.83446 0.6189 0.0
H98 H 0.52373 0.84541 0.66069 0.0
H99 H 0.4768 0.86145 0.61934 0.0
O100 O 0.54958 0.87641 0.2912 0.0
C101 C 0.49656 0.87724 0.39759 0.0
Co102 Co 0.65944 0.53987 0.54868 0.0
Co103 Co 0.63924 0.51996 0.69572 0.0
C104 C 0.63972 0.55927 0.63612 0.0
O105 O 0.65001 0.55996 0.58019 0.0
O106 O 0.6347 0.54473 0.68271 0.0
C107 C 0.6704 0.56043 0.41405 0.0
O108 O 0.66078 0.57035 0.43961 0.0
C109 C 0.64035 0.52581 0.84731 0.0
C110 C 0.62307 0.49301 0.89048 0.0
C111 C 0.63455 0.51434 0.91037 0.0
N112 N 0.63275 0.51197 0.79269 0.0
N113 N 0.62213 0.49237 0.81855 0.0
C114 C 0.65534 0.54929 0.83836 0.0
H115 H 0.66287 0.55277 0.7848 0.0
H116 H 0.66801 0.55535 0.87991 0.0
H117 H 0.64625 0.55784 0.84396 0.0
C118 C 0.6975 0.54155 0.61588 0.0
N119 N 0.677 0.53701 0.61729 0.0
N120 N 0.66819 0.52752 0.6779 0.0
C121 C 0.68273 0.52524 0.71641 0.0
C122 C 0.7018 0.53419 0.67864 0.0
C123 C 0.71208 0.55147 0.55348 0.0
H124 H 0.71211 0.56628 0.53777 0.0
H125 H 0.72862 0.55515 0.56558 0.0
H126 H 0.70586 0.5403 0.50748 0.0
O127 O 0.63388 0.5117 0.52894 0.0
O128 O 0.61935 0.49631 0.63218 0.0
H129 H 0.69088 0.51083 0.80379 0.0
H130 H 0.67854 0.52598 0.829 0.0
C131 C 0.67851 0.51484 0.7883 0.0
H132 H 0.66265 0.50009 0.78845 0.0
H133 H 0.61502 0.47858 0.7872 0.0
O134 O 0.67362 0.54832 0.455 0.0
C135 C 0.61955 0.49601 0.56416 0.0
Co136 Co 0.11394 0.65913 0.71194 0.0
Co137 Co 0.11738 0.64045 0.85732 0.0
C138 C 0.07751 0.64136 0.81126 0.0
O139 O 0.08584 0.65115 0.75341 0.0
O140 O 0.08789 0.63621 0.85397 0.0
C141 C 0.09993 0.65892 0.5785 0.0
O142 O 0.08363 0.64272 0.60989 0.0
C143 C 0.1181 0.64422 0.00983 0.0
C144 C 0.12595 0.62004 0.04795 0.0
C145 C 0.12129 0.6355 0.07076 0.0
N146 N 0.12109 0.63472 0.9531 0.0
N147 N 0.12583 0.62027 0.97594 0.0
C148 C 0.11061 0.66013 0.00537 0.0
H149 H 0.11148 0.66574 0.94974 0.0
H150 H 0.12044 0.67402 0.04043 0.0
H151 H 0.09383 0.65257 0.02433 0.0
C152 C 0.1525 0.69763 0.76818 0.0
N153 N 0.13647 0.67727 0.77359 0.0
N154 N 0.13863 0.66897 0.83336 0.0
C155 C 0.15657 0.68362 0.86684 0.0
C156 C 0.16581 0.70231 0.82709 0.0
C157 C 0.15543 0.71175 0.70588 0.0
H158 H 0.15829 0.70479 0.65719 0.0
H159 H 0.14051 0.7123 0.69707 0.0
H160 H 0.16906 0.72816 0.71405 0.0
O161 O 0.11559 0.63307 0.69083 0.0
O162 O 0.11924 0.6197 0.79278 0.0
H163 H 0.16143 0.66321 0.93847 0.0
H164 H 0.182 0.69088 0.94301 0.0
C165 C 0.16464 0.67986 0.93595 0.0
H166 H 0.15635 0.68267 0.98081 0.0
H167 H 0.12862 0.61037 0.94251 0.0
O168 O 0.11611 0.67128 0.61621 0.0
C169 C 0.11786 0.61911 0.72494 0.0
Co170 Co 0.45549 0.11671 0.87709 0.0
Co171 Co 0.4761 0.11695 0.02364 0.0
C172 C 0.43633 0.078 0.96651 0.0
O173 O 0.4354 0.0874 0.9104 0.0
O174 O 0.4512 0.08764 0.01217 0.0
C175 C 0.43546 0.10641 0.74182 0.0
O176 O 0.42635 0.08692 0.76757 0.0
C177 C 0.47109 0.11276 0.17582 0.0
C178 C 0.50418 0.12856 0.21709 0.0
C179 C 0.48294 0.11871 0.23824 0.0
N180 N 0.48461 0.11883 0.12039 0.0
N181 N 0.50439 0.12798 0.14515 0.0
C182 C 0.44751 0.10412 0.16817 0.0
H183 H 0.44369 0.10797 0.1148 0.0
H184 H 0.44163 0.11079 0.21003 0.0
H185 H 0.43905 0.08651 0.17425 0.0
C186 C 0.45438 0.15349 0.94351 0.0
N187 N 0.45877 0.13744 0.94514 0.0
N188 N 0.46844 0.13823 0.00558 0.0
C189 C 0.47097 0.15517 0.04375 0.0
C190 C 0.46202 0.16529 0.00596 0.0
C191 C 0.44438 0.15809 0.88115 0.0
H192 H 0.45541 0.16277 0.83487 0.0
H193 H 0.42941 0.14336 0.86602 0.0
H194 H 0.44093 0.1711 0.89302 0.0
O195 O 0.48358 0.11924 0.85639 0.0
O196 O 0.49954 0.12064 0.95906 0.0
H197 H 0.49649 0.16055 0.11484 0.0
H198 H 0.4856 0.17784 0.13095 0.0
C199 C 0.48164 0.1615 0.11531 0.0
H200 H 0.4707 0.1504 0.1563 0.0
H201 H 0.51801 0.13458 0.11302 0.0
O202 O 0.44676 0.12203 0.78305 0.0
C203 C 0.49951 0.12087 0.89102 0.0
Co204 Co 0.5426 0.65752 0.79113 0.0
Co205 Co 0.52101 0.63841 0.64568 0.0
C206 C 0.56111 0.63866 0.69568 0.0
O207 O 0.56247 0.64878 0.75269 0.0
O208 O 0.54587 0.6336 0.6517 0.0
C209 C 0.55681 0.6589 0.92574 0.0
O210 O 0.55703 0.64236 0.89756 0.0
C211 C 0.52463 0.64209 0.49375 0.0
C212 C 0.49233 0.61901 0.45403 0.0
C213 C 0.51272 0.63411 0.4323 0.0
N214 N 0.51188 0.63252 0.54977 0.0
N215 N 0.49256 0.61867 0.52603 0.0
C216 C 0.54813 0.65763 0.49943 0.0
H217 H 0.55712 0.65003 0.47867 0.0
H218 H 0.55284 0.66258 0.55562 0.0
H219 H 0.55256 0.67199 0.46662 0.0
C220 C 0.54326 0.69598 0.73231 0.0
N221 N 0.53889 0.6756 0.72756 0.0
N222 N 0.52861 0.66716 0.6676 0.0
C223 C 0.52546 0.68176 0.63321 0.0
C224 C 0.53484 0.70054 0.67265 0.0
C225 C 0.55399 0.71013 0.79512 0.0
H226 H 0.54358 0.70341 0.8427 0.0
H227 H 0.56918 0.71035 0.80658 0.0
H228 H 0.5572 0.72663 0.78587 0.0
O229 O 0.51452 0.63189 0.8125 0.0
O230 O 0.49797 0.61824 0.70988 0.0
H231 H 0.50006 0.66118 0.56201 0.0
H232 H 0.50741 0.6889 0.55624 0.0
C233 C 0.51362 0.6778 0.56402 0.0
H234 H 0.52466 0.68033 0.51928 0.0
H235 H 0.4796 0.60901 0.55883 0.0
O236 O 0.55266 0.67052 0.88557 0.0
C237 C 0.49837 0.61796 0.77783 0.0
Co238 Co 0.88188 0.54178 0.98408 0.0
Co239 Co 0.88208 0.52198 0.83671 0.0
C240 C 0.92081 0.5616 0.89567 0.0
O241 O 0.91131 0.56216 0.95203 0.0
O242 O 0.91128 0.54698 0.84917 0.0
C243 C 0.89159 0.56229 0.11887 0.0
O244 O 0.91115 0.5721 0.0934 0.0
C245 C 0.88656 0.52771 0.68515 0.0
C246 C 0.87143 0.49491 0.64192 0.0
C247 C 0.88106 0.51622 0.6221 0.0
N248 N 0.88048 0.51393 0.73975 0.0
N249 N 0.87171 0.49432 0.71386 0.0
C250 C 0.89476 0.55115 0.69404 0.0
H251 H 0.89074 0.55461 0.7477 0.0
H252 H 0.8879 0.55697 0.65264 0.0
H253 H 0.91239 0.55993 0.68801 0.0
C254 C 0.84488 0.54266 0.91826 0.0
N255 N 0.86117 0.53861 0.91603 0.0
N256 N 0.86053 0.52922 0.85517 0.0
C257 C 0.84347 0.52654 0.81728 0.0
C258 C 0.83309 0.53509 0.85574 0.0
C259 C 0.83999 0.55218 0.98131 0.0
H260 H 0.83532 0.54094 0.02691 0.0
H261 H 0.8546 0.56716 -0.00275 0.0
H262 H 0.82684 0.55549 0.96981 0.0
O263 O 0.87954 0.51372 0.00369 0.0
O264 O 0.87859 0.49845 0.89996 0.0
H265 H 0.83842 0.50132 0.74545 0.0
H266 H 0.82076 0.51186 0.73022 0.0
C267 C 0.83721 0.51601 0.74552 0.0
H268 H 0.84822 0.5271 0.70464 0.0
H269 H 0.86521 0.48056 0.7452 0.0
O270 O 0.87622 0.55025 0.07784 0.0
C271 C 0.87819 0.4981 0.96797 0.0
Co272 Co 0.33849 0.88229 0.12904 0.0
Co273 Co 0.3591 0.88204 0.98306 0.0
C274 C 0.35787 0.92088 0.03919 0.0
O275 O 0.34747 0.91149 0.09519 0.0
O276 O 0.36328 0.91128 -0.00596 0.0
C277 C 0.32913 0.89262 0.26447 0.0
O278 O 0.33978 0.9121 0.23881 0.0
C279 C 0.35822 0.8861 0.83083 0.0
C280 C 0.37578 0.87059 0.78978 0.0
C281 C 0.36423 0.88025 0.76848 0.0
N282 N 0.36578 0.88016 0.88636 0.0
N283 N 0.37656 0.87117 0.86173 0.0
C284 C 0.3431 0.89452 0.8383 0.0
H285 H 0.3354 0.89058 0.89159 0.0
H286 H 0.33058 0.88777 0.7963 0.0
H287 H 0.35213 0.91213 0.83234 0.0
C288 C 0.30083 0.84522 0.06279 0.0
N289 N 0.32122 0.8614 0.06119 0.0
N290 N 0.33019 0.86059 0.00105 0.0
C291 C 0.31589 0.84352 0.96305 0.0
C292 C 0.2968 0.83332 0.00065 0.0
C293 C 0.28617 0.8406 0.12492 0.0
H294 H 0.29256 0.8361 0.17153 0.0
H295 H 0.28577 0.85528 0.13956 0.0
H296 H 0.26975 0.82746 0.11309 0.0
O297 O 0.3642 0.8801 0.15017 0.0
O298 O 0.37899 0.87867 0.04815 0.0
H299 H 0.33625 0.83828 0.89266 0.0
H300 H 0.30809 0.82074 0.87639 0.0
C301 C 0.32037 0.83716 0.89182 0.0
H302 H 0.32044 0.84813 0.85048 0.0
H303 H 0.3837 0.86471 0.89395 0.0
O304 O 0.32446 0.87696 0.22307 0.0
C305 C 0.37864 0.87856 0.11619 0.0
Co306 Co 0.45372 0.3386 0.30264 0.0
Co307 Co 0.4759 0.35769 0.15803 0.0
C308 C 0.43581 0.3578 0.20642 0.0
O309 O 0.43411 0.34762 0.26356 0.0
O310 O 0.45119 0.36272 0.1633 0.0
C311 C 0.43999 0.33773 0.43732 0.0
O312 O 0.44023 0.35447 0.40906 0.0
C313 C 0.4724 0.35393 0.00594 0.0
C314 C 0.50471 0.37707 0.96675 0.0
C315 C 0.48435 0.36193 0.94465 0.0
N316 N 0.48512 0.3635 0.06219 0.0
N317 N 0.50444 0.37738 0.03876 0.0
C318 C 0.4489 0.3384 0.01121 0.0
H319 H 0.44403 0.33383 0.06748 0.0
H320 H 0.4446 0.3238 0.9798 0.0
H321 H 0.43992 0.34579 0.98853 0.0
C322 C 0.45265 0.2999 0.24335 0.0
N323 N 0.45736 0.3204 0.23915 0.0
N324 N 0.46797 0.32888 0.17983 0.0
C325 C 0.47102 0.31422 0.14548 0.0
C326 C 0.46121 0.29533 0.1841 0.0
C327 C 0.44139 0.2856 0.30519 0.0
H328 H 0.45174 0.29177 0.35322 0.0
H329 H 0.42648 0.28594 0.3166 0.0
H330 H 0.4376 0.26895 0.29483 0.0
O331 O 0.4819 0.36407 0.32474 0.0
O332 O 0.4989 0.37769 0.22293 0.0
H333 H 0.49674 0.33485 0.0756 0.0
H334 H 0.48953 0.30718 0.07023 0.0
C335 C 0.48321 0.31822 0.0771 0.0
H336 H 0.47237 0.3156 0.03156 0.0
H337 H 0.51737 0.38708 0.07176 0.0
O338 O 0.44355 0.3257 0.39707 0.0
C339 C 0.49825 0.37792 0.29085 0.0
Co340 Co 0.11683 0.45707 0.46771 0.0
Co341 Co 0.11517 0.47599 0.31968 0.0
C342 C 0.07744 0.43595 0.3803 0.0
O343 O 0.0874 0.43624 0.4368 0.0
O344 O 0.08631 0.45025 0.33239 0.0
C345 C 0.10914 0.43755 0.60444 0.0
O346 O 0.08933 0.426 0.5819 0.0
C347 C 0.10823 0.47454 0.1662 0.0
C348 C 0.13475 0.5058 0.13163 0.0
C349 C 0.11897 0.48617 0.10616 0.0
N350 N 0.11794 0.48628 0.22436 0.0
N351 N 0.13331 0.50525 0.20337 0.0
C352 C 0.08877 0.45284 0.16907 0.0
H353 H 0.0931 0.44124 0.19101 0.0
H354 H 0.08115 0.44746 0.11593 0.0
H355 H 0.07693 0.45344 0.20514 0.0
C356 C 0.15356 0.45644 0.4006 0.0
N357 N 0.13728 0.46051 0.3988 0.0
N358 N 0.13686 0.46857 0.33626 0.0
C359 C 0.15288 0.46967 0.2959 0.0
C360 C 0.16406 0.46221 0.33545 0.0
C361 C 0.15946 0.44831 0.46511 0.0
H362 H 0.16265 0.45943 0.51036 0.0
H363 H 0.14575 0.43256 0.48037 0.0
H364 H 0.1738 0.44677 0.45575 0.0
O365 O 0.11854 0.48455 0.48871 0.0
O366 O 0.11829 0.49916 0.38526 0.0
H367 H 0.16306 0.49397 0.21637 0.0
H368 H 0.16852 0.47291 0.19407 0.0
C369 C 0.15682 0.47654 0.21945 0.0
H370 H 0.14166 0.46806 0.1892 0.0
H371 H 0.14381 0.51723 0.23805 0.0
O372 O 0.12358 0.44952 0.5607 0.0
C373 C 0.11914 0.49979 0.45319 0.0
Co374 Co 0.65864 0.11586 0.63665 0.0
Co375 Co 0.6385 0.11503 0.48973 0.0
C376 C 0.63803 0.07609 0.55519 0.0
O377 O 0.64896 0.08592 0.61003 0.0
O378 O 0.63297 0.08558 0.50846 0.0
C379 C 0.67412 0.11053 0.77245 0.0
O380 O 0.66874 0.09117 0.75104 0.0
C381 C 0.64149 0.11163 0.33734 0.0
C382 C 0.62356 0.1266 0.29498 0.0
C383 C 0.63656 0.11845 0.27464 0.0
N384 N 0.63248 0.11626 0.39203 0.0
N385 N 0.62147 0.12488 0.36647 0.0
C386 C 0.65476 0.10113 0.34608 0.0
H387 H 0.64999 0.09098 0.39406 0.0
H388 H 0.67181 0.11351 0.35281 0.0
H389 H 0.65311 0.09111 0.29894 0.0
C390 C 0.69694 0.15112 0.56845 0.0
N391 N 0.67636 0.13537 0.56699 0.0
N392 N 0.66774 0.13582 0.50566 0.0
C393 C 0.68261 0.15214 0.46631 0.0
C394 C 0.70159 0.16209 0.50441 0.0
C395 C 0.71159 0.15583 0.63079 0.0
H396 H 0.70996 0.14072 0.65165 0.0
H397 H 0.72848 0.16694 0.61595 0.0
H398 H 0.70686 0.16316 0.67395 0.0
O399 O 0.63336 0.11907 0.65446 0.0
O400 O 0.61922 0.12041 0.55097 0.0
H401 H 0.68994 0.17695 0.38866 0.0
H402 H 0.68017 0.15074 0.3524 0.0
C403 C 0.67837 0.15974 0.39716 0.0
H404 H 0.66196 0.1573 0.39665 0.0
H405 H 0.61336 0.13043 0.39799 0.0
O406 O 0.67298 0.12337 0.7291 0.0
C407 C 0.61938 0.12099 0.61896 0.0
H408 H 0.36208 0.44845 0.46249 0.0
H409 H 0.31545 0.46053 0.83518 0.0
H410 H 0.34842 0.49883 0.50922 0.0
H411 H 0.34036 0.41793 0.80117 0.0
H412 H 0.32113 0.47013 0.70904 0.0
H413 H 0.34909 0.43342 0.58086 0.0
C414 C 0.35617 0.45623 0.49762 0.0
C415 C 0.35607 0.47475 0.47613 0.0
C416 C 0.32511 0.45849 0.72906 0.0
C417 C 0.34136 0.4578 0.61154 0.0
C418 C 0.32171 0.45285 0.80096 0.0
C419 C 0.32782 0.43869 0.82903 0.0
C420 C 0.3346 0.44985 0.68501 0.0
C421 C 0.33569 0.42914 0.78201 0.0
C422 C 0.34882 0.4477 0.56517 0.0
C423 C 0.34879 0.48456 0.52414 0.0
N424 N 0.33911 0.4351 0.71239 0.0
N425 N 0.34165 0.47592 0.58972 0.0
H426 H 0.85608 0.31422 0.00871 0.0
H427 H 0.91486 0.36566 0.64011 0.0
H428 H 0.92432 0.34373 0.978 0.0
H429 H 0.84889 0.34611 0.68251 0.0
H430 H 0.91771 0.35332 0.75879 0.0
H431 H 0.85207 0.32012 0.88277 0.0
C432 C 0.87018 0.32154 0.97522 0.0
C433 C 0.89063 0.32885 0.00417 0.0
C434 C 0.90258 0.35166 0.74216 0.0
C435 C 0.88614 0.3359 0.86049 0.0
C436 C 0.90095 0.35867 0.6745 0.0
C437 C 0.88156 0.35668 0.65166 0.0
C438 C 0.88467 0.34263 0.78724 0.0
C439 C 0.86414 0.34797 0.69854 0.0
C440 C 0.86788 0.32507 0.90347 0.0
C441 C 0.90829 0.33811 0.95813 0.0
N442 N 0.86608 0.34117 0.76423 0.0
N443 N 0.90567 0.34161 0.88867 0.0
H444 H 0.57857 0.92223 0.14498 0.0
H445 H 0.49533 0.84703 0.84973 0.0
H446 H 0.53466 0.85498 0.17713 0.0
H447 H 0.54613 0.91119 0.8076 0.0
H448 H 0.50988 0.84942 0.96979 0.0
H449 H 0.56844 0.91798 0.01917 0.0
C450 C 0.56709 0.90648 0.1253 0.0
C451 C 0.55724 0.889 0.17183 0.0
C452 C 0.51794 0.86292 0.93407 0.0
C453 C 0.54523 0.88412 0.02831 0.0
C454 C 0.50953 0.86162 0.86596 0.0
C455 C 0.51971 0.87885 0.81877 0.0
C456 C 0.53648 0.88172 0.95524 0.0
C457 C 0.53807 0.89739 0.842 0.0
C458 C 0.56123 0.90409 0.05352 0.0
C459 C 0.54257 0.86894 0.1433 0.0
N460 N 0.54585 0.89836 0.90871 0.0
N461 N 0.53675 0.86712 0.07357 0.0
H462 H 0.63625 0.54956 0.97092 0.0
H463 H 0.68241 0.53519 0.34156 0.0
H464 H 0.64863 0.49817 0.01472 0.0
H465 H 0.66073 0.58045 0.30877 0.0
H466 H 0.67611 0.52563 0.2154 0.0
H467 H 0.64991 0.56436 0.08924 0.0
C468 C 0.64202 0.5415 0.00536 0.0
C469 C 0.64155 0.52277 0.98304 0.0
C470 C 0.67298 0.53784 0.23566 0.0
C471 C 0.65702 0.53946 0.11845 0.0
C472 C 0.67673 0.54344 0.3076 0.0
C473 C 0.6717 0.55837 0.33607 0.0
C474 C 0.66419 0.54726 0.19194 0.0
C475 C 0.66456 0.56865 0.28933 0.0
C476 C 0.64975 0.54991 0.07291 0.0
C477 C 0.64867 0.51262 0.03025 0.0
N478 N 0.66075 0.5627 0.21969 0.0
N479 N 0.65618 0.52113 0.09581 0.0
H480 H 0.14303 0.67381 0.13872 0.0
H481 H 0.06951 0.63192 0.48501 0.0
H482 H 0.09344 0.60844 0.16909 0.0
H483 H 0.13364 0.68607 0.49304 0.0
H484 H 0.07442 0.62749 0.35885 0.0
H485 H 0.13673 0.68217 0.26049 0.0
C486 C 0.1308 0.66128 0.17126 0.0
C487 C 0.11864 0.64046 0.14462 0.0
C488 C 0.08734 0.64046 0.38812 0.0
C489 C 0.11121 0.64985 0.28206 0.0
C490 C 0.08452 0.64313 0.46003 0.0
C491 C 0.10134 0.6592 0.49993 0.0
C492 C 0.10702 0.65406 0.3556 0.0
C493 C 0.12033 0.67335 0.46438 0.0
C494 C 0.12725 0.66602 0.24035 0.0
C495 C 0.10316 0.62465 0.18835 0.0
N496 N 0.12275 0.67034 0.39408 0.0
N497 N 0.09975 0.6297 0.25498 0.0
H498 H 0.41497 0.07674 0.63676 0.0
H499 H 0.49983 0.14927 0.34159 0.0
H500 H 0.46172 0.14325 0.66913 0.0
H501 H 0.44805 0.08542 0.30113 0.0
H502 H 0.48541 0.14774 0.4611 0.0
H503 H 0.42503 0.08038 0.51106 0.0
C504 C 0.42706 0.09222 0.61718 0.0
C505 C 0.43773 0.10963 0.66379 0.0
C506 C 0.4771 0.13412 0.42589 0.0
C507 C 0.44964 0.11379 0.52033 0.0
C508 C 0.48544 0.13492 0.35807 0.0
C509 C 0.47495 0.11753 0.31145 0.0
C510 C 0.45831 0.11566 0.44741 0.0
C511 C 0.45635 0.09934 0.33503 0.0
C512 C 0.43289 0.09426 0.54544 0.0
C513 C 0.45318 0.12934 0.6353 0.0
N514 N 0.44864 0.09885 0.40148 0.0
N515 N 0.45891 0.1308 0.56561 0.0
H516 H 0.53082 0.67371 0.37326 0.0
H517 H 0.54977 0.68689 0.00424 0.0
H518 H 0.51171 0.60822 0.32576 0.0
H519 H 0.56075 0.63363 0.02508 0.0
H520 H 0.5404 0.68352 0.13073 0.0
H521 H 0.5457 0.68392 0.2528 0.0
C522 C 0.52977 0.66152 0.33709 0.0
C523 C 0.52024 0.64016 0.35882 0.0
C524 C 0.54543 0.67296 0.10808 0.0
C525 C 0.53671 0.65151 0.22151 0.0
C526 C 0.55076 0.67486 0.03581 0.0
C527 C 0.55584 0.66038 0.00396 0.0
C528 C 0.54515 0.65642 0.14826 0.0
C529 C 0.55675 0.64503 0.04724 0.0
C530 C 0.53804 0.6673 0.26833 0.0
C531 C 0.51889 0.62483 0.31037 0.0
N532 N 0.55107 0.64321 0.1169 0.0
N533 N 0.52723 0.63085 0.24393 0.0
H534 H 0.91462 0.55144 0.56215 0.0
H535 H 0.85428 0.5372 0.19108 0.0
H536 H 0.85091 0.49994 0.51726 0.0
H537 H 0.92133 0.58222 0.22434 0.0
H538 H 0.85096 0.52763 0.31714 0.0
H539 H 0.91585 0.56625 0.44392 0.0
C540 C 0.90083 0.54336 0.52747 0.0
C541 C 0.88254 0.5246 0.54945 0.0
C542 C 0.86634 0.53978 0.29699 0.0
C543 C 0.88387 0.5413 0.41419 0.0
C544 C 0.86822 0.5454 0.22512 0.0
C545 C 0.88823 0.56026 0.19682 0.0
C546 C 0.88456 0.54913 0.3408 0.0
C547 C 0.90567 0.57047 0.24365 0.0
C548 C 0.90155 0.55177 0.45999 0.0
C549 C 0.86532 0.51442 0.50198 0.0
N550 N 0.90349 0.56451 0.31323 0.0
N551 N 0.86637 0.52294 0.43649 0.0
H552 H 0.3383 0.92224 0.36962 0.0
H553 H 0.35088 0.84981 0.66476 0.0
H554 H 0.31866 0.85578 0.33699 0.0
H555 H 0.3624 0.91343 0.70569 0.0
H556 H 0.33806 0.85135 0.54503 0.0
H557 H 0.34475 0.91857 0.49533 0.0
C558 C 0.33496 0.90677 0.38915 0.0
C559 C 0.32822 0.88938 0.34249 0.0
C560 C 0.34324 0.86491 0.5804 0.0
C561 C 0.33599 0.88518 0.48595 0.0
C562 C 0.35073 0.86411 0.64835 0.0
C563 C 0.35746 0.88143 0.69516 0.0
C564 C 0.34277 0.8833 0.55895 0.0
C565 C 0.35692 0.89956 0.67165 0.0
C566 C 0.33875 0.90471 0.4609 0.0
C567 C 0.32401 0.86967 0.37089 0.0
N568 N 0.34974 0.90005 0.60508 0.0
N569 N 0.32829 0.8682 0.44059 0.0
H570 H 0.46563 0.32232 0.88488 0.0
H571 H 0.44625 0.30924 0.5159 0.0
H572 H 0.48605 0.38814 0.8382 0.0
H573 H 0.43726 0.36376 0.53662 0.0
H574 H 0.45577 0.31254 0.64232 0.0
H575 H 0.45078 0.3124 0.7642 0.0
C576 C 0.46696 0.33464 0.84888 0.0
C577 C 0.47684 0.35601 0.87096 0.0
C578 C 0.45114 0.32341 0.61967 0.0
C579 C 0.46044 0.34499 0.73324 0.0
C580 C 0.44573 0.32155 0.54742 0.0
C581 C 0.44114 0.33637 0.51555 0.0
C582 C 0.45201 0.34025 0.65983 0.0
C583 C 0.44085 0.35208 0.55878 0.0
C584 C 0.45872 0.32903 0.77994 0.0
C585 C 0.47858 0.37151 0.8226 0.0
N586 N 0.44659 0.35383 0.62843 0.0
N587 N 0.47027 0.36565 0.75597 0.0
H588 H 0.12777 0.50878 0.98239 0.0
H589 H 0.08585 0.41259 0.71704 0.0
H590 H 0.10992 0.44613 0.06307 0.0
H591 H 0.14139 0.47327 0.66617 0.0
H592 H 0.08938 0.42393 0.84247 0.0
H593 H 0.12764 0.49586 0.86103 0.0
C594 C 0.12347 0.49226 0.97453 0.0
C595 C 0.11786 0.47827 0.03262 0.0
C596 C 0.10092 0.43453 0.80366 0.0
C597 C 0.11776 0.46353 0.89501 0.0
C598 C 0.09897 0.42808 0.73247 0.0
C599 C 0.11332 0.442 0.68129 0.0
C600 C 0.1169 0.45522 0.82277 0.0
C601 C 0.13001 0.46197 0.70389 0.0
C602 C 0.12352 0.48497 0.90563 0.0
C603 C 0.11299 0.45714 0.01971 0.0
N604 N 0.13109 0.46817 0.77281 0.0
N605 N 0.11275 0.4503 0.95209 0.0
H606 H 0.68001 0.08968 0.88521 0.0
H607 H 0.61686 0.11731 0.14968 0.0
H608 H 0.66913 0.1418 0.83436 0.0
H609 H 0.6753 0.12275 0.23207 0.0
H610 H 0.62998 0.11818 0.02834 0.0
H611 H 0.67349 0.09367 0.01187 0.0
C612 C 0.67668 0.10216 0.90072 0.0
C613 C 0.67493 0.11528 0.84922 0.0
C614 C 0.63968 0.1189 0.07359 0.0
C615 C 0.66685 0.11931 -0.00825 0.0
C616 C 0.63226 0.11837 0.14255 0.0
C617 C 0.6445 0.11894 0.20151 0.0
C618 C 0.65928 0.11966 0.06379 0.0
C619 C 0.66457 0.12077 0.18893 0.0
C620 C 0.67295 0.10437 0.97254 0.0
C621 C 0.67056 0.13125 0.87209 0.0
N622 N 0.67121 0.1207 0.12125 0.0
N623 N 0.66614 0.13247 0.94156 0.0
H624 H 0.4611 0.58449 0.72486 0.0
H625 H 0.41352 0.53672 0.1114 0.0
H626 H 0.49358 0.61312 0.92283 0.0
H627 H 0.38269 0.50655 0.9129 0.0
H628 H 0.44214 0.56589 0.04346 0.0
H629 H 0.43136 0.5567 0.79316 0.0
C630 C 0.46198 0.58498 0.78261 0.0
C631 C 0.47993 0.60116 0.81801 0.0
C632 C 0.42907 0.5529 0.01484 0.0
C633 C 0.44591 0.56937 0.89664 0.0
C634 C 0.4127 0.53625 0.05363 0.0
C635 C 0.39568 0.51907 0.01794 0.0
C636 C 0.42843 0.5524 0.93979 0.0
C637 C 0.3955 0.51937 0.94289 0.0
C638 C 0.44499 0.56909 0.82163 0.0
C639 C 0.48013 0.60095 0.89308 0.0
N640 N 0.41163 0.53571 0.90643 0.0
N641 N 0.46342 0.58531 0.92978 0.0
H642 H 0.87735 0.38202 0.08752 0.0
H643 H 0.87572 0.49164 0.11248 0.0
H644 H 0.87532 0.41106 0.28678 0.0
H645 H 0.87711 0.46222 0.9133 0.0
H646 H 0.87442 0.46175 0.17687 0.0
H647 H 0.87615 0.41065 0.02306 0.0
C648 C 0.8766 0.39439 0.11789 0.0
C649 C 0.87651 0.39412 0.19293 0.0
C650 C 0.87495 0.46178 0.1191 0.0
C651 C 0.87516 0.4271 0.11891 0.0
C652 C 0.8757 0.47887 0.08212 0.0
C653 C 0.87661 0.47954 0.00714 0.0
C654 C 0.87516 0.44515 0.08106 0.0
C655 C 0.87647 0.46244 0.97101 0.0
C656 C 0.87591 0.41076 0.08086 0.0
C657 C 0.87546 0.4106 0.22903 0.0
N658 N 0.87583 0.446 0.00832 0.0
N659 N 0.87489 0.42644 0.19168 0.0
H660 H 0.38154 0.87648 0.26128 0.0
H661 H 0.49228 0.87653 0.25231 0.0
H662 H 0.41377 0.87707 0.06638 0.0
H663 H 0.45967 0.87523 0.44709 0.0
H664 H 0.46323 0.8757 0.18363 0.0
H665 H 0.40945 0.875 0.32975 0.0
C666 C 0.39447 0.87626 0.23269 0.0
C667 C 0.3953 0.87698 0.15768 0.0
C668 C 0.46237 0.87554 0.24136 0.0
C669 C 0.42745 0.87531 0.23642 0.0
C670 C 0.47899 0.87602 0.28082 0.0
C671 C 0.47851 0.87602 0.35587 0.0
C672 C 0.44506 0.87511 0.27692 0.0
C673 C 0.46077 0.87528 0.38946 0.0
C674 C 0.41042 0.8754 0.27204 0.0
C675 C 0.41245 0.87657 0.124 0.0
N676 N 0.4448 0.87492 0.34974 0.0
N677 N 0.42788 0.87583 0.16362 0.0
H678 H 0.50239 0.38274 0.43608 0.0
H679 H 0.61657 0.48937 0.41982 0.0
H680 H 0.53605 0.41101 0.23982 0.0
H681 H 0.58373 0.4607 0.61688 0.0
H682 H 0.58776 0.46013 0.35367 0.0
H683 H 0.53238 0.41049 0.50324 0.0
C684 C 0.5161 0.39475 0.40696 0.0
C685 C 0.51663 0.39453 0.33195 0.0
C686 C 0.58686 0.46016 0.41137 0.0
C687 C 0.55111 0.42645 0.40901 0.0
C688 C 0.60334 0.47689 0.44937 0.0
C689 C 0.60258 0.4776 0.52424 0.0
C690 C 0.56935 0.44397 0.44824 0.0
C691 C 0.58501 0.46086 0.55928 0.0
C692 C 0.53324 0.4106 0.44552 0.0
C693 C 0.53488 0.41054 0.29748 0.0
N694 N 0.56905 0.44478 0.52095 0.0
N695 N 0.55135 0.42586 0.33627 0.0
H696 H 0.12308 0.50673 0.5973 0.0
H697 H 0.11566 0.61338 0.57999 0.0
H698 H 0.11773 0.53462 0.40001 0.0
H699 H 0.12228 0.58587 0.77627 0.0
H700 H 0.11696 0.58509 0.51317 0.0
H701 H 0.12352 0.53599 0.66303 0.0
C702 C 0.12205 0.51904 0.5676 0.0
C703 C 0.1203 0.51812 0.49276 0.0
C704 C 0.11816 0.58525 0.57082 0.0
C705 C 0.12074 0.55181 0.56836 0.0
C706 C 0.11742 0.60141 0.60919 0.0
C707 C 0.11884 0.60203 0.68412 0.0
C708 C 0.12032 0.5695 0.60741 0.0
C709 C 0.1211 0.58605 0.71869 0.0
C710 C 0.1223 0.53578 0.60538 0.0
C711 C 0.11909 0.53463 0.45757 0.0
N712 N 0.12173 0.57044 0.68006 0.0
N713 N 0.11926 0.55076 0.4957 0.0
H714 H 0.61654 0.12471 0.76327 0.0
H715 H 0.5047 0.12229 0.74598 0.0
H716 H 0.58433 0.12211 0.56594 0.0
H717 H 0.53646 0.12353 0.94291 0.0
H718 H 0.53448 0.12402 0.67927 0.0
H719 H 0.5883 0.1262 0.82928 0.0
C720 C 0.60357 0.12454 0.73361 0.0
C721 C 0.6028 0.12317 0.65869 0.0
C722 C 0.53498 0.12398 0.73704 0.0
C723 C 0.57023 0.12482 0.73461 0.0
C724 C 0.51796 0.12298 0.77537 0.0
C725 C 0.51797 0.12267 0.85044 0.0
C726 C 0.55225 0.12464 0.77379 0.0
C727 C 0.53568 0.12367 0.88521 0.0
C728 C 0.58741 0.12538 0.77156 0.0
C729 C 0.58559 0.12311 0.62356 0.0
N730 N 0.55206 0.12455 0.8466 0.0
N731 N 0.56994 0.12383 0.66186 0.0
H732 H 0.29 0.497 0.18076 0.0
H733 H 0.17056 0.42804 0.33189 0.0
H734 H 0.25728 0.42846 0.19835 0.0
H735 H 0.20133 0.49546 0.28776 0.0
H736 H 0.20249 0.42773 0.28797 0.0
H737 H 0.25774 0.49673 0.22252 0.0
C738 C 0.27587 0.48189 0.19307 0.0
C739 C 0.27612 0.46274 0.18647 0.0
C740 C 0.20227 0.4426 0.28798 0.0
C741 C 0.23928 0.46219 0.23475 0.0
C742 C 0.18416 0.44278 0.31345 0.0
C743 C 0.18348 0.46181 0.31333 0.0
C744 C 0.21977 0.46162 0.26263 0.0
C745 C 0.2013 0.48047 0.28838 0.0
C746 C 0.2575 0.4817 0.21698 0.0
C747 C 0.25754 0.44353 0.20278 0.0
N748 N 0.21872 0.47992 0.26404 0.0
N749 N 0.23984 0.44372 0.22666 0.0
H750 H 0.82556 0.25377 0.33221 0.0
H751 H 0.71941 0.20194 0.56142 0.0
H752 H 0.79439 0.2893 0.38956 0.0
H753 H 0.72843 0.1654 0.39739 0.0
H754 H 0.7513 0.2343 0.51799 0.0
H755 H 0.79365 0.22077 0.37168 0.0
C756 C 0.81195 0.25457 0.35273 0.0
C757 C 0.81263 0.27424 0.35866 0.0
C758 C 0.74632 0.21916 0.49183 0.0
C759 C 0.77665 0.23695 0.40544 0.0
C760 C 0.72833 0.20079 0.51683 0.0
C761 C 0.72158 0.18121 0.48285 0.0
C762 C 0.75776 0.21771 0.43353 0.0
C763 C 0.73337 0.18035 0.42485 0.0
C764 C 0.79388 0.23583 0.37543 0.0
C765 C 0.79466 0.27448 0.38579 0.0
N766 N 0.75106 0.19837 0.40214 0.0
N767 N 0.77749 0.25616 0.40917 0.0
H768 H 0.49898 0.79172 0.53084 0.0
H769 H 0.56973 0.73933 0.64473 0.0
H770 H 0.56784 0.82689 0.5331 0.0
H771 H 0.50105 0.70704 0.65911 0.0
H772 H 0.56982 0.77162 0.60307 0.0
H773 H 0.49962 0.76011 0.57396 0.0
C774 C 0.51424 0.79266 0.54024 0.0
C775 C 0.53337 0.81181 0.5291 0.0
C776 C 0.55473 0.75751 0.61559 0.0
C777 C 0.53436 0.77587 0.57843 0.0
C778 C 0.55472 0.7392 0.63967 0.0
C779 C 0.53535 0.72064 0.65462 0.0
C780 C 0.5352 0.75711 0.6065 0.0
C781 C 0.51628 0.72107 0.64727 0.0
C782 C 0.51464 0.77469 0.56499 0.0
C783 C 0.55276 0.8123 0.5412 0.0
N784 N 0.51666 0.73898 0.62334 0.0
N785 N 0.55279 0.79459 0.56555 0.0
H786 H 0.79377 0.50064 0.83342 0.0
H787 H 0.74068 0.56944 0.70372 0.0
H788 H 0.82789 0.56941 0.83081 0.0
H789 H 0.70805 0.50069 0.7035 0.0
H790 H 0.77294 0.57017 0.74976 0.0
H791 H 0.76192 0.50054 0.78823 0.0
C792 C 0.79441 0.51572 0.82362 0.0
C793 C 0.81334 0.53505 0.83524 0.0
C794 C 0.75875 0.55492 0.73947 0.0
C795 C 0.77715 0.53519 0.78332 0.0
C796 C 0.74046 0.55454 0.71288 0.0
C797 C 0.72182 0.53498 0.70038 0.0
C798 C 0.75829 0.53558 0.75341 0.0
C799 C 0.72215 0.51607 0.71311 0.0
C800 C 0.7763 0.5157 0.79768 0.0
C801 C 0.81348 0.5542 0.82238 0.0
N802 N 0.74006 0.51683 0.7392 0.0
N803 N 0.79565 0.55381 0.7967 0.0
H804 H 0.29167 0.79394 0.97781 0.0
H805 H 0.16904 0.74078 0.856 0.0
H806 H 0.25742 0.82852 0.97474 0.0
H807 H 0.20637 0.70951 0.84052 0.0
H808 H 0.20083 0.77315 0.89995 0.0
H809 H 0.25989 0.76239 0.9314 0.0
C810 C 0.27732 0.79476 0.96759 0.0
C811 C 0.27705 0.81373 0.97945 0.0
C812 C 0.20211 0.75925 0.8866 0.0
C813 C 0.24068 0.77787 0.92626 0.0
C814 C 0.18405 0.7409 0.86117 0.0
C815 C 0.18523 0.72258 0.84534 0.0
C816 C 0.22137 0.75914 0.89621 0.0
C817 C 0.20488 0.72334 0.85297 0.0
C818 C 0.25923 0.77683 0.94091 0.0
C819 C 0.25813 0.81407 0.96615 0.0
N820 N 0.22215 0.74127 0.8783 0.0
N821 N 0.24065 0.79639 0.93994 0.0
H822 H 0.42605 0.25715 0.15131 0.0
H823 H 0.49607 0.20474 0.02956 0.0
H824 H 0.4945 0.28799 0.17308 0.0
H825 H 0.42721 0.16974 0.03143 0.0
H826 H 0.49557 0.23602 0.07701 0.0
H827 H 0.42562 0.225 0.10586 0.0
C828 C 0.44092 0.25697 0.14723 0.0
C829 C 0.46035 0.27511 0.16525 0.0
C830 C 0.48052 0.22155 0.067 0.0
C831 C 0.46012 0.23884 0.11264 0.0
C832 C 0.48084 0.20378 0.03969 0.0
C833 C 0.46167 0.18476 0.02727 0.0
C834 C 0.46084 0.2203 0.08168 0.0
C835 C 0.44231 0.18423 0.04047 0.0
C836 C 0.44072 0.23875 0.12095 0.0
C837 C 0.47924 0.27429 0.15897 0.0
N838 N 0.44237 0.20176 0.0673 0.0
N839 N 0.47868 0.25651 0.13272 0.0
H840 H 0.37006 0.42751 0.25863 0.0
H841 H 0.42779 0.37124 0.07937 0.0
H842 H 0.36379 0.41303 0.03332 0.0
H843 H 0.40954 0.36219 0.30158 0.0
H844 H 0.40549 0.38752 0.06039 0.0
H845 H 0.38565 0.40464 0.27552 0.0
C846 C 0.37177 0.41935 0.21281 0.0
C847 C 0.36566 0.42223 0.14444 0.0
C848 C 0.40617 0.38171 0.11305 0.0
C849 C 0.38383 0.39631 0.16325 0.0
C850 C 0.41894 0.3725 0.12399 0.0
C851 C 0.42064 0.36548 0.19228 0.0
C852 C 0.39537 0.38429 0.17107 0.0
C853 C 0.40872 0.36738 0.24807 0.0
C854 C 0.38062 0.40625 0.22253 0.0
C855 C 0.36824 0.41122 0.08698 0.0
N856 N 0.39683 0.37689 0.23646 0.0
N857 N 0.37743 0.39898 0.0975 0.0
H858 H 0.94943 0.35679 0.21523 0.0
H859 H 0.04803 0.41557 0.48578 0.0
H860 H 0.94328 0.37249 0.43313 0.0
H861 H 0.05491 0.41918 0.25672 0.0
H862 H 0.00937 0.3922 0.47105 0.0
H863 H 0.98797 0.37241 0.23396 0.0
C864 C 0.9561 0.36323 0.26727 0.0
C865 C 0.94309 0.36347 0.32256 0.0
C866 C 0.0194 0.398 0.42406 0.0
C867 C 0.9871 0.38123 0.34426 0.0
C868 C 0.04145 0.41122 0.4324 0.0
C869 C 0.05462 0.41966 0.37228 0.0
C870 C 0.01055 0.39298 0.35514 0.0
C871 C 0.04527 0.41349 0.30439 0.0
C872 C 0.97809 0.37219 0.27779 0.0
C873 C 0.95266 0.37205 0.38886 0.0
N874 N 0.02378 0.4006 0.2976 0.0
N875 N 0.97407 0.38065 0.39778 0.0
H876 H 0.6322 0.04652 0.65762 0.0
H877 H 0.58666 0.94876 0.38277 0.0
H878 H 0.62621 0.05323 0.4311 0.0
H879 H 0.56733 0.9413 0.60381 0.0
H880 H 0.60929 0.98721 0.40268 0.0
H881 H 0.61621 0.00781 0.64075 0.0
C882 C 0.62781 0.03991 0.60431 0.0
C883 C 0.63037 0.05308 0.54574 0.0
C884 C 0.60025 0.97707 0.4469 0.0
C885 C 0.61238 0.00906 0.52618 0.0
C886 C 0.58741 0.95513 0.43572 0.0
C887 C 0.57493 0.94181 0.49159 0.0
C888 C 0.60085 0.98569 0.51462 0.0
C889 C 0.57653 0.95099 0.55909 0.0
C890 C 0.61863 0.01786 0.59482 0.0
C891 C 0.62435 0.04366 0.47784 0.0
N892 N 0.5892 0.97239 0.56871 0.0
N893 N 0.61563 0.02224 0.46993 0.0
H894 H 0.62795 0.57052 0.76 0.0
H895 H 0.56928 0.62438 0.57046 0.0
H896 H 0.63383 0.58283 0.53335 0.0
H897 H 0.58764 0.63538 0.79264 0.0
H898 H 0.59184 0.60824 0.55467 0.0
H899 H 0.61209 0.59329 0.77307 0.0
C900 C 0.6261 0.57818 0.71307 0.0
C901 C 0.63217 0.57473 0.64547 0.0
C902 C 0.59112 0.61445 0.60659 0.0
C903 C 0.6137 0.60052 0.6599 0.0
C904 C 0.57821 0.62359 0.61572 0.0
C905 C 0.57646 0.6311 0.6831 0.0
C906 C 0.60202 0.61245 0.66554 0.0
C907 C 0.58848 0.62978 0.73978 0.0
C908 C 0.6171 0.59123 0.7206 0.0
C909 C 0.62942 0.58511 0.58649 0.0
N910 N 0.60051 0.62034 0.72996 0.0
N911 N 0.62008 0.5973 0.5949 0.0
H912 H 0.0471 0.63877 0.71815 0.0
H913 H 0.9507 0.58552 -0.00275 0.0
H914 H 0.0561 0.62741 0.93838 0.0
H915 H 0.94308 0.57336 0.77047 0.0
H916 H 0.98932 0.60868 0.97914 0.0
H917 H 0.00876 0.62278 0.74032 0.0
C918 C 0.04108 0.63321 0.77144 0.0
C919 C 0.0548 0.63421 0.82633 0.0
C920 C 0.97909 0.60109 0.93342 0.0
C921 C 0.01098 0.61598 0.85189 0.0
C922 C 0.95708 0.58798 0.94359 0.0
C923 C 0.94369 0.57739 0.88526 0.0
C924 C 0.98763 0.6039 0.86436 0.0
C925 C 0.95283 0.58107 0.81695 0.0
C926 C 0.01919 0.624 0.78389 0.0
C927 C 0.04606 0.62674 0.89433 0.0
N928 N 0.97422 0.594 0.80839 0.0
N929 N 0.02466 0.61785 0.90516 0.0
H930 H 0.411 0.0485 0.86622 0.0
H931 H 0.36161 0.95035 0.1388 0.0
H932 H 0.42632 0.05528 0.09098 0.0
H933 H 0.37086 0.94357 0.91469 0.0
H934 H 0.37739 0.98891 0.12134 0.0
H935 H 0.38825 0.0099 0.88342 0.0
C936 C 0.40934 0.04194 0.91934 0.0
C937 C 0.42072 0.0551 0.9772 0.0
C938 C 0.37573 0.9789 0.07597 0.0
C939 C 0.39466 0.01111 -0.0029 0.0
C940 C 0.36665 0.9569 0.08575 0.0
C941 C 0.36508 0.94375 0.02818 0.0
C942 C 0.38296 0.98772 0.00798 0.0
C943 C 0.37193 0.95314 0.96065 0.0
C944 C 0.39644 0.01993 0.92898 0.0
C945 C 0.41799 0.04571 0.04481 0.0
N946 N 0.38061 0.97456 0.95242 0.0
N947 N 0.40527 0.02427 0.0529 0.0
loop_
_geom_bond_atom_site_label_1
_geom_bond_atom_site_label_2
_geom_bond_distance
_geom_bond_site_symmetry_2
_ccdc_geom_bond_type
Co0 O3 1.970 . S
Co0 N17 1.989 . S
Co0 O25 1.967 . S
Co0 O32 1.920 1_554 S
Co1 O4 1.966 . S
Co1 N10 2.022 . S
Co1 N18 1.993 . S
Co1 O26 1.941 . S
C2 O3 1.258 . S
C2 O4 1.263 . S
O3 Co0 1.970 . S
O3 C2 1.258 . S
O4 Co1 1.966 . S
O4 C2 1.263 . S
C5 O6 1.235 . S
C5 O32 1.289 . S
O6 C5 1.235 . S
C7 C9 1.400 . S
C7 N10 1.351 . S
C7 C12 1.501 . S
C8 C9 1.387 . S
C8 N11 1.341 . S
C9 C7 1.400 . S
C9 C8 1.387 . S
N10 Co1 2.022 . S
N10 C7 1.351 . S
N10 N11 1.365 . S
N11 C8 1.341 . S
N11 N10 1.365 . S
N11 H31 0.862 . S
C12 C7 1.501 . S
C12 H13 0.961 . S
C12 H14 0.961 . S
C12 H15 0.960 . S
H13 C12 0.961 . S
H14 C12 0.961 . S
H15 C12 0.960 . S
C16 N17 1.342 . S
C16 C20 1.401 . S
C16 C21 1.499 . S
N17 Co0 1.989 . S
N17 C16 1.342 . S
N17 N18 1.388 . S
N18 Co1 1.993 . S
N18 N17 1.388 . S
N18 C19 1.346 . S
C19 N18 1.346 . S
C19 C20 1.396 . S
C19 C29 1.510 . S
C20 C16 1.401 . S
C20 C19 1.396 . S
C21 C16 1.499 . S
C21 H22 0.959 1_554 S
C21 H23 0.960 . S
C21 H24 0.961 . S
H22 C21 0.959 1_556 S
H23 C21 0.960 . S
H24 C21 0.961 . S
O25 Co0 1.967 . S
O25 C33 1.258 . S
O26 Co1 1.941 . S
O26 C33 1.266 . S
H27 C29 0.959 . S
H28 C29 0.961 . S
C29 C19 1.510 . S
C29 H27 0.959 . S
C29 H28 0.961 . S
C29 H30 0.960 . S
H30 C29 0.960 . S
H31 N11 0.862 . S
O32 Co0 1.920 1_556 S
O32 C5 1.289 . S
C33 O25 1.258 . S
C33 O26 1.266 . S
Co34 O37 1.970 . S
Co34 N51 1.989 . S
Co34 O59 1.967 . S
Co34 O66 1.920 . S
Co35 O38 1.966 . S
Co35 N44 2.022 . S
Co35 N52 1.993 . S
Co35 O60 1.941 . S
C36 O37 1.258 . S
C36 O38 1.263 . S
O37 Co34 1.970 . S
O37 C36 1.258 . S
O38 Co35 1.966 . S
O38 C36 1.263 . S
C39 O40 1.235 . S
C39 O66 1.289 . S
O40 C39 1.235 . S
C41 C43 1.400 . S
C41 N44 1.351 . S
C41 C46 1.501 . S
C42 C43 1.387 . S
C42 N45 1.341 . S
C43 C41 1.400 . S
C43 C42 1.387 . S
N44 Co35 2.022 . S
N44 C41 1.351 . S
N44 N45 1.365 . S
N45 C42 1.341 . S
N45 N44 1.365 . S
N45 H65 0.862 . S
C46 C41 1.501 . S
C46 H47 0.961 . S
C46 H48 0.961 . S
C46 H49 0.960 . S
H47 C46 0.961 . S
H48 C46 0.961 . S
H49 C46 0.960 . S
C50 N51 1.342 . S
C50 C54 1.401 . S
C50 C55 1.499 . S
N51 Co34 1.989 . S
N51 C50 1.342 . S
N51 N52 1.388 . S
N52 Co35 1.993 . S
N52 N51 1.388 . S
N52 C53 1.346 . S
C53 N52 1.346 . S
C53 C54 1.396 . S
C53 C63 1.510 . S
C54 C50 1.401 . S
C54 C53 1.396 . S
C55 C50 1.499 . S
C55 H56 0.959 . S
C55 H57 0.960 . S
C55 H58 0.961 . S
H56 C55 0.959 . S
H57 C55 0.960 . S
H58 C55 0.961 . S
O59 Co34 1.967 . S
O59 C67 1.258 . S
O60 Co35 1.941 . S
O60 C67 1.266 . S
H61 C63 0.959 . S
H62 C63 0.961 . S
C63 C53 1.510 . S
C63 H61 0.959 . S
C63 H62 0.961 . S
C63 H64 0.960 . S
H64 C63 0.960 . S
H65 N45 0.862 . S
O66 Co34 1.920 . S
O66 C39 1.289 . S
C67 O59 1.258 . S
C67 O60 1.266 . S
Co68 O71 1.970 . S
Co68 N85 1.989 . S
Co68 O93 1.967 . S
Co68 O100 1.920 . S
Co69 O72 1.966 . S
Co69 N78 2.022 . S
Co69 N86 1.993 . S
Co69 O94 1.941 . S
C70 O71 1.258 . S
C70 O72 1.263 . S
O71 Co68 1.970 . S
O71 C70 1.258 . S
O72 Co69 1.966 . S
O72 C70 1.263 . S
C73 O74 1.235 . S
C73 O100 1.289 . S
O74 C73 1.235 . S
C75 C77 1.400 . S
C75 N78 1.351 . S
C75 C80 1.501 . S
C76 C77 1.387 . S
C76 N79 1.341 . S
C77 C75 1.400 . S
C77 C76 1.387 . S
N78 Co69 2.022 . S
N78 C75 1.351 . S
N78 N79 1.365 . S
N79 C76 1.341 . S
N79 N78 1.365 . S
N79 H99 0.862 . S
C80 C75 1.501 . S
C80 H81 0.961 . S
C80 H82 0.961 . S
C80 H83 0.960 . S
H81 C80 0.961 . S
H82 C80 0.961 . S
H83 C80 0.960 . S
C84 N85 1.342 . S
C84 C88 1.401 . S
C84 C89 1.499 . S
N85 Co68 1.989 . S
N85 C84 1.342 . S
N85 N86 1.388 . S
N86 Co69 1.993 . S
N86 N85 1.388 . S
N86 C87 1.346 . S
C87 N86 1.346 . S
C87 C88 1.396 . S
C87 C97 1.510 . S
C88 C84 1.401 . S
C88 C87 1.396 . S
C89 C84 1.499 . S
C89 H90 0.959 . S
C89 H91 0.960 . S
C89 H92 0.961 . S
H90 C89 0.959 . S
H91 C89 0.960 . S
H92 C89 0.961 . S
O93 Co68 1.967 . S
O93 C101 1.258 . S
O94 Co69 1.941 . S
O94 C101 1.266 . S
H95 C97 0.959 . S
H96 C97 0.961 . S
C97 C87 1.510 . S
C97 H95 0.959 . S
C97 H96 0.961 . S
C97 H98 0.960 . S
H98 C97 0.960 . S
H99 N79 0.862 . S
O100 Co68 1.920 . S
O100 C73 1.289 . S
C101 O93 1.258 . S
C101 O94 1.266 . S
Co102 O105 1.970 . S
Co102 N119 1.989 . S
Co102 O127 1.967 . S
Co102 O134 1.920 . S
Co103 O106 1.966 . S
Co103 N112 2.022 . S
Co103 N120 1.993 . S
Co103 O128 1.941 . S
C104 O105 1.258 . S
C104 O106 1.263 . S
O105 Co102 1.970 . S
O105 C104 1.258 . S
O106 Co103 1.966 . S
O106 C104 1.263 . S
C107 O108 1.235 . S
C107 O134 1.289 . S
O108 C107 1.235 . S
C109 C111 1.400 . S
C109 N112 1.351 . S
C109 C114 1.501 . S
C110 C111 1.387 . S
C110 N113 1.341 . S
C111 C109 1.400 . S
C111 C110 1.387 . S
N112 Co103 2.022 . S
N112 C109 1.351 . S
N112 N113 1.365 . S
N113 C110 1.341 . S
N113 N112 1.365 . S
N113 H133 0.862 . S
C114 C109 1.501 . S
C114 H115 0.961 . S
C114 H116 0.961 . S
C114 H117 0.960 . S
H115 C114 0.961 . S
H116 C114 0.961 . S
H117 C114 0.960 . S
C118 N119 1.342 . S
C118 C122 1.401 . S
C118 C123 1.499 . S
N119 Co102 1.989 . S
N119 C118 1.342 . S
N119 N120 1.388 . S
N120 Co103 1.993 . S
N120 N119 1.388 . S
N120 C121 1.346 . S
C121 N120 1.346 . S
C121 C122 1.396 . S
C121 C131 1.510 . S
C122 C118 1.401 . S
C122 C121 1.396 . S
C123 C118 1.499 . S
C123 H124 0.959 . S
C123 H125 0.960 . S
C123 H126 0.961 . S
H124 C123 0.959 . S
H125 C123 0.960 . S
H126 C123 0.961 . S
O127 Co102 1.967 . S
O127 C135 1.258 . S
O128 Co103 1.941 . S
O128 C135 1.266 . S
H129 C131 0.959 . S
H130 C131 0.961 . S
C131 C121 1.510 . S
C131 H129 0.959 . S
C131 H130 0.961 . S
C131 H132 0.960 . S
H132 C131 0.960 . S
H133 N113 0.862 . S
O134 Co102 1.920 . S
O134 C107 1.289 . S
C135 O127 1.258 . S
C135 O128 1.266 . S
Co136 O139 1.970 . S
Co136 N153 1.989 . S
Co136 O161 1.967 . S
Co136 O168 1.920 . S
Co137 O140 1.966 . S
Co137 N146 2.022 1_556 S
Co137 N154 1.993 . S
Co137 O162 1.941 . S
C138 O139 1.258 . S
C138 O140 1.263 . S
O139 Co136 1.970 . S
O139 C138 1.258 . S
O140 Co137 1.966 . S
O140 C138 1.263 . S
C141 O142 1.235 . S
C141 O168 1.289 . S
O142 C141 1.235 . S
C143 C145 1.400 . S
C143 N146 1.351 . S
C143 C148 1.501 . S
C144 C145 1.387 . S
C144 N147 1.341 . S
C145 C143 1.400 . S
C145 C144 1.387 . S
N146 Co137 2.022 1_554 S
N146 C143 1.351 . S
N146 N147 1.365 . S
N147 C144 1.341 . S
N147 N146 1.365 . S
N147 H167 0.862 . S
C148 C143 1.501 . S
C148 H149 0.961 1_554 S
C148 H150 0.961 . S
C148 H151 0.960 . S
H149 C148 0.961 1_556 S
H150 C148 0.961 . S
H151 C148 0.960 . S
C152 N153 1.342 . S
C152 C156 1.401 . S
C152 C157 1.499 . S
N153 Co136 1.989 . S
N153 C152 1.342 . S
N153 N154 1.388 . S
N154 Co137 1.993 . S
N154 N153 1.388 . S
N154 C155 1.346 . S
C155 N154 1.346 . S
C155 C156 1.396 . S
C155 C165 1.510 . S
C156 C152 1.401 . S
C156 C155 1.396 . S
C157 C152 1.499 . S
C157 H158 0.959 . S
C157 H159 0.960 . S
C157 H160 0.961 . S
H158 C157 0.959 . S
H159 C157 0.960 . S
H160 C157 0.961 . S
O161 Co136 1.967 . S
O161 C169 1.258 . S
O162 Co137 1.941 . S
O162 C169 1.266 . S
H163 C165 0.959 . S
H164 C165 0.961 . S
C165 C155 1.510 . S
C165 H163 0.959 . S
C165 H164 0.961 . S
C165 H166 0.960 . S
H166 C165 0.960 . S
H167 N147 0.862 . S
O168 Co136 1.920 . S
O168 C141 1.289 . S
C169 O161 1.258 . S
C169 O162 1.266 . S
Co170 O173 1.970 . S
Co170 N187 1.989 . S
Co170 O195 1.967 . S
Co170 O202 1.920 . S
Co171 O174 1.966 . S
Co171 N180 2.022 . S
Co171 N188 1.993 . S
Co171 O196 1.941 . S
C172 O173 1.258 . S
C172 O174 1.263 1_556 S
O173 Co170 1.970 . S
O173 C172 1.258 . S
O174 Co171 1.966 . S
O174 C172 1.263 1_554 S
C175 O176 1.235 . S
C175 O202 1.289 . S
O176 C175 1.235 . S
C177 C179 1.400 . S
C177 N180 1.351 . S
C177 C182 1.501 . S
C178 C179 1.387 . S
C178 N181 1.341 . S
C179 C177 1.400 . S
C179 C178 1.387 . S
N180 Co171 2.022 . S
N180 C177 1.351 . S
N180 N181 1.365 . S
N181 C178 1.341 . S
N181 N180 1.365 . S
N181 H201 0.862 . S
C182 C177 1.501 . S
C182 H183 0.961 . S
C182 H184 0.961 . S
C182 H185 0.960 . S
H183 C182 0.961 . S
H184 C182 0.961 . S
H185 C182 0.960 . S
C186 N187 1.342 . S
C186 C190 1.401 1_556 S
C186 C191 1.499 . S
N187 Co170 1.989 . S
N187 C186 1.342 . S
N187 N188 1.388 1_556 S
N188 Co171 1.993 . S
N188 N187 1.388 1_554 S
N188 C189 1.346 . S
C189 N188 1.346 . S
C189 C190 1.396 . S
C189 C199 1.510 . S
C190 C186 1.401 1_554 S
C190 C189 1.396 . S
C191 C186 1.499 . S
C191 H192 0.959 . S
C191 H193 0.960 . S
C191 H194 0.961 . S
H192 C191 0.959 . S
H193 C191 0.960 . S
H194 C191 0.961 . S
O195 Co170 1.967 . S
O195 C203 1.258 . S
O196 Co171 1.941 . S
O196 C203 1.266 1_554 S
H197 C199 0.959 . S
H198 C199 0.961 . S
C199 C189 1.510 . S
C199 H197 0.959 . S
C199 H198 0.961 . S
C199 H200 0.960 . S
H200 C199 0.960 . S
H201 N181 0.862 . S
O202 Co170 1.920 . S
O202 C175 1.289 . S
C203 O195 1.258 . S
C203 O196 1.266 1_556 S
Co204 O207 1.970 . S
Co204 N221 1.989 . S
Co204 O229 1.967 . S
Co204 O236 1.920 . S
Co205 O208 1.966 . S
Co205 N214 2.022 . S
Co205 N222 1.993 . S
Co205 O230 1.941 . S
C206 O207 1.258 . S
C206 O208 1.263 . S
O207 Co204 1.970 . S
O207 C206 1.258 . S
O208 Co205 1.966 . S
O208 C206 1.263 . S
C209 O210 1.235 . S
C209 O236 1.289 . S
O210 C209 1.235 . S
C211 C213 1.400 . S
C211 N214 1.351 . S
C211 C216 1.501 . S
C212 C213 1.387 . S
C212 N215 1.341 . S
C213 C211 1.400 . S
C213 C212 1.387 . S
N214 Co205 2.022 . S
N214 C211 1.351 . S
N214 N215 1.365 . S
N215 C212 1.341 . S
N215 N214 1.365 . S
N215 H235 0.862 . S
C216 C211 1.501 . S
C216 H217 0.961 . S
C216 H218 0.961 . S
C216 H219 0.960 . S
H217 C216 0.961 . S
H218 C216 0.961 . S
H219 C216 0.960 . S
C220 N221 1.342 . S
C220 C224 1.401 . S
C220 C225 1.499 . S
N221 Co204 1.989 . S
N221 C220 1.342 . S
N221 N222 1.388 . S
N222 Co205 1.993 . S
N222 N221 1.388 . S
N222 C223 1.346 . S
C223 N222 1.346 . S
C223 C224 1.396 . S
C223 C233 1.510 . S
C224 C220 1.401 . S
C224 C223 1.396 . S
C225 C220 1.499 . S
C225 H226 0.959 . S
C225 H227 0.960 . S
C225 H228 0.961 . S
H226 C225 0.959 . S
H227 C225 0.960 . S
H228 C225 0.961 . S
O229 Co204 1.967 . S
O229 C237 1.258 . S
O230 Co205 1.941 . S
O230 C237 1.266 . S
H231 C233 0.959 . S
H232 C233 0.961 . S
C233 C223 1.510 . S
C233 H231 0.959 . S
C233 H232 0.961 . S
C233 H234 0.960 . S
H234 C233 0.960 . S
H235 N215 0.862 . S
O236 Co204 1.920 . S
O236 C209 1.289 . S
C237 O229 1.258 . S
C237 O230 1.266 . S
Co238 O241 1.970 . S
Co238 N255 1.989 . S
Co238 O263 1.967 . S
Co238 O270 1.920 1_556 S
Co239 O242 1.966 . S
Co239 N248 2.022 . S
Co239 N256 1.993 . S
Co239 O264 1.941 . S
C240 O241 1.258 . S
C240 O242 1.263 . S
O241 Co238 1.970 . S
O241 C240 1.258 . S
O242 Co239 1.966 . S
O242 C240 1.263 . S
C243 O244 1.235 . S
C243 O270 1.289 . S
O244 C243 1.235 . S
C245 C247 1.400 . S
C245 N248 1.351 . S
C245 C250 1.501 . S
C246 C247 1.387 . S
C246 N249 1.341 . S
C247 C245 1.400 . S
C247 C246 1.387 . S
N248 Co239 2.022 . S
N248 C245 1.351 . S
N248 N249 1.365 . S
N249 C246 1.341 . S
N249 N248 1.365 . S
N249 H269 0.862 . S
C250 C245 1.501 . S
C250 H251 0.961 . S
C250 H252 0.961 . S
C250 H253 0.960 . S
H251 C250 0.961 . S
H252 C250 0.961 . S
H253 C250 0.960 . S
C254 N255 1.342 . S
C254 C258 1.401 . S
C254 C259 1.499 1_556 S
N255 Co238 1.989 . S
N255 C254 1.342 . S
N255 N256 1.388 . S
N256 Co239 1.993 . S
N256 N255 1.388 . S
N256 C257 1.346 . S
C257 N256 1.346 . S
C257 C258 1.396 . S
C257 C267 1.510 . S
C258 C254 1.401 . S
C258 C257 1.396 . S
C259 C254 1.499 1_554 S
C259 H260 0.959 . S
C259 H261 0.960 . S
C259 H262 0.961 . S
H260 C259 0.959 . S
H261 C259 0.960 . S
H262 C259 0.961 . S
O263 Co238 1.967 . S
O263 C271 1.258 . S
O264 Co239 1.941 . S
O264 C271 1.266 . S
H265 C267 0.959 . S
H266 C267 0.961 . S
C267 C257 1.510 . S
C267 H265 0.959 . S
C267 H266 0.961 . S
C267 H268 0.960 . S
H268 C267 0.960 . S
H269 N249 0.862 . S
O270 Co238 1.920 1_554 S
O270 C243 1.289 . S
C271 O263 1.258 . S
C271 O264 1.266 . S
Co272 O275 1.970 . S
Co272 N289 1.989 . S
Co272 O297 1.967 . S
Co272 O304 1.920 . S
Co273 O276 1.966 . S
Co273 N282 2.022 . S
Co273 N290 1.993 1_556 S
Co273 O298 1.941 1_556 S
C274 O275 1.258 . S
C274 O276 1.263 1_554 S
O275 Co272 1.970 . S
O275 C274 1.258 . S
O276 Co273 1.966 . S
O276 C274 1.263 1_556 S
C277 O278 1.235 . S
C277 O304 1.289 . S
O278 C277 1.235 . S
C279 C281 1.400 . S
C279 N282 1.351 . S
C279 C284 1.501 . S
C280 C281 1.387 . S
C280 N283 1.341 . S
C281 C279 1.400 . S
C281 C280 1.387 . S
N282 Co273 2.022 . S
N282 C279 1.351 . S
N282 N283 1.365 . S
N283 C280 1.341 . S
N283 N282 1.365 . S
N283 H303 0.862 . S
C284 C279 1.501 . S
C284 H285 0.961 . S
C284 H286 0.961 . S
C284 H287 0.960 . S
H285 C284 0.961 . S
H286 C284 0.961 . S
H287 C284 0.960 . S
C288 N289 1.342 . S
C288 C292 1.401 . S
C288 C293 1.499 . S
N289 Co272 1.989 . S
N289 C288 1.342 . S
N289 N290 1.388 . S
N290 Co273 1.993 1_554 S
N290 N289 1.388 . S
N290 C291 1.346 1_554 S
C291 N290 1.346 1_556 S
C291 C292 1.396 1_556 S
C291 C301 1.510 . S
C292 C288 1.401 . S
C292 C291 1.396 1_554 S
C293 C288 1.499 . S
C293 H294 0.959 . S
C293 H295 0.960 . S
C293 H296 0.961 . S
H294 C293 0.959 . S
H295 C293 0.960 . S
H296 C293 0.961 . S
O297 Co272 1.967 . S
O297 C305 1.258 . S
O298 Co273 1.941 1_554 S
O298 C305 1.266 . S
H299 C301 0.959 . S
H300 C301 0.961 . S
C301 C291 1.510 . S
C301 H299 0.959 . S
C301 H300 0.961 . S
C301 H302 0.960 . S
H302 C301 0.960 . S
H303 N283 0.862 . S
O304 Co272 1.920 . S
O304 C277 1.289 . S
C305 O297 1.258 . S
C305 O298 1.266 . S
Co306 O309 1.970 . S
Co306 N323 1.989 . S
Co306 O331 1.967 . S
Co306 O338 1.920 . S
Co307 O310 1.966 . S
Co307 N316 2.022 . S
Co307 N324 1.993 . S
Co307 O332 1.941 . S
C308 O309 1.258 . S
C308 O310 1.263 . S
O309 Co306 1.970 . S
O309 C308 1.258 . S
O310 Co307 1.966 . S
O310 C308 1.263 . S
C311 O312 1.235 . S
C311 O338 1.289 . S
O312 C311 1.235 . S
C313 C315 1.400 . S
C313 N316 1.351 1_556 S
C313 C318 1.501 . S
C314 C315 1.387 . S
C314 N317 1.346 . S
C315 C313 1.400 . S
C315 C314 1.387 . S
N316 Co307 2.022 . S
N316 C313 1.351 1_554 S
N316 N317 1.363 1_554 S
N317 C314 1.346 . S
N317 N316 1.363 1_556 S
N317 H337 0.859 1_556 S
C318 C313 1.501 . S
C318 H319 0.961 1_556 S
C318 H320 0.961 . S
C318 H321 0.960 . S
H319 C318 0.961 1_554 S
H320 C318 0.961 . S
H321 C318 0.960 . S
C322 N323 1.342 . S
C322 C326 1.401 . S
C322 C327 1.499 . S
N323 Co306 1.989 . S
N323 C322 1.342 . S
N323 N324 1.388 . S
N324 Co307 1.993 . S
N324 N323 1.388 . S
N324 C325 1.346 . S
C325 N324 1.346 . S
C325 C326 1.396 . S
C325 C335 1.510 . S
C326 C322 1.401 . S
C326 C325 1.396 . S
C327 C322 1.499 . S
C327 H328 0.959 . S
C327 H329 0.960 . S
C327 H330 0.961 . S
H328 C327 0.959 . S
H329 C327 0.960 . S
H330 C327 0.961 . S
O331 Co306 1.967 . S
O331 C339 1.258 . S
O332 Co307 1.941 . S
O332 C339 1.266 . S
H333 C335 0.959 . S
H334 C335 0.961 . S
C335 C325 1.510 . S
C335 H333 0.959 . S
C335 H334 0.961 . S
C335 H336 0.960 . S
H336 C335 0.960 . S
H337 N317 0.859 1_554 S
O338 Co306 1.920 . S
O338 C311 1.289 . S
C339 O331 1.258 . S
C339 O332 1.266 . S
Co340 O343 1.970 . S
Co340 N357 1.989 . S
Co340 O365 1.967 . S
Co340 O372 1.920 . S
Co341 O344 1.966 . S
Co341 N350 2.022 . S
Co341 N358 1.993 . S
Co341 O366 1.941 . S
C342 O343 1.258 . S
C342 O344 1.263 . S
O343 Co340 1.970 . S
O343 C342 1.258 . S
O344 Co341 1.966 . S
O344 C342 1.263 . S
C345 O346 1.235 . S
C345 O372 1.289 . S
O346 C345 1.235 . S
C347 C349 1.400 . S
C347 N350 1.351 . S
C347 C352 1.501 . S
C348 C349 1.387 . S
C348 N351 1.341 . S
C349 C347 1.400 . S
C349 C348 1.387 . S
N350 Co341 2.022 . S
N350 C347 1.351 . S
N350 N351 1.365 . S
N351 C348 1.341 . S
N351 N350 1.365 . S
N351 H371 0.862 . S
C352 C347 1.501 . S
C352 H353 0.961 . S
C352 H354 0.961 . S
C352 H355 0.960 . S
H353 C352 0.961 . S
H354 C352 0.961 . S
H355 C352 0.960 . S
C356 N357 1.342 . S
C356 C360 1.401 . S
C356 C361 1.499 . S
N357 Co340 1.989 . S
N357 C356 1.342 . S
N357 N358 1.388 . S
N358 Co341 1.993 . S
N358 N357 1.388 . S
N358 C359 1.346 . S
C359 N358 1.346 . S
C359 C360 1.396 . S
C359 C369 1.510 . S
C360 C356 1.401 . S
C360 C359 1.396 . S
C361 C356 1.499 . S
C361 H362 0.959 . S
C361 H363 0.960 . S
C361 H364 0.961 . S
H362 C361 0.959 . S
H363 C361 0.960 . S
H364 C361 0.961 . S
O365 Co340 1.967 . S
O365 C373 1.258 . S
O366 Co341 1.941 . S
O366 C373 1.266 . S
H367 C369 0.959 . S
H368 C369 0.961 . S
C369 C359 1.510 . S
C369 H367 0.959 . S
C369 H368 0.961 . S
C369 H370 0.960 . S
H370 C369 0.960 . S
H371 N351 0.862 . S
O372 Co340 1.920 . S
O372 C345 1.289 . S
C373 O365 1.258 . S
C373 O366 1.266 . S
Co374 O377 1.970 . S
Co374 N391 1.989 . S
Co374 O399 1.967 . S
Co374 O406 1.920 . S
Co375 O378 1.966 . S
Co375 N384 2.022 . S
Co375 N392 1.993 . S
Co375 O400 1.941 . S
C376 O377 1.258 . S
C376 O378 1.263 . S
O377 Co374 1.970 . S
O377 C376 1.258 . S
O378 Co375 1.966 . S
O378 C376 1.263 . S
C379 O380 1.235 . S
C379 O406 1.289 . S
O380 C379 1.235 . S
C381 C383 1.400 . S
C381 N384 1.351 . S
C381 C386 1.501 . S
C382 C383 1.387 . S
C382 N385 1.341 . S
C383 C381 1.400 . S
C383 C382 1.387 . S
N384 Co375 2.022 . S
N384 C381 1.351 . S
N384 N385 1.365 . S
N385 C382 1.341 . S
N385 N384 1.365 . S
N385 H405 0.862 . S
C386 C381 1.501 . S
C386 H387 0.961 . S
C386 H388 0.961 . S
C386 H389 0.960 . S
H387 C386 0.961 . S
H388 C386 0.961 . S
H389 C386 0.960 . S
C390 N391 1.342 . S
C390 C394 1.401 . S
C390 C395 1.499 . S
N391 Co374 1.989 . S
N391 C390 1.342 . S
N391 N392 1.388 . S
N392 Co375 1.993 . S
N392 N391 1.388 . S
N392 C393 1.346 . S
C393 N392 1.346 . S
C393 C394 1.396 . S
C393 C403 1.510 . S
C394 C390 1.401 . S
C394 C393 1.396 . S
C395 C390 1.499 . S
C395 H396 0.959 . S
C395 H397 0.960 . S
C395 H398 0.961 . S
H396 C395 0.959 . S
H397 C395 0.960 . S
H398 C395 0.961 . S
O399 Co374 1.967 . S
O399 C407 1.258 . S
O400 Co375 1.941 . S
O400 C407 1.266 . S
H401 C403 0.959 . S
H402 C403 0.961 . S
C403 C393 1.510 . S
C403 H401 0.959 . S
C403 H402 0.961 . S
C403 H404 0.960 . S
H404 C403 0.960 . S
H405 N385 0.862 . S
O406 Co374 1.920 . S
O406 C379 1.289 . S
C407 O399 1.258 . S
C407 O400 1.266 . S
H408 C414 0.930 . S
H409 C418 0.930 . S
H410 C423 0.929 . S
H411 C421 0.929 . S
H412 C416 0.929 . S
H413 C422 0.929 . S
C414 H408 0.930 . S
C414 C415 1.367 . S
C414 C422 1.378 . S
C415 C414 1.367 . S
C415 C423 1.433 . S
C416 H412 0.929 . S
C416 C418 1.378 . S
C416 C420 1.350 . S
C417 C420 1.463 . S
C417 C422 1.350 . S
C417 N425 1.427 . S
C418 H409 0.930 . S
C418 C416 1.378 . S
C418 C419 1.367 . S
C419 C418 1.367 . S
C419 C421 1.433 . S
C420 C416 1.350 . S
C420 C417 1.463 . S
C420 N424 1.427 . S
C421 H411 0.929 . S
C421 C419 1.433 . S
C421 N424 1.384 . S
C422 H413 0.929 . S
C422 C414 1.378 . S
C422 C417 1.350 . S
C423 H410 0.929 . S
C423 C415 1.433 . S
C423 N425 1.384 . S
N424 C420 1.427 . S
N424 C421 1.384 . S
N425 C417 1.427 . S
N425 C423 1.384 . S
H426 C432 0.930 1_554 S
H427 C436 0.930 . S
H428 C441 0.929 . S
H429 C439 0.929 . S
H430 C434 0.929 . S
H431 C440 0.929 . S
C432 H426 0.930 1_556 S
C432 C433 1.367 1_556 S
C432 C440 1.378 . S
C433 C432 1.367 1_554 S
C433 C441 1.433 . S
C434 H430 0.929 . S
C434 C436 1.378 . S
C434 C438 1.350 . S
C435 C438 1.463 . S
C435 C440 1.350 . S
C435 N443 1.427 . S
C436 H427 0.930 . S
C436 C434 1.378 . S
C436 C437 1.367 . S
C437 C436 1.367 . S
C437 C439 1.433 . S
C438 C434 1.350 . S
C438 C435 1.463 . S
C438 N442 1.427 . S
C439 H429 0.929 . S
C439 C437 1.433 . S
C439 N442 1.384 . S
C440 H431 0.929 . S
C440 C432 1.378 . S
C440 C435 1.350 . S
C441 H428 0.929 . S
C441 C433 1.433 . S
C441 N443 1.384 1_554 S
N442 C438 1.427 . S
N442 C439 1.384 . S
N443 C435 1.427 . S
N443 C441 1.384 1_556 S
H444 C450 0.930 . S
H445 C454 0.930 . S
H446 C459 0.929 . S
H447 C457 0.929 . S
H448 C452 0.929 . S
H449 C458 0.929 . S
C450 H444 0.930 . S
C450 C451 1.367 . S
C450 C458 1.378 . S
C451 C450 1.367 . S
C451 C459 1.433 . S
C452 H448 0.929 . S
C452 C454 1.378 . S
C452 C456 1.350 . S
C453 C456 1.463 1_554 S
C453 C458 1.350 . S
C453 N461 1.427 . S
C454 H445 0.930 . S
C454 C452 1.378 . S
C454 C455 1.367 . S
C455 C454 1.367 . S
C455 C457 1.433 . S
C456 C452 1.350 . S
C456 C453 1.463 1_556 S
C456 N460 1.427 . S
C457 H447 0.929 . S
C457 C455 1.433 . S
C457 N460 1.384 . S
C458 H449 0.929 . S
C458 C450 1.378 . S
C458 C453 1.350 . S
C459 H446 0.929 . S
C459 C451 1.433 . S
C459 N461 1.384 . S
N460 C456 1.427 . S
N460 C457 1.384 . S
N461 C453 1.427 . S
N461 C459 1.384 . S
H462 C468 0.930 . S
H463 C472 0.930 . S
H464 C477 0.929 . S
H465 C475 0.929 . S
H466 C470 0.929 . S
H467 C476 0.929 . S
C468 H462 0.930 . S
C468 C469 1.367 . S
C468 C476 1.378 . S
C469 C468 1.367 . S
C469 C477 1.433 . S
C470 H466 0.929 . S
C470 C472 1.378 . S
C470 C474 1.350 . S
C471 C474 1.463 . S
C471 C476 1.350 . S
C471 N479 1.427 . S
C472 H463 0.930 . S
C472 C470 1.378 . S
C472 C473 1.367 . S
C473 C472 1.367 . S
C473 C475 1.433 . S
C474 C470 1.350 . S
C474 C471 1.463 . S
C474 N478 1.427 . S
C475 H465 0.929 . S
C475 C473 1.433 . S
C475 N478 1.384 . S
C476 H467 0.929 . S
C476 C468 1.378 . S
C476 C471 1.350 . S
C477 H464 0.929 . S
C477 C469 1.433 . S
C477 N479 1.384 . S
N478 C474 1.427 . S
N478 C475 1.384 . S
N479 C471 1.427 . S
N479 C477 1.384 . S
H480 C486 0.930 . S
H481 C490 0.930 . S
H482 C495 0.929 . S
H483 C493 0.929 . S
H484 C488 0.929 . S
H485 C494 0.929 . S
C486 H480 0.930 . S
C486 C487 1.367 . S
C486 C494 1.378 . S
C487 C486 1.367 . S
C487 C495 1.433 . S
C488 H484 0.929 . S
C488 C490 1.378 . S
C488 C492 1.350 . S
C489 C492 1.463 . S
C489 C494 1.350 . S
C489 N497 1.427 . S
C490 H481 0.930 . S
C490 C488 1.378 . S
C490 C491 1.367 . S
C491 C490 1.367 . S
C491 C493 1.433 . S
C492 C488 1.350 . S
C492 C489 1.463 . S
C492 N496 1.427 . S
C493 H483 0.929 . S
C493 C491 1.433 . S
C493 N496 1.384 . S
C494 H485 0.929 . S
C494 C486 1.378 . S
C494 C489 1.350 . S
C495 H482 0.929 . S
C495 C487 1.433 . S
C495 N497 1.384 . S
N496 C492 1.427 . S
N496 C493 1.384 . S
N497 C489 1.427 . S
N497 C495 1.384 . S
H498 C504 0.930 . S
H499 C508 0.930 . S
H500 C513 0.929 . S
H501 C511 0.929 . S
H502 C506 0.929 . S
H503 C512 0.929 . S
C504 H498 0.930 . S
C504 C505 1.367 . S
C504 C512 1.378 . S
C505 C504 1.367 . S
C505 C513 1.433 . S
C506 H502 0.929 . S
C506 C508 1.378 . S
C506 C510 1.350 . S
C507 C510 1.463 . S
C507 C512 1.350 . S
C507 N515 1.427 . S
C508 H499 0.930 . S
C508 C506 1.378 . S
C508 C509 1.367 . S
C509 C508 1.367 . S
C509 C511 1.433 . S
C510 C506 1.350 . S
C510 C507 1.463 . S
C510 N514 1.427 . S
C511 H501 0.929 . S
C511 C509 1.433 . S
C511 N514 1.384 . S
C512 H503 0.929 . S
C512 C504 1.378 . S
C512 C507 1.350 . S
C513 H500 0.929 . S
C513 C505 1.433 . S
C513 N515 1.384 . S
N514 C510 1.427 . S
N514 C511 1.384 . S
N515 C507 1.427 . S
N515 C513 1.384 . S
H516 C522 0.930 . S
H517 C526 0.930 1_556 S
H518 C531 0.929 . S
H519 C529 0.929 . S
H520 C524 0.929 . S
H521 C530 0.929 . S
C522 H516 0.930 . S
C522 C523 1.367 . S
C522 C530 1.378 . S
C523 C522 1.367 . S
C523 C531 1.433 . S
C524 H520 0.929 . S
C524 C526 1.378 . S
C524 C528 1.350 . S
C525 C528 1.463 . S
C525 C530 1.350 . S
C525 N533 1.427 . S
C526 H517 0.930 1_554 S
C526 C524 1.378 . S
C526 C527 1.367 1_554 S
C527 C526 1.367 1_556 S
C527 C529 1.433 1_556 S
C528 C524 1.350 . S
C528 C525 1.463 . S
C528 N532 1.427 . S
C529 H519 0.929 . S
C529 C527 1.433 1_554 S
C529 N532 1.384 . S
C530 H521 0.929 . S
C530 C522 1.378 . S
C530 C525 1.350 . S
C531 H518 0.929 . S
C531 C523 1.433 . S
C531 N533 1.384 . S
N532 C528 1.427 . S
N532 C529 1.384 . S
N533 C525 1.427 . S
N533 C531 1.384 . S
H534 C540 0.930 . S
H535 C544 0.930 . S
H536 C549 0.929 . S
H537 C547 0.929 . S
H538 C542 0.929 . S
H539 C548 0.929 . S
C540 H534 0.930 . S
C540 C541 1.367 . S
C540 C548 1.378 . S
C541 C540 1.367 . S
C541 C549 1.433 . S
C542 H538 0.929 . S
C542 C544 1.378 . S
C542 C546 1.350 . S
C543 C546 1.463 . S
C543 C548 1.350 . S
C543 N551 1.427 . S
C544 H535 0.930 . S
C544 C542 1.378 . S
C544 C545 1.367 . S
C545 C544 1.367 . S
C545 C547 1.433 . S
C546 C542 1.350 . S
C546 C543 1.463 . S
C546 N550 1.427 . S
C547 H537 0.929 . S
C547 C545 1.433 . S
C547 N550 1.384 . S
C548 H539 0.929 . S
C548 C540 1.378 . S
C548 C543 1.350 . S
C549 H536 0.929 . S
C549 C541 1.433 . S
C549 N551 1.384 . S
N550 C546 1.427 . S
N550 C547 1.384 . S
N551 C543 1.427 . S
N551 C549 1.384 . S
H552 C558 0.930 . S
H553 C562 0.930 . S
H554 C567 0.929 . S
H555 C565 0.929 . S
H556 C560 0.929 . S
H557 C566 0.929 . S
C558 H552 0.930 . S
C558 C559 1.367 . S
C558 C566 1.378 . S
C559 C558 1.367 . S
C559 C567 1.433 . S
C560 H556 0.929 . S
C560 C562 1.378 . S
C560 C564 1.350 . S
C561 C564 1.463 . S
C561 C566 1.350 . S
C561 N569 1.427 . S
C562 H553 0.930 . S
C562 C560 1.378 . S
C562 C563 1.367 . S
C563 C562 1.367 . S
C563 C565 1.433 . S
C564 C560 1.350 . S
C564 C561 1.463 . S
C564 N568 1.427 . S
C565 H555 0.929 . S
C565 C563 1.433 . S
C565 N568 1.384 . S
C566 H557 0.929 . S
C566 C558 1.378 . S
C566 C561 1.350 . S
C567 H554 0.929 . S
C567 C559 1.433 . S
C567 N569 1.384 . S
N568 C564 1.427 . S
N568 C565 1.384 . S
N569 C561 1.427 . S
N569 C567 1.384 . S
H570 C576 0.930 . S
H571 C580 0.930 . S
H572 C585 0.929 . S
H573 C583 0.929 . S
H574 C578 0.929 . S
H575 C584 0.929 . S
C576 H570 0.930 . S
C576 C577 1.367 . S
C576 C584 1.378 . S
C577 C576 1.367 . S
C577 C585 1.433 . S
C578 H574 0.929 . S
C578 C580 1.378 . S
C578 C582 1.350 . S
C579 C582 1.463 . S
C579 C584 1.350 . S
C579 N587 1.427 . S
C580 H571 0.930 . S
C580 C578 1.378 . S
C580 C581 1.367 . S
C581 C580 1.367 . S
C581 C583 1.433 . S
C582 C578 1.350 . S
C582 C579 1.463 . S
C582 N586 1.427 . S
C583 H573 0.929 . S
C583 C581 1.433 . S
C583 N586 1.384 . S
C584 H575 0.929 . S
C584 C576 1.378 . S
C584 C579 1.350 . S
C585 H572 0.929 . S
C585 C577 1.433 . S
C585 N587 1.384 . S
N586 C582 1.427 . S
N586 C583 1.384 . S
N587 C579 1.427 . S
N587 C585 1.384 . S
H588 C594 0.930 . S
H589 C598 0.930 . S
H590 C603 0.929 . S
H591 C601 0.929 . S
H592 C596 0.929 . S
H593 C602 0.929 . S
C594 H588 0.930 . S
C594 C595 1.367 1_556 S
C594 C602 1.378 . S
C595 C594 1.367 1_554 S
C595 C603 1.433 . S
C596 H592 0.929 . S
C596 C598 1.378 . S
C596 C600 1.350 . S
C597 C600 1.463 . S
C597 C602 1.350 . S
C597 N605 1.427 . S
C598 H589 0.930 . S
C598 C596 1.378 . S
C598 C599 1.367 . S
C599 C598 1.367 . S
C599 C601 1.433 . S
C600 C596 1.350 . S
C600 C597 1.463 . S
C600 N604 1.427 . S
C601 H591 0.929 . S
C601 C599 1.433 . S
C601 N604 1.384 . S
C602 H593 0.929 . S
C602 C594 1.378 . S
C602 C597 1.350 . S
C603 H590 0.929 . S
C603 C595 1.433 . S
C603 N605 1.384 1_554 S
N604 C600 1.427 . S
N604 C601 1.384 . S
N605 C597 1.427 . S
N605 C603 1.384 1_556 S
H606 C612 0.930 . S
H607 C616 0.930 . S
H608 C621 0.929 . S
H609 C619 0.929 . S
H610 C614 0.929 . S
H611 C620 0.929 . S
C612 H606 0.930 . S
C612 C613 1.367 . S
C612 C620 1.378 . S
C613 C612 1.367 . S
C613 C621 1.433 . S
C614 H610 0.929 . S
C614 C616 1.378 . S
C614 C618 1.350 . S
C615 C618 1.463 1_556 S
C615 C620 1.350 . S
C615 N623 1.427 . S
C616 H607 0.930 . S
C616 C614 1.378 . S
C616 C617 1.367 . S
C617 C616 1.367 . S
C617 C619 1.433 . S
C618 C614 1.350 . S
C618 C615 1.463 1_554 S
C618 N622 1.427 . S
C619 H609 0.929 . S
C619 C617 1.433 . S
C619 N622 1.384 . S
C620 H611 0.929 . S
C620 C612 1.378 . S
C620 C615 1.350 . S
C621 H608 0.929 . S
C621 C613 1.433 . S
C621 N623 1.384 . S
N622 C618 1.427 . S
N622 C619 1.384 . S
N623 C615 1.427 . S
N623 C621 1.384 . S
H624 C630 0.930 . S
H625 C634 0.930 . S
H626 C639 0.929 . S
H627 C637 0.929 . S
H628 C632 0.929 . S
H629 C638 0.929 . S
C630 H624 0.930 . S
C630 C631 1.367 . S
C630 C638 1.378 . S
C631 C630 1.367 . S
C631 C639 1.433 . S
C632 H628 0.929 . S
C632 C634 1.378 . S
C632 C636 1.350 1_554 S
C633 C636 1.463 . S
C633 C638 1.350 . S
C633 N641 1.427 . S
C634 H625 0.930 . S
C634 C632 1.378 . S
C634 C635 1.367 . S
C635 C634 1.367 . S
C635 C637 1.433 1_554 S
C636 C632 1.350 1_556 S
C636 C633 1.463 . S
C636 N640 1.427 . S
C637 H627 0.929 . S
C637 C635 1.433 1_556 S
C637 N640 1.384 . S
C638 H629 0.929 . S
C638 C630 1.378 . S
C638 C633 1.350 . S
C639 H626 0.929 . S
C639 C631 1.433 . S
C639 N641 1.384 . S
N640 C636 1.427 . S
N640 C637 1.384 . S
N641 C633 1.427 . S
N641 C639 1.384 . S
H642 C648 0.930 . S
H643 C652 0.930 . S
H644 C657 0.929 . S
H645 C655 0.929 . S
H646 C650 0.929 . S
H647 C656 0.929 . S
C648 H642 0.930 . S
C648 C649 1.367 . S
C648 C656 1.378 . S
C649 C648 1.367 . S
C649 C657 1.433 . S
C650 H646 0.929 . S
C650 C652 1.378 . S
C650 C654 1.350 . S
C651 C654 1.463 . S
C651 C656 1.350 . S
C651 N659 1.427 . S
C652 H643 0.930 . S
C652 C650 1.378 . S
C652 C653 1.367 1_554 S
C653 C652 1.367 1_556 S
C653 C655 1.433 . S
C654 C650 1.350 . S
C654 C651 1.463 . S
C654 N658 1.427 . S
C655 H645 0.929 . S
C655 C653 1.433 . S
C655 N658 1.384 1_556 S
C656 H647 0.929 . S
C656 C648 1.378 . S
C656 C651 1.350 . S
C657 H644 0.929 . S
C657 C649 1.433 . S
C657 N659 1.384 . S
N658 C654 1.427 . S
N658 C655 1.384 1_554 S
N659 C651 1.427 . S
N659 C657 1.384 . S
H660 C666 0.930 . S
H661 C670 0.930 . S
H662 C675 0.929 . S
H663 C673 0.929 . S
H664 C668 0.929 . S
H665 C674 0.929 . S
C666 H660 0.930 . S
C666 C667 1.367 . S
C666 C674 1.378 . S
C667 C666 1.367 . S
C667 C675 1.433 . S
C668 H664 0.929 . S
C668 C670 1.378 . S
C668 C672 1.350 . S
C669 C672 1.463 . S
C669 C674 1.350 . S
C669 N677 1.427 . S
C670 H661 0.930 . S
C670 C668 1.378 . S
C670 C671 1.367 . S
C671 C670 1.367 . S
C671 C673 1.433 . S
C672 C668 1.350 . S
C672 C669 1.463 . S
C672 N676 1.427 . S
C673 H663 0.929 . S
C673 C671 1.433 . S
C673 N676 1.384 . S
C674 H665 0.929 . S
C674 C666 1.378 . S
C674 C669 1.350 . S
C675 H662 0.929 . S
C675 C667 1.433 . S
C675 N677 1.384 . S
N676 C672 1.427 . S
N676 C673 1.384 . S
N677 C669 1.427 . S
N677 C675 1.384 . S
H678 C684 0.930 . S
H679 C688 0.930 . S
H680 C693 0.929 . S
H681 C691 0.929 . S
H682 C686 0.929 . S
H683 C692 0.929 . S
C684 H678 0.930 . S
C684 C685 1.367 . S
C684 C692 1.378 . S
C685 C684 1.367 . S
C685 C693 1.433 . S
C686 H682 0.929 . S
C686 C688 1.378 . S
C686 C690 1.350 . S
C687 C690 1.463 . S
C687 C692 1.350 . S
C687 N695 1.427 . S
C688 H679 0.930 . S
C688 C686 1.378 . S
C688 C689 1.367 . S
C689 C688 1.367 . S
C689 C691 1.433 . S
C690 C686 1.350 . S
C690 C687 1.463 . S
C690 N694 1.427 . S
C691 H681 0.929 . S
C691 C689 1.433 . S
C691 N694 1.384 . S
C692 H683 0.929 . S
C692 C684 1.378 . S
C692 C687 1.350 . S
C693 H680 0.929 . S
C693 C685 1.433 . S
C693 N695 1.384 . S
N694 C690 1.427 . S
N694 C691 1.384 . S
N695 C687 1.427 . S
N695 C693 1.384 . S
H696 C702 0.930 . S
H697 C706 0.930 . S
H698 C711 0.929 . S
H699 C709 0.929 . S
H700 C704 0.929 . S
H701 C710 0.929 . S
C702 H696 0.930 . S
C702 C703 1.367 . S
C702 C710 1.378 . S
C703 C702 1.367 . S
C703 C711 1.433 . S
C704 H700 0.929 . S
C704 C706 1.378 . S
C704 C708 1.350 . S
C705 C708 1.463 . S
C705 C710 1.350 . S
C705 N713 1.427 . S
C706 H697 0.930 . S
C706 C704 1.378 . S
C706 C707 1.367 . S
C707 C706 1.367 . S
C707 C709 1.433 . S
C708 C704 1.350 . S
C708 C705 1.463 . S
C708 N712 1.427 . S
C709 H699 0.929 . S
C709 C707 1.433 . S
C709 N712 1.384 . S
C710 H701 0.929 . S
C710 C702 1.378 . S
C710 C705 1.350 . S
C711 H698 0.929 . S
C711 C703 1.433 . S
C711 N713 1.384 . S
N712 C708 1.427 . S
N712 C709 1.384 . S
N713 C705 1.427 . S
N713 C711 1.384 . S
H714 C720 0.930 . S
H715 C724 0.930 . S
H716 C729 0.929 . S
H717 C727 0.929 . S
H718 C722 0.929 . S
H719 C728 0.929 . S
C720 H714 0.930 . S
C720 C721 1.367 . S
C720 C728 1.378 . S
C721 C720 1.367 . S
C721 C729 1.433 . S
C722 H718 0.929 . S
C722 C724 1.378 . S
C722 C726 1.350 . S
C723 C726 1.463 . S
C723 C728 1.350 . S
C723 N731 1.427 . S
C724 H715 0.930 . S
C724 C722 1.378 . S
C724 C725 1.367 . S
C725 C724 1.367 . S
C725 C727 1.433 . S
C726 C722 1.350 . S
C726 C723 1.463 . S
C726 N730 1.427 . S
C727 H717 0.929 . S
C727 C725 1.433 . S
C727 N730 1.384 . S
C728 H719 0.929 . S
C728 C720 1.378 . S
C728 C723 1.350 . S
C729 H716 0.929 . S
C729 C721 1.433 . S
C729 N731 1.384 . S
N730 C726 1.427 . S
N730 C727 1.384 . S
N731 C723 1.427 . S
N731 C729 1.384 . S
H732 C738 0.930 . S
H733 C742 0.930 . S
H734 C747 0.929 . S
H735 C745 0.929 . S
H736 C740 0.929 . S
H737 C746 0.929 . S
C738 H732 0.930 . S
C738 C739 1.367 . S
C738 C746 1.378 . S
C739 C738 1.367 . S
C739 C747 1.433 . S
C740 H736 0.929 . S
C740 C742 1.378 . S
C740 C744 1.350 . S
C741 C744 1.463 . S
C741 C746 1.350 . S
C741 N749 1.427 . S
C742 H733 0.930 . S
C742 C740 1.378 . S
C742 C743 1.367 . S
C743 C742 1.367 . S
C743 C745 1.433 . S
C744 C740 1.350 . S
C744 C741 1.463 . S
C744 N748 1.427 . S
C745 H735 0.929 . S
C745 C743 1.433 . S
C745 N748 1.384 . S
C746 H737 0.929 . S
C746 C738 1.378 . S
C746 C741 1.350 . S
C747 H734 0.929 . S
C747 C739 1.433 . S
C747 N749 1.384 . S
N748 C744 1.427 . S
N748 C745 1.384 . S
N749 C741 1.427 . S
N749 C747 1.384 . S
H750 C756 0.930 . S
H751 C760 0.930 . S
H752 C765 0.929 . S
H753 C763 0.929 . S
H754 C758 0.929 . S
H755 C764 0.929 . S
C756 H750 0.930 . S
C756 C757 1.367 . S
C756 C764 1.378 . S
C757 C756 1.367 . S
C757 C765 1.433 . S
C758 H754 0.929 . S
C758 C760 1.378 . S
C758 C762 1.350 . S
C759 C762 1.463 . S
C759 C764 1.350 . S
C759 N767 1.427 . S
C760 H751 0.930 . S
C760 C758 1.378 . S
C760 C761 1.367 . S
C761 C760 1.367 . S
C761 C763 1.433 . S
C762 C758 1.350 . S
C762 C759 1.463 . S
C762 N766 1.427 . S
C763 H753 0.929 . S
C763 C761 1.433 . S
C763 N766 1.384 . S
C764 H755 0.929 . S
C764 C756 1.378 . S
C764 C759 1.350 . S
C765 H752 0.929 . S
C765 C757 1.433 . S
C765 N767 1.384 . S
N766 C762 1.427 . S
N766 C763 1.384 . S
N767 C759 1.427 . S
N767 C765 1.384 . S
H768 C774 0.930 . S
H769 C778 0.930 . S
H770 C783 0.929 . S
H771 C781 0.929 . S
H772 C776 0.929 . S
H773 C782 0.929 . S
C774 H768 0.930 . S
C774 C775 1.367 . S
C774 C782 1.378 . S
C775 C774 1.367 . S
C775 C783 1.433 . S
C776 H772 0.929 . S
C776 C778 1.378 . S
C776 C780 1.350 . S
C777 C780 1.463 . S
C777 C782 1.350 . S
C777 N785 1.427 . S
C778 H769 0.930 . S
C778 C776 1.378 . S
C778 C779 1.367 . S
C779 C778 1.367 . S
C779 C781 1.433 . S
C780 C776 1.350 . S
C780 C777 1.463 . S
C780 N784 1.427 . S
C781 H771 0.929 . S
C781 C779 1.433 . S
C781 N784 1.384 . S
C782 H773 0.929 . S
C782 C774 1.378 . S
C782 C777 1.350 . S
C783 H770 0.929 . S
C783 C775 1.433 . S
C783 N785 1.384 . S
N784 C780 1.427 . S
N784 C781 1.384 . S
N785 C777 1.427 . S
N785 C783 1.384 . S
H786 C792 0.930 . S
H787 C796 0.930 . S
H788 C801 0.929 . S
H789 C799 0.929 . S
H790 C794 0.929 . S
H791 C800 0.929 . S
C792 H786 0.930 . S
C792 C793 1.367 . S
C792 C800 1.378 . S
C793 C792 1.367 . S
C793 C801 1.433 . S
C794 H790 0.929 . S
C794 C796 1.378 . S
C794 C798 1.350 . S
C795 C798 1.463 . S
C795 C800 1.350 . S
C795 N803 1.427 . S
C796 H787 0.930 . S
C796 C794 1.378 . S
C796 C797 1.367 . S
C797 C796 1.367 . S
C797 C799 1.433 . S
C798 C794 1.350 . S
C798 C795 1.463 . S
C798 N802 1.427 . S
C799 H789 0.929 . S
C799 C797 1.433 . S
C799 N802 1.384 . S
C800 H791 0.929 . S
C800 C792 1.378 . S
C800 C795 1.350 . S
C801 H788 0.929 . S
C801 C793 1.433 . S
C801 N803 1.384 . S
N802 C798 1.427 . S
N802 C799 1.384 . S
N803 C795 1.427 . S
N803 C801 1.384 . S
H804 C810 0.930 . S
H805 C814 0.930 . S
H806 C819 0.929 . S
H807 C817 0.929 . S
H808 C812 0.929 . S
H809 C818 0.929 1_554 S
C810 H804 0.930 . S
C810 C811 1.367 . S
C810 C818 1.378 1_554 S
C811 C810 1.367 . S
C811 C819 1.433 1_554 S
C812 H808 0.929 . S
C812 C814 1.378 . S
C812 C816 1.350 . S
C813 C816 1.463 . S
C813 C818 1.350 . S
C813 N821 1.427 . S
C814 H805 0.930 . S
C814 C812 1.378 . S
C814 C815 1.367 . S
C815 C814 1.367 . S
C815 C817 1.433 . S
C816 C812 1.350 . S
C816 C813 1.463 . S
C816 N820 1.427 . S
C817 H807 0.929 . S
C817 C815 1.433 . S
C817 N820 1.384 . S
C818 H809 0.929 1_556 S
C818 C810 1.378 1_556 S
C818 C813 1.350 . S
C819 H806 0.929 . S
C819 C811 1.433 1_556 S
C819 N821 1.384 . S
N820 C816 1.427 . S
N820 C817 1.384 . S
N821 C813 1.427 . S
N821 C819 1.384 . S
H822 C828 0.930 . S
H823 C832 0.930 . S
H824 C837 0.929 . S
H825 C835 0.929 . S
H826 C830 0.929 . S
H827 C836 0.929 . S
C828 H822 0.930 . S
C828 C829 1.367 . S
C828 C836 1.378 . S
C829 C828 1.367 . S
C829 C837 1.433 . S
C830 H826 0.929 . S
C830 C832 1.378 . S
C830 C834 1.350 . S
C831 C834 1.463 . S
C831 C836 1.350 . S
C831 N839 1.427 . S
C832 H823 0.930 . S
C832 C830 1.378 . S
C832 C833 1.367 . S
C833 C832 1.367 . S
C833 C835 1.433 1_554 S
C834 C830 1.350 . S
C834 C831 1.463 . S
C834 N838 1.427 . S
C835 H825 0.929 . S
C835 C833 1.433 1_556 S
C835 N838 1.384 1_556 S
C836 H827 0.929 . S
C836 C828 1.378 . S
C836 C831 1.350 . S
C837 H824 0.929 . S
C837 C829 1.433 . S
C837 N839 1.384 . S
N838 C834 1.427 . S
N838 C835 1.384 1_554 S
N839 C831 1.427 . S
N839 C837 1.384 . S
H840 C846 0.930 . S
H841 C850 0.930 . S
H842 C855 0.929 . S
H843 C853 0.929 . S
H844 C848 0.929 . S
H845 C854 0.929 . S
C846 H840 0.930 . S
C846 C847 1.367 . S
C846 C854 1.378 . S
C847 C846 1.367 . S
C847 C855 1.433 . S
C848 H844 0.929 . S
C848 C850 1.378 . S
C848 C852 1.350 . S
C849 C852 1.463 . S
C849 C854 1.350 . S
C849 N857 1.427 . S
C850 H841 0.930 . S
C850 C848 1.378 . S
C850 C851 1.367 . S
C851 C850 1.367 . S
C851 C853 1.433 . S
C852 C848 1.350 . S
C852 C849 1.463 . S
C852 N856 1.427 . S
C853 H843 0.929 . S
C853 C851 1.433 . S
C853 N856 1.384 . S
C854 H845 0.929 . S
C854 C846 1.378 . S
C854 C849 1.350 . S
C855 H842 0.929 . S
C855 C847 1.433 . S
C855 N857 1.384 . S
N856 C852 1.427 . S
N856 C853 1.384 . S
N857 C849 1.427 . S
N857 C855 1.384 . S
H858 C864 0.930 . S
H859 C868 0.930 . S
H860 C873 0.929 . S
H861 C871 0.929 . S
H862 C866 0.929 . S
H863 C872 0.929 . S
C864 H858 0.930 . S
C864 C865 1.367 . S
C864 C872 1.378 . S
C865 C864 1.367 . S
C865 C873 1.433 . S
C866 H862 0.929 . S
C866 C868 1.378 . S
C866 C870 1.350 . S
C867 C870 1.463 1_655 S
C867 C872 1.350 . S
C867 N875 1.427 . S
C868 H859 0.930 . S
C868 C866 1.378 . S
C868 C869 1.367 . S
C869 C868 1.367 . S
C869 C871 1.433 . S
C870 C866 1.350 . S
C870 C867 1.463 1_455 S
C870 N874 1.427 . S
C871 H861 0.929 . S
C871 C869 1.433 . S
C871 N874 1.384 . S
C872 H863 0.929 . S
C872 C864 1.378 . S
C872 C867 1.350 . S
C873 H860 0.929 . S
C873 C865 1.433 . S
C873 N875 1.384 . S
N874 C870 1.427 . S
N874 C871 1.384 . S
N875 C867 1.427 . S
N875 C873 1.384 . S
H876 C882 0.930 . S
H877 C886 0.930 . S
H878 C891 0.929 . S
H879 C889 0.929 . S
H880 C884 0.929 . S
H881 C890 0.929 . S
C882 H876 0.930 . S
C882 C883 1.367 . S
C882 C890 1.378 . S
C883 C882 1.367 . S
C883 C891 1.433 . S
C884 H880 0.929 . S
C884 C886 1.378 . S
C884 C888 1.350 . S
C885 C888 1.463 1_545 S
C885 C890 1.350 . S
C885 N893 1.427 . S
C886 H877 0.930 . S
C886 C884 1.378 . S
C886 C887 1.367 . S
C887 C886 1.367 . S
C887 C889 1.433 . S
C888 C884 1.350 . S
C888 C885 1.463 1_565 S
C888 N892 1.427 . S
C889 H879 0.929 . S
C889 C887 1.433 . S
C889 N892 1.384 . S
C890 H881 0.929 . S
C890 C882 1.378 . S
C890 C885 1.350 . S
C891 H878 0.929 . S
C891 C883 1.433 . S
C891 N893 1.384 . S
N892 C888 1.427 . S
N892 C889 1.384 . S
N893 C885 1.427 . S
N893 C891 1.384 . S
H894 C900 0.930 . S
H895 C904 0.930 . S
H896 C909 0.929 . S
H897 C907 0.929 . S
H898 C902 0.929 . S
H899 C908 0.929 . S
C900 H894 0.930 . S
C900 C901 1.367 . S
C900 C908 1.378 . S
C901 C900 1.367 . S
C901 C909 1.433 . S
C902 H898 0.929 . S
C902 C904 1.378 . S
C902 C906 1.350 . S
C903 C906 1.463 . S
C903 C908 1.350 . S
C903 N911 1.427 . S
C904 H895 0.930 . S
C904 C902 1.378 . S
C904 C905 1.367 . S
C905 C904 1.367 . S
C905 C907 1.433 . S
C906 C902 1.350 . S
C906 C903 1.463 . S
C906 N910 1.427 . S
C907 H897 0.929 . S
C907 C905 1.433 . S
C907 N910 1.384 . S
C908 H899 0.929 . S
C908 C900 1.378 . S
C908 C903 1.350 . S
C909 H896 0.929 . S
C909 C901 1.433 . S
C909 N911 1.384 . S
N910 C906 1.427 . S
N910 C907 1.384 . S
N911 C903 1.427 . S
N911 C909 1.384 . S
H912 C918 0.930 . S
H913 C922 0.930 . S
H914 C927 0.929 . S
H915 C925 0.929 . S
H916 C920 0.929 . S
H917 C926 0.929 . S
C918 H912 0.930 . S
C918 C919 1.367 . S
C918 C926 1.378 . S
C919 C918 1.367 . S
C919 C927 1.433 . S
C920 H916 0.929 . S
C920 C922 1.378 . S
C920 C924 1.350 . S
C921 C924 1.463 1_455 S
C921 C926 1.350 . S
C921 N929 1.427 . S
C922 H913 0.930 . S
C922 C920 1.378 . S
C922 C923 1.367 . S
C923 C922 1.367 . S
C923 C925 1.433 . S
C924 C920 1.350 . S
C924 C921 1.463 1_655 S
C924 N928 1.427 . S
C925 H915 0.929 . S
C925 C923 1.433 . S
C925 N928 1.384 . S
C926 H917 0.929 . S
C926 C918 1.378 . S
C926 C921 1.350 . S
C927 H914 0.929 . S
C927 C919 1.433 . S
C927 N929 1.384 . S
N928 C924 1.427 . S
N928 C925 1.384 . S
N929 C921 1.427 . S
N929 C927 1.384 . S
H930 C936 0.930 . S
H931 C940 0.930 . S
H932 C945 0.929 . S
H933 C943 0.936 . S
H934 C938 0.929 . S
H935 C944 0.929 . S
C936 H930 0.930 . S
C936 C937 1.367 . S
C936 C944 1.378 . S
C937 C936 1.367 . S
C937 C945 1.433 1_556 S
C938 H934 0.929 . S
C938 C940 1.378 . S
C938 C942 1.350 . S
C939 C942 1.463 1_545 S
C939 C944 1.350 1_554 S
C939 N947 1.427 . S
C940 H931 0.930 . S
C940 C938 1.378 . S
C940 C941 1.367 . S
C941 C940 1.367 . S
C941 C943 1.425 1_554 S
C942 C938 1.350 . S
C942 C939 1.463 1_565 S
C942 N946 1.427 1_554 S
C943 H933 0.936 . S
C943 C941 1.425 1_556 S
C943 N946 1.386 . S
C944 H935 0.929 . S
C944 C936 1.378 . S
C944 C939 1.350 1_556 S
C945 H932 0.929 . S
C945 C937 1.433 1_554 S
C945 N947 1.384 . S
N946 C942 1.427 1_556 S
N946 C943 1.386 . S
N947 C939 1.427 . S
N947 C945 1.384 . S
C415 C9 1.080 . S
C419 C5 1.075 . S
C433 C39 1.082 . S
C437 C43 1.074 . S
C451 C73 1.078 . S
C455 C77 1.066 . S
C469 C111 1.080 1_554 S
C473 C107 1.075 . S
C487 C145 1.076 . S
C491 C141 1.071 . S
C505 C175 1.077 . S
C509 C179 1.066 . S
C523 C213 1.077 . S
C527 C209 1.071 . S
C541 C247 1.079 . S
C545 C243 1.077 . S
C559 C277 1.076 . S
C563 C281 1.066 . S
C577 C315 1.079 . S
C581 C311 1.073 . S
C595 C349 1.068 . S
C599 C345 1.082 . S
C613 C379 1.079 . S
C617 C383 1.066 . S
C631 C237 1.616 . S
C635 C33 1.616 . S
C649 C67 1.606 . S
C653 C271 1.605 . S
C667 C305 1.606 . S
C671 C101 1.608 . S
C685 C339 1.608 . S
C689 C135 1.610 . S
C703 C373 1.605 . S
C707 C169 1.605 . S
C721 C407 1.608 . S
C725 C203 1.606 . S
C739 C20 1.575 . S
C743 C360 1.573 . S
C757 C54 1.576 . S
C761 C394 1.576 . S
C775 C88 1.572 . S
C779 C224 1.571 . S
C793 C258 1.570 . S
C797 C122 1.570 . S
C811 C292 1.575 . S
C815 C156 1.574 . S
C829 C326 1.570 . S
C833 C190 1.571 . S
C847 C2 1.560 . S
C851 C308 1.560 . S
C865 C36 1.562 . S
C869 C342 1.562 . S
C883 C376 1.562 . S
C887 C70 1.561 . S
C901 C104 1.561 . S
C905 C206 1.560 . S
C919 C138 1.562 . S
C923 C240 1.562 . S
C937 C172 1.561 . S
C941 C274 1.562 . S
