# Generated by pormake.
# Topology tzs, (4)-cn, num edge types: 1
# Building blocks:
#     Node 0, Type 0, BuildingBlock: TATPOV_clean_sbu_0, # of connection points: 4
#     Node 1, Type 0, BuildingBlock: TATPOV_clean_sbu_0, # of connection points: 4
#     Node 2, Type 0, BuildingBlock: TATPOV_clean_sbu_0, # of connection points: 4
#     Node 3, Type 0, BuildingBlock: TATPOV_clean_sbu_0, # of connection points: 4
#     Node 4, Type 0, BuildingBlock: TATPOV_clean_sbu_0, # of connection points: 4
#     Node 5, Type 0, BuildingBlock: TATPOV_clean_sbu_0, # of connection points: 4
#     Node 6, Type 0, BuildingBlock: TATPOV_clean_sbu_0, # of connection points: 4
#     Node 7, Type 0, BuildingBlock: TATPOV_clean_sbu_0, # of connection points: 4
#     Node 8, Type 0, BuildingBlock: TATPOV_clean_sbu_0, # of connection points: 4
#     Node 9, Type 0, BuildingBlock: TATPOV_clean_sbu_0, # of connection points: 4
#     Node 10, Type 0, BuildingBlock: TATPOV_clean_sbu_0, # of connection points: 4
#     Node 11, Type 0, BuildingBlock: TATPOV_clean_sbu_0, # of connection points: 4
#     Node 12, Type 0, BuildingBlock: TATPOV_clean_sbu_0, # of connection points: 4
#     Node 13, Type 0, BuildingBlock: TATPOV_clean_sbu_0, # of connection points: 4
#     Node 14, Type 0, BuildingBlock: TATPOV_clean_sbu_0, # of connection points: 4
#     Node 15, Type 0, BuildingBlock: TATPOV_clean_sbu_0, # of connection points: 4
#     Edge 16, Type (0, 0), BuildingBlock: ZUJKAS_clean_linker_0, # of connection points: 2
#     Edge 17, Type (0, 0), BuildingBlock: ZUJKAS_clean_linker_0, # of connection points: 2
#     Edge 18, Type (0, 0), BuildingBlock: ZUJKAS_clean_linker_0, # of connection points: 2
#     Edge 19, Type (0, 0), BuildingBlock: ZUJKAS_clean_linker_0, # of connection points: 2
#     Edge 20, Type (0, 0), BuildingBlock: ZUJKAS_clean_linker_0, # of connection points: 2
#     Edge 21, Type (0, 0), BuildingBlock: ZUJKAS_clean_linker_0, # of connection points: 2
#     Edge 22, Type (0, 0), BuildingBlock: ZUJKAS_clean_linker_0, # of connection points: 2
#     Edge 23, Type (0, 0), BuildingBlock: ZUJKAS_clean_linker_0, # of connection points: 2
#     Edge 24, Type (0, 0), BuildingBlock: ZUJKAS_clean_linker_0, # of connection points: 2
#     Edge 25, Type (0, 0), BuildingBlock: ZUJKAS_clean_linker_0, # of connection points: 2
#     Edge 26, Type (0, 0), BuildingBlock: ZUJKAS_clean_linker_0, # of connection points: 2
#     Edge 27, Type (0, 0), BuildingBlock: ZUJKAS_clean_linker_0, # of connection points: 2
#     Edge 28, Type (0, 0), BuildingBlock: ZUJKAS_clean_linker_0, # of connection points: 2
#     Edge 29, Type (0, 0), BuildingBlock: ZUJKAS_clean_linker_0, # of connection points: 2
#     Edge 30, Type (0, 0), BuildingBlock: ZUJKAS_clean_linker_0, # of connection points: 2
#     Edge 31, Type (0, 0), BuildingBlock: ZUJKAS_clean_linker_0, # of connection points: 2
#     Edge 32, Type (0, 0), BuildingBlock: ZUJKAS_clean_linker_0, # of connection points: 2
#     Edge 33, Type (0, 0), BuildingBlock: ZUJKAS_clean_linker_0, # of connection points: 2
#     Edge 34, Type (0, 0), BuildingBlock: ZUJKAS_clean_linker_0, # of connection points: 2
#     Edge 35, Type (0, 0), BuildingBlock: ZUJKAS_clean_linker_0, # of connection points: 2
#     Edge 36, Type (0, 0), BuildingBlock: ZUJKAS_clean_linker_0, # of connection points: 2
#     Edge 37, Type (0, 0), BuildingBlock: ZUJKAS_clean_linker_0, # of connection points: 2
#     Edge 38, Type (0, 0), BuildingBlock: ZUJKAS_clean_linker_0, # of connection points: 2
#     Edge 39, Type (0, 0), BuildingBlock: ZUJKAS_clean_linker_0, # of connection points: 2
#     Edge 40, Type (0, 0), BuildingBlock: ZUJKAS_clean_linker_0, # of connection points: 2
#     Edge 41, Type (0, 0), BuildingBlock: ZUJKAS_clean_linker_0, # of connection points: 2
#     Edge 42, Type (0, 0), BuildingBlock: ZUJKAS_clean_linker_0, # of connection points: 2
#     Edge 43, Type (0, 0), BuildingBlock: ZUJKAS_clean_linker_0, # of connection points: 2
#     Edge 44, Type (0, 0), BuildingBlock: ZUJKAS_clean_linker_0, # of connection points: 2
#     Edge 45, Type (0, 0), BuildingBlock: ZUJKAS_clean_linker_0, # of connection points: 2
#     Edge 46, Type (0, 0), BuildingBlock: ZUJKAS_clean_linker_0, # of connection points: 2
#     Edge 47, Type (0, 0), BuildingBlock: ZUJKAS_clean_linker_0, # of connection points: 2
# Relax obj value: 0.048
# Max RMSD: 0.073
# Mean RMSD: 0.073
data_MOF--net-tzs--node1-TATPOV_clean_sbu_0--edge1-ZUJKAS_clean_linker_0
_symmetry_space_group_name_H-M    P1
_symmetry_Int_Tables_number       1
_symmetry_cell_setting            triclinic
loop_
_symmetry_equiv_pos_as_xyz
'x, y, z'
_cell_length_a     61.811747
_cell_length_b     61.820305
_cell_length_c     53.48361
_cell_angle_alpha  89.9773
_cell_angle_beta   89.984555
_cell_angle_gamma 89.996693
loop_
_atom_site_label
_atom_site_type_symbol
_atom_site_fract_x
_atom_site_fract_y
_atom_site_fract_z
_atom_type_partial_charge
Zn0 Zn 0.11631 0.3726 0.13753 0.0
Zn1 Zn 0.1405 0.34503 0.16375 0.0
O2 O 0.10942 0.33731 0.17502 0.0
O3 O 0.08974 0.36157 0.15524 0.0
O4 O 0.15917 0.32373 0.18246 0.0
O5 O 0.12584 0.3586 0.10551 0.0
O6 O 0.14795 0.33781 0.12702 0.0
C7 C 0.09105 0.3458 0.17028 0.0
C8 C 0.14688 0.39423 0.16915 0.0
O9 O 0.15094 0.37493 0.17618 0.0
O10 O 0.13317 0.39763 0.15199 0.0
C11 C 0.17959 0.32622 0.18295 0.0
O12 O 0.18812 0.34313 0.1718 0.0
C13 C 0.14032 0.34413 0.10613 0.0
Zn14 Zn 0.62968 0.10947 0.13947 0.0
Zn15 Zn 0.65439 0.13477 0.16813 0.0
O16 O 0.65983 0.10437 0.18302 0.0
O17 O 0.63909 0.08364 0.15967 0.0
O18 O 0.67516 0.15411 0.18671 0.0
O19 O 0.64602 0.11754 0.10853 0.0
O20 O 0.66457 0.14022 0.1318 0.0
C21 C 0.65233 0.08573 0.17757 0.0
C22 C 0.60549 0.14188 0.16673 0.0
O23 O 0.62391 0.14637 0.17612 0.0
O24 O 0.6038 0.1273 0.1502 0.0
C25 C 0.6709 0.16615 0.20532 0.0
O26 O 0.65128 0.16612 0.21479 0.0
C27 C 0.66028 0.13211 0.11048 0.0
Zn28 Zn 0.87991 0.61735 0.15668 0.0
Zn29 Zn 0.85647 0.64248 0.18631 0.0
O30 O 0.88747 0.64853 0.1991 0.0
O31 O 0.90634 0.62545 0.17657 0.0
O32 O 0.83724 0.66141 0.20744 0.0
O33 O 0.87185 0.63505 0.12672 0.0
O34 O 0.84974 0.65371 0.15067 0.0
C35 C 0.90552 0.63974 0.19351 0.0
C36 C 0.84889 0.59323 0.18454 0.0
O37 O 0.84566 0.61167 0.19455 0.0
O38 O 0.86212 0.59136 0.1666 0.0
C39 C 0.83719 0.6818 0.20429 0.0
O40 O 0.85059 0.69036 0.18798 0.0
C41 C 0.8577 0.64968 0.1292 0.0
Zn42 Zn 0.38736 0.87122 0.14906 0.0
Zn43 Zn 0.35867 0.84873 0.17593 0.0
O44 O 0.35088 0.88009 0.1857 0.0
O45 O 0.3747 0.89858 0.16375 0.0
O46 O 0.33789 0.83002 0.19534 0.0
O47 O 0.37566 0.85852 0.11735 0.0
O48 O 0.35165 0.84041 0.13937 0.0
C49 C 0.35912 0.89815 0.17916 0.0
C50 C 0.40801 0.84297 0.18361 0.0
O51 O 0.38844 0.83871 0.1894 0.0
O52 O 0.41207 0.85637 0.16634 0.0
C53 C 0.31802 0.82872 0.18939 0.0
O54 O 0.31069 0.84062 0.17087 0.0
C55 C 0.35993 0.84545 0.11834 0.0
Zn56 Zn 0.13452 0.60535 0.34527 0.0
Zn57 Zn 0.15509 0.6341 0.31648 0.0
O58 O 0.1232 0.6411 0.30912 0.0
O59 O 0.10607 0.61676 0.33176 0.0
O60 O 0.17154 0.65619 0.29622 0.0
O61 O 0.14769 0.618 0.37618 0.0
O62 O 0.16474 0.6416 0.35254 0.0
C63 C 0.1056 0.63247 0.31653 0.0
C64 C 0.1618 0.58504 0.30909 0.0
O65 O 0.16493 0.60451 0.30199 0.0
O66 O 0.14992 0.5811 0.32782 0.0
C67 C 0.19172 0.65849 0.29997 0.0
O68 O 0.20139 0.64577 0.31618 0.0
C69 C 0.1605 0.63385 0.37407 0.0
Zn70 Zn 0.38985 0.12452 0.33045 0.0
Zn71 Zn 0.36122 0.14688 0.30334 0.0
O72 O 0.353 0.1154 0.29466 0.0
O73 O 0.37684 0.09698 0.31662 0.0
O74 O 0.33977 0.16516 0.28426 0.0
O75 O 0.37884 0.1377 0.36221 0.0
O76 O 0.35514 0.15598 0.33994 0.0
C77 C 0.36108 0.09736 0.30147 0.0
C78 C 0.41037 0.15191 0.29457 0.0
O79 O 0.39084 0.15625 0.28866 0.0
O80 O 0.41433 0.13899 0.31235 0.0
C81 C 0.32051 0.16718 0.29231 0.0
O82 O 0.31466 0.15649 0.31245 0.0
C83 C 0.36342 0.15112 0.36103 0.0
Zn84 Zn 0.87902 0.37611 0.34384 0.0
Zn85 Zn 0.85296 0.34882 0.31986 0.0
O86 O 0.88308 0.33977 0.30644 0.0
O87 O 0.90416 0.3637 0.32474 0.0
O88 O 0.83154 0.32825 0.30419 0.0
O89 O 0.87098 0.36342 0.37703 0.0
O90 O 0.84771 0.34258 0.35736 0.0
C91 C 0.90183 0.34783 0.31001 0.0
C92 C 0.84803 0.39807 0.31328 0.0
O93 O 0.84305 0.37878 0.30709 0.0
O94 O 0.86243 0.40137 0.32967 0.0
C95 C 0.83479 0.31627 0.28525 0.0
O96 O 0.85354 0.31705 0.27371 0.0
C97 C 0.85634 0.34913 0.37762 0.0
Zn98 Zn 0.617 0.8694 0.35973 0.0
Zn99 Zn 0.64519 0.84696 0.33197 0.0
O100 O 0.65128 0.8784 0.32143 0.0
O101 O 0.6287 0.89714 0.34474 0.0
O102 O 0.66706 0.8297 0.31243 0.0
O103 O 0.62946 0.85704 0.39111 0.0
O104 O 0.65321 0.83911 0.36849 0.0
C105 C 0.64342 0.89653 0.32826 0.0
C106 C 0.59624 0.83977 0.32609 0.0
O107 O 0.61562 0.83572 0.31933 0.0
O108 O 0.59255 0.85341 0.34322 0.0
C109 C 0.66849 0.80944 0.31613 0.0
O110 O 0.65514 0.80021 0.332 0.0
C111 C 0.6453 0.84413 0.38971 0.0
Zn112 Zn 0.88162 0.62923 0.85777 0.0
Zn113 Zn 0.85393 0.65256 0.83095 0.0
O114 O 0.84732 0.62147 0.81915 0.0
O115 O 0.87213 0.60257 0.83902 0.0
O116 O 0.83273 0.67091 0.81181 0.0
O117 O 0.86627 0.63741 0.88939 0.0
O118 O 0.84546 0.65926 0.86755 0.0
C119 C 0.8565 0.60343 0.82374 0.0
C120 C 0.90295 0.6606 0.82719 0.0
O121 O 0.88376 0.66375 0.81926 0.0
O122 O 0.90638 0.64733 0.8448 0.0
C123 C 0.83235 0.69118 0.81576 0.0
O124 O 0.84623 0.69956 0.83164 0.0
C125 C 0.85134 0.65139 0.88849 0.0
Zn126 Zn 0.37701 0.88252 0.84694 0.0
Zn127 Zn 0.35159 0.85764 0.81923 0.0
O128 O 0.38235 0.84768 0.80922 0.0
O129 O 0.40306 0.86542 0.8357 0.0
O130 O 0.33179 0.83813 0.79955 0.0
O131 O 0.36099 0.87402 0.87799 0.0
O132 O 0.34225 0.85082 0.85556 0.0
C133 C 0.40101 0.85178 0.81821 0.0
C134 C 0.35218 0.90682 0.81131 0.0
O135 O 0.34399 0.88833 0.80659 0.0
O136 O 0.36717 0.90853 0.82733 0.0
C137 C 0.33525 0.81786 0.79889 0.0
O138 O 0.35227 0.81 0.81046 0.0
C139 C 0.34691 0.85921 0.87664 0.0
Zn140 Zn 0.12551 0.3887 0.837 0.0
Zn141 Zn 0.15133 0.3651 0.80786 0.0
O142 O 0.15745 0.39631 0.79558 0.0
O143 O 0.1361 0.41563 0.81985 0.0
O144 O 0.17143 0.34644 0.78744 0.0
O145 O 0.14073 0.37847 0.86778 0.0
O146 O 0.16099 0.35766 0.84399 0.0
C147 C 0.14994 0.4146 0.80243 0.0
C148 C 0.10207 0.3587 0.80609 0.0
O149 O 0.12096 0.35436 0.79793 0.0
O150 O 0.09964 0.37248 0.82339 0.0
C151 C 0.17128 0.32614 0.79131 0.0
O152 O 0.15768 0.31818 0.80781 0.0
C153 C 0.15558 0.36452 0.86557 0.0
Zn154 Zn 0.60639 0.13999 0.84384 0.0
Zn155 Zn 0.6358 0.16079 0.81612 0.0
O156 O 0.60652 0.17185 0.80205 0.0
O157 O 0.58258 0.15648 0.82689 0.0
O158 O 0.6582 0.17746 0.7967 0.0
O159 O 0.61927 0.15194 0.8753 0.0
O160 O 0.64354 0.16896 0.85252 0.0
C161 C 0.58694 0.16894 0.80881 0.0
C162 C 0.63314 0.11145 0.81402 0.0
O163 O 0.64215 0.12908 0.80738 0.0
O164 O 0.61736 0.11177 0.82916 0.0
C165 C 0.65997 0.19769 0.80042 0.0
O166 O 0.64657 0.20715 0.81606 0.0
C167 C 0.63556 0.16428 0.87381 0.0
Zn168 Zn 0.88128 0.38553 0.65157 0.0
Zn169 Zn 0.85531 0.36138 0.67953 0.0
O170 O 0.84843 0.39234 0.69168 0.0
O171 O 0.87198 0.41197 0.67075 0.0
O172 O 0.83475 0.3428 0.69932 0.0
O173 O 0.8652 0.37715 0.62053 0.0
O174 O 0.84607 0.35444 0.64323 0.0
C175 C 0.85695 0.41064 0.68677 0.0
C176 C 0.90442 0.35438 0.68095 0.0
O177 O 0.88568 0.3507 0.68997 0.0
O178 O 0.90677 0.36783 0.6633 0.0
C179 C 0.8336 0.32265 0.69477 0.0
O180 O 0.84658 0.31425 0.6779 0.0
C181 C 0.85091 0.36256 0.62206 0.0
Zn182 Zn 0.61816 0.8833 0.65801 0.0
Zn183 Zn 0.64576 0.86146 0.68669 0.0
O184 O 0.61594 0.84971 0.69764 0.0
O185 O 0.59339 0.86559 0.67162 0.0
O186 O 0.66693 0.84386 0.70682 0.0
O187 O 0.63401 0.87412 0.62706 0.0
O188 O 0.65543 0.85433 0.65063 0.0
C189 C 0.59675 0.8526 0.68951 0.0
C190 C 0.64191 0.91066 0.69193 0.0
O191 O 0.65115 0.89296 0.69795 0.0
O192 O 0.62704 0.9107 0.67564 0.0
C193 C 0.66759 0.82357 0.70307 0.0
O194 O 0.65401 0.81494 0.68701 0.0
C195 C 0.6496 0.86098 0.62911 0.0
Zn196 Zn 0.10748 0.64111 0.64196 0.0
Zn197 Zn 0.13708 0.66244 0.669 0.0
O198 O 0.14391 0.63079 0.6779 0.0
O199 O 0.12028 0.61303 0.65493 0.0
O200 O 0.15915 0.67995 0.68793 0.0
O201 O 0.11875 0.65449 0.61039 0.0
O202 O 0.14387 0.67095 0.63244 0.0
C203 C 0.13576 0.61297 0.67049 0.0
C204 C 0.08823 0.66884 0.67857 0.0
O205 O 0.10797 0.67279 0.68381 0.0
O206 O 0.08358 0.65595 0.66098 0.0
C207 C 0.17898 0.67452 0.68834 0.0
O208 O 0.18502 0.65671 0.67689 0.0
C209 C 0.13509 0.66678 0.61143 0.0
Zn210 Zn 0.37777 0.12249 0.63758 0.0
Zn211 Zn 0.34961 0.14677 0.66272 0.0
O212 O 0.37933 0.15837 0.67427 0.0
O213 O 0.40252 0.14023 0.65114 0.0
O214 O 0.32837 0.16582 0.68097 0.0
O215 O 0.36345 0.13048 0.60522 0.0
O216 O 0.34178 0.15248 0.62571 0.0
C217 C 0.39875 0.15449 0.66757 0.0
C218 C 0.35169 0.09768 0.67158 0.0
O219 O 0.34273 0.11594 0.67561 0.0
O220 O 0.36742 0.09633 0.65648 0.0
C221 C 0.32847 0.18604 0.67657 0.0
O222 O 0.34263 0.19383 0.66061 0.0
C223 C 0.34836 0.14432 0.6052 0.0
H224 H 0.32633 0.19 0.2489 0.0
H225 H 0.30183 0.21671 0.23034 0.0
H226 H 0.25599 0.20582 0.28978 0.0
H227 H 0.28029 0.17909 0.30847 0.0
H228 H 0.25596 0.2109 0.21557 0.0
H229 H 0.26888 0.27276 0.28962 0.0
H230 H 0.28745 0.25065 0.28445 0.0
H231 H 0.26225 0.24594 0.3002 0.0
C232 C 0.311 0.19321 0.25798 0.0
C233 C 0.30531 0.18248 0.28023 0.0
C234 C 0.29703 0.20845 0.24734 0.0
C235 C 0.27726 0.21336 0.25888 0.0
C236 C 0.27132 0.2024 0.28078 0.0
H237 H 0.16784 0.28681 0.20203 0.0
H238 H 0.19148 0.25927 0.22039 0.0
C239 C 0.2852 0.18708 0.29136 0.0
C240 C 0.26291 0.23012 0.24814 0.0
H241 H 0.24237 0.28053 0.25901 0.0
C242 C 0.25295 0.22613 0.22503 0.0
C243 C 0.25923 0.25 0.26048 0.0
C244 C 0.2701 0.25529 0.28498 0.0
C245 C 0.23913 0.24147 0.21406 0.0
C246 C 0.23517 0.2612 0.22662 0.0
C247 C 0.24535 0.2653 0.24956 0.0
C248 C 0.2208 0.27797 0.21596 0.0
C249 C 0.22908 0.23663 0.18898 0.0
C250 C 0.22944 0.29774 0.20786 0.0
C251 C 0.21602 0.31349 0.19731 0.0
C252 C 0.19365 0.30982 0.19493 0.0
C253 C 0.18499 0.29014 0.20356 0.0
C254 C 0.19847 0.27434 0.21394 0.0
H255 H 0.23689 0.22259 0.17967 0.0
H256 H 0.21167 0.23286 0.19159 0.0
H257 H 0.23026 0.25092 0.17646 0.0
H258 H 0.24664 0.30085 0.20939 0.0
H259 H 0.2232 0.32849 0.19095 0.0
H260 H 0.79424 0.31112 0.30482 0.0
H261 H 0.76649 0.28524 0.29206 0.0
H262 H 0.80864 0.26121 0.23413 0.0
H263 H 0.83665 0.28693 0.24689 0.0
H264 H 0.7463 0.28049 0.24507 0.0
H265 H 0.79097 0.20628 0.27269 0.0
H266 H 0.7987 0.23291 0.28328 0.0
H267 H 0.8056 0.22413 0.25226 0.0
C268 C 0.79766 0.30034 0.28936 0.0
C269 C 0.81774 0.30102 0.27696 0.0
C270 C 0.78176 0.28556 0.2821 0.0
C271 C 0.78564 0.2711 0.26242 0.0
C272 C 0.80549 0.27196 0.2497 0.0
H273 H 0.71238 0.171 0.18861 0.0
H274 H 0.7396 0.19663 0.20324 0.0
C275 C 0.82142 0.28676 0.25692 0.0
C276 C 0.76877 0.25533 0.25504 0.0
H277 H 0.7583 0.20126 0.2502 0.0
C278 C 0.74885 0.26316 0.24629 0.0
C279 C 0.77217 0.23275 0.25671 0.0
C280 C 0.79293 0.22344 0.26694 0.0
C281 C 0.73239 0.24901 0.23858 0.0
C282 C 0.73583 0.22642 0.24014 0.0
C283 C 0.75571 0.21859 0.24905 0.0
C284 C 0.71926 0.21061 0.23191 0.0
C285 C 0.71171 0.25835 0.22818 0.0
C286 C 0.69889 0.20969 0.2435 0.0
C287 C 0.68321 0.19506 0.23513 0.0
C288 C 0.68771 0.18098 0.21513 0.0
C289 C 0.70833 0.18163 0.204 0.0
C290 C 0.72394 0.19626 0.21235 0.0
H291 H 0.71368 0.27556 0.22261 0.0
H292 H 0.70611 0.24899 0.21169 0.0
H293 H 0.69891 0.25756 0.24271 0.0
H294 H 0.69511 0.22032 0.25899 0.0
H295 H 0.66755 0.1949 0.2442 0.0
H296 H 0.83158 0.72554 0.20014 0.0
H297 H 0.80375 0.74781 0.22001 0.0
H298 H 0.77837 0.69145 0.25738 0.0
H299 H 0.80626 0.66907 0.23786 0.0
H300 H 0.75892 0.74292 0.21509 0.0
H301 H 0.78422 0.73539 0.31428 0.0
H302 H 0.80181 0.72839 0.28856 0.0
H303 H 0.78097 0.71 0.29843 0.0
C304 C 0.82024 0.7179 0.2128 0.0
C305 C 0.82118 0.69552 0.21746 0.0
C306 C 0.80432 0.73066 0.22409 0.0
C307 C 0.78916 0.72133 0.24038 0.0
C308 C 0.79017 0.69904 0.24525 0.0
H309 H 0.67614 0.76606 0.32057 0.0
H310 H 0.70519 0.74505 0.30128 0.0
C311 C 0.80607 0.68626 0.23397 0.0
C312 C 0.77168 0.73471 0.25133 0.0
H313 H 0.74981 0.75126 0.30674 0.0
C314 C 0.75699 0.74488 0.23512 0.0
C315 C 0.76919 0.73717 0.27746 0.0
C316 C 0.78498 0.72733 0.29573 0.0
C317 C 0.73958 0.75708 0.24436 0.0
C318 C 0.73703 0.75944 0.2705 0.0
C319 C 0.75178 0.74937 0.28671 0.0
C320 C 0.71909 0.77221 0.28147 0.0
C321 C 0.72375 0.76686 0.22609 0.0
C322 C 0.71733 0.79448 0.27678 0.0
C323 C 0.7007 0.80655 0.28772 0.0
C324 C 0.68562 0.79657 0.30371 0.0
C325 C 0.68744 0.77425 0.30832 0.0
C326 C 0.70406 0.76221 0.29736 0.0
H327 H 0.72481 0.75909 0.2074 0.0
H328 H 0.70689 0.76536 0.23306 0.0
H329 H 0.72743 0.78431 0.22378 0.0
H330 H 0.72901 0.8026 0.26495 0.0
H331 H 0.69984 0.82373 0.2839 0.0
H332 H 0.27507 0.82108 0.18049 0.0
H333 H 0.25207 0.79352 0.19981 0.0
H334 H 0.30564 0.77254 0.2454 0.0
H335 H 0.32865 0.8002 0.22653 0.0
H336 H 0.25813 0.74917 0.19897 0.0
H337 H 0.25736 0.77921 0.29661 0.0
H338 H 0.2662 0.79568 0.27067 0.0
H339 H 0.28411 0.77592 0.28412 0.0
C340 C 0.28191 0.81077 0.19483 0.0
C341 C 0.3037 0.8129 0.20202 0.0
C342 C 0.26874 0.795 0.20581 0.0
C343 C 0.27705 0.78117 0.22427 0.0
C344 C 0.29875 0.78334 0.23159 0.0
H345 H 0.2344 0.66877 0.30584 0.0
H346 H 0.25429 0.69855 0.28649 0.0
C347 C 0.31192 0.79911 0.22066 0.0
C348 C 0.2634 0.76376 0.23501 0.0
H349 H 0.24435 0.74333 0.2901 0.0
C350 C 0.25492 0.74799 0.21886 0.0
C351 C 0.25926 0.76227 0.26097 0.0
C352 C 0.26703 0.77928 0.27909 0.0
C353 C 0.24297 0.73039 0.22807 0.0
C354 C 0.23917 0.7287 0.25407 0.0
C355 C 0.24738 0.74463 0.27018 0.0
C356 C 0.22706 0.71032 0.26505 0.0
C357 C 0.23505 0.71339 0.21001 0.0
C358 C 0.20512 0.7071 0.25943 0.0
C359 C 0.19367 0.69006 0.27045 0.0
C360 C 0.20396 0.67599 0.28738 0.0
C361 C 0.22598 0.67924 0.29285 0.0
C362 C 0.23738 0.69629 0.28186 0.0
H363 H 0.24336 0.7145 0.19164 0.0
H364 H 0.23756 0.69691 0.21775 0.0
H365 H 0.21745 0.71564 0.20684 0.0
H366 H 0.19677 0.71797 0.24681 0.0
H367 H 0.17671 0.68808 0.26593 0.0
H368 H 0.69955 0.83645 0.73529 0.0
H369 H 0.7278 0.814 0.75417 0.0
H370 H 0.70113 0.75756 0.71822 0.0
H371 H 0.67304 0.77985 0.69902 0.0
H372 H 0.72392 0.77796 0.78587 0.0
H373 H 0.76481 0.75618 0.69693 0.0
H374 H 0.74542 0.77793 0.6991 0.0
H375 H 0.73636 0.75033 0.69752 0.0
C376 C 0.69968 0.81926 0.7314 0.0
C377 C 0.68412 0.80997 0.7155 0.0
C378 C 0.71583 0.80647 0.74221 0.0
C379 C 0.71677 0.7842 0.73722 0.0
C380 C 0.70098 0.7748 0.72186 0.0
H381 H 0.80014 0.67881 0.78365 0.0
H382 H 0.77213 0.70166 0.76495 0.0
C383 C 0.68485 0.78756 0.71103 0.0
C384 C 0.73414 0.77076 0.74831 0.0
H385 H 0.77652 0.73773 0.73343 0.0
C386 C 0.7355 0.76925 0.77444 0.0
C387 C 0.74919 0.7594 0.73331 0.0
C388 C 0.74907 0.76114 0.70516 0.0
C389 C 0.75127 0.75631 0.786 0.0
C390 C 0.76629 0.74492 0.77099 0.0
C391 C 0.76496 0.74647 0.74486 0.0
C392 C 0.7835 0.73125 0.78205 0.0
C393 C 0.7514 0.75456 0.81414 0.0
C394 C 0.7994 0.74041 0.79748 0.0
C395 C 0.8154 0.72742 0.80821 0.0
C396 C 0.81589 0.70503 0.80358 0.0
C397 C 0.8002 0.69599 0.78766 0.0
C398 C 0.78418 0.709 0.77695 0.0
H399 H 0.73573 0.7597 0.8224 0.0
H400 H 0.75487 0.73773 0.82018 0.0
H401 H 0.76425 0.76521 0.82178 0.0
H402 H 0.79944 0.75763 0.80121 0.0
H403 H 0.82732 0.73494 0.82024 0.0
H404 H 0.17296 0.71519 0.7072 0.0
H405 H 0.20018 0.7392 0.72528 0.0
H406 H 0.24877 0.68984 0.71557 0.0
H407 H 0.22177 0.66591 0.69684 0.0
H408 H 0.22522 0.7349 0.76641 0.0
H409 H 0.27731 0.74103 0.68221 0.0
H410 H 0.25053 0.72943 0.68127 0.0
H411 H 0.27304 0.71371 0.69244 0.0
C412 C 0.18944 0.70943 0.70888 0.0
C413 C 0.19523 0.68869 0.70039 0.0
C414 C 0.20498 0.72319 0.71922 0.0
C415 C 0.22661 0.71649 0.72131 0.0
C416 C 0.23232 0.69558 0.7135 0.0
H417 H 0.33993 0.77459 0.78982 0.0
H418 H 0.31357 0.75003 0.77076 0.0
C419 C 0.21682 0.68186 0.70297 0.0
C420 C 0.24304 0.73132 0.73204 0.0
H421 H 0.29127 0.75622 0.71975 0.0
C422 C 0.2396 0.73963 0.75615 0.0
C423 C 0.26179 0.73754 0.71859 0.0
C424 C 0.26583 0.73015 0.69211 0.0
C425 C 0.25453 0.75375 0.76729 0.0
C426 C 0.27331 0.75975 0.75394 0.0
C427 C 0.27684 0.75146 0.7299 0.0
C428 C 0.28942 0.77477 0.76469 0.0
C429 C 0.25033 0.76201 0.79338 0.0
C430 C 0.28461 0.79683 0.76715 0.0
C431 C 0.29966 0.81094 0.77784 0.0
C432 C 0.31974 0.80317 0.78638 0.0
C433 C 0.32459 0.78107 0.78352 0.0
C434 C 0.30959 0.76702 0.77263 0.0
H435 H 0.2368 0.75328 0.80263 0.0
H436 H 0.26509 0.76037 0.80507 0.0
H437 H 0.24614 0.77945 0.7925 0.0
H438 H 0.26915 0.80309 0.76091 0.0
H439 H 0.29541 0.82785 0.77977 0.0
H440 H 0.20282 0.33738 0.75768 0.0
H441 H 0.22908 0.31347 0.73738 0.0
H442 H 0.20141 0.25861 0.77557 0.0
H443 H 0.17499 0.28227 0.79572 0.0
H444 H 0.25973 0.28663 0.7609 0.0
H445 H 0.20306 0.23877 0.70243 0.0
H446 H 0.19552 0.26415 0.71667 0.0
H447 H 0.19602 0.23977 0.73499 0.0
C448 C 0.2022 0.3202 0.76161 0.0
C449 C 0.18675 0.31173 0.77827 0.0
C450 C 0.21724 0.30658 0.75002 0.0
C451 C 0.217 0.28424 0.75472 0.0
C452 C 0.2016 0.27574 0.7713 0.0
H453 H 0.29627 0.17515 0.70947 0.0
H454 H 0.26972 0.19927 0.72891 0.0
C455 C 0.18658 0.28933 0.78291 0.0
C456 C 0.23337 0.26993 0.74305 0.0
H457 H 0.23926 0.22605 0.70488 0.0
C458 C 0.25529 0.27346 0.74853 0.0
C459 C 0.2275 0.25272 0.72701 0.0
C460 C 0.20427 0.24868 0.7197 0.0
C461 C 0.2715 0.25998 0.73875 0.0
C462 C 0.26562 0.24275 0.72273 0.0
C463 C 0.2437 0.23924 0.71722 0.0
C464 C 0.28199 0.22829 0.71129 0.0
C465 C 0.29473 0.26399 0.7461 0.0
C466 C 0.29756 0.2366 0.6948 0.0
C467 C 0.31275 0.22289 0.68369 0.0
C468 C 0.31258 0.20056 0.68875 0.0
C469 C 0.29689 0.19227 0.70523 0.0
C470 C 0.28169 0.20601 0.71632 0.0
H471 H 0.29593 0.27403 0.76327 0.0
H472 H 0.3034 0.24851 0.74932 0.0
H473 H 0.30306 0.27274 0.73075 0.0
H474 H 0.29782 0.25369 0.69029 0.0
H475 H 0.32453 0.22981 0.67099 0.0
H476 H 0.66853 0.24084 0.8054 0.0
H477 H 0.69844 0.26127 0.78703 0.0
H478 H 0.72145 0.20346 0.75062 0.0
H479 H 0.69145 0.18289 0.76867 0.0
H480 H 0.74292 0.25354 0.79357 0.0
H481 H 0.71931 0.24787 0.69356 0.0
H482 H 0.70076 0.24192 0.71871 0.0
H483 H 0.72085 0.22242 0.70969 0.0
C484 C 0.67983 0.23247 0.79331 0.0
C485 C 0.67756 0.21023 0.78844 0.0
C486 C 0.69694 0.24418 0.78288 0.0
C487 C 0.71201 0.23393 0.76726 0.0
C488 C 0.70977 0.21176 0.76226 0.0
H489 H 0.82656 0.27929 0.68873 0.0
H490 H 0.79789 0.25734 0.70744 0.0
C491 C 0.69266 0.20002 0.77269 0.0
C492 C 0.73046 0.24634 0.75692 0.0
H493 H 0.75356 0.26326 0.70232 0.0
C494 C 0.74524 0.25573 0.77363 0.0
C495 C 0.73346 0.24906 0.73089 0.0
C496 C 0.71768 0.23996 0.71212 0.0
C497 C 0.76309 0.26762 0.765 0.0
C498 C 0.76599 0.2705 0.73898 0.0
C499 C 0.7513 0.26098 0.72226 0.0
C500 C 0.78395 0.28366 0.72866 0.0
C501 C 0.77888 0.27665 0.7838 0.0
C502 C 0.78559 0.30576 0.73437 0.0
C503 C 0.80199 0.31835 0.72377 0.0
C504 C 0.81696 0.3091 0.70709 0.0
C505 C 0.81534 0.28692 0.70154 0.0
C506 C 0.79894 0.27434 0.71217 0.0
H507 H 0.77777 0.26811 0.80204 0.0
H508 H 0.79577 0.27546 0.77684 0.0
H509 H 0.77515 0.29398 0.78708 0.0
H510 H 0.77392 0.31337 0.74664 0.0
H511 H 0.80269 0.3354 0.72833 0.0
H512 H 0.1591 0.38478 0.91017 0.0
H513 H 0.17065 0.3694 0.94974 0.0
H514 H 0.18636 0.30932 0.91296 0.0
H515 H 0.17471 0.32485 0.87275 0.0
H516 H 0.15822 0.30415 0.95223 0.0
H517 H 0.22665 0.35348 0.9844 0.0
H518 H 0.20613 0.37099 0.97217 0.0
H519 H 0.21917 0.35175 0.95177 0.0
C520 C 0.16547 0.36845 0.91033 0.0
C521 C 0.16586 0.35596 0.88843 0.0
C522 C 0.17234 0.35974 0.93296 0.0
C523 C 0.17975 0.33832 0.93428 0.0
C524 C 0.181 0.32599 0.91226 0.0
H525 H 0.17942 0.32442 0.09695 0.0
H526 H 0.19411 0.31405 0.05588 0.0
C527 C 0.17434 0.33485 0.88937 0.0
C528 C 0.18253 0.32841 0.95929 0.0
H529 H 0.19992 0.34332 0.0172 0.0
C530 C 0.168 0.31207 0.96636 0.0
C531 C 0.19566 0.33823 0.97772 0.0
C532 C 0.21295 0.35441 0.971 0.0
C533 C 0.164 0.30767 0.99167 0.0
C534 C 0.17459 0.32014 0.01014 0.0
C535 C 0.19141 0.33409 0.00304 0.0
C536 C 0.1652 0.3228 0.03543 0.0
C537 C 0.14719 0.29099 -0.00162 0.0
C538 C 0.14416 0.33111 0.03747 0.0
C539 C 0.13592 0.33726 0.06062 0.0
C540 C 0.14853 0.33523 0.08232 0.0
C541 C 0.16932 0.32607 0.08052 0.0
C542 C 0.17771 0.32013 0.05713 0.0
H543 H 0.14717 0.27756 0.98458 0.0
H544 H 0.15 0.28423 0.01735 0.0
H545 H 0.13093 0.2986 -0.00205 0.0
H546 H 0.13441 0.33387 0.02094 0.0
H547 H 0.11983 0.34418 0.06139 0.0
H548 H 0.61706 0.16666 0.91965 0.0
H549 H 0.63468 0.17397 0.95927 0.0
H550 H 0.69482 0.18658 0.92096 0.0
H551 H 0.67707 0.17907 0.88074 0.0
H552 H 0.69928 0.15634 0.9573 0.0
H553 H 0.65627 0.22559 -0.00218 0.0
H554 H 0.63668 0.20724 0.98526 0.0
H555 H 0.65593 0.22004 0.96462 0.0
C556 C 0.63392 0.17144 0.91951 0.0
C557 C 0.64572 0.17212 0.8971 0.0
C558 C 0.64394 0.1759 0.94222 0.0
C559 C 0.666 0.18122 0.9431 0.0
C560 C 0.67771 0.18279 0.92066 0.0
H561 H 0.68186 0.17058 0.10407 0.0
H562 H 0.69327 0.18667 0.06419 0.0
C563 C 0.66757 0.17849 0.89774 0.0
C564 C 0.67691 0.18155 0.96775 0.0
H565 H 0.66533 0.19598 0.0277 0.0
C566 C 0.69251 0.16559 0.97265 0.0
C567 C 0.66873 0.19404 0.98777 0.0
C568 C 0.65366 0.21286 0.98348 0.0
C569 C 0.69761 0.1597 -0.00273 0.0
C570 C 0.6865 0.16972 0.01727 0.0
C571 C 0.67346 0.18784 0.01239 0.0
C572 C 0.68414 0.15893 0.04188 0.0
C573 C 0.71362 0.14168 0.00155 0.0
C574 C 0.67551 0.13794 0.04261 0.0
C575 C 0.66889 0.12885 0.06516 0.0
C576 C 0.67062 0.14057 0.08755 0.0
C577 C 0.68037 0.16114 0.0871 0.0
C578 C 0.68691 0.17034 0.06436 0.0
H579 H 0.72685 0.1424 0.9875 0.0
H580 H 0.72078 0.14243 0.02058 0.0
H581 H 0.70534 0.12588 -0.00076 0.0
H582 H 0.6726 0.12902 0.02551 0.0
H583 H 0.66152 0.11295 0.06486 0.0
H584 H 0.8489 0.62869 0.93161 0.0
H585 H 0.8359 0.64103 0.97201 0.0
H586 H 0.81797 0.70245 0.93978 0.0
H587 H 0.83097 0.68996 0.89868 0.0
H588 H 0.84525 0.70562 0.98162 0.0
H589 H 0.77684 0.65212 0.00388 0.0
H590 H 0.79842 0.63657 0.99053 0.0
H591 H 0.78545 0.65728 0.9721 0.0
C592 C 0.84185 0.6447 0.93294 0.0
C593 C 0.84107 0.65842 0.91205 0.0
C594 C 0.83416 0.65165 0.95601 0.0
C595 C 0.82559 0.67251 0.95882 0.0
C596 C 0.82423 0.68617 0.93788 0.0
H597 H 0.81884 0.6703 0.12145 0.0
H598 H 0.80553 0.68533 0.08168 0.0
C599 C 0.83167 0.67904 0.9145 0.0
C600 C 0.82125 0.68043 0.98444 0.0
H601 H 0.80159 0.6603 0.03917 0.0
C602 C 0.83502 0.69638 0.99418 0.0
C603 C 0.8075 0.66888 0.0008 0.0
C604 C 0.79104 0.65293 0.99118 0.0
C605 C 0.83777 0.69863 0.02008 0.0
C606 C 0.82669 0.6844 0.03636 0.0
C607 C 0.81048 0.6709 0.02669 0.0
C608 C 0.83528 0.67933 0.06152 0.0
C609 C 0.85391 0.7149 0.02969 0.0
C610 C 0.85637 0.67108 0.06332 0.0
C611 C 0.86381 0.66227 0.08566 0.0
C612 C 0.85035 0.66153 0.10678 0.0
C613 C 0.82956 0.67073 0.10544 0.0
C614 C 0.82197 0.67935 0.08281 0.0
H615 H 0.85407 0.72956 0.01767 0.0
H616 H 0.85028 0.71973 0.04924 0.0
H617 H 0.87036 0.70771 0.02908 0.0
H618 H 0.86675 0.67034 0.04702 0.0
H619 H 0.87993 0.65541 0.08614 0.0
H620 H 0.31975 0.82782 0.10955 0.0
H621 H 0.30483 0.8168 0.06881 0.0
H622 H 0.36573 0.83225 0.03368 0.0
H623 H 0.38055 0.84315 0.07375 0.0
H624 H 0.30064 0.84451 0.02856 0.0
H625 H 0.35072 0.77535 9e-05 0.0
H626 H 0.34796 0.78343 0.03244 0.0
H627 H 0.36786 0.79608 0.01255 0.0
C628 C 0.33002 0.8284 0.09316 0.0
C629 C 0.35127 0.83647 0.09478 0.0
C630 C 0.3215 0.82208 0.06997 0.0
C631 C 0.33431 0.82328 0.04831 0.0
C632 C 0.35572 0.8306 0.05021 0.0
H633 H 0.34378 0.8809 0.92045 0.0
H634 H 0.3315 0.86716 0.96051 0.0
C635 C 0.3641 0.8371 0.07313 0.0
C636 C 0.32505 0.82005 0.02305 0.0
H637 H 0.34151 0.80136 0.96627 0.0
C638 C 0.30894 0.83444 0.015 0.0
C639 C 0.33531 0.80648 0.00538 0.0
C640 C 0.35124 0.7893 0.01318 0.0
C641 C 0.30522 0.83786 0.98943 0.0
C642 C 0.3182 0.82689 0.97172 0.0
C643 C 0.33189 0.81019 0.97982 0.0
C644 C 0.32175 0.83581 0.94634 0.0
C645 C 0.28867 0.85445 0.98165 0.0
C646 C 0.32049 0.82274 0.9249 0.0
C647 C 0.32764 0.83063 0.90173 0.0
C648 C 0.33659 0.85151 0.89991 0.0
C649 C 0.33708 0.86472 0.92125 0.0
C650 C 0.32976 0.85696 0.94416 0.0
H651 H 0.27469 0.8544 0.99472 0.0
H652 H 0.29607 0.8708 0.98238 0.0
H653 H 0.28271 0.85147 0.96237 0.0
H654 H 0.31466 0.80626 0.92627 0.0
H655 H 0.32714 0.82008 0.88558 0.0
H656 H 0.17579 0.68341 0.60335 0.0
H657 H 0.19229 0.69198 0.56271 0.0
H658 H 0.13202 0.67675 0.52603 0.0
H659 H 0.11557 0.66853 0.56607 0.0
H660 H 0.19798 0.6628 0.52649 0.0
H661 H 0.14995 0.72882 0.48655 0.0
H662 H 0.1501 0.72322 0.51973 0.0
H663 H 0.13158 0.70929 0.49919 0.0
C664 C 0.16595 0.68248 0.58663 0.0
C665 C 0.14443 0.67514 0.58787 0.0
C666 C 0.17539 0.6874 0.56346 0.0
C667 C 0.1633 0.6854 0.54133 0.0
C668 C 0.14154 0.67907 0.54282 0.0
H669 H 0.1624 0.6159 0.42026 0.0
H670 H 0.17204 0.63337 0.45927 0.0
C671 C 0.1322 0.67406 0.56578 0.0
C672 C 0.17371 0.68632 0.51638 0.0
H673 H 0.16024 0.69955 0.45655 0.0
C674 C 0.19032 0.67148 0.51124 0.0
C675 C 0.16438 0.6981 0.49644 0.0
C676 C 0.1482 0.71593 0.50089 0.0
C677 C 0.19547 0.66584 0.48655 0.0
C678 C 0.18336 0.67492 0.46672 0.0
C679 C 0.16915 0.69209 0.47176 0.0
C680 C 0.18141 0.66379 0.44229 0.0
C681 C 0.21267 0.649 0.48205 0.0
C682 C 0.18332 0.67506 0.41957 0.0
C683 C 0.17761 0.66503 0.397 0.0
C684 C 0.16952 0.64375 0.39697 0.0
C685 C 0.16847 0.63233 0.41963 0.0
C686 C 0.17428 0.64224 0.44199 0.0
H687 H 0.22599 0.65071 0.49585 0.0
H688 H 0.20557 0.63265 0.48457 0.0
H689 H 0.2195 0.6502 0.46289 0.0
H690 H 0.1885 0.6918 0.41942 0.0
H691 H 0.17854 0.67425 0.37981 0.0
H692 H 0.32748 0.18233 0.59369 0.0
H693 H 0.31611 0.1945 0.55185 0.0
H694 H 0.33699 0.13355 0.52086 0.0
H695 H 0.34832 0.12148 0.56205 0.0
H696 H 0.34499 0.19866 0.51214 0.0
H697 H 0.27962 0.14306 0.48503 0.0
H698 H 0.28673 0.14793 0.51735 0.0
H699 H 0.30123 0.1281 0.49918 0.0
C700 C 0.32916 0.17141 0.57797 0.0
C701 C 0.33891 0.15102 0.58105 0.0
C702 C 0.32265 0.17836 0.55416 0.0
C703 C 0.32533 0.16477 0.53334 0.0
C704 C 0.33423 0.1441 0.53672 0.0
H705 H 0.38439 0.15426 0.40533 0.0
H706 H 0.3698 0.16587 0.44531 0.0
C707 C 0.34096 0.13732 0.56026 0.0
C708 C 0.32207 0.17269 0.50749 0.0
H709 H 0.30518 0.15309 0.45127 0.0
C710 C 0.33561 0.18929 0.49885 0.0
C711 C 0.30946 0.16091 0.49015 0.0
C712 C 0.29326 0.14417 0.4985 0.0
C713 C 0.33916 0.19228 0.47318 0.0
C714 C 0.32913 0.17812 0.45597 0.0
C715 C 0.31324 0.16367 0.46449 0.0
C716 C 0.33829 0.17455 0.43073 0.0
C717 C 0.35496 0.20939 0.46481 0.0
C718 C 0.32538 0.17544 0.40915 0.0
C719 C 0.33377 0.16875 0.38604 0.0
C720 C 0.35499 0.16062 0.38442 0.0
C721 C 0.36796 0.16035 0.40597 0.0
C722 C 0.35971 0.16724 0.42882 0.0
H723 H 0.35448 0.22357 0.47756 0.0
H724 H 0.3716 0.20267 0.46539 0.0
H725 H 0.35149 0.21489 0.44545 0.0
H726 H 0.3087 0.18072 0.41033 0.0
H727 H 0.32339 0.16906 0.36972 0.0
H728 H 0.87869 0.3502 0.42118 0.0
H729 H 0.86636 0.3393 0.46244 0.0
H730 H 0.80569 0.31789 0.43126 0.0
H731 H 0.81809 0.32877 0.38936 0.0
H732 H 0.80152 0.34707 0.47133 0.0
H733 H 0.85699 0.28117 0.49749 0.0
H734 H 0.87179 0.3029 0.48333 0.0
H735 H 0.85183 0.28848 0.46528 0.0
C736 C 0.86284 0.34287 0.42294 0.0
C737 C 0.84931 0.34045 0.40205 0.0
C738 C 0.8559 0.3364 0.44654 0.0
C739 C 0.83527 0.3274 0.44985 0.0
C740 C 0.8218 0.3245 0.42899 0.0
H741 H 0.83195 0.32309 0.61316 0.0
H742 H 0.81937 0.30922 0.57254 0.0
C743 C 0.82888 0.33075 0.40514 0.0
C744 C 0.82735 0.32394 0.47564 0.0
H745 H 0.84673 0.3061 0.53157 0.0
C746 C 0.81081 0.33747 0.48448 0.0
C747 C 0.83903 0.31101 0.49276 0.0
C748 C 0.85573 0.29489 0.48414 0.0
C749 C 0.80779 0.34065 0.51021 0.0
C750 C 0.82184 0.33025 0.52726 0.0
C751 C 0.83621 0.31442 0.51848 0.0
C752 C 0.82553 0.33907 0.55263 0.0
C753 C 0.79076 0.35643 0.51883 0.0
C754 C 0.83305 0.36039 0.55483 0.0
C755 C 0.84046 0.36816 0.57767 0.0
C756 C 0.84049 0.35481 0.5989 0.0
C757 C 0.83202 0.33375 0.59708 0.0
C758 C 0.82482 0.32582 0.57396 0.0
H759 H 0.77657 0.35617 0.50609 0.0
H760 H 0.78526 0.35277 0.53814 0.0
H761 H 0.79756 0.37304 0.51848 0.0
H762 H 0.83429 0.37073 0.53853 0.0
H763 H 0.84681 0.38448 0.57852 0.0
H764 H 0.67438 0.8244 0.6227 0.0
H765 H 0.68953 0.81079 0.58313 0.0
H766 H 0.66476 0.86703 0.54488 0.0
H767 H 0.64971 0.88051 0.58379 0.0
H768 H 0.6644 0.80093 0.54158 0.0
H769 H 0.72502 0.86167 0.51481 0.0
H770 H 0.71641 0.85794 0.54686 0.0
H771 H 0.70124 0.87513 0.52599 0.0
C772 C 0.67258 0.834 0.60588 0.0
C773 C 0.66074 0.85345 0.60627 0.0
C774 C 0.68127 0.82624 0.58337 0.0
C775 C 0.67867 0.83812 0.56118 0.0
C776 C 0.6675 0.85787 0.56186 0.0
H777 H 0.62407 0.83836 0.43333 0.0
H778 H 0.63909 0.82813 0.47354 0.0
C779 C 0.65864 0.86544 0.58411 0.0
C780 C 0.68455 0.82905 0.53649 0.0
H781 H 0.70209 0.84775 0.48013 0.0
C782 C 0.67341 0.81062 0.52826 0.0
C783 C 0.69684 0.8412 0.51916 0.0
C784 C 0.71075 0.85994 0.52729 0.0
C785 C 0.67149 0.8061 0.50266 0.0
C786 C 0.68064 0.82058 0.48512 0.0
C787 C 0.69462 0.83691 0.49355 0.0
C788 C 0.67156 0.82273 0.45963 0.0
C789 C 0.65801 0.78704 0.49455 0.0
C790 C 0.68484 0.82319 0.4383 0.0
C791 C 0.67617 0.82909 0.41503 0.0
C792 C 0.65429 0.83513 0.41306 0.0
C793 C 0.64101 0.83393 0.4343 0.0
C794 C 0.64954 0.82778 0.45727 0.0
H795 H 0.65987 0.77338 0.50789 0.0
H796 H 0.64068 0.79174 0.49446 0.0
H797 H 0.66255 0.78147 0.47552 0.0
H798 H 0.70195 0.81969 0.43983 0.0
H799 H 0.68676 0.82995 0.39891 0.0
H800 H 0.16672 0.582 0.25838 0.0
H801 H 0.1722 0.54858 0.23441 0.0
H802 H 0.18154 0.5132 0.3031 0.0
H803 H 0.17511 0.54625 0.32705 0.0
H804 H 0.20261 0.51609 0.22928 0.0
H805 H 0.12824 0.48462 0.27475 0.0
H806 H 0.13677 0.51236 0.27784 0.0
H807 H 0.14913 0.49156 0.29658 0.0
C808 C 0.17044 0.56717 0.26828 0.0
C809 C 0.17016 0.56657 0.29453 0.0
C810 C 0.17353 0.54809 0.2546 0.0
C811 C 0.17663 0.52829 0.26703 0.0
C812 C 0.1785 0.52817 0.29317 0.0
H813 H 0.16743 0.39486 0.21457 0.0
H814 H 0.17892 0.42687 0.23817 0.0
C815 C 0.17497 0.54707 0.30682 0.0
C816 C 0.17575 0.5076 0.253 0.0
H817 H 0.14693 0.46063 0.24823 0.0
C818 C 0.1905 0.50392 0.23346 0.0
C819 C 0.15977 0.4918 0.25832 0.0
C820 C 0.14244 0.49532 0.27783 0.0
C821 C 0.18973 0.48482 0.21921 0.0
C822 C 0.17382 0.46909 0.22468 0.0
C823 C 0.15931 0.47262 0.24437 0.0
C824 C 0.17054 0.44964 0.20902 0.0
C825 C 0.20582 0.48155 0.19837 0.0
C826 C 0.16228 0.45188 0.18476 0.0
C827 C 0.15547 0.43372 0.17139 0.0
C828 C 0.15686 0.41294 0.18202 0.0
C829 C 0.16619 0.41063 0.20585 0.0
C830 C 0.17278 0.42888 0.21934 0.0
H831 H 0.21993 0.49257 0.20017 0.0
H832 H 0.21168 0.46457 0.19805 0.0
H833 H 0.19782 0.48488 0.18021 0.0
H834 H 0.16008 0.46779 0.17663 0.0
H835 H 0.14845 0.43605 0.15303 0.0
H836 H 0.56758 0.14768 0.14182 0.0
H837 H 0.53307 0.1598 0.15909 0.0
H838 H 0.56361 0.17033 0.23062 0.0
H839 H 0.59839 0.15919 0.21305 0.0
H840 H 0.51267 0.13874 0.19319 0.0
H841 H 0.52464 0.22149 0.22932 0.0
H842 H 0.54371 0.20884 0.20834 0.0
H843 H 0.54481 0.20353 0.24147 0.0
C844 C 0.56703 0.15313 0.16107 0.0
C845 C 0.58563 0.1524 0.17615 0.0
C846 C 0.5473 0.16008 0.17091 0.0
C847 C 0.54568 0.16616 0.19614 0.0
C848 C 0.56447 0.16632 0.21095 0.0
H849 H 0.45245 0.15476 0.30898 0.0
H850 H 0.48371 0.16292 0.28276 0.0
C851 C 0.58435 0.15976 0.20094 0.0
C852 C 0.52401 0.16924 0.20768 0.0
H853 H 0.49518 0.20102 0.24801 0.0
C854 C 0.50869 0.15265 0.20466 0.0
C855 C 0.51875 0.18734 0.22273 0.0
C856 C 0.5338 0.2064 0.22543 0.0
C857 C 0.48881 0.15309 0.21723 0.0
C858 C 0.48405 0.17062 0.23324 0.0
C859 C 0.49893 0.18763 0.23565 0.0
C860 C 0.46486 0.16999 0.24972 0.0
C861 C 0.47347 0.13425 0.21437 0.0
C862 C 0.44387 0.17201 0.23996 0.0
C863 C 0.42586 0.16741 0.25497 0.0
C864 C 0.4287 0.16051 0.27981 0.0
C865 C 0.44973 0.15982 0.28984 0.0
C866 C 0.46762 0.1646 0.27494 0.0
H867 H 0.48052 0.12094 0.20304 0.0
H868 H 0.46896 0.12774 0.23301 0.0
H869 H 0.45841 0.13982 0.20508 0.0
H870 H 0.44148 0.17617 0.22048 0.0
H871 H 0.40987 0.1681 0.24674 0.0
H872 H 0.84108 0.55514 0.16067 0.0
H873 H 0.83028 0.52082 0.17955 0.0
H874 H 0.82499 0.55208 0.25143 0.0
H875 H 0.83481 0.58664 0.23237 0.0
H876 H 0.85395 0.50089 0.21176 0.0
H877 H 0.77411 0.51294 0.25588 0.0
H878 H 0.78505 0.53181 0.23341 0.0
H879 H 0.79279 0.53334 0.26586 0.0
C880 C 0.83702 0.55479 0.18037 0.0
C881 C 0.83888 0.57353 0.19508 0.0
C882 C 0.83084 0.53517 0.19114 0.0
C883 C 0.82664 0.5338 0.21691 0.0
C884 C 0.82754 0.55274 0.23142 0.0
H885 H 0.84827 0.44022 0.32813 0.0
H886 H 0.83838 0.47188 0.30332 0.0
C887 C 0.83333 0.5725 0.22053 0.0
C888 C 0.82456 0.51227 0.22906 0.0
H889 H 0.79605 0.48377 0.27288 0.0
C890 C 0.84097 0.497 0.22465 0.0
C891 C 0.80769 0.50712 0.24599 0.0
C892 C 0.78881 0.52211 0.25034 0.0
C893 C 0.84155 0.47727 0.23751 0.0
C894 C 0.82531 0.47263 0.25528 0.0
C895 C 0.80848 0.48746 0.2592 0.0
C896 C 0.8271 0.45342 0.27159 0.0
C897 C 0.86011 0.46189 0.23292 0.0
C898 C 0.82334 0.43257 0.26217 0.0
C899 C 0.82891 0.41436 0.27636 0.0
C900 C 0.83855 0.41683 0.30002 0.0
C901 C 0.84106 0.43777 0.30989 0.0
C902 C 0.83531 0.45589 0.29582 0.0
H903 H 0.87232 0.46868 0.21984 0.0
H904 H 0.86824 0.45788 0.25085 0.0
H905 H 0.85382 0.44659 0.22488 0.0
H906 H 0.81704 0.43042 0.24344 0.0
H907 H 0.82678 0.39846 0.26825 0.0
H908 H 0.55715 0.82985 0.346 0.0
H909 H 0.52428 0.81983 0.32354 0.0
H910 H 0.56002 0.81916 0.25419 0.0
H911 H 0.59321 0.82819 0.27689 0.0
H912 H 0.50662 0.84583 0.2917 0.0
H913 H 0.52125 0.76856 0.2426 0.0
H914 H 0.53864 0.77807 0.2674 0.0
H915 H 0.54206 0.78791 0.23592 0.0
C916 C 0.5581 0.82693 0.32606 0.0
C917 C 0.57765 0.82989 0.31312 0.0
C918 C 0.53931 0.8212 0.31324 0.0
C919 C 0.53961 0.81863 0.28716 0.0
C920 C 0.55941 0.8205 0.27436 0.0
H921 H 0.45064 0.84258 0.17068 0.0
H922 H 0.48131 0.83223 0.19681 0.0
C923 C 0.57837 0.82581 0.28731 0.0
C924 C 0.51886 0.81735 0.27322 0.0
H925 H 0.49246 0.79099 0.22606 0.0
C926 C 0.50337 0.83352 0.27775 0.0
C927 C 0.51461 0.80139 0.25488 0.0
C928 C 0.52995 0.78289 0.2501 0.0
C929 C 0.48421 0.8347 0.26384 0.0
C930 C 0.48036 0.81926 0.24491 0.0
C931 C 0.4955 0.80275 0.24069 0.0
C932 C 0.46168 0.82156 0.2279 0.0
C933 C 0.46864 0.85306 0.2687 0.0
C934 C 0.44047 0.81832 0.23652 0.0
C935 C 0.42282 0.8242 0.2216 0.0
C936 C 0.4262 0.83358 0.19796 0.0
C937 C 0.44748 0.83561 0.18891 0.0
C938 C 0.46504 0.82958 0.20373 0.0
H939 H 0.47528 0.86512 0.28205 0.0
H940 H 0.46459 0.86144 0.25094 0.0
H941 H 0.4534 0.84649 0.27661 0.0
H942 H 0.43762 0.8121 0.25518 0.0
H943 H 0.40663 0.82239 0.22907 0.0
H944 H 0.82094 0.59725 0.7936 0.0
H945 H 0.81056 0.56396 0.77167 0.0
H946 H 0.86645 0.53156 0.8022 0.0
H947 H 0.87648 0.56421 0.82457 0.0
H948 H 0.83125 0.54298 0.73629 0.0
H949 H 0.82154 0.48672 0.81515 0.0
H950 H 0.82306 0.51563 0.81963 0.0
H951 H 0.8474 0.49961 0.81747 0.0
C952 C 0.83083 0.58292 0.79587 0.0
C953 C 0.84948 0.58337 0.81093 0.0
C954 C 0.82486 0.56391 0.78338 0.0
C955 C 0.83742 0.54507 0.78577 0.0
C956 C 0.85605 0.5456 0.80074 0.0
H957 H 0.87595 0.45032 0.6854 0.0
H958 H 0.86578 0.48264 0.70832 0.0
C959 C 0.8619 0.56443 0.81335 0.0
C960 C 0.83248 0.52534 0.77104 0.0
H961 H 0.83282 0.47029 0.77554 0.0
C962 C 0.83106 0.52711 0.74493 0.0
C963 C 0.83155 0.50459 0.78221 0.0
C964 C 0.8307 0.50158 0.81019 0.0
C965 C 0.83073 0.50866 0.72966 0.0
C966 C 0.83256 0.48795 0.74078 0.0
C967 C 0.83195 0.48615 0.76693 0.0
C968 C 0.83759 0.46836 0.72583 0.0
C969 C 0.82898 0.51164 0.70173 0.0
C970 C 0.8256 0.4492 0.72866 0.0
C971 C 0.83167 0.43039 0.71584 0.0
C972 C 0.84986 0.43045 0.70001 0.0
C973 C 0.86172 0.44971 0.6972 0.0
C974 C 0.85578 0.46834 0.71013 0.0
H975 H 0.81929 0.52625 0.69714 0.0
H976 H 0.8454 0.51404 0.69379 0.0
H977 H 0.82144 0.49739 0.69259 0.0
H978 H 0.81166 0.44877 0.74092 0.0
H979 H 0.82222 0.41581 0.71843 0.0
H980 H 0.55515 0.85007 0.67277 0.0
H981 H 0.52312 0.84017 0.69695 0.0
H982 H 0.56347 0.82336 0.75972 0.0
H983 H 0.59578 0.83318 0.73562 0.0
H984 H 0.51077 0.79999 0.72903 0.0
H985 H 0.52393 0.87803 0.77905 0.0
H986 H 0.53608 0.87256 0.74902 0.0
H987 H 0.54635 0.85956 0.77654 0.0
C988 C 0.5573 0.84382 0.69153 0.0
C989 C 0.578 0.8427 0.70241 0.0
C990 C 0.53897 0.83806 0.70525 0.0
C991 C 0.54098 0.8312 0.73011 0.0
C992 C 0.56166 0.82865 0.74052 0.0
H993 H 0.43966 0.84489 0.84112 0.0
H994 H 0.47384 0.8347 0.8215 0.0
C995 C 0.58008 0.83427 0.72673 0.0
C996 C 0.52141 0.82973 0.7459 0.0
H997 H 0.49247 0.85882 0.78841 0.0
C998 C 0.5068 0.81265 0.74229 0.0
C999 C 0.51636 0.84633 0.76307 0.0
C1000 C 0.53137 0.86527 0.76721 0.0
C1001 C 0.48708 0.81183 0.75539 0.0
C1002 C 0.48166 0.82889 0.77193 0.0
C1003 C 0.4966 0.84568 0.77585 0.0
C1004 C 0.46026 0.83061 0.78449 0.0
C1005 C 0.47236 0.79269 0.75145 0.0
C1006 C 0.44104 0.831 0.77043 0.0
C1007 C 0.42136 0.83644 0.78176 0.0
C1008 C 0.42069 0.84212 0.80718 0.0
C1009 C 0.43972 0.84074 0.82144 0.0
C1010 C 0.45927 0.8349 0.81025 0.0
H1011 H 0.48168 0.77811 0.74583 0.0
H1012 H 0.46298 0.78886 0.7686 0.0
H1013 H 0.46082 0.79642 0.73615 0.0
H1014 H 0.44141 0.82833 0.75043 0.0
H1015 H 0.40696 0.83756 0.77028 0.0
H1016 H 0.16761 0.41917 0.75554 0.0
H1017 H 0.17152 0.45295 0.7318 0.0
H1018 H 0.14967 0.4892 0.79588 0.0
H1019 H 0.14539 0.45574 0.81943 0.0
H1020 H 0.12543 0.49639 0.75366 0.0
H1021 H 0.21312 0.50512 0.733 0.0
H1022 H 0.20154 0.47927 0.72537 0.0
H1023 H 0.20301 0.48767 0.75746 0.0
C1024 C 0.16415 0.4344 0.76471 0.0
C1025 C 0.15597 0.43478 0.78926 0.0
C1026 C 0.16647 0.45369 0.75117 0.0
C1027 C 0.16094 0.47359 0.76212 0.0
C1028 C 0.154 0.47403 0.78707 0.0
H1029 H 0.16373 0.60637 0.70965 0.0
H1030 H 0.17194 0.57192 0.73033 0.0
C1031 C 0.15152 0.45486 0.80048 0.0
C1032 C 0.15969 0.49366 0.747 0.0
H1033 H 0.18929 0.5298 0.71278 0.0
C1034 C 0.13942 0.50369 0.74476 0.0
C1035 C 0.17797 0.50319 0.73553 0.0
C1036 C 0.2002 0.49341 0.73806 0.0
C1037 C 0.13688 0.52299 0.73138 0.0
C1038 C 0.15503 0.53234 0.71947 0.0
C1039 C 0.17539 0.52244 0.72178 0.0
C1040 C 0.15288 0.55256 0.70486 0.0
C1041 C 0.11479 0.53341 0.73044 0.0
C1042 C 0.14005 0.55292 0.68327 0.0
C1043 C 0.1352 0.5725 0.67154 0.0
C1044 C 0.14323 0.59212 0.68112 0.0
C1045 C 0.1572 0.59156 0.70189 0.0
C1046 C 0.16197 0.57191 0.71368 0.0
H1047 H 0.10383 0.52692 0.74509 0.0
H1048 H 0.11604 0.55121 0.73281 0.0
H1049 H 0.10731 0.53018 0.71195 0.0
H1050 H 0.13312 0.5381 0.67602 0.0
H1051 H 0.12462 0.57229 0.65541 0.0
H1052 H 0.44122 0.15396 0.65363 0.0
H1053 H 0.47229 0.16632 0.67791 0.0
H1054 H 0.42946 0.19118 0.73465 0.0
H1055 H 0.39811 0.17885 0.71045 0.0
H1056 H 0.48427 0.20935 0.70225 0.0
H1057 H 0.46698 0.14066 0.76681 0.0
H1058 H 0.4558 0.14194 0.73567 0.0
H1059 H 0.44516 0.15897 0.75988 0.0
C1060 C 0.43833 0.1624 0.67105 0.0
C1061 C 0.41718 0.16513 0.68029 0.0
C1062 C 0.45613 0.16956 0.68482 0.0
C1063 C 0.45312 0.17949 0.7081 0.0
C1064 C 0.43205 0.18347 0.71671 0.0
H1065 H 0.54805 0.18176 0.82695 0.0
H1066 H 0.51551 0.19005 0.80293 0.0
C1067 C 0.41418 0.17641 0.70286 0.0
C1068 C 0.47203 0.18306 0.72452 0.0
H1069 H 0.49812 0.16094 0.77446 0.0
C1070 C 0.48726 0.199 0.71826 0.0
C1071 C 0.47583 0.16943 0.74526 0.0
C1072 C 0.46022 0.15167 0.75236 0.0
C1073 C 0.50636 0.20161 0.73225 0.0
C1074 C 0.51049 0.1875 0.75257 0.0
C1075 C 0.49495 0.17187 0.75901 0.0
C1076 C 0.53113 0.18757 0.76681 0.0
C1077 C 0.52181 0.21947 0.72519 0.0
C1078 C 0.55102 0.18433 0.75459 0.0
C1079 C 0.56981 0.18003 0.76838 0.0
C1080 C 0.56882 0.17837 0.79454 0.0
C1081 C 0.54922 0.18284 0.80677 0.0
C1082 C 0.53061 0.18757 0.79306 0.0
H1083 H 0.51323 0.23298 0.71572 0.0
H1084 H 0.53037 0.22596 0.74183 0.0
H1085 H 0.53402 0.21303 0.71194 0.0
H1086 H 0.55181 0.18371 0.73438 0.0
H1087 H 0.58467 0.17641 0.7585 0.0
H1088 H 0.61293 0.07238 0.81736 0.0
H1089 H 0.62377 0.03829 0.79847 0.0
H1090 H 0.68113 0.06855 0.7686 0.0
H1091 H 0.66993 0.10316 0.78685 0.0
H1092 H 0.66224 0.0458 0.73395 0.0
H1093 H 0.66748 0.994 0.8174 0.0
H1094 H 0.64156 0.00691 0.81672 0.0
H1095 H 0.66573 0.02309 0.81961 0.0
C1096 C 0.628 0.0718 0.80703 0.0
C1097 C 0.64057 0.09052 0.80364 0.0
C1098 C 0.6343 0.05218 0.79644 0.0
C1099 C 0.65356 0.05066 0.78263 0.0
C1100 C 0.66631 0.06927 0.7794 0.0
H1101 H 0.67478 0.91835 0.72556 0.0
H1102 H 0.68314 0.95261 0.74668 0.0
C1103 C 0.65987 0.08904 0.7898 0.0
C1104 C 0.65908 0.03009 0.76977 0.0
H1105 H 0.65901 0.97538 0.77826 0.0
C1106 C 0.66203 0.03044 0.74374 0.0
C1107 C 0.65947 0.01 0.7825 0.0
C1108 C 0.65865 0.00853 0.81064 0.0
C1109 C 0.66351 0.01121 0.72994 0.0
C1110 C 0.66129 0.99112 0.74239 0.0
C1111 C 0.66022 0.99076 0.7686 0.0
C1112 C 0.65757 0.97067 0.72851 0.0
C1113 C 0.6669 0.01268 0.70205 0.0
C1114 C 0.64033 0.96939 0.71154 0.0
C1115 C 0.63563 0.95001 0.69942 0.0
C1116 C 0.64784 0.93128 0.70428 0.0
C1117 C 0.6651 0.9325 0.72136 0.0
C1118 C 0.66991 0.95205 0.73341 0.0
H1119 H 0.67651 0.02727 0.69713 0.0
H1120 H 0.67533 0.99816 0.69465 0.0
H1121 H 0.65097 0.01416 0.69265 0.0
H1122 H 0.6301 0.98329 0.70807 0.0
H1123 H 0.62208 0.94967 0.68659 0.0
H1124 H 0.90591 0.67358 0.77847 0.0
H1125 H 0.939 0.6833 0.75588 0.0
H1126 H 0.97509 0.68069 0.82485 0.0
H1127 H 0.94232 0.66997 0.84727 0.0
H1128 H 0.9701 0.71427 0.75707 0.0
H1129 H 0.00516 0.63501 0.78454 0.0
H1130 H 0.97729 0.64184 0.79035 0.0
H1131 H 0.99826 0.6518 0.81067 0.0
C1132 C 0.92084 0.67544 0.78886 0.0
C1133 C 0.92166 0.67064 0.81452 0.0
C1134 C 0.93974 0.68099 0.77594 0.0
C1135 C 0.95964 0.68209 0.78856 0.0
C1136 C 0.96005 0.67924 0.81459 0.0
H1137 H 0.0907 0.68412 0.72655 0.0
H1138 H 0.0603 0.69222 0.75451 0.0
C1139 C 0.9413 0.67324 0.8274 0.0
C1140 C 0.98009 0.68434 0.77422 0.0
H1141 H 0.0274 0.65816 0.76101 0.0
C1142 C 0.98269 0.70208 0.75805 0.0
C1143 C 0.99647 0.66831 0.77535 0.0
C1144 C 0.99413 0.64807 0.79095 0.0
C1145 C 0.00115 0.70409 0.74284 0.0
C1146 C 0.01734 0.688 0.74394 0.0
C1147 C 0.01503 0.67061 0.76053 0.0
C1148 C 0.03573 0.68741 0.72626 0.0
C1149 C 0.00313 0.72319 0.72547 0.0
C1150 C 0.03193 0.68237 0.7011 0.0
C1151 C 0.04918 0.67747 0.68523 0.0
C1152 C 0.07056 0.67761 0.69422 0.0
C1153 C 0.07443 0.68396 0.71906 0.0
C1154 C 0.0571 0.68859 0.73505 0.0
H1155 H 0.99204 0.73653 0.73088 0.0
H1156 H 0.02 0.72939 0.72524 0.0
H1157 H 0.99897 0.71802 0.70619 0.0
H1158 H 0.01555 0.68103 0.69408 0.0
H1159 H 0.04568 0.67271 0.66616 0.0
H1160 H 0.37111 0.05821 0.67153 0.0
H1161 H 0.36066 0.02601 0.69446 0.0
H1162 H 0.30522 0.05951 0.72448 0.0
H1163 H 0.31605 0.0924 0.70194 0.0
H1164 H 0.32556 0.03854 0.7602 0.0
H1165 H 0.31524 0.9816 0.68222 0.0
H1166 H 0.34123 0.99416 0.67956 0.0
H1167 H 0.31707 0.01044 0.67729 0.0
C1168 C 0.35653 0.05878 0.68275 0.0
C1169 C 0.34438 0.07792 0.68482 0.0
C1170 C 0.35044 0.04019 0.69568 0.0
C1171 C 0.33181 0.04008 0.71067 0.0
C1172 C 0.31951 0.05913 0.71276 0.0
H1173 H 0.31728 0.91134 0.77973 0.0
H1174 H 0.30627 0.94402 0.75692 0.0
C1175 C 0.32573 0.07791 0.69992 0.0
C1176 C 0.32664 0.02055 0.7257 0.0
H1177 H 0.32684 0.96546 0.72196 0.0
C1178 C 0.32529 0.02258 0.75179 0.0
C1179 C 0.32557 0.99969 0.71483 0.0
C1180 C 0.32459 0.9964 0.68691 0.0
C1181 C 0.32497 0.00428 0.76732 0.0
C1182 C 0.32677 0.98346 0.75649 0.0
C1183 C 0.32601 0.9814 0.73037 0.0
C1184 C 0.33203 0.96403 0.77166 0.0
C1185 C 0.32332 0.00754 0.79521 0.0
C1186 C 0.35027 0.96432 0.78726 0.0
C1187 C 0.35645 0.94585 0.80037 0.0
C1188 C 0.3448 0.92644 0.79784 0.0
C1189 C 0.32657 0.92605 0.78211 0.0
C1190 C 0.32024 0.94471 0.76911 0.0
H1191 H 0.31351 0.02212 0.79962 0.0
H1192 H 0.31593 0.99333 0.80461 0.0
H1193 H 0.33974 0.01018 0.80301 0.0
H1194 H 0.36013 0.97873 0.78886 0.0
H1195 H 0.37072 0.94672 0.81209 0.0
H1196 H 0.09968 0.33664 0.76169 0.0
H1197 H 0.06674 0.32642 0.73904 0.0
H1198 H 0.02781 0.3492 0.80048 0.0
H1199 H 0.06048 0.35956 0.8232 0.0
H1200 H 0.01456 0.30629 0.77218 0.0
H1201 H 0.02767 0.38102 0.71569 0.0
H1202 H 0.05003 0.3627 0.71998 0.0
H1203 H 0.03973 0.37757 0.74617 0.0
C1204 C 0.08414 0.33904 0.77062 0.0
C1205 C 0.08269 0.34918 0.79411 0.0
C1206 C 0.06537 0.33317 0.75766 0.0
C1207 C 0.04493 0.33717 0.76811 0.0
C1208 C 0.04347 0.34594 0.79219 0.0
H1209 H 0.91052 0.3422 0.72958 0.0
H1210 H 0.94505 0.33359 0.74958 0.0
C1211 C 0.06217 0.35196 0.80506 0.0
C1212 C 0.02511 0.33496 0.75289 0.0
H1213 H 0.99584 0.36168 0.70866 0.0
C1214 C 0.01049 0.31819 0.75804 0.0
C1215 C 0.01995 0.35055 0.73455 0.0
C1216 C 0.03504 0.36909 0.72869 0.0
C1217 C 0.99062 0.3167 0.74531 0.0
C1218 C 0.98509 0.33279 0.72756 0.0
C1219 C 1.00005 0.34927 0.72214 0.0
C1220 C 0.96359 0.33387 0.71518 0.0
C1221 C 0.97588 0.29789 0.75095 0.0
C1222 C 0.96237 0.33676 0.68918 0.0
C1223 C 0.94279 0.34226 0.67786 0.0
C1224 C 0.92393 0.34465 0.69226 0.0
C1225 C 0.92477 0.34025 0.71801 0.0
C1226 C 0.94451 0.33518 0.72944 0.0
H1227 H 0.98521 0.28362 0.75754 0.0
H1228 H 0.96452 0.30254 0.76609 0.0
H1229 H 0.9663 0.29313 0.73427 0.0
H1230 H 0.97682 0.33583 0.67776 0.0
H1231 H 0.94257 0.34544 0.65794 0.0
H1232 H 0.32521 0.09049 0.27198 0.0
H1233 H 0.31378 0.05632 0.25271 0.0
H1234 H 0.36818 0.02391 0.28664 0.0
H1235 H 0.37913 0.05744 0.3065 0.0
H1236 H 0.33357 0.03312 0.21931 0.0
H1237 H 0.32254 0.98068 0.30126 0.0
H1238 H 0.32493 0.00967 0.30416 0.0
H1239 H 0.34877 0.99283 0.30307 0.0
C1240 C 0.33449 0.07597 0.27566 0.0
C1241 C 0.35304 0.0767 0.29088 0.0
C1242 C 0.32793 0.05645 0.26465 0.0
C1243 C 0.33981 0.03737 0.26866 0.0
C1244 C 0.35824 0.03815 0.28394 0.0
H1245 H 0.37729 0.93799 0.17401 0.0
H1246 H 0.36699 0.97144 0.19447 0.0
C1247 C 0.36464 0.05748 0.29512 0.0
C1248 C 0.33452 0.01705 0.25509 0.0
H1249 H 0.33406 0.96225 0.26282 0.0
C1250 C 0.33314 0.01766 0.2289 0.0
C1251 C 0.33323 0.99682 0.26745 0.0
C1252 C 0.33218 0.99503 0.29555 0.0
C1253 C 0.33252 0.99856 0.21473 0.0
C1254 C 0.33409 0.97833 0.22703 0.0
C1255 C 0.33341 0.97771 0.25326 0.0
C1256 C 0.33899 0.95802 0.21326 0.0
C1257 C 0.33072 1.00035 0.18667 0.0
C1258 C 0.32712 0.93896 0.21752 0.0
C1259 C 0.3333 0.91948 0.20613 0.0
C1260 C 0.35147 0.91875 0.19029 0.0
C1261 C 0.36308 0.93794 0.18586 0.0
C1262 C 0.35706 0.95723 0.19739 0.0
H1263 H 0.32099 0.01474 0.18131 0.0
H1264 H 0.34711 0.00248 0.17856 0.0
H1265 H 0.32318 0.98573 0.17834 0.0
H1266 H 0.31326 0.9391 0.22992 0.0
H1267 H 0.32403 0.90499 0.20997 0.0
H1268 H 0.90468 0.31256 0.27858 0.0
H1269 H 0.9367 0.30031 0.2553 0.0
H1270 H 0.97381 0.35268 0.28694 0.0
H1271 H 0.94252 0.36448 0.31055 0.0
H1272 H 0.9586 0.32038 0.22004 0.0
H1273 H 0.01558 0.30444 0.29662 0.0
H1274 H 0.98694 0.3077 0.30209 0.0
H1275 H 0.00455 0.33097 0.30076 0.0
C1276 C 0.91978 0.32122 0.28083 0.0
C1277 C 0.92104 0.33943 0.29654 0.0
C1278 C 0.93806 0.3142 0.26755 0.0
C1279 C 0.95785 0.32523 0.26985 0.0
C1280 C 0.95901 0.34338 0.28551 0.0
H1281 H 0.05131 0.36467 0.1698 0.0
H1282 H 0.01902 0.35363 0.19221 0.0
C1283 C 0.94094 0.35027 0.29885 0.0
C1284 C 0.97692 0.31942 0.25433 0.0
H1285 H 0.03199 0.31722 0.25736 0.0
C1286 C 0.9746 0.3191 0.22822 0.0
C1287 C 0.9978 0.317 0.26484 0.0
C1288 C 0.00128 0.31478 0.29264 0.0
C1289 C 0.99275 0.31865 0.21245 0.0
C1290 C 0.01373 0.31927 0.22308 0.0
C1291 C 0.01596 0.31733 0.24911 0.0
C1292 C 0.03321 0.32465 0.20801 0.0
C1293 C 0.98918 0.31817 0.18456 0.0
C1294 C 0.05234 0.31247 0.21 0.0
C1295 C 0.07118 0.31907 0.19752 0.0
C1296 C 0.07116 0.33796 0.18284 0.0
C1297 C 0.0519 0.34992 0.18071 0.0
C1298 C 0.03326 0.34347 0.19333 0.0
H1299 H 0.97435 0.30886 0.17987 0.0
H1300 H 0.98679 0.33493 0.17765 0.0
H1301 H 0.00313 0.31086 0.17456 0.0
H1302 H 0.05279 0.29803 0.22147 0.0
H1303 H 0.08575 0.30951 0.19956 0.0
H1304 H 0.6328 0.9379 0.34131 0.0
H1305 H 0.63982 0.97097 0.3177 0.0
H1306 H 0.67589 0.93448 0.26312 0.0
H1307 H 0.66919 0.9012 0.2868 0.0
H1308 H 0.69392 0.97693 0.27565 0.0
H1309 H 0.60658 0.97897 0.2509 0.0
H1310 H 0.61222 0.97776 0.28382 0.0
H1311 H 0.61937 0.95535 0.2641 0.0
C1312 C 0.64248 0.93688 0.32447 0.0
C1313 C 0.65017 0.91683 0.31574 0.0
C1314 C 0.64646 0.95582 0.31101 0.0
C1315 C 0.65806 0.95508 0.2885 0.0
C1316 C 0.66685 0.93535 0.28045 0.0
H1317 H 0.6451 0.04351 0.16591 0.0
H1318 H 0.64951 0.01204 0.19284 0.0
C1319 C 0.66295 0.91635 0.29398 0.0
C1320 C 0.6593 0.97447 0.27231 0.0
H1321 H 0.62782 0.00851 0.23775 0.0
C1322 C 0.67951 0.9839 0.26733 0.0
C1323 C 0.64047 0.9833 0.2613 0.0
C1324 C 0.61843 0.97327 0.26506 0.0
C1325 C 0.68133 0.00214 0.25172 0.0
C1326 C 0.66243 0.01114 0.24106 0.0
C1327 C 0.64228 0.00162 0.24604 0.0
C1328 C 0.66293 0.02996 0.2239 0.0
C1329 C 0.70343 0.01136 0.2463 0.0
C1330 C 0.66947 0.05049 0.23225 0.0
C1331 C 0.66703 0.06864 0.21677 0.0
C1332 C 0.65779 0.06651 0.19286 0.0
C1333 C 0.65211 0.04577 0.18429 0.0
C1334 C 0.65465 0.02773 0.19964 0.0
H1335 H 0.71654 0.99989 0.25142 0.0
H1336 H 0.70502 0.01555 0.22619 0.0
H1337 H 0.70569 0.02639 0.25732 0.0
H1338 H 0.67556 0.05263 0.25106 0.0
H1339 H 0.67148 0.0844 0.22395 0.0
H1340 H 0.09705 0.66935 0.28961 0.0
H1341 H 0.06224 0.68063 0.27193 0.0
H1342 H 0.03217 0.62348 0.30258 0.0
H1343 H 0.06644 0.61262 0.32096 0.0
H1344 H 0.03949 0.66189 0.2377 0.0
H1345 H 0.98758 0.66678 0.321 0.0
H1346 H 0.01667 0.66507 0.32332 0.0
H1347 H 1.00051 0.64087 0.32048 0.0
C1348 C 0.08292 0.65939 0.29289 0.0
C1349 C 0.08451 0.64012 0.30677 0.0
C1350 C 0.06303 0.66587 0.28282 0.0
C1351 C 0.04441 0.65318 0.28637 0.0
C1352 C 0.04604 0.634 0.30031 0.0
H1353 H 0.9447 0.62004 0.18976 0.0
H1354 H 0.9778 0.62848 0.21205 0.0
C1355 C 0.06577 0.62766 0.31061 0.0
C1356 C 0.02378 0.65855 0.27351 0.0
H1357 H 0.96903 0.65766 0.28186 0.0
C1358 C 0.02412 0.66148 0.24748 0.0
C1359 C 0.00366 0.65868 0.28619 0.0
C1360 C 0.00214 0.65794 0.31433 0.0
C1361 C 0.00489 0.66264 0.23363 0.0
C1362 C 0.98482 0.66008 0.24603 0.0
C1363 C 0.98442 0.6591 0.27224 0.0
C1364 C 0.96451 0.65587 0.23205 0.0
C1365 C 0.00636 0.66602 0.20574 0.0
C1366 C 0.94563 0.66794 0.23654 0.0
C1367 C 0.92635 0.66289 0.224 0.0
C1368 C 0.92568 0.64564 0.20685 0.0
C1369 C 0.94462 0.63359 0.20259 0.0
C1370 C 0.96371 0.63853 0.21519 0.0
H1371 H 0.02079 0.67587 0.20084 0.0
H1372 H 0.00814 0.65011 0.19637 0.0
H1373 H 0.99172 0.67418 0.19828 0.0
H1374 H 0.94582 0.68123 0.24973 0.0
H1375 H 0.91202 0.67244 0.22775 0.0
loop_
_geom_bond_atom_site_label_1
_geom_bond_atom_site_label_2
_geom_bond_distance
_geom_bond_site_symmetry_2
_ccdc_geom_bond_type
Zn0 O3 2.031 . S
Zn0 O5 2.049 . S
Zn0 O10 2.067 . S
Zn1 O2 1.962 . S
Zn1 O4 1.986 . S
Zn1 O6 1.996 . S
Zn1 O9 1.943 . S
O2 Zn1 1.962 . S
O2 C7 1.254 . S
O3 Zn0 2.031 . S
O3 C7 1.269 . S
O4 Zn1 1.986 . S
O4 C11 1.262 . S
O5 Zn0 2.049 . S
O5 C13 1.260 . S
O6 Zn1 1.996 . S
O6 C13 1.257 . S
C7 O2 1.254 . S
C7 O3 1.269 . S
C8 O9 1.249 . S
C8 O10 1.270 . S
O9 Zn1 1.943 . S
O9 C8 1.249 . S
O10 Zn0 2.067 . S
O10 C8 1.270 . S
C11 O4 1.262 . S
C11 O12 1.232 . S
O12 C11 1.232 . S
C13 O5 1.260 . S
C13 O6 1.257 . S
Zn14 O17 2.031 . S
Zn14 O19 2.049 . S
Zn14 O24 2.067 . S
Zn15 O16 1.962 . S
Zn15 O18 1.986 . S
Zn15 O20 1.996 . S
Zn15 O23 1.943 . S
O16 Zn15 1.962 . S
O16 C21 1.254 . S
O17 Zn14 2.031 . S
O17 C21 1.269 . S
O18 Zn15 1.986 . S
O18 C25 1.262 . S
O19 Zn14 2.049 . S
O19 C27 1.260 . S
O20 Zn15 1.996 . S
O20 C27 1.257 . S
C21 O16 1.254 . S
C21 O17 1.269 . S
C22 O23 1.249 . S
C22 O24 1.270 . S
O23 Zn15 1.943 . S
O23 C22 1.249 . S
O24 Zn14 2.067 . S
O24 C22 1.270 . S
C25 O18 1.262 . S
C25 O26 1.232 . S
O26 C25 1.232 . S
C27 O19 1.260 . S
C27 O20 1.257 . S
Zn28 O31 2.031 . S
Zn28 O33 2.049 . S
Zn28 O38 2.067 . S
Zn29 O30 1.962 . S
Zn29 O32 1.986 . S
Zn29 O34 1.996 . S
Zn29 O37 1.943 . S
O30 Zn29 1.962 . S
O30 C35 1.254 . S
O31 Zn28 2.031 . S
O31 C35 1.269 . S
O32 Zn29 1.986 . S
O32 C39 1.262 . S
O33 Zn28 2.049 . S
O33 C41 1.260 . S
O34 Zn29 1.996 . S
O34 C41 1.257 . S
C35 O30 1.254 . S
C35 O31 1.269 . S
C36 O37 1.249 . S
C36 O38 1.270 . S
O37 Zn29 1.943 . S
O37 C36 1.249 . S
O38 Zn28 2.067 . S
O38 C36 1.270 . S
C39 O32 1.262 . S
C39 O40 1.232 . S
O40 C39 1.232 . S
C41 O33 1.260 . S
C41 O34 1.257 . S
Zn42 O45 2.031 . S
Zn42 O47 2.049 . S
Zn42 O52 2.067 . S
Zn43 O44 1.962 . S
Zn43 O46 1.986 . S
Zn43 O48 1.996 . S
Zn43 O51 1.943 . S
O44 Zn43 1.962 . S
O44 C49 1.254 . S
O45 Zn42 2.031 . S
O45 C49 1.269 . S
O46 Zn43 1.986 . S
O46 C53 1.262 . S
O47 Zn42 2.049 . S
O47 C55 1.260 . S
O48 Zn43 1.996 . S
O48 C55 1.257 . S
C49 O44 1.254 . S
C49 O45 1.269 . S
C50 O51 1.249 . S
C50 O52 1.270 . S
O51 Zn43 1.943 . S
O51 C50 1.249 . S
O52 Zn42 2.067 . S
O52 C50 1.270 . S
C53 O46 1.262 . S
C53 O54 1.232 . S
O54 C53 1.232 . S
C55 O47 1.260 . S
C55 O48 1.257 . S
Zn56 O59 2.031 . S
Zn56 O61 2.049 . S
Zn56 O66 2.067 . S
Zn57 O58 1.962 . S
Zn57 O60 1.986 . S
Zn57 O62 1.996 . S
Zn57 O65 1.943 . S
O58 Zn57 1.962 . S
O58 C63 1.254 . S
O59 Zn56 2.031 . S
O59 C63 1.269 . S
O60 Zn57 1.986 . S
O60 C67 1.262 . S
O61 Zn56 2.049 . S
O61 C69 1.260 . S
O62 Zn57 1.996 . S
O62 C69 1.257 . S
C63 O58 1.254 . S
C63 O59 1.269 . S
C64 O65 1.249 . S
C64 O66 1.270 . S
O65 Zn57 1.943 . S
O65 C64 1.249 . S
O66 Zn56 2.067 . S
O66 C64 1.270 . S
C67 O60 1.262 . S
C67 O68 1.232 . S
O68 C67 1.232 . S
C69 O61 1.260 . S
C69 O62 1.257 . S
Zn70 O73 2.031 . S
Zn70 O75 2.049 . S
Zn70 O80 2.067 . S
Zn71 O72 1.962 . S
Zn71 O74 1.986 . S
Zn71 O76 1.996 . S
Zn71 O79 1.943 . S
O72 Zn71 1.962 . S
O72 C77 1.254 . S
O73 Zn70 2.031 . S
O73 C77 1.269 . S
O74 Zn71 1.986 . S
O74 C81 1.262 . S
O75 Zn70 2.049 . S
O75 C83 1.260 . S
O76 Zn71 1.996 . S
O76 C83 1.257 . S
C77 O72 1.254 . S
C77 O73 1.269 . S
C78 O79 1.249 . S
C78 O80 1.270 . S
O79 Zn71 1.943 . S
O79 C78 1.249 . S
O80 Zn70 2.067 . S
O80 C78 1.270 . S
C81 O74 1.262 . S
C81 O82 1.232 . S
O82 C81 1.232 . S
C83 O75 1.260 . S
C83 O76 1.257 . S
Zn84 O87 2.031 . S
Zn84 O89 2.049 . S
Zn84 O94 2.067 . S
Zn85 O86 1.962 . S
Zn85 O88 1.986 . S
Zn85 O90 1.996 . S
Zn85 O93 1.943 . S
O86 Zn85 1.962 . S
O86 C91 1.254 . S
O87 Zn84 2.031 . S
O87 C91 1.269 . S
O88 Zn85 1.986 . S
O88 C95 1.262 . S
O89 Zn84 2.049 . S
O89 C97 1.260 . S
O90 Zn85 1.996 . S
O90 C97 1.257 . S
C91 O86 1.254 . S
C91 O87 1.269 . S
C92 O93 1.249 . S
C92 O94 1.270 . S
O93 Zn85 1.943 . S
O93 C92 1.249 . S
O94 Zn84 2.067 . S
O94 C92 1.270 . S
C95 O88 1.262 . S
C95 O96 1.232 . S
O96 C95 1.232 . S
C97 O89 1.260 . S
C97 O90 1.257 . S
Zn98 O101 2.031 . S
Zn98 O103 2.049 . S
Zn98 O108 2.067 . S
Zn99 O100 1.962 . S
Zn99 O102 1.986 . S
Zn99 O104 1.996 . S
Zn99 O107 1.943 . S
O100 Zn99 1.962 . S
O100 C105 1.254 . S
O101 Zn98 2.031 . S
O101 C105 1.269 . S
O102 Zn99 1.986 . S
O102 C109 1.262 . S
O103 Zn98 2.049 . S
O103 C111 1.260 . S
O104 Zn99 1.996 . S
O104 C111 1.257 . S
C105 O100 1.254 . S
C105 O101 1.269 . S
C106 O107 1.249 . S
C106 O108 1.270 . S
O107 Zn99 1.943 . S
O107 C106 1.249 . S
O108 Zn98 2.067 . S
O108 C106 1.270 . S
C109 O102 1.262 . S
C109 O110 1.232 . S
O110 C109 1.232 . S
C111 O103 1.260 . S
C111 O104 1.257 . S
Zn112 O115 2.031 . S
Zn112 O117 2.049 . S
Zn112 O122 2.067 . S
Zn113 O114 1.962 . S
Zn113 O116 1.986 . S
Zn113 O118 1.996 . S
Zn113 O121 1.943 . S
O114 Zn113 1.962 . S
O114 C119 1.254 . S
O115 Zn112 2.031 . S
O115 C119 1.269 . S
O116 Zn113 1.986 . S
O116 C123 1.262 . S
O117 Zn112 2.049 . S
O117 C125 1.260 . S
O118 Zn113 1.996 . S
O118 C125 1.257 . S
C119 O114 1.254 . S
C119 O115 1.269 . S
C120 O121 1.249 . S
C120 O122 1.270 . S
O121 Zn113 1.943 . S
O121 C120 1.249 . S
O122 Zn112 2.067 . S
O122 C120 1.270 . S
C123 O116 1.262 . S
C123 O124 1.232 . S
O124 C123 1.232 . S
C125 O117 1.260 . S
C125 O118 1.257 . S
Zn126 O129 2.031 . S
Zn126 O131 2.049 . S
Zn126 O136 2.067 . S
Zn127 O128 1.962 . S
Zn127 O130 1.986 . S
Zn127 O132 1.996 . S
Zn127 O135 1.943 . S
O128 Zn127 1.962 . S
O128 C133 1.254 . S
O129 Zn126 2.031 . S
O129 C133 1.269 . S
O130 Zn127 1.986 . S
O130 C137 1.262 . S
O131 Zn126 2.049 . S
O131 C139 1.260 . S
O132 Zn127 1.996 . S
O132 C139 1.257 . S
C133 O128 1.254 . S
C133 O129 1.269 . S
C134 O135 1.249 . S
C134 O136 1.270 . S
O135 Zn127 1.943 . S
O135 C134 1.249 . S
O136 Zn126 2.067 . S
O136 C134 1.270 . S
C137 O130 1.262 . S
C137 O138 1.232 . S
O138 C137 1.232 . S
C139 O131 1.260 . S
C139 O132 1.257 . S
Zn140 O143 2.031 . S
Zn140 O145 2.049 . S
Zn140 O150 2.067 . S
Zn141 O142 1.962 . S
Zn141 O144 1.986 . S
Zn141 O146 1.996 . S
Zn141 O149 1.943 . S
O142 Zn141 1.962 . S
O142 C147 1.254 . S
O143 Zn140 2.031 . S
O143 C147 1.269 . S
O144 Zn141 1.986 . S
O144 C151 1.262 . S
O145 Zn140 2.049 . S
O145 C153 1.260 . S
O146 Zn141 1.996 . S
O146 C153 1.257 . S
C147 O142 1.254 . S
C147 O143 1.269 . S
C148 O149 1.249 . S
C148 O150 1.270 . S
O149 Zn141 1.943 . S
O149 C148 1.249 . S
O150 Zn140 2.067 . S
O150 C148 1.270 . S
C151 O144 1.262 . S
C151 O152 1.232 . S
O152 C151 1.232 . S
C153 O145 1.260 . S
C153 O146 1.257 . S
Zn154 O157 2.031 . S
Zn154 O159 2.049 . S
Zn154 O164 2.067 . S
Zn155 O156 1.962 . S
Zn155 O158 1.986 . S
Zn155 O160 1.996 . S
Zn155 O163 1.943 . S
O156 Zn155 1.962 . S
O156 C161 1.254 . S
O157 Zn154 2.031 . S
O157 C161 1.269 . S
O158 Zn155 1.986 . S
O158 C165 1.262 . S
O159 Zn154 2.049 . S
O159 C167 1.260 . S
O160 Zn155 1.996 . S
O160 C167 1.257 . S
C161 O156 1.254 . S
C161 O157 1.269 . S
C162 O163 1.249 . S
C162 O164 1.270 . S
O163 Zn155 1.943 . S
O163 C162 1.249 . S
O164 Zn154 2.067 . S
O164 C162 1.270 . S
C165 O158 1.262 . S
C165 O166 1.232 . S
O166 C165 1.232 . S
C167 O159 1.260 . S
C167 O160 1.257 . S
Zn168 O171 2.031 . S
Zn168 O173 2.049 . S
Zn168 O178 2.067 . S
Zn169 O170 1.962 . S
Zn169 O172 1.986 . S
Zn169 O174 1.996 . S
Zn169 O177 1.943 . S
O170 Zn169 1.962 . S
O170 C175 1.254 . S
O171 Zn168 2.031 . S
O171 C175 1.269 . S
O172 Zn169 1.986 . S
O172 C179 1.262 . S
O173 Zn168 2.049 . S
O173 C181 1.260 . S
O174 Zn169 1.996 . S
O174 C181 1.257 . S
C175 O170 1.254 . S
C175 O171 1.269 . S
C176 O177 1.249 . S
C176 O178 1.270 . S
O177 Zn169 1.943 . S
O177 C176 1.249 . S
O178 Zn168 2.067 . S
O178 C176 1.270 . S
C179 O172 1.262 . S
C179 O180 1.232 . S
O180 C179 1.232 . S
C181 O173 1.260 . S
C181 O174 1.257 . S
Zn182 O185 2.031 . S
Zn182 O187 2.049 . S
Zn182 O192 2.067 . S
Zn183 O184 1.962 . S
Zn183 O186 1.986 . S
Zn183 O188 1.996 . S
Zn183 O191 1.943 . S
O184 Zn183 1.962 . S
O184 C189 1.254 . S
O185 Zn182 2.031 . S
O185 C189 1.269 . S
O186 Zn183 1.986 . S
O186 C193 1.262 . S
O187 Zn182 2.049 . S
O187 C195 1.260 . S
O188 Zn183 1.996 . S
O188 C195 1.257 . S
C189 O184 1.254 . S
C189 O185 1.269 . S
C190 O191 1.249 . S
C190 O192 1.270 . S
O191 Zn183 1.943 . S
O191 C190 1.249 . S
O192 Zn182 2.067 . S
O192 C190 1.270 . S
C193 O186 1.262 . S
C193 O194 1.232 . S
O194 C193 1.232 . S
C195 O187 1.260 . S
C195 O188 1.257 . S
Zn196 O199 2.031 . S
Zn196 O201 2.049 . S
Zn196 O206 2.067 . S
Zn197 O198 1.962 . S
Zn197 O200 1.986 . S
Zn197 O202 1.996 . S
Zn197 O205 1.943 . S
O198 Zn197 1.962 . S
O198 C203 1.254 . S
O199 Zn196 2.031 . S
O199 C203 1.269 . S
O200 Zn197 1.986 . S
O200 C207 1.262 . S
O201 Zn196 2.049 . S
O201 C209 1.260 . S
O202 Zn197 1.996 . S
O202 C209 1.257 . S
C203 O198 1.254 . S
C203 O199 1.269 . S
C204 O205 1.249 . S
C204 O206 1.270 . S
O205 Zn197 1.943 . S
O205 C204 1.249 . S
O206 Zn196 2.067 . S
O206 C204 1.270 . S
C207 O200 1.262 . S
C207 O208 1.232 . S
O208 C207 1.232 . S
C209 O201 1.260 . S
C209 O202 1.257 . S
Zn210 O213 2.031 . S
Zn210 O215 2.049 . S
Zn210 O220 2.067 . S
Zn211 O212 1.962 . S
Zn211 O214 1.986 . S
Zn211 O216 1.996 . S
Zn211 O219 1.943 . S
O212 Zn211 1.962 . S
O212 C217 1.254 . S
O213 Zn210 2.031 . S
O213 C217 1.269 . S
O214 Zn211 1.986 . S
O214 C221 1.262 . S
O215 Zn210 2.049 . S
O215 C223 1.260 . S
O216 Zn211 1.996 . S
O216 C223 1.257 . S
C217 O212 1.254 . S
C217 O213 1.269 . S
C218 O219 1.249 . S
C218 O220 1.270 . S
O219 Zn211 1.943 . S
O219 C218 1.249 . S
O220 Zn210 2.067 . S
O220 C218 1.270 . S
C221 O214 1.262 . S
C221 O222 1.232 . S
O222 C221 1.232 . S
C223 O215 1.260 . S
C223 O216 1.257 . S
H224 C232 0.929 . S
H225 C234 0.930 . S
H226 C236 0.930 . S
H227 C239 0.929 . S
H228 C242 0.930 . S
H229 C244 0.960 . S
H230 C244 0.960 . S
H231 C244 0.960 . S
C232 H224 0.929 . S
C232 C233 1.377 . S
C232 C234 1.384 . S
C233 C232 1.377 . S
C233 C239 1.390 . S
C234 H225 0.930 . S
C234 C232 1.384 . S
C234 C235 1.372 . S
C235 C234 1.372 . S
C235 C236 1.400 . S
C235 C240 1.490 . S
C236 H226 0.930 . S
C236 C235 1.400 . S
C236 C239 1.386 . S
H237 C253 0.930 . S
H238 C254 0.931 . S
C239 H227 0.929 . S
C239 C233 1.390 . S
C239 C236 1.386 . S
C240 C235 1.490 . S
C240 C242 1.395 . S
C240 C243 1.403 . S
H241 C247 0.930 . S
C242 H228 0.930 . S
C242 C240 1.395 . S
C242 C245 1.403 . S
C243 C240 1.403 . S
C243 C244 1.524 . S
C243 C247 1.400 . S
C244 H229 0.960 . S
C244 H230 0.960 . S
C244 H231 0.960 . S
C244 C243 1.524 . S
C245 C242 1.403 . S
C245 C246 1.392 . S
C245 C249 1.495 . S
C246 C245 1.392 . S
C246 C247 1.385 . S
C246 C248 1.478 . S
C247 H241 0.930 . S
C247 C243 1.400 . S
C247 C246 1.385 . S
C248 C246 1.478 . S
C248 C250 1.381 . S
C248 C254 1.383 . S
C249 C245 1.495 . S
C249 H255 0.959 . S
C249 H256 0.961 . S
C249 H257 0.960 . S
C250 C248 1.381 . S
C250 C251 1.394 . S
C250 H258 0.930 . S
C251 C250 1.394 . S
C251 C252 1.383 . S
C251 H259 0.929 . S
C252 C251 1.383 . S
C252 C253 1.377 . S
C253 H237 0.930 . S
C253 C252 1.377 . S
C253 C254 1.379 . S
C254 H238 0.931 . S
C254 C248 1.383 . S
C254 C253 1.379 . S
H255 C249 0.959 . S
H256 C249 0.961 . S
H257 C249 0.960 . S
H258 C250 0.930 . S
H259 C251 0.929 . S
H260 C268 0.929 . S
H261 C270 0.930 . S
H262 C272 0.930 . S
H263 C275 0.929 . S
H264 C278 0.930 . S
H265 C280 0.960 . S
H266 C280 0.960 . S
H267 C280 0.960 . S
C268 H260 0.929 . S
C268 C269 1.377 . S
C268 C270 1.384 . S
C269 C268 1.377 . S
C269 C275 1.390 . S
C270 H261 0.930 . S
C270 C268 1.384 . S
C270 C271 1.372 . S
C271 C270 1.372 . S
C271 C272 1.400 . S
C271 C276 1.490 . S
C272 H262 0.930 . S
C272 C271 1.400 . S
C272 C275 1.386 . S
H273 C289 0.930 . S
H274 C290 0.931 . S
C275 H263 0.929 . S
C275 C269 1.390 . S
C275 C272 1.386 . S
C276 C271 1.490 . S
C276 C278 1.395 . S
C276 C279 1.403 . S
H277 C283 0.930 . S
C278 H264 0.930 . S
C278 C276 1.395 . S
C278 C281 1.403 . S
C279 C276 1.403 . S
C279 C280 1.524 . S
C279 C283 1.400 . S
C280 H265 0.960 . S
C280 H266 0.960 . S
C280 H267 0.960 . S
C280 C279 1.524 . S
C281 C278 1.403 . S
C281 C282 1.392 . S
C281 C285 1.495 . S
C282 C281 1.392 . S
C282 C283 1.385 . S
C282 C284 1.478 . S
C283 H277 0.930 . S
C283 C279 1.400 . S
C283 C282 1.385 . S
C284 C282 1.478 . S
C284 C286 1.381 . S
C284 C290 1.383 . S
C285 C281 1.495 . S
C285 H291 0.959 . S
C285 H292 0.961 . S
C285 H293 0.960 . S
C286 C284 1.381 . S
C286 C287 1.394 . S
C286 H294 0.930 . S
C287 C286 1.394 . S
C287 C288 1.383 . S
C287 H295 0.929 . S
C288 C287 1.383 . S
C288 C289 1.377 . S
C289 H273 0.930 . S
C289 C288 1.377 . S
C289 C290 1.379 . S
C290 H274 0.931 . S
C290 C284 1.383 . S
C290 C289 1.379 . S
H291 C285 0.959 . S
H292 C285 0.961 . S
H293 C285 0.960 . S
H294 C286 0.930 . S
H295 C287 0.929 . S
H296 C304 0.929 . S
H297 C306 0.930 . S
H298 C308 0.930 . S
H299 C311 0.929 . S
H300 C314 0.930 . S
H301 C316 0.960 . S
H302 C316 0.960 . S
H303 C316 0.960 . S
C304 H296 0.929 . S
C304 C305 1.377 . S
C304 C306 1.384 . S
C305 C304 1.377 . S
C305 C311 1.390 . S
C306 H297 0.930 . S
C306 C304 1.384 . S
C306 C307 1.372 . S
C307 C306 1.372 . S
C307 C308 1.400 . S
C307 C312 1.490 . S
C308 H298 0.930 . S
C308 C307 1.400 . S
C308 C311 1.386 . S
H309 C325 0.930 . S
H310 C326 0.931 . S
C311 H299 0.929 . S
C311 C305 1.390 . S
C311 C308 1.386 . S
C312 C307 1.490 . S
C312 C314 1.395 . S
C312 C315 1.403 . S
H313 C319 0.930 . S
C314 H300 0.930 . S
C314 C312 1.395 . S
C314 C317 1.403 . S
C315 C312 1.403 . S
C315 C316 1.524 . S
C315 C319 1.400 . S
C316 H301 0.960 . S
C316 H302 0.960 . S
C316 H303 0.960 . S
C316 C315 1.524 . S
C317 C314 1.403 . S
C317 C318 1.392 . S
C317 C321 1.495 . S
C318 C317 1.392 . S
C318 C319 1.385 . S
C318 C320 1.478 . S
C319 H313 0.930 . S
C319 C315 1.400 . S
C319 C318 1.385 . S
C320 C318 1.478 . S
C320 C322 1.381 . S
C320 C326 1.383 . S
C321 C317 1.495 . S
C321 H327 0.959 . S
C321 H328 0.961 . S
C321 H329 0.960 . S
C322 C320 1.381 . S
C322 C323 1.394 . S
C322 H330 0.930 . S
C323 C322 1.394 . S
C323 C324 1.383 . S
C323 H331 0.929 . S
C324 C323 1.383 . S
C324 C325 1.377 . S
C325 H309 0.930 . S
C325 C324 1.377 . S
C325 C326 1.379 . S
C326 H310 0.931 . S
C326 C320 1.383 . S
C326 C325 1.379 . S
H327 C321 0.959 . S
H328 C321 0.961 . S
H329 C321 0.960 . S
H330 C322 0.930 . S
H331 C323 0.929 . S
H332 C340 0.929 . S
H333 C342 0.930 . S
H334 C344 0.930 . S
H335 C347 0.929 . S
H336 C350 0.930 . S
H337 C352 0.960 . S
H338 C352 0.960 . S
H339 C352 0.960 . S
C340 H332 0.929 . S
C340 C341 1.377 . S
C340 C342 1.384 . S
C341 C340 1.377 . S
C341 C347 1.390 . S
C342 H333 0.930 . S
C342 C340 1.384 . S
C342 C343 1.372 . S
C343 C342 1.372 . S
C343 C344 1.400 . S
C343 C348 1.490 . S
C344 H334 0.930 . S
C344 C343 1.400 . S
C344 C347 1.386 . S
H345 C361 0.930 . S
H346 C362 0.931 . S
C347 H335 0.929 . S
C347 C341 1.390 . S
C347 C344 1.386 . S
C348 C343 1.490 . S
C348 C350 1.395 . S
C348 C351 1.403 . S
H349 C355 0.930 . S
C350 H336 0.930 . S
C350 C348 1.395 . S
C350 C353 1.403 . S
C351 C348 1.403 . S
C351 C352 1.524 . S
C351 C355 1.400 . S
C352 H337 0.960 . S
C352 H338 0.960 . S
C352 H339 0.960 . S
C352 C351 1.524 . S
C353 C350 1.403 . S
C353 C354 1.392 . S
C353 C357 1.495 . S
C354 C353 1.392 . S
C354 C355 1.385 . S
C354 C356 1.478 . S
C355 H349 0.930 . S
C355 C351 1.400 . S
C355 C354 1.385 . S
C356 C354 1.478 . S
C356 C358 1.381 . S
C356 C362 1.383 . S
C357 C353 1.495 . S
C357 H363 0.959 . S
C357 H364 0.961 . S
C357 H365 0.960 . S
C358 C356 1.381 . S
C358 C359 1.394 . S
C358 H366 0.930 . S
C359 C358 1.394 . S
C359 C360 1.383 . S
C359 H367 0.929 . S
C360 C359 1.383 . S
C360 C361 1.377 . S
C361 H345 0.930 . S
C361 C360 1.377 . S
C361 C362 1.379 . S
C362 H346 0.931 . S
C362 C356 1.383 . S
C362 C361 1.379 . S
H363 C357 0.959 . S
H364 C357 0.961 . S
H365 C357 0.960 . S
H366 C358 0.930 . S
H367 C359 0.929 . S
H368 C376 0.929 . S
H369 C378 0.930 . S
H370 C380 0.930 . S
H371 C383 0.929 . S
H372 C386 0.930 . S
H373 C388 0.960 . S
H374 C388 0.960 . S
H375 C388 0.960 . S
C376 H368 0.929 . S
C376 C377 1.377 . S
C376 C378 1.384 . S
C377 C376 1.377 . S
C377 C383 1.390 . S
C378 H369 0.930 . S
C378 C376 1.384 . S
C378 C379 1.372 . S
C379 C378 1.372 . S
C379 C380 1.400 . S
C379 C384 1.490 . S
C380 H370 0.930 . S
C380 C379 1.400 . S
C380 C383 1.386 . S
H381 C397 0.930 . S
H382 C398 0.931 . S
C383 H371 0.929 . S
C383 C377 1.390 . S
C383 C380 1.386 . S
C384 C379 1.490 . S
C384 C386 1.395 . S
C384 C387 1.403 . S
H385 C391 0.930 . S
C386 H372 0.930 . S
C386 C384 1.395 . S
C386 C389 1.403 . S
C387 C384 1.403 . S
C387 C388 1.524 . S
C387 C391 1.400 . S
C388 H373 0.960 . S
C388 H374 0.960 . S
C388 H375 0.960 . S
C388 C387 1.524 . S
C389 C386 1.403 . S
C389 C390 1.392 . S
C389 C393 1.495 . S
C390 C389 1.392 . S
C390 C391 1.385 . S
C390 C392 1.478 . S
C391 H385 0.930 . S
C391 C387 1.400 . S
C391 C390 1.385 . S
C392 C390 1.478 . S
C392 C394 1.381 . S
C392 C398 1.383 . S
C393 C389 1.495 . S
C393 H399 0.959 . S
C393 H400 0.961 . S
C393 H401 0.960 . S
C394 C392 1.381 . S
C394 C395 1.394 . S
C394 H402 0.930 . S
C395 C394 1.394 . S
C395 C396 1.383 . S
C395 H403 0.929 . S
C396 C395 1.383 . S
C396 C397 1.377 . S
C397 H381 0.930 . S
C397 C396 1.377 . S
C397 C398 1.379 . S
C398 H382 0.931 . S
C398 C392 1.383 . S
C398 C397 1.379 . S
H399 C393 0.959 . S
H400 C393 0.961 . S
H401 C393 0.960 . S
H402 C394 0.930 . S
H403 C395 0.929 . S
H404 C412 0.929 . S
H405 C414 0.930 . S
H406 C416 0.930 . S
H407 C419 0.929 . S
H408 C422 0.930 . S
H409 C424 0.960 . S
H410 C424 0.960 . S
H411 C424 0.960 . S
C412 H404 0.929 . S
C412 C413 1.377 . S
C412 C414 1.384 . S
C413 C412 1.377 . S
C413 C419 1.390 . S
C414 H405 0.930 . S
C414 C412 1.384 . S
C414 C415 1.372 . S
C415 C414 1.372 . S
C415 C416 1.400 . S
C415 C420 1.490 . S
C416 H406 0.930 . S
C416 C415 1.400 . S
C416 C419 1.386 . S
H417 C433 0.930 . S
H418 C434 0.931 . S
C419 H407 0.929 . S
C419 C413 1.390 . S
C419 C416 1.386 . S
C420 C415 1.490 . S
C420 C422 1.395 . S
C420 C423 1.403 . S
H421 C427 0.930 . S
C422 H408 0.930 . S
C422 C420 1.395 . S
C422 C425 1.403 . S
C423 C420 1.403 . S
C423 C424 1.524 . S
C423 C427 1.400 . S
C424 H409 0.960 . S
C424 H410 0.960 . S
C424 H411 0.960 . S
C424 C423 1.524 . S
C425 C422 1.403 . S
C425 C426 1.392 . S
C425 C429 1.495 . S
C426 C425 1.392 . S
C426 C427 1.385 . S
C426 C428 1.478 . S
C427 H421 0.930 . S
C427 C423 1.400 . S
C427 C426 1.385 . S
C428 C426 1.478 . S
C428 C430 1.381 . S
C428 C434 1.383 . S
C429 C425 1.495 . S
C429 H435 0.959 . S
C429 H436 0.961 . S
C429 H437 0.960 . S
C430 C428 1.381 . S
C430 C431 1.394 . S
C430 H438 0.930 . S
C431 C430 1.394 . S
C431 C432 1.383 . S
C431 H439 0.929 . S
C432 C431 1.383 . S
C432 C433 1.377 . S
C433 H417 0.930 . S
C433 C432 1.377 . S
C433 C434 1.379 . S
C434 H418 0.931 . S
C434 C428 1.383 . S
C434 C433 1.379 . S
H435 C429 0.959 . S
H436 C429 0.961 . S
H437 C429 0.960 . S
H438 C430 0.930 . S
H439 C431 0.929 . S
H440 C448 0.929 . S
H441 C450 0.930 . S
H442 C452 0.930 . S
H443 C455 0.929 . S
H444 C458 0.930 . S
H445 C460 0.960 . S
H446 C460 0.960 . S
H447 C460 0.960 . S
C448 H440 0.929 . S
C448 C449 1.377 . S
C448 C450 1.384 . S
C449 C448 1.377 . S
C449 C455 1.390 . S
C450 H441 0.930 . S
C450 C448 1.384 . S
C450 C451 1.372 . S
C451 C450 1.372 . S
C451 C452 1.400 . S
C451 C456 1.490 . S
C452 H442 0.930 . S
C452 C451 1.400 . S
C452 C455 1.386 . S
H453 C469 0.930 . S
H454 C470 0.931 . S
C455 H443 0.929 . S
C455 C449 1.390 . S
C455 C452 1.386 . S
C456 C451 1.490 . S
C456 C458 1.395 . S
C456 C459 1.403 . S
H457 C463 0.930 . S
C458 H444 0.930 . S
C458 C456 1.395 . S
C458 C461 1.403 . S
C459 C456 1.403 . S
C459 C460 1.524 . S
C459 C463 1.400 . S
C460 H445 0.960 . S
C460 H446 0.960 . S
C460 H447 0.960 . S
C460 C459 1.524 . S
C461 C458 1.403 . S
C461 C462 1.392 . S
C461 C465 1.495 . S
C462 C461 1.392 . S
C462 C463 1.385 . S
C462 C464 1.478 . S
C463 H457 0.930 . S
C463 C459 1.400 . S
C463 C462 1.385 . S
C464 C462 1.478 . S
C464 C466 1.381 . S
C464 C470 1.383 . S
C465 C461 1.495 . S
C465 H471 0.959 . S
C465 H472 0.961 . S
C465 H473 0.960 . S
C466 C464 1.381 . S
C466 C467 1.394 . S
C466 H474 0.930 . S
C467 C466 1.394 . S
C467 C468 1.383 . S
C467 H475 0.929 . S
C468 C467 1.383 . S
C468 C469 1.377 . S
C469 H453 0.930 . S
C469 C468 1.377 . S
C469 C470 1.379 . S
C470 H454 0.931 . S
C470 C464 1.383 . S
C470 C469 1.379 . S
H471 C465 0.959 . S
H472 C465 0.961 . S
H473 C465 0.960 . S
H474 C466 0.930 . S
H475 C467 0.929 . S
H476 C484 0.929 . S
H477 C486 0.930 . S
H478 C488 0.930 . S
H479 C491 0.929 . S
H480 C494 0.930 . S
H481 C496 0.960 . S
H482 C496 0.960 . S
H483 C496 0.960 . S
C484 H476 0.929 . S
C484 C485 1.377 . S
C484 C486 1.384 . S
C485 C484 1.377 . S
C485 C491 1.390 . S
C486 H477 0.930 . S
C486 C484 1.384 . S
C486 C487 1.372 . S
C487 C486 1.372 . S
C487 C488 1.400 . S
C487 C492 1.490 . S
C488 H478 0.930 . S
C488 C487 1.400 . S
C488 C491 1.386 . S
H489 C505 0.930 . S
H490 C506 0.931 . S
C491 H479 0.929 . S
C491 C485 1.390 . S
C491 C488 1.386 . S
C492 C487 1.490 . S
C492 C494 1.395 . S
C492 C495 1.403 . S
H493 C499 0.930 . S
C494 H480 0.930 . S
C494 C492 1.395 . S
C494 C497 1.403 . S
C495 C492 1.403 . S
C495 C496 1.524 . S
C495 C499 1.400 . S
C496 H481 0.960 . S
C496 H482 0.960 . S
C496 H483 0.960 . S
C496 C495 1.524 . S
C497 C494 1.403 . S
C497 C498 1.392 . S
C497 C501 1.495 . S
C498 C497 1.392 . S
C498 C499 1.385 . S
C498 C500 1.478 . S
C499 H493 0.930 . S
C499 C495 1.400 . S
C499 C498 1.385 . S
C500 C498 1.478 . S
C500 C502 1.381 . S
C500 C506 1.383 . S
C501 C497 1.495 . S
C501 H507 0.959 . S
C501 H508 0.961 . S
C501 H509 0.960 . S
C502 C500 1.381 . S
C502 C503 1.394 . S
C502 H510 0.930 . S
C503 C502 1.394 . S
C503 C504 1.383 . S
C503 H511 0.929 . S
C504 C503 1.383 . S
C504 C505 1.377 . S
C505 H489 0.930 . S
C505 C504 1.377 . S
C505 C506 1.379 . S
C506 H490 0.931 . S
C506 C500 1.383 . S
C506 C505 1.379 . S
H507 C501 0.959 . S
H508 C501 0.961 . S
H509 C501 0.960 . S
H510 C502 0.930 . S
H511 C503 0.929 . S
H512 C520 0.929 . S
H513 C522 0.930 . S
H514 C524 0.930 . S
H515 C527 0.929 . S
H516 C530 0.930 . S
H517 C532 0.960 . S
H518 C532 0.960 . S
H519 C532 0.960 . S
C520 H512 0.929 . S
C520 C521 1.377 . S
C520 C522 1.384 . S
C521 C520 1.377 . S
C521 C527 1.390 . S
C522 H513 0.930 . S
C522 C520 1.384 . S
C522 C523 1.372 . S
C523 C522 1.372 . S
C523 C524 1.400 . S
C523 C528 1.490 . S
C524 H514 0.930 . S
C524 C523 1.400 . S
C524 C527 1.386 . S
H525 C541 0.930 . S
H526 C542 0.931 . S
C527 H515 0.929 . S
C527 C521 1.390 . S
C527 C524 1.386 . S
C528 C523 1.490 . S
C528 C530 1.395 . S
C528 C531 1.403 . S
H529 C535 0.930 . S
C530 H516 0.930 . S
C530 C528 1.395 . S
C530 C533 1.403 1_556 S
C531 C528 1.403 . S
C531 C532 1.524 . S
C531 C535 1.400 1_556 S
C532 H517 0.960 . S
C532 H518 0.960 . S
C532 H519 0.960 . S
C532 C531 1.524 . S
C533 C530 1.403 1_554 S
C533 C534 1.392 . S
C533 C537 1.495 . S
C534 C533 1.392 . S
C534 C535 1.385 . S
C534 C536 1.478 . S
C535 H529 0.930 . S
C535 C531 1.400 1_554 S
C535 C534 1.385 . S
C536 C534 1.478 . S
C536 C538 1.381 . S
C536 C542 1.383 . S
C537 C533 1.495 . S
C537 H543 0.959 . S
C537 H544 0.961 . S
C537 H545 0.960 . S
C538 C536 1.381 . S
C538 C539 1.394 . S
C538 H546 0.930 . S
C539 C538 1.394 . S
C539 C540 1.383 . S
C539 H547 0.929 . S
C540 C539 1.383 . S
C540 C541 1.377 . S
C541 H525 0.930 . S
C541 C540 1.377 . S
C541 C542 1.379 . S
C542 H526 0.931 . S
C542 C536 1.383 . S
C542 C541 1.379 . S
H543 C537 0.959 . S
H544 C537 0.961 . S
H545 C537 0.960 . S
H546 C538 0.930 . S
H547 C539 0.929 . S
H548 C556 0.929 . S
H549 C558 0.930 . S
H550 C560 0.930 . S
H551 C563 0.929 . S
H552 C566 0.930 . S
H553 C568 0.960 . S
H554 C568 0.960 . S
H555 C568 0.960 . S
C556 H548 0.929 . S
C556 C557 1.377 . S
C556 C558 1.384 . S
C557 C556 1.377 . S
C557 C563 1.390 . S
C558 H549 0.930 . S
C558 C556 1.384 . S
C558 C559 1.372 . S
C559 C558 1.372 . S
C559 C560 1.400 . S
C559 C564 1.490 . S
C560 H550 0.930 . S
C560 C559 1.400 . S
C560 C563 1.386 . S
H561 C577 0.930 . S
H562 C578 0.931 . S
C563 H551 0.929 . S
C563 C557 1.390 . S
C563 C560 1.386 . S
C564 C559 1.490 . S
C564 C566 1.395 . S
C564 C567 1.403 . S
H565 C571 0.930 . S
C566 H552 0.930 . S
C566 C564 1.395 . S
C566 C569 1.403 1_556 S
C567 C564 1.403 . S
C567 C568 1.524 . S
C567 C571 1.400 1_556 S
C568 H553 0.960 . S
C568 H554 0.960 . S
C568 H555 0.960 . S
C568 C567 1.524 . S
C569 C566 1.403 1_554 S
C569 C570 1.392 . S
C569 C573 1.495 . S
C570 C569 1.392 . S
C570 C571 1.385 . S
C570 C572 1.478 . S
C571 H565 0.930 . S
C571 C567 1.400 1_554 S
C571 C570 1.385 . S
C572 C570 1.478 . S
C572 C574 1.381 . S
C572 C578 1.383 . S
C573 C569 1.495 . S
C573 H579 0.959 . S
C573 H580 0.961 . S
C573 H581 0.960 . S
C574 C572 1.381 . S
C574 C575 1.394 . S
C574 H582 0.930 . S
C575 C574 1.394 . S
C575 C576 1.383 . S
C575 H583 0.929 . S
C576 C575 1.383 . S
C576 C577 1.377 . S
C577 H561 0.930 . S
C577 C576 1.377 . S
C577 C578 1.379 . S
C578 H562 0.931 . S
C578 C572 1.383 . S
C578 C577 1.379 . S
H579 C573 0.959 . S
H580 C573 0.961 . S
H581 C573 0.960 . S
H582 C574 0.930 . S
H583 C575 0.929 . S
H584 C592 0.929 . S
H585 C594 0.930 . S
H586 C596 0.930 . S
H587 C599 0.929 . S
H588 C602 0.930 . S
H589 C604 0.960 . S
H590 C604 0.960 . S
H591 C604 0.960 . S
C592 H584 0.929 . S
C592 C593 1.377 . S
C592 C594 1.384 . S
C593 C592 1.377 . S
C593 C599 1.390 . S
C594 H585 0.930 . S
C594 C592 1.384 . S
C594 C595 1.372 . S
C595 C594 1.372 . S
C595 C596 1.400 . S
C595 C600 1.490 . S
C596 H586 0.930 . S
C596 C595 1.400 . S
C596 C599 1.386 . S
H597 C613 0.930 . S
H598 C614 0.931 . S
C599 H587 0.929 . S
C599 C593 1.390 . S
C599 C596 1.386 . S
C600 C595 1.490 . S
C600 C602 1.395 . S
C600 C603 1.403 . S
H601 C607 0.930 . S
C602 H588 0.930 . S
C602 C600 1.395 . S
C602 C605 1.403 1_556 S
C603 C600 1.403 . S
C603 C604 1.524 . S
C603 C607 1.400 1_556 S
C604 H589 0.960 . S
C604 H590 0.960 . S
C604 H591 0.960 . S
C604 C603 1.524 . S
C605 C602 1.403 1_554 S
C605 C606 1.392 . S
C605 C609 1.495 . S
C606 C605 1.392 . S
C606 C607 1.385 . S
C606 C608 1.478 . S
C607 H601 0.930 . S
C607 C603 1.400 1_554 S
C607 C606 1.385 . S
C608 C606 1.478 . S
C608 C610 1.381 . S
C608 C614 1.383 . S
C609 C605 1.495 . S
C609 H615 0.959 . S
C609 H616 0.961 . S
C609 H617 0.960 . S
C610 C608 1.381 . S
C610 C611 1.394 . S
C610 H618 0.930 . S
C611 C610 1.394 . S
C611 C612 1.383 . S
C611 H619 0.929 . S
C612 C611 1.383 . S
C612 C613 1.377 . S
C613 H597 0.930 . S
C613 C612 1.377 . S
C613 C614 1.379 . S
C614 H598 0.931 . S
C614 C608 1.383 . S
C614 C613 1.379 . S
H615 C609 0.959 . S
H616 C609 0.961 . S
H617 C609 0.960 . S
H618 C610 0.930 . S
H619 C611 0.929 . S
H620 C628 0.929 . S
H621 C630 0.930 . S
H622 C632 0.930 . S
H623 C635 0.929 . S
H624 C638 0.930 . S
H625 C640 0.960 . S
H626 C640 0.960 . S
H627 C640 0.960 . S
C628 H620 0.929 . S
C628 C629 1.377 . S
C628 C630 1.384 . S
C629 C628 1.377 . S
C629 C635 1.390 . S
C630 H621 0.930 . S
C630 C628 1.384 . S
C630 C631 1.372 . S
C631 C630 1.372 . S
C631 C632 1.400 . S
C631 C636 1.490 . S
C632 H622 0.930 . S
C632 C631 1.400 . S
C632 C635 1.386 . S
H633 C649 0.930 . S
H634 C650 0.931 . S
C635 H623 0.929 . S
C635 C629 1.390 . S
C635 C632 1.386 . S
C636 C631 1.490 . S
C636 C638 1.395 . S
C636 C639 1.403 . S
H637 C643 0.930 . S
C638 H624 0.930 . S
C638 C636 1.395 . S
C638 C641 1.403 1_554 S
C639 C636 1.403 . S
C639 C640 1.524 . S
C639 C643 1.400 1_554 S
C640 H625 0.960 . S
C640 H626 0.960 . S
C640 H627 0.960 . S
C640 C639 1.524 . S
C641 C638 1.403 1_556 S
C641 C642 1.392 . S
C641 C645 1.495 . S
C642 C641 1.392 . S
C642 C643 1.385 . S
C642 C644 1.478 . S
C643 H637 0.930 . S
C643 C639 1.400 1_556 S
C643 C642 1.385 . S
C644 C642 1.478 . S
C644 C646 1.381 . S
C644 C650 1.383 . S
C645 C641 1.495 . S
C645 H651 0.959 . S
C645 H652 0.961 . S
C645 H653 0.960 . S
C646 C644 1.381 . S
C646 C647 1.394 . S
C646 H654 0.930 . S
C647 C646 1.394 . S
C647 C648 1.383 . S
C647 H655 0.929 . S
C648 C647 1.383 . S
C648 C649 1.377 . S
C649 H633 0.930 . S
C649 C648 1.377 . S
C649 C650 1.379 . S
C650 H634 0.931 . S
C650 C644 1.383 . S
C650 C649 1.379 . S
H651 C645 0.959 . S
H652 C645 0.961 . S
H653 C645 0.960 . S
H654 C646 0.930 . S
H655 C647 0.929 . S
H656 C664 0.929 . S
H657 C666 0.930 . S
H658 C668 0.930 . S
H659 C671 0.929 . S
H660 C674 0.930 . S
H661 C676 0.960 . S
H662 C676 0.960 . S
H663 C676 0.960 . S
C664 H656 0.929 . S
C664 C665 1.377 . S
C664 C666 1.384 . S
C665 C664 1.377 . S
C665 C671 1.390 . S
C666 H657 0.930 . S
C666 C664 1.384 . S
C666 C667 1.372 . S
C667 C666 1.372 . S
C667 C668 1.400 . S
C667 C672 1.490 . S
C668 H658 0.930 . S
C668 C667 1.400 . S
C668 C671 1.386 . S
H669 C685 0.930 . S
H670 C686 0.931 . S
C671 H659 0.929 . S
C671 C665 1.390 . S
C671 C668 1.386 . S
C672 C667 1.490 . S
C672 C674 1.395 . S
C672 C675 1.403 . S
H673 C679 0.930 . S
C674 H660 0.930 . S
C674 C672 1.395 . S
C674 C677 1.403 . S
C675 C672 1.403 . S
C675 C676 1.524 . S
C675 C679 1.400 . S
C676 H661 0.960 . S
C676 H662 0.960 . S
C676 H663 0.960 . S
C676 C675 1.524 . S
C677 C674 1.403 . S
C677 C678 1.392 . S
C677 C681 1.495 . S
C678 C677 1.392 . S
C678 C679 1.385 . S
C678 C680 1.478 . S
C679 H673 0.930 . S
C679 C675 1.400 . S
C679 C678 1.385 . S
C680 C678 1.478 . S
C680 C682 1.381 . S
C680 C686 1.383 . S
C681 C677 1.495 . S
C681 H687 0.959 . S
C681 H688 0.961 . S
C681 H689 0.960 . S
C682 C680 1.381 . S
C682 C683 1.394 . S
C682 H690 0.930 . S
C683 C682 1.394 . S
C683 C684 1.383 . S
C683 H691 0.929 . S
C684 C683 1.383 . S
C684 C685 1.377 . S
C685 H669 0.930 . S
C685 C684 1.377 . S
C685 C686 1.379 . S
C686 H670 0.931 . S
C686 C680 1.383 . S
C686 C685 1.379 . S
H687 C681 0.959 . S
H688 C681 0.961 . S
H689 C681 0.960 . S
H690 C682 0.930 . S
H691 C683 0.929 . S
H692 C700 0.929 . S
H693 C702 0.930 . S
H694 C704 0.930 . S
H695 C707 0.929 . S
H696 C710 0.930 . S
H697 C712 0.960 . S
H698 C712 0.960 . S
H699 C712 0.960 . S
C700 H692 0.929 . S
C700 C701 1.377 . S
C700 C702 1.384 . S
C701 C700 1.377 . S
C701 C707 1.390 . S
C702 H693 0.930 . S
C702 C700 1.384 . S
C702 C703 1.372 . S
C703 C702 1.372 . S
C703 C704 1.400 . S
C703 C708 1.490 . S
C704 H694 0.930 . S
C704 C703 1.400 . S
C704 C707 1.386 . S
H705 C721 0.930 . S
H706 C722 0.931 . S
C707 H695 0.929 . S
C707 C701 1.390 . S
C707 C704 1.386 . S
C708 C703 1.490 . S
C708 C710 1.395 . S
C708 C711 1.403 . S
H709 C715 0.930 . S
C710 H696 0.930 . S
C710 C708 1.395 . S
C710 C713 1.403 . S
C711 C708 1.403 . S
C711 C712 1.524 . S
C711 C715 1.400 . S
C712 H697 0.960 . S
C712 H698 0.960 . S
C712 H699 0.960 . S
C712 C711 1.524 . S
C713 C710 1.403 . S
C713 C714 1.392 . S
C713 C717 1.495 . S
C714 C713 1.392 . S
C714 C715 1.385 . S
C714 C716 1.478 . S
C715 H709 0.930 . S
C715 C711 1.400 . S
C715 C714 1.385 . S
C716 C714 1.478 . S
C716 C718 1.381 . S
C716 C722 1.383 . S
C717 C713 1.495 . S
C717 H723 0.959 . S
C717 H724 0.961 . S
C717 H725 0.960 . S
C718 C716 1.381 . S
C718 C719 1.394 . S
C718 H726 0.930 . S
C719 C718 1.394 . S
C719 C720 1.383 . S
C719 H727 0.929 . S
C720 C719 1.383 . S
C720 C721 1.377 . S
C721 H705 0.930 . S
C721 C720 1.377 . S
C721 C722 1.379 . S
C722 H706 0.931 . S
C722 C716 1.383 . S
C722 C721 1.379 . S
H723 C717 0.959 . S
H724 C717 0.961 . S
H725 C717 0.960 . S
H726 C718 0.930 . S
H727 C719 0.929 . S
H728 C736 0.929 . S
H729 C738 0.930 . S
H730 C740 0.930 . S
H731 C743 0.929 . S
H732 C746 0.930 . S
H733 C748 0.960 . S
H734 C748 0.960 . S
H735 C748 0.960 . S
C736 H728 0.929 . S
C736 C737 1.377 . S
C736 C738 1.384 . S
C737 C736 1.377 . S
C737 C743 1.390 . S
C738 H729 0.930 . S
C738 C736 1.384 . S
C738 C739 1.372 . S
C739 C738 1.372 . S
C739 C740 1.400 . S
C739 C744 1.490 . S
C740 H730 0.930 . S
C740 C739 1.400 . S
C740 C743 1.386 . S
H741 C757 0.930 . S
H742 C758 0.931 . S
C743 H731 0.929 . S
C743 C737 1.390 . S
C743 C740 1.386 . S
C744 C739 1.490 . S
C744 C746 1.395 . S
C744 C747 1.403 . S
H745 C751 0.930 . S
C746 H732 0.930 . S
C746 C744 1.395 . S
C746 C749 1.403 . S
C747 C744 1.403 . S
C747 C748 1.524 . S
C747 C751 1.400 . S
C748 H733 0.960 . S
C748 H734 0.960 . S
C748 H735 0.960 . S
C748 C747 1.524 . S
C749 C746 1.403 . S
C749 C750 1.392 . S
C749 C753 1.495 . S
C750 C749 1.392 . S
C750 C751 1.385 . S
C750 C752 1.478 . S
C751 H745 0.930 . S
C751 C747 1.400 . S
C751 C750 1.385 . S
C752 C750 1.478 . S
C752 C754 1.381 . S
C752 C758 1.383 . S
C753 C749 1.495 . S
C753 H759 0.959 . S
C753 H760 0.961 . S
C753 H761 0.960 . S
C754 C752 1.381 . S
C754 C755 1.394 . S
C754 H762 0.930 . S
C755 C754 1.394 . S
C755 C756 1.383 . S
C755 H763 0.929 . S
C756 C755 1.383 . S
C756 C757 1.377 . S
C757 H741 0.930 . S
C757 C756 1.377 . S
C757 C758 1.379 . S
C758 H742 0.931 . S
C758 C752 1.383 . S
C758 C757 1.379 . S
H759 C753 0.959 . S
H760 C753 0.961 . S
H761 C753 0.960 . S
H762 C754 0.930 . S
H763 C755 0.929 . S
H764 C772 0.929 . S
H765 C774 0.930 . S
H766 C776 0.930 . S
H767 C779 0.929 . S
H768 C782 0.930 . S
H769 C784 0.960 . S
H770 C784 0.960 . S
H771 C784 0.960 . S
C772 H764 0.929 . S
C772 C773 1.377 . S
C772 C774 1.384 . S
C773 C772 1.377 . S
C773 C779 1.390 . S
C774 H765 0.930 . S
C774 C772 1.384 . S
C774 C775 1.372 . S
C775 C774 1.372 . S
C775 C776 1.400 . S
C775 C780 1.490 . S
C776 H766 0.930 . S
C776 C775 1.400 . S
C776 C779 1.386 . S
H777 C793 0.930 . S
H778 C794 0.931 . S
C779 H767 0.929 . S
C779 C773 1.390 . S
C779 C776 1.386 . S
C780 C775 1.490 . S
C780 C782 1.395 . S
C780 C783 1.403 . S
H781 C787 0.930 . S
C782 H768 0.930 . S
C782 C780 1.395 . S
C782 C785 1.403 . S
C783 C780 1.403 . S
C783 C784 1.524 . S
C783 C787 1.400 . S
C784 H769 0.960 . S
C784 H770 0.960 . S
C784 H771 0.960 . S
C784 C783 1.524 . S
C785 C782 1.403 . S
C785 C786 1.392 . S
C785 C789 1.495 . S
C786 C785 1.392 . S
C786 C787 1.385 . S
C786 C788 1.478 . S
C787 H781 0.930 . S
C787 C783 1.400 . S
C787 C786 1.385 . S
C788 C786 1.478 . S
C788 C790 1.381 . S
C788 C794 1.383 . S
C789 C785 1.495 . S
C789 H795 0.959 . S
C789 H796 0.961 . S
C789 H797 0.960 . S
C790 C788 1.381 . S
C790 C791 1.394 . S
C790 H798 0.930 . S
C791 C790 1.394 . S
C791 C792 1.383 . S
C791 H799 0.929 . S
C792 C791 1.383 . S
C792 C793 1.377 . S
C793 H777 0.930 . S
C793 C792 1.377 . S
C793 C794 1.379 . S
C794 H778 0.931 . S
C794 C788 1.383 . S
C794 C793 1.379 . S
H795 C789 0.959 . S
H796 C789 0.961 . S
H797 C789 0.960 . S
H798 C790 0.930 . S
H799 C791 0.929 . S
H800 C808 0.929 . S
H801 C810 0.930 . S
H802 C812 0.930 . S
H803 C815 0.929 . S
H804 C818 0.930 . S
H805 C820 0.960 . S
H806 C820 0.960 . S
H807 C820 0.960 . S
C808 H800 0.929 . S
C808 C809 1.377 . S
C808 C810 1.384 . S
C809 C808 1.377 . S
C809 C815 1.390 . S
C810 H801 0.930 . S
C810 C808 1.384 . S
C810 C811 1.372 . S
C811 C810 1.372 . S
C811 C812 1.400 . S
C811 C816 1.490 . S
C812 H802 0.930 . S
C812 C811 1.400 . S
C812 C815 1.386 . S
H813 C829 0.930 . S
H814 C830 0.931 . S
C815 H803 0.929 . S
C815 C809 1.390 . S
C815 C812 1.386 . S
C816 C811 1.490 . S
C816 C818 1.395 . S
C816 C819 1.403 . S
H817 C823 0.930 . S
C818 H804 0.930 . S
C818 C816 1.395 . S
C818 C821 1.403 . S
C819 C816 1.403 . S
C819 C820 1.524 . S
C819 C823 1.400 . S
C820 H805 0.960 . S
C820 H806 0.960 . S
C820 H807 0.960 . S
C820 C819 1.524 . S
C821 C818 1.403 . S
C821 C822 1.392 . S
C821 C825 1.495 . S
C822 C821 1.392 . S
C822 C823 1.385 . S
C822 C824 1.478 . S
C823 H817 0.930 . S
C823 C819 1.400 . S
C823 C822 1.385 . S
C824 C822 1.478 . S
C824 C826 1.381 . S
C824 C830 1.383 . S
C825 C821 1.495 . S
C825 H831 0.959 . S
C825 H832 0.961 . S
C825 H833 0.960 . S
C826 C824 1.381 . S
C826 C827 1.394 . S
C826 H834 0.930 . S
C827 C826 1.394 . S
C827 C828 1.383 . S
C827 H835 0.929 . S
C828 C827 1.383 . S
C828 C829 1.377 . S
C829 H813 0.930 . S
C829 C828 1.377 . S
C829 C830 1.379 . S
C830 H814 0.931 . S
C830 C824 1.383 . S
C830 C829 1.379 . S
H831 C825 0.959 . S
H832 C825 0.961 . S
H833 C825 0.960 . S
H834 C826 0.930 . S
H835 C827 0.929 . S
H836 C844 0.929 . S
H837 C846 0.930 . S
H838 C848 0.930 . S
H839 C851 0.929 . S
H840 C854 0.930 . S
H841 C856 0.960 . S
H842 C856 0.960 . S
H843 C856 0.960 . S
C844 H836 0.929 . S
C844 C845 1.377 . S
C844 C846 1.384 . S
C845 C844 1.377 . S
C845 C851 1.390 . S
C846 H837 0.930 . S
C846 C844 1.384 . S
C846 C847 1.372 . S
C847 C846 1.372 . S
C847 C848 1.400 . S
C847 C852 1.490 . S
C848 H838 0.930 . S
C848 C847 1.400 . S
C848 C851 1.386 . S
H849 C865 0.930 . S
H850 C866 0.931 . S
C851 H839 0.929 . S
C851 C845 1.390 . S
C851 C848 1.386 . S
C852 C847 1.490 . S
C852 C854 1.395 . S
C852 C855 1.403 . S
H853 C859 0.930 . S
C854 H840 0.930 . S
C854 C852 1.395 . S
C854 C857 1.403 . S
C855 C852 1.403 . S
C855 C856 1.524 . S
C855 C859 1.400 . S
C856 H841 0.960 . S
C856 H842 0.960 . S
C856 H843 0.960 . S
C856 C855 1.524 . S
C857 C854 1.403 . S
C857 C858 1.392 . S
C857 C861 1.495 . S
C858 C857 1.392 . S
C858 C859 1.385 . S
C858 C860 1.478 . S
C859 H853 0.930 . S
C859 C855 1.400 . S
C859 C858 1.385 . S
C860 C858 1.478 . S
C860 C862 1.381 . S
C860 C866 1.383 . S
C861 C857 1.495 . S
C861 H867 0.959 . S
C861 H868 0.961 . S
C861 H869 0.960 . S
C862 C860 1.381 . S
C862 C863 1.394 . S
C862 H870 0.930 . S
C863 C862 1.394 . S
C863 C864 1.383 . S
C863 H871 0.929 . S
C864 C863 1.383 . S
C864 C865 1.377 . S
C865 H849 0.930 . S
C865 C864 1.377 . S
C865 C866 1.379 . S
C866 H850 0.931 . S
C866 C860 1.383 . S
C866 C865 1.379 . S
H867 C861 0.959 . S
H868 C861 0.961 . S
H869 C861 0.960 . S
H870 C862 0.930 . S
H871 C863 0.929 . S
H872 C880 0.929 . S
H873 C882 0.930 . S
H874 C884 0.930 . S
H875 C887 0.929 . S
H876 C890 0.930 . S
H877 C892 0.960 . S
H878 C892 0.960 . S
H879 C892 0.960 . S
C880 H872 0.929 . S
C880 C881 1.377 . S
C880 C882 1.384 . S
C881 C880 1.377 . S
C881 C887 1.390 . S
C882 H873 0.930 . S
C882 C880 1.384 . S
C882 C883 1.372 . S
C883 C882 1.372 . S
C883 C884 1.400 . S
C883 C888 1.490 . S
C884 H874 0.930 . S
C884 C883 1.400 . S
C884 C887 1.386 . S
H885 C901 0.930 . S
H886 C902 0.931 . S
C887 H875 0.929 . S
C887 C881 1.390 . S
C887 C884 1.386 . S
C888 C883 1.490 . S
C888 C890 1.395 . S
C888 C891 1.403 . S
H889 C895 0.930 . S
C890 H876 0.930 . S
C890 C888 1.395 . S
C890 C893 1.403 . S
C891 C888 1.403 . S
C891 C892 1.524 . S
C891 C895 1.400 . S
C892 H877 0.960 . S
C892 H878 0.960 . S
C892 H879 0.960 . S
C892 C891 1.524 . S
C893 C890 1.403 . S
C893 C894 1.392 . S
C893 C897 1.495 . S
C894 C893 1.392 . S
C894 C895 1.385 . S
C894 C896 1.478 . S
C895 H889 0.930 . S
C895 C891 1.400 . S
C895 C894 1.385 . S
C896 C894 1.478 . S
C896 C898 1.381 . S
C896 C902 1.383 . S
C897 C893 1.495 . S
C897 H903 0.959 . S
C897 H904 0.961 . S
C897 H905 0.960 . S
C898 C896 1.381 . S
C898 C899 1.394 . S
C898 H906 0.930 . S
C899 C898 1.394 . S
C899 C900 1.383 . S
C899 H907 0.929 . S
C900 C899 1.383 . S
C900 C901 1.377 . S
C901 H885 0.930 . S
C901 C900 1.377 . S
C901 C902 1.379 . S
C902 H886 0.931 . S
C902 C896 1.383 . S
C902 C901 1.379 . S
H903 C897 0.959 . S
H904 C897 0.961 . S
H905 C897 0.960 . S
H906 C898 0.930 . S
H907 C899 0.929 . S
H908 C916 0.929 . S
H909 C918 0.930 . S
H910 C920 0.930 . S
H911 C923 0.929 . S
H912 C926 0.930 . S
H913 C928 0.960 . S
H914 C928 0.960 . S
H915 C928 0.960 . S
C916 H908 0.929 . S
C916 C917 1.377 . S
C916 C918 1.384 . S
C917 C916 1.377 . S
C917 C923 1.390 . S
C918 H909 0.930 . S
C918 C916 1.384 . S
C918 C919 1.372 . S
C919 C918 1.372 . S
C919 C920 1.400 . S
C919 C924 1.490 . S
C920 H910 0.930 . S
C920 C919 1.400 . S
C920 C923 1.386 . S
H921 C937 0.930 . S
H922 C938 0.931 . S
C923 H911 0.929 . S
C923 C917 1.390 . S
C923 C920 1.386 . S
C924 C919 1.490 . S
C924 C926 1.395 . S
C924 C927 1.403 . S
H925 C931 0.930 . S
C926 H912 0.930 . S
C926 C924 1.395 . S
C926 C929 1.403 . S
C927 C924 1.403 . S
C927 C928 1.524 . S
C927 C931 1.400 . S
C928 H913 0.960 . S
C928 H914 0.960 . S
C928 H915 0.960 . S
C928 C927 1.524 . S
C929 C926 1.403 . S
C929 C930 1.392 . S
C929 C933 1.495 . S
C930 C929 1.392 . S
C930 C931 1.385 . S
C930 C932 1.478 . S
C931 H925 0.930 . S
C931 C927 1.400 . S
C931 C930 1.385 . S
C932 C930 1.478 . S
C932 C934 1.381 . S
C932 C938 1.383 . S
C933 C929 1.495 . S
C933 H939 0.959 . S
C933 H940 0.961 . S
C933 H941 0.960 . S
C934 C932 1.381 . S
C934 C935 1.394 . S
C934 H942 0.930 . S
C935 C934 1.394 . S
C935 C936 1.383 . S
C935 H943 0.929 . S
C936 C935 1.383 . S
C936 C937 1.377 . S
C937 H921 0.930 . S
C937 C936 1.377 . S
C937 C938 1.379 . S
C938 H922 0.931 . S
C938 C932 1.383 . S
C938 C937 1.379 . S
H939 C933 0.959 . S
H940 C933 0.961 . S
H941 C933 0.960 . S
H942 C934 0.930 . S
H943 C935 0.929 . S
H944 C952 0.929 . S
H945 C954 0.930 . S
H946 C956 0.930 . S
H947 C959 0.929 . S
H948 C962 0.930 . S
H949 C964 0.960 . S
H950 C964 0.960 . S
H951 C964 0.960 . S
C952 H944 0.929 . S
C952 C953 1.377 . S
C952 C954 1.384 . S
C953 C952 1.377 . S
C953 C959 1.390 . S
C954 H945 0.930 . S
C954 C952 1.384 . S
C954 C955 1.372 . S
C955 C954 1.372 . S
C955 C956 1.400 . S
C955 C960 1.490 . S
C956 H946 0.930 . S
C956 C955 1.400 . S
C956 C959 1.386 . S
H957 C973 0.930 . S
H958 C974 0.931 . S
C959 H947 0.929 . S
C959 C953 1.390 . S
C959 C956 1.386 . S
C960 C955 1.490 . S
C960 C962 1.395 . S
C960 C963 1.403 . S
H961 C967 0.930 . S
C962 H948 0.930 . S
C962 C960 1.395 . S
C962 C965 1.403 . S
C963 C960 1.403 . S
C963 C964 1.524 . S
C963 C967 1.400 . S
C964 H949 0.960 . S
C964 H950 0.960 . S
C964 H951 0.960 . S
C964 C963 1.524 . S
C965 C962 1.403 . S
C965 C966 1.392 . S
C965 C969 1.495 . S
C966 C965 1.392 . S
C966 C967 1.385 . S
C966 C968 1.478 . S
C967 H961 0.930 . S
C967 C963 1.400 . S
C967 C966 1.385 . S
C968 C966 1.478 . S
C968 C970 1.381 . S
C968 C974 1.383 . S
C969 C965 1.495 . S
C969 H975 0.959 . S
C969 H976 0.961 . S
C969 H977 0.960 . S
C970 C968 1.381 . S
C970 C971 1.394 . S
C970 H978 0.930 . S
C971 C970 1.394 . S
C971 C972 1.383 . S
C971 H979 0.929 . S
C972 C971 1.383 . S
C972 C973 1.377 . S
C973 H957 0.930 . S
C973 C972 1.377 . S
C973 C974 1.379 . S
C974 H958 0.931 . S
C974 C968 1.383 . S
C974 C973 1.379 . S
H975 C969 0.959 . S
H976 C969 0.961 . S
H977 C969 0.960 . S
H978 C970 0.930 . S
H979 C971 0.929 . S
H980 C988 0.929 . S
H981 C990 0.930 . S
H982 C992 0.930 . S
H983 C995 0.929 . S
H984 C998 0.930 . S
H985 C1000 0.960 . S
H986 C1000 0.960 . S
H987 C1000 0.960 . S
C988 H980 0.929 . S
C988 C989 1.377 . S
C988 C990 1.384 . S
C989 C988 1.377 . S
C989 C995 1.390 . S
C990 H981 0.930 . S
C990 C988 1.384 . S
C990 C991 1.372 . S
C991 C990 1.372 . S
C991 C992 1.400 . S
C991 C996 1.490 . S
C992 H982 0.930 . S
C992 C991 1.400 . S
C992 C995 1.386 . S
H993 C1009 0.930 . S
H994 C1010 0.931 . S
C995 H983 0.929 . S
C995 C989 1.390 . S
C995 C992 1.386 . S
C996 C991 1.490 . S
C996 C998 1.395 . S
C996 C999 1.403 . S
H997 C1003 0.930 . S
C998 H984 0.930 . S
C998 C996 1.395 . S
C998 C1001 1.403 . S
C999 C996 1.403 . S
C999 C1000 1.524 . S
C999 C1003 1.400 . S
C1000 H985 0.960 . S
C1000 H986 0.960 . S
C1000 H987 0.960 . S
C1000 C999 1.524 . S
C1001 C998 1.403 . S
C1001 C1002 1.392 . S
C1001 C1005 1.495 . S
C1002 C1001 1.392 . S
C1002 C1003 1.385 . S
C1002 C1004 1.478 . S
C1003 H997 0.930 . S
C1003 C999 1.400 . S
C1003 C1002 1.385 . S
C1004 C1002 1.478 . S
C1004 C1006 1.381 . S
C1004 C1010 1.383 . S
C1005 C1001 1.495 . S
C1005 H1011 0.959 . S
C1005 H1012 0.961 . S
C1005 H1013 0.960 . S
C1006 C1004 1.381 . S
C1006 C1007 1.394 . S
C1006 H1014 0.930 . S
C1007 C1006 1.394 . S
C1007 C1008 1.383 . S
C1007 H1015 0.929 . S
C1008 C1007 1.383 . S
C1008 C1009 1.377 . S
C1009 H993 0.930 . S
C1009 C1008 1.377 . S
C1009 C1010 1.379 . S
C1010 H994 0.931 . S
C1010 C1004 1.383 . S
C1010 C1009 1.379 . S
H1011 C1005 0.959 . S
H1012 C1005 0.961 . S
H1013 C1005 0.960 . S
H1014 C1006 0.930 . S
H1015 C1007 0.929 . S
H1016 C1024 0.929 . S
H1017 C1026 0.930 . S
H1018 C1028 0.930 . S
H1019 C1031 0.929 . S
H1020 C1034 0.930 . S
H1021 C1036 0.960 . S
H1022 C1036 0.960 . S
H1023 C1036 0.960 . S
C1024 H1016 0.929 . S
C1024 C1025 1.377 . S
C1024 C1026 1.384 . S
C1025 C1024 1.377 . S
C1025 C1031 1.390 . S
C1026 H1017 0.930 . S
C1026 C1024 1.384 . S
C1026 C1027 1.372 . S
C1027 C1026 1.372 . S
C1027 C1028 1.400 . S
C1027 C1032 1.490 . S
C1028 H1018 0.930 . S
C1028 C1027 1.400 . S
C1028 C1031 1.386 . S
H1029 C1045 0.930 . S
H1030 C1046 0.931 . S
C1031 H1019 0.929 . S
C1031 C1025 1.390 . S
C1031 C1028 1.386 . S
C1032 C1027 1.490 . S
C1032 C1034 1.395 . S
C1032 C1035 1.403 . S
H1033 C1039 0.930 . S
C1034 H1020 0.930 . S
C1034 C1032 1.395 . S
C1034 C1037 1.403 . S
C1035 C1032 1.403 . S
C1035 C1036 1.524 . S
C1035 C1039 1.400 . S
C1036 H1021 0.960 . S
C1036 H1022 0.960 . S
C1036 H1023 0.960 . S
C1036 C1035 1.524 . S
C1037 C1034 1.403 . S
C1037 C1038 1.392 . S
C1037 C1041 1.495 . S
C1038 C1037 1.392 . S
C1038 C1039 1.385 . S
C1038 C1040 1.478 . S
C1039 H1033 0.930 . S
C1039 C1035 1.400 . S
C1039 C1038 1.385 . S
C1040 C1038 1.478 . S
C1040 C1042 1.381 . S
C1040 C1046 1.383 . S
C1041 C1037 1.495 . S
C1041 H1047 0.959 . S
C1041 H1048 0.961 . S
C1041 H1049 0.960 . S
C1042 C1040 1.381 . S
C1042 C1043 1.394 . S
C1042 H1050 0.930 . S
C1043 C1042 1.394 . S
C1043 C1044 1.383 . S
C1043 H1051 0.929 . S
C1044 C1043 1.383 . S
C1044 C1045 1.377 . S
C1045 H1029 0.930 . S
C1045 C1044 1.377 . S
C1045 C1046 1.379 . S
C1046 H1030 0.931 . S
C1046 C1040 1.383 . S
C1046 C1045 1.379 . S
H1047 C1041 0.959 . S
H1048 C1041 0.961 . S
H1049 C1041 0.960 . S
H1050 C1042 0.930 . S
H1051 C1043 0.929 . S
H1052 C1060 0.929 . S
H1053 C1062 0.930 . S
H1054 C1064 0.930 . S
H1055 C1067 0.929 . S
H1056 C1070 0.930 . S
H1057 C1072 0.960 . S
H1058 C1072 0.960 . S
H1059 C1072 0.960 . S
C1060 H1052 0.929 . S
C1060 C1061 1.377 . S
C1060 C1062 1.384 . S
C1061 C1060 1.377 . S
C1061 C1067 1.390 . S
C1062 H1053 0.930 . S
C1062 C1060 1.384 . S
C1062 C1063 1.372 . S
C1063 C1062 1.372 . S
C1063 C1064 1.400 . S
C1063 C1068 1.490 . S
C1064 H1054 0.930 . S
C1064 C1063 1.400 . S
C1064 C1067 1.386 . S
H1065 C1081 0.930 . S
H1066 C1082 0.931 . S
C1067 H1055 0.929 . S
C1067 C1061 1.390 . S
C1067 C1064 1.386 . S
C1068 C1063 1.490 . S
C1068 C1070 1.395 . S
C1068 C1071 1.403 . S
H1069 C1075 0.930 . S
C1070 H1056 0.930 . S
C1070 C1068 1.395 . S
C1070 C1073 1.403 . S
C1071 C1068 1.403 . S
C1071 C1072 1.524 . S
C1071 C1075 1.400 . S
C1072 H1057 0.960 . S
C1072 H1058 0.960 . S
C1072 H1059 0.960 . S
C1072 C1071 1.524 . S
C1073 C1070 1.403 . S
C1073 C1074 1.392 . S
C1073 C1077 1.495 . S
C1074 C1073 1.392 . S
C1074 C1075 1.385 . S
C1074 C1076 1.478 . S
C1075 H1069 0.930 . S
C1075 C1071 1.400 . S
C1075 C1074 1.385 . S
C1076 C1074 1.478 . S
C1076 C1078 1.381 . S
C1076 C1082 1.383 . S
C1077 C1073 1.495 . S
C1077 H1083 0.959 . S
C1077 H1084 0.961 . S
C1077 H1085 0.960 . S
C1078 C1076 1.381 . S
C1078 C1079 1.394 . S
C1078 H1086 0.930 . S
C1079 C1078 1.394 . S
C1079 C1080 1.383 . S
C1079 H1087 0.929 . S
C1080 C1079 1.383 . S
C1080 C1081 1.377 . S
C1081 H1065 0.930 . S
C1081 C1080 1.377 . S
C1081 C1082 1.379 . S
C1082 H1066 0.931 . S
C1082 C1076 1.383 . S
C1082 C1081 1.379 . S
H1083 C1077 0.959 . S
H1084 C1077 0.961 . S
H1085 C1077 0.960 . S
H1086 C1078 0.930 . S
H1087 C1079 0.929 . S
H1088 C1096 0.929 . S
H1089 C1098 0.930 . S
H1090 C1100 0.930 . S
H1091 C1103 0.929 . S
H1092 C1106 0.930 . S
H1093 C1108 0.960 1_565 S
H1094 C1108 0.960 . S
H1095 C1108 0.960 . S
C1096 H1088 0.929 . S
C1096 C1097 1.377 . S
C1096 C1098 1.384 . S
C1097 C1096 1.377 . S
C1097 C1103 1.390 . S
C1098 H1089 0.930 . S
C1098 C1096 1.384 . S
C1098 C1099 1.372 . S
C1099 C1098 1.372 . S
C1099 C1100 1.400 . S
C1099 C1104 1.490 . S
C1100 H1090 0.930 . S
C1100 C1099 1.400 . S
C1100 C1103 1.386 . S
H1101 C1117 0.930 . S
H1102 C1118 0.931 . S
C1103 H1091 0.929 . S
C1103 C1097 1.390 . S
C1103 C1100 1.386 . S
C1104 C1099 1.490 . S
C1104 C1106 1.395 . S
C1104 C1107 1.403 . S
H1105 C1111 0.930 . S
C1106 H1092 0.930 . S
C1106 C1104 1.395 . S
C1106 C1109 1.403 1_545 S
C1107 C1104 1.403 . S
C1107 C1108 1.524 . S
C1107 C1111 1.400 1_545 S
C1108 H1093 0.960 1_545 S
C1108 H1094 0.960 . S
C1108 H1095 0.960 . S
C1108 C1107 1.524 . S
C1109 C1106 1.403 1_565 S
C1109 C1110 1.392 . S
C1109 C1113 1.495 . S
C1110 C1109 1.392 . S
C1110 C1111 1.385 . S
C1110 C1112 1.478 . S
C1111 H1105 0.930 . S
C1111 C1107 1.400 1_565 S
C1111 C1110 1.385 . S
C1112 C1110 1.478 . S
C1112 C1114 1.381 . S
C1112 C1118 1.383 . S
C1113 C1109 1.495 . S
C1113 H1119 0.959 1_565 S
C1113 H1120 0.961 . S
C1113 H1121 0.960 . S
C1114 C1112 1.381 . S
C1114 C1115 1.394 . S
C1114 H1122 0.930 . S
C1115 C1114 1.394 . S
C1115 C1116 1.383 . S
C1115 H1123 0.929 . S
C1116 C1115 1.383 . S
C1116 C1117 1.377 . S
C1117 H1101 0.930 . S
C1117 C1116 1.377 . S
C1117 C1118 1.379 . S
C1118 H1102 0.931 . S
C1118 C1112 1.383 . S
C1118 C1117 1.379 . S
H1119 C1113 0.959 1_545 S
H1120 C1113 0.961 . S
H1121 C1113 0.960 . S
H1122 C1114 0.930 . S
H1123 C1115 0.929 . S
H1124 C1132 0.929 . S
H1125 C1134 0.930 . S
H1126 C1136 0.930 . S
H1127 C1139 0.929 . S
H1128 C1142 0.930 . S
H1129 C1144 0.960 1_455 S
H1130 C1144 0.960 . S
H1131 C1144 0.960 . S
C1132 H1124 0.929 . S
C1132 C1133 1.377 . S
C1132 C1134 1.384 . S
C1133 C1132 1.377 . S
C1133 C1139 1.390 . S
C1134 H1125 0.930 . S
C1134 C1132 1.384 . S
C1134 C1135 1.372 . S
C1135 C1134 1.372 . S
C1135 C1136 1.400 . S
C1135 C1140 1.490 . S
C1136 H1126 0.930 . S
C1136 C1135 1.400 . S
C1136 C1139 1.386 . S
H1137 C1153 0.930 . S
H1138 C1154 0.931 . S
C1139 H1127 0.929 . S
C1139 C1133 1.390 . S
C1139 C1136 1.386 . S
C1140 C1135 1.490 . S
C1140 C1142 1.395 . S
C1140 C1143 1.403 . S
H1141 C1147 0.930 . S
C1142 H1128 0.930 . S
C1142 C1140 1.395 . S
C1142 C1145 1.403 1_655 S
C1143 C1140 1.403 . S
C1143 C1144 1.524 . S
C1143 C1147 1.400 1_655 S
C1144 H1129 0.960 1_655 S
C1144 H1130 0.960 . S
C1144 H1131 0.960 . S
C1144 C1143 1.524 . S
C1145 C1142 1.403 1_455 S
C1145 C1146 1.392 . S
C1145 C1149 1.495 . S
C1146 C1145 1.392 . S
C1146 C1147 1.385 . S
C1146 C1148 1.478 . S
C1147 H1141 0.930 . S
C1147 C1143 1.400 1_455 S
C1147 C1146 1.385 . S
C1148 C1146 1.478 . S
C1148 C1150 1.381 . S
C1148 C1154 1.383 . S
C1149 C1145 1.495 . S
C1149 H1155 0.959 1_455 S
C1149 H1156 0.961 . S
C1149 H1157 0.960 . S
C1150 C1148 1.381 . S
C1150 C1151 1.394 . S
C1150 H1158 0.930 . S
C1151 C1150 1.394 . S
C1151 C1152 1.383 . S
C1151 H1159 0.929 . S
C1152 C1151 1.383 . S
C1152 C1153 1.377 . S
C1153 H1137 0.930 . S
C1153 C1152 1.377 . S
C1153 C1154 1.379 . S
C1154 H1138 0.931 . S
C1154 C1148 1.383 . S
C1154 C1153 1.379 . S
H1155 C1149 0.959 1_655 S
H1156 C1149 0.961 . S
H1157 C1149 0.960 . S
H1158 C1150 0.930 . S
H1159 C1151 0.929 . S
H1160 C1168 0.929 . S
H1161 C1170 0.930 . S
H1162 C1172 0.930 . S
H1163 C1175 0.929 . S
H1164 C1178 0.930 . S
H1165 C1180 0.960 1_565 S
H1166 C1180 0.960 . S
H1167 C1180 0.960 . S
C1168 H1160 0.929 . S
C1168 C1169 1.377 . S
C1168 C1170 1.384 . S
C1169 C1168 1.377 . S
C1169 C1175 1.390 . S
C1170 H1161 0.930 . S
C1170 C1168 1.384 . S
C1170 C1171 1.372 . S
C1171 C1170 1.372 . S
C1171 C1172 1.400 . S
C1171 C1176 1.490 . S
C1172 H1162 0.930 . S
C1172 C1171 1.400 . S
C1172 C1175 1.386 . S
H1173 C1189 0.930 . S
H1174 C1190 0.931 . S
C1175 H1163 0.929 . S
C1175 C1169 1.390 . S
C1175 C1172 1.386 . S
C1176 C1171 1.490 . S
C1176 C1178 1.395 . S
C1176 C1179 1.403 . S
H1177 C1183 0.930 . S
C1178 H1164 0.930 . S
C1178 C1176 1.395 . S
C1178 C1181 1.403 1_545 S
C1179 C1176 1.403 . S
C1179 C1180 1.524 . S
C1179 C1183 1.400 1_545 S
C1180 H1165 0.960 1_545 S
C1180 H1166 0.960 . S
C1180 H1167 0.960 . S
C1180 C1179 1.524 . S
C1181 C1178 1.403 1_565 S
C1181 C1182 1.392 . S
C1181 C1185 1.495 . S
C1182 C1181 1.392 . S
C1182 C1183 1.385 . S
C1182 C1184 1.478 . S
C1183 H1177 0.930 . S
C1183 C1179 1.400 1_565 S
C1183 C1182 1.385 . S
C1184 C1182 1.478 . S
C1184 C1186 1.381 . S
C1184 C1190 1.383 . S
C1185 C1181 1.495 . S
C1185 H1191 0.959 1_565 S
C1185 H1192 0.961 . S
C1185 H1193 0.960 . S
C1186 C1184 1.381 . S
C1186 C1187 1.394 . S
C1186 H1194 0.930 . S
C1187 C1186 1.394 . S
C1187 C1188 1.383 . S
C1187 H1195 0.929 . S
C1188 C1187 1.383 . S
C1188 C1189 1.377 . S
C1189 H1173 0.930 . S
C1189 C1188 1.377 . S
C1189 C1190 1.379 . S
C1190 H1174 0.931 . S
C1190 C1184 1.383 . S
C1190 C1189 1.379 . S
H1191 C1185 0.959 1_545 S
H1192 C1185 0.961 . S
H1193 C1185 0.960 . S
H1194 C1186 0.930 . S
H1195 C1187 0.929 . S
H1196 C1204 0.929 . S
H1197 C1206 0.930 . S
H1198 C1208 0.930 . S
H1199 C1211 0.929 . S
H1200 C1214 0.930 . S
H1201 C1216 0.960 . S
H1202 C1216 0.960 . S
H1203 C1216 0.960 . S
C1204 H1196 0.929 . S
C1204 C1205 1.377 . S
C1204 C1206 1.384 . S
C1205 C1204 1.377 . S
C1205 C1211 1.390 . S
C1206 H1197 0.930 . S
C1206 C1204 1.384 . S
C1206 C1207 1.372 . S
C1207 C1206 1.372 . S
C1207 C1208 1.400 . S
C1207 C1212 1.490 . S
C1208 H1198 0.930 . S
C1208 C1207 1.400 . S
C1208 C1211 1.386 . S
H1209 C1225 0.930 . S
H1210 C1226 0.931 . S
C1211 H1199 0.929 . S
C1211 C1205 1.390 . S
C1211 C1208 1.386 . S
C1212 C1207 1.490 . S
C1212 C1214 1.395 . S
C1212 C1215 1.403 . S
H1213 C1219 0.930 . S
C1214 H1200 0.930 . S
C1214 C1212 1.395 . S
C1214 C1217 1.403 1_455 S
C1215 C1212 1.403 . S
C1215 C1216 1.524 . S
C1215 C1219 1.400 1_455 S
C1216 H1201 0.960 . S
C1216 H1202 0.960 . S
C1216 H1203 0.960 . S
C1216 C1215 1.524 . S
C1217 C1214 1.403 1_655 S
C1217 C1218 1.392 . S
C1217 C1221 1.495 . S
C1218 C1217 1.392 . S
C1218 C1219 1.385 . S
C1218 C1220 1.478 . S
C1219 H1213 0.930 . S
C1219 C1215 1.400 1_655 S
C1219 C1218 1.385 . S
C1220 C1218 1.478 . S
C1220 C1222 1.381 . S
C1220 C1226 1.383 . S
C1221 C1217 1.495 . S
C1221 H1227 0.959 . S
C1221 H1228 0.961 . S
C1221 H1229 0.960 . S
C1222 C1220 1.381 . S
C1222 C1223 1.394 . S
C1222 H1230 0.930 . S
C1223 C1222 1.394 . S
C1223 C1224 1.383 . S
C1223 H1231 0.929 . S
C1224 C1223 1.383 . S
C1224 C1225 1.377 . S
C1225 H1209 0.930 . S
C1225 C1224 1.377 . S
C1225 C1226 1.379 . S
C1226 H1210 0.931 . S
C1226 C1220 1.383 . S
C1226 C1225 1.379 . S
H1227 C1221 0.959 . S
H1228 C1221 0.961 . S
H1229 C1221 0.960 . S
H1230 C1222 0.930 . S
H1231 C1223 0.929 . S
H1232 C1240 0.929 . S
H1233 C1242 0.930 . S
H1234 C1244 0.930 . S
H1235 C1247 0.929 . S
H1236 C1250 0.930 . S
H1237 C1252 0.960 1_565 S
H1238 C1252 0.960 . S
H1239 C1252 0.960 . S
C1240 H1232 0.929 . S
C1240 C1241 1.377 . S
C1240 C1242 1.384 . S
C1241 C1240 1.377 . S
C1241 C1247 1.390 . S
C1242 H1233 0.930 . S
C1242 C1240 1.384 . S
C1242 C1243 1.372 . S
C1243 C1242 1.372 . S
C1243 C1244 1.400 . S
C1243 C1248 1.490 . S
C1244 H1234 0.930 . S
C1244 C1243 1.400 . S
C1244 C1247 1.386 . S
H1245 C1261 0.930 . S
H1246 C1262 0.931 . S
C1247 H1235 0.929 . S
C1247 C1241 1.390 . S
C1247 C1244 1.386 . S
C1248 C1243 1.490 . S
C1248 C1250 1.395 . S
C1248 C1251 1.403 . S
H1249 C1255 0.930 . S
C1250 H1236 0.930 . S
C1250 C1248 1.395 . S
C1250 C1253 1.403 1_545 S
C1251 C1248 1.403 . S
C1251 C1252 1.524 . S
C1251 C1255 1.400 1_545 S
C1252 H1237 0.960 1_545 S
C1252 H1238 0.960 . S
C1252 H1239 0.960 . S
C1252 C1251 1.524 . S
C1253 C1250 1.403 1_565 S
C1253 C1254 1.392 . S
C1253 C1257 1.495 . S
C1254 C1253 1.392 . S
C1254 C1255 1.385 . S
C1254 C1256 1.478 . S
C1255 H1249 0.930 . S
C1255 C1251 1.400 1_565 S
C1255 C1254 1.385 . S
C1256 C1254 1.478 . S
C1256 C1258 1.381 . S
C1256 C1262 1.383 . S
C1257 C1253 1.495 . S
C1257 H1263 0.959 1_565 S
C1257 H1264 0.961 . S
C1257 H1265 0.960 . S
C1258 C1256 1.381 . S
C1258 C1259 1.394 . S
C1258 H1266 0.930 . S
C1259 C1258 1.394 . S
C1259 C1260 1.383 . S
C1259 H1267 0.929 . S
C1260 C1259 1.383 . S
C1260 C1261 1.377 . S
C1261 H1245 0.930 . S
C1261 C1260 1.377 . S
C1261 C1262 1.379 . S
C1262 H1246 0.931 . S
C1262 C1256 1.383 . S
C1262 C1261 1.379 . S
H1263 C1257 0.959 1_545 S
H1264 C1257 0.961 . S
H1265 C1257 0.960 . S
H1266 C1258 0.930 . S
H1267 C1259 0.929 . S
H1268 C1276 0.929 . S
H1269 C1278 0.930 . S
H1270 C1280 0.930 . S
H1271 C1283 0.929 . S
H1272 C1286 0.930 . S
H1273 C1288 0.960 1_455 S
H1274 C1288 0.960 . S
H1275 C1288 0.960 . S
C1276 H1268 0.929 . S
C1276 C1277 1.377 . S
C1276 C1278 1.384 . S
C1277 C1276 1.377 . S
C1277 C1283 1.390 . S
C1278 H1269 0.930 . S
C1278 C1276 1.384 . S
C1278 C1279 1.372 . S
C1279 C1278 1.372 . S
C1279 C1280 1.400 . S
C1279 C1284 1.490 . S
C1280 H1270 0.930 . S
C1280 C1279 1.400 . S
C1280 C1283 1.386 . S
H1281 C1297 0.930 . S
H1282 C1298 0.931 . S
C1283 H1271 0.929 . S
C1283 C1277 1.390 . S
C1283 C1280 1.386 . S
C1284 C1279 1.490 . S
C1284 C1286 1.395 . S
C1284 C1287 1.403 . S
H1285 C1291 0.930 . S
C1286 H1272 0.930 . S
C1286 C1284 1.395 . S
C1286 C1289 1.403 1_655 S
C1287 C1284 1.403 . S
C1287 C1288 1.524 . S
C1287 C1291 1.400 1_655 S
C1288 H1273 0.960 1_655 S
C1288 H1274 0.960 . S
C1288 H1275 0.960 . S
C1288 C1287 1.524 . S
C1289 C1286 1.403 1_455 S
C1289 C1290 1.392 . S
C1289 C1293 1.495 . S
C1290 C1289 1.392 . S
C1290 C1291 1.385 . S
C1290 C1292 1.478 . S
C1291 H1285 0.930 . S
C1291 C1287 1.400 1_455 S
C1291 C1290 1.385 . S
C1292 C1290 1.478 . S
C1292 C1294 1.381 . S
C1292 C1298 1.383 . S
C1293 C1289 1.495 . S
C1293 H1299 0.959 1_455 S
C1293 H1300 0.961 . S
C1293 H1301 0.960 . S
C1294 C1292 1.381 . S
C1294 C1295 1.394 . S
C1294 H1302 0.930 . S
C1295 C1294 1.394 . S
C1295 C1296 1.383 . S
C1295 H1303 0.929 . S
C1296 C1295 1.383 . S
C1296 C1297 1.377 . S
C1297 H1281 0.930 . S
C1297 C1296 1.377 . S
C1297 C1298 1.379 . S
C1298 H1282 0.931 . S
C1298 C1292 1.383 . S
C1298 C1297 1.379 . S
H1299 C1293 0.959 1_655 S
H1300 C1293 0.961 . S
H1301 C1293 0.960 . S
H1302 C1294 0.930 . S
H1303 C1295 0.929 . S
H1304 C1312 0.929 . S
H1305 C1314 0.930 . S
H1306 C1316 0.930 . S
H1307 C1319 0.929 . S
H1308 C1322 0.930 . S
H1309 C1324 0.960 . S
H1310 C1324 0.960 . S
H1311 C1324 0.960 . S
C1312 H1304 0.929 . S
C1312 C1313 1.377 . S
C1312 C1314 1.384 . S
C1313 C1312 1.377 . S
C1313 C1319 1.390 . S
C1314 H1305 0.930 . S
C1314 C1312 1.384 . S
C1314 C1315 1.372 . S
C1315 C1314 1.372 . S
C1315 C1316 1.400 . S
C1315 C1320 1.490 . S
C1316 H1306 0.930 . S
C1316 C1315 1.400 . S
C1316 C1319 1.386 . S
H1317 C1333 0.930 . S
H1318 C1334 0.931 . S
C1319 H1307 0.929 . S
C1319 C1313 1.390 . S
C1319 C1316 1.386 . S
C1320 C1315 1.490 . S
C1320 C1322 1.395 . S
C1320 C1323 1.403 . S
H1321 C1327 0.930 . S
C1322 H1308 0.930 . S
C1322 C1320 1.395 . S
C1322 C1325 1.403 1_565 S
C1323 C1320 1.403 . S
C1323 C1324 1.524 . S
C1323 C1327 1.400 1_565 S
C1324 H1309 0.960 . S
C1324 H1310 0.960 . S
C1324 H1311 0.960 . S
C1324 C1323 1.524 . S
C1325 C1322 1.403 1_545 S
C1325 C1326 1.392 . S
C1325 C1329 1.495 . S
C1326 C1325 1.392 . S
C1326 C1327 1.385 . S
C1326 C1328 1.478 . S
C1327 H1321 0.930 . S
C1327 C1323 1.400 1_545 S
C1327 C1326 1.385 . S
C1328 C1326 1.478 . S
C1328 C1330 1.381 . S
C1328 C1334 1.383 . S
C1329 C1325 1.495 . S
C1329 H1335 0.959 . S
C1329 H1336 0.961 . S
C1329 H1337 0.960 . S
C1330 C1328 1.381 . S
C1330 C1331 1.394 . S
C1330 H1338 0.930 . S
C1331 C1330 1.394 . S
C1331 C1332 1.383 . S
C1331 H1339 0.929 . S
C1332 C1331 1.383 . S
C1332 C1333 1.377 . S
C1333 H1317 0.930 . S
C1333 C1332 1.377 . S
C1333 C1334 1.379 . S
C1334 H1318 0.931 . S
C1334 C1328 1.383 . S
C1334 C1333 1.379 . S
H1335 C1329 0.959 . S
H1336 C1329 0.961 . S
H1337 C1329 0.960 . S
H1338 C1330 0.930 . S
H1339 C1331 0.929 . S
H1340 C1348 0.929 . S
H1341 C1350 0.930 . S
H1342 C1352 0.930 . S
H1343 C1355 0.929 . S
H1344 C1358 0.930 . S
H1345 C1360 0.960 1_655 S
H1346 C1360 0.960 . S
H1347 C1360 0.960 . S
C1348 H1340 0.929 . S
C1348 C1349 1.377 . S
C1348 C1350 1.384 . S
C1349 C1348 1.377 . S
C1349 C1355 1.390 . S
C1350 H1341 0.930 . S
C1350 C1348 1.384 . S
C1350 C1351 1.372 . S
C1351 C1350 1.372 . S
C1351 C1352 1.400 . S
C1351 C1356 1.490 . S
C1352 H1342 0.930 . S
C1352 C1351 1.400 . S
C1352 C1355 1.386 . S
H1353 C1369 0.930 . S
H1354 C1370 0.931 . S
C1355 H1343 0.929 . S
C1355 C1349 1.390 . S
C1355 C1352 1.386 . S
C1356 C1351 1.490 . S
C1356 C1358 1.395 . S
C1356 C1359 1.403 . S
H1357 C1363 0.930 . S
C1358 H1344 0.930 . S
C1358 C1356 1.395 . S
C1358 C1361 1.403 1_455 S
C1359 C1356 1.403 . S
C1359 C1360 1.524 . S
C1359 C1363 1.400 1_455 S
C1360 H1345 0.960 1_455 S
C1360 H1346 0.960 . S
C1360 H1347 0.960 . S
C1360 C1359 1.524 . S
C1361 C1358 1.403 1_655 S
C1361 C1362 1.392 . S
C1361 C1365 1.495 . S
C1362 C1361 1.392 . S
C1362 C1363 1.385 . S
C1362 C1364 1.478 . S
C1363 H1357 0.930 . S
C1363 C1359 1.400 1_655 S
C1363 C1362 1.385 . S
C1364 C1362 1.478 . S
C1364 C1366 1.381 . S
C1364 C1370 1.383 . S
C1365 C1361 1.495 . S
C1365 H1371 0.959 1_655 S
C1365 H1372 0.961 . S
C1365 H1373 0.960 . S
C1366 C1364 1.381 . S
C1366 C1367 1.394 . S
C1366 H1374 0.930 . S
C1367 C1366 1.394 . S
C1367 C1368 1.383 . S
C1367 H1375 0.929 . S
C1368 C1367 1.383 . S
C1368 C1369 1.377 . S
C1369 H1353 0.930 . S
C1369 C1368 1.377 . S
C1369 C1370 1.379 . S
C1370 H1354 0.931 . S
C1370 C1364 1.383 . S
C1370 C1369 1.379 . S
H1371 C1365 0.959 1_455 S
H1372 C1365 0.961 . S
H1373 C1365 0.960 . S
H1374 C1366 0.930 . S
H1375 C1367 0.929 . S
C233 C81 1.256 . S
C252 C11 1.262 . S
C269 C95 1.255 . S
C288 C25 1.259 . S
C305 C39 1.254 . S
C324 C109 1.244 . S
C341 C53 1.253 . S
C360 C67 1.243 . S
C377 C193 1.256 . S
C396 C123 1.261 . S
C413 C207 1.257 . S
C432 C137 1.261 . S
C449 C151 1.253 . S
C468 C221 1.250 . S
C485 C165 1.254 . S
C504 C179 1.245 . S
C521 C153 1.387 . S
C540 C13 1.376 . S
C557 C167 1.395 . S
C576 C27 1.354 . S
C593 C125 1.387 . S
C612 C41 1.403 . S
C629 C55 1.391 . S
C648 C139 1.424 . S
C665 C209 1.402 . S
C684 C69 1.411 . S
C701 C223 1.392 . S
C720 C83 1.427 . S
C737 C97 1.390 . S
C756 C181 1.359 . S
C773 C195 1.396 . S
C792 C111 1.430 . S
C809 C64 1.584 . S
C828 C8 1.570 . S
C845 C22 1.588 . S
C864 C78 1.589 . S
C881 C36 1.589 . S
C900 C92 1.591 . S
C917 C106 1.588 . S
C936 C50 1.589 . S
C953 C119 1.150 . S
C972 C175 1.148 . S
C989 C189 1.147 . S
C1008 C133 1.170 . S
C1025 C147 1.156 . S
C1044 C203 1.139 . S
C1061 C217 1.148 . S
C1080 C161 1.171 . S
C1097 C162 1.583 . S
C1116 C190 1.566 . S
C1133 C120 1.584 . S
C1152 C204 1.572 . S
C1169 C218 1.583 . S
C1188 C134 1.564 . S
C1205 C148 1.591 . S
C1224 C176 1.602 . S
C1241 C77 1.156 . S
C1260 C49 1.128 . S
C1277 C91 1.154 . S
C1296 C7 1.132 . S
C1313 C105 1.148 . S
C1332 C21 1.171 . S
C1349 C63 1.155 . S
C1368 C35 1.130 . S
