# Generated by pormake.
# Topology ato, (4)-cn, num edge types: 1
# Building blocks:
#     Node 0, Type 0, BuildingBlock: AZAVOO_clean_sbu_0, # of connection points: 4
#     Node 1, Type 0, BuildingBlock: AZAVOO_clean_sbu_0, # of connection points: 4
#     Node 2, Type 0, BuildingBlock: AZAVOO_clean_sbu_0, # of connection points: 4
#     Node 3, Type 0, BuildingBlock: AZAVOO_clean_sbu_0, # of connection points: 4
#     Node 4, Type 0, BuildingBlock: AZAVOO_clean_sbu_0, # of connection points: 4
#     Node 5, Type 0, BuildingBlock: AZAVOO_clean_sbu_0, # of connection points: 4
#     Node 6, Type 0, BuildingBlock: AZAVOO_clean_sbu_0, # of connection points: 4
#     Node 7, Type 0, BuildingBlock: AZAVOO_clean_sbu_0, # of connection points: 4
#     Node 8, Type 0, BuildingBlock: AZAVOO_clean_sbu_0, # of connection points: 4
#     Node 9, Type 0, BuildingBlock: AZAVOO_clean_sbu_0, # of connection points: 4
#     Node 10, Type 0, BuildingBlock: AZAVOO_clean_sbu_0, # of connection points: 4
#     Node 11, Type 0, BuildingBlock: AZAVOO_clean_sbu_0, # of connection points: 4
#     Node 12, Type 0, BuildingBlock: AZAVOO_clean_sbu_0, # of connection points: 4
#     Node 13, Type 0, BuildingBlock: AZAVOO_clean_sbu_0, # of connection points: 4
#     Node 14, Type 0, BuildingBlock: AZAVOO_clean_sbu_0, # of connection points: 4
#     Node 15, Type 0, BuildingBlock: AZAVOO_clean_sbu_0, # of connection points: 4
#     Node 16, Type 0, BuildingBlock: AZAVOO_clean_sbu_0, # of connection points: 4
#     Node 17, Type 0, BuildingBlock: AZAVOO_clean_sbu_0, # of connection points: 4
#     Node 18, Type 0, BuildingBlock: AZAVOO_clean_sbu_0, # of connection points: 4
#     Node 19, Type 0, BuildingBlock: AZAVOO_clean_sbu_0, # of connection points: 4
#     Node 20, Type 0, BuildingBlock: AZAVOO_clean_sbu_0, # of connection points: 4
#     Node 21, Type 0, BuildingBlock: AZAVOO_clean_sbu_0, # of connection points: 4
#     Node 22, Type 0, BuildingBlock: AZAVOO_clean_sbu_0, # of connection points: 4
#     Node 23, Type 0, BuildingBlock: AZAVOO_clean_sbu_0, # of connection points: 4
#     Node 24, Type 0, BuildingBlock: AZAVOO_clean_sbu_0, # of connection points: 4
#     Node 25, Type 0, BuildingBlock: AZAVOO_clean_sbu_0, # of connection points: 4
#     Node 26, Type 0, BuildingBlock: AZAVOO_clean_sbu_0, # of connection points: 4
#     Node 27, Type 0, BuildingBlock: AZAVOO_clean_sbu_0, # of connection points: 4
#     Node 28, Type 0, BuildingBlock: AZAVOO_clean_sbu_0, # of connection points: 4
#     Node 29, Type 0, BuildingBlock: AZAVOO_clean_sbu_0, # of connection points: 4
#     Node 30, Type 0, BuildingBlock: AZAVOO_clean_sbu_0, # of connection points: 4
#     Node 31, Type 0, BuildingBlock: AZAVOO_clean_sbu_0, # of connection points: 4
#     Node 32, Type 0, BuildingBlock: AZAVOO_clean_sbu_0, # of connection points: 4
#     Node 33, Type 0, BuildingBlock: AZAVOO_clean_sbu_0, # of connection points: 4
#     Node 34, Type 0, BuildingBlock: AZAVOO_clean_sbu_0, # of connection points: 4
#     Node 35, Type 0, BuildingBlock: AZAVOO_clean_sbu_0, # of connection points: 4
#     Edge 36, Type (0, 0), BuildingBlock: KIFKEQ_clean_linker_1, # of connection points: 2
#     Edge 37, Type (0, 0), BuildingBlock: KIFKEQ_clean_linker_1, # of connection points: 2
#     Edge 38, Type (0, 0), BuildingBlock: KIFKEQ_clean_linker_1, # of connection points: 2
#     Edge 39, Type (0, 0), BuildingBlock: KIFKEQ_clean_linker_1, # of connection points: 2
#     Edge 40, Type (0, 0), BuildingBlock: KIFKEQ_clean_linker_1, # of connection points: 2
#     Edge 41, Type (0, 0), BuildingBlock: KIFKEQ_clean_linker_1, # of connection points: 2
#     Edge 42, Type (0, 0), BuildingBlock: KIFKEQ_clean_linker_1, # of connection points: 2
#     Edge 43, Type (0, 0), BuildingBlock: KIFKEQ_clean_linker_1, # of connection points: 2
#     Edge 44, Type (0, 0), BuildingBlock: KIFKEQ_clean_linker_1, # of connection points: 2
#     Edge 45, Type (0, 0), BuildingBlock: KIFKEQ_clean_linker_1, # of connection points: 2
#     Edge 46, Type (0, 0), BuildingBlock: KIFKEQ_clean_linker_1, # of connection points: 2
#     Edge 47, Type (0, 0), BuildingBlock: KIFKEQ_clean_linker_1, # of connection points: 2
#     Edge 48, Type (0, 0), BuildingBlock: KIFKEQ_clean_linker_1, # of connection points: 2
#     Edge 49, Type (0, 0), BuildingBlock: KIFKEQ_clean_linker_1, # of connection points: 2
#     Edge 50, Type (0, 0), BuildingBlock: KIFKEQ_clean_linker_1, # of connection points: 2
#     Edge 51, Type (0, 0), BuildingBlock: KIFKEQ_clean_linker_1, # of connection points: 2
#     Edge 52, Type (0, 0), BuildingBlock: KIFKEQ_clean_linker_1, # of connection points: 2
#     Edge 53, Type (0, 0), BuildingBlock: KIFKEQ_clean_linker_1, # of connection points: 2
#     Edge 54, Type (0, 0), BuildingBlock: KIFKEQ_clean_linker_1, # of connection points: 2
#     Edge 55, Type (0, 0), BuildingBlock: KIFKEQ_clean_linker_1, # of connection points: 2
#     Edge 56, Type (0, 0), BuildingBlock: KIFKEQ_clean_linker_1, # of connection points: 2
#     Edge 57, Type (0, 0), BuildingBlock: KIFKEQ_clean_linker_1, # of connection points: 2
#     Edge 58, Type (0, 0), BuildingBlock: KIFKEQ_clean_linker_1, # of connection points: 2
#     Edge 59, Type (0, 0), BuildingBlock: KIFKEQ_clean_linker_1, # of connection points: 2
#     Edge 60, Type (0, 0), BuildingBlock: KIFKEQ_clean_linker_1, # of connection points: 2
#     Edge 61, Type (0, 0), BuildingBlock: KIFKEQ_clean_linker_1, # of connection points: 2
#     Edge 62, Type (0, 0), BuildingBlock: KIFKEQ_clean_linker_1, # of connection points: 2
#     Edge 63, Type (0, 0), BuildingBlock: KIFKEQ_clean_linker_1, # of connection points: 2
#     Edge 64, Type (0, 0), BuildingBlock: KIFKEQ_clean_linker_1, # of connection points: 2
#     Edge 65, Type (0, 0), BuildingBlock: KIFKEQ_clean_linker_1, # of connection points: 2
#     Edge 66, Type (0, 0), BuildingBlock: KIFKEQ_clean_linker_1, # of connection points: 2
#     Edge 67, Type (0, 0), BuildingBlock: KIFKEQ_clean_linker_1, # of connection points: 2
#     Edge 68, Type (0, 0), BuildingBlock: KIFKEQ_clean_linker_1, # of connection points: 2
#     Edge 69, Type (0, 0), BuildingBlock: KIFKEQ_clean_linker_1, # of connection points: 2
#     Edge 70, Type (0, 0), BuildingBlock: KIFKEQ_clean_linker_1, # of connection points: 2
#     Edge 71, Type (0, 0), BuildingBlock: KIFKEQ_clean_linker_1, # of connection points: 2
#     Edge 72, Type (0, 0), BuildingBlock: KIFKEQ_clean_linker_1, # of connection points: 2
#     Edge 73, Type (0, 0), BuildingBlock: KIFKEQ_clean_linker_1, # of connection points: 2
#     Edge 74, Type (0, 0), BuildingBlock: KIFKEQ_clean_linker_1, # of connection points: 2
#     Edge 75, Type (0, 0), BuildingBlock: KIFKEQ_clean_linker_1, # of connection points: 2
#     Edge 76, Type (0, 0), BuildingBlock: KIFKEQ_clean_linker_1, # of connection points: 2
#     Edge 77, Type (0, 0), BuildingBlock: KIFKEQ_clean_linker_1, # of connection points: 2
#     Edge 78, Type (0, 0), BuildingBlock: KIFKEQ_clean_linker_1, # of connection points: 2
#     Edge 79, Type (0, 0), BuildingBlock: KIFKEQ_clean_linker_1, # of connection points: 2
#     Edge 80, Type (0, 0), BuildingBlock: KIFKEQ_clean_linker_1, # of connection points: 2
#     Edge 81, Type (0, 0), BuildingBlock: KIFKEQ_clean_linker_1, # of connection points: 2
#     Edge 82, Type (0, 0), BuildingBlock: KIFKEQ_clean_linker_1, # of connection points: 2
#     Edge 83, Type (0, 0), BuildingBlock: KIFKEQ_clean_linker_1, # of connection points: 2
#     Edge 84, Type (0, 0), BuildingBlock: KIFKEQ_clean_linker_1, # of connection points: 2
#     Edge 85, Type (0, 0), BuildingBlock: KIFKEQ_clean_linker_1, # of connection points: 2
#     Edge 86, Type (0, 0), BuildingBlock: KIFKEQ_clean_linker_1, # of connection points: 2
#     Edge 87, Type (0, 0), BuildingBlock: KIFKEQ_clean_linker_1, # of connection points: 2
#     Edge 88, Type (0, 0), BuildingBlock: KIFKEQ_clean_linker_1, # of connection points: 2
#     Edge 89, Type (0, 0), BuildingBlock: KIFKEQ_clean_linker_1, # of connection points: 2
#     Edge 90, Type (0, 0), BuildingBlock: KIFKEQ_clean_linker_1, # of connection points: 2
#     Edge 91, Type (0, 0), BuildingBlock: KIFKEQ_clean_linker_1, # of connection points: 2
#     Edge 92, Type (0, 0), BuildingBlock: KIFKEQ_clean_linker_1, # of connection points: 2
#     Edge 93, Type (0, 0), BuildingBlock: KIFKEQ_clean_linker_1, # of connection points: 2
#     Edge 94, Type (0, 0), BuildingBlock: KIFKEQ_clean_linker_1, # of connection points: 2
#     Edge 95, Type (0, 0), BuildingBlock: KIFKEQ_clean_linker_1, # of connection points: 2
#     Edge 96, Type (0, 0), BuildingBlock: KIFKEQ_clean_linker_1, # of connection points: 2
#     Edge 97, Type (0, 0), BuildingBlock: KIFKEQ_clean_linker_1, # of connection points: 2
#     Edge 98, Type (0, 0), BuildingBlock: KIFKEQ_clean_linker_1, # of connection points: 2
#     Edge 99, Type (0, 0), BuildingBlock: KIFKEQ_clean_linker_1, # of connection points: 2
#     Edge 100, Type (0, 0), BuildingBlock: KIFKEQ_clean_linker_1, # of connection points: 2
#     Edge 101, Type (0, 0), BuildingBlock: KIFKEQ_clean_linker_1, # of connection points: 2
#     Edge 102, Type (0, 0), BuildingBlock: KIFKEQ_clean_linker_1, # of connection points: 2
#     Edge 103, Type (0, 0), BuildingBlock: KIFKEQ_clean_linker_1, # of connection points: 2
#     Edge 104, Type (0, 0), BuildingBlock: KIFKEQ_clean_linker_1, # of connection points: 2
#     Edge 105, Type (0, 0), BuildingBlock: KIFKEQ_clean_linker_1, # of connection points: 2
#     Edge 106, Type (0, 0), BuildingBlock: KIFKEQ_clean_linker_1, # of connection points: 2
#     Edge 107, Type (0, 0), BuildingBlock: KIFKEQ_clean_linker_1, # of connection points: 2
# Relax obj value: 0.065
# Max RMSD: 0.093
# Mean RMSD: 0.093
data_MOF--net-ato--node1-AZAVOO_clean_sbu_0--edge1-KIFKEQ_clean_linker_1
_symmetry_space_group_name_H-M    P1
_symmetry_Int_Tables_number       1
_symmetry_cell_setting            triclinic
loop_
_symmetry_equiv_pos_as_xyz
'x, y, z'
_cell_length_a     101.46261
_cell_length_b     101.3964
_cell_length_c     25.77717
_cell_angle_alpha  89.961179
_cell_angle_beta   90.029399
_cell_angle_gamma 120.0422
loop_
_atom_site_label
_atom_site_type_symbol
_atom_site_fract_x
_atom_site_fract_y
_atom_site_fract_z
_atom_type_partial_charge
Mg0 Mg 0.25493 0.05363 0.21233 0.0
O1 O 0.28049 0.06173 0.20402 0.0
O2 O 0.28234 0.04105 0.1872 0.0
Mg3 Mg 0.25853 0.02042 0.17568 0.0
C4 C 0.28841 0.05532 0.196 0.0
C5 C 0.25128 0.07773 0.27861 0.0
O6 O 0.23901 0.06532 0.2942 0.0
O7 O 0.25362 0.04186 0.29054 0.0
O8 O 0.25326 0.02094 0.26056 0.0
O9 O 0.25288 0.05698 0.1265 0.0
O10 O 0.24987 0.03587 0.16235 0.0
C11 C 0.252 0.0286 0.29746 0.0
C12 C 0.2505 0.04326 0.1213 0.0
O13 O 0.26044 0.07648 0.24809 0.0
Mg14 Mg 0.96376 0.20612 0.23799 0.0
O15 O 0.95554 0.22209 0.20656 0.0
O16 O 0.97612 0.24337 0.17964 0.0
Mg17 Mg 0.99725 0.24119 0.19084 0.0
C18 C 0.96177 0.23547 0.18708 0.0
C19 C 0.9379 0.17714 0.28644 0.0
O20 O 0.9495 0.17476 0.28616 0.0
O21 O 0.97308 0.22088 0.3115 0.0
O22 O 0.99397 0.24076 0.2781 0.0
O23 O 0.96324 0.19666 0.15804 0.0
O24 O 0.98314 0.21647 0.19257 0.0
C25 C 0.98546 0.23366 0.31666 0.0
C26 C 0.97726 0.20748 0.15389 0.0
O27 O 0.94007 0.19002 0.27128 0.0
Mg28 Mg 0.80362 0.75313 0.2287 0.0
O29 O 0.78697 0.72755 0.21343 0.0
O30 O 0.76374 0.7248 0.20625 0.0
Mg31 Mg 0.76541 0.74809 0.208 0.0
C32 C 0.77257 0.71923 0.20753 0.0
C33 C 0.83197 0.75582 0.28894 0.0
O34 O 0.83038 0.76617 0.31435 0.0
O35 O 0.79429 0.75159 0.31128 0.0
O36 O 0.77235 0.75076 0.29251 0.0
O37 O 0.80786 0.75835 0.14333 0.0
O38 O 0.78952 0.75877 0.18775 0.0
C39 C 0.7822 0.75164 0.3252 0.0
C40 C 0.79624 0.76038 0.14416 0.0
O41 O 0.82235 0.74809 0.25388 0.0
Mg42 Mg 0.05459 0.25391 0.7478 0.0
O43 O 0.06272 0.27806 0.77925 0.0
O44 O 0.04215 0.27891 0.80479 0.0
Mg45 Mg 0.02104 0.25553 0.79327 0.0
C46 C 0.05652 0.28529 0.79805 0.0
C47 C 0.08077 0.25436 0.68139 0.0
O48 O 0.06897 0.24286 0.65906 0.0
O49 O 0.04554 0.25935 0.67377 0.0
O50 O 0.02447 0.25818 0.70591 0.0
O51 O 0.05488 0.24484 0.82751 0.0
O52 O 0.03503 0.24475 0.79262 0.0
C53 C 0.03312 0.2596 0.66779 0.0
C54 C 0.04084 0.24155 0.83135 0.0
O55 O 0.0785 0.26185 0.71631 0.0
Mg56 Mg 0.76405 0.80961 0.75454 0.0
O57 O 0.73864 0.79181 0.76498 0.0
O58 O 0.73735 0.76968 0.78489 0.0
Mg59 Mg 0.76141 0.77351 0.79568 0.0
C60 C 0.731 0.77755 0.77497 0.0
C61 C 0.76654 0.83632 0.68442 0.0
O62 O 0.77872 0.8362 0.66777 0.0
O63 O 0.76507 0.79844 0.6776 0.0
O64 O 0.76588 0.77831 0.70984 0.0
O65 O 0.76624 0.8157 0.83974 0.0
O66 O 0.76974 0.79769 0.8059 0.0
C67 C 0.76673 0.78679 0.67191 0.0
C68 C 0.76894 0.80462 0.84617 0.0
O69 O 0.75787 0.82626 0.71689 0.0
Mg70 Mg 0.21044 0.95668 0.73951 0.0
O71 O 0.22731 0.94804 0.75446 0.0
O72 O 0.25031 0.96877 0.76402 0.0
Mg73 Mg 0.24833 0.9902 0.76304 0.0
C74 C 0.24169 0.95433 0.76142 0.0
C75 C 0.1826 0.931 0.67705 0.0
O76 O 0.18421 0.94293 0.65145 0.0
O77 O 0.22008 0.96507 0.65749 0.0
O78 O 0.24183 0.98619 0.67828 0.0
O79 O 0.20596 0.95699 0.82516 0.0
O80 O 0.22423 0.97618 0.78169 0.0
C81 C 0.23223 0.97735 0.64471 0.0
C82 C 0.2176 0.97065 0.82509 0.0
O83 O 0.19204 0.93294 0.71286 0.0
Mg84 Mg 0.76514 0.96012 0.74969 0.0
O85 O 0.73983 0.95208 0.76704 0.0
O86 O 0.73921 0.97258 0.79573 0.0
Mg87 Mg 0.76329 0.99307 0.80116 0.0
C88 C 0.73249 0.95848 0.78344 0.0
C89 C 0.77019 0.93637 0.69528 0.0
O90 O 0.78396 0.94788 0.70357 0.0
O91 O 0.76445 0.97286 0.67654 0.0
O92 O 0.76556 0.99338 0.71364 0.0
O93 O 0.76923 0.95556 0.83247 0.0
O94 O 0.77178 0.97723 0.80373 0.0
C95 C 0.76564 0.98604 0.67358 0.0
C96 C 0.77198 0.96924 0.84184 0.0
O97 O 0.75887 0.93792 0.70724 0.0
Mg98 Mg 0.05289 0.80888 0.73973 0.0
O99 O 0.06065 0.79274 0.77328 0.0
O100 O 0.03957 0.77136 0.79666 0.0
Mg101 Mg 0.01879 0.77415 0.78539 0.0
C102 C 0.05399 0.77916 0.79123 0.0
C103 C 0.07923 0.83751 0.69129 0.0
O104 O 0.06792 0.84033 0.69195 0.0
O105 O 0.04361 0.7941 0.66625 0.0
O106 O 0.02217 0.77459 0.69827 0.0
O107 O 0.0533 0.81866 0.81888 0.0
O108 O 0.03335 0.79887 0.7844 0.0
C109 C 0.031 0.78159 0.66027 0.0
C110 C 0.03921 0.80799 0.82283 0.0
O111 O 0.07671 0.82453 0.70662 0.0
Mg112 Mg 0.20604 0.25307 0.7445 0.0
O113 O 0.2232 0.27778 0.76978 0.0
O114 O 0.24475 0.27823 0.79129 0.0
Mg115 Mg 0.24194 0.25469 0.78078 0.0
C116 C 0.23699 0.28489 0.78566 0.0
C117 C 0.17688 0.24968 0.69696 0.0
O118 O 0.17483 0.23582 0.69572 0.0
O119 O 0.21845 0.25671 0.66695 0.0
O120 O 0.23943 0.25661 0.69386 0.0
O121 O 0.19874 0.24573 0.82731 0.0
O122 O 0.21732 0.24455 0.7875 0.0
C123 C 0.23116 0.25734 0.65792 0.0
C124 C 0.20946 0.24234 0.82877 0.0
O125 O 0.18951 0.26043 0.71368 0.0
Mg126 Mg 0.96192 0.76369 0.22793 0.0
O127 O 0.95448 0.7397 0.1953 0.0
O128 O 0.97582 0.73991 0.17234 0.0
Mg129 Mg 0.99635 0.76368 0.18285 0.0
C130 C 0.96139 0.733 0.17786 0.0
C131 C 0.93547 0.76593 0.27441 0.0
O132 O 0.94674 0.78008 0.27239 0.0
O133 O 0.97134 0.7585 0.30184 0.0
O134 O 0.99291 0.76074 0.26989 0.0
O135 O 0.96138 0.77281 0.14837 0.0
O136 O 0.98146 0.77341 0.18332 0.0
C137 C 0.98404 0.75879 0.30786 0.0
C138 C 0.97553 0.77646 0.14463 0.0
O139 O 0.93803 0.75536 0.26076 0.0
Mg140 Mg 0.25332 0.20535 0.23092 0.0
O141 O 0.27844 0.22148 0.20713 0.0
O142 O 0.28049 0.2441 0.19072 0.0
Mg143 Mg 0.25736 0.24246 0.19667 0.0
C144 C 0.28634 0.23557 0.19496 0.0
C145 C 0.24767 0.17463 0.27086 0.0
O146 O 0.23398 0.1728 0.26505 0.0
O147 O 0.25712 0.21754 0.30917 0.0
O148 O 0.25805 0.23915 0.28353 0.0
O149 O 0.2461 0.1985 0.14799 0.0
O150 O 0.24613 0.21775 0.18762 0.0
C151 C 0.25815 0.23041 0.31899 0.0
C152 C 0.24354 0.2098 0.14633 0.0
O153 O 0.25913 0.18767 0.26164 0.0
Mg154 Mg 0.80994 0.05398 0.23101 0.0
O155 O 0.79302 0.06168 0.20465 0.0
O156 O 0.77076 0.04047 0.19013 0.0
Mg157 Mg 0.77287 0.01951 0.20618 0.0
C158 C 0.779 0.05498 0.19108 0.0
C159 C 0.83648 0.08101 0.29285 0.0
O160 O 0.83484 0.06951 0.32122 0.0
O161 O 0.79875 0.04739 0.31169 0.0
O162 O 0.77736 0.02594 0.29093 0.0
O163 O 0.81603 0.05212 0.14807 0.0
O164 O 0.79726 0.03348 0.19179 0.0
C165 C 0.78619 0.03556 0.32443 0.0
C166 C 0.80456 0.03837 0.14897 0.0
O167 O 0.82747 0.07838 0.2549 0.0
Mg168 Mg 0.92246 0.38416 0.56289 0.0
O169 O 0.9471 0.393 0.53482 0.0
O170 O 0.94843 0.37273 0.50844 0.0
Mg171 Mg 0.9251 0.35132 0.51519 0.0
C172 C 0.95464 0.38702 0.51676 0.0
C173 C 0.91808 0.40903 0.61242 0.0
O174 O 0.9043 0.3971 0.61045 0.0
O175 O 0.92718 0.37438 0.63663 0.0
O176 O 0.92656 0.35371 0.60291 0.0
O177 O 0.91413 0.38507 0.48224 0.0
O178 O 0.91423 0.36517 0.51582 0.0
C179 C 0.92745 0.36193 0.64173 0.0
C180 C 0.91115 0.37114 0.47732 0.0
O181 O 0.92921 0.40747 0.59798 0.0
Mg182 Mg 0.62708 0.53842 0.5724 0.0
O183 O 0.61995 0.55583 0.54786 0.0
O184 O 0.64135 0.57796 0.53414 0.0
Mg185 Mg 0.66191 0.57458 0.54259 0.0
C186 C 0.62686 0.56999 0.5364 0.0
C187 C 0.6001 0.51147 0.63203 0.0
O188 O 0.61172 0.51182 0.65585 0.0
O189 O 0.63526 0.54983 0.6524 0.0
O190 O 0.65718 0.57041 0.62893 0.0
O191 O 0.62794 0.5321 0.48904 0.0
O192 O 0.64739 0.55007 0.53216 0.0
C193 C 0.64782 0.5619 0.66372 0.0
C194 C 0.64214 0.54263 0.4899 0.0
O195 O 0.60265 0.52161 0.59817 0.0
Mg196 Mg 0.47848 0.09871 0.57641 0.0
O197 O 0.46277 0.0748 0.54227 0.0
O198 O 0.44175 0.07439 0.5141 0.0
Mg199 Mg 0.44384 0.0976 0.52761 0.0
C200 C 0.44959 0.06786 0.52131 0.0
C201 C 0.50722 0.1013 0.6243 0.0
O202 O 0.51003 0.11543 0.62228 0.0
O203 O 0.46324 0.09276 0.6487 0.0
O204 O 0.44364 0.09416 0.61489 0.0
O205 O 0.48858 0.10824 0.49769 0.0
O206 O 0.46856 0.10818 0.53089 0.0
C207 C 0.45051 0.09243 0.65355 0.0
C208 C 0.47783 0.11151 0.49292 0.0
O209 O 0.49415 0.09069 0.61032 0.0
Mg210 Mg 0.72101 0.57574 0.09291 0.0
O211 O 0.72679 0.59972 0.11926 0.0
O212 O 0.70529 0.59827 0.14764 0.0
Mg213 Mg 0.68595 0.57348 0.14276 0.0
C214 C 0.71953 0.60591 0.13795 0.0
C215 C 0.74705 0.57772 0.02277 0.0
O216 O 0.73536 0.56516 0.00495 0.0
O217 O 0.70922 0.5778 0.01894 0.0
O218 O 0.68778 0.57473 0.05501 0.0
O219 O 0.72435 0.57022 0.17502 0.0
O220 O 0.70237 0.56561 0.14184 0.0
C221 C 0.69594 0.57634 0.01524 0.0
C222 C 0.70995 0.56526 0.18093 0.0
O223 O 0.7447 0.58546 0.05654 0.0
Mg224 Mg 0.43231 0.14245 0.08605 0.0
O225 O 0.40867 0.1258 0.12025 0.0
O226 O 0.40894 0.10467 0.14309 0.0
Mg227 Mg 0.43269 0.1081 0.1301 0.0
C228 C 0.40205 0.11223 0.1382 0.0
C229 C 0.42991 0.16682 0.01768 0.0
O230 O 0.44085 0.16614 -0.0072 0.0
O231 O 0.42669 0.12781 0.01216 0.0
O232 O 0.42909 0.10849 0.04329 0.0
O233 O 0.44172 0.15221 0.16493 0.0
O234 O 0.44244 0.13279 0.12978 0.0
C235 C 0.42689 0.11537 0.00573 0.0
C236 C 0.44549 0.14179 0.16849 0.0
O237 O 0.42338 0.15773 0.05531 0.0
Mg238 Mg 0.87473 0.29297 0.07304 0.0
O239 O 0.89095 0.28517 0.10531 0.0
O240 O 0.91222 0.30602 0.13062 0.0
Mg241 Mg 0.90984 0.32696 0.1171 0.0
C242 C 0.90438 0.29161 0.12439 0.0
C243 C 0.84886 0.26678 0.00794 0.0
O244 O 0.84934 0.27869 -0.01415 0.0
O245 O 0.88915 0.30167 -0.00127 0.0
O246 O 0.9091 0.32285 0.0303 0.0
O247 O 0.86556 0.29302 0.15287 0.0
O248 O 0.88513 0.31277 0.11657 0.0
C249 C 0.90191 0.314 -0.00748 0.0
C250 C 0.87631 0.30711 0.15578 0.0
O251 O 0.85866 0.26892 0.0426 0.0
Mg252 Mg 0.43036 0.29307 0.06866 0.0
O253 O 0.40617 0.28503 0.10015 0.0
O254 O 0.40559 0.30608 0.12185 0.0
Mg255 Mg 0.42906 0.32705 0.11154 0.0
C256 C 0.39908 0.29164 0.11673 0.0
C257 C 0.43337 0.26713 0.02041 0.0
O258 O 0.44727 0.27887 0.01892 0.0
O259 O 0.42499 0.30194 -0.00622 0.0
O260 O 0.4264 0.32326 0.02468 0.0
O261 O 0.43944 0.29314 0.14894 0.0
O262 O 0.43947 0.31278 0.11244 0.0
C263 C 0.42483 0.3144 -0.01291 0.0
C264 C 0.44267 0.30719 0.15178 0.0
O265 O 0.42272 0.26918 0.03696 0.0
Mg266 Mg 0.7217 0.14267 0.0767 0.0
O267 O 0.72934 0.12533 0.09795 0.0
O268 O 0.70834 0.10385 0.12136 0.0
Mg269 Mg 0.68762 0.10702 0.11758 0.0
C270 C 0.72269 0.1115 0.1136 0.0
C271 C 0.74714 0.17183 0.02663 0.0
O272 O 0.73564 0.17435 0.02903 0.0
O273 O 0.71129 0.13015 -0.00017 0.0
O274 O 0.69025 0.10994 0.03062 0.0
O275 O 0.72366 0.15016 0.16058 0.0
O276 O 0.70302 0.13142 0.12461 0.0
C277 C 0.69854 0.11787 -0.00715 0.0
C278 C 0.70981 0.13904 0.16526 0.0
O279 O 0.74505 0.15895 0.04143 0.0
Mg280 Mg 0.87749 0.58683 0.06531 0.0
O281 O 0.89315 0.61198 0.08925 0.0
O282 O 0.91572 0.61424 0.10803 0.0
Mg283 Mg 0.91403 0.59094 0.10748 0.0
C284 C 0.90718 0.62002 0.1019 0.0
C285 C 0.84704 0.58069 0.02181 0.0
O286 O 0.84554 0.56715 0.02842 0.0
O287 O 0.89079 0.59037 -0.01085 0.0
O288 O 0.91126 0.59004 0.02004 0.0
O289 O 0.86928 0.57938 0.14721 0.0
O290 O 0.88926 0.57973 0.1126 0.0
C291 C 0.90321 0.59017 0.98223 0.0
C292 C 0.88049 0.57679 0.15186 0.0
O293 O 0.85995 0.59236 0.03092 0.0
Mg294 Mg 0.62634 0.09223 0.55472 0.0
O295 O 0.61888 0.06711 0.53635 0.0
O296 O 0.63998 0.06657 0.51535 0.0
Mg297 Mg 0.66058 0.0906 0.51699 0.0
C298 C 0.62562 0.05984 0.52285 0.0
C299 C 0.60128 0.09297 0.62438 0.0
O300 O 0.61352 0.10402 0.6464 0.0
O301 O 0.63662 0.09073 0.63279 0.0
O302 O 0.65782 0.09165 0.60354 0.0
O303 O 0.62456 0.09737 0.47027 0.0
O304 O 0.6451 0.0994 0.50731 0.0
C305 C 0.64944 0.09147 0.64069 0.0
C306 C 0.63844 0.1002 0.46621 0.0
O307 O 0.60285 0.08536 0.58815 0.0
Mg308 Mg 0.91595 0.53251 0.551 0.0
O309 O 0.9398 0.5495 0.51921 0.0
O310 O 0.93939 0.57026 0.49273 0.0
Mg311 Mg 0.91579 0.56707 0.50737 0.0
C312 C 0.94636 0.56283 0.49933 0.0
C313 C 0.91818 0.50773 0.6177 0.0
O314 O 0.90695 0.50803 0.64201 0.0
O315 O 0.92105 0.54669 0.62603 0.0
O316 O 0.91931 0.5663 0.59389 0.0
O317 O 0.90728 0.52371 0.46995 0.0
O318 O 0.90602 0.54247 0.50804 0.0
C319 C 0.92113 0.55931 0.63192 0.0
C320 C 0.90346 0.53412 0.46793 0.0
O321 O 0.92488 0.51713 0.58097 0.0
Mg322 Mg 0.47481 0.38508 0.5573 0.0
O323 O 0.45888 0.39375 0.52918 0.0
O324 O 0.43731 0.3734 0.50289 0.0
Mg325 Mg 0.43938 0.35207 0.50971 0.0
C326 C 0.44535 0.3877 0.51113 0.0
C327 C 0.5041 0.41038 0.60601 0.0
O328 O 0.50645 0.3988 0.60217 0.0
O329 O 0.46037 0.37519 0.6311 0.0
O330 O 0.44037 0.35444 0.5974 0.0
O331 O 0.48399 0.38596 0.47642 0.0
O332 O 0.46411 0.36605 0.51044 0.0
C333 C 0.4477 0.36267 0.63622 0.0
C334 C 0.47309 0.37198 0.4718 0.0
O335 O 0.49117 0.40844 0.59268 0.0
Mg336 Mg 0.58701 0.71962 0.88484 0.0
O337 O 0.61066 0.72652 0.85138 0.0
O338 O 0.61045 0.70517 0.82848 0.0
Mg339 Mg 0.58657 0.68487 0.84047 0.0
C340 C 0.61733 0.71962 0.83364 0.0
C341 C 0.58672 0.74752 0.93209 0.0
O342 O 0.57233 0.73687 0.93533 0.0
O343 O 0.59222 0.71029 0.95901 0.0
O344 O 0.58976 0.6886 0.92731 0.0
O345 O 0.57783 0.72003 0.80532 0.0
O346 O 0.57688 0.69986 0.84117 0.0
C347 C 0.59184 0.69755 0.96517 0.0
C348 C 0.57396 0.70579 0.80217 0.0
O349 O 0.59629 0.74389 0.9156 0.0
Mg350 Mg 0.29896 0.86855 0.89701 0.0
O351 O 0.29158 0.88527 0.86606 0.0
O352 O 0.31278 0.90726 0.84881 0.0
Mg353 Mg 0.33348 0.90485 0.86573 0.0
C354 C 0.2983 0.89912 0.85073 0.0
C355 C 0.27146 0.8424 0.95815 0.0
O356 O 0.28278 0.84287 0.98453 0.0
O357 O 0.30598 0.88107 0.97515 0.0
O358 O 0.32729 0.90235 0.95136 0.0
O359 O 0.30045 0.86135 0.81578 0.0
O360 O 0.31956 0.8801 0.85791 0.0
C361 C 0.31766 0.89399 -0.01427 0.0
C362 C 0.31448 0.87231 0.81608 0.0
O363 O 0.27444 0.852 0.92191 0.0
Mg364 Mg 0.14464 0.43034 0.90773 0.0
O365 O 0.12837 0.40605 0.87697 0.0
O366 O 0.10732 0.40575 0.84972 0.0
Mg367 Mg 0.10988 0.42926 0.85982 0.0
C368 C 0.11498 0.39907 0.85754 0.0
C369 C 0.16585 0.4165 0.91337 0.0
O370 O 0.16067 0.41312 0.86565 0.0
O371 O 0.12985 0.42522 0.98079 0.0
O372 O 0.11019 0.42659 0.94726 0.0
O373 O 0.15434 0.43918 0.82787 0.0
O374 O 0.13454 0.43943 0.86148 0.0
C375 C 0.11721 0.42507 -0.01411 0.0
C376 C 0.14364 0.44252 0.82316 0.0
O377 O 0.16062 0.42284 0.94296 0.0
Mg378 Mg 0.39256 0.92249 0.41026 0.0
O379 O 0.40058 0.94738 0.4345 0.0
O380 O 0.37967 0.94801 0.45731 0.0
Mg381 Mg 0.35876 0.92441 0.45031 0.0
C382 C 0.39404 0.95462 0.45052 0.0
C383 C 0.41723 0.91851 0.3571 0.0
O384 O 0.40506 0.90488 0.35537 0.0
O385 O 0.38281 0.9255 0.33386 0.0
O386 O 0.36183 0.92526 0.36256 0.0
O387 O 0.39359 0.91557 0.49262 0.0
O388 O 0.37335 0.91433 0.45629 0.0
C389 C 0.37048 0.92574 0.32577 0.0
C390 C 0.37952 0.91222 0.49644 0.0
O391 O 0.41597 0.9294 0.37605 0.0
Mg392 Mg 0.09966 0.47582 0.41741 0.0
O393 O 0.0757 0.4594 0.44957 0.0
O394 O 0.07543 0.43824 0.47525 0.0
Mg395 Mg 0.09893 0.44099 0.46253 0.0
C396 C 0.06877 0.44596 0.46862 0.0
C397 C 0.09895 0.50155 0.35244 0.0
O398 O 0.11085 0.50173 0.33157 0.0
O399 O 0.09409 0.46127 0.3436 0.0
O400 O 0.09562 0.44151 0.3755 0.0
O401 O 0.10887 0.48528 0.49695 0.0
O402 O 0.10926 0.46572 0.46155 0.0
C403 C 0.09386 0.4486 0.33759 0.0
C404 C 0.1124 0.47468 0.50038 0.0
O405 O 0.09125 0.49146 0.38627 0.0
Mg406 Mg 0.54148 0.62798 0.39758 0.0
O407 O 0.55767 0.61998 0.42943 0.0
O408 O 0.57921 0.64108 0.45173 0.0
Mg409 Mg 0.57652 0.66196 0.44225 0.0
C410 C 0.57136 0.62665 0.44632 0.0
C411 C 0.51231 0.60223 0.35129 0.0
O412 O 0.51011 0.61393 0.3534 0.0
O413 O 0.55593 0.63729 0.32323 0.0
O414 O 0.57558 0.65867 0.35511 0.0
O415 O 0.53207 0.62761 0.47738 0.0
O416 O 0.55183 0.64748 0.4425 0.0
C417 C 0.56842 0.64993 0.31709 0.0
C418 C 0.54283 0.64167 0.48121 0.0
O419 O 0.52526 0.60421 0.36469 0.0
Mg420 Mg 0.09335 0.62492 0.41047 0.0
O421 O 0.06789 0.6163 0.42719 0.0
O422 O 0.06608 0.6369 0.44527 0.0
Mg423 Mg 0.08954 0.65829 0.44309 0.0
C424 C 0.06001 0.62252 0.43914 0.0
C425 C 0.09929 0.6004 0.36543 0.0
O426 O 0.11293 0.61252 0.36825 0.0
O427 O 0.09164 0.63434 0.33111 0.0
O428 O 0.09113 0.65515 0.35689 0.0
O429 O 0.09842 0.62406 0.49559 0.0
O430 O 0.0994 0.64383 0.45604 0.0
C431 C 0.09163 0.64672 0.32117 0.0
C432 C 0.10049 0.63772 0.49806 0.0
O433 O 0.08787 0.60167 0.37826 0.0
Mg434 Mg 0.38882 0.47636 0.41167 0.0
O435 O 0.39643 0.45987 0.4427 0.0
O436 O 0.37559 0.43871 0.46871 0.0
Mg437 Mg 0.35479 0.44145 0.45709 0.0
C438 C 0.38996 0.44641 0.46165 0.0
C439 C 0.41517 0.5019 0.345 0.0
O440 O 0.40338 0.50164 0.3228 0.0
O441 O 0.37955 0.46192 0.33739 0.0
O442 O 0.35839 0.44216 0.36996 0.0
O443 O 0.38923 0.4856 0.49191 0.0
O444 O 0.36922 0.46616 0.4564 0.0
C445 C 0.36706 0.44926 0.3317 0.0
C446 C 0.37511 0.47499 0.49547 0.0
O447 O 0.41286 0.49217 0.38017 0.0
Mg448 Mg 0.54059 0.91612 0.40071 0.0
O449 O 0.55674 0.93965 0.43619 0.0
O450 O 0.57769 0.93974 0.46307 0.0
Mg451 Mg 0.57518 0.91649 0.44612 0.0
C452 C 0.56993 0.94638 0.45704 0.0
C453 C 0.51549 0.91829 0.3355 0.0
O454 O 0.51531 0.9068 0.3113 0.0
O455 O 0.55552 0.92246 0.32748 0.0
O456 O 0.57518 0.92081 0.35944 0.0
O457 O 0.5308 0.9063 0.47923 0.0
O458 O 0.55042 0.90602 0.44395 0.0
C459 C 0.56828 0.92288 0.32163 0.0
C460 C 0.54138 0.90277 0.48263 0.0
O461 O 0.52527 0.92508 0.37108 0.0
Mg462 Mg 0.29755 0.42953 0.90123 0.0
O463 O 0.28973 0.4056 0.86869 0.0
O464 O 0.31034 0.40497 0.84222 0.0
Mg465 Mg 0.33131 0.42841 0.85488 0.0
C466 C 0.29597 0.39851 0.8491 0.0
C467 C 0.27 0.43065 0.94843 0.0
O468 O 0.2807 0.44506 0.95026 0.0
O469 O 0.30678 0.42405 0.97485 0.0
O470 O 0.32791 0.42547 0.94218 0.0
O471 O 0.29721 0.43874 0.82163 0.0
O472 O 0.31716 0.43905 0.85653 0.0
C473 C 0.31926 0.42389 0.98048 0.0
C474 C 0.31131 0.44219 0.81784 0.0
O475 O 0.27351 0.42089 0.93298 0.0
Mg476 Mg 0.5874 0.87323 0.89208 0.0
O477 O 0.61157 0.88913 0.85977 0.0
O478 O 0.61207 0.91021 0.83163 0.0
Mg479 Mg 0.58878 0.90805 0.8433 0.0
C480 C 0.61859 0.90239 0.83929 0.0
C481 C 0.60097 0.85183 0.89725 0.0
O482 O 0.60413 0.85692 0.84938 0.0
O483 O 0.59286 0.88827 0.96474 0.0
O484 O 0.5916 0.90797 0.93092 0.0
O485 O 0.57827 0.86326 0.81292 0.0
O486 O 0.57829 0.88332 0.84553 0.0
C487 C 0.59309 0.90097 0.96968 0.0
C488 C 0.57506 0.87404 0.80763 0.0
O489 O 0.59484 0.85718 0.9273 0.0
Mg490 Mg 0.14238 0.72102 0.88597 0.0
O491 O 0.12552 0.72978 0.87289 0.0
O492 O 0.10298 0.70922 0.85474 0.0
Mg493 Mg 0.10555 0.68817 0.84705 0.0
C494 C 0.11128 0.72351 0.86301 0.0
C495 C 0.17215 0.74448 0.93908 0.0
O496 O 0.17345 0.73223 0.93698 0.0
O497 O 0.13086 0.70971 0.96349 0.0
O498 O 0.1102 0.689 0.93294 0.0
O499 O 0.14879 0.72382 0.80083 0.0
O500 O 0.12987 0.7032 0.83614 0.0
C501 C 0.11884 0.69673 0.97036 0.0
C502 C 0.13726 0.71022 0.79542 0.0
O503 O 0.15985 0.74358 0.9232 0.0
H504 H 0.2585 1.00003 0.60366 0.0
H505 H 0.21177 0.96772 0.56384 0.0
H506 H 0.26195 0.0126 0.5206 0.0
H507 H 0.2154 0.98039 0.47973 0.0
H508 H 0.23668 0.99828 0.31572 0.0
H509 H 0.2311 0.98517 0.39852 0.0
H510 H 0.25182 0.02844 0.47815 0.0
H511 H 0.25751 0.04176 0.39439 0.0
C512 C 0.24897 0.99549 0.57697 0.0
C513 C 0.23479 0.98291 0.59058 0.0
C514 C 0.25094 1.00284 0.52961 0.0
C515 C 0.23885 0.99769 0.4944 0.0
C516 C 0.22488 0.98464 0.50654 0.0
C517 C 0.22284 0.97731 0.55439 0.0
C518 C 0.24003 1.00506 0.35084 0.0
C519 C 0.24776 0.02109 0.34863 0.0
C520 C 0.23668 0.9975 0.39823 0.0
C521 C 0.2411 1.00578 0.44458 0.0
C522 C 0.24843 0.02181 0.44271 0.0
C523 C 0.25163 0.02942 0.39501 0.0
H524 H 1.00657 0.2587 0.64269 0.0
H525 H 0.0461 0.26003 0.57358 0.0
H526 H 0.99458 0.25406 0.55799 0.0
H527 H 0.03398 0.2556 0.48831 0.0
H528 H 0.01184 0.25975 0.33973 0.0
H529 H 0.02379 0.2682 0.42405 0.0
H530 H 0.98479 0.23056 0.49683 0.0
H531 H 0.97271 0.22178 0.41189 0.0
C532 C 0.01285 0.25826 0.6094 0.0
C533 C 0.02728 0.25957 0.61511 0.0
C534 C 1.00588 0.25552 0.56096 0.0
C535 C 0.01328 0.25429 0.51699 0.0
C536 C 0.02807 0.25652 0.52186 0.0
C537 C 0.035 0.25907 0.57059 0.0
C538 C 1.00564 0.25329 0.37358 0.0
C539 C 0.99133 0.23994 0.36888 0.0
C540 C 0.01259 0.25815 0.42183 0.0
C541 C 1.00529 0.24994 0.4666 0.0
C542 C 0.99063 0.2371 0.46263 0.0
C543 C 0.98372 0.23208 0.41409 0.0
H544 H 0.75635 0.74832 0.36899 0.0
H545 H 0.80337 0.76279 0.40384 0.0
H546 H 0.75381 0.75811 0.45199 0.0
H547 H 0.80068 0.77253 0.48777 0.0
H548 H 0.78161 0.77136 0.65371 0.0
H549 H 0.78597 0.76266 0.5712 0.0
H550 H 0.76456 0.78449 0.49146 0.0
H551 H 0.76009 0.79329 0.57487 0.0
C552 C 0.76613 0.75344 0.39461 0.0
C553 C 0.78013 0.75488 0.37956 0.0
C554 C 0.76468 0.75919 0.44192 0.0
C555 C 0.77714 0.76639 0.47563 0.0
C556 C 0.79092 0.7671 0.46216 0.0
C557 C 0.79243 0.76142 0.41439 0.0
C558 C 0.77786 0.77439 0.61861 0.0
C559 C 0.77031 0.78285 0.62074 0.0
C560 C 0.7805 0.76949 0.57136 0.0
C561 C 0.77552 0.77281 0.52512 0.0
C562 C 0.76836 0.78165 0.52683 0.0
C563 C 0.76587 0.78675 0.57434 0.0
H564 H 0.77735 0.01635 0.65741 0.0
H565 H 0.76 0.97357 0.57571 0.0
H566 H 0.78201 0.02977 0.57531 0.0
H567 H 0.76463 0.98719 0.49304 0.0
H568 H 0.7588 0.01437 0.36346 0.0
H569 H 0.75373 1.00274 0.44893 0.0
H570 H 0.79968 0.03493 0.49604 0.0
H571 H 0.80498 0.04657 0.40961 0.0
C572 C 0.77443 0.00977 0.62191 0.0
C573 C 0.76819 0.99384 0.62304 0.0
C574 C 0.77723 0.01752 0.57497 0.0
C575 C 0.77365 0.00951 0.52811 0.0
C576 C 0.76737 0.99359 0.52892 0.0
C577 C 0.76477 0.98581 0.57605 0.0
C578 C 0.76781 0.01917 0.39213 0.0
C579 C 0.78239 0.03128 0.37948 0.0
C580 C 0.7649 0.0124 0.44091 0.0
C581 C 0.77641 0.01772 0.4784 0.0
C582 C 0.79065 0.03058 0.46743 0.0
C583 C 0.79364 0.0373 0.41818 0.0
H584 H 0.04417 0.79388 0.56595 0.0
H585 H 1.00443 0.75592 0.63536 0.0
H586 H 0.03222 0.78595 0.48052 0.0
H587 H 0.9926 0.7483 0.55051 0.0
H588 H 0.97099 0.75795 0.40239 0.0
H589 H 0.98289 0.76157 0.4878 0.0
H590 H 0.02221 0.76314 0.41717 0.0
H591 H 0.01044 0.75934 0.3324 0.0
C592 C 0.03306 0.78375 0.56302 0.0
C593 C 0.02523 0.77567 0.60764 0.0
C594 C 0.02622 0.77922 0.51419 0.0
C595 C 0.01141 0.76664 0.50932 0.0
C596 C 1.00391 0.75816 0.55345 0.0
C597 C 0.01078 0.76254 0.60199 0.0
C598 C 0.98203 0.75877 0.40518 0.0
C599 C 0.98979 0.75852 0.36043 0.0
C600 C 0.98884 0.76085 0.45399 0.0
C601 C 1.00354 0.76283 0.45869 0.0
C602 C 0.01097 0.76188 0.41439 0.0
C603 C 1.00414 0.75963 0.36588 0.0
H604 H 0.27227 0.25893 0.35893 0.0
H605 H 0.24144 0.21187 0.39853 0.0
H606 H 0.26609 0.26701 0.44015 0.0
H607 H 0.23511 0.22 0.47976 0.0
H608 H 0.21283 0.24183 0.57641 0.0
H609 H 0.22092 0.23542 0.49533 0.0
H610 H 0.26798 0.26421 0.5392 0.0
H611 H 0.25993 0.27048 0.62031 0.0
C612 C 0.26446 0.25032 0.3857 0.0
C613 C 0.25734 0.23479 0.37271 0.0
C614 C 0.26087 0.25494 0.4319 0.0
C615 C 0.24992 0.24412 0.46544 0.0
C616 C 0.24341 0.22854 0.45389 0.0
C617 C 0.2472 0.22389 0.40799 0.0
C618 C 0.22488 0.24712 0.56795 0.0
C619 C 0.23577 0.25665 0.60439 0.0
C620 C 0.2295 0.24326 0.52212 0.0
C621 C 0.24505 0.2491 0.51179 0.0
C622 C 0.25593 0.25949 0.54651 0.0
C623 C 0.25132 0.26314 0.59264 0.0
H624 H 0.92484 0.33448 0.6647 0.0
H625 H 0.92863 0.37477 0.73692 0.0
H626 H 0.92022 0.32218 0.74887 0.0
H627 H 0.92419 0.36233 0.82166 0.0
H628 H 0.92866 0.33943 0.96748 0.0
H629 H 0.93673 0.35122 0.88274 0.0
H630 H 0.89738 0.31323 0.81292 0.0
H631 H 0.88897 0.30134 0.89831 0.0
C632 C 0.92492 0.34084 0.69854 0.0
C633 C 0.92699 0.35562 0.69392 0.0
C634 C 0.92218 0.33371 0.74667 0.0
C635 C 0.9217 0.34126 0.79139 0.0
C636 C 0.92454 0.3563 0.7875 0.0
C637 C 0.92708 0.36341 0.73908 0.0
C638 C 0.92174 0.33341 0.93416 0.0
C639 C 0.908 0.31948 0.93986 0.0
C640 C 0.92639 0.34026 0.8857 0.0
C641 C 0.91757 0.33324 0.84171 0.0
C642 C 0.90437 0.31886 0.84653 0.0
C643 C 0.89957 0.31205 0.89531 0.0
H644 H 0.63539 0.54399 0.75034 0.0
H645 H 0.67249 0.58761 0.70032 0.0
H646 H 0.64713 0.54819 0.83621 0.0
H647 H 0.68414 0.59159 0.78544 0.0
H648 H 0.70915 0.58152 0.91826 0.0
H649 H 0.69658 0.57873 0.8344 0.0
H650 H 0.65433 0.56613 0.91295 0.0
H651 H 0.66665 0.5689 -0.00402 0.0
C652 C 0.64584 0.55457 0.75783 0.0
C653 C 0.65304 0.56537 0.71825 0.0
C654 C 0.65261 0.55694 0.80686 0.0
C655 C 0.6667 0.57009 0.81696 0.0
C656 C 0.67347 0.58121 0.77829 0.0
C657 C 0.66668 0.57893 0.72965 0.0
C658 C 0.69722 0.57825 0.91757 0.0
C659 C 0.68897 0.57547 0.9639 0.0
C660 C 0.69004 0.57669 0.86969 0.0
C661 C 0.67446 0.57215 0.86739 0.0
C662 C 0.66628 0.56948 0.9136 0.0
C663 C 0.67344 0.57119 0.96121 0.0
H664 H 0.4249 0.09364 0.67675 0.0
H665 H 0.46185 0.09058 0.74859 0.0
H666 H 0.41672 0.09733 0.76134 0.0
H667 H 0.45337 0.09409 0.83364 0.0
H668 H 0.42647 0.08909 0.98022 0.0
H669 H 0.43017 0.08122 0.89511 0.0
H670 H 0.4298 0.11981 0.826 0.0
H671 H 0.42629 0.12798 0.91171 0.0
C672 C 0.43117 0.0935 0.71057 0.0
C673 C 0.44418 0.09197 0.70573 0.0
C674 C 0.42647 0.09569 0.75898 0.0
C675 C 0.43451 0.09616 0.80372 0.0
C676 C 0.44696 0.09374 0.79952 0.0
C677 C 0.45181 0.09172 0.75089 0.0
C678 C 0.42698 0.09586 0.94698 0.0
C679 C 0.42629 0.10933 0.95296 0.0
C680 C 0.42916 0.09134 0.89828 0.0
C681 C 0.43047 0.10001 0.85432 0.0
C682 C 0.42881 0.11292 0.85951 0.0
C683 C 0.42679 0.11758 0.90851 0.0
H684 H 0.45939 0.37547 0.73148 0.0
H685 H 0.42304 0.33507 0.65909 0.0
H686 H 0.45151 0.36295 0.81614 0.0
H687 H 0.4155 0.3227 0.74314 0.0
H688 H 0.42559 0.30187 0.89312 0.0
H689 H 0.42938 0.31383 0.80767 0.0
H690 H 0.42776 0.35175 0.87674 0.0
H691 H 0.42373 0.33989 0.96144 0.0
C692 C 0.44964 0.36406 0.73359 0.0
C693 C 0.44195 0.35628 0.6884 0.0
C694 C 0.44515 0.35691 0.78195 0.0
C695 C 0.43302 0.34182 0.78576 0.0
C696 C 0.425 0.33426 0.74101 0.0
C697 C 0.42932 0.34144 0.69294 0.0
C698 C 0.42572 0.31258 0.88992 0.0
C699 C 0.42453 0.31997 0.93426 0.0
C700 C 0.42792 0.31944 0.84112 0.0
C701 C 0.42909 0.3338 0.83609 0.0
C702 C 0.42716 0.3408 0.87986 0.0
C703 C 0.42478 0.33391 0.92831 0.0
H704 H 0.67118 0.09336 0.96739 0.0
H705 H 0.71101 0.13152 0.89913 0.0
H706 H 0.65901 0.0866 0.88308 0.0
H707 H 0.69865 0.12446 0.81394 0.0
H708 H 0.6771 0.09534 0.66755 0.0
H709 H 0.68921 0.10159 0.75192 0.0
H710 H 0.64902 0.09906 0.81881 0.0
H711 H 0.63669 0.0929 0.73346 0.0
C712 C 0.67744 0.10028 0.93439 0.0
C713 C 0.69212 0.11307 0.94016 0.0
C714 C 0.67035 0.09642 0.88616 0.0
C715 C 0.67782 0.1051 0.84238 0.0
C716 C 0.69267 0.11759 0.8474 0.0
C717 C 0.69975 0.12161 0.89601 0.0
C718 C 0.6707 0.09601 0.70007 0.0
C719 C 0.65587 0.09365 0.69359 0.0
C720 C 0.67776 0.09972 0.74833 0.0
C721 C 0.67012 0.10098 0.7915 0.0
C722 C 0.65513 0.09815 0.78583 0.0
C723 C 0.64807 0.0946 0.73713 0.0
H724 H 0.92211 0.58595 0.65534 0.0
H725 H 0.92097 0.54679 0.72714 0.0
H726 H 0.91878 0.59456 0.73944 0.0
H727 H 0.91789 0.55577 0.81212 0.0
H728 H 0.92693 0.586 0.95677 0.0
H729 H 0.93275 0.57935 0.87281 0.0
H730 H 0.89594 0.58299 0.80384 0.0
H731 H 0.8898 0.58948 0.88853 0.0
C732 C 0.92135 0.57923 0.68909 0.0
C733 C 0.92165 0.56553 0.68431 0.0
C734 C 0.91935 0.58418 0.73722 0.0
C735 C 0.91786 0.57572 0.78189 0.0
C736 C 0.919 0.56248 0.77794 0.0
C737 C 0.9208 0.55737 0.72944 0.0
C738 C 0.9201 0.58555 0.92381 0.0
C739 C 0.9078 0.58822 0.92955 0.0
C740 C 0.92342 0.58162 0.87581 0.0
C741 C 0.91471 0.58052 0.83223 0.0
C742 C 0.90283 0.5838 0.83712 0.0
C743 C 0.89934 0.58753 0.88548 0.0
H744 H 0.59408 0.67652 0.29236 0.0
H745 H 0.55589 0.63706 0.22258 0.0
H746 H 0.6017 0.68852 0.2078 0.0
H747 H 0.56385 0.64919 0.13733 0.0
H748 H 0.59115 0.67108 -0.01017 0.0
H749 H 0.58695 0.65914 0.07445 0.0
H750 H 0.58853 0.69849 0.14501 0.0
H751 H 0.59251 0.71055 0.05969 0.0
C752 C 0.5874 0.67026 0.25896 0.0
C753 C 0.57423 0.65583 0.26444 0.0
C754 C 0.59178 0.67724 0.21058 0.0
C755 C 0.58327 0.66986 0.1664 0.0
C756 C 0.5706 0.6551 0.17107 0.0
C757 C 0.56607 0.64815 0.21977 0.0
C758 C 0.59078 0.67735 0.02326 0.0
C759 C 0.59199 0.69176 0.01779 0.0
C760 C 0.58829 0.67041 0.07167 0.0
C761 C 0.58722 0.6778 0.11589 0.0
C762 C 0.58932 0.69257 0.11124 0.0
C763 C 0.59163 0.69948 0.0625 0.0
H764 H 0.37396 0.91039 0.24523 0.0
H765 H 0.35271 0.93658 0.28804 0.0
H766 H 0.35907 0.9026 0.16495 0.0
H767 H 0.33803 0.92898 0.20736 0.0
H768 H 0.33027 0.92271 0.02341 0.0
H769 H 0.34354 0.9318 0.10625 0.0
H770 H 0.32892 0.88547 0.15116 0.0
H771 H 0.31536 0.87632 0.06854 0.0
C772 C 0.36645 0.91483 0.23676 0.0
C773 C 0.36449 0.92409 0.27269 0.0
C774 C 0.35777 0.91018 0.19136 0.0
C775 C 0.34723 0.91497 0.18079 0.0
C776 C 0.34601 0.92505 0.21498 0.0
C777 C 0.35446 0.92946 0.26083 0.0
C778 C 0.32949 0.91445 0.05176 0.0
C779 C 0.32178 0.89883 0.03988 0.0
C780 C 0.33714 0.91966 0.09887 0.0
C781 C 0.33746 0.90933 0.13432 0.0
C782 C 0.32898 0.89363 0.12389 0.0
C783 C 0.32105 0.88839 0.07713 0.0
H784 H 0.0934 0.46119 0.24346 0.0
H785 H 0.09349 0.42231 0.31252 0.0
H786 H 0.09695 0.45297 0.15797 0.0
H787 H 0.09723 0.41438 0.22757 0.0
H788 H 0.12881 0.42357 0.08082 0.0
H789 H 0.12047 0.42726 0.16587 0.0
H790 H 0.0837 0.43035 0.09386 0.0
H791 H 0.09175 0.4265 0.0093 0.0
C792 C 0.09389 0.45078 0.24043 0.0
C793 C 0.09334 0.44254 0.28497 0.0
C794 C 0.09593 0.44609 0.19155 0.0
C795 C 0.09757 0.43317 0.18658 0.0
C796 C 0.09623 0.42451 0.2306 0.0
C797 C 0.09402 0.42907 0.27921 0.0
C798 C 0.11879 0.42474 0.08319 0.0
C799 C 0.11108 0.42489 0.03813 0.0
C800 C 0.11402 0.42685 0.13183 0.0
C801 C 0.10156 0.42926 0.13606 0.0
C802 C 0.09346 0.42872 0.09143 0.0
C803 C 0.09808 0.42644 0.04305 0.0
H804 H 0.09808 0.63557 0.23333 0.0
H805 H 0.09078 0.67176 0.28801 0.0
H806 H 0.10526 0.64793 0.1482 0.0
H807 H 0.09804 0.68397 0.20376 0.0
H808 H 0.1296 0.70994 0.066 0.0
H809 H 0.12265 0.69715 0.15067 0.0
H810 H 0.0926 0.65439 0.07527 0.0
H811 H 0.09937 0.66693 -0.00842 0.0
C812 C 0.09781 0.646 0.22712 0.0
C813 C 0.09394 0.65269 0.2676 0.0
C814 C 0.10199 0.6531 0.17857 0.0
C815 C 0.10246 0.66704 0.16996 0.0
C816 C 0.09811 0.67343 0.20981 0.0
C817 C 0.09382 0.66631 0.25793 0.0
C818 C 0.12153 0.69784 0.06765 0.0
C819 C 0.11496 0.68952 0.02215 0.0
C820 C 0.11754 0.69053 0.11593 0.0
C821 C 0.10712 0.67478 0.11922 0.0
C822 C 0.10076 0.66649 0.07375 0.0
C823 C 0.10457 0.67376 0.02585 0.0
H824 H 0.34085 0.42309 0.30785 0.0
H825 H 0.37975 0.46156 0.23677 0.0
H826 H 0.32892 0.41486 0.22342 0.0
H827 H 0.36769 0.453 0.15166 0.0
H828 H 0.34604 0.42519 0.00485 0.0
H829 H 0.35812 0.42978 0.08938 0.0
H830 H 0.31847 0.42741 0.1602 0.0
H831 H 0.30626 0.42303 0.0751 0.0
C832 C 0.347 0.42971 0.2742 0.0
C833 C 0.36124 0.44314 0.27926 0.0
C834 C 0.34007 0.42498 0.22589 0.0
C835 C 0.3473 0.43339 0.18136 0.0
C836 C 0.36191 0.44631 0.18565 0.0
C837 C 0.36881 0.4512 0.23428 0.0
C838 C 0.33973 0.42544 0.03835 0.0
C839 C 0.32519 0.4239 0.03301 0.0
C840 C 0.34675 0.42816 0.0867 0.0
C841 C 0.33931 0.42913 0.13096 0.0
C842 C 0.32443 0.42669 0.12643 0.0
C843 C 0.31744 0.42417 0.07779 0.0
H844 H 0.55592 0.9236 0.22727 0.0
H845 H 0.59495 0.92401 0.29689 0.0
H846 H 0.56451 0.92055 0.14175 0.0
H847 H 0.60324 0.92076 0.21189 0.0
H848 H 0.5949 0.88957 0.06469 0.0
H849 H 0.59095 0.89772 0.14974 0.0
H850 H 0.58702 0.93402 0.07771 0.0
H851 H 0.59113 0.92617 -0.00688 0.0
C852 C 0.56644 0.92334 0.22436 0.0
C853 C 0.57461 0.92386 0.26907 0.0
C854 C 0.57135 0.92159 0.17545 0.0
C855 C 0.58441 0.9202 0.17056 0.0
C856 C 0.59301 0.92155 0.2148 0.0
C857 C 0.58824 0.92348 0.26344 0.0
C858 C 0.5935 0.89946 0.06705 0.0
C859 C 0.5932 0.90709 0.02195 0.0
C860 C 0.59124 0.90413 0.1157 0.0
C861 C 0.58851 0.91639 0.11998 0.0
C862 C 0.5889 0.92442 0.0753 0.0
C863 C 0.59133 0.91991 0.02689 0.0
H864 H 0.20051 0.97371 0.9002 0.0
H865 H 0.24689 0.98905 0.8548 0.0
H866 H 0.20973 0.9931 0.96867 0.0
H867 H 0.25609 0.00868 0.92126 0.0
H868 H 0.26563 0.0296 0.08548 0.0
H869 H 0.25768 0.01128 0.01477 0.0
H870 H 0.22246 0.02151 0.97345 0.0
H871 H 0.23029 0.03966 0.04573 0.0
C872 C 0.21266 0.98109 0.90541 0.0
C873 C 0.22301 0.98007 0.87201 0.0
C874 C 0.21792 0.99234 0.9438 0.0
C875 C 0.23362 1.0026 0.94952 0.0
C876 C 0.24394 1.00101 0.91763 0.0
C877 C 0.23867 0.98984 0.87931 0.0
C878 C 0.25636 0.0281 0.06067 0.0
C879 C 0.24848 0.03589 0.07087 0.0
C880 C 0.25182 0.01765 0.02016 0.0
C881 C 0.23927 0.01478 -0.01081 0.0
C882 C 0.23198 0.02331 -0.00256 0.0
C883 C 0.23662 0.03386 0.03799 0.0
H884 H 1.00761 0.22655 0.14329 0.0
H885 H 0.96776 0.19424 0.05776 0.0
H886 H 0.0228 0.23285 0.06541 0.0
H887 H 0.98331 0.20009 0.97925 0.0
H888 H 0.01065 0.23133 0.84342 0.0
H889 H 0.99532 0.2211 0.92065 0.0
H890 H 0.0342 0.22461 0.0022 0.0
H891 H 0.04988 0.23565 0.92479 0.0
C892 C 1.00207 0.22072 0.10775 0.0
C893 C 0.98637 0.21017 0.10637 0.0
C894 C 0.0109 0.22416 0.06314 0.0
C895 C 1.0043 0.21702 0.01598 0.0
C896 C 0.98869 0.20597 0.0149 0.0
C897 C 0.97979 0.20257 0.05978 0.0
C898 C 0.01603 0.23009 0.87788 0.0
C899 C 0.03161 0.23469 0.8784 0.0
C900 C 1.00712 0.22393 0.92201 0.0
C901 C 0.0135 0.22205 0.96772 0.0
C902 C 0.02898 0.22614 0.96778 0.0
C903 C 0.03797 0.23243 0.9235 0.0
H904 H 0.79027 0.82039 0.91971 0.0
H905 H 0.75151 0.77643 0.88486 0.0
H906 H 0.79666 0.80921 -0.00673 0.0
H907 H 0.75786 0.7652 0.95741 0.0
H908 H 0.76744 0.75353 0.11907 0.0
H909 H 0.75987 0.76537 0.05247 0.0
H910 H 0.80634 0.79055 -0.00186 0.0
H911 H 0.81401 0.77889 0.0663 0.0
C912 C 0.78288 0.80846 0.92894 0.0
C913 C 0.77039 0.79922 0.89727 0.0
C914 C 0.78666 0.80201 0.97025 0.0
C915 C 0.77788 0.7863 0.98045 0.0
C916 C 0.76481 0.77733 0.95055 0.0
C917 C 0.76116 0.78374 0.90916 0.0
C918 C 0.77606 0.76159 0.0931 0.0
C919 C 0.79134 0.76543 0.09824 0.0
C920 C 0.7717 0.76832 0.05473 0.0
C921 C 0.78256 0.77907 0.02072 0.0
C922 C 0.79779 0.78252 0.0246 0.0
C923 C 0.80213 0.77568 0.06292 0.0
H924 H 0.75651 0.98108 0.88781 0.0
H925 H 0.79366 0.97257 0.91154 0.0
H926 H 0.76474 0.99813 0.96168 0.0
H927 H 0.80168 0.98921 -0.01182 0.0
H928 H 0.82226 0.03541 0.07521 0.0
H929 H 0.81355 0.01661 0.00475 0.0
H930 H 0.76691 0.9998 0.0519 0.0
H931 H 0.77554 0.01913 0.11832 0.0
C932 C 0.76626 0.98261 0.90989 0.0
C933 C 0.77453 0.97567 0.89413 0.0
C934 C 0.77095 0.99232 0.95246 0.0
C935 C 0.78399 0.99518 0.98061 0.0
C936 C 0.79176 0.98744 0.96667 0.0
C937 C 0.78703 0.97771 0.9236 0.0
C938 C 0.81016 0.02782 0.06965 0.0
C939 C 0.79957 0.02849 0.10289 0.0
C940 C 0.80518 0.01689 0.03007 0.0
C941 C 0.78953 0.00654 0.02319 0.0
C942 C 0.77903 0.00756 0.05592 0.0
C943 C 0.78399 0.01851 0.09479 0.0
H944 H 0.04842 0.82255 0.91696 0.0
H945 H 0.0089 0.78858 0.83411 0.0
H946 H 0.03277 0.81765 -0.00537 0.0
H947 H 0.99362 0.78316 0.91145 0.0
H948 H 0.96614 0.78102 0.04958 0.0
H949 H 0.98175 0.79158 0.97169 0.0
H950 H 0.02122 0.79776 0.05657 0.0
H951 H 1.00595 0.78809 0.13406 0.0
C952 C 0.03645 0.81403 0.91538 0.0
C953 C 0.03 0.8057 0.86982 0.0
C954 C 0.02748 0.81118 0.9598 0.0
C955 C 0.01193 0.79992 0.95941 0.0
C956 C 1.00546 0.79202 0.91317 0.0
C957 C 0.01435 0.79495 0.86893 0.0
C958 C 0.97817 0.78478 0.05148 0.0
C959 C 0.98472 0.78336 0.09756 0.0
C960 C 0.98712 0.79078 0.00693 0.0
C961 C 1.00274 0.79541 0.00774 0.0
C962 C 0.00931 0.79449 0.0545 0.0
C963 C 1.00044 0.78864 0.09884 0.0
H964 H 0.23796 0.19637 0.0503 0.0
H965 H 0.23552 0.23156 0.13695 0.0
H966 H 0.22784 0.20268 0.97411 0.0
H967 H 0.2262 0.2383 0.0609 0.0
H968 H 0.19801 0.23954 0.9274 0.0
H969 H 0.2048 0.23004 0.00433 0.0
H970 H 0.23619 0.22275 0.91225 0.0
H971 H 0.22894 0.23143 0.83588 0.0
C972 C 0.23542 0.20553 0.05294 0.0
C973 C 0.23782 0.21364 0.09937 0.0
C974 C 0.22965 0.20918 0.00935 0.0
C975 C 0.22624 0.22104 0.01138 0.0
C976 C 0.22849 0.22898 0.05808 0.0
C977 C 0.23413 0.22527 0.10155 0.0
C978 C 0.2063 0.23583 0.92377 0.0
C979 C 0.21315 0.23652 0.87582 0.0
C980 C 0.21024 0.23045 0.96775 0.0
C981 C 0.22111 0.2257 0.96446 0.0
C982 C 0.22766 0.22613 0.91618 0.0
C983 C 0.22367 0.23138 0.87244 0.0
H984 H 0.9055 0.38044 0.38376 0.0
H985 H 0.90118 0.34106 0.46428 0.0
H986 H 0.89441 0.36482 0.30612 0.0
H987 H 0.89092 0.32583 0.38705 0.0
H988 H 0.86337 0.29809 0.25236 0.0
H989 H 0.86957 0.31394 0.33014 0.0
H990 H 0.90212 0.35308 0.24194 0.0
H991 H 0.89544 0.33755 0.1646 0.0
C992 C 0.90229 0.36853 0.3848 0.0
C993 C 0.90452 0.36209 0.42978 0.0
C994 C 0.89596 0.35957 0.34042 0.0
C995 C 0.89179 0.34406 0.34036 0.0
C996 C 0.89376 0.33764 0.38582 0.0
C997 C 0.89996 0.34651 0.42996 0.0
C998 C 0.87172 0.31011 0.2497 0.0
C999 C 0.87917 0.31648 0.20272 0.0
C1000 C 0.87533 0.31918 0.29417 0.0
C1001 C 0.88646 0.33477 0.29235 0.0
C1002 C 0.89341 0.34119 0.24476 0.0
C1003 C 0.88975 0.33218 0.2005 0.0
H1004 H 0.68441 0.53902 0.20192 0.0
H1005 H 0.71763 0.58161 0.27062 0.0
H1006 H 0.66836 0.533 0.27847 0.0
H1007 H 0.70121 0.5762 0.34637 0.0
H1008 H 0.67294 0.55737 0.49185 0.0
H1009 H 0.69026 0.56177 0.4207 0.0
H1010 H 0.652 0.54025 0.31533 0.0
H1011 H 0.63457 0.53508 0.38774 0.0
C1012 C 0.68833 0.54697 0.23411 0.0
C1013 C 0.70226 0.56064 0.23116 0.0
C1014 C 0.67904 0.54367 0.27755 0.0
C1015 C 0.68329 0.55422 0.31836 0.0
C1016 C 0.6976 0.5677 0.31606 0.0
C1017 C 0.70707 0.57082 0.27288 0.0
C1018 C 0.66821 0.55363 0.45341 0.0
C1019 C 0.65239 0.54591 0.44522 0.0
C1020 C 0.67819 0.55621 0.41248 0.0
C1021 C 0.67261 0.55137 0.36209 0.0
C1022 C 0.65673 0.54385 0.3538 0.0
C1023 C 0.64671 0.541 0.39509 0.0
H1024 H 0.45671 0.12263 0.18042 0.0
H1025 H 0.45063 0.15639 0.26227 0.0
H1026 H 0.46662 0.11744 0.25834 0.0
H1027 H 0.4614 0.15174 0.34034 0.0
H1028 H 0.45863 0.12257 0.48061 0.0
H1029 H 0.45295 0.13184 0.40228 0.0
H1030 H 0.48686 0.12618 0.31952 0.0
H1031 H 0.49205 0.11607 0.39837 0.0
C1032 C 0.45752 0.129 0.21512 0.0
C1033 C 0.45247 0.13962 0.21559 0.0
C1034 C 0.4635 0.12621 0.25967 0.0
C1035 C 0.46476 0.13411 0.30575 0.0
C1036 C 0.46033 0.14525 0.30567 0.0
C1037 C 0.45421 0.14796 0.26099 0.0
C1038 C 0.46484 0.12317 0.44571 0.0
C1039 C 0.47552 0.1182 0.44533 0.0
C1040 C 0.46176 0.12878 0.40086 0.0
C1041 C 0.46941 0.12974 0.35447 0.0
C1042 C 0.48059 0.12536 0.3545 0.0
C1043 C 0.48361 0.11962 0.39959 0.0
H1044 H 0.45367 0.33759 0.16029 0.0
H1045 H 0.44714 0.29846 0.24818 0.0
H1046 H 0.46287 0.3533 0.2371 0.0
H1047 H 0.45716 0.31451 0.32539 0.0
H1048 H 0.45331 0.34179 0.46014 0.0
H1049 H 0.44802 0.32639 0.38326 0.0
H1050 H 0.48268 0.36538 0.29987 0.0
H1051 H 0.48752 0.38118 0.37727 0.0
C1052 C 0.45423 0.33232 0.19612 0.0
C1053 C 0.44926 0.31666 0.19853 0.0
C1054 C 0.4598 0.34145 0.24006 0.0
C1055 C 0.4607 0.33519 0.28754 0.0
C1056 C 0.45636 0.31963 0.28953 0.0
C1057 C 0.45067 0.31044 0.24538 0.0
C1058 C 0.45973 0.34721 0.42537 0.0
C1059 C 0.47059 0.36284 0.42445 0.0
C1060 C 0.45688 0.33824 0.3814 0.0
C1061 C 0.46492 0.3446 0.33533 0.0
C1062 C 0.47613 0.36017 0.33465 0.0
C1063 C 0.47895 0.36922 0.37889 0.0
H1064 H 0.69675 0.11084 0.20547 0.0
H1065 H 0.70474 0.15605 0.23603 0.0
H1066 H 0.6778 0.1006 0.2733 0.0
H1067 H 0.68646 0.14602 0.30805 0.0
H1068 H 0.6411 0.12116 0.39421 0.0
H1069 H 0.65956 0.13115 0.32277 0.0
H1070 H 0.67384 0.0986 0.36086 0.0
H1071 H 0.65468 0.08801 0.42796 0.0
C1072 C 0.69461 0.11862 0.22763 0.0
C1073 C 0.70197 0.13414 0.21524 0.0
C1074 C 0.68384 0.11279 0.26703 0.0
C1075 C 0.68042 0.12244 0.296 0.0
C1076 C 0.68855 0.13821 0.28569 0.0
C1077 C 0.69925 0.14403 0.24538 0.0
C1078 C 0.64791 0.11592 0.38584 0.0
C1079 C 0.64672 0.10401 0.41685 0.0
C1080 C 0.65869 0.12182 0.34583 0.0
C1081 C 0.66843 0.1159 0.33661 0.0
C1082 C 0.66657 0.10347 0.3664 0.0
C1083 C 0.65571 0.09749 0.40551 0.0
H1084 H 0.88927 0.55058 0.46263 0.0
H1085 H 0.90425 0.5256 0.367 0.0
H1086 H 0.88256 0.55971 0.38613 0.0
H1087 H 0.89682 0.53429 0.28937 0.0
H1088 H 0.90311 0.5703 0.16956 0.0
H1089 H 0.90667 0.55803 0.24429 0.0
H1090 H 0.86604 0.55393 0.31403 0.0
H1091 H 0.86287 0.567 0.23957 0.0
C1092 C 0.89098 0.54689 0.42506 0.0
C1093 C 0.89761 0.53764 0.42069 0.0
C1094 C 0.88692 0.55199 0.38111 0.0
C1095 C 0.88925 0.54786 0.33153 0.0
C1096 C 0.89514 0.53791 0.3271 0.0
C1097 C 0.89928 0.53282 0.37141 0.0
C1098 C 0.89504 0.56705 0.20104 0.0
C1099 C 0.88286 0.56994 0.19899 0.0
C1100 C 0.89693 0.55969 0.2436 0.0
C1101 C 0.88659 0.55487 0.28505 0.0
C1102 C 0.87432 0.55765 0.28295 0.0
C1103 C 0.8725 0.56516 0.24038 0.0
H1104 H 0.52811 0.63265 0.57511 0.0
H1105 H 0.56261 0.67192 0.49259 0.0
H1106 H 0.53295 0.64842 0.65242 0.0
H1107 H 0.56798 0.68731 0.56963 0.0
H1108 H 0.56988 0.71515 0.70634 0.0
H1109 H 0.55953 0.69944 0.62854 0.0
H1110 H 0.55253 0.65991 0.71523 0.0
H1111 H 0.56197 0.67528 0.79259 0.0
C1112 C 0.53676 0.64459 0.57355 0.0
C1113 C 0.54523 0.65093 0.52817 0.0
C1114 C 0.53957 0.65362 0.61777 0.0
C1115 C 0.55094 0.66913 0.61736 0.0
C1116 C 0.55903 0.67549 0.57134 0.0
C1117 C 0.55613 0.66654 0.52728 0.0
C1118 C 0.56597 0.70308 0.70866 0.0
C1119 C 0.56709 0.69654 0.75521 0.0
C1120 C 0.5601 0.69408 0.66416 0.0
C1121 C 0.55532 0.67841 0.6655 0.0
C1122 C 0.55593 0.67186 0.71272 0.0
C1123 C 0.56164 0.68078 0.75701 0.0
H1124 H 0.30643 0.86146 0.71687 0.0
H1125 H 0.34479 0.89272 0.81054 0.0
H1126 H 0.32267 0.86986 0.63994 0.0
H1127 H 0.36072 0.9016 0.7339 0.0
H1128 H 0.38888 0.90688 0.59022 0.0
H1129 H 0.37323 0.89543 0.66748 0.0
H1130 H 0.33429 0.8922 0.58731 0.0
H1131 H 0.34956 0.90284 0.51031 0.0
C1132 C 0.31829 0.87013 0.72101 0.0
C1133 C 0.32423 0.87665 0.76954 0.0
C1134 C 0.32758 0.87501 0.67698 0.0
C1135 C 0.34297 0.88654 0.68069 0.0
C1136 C 0.34898 0.89264 0.72962 0.0
C1137 C 0.33975 0.88769 0.77352 0.0
C1138 C 0.37698 0.90372 0.58931 0.0
C1139 C 0.37054 0.90599 0.54439 0.0
C1140 C 0.36802 0.89719 0.6335 0.0
C1141 C 0.35248 0.89285 0.63351 0.0
C1142 C 0.34612 0.89514 0.58847 0.0
C1143 C 0.355 0.90154 0.54445 0.0
H1144 H 0.12452 0.45369 0.81119 0.0
H1145 H 0.15788 0.44717 0.72858 0.0
H1146 H 0.11914 0.46341 0.73343 0.0
H1147 H 0.153 0.45776 0.65031 0.0
H1148 H 0.12339 0.45532 0.51113 0.0
H1149 H 0.13299 0.4496 0.58862 0.0
H1150 H 0.12791 0.48366 0.67282 0.0
H1151 H 0.11744 0.48886 0.59505 0.0
C1152 C 0.13076 0.45435 0.77631 0.0
C1153 C 0.14135 0.44926 0.77567 0.0
C1154 C 0.12786 0.46023 0.73181 0.0
C1155 C 0.1356 0.46137 0.6855 0.0
C1156 C 0.14666 0.45682 0.68523 0.0
C1157 C 0.1495 0.4508 0.72998 0.0
C1158 C 0.12416 0.46153 0.54621 0.0
C1159 C 0.11922 0.47224 0.54737 0.0
C1160 C 0.12997 0.45843 0.59053 0.0
C1161 C 0.13117 0.4661 0.6371 0.0
C1162 C 0.12688 0.47735 0.63774 0.0
C1163 C 0.12092 0.48037 0.59325 0.0
H1164 H 0.15464 0.70681 0.72205 0.0
H1165 H 0.10871 0.69581 0.75735 0.0
H1166 H 0.14509 0.68842 0.6504 0.0
H1167 H 0.09904 0.67691 0.68885 0.0
H1168 H 0.08735 0.65342 0.53344 0.0
H1169 H 0.0972 0.673 0.59961 0.0
H1170 H 0.13118 0.66092 0.64035 0.0
H1171 H 0.12178 0.64187 0.57068 0.0
C1172 C 0.14256 0.70068 0.71366 0.0
C1173 C 0.13235 0.70254 0.74518 0.0
C1174 C 0.13705 0.68994 0.67354 0.0
C1175 C 0.12127 0.68095 0.66458 0.0
C1176 C 0.11124 0.6836 0.69443 0.0
C1177 C 0.11675 0.69435 0.73401 0.0
C1178 C 0.09695 0.65499 0.55641 0.0
C1179 C 0.104 0.64639 0.54653 0.0
C1180 C 0.10252 0.66611 0.59479 0.0
C1181 C 0.11514 0.66872 0.62486 0.0
C1182 C 0.12166 0.65945 0.61697 0.0
C1183 C 0.11611 0.64834 0.57799 0.0
H1184 H 0.30213 0.44738 0.72331 0.0
H1185 H 0.34158 0.45296 0.80654 0.0
H1186 H 0.3178 0.45804 0.64559 0.0
H1187 H 0.35689 0.46274 0.72915 0.0
H1188 H 0.38443 0.48859 0.59109 0.0
H1189 H 0.36879 0.48314 0.6691 0.0
H1190 H 0.32944 0.44983 0.58363 0.0
H1191 H 0.34474 0.45581 0.50605 0.0
C1192 C 0.31409 0.45081 0.72496 0.0
C1193 C 0.32052 0.44899 0.77069 0.0
C1194 C 0.32307 0.45687 0.6805 0.0
C1195 C 0.33861 0.46116 0.681 0.0
C1196 C 0.34505 0.45975 0.72735 0.0
C1197 C 0.33615 0.45384 0.77162 0.0
C1198 C 0.37242 0.48022 0.58909 0.0
C1199 C 0.36592 0.47239 0.54277 0.0
C1200 C 0.36346 0.47704 0.63372 0.0
C1201 C 0.34785 0.46595 0.63275 0.0
C1202 C 0.34134 0.45855 0.58583 0.0
C1203 C 0.35022 0.4618 0.54141 0.0
H1204 H 0.56456 0.89367 0.79345 0.0
H1205 H 0.56964 0.85886 0.71475 0.0
H1206 H 0.55445 0.89841 0.71527 0.0
H1207 H 0.55872 0.86314 0.63621 0.0
H1208 H 0.56045 0.89145 0.49347 0.0
H1209 H 0.56667 0.88256 0.57179 0.0
H1210 H 0.53351 0.8889 0.6567 0.0
H1211 H 0.52778 0.89859 0.57802 0.0
C1212 C 0.56351 0.88699 0.75936 0.0
C1213 C 0.56827 0.87614 0.75992 0.0
C1214 C 0.55741 0.88953 0.71466 0.0
C1215 C 0.55575 0.88117 0.66938 0.0
C1216 C 0.56005 0.86993 0.67031 0.0
C1217 C 0.56627 0.86744 0.71522 0.0
C1218 C 0.55452 0.89105 0.52885 0.0
C1219 C 0.54391 0.89612 0.5299 0.0
C1220 C 0.55792 0.88568 0.57368 0.0
C1221 C 0.55068 0.88509 0.62067 0.0
C1222 C 0.5395 0.88947 0.62125 0.0
C1223 C 0.53616 0.89496 0.57624 0.0
H1224 H 0.38196 0.0818 0.14 0.0
H1225 H 0.38499 0.12532 0.16525 0.0
H1226 H 0.3549 0.06892 0.15722 0.0
H1227 H 0.35785 0.11237 0.1859 0.0
H1228 H 0.30583 0.08473 0.16277 0.0
H1229 H 0.33342 0.099 0.15174 0.0
H1230 H 0.33637 0.06146 0.21911 0.0
H1231 H 0.30881 0.04696 0.2265 0.0
C1232 C 0.37687 0.08862 0.15024 0.0
C1233 C 0.38564 0.10459 0.15135 0.0
C1234 C 0.36128 0.0812 0.1606 0.0
C1235 C 0.35403 0.08951 0.1736 0.0
C1236 C 0.3629 0.10553 0.17535 0.0
C1237 C 0.3785 0.11299 0.16385 0.0
C1238 C 0.31246 0.07963 0.17546 0.0
C1239 C 0.30519 0.06469 0.19491 0.0
C1240 C 0.32831 0.08783 0.16943 0.0
C1241 C 0.33727 0.08138 0.1838 0.0
C1242 C 0.32993 0.06669 0.20589 0.0
C1243 C 0.3141 0.05838 0.21065 0.0
H1244 H 0.93211 0.30129 0.16929 0.0
H1245 H 0.89306 0.26095 0.10805 0.0
H1246 H 0.94497 0.28687 0.18391 0.0
H1247 H 0.90616 0.24651 0.12226 0.0
H1248 H 0.93113 0.22384 0.20468 0.0
H1249 H 0.91638 0.23664 0.19098 0.0
H1250 H 0.9563 0.27572 0.12831 0.0
H1251 H 0.97102 0.26317 0.14241 0.0
C1252 C 0.92621 0.28932 0.15903 0.0
C1253 C 0.91156 0.28234 0.13704 0.0
C1254 C 0.93365 0.28107 0.16716 0.0
C1255 C 0.92668 0.2656 0.15352 0.0
C1256 C 0.91182 0.25841 0.13326 0.0
C1257 C 0.90434 0.2667 0.12501 0.0
C1258 C 0.93673 0.23513 0.18765 0.0
C1259 C 0.95232 0.24251 0.17511 0.0
C1260 C 0.92825 0.24243 0.17969 0.0
C1261 C 0.93522 0.25728 0.15923 0.0
C1262 C 0.95066 0.26442 0.14521 0.0
C1263 C 0.95909 0.25716 0.15304 0.0
H1264 H 0.74994 0.62441 0.15811 0.0
H1265 H 0.70784 0.62489 0.1415 0.0
H1266 H 0.76326 0.65156 0.17839 0.0
H1267 H 0.72116 0.65206 0.15853 0.0
H1268 H 0.74426 0.6973 0.23681 0.0
H1269 H 0.73212 0.67002 0.22288 0.0
H1270 H 0.77285 0.67623 0.14676 0.0
H1271 H 0.78528 0.70355 0.16393 0.0
C1272 C 0.74357 0.63037 0.15825 0.0
C1273 C 0.72782 0.62249 0.14858 0.0
C1274 C 0.75122 0.64598 0.16958 0.0
C1275 C 0.74334 0.65413 0.17058 0.0
C1276 C 0.72762 0.64621 0.15973 0.0
C1277 C 0.71995 0.63059 0.14948 0.0
C1278 C 0.75065 0.69281 0.21741 0.0
C1279 C 0.76569 0.70256 0.2012 0.0
C1280 C 0.74364 0.67713 0.20892 0.0
C1281 C 0.75134 0.67079 0.18277 0.0
C1282 C 0.76655 0.68058 0.16749 0.0
C1283 C 0.77369 0.69628 0.17708 0.0
H1284 H 0.04738 0.30402 0.84099 0.0
H1285 H 0.08729 0.30404 0.78211 0.0
H1286 H 0.06235 0.33132 0.85497 0.0
H1287 H 0.10228 0.33159 0.79562 0.0
H1288 H 0.12586 0.37948 0.87663 0.0
H1289 H 0.11246 0.35185 0.86371 0.0
H1290 H 0.07416 0.35372 0.79902 0.0
H1291 H 0.0873 0.38106 0.81236 0.0
C1292 C 0.05936 0.30982 0.8311 0.0
C1293 C 0.06607 0.30178 0.80999 0.0
C1294 C 0.06794 0.32553 0.83886 0.0
C1295 C 0.08346 0.33368 0.82572 0.0
C1296 C 0.09035 0.32563 0.80626 0.0
C1297 C 0.08173 0.30984 0.79838 0.0
C1298 C 0.11462 0.374 0.85933 0.0
C1299 C 0.10762 0.38252 0.84602 0.0
C1300 C 0.10697 0.35817 0.85182 0.0
C1301 C 0.09215 0.35056 0.83104 0.0
C1302 C 0.08542 0.35917 0.81622 0.0
C1303 C 0.09302 0.37491 0.82361 0.0
H1304 H 0.71326 0.7893 0.80657 0.0
H1305 H 0.71089 0.74834 0.74785 0.0
H1306 H 0.68571 0.77564 0.81841 0.0
H1307 H 0.68333 0.73489 0.75594 0.0
H1308 H 0.63766 0.70961 0.83441 0.0
H1309 H 0.66475 0.72401 0.81759 0.0
H1310 H 0.66129 0.76402 0.78454 0.0
H1311 H 0.63416 0.74965 0.80491 0.0
C1312 C 0.70677 0.77744 0.79517 0.0
C1313 C 0.7142 0.76983 0.77683 0.0
C1314 C 0.69094 0.76959 0.80166 0.0
C1315 C 0.68214 0.75402 0.78883 0.0
C1316 C 0.68964 0.7467 0.76798 0.0
C1317 C 0.70546 0.75443 0.7628 0.0
C1318 C 0.64267 0.72147 0.82333 0.0
C1319 C 0.63375 0.72848 0.82089 0.0
C1320 C 0.65826 0.72976 0.81321 0.0
C1321 C 0.66538 0.74525 0.79907 0.0
C1322 C 0.65637 0.75221 0.79603 0.0
C1323 C 0.64076 0.74396 0.80735 0.0
H1324 H 0.22916 0.92571 0.80366 0.0
H1325 H 0.27031 0.96147 0.73424 0.0
H1326 H 0.24223 0.91157 0.82375 0.0
H1327 H 0.28312 0.94712 0.75142 0.0
H1328 H 0.30786 0.92937 0.84658 0.0
H1329 H 0.29343 0.94154 0.82269 0.0
H1330 H 0.25373 0.89742 0.7951 0.0
H1331 H 0.26816 0.88514 0.82171 0.0
C1332 C 0.24091 0.93038 0.79179 0.0
C1333 C 0.24879 0.94478 0.76808 0.0
C1334 C 0.2484 0.92227 0.8031 0.0
C1335 C 0.26386 0.9283 0.79012 0.0
C1336 C 0.27139 0.94232 0.76367 0.0
C1337 C 0.26402 0.95052 0.75338 0.0
C1338 C 0.29606 0.92222 0.8353 0.0
C1339 C 0.2892 0.90627 0.83576 0.0
C1340 C 0.28777 0.92923 0.82114 0.0
C1341 C 0.27242 0.92052 0.80604 0.0
C1342 C 0.26548 0.90452 0.80682 0.0
C1343 C 0.27377 0.89747 0.82184 0.0
H1344 H 0.71341 0.96866 0.8142 0.0
H1345 H 0.71333 0.92778 0.76591 0.0
H1346 H 0.68602 0.95423 0.82459 0.0
H1347 H 0.68559 0.91329 0.7757 0.0
H1348 H 0.63806 0.8915 0.85996 0.0
H1349 H 0.6655 0.90431 0.84374 0.0
H1350 H 0.66346 0.94159 0.77077 0.0
H1351 H 0.6363 0.92906 0.7876 0.0
C1352 C 0.70757 0.95659 0.80549 0.0
C1353 C 0.71565 0.94943 0.78901 0.0
C1354 C 0.69178 0.94832 0.81117 0.0
C1355 C 0.68357 0.93262 0.80053 0.0
C1356 C 0.6916 0.92536 0.78445 0.0
C1357 C 0.70748 0.93368 0.77858 0.0
C1358 C 0.64346 0.90238 0.84011 0.0
C1359 C 0.63497 0.90932 0.82572 0.0
C1360 C 0.65917 0.90968 0.83061 0.0
C1361 C 0.66671 0.92407 0.80657 0.0
C1362 C 0.65808 0.93068 0.79039 0.0
C1363 C 0.64246 0.92343 0.79989 0.0
H1364 H 0.08426 0.79288 0.8181 0.0
H1365 H 0.04425 0.74889 0.79371 0.0
H1366 H 0.09875 0.7804 0.84124 0.0
H1367 H 0.05873 0.73649 0.81359 0.0
H1368 H 0.08256 0.71559 0.8917 0.0
H1369 H 0.06951 0.72994 0.87966 0.0
H1370 H 0.11021 0.7668 0.81067 0.0
H1371 H 0.12352 0.75266 0.82621 0.0
C1372 C 0.0786 0.78055 0.81733 0.0
C1373 C 0.06308 0.77187 0.80456 0.0
C1374 C 0.08692 0.77337 0.83032 0.0
C1375 C 0.07995 0.75736 0.82993 0.0
C1376 C 0.06447 0.74879 0.81609 0.0
C1377 C 0.05613 0.75592 0.80419 0.0
C1378 C 0.08875 0.72684 0.87449 0.0
C1379 C 0.104 0.73297 0.85953 0.0
C1380 C 0.08124 0.73505 0.86705 0.0
C1381 C 0.08863 0.74946 0.84299 0.0
C1382 C 0.10411 0.75581 0.82962 0.0
C1383 C 0.11176 0.7477 0.8383 0.0
H1384 H 0.26535 0.30294 0.82603 0.0
H1385 H 0.22605 0.30458 0.76968 0.0
H1386 H 0.27867 0.33025 0.83967 0.0
H1387 H 0.23964 0.33221 0.78279 0.0
H1388 H 0.26534 0.37957 0.86652 0.0
H1389 H 0.25035 0.35213 0.85107 0.0
H1390 H 0.28997 0.35295 0.78606 0.0
H1391 H 0.30498 0.38016 0.80217 0.0
C1392 C 0.25951 0.30911 0.81645 0.0
C1393 C 0.24462 0.30151 0.79637 0.0
C1394 C 0.26723 0.32483 0.824 0.0
C1395 C 0.26032 0.33346 0.81163 0.0
C1396 C 0.24527 0.32588 0.79282 0.0
C1397 C 0.2375 0.31005 0.7852 0.0
C1398 C 0.27083 0.37391 0.84861 0.0
C1399 C 0.28643 0.38209 0.83609 0.0
C1400 C 0.26221 0.35819 0.83958 0.0
C1401 C 0.26901 0.35032 0.81793 0.0
C1402 C 0.28446 0.3586 0.80384 0.0
C1403 C 0.29305 0.37426 0.81284 0.0
H1404 H 0.97182 0.71306 0.17861 0.0
H1405 H 0.93121 0.7156 0.15031 0.0
H1406 H 0.95805 0.68608 0.15977 0.0
H1407 H 0.91742 0.68848 0.12815 0.0
H1408 H 0.89392 0.63589 0.14028 0.0
H1409 H 0.90641 0.66325 0.15819 0.0
H1410 H 0.94823 0.66895 0.09291 0.0
H1411 H 0.93602 0.64171 0.07855 0.0
C1412 C 0.95995 0.70787 0.16752 0.0
C1413 C 0.95265 0.71651 0.16557 0.0
C1414 C 0.95203 0.69234 0.15624 0.0
C1415 C 0.9366 0.68499 0.14141 0.0
C1416 C 0.92923 0.69364 0.13979 0.0
C1417 C 0.93714 0.70922 0.15219 0.0
C1418 C 0.90578 0.64308 0.1298 0.0
C1419 C 0.91407 0.63667 0.10881 0.0
C1420 C 0.91294 0.65878 0.13976 0.0
C1421 C 0.92847 0.66841 0.12792 0.0
C1422 C 0.93645 0.66195 0.10443 0.0
C1423 C 0.92941 0.6463 0.09572 0.0
H1424 H 0.37851 0.30125 0.11402 0.0
H1425 H 0.38231 0.26142 0.14481 0.0
H1426 H 0.35155 0.28691 0.13273 0.0
H1427 H 0.35518 0.24706 0.16665 0.0
H1428 H 0.3078 0.26454 0.21751 0.0
H1429 H 0.33496 0.2771 0.20167 0.0
H1430 H 0.32972 0.23547 0.13617 0.0
H1431 H 0.30239 0.22261 0.15527 0.0
C1432 C 0.37359 0.28943 0.12559 0.0
C1433 C 0.38259 0.28252 0.12846 0.0
C1434 C 0.35808 0.28119 0.13673 0.0
C1435 C 0.35111 0.26584 0.15231 0.0
C1436 C 0.36008 0.25882 0.15453 0.0
C1437 C 0.37565 0.26706 0.14232 0.0
C1438 C 0.31245 0.25804 0.19989 0.0
C1439 C 0.30296 0.24265 0.18704 0.0
C1440 C 0.32805 0.26528 0.19038 0.0
C1441 C 0.3346 0.25746 0.16641 0.0
C1442 C 0.32514 0.24188 0.15486 0.0
C1443 C 0.30947 0.2345 0.16553 0.0
H1444 H 0.7533 0.12258 0.09646 0.0
H1445 H 0.71265 0.0833 0.15495 0.0
H1446 H 0.76774 0.10958 0.1129 0.0
H1447 H 0.72704 0.07062 0.17221 0.0
H1448 H 0.75144 0.04481 0.14478 0.0
H1449 H 0.73884 0.05909 0.12392 0.0
H1450 H 0.77738 0.10013 0.18332 0.0
H1451 H 0.79029 0.0858 0.20331 0.0
C1452 C 0.74745 0.11123 0.11293 0.0
C1453 C 0.73177 0.10396 0.12393 0.0
C1454 C 0.75575 0.10382 0.1226 0.0
C1455 C 0.74852 0.08899 0.1434 0.0
C1456 C 0.73292 0.08189 0.15509 0.0
C1457 C 0.72466 0.08923 0.14539 0.0
C1458 C 0.75731 0.05689 0.1534 0.0
C1459 C 0.77184 0.06411 0.17631 0.0
C1460 C 0.75002 0.06508 0.14158 0.0
C1461 C 0.75699 0.08072 0.15264 0.0
C1462 C 0.77172 0.0881 0.17411 0.0
C1463 C 0.77909 0.07988 0.18578 0.0
H1464 H 0.05068 0.41816 0.51331 0.0
H1465 H 0.04928 0.45694 0.44998 0.0
H1466 H 0.02326 0.40491 0.52517 0.0
H1467 H 0.02164 0.44346 0.46136 0.0
H1468 H 0.97311 0.41767 0.53646 0.0
H1469 H 1.00081 0.43279 0.52721 0.0
H1470 H 1.00139 0.39337 0.46682 0.0
H1471 H 0.97396 0.37828 0.47651 0.0
C1472 C 0.04456 0.42392 0.50208 0.0
C1473 C 0.05223 0.4386 0.48023 0.0
C1474 C 0.02879 0.41626 0.50861 0.0
C1475 C 0.02023 0.42303 0.49347 0.0
C1476 C 0.02792 0.43794 0.47351 0.0
C1477 C 0.04376 0.44564 0.46689 0.0
C1478 C 0.97915 0.41226 0.5209 0.0
C1479 C 0.97127 0.3967 0.50763 0.0
C1480 C 0.99501 0.42094 0.5155 0.0
C1481 C 1.00332 0.41423 0.49695 0.0
C1482 C 0.99538 0.39881 0.48232 0.0
C1483 C 0.9796 0.39018 0.48758 0.0
H1484 H 0.59785 0.55733 0.49756 0.0
H1485 H 0.63564 0.5998 0.55118 0.0
H1486 H 0.58395 0.57044 0.47488 0.0
H1487 H 0.62157 0.61273 0.53181 0.0
H1488 H 0.60151 0.63608 0.4421 0.0
H1489 H 0.61415 0.62187 0.46303 0.0
H1490 H 0.57072 0.58263 0.50235 0.0
H1491 H 0.55796 0.59678 0.47808 0.0
C1492 C 0.60309 0.56943 0.50514 0.0
C1493 C 0.6179 0.57757 0.52554 0.0
C1494 C 0.59509 0.57696 0.49243 0.0
C1495 C 0.60164 0.59276 0.50077 0.0
C1496 C 0.61627 0.60069 0.52309 0.0
C1497 C 0.62434 0.59325 0.53467 0.0
C1498 C 0.59464 0.62441 0.4552 0.0
C1499 C 0.57874 0.61759 0.45881 0.0
C1500 C 0.60191 0.61625 0.46769 0.0
C1501 C 0.59356 0.6011 0.48541 0.0
C1502 C 0.57758 0.5942 0.48845 0.0
C1503 C 0.57024 0.60232 0.47483 0.0
H1504 H 0.4231 0.05035 0.46851 0.0
H1505 H 0.46055 0.04838 0.54068 0.0
H1506 H 0.41078 0.0233 0.44972 0.0
H1507 H 0.44796 0.02105 0.52242 0.0
H1508 H 0.42494 0.97391 0.43772 0.0
H1509 H 0.43934 1.0015 0.45216 0.0
H1510 H 0.39815 1.00033 0.50203 0.0
H1511 H 0.38382 0.97311 0.48713 0.0
C1512 C 0.42875 0.04417 0.48034 0.0
C1513 C 0.44277 0.05157 0.50665 0.0
C1514 C 0.42162 0.02861 0.46973 0.0
C1515 C 0.42827 0.01996 0.48523 0.0
C1516 C 0.44256 0.0274 0.50982 0.0
C1517 C 0.44974 0.04305 0.52045 0.0
C1518 C 0.41898 0.97956 0.45184 0.0
C1519 C 0.40318 0.97126 0.46086 0.0
C1520 C 0.42725 0.99535 0.46028 0.0
C1521 C 0.41986 1.00314 0.47766 0.0
C1522 C 0.40414 0.99476 0.48756 0.0
C1523 C 0.39593 0.97908 0.47927 0.0
H1524 H 0.5948 0.04056 0.53629 0.0
H1525 H 0.63616 0.04102 0.49249 0.0
H1526 H 0.58048 0.01289 0.52469 0.0
H1527 H 0.6219 0.01367 0.48012 0.0
H1528 H 0.59629 0.96354 0.51112 0.0
H1529 H 0.6088 0.9906 0.53049 0.0
H1530 H 0.57207 0.99337 0.45642 0.0
H1531 H 0.5593 0.9661 0.43788 0.0
C1532 C 0.60084 0.03481 0.52412 0.0
C1533 C 0.61666 0.04306 0.51555 0.0
C1534 C 0.59262 0.01896 0.51727 0.0
C1535 C 0.60006 0.01104 0.50188 0.0
C1536 C 0.61584 0.01933 0.49302 0.0
C1537 C 0.62401 0.03509 0.49981 0.0
C1538 C 0.59079 0.96985 0.49921 0.0
C1539 C 0.57684 0.96263 0.47244 0.0
C1540 C 0.59802 0.98541 0.51012 0.0
C1541 C 0.59155 0.99422 0.49438 0.0
C1542 C 0.57733 0.98691 0.46934 0.0
C1543 C 0.57004 0.97128 0.45851 0.0
H1544 H 0.9631 0.58943 0.44609 0.0
H1545 H 0.96682 0.55328 0.52104 0.0
H1546 H 0.99027 0.60285 0.42876 0.0
H1547 H 0.99423 0.56698 0.50451 0.0
H1548 H 0.04185 0.59148 0.42628 0.0
H1549 H 0.01422 0.57616 0.43729 0.0
H1550 H 0.01289 0.61662 0.48069 0.0
H1551 H 0.04018 0.63185 0.46888 0.0
C1552 C 0.9697 0.58431 0.45886 0.0
C1553 C 0.96275 0.57032 0.48546 0.0
C1554 C 0.98532 0.59207 0.44911 0.0
C1555 C 0.99448 0.58611 0.4659 0.0
C1556 C 0.9875 0.57186 0.49084 0.0
C1557 C 0.97179 0.56403 0.5005 0.0
C1558 C 0.03564 0.59709 0.43809 0.0
C1559 C 0.04328 0.61294 0.44635 0.0
C1560 C 0.01982 0.5883 0.44461 0.0
C1561 C 0.01131 0.59518 0.45939 0.0
C1562 C 0.01901 0.61098 0.46819 0.0
C1563 C 0.03474 0.61972 0.4617 0.0
H1564 H 0.42041 0.45739 0.44261 0.0
H1565 H 0.38028 0.41861 0.50622 0.0
H1566 H 0.43461 0.44395 0.45418 0.0
H1567 H 0.39448 0.40541 0.51826 0.0
H1568 H 0.41723 0.37881 0.47079 0.0
H1569 H 0.40485 0.39383 0.46045 0.0
H1570 H 0.44482 0.43342 0.52037 0.0
H1571 H 0.45745 0.41836 0.53027 0.0
C1572 C 0.41466 0.4461 0.45958 0.0
C1573 C 0.39914 0.43904 0.47299 0.0
C1574 C 0.42282 0.43842 0.46632 0.0
C1575 C 0.41562 0.42353 0.48645 0.0
C1576 C 0.40028 0.41674 0.50157 0.0
C1577 C 0.39215 0.42437 0.49492 0.0
C1578 C 0.42348 0.39073 0.48163 0.0
C1579 C 0.43834 0.39732 0.50174 0.0
C1580 C 0.41631 0.39933 0.47599 0.0
C1581 C 0.42376 0.41477 0.49027 0.0
C1582 C 0.43879 0.42155 0.50891 0.0
C1583 C 0.446 0.4129 0.51469 0.0
H1584 H 0.2346 0.08473 0.34481 0.0
H1585 H 0.27196 0.10517 0.23606 0.0
H1586 H 0.23518 0.10896 0.35286 0.0
H1587 H 0.27221 0.12922 0.2427 0.0
H1588 H 0.27414 0.17359 0.28033 0.0
H1589 H 0.27664 0.15102 0.29243 0.0
H1590 H 0.22763 0.12293 0.29847 0.0
H1591 H 0.22519 0.14537 0.28803 0.0
C1592 C 0.24304 0.09442 0.32299 0.0
C1593 C 0.25311 0.09294 0.28935 0.0
C1594 C 0.24331 0.10831 0.32733 0.0
C1595 C 0.25358 0.12103 0.29782 0.0
C1596 C 0.26421 0.11975 0.26636 0.0
C1597 C 0.26401 0.10589 0.26232 0.0
C1598 C 0.26393 0.16261 0.28498 0.0
C1599 C 0.24947 0.1613 0.2829 0.0
C1600 C 0.26535 0.14965 0.29162 0.0
C1601 C 0.25234 0.13509 0.29626 0.0
C1602 C 0.23793 0.13392 0.29587 0.0
C1603 C 0.23652 0.14683 0.28942 0.0
H1604 H 0.84569 0.10644 0.23258 0.0
H1605 H 0.85768 0.09054 0.37048 0.0
H1606 H 0.86948 0.13062 0.23867 0.0
H1607 H 0.8813 0.11487 0.37732 0.0
H1608 H 0.93008 0.14881 0.32169 0.0
H1609 H 0.90477 0.12675 0.32981 0.0
H1610 H 0.88501 0.15421 0.2853 0.0
H1611 H 0.91053 0.17636 0.27603 0.0
C1612 C 0.85326 0.1082 0.26479 0.0
C1613 C 0.84985 0.09645 0.30066 0.0
C1614 C 0.86689 0.12213 0.26846 0.0
C1615 C 0.87742 0.12467 0.3082 0.0
C1616 C 0.8736 0.11321 0.34563 0.0
C1617 C 0.86001 0.09927 0.34186 0.0
C1618 C 0.92036 0.15023 0.31422 0.0
C1619 C 0.92237 0.16435 0.29782 0.0
C1620 C 0.90579 0.13757 0.31924 0.0
C1621 C 0.89279 0.13864 0.30805 0.0
C1622 C 0.89477 0.15292 0.29357 0.0
C1623 C 0.9094 0.16564 0.28862 0.0
H1624 H 0.90861 0.73853 0.27028 0.0
H1625 H 0.9269 0.78622 0.3054 0.0
H1626 H 0.8828 0.73417 0.28187 0.0
H1627 H 0.9013 0.78198 0.31565 0.0
H1628 H 0.85434 0.77002 0.36187 0.0
H1629 H 0.87864 0.77066 0.36684 0.0
H1630 H 0.8657 0.74013 0.23573 0.0
H1631 H 0.84125 0.73915 0.23171 0.0
C1632 C 0.90714 0.74805 0.28096 0.0
C1633 C 0.91984 0.76274 0.28664 0.0
C1634 C 0.89234 0.74557 0.28726 0.0
C1635 C 0.88991 0.75773 0.29951 0.0
C1636 C 0.90267 0.77229 0.30696 0.0
C1637 C 0.91741 0.77475 0.30068 0.0
C1638 C 0.85658 0.76326 0.33457 0.0
C1639 C 0.84588 0.75466 0.29606 0.0
C1640 C 0.87057 0.7637 0.33722 0.0
C1641 C 0.87426 0.75561 0.30126 0.0
C1642 C 0.86324 0.74641 0.26436 0.0
C1643 C 0.84922 0.74592 0.26186 0.0
H1644 H 0.08994 0.24132 0.60744 0.0
H1645 H 0.10673 0.27268 0.73645 0.0
H1646 H 0.11434 0.24219 0.60191 0.0
H1647 H 0.13092 0.27316 0.73213 0.0
H1648 H 0.17619 0.27644 0.70114 0.0
H1649 H 0.15418 0.2798 0.68787 0.0
H1650 H 0.12649 0.23184 0.65281 0.0
H1651 H 0.14843 0.22863 0.66446 0.0
C1652 C 0.09889 0.24853 0.63428 0.0
C1653 C 0.0963 0.25678 0.67277 0.0
C1654 C 0.11287 0.24895 0.63136 0.0
C1655 C 0.12457 0.25754 0.66713 0.0
C1656 C 0.12226 0.26649 0.70367 0.0
C1657 C 0.10832 0.26616 0.70633 0.0
C1658 C 0.16544 0.26668 0.68985 0.0
C1659 C 0.16407 0.25225 0.68419 0.0
C1660 C 0.15279 0.26858 0.68254 0.0
C1661 C 0.13849 0.25609 0.66945 0.0
C1662 C 0.13732 0.24179 0.66206 0.0
C1663 C 0.14993 0.23991 0.6692 0.0
H1664 H 0.78227 0.85937 0.61474 0.0
H1665 H 0.74612 0.8432 0.72812 0.0
H1666 H 0.78142 0.88286 0.60533 0.0
H1667 H 0.74563 0.86684 0.72012 0.0
H1668 H 0.74349 0.90903 0.68539 0.0
H1669 H 0.74071 0.88393 0.67104 0.0
H1670 H 0.78959 0.90476 0.65804 0.0
H1671 H 0.79228 0.92967 0.67066 0.0
C1672 C 0.77402 0.86075 0.63725 0.0
C1673 C 0.7644 0.84947 0.67266 0.0
C1674 C 0.7736 0.87427 0.63211 0.0
C1675 C 0.76363 0.87691 0.66256 0.0
C1676 C 0.75338 0.86522 0.69568 0.0
C1677 C 0.75373 0.85165 0.70052 0.0
C1678 C 0.7536 0.90825 0.67848 0.0
C1679 C 0.76812 0.92136 0.67965 0.0
C1680 C 0.75203 0.89384 0.67062 0.0
C1681 C 0.76493 0.89224 0.66378 0.0
C1682 C 0.77936 0.90548 0.66247 0.0
C1683 C 0.78092 0.91983 0.67016 0.0
H1684 H 0.16053 0.92266 0.60286 0.0
H1685 H 0.17325 0.90506 0.73452 0.0
H1686 H 0.13628 0.89891 0.59742 0.0
H1687 H 0.14885 0.88151 0.73006 0.0
H1688 H 0.10604 0.83698 0.69645 0.0
H1689 H 0.13187 0.85839 0.68444 0.0
H1690 H 0.11348 0.8876 0.64775 0.0
H1691 H 0.08786 0.86626 0.65837 0.0
C1692 C 0.15822 0.91368 0.63037 0.0
C1693 C 0.16878 0.91585 0.66947 0.0
C1694 C 0.14426 0.90008 0.62746 0.0
C1695 C 0.14047 0.88833 0.66373 0.0
C1696 C 0.15138 0.89022 0.70118 0.0
C1697 C 0.16538 0.9038 0.70392 0.0
C1698 C 0.10753 0.84792 0.68503 0.0
C1699 C 0.09486 0.84991 0.67869 0.0
C1700 C 0.12235 0.86023 0.67848 0.0
C1701 C 0.12481 0.87478 0.66536 0.0
C1702 C 0.11208 0.87656 0.65714 0.0
C1703 C 0.09733 0.8643 0.66364 0.0
H1704 H 0.9442 0.43703 0.60615 0.0
H1705 H 0.89647 0.41554 0.64541 0.0
H1706 H 0.94648 0.46208 0.61639 0.0
H1707 H 0.89863 0.44035 0.65432 0.0
H1708 H 0.90657 0.48627 0.69462 0.0
H1709 H 0.90863 0.46343 0.70279 0.0
H1710 H 0.93832 0.47732 0.56922 0.0
H1711 H 0.93661 0.50036 0.56201 0.0
C1712 C 0.93425 0.43764 0.61755 0.0
C1713 C 0.92013 0.42426 0.62463 0.0
C1714 C 0.93552 0.45199 0.62307 0.0
C1715 C 0.92273 0.45329 0.63594 0.0
C1716 C 0.90879 0.43988 0.64508 0.0
C1717 C 0.90752 0.42558 0.63957 0.0
C1718 C 0.91375 0.48459 0.66751 0.0
C1719 C 0.92127 0.49508 0.62729 0.0
C1720 C 0.91486 0.47143 0.672 0.0
C1721 C 0.92346 0.46837 0.63619 0.0
C1722 C 0.93168 0.47931 0.59775 0.0
C1723 C 0.93063 0.49252 0.59344 0.0
H1724 H 0.53258 0.41761 0.63732 0.0
H1725 H 0.50471 0.43784 0.60576 0.0
H1726 H 0.5545 0.44272 0.65087 0.0
H1727 H 0.52674 0.46315 0.62065 0.0
H1728 H 0.57448 0.50413 0.57511 0.0
H1729 H 0.55029 0.48025 0.57661 0.0
H1730 H 0.56625 0.4647 0.70539 0.0
H1731 H 0.59058 0.48841 0.70292 0.0
C1732 C 0.53106 0.42741 0.63408 0.0
C1733 C 0.51688 0.42568 0.62009 0.0
C1734 C 0.54365 0.44187 0.64227 0.0
C1735 C 0.54245 0.45503 0.63684 0.0
C1736 C 0.52813 0.45329 0.62456 0.0
C1737 C 0.51548 0.43876 0.61637 0.0
C1738 C 0.57275 0.49572 0.6043 0.0
C1739 C 0.58457 0.49812 0.63844 0.0
C1740 C 0.55882 0.48202 0.60532 0.0
C1741 C 0.55635 0.47042 0.64067 0.0
C1742 C 0.56786 0.47323 0.67686 0.0
C1743 C 0.5818 0.48688 0.67567 0.0
H1744 H 0.59373 0.10673 0.70076 0.0
H1745 H 0.57447 0.07527 0.57267 0.0
H1746 H 0.56985 0.10674 0.7108 0.0
H1747 H 0.55078 0.07564 0.58162 0.0
H1748 H 0.50671 0.07393 0.62077 0.0
H1749 H 0.5283 0.06972 0.63055 0.0
H1750 H 0.55769 0.11766 0.66231 0.0
H1751 H 0.53619 0.12174 0.65397 0.0
C1752 C 0.58435 0.09968 0.67508 0.0
C1753 C 0.5861 0.09114 0.63551 0.0
C1754 C 0.57067 0.09976 0.68062 0.0
C1755 C 0.55843 0.09138 0.64652 0.0
C1756 C 0.55989 0.08215 0.60887 0.0
C1757 C 0.57355 0.082 0.60354 0.0
C1758 C 0.51774 0.0835 0.63071 0.0
C1759 C 0.51973 0.09819 0.63621 0.0
C1760 C 0.53015 0.08112 0.63598 0.0
C1761 C 0.5448 0.09336 0.64694 0.0
C1762 C 0.54659 0.1079 0.65457 0.0
C1763 C 0.53422 0.11027 0.64937 0.0
H1764 H 0.75606 0.56449 0.94917 0.0
H1765 H 0.77367 0.59859 0.06993 0.0
H1766 H 0.78113 0.5671 0.93896 0.0
H1767 H 0.79864 0.60087 0.06083 0.0
H1768 H 0.8446 0.60655 0.01995 0.0
H1769 H 0.82132 0.60795 0.01042 0.0
H1770 H 0.7954 0.55911 -0.00971 0.0
H1771 H 0.81851 0.55778 -0.00154 0.0
C1772 C 0.76532 0.57268 0.97315 0.0
C1773 C 0.76279 0.58119 0.0108 0.0
C1774 C 0.7797 0.57411 0.96753 0.0
C1775 C 0.79189 0.584 -0.00031 0.0
C1776 C 0.78958 0.5932 0.03515 0.0
C1777 C 0.77521 0.59184 0.04054 0.0
C1778 C 0.83395 0.59616 0.01261 0.0
C1779 C 0.83343 0.58205 0.01023 0.0
C1780 C 0.82059 0.59695 0.0075 0.0
C1781 C 0.80643 0.58364 -0.00028 0.0
C1782 C 0.80607 0.56964 -0.00456 0.0
C1783 C 0.81937 0.56886 0.00055 0.0
H1784 H 0.4411 0.18764 0.93875 0.0
H1785 H 0.41255 0.17522 0.07497 0.0
H1786 H 0.43972 0.21086 0.93025 0.0
H1787 H 0.41155 0.19864 0.06745 0.0
H1788 H 0.40687 0.23962 0.03098 0.0
H1789 H 0.40362 0.21416 0.02143 0.0
H1790 H 0.45087 0.23428 0.97682 0.0
H1791 H 0.45396 0.2595 0.98499 0.0
C1792 C 0.43439 0.18977 0.96658 0.0
C1793 C 0.42709 0.17964 0.0079 0.0
C1794 C 0.43367 0.20315 0.96191 0.0
C1795 C 0.42573 0.20679 -0.00137 0.0
C1796 C 0.41769 0.1962 0.0382 0.0
C1797 C 0.41833 0.18277 0.04268 0.0
C1798 C 0.41648 0.23857 0.01831 0.0
C1799 C 0.4307 0.25162 0.00908 0.0
C1800 C 0.41465 0.22398 0.01316 0.0
C1801 C 0.42699 0.22211 -0.00142 0.0
C1802 C 0.44103 0.23519 -0.0126 0.0
C1803 C 0.44284 0.24972 -0.0075 0.0
H1804 H 0.75497 0.20051 -0.00472 0.0
H1805 H 0.77423 0.1718 0.02718 0.0
H1806 H 0.78031 0.22214 0.98257 0.0
H1807 H 0.79977 0.19351 0.01304 0.0
H1808 H 0.84095 0.2406 0.06225 0.0
H1809 H 0.81692 0.21663 0.05822 0.0
H1810 H 0.8026 0.23391 0.92984 0.0
H1811 H 0.82645 0.25806 0.93494 0.0
C1812 C 0.76461 0.19874 -0.00128 0.0
C1813 C 0.76254 0.18442 0.01269 0.0
C1814 C 0.7792 0.21117 -0.009 0.0
C1815 C 0.79216 0.20964 -0.00314 0.0
C1816 C 0.79007 0.19516 0.00887 0.0
C1817 C 0.77542 0.18269 0.01666 0.0
C1818 C 0.83279 0.2392 0.03256 0.0
C1819 C 0.83555 0.25135 -0.0006 0.0
C1820 C 0.819 0.22539 0.03008 0.0
C1821 C 0.80768 0.22337 -0.00583 0.0
C1822 C 0.8109 0.23518 0.95878 0.0
C1823 C 0.82463 0.24901 0.96147 0.0
H1824 H 0.61444 0.77301 0.91337 0.0
H1825 H 0.56897 0.7588 0.96765 0.0
H1826 H 0.62042 0.79953 0.91445 0.0
H1827 H 0.57484 0.78517 0.96784 0.0
H1828 H 0.5906 0.83476 -0.01366 0.0
H1829 H 0.58943 0.81055 0.00478 0.0
H1830 H 0.61267 0.81413 0.86058 0.0
H1831 H 0.61408 0.83834 0.84267 0.0
C1832 C 0.60579 0.77554 0.92626 0.0
C1833 C 0.59117 0.76374 0.93992 0.0
C1834 C 0.60919 0.79075 0.92658 0.0
C1835 C 0.59807 0.7945 0.94077 0.0
C1836 C 0.58374 0.78276 0.95715 0.0
C1837 C 0.58033 0.76758 0.9567 0.0
C1838 C 0.59572 0.83052 0.95909 0.0
C1839 C 0.6023 0.83843 0.91275 0.0
C1840 C 0.59496 0.81659 0.96949 0.0
C1841 C 0.60082 0.81029 0.93394 0.0
C1842 C 0.60816 0.81866 0.8891 0.0
C1843 C 0.60888 0.83254 0.87863 0.0
H1844 H 0.19996 0.74996 0.97237 0.0
H1845 H 0.1747 0.77276 0.93719 0.0
H1846 H 0.2229 0.77444 0.9847 0.0
H1847 H 0.19769 0.7974 0.95084 0.0
H1848 H 0.24612 0.83567 0.90084 0.0
H1849 H 0.22127 0.81266 0.90478 0.0
H1850 H 0.2361 0.79702 0.0364 0.0
H1851 H 0.26113 0.81988 0.03157 0.0
C1852 C 0.19923 0.7602 0.96815 0.0
C1853 C 0.1855 0.75938 0.95329 0.0
C1854 C 0.2124 0.77429 0.97561 0.0
C1855 C 0.21221 0.78795 0.96853 0.0
C1856 C 0.19831 0.78711 0.95587 0.0
C1857 C 0.1851 0.77298 0.94838 0.0
C1858 C 0.24403 0.82744 0.93111 0.0
C1859 C 0.2557 0.82955 0.96546 0.0
C1860 C 0.22971 0.81425 0.93358 0.0
C1861 C 0.22669 0.80287 0.97059 0.0
C1862 C 0.23812 0.80539 0.00675 0.0
C1863 C 0.25245 0.81856 0.00416 0.0
H1864 H 0.18306 0.42731 0.00193 0.0
H1865 H 0.17917 0.40301 0.8599 0.0
H1866 H 0.20726 0.42853 0.02061 0.0
H1867 H 0.20337 0.40446 0.87809 0.0
H1868 H 0.25891 0.44874 0.98217 0.0
H1869 H 0.23257 0.44293 0.9825 0.0
H1870 H 0.21797 0.39692 0.93321 0.0
H1871 H 0.24445 0.40282 0.93205 0.0
C1872 C 0.18723 0.42202 0.9751 0.0
C1873 C 0.17924 0.4152 0.92912 0.0
C1874 C 0.20115 0.42281 -0.01435 0.0
C1875 C 0.20736 0.41673 0.95062 0.0
C1876 C 0.19891 0.40915 0.90619 0.0
C1877 C 0.18504 0.40841 0.89557 0.0
C1878 C 0.25009 0.4373 0.97217 0.0
C1879 C 0.25384 0.4263 0.9565 0.0
C1880 C 0.23493 0.43393 0.9727 0.0
C1881 C 0.22313 0.41948 0.95748 0.0
C1882 C 0.22681 0.40823 0.94444 0.0
C1883 C 0.24198 0.41159 0.94407 0.0
H1884 H 0.44531 0.94451 0.36281 0.0
H1885 H 0.42333 0.89698 0.3199 0.0
H1886 H 0.47018 0.9468 0.34804 0.0
H1887 H 0.44798 0.89912 0.30676 0.0
H1888 H 0.49335 0.90684 0.2608 0.0
H1889 H 0.47053 0.90905 0.25646 0.0
H1890 H 0.48588 0.93866 0.39035 0.0
H1891 H 0.50889 0.93686 0.39352 0.0
C1892 C 0.44577 0.93459 0.34978 0.0
C1893 C 0.43232 0.92054 0.3429 0.0
C1894 C 0.46003 0.93588 0.34162 0.0
C1895 C 0.46115 0.92313 0.32644 0.0
C1896 C 0.44764 0.90925 0.31767 0.0
C1897 C 0.43344 0.90799 0.32565 0.0
C1898 C 0.49198 0.91404 0.28873 0.0
C1899 C 0.50287 0.92152 0.32787 0.0
C1900 C 0.47883 0.91523 0.28647 0.0
C1901 C 0.47619 0.92383 0.32357 0.0
C1902 C 0.48753 0.93202 0.36086 0.0
C1903 C 0.50073 0.93093 0.36286 0.0
H1904 H 0.12168 0.5943 0.33875 0.0
H1905 H 0.07315 0.57237 0.36442 0.0
H1906 H 0.11969 0.56962 0.32769 0.0
H1907 H 0.07108 0.54749 0.35191 0.0
H1908 H 0.07922 0.50798 0.40405 0.0
H1909 H 0.07788 0.53126 0.39903 0.0
H1910 H 0.11087 0.54751 0.27471 0.0
H1911 H 0.11256 0.52442 0.28085 0.0
C1912 C 0.11052 0.58421 0.3412 0.0
C1913 C 0.09759 0.58534 0.35289 0.0
C1914 C 0.10936 0.57 0.33442 0.0
C1915 C 0.09522 0.55649 0.33895 0.0
C1916 C 0.08218 0.55764 0.34881 0.0
C1917 C 0.08335 0.5719 0.35567 0.0
C1918 C 0.08601 0.5164 0.37505 0.0
C1919 C 0.09616 0.51441 0.34334 0.0
C1920 C 0.08519 0.52976 0.37199 0.0
C1921 C 0.09442 0.5414 0.33693 0.0
C1922 C 0.10385 0.53895 0.30299 0.0
C1923 C 0.10474 0.52565 0.30627 0.0
H1924 H 0.51127 0.57458 0.35614 0.0
H1925 H 0.48378 0.59496 0.32065 0.0
H1926 H 0.48889 0.54923 0.34569 0.0
H1927 H 0.46153 0.56987 0.31163 0.0
H1928 H 0.42428 0.52377 0.26975 0.0
H1929 H 0.44884 0.54707 0.26207 0.0
H1930 H 0.46573 0.5331 0.39252 0.0
H1931 H 0.44132 0.50958 0.39912 0.0
C1932 C 0.50052 0.57367 0.34558 0.0
C1933 C 0.49932 0.58682 0.33951 0.0
C1934 C 0.48766 0.55914 0.33995 0.0
C1935 C 0.47334 0.55744 0.32798 0.0
C1936 C 0.47235 0.57065 0.32007 0.0
C1937 C 0.48515 0.58511 0.32567 0.0
C1938 C 0.43331 0.52554 0.29624 0.0
C1939 C 0.43075 0.51487 0.33542 0.0
C1940 C 0.44739 0.53897 0.29206 0.0
C1941 C 0.45924 0.54214 0.3272 0.0
C1942 C 0.45694 0.53104 0.36452 0.0
C1943 C 0.44288 0.51755 0.36848 0.0
loop_
_geom_bond_atom_site_label_1
_geom_bond_atom_site_label_2
_geom_bond_distance
_geom_bond_site_symmetry_2
_ccdc_geom_bond_type
Mg0 O1 2.028 . S
Mg0 O7 1.986 . S
Mg0 O9 2.114 . S
Mg0 O10 2.251 . S
Mg0 O13 2.010 . S
O1 Mg0 2.028 . S
O1 C4 1.250 . S
O2 Mg3 2.028 . S
O2 C4 1.248 . S
Mg3 O2 2.028 . S
Mg3 O8 2.032 . S
Mg3 O10 2.079 . S
C4 O1 1.250 . S
C4 O2 1.248 . S
C5 O6 1.264 . S
C5 O13 1.249 . S
O6 C5 1.264 . S
O7 Mg0 1.986 . S
O7 C11 1.246 . S
O8 Mg3 2.032 . S
O8 C11 1.259 . S
O9 Mg0 2.114 . S
O9 C12 1.252 . S
O10 Mg0 2.251 . S
O10 Mg3 2.079 . S
O10 C12 1.273 . S
C11 O7 1.246 . S
C11 O8 1.259 . S
C12 O9 1.252 . S
C12 O10 1.273 . S
O13 Mg0 2.010 . S
O13 C5 1.249 . S
Mg14 O15 2.028 . S
Mg14 O21 1.986 . S
Mg14 O23 2.114 . S
Mg14 O24 2.251 . S
Mg14 O27 2.010 . S
O15 Mg14 2.028 . S
O15 C18 1.250 . S
O16 Mg17 2.028 . S
O16 C18 1.248 . S
Mg17 O16 2.028 . S
Mg17 O22 2.032 . S
Mg17 O24 2.079 . S
C18 O15 1.250 . S
C18 O16 1.248 . S
C19 O20 1.264 . S
C19 O27 1.249 . S
O20 C19 1.264 . S
O21 Mg14 1.986 . S
O21 C25 1.246 . S
O22 Mg17 2.032 . S
O22 C25 1.259 . S
O23 Mg14 2.114 . S
O23 C26 1.252 . S
O24 Mg14 2.251 . S
O24 Mg17 2.079 . S
O24 C26 1.273 . S
C25 O21 1.246 . S
C25 O22 1.259 . S
C26 O23 1.252 . S
C26 O24 1.273 . S
O27 Mg14 2.010 . S
O27 C19 1.249 . S
Mg28 O29 2.028 . S
Mg28 O35 1.986 . S
Mg28 O37 2.114 . S
Mg28 O38 2.251 . S
Mg28 O41 2.010 . S
O29 Mg28 2.028 . S
O29 C32 1.250 . S
O30 Mg31 2.028 . S
O30 C32 1.248 . S
Mg31 O30 2.028 . S
Mg31 O36 2.032 . S
Mg31 O38 2.079 . S
C32 O29 1.250 . S
C32 O30 1.248 . S
C33 O34 1.264 . S
C33 O41 1.249 . S
O34 C33 1.264 . S
O35 Mg28 1.986 . S
O35 C39 1.246 . S
O36 Mg31 2.032 . S
O36 C39 1.259 . S
O37 Mg28 2.114 . S
O37 C40 1.252 . S
O38 Mg28 2.251 . S
O38 Mg31 2.079 . S
O38 C40 1.273 . S
C39 O35 1.246 . S
C39 O36 1.259 . S
C40 O37 1.252 . S
C40 O38 1.273 . S
O41 Mg28 2.010 . S
O41 C33 1.249 . S
Mg42 O43 2.028 . S
Mg42 O49 1.986 . S
Mg42 O51 2.114 . S
Mg42 O52 2.251 . S
Mg42 O55 2.010 . S
O43 Mg42 2.028 . S
O43 C46 1.250 . S
O44 Mg45 2.028 . S
O44 C46 1.248 . S
Mg45 O44 2.028 . S
Mg45 O50 2.032 . S
Mg45 O52 2.079 . S
C46 O43 1.250 . S
C46 O44 1.248 . S
C47 O48 1.264 . S
C47 O55 1.249 . S
O48 C47 1.264 . S
O49 Mg42 1.986 . S
O49 C53 1.246 . S
O50 Mg45 2.032 . S
O50 C53 1.259 . S
O51 Mg42 2.114 . S
O51 C54 1.252 . S
O52 Mg42 2.251 . S
O52 Mg45 2.079 . S
O52 C54 1.273 . S
C53 O49 1.246 . S
C53 O50 1.259 . S
C54 O51 1.252 . S
C54 O52 1.273 . S
O55 Mg42 2.010 . S
O55 C47 1.249 . S
Mg56 O57 2.028 . S
Mg56 O63 1.986 . S
Mg56 O65 2.114 . S
Mg56 O66 2.251 . S
Mg56 O69 2.010 . S
O57 Mg56 2.028 . S
O57 C60 1.250 . S
O58 Mg59 2.028 . S
O58 C60 1.248 . S
Mg59 O58 2.028 . S
Mg59 O64 2.032 . S
Mg59 O66 2.079 . S
C60 O57 1.250 . S
C60 O58 1.248 . S
C61 O62 1.264 . S
C61 O69 1.249 . S
O62 C61 1.264 . S
O63 Mg56 1.986 . S
O63 C67 1.246 . S
O64 Mg59 2.032 . S
O64 C67 1.259 . S
O65 Mg56 2.114 . S
O65 C68 1.252 . S
O66 Mg56 2.251 . S
O66 Mg59 2.079 . S
O66 C68 1.273 . S
C67 O63 1.246 . S
C67 O64 1.259 . S
C68 O65 1.252 . S
C68 O66 1.273 . S
O69 Mg56 2.010 . S
O69 C61 1.249 . S
Mg70 O71 2.028 . S
Mg70 O77 1.986 . S
Mg70 O79 2.114 . S
Mg70 O80 2.251 . S
Mg70 O83 2.010 . S
O71 Mg70 2.028 . S
O71 C74 1.250 . S
O72 Mg73 2.028 . S
O72 C74 1.248 . S
Mg73 O72 2.028 . S
Mg73 O78 2.032 . S
Mg73 O80 2.079 . S
C74 O71 1.250 . S
C74 O72 1.248 . S
C75 O76 1.264 . S
C75 O83 1.249 . S
O76 C75 1.264 . S
O77 Mg70 1.986 . S
O77 C81 1.246 . S
O78 Mg73 2.032 . S
O78 C81 1.259 . S
O79 Mg70 2.114 . S
O79 C82 1.252 . S
O80 Mg70 2.251 . S
O80 Mg73 2.079 . S
O80 C82 1.273 . S
C81 O77 1.246 . S
C81 O78 1.259 . S
C82 O79 1.252 . S
C82 O80 1.273 . S
O83 Mg70 2.010 . S
O83 C75 1.249 . S
Mg84 O85 2.028 . S
Mg84 O91 1.986 . S
Mg84 O93 2.114 . S
Mg84 O94 2.251 . S
Mg84 O97 2.010 . S
O85 Mg84 2.028 . S
O85 C88 1.250 . S
O86 Mg87 2.028 . S
O86 C88 1.248 . S
Mg87 O86 2.028 . S
Mg87 O92 2.032 . S
Mg87 O94 2.079 . S
C88 O85 1.250 . S
C88 O86 1.248 . S
C89 O90 1.264 . S
C89 O97 1.249 . S
O90 C89 1.264 . S
O91 Mg84 1.986 . S
O91 C95 1.246 . S
O92 Mg87 2.032 . S
O92 C95 1.259 . S
O93 Mg84 2.114 . S
O93 C96 1.252 . S
O94 Mg84 2.251 . S
O94 Mg87 2.079 . S
O94 C96 1.273 . S
C95 O91 1.246 . S
C95 O92 1.259 . S
C96 O93 1.252 . S
C96 O94 1.273 . S
O97 Mg84 2.010 . S
O97 C89 1.249 . S
Mg98 O99 2.028 . S
Mg98 O105 1.986 . S
Mg98 O107 2.114 . S
Mg98 O108 2.251 . S
Mg98 O111 2.010 . S
O99 Mg98 2.028 . S
O99 C102 1.250 . S
O100 Mg101 2.028 . S
O100 C102 1.248 . S
Mg101 O100 2.028 . S
Mg101 O106 2.032 . S
Mg101 O108 2.079 . S
C102 O99 1.250 . S
C102 O100 1.248 . S
C103 O104 1.264 . S
C103 O111 1.249 . S
O104 C103 1.264 . S
O105 Mg98 1.986 . S
O105 C109 1.246 . S
O106 Mg101 2.032 . S
O106 C109 1.259 . S
O107 Mg98 2.114 . S
O107 C110 1.252 . S
O108 Mg98 2.251 . S
O108 Mg101 2.079 . S
O108 C110 1.273 . S
C109 O105 1.246 . S
C109 O106 1.259 . S
C110 O107 1.252 . S
C110 O108 1.273 . S
O111 Mg98 2.010 . S
O111 C103 1.249 . S
Mg112 O113 2.028 . S
Mg112 O119 1.986 . S
Mg112 O121 2.114 . S
Mg112 O122 2.251 . S
Mg112 O125 2.010 . S
O113 Mg112 2.028 . S
O113 C116 1.250 . S
O114 Mg115 2.028 . S
O114 C116 1.248 . S
Mg115 O114 2.028 . S
Mg115 O120 2.032 . S
Mg115 O122 2.079 . S
C116 O113 1.250 . S
C116 O114 1.248 . S
C117 O118 1.264 . S
C117 O125 1.249 . S
O118 C117 1.264 . S
O119 Mg112 1.986 . S
O119 C123 1.246 . S
O120 Mg115 2.032 . S
O120 C123 1.259 . S
O121 Mg112 2.114 . S
O121 C124 1.252 . S
O122 Mg112 2.251 . S
O122 Mg115 2.079 . S
O122 C124 1.273 . S
C123 O119 1.246 . S
C123 O120 1.259 . S
C124 O121 1.252 . S
C124 O122 1.273 . S
O125 Mg112 2.010 . S
O125 C117 1.249 . S
Mg126 O127 2.028 . S
Mg126 O133 1.986 . S
Mg126 O135 2.114 . S
Mg126 O136 2.251 . S
Mg126 O139 2.010 . S
O127 Mg126 2.028 . S
O127 C130 1.250 . S
O128 Mg129 2.028 . S
O128 C130 1.248 . S
Mg129 O128 2.028 . S
Mg129 O134 2.032 . S
Mg129 O136 2.079 . S
C130 O127 1.250 . S
C130 O128 1.248 . S
C131 O132 1.264 . S
C131 O139 1.249 . S
O132 C131 1.264 . S
O133 Mg126 1.986 . S
O133 C137 1.246 . S
O134 Mg129 2.032 . S
O134 C137 1.259 . S
O135 Mg126 2.114 . S
O135 C138 1.252 . S
O136 Mg126 2.251 . S
O136 Mg129 2.079 . S
O136 C138 1.273 . S
C137 O133 1.246 . S
C137 O134 1.259 . S
C138 O135 1.252 . S
C138 O136 1.273 . S
O139 Mg126 2.010 . S
O139 C131 1.249 . S
Mg140 O141 2.028 . S
Mg140 O147 1.986 . S
Mg140 O149 2.114 . S
Mg140 O150 2.251 . S
Mg140 O153 2.010 . S
O141 Mg140 2.028 . S
O141 C144 1.250 . S
O142 Mg143 2.028 . S
O142 C144 1.248 . S
Mg143 O142 2.028 . S
Mg143 O148 2.032 . S
Mg143 O150 2.079 . S
C144 O141 1.250 . S
C144 O142 1.248 . S
C145 O146 1.264 . S
C145 O153 1.249 . S
O146 C145 1.264 . S
O147 Mg140 1.986 . S
O147 C151 1.246 . S
O148 Mg143 2.032 . S
O148 C151 1.259 . S
O149 Mg140 2.114 . S
O149 C152 1.252 . S
O150 Mg140 2.251 . S
O150 Mg143 2.079 . S
O150 C152 1.273 . S
C151 O147 1.246 . S
C151 O148 1.259 . S
C152 O149 1.252 . S
C152 O150 1.273 . S
O153 Mg140 2.010 . S
O153 C145 1.249 . S
Mg154 O155 2.028 . S
Mg154 O161 1.986 . S
Mg154 O163 2.114 . S
Mg154 O164 2.251 . S
Mg154 O167 2.010 . S
O155 Mg154 2.028 . S
O155 C158 1.250 . S
O156 Mg157 2.028 . S
O156 C158 1.248 . S
Mg157 O156 2.028 . S
Mg157 O162 2.032 . S
Mg157 O164 2.079 . S
C158 O155 1.250 . S
C158 O156 1.248 . S
C159 O160 1.264 . S
C159 O167 1.249 . S
O160 C159 1.264 . S
O161 Mg154 1.986 . S
O161 C165 1.246 . S
O162 Mg157 2.032 . S
O162 C165 1.259 . S
O163 Mg154 2.114 . S
O163 C166 1.252 . S
O164 Mg154 2.251 . S
O164 Mg157 2.079 . S
O164 C166 1.273 . S
C165 O161 1.246 . S
C165 O162 1.259 . S
C166 O163 1.252 . S
C166 O164 1.273 . S
O167 Mg154 2.010 . S
O167 C159 1.249 . S
Mg168 O169 2.028 . S
Mg168 O175 1.986 . S
Mg168 O177 2.114 . S
Mg168 O178 2.251 . S
Mg168 O181 2.010 . S
O169 Mg168 2.028 . S
O169 C172 1.250 . S
O170 Mg171 2.028 . S
O170 C172 1.248 . S
Mg171 O170 2.028 . S
Mg171 O176 2.032 . S
Mg171 O178 2.079 . S
C172 O169 1.250 . S
C172 O170 1.248 . S
C173 O174 1.264 . S
C173 O181 1.249 . S
O174 C173 1.264 . S
O175 Mg168 1.986 . S
O175 C179 1.246 . S
O176 Mg171 2.032 . S
O176 C179 1.259 . S
O177 Mg168 2.114 . S
O177 C180 1.252 . S
O178 Mg168 2.251 . S
O178 Mg171 2.079 . S
O178 C180 1.273 . S
C179 O175 1.246 . S
C179 O176 1.259 . S
C180 O177 1.252 . S
C180 O178 1.273 . S
O181 Mg168 2.010 . S
O181 C173 1.249 . S
Mg182 O183 2.028 . S
Mg182 O189 1.986 . S
Mg182 O191 2.114 . S
Mg182 O192 2.251 . S
Mg182 O195 2.010 . S
O183 Mg182 2.028 . S
O183 C186 1.250 . S
O184 Mg185 2.028 . S
O184 C186 1.248 . S
Mg185 O184 2.028 . S
Mg185 O190 2.032 . S
Mg185 O192 2.079 . S
C186 O183 1.250 . S
C186 O184 1.248 . S
C187 O188 1.264 . S
C187 O195 1.249 . S
O188 C187 1.264 . S
O189 Mg182 1.986 . S
O189 C193 1.246 . S
O190 Mg185 2.032 . S
O190 C193 1.259 . S
O191 Mg182 2.114 . S
O191 C194 1.252 . S
O192 Mg182 2.251 . S
O192 Mg185 2.079 . S
O192 C194 1.273 . S
C193 O189 1.246 . S
C193 O190 1.259 . S
C194 O191 1.252 . S
C194 O192 1.273 . S
O195 Mg182 2.010 . S
O195 C187 1.249 . S
Mg196 O197 2.028 . S
Mg196 O203 1.986 . S
Mg196 O205 2.114 . S
Mg196 O206 2.251 . S
Mg196 O209 2.010 . S
O197 Mg196 2.028 . S
O197 C200 1.250 . S
O198 Mg199 2.028 . S
O198 C200 1.248 . S
Mg199 O198 2.028 . S
Mg199 O204 2.032 . S
Mg199 O206 2.079 . S
C200 O197 1.250 . S
C200 O198 1.248 . S
C201 O202 1.264 . S
C201 O209 1.249 . S
O202 C201 1.264 . S
O203 Mg196 1.986 . S
O203 C207 1.246 . S
O204 Mg199 2.032 . S
O204 C207 1.259 . S
O205 Mg196 2.114 . S
O205 C208 1.252 . S
O206 Mg196 2.251 . S
O206 Mg199 2.079 . S
O206 C208 1.273 . S
C207 O203 1.246 . S
C207 O204 1.259 . S
C208 O205 1.252 . S
C208 O206 1.273 . S
O209 Mg196 2.010 . S
O209 C201 1.249 . S
Mg210 O211 2.028 . S
Mg210 O217 1.986 . S
Mg210 O219 2.114 . S
Mg210 O220 2.251 . S
Mg210 O223 2.010 . S
O211 Mg210 2.028 . S
O211 C214 1.250 . S
O212 Mg213 2.028 . S
O212 C214 1.248 . S
Mg213 O212 2.028 . S
Mg213 O218 2.032 . S
Mg213 O220 2.079 . S
C214 O211 1.250 . S
C214 O212 1.248 . S
C215 O216 1.264 . S
C215 O223 1.249 . S
O216 C215 1.264 . S
O217 Mg210 1.986 . S
O217 C221 1.246 . S
O218 Mg213 2.032 . S
O218 C221 1.259 . S
O219 Mg210 2.114 . S
O219 C222 1.252 . S
O220 Mg210 2.251 . S
O220 Mg213 2.079 . S
O220 C222 1.273 . S
C221 O217 1.246 . S
C221 O218 1.259 . S
C222 O219 1.252 . S
C222 O220 1.273 . S
O223 Mg210 2.010 . S
O223 C215 1.249 . S
Mg224 O225 2.028 . S
Mg224 O231 1.986 . S
Mg224 O233 2.114 . S
Mg224 O234 2.251 . S
Mg224 O237 2.010 . S
O225 Mg224 2.028 . S
O225 C228 1.250 . S
O226 Mg227 2.028 . S
O226 C228 1.248 . S
Mg227 O226 2.028 . S
Mg227 O232 2.032 . S
Mg227 O234 2.079 . S
C228 O225 1.250 . S
C228 O226 1.248 . S
C229 O230 1.264 . S
C229 O237 1.249 . S
O230 C229 1.264 . S
O231 Mg224 1.986 . S
O231 C235 1.246 . S
O232 Mg227 2.032 . S
O232 C235 1.259 . S
O233 Mg224 2.114 . S
O233 C236 1.252 . S
O234 Mg224 2.251 . S
O234 Mg227 2.079 . S
O234 C236 1.273 . S
C235 O231 1.246 . S
C235 O232 1.259 . S
C236 O233 1.252 . S
C236 O234 1.273 . S
O237 Mg224 2.010 . S
O237 C229 1.249 . S
Mg238 O239 2.028 . S
Mg238 O245 1.986 . S
Mg238 O247 2.114 . S
Mg238 O248 2.251 . S
Mg238 O251 2.010 . S
O239 Mg238 2.028 . S
O239 C242 1.250 . S
O240 Mg241 2.028 . S
O240 C242 1.248 . S
Mg241 O240 2.028 . S
Mg241 O246 2.032 . S
Mg241 O248 2.079 . S
C242 O239 1.250 . S
C242 O240 1.248 . S
C243 O244 1.264 . S
C243 O251 1.249 . S
O244 C243 1.264 . S
O245 Mg238 1.986 . S
O245 C249 1.246 . S
O246 Mg241 2.032 . S
O246 C249 1.259 . S
O247 Mg238 2.114 . S
O247 C250 1.252 . S
O248 Mg238 2.251 . S
O248 Mg241 2.079 . S
O248 C250 1.273 . S
C249 O245 1.246 . S
C249 O246 1.259 . S
C250 O247 1.252 . S
C250 O248 1.273 . S
O251 Mg238 2.010 . S
O251 C243 1.249 . S
Mg252 O253 2.028 . S
Mg252 O259 1.986 . S
Mg252 O261 2.114 . S
Mg252 O262 2.251 . S
Mg252 O265 2.010 . S
O253 Mg252 2.028 . S
O253 C256 1.250 . S
O254 Mg255 2.028 . S
O254 C256 1.248 . S
Mg255 O254 2.028 . S
Mg255 O260 2.032 . S
Mg255 O262 2.079 . S
C256 O253 1.250 . S
C256 O254 1.248 . S
C257 O258 1.264 . S
C257 O265 1.249 . S
O258 C257 1.264 . S
O259 Mg252 1.986 . S
O259 C263 1.246 . S
O260 Mg255 2.032 . S
O260 C263 1.259 . S
O261 Mg252 2.114 . S
O261 C264 1.252 . S
O262 Mg252 2.251 . S
O262 Mg255 2.079 . S
O262 C264 1.273 . S
C263 O259 1.246 . S
C263 O260 1.259 . S
C264 O261 1.252 . S
C264 O262 1.273 . S
O265 Mg252 2.010 . S
O265 C257 1.249 . S
Mg266 O267 2.028 . S
Mg266 O273 1.986 . S
Mg266 O275 2.114 . S
Mg266 O276 2.251 . S
Mg266 O279 2.010 . S
O267 Mg266 2.028 . S
O267 C270 1.250 . S
O268 Mg269 2.028 . S
O268 C270 1.248 . S
Mg269 O268 2.028 . S
Mg269 O274 2.032 . S
Mg269 O276 2.079 . S
C270 O267 1.250 . S
C270 O268 1.248 . S
C271 O272 1.264 . S
C271 O279 1.249 . S
O272 C271 1.264 . S
O273 Mg266 1.986 . S
O273 C277 1.246 . S
O274 Mg269 2.032 . S
O274 C277 1.259 . S
O275 Mg266 2.114 . S
O275 C278 1.252 . S
O276 Mg266 2.251 . S
O276 Mg269 2.079 . S
O276 C278 1.273 . S
C277 O273 1.246 . S
C277 O274 1.259 . S
C278 O275 1.252 . S
C278 O276 1.273 . S
O279 Mg266 2.010 . S
O279 C271 1.249 . S
Mg280 O281 2.028 . S
Mg280 O287 1.986 . S
Mg280 O289 2.114 . S
Mg280 O290 2.251 . S
Mg280 O293 2.010 . S
O281 Mg280 2.028 . S
O281 C284 1.250 . S
O282 Mg283 2.028 . S
O282 C284 1.248 . S
Mg283 O282 2.028 . S
Mg283 O288 2.032 . S
Mg283 O290 2.079 . S
C284 O281 1.250 . S
C284 O282 1.248 . S
C285 O286 1.264 . S
C285 O293 1.249 . S
O286 C285 1.264 . S
O287 Mg280 1.986 . S
O287 C291 1.246 . S
O288 Mg283 2.032 . S
O288 C291 1.259 . S
O289 Mg280 2.114 . S
O289 C292 1.252 . S
O290 Mg280 2.251 . S
O290 Mg283 2.079 . S
O290 C292 1.273 . S
C291 O287 1.246 . S
C291 O288 1.259 . S
C292 O289 1.252 . S
C292 O290 1.273 . S
O293 Mg280 2.010 . S
O293 C285 1.249 . S
Mg294 O295 2.028 . S
Mg294 O301 1.986 . S
Mg294 O303 2.114 . S
Mg294 O304 2.251 . S
Mg294 O307 2.010 . S
O295 Mg294 2.028 . S
O295 C298 1.250 . S
O296 Mg297 2.028 . S
O296 C298 1.248 . S
Mg297 O296 2.028 . S
Mg297 O302 2.032 . S
Mg297 O304 2.079 . S
C298 O295 1.250 . S
C298 O296 1.248 . S
C299 O300 1.264 . S
C299 O307 1.249 . S
O300 C299 1.264 . S
O301 Mg294 1.986 . S
O301 C305 1.246 . S
O302 Mg297 2.032 . S
O302 C305 1.259 . S
O303 Mg294 2.114 . S
O303 C306 1.252 . S
O304 Mg294 2.251 . S
O304 Mg297 2.079 . S
O304 C306 1.273 . S
C305 O301 1.246 . S
C305 O302 1.259 . S
C306 O303 1.252 . S
C306 O304 1.273 . S
O307 Mg294 2.010 . S
O307 C299 1.249 . S
Mg308 O309 2.028 . S
Mg308 O315 1.986 . S
Mg308 O317 2.114 . S
Mg308 O318 2.251 . S
Mg308 O321 2.010 . S
O309 Mg308 2.028 . S
O309 C312 1.250 . S
O310 Mg311 2.028 . S
O310 C312 1.248 . S
Mg311 O310 2.028 . S
Mg311 O316 2.032 . S
Mg311 O318 2.079 . S
C312 O309 1.250 . S
C312 O310 1.248 . S
C313 O314 1.264 . S
C313 O321 1.249 . S
O314 C313 1.264 . S
O315 Mg308 1.986 . S
O315 C319 1.246 . S
O316 Mg311 2.032 . S
O316 C319 1.259 . S
O317 Mg308 2.114 . S
O317 C320 1.252 . S
O318 Mg308 2.251 . S
O318 Mg311 2.079 . S
O318 C320 1.273 . S
C319 O315 1.246 . S
C319 O316 1.259 . S
C320 O317 1.252 . S
C320 O318 1.273 . S
O321 Mg308 2.010 . S
O321 C313 1.249 . S
Mg322 O323 2.028 . S
Mg322 O329 1.986 . S
Mg322 O331 2.114 . S
Mg322 O332 2.251 . S
Mg322 O335 2.010 . S
O323 Mg322 2.028 . S
O323 C326 1.250 . S
O324 Mg325 2.028 . S
O324 C326 1.248 . S
Mg325 O324 2.028 . S
Mg325 O330 2.032 . S
Mg325 O332 2.079 . S
C326 O323 1.250 . S
C326 O324 1.248 . S
C327 O328 1.264 . S
C327 O335 1.249 . S
O328 C327 1.264 . S
O329 Mg322 1.986 . S
O329 C333 1.246 . S
O330 Mg325 2.032 . S
O330 C333 1.259 . S
O331 Mg322 2.114 . S
O331 C334 1.252 . S
O332 Mg322 2.251 . S
O332 Mg325 2.079 . S
O332 C334 1.273 . S
C333 O329 1.246 . S
C333 O330 1.259 . S
C334 O331 1.252 . S
C334 O332 1.273 . S
O335 Mg322 2.010 . S
O335 C327 1.249 . S
Mg336 O337 2.028 . S
Mg336 O343 1.986 . S
Mg336 O345 2.114 . S
Mg336 O346 2.251 . S
Mg336 O349 2.010 . S
O337 Mg336 2.028 . S
O337 C340 1.250 . S
O338 Mg339 2.028 . S
O338 C340 1.248 . S
Mg339 O338 2.028 . S
Mg339 O344 2.032 . S
Mg339 O346 2.079 . S
C340 O337 1.250 . S
C340 O338 1.248 . S
C341 O342 1.264 . S
C341 O349 1.249 . S
O342 C341 1.264 . S
O343 Mg336 1.986 . S
O343 C347 1.246 . S
O344 Mg339 2.032 . S
O344 C347 1.259 . S
O345 Mg336 2.114 . S
O345 C348 1.252 . S
O346 Mg336 2.251 . S
O346 Mg339 2.079 . S
O346 C348 1.273 . S
C347 O343 1.246 . S
C347 O344 1.259 . S
C348 O345 1.252 . S
C348 O346 1.273 . S
O349 Mg336 2.010 . S
O349 C341 1.249 . S
Mg350 O351 2.028 . S
Mg350 O357 1.986 . S
Mg350 O359 2.114 . S
Mg350 O360 2.251 . S
Mg350 O363 2.010 . S
O351 Mg350 2.028 . S
O351 C354 1.250 . S
O352 Mg353 2.028 . S
O352 C354 1.248 . S
Mg353 O352 2.028 . S
Mg353 O358 2.032 . S
Mg353 O360 2.079 . S
C354 O351 1.250 . S
C354 O352 1.248 . S
C355 O356 1.264 . S
C355 O363 1.249 . S
O356 C355 1.264 . S
O357 Mg350 1.986 . S
O357 C361 1.246 . S
O358 Mg353 2.032 . S
O358 C361 1.259 . S
O359 Mg350 2.114 . S
O359 C362 1.252 . S
O360 Mg350 2.251 . S
O360 Mg353 2.079 . S
O360 C362 1.273 . S
C361 O357 1.246 . S
C361 O358 1.259 . S
C362 O359 1.252 . S
C362 O360 1.273 . S
O363 Mg350 2.010 . S
O363 C355 1.249 . S
Mg364 O365 2.028 . S
Mg364 O371 1.986 . S
Mg364 O373 2.114 . S
Mg364 O374 2.251 . S
Mg364 O377 2.010 . S
O365 Mg364 2.028 . S
O365 C368 1.250 . S
O366 Mg367 2.028 . S
O366 C368 1.248 . S
Mg367 O366 2.028 . S
Mg367 O372 2.032 . S
Mg367 O374 2.079 . S
C368 O365 1.250 . S
C368 O366 1.248 . S
C369 O370 1.264 . S
C369 O377 1.249 . S
O370 C369 1.264 . S
O371 Mg364 1.986 . S
O371 C375 1.246 . S
O372 Mg367 2.032 . S
O372 C375 1.259 . S
O373 Mg364 2.114 . S
O373 C376 1.252 . S
O374 Mg364 2.251 . S
O374 Mg367 2.079 . S
O374 C376 1.273 . S
C375 O371 1.246 . S
C375 O372 1.259 . S
C376 O373 1.252 . S
C376 O374 1.273 . S
O377 Mg364 2.010 . S
O377 C369 1.249 . S
Mg378 O379 2.028 . S
Mg378 O385 1.986 . S
Mg378 O387 2.114 . S
Mg378 O388 2.251 . S
Mg378 O391 2.010 . S
O379 Mg378 2.028 . S
O379 C382 1.250 . S
O380 Mg381 2.028 . S
O380 C382 1.248 . S
Mg381 O380 2.028 . S
Mg381 O386 2.032 . S
Mg381 O388 2.079 . S
C382 O379 1.250 . S
C382 O380 1.248 . S
C383 O384 1.264 . S
C383 O391 1.249 . S
O384 C383 1.264 . S
O385 Mg378 1.986 . S
O385 C389 1.246 . S
O386 Mg381 2.032 . S
O386 C389 1.259 . S
O387 Mg378 2.114 . S
O387 C390 1.252 . S
O388 Mg378 2.251 . S
O388 Mg381 2.079 . S
O388 C390 1.273 . S
C389 O385 1.246 . S
C389 O386 1.259 . S
C390 O387 1.252 . S
C390 O388 1.273 . S
O391 Mg378 2.010 . S
O391 C383 1.249 . S
Mg392 O393 2.028 . S
Mg392 O399 1.986 . S
Mg392 O401 2.114 . S
Mg392 O402 2.251 . S
Mg392 O405 2.010 . S
O393 Mg392 2.028 . S
O393 C396 1.250 . S
O394 Mg395 2.028 . S
O394 C396 1.248 . S
Mg395 O394 2.028 . S
Mg395 O400 2.032 . S
Mg395 O402 2.079 . S
C396 O393 1.250 . S
C396 O394 1.248 . S
C397 O398 1.264 . S
C397 O405 1.249 . S
O398 C397 1.264 . S
O399 Mg392 1.986 . S
O399 C403 1.246 . S
O400 Mg395 2.032 . S
O400 C403 1.259 . S
O401 Mg392 2.114 . S
O401 C404 1.252 . S
O402 Mg392 2.251 . S
O402 Mg395 2.079 . S
O402 C404 1.273 . S
C403 O399 1.246 . S
C403 O400 1.259 . S
C404 O401 1.252 . S
C404 O402 1.273 . S
O405 Mg392 2.010 . S
O405 C397 1.249 . S
Mg406 O407 2.028 . S
Mg406 O413 1.986 . S
Mg406 O415 2.114 . S
Mg406 O416 2.251 . S
Mg406 O419 2.010 . S
O407 Mg406 2.028 . S
O407 C410 1.250 . S
O408 Mg409 2.028 . S
O408 C410 1.248 . S
Mg409 O408 2.028 . S
Mg409 O414 2.032 . S
Mg409 O416 2.079 . S
C410 O407 1.250 . S
C410 O408 1.248 . S
C411 O412 1.264 . S
C411 O419 1.249 . S
O412 C411 1.264 . S
O413 Mg406 1.986 . S
O413 C417 1.246 . S
O414 Mg409 2.032 . S
O414 C417 1.259 . S
O415 Mg406 2.114 . S
O415 C418 1.252 . S
O416 Mg406 2.251 . S
O416 Mg409 2.079 . S
O416 C418 1.273 . S
C417 O413 1.246 . S
C417 O414 1.259 . S
C418 O415 1.252 . S
C418 O416 1.273 . S
O419 Mg406 2.010 . S
O419 C411 1.249 . S
Mg420 O421 2.028 . S
Mg420 O427 1.986 . S
Mg420 O429 2.114 . S
Mg420 O430 2.251 . S
Mg420 O433 2.010 . S
O421 Mg420 2.028 . S
O421 C424 1.250 . S
O422 Mg423 2.028 . S
O422 C424 1.248 . S
Mg423 O422 2.028 . S
Mg423 O428 2.032 . S
Mg423 O430 2.079 . S
C424 O421 1.250 . S
C424 O422 1.248 . S
C425 O426 1.264 . S
C425 O433 1.249 . S
O426 C425 1.264 . S
O427 Mg420 1.986 . S
O427 C431 1.246 . S
O428 Mg423 2.032 . S
O428 C431 1.259 . S
O429 Mg420 2.114 . S
O429 C432 1.252 . S
O430 Mg420 2.251 . S
O430 Mg423 2.079 . S
O430 C432 1.273 . S
C431 O427 1.246 . S
C431 O428 1.259 . S
C432 O429 1.252 . S
C432 O430 1.273 . S
O433 Mg420 2.010 . S
O433 C425 1.249 . S
Mg434 O435 2.028 . S
Mg434 O441 1.986 . S
Mg434 O443 2.114 . S
Mg434 O444 2.251 . S
Mg434 O447 2.010 . S
O435 Mg434 2.028 . S
O435 C438 1.250 . S
O436 Mg437 2.028 . S
O436 C438 1.248 . S
Mg437 O436 2.028 . S
Mg437 O442 2.032 . S
Mg437 O444 2.079 . S
C438 O435 1.250 . S
C438 O436 1.248 . S
C439 O440 1.264 . S
C439 O447 1.249 . S
O440 C439 1.264 . S
O441 Mg434 1.986 . S
O441 C445 1.246 . S
O442 Mg437 2.032 . S
O442 C445 1.259 . S
O443 Mg434 2.114 . S
O443 C446 1.252 . S
O444 Mg434 2.251 . S
O444 Mg437 2.079 . S
O444 C446 1.273 . S
C445 O441 1.246 . S
C445 O442 1.259 . S
C446 O443 1.252 . S
C446 O444 1.273 . S
O447 Mg434 2.010 . S
O447 C439 1.249 . S
Mg448 O449 2.028 . S
Mg448 O455 1.986 . S
Mg448 O457 2.114 . S
Mg448 O458 2.251 . S
Mg448 O461 2.010 . S
O449 Mg448 2.028 . S
O449 C452 1.250 . S
O450 Mg451 2.028 . S
O450 C452 1.248 . S
Mg451 O450 2.028 . S
Mg451 O456 2.032 . S
Mg451 O458 2.079 . S
C452 O449 1.250 . S
C452 O450 1.248 . S
C453 O454 1.264 . S
C453 O461 1.249 . S
O454 C453 1.264 . S
O455 Mg448 1.986 . S
O455 C459 1.246 . S
O456 Mg451 2.032 . S
O456 C459 1.259 . S
O457 Mg448 2.114 . S
O457 C460 1.252 . S
O458 Mg448 2.251 . S
O458 Mg451 2.079 . S
O458 C460 1.273 . S
C459 O455 1.246 . S
C459 O456 1.259 . S
C460 O457 1.252 . S
C460 O458 1.273 . S
O461 Mg448 2.010 . S
O461 C453 1.249 . S
Mg462 O463 2.028 . S
Mg462 O469 1.986 . S
Mg462 O471 2.114 . S
Mg462 O472 2.251 . S
Mg462 O475 2.010 . S
O463 Mg462 2.028 . S
O463 C466 1.250 . S
O464 Mg465 2.028 . S
O464 C466 1.248 . S
Mg465 O464 2.028 . S
Mg465 O470 2.032 . S
Mg465 O472 2.079 . S
C466 O463 1.250 . S
C466 O464 1.248 . S
C467 O468 1.264 . S
C467 O475 1.249 . S
O468 C467 1.264 . S
O469 Mg462 1.986 . S
O469 C473 1.246 . S
O470 Mg465 2.032 . S
O470 C473 1.259 . S
O471 Mg462 2.114 . S
O471 C474 1.252 . S
O472 Mg462 2.251 . S
O472 Mg465 2.079 . S
O472 C474 1.273 . S
C473 O469 1.246 . S
C473 O470 1.259 . S
C474 O471 1.252 . S
C474 O472 1.273 . S
O475 Mg462 2.010 . S
O475 C467 1.249 . S
Mg476 O477 2.028 . S
Mg476 O483 1.986 . S
Mg476 O485 2.114 . S
Mg476 O486 2.251 . S
Mg476 O489 2.010 . S
O477 Mg476 2.028 . S
O477 C480 1.250 . S
O478 Mg479 2.028 . S
O478 C480 1.248 . S
Mg479 O478 2.028 . S
Mg479 O484 2.032 . S
Mg479 O486 2.079 . S
C480 O477 1.250 . S
C480 O478 1.248 . S
C481 O482 1.264 . S
C481 O489 1.249 . S
O482 C481 1.264 . S
O483 Mg476 1.986 . S
O483 C487 1.246 . S
O484 Mg479 2.032 . S
O484 C487 1.259 . S
O485 Mg476 2.114 . S
O485 C488 1.252 . S
O486 Mg476 2.251 . S
O486 Mg479 2.079 . S
O486 C488 1.273 . S
C487 O483 1.246 . S
C487 O484 1.259 . S
C488 O485 1.252 . S
C488 O486 1.273 . S
O489 Mg476 2.010 . S
O489 C481 1.249 . S
Mg490 O491 2.028 . S
Mg490 O497 1.986 . S
Mg490 O499 2.114 . S
Mg490 O500 2.251 . S
Mg490 O503 2.010 . S
O491 Mg490 2.028 . S
O491 C494 1.250 . S
O492 Mg493 2.028 . S
O492 C494 1.248 . S
Mg493 O492 2.028 . S
Mg493 O498 2.032 . S
Mg493 O500 2.079 . S
C494 O491 1.250 . S
C494 O492 1.248 . S
C495 O496 1.264 . S
C495 O503 1.249 . S
O496 C495 1.264 . S
O497 Mg490 1.986 . S
O497 C501 1.246 . S
O498 Mg493 2.032 . S
O498 C501 1.259 . S
O499 Mg490 2.114 . S
O499 C502 1.252 . S
O500 Mg490 2.251 . S
O500 Mg493 2.079 . S
O500 C502 1.273 . S
C501 O497 1.246 . S
C501 O498 1.259 . S
C502 O499 1.252 . S
C502 O500 1.273 . S
O503 Mg490 2.010 . S
O503 C495 1.249 . S
H504 C512 0.950 . S
H505 C517 0.950 . S
H506 C514 0.950 1_545 S
H507 C516 0.950 . S
H508 C518 0.950 . S
H509 C520 0.950 1_565 S
H510 C522 0.950 . S
H511 C523 0.950 . S
C512 H504 0.950 . S
C512 C513 1.386 . S
C512 C514 1.391 . S
C513 C512 1.386 . S
C513 C517 1.393 . S
C514 H506 0.950 1_565 S
C514 C512 1.391 . S
C514 C515 1.400 . S
C515 C514 1.400 . S
C515 C516 1.398 . S
C515 C521 1.491 1_565 S
C516 H507 0.950 . S
C516 C515 1.398 . S
C516 C517 1.391 . S
C517 H505 0.950 . S
C517 C513 1.393 . S
C517 C516 1.391 . S
C518 H508 0.950 . S
C518 C519 1.386 . S
C518 C520 1.391 . S
C519 C518 1.386 . S
C519 C523 1.393 . S
C520 H509 0.950 1_545 S
C520 C518 1.391 . S
C520 C521 1.400 . S
C521 C515 1.491 1_545 S
C521 C520 1.400 . S
C521 C522 1.398 . S
C522 H510 0.950 . S
C522 C521 1.398 . S
C522 C523 1.391 . S
C523 H511 0.950 . S
C523 C519 1.393 . S
C523 C522 1.391 . S
H524 C532 0.950 . S
H525 C537 0.950 . S
H526 C534 0.904 1_655 S
H527 C536 0.950 . S
H528 C538 0.950 . S
H529 C540 0.904 1_455 S
H530 C542 0.950 . S
H531 C543 0.950 . S
C532 H524 0.950 . S
C532 C533 1.386 . S
C532 C534 1.414 . S
C533 C532 1.386 . S
C533 C537 1.393 . S
C534 H526 0.904 1_455 S
C534 C532 1.414 . S
C534 C535 1.424 . S
C535 C534 1.424 . S
C535 C536 1.398 . S
C535 C541 1.491 1_455 S
C536 H527 0.950 . S
C536 C535 1.398 . S
C536 C537 1.391 . S
C537 H525 0.950 . S
C537 C533 1.393 . S
C537 C536 1.391 . S
C538 H528 0.950 . S
C538 C539 1.386 . S
C538 C540 1.414 . S
C539 C538 1.386 . S
C539 C543 1.393 . S
C540 H529 0.904 1_655 S
C540 C538 1.414 . S
C540 C541 1.423 . S
C541 C535 1.491 1_655 S
C541 C540 1.423 . S
C541 C542 1.398 . S
C542 H530 0.950 . S
C542 C541 1.398 . S
C542 C543 1.391 . S
C543 H531 0.950 . S
C543 C539 1.393 . S
C543 C542 1.391 . S
H544 C552 0.950 . S
H545 C557 0.950 . S
H546 C554 0.950 . S
H547 C556 0.950 . S
H548 C558 0.950 . S
H549 C560 0.950 . S
H550 C562 0.950 . S
H551 C563 0.950 . S
C552 H544 0.950 . S
C552 C553 1.386 . S
C552 C554 1.391 . S
C553 C552 1.386 . S
C553 C557 1.393 . S
C554 H546 0.950 . S
C554 C552 1.391 . S
C554 C555 1.400 . S
C555 C554 1.400 . S
C555 C556 1.398 . S
C555 C561 1.491 . S
C556 H547 0.950 . S
C556 C555 1.398 . S
C556 C557 1.391 . S
C557 H545 0.950 . S
C557 C553 1.393 . S
C557 C556 1.391 . S
C558 H548 0.950 . S
C558 C559 1.386 . S
C558 C560 1.391 . S
C559 C558 1.386 . S
C559 C563 1.393 . S
C560 H549 0.950 . S
C560 C558 1.391 . S
C560 C561 1.400 . S
C561 C555 1.491 . S
C561 C560 1.400 . S
C561 C562 1.398 . S
C562 H550 0.950 . S
C562 C561 1.398 . S
C562 C563 1.391 . S
C563 H551 0.950 . S
C563 C559 1.393 . S
C563 C562 1.391 . S
H564 C572 0.950 . S
H565 C577 0.950 . S
H566 C574 0.953 . S
H567 C576 0.950 . S
H568 C578 0.950 . S
H569 C580 0.953 . S
H570 C582 0.950 . S
H571 C583 0.950 . S
C572 H564 0.950 . S
C572 C573 1.386 . S
C572 C574 1.391 . S
C573 C572 1.386 . S
C573 C577 1.393 . S
C574 H566 0.953 . S
C574 C572 1.391 . S
C574 C575 1.400 . S
C575 C574 1.400 . S
C575 C576 1.398 . S
C575 C581 1.491 1_565 S
C576 H567 0.950 . S
C576 C575 1.398 . S
C576 C577 1.391 . S
C577 H565 0.950 . S
C577 C573 1.393 . S
C577 C576 1.391 . S
C578 H568 0.950 . S
C578 C579 1.386 . S
C578 C580 1.391 . S
C579 C578 1.386 . S
C579 C583 1.393 . S
C580 H569 0.953 . S
C580 C578 1.391 . S
C580 C581 1.400 . S
C581 C575 1.491 1_545 S
C581 C580 1.400 . S
C581 C582 1.398 . S
C582 H570 0.950 . S
C582 C581 1.398 . S
C582 C583 1.391 . S
C583 H571 0.950 . S
C583 C579 1.393 . S
C583 C582 1.391 . S
H584 C592 0.950 . S
H585 C597 0.950 . S
H586 C594 0.950 . S
H587 C596 0.950 . S
H588 C598 0.950 . S
H589 C600 0.950 . S
H590 C602 0.950 . S
H591 C603 0.950 . S
C592 H584 0.950 . S
C592 C593 1.386 . S
C592 C594 1.391 . S
C593 C592 1.386 . S
C593 C597 1.393 . S
C594 H586 0.950 . S
C594 C592 1.391 . S
C594 C595 1.400 . S
C595 C594 1.400 . S
C595 C596 1.398 1_455 S
C595 C601 1.491 1_455 S
C596 H587 0.950 . S
C596 C595 1.398 1_655 S
C596 C597 1.391 1_655 S
C597 H585 0.950 . S
C597 C593 1.393 . S
C597 C596 1.391 1_455 S
C598 H588 0.950 . S
C598 C599 1.386 . S
C598 C600 1.391 . S
C599 C598 1.386 . S
C599 C603 1.393 . S
C600 H589 0.950 . S
C600 C598 1.391 . S
C600 C601 1.400 . S
C601 C595 1.491 1_655 S
C601 C600 1.400 . S
C601 C602 1.398 1_655 S
C602 H590 0.950 . S
C602 C601 1.398 1_455 S
C602 C603 1.391 1_455 S
C603 H591 0.950 . S
C603 C599 1.393 . S
C603 C602 1.391 1_655 S
H604 C612 0.950 . S
H605 C617 0.950 . S
H606 C614 0.950 . S
H607 C616 0.950 . S
H608 C618 0.950 . S
H609 C620 0.950 . S
H610 C622 0.950 . S
H611 C623 0.950 . S
C612 H604 0.950 . S
C612 C613 1.386 . S
C612 C614 1.391 . S
C613 C612 1.386 . S
C613 C617 1.393 . S
C614 H606 0.950 . S
C614 C612 1.391 . S
C614 C615 1.400 . S
C615 C614 1.400 . S
C615 C616 1.398 . S
C615 C621 1.491 . S
C616 H607 0.950 . S
C616 C615 1.398 . S
C616 C617 1.391 . S
C617 H605 0.950 . S
C617 C613 1.393 . S
C617 C616 1.391 . S
C618 H608 0.950 . S
C618 C619 1.386 . S
C618 C620 1.391 . S
C619 C618 1.386 . S
C619 C623 1.393 . S
C620 H609 0.950 . S
C620 C618 1.391 . S
C620 C621 1.400 . S
C621 C615 1.491 . S
C621 C620 1.400 . S
C621 C622 1.398 . S
C622 H610 0.950 . S
C622 C621 1.398 . S
C622 C623 1.391 . S
C623 H611 0.950 . S
C623 C619 1.393 . S
C623 C622 1.391 . S
H624 C632 0.950 . S
H625 C637 0.950 . S
H626 C634 0.950 . S
H627 C636 0.950 . S
H628 C638 0.950 . S
H629 C640 0.950 . S
H630 C642 0.950 . S
H631 C643 0.950 . S
C632 H624 0.950 . S
C632 C633 1.386 . S
C632 C634 1.391 . S
C633 C632 1.386 . S
C633 C637 1.393 . S
C634 H626 0.950 . S
C634 C632 1.391 . S
C634 C635 1.400 . S
C635 C634 1.400 . S
C635 C636 1.398 . S
C635 C641 1.491 . S
C636 H627 0.950 . S
C636 C635 1.398 . S
C636 C637 1.391 . S
C637 H625 0.950 . S
C637 C633 1.393 . S
C637 C636 1.391 . S
C638 H628 0.950 . S
C638 C639 1.386 . S
C638 C640 1.391 . S
C639 C638 1.386 . S
C639 C643 1.393 . S
C640 H629 0.950 . S
C640 C638 1.391 . S
C640 C641 1.400 . S
C641 C635 1.491 . S
C641 C640 1.400 . S
C641 C642 1.398 . S
C642 H630 0.950 . S
C642 C641 1.398 . S
C642 C643 1.391 . S
C643 H631 0.950 . S
C643 C639 1.393 . S
C643 C642 1.391 . S
H644 C652 0.950 . S
H645 C657 0.950 . S
H646 C654 0.950 . S
H647 C656 0.950 . S
H648 C658 0.950 . S
H649 C660 0.950 . S
H650 C662 0.950 . S
H651 C663 0.950 . S
C652 H644 0.950 . S
C652 C653 1.386 . S
C652 C654 1.391 . S
C653 C652 1.386 . S
C653 C657 1.393 . S
C654 H646 0.950 . S
C654 C652 1.391 . S
C654 C655 1.400 . S
C655 C654 1.400 . S
C655 C656 1.398 . S
C655 C661 1.491 . S
C656 H647 0.950 . S
C656 C655 1.398 . S
C656 C657 1.391 . S
C657 H645 0.950 . S
C657 C653 1.393 . S
C657 C656 1.391 . S
C658 H648 0.950 . S
C658 C659 1.386 . S
C658 C660 1.391 . S
C659 C658 1.386 . S
C659 C663 1.393 . S
C660 H649 0.950 . S
C660 C658 1.391 . S
C660 C661 1.400 . S
C661 C655 1.491 . S
C661 C660 1.400 . S
C661 C662 1.398 . S
C662 H650 0.950 . S
C662 C661 1.398 . S
C662 C663 1.391 . S
C663 H651 0.950 . S
C663 C659 1.393 . S
C663 C662 1.391 . S
H664 C672 0.950 . S
H665 C677 0.950 . S
H666 C674 0.950 . S
H667 C676 0.950 . S
H668 C678 0.950 . S
H669 C680 0.950 . S
H670 C682 0.950 . S
H671 C683 0.950 . S
C672 H664 0.950 . S
C672 C673 1.386 . S
C672 C674 1.391 . S
C673 C672 1.386 . S
C673 C677 1.393 . S
C674 H666 0.950 . S
C674 C672 1.391 . S
C674 C675 1.400 . S
C675 C674 1.400 . S
C675 C676 1.398 . S
C675 C681 1.491 . S
C676 H667 0.950 . S
C676 C675 1.398 . S
C676 C677 1.391 . S
C677 H665 0.950 . S
C677 C673 1.393 . S
C677 C676 1.391 . S
C678 H668 0.950 . S
C678 C679 1.386 . S
C678 C680 1.391 . S
C679 C678 1.386 . S
C679 C683 1.393 . S
C680 H669 0.950 . S
C680 C678 1.391 . S
C680 C681 1.400 . S
C681 C675 1.491 . S
C681 C680 1.400 . S
C681 C682 1.398 . S
C682 H670 0.950 . S
C682 C681 1.398 . S
C682 C683 1.391 . S
C683 H671 0.950 . S
C683 C679 1.393 . S
C683 C682 1.391 . S
H684 C692 0.950 . S
H685 C697 0.950 . S
H686 C694 0.950 . S
H687 C696 0.950 . S
H688 C698 0.950 . S
H689 C700 0.950 . S
H690 C702 0.950 . S
H691 C703 0.950 . S
C692 H684 0.950 . S
C692 C693 1.386 . S
C692 C694 1.391 . S
C693 C692 1.386 . S
C693 C697 1.393 . S
C694 H686 0.950 . S
C694 C692 1.391 . S
C694 C695 1.400 . S
C695 C694 1.400 . S
C695 C696 1.398 . S
C695 C701 1.491 . S
C696 H687 0.950 . S
C696 C695 1.398 . S
C696 C697 1.391 . S
C697 H685 0.950 . S
C697 C693 1.393 . S
C697 C696 1.391 . S
C698 H688 0.950 . S
C698 C699 1.386 . S
C698 C700 1.391 . S
C699 C698 1.386 . S
C699 C703 1.393 . S
C700 H689 0.950 . S
C700 C698 1.391 . S
C700 C701 1.400 . S
C701 C695 1.491 . S
C701 C700 1.400 . S
C701 C702 1.398 . S
C702 H690 0.950 . S
C702 C701 1.398 . S
C702 C703 1.391 . S
C703 H691 0.950 . S
C703 C699 1.393 . S
C703 C702 1.391 . S
H704 C712 0.950 . S
H705 C717 0.950 . S
H706 C714 0.950 . S
H707 C716 0.950 . S
H708 C718 0.950 . S
H709 C720 0.950 . S
H710 C722 0.950 . S
H711 C723 0.950 . S
C712 H704 0.950 . S
C712 C713 1.386 . S
C712 C714 1.391 . S
C713 C712 1.386 . S
C713 C717 1.393 . S
C714 H706 0.950 . S
C714 C712 1.391 . S
C714 C715 1.400 . S
C715 C714 1.400 . S
C715 C716 1.398 . S
C715 C721 1.491 . S
C716 H707 0.950 . S
C716 C715 1.398 . S
C716 C717 1.391 . S
C717 H705 0.950 . S
C717 C713 1.393 . S
C717 C716 1.391 . S
C718 H708 0.950 . S
C718 C719 1.386 . S
C718 C720 1.391 . S
C719 C718 1.386 . S
C719 C723 1.393 . S
C720 H709 0.950 . S
C720 C718 1.391 . S
C720 C721 1.400 . S
C721 C715 1.491 . S
C721 C720 1.400 . S
C721 C722 1.398 . S
C722 H710 0.950 . S
C722 C721 1.398 . S
C722 C723 1.391 . S
C723 H711 0.950 . S
C723 C719 1.393 . S
C723 C722 1.391 . S
H724 C732 0.950 . S
H725 C737 0.950 . S
H726 C734 0.950 . S
H727 C736 0.950 . S
H728 C738 0.950 . S
H729 C740 0.950 . S
H730 C742 0.950 . S
H731 C743 0.950 . S
C732 H724 0.950 . S
C732 C733 1.386 . S
C732 C734 1.391 . S
C733 C732 1.386 . S
C733 C737 1.393 . S
C734 H726 0.950 . S
C734 C732 1.391 . S
C734 C735 1.400 . S
C735 C734 1.400 . S
C735 C736 1.398 . S
C735 C741 1.491 . S
C736 H727 0.950 . S
C736 C735 1.398 . S
C736 C737 1.391 . S
C737 H725 0.950 . S
C737 C733 1.393 . S
C737 C736 1.391 . S
C738 H728 0.950 . S
C738 C739 1.386 . S
C738 C740 1.391 . S
C739 C738 1.386 . S
C739 C743 1.393 . S
C740 H729 0.950 . S
C740 C738 1.391 . S
C740 C741 1.400 . S
C741 C735 1.491 . S
C741 C740 1.400 . S
C741 C742 1.398 . S
C742 H730 0.950 . S
C742 C741 1.398 . S
C742 C743 1.391 . S
C743 H731 0.950 . S
C743 C739 1.393 . S
C743 C742 1.391 . S
H744 C752 0.950 . S
H745 C757 0.950 . S
H746 C754 0.950 . S
H747 C756 0.950 . S
H748 C758 0.950 . S
H749 C760 0.950 . S
H750 C762 0.950 . S
H751 C763 0.950 . S
C752 H744 0.950 . S
C752 C753 1.386 . S
C752 C754 1.391 . S
C753 C752 1.386 . S
C753 C757 1.393 . S
C754 H746 0.950 . S
C754 C752 1.391 . S
C754 C755 1.400 . S
C755 C754 1.400 . S
C755 C756 1.398 . S
C755 C761 1.491 . S
C756 H747 0.950 . S
C756 C755 1.398 . S
C756 C757 1.391 . S
C757 H745 0.950 . S
C757 C753 1.393 . S
C757 C756 1.391 . S
C758 H748 0.950 . S
C758 C759 1.386 . S
C758 C760 1.391 . S
C759 C758 1.386 . S
C759 C763 1.393 . S
C760 H749 0.950 . S
C760 C758 1.391 . S
C760 C761 1.400 . S
C761 C755 1.491 . S
C761 C760 1.400 . S
C761 C762 1.398 . S
C762 H750 0.950 . S
C762 C761 1.398 . S
C762 C763 1.391 . S
C763 H751 0.950 . S
C763 C759 1.393 . S
C763 C762 1.391 . S
H764 C772 0.950 . S
H765 C777 0.950 . S
H766 C774 0.950 . S
H767 C776 0.950 . S
H768 C778 0.950 . S
H769 C780 0.950 . S
H770 C782 0.950 . S
H771 C783 0.950 . S
C772 H764 0.950 . S
C772 C773 1.386 . S
C772 C774 1.391 . S
C773 C772 1.386 . S
C773 C777 1.393 . S
C774 H766 0.950 . S
C774 C772 1.391 . S
C774 C775 1.400 . S
C775 C774 1.400 . S
C775 C776 1.398 . S
C775 C781 1.491 . S
C776 H767 0.950 . S
C776 C775 1.398 . S
C776 C777 1.391 . S
C777 H765 0.950 . S
C777 C773 1.393 . S
C777 C776 1.391 . S
C778 H768 0.950 . S
C778 C779 1.386 . S
C778 C780 1.391 . S
C779 C778 1.386 . S
C779 C783 1.393 . S
C780 H769 0.950 . S
C780 C778 1.391 . S
C780 C781 1.400 . S
C781 C775 1.491 . S
C781 C780 1.400 . S
C781 C782 1.398 . S
C782 H770 0.950 . S
C782 C781 1.398 . S
C782 C783 1.391 . S
C783 H771 0.950 . S
C783 C779 1.393 . S
C783 C782 1.391 . S
H784 C792 0.950 . S
H785 C797 0.950 . S
H786 C794 0.950 . S
H787 C796 0.950 . S
H788 C798 0.950 . S
H789 C800 0.950 . S
H790 C802 0.950 . S
H791 C803 0.950 . S
C792 H784 0.950 . S
C792 C793 1.386 . S
C792 C794 1.391 . S
C793 C792 1.386 . S
C793 C797 1.393 . S
C794 H786 0.950 . S
C794 C792 1.391 . S
C794 C795 1.400 . S
C795 C794 1.400 . S
C795 C796 1.398 . S
C795 C801 1.491 . S
C796 H787 0.950 . S
C796 C795 1.398 . S
C796 C797 1.391 . S
C797 H785 0.950 . S
C797 C793 1.393 . S
C797 C796 1.391 . S
C798 H788 0.950 . S
C798 C799 1.386 . S
C798 C800 1.391 . S
C799 C798 1.386 . S
C799 C803 1.393 . S
C800 H789 0.950 . S
C800 C798 1.391 . S
C800 C801 1.400 . S
C801 C795 1.491 . S
C801 C800 1.400 . S
C801 C802 1.398 . S
C802 H790 0.950 . S
C802 C801 1.398 . S
C802 C803 1.391 . S
C803 H791 0.950 . S
C803 C799 1.393 . S
C803 C802 1.391 . S
H804 C812 0.950 . S
H805 C817 0.950 . S
H806 C814 0.950 . S
H807 C816 0.950 . S
H808 C818 0.950 . S
H809 C820 0.950 . S
H810 C822 0.950 . S
H811 C823 0.950 . S
C812 H804 0.950 . S
C812 C813 1.386 . S
C812 C814 1.391 . S
C813 C812 1.386 . S
C813 C817 1.393 . S
C814 H806 0.950 . S
C814 C812 1.391 . S
C814 C815 1.400 . S
C815 C814 1.400 . S
C815 C816 1.398 . S
C815 C821 1.491 . S
C816 H807 0.950 . S
C816 C815 1.398 . S
C816 C817 1.391 . S
C817 H805 0.950 . S
C817 C813 1.393 . S
C817 C816 1.391 . S
C818 H808 0.950 . S
C818 C819 1.386 . S
C818 C820 1.391 . S
C819 C818 1.386 . S
C819 C823 1.393 . S
C820 H809 0.950 . S
C820 C818 1.391 . S
C820 C821 1.400 . S
C821 C815 1.491 . S
C821 C820 1.400 . S
C821 C822 1.398 . S
C822 H810 0.950 . S
C822 C821 1.398 . S
C822 C823 1.391 . S
C823 H811 0.950 . S
C823 C819 1.393 . S
C823 C822 1.391 . S
H824 C832 0.950 . S
H825 C837 0.950 . S
H826 C834 0.950 . S
H827 C836 0.950 . S
H828 C838 0.950 . S
H829 C840 0.950 . S
H830 C842 0.950 . S
H831 C843 0.950 . S
C832 H824 0.950 . S
C832 C833 1.386 . S
C832 C834 1.391 . S
C833 C832 1.386 . S
C833 C837 1.393 . S
C834 H826 0.950 . S
C834 C832 1.391 . S
C834 C835 1.400 . S
C835 C834 1.400 . S
C835 C836 1.398 . S
C835 C841 1.491 . S
C836 H827 0.950 . S
C836 C835 1.398 . S
C836 C837 1.391 . S
C837 H825 0.950 . S
C837 C833 1.393 . S
C837 C836 1.391 . S
C838 H828 0.950 . S
C838 C839 1.386 . S
C838 C840 1.391 . S
C839 C838 1.386 . S
C839 C843 1.393 . S
C840 H829 0.950 . S
C840 C838 1.391 . S
C840 C841 1.400 . S
C841 C835 1.491 . S
C841 C840 1.400 . S
C841 C842 1.398 . S
C842 H830 0.950 . S
C842 C841 1.398 . S
C842 C843 1.391 . S
C843 H831 0.950 . S
C843 C839 1.393 . S
C843 C842 1.391 . S
H844 C852 0.950 . S
H845 C857 0.950 . S
H846 C854 0.950 . S
H847 C856 0.950 . S
H848 C858 0.950 . S
H849 C860 0.950 . S
H850 C862 0.950 . S
H851 C863 0.950 . S
C852 H844 0.950 . S
C852 C853 1.386 . S
C852 C854 1.391 . S
C853 C852 1.386 . S
C853 C857 1.393 . S
C854 H846 0.950 . S
C854 C852 1.391 . S
C854 C855 1.400 . S
C855 C854 1.400 . S
C855 C856 1.398 . S
C855 C861 1.491 . S
C856 H847 0.950 . S
C856 C855 1.398 . S
C856 C857 1.391 . S
C857 H845 0.950 . S
C857 C853 1.393 . S
C857 C856 1.391 . S
C858 H848 0.950 . S
C858 C859 1.386 . S
C858 C860 1.391 . S
C859 C858 1.386 . S
C859 C863 1.393 . S
C860 H849 0.950 . S
C860 C858 1.391 . S
C860 C861 1.400 . S
C861 C855 1.491 . S
C861 C860 1.400 . S
C861 C862 1.398 . S
C862 H850 0.950 . S
C862 C861 1.398 . S
C862 C863 1.391 . S
C863 H851 0.950 . S
C863 C859 1.393 . S
C863 C862 1.391 . S
H864 C872 0.950 . S
H865 C877 0.950 . S
H866 C874 0.906 1_545 S
H867 C876 0.950 . S
H868 C878 0.950 . S
H869 C880 0.907 1_565 S
H870 C882 0.950 . S
H871 C883 0.950 . S
C872 H864 0.950 . S
C872 C873 1.386 . S
C872 C874 1.391 . S
C873 C872 1.386 . S
C873 C877 1.393 . S
C874 H866 0.906 1_565 S
C874 C872 1.391 . S
C874 C875 1.400 . S
C875 C874 1.400 . S
C875 C876 1.398 . S
C875 C881 1.491 1_566 S
C876 H867 0.950 . S
C876 C875 1.398 . S
C876 C877 1.391 . S
C877 H865 0.950 . S
C877 C873 1.393 . S
C877 C876 1.391 . S
C878 H868 0.950 . S
C878 C879 1.386 . S
C878 C880 1.391 . S
C879 C878 1.386 . S
C879 C883 1.393 . S
C880 H869 0.907 1_545 S
C880 C878 1.391 . S
C880 C881 1.400 . S
C881 C875 1.491 1_544 S
C881 C880 1.400 . S
C881 C882 1.398 . S
C882 H870 0.950 . S
C882 C881 1.398 . S
C882 C883 1.391 . S
C883 H871 0.950 . S
C883 C879 1.393 . S
C883 C882 1.391 . S
H884 C892 0.950 . S
H885 C897 0.950 . S
H886 C894 0.950 1_455 S
H887 C896 0.946 1_556 S
H888 C898 0.950 . S
H889 C900 0.950 1_655 S
H890 C902 0.945 1_554 S
H891 C903 0.950 . S
C892 H884 0.950 . S
C892 C893 1.386 . S
C892 C894 1.391 . S
C893 C892 1.386 . S
C893 C897 1.393 . S
C894 H886 0.950 1_655 S
C894 C892 1.391 . S
C894 C895 1.400 . S
C895 C894 1.400 . S
C895 C896 1.398 . S
C895 C901 1.491 1_654 S
C896 H887 0.946 1_554 S
C896 C895 1.398 . S
C896 C897 1.391 . S
C897 H885 0.950 . S
C897 C893 1.393 . S
C897 C896 1.391 . S
C898 H888 0.950 . S
C898 C899 1.386 . S
C898 C900 1.391 . S
C899 C898 1.386 . S
C899 C903 1.393 . S
C900 H889 0.950 1_455 S
C900 C898 1.391 . S
C900 C901 1.400 . S
C901 C895 1.491 1_456 S
C901 C900 1.400 . S
C901 C902 1.398 . S
C902 H890 0.945 1_556 S
C902 C901 1.398 . S
C902 C903 1.391 . S
C903 H891 0.950 . S
C903 C899 1.393 . S
C903 C902 1.391 . S
H904 C912 0.950 . S
H905 C917 0.950 . S
H906 C914 0.950 . S
H907 C916 0.950 . S
H908 C918 0.950 . S
H909 C920 0.950 . S
H910 C922 0.950 . S
H911 C923 0.950 . S
C912 H904 0.950 . S
C912 C913 1.386 . S
C912 C914 1.391 . S
C913 C912 1.386 . S
C913 C917 1.393 . S
C914 H906 0.950 . S
C914 C912 1.391 . S
C914 C915 1.400 . S
C915 C914 1.400 . S
C915 C916 1.398 . S
C915 C921 1.491 1_556 S
C916 H907 0.950 . S
C916 C915 1.398 . S
C916 C917 1.391 . S
C917 H905 0.950 . S
C917 C913 1.393 . S
C917 C916 1.391 . S
C918 H908 0.950 . S
C918 C919 1.386 . S
C918 C920 1.391 . S
C919 C918 1.386 . S
C919 C923 1.393 . S
C920 H909 0.950 . S
C920 C918 1.391 . S
C920 C921 1.400 . S
C921 C915 1.491 1_554 S
C921 C920 1.400 . S
C921 C922 1.398 . S
C922 H910 0.950 . S
C922 C921 1.398 . S
C922 C923 1.391 . S
C923 H911 0.950 . S
C923 C919 1.393 . S
C923 C922 1.391 . S
H924 C932 0.950 . S
H925 C937 0.950 . S
H926 C934 0.950 . S
H927 C936 0.950 . S
H928 C938 0.950 . S
H929 C940 0.950 . S
H930 C942 0.950 . S
H931 C943 0.950 . S
C932 H924 0.950 . S
C932 C933 1.386 . S
C932 C934 1.391 . S
C933 C932 1.386 . S
C933 C937 1.393 . S
C934 H926 0.950 . S
C934 C932 1.391 . S
C934 C935 1.400 . S
C935 C934 1.400 . S
C935 C936 1.398 . S
C935 C941 1.491 1_566 S
C936 H927 0.950 . S
C936 C935 1.398 . S
C936 C937 1.391 . S
C937 H925 0.950 . S
C937 C933 1.393 . S
C937 C936 1.391 . S
C938 H928 0.950 . S
C938 C939 1.386 . S
C938 C940 1.391 . S
C939 C938 1.386 . S
C939 C943 1.393 . S
C940 H929 0.950 . S
C940 C938 1.391 . S
C940 C941 1.400 . S
C941 C935 1.491 1_544 S
C941 C940 1.400 . S
C941 C942 1.398 . S
C942 H930 0.950 . S
C942 C941 1.398 . S
C942 C943 1.391 . S
C943 H931 0.950 . S
C943 C939 1.393 . S
C943 C942 1.391 . S
H944 C952 0.950 . S
H945 C957 0.950 . S
H946 C954 0.950 1_554 S
H947 C956 0.950 . S
H948 C958 0.950 . S
H949 C960 0.950 1_556 S
H950 C962 0.950 . S
H951 C963 0.950 . S
C952 H944 0.950 . S
C952 C953 1.386 . S
C952 C954 1.391 . S
C953 C952 1.386 . S
C953 C957 1.393 . S
C954 H946 0.950 1_556 S
C954 C952 1.391 . S
C954 C955 1.400 . S
C955 C954 1.400 . S
C955 C956 1.398 1_455 S
C955 C961 1.491 1_456 S
C956 H947 0.950 . S
C956 C955 1.398 1_655 S
C956 C957 1.391 1_655 S
C957 H945 0.950 . S
C957 C953 1.393 . S
C957 C956 1.391 1_455 S
C958 H948 0.950 . S
C958 C959 1.386 . S
C958 C960 1.391 . S
C959 C958 1.386 . S
C959 C963 1.393 . S
C960 H949 0.950 1_554 S
C960 C958 1.391 . S
C960 C961 1.400 . S
C961 C955 1.491 1_654 S
C961 C960 1.400 . S
C961 C962 1.398 1_655 S
C962 H950 0.950 . S
C962 C961 1.398 1_455 S
C962 C963 1.391 1_455 S
C963 H951 0.950 . S
C963 C959 1.393 . S
C963 C962 1.391 1_655 S
H964 C972 0.950 . S
H965 C977 0.950 . S
H966 C974 0.959 . S
H967 C976 0.950 . S
H968 C978 0.950 . S
H969 C980 0.959 . S
H970 C982 0.950 . S
H971 C983 0.950 . S
C972 H964 0.950 . S
C972 C973 1.386 . S
C972 C974 1.391 . S
C973 C972 1.386 . S
C973 C977 1.393 . S
C974 H966 0.959 . S
C974 C972 1.391 . S
C974 C975 1.400 . S
C975 C974 1.400 . S
C975 C976 1.398 . S
C975 C981 1.491 1_554 S
C976 H967 0.950 . S
C976 C975 1.398 . S
C976 C977 1.391 . S
C977 H965 0.950 . S
C977 C973 1.393 . S
C977 C976 1.391 . S
C978 H968 0.950 . S
C978 C979 1.386 . S
C978 C980 1.391 . S
C979 C978 1.386 . S
C979 C983 1.393 . S
C980 H969 0.959 . S
C980 C978 1.391 . S
C980 C981 1.400 . S
C981 C975 1.491 1_556 S
C981 C980 1.400 . S
C981 C982 1.398 . S
C982 H970 0.950 . S
C982 C981 1.398 . S
C982 C983 1.391 . S
C983 H971 0.950 . S
C983 C979 1.393 . S
C983 C982 1.391 . S
H984 C992 0.950 . S
H985 C997 0.950 . S
H986 C994 0.950 . S
H987 C996 0.950 . S
H988 C998 0.950 . S
H989 C1000 0.950 . S
H990 C1002 0.950 . S
H991 C1003 0.950 . S
C992 H984 0.950 . S
C992 C993 1.386 . S
C992 C994 1.391 . S
C993 C992 1.386 . S
C993 C997 1.393 . S
C994 H986 0.950 . S
C994 C992 1.391 . S
C994 C995 1.400 . S
C995 C994 1.400 . S
C995 C996 1.398 . S
C995 C1001 1.491 . S
C996 H987 0.950 . S
C996 C995 1.398 . S
C996 C997 1.391 . S
C997 H985 0.950 . S
C997 C993 1.393 . S
C997 C996 1.391 . S
C998 H988 0.950 . S
C998 C999 1.386 . S
C998 C1000 1.391 . S
C999 C998 1.386 . S
C999 C1003 1.393 . S
C1000 H989 0.950 . S
C1000 C998 1.391 . S
C1000 C1001 1.400 . S
C1001 C995 1.491 . S
C1001 C1000 1.400 . S
C1001 C1002 1.398 . S
C1002 H990 0.950 . S
C1002 C1001 1.398 . S
C1002 C1003 1.391 . S
C1003 H991 0.950 . S
C1003 C999 1.393 . S
C1003 C1002 1.391 . S
H1004 C1012 0.950 . S
H1005 C1017 0.950 . S
H1006 C1014 0.950 . S
H1007 C1016 0.950 . S
H1008 C1018 0.950 . S
H1009 C1020 0.950 . S
H1010 C1022 0.950 . S
H1011 C1023 0.950 . S
C1012 H1004 0.950 . S
C1012 C1013 1.386 . S
C1012 C1014 1.391 . S
C1013 C1012 1.386 . S
C1013 C1017 1.393 . S
C1014 H1006 0.950 . S
C1014 C1012 1.391 . S
C1014 C1015 1.400 . S
C1015 C1014 1.400 . S
C1015 C1016 1.398 . S
C1015 C1021 1.491 . S
C1016 H1007 0.950 . S
C1016 C1015 1.398 . S
C1016 C1017 1.391 . S
C1017 H1005 0.950 . S
C1017 C1013 1.393 . S
C1017 C1016 1.391 . S
C1018 H1008 0.950 . S
C1018 C1019 1.386 . S
C1018 C1020 1.391 . S
C1019 C1018 1.386 . S
C1019 C1023 1.393 . S
C1020 H1009 0.950 . S
C1020 C1018 1.391 . S
C1020 C1021 1.400 . S
C1021 C1015 1.491 . S
C1021 C1020 1.400 . S
C1021 C1022 1.398 . S
C1022 H1010 0.950 . S
C1022 C1021 1.398 . S
C1022 C1023 1.391 . S
C1023 H1011 0.950 . S
C1023 C1019 1.393 . S
C1023 C1022 1.391 . S
H1024 C1032 0.950 . S
H1025 C1037 0.950 . S
H1026 C1034 0.950 . S
H1027 C1036 0.950 . S
H1028 C1038 0.950 . S
H1029 C1040 0.950 . S
H1030 C1042 0.950 . S
H1031 C1043 0.950 . S
C1032 H1024 0.950 . S
C1032 C1033 1.386 . S
C1032 C1034 1.391 . S
C1033 C1032 1.386 . S
C1033 C1037 1.393 . S
C1034 H1026 0.950 . S
C1034 C1032 1.391 . S
C1034 C1035 1.400 . S
C1035 C1034 1.400 . S
C1035 C1036 1.398 . S
C1035 C1041 1.491 . S
C1036 H1027 0.950 . S
C1036 C1035 1.398 . S
C1036 C1037 1.391 . S
C1037 H1025 0.950 . S
C1037 C1033 1.393 . S
C1037 C1036 1.391 . S
C1038 H1028 0.950 . S
C1038 C1039 1.386 . S
C1038 C1040 1.391 . S
C1039 C1038 1.386 . S
C1039 C1043 1.393 . S
C1040 H1029 0.950 . S
C1040 C1038 1.391 . S
C1040 C1041 1.400 . S
C1041 C1035 1.491 . S
C1041 C1040 1.400 . S
C1041 C1042 1.398 . S
C1042 H1030 0.950 . S
C1042 C1041 1.398 . S
C1042 C1043 1.391 . S
C1043 H1031 0.950 . S
C1043 C1039 1.393 . S
C1043 C1042 1.391 . S
H1044 C1052 0.950 . S
H1045 C1057 0.950 . S
H1046 C1054 0.950 . S
H1047 C1056 0.950 . S
H1048 C1058 0.950 . S
H1049 C1060 0.950 . S
H1050 C1062 0.950 . S
H1051 C1063 0.950 . S
C1052 H1044 0.950 . S
C1052 C1053 1.386 . S
C1052 C1054 1.391 . S
C1053 C1052 1.386 . S
C1053 C1057 1.393 . S
C1054 H1046 0.950 . S
C1054 C1052 1.391 . S
C1054 C1055 1.400 . S
C1055 C1054 1.400 . S
C1055 C1056 1.398 . S
C1055 C1061 1.491 . S
C1056 H1047 0.950 . S
C1056 C1055 1.398 . S
C1056 C1057 1.391 . S
C1057 H1045 0.950 . S
C1057 C1053 1.393 . S
C1057 C1056 1.391 . S
C1058 H1048 0.950 . S
C1058 C1059 1.386 . S
C1058 C1060 1.391 . S
C1059 C1058 1.386 . S
C1059 C1063 1.393 . S
C1060 H1049 0.950 . S
C1060 C1058 1.391 . S
C1060 C1061 1.400 . S
C1061 C1055 1.491 . S
C1061 C1060 1.400 . S
C1061 C1062 1.398 . S
C1062 H1050 0.950 . S
C1062 C1061 1.398 . S
C1062 C1063 1.391 . S
C1063 H1051 0.950 . S
C1063 C1059 1.393 . S
C1063 C1062 1.391 . S
H1064 C1072 0.950 . S
H1065 C1077 0.950 . S
H1066 C1074 0.950 . S
H1067 C1076 0.950 . S
H1068 C1078 0.950 . S
H1069 C1080 0.950 . S
H1070 C1082 0.950 . S
H1071 C1083 0.950 . S
C1072 H1064 0.950 . S
C1072 C1073 1.386 . S
C1072 C1074 1.391 . S
C1073 C1072 1.386 . S
C1073 C1077 1.393 . S
C1074 H1066 0.950 . S
C1074 C1072 1.391 . S
C1074 C1075 1.400 . S
C1075 C1074 1.400 . S
C1075 C1076 1.398 . S
C1075 C1081 1.491 . S
C1076 H1067 0.950 . S
C1076 C1075 1.398 . S
C1076 C1077 1.391 . S
C1077 H1065 0.950 . S
C1077 C1073 1.393 . S
C1077 C1076 1.391 . S
C1078 H1068 0.950 . S
C1078 C1079 1.386 . S
C1078 C1080 1.391 . S
C1079 C1078 1.386 . S
C1079 C1083 1.393 . S
C1080 H1069 0.950 . S
C1080 C1078 1.391 . S
C1080 C1081 1.400 . S
C1081 C1075 1.491 . S
C1081 C1080 1.400 . S
C1081 C1082 1.398 . S
C1082 H1070 0.950 . S
C1082 C1081 1.398 . S
C1082 C1083 1.391 . S
C1083 H1071 0.950 . S
C1083 C1079 1.393 . S
C1083 C1082 1.391 . S
H1084 C1092 0.950 . S
H1085 C1097 0.950 . S
H1086 C1094 0.950 . S
H1087 C1096 0.950 . S
H1088 C1098 0.950 . S
H1089 C1100 0.950 . S
H1090 C1102 0.950 . S
H1091 C1103 0.950 . S
C1092 H1084 0.950 . S
C1092 C1093 1.386 . S
C1092 C1094 1.391 . S
C1093 C1092 1.386 . S
C1093 C1097 1.393 . S
C1094 H1086 0.950 . S
C1094 C1092 1.391 . S
C1094 C1095 1.400 . S
C1095 C1094 1.400 . S
C1095 C1096 1.398 . S
C1095 C1101 1.491 . S
C1096 H1087 0.950 . S
C1096 C1095 1.398 . S
C1096 C1097 1.391 . S
C1097 H1085 0.950 . S
C1097 C1093 1.393 . S
C1097 C1096 1.391 . S
C1098 H1088 0.950 . S
C1098 C1099 1.386 . S
C1098 C1100 1.391 . S
C1099 C1098 1.386 . S
C1099 C1103 1.393 . S
C1100 H1089 0.950 . S
C1100 C1098 1.391 . S
C1100 C1101 1.400 . S
C1101 C1095 1.491 . S
C1101 C1100 1.400 . S
C1101 C1102 1.398 . S
C1102 H1090 0.950 . S
C1102 C1101 1.398 . S
C1102 C1103 1.391 . S
C1103 H1091 0.950 . S
C1103 C1099 1.393 . S
C1103 C1102 1.391 . S
H1104 C1112 0.950 . S
H1105 C1117 0.950 . S
H1106 C1114 0.950 . S
H1107 C1116 0.950 . S
H1108 C1118 0.950 . S
H1109 C1120 0.950 . S
H1110 C1122 0.950 . S
H1111 C1123 0.950 . S
C1112 H1104 0.950 . S
C1112 C1113 1.386 . S
C1112 C1114 1.391 . S
C1113 C1112 1.386 . S
C1113 C1117 1.393 . S
C1114 H1106 0.950 . S
C1114 C1112 1.391 . S
C1114 C1115 1.400 . S
C1115 C1114 1.400 . S
C1115 C1116 1.398 . S
C1115 C1121 1.491 . S
C1116 H1107 0.950 . S
C1116 C1115 1.398 . S
C1116 C1117 1.391 . S
C1117 H1105 0.950 . S
C1117 C1113 1.393 . S
C1117 C1116 1.391 . S
C1118 H1108 0.950 . S
C1118 C1119 1.386 . S
C1118 C1120 1.391 . S
C1119 C1118 1.386 . S
C1119 C1123 1.393 . S
C1120 H1109 0.950 . S
C1120 C1118 1.391 . S
C1120 C1121 1.400 . S
C1121 C1115 1.491 . S
C1121 C1120 1.400 . S
C1121 C1122 1.398 . S
C1122 H1110 0.950 . S
C1122 C1121 1.398 . S
C1122 C1123 1.391 . S
C1123 H1111 0.950 . S
C1123 C1119 1.393 . S
C1123 C1122 1.391 . S
H1124 C1132 0.950 . S
H1125 C1137 0.950 . S
H1126 C1134 0.950 . S
H1127 C1136 0.950 . S
H1128 C1138 0.950 . S
H1129 C1140 0.950 . S
H1130 C1142 0.950 . S
H1131 C1143 0.950 . S
C1132 H1124 0.950 . S
C1132 C1133 1.386 . S
C1132 C1134 1.391 . S
C1133 C1132 1.386 . S
C1133 C1137 1.393 . S
C1134 H1126 0.950 . S
C1134 C1132 1.391 . S
C1134 C1135 1.400 . S
C1135 C1134 1.400 . S
C1135 C1136 1.398 . S
C1135 C1141 1.491 . S
C1136 H1127 0.950 . S
C1136 C1135 1.398 . S
C1136 C1137 1.391 . S
C1137 H1125 0.950 . S
C1137 C1133 1.393 . S
C1137 C1136 1.391 . S
C1138 H1128 0.950 . S
C1138 C1139 1.386 . S
C1138 C1140 1.391 . S
C1139 C1138 1.386 . S
C1139 C1143 1.393 . S
C1140 H1129 0.950 . S
C1140 C1138 1.391 . S
C1140 C1141 1.400 . S
C1141 C1135 1.491 . S
C1141 C1140 1.400 . S
C1141 C1142 1.398 . S
C1142 H1130 0.950 . S
C1142 C1141 1.398 . S
C1142 C1143 1.391 . S
C1143 H1131 0.950 . S
C1143 C1139 1.393 . S
C1143 C1142 1.391 . S
H1144 C1152 0.950 . S
H1145 C1157 0.950 . S
H1146 C1154 0.950 . S
H1147 C1156 0.950 . S
H1148 C1158 0.950 . S
H1149 C1160 0.950 . S
H1150 C1162 0.950 . S
H1151 C1163 0.950 . S
C1152 H1144 0.950 . S
C1152 C1153 1.386 . S
C1152 C1154 1.391 . S
C1153 C1152 1.386 . S
C1153 C1157 1.393 . S
C1154 H1146 0.950 . S
C1154 C1152 1.391 . S
C1154 C1155 1.400 . S
C1155 C1154 1.400 . S
C1155 C1156 1.398 . S
C1155 C1161 1.491 . S
C1156 H1147 0.950 . S
C1156 C1155 1.398 . S
C1156 C1157 1.391 . S
C1157 H1145 0.950 . S
C1157 C1153 1.393 . S
C1157 C1156 1.391 . S
C1158 H1148 0.950 . S
C1158 C1159 1.386 . S
C1158 C1160 1.391 . S
C1159 C1158 1.386 . S
C1159 C1163 1.393 . S
C1160 H1149 0.950 . S
C1160 C1158 1.391 . S
C1160 C1161 1.400 . S
C1161 C1155 1.491 . S
C1161 C1160 1.400 . S
C1161 C1162 1.398 . S
C1162 H1150 0.950 . S
C1162 C1161 1.398 . S
C1162 C1163 1.391 . S
C1163 H1151 0.950 . S
C1163 C1159 1.393 . S
C1163 C1162 1.391 . S
H1164 C1172 0.950 . S
H1165 C1177 0.950 . S
H1166 C1174 0.950 . S
H1167 C1176 0.950 . S
H1168 C1178 0.950 . S
H1169 C1180 0.950 . S
H1170 C1182 0.950 . S
H1171 C1183 0.950 . S
C1172 H1164 0.950 . S
C1172 C1173 1.386 . S
C1172 C1174 1.391 . S
C1173 C1172 1.386 . S
C1173 C1177 1.393 . S
C1174 H1166 0.950 . S
C1174 C1172 1.391 . S
C1174 C1175 1.400 . S
C1175 C1174 1.400 . S
C1175 C1176 1.398 . S
C1175 C1181 1.491 . S
C1176 H1167 0.950 . S
C1176 C1175 1.398 . S
C1176 C1177 1.391 . S
C1177 H1165 0.950 . S
C1177 C1173 1.393 . S
C1177 C1176 1.391 . S
C1178 H1168 0.950 . S
C1178 C1179 1.386 . S
C1178 C1180 1.391 . S
C1179 C1178 1.386 . S
C1179 C1183 1.393 . S
C1180 H1169 0.950 . S
C1180 C1178 1.391 . S
C1180 C1181 1.400 . S
C1181 C1175 1.491 . S
C1181 C1180 1.400 . S
C1181 C1182 1.398 . S
C1182 H1170 0.950 . S
C1182 C1181 1.398 . S
C1182 C1183 1.391 . S
C1183 H1171 0.950 . S
C1183 C1179 1.393 . S
C1183 C1182 1.391 . S
H1184 C1192 0.950 . S
H1185 C1197 0.950 . S
H1186 C1194 0.950 . S
H1187 C1196 0.950 . S
H1188 C1198 0.950 . S
H1189 C1200 0.950 . S
H1190 C1202 0.950 . S
H1191 C1203 0.950 . S
C1192 H1184 0.950 . S
C1192 C1193 1.386 . S
C1192 C1194 1.391 . S
C1193 C1192 1.386 . S
C1193 C1197 1.393 . S
C1194 H1186 0.950 . S
C1194 C1192 1.391 . S
C1194 C1195 1.400 . S
C1195 C1194 1.400 . S
C1195 C1196 1.398 . S
C1195 C1201 1.491 . S
C1196 H1187 0.950 . S
C1196 C1195 1.398 . S
C1196 C1197 1.391 . S
C1197 H1185 0.950 . S
C1197 C1193 1.393 . S
C1197 C1196 1.391 . S
C1198 H1188 0.950 . S
C1198 C1199 1.386 . S
C1198 C1200 1.391 . S
C1199 C1198 1.386 . S
C1199 C1203 1.393 . S
C1200 H1189 0.950 . S
C1200 C1198 1.391 . S
C1200 C1201 1.400 . S
C1201 C1195 1.491 . S
C1201 C1200 1.400 . S
C1201 C1202 1.398 . S
C1202 H1190 0.950 . S
C1202 C1201 1.398 . S
C1202 C1203 1.391 . S
C1203 H1191 0.950 . S
C1203 C1199 1.393 . S
C1203 C1202 1.391 . S
H1204 C1212 0.950 . S
H1205 C1217 0.950 . S
H1206 C1214 0.950 . S
H1207 C1216 0.950 . S
H1208 C1218 0.950 . S
H1209 C1220 0.950 . S
H1210 C1222 0.950 . S
H1211 C1223 0.950 . S
C1212 H1204 0.950 . S
C1212 C1213 1.386 . S
C1212 C1214 1.391 . S
C1213 C1212 1.386 . S
C1213 C1217 1.393 . S
C1214 H1206 0.950 . S
C1214 C1212 1.391 . S
C1214 C1215 1.400 . S
C1215 C1214 1.400 . S
C1215 C1216 1.398 . S
C1215 C1221 1.491 . S
C1216 H1207 0.950 . S
C1216 C1215 1.398 . S
C1216 C1217 1.391 . S
C1217 H1205 0.950 . S
C1217 C1213 1.393 . S
C1217 C1216 1.391 . S
C1218 H1208 0.950 . S
C1218 C1219 1.386 . S
C1218 C1220 1.391 . S
C1219 C1218 1.386 . S
C1219 C1223 1.393 . S
C1220 H1209 0.950 . S
C1220 C1218 1.391 . S
C1220 C1221 1.400 . S
C1221 C1215 1.491 . S
C1221 C1220 1.400 . S
C1221 C1222 1.398 . S
C1222 H1210 0.950 . S
C1222 C1221 1.398 . S
C1222 C1223 1.391 . S
C1223 H1211 0.950 . S
C1223 C1219 1.393 . S
C1223 C1222 1.391 . S
H1224 C1232 0.950 . S
H1225 C1237 0.950 . S
H1226 C1234 0.950 . S
H1227 C1236 0.950 . S
H1228 C1238 0.950 . S
H1229 C1240 0.950 . S
H1230 C1242 0.950 . S
H1231 C1243 0.950 . S
C1232 H1224 0.950 . S
C1232 C1233 1.386 . S
C1232 C1234 1.391 . S
C1233 C1232 1.386 . S
C1233 C1237 1.393 . S
C1234 H1226 0.950 . S
C1234 C1232 1.391 . S
C1234 C1235 1.400 . S
C1235 C1234 1.400 . S
C1235 C1236 1.398 . S
C1235 C1241 1.491 . S
C1236 H1227 0.950 . S
C1236 C1235 1.398 . S
C1236 C1237 1.391 . S
C1237 H1225 0.950 . S
C1237 C1233 1.393 . S
C1237 C1236 1.391 . S
C1238 H1228 0.950 . S
C1238 C1239 1.386 . S
C1238 C1240 1.391 . S
C1239 C1238 1.386 . S
C1239 C1243 1.393 . S
C1240 H1229 0.950 . S
C1240 C1238 1.391 . S
C1240 C1241 1.400 . S
C1241 C1235 1.491 . S
C1241 C1240 1.400 . S
C1241 C1242 1.398 . S
C1242 H1230 0.950 . S
C1242 C1241 1.398 . S
C1242 C1243 1.391 . S
C1243 H1231 0.950 . S
C1243 C1239 1.393 . S
C1243 C1242 1.391 . S
H1244 C1252 0.950 . S
H1245 C1257 0.950 . S
H1246 C1254 0.950 . S
H1247 C1256 0.950 . S
H1248 C1258 0.950 . S
H1249 C1260 0.950 . S
H1250 C1262 0.950 . S
H1251 C1263 0.950 . S
C1252 H1244 0.950 . S
C1252 C1253 1.386 . S
C1252 C1254 1.391 . S
C1253 C1252 1.386 . S
C1253 C1257 1.393 . S
C1254 H1246 0.950 . S
C1254 C1252 1.391 . S
C1254 C1255 1.400 . S
C1255 C1254 1.400 . S
C1255 C1256 1.398 . S
C1255 C1261 1.491 . S
C1256 H1247 0.950 . S
C1256 C1255 1.398 . S
C1256 C1257 1.391 . S
C1257 H1245 0.950 . S
C1257 C1253 1.393 . S
C1257 C1256 1.391 . S
C1258 H1248 0.950 . S
C1258 C1259 1.386 . S
C1258 C1260 1.391 . S
C1259 C1258 1.386 . S
C1259 C1263 1.393 . S
C1260 H1249 0.950 . S
C1260 C1258 1.391 . S
C1260 C1261 1.400 . S
C1261 C1255 1.491 . S
C1261 C1260 1.400 . S
C1261 C1262 1.398 . S
C1262 H1250 0.950 . S
C1262 C1261 1.398 . S
C1262 C1263 1.391 . S
C1263 H1251 0.950 . S
C1263 C1259 1.393 . S
C1263 C1262 1.391 . S
H1264 C1272 0.950 . S
H1265 C1277 0.950 . S
H1266 C1274 0.950 . S
H1267 C1276 0.950 . S
H1268 C1278 0.950 . S
H1269 C1280 0.950 . S
H1270 C1282 0.950 . S
H1271 C1283 0.950 . S
C1272 H1264 0.950 . S
C1272 C1273 1.386 . S
C1272 C1274 1.391 . S
C1273 C1272 1.386 . S
C1273 C1277 1.393 . S
C1274 H1266 0.950 . S
C1274 C1272 1.391 . S
C1274 C1275 1.400 . S
C1275 C1274 1.400 . S
C1275 C1276 1.398 . S
C1275 C1281 1.491 . S
C1276 H1267 0.950 . S
C1276 C1275 1.398 . S
C1276 C1277 1.391 . S
C1277 H1265 0.950 . S
C1277 C1273 1.393 . S
C1277 C1276 1.391 . S
C1278 H1268 0.950 . S
C1278 C1279 1.386 . S
C1278 C1280 1.391 . S
C1279 C1278 1.386 . S
C1279 C1283 1.393 . S
C1280 H1269 0.950 . S
C1280 C1278 1.391 . S
C1280 C1281 1.400 . S
C1281 C1275 1.491 . S
C1281 C1280 1.400 . S
C1281 C1282 1.398 . S
C1282 H1270 0.950 . S
C1282 C1281 1.398 . S
C1282 C1283 1.391 . S
C1283 H1271 0.950 . S
C1283 C1279 1.393 . S
C1283 C1282 1.391 . S
H1284 C1292 0.950 . S
H1285 C1297 0.950 . S
H1286 C1294 0.950 . S
H1287 C1296 0.950 . S
H1288 C1298 0.950 . S
H1289 C1300 0.950 . S
H1290 C1302 0.950 . S
H1291 C1303 0.950 . S
C1292 H1284 0.950 . S
C1292 C1293 1.386 . S
C1292 C1294 1.391 . S
C1293 C1292 1.386 . S
C1293 C1297 1.393 . S
C1294 H1286 0.950 . S
C1294 C1292 1.391 . S
C1294 C1295 1.400 . S
C1295 C1294 1.400 . S
C1295 C1296 1.398 . S
C1295 C1301 1.491 . S
C1296 H1287 0.950 . S
C1296 C1295 1.398 . S
C1296 C1297 1.391 . S
C1297 H1285 0.950 . S
C1297 C1293 1.393 . S
C1297 C1296 1.391 . S
C1298 H1288 0.950 . S
C1298 C1299 1.386 . S
C1298 C1300 1.391 . S
C1299 C1298 1.386 . S
C1299 C1303 1.393 . S
C1300 H1289 0.950 . S
C1300 C1298 1.391 . S
C1300 C1301 1.400 . S
C1301 C1295 1.491 . S
C1301 C1300 1.400 . S
C1301 C1302 1.398 . S
C1302 H1290 0.950 . S
C1302 C1301 1.398 . S
C1302 C1303 1.391 . S
C1303 H1291 0.950 . S
C1303 C1299 1.393 . S
C1303 C1302 1.391 . S
H1304 C1312 0.950 . S
H1305 C1317 0.950 . S
H1306 C1314 0.950 . S
H1307 C1316 0.950 . S
H1308 C1318 0.950 . S
H1309 C1320 0.950 . S
H1310 C1322 0.950 . S
H1311 C1323 0.950 . S
C1312 H1304 0.950 . S
C1312 C1313 1.386 . S
C1312 C1314 1.391 . S
C1313 C1312 1.386 . S
C1313 C1317 1.393 . S
C1314 H1306 0.950 . S
C1314 C1312 1.391 . S
C1314 C1315 1.400 . S
C1315 C1314 1.400 . S
C1315 C1316 1.398 . S
C1315 C1321 1.491 . S
C1316 H1307 0.950 . S
C1316 C1315 1.398 . S
C1316 C1317 1.391 . S
C1317 H1305 0.950 . S
C1317 C1313 1.393 . S
C1317 C1316 1.391 . S
C1318 H1308 0.950 . S
C1318 C1319 1.386 . S
C1318 C1320 1.391 . S
C1319 C1318 1.386 . S
C1319 C1323 1.393 . S
C1320 H1309 0.950 . S
C1320 C1318 1.391 . S
C1320 C1321 1.400 . S
C1321 C1315 1.491 . S
C1321 C1320 1.400 . S
C1321 C1322 1.398 . S
C1322 H1310 0.950 . S
C1322 C1321 1.398 . S
C1322 C1323 1.391 . S
C1323 H1311 0.950 . S
C1323 C1319 1.393 . S
C1323 C1322 1.391 . S
H1324 C1332 0.950 . S
H1325 C1337 0.950 . S
H1326 C1334 0.950 . S
H1327 C1336 0.950 . S
H1328 C1338 0.950 . S
H1329 C1340 0.950 . S
H1330 C1342 0.950 . S
H1331 C1343 0.950 . S
C1332 H1324 0.950 . S
C1332 C1333 1.386 . S
C1332 C1334 1.391 . S
C1333 C1332 1.386 . S
C1333 C1337 1.393 . S
C1334 H1326 0.950 . S
C1334 C1332 1.391 . S
C1334 C1335 1.400 . S
C1335 C1334 1.400 . S
C1335 C1336 1.398 . S
C1335 C1341 1.491 . S
C1336 H1327 0.950 . S
C1336 C1335 1.398 . S
C1336 C1337 1.391 . S
C1337 H1325 0.950 . S
C1337 C1333 1.393 . S
C1337 C1336 1.391 . S
C1338 H1328 0.950 . S
C1338 C1339 1.386 . S
C1338 C1340 1.391 . S
C1339 C1338 1.386 . S
C1339 C1343 1.393 . S
C1340 H1329 0.950 . S
C1340 C1338 1.391 . S
C1340 C1341 1.400 . S
C1341 C1335 1.491 . S
C1341 C1340 1.400 . S
C1341 C1342 1.398 . S
C1342 H1330 0.950 . S
C1342 C1341 1.398 . S
C1342 C1343 1.391 . S
C1343 H1331 0.950 . S
C1343 C1339 1.393 . S
C1343 C1342 1.391 . S
H1344 C1352 0.950 . S
H1345 C1357 0.950 . S
H1346 C1354 0.950 . S
H1347 C1356 0.950 . S
H1348 C1358 0.950 . S
H1349 C1360 0.950 . S
H1350 C1362 0.950 . S
H1351 C1363 0.950 . S
C1352 H1344 0.950 . S
C1352 C1353 1.386 . S
C1352 C1354 1.391 . S
C1353 C1352 1.386 . S
C1353 C1357 1.393 . S
C1354 H1346 0.950 . S
C1354 C1352 1.391 . S
C1354 C1355 1.400 . S
C1355 C1354 1.400 . S
C1355 C1356 1.398 . S
C1355 C1361 1.491 . S
C1356 H1347 0.950 . S
C1356 C1355 1.398 . S
C1356 C1357 1.391 . S
C1357 H1345 0.950 . S
C1357 C1353 1.393 . S
C1357 C1356 1.391 . S
C1358 H1348 0.950 . S
C1358 C1359 1.386 . S
C1358 C1360 1.391 . S
C1359 C1358 1.386 . S
C1359 C1363 1.393 . S
C1360 H1349 0.950 . S
C1360 C1358 1.391 . S
C1360 C1361 1.400 . S
C1361 C1355 1.491 . S
C1361 C1360 1.400 . S
C1361 C1362 1.398 . S
C1362 H1350 0.950 . S
C1362 C1361 1.398 . S
C1362 C1363 1.391 . S
C1363 H1351 0.950 . S
C1363 C1359 1.393 . S
C1363 C1362 1.391 . S
H1364 C1372 0.950 . S
H1365 C1377 0.950 . S
H1366 C1374 0.950 . S
H1367 C1376 0.950 . S
H1368 C1378 0.950 . S
H1369 C1380 0.950 . S
H1370 C1382 0.950 . S
H1371 C1383 0.950 . S
C1372 H1364 0.950 . S
C1372 C1373 1.386 . S
C1372 C1374 1.391 . S
C1373 C1372 1.386 . S
C1373 C1377 1.393 . S
C1374 H1366 0.950 . S
C1374 C1372 1.391 . S
C1374 C1375 1.400 . S
C1375 C1374 1.400 . S
C1375 C1376 1.398 . S
C1375 C1381 1.491 . S
C1376 H1367 0.950 . S
C1376 C1375 1.398 . S
C1376 C1377 1.391 . S
C1377 H1365 0.950 . S
C1377 C1373 1.393 . S
C1377 C1376 1.391 . S
C1378 H1368 0.950 . S
C1378 C1379 1.386 . S
C1378 C1380 1.391 . S
C1379 C1378 1.386 . S
C1379 C1383 1.393 . S
C1380 H1369 0.950 . S
C1380 C1378 1.391 . S
C1380 C1381 1.400 . S
C1381 C1375 1.491 . S
C1381 C1380 1.400 . S
C1381 C1382 1.398 . S
C1382 H1370 0.950 . S
C1382 C1381 1.398 . S
C1382 C1383 1.391 . S
C1383 H1371 0.950 . S
C1383 C1379 1.393 . S
C1383 C1382 1.391 . S
H1384 C1392 0.950 . S
H1385 C1397 0.950 . S
H1386 C1394 0.950 . S
H1387 C1396 0.950 . S
H1388 C1398 0.950 . S
H1389 C1400 0.950 . S
H1390 C1402 0.950 . S
H1391 C1403 0.950 . S
C1392 H1384 0.950 . S
C1392 C1393 1.386 . S
C1392 C1394 1.391 . S
C1393 C1392 1.386 . S
C1393 C1397 1.393 . S
C1394 H1386 0.950 . S
C1394 C1392 1.391 . S
C1394 C1395 1.400 . S
C1395 C1394 1.400 . S
C1395 C1396 1.398 . S
C1395 C1401 1.491 . S
C1396 H1387 0.950 . S
C1396 C1395 1.398 . S
C1396 C1397 1.391 . S
C1397 H1385 0.950 . S
C1397 C1393 1.393 . S
C1397 C1396 1.391 . S
C1398 H1388 0.950 . S
C1398 C1399 1.386 . S
C1398 C1400 1.391 . S
C1399 C1398 1.386 . S
C1399 C1403 1.393 . S
C1400 H1389 0.950 . S
C1400 C1398 1.391 . S
C1400 C1401 1.400 . S
C1401 C1395 1.491 . S
C1401 C1400 1.400 . S
C1401 C1402 1.398 . S
C1402 H1390 0.950 . S
C1402 C1401 1.398 . S
C1402 C1403 1.391 . S
C1403 H1391 0.950 . S
C1403 C1399 1.393 . S
C1403 C1402 1.391 . S
H1404 C1412 0.950 . S
H1405 C1417 0.950 . S
H1406 C1414 0.950 . S
H1407 C1416 0.950 . S
H1408 C1418 0.950 . S
H1409 C1420 0.950 . S
H1410 C1422 0.950 . S
H1411 C1423 0.950 . S
C1412 H1404 0.950 . S
C1412 C1413 1.386 . S
C1412 C1414 1.391 . S
C1413 C1412 1.386 . S
C1413 C1417 1.393 . S
C1414 H1406 0.950 . S
C1414 C1412 1.391 . S
C1414 C1415 1.400 . S
C1415 C1414 1.400 . S
C1415 C1416 1.398 . S
C1415 C1421 1.491 . S
C1416 H1407 0.950 . S
C1416 C1415 1.398 . S
C1416 C1417 1.391 . S
C1417 H1405 0.950 . S
C1417 C1413 1.393 . S
C1417 C1416 1.391 . S
C1418 H1408 0.950 . S
C1418 C1419 1.386 . S
C1418 C1420 1.391 . S
C1419 C1418 1.386 . S
C1419 C1423 1.393 . S
C1420 H1409 0.950 . S
C1420 C1418 1.391 . S
C1420 C1421 1.400 . S
C1421 C1415 1.491 . S
C1421 C1420 1.400 . S
C1421 C1422 1.398 . S
C1422 H1410 0.950 . S
C1422 C1421 1.398 . S
C1422 C1423 1.391 . S
C1423 H1411 0.950 . S
C1423 C1419 1.393 . S
C1423 C1422 1.391 . S
H1424 C1432 0.950 . S
H1425 C1437 0.950 . S
H1426 C1434 0.950 . S
H1427 C1436 0.950 . S
H1428 C1438 0.950 . S
H1429 C1440 0.950 . S
H1430 C1442 0.950 . S
H1431 C1443 0.950 . S
C1432 H1424 0.950 . S
C1432 C1433 1.386 . S
C1432 C1434 1.391 . S
C1433 C1432 1.386 . S
C1433 C1437 1.393 . S
C1434 H1426 0.950 . S
C1434 C1432 1.391 . S
C1434 C1435 1.400 . S
C1435 C1434 1.400 . S
C1435 C1436 1.398 . S
C1435 C1441 1.491 . S
C1436 H1427 0.950 . S
C1436 C1435 1.398 . S
C1436 C1437 1.391 . S
C1437 H1425 0.950 . S
C1437 C1433 1.393 . S
C1437 C1436 1.391 . S
C1438 H1428 0.950 . S
C1438 C1439 1.386 . S
C1438 C1440 1.391 . S
C1439 C1438 1.386 . S
C1439 C1443 1.393 . S
C1440 H1429 0.950 . S
C1440 C1438 1.391 . S
C1440 C1441 1.400 . S
C1441 C1435 1.491 . S
C1441 C1440 1.400 . S
C1441 C1442 1.398 . S
C1442 H1430 0.950 . S
C1442 C1441 1.398 . S
C1442 C1443 1.391 . S
C1443 H1431 0.950 . S
C1443 C1439 1.393 . S
C1443 C1442 1.391 . S
H1444 C1452 0.950 . S
H1445 C1457 0.950 . S
H1446 C1454 0.950 . S
H1447 C1456 0.950 . S
H1448 C1458 0.950 . S
H1449 C1460 0.950 . S
H1450 C1462 0.950 . S
H1451 C1463 0.950 . S
C1452 H1444 0.950 . S
C1452 C1453 1.386 . S
C1452 C1454 1.391 . S
C1453 C1452 1.386 . S
C1453 C1457 1.393 . S
C1454 H1446 0.950 . S
C1454 C1452 1.391 . S
C1454 C1455 1.400 . S
C1455 C1454 1.400 . S
C1455 C1456 1.398 . S
C1455 C1461 1.491 . S
C1456 H1447 0.950 . S
C1456 C1455 1.398 . S
C1456 C1457 1.391 . S
C1457 H1445 0.950 . S
C1457 C1453 1.393 . S
C1457 C1456 1.391 . S
C1458 H1448 0.950 . S
C1458 C1459 1.386 . S
C1458 C1460 1.391 . S
C1459 C1458 1.386 . S
C1459 C1463 1.393 . S
C1460 H1449 0.950 . S
C1460 C1458 1.391 . S
C1460 C1461 1.400 . S
C1461 C1455 1.491 . S
C1461 C1460 1.400 . S
C1461 C1462 1.398 . S
C1462 H1450 0.950 . S
C1462 C1461 1.398 . S
C1462 C1463 1.391 . S
C1463 H1451 0.950 . S
C1463 C1459 1.393 . S
C1463 C1462 1.391 . S
H1464 C1472 0.950 . S
H1465 C1477 0.950 . S
H1466 C1474 0.950 . S
H1467 C1476 0.950 . S
H1468 C1478 0.950 . S
H1469 C1480 0.950 . S
H1470 C1482 0.950 . S
H1471 C1483 0.950 . S
C1472 H1464 0.950 . S
C1472 C1473 1.386 . S
C1472 C1474 1.391 . S
C1473 C1472 1.386 . S
C1473 C1477 1.393 . S
C1474 H1466 0.950 . S
C1474 C1472 1.391 . S
C1474 C1475 1.400 . S
C1475 C1474 1.400 . S
C1475 C1476 1.398 . S
C1475 C1481 1.491 1_455 S
C1476 H1467 0.950 . S
C1476 C1475 1.398 . S
C1476 C1477 1.391 . S
C1477 H1465 0.950 . S
C1477 C1473 1.393 . S
C1477 C1476 1.391 . S
C1478 H1468 0.950 . S
C1478 C1479 1.386 . S
C1478 C1480 1.391 . S
C1479 C1478 1.386 . S
C1479 C1483 1.393 . S
C1480 H1469 0.950 . S
C1480 C1478 1.391 . S
C1480 C1481 1.400 . S
C1481 C1475 1.491 1_655 S
C1481 C1480 1.400 . S
C1481 C1482 1.398 . S
C1482 H1470 0.950 . S
C1482 C1481 1.398 . S
C1482 C1483 1.391 . S
C1483 H1471 0.950 . S
C1483 C1479 1.393 . S
C1483 C1482 1.391 . S
H1484 C1492 0.950 . S
H1485 C1497 0.950 . S
H1486 C1494 0.950 . S
H1487 C1496 0.950 . S
H1488 C1498 0.950 . S
H1489 C1500 0.950 . S
H1490 C1502 0.950 . S
H1491 C1503 0.950 . S
C1492 H1484 0.950 . S
C1492 C1493 1.386 . S
C1492 C1494 1.391 . S
C1493 C1492 1.386 . S
C1493 C1497 1.393 . S
C1494 H1486 0.950 . S
C1494 C1492 1.391 . S
C1494 C1495 1.400 . S
C1495 C1494 1.400 . S
C1495 C1496 1.398 . S
C1495 C1501 1.491 . S
C1496 H1487 0.950 . S
C1496 C1495 1.398 . S
C1496 C1497 1.391 . S
C1497 H1485 0.950 . S
C1497 C1493 1.393 . S
C1497 C1496 1.391 . S
C1498 H1488 0.950 . S
C1498 C1499 1.386 . S
C1498 C1500 1.391 . S
C1499 C1498 1.386 . S
C1499 C1503 1.393 . S
C1500 H1489 0.950 . S
C1500 C1498 1.391 . S
C1500 C1501 1.400 . S
C1501 C1495 1.491 . S
C1501 C1500 1.400 . S
C1501 C1502 1.398 . S
C1502 H1490 0.950 . S
C1502 C1501 1.398 . S
C1502 C1503 1.391 . S
C1503 H1491 0.950 . S
C1503 C1499 1.393 . S
C1503 C1502 1.391 . S
H1504 C1512 0.950 . S
H1505 C1517 0.950 . S
H1506 C1514 0.950 . S
H1507 C1516 0.950 . S
H1508 C1518 0.950 . S
H1509 C1520 0.950 . S
H1510 C1522 0.950 . S
H1511 C1523 0.950 . S
C1512 H1504 0.950 . S
C1512 C1513 1.386 . S
C1512 C1514 1.391 . S
C1513 C1512 1.386 . S
C1513 C1517 1.393 . S
C1514 H1506 0.950 . S
C1514 C1512 1.391 . S
C1514 C1515 1.400 . S
C1515 C1514 1.400 . S
C1515 C1516 1.398 . S
C1515 C1521 1.491 1_545 S
C1516 H1507 0.950 . S
C1516 C1515 1.398 . S
C1516 C1517 1.391 . S
C1517 H1505 0.950 . S
C1517 C1513 1.393 . S
C1517 C1516 1.391 . S
C1518 H1508 0.950 . S
C1518 C1519 1.386 . S
C1518 C1520 1.391 . S
C1519 C1518 1.386 . S
C1519 C1523 1.393 . S
C1520 H1509 0.950 . S
C1520 C1518 1.391 . S
C1520 C1521 1.400 . S
C1521 C1515 1.491 1_565 S
C1521 C1520 1.400 . S
C1521 C1522 1.398 . S
C1522 H1510 0.950 . S
C1522 C1521 1.398 . S
C1522 C1523 1.391 . S
C1523 H1511 0.950 . S
C1523 C1519 1.393 . S
C1523 C1522 1.391 . S
H1524 C1532 0.950 . S
H1525 C1537 0.950 . S
H1526 C1534 0.950 . S
H1527 C1536 0.950 . S
H1528 C1538 0.950 . S
H1529 C1540 0.950 . S
H1530 C1542 0.950 . S
H1531 C1543 0.950 . S
C1532 H1524 0.950 . S
C1532 C1533 1.386 . S
C1532 C1534 1.391 . S
C1533 C1532 1.386 . S
C1533 C1537 1.393 . S
C1534 H1526 0.950 . S
C1534 C1532 1.391 . S
C1534 C1535 1.400 . S
C1535 C1534 1.400 . S
C1535 C1536 1.398 . S
C1535 C1541 1.491 1_545 S
C1536 H1527 0.950 . S
C1536 C1535 1.398 . S
C1536 C1537 1.391 . S
C1537 H1525 0.950 . S
C1537 C1533 1.393 . S
C1537 C1536 1.391 . S
C1538 H1528 0.950 . S
C1538 C1539 1.386 . S
C1538 C1540 1.391 . S
C1539 C1538 1.386 . S
C1539 C1543 1.393 . S
C1540 H1529 0.950 . S
C1540 C1538 1.391 . S
C1540 C1541 1.400 . S
C1541 C1535 1.491 1_565 S
C1541 C1540 1.400 . S
C1541 C1542 1.398 . S
C1542 H1530 0.950 . S
C1542 C1541 1.398 . S
C1542 C1543 1.391 . S
C1543 H1531 0.950 . S
C1543 C1539 1.393 . S
C1543 C1542 1.391 . S
H1544 C1552 0.950 . S
H1545 C1557 0.950 . S
H1546 C1554 0.950 . S
H1547 C1556 0.950 . S
H1548 C1558 0.950 . S
H1549 C1560 0.950 . S
H1550 C1562 0.950 . S
H1551 C1563 0.950 . S
C1552 H1544 0.950 . S
C1552 C1553 1.386 . S
C1552 C1554 1.391 . S
C1553 C1552 1.386 . S
C1553 C1557 1.393 . S
C1554 H1546 0.950 . S
C1554 C1552 1.391 . S
C1554 C1555 1.400 . S
C1555 C1554 1.400 . S
C1555 C1556 1.398 . S
C1555 C1561 1.491 1_655 S
C1556 H1547 0.950 . S
C1556 C1555 1.398 . S
C1556 C1557 1.391 . S
C1557 H1545 0.950 . S
C1557 C1553 1.393 . S
C1557 C1556 1.391 . S
C1558 H1548 0.950 . S
C1558 C1559 1.386 . S
C1558 C1560 1.391 . S
C1559 C1558 1.386 . S
C1559 C1563 1.393 . S
C1560 H1549 0.950 . S
C1560 C1558 1.391 . S
C1560 C1561 1.400 . S
C1561 C1555 1.491 1_455 S
C1561 C1560 1.400 . S
C1561 C1562 1.398 . S
C1562 H1550 0.950 . S
C1562 C1561 1.398 . S
C1562 C1563 1.391 . S
C1563 H1551 0.950 . S
C1563 C1559 1.393 . S
C1563 C1562 1.391 . S
H1564 C1572 0.950 . S
H1565 C1577 0.950 . S
H1566 C1574 0.950 . S
H1567 C1576 0.950 . S
H1568 C1578 0.950 . S
H1569 C1580 0.950 . S
H1570 C1582 0.950 . S
H1571 C1583 0.950 . S
C1572 H1564 0.950 . S
C1572 C1573 1.386 . S
C1572 C1574 1.391 . S
C1573 C1572 1.386 . S
C1573 C1577 1.393 . S
C1574 H1566 0.950 . S
C1574 C1572 1.391 . S
C1574 C1575 1.400 . S
C1575 C1574 1.400 . S
C1575 C1576 1.398 . S
C1575 C1581 1.491 . S
C1576 H1567 0.950 . S
C1576 C1575 1.398 . S
C1576 C1577 1.391 . S
C1577 H1565 0.950 . S
C1577 C1573 1.393 . S
C1577 C1576 1.391 . S
C1578 H1568 0.950 . S
C1578 C1579 1.386 . S
C1578 C1580 1.391 . S
C1579 C1578 1.386 . S
C1579 C1583 1.393 . S
C1580 H1569 0.950 . S
C1580 C1578 1.391 . S
C1580 C1581 1.400 . S
C1581 C1575 1.491 . S
C1581 C1580 1.400 . S
C1581 C1582 1.398 . S
C1582 H1570 0.950 . S
C1582 C1581 1.398 . S
C1582 C1583 1.391 . S
C1583 H1571 0.950 . S
C1583 C1579 1.393 . S
C1583 C1582 1.391 . S
H1584 C1592 0.950 . S
H1585 C1597 0.950 . S
H1586 C1594 0.950 . S
H1587 C1596 0.950 . S
H1588 C1598 0.950 . S
H1589 C1600 0.950 . S
H1590 C1602 0.950 . S
H1591 C1603 0.950 . S
C1592 H1584 0.950 . S
C1592 C1593 1.386 . S
C1592 C1594 1.391 . S
C1593 C1592 1.386 . S
C1593 C1597 1.393 . S
C1594 H1586 0.950 . S
C1594 C1592 1.391 . S
C1594 C1595 1.400 . S
C1595 C1594 1.400 . S
C1595 C1596 1.398 . S
C1595 C1601 1.491 . S
C1596 H1587 0.950 . S
C1596 C1595 1.398 . S
C1596 C1597 1.391 . S
C1597 H1585 0.950 . S
C1597 C1593 1.393 . S
C1597 C1596 1.391 . S
C1598 H1588 0.950 . S
C1598 C1599 1.386 . S
C1598 C1600 1.391 . S
C1599 C1598 1.386 . S
C1599 C1603 1.393 . S
C1600 H1589 0.950 . S
C1600 C1598 1.391 . S
C1600 C1601 1.400 . S
C1601 C1595 1.491 . S
C1601 C1600 1.400 . S
C1601 C1602 1.398 . S
C1602 H1590 0.950 . S
C1602 C1601 1.398 . S
C1602 C1603 1.391 . S
C1603 H1591 0.950 . S
C1603 C1599 1.393 . S
C1603 C1602 1.391 . S
H1604 C1612 0.950 . S
H1605 C1617 0.950 . S
H1606 C1614 0.950 . S
H1607 C1616 0.950 . S
H1608 C1618 0.950 . S
H1609 C1620 0.950 . S
H1610 C1622 0.950 . S
H1611 C1623 0.950 . S
C1612 H1604 0.950 . S
C1612 C1613 1.386 . S
C1612 C1614 1.391 . S
C1613 C1612 1.386 . S
C1613 C1617 1.393 . S
C1614 H1606 0.950 . S
C1614 C1612 1.391 . S
C1614 C1615 1.400 . S
C1615 C1614 1.400 . S
C1615 C1616 1.398 . S
C1615 C1621 1.491 . S
C1616 H1607 0.950 . S
C1616 C1615 1.398 . S
C1616 C1617 1.391 . S
C1617 H1605 0.950 . S
C1617 C1613 1.393 . S
C1617 C1616 1.391 . S
C1618 H1608 0.950 . S
C1618 C1619 1.386 . S
C1618 C1620 1.391 . S
C1619 C1618 1.386 . S
C1619 C1623 1.393 . S
C1620 H1609 0.950 . S
C1620 C1618 1.391 . S
C1620 C1621 1.400 . S
C1621 C1615 1.491 . S
C1621 C1620 1.400 . S
C1621 C1622 1.398 . S
C1622 H1610 0.950 . S
C1622 C1621 1.398 . S
C1622 C1623 1.391 . S
C1623 H1611 0.950 . S
C1623 C1619 1.393 . S
C1623 C1622 1.391 . S
H1624 C1632 0.950 . S
H1625 C1637 0.950 . S
H1626 C1634 0.950 . S
H1627 C1636 0.950 . S
H1628 C1638 0.950 . S
H1629 C1640 0.950 . S
H1630 C1642 0.950 . S
H1631 C1643 0.950 . S
C1632 H1624 0.950 . S
C1632 C1633 1.386 . S
C1632 C1634 1.391 . S
C1633 C1632 1.386 . S
C1633 C1637 1.393 . S
C1634 H1626 0.950 . S
C1634 C1632 1.391 . S
C1634 C1635 1.400 . S
C1635 C1634 1.400 . S
C1635 C1636 1.398 . S
C1635 C1641 1.491 . S
C1636 H1627 0.950 . S
C1636 C1635 1.398 . S
C1636 C1637 1.391 . S
C1637 H1625 0.950 . S
C1637 C1633 1.393 . S
C1637 C1636 1.391 . S
C1638 H1628 0.950 . S
C1638 C1639 1.386 . S
C1638 C1640 1.391 . S
C1639 C1638 1.386 . S
C1639 C1643 1.393 . S
C1640 H1629 0.950 . S
C1640 C1638 1.391 . S
C1640 C1641 1.400 . S
C1641 C1635 1.491 . S
C1641 C1640 1.400 . S
C1641 C1642 1.398 . S
C1642 H1630 0.950 . S
C1642 C1641 1.398 . S
C1642 C1643 1.391 . S
C1643 H1631 0.950 . S
C1643 C1639 1.393 . S
C1643 C1642 1.391 . S
H1644 C1652 0.950 . S
H1645 C1657 0.950 . S
H1646 C1654 0.950 . S
H1647 C1656 0.950 . S
H1648 C1658 0.950 . S
H1649 C1660 0.950 . S
H1650 C1662 0.950 . S
H1651 C1663 0.950 . S
C1652 H1644 0.950 . S
C1652 C1653 1.386 . S
C1652 C1654 1.391 . S
C1653 C1652 1.386 . S
C1653 C1657 1.393 . S
C1654 H1646 0.950 . S
C1654 C1652 1.391 . S
C1654 C1655 1.400 . S
C1655 C1654 1.400 . S
C1655 C1656 1.398 . S
C1655 C1661 1.491 . S
C1656 H1647 0.950 . S
C1656 C1655 1.398 . S
C1656 C1657 1.391 . S
C1657 H1645 0.950 . S
C1657 C1653 1.393 . S
C1657 C1656 1.391 . S
C1658 H1648 0.950 . S
C1658 C1659 1.386 . S
C1658 C1660 1.391 . S
C1659 C1658 1.386 . S
C1659 C1663 1.393 . S
C1660 H1649 0.950 . S
C1660 C1658 1.391 . S
C1660 C1661 1.400 . S
C1661 C1655 1.491 . S
C1661 C1660 1.400 . S
C1661 C1662 1.398 . S
C1662 H1650 0.950 . S
C1662 C1661 1.398 . S
C1662 C1663 1.391 . S
C1663 H1651 0.950 . S
C1663 C1659 1.393 . S
C1663 C1662 1.391 . S
H1664 C1672 0.950 . S
H1665 C1677 0.950 . S
H1666 C1674 0.950 . S
H1667 C1676 0.950 . S
H1668 C1678 0.950 . S
H1669 C1680 0.950 . S
H1670 C1682 0.950 . S
H1671 C1683 0.950 . S
C1672 H1664 0.950 . S
C1672 C1673 1.386 . S
C1672 C1674 1.391 . S
C1673 C1672 1.386 . S
C1673 C1677 1.393 . S
C1674 H1666 0.950 . S
C1674 C1672 1.391 . S
C1674 C1675 1.400 . S
C1675 C1674 1.400 . S
C1675 C1676 1.398 . S
C1675 C1681 1.491 . S
C1676 H1667 0.950 . S
C1676 C1675 1.398 . S
C1676 C1677 1.391 . S
C1677 H1665 0.950 . S
C1677 C1673 1.393 . S
C1677 C1676 1.391 . S
C1678 H1668 0.950 . S
C1678 C1679 1.386 . S
C1678 C1680 1.391 . S
C1679 C1678 1.386 . S
C1679 C1683 1.393 . S
C1680 H1669 0.950 . S
C1680 C1678 1.391 . S
C1680 C1681 1.400 . S
C1681 C1675 1.491 . S
C1681 C1680 1.400 . S
C1681 C1682 1.398 . S
C1682 H1670 0.950 . S
C1682 C1681 1.398 . S
C1682 C1683 1.391 . S
C1683 H1671 0.950 . S
C1683 C1679 1.393 . S
C1683 C1682 1.391 . S
H1684 C1692 0.950 . S
H1685 C1697 0.950 . S
H1686 C1694 0.950 . S
H1687 C1696 0.950 . S
H1688 C1698 0.950 . S
H1689 C1700 0.950 . S
H1690 C1702 0.950 . S
H1691 C1703 0.950 . S
C1692 H1684 0.950 . S
C1692 C1693 1.386 . S
C1692 C1694 1.391 . S
C1693 C1692 1.386 . S
C1693 C1697 1.393 . S
C1694 H1686 0.950 . S
C1694 C1692 1.391 . S
C1694 C1695 1.400 . S
C1695 C1694 1.400 . S
C1695 C1696 1.398 . S
C1695 C1701 1.491 . S
C1696 H1687 0.950 . S
C1696 C1695 1.398 . S
C1696 C1697 1.391 . S
C1697 H1685 0.950 . S
C1697 C1693 1.393 . S
C1697 C1696 1.391 . S
C1698 H1688 0.950 . S
C1698 C1699 1.386 . S
C1698 C1700 1.391 . S
C1699 C1698 1.386 . S
C1699 C1703 1.393 . S
C1700 H1689 0.950 . S
C1700 C1698 1.391 . S
C1700 C1701 1.400 . S
C1701 C1695 1.491 . S
C1701 C1700 1.400 . S
C1701 C1702 1.398 . S
C1702 H1690 0.950 . S
C1702 C1701 1.398 . S
C1702 C1703 1.391 . S
C1703 H1691 0.950 . S
C1703 C1699 1.393 . S
C1703 C1702 1.391 . S
H1704 C1712 0.950 . S
H1705 C1717 0.950 . S
H1706 C1714 0.950 . S
H1707 C1716 0.950 . S
H1708 C1718 0.950 . S
H1709 C1720 0.950 . S
H1710 C1722 0.950 . S
H1711 C1723 0.950 . S
C1712 H1704 0.950 . S
C1712 C1713 1.386 . S
C1712 C1714 1.391 . S
C1713 C1712 1.386 . S
C1713 C1717 1.393 . S
C1714 H1706 0.950 . S
C1714 C1712 1.391 . S
C1714 C1715 1.400 . S
C1715 C1714 1.400 . S
C1715 C1716 1.398 . S
C1715 C1721 1.491 . S
C1716 H1707 0.950 . S
C1716 C1715 1.398 . S
C1716 C1717 1.391 . S
C1717 H1705 0.950 . S
C1717 C1713 1.393 . S
C1717 C1716 1.391 . S
C1718 H1708 0.950 . S
C1718 C1719 1.386 . S
C1718 C1720 1.391 . S
C1719 C1718 1.386 . S
C1719 C1723 1.393 . S
C1720 H1709 0.950 . S
C1720 C1718 1.391 . S
C1720 C1721 1.400 . S
C1721 C1715 1.491 . S
C1721 C1720 1.400 . S
C1721 C1722 1.398 . S
C1722 H1710 0.950 . S
C1722 C1721 1.398 . S
C1722 C1723 1.391 . S
C1723 H1711 0.950 . S
C1723 C1719 1.393 . S
C1723 C1722 1.391 . S
H1724 C1732 0.950 . S
H1725 C1737 0.950 . S
H1726 C1734 0.950 . S
H1727 C1736 0.950 . S
H1728 C1738 0.950 . S
H1729 C1740 0.950 . S
H1730 C1742 0.950 . S
H1731 C1743 0.950 . S
C1732 H1724 0.950 . S
C1732 C1733 1.386 . S
C1732 C1734 1.391 . S
C1733 C1732 1.386 . S
C1733 C1737 1.393 . S
C1734 H1726 0.950 . S
C1734 C1732 1.391 . S
C1734 C1735 1.400 . S
C1735 C1734 1.400 . S
C1735 C1736 1.398 . S
C1735 C1741 1.491 . S
C1736 H1727 0.950 . S
C1736 C1735 1.398 . S
C1736 C1737 1.391 . S
C1737 H1725 0.950 . S
C1737 C1733 1.393 . S
C1737 C1736 1.391 . S
C1738 H1728 0.950 . S
C1738 C1739 1.386 . S
C1738 C1740 1.391 . S
C1739 C1738 1.386 . S
C1739 C1743 1.393 . S
C1740 H1729 0.950 . S
C1740 C1738 1.391 . S
C1740 C1741 1.400 . S
C1741 C1735 1.491 . S
C1741 C1740 1.400 . S
C1741 C1742 1.398 . S
C1742 H1730 0.950 . S
C1742 C1741 1.398 . S
C1742 C1743 1.391 . S
C1743 H1731 0.950 . S
C1743 C1739 1.393 . S
C1743 C1742 1.391 . S
H1744 C1752 0.950 . S
H1745 C1757 0.950 . S
H1746 C1754 0.950 . S
H1747 C1756 0.950 . S
H1748 C1758 0.950 . S
H1749 C1760 0.950 . S
H1750 C1762 0.950 . S
H1751 C1763 0.950 . S
C1752 H1744 0.950 . S
C1752 C1753 1.386 . S
C1752 C1754 1.391 . S
C1753 C1752 1.386 . S
C1753 C1757 1.393 . S
C1754 H1746 0.950 . S
C1754 C1752 1.391 . S
C1754 C1755 1.400 . S
C1755 C1754 1.400 . S
C1755 C1756 1.398 . S
C1755 C1761 1.491 . S
C1756 H1747 0.950 . S
C1756 C1755 1.398 . S
C1756 C1757 1.391 . S
C1757 H1745 0.950 . S
C1757 C1753 1.393 . S
C1757 C1756 1.391 . S
C1758 H1748 0.950 . S
C1758 C1759 1.386 . S
C1758 C1760 1.391 . S
C1759 C1758 1.386 . S
C1759 C1763 1.393 . S
C1760 H1749 0.950 . S
C1760 C1758 1.391 . S
C1760 C1761 1.400 . S
C1761 C1755 1.491 . S
C1761 C1760 1.400 . S
C1761 C1762 1.398 . S
C1762 H1750 0.950 . S
C1762 C1761 1.398 . S
C1762 C1763 1.391 . S
C1763 H1751 0.950 . S
C1763 C1759 1.393 . S
C1763 C1762 1.391 . S
H1764 C1772 0.950 . S
H1765 C1777 0.950 . S
H1766 C1774 0.950 . S
H1767 C1776 0.950 . S
H1768 C1778 0.950 . S
H1769 C1780 0.950 . S
H1770 C1782 0.950 . S
H1771 C1783 0.950 . S
C1772 H1764 0.950 . S
C1772 C1773 1.386 . S
C1772 C1774 1.391 . S
C1773 C1772 1.386 . S
C1773 C1777 1.393 . S
C1774 H1766 0.950 . S
C1774 C1772 1.391 . S
C1774 C1775 1.400 . S
C1775 C1774 1.400 . S
C1775 C1776 1.398 . S
C1775 C1781 1.491 . S
C1776 H1767 0.950 . S
C1776 C1775 1.398 . S
C1776 C1777 1.391 . S
C1777 H1765 0.950 . S
C1777 C1773 1.393 . S
C1777 C1776 1.391 . S
C1778 H1768 0.950 . S
C1778 C1779 1.386 . S
C1778 C1780 1.391 . S
C1779 C1778 1.386 . S
C1779 C1783 1.393 . S
C1780 H1769 0.950 . S
C1780 C1778 1.391 . S
C1780 C1781 1.400 . S
C1781 C1775 1.491 . S
C1781 C1780 1.400 . S
C1781 C1782 1.398 . S
C1782 H1770 0.950 . S
C1782 C1781 1.398 . S
C1782 C1783 1.391 . S
C1783 H1771 0.950 . S
C1783 C1779 1.393 . S
C1783 C1782 1.391 . S
H1784 C1792 0.950 . S
H1785 C1797 0.950 . S
H1786 C1794 0.950 . S
H1787 C1796 0.950 . S
H1788 C1798 0.950 . S
H1789 C1800 0.950 . S
H1790 C1802 0.950 . S
H1791 C1803 0.950 . S
C1792 H1784 0.950 . S
C1792 C1793 1.386 . S
C1792 C1794 1.391 . S
C1793 C1792 1.386 . S
C1793 C1797 1.393 . S
C1794 H1786 0.950 . S
C1794 C1792 1.391 . S
C1794 C1795 1.400 . S
C1795 C1794 1.400 . S
C1795 C1796 1.398 . S
C1795 C1801 1.491 . S
C1796 H1787 0.950 . S
C1796 C1795 1.398 . S
C1796 C1797 1.391 . S
C1797 H1785 0.950 . S
C1797 C1793 1.393 . S
C1797 C1796 1.391 . S
C1798 H1788 0.950 . S
C1798 C1799 1.386 . S
C1798 C1800 1.391 . S
C1799 C1798 1.386 . S
C1799 C1803 1.393 . S
C1800 H1789 0.950 . S
C1800 C1798 1.391 . S
C1800 C1801 1.400 . S
C1801 C1795 1.491 . S
C1801 C1800 1.400 . S
C1801 C1802 1.398 . S
C1802 H1790 0.950 . S
C1802 C1801 1.398 . S
C1802 C1803 1.391 . S
C1803 H1791 0.950 . S
C1803 C1799 1.393 . S
C1803 C1802 1.391 . S
H1804 C1812 0.950 . S
H1805 C1817 0.950 . S
H1806 C1814 0.950 . S
H1807 C1816 0.950 . S
H1808 C1818 0.950 . S
H1809 C1820 0.950 . S
H1810 C1822 0.950 . S
H1811 C1823 0.950 . S
C1812 H1804 0.950 . S
C1812 C1813 1.386 . S
C1812 C1814 1.391 . S
C1813 C1812 1.386 . S
C1813 C1817 1.393 . S
C1814 H1806 0.950 . S
C1814 C1812 1.391 . S
C1814 C1815 1.400 . S
C1815 C1814 1.400 . S
C1815 C1816 1.398 . S
C1815 C1821 1.491 . S
C1816 H1807 0.950 . S
C1816 C1815 1.398 . S
C1816 C1817 1.391 . S
C1817 H1805 0.950 . S
C1817 C1813 1.393 . S
C1817 C1816 1.391 . S
C1818 H1808 0.950 . S
C1818 C1819 1.386 . S
C1818 C1820 1.391 . S
C1819 C1818 1.386 . S
C1819 C1823 1.393 . S
C1820 H1809 0.950 . S
C1820 C1818 1.391 . S
C1820 C1821 1.400 . S
C1821 C1815 1.491 . S
C1821 C1820 1.400 . S
C1821 C1822 1.398 . S
C1822 H1810 0.950 . S
C1822 C1821 1.398 . S
C1822 C1823 1.391 . S
C1823 H1811 0.950 . S
C1823 C1819 1.393 . S
C1823 C1822 1.391 . S
H1824 C1832 0.950 . S
H1825 C1837 0.950 . S
H1826 C1834 0.950 . S
H1827 C1836 0.950 . S
H1828 C1838 0.950 . S
H1829 C1840 0.950 . S
H1830 C1842 0.950 . S
H1831 C1843 0.950 . S
C1832 H1824 0.950 . S
C1832 C1833 1.386 . S
C1832 C1834 1.391 . S
C1833 C1832 1.386 . S
C1833 C1837 1.393 . S
C1834 H1826 0.950 . S
C1834 C1832 1.391 . S
C1834 C1835 1.400 . S
C1835 C1834 1.400 . S
C1835 C1836 1.398 . S
C1835 C1841 1.491 . S
C1836 H1827 0.950 . S
C1836 C1835 1.398 . S
C1836 C1837 1.391 . S
C1837 H1825 0.950 . S
C1837 C1833 1.393 . S
C1837 C1836 1.391 . S
C1838 H1828 0.950 . S
C1838 C1839 1.386 . S
C1838 C1840 1.391 . S
C1839 C1838 1.386 . S
C1839 C1843 1.393 . S
C1840 H1829 0.950 . S
C1840 C1838 1.391 . S
C1840 C1841 1.400 . S
C1841 C1835 1.491 . S
C1841 C1840 1.400 . S
C1841 C1842 1.398 . S
C1842 H1830 0.950 . S
C1842 C1841 1.398 . S
C1842 C1843 1.391 . S
C1843 H1831 0.950 . S
C1843 C1839 1.393 . S
C1843 C1842 1.391 . S
H1844 C1852 0.950 . S
H1845 C1857 0.950 . S
H1846 C1854 0.950 . S
H1847 C1856 0.950 . S
H1848 C1858 0.950 . S
H1849 C1860 0.950 . S
H1850 C1862 0.950 . S
H1851 C1863 0.950 . S
C1852 H1844 0.950 . S
C1852 C1853 1.386 . S
C1852 C1854 1.391 . S
C1853 C1852 1.386 . S
C1853 C1857 1.393 . S
C1854 H1846 0.950 . S
C1854 C1852 1.391 . S
C1854 C1855 1.400 . S
C1855 C1854 1.400 . S
C1855 C1856 1.398 . S
C1855 C1861 1.491 . S
C1856 H1847 0.950 . S
C1856 C1855 1.398 . S
C1856 C1857 1.391 . S
C1857 H1845 0.950 . S
C1857 C1853 1.393 . S
C1857 C1856 1.391 . S
C1858 H1848 0.950 . S
C1858 C1859 1.386 . S
C1858 C1860 1.391 . S
C1859 C1858 1.386 . S
C1859 C1863 1.393 . S
C1860 H1849 0.950 . S
C1860 C1858 1.391 . S
C1860 C1861 1.400 . S
C1861 C1855 1.491 . S
C1861 C1860 1.400 . S
C1861 C1862 1.398 . S
C1862 H1850 0.950 . S
C1862 C1861 1.398 . S
C1862 C1863 1.391 . S
C1863 H1851 0.950 . S
C1863 C1859 1.393 . S
C1863 C1862 1.391 . S
H1864 C1872 0.950 . S
H1865 C1877 0.950 . S
H1866 C1874 0.950 . S
H1867 C1876 0.950 . S
H1868 C1878 0.950 . S
H1869 C1880 0.950 . S
H1870 C1882 0.950 . S
H1871 C1883 0.950 . S
C1872 H1864 0.950 . S
C1872 C1873 1.386 . S
C1872 C1874 1.391 . S
C1873 C1872 1.386 . S
C1873 C1877 1.393 . S
C1874 H1866 0.950 . S
C1874 C1872 1.391 . S
C1874 C1875 1.400 . S
C1875 C1874 1.400 . S
C1875 C1876 1.398 . S
C1875 C1881 1.491 . S
C1876 H1867 0.950 . S
C1876 C1875 1.398 . S
C1876 C1877 1.391 . S
C1877 H1865 0.950 . S
C1877 C1873 1.393 . S
C1877 C1876 1.391 . S
C1878 H1868 0.950 . S
C1878 C1879 1.386 . S
C1878 C1880 1.391 . S
C1879 C1878 1.386 . S
C1879 C1883 1.393 . S
C1880 H1869 0.950 . S
C1880 C1878 1.391 . S
C1880 C1881 1.400 . S
C1881 C1875 1.491 . S
C1881 C1880 1.400 . S
C1881 C1882 1.398 . S
C1882 H1870 0.950 . S
C1882 C1881 1.398 . S
C1882 C1883 1.391 . S
C1883 H1871 0.950 . S
C1883 C1879 1.393 . S
C1883 C1882 1.391 . S
H1884 C1892 0.950 . S
H1885 C1897 0.950 . S
H1886 C1894 0.950 . S
H1887 C1896 0.950 . S
H1888 C1898 0.950 . S
H1889 C1900 0.950 . S
H1890 C1902 0.950 . S
H1891 C1903 0.950 . S
C1892 H1884 0.950 . S
C1892 C1893 1.386 . S
C1892 C1894 1.391 . S
C1893 C1892 1.386 . S
C1893 C1897 1.393 . S
C1894 H1886 0.950 . S
C1894 C1892 1.391 . S
C1894 C1895 1.400 . S
C1895 C1894 1.400 . S
C1895 C1896 1.398 . S
C1895 C1901 1.491 . S
C1896 H1887 0.950 . S
C1896 C1895 1.398 . S
C1896 C1897 1.391 . S
C1897 H1885 0.950 . S
C1897 C1893 1.393 . S
C1897 C1896 1.391 . S
C1898 H1888 0.950 . S
C1898 C1899 1.386 . S
C1898 C1900 1.391 . S
C1899 C1898 1.386 . S
C1899 C1903 1.393 . S
C1900 H1889 0.950 . S
C1900 C1898 1.391 . S
C1900 C1901 1.400 . S
C1901 C1895 1.491 . S
C1901 C1900 1.400 . S
C1901 C1902 1.398 . S
C1902 H1890 0.950 . S
C1902 C1901 1.398 . S
C1902 C1903 1.391 . S
C1903 H1891 0.950 . S
C1903 C1899 1.393 . S
C1903 C1902 1.391 . S
H1904 C1912 0.950 . S
H1905 C1917 0.950 . S
H1906 C1914 0.950 . S
H1907 C1916 0.950 . S
H1908 C1918 0.950 . S
H1909 C1920 0.950 . S
H1910 C1922 0.950 . S
H1911 C1923 0.950 . S
C1912 H1904 0.950 . S
C1912 C1913 1.386 . S
C1912 C1914 1.391 . S
C1913 C1912 1.386 . S
C1913 C1917 1.393 . S
C1914 H1906 0.950 . S
C1914 C1912 1.391 . S
C1914 C1915 1.400 . S
C1915 C1914 1.400 . S
C1915 C1916 1.398 . S
C1915 C1921 1.491 . S
C1916 H1907 0.950 . S
C1916 C1915 1.398 . S
C1916 C1917 1.391 . S
C1917 H1905 0.950 . S
C1917 C1913 1.393 . S
C1917 C1916 1.391 . S
C1918 H1908 0.950 . S
C1918 C1919 1.386 . S
C1918 C1920 1.391 . S
C1919 C1918 1.386 . S
C1919 C1923 1.393 . S
C1920 H1909 0.950 . S
C1920 C1918 1.391 . S
C1920 C1921 1.400 . S
C1921 C1915 1.491 . S
C1921 C1920 1.400 . S
C1921 C1922 1.398 . S
C1922 H1910 0.950 . S
C1922 C1921 1.398 . S
C1922 C1923 1.391 . S
C1923 H1911 0.950 . S
C1923 C1919 1.393 . S
C1923 C1922 1.391 . S
H1924 C1932 0.950 . S
H1925 C1937 0.950 . S
H1926 C1934 0.950 . S
H1927 C1936 0.950 . S
H1928 C1938 0.950 . S
H1929 C1940 0.950 . S
H1930 C1942 0.950 . S
H1931 C1943 0.950 . S
C1932 H1924 0.950 . S
C1932 C1933 1.386 . S
C1932 C1934 1.391 . S
C1933 C1932 1.386 . S
C1933 C1937 1.393 . S
C1934 H1926 0.950 . S
C1934 C1932 1.391 . S
C1934 C1935 1.400 . S
C1935 C1934 1.400 . S
C1935 C1936 1.398 . S
C1935 C1941 1.491 . S
C1936 H1927 0.950 . S
C1936 C1935 1.398 . S
C1936 C1937 1.391 . S
C1937 H1925 0.950 . S
C1937 C1933 1.393 . S
C1937 C1936 1.391 . S
C1938 H1928 0.950 . S
C1938 C1939 1.386 . S
C1938 C1940 1.391 . S
C1939 C1938 1.386 . S
C1939 C1943 1.393 . S
C1940 H1929 0.950 . S
C1940 C1938 1.391 . S
C1940 C1941 1.400 . S
C1941 C1935 1.491 . S
C1941 C1940 1.400 . S
C1941 C1942 1.398 . S
C1942 H1930 0.950 . S
C1942 C1941 1.398 . S
C1942 C1943 1.391 . S
C1943 H1931 0.950 . S
C1943 C1939 1.393 . S
C1943 C1942 1.391 . S
C513 C81 1.569 . S
C519 C11 1.574 . S
C533 C53 1.566 . S
C539 C25 1.575 . S
C553 C39 1.572 . S
C559 C67 1.572 . S
C573 C95 1.573 . S
C579 C165 1.571 . S
C593 C109 1.561 . S
C599 C137 1.573 . S
C613 C151 1.559 . S
C619 C123 1.570 . S
C633 C179 1.558 . S
C639 C249 1.568 1_556 S
C653 C193 1.565 . S
C659 C221 1.558 1_556 S
C673 C207 1.558 . S
C679 C235 1.569 1_556 S
C693 C333 1.558 . S
C699 C263 1.563 1_556 S
C713 C277 1.564 1_556 S
C719 C305 1.558 . S
C733 C319 1.573 . S
C739 C291 1.572 1_556 S
C753 C417 1.569 . S
C759 C347 1.574 1_554 S
C773 C389 1.570 . S
C779 C361 1.559 1_554 S
C793 C403 1.562 . S
C799 C375 1.558 1_554 S
C813 C431 1.568 . S
C819 C501 1.574 1_554 S
C833 C445 1.566 . S
C839 C473 1.558 1_554 S
C853 C459 1.570 . S
C859 C487 1.574 1_554 S
C873 C82 1.038 . S
C879 C12 1.036 . S
C893 C26 1.039 . S
C899 C54 1.036 . S
C913 C68 1.036 . S
C919 C40 1.038 . S
C933 C96 1.038 . S
C939 C166 1.036 . S
C953 C110 1.043 . S
C959 C138 1.037 . S
C973 C152 1.043 . S
C979 C124 1.039 . S
C993 C180 1.036 . S
C999 C250 1.039 . S
C1013 C222 1.036 . S
C1019 C194 1.038 . S
C1033 C236 1.041 . S
C1039 C208 1.035 . S
C1053 C264 1.036 . S
C1059 C334 1.042 . S
C1073 C278 1.039 . S
C1079 C306 1.036 . S
C1093 C320 1.038 . S
C1099 C292 1.043 . S
C1113 C418 1.038 . S
C1119 C348 1.043 . S
C1133 C362 1.038 . S
C1139 C390 1.043 . S
C1153 C376 1.043 . S
C1159 C404 1.037 . S
C1173 C502 1.041 . S
C1179 C432 1.042 . S
C1193 C474 1.042 . S
C1199 C446 1.041 . S
C1213 C488 1.035 . S
C1219 C460 1.039 . S
C1233 C228 1.500 . S
C1239 C4 1.493 . S
C1253 C242 1.509 . S
C1259 C18 1.492 . S
C1273 C214 1.502 . S
C1279 C32 1.506 . S
C1293 C46 1.502 . S
C1299 C368 1.492 . S
C1313 C60 1.498 . S
C1319 C340 1.509 . S
C1333 C74 1.502 . S
C1339 C354 1.507 . S
C1353 C88 1.493 . S
C1359 C480 1.509 . S
C1373 C102 1.495 . S
C1379 C494 1.498 . S
C1393 C116 1.493 . S
C1399 C466 1.509 . S
C1413 C130 1.499 . S
C1419 C284 1.509 . S
C1433 C256 1.509 . S
C1439 C144 1.492 . S
C1453 C270 1.491 . S
C1459 C158 1.507 . S
C1473 C396 1.506 . S
C1479 C172 1.491 . S
C1493 C186 1.496 . S
C1499 C410 1.509 . S
C1513 C200 1.507 . S
C1519 C382 1.491 . S
C1533 C298 1.491 . S
C1539 C452 1.506 . S
C1553 C312 1.509 . S
C1559 C424 1.492 . S
C1573 C438 1.492 . S
C1579 C326 1.502 . S
C1593 C5 1.250 . S
C1599 C145 1.295 . S
C1613 C159 1.250 . S
C1619 C19 1.296 . S
C1633 C131 1.252 . S
C1639 C33 1.294 . S
C1653 C47 1.252 . S
C1659 C117 1.293 . S
C1673 C61 1.286 . S
C1679 C89 1.260 . S
C1693 C75 1.286 . S
C1699 C103 1.260 . S
C1713 C173 1.276 . S
C1719 C313 1.270 . S
C1733 C327 1.286 . S
C1739 C187 1.260 . S
C1753 C299 1.294 . S
C1759 C201 1.251 . S
C1773 C215 1.261 . S
C1779 C285 1.285 . S
C1793 C229 1.259 . S
C1799 C257 1.287 . S
C1813 C271 1.292 . S
C1819 C243 1.253 . S
C1833 C341 1.255 . S
C1839 C481 1.291 . S
C1853 C495 1.291 . S
C1859 C355 1.254 . S
C1873 C369 1.297 . S
C1879 C467 1.249 . S
C1893 C383 1.291 . S
C1899 C453 1.255 . S
C1913 C425 1.293 . S
C1919 C397 1.253 . S
C1933 C411 1.293 . S
C1939 C439 1.252 . S
