# Generated by pormake.
# Topology unn, (4)-cn, num edge types: 1
# Building blocks:
#     Node 0, Type 0, BuildingBlock: NAWXER_clean_sbu_0, # of connection points: 4
#     Node 1, Type 0, BuildingBlock: NAWXER_clean_sbu_0, # of connection points: 4
#     Node 2, Type 0, BuildingBlock: NAWXER_clean_sbu_0, # of connection points: 4
#     Node 3, Type 0, BuildingBlock: NAWXER_clean_sbu_0, # of connection points: 4
#     Node 4, Type 0, BuildingBlock: NAWXER_clean_sbu_0, # of connection points: 4
#     Node 5, Type 0, BuildingBlock: NAWXER_clean_sbu_0, # of connection points: 4
#     Node 6, Type 0, BuildingBlock: NAWXER_clean_sbu_0, # of connection points: 4
#     Node 7, Type 0, BuildingBlock: NAWXER_clean_sbu_0, # of connection points: 4
#     Node 8, Type 0, BuildingBlock: NAWXER_clean_sbu_0, # of connection points: 4
#     Node 9, Type 0, BuildingBlock: NAWXER_clean_sbu_0, # of connection points: 4
#     Node 10, Type 0, BuildingBlock: NAWXER_clean_sbu_0, # of connection points: 4
#     Node 11, Type 0, BuildingBlock: NAWXER_clean_sbu_0, # of connection points: 4
#     Node 12, Type 0, BuildingBlock: NAWXER_clean_sbu_0, # of connection points: 4
#     Node 13, Type 0, BuildingBlock: NAWXER_clean_sbu_0, # of connection points: 4
#     Node 14, Type 0, BuildingBlock: NAWXER_clean_sbu_0, # of connection points: 4
#     Node 15, Type 0, BuildingBlock: NAWXER_clean_sbu_0, # of connection points: 4
#     Node 16, Type 0, BuildingBlock: NAWXER_clean_sbu_0, # of connection points: 4
#     Node 17, Type 0, BuildingBlock: NAWXER_clean_sbu_0, # of connection points: 4
#     Edge 18, Type (0, 0), BuildingBlock: TEMPAE_clean_linker_10, # of connection points: 2
#     Edge 19, Type (0, 0), BuildingBlock: TEMPAE_clean_linker_10, # of connection points: 2
#     Edge 20, Type (0, 0), BuildingBlock: TEMPAE_clean_linker_10, # of connection points: 2
#     Edge 21, Type (0, 0), BuildingBlock: TEMPAE_clean_linker_10, # of connection points: 2
#     Edge 22, Type (0, 0), BuildingBlock: TEMPAE_clean_linker_10, # of connection points: 2
#     Edge 23, Type (0, 0), BuildingBlock: TEMPAE_clean_linker_10, # of connection points: 2
#     Edge 24, Type (0, 0), BuildingBlock: TEMPAE_clean_linker_10, # of connection points: 2
#     Edge 25, Type (0, 0), BuildingBlock: TEMPAE_clean_linker_10, # of connection points: 2
#     Edge 26, Type (0, 0), BuildingBlock: TEMPAE_clean_linker_10, # of connection points: 2
#     Edge 27, Type (0, 0), BuildingBlock: TEMPAE_clean_linker_10, # of connection points: 2
#     Edge 28, Type (0, 0), BuildingBlock: TEMPAE_clean_linker_10, # of connection points: 2
#     Edge 29, Type (0, 0), BuildingBlock: TEMPAE_clean_linker_10, # of connection points: 2
#     Edge 30, Type (0, 0), BuildingBlock: TEMPAE_clean_linker_10, # of connection points: 2
#     Edge 31, Type (0, 0), BuildingBlock: TEMPAE_clean_linker_10, # of connection points: 2
#     Edge 32, Type (0, 0), BuildingBlock: TEMPAE_clean_linker_10, # of connection points: 2
#     Edge 33, Type (0, 0), BuildingBlock: TEMPAE_clean_linker_10, # of connection points: 2
#     Edge 34, Type (0, 0), BuildingBlock: TEMPAE_clean_linker_10, # of connection points: 2
#     Edge 35, Type (0, 0), BuildingBlock: TEMPAE_clean_linker_10, # of connection points: 2
#     Edge 36, Type (0, 0), BuildingBlock: TEMPAE_clean_linker_10, # of connection points: 2
#     Edge 37, Type (0, 0), BuildingBlock: TEMPAE_clean_linker_10, # of connection points: 2
#     Edge 38, Type (0, 0), BuildingBlock: TEMPAE_clean_linker_10, # of connection points: 2
#     Edge 39, Type (0, 0), BuildingBlock: TEMPAE_clean_linker_10, # of connection points: 2
#     Edge 40, Type (0, 0), BuildingBlock: TEMPAE_clean_linker_10, # of connection points: 2
#     Edge 41, Type (0, 0), BuildingBlock: TEMPAE_clean_linker_10, # of connection points: 2
#     Edge 42, Type (0, 0), BuildingBlock: TEMPAE_clean_linker_10, # of connection points: 2
#     Edge 43, Type (0, 0), BuildingBlock: TEMPAE_clean_linker_10, # of connection points: 2
#     Edge 44, Type (0, 0), BuildingBlock: TEMPAE_clean_linker_10, # of connection points: 2
#     Edge 45, Type (0, 0), BuildingBlock: TEMPAE_clean_linker_10, # of connection points: 2
#     Edge 46, Type (0, 0), BuildingBlock: TEMPAE_clean_linker_10, # of connection points: 2
#     Edge 47, Type (0, 0), BuildingBlock: TEMPAE_clean_linker_10, # of connection points: 2
#     Edge 48, Type (0, 0), BuildingBlock: TEMPAE_clean_linker_10, # of connection points: 2
#     Edge 49, Type (0, 0), BuildingBlock: TEMPAE_clean_linker_10, # of connection points: 2
#     Edge 50, Type (0, 0), BuildingBlock: TEMPAE_clean_linker_10, # of connection points: 2
#     Edge 51, Type (0, 0), BuildingBlock: TEMPAE_clean_linker_10, # of connection points: 2
#     Edge 52, Type (0, 0), BuildingBlock: TEMPAE_clean_linker_10, # of connection points: 2
#     Edge 53, Type (0, 0), BuildingBlock: TEMPAE_clean_linker_10, # of connection points: 2
# Relax obj value: 0.039
# Max RMSD: 0.205
# Mean RMSD: 0.205
data_MOF--net-unn--node1-NAWXER_clean_sbu_0--edge1-TEMPAE_clean_linker_10
_symmetry_space_group_name_H-M    P1
_symmetry_Int_Tables_number       1
_symmetry_cell_setting            triclinic
loop_
_symmetry_equiv_pos_as_xyz
'x, y, z'
_cell_length_a     46.209392
_cell_length_b     46.21069
_cell_length_c     42.322247
_cell_angle_alpha  89.98832
_cell_angle_beta   90.001979
_cell_angle_gamma 120.01218
loop_
_atom_site_label
_atom_site_type_symbol
_atom_site_fract_x
_atom_site_fract_y
_atom_site_fract_z
_atom_type_partial_charge
C0 C 0.96449 0.7418 0.21755 0.0
C1 C 0.07696 0.79505 0.26671 0.0
O2 O 0.98327 0.77287 0.22306 0.0
Zn3 Zn 0.02136 0.77043 0.24084 0.0
O4 O 0.97493 0.72154 0.22413 0.0
Zn5 Zn 0.01885 0.7232 0.24267 0.0
O6 O 1.00107 0.69424 0.2779 0.0
O7 O 1.00104 0.74182 0.28366 0.0
O8 O 0.06336 0.76339 0.26295 0.0
O9 O 0.06211 0.81008 0.25637 0.0
O10 O 0.03888 0.75761 0.19969 0.0
O11 O 0.03452 0.70844 0.20772 0.0
C12 C 0.99492 0.71337 0.29462 0.0
C13 C 0.04244 0.73337 0.18986 0.0
C14 C 0.30166 0.23961 0.21442 0.0
C15 C 0.24721 0.29661 0.26578 0.0
O16 O 0.27044 0.22746 0.21884 0.0
Zn17 Zn 0.27234 0.26681 0.23901 0.0
O18 O 0.32189 0.26974 0.2229 0.0
Zn19 Zn 0.31998 0.31093 0.2436 0.0
O20 O 0.34693 0.31935 0.28009 0.0
O21 O 0.29856 0.27209 0.28269 0.0
O22 O 0.27903 0.31454 0.26321 0.0
O23 O 0.23227 0.26724 0.25414 0.0
O24 O 0.2867 0.3006 0.20041 0.0
O25 O 0.33647 0.34382 0.21053 0.0
C26 C 0.3265 0.29333 0.29533 0.0
C27 C 0.31146 0.32886 0.19227 0.0
C28 C 0.73549 0.95391 0.26706 0.0
C29 C 0.79243 0.06653 0.2183 0.0
O30 O 0.76659 0.97186 0.26126 0.0
Zn31 Zn 0.76575 0.01042 0.2426 0.0
O32 O 0.71591 0.96513 0.26024 0.0
Zn33 Zn 0.71921 0.00952 0.24104 0.0
O34 O 0.69112 0.99326 0.2047 0.0
O35 O 0.73763 0.99114 0.2 0.0
O36 O 0.76112 0.05457 0.22323 0.0
O37 O 0.80597 0.04927 0.22564 0.0
O38 O 0.75454 0.03105 0.28289 0.0
O39 O 0.70481 0.02587 0.27554 0.0
C40 C 0.70993 0.98632 0.18839 0.0
C41 C 0.73066 0.03534 0.29256 0.0
C42 C 0.99359 0.30216 0.79351 0.0
C43 C 0.04913 0.33258 0.69207 0.0
O44 O 0.99993 0.27994 0.78285 0.0
Zn45 Zn 0.02178 0.2719 0.74159 0.0
O46 O 1.00114 0.32806 0.77718 0.0
Zn47 Zn 0.02102 0.31764 0.74264 0.0
O48 O 0.97875 0.27735 0.71954 0.0
O49 O 0.98334 0.23221 0.72302 0.0
O50 O 0.04046 0.34954 0.7092 0.0
O51 O 0.0435 0.30384 0.70149 0.0
O52 O 0.06068 0.27094 0.75932 0.0
O53 O 0.06379 0.31986 0.765 0.0
C54 C 0.96713 0.24626 0.71376 0.0
C55 C 0.07613 0.30081 0.76971 0.0
C56 C 0.7388 0.70815 0.79191 0.0
C57 C 0.71543 0.73346 0.6874 0.0
O58 O 0.76219 0.73623 0.78162 0.0
Zn59 Zn 0.77315 0.76626 0.74042 0.0
O60 O 0.7135 0.69047 0.77466 0.0
Zn61 Zn 0.72671 0.72059 0.73943 0.0
O62 O 0.76764 0.71778 0.71876 0.0
O63 O 0.81338 0.76679 0.72444 0.0
O64 O 0.69714 0.70815 0.70448 0.0
O65 O 0.74369 0.75657 0.69796 0.0
O66 O 0.77442 0.80617 0.75828 0.0
O67 O 0.72374 0.7621 0.75815 0.0
C68 C 0.79913 0.73674 0.71455 0.0
C69 C 0.74338 0.79303 0.76445 0.0
C70 C 0.29392 0.06638 0.71864 0.0
C71 C 0.23911 0.95338 0.76674 0.0
O72 O 0.31384 0.05534 0.72456 0.0
Zn73 Zn 0.31141 0.01088 0.74292 0.0
O74 O 0.26297 0.04823 0.72507 0.0
Zn75 Zn 0.2649 0.00985 0.74261 0.0
O76 O 0.29439 0.02982 0.78453 0.0
O77 O 0.3406 0.02739 0.77839 0.0
O78 O 0.22527 0.97047 0.75987 0.0
O79 O 0.27034 0.96562 0.76118 0.0
O80 O 0.32551 0.99541 0.70765 0.0
O81 O 0.27609 0.99104 0.70086 0.0
C82 C 0.32251 0.03484 0.79522 0.0
C83 C 0.30004 0.98722 0.69046 0.0
C84 C 0.63274 0.06757 0.5485 0.0
C85 C 0.744 0.12489 0.60028 0.0
O86 O 0.64774 0.09739 0.55905 0.0
Zn87 Zn 0.68761 0.09744 0.57544 0.0
O88 O 0.64598 0.04919 0.5524 0.0
Zn89 Zn 0.69006 0.05274 0.5733 0.0
O90 O 0.67299 0.02122 0.60733 0.0
O91 O 0.66742 0.06536 0.61529 0.0
O92 O 0.73366 0.09433 0.59311 0.0
O93 O 0.72535 0.13728 0.59468 0.0
O94 O 0.70862 0.08981 0.53276 0.0
O95 O 0.70837 0.04206 0.53821 0.0
C96 C 0.66332 0.03719 0.62463 0.0
C97 C 0.71481 0.06757 0.5217 0.0
C98 C 1.00325 0.63602 0.62601 0.0
C99 C 0.97922 0.66554 0.52383 0.0
O100 O 0.02105 0.66243 0.61014 0.0
Zn101 Zn 0.99168 0.65097 0.5748 0.0
O102 O 0.97514 0.61328 0.61498 0.0
Zn103 Zn 0.94523 0.60532 0.57374 0.0
O104 O 0.94341 0.56592 0.55413 0.0
O105 O 0.99422 0.60978 0.55441 0.0
O106 O 0.95553 0.63729 0.53363 0.0
O107 O 1.00531 0.68191 0.54054 0.0
O108 O 0.95037 0.6541 0.59423 0.0
O109 O 0.90562 0.6039 0.59235 0.0
C110 C 0.97435 0.57902 0.54759 0.0
C111 C 0.91923 0.63465 0.59986 0.0
C112 C 0.45253 0.39789 0.5485 0.0
C113 C 0.3961 0.28782 0.60239 0.0
O114 O 0.46499 0.3793 0.55415 0.0
Zn115 Zn 0.42549 0.34206 0.57429 0.0
O116 O 0.42208 0.38769 0.55604 0.0
Zn117 Zn 0.38071 0.34446 0.57672 0.0
O118 O 0.37067 0.36362 0.61166 0.0
O119 O 0.41876 0.36441 0.6164 0.0
O120 O 0.37761 0.30092 0.59842 0.0
O121 O 0.42575 0.30264 0.59142 0.0
O122 O 0.39282 0.32096 0.53508 0.0
O123 O 0.34873 0.32663 0.54297 0.0
C124 C 0.39677 0.37088 0.62759 0.0
C125 C 0.36452 0.31658 0.52587 0.0
C126 C 0.65918 0.63838 0.1248 0.0
C127 C 0.71463 0.66623 0.02319 0.0
O128 O 0.66562 0.61602 0.11479 0.0
Zn129 Zn 0.688 0.60728 0.07448 0.0
O130 O 0.6672 0.66424 0.1082 0.0
Zn131 Zn 0.68737 0.65323 0.07423 0.0
O132 O 0.64532 0.61233 0.05156 0.0
O133 O 0.64975 0.56715 0.05639 0.0
O134 O 0.70665 0.68404 0.03987 0.0
O135 O 0.70907 0.63784 0.03357 0.0
O136 O 0.72705 0.60707 0.09284 0.0
O137 O 0.73005 0.65606 0.09703 0.0
C138 C 0.63374 0.58115 0.04638 0.0
C139 C 0.74245 0.63721 0.1025 0.0
C140 C 0.40384 0.03604 0.12635 0.0
C141 C 0.37325 0.05956 0.02448 0.0
O142 O 0.42601 0.06456 0.11556 0.0
Zn143 Zn 0.434 0.09389 0.07384 0.0
O144 O 0.37809 0.01743 0.10994 0.0
Zn145 Zn 0.38839 0.04733 0.07524 0.0
O146 O 0.42864 0.04527 0.05231 0.0
O147 O 0.47375 0.09506 0.05543 0.0
O148 O 0.3564 0.03423 0.04199 0.0
O149 O 0.40198 0.08293 0.03363 0.0
O150 O 0.43472 0.13391 0.09088 0.0
O151 O 0.3859 0.08803 0.09683 0.0
C152 C 0.4597 0.06473 0.0464 0.0
C153 C 0.40481 0.1195 0.10117 0.0
C154 C 0.96425 0.39833 0.04932 0.0
C155 C 0.9091 0.2881 0.10271 0.0
O156 O 0.98339 0.38617 0.05431 0.0
Zn157 Zn 0.98103 0.34318 0.07596 0.0
O158 O 0.93406 0.38238 0.05882 0.0
Zn159 Zn 0.9348 0.34311 0.0759 0.0
O160 O 0.96486 0.36327 0.11735 0.0
O161 O 1.01152 0.36184 0.11051 0.0
O162 O 0.89478 0.3039 0.09302 0.0
O163 O 0.9404 0.30026 0.09773 0.0
O164 O 0.99293 0.32448 0.0415 0.0
O165 O 0.94472 0.3228 0.03457 0.0
C166 C 0.99332 0.36892 0.12763 0.0
C167 C 0.96758 0.31717 0.02439 0.0
C168 C 0.29837 0.40496 0.88476 0.0
C169 C 0.41209 0.46265 0.93117 0.0
O170 O 0.31631 0.43607 0.89047 0.0
Zn171 Zn 0.35536 0.43544 0.90809 0.0
O172 O 0.30983 0.38549 0.89119 0.0
Zn173 Zn 0.35481 0.38919 0.9095 0.0
O174 O 0.33951 0.36127 0.94589 0.0
O175 O 0.3372 0.40762 0.95113 0.0
O176 O 0.40019 0.43133 0.92643 0.0
O177 O 0.39453 0.47595 0.92414 0.0
O178 O 0.37461 0.42373 0.86694 0.0
O179 O 0.37029 0.37444 0.87471 0.0
C180 C 0.33284 0.38002 0.9626 0.0
C181 C 0.3787 0.39974 0.8572 0.0
C182 C 0.63713 0.99049 0.85429 0.0
C183 C 0.66759 0.96961 0.95745 0.0
O184 O 0.66277 0.00974 0.87058 0.0
Zn185 Zn 0.65239 0.98086 0.90587 0.0
O186 O 0.61509 0.96208 0.86552 0.0
Zn187 Zn 0.60768 0.93344 0.90803 0.0
O188 O 0.56776 0.93114 0.92725 0.0
O189 O 0.61062 0.98251 0.92558 0.0
O190 O 0.63954 0.94554 0.94789 0.0
O191 O 0.68374 0.99529 0.9402 0.0
O192 O 0.65615 0.94055 0.88491 0.0
O193 O 0.60817 0.89384 0.89159 0.0
C194 C 0.58008 0.96221 0.93277 0.0
C195 C 0.63797 0.90893 0.88098 0.0
C196 C 0.12288 0.73199 0.88328 0.0
C197 C 0.06837 0.62096 0.93526 0.0
O198 O 0.13761 0.71708 0.89424 0.0
Zn199 Zn 0.09769 0.67718 0.91052 0.0
O200 O 0.09126 0.71886 0.88694 0.0
Zn201 Zn 0.05061 0.67516 0.90796 0.0
O202 O 0.0363 0.69233 0.94218 0.0
O203 O 0.08552 0.69683 0.9504 0.0
O204 O 0.04839 0.63155 0.92793 0.0
O205 O 0.0995 0.63936 0.92978 0.0
O206 O 0.06909 0.6559 0.86801 0.0
O207 O 0.02176 0.65666 0.87261 0.0
C208 C 0.06161 0.70114 0.95978 0.0
C209 C 0.04081 0.64975 0.85661 0.0
C210 C 0.32995 0.96951 0.46026 0.0
C211 C 0.38084 0.99444 0.35675 0.0
O212 O 0.33422 0.94593 0.44964 0.0
Zn213 Zn 0.35451 0.93585 0.40842 0.0
O214 O 0.33883 0.99556 0.4437 0.0
Zn215 Zn 0.35533 0.98236 0.40844 0.0
O216 O 0.31056 0.94145 0.38919 0.0
O217 O 0.31571 0.89654 0.38993 0.0
O218 O 0.37259 0.01212 0.37328 0.0
O219 O 0.37565 0.96622 0.3673 0.0
O220 O 0.39255 0.93385 0.42678 0.0
O221 O 0.3995 0.98467 0.42745 0.0
C222 C 0.29861 0.91037 0.38309 0.0
C223 C 0.41051 0.96474 0.43348 0.0
C224 C 0.07442 0.45701 0.43275 0.0
C225 C 0.12982 0.40084 0.3819 0.0
O226 O 0.05569 0.42534 0.42966 0.0
Zn227 Zn 0.05833 0.38398 0.40974 0.0
O228 O 0.10405 0.47128 0.42177 0.0
Zn229 Zn 0.10346 0.43081 0.40649 0.0
O230 O 0.07121 0.41801 0.36674 0.0
O231 O 0.02646 0.36903 0.37585 0.0
O232 O 0.14279 0.43202 0.38719 0.0
O233 O 0.09929 0.38109 0.38956 0.0
O234 O 0.04804 0.35591 0.44567 0.0
O235 O 0.0962 0.4032 0.44975 0.0
C236 C 0.04283 0.39398 0.3578 0.0
C237 C 0.07395 0.37522 0.4616 0.0
C238 C 0.63121 0.73149 0.38188 0.0
C239 C 0.57543 0.62136 0.43575 0.0
O240 O 0.64992 0.71867 0.38604 0.0
Zn241 Zn 0.64701 0.67508 0.40733 0.0
O242 O 0.60134 0.7162 0.39228 0.0
Zn243 Zn 0.60176 0.67663 0.40889 0.0
O244 O 0.63388 0.69729 0.44914 0.0
O245 O 0.67905 0.69348 0.44066 0.0
O246 O 0.56175 0.63804 0.42691 0.0
O247 O 0.60647 0.63272 0.42994 0.0
O248 O 0.65716 0.65578 0.37222 0.0
O249 O 0.60972 0.65594 0.36668 0.0
C250 C 0.6625 0.70226 0.45824 0.0
C251 C 0.63175 0.64951 0.35566 0.0
C252 C 0.04872 0.70394 0.14327 0.0
C253 C 0.05226 0.73322 0.15675 0.0
C254 C 0.05308 0.70203 0.11075 0.0
C255 C 0.06139 0.73015 0.09145 0.0
C256 C 0.06679 0.76034 0.10515 0.0
C257 C 0.06209 0.7615 0.1377 0.0
C258 C 0.04729 0.66944 0.09685 0.0
C259 C 0.0761 0.79092 0.08528 0.0
C260 C 0.0922 0.72633 0.0098 0.0
C261 C 0.06259 0.71336 -0.00787 0.0
C262 C 0.09258 0.73343 0.04197 0.0
C263 C 0.06259 0.72722 0.05675 0.0
C264 C 0.03305 0.71587 0.03871 0.0
C265 C 0.03344 0.70918 0.00648 0.0
C266 C 0.12463 0.74598 0.06044 0.0
C267 C 1.00063 0.70912 0.05379 0.0
H268 H 0.04117 0.68203 0.15788 0.0
H269 H 0.06512 0.78431 0.14803 0.0
H270 H 0.02536 0.65909 0.08082 0.0
H271 H 0.06918 0.67366 0.08254 0.0
H272 H 0.04273 0.65052 0.11531 0.0
H273 H 0.08258 0.8133 0.09994 0.0
H274 H 0.09764 0.7965 0.06977 0.0
H275 H 0.05484 0.78614 0.06971 0.0
H276 H 0.11493 0.72996 -0.00128 0.0
H277 H 1.01052 0.69921 -0.00709 0.0
H278 H 0.12223 0.72623 0.07693 0.0
H279 H 0.12958 0.76801 0.0749 0.0
H280 H 0.14648 0.75298 0.04481 0.0
H281 H 0.99211 0.68809 0.07075 0.0
H282 H 0.98055 0.70264 0.03608 0.0
H283 H 1.00435 0.73128 0.06732 0.0
C284 C 0.31693 0.39323 0.0147 0.0
C285 C 0.32348 0.37201 -0.00391 0.0
C286 C 0.31234 0.38846 0.0474 0.0
C287 C 0.31453 0.36198 0.06168 0.0
C288 C 0.3197 0.33964 0.04287 0.0
C289 C 0.32399 0.34486 0.01023 0.0
C290 C 0.3064 0.41244 0.06678 0.0
C291 C 0.32202 0.31097 0.05736 0.0
C292 C 0.34172 0.36547 0.14641 0.0
C293 C 0.31161 0.34199 0.16054 0.0
C294 C 0.34276 0.37366 0.1144 0.0
C295 C 0.31291 0.35819 0.09643 0.0
C296 C 0.28211 0.3364 0.11118 0.0
C297 C 0.28185 0.32843 0.1431 0.0
C298 C 0.37608 0.39711 0.09935 0.0
C299 C 0.24973 0.31989 0.09283 0.0
H300 H 0.31633 0.41419 0.00389 0.0
H301 H 0.32896 0.32834 -0.00401 0.0
H302 H 0.28448 0.39853 0.08251 0.0
H303 H 0.32838 0.42756 0.08211 0.0
H304 H 0.30217 0.4297 0.05176 0.0
H305 H 0.32489 0.29517 0.03927 0.0
H306 H 0.34374 0.32086 0.07363 0.0
H307 H 0.29932 0.29498 0.07152 0.0
H308 H 0.36476 0.37606 0.15986 0.0
H309 H 0.25841 0.31059 0.15409 0.0
H310 H 0.37454 0.41665 0.08546 0.0
H311 H 0.38294 0.38293 0.08275 0.0
H312 H 0.39634 0.40948 0.11714 0.0
H313 H 0.24742 0.33849 0.07811 0.0
H314 H 0.22759 0.30733 0.1086 0.0
H315 H 0.24948 0.3009 0.07663 0.0
C316 C 0.72314 0.96889 0.13716 0.0
C317 C 0.70213 0.97642 0.15499 0.0
C318 C 0.71919 0.96446 0.10439 0.0
C319 C 0.69377 0.9678 0.08926 0.0
C320 C 0.6714 0.97364 0.10731 0.0
C321 C 0.67578 0.97776 0.14005 0.0
C322 C 0.74315 0.95775 0.08586 0.0
C323 C 0.64384 0.97717 0.09188 0.0
C324 C 0.70231 0.99769 0.00492 0.0
C325 C 0.67892 0.96832 0.98965 0.0
C326 C 0.70873 0.99754 0.03724 0.0
C327 C 0.69155 0.96724 0.0544 0.0
C328 C 0.66982 0.93712 0.0386 0.0
C329 C 0.66364 0.93804 0.00637 0.0
C330 C 0.73221 0.03016 0.05341 0.0
C331 C 0.65154 0.90427 0.05607 0.0
H332 H 0.74342 0.96757 0.14861 0.0
H333 H 0.65942 0.98347 0.1537 0.0
H334 H 0.72931 0.93654 0.06936 0.0
H335 H 0.75975 0.98 0.0714 0.0
H336 H 0.75898 0.95203 0.10148 0.0
H337 H 0.62754 0.97997 0.10945 0.0
H338 H 0.65488 0.9994 0.07619 0.0
H339 H 0.6281 0.95504 0.07695 0.0
H340 H 0.71423 0.02112 -0.00795 0.0
H341 H 0.64586 0.91516 -0.00548 0.0
H342 H 0.75076 0.02751 0.06789 0.0
H343 H 0.7178 0.0371 0.06964 0.0
H344 H 0.74579 0.05087 0.03629 0.0
H345 H 0.66895 0.90083 0.07157 0.0
H346 H 0.63924 0.88264 0.0397 0.0
H347 H 0.63209 0.90426 0.07145 0.0
C348 C 0.72576 0.04237 0.47454 0.0
C349 C 0.72559 0.06973 0.4886 0.0
C350 C 0.73025 0.04154 0.44196 0.0
C351 C 0.73509 0.06893 0.42313 0.0
C352 C 0.73729 0.0976 0.43742 0.0
C353 C 0.73234 0.09761 0.47008 0.0
C354 C 0.72783 0.01051 0.42747 0.0
C355 C 0.7431 0.12749 0.41806 0.0
C356 C 0.76325 0.06535 0.34032 0.0
C357 C 0.73254 0.04899 0.32438 0.0
C358 C 0.76485 0.07421 0.37216 0.0
C359 C 0.73498 0.06602 0.38835 0.0
C360 C 0.70419 0.05138 0.37188 0.0
C361 C 0.70338 0.04323 0.33991 0.0
C362 C 0.79819 0.09047 0.38887 0.0
C363 C 0.67179 0.04223 0.3885 0.0
H364 H 0.72073 0.02081 0.48873 0.0
H365 H 0.73255 0.11899 0.48087 0.0
H366 H 0.70543 0.99812 0.41206 0.0
H367 H 0.74997 0.0172 0.41245 0.0
H368 H 0.72598 0.99228 0.44562 0.0
H369 H 0.74901 0.14947 0.43311 0.0
H370 H 0.76385 0.13453 0.40106 0.0
H371 H 0.72033 0.12108 0.40413 0.0
H372 H 0.78595 0.0703 0.3282 0.0
H373 H 0.67963 0.03069 0.32761 0.0
H374 H 0.79943 0.07201 0.40475 0.0
H375 H 0.80125 0.11158 0.40375 0.0
H376 H 0.81941 0.09986 0.37199 0.0
H377 H 0.66583 0.02188 0.40572 0.0
H378 H 0.65053 0.03368 0.37176 0.0
H379 H 0.67418 0.06392 0.40195 0.0
C380 C 1.00602 0.70111 0.47658 0.0
C381 C 0.97704 0.67723 0.49204 0.0
C382 C 1.00516 0.70831 0.44459 0.0
C383 C 0.97449 0.69151 0.42798 0.0
C384 C 0.94472 0.66933 0.44408 0.0
C385 C 0.94639 0.66225 0.47597 0.0
C386 C 0.03745 0.73212 0.42808 0.0
C387 C 0.91149 0.65155 0.42723 0.0
C388 C 0.97679 0.72537 0.34614 0.0
C389 C 0.98428 0.70469 0.32775 0.0
C390 C 0.97168 0.72032 0.37878 0.0
C391 C 0.9745 0.69425 0.39318 0.0
C392 C 0.98015 0.67216 0.37449 0.0
C393 C 0.98478 0.67755 0.34192 0.0
C394 C 0.965 0.74389 0.39799 0.0
C395 C 0.98328 0.64401 0.38911 0.0
H396 H 0.02974 0.71282 0.48896 0.0
H397 H 0.92382 0.64411 0.48801 0.0
H398 H 0.04397 0.71807 0.41097 0.0
H399 H 0.03458 0.75107 0.41451 0.0
H400 H 0.05856 0.74525 0.4449 0.0
H401 H 0.89023 0.63937 0.44402 0.0
H402 H 0.90801 0.66923 0.41219 0.0
H403 H 0.91084 0.63203 0.41149 0.0
H404 H 0.97605 0.74623 0.33525 0.0
H405 H 0.9904 0.66139 0.32782 0.0
H406 H 0.98752 0.76062 0.41206 0.0
H407 H 0.9442 0.72979 0.41485 0.0
H408 H 0.95871 0.75961 0.38282 0.0
H409 H 1.00561 0.65449 0.40465 0.0
H410 H 0.98571 0.62791 0.37105 0.0
H411 H 0.96117 0.62818 0.40404 0.0
C412 C 0.36633 0.28607 0.47824 0.0
C413 C 0.35247 0.30293 0.4941 0.0
C414 C 0.36001 0.27832 0.44612 0.0
C415 C 0.33974 0.2881 0.42956 0.0
C416 C 0.32369 0.30288 0.44597 0.0
C417 C 0.3301 0.30995 0.47823 0.0
C418 C 0.37692 0.26184 0.4295 0.0
C419 C 0.30184 0.31361 0.42899 0.0
C420 C 0.35978 0.31577 0.3446 0.0
C421 C 0.33285 0.28947 0.32876 0.0
C422 C 0.36295 0.31497 0.3774 0.0
C423 C 0.33879 0.28702 0.39464 0.0
C424 C 0.31279 0.25944 0.37862 0.0
C425 C 0.31003 0.26104 0.34578 0.0
C426 C 0.39115 0.34484 0.39377 0.0
C427 C 0.28698 0.229 0.39626 0.0
H428 H 0.38325 0.28014 0.49062 0.0
H429 H 0.31927 0.32288 0.49046 0.0
H430 H 0.35922 0.24185 0.41341 0.0
H431 H 0.39783 0.28064 0.41489 0.0
H432 H 0.38715 0.2509 0.44648 0.0
H433 H 0.28856 0.32156 0.44564 0.0
H434 H 0.31749 0.33486 0.41304 0.0
H435 H 0.28308 0.29297 0.41413 0.0
H436 H 0.37757 0.33775 0.33159 0.0
H437 H 0.28928 0.24049 0.33363 0.0
H438 H 0.40537 0.33684 0.40906 0.0
H439 H 0.38077 0.35685 0.40922 0.0
H440 H 0.40877 0.3638 0.37676 0.0
H441 H 0.29916 0.22054 0.41364 0.0
H442 H 0.27135 0.20795 0.38008 0.0
H443 H 0.27033 0.23544 0.40965 0.0
C444 C 0.98409 0.32706 0.84183 0.0
C445 C 0.98107 0.29904 0.82607 0.0
C446 C 0.97779 0.32592 0.8743 0.0
C447 C 0.96788 0.29592 0.89115 0.0
C448 C 0.96253 0.26691 0.87496 0.0
C449 C 0.96937 0.26886 0.84255 0.0
C450 C 0.9837 0.35738 0.89088 0.0
C451 C 0.95137 0.23436 0.89212 0.0
C452 C 0.99477 0.30976 0.97667 0.0
C453 C 0.96599 0.306 0.9915 0.0
C454 C 0.99523 0.30503 0.94404 0.0
C455 C 0.96609 0.29598 0.92605 0.0
C456 C 0.9363 0.28983 0.94121 0.0
C457 C 0.93664 0.29508 0.97383 0.0
C458 C 0.02749 0.31176 0.92858 0.0
C459 C 0.90462 0.27954 0.9228 0.0
H460 H 0.99308 0.35042 0.82919 0.0
H461 H 0.96664 0.247 0.83037 0.0
H462 H 0.96158 0.35234 0.90523 0.0
H463 H 1.00521 0.36601 0.90728 0.0
H464 H 0.98907 0.37791 0.87404 0.0
H465 H 0.94403 0.21317 0.87554 0.0
H466 H 0.97204 0.23663 0.9072 0.0
H467 H 0.92993 0.22846 0.90788 0.0
H468 H 0.0175 0.31815 0.99022 0.0
H469 H 0.9142 0.29179 0.98526 0.0
H470 H 0.03691 0.33407 0.91311 0.0
H471 H 0.02318 0.29039 0.91342 0.0
H472 H 0.04716 0.31626 0.94616 0.0
H473 H 0.90758 0.30097 0.90848 0.0
H474 H 0.88262 0.27132 0.93852 0.0
H475 H 0.89956 0.25896 0.9062 0.0
C476 C 0.72335 0.70101 0.97524 0.0
C477 C 0.72659 0.67588 0.9905 0.0
C478 C 0.729 0.70629 0.94269 0.0
C479 C 0.73838 0.68614 0.92523 0.0
C480 C 0.74385 0.66228 0.94086 0.0
C481 C 0.73778 0.65735 0.97337 0.0
C482 C 0.72308 0.73212 0.92671 0.0
C483 C 0.75437 0.64074 0.92303 0.0
C484 C 0.71107 0.67394 0.83977 0.0
C485 C 0.74004 0.69862 0.8249 0.0
C486 C 0.7106 0.66868 0.87241 0.0
C487 C 0.73989 0.68839 0.89035 0.0
C488 C 0.76977 0.71181 0.87516 0.0
C489 C 0.76946 0.71674 0.84256 0.0
C490 C 0.67828 0.64335 0.88791 0.0
C491 C 0.80158 0.73285 0.89353 0.0
H492 H 0.71474 0.71542 0.98836 0.0
H493 H 0.74066 0.6381 0.98513 0.0
H494 H 0.74503 0.74918 0.91215 0.0
H495 H 0.7013 0.71949 0.91059 0.0
H496 H 0.71815 0.74727 0.94395 0.0
H497 H 0.7615 0.62636 0.93915 0.0
H498 H 0.73344 0.6228 0.90789 0.0
H499 H 0.77579 0.65628 0.90724 0.0
H500 H 0.68829 0.65985 0.82622 0.0
H501 H 0.79205 0.73564 0.8311 0.0
H502 H 0.66926 0.65635 0.90369 0.0
H503 H 0.68235 0.62593 0.90276 0.0
H504 H 0.6584 0.62854 0.87037 0.0
H505 H 0.79872 0.75103 0.90841 0.0
H506 H 0.8235 0.74693 0.87778 0.0
H507 H 0.8067 0.71698 0.90961 0.0
C508 C 0.33643 0.03169 0.9782 0.0
C509 C 0.36171 0.06081 -0.00765 0.0
C510 C 0.32922 0.03115 0.94602 0.0
C511 C 0.34748 0.06056 0.92782 0.0
C512 C 0.37127 0.09064 0.94247 0.0
C513 C 0.37826 0.09037 0.97462 0.0
C514 C 0.30363 0.99857 0.9311 0.0
C515 C 0.39072 0.12259 0.92386 0.0
C516 C 0.35817 0.04406 0.84251 0.0
C517 C 0.33206 0.04625 0.82805 0.0
C518 C 0.36431 0.05002 0.8749 0.0
C519 C 0.34406 0.05873 0.89305 0.0
C520 C 0.31906 0.06303 0.87825 0.0
C521 C 0.31322 0.05657 0.84586 0.0
C522 C 0.39127 0.04523 0.88997 0.0
C523 C 0.29744 0.07288 0.89686 0.0
H524 H 0.32351 0.00882 -0.00817 0.0
H525 H 0.39756 0.11307 0.98558 0.0
H526 H 0.28543 1.00218 0.91703 0.0
H527 H 0.31632 0.98975 0.91469 0.0
H528 H 0.28973 0.97875 0.94896 0.0
H529 H 0.40456 0.14466 0.93948 0.0
H530 H 0.40901 0.12061 0.90836 0.0
H531 H 0.37379 0.12682 0.9084 0.0
H532 H 0.37287 0.03619 0.82884 0.0
H533 H 0.29321 0.05863 0.83471 0.0
H534 H 0.37974 0.02379 0.90659 0.0
H535 H 0.40855 0.06767 0.90385 0.0
H536 H 0.40606 0.04037 0.87223 0.0
H537 H 0.28026 0.05183 0.9123 0.0
H538 H 0.28222 0.07942 0.88126 0.0
H539 H 0.31304 0.0945 0.91241 0.0
C540 C 0.27042 0.96604 0.63911 0.0
C541 C 0.29926 0.9766 0.65749 0.0
C542 C 0.27079 0.96065 0.60659 0.0
C543 C 0.30078 0.96625 0.59226 0.0
C544 C 0.32942 0.9751 0.61096 0.0
C545 C 0.32825 0.98001 0.64345 0.0
C546 C 0.23965 0.95065 0.58738 0.0
C547 C 0.36186 0.9812 0.5964 0.0
C548 C 0.30516 0.93742 0.5098 0.0
C549 C 0.31759 0.96736 0.49275 0.0
C550 C 0.29779 0.93616 0.54203 0.0
C551 C 0.3033 0.9656 0.55746 0.0
C552 C 0.31405 0.99541 0.54003 0.0
C553 C 0.32093 0.99589 0.50776 0.0
C554 C 0.28582 0.90382 0.55985 0.0
C555 C 0.32013 0.0273 0.5558 0.0
H556 H 0.2478 0.96304 0.64991 0.0
H557 H 0.35058 0.98806 0.65755 0.0
H558 H 0.24341 0.97197 0.5724 0.0
H559 H 0.23451 0.92962 0.57134 0.0
H560 H 0.21739 0.94316 0.60255 0.0
H561 H 0.38111 0.98577 0.61449 0.0
H562 H 0.35759 0.95948 0.58179 0.0
H563 H 0.37182 1.00326 0.58054 0.0
H564 H 0.30216 0.91517 0.49822 0.0
H565 H 0.33042 0.01905 0.49467 0.0
H566 H 0.26404 0.89842 0.57491 0.0
H567 H 0.30597 0.90608 0.57569 0.0
H568 H 0.27867 0.88231 0.54372 0.0
H569 H 0.29782 0.02283 0.56954 0.0
H570 H 0.32616 0.04763 0.5385 0.0
H571 H 0.34125 0.0359 0.57266 0.0
C572 C 0.05758 0.36809 0.6448 0.0
C573 C 0.06242 0.34393 0.66002 0.0
C574 C 0.06448 0.37461 0.61254 0.0
C575 C 0.07692 0.35683 0.59538 0.0
C576 C 0.08437 0.33439 0.61118 0.0
C577 C 0.0768 0.32802 0.64336 0.0
C578 C 0.05619 0.39872 0.59638 0.0
C579 C 0.0983 0.31554 0.59375 0.0
C580 C 0.04922 0.34123 0.51015 0.0
C581 C 0.07677 0.36742 0.49485 0.0
C582 C 0.04951 0.33677 0.54282 0.0
C583 C 0.07821 0.3588 0.56047 0.0
C584 C 0.10689 0.38395 0.54494 0.0
C585 C 0.10577 0.3881 0.51224 0.0
C586 C 0.01841 0.30961 0.55864 0.0
C587 C 0.13813 0.40744 0.56301 0.0
H588 H 0.04654 0.38049 0.65761 0.0
H589 H 0.08101 0.30963 0.65518 0.0
H590 H 0.07759 0.4169 0.58187 0.0
H591 H 0.03468 0.38473 0.5802 0.0
H592 H 0.04963 0.41273 0.61353 0.0
H593 H 0.10756 0.30322 0.61018 0.0
H594 H 0.07848 0.29601 0.57873 0.0
H595 H 0.11905 0.33254 0.57793 0.0
H596 H 0.02676 0.32511 0.49685 0.0
H597 H 0.12727 0.40823 0.50049 0.0
H598 H 1.00785 0.32104 0.5746 0.0
H599 H 0.02461 0.29358 0.57334 0.0
H600 H 0.99887 0.29352 0.54131 0.0
H601 H 0.13341 0.42476 0.57734 0.0
H602 H 0.1596 0.42251 0.54705 0.0
H603 H 0.14508 0.39331 0.57958 0.0
C604 C 0.65889 0.72965 0.50761 0.0
C605 C 0.67443 0.71534 0.49024 0.0
C606 C 0.66649 0.73774 0.53956 0.0
C607 C 0.68981 0.7309 0.55443 0.0
C608 C 0.70698 0.71826 0.53658 0.0
C609 C 0.69922 0.71083 0.50456 0.0
C610 C 0.64822 0.75182 0.55777 0.0
C611 C 0.73198 0.71058 0.55175 0.0
C612 C 0.72549 0.76307 0.63573 0.0
C613 C 0.70597 0.73473 0.65437 0.0
C614 C 0.71954 0.76285 0.60323 0.0
C615 C 0.69375 0.73348 0.58918 0.0
C616 C 0.67294 0.70539 0.60812 0.0
C617 C 0.6792 0.70643 0.64057 0.0
C618 C 0.7418 0.79343 0.58376 0.0
C619 C 0.64516 0.67359 0.59389 0.0
H620 H 0.63999 0.73358 0.4965 0.0
H621 H 0.71133 0.69984 0.49121 0.0
H622 H 0.62989 0.73244 0.57398 0.0
H623 H 0.66592 0.77332 0.57248 0.0
H624 H 0.63458 0.76008 0.54191 0.0
H625 H 0.74508 0.70342 0.53409 0.0
H626 H 0.7509 0.73251 0.56521 0.0
H627 H 0.71894 0.68968 0.56876 0.0
H628 H 0.74607 0.78513 0.64632 0.0
H629 H 0.66398 0.68447 0.65484 0.0
H630 H 0.72659 0.79976 0.56798 0.0
H631 H 0.75819 0.78823 0.5685 0.0
H632 H 0.75784 0.81547 0.59875 0.0
H633 H 0.62819 0.67903 0.57981 0.0
H634 H 0.63017 0.65466 0.61213 0.0
H635 H 0.6559 0.6626 0.57759 0.0
C636 C 0.38527 0.37098 0.81034 0.0
C637 C 0.39032 0.40047 0.82466 0.0
C638 C 0.39112 0.37012 0.77801 0.0
C639 C 0.40268 0.39959 0.75982 0.0
C640 C 0.41017 0.42998 0.77459 0.0
C641 C 0.40368 0.43002 0.80689 0.0
C642 C 0.38281 0.3372 0.76297 0.0
C643 C 0.42319 0.462 0.75598 0.0
C644 C 0.42985 0.39331 0.67712 0.0
C645 C 0.40029 0.3835 0.66014 0.0
C646 C 0.43175 0.40056 0.70944 0.0
C647 C 0.4033 0.39752 0.725 0.0
C648 C 0.37406 0.3895 0.70762 0.0
C649 C 0.37298 0.38277 0.67529 0.0
C650 C 0.46354 0.40973 0.7272 0.0
C651 C 0.34318 0.38603 0.7235 0.0
H652 H 0.37506 0.3481 0.82401 0.0
H653 H 0.40804 0.45301 0.81799 0.0
H654 H 0.36108 0.32895 0.74693 0.0
H655 H 0.40409 0.34007 0.74849 0.0
H656 H 0.37661 0.31727 0.78078 0.0
H657 H 0.43252 0.48421 0.77161 0.0
H658 H 0.44368 0.46545 0.73995 0.0
H659 H 0.40285 0.46073 0.74106 0.0
H660 H 0.45118 0.39427 0.66542 0.0
H661 H 0.35012 0.37533 0.66227 0.0
H662 H 0.45957 0.38849 0.74241 0.0
H663 H 0.47048 0.43147 0.74289 0.0
H664 H 0.48474 0.41578 0.711 0.0
H665 H 0.33302 0.36467 0.74023 0.0
H666 H 0.3233 0.38177 0.70627 0.0
H667 H 0.34952 0.40879 0.7374 0.0
C668 C 0.63469 0.04002 0.67332 0.0
C669 C 0.65023 0.02531 0.6566 0.0
C670 C 0.62693 0.03306 0.70539 0.0
C671 C 0.63533 0.01123 0.72099 0.0
C672 C 0.649 0.99462 0.70376 0.0
C673 C 0.65611 1.00173 0.6716 0.0
C674 C 0.6117 0.05065 0.72293 0.0
C675 C 0.65826 0.97113 0.71972 0.0
C676 C 0.66167 0.02597 0.80655 0.0
C677 C 0.63441 0.99889 0.82124 0.0
C678 C 0.66166 0.03102 0.77397 0.0
C679 C 0.63355 1.00863 0.75582 0.0
C680 C 0.60507 0.98257 0.77078 0.0
C681 C 0.60589 0.9779 0.80339 0.0
C682 C 0.69248 0.0592 0.75875 0.0
C683 C 0.57446 0.95865 0.75216 0.0
H684 H 0.62965 0.05793 0.66165 0.0
H685 H 0.66802 0.99023 0.65871 0.0
H686 H 0.59099 0.03289 0.73838 0.0
H687 H 0.63089 0.07029 0.73835 0.0
H688 H 0.60201 0.06265 0.70658 0.0
H689 H 0.66585 0.95802 0.70249 0.0
H690 H 0.67934 0.98544 0.73626 0.0
H691 H 0.63696 0.95217 0.73382 0.0
H692 H 0.68373 0.04235 0.82022 0.0
H693 H 0.58459 0.95708 0.81469 0.0
H694 H 0.68569 0.07483 0.74412 0.0
H695 H 0.70405 0.04874 0.74282 0.0
H696 H 0.71142 0.07549 0.77644 0.0
H697 H 0.56709 0.97249 0.73565 0.0
H698 H 0.55291 0.94276 0.76774 0.0
H699 H 0.58019 0.9421 0.73771 0.0
C700 C 1.00675 0.64038 0.80815 0.0
C701 C 0.03248 0.63838 0.82363 0.0
C702 C 1.00241 0.63556 0.77548 0.0
C703 C 0.02407 0.62815 0.7581 0.0
C704 C 0.04843 0.62359 0.77391 0.0
C705 C 0.05249 0.62896 0.80658 0.0
C706 C 0.97606 0.64057 0.75934 0.0
C707 C 0.07146 0.61498 0.75615 0.0
C708 C 0.99562 0.60188 0.67413 0.0
C709 C 1.01294 0.63263 0.65835 0.0
C710 C 1.00064 0.59945 0.70642 0.0
C711 C 0.02316 0.62856 0.7232 0.0
C712 C 0.04231 0.65919 0.70697 0.0
C713 C 0.03711 0.6608 0.6746 0.0
C714 C 0.98036 0.56624 0.72289 0.0
C715 C 0.06661 0.69079 0.72418 0.0
H716 H 0.99112 0.64752 0.82122 0.0
H717 H 0.07219 0.62699 0.81852 0.0
H718 H 0.98832 0.66304 0.74401 0.0
H719 H 0.96015 0.61891 0.74397 0.0
H720 H 0.95976 0.64389 0.7765 0.0
H721 H 0.08527 0.60717 0.77229 0.0
H722 H 0.05722 0.59463 0.73891 0.0
H723 H 0.08995 0.63714 0.74261 0.0
H724 H 0.97721 0.5799 0.66153 0.0
H725 H 0.05065 0.68459 0.66246 0.0
H726 H 0.96059 0.56673 0.73735 0.0
H727 H 0.99631 0.5614 0.73912 0.0
H728 H 0.9682 0.54522 0.70583 0.0
H729 H 0.05267 0.69829 0.74044 0.0
H730 H 0.08148 0.71183 0.70773 0.0
H731 H 0.08403 0.68645 0.73876 0.0
C732 C 0.65743 0.64111 0.30734 0.0
C733 C 0.62947 0.63902 0.32243 0.0
C734 C 0.65773 0.63724 0.27457 0.0
C735 C 0.62924 0.63076 0.25664 0.0
C736 C 0.60012 0.62629 0.27197 0.0
C737 C 0.60062 0.63063 0.30476 0.0
C738 C 0.68926 0.64209 0.25895 0.0
C739 C 0.56909 0.61873 0.25361 0.0
C740 C 0.65034 0.66368 0.17318 0.0
C741 C 0.64576 0.63529 0.15695 0.0
C742 C 0.64337 0.66214 0.20554 0.0
C743 C 0.63116 0.63138 0.22174 0.0
C744 C 0.62408 0.60213 0.20496 0.0
C745 C 0.63167 0.60448 0.17271 0.0
C746 C 0.65122 0.69387 0.22278 0.0
C747 C 0.6104 0.5688 0.22137 0.0
H748 H 0.67977 0.64752 0.32087 0.0
H749 H 0.57879 0.62867 0.31636 0.0
H750 H 0.68355 0.62056 0.24339 0.0
H751 H 0.70004 0.66477 0.24386 0.0
H752 H 0.70845 0.64492 0.27642 0.0
H753 H 0.54725 0.61144 0.26933 0.0
H754 H 0.57374 0.64117 0.24001 0.0
H755 H 0.56274 0.59832 0.23638 0.0
H756 H 0.6612 0.68752 0.16106 0.0
H757 H 0.6277 0.58236 0.16011 0.0
H758 H 0.67247 0.70091 0.23917 0.0
H759 H 0.62952 0.68996 0.23721 0.0
H760 H 0.65794 0.71506 0.20634 0.0
H761 H 0.63018 0.56896 0.23635 0.0
H762 H 0.60169 0.54782 0.2043 0.0
H763 H 0.58931 0.56415 0.23712 0.0
C764 C 0.37873 1.00093 0.17421 0.0
C765 C 0.4066 0.02693 0.15911 0.0
C766 C 0.37906 0.99587 0.20677 0.0
C767 C 0.40808 0.01709 0.22444 0.0
C768 C 0.43711 0.04175 0.20897 0.0
C769 C 0.43597 0.04651 0.17642 0.0
C770 C 0.34761 0.96921 0.22255 0.0
C771 C 0.46868 0.06436 0.22703 0.0
C772 C 0.389 0.02869 0.30862 0.0
C773 C 0.39329 1.0044 0.32427 0.0
C774 C 0.39538 0.03427 0.27621 0.0
C775 C 0.4067 0.01537 0.25932 0.0
C776 C 0.41344 0.99261 0.27544 0.0
C777 C 0.40645 0.98723 0.30779 0.0
C778 C 0.38794 0.05882 0.2597 0.0
C779 C 0.42619 0.97257 0.25825 0.0
H780 H 0.35601 0.98565 0.16094 0.0
H781 H 0.45774 0.06642 0.16477 0.0
H782 H 0.35326 0.95296 0.23753 0.0
H783 H 0.33735 0.98116 0.23822 0.0
H784 H 0.32805 0.95329 0.20516 0.0
H785 H 0.49035 0.07868 0.21105 0.0
H786 H 0.46491 0.08239 0.24121 0.0
H787 H 0.47481 0.04968 0.24372 0.0
H788 H 0.37892 0.04208 0.32129 0.0
H789 H 0.41022 0.96871 0.31992 0.0
H790 H 0.36649 0.04516 0.24339 0.0
H791 H 0.40966 0.07659 0.24528 0.0
H792 H 0.38171 0.0733 0.2766 0.0
H793 H 0.40589 0.95328 0.24344 0.0
H794 H 0.43486 0.95984 0.27483 0.0
H795 H 0.44709 0.98885 0.24224 0.0
C796 C 0.04728 0.42373 0.30745 0.0
C797 C 0.03134 0.39428 0.32541 0.0
C798 C 0.04058 0.42347 0.27518 0.0
C799 C 0.01763 0.39299 0.2606 0.0
C800 C 1.00001 0.36357 0.27894 0.0
C801 C 1.00697 0.36461 0.31127 0.0
C802 C 0.0594 0.45541 0.25641 0.0
C803 C 0.97525 0.3306 0.26408 0.0
C804 C 0.9833 0.3893 0.1787 0.0
C805 C 1.00278 0.38001 0.16056 0.0
C806 C 0.98872 0.395 0.21122 0.0
C807 C 0.01405 0.3911 0.22582 0.0
C808 C 0.0349 0.38341 0.20741 0.0
C809 C 0.02909 0.37809 0.1749 0.0
C810 C 0.96637 0.40367 0.23011 0.0
C811 C 0.06228 0.37918 0.22228 0.0
H812 H 0.06588 0.44684 0.31839 0.0
H813 H 0.99457 0.34181 0.32506 0.0
H814 H 0.07764 0.4537 0.24061 0.0
H815 H 0.04202 0.45922 0.24122 0.0
H816 H 0.0732 0.47762 0.27188 0.0
H817 H 0.96186 0.31068 0.28198 0.0
H818 H 0.95656 0.33339 0.24996 0.0
H819 H 0.98853 0.32243 0.2477 0.0
H820 H 0.96307 0.39109 0.16769 0.0
H821 H 0.04424 0.37096 0.161 0.0
H822 H 0.98153 0.42554 0.24556 0.0
H823 H 0.94996 0.38239 0.24569 0.0
H824 H 0.95035 0.40935 0.21474 0.0
H825 H 0.07917 0.40161 0.23638 0.0
H826 H 0.07742 0.37499 0.20441 0.0
H827 H 0.05113 0.35753 0.23868 0.0
C828 C 0.24047 0.89949 0.37463 0.0
C829 C 0.26542 0.89166 0.36747 0.0
C830 C 0.20951 0.88384 0.35885 0.0
C831 C 0.20365 0.86058 0.33441 0.0
C832 C 0.22888 0.85267 0.32698 0.0
C833 C 0.25923 0.86789 0.34397 0.0
C834 C 0.18304 0.89216 0.36843 0.0
C835 C 0.22409 0.82872 0.30059 0.0
C836 C 0.11423 0.79735 0.31046 0.0
C837 C 0.10899 0.81291 0.28436 0.0
C838 C 0.14456 0.81283 0.32724 0.0
C839 C 0.17096 0.8442 0.31703 0.0
C840 C 0.16587 0.85996 0.29049 0.0
C841 C 0.13472 0.8444 0.27482 0.0
C842 C 0.14824 0.79563 0.35603 0.0
C843 C 0.19357 0.89295 0.27828 0.0
H844 H 0.2451 0.91781 0.39285 0.0
H845 H 0.27861 0.86211 0.33804 0.0
H846 H 0.17719 0.90377 0.34832 0.0
H847 H 0.15962 0.86896 0.37476 0.0
H848 H 0.19092 0.90957 0.38886 0.0
H849 H 0.24643 0.82599 0.29706 0.0
H850 H 0.20232 0.80375 0.30571 0.0
H851 H 0.21868 0.8376 0.27819 0.0
H852 H 0.09428 0.77309 0.31807 0.0
H853 H 0.13087 0.85634 0.25449 0.0
H854 H 0.1556 0.81258 0.37675 0.0
H855 H 0.16834 0.78956 0.35211 0.0
H856 H 0.12479 0.77217 0.36183 0.0
H857 H 0.20116 0.91243 0.29677 0.0
H858 H 0.18606 0.90142 0.25681 0.0
H859 H 0.21584 0.89076 0.27257 0.0
C860 C 0.19742 0.30436 0.27367 0.0
C861 C 0.22897 0.3104 0.28336 0.0
C862 C 0.18154 0.31966 0.28926 0.0
C863 C 0.19708 0.34058 0.3158 0.0
C864 C 0.22852 0.34587 0.32614 0.0
C865 C 0.24426 0.33122 0.30951 0.0
C866 C 0.14843 0.31395 0.27698 0.0
C867 C 0.24552 0.3669 0.35491 0.0
C868 C 0.17236 0.4044 0.34255 0.0
C869 C 0.14881 0.3867 0.36621 0.0
C870 C 0.18784 0.38954 0.32558 0.0
C871 C 0.18037 0.35657 0.33311 0.0
C872 C 0.15731 0.33904 0.35765 0.0
C873 C 0.14146 0.35408 0.37349 0.0
C874 C 0.21167 0.40886 0.29915 0.0
C875 C 0.14939 0.30436 0.36726 0.0
H876 H 0.18567 0.28854 0.2533 0.0
H877 H 0.26856 0.33576 0.31725 0.0
H878 H 0.12897 0.30199 0.29548 0.0
H879 H 0.15036 0.33827 0.27114 0.0
H880 H 0.14011 0.29788 0.25558 0.0
H881 H 0.26918 0.36733 0.36071 0.0
H882 H 0.25119 0.39295 0.35095 0.0
H883 H 0.2286 0.35713 0.37564 0.0
H884 H 0.17779 0.42943 0.33654 0.0
H885 H 0.12334 0.34029 0.39183 0.0
H886 H 0.20289 0.39451 0.27677 0.0
H887 H 0.23676 0.41236 0.30424 0.0
H888 H 0.2141 0.4338 0.29558 0.0
H889 H 0.13806 0.28688 0.34713 0.0
H890 H 0.1319 0.29462 0.38762 0.0
H891 H 0.17274 0.3045 0.37371 0.0
C892 C 0.68898 0.89515 0.27439 0.0
C893 C 0.72132 0.92057 0.28232 0.0
C894 C 0.67392 0.86401 0.28981 0.0
C895 C 0.69108 0.85839 0.31466 0.0
C896 C 0.72377 0.88406 0.32284 0.0
C897 C 0.73871 0.91463 0.30622 0.0
C898 C 0.63962 0.83709 0.27945 0.0
C899 C 0.74265 0.87951 0.34967 0.0
C900 C 0.6381 0.78857 0.37337 0.0
C901 C 0.64482 0.7634 0.36411 0.0
C902 C 0.65338 0.81979 0.35785 0.0
C903 C 0.67494 0.82555 0.33176 0.0
C904 C 0.68087 0.7997 0.32179 0.0
C905 C 0.66626 0.76927 0.33841 0.0
C906 C 0.64702 0.84689 0.36979 0.0
C907 C 0.70258 0.8041 0.29347 0.0
H908 H 0.67546 0.89959 0.25585 0.0
H909 H 0.76352 0.93435 0.31273 0.0
H910 H 0.64017 0.81404 0.2732 0.0
H911 H 0.62158 0.83065 0.29914 0.0
H912 H 0.6303 0.84484 0.25876 0.0
H913 H 0.7674 0.90214 0.35371 0.0
H914 H 0.72779 0.8736 0.37176 0.0
H915 H 0.74651 0.85813 0.34469 0.0
H916 H 0.62182 0.78424 0.39342 0.0
H917 H 0.67135 0.74978 0.33104 0.0
H918 H 0.63535 0.85432 0.35095 0.0
H919 H 0.67108 0.8694 0.37606 0.0
H920 H 0.63045 0.83886 0.39085 0.0
H921 H 0.69325 0.81141 0.27252 0.0
H922 H 0.70322 0.78097 0.28773 0.0
H923 H 0.7285 0.8245 0.29795 0.0
C924 C 0.80431 0.12507 0.21106 0.0
C925 C 0.8117 0.09994 0.20334 0.0
C926 C 0.82014 0.15616 0.19556 0.0
C927 C 0.8431 0.16194 0.17085 0.0
C928 C 0.85064 0.13658 0.16293 0.0
C929 C 0.83526 0.10608 0.17964 0.0
C930 C 0.81224 0.18279 0.20564 0.0
C931 C 0.87428 0.14134 0.13624 0.0
C932 C 0.85914 0.23102 0.11159 0.0
C933 C 0.89088 0.25648 0.12082 0.0
C934 C 0.84347 0.19992 0.12733 0.0
C935 C 0.85944 0.19466 0.15359 0.0
C936 C 0.89103 0.22084 0.16355 0.0
C937 C 0.90657 0.25111 0.14672 0.0
C938 C 0.81021 0.17243 0.11541 0.0
C939 C 0.90845 0.21694 0.19206 0.0
H940 H 0.78611 0.12041 0.22942 0.0
H941 H 0.84064 0.08653 0.1733 0.0
H942 H 0.83564 0.20611 0.21175 0.0
H943 H 0.80038 0.18878 0.18585 0.0
H944 H 0.79519 0.17498 0.22634 0.0
H945 H 0.8769 0.11896 0.13248 0.0
H946 H 0.86517 0.1468 0.11401 0.0
H947 H 0.89934 0.16307 0.14116 0.0
H948 H 0.84714 0.23499 0.09137 0.0
H949 H 0.93107 0.27086 0.15402 0.0
H950 H 0.79104 0.16481 0.13421 0.0
H951 H 0.81217 0.15012 0.10928 0.0
H952 H 0.80149 0.18015 0.09426 0.0
H953 H 0.8917 0.20951 0.21294 0.0
H954 H 0.93201 0.24032 0.19778 0.0
H955 H 0.9144 0.1968 0.1878 0.0
C956 C 0.78041 0.67397 0.14506 0.0
C957 C 0.77419 0.6511 0.12057 0.0
C958 C 0.81076 0.68892 0.16179 0.0
C959 C 0.83618 0.68181 0.15316 0.0
C960 C 0.83008 0.6588 0.1283 0.0
C961 C 0.79893 0.64327 0.11267 0.0
C962 C 0.81555 0.71224 0.18882 0.0
C963 C 0.85673 0.65112 0.1178 0.0
C964 C 0.9258 0.745 0.17771 0.0
C965 C 0.93105 0.72829 0.20273 0.0
C966 C 0.89521 0.73006 0.16113 0.0
C967 C 0.86889 0.69813 0.17045 0.0
C968 C 0.8738 0.6818 0.19649 0.0
C969 C 0.90494 0.69677 0.21189 0.0
C970 C 0.89138 0.748 0.13304 0.0
C971 C 0.84621 0.64837 0.20804 0.0
H972 H 0.76125 0.67994 0.15139 0.0
H973 H 0.79435 0.6259 0.09354 0.0
H974 H 0.82221 0.70357 0.21065 0.0
H975 H 0.83652 0.73765 0.18353 0.0
H976 H 0.79279 0.71393 0.19351 0.0
H977 H 0.84852 0.63355 0.09749 0.0
H978 H 0.87962 0.67458 0.11091 0.0
H979 H 0.86361 0.64003 0.1376 0.0
H980 H 0.94608 0.76912 0.17025 0.0
H981 H 0.90891 0.68378 0.23125 0.0
H982 H 0.8702 0.75246 0.13688 0.0
H983 H 0.88554 0.73216 0.11164 0.0
H984 H 0.9143 0.77237 0.12848 0.0
H985 H 0.82343 0.64984 0.21319 0.0
H986 H 0.85339 0.63988 0.22969 0.0
H987 H 0.83958 0.62922 0.18938 0.0
C988 C 0.29851 0.19781 0.17437 0.0
C989 C 0.31542 0.22007 0.19915 0.0
C990 C 0.31328 0.1819 0.15792 0.0
C991 C 0.34525 0.18756 0.16714 0.0
C992 C 0.36188 0.20925 0.19282 0.0
C993 C 0.34704 0.22561 0.20811 0.0
C994 C 0.29501 0.15964 0.13022 0.0
C995 C 0.39537 0.21517 0.20424 0.0
C996 C 0.36854 0.12212 0.14348 0.0
C997 C 0.39124 0.138 0.11867 0.0
C998 C 0.35391 0.13813 0.15971 0.0
C999 C 0.36118 0.1705 0.15029 0.0
C1000 C 0.38401 0.18664 0.12511 0.0
C1001 C 0.39921 0.17042 0.10995 0.0
C1002 C 0.33076 0.1204 0.18709 0.0
C1003 C 0.39188 0.22078 0.11377 0.0
H1004 H 0.27428 0.19379 0.16709 0.0
H1005 H 0.36019 0.24271 0.22733 0.0
H1006 H 0.31079 0.16894 0.10871 0.0
H1007 H 0.29014 0.13394 0.13468 0.0
H1008 H 0.27081 0.15849 0.12548 0.0
H1009 H 0.40433 0.23158 0.2254 0.0
H1010 H 0.39372 0.19099 0.21016 0.0
H1011 H 0.41426 0.2269 0.18523 0.0
H1012 H 0.36245 0.09711 0.15045 0.0
H1013 H 0.41645 0.18264 0.09059 0.0
H1014 H 0.30539 0.11605 0.18179 0.0
H1015 H 0.33972 0.13625 0.20857 0.0
H1016 H 0.32888 0.09597 0.19238 0.0
H1017 H 0.36846 0.22024 0.10677 0.0
H1018 H 0.40929 0.22952 0.09332 0.0
H1019 H 0.40324 0.23924 0.13317 0.0
C1020 C 0.80364 0.13962 0.60619 0.0
C1021 C 0.77735 0.14472 0.61537 0.0
C1022 C 0.83492 0.1563 0.62133 0.0
C1023 C 0.83982 0.17776 0.64719 0.0
C1024 C 0.81326 0.18293 0.65664 0.0
C1025 C 0.78254 0.1668 0.64026 0.0
C1026 C 0.86275 0.15093 0.60961 0.0
C1027 C 0.81701 0.20483 0.68458 0.0
C1028 C 0.91106 0.19501 0.70425 0.0
C1029 C 0.93523 0.2277 0.69598 0.0
C1030 C 0.8797 0.17866 0.68898 0.0
C1031 C 0.8728 0.19493 0.66408 0.0
C1032 C 0.89765 0.22759 0.65508 0.0
C1033 C 0.92821 0.24375 0.67149 0.0
C1034 C 0.85368 0.14424 0.69995 0.0
C1035 C 0.89204 0.24549 0.62798 0.0
H1036 H 0.79977 0.12262 0.58688 0.0
H1037 H 0.76215 0.17046 0.64772 0.0
H1038 H 0.88515 0.17534 0.60398 0.0
H1039 H 0.87004 0.13904 0.62835 0.0
H1040 H 0.85549 0.13489 0.58821 0.0
H1041 H 0.7938 0.20562 0.68948 0.0
H1042 H 0.82366 0.19547 0.70594 0.0
H1043 H 0.83765 0.23068 0.6803 0.0
H1044 H 0.91624 0.18267 0.7234 0.0
H1045 H 0.9469 0.26898 0.6649 0.0
H1046 H 0.84685 0.12607 0.68034 0.0
H1047 H 0.83062 0.14436 0.70705 0.0
H1048 H 0.86248 0.13542 0.72025 0.0
H1049 H 0.88527 0.22989 0.60632 0.0
H1050 H 0.91448 0.27008 0.62288 0.0
H1051 H 0.87088 0.24956 0.63346 0.0
C1052 C 0.87627 0.63069 0.63879 0.0
C1053 C 0.90004 0.64861 0.61538 0.0
C1054 C 0.8604 0.6453 0.65553 0.0
C1055 C 0.86761 0.67817 0.64791 0.0
C1056 C 0.8909 0.6959 0.62358 0.0
C1057 C 0.90724 0.68117 0.60807 0.0
C1058 C 0.83648 0.62583 0.68186 0.0
C1059 C 0.89848 0.73042 0.61378 0.0
C1060 C 0.80268 0.7023 0.67103 0.0
C1061 C 0.81774 0.72333 0.69708 0.0
C1062 C 0.81888 0.68804 0.65451 0.0
C1063 C 0.85048 0.69387 0.66497 0.0
C1064 C 0.86573 0.71496 0.69147 0.0
C1065 C 0.84944 0.72995 0.70686 0.0
C1066 C 0.8022 0.66687 0.62574 0.0
C1067 C 0.89893 0.72112 0.70396 0.0
H1068 H 0.87098 0.60571 0.6448 0.0
H1069 H 0.92555 0.69507 0.5899 0.0
H1070 H 0.8449 0.64028 0.70421 0.0
H1071 H 0.81128 0.62192 0.6765 0.0
H1072 H 0.83441 0.60108 0.68563 0.0
H1073 H 0.91603 0.74023 0.59347 0.0
H1074 H 0.87502 0.72997 0.60719 0.0
H1075 H 0.90961 0.74801 0.63386 0.0
H1076 H 0.77824 0.69731 0.66328 0.0
H1077 H 0.86098 0.74592 0.72718 0.0
H1078 H 0.79672 0.6409 0.62984 0.0
H1079 H 0.81926 0.6767 0.6051 0.0
H1080 H 0.77848 0.66621 0.61971 0.0
H1081 H 0.89732 0.69695 0.70988 0.0
H1082 H 0.90695 0.7372 0.72536 0.0
H1083 H 0.91847 0.73328 0.68556 0.0
C1084 C 0.28978 0.10519 0.6796 0.0
C1085 C 0.3075 0.09968 0.70347 0.0
C1086 C 0.30432 0.13564 0.66279 0.0
C1087 C 0.33694 0.16161 0.67076 0.0
C1088 C 0.35439 0.15645 0.69563 0.0
C1089 C 0.33973 0.12541 0.71124 0.0
C1090 C 0.28516 0.13969 0.63593 0.0
C1091 C 0.38863 0.1837 0.70577 0.0
C1092 C 0.38936 0.23089 0.61141 0.0
C1093 C 0.38251 0.25604 0.62038 0.0
C1094 C 0.37427 0.19983 0.62721 0.0
C1095 C 0.35277 0.19424 0.65331 0.0
C1096 C 0.34666 0.22006 0.66297 0.0
C1097 C 0.36109 0.25031 0.64607 0.0
C1098 C 0.38079 0.17274 0.61558 0.0
C1099 C 0.325 0.21582 0.69128 0.0
H1100 H 0.26506 0.08521 0.67321 0.0
H1101 H 0.35351 0.12128 0.72973 0.0
H1102 H 0.28124 0.16109 0.64062 0.0
H1103 H 0.29984 0.14531 0.61376 0.0
H1104 H 0.26042 0.11695 0.63222 0.0
H1105 H 0.3981 0.17636 0.72663 0.0
H1106 H 0.40664 0.18997 0.68608 0.0
H1107 H 0.3879 0.20673 0.71165 0.0
H1108 H 0.40562 0.23509 0.59137 0.0
H1109 H 0.3559 0.2698 0.65323 0.0
H1110 H 0.35678 0.15002 0.60962 0.0
H1111 H 0.39276 0.16573 0.63448 0.0
H1112 H 0.39719 0.18058 0.59439 0.0
H1113 H 0.29917 0.19511 0.68705 0.0
H1114 H 0.32404 0.23885 0.69665 0.0
H1115 H 0.33462 0.20903 0.71237 0.0
C1116 C 0.1949 0.91291 0.80401 0.0
C1117 C 0.2203 0.92 0.78203 0.0
C1118 C 0.17947 0.88246 0.82084 0.0
C1119 C 0.1889 0.85808 0.81482 0.0
C1120 C 0.21381 0.86481 0.79187 0.0
C1121 C 0.22954 0.89581 0.7762 0.0
C1122 C 0.15364 0.87671 0.84562 0.0
C1123 C 0.22389 0.83923 0.78383 0.0
C1124 C 0.17164 0.79013 0.87591 0.0
C1125 C 0.14112 0.76368 0.86524 0.0
C1126 C 0.18723 0.82116 0.86005 0.0
C1127 C 0.17255 0.82542 0.83224 0.0
C1128 C 0.14225 0.79827 0.82089 0.0
C1129 C 0.12663 0.76805 0.83785 0.0
C1130 C 0.219 0.84965 0.87346 0.0
C1131 C 0.12629 0.80108 0.79078 0.0
H1132 H 0.18797 0.93167 0.80892 0.0
H1133 H 0.24909 0.90111 0.75914 0.0
H1134 H 0.12943 0.85433 0.83954 0.0
H1135 H 0.16155 0.8718 0.86882 0.0
H1136 H 0.14968 0.89842 0.84809 0.0
H1137 H 0.24248 0.84767 0.76436 0.0
H1138 H 0.23476 0.83397 0.8049 0.0
H1139 H 0.20157 0.81537 0.77676 0.0
H1140 H 0.18268 0.78692 0.89727 0.0
H1141 H 0.10308 0.74755 0.82946 0.0
H1142 H 0.21549 0.87131 0.87827 0.0
H1143 H 0.23956 0.85796 0.85603 0.0
H1144 H 0.22675 0.84265 0.8957 0.0
H1145 H 0.11888 0.82036 0.79353 0.0
H1146 H 0.10381 0.77709 0.78417 0.0
H1147 H 0.14453 0.80915 0.77106 0.0
C1148 C 0.13294 0.30728 0.77875 0.0
C1149 C 0.1078 0.31412 0.78781 0.0
C1150 C 0.16408 0.32246 0.79442 0.0
C1151 C 0.16977 0.34405 0.82047 0.0
C1152 C 0.14391 0.35004 0.83028 0.0
C1153 C 0.11359 0.33554 0.8135 0.0
C1154 C 0.19119 0.31605 0.78262 0.0
C1155 C 0.14824 0.37178 0.85855 0.0
C1156 C 0.23954 0.35839 0.87781 0.0
C1157 C 0.26491 0.39071 0.86975 0.0
C1158 C 0.20833 0.34326 0.86248 0.0
C1159 C 0.20262 0.3603 0.83757 0.0
C1160 C 0.22824 0.39297 0.82927 0.0
C1161 C 0.25886 0.408 0.84581 0.0
C1162 C 0.18146 0.30899 0.87297 0.0
C1163 C 0.22363 0.41172 0.80237 0.0
H1164 H 0.12869 0.29103 0.7587 0.0
H1165 H 0.09412 0.34074 0.82069 0.0
H1166 H 0.21368 0.34009 0.77623 0.0
H1167 H 0.19866 0.30453 0.80157 0.0
H1168 H 0.18317 0.29935 0.76167 0.0
H1169 H 0.12507 0.37237 0.86424 0.0
H1170 H 0.15557 0.36252 0.87954 0.0
H1171 H 0.16859 0.39771 0.85403 0.0
H1172 H 0.24407 0.34495 0.89635 0.0
H1173 H 0.27854 0.43277 0.83919 0.0
H1174 H 0.17508 0.29085 0.85338 0.0
H1175 H 0.15838 0.3095 0.87913 0.0
H1176 H 0.18924 0.29981 0.89375 0.0
H1177 H 0.21773 0.39679 0.78033 0.0
H1178 H 0.24621 0.43648 0.79826 0.0
H1179 H 0.2022 0.41554 0.8073 0.0
C1180 C 0.69693 0.80524 0.77202 0.0
C1181 C 0.72933 0.81225 0.77976 0.0
C1182 C 0.68179 0.82104 0.78777 0.0
C1183 C 0.69894 0.84362 0.81275 0.0
C1184 C 0.73173 0.85078 0.8207 0.0
C1185 C 0.74674 0.83543 0.80376 0.0
C1186 C 0.64737 0.81351 0.77767 0.0
C1187 C 0.75061 0.87401 0.84764 0.0
C1188 C 0.67338 0.90708 0.83743 0.0
C1189 C 0.65201 0.89111 0.86309 0.0
C1190 C 0.68827 0.89169 0.82057 0.0
C1191 C 0.68268 0.85995 0.83023 0.0
C1192 C 0.66122 0.84375 0.8563 0.0
C1193 C 0.64567 0.85927 0.87207 0.0
C1194 C 0.70987 0.90941 0.79229 0.0
C1195 C 0.65521 0.8103 0.8679 0.0
H1196 H 0.68338 0.78736 0.75344 0.0
H1197 H 0.77158 0.84054 0.81014 0.0
H1198 H 0.62941 0.80154 0.79736 0.0
H1199 H 0.64768 0.83708 0.77181 0.0
H1200 H 0.63809 0.79669 0.75681 0.0
H1201 H 0.77551 0.8764 0.85137 0.0
H1202 H 0.75415 0.8992 0.84303 0.0
H1203 H 0.73592 0.86468 0.86978 0.0
H1204 H 0.67817 0.93162 0.83025 0.0
H1205 H 0.62943 0.84701 0.89208 0.0
H1206 H 0.70049 0.89301 0.77118 0.0
H1207 H 0.73582 0.91494 0.79657 0.0
H1208 H 0.71043 0.93322 0.78694 0.0
H1209 H 0.64352 0.79132 0.84896 0.0
H1210 H 0.63878 0.80149 0.88905 0.0
H1211 H 0.6794 0.81201 0.8739 0.0
C1212 C 0.46741 0.45755 0.54245 0.0
C1213 C 0.47227 0.43113 0.53319 0.0
C1214 C 0.48424 0.48883 0.52731 0.0
C1215 C 0.50559 0.4936 0.5014 0.0
C1216 C 0.51044 0.46687 0.49181 0.0
C1217 C 0.49419 0.43615 0.50818 0.0
C1218 C 0.47922 0.51683 0.53918 0.0
C1219 C 0.53221 0.47049 0.4638 0.0
C1220 C 0.52378 0.5655 0.44484 0.0
C1221 C 0.55656 0.58931 0.45322 0.0
C1222 C 0.50709 0.53403 0.45989 0.0
C1223 C 0.52312 0.52667 0.48468 0.0
C1224 C 0.55589 0.55116 0.49379 0.0
C1225 C 0.57237 0.58183 0.47759 0.0
C1226 C 0.47258 0.50839 0.44881 0.0
C1227 C 0.57354 0.54506 0.5208 0.0
H1228 H 0.45056 0.45381 0.56185 0.0
H1229 H 0.49766 0.41567 0.50067 0.0
H1230 H 0.50374 0.539 0.54497 0.0
H1231 H 0.46761 0.52448 0.52047 0.0
H1232 H 0.46309 0.50958 0.56052 0.0
H1233 H 0.53258 0.4471 0.45867 0.0
H1234 H 0.52306 0.47755 0.44254 0.0
H1235 H 0.5582 0.49081 0.46815 0.0
H1236 H 0.51162 0.57105 0.42579 0.0
H1237 H 0.59767 0.60026 0.48427 0.0
H1238 H 0.45439 0.50163 0.46842 0.0
H1239 H 0.47239 0.48521 0.44156 0.0
H1240 H 0.46399 0.5175 0.42859 0.0
H1241 H 0.55794 0.53834 0.54245 0.0
H1242 H 0.59828 0.56725 0.52597 0.0
H1243 H 0.57725 0.52371 0.51516 0.0
C1244 C 0.59412 0.03102 0.50614 0.0
C1245 C 0.60067 0.05368 0.53091 0.0
C1246 C 0.56369 0.01646 0.48954 0.0
C1247 C 0.53851 0.02377 0.49856 0.0
C1248 C 0.5449 0.04652 0.52373 0.0
C1249 C 0.57612 0.06165 0.53925 0.0
C1250 C 0.5586 0.9934 0.4622 0.0
C1251 C 0.51852 0.05441 0.53465 0.0
C1252 C 0.46988 0.00999 0.44006 0.0
C1253 C 0.44374 0.97833 0.44877 0.0
C1254 C 0.50096 0.02469 0.45557 0.0
C1255 C 0.50574 1.00793 0.48133 0.0
C1256 C 0.47931 0.97593 0.49031 0.0
C1257 C 0.44883 0.96125 0.47357 0.0
C1258 C 0.5287 0.05819 0.44434 0.0
C1259 C 0.48295 0.95756 0.51814 0.0
H1260 H 0.61313 0.02497 0.49941 0.0
H1261 H 0.58094 0.0789 0.55855 0.0
H1262 H 0.53747 0.96802 0.4673 0.0
H1263 H 0.55202 1.00245 0.44057 0.0
H1264 H 0.5812 0.99149 0.45724 0.0
H1265 H 0.52691 0.07168 0.5552 0.0
H1266 H 0.5118 0.06596 0.51512 0.0
H1267 H 0.49548 0.03099 0.54132 0.0
H1268 H 0.46603 0.02325 0.42086 0.0
H1269 H 0.4285 0.937 0.48068 0.0
H1270 H 0.55132 0.05655 0.43883 0.0
H1271 H 0.53557 0.07707 0.4633 0.0
H1272 H 0.52154 0.06713 0.42297 0.0
H1273 H 0.50383 0.9527 0.51398 0.0
H1274 H 0.45983 0.93335 0.52267 0.0
H1275 H 0.48915 0.97327 0.53967 0.0
C1276 C 0.06799 0.5076 0.44013 0.0
C1277 C 0.06122 0.4759 0.4501 0.0
C1278 C 0.0533 0.5242 0.45548 0.0
C1279 C 0.03232 0.50925 0.48211 0.0
C1280 C 0.0263 0.47764 0.49274 0.0
C1281 C 0.0403 0.46115 0.4763 0.0
C1282 C 0.05971 0.55743 0.44284 0.0
C1283 C 1.0052 0.46125 0.52164 0.0
C1284 C 0.02054 0.56659 0.53902 0.0
C1285 C 0.98805 0.55969 0.53184 0.0
C1286 C 0.03498 0.55001 0.52342 0.0
C1287 C 0.01699 0.52674 0.49917 0.0
C1288 C 0.98419 0.51982 0.49168 0.0
C1289 C 0.9699 0.53596 0.50847 0.0
C1290 C 0.06946 0.55731 0.53304 0.0
C1291 C 0.96444 0.49587 0.46548 0.0
H1292 H 0.08389 0.51892 0.41971 0.0
H1293 H 0.03519 0.43672 0.48422 0.0
H1294 H 0.03561 0.55602 0.43701 0.0
H1295 H 0.0721 0.57704 0.46113 0.0
H1296 H 0.07566 0.5652 0.42136 0.0
H1297 H 1.00427 0.43741 0.52772 0.0
H1298 H 0.01531 0.47838 0.5422 0.0
H1299 H 0.97932 0.45606 0.51766 0.0
H1300 H 0.03464 0.58483 0.55717 0.0
H1301 H 0.94496 0.53088 0.50257 0.0
H1302 H 0.08693 0.56811 0.51283 0.0
H1303 H 0.06878 0.53377 0.53979 0.0
H1304 H 0.07957 0.57502 0.55321 0.0
H1305 H 0.9788 0.50406 0.44306 0.0
H1306 H 0.93979 0.49406 0.46179 0.0
H1307 H 0.96028 0.47059 0.47094 0.0
C1308 C 0.47079 0.47481 0.93811 0.0
C1309 C 0.44565 0.4822 0.94579 0.0
C1310 C 0.50199 0.49092 0.9534 0.0
C1311 C 0.50789 0.51414 0.97788 0.0
C1312 C 0.48252 0.5217 0.98574 0.0
C1313 C 0.45191 0.50605 0.96923 0.0
C1314 C 0.52862 0.48298 0.94339 0.0
C1315 C 0.48738 0.54562 0.01219 0.0
C1316 C 0.57698 0.53086 0.03734 0.0
C1317 C 0.60236 0.56259 0.02799 0.0
C1318 C 0.54594 0.51494 0.02152 0.0
C1319 C 0.54065 0.53064 -0.00494 0.0
C1320 C 0.56678 0.5622 0.98494 0.0
C1321 C 0.597 0.57801 0.00187 0.0
C1322 C 0.51851 0.48173 0.03361 0.0
C1323 C 0.56285 0.57936 0.95624 0.0
H1324 H 0.46604 0.4564 0.91996 0.0
H1325 H 0.43235 0.51143 0.97556 0.0
H1326 H 0.55191 0.50635 0.93713 0.0
H1327 H 0.53468 0.47127 0.96326 0.0
H1328 H 0.52076 0.46578 0.9228 0.0
H1329 H 0.46501 0.54826 0.01589 0.0
H1330 H 0.49294 0.53674 0.03451 0.0
H1331 H 0.50908 0.57063 0.00704 0.0
H1332 H 0.58094 0.51909 0.05775 0.0
H1333 H 0.61668 0.60252 -0.0055 0.0
H1334 H 0.51084 0.46245 0.01493 0.0
H1335 H 0.49621 0.48371 0.03974 0.0
H1336 H 0.5263 0.47315 0.05481 0.0
H1337 H 0.55528 0.56238 0.93552 0.0
H1338 H 0.58626 0.60281 0.95031 0.0
H1339 H 0.5428 0.58545 0.96041 0.0
C1340 C 0.5649 1.00679 0.9382 0.0
C1341 C 0.56024 0.97569 0.94784 0.0
C1342 C 0.54841 0.02153 0.95342 0.0
C1343 C 0.52762 1.00542 0.9798 0.0
C1344 C 0.52289 0.97398 0.98971 0.0
C1345 C 0.5388 0.95921 0.97326 0.0
C1346 C 0.55327 0.05438 0.94123 0.0
C1347 C 0.50171 0.95633 0.01819 0.0
C1348 C 0.51105 0.06022 0.03639 0.0
C1349 C 0.47813 0.05127 0.02862 0.0
C1350 C 0.52729 0.04511 0.02111 0.0
C1351 C 0.51062 0.02136 -0.00328 0.0
C1352 C 0.47771 0.01311 0.98821 0.0
C1353 C 0.46173 0.02768 0.00461 0.0
C1354 C 0.56201 0.05401 0.03151 0.0
C1355 C 0.45938 0.98897 0.96166 0.0
H1356 H 0.58143 0.01959 0.9185 0.0
H1357 H 0.53553 0.93542 0.98108 0.0
H1358 H 0.52866 0.05207 0.93598 0.0
H1359 H 0.56547 0.07398 0.95957 0.0
H1360 H 0.56882 0.0628 0.9195 0.0
H1361 H 0.5012 0.93252 0.02338 0.0
H1362 H 0.5115 0.97282 0.03921 0.0
H1363 H 0.47571 0.95086 0.01438 0.0
H1364 H 0.52368 0.07816 0.05516 0.0
H1365 H 0.43632 0.02082 -0.00161 0.0
H1366 H 0.57973 0.06502 0.0115 0.0
H1367 H 0.56224 0.03109 0.03893 0.0
H1368 H 0.57115 0.07208 0.05144 0.0
H1369 H 0.47448 0.99744 0.93968 0.0
H1370 H 0.43457 0.98645 0.95692 0.0
H1371 H 0.45567 0.96394 0.96751 0.0
C1372 C 0.02248 0.56191 0.94192 0.0
C1373 C 0.05444 0.58765 0.95047 0.0
C1374 C 1.00743 0.53077 0.9573 0.0
C1375 C 0.0242 0.52546 0.9827 0.0
C1376 C 0.05652 0.55143 0.9915 0.0
C1377 C 0.07148 0.58204 0.97493 0.0
C1378 C 0.97355 0.50353 0.94632 0.0
C1379 C 0.07495 0.54716 0.0189 0.0
C1380 C 0.97038 0.45503 0.04051 0.0
C1381 C 0.97779 0.43024 0.03163 0.0
C1382 C 0.98573 0.48636 0.02518 0.0
C1383 C 1.00807 0.49257 -0.00033 0.0
C1384 C 0.01469 0.46709 0.99007 0.0
C1385 C 0.99998 0.43656 0.0065 0.0
C1386 C 0.97859 0.51306 0.03671 0.0
C1387 C 0.03726 0.47198 0.96233 0.0
H1388 H 1.00923 0.56611 0.92294 0.0
H1389 H 0.09597 0.60201 0.98191 0.0
H1390 H 0.97464 0.48071 0.94033 0.0
H1391 H 0.955 0.49678 0.96558 0.0
H1392 H 0.96452 0.51112 0.9253 0.0
H1393 H 0.09943 0.56999 0.02335 0.0
H1394 H 0.05953 0.54102 0.04064 0.0
H1395 H 0.07929 0.52602 0.0143 0.0
H1396 H 0.95353 0.45035 0.06015 0.0
H1397 H 1.0056 0.41734 -0.00057 0.0
H1398 H 0.96721 0.52037 0.01749 0.0
H1399 H 1.00231 0.53574 0.04345 0.0
H1400 H 0.96146 0.50471 0.05737 0.0
H1401 H 0.02823 0.47911 0.94103 0.0
H1402 H 0.03852 0.44912 0.95687 0.0
H1403 H 0.0629 0.49268 0.96731 0.0
loop_
_geom_bond_atom_site_label_1
_geom_bond_atom_site_label_2
_geom_bond_distance
_geom_bond_site_symmetry_2
_ccdc_geom_bond_type
C0 O2 1.247 . S
C0 O4 1.258 . S
C1 O8 1.247 . S
C1 O9 1.258 . S
O2 C0 1.247 . S
O2 Zn3 2.028 1_655 S
Zn3 O2 2.028 1_455 S
Zn3 O7 2.035 1_455 S
Zn3 O9 2.035 . S
Zn3 O10 2.028 . S
O4 C0 1.258 . S
O4 Zn5 2.035 1_655 S
Zn5 O4 2.035 1_455 S
Zn5 O6 2.028 1_455 S
Zn5 O8 2.028 . S
Zn5 O11 2.035 . S
O6 Zn5 2.028 1_655 S
O6 C12 1.247 . S
O7 Zn3 2.035 1_655 S
O7 C12 1.258 . S
O8 C1 1.247 . S
O8 Zn5 2.028 . S
O9 C1 1.258 . S
O9 Zn3 2.035 . S
O10 Zn3 2.028 . S
O10 C13 1.247 . S
O11 Zn5 2.035 . S
O11 C13 1.258 . S
C12 O6 1.247 . S
C12 O7 1.258 . S
C13 O10 1.247 . S
C13 O11 1.258 . S
C14 O16 1.247 . S
C14 O18 1.258 . S
C15 O22 1.247 . S
C15 O23 1.258 . S
O16 C14 1.247 . S
O16 Zn17 2.028 . S
Zn17 O16 2.028 . S
Zn17 O21 2.035 . S
Zn17 O23 2.035 . S
Zn17 O24 2.028 . S
O18 C14 1.258 . S
O18 Zn19 2.035 . S
Zn19 O18 2.035 . S
Zn19 O20 2.028 . S
Zn19 O22 2.028 . S
Zn19 O25 2.035 . S
O20 Zn19 2.028 . S
O20 C26 1.247 . S
O21 Zn17 2.035 . S
O21 C26 1.258 . S
O22 C15 1.247 . S
O22 Zn19 2.028 . S
O23 C15 1.258 . S
O23 Zn17 2.035 . S
O24 Zn17 2.028 . S
O24 C27 1.247 . S
O25 Zn19 2.035 . S
O25 C27 1.258 . S
C26 O20 1.247 . S
C26 O21 1.258 . S
C27 O24 1.247 . S
C27 O25 1.258 . S
C28 O30 1.247 . S
C28 O32 1.258 . S
C29 O36 1.247 . S
C29 O37 1.258 . S
O30 C28 1.247 . S
O30 Zn31 2.028 1_565 S
Zn31 O30 2.028 1_545 S
Zn31 O35 2.035 1_545 S
Zn31 O37 2.035 . S
Zn31 O38 2.028 . S
O32 C28 1.258 . S
O32 Zn33 2.035 1_565 S
Zn33 O32 2.035 1_545 S
Zn33 O34 2.028 1_545 S
Zn33 O36 2.028 . S
Zn33 O39 2.035 . S
O34 Zn33 2.028 1_565 S
O34 C40 1.247 . S
O35 Zn31 2.035 1_565 S
O35 C40 1.258 . S
O36 C29 1.247 . S
O36 Zn33 2.028 . S
O37 C29 1.258 . S
O37 Zn31 2.035 . S
O38 Zn31 2.028 . S
O38 C41 1.247 . S
O39 Zn33 2.035 . S
O39 C41 1.258 . S
C40 O34 1.247 . S
C40 O35 1.258 . S
C41 O38 1.247 . S
C41 O39 1.258 . S
C42 O44 1.247 . S
C42 O46 1.258 . S
C43 O50 1.247 . S
C43 O51 1.258 . S
O44 C42 1.247 . S
O44 Zn45 2.028 1_655 S
Zn45 O44 2.028 1_455 S
Zn45 O49 2.035 1_455 S
Zn45 O51 2.035 . S
Zn45 O52 2.028 . S
O46 C42 1.258 . S
O46 Zn47 2.035 1_655 S
Zn47 O46 2.035 1_455 S
Zn47 O48 2.028 1_455 S
Zn47 O50 2.028 . S
Zn47 O53 2.035 . S
O48 Zn47 2.028 1_655 S
O48 C54 1.247 . S
O49 Zn45 2.035 1_655 S
O49 C54 1.258 . S
O50 C43 1.247 . S
O50 Zn47 2.028 . S
O51 C43 1.258 . S
O51 Zn45 2.035 . S
O52 Zn45 2.028 . S
O52 C55 1.247 . S
O53 Zn47 2.035 . S
O53 C55 1.258 . S
C54 O48 1.247 . S
C54 O49 1.258 . S
C55 O52 1.247 . S
C55 O53 1.258 . S
C56 O58 1.247 . S
C56 O60 1.258 . S
C57 O64 1.247 . S
C57 O65 1.258 . S
O58 C56 1.247 . S
O58 Zn59 2.028 . S
Zn59 O58 2.028 . S
Zn59 O63 2.035 . S
Zn59 O65 2.035 . S
Zn59 O66 2.028 . S
O60 C56 1.258 . S
O60 Zn61 2.035 . S
Zn61 O60 2.035 . S
Zn61 O62 2.028 . S
Zn61 O64 2.028 . S
Zn61 O67 2.035 . S
O62 Zn61 2.028 . S
O62 C68 1.247 . S
O63 Zn59 2.035 . S
O63 C68 1.258 . S
O64 C57 1.247 . S
O64 Zn61 2.028 . S
O65 C57 1.258 . S
O65 Zn59 2.035 . S
O66 Zn59 2.028 . S
O66 C69 1.247 . S
O67 Zn61 2.035 . S
O67 C69 1.258 . S
C68 O62 1.247 . S
C68 O63 1.258 . S
C69 O66 1.247 . S
C69 O67 1.258 . S
C70 O72 1.247 . S
C70 O74 1.258 . S
C71 O78 1.247 . S
C71 O79 1.258 . S
O72 C70 1.247 . S
O72 Zn73 2.028 . S
Zn73 O72 2.028 . S
Zn73 O77 2.035 . S
Zn73 O79 2.035 1_545 S
Zn73 O80 2.028 1_545 S
O74 C70 1.258 . S
O74 Zn75 2.035 . S
Zn75 O74 2.035 . S
Zn75 O76 2.028 . S
Zn75 O78 2.028 1_545 S
Zn75 O81 2.035 1_545 S
O76 Zn75 2.028 . S
O76 C82 1.247 . S
O77 Zn73 2.035 . S
O77 C82 1.258 . S
O78 C71 1.247 . S
O78 Zn75 2.028 1_565 S
O79 C71 1.258 . S
O79 Zn73 2.035 1_565 S
O80 Zn73 2.028 1_565 S
O80 C83 1.247 . S
O81 Zn75 2.035 1_565 S
O81 C83 1.258 . S
C82 O76 1.247 . S
C82 O77 1.258 . S
C83 O80 1.247 . S
C83 O81 1.258 . S
C84 O86 1.247 . S
C84 O88 1.258 . S
C85 O92 1.247 . S
C85 O93 1.258 . S
O86 C84 1.247 . S
O86 Zn87 2.028 . S
Zn87 O86 2.028 . S
Zn87 O91 2.035 . S
Zn87 O93 2.035 . S
Zn87 O94 2.028 . S
O88 C84 1.258 . S
O88 Zn89 2.035 . S
Zn89 O88 2.035 . S
Zn89 O90 2.028 . S
Zn89 O92 2.028 . S
Zn89 O95 2.035 . S
O90 Zn89 2.028 . S
O90 C96 1.247 . S
O91 Zn87 2.035 . S
O91 C96 1.258 . S
O92 C85 1.247 . S
O92 Zn89 2.028 . S
O93 C85 1.258 . S
O93 Zn87 2.035 . S
O94 Zn87 2.028 . S
O94 C97 1.247 . S
O95 Zn89 2.035 . S
O95 C97 1.258 . S
C96 O90 1.247 . S
C96 O91 1.258 . S
C97 O94 1.247 . S
C97 O95 1.258 . S
C98 O100 1.247 . S
C98 O102 1.258 . S
C99 O106 1.247 . S
C99 O107 1.258 . S
O100 C98 1.247 . S
O100 Zn101 2.028 . S
Zn101 O100 2.028 . S
Zn101 O105 2.035 . S
Zn101 O107 2.035 . S
Zn101 O108 2.028 . S
O102 C98 1.258 . S
O102 Zn103 2.035 . S
Zn103 O102 2.035 . S
Zn103 O104 2.028 . S
Zn103 O106 2.028 . S
Zn103 O109 2.035 . S
O104 Zn103 2.028 . S
O104 C110 1.247 . S
O105 Zn101 2.035 . S
O105 C110 1.258 . S
O106 C99 1.247 . S
O106 Zn103 2.028 . S
O107 C99 1.258 . S
O107 Zn101 2.035 . S
O108 Zn101 2.028 . S
O108 C111 1.247 . S
O109 Zn103 2.035 . S
O109 C111 1.258 . S
C110 O104 1.247 . S
C110 O105 1.258 . S
C111 O108 1.247 . S
C111 O109 1.258 . S
C112 O114 1.247 . S
C112 O116 1.258 . S
C113 O120 1.247 . S
C113 O121 1.258 . S
O114 C112 1.247 . S
O114 Zn115 2.028 . S
Zn115 O114 2.028 . S
Zn115 O119 2.035 . S
Zn115 O121 2.035 . S
Zn115 O122 2.028 . S
O116 C112 1.258 . S
O116 Zn117 2.035 . S
Zn117 O116 2.035 . S
Zn117 O118 2.028 . S
Zn117 O120 2.028 . S
Zn117 O123 2.035 . S
O118 Zn117 2.028 . S
O118 C124 1.247 . S
O119 Zn115 2.035 . S
O119 C124 1.258 . S
O120 C113 1.247 . S
O120 Zn117 2.028 . S
O121 C113 1.258 . S
O121 Zn115 2.035 . S
O122 Zn115 2.028 . S
O122 C125 1.247 . S
O123 Zn117 2.035 . S
O123 C125 1.258 . S
C124 O118 1.247 . S
C124 O119 1.258 . S
C125 O122 1.247 . S
C125 O123 1.258 . S
C126 O128 1.247 . S
C126 O130 1.258 . S
C127 O134 1.247 . S
C127 O135 1.258 . S
O128 C126 1.247 . S
O128 Zn129 2.028 . S
Zn129 O128 2.028 . S
Zn129 O133 2.035 . S
Zn129 O135 2.035 . S
Zn129 O136 2.028 . S
O130 C126 1.258 . S
O130 Zn131 2.035 . S
Zn131 O130 2.035 . S
Zn131 O132 2.028 . S
Zn131 O134 2.028 . S
Zn131 O137 2.035 . S
O132 Zn131 2.028 . S
O132 C138 1.247 . S
O133 Zn129 2.035 . S
O133 C138 1.258 . S
O134 C127 1.247 . S
O134 Zn131 2.028 . S
O135 C127 1.258 . S
O135 Zn129 2.035 . S
O136 Zn129 2.028 . S
O136 C139 1.247 . S
O137 Zn131 2.035 . S
O137 C139 1.258 . S
C138 O132 1.247 . S
C138 O133 1.258 . S
C139 O136 1.247 . S
C139 O137 1.258 . S
C140 O142 1.247 . S
C140 O144 1.258 . S
C141 O148 1.247 . S
C141 O149 1.258 . S
O142 C140 1.247 . S
O142 Zn143 2.028 . S
Zn143 O142 2.028 . S
Zn143 O147 2.035 . S
Zn143 O149 2.035 . S
Zn143 O150 2.028 . S
O144 C140 1.258 . S
O144 Zn145 2.035 . S
Zn145 O144 2.035 . S
Zn145 O146 2.028 . S
Zn145 O148 2.028 . S
Zn145 O151 2.035 . S
O146 Zn145 2.028 . S
O146 C152 1.247 . S
O147 Zn143 2.035 . S
O147 C152 1.258 . S
O148 C141 1.247 . S
O148 Zn145 2.028 . S
O149 C141 1.258 . S
O149 Zn143 2.035 . S
O150 Zn143 2.028 . S
O150 C153 1.247 . S
O151 Zn145 2.035 . S
O151 C153 1.258 . S
C152 O146 1.247 . S
C152 O147 1.258 . S
C153 O150 1.247 . S
C153 O151 1.258 . S
C154 O156 1.247 . S
C154 O158 1.258 . S
C155 O162 1.247 . S
C155 O163 1.258 . S
O156 C154 1.247 . S
O156 Zn157 2.028 . S
Zn157 O156 2.028 . S
Zn157 O161 2.035 . S
Zn157 O163 2.035 . S
Zn157 O164 2.028 . S
O158 C154 1.258 . S
O158 Zn159 2.035 . S
Zn159 O158 2.035 . S
Zn159 O160 2.028 . S
Zn159 O162 2.028 . S
Zn159 O165 2.035 . S
O160 Zn159 2.028 . S
O160 C166 1.247 . S
O161 Zn157 2.035 . S
O161 C166 1.258 . S
O162 C155 1.247 . S
O162 Zn159 2.028 . S
O163 C155 1.258 . S
O163 Zn157 2.035 . S
O164 Zn157 2.028 . S
O164 C167 1.247 . S
O165 Zn159 2.035 . S
O165 C167 1.258 . S
C166 O160 1.247 . S
C166 O161 1.258 . S
C167 O164 1.247 . S
C167 O165 1.258 . S
C168 O170 1.247 . S
C168 O172 1.258 . S
C169 O176 1.247 . S
C169 O177 1.258 . S
O170 C168 1.247 . S
O170 Zn171 2.028 . S
Zn171 O170 2.028 . S
Zn171 O175 2.035 . S
Zn171 O177 2.035 . S
Zn171 O178 2.028 . S
O172 C168 1.258 . S
O172 Zn173 2.035 . S
Zn173 O172 2.035 . S
Zn173 O174 2.028 . S
Zn173 O176 2.028 . S
Zn173 O179 2.035 . S
O174 Zn173 2.028 . S
O174 C180 1.247 . S
O175 Zn171 2.035 . S
O175 C180 1.258 . S
O176 C169 1.247 . S
O176 Zn173 2.028 . S
O177 C169 1.258 . S
O177 Zn171 2.035 . S
O178 Zn171 2.028 . S
O178 C181 1.247 . S
O179 Zn173 2.035 . S
O179 C181 1.258 . S
C180 O174 1.247 . S
C180 O175 1.258 . S
C181 O178 1.247 . S
C181 O179 1.258 . S
C182 O184 1.247 . S
C182 O186 1.258 . S
C183 O190 1.247 . S
C183 O191 1.258 . S
O184 C182 1.247 . S
O184 Zn185 2.028 . S
Zn185 O184 2.028 . S
Zn185 O189 2.035 . S
Zn185 O191 2.035 . S
Zn185 O192 2.028 . S
O186 C182 1.258 . S
O186 Zn187 2.035 . S
Zn187 O186 2.035 . S
Zn187 O188 2.028 . S
Zn187 O190 2.028 . S
Zn187 O193 2.035 . S
O188 Zn187 2.028 . S
O188 C194 1.247 . S
O189 Zn185 2.035 . S
O189 C194 1.258 . S
O190 C183 1.247 . S
O190 Zn187 2.028 . S
O191 C183 1.258 . S
O191 Zn185 2.035 . S
O192 Zn185 2.028 . S
O192 C195 1.247 . S
O193 Zn187 2.035 . S
O193 C195 1.258 . S
C194 O188 1.247 . S
C194 O189 1.258 . S
C195 O192 1.247 . S
C195 O193 1.258 . S
C196 O198 1.247 . S
C196 O200 1.258 . S
C197 O204 1.247 . S
C197 O205 1.258 . S
O198 C196 1.247 . S
O198 Zn199 2.028 . S
Zn199 O198 2.028 . S
Zn199 O203 2.035 . S
Zn199 O205 2.035 . S
Zn199 O206 2.028 . S
O200 C196 1.258 . S
O200 Zn201 2.035 . S
Zn201 O200 2.035 . S
Zn201 O202 2.028 . S
Zn201 O204 2.028 . S
Zn201 O207 2.035 . S
O202 Zn201 2.028 . S
O202 C208 1.247 . S
O203 Zn199 2.035 . S
O203 C208 1.258 . S
O204 C197 1.247 . S
O204 Zn201 2.028 . S
O205 C197 1.258 . S
O205 Zn199 2.035 . S
O206 Zn199 2.028 . S
O206 C209 1.247 . S
O207 Zn201 2.035 . S
O207 C209 1.258 . S
C208 O202 1.247 . S
C208 O203 1.258 . S
C209 O206 1.247 . S
C209 O207 1.258 . S
C210 O212 1.247 . S
C210 O214 1.258 . S
C211 O218 1.247 . S
C211 O219 1.258 . S
O212 C210 1.247 . S
O212 Zn213 2.028 . S
Zn213 O212 2.028 . S
Zn213 O217 2.035 . S
Zn213 O219 2.035 . S
Zn213 O220 2.028 . S
O214 C210 1.258 . S
O214 Zn215 2.035 . S
Zn215 O214 2.035 . S
Zn215 O216 2.028 . S
Zn215 O218 2.028 . S
Zn215 O221 2.035 . S
O216 Zn215 2.028 . S
O216 C222 1.247 . S
O217 Zn213 2.035 . S
O217 C222 1.258 . S
O218 C211 1.247 . S
O218 Zn215 2.028 . S
O219 C211 1.258 . S
O219 Zn213 2.035 . S
O220 Zn213 2.028 . S
O220 C223 1.247 . S
O221 Zn215 2.035 . S
O221 C223 1.258 . S
C222 O216 1.247 . S
C222 O217 1.258 . S
C223 O220 1.247 . S
C223 O221 1.258 . S
C224 O226 1.247 . S
C224 O228 1.258 . S
C225 O232 1.247 . S
C225 O233 1.258 . S
O226 C224 1.247 . S
O226 Zn227 2.028 . S
Zn227 O226 2.028 . S
Zn227 O231 2.035 . S
Zn227 O233 2.035 . S
Zn227 O234 2.028 . S
O228 C224 1.258 . S
O228 Zn229 2.035 . S
Zn229 O228 2.035 . S
Zn229 O230 2.028 . S
Zn229 O232 2.028 . S
Zn229 O235 2.035 . S
O230 Zn229 2.028 . S
O230 C236 1.247 . S
O231 Zn227 2.035 . S
O231 C236 1.258 . S
O232 C225 1.247 . S
O232 Zn229 2.028 . S
O233 C225 1.258 . S
O233 Zn227 2.035 . S
O234 Zn227 2.028 . S
O234 C237 1.247 . S
O235 Zn229 2.035 . S
O235 C237 1.258 . S
C236 O230 1.247 . S
C236 O231 1.258 . S
C237 O234 1.247 . S
C237 O235 1.258 . S
C238 O240 1.247 . S
C238 O242 1.258 . S
C239 O246 1.247 . S
C239 O247 1.258 . S
O240 C238 1.247 . S
O240 Zn241 2.028 . S
Zn241 O240 2.028 . S
Zn241 O245 2.035 . S
Zn241 O247 2.035 . S
Zn241 O248 2.028 . S
O242 C238 1.258 . S
O242 Zn243 2.035 . S
Zn243 O242 2.035 . S
Zn243 O244 2.028 . S
Zn243 O246 2.028 . S
Zn243 O249 2.035 . S
O244 Zn243 2.028 . S
O244 C250 1.247 . S
O245 Zn241 2.035 . S
O245 C250 1.258 . S
O246 C239 1.247 . S
O246 Zn243 2.028 . S
O247 C239 1.258 . S
O247 Zn241 2.035 . S
O248 Zn241 2.028 . S
O248 C251 1.247 . S
O249 Zn243 2.035 . S
O249 C251 1.258 . S
C250 O244 1.247 . S
C250 O245 1.258 . S
C251 O248 1.247 . S
C251 O249 1.258 . S
C252 C253 1.391 . S
C252 C254 1.394 . S
C252 H268 0.931 . S
C253 C252 1.391 . S
C253 C257 1.376 . S
C254 C252 1.394 . S
C254 C255 1.369 . S
C254 C258 1.531 . S
C255 C254 1.369 . S
C255 C256 1.410 . S
C255 C263 1.503 . S
C256 C255 1.410 . S
C256 C257 1.392 . S
C256 C259 1.511 . S
C257 C253 1.376 . S
C257 C256 1.392 . S
C257 H269 0.929 . S
C258 C254 1.531 . S
C258 H270 0.960 . S
C258 H271 0.962 . S
C258 H272 0.960 . S
C259 C256 1.511 . S
C259 H273 0.961 . S
C259 H274 0.961 . S
C259 H275 0.961 . S
C260 C261 1.370 . S
C260 C262 1.363 . S
C260 H276 0.931 . S
C261 C260 1.370 . S
C261 C265 1.408 . S
C262 C260 1.363 . S
C262 C263 1.370 . S
C262 C266 1.524 . S
C263 C255 1.503 . S
C263 C262 1.370 . S
C263 C264 1.403 . S
C264 C263 1.403 . S
C264 C265 1.404 . S
C264 C267 1.539 . S
C265 C261 1.408 . S
C265 C264 1.404 . S
C265 H277 0.930 . S
C266 C262 1.524 . S
C266 H278 0.956 . S
C266 H279 0.961 . S
C266 H280 0.961 . S
C267 C264 1.539 . S
C267 H281 0.958 . S
C267 H282 0.961 1_455 S
C267 H283 0.960 . S
H268 C252 0.931 . S
H269 C257 0.929 . S
H270 C258 0.960 . S
H271 C258 0.962 . S
H272 C258 0.960 . S
H273 C259 0.961 . S
H274 C259 0.961 . S
H275 C259 0.961 . S
H276 C260 0.931 . S
H277 C265 0.930 . S
H278 C266 0.956 . S
H279 C266 0.961 . S
H280 C266 0.961 . S
H281 C267 0.958 . S
H282 C267 0.961 1_655 S
H283 C267 0.960 . S
C284 C285 1.391 . S
C284 C286 1.394 . S
C284 H300 0.931 . S
C285 C284 1.391 . S
C285 C289 1.376 . S
C286 C284 1.394 . S
C286 C287 1.369 . S
C286 C290 1.531 . S
C287 C286 1.369 . S
C287 C288 1.410 . S
C287 C295 1.503 . S
C288 C287 1.410 . S
C288 C289 1.392 . S
C288 C291 1.511 . S
C289 C285 1.376 . S
C289 C288 1.392 . S
C289 H301 0.920 1_554 S
C290 C286 1.531 . S
C290 H302 0.960 . S
C290 H303 0.962 . S
C290 H304 0.960 . S
C291 C288 1.511 . S
C291 H305 0.961 . S
C291 H306 0.961 . S
C291 H307 0.961 . S
C292 C293 1.370 . S
C292 C294 1.363 . S
C292 H308 0.931 . S
C293 C292 1.370 . S
C293 C297 1.408 . S
C294 C292 1.363 . S
C294 C295 1.370 . S
C294 C298 1.524 . S
C295 C287 1.503 . S
C295 C294 1.370 . S
C295 C296 1.403 . S
C296 C295 1.403 . S
C296 C297 1.404 . S
C296 C299 1.539 . S
C297 C293 1.408 . S
C297 C296 1.404 . S
C297 H309 0.930 . S
C298 C294 1.524 . S
C298 H310 0.956 . S
C298 H311 0.961 . S
C298 H312 0.961 . S
C299 C296 1.539 . S
C299 H313 0.958 . S
C299 H314 0.961 . S
C299 H315 0.960 . S
H300 C284 0.931 . S
H301 C289 0.920 1_556 S
H302 C290 0.960 . S
H303 C290 0.962 . S
H304 C290 0.960 . S
H305 C291 0.961 . S
H306 C291 0.961 . S
H307 C291 0.961 . S
H308 C292 0.931 . S
H309 C297 0.930 . S
H310 C298 0.956 . S
H311 C298 0.961 . S
H312 C298 0.961 . S
H313 C299 0.958 . S
H314 C299 0.961 . S
H315 C299 0.960 . S
C316 C317 1.391 . S
C316 C318 1.394 . S
C316 H332 0.931 1_565 S
C317 C316 1.391 . S
C317 C321 1.376 . S
C318 C316 1.394 . S
C318 C319 1.369 . S
C318 C322 1.531 1_565 S
C319 C318 1.369 . S
C319 C320 1.410 . S
C319 C327 1.503 . S
C320 C319 1.410 . S
C320 C321 1.392 . S
C320 C323 1.511 . S
C321 C317 1.376 . S
C321 C320 1.392 . S
C321 H333 0.929 . S
C322 C318 1.531 1_545 S
C322 H334 0.960 1_545 S
C322 H335 0.962 . S
C322 H336 0.960 . S
C323 C320 1.511 . S
C323 H337 0.961 . S
C323 H338 0.961 . S
C323 H339 0.961 . S
C324 C325 1.370 . S
C324 C326 1.363 . S
C324 H340 0.931 . S
C325 C324 1.370 . S
C325 C329 1.408 . S
C326 C324 1.363 . S
C326 C327 1.370 . S
C326 C330 1.524 . S
C327 C319 1.503 . S
C327 C326 1.370 . S
C327 C328 1.403 . S
C328 C327 1.403 . S
C328 C329 1.404 . S
C328 C331 1.539 . S
C329 C325 1.408 . S
C329 C328 1.404 . S
C329 H341 0.930 1_554 S
C330 C326 1.524 . S
C330 H342 0.956 . S
C330 H343 0.961 . S
C330 H344 0.961 . S
C331 C328 1.539 . S
C331 H345 0.958 . S
C331 H346 0.961 . S
C331 H347 0.960 . S
H332 C316 0.931 1_545 S
H333 C321 0.929 . S
H334 C322 0.960 1_565 S
H335 C322 0.962 . S
H336 C322 0.960 . S
H337 C323 0.961 . S
H338 C323 0.961 . S
H339 C323 0.961 . S
H340 C324 0.931 . S
H341 C329 0.930 1_556 S
H342 C330 0.956 . S
H343 C330 0.961 . S
H344 C330 0.961 . S
H345 C331 0.958 . S
H346 C331 0.961 . S
H347 C331 0.960 . S
C348 C349 1.391 . S
C348 C350 1.394 . S
C348 H364 0.931 . S
C349 C348 1.391 . S
C349 C353 1.376 . S
C350 C348 1.394 . S
C350 C351 1.369 . S
C350 C354 1.531 . S
C351 C350 1.369 . S
C351 C352 1.410 . S
C351 C359 1.503 . S
C352 C351 1.410 . S
C352 C353 1.392 . S
C352 C355 1.511 . S
C353 C349 1.376 . S
C353 C352 1.392 . S
C353 H365 0.929 . S
C354 C350 1.531 . S
C354 H366 0.960 . S
C354 H367 0.962 . S
C354 H368 0.960 . S
C355 C352 1.511 . S
C355 H369 0.961 . S
C355 H370 0.961 . S
C355 H371 0.961 . S
C356 C357 1.370 . S
C356 C358 1.363 . S
C356 H372 0.931 . S
C357 C356 1.370 . S
C357 C361 1.408 . S
C358 C356 1.363 . S
C358 C359 1.370 . S
C358 C362 1.524 . S
C359 C351 1.503 . S
C359 C358 1.370 . S
C359 C360 1.403 . S
C360 C359 1.403 . S
C360 C361 1.404 . S
C360 C363 1.539 . S
C361 C357 1.408 . S
C361 C360 1.404 . S
C361 H373 0.930 . S
C362 C358 1.524 . S
C362 H374 0.956 . S
C362 H375 0.961 . S
C362 H376 0.961 . S
C363 C360 1.539 . S
C363 H377 0.958 . S
C363 H378 0.961 . S
C363 H379 0.960 . S
H364 C348 0.931 . S
H365 C353 0.929 . S
H366 C354 0.960 . S
H367 C354 0.962 . S
H368 C354 0.960 . S
H369 C355 0.961 . S
H370 C355 0.961 . S
H371 C355 0.961 . S
H372 C356 0.931 . S
H373 C361 0.930 . S
H374 C362 0.956 . S
H375 C362 0.961 . S
H376 C362 0.961 . S
H377 C363 0.958 . S
H378 C363 0.961 . S
H379 C363 0.960 . S
C380 C381 1.391 . S
C380 C382 1.394 . S
C380 H396 0.931 . S
C381 C380 1.391 . S
C381 C385 1.376 . S
C382 C380 1.394 . S
C382 C383 1.369 . S
C382 C386 1.531 . S
C383 C382 1.369 . S
C383 C384 1.410 . S
C383 C391 1.503 . S
C384 C383 1.410 . S
C384 C385 1.392 . S
C384 C387 1.511 . S
C385 C381 1.376 . S
C385 C384 1.392 . S
C385 H397 0.929 . S
C386 C382 1.531 . S
C386 H398 0.960 . S
C386 H399 0.962 1_655 S
C386 H400 0.960 . S
C387 C384 1.511 . S
C387 H401 0.961 . S
C387 H402 0.961 . S
C387 H403 0.961 . S
C388 C389 1.370 . S
C388 C390 1.363 . S
C388 H404 0.931 . S
C389 C388 1.370 . S
C389 C393 1.408 . S
C390 C388 1.363 . S
C390 C391 1.370 . S
C390 C394 1.524 . S
C391 C383 1.503 . S
C391 C390 1.370 . S
C391 C392 1.403 . S
C392 C391 1.403 . S
C392 C393 1.404 . S
C392 C395 1.539 . S
C393 C389 1.408 . S
C393 C392 1.404 . S
C393 H405 0.930 . S
C394 C390 1.524 . S
C394 H406 0.956 . S
C394 H407 0.961 . S
C394 H408 0.961 . S
C395 C392 1.539 . S
C395 H409 0.958 . S
C395 H410 0.961 . S
C395 H411 0.960 . S
H396 C380 0.931 . S
H397 C385 0.929 . S
H398 C386 0.960 . S
H399 C386 0.962 1_455 S
H400 C386 0.960 . S
H401 C387 0.961 . S
H402 C387 0.961 . S
H403 C387 0.961 . S
H404 C388 0.931 . S
H405 C393 0.930 . S
H406 C394 0.956 . S
H407 C394 0.961 . S
H408 C394 0.961 . S
H409 C395 0.958 . S
H410 C395 0.961 . S
H411 C395 0.960 . S
C412 C413 1.391 . S
C412 C414 1.394 . S
C412 H428 0.931 . S
C413 C412 1.391 . S
C413 C417 1.376 . S
C414 C412 1.394 . S
C414 C415 1.369 . S
C414 C418 1.531 . S
C415 C414 1.369 . S
C415 C416 1.410 . S
C415 C423 1.503 . S
C416 C415 1.410 . S
C416 C417 1.392 . S
C416 C419 1.511 . S
C417 C413 1.376 . S
C417 C416 1.392 . S
C417 H429 0.929 . S
C418 C414 1.531 . S
C418 H430 0.960 . S
C418 H431 0.962 . S
C418 H432 0.960 . S
C419 C416 1.511 . S
C419 H433 0.961 . S
C419 H434 0.961 . S
C419 H435 0.961 . S
C420 C421 1.370 . S
C420 C422 1.363 . S
C420 H436 0.931 . S
C421 C420 1.370 . S
C421 C425 1.408 . S
C422 C420 1.363 . S
C422 C423 1.370 . S
C422 C426 1.524 . S
C423 C415 1.503 . S
C423 C422 1.370 . S
C423 C424 1.403 . S
C424 C423 1.403 . S
C424 C425 1.404 . S
C424 C427 1.539 . S
C425 C421 1.408 . S
C425 C424 1.404 . S
C425 H437 0.930 . S
C426 C422 1.524 . S
C426 H438 0.956 . S
C426 H439 0.961 . S
C426 H440 0.961 . S
C427 C424 1.539 . S
C427 H441 0.958 . S
C427 H442 0.961 . S
C427 H443 0.960 . S
H428 C412 0.931 . S
H429 C417 0.929 . S
H430 C418 0.960 . S
H431 C418 0.962 . S
H432 C418 0.960 . S
H433 C419 0.961 . S
H434 C419 0.961 . S
H435 C419 0.961 . S
H436 C420 0.931 . S
H437 C425 0.930 . S
H438 C426 0.956 . S
H439 C426 0.961 . S
H440 C426 0.961 . S
H441 C427 0.958 . S
H442 C427 0.961 . S
H443 C427 0.960 . S
C444 C445 1.391 . S
C444 C446 1.394 . S
C444 H460 0.931 1_655 S
C445 C444 1.391 . S
C445 C449 1.376 . S
C446 C444 1.394 . S
C446 C447 1.369 . S
C446 C450 1.531 1_655 S
C447 C446 1.369 . S
C447 C448 1.410 . S
C447 C455 1.503 . S
C448 C447 1.410 . S
C448 C449 1.392 . S
C448 C451 1.511 . S
C449 C445 1.376 . S
C449 C448 1.392 . S
C449 H461 0.929 . S
C450 C446 1.531 1_455 S
C450 H462 0.960 . S
C450 H463 0.962 . S
C450 H464 0.960 . S
C451 C448 1.511 . S
C451 H465 0.961 . S
C451 H466 0.961 . S
C451 H467 0.961 . S
C452 C453 1.370 . S
C452 C454 1.363 . S
C452 H468 0.931 1_556 S
C453 C452 1.370 . S
C453 C457 1.408 . S
C454 C452 1.363 . S
C454 C455 1.370 . S
C454 C458 1.524 . S
C455 C447 1.503 . S
C455 C454 1.370 . S
C455 C456 1.403 . S
C456 C455 1.403 . S
C456 C457 1.404 . S
C456 C459 1.539 . S
C457 C453 1.408 . S
C457 C456 1.404 . S
C457 H469 0.930 . S
C458 C454 1.524 . S
C458 H470 0.956 . S
C458 H471 0.961 . S
C458 H472 0.961 . S
C459 C456 1.539 . S
C459 H473 0.958 . S
C459 H474 0.961 . S
C459 H475 0.960 . S
H460 C444 0.931 1_455 S
H461 C449 0.929 . S
H462 C450 0.960 . S
H463 C450 0.962 . S
H464 C450 0.960 . S
H465 C451 0.961 . S
H466 C451 0.961 . S
H467 C451 0.961 . S
H468 C452 0.931 1_554 S
H469 C457 0.930 . S
H470 C458 0.956 . S
H471 C458 0.961 . S
H472 C458 0.961 . S
H473 C459 0.958 . S
H474 C459 0.961 . S
H475 C459 0.960 . S
C476 C477 1.391 . S
C476 C478 1.394 . S
C476 H492 0.931 . S
C477 C476 1.391 . S
C477 C481 1.376 . S
C478 C476 1.394 . S
C478 C479 1.369 . S
C478 C482 1.531 . S
C479 C478 1.369 . S
C479 C480 1.410 . S
C479 C487 1.503 . S
C480 C479 1.410 . S
C480 C481 1.392 . S
C480 C483 1.511 . S
C481 C477 1.376 . S
C481 C480 1.392 . S
C481 H493 0.929 . S
C482 C478 1.531 . S
C482 H494 0.960 . S
C482 H495 0.962 . S
C482 H496 0.960 . S
C483 C480 1.511 . S
C483 H497 0.961 . S
C483 H498 0.961 . S
C483 H499 0.961 . S
C484 C485 1.370 . S
C484 C486 1.363 . S
C484 H500 0.931 . S
C485 C484 1.370 . S
C485 C489 1.408 . S
C486 C484 1.363 . S
C486 C487 1.370 . S
C486 C490 1.524 . S
C487 C479 1.503 . S
C487 C486 1.370 . S
C487 C488 1.403 . S
C488 C487 1.403 . S
C488 C489 1.404 . S
C488 C491 1.539 . S
C489 C485 1.408 . S
C489 C488 1.404 . S
C489 H501 0.930 . S
C490 C486 1.524 . S
C490 H502 0.956 . S
C490 H503 0.961 . S
C490 H504 0.961 . S
C491 C488 1.539 . S
C491 H505 0.958 . S
C491 H506 0.961 . S
C491 H507 0.960 . S
H492 C476 0.931 . S
H493 C481 0.929 . S
H494 C482 0.960 . S
H495 C482 0.962 . S
H496 C482 0.960 . S
H497 C483 0.961 . S
H498 C483 0.961 . S
H499 C483 0.961 . S
H500 C484 0.931 . S
H501 C489 0.930 . S
H502 C490 0.956 . S
H503 C490 0.961 . S
H504 C490 0.961 . S
H505 C491 0.958 . S
H506 C491 0.961 . S
H507 C491 0.960 . S
C508 C509 1.391 . S
C508 C510 1.394 . S
C508 H524 0.931 . S
C509 C508 1.391 . S
C509 C513 1.376 . S
C510 C508 1.394 . S
C510 C511 1.369 . S
C510 C514 1.531 . S
C511 C510 1.369 . S
C511 C512 1.410 . S
C511 C519 1.503 . S
C512 C511 1.410 . S
C512 C513 1.392 . S
C512 C515 1.511 . S
C513 C509 1.376 . S
C513 C512 1.392 . S
C513 H525 0.929 1_556 S
C514 C510 1.531 . S
C514 H526 0.960 . S
C514 H527 0.962 . S
C514 H528 0.960 . S
C515 C512 1.511 . S
C515 H529 0.961 . S
C515 H530 0.961 . S
C515 H531 0.961 . S
C516 C517 1.370 . S
C516 C518 1.363 . S
C516 H532 0.931 . S
C517 C516 1.370 . S
C517 C521 1.408 . S
C518 C516 1.363 . S
C518 C519 1.370 . S
C518 C522 1.524 . S
C519 C511 1.503 . S
C519 C518 1.370 . S
C519 C520 1.403 . S
C520 C519 1.403 . S
C520 C521 1.404 . S
C520 C523 1.539 1_545 S
C521 C517 1.408 . S
C521 C520 1.404 . S
C521 H533 0.930 1_545 S
C522 C518 1.524 . S
C522 H534 0.956 . S
C522 H535 0.961 . S
C522 H536 0.961 . S
C523 C520 1.539 1_565 S
C523 H537 0.958 . S
C523 H538 0.961 . S
C523 H539 0.960 1_565 S
H524 C508 0.931 . S
H525 C513 0.929 1_554 S
H526 C514 0.960 . S
H527 C514 0.962 . S
H528 C514 0.960 . S
H529 C515 0.961 . S
H530 C515 0.961 . S
H531 C515 0.961 . S
H532 C516 0.931 . S
H533 C521 0.930 1_565 S
H534 C522 0.956 . S
H535 C522 0.961 . S
H536 C522 0.961 . S
H537 C523 0.958 . S
H538 C523 0.961 . S
H539 C523 0.960 1_545 S
C540 C541 1.391 . S
C540 C542 1.394 . S
C540 H556 0.931 . S
C541 C540 1.391 . S
C541 C545 1.376 . S
C542 C540 1.394 . S
C542 C543 1.369 . S
C542 C546 1.531 . S
C543 C542 1.369 . S
C543 C544 1.410 . S
C543 C551 1.503 . S
C544 C543 1.410 . S
C544 C545 1.392 . S
C544 C547 1.511 . S
C545 C541 1.376 . S
C545 C544 1.392 . S
C545 H557 0.929 . S
C546 C542 1.531 . S
C546 H558 0.960 . S
C546 H559 0.962 . S
C546 H560 0.960 . S
C547 C544 1.511 . S
C547 H561 0.961 . S
C547 H562 0.961 . S
C547 H563 0.961 . S
C548 C549 1.370 . S
C548 C550 1.363 . S
C548 H564 0.931 . S
C549 C548 1.370 . S
C549 C553 1.408 . S
C550 C548 1.363 . S
C550 C551 1.370 . S
C550 C554 1.524 . S
C551 C543 1.503 . S
C551 C550 1.370 . S
C551 C552 1.403 . S
C552 C551 1.403 . S
C552 C553 1.404 . S
C552 C555 1.539 1_565 S
C553 C549 1.408 . S
C553 C552 1.404 . S
C553 H565 0.930 . S
C554 C550 1.524 . S
C554 H566 0.956 . S
C554 H567 0.961 . S
C554 H568 0.961 . S
C555 C552 1.539 1_545 S
C555 H569 0.958 . S
C555 H570 0.961 . S
C555 H571 0.960 . S
H556 C540 0.931 . S
H557 C545 0.929 . S
H558 C546 0.960 . S
H559 C546 0.962 . S
H560 C546 0.960 . S
H561 C547 0.961 . S
H562 C547 0.961 . S
H563 C547 0.961 . S
H564 C548 0.931 . S
H565 C553 0.930 . S
H566 C554 0.956 . S
H567 C554 0.961 . S
H568 C554 0.961 . S
H569 C555 0.958 . S
H570 C555 0.961 . S
H571 C555 0.960 . S
C572 C573 1.391 . S
C572 C574 1.394 . S
C572 H588 0.931 . S
C573 C572 1.391 . S
C573 C577 1.376 . S
C574 C572 1.394 . S
C574 C575 1.369 . S
C574 C578 1.531 . S
C575 C574 1.369 . S
C575 C576 1.410 . S
C575 C583 1.503 . S
C576 C575 1.410 . S
C576 C577 1.392 . S
C576 C579 1.511 . S
C577 C573 1.376 . S
C577 C576 1.392 . S
C577 H589 0.929 . S
C578 C574 1.531 . S
C578 H590 0.960 . S
C578 H591 0.962 . S
C578 H592 0.960 . S
C579 C576 1.511 . S
C579 H593 0.961 . S
C579 H594 0.961 . S
C579 H595 0.961 . S
C580 C581 1.370 . S
C580 C582 1.363 . S
C580 H596 0.931 . S
C581 C580 1.370 . S
C581 C585 1.408 . S
C582 C580 1.363 . S
C582 C583 1.370 . S
C582 C586 1.524 . S
C583 C575 1.503 . S
C583 C582 1.370 . S
C583 C584 1.403 . S
C584 C583 1.403 . S
C584 C585 1.404 . S
C584 C587 1.539 . S
C585 C581 1.408 . S
C585 C584 1.404 . S
C585 H597 0.930 . S
C586 C582 1.524 . S
C586 H598 0.956 . S
C586 H599 0.961 . S
C586 H600 0.961 . S
C587 C584 1.539 . S
C587 H601 0.958 . S
C587 H602 0.961 . S
C587 H603 0.960 . S
H588 C572 0.931 . S
H589 C577 0.929 . S
H590 C578 0.960 . S
H591 C578 0.962 . S
H592 C578 0.960 . S
H593 C579 0.961 . S
H594 C579 0.961 . S
H595 C579 0.961 . S
H596 C580 0.931 . S
H597 C585 0.930 . S
H598 C586 0.956 . S
H599 C586 0.961 . S
H600 C586 0.961 . S
H601 C587 0.958 . S
H602 C587 0.961 . S
H603 C587 0.960 . S
C604 C605 1.391 . S
C604 C606 1.394 . S
C604 H620 0.931 . S
C605 C604 1.391 . S
C605 C609 1.376 . S
C606 C604 1.394 . S
C606 C607 1.369 . S
C606 C610 1.531 . S
C607 C606 1.369 . S
C607 C608 1.410 . S
C607 C615 1.503 . S
C608 C607 1.410 . S
C608 C609 1.392 . S
C608 C611 1.511 . S
C609 C605 1.376 . S
C609 C608 1.392 . S
C609 H621 0.929 . S
C610 C606 1.531 . S
C610 H622 0.960 . S
C610 H623 0.962 . S
C610 H624 0.960 . S
C611 C608 1.511 . S
C611 H625 0.961 . S
C611 H626 0.961 . S
C611 H627 0.961 . S
C612 C613 1.370 . S
C612 C614 1.363 . S
C612 H628 0.931 . S
C613 C612 1.370 . S
C613 C617 1.408 . S
C614 C612 1.363 . S
C614 C615 1.370 . S
C614 C618 1.524 . S
C615 C607 1.503 . S
C615 C614 1.370 . S
C615 C616 1.403 . S
C616 C615 1.403 . S
C616 C617 1.404 . S
C616 C619 1.539 . S
C617 C613 1.408 . S
C617 C616 1.404 . S
C617 H629 0.930 . S
C618 C614 1.524 . S
C618 H630 0.956 . S
C618 H631 0.961 . S
C618 H632 0.961 . S
C619 C616 1.539 . S
C619 H633 0.958 . S
C619 H634 0.961 . S
C619 H635 0.960 . S
H620 C604 0.931 . S
H621 C609 0.929 . S
H622 C610 0.960 . S
H623 C610 0.962 . S
H624 C610 0.960 . S
H625 C611 0.961 . S
H626 C611 0.961 . S
H627 C611 0.961 . S
H628 C612 0.931 . S
H629 C617 0.930 . S
H630 C618 0.956 . S
H631 C618 0.961 . S
H632 C618 0.961 . S
H633 C619 0.958 . S
H634 C619 0.961 . S
H635 C619 0.960 . S
C636 C637 1.391 . S
C636 C638 1.394 . S
C636 H652 0.931 . S
C637 C636 1.391 . S
C637 C641 1.376 . S
C638 C636 1.394 . S
C638 C639 1.369 . S
C638 C642 1.531 . S
C639 C638 1.369 . S
C639 C640 1.410 . S
C639 C647 1.503 . S
C640 C639 1.410 . S
C640 C641 1.392 . S
C640 C643 1.511 . S
C641 C637 1.376 . S
C641 C640 1.392 . S
C641 H653 0.929 . S
C642 C638 1.531 . S
C642 H654 0.960 . S
C642 H655 0.962 . S
C642 H656 0.960 . S
C643 C640 1.511 . S
C643 H657 0.961 . S
C643 H658 0.961 . S
C643 H659 0.961 . S
C644 C645 1.370 . S
C644 C646 1.363 . S
C644 H660 0.931 . S
C645 C644 1.370 . S
C645 C649 1.408 . S
C646 C644 1.363 . S
C646 C647 1.370 . S
C646 C650 1.524 . S
C647 C639 1.503 . S
C647 C646 1.370 . S
C647 C648 1.403 . S
C648 C647 1.403 . S
C648 C649 1.404 . S
C648 C651 1.539 . S
C649 C645 1.408 . S
C649 C648 1.404 . S
C649 H661 0.930 . S
C650 C646 1.524 . S
C650 H662 0.956 . S
C650 H663 0.961 . S
C650 H664 0.961 . S
C651 C648 1.539 . S
C651 H665 0.958 . S
C651 H666 0.961 . S
C651 H667 0.960 . S
H652 C636 0.931 . S
H653 C641 0.929 . S
H654 C642 0.960 . S
H655 C642 0.962 . S
H656 C642 0.960 . S
H657 C643 0.961 . S
H658 C643 0.961 . S
H659 C643 0.961 . S
H660 C644 0.931 . S
H661 C649 0.930 . S
H662 C650 0.956 . S
H663 C650 0.961 . S
H664 C650 0.961 . S
H665 C651 0.958 . S
H666 C651 0.961 . S
H667 C651 0.960 . S
C668 C669 1.391 . S
C668 C670 1.394 . S
C668 H684 0.931 . S
C669 C668 1.391 . S
C669 C673 1.376 . S
C670 C668 1.394 . S
C670 C671 1.369 . S
C670 C674 1.531 . S
C671 C670 1.369 . S
C671 C672 1.410 . S
C671 C679 1.503 1_545 S
C672 C671 1.410 . S
C672 C673 1.392 . S
C672 C675 1.511 . S
C673 C669 1.376 . S
C673 C672 1.392 . S
C673 H685 0.929 . S
C674 C670 1.531 . S
C674 H686 0.960 1_545 S
C674 H687 0.962 . S
C674 H688 0.960 . S
C675 C672 1.511 . S
C675 H689 0.961 . S
C675 H690 0.961 . S
C675 H691 0.961 1_545 S
C676 C677 1.370 . S
C676 C678 1.363 1_565 S
C676 H692 0.931 . S
C677 C676 1.370 . S
C677 C681 1.408 . S
C678 C676 1.363 1_545 S
C678 C679 1.370 1_545 S
C678 C682 1.524 . S
C679 C671 1.503 1_565 S
C679 C678 1.370 1_565 S
C679 C680 1.403 . S
C680 C679 1.403 . S
C680 C681 1.404 . S
C680 C683 1.539 . S
C681 C677 1.408 . S
C681 C680 1.404 . S
C681 H693 0.930 . S
C682 C678 1.524 . S
C682 H694 0.956 . S
C682 H695 0.961 . S
C682 H696 0.961 . S
C683 C680 1.539 . S
C683 H697 0.958 . S
C683 H698 0.961 . S
C683 H699 0.960 . S
H684 C668 0.931 . S
H685 C673 0.929 . S
H686 C674 0.960 1_565 S
H687 C674 0.962 . S
H688 C674 0.960 . S
H689 C675 0.961 . S
H690 C675 0.961 . S
H691 C675 0.961 1_565 S
H692 C676 0.931 . S
H693 C681 0.930 . S
H694 C682 0.956 . S
H695 C682 0.961 . S
H696 C682 0.961 . S
H697 C683 0.958 . S
H698 C683 0.961 . S
H699 C683 0.960 . S
C700 C701 1.391 . S
C700 C702 1.394 . S
C700 H716 0.931 . S
C701 C700 1.391 . S
C701 C705 1.376 . S
C702 C700 1.394 . S
C702 C703 1.369 . S
C702 C706 1.531 . S
C703 C702 1.369 . S
C703 C704 1.410 . S
C703 C711 1.500 1_455 S
C704 C703 1.410 . S
C704 C705 1.392 . S
C704 C707 1.511 . S
C705 C701 1.376 . S
C705 C704 1.392 . S
C705 H717 0.929 . S
C706 C702 1.531 . S
C706 H718 0.960 . S
C706 H719 0.962 . S
C706 H720 0.960 . S
C707 C704 1.511 . S
C707 H721 0.961 1_455 S
C707 H722 0.961 1_455 S
C707 H723 0.961 . S
C708 C709 1.370 . S
C708 C710 1.363 . S
C708 H724 0.931 . S
C709 C708 1.370 . S
C709 C713 1.408 . S
C710 C708 1.363 . S
C710 C711 1.376 . S
C710 C714 1.524 . S
C711 C703 1.500 1_655 S
C711 C710 1.376 . S
C711 C712 1.400 1_655 S
C712 C711 1.400 1_455 S
C712 C713 1.404 1_455 S
C712 C715 1.539 . S
C713 C709 1.408 . S
C713 C712 1.404 1_655 S
C713 H725 0.930 . S
C714 C710 1.524 . S
C714 H726 0.956 . S
C714 H727 0.961 . S
C714 H728 0.961 . S
C715 C712 1.539 . S
C715 H729 0.958 . S
C715 H730 0.961 . S
C715 H731 0.960 . S
H716 C700 0.931 . S
H717 C705 0.929 . S
H718 C706 0.960 . S
H719 C706 0.962 . S
H720 C706 0.960 . S
H721 C707 0.961 1_655 S
H722 C707 0.961 1_655 S
H723 C707 0.961 . S
H724 C708 0.931 . S
H725 C713 0.930 . S
H726 C714 0.956 . S
H727 C714 0.961 . S
H728 C714 0.961 . S
H729 C715 0.958 . S
H730 C715 0.961 . S
H731 C715 0.960 . S
C732 C733 1.391 . S
C732 C734 1.394 . S
C732 H748 0.931 . S
C733 C732 1.391 . S
C733 C737 1.376 . S
C734 C732 1.394 . S
C734 C735 1.369 . S
C734 C738 1.531 . S
C735 C734 1.369 . S
C735 C736 1.410 . S
C735 C743 1.503 . S
C736 C735 1.410 . S
C736 C737 1.392 . S
C736 C739 1.511 . S
C737 C733 1.376 . S
C737 C736 1.392 . S
C737 H749 0.929 . S
C738 C734 1.531 . S
C738 H750 0.960 . S
C738 H751 0.962 . S
C738 H752 0.960 . S
C739 C736 1.511 . S
C739 H753 0.961 . S
C739 H754 0.961 . S
C739 H755 0.961 . S
C740 C741 1.370 . S
C740 C742 1.363 . S
C740 H756 0.931 . S
C741 C740 1.370 . S
C741 C745 1.408 . S
C742 C740 1.363 . S
C742 C743 1.370 . S
C742 C746 1.524 . S
C743 C735 1.503 . S
C743 C742 1.370 . S
C743 C744 1.403 . S
C744 C743 1.403 . S
C744 C745 1.404 . S
C744 C747 1.539 . S
C745 C741 1.408 . S
C745 C744 1.404 . S
C745 H757 0.930 . S
C746 C742 1.524 . S
C746 H758 0.956 . S
C746 H759 0.961 . S
C746 H760 0.961 . S
C747 C744 1.539 . S
C747 H761 0.958 . S
C747 H762 0.961 . S
C747 H763 0.960 . S
H748 C732 0.931 . S
H749 C737 0.929 . S
H750 C738 0.960 . S
H751 C738 0.962 . S
H752 C738 0.960 . S
H753 C739 0.961 . S
H754 C739 0.961 . S
H755 C739 0.961 . S
H756 C740 0.931 . S
H757 C745 0.930 . S
H758 C746 0.956 . S
H759 C746 0.961 . S
H760 C746 0.961 . S
H761 C747 0.958 . S
H762 C747 0.961 . S
H763 C747 0.960 . S
C764 C765 1.391 . S
C764 C766 1.394 . S
C764 H780 0.931 . S
C765 C764 1.391 . S
C765 C769 1.376 . S
C766 C764 1.394 . S
C766 C767 1.369 . S
C766 C770 1.531 1_545 S
C767 C766 1.369 . S
C767 C768 1.410 . S
C767 C775 1.503 1_545 S
C768 C767 1.410 . S
C768 C769 1.392 . S
C768 C771 1.511 . S
C769 C765 1.376 . S
C769 C768 1.392 . S
C769 H781 0.929 . S
C770 C766 1.531 1_565 S
C770 H782 0.960 . S
C770 H783 0.962 . S
C770 H784 0.960 . S
C771 C768 1.511 . S
C771 H785 0.961 . S
C771 H786 0.961 . S
C771 H787 0.961 . S
C772 C773 1.370 . S
C772 C774 1.363 . S
C772 H788 0.931 . S
C773 C772 1.370 . S
C773 C777 1.408 . S
C774 C772 1.363 . S
C774 C775 1.370 . S
C774 C778 1.524 1_565 S
C775 C767 1.503 1_565 S
C775 C774 1.370 . S
C775 C776 1.403 . S
C776 C775 1.403 . S
C776 C777 1.404 . S
C776 C779 1.539 . S
C777 C773 1.408 . S
C777 C776 1.404 . S
C777 H789 0.930 . S
C778 C774 1.524 1_545 S
C778 H790 0.956 . S
C778 H791 0.961 . S
C778 H792 0.961 . S
C779 C776 1.539 . S
C779 H793 0.958 . S
C779 H794 0.961 . S
C779 H795 0.960 . S
H780 C764 0.931 . S
H781 C769 0.929 . S
H782 C770 0.960 . S
H783 C770 0.962 . S
H784 C770 0.960 . S
H785 C771 0.961 . S
H786 C771 0.961 . S
H787 C771 0.961 . S
H788 C772 0.931 . S
H789 C777 0.930 . S
H790 C778 0.956 . S
H791 C778 0.961 . S
H792 C778 0.961 . S
H793 C779 0.958 . S
H794 C779 0.961 . S
H795 C779 0.960 . S
C796 C797 1.391 . S
C796 C798 1.394 . S
C796 H812 0.931 . S
C797 C796 1.391 . S
C797 C801 1.376 . S
C798 C796 1.394 . S
C798 C799 1.369 . S
C798 C802 1.531 1_455 S
C799 C798 1.369 . S
C799 C800 1.410 . S
C799 C807 1.492 1_455 S
C800 C799 1.410 . S
C800 C801 1.392 . S
C800 C803 1.511 . S
C801 C797 1.376 . S
C801 C800 1.392 . S
C801 H813 0.929 . S
C802 C798 1.531 1_655 S
C802 H814 0.960 . S
C802 H815 0.962 . S
C802 H816 0.960 1_655 S
C803 C800 1.511 . S
C803 H817 0.961 . S
C803 H818 0.961 . S
C803 H819 0.961 . S
C804 C805 1.370 . S
C804 C806 1.363 . S
C804 H820 0.931 . S
C805 C804 1.370 . S
C805 C809 1.408 . S
C806 C804 1.363 . S
C806 C807 1.382 . S
C806 C810 1.524 . S
C807 C799 1.492 1_655 S
C807 C806 1.382 . S
C807 C808 1.403 1_655 S
C808 C807 1.403 1_455 S
C808 C809 1.404 1_455 S
C808 C811 1.539 . S
C809 C805 1.408 . S
C809 C808 1.404 1_655 S
C809 H821 0.930 . S
C810 C806 1.524 . S
C810 H822 0.956 . S
C810 H823 0.961 . S
C810 H824 0.961 . S
C811 C808 1.539 . S
C811 H825 0.958 . S
C811 H826 0.961 . S
C811 H827 0.960 . S
H812 C796 0.931 . S
H813 C801 0.929 . S
H814 C802 0.960 . S
H815 C802 0.962 . S
H816 C802 0.960 1_455 S
H817 C803 0.961 . S
H818 C803 0.961 . S
H819 C803 0.961 . S
H820 C804 0.931 . S
H821 C809 0.930 . S
H822 C810 0.956 . S
H823 C810 0.961 . S
H824 C810 0.961 . S
H825 C811 0.958 . S
H826 C811 0.961 . S
H827 C811 0.960 . S
C828 C829 1.391 . S
C828 C830 1.394 . S
C828 H844 0.931 . S
C829 C828 1.391 . S
C829 C833 1.376 . S
C830 C828 1.394 . S
C830 C831 1.369 . S
C830 C834 1.531 . S
C831 C830 1.369 . S
C831 C832 1.410 . S
C831 C839 1.503 . S
C832 C831 1.410 . S
C832 C833 1.392 . S
C832 C835 1.511 . S
C833 C829 1.376 . S
C833 C832 1.392 . S
C833 H845 0.929 . S
C834 C830 1.531 . S
C834 H846 0.960 . S
C834 H847 0.962 . S
C834 H848 0.960 . S
C835 C832 1.511 . S
C835 H849 0.961 . S
C835 H850 0.961 . S
C835 H851 0.961 . S
C836 C837 1.370 . S
C836 C838 1.363 . S
C836 H852 0.931 . S
C837 C836 1.370 . S
C837 C841 1.408 . S
C838 C836 1.363 . S
C838 C839 1.370 . S
C838 C842 1.524 . S
C839 C831 1.503 . S
C839 C838 1.370 . S
C839 C840 1.403 . S
C840 C839 1.403 . S
C840 C841 1.404 . S
C840 C843 1.539 . S
C841 C837 1.408 . S
C841 C840 1.404 . S
C841 H853 0.930 . S
C842 C838 1.524 . S
C842 H854 0.956 . S
C842 H855 0.961 . S
C842 H856 0.961 . S
C843 C840 1.539 . S
C843 H857 0.958 . S
C843 H858 0.961 . S
C843 H859 0.960 . S
H844 C828 0.931 . S
H845 C833 0.929 . S
H846 C834 0.960 . S
H847 C834 0.962 . S
H848 C834 0.960 . S
H849 C835 0.961 . S
H850 C835 0.961 . S
H851 C835 0.961 . S
H852 C836 0.931 . S
H853 C841 0.930 . S
H854 C842 0.956 . S
H855 C842 0.961 . S
H856 C842 0.961 . S
H857 C843 0.958 . S
H858 C843 0.961 . S
H859 C843 0.960 . S
C860 C861 1.391 . S
C860 C862 1.394 . S
C860 H876 0.931 . S
C861 C860 1.391 . S
C861 C865 1.376 . S
C862 C860 1.394 . S
C862 C863 1.369 . S
C862 C866 1.531 . S
C863 C862 1.369 . S
C863 C864 1.410 . S
C863 C871 1.503 . S
C864 C863 1.410 . S
C864 C865 1.392 . S
C864 C867 1.511 . S
C865 C861 1.376 . S
C865 C864 1.392 . S
C865 H877 0.929 . S
C866 C862 1.531 . S
C866 H878 0.960 . S
C866 H879 0.962 . S
C866 H880 0.960 . S
C867 C864 1.511 . S
C867 H881 0.961 . S
C867 H882 0.961 . S
C867 H883 0.961 . S
C868 C869 1.370 . S
C868 C870 1.363 . S
C868 H884 0.931 . S
C869 C868 1.370 . S
C869 C873 1.408 . S
C870 C868 1.363 . S
C870 C871 1.370 . S
C870 C874 1.524 . S
C871 C863 1.503 . S
C871 C870 1.370 . S
C871 C872 1.403 . S
C872 C871 1.403 . S
C872 C873 1.404 . S
C872 C875 1.539 . S
C873 C869 1.408 . S
C873 C872 1.404 . S
C873 H885 0.930 . S
C874 C870 1.524 . S
C874 H886 0.956 . S
C874 H887 0.961 . S
C874 H888 0.961 . S
C875 C872 1.539 . S
C875 H889 0.958 . S
C875 H890 0.961 . S
C875 H891 0.960 . S
H876 C860 0.931 . S
H877 C865 0.929 . S
H878 C866 0.960 . S
H879 C866 0.962 . S
H880 C866 0.960 . S
H881 C867 0.961 . S
H882 C867 0.961 . S
H883 C867 0.961 . S
H884 C868 0.931 . S
H885 C873 0.930 . S
H886 C874 0.956 . S
H887 C874 0.961 . S
H888 C874 0.961 . S
H889 C875 0.958 . S
H890 C875 0.961 . S
H891 C875 0.960 . S
C892 C893 1.391 . S
C892 C894 1.394 . S
C892 H908 0.931 . S
C893 C892 1.391 . S
C893 C897 1.376 . S
C894 C892 1.394 . S
C894 C895 1.369 . S
C894 C898 1.531 . S
C895 C894 1.369 . S
C895 C896 1.410 . S
C895 C903 1.503 . S
C896 C895 1.410 . S
C896 C897 1.392 . S
C896 C899 1.511 . S
C897 C893 1.376 . S
C897 C896 1.392 . S
C897 H909 0.929 . S
C898 C894 1.531 . S
C898 H910 0.960 . S
C898 H911 0.962 . S
C898 H912 0.960 . S
C899 C896 1.511 . S
C899 H913 0.961 . S
C899 H914 0.961 . S
C899 H915 0.961 . S
C900 C901 1.370 . S
C900 C902 1.363 . S
C900 H916 0.931 . S
C901 C900 1.370 . S
C901 C905 1.408 . S
C902 C900 1.363 . S
C902 C903 1.370 . S
C902 C906 1.524 . S
C903 C895 1.503 . S
C903 C902 1.370 . S
C903 C904 1.403 . S
C904 C903 1.403 . S
C904 C905 1.404 . S
C904 C907 1.539 . S
C905 C901 1.408 . S
C905 C904 1.404 . S
C905 H917 0.930 . S
C906 C902 1.524 . S
C906 H918 0.956 . S
C906 H919 0.961 . S
C906 H920 0.961 . S
C907 C904 1.539 . S
C907 H921 0.958 . S
C907 H922 0.961 . S
C907 H923 0.960 . S
H908 C892 0.931 . S
H909 C897 0.929 . S
H910 C898 0.960 . S
H911 C898 0.962 . S
H912 C898 0.960 . S
H913 C899 0.961 . S
H914 C899 0.961 . S
H915 C899 0.961 . S
H916 C900 0.931 . S
H917 C905 0.930 . S
H918 C906 0.956 . S
H919 C906 0.961 . S
H920 C906 0.961 . S
H921 C907 0.958 . S
H922 C907 0.961 . S
H923 C907 0.960 . S
C924 C925 1.391 . S
C924 C926 1.394 . S
C924 H940 0.931 . S
C925 C924 1.391 . S
C925 C929 1.376 . S
C926 C924 1.394 . S
C926 C927 1.369 . S
C926 C930 1.531 . S
C927 C926 1.369 . S
C927 C928 1.410 . S
C927 C935 1.503 . S
C928 C927 1.410 . S
C928 C929 1.392 . S
C928 C931 1.511 . S
C929 C925 1.376 . S
C929 C928 1.392 . S
C929 H941 0.929 . S
C930 C926 1.531 . S
C930 H942 0.960 . S
C930 H943 0.962 . S
C930 H944 0.960 . S
C931 C928 1.511 . S
C931 H945 0.961 . S
C931 H946 0.961 . S
C931 H947 0.961 . S
C932 C933 1.370 . S
C932 C934 1.363 . S
C932 H948 0.931 . S
C933 C932 1.370 . S
C933 C937 1.408 . S
C934 C932 1.363 . S
C934 C935 1.370 . S
C934 C938 1.524 . S
C935 C927 1.503 . S
C935 C934 1.370 . S
C935 C936 1.403 . S
C936 C935 1.403 . S
C936 C937 1.404 . S
C936 C939 1.539 . S
C937 C933 1.408 . S
C937 C936 1.404 . S
C937 H949 0.930 . S
C938 C934 1.524 . S
C938 H950 0.956 . S
C938 H951 0.961 . S
C938 H952 0.961 . S
C939 C936 1.539 . S
C939 H953 0.958 . S
C939 H954 0.961 . S
C939 H955 0.960 . S
H940 C924 0.931 . S
H941 C929 0.929 . S
H942 C930 0.960 . S
H943 C930 0.962 . S
H944 C930 0.960 . S
H945 C931 0.961 . S
H946 C931 0.961 . S
H947 C931 0.961 . S
H948 C932 0.931 . S
H949 C937 0.930 . S
H950 C938 0.956 . S
H951 C938 0.961 . S
H952 C938 0.961 . S
H953 C939 0.958 . S
H954 C939 0.961 . S
H955 C939 0.960 . S
C956 C957 1.391 . S
C956 C958 1.394 . S
C956 H972 0.931 . S
C957 C956 1.391 . S
C957 C961 1.376 . S
C958 C956 1.394 . S
C958 C959 1.369 . S
C958 C962 1.531 . S
C959 C958 1.369 . S
C959 C960 1.410 . S
C959 C967 1.503 . S
C960 C959 1.410 . S
C960 C961 1.392 . S
C960 C963 1.511 . S
C961 C957 1.376 . S
C961 C960 1.392 . S
C961 H973 0.929 . S
C962 C958 1.531 . S
C962 H974 0.960 . S
C962 H975 0.962 . S
C962 H976 0.960 . S
C963 C960 1.511 . S
C963 H977 0.961 . S
C963 H978 0.961 . S
C963 H979 0.961 . S
C964 C965 1.370 . S
C964 C966 1.363 . S
C964 H980 0.931 . S
C965 C964 1.370 . S
C965 C969 1.408 . S
C966 C964 1.363 . S
C966 C967 1.370 . S
C966 C970 1.524 . S
C967 C959 1.503 . S
C967 C966 1.370 . S
C967 C968 1.403 . S
C968 C967 1.403 . S
C968 C969 1.404 . S
C968 C971 1.539 . S
C969 C965 1.408 . S
C969 C968 1.404 . S
C969 H981 0.930 . S
C970 C966 1.524 . S
C970 H982 0.956 . S
C970 H983 0.961 . S
C970 H984 0.961 . S
C971 C968 1.539 . S
C971 H985 0.958 . S
C971 H986 0.961 . S
C971 H987 0.960 . S
H972 C956 0.931 . S
H973 C961 0.929 . S
H974 C962 0.960 . S
H975 C962 0.962 . S
H976 C962 0.960 . S
H977 C963 0.961 . S
H978 C963 0.961 . S
H979 C963 0.961 . S
H980 C964 0.931 . S
H981 C969 0.930 . S
H982 C970 0.956 . S
H983 C970 0.961 . S
H984 C970 0.961 . S
H985 C971 0.958 . S
H986 C971 0.961 . S
H987 C971 0.960 . S
C988 C989 1.391 . S
C988 C990 1.394 . S
C988 H1004 0.931 . S
C989 C988 1.391 . S
C989 C993 1.376 . S
C990 C988 1.394 . S
C990 C991 1.369 . S
C990 C994 1.531 . S
C991 C990 1.369 . S
C991 C992 1.410 . S
C991 C999 1.503 . S
C992 C991 1.410 . S
C992 C993 1.392 . S
C992 C995 1.511 . S
C993 C989 1.376 . S
C993 C992 1.392 . S
C993 H1005 0.929 . S
C994 C990 1.531 . S
C994 H1006 0.960 . S
C994 H1007 0.962 . S
C994 H1008 0.960 . S
C995 C992 1.511 . S
C995 H1009 0.961 . S
C995 H1010 0.961 . S
C995 H1011 0.961 . S
C996 C997 1.370 . S
C996 C998 1.363 . S
C996 H1012 0.931 . S
C997 C996 1.370 . S
C997 C1001 1.408 . S
C998 C996 1.363 . S
C998 C999 1.370 . S
C998 C1002 1.524 . S
C999 C991 1.503 . S
C999 C998 1.370 . S
C999 C1000 1.403 . S
C1000 C999 1.403 . S
C1000 C1001 1.404 . S
C1000 C1003 1.539 . S
C1001 C997 1.408 . S
C1001 C1000 1.404 . S
C1001 H1013 0.930 . S
C1002 C998 1.524 . S
C1002 H1014 0.956 . S
C1002 H1015 0.961 . S
C1002 H1016 0.961 . S
C1003 C1000 1.539 . S
C1003 H1017 0.958 . S
C1003 H1018 0.961 . S
C1003 H1019 0.960 . S
H1004 C988 0.931 . S
H1005 C993 0.929 . S
H1006 C994 0.960 . S
H1007 C994 0.962 . S
H1008 C994 0.960 . S
H1009 C995 0.961 . S
H1010 C995 0.961 . S
H1011 C995 0.961 . S
H1012 C996 0.931 . S
H1013 C1001 0.930 . S
H1014 C1002 0.956 . S
H1015 C1002 0.961 . S
H1016 C1002 0.961 . S
H1017 C1003 0.958 . S
H1018 C1003 0.961 . S
H1019 C1003 0.960 . S
C1020 C1021 1.391 . S
C1020 C1022 1.394 . S
C1020 H1036 0.931 . S
C1021 C1020 1.391 . S
C1021 C1025 1.376 . S
C1022 C1020 1.394 . S
C1022 C1023 1.369 . S
C1022 C1026 1.531 . S
C1023 C1022 1.369 . S
C1023 C1024 1.410 . S
C1023 C1031 1.503 . S
C1024 C1023 1.410 . S
C1024 C1025 1.392 . S
C1024 C1027 1.511 . S
C1025 C1021 1.376 . S
C1025 C1024 1.392 . S
C1025 H1037 0.929 . S
C1026 C1022 1.531 . S
C1026 H1038 0.960 . S
C1026 H1039 0.962 . S
C1026 H1040 0.960 . S
C1027 C1024 1.511 . S
C1027 H1041 0.961 . S
C1027 H1042 0.961 . S
C1027 H1043 0.961 . S
C1028 C1029 1.370 . S
C1028 C1030 1.363 . S
C1028 H1044 0.931 . S
C1029 C1028 1.370 . S
C1029 C1033 1.408 . S
C1030 C1028 1.363 . S
C1030 C1031 1.370 . S
C1030 C1034 1.524 . S
C1031 C1023 1.503 . S
C1031 C1030 1.370 . S
C1031 C1032 1.403 . S
C1032 C1031 1.403 . S
C1032 C1033 1.404 . S
C1032 C1035 1.539 . S
C1033 C1029 1.408 . S
C1033 C1032 1.404 . S
C1033 H1045 0.930 . S
C1034 C1030 1.524 . S
C1034 H1046 0.956 . S
C1034 H1047 0.961 . S
C1034 H1048 0.961 . S
C1035 C1032 1.539 . S
C1035 H1049 0.958 . S
C1035 H1050 0.961 . S
C1035 H1051 0.960 . S
H1036 C1020 0.931 . S
H1037 C1025 0.929 . S
H1038 C1026 0.960 . S
H1039 C1026 0.962 . S
H1040 C1026 0.960 . S
H1041 C1027 0.961 . S
H1042 C1027 0.961 . S
H1043 C1027 0.961 . S
H1044 C1028 0.931 . S
H1045 C1033 0.930 . S
H1046 C1034 0.956 . S
H1047 C1034 0.961 . S
H1048 C1034 0.961 . S
H1049 C1035 0.958 . S
H1050 C1035 0.961 . S
H1051 C1035 0.960 . S
C1052 C1053 1.391 . S
C1052 C1054 1.394 . S
C1052 H1068 0.931 . S
C1053 C1052 1.391 . S
C1053 C1057 1.376 . S
C1054 C1052 1.394 . S
C1054 C1055 1.369 . S
C1054 C1058 1.531 . S
C1055 C1054 1.369 . S
C1055 C1056 1.410 . S
C1055 C1063 1.503 . S
C1056 C1055 1.410 . S
C1056 C1057 1.392 . S
C1056 C1059 1.511 . S
C1057 C1053 1.376 . S
C1057 C1056 1.392 . S
C1057 H1069 0.929 . S
C1058 C1054 1.531 . S
C1058 H1070 0.960 . S
C1058 H1071 0.962 . S
C1058 H1072 0.960 . S
C1059 C1056 1.511 . S
C1059 H1073 0.961 . S
C1059 H1074 0.961 . S
C1059 H1075 0.961 . S
C1060 C1061 1.370 . S
C1060 C1062 1.363 . S
C1060 H1076 0.931 . S
C1061 C1060 1.370 . S
C1061 C1065 1.408 . S
C1062 C1060 1.363 . S
C1062 C1063 1.370 . S
C1062 C1066 1.524 . S
C1063 C1055 1.503 . S
C1063 C1062 1.370 . S
C1063 C1064 1.403 . S
C1064 C1063 1.403 . S
C1064 C1065 1.404 . S
C1064 C1067 1.539 . S
C1065 C1061 1.408 . S
C1065 C1064 1.404 . S
C1065 H1077 0.930 . S
C1066 C1062 1.524 . S
C1066 H1078 0.956 . S
C1066 H1079 0.961 . S
C1066 H1080 0.961 . S
C1067 C1064 1.539 . S
C1067 H1081 0.958 . S
C1067 H1082 0.961 . S
C1067 H1083 0.960 . S
H1068 C1052 0.931 . S
H1069 C1057 0.929 . S
H1070 C1058 0.960 . S
H1071 C1058 0.962 . S
H1072 C1058 0.960 . S
H1073 C1059 0.961 . S
H1074 C1059 0.961 . S
H1075 C1059 0.961 . S
H1076 C1060 0.931 . S
H1077 C1065 0.930 . S
H1078 C1066 0.956 . S
H1079 C1066 0.961 . S
H1080 C1066 0.961 . S
H1081 C1067 0.958 . S
H1082 C1067 0.961 . S
H1083 C1067 0.960 . S
C1084 C1085 1.391 . S
C1084 C1086 1.394 . S
C1084 H1100 0.931 . S
C1085 C1084 1.391 . S
C1085 C1089 1.376 . S
C1086 C1084 1.394 . S
C1086 C1087 1.369 . S
C1086 C1090 1.531 . S
C1087 C1086 1.369 . S
C1087 C1088 1.410 . S
C1087 C1095 1.503 . S
C1088 C1087 1.410 . S
C1088 C1089 1.392 . S
C1088 C1091 1.511 . S
C1089 C1085 1.376 . S
C1089 C1088 1.392 . S
C1089 H1101 0.929 . S
C1090 C1086 1.531 . S
C1090 H1102 0.960 . S
C1090 H1103 0.962 . S
C1090 H1104 0.960 . S
C1091 C1088 1.511 . S
C1091 H1105 0.961 . S
C1091 H1106 0.961 . S
C1091 H1107 0.961 . S
C1092 C1093 1.370 . S
C1092 C1094 1.363 . S
C1092 H1108 0.931 . S
C1093 C1092 1.370 . S
C1093 C1097 1.408 . S
C1094 C1092 1.363 . S
C1094 C1095 1.370 . S
C1094 C1098 1.524 . S
C1095 C1087 1.503 . S
C1095 C1094 1.370 . S
C1095 C1096 1.403 . S
C1096 C1095 1.403 . S
C1096 C1097 1.404 . S
C1096 C1099 1.539 . S
C1097 C1093 1.408 . S
C1097 C1096 1.404 . S
C1097 H1109 0.930 . S
C1098 C1094 1.524 . S
C1098 H1110 0.956 . S
C1098 H1111 0.961 . S
C1098 H1112 0.961 . S
C1099 C1096 1.539 . S
C1099 H1113 0.958 . S
C1099 H1114 0.961 . S
C1099 H1115 0.960 . S
H1100 C1084 0.931 . S
H1101 C1089 0.929 . S
H1102 C1090 0.960 . S
H1103 C1090 0.962 . S
H1104 C1090 0.960 . S
H1105 C1091 0.961 . S
H1106 C1091 0.961 . S
H1107 C1091 0.961 . S
H1108 C1092 0.931 . S
H1109 C1097 0.930 . S
H1110 C1098 0.956 . S
H1111 C1098 0.961 . S
H1112 C1098 0.961 . S
H1113 C1099 0.958 . S
H1114 C1099 0.961 . S
H1115 C1099 0.960 . S
C1116 C1117 1.391 . S
C1116 C1118 1.394 . S
C1116 H1132 0.931 . S
C1117 C1116 1.391 . S
C1117 C1121 1.376 . S
C1118 C1116 1.394 . S
C1118 C1119 1.369 . S
C1118 C1122 1.531 . S
C1119 C1118 1.369 . S
C1119 C1120 1.410 . S
C1119 C1127 1.503 . S
C1120 C1119 1.410 . S
C1120 C1121 1.392 . S
C1120 C1123 1.511 . S
C1121 C1117 1.376 . S
C1121 C1120 1.392 . S
C1121 H1133 0.929 . S
C1122 C1118 1.531 . S
C1122 H1134 0.960 . S
C1122 H1135 0.962 . S
C1122 H1136 0.960 . S
C1123 C1120 1.511 . S
C1123 H1137 0.961 . S
C1123 H1138 0.961 . S
C1123 H1139 0.961 . S
C1124 C1125 1.370 . S
C1124 C1126 1.363 . S
C1124 H1140 0.931 . S
C1125 C1124 1.370 . S
C1125 C1129 1.408 . S
C1126 C1124 1.363 . S
C1126 C1127 1.370 . S
C1126 C1130 1.524 . S
C1127 C1119 1.503 . S
C1127 C1126 1.370 . S
C1127 C1128 1.403 . S
C1128 C1127 1.403 . S
C1128 C1129 1.404 . S
C1128 C1131 1.539 . S
C1129 C1125 1.408 . S
C1129 C1128 1.404 . S
C1129 H1141 0.930 . S
C1130 C1126 1.524 . S
C1130 H1142 0.956 . S
C1130 H1143 0.961 . S
C1130 H1144 0.961 . S
C1131 C1128 1.539 . S
C1131 H1145 0.958 . S
C1131 H1146 0.961 . S
C1131 H1147 0.960 . S
H1132 C1116 0.931 . S
H1133 C1121 0.929 . S
H1134 C1122 0.960 . S
H1135 C1122 0.962 . S
H1136 C1122 0.960 . S
H1137 C1123 0.961 . S
H1138 C1123 0.961 . S
H1139 C1123 0.961 . S
H1140 C1124 0.931 . S
H1141 C1129 0.930 . S
H1142 C1130 0.956 . S
H1143 C1130 0.961 . S
H1144 C1130 0.961 . S
H1145 C1131 0.958 . S
H1146 C1131 0.961 . S
H1147 C1131 0.960 . S
C1148 C1149 1.391 . S
C1148 C1150 1.394 . S
C1148 H1164 0.931 . S
C1149 C1148 1.391 . S
C1149 C1153 1.376 . S
C1150 C1148 1.394 . S
C1150 C1151 1.369 . S
C1150 C1154 1.531 . S
C1151 C1150 1.369 . S
C1151 C1152 1.410 . S
C1151 C1159 1.503 . S
C1152 C1151 1.410 . S
C1152 C1153 1.392 . S
C1152 C1155 1.511 . S
C1153 C1149 1.376 . S
C1153 C1152 1.392 . S
C1153 H1165 0.929 . S
C1154 C1150 1.531 . S
C1154 H1166 0.960 . S
C1154 H1167 0.962 . S
C1154 H1168 0.960 . S
C1155 C1152 1.511 . S
C1155 H1169 0.961 . S
C1155 H1170 0.961 . S
C1155 H1171 0.961 . S
C1156 C1157 1.370 . S
C1156 C1158 1.363 . S
C1156 H1172 0.931 . S
C1157 C1156 1.370 . S
C1157 C1161 1.408 . S
C1158 C1156 1.363 . S
C1158 C1159 1.370 . S
C1158 C1162 1.524 . S
C1159 C1151 1.503 . S
C1159 C1158 1.370 . S
C1159 C1160 1.403 . S
C1160 C1159 1.403 . S
C1160 C1161 1.404 . S
C1160 C1163 1.539 . S
C1161 C1157 1.408 . S
C1161 C1160 1.404 . S
C1161 H1173 0.930 . S
C1162 C1158 1.524 . S
C1162 H1174 0.956 . S
C1162 H1175 0.961 . S
C1162 H1176 0.961 . S
C1163 C1160 1.539 . S
C1163 H1177 0.958 . S
C1163 H1178 0.961 . S
C1163 H1179 0.960 . S
H1164 C1148 0.931 . S
H1165 C1153 0.929 . S
H1166 C1154 0.960 . S
H1167 C1154 0.962 . S
H1168 C1154 0.960 . S
H1169 C1155 0.961 . S
H1170 C1155 0.961 . S
H1171 C1155 0.961 . S
H1172 C1156 0.931 . S
H1173 C1161 0.930 . S
H1174 C1162 0.956 . S
H1175 C1162 0.961 . S
H1176 C1162 0.961 . S
H1177 C1163 0.958 . S
H1178 C1163 0.961 . S
H1179 C1163 0.960 . S
C1180 C1181 1.391 . S
C1180 C1182 1.394 . S
C1180 H1196 0.931 . S
C1181 C1180 1.391 . S
C1181 C1185 1.376 . S
C1182 C1180 1.394 . S
C1182 C1183 1.369 . S
C1182 C1186 1.531 . S
C1183 C1182 1.369 . S
C1183 C1184 1.410 . S
C1183 C1191 1.503 . S
C1184 C1183 1.410 . S
C1184 C1185 1.392 . S
C1184 C1187 1.511 . S
C1185 C1181 1.376 . S
C1185 C1184 1.392 . S
C1185 H1197 0.929 . S
C1186 C1182 1.531 . S
C1186 H1198 0.960 . S
C1186 H1199 0.962 . S
C1186 H1200 0.960 . S
C1187 C1184 1.511 . S
C1187 H1201 0.961 . S
C1187 H1202 0.961 . S
C1187 H1203 0.961 . S
C1188 C1189 1.370 . S
C1188 C1190 1.363 . S
C1188 H1204 0.931 . S
C1189 C1188 1.370 . S
C1189 C1193 1.408 . S
C1190 C1188 1.363 . S
C1190 C1191 1.370 . S
C1190 C1194 1.524 . S
C1191 C1183 1.503 . S
C1191 C1190 1.370 . S
C1191 C1192 1.403 . S
C1192 C1191 1.403 . S
C1192 C1193 1.404 . S
C1192 C1195 1.539 . S
C1193 C1189 1.408 . S
C1193 C1192 1.404 . S
C1193 H1205 0.930 . S
C1194 C1190 1.524 . S
C1194 H1206 0.956 . S
C1194 H1207 0.961 . S
C1194 H1208 0.961 . S
C1195 C1192 1.539 . S
C1195 H1209 0.958 . S
C1195 H1210 0.961 . S
C1195 H1211 0.960 . S
H1196 C1180 0.931 . S
H1197 C1185 0.929 . S
H1198 C1186 0.960 . S
H1199 C1186 0.962 . S
H1200 C1186 0.960 . S
H1201 C1187 0.961 . S
H1202 C1187 0.961 . S
H1203 C1187 0.961 . S
H1204 C1188 0.931 . S
H1205 C1193 0.930 . S
H1206 C1194 0.956 . S
H1207 C1194 0.961 . S
H1208 C1194 0.961 . S
H1209 C1195 0.958 . S
H1210 C1195 0.961 . S
H1211 C1195 0.960 . S
C1212 C1213 1.391 . S
C1212 C1214 1.394 . S
C1212 H1228 0.931 . S
C1213 C1212 1.391 . S
C1213 C1217 1.376 . S
C1214 C1212 1.394 . S
C1214 C1215 1.369 . S
C1214 C1218 1.531 . S
C1215 C1214 1.369 . S
C1215 C1216 1.410 . S
C1215 C1223 1.503 . S
C1216 C1215 1.410 . S
C1216 C1217 1.392 . S
C1216 C1219 1.511 . S
C1217 C1213 1.376 . S
C1217 C1216 1.392 . S
C1217 H1229 0.929 . S
C1218 C1214 1.531 . S
C1218 H1230 0.960 . S
C1218 H1231 0.962 . S
C1218 H1232 0.960 . S
C1219 C1216 1.511 . S
C1219 H1233 0.961 . S
C1219 H1234 0.961 . S
C1219 H1235 0.961 . S
C1220 C1221 1.370 . S
C1220 C1222 1.363 . S
C1220 H1236 0.931 . S
C1221 C1220 1.370 . S
C1221 C1225 1.408 . S
C1222 C1220 1.363 . S
C1222 C1223 1.370 . S
C1222 C1226 1.524 . S
C1223 C1215 1.503 . S
C1223 C1222 1.370 . S
C1223 C1224 1.403 . S
C1224 C1223 1.403 . S
C1224 C1225 1.404 . S
C1224 C1227 1.539 . S
C1225 C1221 1.408 . S
C1225 C1224 1.404 . S
C1225 H1237 0.930 . S
C1226 C1222 1.524 . S
C1226 H1238 0.956 . S
C1226 H1239 0.961 . S
C1226 H1240 0.961 . S
C1227 C1224 1.539 . S
C1227 H1241 0.958 . S
C1227 H1242 0.961 . S
C1227 H1243 0.960 . S
H1228 C1212 0.931 . S
H1229 C1217 0.929 . S
H1230 C1218 0.960 . S
H1231 C1218 0.962 . S
H1232 C1218 0.960 . S
H1233 C1219 0.961 . S
H1234 C1219 0.961 . S
H1235 C1219 0.961 . S
H1236 C1220 0.931 . S
H1237 C1225 0.930 . S
H1238 C1226 0.956 . S
H1239 C1226 0.961 . S
H1240 C1226 0.961 . S
H1241 C1227 0.958 . S
H1242 C1227 0.961 . S
H1243 C1227 0.960 . S
C1244 C1245 1.391 . S
C1244 C1246 1.394 1_545 S
C1244 H1260 0.931 1_545 S
C1245 C1244 1.391 . S
C1245 C1249 1.376 . S
C1246 C1244 1.394 1_565 S
C1246 C1247 1.369 1_565 S
C1246 C1250 1.531 . S
C1247 C1246 1.369 1_545 S
C1247 C1248 1.410 . S
C1247 C1255 1.503 1_545 S
C1248 C1247 1.410 . S
C1248 C1249 1.392 . S
C1248 C1251 1.511 . S
C1249 C1245 1.376 . S
C1249 C1248 1.392 . S
C1249 H1261 0.929 . S
C1250 C1246 1.531 . S
C1250 H1262 0.960 . S
C1250 H1263 0.962 . S
C1250 H1264 0.960 . S
C1251 C1248 1.511 . S
C1251 H1265 0.961 . S
C1251 H1266 0.961 . S
C1251 H1267 0.961 . S
C1252 C1253 1.370 . S
C1252 C1254 1.363 . S
C1252 H1268 0.931 . S
C1253 C1252 1.370 . S
C1253 C1257 1.408 . S
C1254 C1252 1.363 . S
C1254 C1255 1.371 . S
C1254 C1258 1.524 1_565 S
C1255 C1247 1.503 1_565 S
C1255 C1254 1.371 . S
C1255 C1256 1.403 . S
C1256 C1255 1.403 . S
C1256 C1257 1.404 . S
C1256 C1259 1.539 . S
C1257 C1253 1.408 . S
C1257 C1256 1.404 . S
C1257 H1269 0.930 . S
C1258 C1254 1.524 1_545 S
C1258 H1270 0.956 . S
C1258 H1271 0.961 . S
C1258 H1272 0.961 . S
C1259 C1256 1.539 . S
C1259 H1273 0.958 . S
C1259 H1274 0.961 . S
C1259 H1275 0.960 . S
H1260 C1244 0.931 1_565 S
H1261 C1249 0.929 . S
H1262 C1250 0.960 . S
H1263 C1250 0.962 . S
H1264 C1250 0.960 . S
H1265 C1251 0.961 . S
H1266 C1251 0.961 . S
H1267 C1251 0.961 . S
H1268 C1252 0.931 . S
H1269 C1257 0.930 . S
H1270 C1258 0.956 . S
H1271 C1258 0.961 . S
H1272 C1258 0.961 . S
H1273 C1259 0.958 . S
H1274 C1259 0.961 . S
H1275 C1259 0.960 . S
C1276 C1277 1.391 . S
C1276 C1278 1.394 . S
C1276 H1292 0.931 . S
C1277 C1276 1.391 . S
C1277 C1281 1.376 . S
C1278 C1276 1.394 . S
C1278 C1279 1.369 . S
C1278 C1282 1.531 . S
C1279 C1278 1.369 . S
C1279 C1280 1.410 . S
C1279 C1287 1.503 1_455 S
C1280 C1279 1.410 . S
C1280 C1281 1.392 . S
C1280 C1283 1.511 . S
C1281 C1277 1.376 . S
C1281 C1280 1.392 . S
C1281 H1293 0.929 . S
C1282 C1278 1.531 . S
C1282 H1294 0.960 1_455 S
C1282 H1295 0.962 . S
C1282 H1296 0.963 . S
C1283 C1280 1.511 . S
C1283 H1297 0.961 . S
C1283 H1298 0.961 . S
C1283 H1299 0.961 1_455 S
C1284 C1285 1.370 1_455 S
C1284 C1286 1.363 . S
C1284 H1300 0.931 . S
C1285 C1284 1.370 1_655 S
C1285 C1289 1.408 . S
C1286 C1284 1.363 . S
C1286 C1287 1.370 1_455 S
C1286 C1290 1.524 . S
C1287 C1279 1.503 1_655 S
C1287 C1286 1.370 1_655 S
C1287 C1288 1.403 . S
C1288 C1287 1.403 . S
C1288 C1289 1.404 . S
C1288 C1291 1.539 . S
C1289 C1285 1.408 . S
C1289 C1288 1.404 . S
C1289 H1301 0.930 . S
C1290 C1286 1.524 . S
C1290 H1302 0.956 . S
C1290 H1303 0.961 . S
C1290 H1304 0.961 . S
C1291 C1288 1.539 . S
C1291 H1305 0.958 . S
C1291 H1306 0.961 . S
C1291 H1307 0.960 . S
H1292 C1276 0.931 . S
H1293 C1281 0.929 . S
H1294 C1282 0.960 1_655 S
H1295 C1282 0.962 . S
H1296 C1282 0.963 . S
H1297 C1283 0.961 . S
H1298 C1283 0.961 . S
H1299 C1283 0.961 1_655 S
H1300 C1284 0.931 . S
H1301 C1289 0.930 . S
H1302 C1290 0.956 . S
H1303 C1290 0.961 . S
H1304 C1290 0.961 . S
H1305 C1291 0.958 . S
H1306 C1291 0.961 . S
H1307 C1291 0.960 . S
C1308 C1309 1.391 . S
C1308 C1310 1.394 . S
C1308 H1324 0.931 . S
C1309 C1308 1.391 . S
C1309 C1313 1.376 . S
C1310 C1308 1.394 . S
C1310 C1311 1.369 . S
C1310 C1314 1.531 . S
C1311 C1310 1.369 . S
C1311 C1312 1.405 1_556 S
C1311 C1319 1.503 1_556 S
C1312 C1311 1.405 1_554 S
C1312 C1313 1.386 1_554 S
C1312 C1315 1.522 . S
C1313 C1309 1.376 . S
C1313 C1312 1.386 1_556 S
C1313 H1325 0.929 . S
C1314 C1310 1.531 . S
C1314 H1326 0.960 . S
C1314 H1327 0.962 . S
C1314 H1328 0.960 . S
C1315 C1312 1.522 . S
C1315 H1329 0.961 . S
C1315 H1330 0.961 . S
C1315 H1331 0.961 . S
C1316 C1317 1.370 . S
C1316 C1318 1.363 . S
C1316 H1332 0.931 . S
C1317 C1316 1.370 . S
C1317 C1321 1.408 . S
C1318 C1316 1.363 . S
C1318 C1319 1.370 . S
C1318 C1322 1.524 . S
C1319 C1311 1.503 1_554 S
C1319 C1318 1.370 . S
C1319 C1320 1.407 . S
C1320 C1319 1.407 . S
C1320 C1321 1.418 . S
C1320 C1323 1.523 1_554 S
C1321 C1317 1.408 . S
C1321 C1320 1.418 . S
C1321 H1333 0.930 . S
C1322 C1318 1.524 . S
C1322 H1334 0.956 . S
C1322 H1335 0.961 . S
C1322 H1336 0.961 . S
C1323 C1320 1.523 1_556 S
C1323 H1337 0.958 . S
C1323 H1338 0.961 . S
C1323 H1339 0.960 . S
H1324 C1308 0.931 . S
H1325 C1313 0.929 . S
H1326 C1314 0.960 . S
H1327 C1314 0.962 . S
H1328 C1314 0.960 . S
H1329 C1315 0.961 . S
H1330 C1315 0.961 . S
H1331 C1315 0.961 . S
H1332 C1316 0.931 . S
H1333 C1321 0.930 . S
H1334 C1322 0.956 . S
H1335 C1322 0.961 . S
H1336 C1322 0.961 . S
H1337 C1323 0.958 . S
H1338 C1323 0.961 . S
H1339 C1323 0.960 . S
C1340 C1341 1.391 . S
C1340 C1342 1.394 . S
C1340 H1356 0.931 . S
C1341 C1340 1.391 . S
C1341 C1345 1.376 . S
C1342 C1340 1.394 . S
C1342 C1343 1.369 . S
C1342 C1346 1.531 1_565 S
C1343 C1342 1.369 . S
C1343 C1344 1.410 1_556 S
C1343 C1351 1.503 1_566 S
C1344 C1343 1.410 1_554 S
C1344 C1345 1.392 1_554 S
C1344 C1347 1.511 . S
C1345 C1341 1.376 . S
C1345 C1344 1.392 1_556 S
C1345 H1357 0.929 1_556 S
C1346 C1342 1.531 1_545 S
C1346 H1358 0.960 . S
C1346 H1359 0.962 . S
C1346 H1360 0.953 1_545 S
C1347 C1344 1.511 . S
C1347 H1361 0.961 . S
C1347 H1362 0.961 . S
C1347 H1363 0.961 . S
C1348 C1349 1.370 . S
C1348 C1350 1.363 . S
C1348 H1364 0.931 . S
C1349 C1348 1.370 . S
C1349 C1353 1.408 . S
C1350 C1348 1.363 . S
C1350 C1351 1.370 . S
C1350 C1354 1.524 . S
C1351 C1343 1.503 1_544 S
C1351 C1350 1.370 . S
C1351 C1352 1.403 1_545 S
C1352 C1351 1.403 1_565 S
C1352 C1353 1.404 1_565 S
C1352 C1355 1.539 . S
C1353 C1349 1.408 . S
C1353 C1352 1.404 1_545 S
C1353 H1365 0.930 1_545 S
C1354 C1350 1.524 . S
C1354 H1366 0.956 1_554 S
C1354 H1367 0.961 . S
C1354 H1368 0.961 . S
C1355 C1352 1.539 . S
C1355 H1369 0.958 1_554 S
C1355 H1370 0.961 . S
C1355 H1371 0.960 . S
H1356 C1340 0.931 . S
H1357 C1345 0.929 1_554 S
H1358 C1346 0.960 . S
H1359 C1346 0.962 . S
H1360 C1346 0.953 1_565 S
H1361 C1347 0.961 . S
H1362 C1347 0.961 . S
H1363 C1347 0.961 . S
H1364 C1348 0.931 . S
H1365 C1353 0.930 1_565 S
H1366 C1354 0.956 1_556 S
H1367 C1354 0.961 . S
H1368 C1354 0.961 . S
H1369 C1355 0.958 1_556 S
H1370 C1355 0.961 . S
H1371 C1355 0.960 . S
C1372 C1373 1.391 . S
C1372 C1374 1.394 . S
C1372 H1388 0.931 . S
C1373 C1372 1.391 . S
C1373 C1377 1.376 . S
C1374 C1372 1.394 . S
C1374 C1375 1.369 . S
C1374 C1378 1.531 1_455 S
C1375 C1374 1.369 . S
C1375 C1376 1.410 . S
C1375 C1383 1.503 1_556 S
C1376 C1375 1.410 . S
C1376 C1377 1.392 . S
C1376 C1379 1.511 1_556 S
C1377 C1373 1.376 . S
C1377 C1376 1.392 . S
C1377 H1389 0.929 . S
C1378 C1374 1.531 1_655 S
C1378 H1390 0.960 . S
C1378 H1391 0.962 . S
C1378 H1392 0.960 . S
C1379 C1376 1.511 1_554 S
C1379 H1393 0.961 . S
C1379 H1394 0.961 . S
C1379 H1395 0.961 . S
C1380 C1381 1.370 . S
C1380 C1382 1.363 . S
C1380 H1396 0.931 . S
C1381 C1380 1.370 . S
C1381 C1385 1.408 . S
C1382 C1380 1.363 . S
C1382 C1383 1.370 1_655 S
C1382 C1386 1.524 . S
C1383 C1375 1.503 1_554 S
C1383 C1382 1.370 1_455 S
C1383 C1384 1.403 1_554 S
C1384 C1383 1.403 1_556 S
C1384 C1385 1.404 1_456 S
C1384 C1387 1.539 . S
C1385 C1381 1.408 . S
C1385 C1384 1.404 1_654 S
C1385 H1397 0.930 . S
C1386 C1382 1.524 . S
C1386 H1398 0.956 . S
C1386 H1399 0.961 . S
C1386 H1400 0.961 . S
C1387 C1384 1.539 . S
C1387 H1401 0.958 . S
C1387 H1402 0.961 . S
C1387 H1403 0.960 . S
H1388 C1372 0.931 . S
H1389 C1377 0.929 . S
H1390 C1378 0.960 . S
H1391 C1378 0.962 . S
H1392 C1378 0.960 . S
H1393 C1379 0.961 . S
H1394 C1379 0.961 . S
H1395 C1379 0.961 . S
H1396 C1380 0.931 . S
H1397 C1385 0.930 . S
H1398 C1386 0.956 . S
H1399 C1386 0.961 . S
H1400 C1386 0.961 . S
H1401 C1387 0.958 . S
H1402 C1387 0.961 . S
H1403 C1387 0.960 . S
C253 C13 1.876 . S
C261 C208 1.880 1_554 S
C285 C180 1.902 1_554 S
C293 C27 1.886 . S
C317 C40 1.903 . S
C325 C183 1.885 1_554 S
C349 C97 1.907 . S
C357 C41 1.879 . S
C381 C99 1.909 . S
C389 C12 1.876 . S
C413 C125 1.862 . S
C421 C26 1.895 . S
C445 C42 1.859 . S
C453 C167 1.893 1_556 S
C477 C127 1.854 1_556 S
C485 C56 1.898 . S
C509 C141 1.857 1_556 S
C517 C82 1.895 . S
C541 C83 1.879 . S
C549 C210 1.884 . S
C573 C43 1.864 . S
C581 C237 1.895 . S
C605 C250 1.907 . S
C613 C57 1.878 . S
C637 C181 1.879 . S
C645 C124 1.879 . S
C669 C96 1.856 . S
C677 C182 1.894 . S
C701 C209 1.909 . S
C709 C98 1.878 . S
C733 C251 1.870 . S
C741 C126 1.896 . S
C765 C140 1.875 . S
C773 C211 1.893 . S
C797 C236 1.908 . S
C805 C166 1.880 . S
C829 C222 1.557 . S
C837 C1 1.560 . S
C861 C15 1.556 . S
C869 C225 1.561 . S
C893 C28 1.555 . S
C901 C238 1.561 . S
C925 C29 1.556 . S
C933 C155 1.561 . S
C957 C139 1.555 . S
C965 C0 1.561 . S
C989 C14 1.556 . S
C997 C153 1.560 . S
C1021 C85 1.556 . S
C1029 C54 1.561 . S
C1053 C111 1.557 . S
C1061 C68 1.560 . S
C1085 C70 1.556 . S
C1093 C113 1.560 . S
C1117 C71 1.556 . S
C1125 C196 1.560 . S
C1149 C55 1.558 . S
C1157 C168 1.560 . S
C1181 C69 1.557 . S
C1189 C195 1.560 . S
C1213 C112 1.556 . S
C1221 C239 1.561 . S
C1245 C84 1.556 . S
C1253 C223 1.560 . S
C1277 C224 1.557 . S
C1285 C110 1.560 . S
C1309 C169 1.556 . S
C1317 C138 1.561 . S
C1341 C194 1.555 . S
C1349 C152 1.561 . S
C1373 C197 1.556 . S
C1381 C154 1.561 . S
