# Generated by pormake.
# Topology wiu, (6)-cn, num edge types: 1
# Building blocks:
#     Node 0, Type 0, BuildingBlock: GEDQOX_clean_sbu_0, # of connection points: 6
#     Node 1, Type 0, BuildingBlock: GEDQOX_clean_sbu_0, # of connection points: 6
#     Node 2, Type 0, BuildingBlock: GEDQOX_clean_sbu_0, # of connection points: 6
#     Node 3, Type 0, BuildingBlock: GEDQOX_clean_sbu_0, # of connection points: 6
#     Node 4, Type 0, BuildingBlock: GEDQOX_clean_sbu_0, # of connection points: 6
#     Node 5, Type 0, BuildingBlock: GEDQOX_clean_sbu_0, # of connection points: 6
#     Node 6, Type 0, BuildingBlock: GEDQOX_clean_sbu_0, # of connection points: 6
#     Node 7, Type 0, BuildingBlock: GEDQOX_clean_sbu_0, # of connection points: 6
#     Node 8, Type 0, BuildingBlock: GEDQOX_clean_sbu_0, # of connection points: 6
#     Node 9, Type 0, BuildingBlock: GEDQOX_clean_sbu_0, # of connection points: 6
#     Node 10, Type 0, BuildingBlock: GEDQOX_clean_sbu_0, # of connection points: 6
#     Node 11, Type 0, BuildingBlock: GEDQOX_clean_sbu_0, # of connection points: 6
#     Node 12, Type 0, BuildingBlock: GEDQOX_clean_sbu_0, # of connection points: 6
#     Node 13, Type 0, BuildingBlock: GEDQOX_clean_sbu_0, # of connection points: 6
#     Node 14, Type 0, BuildingBlock: GEDQOX_clean_sbu_0, # of connection points: 6
#     Node 15, Type 0, BuildingBlock: GEDQOX_clean_sbu_0, # of connection points: 6
#     Edge 16, Type (0, 0), BuildingBlock: TEMPAE_clean_linker_10, # of connection points: 2
#     Edge 17, Type (0, 0), BuildingBlock: TEMPAE_clean_linker_10, # of connection points: 2
#     Edge 18, Type (0, 0), BuildingBlock: TEMPAE_clean_linker_10, # of connection points: 2
#     Edge 19, Type (0, 0), BuildingBlock: TEMPAE_clean_linker_10, # of connection points: 2
#     Edge 20, Type (0, 0), BuildingBlock: TEMPAE_clean_linker_10, # of connection points: 2
#     Edge 21, Type (0, 0), BuildingBlock: TEMPAE_clean_linker_10, # of connection points: 2
#     Edge 22, Type (0, 0), BuildingBlock: TEMPAE_clean_linker_10, # of connection points: 2
#     Edge 23, Type (0, 0), BuildingBlock: TEMPAE_clean_linker_10, # of connection points: 2
#     Edge 24, Type (0, 0), BuildingBlock: TEMPAE_clean_linker_10, # of connection points: 2
#     Edge 25, Type (0, 0), BuildingBlock: TEMPAE_clean_linker_10, # of connection points: 2
#     Edge 26, Type (0, 0), BuildingBlock: TEMPAE_clean_linker_10, # of connection points: 2
#     Edge 27, Type (0, 0), BuildingBlock: TEMPAE_clean_linker_10, # of connection points: 2
#     Edge 28, Type (0, 0), BuildingBlock: TEMPAE_clean_linker_10, # of connection points: 2
#     Edge 29, Type (0, 0), BuildingBlock: TEMPAE_clean_linker_10, # of connection points: 2
#     Edge 30, Type (0, 0), BuildingBlock: TEMPAE_clean_linker_10, # of connection points: 2
#     Edge 31, Type (0, 0), BuildingBlock: TEMPAE_clean_linker_10, # of connection points: 2
#     Edge 32, Type (0, 0), BuildingBlock: TEMPAE_clean_linker_10, # of connection points: 2
#     Edge 33, Type (0, 0), BuildingBlock: TEMPAE_clean_linker_10, # of connection points: 2
#     Edge 34, Type (0, 0), BuildingBlock: TEMPAE_clean_linker_10, # of connection points: 2
#     Edge 35, Type (0, 0), BuildingBlock: TEMPAE_clean_linker_10, # of connection points: 2
#     Edge 36, Type (0, 0), BuildingBlock: TEMPAE_clean_linker_10, # of connection points: 2
#     Edge 37, Type (0, 0), BuildingBlock: TEMPAE_clean_linker_10, # of connection points: 2
#     Edge 38, Type (0, 0), BuildingBlock: TEMPAE_clean_linker_10, # of connection points: 2
#     Edge 39, Type (0, 0), BuildingBlock: TEMPAE_clean_linker_10, # of connection points: 2
#     Edge 40, Type (0, 0), BuildingBlock: TEMPAE_clean_linker_10, # of connection points: 2
#     Edge 41, Type (0, 0), BuildingBlock: TEMPAE_clean_linker_10, # of connection points: 2
#     Edge 42, Type (0, 0), BuildingBlock: TEMPAE_clean_linker_10, # of connection points: 2
#     Edge 43, Type (0, 0), BuildingBlock: TEMPAE_clean_linker_10, # of connection points: 2
#     Edge 44, Type (0, 0), BuildingBlock: TEMPAE_clean_linker_10, # of connection points: 2
#     Edge 45, Type (0, 0), BuildingBlock: TEMPAE_clean_linker_10, # of connection points: 2
#     Edge 46, Type (0, 0), BuildingBlock: TEMPAE_clean_linker_10, # of connection points: 2
#     Edge 47, Type (0, 0), BuildingBlock: TEMPAE_clean_linker_10, # of connection points: 2
#     Edge 48, Type (0, 0), BuildingBlock: TEMPAE_clean_linker_10, # of connection points: 2
#     Edge 49, Type (0, 0), BuildingBlock: TEMPAE_clean_linker_10, # of connection points: 2
#     Edge 50, Type (0, 0), BuildingBlock: TEMPAE_clean_linker_10, # of connection points: 2
#     Edge 51, Type (0, 0), BuildingBlock: TEMPAE_clean_linker_10, # of connection points: 2
#     Edge 52, Type (0, 0), BuildingBlock: TEMPAE_clean_linker_10, # of connection points: 2
#     Edge 53, Type (0, 0), BuildingBlock: TEMPAE_clean_linker_10, # of connection points: 2
#     Edge 54, Type (0, 0), BuildingBlock: TEMPAE_clean_linker_10, # of connection points: 2
#     Edge 55, Type (0, 0), BuildingBlock: TEMPAE_clean_linker_10, # of connection points: 2
#     Edge 56, Type (0, 0), BuildingBlock: TEMPAE_clean_linker_10, # of connection points: 2
#     Edge 57, Type (0, 0), BuildingBlock: TEMPAE_clean_linker_10, # of connection points: 2
#     Edge 58, Type (0, 0), BuildingBlock: TEMPAE_clean_linker_10, # of connection points: 2
#     Edge 59, Type (0, 0), BuildingBlock: TEMPAE_clean_linker_10, # of connection points: 2
#     Edge 60, Type (0, 0), BuildingBlock: TEMPAE_clean_linker_10, # of connection points: 2
#     Edge 61, Type (0, 0), BuildingBlock: TEMPAE_clean_linker_10, # of connection points: 2
#     Edge 62, Type (0, 0), BuildingBlock: TEMPAE_clean_linker_10, # of connection points: 2
#     Edge 63, Type (0, 0), BuildingBlock: TEMPAE_clean_linker_10, # of connection points: 2
# Relax obj value: 0.231
# Max RMSD: 0.312
# Mean RMSD: 0.267
data_MOF--net-wiu--node1-GEDQOX_clean_sbu_0--edge1-TEMPAE_clean_linker_10
_symmetry_space_group_name_H-M    P1
_symmetry_Int_Tables_number       1
_symmetry_cell_setting            triclinic
loop_
_symmetry_equiv_pos_as_xyz
'x, y, z'
_cell_length_a     29.505349
_cell_length_b     28.582196
_cell_length_c     87.529133
_cell_angle_alpha  77.608955
_cell_angle_beta   78.773934
_cell_angle_gamma 77.444197
loop_
_atom_site_label
_atom_site_type_symbol
_atom_site_fract_x
_atom_site_fract_y
_atom_site_fract_z
_atom_type_partial_charge
Nd0 Nd 0.36618 0.00988 0.12589 0.0
Nd1 Nd 0.30714 0.08086 0.1051 0.0
C2 C 0.39483 0.95998 0.15288 0.0
C3 C 0.39277 0.97291 0.16889 0.0
C4 C 0.37577 0.94307 0.1829 0.0
C5 C 0.37487 0.9543 0.19793 0.0
C6 C 0.39115 -0.0042 0.19955 0.0
C7 C 0.40771 0.02587 0.18541 0.0
C8 C 0.40839 0.01473 0.17042 0.0
C9 C 0.4118 0.07911 0.10706 0.0
C10 C 0.30147 0.11176 0.13793 0.0
C11 C 0.26486 0.13901 0.08223 0.0
C12 C 0.26705 0.13989 0.06533 0.0
C13 C 0.30909 0.12202 0.05605 0.0
C14 C 0.30885 0.11552 0.0407 0.0
C15 C 0.2665 0.12668 1.03449 0.0
C16 C 0.22482 0.14615 0.04368 0.0
C17 C 0.22516 0.15274 0.05897 0.0
C18 C 0.25718 0.01763 0.12651 0.0
C19 C 0.39151 0.00049 0.08826 0.0
O20 O 0.35547 0.95682 0.14871 0.0
O21 O 0.42217 -0.01915 0.14101 0.0
O22 O 0.4317 0.03379 0.11037 0.0
O23 O 0.37041 0.08732 0.11433 0.0
O24 O 0.32391 0.06646 0.14166 0.0
O25 O 0.29546 0.13012 0.12321 0.0
O26 O 0.3015 0.14781 0.08672 0.0
O27 O 0.248 0.10245 0.0915 0.0
O28 O 0.24439 0.06435 0.12322 0.0
O29 O 0.29762 0.00384 0.11872 0.0
O30 O 0.36115 0.04195 0.08678 0.0
O31 O 0.39597 0.97447 0.10278 0.0
H32 H 0.36318 0.91078 0.18225 0.0
H33 H 0.36083 0.93045 0.2083 0.0
H34 H 0.42111 0.05783 0.18585 0.0
H35 H 0.42155 0.03895 0.15997 0.0
H36 H 0.34177 0.11168 0.06081 0.0
H37 H 0.34158 0.101 1.03383 0.0
H38 H 0.1915 0.1544 0.03933 0.0
H39 H 0.19232 0.16591 0.06607 0.0
Nd40 Nd 0.61854 0.58881 0.3677 0.0
Nd41 Nd 0.60408 0.52771 0.34895 0.0
C42 C 0.63263 0.62654 0.39102 0.0
C43 C 0.6237 0.61936 0.40845 0.0
C44 C 0.65416 0.58471 0.41754 0.0
C45 C 0.64854 0.58227 0.43387 0.0
C46 C 0.61245 0.61447 0.4414 0.0
C47 C 0.58058 0.64734 0.43242 0.0
C48 C 0.58632 0.64996 0.41609 0.0
C49 C 0.57269 0.64326 0.34352 0.0
C50 C 0.51976 0.54443 0.37704 0.0
C51 C 0.60447 0.47351 0.32806 0.0
C52 C 0.61723 0.47557 0.31096 0.0
C53 C 0.60552 0.51873 0.3002 0.0
C54 C 0.61835 0.5194 0.28396 0.0
C55 C 0.64363 0.47719 0.27836 0.0
C56 C 0.65639 0.43455 0.28919 0.0
C57 C 0.6431 0.43374 0.30538 0.0
C58 C 0.63863 0.47513 0.37607 0.0
C59 C 0.67897 0.60223 0.33277 0.0
O60 O 0.66395 0.59378 0.38443 0.0
O61 O 0.59609 0.64244 0.38375 0.0
O62 O 0.60514 0.65633 0.34885 0.0
O63 O 0.56343 0.60296 0.35135 0.0
O64 O 0.55139 0.56045 0.38248 0.0
O65 O 0.52943 0.53375 0.36271 0.0
O66 O 0.56724 0.50387 0.33306 0.0
O67 O 0.63962 0.46906 0.33562 0.0
O68 O 0.6029 0.46815 0.37098 0.0
O69 O 0.65497 0.51093 0.36712 0.0
O70 O 0.64934 0.57723 0.33021 0.0
O71 O 0.68008 0.60569 0.3475 0.0
H72 H 0.68339 0.56067 0.412 0.0
H73 H 0.67403 0.55696 0.44045 0.0
H74 H 0.55214 0.67221 0.43794 0.0
H75 H 0.56234 0.67706 0.40938 0.0
H76 H 0.58625 0.5517 0.30432 0.0
H77 H 0.60825 0.55265 0.27577 0.0
H78 H 0.67527 0.4014 0.28511 0.0
H79 H 0.65273 0.4003 0.31357 0.0
Nd80 Nd 0.15803 0.84885 0.60286 0.0
Nd81 Nd 0.2249 0.82241 0.57528 0.0
C82 C 0.10773 0.89708 0.62489 0.0
C83 C 0.11505 0.90716 0.63975 0.0
C84 C 0.15298 0.88004 0.64717 0.0
C85 C 0.15935 0.88961 0.66148 0.0
C86 C 0.12839 0.92688 0.66835 0.0
C87 C 0.09085 0.9544 0.66074 0.0
C88 C 0.08422 0.94453 0.64649 0.0
C89 C 0.13719 0.77432 0.59206 0.0
C90 C 0.23187 0.74929 0.60936 0.0
C91 C 0.27862 0.80668 0.54829 0.0
C92 C 0.28002 0.81635 0.53106 0.0
C93 C 0.24148 0.84387 0.52402 0.0
C94 C 0.24625 0.85893 0.50755 0.0
C95 C 0.28976 0.84703 0.4979 0.0
C96 C 0.32772 0.81813 0.50508 0.0
C97 C 0.32282 0.80295 0.52148 0.0
C98 C 0.26469 0.85696 0.59575 0.0
C99 C 0.12494 0.89975 0.56851 0.0
O100 O 0.13264 0.9175 0.61219 0.0
O101 O 0.10644 0.85176 0.62477 0.0
O102 O 0.13322 0.77633 0.60696 0.0
O103 O 0.15064 0.81159 0.58344 0.0
O104 O 0.21072 0.78872 0.61534 0.0
O105 O 0.2359 0.75001 0.59387 0.0
O106 O 0.25302 0.77549 0.55701 0.0
O107 O 0.27604 0.84501 0.55456 0.0
O108 O 0.28417 0.82047 0.58882 0.0
O109 O 0.225 0.87571 0.59144 0.0
O110 O 0.16802 0.88071 0.56223 0.0
O111 O 0.11244 0.89154 0.58401 0.0
H112 H 0.17719 0.85113 0.642 0.0
H113 H 0.18755 0.86704 0.66742 0.0
H114 H 0.06664 -0.01659 0.66583 0.0
H115 H 0.05502 0.96591 0.64077 0.0
H116 H 0.20824 0.85492 0.53128 0.0
H117 H 0.21609 0.88053 0.50242 0.0
H118 H 0.3619 0.80887 0.49811 0.0
H119 H 0.35312 0.78232 0.52675 0.0
Nd120 Nd 0.80448 0.50955 0.84687 0.0
Nd121 Nd 0.89411 0.54561 0.8477 0.0
C122 C 0.7431 0.46436 0.84055 0.0
C123 C 0.74558 0.42776 0.83066 0.0
C124 C 0.76528 0.43465 0.81453 0.0
C125 C 0.76951 0.39808 0.80569 0.0
C126 C 0.75487 0.35377 0.81288 0.0
C127 C 0.7352 0.34705 0.82898 0.0
C128 C 0.73039 0.38378 0.83774 0.0
C129 C 0.78555 0.59786 0.85651 0.0
C130 C 0.86955 0.54675 0.81318 0.0
C131 C 0.9634 0.58028 0.85463 0.0
C132 C 0.99075 0.57606 0.86775 0.0
C133 C 0.97074 0.59496 0.88165 0.0
C134 C -0.00189 0.59254 0.8934 0.0
C135 C 0.04627 0.57116 0.89161 0.0
C136 C 0.06598 0.55203 0.87773 0.0
C137 C 0.03871 0.55459 0.866 0.0
C138 C 0.90689 0.45421 0.84075 0.0
C139 C 0.83697 0.48968 0.88095 0.0
O140 O 0.76501 0.44883 0.85282 0.0
O141 O 0.74867 0.50837 0.8333 0.0
O142 O 0.75849 0.56574 0.86066 0.0
O143 O 0.81946 0.58602 0.84574 0.0
O144 O 0.8422 0.51601 0.82112 0.0
O145 O 0.88892 0.57129 0.82073 0.0
O146 O 0.91954 0.60249 0.85602 0.0
O147 O 0.97012 0.54252 0.84778 0.0
O148 O 0.93545 0.48413 0.83445 0.0
O149 O 0.87609 0.47108 0.85119 0.0
O150 O 0.8669 0.51953 0.87436 0.0
O151 O 0.81252 0.47498 0.87238 0.0
H152 H 0.77796 0.46792 0.80878 0.0
H153 H 0.78516 0.40401 0.79332 0.0
H154 H 0.7232 0.31345 0.83476 0.0
H155 H 0.71532 0.37757 0.85016 0.0
H156 H 0.93398 0.61193 0.88343 0.0
H157 H 0.98139 0.60722 0.90396 0.0
H158 H 0.10294 0.53597 0.87574 0.0
H159 H 0.05545 0.54022 0.85538 0.0
Nd160 Nd 0.68502 0.86721 0.96479 0.0
Nd161 Nd 0.6282 0.93786 0.9431 0.0
C162 C 0.72204 0.80969 0.98881 0.0
C163 C 0.72583 0.81757 1.00454 0.0
C164 C 0.68617 0.83676 1.01466 0.0
C165 C 0.69156 0.84997 1.02859 0.0
C166 C 0.73663 0.84499 1.03239 0.0
C167 C 0.77602 0.82482 1.02246 0.0
C168 C 0.77062 0.81096 1.0087 0.0
C169 C 0.73779 0.92708 0.9432 0.0
C170 C 0.60374 0.95253 0.98042 0.0
C171 C 0.59763 -0.01177 0.91638 0.0
C172 C 0.6034 -0.02081 0.89976 0.0
C173 C 0.59456 0.01782 0.88711 0.0
C174 C 0.59676 0.00904 0.87168 0.0
C175 C 0.60861 0.9612 0.86825 0.0
C176 C 0.61794 0.92274 0.88107 0.0
C177 C 0.61464 0.93156 0.89651 0.0
C178 C 0.58124 0.87083 0.96263 0.0
C179 C 0.69285 0.83535 0.93199 0.0
O180 O 0.68014 0.80909 0.98608 0.0
O181 O 0.74634 0.83453 0.97701 0.0
O182 O 0.7501 0.88063 0.94758 0.0
O183 O 0.69701 0.94293 0.95041 0.0
O184 O 0.63651 0.91321 0.98251 0.0
O185 O 0.59606 0.97415 0.96574 0.0
O186 O 0.63402 -0.00396 0.92134 0.0
O187 O 0.57416 0.95979 0.92721 0.0
O188 O 0.56252 0.91644 0.95923 0.0
O189 O 0.62229 0.86126 0.95525 0.0
O190 O 0.67434 0.88182 0.9278 0.0
O191 O 0.69406 0.81662 0.94705 0.0
H192 H 0.65119 0.84277 1.01166 0.0
H193 H 0.66074 0.86524 0.03616 0.0
H194 H 0.81105 0.8199 1.02533 0.0
H195 H 0.80162 0.79646 1.00102 0.0
H196 H 0.58488 0.05494 0.88922 0.0
H197 H 0.58801 0.04011 0.86256 0.0
H198 H 0.62795 0.88534 0.87934 0.0
H199 H 0.62029 0.90078 0.90601 0.0
Nd200 Nd 0.38141 0.4225 0.72187 0.0
Nd201 Nd 0.37397 0.35809 0.70283 0.0
C202 C 0.37719 0.47922 0.74243 0.0
C203 C 0.36491 0.47965 0.75943 0.0
C204 C 0.37998 0.4391 0.77069 0.0
C205 C 0.36968 0.44167 0.78677 0.0
C206 C 0.34387 0.48466 0.79181 0.0
C207 C 0.32729 0.5244 0.78049 0.0
C208 C 0.33792 0.52194 0.76443 0.0
C209 C 0.34997 0.47137 0.69386 0.0
C210 C 0.3115 0.34195 0.73748 0.0
C211 C 0.36156 0.31783 0.67986 0.0
C212 C 0.3587 0.33095 0.66298 0.0
C213 C 0.35424 0.37969 0.6552 0.0
C214 C 0.34603 0.392 0.6395 0.0
C215 C 0.3423 0.35563 0.63148 0.0
C216 C 0.34818 0.30676 0.63931 0.0
C217 C 0.35638 0.29458 0.65492 0.0
C218 C 0.41957 0.30769 0.72764 0.0
C219 C 0.46847 0.40852 0.69409 0.0
O220 O 0.41554 0.44981 0.73768 0.0
O221 O 0.34233 0.48064 0.73504 0.0
O222 O 0.38284 0.48139 0.69969 0.0
O223 O 0.33415 0.43512 0.70271 0.0
O224 O 0.33544 0.37234 0.74035 0.0
O225 O 0.31529 0.33491 0.72286 0.0
O226 O 0.32718 0.34029 0.68902 0.0
O227 O 0.40268 0.3139 0.68396 0.0
O228 O 0.39059 0.29135 0.72167 0.0
O229 O 0.42639 0.34883 0.71987 0.0
O230 O 0.43989 0.38866 0.68856 0.0
O231 O 0.45633 0.42095 0.7082 0.0
H232 H 0.40046 0.40587 0.76705 0.0
H233 H 0.38333 0.41062 0.7952 0.0
H234 H 0.30665 0.55769 0.78403 0.0
H235 H 0.32559 0.55336 0.75588 0.0
H236 H 0.35582 0.4082 0.66138 0.0
H237 H 0.3419 0.42988 0.63374 0.0
H238 H 0.34456 0.27801 0.63359 0.0
H239 H 0.35933 0.2569 0.66087 0.0
Nd240 Nd 0.76569 0.12519 0.49421 0.0
Nd241 Nd 0.84461 0.09548 0.46872 0.0
C242 C 0.70588 0.15896 0.51795 0.0
C243 C 0.69375 0.13944 0.53504 0.0
C244 C 0.68407 0.17075 0.54608 0.0
C245 C 0.67596 0.15237 0.56237 0.0
C246 C 0.67729 0.10212 0.56803 0.0
C247 C 0.6864 0.07095 0.55687 0.0
C248 C 0.69475 0.08935 0.54058 0.0
C249 C 0.74526 0.06321 0.47662 0.0
C250 C 0.85344 0.03786 0.50413 0.0
C251 C 0.89721 0.0637 0.44381 0.0
C252 C 0.8916 0.0633 0.42767 0.0
C253 C 0.85057 0.08864 0.4217 0.0
C254 C 0.8431 0.08322 0.40697 0.0
C255 C 0.87643 0.05207 0.39814 0.0
C256 C 0.91827 0.0283 0.40397 0.0
C257 C 0.92569 0.03378 0.41867 0.0
C258 C 0.86978 0.1455 0.48825 0.0
C259 C 0.77138 0.19868 0.4594 0.0
O260 O 0.74817 0.16874 0.51347 0.0
O261 O 0.69364 0.13791 0.50792 0.0
O262 O 0.73414 0.05913 0.49192 0.0
O263 O 0.76727 0.09775 0.47163 0.0
O264 O 0.82091 0.0739 0.50875 0.0
O265 O 0.85919 0.03104 0.48936 0.0
O266 O 0.87202 0.03687 0.45481 0.0
O267 O 0.89734 0.10623 0.44716 0.0
O268 O 0.89769 0.10999 0.48228 0.0
O269 O 0.83137 0.15514 0.48299 0.0
O270 O 0.8068 0.16552 0.4543 0.0
O271 O 0.75041 0.19283 0.47442 0.0
H272 H 0.6837 0.20942 0.5421 0.0
H273 H 0.66987 0.1775 0.57053 0.0
H274 H 0.68714 0.03221 0.5607 0.0
H275 H 0.7026 0.06428 0.53233 0.0
H276 H 0.82378 0.11138 0.42863 0.0
H277 H 0.81056 0.10195 0.40278 0.0
H278 H 0.94509 0.00501 0.39725 0.0
H279 H 0.9575 0.01402 0.42319 0.0
Nd280 Nd 0.10493 0.40654 0.2216 0.0
Nd281 Nd 0.19553 0.43944 0.22329 0.0
C282 C 0.03441 0.36711 0.21817 0.0
C283 C 0.00349 0.37264 0.2059 0.0
C284 C 0.02146 0.35865 0.19108 0.0
C285 C 0.99184 0.36278 0.17987 0.0
C286 C 0.94317 0.38112 0.18305 0.0
C287 C 0.92536 0.39534 0.19787 0.0
C288 C 0.955 0.39105 0.2091 0.0
C289 C 0.09665 0.50407 0.22126 0.0
C290 C 0.16062 0.46256 0.18952 0.0
C291 C 0.2608 0.48138 0.22866 0.0
C292 C 0.2642 0.51076 0.24008 0.0
C293 C 0.229 0.51599 0.25324 0.0
C294 C 0.22927 0.54899 0.26291 0.0
C295 C 0.26459 0.57744 0.25949 0.0
C296 C 0.30072 0.57066 0.24662 0.0
C297 C 0.30041 0.53764 0.23698 0.0
C298 C 0.21171 0.356 0.21074 0.0
C299 C 0.13315 0.40033 0.25725 0.0
O300 O 0.07882 0.34767 0.21483 0.0
O301 O 0.02849 0.403 0.22588 0.0
O302 O 0.07573 0.48713 0.21246 0.0
O303 O 0.11976 0.47014 0.22986 0.0
O304 O 0.13664 0.42686 0.19528 0.0
O305 O 0.17949 0.4807 0.1989 0.0
O306 O 0.23118 0.50251 0.21879 0.0
O307 O 0.25852 0.43537 0.23416 0.0
O308 O 0.23769 0.38905 0.2067 0.0
O309 O 0.17972 0.36503 0.2223 0.0
O310 O 0.17109 0.41713 0.24964 0.0
O311 O 0.10221 0.3914 0.24941 0.0
H312 H 0.0585 0.34403 0.18814 0.0
H313 H 0.00715 0.35052 0.16881 0.0
H314 H 0.88841 0.41023 0.20081 0.0
H315 H 0.93986 0.40207 0.22038 0.0
H316 H 0.20058 0.49569 0.25577 0.0
H317 H 0.2013 0.55303 0.27285 0.0
H318 H 0.32812 0.59237 0.24361 0.0
H319 H 0.32758 0.53432 0.22677 0.0
Nd320 Nd 0.85762 0.52021 0.62762 0.0
Nd321 Nd 0.7981 0.58543 0.60189 0.0
C322 C 0.89329 0.46536 0.65261 0.0
C323 C 0.89133 0.47431 0.66908 0.0
C324 C 0.84904 0.4945 0.67789 0.0
C325 C 0.84809 0.50494 0.693 0.0
C326 C 0.88941 0.49559 0.6999 0.0
C327 C 0.93163 0.47506 0.69105 0.0
C328 C 0.93254 0.4647 0.67593 0.0
C329 C 0.88078 0.60946 0.61422 0.0
C330 C 0.77816 0.61135 0.63736 0.0
C331 C 0.76556 0.65541 0.57957 0.0
C332 C 0.73473 0.65945 0.56797 0.0
C333 C 0.74244 0.69013 0.55332 0.0
C334 C 0.7203 0.68733 0.54094 0.0
C335 C 0.69026 0.65365 0.54308 0.0
C336 C 0.68034 0.62507 0.55808 0.0
C337 C 0.70265 0.62778 0.57045 0.0
C338 C 0.74924 0.51263 0.61821 0.0
C339 C 0.89109 0.50781 0.58884 0.0
O340 O 0.85425 0.46023 0.6486 0.0
O341 O 0.91771 0.49144 0.64113 0.0
O342 O 0.8816 0.59079 0.62905 0.0
O343 O 0.86944 0.58052 0.60742 0.0
O344 O 0.79771 0.5658 0.64225 0.0
O345 O 0.78099 0.62991 0.62208 0.0
O346 O 0.80551 0.62541 0.57727 0.0
O347 O 0.74623 0.65132 0.59447 0.0
O348 O 0.7381 0.54287 0.60563 0.0
O349 O 0.78873 0.51772 0.62058 0.0
O350 O 0.85448 0.54219 0.58559 0.0
O351 O 0.89835 0.48996 0.60395 0.0
H352 H 0.81657 0.50273 0.67303 0.0
H353 H 0.81488 0.52121 0.69916 0.0
H354 H 0.9642 0.46643 0.69586 0.0
H355 H 0.96574 0.44928 0.66951 0.0
H356 H 0.76736 0.71449 0.55121 0.0
H357 H 0.72802 0.71017 0.52951 0.0
H358 H 0.65754 0.59866 0.55998 0.0
H359 H 0.69665 0.60347 0.58167 0.0
Nd360 Nd 0.12646 0.08134 0.86617 0.0
Nd361 Nd 0.10598 0.02106 0.84809 0.0
C362 C 0.15121 0.12049 0.88732 0.0
C363 C 0.16373 0.10965 0.90318 0.0
C364 C 0.16868 0.06216 0.91204 0.0
C365 C 0.1864 0.05205 0.92635 0.0
C366 C 0.19988 0.08925 0.93169 0.0
C367 C 0.19365 0.13682 0.92291 0.0
C368 C 0.17568 0.14691 0.90877 0.0
C369 C 0.07473 0.13655 0.84331 0.0
C370 C 0.02644 0.04075 0.87734 0.0
C371 C 0.09857 0.96644 0.82821 0.0
C372 C 0.10747 0.96677 0.8112 0.0
C373 C 0.13224 0.0005 0.80076 0.0
C374 C 0.14318 -0.00181 0.78467 0.0
C375 C 0.12945 0.96209 0.77886 0.0
C376 C 0.10394 0.92894 0.78939 0.0
C377 C 0.09315 0.93124 0.80545 0.0
C378 C 0.1431 0.96806 0.87475 0.0
C379 C 0.18012 0.09462 0.83028 0.0
O380 O 0.18105 0.0985 0.87687 0.0
O381 O 0.1074 0.12272 0.88602 0.0
O382 O 0.10819 0.15009 0.84789 0.0
O383 O 0.06745 0.09612 0.85139 0.0
O384 O 0.06108 0.05276 0.88249 0.0
O385 O 0.03269 0.0324 0.86277 0.0
O386 O 0.06377 -0.00103 0.83337 0.0
O387 O 0.13594 0.96133 0.83475 0.0
O388 O 0.10599 0.96196 0.87027 0.0
O389 O 0.15988 0.00291 0.86538 0.0
O390 O 0.14887 0.07045 0.82842 0.0
O391 O 0.1847 0.09697 0.84476 0.0
H392 H 0.15998 0.03294 0.90771 0.0
H393 H 0.19078 0.01516 0.933 0.0
H394 H 0.20293 0.16625 0.92696 0.0
H395 H 0.17227 0.18363 0.90197 0.0
H396 H 0.14371 0.02807 0.80507 0.0
H397 H 0.163 0.02407 0.77683 0.0
H398 H 0.09202 0.9014 0.78518 0.0
H399 H 0.074 0.90498 0.81342 0.0
Nd400 Nd 0.65321 0.35663 0.10362 0.0
Nd401 Nd 0.72308 0.32571 0.07688 0.0
C402 C 0.60979 0.38647 0.13003 0.0
C403 C 0.62388 0.39256 0.1445 0.0
C404 C 0.66386 0.4125 0.14377 0.0
C405 C 0.67633 0.41957 0.15752 0.0
C406 C 0.6491 0.40663 0.17226 0.0
C407 C 0.60941 0.38593 0.17298 0.0
C408 C 0.59694 0.37892 0.15918 0.0
C409 C 0.61921 0.3058 0.08649 0.0
C410 C 0.7238 0.2502 0.11021 0.0
C411 C 0.77545 0.30975 0.04959 0.0
C412 C 0.7752 0.32762 1.03244 0.0
C413 C 0.79403 0.29568 1.02173 0.0
C414 C 0.79871 0.31311 1.00538 0.0
C415 C 0.78505 0.36306 0.99936 0.0
C416 C 0.76479 0.39468 1.01019 0.0
C417 C 0.75971 0.37713 1.02652 0.0
C418 C 0.76123 0.35972 0.09785 0.0
C419 C 0.62939 0.41264 0.06939 0.0
O420 O 0.62355 0.41589 0.1171 0.0
O421 O 0.61408 0.34161 0.12798 0.0
O422 O 0.59375 0.34069 0.09334 0.0
O423 O 0.65982 0.29556 0.09012 0.0
O424 O 0.6992 0.28856 0.11619 0.0
O425 O 0.73359 0.25234 0.09462 0.0
O426 O 0.74464 0.2828 0.05727 0.0
O427 O 0.78118 0.34109 0.05763 0.0
O428 O 0.78094 0.323 0.09098 0.0
O429 O 0.72238 0.38005 0.09295 0.0
O430 O 0.6653 0.38093 0.06381 0.0
O431 O 0.62166 0.41587 0.08449 0.0
H432 H 0.68498 0.42339 0.13254 0.0
H433 H 0.70707 0.43544 0.1566 0.0
H434 H 0.58722 0.37642 0.18415 0.0
H435 H 0.56592 0.36354 0.15993 0.0
H436 H 0.80608 0.25734 1.02602 0.0
H437 H 0.81345 0.2874 0.99746 0.0
H438 H 0.75421 0.43337 1.0061 0.0
H439 H 0.74492 0.40261 1.03453 0.0
Nd440 Nd 0.30202 0.01152 0.34722 0.0
Nd441 Nd 0.39322 0.04386 0.34764 0.0
C442 C 0.2367 0.9711 0.34104 0.0
C443 C 0.23784 0.93472 0.33135 0.0
C444 C 0.27619 0.92476 0.31946 0.0
C445 C 0.27946 0.88659 0.31142 0.0
C446 C 0.24466 0.85747 0.31527 0.0
C447 C 0.20599 0.86809 0.32702 0.0
C448 C 0.20263 0.90644 0.33499 0.0
C449 C 0.28629 0.09638 0.35876 0.0
C450 C 0.36429 0.05164 0.31301 0.0
C451 C 0.4631 0.07382 0.35612 0.0
C452 C 0.48729 0.06848 0.37024 0.0
C453 C 0.47509 0.10316 0.38032 0.0
C454 C 0.50041 0.09968 0.39277 0.0
C455 C 0.53894 0.06147 0.39556 0.0
C456 C 0.5507 0.02664 0.38553 0.0
C457 C 0.52549 0.03015 0.37311 0.0
C458 C 0.40321 0.95615 0.3384 0.0
C459 C 0.33885 -0.01768 0.38037 0.0
O460 O 0.25811 0.95454 0.35337 0.0
O461 O 0.24561 0.01367 0.33346 0.0
O462 O 0.25955 0.06404 0.36283 0.0
O463 O 0.3185 0.08666 0.34727 0.0
O464 O 0.33414 0.02395 0.321 0.0
O465 O 0.38896 0.07092 0.32054 0.0
O466 O 0.4207 0.09983 0.35596 0.0
O467 O 0.46858 0.03544 0.34965 0.0
O468 O 0.43119 -0.01319 0.33218 0.0
O469 O 0.37429 0.97045 0.34975 0.0
O470 O 0.36828 0.01285 0.37412 0.0
O471 O 0.31352 0.96983 0.37164 0.0
H472 H 0.30416 0.94569 0.31666 0.0
H473 H 0.30989 0.87893 0.30254 0.0
H474 H 0.17845 0.84653 0.3301 0.0
H475 H 0.17306 0.91334 0.34424 0.0
H476 H 0.44625 0.13346 0.37848 0.0
H477 H 0.48961 0.12705 0.40025 0.0
H478 H 0.58043 -0.00287 0.38695 0.0
H479 H 0.53669 0.00305 0.36553 0.0
Nd480 Nd 0.18023 0.3665 0.46611 0.0
Nd481 Nd 0.12588 0.43919 0.44467 0.0
C482 C 0.21414 0.30752 0.49045 0.0
C483 C 0.21989 0.3168 0.50581 0.0
C484 C 0.18126 0.33693 0.51613 0.0
C485 C 0.18836 0.35181 0.52954 0.0
C486 C 0.2341 0.34753 0.53264 0.0
C487 C 0.27248 0.32633 0.52257 0.0
C488 C 0.26541 0.31079 0.50933 0.0
C489 C 0.23532 0.42707 0.44583 0.0
C490 C 0.10273 0.45401 0.48181 0.0
C491 C 0.09907 0.49005 0.41758 0.0
C492 C 0.10188 0.47738 0.40153 0.0
C493 C 0.12092 0.50637 0.38767 0.0
C494 C 0.12236 0.49538 0.37259 0.0
C495 C 0.10454 0.45507 0.37079 0.0
C496 C 0.08599 0.42581 0.38477 0.0
C497 C 0.08484 0.43663 0.39982 0.0
C498 C 0.07606 0.37343 0.46352 0.0
C499 C 0.18745 0.33627 0.43311 0.0
O500 O 0.17119 0.31095 0.48792 0.0
O501 O 0.24059 0.32808 0.47823 0.0
O502 O 0.24663 0.38031 0.44967 0.0
O503 O 0.19403 0.4427 0.45271 0.0
O504 O 0.13362 0.4132 0.4839 0.0
O505 O 0.09575 0.47642 0.46715 0.0
O506 O 0.13815 0.49268 0.42205 0.0
O507 O 0.07105 0.46919 0.42921 0.0
O508 O 0.05885 0.41951 0.46033 0.0
O509 O 0.11719 0.36279 0.45628 0.0
O510 O 0.16895 0.38275 0.42911 0.0
O511 O 0.18924 0.31703 0.44809 0.0
H512 H 0.14572 0.34246 0.51366 0.0
H513 H 0.1583 0.36781 0.53725 0.0
H514 H 0.30802 0.32189 0.52494 0.0
H515 H 0.29566 0.29552 0.50153 0.0
H516 H 0.13465 0.5378 0.38849 0.0
H517 H 0.13794 0.51849 0.36233 0.0
H518 H 0.07132 0.39482 0.38416 0.0
H519 H 0.0701 0.41308 0.41015 0.0
Nd520 Nd 0.88213 0.92687 0.22204 0.0
Nd521 Nd 0.87187 0.86143 0.20389 0.0
C522 C 0.88333 -0.0131 0.241 0.0
C523 C 0.87694 -0.00845 0.25757 0.0
C524 C 0.85939 0.9564 0.26974 0.0
C525 C 0.85446 0.96178 0.28552 0.0
C526 C 0.86733 0.00218 0.28917 0.0
C527 C 0.8842 0.03751 0.27686 0.0
C528 C 0.88897 0.03217 0.26117 0.0
C529 C 0.84814 0.97476 0.19434 0.0
C530 C 0.8133 0.84647 0.2393 0.0
C531 C 0.85603 0.81926 0.18189 0.0
C532 C 0.85155 0.83076 0.16513 0.0
C533 C 0.84654 0.879 0.15688 0.0
C534 C 0.83757 0.88963 0.14128 0.0
C535 C 0.83363 0.85207 0.13381 0.0
C536 C 0.83978 0.80375 0.14211 0.0
C537 C 0.84873 0.79324 0.15763 0.0
C538 C 0.92197 0.81265 0.22789 0.0
C539 C 0.96726 0.91016 0.19365 0.0
O540 O 0.92053 0.95676 0.23593 0.0
O541 O 0.84576 -0.01487 0.23549 0.0
O542 O 0.88205 -0.01534 0.19963 0.0
O543 O 0.83262 0.93888 0.20354 0.0
O544 O 0.83788 0.87731 0.24154 0.0
O545 O 0.81539 0.83868 0.22485 0.0
O546 O 0.82279 0.84289 0.1911 0.0
O547 O 0.89789 0.81541 0.18541 0.0
O548 O 0.89116 0.79578 0.22299 0.0
O549 O 0.92704 0.85367 0.21969 0.0
O550 O 0.93706 0.89142 0.18846 0.0
O551 O 0.95667 0.92213 0.20784 0.0
H552 H 0.84994 0.92481 0.26706 0.0
H553 H 0.84163 0.93395 0.29483 0.0
H554 H 0.89373 0.0693 0.27937 0.0
H555 H 0.90232 0.05968 0.25183 0.0
H556 H 0.84852 0.90839 0.16261 0.0
H557 H 0.83328 0.92712 0.13514 0.0
H558 H 0.83607 0.77413 0.1368 0.0
H559 H 0.85211 0.75593 0.16394 0.0
Nd560 Nd 0.26716 0.62954 0.99511 0.0
Nd561 Nd 0.33817 0.58847 0.96993 0.0
C562 C 0.21502 0.65234 1.0217 0.0
C563 C 0.21592 0.63614 0.03885 0.0
C564 C 0.23863 0.58904 0.04477 0.0
C565 C 0.23462 0.57168 0.0611 0.0
C566 C 0.208 0.60111 0.0719 0.0
C567 C 0.18677 0.64897 0.06588 0.0
C568 C 0.19059 0.66621 0.04952 0.0
C569 C 0.23004 0.58614 0.97634 0.0
C570 C 0.35743 0.54181 1.00537 0.0
C571 C 0.38152 0.54836 0.9453 0.0
C572 C 0.37173 0.54011 0.93037 0.0
C573 C 0.33447 0.51706 0.93006 0.0
C574 C 0.32703 0.50795 0.9158 0.0
C575 C 0.35683 0.52147 0.90169 0.0
C576 C 0.39382 0.54481 0.90202 0.0
C577 C 0.40119 0.55402 0.91626 0.0
C578 C 0.37298 0.64367 0.98522 0.0
C579 C 0.26984 0.69649 0.96043 0.0
O580 O 0.2471 0.67697 1.01347 0.0
O581 O 0.20773 0.61993 1.0144 0.0
O582 O 0.2096 0.62582 0.9815 0.0
O583 O 0.26864 0.56876 0.98162 0.0
O584 O 0.32371 0.57793 1.00935 0.0
O585 O 0.36507 0.53249 0.99088 0.0
O586 O 0.36128 0.52428 0.95835 0.0
O587 O 0.38235 0.59326 0.94622 0.0
O588 O 0.39781 0.60553 0.97988 0.0
O589 O 0.33281 0.65396 0.98118 0.0
O590 O 0.29512 0.65626 0.95564 0.0
O591 O 0.25837 0.69842 0.97575 0.0
H592 H 0.2582 0.56503 0.03676 0.0
H593 H 0.25104 0.53452 0.0652 0.0
H594 H 0.16676 0.67304 0.07381 0.0
H595 H 0.1728 0.70265 0.04521 0.0
H596 H 0.31132 0.50568 0.9408 0.0
H597 H 0.29849 0.48963 0.91584 0.0
H598 H 0.41695 0.55608 0.89125 0.0
H599 H 0.43017 0.57169 0.91628 0.0
Nd600 Nd 0.59862 0.9187 0.72099 0.0
Nd601 Nd 0.69375 0.94623 0.71867 0.0
C602 C 0.52175 0.89171 0.71667 0.0
C603 C 0.49449 0.89123 0.70411 0.0
C604 C 0.51601 0.87987 0.68922 0.0
C605 C 0.48858 0.88088 0.67761 0.0
C606 C 0.43902 0.89336 0.68063 0.0
C607 C 0.41796 0.90507 0.69554 0.0
C608 C 0.44529 0.90395 0.70708 0.0
C609 C 0.59623 0.00533 0.72992 0.0
C610 C 0.64931 0.97437 0.68658 0.0
C611 C 0.76317 -0.0159 0.72315 0.0
C612 C 0.76415 0.01926 0.73309 0.0
C613 C 0.72291 0.0515 0.73765 0.0
C614 C 0.72358 0.08555 0.74686 0.0
C615 C 0.76549 0.08779 0.75185 0.0
C616 C 0.80662 0.05479 0.74745 0.0
C617 C 0.80593 0.02085 0.73813 0.0
C618 C 0.70123 0.86139 0.70783 0.0
C619 C 0.63565 0.90879 0.75424 0.0
O620 O 0.56207 0.86183 0.71758 0.0
O621 O 0.52247 0.93451 0.7195 0.0
O622 O 0.56817 0.97557 0.73707 0.0
O623 O 0.62185 -0.00931 0.718 0.0
O624 O 0.61954 0.94513 0.69398 0.0
O625 O 0.6781 -0.01357 0.69424 0.0
O626 O 0.73952 0.00149 0.71135 0.0
O627 O 0.75486 0.94134 0.7307 0.0
O628 O 0.73013 0.89157 0.70287 0.0
O629 O 0.67211 0.87284 0.71983 0.0
O630 O 0.66735 0.93379 0.7456 0.0
O631 O 0.60727 0.89198 0.7475 0.0
H632 H 0.55393 0.87025 0.68654 0.0
H633 H 0.50621 0.87118 0.66637 0.0
H634 H 0.38019 0.91574 0.69829 0.0
H635 H 0.42784 0.91335 0.7184 0.0
H636 H 0.69024 0.0507 0.73392 0.0
H637 H 0.69138 0.11072 0.74979 0.0
H638 H 0.83932 0.05496 0.75129 0.0
H639 H 0.83799 -0.00405 0.73484 0.0
C640 C 0.42938 0.16178 0.10291 0.0
C641 C 0.43734 0.11697 0.09801 0.0
C642 C 0.45991 0.19457 0.0964 0.0
C643 C 0.49757 0.18273 0.08425 0.0
C644 C 0.50162 0.14035 0.07787 0.0
C645 C 0.47238 0.10685 0.08526 0.0
C646 C 0.45427 0.23963 0.10351 0.0
C647 C 0.53838 0.12915 0.06389 0.0
C648 C 0.56305 0.28688 0.0722 0.0
C649 C 0.59733 0.2707 0.0821 0.0
C650 C 0.53352 0.25595 0.07105 0.0
C651 C 0.53713 0.20923 0.08075 0.0
C652 C 0.57446 0.19162 0.08975 0.0
C653 C 0.60494 0.22248 0.08999 0.0
C654 C 0.49645 0.27516 0.06044 0.0
C655 C 0.57896 0.14251 0.10062 0.0
H656 H 0.40173 0.16942 0.11269 0.0
H657 H 0.47773 0.07227 0.08136 0.0
H658 H 0.48615 0.2387 0.10862 0.0
H659 H 0.45023 0.27263 0.0942 0.0
H660 H 0.42326 0.24306 0.11298 0.0
H661 H 0.53019 0.10117 0.05831 0.0
H662 H 0.54117 0.16271 0.05488 0.0
H663 H 0.57319 0.11522 0.06777 0.0
H664 H 0.55793 0.32428 0.06593 0.0
H665 H 0.63166 0.21045 0.09764 0.0
H666 H 0.46788 0.30132 0.06603 0.0
H667 H 0.48116 0.24575 0.05805 0.0
H668 H 0.51172 0.29546 0.04898 0.0
H669 H 0.54751 0.14177 0.10994 0.0
H670 H 0.61067 0.13417 0.1065 0.0
H671 H 0.58084 0.11314 0.09395 0.0
C672 C 0.55691 0.72174 0.32561 0.0
C673 C 0.54071 0.67976 0.33419 0.0
C674 C 0.52528 0.7647 0.32157 0.0
C675 C 0.47647 0.76498 0.32617 0.0
C676 C 0.4603 0.72033 0.33187 0.0
C677 C 0.49286 0.6778 0.33611 0.0
C678 C 0.54445 0.81106 0.31484 0.0
C679 C 0.40856 0.71863 0.33538 0.0
C680 C 0.42611 0.86864 0.3481 0.0
C681 C 0.41323 0.90603 0.33578 0.0
C682 C 0.44356 0.82121 0.34535 0.0
C683 C 0.44625 0.81094 0.32998 0.0
C684 C 0.42821 0.84791 0.31794 0.0
C685 C 0.41288 0.89568 0.32089 0.0
C686 C 0.46275 0.78329 0.3586 0.0
C687 C 0.4259 0.83723 0.30198 0.0
H688 H 0.59421 0.72253 0.3236 0.0
H689 H 0.4804 0.64471 0.34228 0.0
H690 H 0.52533 0.83358 0.30528 0.0
H691 H 0.53965 0.83281 0.32433 0.0
H692 H 0.58251 0.80353 0.31 0.0
H693 H 0.40231 0.68227 0.33466 0.0
H694 H 0.39432 0.72545 0.34756 0.0
H695 H 0.38893 0.74697 0.32703 0.0
H696 H 0.42562 0.87723 0.35963 0.0
H697 H 0.40132 0.925 0.31156 0.0
H698 H 0.50088 0.7702 0.3551 0.0
H699 H 0.44498 0.75147 0.36107 0.0
H700 H 0.45788 0.79765 0.36976 0.0
H701 H 0.41611 0.87101 0.29337 0.0
H702 H 0.39911 0.81405 0.30344 0.0
H703 H 0.45989 0.81657 0.29697 0.0
C704 C 0.10402 0.70098 0.5945 0.0
C705 C 0.10646 0.74887 0.58711 0.0
C706 C 0.06522 0.68107 0.59405 0.0
C707 C 0.02756 0.71097 0.58672 0.0
C708 C 0.03258 0.7573 0.57765 0.0
C709 C 0.07278 0.77554 0.57775 0.0
C710 C 0.06224 0.63009 0.60296 0.0
C711 C 0.99352 0.78985 0.56947 0.0
C712 C 0.92961 0.64359 0.58988 0.0
C713 C 0.90853 0.6461 0.60556 0.0
C714 C 0.96641 0.66829 0.58273 0.0
C715 C 0.98084 0.69729 0.59139 0.0
C716 C 0.95497 0.70539 0.60634 0.0
C717 C 0.91949 0.67872 0.61343 0.0
C718 C 0.99256 0.65852 0.56678 0.0
C719 C 0.96786 0.73832 0.61554 0.0
H720 H 0.13073 0.68043 0.60153 0.0
H721 H 0.07527 0.81254 0.5719 0.0
H722 H 0.03867 0.63198 0.61445 0.0
H723 H 0.0473 0.61014 0.59615 0.0
H724 H 0.09723 0.60904 0.60541 0.0
H725 H 0.0069 0.81854 0.56002 0.0
H726 H 0.97527 0.7686 0.5642 0.0
H727 H 0.96721 0.80797 0.5783 0.0
H728 H 0.92042 0.61887 0.58369 0.0
H729 H 0.90225 0.68132 0.62543 0.0
H730 H 0.01665 0.62273 0.56842 0.0
H731 H 0.01363 0.68672 0.56059 0.0
H732 H 0.96754 0.65631 0.5591 0.0
H733 H 9e-05 0.71977 0.62068 0.0
H734 H 0.93942 0.74753 0.62538 0.0
H735 H 0.9754 0.77262 0.60765 0.0
C736 C 0.05225 0.21315 0.82512 0.0
C737 C 0.03866 0.17294 0.83582 0.0
C738 C 0.01977 0.2563 0.82216 0.0
C739 C 0.97341 0.25908 0.83056 0.0
C740 C 0.95783 0.21606 0.83913 0.0
C741 C 0.99097 0.17295 0.84169 0.0
C742 C 0.0371 0.30077 0.81213 0.0
C743 C 0.90804 0.21715 0.84758 0.0
C744 C 0.94494 0.37016 0.8496 0.0
C745 C 0.91751 0.40303 0.83934 0.0
C746 C 0.96057 0.32197 0.84744 0.0
C747 C 0.94852 0.30677 0.83456 0.0
C748 C 0.91792 0.3393 0.8248 0.0
C749 C 0.90268 0.38748 0.82733 0.0
C750 C 0.99232 0.28828 0.8584 0.0
C751 C 0.90333 0.32458 0.81119 0.0
H752 H 0.08909 0.21246 0.82027 0.0
H753 H 0.98033 0.14129 0.84972 0.0
H754 H 0.01015 0.32336 0.80505 0.0
H755 H 0.04422 0.32331 0.81995 0.0
H756 H 0.0701 0.29069 0.80398 0.0
H757 H 0.8984 0.18048 0.85002 0.0
H758 H 0.90465 0.22911 0.85907 0.0
H759 H 0.88279 0.24331 0.84054 0.0
H760 H 0.95559 0.38273 0.85898 0.0
H761 H 0.88026 0.41317 0.8197 0.0
H762 H 0.02806 0.27879 0.85172 0.0
H763 H 0.97884 0.25393 0.86334 0.0
H764 H 0.99535 0.305 0.86842 0.0
H765 H 0.92915 0.33243 0.80036 0.0
H766 H 0.86838 0.34576 0.80876 0.0
H767 H 0.90206 0.28515 0.81345 0.0
C768 C 0.52362 0.84214 0.98531 0.0
C769 C 0.5542 0.83403 0.97139 0.0
C770 C 0.49298 0.81001 0.99273 0.0
C771 C 0.49148 0.77092 0.9854 0.0
C772 C 0.52396 0.76172 0.97163 0.0
C773 C 0.55588 0.7929 0.96503 0.0
C774 C 0.46113 0.81976 1.00787 0.0
C775 C 0.52279 0.72126 0.96313 0.0
C776 C 0.43361 0.66234 0.9977 0.0
C777 C 0.39497 0.67881 0.98964 0.0
C778 C 0.46197 0.6946 0.99869 0.0
C779 C 0.4528 0.74315 0.99053 0.0
C780 C 0.41086 0.76095 0.98389 0.0
C781 C 0.38174 0.72844 0.98381 0.0
C782 C 0.50412 0.67578 1.00711 0.0
C783 C 0.39965 0.81273 0.97518 0.0
H784 H 0.52322 0.87392 0.99028 0.0
H785 H 0.57982 0.78716 0.95422 0.0
H786 H 0.43085 0.84897 1.00502 0.0
H787 H 0.44762 0.7869 1.01478 0.0
H788 H 0.48004 0.83307 1.01541 0.0
H789 H 0.54944 0.72049 0.95226 0.0
H790 H 0.52937 0.68543 0.97104 0.0
H791 H 0.48754 0.72581 0.95973 0.0
H792 H 0.44315 0.62391 1.00246 0.0
H793 H 0.35136 0.741 0.97776 0.0
H794 H 0.5089 0.7033 1.01361 0.0
H795 H 0.53631 0.66874 0.99835 0.0
H796 H 0.50064 0.64125 1.01556 0.0
H797 H 0.40049 0.83868 0.98283 0.0
H798 H 0.36456 0.82123 0.97135 0.0
H799 H 0.42661 0.81874 0.96453 0.0
C800 C 0.58811 0.06311 0.7482 0.0
C801 C 0.58969 0.05483 0.7329 0.0
C802 C 0.57332 0.11029 0.75164 0.0
C803 C 0.55664 0.14872 0.73975 0.0
C804 C 0.56248 0.14078 0.72393 0.0
C805 C 0.58014 0.09388 0.72067 0.0
C806 C 0.57298 0.11769 0.76821 0.0
C807 C 0.54537 0.18032 0.71072 0.0
C808 C 0.44036 0.22904 0.74488 0.0
C809 C 0.45313 0.27328 0.73692 0.0
C810 C 0.47471 0.18799 0.74837 0.0
C811 C 0.52271 0.19215 0.74407 0.0
C812 C 0.53493 0.23894 0.73925 0.0
C813 C 0.49978 0.27938 0.73535 0.0
C814 C 0.45954 0.13926 0.75447 0.0
C815 C 0.58533 0.24559 0.73653 0.0
H816 H 0.59721 0.03262 0.75754 0.0
H817 H 0.58227 0.08695 0.70882 0.0
H818 H 0.56567 0.15676 0.76922 0.0
H819 H 0.54628 0.09899 0.77656 0.0
H820 H 0.60758 0.10053 0.77197 0.0
H821 H 0.55177 0.16745 0.69924 0.0
H822 H 0.50708 0.19376 0.71372 0.0
H823 H 0.56349 0.21156 0.70908 0.0
H824 H 0.40381 0.22517 0.74675 0.0
H825 H 0.50951 0.31425 0.72976 0.0
H826 H 0.47554 0.1204 0.76511 0.0
H827 H 0.47167 0.11583 0.74531 0.0
H828 H 0.42074 0.14289 0.75765 0.0
H829 H 0.60765 0.21452 0.74317 0.0
H830 H 0.58752 0.27982 0.7402 0.0
H831 H 0.59959 0.24888 0.72373 0.0
C832 C 0.01778 0.34721 0.48642 0.0
C833 C 0.04808 0.33765 0.47258 0.0
C834 C 0.98685 0.31577 0.49429 0.0
C835 C 0.98477 0.27571 0.48752 0.0
C836 C 0.01686 0.26512 0.4738 0.0
C837 C 0.04903 0.29576 0.46672 0.0
C838 C 0.95548 0.32706 0.50935 0.0
C839 C 0.01524 0.22342 0.46592 0.0
C840 C 0.92747 0.16694 0.50139 0.0
C841 C 0.88907 0.18188 0.49318 0.0
C842 C 0.95547 0.20009 0.50194 0.0
C843 C 0.94609 0.24795 0.49326 0.0
C844 C 0.90398 0.26453 0.48667 0.0
C845 C 0.87528 0.23119 0.48699 0.0
C846 C -0.00217 0.18251 0.51029 0.0
C847 C 0.89241 0.31557 0.47746 0.0
H848 H 0.01795 0.3795 0.49102 0.0
H849 H 0.07278 0.28881 0.45598 0.0
H850 H 0.92469 0.35536 0.50635 0.0
H851 H 0.94269 0.29445 0.51678 0.0
H852 H 0.97442 0.34215 0.51642 0.0
H853 H 0.04158 0.22157 0.455 0.0
H854 H 0.02201 0.1883 0.47418 0.0
H855 H 0.9798 0.2274 0.46274 0.0
H856 H 0.93757 0.1288 0.50641 0.0
H857 H 0.84514 0.24269 0.4808 0.0
H858 H 0.00467 0.21191 0.51554 0.0
H859 H 0.02928 0.17152 0.50168 0.0
H860 H 0.99308 0.15043 0.51979 0.0
H861 H 0.89431 0.34267 0.48455 0.0
H862 H 0.8568 0.32356 0.47404 0.0
H863 H 0.91857 0.32032 0.46652 0.0
C864 C 0.10264 0.56801 0.23577 0.0
C865 C 0.08629 0.55489 0.22355 0.0
C866 C 0.08712 0.61471 0.23955 0.0
C867 C 0.05442 0.6485 0.23094 0.0
C868 C 0.04084 0.63641 0.21778 0.0
C869 C 0.05704 0.58964 0.21426 0.0
C870 C 0.10365 0.62621 0.25335 0.0
C871 C 0.00666 0.6717 0.20802 0.0
C872 C 0.94999 0.73546 0.24481 0.0
C873 C 0.96038 0.77809 0.23473 0.0
C874 C 0.98412 0.69299 0.24595 0.0
C875 C 0.02889 0.69379 0.23656 0.0
C876 C 0.04184 0.73884 0.22886 0.0
C877 C 0.00706 0.78102 0.22801 0.0
C878 C 0.9698 0.64598 0.25507 0.0
C879 C 0.09018 0.74135 0.21953 0.0
H880 H 0.12593 0.54119 0.24284 0.0
H881 H 0.04513 0.57963 0.20464 0.0
H882 H 0.1011 0.66592 0.25261 0.0
H883 H 0.08184 0.61205 0.26451 0.0
H884 H 0.14062 0.60786 0.25402 0.0
H885 H 0.00209 0.65748 0.19766 0.0
H886 H 0.97178 0.67908 0.21546 0.0
H887 H 0.01898 0.70689 0.20363 0.0
H888 H 0.91395 0.73382 0.25032 0.0
H889 H 0.01529 0.81446 0.22046 0.0
H890 H -0.00153 0.62304 0.26132 0.0
H891 H 0.96269 0.62523 0.2467 0.0
H892 H 0.93752 0.65266 0.26387 0.0
H893 H 0.11741 0.71442 0.22549 0.0
H894 H 0.09848 0.77838 0.21788 0.0
H895 H 0.09172 0.73266 0.20765 0.0
C896 C 0.43573 0.03041 0.06123 0.0
C897 C 0.42468 -0.00971 0.07297 0.0
C898 C 0.46447 0.02526 0.04644 0.0
C899 C 0.48264 -0.02153 0.04242 0.0
C900 C 0.4716 0.93743 0.05412 0.0
C901 C 0.44367 0.94366 0.0692 0.0
C902 C 0.47565 0.07055 1.03508 0.0
C903 C 0.4886 0.88668 0.05056 0.0
C904 C 0.52278 0.97443 0.99722 0.0
C905 C 0.57226 0.9665 0.99548 0.0
C906 C 0.49362 -0.02282 1.01225 0.0
C907 C 0.51359 0.97323 1.0262 0.0
C908 C 0.5635 0.96658 1.02435 0.0
C909 C 0.59173 0.96225 1.00934 0.0
C910 C 0.44116 -0.01736 1.01328 0.0
C911 C 0.58748 0.96373 0.03834 0.0
H912 H 0.4222 0.06684 0.0637 0.0
H913 H 0.43561 0.91205 0.07782 0.0
H914 H 0.5143 0.06773 1.03179 0.0
H915 H 0.46107 0.07418 1.02403 0.0
H916 H 0.46112 0.10417 0.04015 0.0
H917 H 0.47565 0.8586 0.06033 0.0
H918 H 0.4767 0.88411 0.03954 0.0
H919 H 0.52757 0.8785 0.04848 0.0
H920 H 0.50677 0.97596 0.98694 0.0
H921 H 0.62968 0.95498 1.00849 0.0
H922 H 0.42295 0.01616 1.01792 0.0
H923 H 0.42873 0.95135 1.0217 0.0
H924 H 0.43069 -0.01562 1.00162 0.0
H925 H 0.57233 -0.00418 0.04414 0.0
H926 H 0.62599 0.96221 1.0349 0.0
H927 H 0.58145 0.93078 0.04724 0.0
C928 C 0.7444 0.64945 0.31878 0.0
C929 C 0.70086 0.63652 0.31906 0.0
C930 C 0.76332 0.68346 0.30607 0.0
C931 C 0.73728 0.7074 0.29359 0.0
C932 C 0.69273 0.69525 0.29411 0.0
C933 C 0.67579 0.65952 0.3065 0.0
C934 C 0.8116 0.69334 0.3059 0.0
C935 C 0.66231 0.72071 0.28166 0.0
C936 C 0.76948 0.82728 0.2675 0.0
C937 C 0.79197 0.8123 0.25318 0.0
C938 C 0.75094 0.79408 0.28058 0.0
C939 C 0.75688 0.7438 0.27976 0.0
C940 C 0.78078 0.72847 0.26544 0.0
C941 C 0.79696 0.76273 0.25237 0.0
C942 C 0.72432 0.81302 0.29522 0.0
C943 C 0.79002 0.67545 0.26396 0.0
H944 H 0.76409 0.63234 0.32839 0.0
H945 H 0.6417 0.65085 0.30666 0.0
H946 H 0.8345 0.68661 0.29463 0.0
H947 H 0.8093 0.73212 0.30654 0.0
H948 H 0.8285 0.67021 0.31593 0.0
H949 H 0.62721 0.70997 0.28431 0.0
H950 H 0.65732 0.76078 0.28075 0.0
H951 H 0.67987 0.71205 0.26994 0.0
H952 H 0.76558 0.86524 0.26839 0.0
H953 H 0.81508 0.75019 0.24156 0.0
H954 H 0.74262 0.7955 0.3055 0.0
H955 H 0.68872 0.80351 0.29802 0.0
H956 H 0.72066 0.85316 0.29383 0.0
H957 H 0.80815 0.65281 0.27377 0.0
H958 H 0.81194 0.66866 0.25253 0.0
H959 H 0.75627 0.66313 0.26494 0.0
C960 C 0.0397 0.91706 0.56504 0.0
C961 C 0.08653 0.9213 0.55848 0.0
C962 C 0.00255 0.93355 0.55606 0.0
C963 C 0.01126 0.95696 0.54005 0.0
C964 C 0.05834 0.96219 0.53335 0.0
C965 C 0.0954 0.94346 0.5425 0.0
C966 C 0.95379 0.92522 0.56373 0.0
C967 C 0.06946 -0.0116 0.51657 0.0
C968 C 0.91972 0.96874 0.51255 0.0
C969 C 0.89152 0.01445 0.51412 0.0
C970 C 0.95821 0.94934 0.52099 0.0
C971 C 0.97072 -0.02286 0.53068 0.0
C972 C 0.94277 0.02366 0.53204 0.0
C973 C 0.90324 0.041 0.52413 0.0
C974 C 0.98529 0.8988 0.51963 0.0
C975 C 0.95509 0.05579 0.54165 0.0
H976 H 0.03201 0.89927 0.57725 0.0
H977 H 0.13119 0.9469 0.5372 0.0
H978 H 0.92942 0.96062 0.56403 0.0
H979 H 0.94023 0.9049 0.55667 0.0
H980 H 0.95303 0.90444 0.57603 0.0
H981 H 0.10731 -0.00934 0.51315 0.0
H982 H 0.05959 0.96943 0.50825 0.0
H983 H 0.04842 0.02589 0.51518 0.0
H984 H 0.91148 0.9479 0.5048 0.0
H985 H 0.88254 0.07671 0.5253 0.0
H986 H 0.98506 0.87568 0.53157 0.0
H987 H 0.02251 0.90035 0.51452 0.0
H988 H 0.97046 0.88107 0.5121 0.0
H989 H 0.95083 0.03878 0.55436 0.0
H990 H 0.93271 0.09266 0.54036 0.0
H991 H 0.99244 0.05976 0.53794 0.0
C992 C 0.77911 0.26638 0.80977 0.0
C993 C 0.75976 0.31453 0.80367 0.0
C994 C 0.78207 0.22846 0.80154 0.0
C995 C 0.76482 0.23892 0.78693 0.0
C996 C 0.74582 0.28762 0.78062 0.0
C997 C 0.7438 0.3249 0.78903 0.0
C998 C 0.80323 0.17718 0.80854 0.0
C999 C 0.72677 0.3002 0.76515 0.0
C1000 C 0.80446 0.14945 0.75837 0.0
C1001 C 0.76627 0.12509 0.76132 0.0
C1002 C 0.80482 0.18598 0.7668 0.0
C1003 C 0.76586 0.19887 0.77836 0.0
C1004 C 0.72743 0.17411 0.78152 0.0
C1005 C 0.72821 0.1374 0.77304 0.0
C1006 C 0.8466 0.2113 0.76317 0.0
C1007 C 0.68517 0.18681 0.79374 0.0
H1008 H 0.79206 0.25842 0.821 0.0
H1009 H 0.72854 0.36206 0.78436 0.0
H1010 H 0.77646 0.15351 0.81106 0.0
H1011 H 0.83257 0.16191 0.79992 0.0
H1012 H 0.81671 0.17548 0.81968 0.0
H1013 H 0.71388 0.33993 0.76174 0.0
H1014 H 0.75443 0.28796 0.75554 0.0
H1015 H 0.69735 0.28076 0.76607 0.0
H1016 H 0.83373 0.14076 0.7492 0.0
H1017 H 0.69891 0.11824 0.77562 0.0
H1018 H 0.86108 0.2088 0.77416 0.0
H1019 H 0.83544 0.25056 0.75847 0.0
H1020 H 0.87502 0.19549 0.75436 0.0
H1021 H 0.69623 0.18228 0.80546 0.0
H1022 H 0.65836 0.16383 0.79488 0.0
H1023 H 0.66863 0.2256 0.7905 0.0
C1024 C 0.29371 0.25815 0.74964 0.0
C1025 C 0.28943 0.3072 0.75096 0.0
C1026 C 0.2778 0.2231 0.76249 0.0
C1027 C 0.2549 0.23718 0.77709 0.0
C1028 C 0.24944 0.28699 0.77839 0.0
C1029 C 0.2677 0.32093 0.76553 0.0
C1030 C 0.28658 0.17054 0.76053 0.0
C1031 C 0.22395 0.30459 0.79338 0.0
C1032 C 0.17513 0.15202 0.80409 0.0
C1033 C 0.20132 0.12846 0.81631 0.0
C1034 C 0.19141 0.18806 0.79166 0.0
C1035 C 0.2363 0.19991 0.79079 0.0
C1036 C 0.26353 0.17519 0.80287 0.0
C1037 C 0.24533 0.1409 0.81562 0.0
C1038 C 0.15988 0.21433 0.77963 0.0
C1039 C 0.3122 0.18473 0.8023 0.0
H1040 H 0.31131 0.24654 0.73864 0.0
H1041 H 0.26442 0.35846 0.76681 0.0
H1042 H 0.30614 0.14716 0.76988 0.0
H1043 H 0.25267 0.15815 0.76191 0.0
H1044 H 0.30701 0.16484 0.74878 0.0
H1045 H 0.21993 0.34469 0.79227 0.0
H1046 H 0.18856 0.29459 0.79647 0.0
H1047 H 0.24339 0.28659 0.80335 0.0
H1048 H 0.1407 0.14367 0.80457 0.0
H1049 H 0.26587 0.12333 0.82498 0.0
H1050 H 0.1766 0.20675 0.7677 0.0
H1051 H 0.15476 0.25428 0.77904 0.0
H1052 H 0.12488 0.20335 0.78246 0.0
H1053 H 0.33396 0.17921 0.79074 0.0
H1054 H 0.33018 0.16058 0.81193 0.0
H1055 H 0.31023 0.22313 0.80333 0.0
C1056 C 0.2411 0.77019 0.31629 0.0
C1057 C 0.24913 0.8154 0.30733 0.0
C1058 C 0.24462 0.73013 0.30899 0.0
C1059 C 0.25611 0.73555 0.29231 0.0
C1060 C 0.26467 0.78101 0.28321 0.0
C1061 C 0.2613 0.82036 0.29085 0.0
C1062 C 0.23581 0.68209 0.3191 0.0
C1063 C 0.27669 0.78827 0.26538 0.0
C1064 C 0.30267 0.62309 0.27338 0.0
C1065 C 0.26219 0.6163 0.26863 0.0
C1066 C 0.30113 0.66144 0.28127 0.0
C1067 C 0.25817 0.69394 0.28435 0.0
C1068 C 0.21711 0.68699 0.2797 0.0
C1069 C 0.2196 0.64816 0.27194 0.0
C1070 C 0.34553 0.66743 0.28621 0.0
C1071 C 0.1707 0.72106 0.28266 0.0
H1072 H 0.23242 0.76605 0.32907 0.0
H1073 H 0.26726 0.85535 0.28389 0.0
H1074 H 0.20545 0.67144 0.31585 0.0
H1075 H 0.26679 0.65305 0.31692 0.0
H1076 H 0.22846 0.68359 0.33194 0.0
H1077 H 0.28312 0.82565 0.26007 0.0
H1078 H 0.30851 0.76172 0.26186 0.0
H1079 H 0.24754 0.78146 0.26033 0.0
H1080 H 0.33557 0.59829 0.27095 0.0
H1081 H 0.18838 0.64354 0.26808 0.0
H1082 H 0.33991 0.66688 0.29915 0.0
H1083 H 0.35467 0.70327 0.28023 0.0
H1084 H 0.37581 0.63836 0.28327 0.0
H1085 H 0.16051 0.72171 0.29551 0.0
H1086 H 0.142 0.71036 0.27839 0.0
H1087 H 0.17413 0.75871 0.27661 0.0
C1088 C 0.09298 0.46619 0.51038 0.0
C1089 C 0.07241 0.46904 0.49685 0.0
C1090 C 0.06572 0.47116 0.52549 0.0
C1091 C 0.01582 0.47684 0.52778 0.0
C1092 C 0.99484 0.47904 0.51418 0.0
C1093 C 0.02296 0.47593 0.49903 0.0
C1094 C 0.09067 0.46997 0.5391 0.0
C1095 C 0.94239 0.48316 0.51574 0.0
C1096 C 0.947 0.44987 0.57101 0.0
C1097 C 0.92716 0.49691 0.57427 0.0
C1098 C 0.97538 0.44261 0.55609 0.0
C1099 C 0.98572 0.48308 0.54403 0.0
C1100 C 0.96674 0.53034 0.54755 0.0
C1101 C 0.93771 0.53645 0.56223 0.0
C1102 C 0.99306 0.39139 0.55302 0.0
C1103 C 0.97721 0.57508 0.53575 0.0
H1104 H 0.131 0.45952 0.50917 0.0
H1105 H 0.00623 0.47626 0.48902 0.0
H1106 H 0.0761 0.50299 0.54447 0.0
H1107 H 0.08479 0.43794 0.54843 0.0
H1108 H 0.12914 0.46803 0.53536 0.0
H1109 H 0.93121 0.48254 0.50439 0.0
H1110 H 0.93085 0.4526 0.52477 0.0
H1111 H 0.92407 0.51748 0.51986 0.0
H1112 H 0.93882 0.4187 0.57983 0.0
H1113 H 0.92266 0.57311 0.56424 0.0
H1114 H 0.03196 0.38439 0.55019 0.0
H1115 H 0.97942 0.38686 0.54257 0.0
H1116 H 0.98221 0.36367 0.56332 0.0
H1117 H 0.01543 0.57544 0.53394 0.0
H1118 H 0.95769 0.60936 0.53968 0.0
H1119 H 0.96803 0.57443 0.52411 0.0
C1120 C 0.59826 0.45416 0.04363 0.0
C1121 C 0.59016 0.4348 0.05987 0.0
C1122 C 0.5605 0.47206 1.03479 0.0
C1123 C 0.51362 0.46789 0.04206 0.0
C1124 C 0.50573 0.44703 0.05836 0.0
C1125 C 0.54354 0.43222 0.06707 0.0
C1126 C 0.57074 0.49596 1.01768 0.0
C1127 C 0.45734 0.43895 0.06657 0.0
C1128 C 0.40533 0.54863 1.02543 0.0
C1129 C 0.39431 0.52014 1.01589 0.0
C1130 C 0.44457 0.53282 1.0335 0.0
C1131 C 0.47266 0.48595 1.03286 0.0
C1132 C 0.46044 0.45607 1.0238 0.0
C1133 C 0.42244 0.47396 1.01512 0.0
C1134 C 0.45648 0.56697 0.04248 0.0
C1135 C 0.48749 0.40502 1.0233 0.0
H1136 H 0.63401 0.45602 0.03788 0.0
H1137 H 0.53667 0.41652 0.07951 0.0
H1138 H 0.56179 0.4744 1.00994 0.0
H1139 H 0.54854 0.53279 1.01571 0.0
H1140 H 0.60825 0.49946 1.01402 0.0
H1141 H 0.4575 0.41913 0.07896 0.0
H1142 H 0.43299 0.4744 0.06672 0.0
H1143 H 0.44313 0.4177 0.05998 0.0
H1144 H 0.38457 0.5847 1.02596 0.0
H1145 H 0.4146 0.45162 1.00776 0.0
H1146 H 0.49447 0.5687 0.03947 0.0
H1147 H 0.44905 0.55322 0.05539 0.0
H1148 H 0.43589 0.60445 0.0399 0.0
H1149 H 0.52367 0.40639 1.01693 0.0
H1150 H 0.47061 0.38447 1.01727 0.0
H1151 H 0.49046 0.38475 0.03549 0.0
C1152 C 0.25637 0.18902 0.14673 0.0
C1153 C 0.28331 0.14231 0.15038 0.0
C1154 C 0.24046 0.21925 0.15813 0.0
C1155 C 0.25189 0.20264 0.17361 0.0
C1156 C 0.27748 0.15481 0.17757 0.0
C1157 C 0.29286 0.12523 0.16592 0.0
C1158 C 0.21314 0.26989 0.15338 0.0
C1159 C 0.29058 0.13563 0.19389 0.0
C1160 C 0.26551 0.30433 0.19292 0.0
C1161 C 0.22256 0.31248 0.20307 0.0
C1162 C 0.27609 0.26732 0.18389 0.0
C1163 C 0.24266 0.23772 0.18479 0.0
C1164 C 0.19985 0.24435 0.19547 0.0
C1165 C 0.19047 0.28147 0.20463 0.0
C1166 C 0.32247 0.2613 0.17289 0.0
C1167 C 0.16327 0.21359 0.19674 0.0
H1168 H 0.24826 0.20246 0.13483 0.0
H1169 H 0.3133 0.08909 0.16894 0.0
H1170 H 0.18098 0.27706 0.16215 0.0
H1171 H 0.2349 0.29724 0.15319 0.0
H1172 H 0.20278 0.27544 0.14149 0.0
H1173 H 0.30393 0.09569 0.19581 0.0
H1174 H 0.31836 0.15407 0.19546 0.0
H1175 H 0.25995 0.1437 0.20314 0.0
H1176 H 0.29085 0.32773 0.19175 0.0
H1177 H 0.15758 0.28715 0.21258 0.0
H1178 H 0.31612 0.27046 0.16042 0.0
H1179 H 0.34101 0.22287 0.17497 0.0
H1180 H 0.34594 0.28499 0.17441 0.0
H1181 H 0.14875 0.22196 0.18547 0.0
H1182 H 0.13384 0.22021 0.20654 0.0
H1183 H 0.17938 0.17435 0.19863 0.0
C1184 C 0.45952 0.55279 0.40175 0.0
C1185 C 0.4736 0.53712 0.38709 0.0
C1186 C 0.41698 0.54379 0.41152 0.0
C1187 C 0.38788 0.51784 0.40671 0.0
C1188 C 0.40119 0.50351 0.39169 0.0
C1189 C 0.44348 0.51349 0.38209 0.0
C1190 C 0.40413 0.56043 0.42729 0.0
C1191 C 0.37196 0.47524 0.38605 0.0
C1192 C 0.31977 0.43236 0.43752 0.0
C1193 C 0.27262 0.45576 0.43747 0.0
C1194 C 0.35712 0.45309 0.42809 0.0
C1195 C 0.34782 0.49905 0.41818 0.0
C1196 C 0.30044 0.52431 0.41858 0.0
C1197 C 0.26328 0.50235 0.42822 0.0
C1198 C 0.40661 0.4244 0.4282 0.0
C1199 C 0.28887 0.57361 0.40836 0.0
H1200 H 0.48204 0.57155 0.40571 0.0
H1201 H 0.4536 0.50133 0.3708 0.0
H1202 H 0.36669 0.57853 0.42907 0.0
H1203 H 0.40862 0.52838 0.43696 0.0
H1204 H 0.42636 0.58601 0.42835 0.0
H1205 H 0.38454 0.47068 0.37355 0.0
H1206 H 0.37328 0.43856 0.3936 0.0
H1207 H 0.33465 0.49382 0.38715 0.0
H1208 H 0.32772 0.39654 0.44471 0.0
H1209 H 0.22711 0.52066 0.42799 0.0
H1210 H 0.42971 0.4467 0.43076 0.0
H1211 H 0.42117 0.41484 0.41635 0.0
H1212 H 0.40819 0.3902 0.43712 0.0
H1213 H 0.31241 0.59781 0.40942 0.0
H1214 H 0.25178 0.5914 0.41154 0.0
H1215 H 0.29471 0.56954 0.39576 0.0
C1216 C 0.24393 0.70519 0.63681 0.0
C1217 C 0.2486 0.70389 0.62059 0.0
C1218 C 0.25809 0.6634 0.64786 0.0
C1219 C 0.27788 0.61847 0.64275 0.0
C1220 C 0.28231 0.61654 0.62643 0.0
C1221 C 0.26764 0.65915 0.61556 0.0
C1222 C 0.25269 0.66772 0.66505 0.0
C1223 C 0.30335 0.56962 0.6204 0.0
C1224 C 0.36055 0.53492 0.66975 0.0
C1225 C 0.33203 0.50339 0.67958 0.0
C1226 C 0.34418 0.57044 0.65726 0.0
C1227 C 0.29766 0.57529 0.65437 0.0
C1228 C 0.26929 0.5419 0.66373 0.0
C1229 C 0.28685 0.50618 0.67619 0.0
C1230 C 0.37616 0.60447 0.64764 0.0
C1231 C 0.2196 0.54545 0.66107 0.0
H1232 H 0.22925 0.73923 0.64097 0.0
H1233 H 0.27119 0.65737 0.60313 0.0
H1234 H 0.23314 0.63989 0.67265 0.0
H1235 H 0.28786 0.66083 0.6687 0.0
H1236 H 0.23389 0.70431 0.66732 0.0
H1237 H 0.30117 0.57295 0.60767 0.0
H1238 H 0.34083 0.55878 0.62199 0.0
H1239 H 0.28516 0.53983 0.62733 0.0
H1240 H 0.39579 0.53271 0.67209 0.0
H1241 H 0.2646 0.48195 0.68366 0.0
H1242 H 0.36234 0.64184 0.65014 0.0
H1243 H 0.37716 0.60621 0.6348 0.0
H1244 H 0.41264 0.5931 0.65034 0.0
H1245 H 0.20398 0.51377 0.66795 0.0
H1246 H 0.21851 0.54789 0.64832 0.0
H1247 H 0.19753 0.5792 0.66467 0.0
C1248 C 0.11045 0.5282 0.908 0.0
C1249 C 0.07603 0.56937 0.90398 0.0
C1250 C 0.13878 0.52623 0.91949 0.0
C1251 C 0.13303 0.56641 0.92723 0.0
C1252 C 0.09874 0.60825 0.92312 0.0
C1253 C 0.07069 0.60914 0.91166 0.0
C1254 C 0.17477 0.48091 0.92342 0.0
C1255 C 0.09171 0.65234 0.9308 0.0
C1256 C 0.16961 0.55264 0.96785 0.0
C1257 C 0.21209 0.57 0.96397 0.0
C1258 C 0.14489 0.54888 0.95602 0.0
C1259 C 0.16207 0.56454 0.93983 0.0
C1260 C 0.20566 0.58103 0.93584 0.0
C1261 C 0.23025 0.58313 0.94793 0.0
C1262 C 0.09906 0.53044 0.96093 0.0
C1263 C 0.22488 0.59953 0.91886 0.0
H1264 H 0.11482 0.497 0.90233 0.0
H1265 H 0.04498 0.64151 0.90852 0.0
H1266 H 0.2103 0.49032 0.92122 0.0
H1267 H 0.16732 0.46504 0.93618 0.0
H1268 H 0.17523 0.45282 0.91635 0.0
H1269 H 0.06438 0.68242 0.92611 0.0
H1270 H 0.08125 0.64218 0.94378 0.0
H1271 H 0.1252 0.66598 0.92886 0.0
H1272 H 0.15473 0.54373 0.98023 0.0
H1273 H 0.26241 0.59768 0.9448 0.0
H1274 H 0.09881 0.50161 0.95425 0.0
H1275 H 0.06956 0.56063 0.95806 0.0
H1276 H 0.09264 0.51549 0.9738 0.0
H1277 H 0.22408 0.57344 0.91124 0.0
H1278 H 0.26142 0.60583 0.91749 0.0
H1279 H 0.20239 0.63448 0.91448 0.0
C1280 C 0.72915 0.65547 0.87183 0.0
C1281 C 0.77492 0.64203 0.86394 0.0
C1282 C 0.71843 0.69076 0.88156 0.0
C1283 C 0.75461 0.71257 0.88392 0.0
C1284 C 0.80051 0.70101 0.8754 0.0
C1285 C 0.80983 0.66659 0.86524 0.0
C1286 C 0.66861 0.70306 0.88989 0.0
C1287 C 0.84026 0.72305 0.87764 0.0
C1288 C 0.71324 0.82494 0.90345 0.0
C1289 C 0.7121 0.80447 0.91959 0.0
C1290 C 0.72858 0.79594 0.89164 0.0
C1291 C 0.74428 0.74514 0.89599 0.0
C1292 C 0.74557 0.72463 0.9122 0.0
C1293 C 0.7292 0.75439 0.92378 0.0
C1294 C 0.72583 0.81947 0.87458 0.0
C1295 C 0.76287 0.67083 0.91738 0.0
H1296 H 0.70161 0.63725 0.87074 0.0
H1297 H 0.84476 0.65739 0.85892 0.0
H1298 H 0.66731 0.69001 0.90282 0.0
H1299 H 0.65639 0.74312 0.88798 0.0
H1300 H 0.6438 0.68623 0.88571 0.0
H1301 H 0.87305 0.71295 0.86942 0.0
H1302 H 0.8303 0.76334 0.87584 0.0
H1303 H 0.84754 0.71031 0.88998 0.0
H1304 H 0.70155 0.86373 0.89998 0.0
H1305 H 0.72918 0.73814 0.93617 0.0
H1306 H 0.69578 0.80967 0.87085 0.0
H1307 H 0.7581 0.80607 0.86669 0.0
H1308 H 0.7207 0.85983 0.87283 0.0
H1309 H 0.73788 0.64982 0.91528 0.0
H1310 H 0.76646 0.6614 0.93013 0.0
H1311 H 0.79743 0.65899 0.9103 0.0
C1312 C 0.53843 0.38711 0.67357 0.0
C1313 C 0.51412 0.41762 0.68427 0.0
C1314 C 0.58099 0.39617 0.66391 0.0
C1315 C 0.599 0.43783 0.66449 0.0
C1316 C 0.57484 0.46832 0.67548 0.0
C1317 C 0.53327 0.4574 0.68539 0.0
C1318 C 0.6061 0.36174 0.6528 0.0
C1319 C 0.59156 0.51398 0.67622 0.0
C1320 C 0.72288 0.45909 0.6443 0.0
C1321 C 0.71356 0.48765 0.62968 0.0
C1322 C 0.68642 0.44091 0.65557 0.0
C1323 C 0.63941 0.45286 0.65236 0.0
C1324 C 0.63029 0.48111 0.63752 0.0
C1325 C 0.66735 0.49728 0.62638 0.0
C1326 C 0.69807 0.40966 0.67102 0.0
C1327 C 0.58092 0.49605 0.63358 0.0
H1328 H 0.52424 0.35592 0.67277 0.0
H1329 H 0.51465 0.48124 0.69359 0.0
H1330 H 0.60285 0.37976 0.64041 0.0
H1331 H 0.64414 0.35212 0.65369 0.0
H1332 H 0.5915 0.32769 0.65531 0.0
H1333 H 0.57044 0.53245 0.68594 0.0
H1334 H 0.62892 0.5053 0.67793 0.0
H1335 H 0.58926 0.5398 0.66483 0.0
H1336 H 0.75825 0.45163 0.64702 0.0
H1337 H 0.65947 0.51952 0.61515 0.0
H1338 H 0.68268 0.37616 0.67343 0.0
H1339 H 0.68243 0.42979 0.68087 0.0
H1340 H 0.73658 0.39906 0.67103 0.0
H1341 H 0.56578 0.46333 0.63416 0.0
H1342 H 0.5796 0.51876 0.62161 0.0
H1343 H 0.55814 0.51706 0.64242 0.0
C1344 C 0.72143 0.28244 0.45259 0.0
C1345 C 0.75483 0.24308 0.44774 0.0
C1346 C 0.70508 0.32361 0.44152 0.0
C1347 C 0.72202 0.32565 0.42509 0.0
C1348 C 0.75642 0.28646 0.42018 0.0
C1349 C 0.7724 0.24605 0.43148 0.0
C1350 C 0.66866 0.36443 0.44738 0.0
C1351 C 0.77526 0.28636 0.40286 0.0
C1352 C 0.64128 0.39665 0.39539 0.0
C1353 C 0.66067 0.43877 0.38887 0.0
C1354 C 0.66059 0.36032 0.40717 0.0
C1355 C 0.70039 0.36587 0.41293 0.0
C1356 C 0.71978 0.40878 0.40666 0.0
C1357 C 0.69987 0.44461 0.39466 0.0
C1358 C 0.63862 0.31543 0.41327 0.0
C1359 C 0.7618 0.41661 0.41256 0.0
H1360 H 0.70771 0.281 0.46507 0.0
H1361 H 0.79818 0.21614 0.42747 0.0
H1362 H 0.67978 0.39999 0.44235 0.0
H1363 H 0.63495 0.36581 0.44333 0.0
H1364 H 0.66238 0.35984 0.4605 0.0
H1365 H 0.8041 0.25493 0.401 0.0
H1366 H 0.74651 0.2848 0.39659 0.0
H1367 H 0.78851 0.32054 0.39734 0.0
H1368 H 0.61089 0.39156 0.39113 0.0
H1369 H 0.71494 0.47706 0.38982 0.0
H1370 H 0.62776 0.31114 0.42629 0.0
H1371 H 0.66476 0.28248 0.41088 0.0
H1372 H 0.6074 0.31684 0.40774 0.0
H1373 H 0.75456 0.41361 0.42562 0.0
H1374 H 0.7713 0.45276 0.40716 0.0
H1375 H 0.79246 0.38783 0.40979 0.0
C1376 C 0.77355 0.41353 0.116 0.0
C1377 C 0.77966 0.36778 0.11168 0.0
C1378 C 0.79556 0.41969 0.12831 0.0
C1379 C 0.82513 0.37942 0.13628 0.0
C1380 C 0.8299 0.33303 0.13223 0.0
C1381 C 0.80736 0.3279 0.1201 0.0
C1382 C 0.78788 0.46949 0.13257 0.0
C1383 C 0.85953 0.28859 0.1406 0.0
C1384 C 0.92717 0.39562 0.15473 0.0
C1385 C 0.9113 0.3844 0.17109 0.0
C1386 C 0.89884 0.39597 0.1434 0.0
C1387 C 0.8529 0.38519 0.14836 0.0
C1388 C 0.83611 0.37512 0.16486 0.0
C1389 C 0.86524 0.37506 0.17592 0.0
C1390 C 0.91892 0.4061 0.12604 0.0
C1391 C 0.7876 0.36379 0.17125 0.0
H1392 H 0.75239 0.4446 0.10959 0.0
H1393 H 0.81198 0.29215 0.11705 0.0
H1394 H 0.78295 0.46689 0.14561 0.0
H1395 H 0.81932 0.48622 0.1274 0.0
H1396 H 0.75683 0.49396 0.12797 0.0
H1397 H 0.8597 0.25501 0.13611 0.0
H1398 H 0.89629 0.29429 0.13909 0.0
H1399 H 0.84596 0.28284 0.15349 0.0
H1400 H 0.9621 0.40399 0.15068 0.0
H1401 H 0.8521 0.36607 0.18844 0.0
H1402 H 0.89522 0.43638 0.11968 0.0
H1403 H 0.92153 0.37341 0.12076 0.0
H1404 H 0.95437 0.41578 0.12403 0.0
H1405 H 0.77017 0.35562 0.16225 0.0
H1406 H 0.7654 0.39556 0.17608 0.0
H1407 H 0.78927 0.33233 0.18122 0.0
C1408 C 0.758 0.6257 0.66551 0.0
C1409 C 0.7571 0.64352 0.64928 0.0
C1410 C 0.74339 0.65686 0.67671 0.0
C1411 C 0.72745 0.70728 0.67163 0.0
C1412 C 0.72398 0.725 0.65539 0.0
C1413 C 0.73885 0.69302 0.64444 0.0
C1414 C 0.74796 0.63604 0.69383 0.0
C1415 C 0.70697 0.77838 0.64941 0.0
C1416 C 0.67019 0.79425 0.7007 0.0
C1417 C 0.70773 0.8167 0.70095 0.0
C1418 C 0.67606 0.75752 0.69155 0.0
C1419 C 0.72068 0.7425 0.6827 0.0
C1420 C 0.75915 0.76326 0.68371 0.0
C1421 C 0.7521 0.80014 0.69267 0.0
C1422 C 0.63418 0.73623 0.69085 0.0
C1423 C 0.80757 0.74795 0.67478 0.0
H1424 H 0.77168 0.58758 0.66947 0.0
H1425 H 0.73759 0.70731 0.63199 0.0
H1426 H 0.78105 0.64309 0.69635 0.0
H1427 H 0.71842 0.65343 0.70192 0.0
H1428 H 0.74914 0.59605 0.69651 0.0
H1429 H 0.70111 0.78548 0.63689 0.0
H1430 H 0.6737 0.79203 0.65682 0.0
H1431 H 0.7334 0.79965 0.65026 0.0
H1432 H 0.6359 0.80687 0.70699 0.0
H1433 H 0.78147 0.81704 0.69287 0.0
H1434 H 0.64268 0.69585 0.69361 0.0
H1435 H 0.6253 0.74653 0.67868 0.0
H1436 H 0.60278 0.74916 0.69922 0.0
H1437 H 0.8343 0.7656 0.67754 0.0
H1438 H 0.80676 0.75767 0.66185 0.0
H1439 H 0.81883 0.70785 0.67768 0.0
C1440 C 0.77336 0.0041 0.9324 0.0
C1441 C 0.77277 0.95503 0.93257 0.0
C1442 C 0.81168 0.02599 0.92365 0.0
C1443 C 0.85023 -0.00195 0.91503 0.0
C1444 C 0.8486 0.94909 0.91485 0.0
C1445 C 0.81011 0.92862 0.92342 0.0
C1446 C 0.81149 0.07858 0.92392 0.0
C1447 C 0.88827 0.91752 0.90588 0.0
C1448 C 0.93938 0.04488 0.88056 0.0
C1449 C 0.98006 0.03674 0.88756 0.0
C1450 C 0.89585 0.03671 0.8896 0.0
C1451 C 0.89274 0.01868 0.9061 0.0
C1452 C 0.93323 0.01272 0.91337 0.0
C1453 C 0.97622 0.02231 0.90406 0.0
C1454 C 0.85382 0.04467 0.88128 0.0
C1455 C 0.932 -0.00697 0.93084 0.0
H1456 H 0.7449 0.02478 0.93944 0.0
H1457 H 0.8099 0.89083 0.92327 0.0
H1458 H 0.83972 0.08078 0.93031 0.0
H1459 H 0.81895 0.09894 0.91168 0.0
H1460 H 0.77737 0.09667 0.92983 0.0
H1461 H 0.88185 0.87993 0.90707 0.0
H1462 H 0.89318 0.9339 0.89312 0.0
H1463 H 0.92164 0.9153 0.91028 0.0
H1464 H 0.94171 0.05687 0.86785 0.0
H1465 H 0.00737 0.016 0.90958 0.0
H1466 H 0.82198 0.06337 0.88817 0.0
H1467 H 0.84683 0.00893 0.88028 0.0
H1468 H 0.85953 0.06659 0.86918 0.0
H1469 H 0.9009 0.01266 0.93776 0.0
H1470 H 0.96421 -0.00393 0.93507 0.0
H1471 H 0.92884 0.95403 0.93326 0.0
C1472 C 0.85418 0.04232 0.17118 0.0
C1473 C 0.82849 0.0072 0.1804 0.0
C1474 C 0.83632 0.07744 0.15888 0.0
C1475 C 0.79128 0.07796 0.15544 0.0
C1476 C 0.76585 0.04117 0.16418 0.0
C1477 C 0.78474 0.00617 0.17657 0.0
C1478 C 0.86506 0.11546 0.15 0.0
C1479 C 0.71795 0.03996 0.16083 0.0
C1480 C 0.73067 0.20494 0.13792 0.0
C1481 C 0.73961 0.20469 0.12154 0.0
C1482 C 0.74532 0.16344 0.149 0.0
C1483 C 0.76983 0.11986 0.14377 0.0
C1484 C 0.77804 0.11878 0.12729 0.0
C1485 C 0.76297 0.16112 0.11639 0.0
C1486 C 0.73588 0.16687 0.16635 0.0
C1487 C 0.80393 0.07325 0.12113 0.0
H1488 H 0.88834 0.04321 0.17384 0.0
H1489 H 0.76473 -0.02091 0.18351 0.0
H1490 H 0.86863 0.11721 0.13705 0.0
H1491 H 0.84688 0.15189 0.15255 0.0
H1492 H 0.90078 0.10802 0.1533 0.0
H1493 H 0.70493 0.00635 0.16732 0.0
H1494 H 0.69254 0.07199 0.1644 0.0
H1495 H 0.71885 0.04232 0.14796 0.0
H1496 H 0.71261 0.23807 0.14218 0.0
H1497 H 0.76987 0.16014 0.10383 0.0
H1498 H 0.76964 0.16354 0.17065 0.0
H1499 H 0.71869 0.1365 0.17339 0.0
H1500 H 0.71317 0.2019 0.16866 0.0
H1501 H 0.84113 0.06608 0.12299 0.0
H1502 H 0.80316 0.07636 0.10831 0.0
H1503 H 0.78845 0.04128 0.12776 0.0
C1504 C 0.73427 0.04996 0.45023 0.0
C1505 C 0.71589 0.05167 0.46621 0.0
C1506 C 0.70567 0.04786 0.43928 0.0
C1507 C 0.65668 0.04912 0.44417 0.0
C1508 C 0.63814 0.04941 0.46042 0.0
C1509 C 0.66791 0.05024 0.47123 0.0
C1510 C 0.72799 0.04649 0.4223 0.0
C1511 C 0.58633 0.0511 0.46627 0.0
C1512 C 0.57695 0.10064 0.41217 0.0
C1513 C 0.5675 0.05839 0.40853 0.0
C1514 C 0.60513 0.09814 0.42379 0.0
C1515 C 0.62479 0.05226 0.43218 0.0
C1516 C 0.6151 0.00951 0.42869 0.0
C1517 C 0.58671 0.01305 0.41704 0.0
C1518 C 0.61463 0.14479 0.42689 0.0
C1519 C 0.63568 0.95977 0.43705 0.0
H1520 H 0.77114 0.05147 0.44618 0.0
H1521 H 0.65303 0.05247 0.48345 0.0
H1522 H 0.71156 0.02414 0.41682 0.0
H1523 H 0.72328 0.08411 0.41537 0.0
H1524 H 0.76624 0.0315 0.42138 0.0
H1525 H 0.57762 0.04841 0.47932 0.0
H1526 H 0.56617 0.08579 0.46058 0.0
H1527 H 0.57448 0.02098 0.46289 0.0
H1528 H 0.56327 0.13594 0.40563 0.0
H1529 H 0.57949 -0.02001 0.41464 0.0
H1530 H 0.65277 0.14562 0.42367 0.0
H1531 H 0.60479 0.1465 0.43968 0.0
H1532 H 0.59502 0.17767 0.42004 0.0
H1533 H 0.67463 0.95431 0.43452 0.0
H1534 H 0.62413 0.92999 0.43334 0.0
H1535 H 0.62537 0.95701 0.45005 0.0
C1536 C 0.22976 0.25772 0.42442 0.0
C1537 C 0.20636 0.30597 0.42058 0.0
C1538 C 0.24696 0.22838 0.41278 0.0
C1539 C 0.24055 0.2475 0.39684 0.0
C1540 C 0.21815 0.29664 0.39279 0.0
C1541 C 0.20142 0.32525 0.40468 0.0
C1542 C 0.27039 0.17616 0.41768 0.0
C1543 C 0.21032 0.31852 0.376 0.0
C1544 C 0.30767 0.16892 0.36626 0.0
C1545 C 0.27438 0.14093 0.366 0.0
C1546 C 0.29687 0.20532 0.37577 0.0
C1547 C 0.25163 0.21411 0.38503 0.0
C1548 C 0.21722 0.18792 0.38393 0.0
C1549 C 0.22904 0.15182 0.37453 0.0
C1550 C 0.33449 0.23263 0.37653 0.0
C1551 C 0.16841 0.19612 0.39339 0.0
H1552 H 0.2342 0.24253 0.43661 0.0
H1553 H 0.18369 0.36257 0.40152 0.0
H1554 H 0.24795 0.15128 0.4163 0.0
H1555 H 0.30456 0.16796 0.40993 0.0
H1556 H 0.27656 0.1681 0.43018 0.0
H1557 H 0.19601 0.35827 0.37452 0.0
H1558 H 0.24376 0.31242 0.36772 0.0
H1559 H 0.18527 0.30031 0.37255 0.0
H1560 H 0.34256 0.161 0.35964 0.0
H1561 H 0.20278 0.13083 0.37428 0.0
H1562 H 0.34577 0.22117 0.38836 0.0
H1563 H 0.32051 0.27237 0.375 0.0
H1564 H 0.36579 0.22575 0.36737 0.0
H1565 H 0.17049 0.18491 0.40622 0.0
H1566 H 0.14479 0.1752 0.39037 0.0
H1567 H 0.15234 0.23535 0.3913 0.0
C1568 C 0.03235 0.89315 0.17089 0.0
C1569 C 0.01346 0.91749 0.1837 0.0
C1570 C 0.07575 0.9005 0.16141 0.0
C1571 C 0.1006 0.93388 0.16453 0.0
C1572 C 0.08199 0.95783 0.17763 0.0
C1573 C 0.03915 0.949 0.18709 0.0
C1574 C 0.09449 0.87335 0.14783 0.0
C1575 C 0.10639 -0.00555 0.18131 0.0
C1576 C 0.22796 0.94683 0.14607 0.0
C1577 C 0.22046 -0.0124 0.13404 0.0
C1578 C 0.18953 0.9269 0.15561 0.0
C1579 C 0.14267 0.94851 0.15313 0.0
C1580 C 0.13557 -0.01222 0.14036 0.0
C1581 C 0.17428 0.00651 0.13104 0.0
C1582 C 0.19892 0.88445 0.16887 0.0
C1583 C 0.08672 0.01245 0.13715 0.0
H1584 H 0.01323 0.86822 0.16826 0.0
H1585 H 0.02508 0.96802 0.19694 0.0
H1586 H 0.09259 0.89918 0.13644 0.0
H1587 H 0.132 0.85645 0.1481 0.0
H1588 H 0.07436 0.84446 0.14811 0.0
H1589 H 0.08894 0.00798 0.19238 0.0
H1590 H 0.14351 -0.02197 0.18248 0.0
H1591 H 0.10666 0.02605 0.1714 0.0
H1592 H 0.26334 0.93235 0.14862 0.0
H1593 H 0.16805 0.038 0.12176 0.0
H1594 H 0.17742 0.85678 0.16917 0.0
H1595 H 0.18878 0.89733 0.18037 0.0
H1596 H 0.23662 0.86689 0.16773 0.0
H1597 H 0.06643 -0.01475 0.13606 0.0
H1598 H 0.08725 0.04047 0.12618 0.0
H1599 H 0.06769 0.03033 0.14724 0.0
C1600 C 0.13966 0.89683 0.89691 0.0
C1601 C 0.16436 0.93316 0.88799 0.0
C1602 C 0.15832 0.8612 0.90898 0.0
C1603 C 0.20318 0.86134 0.91246 0.0
C1604 C 0.22799 0.89868 0.9038 0.0
C1605 C 0.20832 0.93418 0.89168 0.0
C1606 C 0.13016 0.82266 0.91782 0.0
C1607 C 0.27574 0.90054 0.90714 0.0
C1608 C 0.23015 0.78434 0.95248 0.0
C1609 C 0.25462 0.73986 0.9482 0.0
C1610 C 0.21495 0.82477 0.94097 0.0
C1611 C 0.22421 0.82099 0.9247 0.0
C1612 C 0.24979 0.77652 0.92031 0.0
C1613 C 0.26455 0.73678 0.93203 0.0
C1614 C 0.18772 0.87118 0.94629 0.0
C1615 C 0.26045 0.77034 0.9032 0.0
H1616 H 0.10547 0.89575 0.89433 0.0
H1617 H 0.22759 0.96216 0.88496 0.0
H1618 H 0.14956 0.78616 0.91572 0.0
H1619 H 0.12516 0.82214 0.93075 0.0
H1620 H 0.09506 0.82866 0.91415 0.0
H1621 H 0.28955 0.93303 0.90002 0.0
H1622 H 0.27399 0.90105 0.91988 0.0
H1623 H 0.30094 0.86729 0.90447 0.0
H1624 H 0.22237 0.78751 0.96488 0.0
H1625 H 0.28341 0.70287 0.92845 0.0
H1626 H 0.15102 0.87735 0.94399 0.0
H1627 H 0.20327 0.90286 0.93943 0.0
H1628 H 0.18695 0.87001 0.95911 0.0
H1629 H 0.2272 0.77228 0.89877 0.0
H1630 H 0.28368 0.73499 0.90155 0.0
H1631 H 0.27757 0.80032 0.8958 0.0
C1632 C 0.36615 0.87705 0.67304 0.0
C1633 C 0.40921 0.8936 0.66847 0.0
C1634 C 0.3383 0.87575 0.66181 0.0
C1635 C 0.35362 0.89106 0.64546 0.0
C1636 C 0.39636 0.90908 0.64078 0.0
C1637 C 0.42354 0.91008 0.65227 0.0
C1638 C 0.29345 0.85583 0.66747 0.0
C1639 C 0.4141 0.92609 0.62353 0.0
C1640 C 0.31981 0.83116 0.61545 0.0
C1641 C 0.28423 0.86679 0.60902 0.0
C1642 C 0.34152 0.83834 0.62747 0.0
C1643 C 0.32818 0.88279 0.63321 0.0
C1644 C 0.29137 0.91869 0.62708 0.0
C1645 C 0.26952 0.91012 0.61512 0.0
C1646 C 0.37925 0.79822 0.6339 0.0
C1647 C 0.27551 0.96626 0.63303 0.0
H1648 H 0.35467 0.86358 0.68543 0.0
H1649 H 0.45616 0.92383 0.64854 0.0
H1650 H 0.26545 0.87732 0.6607 0.0
H1651 H 0.29956 0.81775 0.66547 0.0
H1652 H 0.28091 0.85597 0.68029 0.0
H1653 H 0.44556 0.94314 0.62187 0.0
H1654 H 0.42343 0.89465 0.61725 0.0
H1655 H 0.38611 0.9528 0.61789 0.0
H1656 H 0.33097 0.7971 0.61107 0.0
H1657 H 0.2418 0.93762 0.61034 0.0
H1658 H 0.37007 0.78798 0.64693 0.0
H1659 H 0.41316 0.81128 0.6315 0.0
H1660 H 0.38432 0.76506 0.62861 0.0
H1661 H 0.26306 0.95926 0.64598 0.0
H1662 H 0.24673 -0.00949 0.62708 0.0
H1663 H 0.30557 -0.01448 0.63106 0.0
C1664 C 0.23641 0.14882 1.00868 0.0
C1665 C 0.26486 0.116 1.0188 0.0
C1666 C 0.23078 0.13751 0.99448 0.0
C1667 C 0.25471 0.09248 0.99019 0.0
C1668 C 0.28473 0.05975 1.00009 0.0
C1669 C 0.28936 0.07187 1.01435 0.0
C1670 C 0.19859 0.17353 0.98417 0.0
C1671 C 0.31118 0.01172 0.99576 0.0
C1672 C 0.19556 0.05833 0.96072 0.0
C1673 C 0.21988 0.07968 0.94647 0.0
C1674 C 0.20899 0.05853 0.97521 0.0
C1675 C 0.24766 0.08038 0.9753 0.0
C1676 C 0.27487 0.09782 0.96086 0.0
C1677 C 0.2605 0.0974 0.94658 0.0
C1678 C 0.17927 0.03939 0.9904 0.0
C1679 C 0.31667 0.12081 0.96046 0.0
H1680 H 0.21812 0.18333 1.01194 0.0
H1681 H 0.31108 0.04614 1.02221 0.0
H1682 H 0.21839 0.18447 0.97225 0.0
H1683 H 0.16992 0.15631 0.98261 0.0
H1684 H 0.18257 0.20688 0.98926 0.0
H1685 H 0.33423 -0.00895 1.00453 0.0
H1686 H 0.28597 -0.01103 0.99496 0.0
H1687 H 0.33313 0.01794 0.98394 0.0
H1688 H 0.16418 0.04459 0.96059 0.0
H1689 H 0.27971 0.11317 0.93549 0.0
H1690 H 0.15765 0.07052 0.99573 0.0
H1691 H 0.20173 0.0171 0.9991 0.0
H1692 H 0.15531 0.01699 0.98838 0.0
H1693 H 0.3042 0.15743 0.96371 0.0
H1694 H 0.3384 0.12503 0.94854 0.0
H1695 H 0.33916 0.09876 0.96919 0.0
C1696 C 0.67305 0.46169 0.18663 0.0
C1697 C 0.66039 0.41702 0.18676 0.0
C1698 C 0.67841 0.47436 0.20067 0.0
C1699 C 0.67008 0.4419 0.21512 0.0
C1700 C 0.66009 0.3956 0.21521 0.0
C1701 C 0.6557 0.38358 0.20097 0.0
C1702 C 0.69008 0.52362 0.20014 0.0
C1703 C 0.65106 0.35997 0.23044 0.0
C1704 C 0.69747 0.45546 0.25416 0.0
C1705 C 0.65287 0.47575 0.26132 0.0
C1706 C 0.70457 0.447 0.23862 0.0
C1707 C 0.66585 0.45827 0.23032 0.0
C1708 C 0.62133 0.48109 0.23723 0.0
C1709 C 0.61548 0.48987 0.25266 0.0
C1710 C 0.75273 0.42371 0.23141 0.0
C1711 C 0.5791 0.49326 0.22876 0.0
H1712 H 0.67665 0.48776 0.17567 0.0
H1713 H 0.64713 0.34853 0.20103 0.0
H1714 H 0.65811 0.54812 0.20477 0.0
H1715 H 0.71698 0.52048 0.20775 0.0
H1716 H 0.7032 0.54082 0.1879 0.0
H1717 H 0.64739 0.32412 0.22831 0.0
H1718 H 0.68006 0.35414 0.23741 0.0
H1719 H 0.61824 0.37515 0.23777 0.0
H1720 H 0.72641 0.44495 0.2609 0.0
H1721 H 0.58092 0.50513 0.25829 0.0
H1722 H 0.76211 0.44252 0.21907 0.0
H1723 H 0.7527 0.38522 0.23097 0.0
H1724 H 0.78029 0.42434 0.23836 0.0
H1725 H 0.58721 0.51525 0.21682 0.0
H1726 H 0.54782 0.51376 0.23539 0.0
H1727 H 0.57005 0.45912 0.22713 0.0
C1728 C 0.32501 0.83775 0.46989 0.0
C1729 C 0.29651 0.86646 0.48054 0.0
C1730 C 0.3337 0.85644 0.45361 0.0
C1731 C 0.31293 0.90488 0.44776 0.0
C1732 C 0.28378 0.93395 0.45838 0.0
C1733 C 0.2761 0.91449 0.47463 0.0
C1734 C 0.36502 0.82428 0.44266 0.0
C1735 C 0.26065 -0.01436 0.45258 0.0
C1736 C 0.36366 0.96847 0.40713 0.0
C1737 C 0.33329 0.96201 0.39757 0.0
C1738 C 0.35774 0.94977 0.42349 0.0
C1739 C 0.32028 0.92453 0.43044 0.0
C1740 C 0.28952 0.91802 0.42085 0.0
C1741 C 0.29652 0.9366 0.40456 0.0
C1742 C 0.39155 0.957 0.43332 0.0
C1743 C 0.24888 0.89176 0.42781 0.0
H1744 H 0.34044 0.80041 0.47427 0.0
H1745 H 0.25472 0.93731 0.48276 0.0
H1746 H 0.34482 0.81872 0.43396 0.0
H1747 H 0.39442 0.84222 0.43587 0.0
H1748 H 0.3799 0.78807 0.44916 0.0
H1749 H 0.239 0.00347 0.46237 0.0
H1750 H 0.28777 0.00762 0.44643 0.0
H1751 H 0.2378 -0.01399 0.44386 0.0
H1752 H 0.39218 -0.01202 0.40185 0.0
H1753 H 0.27262 0.93164 0.39732 0.0
H1754 H 0.40869 0.92116 0.43936 0.0
H1755 H 0.37217 -0.02215 0.44267 0.0
H1756 H 0.41927 -0.02323 0.42609 0.0
H1757 H 0.26208 0.85408 0.43363 0.0
H1758 H 0.22803 0.88995 0.41873 0.0
H1759 H 0.2252 0.91051 0.43704 0.0
C1760 C 0.92632 0.52355 0.71968 0.0
C1761 C 0.88851 0.50707 0.71615 0.0
C1762 C 0.9263 0.53354 0.73486 0.0
C1763 C 0.88751 0.5272 0.74707 0.0
C1764 C 0.84902 0.51111 0.74357 0.0
C1765 C 0.84996 0.50134 0.7283 0.0
C1766 C 0.96825 0.5504 0.73788 0.0
C1767 C 0.80693 0.50332 0.75609 0.0
C1768 C 0.90289 0.50171 0.79086 0.0
C1769 C 0.88258 0.54634 0.79578 0.0
C1770 C 0.90593 0.49549 0.77511 0.0
C1771 C 0.88806 0.53492 0.76367 0.0
C1772 C 0.86909 0.58081 0.76841 0.0
C1773 C 0.86641 0.58593 0.78437 0.0
C1774 C 0.92645 0.44583 0.77092 0.0
C1775 C 0.84954 0.62399 0.75677 0.0
H1776 H 0.95609 0.52911 0.71051 0.0
H1777 H 0.82067 0.48807 0.72601 0.0
H1778 H 0.95686 0.58553 0.7422 0.0
H1779 H 0.9849 0.52351 0.74729 0.0
H1780 H 0.99505 0.55513 0.72711 0.0
H1781 H 0.7789 0.49283 0.75141 0.0
H1782 H 0.81786 0.47422 0.76601 0.0
H1783 H 0.79204 0.53705 0.76104 0.0
H1784 H 0.91513 0.47081 0.79959 0.0
H1785 H 0.84952 0.6202 0.78809 0.0
H1786 H 0.95393 0.44878 0.7603 0.0
H1787 H 0.89852 0.43034 0.76798 0.0
H1788 H 0.94208 0.41999 0.78077 0.0
H1789 H 0.87572 0.62976 0.7459 0.0
H1790 H 0.83949 0.65796 0.76182 0.0
H1791 H 0.81802 0.61675 0.75319 0.0
C1792 C 0.78457 0.90149 0.11352 0.0
C1793 C 0.82082 0.86273 0.11772 0.0
C1794 C 0.76799 0.90766 0.0991 0.0
C1795 C 0.78781 0.87389 0.08885 0.0
C1796 C 0.82593 0.8362 0.0927 0.0
C1797 C 0.84222 0.83139 0.10702 0.0
C1798 C 0.72795 0.94887 0.09521 0.0
C1799 C 0.84818 0.79951 0.08203 0.0
C1800 C 0.72034 0.84031 0.0616 0.0
C1801 C 0.74318 0.85983 0.04681 0.0
C1802 C 0.73229 0.84747 0.07555 0.0
C1803 C 0.76737 0.87537 0.07455 0.0
C1804 C 0.78755 0.89856 0.05961 0.0
C1805 C 0.77553 0.89007 0.04587 0.0
C1806 C 0.71014 0.82198 0.09128 0.0
C1807 C 0.8241 0.92961 0.05811 0.0
H1808 H 0.76775 0.92573 0.12178 0.0
H1809 H 0.87095 0.80209 0.11008 0.0
H1810 H 0.73507 0.96753 0.08273 0.0
H1811 H 0.69531 0.93408 0.09659 0.0
H1812 H 0.72163 -0.02383 0.10308 0.0
H1813 H 0.87842 0.7733 0.08656 0.0
H1814 H 0.82168 0.77868 0.08093 0.0
H1815 H 0.86058 0.81843 0.06998 0.0
H1816 H 0.69529 0.81696 0.06226 0.0
H1817 H 0.79258 0.90574 1.03435 0.0
H1818 H 0.69775 0.84759 0.09974 0.0
H1819 H 0.73681 0.79211 0.09643 0.0
H1820 H 0.68002 0.80616 0.09011 0.0
H1821 H 0.81338 0.9546 0.0668 0.0
H1822 H 0.83023 0.95152 0.04602 0.0
H1823 H 0.85784 0.90584 0.06068 0.0
C1824 C 0.30509 0.52285 0.88211 0.0
C1825 C 0.34982 0.51104 0.88661 0.0
C1826 C 0.2988 0.51634 0.86729 0.0
C1827 C 0.33821 0.49737 0.85688 0.0
C1828 C 0.38308 0.48342 0.86168 0.0
C1829 C 0.38834 0.49057 0.8765 0.0
C1830 C 0.25048 0.53179 0.86252 0.0
C1831 C 0.42586 0.4626 0.85094 0.0
C1832 C 0.32705 0.45045 0.82075 0.0
C1833 C 0.33731 0.48934 0.80864 0.0
C1834 C 0.32526 0.45318 0.83667 0.0
C1835 C 0.33378 0.49585 0.84046 0.0
C1836 C 0.34217 0.53596 0.82835 0.0
C1837 C 0.34406 0.53212 0.81257 0.0
C1838 C 0.31616 0.40979 0.84934 0.0
C1839 C 0.35136 0.58212 0.83197 0.0
H1840 H 0.27534 0.53879 0.88992 0.0
H1841 H 0.42278 0.48061 0.88014 0.0
H1842 H 0.25 0.56458 0.85305 0.0
H1843 H 0.24168 0.50271 0.85764 0.0
H1844 H 0.2228 0.54054 0.87262 0.0
H1845 H 0.45741 0.45026 0.85693 0.0
H1846 H 0.41901 0.43129 0.84669 0.0
H1847 H 0.43377 0.49063 0.84037 0.0
H1848 H 0.32117 0.41758 0.81777 0.0
H1849 H 0.3527 0.56203 0.80327 0.0
H1850 H 0.28787 0.42124 0.8589 0.0
H1851 H 0.34832 0.39366 0.85479 0.0
H1852 H 0.30602 0.38117 0.84458 0.0
H1853 H 0.32328 0.59583 0.84123 0.0
H1854 H 0.3533 0.61136 0.82134 0.0
H1855 H 0.38509 0.57435 0.83665 0.0
C1856 C 0.68241 0.02451 0.66127 0.0
C1857 C 0.65095 -0.00646 0.66927 0.0
C1858 C 0.68539 0.04201 0.64488 0.0
C1859 C 0.65623 0.02835 0.63614 0.0
C1860 C 0.62412 -0.00261 0.64414 0.0
C1861 C 0.62188 -0.01963 0.66057 0.0
C1862 C 0.72007 0.07494 0.63687 0.0
C1863 C 0.5924 -0.01813 0.63532 0.0
C1864 C 0.6377 0.1082 0.59605 0.0
C1865 C 0.67044 0.08227 0.58547 0.0
C1866 C 0.63221 0.09079 0.6125 0.0
C1867 C 0.65989 0.04612 0.61862 0.0
C1868 C 0.69238 0.01931 0.60802 0.0
C1869 C 0.69738 0.03772 0.59164 0.0
C1870 C 0.59717 0.12059 0.62336 0.0
C1871 C 0.72261 0.97153 0.614 0.0
H1872 H 0.70508 0.035 0.6678 0.0
H1873 H 0.59747 0.95645 0.66658 0.0
H1874 H 0.74562 0.05787 0.62764 0.0
H1875 H 0.70142 0.11 0.63086 0.0
H1876 H 0.73982 0.0827 0.64535 0.0
H1877 H 0.5687 0.95849 0.64329 0.0
H1878 H 0.57062 0.0144 0.62912 0.0
H1879 H 0.61391 0.96143 0.62614 0.0
H1880 H 0.6161 0.14221 0.59148 0.0
H1881 H 0.72331 0.01761 0.58368 0.0
H1882 H 0.61564 0.13167 0.63152 0.0
H1883 H 0.57169 0.09833 0.63076 0.0
H1884 H 0.57743 0.15388 0.61675 0.0
H1885 H 0.74607 -0.02236 0.62158 0.0
H1886 H 0.74462 0.95398 0.60421 0.0
H1887 H 0.70023 0.94598 0.62143 0.0
C1888 C 0.11016 0.39544 0.3522 0.0
C1889 C 0.10501 0.44376 0.35454 0.0
C1890 C 0.11097 0.38441 0.33711 0.0
C1891 C 0.10699 0.42232 0.32372 0.0
C1892 C 0.10136 0.47113 0.32597 0.0
C1893 C 0.10017 0.48118 0.34121 0.0
C1894 C 0.11718 0.33182 0.33546 0.0
C1895 C 0.09756 0.51296 0.31215 0.0
C1896 C 0.16388 0.39656 0.28238 0.0
C1897 C 0.12527 0.39733 0.27497 0.0
C1898 C 0.15836 0.40349 0.29814 0.0
C1899 C 0.11293 0.41093 0.3072 0.0
C1900 C 0.07378 0.40938 0.30013 0.0
C1901 C 0.08032 0.4028 0.28414 0.0
C1902 C 0.20136 0.40502 0.30486 0.0
C1903 C 0.02471 0.41653 0.3093 0.0
H1904 H 0.11462 0.36575 0.36212 0.0
H1905 H 0.09517 0.51875 0.34265 0.0
H1906 H 0.08926 0.32701 0.32939 0.0
H1907 H 0.1514 0.3211 0.32804 0.0
H1908 H 0.11615 0.30678 0.3471 0.0
H1909 H 0.09136 0.54895 0.31584 0.0
H1910 H 0.13042 0.50948 0.30346 0.0
H1911 H 0.06843 0.51194 0.30597 0.0
H1912 H 0.19896 0.39225 0.2756 0.0
H1913 H 0.05008 0.40412 0.27864 0.0
H1914 H 0.20329 0.37884 0.31617 0.0
H1915 H 0.19897 0.4419 0.30745 0.0
H1916 H 0.23446 0.39633 0.2966 0.0
H1917 H 0.02345 0.39172 0.32096 0.0
H1918 H -0.00145 0.40988 0.30282 0.0
H1919 H 0.01444 0.45438 0.31162 0.0
C1920 C 0.60628 0.6635 0.46229 0.0
C1921 C 0.61175 0.61768 0.4581 0.0
C1922 C 0.61297 0.66765 0.47729 0.0
C1923 C 0.62559 0.62493 0.48833 0.0
C1924 C 0.62827 0.57858 0.48456 0.0
C1925 C 0.62134 0.57549 0.46943 0.0
C1926 C 0.60998 0.71775 0.48087 0.0
C1927 C 0.64144 0.53225 0.4961 0.0
C1928 C 0.70481 0.63913 0.51543 0.0
C1929 C 0.67312 0.64518 0.52932 0.0
C1930 C 0.6899 0.63099 0.50217 0.0
C1931 C 0.64203 0.62904 0.50284 0.0
C1932 C 0.60997 0.634 0.51696 0.0
C1933 C 0.626 0.64189 0.53011 0.0
C1934 C 0.72526 0.62543 0.48736 0.0
C1935 C 0.55871 0.6321 0.51802 0.0
H1936 H 0.5995 0.69625 0.45353 0.0
H1937 H 0.62499 0.54003 0.46629 0.0
H1938 H 0.58858 0.72123 0.49262 0.0
H1939 H 0.64574 0.72335 0.48128 0.0
H1940 H 0.59443 0.74713 0.47179 0.0
H1941 H 0.63526 0.49978 0.4923 0.0
H1942 H 0.67924 0.52689 0.49706 0.0
H1943 H 0.62116 0.53469 0.50807 0.0
H1944 H 0.74151 0.64049 0.51495 0.0
H1945 H 0.60156 0.64643 0.5409 0.0
H1946 H 0.71548 0.65555 0.47756 0.0
H1947 H 0.72518 0.59079 0.4836 0.0
H1948 H 0.76153 0.62575 0.48906 0.0
H1949 H 0.54215 0.66355 0.50981 0.0
H1950 H 0.53912 0.63304 0.53018 0.0
H1951 H 0.55508 0.59852 0.5143 0.0
C1952 C 0.17784 0.94009 0.68659 0.0
C1953 C 0.13395 0.93551 0.68381 0.0
C1954 C 0.18356 0.94665 0.70147 0.0
C1955 C 0.14448 0.94818 0.71375 0.0
C1956 C 0.10006 0.94388 0.71091 0.0
C1957 C 0.09532 0.9378 0.69592 0.0
C1958 C 0.23128 0.9516 0.70407 0.0
C1959 C 0.05771 0.94463 0.72381 0.0
C1960 C 0.15508 0.9139 0.75708 0.0
C1961 C 0.14053 0.95934 0.76183 0.0
C1962 C 0.15958 0.90997 0.74118 0.0
C1963 C 0.14964 0.95261 0.72981 0.0
C1964 C 0.13831 -0.00111 0.73435 0.0
C1965 C 0.13368 0.00171 0.75038 0.0
C1966 C 0.17175 0.85997 0.73675 0.0
C1967 C 0.12797 0.04514 0.72248 0.0
H1968 H 0.20754 0.93877 0.6771 0.0
H1969 H 0.06157 0.93362 0.69377 0.0
H1970 H 0.22877 -0.01325 0.70792 0.0
H1971 H 0.24371 0.92217 0.71367 0.0
H1972 H 0.25793 0.94991 0.69322 0.0
H1973 H 0.02563 0.94131 0.71956 0.0
H1974 H 0.06483 0.91417 0.73379 0.0
H1975 H 0.05052 -0.02097 0.72851 0.0
H1976 H 0.16149 0.88118 0.76589 0.0
H1977 H 0.12235 0.03691 0.75401 0.0
H1978 H 0.19963 0.85901 0.72625 0.0
H1979 H 0.14029 0.85125 0.73357 0.0
H1980 H 0.18379 0.83117 0.7466 0.0
H1981 H 0.15491 0.04497 0.7117 0.0
H1982 H 0.12672 0.07815 0.72744 0.0
H1983 H 0.09348 0.04754 0.7188 0.0
C1984 C 0.84936 0.49219 0.90839 0.0
C1985 C 0.83089 0.47154 0.89833 0.0
C1986 C 0.8426 0.47579 0.92489 0.0
C1987 C 0.81713 0.43755 0.93149 0.0
C1988 C 0.79879 0.41634 0.92137 0.0
C1989 C 0.80571 0.43368 0.90497 0.0
C1990 C 0.86237 0.49967 0.93528 0.0
C1991 C 0.77182 0.37521 0.92787 0.0
C1992 C 0.83399 0.36307 0.97232 0.0
C1993 C 0.79321 0.38232 0.98193 0.0
C1994 C 0.84237 0.38091 0.95595 0.0
C1995 C 0.80954 0.41948 0.94896 0.0
C1996 C 0.76862 0.43955 0.95858 0.0
C1997 C 0.7608 0.42056 0.97489 0.0
C1998 C 0.88627 0.35822 0.94611 0.0
C1999 C 0.73282 0.48084 0.95161 0.0
H2000 H 0.86864 0.52161 0.9034 0.0
H2001 H 0.79142 0.41727 0.89734 0.0
H2002 H 0.83349 0.51584 0.94385 0.0
H2003 H 0.88675 0.47203 0.94224 0.0
H2004 H 0.88153 0.52876 0.92832 0.0
H2005 H 0.76029 0.36229 0.9184 0.0
H2006 H 0.79398 0.34405 0.93451 0.0
H2007 H 0.74033 0.38725 0.93631 0.0
H2008 H 0.85983 0.33427 0.9776 0.0
H2009 H 0.72887 0.43538 0.98208 0.0
H2010 H 0.90745 0.38641 0.93998 0.0
H2011 H 0.87661 0.34286 0.93683 0.0
H2012 H 0.90849 0.32871 0.95334 0.0
H2013 H 0.75006 0.51186 0.9452 0.0
H2014 H 0.70396 0.49392 0.96079 0.0
H2015 H 0.71732 0.46878 0.94288 0.0
C2016 C 0.41526 0.0533 0.2857 0.0
C2017 C 0.37096 0.05576 0.29528 0.0
C2018 C 0.42147 0.0463 0.26974 0.0
C2019 C 0.38257 0.04164 0.26309 0.0
C2020 C 0.33762 0.04621 0.27257 0.0
C2021 C 0.3325 0.05307 0.28835 0.0
C2022 C 0.47008 0.04177 0.2602 0.0
C2023 C 0.29485 0.04174 0.2663 0.0
C2024 C 0.38398 0.05612 0.21812 0.0
C2025 C 0.39087 0.00759 0.21577 0.0
C2026 C 0.38263 0.06763 0.23319 0.0
C2027 C 0.38845 0.02996 0.24656 0.0
C2028 C 0.39625 -0.01908 0.24429 0.0
C2029 C 0.39743 0.97043 0.22908 0.0
C2030 C 0.37378 0.12045 0.23485 0.0
C2031 C 0.40255 0.93924 0.25805 0.0
H2032 H 0.44545 0.05424 0.29089 0.0
H2033 H 0.29804 0.05462 0.29555 0.0
H2034 H 0.48213 0.00402 0.25787 0.0
H2035 H 0.46959 0.06647 0.24855 0.0
H2036 H 0.49589 0.05037 0.2664 0.0
H2037 H 0.26192 0.04916 0.27475 0.0
H2038 H 0.29131 0.06742 0.25495 0.0
H2039 H 0.29889 0.00438 0.26388 0.0
H2040 H 0.37852 0.08561 0.20821 0.0
H2041 H 0.40387 0.93273 0.22766 0.0
H2042 H 0.40163 0.12726 0.24054 0.0
H2043 H 0.3398 0.12927 0.24264 0.0
H2044 H 0.37265 0.14554 0.22326 0.0
H2045 H 0.43131 0.94234 0.26406 0.0
H2046 H 0.41074 0.90315 0.25432 0.0
H2047 H 0.36998 0.94084 0.2669 0.0
C2048 C 0.34986 0.33762 0.60439 0.0
C2049 C 0.32919 0.36809 0.61541 0.0
C2050 C 0.33215 0.34306 0.5903 0.0
C2051 C 0.29346 0.38066 0.58699 0.0
C2052 C 0.27486 0.41408 0.59743 0.0
C2053 C 0.29274 0.40716 0.61164 0.0
C2054 C 0.35312 0.30669 0.57942 0.0
C2055 C 0.23444 0.45539 0.59407 0.0
C2056 C 0.27478 0.39472 0.54474 0.0
C2057 C 0.2424 0.36388 0.54654 0.0
C2058 C 0.28869 0.40438 0.55799 0.0
C2059 C 0.27052 0.38164 0.57327 0.0
C2060 C 0.23527 0.35328 0.57515 0.0
C2061 C 0.22132 0.34504 0.5617 0.0
C2062 C 0.32517 0.4361 0.55557 0.0
C2063 C 0.21518 0.32828 0.59128 0.0
H2064 H 0.37882 0.30816 0.6071 0.0
H2065 H 0.27654 0.43083 0.62013 0.0
H2066 H 0.32638 0.28541 0.57885 0.0
H2067 H 0.36375 0.32586 0.56724 0.0
H2068 H 0.38429 0.28085 0.58344 0.0
H2069 H 0.23059 0.4834 0.60152 0.0
H2070 H 0.23917 0.47308 0.58142 0.0
H2071 H 0.20129 0.44089 0.59659 0.0
H2072 H 0.29041 0.40988 0.53294 0.0
H2073 H 0.19622 0.32126 0.56301 0.0
H2074 H 0.35967 0.41282 0.55748 0.0
H2075 H 0.31591 0.46112 0.56425 0.0
H2076 H 0.32911 0.458 0.54342 0.0
H2077 H 0.24277 0.29899 0.59617 0.0
H2078 H 0.18478 0.3118 0.59081 0.0
H2079 H 0.20376 0.35442 0.59959 0.0
C2080 C 0.87934 -0.00378 0.3795 0.0
C2081 C 0.86752 0.0434 0.38302 0.0
C2082 C 0.87486 -0.01225 0.36476 0.0
C2083 C 0.85768 0.02739 0.35336 0.0
C2084 C 0.84324 0.07467 0.35713 0.0
C2085 C 0.84852 0.08217 0.37194 0.0
C2086 C 0.89064 0.93684 0.36113 0.0
C2087 C 0.82444 0.1177 0.34526 0.0
C2088 C 0.90281 0.01935 0.31042 0.0
C2089 C 0.8647 0.0072 0.30576 0.0
C2090 C 0.90084 0.02596 0.32591 0.0
C2091 C 0.85967 0.02029 0.33698 0.0
C2092 C 0.82116 0.00754 0.33242 0.0
C2093 C 0.8242 0.00095 0.31681 0.0
C2094 C 0.94283 0.03905 0.33041 0.0
C2095 C 0.77673 0.0014 0.34398 0.0
H2096 H 0.89289 0.96594 0.38821 0.0
H2097 H 0.83943 0.11871 0.3746 0.0
H2098 H 0.86294 0.92625 0.35634 0.0
H2099 H 0.92235 0.93577 0.35191 0.0
H2100 H 0.89923 0.90941 0.37174 0.0
H2101 H 0.80987 0.15076 0.35063 0.0
H2102 H 0.85312 0.12612 0.33542 0.0
H2103 H 0.79655 0.10898 0.34005 0.0
H2104 H 0.93441 0.02344 0.30193 0.0
H2105 H 0.79462 -0.00812 0.31314 0.0
H2106 H 0.9558 0.01112 0.34029 0.0
H2107 H 0.93248 0.07438 0.33462 0.0
H2108 H 0.97218 0.04191 0.32035 0.0
H2109 H 0.78492 0.97308 0.3544 0.0
H2110 H 0.75017 -0.00906 0.33857 0.0
H2111 H 0.76109 0.03592 0.34838 0.0
C2112 C 0.15613 0.45837 0.16148 0.0
C2113 C 0.16651 0.48286 0.17229 0.0
C2114 C 0.16269 0.47691 0.14511 0.0
C2115 C 0.17953 0.52127 0.13942 0.0
C2116 C 0.18959 0.54636 0.1503 0.0
C2117 C 0.1832 0.52676 0.16656 0.0
C2118 C 0.15195 0.44879 0.1339 0.0
C2119 C 0.20712 0.59399 0.14477 0.0
C2120 C 0.23765 0.54966 0.09645 0.0
C2121 C 0.20103 0.58128 0.08928 0.0
C2122 C 0.231 0.52949 0.11268 0.0
C2123 C 0.18679 0.54153 0.12209 0.0
C2124 C 0.14977 0.57365 0.11499 0.0
C2125 C 0.15725 0.5929 0.0987 0.0
C2126 C 0.27137 0.49532 0.11978 0.0
C2127 C 0.10217 0.58765 0.1246 0.0
H2128 H 0.14344 0.42432 0.16578 0.0
H2129 H 0.19108 0.54613 0.17481 0.0
H2130 H 0.12467 0.47174 0.12702 0.0
H2131 H 0.1839 0.43922 0.12529 0.0
H2132 H 0.13941 0.41474 0.14019 0.0
H2133 H 0.21274 0.60929 0.15475 0.0
H2134 H 0.24077 0.58866 0.13654 0.0
H2135 H 0.18151 0.6211 0.13815 0.0
H2136 H 0.2718 0.54088 0.08939 0.0
H2137 H 0.1284 0.61651 0.0933 0.0
H2138 H 0.26084 0.4599 0.1255 0.0
H2139 H 0.28066 0.51074 0.12911 0.0
H2140 H 0.30315 0.48858 0.11079 0.0
H2141 H 0.08689 0.5546 0.13003 0.0
H2142 H 0.07718 0.61339 0.11735 0.0
H2143 H 0.10586 0.60483 0.13441 0.0
C2144 C 0.60383 0.90625 0.84918 0.0
C2145 C 0.61066 0.95137 0.85162 0.0
C2146 C 0.60676 0.89613 0.83384 0.0
C2147 C 0.6152 0.93227 0.82026 0.0
C2148 C 0.62105 -0.0218 0.82252 0.0
C2149 C 0.61947 -0.01315 0.83798 0.0
C2150 C 0.60129 0.84625 0.83217 0.0
C2151 C 0.62934 0.01841 0.80853 0.0
C2152 C 0.66844 0.89863 0.77943 0.0
C2153 C 0.62897 0.9067 0.7718 0.0
C2154 C 0.66423 0.90493 0.79526 0.0
C2155 C 0.61949 0.9216 0.80372 0.0
C2156 C 0.57934 0.9293 0.79612 0.0
C2157 C 0.58448 0.92123 0.78038 0.0
C2158 C 0.70805 0.89491 0.80279 0.0
C2159 C 0.5311 0.94845 0.80433 0.0
H2160 H 0.59576 0.87839 0.85927 0.0
H2161 H 0.62588 0.02157 0.83924 0.0
H2162 H 0.57084 0.84941 0.82608 0.0
H2163 H 0.63297 0.82933 0.82474 0.0
H2164 H 0.59607 0.82155 0.84379 0.0
H2165 H 0.62968 0.0532 0.8122 0.0
H2166 H 0.66348 0.00749 0.8011 0.0
H2167 H 0.60158 0.02485 0.80099 0.0
H2168 H 0.70305 0.88816 0.77285 0.0
H2169 H 0.55391 0.92906 0.77448 0.0
H2170 H 0.70329 0.8703 0.81443 0.0
H2171 H 0.71477 0.92944 0.80497 0.0
H2172 H 0.73951 0.87804 0.79524 0.0
H2173 H 0.52318 0.92504 0.81601 0.0
H2174 H 0.50315 0.95035 0.79723 0.0
H2175 H 0.53009 -0.01447 0.80652 0.0
loop_
_geom_bond_atom_site_label_1
_geom_bond_atom_site_label_2
_geom_bond_distance
_geom_bond_site_symmetry_2
_ccdc_geom_bond_type
Nd0 C2 2.836 . S
Nd0 O20 2.500 . S
Nd0 O21 2.492 . S
Nd0 O22 2.487 . S
Nd0 O23 2.682 . S
Nd0 O24 2.410 . S
Nd0 O29 2.414 . S
Nd0 O31 2.424 . S
Nd1 C11 2.836 . S
Nd1 O23 2.414 . S
Nd1 O25 2.424 . S
Nd1 O26 2.500 . S
Nd1 O27 2.492 . S
Nd1 O28 2.487 . S
Nd1 O29 2.682 . S
Nd1 O30 2.410 . S
C2 Nd0 2.836 . S
C2 C3 1.498 . S
C2 O20 1.258 . S
C2 O21 1.239 . S
C3 C2 1.498 . S
C3 C4 1.366 . S
C3 C8 1.407 . S
C4 C3 1.366 . S
C4 C5 1.392 . S
C4 H32 0.930 . S
C5 C4 1.392 . S
C5 C6 1.398 . S
C5 H33 0.929 . S
C6 C5 1.398 . S
C6 C7 1.352 . S
C7 C6 1.352 . S
C7 C8 1.384 . S
C7 H34 0.930 . S
C8 C3 1.407 . S
C8 C7 1.384 . S
C8 H35 0.929 . S
C9 O22 1.241 . S
C9 O23 1.273 . S
C10 O24 1.251 . S
C10 O25 1.268 . S
C11 Nd1 2.836 . S
C11 C12 1.498 . S
C11 O26 1.258 . S
C11 O27 1.239 . S
C12 C11 1.498 . S
C12 C13 1.366 . S
C12 C17 1.407 . S
C13 C12 1.366 . S
C13 C14 1.415 . S
C13 H36 0.930 . S
C14 C13 1.415 . S
C14 C15 1.388 1_554 S
C14 H37 0.918 1_554 S
C15 C14 1.388 1_556 S
C15 C16 1.352 1_556 S
C16 C15 1.352 1_554 S
C16 C17 1.384 . S
C16 H38 0.930 . S
C17 C12 1.407 . S
C17 C16 1.384 . S
C17 H39 0.929 . S
C18 O28 1.241 . S
C18 O29 1.273 . S
C19 O30 1.251 . S
C19 O31 1.268 . S
O20 Nd0 2.500 . S
O20 C2 1.258 . S
O21 Nd0 2.492 . S
O21 C2 1.239 . S
O22 Nd0 2.487 . S
O22 C9 1.241 . S
O23 Nd0 2.682 . S
O23 Nd1 2.414 . S
O23 C9 1.273 . S
O24 Nd0 2.410 . S
O24 C10 1.251 . S
O25 Nd1 2.424 . S
O25 C10 1.268 . S
O26 Nd1 2.500 . S
O26 C11 1.258 . S
O27 Nd1 2.492 . S
O27 C11 1.239 . S
O28 Nd1 2.487 . S
O28 C18 1.241 . S
O29 Nd0 2.414 . S
O29 Nd1 2.682 . S
O29 C18 1.273 . S
O30 Nd1 2.410 . S
O30 C19 1.251 . S
O31 Nd0 2.424 . S
O31 C19 1.268 . S
H32 C4 0.930 . S
H33 C5 0.929 . S
H34 C7 0.930 . S
H35 C8 0.929 . S
H36 C13 0.930 . S
H37 C14 0.918 1_556 S
H38 C16 0.930 . S
H39 C17 0.929 . S
Nd40 C42 2.836 . S
Nd40 O60 2.500 . S
Nd40 O61 2.492 . S
Nd40 O62 2.487 . S
Nd40 O63 2.682 . S
Nd40 O64 2.410 . S
Nd40 O69 2.414 . S
Nd40 O71 2.424 . S
Nd41 C51 2.836 . S
Nd41 O63 2.414 . S
Nd41 O65 2.424 . S
Nd41 O66 2.500 . S
Nd41 O67 2.492 . S
Nd41 O68 2.487 . S
Nd41 O69 2.682 . S
Nd41 O70 2.410 . S
C42 Nd40 2.836 . S
C42 C43 1.498 . S
C42 O60 1.258 . S
C42 O61 1.239 . S
C43 C42 1.498 . S
C43 C44 1.366 . S
C43 C48 1.407 . S
C44 C43 1.366 . S
C44 C45 1.392 . S
C44 H72 0.930 . S
C45 C44 1.392 . S
C45 C46 1.398 . S
C45 H73 0.929 . S
C46 C45 1.398 . S
C46 C47 1.352 . S
C47 C46 1.352 . S
C47 C48 1.384 . S
C47 H74 0.930 . S
C48 C43 1.407 . S
C48 C47 1.384 . S
C48 H75 0.929 . S
C49 O62 1.241 . S
C49 O63 1.273 . S
C50 O64 1.251 . S
C50 O65 1.268 . S
C51 Nd41 2.836 . S
C51 C52 1.498 . S
C51 O66 1.258 . S
C51 O67 1.239 . S
C52 C51 1.498 . S
C52 C53 1.366 . S
C52 C57 1.407 . S
C53 C52 1.366 . S
C53 C54 1.392 . S
C53 H76 0.930 . S
C54 C53 1.392 . S
C54 C55 1.398 . S
C54 H77 0.929 . S
C55 C54 1.398 . S
C55 C56 1.352 . S
C56 C55 1.352 . S
C56 C57 1.384 . S
C56 H78 0.930 . S
C57 C52 1.407 . S
C57 C56 1.384 . S
C57 H79 0.929 . S
C58 O68 1.241 . S
C58 O69 1.273 . S
C59 O70 1.251 . S
C59 O71 1.268 . S
O60 Nd40 2.500 . S
O60 C42 1.258 . S
O61 Nd40 2.492 . S
O61 C42 1.239 . S
O62 Nd40 2.487 . S
O62 C49 1.241 . S
O63 Nd40 2.682 . S
O63 Nd41 2.414 . S
O63 C49 1.273 . S
O64 Nd40 2.410 . S
O64 C50 1.251 . S
O65 Nd41 2.424 . S
O65 C50 1.268 . S
O66 Nd41 2.500 . S
O66 C51 1.258 . S
O67 Nd41 2.492 . S
O67 C51 1.239 . S
O68 Nd41 2.487 . S
O68 C58 1.241 . S
O69 Nd40 2.414 . S
O69 Nd41 2.682 . S
O69 C58 1.273 . S
O70 Nd41 2.410 . S
O70 C59 1.251 . S
O71 Nd40 2.424 . S
O71 C59 1.268 . S
H72 C44 0.930 . S
H73 C45 0.929 . S
H74 C47 0.930 . S
H75 C48 0.929 . S
H76 C53 0.930 . S
H77 C54 0.929 . S
H78 C56 0.930 . S
H79 C57 0.929 . S
Nd80 C82 2.836 . S
Nd80 O100 2.500 . S
Nd80 O101 2.492 . S
Nd80 O102 2.487 . S
Nd80 O103 2.682 . S
Nd80 O104 2.410 . S
Nd80 O109 2.414 . S
Nd80 O111 2.424 . S
Nd81 C91 2.836 . S
Nd81 O103 2.414 . S
Nd81 O105 2.424 . S
Nd81 O106 2.500 . S
Nd81 O107 2.492 . S
Nd81 O108 2.487 . S
Nd81 O109 2.682 . S
Nd81 O110 2.410 . S
C82 Nd80 2.836 . S
C82 C83 1.498 . S
C82 O100 1.258 . S
C82 O101 1.239 . S
C83 C82 1.498 . S
C83 C84 1.366 . S
C83 C88 1.407 . S
C84 C83 1.366 . S
C84 C85 1.392 . S
C84 H112 0.930 . S
C85 C84 1.392 . S
C85 C86 1.398 . S
C85 H113 0.929 . S
C86 C85 1.398 . S
C86 C87 1.352 . S
C87 C86 1.352 . S
C87 C88 1.384 . S
C87 H114 0.930 . S
C88 C83 1.407 . S
C88 C87 1.384 . S
C88 H115 0.929 . S
C89 O102 1.241 . S
C89 O103 1.273 . S
C90 O104 1.251 . S
C90 O105 1.268 . S
C91 Nd81 2.836 . S
C91 C92 1.498 . S
C91 O106 1.258 . S
C91 O107 1.239 . S
C92 C91 1.498 . S
C92 C93 1.366 . S
C92 C97 1.407 . S
C93 C92 1.366 . S
C93 C94 1.392 . S
C93 H116 0.930 . S
C94 C93 1.392 . S
C94 C95 1.398 . S
C94 H117 0.929 . S
C95 C94 1.398 . S
C95 C96 1.352 . S
C96 C95 1.352 . S
C96 C97 1.384 . S
C96 H118 0.930 . S
C97 C92 1.407 . S
C97 C96 1.384 . S
C97 H119 0.929 . S
C98 O108 1.241 . S
C98 O109 1.273 . S
C99 O110 1.251 . S
C99 O111 1.268 . S
O100 Nd80 2.500 . S
O100 C82 1.258 . S
O101 Nd80 2.492 . S
O101 C82 1.239 . S
O102 Nd80 2.487 . S
O102 C89 1.241 . S
O103 Nd80 2.682 . S
O103 Nd81 2.414 . S
O103 C89 1.273 . S
O104 Nd80 2.410 . S
O104 C90 1.251 . S
O105 Nd81 2.424 . S
O105 C90 1.268 . S
O106 Nd81 2.500 . S
O106 C91 1.258 . S
O107 Nd81 2.492 . S
O107 C91 1.239 . S
O108 Nd81 2.487 . S
O108 C98 1.241 . S
O109 Nd80 2.414 . S
O109 Nd81 2.682 . S
O109 C98 1.273 . S
O110 Nd81 2.410 . S
O110 C99 1.251 . S
O111 Nd80 2.424 . S
O111 C99 1.268 . S
H112 C84 0.930 . S
H113 C85 0.929 . S
H114 C87 0.930 . S
H115 C88 0.929 . S
H116 C93 0.930 . S
H117 C94 0.929 . S
H118 C96 0.930 . S
H119 C97 0.929 . S
Nd120 C122 2.836 . S
Nd120 O140 2.500 . S
Nd120 O141 2.492 . S
Nd120 O142 2.487 . S
Nd120 O143 2.682 . S
Nd120 O144 2.410 . S
Nd120 O149 2.414 . S
Nd120 O151 2.424 . S
Nd121 C131 2.836 1_655 S
Nd121 O143 2.414 . S
Nd121 O145 2.424 . S
Nd121 O146 2.500 . S
Nd121 O147 2.492 1_655 S
Nd121 O148 2.486 1_655 S
Nd121 O149 2.682 . S
Nd121 O150 2.410 . S
C122 Nd120 2.836 . S
C122 C123 1.498 . S
C122 O140 1.258 . S
C122 O141 1.239 . S
C123 C122 1.498 . S
C123 C124 1.366 . S
C123 C128 1.407 . S
C124 C123 1.366 . S
C124 C125 1.392 . S
C124 H152 0.930 . S
C125 C124 1.392 . S
C125 C126 1.398 . S
C125 H153 0.929 . S
C126 C125 1.398 . S
C126 C127 1.352 . S
C127 C126 1.352 . S
C127 C128 1.384 . S
C127 H154 0.930 . S
C128 C123 1.407 . S
C128 C127 1.384 . S
C128 H155 0.929 . S
C129 O142 1.241 . S
C129 O143 1.273 . S
C130 O144 1.251 . S
C130 O145 1.268 . S
C131 Nd121 2.836 1_455 S
C131 C132 1.498 . S
C131 O146 1.258 1_455 S
C131 O147 1.239 . S
C132 C131 1.498 . S
C132 C133 1.366 . S
C132 C137 1.407 . S
C133 C132 1.366 . S
C133 C134 1.392 . S
C133 H156 0.930 1_455 S
C134 C133 1.392 . S
C134 C135 1.398 . S
C134 H157 0.929 . S
C135 C134 1.398 . S
C135 C136 1.352 . S
C136 C135 1.352 . S
C136 C137 1.384 . S
C136 H158 0.930 . S
C137 C132 1.407 . S
C137 C136 1.384 . S
C137 H159 0.929 . S
C138 O148 1.237 1_655 S
C138 O149 1.273 . S
C139 O150 1.251 . S
C139 O151 1.268 . S
O140 Nd120 2.500 . S
O140 C122 1.258 . S
O141 Nd120 2.492 . S
O141 C122 1.239 . S
O142 Nd120 2.487 . S
O142 C129 1.241 . S
O143 Nd120 2.682 . S
O143 Nd121 2.414 . S
O143 C129 1.273 . S
O144 Nd120 2.410 . S
O144 C130 1.251 . S
O145 Nd121 2.424 . S
O145 C130 1.268 . S
O146 Nd121 2.500 . S
O146 C131 1.258 1_655 S
O147 Nd121 2.492 1_455 S
O147 C131 1.239 . S
O148 Nd121 2.486 1_455 S
O148 C138 1.237 1_455 S
O149 Nd120 2.414 . S
O149 Nd121 2.682 . S
O149 C138 1.273 . S
O150 Nd121 2.410 . S
O150 C139 1.251 . S
O151 Nd120 2.424 . S
O151 C139 1.268 . S
H152 C124 0.930 . S
H153 C125 0.929 . S
H154 C127 0.930 . S
H155 C128 0.929 . S
H156 C133 0.930 1_655 S
H157 C134 0.929 . S
H158 C136 0.930 . S
H159 C137 0.929 . S
Nd160 C162 2.836 . S
Nd160 O180 2.500 . S
Nd160 O181 2.492 . S
Nd160 O182 2.487 . S
Nd160 O183 2.682 . S
Nd160 O184 2.410 . S
Nd160 O189 2.414 . S
Nd160 O191 2.424 . S
Nd161 C171 2.836 . S
Nd161 O183 2.414 . S
Nd161 O185 2.424 . S
Nd161 O186 2.500 . S
Nd161 O187 2.492 . S
Nd161 O188 2.487 . S
Nd161 O189 2.682 . S
Nd161 O190 2.410 . S
C162 Nd160 2.836 . S
C162 C163 1.498 . S
C162 O180 1.258 . S
C162 O181 1.239 . S
C163 C162 1.498 . S
C163 C164 1.366 . S
C163 C168 1.407 . S
C164 C163 1.366 . S
C164 C165 1.414 . S
C164 H192 0.930 . S
C165 C164 1.414 . S
C165 C166 1.388 1_556 S
C165 H193 0.919 1_556 S
C166 C165 1.388 1_554 S
C166 C167 1.352 1_554 S
C167 C166 1.352 1_556 S
C167 C168 1.384 . S
C167 H194 0.930 . S
C168 C163 1.407 . S
C168 C167 1.384 . S
C168 H195 0.929 . S
C169 O182 1.241 . S
C169 O183 1.273 . S
C170 O184 1.251 . S
C170 O185 1.268 . S
C171 Nd161 2.836 . S
C171 C172 1.498 . S
C171 O186 1.258 . S
C171 O187 1.239 . S
C172 C171 1.498 . S
C172 C173 1.366 . S
C172 C177 1.407 . S
C173 C172 1.366 . S
C173 C174 1.392 . S
C173 H196 0.930 . S
C174 C173 1.392 . S
C174 C175 1.398 . S
C174 H197 0.929 . S
C175 C174 1.398 . S
C175 C176 1.352 . S
C176 C175 1.352 . S
C176 C177 1.384 . S
C176 H198 0.930 . S
C177 C172 1.407 . S
C177 C176 1.384 . S
C177 H199 0.929 . S
C178 O188 1.241 . S
C178 O189 1.273 . S
C179 O190 1.251 . S
C179 O191 1.268 . S
O180 Nd160 2.500 . S
O180 C162 1.258 . S
O181 Nd160 2.492 . S
O181 C162 1.239 . S
O182 Nd160 2.487 . S
O182 C169 1.241 . S
O183 Nd160 2.682 . S
O183 Nd161 2.414 . S
O183 C169 1.273 . S
O184 Nd160 2.410 . S
O184 C170 1.251 . S
O185 Nd161 2.424 . S
O185 C170 1.268 . S
O186 Nd161 2.500 . S
O186 C171 1.258 . S
O187 Nd161 2.492 . S
O187 C171 1.239 . S
O188 Nd161 2.487 . S
O188 C178 1.241 . S
O189 Nd160 2.414 . S
O189 Nd161 2.682 . S
O189 C178 1.273 . S
O190 Nd161 2.410 . S
O190 C179 1.251 . S
O191 Nd160 2.424 . S
O191 C179 1.268 . S
H192 C164 0.930 . S
H193 C165 0.919 1_554 S
H194 C167 0.930 . S
H195 C168 0.929 . S
H196 C173 0.930 . S
H197 C174 0.929 . S
H198 C176 0.930 . S
H199 C177 0.929 . S
Nd200 C202 2.836 . S
Nd200 O220 2.500 . S
Nd200 O221 2.492 . S
Nd200 O222 2.487 . S
Nd200 O223 2.682 . S
Nd200 O224 2.410 . S
Nd200 O229 2.414 . S
Nd200 O231 2.424 . S
Nd201 C211 2.836 . S
Nd201 O223 2.414 . S
Nd201 O225 2.424 . S
Nd201 O226 2.500 . S
Nd201 O227 2.492 . S
Nd201 O228 2.487 . S
Nd201 O229 2.682 . S
Nd201 O230 2.410 . S
C202 Nd200 2.836 . S
C202 C203 1.498 . S
C202 O220 1.258 . S
C202 O221 1.239 . S
C203 C202 1.498 . S
C203 C204 1.366 . S
C203 C208 1.407 . S
C204 C203 1.366 . S
C204 C205 1.392 . S
C204 H232 0.930 . S
C205 C204 1.392 . S
C205 C206 1.398 . S
C205 H233 0.929 . S
C206 C205 1.398 . S
C206 C207 1.352 . S
C207 C206 1.352 . S
C207 C208 1.384 . S
C207 H234 0.930 . S
C208 C203 1.407 . S
C208 C207 1.384 . S
C208 H235 0.929 . S
C209 O222 1.241 . S
C209 O223 1.273 . S
C210 O224 1.251 . S
C210 O225 1.268 . S
C211 Nd201 2.836 . S
C211 C212 1.498 . S
C211 O226 1.258 . S
C211 O227 1.239 . S
C212 C211 1.498 . S
C212 C213 1.366 . S
C212 C217 1.407 . S
C213 C212 1.366 . S
C213 C214 1.392 . S
C213 H236 0.930 . S
C214 C213 1.392 . S
C214 C215 1.398 . S
C214 H237 0.929 . S
C215 C214 1.398 . S
C215 C216 1.352 . S
C216 C215 1.352 . S
C216 C217 1.384 . S
C216 H238 0.930 . S
C217 C212 1.407 . S
C217 C216 1.384 . S
C217 H239 0.929 . S
C218 O228 1.241 . S
C218 O229 1.273 . S
C219 O230 1.251 . S
C219 O231 1.268 . S
O220 Nd200 2.500 . S
O220 C202 1.258 . S
O221 Nd200 2.492 . S
O221 C202 1.239 . S
O222 Nd200 2.487 . S
O222 C209 1.241 . S
O223 Nd200 2.682 . S
O223 Nd201 2.414 . S
O223 C209 1.273 . S
O224 Nd200 2.410 . S
O224 C210 1.251 . S
O225 Nd201 2.424 . S
O225 C210 1.268 . S
O226 Nd201 2.500 . S
O226 C211 1.258 . S
O227 Nd201 2.492 . S
O227 C211 1.239 . S
O228 Nd201 2.487 . S
O228 C218 1.241 . S
O229 Nd200 2.414 . S
O229 Nd201 2.682 . S
O229 C218 1.273 . S
O230 Nd201 2.410 . S
O230 C219 1.251 . S
O231 Nd200 2.424 . S
O231 C219 1.268 . S
H232 C204 0.930 . S
H233 C205 0.929 . S
H234 C207 0.930 . S
H235 C208 0.929 . S
H236 C213 0.930 . S
H237 C214 0.929 . S
H238 C216 0.930 . S
H239 C217 0.929 . S
Nd240 C242 2.836 . S
Nd240 O260 2.500 . S
Nd240 O261 2.492 . S
Nd240 O262 2.487 . S
Nd240 O263 2.682 . S
Nd240 O264 2.410 . S
Nd240 O269 2.414 . S
Nd240 O271 2.424 . S
Nd241 C251 2.836 . S
Nd241 O263 2.414 . S
Nd241 O265 2.424 . S
Nd241 O266 2.500 . S
Nd241 O267 2.492 . S
Nd241 O268 2.487 . S
Nd241 O269 2.682 . S
Nd241 O270 2.410 . S
C242 Nd240 2.836 . S
C242 C243 1.498 . S
C242 O260 1.258 . S
C242 O261 1.239 . S
C243 C242 1.498 . S
C243 C244 1.366 . S
C243 C248 1.407 . S
C244 C243 1.366 . S
C244 C245 1.392 . S
C244 H272 0.930 . S
C245 C244 1.392 . S
C245 C246 1.398 . S
C245 H273 0.929 . S
C246 C245 1.398 . S
C246 C247 1.352 . S
C247 C246 1.352 . S
C247 C248 1.384 . S
C247 H274 0.930 . S
C248 C243 1.407 . S
C248 C247 1.384 . S
C248 H275 0.929 . S
C249 O262 1.241 . S
C249 O263 1.273 . S
C250 O264 1.251 . S
C250 O265 1.268 . S
C251 Nd241 2.836 . S
C251 C252 1.498 . S
C251 O266 1.258 . S
C251 O267 1.239 . S
C252 C251 1.498 . S
C252 C253 1.366 . S
C252 C257 1.407 . S
C253 C252 1.366 . S
C253 C254 1.392 . S
C253 H276 0.930 . S
C254 C253 1.392 . S
C254 C255 1.398 . S
C254 H277 0.929 . S
C255 C254 1.398 . S
C255 C256 1.352 . S
C256 C255 1.352 . S
C256 C257 1.384 . S
C256 H278 0.930 . S
C257 C252 1.407 . S
C257 C256 1.384 . S
C257 H279 0.929 . S
C258 O268 1.241 . S
C258 O269 1.273 . S
C259 O270 1.251 . S
C259 O271 1.268 . S
O260 Nd240 2.500 . S
O260 C242 1.258 . S
O261 Nd240 2.492 . S
O261 C242 1.239 . S
O262 Nd240 2.487 . S
O262 C249 1.241 . S
O263 Nd240 2.682 . S
O263 Nd241 2.414 . S
O263 C249 1.273 . S
O264 Nd240 2.410 . S
O264 C250 1.251 . S
O265 Nd241 2.424 . S
O265 C250 1.268 . S
O266 Nd241 2.500 . S
O266 C251 1.258 . S
O267 Nd241 2.492 . S
O267 C251 1.239 . S
O268 Nd241 2.487 . S
O268 C258 1.241 . S
O269 Nd240 2.414 . S
O269 Nd241 2.682 . S
O269 C258 1.273 . S
O270 Nd241 2.410 . S
O270 C259 1.251 . S
O271 Nd240 2.424 . S
O271 C259 1.268 . S
H272 C244 0.930 . S
H273 C245 0.929 . S
H274 C247 0.930 . S
H275 C248 0.929 . S
H276 C253 0.930 . S
H277 C254 0.929 . S
H278 C256 0.930 . S
H279 C257 0.929 . S
Nd280 C282 2.836 1_455 S
Nd280 O300 2.500 . S
Nd280 O301 2.492 1_455 S
Nd280 O302 2.486 1_455 S
Nd280 O303 2.682 . S
Nd280 O304 2.410 . S
Nd280 O309 2.414 . S
Nd280 O311 2.424 . S
Nd281 C291 2.836 . S
Nd281 O303 2.414 . S
Nd281 O305 2.424 . S
Nd281 O306 2.500 . S
Nd281 O307 2.492 . S
Nd281 O308 2.487 . S
Nd281 O309 2.682 . S
Nd281 O310 2.410 . S
C282 Nd280 2.836 1_655 S
C282 C283 1.498 . S
C282 O300 1.258 1_655 S
C282 O301 1.239 . S
C283 C282 1.498 . S
C283 C284 1.366 . S
C283 C288 1.407 . S
C284 C283 1.366 . S
C284 C285 1.392 . S
C284 H312 0.930 1_655 S
C285 C284 1.392 . S
C285 C286 1.398 . S
C285 H313 0.929 . S
C286 C285 1.398 . S
C286 C287 1.352 . S
C287 C286 1.352 . S
C287 C288 1.384 . S
C287 H314 0.930 . S
C288 C283 1.407 . S
C288 C287 1.384 . S
C288 H315 0.929 . S
C289 O302 1.237 1_455 S
C289 O303 1.273 . S
C290 O304 1.251 . S
C290 O305 1.268 . S
C291 Nd281 2.836 . S
C291 C292 1.498 . S
C291 O306 1.258 . S
C291 O307 1.239 . S
C292 C291 1.498 . S
C292 C293 1.366 . S
C292 C297 1.407 . S
C293 C292 1.366 . S
C293 C294 1.392 . S
C293 H316 0.930 . S
C294 C293 1.392 . S
C294 C295 1.398 . S
C294 H317 0.929 . S
C295 C294 1.398 . S
C295 C296 1.352 . S
C296 C295 1.352 . S
C296 C297 1.384 . S
C296 H318 0.930 . S
C297 C292 1.407 . S
C297 C296 1.384 . S
C297 H319 0.929 . S
C298 O308 1.241 . S
C298 O309 1.273 . S
C299 O310 1.251 . S
C299 O311 1.268 . S
O300 Nd280 2.500 . S
O300 C282 1.258 1_455 S
O301 Nd280 2.492 1_655 S
O301 C282 1.239 . S
O302 Nd280 2.486 1_655 S
O302 C289 1.237 1_655 S
O303 Nd280 2.682 . S
O303 Nd281 2.414 . S
O303 C289 1.273 . S
O304 Nd280 2.410 . S
O304 C290 1.251 . S
O305 Nd281 2.424 . S
O305 C290 1.268 . S
O306 Nd281 2.500 . S
O306 C291 1.258 . S
O307 Nd281 2.492 . S
O307 C291 1.239 . S
O308 Nd281 2.487 . S
O308 C298 1.241 . S
O309 Nd280 2.414 . S
O309 Nd281 2.682 . S
O309 C298 1.273 . S
O310 Nd281 2.410 . S
O310 C299 1.251 . S
O311 Nd280 2.424 . S
O311 C299 1.268 . S
H312 C284 0.930 1_455 S
H313 C285 0.929 . S
H314 C287 0.930 . S
H315 C288 0.929 . S
H316 C293 0.930 . S
H317 C294 0.929 . S
H318 C296 0.930 . S
H319 C297 0.929 . S
Nd320 C322 2.836 . S
Nd320 O340 2.500 . S
Nd320 O341 2.492 . S
Nd320 O342 2.487 . S
Nd320 O343 2.682 . S
Nd320 O344 2.410 . S
Nd320 O349 2.414 . S
Nd320 O351 2.424 . S
Nd321 C331 2.836 . S
Nd321 O343 2.414 . S
Nd321 O345 2.424 . S
Nd321 O346 2.500 . S
Nd321 O347 2.492 . S
Nd321 O348 2.487 . S
Nd321 O349 2.682 . S
Nd321 O350 2.410 . S
C322 Nd320 2.836 . S
C322 C323 1.498 . S
C322 O340 1.258 . S
C322 O341 1.239 . S
C323 C322 1.498 . S
C323 C324 1.366 . S
C323 C328 1.407 . S
C324 C323 1.366 . S
C324 C325 1.392 . S
C324 H352 0.930 . S
C325 C324 1.392 . S
C325 C326 1.398 . S
C325 H353 0.929 . S
C326 C325 1.398 . S
C326 C327 1.352 . S
C327 C326 1.352 . S
C327 C328 1.384 . S
C327 H354 0.930 . S
C328 C323 1.407 . S
C328 C327 1.384 . S
C328 H355 0.929 . S
C329 O342 1.241 . S
C329 O343 1.273 . S
C330 O344 1.251 . S
C330 O345 1.268 . S
C331 Nd321 2.836 . S
C331 C332 1.498 . S
C331 O346 1.258 . S
C331 O347 1.239 . S
C332 C331 1.498 . S
C332 C333 1.366 . S
C332 C337 1.407 . S
C333 C332 1.366 . S
C333 C334 1.392 . S
C333 H356 0.930 . S
C334 C333 1.392 . S
C334 C335 1.398 . S
C334 H357 0.929 . S
C335 C334 1.398 . S
C335 C336 1.352 . S
C336 C335 1.352 . S
C336 C337 1.384 . S
C336 H358 0.930 . S
C337 C332 1.407 . S
C337 C336 1.384 . S
C337 H359 0.929 . S
C338 O348 1.241 . S
C338 O349 1.273 . S
C339 O350 1.251 . S
C339 O351 1.268 . S
O340 Nd320 2.500 . S
O340 C322 1.258 . S
O341 Nd320 2.492 . S
O341 C322 1.239 . S
O342 Nd320 2.487 . S
O342 C329 1.241 . S
O343 Nd320 2.682 . S
O343 Nd321 2.414 . S
O343 C329 1.273 . S
O344 Nd320 2.410 . S
O344 C330 1.251 . S
O345 Nd321 2.424 . S
O345 C330 1.268 . S
O346 Nd321 2.500 . S
O346 C331 1.258 . S
O347 Nd321 2.492 . S
O347 C331 1.239 . S
O348 Nd321 2.487 . S
O348 C338 1.241 . S
O349 Nd320 2.414 . S
O349 Nd321 2.682 . S
O349 C338 1.273 . S
O350 Nd321 2.410 . S
O350 C339 1.251 . S
O351 Nd320 2.424 . S
O351 C339 1.268 . S
H352 C324 0.930 . S
H353 C325 0.929 . S
H354 C327 0.930 . S
H355 C328 0.929 . S
H356 C333 0.930 . S
H357 C334 0.929 . S
H358 C336 0.930 . S
H359 C337 0.929 . S
Nd360 C362 2.836 . S
Nd360 O380 2.500 . S
Nd360 O381 2.492 . S
Nd360 O382 2.487 . S
Nd360 O383 2.682 . S
Nd360 O384 2.410 . S
Nd360 O389 2.414 . S
Nd360 O391 2.424 . S
Nd361 C371 2.836 . S
Nd361 O383 2.414 . S
Nd361 O385 2.424 . S
Nd361 O386 2.500 . S
Nd361 O387 2.492 . S
Nd361 O388 2.487 1_545 S
Nd361 O389 2.682 . S
Nd361 O390 2.410 . S
C362 Nd360 2.836 . S
C362 C363 1.498 . S
C362 O380 1.258 . S
C362 O381 1.239 . S
C363 C362 1.498 . S
C363 C364 1.366 . S
C363 C368 1.407 . S
C364 C363 1.366 . S
C364 C365 1.392 . S
C364 H392 0.930 . S
C365 C364 1.392 . S
C365 C366 1.398 . S
C365 H393 0.929 . S
C366 C365 1.398 . S
C366 C367 1.352 . S
C367 C366 1.352 . S
C367 C368 1.384 . S
C367 H394 0.930 . S
C368 C363 1.407 . S
C368 C367 1.384 . S
C368 H395 0.929 . S
C369 O382 1.241 . S
C369 O383 1.273 . S
C370 O384 1.251 . S
C370 O385 1.268 . S
C371 Nd361 2.836 . S
C371 C372 1.498 . S
C371 O386 1.258 . S
C371 O387 1.239 . S
C372 C371 1.498 . S
C372 C373 1.366 . S
C372 C377 1.407 . S
C373 C372 1.366 . S
C373 C374 1.392 . S
C373 H396 0.930 . S
C374 C373 1.392 . S
C374 C375 1.398 . S
C374 H397 0.929 . S
C375 C374 1.398 . S
C375 C376 1.352 . S
C376 C375 1.352 . S
C376 C377 1.384 . S
C376 H398 0.930 1_545 S
C377 C372 1.407 . S
C377 C376 1.384 . S
C377 H399 0.929 1_545 S
C378 O388 1.241 . S
C378 O389 1.273 1_565 S
C379 O390 1.251 . S
C379 O391 1.268 . S
O380 Nd360 2.500 . S
O380 C362 1.258 . S
O381 Nd360 2.492 . S
O381 C362 1.239 . S
O382 Nd360 2.487 . S
O382 C369 1.241 . S
O383 Nd360 2.682 . S
O383 Nd361 2.414 . S
O383 C369 1.273 . S
O384 Nd360 2.410 . S
O384 C370 1.251 . S
O385 Nd361 2.424 . S
O385 C370 1.268 . S
O386 Nd361 2.500 . S
O386 C371 1.258 . S
O387 Nd361 2.492 . S
O387 C371 1.239 . S
O388 Nd361 2.487 1_565 S
O388 C378 1.241 . S
O389 Nd360 2.414 . S
O389 Nd361 2.682 . S
O389 C378 1.273 1_545 S
O390 Nd361 2.410 . S
O390 C379 1.251 . S
O391 Nd360 2.424 . S
O391 C379 1.268 . S
H392 C364 0.930 . S
H393 C365 0.929 . S
H394 C367 0.930 . S
H395 C368 0.929 . S
H396 C373 0.930 . S
H397 C374 0.929 . S
H398 C376 0.930 1_565 S
H399 C377 0.929 1_565 S
Nd400 C402 2.836 . S
Nd400 O420 2.500 . S
Nd400 O421 2.492 . S
Nd400 O422 2.487 . S
Nd400 O423 2.682 . S
Nd400 O424 2.410 . S
Nd400 O429 2.414 . S
Nd400 O431 2.424 . S
Nd401 C411 2.836 . S
Nd401 O423 2.414 . S
Nd401 O425 2.424 . S
Nd401 O426 2.500 . S
Nd401 O427 2.492 . S
Nd401 O428 2.487 . S
Nd401 O429 2.682 . S
Nd401 O430 2.410 . S
C402 Nd400 2.836 . S
C402 C403 1.498 . S
C402 O420 1.258 . S
C402 O421 1.239 . S
C403 C402 1.498 . S
C403 C404 1.366 . S
C403 C408 1.407 . S
C404 C403 1.366 . S
C404 C405 1.392 . S
C404 H432 0.930 . S
C405 C404 1.392 . S
C405 C406 1.398 . S
C405 H433 0.929 . S
C406 C405 1.398 . S
C406 C407 1.352 . S
C407 C406 1.352 . S
C407 C408 1.384 . S
C407 H434 0.930 . S
C408 C403 1.407 . S
C408 C407 1.384 . S
C408 H435 0.929 . S
C409 O422 1.241 . S
C409 O423 1.273 . S
C410 O424 1.251 . S
C410 O425 1.268 . S
C411 Nd401 2.836 . S
C411 C412 1.567 . S
C411 O426 1.258 . S
C411 O427 1.239 . S
C412 C411 1.567 . S
C412 C413 1.324 1_554 S
C412 C417 1.382 1_554 S
C413 C412 1.324 1_556 S
C413 C414 1.392 . S
C413 H436 0.951 . S
C414 C413 1.392 . S
C414 C415 1.398 . S
C414 H437 0.929 . S
C415 C414 1.398 . S
C415 C416 1.352 . S
C416 C415 1.352 . S
C416 C417 1.384 . S
C416 H438 0.930 . S
C417 C412 1.382 1_556 S
C417 C416 1.384 . S
C417 H439 0.929 . S
C418 O428 1.241 . S
C418 O429 1.273 . S
C419 O430 1.251 . S
C419 O431 1.268 . S
O420 Nd400 2.500 . S
O420 C402 1.258 . S
O421 Nd400 2.492 . S
O421 C402 1.239 . S
O422 Nd400 2.487 . S
O422 C409 1.241 . S
O423 Nd400 2.682 . S
O423 Nd401 2.414 . S
O423 C409 1.273 . S
O424 Nd400 2.410 . S
O424 C410 1.251 . S
O425 Nd401 2.424 . S
O425 C410 1.268 . S
O426 Nd401 2.500 . S
O426 C411 1.258 . S
O427 Nd401 2.492 . S
O427 C411 1.239 . S
O428 Nd401 2.487 . S
O428 C418 1.241 . S
O429 Nd400 2.414 . S
O429 Nd401 2.682 . S
O429 C418 1.273 . S
O430 Nd401 2.410 . S
O430 C419 1.251 . S
O431 Nd400 2.424 . S
O431 C419 1.268 . S
H432 C404 0.930 . S
H433 C405 0.929 . S
H434 C407 0.930 . S
H435 C408 0.929 . S
H436 C413 0.951 . S
H437 C414 0.929 . S
H438 C416 0.930 . S
H439 C417 0.929 . S
Nd440 C442 2.836 . S
Nd440 O460 2.500 . S
Nd440 O461 2.492 . S
Nd440 O462 2.487 1_565 S
Nd440 O463 2.682 1_565 S
Nd440 O464 2.410 . S
Nd440 O469 2.414 . S
Nd440 O471 2.424 . S
Nd441 C451 2.836 1_565 S
Nd441 O463 2.414 1_565 S
Nd441 O465 2.422 . S
Nd441 O466 2.500 1_565 S
Nd441 O467 2.492 . S
Nd441 O468 2.487 . S
Nd441 O469 2.682 . S
Nd441 O470 2.410 . S
C442 Nd440 2.836 . S
C442 C443 1.498 . S
C442 O460 1.258 . S
C442 O461 1.239 . S
C443 C442 1.498 . S
C443 C444 1.366 . S
C443 C448 1.407 . S
C444 C443 1.366 . S
C444 C445 1.392 . S
C444 H472 0.930 . S
C445 C444 1.392 . S
C445 C446 1.398 . S
C445 H473 0.929 . S
C446 C445 1.398 . S
C446 C447 1.352 . S
C447 C446 1.352 . S
C447 C448 1.384 . S
C447 H474 0.930 . S
C448 C443 1.407 . S
C448 C447 1.384 . S
C448 H475 0.929 . S
C449 O462 1.241 . S
C449 O463 1.273 . S
C450 O464 1.251 . S
C450 O465 1.273 . S
C451 Nd441 2.836 1_545 S
C451 C452 1.498 . S
C451 O466 1.258 . S
C451 O467 1.239 1_545 S
C452 C451 1.498 . S
C452 C453 1.366 . S
C452 C457 1.407 . S
C453 C452 1.366 . S
C453 C454 1.392 . S
C453 H476 0.930 . S
C454 C453 1.392 . S
C454 C455 1.398 . S
C454 H477 0.929 . S
C455 C454 1.398 . S
C455 C456 1.352 . S
C456 C455 1.352 . S
C456 C457 1.384 . S
C456 H478 0.930 . S
C457 C452 1.407 . S
C457 C456 1.384 . S
C457 H479 0.929 1_545 S
C458 O468 1.241 . S
C458 O469 1.273 . S
C459 O470 1.251 . S
C459 O471 1.268 . S
O460 Nd440 2.500 . S
O460 C442 1.258 . S
O461 Nd440 2.492 . S
O461 C442 1.239 . S
O462 Nd440 2.487 1_545 S
O462 C449 1.241 . S
O463 Nd440 2.682 1_545 S
O463 Nd441 2.414 1_545 S
O463 C449 1.273 . S
O464 Nd440 2.410 . S
O464 C450 1.251 . S
O465 Nd441 2.422 . S
O465 C450 1.273 . S
O466 Nd441 2.500 1_545 S
O466 C451 1.258 . S
O467 Nd441 2.492 . S
O467 C451 1.239 1_565 S
O468 Nd441 2.487 . S
O468 C458 1.241 . S
O469 Nd440 2.414 . S
O469 Nd441 2.682 . S
O469 C458 1.273 . S
O470 Nd441 2.410 . S
O470 C459 1.251 . S
O471 Nd440 2.424 . S
O471 C459 1.268 . S
H472 C444 0.930 . S
H473 C445 0.929 . S
H474 C447 0.930 . S
H475 C448 0.929 . S
H476 C453 0.930 . S
H477 C454 0.929 . S
H478 C456 0.930 . S
H479 C457 0.929 1_565 S
Nd480 C482 2.836 . S
Nd480 O500 2.500 . S
Nd480 O501 2.492 . S
Nd480 O502 2.487 . S
Nd480 O503 2.682 . S
Nd480 O504 2.410 . S
Nd480 O509 2.414 . S
Nd480 O511 2.424 . S
Nd481 C491 2.836 . S
Nd481 O503 2.414 . S
Nd481 O505 2.424 . S
Nd481 O506 2.500 . S
Nd481 O507 2.492 . S
Nd481 O508 2.487 . S
Nd481 O509 2.682 . S
Nd481 O510 2.410 . S
C482 Nd480 2.836 . S
C482 C483 1.498 . S
C482 O500 1.258 . S
C482 O501 1.239 . S
C483 C482 1.498 . S
C483 C484 1.366 . S
C483 C488 1.407 . S
C484 C483 1.366 . S
C484 C485 1.392 . S
C484 H512 0.930 . S
C485 C484 1.392 . S
C485 C486 1.398 . S
C485 H513 0.929 . S
C486 C485 1.398 . S
C486 C487 1.352 . S
C487 C486 1.352 . S
C487 C488 1.384 . S
C487 H514 0.930 . S
C488 C483 1.407 . S
C488 C487 1.384 . S
C488 H515 0.929 . S
C489 O502 1.241 . S
C489 O503 1.273 . S
C490 O504 1.251 . S
C490 O505 1.268 . S
C491 Nd481 2.836 . S
C491 C492 1.498 . S
C491 O506 1.258 . S
C491 O507 1.239 . S
C492 C491 1.498 . S
C492 C493 1.366 . S
C492 C497 1.407 . S
C493 C492 1.366 . S
C493 C494 1.392 . S
C493 H516 0.930 . S
C494 C493 1.392 . S
C494 C495 1.398 . S
C494 H517 0.929 . S
C495 C494 1.398 . S
C495 C496 1.352 . S
C496 C495 1.352 . S
C496 C497 1.384 . S
C496 H518 0.930 . S
C497 C492 1.407 . S
C497 C496 1.384 . S
C497 H519 0.929 . S
C498 O508 1.241 . S
C498 O509 1.273 . S
C499 O510 1.251 . S
C499 O511 1.268 . S
O500 Nd480 2.500 . S
O500 C482 1.258 . S
O501 Nd480 2.492 . S
O501 C482 1.239 . S
O502 Nd480 2.487 . S
O502 C489 1.241 . S
O503 Nd480 2.682 . S
O503 Nd481 2.414 . S
O503 C489 1.273 . S
O504 Nd480 2.410 . S
O504 C490 1.251 . S
O505 Nd481 2.424 . S
O505 C490 1.268 . S
O506 Nd481 2.500 . S
O506 C491 1.258 . S
O507 Nd481 2.492 . S
O507 C491 1.239 . S
O508 Nd481 2.487 . S
O508 C498 1.241 . S
O509 Nd480 2.414 . S
O509 Nd481 2.682 . S
O509 C498 1.273 . S
O510 Nd481 2.410 . S
O510 C499 1.251 . S
O511 Nd480 2.424 . S
O511 C499 1.268 . S
H512 C484 0.930 . S
H513 C485 0.929 . S
H514 C487 0.930 . S
H515 C488 0.929 . S
H516 C493 0.930 . S
H517 C494 0.929 . S
H518 C496 0.930 . S
H519 C497 0.929 . S
Nd520 C522 2.836 . S
Nd520 O540 2.500 . S
Nd520 O541 2.492 . S
Nd520 O542 2.487 1_565 S
Nd520 O543 2.682 . S
Nd520 O544 2.410 . S
Nd520 O549 2.414 . S
Nd520 O551 2.424 . S
Nd521 C531 2.836 . S
Nd521 O543 2.414 . S
Nd521 O545 2.424 . S
Nd521 O546 2.500 . S
Nd521 O547 2.492 . S
Nd521 O548 2.487 . S
Nd521 O549 2.682 . S
Nd521 O550 2.410 . S
C522 Nd520 2.836 . S
C522 C523 1.498 . S
C522 O540 1.258 . S
C522 O541 1.239 . S
C523 C522 1.498 . S
C523 C524 1.366 . S
C523 C528 1.407 . S
C524 C523 1.366 . S
C524 C525 1.392 . S
C524 H552 0.930 . S
C525 C524 1.392 . S
C525 C526 1.398 . S
C525 H553 0.929 . S
C526 C525 1.398 . S
C526 C527 1.352 . S
C527 C526 1.352 . S
C527 C528 1.384 . S
C527 H554 0.930 1_565 S
C528 C523 1.407 . S
C528 C527 1.384 . S
C528 H555 0.929 1_565 S
C529 O542 1.241 . S
C529 O543 1.273 1_545 S
C530 O544 1.251 . S
C530 O545 1.268 . S
C531 Nd521 2.836 . S
C531 C532 1.498 . S
C531 O546 1.258 . S
C531 O547 1.239 . S
C532 C531 1.498 . S
C532 C533 1.366 . S
C532 C537 1.407 . S
C533 C532 1.366 . S
C533 C534 1.392 . S
C533 H556 0.930 . S
C534 C533 1.392 . S
C534 C535 1.398 . S
C534 H557 0.929 . S
C535 C534 1.398 . S
C535 C536 1.352 . S
C536 C535 1.352 . S
C536 C537 1.384 . S
C536 H558 0.930 . S
C537 C532 1.407 . S
C537 C536 1.384 . S
C537 H559 0.929 . S
C538 O548 1.241 . S
C538 O549 1.273 . S
C539 O550 1.251 . S
C539 O551 1.268 . S
O540 Nd520 2.500 . S
O540 C522 1.258 . S
O541 Nd520 2.492 . S
O541 C522 1.239 . S
O542 Nd520 2.487 1_545 S
O542 C529 1.241 . S
O543 Nd520 2.682 . S
O543 Nd521 2.414 . S
O543 C529 1.273 1_565 S
O544 Nd520 2.410 . S
O544 C530 1.251 . S
O545 Nd521 2.424 . S
O545 C530 1.268 . S
O546 Nd521 2.500 . S
O546 C531 1.258 . S
O547 Nd521 2.492 . S
O547 C531 1.239 . S
O548 Nd521 2.487 . S
O548 C538 1.241 . S
O549 Nd520 2.414 . S
O549 Nd521 2.682 . S
O549 C538 1.273 . S
O550 Nd521 2.410 . S
O550 C539 1.251 . S
O551 Nd520 2.424 . S
O551 C539 1.268 . S
H552 C524 0.930 . S
H553 C525 0.929 . S
H554 C527 0.930 1_545 S
H555 C528 0.929 1_545 S
H556 C533 0.930 . S
H557 C534 0.929 . S
H558 C536 0.930 . S
H559 C537 0.929 . S
Nd560 C562 2.836 . S
Nd560 O580 2.500 . S
Nd560 O581 2.492 . S
Nd560 O582 2.487 . S
Nd560 O583 2.682 . S
Nd560 O584 2.410 . S
Nd560 O589 2.414 . S
Nd560 O591 2.424 . S
Nd561 C571 2.836 . S
Nd561 O583 2.414 . S
Nd561 O585 2.424 . S
Nd561 O586 2.500 . S
Nd561 O587 2.492 . S
Nd561 O588 2.487 . S
Nd561 O589 2.682 . S
Nd561 O590 2.410 . S
C562 Nd560 2.836 . S
C562 C563 1.567 . S
C562 O580 1.258 . S
C562 O581 1.239 . S
C563 C562 1.567 . S
C563 C564 1.324 1_556 S
C563 C568 1.382 1_556 S
C564 C563 1.324 1_554 S
C564 C565 1.392 . S
C564 H592 0.951 . S
C565 C564 1.392 . S
C565 C566 1.398 . S
C565 H593 0.929 . S
C566 C565 1.398 . S
C566 C567 1.352 . S
C567 C566 1.352 . S
C567 C568 1.384 . S
C567 H594 0.930 . S
C568 C563 1.382 1_554 S
C568 C567 1.384 . S
C568 H595 0.929 . S
C569 O582 1.241 . S
C569 O583 1.273 . S
C570 O584 1.251 . S
C570 O585 1.268 . S
C571 Nd561 2.836 . S
C571 C572 1.498 . S
C571 O586 1.258 . S
C571 O587 1.239 . S
C572 C571 1.498 . S
C572 C573 1.366 . S
C572 C577 1.407 . S
C573 C572 1.366 . S
C573 C574 1.392 . S
C573 H596 0.930 . S
C574 C573 1.392 . S
C574 C575 1.398 . S
C574 H597 0.929 . S
C575 C574 1.398 . S
C575 C576 1.352 . S
C576 C575 1.352 . S
C576 C577 1.384 . S
C576 H598 0.930 . S
C577 C572 1.407 . S
C577 C576 1.384 . S
C577 H599 0.929 . S
C578 O588 1.241 . S
C578 O589 1.273 . S
C579 O590 1.251 . S
C579 O591 1.268 . S
O580 Nd560 2.500 . S
O580 C562 1.258 . S
O581 Nd560 2.492 . S
O581 C562 1.239 . S
O582 Nd560 2.487 . S
O582 C569 1.241 . S
O583 Nd560 2.682 . S
O583 Nd561 2.414 . S
O583 C569 1.273 . S
O584 Nd560 2.410 . S
O584 C570 1.251 . S
O585 Nd561 2.424 . S
O585 C570 1.268 . S
O586 Nd561 2.500 . S
O586 C571 1.258 . S
O587 Nd561 2.492 . S
O587 C571 1.239 . S
O588 Nd561 2.487 . S
O588 C578 1.241 . S
O589 Nd560 2.414 . S
O589 Nd561 2.682 . S
O589 C578 1.273 . S
O590 Nd561 2.410 . S
O590 C579 1.251 . S
O591 Nd560 2.424 . S
O591 C579 1.268 . S
H592 C564 0.951 . S
H593 C565 0.929 . S
H594 C567 0.930 . S
H595 C568 0.929 . S
H596 C573 0.930 . S
H597 C574 0.929 . S
H598 C576 0.930 . S
H599 C577 0.929 . S
Nd600 C602 2.836 1_545 S
Nd600 O620 2.500 1_545 S
Nd600 O621 2.492 . S
Nd600 O622 2.487 . S
Nd600 O623 2.682 . S
Nd600 O624 2.410 . S
Nd600 O629 2.414 1_545 S
Nd600 O631 2.422 . S
Nd601 C611 2.836 . S
Nd601 O623 2.414 . S
Nd601 O625 2.424 . S
Nd601 O626 2.500 . S
Nd601 O627 2.492 . S
Nd601 O628 2.487 1_545 S
Nd601 O629 2.682 1_545 S
Nd601 O630 2.410 . S
C602 Nd600 2.836 1_565 S
C602 C603 1.498 . S
C602 O620 1.258 . S
C602 O621 1.239 1_565 S
C603 C602 1.498 . S
C603 C604 1.366 . S
C603 C608 1.407 . S
C604 C603 1.366 . S
C604 C605 1.392 . S
C604 H632 0.930 . S
C605 C604 1.392 . S
C605 C606 1.398 . S
C605 H633 0.929 . S
C606 C605 1.398 . S
C606 C607 1.352 . S
C607 C606 1.352 . S
C607 C608 1.384 . S
C607 H634 0.930 . S
C608 C603 1.407 . S
C608 C607 1.384 . S
C608 H635 0.929 1_565 S
C609 O622 1.241 . S
C609 O623 1.273 . S
C610 O624 1.251 . S
C610 O625 1.268 . S
C611 Nd601 2.836 . S
C611 C612 1.498 . S
C611 O626 1.258 . S
C611 O627 1.239 . S
C612 C611 1.498 . S
C612 C613 1.366 . S
C612 C617 1.407 . S
C613 C612 1.366 . S
C613 C614 1.392 . S
C613 H636 0.930 . S
C614 C613 1.392 . S
C614 C615 1.398 . S
C614 H637 0.929 . S
C615 C614 1.398 . S
C615 C616 1.352 . S
C616 C615 1.352 . S
C616 C617 1.384 . S
C616 H638 0.930 . S
C617 C612 1.407 . S
C617 C616 1.384 . S
C617 H639 0.929 . S
C618 O628 1.241 . S
C618 O629 1.273 . S
C619 O630 1.251 . S
C619 O631 1.273 . S
O620 Nd600 2.500 1_565 S
O620 C602 1.258 . S
O621 Nd600 2.492 . S
O621 C602 1.239 1_545 S
O622 Nd600 2.487 . S
O622 C609 1.241 . S
O623 Nd600 2.682 . S
O623 Nd601 2.414 . S
O623 C609 1.273 . S
O624 Nd600 2.410 . S
O624 C610 1.251 . S
O625 Nd601 2.424 . S
O625 C610 1.268 . S
O626 Nd601 2.500 . S
O626 C611 1.258 . S
O627 Nd601 2.492 . S
O627 C611 1.239 . S
O628 Nd601 2.487 1_565 S
O628 C618 1.241 . S
O629 Nd600 2.414 1_565 S
O629 Nd601 2.682 1_565 S
O629 C618 1.273 . S
O630 Nd601 2.410 . S
O630 C619 1.251 . S
O631 Nd600 2.422 . S
O631 C619 1.273 . S
H632 C604 0.930 . S
H633 C605 0.929 . S
H634 C607 0.930 . S
H635 C608 0.929 1_545 S
H636 C613 0.930 . S
H637 C614 0.929 . S
H638 C616 0.930 . S
H639 C617 0.929 . S
C640 C641 1.391 . S
C640 C642 1.394 . S
C640 H656 0.931 . S
C641 C640 1.391 . S
C641 C645 1.376 . S
C642 C640 1.394 . S
C642 C643 1.369 . S
C642 C646 1.531 . S
C643 C642 1.369 . S
C643 C644 1.410 . S
C643 C651 1.503 . S
C644 C643 1.410 . S
C644 C645 1.392 . S
C644 C647 1.511 . S
C645 C641 1.376 . S
C645 C644 1.392 . S
C645 H657 0.929 . S
C646 C642 1.531 . S
C646 H658 0.960 . S
C646 H659 0.962 . S
C646 H660 0.960 . S
C647 C644 1.511 . S
C647 H661 0.961 . S
C647 H662 0.961 . S
C647 H663 0.961 . S
C648 C649 1.370 . S
C648 C650 1.363 . S
C648 H664 0.931 . S
C649 C648 1.370 . S
C649 C653 1.408 . S
C650 C648 1.363 . S
C650 C651 1.370 . S
C650 C654 1.524 . S
C651 C643 1.503 . S
C651 C650 1.370 . S
C651 C652 1.403 . S
C652 C651 1.403 . S
C652 C653 1.404 . S
C652 C655 1.539 . S
C653 C649 1.408 . S
C653 C652 1.404 . S
C653 H665 0.930 . S
C654 C650 1.524 . S
C654 H666 0.956 . S
C654 H667 0.961 . S
C654 H668 0.961 . S
C655 C652 1.539 . S
C655 H669 0.958 . S
C655 H670 0.961 . S
C655 H671 0.960 . S
H656 C640 0.931 . S
H657 C645 0.929 . S
H658 C646 0.960 . S
H659 C646 0.962 . S
H660 C646 0.960 . S
H661 C647 0.961 . S
H662 C647 0.961 . S
H663 C647 0.961 . S
H664 C648 0.931 . S
H665 C653 0.930 . S
H666 C654 0.956 . S
H667 C654 0.961 . S
H668 C654 0.961 . S
H669 C655 0.958 . S
H670 C655 0.961 . S
H671 C655 0.960 . S
C672 C673 1.391 . S
C672 C674 1.394 . S
C672 H688 0.931 . S
C673 C672 1.391 . S
C673 C677 1.376 . S
C674 C672 1.394 . S
C674 C675 1.369 . S
C674 C678 1.531 . S
C675 C674 1.369 . S
C675 C676 1.410 . S
C675 C683 1.503 . S
C676 C675 1.410 . S
C676 C677 1.392 . S
C676 C679 1.511 . S
C677 C673 1.376 . S
C677 C676 1.392 . S
C677 H689 0.929 . S
C678 C674 1.531 . S
C678 H690 0.960 . S
C678 H691 0.962 . S
C678 H692 0.960 . S
C679 C676 1.511 . S
C679 H693 0.961 . S
C679 H694 0.961 . S
C679 H695 0.961 . S
C680 C681 1.370 . S
C680 C682 1.363 . S
C680 H696 0.931 . S
C681 C680 1.370 . S
C681 C685 1.408 . S
C682 C680 1.363 . S
C682 C683 1.370 . S
C682 C686 1.524 . S
C683 C675 1.503 . S
C683 C682 1.370 . S
C683 C684 1.403 . S
C684 C683 1.403 . S
C684 C685 1.404 . S
C684 C687 1.539 . S
C685 C681 1.408 . S
C685 C684 1.404 . S
C685 H697 0.930 . S
C686 C682 1.524 . S
C686 H698 0.956 . S
C686 H699 0.961 . S
C686 H700 0.961 . S
C687 C684 1.539 . S
C687 H701 0.958 . S
C687 H702 0.961 . S
C687 H703 0.960 . S
H688 C672 0.931 . S
H689 C677 0.929 . S
H690 C678 0.960 . S
H691 C678 0.962 . S
H692 C678 0.960 . S
H693 C679 0.961 . S
H694 C679 0.961 . S
H695 C679 0.961 . S
H696 C680 0.931 . S
H697 C685 0.930 . S
H698 C686 0.956 . S
H699 C686 0.961 . S
H700 C686 0.961 . S
H701 C687 0.958 . S
H702 C687 0.961 . S
H703 C687 0.960 . S
C704 C705 1.391 . S
C704 C706 1.394 . S
C704 H720 0.931 . S
C705 C704 1.391 . S
C705 C709 1.376 . S
C706 C704 1.394 . S
C706 C707 1.369 . S
C706 C710 1.531 . S
C707 C706 1.369 . S
C707 C708 1.410 . S
C707 C715 1.503 1_455 S
C708 C707 1.410 . S
C708 C709 1.392 . S
C708 C711 1.511 1_455 S
C709 C705 1.376 . S
C709 C708 1.392 . S
C709 H721 0.929 . S
C710 C706 1.531 . S
C710 H722 0.960 . S
C710 H723 0.962 . S
C710 H724 0.960 . S
C711 C708 1.511 1_655 S
C711 H725 0.961 . S
C711 H726 0.961 . S
C711 H727 0.961 . S
C712 C713 1.370 . S
C712 C714 1.363 . S
C712 H728 0.931 . S
C713 C712 1.370 . S
C713 C717 1.408 . S
C714 C712 1.363 . S
C714 C715 1.370 . S
C714 C718 1.524 . S
C715 C707 1.503 1_655 S
C715 C714 1.370 . S
C715 C716 1.403 . S
C716 C715 1.403 . S
C716 C717 1.404 . S
C716 C719 1.539 1_655 S
C717 C713 1.408 . S
C717 C716 1.404 . S
C717 H729 0.930 . S
C718 C714 1.524 . S
C718 H730 0.956 . S
C718 H731 0.961 . S
C718 H732 0.961 . S
C719 C716 1.539 1_455 S
C719 H733 0.958 . S
C719 H734 0.961 1_455 S
C719 H735 0.960 . S
H720 C704 0.931 . S
H721 C709 0.929 . S
H722 C710 0.960 . S
H723 C710 0.962 . S
H724 C710 0.960 . S
H725 C711 0.961 . S
H726 C711 0.961 . S
H727 C711 0.961 . S
H728 C712 0.931 . S
H729 C717 0.930 . S
H730 C718 0.956 . S
H731 C718 0.961 . S
H732 C718 0.961 . S
H733 C719 0.958 . S
H734 C719 0.961 1_655 S
H735 C719 0.960 . S
C736 C737 1.391 . S
C736 C738 1.394 . S
C736 H752 0.931 . S
C737 C736 1.391 . S
C737 C741 1.376 . S
C738 C736 1.394 . S
C738 C739 1.369 . S
C738 C742 1.531 . S
C739 C738 1.369 . S
C739 C740 1.410 1_455 S
C739 C747 1.503 1_455 S
C740 C739 1.410 1_655 S
C740 C741 1.392 1_655 S
C740 C743 1.511 . S
C741 C737 1.376 . S
C741 C740 1.392 1_455 S
C741 H753 0.929 . S
C742 C738 1.531 . S
C742 H754 0.960 . S
C742 H755 0.962 . S
C742 H756 0.960 . S
C743 C740 1.511 . S
C743 H757 0.961 . S
C743 H758 0.961 . S
C743 H759 0.961 . S
C744 C745 1.370 . S
C744 C746 1.363 1_655 S
C744 H760 0.931 1_655 S
C745 C744 1.370 . S
C745 C749 1.408 . S
C746 C744 1.363 1_455 S
C746 C747 1.370 1_455 S
C746 C750 1.524 . S
C747 C739 1.503 1_655 S
C747 C746 1.370 1_655 S
C747 C748 1.403 . S
C748 C747 1.403 . S
C748 C749 1.404 . S
C748 C751 1.539 . S
C749 C745 1.408 . S
C749 C748 1.404 . S
C749 H761 0.930 . S
C750 C746 1.524 . S
C750 H762 0.956 . S
C750 H763 0.961 . S
C750 H764 0.961 . S
C751 C748 1.539 . S
C751 H765 0.958 . S
C751 H766 0.961 . S
C751 H767 0.960 . S
H752 C736 0.931 . S
H753 C741 0.929 . S
H754 C742 0.960 . S
H755 C742 0.962 . S
H756 C742 0.960 . S
H757 C743 0.961 . S
H758 C743 0.961 . S
H759 C743 0.961 . S
H760 C744 0.931 1_455 S
H761 C749 0.930 . S
H762 C750 0.956 . S
H763 C750 0.961 . S
H764 C750 0.961 . S
H765 C751 0.958 . S
H766 C751 0.961 . S
H767 C751 0.960 . S
C768 C769 1.391 . S
C768 C770 1.394 . S
C768 H784 0.931 . S
C769 C768 1.391 . S
C769 C773 1.376 . S
C770 C768 1.394 . S
C770 C771 1.369 . S
C770 C774 1.531 . S
C771 C770 1.369 . S
C771 C772 1.410 . S
C771 C779 1.503 . S
C772 C771 1.410 . S
C772 C773 1.392 . S
C772 C775 1.511 . S
C773 C769 1.376 . S
C773 C772 1.392 . S
C773 H785 0.929 . S
C774 C770 1.531 . S
C774 H786 0.960 . S
C774 H787 0.962 . S
C774 H788 0.960 . S
C775 C772 1.511 . S
C775 H789 0.961 . S
C775 H790 0.961 . S
C775 H791 0.961 . S
C776 C777 1.370 . S
C776 C778 1.363 . S
C776 H792 0.931 . S
C777 C776 1.370 . S
C777 C781 1.408 . S
C778 C776 1.363 . S
C778 C779 1.370 . S
C778 C782 1.524 . S
C779 C771 1.503 . S
C779 C778 1.370 . S
C779 C780 1.403 . S
C780 C779 1.403 . S
C780 C781 1.404 . S
C780 C783 1.539 . S
C781 C777 1.408 . S
C781 C780 1.404 . S
C781 H793 0.930 . S
C782 C778 1.524 . S
C782 H794 0.956 . S
C782 H795 0.961 . S
C782 H796 0.961 . S
C783 C780 1.539 . S
C783 H797 0.958 . S
C783 H798 0.961 . S
C783 H799 0.960 . S
H784 C768 0.931 . S
H785 C773 0.929 . S
H786 C774 0.960 . S
H787 C774 0.962 . S
H788 C774 0.960 . S
H789 C775 0.961 . S
H790 C775 0.961 . S
H791 C775 0.961 . S
H792 C776 0.931 . S
H793 C781 0.930 . S
H794 C782 0.956 . S
H795 C782 0.961 . S
H796 C782 0.961 . S
H797 C783 0.958 . S
H798 C783 0.961 . S
H799 C783 0.960 . S
C800 C801 1.391 . S
C800 C802 1.394 . S
C800 H816 0.931 . S
C801 C800 1.391 . S
C801 C805 1.376 . S
C802 C800 1.394 . S
C802 C803 1.369 . S
C802 C806 1.531 . S
C803 C802 1.369 . S
C803 C804 1.410 . S
C803 C811 1.503 . S
C804 C803 1.410 . S
C804 C805 1.392 . S
C804 C807 1.511 . S
C805 C801 1.376 . S
C805 C804 1.392 . S
C805 H817 0.929 . S
C806 C802 1.531 . S
C806 H818 0.960 . S
C806 H819 0.962 . S
C806 H820 0.960 . S
C807 C804 1.511 . S
C807 H821 0.961 . S
C807 H822 0.961 . S
C807 H823 0.961 . S
C808 C809 1.370 . S
C808 C810 1.363 . S
C808 H824 0.931 . S
C809 C808 1.370 . S
C809 C813 1.408 . S
C810 C808 1.363 . S
C810 C811 1.370 . S
C810 C814 1.524 . S
C811 C803 1.503 . S
C811 C810 1.370 . S
C811 C812 1.403 . S
C812 C811 1.403 . S
C812 C813 1.404 . S
C812 C815 1.539 . S
C813 C809 1.408 . S
C813 C812 1.404 . S
C813 H825 0.930 . S
C814 C810 1.524 . S
C814 H826 0.956 . S
C814 H827 0.961 . S
C814 H828 0.961 . S
C815 C812 1.539 . S
C815 H829 0.958 . S
C815 H830 0.961 . S
C815 H831 0.960 . S
H816 C800 0.931 . S
H817 C805 0.929 . S
H818 C806 0.960 . S
H819 C806 0.962 . S
H820 C806 0.960 . S
H821 C807 0.961 . S
H822 C807 0.961 . S
H823 C807 0.961 . S
H824 C808 0.931 . S
H825 C813 0.930 . S
H826 C814 0.956 . S
H827 C814 0.961 . S
H828 C814 0.961 . S
H829 C815 0.958 . S
H830 C815 0.961 . S
H831 C815 0.960 . S
C832 C833 1.391 . S
C832 C834 1.394 . S
C832 H848 0.931 . S
C833 C832 1.391 . S
C833 C837 1.376 . S
C834 C832 1.394 . S
C834 C835 1.369 . S
C834 C838 1.531 . S
C835 C834 1.369 . S
C835 C836 1.410 . S
C835 C843 1.503 1_455 S
C836 C835 1.410 . S
C836 C837 1.392 . S
C836 C839 1.511 . S
C837 C833 1.376 . S
C837 C836 1.392 . S
C837 H849 0.929 . S
C838 C834 1.531 . S
C838 H850 0.960 1_455 S
C838 H851 0.962 . S
C838 H852 0.960 . S
C839 C836 1.511 . S
C839 H853 0.961 . S
C839 H854 0.961 1_455 S
C839 H855 0.961 1_455 S
C840 C841 1.370 . S
C840 C842 1.363 . S
C840 H856 0.931 . S
C841 C840 1.370 . S
C841 C845 1.408 . S
C842 C840 1.363 . S
C842 C843 1.370 . S
C842 C846 1.524 1_655 S
C843 C835 1.503 1_655 S
C843 C842 1.370 . S
C843 C844 1.403 . S
C844 C843 1.403 . S
C844 C845 1.404 . S
C844 C847 1.539 . S
C845 C841 1.408 . S
C845 C844 1.404 . S
C845 H857 0.930 . S
C846 C842 1.524 1_455 S
C846 H858 0.956 . S
C846 H859 0.961 . S
C846 H860 0.961 . S
C847 C844 1.539 . S
C847 H861 0.958 . S
C847 H862 0.961 . S
C847 H863 0.960 . S
H848 C832 0.931 . S
H849 C837 0.929 . S
H850 C838 0.960 1_655 S
H851 C838 0.962 . S
H852 C838 0.960 . S
H853 C839 0.961 . S
H854 C839 0.961 1_655 S
H855 C839 0.961 1_655 S
H856 C840 0.931 . S
H857 C845 0.930 . S
H858 C846 0.956 . S
H859 C846 0.961 . S
H860 C846 0.961 . S
H861 C847 0.958 . S
H862 C847 0.961 . S
H863 C847 0.960 . S
C864 C865 1.391 . S
C864 C866 1.394 . S
C864 H880 0.931 . S
C865 C864 1.391 . S
C865 C869 1.376 1_455 S
C866 C864 1.394 . S
C866 C867 1.356 1_455 S
C866 C870 1.531 . S
C867 C866 1.356 1_655 S
C867 C868 1.419 . S
C867 C875 1.506 . S
C868 C867 1.419 . S
C868 C869 1.392 . S
C868 C871 1.511 . S
C869 C865 1.376 1_655 S
C869 C868 1.392 . S
C869 H881 0.929 . S
C870 C866 1.531 . S
C870 H882 0.960 . S
C870 H883 0.962 . S
C870 H884 0.960 . S
C871 C868 1.511 . S
C871 H885 0.961 . S
C871 H886 0.961 . S
C871 H887 0.961 . S
C872 C873 1.370 . S
C872 C874 1.363 . S
C872 H888 0.931 . S
C873 C872 1.370 . S
C873 C877 1.408 . S
C874 C872 1.363 . S
C874 C875 1.370 . S
C874 C878 1.524 . S
C875 C867 1.506 . S
C875 C874 1.370 . S
C875 C876 1.403 . S
C876 C875 1.403 . S
C876 C877 1.404 . S
C876 C879 1.539 . S
C877 C873 1.408 . S
C877 C876 1.404 . S
C877 H889 0.930 . S
C878 C874 1.524 . S
C878 H890 0.956 1_655 S
C878 H891 0.961 . S
C878 H892 0.961 . S
C879 C876 1.539 . S
C879 H893 0.958 . S
C879 H894 0.961 . S
C879 H895 0.960 . S
H880 C864 0.931 . S
H881 C869 0.929 . S
H882 C870 0.960 . S
H883 C870 0.962 . S
H884 C870 0.960 . S
H885 C871 0.961 . S
H886 C871 0.961 . S
H887 C871 0.961 . S
H888 C872 0.931 . S
H889 C877 0.930 . S
H890 C878 0.956 1_455 S
H891 C878 0.961 . S
H892 C878 0.961 . S
H893 C879 0.958 . S
H894 C879 0.961 . S
H895 C879 0.960 . S
C896 C897 1.391 . S
C896 C898 1.394 . S
C896 H912 0.931 . S
C897 C896 1.391 . S
C897 C901 1.376 1_545 S
C898 C896 1.394 . S
C898 C899 1.369 . S
C898 C902 1.531 1_554 S
C899 C898 1.369 . S
C899 C900 1.410 1_545 S
C899 C907 1.497 1_544 S
C900 C899 1.410 1_565 S
C900 C901 1.392 . S
C900 C903 1.511 . S
C901 C897 1.376 1_565 S
C901 C900 1.392 . S
C901 H913 0.929 . S
C902 C898 1.531 1_556 S
C902 H914 0.960 . S
C902 H915 0.962 . S
C902 H916 0.935 1_556 S
C903 C900 1.511 . S
C903 H917 0.961 . S
C903 H918 0.961 . S
C903 H919 0.961 . S
C904 C905 1.370 . S
C904 C906 1.363 . S
C904 H920 0.931 . S
C905 C904 1.370 . S
C905 C909 1.408 . S
C906 C904 1.363 . S
C906 C907 1.385 . S
C906 C910 1.524 . S
C907 C899 1.497 1_566 S
C907 C906 1.385 . S
C907 C908 1.394 1_565 S
C908 C907 1.394 1_545 S
C908 C909 1.404 1_545 S
C908 C911 1.534 . S
C909 C905 1.408 . S
C909 C908 1.404 1_565 S
C909 H921 0.930 1_565 S
C910 C906 1.524 . S
C910 H922 0.956 1_565 S
C910 H923 0.961 . S
C910 H924 0.961 . S
C911 C908 1.534 . S
C911 H925 0.958 . S
C911 H926 0.961 . S
C911 H927 0.965 1_556 S
H912 C896 0.931 . S
H913 C901 0.929 . S
H914 C902 0.960 . S
H915 C902 0.962 . S
H916 C902 0.935 1_554 S
H917 C903 0.961 . S
H918 C903 0.961 . S
H919 C903 0.961 . S
H920 C904 0.931 . S
H921 C909 0.930 1_545 S
H922 C910 0.956 1_545 S
H923 C910 0.961 . S
H924 C910 0.961 . S
H925 C911 0.958 . S
H926 C911 0.961 . S
H927 C911 0.965 1_554 S
C928 C929 1.391 . S
C928 C930 1.394 . S
C928 H944 0.931 . S
C929 C928 1.391 . S
C929 C933 1.376 . S
C930 C928 1.394 . S
C930 C931 1.369 . S
C930 C934 1.531 . S
C931 C930 1.369 . S
C931 C932 1.410 . S
C931 C939 1.503 . S
C932 C931 1.410 . S
C932 C933 1.392 . S
C932 C935 1.511 . S
C933 C929 1.376 . S
C933 C932 1.392 . S
C933 H945 0.929 . S
C934 C930 1.531 . S
C934 H946 0.960 . S
C934 H947 0.962 . S
C934 H948 0.960 . S
C935 C932 1.511 . S
C935 H949 0.961 . S
C935 H950 0.961 . S
C935 H951 0.961 . S
C936 C937 1.370 . S
C936 C938 1.363 . S
C936 H952 0.931 . S
C937 C936 1.370 . S
C937 C941 1.408 . S
C938 C936 1.363 . S
C938 C939 1.370 . S
C938 C942 1.524 . S
C939 C931 1.503 . S
C939 C938 1.370 . S
C939 C940 1.403 . S
C940 C939 1.403 . S
C940 C941 1.404 . S
C940 C943 1.539 . S
C941 C937 1.408 . S
C941 C940 1.404 . S
C941 H953 0.930 . S
C942 C938 1.524 . S
C942 H954 0.956 . S
C942 H955 0.961 . S
C942 H956 0.961 . S
C943 C940 1.539 . S
C943 H957 0.958 . S
C943 H958 0.961 . S
C943 H959 0.960 . S
H944 C928 0.931 . S
H945 C933 0.929 . S
H946 C934 0.960 . S
H947 C934 0.962 . S
H948 C934 0.960 . S
H949 C935 0.961 . S
H950 C935 0.961 . S
H951 C935 0.961 . S
H952 C936 0.931 . S
H953 C941 0.930 . S
H954 C942 0.956 . S
H955 C942 0.961 . S
H956 C942 0.961 . S
H957 C943 0.958 . S
H958 C943 0.961 . S
H959 C943 0.960 . S
C960 C961 1.391 . S
C960 C962 1.394 . S
C960 H976 0.931 . S
C961 C960 1.391 . S
C961 C965 1.376 . S
C962 C960 1.394 . S
C962 C963 1.369 1_565 S
C962 C966 1.531 1_455 S
C963 C962 1.369 1_545 S
C963 C964 1.410 . S
C963 C971 1.503 1_455 S
C964 C963 1.410 . S
C964 C965 1.392 1_545 S
C964 C967 1.511 . S
C965 C961 1.376 . S
C965 C964 1.392 1_565 S
C965 H977 0.929 . S
C966 C962 1.531 1_655 S
C966 H978 0.960 1_565 S
C966 H979 0.962 . S
C966 H980 0.960 . S
C967 C964 1.511 . S
C967 H981 0.961 . S
C967 H982 0.961 . S
C967 H983 0.961 . S
C968 C969 1.370 1_565 S
C968 C970 1.363 . S
C968 H984 0.931 . S
C969 C968 1.370 1_545 S
C969 C973 1.408 . S
C970 C968 1.363 . S
C970 C971 1.370 1_565 S
C970 C974 1.524 . S
C971 C963 1.503 1_655 S
C971 C970 1.370 1_545 S
C971 C972 1.403 . S
C972 C971 1.403 . S
C972 C973 1.404 . S
C972 C975 1.539 . S
C973 C969 1.408 . S
C973 C972 1.404 . S
C973 H985 0.930 . S
C974 C970 1.524 . S
C974 H986 0.956 . S
C974 H987 0.961 1_655 S
C974 H988 0.961 . S
C975 C972 1.539 . S
C975 H989 0.958 . S
C975 H990 0.961 . S
C975 H991 0.983 . S
H976 C960 0.931 . S
H977 C965 0.929 . S
H978 C966 0.960 1_545 S
H979 C966 0.962 . S
H980 C966 0.960 . S
H981 C967 0.961 . S
H982 C967 0.961 . S
H983 C967 0.961 . S
H984 C968 0.931 . S
H985 C973 0.930 . S
H986 C974 0.956 . S
H987 C974 0.961 1_455 S
H988 C974 0.961 . S
H989 C975 0.958 . S
H990 C975 0.961 . S
H991 C975 0.983 . S
C992 C993 1.391 . S
C992 C994 1.394 . S
C992 H1008 0.931 . S
C993 C992 1.391 . S
C993 C997 1.376 . S
C994 C992 1.394 . S
C994 C995 1.369 . S
C994 C998 1.531 . S
C995 C994 1.369 . S
C995 C996 1.410 . S
C995 C1003 1.503 . S
C996 C995 1.410 . S
C996 C997 1.392 . S
C996 C999 1.511 . S
C997 C993 1.376 . S
C997 C996 1.392 . S
C997 H1009 0.929 . S
C998 C994 1.531 . S
C998 H1010 0.960 . S
C998 H1011 0.962 . S
C998 H1012 0.960 . S
C999 C996 1.511 . S
C999 H1013 0.961 . S
C999 H1014 0.961 . S
C999 H1015 0.961 . S
C1000 C1001 1.370 . S
C1000 C1002 1.363 . S
C1000 H1016 0.931 . S
C1001 C1000 1.370 . S
C1001 C1005 1.408 . S
C1002 C1000 1.363 . S
C1002 C1003 1.370 . S
C1002 C1006 1.524 . S
C1003 C995 1.503 . S
C1003 C1002 1.370 . S
C1003 C1004 1.403 . S
C1004 C1003 1.403 . S
C1004 C1005 1.404 . S
C1004 C1007 1.539 . S
C1005 C1001 1.408 . S
C1005 C1004 1.404 . S
C1005 H1017 0.930 . S
C1006 C1002 1.524 . S
C1006 H1018 0.956 . S
C1006 H1019 0.961 . S
C1006 H1020 0.961 . S
C1007 C1004 1.539 . S
C1007 H1021 0.958 . S
C1007 H1022 0.961 . S
C1007 H1023 0.960 . S
H1008 C992 0.931 . S
H1009 C997 0.929 . S
H1010 C998 0.960 . S
H1011 C998 0.962 . S
H1012 C998 0.960 . S
H1013 C999 0.961 . S
H1014 C999 0.961 . S
H1015 C999 0.961 . S
H1016 C1000 0.931 . S
H1017 C1005 0.930 . S
H1018 C1006 0.956 . S
H1019 C1006 0.961 . S
H1020 C1006 0.961 . S
H1021 C1007 0.958 . S
H1022 C1007 0.961 . S
H1023 C1007 0.960 . S
C1024 C1025 1.391 . S
C1024 C1026 1.394 . S
C1024 H1040 0.931 . S
C1025 C1024 1.391 . S
C1025 C1029 1.376 . S
C1026 C1024 1.394 . S
C1026 C1027 1.369 . S
C1026 C1030 1.531 . S
C1027 C1026 1.369 . S
C1027 C1028 1.410 . S
C1027 C1035 1.503 . S
C1028 C1027 1.410 . S
C1028 C1029 1.392 . S
C1028 C1031 1.511 . S
C1029 C1025 1.376 . S
C1029 C1028 1.392 . S
C1029 H1041 0.929 . S
C1030 C1026 1.531 . S
C1030 H1042 0.960 . S
C1030 H1043 0.962 . S
C1030 H1044 0.960 . S
C1031 C1028 1.511 . S
C1031 H1045 0.961 . S
C1031 H1046 0.961 . S
C1031 H1047 0.961 . S
C1032 C1033 1.370 . S
C1032 C1034 1.363 . S
C1032 H1048 0.931 . S
C1033 C1032 1.370 . S
C1033 C1037 1.408 . S
C1034 C1032 1.363 . S
C1034 C1035 1.370 . S
C1034 C1038 1.524 . S
C1035 C1027 1.503 . S
C1035 C1034 1.370 . S
C1035 C1036 1.403 . S
C1036 C1035 1.403 . S
C1036 C1037 1.404 . S
C1036 C1039 1.539 . S
C1037 C1033 1.408 . S
C1037 C1036 1.404 . S
C1037 H1049 0.930 . S
C1038 C1034 1.524 . S
C1038 H1050 0.956 . S
C1038 H1051 0.961 . S
C1038 H1052 0.961 . S
C1039 C1036 1.539 . S
C1039 H1053 0.958 . S
C1039 H1054 0.961 . S
C1039 H1055 0.960 . S
H1040 C1024 0.931 . S
H1041 C1029 0.929 . S
H1042 C1030 0.960 . S
H1043 C1030 0.962 . S
H1044 C1030 0.960 . S
H1045 C1031 0.961 . S
H1046 C1031 0.961 . S
H1047 C1031 0.961 . S
H1048 C1032 0.931 . S
H1049 C1037 0.930 . S
H1050 C1038 0.956 . S
H1051 C1038 0.961 . S
H1052 C1038 0.961 . S
H1053 C1039 0.958 . S
H1054 C1039 0.961 . S
H1055 C1039 0.960 . S
C1056 C1057 1.391 . S
C1056 C1058 1.394 . S
C1056 H1072 0.931 . S
C1057 C1056 1.391 . S
C1057 C1061 1.376 . S
C1058 C1056 1.394 . S
C1058 C1059 1.369 . S
C1058 C1062 1.531 . S
C1059 C1058 1.369 . S
C1059 C1060 1.410 . S
C1059 C1067 1.503 . S
C1060 C1059 1.410 . S
C1060 C1061 1.392 . S
C1060 C1063 1.511 . S
C1061 C1057 1.376 . S
C1061 C1060 1.392 . S
C1061 H1073 0.929 . S
C1062 C1058 1.531 . S
C1062 H1074 0.960 . S
C1062 H1075 0.962 . S
C1062 H1076 0.960 . S
C1063 C1060 1.511 . S
C1063 H1077 0.961 . S
C1063 H1078 0.961 . S
C1063 H1079 0.961 . S
C1064 C1065 1.370 . S
C1064 C1066 1.363 . S
C1064 H1080 0.931 . S
C1065 C1064 1.370 . S
C1065 C1069 1.408 . S
C1066 C1064 1.363 . S
C1066 C1067 1.370 . S
C1066 C1070 1.524 . S
C1067 C1059 1.503 . S
C1067 C1066 1.370 . S
C1067 C1068 1.403 . S
C1068 C1067 1.403 . S
C1068 C1069 1.404 . S
C1068 C1071 1.539 . S
C1069 C1065 1.408 . S
C1069 C1068 1.404 . S
C1069 H1081 0.930 . S
C1070 C1066 1.524 . S
C1070 H1082 0.956 . S
C1070 H1083 0.961 . S
C1070 H1084 0.961 . S
C1071 C1068 1.539 . S
C1071 H1085 0.958 . S
C1071 H1086 0.961 . S
C1071 H1087 0.960 . S
H1072 C1056 0.931 . S
H1073 C1061 0.929 . S
H1074 C1062 0.960 . S
H1075 C1062 0.962 . S
H1076 C1062 0.960 . S
H1077 C1063 0.961 . S
H1078 C1063 0.961 . S
H1079 C1063 0.961 . S
H1080 C1064 0.931 . S
H1081 C1069 0.930 . S
H1082 C1070 0.956 . S
H1083 C1070 0.961 . S
H1084 C1070 0.961 . S
H1085 C1071 0.958 . S
H1086 C1071 0.961 . S
H1087 C1071 0.960 . S
C1088 C1089 1.391 . S
C1088 C1090 1.394 . S
C1088 H1104 0.931 . S
C1089 C1088 1.391 . S
C1089 C1093 1.376 . S
C1090 C1088 1.394 . S
C1090 C1091 1.369 . S
C1090 C1094 1.531 . S
C1091 C1090 1.369 . S
C1091 C1092 1.410 1_455 S
C1091 C1099 1.503 1_455 S
C1092 C1091 1.410 1_655 S
C1092 C1093 1.392 1_655 S
C1092 C1095 1.511 . S
C1093 C1089 1.376 . S
C1093 C1092 1.392 1_455 S
C1093 H1105 0.929 . S
C1094 C1090 1.531 . S
C1094 H1106 0.960 . S
C1094 H1107 0.962 . S
C1094 H1108 0.960 . S
C1095 C1092 1.511 . S
C1095 H1109 0.961 . S
C1095 H1110 0.961 . S
C1095 H1111 0.961 . S
C1096 C1097 1.370 . S
C1096 C1098 1.363 . S
C1096 H1112 0.931 . S
C1097 C1096 1.370 . S
C1097 C1101 1.408 . S
C1098 C1096 1.363 . S
C1098 C1099 1.370 . S
C1098 C1102 1.524 1_655 S
C1099 C1091 1.503 1_655 S
C1099 C1098 1.370 . S
C1099 C1100 1.403 . S
C1100 C1099 1.403 . S
C1100 C1101 1.404 . S
C1100 C1103 1.539 . S
C1101 C1097 1.408 . S
C1101 C1100 1.404 . S
C1101 H1113 0.930 . S
C1102 C1098 1.524 1_455 S
C1102 H1114 0.956 . S
C1102 H1115 0.961 . S
C1102 H1116 0.961 . S
C1103 C1100 1.539 . S
C1103 H1117 0.958 . S
C1103 H1118 0.961 . S
C1103 H1119 0.960 . S
H1104 C1088 0.931 . S
H1105 C1093 0.929 . S
H1106 C1094 0.960 . S
H1107 C1094 0.962 . S
H1108 C1094 0.960 . S
H1109 C1095 0.961 . S
H1110 C1095 0.961 . S
H1111 C1095 0.961 . S
H1112 C1096 0.931 . S
H1113 C1101 0.930 . S
H1114 C1102 0.956 . S
H1115 C1102 0.961 . S
H1116 C1102 0.961 . S
H1117 C1103 0.958 . S
H1118 C1103 0.961 . S
H1119 C1103 0.960 . S
C1120 C1121 1.391 . S
C1120 C1122 1.430 . S
C1120 H1136 0.931 . S
C1121 C1120 1.391 . S
C1121 C1125 1.376 . S
C1122 C1120 1.430 . S
C1122 C1123 1.381 . S
C1122 C1126 1.483 1_554 S
C1123 C1122 1.381 . S
C1123 C1124 1.410 . S
C1123 C1131 1.503 1_554 S
C1124 C1123 1.410 . S
C1124 C1125 1.392 . S
C1124 C1127 1.511 . S
C1125 C1121 1.376 . S
C1125 C1124 1.392 . S
C1125 H1137 0.929 . S
C1126 C1122 1.483 1_556 S
C1126 H1138 0.960 . S
C1126 H1139 0.962 . S
C1126 H1140 0.960 . S
C1127 C1124 1.511 . S
C1127 H1141 0.961 . S
C1127 H1142 0.961 . S
C1127 H1143 0.961 . S
C1128 C1129 1.370 . S
C1128 C1130 1.363 . S
C1128 H1144 0.931 . S
C1129 C1128 1.370 . S
C1129 C1133 1.408 . S
C1130 C1128 1.363 . S
C1130 C1131 1.370 . S
C1130 C1134 1.524 . S
C1131 C1123 1.503 1_556 S
C1131 C1130 1.370 . S
C1131 C1132 1.403 . S
C1132 C1131 1.403 . S
C1132 C1133 1.404 . S
C1132 C1135 1.539 . S
C1133 C1129 1.408 . S
C1133 C1132 1.404 . S
C1133 H1145 0.930 . S
C1134 C1130 1.524 . S
C1134 H1146 0.956 . S
C1134 H1147 0.961 1_556 S
C1134 H1148 0.961 . S
C1135 C1132 1.539 . S
C1135 H1149 0.958 . S
C1135 H1150 0.961 . S
C1135 H1151 0.960 1_556 S
H1136 C1120 0.931 . S
H1137 C1125 0.929 . S
H1138 C1126 0.960 . S
H1139 C1126 0.962 . S
H1140 C1126 0.960 . S
H1141 C1127 0.961 . S
H1142 C1127 0.961 . S
H1143 C1127 0.961 . S
H1144 C1128 0.931 . S
H1145 C1133 0.930 . S
H1146 C1134 0.956 . S
H1147 C1134 0.961 1_554 S
H1148 C1134 0.961 . S
H1149 C1135 0.958 . S
H1150 C1135 0.961 . S
H1151 C1135 0.960 1_554 S
C1152 C1153 1.391 . S
C1152 C1154 1.394 . S
C1152 H1168 0.931 . S
C1153 C1152 1.391 . S
C1153 C1157 1.376 . S
C1154 C1152 1.394 . S
C1154 C1155 1.369 . S
C1154 C1158 1.531 . S
C1155 C1154 1.369 . S
C1155 C1156 1.410 . S
C1155 C1163 1.503 . S
C1156 C1155 1.410 . S
C1156 C1157 1.392 . S
C1156 C1159 1.511 . S
C1157 C1153 1.376 . S
C1157 C1156 1.392 . S
C1157 H1169 0.929 . S
C1158 C1154 1.531 . S
C1158 H1170 0.960 . S
C1158 H1171 0.962 . S
C1158 H1172 0.960 . S
C1159 C1156 1.511 . S
C1159 H1173 0.961 . S
C1159 H1174 0.961 . S
C1159 H1175 0.961 . S
C1160 C1161 1.370 . S
C1160 C1162 1.363 . S
C1160 H1176 0.931 . S
C1161 C1160 1.370 . S
C1161 C1165 1.408 . S
C1162 C1160 1.363 . S
C1162 C1163 1.370 . S
C1162 C1166 1.524 . S
C1163 C1155 1.503 . S
C1163 C1162 1.370 . S
C1163 C1164 1.403 . S
C1164 C1163 1.403 . S
C1164 C1165 1.404 . S
C1164 C1167 1.539 . S
C1165 C1161 1.408 . S
C1165 C1164 1.404 . S
C1165 H1177 0.930 . S
C1166 C1162 1.524 . S
C1166 H1178 0.956 . S
C1166 H1179 0.961 . S
C1166 H1180 0.961 . S
C1167 C1164 1.539 . S
C1167 H1181 0.958 . S
C1167 H1182 0.961 . S
C1167 H1183 0.960 . S
H1168 C1152 0.931 . S
H1169 C1157 0.929 . S
H1170 C1158 0.960 . S
H1171 C1158 0.962 . S
H1172 C1158 0.960 . S
H1173 C1159 0.961 . S
H1174 C1159 0.961 . S
H1175 C1159 0.961 . S
H1176 C1160 0.931 . S
H1177 C1165 0.930 . S
H1178 C1166 0.956 . S
H1179 C1166 0.961 . S
H1180 C1166 0.961 . S
H1181 C1167 0.958 . S
H1182 C1167 0.961 . S
H1183 C1167 0.960 . S
C1184 C1185 1.391 . S
C1184 C1186 1.394 . S
C1184 H1200 0.931 . S
C1185 C1184 1.391 . S
C1185 C1189 1.376 . S
C1186 C1184 1.394 . S
C1186 C1187 1.369 . S
C1186 C1190 1.531 . S
C1187 C1186 1.369 . S
C1187 C1188 1.410 . S
C1187 C1195 1.503 . S
C1188 C1187 1.410 . S
C1188 C1189 1.392 . S
C1188 C1191 1.511 . S
C1189 C1185 1.376 . S
C1189 C1188 1.392 . S
C1189 H1201 0.929 . S
C1190 C1186 1.531 . S
C1190 H1202 0.960 . S
C1190 H1203 0.962 . S
C1190 H1204 0.960 . S
C1191 C1188 1.511 . S
C1191 H1205 0.961 . S
C1191 H1206 0.961 . S
C1191 H1207 0.961 . S
C1192 C1193 1.370 . S
C1192 C1194 1.363 . S
C1192 H1208 0.931 . S
C1193 C1192 1.370 . S
C1193 C1197 1.408 . S
C1194 C1192 1.363 . S
C1194 C1195 1.370 . S
C1194 C1198 1.524 . S
C1195 C1187 1.503 . S
C1195 C1194 1.370 . S
C1195 C1196 1.403 . S
C1196 C1195 1.403 . S
C1196 C1197 1.404 . S
C1196 C1199 1.539 . S
C1197 C1193 1.408 . S
C1197 C1196 1.404 . S
C1197 H1209 0.930 . S
C1198 C1194 1.524 . S
C1198 H1210 0.956 . S
C1198 H1211 0.961 . S
C1198 H1212 0.961 . S
C1199 C1196 1.539 . S
C1199 H1213 0.958 . S
C1199 H1214 0.961 . S
C1199 H1215 0.960 . S
H1200 C1184 0.931 . S
H1201 C1189 0.929 . S
H1202 C1190 0.960 . S
H1203 C1190 0.962 . S
H1204 C1190 0.960 . S
H1205 C1191 0.961 . S
H1206 C1191 0.961 . S
H1207 C1191 0.961 . S
H1208 C1192 0.931 . S
H1209 C1197 0.930 . S
H1210 C1198 0.956 . S
H1211 C1198 0.961 . S
H1212 C1198 0.961 . S
H1213 C1199 0.958 . S
H1214 C1199 0.961 . S
H1215 C1199 0.960 . S
C1216 C1217 1.391 . S
C1216 C1218 1.394 . S
C1216 H1232 0.931 . S
C1217 C1216 1.391 . S
C1217 C1221 1.376 . S
C1218 C1216 1.394 . S
C1218 C1219 1.369 . S
C1218 C1222 1.531 . S
C1219 C1218 1.369 . S
C1219 C1220 1.410 . S
C1219 C1227 1.503 . S
C1220 C1219 1.410 . S
C1220 C1221 1.392 . S
C1220 C1223 1.511 . S
C1221 C1217 1.376 . S
C1221 C1220 1.392 . S
C1221 H1233 0.929 . S
C1222 C1218 1.531 . S
C1222 H1234 0.960 . S
C1222 H1235 0.962 . S
C1222 H1236 0.960 . S
C1223 C1220 1.511 . S
C1223 H1237 0.961 . S
C1223 H1238 0.961 . S
C1223 H1239 0.961 . S
C1224 C1225 1.370 . S
C1224 C1226 1.363 . S
C1224 H1240 0.931 . S
C1225 C1224 1.370 . S
C1225 C1229 1.408 . S
C1226 C1224 1.363 . S
C1226 C1227 1.370 . S
C1226 C1230 1.524 . S
C1227 C1219 1.503 . S
C1227 C1226 1.370 . S
C1227 C1228 1.403 . S
C1228 C1227 1.403 . S
C1228 C1229 1.404 . S
C1228 C1231 1.539 . S
C1229 C1225 1.408 . S
C1229 C1228 1.404 . S
C1229 H1241 0.930 . S
C1230 C1226 1.524 . S
C1230 H1242 0.956 . S
C1230 H1243 0.961 . S
C1230 H1244 0.961 . S
C1231 C1228 1.539 . S
C1231 H1245 0.958 . S
C1231 H1246 0.961 . S
C1231 H1247 0.960 . S
H1232 C1216 0.931 . S
H1233 C1221 0.929 . S
H1234 C1222 0.960 . S
H1235 C1222 0.962 . S
H1236 C1222 0.960 . S
H1237 C1223 0.961 . S
H1238 C1223 0.961 . S
H1239 C1223 0.961 . S
H1240 C1224 0.931 . S
H1241 C1229 0.930 . S
H1242 C1230 0.956 . S
H1243 C1230 0.961 . S
H1244 C1230 0.961 . S
H1245 C1231 0.958 . S
H1246 C1231 0.961 . S
H1247 C1231 0.960 . S
C1248 C1249 1.391 . S
C1248 C1250 1.394 . S
C1248 H1264 0.931 . S
C1249 C1248 1.391 . S
C1249 C1253 1.376 . S
C1250 C1248 1.394 . S
C1250 C1251 1.369 . S
C1250 C1254 1.531 . S
C1251 C1250 1.369 . S
C1251 C1252 1.410 . S
C1251 C1259 1.503 . S
C1252 C1251 1.410 . S
C1252 C1253 1.392 . S
C1252 C1255 1.511 . S
C1253 C1249 1.376 . S
C1253 C1252 1.392 . S
C1253 H1265 0.929 . S
C1254 C1250 1.531 . S
C1254 H1266 0.960 . S
C1254 H1267 0.962 . S
C1254 H1268 0.960 . S
C1255 C1252 1.511 . S
C1255 H1269 0.961 . S
C1255 H1270 0.961 . S
C1255 H1271 0.961 . S
C1256 C1257 1.370 . S
C1256 C1258 1.363 . S
C1256 H1272 0.931 . S
C1257 C1256 1.370 . S
C1257 C1261 1.408 . S
C1258 C1256 1.363 . S
C1258 C1259 1.370 . S
C1258 C1262 1.524 . S
C1259 C1251 1.503 . S
C1259 C1258 1.370 . S
C1259 C1260 1.403 . S
C1260 C1259 1.403 . S
C1260 C1261 1.404 . S
C1260 C1263 1.539 . S
C1261 C1257 1.408 . S
C1261 C1260 1.404 . S
C1261 H1273 0.930 . S
C1262 C1258 1.524 . S
C1262 H1274 0.956 . S
C1262 H1275 0.961 . S
C1262 H1276 0.961 . S
C1263 C1260 1.539 . S
C1263 H1277 0.958 . S
C1263 H1278 0.961 . S
C1263 H1279 0.960 . S
H1264 C1248 0.931 . S
H1265 C1253 0.929 . S
H1266 C1254 0.960 . S
H1267 C1254 0.962 . S
H1268 C1254 0.960 . S
H1269 C1255 0.961 . S
H1270 C1255 0.961 . S
H1271 C1255 0.961 . S
H1272 C1256 0.931 . S
H1273 C1261 0.930 . S
H1274 C1262 0.956 . S
H1275 C1262 0.961 . S
H1276 C1262 0.961 . S
H1277 C1263 0.958 . S
H1278 C1263 0.961 . S
H1279 C1263 0.960 . S
C1280 C1281 1.391 . S
C1280 C1282 1.394 . S
C1280 H1296 0.931 . S
C1281 C1280 1.391 . S
C1281 C1285 1.376 . S
C1282 C1280 1.394 . S
C1282 C1283 1.369 . S
C1282 C1286 1.531 . S
C1283 C1282 1.369 . S
C1283 C1284 1.410 . S
C1283 C1291 1.503 . S
C1284 C1283 1.410 . S
C1284 C1285 1.392 . S
C1284 C1287 1.511 . S
C1285 C1281 1.376 . S
C1285 C1284 1.392 . S
C1285 H1297 0.929 . S
C1286 C1282 1.531 . S
C1286 H1298 0.960 . S
C1286 H1299 0.962 . S
C1286 H1300 0.960 . S
C1287 C1284 1.511 . S
C1287 H1301 0.961 . S
C1287 H1302 0.961 . S
C1287 H1303 0.961 . S
C1288 C1289 1.370 . S
C1288 C1290 1.363 . S
C1288 H1304 0.931 . S
C1289 C1288 1.370 . S
C1289 C1293 1.408 . S
C1290 C1288 1.363 . S
C1290 C1291 1.370 . S
C1290 C1294 1.524 . S
C1291 C1283 1.503 . S
C1291 C1290 1.370 . S
C1291 C1292 1.403 . S
C1292 C1291 1.403 . S
C1292 C1293 1.404 . S
C1292 C1295 1.539 . S
C1293 C1289 1.408 . S
C1293 C1292 1.404 . S
C1293 H1305 0.930 . S
C1294 C1290 1.524 . S
C1294 H1306 0.956 . S
C1294 H1307 0.961 . S
C1294 H1308 0.961 . S
C1295 C1292 1.539 . S
C1295 H1309 0.958 . S
C1295 H1310 0.961 . S
C1295 H1311 0.960 . S
H1296 C1280 0.931 . S
H1297 C1285 0.929 . S
H1298 C1286 0.960 . S
H1299 C1286 0.962 . S
H1300 C1286 0.960 . S
H1301 C1287 0.961 . S
H1302 C1287 0.961 . S
H1303 C1287 0.961 . S
H1304 C1288 0.931 . S
H1305 C1293 0.930 . S
H1306 C1294 0.956 . S
H1307 C1294 0.961 . S
H1308 C1294 0.961 . S
H1309 C1295 0.958 . S
H1310 C1295 0.961 . S
H1311 C1295 0.960 . S
C1312 C1313 1.391 . S
C1312 C1314 1.394 . S
C1312 H1328 0.931 . S
C1313 C1312 1.391 . S
C1313 C1317 1.376 . S
C1314 C1312 1.394 . S
C1314 C1315 1.369 . S
C1314 C1318 1.531 . S
C1315 C1314 1.369 . S
C1315 C1316 1.410 . S
C1315 C1323 1.503 . S
C1316 C1315 1.410 . S
C1316 C1317 1.392 . S
C1316 C1319 1.511 . S
C1317 C1313 1.376 . S
C1317 C1316 1.392 . S
C1317 H1329 0.929 . S
C1318 C1314 1.531 . S
C1318 H1330 0.960 . S
C1318 H1331 0.962 . S
C1318 H1332 0.960 . S
C1319 C1316 1.511 . S
C1319 H1333 0.961 . S
C1319 H1334 0.961 . S
C1319 H1335 0.961 . S
C1320 C1321 1.370 . S
C1320 C1322 1.363 . S
C1320 H1336 0.931 . S
C1321 C1320 1.370 . S
C1321 C1325 1.408 . S
C1322 C1320 1.363 . S
C1322 C1323 1.370 . S
C1322 C1326 1.524 . S
C1323 C1315 1.503 . S
C1323 C1322 1.370 . S
C1323 C1324 1.403 . S
C1324 C1323 1.403 . S
C1324 C1325 1.404 . S
C1324 C1327 1.539 . S
C1325 C1321 1.408 . S
C1325 C1324 1.404 . S
C1325 H1337 0.930 . S
C1326 C1322 1.524 . S
C1326 H1338 0.956 . S
C1326 H1339 0.961 . S
C1326 H1340 0.961 . S
C1327 C1324 1.539 . S
C1327 H1341 0.958 . S
C1327 H1342 0.961 . S
C1327 H1343 0.960 . S
H1328 C1312 0.931 . S
H1329 C1317 0.929 . S
H1330 C1318 0.960 . S
H1331 C1318 0.962 . S
H1332 C1318 0.960 . S
H1333 C1319 0.961 . S
H1334 C1319 0.961 . S
H1335 C1319 0.961 . S
H1336 C1320 0.931 . S
H1337 C1325 0.930 . S
H1338 C1326 0.956 . S
H1339 C1326 0.961 . S
H1340 C1326 0.961 . S
H1341 C1327 0.958 . S
H1342 C1327 0.961 . S
H1343 C1327 0.960 . S
C1344 C1345 1.391 . S
C1344 C1346 1.394 . S
C1344 H1360 0.931 . S
C1345 C1344 1.391 . S
C1345 C1349 1.376 . S
C1346 C1344 1.394 . S
C1346 C1347 1.369 . S
C1346 C1350 1.531 . S
C1347 C1346 1.369 . S
C1347 C1348 1.410 . S
C1347 C1355 1.503 . S
C1348 C1347 1.410 . S
C1348 C1349 1.392 . S
C1348 C1351 1.511 . S
C1349 C1345 1.376 . S
C1349 C1348 1.392 . S
C1349 H1361 0.929 . S
C1350 C1346 1.531 . S
C1350 H1362 0.960 . S
C1350 H1363 0.962 . S
C1350 H1364 0.960 . S
C1351 C1348 1.511 . S
C1351 H1365 0.961 . S
C1351 H1366 0.961 . S
C1351 H1367 0.961 . S
C1352 C1353 1.370 . S
C1352 C1354 1.363 . S
C1352 H1368 0.931 . S
C1353 C1352 1.370 . S
C1353 C1357 1.408 . S
C1354 C1352 1.363 . S
C1354 C1355 1.370 . S
C1354 C1358 1.524 . S
C1355 C1347 1.503 . S
C1355 C1354 1.370 . S
C1355 C1356 1.403 . S
C1356 C1355 1.403 . S
C1356 C1357 1.404 . S
C1356 C1359 1.539 . S
C1357 C1353 1.408 . S
C1357 C1356 1.404 . S
C1357 H1369 0.930 . S
C1358 C1354 1.524 . S
C1358 H1370 0.956 . S
C1358 H1371 0.961 . S
C1358 H1372 0.961 . S
C1359 C1356 1.539 . S
C1359 H1373 0.958 . S
C1359 H1374 0.961 . S
C1359 H1375 0.960 . S
H1360 C1344 0.931 . S
H1361 C1349 0.929 . S
H1362 C1350 0.960 . S
H1363 C1350 0.962 . S
H1364 C1350 0.960 . S
H1365 C1351 0.961 . S
H1366 C1351 0.961 . S
H1367 C1351 0.961 . S
H1368 C1352 0.931 . S
H1369 C1357 0.930 . S
H1370 C1358 0.956 . S
H1371 C1358 0.961 . S
H1372 C1358 0.961 . S
H1373 C1359 0.958 . S
H1374 C1359 0.961 . S
H1375 C1359 0.960 . S
C1376 C1377 1.391 . S
C1376 C1378 1.394 . S
C1376 H1392 0.931 . S
C1377 C1376 1.391 . S
C1377 C1381 1.376 . S
C1378 C1376 1.394 . S
C1378 C1379 1.369 . S
C1378 C1382 1.531 . S
C1379 C1378 1.369 . S
C1379 C1380 1.410 . S
C1379 C1387 1.503 . S
C1380 C1379 1.410 . S
C1380 C1381 1.392 . S
C1380 C1383 1.511 . S
C1381 C1377 1.376 . S
C1381 C1380 1.392 . S
C1381 H1393 0.929 . S
C1382 C1378 1.531 . S
C1382 H1394 0.960 . S
C1382 H1395 0.962 . S
C1382 H1396 0.960 . S
C1383 C1380 1.511 . S
C1383 H1397 0.961 . S
C1383 H1398 0.961 . S
C1383 H1399 0.961 . S
C1384 C1385 1.370 . S
C1384 C1386 1.363 . S
C1384 H1400 0.931 . S
C1385 C1384 1.370 . S
C1385 C1389 1.408 . S
C1386 C1384 1.363 . S
C1386 C1387 1.370 . S
C1386 C1390 1.524 . S
C1387 C1379 1.503 . S
C1387 C1386 1.370 . S
C1387 C1388 1.403 . S
C1388 C1387 1.403 . S
C1388 C1389 1.404 . S
C1388 C1391 1.539 . S
C1389 C1385 1.408 . S
C1389 C1388 1.404 . S
C1389 H1401 0.930 . S
C1390 C1386 1.524 . S
C1390 H1402 0.956 . S
C1390 H1403 0.961 . S
C1390 H1404 0.961 . S
C1391 C1388 1.539 . S
C1391 H1405 0.958 . S
C1391 H1406 0.961 . S
C1391 H1407 0.960 . S
H1392 C1376 0.931 . S
H1393 C1381 0.929 . S
H1394 C1382 0.960 . S
H1395 C1382 0.962 . S
H1396 C1382 0.960 . S
H1397 C1383 0.961 . S
H1398 C1383 0.961 . S
H1399 C1383 0.961 . S
H1400 C1384 0.931 . S
H1401 C1389 0.930 . S
H1402 C1390 0.956 . S
H1403 C1390 0.961 . S
H1404 C1390 0.961 . S
H1405 C1391 0.958 . S
H1406 C1391 0.961 . S
H1407 C1391 0.960 . S
C1408 C1409 1.391 . S
C1408 C1410 1.394 . S
C1408 H1424 0.931 . S
C1409 C1408 1.391 . S
C1409 C1413 1.376 . S
C1410 C1408 1.394 . S
C1410 C1411 1.369 . S
C1410 C1414 1.531 . S
C1411 C1410 1.369 . S
C1411 C1412 1.410 . S
C1411 C1419 1.503 . S
C1412 C1411 1.410 . S
C1412 C1413 1.392 . S
C1412 C1415 1.511 . S
C1413 C1409 1.376 . S
C1413 C1412 1.392 . S
C1413 H1425 0.929 . S
C1414 C1410 1.531 . S
C1414 H1426 0.960 . S
C1414 H1427 0.962 . S
C1414 H1428 0.960 . S
C1415 C1412 1.511 . S
C1415 H1429 0.961 . S
C1415 H1430 0.961 . S
C1415 H1431 0.961 . S
C1416 C1417 1.370 . S
C1416 C1418 1.363 . S
C1416 H1432 0.931 . S
C1417 C1416 1.370 . S
C1417 C1421 1.408 . S
C1418 C1416 1.363 . S
C1418 C1419 1.370 . S
C1418 C1422 1.524 . S
C1419 C1411 1.503 . S
C1419 C1418 1.370 . S
C1419 C1420 1.403 . S
C1420 C1419 1.403 . S
C1420 C1421 1.404 . S
C1420 C1423 1.539 . S
C1421 C1417 1.408 . S
C1421 C1420 1.404 . S
C1421 H1433 0.930 . S
C1422 C1418 1.524 . S
C1422 H1434 0.956 . S
C1422 H1435 0.961 . S
C1422 H1436 0.961 . S
C1423 C1420 1.539 . S
C1423 H1437 0.958 . S
C1423 H1438 0.961 . S
C1423 H1439 0.960 . S
H1424 C1408 0.931 . S
H1425 C1413 0.929 . S
H1426 C1414 0.960 . S
H1427 C1414 0.962 . S
H1428 C1414 0.960 . S
H1429 C1415 0.961 . S
H1430 C1415 0.961 . S
H1431 C1415 0.961 . S
H1432 C1416 0.931 . S
H1433 C1421 0.930 . S
H1434 C1422 0.956 . S
H1435 C1422 0.961 . S
H1436 C1422 0.961 . S
H1437 C1423 0.958 . S
H1438 C1423 0.961 . S
H1439 C1423 0.960 . S
C1440 C1441 1.391 . S
C1440 C1442 1.394 1_565 S
C1440 H1456 0.931 1_565 S
C1441 C1440 1.391 . S
C1441 C1445 1.376 . S
C1442 C1440 1.394 1_545 S
C1442 C1443 1.369 1_545 S
C1442 C1446 1.531 . S
C1443 C1442 1.369 1_565 S
C1443 C1444 1.410 . S
C1443 C1451 1.503 . S
C1444 C1443 1.410 . S
C1444 C1445 1.392 . S
C1444 C1447 1.511 . S
C1445 C1441 1.376 . S
C1445 C1444 1.392 . S
C1445 H1457 0.929 . S
C1446 C1442 1.531 . S
C1446 H1458 0.960 . S
C1446 H1459 0.962 . S
C1446 H1460 0.960 . S
C1447 C1444 1.511 . S
C1447 H1461 0.961 . S
C1447 H1462 0.961 . S
C1447 H1463 0.961 . S
C1448 C1449 1.370 1_655 S
C1448 C1450 1.363 . S
C1448 H1464 0.931 . S
C1449 C1448 1.370 1_455 S
C1449 C1453 1.408 1_545 S
C1450 C1448 1.363 . S
C1450 C1451 1.370 1_545 S
C1450 C1454 1.524 . S
C1451 C1443 1.503 . S
C1451 C1450 1.370 1_565 S
C1451 C1452 1.403 . S
C1452 C1451 1.403 . S
C1452 C1453 1.386 1_655 S
C1452 C1455 1.539 . S
C1453 C1449 1.408 1_565 S
C1453 C1452 1.386 1_455 S
C1453 H1465 0.947 . S
C1454 C1450 1.524 . S
C1454 H1466 0.956 . S
C1454 H1467 0.961 . S
C1454 H1468 0.961 . S
C1455 C1452 1.539 . S
C1455 H1469 0.958 . S
C1455 H1470 0.961 . S
C1455 H1471 0.960 . S
H1456 C1440 0.931 1_545 S
H1457 C1445 0.929 . S
H1458 C1446 0.960 . S
H1459 C1446 0.962 . S
H1460 C1446 0.960 . S
H1461 C1447 0.961 . S
H1462 C1447 0.961 . S
H1463 C1447 0.961 . S
H1464 C1448 0.931 . S
H1465 C1453 0.947 . S
H1466 C1454 0.956 . S
H1467 C1454 0.961 . S
H1468 C1454 0.961 . S
H1469 C1455 0.958 . S
H1470 C1455 0.961 . S
H1471 C1455 0.960 . S
C1472 C1473 1.391 . S
C1472 C1474 1.394 . S
C1472 H1488 0.931 . S
C1473 C1472 1.391 . S
C1473 C1477 1.376 . S
C1474 C1472 1.394 . S
C1474 C1475 1.369 . S
C1474 C1478 1.531 . S
C1475 C1474 1.369 . S
C1475 C1476 1.410 . S
C1475 C1483 1.503 . S
C1476 C1475 1.410 . S
C1476 C1477 1.392 . S
C1476 C1479 1.511 . S
C1477 C1473 1.376 . S
C1477 C1476 1.392 . S
C1477 H1489 0.929 . S
C1478 C1474 1.531 . S
C1478 H1490 0.960 . S
C1478 H1491 0.962 . S
C1478 H1492 0.960 . S
C1479 C1476 1.511 . S
C1479 H1493 0.961 . S
C1479 H1494 0.961 . S
C1479 H1495 0.961 . S
C1480 C1481 1.370 . S
C1480 C1482 1.363 . S
C1480 H1496 0.931 . S
C1481 C1480 1.370 . S
C1481 C1485 1.408 . S
C1482 C1480 1.363 . S
C1482 C1483 1.370 . S
C1482 C1486 1.524 . S
C1483 C1475 1.503 . S
C1483 C1482 1.370 . S
C1483 C1484 1.403 . S
C1484 C1483 1.403 . S
C1484 C1485 1.404 . S
C1484 C1487 1.539 . S
C1485 C1481 1.408 . S
C1485 C1484 1.404 . S
C1485 H1497 0.930 . S
C1486 C1482 1.524 . S
C1486 H1498 0.956 . S
C1486 H1499 0.961 . S
C1486 H1500 0.961 . S
C1487 C1484 1.539 . S
C1487 H1501 0.958 . S
C1487 H1502 0.961 . S
C1487 H1503 0.960 . S
H1488 C1472 0.931 . S
H1489 C1477 0.929 . S
H1490 C1478 0.960 . S
H1491 C1478 0.962 . S
H1492 C1478 0.960 . S
H1493 C1479 0.961 . S
H1494 C1479 0.961 . S
H1495 C1479 0.961 . S
H1496 C1480 0.931 . S
H1497 C1485 0.930 . S
H1498 C1486 0.956 . S
H1499 C1486 0.961 . S
H1500 C1486 0.961 . S
H1501 C1487 0.958 . S
H1502 C1487 0.961 . S
H1503 C1487 0.960 . S
C1504 C1505 1.391 . S
C1504 C1506 1.394 . S
C1504 H1520 0.931 . S
C1505 C1504 1.391 . S
C1505 C1509 1.376 . S
C1506 C1504 1.394 . S
C1506 C1507 1.369 . S
C1506 C1510 1.531 . S
C1507 C1506 1.369 . S
C1507 C1508 1.410 . S
C1507 C1515 1.503 . S
C1508 C1507 1.410 . S
C1508 C1509 1.392 . S
C1508 C1511 1.511 . S
C1509 C1505 1.376 . S
C1509 C1508 1.392 . S
C1509 H1521 0.929 . S
C1510 C1506 1.531 . S
C1510 H1522 0.960 . S
C1510 H1523 0.962 . S
C1510 H1524 0.960 1_545 S
C1511 C1508 1.511 . S
C1511 H1525 0.961 . S
C1511 H1526 0.961 . S
C1511 H1527 0.961 . S
C1512 C1513 1.370 . S
C1512 C1514 1.363 . S
C1512 H1528 0.931 . S
C1513 C1512 1.370 . S
C1513 C1517 1.408 . S
C1514 C1512 1.363 . S
C1514 C1515 1.370 . S
C1514 C1518 1.524 . S
C1515 C1507 1.503 . S
C1515 C1514 1.370 . S
C1515 C1516 1.403 . S
C1516 C1515 1.403 . S
C1516 C1517 1.404 . S
C1516 C1519 1.539 1_545 S
C1517 C1513 1.408 . S
C1517 C1516 1.404 . S
C1517 H1529 0.930 1_545 S
C1518 C1514 1.524 . S
C1518 H1530 0.956 . S
C1518 H1531 0.961 . S
C1518 H1532 0.961 . S
C1519 C1516 1.539 1_565 S
C1519 H1533 0.958 . S
C1519 H1534 0.961 . S
C1519 H1535 0.960 . S
H1520 C1504 0.931 . S
H1521 C1509 0.929 . S
H1522 C1510 0.960 . S
H1523 C1510 0.962 . S
H1524 C1510 0.960 1_565 S
H1525 C1511 0.961 . S
H1526 C1511 0.961 . S
H1527 C1511 0.961 . S
H1528 C1512 0.931 . S
H1529 C1517 0.930 1_565 S
H1530 C1518 0.956 . S
H1531 C1518 0.961 . S
H1532 C1518 0.961 . S
H1533 C1519 0.958 . S
H1534 C1519 0.961 . S
H1535 C1519 0.960 . S
C1536 C1537 1.391 . S
C1536 C1538 1.394 . S
C1536 H1552 0.931 . S
C1537 C1536 1.391 . S
C1537 C1541 1.376 . S
C1538 C1536 1.394 . S
C1538 C1539 1.369 . S
C1538 C1542 1.531 . S
C1539 C1538 1.369 . S
C1539 C1540 1.410 . S
C1539 C1547 1.503 . S
C1540 C1539 1.410 . S
C1540 C1541 1.392 . S
C1540 C1543 1.511 . S
C1541 C1537 1.376 . S
C1541 C1540 1.392 . S
C1541 H1553 0.929 . S
C1542 C1538 1.531 . S
C1542 H1554 0.960 . S
C1542 H1555 0.962 . S
C1542 H1556 0.960 . S
C1543 C1540 1.511 . S
C1543 H1557 0.961 . S
C1543 H1558 0.961 . S
C1543 H1559 0.961 . S
C1544 C1545 1.370 . S
C1544 C1546 1.363 . S
C1544 H1560 0.931 . S
C1545 C1544 1.370 . S
C1545 C1549 1.408 . S
C1546 C1544 1.363 . S
C1546 C1547 1.370 . S
C1546 C1550 1.524 . S
C1547 C1539 1.503 . S
C1547 C1546 1.370 . S
C1547 C1548 1.403 . S
C1548 C1547 1.403 . S
C1548 C1549 1.404 . S
C1548 C1551 1.539 . S
C1549 C1545 1.408 . S
C1549 C1548 1.404 . S
C1549 H1561 0.930 . S
C1550 C1546 1.524 . S
C1550 H1562 0.956 . S
C1550 H1563 0.961 . S
C1550 H1564 0.961 . S
C1551 C1548 1.539 . S
C1551 H1565 0.958 . S
C1551 H1566 0.961 . S
C1551 H1567 0.960 . S
H1552 C1536 0.931 . S
H1553 C1541 0.929 . S
H1554 C1542 0.960 . S
H1555 C1542 0.962 . S
H1556 C1542 0.960 . S
H1557 C1543 0.961 . S
H1558 C1543 0.961 . S
H1559 C1543 0.961 . S
H1560 C1544 0.931 . S
H1561 C1549 0.930 . S
H1562 C1550 0.956 . S
H1563 C1550 0.961 . S
H1564 C1550 0.961 . S
H1565 C1551 0.958 . S
H1566 C1551 0.961 . S
H1567 C1551 0.960 . S
C1568 C1569 1.391 1_455 S
C1568 C1570 1.394 . S
C1568 H1584 0.931 . S
C1569 C1568 1.391 1_655 S
C1569 C1573 1.370 1_665 S
C1570 C1568 1.394 . S
C1570 C1571 1.369 1_565 S
C1570 C1574 1.531 . S
C1571 C1570 1.369 1_545 S
C1571 C1572 1.410 . S
C1571 C1579 1.503 . S
C1572 C1571 1.410 . S
C1572 C1573 1.414 . S
C1572 C1575 1.511 . S
C1573 C1569 1.370 1_445 S
C1573 C1572 1.414 . S
C1573 H1585 0.913 1_455 S
C1574 C1570 1.531 . S
C1574 H1586 0.960 . S
C1574 H1587 0.962 . S
C1574 H1588 0.960 . S
C1575 C1572 1.511 . S
C1575 H1589 0.961 . S
C1575 H1590 0.961 . S
C1575 H1591 0.961 . S
C1576 C1577 1.370 . S
C1576 C1578 1.363 . S
C1576 H1592 0.931 . S
C1577 C1576 1.370 . S
C1577 C1581 1.408 . S
C1578 C1576 1.363 . S
C1578 C1579 1.370 . S
C1578 C1582 1.524 . S
C1579 C1571 1.503 . S
C1579 C1578 1.370 . S
C1579 C1580 1.403 . S
C1580 C1579 1.403 . S
C1580 C1581 1.404 . S
C1580 C1583 1.539 . S
C1581 C1577 1.408 . S
C1581 C1580 1.404 . S
C1581 H1593 0.930 . S
C1582 C1578 1.524 . S
C1582 H1594 0.956 1_545 S
C1582 H1595 0.961 . S
C1582 H1596 0.961 . S
C1583 C1580 1.539 . S
C1583 H1597 0.958 1_545 S
C1583 H1598 0.961 . S
C1583 H1599 0.960 . S
H1584 C1568 0.931 . S
H1585 C1573 0.913 1_655 S
H1586 C1574 0.960 . S
H1587 C1574 0.962 . S
H1588 C1574 0.960 . S
H1589 C1575 0.961 . S
H1590 C1575 0.961 . S
H1591 C1575 0.961 . S
H1592 C1576 0.931 . S
H1593 C1581 0.930 . S
H1594 C1582 0.956 1_565 S
H1595 C1582 0.961 . S
H1596 C1582 0.961 . S
H1597 C1583 0.958 1_565 S
H1598 C1583 0.961 . S
H1599 C1583 0.960 . S
C1600 C1601 1.391 . S
C1600 C1602 1.394 . S
C1600 H1616 0.931 . S
C1601 C1600 1.391 . S
C1601 C1605 1.376 . S
C1602 C1600 1.394 . S
C1602 C1603 1.369 . S
C1602 C1606 1.531 . S
C1603 C1602 1.369 . S
C1603 C1604 1.410 . S
C1603 C1611 1.503 . S
C1604 C1603 1.410 . S
C1604 C1605 1.392 . S
C1604 C1607 1.511 . S
C1605 C1601 1.376 . S
C1605 C1604 1.392 . S
C1605 H1617 0.929 . S
C1606 C1602 1.531 . S
C1606 H1618 0.960 . S
C1606 H1619 0.962 . S
C1606 H1620 0.960 . S
C1607 C1604 1.511 . S
C1607 H1621 0.961 . S
C1607 H1622 0.961 . S
C1607 H1623 0.961 . S
C1608 C1609 1.370 . S
C1608 C1610 1.363 . S
C1608 H1624 0.931 . S
C1609 C1608 1.370 . S
C1609 C1613 1.408 . S
C1610 C1608 1.363 . S
C1610 C1611 1.370 . S
C1610 C1614 1.524 . S
C1611 C1603 1.503 . S
C1611 C1610 1.370 . S
C1611 C1612 1.403 . S
C1612 C1611 1.403 . S
C1612 C1613 1.404 . S
C1612 C1615 1.539 . S
C1613 C1609 1.408 . S
C1613 C1612 1.404 . S
C1613 H1625 0.930 . S
C1614 C1610 1.524 . S
C1614 H1626 0.956 . S
C1614 H1627 0.961 . S
C1614 H1628 0.961 . S
C1615 C1612 1.539 . S
C1615 H1629 0.958 . S
C1615 H1630 0.961 . S
C1615 H1631 0.960 . S
H1616 C1600 0.931 . S
H1617 C1605 0.929 . S
H1618 C1606 0.960 . S
H1619 C1606 0.962 . S
H1620 C1606 0.960 . S
H1621 C1607 0.961 . S
H1622 C1607 0.961 . S
H1623 C1607 0.961 . S
H1624 C1608 0.931 . S
H1625 C1613 0.930 . S
H1626 C1614 0.956 . S
H1627 C1614 0.961 . S
H1628 C1614 0.961 . S
H1629 C1615 0.958 . S
H1630 C1615 0.961 . S
H1631 C1615 0.960 . S
C1632 C1633 1.391 . S
C1632 C1634 1.394 . S
C1632 H1648 0.931 . S
C1633 C1632 1.391 . S
C1633 C1637 1.376 . S
C1634 C1632 1.394 . S
C1634 C1635 1.369 . S
C1634 C1638 1.531 . S
C1635 C1634 1.369 . S
C1635 C1636 1.410 . S
C1635 C1643 1.503 . S
C1636 C1635 1.410 . S
C1636 C1637 1.392 . S
C1636 C1639 1.511 . S
C1637 C1633 1.376 . S
C1637 C1636 1.392 . S
C1637 H1649 0.929 . S
C1638 C1634 1.531 . S
C1638 H1650 0.960 . S
C1638 H1651 0.962 . S
C1638 H1652 0.960 . S
C1639 C1636 1.511 . S
C1639 H1653 0.961 . S
C1639 H1654 0.961 . S
C1639 H1655 0.961 . S
C1640 C1641 1.370 . S
C1640 C1642 1.363 . S
C1640 H1656 0.931 . S
C1641 C1640 1.370 . S
C1641 C1645 1.408 . S
C1642 C1640 1.363 . S
C1642 C1643 1.370 . S
C1642 C1646 1.524 . S
C1643 C1635 1.503 . S
C1643 C1642 1.370 . S
C1643 C1644 1.403 . S
C1644 C1643 1.403 . S
C1644 C1645 1.404 . S
C1644 C1647 1.539 1_565 S
C1645 C1641 1.408 . S
C1645 C1644 1.404 . S
C1645 H1657 0.930 . S
C1646 C1642 1.524 . S
C1646 H1658 0.956 . S
C1646 H1659 0.961 . S
C1646 H1660 0.961 . S
C1647 C1644 1.539 1_545 S
C1647 H1661 0.958 . S
C1647 H1662 0.961 . S
C1647 H1663 0.960 . S
H1648 C1632 0.931 . S
H1649 C1637 0.929 . S
H1650 C1638 0.960 . S
H1651 C1638 0.962 . S
H1652 C1638 0.960 . S
H1653 C1639 0.961 . S
H1654 C1639 0.961 . S
H1655 C1639 0.961 . S
H1656 C1640 0.931 . S
H1657 C1645 0.930 . S
H1658 C1646 0.956 . S
H1659 C1646 0.961 . S
H1660 C1646 0.961 . S
H1661 C1647 0.958 . S
H1662 C1647 0.961 . S
H1663 C1647 0.960 . S
C1664 C1665 1.391 . S
C1664 C1666 1.394 . S
C1664 H1680 0.931 . S
C1665 C1664 1.391 . S
C1665 C1669 1.376 . S
C1666 C1664 1.394 . S
C1666 C1667 1.369 . S
C1666 C1670 1.531 . S
C1667 C1666 1.369 . S
C1667 C1668 1.410 . S
C1667 C1675 1.503 . S
C1668 C1667 1.410 . S
C1668 C1669 1.392 . S
C1668 C1671 1.511 . S
C1669 C1665 1.376 . S
C1669 C1668 1.392 . S
C1669 H1681 0.929 . S
C1670 C1666 1.531 . S
C1670 H1682 0.960 . S
C1670 H1683 0.962 . S
C1670 H1684 0.960 . S
C1671 C1668 1.511 . S
C1671 H1685 0.961 . S
C1671 H1686 0.961 . S
C1671 H1687 0.961 . S
C1672 C1673 1.370 . S
C1672 C1674 1.363 . S
C1672 H1688 0.931 . S
C1673 C1672 1.370 . S
C1673 C1677 1.408 . S
C1674 C1672 1.363 . S
C1674 C1675 1.370 . S
C1674 C1678 1.524 . S
C1675 C1667 1.503 . S
C1675 C1674 1.370 . S
C1675 C1676 1.403 . S
C1676 C1675 1.403 . S
C1676 C1677 1.404 . S
C1676 C1679 1.539 . S
C1677 C1673 1.408 . S
C1677 C1676 1.404 . S
C1677 H1689 0.930 . S
C1678 C1674 1.524 . S
C1678 H1690 0.956 . S
C1678 H1691 0.961 . S
C1678 H1692 0.961 . S
C1679 C1676 1.539 . S
C1679 H1693 0.958 . S
C1679 H1694 0.961 . S
C1679 H1695 0.960 . S
H1680 C1664 0.931 . S
H1681 C1669 0.929 . S
H1682 C1670 0.960 . S
H1683 C1670 0.962 . S
H1684 C1670 0.960 . S
H1685 C1671 0.961 . S
H1686 C1671 0.961 . S
H1687 C1671 0.961 . S
H1688 C1672 0.931 . S
H1689 C1677 0.930 . S
H1690 C1678 0.956 . S
H1691 C1678 0.961 . S
H1692 C1678 0.961 . S
H1693 C1679 0.958 . S
H1694 C1679 0.961 . S
H1695 C1679 0.960 . S
C1696 C1697 1.391 . S
C1696 C1698 1.394 . S
C1696 H1712 0.931 . S
C1697 C1696 1.391 . S
C1697 C1701 1.376 . S
C1698 C1696 1.394 . S
C1698 C1699 1.369 . S
C1698 C1702 1.531 . S
C1699 C1698 1.369 . S
C1699 C1700 1.410 . S
C1699 C1707 1.503 . S
C1700 C1699 1.410 . S
C1700 C1701 1.392 . S
C1700 C1703 1.511 . S
C1701 C1697 1.376 . S
C1701 C1700 1.392 . S
C1701 H1713 0.929 . S
C1702 C1698 1.531 . S
C1702 H1714 0.960 . S
C1702 H1715 0.962 . S
C1702 H1716 0.960 . S
C1703 C1700 1.511 . S
C1703 H1717 0.961 . S
C1703 H1718 0.961 . S
C1703 H1719 0.961 . S
C1704 C1705 1.370 . S
C1704 C1706 1.363 . S
C1704 H1720 0.931 . S
C1705 C1704 1.370 . S
C1705 C1709 1.408 . S
C1706 C1704 1.363 . S
C1706 C1707 1.370 . S
C1706 C1710 1.524 . S
C1707 C1699 1.503 . S
C1707 C1706 1.370 . S
C1707 C1708 1.403 . S
C1708 C1707 1.403 . S
C1708 C1709 1.404 . S
C1708 C1711 1.539 . S
C1709 C1705 1.408 . S
C1709 C1708 1.404 . S
C1709 H1721 0.930 . S
C1710 C1706 1.524 . S
C1710 H1722 0.956 . S
C1710 H1723 0.961 . S
C1710 H1724 0.961 . S
C1711 C1708 1.539 . S
C1711 H1725 0.958 . S
C1711 H1726 0.961 . S
C1711 H1727 0.960 . S
H1712 C1696 0.931 . S
H1713 C1701 0.929 . S
H1714 C1702 0.960 . S
H1715 C1702 0.962 . S
H1716 C1702 0.960 . S
H1717 C1703 0.961 . S
H1718 C1703 0.961 . S
H1719 C1703 0.961 . S
H1720 C1704 0.931 . S
H1721 C1709 0.930 . S
H1722 C1710 0.956 . S
H1723 C1710 0.961 . S
H1724 C1710 0.961 . S
H1725 C1711 0.958 . S
H1726 C1711 0.961 . S
H1727 C1711 0.960 . S
C1728 C1729 1.391 . S
C1728 C1730 1.394 . S
C1728 H1744 0.931 . S
C1729 C1728 1.391 . S
C1729 C1733 1.376 . S
C1730 C1728 1.394 . S
C1730 C1731 1.369 . S
C1730 C1734 1.531 . S
C1731 C1730 1.369 . S
C1731 C1732 1.410 . S
C1731 C1739 1.503 . S
C1732 C1731 1.410 . S
C1732 C1733 1.392 . S
C1732 C1735 1.511 . S
C1733 C1729 1.376 . S
C1733 C1732 1.392 . S
C1733 H1745 0.929 . S
C1734 C1730 1.531 . S
C1734 H1746 0.960 . S
C1734 H1747 0.962 . S
C1734 H1748 0.960 . S
C1735 C1732 1.511 . S
C1735 H1749 0.961 . S
C1735 H1750 0.961 . S
C1735 H1751 0.961 . S
C1736 C1737 1.370 . S
C1736 C1738 1.363 . S
C1736 H1752 0.931 . S
C1737 C1736 1.370 . S
C1737 C1741 1.408 . S
C1738 C1736 1.363 . S
C1738 C1739 1.370 . S
C1738 C1742 1.524 . S
C1739 C1731 1.503 . S
C1739 C1738 1.370 . S
C1739 C1740 1.403 . S
C1740 C1739 1.403 . S
C1740 C1741 1.404 . S
C1740 C1743 1.539 . S
C1741 C1737 1.408 . S
C1741 C1740 1.404 . S
C1741 H1753 0.930 . S
C1742 C1738 1.524 . S
C1742 H1754 0.956 . S
C1742 H1755 0.961 . S
C1742 H1756 0.961 . S
C1743 C1740 1.539 . S
C1743 H1757 0.958 . S
C1743 H1758 0.961 . S
C1743 H1759 0.960 . S
H1744 C1728 0.931 . S
H1745 C1733 0.929 . S
H1746 C1734 0.960 . S
H1747 C1734 0.962 . S
H1748 C1734 0.960 . S
H1749 C1735 0.961 . S
H1750 C1735 0.961 . S
H1751 C1735 0.961 . S
H1752 C1736 0.931 . S
H1753 C1741 0.930 . S
H1754 C1742 0.956 . S
H1755 C1742 0.961 . S
H1756 C1742 0.961 . S
H1757 C1743 0.958 . S
H1758 C1743 0.961 . S
H1759 C1743 0.960 . S
C1760 C1761 1.391 . S
C1760 C1762 1.394 . S
C1760 H1776 0.931 . S
C1761 C1760 1.391 . S
C1761 C1765 1.376 . S
C1762 C1760 1.394 . S
C1762 C1763 1.369 . S
C1762 C1766 1.531 . S
C1763 C1762 1.369 . S
C1763 C1764 1.410 . S
C1763 C1771 1.503 . S
C1764 C1763 1.410 . S
C1764 C1765 1.392 . S
C1764 C1767 1.511 . S
C1765 C1761 1.376 . S
C1765 C1764 1.392 . S
C1765 H1777 0.929 . S
C1766 C1762 1.531 . S
C1766 H1778 0.960 . S
C1766 H1779 0.962 . S
C1766 H1780 0.960 . S
C1767 C1764 1.511 . S
C1767 H1781 0.961 . S
C1767 H1782 0.961 . S
C1767 H1783 0.961 . S
C1768 C1769 1.370 . S
C1768 C1770 1.363 . S
C1768 H1784 0.931 . S
C1769 C1768 1.370 . S
C1769 C1773 1.408 . S
C1770 C1768 1.363 . S
C1770 C1771 1.370 . S
C1770 C1774 1.524 . S
C1771 C1763 1.503 . S
C1771 C1770 1.370 . S
C1771 C1772 1.403 . S
C1772 C1771 1.403 . S
C1772 C1773 1.404 . S
C1772 C1775 1.539 . S
C1773 C1769 1.408 . S
C1773 C1772 1.404 . S
C1773 H1785 0.930 . S
C1774 C1770 1.524 . S
C1774 H1786 0.956 . S
C1774 H1787 0.961 . S
C1774 H1788 0.961 . S
C1775 C1772 1.539 . S
C1775 H1789 0.958 . S
C1775 H1790 0.961 . S
C1775 H1791 0.960 . S
H1776 C1760 0.931 . S
H1777 C1765 0.929 . S
H1778 C1766 0.960 . S
H1779 C1766 0.962 . S
H1780 C1766 0.960 . S
H1781 C1767 0.961 . S
H1782 C1767 0.961 . S
H1783 C1767 0.961 . S
H1784 C1768 0.931 . S
H1785 C1773 0.930 . S
H1786 C1774 0.956 . S
H1787 C1774 0.961 . S
H1788 C1774 0.961 . S
H1789 C1775 0.958 . S
H1790 C1775 0.961 . S
H1791 C1775 0.960 . S
C1792 C1793 1.391 . S
C1792 C1794 1.394 . S
C1792 H1808 0.931 . S
C1793 C1792 1.391 . S
C1793 C1797 1.376 . S
C1794 C1792 1.394 . S
C1794 C1795 1.369 . S
C1794 C1798 1.531 . S
C1795 C1794 1.369 . S
C1795 C1796 1.410 . S
C1795 C1803 1.503 . S
C1796 C1795 1.410 . S
C1796 C1797 1.392 . S
C1796 C1799 1.511 . S
C1797 C1793 1.376 . S
C1797 C1796 1.392 . S
C1797 H1809 0.929 . S
C1798 C1794 1.531 . S
C1798 H1810 0.960 . S
C1798 H1811 0.962 . S
C1798 H1812 0.960 . S
C1799 C1796 1.511 . S
C1799 H1813 0.961 . S
C1799 H1814 0.961 . S
C1799 H1815 0.961 . S
C1800 C1801 1.370 . S
C1800 C1802 1.363 . S
C1800 H1816 0.931 . S
C1801 C1800 1.370 . S
C1801 C1805 1.408 . S
C1802 C1800 1.363 . S
C1802 C1803 1.370 . S
C1802 C1806 1.524 . S
C1803 C1795 1.503 . S
C1803 C1802 1.370 . S
C1803 C1804 1.403 . S
C1804 C1803 1.403 . S
C1804 C1805 1.404 . S
C1804 C1807 1.539 . S
C1805 C1801 1.408 . S
C1805 C1804 1.404 . S
C1805 H1817 0.930 . S
C1806 C1802 1.524 . S
C1806 H1818 0.956 . S
C1806 H1819 0.961 . S
C1806 H1820 0.961 . S
C1807 C1804 1.539 . S
C1807 H1821 0.958 . S
C1807 H1822 0.961 . S
C1807 H1823 0.960 . S
H1808 C1792 0.931 . S
H1809 C1797 0.929 . S
H1810 C1798 0.960 . S
H1811 C1798 0.962 . S
H1812 C1798 0.960 . S
H1813 C1799 0.961 . S
H1814 C1799 0.961 . S
H1815 C1799 0.961 . S
H1816 C1800 0.931 . S
H1817 C1805 0.930 . S
H1818 C1806 0.956 . S
H1819 C1806 0.961 . S
H1820 C1806 0.961 . S
H1821 C1807 0.958 . S
H1822 C1807 0.961 . S
H1823 C1807 0.960 . S
C1824 C1825 1.391 . S
C1824 C1826 1.394 . S
C1824 H1840 0.931 . S
C1825 C1824 1.391 . S
C1825 C1829 1.376 . S
C1826 C1824 1.394 . S
C1826 C1827 1.369 . S
C1826 C1830 1.531 . S
C1827 C1826 1.369 . S
C1827 C1828 1.410 . S
C1827 C1835 1.503 . S
C1828 C1827 1.410 . S
C1828 C1829 1.392 . S
C1828 C1831 1.511 . S
C1829 C1825 1.376 . S
C1829 C1828 1.392 . S
C1829 H1841 0.929 . S
C1830 C1826 1.531 . S
C1830 H1842 0.960 . S
C1830 H1843 0.962 . S
C1830 H1844 0.960 . S
C1831 C1828 1.511 . S
C1831 H1845 0.961 . S
C1831 H1846 0.961 . S
C1831 H1847 0.961 . S
C1832 C1833 1.370 . S
C1832 C1834 1.363 . S
C1832 H1848 0.931 . S
C1833 C1832 1.370 . S
C1833 C1837 1.408 . S
C1834 C1832 1.363 . S
C1834 C1835 1.370 . S
C1834 C1838 1.524 . S
C1835 C1827 1.503 . S
C1835 C1834 1.370 . S
C1835 C1836 1.403 . S
C1836 C1835 1.403 . S
C1836 C1837 1.404 . S
C1836 C1839 1.539 . S
C1837 C1833 1.408 . S
C1837 C1836 1.404 . S
C1837 H1849 0.930 . S
C1838 C1834 1.524 . S
C1838 H1850 0.956 . S
C1838 H1851 0.961 . S
C1838 H1852 0.961 . S
C1839 C1836 1.539 . S
C1839 H1853 0.958 . S
C1839 H1854 0.961 . S
C1839 H1855 0.960 . S
H1840 C1824 0.931 . S
H1841 C1829 0.929 . S
H1842 C1830 0.960 . S
H1843 C1830 0.962 . S
H1844 C1830 0.960 . S
H1845 C1831 0.961 . S
H1846 C1831 0.961 . S
H1847 C1831 0.961 . S
H1848 C1832 0.931 . S
H1849 C1837 0.930 . S
H1850 C1838 0.956 . S
H1851 C1838 0.961 . S
H1852 C1838 0.961 . S
H1853 C1839 0.958 . S
H1854 C1839 0.961 . S
H1855 C1839 0.960 . S
C1856 C1857 1.391 . S
C1856 C1858 1.394 . S
C1856 H1872 0.931 . S
C1857 C1856 1.391 . S
C1857 C1861 1.376 . S
C1858 C1856 1.394 . S
C1858 C1859 1.369 . S
C1858 C1862 1.531 . S
C1859 C1858 1.369 . S
C1859 C1860 1.410 . S
C1859 C1867 1.503 . S
C1860 C1859 1.410 . S
C1860 C1861 1.392 . S
C1860 C1863 1.511 . S
C1861 C1857 1.376 . S
C1861 C1860 1.392 . S
C1861 H1873 0.929 . S
C1862 C1858 1.531 . S
C1862 H1874 0.960 . S
C1862 H1875 0.962 . S
C1862 H1876 0.960 1_545 S
C1863 C1860 1.511 . S
C1863 H1877 0.961 . S
C1863 H1878 0.961 . S
C1863 H1879 0.961 . S
C1864 C1865 1.370 . S
C1864 C1866 1.363 . S
C1864 H1880 0.931 . S
C1865 C1864 1.370 . S
C1865 C1869 1.408 . S
C1866 C1864 1.363 . S
C1866 C1867 1.370 . S
C1866 C1870 1.524 . S
C1867 C1859 1.503 . S
C1867 C1866 1.370 . S
C1867 C1868 1.403 . S
C1868 C1867 1.403 . S
C1868 C1869 1.404 . S
C1868 C1871 1.539 . S
C1869 C1865 1.408 . S
C1869 C1868 1.404 . S
C1869 H1881 0.930 . S
C1870 C1866 1.524 . S
C1870 H1882 0.956 . S
C1870 H1883 0.961 . S
C1870 H1884 0.961 . S
C1871 C1868 1.539 . S
C1871 H1885 0.958 . S
C1871 H1886 0.961 . S
C1871 H1887 0.960 . S
H1872 C1856 0.931 . S
H1873 C1861 0.929 . S
H1874 C1862 0.960 . S
H1875 C1862 0.962 . S
H1876 C1862 0.960 1_565 S
H1877 C1863 0.961 . S
H1878 C1863 0.961 . S
H1879 C1863 0.961 . S
H1880 C1864 0.931 . S
H1881 C1869 0.930 . S
H1882 C1870 0.956 . S
H1883 C1870 0.961 . S
H1884 C1870 0.961 . S
H1885 C1871 0.958 . S
H1886 C1871 0.961 . S
H1887 C1871 0.960 . S
C1888 C1889 1.391 . S
C1888 C1890 1.394 . S
C1888 H1904 0.931 . S
C1889 C1888 1.391 . S
C1889 C1893 1.376 . S
C1890 C1888 1.394 . S
C1890 C1891 1.369 . S
C1890 C1894 1.531 . S
C1891 C1890 1.369 . S
C1891 C1892 1.410 . S
C1891 C1899 1.503 . S
C1892 C1891 1.410 . S
C1892 C1893 1.392 . S
C1892 C1895 1.511 . S
C1893 C1889 1.376 . S
C1893 C1892 1.392 . S
C1893 H1905 0.929 . S
C1894 C1890 1.531 . S
C1894 H1906 0.960 . S
C1894 H1907 0.962 . S
C1894 H1908 0.960 . S
C1895 C1892 1.511 . S
C1895 H1909 0.961 . S
C1895 H1910 0.961 . S
C1895 H1911 0.961 . S
C1896 C1897 1.370 . S
C1896 C1898 1.363 . S
C1896 H1912 0.931 . S
C1897 C1896 1.370 . S
C1897 C1901 1.408 . S
C1898 C1896 1.363 . S
C1898 C1899 1.370 . S
C1898 C1902 1.524 . S
C1899 C1891 1.503 . S
C1899 C1898 1.370 . S
C1899 C1900 1.403 . S
C1900 C1899 1.403 . S
C1900 C1901 1.404 . S
C1900 C1903 1.539 . S
C1901 C1897 1.408 . S
C1901 C1900 1.404 . S
C1901 H1913 0.930 . S
C1902 C1898 1.524 . S
C1902 H1914 0.956 . S
C1902 H1915 0.961 . S
C1902 H1916 0.961 . S
C1903 C1900 1.539 . S
C1903 H1917 0.958 . S
C1903 H1918 0.961 . S
C1903 H1919 0.960 . S
H1904 C1888 0.931 . S
H1905 C1893 0.929 . S
H1906 C1894 0.960 . S
H1907 C1894 0.962 . S
H1908 C1894 0.960 . S
H1909 C1895 0.961 . S
H1910 C1895 0.961 . S
H1911 C1895 0.961 . S
H1912 C1896 0.931 . S
H1913 C1901 0.930 . S
H1914 C1902 0.956 . S
H1915 C1902 0.961 . S
H1916 C1902 0.961 . S
H1917 C1903 0.958 . S
H1918 C1903 0.961 . S
H1919 C1903 0.960 . S
C1920 C1921 1.391 . S
C1920 C1922 1.394 . S
C1920 H1936 0.931 . S
C1921 C1920 1.391 . S
C1921 C1925 1.376 . S
C1922 C1920 1.394 . S
C1922 C1923 1.369 . S
C1922 C1926 1.531 . S
C1923 C1922 1.369 . S
C1923 C1924 1.410 . S
C1923 C1931 1.503 . S
C1924 C1923 1.410 . S
C1924 C1925 1.392 . S
C1924 C1927 1.511 . S
C1925 C1921 1.376 . S
C1925 C1924 1.392 . S
C1925 H1937 0.929 . S
C1926 C1922 1.531 . S
C1926 H1938 0.960 . S
C1926 H1939 0.962 . S
C1926 H1940 0.960 . S
C1927 C1924 1.511 . S
C1927 H1941 0.961 . S
C1927 H1942 0.961 . S
C1927 H1943 0.961 . S
C1928 C1929 1.370 . S
C1928 C1930 1.363 . S
C1928 H1944 0.931 . S
C1929 C1928 1.370 . S
C1929 C1933 1.408 . S
C1930 C1928 1.363 . S
C1930 C1931 1.370 . S
C1930 C1934 1.524 . S
C1931 C1923 1.503 . S
C1931 C1930 1.370 . S
C1931 C1932 1.403 . S
C1932 C1931 1.403 . S
C1932 C1933 1.404 . S
C1932 C1935 1.539 . S
C1933 C1929 1.408 . S
C1933 C1932 1.404 . S
C1933 H1945 0.930 . S
C1934 C1930 1.524 . S
C1934 H1946 0.956 . S
C1934 H1947 0.961 . S
C1934 H1948 0.961 . S
C1935 C1932 1.539 . S
C1935 H1949 0.958 . S
C1935 H1950 0.961 . S
C1935 H1951 0.960 . S
H1936 C1920 0.931 . S
H1937 C1925 0.929 . S
H1938 C1926 0.960 . S
H1939 C1926 0.962 . S
H1940 C1926 0.960 . S
H1941 C1927 0.961 . S
H1942 C1927 0.961 . S
H1943 C1927 0.961 . S
H1944 C1928 0.931 . S
H1945 C1933 0.930 . S
H1946 C1934 0.956 . S
H1947 C1934 0.961 . S
H1948 C1934 0.961 . S
H1949 C1935 0.958 . S
H1950 C1935 0.961 . S
H1951 C1935 0.960 . S
C1952 C1953 1.391 . S
C1952 C1954 1.394 . S
C1952 H1968 0.931 . S
C1953 C1952 1.391 . S
C1953 C1957 1.376 . S
C1954 C1952 1.394 . S
C1954 C1955 1.369 . S
C1954 C1958 1.531 . S
C1955 C1954 1.369 . S
C1955 C1956 1.410 . S
C1955 C1963 1.503 . S
C1956 C1955 1.410 . S
C1956 C1957 1.392 . S
C1956 C1959 1.511 . S
C1957 C1953 1.376 . S
C1957 C1956 1.392 . S
C1957 H1969 0.929 . S
C1958 C1954 1.531 . S
C1958 H1970 0.960 . S
C1958 H1971 0.962 . S
C1958 H1972 0.960 . S
C1959 C1956 1.511 . S
C1959 H1973 0.961 . S
C1959 H1974 0.961 . S
C1959 H1975 0.961 . S
C1960 C1961 1.370 1_565 S
C1960 C1962 1.363 . S
C1960 H1976 0.931 . S
C1961 C1960 1.370 1_545 S
C1961 C1965 1.408 . S
C1962 C1960 1.363 . S
C1962 C1963 1.370 . S
C1962 C1966 1.524 . S
C1963 C1955 1.503 . S
C1963 C1962 1.370 . S
C1963 C1964 1.403 1_565 S
C1964 C1963 1.403 1_545 S
C1964 C1965 1.404 . S
C1964 C1967 1.539 . S
C1965 C1961 1.408 . S
C1965 C1964 1.404 . S
C1965 H1977 0.930 . S
C1966 C1962 1.524 . S
C1966 H1978 0.956 . S
C1966 H1979 0.961 . S
C1966 H1980 0.961 . S
C1967 C1964 1.539 . S
C1967 H1981 0.958 . S
C1967 H1982 0.961 . S
C1967 H1983 0.960 . S
H1968 C1952 0.931 . S
H1969 C1957 0.929 . S
H1970 C1958 0.960 . S
H1971 C1958 0.962 . S
H1972 C1958 0.960 . S
H1973 C1959 0.961 . S
H1974 C1959 0.961 . S
H1975 C1959 0.961 . S
H1976 C1960 0.931 . S
H1977 C1965 0.930 . S
H1978 C1966 0.956 . S
H1979 C1966 0.961 . S
H1980 C1966 0.961 . S
H1981 C1967 0.958 . S
H1982 C1967 0.961 . S
H1983 C1967 0.960 . S
C1984 C1985 1.391 . S
C1984 C1986 1.394 . S
C1984 H2000 0.931 . S
C1985 C1984 1.391 . S
C1985 C1989 1.376 . S
C1986 C1984 1.394 . S
C1986 C1987 1.369 . S
C1986 C1990 1.531 . S
C1987 C1986 1.369 . S
C1987 C1988 1.410 . S
C1987 C1995 1.503 . S
C1988 C1987 1.410 . S
C1988 C1989 1.392 . S
C1988 C1991 1.511 . S
C1989 C1985 1.376 . S
C1989 C1988 1.392 . S
C1989 H2001 0.929 . S
C1990 C1986 1.531 . S
C1990 H2002 0.960 . S
C1990 H2003 0.962 . S
C1990 H2004 0.960 . S
C1991 C1988 1.511 . S
C1991 H2005 0.961 . S
C1991 H2006 0.961 . S
C1991 H2007 0.961 . S
C1992 C1993 1.370 . S
C1992 C1994 1.363 . S
C1992 H2008 0.931 . S
C1993 C1992 1.370 . S
C1993 C1997 1.408 . S
C1994 C1992 1.363 . S
C1994 C1995 1.370 . S
C1994 C1998 1.524 . S
C1995 C1987 1.503 . S
C1995 C1994 1.370 . S
C1995 C1996 1.403 . S
C1996 C1995 1.403 . S
C1996 C1997 1.404 . S
C1996 C1999 1.539 . S
C1997 C1993 1.408 . S
C1997 C1996 1.404 . S
C1997 H2009 0.930 . S
C1998 C1994 1.524 . S
C1998 H2010 0.956 . S
C1998 H2011 0.961 . S
C1998 H2012 0.961 . S
C1999 C1996 1.539 . S
C1999 H2013 0.958 . S
C1999 H2014 0.961 . S
C1999 H2015 0.960 . S
H2000 C1984 0.931 . S
H2001 C1989 0.929 . S
H2002 C1990 0.960 . S
H2003 C1990 0.962 . S
H2004 C1990 0.960 . S
H2005 C1991 0.961 . S
H2006 C1991 0.961 . S
H2007 C1991 0.961 . S
H2008 C1992 0.931 . S
H2009 C1997 0.930 . S
H2010 C1998 0.956 . S
H2011 C1998 0.961 . S
H2012 C1998 0.961 . S
H2013 C1999 0.958 . S
H2014 C1999 0.961 . S
H2015 C1999 0.960 . S
C2016 C2017 1.391 . S
C2016 C2018 1.394 . S
C2016 H2032 0.931 . S
C2017 C2016 1.391 . S
C2017 C2021 1.376 1_565 S
C2018 C2016 1.394 . S
C2018 C2019 1.369 1_565 S
C2018 C2022 1.531 . S
C2019 C2018 1.369 1_545 S
C2019 C2020 1.410 . S
C2019 C2027 1.503 . S
C2020 C2019 1.410 . S
C2020 C2021 1.392 . S
C2020 C2023 1.511 . S
C2021 C2017 1.376 1_545 S
C2021 C2020 1.392 . S
C2021 H2033 0.929 . S
C2022 C2018 1.531 . S
C2022 H2034 0.960 . S
C2022 H2035 0.962 . S
C2022 H2036 0.960 . S
C2023 C2020 1.511 . S
C2023 H2037 0.961 . S
C2023 H2038 0.961 . S
C2023 H2039 0.961 . S
C2024 C2025 1.370 . S
C2024 C2026 1.363 . S
C2024 H2040 0.931 . S
C2025 C2024 1.370 . S
C2025 C2029 1.408 . S
C2026 C2024 1.363 . S
C2026 C2027 1.370 . S
C2026 C2030 1.524 . S
C2027 C2019 1.503 . S
C2027 C2026 1.370 . S
C2027 C2028 1.403 . S
C2028 C2027 1.403 . S
C2028 C2029 1.404 . S
C2028 C2031 1.539 1_545 S
C2029 C2025 1.408 . S
C2029 C2028 1.404 . S
C2029 H2041 0.930 . S
C2030 C2026 1.524 . S
C2030 H2042 0.956 . S
C2030 H2043 0.961 . S
C2030 H2044 0.961 . S
C2031 C2028 1.539 1_565 S
C2031 H2045 0.958 . S
C2031 H2046 0.961 . S
C2031 H2047 0.960 . S
H2032 C2016 0.931 . S
H2033 C2021 0.929 . S
H2034 C2022 0.960 . S
H2035 C2022 0.962 . S
H2036 C2022 0.960 . S
H2037 C2023 0.961 . S
H2038 C2023 0.961 . S
H2039 C2023 0.961 . S
H2040 C2024 0.931 . S
H2041 C2029 0.930 . S
H2042 C2030 0.956 . S
H2043 C2030 0.961 . S
H2044 C2030 0.961 . S
H2045 C2031 0.958 . S
H2046 C2031 0.961 . S
H2047 C2031 0.960 . S
C2048 C2049 1.391 . S
C2048 C2050 1.394 . S
C2048 H2064 0.931 . S
C2049 C2048 1.391 . S
C2049 C2053 1.376 . S
C2050 C2048 1.394 . S
C2050 C2051 1.369 . S
C2050 C2054 1.531 . S
C2051 C2050 1.369 . S
C2051 C2052 1.410 . S
C2051 C2059 1.503 . S
C2052 C2051 1.410 . S
C2052 C2053 1.392 . S
C2052 C2055 1.511 . S
C2053 C2049 1.376 . S
C2053 C2052 1.392 . S
C2053 H2065 0.929 . S
C2054 C2050 1.531 . S
C2054 H2066 0.960 . S
C2054 H2067 0.962 . S
C2054 H2068 0.960 . S
C2055 C2052 1.511 . S
C2055 H2069 0.961 . S
C2055 H2070 0.961 . S
C2055 H2071 0.961 . S
C2056 C2057 1.370 . S
C2056 C2058 1.363 . S
C2056 H2072 0.931 . S
C2057 C2056 1.370 . S
C2057 C2061 1.408 . S
C2058 C2056 1.363 . S
C2058 C2059 1.370 . S
C2058 C2062 1.524 . S
C2059 C2051 1.503 . S
C2059 C2058 1.370 . S
C2059 C2060 1.403 . S
C2060 C2059 1.403 . S
C2060 C2061 1.404 . S
C2060 C2063 1.539 . S
C2061 C2057 1.408 . S
C2061 C2060 1.404 . S
C2061 H2073 0.930 . S
C2062 C2058 1.524 . S
C2062 H2074 0.956 . S
C2062 H2075 0.961 . S
C2062 H2076 0.961 . S
C2063 C2060 1.539 . S
C2063 H2077 0.958 . S
C2063 H2078 0.961 . S
C2063 H2079 0.960 . S
H2064 C2048 0.931 . S
H2065 C2053 0.929 . S
H2066 C2054 0.960 . S
H2067 C2054 0.962 . S
H2068 C2054 0.960 . S
H2069 C2055 0.961 . S
H2070 C2055 0.961 . S
H2071 C2055 0.961 . S
H2072 C2056 0.931 . S
H2073 C2061 0.930 . S
H2074 C2062 0.956 . S
H2075 C2062 0.961 . S
H2076 C2062 0.961 . S
H2077 C2063 0.958 . S
H2078 C2063 0.961 . S
H2079 C2063 0.960 . S
C2080 C2081 1.391 . S
C2080 C2082 1.394 . S
C2080 H2096 0.931 . S
C2081 C2080 1.391 . S
C2081 C2085 1.376 . S
C2082 C2080 1.394 . S
C2082 C2083 1.369 . S
C2082 C2086 1.531 . S
C2083 C2082 1.369 . S
C2083 C2084 1.410 . S
C2083 C2091 1.503 . S
C2084 C2083 1.410 . S
C2084 C2085 1.392 . S
C2084 C2087 1.511 . S
C2085 C2081 1.376 . S
C2085 C2084 1.392 . S
C2085 H2097 0.929 . S
C2086 C2082 1.531 . S
C2086 H2098 0.960 1_545 S
C2086 H2099 0.962 . S
C2086 H2100 0.961 . S
C2087 C2084 1.511 . S
C2087 H2101 0.961 . S
C2087 H2102 0.961 . S
C2087 H2103 0.961 . S
C2088 C2089 1.370 1_545 S
C2088 C2090 1.363 . S
C2088 H2104 0.931 . S
C2089 C2088 1.370 1_565 S
C2089 C2093 1.408 . S
C2090 C2088 1.363 . S
C2090 C2091 1.370 . S
C2090 C2094 1.524 . S
C2091 C2083 1.503 . S
C2091 C2090 1.370 . S
C2091 C2092 1.403 1_545 S
C2092 C2091 1.403 1_565 S
C2092 C2093 1.404 . S
C2092 C2095 1.539 . S
C2093 C2089 1.408 . S
C2093 C2092 1.404 . S
C2093 H2105 0.930 . S
C2094 C2090 1.524 . S
C2094 H2106 0.956 . S
C2094 H2107 0.961 . S
C2094 H2108 0.961 . S
C2095 C2092 1.539 . S
C2095 H2109 0.958 . S
C2095 H2110 0.961 . S
C2095 H2111 0.960 1_565 S
H2096 C2080 0.931 . S
H2097 C2085 0.929 . S
H2098 C2086 0.960 1_565 S
H2099 C2086 0.962 . S
H2100 C2086 0.961 . S
H2101 C2087 0.961 . S
H2102 C2087 0.961 . S
H2103 C2087 0.961 . S
H2104 C2088 0.931 . S
H2105 C2093 0.930 . S
H2106 C2094 0.956 . S
H2107 C2094 0.961 . S
H2108 C2094 0.961 . S
H2109 C2095 0.958 . S
H2110 C2095 0.961 . S
H2111 C2095 0.960 1_545 S
C2112 C2113 1.391 . S
C2112 C2114 1.394 . S
C2112 H2128 0.931 . S
C2113 C2112 1.391 . S
C2113 C2117 1.376 . S
C2114 C2112 1.394 . S
C2114 C2115 1.369 . S
C2114 C2118 1.531 . S
C2115 C2114 1.369 . S
C2115 C2116 1.410 . S
C2115 C2123 1.503 . S
C2116 C2115 1.410 . S
C2116 C2117 1.392 . S
C2116 C2119 1.511 . S
C2117 C2113 1.376 . S
C2117 C2116 1.392 . S
C2117 H2129 0.929 . S
C2118 C2114 1.531 . S
C2118 H2130 0.960 . S
C2118 H2131 0.962 . S
C2118 H2132 0.960 . S
C2119 C2116 1.511 . S
C2119 H2133 0.961 . S
C2119 H2134 0.961 . S
C2119 H2135 0.961 . S
C2120 C2121 1.370 . S
C2120 C2122 1.363 . S
C2120 H2136 0.931 . S
C2121 C2120 1.370 . S
C2121 C2125 1.408 . S
C2122 C2120 1.363 . S
C2122 C2123 1.370 . S
C2122 C2126 1.524 . S
C2123 C2115 1.503 . S
C2123 C2122 1.370 . S
C2123 C2124 1.403 . S
C2124 C2123 1.403 . S
C2124 C2125 1.404 . S
C2124 C2127 1.539 . S
C2125 C2121 1.408 . S
C2125 C2124 1.404 . S
C2125 H2137 0.930 . S
C2126 C2122 1.524 . S
C2126 H2138 0.956 . S
C2126 H2139 0.961 . S
C2126 H2140 0.961 . S
C2127 C2124 1.539 . S
C2127 H2141 0.958 . S
C2127 H2142 0.961 . S
C2127 H2143 0.960 . S
H2128 C2112 0.931 . S
H2129 C2117 0.929 . S
H2130 C2118 0.960 . S
H2131 C2118 0.962 . S
H2132 C2118 0.960 . S
H2133 C2119 0.961 . S
H2134 C2119 0.961 . S
H2135 C2119 0.961 . S
H2136 C2120 0.931 . S
H2137 C2125 0.930 . S
H2138 C2126 0.956 . S
H2139 C2126 0.961 . S
H2140 C2126 0.961 . S
H2141 C2127 0.958 . S
H2142 C2127 0.961 . S
H2143 C2127 0.960 . S
C2144 C2145 1.391 . S
C2144 C2146 1.394 . S
C2144 H2160 0.931 . S
C2145 C2144 1.391 . S
C2145 C2149 1.376 . S
C2146 C2144 1.394 . S
C2146 C2147 1.369 . S
C2146 C2150 1.531 . S
C2147 C2146 1.369 . S
C2147 C2148 1.410 . S
C2147 C2155 1.503 . S
C2148 C2147 1.410 . S
C2148 C2149 1.392 . S
C2148 C2151 1.511 1_565 S
C2149 C2145 1.376 . S
C2149 C2148 1.392 . S
C2149 H2161 0.929 . S
C2150 C2146 1.531 . S
C2150 H2162 0.960 . S
C2150 H2163 0.962 . S
C2150 H2164 0.960 . S
C2151 C2148 1.511 1_545 S
C2151 H2165 0.960 1_545 S
C2151 H2166 0.972 . S
C2151 H2167 0.961 . S
C2152 C2153 1.386 . S
C2152 C2154 1.363 . S
C2152 H2168 0.931 . S
C2153 C2152 1.386 . S
C2153 C2157 1.392 1_565 S
C2154 C2152 1.363 . S
C2154 C2155 1.370 . S
C2154 C2158 1.524 . S
C2155 C2147 1.503 . S
C2155 C2154 1.370 . S
C2155 C2156 1.403 1_565 S
C2156 C2155 1.403 1_545 S
C2156 C2157 1.404 . S
C2156 C2159 1.539 . S
C2157 C2153 1.392 1_545 S
C2157 C2156 1.404 . S
C2157 H2169 0.930 . S
C2158 C2154 1.524 . S
C2158 H2170 0.956 . S
C2158 H2171 0.961 . S
C2158 H2172 0.961 . S
C2159 C2156 1.539 . S
C2159 H2173 0.958 . S
C2159 H2174 0.961 . S
C2159 H2175 0.960 . S
H2160 C2144 0.931 . S
H2161 C2149 0.929 . S
H2162 C2150 0.960 . S
H2163 C2150 0.962 . S
H2164 C2150 0.960 . S
H2165 C2151 0.960 1_565 S
H2166 C2151 0.972 . S
H2167 C2151 0.961 . S
H2168 C2152 0.931 . S
H2169 C2157 0.930 . S
H2170 C2158 0.956 . S
H2171 C2158 0.961 . S
H2172 C2158 0.961 . S
H2173 C2159 0.958 . S
H2174 C2159 0.961 . S
H2175 C2159 0.960 . S
C641 C9 0.609 . S
C649 C409 0.674 . S
C673 C49 0.862 . S
C681 C458 0.312 . S
C705 C89 0.646 . S
C713 C329 0.655 . S
C737 C369 0.868 . S
C745 C138 0.308 . S
C769 C178 0.626 . S
C777 C578 0.682 . S
C801 C609 0.377 . S
C809 C218 0.793 . S
C833 C498 0.667 . S
C841 C258 0.703 . S
C865 C289 0.262 . S
C873 C538 0.727 . S
C897 C19 3.575 . S
C905 C170 3.585 . S
C929 C59 2.905 . S
C937 C530 2.904 . S
C961 C99 2.379 . S
C969 C250 2.372 . S
C993 C126 1.642 . S
C1001 C615 1.618 . S
C1025 C210 2.896 . S
C1033 C379 2.907 . S
C1057 C446 1.663 . S
C1065 C295 1.612 . S
C1089 C490 3.584 . S
C1097 C339 3.582 . S
C1121 C419 2.359 . S
C1129 C570 2.380 . S
C1153 C10 1.526 . S
C1161 C298 1.541 . S
C1185 C50 1.756 . S
C1193 C489 1.802 . S
C1217 C90 1.598 . S
C1225 C209 1.605 . S
C1249 C135 0.695 . S
C1257 C569 0.709 . S
C1281 C129 1.517 . S
C1289 C179 1.533 . S
C1313 C219 1.797 . S
C1321 C338 1.780 . S
C1345 C259 1.595 . S
C1353 C58 1.610 . S
C1377 C418 0.735 . S
C1385 C286 0.702 . S
C1409 C330 1.516 . S
C1417 C618 1.536 . S
C1441 C169 1.759 . S
C1449 C370 1.794 . S
C1473 C529 1.597 . S
C1481 C410 1.609 . S
C1505 C249 0.759 . S
C1513 C455 0.713 . S
C1537 C499 1.516 . S
C1545 C449 1.535 . S
C1569 C539 1.806 . S
C1577 C18 1.781 . S
C1601 C378 1.618 . S
C1609 C579 1.611 . S
C1633 C606 0.705 . S
C1641 C98 0.734 . S
C1665 C15 1.606 . S
C1673 C366 1.524 . S
C1697 C406 1.650 . S
C1705 C55 1.671 . S
C1729 C95 1.753 . S
C1737 C459 1.702 . S
C1761 C326 2.255 . S
C1769 C130 2.232 . S
C1793 C535 1.558 . S
C1801 C166 1.564 . S
C1825 C575 1.673 . S
C1833 C206 1.666 . S
C1857 C610 1.739 . S
C1865 C246 1.725 . S
C1889 C495 2.241 . S
C1897 C299 2.241 . S
C1921 C46 1.572 . S
C1929 C335 1.562 . S
C1953 C86 1.605 . S
C1961 C375 1.688 . S
C1985 C139 1.733 . S
C1993 C415 1.730 . S
C2017 C450 2.232 . S
C2025 C6 2.252 . S
C2049 C215 1.515 . S
C2057 C486 1.587 . S
C2081 C255 1.600 . S
C2089 C526 1.691 . S
C2113 C290 1.739 . S
C2121 C566 1.726 . S
C2145 C175 2.241 . S
C2153 C619 2.243 1_565 S
