# Generated by pormake.
# Topology rkf, (6)-cn, num edge types: 1
# Building blocks:
#     Node 0, Type 0, BuildingBlock: BETGAK_clean_sbu_0, # of connection points: 6
#     Node 1, Type 0, BuildingBlock: BETGAK_clean_sbu_0, # of connection points: 6
#     Node 2, Type 0, BuildingBlock: BETGAK_clean_sbu_0, # of connection points: 6
#     Node 3, Type 0, BuildingBlock: BETGAK_clean_sbu_0, # of connection points: 6
#     Node 4, Type 0, BuildingBlock: BETGAK_clean_sbu_0, # of connection points: 6
#     Node 5, Type 0, BuildingBlock: BETGAK_clean_sbu_0, # of connection points: 6
#     Edge 6, Type (0, 0), BuildingBlock: KIFKEQ_clean_linker_1, # of connection points: 2
#     Edge 7, Type (0, 0), BuildingBlock: KIFKEQ_clean_linker_1, # of connection points: 2
#     Edge 8, Type (0, 0), BuildingBlock: KIFKEQ_clean_linker_1, # of connection points: 2
#     Edge 9, Type (0, 0), BuildingBlock: KIFKEQ_clean_linker_1, # of connection points: 2
#     Edge 10, Type (0, 0), BuildingBlock: KIFKEQ_clean_linker_1, # of connection points: 2
#     Edge 11, Type (0, 0), BuildingBlock: KIFKEQ_clean_linker_1, # of connection points: 2
#     Edge 12, Type (0, 0), BuildingBlock: KIFKEQ_clean_linker_1, # of connection points: 2
#     Edge 13, Type (0, 0), BuildingBlock: KIFKEQ_clean_linker_1, # of connection points: 2
#     Edge 14, Type (0, 0), BuildingBlock: KIFKEQ_clean_linker_1, # of connection points: 2
#     Edge 15, Type (0, 0), BuildingBlock: KIFKEQ_clean_linker_1, # of connection points: 2
#     Edge 16, Type (0, 0), BuildingBlock: KIFKEQ_clean_linker_1, # of connection points: 2
#     Edge 17, Type (0, 0), BuildingBlock: KIFKEQ_clean_linker_1, # of connection points: 2
#     Edge 18, Type (0, 0), BuildingBlock: KIFKEQ_clean_linker_1, # of connection points: 2
#     Edge 19, Type (0, 0), BuildingBlock: KIFKEQ_clean_linker_1, # of connection points: 2
#     Edge 20, Type (0, 0), BuildingBlock: KIFKEQ_clean_linker_1, # of connection points: 2
#     Edge 21, Type (0, 0), BuildingBlock: KIFKEQ_clean_linker_1, # of connection points: 2
#     Edge 22, Type (0, 0), BuildingBlock: KIFKEQ_clean_linker_1, # of connection points: 2
#     Edge 23, Type (0, 0), BuildingBlock: KIFKEQ_clean_linker_1, # of connection points: 2
# Relax obj value: 0.722
# Max RMSD: 0.251
# Mean RMSD: 0.251
data_MOF--net-rkf--node1-BETGAK_clean_sbu_0--edge1-KIFKEQ_clean_linker_1
_symmetry_space_group_name_H-M    P1
_symmetry_Int_Tables_number       1
_symmetry_cell_setting            triclinic
loop_
_symmetry_equiv_pos_as_xyz
'x, y, z'
_cell_length_a     26.05336
_cell_length_b     26.107516
_cell_length_c     44.762374
_cell_angle_alpha  90.429648
_cell_angle_beta   89.525156
_cell_angle_gamma 120.41348
loop_
_atom_site_label
_atom_site_type_symbol
_atom_site_fract_x
_atom_site_fract_y
_atom_site_fract_z
_atom_type_partial_charge
La0 La 0.32254 0.06775 0.17125 0.0
La1 La 0.3318 0.17795 1.15227 0.0
C2 C 0.34086 -0.01622 0.182 0.0
C3 C 0.33002 0.9448 0.20761 0.0
C4 C 0.32738 0.96393 0.23659 0.0
C5 C 0.31009 0.92448 0.26043 0.0
C6 C 0.29464 0.86496 0.25572 0.0
C7 C 0.29904 0.84641 0.22674 0.0
C8 C 0.31678 0.88619 0.20285 0.0
C9 C 0.2225 0.06592 0.17978 0.0
C10 C 0.32747 0.16018 0.22151 0.0
C11 C 0.34937 0.27148 1.12858 0.0
C12 C 0.35969 0.32606 1.1141 0.0
C13 C 0.37462 0.37668 1.13142 0.0
C14 C 0.39744 0.4322 1.1178 0.0
C15 C 0.40508 0.43779 1.08659 0.0
C16 C 0.38793 0.38617 1.0694 0.0
C17 C 0.36621 0.33114 1.08304 0.0
C18 C 0.43264 0.18183 0.16509 0.0
C19 C 0.28582 0.07286 1.10321 0.0
O20 O 0.2928 0.97672 0.16913 0.0
O21 O 0.3811 0.04003 0.1856 0.0
O22 O 0.24487 0.04423 0.19803 0.0
O23 O 0.2573 0.08942 1.15781 0.0
O24 O 0.34172 0.11864 0.2148 0.0
O25 O 0.31246 0.18409 0.19965 0.0
O26 O 0.37517 0.2425 1.11911 0.0
O27 O 0.30972 0.24526 1.14996 0.0
O28 O 0.41855 0.21928 0.1751 0.0
O29 O 0.39039 0.14337 1.15007 0.0
O30 O 0.29195 0.12518 1.11067 0.0
O31 O 0.29864 0.04355 1.12327 0.0
H32 H 0.33649 0.00875 0.24066 0.0
H33 H 0.30575 0.9399 0.28232 0.0
H34 H 0.28727 0.80087 0.22244 0.0
H35 H 0.3182 0.87067 0.18051 0.0
H36 H 0.37148 0.37381 1.15556 0.0
H37 H 0.41027 0.47078 1.1318 0.0
H38 H 0.39096 0.38795 1.04525 0.0
H39 H 0.35569 0.29267 1.06934 0.0
La40 La 0.32769 0.2738 0.50995 0.0
La41 La 0.29465 0.36519 0.49569 0.0
C42 C 0.38481 0.22447 0.52551 0.0
C43 C 0.41899 0.21847 0.5497 0.0
C44 C 0.40206 0.21507 0.57972 0.0
C45 C 0.43357 0.20499 0.60177 0.0
C46 C 0.48259 0.1984 0.59415 0.0
C47 C 0.5006 0.20422 0.56412 0.0
C48 C 0.46902 0.21416 0.54212 0.0
C49 C 0.22248 0.23275 0.48707 0.0
C50 C 0.27182 0.31839 0.56268 0.0
C51 C 0.25942 0.43506 0.48068 0.0
C52 C 0.24153 0.45779 0.45561 0.0
C53 C 0.22867 0.50307 0.46098 0.0
C54 C 0.21057 0.52537 0.43766 0.0
C55 C 0.20532 0.50269 0.40862 0.0
C56 C 0.21935 0.45784 0.40331 0.0
C57 C 0.2374 0.43555 0.42667 0.0
C58 C 0.40167 0.40509 0.5186 0.0
C59 C 0.32561 0.3012 0.44105 0.0
O60 O 0.32698 0.20008 0.52891 0.0
O61 O 0.40919 0.27665 0.51282 0.0
O62 O 0.25381 0.20725 0.48328 0.0
O63 O 0.24702 0.2743 0.50561 0.0
O64 O 0.30318 0.29198 0.55575 0.0
O65 O 0.25852 0.34522 0.54155 0.0
O66 O 0.31539 0.44968 0.48129 0.0
O67 O 0.22352 0.37964 0.4883 0.0
O68 O 0.36642 0.42454 0.52556 0.0
O69 O 0.3766 0.36534 0.49911 0.0
O70 O 0.30108 0.33361 0.44936 0.0
O71 O 0.34518 0.27882 0.46157 0.0
H72 H 0.36374 0.21862 0.58602 0.0
H73 H 0.41785 0.19978 0.62464 0.0
H74 H 0.53835 0.1999 0.55756 0.0
H75 H 0.48292 0.21718 0.519 0.0
H76 H 0.23211 0.52084 0.48331 0.0
H77 H 0.20021 0.55992 0.44238 0.0
H78 H 0.21449 0.43853 0.38127 0.0
H79 H 0.24728 0.40056 0.42227 0.0
La80 La 0.10153 0.34876 0.84192 0.0
La81 La -0.01605 0.24373 0.82118 0.0
C82 C 0.17543 0.45271 0.85894 0.0
C83 C 0.21031 0.48631 0.8849 0.0
C84 C 0.19647 0.46167 0.91352 0.0
C85 C 0.23308 0.49292 0.93754 0.0
C86 C 0.28424 0.5492 0.93327 0.0
C87 C 0.29708 0.57419 0.90459 0.0
C88 C 0.26018 0.54296 0.88059 0.0
C89 C 0.10353 0.25108 0.83579 0.0
C90 C 0.00418 0.25885 0.89172 0.0
C91 C 0.89426 0.15285 0.80022 0.0
C92 C 0.84192 0.13959 0.78183 0.0
C93 C 0.78801 0.12753 0.79542 0.0
C94 C 0.73686 0.10908 0.77829 0.0
C95 C 0.73844 0.10199 0.74721 0.0
C96 C 0.79303 0.11634 0.73358 0.0
C97 C 0.84405 0.13475 0.75067 0.0
C98 C -0.00779 0.34921 0.82204 0.0
C99 C 0.09135 0.30738 0.77342 0.0
O100 O 0.19038 0.4162 0.84694 0.0
O101 O 0.11755 0.42942 0.8607 0.0
O102 O 0.15137 0.30323 0.83585 0.0
O103 O 0.05999 0.25578 0.8444 0.0
O104 O 0.05201 0.3127 0.88608 0.0
O105 O -0.02311 0.22165 0.86912 0.0
O106 O 0.89623 0.17411 0.82697 0.0
O107 O 0.94655 0.17926 0.78716 0.0
O108 O 0.94352 0.30039 0.82764 0.0
O109 O 0.03066 0.33674 0.81477 0.0
O110 O 0.04123 0.25813 0.78122 0.0
O111 O 0.1173 0.35318 0.79251 0.0
H112 H 0.15835 0.41776 0.91715 0.0
H113 H 0.22265 0.47181 0.95924 0.0
H114 H 0.33605 0.61734 0.90064 0.0
H115 H 0.27135 0.56245 0.8585 0.0
H116 H 0.78477 0.13057 0.81944 0.0
H117 H 0.69566 0.09854 0.78947 0.0
H118 H 0.79581 0.11009 0.7098 0.0
H119 H 0.88461 0.14311 0.73951 0.0
La120 La 0.86842 0.11534 0.17701 0.0
La121 La 0.76064 0.00411 1.15997 0.0
C122 C 0.93814 0.22557 0.18254 0.0
C123 C 0.95241 0.27316 0.20413 0.0
C124 C 0.94965 0.26315 0.23492 0.0
C125 C 0.96363 0.30966 0.25486 0.0
C126 C -0.02011 0.36672 0.24432 0.0
C127 C -0.01958 0.37573 0.2134 0.0
C128 C -0.03312 0.32928 0.19349 0.0
C129 C 0.88149 0.02302 0.17169 0.0
C130 C 0.80467 0.0225 0.22849 0.0
C131 C 0.67668 0.90535 1.14254 0.0
C132 C 0.65456 0.86059 1.11879 0.0
C133 C 0.60805 0.80321 1.12551 0.0
C134 C 0.58944 0.7576 1.10446 0.0
C135 C 0.61704 0.76894 1.07631 0.0
C136 C 0.66193 0.82733 1.0692 0.0
C137 C 0.68074 0.87287 1.09037 0.0
C138 C 0.74117 0.08266 0.18779 0.0
C139 C 0.84704 0.09322 1.10705 0.0
O140 O 0.95284 0.18587 0.1891 0.0
O141 O 0.88484 0.2017 0.17128 0.0
O142 O 0.91098 0.0658 0.19068 0.0
O143 O 0.85171 0.03574 1.15476 0.0
O144 O 0.83494 0.08046 0.22242 0.0
O145 O 0.77798 -0.01643 0.20621 0.0
O146 O 0.67977 0.95612 1.13705 0.0
O147 O 0.72266 0.91181 1.15754 0.0
O148 O 0.71063 0.02616 0.19184 0.0
O149 O 0.77927 0.09237 0.16798 0.0
O150 O 0.79407 0.04542 1.11402 0.0
O151 O 0.88525 0.12301 1.12867 0.0
H152 H 0.93764 0.21977 0.24352 0.0
H153 H 0.96389 0.30132 0.27851 0.0
H154 H -0.0078 0.41887 0.20458 0.0
H155 H -0.03188 0.33728 0.1697 0.0
H156 H 0.58735 0.79323 1.14744 0.0
H157 H 0.55484 0.71314 1.11048 0.0
H158 H 0.6848 0.83716 1.04785 0.0
H159 H 0.71687 0.91697 1.08493 0.0
La160 La 0.77464 0.83765 0.51083 0.0
La161 La 0.89505 0.85687 0.49393 0.0
C162 C 0.66771 0.79155 0.52779 0.0
C163 C 0.63671 0.79844 0.5537 0.0
C164 C 0.66233 0.81044 0.58217 0.0
C165 C 0.6375 0.82673 0.60547 0.0
C166 C 0.58695 0.83191 0.60066 0.0
C167 C 0.5598 0.81713 0.57246 0.0
C168 C 0.58444 0.80032 0.5492 0.0
C169 C 0.85822 0.94927 0.51045 0.0
C170 C 0.86725 0.84555 0.56292 0.0
C171 C -0.00391 0.88215 0.47443 0.0
C172 C 0.01701 0.85053 0.45481 0.0
C173 C 0.02994 0.8084 0.46651 0.0
C174 C 0.04893 0.77811 0.44774 0.0
C175 C 0.05537 0.78936 0.41691 0.0
C176 C 0.04252 0.83157 0.4053 0.0
C177 C 0.02373 0.86186 0.42402 0.0
C178 C 0.80504 0.74543 0.49202 0.0
C179 C 0.82008 0.87758 0.44384 0.0
O180 O 0.69471 0.83846 0.51079 0.0
O181 O 0.70052 0.76742 0.53237 0.0
O182 O 0.80236 0.9316 0.50723 0.0
O183 O 0.86339 0.90589 0.51802 0.0
O184 O 0.8104 0.82598 0.55518 0.0
O185 O 0.90956 0.87032 0.54224 0.0
O186 O -0.02465 0.85845 0.50056 0.0
O187 O 0.96321 0.90084 0.46208 0.0
O188 O 0.85834 0.7602 0.49955 0.0
O189 O 0.80521 0.79124 0.48438 0.0
O190 O 0.87374 0.89289 0.45414 0.0
O191 O 0.77213 0.84531 0.46106 0.0
H192 H 0.70311 0.81005 0.58609 0.0
H193 H 0.66022 0.83889 0.62675 0.0
H194 H 0.52085 0.82062 0.56813 0.0
H195 H 0.56427 0.7915 0.52728 0.0
H196 H 0.02555 0.79884 0.4902 0.0
H197 H 0.05873 0.74607 0.45734 0.0
H198 H 0.04866 0.8426 0.38177 0.0
H199 H 0.0148 0.89447 0.41435 0.0
La200 La 0.00526 0.80439 0.84561 0.0
La201 La 0.13167 0.88848 0.82447 0.0
C202 C 0.916 0.7109 0.86465 0.0
C203 C 0.87666 0.6855 0.8905 0.0
C204 C 0.88771 0.7173 0.91729 0.0
C205 C 0.84486 0.69572 0.94002 0.0
C206 C 0.79032 0.64238 0.93607 0.0
C207 C 0.78095 0.60937 0.90973 0.0
C208 C 0.82394 0.6308 0.88713 0.0
C209 C 0.02833 0.91114 0.83364 0.0
C210 C 0.1068 0.88762 0.89469 0.0
C211 C 0.23127 0.96561 0.80367 0.0
C212 C 0.28062 0.96722 0.78635 0.0
C213 C 0.33455 -0.01713 0.8006 0.0
C214 C 0.38391 -0.00892 0.78405 0.0
C215 C 0.38051 -0.01562 0.75283 0.0
C216 C 0.32543 0.96566 0.73887 0.0
C217 C 0.27612 0.9572 0.75541 0.0
C218 C 0.10111 0.77589 0.83135 0.0
C219 C 0.0254 0.83477 0.77579 0.0
O220 O 0.91298 0.75344 0.85098 0.0
O221 O -0.02915 0.72213 0.86723 0.0
O222 O -0.02528 0.86536 0.83383 0.0
O223 O 0.0632 0.89693 0.84498 0.0
O224 O 0.05353 0.8387 0.88986 0.0
O225 O 0.13981 0.91859 0.87142 0.0
O226 O 0.22336 0.94408 0.83064 0.0
O227 O 0.18071 0.94805 0.79 0.0
O228 O 0.15426 0.81983 0.83537 0.0
O229 O 0.07022 0.79573 0.82139 0.0
O230 O 0.08073 0.87727 0.78265 0.0
O231 O -0.00885 0.79482 0.79632 0.0
H232 H 0.92814 0.75984 0.92008 0.0
H233 H 0.85297 0.72258 0.95991 0.0
H234 H 0.73952 0.5681 0.90619 0.0
H235 H 0.81492 0.60586 0.86646 0.0
H236 H 0.33925 -0.00916 0.82448 0.0
H237 H 0.42537 0.00508 0.79556 0.0
H238 H 0.3211 0.96126 0.71481 0.0
H239 H 0.2353 0.94521 0.7437 0.0
H240 H 0.91696 0.00025 1.11917 0.0
H241 H 0.87465 0.94046 0.21031 0.0
H242 H -0.01482 0.96354 1.11622 0.0
H243 H 0.93864 0.89754 0.20655 0.0
H244 H 0.16496 0.00615 1.12973 0.0
H245 H 0.05815 0.94077 1.12369 0.0
H246 H 0.03183 0.98023 0.21498 0.0
H247 H 0.13814 0.0418 0.22098 0.0
C248 C 0.91962 0.97568 1.13793 0.0
C249 C 0.89467 0.97632 0.16557 0.0
C250 C 0.95835 0.95377 1.13626 0.0
C251 C -0.02803 0.93356 0.16248 0.0
C252 C 0.93247 0.9177 0.18687 0.0
C253 C 0.89607 0.94229 0.18915 0.0
C254 C 0.13574 0.00071 1.1483 0.0
C255 C 0.15861 0.03101 0.17538 0.0
C256 C 0.07476 0.96245 1.14505 0.0
C257 C 0.03563 0.95541 0.16855 0.0
C258 C 0.05976 -0.01665 0.19625 0.0
C259 C 0.1207 0.02034 0.19963 0.0
H260 H 0.85009 0.03743 0.48214 0.0
H261 H -0.02721 0.97929 0.50623 0.0
H262 H 0.93144 0.12391 0.45635 0.0
H263 H 0.05166 0.0622 0.47964 0.0
H264 H 0.14046 0.26315 0.50235 0.0
H265 H 0.03626 0.20707 0.48825 0.0
H266 H 0.07704 0.11241 0.42177 0.0
H267 H 0.18157 0.16805 0.43607 0.0
C268 C 0.89413 0.04283 0.48155 0.0
C269 C 0.90573 0.00219 0.49608 0.0
C270 C 0.93989 0.09129 0.46639 0.0
C271 C -0.00326 0.09804 0.46505 0.0
C272 C 0.0075 0.05661 0.47929 0.0
C273 C 0.96269 0.0097 0.49496 0.0
C274 C 0.12763 0.23248 0.4837 0.0
C275 C 0.16735 0.21656 0.47151 0.0
C276 C 0.06817 0.20137 0.47512 0.0
C277 C 0.04892 0.15342 0.45523 0.0
C278 C 0.09121 0.14829 0.43784 0.0
C279 C 0.15056 0.17876 0.44661 0.0
H280 H 0.96556 0.91774 0.78677 0.0
H281 H 0.13869 0.006 0.82817 0.0
H282 H -0.0036 0.00375 0.75466 0.0
H283 H 0.16934 0.09084 0.7963 0.0
H284 H 0.00383 0.14629 0.82723 0.0
H285 H -0.00958 0.0665 0.79518 0.0
H286 H 0.17371 0.17056 0.76547 0.0
H287 H 0.18597 0.25271 0.79718 0.0
C288 C 0.01034 0.95534 0.78873 0.0
C289 C 0.04837 0.95818 0.81152 0.0
C290 C 0.02884 0.00334 0.7695 0.0
C291 C 0.08303 0.05583 0.77509 0.0
C292 C 0.12561 0.05242 0.79276 0.0
C293 C 0.10753 0.00465 0.81185 0.0
C294 C 0.04089 0.15256 0.81339 0.0
C295 C 0.09659 0.20396 0.81568 0.0
C296 C 0.03298 0.1074 0.79424 0.0
C297 C 0.08188 0.11138 0.77844 0.0
C298 C 0.13566 0.16599 0.77781 0.0
C299 C 0.14322 0.21197 0.79668 0.0
H300 H 0.38554 0.52877 1.10273 0.0
H301 H 0.47531 0.48081 1.03634 0.0
H302 H 0.39017 0.60378 1.06947 0.0
H303 H 0.47392 0.55061 1.00198 0.0
H304 H 0.25791 0.56032 0.99106 0.0
H305 H 0.31942 0.57443 1.03364 0.0
H306 H 0.47008 0.62225 0.97503 0.0
H307 H 0.40614 0.60375 0.93206 0.0
C308 C 0.40748 0.53489 1.08133 0.0
C309 C 0.42608 0.49565 1.07134 0.0
C310 C 0.40961 0.57774 1.06202 0.0
C311 C 0.42752 0.57987 1.03206 0.0
C312 C 0.4571 0.54897 1.02434 0.0
C313 C 0.45679 0.50759 1.04396 0.0
C314 C 0.30449 0.57504 0.9873 0.0
C315 C 0.3264 0.57804 0.95829 0.0
C316 C 0.34059 0.58424 1.01189 0.0
C317 C 0.39966 0.59688 1.00798 0.0
C318 C 0.42416 0.60991 0.97894 0.0
C319 C 0.3876 0.59985 0.95424 0.0
H320 H 0.24326 0.52698 0.35082 0.0
H321 H 0.11049 0.5205 0.41156 0.0
H322 H 0.18512 0.52603 0.30883 0.0
H323 H 0.05319 0.52274 0.36938 0.0
H324 H 0.07432 0.47942 0.23636 0.0
H325 H 0.13029 0.54977 0.27577 0.0
H326 H -0.0044 0.43713 0.33986 0.0
H327 H 0.93791 0.36937 0.3002 0.0
C328 C 0.20252 0.52743 0.35516 0.0
C329 C 0.18018 0.52128 0.38432 0.0
C330 C 0.16941 0.52795 0.33104 0.0
C331 C 0.11327 0.52239 0.33567 0.0
C332 C 0.09544 0.52538 0.36506 0.0
C333 C 0.12845 0.52438 0.38924 0.0
C334 C 0.05515 0.47113 0.25859 0.0
C335 C 0.00296 0.41745 0.26548 0.0
C336 C 0.08756 0.5114 0.28127 0.0
C337 C 0.06898 0.49782 0.31118 0.0
C338 C 0.01206 0.44895 0.31719 0.0
C339 C -0.02077 0.40926 0.29448 0.0
H340 H 0.71977 0.12726 0.69035 0.0
H341 H 0.63038 0.0072 0.76365 0.0
H342 H 0.64686 0.05608 0.65605 0.0
H343 H 0.55494 0.93724 0.72954 0.0
H344 H 0.55831 0.91844 0.59317 0.0
H345 H 0.55927 -0.0149 0.6318 0.0
H346 H 0.57876 0.87808 0.69901 0.0
H347 H 0.57498 0.81055 0.66065 0.0
C348 C 0.68315 0.08657 0.69932 0.0
C349 C 0.68277 0.07152 0.72941 0.0
C350 C 0.64054 0.04578 0.67964 0.0
C351 C 0.59658 -0.01065 0.68982 0.0
C352 C 0.58977 0.97928 0.72081 0.0
C353 C 0.63291 0.01978 0.74045 0.0
C354 C 0.56 0.90771 0.61634 0.0
C355 C 0.56851 0.86033 0.62388 0.0
C356 C 0.56097 0.94625 0.6385 0.0
C357 C 0.57112 0.93839 0.66849 0.0
C358 C 0.57116 0.88619 0.67624 0.0
C359 C 0.56984 0.8476 0.65415 0.0
H360 H 0.60951 0.66408 1.0908 0.0
H361 H 0.60038 0.76241 1.01592 0.0
H362 H 0.62487 0.59989 1.05663 0.0
H363 H 0.61682 0.69917 0.98183 0.0
H364 H 0.79507 0.64155 0.99694 0.0
H365 H 0.72287 0.64189 1.03154 0.0
H366 H 0.60175 0.60671 0.95853 0.0
H367 H 0.67484 0.60765 0.92376 0.0
C368 C 0.60832 0.67047 1.067 0.0
C369 C 0.60581 0.71944 1.05595 0.0
C370 C 0.61736 0.63381 1.04746 0.0
C371 C 0.62393 0.64566 1.01667 0.0
C372 C 0.61242 0.68904 1.00545 0.0
C373 C 0.60365 0.72581 1.02498 0.0
C374 C 0.75233 0.63216 0.98844 0.0
C375 C 0.74111 0.62595 0.95766 0.0
C376 C 0.7105 0.63155 1.00829 0.0
C377 C 0.65684 0.62511 0.99766 0.0
C378 C 0.64295 0.61232 0.96727 0.0
C379 C 0.68477 0.61268 0.94741 0.0
H380 H 0.01933 0.74528 0.36067 0.0
H381 H 0.14812 0.77089 0.42794 0.0
H382 H 0.07881 0.73211 0.32307 0.0
H383 H 0.20637 0.7539 0.39053 0.0
H384 H 0.1961 0.75345 0.25371 0.0
H385 H 0.13401 0.69867 0.29623 0.0
H386 H 0.26741 0.82709 0.35606 0.0
H387 H 0.33031 0.87909 0.31382 0.0
C388 C 0.05947 0.74605 0.36758 0.0
C389 C 0.08045 0.76183 0.39692 0.0
C390 C 0.09336 0.73747 0.34605 0.0
C391 C 0.14882 0.74412 0.35351 0.0
C392 C 0.1649 0.7505 0.38384 0.0
C393 C 0.13124 0.75982 0.40536 0.0
C394 C 0.21331 0.76825 0.27601 0.0
C395 C 0.26709 0.82184 0.2805 0.0
C396 C 0.17743 0.7371 0.30042 0.0
C397 C 0.19438 0.75971 0.32959 0.0
C398 C 0.25217 0.80827 0.33405 0.0
C399 C 0.2882 0.83887 0.30973 0.0
H400 H 0.39535 0.93825 0.70021 0.0
H401 H 0.49109 0.0819 0.76292 0.0
H402 H 0.46172 -0.00151 0.66072 0.0
H403 H 0.56067 0.14063 0.72385 0.0
H404 H 0.51758 0.1158 0.58851 0.0
H405 H 0.53617 0.06591 0.62905 0.0
H406 H 0.52541 0.18646 0.69221 0.0
H407 H 0.51053 0.23789 0.65169 0.0
C408 C 0.43222 -0.0182 0.70586 0.0
C409 C 0.43521 0.00684 0.73414 0.0
C410 C 0.47119 0.01643 0.68318 0.0
C411 C 0.51404 0.07635 0.68868 0.0
C412 C 0.52581 0.09583 0.71854 0.0
C413 C 0.48598 0.0617 0.74112 0.0
C414 C 0.52183 0.13322 0.61096 0.0
C415 C 0.51026 0.17938 0.6171 0.0
C416 C 0.53217 0.10428 0.63428 0.0
C417 C 0.52999 0.12029 0.66414 0.0
C418 C 0.52697 0.17196 0.66968 0.0
C419 C 0.51725 0.20113 0.6464 0.0
H420 H 0.47385 0.11894 1.13605 0.0
H421 H 0.51417 0.24309 0.2088 0.0
H422 H 0.56315 0.1146 1.14715 0.0
H423 H 0.60353 0.23735 0.22037 0.0
H424 H 0.76154 0.18021 1.1563 0.0
H425 H 0.69505 0.22083 1.15478 0.0
H426 H 0.59433 0.10952 0.22881 0.0
H427 H 0.65983 0.06775 0.23003 0.0
C428 C 0.50207 0.14551 1.1543 0.0
C429 C 0.48745 0.18132 0.1716 0.0
C430 C 0.5531 0.14326 1.16051 0.0
C431 C 0.58992 0.17619 0.18432 0.0
C432 C 0.57572 0.21222 0.20171 0.0
C433 C 0.5249 0.21532 0.19514 0.0
C434 C 0.72672 0.16621 0.17301 0.0
C435 C 0.71482 0.12013 0.19291 0.0
C436 C 0.68896 0.18956 0.17217 0.0
C437 C 0.64005 0.16804 0.19169 0.0
C438 C 0.63233 0.12703 0.21382 0.0
C439 C 0.66948 0.10302 0.21438 0.0
H440 H 0.46151 0.50123 0.55447 0.0
H441 H 0.48798 0.39407 0.48906 0.0
H442 H 0.5665 0.57754 0.55029 0.0
H443 H 0.59357 0.47074 0.48524 0.0
H444 H 0.79381 0.64743 0.52041 0.0
H445 H 0.70014 0.55449 0.53144 0.0
H446 H 0.602 0.62159 0.48502 0.0
H447 H 0.69448 0.71309 0.47356 0.0
C448 C 0.49019 0.49313 0.53997 0.0
C449 C 0.46663 0.44236 0.52171 0.0
C450 C 0.55012 0.53661 0.53771 0.0
C451 C 0.58741 0.52955 0.51746 0.0
C452 C 0.56537 0.47649 0.50119 0.0
C453 C 0.50513 0.43292 0.50334 0.0
C454 C 0.75218 0.64167 0.51225 0.0
C455 C 0.75098 0.68736 0.49642 0.0
C456 C 0.69899 0.58887 0.51858 0.0
C457 C 0.64454 0.58181 0.5092 0.0
C458 C 0.64375 0.62661 0.49255 0.0
C459 C 0.69652 0.67874 0.48602 0.0
H460 H 0.08879 0.4476 0.80135 0.0
H461 H 0.92042 0.38795 0.84606 0.0
H462 H 0.11295 0.5501 0.80656 0.0
H463 H 0.94451 0.49179 0.85092 0.0
H464 H -0.00591 0.68253 0.81504 0.0
H465 H 0.96355 0.57733 0.81508 0.0
H466 H 0.13514 0.6214 0.85015 0.0
H467 H 0.16549 0.72681 0.85048 0.0
C468 C 0.05687 0.45654 0.81229 0.0
C469 C 0.00308 0.41012 0.82368 0.0
C470 C 0.07092 0.51522 0.81542 0.0
C471 C 0.03103 0.52876 0.82956 0.0
C472 C -0.02391 0.48228 0.84005 0.0
C473 C 0.96226 0.42316 0.83723 0.0
C474 C 0.02491 0.6696 0.8232 0.0
C475 C 0.08213 0.71254 0.8328 0.0
C476 C 0.00732 0.60948 0.82331 0.0
C477 C 0.04703 0.59147 0.83257 0.0
C478 C 0.10388 0.63437 0.84271 0.0
C479 C 0.12124 0.69448 0.84291 0.0
H480 H 0.31105 0.25146 0.24178 0.0
H481 H 0.3445 0.11708 0.27545 0.0
H482 H 0.3117 0.2863 0.29245 0.0
H483 H 0.34321 0.15045 0.32653 0.0
H484 H 0.38382 0.24687 0.41665 0.0
H485 H 0.38496 0.2147 0.36574 0.0
H486 H 0.27091 0.28135 0.33887 0.0
H487 H 0.27158 0.31536 0.39014 0.0
C488 C 0.31827 0.22877 0.25998 0.0
C489 C 0.32789 0.18099 0.25376 0.0
C490 C 0.3182 0.2488 0.28957 0.0
C491 C 0.32746 0.22204 0.31477 0.0
C492 C 0.33688 0.17393 0.30845 0.0
C493 C 0.33727 0.15409 0.27876 0.0
C494 C 0.35909 0.25525 0.39999 0.0
C495 C 0.32786 0.28454 0.40827 0.0
C496 C 0.35922 0.23589 0.37031 0.0
C497 C 0.3277 0.24418 0.34704 0.0
C498 C 0.29671 0.27406 0.35531 0.0
C499 C 0.29688 0.2938 0.38513 0.0
H500 H 0.23665 0.39273 0.58793 0.0
H501 H 0.25339 0.24177 0.61048 0.0
H502 H 0.1962 0.39083 0.63764 0.0
H503 H 0.21141 0.23903 0.66036 0.0
H504 H 0.07203 0.21466 0.73564 0.0
H505 H 0.1172 0.2173 0.68701 0.0
H506 H 0.21969 0.40834 0.6918 0.0
H507 H 0.17547 0.40554 0.74089 0.0
C508 C 0.23195 0.35896 0.60344 0.0
C509 C 0.24901 0.31751 0.59452 0.0
C510 C 0.20867 0.35804 0.63234 0.0
C511 C 0.19985 0.31476 0.65375 0.0
C512 C 0.21673 0.27304 0.64486 0.0
C513 C 0.24139 0.2748 0.61606 0.0
C514 C 0.10422 0.25747 0.72648 0.0
C515 C 0.11934 0.30991 0.74278 0.0
C516 C 0.1307 0.25895 0.69837 0.0
C517 C 0.1727 0.31304 0.68472 0.0
C518 C 0.18748 0.36555 0.70095 0.0
C519 C 0.16202 0.36399 0.72943 0.0
H520 H 0.04238 0.31599 0.94766 0.0
H521 H 0.91291 0.14831 0.90917 0.0
H522 H 0.00346 0.27705 0.99758 0.0
H523 H 0.87529 0.10881 0.95861 0.0
H524 H 0.78543 0.05598 1.05202 0.0
H525 H 0.82141 0.09621 1.0018 0.0
H526 H -0.0065 0.22043 1.03835 0.0
H527 H 0.95723 0.18178 1.08786 0.0
C528 C 0.00587 0.2707 0.94963 0.0
C529 C -0.01842 0.23604 0.92356 0.0
C530 C -0.01672 0.24767 0.97869 0.0
C531 C 0.93528 0.18864 0.9833 0.0
C532 C 0.91122 0.15439 0.95705 0.0
C533 C 0.93359 0.17739 0.92815 0.0
C534 C 0.83096 0.09184 1.0494 0.0
C535 C 0.86766 0.11492 1.07485 0.0
C536 C 0.8522 0.11524 1.02019 0.0
C537 C 0.9113 0.16285 1.01488 0.0
C538 C 0.94766 0.18516 1.04048 0.0
C539 C 0.92651 0.16208 1.06945 0.0
H540 H 0.87054 0.08637 0.27793 0.0
H541 H 0.73785 0.90849 0.25249 0.0
H542 H 0.87251 0.05189 0.32833 0.0
H543 H 0.73946 0.87382 0.30312 0.0
H544 H 0.72034 0.83885 0.40692 0.0
H545 H 0.71502 0.87213 0.35635 0.0
H546 H 0.90379 -0.00343 0.35821 0.0
H547 H 0.90898 0.96324 0.4083 0.0
C548 C 0.84136 0.03979 0.28295 0.0
C549 C 0.8039 0.00078 0.26041 0.0
C550 C 0.8428 0.01963 0.31218 0.0
C551 C 0.80629 0.95942 0.32067 0.0
C552 C 0.76812 0.92052 0.29821 0.0
C553 C 0.76733 0.94057 0.26879 0.0
C554 C 0.76083 0.87333 0.39663 0.0
C555 C 0.81515 0.89776 0.41237 0.0
C556 C 0.75788 0.89245 0.36724 0.0
C557 C 0.80891 0.93774 0.35235 0.0
C558 C 0.86299 0.96232 0.36835 0.0
C559 C 0.86607 0.94263 0.39741 0.0
H560 H 0.7999 0.8 0.61614 0.0
H561 H -0.01957 0.88459 0.58343 0.0
H562 H 0.83546 0.79672 0.66654 0.0
H563 H 0.01538 0.88026 0.63271 0.0
H564 H 0.91394 0.75585 0.75125 0.0
H565 H 0.87433 0.75768 0.70198 0.0
H566 H 0.03946 0.91698 0.68048 0.0
H567 H 0.07897 0.91408 0.72911 0.0
C568 C 0.8471 0.81799 0.61946 0.0
C569 C 0.88671 0.84295 0.59497 0.0
C570 C 0.86783 0.81579 0.64864 0.0
C571 C 0.92918 0.83861 0.65475 0.0
C572 C -0.03179 0.86321 0.63006 0.0
C573 C 0.94767 0.86533 0.60117 0.0
C574 C 0.94217 0.79109 0.73596 0.0
C575 C 0.00058 0.83426 0.7447 0.0
C576 C 0.919 0.79252 0.70743 0.0
C577 C 0.95303 0.83723 0.68613 0.0
C578 C 0.01127 0.88062 0.6952 0.0
C579 C 0.03433 0.87914 0.72359 0.0
H580 H 0.06787 0.83518 0.9515 0.0
H581 H 0.19973 -0.00175 0.91013 0.0
H582 H 0.10941 0.87755 1.00093 0.0
H583 H 0.2405 0.0402 0.95888 0.0
H584 H 0.27026 0.12479 1.05276 0.0
H585 H 0.226 0.07996 1.0046 0.0
H586 H 0.19401 0.91034 1.03564 0.0
H587 H 0.23887 0.95558 1.08391 0.0
C588 C 0.10542 0.88005 0.95272 0.0
C589 C 0.12972 0.91265 0.9261 0.0
C590 C 0.1298 0.90455 0.98133 0.0
C591 C 0.17893 0.96314 0.9847 0.0
C592 C 0.20252 -0.00446 0.95801 0.0
C593 C 0.17891 0.97092 0.9296 0.0
C594 C 0.25412 0.07793 1.04948 0.0
C595 C 0.25917 0.04457 1.07282 0.0
C596 C 0.22859 0.05187 1.02147 0.0
C597 C 0.20576 -0.00925 1.01539 0.0
C598 C 0.21018 0.95718 1.03891 0.0
C599 C 0.23664 -0.01648 1.06682 0.0
loop_
_geom_bond_atom_site_label_1
_geom_bond_atom_site_label_2
_geom_bond_distance
_geom_bond_site_symmetry_2
_ccdc_geom_bond_type
La0 C2 2.928 . S
La0 O20 2.521 . S
La0 O21 2.628 . S
La0 O22 2.554 . S
La0 O23 2.757 1_554 S
La0 O24 2.470 . S
La0 O29 2.482 . S
La0 O31 2.503 1_554 S
La1 C11 2.928 . S
La1 O23 2.482 . S
La1 O25 2.503 1_556 S
La1 O26 2.521 . S
La1 O27 2.628 . S
La1 O28 2.554 . S
La1 O29 2.757 1_556 S
La1 O30 2.470 . S
C2 La0 2.928 . S
C2 C3 1.503 . S
C2 O20 1.261 . S
C2 O21 1.243 . S
C3 C2 1.503 . S
C3 C4 1.394 . S
C3 C8 1.373 . S
C4 C3 1.394 . S
C4 C5 1.380 1_545 S
C4 H32 0.930 . S
C5 C4 1.380 1_565 S
C5 C6 1.376 1_565 S
C5 H33 0.930 . S
C6 C5 1.376 1_545 S
C6 C7 1.370 . S
C7 C6 1.370 . S
C7 C8 1.396 . S
C7 H34 0.929 . S
C8 C3 1.373 . S
C8 C7 1.396 . S
C8 H35 0.929 . S
C9 O22 1.240 . S
C9 O23 1.289 1_554 S
C10 O24 1.258 . S
C10 O25 1.256 . S
C11 La1 2.928 . S
C11 C12 1.503 . S
C11 O26 1.261 . S
C11 O27 1.243 . S
C12 C11 1.503 . S
C12 C13 1.394 . S
C12 C17 1.373 . S
C13 C12 1.394 . S
C13 C14 1.380 . S
C13 H36 0.930 . S
C14 C13 1.380 . S
C14 C15 1.376 . S
C14 H37 0.930 . S
C15 C14 1.376 . S
C15 C16 1.370 . S
C16 C15 1.370 . S
C16 C17 1.396 . S
C16 H38 0.929 . S
C17 C12 1.373 . S
C17 C16 1.396 . S
C17 H39 0.929 . S
C18 O28 1.240 1_554 S
C18 O29 1.289 . S
C19 O30 1.258 . S
C19 O31 1.256 . S
O20 La0 2.521 . S
O20 C2 1.261 . S
O21 La0 2.628 . S
O21 C2 1.243 . S
O22 La0 2.554 . S
O22 C9 1.240 . S
O23 La0 2.757 1_556 S
O23 La1 2.482 . S
O23 C9 1.289 1_556 S
O24 La0 2.470 . S
O24 C10 1.258 . S
O25 La1 2.503 1_554 S
O25 C10 1.256 . S
O26 La1 2.521 . S
O26 C11 1.261 . S
O27 La1 2.628 . S
O27 C11 1.243 . S
O28 La1 2.554 . S
O28 C18 1.240 1_556 S
O29 La0 2.482 . S
O29 La1 2.757 1_554 S
O29 C18 1.289 . S
O30 La1 2.470 . S
O30 C19 1.258 . S
O31 La0 2.503 1_556 S
O31 C19 1.256 . S
H32 C4 0.930 . S
H33 C5 0.930 . S
H34 C7 0.929 . S
H35 C8 0.929 . S
H36 C13 0.930 . S
H37 C14 0.930 . S
H38 C16 0.929 . S
H39 C17 0.929 . S
La40 C42 2.928 . S
La40 O60 2.521 . S
La40 O61 2.628 . S
La40 O62 2.554 . S
La40 O63 2.757 . S
La40 O64 2.470 . S
La40 O69 2.482 . S
La40 O71 2.503 . S
La41 C51 2.928 . S
La41 O63 2.482 . S
La41 O65 2.503 . S
La41 O66 2.521 . S
La41 O67 2.628 . S
La41 O68 2.554 . S
La41 O69 2.757 . S
La41 O70 2.470 . S
C42 La40 2.928 . S
C42 C43 1.503 . S
C42 O60 1.261 . S
C42 O61 1.243 . S
C43 C42 1.503 . S
C43 C44 1.394 . S
C43 C48 1.373 . S
C44 C43 1.394 . S
C44 C45 1.380 . S
C44 H72 0.930 . S
C45 C44 1.380 . S
C45 C46 1.376 . S
C45 H73 0.930 . S
C46 C45 1.376 . S
C46 C47 1.370 . S
C47 C46 1.370 . S
C47 C48 1.396 . S
C47 H74 0.929 . S
C48 C43 1.373 . S
C48 C47 1.396 . S
C48 H75 0.929 . S
C49 O62 1.240 . S
C49 O63 1.289 . S
C50 O64 1.258 . S
C50 O65 1.256 . S
C51 La41 2.928 . S
C51 C52 1.503 . S
C51 O66 1.261 . S
C51 O67 1.243 . S
C52 C51 1.503 . S
C52 C53 1.394 . S
C52 C57 1.373 . S
C53 C52 1.394 . S
C53 C54 1.380 . S
C53 H76 0.930 . S
C54 C53 1.380 . S
C54 C55 1.376 . S
C54 H77 0.930 . S
C55 C54 1.376 . S
C55 C56 1.370 . S
C56 C55 1.370 . S
C56 C57 1.396 . S
C56 H78 0.929 . S
C57 C52 1.373 . S
C57 C56 1.396 . S
C57 H79 0.929 . S
C58 O68 1.240 . S
C58 O69 1.289 . S
C59 O70 1.258 . S
C59 O71 1.256 . S
O60 La40 2.521 . S
O60 C42 1.261 . S
O61 La40 2.628 . S
O61 C42 1.243 . S
O62 La40 2.554 . S
O62 C49 1.240 . S
O63 La40 2.757 . S
O63 La41 2.482 . S
O63 C49 1.289 . S
O64 La40 2.470 . S
O64 C50 1.258 . S
O65 La41 2.503 . S
O65 C50 1.256 . S
O66 La41 2.521 . S
O66 C51 1.261 . S
O67 La41 2.628 . S
O67 C51 1.243 . S
O68 La41 2.554 . S
O68 C58 1.240 . S
O69 La40 2.482 . S
O69 La41 2.757 . S
O69 C58 1.289 . S
O70 La41 2.470 . S
O70 C59 1.258 . S
O71 La40 2.503 . S
O71 C59 1.256 . S
H72 C44 0.930 . S
H73 C45 0.930 . S
H74 C47 0.929 . S
H75 C48 0.929 . S
H76 C53 0.930 . S
H77 C54 0.930 . S
H78 C56 0.929 . S
H79 C57 0.929 . S
La80 C82 2.928 . S
La80 O100 2.521 . S
La80 O101 2.628 . S
La80 O102 2.554 . S
La80 O103 2.757 . S
La80 O104 2.470 1_455 S
La80 O109 2.482 . S
La80 O111 2.503 . S
La81 C91 2.928 . S
La81 O103 2.482 1_655 S
La81 O105 2.503 . S
La81 O106 2.521 . S
La81 O107 2.628 . S
La81 O108 2.554 . S
La81 O109 2.757 1_655 S
La81 O110 2.470 1_655 S
C82 La80 2.928 . S
C82 C83 1.503 . S
C82 O100 1.261 . S
C82 O101 1.243 . S
C83 C82 1.503 . S
C83 C84 1.394 . S
C83 C88 1.373 . S
C84 C83 1.394 . S
C84 C85 1.380 . S
C84 H112 0.930 . S
C85 C84 1.380 . S
C85 C86 1.376 . S
C85 H113 0.930 . S
C86 C85 1.376 . S
C86 C87 1.370 . S
C87 C86 1.370 . S
C87 C88 1.396 . S
C87 H114 0.929 . S
C88 C83 1.373 . S
C88 C87 1.396 . S
C88 H115 0.929 . S
C89 O102 1.240 . S
C89 O103 1.289 . S
C90 O104 1.258 . S
C90 O105 1.256 . S
C91 La81 2.928 . S
C91 C92 1.503 . S
C91 O106 1.261 . S
C91 O107 1.243 . S
C92 C91 1.503 . S
C92 C93 1.394 . S
C92 C97 1.373 . S
C93 C92 1.394 . S
C93 C94 1.380 . S
C93 H116 0.930 . S
C94 C93 1.380 . S
C94 C95 1.376 . S
C94 H117 0.930 . S
C95 C94 1.376 . S
C95 C96 1.370 . S
C96 C95 1.370 . S
C96 C97 1.396 . S
C96 H118 0.929 . S
C97 C92 1.373 . S
C97 C96 1.396 . S
C97 H119 0.929 . S
C98 O108 1.240 . S
C98 O109 1.289 1_655 S
C99 O110 1.258 . S
C99 O111 1.256 . S
O100 La80 2.521 . S
O100 C82 1.261 . S
O101 La80 2.628 . S
O101 C82 1.243 . S
O102 La80 2.554 . S
O102 C89 1.240 . S
O103 La80 2.757 . S
O103 La81 2.482 1_455 S
O103 C89 1.289 . S
O104 La80 2.470 1_655 S
O104 C90 1.258 . S
O105 La81 2.503 . S
O105 C90 1.256 . S
O106 La81 2.521 . S
O106 C91 1.261 . S
O107 La81 2.628 . S
O107 C91 1.243 . S
O108 La81 2.554 . S
O108 C98 1.240 . S
O109 La80 2.482 . S
O109 La81 2.757 1_455 S
O109 C98 1.289 1_455 S
O110 La81 2.470 1_455 S
O110 C99 1.258 . S
O111 La80 2.503 . S
O111 C99 1.256 . S
H112 C84 0.930 . S
H113 C85 0.930 . S
H114 C87 0.929 . S
H115 C88 0.929 . S
H116 C93 0.930 . S
H117 C94 0.930 . S
H118 C96 0.929 . S
H119 C97 0.929 . S
La120 C122 2.928 . S
La120 O140 2.521 . S
La120 O141 2.628 . S
La120 O142 2.554 . S
La120 O143 2.757 1_554 S
La120 O144 2.470 1_545 S
La120 O149 2.482 . S
La120 O151 2.503 1_554 S
La121 C131 2.928 . S
La121 O143 2.482 1_565 S
La121 O145 2.503 1_556 S
La121 O146 2.521 . S
La121 O147 2.628 . S
La121 O148 2.554 . S
La121 O149 2.757 1_566 S
La121 O150 2.470 1_565 S
C122 La120 2.928 . S
C122 C123 1.503 . S
C122 O140 1.261 . S
C122 O141 1.243 . S
C123 C122 1.503 . S
C123 C124 1.394 . S
C123 C128 1.373 . S
C124 C123 1.394 . S
C124 C125 1.380 . S
C124 H152 0.930 . S
C125 C124 1.380 . S
C125 C126 1.376 . S
C125 H153 0.930 . S
C126 C125 1.376 . S
C126 C127 1.370 . S
C127 C126 1.370 . S
C127 C128 1.396 . S
C127 H154 0.929 . S
C128 C123 1.373 . S
C128 C127 1.396 . S
C128 H155 0.929 . S
C129 O142 1.240 . S
C129 O143 1.289 1_554 S
C130 O144 1.258 . S
C130 O145 1.256 . S
C131 La121 2.928 . S
C131 C132 1.503 . S
C131 O146 1.261 . S
C131 O147 1.243 . S
C132 C131 1.503 . S
C132 C133 1.394 . S
C132 C137 1.373 . S
C133 C132 1.394 . S
C133 C134 1.380 . S
C133 H156 0.930 . S
C134 C133 1.380 . S
C134 C135 1.376 . S
C134 H157 0.930 . S
C135 C134 1.376 . S
C135 C136 1.370 . S
C136 C135 1.370 . S
C136 C137 1.396 . S
C136 H158 0.929 . S
C137 C132 1.373 . S
C137 C136 1.396 . S
C137 H159 0.929 . S
C138 O148 1.240 1_554 S
C138 O149 1.289 1_565 S
C139 O150 1.258 . S
C139 O151 1.256 . S
O140 La120 2.521 . S
O140 C122 1.261 . S
O141 La120 2.628 . S
O141 C122 1.243 . S
O142 La120 2.554 . S
O142 C129 1.240 . S
O143 La120 2.757 1_556 S
O143 La121 2.482 1_545 S
O143 C129 1.289 1_556 S
O144 La120 2.470 1_565 S
O144 C130 1.258 . S
O145 La121 2.503 1_554 S
O145 C130 1.256 . S
O146 La121 2.521 . S
O146 C131 1.261 . S
O147 La121 2.628 . S
O147 C131 1.243 . S
O148 La121 2.554 . S
O148 C138 1.240 1_556 S
O149 La120 2.482 . S
O149 La121 2.757 1_544 S
O149 C138 1.289 1_545 S
O150 La121 2.470 1_545 S
O150 C139 1.258 . S
O151 La120 2.503 1_556 S
O151 C139 1.256 . S
H152 C124 0.930 . S
H153 C125 0.930 . S
H154 C127 0.929 . S
H155 C128 0.929 . S
H156 C133 0.930 . S
H157 C134 0.930 . S
H158 C136 0.929 . S
H159 C137 0.929 . S
La160 C162 2.928 . S
La160 O180 2.521 . S
La160 O181 2.628 . S
La160 O182 2.554 . S
La160 O183 2.757 . S
La160 O184 2.470 . S
La160 O189 2.482 . S
La160 O191 2.503 . S
La161 C171 2.928 . S
La161 O183 2.482 . S
La161 O185 2.503 . S
La161 O186 2.521 . S
La161 O187 2.628 1_655 S
La161 O188 2.554 . S
La161 O189 2.757 . S
La161 O190 2.470 . S
C162 La160 2.928 . S
C162 C163 1.503 . S
C162 O180 1.261 . S
C162 O181 1.243 . S
C163 C162 1.503 . S
C163 C164 1.394 . S
C163 C168 1.373 . S
C164 C163 1.394 . S
C164 C165 1.380 . S
C164 H192 0.930 . S
C165 C164 1.380 . S
C165 C166 1.376 . S
C165 H193 0.930 . S
C166 C165 1.376 . S
C166 C167 1.370 . S
C167 C166 1.370 . S
C167 C168 1.396 . S
C167 H194 0.929 . S
C168 C163 1.373 . S
C168 C167 1.396 . S
C168 H195 0.929 . S
C169 O182 1.240 1_455 S
C169 O183 1.289 1_455 S
C170 O184 1.258 . S
C170 O185 1.256 . S
C171 La161 2.928 . S
C171 C172 1.503 1_655 S
C171 O186 1.261 . S
C171 O187 1.243 1_655 S
C172 C171 1.503 1_455 S
C172 C173 1.394 1_455 S
C172 C177 1.373 . S
C173 C172 1.394 1_655 S
C173 C174 1.380 1_655 S
C173 H196 0.930 . S
C174 C173 1.380 1_455 S
C174 C175 1.376 . S
C174 H197 0.930 1_455 S
C175 C174 1.376 . S
C175 C176 1.370 . S
C176 C175 1.370 . S
C176 C177 1.396 . S
C176 H198 0.929 . S
C177 C172 1.373 . S
C177 C176 1.396 . S
C177 H199 0.929 . S
C178 O188 1.240 . S
C178 O189 1.289 . S
C179 O190 1.258 . S
C179 O191 1.256 . S
O180 La160 2.521 . S
O180 C162 1.261 . S
O181 La160 2.628 . S
O181 C162 1.243 . S
O182 La160 2.554 . S
O182 C169 1.240 1_655 S
O183 La160 2.757 . S
O183 La161 2.482 . S
O183 C169 1.289 1_655 S
O184 La160 2.470 . S
O184 C170 1.258 . S
O185 La161 2.503 . S
O185 C170 1.256 . S
O186 La161 2.521 . S
O186 C171 1.261 . S
O187 La161 2.628 1_455 S
O187 C171 1.243 1_455 S
O188 La161 2.554 . S
O188 C178 1.240 . S
O189 La160 2.482 . S
O189 La161 2.757 . S
O189 C178 1.289 . S
O190 La161 2.470 . S
O190 C179 1.258 . S
O191 La160 2.503 . S
O191 C179 1.256 . S
H192 C164 0.930 . S
H193 C165 0.930 . S
H194 C167 0.929 . S
H195 C168 0.929 . S
H196 C173 0.930 . S
H197 C174 0.930 1_655 S
H198 C176 0.929 . S
H199 C177 0.929 . S
La200 C202 2.928 . S
La200 O220 2.521 . S
La200 O221 2.628 . S
La200 O222 2.554 . S
La200 O223 2.757 . S
La200 O224 2.470 . S
La200 O229 2.482 . S
La200 O231 2.503 . S
La201 C211 2.928 . S
La201 O223 2.482 . S
La201 O225 2.503 . S
La201 O226 2.521 . S
La201 O227 2.628 1_565 S
La201 O228 2.554 . S
La201 O229 2.757 . S
La201 O230 2.470 . S
C202 La200 2.928 . S
C202 C203 1.503 . S
C202 O220 1.261 . S
C202 O221 1.243 . S
C203 C202 1.503 . S
C203 C204 1.394 . S
C203 C208 1.373 . S
C204 C203 1.394 . S
C204 C205 1.380 1_455 S
C204 H232 0.932 . S
C205 C204 1.380 1_655 S
C205 C206 1.376 1_655 S
C205 H233 0.930 . S
C206 C205 1.376 1_455 S
C206 C207 1.370 . S
C207 C206 1.370 . S
C207 C208 1.396 . S
C207 H234 0.929 . S
C208 C203 1.373 . S
C208 C207 1.396 . S
C208 H235 0.929 . S
C209 O222 1.240 1_545 S
C209 O223 1.289 1_545 S
C210 O224 1.258 . S
C210 O225 1.256 . S
C211 La201 2.928 . S
C211 C212 1.503 1_565 S
C211 O226 1.261 . S
C211 O227 1.243 1_565 S
C212 C211 1.503 1_545 S
C212 C213 1.394 1_545 S
C212 C217 1.373 . S
C213 C212 1.394 1_565 S
C213 C214 1.380 1_565 S
C213 H236 0.930 . S
C214 C213 1.380 1_545 S
C214 C215 1.376 . S
C214 H237 0.930 1_545 S
C215 C214 1.376 . S
C215 C216 1.370 . S
C216 C215 1.370 . S
C216 C217 1.396 . S
C216 H238 0.929 . S
C217 C212 1.373 . S
C217 C216 1.396 . S
C217 H239 0.929 . S
C218 O228 1.240 . S
C218 O229 1.289 . S
C219 O230 1.258 . S
C219 O231 1.256 . S
O220 La200 2.521 . S
O220 C202 1.261 . S
O221 La200 2.628 . S
O221 C202 1.243 . S
O222 La200 2.554 . S
O222 C209 1.240 1_565 S
O223 La200 2.757 . S
O223 La201 2.482 . S
O223 C209 1.289 1_565 S
O224 La200 2.470 . S
O224 C210 1.258 . S
O225 La201 2.503 . S
O225 C210 1.256 . S
O226 La201 2.521 . S
O226 C211 1.261 . S
O227 La201 2.628 1_545 S
O227 C211 1.243 1_545 S
O228 La201 2.554 . S
O228 C218 1.240 . S
O229 La200 2.482 . S
O229 La201 2.757 . S
O229 C218 1.289 . S
O230 La201 2.470 . S
O230 C219 1.258 . S
O231 La200 2.503 . S
O231 C219 1.256 . S
H232 C204 0.932 . S
H233 C205 0.930 . S
H234 C207 0.929 . S
H235 C208 0.929 . S
H236 C213 0.930 . S
H237 C214 0.930 1_565 S
H238 C216 0.929 . S
H239 C217 0.929 . S
H240 C248 0.950 . S
H241 C253 0.950 . S
H242 C250 0.950 . S
H243 C252 0.950 1_565 S
H244 C254 0.950 . S
H245 C256 0.950 . S
H246 C258 0.951 . S
H247 C259 0.950 . S
C248 H240 0.950 . S
C248 C249 1.386 . S
C248 C250 1.391 1_655 S
C249 C248 1.386 . S
C249 C253 1.393 1_545 S
C250 H242 0.950 . S
C250 C248 1.391 1_455 S
C250 C251 1.400 . S
C251 C250 1.400 . S
C251 C252 1.398 . S
C251 C257 1.491 . S
C252 H243 0.950 1_545 S
C252 C251 1.398 . S
C252 C253 1.391 1_445 S
C253 H241 0.950 . S
C253 C249 1.393 1_565 S
C253 C252 1.391 1_665 S
C254 H244 0.950 . S
C254 C255 1.386 . S
C254 C256 1.391 . S
C255 C254 1.386 . S
C255 C259 1.393 . S
C256 H245 0.950 . S
C256 C254 1.391 . S
C256 C257 1.400 . S
C257 C251 1.491 . S
C257 C256 1.400 . S
C257 C258 1.398 . S
C258 H246 0.951 . S
C258 C257 1.398 . S
C258 C259 1.391 . S
C259 H247 0.950 . S
C259 C255 1.393 . S
C259 C258 1.391 . S
H260 C268 0.950 1_655 S
H261 C273 0.950 . S
H262 C270 0.950 . S
H263 C272 0.950 . S
H264 C274 0.950 . S
H265 C276 0.950 . S
H266 C278 0.950 . S
H267 C279 0.950 . S
C268 H260 0.950 1_455 S
C268 C269 1.386 . S
C268 C270 1.391 1_565 S
C269 C268 1.386 . S
C269 C273 1.393 . S
C270 H262 0.950 . S
C270 C268 1.391 1_545 S
C270 C271 1.400 . S
C271 C270 1.400 . S
C271 C272 1.398 . S
C271 C277 1.491 . S
C272 H263 0.950 . S
C272 C271 1.398 . S
C272 C273 1.391 1_545 S
C273 H261 0.950 . S
C273 C269 1.393 . S
C273 C272 1.391 1_565 S
C274 H264 0.950 . S
C274 C275 1.386 . S
C274 C276 1.391 . S
C275 C274 1.386 . S
C275 C279 1.393 . S
C276 H265 0.950 . S
C276 C274 1.391 . S
C276 C277 1.400 . S
C277 C271 1.491 . S
C277 C276 1.400 . S
C277 C278 1.398 . S
C278 H266 0.950 . S
C278 C277 1.398 . S
C278 C279 1.391 . S
C279 H267 0.950 . S
C279 C275 1.393 . S
C279 C278 1.391 . S
H280 C288 0.950 . S
H281 C293 0.950 . S
H282 C290 0.950 . S
H283 C292 0.950 . S
H284 C294 0.950 . S
H285 C296 0.950 . S
H286 C298 0.950 . S
H287 C299 0.950 . S
C288 H280 0.950 . S
C288 C289 1.386 . S
C288 C290 1.391 . S
C289 C288 1.386 . S
C289 C293 1.393 . S
C290 H282 0.950 . S
C290 C288 1.391 . S
C290 C291 1.400 . S
C291 C290 1.400 . S
C291 C292 1.398 . S
C291 C297 1.491 . S
C292 H283 0.950 . S
C292 C291 1.398 . S
C292 C293 1.391 . S
C293 H281 0.950 . S
C293 C289 1.393 . S
C293 C292 1.391 . S
C294 H284 0.950 . S
C294 C295 1.386 . S
C294 C296 1.391 . S
C295 C294 1.386 . S
C295 C299 1.393 . S
C296 H285 0.950 . S
C296 C294 1.391 . S
C296 C297 1.400 . S
C297 C291 1.491 . S
C297 C296 1.400 . S
C297 C298 1.398 . S
C298 H286 0.950 . S
C298 C297 1.398 . S
C298 C299 1.391 . S
C299 H287 0.950 . S
C299 C295 1.393 . S
C299 C298 1.391 . S
H300 C308 0.950 . S
H301 C313 0.950 . S
H302 C310 0.950 . S
H303 C312 0.950 . S
H304 C314 0.950 . S
H305 C316 0.950 . S
H306 C318 0.950 . S
H307 C319 0.950 . S
C308 H300 0.950 . S
C308 C309 1.386 . S
C308 C310 1.391 . S
C309 C308 1.386 . S
C309 C313 1.393 . S
C310 H302 0.950 . S
C310 C308 1.391 . S
C310 C311 1.400 . S
C311 C310 1.400 . S
C311 C312 1.398 . S
C311 C317 1.491 . S
C312 H303 0.950 . S
C312 C311 1.398 . S
C312 C313 1.391 . S
C313 H301 0.950 . S
C313 C309 1.393 . S
C313 C312 1.391 . S
C314 H304 0.950 . S
C314 C315 1.386 . S
C314 C316 1.391 . S
C315 C314 1.386 . S
C315 C319 1.393 . S
C316 H305 0.950 . S
C316 C314 1.391 . S
C316 C317 1.400 . S
C317 C311 1.491 . S
C317 C316 1.400 . S
C317 C318 1.398 . S
C318 H306 0.950 . S
C318 C317 1.398 . S
C318 C319 1.391 . S
C319 H307 0.950 . S
C319 C315 1.393 . S
C319 C318 1.391 . S
H320 C328 0.950 . S
H321 C333 0.950 . S
H322 C330 0.950 . S
H323 C332 0.950 . S
H324 C334 0.950 . S
H325 C336 0.950 . S
H326 C338 0.950 1_455 S
H327 C339 0.950 . S
C328 H320 0.950 . S
C328 C329 1.386 . S
C328 C330 1.391 . S
C329 C328 1.386 . S
C329 C333 1.393 . S
C330 H322 0.950 . S
C330 C328 1.391 . S
C330 C331 1.400 . S
C331 C330 1.400 . S
C331 C332 1.398 . S
C331 C337 1.491 1_455 S
C332 H323 0.950 . S
C332 C331 1.398 . S
C332 C333 1.391 . S
C333 H321 0.950 . S
C333 C329 1.393 . S
C333 C332 1.391 . S
C334 H324 0.950 . S
C334 C335 1.386 . S
C334 C336 1.391 . S
C335 C334 1.386 . S
C335 C339 1.393 . S
C336 H325 0.950 . S
C336 C334 1.391 . S
C336 C337 1.400 . S
C337 C331 1.491 1_655 S
C337 C336 1.400 . S
C337 C338 1.398 . S
C338 H326 0.950 1_655 S
C338 C337 1.398 . S
C338 C339 1.391 . S
C339 H327 0.950 . S
C339 C335 1.393 . S
C339 C338 1.391 . S
H340 C348 0.950 . S
H341 C353 0.950 . S
H342 C350 0.950 . S
H343 C352 0.950 . S
H344 C354 0.950 . S
H345 C356 0.950 . S
H346 C358 0.950 1_545 S
H347 C359 0.950 . S
C348 H340 0.950 . S
C348 C349 1.386 . S
C348 C350 1.391 . S
C349 C348 1.386 . S
C349 C353 1.393 . S
C350 H342 0.950 . S
C350 C348 1.391 . S
C350 C351 1.400 . S
C351 C350 1.400 . S
C351 C352 1.398 . S
C351 C357 1.491 1_545 S
C352 H343 0.950 . S
C352 C351 1.398 . S
C352 C353 1.391 . S
C353 H341 0.950 . S
C353 C349 1.393 . S
C353 C352 1.391 . S
C354 H344 0.950 . S
C354 C355 1.386 . S
C354 C356 1.391 . S
C355 C354 1.386 . S
C355 C359 1.393 . S
C356 H345 0.950 . S
C356 C354 1.391 . S
C356 C357 1.400 . S
C357 C351 1.491 1_565 S
C357 C356 1.400 . S
C357 C358 1.398 . S
C358 H346 0.950 1_565 S
C358 C357 1.398 . S
C358 C359 1.391 . S
C359 H347 0.950 . S
C359 C355 1.393 . S
C359 C358 1.391 . S
H360 C368 0.950 . S
H361 C373 0.950 . S
H362 C370 0.950 . S
H363 C372 0.950 . S
H364 C374 0.950 . S
H365 C376 0.950 . S
H366 C378 0.950 . S
H367 C379 0.950 . S
C368 H360 0.950 . S
C368 C369 1.386 . S
C368 C370 1.391 . S
C369 C368 1.386 . S
C369 C373 1.393 . S
C370 H362 0.950 . S
C370 C368 1.391 . S
C370 C371 1.400 . S
C371 C370 1.400 . S
C371 C372 1.398 . S
C371 C377 1.491 . S
C372 H363 0.950 . S
C372 C371 1.398 . S
C372 C373 1.391 . S
C373 H361 0.950 . S
C373 C369 1.393 . S
C373 C372 1.391 . S
C374 H364 0.950 . S
C374 C375 1.386 1_455 S
C374 C376 1.391 1_455 S
C375 C374 1.386 1_655 S
C375 C379 1.393 . S
C376 H365 0.950 . S
C376 C374 1.391 1_655 S
C376 C377 1.400 . S
C377 C371 1.491 . S
C377 C376 1.400 . S
C377 C378 1.398 . S
C378 H366 0.950 . S
C378 C377 1.398 . S
C378 C379 1.391 . S
C379 H367 0.950 . S
C379 C375 1.393 . S
C379 C378 1.391 . S
H380 C388 0.950 . S
H381 C393 0.950 . S
H382 C390 0.950 . S
H383 C392 0.950 . S
H384 C394 0.950 . S
H385 C396 0.950 . S
H386 C398 0.950 . S
H387 C399 0.950 . S
C388 H380 0.950 . S
C388 C389 1.386 . S
C388 C390 1.391 . S
C389 C388 1.386 . S
C389 C393 1.393 . S
C390 H382 0.950 . S
C390 C388 1.391 . S
C390 C391 1.400 . S
C391 C390 1.400 . S
C391 C392 1.398 . S
C391 C397 1.491 . S
C392 H383 0.950 . S
C392 C391 1.398 . S
C392 C393 1.391 . S
C393 H381 0.950 . S
C393 C389 1.393 . S
C393 C392 1.391 . S
C394 H384 0.950 . S
C394 C395 1.386 . S
C394 C396 1.391 . S
C395 C394 1.386 . S
C395 C399 1.393 1_565 S
C396 H385 0.950 . S
C396 C394 1.391 . S
C396 C397 1.400 . S
C397 C391 1.491 . S
C397 C396 1.400 . S
C397 C398 1.398 . S
C398 H386 0.950 . S
C398 C397 1.398 . S
C398 C399 1.391 1_565 S
C399 H387 0.950 . S
C399 C395 1.393 1_545 S
C399 C398 1.391 1_545 S
H400 C408 0.950 . S
H401 C413 0.950 . S
H402 C410 0.950 . S
H403 C412 0.950 . S
H404 C414 0.950 . S
H405 C416 0.950 . S
H406 C418 0.950 . S
H407 C419 0.950 . S
C408 H400 0.950 . S
C408 C409 1.386 . S
C408 C410 1.391 . S
C409 C408 1.386 . S
C409 C413 1.393 . S
C410 H402 0.950 . S
C410 C408 1.391 . S
C410 C411 1.400 . S
C411 C410 1.400 . S
C411 C412 1.398 . S
C411 C417 1.491 . S
C412 H403 0.950 . S
C412 C411 1.398 . S
C412 C413 1.391 . S
C413 H401 0.950 . S
C413 C409 1.393 . S
C413 C412 1.391 . S
C414 H404 0.950 . S
C414 C415 1.386 . S
C414 C416 1.391 . S
C415 C414 1.386 . S
C415 C419 1.393 . S
C416 H405 0.950 . S
C416 C414 1.391 . S
C416 C417 1.400 . S
C417 C411 1.491 . S
C417 C416 1.400 . S
C417 C418 1.398 . S
C418 H406 0.950 . S
C418 C417 1.398 . S
C418 C419 1.391 . S
C419 H407 0.950 . S
C419 C415 1.393 . S
C419 C418 1.391 . S
H420 C428 0.950 . S
H421 C433 0.950 . S
H422 C430 0.950 . S
H423 C432 0.950 . S
H424 C434 0.950 . S
H425 C436 0.950 . S
H426 C438 0.949 . S
H427 C439 0.950 . S
C428 H420 0.950 . S
C428 C429 1.386 . S
C428 C430 1.391 . S
C429 C428 1.386 . S
C429 C433 1.393 . S
C430 H422 0.950 . S
C430 C428 1.391 . S
C430 C431 1.400 . S
C431 C430 1.400 . S
C431 C432 1.398 . S
C431 C437 1.491 . S
C432 H423 0.950 . S
C432 C431 1.398 . S
C432 C433 1.391 . S
C433 H421 0.950 . S
C433 C429 1.393 . S
C433 C432 1.391 . S
C434 H424 0.950 . S
C434 C435 1.386 . S
C434 C436 1.391 . S
C435 C434 1.386 . S
C435 C439 1.393 1_545 S
C436 H425 0.950 . S
C436 C434 1.391 . S
C436 C437 1.400 . S
C437 C431 1.491 . S
C437 C436 1.400 . S
C437 C438 1.398 . S
C438 H426 0.949 . S
C438 C437 1.398 . S
C438 C439 1.391 1_545 S
C439 H427 0.950 . S
C439 C435 1.393 1_565 S
C439 C438 1.391 1_565 S
H440 C448 0.950 . S
H441 C453 0.950 . S
H442 C450 0.950 . S
H443 C452 0.950 . S
H444 C454 0.950 . S
H445 C456 0.950 . S
H446 C458 0.950 . S
H447 C459 0.950 . S
C448 H440 0.950 . S
C448 C449 1.386 . S
C448 C450 1.391 . S
C449 C448 1.386 . S
C449 C453 1.393 . S
C450 H442 0.950 . S
C450 C448 1.391 . S
C450 C451 1.400 . S
C451 C450 1.400 . S
C451 C452 1.398 . S
C451 C457 1.491 . S
C452 H443 0.950 . S
C452 C451 1.398 . S
C452 C453 1.391 . S
C453 H441 0.950 . S
C453 C449 1.393 . S
C453 C452 1.391 . S
C454 H444 0.950 . S
C454 C455 1.386 . S
C454 C456 1.391 . S
C455 C454 1.386 . S
C455 C459 1.393 . S
C456 H445 0.950 . S
C456 C454 1.391 . S
C456 C457 1.400 . S
C457 C451 1.491 . S
C457 C456 1.400 . S
C457 C458 1.398 . S
C458 H446 0.950 . S
C458 C457 1.398 . S
C458 C459 1.391 . S
C459 H447 0.950 . S
C459 C455 1.393 . S
C459 C458 1.391 . S
H460 C468 0.950 . S
H461 C473 0.950 . S
H462 C470 0.950 . S
H463 C472 0.950 . S
H464 C474 0.950 . S
H465 C476 0.950 . S
H466 C478 0.950 . S
H467 C479 0.950 . S
C468 H460 0.950 . S
C468 C469 1.386 . S
C468 C470 1.391 . S
C469 C468 1.386 . S
C469 C473 1.393 1_455 S
C470 H462 0.950 . S
C470 C468 1.391 . S
C470 C471 1.400 . S
C471 C470 1.400 . S
C471 C472 1.398 . S
C471 C477 1.491 . S
C472 H463 0.950 . S
C472 C471 1.398 . S
C472 C473 1.391 1_455 S
C473 H461 0.950 . S
C473 C469 1.393 1_655 S
C473 C472 1.391 1_655 S
C474 H464 0.950 . S
C474 C475 1.386 . S
C474 C476 1.391 . S
C475 C474 1.386 . S
C475 C479 1.393 . S
C476 H465 0.950 . S
C476 C474 1.391 . S
C476 C477 1.400 . S
C477 C471 1.491 . S
C477 C476 1.400 . S
C477 C478 1.398 . S
C478 H466 0.950 . S
C478 C477 1.398 . S
C478 C479 1.391 . S
C479 H467 0.950 . S
C479 C475 1.393 . S
C479 C478 1.391 . S
H480 C488 0.950 . S
H481 C493 0.950 . S
H482 C490 0.950 . S
H483 C492 0.950 . S
H484 C494 0.950 . S
H485 C496 0.950 . S
H486 C498 0.950 . S
H487 C499 0.950 . S
C488 H480 0.950 . S
C488 C489 1.386 . S
C488 C490 1.391 . S
C489 C488 1.386 . S
C489 C493 1.393 . S
C490 H482 0.950 . S
C490 C488 1.391 . S
C490 C491 1.400 . S
C491 C490 1.400 . S
C491 C492 1.398 . S
C491 C497 1.491 . S
C492 H483 0.950 . S
C492 C491 1.398 . S
C492 C493 1.391 . S
C493 H481 0.950 . S
C493 C489 1.393 . S
C493 C492 1.391 . S
C494 H484 0.950 . S
C494 C495 1.386 . S
C494 C496 1.391 . S
C495 C494 1.386 . S
C495 C499 1.393 . S
C496 H485 0.950 . S
C496 C494 1.391 . S
C496 C497 1.400 . S
C497 C491 1.491 . S
C497 C496 1.400 . S
C497 C498 1.398 . S
C498 H486 0.950 . S
C498 C497 1.398 . S
C498 C499 1.391 . S
C499 H487 0.950 . S
C499 C495 1.393 . S
C499 C498 1.391 . S
H500 C508 0.950 . S
H501 C513 0.950 . S
H502 C510 0.950 . S
H503 C512 0.950 . S
H504 C514 0.950 . S
H505 C516 0.950 . S
H506 C518 0.950 . S
H507 C519 0.950 . S
C508 H500 0.950 . S
C508 C509 1.386 . S
C508 C510 1.391 . S
C509 C508 1.386 . S
C509 C513 1.393 . S
C510 H502 0.950 . S
C510 C508 1.391 . S
C510 C511 1.400 . S
C511 C510 1.400 . S
C511 C512 1.398 . S
C511 C517 1.491 . S
C512 H503 0.950 . S
C512 C511 1.398 . S
C512 C513 1.391 . S
C513 H501 0.950 . S
C513 C509 1.393 . S
C513 C512 1.391 . S
C514 H504 0.950 . S
C514 C515 1.386 . S
C514 C516 1.391 . S
C515 C514 1.386 . S
C515 C519 1.393 . S
C516 H505 0.950 . S
C516 C514 1.391 . S
C516 C517 1.400 . S
C517 C511 1.491 . S
C517 C516 1.400 . S
C517 C518 1.398 . S
C518 H506 0.950 . S
C518 C517 1.398 . S
C518 C519 1.391 . S
C519 H507 0.950 . S
C519 C515 1.393 . S
C519 C518 1.391 . S
H520 C528 0.950 . S
H521 C533 0.950 . S
H522 C530 0.950 . S
H523 C532 0.950 . S
H524 C534 0.950 . S
H525 C536 0.950 . S
H526 C538 0.950 . S
H527 C539 0.950 . S
C528 H520 0.950 . S
C528 C529 1.386 . S
C528 C530 1.391 . S
C529 C528 1.386 . S
C529 C533 1.393 . S
C530 H522 0.950 . S
C530 C528 1.391 . S
C530 C531 1.400 . S
C531 C530 1.400 . S
C531 C532 1.398 . S
C531 C537 1.491 . S
C532 H523 0.950 . S
C532 C531 1.398 . S
C532 C533 1.391 . S
C533 H521 0.950 . S
C533 C529 1.393 . S
C533 C532 1.391 . S
C534 H524 0.950 . S
C534 C535 1.386 . S
C534 C536 1.391 . S
C535 C534 1.386 . S
C535 C539 1.393 . S
C536 H525 0.950 . S
C536 C534 1.391 . S
C536 C537 1.400 . S
C537 C531 1.491 . S
C537 C536 1.400 . S
C537 C538 1.398 . S
C538 H526 0.950 . S
C538 C537 1.398 . S
C538 C539 1.391 . S
C539 H527 0.950 . S
C539 C535 1.393 . S
C539 C538 1.391 . S
H540 C548 0.950 . S
H541 C553 0.950 . S
H542 C550 0.950 . S
H543 C552 0.950 . S
H544 C554 0.950 . S
H545 C556 0.950 . S
H546 C558 0.950 . S
H547 C559 0.950 . S
C548 H540 0.950 . S
C548 C549 1.386 . S
C548 C550 1.391 . S
C549 C548 1.386 . S
C549 C553 1.393 . S
C550 H542 0.950 . S
C550 C548 1.391 . S
C550 C551 1.400 . S
C551 C550 1.400 . S
C551 C552 1.398 . S
C551 C557 1.491 . S
C552 H543 0.950 . S
C552 C551 1.398 . S
C552 C553 1.391 . S
C553 H541 0.950 . S
C553 C549 1.393 . S
C553 C552 1.391 . S
C554 H544 0.950 . S
C554 C555 1.386 . S
C554 C556 1.391 . S
C555 C554 1.386 . S
C555 C559 1.393 . S
C556 H545 0.950 . S
C556 C554 1.391 . S
C556 C557 1.400 . S
C557 C551 1.491 . S
C557 C556 1.400 . S
C557 C558 1.398 . S
C558 H546 0.950 . S
C558 C557 1.398 . S
C558 C559 1.391 . S
C559 H547 0.950 . S
C559 C555 1.393 . S
C559 C558 1.391 . S
H560 C568 0.950 . S
H561 C573 0.950 . S
H562 C570 0.950 . S
H563 C572 0.954 1_655 S
H564 C574 0.950 . S
H565 C576 0.950 . S
H566 C578 0.950 . S
H567 C579 0.950 . S
C568 H560 0.950 . S
C568 C569 1.386 1_455 S
C568 C570 1.391 . S
C569 C568 1.386 1_655 S
C569 C573 1.393 . S
C570 H562 0.950 . S
C570 C568 1.391 . S
C570 C571 1.400 . S
C571 C570 1.400 . S
C571 C572 1.398 . S
C571 C577 1.491 . S
C572 H563 0.954 1_455 S
C572 C571 1.398 . S
C572 C573 1.387 1_455 S
C573 H561 0.950 . S
C573 C569 1.393 . S
C573 C572 1.387 1_655 S
C574 H564 0.950 . S
C574 C575 1.386 . S
C574 C576 1.391 . S
C575 C574 1.386 . S
C575 C579 1.393 . S
C576 H565 0.950 . S
C576 C574 1.391 . S
C576 C577 1.400 . S
C577 C571 1.491 . S
C577 C576 1.400 . S
C577 C578 1.398 . S
C578 H566 0.950 . S
C578 C577 1.398 . S
C578 C579 1.391 . S
C579 H567 0.950 . S
C579 C575 1.393 . S
C579 C578 1.391 . S
H580 C588 0.950 . S
H581 C593 0.950 . S
H582 C590 0.950 . S
H583 C592 0.950 . S
H584 C594 0.950 . S
H585 C596 0.950 . S
H586 C598 0.950 1_565 S
H587 C599 0.950 1_565 S
C588 H580 0.950 . S
C588 C589 1.386 . S
C588 C590 1.391 . S
C589 C588 1.386 . S
C589 C593 1.393 1_565 S
C590 H582 0.950 . S
C590 C588 1.391 . S
C590 C591 1.400 1_565 S
C591 C590 1.400 1_545 S
C591 C592 1.398 . S
C591 C597 1.491 . S
C592 H583 0.950 . S
C592 C591 1.398 . S
C592 C593 1.391 . S
C593 H581 0.950 . S
C593 C589 1.393 1_545 S
C593 C592 1.391 . S
C594 H584 0.950 . S
C594 C595 1.386 . S
C594 C596 1.391 . S
C595 C594 1.386 . S
C595 C599 1.393 . S
C596 H585 0.950 . S
C596 C594 1.391 . S
C596 C597 1.400 . S
C597 C591 1.491 . S
C597 C596 1.400 . S
C597 C598 1.398 . S
C598 H586 0.950 1_545 S
C598 C597 1.398 . S
C598 C599 1.391 . S
C599 H587 0.950 1_545 S
C599 C595 1.393 . S
C599 C598 1.391 . S
C249 C129 0.628 . S
C255 C9 0.659 . S
C269 C169 0.592 . S
C275 C49 0.615 . S
C289 C209 0.587 . S
C295 C89 0.597 . S
C309 C15 0.777 . S
C315 C86 0.784 . S
C329 C55 0.722 . S
C335 C126 0.706 . S
C349 C95 0.710 . S
C355 C166 0.708 . S
C369 C135 0.760 . S
C375 C206 0.781 1_655 S
C389 C175 0.721 . S
C395 C6 0.707 1_565 S
C409 C215 0.734 . S
C415 C46 0.710 . S
C429 C18 1.221 . S
C435 C138 1.237 1_545 S
C449 C58 1.240 . S
C455 C178 1.224 . S
C469 C98 1.220 1_455 S
C475 C218 1.236 . S
C489 C10 4.071 . S
C495 C59 4.134 . S
C509 C50 4.070 . S
C515 C99 4.137 . S
C529 C90 4.077 . S
C535 C139 4.137 . S
C549 C130 4.072 . S
C555 C179 4.134 . S
C569 C170 4.074 . S
C575 C219 4.135 . S
C589 C210 4.074 . S
C595 C19 4.138 . S
