# Generated by pormake.
# Topology wgu, (5)-cn, num edge types: 1
# Building blocks:
#     Node 0, Type 0, BuildingBlock: BEQFEK_clean_sbu_0, # of connection points: 5
#     Node 1, Type 0, BuildingBlock: BEQFEK_clean_sbu_0, # of connection points: 5
#     Node 2, Type 0, BuildingBlock: BEQFEK_clean_sbu_0, # of connection points: 5
#     Node 3, Type 0, BuildingBlock: BEQFEK_clean_sbu_0, # of connection points: 5
#     Node 4, Type 0, BuildingBlock: BEQFEK_clean_sbu_0, # of connection points: 5
#     Node 5, Type 0, BuildingBlock: BEQFEK_clean_sbu_0, # of connection points: 5
#     Node 6, Type 0, BuildingBlock: BEQFEK_clean_sbu_0, # of connection points: 5
#     Node 7, Type 0, BuildingBlock: BEQFEK_clean_sbu_0, # of connection points: 5
#     Edge 8, Type (0, 0), BuildingBlock: MIFKUJ_clean_linker_0, # of connection points: 2
#     Edge 9, Type (0, 0), BuildingBlock: MIFKUJ_clean_linker_0, # of connection points: 2
#     Edge 10, Type (0, 0), BuildingBlock: MIFKUJ_clean_linker_0, # of connection points: 2
#     Edge 11, Type (0, 0), BuildingBlock: MIFKUJ_clean_linker_0, # of connection points: 2
#     Edge 12, Type (0, 0), BuildingBlock: MIFKUJ_clean_linker_0, # of connection points: 2
#     Edge 13, Type (0, 0), BuildingBlock: MIFKUJ_clean_linker_0, # of connection points: 2
#     Edge 14, Type (0, 0), BuildingBlock: MIFKUJ_clean_linker_0, # of connection points: 2
#     Edge 15, Type (0, 0), BuildingBlock: MIFKUJ_clean_linker_0, # of connection points: 2
#     Edge 16, Type (0, 0), BuildingBlock: MIFKUJ_clean_linker_0, # of connection points: 2
#     Edge 17, Type (0, 0), BuildingBlock: MIFKUJ_clean_linker_0, # of connection points: 2
#     Edge 18, Type (0, 0), BuildingBlock: MIFKUJ_clean_linker_0, # of connection points: 2
#     Edge 19, Type (0, 0), BuildingBlock: MIFKUJ_clean_linker_0, # of connection points: 2
#     Edge 20, Type (0, 0), BuildingBlock: MIFKUJ_clean_linker_0, # of connection points: 2
#     Edge 21, Type (0, 0), BuildingBlock: MIFKUJ_clean_linker_0, # of connection points: 2
#     Edge 22, Type (0, 0), BuildingBlock: MIFKUJ_clean_linker_0, # of connection points: 2
#     Edge 23, Type (0, 0), BuildingBlock: MIFKUJ_clean_linker_0, # of connection points: 2
#     Edge 24, Type (0, 0), BuildingBlock: MIFKUJ_clean_linker_0, # of connection points: 2
#     Edge 25, Type (0, 0), BuildingBlock: MIFKUJ_clean_linker_0, # of connection points: 2
#     Edge 26, Type (0, 0), BuildingBlock: MIFKUJ_clean_linker_0, # of connection points: 2
#     Edge 27, Type (0, 0), BuildingBlock: MIFKUJ_clean_linker_0, # of connection points: 2
# Relax obj value: 0.410
# Max RMSD: 0.220
# Mean RMSD: 0.220
data_MOF--net-wgu--node1-BEQFEK_clean_sbu_0--edge1-MIFKUJ_clean_linker_0
_symmetry_space_group_name_H-M    P1
_symmetry_Int_Tables_number       1
_symmetry_cell_setting            triclinic
loop_
_symmetry_equiv_pos_as_xyz
'x, y, z'
_cell_length_a     41.134692
_cell_length_b     41.077325
_cell_length_c     37.088313
_cell_angle_alpha  89.86964
_cell_angle_beta   90.102772
_cell_angle_gamma 89.987286
loop_
_atom_site_label
_atom_site_type_symbol
_atom_site_fract_x
_atom_site_fract_y
_atom_site_fract_z
_atom_type_partial_charge
Co0 Co 0.30244 0.37173 0.02285 0.0
Co1 Co 0.35176 0.31418 0.02265 0.0
C2 C 0.30337 0.32466 0.96195 0.0
O3 O 0.2903 0.34908 0.97728 0.0
O4 O 0.32736 0.30999 0.97642 0.0
C5 C 0.2412 0.40692 0.02327 0.0
O6 O 0.22843 0.38035 1.00961 0.0
C7 C 0.36551 0.24514 1.02096 0.0
C8 C 0.41567 0.24144 0.04192 0.0
C9 C 0.38951 0.22299 0.03023 0.0
N10 N 0.37669 0.27527 0.02731 0.0
N11 N 0.40689 0.27301 0.03933 0.0
C12 C 0.33241 0.23817 1.00585 0.0
H13 H 0.3142 0.25475 1.01802 0.0
H14 H 0.32503 0.2125 1.00993 0.0
H15 H 0.33277 0.24303 0.97642 0.0
C16 C 0.28526 0.34252 0.094 0.0
N17 N 0.30226 0.34275 0.06293 0.0
N18 N 0.32276 0.31815 0.06293 0.0
C19 C 0.31918 0.30124 0.09401 0.0
C20 C 0.29521 0.3161 0.1148 0.0
C21 C 0.2618 0.36865 0.10465 0.0
H22 H 0.27196 0.39285 0.09769 0.0
H23 H 0.23879 0.36536 0.08945 0.0
H24 H 0.25654 0.36805 0.13396 0.0
O25 O 0.34582 0.39277 1.01852 0.0
O26 O 0.38173 0.35248 1.02054 0.0
H27 H 0.36388 0.2751 0.10064 0.0
H28 H 0.33158 0.26094 0.12982 0.0
C29 C 0.33737 0.27061 0.10272 0.0
H30 H 0.33066 0.25166 0.08294 0.0
H31 H 0.42113 0.29292 0.04677 0.0
O32 O 0.27136 0.40765 0.03067 0.0
C33 C 0.37516 0.3828 1.01855 0.0
Co34 Co 0.63264 0.30262 0.52888 0.0
Co35 Co 0.69028 0.35169 0.52869 0.0
C36 C 0.68035 0.30405 0.46798 0.0
O37 O 0.65582 0.29128 0.48341 0.0
O38 O 0.69524 0.32794 0.48224 0.0
C39 C 0.60046 0.23982 0.53247 0.0
O40 O 0.62956 0.22718 0.52843 0.0
C41 C 0.75849 0.36986 0.52512 0.0
C42 C 0.75962 0.41761 0.55239 0.0
C43 C 0.77928 0.39449 0.53616 0.0
N44 N 0.72801 0.3781 0.53421 0.0
N45 N 0.72872 0.40691 0.54998 0.0
C46 C 0.7677 0.33707 0.51069 0.0
H47 H 0.74861 0.31887 0.51694 0.0
H48 H 0.79113 0.32873 0.5224 0.0
H49 H 0.77043 0.33871 0.48099 0.0
C50 C 0.66154 0.28559 0.60068 0.0
N51 N 0.66142 0.30227 0.56928 0.0
N52 N 0.68655 0.32212 0.56865 0.0
C53 C 0.70392 0.31806 0.59932 0.0
C54 C 0.6886 0.2948 0.62078 0.0
C55 C 0.63472 0.26344 0.61258 0.0
H56 H 0.61107 0.2723 0.6021 0.0
H57 H 0.63921 0.23868 0.60183 0.0
H58 H 0.63347 0.26196 0.64242 0.0
O59 O 0.61103 0.34578 0.52478 0.0
O60 O 0.65166 0.38122 0.52652 0.0
H61 H 0.73104 0.36159 0.60939 0.0
H62 H 0.7473 0.32593 0.63189 0.0
C63 C 0.7354 0.33504 0.60704 0.0
H64 H 0.75239 0.33091 0.58446 0.0
H65 H 0.70827 0.4187 0.56026 0.0
O66 O 0.59719 0.27054 0.53424 0.0
C67 C 0.62132 0.37504 0.52472 0.0
Co68 Co 0.70412 0.63489 0.02215 0.0
Co69 Co 0.65485 0.69261 1.02209 0.0
C70 C 0.70199 0.68244 0.96089 0.0
O71 O 0.7149 0.65789 0.97629 0.0
O72 O 0.67832 0.69741 0.97543 0.0
C73 C 0.76678 0.60225 0.02692 0.0
O74 O 0.77987 0.63134 0.02451 0.0
C75 C 0.63674 0.76105 1.01716 0.0
C76 C 0.59027 0.76322 0.0468 0.0
C77 C 0.61273 0.78226 0.02861 0.0
N78 N 0.62881 0.73079 0.02777 0.0
N79 N 0.60077 0.73216 0.04506 0.0
C80 C 0.66882 0.76996 1.00082 0.0
H81 H 0.68753 0.75153 1.00773 0.0
H82 H 0.67702 0.79418 1.01042 0.0
H83 H 0.66614 0.7711 0.9711 0.0
C84 C 0.72115 0.66372 0.09393 0.0
N85 N 0.70466 0.66369 0.06241 0.0
N86 N 0.68466 0.68872 0.06177 0.0
C87 C 0.68845 0.70593 0.0925 0.0
C88 C 0.71163 0.69062 0.11404 0.0
C89 C 0.74312 0.6368 0.10617 0.0
H90 H 0.73458 0.61318 0.09533 0.0
H91 H 0.76806 0.64151 0.09613 0.0
H92 H 0.74401 0.63531 0.13604 0.0
O93 O 0.66103 0.6134 1.01886 0.0
O94 O 0.62528 0.65383 1.02025 0.0
H95 H 0.64476 0.73216 0.10398 0.0
H96 H 0.68069 0.74938 0.12474 0.0
C97 C 0.67105 0.73713 0.10039 0.0
H98 H 0.674 0.75401 0.07736 0.0
H99 H 0.58933 0.712 0.05676 0.0
O100 O 0.73604 0.59925 0.02732 0.0
C101 C 0.63173 0.62347 1.01883 0.0
Co102 Co 0.37074 0.70719 0.52431 0.0
Co103 Co 0.31472 0.65612 0.52574 0.0
C104 C 0.32339 0.70386 0.4637 0.0
O105 O 0.34776 0.71747 0.4785 0.0
O106 O 0.30921 0.67993 0.47887 0.0
C107 C 0.41927 0.75316 0.50456 0.0
O108 O 0.41004 0.74502 0.47187 0.0
C109 C 0.24595 0.64402 0.532 0.0
C110 C 0.24203 0.59063 0.53781 0.0
C111 C 0.22382 0.61899 0.53651 0.0
N112 N 0.27596 0.63128 0.53128 0.0
N113 N 0.27356 0.59931 0.53464 0.0
C114 C 0.23864 0.67939 0.52605 0.0
H115 H 0.2609 0.69308 0.51885 0.0
H116 H 0.22842 0.69025 0.55087 0.0
H117 H 0.22018 0.68206 0.50438 0.0
C118 C 0.34035 0.72641 0.59392 0.0
N119 N 0.34154 0.70798 0.5639 0.0
N120 N 0.31898 0.68534 0.56568 0.0
C121 C 0.3034 0.68802 0.59758 0.0
C122 C 0.31607 0.71442 0.61639 0.0
C123 C 0.36172 0.7553 0.60039 0.0
H124 H 0.36487 0.76917 0.57494 0.0
H125 H 0.35138 0.77159 0.62125 0.0
H126 H 0.38602 0.74677 0.60937 0.0
O127 O 0.39279 0.66378 0.52172 0.0
O128 O 0.35327 0.62695 0.52347 0.0
H129 H 0.2813 0.66207 0.64183 0.0
H130 H 0.25468 0.67096 0.60478 0.0
C131 C 0.27976 0.66352 0.61199 0.0
H132 H 0.28472 0.63913 0.60057 0.0
H133 H 0.29338 0.58344 0.53472 0.0
O134 O 0.40544 0.73998 0.5315 0.0
C135 C 0.38341 0.63416 0.52192 0.0
Co136 Co 0.80013 0.1341 0.06758 0.0
Co137 Co 0.8488 0.19221 0.06712 0.0
C138 C 0.80089 0.18208 0.12793 0.0
O139 O 0.78845 0.15714 0.11297 0.0
O140 O 0.82443 0.19719 0.11324 0.0
C141 C 0.73826 0.0998 0.0629 0.0
O142 O 0.7243 0.12835 0.06669 0.0
C143 C 0.86244 0.26136 0.06673 0.0
C144 C 0.91294 0.2645 0.0469 0.0
C145 C 0.88659 0.28326 0.0573 0.0
N146 N 0.87371 0.23107 0.06165 0.0
N147 N 0.9041 0.23301 0.05028 0.0
C148 C 0.8292 0.26868 0.0811 0.0
H149 H 0.81137 0.25071 0.07071 0.0
H150 H 0.82112 0.2937 0.07447 0.0
H151 H 0.82983 0.26638 0.11088 0.0
C152 C 0.78296 0.16233 0.99533 0.0
N153 N 0.79951 0.16261 0.02682 0.0
N154 N 0.81977 0.18744 0.02679 0.0
C155 C 0.81642 0.20394 0.99541 0.0
C156 C 0.7929 0.18862 0.97442 0.0
C157 C 0.76025 0.13577 0.98401 0.0
H158 H 0.76913 0.11195 0.99406 0.0
H159 H 0.73586 0.14048 0.99558 0.0
H160 H 0.75793 0.13468 0.95422 0.0
O161 O 0.84365 0.11334 0.07164 0.0
O162 O 0.87906 0.15405 0.0698 0.0
H163 H 0.86107 0.23028 0.98943 0.0
H164 H 0.82942 0.24339 0.95877 0.0
C165 C 0.83459 0.23448 0.98636 0.0
H166 H 0.82718 0.25389 1.00524 0.0
H167 H 0.91848 0.2129 0.04389 0.0
O168 O 0.76908 0.09777 0.06199 0.0
C169 C 0.87287 0.12365 0.07166 0.0
Co170 Co 0.87012 0.80247 0.55962 0.0
Co171 Co 0.81374 0.85288 0.56003 0.0
C172 C 0.82274 0.80511 0.62085 0.0
O173 O 0.847 0.79197 0.60535 0.0
O174 O 0.80818 0.82925 0.60656 0.0
C175 C 0.90221 0.73896 0.55448 0.0
O176 O 0.87333 0.72537 0.55516 0.0
C177 C 0.74599 0.87261 0.56346 0.0
C178 C 0.74594 0.92039 0.53597 0.0
C179 C 0.72576 0.89768 0.55223 0.0
N180 N 0.77666 0.88021 0.55445 0.0
N181 N 0.77661 0.90905 0.53858 0.0
C182 C 0.73604 0.84 0.57792 0.0
H183 H 0.75474 0.82139 0.57175 0.0
H184 H 0.71246 0.83221 0.56618 0.0
H185 H 0.73327 0.84164 0.60761 0.0
C186 C 0.84056 0.78609 0.48804 0.0
N187 N 0.8412 0.80265 0.51942 0.0
N188 N 0.81659 0.82317 0.52011 0.0
C189 C 0.79902 0.81961 0.48952 0.0
C190 C 0.81365 0.79599 0.46809 0.0
C191 C 0.86696 0.76366 0.47569 0.0
H192 H 0.89072 0.77146 0.48684 0.0
H193 H 0.86161 0.73862 0.48521 0.0
H194 H 0.8685 0.76325 0.44582 0.0
O195 O 0.89284 0.84503 0.56249 0.0
O196 O 0.8531 0.88151 0.56211 0.0
H197 H 0.77315 0.86401 0.47979 0.0
H198 H 0.7562 0.82918 0.45657 0.0
C199 C 0.76808 0.83755 0.48171 0.0
H200 H 0.75077 0.83352 0.50403 0.0
H201 H 0.79732 0.92039 0.52829 0.0
O202 O 0.90494 0.76977 0.55497 0.0
C203 C 0.8833 0.87452 0.56291 0.0
Co204 Co 0.20395 0.87317 0.06224 0.0
Co205 Co 0.15438 0.816 0.06053 0.0
C206 C 0.20242 0.82391 0.12165 0.0
O207 O 0.21522 0.8489 0.10712 0.0
O208 O 0.17858 0.80948 0.10668 0.0
C209 C 0.2666 0.90547 0.05905 0.0
O210 O 0.27934 0.87624 0.06185 0.0
C211 C 0.13989 0.74723 0.05835 0.0
C212 C 0.08902 0.74508 0.0393 0.0
C213 C 0.11533 0.72589 0.04894 0.0
N214 N 0.12889 0.77774 0.05418 0.0
N215 N 0.0983 0.7764 0.04322 0.0
C216 C 0.17342 0.73898 0.07135 0.0
H217 H 0.19095 0.75793 0.06259 0.0
H218 H 0.18141 0.71477 0.06165 0.0
H219 H 0.17333 0.73841 0.10126 0.0
C220 C 0.22096 0.84598 0.98964 0.0
N221 N 0.20421 0.84552 1.02094 0.0
N222 N 0.18334 0.82121 1.02026 0.0
C223 C 0.18634 0.80535 0.98851 0.0
C224 C 0.21039 0.82044 0.96811 0.0
C225 C 0.24467 0.87192 0.97912 0.0
H226 H 0.23655 0.89585 0.98949 0.0
H227 H 0.26878 0.86612 0.9909 0.0
H228 H 0.24728 0.87344 0.94938 0.0
O229 O 0.16072 0.89469 0.06658 0.0
O230 O 0.12477 0.85448 0.06425 0.0
H231 H 0.14097 0.78024 0.98255 0.0
H232 H 0.1714 0.76813 0.95015 0.0
C233 C 0.16726 0.77567 0.9784 0.0
H234 H 0.17479 0.75518 0.99593 0.0
H235 H 0.08406 0.79681 0.03753 0.0
O236 O 0.2359 0.90882 0.05793 0.0
C237 C 0.13137 0.88475 0.06661 0.0
Co238 Co 0.13499 0.20414 0.56101 0.0
Co239 Co 0.19283 0.1548 0.55981 0.0
C240 C 0.18346 0.20202 0.62135 0.0
O241 O 0.15863 0.21471 0.6064 0.0
O242 O 0.1985 0.17852 0.60646 0.0
C243 C 0.08719 0.25104 0.58128 0.0
O244 O 0.09732 0.24381 0.61394 0.0
C245 C 0.26161 0.13976 0.55886 0.0
C246 C 0.26381 0.09056 0.53507 0.0
C247 C 0.28303 0.11596 0.54727 0.0
N248 N 0.23114 0.12928 0.55318 0.0
N249 N 0.23252 0.09962 0.53946 0.0
C250 C 0.26957 0.17203 0.57547 0.0
H251 H 0.26546 0.17029 0.60492 0.0
H252 H 0.25303 0.19109 0.56474 0.0
H253 H 0.29521 0.17921 0.57121 0.0
C254 C 0.16282 0.22206 0.48968 0.0
N255 N 0.16337 0.20478 0.52064 0.0
N256 N 0.1881 0.18447 0.52007 0.0
C257 C 0.20432 0.18844 0.48869 0.0
C258 C 0.18882 0.21239 0.46825 0.0
C259 C 0.1363 0.24545 0.47993 0.0
H260 H 0.13856 0.26756 0.49689 0.0
H261 H 0.13714 0.25249 0.45106 0.0
H262 H 0.11235 0.2342 0.48568 0.0
O263 O 0.11353 0.16089 0.56488 0.0
O264 O 0.15409 0.12525 0.56217 0.0
H265 H 0.23048 0.144 0.48024 0.0
H266 H 0.24445 0.17739 0.45239 0.0
C267 C 0.2349 0.17061 0.47924 0.0
H268 H 0.2539 0.1767 0.49922 0.0
H269 H 0.21218 0.08603 0.53199 0.0
O270 O 0.10016 0.237 0.55441 0.0
C271 C 0.12377 0.13159 0.56446 0.0
H272 H 0.25086 0.96665 0.07977 0.0
H273 H 0.2843 0.01562 0.07584 0.0
H274 H 0.36243 0.95968 0.02952 0.0
H275 H 0.32918 0.91 0.03429 0.0
H276 H 0.35039 0.02637 0.10601 0.0
H277 H 0.38921 0.01666 0.95941 0.0
H278 H 0.37252 0.98972 0.90287 0.0
H279 H 0.27275 0.99246 0.93665 0.0
H280 H 0.28882 0.01983 0.99304 0.0
H281 H 0.42738 0.17526 1.00094 0.0
H282 H 0.4197 0.11593 1.00684 0.0
H283 H 0.33636 0.13257 0.07491 0.0
H284 H 0.34423 0.19123 0.0694 0.0
H285 H 0.3667 0.07892 0.98676 0.0
H286 H 0.33202 0.07735 0.13957 0.0
H287 H 0.34885 0.10482 0.19562 0.0
H288 H 0.44243 0.12521 0.14972 0.0
H289 H 0.42638 0.09745 0.0936 0.0
C290 C 0.27522 0.96469 0.06893 0.0
C291 C 0.28747 0.93459 0.05728 0.0
C292 C 0.29432 0.99262 0.0669 0.0
C293 C 0.32573 0.99114 0.05244 0.0
C294 C 0.33821 0.96115 0.04082 0.0
C295 C 0.31927 0.93292 0.04359 0.0
C296 C 0.34452 0.02156 0.04863 0.0
C297 C 0.35418 0.03788 0.08 0.0
C298 C 0.35035 0.03587 1.01457 0.0
C299 C 0.34031 0.01978 0.98063 0.0
C300 C 0.36372 0.01151 0.95471 0.0
C301 C 0.35436 0.9962 0.92269 0.0
C302 C 0.32161 0.98923 0.91625 0.0
C303 C 0.29813 0.9977 0.94174 0.0
C304 C 0.30736 0.01306 0.97376 0.0
C305 C 0.40761 0.166 1.01726 0.0
C306 C 0.386 0.18751 0.03421 0.0
C307 C 0.40321 0.13229 1.02056 0.0
C308 C 0.37762 0.11989 0.04153 0.0
C309 C 0.35651 0.14157 0.05897 0.0
C310 C 0.36079 0.17503 0.05552 0.0
C311 C 0.37149 0.08444 0.04432 0.0
C312 C 0.36407 0.06711 1.01279 0.0
C313 C 0.36792 0.06908 0.07829 0.0
C314 C 0.3779 0.08541 0.11226 0.0
C315 C 0.35627 0.08748 0.1415 0.0
C316 C 0.36566 0.10316 0.17328 0.0
C317 C 0.39666 0.1168 0.17621 0.0
C318 C 0.41838 0.11471 0.14739 0.0
C319 C 0.40913 0.09905 0.11556 0.0
H320 H 0.40387 0.12895 0.20082 0.0
H321 H 0.31442 0.97736 0.89147 0.0
H322 H 0.05663 0.2671 0.5181 0.0
H323 H 0.00866 0.30148 0.51039 0.0
H324 H 0.00794 0.32129 0.62459 0.0
H325 H 0.05553 0.28642 0.63266 0.0
H326 H 0.94962 0.30351 0.60236 0.0
H327 H 0.02919 0.38048 0.56257 0.0
H328 H 0.07573 0.40039 0.52699 0.0
H329 H 0.02222 0.38479 0.42904 0.0
H330 H 0.97548 0.3644 0.46401 0.0
H331 H 0.81832 0.41049 0.59251 0.0
H332 H 0.87608 0.39734 0.59932 0.0
H333 H 0.87848 0.36195 0.48994 0.0
H334 H 0.82083 0.37557 0.48284 0.0
H335 H 0.93749 0.39234 0.51236 0.0
H336 H 0.86076 0.31056 0.5517 0.0
H337 H 0.8132 0.29211 0.58656 0.0
H338 H 0.86196 0.31668 0.68529 0.0
H339 H 0.90956 0.33602 0.6509 0.0
C340 C 0.04647 0.27902 0.54154 0.0
C341 C 0.05977 0.27386 0.57604 0.0
C342 C 0.01915 0.29885 0.53705 0.0
C343 C 0.00486 0.31419 0.56688 0.0
C344 C 0.01858 0.30969 0.6012 0.0
C345 C 0.04579 0.28976 0.60575 0.0
C346 C 0.97426 0.33294 0.56268 0.0
C347 C 0.94724 0.32337 0.5832 0.0
C348 C 0.97087 0.35835 0.53705 0.0
C349 C 0.99892 0.37066 0.51592 0.0
C350 C 0.02743 0.38106 0.53343 0.0
C351 C 0.05383 0.39249 0.51337 0.0
C352 C 0.05196 0.39379 0.47578 0.0
C353 C 0.02365 0.38375 0.45816 0.0
C354 C 0.99717 0.3723 0.47809 0.0
C355 C 0.83144 0.40084 0.5696 0.0
C356 C 0.81509 0.3932 0.53746 0.0
C357 C 0.86436 0.3933 0.57353 0.0
C358 C 0.88128 0.37816 0.54533 0.0
C359 C 0.86575 0.37348 0.51205 0.0
C360 C 0.83281 0.38092 0.50816 0.0
C361 C 0.91326 0.36289 0.55211 0.0
C362 C 0.94027 0.37284 0.5319 0.0
C363 C 0.91673 0.33773 0.57795 0.0
C364 C 0.88858 0.32508 0.59872 0.0
C365 C 0.86127 0.31222 0.58083 0.0
C366 C 0.83429 0.30161 0.6005 0.0
C367 C 0.83452 0.30329 0.63812 0.0
C368 C 0.86179 0.31546 0.65614 0.0
C369 C 0.88877 0.32627 0.63658 0.0
H370 H 0.8136 0.2951 0.6533 0.0
H371 H 0.07243 0.40263 0.4603 0.0
H372 H 0.75645 0.03799 0.07868 0.0
H373 H 0.72605 0.98803 0.06822 0.0
H374 H 0.64593 0.04385 0.02515 0.0
H375 H 0.67597 0.09439 0.03715 0.0
H376 H 0.62315 0.99472 0.06284 0.0
H377 H 0.70016 0.00507 0.96856 0.0
H378 H 0.75393 0.01477 0.94129 0.0
H379 H 0.79207 0.9306 0.99566 0.0
H380 H 0.73865 0.92065 0.02369 0.0
H381 H 0.62405 0.82011 0.96973 0.0
H382 H 0.6343 0.8788 0.96875 0.0
H383 H 0.61565 0.8832 0.0832 0.0
H384 H 0.60423 0.82476 0.08377 0.0
H385 H 0.68158 0.90692 0.99806 0.0
H386 H 0.5964 0.95828 0.11083 0.0
H387 H 0.54001 0.95104 0.13184 0.0
H388 H 0.51225 0.91518 0.02759 0.0
H389 H 0.56833 0.92263 1.00577 0.0
C390 C 0.73229 0.03967 0.06715 0.0
C391 C 0.71868 0.07001 0.05835 0.0
C392 C 0.71496 0.01108 0.06105 0.0
C393 C 0.68405 0.0121 0.04499 0.0
C394 C 0.66985 0.04247 0.03733 0.0
C395 C 0.68701 0.07127 0.04413 0.0
C396 C 0.6673 0.98126 0.03553 0.0
C397 C 0.63577 0.97553 0.0485 0.0
C398 C 0.6833 0.95666 1.01561 0.0
C399 C 0.7154 0.96221 0.99836 0.0
C400 C 0.72004 0.98871 0.97483 0.0
C401 C 0.75047 0.99425 0.95924 0.0
C402 C 0.77641 0.97334 0.96677 0.0
C403 C 0.77195 0.94678 0.98984 0.0
C404 C 0.74159 0.94114 1.00554 0.0
C405 C 0.62147 0.83386 0.99445 0.0
C406 C 0.61366 0.81809 0.02688 0.0
C407 C 0.62734 0.86733 0.99391 0.0
C408 C 0.62579 0.88556 0.02589 0.0
C409 C 0.61641 0.86994 0.05802 0.0
C410 C 0.61002 0.83652 0.05841 0.0
C411 C 0.63774 0.91971 0.02654 0.0
C412 C 0.66855 0.92613 1.01191 0.0
C413 C 0.62057 0.94515 0.04385 0.0
C414 C 0.58669 0.9408 0.05675 0.0
C415 C 0.57824 0.949 0.09232 0.0
C416 C 0.54633 0.94482 0.10439 0.0
C417 C 0.52259 0.93258 0.08109 0.0
C418 C 0.53069 0.92455 0.04565 0.0
C419 C 0.56256 0.9287 0.03343 0.0
H420 H 0.4979 0.92936 0.09049 0.0
H421 H 0.79995 0.97769 0.9547 0.0
H422 H 0.95991 0.75319 0.58517 0.0
H423 H 0.01094 0.72368 0.57947 0.0
H424 H 0.96342 0.65103 0.51407 0.0
H425 H 0.91141 0.68004 0.52126 0.0
H426 H 0.00889 0.62336 0.55718 0.0
H427 H 0.00712 0.71118 0.4737 0.0
H428 H 0.99818 0.76762 0.45318 0.0
H429 H 0.07202 0.80135 0.52602 0.0
H430 H 0.0811 0.74518 0.54739 0.0
H431 H 0.17688 0.58563 0.49969 0.0
H432 H 0.11799 0.59686 0.49991 0.0
H433 H 0.13266 0.67039 0.5812 0.0
H434 H 0.19083 0.65872 0.58167 0.0
H435 H 0.10118 0.69214 0.51689 0.0
H436 H 0.09738 0.60275 0.60388 0.0
H437 H 0.10555 0.54562 0.62235 0.0
H438 H 0.04225 0.51375 0.53727 0.0
H439 H 0.03406 0.57073 0.51799 0.0
C440 C 0.96025 0.73077 0.56984 0.0
C441 C 0.93194 0.71908 0.5532 0.0
C442 C 0.98942 0.71396 0.56651 0.0
C443 C 0.99119 0.68569 0.54543 0.0
C444 C 0.96261 0.67298 0.53017 0.0
C445 C 0.93302 0.68953 0.53422 0.0
C446 C 0.0234 0.67086 0.5383 0.0
C447 C 0.02897 0.63818 0.54769 0.0
C448 C 0.04955 0.69012 0.52558 0.0
C449 C 0.0447 0.72393 0.51223 0.0
C450 C 0.02138 0.73064 0.48544 0.0
C451 C 0.01628 0.76259 0.47366 0.0
C452 C 0.0345 0.78805 0.48831 0.0
C453 C 0.05794 0.7816 0.51468 0.0
C454 C 0.06312 0.74969 0.52659 0.0
C455 C 0.16727 0.60374 0.51798 0.0
C456 C 0.18828 0.6221 0.53983 0.0
C457 C 0.13379 0.61013 0.51807 0.0
C458 C 0.12119 0.63474 0.54024 0.0
C459 C 0.14205 0.65163 0.56355 0.0
C460 C 0.17526 0.6452 0.56353 0.0
C461 C 0.08693 0.64525 0.53748 0.0
C462 C 0.08098 0.67716 0.52578 0.0
C463 C 0.06057 0.6251 0.54747 0.0
C464 C 0.06544 0.59095 0.55921 0.0
C465 C 0.08546 0.58354 0.58889 0.0
C466 C 0.09003 0.55119 0.59956 0.0
C467 C 0.07452 0.52606 0.58092 0.0
C468 C 0.05431 0.53324 0.55164 0.0
C469 C 0.04968 0.56555 0.54085 0.0
H470 H 0.07809 0.50103 0.58922 0.0
H471 H 0.03048 0.81278 0.47919 0.0
H472 H 0.74988 0.5411 1.00709 0.0
H473 H 0.78274 0.49174 1.01069 0.0
H474 H 0.86249 0.54689 0.055 0.0
H475 H 0.82977 0.59697 0.05066 0.0
H476 H 0.84711 0.47941 0.97915 0.0
H477 H 0.89162 0.49033 0.12378 0.0
H478 H 0.87766 0.51852 0.18042 0.0
H479 H 0.77666 0.51747 0.15095 0.0
H480 H 0.79 0.48887 0.09448 0.0
H481 H 0.92509 0.33109 0.08544 0.0
H482 H 0.91793 0.39037 0.07846 0.0
H483 H 0.83383 0.37351 1.01126 0.0
H484 H 0.84145 0.3149 1.01746 0.0
H485 H 0.86704 0.42829 0.09854 0.0
H486 H 0.82685 0.42832 0.94718 0.0
H487 H 0.84126 0.39987 0.89097 0.0
H488 H 0.93612 0.37867 0.93342 0.0
H489 H 0.92249 0.4074 0.98969 0.0
C490 C 0.77446 0.54282 1.01746 0.0
C491 C 0.78729 0.57283 0.02868 0.0
C492 C 0.79324 0.51465 1.01928 0.0
C493 C 0.82495 0.51579 0.03304 0.0
C494 C 0.83803 0.54567 0.04423 0.0
C495 C 0.81938 0.57414 0.04172 0.0
C496 C 0.84343 0.48511 0.03663 0.0
C497 C 0.85167 0.46819 1.00518 0.0
C498 C 0.85033 0.47119 0.07066 0.0
C499 C 0.8419 0.48795 0.10471 0.0
C500 C 0.86645 0.4961 0.12946 0.0
C501 C 0.85864 0.51212 0.16153 0.0
C502 C 0.82631 0.51992 0.1692 0.0
C503 C 0.80171 0.51157 0.1449 0.0
C504 C 0.80939 0.4955 0.11284 0.0
C505 C 0.90529 0.34028 0.06903 0.0
C506 C 0.88336 0.31871 0.0526 0.0
C507 C 0.90118 0.37398 0.06512 0.0
C508 C 0.87551 0.38634 0.04412 0.0
C509 C 0.85408 0.36459 0.02718 0.0
C510 C 0.85816 0.33113 0.03111 0.0
C511 C 0.86959 0.42184 0.04092 0.0
C512 C 0.86361 0.43975 0.07243 0.0
C513 C 0.86501 0.43681 1.00686 0.0
C514 C 0.87356 0.41993 0.97277 0.0
C515 C 0.85087 0.41781 0.94445 0.0
C516 C 0.85889 0.40157 0.91259 0.0
C517 C 0.88957 0.38743 0.90865 0.0
C518 C 0.91233 0.38956 0.93654 0.0
C519 C 0.90446 0.40578 0.96845 0.0
H520 H 0.89571 0.37485 0.88398 0.0
H521 H 0.82032 0.53235 0.19401 0.0
H522 H 0.44821 0.7708 0.56806 0.0
H523 H 0.49603 0.80531 0.57601 0.0
H524 H 0.49977 0.82204 0.46119 0.0
H525 H 0.4524 0.787 0.45292 0.0
H526 H 0.55752 0.80514 0.48596 0.0
H527 H 0.47637 0.88253 0.52046 0.0
H528 H 0.42876 0.90269 0.55397 0.0
H529 H 0.48016 0.89023 0.65392 0.0
H530 H 0.52795 0.86956 0.62104 0.0
H531 H 0.68759 0.91313 0.49493 0.0
H532 H 0.62992 0.89995 0.48747 0.0
H533 H 0.62587 0.8667 0.59778 0.0
H534 H 0.68347 0.88026 0.60548 0.0
H535 H 0.56684 0.89653 0.57274 0.0
H536 H 0.64489 0.81398 0.53904 0.0
H537 H 0.69344 0.79484 0.50646 0.0
H538 H 0.64734 0.81681 0.40533 0.0
H539 H 0.59874 0.83679 0.43739 0.0
C540 C 0.45903 0.78206 0.54452 0.0
C541 C 0.44663 0.77601 0.50982 0.0
C542 C 0.48625 0.80196 0.54914 0.0
C543 C 0.50132 0.8165 0.51922 0.0
C544 C 0.48852 0.81107 0.48465 0.0
C545 C 0.46142 0.79105 0.47999 0.0
C546 C 0.53171 0.83549 0.5237 0.0
C547 C 0.55929 0.82554 0.50439 0.0
C548 C 0.5343 0.86162 0.54842 0.0
C549 C 0.50567 0.87425 0.56828 0.0
C550 C 0.47745 0.88386 0.5496 0.0
C551 C 0.45044 0.89543 0.56849 0.0
C552 C 0.45141 0.89767 0.60606 0.0
C553 C 0.47943 0.88845 0.62482 0.0
C554 C 0.50651 0.87686 0.60607 0.0
C555 C 0.6741 0.90403 0.5179 0.0
C556 C 0.68997 0.89692 0.55051 0.0
C557 C 0.64124 0.89647 0.5136 0.0
C558 C 0.62391 0.88186 0.54191 0.0
C559 C 0.63892 0.87784 0.5756 0.0
C560 C 0.67182 0.88528 0.57986 0.0
C561 C 0.59221 0.86617 0.53488 0.0
C562 C 0.56467 0.87649 0.55389 0.0
C563 C 0.58956 0.84026 0.50998 0.0
C564 C 0.61832 0.82722 0.49062 0.0
C565 C 0.64518 0.81492 0.50986 0.0
C566 C 0.67271 0.80393 0.4915 0.0
C567 C 0.67352 0.80469 0.45385 0.0
C568 C 0.64671 0.81631 0.43449 0.0
C569 C 0.61916 0.82748 0.45275 0.0
H570 H 0.69488 0.79622 0.43967 0.0
H571 H 0.43046 0.90661 0.62063 0.0
H572 H 0.17623 0.41558 1.00886 0.0
H573 H 0.14453 0.46572 1.01584 0.0
H574 H 0.22942 0.51468 0.05746 0.0
H575 H 0.26089 0.46488 0.05132 0.0
H576 H 0.1777 0.53242 0.0944 0.0
H577 H 0.20663 0.52126 0.96846 0.0
H578 H 0.20785 0.49361 0.9095 0.0
H579 H 0.10351 0.49432 0.90561 0.0
H580 H 0.1017 0.52164 0.9648 0.0
H581 H 0.15389 0.6948 1.00147 0.0
H582 H 0.16448 0.63631 0.99783 0.0
H583 H 0.09403 0.619 0.08185 0.0
H584 H 0.08356 0.67795 0.08557 0.0
H585 H 0.12938 0.5818 0.98445 0.0
H586 H 0.12867 0.55976 0.13768 0.0
H587 H 0.1347 0.59065 0.19434 0.0
H588 H 0.19385 0.66144 0.13991 0.0
H589 H 0.18859 0.6307 0.08316 0.0
C590 C 0.18803 0.43697 1.0198 0.0
C591 C 0.22116 0.43632 0.02922 0.0
C592 C 0.1699 0.46559 0.02371 0.0
C593 C 0.18469 0.49402 0.03687 0.0
C594 C 0.21745 0.49304 0.04736 0.0
C595 C 0.23548 0.46454 0.04359 0.0
C596 C 0.16699 0.52546 0.03803 0.0
C597 C 0.16668 0.54299 0.07048 0.0
C598 C 0.15296 0.53946 1.00675 0.0
C599 C 0.15402 0.52308 0.97121 0.0
C600 C 0.18396 0.51528 0.95514 0.0
C601 C 0.18475 0.49971 0.92167 0.0
C602 C 0.15577 0.49211 0.90388 0.0
C603 C 0.12593 0.50015 0.91947 0.0
C604 C 0.125 0.51567 0.95296 0.0
C605 C 0.14042 0.67838 1.01878 0.0
C606 C 0.11832 0.69054 0.04414 0.0
C607 C 0.14628 0.64504 1.01655 0.0
C608 C 0.13024 0.62337 0.03977 0.0
C609 C 0.10681 0.6354 0.06388 0.0
C610 C 0.10081 0.66889 0.06597 0.0
C611 C 0.1405 0.58883 0.04066 0.0
C612 C 0.13945 0.57076 1.00862 0.0
C613 C 0.15415 0.57469 0.07205 0.0
C614 C 0.15781 0.59317 0.10611 0.0
C615 C 0.143 0.58188 0.13787 0.0
C616 C 0.14631 0.59935 0.16999 0.0
C617 C 0.16454 0.62806 0.17069 0.0
C618 C 0.17963 0.63928 0.13931 0.0
C619 C 0.17647 0.62185 0.10716 0.0
H620 H 0.16704 0.64156 0.19557 0.0
H621 H 0.15644 0.48007 0.87796 0.0
H622 H 0.33073 0.07474 0.57084 0.0
H623 H 0.38989 0.08267 0.56548 0.0
H624 H 0.37319 0.17206 0.50682 0.0
H625 H 0.31465 0.16361 0.51122 0.0
H626 H 0.42215 0.14022 0.478 0.0
H627 H 0.38838 0.17077 0.59874 0.0
H628 H 0.36423 0.16064 0.65855 0.0
H629 H 0.43433 0.08522 0.67863 0.0
H630 H 0.45863 0.09467 0.61868 0.0
H631 H 0.53796 0.25811 0.52041 0.0
H632 H 0.48952 0.22392 0.5206 0.0
H633 H 0.54786 0.14014 0.54772 0.0
H634 H 0.59704 0.1743 0.54688 0.0
H635 H 0.48512 0.15422 0.59117 0.0
H636 H 0.52537 0.13531 0.47184 0.0
H637 H 0.54873 0.15176 0.41339 0.0
H638 H 0.46501 0.21116 0.39174 0.0
H639 H 0.44138 0.19549 0.45033 0.0
C640 C 0.33992 0.09585 0.55659 0.0
C641 C 0.31842 0.11912 0.54239 0.0
C642 C 0.37357 0.10042 0.55361 0.0
C643 C 0.38596 0.12824 0.53624 0.0
C644 C 0.36426 0.1505 0.52047 0.0
C645 C 0.33084 0.14589 0.52337 0.0
C646 C 0.42124 0.13568 0.53589 0.0
C647 C 0.43597 0.14303 0.50273 0.0
C648 C 0.43955 0.13874 0.5681 0.0
C649 C 0.42502 0.1331 0.60409 0.0
C650 C 0.39847 0.15185 0.61581 0.0
C651 C 0.38478 0.14627 0.64974 0.0
C652 C 0.39767 0.12222 0.67233 0.0
C653 C 0.42432 0.10378 0.66107 0.0
C654 C 0.43806 0.10923 0.62712 0.0
C655 C 0.5406 0.23244 0.52651 0.0
C656 C 0.57131 0.21886 0.53359 0.0
C657 C 0.51291 0.21295 0.52649 0.0
C658 C 0.51527 0.17959 0.53399 0.0
C659 C 0.54572 0.16589 0.54179 0.0
C660 C 0.57368 0.18536 0.5412 0.0
C661 C 0.48542 0.15964 0.53345 0.0
C662 C 0.47167 0.15017 0.56638 0.0
C663 C 0.46779 0.15516 0.50112 0.0
C664 C 0.48168 0.16433 0.46559 0.0
C665 C 0.51204 0.15206 0.45473 0.0
C666 C 0.52531 0.16122 0.42155 0.0
C667 C 0.50838 0.18252 0.39888 0.0
C668 C 0.4781 0.19465 0.40932 0.0
C669 C 0.46472 0.18559 0.44249 0.0
H670 H 0.51871 0.1896 0.37322 0.0
H671 H 0.38705 0.11793 0.69859 0.0
H672 H 0.63686 0.5571 1.0216 0.0
H673 H 0.59335 0.51691 1.0207 0.0
H674 H 0.52226 0.59377 1.01229 0.0
H675 H 0.56583 0.63441 1.01404 0.0
H676 H 0.50272 0.54935 0.05945 0.0
H677 H 0.544 0.54581 0.93864 0.0
H678 H 0.58604 0.54082 0.89165 0.0
H679 H 0.6098 0.44487 0.92959 0.0
H680 H 0.56819 0.44945 0.97714 0.0
H681 H 0.36974 0.44894 1.01174 0.0
H682 H 0.41312 0.48935 1.01094 0.0
H683 H 0.48456 0.41309 1.0218 0.0
H684 H 0.44118 0.37223 1.02203 0.0
H685 H 0.50369 0.45732 0.97304 0.0
H686 H 0.46273 0.46098 0.09398 0.0
H687 H 0.4207 0.46584 0.14099 0.0
H688 H 0.39635 0.56154 0.10275 0.0
H689 H 0.43796 0.55708 0.05518 0.0
C690 C 0.61201 0.5656 1.01943 0.0
C691 C 0.60495 0.59912 1.0177 0.0
C692 C 0.58709 0.54247 1.01876 0.0
C693 C 0.55445 0.55218 1.01583 0.0
C694 C 0.54724 0.58562 1.01442 0.0
C695 C 0.5722 0.60885 1.01532 0.0
C696 C 0.52794 0.52741 1.01485 0.0
C697 C 0.50269 0.52953 0.04017 0.0
C698 C 0.52824 0.50097 0.99034 0.0
C699 C 0.55317 0.4981 0.96165 0.0
C700 C 0.55835 0.52373 0.93713 0.0
C701 C 0.58207 0.52097 0.91037 0.0
C702 C 0.60063 0.49258 0.90769 0.0
C703 C 0.59543 0.46686 0.93172 0.0
C704 C 0.57176 0.46952 0.95855 0.0
C705 C 0.39466 0.44062 1.01391 0.0
C706 C 0.40187 0.40722 1.01711 0.0
C707 C 0.41948 0.46387 1.01363 0.0
C708 C 0.45215 0.45438 1.0169 0.0
C709 C 0.45954 0.42104 1.01939 0.0
C710 C 0.43468 0.39769 1.01957 0.0
C711 C 0.4785 0.4793 1.01761 0.0
C712 C 0.50371 0.47719 0.99227 0.0
C713 C 0.47817 0.50574 0.04209 0.0
C714 C 0.45326 0.50856 0.07081 0.0
C715 C 0.44825 0.48297 0.09543 0.0
C716 C 0.42453 0.48566 0.1222 0.0
C717 C 0.40581 0.51395 0.1248 0.0
C718 C 0.41084 0.53963 0.10068 0.0
C719 C 0.43452 0.53704 0.07383 0.0
H720 H 0.38746 0.51599 0.14554 0.0
H721 H 0.61899 0.49049 0.88696 0.0
H722 H 0.63308 0.44088 0.52755 0.0
H723 H 0.59325 0.48513 0.52619 0.0
H724 H 0.51554 0.41511 0.51752 0.0
H725 H 0.55509 0.37081 0.51839 0.0
H726 H 0.50561 0.46463 0.47209 0.0
H727 H 0.53226 0.4532 0.5974 0.0
H728 H 0.56844 0.45027 0.65038 0.0
H729 H 0.60253 0.54716 0.62885 0.0
H730 H 0.56686 0.5505 0.5754 0.0
H731 H 0.37324 0.56816 0.51809 0.0
H732 H 0.4141 0.5249 0.51759 0.0
H733 H 0.4904 0.59668 0.52328 0.0
H734 H 0.44978 0.6401 0.52405 0.0
H735 H 0.50153 0.5469 0.56971 0.0
H736 H 0.47376 0.55825 0.44459 0.0
H737 H 0.43681 0.56086 0.39223 0.0
H738 H 0.40406 0.46357 0.41419 0.0
H739 H 0.4405 0.46055 0.46701 0.0
C740 C 0.60753 0.43486 0.52526 0.0
C741 C 0.59737 0.40219 0.52318 0.0
C742 C 0.58474 0.46022 0.52466 0.0
C743 C 0.5513 0.45349 0.52215 0.0
C744 C 0.54116 0.42096 0.5195 0.0
C745 C 0.56388 0.39561 0.52012 0.0
C746 C 0.52683 0.48026 0.52229 0.0
C747 C 0.5045 0.48237 0.49368 0.0
C748 C 0.52569 0.50388 0.55004 0.0
C749 C 0.54715 0.50196 0.58217 0.0
C750 C 0.54767 0.47378 0.60378 0.0
C751 C 0.56805 0.47206 0.63393 0.0
C752 C 0.58785 0.49847 0.64291 0.0
C753 C 0.58723 0.5267 0.62182 0.0
C754 C 0.56692 0.52852 0.59161 0.0
C755 C 0.3987 0.57481 0.51914 0.0
C756 C 0.40814 0.60771 0.52098 0.0
C757 C 0.42206 0.55001 0.51874 0.0
C758 C 0.45538 0.55751 0.52007 0.0
C759 C 0.46487 0.59027 0.5222 0.0
C760 C 0.44155 0.6151 0.52249 0.0
C761 C 0.48033 0.53121 0.51954 0.0
C762 C 0.50272 0.52919 0.54809 0.0
C763 C 0.48146 0.50761 0.4918 0.0
C764 C 0.45963 0.5093 0.45996 0.0
C765 C 0.45849 0.53751 0.43842 0.0
C766 C 0.43767 0.53904 0.40863 0.0
C767 C 0.41804 0.51243 0.39994 0.0
C768 C 0.41925 0.48419 0.42098 0.0
C769 C 0.44 0.48254 0.45083 0.0
H770 H 0.40194 0.51367 0.37687 0.0
H771 H 0.6036 0.4971 0.66627 0.0
H772 H 0.06548 0.87369 0.07019 0.0
H773 H 0.02185 0.91414 0.07223 0.0
H774 H 0.09281 0.99137 0.06869 0.0
H775 H 0.1365 0.95122 0.06748 0.0
H776 H 0.04761 0.00585 0.11598 0.0
H777 H 0.04748 0.96865 0.99335 0.0
H778 H 0.04523 0.92805 0.94452 0.0
H779 H 0.95066 0.8976 0.97994 0.0
H780 H 0.95253 0.93774 0.0293 0.0
H781 H 0.93881 0.13504 0.06975 0.0
H782 H 0.98268 0.09474 0.06977 0.0
H783 H 0.91208 0.01735 0.07625 0.0
H784 H 0.8682 0.05727 0.07573 0.0
H785 H 0.95713 1.00314 0.02746 0.0
H786 H 0.95749 0.04085 0.15009 0.0
H787 H 0.95989 0.08196 0.19837 0.0
H788 H 0.05434 0.11205 0.16217 0.0
H789 H 0.05231 0.07139 0.11334 0.0
C790 C 0.07184 0.89928 0.06993 0.0
C791 C 0.1046 0.9091 0.06856 0.0
C792 C 0.04681 0.92243 0.07091 0.0
C793 C 0.05393 0.95591 0.07012 0.0
C794 C 0.08661 0.96574 0.0693 0.0
C795 C 0.11162 0.94266 0.06851 0.0
C796 C 0.02746 0.98077 0.07013 0.0
C797 C 0.02806 0.00546 0.09631 0.0
C798 C 1.00151 0.98005 0.04496 0.0
C799 C 1.00029 0.95597 1.01524 0.0
C800 C 0.02631 0.95312 0.99089 0.0
C801 C 0.02509 0.93022 0.96309 0.0
C802 C 0.99786 0.91019 0.95919 0.0
C803 C 0.97175 0.91309 0.98303 0.0
C804 C 0.97287 0.93593 1.0109 0.0
C805 C 0.93259 0.10946 0.07134 0.0
C806 C 0.89988 0.09951 0.07285 0.0
C807 C 0.95774 0.08641 0.07145 0.0
C808 C 0.95076 0.05293 0.07333 0.0
C809 C 0.91815 0.04298 0.07476 0.0
C810 C 0.89304 0.06594 0.07461 0.0
C811 C 0.97727 0.02815 0.07333 0.0
C812 C 0.97668 0.0035 0.04713 0.0
C813 C 0.00327 0.02896 0.0984 0.0
C814 C 0.00461 0.05329 0.12785 0.0
C815 C 0.97867 0.0564 0.15226 0.0
C816 C 0.97997 0.07959 0.17975 0.0
C817 C 0.00721 0.09966 0.18328 0.0
C818 C 0.03324 0.09652 0.15938 0.0
C819 C 0.03203 0.07338 0.13181 0.0
H820 H 0.00818 0.11761 0.20458 0.0
H821 H 0.99696 0.89248 0.93766 0.0
H822 H 0.9483 0.86974 0.54857 0.0
H823 H 0.98891 0.91294 0.54882 0.0
H824 H 0.91542 0.98235 0.57989 0.0
H825 H 0.87427 0.9393 0.57826 0.0
H826 H 0.95253 0.00851 0.53124 0.0
H827 H 0.97443 0.94929 0.64101 0.0
H828 H 0.9863 0.90032 0.67735 0.0
H829 H 0.07402 0.8846 0.61726 0.0
H830 H 0.06248 0.93326 0.58028 0.0
H831 H 0.05922 0.13537 0.58161 0.0
H832 H 0.01911 0.09168 0.58215 0.0
H833 H 0.09293 0.02308 0.54994 0.0
H834 H 0.13356 0.06664 0.55048 0.0
H835 H 0.05595 0.99634 0.59894 0.0
H836 H 0.03456 0.0552 0.48941 0.0
H837 H 0.02287 0.10371 0.45227 0.0
H838 H 0.93443 0.11968 0.51097 0.0
H839 H 0.9458 0.07149 0.54878 0.0
C840 C 0.94072 0.89416 0.55559 0.0
C841 C 0.90798 0.90097 0.56364 0.0
C842 C 0.96409 0.91889 0.55591 0.0
C843 C 0.95552 0.95093 0.56512 0.0
C844 C 0.92277 0.95785 0.57284 0.0
C845 C 0.89924 0.93318 0.57199 0.0
C846 C 0.98055 0.97725 0.56614 0.0
C847 C 0.97491 0.006 0.54652 0.0
C848 C 0.01029 0.97379 0.58517 0.0
C849 C 0.01745 0.94477 0.6077 0.0
C850 C 0.99616 0.93529 0.63543 0.0
C851 C 0.00284 0.9076 0.65616 0.0
C852 C 0.03086 0.88932 0.64957 0.0
C853 C 0.05232 0.89876 0.62232 0.0
C854 C 0.04574 0.92641 0.60151 0.0
C855 C 0.06702 0.111 0.57468 0.0
C856 C 0.09967 0.10461 0.56581 0.0
C857 C 0.04394 0.086 0.57479 0.0
C858 C 0.05272 0.05409 0.56535 0.0
C859 C 0.08544 0.04749 0.55717 0.0
C860 C 0.10868 0.07245 0.55746 0.0
C861 C 0.02784 0.02764 0.56419 0.0
C862 C 0.03354 0.99887 0.58372 0.0
C863 C 0.99817 0.03105 0.54501 0.0
C864 C 0.99119 0.05991 0.52214 0.0
C865 C 0.01273 0.06918 0.49455 0.0
C866 C 0.00614 0.0966 0.47336 0.0
C867 C 0.97796 0.11481 0.47932 0.0
C868 C 0.95626 0.10557 0.50642 0.0
C869 C 0.96275 0.07819 0.52771 0.0
H870 H 0.97292 0.13603 0.46289 0.0
H871 H 0.03596 0.86788 0.66562 0.0
H872 H 0.23226 0.30943 0.1366 0.0
H873 H 0.2122 0.29509 0.19667 0.0
H874 H 0.3111 0.28439 0.23412 0.0
H875 H 0.33098 0.30165 0.17506 0.0
H876 H 0.21315 0.24546 0.23523 0.0
H877 H 0.31922 0.29709 0.32204 0.0
H878 H 0.35821 0.3427 0.3205 0.0
H879 H 0.29296 0.39756 0.25332 0.0
H880 H 0.25341 0.35248 0.25485 0.0
H881 H 0.20194 0.17606 0.40838 0.0
H882 H 0.21927 0.19522 0.34911 0.0
H883 H 0.20934 0.29472 0.38482 0.0
H884 H 0.19495 0.27532 0.44522 0.0
H885 H 0.25923 0.29287 0.34703 0.0
H886 H 0.15226 0.25338 0.32595 0.0
H887 H 0.10675 0.21433 0.32727 0.0
H888 H 0.16169 0.14749 0.26265 0.0
H889 H 0.20772 0.18598 0.26133 0.0
C890 C 0.24965 0.30446 0.15788 0.0
C891 C 0.28318 0.30649 0.1511 0.0
C892 C 0.23819 0.29595 0.19215 0.0
C893 C 0.26002 0.28893 0.22037 0.0
C894 C 0.29359 0.29038 0.2133 0.0
C895 C 0.30501 0.29968 0.17928 0.0
C896 C 0.24767 0.27972 0.2569 0.0
C897 C 0.22321 0.25595 0.25963 0.0
C898 C 0.26003 0.29384 0.28899 0.0
C899 C 0.2835 0.32126 0.28831 0.0
C900 C 0.31314 0.31895 0.30708 0.0
C901 C 0.33535 0.34469 0.30618 0.0
C902 C 0.32811 0.37297 0.28673 0.0
C903 C 0.29859 0.37561 0.26827 0.0
C904 C 0.27628 0.34995 0.26912 0.0
C905 C 0.20395 0.20201 0.4037 0.0
C906 C 0.19748 0.22419 0.43155 0.0
C907 C 0.21333 0.21302 0.36955 0.0
C908 C 0.21515 0.24654 0.36196 0.0
C909 C 0.2082 0.26874 0.38975 0.0
C910 C 0.19964 0.25768 0.42421 0.0
C911 C 0.22492 0.25838 0.32537 0.0
C912 C 0.249 0.28253 0.32264 0.0
C913 C 0.21121 0.24564 0.29324 0.0
C914 C 0.18353 0.22247 0.29379 0.0
C915 C 0.15471 0.23028 0.3122 0.0
C916 C 0.12881 0.20825 0.31293 0.0
C917 C 0.13135 0.17842 0.29512 0.0
C918 C 0.15977 0.17059 0.27646 0.0
C919 C 0.18576 0.19252 0.27568 0.0
H920 H 0.11128 0.1614 0.29572 0.0
H921 H 0.34536 0.39286 0.28604 0.0
H922 H 0.7302 0.1958 0.95178 0.0
H923 H 0.71077 0.211 0.89154 0.0
H924 H 0.81005 0.21888 0.85496 0.0
H925 H 0.82926 0.20147 0.91437 0.0
H926 H 0.71486 0.2623 0.85342 0.0
H927 H 0.81724 0.20401 0.76696 0.0
H928 H 0.85357 0.15623 0.76889 0.0
H929 H 0.78543 0.10559 0.83631 0.0
H930 H 0.74852 0.15288 0.83439 0.0
H931 H 0.70737 0.33099 0.67912 0.0
H932 H 0.72472 0.31142 0.73835 0.0
H933 H 0.706 0.21251 0.70513 0.0
H934 H 0.69128 0.23198 0.64487 0.0
H935 H 0.75745 0.21161 0.74183 0.0
H936 H 0.65329 0.25869 0.76294 0.0
H937 H 0.6109 0.30114 0.76124 0.0
H938 H 0.67121 0.36415 0.82491 0.0
H939 H 0.71416 0.32222 0.82659 0.0
C940 C 0.74779 0.20041 0.93068 0.0
C941 C 0.78123 0.19779 0.93782 0.0
C942 C 0.73671 0.20936 0.89633 0.0
C943 C 0.75885 0.21594 0.86839 0.0
C944 C 0.79234 0.21343 0.87568 0.0
C945 C 0.80336 0.20395 0.90984 0.0
C946 C 0.74699 0.2258 0.83187 0.0
C947 C 0.72415 0.25113 0.82905 0.0
C948 C 0.75842 0.21086 0.79988 0.0
C949 C 0.78027 0.18212 0.80078 0.0
C950 C 0.80996 0.18262 0.78206 0.0
C951 C 0.83066 0.15564 0.78318 0.0
C952 C 0.82186 0.12793 0.80279 0.0
C953 C 0.79227 0.12711 0.82122 0.0
C954 C 0.77147 0.15401 0.82016 0.0
C955 C 0.70751 0.30504 0.68428 0.0
C956 C 0.69826 0.283 0.65722 0.0
C957 C 0.71693 0.29385 0.71841 0.0
C958 C 0.71621 0.26042 0.72669 0.0
C959 C 0.7068 0.2384 0.69963 0.0
C960 C 0.69806 0.24956 0.66525 0.0
C961 C 0.72558 0.24838 0.76333 0.0
C962 C 0.74804 0.22271 0.76618 0.0
C963 C 0.71289 0.2622 0.79537 0.0
C964 C 0.68704 0.28741 0.79463 0.0
C965 C 0.65759 0.28167 0.77639 0.0
C966 C 0.63346 0.30563 0.77546 0.0
C967 C 0.63839 0.33535 0.79289 0.0
C968 C 0.66744 0.34113 0.81139 0.0
C969 C 0.69167 0.31726 0.81238 0.0
H970 H 0.61968 0.35387 0.79213 0.0
H971 H 0.83794 0.10709 0.80366 0.0
H972 H 0.80853 0.73323 0.44494 0.0
H973 H 0.79349 0.71391 0.38479 0.0
H974 H 0.77939 0.81323 0.34985 0.0
H975 H 0.79661 0.83256 0.40921 0.0
H976 H 0.74173 0.71575 0.34701 0.0
H977 H 0.79404 0.82226 0.26166 0.0
H978 H 0.83942 0.86147 0.26404 0.0
H979 H 0.89398 0.79568 0.33091 0.0
H980 H 0.84913 0.75592 0.32854 0.0
H981 H 0.67445 0.70785 0.172 0.0
H982 H 0.69296 0.72511 0.23163 0.0
H983 H 0.79252 0.70944 0.19943 0.0
H984 H 0.77403 0.69426 0.13893 0.0
H985 H 0.79049 0.762 0.23592 0.0
H986 H 0.74925 0.65519 0.2561 0.0
H987 H 0.70932 0.61047 0.25383 0.0
H988 H 0.64282 0.6666 0.3176 0.0
H989 H 0.68219 0.71186 0.31984 0.0
C990 C 0.80257 0.75091 0.42425 0.0
C991 C 0.80362 0.78439 0.4318 0.0
C992 C 0.79369 0.73985 0.38995 0.0
C993 C 0.78555 0.76204 0.36246 0.0
C994 C 0.78611 0.79554 0.37023 0.0
C995 C 0.7955 0.80659 0.40437 0.0
C996 C 0.77638 0.75013 0.32582 0.0
C997 C 0.75245 0.72589 0.32276 0.0
C998 C 0.79078 0.76268 0.294 0.0
C999 C 0.81808 0.78626 0.29518 0.0
C1000 C 0.81578 0.81611 0.27674 0.0
C1001 C 0.8414 0.83844 0.27811 0.0
C1002 C 0.86952 0.83111 0.2977 0.0
C1003 C 0.87214 0.80138 0.31585 0.0
C1004 C 0.84661 0.77895 0.31453 0.0
C1005 C 0.70031 0.70852 0.17753 0.0
C1006 C 0.72282 0.70001 0.15071 0.0
C1007 C 0.71088 0.71796 0.21182 0.0
C1008 C 0.74419 0.71821 0.2204 0.0
C1009 C 0.76671 0.70949 0.19361 0.0
C1010 C 0.75613 0.70052 0.15913 0.0
C1011 C 0.75554 0.72792 0.2571 0.0
C1012 C 0.77982 0.75182 0.26017 0.0
C1013 C 0.74226 0.71424 0.28896 0.0
C1014 C 0.71857 0.68702 0.28787 0.0
C1015 C 0.72603 0.65808 0.26944 0.0
C1016 C 0.70351 0.63263 0.26819 0.0
C1017 C 0.67353 0.63572 0.28549 0.0
C1018 C 0.66604 0.66425 0.30418 0.0
C1019 C 0.68846 0.6898 0.30548 0.0
H1020 H 0.65612 0.61599 0.28449 0.0
H1021 H 0.88931 0.84845 0.29876 0.0
H1022 H 0.17447 0.81264 0.90674 0.0
H1023 H 0.19357 0.79531 0.84721 0.0
H1024 H 0.29203 0.79212 0.8873 0.0
H1025 H 0.27282 0.80911 0.94706 0.0
H1026 H 0.2885 0.82007 0.8201 0.0
H1027 H 0.24992 0.72295 0.87774 0.0
H1028 H 0.21011 0.68896 0.91019 0.0
H1029 H 0.14353 0.69721 0.82135 0.0
H1030 H 0.18273 0.73174 0.7886 0.0
H1031 H 0.35494 0.72917 0.67408 0.0
H1032 H 0.33805 0.74807 0.73382 0.0
H1033 H 0.23769 0.74515 0.69989 0.0
H1034 H 0.25459 0.72604 0.64028 0.0
H1035 H 0.24321 0.71987 0.76496 0.0
H1036 H 0.28094 0.81775 0.70769 0.0
H1037 H 0.32014 0.85255 0.67537 0.0
H1038 H 0.38772 0.8435 0.76319 0.0
H1039 H 0.34909 0.80823 0.79583 0.0
C1040 C 0.20014 0.80797 0.90285 0.0
C1041 C 0.22211 0.81153 0.9316 0.0
C1042 C 0.21105 0.79818 0.86885 0.0
C1043 C 0.2442 0.7919 0.86289 0.0
C1044 C 0.26635 0.79667 0.89128 0.0
C1045 C 0.25538 0.80634 0.92536 0.0
C1046 C 0.25558 0.77985 0.82723 0.0
C1047 C 0.27893 0.79793 0.80823 0.0
C1048 C 0.24264 0.7513 0.8114 0.0
C1049 C 0.21916 0.7302 0.83085 0.0
C1050 C 0.2267 0.71772 0.86523 0.0
C1051 C 0.20425 0.69834 0.88367 0.0
C1052 C 0.17428 0.691 0.86788 0.0
C1053 C 0.16674 0.70296 0.83357 0.0
C1054 C 0.18907 0.72243 0.81504 0.0
C1055 C 0.32932 0.7329 0.67932 0.0
C1056 C 0.30608 0.72636 0.6525 0.0
C1057 C 0.31966 0.74368 0.71348 0.0
C1058 C 0.28656 0.74847 0.72136 0.0
C1059 C 0.26334 0.74166 0.69458 0.0
C1060 C 0.27301 0.73074 0.66052 0.0
C1061 C 0.27602 0.76022 0.75756 0.0
C1062 C 0.25283 0.74202 0.77675 0.0
C1063 C 0.28907 0.78871 0.77351 0.0
C1064 C 0.31225 0.81008 0.75404 0.0
C1065 C 0.30426 0.82298 0.71999 0.0
C1066 C 0.32636 0.84282 0.70163 0.0
C1067 C 0.35644 0.85016 0.71717 0.0
C1068 C 0.36444 0.83775 0.75116 0.0
C1069 C 0.34244 0.81785 0.76962 0.0
H1070 H 0.37352 0.86552 0.70291 0.0
H1071 H 0.15694 0.67598 0.8822 0.0
H1072 H 0.68167 0.73505 0.92131 0.0
H1073 H 0.70296 0.75469 0.86399 0.0
H1074 H 0.77202 0.67568 0.8623 0.0
H1075 H 0.75148 0.65639 0.92044 0.0
H1076 H 0.80064 0.73035 0.84181 0.0
H1077 H 0.70205 0.67544 0.80913 0.0
H1078 H 0.64348 0.66297 0.81226 0.0
H1079 H 0.62067 0.76154 0.78288 0.0
H1080 H 0.67913 0.77472 0.78004 0.0
H1081 H 0.84466 0.75126 0.65755 0.0
H1082 H 0.8246 0.72934 0.71464 0.0
H1083 H 0.75434 0.80709 0.72082 0.0
H1084 H 0.77375 0.82877 0.6634 0.0
H1085 H 0.72674 0.75128 0.73848 0.0
H1086 H 0.8253 0.80642 0.77245 0.0
H1087 H 0.88387 0.81893 0.76942 0.0
H1088 H 0.90671 0.71978 0.79626 0.0
H1089 H 0.84825 0.70658 0.79899 0.0
C1090 C 0.70144 0.72182 0.9089 0.0
C1091 C 0.71478 0.69406 0.92562 0.0
C1092 C 0.71348 0.733 0.87588 0.0
C1093 C 0.7388 0.71641 0.85841 0.0
C1094 C 0.75241 0.68887 0.87515 0.0
C1095 C 0.74053 0.67778 0.90837 0.0
C1096 C 0.75118 0.728 0.82285 0.0
C1097 C 0.78453 0.73444 0.81906 0.0
C1098 C 0.73014 0.73406 0.79328 0.0
C1099 C 0.69497 0.72613 0.79467 0.0
C1100 C 0.68455 0.69451 0.80356 0.0
C1101 C 0.65137 0.68731 0.80526 0.0
C1102 C 0.62837 0.71147 0.79785 0.0
C1103 C 0.63851 0.74286 0.78864 0.0
C1104 C 0.67166 0.7502 0.78694 0.0
C1105 C 0.82499 0.76379 0.67106 0.0
C1106 C 0.81096 0.79191 0.65585 0.0
C1107 C 0.81361 0.75126 0.70384 0.0
C1108 C 0.78821 0.76677 0.72239 0.0
C1109 C 0.77398 0.79468 0.70711 0.0
C1110 C 0.78522 0.80713 0.67427 0.0
C1111 C 0.77617 0.75382 0.7575 0.0
C1112 C 0.74287 0.7471 0.7612 0.0
C1113 C 0.79726 0.74749 0.78696 0.0
C1114 C 0.83241 0.75545 0.78558 0.0
C1115 C 0.84282 0.78724 0.77746 0.0
C1116 C 0.876 0.79446 0.77583 0.0
C1117 C 0.899 0.77015 0.78255 0.0
C1118 C 0.88887 0.73858 0.79102 0.0
C1119 C 0.85572 0.73122 0.79264 0.0
H1120 H 0.92467 0.77578 0.78127 0.0
H1121 H 0.6027 0.70584 0.79919 0.0
H1122 H 0.26995 0.68326 0.42569 0.0
H1123 H 0.24988 0.70364 0.36784 0.0
H1124 H 0.32886 0.77256 0.36357 0.0
H1125 H 0.34885 0.75268 0.42171 0.0
H1126 H 0.2734 0.80104 0.34384 0.0
H1127 H 0.32894 0.70225 0.31254 0.0
H1128 H 0.34146 0.64362 0.31621 0.0
H1129 H 0.24328 0.6206 0.28613 0.0
H1130 H 0.23004 0.67912 0.28279 0.0
H1131 H 0.25552 0.84552 0.15965 0.0
H1132 H 0.27634 0.82506 0.21713 0.0
H1133 H 0.19924 0.75398 0.22077 0.0
H1134 H 0.1787 0.77377 0.1629 0.0
H1135 H 0.25409 0.72664 0.24083 0.0
H1136 H 0.19814 0.825 0.27277 0.0
H1137 H 0.18513 0.88353 0.26935 0.0
H1138 H 0.28337 0.90727 0.29846 0.0
H1139 H 0.29708 0.84885 0.30159 0.0
C1140 C 0.28316 0.7027 0.41245 0.0
C1141 C 0.31118 0.71616 0.42838 0.0
C1142 C 0.27168 0.71428 0.37924 0.0
C1143 C 0.28807 0.73938 0.36099 0.0
C1144 C 0.31581 0.75314 0.37703 0.0
C1145 C 0.32727 0.74164 0.41028 0.0
C1146 C 0.27622 0.75146 0.32534 0.0
C1147 C 0.26961 0.78481 0.32117 0.0
C1148 C 0.27048 0.73027 0.29591 0.0
C1149 C 0.27843 0.69507 0.29776 0.0
C1150 C 0.30995 0.68468 0.30698 0.0
C1151 C 0.31719 0.65147 0.30896 0.0
C1152 C 0.29315 0.6284 0.30151 0.0
C1153 C 0.26186 0.6385 0.29196 0.0
C1154 C 0.25448 0.67169 0.28999 0.0
C1155 C 0.24294 0.82554 0.17264 0.0
C1156 C 0.21528 0.81145 0.15661 0.0
C1157 C 0.25481 0.81394 0.20568 0.0
C1158 C 0.23911 0.78825 0.22372 0.0
C1159 C 0.21178 0.77386 0.20753 0.0
C1160 C 0.19999 0.7853 0.1744 0.0
C1161 C 0.25122 0.77623 0.25932 0.0
C1162 C 0.25788 0.74288 0.26348 0.0
C1163 C 0.25693 0.79741 0.28877 0.0
C1164 C 0.2487 0.83255 0.28707 0.0
C1165 C 0.21702 0.8427 0.27819 0.0
C1166 C 0.20952 0.87586 0.27634 0.0
C1167 C 0.23343 0.89911 0.28359 0.0
C1168 C 0.26488 0.88924 0.2928 0.0
C1169 C 0.27253 0.85611 0.29465 0.0
H1170 H 0.22757 0.92477 0.28214 0.0
H1171 H 0.29881 0.6027 0.30305 0.0
H1172 H 0.15552 0.24927 0.66339 0.0
H1173 H 0.17463 0.27015 0.72126 0.0
H1174 H 0.25719 0.2055 0.71689 0.0
H1175 H 0.23754 0.18358 0.65979 0.0
H1176 H 0.23397 0.20519 0.78187 0.0
H1177 H 0.26219 0.29014 0.69808 0.0
H1178 H 0.25199 0.33088 0.65042 0.0
H1179 H 0.18352 0.37977 0.71877 0.0
H1180 H 0.19302 0.33908 0.76668 0.0
H1181 H 0.33003 0.27885 0.9174 0.0
H1182 H 0.30881 0.25875 0.86021 0.0
H1183 H 0.22603 0.32263 0.86977 0.0
H1184 H 0.24758 0.34353 0.92677 0.0
H1185 H 0.24794 0.32358 0.80289 0.0
H1186 H 0.22133 0.23885 0.88745 0.0
H1187 H 0.2328 0.19843 0.93507 0.0
H1188 H 0.29947 0.14913 0.86493 0.0
H1189 H 0.28874 0.18953 0.81704 0.0
C1190 C 0.17776 0.23946 0.67468 0.0
C1191 C 0.19511 0.21487 0.6566 0.0
C1192 C 0.1888 0.2516 0.70776 0.0
C1193 C 0.21773 0.23987 0.72331 0.0
C1194 C 0.23488 0.2151 0.7055 0.0
C1195 C 0.22368 0.20268 0.67263 0.0
C1196 C 0.22995 0.25302 0.75831 0.0
C1197 C 0.23741 0.23107 0.78624 0.0
C1198 C 0.23374 0.28684 0.76456 0.0
C1199 C 0.22808 0.31138 0.73582 0.0
C1200 C 0.24479 0.30945 0.70284 0.0
C1201 C 0.23916 0.33255 0.6758 0.0
C1202 C 0.21705 0.35785 0.68153 0.0
C1203 C 0.2006 0.36014 0.71435 0.0
C1204 C 0.20612 0.33708 0.74147 0.0
C1205 C 0.30727 0.28865 0.90746 0.0
C1206 C 0.29045 0.31274 0.92689 0.0
C1207 C 0.29506 0.27698 0.87472 0.0
C1208 C 0.26548 0.2887 0.86085 0.0
C1209 C 0.24884 0.31308 0.87992 0.0
C1210 C 0.26118 0.32498 0.91258 0.0
C1211 C 0.25212 0.27574 0.82631 0.0
C1212 C 0.24443 0.29771 0.79851 0.0
C1213 C 0.24822 0.24192 0.82013 0.0
C1214 C 0.25442 0.21739 0.84876 0.0
C1215 C 0.23858 0.21951 0.88226 0.0
C1216 C 0.24494 0.19658 0.90929 0.0
C1217 C 0.26691 0.17127 0.90306 0.0
C1218 C 0.28249 0.16877 0.86973 0.0
C1219 C 0.27625 0.19165 0.84262 0.0
H1220 H 0.27181 0.15356 0.92403 0.0
H1221 H 0.21273 0.37571 0.66056 0.0
H1222 H 0.82007 0.23556 0.16656 0.0
H1223 H 0.79861 0.25513 0.22375 0.0
H1224 H 0.73135 0.17465 0.22694 0.0
H1225 H 0.752 0.15543 0.16891 0.0
H1226 H 0.70165 0.22854 0.24746 0.0
H1227 H 0.802 0.17624 0.27927 0.0
H1228 H 0.86084 0.16526 0.27545 0.0
H1229 H 0.88139 0.26449 0.30364 0.0
H1230 H 0.82265 0.27617 0.30716 0.0
H1231 H 0.65884 0.24974 0.43205 0.0
H1232 H 0.67872 0.22785 0.37495 0.0
H1233 H 0.74784 0.30652 0.36727 0.0
H1234 H 0.72869 0.32809 0.42472 0.0
H1235 H 0.77614 0.2516 0.34959 0.0
H1236 H 0.67576 0.30417 0.31631 0.0
H1237 H 0.61692 0.31511 0.3202 0.0
H1238 H 0.59645 0.2152 0.29507 0.0
H1239 H 0.65521 0.20357 0.29145 0.0
C1240 C 0.80062 0.22201 0.17924 0.0
C1241 C 0.78784 0.19384 0.16299 0.0
C1242 C 0.78851 0.23315 0.2122 0.0
C1243 C 0.76368 0.21611 0.2301 0.0
C1244 C 0.75057 0.18819 0.21377 0.0
C1245 C 0.76251 0.17716 0.18061 0.0
C1246 C 0.75138 0.22753 0.26572 0.0
C1247 C 0.71791 0.23311 0.26995 0.0
C1248 C 0.77257 0.23418 0.29497 0.0
C1249 C 0.80792 0.22714 0.29318 0.0
C1250 C 0.81907 0.19577 0.28443 0.0
C1251 C 0.8524 0.18941 0.28235 0.0
C1252 C 0.87484 0.21418 0.28922 0.0
C1253 C 0.86398 0.24533 0.29829 0.0
C1254 C 0.83067 0.25183 0.30037 0.0
C1255 C 0.67822 0.26246 0.4182 0.0
C1256 C 0.69202 0.29081 0.433 0.0
C1257 C 0.68949 0.24996 0.38541 0.0
C1258 C 0.71452 0.26575 0.36641 0.0
C1259 C 0.72849 0.29388 0.3813 0.0
C1260 C 0.71741 0.30626 0.41418 0.0
C1261 C 0.72645 0.25287 0.33125 0.0
C1262 C 0.75987 0.24696 0.32713 0.0
C1263 C 0.70521 0.24592 0.30213 0.0
C1264 C 0.66988 0.25294 0.30394 0.0
C1265 C 0.65871 0.28449 0.31183 0.0
C1266 C 0.62538 0.29082 0.31396 0.0
C1267 C 0.60296 0.26584 0.30798 0.0
C1268 C 0.61384 0.23451 0.29973 0.0
C1269 C 0.64715 0.22805 0.2976 0.0
H1270 H 0.57716 0.27079 0.30966 0.0
H1271 H 0.90063 0.20921 0.28758 0.0
loop_
_geom_bond_atom_site_label_1
_geom_bond_atom_site_label_2
_geom_bond_distance
_geom_bond_site_symmetry_2
_ccdc_geom_bond_type
Co0 O3 1.970 1_554 S
Co0 N17 1.989 . S
Co0 O25 1.967 1_554 S
Co0 O32 1.920 . S
Co1 O4 1.966 1_554 S
Co1 N10 2.022 . S
Co1 N18 1.993 . S
Co1 O26 1.941 . S
C2 O3 1.258 . S
C2 O4 1.263 . S
O3 Co0 1.970 1_556 S
O3 C2 1.258 . S
O4 Co1 1.966 1_556 S
O4 C2 1.263 . S
C5 O6 1.235 . S
C5 O32 1.289 . S
O6 C5 1.235 . S
C7 C9 1.400 1_556 S
C7 N10 1.351 1_556 S
C7 C12 1.501 . S
C8 C9 1.387 . S
C8 N11 1.341 . S
C9 C7 1.400 1_554 S
C9 C8 1.387 . S
N10 Co1 2.022 . S
N10 C7 1.351 1_554 S
N10 N11 1.365 . S
N11 C8 1.341 . S
N11 N10 1.365 . S
N11 H31 0.862 . S
C12 C7 1.501 . S
C12 H13 0.961 . S
C12 H14 0.961 . S
C12 H15 0.960 . S
H13 C12 0.961 . S
H14 C12 0.961 . S
H15 C12 0.960 . S
C16 N17 1.342 . S
C16 C20 1.401 . S
C16 C21 1.499 . S
N17 Co0 1.989 . S
N17 C16 1.342 . S
N17 N18 1.388 . S
N18 Co1 1.993 . S
N18 N17 1.388 . S
N18 C19 1.346 . S
C19 N18 1.346 . S
C19 C20 1.396 . S
C19 C29 1.510 . S
C20 C16 1.401 . S
C20 C19 1.396 . S
C21 C16 1.499 . S
C21 H22 0.959 . S
C21 H23 0.960 . S
C21 H24 0.961 . S
H22 C21 0.959 . S
H23 C21 0.960 . S
H24 C21 0.961 . S
O25 Co0 1.967 1_556 S
O25 C33 1.258 . S
O26 Co1 1.941 . S
O26 C33 1.266 1_554 S
H27 C29 0.959 . S
H28 C29 0.961 . S
C29 C19 1.510 . S
C29 H27 0.959 . S
C29 H28 0.961 . S
C29 H30 0.960 . S
H30 C29 0.960 . S
H31 N11 0.862 . S
O32 Co0 1.920 . S
O32 C5 1.289 . S
C33 O25 1.258 . S
C33 O26 1.266 1_556 S
Co34 O37 1.970 . S
Co34 N51 1.989 . S
Co34 O59 1.967 . S
Co34 O66 1.920 . S
Co35 O38 1.966 . S
Co35 N44 2.022 . S
Co35 N52 1.993 . S
Co35 O60 1.941 . S
C36 O37 1.258 . S
C36 O38 1.263 . S
O37 Co34 1.970 . S
O37 C36 1.258 . S
O38 Co35 1.966 . S
O38 C36 1.263 . S
C39 O40 1.235 . S
C39 O66 1.289 . S
O40 C39 1.235 . S
C41 C43 1.400 . S
C41 N44 1.351 . S
C41 C46 1.501 . S
C42 C43 1.387 . S
C42 N45 1.341 . S
C43 C41 1.400 . S
C43 C42 1.387 . S
N44 Co35 2.022 . S
N44 C41 1.351 . S
N44 N45 1.365 . S
N45 C42 1.341 . S
N45 N44 1.365 . S
N45 H65 0.862 . S
C46 C41 1.501 . S
C46 H47 0.961 . S
C46 H48 0.961 . S
C46 H49 0.960 . S
H47 C46 0.961 . S
H48 C46 0.961 . S
H49 C46 0.960 . S
C50 N51 1.342 . S
C50 C54 1.401 . S
C50 C55 1.499 . S
N51 Co34 1.989 . S
N51 C50 1.342 . S
N51 N52 1.388 . S
N52 Co35 1.993 . S
N52 N51 1.388 . S
N52 C53 1.346 . S
C53 N52 1.346 . S
C53 C54 1.396 . S
C53 C63 1.510 . S
C54 C50 1.401 . S
C54 C53 1.396 . S
C55 C50 1.499 . S
C55 H56 0.959 . S
C55 H57 0.960 . S
C55 H58 0.961 . S
H56 C55 0.959 . S
H57 C55 0.960 . S
H58 C55 0.961 . S
O59 Co34 1.967 . S
O59 C67 1.258 . S
O60 Co35 1.941 . S
O60 C67 1.266 . S
H61 C63 0.959 . S
H62 C63 0.961 . S
C63 C53 1.510 . S
C63 H61 0.959 . S
C63 H62 0.961 . S
C63 H64 0.960 . S
H64 C63 0.960 . S
H65 N45 0.862 . S
O66 Co34 1.920 . S
O66 C39 1.289 . S
C67 O59 1.258 . S
C67 O60 1.266 . S
Co68 O71 1.970 1_554 S
Co68 N85 1.989 . S
Co68 O93 1.967 1_554 S
Co68 O100 1.920 . S
Co69 O72 1.966 1_554 S
Co69 N78 2.022 . S
Co69 N86 1.993 . S
Co69 O94 1.941 . S
C70 O71 1.258 . S
C70 O72 1.263 . S
O71 Co68 1.970 1_556 S
O71 C70 1.258 . S
O72 Co69 1.966 1_556 S
O72 C70 1.263 . S
C73 O74 1.235 . S
C73 O100 1.289 . S
O74 C73 1.235 . S
C75 C77 1.400 1_556 S
C75 N78 1.351 1_556 S
C75 C80 1.501 . S
C76 C77 1.387 . S
C76 N79 1.341 . S
C77 C75 1.400 1_554 S
C77 C76 1.387 . S
N78 Co69 2.022 . S
N78 C75 1.351 1_554 S
N78 N79 1.365 . S
N79 C76 1.341 . S
N79 N78 1.365 . S
N79 H99 0.862 . S
C80 C75 1.501 . S
C80 H81 0.961 . S
C80 H82 0.961 . S
C80 H83 0.960 . S
H81 C80 0.961 . S
H82 C80 0.961 . S
H83 C80 0.960 . S
C84 N85 1.342 . S
C84 C88 1.401 . S
C84 C89 1.499 . S
N85 Co68 1.989 . S
N85 C84 1.342 . S
N85 N86 1.388 . S
N86 Co69 1.993 . S
N86 N85 1.388 . S
N86 C87 1.346 . S
C87 N86 1.346 . S
C87 C88 1.396 . S
C87 C97 1.510 . S
C88 C84 1.401 . S
C88 C87 1.396 . S
C89 C84 1.499 . S
C89 H90 0.959 . S
C89 H91 0.960 . S
C89 H92 0.961 . S
H90 C89 0.959 . S
H91 C89 0.960 . S
H92 C89 0.961 . S
O93 Co68 1.967 1_556 S
O93 C101 1.258 . S
O94 Co69 1.941 . S
O94 C101 1.266 1_554 S
H95 C97 0.959 . S
H96 C97 0.961 . S
C97 C87 1.510 . S
C97 H95 0.959 . S
C97 H96 0.961 . S
C97 H98 0.960 . S
H98 C97 0.960 . S
H99 N79 0.862 . S
O100 Co68 1.920 . S
O100 C73 1.289 . S
C101 O93 1.258 . S
C101 O94 1.266 1_556 S
Co102 O105 1.970 . S
Co102 N119 1.989 . S
Co102 O127 1.967 . S
Co102 O134 1.920 . S
Co103 O106 1.966 . S
Co103 N112 2.022 . S
Co103 N120 1.993 . S
Co103 O128 1.941 . S
C104 O105 1.258 . S
C104 O106 1.263 . S
O105 Co102 1.970 . S
O105 C104 1.258 . S
O106 Co103 1.966 . S
O106 C104 1.263 . S
C107 O108 1.235 . S
C107 O134 1.289 . S
O108 C107 1.235 . S
C109 C111 1.400 . S
C109 N112 1.351 . S
C109 C114 1.501 . S
C110 C111 1.387 . S
C110 N113 1.341 . S
C111 C109 1.400 . S
C111 C110 1.387 . S
N112 Co103 2.022 . S
N112 C109 1.351 . S
N112 N113 1.365 . S
N113 C110 1.341 . S
N113 N112 1.365 . S
N113 H133 0.862 . S
C114 C109 1.501 . S
C114 H115 0.961 . S
C114 H116 0.961 . S
C114 H117 0.960 . S
H115 C114 0.961 . S
H116 C114 0.961 . S
H117 C114 0.960 . S
C118 N119 1.342 . S
C118 C122 1.401 . S
C118 C123 1.499 . S
N119 Co102 1.989 . S
N119 C118 1.342 . S
N119 N120 1.388 . S
N120 Co103 1.993 . S
N120 N119 1.388 . S
N120 C121 1.346 . S
C121 N120 1.346 . S
C121 C122 1.396 . S
C121 C131 1.510 . S
C122 C118 1.401 . S
C122 C121 1.396 . S
C123 C118 1.499 . S
C123 H124 0.959 . S
C123 H125 0.960 . S
C123 H126 0.961 . S
H124 C123 0.959 . S
H125 C123 0.960 . S
H126 C123 0.961 . S
O127 Co102 1.967 . S
O127 C135 1.258 . S
O128 Co103 1.941 . S
O128 C135 1.266 . S
H129 C131 0.959 . S
H130 C131 0.961 . S
C131 C121 1.510 . S
C131 H129 0.959 . S
C131 H130 0.961 . S
C131 H132 0.960 . S
H132 C131 0.960 . S
H133 N113 0.862 . S
O134 Co102 1.920 . S
O134 C107 1.289 . S
C135 O127 1.258 . S
C135 O128 1.266 . S
Co136 O139 1.970 . S
Co136 N153 1.989 1_554 S
Co136 O161 1.967 . S
Co136 O168 1.920 . S
Co137 O140 1.966 . S
Co137 N146 2.022 . S
Co137 N154 1.993 1_554 S
Co137 O162 1.941 . S
C138 O139 1.258 . S
C138 O140 1.263 . S
O139 Co136 1.970 . S
O139 C138 1.258 . S
O140 Co137 1.966 . S
O140 C138 1.263 . S
C141 O142 1.235 . S
C141 O168 1.289 . S
O142 C141 1.235 . S
C143 C145 1.400 . S
C143 N146 1.351 . S
C143 C148 1.501 . S
C144 C145 1.387 . S
C144 N147 1.341 . S
C145 C143 1.400 . S
C145 C144 1.387 . S
N146 Co137 2.022 . S
N146 C143 1.351 . S
N146 N147 1.365 . S
N147 C144 1.341 . S
N147 N146 1.365 . S
N147 H167 0.862 1_554 S
C148 C143 1.501 . S
C148 H149 0.961 . S
C148 H150 0.961 . S
C148 H151 0.960 . S
H149 C148 0.961 . S
H150 C148 0.961 . S
H151 C148 0.960 . S
C152 N153 1.342 . S
C152 C156 1.401 . S
C152 C157 1.499 . S
N153 Co136 1.989 1_556 S
N153 C152 1.342 . S
N153 N154 1.388 . S
N154 Co137 1.993 1_556 S
N154 N153 1.388 . S
N154 C155 1.346 . S
C155 N154 1.346 . S
C155 C156 1.396 . S
C155 C165 1.510 . S
C156 C152 1.401 . S
C156 C155 1.396 . S
C157 C152 1.499 . S
C157 H158 0.959 . S
C157 H159 0.960 . S
C157 H160 0.961 . S
H158 C157 0.959 . S
H159 C157 0.960 . S
H160 C157 0.961 . S
O161 Co136 1.967 . S
O161 C169 1.258 . S
O162 Co137 1.941 . S
O162 C169 1.266 . S
H163 C165 0.959 . S
H164 C165 0.961 . S
C165 C155 1.510 . S
C165 H163 0.959 . S
C165 H164 0.961 . S
C165 H166 0.960 . S
H166 C165 0.960 . S
H167 N147 0.862 1_556 S
O168 Co136 1.920 . S
O168 C141 1.289 . S
C169 O161 1.258 . S
C169 O162 1.266 . S
Co170 O173 1.970 . S
Co170 N187 1.989 . S
Co170 O195 1.967 . S
Co170 O202 1.920 . S
Co171 O174 1.966 . S
Co171 N180 2.022 . S
Co171 N188 1.993 . S
Co171 O196 1.941 . S
C172 O173 1.258 . S
C172 O174 1.263 . S
O173 Co170 1.970 . S
O173 C172 1.258 . S
O174 Co171 1.966 . S
O174 C172 1.263 . S
C175 O176 1.235 . S
C175 O202 1.289 . S
O176 C175 1.235 . S
C177 C179 1.400 . S
C177 N180 1.351 . S
C177 C182 1.501 . S
C178 C179 1.387 . S
C178 N181 1.341 . S
C179 C177 1.400 . S
C179 C178 1.387 . S
N180 Co171 2.022 . S
N180 C177 1.351 . S
N180 N181 1.365 . S
N181 C178 1.341 . S
N181 N180 1.365 . S
N181 H201 0.862 . S
C182 C177 1.501 . S
C182 H183 0.961 . S
C182 H184 0.961 . S
C182 H185 0.960 . S
H183 C182 0.961 . S
H184 C182 0.961 . S
H185 C182 0.960 . S
C186 N187 1.342 . S
C186 C190 1.401 . S
C186 C191 1.499 . S
N187 Co170 1.989 . S
N187 C186 1.342 . S
N187 N188 1.388 . S
N188 Co171 1.993 . S
N188 N187 1.388 . S
N188 C189 1.346 . S
C189 N188 1.346 . S
C189 C190 1.396 . S
C189 C199 1.510 . S
C190 C186 1.401 . S
C190 C189 1.396 . S
C191 C186 1.499 . S
C191 H192 0.959 . S
C191 H193 0.960 . S
C191 H194 0.961 . S
H192 C191 0.959 . S
H193 C191 0.960 . S
H194 C191 0.961 . S
O195 Co170 1.967 . S
O195 C203 1.258 . S
O196 Co171 1.941 . S
O196 C203 1.266 . S
H197 C199 0.959 . S
H198 C199 0.961 . S
C199 C189 1.510 . S
C199 H197 0.959 . S
C199 H198 0.961 . S
C199 H200 0.960 . S
H200 C199 0.960 . S
H201 N181 0.862 . S
O202 Co170 1.920 . S
O202 C175 1.289 . S
C203 O195 1.258 . S
C203 O196 1.266 . S
Co204 O207 1.970 . S
Co204 N221 1.989 1_554 S
Co204 O229 1.967 . S
Co204 O236 1.920 . S
Co205 O208 1.966 . S
Co205 N214 2.022 . S
Co205 N222 1.993 1_554 S
Co205 O230 1.941 . S
C206 O207 1.258 . S
C206 O208 1.263 . S
O207 Co204 1.970 . S
O207 C206 1.258 . S
O208 Co205 1.966 . S
O208 C206 1.263 . S
C209 O210 1.235 . S
C209 O236 1.289 . S
O210 C209 1.235 . S
C211 C213 1.400 . S
C211 N214 1.351 . S
C211 C216 1.501 . S
C212 C213 1.387 . S
C212 N215 1.341 . S
C213 C211 1.400 . S
C213 C212 1.387 . S
N214 Co205 2.022 . S
N214 C211 1.351 . S
N214 N215 1.365 . S
N215 C212 1.341 . S
N215 N214 1.365 . S
N215 H235 0.862 1_554 S
C216 C211 1.501 . S
C216 H217 0.961 . S
C216 H218 0.961 . S
C216 H219 0.960 . S
H217 C216 0.961 . S
H218 C216 0.961 . S
H219 C216 0.960 . S
C220 N221 1.342 . S
C220 C224 1.401 . S
C220 C225 1.499 . S
N221 Co204 1.989 1_556 S
N221 C220 1.342 . S
N221 N222 1.388 . S
N222 Co205 1.993 1_556 S
N222 N221 1.388 . S
N222 C223 1.346 . S
C223 N222 1.346 . S
C223 C224 1.396 . S
C223 C233 1.510 . S
C224 C220 1.401 . S
C224 C223 1.396 . S
C225 C220 1.499 . S
C225 H226 0.959 . S
C225 H227 0.960 . S
C225 H228 0.961 . S
H226 C225 0.959 . S
H227 C225 0.960 . S
H228 C225 0.961 . S
O229 Co204 1.967 . S
O229 C237 1.258 . S
O230 Co205 1.941 . S
O230 C237 1.266 . S
H231 C233 0.959 . S
H232 C233 0.961 . S
C233 C223 1.510 . S
C233 H231 0.959 . S
C233 H232 0.961 . S
C233 H234 0.960 . S
H234 C233 0.960 . S
H235 N215 0.862 1_556 S
O236 Co204 1.920 . S
O236 C209 1.289 . S
C237 O229 1.258 . S
C237 O230 1.266 . S
Co238 O241 1.970 . S
Co238 N255 1.989 . S
Co238 O263 1.967 . S
Co238 O270 1.920 . S
Co239 O242 1.966 . S
Co239 N248 2.022 . S
Co239 N256 1.993 . S
Co239 O264 1.941 . S
C240 O241 1.258 . S
C240 O242 1.263 . S
O241 Co238 1.970 . S
O241 C240 1.258 . S
O242 Co239 1.966 . S
O242 C240 1.263 . S
C243 O244 1.235 . S
C243 O270 1.289 . S
O244 C243 1.235 . S
C245 C247 1.400 . S
C245 N248 1.351 . S
C245 C250 1.501 . S
C246 C247 1.387 . S
C246 N249 1.341 . S
C247 C245 1.400 . S
C247 C246 1.387 . S
N248 Co239 2.022 . S
N248 C245 1.351 . S
N248 N249 1.365 . S
N249 C246 1.341 . S
N249 N248 1.365 . S
N249 H269 0.862 . S
C250 C245 1.501 . S
C250 H251 0.961 . S
C250 H252 0.961 . S
C250 H253 0.960 . S
H251 C250 0.961 . S
H252 C250 0.961 . S
H253 C250 0.960 . S
C254 N255 1.342 . S
C254 C258 1.401 . S
C254 C259 1.499 . S
N255 Co238 1.989 . S
N255 C254 1.342 . S
N255 N256 1.388 . S
N256 Co239 1.993 . S
N256 N255 1.388 . S
N256 C257 1.346 . S
C257 N256 1.346 . S
C257 C258 1.396 . S
C257 C267 1.510 . S
C258 C254 1.401 . S
C258 C257 1.396 . S
C259 C254 1.499 . S
C259 H260 0.959 . S
C259 H261 0.960 . S
C259 H262 0.961 . S
H260 C259 0.959 . S
H261 C259 0.960 . S
H262 C259 0.961 . S
O263 Co238 1.967 . S
O263 C271 1.258 . S
O264 Co239 1.941 . S
O264 C271 1.266 . S
H265 C267 0.959 . S
H266 C267 0.961 . S
C267 C257 1.510 . S
C267 H265 0.959 . S
C267 H266 0.961 . S
C267 H268 0.960 . S
H268 C267 0.960 . S
H269 N249 0.862 . S
O270 Co238 1.920 . S
O270 C243 1.289 . S
C271 O263 1.258 . S
C271 O264 1.266 . S
H272 C290 0.951 1_565 S
H273 C292 0.951 . S
H274 C294 0.950 . S
H275 C295 0.950 1_565 S
H276 C297 0.950 . S
H277 C300 0.950 . S
H278 C301 0.950 . S
H279 C303 0.950 . S
H280 C304 0.973 . S
H281 C305 0.951 . S
H282 C307 0.948 1_556 S
H283 C309 0.950 . S
H284 C310 0.950 . S
H285 C312 0.942 1_556 S
H286 C315 0.950 . S
H287 C316 0.950 . S
H288 C318 0.950 . S
H289 C319 0.950 . S
C290 H272 0.951 1_545 S
C290 C291 1.366 1_545 S
C290 C292 1.388 . S
C291 C290 1.366 1_565 S
C291 C295 1.385 1_565 S
C292 H273 0.951 . S
C292 C290 1.388 . S
C292 C293 1.366 . S
C293 C292 1.366 . S
C293 C294 1.414 . S
C293 C296 1.499 . S
C294 H274 0.950 . S
C294 C293 1.414 . S
C294 C295 1.374 . S
C295 H275 0.950 1_545 S
C295 C291 1.385 1_545 S
C295 C294 1.374 . S
C296 C293 1.499 . S
C296 C297 1.373 . S
C296 C298 1.389 . S
C297 H276 0.950 . S
C297 C296 1.373 . S
C297 C313 1.377 . S
C298 C296 1.389 . S
C298 C299 1.524 1_554 S
C298 C312 1.377 . S
C299 C298 1.524 1_556 S
C299 C300 1.397 . S
C299 C304 1.355 1_556 S
C300 H277 0.950 . S
C300 C299 1.397 . S
C300 C301 1.334 . S
C301 H278 0.950 . S
C301 C300 1.334 . S
C301 C302 1.287 . S
C302 C301 1.287 . S
C302 C303 1.524 . S
C302 H321 0.913 . S
C303 H279 0.950 . S
C303 C302 1.524 . S
C303 C304 1.401 1_556 S
C304 H280 0.973 . S
C304 C299 1.355 1_554 S
C304 C303 1.401 1_554 S
C305 H281 0.951 . S
C305 C306 1.366 1_556 S
C305 C307 1.387 1_556 S
C306 C305 1.366 1_554 S
C306 C310 1.385 . S
C307 H282 0.948 1_554 S
C307 C305 1.387 1_554 S
C307 C308 1.369 . S
C308 C307 1.369 . S
C308 C309 1.414 . S
C308 C311 1.499 . S
C309 H283 0.950 . S
C309 C308 1.414 . S
C309 C310 1.374 . S
C310 H284 0.950 . S
C310 C306 1.385 . S
C310 C309 1.374 . S
C311 C308 1.499 . S
C311 C312 1.373 . S
C311 C313 1.389 . S
C312 H285 0.942 1_554 S
C312 C298 1.377 . S
C312 C311 1.373 . S
C313 C297 1.377 . S
C313 C311 1.389 . S
C313 C314 1.524 . S
C314 C313 1.524 . S
C314 C315 1.397 . S
C314 C319 1.363 . S
C315 H286 0.950 . S
C315 C314 1.397 . S
C315 C316 1.334 . S
C316 H287 0.950 . S
C316 C315 1.334 . S
C316 C317 1.287 . S
C317 C316 1.287 . S
C317 C318 1.524 . S
C317 H320 0.999 . S
C318 H288 0.950 . S
C318 C317 1.524 . S
C318 C319 1.415 . S
C319 H289 0.950 . S
C319 C314 1.363 . S
C319 C318 1.415 . S
H320 C317 0.999 . S
H321 C302 0.913 . S
H322 C340 0.947 1_455 S
H323 C342 0.951 . S
H324 C344 0.950 . S
H325 C345 0.950 1_455 S
H326 C347 0.950 . S
H327 C350 0.950 . S
H328 C351 0.950 . S
H329 C353 0.950 . S
H330 C354 0.950 . S
H331 C355 0.951 . S
H332 C357 0.951 . S
H333 C359 0.950 . S
H334 C360 0.950 . S
H335 C362 0.950 . S
H336 C365 0.950 . S
H337 C366 0.950 . S
H338 C368 0.950 . S
H339 C369 0.950 . S
C340 H322 0.947 1_655 S
C340 C341 1.363 1_655 S
C340 C342 1.394 . S
C341 C340 1.363 1_455 S
C341 C345 1.385 1_455 S
C342 H323 0.951 . S
C342 C340 1.394 . S
C342 C343 1.366 . S
C343 C342 1.366 . S
C343 C344 1.414 . S
C343 C346 1.499 . S
C344 H324 0.950 . S
C344 C343 1.414 . S
C344 C345 1.374 . S
C345 H325 0.950 1_655 S
C345 C341 1.385 1_655 S
C345 C344 1.374 . S
C346 C343 1.499 . S
C346 C347 1.373 . S
C346 C348 1.389 . S
C347 H326 0.950 . S
C347 C346 1.373 . S
C347 C363 1.377 . S
C348 C346 1.389 . S
C348 C349 1.524 . S
C348 C362 1.377 . S
C349 C348 1.524 . S
C349 C350 1.397 . S
C349 C354 1.363 . S
C350 H327 0.950 . S
C350 C349 1.397 . S
C350 C351 1.334 . S
C351 H328 0.950 . S
C351 C350 1.334 . S
C351 C352 1.287 . S
C352 C351 1.287 . S
C352 C353 1.524 . S
C352 H371 0.913 . S
C353 H329 0.950 . S
C353 C352 1.524 . S
C353 C354 1.415 . S
C354 H330 0.950 . S
C354 C349 1.363 . S
C354 C353 1.415 . S
C355 H331 0.951 . S
C355 C356 1.366 . S
C355 C357 1.388 . S
C356 C355 1.366 . S
C356 C360 1.385 . S
C357 H332 0.951 . S
C357 C355 1.388 . S
C357 C358 1.366 . S
C358 C357 1.366 . S
C358 C359 1.414 . S
C358 C361 1.499 . S
C359 H333 0.950 . S
C359 C358 1.414 . S
C359 C360 1.374 . S
C360 H334 0.950 . S
C360 C356 1.385 . S
C360 C359 1.374 . S
C361 C358 1.499 . S
C361 C362 1.373 . S
C361 C363 1.389 . S
C362 H335 0.950 . S
C362 C348 1.377 . S
C362 C361 1.373 . S
C363 C347 1.377 . S
C363 C361 1.389 . S
C363 C364 1.524 . S
C364 C363 1.524 . S
C364 C365 1.397 . S
C364 C369 1.363 . S
C365 H336 0.950 . S
C365 C364 1.397 . S
C365 C366 1.334 . S
C366 H337 0.950 . S
C366 C365 1.334 . S
C366 C367 1.287 . S
C367 C366 1.287 . S
C367 C368 1.524 . S
C367 H370 0.999 . S
C368 H338 0.950 . S
C368 C367 1.524 . S
C368 C369 1.415 . S
C369 H339 0.950 . S
C369 C364 1.363 . S
C369 C368 1.415 . S
H370 C367 0.999 . S
H371 C352 0.913 . S
H372 C390 0.951 1_545 S
H373 C392 0.951 . S
H374 C394 0.969 . S
H375 C395 0.950 1_546 S
H376 C397 0.950 . S
H377 C400 0.950 1_556 S
H378 C401 0.950 1_556 S
H379 C403 0.950 . S
H380 C404 0.950 . S
H381 C405 0.951 . S
H382 C407 0.951 . S
H383 C409 0.950 . S
H384 C410 0.950 . S
H385 C412 0.950 . S
H386 C415 0.950 . S
H387 C416 0.950 . S
H388 C418 0.950 . S
H389 C419 0.950 . S
C390 H372 0.951 1_565 S
C390 C391 1.366 1_565 S
C390 C392 1.388 . S
C391 C390 1.366 1_545 S
C391 C395 1.385 1_545 S
C392 H373 0.951 . S
C392 C390 1.388 . S
C392 C393 1.366 . S
C393 C392 1.366 . S
C393 C394 1.397 1_554 S
C393 C396 1.499 . S
C394 H374 0.969 . S
C394 C393 1.397 1_556 S
C394 C395 1.372 1_556 S
C395 H375 0.950 1_564 S
C395 C391 1.385 1_565 S
C395 C394 1.372 1_554 S
C396 C393 1.499 . S
C396 C397 1.373 . S
C396 C398 1.389 . S
C397 H376 0.950 . S
C397 C396 1.373 . S
C397 C413 1.377 . S
C398 C396 1.389 . S
C398 C399 1.524 . S
C398 C412 1.377 . S
C399 C398 1.524 . S
C399 C400 1.397 . S
C399 C404 1.363 . S
C400 H377 0.950 1_554 S
C400 C399 1.397 . S
C400 C401 1.334 . S
C401 H378 0.950 1_554 S
C401 C400 1.334 . S
C401 C402 1.287 . S
C402 C401 1.287 . S
C402 C403 1.524 . S
C402 H421 0.913 . S
C403 H379 0.950 . S
C403 C402 1.524 . S
C403 C404 1.415 . S
C404 H380 0.950 . S
C404 C399 1.363 . S
C404 C403 1.415 . S
C405 H381 0.951 . S
C405 C406 1.366 1_556 S
C405 C407 1.388 . S
C406 C405 1.366 1_554 S
C406 C410 1.385 . S
C407 H382 0.951 . S
C407 C405 1.388 . S
C407 C408 1.366 1_556 S
C408 C407 1.366 1_554 S
C408 C409 1.414 . S
C408 C411 1.499 . S
C409 H383 0.950 . S
C409 C408 1.414 . S
C409 C410 1.374 . S
C410 H384 0.950 . S
C410 C406 1.385 . S
C410 C409 1.374 . S
C411 C408 1.499 . S
C411 C412 1.373 . S
C411 C413 1.389 . S
C412 H385 0.950 . S
C412 C398 1.377 . S
C412 C411 1.373 . S
C413 C397 1.377 . S
C413 C411 1.389 . S
C413 C414 1.524 . S
C414 C413 1.524 . S
C414 C415 1.397 . S
C414 C419 1.363 1_554 S
C415 H386 0.950 . S
C415 C414 1.397 . S
C415 C416 1.334 . S
C416 H387 0.950 . S
C416 C415 1.334 . S
C416 C417 1.287 . S
C417 C416 1.287 . S
C417 C418 1.524 1_554 S
C417 H420 0.996 1_554 S
C418 H388 0.950 . S
C418 C417 1.524 1_556 S
C418 C419 1.415 . S
C419 H389 0.950 . S
C419 C414 1.363 1_556 S
C419 C418 1.415 . S
H420 C417 0.996 1_556 S
H421 C402 0.913 . S
H422 C440 0.951 1_655 S
H423 C442 0.951 . S
H424 C444 0.950 . S
H425 C445 0.950 1_655 S
H426 C447 0.950 . S
H427 C450 0.950 . S
H428 C451 0.950 . S
H429 C453 0.950 . S
H430 C454 0.950 . S
H431 C455 0.951 . S
H432 C457 0.951 . S
H433 C459 0.950 . S
H434 C460 0.950 . S
H435 C462 0.950 . S
H436 C465 0.950 . S
H437 C466 0.950 . S
H438 C468 0.950 . S
H439 C469 0.950 . S
C440 H422 0.951 1_455 S
C440 C441 1.366 1_455 S
C440 C442 1.388 . S
C441 C440 1.366 1_655 S
C441 C445 1.385 1_655 S
C442 H423 0.951 . S
C442 C440 1.388 . S
C442 C443 1.366 . S
C443 C442 1.366 . S
C443 C444 1.414 . S
C443 C446 1.499 . S
C444 H424 0.950 . S
C444 C443 1.414 . S
C444 C445 1.374 . S
C445 H425 0.950 1_455 S
C445 C441 1.385 1_455 S
C445 C444 1.374 . S
C446 C443 1.499 . S
C446 C447 1.373 . S
C446 C448 1.389 . S
C447 H426 0.950 . S
C447 C446 1.373 . S
C447 C463 1.377 . S
C448 C446 1.389 . S
C448 C449 1.524 . S
C448 C462 1.377 . S
C449 C448 1.524 . S
C449 C450 1.397 . S
C449 C454 1.363 . S
C450 H427 0.950 . S
C450 C449 1.397 . S
C450 C451 1.334 . S
C451 H428 0.950 . S
C451 C450 1.334 . S
C451 C452 1.287 . S
C452 C451 1.287 . S
C452 C453 1.524 . S
C452 H471 0.913 . S
C453 H429 0.950 . S
C453 C452 1.524 . S
C453 C454 1.415 . S
C454 H430 0.950 . S
C454 C449 1.363 . S
C454 C453 1.415 . S
C455 H431 0.951 . S
C455 C456 1.366 . S
C455 C457 1.388 . S
C456 C455 1.366 . S
C456 C460 1.385 . S
C457 H432 0.951 . S
C457 C455 1.388 . S
C457 C458 1.366 . S
C458 C457 1.366 . S
C458 C459 1.414 . S
C458 C461 1.499 . S
C459 H433 0.950 . S
C459 C458 1.414 . S
C459 C460 1.374 . S
C460 H434 0.950 . S
C460 C456 1.385 . S
C460 C459 1.374 . S
C461 C458 1.499 . S
C461 C462 1.373 . S
C461 C463 1.389 . S
C462 H435 0.950 . S
C462 C448 1.377 . S
C462 C461 1.373 . S
C463 C447 1.377 . S
C463 C461 1.389 . S
C463 C464 1.524 . S
C464 C463 1.524 . S
C464 C465 1.397 . S
C464 C469 1.363 . S
C465 H436 0.950 . S
C465 C464 1.397 . S
C465 C466 1.334 . S
C466 H437 0.950 . S
C466 C465 1.334 . S
C466 C467 1.287 . S
C467 C466 1.287 . S
C467 C468 1.524 . S
C467 H470 0.999 . S
C468 H438 0.950 . S
C468 C467 1.524 . S
C468 C469 1.415 . S
C469 H439 0.950 . S
C469 C464 1.363 . S
C469 C468 1.415 . S
H470 C467 0.999 . S
H471 C452 0.913 . S
H472 C490 0.951 1_556 S
H473 C492 0.951 . S
H474 C494 0.950 . S
H475 C495 0.950 . S
H476 C497 0.950 1_556 S
H477 C500 0.950 . S
H478 C501 0.950 . S
H479 C503 0.950 . S
H480 C504 0.950 . S
H481 C505 0.951 . S
H482 C507 0.951 . S
H483 C509 0.950 . S
H484 C510 0.950 . S
H485 C512 0.950 . S
H486 C515 0.950 . S
H487 C516 0.950 . S
H488 C518 0.950 . S
H489 C519 0.936 1_554 S
C490 H472 0.951 1_554 S
C490 C491 1.366 . S
C490 C492 1.388 . S
C491 C490 1.366 . S
C491 C495 1.385 . S
C492 H473 0.951 . S
C492 C490 1.388 . S
C492 C493 1.366 . S
C493 C492 1.366 . S
C493 C494 1.414 . S
C493 C496 1.499 . S
C494 H474 0.950 . S
C494 C493 1.414 . S
C494 C495 1.374 . S
C495 H475 0.950 . S
C495 C491 1.385 . S
C495 C494 1.374 . S
C496 C493 1.499 . S
C496 C497 1.373 . S
C496 C498 1.389 . S
C497 H476 0.950 1_554 S
C497 C496 1.373 . S
C497 C513 1.377 . S
C498 C496 1.389 . S
C498 C499 1.524 . S
C498 C512 1.377 . S
C499 C498 1.524 . S
C499 C500 1.397 . S
C499 C504 1.363 . S
C500 H477 0.950 . S
C500 C499 1.397 . S
C500 C501 1.334 . S
C501 H478 0.950 . S
C501 C500 1.334 . S
C501 C502 1.287 . S
C502 C501 1.287 . S
C502 C503 1.524 . S
C502 H521 0.913 . S
C503 H479 0.950 . S
C503 C502 1.524 . S
C503 C504 1.415 . S
C504 H480 0.950 . S
C504 C499 1.363 . S
C504 C503 1.415 . S
C505 H481 0.951 . S
C505 C506 1.366 . S
C505 C507 1.388 . S
C506 C505 1.366 . S
C506 C510 1.385 . S
C507 H482 0.951 . S
C507 C505 1.388 . S
C507 C508 1.366 . S
C508 C507 1.366 . S
C508 C509 1.414 . S
C508 C511 1.499 . S
C509 H483 0.950 . S
C509 C508 1.414 . S
C509 C510 1.374 . S
C510 H484 0.950 . S
C510 C506 1.385 . S
C510 C509 1.374 . S
C511 C508 1.499 . S
C511 C512 1.373 . S
C511 C513 1.389 . S
C512 H485 0.950 . S
C512 C498 1.377 . S
C512 C511 1.373 . S
C513 C497 1.377 . S
C513 C511 1.389 . S
C513 C514 1.524 1_554 S
C514 C513 1.524 1_556 S
C514 C515 1.397 . S
C514 C519 1.363 . S
C515 H486 0.950 . S
C515 C514 1.397 . S
C515 C516 1.334 . S
C516 H487 0.950 . S
C516 C515 1.334 . S
C516 C517 1.287 . S
C517 C516 1.287 . S
C517 C518 1.524 . S
C517 H520 0.999 . S
C518 H488 0.950 . S
C518 C517 1.524 . S
C518 C519 1.415 . S
C519 H489 0.936 1_556 S
C519 C514 1.363 . S
C519 C518 1.415 . S
H520 C517 0.999 . S
H521 C502 0.913 . S
H522 C540 0.951 . S
H523 C542 0.951 . S
H524 C544 0.950 . S
H525 C545 0.950 . S
H526 C547 0.950 . S
H527 C550 0.950 . S
H528 C551 0.950 . S
H529 C553 0.950 . S
H530 C554 0.950 . S
H531 C555 0.951 . S
H532 C557 0.951 . S
H533 C559 0.950 . S
H534 C560 0.950 . S
H535 C562 0.950 . S
H536 C565 0.950 . S
H537 C566 0.950 . S
H538 C568 0.950 . S
H539 C569 0.950 . S
C540 H522 0.951 . S
C540 C541 1.366 . S
C540 C542 1.388 . S
C541 C540 1.366 . S
C541 C545 1.385 . S
C542 H523 0.951 . S
C542 C540 1.388 . S
C542 C543 1.366 . S
C543 C542 1.366 . S
C543 C544 1.414 . S
C543 C546 1.499 . S
C544 H524 0.950 . S
C544 C543 1.414 . S
C544 C545 1.374 . S
C545 H525 0.950 . S
C545 C541 1.385 . S
C545 C544 1.374 . S
C546 C543 1.499 . S
C546 C547 1.373 . S
C546 C548 1.389 . S
C547 H526 0.950 . S
C547 C546 1.373 . S
C547 C563 1.377 . S
C548 C546 1.389 . S
C548 C549 1.524 . S
C548 C562 1.377 . S
C549 C548 1.524 . S
C549 C550 1.397 . S
C549 C554 1.363 . S
C550 H527 0.950 . S
C550 C549 1.397 . S
C550 C551 1.334 . S
C551 H528 0.950 . S
C551 C550 1.334 . S
C551 C552 1.287 . S
C552 C551 1.287 . S
C552 C553 1.524 . S
C552 H571 0.913 . S
C553 H529 0.950 . S
C553 C552 1.524 . S
C553 C554 1.415 . S
C554 H530 0.950 . S
C554 C549 1.363 . S
C554 C553 1.415 . S
C555 H531 0.951 . S
C555 C556 1.366 . S
C555 C557 1.388 . S
C556 C555 1.366 . S
C556 C560 1.385 . S
C557 H532 0.951 . S
C557 C555 1.388 . S
C557 C558 1.366 . S
C558 C557 1.366 . S
C558 C559 1.414 . S
C558 C561 1.499 . S
C559 H533 0.950 . S
C559 C558 1.414 . S
C559 C560 1.374 . S
C560 H534 0.950 . S
C560 C556 1.385 . S
C560 C559 1.374 . S
C561 C558 1.499 . S
C561 C562 1.373 . S
C561 C563 1.389 . S
C562 H535 0.950 . S
C562 C548 1.377 . S
C562 C561 1.373 . S
C563 C547 1.377 . S
C563 C561 1.389 . S
C563 C564 1.524 . S
C564 C563 1.524 . S
C564 C565 1.397 . S
C564 C569 1.363 . S
C565 H536 0.950 . S
C565 C564 1.397 . S
C565 C566 1.334 . S
C566 H537 0.950 . S
C566 C565 1.334 . S
C566 C567 1.287 . S
C567 C566 1.287 . S
C567 C568 1.524 . S
C567 H570 0.999 . S
C568 H538 0.950 . S
C568 C567 1.524 . S
C568 C569 1.415 . S
C569 H539 0.950 . S
C569 C564 1.363 . S
C569 C568 1.415 . S
H570 C567 0.999 . S
H571 C552 0.913 . S
H572 C590 0.951 . S
H573 C592 0.951 . S
H574 C594 0.950 . S
H575 C595 0.950 . S
H576 C597 0.950 . S
H577 C600 0.950 . S
H578 C601 0.950 . S
H579 C603 0.950 . S
H580 C604 0.950 . S
H581 C605 0.951 . S
H582 C607 0.951 . S
H583 C609 0.950 . S
H584 C610 0.950 . S
H585 C612 0.950 . S
H586 C615 0.950 . S
H587 C616 0.950 . S
H588 C618 0.950 . S
H589 C619 0.950 . S
C590 H572 0.951 . S
C590 C591 1.366 1_556 S
C590 C592 1.388 . S
C591 C590 1.366 1_554 S
C591 C595 1.385 . S
C592 H573 0.951 . S
C592 C590 1.388 . S
C592 C593 1.366 1_556 S
C593 C592 1.366 1_554 S
C593 C594 1.414 . S
C593 C596 1.499 . S
C594 H574 0.950 . S
C594 C593 1.414 . S
C594 C595 1.374 . S
C595 H575 0.950 . S
C595 C591 1.385 . S
C595 C594 1.374 . S
C596 C593 1.499 . S
C596 C597 1.373 . S
C596 C598 1.389 1_554 S
C597 H576 0.950 . S
C597 C596 1.373 . S
C597 C613 1.377 . S
C598 C596 1.389 1_556 S
C598 C599 1.524 . S
C598 C612 1.377 . S
C599 C598 1.524 . S
C599 C600 1.397 . S
C599 C604 1.363 . S
C600 H577 0.950 . S
C600 C599 1.397 . S
C600 C601 1.334 . S
C601 H578 0.950 . S
C601 C600 1.334 . S
C601 C602 1.287 . S
C602 C601 1.287 . S
C602 C603 1.524 . S
C602 H621 0.913 . S
C603 H579 0.950 . S
C603 C602 1.524 . S
C603 C604 1.415 . S
C604 H580 0.950 . S
C604 C599 1.363 . S
C604 C603 1.415 . S
C605 H581 0.951 . S
C605 C606 1.366 . S
C605 C607 1.388 . S
C606 C605 1.366 . S
C606 C610 1.385 . S
C607 H582 0.951 . S
C607 C605 1.388 . S
C607 C608 1.366 . S
C608 C607 1.366 . S
C608 C609 1.414 . S
C608 C611 1.499 . S
C609 H583 0.950 . S
C609 C608 1.414 . S
C609 C610 1.374 . S
C610 H584 0.950 . S
C610 C606 1.385 . S
C610 C609 1.374 . S
C611 C608 1.499 . S
C611 C612 1.373 1_554 S
C611 C613 1.389 . S
C612 H585 0.950 . S
C612 C598 1.377 . S
C612 C611 1.373 1_556 S
C613 C597 1.377 . S
C613 C611 1.389 . S
C613 C614 1.524 . S
C614 C613 1.524 . S
C614 C615 1.397 . S
C614 C619 1.363 . S
C615 H586 0.950 . S
C615 C614 1.397 . S
C615 C616 1.334 . S
C616 H587 0.950 . S
C616 C615 1.334 . S
C616 C617 1.287 . S
C617 C616 1.287 . S
C617 C618 1.524 . S
C617 H620 0.999 . S
C618 H588 0.950 . S
C618 C617 1.524 . S
C618 C619 1.415 . S
C619 H589 0.950 . S
C619 C614 1.363 . S
C619 C618 1.415 . S
H620 C617 0.999 . S
H621 C602 0.913 . S
H622 C640 0.951 . S
H623 C642 0.951 . S
H624 C644 0.950 . S
H625 C645 0.950 . S
H626 C647 0.950 . S
H627 C650 0.950 . S
H628 C651 0.950 . S
H629 C653 0.950 . S
H630 C654 0.950 . S
H631 C655 0.951 . S
H632 C657 0.951 . S
H633 C659 0.950 . S
H634 C660 0.950 . S
H635 C662 0.950 . S
H636 C665 0.950 . S
H637 C666 0.950 . S
H638 C668 0.950 . S
H639 C669 0.950 . S
C640 H622 0.951 . S
C640 C641 1.366 . S
C640 C642 1.388 . S
C641 C640 1.366 . S
C641 C645 1.385 . S
C642 H623 0.951 . S
C642 C640 1.388 . S
C642 C643 1.366 . S
C643 C642 1.366 . S
C643 C644 1.414 . S
C643 C646 1.499 . S
C644 H624 0.950 . S
C644 C643 1.414 . S
C644 C645 1.374 . S
C645 H625 0.950 . S
C645 C641 1.385 . S
C645 C644 1.374 . S
C646 C643 1.499 . S
C646 C647 1.373 . S
C646 C648 1.389 . S
C647 H626 0.950 . S
C647 C646 1.373 . S
C647 C663 1.377 . S
C648 C646 1.389 . S
C648 C649 1.524 . S
C648 C662 1.377 . S
C649 C648 1.524 . S
C649 C650 1.397 . S
C649 C654 1.363 . S
C650 H627 0.950 . S
C650 C649 1.397 . S
C650 C651 1.334 . S
C651 H628 0.950 . S
C651 C650 1.334 . S
C651 C652 1.287 . S
C652 C651 1.287 . S
C652 C653 1.524 . S
C652 H671 0.913 . S
C653 H629 0.950 . S
C653 C652 1.524 . S
C653 C654 1.415 . S
C654 H630 0.950 . S
C654 C649 1.363 . S
C654 C653 1.415 . S
C655 H631 0.951 . S
C655 C656 1.366 . S
C655 C657 1.388 . S
C656 C655 1.366 . S
C656 C660 1.385 . S
C657 H632 0.951 . S
C657 C655 1.388 . S
C657 C658 1.366 . S
C658 C657 1.366 . S
C658 C659 1.414 . S
C658 C661 1.499 . S
C659 H633 0.950 . S
C659 C658 1.414 . S
C659 C660 1.374 . S
C660 H634 0.950 . S
C660 C656 1.385 . S
C660 C659 1.374 . S
C661 C658 1.499 . S
C661 C662 1.373 . S
C661 C663 1.389 . S
C662 H635 0.950 . S
C662 C648 1.377 . S
C662 C661 1.373 . S
C663 C647 1.377 . S
C663 C661 1.389 . S
C663 C664 1.524 . S
C664 C663 1.524 . S
C664 C665 1.397 . S
C664 C669 1.363 . S
C665 H636 0.950 . S
C665 C664 1.397 . S
C665 C666 1.334 . S
C666 H637 0.950 . S
C666 C665 1.334 . S
C666 C667 1.287 . S
C667 C666 1.287 . S
C667 C668 1.524 . S
C667 H670 0.999 . S
C668 H638 0.950 . S
C668 C667 1.524 . S
C668 C669 1.415 . S
C669 H639 0.950 . S
C669 C664 1.363 . S
C669 C668 1.415 . S
H670 C667 0.999 . S
H671 C652 0.913 . S
H672 C690 0.951 . S
H673 C692 0.951 . S
H674 C694 0.950 . S
H675 C695 0.950 . S
H676 C697 0.950 . S
H677 C700 0.950 . S
H678 C701 0.950 . S
H679 C703 0.950 . S
H680 C704 0.950 . S
H681 C705 0.953 . S
H682 C707 0.950 1_554 S
H683 C709 0.950 . S
H684 C710 0.950 . S
H685 C712 0.950 . S
H686 C715 0.950 . S
H687 C716 0.950 . S
H688 C718 0.950 . S
H689 C719 0.950 . S
C690 H672 0.951 . S
C690 C691 1.366 . S
C690 C692 1.388 . S
C691 C690 1.366 . S
C691 C695 1.385 . S
C692 H673 0.951 . S
C692 C690 1.388 . S
C692 C693 1.366 . S
C693 C692 1.366 . S
C693 C694 1.414 . S
C693 C696 1.499 . S
C694 H674 0.950 . S
C694 C693 1.414 . S
C694 C695 1.374 . S
C695 H675 0.950 . S
C695 C691 1.385 . S
C695 C694 1.374 . S
C696 C693 1.499 . S
C696 C697 1.373 1_556 S
C696 C698 1.389 . S
C697 H676 0.950 . S
C697 C696 1.373 1_554 S
C697 C713 1.377 . S
C698 C696 1.389 . S
C698 C699 1.524 . S
C698 C712 1.377 . S
C699 C698 1.524 . S
C699 C700 1.397 . S
C699 C704 1.363 . S
C700 H677 0.950 . S
C700 C699 1.397 . S
C700 C701 1.334 . S
C701 H678 0.950 . S
C701 C700 1.334 . S
C701 C702 1.287 . S
C702 C701 1.287 . S
C702 C703 1.524 . S
C702 H721 0.913 . S
C703 H679 0.950 . S
C703 C702 1.524 . S
C703 C704 1.415 . S
C704 H680 0.950 . S
C704 C699 1.363 . S
C704 C703 1.415 . S
C705 H681 0.953 . S
C705 C706 1.366 . S
C705 C707 1.388 . S
C706 C705 1.366 . S
C706 C710 1.385 . S
C707 H682 0.950 1_556 S
C707 C705 1.388 . S
C707 C708 1.366 . S
C708 C707 1.366 . S
C708 C709 1.414 . S
C708 C711 1.499 . S
C709 H683 0.950 . S
C709 C708 1.414 . S
C709 C710 1.374 . S
C710 H684 0.950 . S
C710 C706 1.385 . S
C710 C709 1.374 . S
C711 C708 1.499 . S
C711 C712 1.373 . S
C711 C713 1.389 1_556 S
C712 H685 0.950 . S
C712 C698 1.377 . S
C712 C711 1.373 . S
C713 C697 1.377 . S
C713 C711 1.389 1_554 S
C713 C714 1.524 . S
C714 C713 1.524 . S
C714 C715 1.397 . S
C714 C719 1.363 . S
C715 H686 0.950 . S
C715 C714 1.397 . S
C715 C716 1.334 . S
C716 H687 0.950 . S
C716 C715 1.334 . S
C716 C717 1.287 . S
C717 C716 1.287 . S
C717 C718 1.524 . S
C717 H720 0.999 . S
C718 H688 0.950 . S
C718 C717 1.524 . S
C718 C719 1.415 . S
C719 H689 0.950 . S
C719 C714 1.363 . S
C719 C718 1.415 . S
H720 C717 0.999 . S
H721 C702 0.913 . S
H722 C740 0.951 . S
H723 C742 0.951 . S
H724 C744 0.950 . S
H725 C745 0.950 . S
H726 C747 0.950 . S
H727 C750 0.950 . S
H728 C751 0.950 . S
H729 C753 0.950 . S
H730 C754 0.950 . S
H731 C755 0.951 . S
H732 C757 0.951 . S
H733 C759 0.950 . S
H734 C760 0.950 . S
H735 C762 0.950 . S
H736 C765 0.950 . S
H737 C766 0.950 . S
H738 C768 0.950 . S
H739 C769 0.950 . S
C740 H722 0.951 . S
C740 C741 1.366 . S
C740 C742 1.388 . S
C741 C740 1.366 . S
C741 C745 1.385 . S
C742 H723 0.951 . S
C742 C740 1.388 . S
C742 C743 1.366 . S
C743 C742 1.366 . S
C743 C744 1.414 . S
C743 C746 1.499 . S
C744 H724 0.950 . S
C744 C743 1.414 . S
C744 C745 1.374 . S
C745 H725 0.950 . S
C745 C741 1.385 . S
C745 C744 1.374 . S
C746 C743 1.499 . S
C746 C747 1.373 . S
C746 C748 1.389 . S
C747 H726 0.950 . S
C747 C746 1.373 . S
C747 C763 1.377 . S
C748 C746 1.389 . S
C748 C749 1.524 . S
C748 C762 1.377 . S
C749 C748 1.524 . S
C749 C750 1.397 . S
C749 C754 1.363 . S
C750 H727 0.950 . S
C750 C749 1.397 . S
C750 C751 1.334 . S
C751 H728 0.950 . S
C751 C750 1.334 . S
C751 C752 1.287 . S
C752 C751 1.287 . S
C752 C753 1.524 . S
C752 H771 0.913 . S
C753 H729 0.950 . S
C753 C752 1.524 . S
C753 C754 1.415 . S
C754 H730 0.950 . S
C754 C749 1.363 . S
C754 C753 1.415 . S
C755 H731 0.951 . S
C755 C756 1.366 . S
C755 C757 1.388 . S
C756 C755 1.366 . S
C756 C760 1.385 . S
C757 H732 0.951 . S
C757 C755 1.388 . S
C757 C758 1.366 . S
C758 C757 1.366 . S
C758 C759 1.414 . S
C758 C761 1.499 . S
C759 H733 0.950 . S
C759 C758 1.414 . S
C759 C760 1.374 . S
C760 H734 0.950 . S
C760 C756 1.385 . S
C760 C759 1.374 . S
C761 C758 1.499 . S
C761 C762 1.373 . S
C761 C763 1.389 . S
C762 H735 0.950 . S
C762 C748 1.377 . S
C762 C761 1.373 . S
C763 C747 1.377 . S
C763 C761 1.389 . S
C763 C764 1.524 . S
C764 C763 1.524 . S
C764 C765 1.397 . S
C764 C769 1.363 . S
C765 H736 0.950 . S
C765 C764 1.397 . S
C765 C766 1.334 . S
C766 H737 0.950 . S
C766 C765 1.334 . S
C766 C767 1.287 . S
C767 C766 1.287 . S
C767 C768 1.524 . S
C767 H770 0.999 . S
C768 H738 0.950 . S
C768 C767 1.524 . S
C768 C769 1.415 . S
C769 H739 0.950 . S
C769 C764 1.363 . S
C769 C768 1.415 . S
H770 C767 0.999 . S
H771 C752 0.913 . S
H772 C790 0.951 . S
H773 C792 0.951 . S
H774 C794 0.950 1_545 S
H775 C795 0.950 . S
H776 C797 0.950 . S
H777 C800 0.950 . S
H778 C801 0.950 . S
H779 C803 0.950 . S
H780 C804 0.950 1_554 S
H781 C805 0.951 . S
H782 C807 0.951 . S
H783 C809 0.950 1_565 S
H784 C810 0.950 . S
H785 C812 0.950 . S
H786 C815 0.950 . S
H787 C816 0.950 . S
H788 C818 0.950 . S
H789 C819 0.950 . S
C790 H772 0.951 . S
C790 C791 1.366 . S
C790 C792 1.388 . S
C791 C790 1.366 . S
C791 C795 1.385 . S
C792 H773 0.951 . S
C792 C790 1.388 . S
C792 C793 1.366 . S
C793 C792 1.366 . S
C793 C794 1.414 . S
C793 C796 1.499 . S
C794 H774 0.950 1_565 S
C794 C793 1.414 . S
C794 C795 1.374 . S
C795 H775 0.950 . S
C795 C791 1.385 . S
C795 C794 1.374 . S
C796 C793 1.499 . S
C796 C797 1.373 1_565 S
C796 C798 1.389 . S
C797 H776 0.950 . S
C797 C796 1.373 1_545 S
C797 C813 1.377 1_455 S
C798 C796 1.389 . S
C798 C799 1.524 1_554 S
C798 C812 1.377 1_455 S
C799 C798 1.524 1_556 S
C799 C800 1.397 . S
C799 C804 1.363 1_455 S
C800 H777 0.950 . S
C800 C799 1.397 . S
C800 C801 1.334 . S
C801 H778 0.950 . S
C801 C800 1.334 . S
C801 C802 1.287 . S
C802 C801 1.287 . S
C802 C803 1.524 1_455 S
C802 H821 0.913 . S
C803 H779 0.950 . S
C803 C802 1.524 1_655 S
C803 C804 1.415 . S
C804 H780 0.950 1_556 S
C804 C799 1.363 1_655 S
C804 C803 1.415 . S
C805 H781 0.951 . S
C805 C806 1.366 . S
C805 C807 1.388 . S
C806 C805 1.366 . S
C806 C810 1.385 . S
C807 H782 0.951 . S
C807 C805 1.388 . S
C807 C808 1.366 . S
C808 C807 1.366 . S
C808 C809 1.414 . S
C808 C811 1.499 . S
C809 H783 0.950 1_545 S
C809 C808 1.414 . S
C809 C810 1.374 . S
C810 H784 0.950 . S
C810 C806 1.385 . S
C810 C809 1.374 . S
C811 C808 1.499 . S
C811 C812 1.373 1_545 S
C811 C813 1.389 . S
C812 H785 0.950 . S
C812 C798 1.377 1_655 S
C812 C811 1.373 1_565 S
C813 C797 1.377 1_655 S
C813 C811 1.389 . S
C813 C814 1.524 . S
C814 C813 1.524 . S
C814 C815 1.397 . S
C814 C819 1.363 1_655 S
C815 H786 0.950 . S
C815 C814 1.397 . S
C815 C816 1.334 . S
C816 H787 0.950 . S
C816 C815 1.334 . S
C816 C817 1.287 . S
C817 C816 1.287 . S
C817 C818 1.524 1_655 S
C817 H820 0.999 . S
C818 H788 0.950 . S
C818 C817 1.524 1_455 S
C818 C819 1.415 . S
C819 H789 0.950 . S
C819 C814 1.363 1_455 S
C819 C818 1.415 . S
H820 C817 0.999 . S
H821 C802 0.913 . S
H822 C840 0.951 . S
H823 C842 0.951 . S
H824 C844 0.950 . S
H825 C845 0.950 . S
H826 C847 0.950 . S
H827 C850 0.950 . S
H828 C851 0.950 . S
H829 C853 0.950 . S
H830 C854 0.950 . S
H831 C855 0.951 . S
H832 C857 0.951 . S
H833 C859 0.950 . S
H834 C860 0.950 . S
H835 C862 0.950 . S
H836 C865 0.950 . S
H837 C866 0.950 . S
H838 C868 0.950 . S
H839 C869 0.950 . S
C840 H822 0.951 . S
C840 C841 1.366 . S
C840 C842 1.388 . S
C841 C840 1.366 . S
C841 C845 1.385 . S
C842 H823 0.951 . S
C842 C840 1.388 . S
C842 C843 1.366 . S
C843 C842 1.366 . S
C843 C844 1.414 . S
C843 C846 1.499 . S
C844 H824 0.950 . S
C844 C843 1.414 . S
C844 C845 1.374 . S
C845 H825 0.950 . S
C845 C841 1.385 . S
C845 C844 1.374 . S
C846 C843 1.499 . S
C846 C847 1.373 . S
C846 C848 1.389 1_655 S
C847 H826 0.950 . S
C847 C846 1.373 . S
C847 C863 1.377 1_565 S
C848 C846 1.389 1_455 S
C848 C849 1.524 . S
C848 C862 1.377 1_565 S
C849 C848 1.524 . S
C849 C850 1.397 . S
C849 C854 1.363 . S
C850 H827 0.950 . S
C850 C849 1.397 . S
C850 C851 1.334 . S
C851 H828 0.950 . S
C851 C850 1.334 . S
C851 C852 1.287 . S
C852 C851 1.287 . S
C852 C853 1.524 . S
C852 H871 0.913 . S
C853 H829 0.950 . S
C853 C852 1.524 . S
C853 C854 1.415 . S
C854 H830 0.950 . S
C854 C849 1.363 . S
C854 C853 1.415 . S
C855 H831 0.951 . S
C855 C856 1.366 . S
C855 C857 1.388 . S
C856 C855 1.366 . S
C856 C860 1.385 . S
C857 H832 0.951 . S
C857 C855 1.388 . S
C857 C858 1.366 . S
C858 C857 1.366 . S
C858 C859 1.414 . S
C858 C861 1.499 . S
C859 H833 0.950 . S
C859 C858 1.414 . S
C859 C860 1.374 . S
C860 H834 0.950 . S
C860 C856 1.385 . S
C860 C859 1.374 . S
C861 C858 1.499 . S
C861 C862 1.373 . S
C861 C863 1.389 1_455 S
C862 H835 0.950 . S
C862 C848 1.377 1_545 S
C862 C861 1.373 . S
C863 C847 1.377 1_545 S
C863 C861 1.389 1_655 S
C863 C864 1.524 . S
C864 C863 1.524 . S
C864 C865 1.397 . S
C864 C869 1.363 . S
C865 H836 0.950 . S
C865 C864 1.397 . S
C865 C866 1.334 . S
C866 H837 0.950 . S
C866 C865 1.334 . S
C866 C867 1.287 . S
C867 C866 1.287 . S
C867 C868 1.524 . S
C867 H870 0.999 . S
C868 H838 0.950 . S
C868 C867 1.524 . S
C868 C869 1.415 . S
C869 H839 0.950 . S
C869 C864 1.363 . S
C869 C868 1.415 . S
H870 C867 0.999 . S
H871 C852 0.913 . S
H872 C890 0.951 . S
H873 C892 0.951 . S
H874 C894 0.950 . S
H875 C895 0.950 . S
H876 C897 0.950 . S
H877 C900 0.950 . S
H878 C901 0.950 . S
H879 C903 0.950 . S
H880 C904 0.950 . S
H881 C905 0.951 . S
H882 C907 0.951 . S
H883 C909 0.950 . S
H884 C910 0.950 . S
H885 C912 0.950 . S
H886 C915 0.950 . S
H887 C916 0.950 . S
H888 C918 0.950 . S
H889 C919 0.950 . S
C890 H872 0.951 . S
C890 C891 1.366 . S
C890 C892 1.388 . S
C891 C890 1.366 . S
C891 C895 1.385 . S
C892 H873 0.951 . S
C892 C890 1.388 . S
C892 C893 1.366 . S
C893 C892 1.366 . S
C893 C894 1.414 . S
C893 C896 1.499 . S
C894 H874 0.950 . S
C894 C893 1.414 . S
C894 C895 1.374 . S
C895 H875 0.950 . S
C895 C891 1.385 . S
C895 C894 1.374 . S
C896 C893 1.499 . S
C896 C897 1.373 . S
C896 C898 1.389 . S
C897 H876 0.950 . S
C897 C896 1.373 . S
C897 C913 1.377 . S
C898 C896 1.389 . S
C898 C899 1.524 . S
C898 C912 1.377 . S
C899 C898 1.524 . S
C899 C900 1.397 . S
C899 C904 1.363 . S
C900 H877 0.950 . S
C900 C899 1.397 . S
C900 C901 1.334 . S
C901 H878 0.950 . S
C901 C900 1.334 . S
C901 C902 1.287 . S
C902 C901 1.287 . S
C902 C903 1.524 . S
C902 H921 0.913 . S
C903 H879 0.950 . S
C903 C902 1.524 . S
C903 C904 1.415 . S
C904 H880 0.950 . S
C904 C899 1.363 . S
C904 C903 1.415 . S
C905 H881 0.951 . S
C905 C906 1.366 . S
C905 C907 1.388 . S
C906 C905 1.366 . S
C906 C910 1.385 . S
C907 H882 0.951 . S
C907 C905 1.388 . S
C907 C908 1.366 . S
C908 C907 1.366 . S
C908 C909 1.414 . S
C908 C911 1.499 . S
C909 H883 0.950 . S
C909 C908 1.414 . S
C909 C910 1.374 . S
C910 H884 0.950 . S
C910 C906 1.385 . S
C910 C909 1.374 . S
C911 C908 1.499 . S
C911 C912 1.373 . S
C911 C913 1.389 . S
C912 H885 0.950 . S
C912 C898 1.377 . S
C912 C911 1.373 . S
C913 C897 1.377 . S
C913 C911 1.389 . S
C913 C914 1.524 . S
C914 C913 1.524 . S
C914 C915 1.397 . S
C914 C919 1.363 . S
C915 H886 0.950 . S
C915 C914 1.397 . S
C915 C916 1.334 . S
C916 H887 0.950 . S
C916 C915 1.334 . S
C916 C917 1.287 . S
C917 C916 1.287 . S
C917 C918 1.524 . S
C917 H920 0.999 . S
C918 H888 0.950 . S
C918 C917 1.524 . S
C918 C919 1.415 . S
C919 H889 0.950 . S
C919 C914 1.363 . S
C919 C918 1.415 . S
H920 C917 0.999 . S
H921 C902 0.913 . S
H922 C940 0.951 . S
H923 C942 0.951 . S
H924 C944 0.950 . S
H925 C945 0.950 . S
H926 C947 0.950 . S
H927 C950 0.950 . S
H928 C951 0.950 . S
H929 C953 0.950 . S
H930 C954 0.950 . S
H931 C955 0.951 . S
H932 C957 0.951 . S
H933 C959 0.950 . S
H934 C960 0.950 . S
H935 C962 0.950 . S
H936 C965 0.950 . S
H937 C966 0.950 . S
H938 C968 0.950 . S
H939 C969 0.950 . S
C940 H922 0.951 . S
C940 C941 1.366 . S
C940 C942 1.388 . S
C941 C940 1.366 . S
C941 C945 1.385 . S
C942 H923 0.951 . S
C942 C940 1.388 . S
C942 C943 1.366 . S
C943 C942 1.366 . S
C943 C944 1.414 . S
C943 C946 1.499 . S
C944 H924 0.950 . S
C944 C943 1.414 . S
C944 C945 1.374 . S
C945 H925 0.950 . S
C945 C941 1.385 . S
C945 C944 1.374 . S
C946 C943 1.499 . S
C946 C947 1.373 . S
C946 C948 1.389 . S
C947 H926 0.950 . S
C947 C946 1.373 . S
C947 C963 1.377 . S
C948 C946 1.389 . S
C948 C949 1.524 . S
C948 C962 1.377 . S
C949 C948 1.524 . S
C949 C950 1.397 . S
C949 C954 1.363 . S
C950 H927 0.950 . S
C950 C949 1.397 . S
C950 C951 1.334 . S
C951 H928 0.950 . S
C951 C950 1.334 . S
C951 C952 1.287 . S
C952 C951 1.287 . S
C952 C953 1.524 . S
C952 H971 0.913 . S
C953 H929 0.950 . S
C953 C952 1.524 . S
C953 C954 1.415 . S
C954 H930 0.950 . S
C954 C949 1.363 . S
C954 C953 1.415 . S
C955 H931 0.951 . S
C955 C956 1.366 . S
C955 C957 1.388 . S
C956 C955 1.366 . S
C956 C960 1.385 . S
C957 H932 0.951 . S
C957 C955 1.388 . S
C957 C958 1.366 . S
C958 C957 1.366 . S
C958 C959 1.414 . S
C958 C961 1.499 . S
C959 H933 0.950 . S
C959 C958 1.414 . S
C959 C960 1.374 . S
C960 H934 0.950 . S
C960 C956 1.385 . S
C960 C959 1.374 . S
C961 C958 1.499 . S
C961 C962 1.373 . S
C961 C963 1.389 . S
C962 H935 0.950 . S
C962 C948 1.377 . S
C962 C961 1.373 . S
C963 C947 1.377 . S
C963 C961 1.389 . S
C963 C964 1.524 . S
C964 C963 1.524 . S
C964 C965 1.397 . S
C964 C969 1.363 . S
C965 H936 0.950 . S
C965 C964 1.397 . S
C965 C966 1.334 . S
C966 H937 0.950 . S
C966 C965 1.334 . S
C966 C967 1.287 . S
C967 C966 1.287 . S
C967 C968 1.524 . S
C967 H970 0.999 . S
C968 H938 0.950 . S
C968 C967 1.524 . S
C968 C969 1.415 . S
C969 H939 0.950 . S
C969 C964 1.363 . S
C969 C968 1.415 . S
H970 C967 0.999 . S
H971 C952 0.913 . S
H972 C990 0.951 . S
H973 C992 0.951 . S
H974 C994 0.950 . S
H975 C995 0.950 . S
H976 C997 0.950 . S
H977 C1000 0.950 . S
H978 C1001 0.950 . S
H979 C1003 0.950 . S
H980 C1004 0.950 . S
H981 C1005 0.951 . S
H982 C1007 0.951 . S
H983 C1009 0.950 . S
H984 C1010 0.950 . S
H985 C1012 0.950 . S
H986 C1015 0.950 . S
H987 C1016 0.950 . S
H988 C1018 0.950 . S
H989 C1019 0.950 . S
C990 H972 0.951 . S
C990 C991 1.366 . S
C990 C992 1.388 . S
C991 C990 1.366 . S
C991 C995 1.385 . S
C992 H973 0.951 . S
C992 C990 1.388 . S
C992 C993 1.366 . S
C993 C992 1.366 . S
C993 C994 1.414 . S
C993 C996 1.499 . S
C994 H974 0.950 . S
C994 C993 1.414 . S
C994 C995 1.374 . S
C995 H975 0.950 . S
C995 C991 1.385 . S
C995 C994 1.374 . S
C996 C993 1.499 . S
C996 C997 1.373 . S
C996 C998 1.389 . S
C997 H976 0.950 . S
C997 C996 1.373 . S
C997 C1013 1.377 . S
C998 C996 1.389 . S
C998 C999 1.524 . S
C998 C1012 1.377 . S
C999 C998 1.524 . S
C999 C1000 1.397 . S
C999 C1004 1.363 . S
C1000 H977 0.950 . S
C1000 C999 1.397 . S
C1000 C1001 1.334 . S
C1001 H978 0.950 . S
C1001 C1000 1.334 . S
C1001 C1002 1.287 . S
C1002 C1001 1.287 . S
C1002 C1003 1.524 . S
C1002 H1021 0.913 . S
C1003 H979 0.950 . S
C1003 C1002 1.524 . S
C1003 C1004 1.415 . S
C1004 H980 0.950 . S
C1004 C999 1.363 . S
C1004 C1003 1.415 . S
C1005 H981 0.951 . S
C1005 C1006 1.366 . S
C1005 C1007 1.388 . S
C1006 C1005 1.366 . S
C1006 C1010 1.385 . S
C1007 H982 0.951 . S
C1007 C1005 1.388 . S
C1007 C1008 1.366 . S
C1008 C1007 1.366 . S
C1008 C1009 1.414 . S
C1008 C1011 1.499 . S
C1009 H983 0.950 . S
C1009 C1008 1.414 . S
C1009 C1010 1.374 . S
C1010 H984 0.950 . S
C1010 C1006 1.385 . S
C1010 C1009 1.374 . S
C1011 C1008 1.499 . S
C1011 C1012 1.373 . S
C1011 C1013 1.389 . S
C1012 H985 0.950 . S
C1012 C998 1.377 . S
C1012 C1011 1.373 . S
C1013 C997 1.377 . S
C1013 C1011 1.389 . S
C1013 C1014 1.524 . S
C1014 C1013 1.524 . S
C1014 C1015 1.397 . S
C1014 C1019 1.363 . S
C1015 H986 0.950 . S
C1015 C1014 1.397 . S
C1015 C1016 1.334 . S
C1016 H987 0.950 . S
C1016 C1015 1.334 . S
C1016 C1017 1.287 . S
C1017 C1016 1.287 . S
C1017 C1018 1.524 . S
C1017 H1020 0.999 . S
C1018 H988 0.950 . S
C1018 C1017 1.524 . S
C1018 C1019 1.415 . S
C1019 H989 0.950 . S
C1019 C1014 1.363 . S
C1019 C1018 1.415 . S
H1020 C1017 0.999 . S
H1021 C1002 0.913 . S
H1022 C1040 0.951 . S
H1023 C1042 0.951 . S
H1024 C1044 0.950 . S
H1025 C1045 0.950 . S
H1026 C1047 0.950 . S
H1027 C1050 0.950 . S
H1028 C1051 0.950 . S
H1029 C1053 0.950 . S
H1030 C1054 0.950 . S
H1031 C1055 0.951 . S
H1032 C1057 0.951 . S
H1033 C1059 0.950 . S
H1034 C1060 0.950 . S
H1035 C1062 0.950 . S
H1036 C1065 0.950 . S
H1037 C1066 0.950 . S
H1038 C1068 0.950 . S
H1039 C1069 0.950 . S
C1040 H1022 0.951 . S
C1040 C1041 1.366 . S
C1040 C1042 1.388 . S
C1041 C1040 1.366 . S
C1041 C1045 1.385 . S
C1042 H1023 0.951 . S
C1042 C1040 1.388 . S
C1042 C1043 1.366 . S
C1043 C1042 1.366 . S
C1043 C1044 1.414 . S
C1043 C1046 1.499 . S
C1044 H1024 0.950 . S
C1044 C1043 1.414 . S
C1044 C1045 1.374 . S
C1045 H1025 0.950 . S
C1045 C1041 1.385 . S
C1045 C1044 1.374 . S
C1046 C1043 1.499 . S
C1046 C1047 1.373 . S
C1046 C1048 1.389 . S
C1047 H1026 0.950 . S
C1047 C1046 1.373 . S
C1047 C1063 1.377 . S
C1048 C1046 1.389 . S
C1048 C1049 1.524 . S
C1048 C1062 1.377 . S
C1049 C1048 1.524 . S
C1049 C1050 1.397 . S
C1049 C1054 1.363 . S
C1050 H1027 0.950 . S
C1050 C1049 1.397 . S
C1050 C1051 1.334 . S
C1051 H1028 0.950 . S
C1051 C1050 1.334 . S
C1051 C1052 1.287 . S
C1052 C1051 1.287 . S
C1052 C1053 1.524 . S
C1052 H1071 0.913 . S
C1053 H1029 0.950 . S
C1053 C1052 1.524 . S
C1053 C1054 1.415 . S
C1054 H1030 0.950 . S
C1054 C1049 1.363 . S
C1054 C1053 1.415 . S
C1055 H1031 0.951 . S
C1055 C1056 1.366 . S
C1055 C1057 1.388 . S
C1056 C1055 1.366 . S
C1056 C1060 1.385 . S
C1057 H1032 0.951 . S
C1057 C1055 1.388 . S
C1057 C1058 1.366 . S
C1058 C1057 1.366 . S
C1058 C1059 1.414 . S
C1058 C1061 1.499 . S
C1059 H1033 0.950 . S
C1059 C1058 1.414 . S
C1059 C1060 1.374 . S
C1060 H1034 0.950 . S
C1060 C1056 1.385 . S
C1060 C1059 1.374 . S
C1061 C1058 1.499 . S
C1061 C1062 1.373 . S
C1061 C1063 1.389 . S
C1062 H1035 0.950 . S
C1062 C1048 1.377 . S
C1062 C1061 1.373 . S
C1063 C1047 1.377 . S
C1063 C1061 1.389 . S
C1063 C1064 1.524 . S
C1064 C1063 1.524 . S
C1064 C1065 1.397 . S
C1064 C1069 1.363 . S
C1065 H1036 0.950 . S
C1065 C1064 1.397 . S
C1065 C1066 1.334 . S
C1066 H1037 0.950 . S
C1066 C1065 1.334 . S
C1066 C1067 1.287 . S
C1067 C1066 1.287 . S
C1067 C1068 1.524 . S
C1067 H1070 0.999 . S
C1068 H1038 0.950 . S
C1068 C1067 1.524 . S
C1068 C1069 1.415 . S
C1069 H1039 0.950 . S
C1069 C1064 1.363 . S
C1069 C1068 1.415 . S
H1070 C1067 0.999 . S
H1071 C1052 0.913 . S
H1072 C1090 0.951 . S
H1073 C1092 0.951 . S
H1074 C1094 0.950 . S
H1075 C1095 0.950 . S
H1076 C1097 0.950 . S
H1077 C1100 0.950 . S
H1078 C1101 0.950 . S
H1079 C1103 0.950 . S
H1080 C1104 0.950 . S
H1081 C1105 0.951 . S
H1082 C1107 0.951 . S
H1083 C1109 0.950 . S
H1084 C1110 0.950 . S
H1085 C1112 0.950 . S
H1086 C1115 0.950 . S
H1087 C1116 0.950 . S
H1088 C1118 0.950 . S
H1089 C1119 0.950 . S
C1090 H1072 0.951 . S
C1090 C1091 1.366 . S
C1090 C1092 1.388 . S
C1091 C1090 1.366 . S
C1091 C1095 1.385 . S
C1092 H1073 0.951 . S
C1092 C1090 1.388 . S
C1092 C1093 1.366 . S
C1093 C1092 1.366 . S
C1093 C1094 1.414 . S
C1093 C1096 1.499 . S
C1094 H1074 0.950 . S
C1094 C1093 1.414 . S
C1094 C1095 1.374 . S
C1095 H1075 0.950 . S
C1095 C1091 1.385 . S
C1095 C1094 1.374 . S
C1096 C1093 1.499 . S
C1096 C1097 1.373 . S
C1096 C1098 1.389 . S
C1097 H1076 0.950 . S
C1097 C1096 1.373 . S
C1097 C1113 1.377 . S
C1098 C1096 1.389 . S
C1098 C1099 1.524 . S
C1098 C1112 1.377 . S
C1099 C1098 1.524 . S
C1099 C1100 1.397 . S
C1099 C1104 1.363 . S
C1100 H1077 0.950 . S
C1100 C1099 1.397 . S
C1100 C1101 1.334 . S
C1101 H1078 0.950 . S
C1101 C1100 1.334 . S
C1101 C1102 1.287 . S
C1102 C1101 1.287 . S
C1102 C1103 1.524 . S
C1102 H1121 0.913 . S
C1103 H1079 0.950 . S
C1103 C1102 1.524 . S
C1103 C1104 1.415 . S
C1104 H1080 0.950 . S
C1104 C1099 1.363 . S
C1104 C1103 1.415 . S
C1105 H1081 0.951 . S
C1105 C1106 1.366 . S
C1105 C1107 1.388 . S
C1106 C1105 1.366 . S
C1106 C1110 1.385 . S
C1107 H1082 0.951 . S
C1107 C1105 1.388 . S
C1107 C1108 1.366 . S
C1108 C1107 1.366 . S
C1108 C1109 1.414 . S
C1108 C1111 1.499 . S
C1109 H1083 0.950 . S
C1109 C1108 1.414 . S
C1109 C1110 1.374 . S
C1110 H1084 0.950 . S
C1110 C1106 1.385 . S
C1110 C1109 1.374 . S
C1111 C1108 1.499 . S
C1111 C1112 1.373 . S
C1111 C1113 1.389 . S
C1112 H1085 0.950 . S
C1112 C1098 1.377 . S
C1112 C1111 1.373 . S
C1113 C1097 1.377 . S
C1113 C1111 1.389 . S
C1113 C1114 1.524 . S
C1114 C1113 1.524 . S
C1114 C1115 1.397 . S
C1114 C1119 1.363 . S
C1115 H1086 0.950 . S
C1115 C1114 1.397 . S
C1115 C1116 1.334 . S
C1116 H1087 0.950 . S
C1116 C1115 1.334 . S
C1116 C1117 1.287 . S
C1117 C1116 1.287 . S
C1117 C1118 1.524 . S
C1117 H1120 0.999 . S
C1118 H1088 0.950 . S
C1118 C1117 1.524 . S
C1118 C1119 1.415 . S
C1119 H1089 0.950 . S
C1119 C1114 1.363 . S
C1119 C1118 1.415 . S
H1120 C1117 0.999 . S
H1121 C1102 0.913 . S
H1122 C1140 0.951 . S
H1123 C1142 0.951 . S
H1124 C1144 0.950 . S
H1125 C1145 0.950 . S
H1126 C1147 0.950 . S
H1127 C1150 0.950 . S
H1128 C1151 0.950 . S
H1129 C1153 0.950 . S
H1130 C1154 0.950 . S
H1131 C1155 0.951 . S
H1132 C1157 0.951 . S
H1133 C1159 0.950 . S
H1134 C1160 0.950 . S
H1135 C1162 0.950 . S
H1136 C1165 0.950 . S
H1137 C1166 0.950 . S
H1138 C1168 0.950 . S
H1139 C1169 0.950 . S
C1140 H1122 0.951 . S
C1140 C1141 1.366 . S
C1140 C1142 1.388 . S
C1141 C1140 1.366 . S
C1141 C1145 1.385 . S
C1142 H1123 0.951 . S
C1142 C1140 1.388 . S
C1142 C1143 1.366 . S
C1143 C1142 1.366 . S
C1143 C1144 1.414 . S
C1143 C1146 1.499 . S
C1144 H1124 0.950 . S
C1144 C1143 1.414 . S
C1144 C1145 1.374 . S
C1145 H1125 0.950 . S
C1145 C1141 1.385 . S
C1145 C1144 1.374 . S
C1146 C1143 1.499 . S
C1146 C1147 1.373 . S
C1146 C1148 1.389 . S
C1147 H1126 0.950 . S
C1147 C1146 1.373 . S
C1147 C1163 1.377 . S
C1148 C1146 1.389 . S
C1148 C1149 1.524 . S
C1148 C1162 1.377 . S
C1149 C1148 1.524 . S
C1149 C1150 1.397 . S
C1149 C1154 1.363 . S
C1150 H1127 0.950 . S
C1150 C1149 1.397 . S
C1150 C1151 1.334 . S
C1151 H1128 0.950 . S
C1151 C1150 1.334 . S
C1151 C1152 1.287 . S
C1152 C1151 1.287 . S
C1152 C1153 1.524 . S
C1152 H1171 0.913 . S
C1153 H1129 0.950 . S
C1153 C1152 1.524 . S
C1153 C1154 1.415 . S
C1154 H1130 0.950 . S
C1154 C1149 1.363 . S
C1154 C1153 1.415 . S
C1155 H1131 0.951 . S
C1155 C1156 1.366 . S
C1155 C1157 1.388 . S
C1156 C1155 1.366 . S
C1156 C1160 1.385 . S
C1157 H1132 0.951 . S
C1157 C1155 1.388 . S
C1157 C1158 1.366 . S
C1158 C1157 1.366 . S
C1158 C1159 1.414 . S
C1158 C1161 1.499 . S
C1159 H1133 0.950 . S
C1159 C1158 1.414 . S
C1159 C1160 1.374 . S
C1160 H1134 0.950 . S
C1160 C1156 1.385 . S
C1160 C1159 1.374 . S
C1161 C1158 1.499 . S
C1161 C1162 1.373 . S
C1161 C1163 1.389 . S
C1162 H1135 0.950 . S
C1162 C1148 1.377 . S
C1162 C1161 1.373 . S
C1163 C1147 1.377 . S
C1163 C1161 1.389 . S
C1163 C1164 1.524 . S
C1164 C1163 1.524 . S
C1164 C1165 1.397 . S
C1164 C1169 1.363 . S
C1165 H1136 0.950 . S
C1165 C1164 1.397 . S
C1165 C1166 1.334 . S
C1166 H1137 0.950 . S
C1166 C1165 1.334 . S
C1166 C1167 1.287 . S
C1167 C1166 1.287 . S
C1167 C1168 1.524 . S
C1167 H1170 0.999 . S
C1168 H1138 0.950 . S
C1168 C1167 1.524 . S
C1168 C1169 1.415 . S
C1169 H1139 0.950 . S
C1169 C1164 1.363 . S
C1169 C1168 1.415 . S
H1170 C1167 0.999 . S
H1171 C1152 0.913 . S
H1172 C1190 0.951 . S
H1173 C1192 0.951 . S
H1174 C1194 0.950 . S
H1175 C1195 0.950 . S
H1176 C1197 0.950 . S
H1177 C1200 0.950 . S
H1178 C1201 0.950 . S
H1179 C1203 0.950 . S
H1180 C1204 0.950 . S
H1181 C1205 0.951 . S
H1182 C1207 0.951 . S
H1183 C1209 0.950 . S
H1184 C1210 0.950 . S
H1185 C1212 0.950 . S
H1186 C1215 0.950 . S
H1187 C1216 0.950 . S
H1188 C1218 0.950 . S
H1189 C1219 0.950 . S
C1190 H1172 0.951 . S
C1190 C1191 1.366 . S
C1190 C1192 1.388 . S
C1191 C1190 1.366 . S
C1191 C1195 1.385 . S
C1192 H1173 0.951 . S
C1192 C1190 1.388 . S
C1192 C1193 1.366 . S
C1193 C1192 1.366 . S
C1193 C1194 1.414 . S
C1193 C1196 1.499 . S
C1194 H1174 0.950 . S
C1194 C1193 1.414 . S
C1194 C1195 1.374 . S
C1195 H1175 0.950 . S
C1195 C1191 1.385 . S
C1195 C1194 1.374 . S
C1196 C1193 1.499 . S
C1196 C1197 1.373 . S
C1196 C1198 1.389 . S
C1197 H1176 0.950 . S
C1197 C1196 1.373 . S
C1197 C1213 1.377 . S
C1198 C1196 1.389 . S
C1198 C1199 1.524 . S
C1198 C1212 1.377 . S
C1199 C1198 1.524 . S
C1199 C1200 1.397 . S
C1199 C1204 1.363 . S
C1200 H1177 0.950 . S
C1200 C1199 1.397 . S
C1200 C1201 1.334 . S
C1201 H1178 0.950 . S
C1201 C1200 1.334 . S
C1201 C1202 1.287 . S
C1202 C1201 1.287 . S
C1202 C1203 1.524 . S
C1202 H1221 0.913 . S
C1203 H1179 0.950 . S
C1203 C1202 1.524 . S
C1203 C1204 1.415 . S
C1204 H1180 0.950 . S
C1204 C1199 1.363 . S
C1204 C1203 1.415 . S
C1205 H1181 0.951 . S
C1205 C1206 1.366 . S
C1205 C1207 1.388 . S
C1206 C1205 1.366 . S
C1206 C1210 1.385 . S
C1207 H1182 0.951 . S
C1207 C1205 1.388 . S
C1207 C1208 1.366 . S
C1208 C1207 1.366 . S
C1208 C1209 1.414 . S
C1208 C1211 1.499 . S
C1209 H1183 0.950 . S
C1209 C1208 1.414 . S
C1209 C1210 1.374 . S
C1210 H1184 0.950 . S
C1210 C1206 1.385 . S
C1210 C1209 1.374 . S
C1211 C1208 1.499 . S
C1211 C1212 1.373 . S
C1211 C1213 1.389 . S
C1212 H1185 0.950 . S
C1212 C1198 1.377 . S
C1212 C1211 1.373 . S
C1213 C1197 1.377 . S
C1213 C1211 1.389 . S
C1213 C1214 1.524 . S
C1214 C1213 1.524 . S
C1214 C1215 1.397 . S
C1214 C1219 1.363 . S
C1215 H1186 0.950 . S
C1215 C1214 1.397 . S
C1215 C1216 1.334 . S
C1216 H1187 0.950 . S
C1216 C1215 1.334 . S
C1216 C1217 1.287 . S
C1217 C1216 1.287 . S
C1217 C1218 1.524 . S
C1217 H1220 0.999 . S
C1218 H1188 0.950 . S
C1218 C1217 1.524 . S
C1218 C1219 1.415 . S
C1219 H1189 0.950 . S
C1219 C1214 1.363 . S
C1219 C1218 1.415 . S
H1220 C1217 0.999 . S
H1221 C1202 0.913 . S
H1222 C1240 0.951 . S
H1223 C1242 0.951 . S
H1224 C1244 0.950 . S
H1225 C1245 0.950 . S
H1226 C1247 0.950 . S
H1227 C1250 0.950 . S
H1228 C1251 0.950 . S
H1229 C1253 0.950 . S
H1230 C1254 0.950 . S
H1231 C1255 0.951 . S
H1232 C1257 0.951 . S
H1233 C1259 0.950 . S
H1234 C1260 0.950 . S
H1235 C1262 0.950 . S
H1236 C1265 0.950 . S
H1237 C1266 0.950 . S
H1238 C1268 0.950 . S
H1239 C1269 0.950 . S
C1240 H1222 0.951 . S
C1240 C1241 1.366 . S
C1240 C1242 1.388 . S
C1241 C1240 1.366 . S
C1241 C1245 1.385 . S
C1242 H1223 0.951 . S
C1242 C1240 1.388 . S
C1242 C1243 1.366 . S
C1243 C1242 1.366 . S
C1243 C1244 1.414 . S
C1243 C1246 1.499 . S
C1244 H1224 0.950 . S
C1244 C1243 1.414 . S
C1244 C1245 1.374 . S
C1245 H1225 0.950 . S
C1245 C1241 1.385 . S
C1245 C1244 1.374 . S
C1246 C1243 1.499 . S
C1246 C1247 1.373 . S
C1246 C1248 1.389 . S
C1247 H1226 0.950 . S
C1247 C1246 1.373 . S
C1247 C1263 1.377 . S
C1248 C1246 1.389 . S
C1248 C1249 1.524 . S
C1248 C1262 1.377 . S
C1249 C1248 1.524 . S
C1249 C1250 1.397 . S
C1249 C1254 1.363 . S
C1250 H1227 0.950 . S
C1250 C1249 1.397 . S
C1250 C1251 1.334 . S
C1251 H1228 0.950 . S
C1251 C1250 1.334 . S
C1251 C1252 1.287 . S
C1252 C1251 1.287 . S
C1252 C1253 1.524 . S
C1252 H1271 0.913 . S
C1253 H1229 0.950 . S
C1253 C1252 1.524 . S
C1253 C1254 1.415 . S
C1254 H1230 0.950 . S
C1254 C1249 1.363 . S
C1254 C1253 1.415 . S
C1255 H1231 0.951 . S
C1255 C1256 1.366 . S
C1255 C1257 1.388 . S
C1256 C1255 1.366 . S
C1256 C1260 1.385 . S
C1257 H1232 0.951 . S
C1257 C1255 1.388 . S
C1257 C1258 1.366 . S
C1258 C1257 1.366 . S
C1258 C1259 1.414 . S
C1258 C1261 1.499 . S
C1259 H1233 0.950 . S
C1259 C1258 1.414 . S
C1259 C1260 1.374 . S
C1260 H1234 0.950 . S
C1260 C1256 1.385 . S
C1260 C1259 1.374 . S
C1261 C1258 1.499 . S
C1261 C1262 1.373 . S
C1261 C1263 1.389 . S
C1262 H1235 0.950 . S
C1262 C1248 1.377 . S
C1262 C1261 1.373 . S
C1263 C1247 1.377 . S
C1263 C1261 1.389 . S
C1263 C1264 1.524 . S
C1264 C1263 1.524 . S
C1264 C1265 1.397 . S
C1264 C1269 1.363 . S
C1265 H1236 0.950 . S
C1265 C1264 1.397 . S
C1265 C1266 1.334 . S
C1266 H1237 0.950 . S
C1266 C1265 1.334 . S
C1266 C1267 1.287 . S
C1267 C1266 1.287 . S
C1267 C1268 1.524 . S
C1267 H1270 0.999 . S
C1268 H1238 0.950 . S
C1268 C1267 1.524 . S
C1268 C1269 1.415 . S
C1269 H1239 0.950 . S
C1269 C1264 1.363 . S
C1269 C1268 1.415 . S
H1270 C1267 0.999 . S
H1271 C1252 0.913 . S
C291 C209 0.143 . S
C306 C9 0.532 . S
C341 C243 0.140 . S
C356 C43 0.529 . S
C391 C141 0.143 . S
C406 C77 0.532 . S
C441 C175 0.143 . S
C456 C111 0.532 . S
C491 C73 0.142 . S
C506 C145 0.532 . S
C541 C107 0.140 . S
C556 C179 0.529 . S
C591 C5 0.141 . S
C606 C213 0.530 . S
C641 C247 0.529 . S
C656 C39 0.141 . S
C691 C101 2.852 . S
C706 C33 2.852 . S
C741 C67 2.853 . S
C756 C135 2.853 . S
C791 C237 2.853 . S
C806 C169 2.852 . S
C841 C203 2.853 . S
C856 C271 2.853 . S
C891 C20 1.716 . S
C906 C258 1.716 . S
C941 C156 1.716 . S
C956 C54 1.716 . S
C991 C190 1.716 . S
C1006 C88 1.716 . S
C1041 C224 1.716 . S
C1056 C122 1.716 . S
C1091 C70 2.067 . S
C1106 C172 2.066 . S
C1141 C104 2.067 . S
C1156 C206 2.067 . S
C1191 C240 2.067 . S
C1206 C2 2.067 . S
C1241 C138 2.067 . S
C1256 C36 2.067 . S
