# Generated by pormake.
# Topology oob, (7)-cn, num edge types: 1
# Building blocks:
#     Node 0, Type 0, BuildingBlock: HICVOG_clean_sbu_0, # of connection points: 7
#     Node 1, Type 0, BuildingBlock: HICVOG_clean_sbu_0, # of connection points: 7
#     Node 2, Type 0, BuildingBlock: HICVOG_clean_sbu_0, # of connection points: 7
#     Node 3, Type 0, BuildingBlock: HICVOG_clean_sbu_0, # of connection points: 7
#     Edge 4, Type (0, 0), BuildingBlock: UVAHIK_clean_linker_0, # of connection points: 2
#     Edge 5, Type (0, 0), BuildingBlock: UVAHIK_clean_linker_0, # of connection points: 2
#     Edge 6, Type (0, 0), BuildingBlock: UVAHIK_clean_linker_0, # of connection points: 2
#     Edge 7, Type (0, 0), BuildingBlock: UVAHIK_clean_linker_0, # of connection points: 2
#     Edge 8, Type (0, 0), BuildingBlock: UVAHIK_clean_linker_0, # of connection points: 2
#     Edge 9, Type (0, 0), BuildingBlock: UVAHIK_clean_linker_0, # of connection points: 2
#     Edge 10, Type (0, 0), BuildingBlock: UVAHIK_clean_linker_0, # of connection points: 2
#     Edge 11, Type (0, 0), BuildingBlock: UVAHIK_clean_linker_0, # of connection points: 2
#     Edge 12, Type (0, 0), BuildingBlock: UVAHIK_clean_linker_0, # of connection points: 2
#     Edge 13, Type (0, 0), BuildingBlock: UVAHIK_clean_linker_0, # of connection points: 2
#     Edge 14, Type (0, 0), BuildingBlock: UVAHIK_clean_linker_0, # of connection points: 2
#     Edge 15, Type (0, 0), BuildingBlock: UVAHIK_clean_linker_0, # of connection points: 2
#     Edge 16, Type (0, 0), BuildingBlock: UVAHIK_clean_linker_0, # of connection points: 2
#     Edge 17, Type (0, 0), BuildingBlock: UVAHIK_clean_linker_0, # of connection points: 2
# Relax obj value: 0.254
# Max RMSD: 0.252
# Mean RMSD: 0.252
data_MOF--net-oob--node1-HICVOG_clean_sbu_0--edge1-UVAHIK_clean_linker_0
_symmetry_space_group_name_H-M    P1
_symmetry_Int_Tables_number       1
_symmetry_cell_setting            triclinic
loop_
_symmetry_equiv_pos_as_xyz
'x, y, z'
_cell_length_a     21.83284
_cell_length_b     48.93146
_cell_length_c     35.382892
_cell_angle_alpha  89.98215
_cell_angle_beta   106.00747
_cell_angle_gamma 90.07336
loop_
_atom_site_label
_atom_site_type_symbol
_atom_site_fract_x
_atom_site_fract_y
_atom_site_fract_z
_atom_type_partial_charge
Zn0 Zn 0.23112 0.03909 0.80701 0.0
C1 C 0.16758 1.00055 0.88927 0.0
N2 N 0.20878 0.01747 0.91343 0.0
C3 C 0.2371 0.0298 0.88883 0.0
N4 N 0.21433 0.02093 0.85146 0.0
N5 N 0.17023 1.00242 0.85174 0.0
C6 C 1.0047 0.99352 0.80181 0.0
O7 O 0.03115 0.01551 0.7918 0.0
O8 O 0.32386 0.03563 0.80908 0.0
Zn9 Zn 0.13039 0.97645 0.81142 0.0
N10 N 0.21064 0.07697 0.81285 0.0
C11 C 0.14265 0.10777 0.83402 0.0
C12 C 0.15814 0.08133 0.82558 0.0
C13 C 0.24782 0.09813 0.80733 0.0
N14 N 0.1799 0.12887 0.82895 0.0
C15 C 0.23204 0.12495 0.81557 0.0
O16 O 0.12676 0.98742 0.7557 0.0
C17 C 0.14344 1.00659 0.73627 0.0
O18 O 0.17893 0.02623 0.75317 0.0
H19 H 0.12923 0.06426 0.82984 0.0
H20 H 0.28972 0.09403 0.79757 0.0
C21 C 0.15016 0.91747 0.81257 0.0
C22 C 0.18437 0.89359 0.82716 0.0
C23 C 0.26885 0.92059 0.86577 0.0
C24 C 0.23506 0.9442 0.8513 0.0
N25 N 0.17606 0.94227 0.82551 0.0
N26 N 0.24267 0.8959 0.85358 0.0
H27 H 0.10317 0.91635 0.79204 0.0
C28 C 0.34809 0.01221 0.80736 0.0
O29 O 0.31198 0.9904 0.80476 0.0
O30 O 0.03879 0.9723 0.81213 0.0
H31 H 0.25556 0.96392 0.86112 0.0
H32 H 0.10146 0.11152 0.84463 0.0
H33 H 0.31545 0.92186 0.88665 0.0
Zn34 Zn 0.7839 0.03929 0.24372 0.0
C35 C 0.8493 1.00165 0.16168 0.0
N36 N 0.80865 0.01877 0.13761 0.0
C37 C 0.77952 0.0307 0.16209 0.0
N38 N 0.8013 0.02138 0.19929 0.0
N39 N 0.8455 1.00297 0.19901 0.0
C40 C 0.01065 0.99303 0.24737 0.0
O41 O 0.98543 0.01532 0.25737 0.0
O42 O 0.69093 0.03557 0.24116 0.0
Zn43 Zn 0.88446 0.97671 0.23905 0.0
N44 N 0.80469 0.07716 0.2378 0.0
C45 C 0.87574 0.10725 0.21798 0.0
C46 C 0.85958 0.08113 0.22749 0.0
C47 C 0.76571 0.09848 0.24 0.0
N48 N 0.83656 0.12845 0.21947 0.0
C49 C 0.78204 0.12492 0.23046 0.0
O50 O 0.88889 0.98784 0.29479 0.0
C51 C 0.87207 1.00687 0.31434 0.0
O52 O 0.83616 0.0264 0.29758 0.0
H53 H 0.88974 0.06393 0.22571 0.0
H54 H 0.7219 0.09477 0.24786 0.0
C55 C 0.86095 0.91808 0.24032 0.0
C56 C 0.8259 0.89417 0.22656 0.0
C57 C 0.74543 0.92101 0.18394 0.0
C58 C 0.77997 0.94459 0.1977 0.0
N59 N 0.8374 0.94275 0.22514 0.0
N60 N 0.7692 0.89644 0.19851 0.0
H61 H 0.90675 0.91709 0.26211 0.0
C62 C 0.66717 0.01203 0.24296 0.0
O63 O 0.70398 0.99044 0.24624 0.0
O64 O 0.97569 0.97195 0.23778 0.0
H65 H 0.76117 0.96421 0.18613 0.0
H66 H 0.91882 0.11065 0.20918 0.0
H67 H 0.70005 0.9222 0.16181 0.0
Zn68 Zn 0.72826 0.53942 0.30667 0.0
C69 C 0.66464 0.50097 0.38884 0.0
N70 N 0.70556 0.51802 0.41293 0.0
C71 C 0.73422 0.53018 0.38836 0.0
N72 N 0.71191 0.52106 0.35108 0.0
N73 N 0.66783 0.50255 0.3514 0.0
C74 C 0.50314 0.4939 0.30361 0.0
O75 O 0.5301 0.51608 0.2946 0.0
O76 O 0.82101 0.5362 0.30854 0.0
Zn77 Zn 0.62791 0.47657 0.31115 0.0
N78 N 0.70702 0.57713 0.31314 0.0
C79 C 0.63633 0.60677 0.33392 0.0
C80 C 0.65258 0.58078 0.32405 0.0
C81 C 0.74545 0.59864 0.31071 0.0
N82 N 0.67497 0.62816 0.33219 0.0
C83 C 0.72903 0.62495 0.32062 0.0
O84 O 0.62341 0.48785 0.25539 0.0
C85 C 0.63991 0.50707 0.23596 0.0
O86 O 0.67564 0.52665 0.25285 0.0
H87 H 0.62286 0.56342 0.326 0.0
H88 H 0.78892 0.59518 0.30237 0.0
C89 C 0.6497 0.41776 0.30968 0.0
C90 C 0.68435 0.39375 0.32329 0.0
C91 C 0.76592 0.42041 0.36546 0.0
C92 C 0.73182 0.44408 0.35183 0.0
N93 N 0.67401 0.44238 0.32471 0.0
N94 N 0.7414 0.39589 0.35105 0.0
H95 H 0.60365 0.41688 0.28811 0.0
C96 C 0.8453 0.51279 0.30679 0.0
O97 O 0.80925 0.49097 0.30421 0.0
O98 O 0.53655 0.47235 0.31246 0.0
H99 H 0.75125 0.46365 0.36324 0.0
H100 H 0.59361 0.60991 0.34319 0.0
H101 H 0.81157 0.42149 0.38735 0.0
Zn102 Zn 0.28138 0.53902 0.74233 0.0
C103 C 0.34958 0.50116 0.66141 0.0
N104 N 0.30847 0.5179 0.63689 0.0
C105 C 0.27954 0.53025 0.66113 0.0
N106 N 0.30174 0.52149 0.69859 0.0
N107 N 0.34622 0.50312 0.69878 0.0
C108 C 0.51626 0.489 0.75638 0.0
O109 O 0.49685 0.50901 0.77498 0.0
O110 O 0.18826 0.53342 0.73847 0.0
Zn111 Zn 0.38436 0.47709 0.7392 0.0
N112 N 0.29876 0.5773 0.73641 0.0
C113 C 0.36614 0.60903 0.71623 0.0
C114 C 0.35196 0.5824 0.7247 0.0
C115 C 0.25958 0.59794 0.74094 0.0
N116 N 0.32697 0.6296 0.72033 0.0
C117 C 0.27409 0.62497 0.73272 0.0
O118 O 0.3876 0.48863 0.79465 0.0
C119 C 0.37001 0.50767 0.81386 0.0
O120 O 0.33366 0.52697 0.79672 0.0
H121 H 0.38253 0.56575 0.72128 0.0
H122 H 0.21723 0.59327 0.74996 0.0
C123 C 0.36024 0.41842 0.7372 0.0
C124 C 0.3233 0.39509 0.72314 0.0
C125 C 0.23892 0.42341 0.68766 0.0
C126 C 0.27541 0.44647 0.70164 0.0
N127 N 0.33564 0.44362 0.72558 0.0
N128 N 0.26374 0.39831 0.69852 0.0
H129 H 0.40821 0.41658 0.75632 0.0
C130 C 0.17038 0.51104 0.75031 0.0
O131 O 0.21321 0.49223 0.76504 0.0
O132 O 0.4758 0.47143 0.73817 0.0
H133 H 0.25597 0.46653 0.69299 0.0
H134 H 0.40788 0.61334 0.7064 0.0
H135 H 0.19127 0.4254 0.66823 0.0
C136 C 0.90644 0.97057 0.81069 0.0
C137 C 0.93751 0.99427 0.80313 0.0
C138 C 0.84275 0.97163 0.81162 0.0
C139 C 0.69788 0.01503 0.77921 0.0
H140 H 0.63917 0.97245 0.85488 0.0
C141 C 0.4529 0.03289 0.80679 0.0
C142 C 0.41611 0.00955 0.80843 0.0
C143 C 0.51661 0.03037 0.80669 0.0
C144 C 0.65482 0.98428 0.83338 0.0
H145 H 0.92657 0.03781 0.79166 0.0
H146 H 0.81671 0.03979 0.79417 0.0
H147 H 0.7503 0.96916 0.85372 0.0
H148 H 0.41783 0.96529 0.81212 0.0
H149 H 0.52933 0.96094 0.81218 0.0
H150 H 0.60271 0.03048 0.75937 0.0
C151 C 0.8406 0.02019 0.79831 0.0
C152 C 0.71844 0.98235 0.83261 0.0
C153 C 0.9039 0.01908 0.7971 0.0
C154 C 0.4448 0.98367 0.8107 0.0
C155 C 0.50874 0.98117 0.81095 0.0
C156 C 0.63457 0.01712 0.78023 0.0
C157 C 0.80892 0.99647 0.80525 0.0
C158 C 0.74088 0.99782 0.80562 0.0
C159 C 0.54515 1.00448 0.80858 0.0
C160 C 0.61238 1.00188 0.80742 0.0
H161 H 0.9311 0.95114 0.81554 0.0
H162 H 0.81977 0.9529 0.81669 0.0
H163 H 0.71295 0.02678 0.75742 0.0
H164 H 0.43236 0.05314 0.80518 0.0
H165 H 0.54371 0.04872 0.80533 0.0
C166 C 0.57109 0.98287 0.23918 0.0
C167 C 0.59872 0.00896 0.24067 0.0
C168 C 0.50657 0.97997 0.23733 0.0
C169 C 0.35392 0.01853 0.21451 0.0
H170 H 0.30247 0.96106 0.27488 0.0
C171 C 0.11094 0.01817 0.24871 0.0
C172 C 0.0772 0.99337 0.24474 0.0
C173 C 0.17338 0.01893 0.24577 0.0
C174 C 0.31601 0.977 0.25749 0.0
H175 H 0.58012 0.05246 0.24125 0.0
H176 H 0.46825 0.04743 0.23897 0.0
H177 H 0.41384 0.96474 0.27463 0.0
H178 H 0.08258 0.94988 0.2344 0.0
H179 H 0.19248 0.95117 0.22979 0.0
H180 H 0.25626 0.03117 0.19827 0.0
C181 C 0.49595 0.02916 0.23845 0.0
C182 C 0.37984 0.97911 0.25727 0.0
C183 C 0.56033 0.03207 0.24006 0.0
C184 C 0.1074 0.96929 0.23775 0.0
C185 C 0.17031 0.97001 0.23522 0.0
C186 C 0.29029 0.01654 0.21501 0.0
C187 C 0.46818 1.00307 0.23711 0.0
C188 C 0.39975 1.00007 0.23605 0.0
C189 C 0.20385 0.99488 0.2391 0.0
C190 C 0.27073 0.99591 0.23679 0.0
H191 H 0.59922 0.96464 0.23932 0.0
H192 H 0.4867 0.95958 0.23573 0.0
H193 H 0.36713 0.03456 0.19714 0.0
H194 H 0.08908 0.03714 0.25395 0.0
H195 H 0.1982 0.03835 0.24933 0.0
C196 C 0.40319 0.51971 0.30042 0.0
C197 C 0.43601 0.49471 0.30507 0.0
C198 C 0.33982 0.52086 0.30147 0.0
C199 C 0.21571 0.48235 0.3329 0.0
H200 H 0.10213 0.53221 0.26148 0.0
C201 C 0.94183 0.48424 0.30965 0.0
C202 C 0.91342 0.51015 0.30805 0.0
C203 C 1.0059 0.48175 0.31018 0.0
C204 C 0.13338 0.51837 0.28185 0.0
H205 H 0.42814 0.45128 0.31497 0.0
H206 H 0.31668 0.45316 0.3159 0.0
H207 H 0.21266 0.52852 0.26015 0.0
H208 H 0.93034 0.55378 0.30633 0.0
H209 H 0.04194 0.54939 0.30704 0.0
H210 H 0.1356 0.47199 0.3541 0.0
C211 C 0.34034 0.47198 0.312 0.0
C212 C 0.19686 0.51627 0.28118 0.0
C213 C 0.40411 0.47086 0.31121 0.0
C214 C 0.95064 0.53351 0.30737 0.0
C215 C 0.01451 0.531 0.3076 0.0
C216 C 0.15194 0.48431 0.33336 0.0
C217 C 0.30728 0.497 0.3069 0.0
C218 C 0.23908 0.49842 0.30693 0.0
C219 C 0.04279 0.5051 0.30883 0.0
C220 C 0.11024 0.50252 0.30804 0.0
H221 H 0.42651 0.53854 0.29611 0.0
H222 H 0.31651 0.54058 0.29835 0.0
H223 H 0.24697 0.46864 0.35348 0.0
H224 H 0.91455 0.46583 0.31031 0.0
H225 H 0.02623 0.46151 0.31086 0.0
C226 C 0.60261 0.47169 0.72794 0.0
C227 C 0.58359 0.48805 0.75535 0.0
C228 C 0.66587 0.47219 0.72602 0.0
C229 C 0.82893 0.488 0.78474 0.0
H230 H 0.86567 0.49903 0.68462 0.0
C231 C 0.08499 0.48453 0.76899 0.0
C232 C 0.10253 0.50636 0.74832 0.0
C233 C 0.0213 0.48055 0.76834 0.0
C234 C 0.85606 0.49595 0.71276 0.0
H235 H 0.61632 0.51729 0.80275 0.0
H236 H 0.72647 0.51771 0.79987 0.0
H237 H 0.75486 0.4948 0.68689 0.0
H238 H 0.06666 0.54067 0.70975 0.0
H239 H 0.95515 0.53355 0.7084 0.0
H240 H 0.92981 0.48937 0.81072 0.0
C241 C 0.69255 0.50462 0.77975 0.0
C242 C 0.79276 0.49329 0.71401 0.0
C243 C 0.62933 0.50445 0.78126 0.0
C244 C 0.05473 0.52376 0.7262 0.0
C245 C 0.99085 0.51958 0.72518 0.0
C246 C 0.89211 0.4903 0.78343 0.0
C247 C 0.71147 0.48866 0.75198 0.0
C248 C 0.77856 0.48962 0.75009 0.0
C249 C 0.97357 0.49811 0.74662 0.0
C250 C 0.90637 0.49457 0.7475 0.0
H251 H 0.56847 0.45884 0.70756 0.0
H252 H 0.67927 0.45956 0.70445 0.0
H253 H 0.81942 0.48502 0.81293 0.0
H254 H 0.12061 0.47072 0.78623 0.0
H255 H 0.00934 0.46369 0.78484 0.0
C256 C 0.11464 0.03098 0.67123 0.0
C257 C 0.11855 1.00655 0.69274 0.0
C258 C 0.088 0.03115 0.6304 0.0
C259 C 0.05737 0.98845 0.54259 0.0
H260 H 0.92131 0.03942 0.49688 0.0
C261 C 0.91936 0.98239 0.37807 0.0
C262 C 0.89721 1.00673 0.35785 0.0
C263 C 0.94519 0.98236 0.41893 0.0
C264 C 0.95998 0.02533 0.50887 0.0
H265 H 0.09882 0.96303 0.688 0.0
H266 H 0.05403 0.96327 0.61654 0.0
H267 H 0.97106 0.03986 0.56761 0.0
H268 H 0.88529 0.05023 0.3648 0.0
H269 H 0.93264 0.0505 0.43565 0.0
H270 H 0.04845 0.97446 0.48414 0.0
C271 C 0.07099 0.9823 0.63144 0.0
C272 C 0.98823 0.02554 0.54954 0.0
C273 C 0.09642 0.98221 0.67234 0.0
C274 C 0.90134 0.03106 0.37952 0.0
C275 C 0.92829 0.03115 0.42032 0.0
C276 C 0.03001 0.98856 0.50185 0.0
C277 C 0.0659 1.00681 0.61009 0.0
C278 C 0.03694 1.00699 0.56683 0.0
C279 C 0.95082 1.0068 0.44072 0.0
C280 C 0.98053 1.00689 0.48431 0.0
H281 H 0.13093 0.0501 0.68604 0.0
H282 H 0.08499 0.0503 0.61462 0.0
H283 H 0.09532 0.97412 0.55512 0.0
H284 H 0.91638 0.96323 0.36231 0.0
H285 H 0.96037 0.96305 0.43338 0.0
C286 C 0.39765 0.53213 0.87889 0.0
C287 C 0.39455 0.50773 0.85741 0.0
C288 C 0.4239 0.53234 0.91977 0.0
C289 C 0.45457 0.48949 1.00748 0.0
H290 H 0.58989 0.54078 0.05379 0.0
C291 C 0.59252 0.48286 0.17197 0.0
C292 C 0.61455 0.50714 0.19245 0.0
C293 C 0.56659 0.48303 0.13111 0.0
C294 C 0.55141 0.5266 0.04164 0.0
H295 H 0.4153 0.46432 0.86224 0.0
H296 H 0.45937 0.46463 0.93371 0.0
H297 H 0.54036 0.54143 0.98303 0.0
H298 H 0.62611 0.55073 0.18597 0.0
H299 H 0.5786 0.55133 0.11516 0.0
H300 H 0.46347 0.47517 0.06577 0.0
C301 C 0.4421 0.4836 0.91879 0.0
C302 C 0.52328 0.52693 1.00095 0.0
C303 C 0.41708 0.48347 0.87786 0.0
C304 C 0.61016 0.53161 0.17106 0.0
C305 C 0.58311 0.53189 0.13026 0.0
C306 C 0.48179 0.48947 0.04823 0.0
C307 C 0.44637 0.50807 0.94013 0.0
C308 C 0.47489 0.50826 0.98344 0.0
C309 C 0.56075 0.5076 0.10959 0.0
C310 C 0.53104 0.5079 0.066 0.0
H311 H 0.38101 0.55119 0.86403 0.0
H312 H 0.42631 0.55146 0.93554 0.0
H313 H 0.41687 0.47504 0.99478 0.0
H314 H 0.59568 0.46361 0.18752 0.0
H315 H 0.55154 0.46377 0.11645 0.0
C316 C 0.28549 0.07018 0.92782 0.0
C317 C 0.29163 0.04818 0.90372 0.0
C318 C 0.33939 0.08164 0.95402 0.0
C319 C 0.51753 0.07862 0.98792 0.0
H320 H 0.48986 0.07801 0.09162 0.0
C321 C 0.66388 0.0397 0.14693 0.0
C322 C 0.72473 0.04888 0.14709 0.0
C323 C 0.60977 0.05092 0.12073 0.0
C324 C 0.49843 0.07855 0.0629 0.0
H325 H 0.35837 0.02151 0.88696 0.0
H326 H 0.4525 0.04162 0.93177 0.0
H327 H 0.39887 0.07727 0.03354 0.0
H328 H 0.77728 0.07807 0.12234 0.0
H329 H 0.68271 0.09826 0.07705 0.0
H330 H 0.61711 0.07775 1.01729 0.0
C331 C 0.40656 0.05065 0.93005 0.0
C332 C 0.44618 0.07844 0.02948 0.0
C333 C 0.3526 0.03927 0.90384 0.0
C334 C 0.73057 0.07097 0.12305 0.0
C335 C 0.67651 0.08227 0.09685 0.0
C336 C 0.56978 0.07871 1.02135 0.0
C337 C 0.40032 0.07098 0.95694 0.0
C338 C 0.45511 0.07739 0.99157 0.0
C339 C 0.61573 0.07135 0.09389 0.0
C340 C 0.56086 0.07759 0.05926 0.0
H341 H 0.23868 0.07707 0.92858 0.0
H342 H 0.33295 0.09755 0.97385 0.0
H343 H 0.5261 0.07815 0.9592 0.0
H344 H 0.65835 0.02185 0.16374 0.0
H345 H 0.56397 0.04169 0.11899 0.0
C346 C 0.16376 0.53912 0.64611 0.0
C347 C 0.22447 0.54821 0.6458 0.0
C348 C 0.10942 0.55023 0.61995 0.0
C349 C 0.06828 0.57791 0.52029 0.0
H350 H 0.89785 0.57673 0.53325 0.0
C351 C 0.78344 0.57033 0.42764 0.0
C352 C 0.78904 0.5484 0.40329 0.0
C353 C 0.83767 0.58157 0.45382 0.0
C354 C 0.94504 0.57782 0.52899 0.0
H355 H 0.27661 0.57713 0.62032 0.0
H356 H 0.18172 0.59718 0.57524 0.0
H357 H 0.98935 0.57713 0.59107 0.0
H358 H 0.85513 0.5216 0.3861 0.0
H359 H 0.94979 0.54136 0.43079 0.0
H360 H 0.02397 0.57766 0.45822 0.0
C361 C 0.17575 0.5813 0.59526 0.0
C362 C 0.99758 0.57772 0.56226 0.0
C363 C 0.23001 0.57009 0.62135 0.0
C364 C 0.84978 0.53934 0.40314 0.0
C365 C 0.90405 0.55051 0.42931 0.0
C366 C 0.01576 0.57804 0.48704 0.0
C367 C 0.11505 0.57047 0.59275 0.0
C368 C 0.05984 0.5767 0.55832 0.0
C369 C 0.89837 0.57075 0.45644 0.0
C370 C 0.9535 0.57692 0.49096 0.0
H371 H 0.15846 0.52148 0.66344 0.0
H372 H 0.06367 0.5411 0.61861 0.0
H373 H 0.11544 0.5769 0.51599 0.0
H374 H 0.73682 0.57733 0.4286 0.0
H375 H 0.83168 0.59742 0.47385 0.0
C376 C 0.95484 0.9963 0.15058 0.0
C377 C 0.89449 0.98526 0.14751 0.0
C378 C 0.98941 0.98793 0.12488 0.0
C379 C 0.99828 0.94263 0.04304 0.0
H380 H 0.02438 0.01129 0.99481 0.0
C381 C 0.146 0.96344 0.93124 0.0
C382 C 0.1225 0.98407 0.90349 0.0
C383 C 0.11128 0.95531 0.9572 0.0
C384 C 0.01676 0.99191 1.00763 0.0
H385 H 0.82402 0.95587 0.11713 0.0
H386 H 0.88433 0.94127 0.07163 0.0
H387 H 0.98848 0.01166 0.05377 0.0
H388 H 0.04375 0.01144 0.8796 0.0
H389 H 0.98175 0.99647 0.92347 0.0
H390 H 0.0278 0.92305 0.99643 0.0
C391 C 0.90578 0.95581 0.09456 0.0
C392 C 0.99728 0.99213 0.04184 0.0
C393 C 0.87135 0.9641 0.12058 0.0
C394 C 0.06152 0.99465 0.89955 0.0
C395 C 0.02665 0.98643 0.92519 0.0
C396 C 0.01902 0.94241 1.00881 0.0
C397 C 0.96323 0.96891 0.09498 0.0
C398 C 0.98797 0.96758 0.06003 0.0
C399 C 0.05312 0.96805 0.9559 0.0
C400 C 0.02781 0.96713 0.99065 0.0
H401 H 0.97232 0.01343 0.16995 0.0
H402 H 0.03378 0.99826 0.12591 0.0
H403 H 0.99084 0.92344 0.05638 0.0
H404 H 0.19376 0.95557 0.93535 0.0
H405 H 0.13297 0.94126 0.98074 0.0
C406 C 0.45655 0.49286 0.65346 0.0
C407 C 0.39361 0.48396 0.64739 0.0
C408 C 0.49193 0.48429 0.62825 0.0
C409 C 0.49563 0.4415 0.54231 0.0
H410 H 0.53927 0.51043 0.50206 0.0
C411 C 0.64312 0.46297 0.4294 0.0
C412 C 0.6197 0.48446 0.40313 0.0
C413 C 0.60994 0.45463 0.4561 0.0
C414 C 0.52702 0.49101 0.51283 0.0
H415 H 0.31945 0.45778 0.61262 0.0
H416 H 0.38126 0.44271 0.56837 0.0
H417 H 0.50392 0.51 0.56131 0.0
H418 H 0.5424 0.51308 0.3824 0.0
H419 H 0.48343 0.49804 0.42799 0.0
H420 H 0.51947 0.42272 0.49313 0.0
C421 C 0.40388 0.45582 0.59292 0.0
C422 C 0.50784 0.4907 0.54716 0.0
C423 C 0.36853 0.46441 0.61823 0.0
C424 C 0.56007 0.49575 0.40131 0.0
C425 C 0.52689 0.48742 0.42782 0.0
C426 C 0.51616 0.44177 0.50801 0.0
C427 C 0.46432 0.46709 0.59621 0.0
C428 C 0.49152 0.46603 0.56221 0.0
C429 C 0.55357 0.46804 0.45703 0.0
C430 C 0.53089 0.46666 0.4927 0.0
H431 H 0.47603 0.50859 0.67497 0.0
H432 H 0.53868 0.49311 0.6316 0.0
H433 H 0.48282 0.42224 0.55319 0.0
H434 H 0.68995 0.45454 0.43191 0.0
H435 H 0.63168 0.43981 0.47853 0.0
C436 C 0.29096 0.15162 0.7759 0.0
C437 C 0.26917 0.1491 0.80959 0.0
C438 C 0.31672 0.17637 0.76753 0.0
C439 C 0.38217 0.2432 0.80856 0.0
H440 H 0.28959 0.27153 0.7066 0.0
C441 C 0.35945 0.35867 0.77375 0.0
C442 C 0.34606 0.36715 0.73448 0.0
C443 C 0.36678 0.33084 0.78317 0.0
C444 C 0.31749 0.26392 0.73481 0.0
H445 H 0.26071 0.16982 0.86203 0.0
H446 H 0.30659 0.2128 0.84775 0.0
H447 H 0.27462 0.22437 0.72294 0.0
H448 H 0.33443 0.35394 0.67462 0.0
H449 H 0.35129 0.30565 0.69104 0.0
H450 H 0.4248 0.28282 0.82063 0.0
C451 C 0.30367 0.19576 0.82779 0.0
C452 C 0.30857 0.23676 0.74419 0.0
C453 C 0.27701 0.17122 0.83581 0.0
C454 C 0.34463 0.34775 0.70514 0.0
C455 C 0.35348 0.32006 0.71459 0.0
C456 C 0.39195 0.27033 0.79896 0.0
C457 C 0.32205 0.19886 0.793 0.0
C458 C 0.33959 0.2263 0.78146 0.0
C459 C 0.36179 0.31104 0.75348 0.0
C460 C 0.3585 0.28128 0.76226 0.0
H461 H 0.28489 0.13503 0.75493 0.0
H462 H 0.33065 0.17823 0.74053 0.0
H463 H 0.407 0.23556 0.83746 0.0
H464 H 0.35983 0.37332 0.79677 0.0
H465 H 0.37241 0.32485 0.81339 0.0
C466 C 0.64002 0.36126 0.2675 0.0
C467 C 0.66226 0.36627 0.30809 0.0
C468 C 0.63167 0.33437 0.25337 0.0
C469 C 0.6203 0.26192 0.28113 0.0
H470 H 0.72479 0.24782 0.21082 0.0
C471 C 0.72592 0.15553 0.26673 0.0
C472 C 0.74264 0.1491 0.23225 0.0
C473 C 0.69945 0.18105 0.2708 0.0
C474 C 0.69387 0.25119 0.22958 0.0
H475 H 0.68902 0.34743 0.36571 0.0
H476 H 0.67308 0.30064 0.34114 0.0
H477 H 0.70436 0.29454 0.22644 0.0
H478 H 0.74074 0.16312 0.17396 0.0
H479 H 0.69114 0.20688 0.1799 0.0
H480 H 0.61015 0.21855 0.28461 0.0
C481 C 0.66235 0.31733 0.32022 0.0
C482 C 0.68234 0.27814 0.23861 0.0
C483 C 0.6718 0.34409 0.33427 0.0
C484 C 0.72861 0.16776 0.20096 0.0
C485 C 0.70081 0.19296 0.20462 0.0
C486 C 0.63096 0.23489 0.2716 0.0
C487 C 0.64433 0.31214 0.27962 0.0
C488 C 0.64683 0.28379 0.26523 0.0
C489 C 0.6882 0.20046 0.24016 0.0
C490 C 0.66936 0.22911 0.24647 0.0
H491 H 0.63301 0.37797 0.24667 0.0
H492 H 0.61762 0.3309 0.22191 0.0
H493 H 0.59243 0.26573 0.30161 0.0
H494 H 0.73705 0.14156 0.29144 0.0
H495 H 0.69125 0.18603 0.2988 0.0
C496 C 0.86946 0.86168 0.28246 0.0
C497 C 0.84731 0.86665 0.24186 0.0
C498 C 0.87761 0.83481 0.29665 0.0
C499 C 0.8891 0.76238 0.26911 0.0
H500 H 0.78463 0.74815 0.33945 0.0
C501 C 0.78441 0.65577 0.28404 0.0
C502 C 0.76786 0.64933 0.31859 0.0
C503 C 0.81054 0.68137 0.27982 0.0
C504 C 0.81554 0.75157 0.32068 0.0
H505 H 0.82043 0.84774 0.18428 0.0
H506 H 0.836 0.80098 0.20896 0.0
H507 H 0.80478 0.79491 0.32363 0.0
H508 H 0.76973 0.66343 0.37683 0.0
H509 H 0.8187 0.70734 0.37059 0.0
H510 H 0.89956 0.71903 0.26584 0.0
C511 C 0.8468 0.81769 0.22984 0.0
C512 C 0.8269 0.77853 0.31154 0.0
C513 C 0.83755 0.84444 0.21572 0.0
C514 C 0.7817 0.66808 0.34977 0.0
C515 C 0.80915 0.69335 0.34595 0.0
C516 C 0.87861 0.73534 0.27876 0.0
C517 C 0.86485 0.81255 0.27045 0.0
C518 C 0.86241 0.78421 0.28491 0.0
C519 C 0.82163 0.70084 0.31036 0.0
C520 C 0.84023 0.72952 0.3039 0.0
H521 H 0.87664 0.87841 0.30325 0.0
H522 H 0.89166 0.83138 0.32812 0.0
H523 H 0.91698 0.76623 0.24864 0.0
H524 H 0.77345 0.64173 0.25941 0.0
H525 H 0.81864 0.68633 0.25178 0.0
C526 C 0.21165 0.6509 0.77096 0.0
C527 C 0.23516 0.64869 0.73789 0.0
C528 C 0.18496 0.67549 0.77901 0.0
C529 C 0.12206 0.74281 0.73798 0.0
H530 H 0.21013 0.76998 0.84156 0.0
C531 C 0.1489 0.85787 0.77532 0.0
C532 C 0.16008 0.866 0.81462 0.0
C533 C 0.14041 0.83017 0.7652 0.0
C534 C 0.18346 0.76269 0.81285 0.0
H535 H 0.24543 0.66973 0.68608 0.0
H536 H 0.19816 0.7124 0.69984 0.0
H537 H 0.22458 0.72289 0.82484 0.0
H538 H 0.16643 0.85233 0.87369 0.0
H539 H 0.14763 0.80431 0.85594 0.0
H540 H 0.08147 0.78275 0.72577 0.0
C541 C 0.20036 0.69527 0.71956 0.0
C542 C 0.19205 0.73557 0.80326 0.0
C543 C 0.22784 0.67089 0.71183 0.0
C544 C 0.15799 0.84643 0.84316 0.0
C545 C 0.14803 0.81889 0.83298 0.0
C546 C 0.11268 0.76993 0.74775 0.0
C547 C 0.18051 0.69812 0.75387 0.0
C548 C 0.16274 0.72551 0.76546 0.0
C549 C 0.14205 0.81018 0.7942 0.0
C550 C 0.14455 0.78046 0.78505 0.0
H551 H 0.21726 0.63425 0.7918 0.0
H552 H 0.16984 0.67712 0.80562 0.0
H553 H 0.09853 0.7355 0.70867 0.0
H554 H 0.15123 0.87265 0.75294 0.0
H555 H 0.13662 0.8244 0.73512 0.0
loop_
_geom_bond_atom_site_label_1
_geom_bond_atom_site_label_2
_geom_bond_distance
_geom_bond_site_symmetry_2
_ccdc_geom_bond_type
Zn0 N4 2.020 . S
Zn0 O8 2.019 . S
Zn0 N10 2.119 . S
Zn0 O18 1.975 . S
C1 N2 1.334 . S
C1 N5 1.336 . S
N2 C1 1.334 . S
N2 C3 1.334 1_565 S
C3 N2 1.334 1_545 S
C3 N4 1.336 . S
N4 Zn0 2.020 . S
N4 C3 1.336 . S
N4 N5 1.354 1_545 S
N5 C1 1.336 . S
N5 N4 1.354 1_565 S
N5 Zn9 2.020 . S
C6 O7 1.244 1_665 S
C6 O30 1.257 1_655 S
O7 C6 1.244 1_445 S
O8 Zn0 2.019 . S
O8 C28 1.257 . S
Zn9 N5 2.020 . S
Zn9 O16 1.975 . S
Zn9 N25 2.119 . S
Zn9 O30 2.019 . S
N10 Zn0 2.119 . S
N10 C12 1.334 . S
N10 C13 1.328 . S
C11 C12 1.391 . S
C11 N14 1.329 . S
C11 H32 0.930 . S
C12 N10 1.334 . S
C12 C11 1.391 . S
C12 H19 0.930 . S
C13 N10 1.328 . S
C13 C15 1.392 . S
C13 H20 0.930 . S
N14 C11 1.329 . S
N14 C15 1.331 . S
C15 C13 1.392 . S
C15 N14 1.331 . S
O16 Zn9 1.975 . S
O16 C17 1.250 1_565 S
C17 O16 1.250 1_545 S
C17 O18 1.254 . S
O18 Zn0 1.975 . S
O18 C17 1.254 . S
H19 C12 0.930 . S
H20 C13 0.930 . S
C21 C22 1.392 . S
C21 N25 1.328 . S
C21 H27 0.930 . S
C22 C21 1.392 . S
C22 N26 1.331 . S
C23 C24 1.391 . S
C23 N26 1.329 . S
C23 H33 0.930 . S
C24 C23 1.391 . S
C24 N25 1.334 . S
C24 H31 0.930 . S
N25 Zn9 2.119 . S
N25 C21 1.328 . S
N25 C24 1.334 . S
N26 C22 1.331 . S
N26 C23 1.329 . S
H27 C21 0.930 . S
C28 O8 1.257 . S
C28 O29 1.244 1_545 S
O29 C28 1.244 1_565 S
O30 C6 1.257 1_455 S
O30 Zn9 2.019 . S
H31 C24 0.930 . S
H32 C11 0.930 . S
H33 C23 0.930 . S
Zn34 N38 2.020 . S
Zn34 O42 2.019 . S
Zn34 N44 2.119 . S
Zn34 O52 1.975 . S
C35 N36 1.334 . S
C35 N39 1.336 . S
N36 C35 1.334 . S
N36 C37 1.334 1_565 S
C37 N36 1.334 1_545 S
C37 N38 1.336 . S
N38 Zn34 2.020 . S
N38 C37 1.336 . S
N38 N39 1.354 1_545 S
N39 C35 1.336 . S
N39 N38 1.354 1_565 S
N39 Zn43 2.020 . S
C40 O41 1.244 1_465 S
C40 O64 1.257 1_455 S
O41 C40 1.244 1_645 S
O42 Zn34 2.019 . S
O42 C62 1.257 . S
Zn43 N39 2.020 . S
Zn43 O50 1.975 . S
Zn43 N59 2.119 . S
Zn43 O64 2.019 . S
N44 Zn34 2.119 . S
N44 C46 1.334 . S
N44 C47 1.328 . S
C45 C46 1.391 . S
C45 N48 1.329 . S
C45 H66 0.930 . S
C46 N44 1.334 . S
C46 C45 1.391 . S
C46 H53 0.930 . S
C47 N44 1.328 . S
C47 C49 1.392 . S
C47 H54 0.930 . S
N48 C45 1.329 . S
N48 C49 1.331 . S
C49 C47 1.392 . S
C49 N48 1.331 . S
O50 Zn43 1.975 . S
O50 C51 1.250 1_565 S
C51 O50 1.250 1_545 S
C51 O52 1.254 . S
O52 Zn34 1.975 . S
O52 C51 1.254 . S
H53 C46 0.930 . S
H54 C47 0.930 . S
C55 C56 1.392 . S
C55 N59 1.328 . S
C55 H61 0.930 . S
C56 C55 1.392 . S
C56 N60 1.331 . S
C57 C58 1.391 . S
C57 N60 1.329 . S
C57 H67 0.930 . S
C58 C57 1.391 . S
C58 N59 1.334 . S
C58 H65 0.930 . S
N59 Zn43 2.119 . S
N59 C55 1.328 . S
N59 C58 1.334 . S
N60 C56 1.331 . S
N60 C57 1.329 . S
H61 C55 0.930 . S
C62 O42 1.257 . S
C62 O63 1.244 1_545 S
O63 C62 1.244 1_565 S
O64 C40 1.257 1_655 S
O64 Zn43 2.019 . S
H65 C58 0.930 . S
H66 C45 0.930 . S
H67 C57 0.930 . S
Zn68 N72 2.020 . S
Zn68 O76 2.019 . S
Zn68 N78 2.119 . S
Zn68 O86 1.975 . S
C69 N70 1.334 . S
C69 N73 1.336 . S
N70 C69 1.334 . S
N70 C71 1.334 . S
C71 N70 1.334 . S
C71 N72 1.336 . S
N72 Zn68 2.020 . S
N72 C71 1.336 . S
N72 N73 1.354 . S
N73 C69 1.336 . S
N73 N72 1.354 . S
N73 Zn77 2.020 . S
C74 O75 1.244 . S
C74 O98 1.257 . S
O75 C74 1.244 . S
O76 Zn68 2.019 . S
O76 C96 1.257 . S
Zn77 N73 2.020 . S
Zn77 O84 1.975 . S
Zn77 N93 2.119 . S
Zn77 O98 2.019 . S
N78 Zn68 2.119 . S
N78 C80 1.334 . S
N78 C81 1.328 . S
C79 C80 1.391 . S
C79 N82 1.329 . S
C79 H100 0.930 . S
C80 N78 1.334 . S
C80 C79 1.391 . S
C80 H87 0.930 . S
C81 N78 1.328 . S
C81 C83 1.392 . S
C81 H88 0.930 . S
N82 C79 1.329 . S
N82 C83 1.331 . S
C83 C81 1.392 . S
C83 N82 1.331 . S
O84 Zn77 1.975 . S
O84 C85 1.252 . S
C85 O84 1.252 . S
C85 O86 1.252 . S
O86 Zn68 1.975 . S
O86 C85 1.252 . S
H87 C80 0.930 . S
H88 C81 0.930 . S
C89 C90 1.392 . S
C89 N93 1.328 . S
C89 H95 0.930 . S
C90 C89 1.392 . S
C90 N94 1.331 . S
C91 C92 1.391 . S
C91 N94 1.329 . S
C91 H101 0.930 . S
C92 C91 1.391 . S
C92 N93 1.334 . S
C92 H99 0.930 . S
N93 Zn77 2.119 . S
N93 C89 1.328 . S
N93 C92 1.334 . S
N94 C90 1.331 . S
N94 C91 1.329 . S
H95 C89 0.930 . S
C96 O76 1.257 . S
C96 O97 1.244 . S
O97 C96 1.244 . S
O98 C74 1.257 . S
O98 Zn77 2.019 . S
H99 C92 0.930 . S
H100 C79 0.930 . S
H101 C91 0.930 . S
Zn102 N106 2.020 . S
Zn102 O110 2.019 . S
Zn102 N112 2.119 . S
Zn102 O120 1.975 . S
C103 N104 1.334 . S
C103 N107 1.336 . S
N104 C103 1.334 . S
N104 C105 1.334 . S
C105 N104 1.334 . S
C105 N106 1.336 . S
N106 Zn102 2.020 . S
N106 C105 1.336 . S
N106 N107 1.354 . S
N107 C103 1.336 . S
N107 N106 1.354 . S
N107 Zn111 2.020 . S
C108 O109 1.244 . S
C108 O132 1.257 . S
O109 C108 1.244 . S
O110 Zn102 2.019 . S
O110 C130 1.257 . S
Zn111 N107 2.020 . S
Zn111 O118 1.975 . S
Zn111 N127 2.119 . S
Zn111 O132 2.019 . S
N112 Zn102 2.119 . S
N112 C114 1.334 . S
N112 C115 1.328 . S
C113 C114 1.391 . S
C113 N116 1.329 . S
C113 H134 0.930 . S
C114 N112 1.334 . S
C114 C113 1.391 . S
C114 H121 0.930 . S
C115 N112 1.328 . S
C115 C117 1.392 . S
C115 H122 0.930 . S
N116 C113 1.329 . S
N116 C117 1.331 . S
C117 C115 1.392 . S
C117 N116 1.331 . S
O118 Zn111 1.975 . S
O118 C119 1.252 . S
C119 O118 1.252 . S
C119 O120 1.252 . S
O120 Zn102 1.975 . S
O120 C119 1.252 . S
H121 C114 0.930 . S
H122 C115 0.930 . S
C123 C124 1.392 . S
C123 N127 1.328 . S
C123 H129 0.930 . S
C124 C123 1.392 . S
C124 N128 1.331 . S
C125 C126 1.391 . S
C125 N128 1.329 . S
C125 H135 0.930 . S
C126 C125 1.391 . S
C126 N127 1.334 . S
C126 H133 0.930 . S
N127 Zn111 2.119 . S
N127 C123 1.328 . S
N127 C126 1.334 . S
N128 C124 1.331 . S
N128 C125 1.329 . S
H129 C123 0.930 . S
C130 O110 1.257 . S
C130 O131 1.244 . S
O131 C130 1.244 . S
O132 C108 1.257 . S
O132 Zn111 2.019 . S
H133 C126 0.930 . S
H134 C113 0.930 . S
H135 C125 0.930 . S
C136 C137 1.349 . S
C136 C138 1.327 . S
C136 H161 0.950 . S
C137 C136 1.349 . S
C137 C153 1.349 1_565 S
C138 C136 1.327 . S
C138 C157 1.429 . S
C138 H162 0.950 . S
C139 C156 1.574 . S
C139 C158 1.368 1_545 S
C139 H163 0.949 . S
H140 C144 0.949 . S
C141 C142 1.349 . S
C141 C143 1.327 . S
C141 H164 0.950 . S
C142 C141 1.349 . S
C142 C154 1.349 1_545 S
C143 C141 1.327 . S
C143 C159 1.429 . S
C143 H165 0.950 . S
C144 H140 0.949 . S
C144 C152 1.574 . S
C144 C160 1.368 1_565 S
H145 C153 0.950 . S
H146 C151 0.950 . S
H147 C152 0.949 . S
H148 C154 0.950 . S
H149 C155 0.950 . S
H150 C156 0.949 . S
C151 H146 0.950 . S
C151 C153 1.327 . S
C151 C157 1.429 1_545 S
C152 C144 1.574 . S
C152 H147 0.949 . S
C152 C158 1.368 . S
C153 C137 1.349 1_545 S
C153 H145 0.950 . S
C153 C151 1.327 . S
C154 C142 1.349 1_565 S
C154 H148 0.950 . S
C154 C155 1.327 . S
C155 H149 0.950 . S
C155 C154 1.327 . S
C155 C159 1.429 1_565 S
C156 C139 1.574 . S
C156 H150 0.949 . S
C156 C160 1.368 . S
C157 C138 1.429 . S
C157 C151 1.429 1_565 S
C157 C158 1.523 . S
C158 C139 1.368 1_565 S
C158 C152 1.368 . S
C158 C157 1.523 . S
C159 C143 1.429 . S
C159 C155 1.429 1_545 S
C159 C160 1.523 . S
C160 C144 1.368 1_545 S
C160 C156 1.368 . S
C160 C159 1.523 . S
H161 C136 0.950 . S
H162 C138 0.950 . S
H163 C139 0.949 . S
H164 C141 0.950 . S
H165 C143 0.950 . S
C166 C167 1.349 1_565 S
C166 C168 1.327 . S
C166 H191 0.950 . S
C167 C166 1.349 1_545 S
C167 C183 1.349 . S
C168 C166 1.327 . S
C168 C187 1.429 1_565 S
C168 H192 0.950 . S
C169 C186 1.574 . S
C169 C188 1.368 . S
C169 H193 0.949 . S
H170 C174 0.949 . S
C171 C172 1.349 1_545 S
C171 C173 1.327 . S
C171 H194 0.950 . S
C172 C171 1.349 1_565 S
C172 C184 1.349 . S
C173 C171 1.327 . S
C173 C189 1.429 1_545 S
C173 H195 0.950 . S
C174 H170 0.949 . S
C174 C182 1.574 . S
C174 C190 1.368 . S
H175 C183 0.950 . S
H176 C181 0.950 . S
H177 C182 0.949 . S
H178 C184 0.950 . S
H179 C185 0.950 . S
H180 C186 0.949 . S
C181 H176 0.950 . S
C181 C183 1.327 . S
C181 C187 1.429 . S
C182 C174 1.574 . S
C182 H177 0.949 . S
C182 C188 1.368 1_565 S
C183 C167 1.349 . S
C183 H175 0.950 . S
C183 C181 1.327 . S
C184 C172 1.349 . S
C184 H178 0.950 . S
C184 C185 1.327 . S
C185 H179 0.950 . S
C185 C184 1.327 . S
C185 C189 1.429 . S
C186 C169 1.574 . S
C186 H180 0.949 . S
C186 C190 1.368 1_545 S
C187 C168 1.429 1_545 S
C187 C181 1.429 . S
C187 C188 1.523 . S
C188 C169 1.368 . S
C188 C182 1.368 1_545 S
C188 C187 1.523 . S
C189 C173 1.429 1_565 S
C189 C185 1.429 . S
C189 C190 1.523 . S
C190 C174 1.368 . S
C190 C186 1.368 1_565 S
C190 C189 1.523 . S
H191 C166 0.950 . S
H192 C168 0.950 . S
H193 C169 0.949 . S
H194 C171 0.950 . S
H195 C173 0.950 . S
C196 C197 1.349 . S
C196 C198 1.327 . S
C196 H221 0.950 . S
C197 C196 1.349 . S
C197 C213 1.349 . S
C198 C196 1.327 . S
C198 C217 1.429 . S
C198 H222 0.950 . S
C199 C216 1.574 . S
C199 C218 1.368 . S
C199 H223 0.949 . S
H200 C204 0.949 . S
C201 C202 1.349 . S
C201 C203 1.327 1_655 S
C201 H224 0.950 . S
C202 C201 1.349 . S
C202 C214 1.349 . S
C203 C201 1.327 1_455 S
C203 C219 1.429 . S
C203 H225 0.950 . S
C204 H200 0.949 . S
C204 C212 1.574 . S
C204 C220 1.368 . S
H205 C213 0.950 . S
H206 C211 0.950 . S
H207 C212 0.949 . S
H208 C214 0.950 . S
H209 C215 0.950 . S
H210 C216 0.949 . S
C211 H206 0.950 . S
C211 C213 1.327 . S
C211 C217 1.429 . S
C212 C204 1.574 . S
C212 H207 0.949 . S
C212 C218 1.368 . S
C213 C197 1.349 . S
C213 H205 0.950 . S
C213 C211 1.327 . S
C214 C202 1.349 . S
C214 H208 0.950 . S
C214 C215 1.327 1_655 S
C215 H209 0.950 . S
C215 C214 1.327 1_455 S
C215 C219 1.429 . S
C216 C199 1.574 . S
C216 H210 0.949 . S
C216 C220 1.368 . S
C217 C198 1.429 . S
C217 C211 1.429 . S
C217 C218 1.523 . S
C218 C199 1.368 . S
C218 C212 1.368 . S
C218 C217 1.523 . S
C219 C203 1.429 . S
C219 C215 1.429 . S
C219 C220 1.523 . S
C220 C204 1.368 . S
C220 C216 1.368 . S
C220 C219 1.523 . S
H221 C196 0.950 . S
H222 C198 0.950 . S
H223 C199 0.949 . S
H224 C201 0.950 . S
H225 C203 0.950 . S
C226 C227 1.349 . S
C226 C228 1.327 . S
C226 H251 0.950 . S
C227 C226 1.349 . S
C227 C243 1.349 . S
C228 C226 1.327 . S
C228 C247 1.429 . S
C228 H252 0.950 . S
C229 C246 1.574 . S
C229 C248 1.368 . S
C229 H253 0.949 . S
H230 C234 0.949 . S
C231 C232 1.349 . S
C231 C233 1.327 . S
C231 H254 0.950 . S
C232 C231 1.349 . S
C232 C244 1.349 . S
C233 C231 1.327 . S
C233 C249 1.429 1_455 S
C233 H255 0.950 1_455 S
C234 H230 0.949 . S
C234 C242 1.574 . S
C234 C250 1.368 . S
H235 C243 0.950 . S
H236 C241 0.950 . S
H237 C242 0.949 . S
H238 C244 0.950 . S
H239 C245 0.950 . S
H240 C246 0.949 . S
C241 H236 0.950 . S
C241 C243 1.327 . S
C241 C247 1.429 . S
C242 C234 1.574 . S
C242 H237 0.949 . S
C242 C248 1.368 . S
C243 C227 1.349 . S
C243 H235 0.950 . S
C243 C241 1.327 . S
C244 C232 1.349 . S
C244 H238 0.950 . S
C244 C245 1.327 1_455 S
C245 H239 0.950 . S
C245 C244 1.327 1_655 S
C245 C249 1.429 . S
C246 C229 1.574 . S
C246 H240 0.949 . S
C246 C250 1.368 . S
C247 C228 1.429 . S
C247 C241 1.429 . S
C247 C248 1.523 . S
C248 C229 1.368 . S
C248 C242 1.368 . S
C248 C247 1.523 . S
C249 C233 1.429 1_655 S
C249 C245 1.429 . S
C249 C250 1.523 . S
C250 C234 1.368 . S
C250 C246 1.368 . S
C250 C249 1.523 . S
H251 C226 0.950 . S
H252 C228 0.950 . S
H253 C229 0.949 . S
H254 C231 0.950 . S
H255 C233 0.950 1_655 S
C256 C257 1.363 . S
C256 C258 1.327 . S
C256 H281 0.950 . S
C257 C256 1.363 . S
C257 C273 1.335 1_545 S
C258 C256 1.327 . S
C258 C277 1.442 . S
C258 H282 0.950 . S
C259 C276 1.574 . S
C259 C278 1.354 1_665 S
C259 H283 0.949 . S
H260 C264 0.949 . S
C261 C262 1.335 1_565 S
C261 C263 1.327 . S
C261 H284 0.950 . S
C262 C261 1.335 1_545 S
C262 C274 1.363 . S
C263 C261 1.327 . S
C263 C279 1.415 1_565 S
C263 H285 0.950 . S
C264 H260 0.949 . S
C264 C272 1.574 . S
C264 C280 1.383 1_455 S
H265 C273 0.950 . S
H266 C271 0.950 . S
H267 C272 0.949 . S
H268 C274 0.950 . S
H269 C275 0.950 . S
H270 C276 0.949 . S
C271 H266 0.950 . S
C271 C273 1.327 . S
C271 C277 1.415 1_565 S
C272 C264 1.574 . S
C272 H267 0.949 . S
C272 C278 1.383 . S
C273 C257 1.335 1_565 S
C273 H265 0.950 . S
C273 C271 1.327 . S
C274 C262 1.363 . S
C274 H268 0.950 . S
C274 C275 1.327 . S
C275 H269 0.950 . S
C275 C274 1.327 . S
C275 C279 1.442 . S
C276 C259 1.574 . S
C276 H270 0.949 . S
C276 C280 1.354 1_565 S
C277 C258 1.442 . S
C277 C271 1.415 1_545 S
C277 C278 1.523 . S
C278 C259 1.354 1_445 S
C278 C272 1.383 . S
C278 C277 1.523 . S
C279 C263 1.415 1_545 S
C279 C275 1.442 . S
C279 C280 1.523 . S
C280 C264 1.383 1_655 S
C280 C276 1.354 1_545 S
C280 C279 1.523 . S
H281 C256 0.950 . S
H282 C258 0.950 . S
H283 C259 0.949 . S
H284 C261 0.950 . S
H285 C263 0.950 . S
C286 C287 1.349 . S
C286 C288 1.327 . S
C286 H311 0.950 . S
C287 C286 1.349 . S
C287 C303 1.349 . S
C288 C286 1.327 . S
C288 C307 1.429 . S
C288 H312 0.950 . S
C289 C306 1.574 1_556 S
C289 C308 1.368 . S
C289 H313 0.949 . S
H290 C294 0.949 . S
C291 C292 1.349 . S
C291 C293 1.327 . S
C291 H314 0.950 . S
C292 C291 1.349 . S
C292 C304 1.349 . S
C293 C291 1.327 . S
C293 C309 1.429 . S
C293 H315 0.950 . S
C294 H290 0.949 . S
C294 C302 1.574 1_554 S
C294 C310 1.368 . S
H295 C303 0.950 . S
H296 C301 0.950 . S
H297 C302 0.949 . S
H298 C304 0.950 . S
H299 C305 0.950 . S
H300 C306 0.949 . S
C301 H296 0.950 . S
C301 C303 1.327 . S
C301 C307 1.429 . S
C302 C294 1.574 1_556 S
C302 H297 0.949 . S
C302 C308 1.368 . S
C303 C287 1.349 . S
C303 H295 0.950 . S
C303 C301 1.327 . S
C304 C292 1.349 . S
C304 H298 0.950 . S
C304 C305 1.327 . S
C305 H299 0.950 . S
C305 C304 1.327 . S
C305 C309 1.429 . S
C306 C289 1.574 1_554 S
C306 H300 0.949 . S
C306 C310 1.368 . S
C307 C288 1.429 . S
C307 C301 1.429 . S
C307 C308 1.523 . S
C308 C289 1.368 . S
C308 C302 1.368 . S
C308 C307 1.523 . S
C309 C293 1.429 . S
C309 C305 1.429 . S
C309 C310 1.523 . S
C310 C294 1.368 . S
C310 C306 1.368 . S
C310 C309 1.523 . S
H311 C286 0.950 . S
H312 C288 0.950 . S
H313 C289 0.949 . S
H314 C291 0.950 . S
H315 C293 0.950 . S
C316 C317 1.349 . S
C316 C318 1.327 . S
C316 H341 0.950 . S
C317 C316 1.349 . S
C317 C333 1.349 1_545 S
C318 C316 1.327 . S
C318 C337 1.429 . S
C318 H342 0.950 . S
C319 C336 1.574 1_556 S
C319 C338 1.368 1_565 S
C319 H343 0.949 . S
H320 C324 0.949 . S
C321 C322 1.349 1_565 S
C321 C323 1.327 . S
C321 H344 0.950 . S
C322 C321 1.349 1_545 S
C322 C334 1.349 . S
C323 C321 1.327 . S
C323 C339 1.429 1_565 S
C323 H345 0.950 . S
C324 H320 0.949 . S
C324 C332 1.574 1_554 S
C324 C340 1.368 . S
H325 C333 0.950 . S
H326 C331 0.950 . S
H327 C332 0.949 . S
H328 C334 0.950 . S
H329 C335 0.950 . S
H330 C336 0.949 . S
C331 H326 0.950 . S
C331 C333 1.327 . S
C331 C337 1.429 1_565 S
C332 C324 1.574 1_556 S
C332 H327 0.949 . S
C332 C338 1.368 . S
C333 C317 1.349 1_565 S
C333 H325 0.950 . S
C333 C331 1.327 . S
C334 C322 1.349 . S
C334 H328 0.950 . S
C334 C335 1.327 . S
C335 H329 0.950 . S
C335 C334 1.327 . S
C335 C339 1.429 . S
C336 C319 1.574 1_554 S
C336 H330 0.949 . S
C336 C340 1.368 1_565 S
C337 C318 1.429 . S
C337 C331 1.429 1_545 S
C337 C338 1.523 . S
C338 C319 1.368 1_545 S
C338 C332 1.368 . S
C338 C337 1.523 . S
C339 C323 1.429 1_545 S
C339 C335 1.429 . S
C339 C340 1.523 . S
C340 C324 1.368 . S
C340 C336 1.368 1_545 S
C340 C339 1.523 . S
H341 C316 0.950 . S
H342 C318 0.950 . S
H343 C319 0.949 . S
H344 C321 0.950 . S
H345 C323 0.950 . S
C346 C347 1.349 . S
C346 C348 1.327 . S
C346 H371 0.950 . S
C347 C346 1.349 . S
C347 C363 1.349 . S
C348 C346 1.327 . S
C348 C367 1.429 . S
C348 H372 0.950 . S
C349 C366 1.574 1_455 S
C349 C368 1.368 . S
C349 H373 0.949 . S
H350 C354 0.949 . S
C351 C352 1.349 . S
C351 C353 1.327 . S
C351 H374 0.950 . S
C352 C351 1.349 . S
C352 C364 1.349 . S
C353 C351 1.327 . S
C353 C369 1.429 . S
C353 H375 0.950 . S
C354 H350 0.949 . S
C354 C362 1.574 1_655 S
C354 C370 1.368 . S
H355 C363 0.950 . S
H356 C361 0.950 . S
H357 C362 0.949 . S
H358 C364 0.950 . S
H359 C365 0.950 . S
H360 C366 0.949 . S
C361 H356 0.950 . S
C361 C363 1.327 . S
C361 C367 1.429 . S
C362 C354 1.574 1_455 S
C362 H357 0.949 . S
C362 C368 1.368 . S
C363 C347 1.349 . S
C363 H355 0.950 . S
C363 C361 1.327 . S
C364 C352 1.349 . S
C364 H358 0.950 . S
C364 C365 1.327 . S
C365 H359 0.950 . S
C365 C364 1.327 . S
C365 C369 1.429 . S
C366 C349 1.574 1_655 S
C366 H360 0.949 . S
C366 C370 1.368 . S
C367 C348 1.429 . S
C367 C361 1.429 . S
C367 C368 1.523 . S
C368 C349 1.368 . S
C368 C362 1.368 . S
C368 C367 1.523 . S
C369 C353 1.429 . S
C369 C365 1.429 . S
C369 C370 1.523 . S
C370 C354 1.368 . S
C370 C366 1.368 . S
C370 C369 1.523 . S
H371 C346 0.950 . S
H372 C348 0.950 . S
H373 C349 0.949 . S
H374 C351 0.950 . S
H375 C353 0.950 . S
C376 C377 1.349 1_545 S
C376 C378 1.327 . S
C376 H401 0.950 . S
C377 C376 1.349 1_565 S
C377 C393 1.349 . S
C378 C376 1.327 . S
C378 C397 1.429 1_545 S
C378 H402 0.950 . S
C379 C396 1.574 1_554 S
C379 C398 1.368 . S
C379 H403 0.949 . S
H380 C384 0.949 . S
C381 C382 1.349 . S
C381 C383 1.327 . S
C381 H404 0.950 . S
C382 C381 1.349 . S
C382 C394 1.349 1_565 S
C383 C381 1.327 . S
C383 C399 1.429 . S
C383 H405 0.950 . S
C384 H380 0.949 . S
C384 C392 1.574 1_556 S
C384 C400 1.368 1_545 S
H385 C393 0.950 . S
H386 C391 0.950 . S
H387 C392 0.949 . S
H388 C394 0.950 . S
H389 C395 0.950 . S
H390 C396 0.949 . S
C391 H386 0.950 . S
C391 C393 1.327 . S
C391 C397 1.429 . S
C392 C384 1.574 1_554 S
C392 H387 0.949 . S
C392 C398 1.368 1_445 S
C393 C377 1.349 . S
C393 H385 0.950 . S
C393 C391 1.327 . S
C394 C382 1.349 1_545 S
C394 H388 0.950 . S
C394 C395 1.327 . S
C395 H389 0.950 . S
C395 C394 1.327 . S
C395 C399 1.429 1_545 S
C396 C379 1.574 1_556 S
C396 H390 0.949 . S
C396 C400 1.368 1_655 S
C397 C378 1.429 1_565 S
C397 C391 1.429 . S
C397 C398 1.523 . S
C398 C379 1.368 . S
C398 C392 1.368 1_665 S
C398 C397 1.523 . S
C399 C383 1.429 . S
C399 C395 1.429 1_565 S
C399 C400 1.523 . S
C400 C384 1.368 1_565 S
C400 C396 1.368 1_455 S
C400 C399 1.523 . S
H401 C376 0.950 . S
H402 C378 0.950 . S
H403 C379 0.949 . S
H404 C381 0.950 . S
H405 C383 0.950 . S
C406 C407 1.349 . S
C406 C408 1.327 . S
C406 H431 0.950 . S
C407 C406 1.349 . S
C407 C423 1.349 . S
C408 C406 1.327 . S
C408 C427 1.429 . S
C408 H432 0.950 . S
C409 C426 1.574 . S
C409 C428 1.368 . S
C409 H433 0.949 . S
H410 C414 0.949 . S
C411 C412 1.349 . S
C411 C413 1.327 . S
C411 H434 0.950 . S
C412 C411 1.349 . S
C412 C424 1.349 . S
C413 C411 1.327 . S
C413 C429 1.429 . S
C413 H435 0.950 . S
C414 H410 0.949 . S
C414 C422 1.574 . S
C414 C430 1.368 . S
H415 C423 0.950 . S
H416 C421 0.950 . S
H417 C422 0.949 . S
H418 C424 0.950 . S
H419 C425 0.950 . S
H420 C426 0.949 . S
C421 H416 0.950 . S
C421 C423 1.327 . S
C421 C427 1.429 . S
C422 C414 1.574 . S
C422 H417 0.949 . S
C422 C428 1.368 . S
C423 C407 1.349 . S
C423 H415 0.950 . S
C423 C421 1.327 . S
C424 C412 1.349 . S
C424 H418 0.950 . S
C424 C425 1.327 . S
C425 H419 0.950 . S
C425 C424 1.327 . S
C425 C429 1.429 . S
C426 C409 1.574 . S
C426 H420 0.949 . S
C426 C430 1.368 . S
C427 C408 1.429 . S
C427 C421 1.429 . S
C427 C428 1.523 . S
C428 C409 1.368 . S
C428 C422 1.368 . S
C428 C427 1.523 . S
C429 C413 1.429 . S
C429 C425 1.429 . S
C429 C430 1.523 . S
C430 C414 1.368 . S
C430 C426 1.368 . S
C430 C429 1.523 . S
H431 C406 0.950 . S
H432 C408 0.950 . S
H433 C409 0.949 . S
H434 C411 0.950 . S
H435 C413 0.950 . S
C436 C437 1.349 . S
C436 C438 1.327 . S
C436 H461 0.950 . S
C437 C436 1.349 . S
C437 C453 1.349 . S
C438 C436 1.327 . S
C438 C457 1.429 . S
C438 H462 0.950 . S
C439 C456 1.574 . S
C439 C458 1.368 . S
C439 H463 0.949 . S
H440 C444 0.949 . S
C441 C442 1.349 . S
C441 C443 1.327 . S
C441 H464 0.950 . S
C442 C441 1.349 . S
C442 C454 1.349 . S
C443 C441 1.327 . S
C443 C459 1.429 . S
C443 H465 0.950 . S
C444 H440 0.949 . S
C444 C452 1.574 . S
C444 C460 1.368 . S
H445 C453 0.950 . S
H446 C451 0.950 . S
H447 C452 0.949 . S
H448 C454 0.950 . S
H449 C455 0.950 . S
H450 C456 0.949 . S
C451 H446 0.950 . S
C451 C453 1.327 . S
C451 C457 1.429 . S
C452 C444 1.574 . S
C452 H447 0.949 . S
C452 C458 1.368 . S
C453 C437 1.349 . S
C453 H445 0.950 . S
C453 C451 1.327 . S
C454 C442 1.349 . S
C454 H448 0.950 . S
C454 C455 1.327 . S
C455 H449 0.950 . S
C455 C454 1.327 . S
C455 C459 1.429 . S
C456 C439 1.574 . S
C456 H450 0.949 . S
C456 C460 1.368 . S
C457 C438 1.429 . S
C457 C451 1.429 . S
C457 C458 1.523 . S
C458 C439 1.368 . S
C458 C452 1.368 . S
C458 C457 1.523 . S
C459 C443 1.429 . S
C459 C455 1.429 . S
C459 C460 1.523 . S
C460 C444 1.368 . S
C460 C456 1.368 . S
C460 C459 1.523 . S
H461 C436 0.950 . S
H462 C438 0.950 . S
H463 C439 0.949 . S
H464 C441 0.950 . S
H465 C443 0.950 . S
C466 C467 1.349 . S
C466 C468 1.327 . S
C466 H491 0.950 . S
C467 C466 1.349 . S
C467 C483 1.349 . S
C468 C466 1.327 . S
C468 C487 1.429 . S
C468 H492 0.950 . S
C469 C486 1.574 . S
C469 C488 1.368 . S
C469 H493 0.949 . S
H470 C474 0.949 . S
C471 C472 1.349 . S
C471 C473 1.327 . S
C471 H494 0.950 . S
C472 C471 1.349 . S
C472 C484 1.349 . S
C473 C471 1.327 . S
C473 C489 1.429 . S
C473 H495 0.950 . S
C474 H470 0.949 . S
C474 C482 1.574 . S
C474 C490 1.368 . S
H475 C483 0.950 . S
H476 C481 0.950 . S
H477 C482 0.949 . S
H478 C484 0.950 . S
H479 C485 0.950 . S
H480 C486 0.949 . S
C481 H476 0.950 . S
C481 C483 1.327 . S
C481 C487 1.429 . S
C482 C474 1.574 . S
C482 H477 0.949 . S
C482 C488 1.368 . S
C483 C467 1.349 . S
C483 H475 0.950 . S
C483 C481 1.327 . S
C484 C472 1.349 . S
C484 H478 0.950 . S
C484 C485 1.327 . S
C485 H479 0.950 . S
C485 C484 1.327 . S
C485 C489 1.429 . S
C486 C469 1.574 . S
C486 H480 0.949 . S
C486 C490 1.368 . S
C487 C468 1.429 . S
C487 C481 1.429 . S
C487 C488 1.523 . S
C488 C469 1.368 . S
C488 C482 1.368 . S
C488 C487 1.523 . S
C489 C473 1.429 . S
C489 C485 1.429 . S
C489 C490 1.523 . S
C490 C474 1.368 . S
C490 C486 1.368 . S
C490 C489 1.523 . S
H491 C466 0.950 . S
H492 C468 0.950 . S
H493 C469 0.949 . S
H494 C471 0.950 . S
H495 C473 0.950 . S
C496 C497 1.349 . S
C496 C498 1.327 . S
C496 H521 0.950 . S
C497 C496 1.349 . S
C497 C513 1.349 . S
C498 C496 1.327 . S
C498 C517 1.429 . S
C498 H522 0.950 . S
C499 C516 1.574 . S
C499 C518 1.368 . S
C499 H523 0.949 . S
H500 C504 0.949 . S
C501 C502 1.349 . S
C501 C503 1.327 . S
C501 H524 0.950 . S
C502 C501 1.349 . S
C502 C514 1.349 . S
C503 C501 1.327 . S
C503 C519 1.429 . S
C503 H525 0.950 . S
C504 H500 0.949 . S
C504 C512 1.574 . S
C504 C520 1.368 . S
H505 C513 0.950 . S
H506 C511 0.950 . S
H507 C512 0.949 . S
H508 C514 0.950 . S
H509 C515 0.950 . S
H510 C516 0.949 . S
C511 H506 0.950 . S
C511 C513 1.327 . S
C511 C517 1.429 . S
C512 C504 1.574 . S
C512 H507 0.949 . S
C512 C518 1.368 . S
C513 C497 1.349 . S
C513 H505 0.950 . S
C513 C511 1.327 . S
C514 C502 1.349 . S
C514 H508 0.950 . S
C514 C515 1.327 . S
C515 H509 0.950 . S
C515 C514 1.327 . S
C515 C519 1.429 . S
C516 C499 1.574 . S
C516 H510 0.949 . S
C516 C520 1.368 . S
C517 C498 1.429 . S
C517 C511 1.429 . S
C517 C518 1.523 . S
C518 C499 1.368 . S
C518 C512 1.368 . S
C518 C517 1.523 . S
C519 C503 1.429 . S
C519 C515 1.429 . S
C519 C520 1.523 . S
C520 C504 1.368 . S
C520 C516 1.368 . S
C520 C519 1.523 . S
H521 C496 0.950 . S
H522 C498 0.950 . S
H523 C499 0.949 . S
H524 C501 0.950 . S
H525 C503 0.950 . S
C526 C527 1.349 . S
C526 C528 1.327 . S
C526 H551 0.950 . S
C527 C526 1.349 . S
C527 C543 1.349 . S
C528 C526 1.327 . S
C528 C547 1.429 . S
C528 H552 0.950 . S
C529 C546 1.574 . S
C529 C548 1.368 . S
C529 H553 0.949 . S
H530 C534 0.949 . S
C531 C532 1.349 . S
C531 C533 1.327 . S
C531 H554 0.950 . S
C532 C531 1.349 . S
C532 C544 1.349 . S
C533 C531 1.327 . S
C533 C549 1.429 . S
C533 H555 0.950 . S
C534 H530 0.949 . S
C534 C542 1.574 . S
C534 C550 1.368 . S
H535 C543 0.950 . S
H536 C541 0.950 . S
H537 C542 0.949 . S
H538 C544 0.950 . S
H539 C545 0.950 . S
H540 C546 0.949 . S
C541 H536 0.950 . S
C541 C543 1.327 . S
C541 C547 1.429 . S
C542 C534 1.574 . S
C542 H537 0.949 . S
C542 C548 1.368 . S
C543 C527 1.349 . S
C543 H535 0.950 . S
C543 C541 1.327 . S
C544 C532 1.349 . S
C544 H538 0.950 . S
C544 C545 1.327 . S
C545 H539 0.950 . S
C545 C544 1.327 . S
C545 C549 1.429 . S
C546 C529 1.574 . S
C546 H540 0.949 . S
C546 C550 1.368 . S
C547 C528 1.429 . S
C547 C541 1.429 . S
C547 C548 1.523 . S
C548 C529 1.368 . S
C548 C542 1.368 . S
C548 C547 1.523 . S
C549 C533 1.429 . S
C549 C545 1.429 . S
C549 C550 1.523 . S
C550 C534 1.368 . S
C550 C546 1.368 . S
C550 C549 1.523 . S
H551 C526 0.950 . S
H552 C528 0.950 . S
H553 C529 0.949 . S
H554 C531 0.950 . S
H555 C533 0.950 . S
C137 C6 1.039 . S
C142 C28 1.039 . S
C167 C62 1.039 . S
C172 C40 1.039 . S
C197 C74 1.039 . S
C202 C96 1.039 . S
C227 C108 1.039 . S
C232 C130 1.039 . S
C257 C17 1.971 . S
C262 C51 1.971 . S
C287 C119 1.971 . S
C292 C85 1.971 . S
C317 C3 1.111 . S
C322 C37 1.111 . S
C347 C105 1.111 . S
C352 C71 1.111 . S
C377 C35 1.964 . S
C382 C1 1.964 . S
C407 C103 1.964 . S
C412 C69 1.964 . S
C437 C15 1.846 . S
C442 C124 1.695 . S
C467 C90 1.695 . S
C472 C49 1.846 . S
C497 C56 1.695 . S
C502 C83 1.846 . S
C527 C117 1.846 . S
C532 C22 1.695 . S
