# Generated by pormake.
# Topology sth, (5)-cn, num edge types: 1
# Building blocks:
#     Node 0, Type 0, BuildingBlock: BEQFEK_clean_sbu_0, # of connection points: 5
#     Node 1, Type 0, BuildingBlock: BEQFEK_clean_sbu_0, # of connection points: 5
#     Node 2, Type 0, BuildingBlock: BEQFEK_clean_sbu_0, # of connection points: 5
#     Node 3, Type 0, BuildingBlock: BEQFEK_clean_sbu_0, # of connection points: 5
#     Node 4, Type 0, BuildingBlock: BEQFEK_clean_sbu_0, # of connection points: 5
#     Node 5, Type 0, BuildingBlock: BEQFEK_clean_sbu_0, # of connection points: 5
#     Node 6, Type 0, BuildingBlock: BEQFEK_clean_sbu_0, # of connection points: 5
#     Node 7, Type 0, BuildingBlock: BEQFEK_clean_sbu_0, # of connection points: 5
#     Node 8, Type 0, BuildingBlock: BEQFEK_clean_sbu_0, # of connection points: 5
#     Node 9, Type 0, BuildingBlock: BEQFEK_clean_sbu_0, # of connection points: 5
#     Node 10, Type 0, BuildingBlock: BEQFEK_clean_sbu_0, # of connection points: 5
#     Node 11, Type 0, BuildingBlock: BEQFEK_clean_sbu_0, # of connection points: 5
#     Node 12, Type 0, BuildingBlock: BEQFEK_clean_sbu_0, # of connection points: 5
#     Node 13, Type 0, BuildingBlock: BEQFEK_clean_sbu_0, # of connection points: 5
#     Node 14, Type 0, BuildingBlock: BEQFEK_clean_sbu_0, # of connection points: 5
#     Node 15, Type 0, BuildingBlock: BEQFEK_clean_sbu_0, # of connection points: 5
#     Node 16, Type 0, BuildingBlock: BEQFEK_clean_sbu_0, # of connection points: 5
#     Node 17, Type 0, BuildingBlock: BEQFEK_clean_sbu_0, # of connection points: 5
#     Edge 18, Type (0, 0), BuildingBlock: CIFDUS_clean_linker_0, # of connection points: 2
#     Edge 19, Type (0, 0), BuildingBlock: CIFDUS_clean_linker_0, # of connection points: 2
#     Edge 20, Type (0, 0), BuildingBlock: CIFDUS_clean_linker_0, # of connection points: 2
#     Edge 21, Type (0, 0), BuildingBlock: CIFDUS_clean_linker_0, # of connection points: 2
#     Edge 22, Type (0, 0), BuildingBlock: CIFDUS_clean_linker_0, # of connection points: 2
#     Edge 23, Type (0, 0), BuildingBlock: CIFDUS_clean_linker_0, # of connection points: 2
#     Edge 24, Type (0, 0), BuildingBlock: CIFDUS_clean_linker_0, # of connection points: 2
#     Edge 25, Type (0, 0), BuildingBlock: CIFDUS_clean_linker_0, # of connection points: 2
#     Edge 26, Type (0, 0), BuildingBlock: CIFDUS_clean_linker_0, # of connection points: 2
#     Edge 27, Type (0, 0), BuildingBlock: CIFDUS_clean_linker_0, # of connection points: 2
#     Edge 28, Type (0, 0), BuildingBlock: CIFDUS_clean_linker_0, # of connection points: 2
#     Edge 29, Type (0, 0), BuildingBlock: CIFDUS_clean_linker_0, # of connection points: 2
#     Edge 30, Type (0, 0), BuildingBlock: CIFDUS_clean_linker_0, # of connection points: 2
#     Edge 31, Type (0, 0), BuildingBlock: CIFDUS_clean_linker_0, # of connection points: 2
#     Edge 32, Type (0, 0), BuildingBlock: CIFDUS_clean_linker_0, # of connection points: 2
#     Edge 33, Type (0, 0), BuildingBlock: CIFDUS_clean_linker_0, # of connection points: 2
#     Edge 34, Type (0, 0), BuildingBlock: CIFDUS_clean_linker_0, # of connection points: 2
#     Edge 35, Type (0, 0), BuildingBlock: CIFDUS_clean_linker_0, # of connection points: 2
#     Edge 36, Type (0, 0), BuildingBlock: CIFDUS_clean_linker_0, # of connection points: 2
#     Edge 37, Type (0, 0), BuildingBlock: CIFDUS_clean_linker_0, # of connection points: 2
#     Edge 38, Type (0, 0), BuildingBlock: CIFDUS_clean_linker_0, # of connection points: 2
#     Edge 39, Type (0, 0), BuildingBlock: CIFDUS_clean_linker_0, # of connection points: 2
#     Edge 40, Type (0, 0), BuildingBlock: CIFDUS_clean_linker_0, # of connection points: 2
#     Edge 41, Type (0, 0), BuildingBlock: CIFDUS_clean_linker_0, # of connection points: 2
#     Edge 42, Type (0, 0), BuildingBlock: CIFDUS_clean_linker_0, # of connection points: 2
#     Edge 43, Type (0, 0), BuildingBlock: CIFDUS_clean_linker_0, # of connection points: 2
#     Edge 44, Type (0, 0), BuildingBlock: CIFDUS_clean_linker_0, # of connection points: 2
#     Edge 45, Type (0, 0), BuildingBlock: CIFDUS_clean_linker_0, # of connection points: 2
#     Edge 46, Type (0, 0), BuildingBlock: CIFDUS_clean_linker_0, # of connection points: 2
#     Edge 47, Type (0, 0), BuildingBlock: CIFDUS_clean_linker_0, # of connection points: 2
#     Edge 48, Type (0, 0), BuildingBlock: CIFDUS_clean_linker_0, # of connection points: 2
#     Edge 49, Type (0, 0), BuildingBlock: CIFDUS_clean_linker_0, # of connection points: 2
#     Edge 50, Type (0, 0), BuildingBlock: CIFDUS_clean_linker_0, # of connection points: 2
#     Edge 51, Type (0, 0), BuildingBlock: CIFDUS_clean_linker_0, # of connection points: 2
#     Edge 52, Type (0, 0), BuildingBlock: CIFDUS_clean_linker_0, # of connection points: 2
#     Edge 53, Type (0, 0), BuildingBlock: CIFDUS_clean_linker_0, # of connection points: 2
#     Edge 54, Type (0, 0), BuildingBlock: CIFDUS_clean_linker_0, # of connection points: 2
#     Edge 55, Type (0, 0), BuildingBlock: CIFDUS_clean_linker_0, # of connection points: 2
#     Edge 56, Type (0, 0), BuildingBlock: CIFDUS_clean_linker_0, # of connection points: 2
#     Edge 57, Type (0, 0), BuildingBlock: CIFDUS_clean_linker_0, # of connection points: 2
#     Edge 58, Type (0, 0), BuildingBlock: CIFDUS_clean_linker_0, # of connection points: 2
#     Edge 59, Type (0, 0), BuildingBlock: CIFDUS_clean_linker_0, # of connection points: 2
#     Edge 60, Type (0, 0), BuildingBlock: CIFDUS_clean_linker_0, # of connection points: 2
#     Edge 61, Type (0, 0), BuildingBlock: CIFDUS_clean_linker_0, # of connection points: 2
#     Edge 62, Type (0, 0), BuildingBlock: CIFDUS_clean_linker_0, # of connection points: 2
# Relax obj value: 0.272
# Max RMSD: 0.158
# Mean RMSD: 0.158
data_MOF--net-sth--node1-BEQFEK_clean_sbu_0--edge1-CIFDUS_clean_linker_0
_symmetry_space_group_name_H-M    P1
_symmetry_Int_Tables_number       1
_symmetry_cell_setting            triclinic
loop_
_symmetry_equiv_pos_as_xyz
'x, y, z'
_cell_length_a     39.17488
_cell_length_b     39.167165
_cell_length_c     58.777837
_cell_angle_alpha  89.960656
_cell_angle_beta   90.126089
_cell_angle_gamma 120.02723
loop_
_atom_site_label
_atom_site_type_symbol
_atom_site_fract_x
_atom_site_fract_y
_atom_site_fract_z
_atom_type_partial_charge
Co0 Co 0.05775 0.23732 0.24908 0.0
Co1 Co 0.14 0.31339 0.23927 0.0
C2 C 0.06666 0.30025 0.21579 0.0
O3 O 0.04612 0.2679 0.22634 0.0
O4 O 0.10372 0.32082 0.2189 0.0
C5 C 0.99269 0.16865 0.23145 0.0
O6 O 1.00693 0.18929 0.21273 0.0
C7 C 0.21032 0.36413 0.21217 0.0
C8 C 0.25662 0.39091 0.23851 0.0
C9 C 0.25094 0.38725 0.21514 0.0
N10 N 0.19324 0.35337 0.23275 0.0
N11 N 0.22098 0.37034 0.24843 0.0
C12 C 0.18774 0.35178 0.19025 0.0
H13 H 0.1603 0.35313 0.19182 0.0
H14 H 0.17935 0.32081 0.1864 0.0
H15 H 0.20529 0.37116 0.17599 0.0
C16 C 0.10563 0.19938 0.2426 0.0
N17 N 0.10111 0.23122 0.24076 0.0
N18 N 0.1355 0.26255 0.23639 0.0
C19 C 0.16295 0.25132 0.23506 0.0
C20 C 0.145 0.21103 0.23907 0.0
C21 C 0.07423 0.16017 0.25131 0.0
H22 H 0.0589 0.16452 0.2659 0.0
H23 H 0.05227 0.14469 0.23762 0.0
H24 H 0.08643 0.14135 0.25684 0.0
O25 O 0.07051 0.26501 0.27906 0.0
O26 O 0.12748 0.31964 0.27126 0.0
H27 H 0.21832 0.29955 0.24587 0.0
H28 H 0.22251 0.26273 0.22958 0.0
C29 C 0.20605 0.2788 0.23136 0.0
H30 H 0.21026 0.29581 0.21556 0.0
H31 H 0.21586 0.36609 0.26589 0.0
O32 O 1.00951 0.18378 0.25033 0.0
C33 C 0.09963 0.29833 0.28501 0.0
Co34 Co 0.80464 0.82203 0.24969 0.0
Co35 Co 0.73324 0.83419 0.23753 0.0
C36 C 0.74306 0.7708 0.21534 0.0
O37 O 0.77442 0.78085 0.22664 0.0
O38 O 0.72399 0.78912 0.21752 0.0
C39 C 0.87196 0.81407 0.23964 0.0
O40 O 0.85396 0.80095 0.22003 0.0
C41 C 0.68648 0.85873 0.20987 0.0
C42 C 0.65455 0.87155 0.23637 0.0
C43 C 0.66046 0.8727 0.21308 0.0
N44 N 0.69559 0.85002 0.23032 0.0
N45 N 0.67599 0.85726 0.24605 0.0
C46 C 0.70552 0.85725 0.18815 0.0
H47 H 0.73327 0.85706 0.19173 0.0
H48 H 0.71171 0.88277 0.17716 0.0
H49 H 0.68518 0.82977 0.17887 0.0
C50 C 0.84891 0.90749 0.24096 0.0
N51 N 0.81518 0.87252 0.24007 0.0
N52 N 0.78565 0.8784 0.23538 0.0
C53 C 0.79986 0.91765 0.23333 0.0
C54 C 0.84042 0.93733 0.23687 0.0
C55 C 0.88826 0.91226 0.2469 0.0
H56 H 0.89489 0.89434 0.23506 0.0
H57 H 0.91227 0.9434 0.24565 0.0
H58 H 0.88731 0.9013 0.26443 0.0
O59 O 0.77509 0.80922 0.27882 0.0
O60 O 0.72343 0.81554 0.26946 0.0
H61 H 0.79192 0.96864 0.23366 0.0
H62 H 0.76064 0.92974 0.21428 0.0
C63 C 0.7746 0.9362 0.23133 0.0
H64 H 0.75097 0.92349 0.24431 0.0
H65 H 0.67824 0.85364 0.26347 0.0
O66 O 0.85547 0.82361 0.25502 0.0
C67 C 0.7426 0.80742 0.28391 0.0
Co68 Co 0.20957 0.97345 0.24323 0.0
Co69 Co 0.20943 0.8944 0.23234 0.0
C70 C 0.26605 0.97057 0.20994 0.0
O71 O 0.25239 0.98958 0.2204 0.0
O72 O 0.25148 0.93369 0.2128 0.0
C73 C 0.2168 0.05318 0.25101 0.0
O74 O 0.251 0.06651 0.26123 0.0
C75 C 0.1924 0.82735 0.20357 0.0
C76 C 0.18295 0.78128 0.22854 0.0
C77 C 0.17994 0.78742 0.20555 0.0
N78 N 0.20081 0.84347 0.22445 0.0
N79 N 0.196 0.81604 0.23927 0.0
C80 C 0.19634 0.85026 0.18235 0.0
H81 H 0.22242 0.88018 0.18358 0.0
H82 H 0.16997 0.85355 0.18033 0.0
H83 H 0.1996 0.83541 0.16712 0.0
C84 C 0.12478 0.92145 0.23346 0.0
N85 N 0.16195 0.92791 0.234 0.0
N86 N 0.16123 0.89456 0.22986 0.0
C87 C 0.12335 0.8657 0.22685 0.0
C88 C 0.09916 0.88193 0.22896 0.0
C89 C 0.11413 0.95274 0.2371 0.0
H90 H 0.12439 0.96622 0.25415 0.0
H91 H 0.12931 0.9758 0.22405 0.0
H92 H 0.08202 0.94133 0.23548 0.0
O93 O 0.22755 0.96199 0.27309 0.0
O94 O 0.22891 0.90733 0.26372 0.0
H95 H 0.12602 0.81472 0.23747 0.0
H96 H 0.0778 0.80418 0.2283 0.0
C97 C 0.10988 0.82266 0.22503 0.0
H98 H 0.11592 0.81609 0.20766 0.0
H99 H 0.19964 0.82055 0.2568 0.0
O100 O 0.19792 0.0176 0.24417 0.0
C101 C 0.23471 0.93427 0.27795 0.0
Co102 Co 0.24933 0.05482 0.7741 0.0
Co103 Co 0.32676 0.13695 0.78059 0.0
C104 C 0.31525 0.06504 0.805 0.0
O105 O 0.28172 0.04444 0.79565 0.0
O106 O 0.33621 0.10188 0.80115 0.0
C107 C 0.17474 0.97911 0.76349 0.0
O108 O 0.18865 0.97633 0.74368 0.0
C109 C 0.38054 0.2113 0.80394 0.0
C110 C 0.41261 0.25052 0.77514 0.0
C111 C 0.40849 0.25011 0.79859 0.0
N112 N 0.36828 0.19035 0.78453 0.0
N113 N 0.3879 0.21386 0.76741 0.0
C114 C 0.3661 0.19372 0.82699 0.0
H115 H 0.35597 0.16177 0.82681 0.0
H116 H 0.3406 0.19712 0.83179 0.0
H117 H 0.38969 0.20863 0.83994 0.0
C118 C 0.21312 0.10332 0.78232 0.0
N119 N 0.24514 0.09907 0.78261 0.0
N120 N 0.27697 0.13389 0.78492 0.0
C121 C 0.26597 0.16159 0.78581 0.0
C122 C 0.22513 0.14297 0.7842 0.0
C123 C 0.17196 0.07023 0.77832 0.0
H124 H 0.17027 0.05665 0.76149 0.0
H125 H 0.16435 0.04746 0.79159 0.0
H126 H 0.15006 0.08027 0.77901 0.0
O127 O 0.27267 0.06415 0.74293 0.0
O128 O 0.32864 0.12088 0.74893 0.0
H129 H 0.31509 0.21145 0.77036 0.0
H130 H 0.27811 0.22161 0.78148 0.0
C131 C 0.29388 0.20507 0.7844 0.0
H132 H 0.31064 0.21544 0.80054 0.0
H133 H 0.38372 0.20513 0.75039 0.0
O134 O 0.19577 1.00806 0.7765 0.0
C135 C 0.30575 0.09236 0.73597 0.0
Co136 Co 1.00056 0.21193 0.77005 0.0
Co137 Co 0.9161 0.19927 0.78061 0.0
C138 C 0.98802 0.26536 0.80186 0.0
O139 O 1.00976 0.25509 0.79132 0.0
O140 O 0.9507 0.24594 0.79972 0.0
C141 C 0.07061 0.21789 0.78712 0.0
O142 O 0.05684 0.22531 0.80568 0.0
C143 C 0.84523 0.17532 0.80817 0.0
C144 C 0.79889 0.15665 0.78188 0.0
C145 C 0.80466 0.15798 0.80522 0.0
N146 N 0.86229 0.1826 0.78755 0.0
N147 N 0.83449 0.17205 0.77192 0.0
C148 C 0.86774 0.18508 0.8301 0.0
H149 H 0.89636 0.2127 0.82835 0.0
H150 H 0.87394 0.16117 0.83451 0.0
H151 H 0.85084 0.18862 0.84413 0.0
C152 C 0.95974 0.1269 0.78049 0.0
N153 N 0.96069 0.1618 0.78036 0.0
N154 N 0.92511 0.15586 0.7845 0.0
C155 C 0.90029 0.11671 0.7872 0.0
C156 C 0.92147 0.09715 0.78484 0.0
C157 C 0.99348 0.1217 0.77321 0.0
H158 H 1.00669 0.13875 0.75742 0.0
H159 H 1.01639 0.1333 0.7867 0.0
H160 H 0.98415 0.0903 0.77008 0.0
O161 O 0.98429 0.22216 0.73971 0.0
O162 O 0.92595 0.21596 0.7483 0.0
H163 H 0.84389 0.1064 0.77597 0.0
H164 H 0.84204 0.06534 0.79116 0.0
C165 C 0.85663 0.09793 0.79027 0.0
H166 H 0.85047 0.10853 0.80633 0.0
H167 H 0.83966 0.17396 0.75443 0.0
O168 O 0.05141 0.21175 0.76861 0.0
C169 C 0.95338 0.22339 0.73408 0.0
Co170 Co 0.83532 0.79801 0.7711 0.0
Co171 Co 0.83911 0.72036 0.7794 0.0
C172 C 0.77873 0.73454 0.80234 0.0
O173 O 0.79205 0.76833 0.79323 0.0
O174 O 0.79455 0.7136 0.7985 0.0
C175 C 0.82836 0.86751 0.75747 0.0
O176 O 0.80239 0.84543 0.742 0.0
C177 C 0.86009 0.673 0.80807 0.0
C178 C 0.86882 0.63568 0.78333 0.0
C179 C 0.87289 0.64576 0.80622 0.0
N180 N 0.85034 0.67957 0.78724 0.0
N181 N 0.85489 0.65663 0.77256 0.0
C182 C 0.85737 0.6931 0.82909 0.0
H183 H 0.83287 0.69936 0.82758 0.0
H184 H 0.88504 0.72172 0.8312 0.0
H185 H 0.8526 0.6746 0.84438 0.0
C186 C 0.92043 0.83369 0.77923 0.0
N187 N 0.88371 0.80221 0.7802 0.0
N188 N 0.88598 0.77004 0.7828 0.0
C189 C 0.92441 0.78011 0.78303 0.0
C190 C 0.94742 0.82075 0.78097 0.0
C191 C 0.92933 0.87433 0.77283 0.0
H192 H 0.91498 0.87321 0.75633 0.0
H193 H 0.91703 0.8854 0.78597 0.0
H194 H 0.96146 0.89517 0.77135 0.0
O195 O 0.82032 0.77077 0.74073 0.0
O196 O 0.82181 0.7153 0.74744 0.0
H197 H 0.92307 0.72912 0.76878 0.0
H198 H 0.97109 0.76602 0.7791 0.0
C199 C 0.93892 0.75128 0.78229 0.0
H200 H 0.93303 0.73588 0.79885 0.0
H201 H 0.85013 0.65651 0.7551 0.0
O202 O 0.8438 0.8526 0.77016 0.0
C203 C 0.81576 0.73755 0.73417 0.0
Co204 Co 0.72497 0.57596 0.57534 0.0
Co205 Co 0.80761 0.65298 0.56791 0.0
C206 C 0.73538 0.64238 0.54442 0.0
O207 O 0.71469 0.60916 0.55412 0.0
O208 O 0.77249 0.66281 0.54766 0.0
C209 C 0.65399 0.50943 0.55886 0.0
O210 O 0.66205 0.53221 0.54093 0.0
C211 C 0.88259 0.70772 0.54499 0.0
C212 C 0.92154 0.73683 0.57448 0.0
C213 C 0.92144 0.73469 0.55094 0.0
N214 N 0.86126 0.69408 0.56417 0.0
N215 N 0.88465 0.712 0.58169 0.0
C216 C 0.86539 0.69597 0.5216 0.0
H217 H 0.83377 0.68724 0.52172 0.0
H218 H 0.86756 0.6702 0.51578 0.0
H219 H 0.88149 0.72056 0.50941 0.0
C220 C 0.77177 0.53849 0.56357 0.0
N221 N 0.76832 0.57088 0.56565 0.0
N222 N 0.8032 0.60257 0.56303 0.0
C223 C 0.83013 0.5911 0.55958 0.0
C224 C 0.81101 0.55016 0.55972 0.0
C225 C 0.73804 0.49716 0.56573 0.0
H226 H 0.71493 0.49247 0.55318 0.0
H227 H 0.74711 0.47494 0.56254 0.0
H228 H 0.72514 0.49277 0.583 0.0
O229 O 0.73639 0.6005 0.60622 0.0
O230 O 0.79289 0.65605 0.59967 0.0
H231 H 0.89013 0.60232 0.56176 0.0
H232 H 0.88255 0.63398 0.54279 0.0
C233 C 0.87381 0.61844 0.55934 0.0
H234 H 0.8823 0.64062 0.57306 0.0
H235 H 0.87565 0.70651 0.59865 0.0
O236 O 0.67664 0.52244 0.57614 0.0
C237 C 0.76479 0.63364 0.6129 0.0
Co238 Co 0.46076 0.1605 0.57545 0.0
Co239 Co 0.39164 0.17996 0.57088 0.0
C240 C 0.38964 0.11247 0.54563 0.0
O241 O 0.42256 0.11951 0.55406 0.0
O242 O 0.37508 0.13434 0.55021 0.0
C243 C 0.52315 0.14776 0.55883 0.0
O244 O 0.50068 0.1346 0.54064 0.0
C245 C 0.34374 0.20943 0.54841 0.0
C246 C 0.31585 0.22062 0.5779 0.0
C247 C 0.31844 0.22339 0.55437 0.0
N248 N 0.35573 0.19958 0.56755 0.0
N249 N 0.33879 0.20619 0.58508 0.0
C250 C 0.35533 0.20393 0.52504 0.0
H251 H 0.36515 0.18188 0.52521 0.0
H252 H 0.38035 0.23226 0.51901 0.0
H253 H 0.33031 0.19443 0.513 0.0
C254 C 0.50803 0.24608 0.56646 0.0
N255 N 0.47291 0.21243 0.5673 0.0
N256 N 0.44453 0.22109 0.56602 0.0
C257 C 0.46083 0.26066 0.56467 0.0
C258 C 0.50164 0.27782 0.56492 0.0
C259 C 0.54701 0.24782 0.56823 0.0
H260 H 0.54965 0.23686 0.58518 0.0
H261 H 0.54864 0.22844 0.55507 0.0
H262 H 0.57204 0.27814 0.56567 0.0
O263 O 0.43686 0.14847 0.60649 0.0
O264 O 0.38669 0.15966 0.60223 0.0
H265 H 0.41657 0.26895 0.58085 0.0
H266 H 0.45745 0.31377 0.56992 0.0
C267 C 0.43798 0.28179 0.56671 0.0
H268 H 0.42138 0.27797 0.55073 0.0
H269 H 0.34308 0.20108 0.60199 0.0
O270 O 0.51104 0.15873 0.5759 0.0
C271 C 0.40653 0.14864 0.61427 0.0
Co272 Co 0.86883 0.31142 0.57921 0.0
Co273 Co 0.86022 0.22836 0.56924 0.0
C274 C 0.92196 0.30189 0.54601 0.0
O275 O 0.91045 0.3228 0.55645 0.0
O276 O 0.90494 0.26466 0.54896 0.0
C277 C 0.87395 0.38592 0.5684 0.0
O278 O 0.88884 0.38251 0.54911 0.0
C279 C 0.83739 0.15485 0.54359 0.0
C280 C 0.83029 0.11405 0.57151 0.0
C281 C 0.82663 0.11575 0.54813 0.0
N282 N 0.84623 0.17473 0.56341 0.0
N283 N 0.84217 0.15018 0.57998 0.0
C284 C 0.84075 0.17374 0.52093 0.0
H285 H 0.86147 0.20594 0.5219 0.0
H286 H 0.8115 0.1692 0.51581 0.0
H287 H 0.85091 0.16048 0.50781 0.0
C288 C 0.78348 0.26685 0.56999 0.0
N289 N 0.81906 0.2694 0.56995 0.0
N290 N 0.81451 0.23416 0.56646 0.0
C291 C 0.77548 0.20788 0.56458 0.0
C292 C 0.75453 0.22779 0.56679 0.0
C293 C 0.77731 0.30111 0.57409 0.0
H294 H 0.78665 0.31221 0.59168 0.0
H295 H 0.79575 0.32516 0.56209 0.0
H296 H 0.7461 0.2931 0.57159 0.0
O297 O 0.88358 0.29757 0.60883 0.0
O298 O 0.87984 0.24018 0.60104 0.0
H299 H 0.77265 0.15522 0.57722 0.0
H300 H 0.72604 0.14823 0.56703 0.0
C301 C 0.75832 0.1641 0.56404 0.0
H302 H 0.76406 0.15534 0.5472 0.0
H303 H 0.84697 0.15797 0.59715 0.0
O304 O 0.86464 0.35962 0.58363 0.0
C305 C 0.88734 0.26828 0.61474 0.0
Co306 Co 0.91944 0.39777 0.10626 0.0
Co307 Co 0.99337 0.482 0.1116 0.0
C308 C 0.9874 0.41327 0.13721 0.0
O309 O 0.95398 0.38971 0.1283 0.0
O310 O 1.00536 0.4499 0.1325 0.0
C311 C 0.85657 0.31687 0.09647 0.0
O312 O 0.88258 0.31324 0.0842 0.0
C313 C 0.05105 0.55485 0.13404 0.0
C314 C 0.07353 0.59705 0.10542 0.0
C315 C 0.0769 0.59398 0.1287 0.0
N316 N 0.03334 0.53565 0.1148 0.0
N317 N 0.0472 0.5609 0.09769 0.0
C318 C 0.04052 0.53659 0.15719 0.0
H319 H 1.01016 0.51082 0.15714 0.0
H320 H 0.04284 0.5584 0.17004 0.0
H321 H 0.06129 0.52629 0.16197 0.0
C322 C 0.87895 0.44266 0.11712 0.0
N323 N 0.91207 0.44054 0.11481 0.0
N324 N 0.94288 0.47608 0.11707 0.0
C325 C 0.93027 0.50196 0.12097 0.0
C326 C 0.88927 0.48162 0.12103 0.0
C327 C 0.83818 0.40784 0.11557 0.0
H328 H 0.83353 0.39443 0.09841 0.0
H329 H 0.83513 0.38553 0.12826 0.0
H330 H 0.81527 0.41592 0.11894 0.0
O331 O 0.94264 0.40761 0.07496 0.0
O332 O 0.99625 0.46632 0.08013 0.0
H333 H 0.97575 0.55616 0.10706 0.0
H334 H 0.94 0.56143 0.12369 0.0
C335 C 0.95685 0.54568 0.1224 0.0
H336 H 0.97628 0.55283 0.13749 0.0
H337 H 0.03797 0.55363 0.08084 0.0
O338 O 0.86678 0.34928 0.10654 0.0
C339 C 0.97455 0.4368 0.06755 0.0
Co340 Co 0.6437 0.53003 0.10453 0.0
Co341 Co 0.55742 0.51111 0.11642 0.0
C342 C 0.62714 0.5735 0.14153 0.0
O343 O 0.651 0.56765 0.12967 0.0
O344 O 0.59002 0.55266 0.13864 0.0
C345 C 0.71987 0.53827 0.11495 0.0
O346 O 0.71403 0.54887 0.13511 0.0
C347 C 0.48528 0.48801 0.14277 0.0
C348 C 0.4405 0.47002 0.11557 0.0
C349 C 0.44536 0.47379 0.13897 0.0
N350 N 0.50304 0.49253 0.12255 0.0
N351 N 0.47615 0.48195 0.10637 0.0
C352 C 0.50599 0.49472 0.16513 0.0
H353 H 0.53216 0.49103 0.1633 0.0
H354 H 0.48583 0.47402 0.1782 0.0
H355 H 0.5162 0.52535 0.17085 0.0
C356 C 0.60478 0.44304 0.10908 0.0
N357 N 0.60424 0.47704 0.11121 0.0
N358 N 0.56815 0.46883 0.11613 0.0
C359 C 0.5446 0.42927 0.11729 0.0
C360 C 0.56701 0.41156 0.1127 0.0
C361 C 0.64083 0.44084 0.10326 0.0
H362 H 0.65205 0.45464 0.0864 0.0
H363 H 0.66402 0.45757 0.11612 0.0
H364 H 0.63501 0.41008 0.10304 0.0
O365 O 0.62825 0.54783 0.07635 0.0
O366 O 0.5686 0.53643 0.08624 0.0
H367 H 0.48799 0.41809 0.10617 0.0
H368 H 0.48709 0.37645 0.11986 0.0
C369 C 0.50081 0.40901 0.12013 0.0
H370 H 0.49379 0.41826 0.13646 0.0
H371 H 0.48209 0.48257 0.08903 0.0
O372 O 0.69455 0.53077 0.09928 0.0
C373 C 0.59702 0.54932 0.07215 0.0
Co374 Co 0.50958 0.11962 0.10284 0.0
Co375 Co 0.53157 0.05422 0.11582 0.0
C376 C 0.4656 0.05705 0.13873 0.0
O377 O 0.47086 0.08625 0.12661 0.0
O378 O 0.48802 0.0424 0.13685 0.0
C379 C 0.50185 0.18334 0.11882 0.0
O380 O 0.4978 0.16413 0.13787 0.0
C381 C 0.5589 1.00769 0.14223 0.0
C382 C 0.58447 0.98853 0.11505 0.0
C383 C 0.57916 0.98745 0.13839 0.0
N384 N 0.5535 0.02091 0.12214 0.0
N385 N 0.56847 1.0089 0.10597 0.0
C386 C 0.5439 1.01356 0.16446 0.0
H387 H 0.51504 1.0117 0.16207 0.0
H388 H 0.5649 0.04331 0.1712 0.0
H389 H 0.54034 0.99095 0.17709 0.0
C390 C 0.59547 0.1705 0.11014 0.0
N391 N 0.56235 0.13493 0.11098 0.0
N392 N 0.57163 0.10814 0.11683 0.0
C393 C 0.61098 0.12599 0.12017 0.0
C394 C 0.62736 0.16607 0.11602 0.0
C395 C 0.59706 0.20717 0.10135 0.0
H396 H 0.57682 0.19991 0.08664 0.0
H397 H 0.58749 0.2201 0.11497 0.0
H398 H 0.62728 0.22945 0.09596 0.0
O399 O 0.49516 0.08797 0.07408 0.0
O400 O 0.50808 0.04097 0.08497 0.0
H401 H 0.63164 0.086 0.11283 0.0
H402 H 0.66368 0.12602 0.13153 0.0
C403 C 0.63252 0.10505 0.12703 0.0
H404 H 0.61783 0.08612 0.14196 0.0
H405 H 0.5685 0.01535 0.08874 0.0
O406 O 0.50596 0.16886 0.10029 0.0
C407 C 0.49525 0.05586 0.0703 0.0
Co408 Co 0.40845 0.91145 0.90944 0.0
Co409 Co 0.4955 0.97922 0.89973 0.0
C410 C 0.429 0.97648 0.87447 0.0
O411 O 0.40469 0.94632 0.88584 0.0
O412 O 0.46598 0.99165 0.87726 0.0
C413 C 0.34498 0.84569 0.88995 0.0
O414 O 0.36821 0.86303 0.87249 0.0
C415 C 0.5695 0.03027 0.87585 0.0
C416 C 0.6128 0.05257 0.90398 0.0
C417 C 0.60932 0.05453 0.88061 0.0
N418 N 0.55044 0.01492 0.8955 0.0
N419 N 0.57643 0.02855 0.91227 0.0
C420 C 0.55008 0.01897 0.853 0.0
H421 H 0.52345 0.98921 0.85372 0.0
H422 H 0.57072 0.01926 0.83999 0.0
H423 H 0.54081 0.04043 0.84792 0.0
C424 C 0.44718 0.86304 0.90343 0.0
N425 N 0.44791 0.89786 0.90261 0.0
N426 N 0.48415 0.92606 0.89823 0.0
C427 C 0.50749 0.91 0.89603 0.0
C428 C 0.4848 0.86953 0.89919 0.0
C429 C 0.41234 0.82489 0.91076 0.0
H430 H 0.39506 0.83032 0.92369 0.0
H431 H 0.39326 0.81037 0.89577 0.0
H432 H 0.42164 0.80459 0.91794 0.0
O433 O 0.42157 0.94053 0.93913 0.0
O434 O 0.48131 0.99001 0.93005 0.0
H435 H 0.56594 0.95203 0.90661 0.0
H436 H 0.56326 0.91351 0.88844 0.0
C437 C 0.55089 0.93308 0.89167 0.0
H438 H 0.55669 0.95242 0.8767 0.0
H439 H 0.5694 0.02108 0.92935 0.0
O440 O 0.35561 0.86196 0.90942 0.0
C441 C 0.45254 0.97325 0.94387 0.0
Co442 Co 0.12972 0.51317 0.90688 0.0
Co443 Co 0.05533 0.52327 0.90221 0.0
C444 C 0.06193 0.46178 0.87567 0.0
O445 O 0.09524 0.47186 0.88469 0.0
O446 O 0.04349 0.47992 0.88046 0.0
C447 C 0.19667 0.4982 0.91396 0.0
O448 O 0.17499 0.46944 0.9281 0.0
C449 C 0.99869 0.53967 0.8795 0.0
C450 C 0.97606 0.55975 0.90781 0.0
C451 C 0.97328 0.55366 0.88449 0.0
N452 N 1.01556 0.53747 0.89896 0.0
N453 N 1.00161 0.54911 0.91587 0.0
C454 C 1.00991 0.53229 0.85648 0.0
H455 H 0.04044 0.53737 0.8568 0.0
H456 H 1.00759 0.55164 0.84351 0.0
H457 H 0.98962 0.50111 0.85165 0.0
C458 C 0.17004 0.59893 0.89853 0.0
N459 N 0.13681 0.56352 0.89958 0.0
N460 N 0.10609 0.56846 0.89779 0.0
C461 C 0.11899 0.60746 0.89569 0.0
C462 C 0.15998 0.62795 0.89592 0.0
C463 C 0.21053 0.60527 0.90265 0.0
H464 H 0.21034 0.58853 0.91792 0.0
H465 H 0.21931 0.59412 0.88776 0.0
H466 H 0.23261 0.63686 0.90519 0.0
O467 O 0.10628 0.49781 0.93794 0.0
O468 O 0.05218 0.50249 0.9334 0.0
H469 H 0.07523 0.61775 0.91053 0.0
H470 H 0.1099 0.65742 0.89249 0.0
C471 C 0.09273 0.62493 0.89465 0.0
H472 H 0.07195 0.61182 0.88018 0.0
H473 H 1.01033 0.55078 0.93281 0.0
O474 O 0.18239 0.51762 0.90466 0.0
C475 C 0.07406 0.49414 0.94554 0.0
Co476 Co 0.53672 0.62995 0.91104 0.0
Co477 Co 0.5234 0.54464 0.90183 0.0
C478 C 0.58121 0.61214 0.87463 0.0
O479 O 0.57402 0.63533 0.88622 0.0
O480 O 0.56224 0.57507 0.87805 0.0
C481 C 0.52316 0.68752 0.89234 0.0
O482 O 0.51492 0.66296 0.87525 0.0
C483 C 0.49897 0.46738 0.88054 0.0
C484 C 0.48223 0.42889 0.91083 0.0
C485 C 0.48302 0.42832 0.88727 0.0
N486 N 0.50686 0.48984 0.89929 0.0
N487 N 0.49744 0.46669 0.91732 0.0
C488 C 0.50249 0.48266 0.85682 0.0
H489 H 0.50286 0.51118 0.8569 0.0
H490 H 0.47777 0.46099 0.84608 0.0
H491 H 0.53053 0.48746 0.84932 0.0
C492 C 0.44921 0.58481 0.90888 0.0
N493 N 0.48454 0.5872 0.90616 0.0
N494 N 0.47886 0.55185 0.90148 0.0
C495 C 0.43969 0.52606 0.90067 0.0
C496 C 0.4197 0.54614 0.90531 0.0
C497 C 0.44365 0.61746 0.91788 0.0
H498 H 0.46845 0.63697 0.92923 0.0
H499 H 0.44237 0.63498 0.90342 0.0
H500 H 0.41563 0.60561 0.9275 0.0
O501 O 0.55688 0.62068 0.94027 0.0
O502 O 0.55061 0.56238 0.93153 0.0
H503 H 0.42794 0.4687 0.91063 0.0
H504 H 0.38928 0.46846 0.8937 0.0
C505 C 0.42165 0.48285 0.89613 0.0
H506 H 0.43477 0.47837 0.88057 0.0
H507 H 0.4999 0.47654 0.93406 0.0
O508 O 0.53508 0.68034 0.91095 0.0
C509 C 0.56159 0.59147 0.94505 0.0
Co510 Co 0.5794 0.73395 0.44154 0.0
Co511 Co 0.65081 0.82122 0.44553 0.0
C512 C 0.64946 0.75637 0.47263 0.0
O513 O 0.61679 0.73142 0.46352 0.0
O514 O 0.66575 0.79298 0.46794 0.0
C515 C 0.51711 0.6611 0.46014 0.0
O516 O 0.54025 0.67187 0.47808 0.0
C517 C 0.70263 0.89959 0.46552 0.0
C518 C 0.72209 0.93746 0.43495 0.0
C519 C 0.72454 0.93863 0.45849 0.0
N520 N 0.68777 0.8766 0.447 0.0
N521 N 0.70006 0.89939 0.42877 0.0
C522 C 0.69219 0.88459 0.48937 0.0
H523 H 0.66469 0.85547 0.48958 0.0
H524 H 0.68852 0.90583 0.50011 0.0
H525 H 0.71639 0.88104 0.49665 0.0
C526 C 0.5347 0.77503 0.44953 0.0
N527 N 0.56913 0.77516 0.44859 0.0
N528 N 0.59851 0.81177 0.4498 0.0
C529 C 0.5835 0.83613 0.45127 0.0
C530 C 0.54266 0.81362 0.45124 0.0
C531 C 0.49517 0.73904 0.44602 0.0
H532 H 0.49559 0.72384 0.43019 0.0
H533 H 0.48891 0.71848 0.46044 0.0
H534 H 0.47126 0.74632 0.4448 0.0
O535 O 0.60271 0.74292 0.41053 0.0
O536 O 0.65513 0.80292 0.41484 0.0
H537 H 0.62596 0.89041 0.43585 0.0
H538 H 0.58885 0.89395 0.45224 0.0
C539 C 0.6076 0.88018 0.45142 0.0
H540 H 0.62742 0.88991 0.46641 0.0
H541 H 0.69215 0.88907 0.41214 0.0
O542 O 0.52856 0.68264 0.4424 0.0
C543 C 0.63428 0.77218 0.40289 0.0
Co544 Co 0.30393 0.86454 0.43839 0.0
Co545 Co 0.21987 0.85153 0.45058 0.0
C546 C 0.28969 0.91039 0.47568 0.0
O547 O 0.31068 0.90172 0.46313 0.0
O548 O 0.25226 0.89256 0.47365 0.0
C549 C 0.36386 0.85611 0.45713 0.0
O550 O 0.34081 0.85086 0.47458 0.0
C551 C 0.14214 0.82614 0.47209 0.0
C552 C 0.10394 0.80757 0.44157 0.0
C553 C 0.10303 0.80907 0.46509 0.0
N554 N 0.1649 0.83395 0.45351 0.0
N555 N 0.14187 0.82335 0.43535 0.0
C556 C 0.15732 0.83127 0.49595 0.0
H557 H 0.18691 0.834 0.49623 0.0
H558 H 0.13659 0.80604 0.50669 0.0
H559 H 0.15982 0.85859 0.50318 0.0
C560 C 0.26124 0.7778 0.4439 0.0
N561 N 0.26251 0.81279 0.44486 0.0
N562 N 0.22768 0.807 0.45095 0.0
C563 C 0.20326 0.7679 0.45427 0.0
C564 C 0.22392 0.74827 0.45006 0.0
C565 C 0.2939 0.77202 0.43519 0.0
H566 H 0.31158 0.79481 0.42236 0.0
H567 H 0.31322 0.77419 0.44959 0.0
H568 H 0.28202 0.74241 0.42738 0.0
O569 O 0.29238 0.88391 0.40966 0.0
O570 O 0.23491 0.87733 0.42034 0.0
H571 H 0.14403 0.75419 0.44786 0.0
H572 H 0.14783 0.7176 0.46469 0.0
C573 C 0.1611 0.74965 0.46141 0.0
H574 H 0.15923 0.76422 0.47711 0.0
H575 H 0.15194 0.82548 0.4187 0.0
O576 O 0.35458 0.86395 0.43782 0.0
C577 C 0.2626 0.88818 0.40586 0.0
Co578 Co 0.17123 0.45927 0.44417 0.0
Co579 Co 0.18892 0.38949 0.44972 0.0
C580 C 0.12324 0.38992 0.47536 0.0
O581 O 0.13071 0.42231 0.46599 0.0
O582 O 0.14438 0.37428 0.4713 0.0
C583 C 0.14806 0.51899 0.43385 0.0
O584 O 0.12083 0.49294 0.42025 0.0
C585 C 0.2189 0.34177 0.47148 0.0
C586 C 0.23381 0.31767 0.44157 0.0
C587 C 0.23559 0.31913 0.46513 0.0
N588 N 0.2081 0.35328 0.45254 0.0
N589 N 0.21655 0.33825 0.43475 0.0
C590 C 0.21694 0.35576 0.49485 0.0
H591 H 0.21394 0.38246 0.49391 0.0
H592 H 0.24364 0.36223 0.5048 0.0
H593 H 0.19078 0.33222 0.50377 0.0
C594 C 0.2567 0.50582 0.4528 0.0
N595 N 0.22292 0.47085 0.45222 0.0
N596 N 0.23117 0.44226 0.45399 0.0
C597 C 0.27077 0.45837 0.45546 0.0
C598 C 0.28822 0.49922 0.45472 0.0
C599 C 0.25873 0.54485 0.45056 0.0
H600 H 0.2396 0.54696 0.46368 0.0
H601 H 0.28917 0.56984 0.4529 0.0
H602 H 0.24755 0.54696 0.43357 0.0
O603 O 0.15853 0.43532 0.41312 0.0
O604 O 0.16776 0.38412 0.4184 0.0
H605 H 0.32393 0.45466 0.45187 0.0
H606 H 0.28672 0.41856 0.47035 0.0
C607 C 0.29173 0.43528 0.45431 0.0
H608 H 0.27974 0.41399 0.44004 0.0
H609 H 0.21189 0.3433 0.41789 0.0
O610 O 0.17043 0.50982 0.44472 0.0
C611 C 0.15763 0.40415 0.40586 0.0
H612 H 0.37163 0.4115 0.13705 0.0
H613 H 0.44709 0.5133 0.17788 0.0
H614 H 0.39316 0.49611 0.20469 0.0
H615 H 0.32415 0.45188 0.21645 0.0
H616 H 0.251 0.34769 0.17662 0.0
H617 H 0.30383 0.36657 0.14931 0.0
C618 C 0.37622 0.42992 0.15183 0.0
C619 C 0.41337 0.46329 0.15566 0.0
C620 C 0.34519 0.41978 0.16716 0.0
C621 C 0.41902 0.4869 0.17486 0.0
C622 C 0.38807 0.47728 0.19008 0.0
C623 C 0.31973 0.43352 0.20167 0.0
C624 C 0.28285 0.39944 0.19807 0.0
C625 C 0.35099 0.44374 0.1864 0.0
C626 C 0.278 0.37535 0.17919 0.0
C627 C 0.30859 0.38571 0.16372 0.0
H628 H 0.6523 0.93659 0.21839 0.0
H629 H 0.63248 0.8456 0.17013 0.0
H630 H 0.6054 0.87307 0.14282 0.0
H631 H 0.58661 0.92273 0.13292 0.0
H632 H 0.61021 0.01563 0.1807 0.0
H633 H 0.63578 0.98728 0.20805 0.0
C634 C 0.64198 0.92276 0.20189 0.0
C635 C 0.6447 0.88936 0.19619 0.0
C636 C 0.62662 0.93878 0.18631 0.0
C637 C 0.63146 0.87182 0.17474 0.0
C638 C 0.61568 0.88734 0.1592 0.0
C639 C 0.59724 0.93666 0.14936 0.0
C640 C 0.59489 0.97032 0.15508 0.0
C641 C 0.61308 0.92081 0.16482 0.0
C642 C 0.60962 0.98855 0.17625 0.0
C643 C 0.62489 0.97269 0.19181 0.0
H644 H 0.08175 0.66486 0.12848 0.0
H645 H 0.12397 0.59678 0.16385 0.0
H646 H 0.16139 0.65168 0.19019 0.0
H647 H 0.18082 0.71873 0.20352 0.0
H648 H 0.13236 0.78317 0.17 0.0
H649 H 0.0995 0.73062 0.14236 0.0
C650 C 0.09939 0.66225 0.14189 0.0
C651 C 0.10013 0.62702 0.14438 0.0
C652 C 0.12009 0.69351 0.15713 0.0
C653 C 0.12267 0.6236 0.16188 0.0
C654 C 0.14415 0.65498 0.17684 0.0
C655 C 0.16334 0.72136 0.19003 0.0
C656 C 0.16079 0.75584 0.18825 0.0
C657 C 0.14287 0.69003 0.1747 0.0
C658 C 0.13708 0.75831 0.17106 0.0
C659 C 0.11751 0.72779 0.15543 0.0
H660 H 0.51199 0.41372 0.84859 0.0
H661 H 0.41301 0.36215 0.89448 0.0
H662 H 0.38106 0.30241 0.87129 0.0
H663 H 0.38023 0.26607 0.8374 0.0
H664 H 0.48062 0.31513 0.79247 0.0
H665 H 0.51256 0.37519 0.81545 0.0
C666 C 0.48335 0.38943 0.85338 0.0
C667 C 0.46464 0.39239 0.87304 0.0
C668 C 0.4654 0.35486 0.84013 0.0
C669 C 0.42794 0.36046 0.87939 0.0
C670 C 0.40963 0.32637 0.86612 0.0
C671 C 0.40964 0.28907 0.83299 0.0
C672 C 0.42839 0.28538 0.81354 0.0
C673 C 0.42807 0.32323 0.84646 0.0
C674 C 0.46561 0.31696 0.80748 0.0
C675 C 0.48394 0.35134 0.82062 0.0
H676 H 0.73333 0.15334 0.8043 0.0
H677 H 0.80316 0.11755 0.8437 0.0
H678 H 0.74979 0.08462 0.87094 0.0
H679 H 0.68217 0.06357 0.88295 0.0
H680 H 0.61073 0.09627 0.84283 0.0
H681 H 0.66533 0.13204 0.81632 0.0
C682 C 0.73692 0.13857 0.81896 0.0
C683 C 0.77283 0.13929 0.82237 0.0
C684 C 0.70551 0.11853 0.83425 0.0
C685 C 0.77675 0.11933 0.84119 0.0
C686 C 0.7459 0.09983 0.85663 0.0
C687 C 0.67865 0.07866 0.86843 0.0
C688 C 0.6423 0.07669 0.86461 0.0
C689 C 0.71012 0.0991 0.85329 0.0
C690 C 0.63808 0.0964 0.84578 0.0
C691 C 0.66941 0.11717 0.83074 0.0
H692 H 0.96913 0.62025 0.88435 0.0
H693 H 0.92706 0.51005 0.84891 0.0
H694 H 0.89086 0.52819 0.82205 0.0
H695 H 0.87217 0.57618 0.80835 0.0
H696 H 0.92025 0.68889 0.84203 0.0
H697 H 0.95223 0.66876 0.87002 0.0
C698 C 0.95181 0.60017 0.8708 0.0
C699 C 0.95079 0.56402 0.86848 0.0
C700 C 0.93175 0.6111 0.85525 0.0
C701 C 0.92861 0.5383 0.8508 0.0
C702 C 0.90782 0.54859 0.83552 0.0
C703 C 0.88943 0.59621 0.82192 0.0
C704 C 0.89205 0.63331 0.82361 0.0
C705 C 0.90936 0.58506 0.83751 0.0
C706 C 0.91543 0.65928 0.84097 0.0
C707 C 0.93452 0.64807 0.85683 0.0
H708 H 0.72835 0.65754 0.81193 0.0
H709 H 0.74746 0.77452 0.82394 0.0
H710 H 0.68692 0.74688 0.84644 0.0
H711 H 0.62929 0.68951 0.86328 0.0
H712 H 0.60966 0.57249 0.85012 0.0
H713 H 0.66937 0.60022 0.8272 0.0
C714 C 0.71943 0.67706 0.81957 0.0
C715 C 0.74265 0.71809 0.81647 0.0
C716 C 0.68428 0.66094 0.83211 0.0
C717 C 0.73023 0.74285 0.82615 0.0
C718 C 0.69558 0.72706 0.83898 0.0
C719 C 0.63783 0.66999 0.85525 0.0
C720 C 0.61496 0.62892 0.85858 0.0
C721 C 0.67239 0.68613 0.84209 0.0
C722 C 0.62656 0.60418 0.84792 0.0
C723 C 0.66088 0.62002 0.83487 0.0
H724 H 0.35245 0.95397 0.86501 0.0
H725 H 0.47193 0.04482 0.85038 0.0
H726 H 0.44742 0.0812 0.82862 0.0
H727 H 0.39199 0.08788 0.81412 0.0
H728 H 0.27273 0.99599 0.82793 0.0
H729 H 0.29729 0.95979 0.84985 0.0
C730 C 0.3732 0.98158 0.85695 0.0
C731 C 0.414 0.99654 0.85942 0.0
C732 C 0.35895 1.00251 0.8445 0.0
C733 C 0.44035 0.03243 0.84877 0.0
C734 C 0.42638 0.05344 0.8364 0.0
C735 C 0.37142 0.06013 0.82212 0.0
C736 C 0.3306 0.04482 0.81953 0.0
C737 C 0.38574 0.03897 0.83432 0.0
C738 C 0.30431 1.00848 0.82968 0.0
C739 C 0.31831 0.98767 0.84218 0.0
H740 H 0.09338 0.4177 0.86057 0.0
H741 H 0.98781 0.4263 0.85705 0.0
H742 H 0.95523 0.36575 0.8346 0.0
H743 H 0.95629 0.30964 0.81639 0.0
H744 H 0.06264 0.30244 0.81918 0.0
H745 H 0.09505 0.36288 0.84164 0.0
C746 C 0.0633 0.40651 0.85483 0.0
C747 C 0.04314 0.42662 0.8606 0.0
C748 C 0.04468 0.37166 0.84192 0.0
C749 C 1.00417 0.41158 0.85288 0.0
C750 C 0.9854 0.37681 0.8401 0.0
C751 C 0.98648 0.32118 0.82202 0.0
C752 C 1.00689 0.30136 0.81619 0.0
C753 C 1.00526 0.35642 0.83466 0.0
C754 C 0.04619 0.31703 0.8234 0.0
C755 C 0.06481 0.35166 0.83624 0.0
H756 H 0.66666 0.7202 0.20396 0.0
H757 H 0.78496 0.74213 0.19375 0.0
H758 H 0.75968 0.68242 0.17066 0.0
H759 H 0.70392 0.62396 0.15329 0.0
H760 H 0.58532 0.6006 0.16502 0.0
H761 H 0.61074 0.66038 0.18781 0.0
C762 C 0.6869 0.71206 0.1965 0.0
C763 C 0.72764 0.73576 0.20037 0.0
C764 C 0.67208 0.67713 0.18372 0.0
C765 C 0.75346 0.72443 0.19097 0.0
C766 C 0.73902 0.69024 0.17781 0.0
C767 C 0.68358 0.63173 0.16096 0.0
C768 C 0.64274 0.6077 0.15731 0.0
C769 C 0.69836 0.66625 0.17414 0.0
C770 C 0.61689 0.61835 0.1675 0.0
C771 C 0.6314 0.65273 0.18048 0.0
H772 H 0.31809 0.94713 0.19903 0.0
H773 H 0.29455 0.04267 0.18945 0.0
H774 H 0.35501 0.07862 0.16702 0.0
H775 H 0.4143 0.08243 0.14999 0.0
H776 H 0.43823 0.98735 0.1613 0.0
H777 H 0.37806 0.95201 0.18349 0.0
C778 C 0.32597 0.9757 0.1919 0.0
C779 C 0.30164 0.99202 0.19566 0.0
C780 C 0.36105 0.99646 0.17953 0.0
C781 C 0.31271 0.0294 0.18668 0.0
C782 C 0.34729 0.04998 0.17391 0.0
C783 C 0.40649 0.05408 0.15741 0.0
C784 C 0.43081 0.03759 0.15387 0.0
C785 C 0.37172 0.03379 0.17026 0.0
C786 C 0.42025 1.0009 0.16375 0.0
C787 C 0.38568 0.98049 0.17637 0.0
H788 H 0.09571 0.37472 0.19941 0.0
H789 H 0.99236 0.25874 0.19779 0.0
H790 H 0.95856 0.28328 0.17356 0.0
H791 H 0.95814 0.33787 0.15295 0.0
H792 H 0.0611 0.4542 0.15579 0.0
H793 H 0.0949 0.4293 0.17947 0.0
C794 C 0.06587 0.35472 0.19366 0.0
C795 C 0.04673 0.3149 0.20037 0.0
C796 C 0.04633 0.36914 0.18002 0.0
C797 C 1.00786 0.28955 0.19292 0.0
C798 C 0.98846 0.30356 0.17906 0.0
C799 C 0.98792 0.35782 0.15879 0.0
C800 C 1.00691 0.39789 0.15249 0.0
C801 C 1.00733 0.34336 0.17257 0.0
C802 C 0.04556 0.42325 0.16032 0.0
C803 C 0.06507 0.40903 0.17386 0.0
H804 H 0.08734 0.83765 0.50368 0.0
H805 H 0.03685 0.73942 0.45706 0.0
H806 H 0.97594 0.70794 0.47908 0.0
H807 H 0.93793 0.70729 0.51211 0.0
H808 H 0.98656 0.80633 0.55816 0.0
H809 H 0.04768 0.8381 0.53618 0.0
C810 C 0.06311 0.8092 0.49852 0.0
C811 C 0.0667 0.79064 0.47896 0.0
C812 C 0.02787 0.79146 0.51112 0.0
C813 C 0.03474 0.75426 0.47209 0.0
C814 C 0.99993 0.73621 0.48468 0.0
C815 C 0.96122 0.73636 0.51698 0.0
C816 C 0.95711 0.75483 0.53644 0.0
C817 C 0.99613 0.75454 0.5042 0.0
C818 C 0.98878 0.79162 0.54311 0.0
C819 C 0.02377 0.80981 0.53057 0.0
H820 H 0.2117 0.28119 0.50597 0.0
H821 H 0.30431 0.32117 0.45602 0.0
H822 H 0.33845 0.29548 0.47904 0.0
H823 H 0.34278 0.26328 0.51372 0.0
H824 H 0.24861 0.2199 0.56289 0.0
H825 H 0.21496 0.24647 0.54021 0.0
C826 C 0.23955 0.28461 0.50029 0.0
C827 C 0.25574 0.30348 0.47949 0.0
C828 C 0.25877 0.26924 0.51347 0.0
C829 C 0.2913 0.30676 0.47201 0.0
C830 C 0.31087 0.29216 0.48517 0.0
C831 C 0.31437 0.2584 0.51922 0.0
C832 C 0.29788 0.23857 0.53977 0.0
C833 C 0.29486 0.27327 0.50592 0.0
C834 C 0.26194 0.23476 0.54707 0.0
C835 C 0.2426 0.24991 0.53409 0.0
H836 H 0.76891 0.95379 0.49696 0.0
H837 H 0.72104 1.00508 0.45103 0.0
H838 H 0.7489 0.06486 0.47423 0.0
H839 H 0.78408 0.10105 0.50845 0.0
H840 H 0.83483 0.05137 0.55359 0.0
H841 H 0.80769 0.99201 0.53017 0.0
C842 C 0.76439 0.97797 0.49217 0.0
C843 C 0.74249 0.97486 0.47253 0.0
C844 C 0.7809 1.01247 0.50546 0.0
C845 C 0.73775 1.00681 0.46613 0.0
C846 C 0.75358 0.04094 0.47941 0.0
C847 C 0.79047 0.07803 0.51285 0.0
C848 C 0.81233 0.08131 0.53257 0.0
C849 C 0.77509 0.04406 0.49917 0.0
C850 C 0.8183 0.04984 0.53845 0.0
C851 C 0.80279 0.01582 0.52506 0.0
H852 H 0.40808 0.0559 0.53495 0.0
H853 H 0.31782 0.08721 0.52543 0.0
H854 H 0.27726 0.02582 0.50476 0.0
H855 H 0.26771 0.96339 0.48871 0.0
H856 H 0.3592 0.93372 0.49724 0.0
H857 H 0.39847 0.9938 0.51929 0.0
C858 C 0.37963 0.04948 0.52829 0.0
C859 C 0.36621 0.07635 0.53174 0.0
C860 C 0.35633 1.01404 0.51644 0.0
C861 C 0.3291 0.06725 0.523 0.0
C862 C 0.30571 0.03199 0.51124 0.0
C863 C 0.29593 0.96982 0.49575 0.0
C864 C 0.3104 0.94404 0.4915 0.0
C865 C 0.31896 1.00508 0.5079 0.0
C866 C 0.34738 0.95308 0.50033 0.0
C867 C 0.36996 0.98753 0.51285 0.0
H868 H 0.07162 0.41418 0.48739 0.0
H869 H 0.09383 0.31744 0.49565 0.0
H870 H 0.03262 0.28079 0.51713 0.0
H871 H 0.97239 0.27603 0.53355 0.0
H872 H 0.95175 0.37385 0.52591 0.0
H873 H 1.01237 0.40986 0.50401 0.0
C874 C 0.06328 0.38516 0.49395 0.0
C875 C 0.0875 0.36873 0.48984 0.0
C876 C 0.028 0.36417 0.50625 0.0
C877 C 0.07597 0.331 0.49856 0.0
C878 C 0.04081 0.30988 0.51078 0.0
C879 C 0.98097 0.30505 0.52689 0.0
C880 C 0.95736 0.32208 0.53129 0.0
C881 C 1.01644 0.32606 0.51463 0.0
C882 C 0.96928 0.35999 0.5228 0.0
C883 C 1.00404 0.38069 0.5103 0.0
H884 H 0.76207 0.71872 0.53162 0.0
H885 H 0.66255 0.60083 0.52518 0.0
H886 H 0.62698 0.62586 0.5032 0.0
H887 H 0.62373 0.68084 0.48589 0.0
H888 H 0.72228 0.79925 0.49263 0.0
H889 H 0.75827 0.77439 0.51463 0.0
C890 C 0.73273 0.6985 0.52525 0.0
C891 C 0.71514 0.65791 0.52998 0.0
C892 C 0.71203 0.71319 0.51287 0.0
C893 C 0.67687 0.63219 0.52182 0.0
C894 C 0.65641 0.64647 0.50927 0.0
C895 C 0.653 0.70135 0.49225 0.0
C896 C 0.67018 0.74189 0.48754 0.0
C897 C 0.6736 0.6869 0.50478 0.0
C898 C 0.70819 0.7679 0.496 0.0
C899 C 0.72892 0.75369 0.50851 0.0
H900 H 0.13315 0.37381 0.30019 0.0
H901 H 0.07342 0.25301 0.32315 0.0
H902 H 0.0852 0.27522 0.36275 0.0
H903 H 0.11623 0.32901 0.39072 0.0
H904 H 0.17198 0.44979 0.36806 0.0
H905 H 0.15782 0.42766 0.32841 0.0
C906 C 0.12243 0.3524 0.3139 0.0
C907 C 0.10279 0.31185 0.3088 0.0
C908 C 0.12875 0.36539 0.33661 0.0
C909 C 0.08854 0.28437 0.32667 0.0
C910 C 0.09545 0.29705 0.34929 0.0
C911 C 0.12498 0.35043 0.37707 0.0
C912 C 0.1455 0.39094 0.38219 0.0
C913 C 0.11609 0.33747 0.35444 0.0
C914 C 0.15615 0.41845 0.36447 0.0
C915 C 0.14821 0.40581 0.34183 0.0
H916 H 0.66651 0.771 0.29805 0.0
H917 H 0.78622 0.82439 0.32263 0.0
H918 H 0.76297 0.81712 0.36185 0.0
H919 H 0.709 0.79967 0.38891 0.0
H920 H 0.5889 0.74219 0.36485 0.0
H921 H 0.61178 0.7467 0.32558 0.0
C922 C 0.6874 0.78066 0.31204 0.0
C923 C 0.72801 0.79853 0.30752 0.0
C924 C 0.67377 0.77584 0.33455 0.0
C925 C 0.75482 0.81047 0.32573 0.0
C926 C 0.74157 0.80652 0.34813 0.0
C927 C 0.68789 0.7879 0.37504 0.0
C928 C 0.64744 0.77109 0.37959 0.0
C929 C 0.7012 0.78991 0.35269 0.0
C930 C 0.6202 0.75528 0.36164 0.0
C931 C 0.63328 0.758 0.33924 0.0
H932 H 0.21327 0.94887 0.31926 0.0
H933 H 0.28937 0.91336 0.28707 0.0
H934 H 0.30821 0.89975 0.32413 0.0
H935 H 0.29804 0.8916 0.36541 0.0
H936 H 0.21788 0.92212 0.39742 0.0
H937 H 0.20584 0.94405 0.36098 0.0
C938 C 0.23455 0.93893 0.32048 0.0
C939 C 0.24992 0.93212 0.30057 0.0
C940 C 0.24417 0.92974 0.34184 0.0
C941 C 0.27705 0.91865 0.30225 0.0
C942 C 0.28777 0.91077 0.32341 0.0
C943 C 0.27839 0.90357 0.36445 0.0
C944 C 0.25875 0.90496 0.38407 0.0
C945 C 0.27074 0.9152 0.3433 0.0
C946 C 0.23314 0.92035 0.38251 0.0
C947 C 0.22622 0.93297 0.36167 0.0
H948 H 0.33178 0.10869 0.63007 0.0
H949 H 0.45313 0.1607 0.65133 0.0
H950 H 0.43231 0.14573 0.69109 0.0
H951 H 0.37979 0.12211 0.71983 0.0
H952 H 0.2582 0.06652 0.69849 0.0
H953 H 0.27882 0.07809 0.65858 0.0
C954 C 0.35359 0.11647 0.64344 0.0
C955 C 0.39392 0.13623 0.63793 0.0
C956 C 0.34135 0.10712 0.66613 0.0
C957 C 0.42194 0.14555 0.65525 0.0
C958 C 0.41005 0.13711 0.67794 0.0
C959 C 0.35783 0.11213 0.7064 0.0
C960 C 0.31759 0.09388 0.71201 0.0
C961 C 0.36989 0.11852 0.68359 0.0
C962 C 0.28933 0.08056 0.69453 0.0
C963 C 0.30113 0.08741 0.67176 0.0
H964 H 0.91596 0.26176 0.71982 0.0
H965 H 0.97885 0.205 0.69527 0.0
H966 H 0.96422 0.21421 0.65594 0.0
H967 H 0.93059 0.23553 0.62871 0.0
H968 H 0.8717 0.29633 0.65332 0.0
H969 H 0.88781 0.28857 0.69252 0.0
C970 C 0.92666 0.25165 0.70582 0.0
C971 C 0.9481 0.23241 0.71037 0.0
C972 C 0.91871 0.25764 0.68334 0.0
C973 C 0.96234 0.21996 0.69215 0.0
C974 C 0.95381 0.22504 0.66969 0.0
C975 C 0.92147 0.2472 0.64268 0.0
C976 C 0.89965 0.2661 0.63821 0.0
C977 C 0.93155 0.24335 0.66511 0.0
C978 C 0.88853 0.28169 0.65638 0.0
C979 C 0.89762 0.27715 0.67877 0.0
H980 H 0.77409 0.66253 0.71868 0.0
H981 H 0.83248 0.78367 0.69635 0.0
H982 H 0.82039 0.76196 0.65663 0.0
H983 H 0.79722 0.70856 0.62838 0.0
H984 H 0.73587 0.58739 0.65069 0.0
H985 H 0.74484 0.60907 0.69041 0.0
C986 C 0.78388 0.68415 0.70509 0.0
C987 C 0.80455 0.72463 0.71037 0.0
C988 C 0.77643 0.67144 0.68238 0.0
C989 C 0.81652 0.75236 0.69268 0.0
C990 C 0.80978 0.73996 0.66999 0.0
C991 C 0.78557 0.68692 0.64196 0.0
C992 C 0.76634 0.64645 0.63669 0.0
C993 C 0.79041 0.6996 0.66467 0.0
C994 C 0.75079 0.61869 0.65437 0.0
C995 C 0.75607 0.63108 0.67705 0.0
H996 H 0.04877 0.46934 0.05126 0.0
H997 H 0.92689 0.40751 0.03024 0.0
H998 H 0.94712 0.41843 0.99025 0.0
H999 H 0.99959 0.45044 0.96152 0.0
H1000 H 0.12146 0.50898 0.98257 0.0
H1001 H 0.10118 0.49424 0.02241 0.0
C1002 C 0.02668 0.45787 0.03789 0.0
C1003 C 0.98642 0.43806 0.0436 0.0
C1004 C 0.03855 0.4639 0.01503 0.0
C1005 C 0.95804 0.4228 0.02621 0.0
C1006 C 0.96961 0.42926 1.00338 0.0
C1007 C 0.02166 0.45963 0.97485 0.0
C1008 C 0.06194 0.48122 0.96922 0.0
C1009 C 1.00977 0.45053 0.99763 0.0
C1010 C 0.0903 0.49239 0.98654 0.0
C1011 C 0.07871 0.48411 0.00929 0.0
H1012 H 0.62793 0.54806 0.03096 0.0
H1013 H 0.55569 0.58692 0.0647 0.0
H1014 H 0.54268 0.60872 0.02844 0.0
H1015 H 0.54661 0.61096 0.98663 0.0
H1016 H 0.61321 0.56582 0.95262 0.0
H1017 H 0.6341 0.55283 0.98927 0.0
C1018 C 0.60986 0.56185 0.03036 0.0
C1019 C 0.59271 0.56577 0.05041 0.0
C1020 C 0.60137 0.5731 0.00932 0.0
C1021 C 0.56897 0.5833 0.04941 0.0
C1022 C 0.56153 0.59582 0.0287 0.0
C1023 C 0.56637 0.59908 0.98734 0.0
C1024 C 0.57856 0.58952 0.96709 0.0
C1025 C 0.57684 0.59008 0.00847 0.0
C1026 C 0.60351 0.5734 0.9681 0.0
C1027 C 0.61535 0.56585 0.98902 0.0
H1028 H 0.49838 0.08674 0.02831 0.0
H1029 H 0.45791 0.97674 0.0638 0.0
H1030 H 0.43646 0.94055 0.02795 0.0
H1031 H 0.43395 0.94052 0.98604 0.0
H1032 H 0.4806 0.05109 0.9504 0.0
H1033 H 0.49441 0.08657 0.98651 0.0
C1034 C 0.48441 0.05483 0.02816 0.0
C1035 C 0.47981 0.03446 0.04861 0.0
C1036 C 0.47333 0.03427 1.00737 0.0
C1037 C 0.46206 0.99311 0.0482 0.0
C1038 C 0.44972 0.97237 0.02772 0.0
C1039 C 0.44648 0.97227 0.98629 0.0
C1040 C 0.4561 0.99322 0.96572 0.0
C1041 C 0.45585 0.99266 1.00713 0.0
C1042 C 0.473 0.03444 0.96613 0.0
C1043 C 0.48098 0.05474 0.98674 0.0
H1044 H 0.23769 0.12497 0.27008 0.0
H1045 H 0.16066 0.04167 0.21979 0.0
H1046 H 0.1317 0.08258 0.21186 0.0
H1047 H 0.12759 0.14209 0.21915 0.0
H1048 H 0.20481 0.22659 0.26869 0.0
H1049 H 0.23483 0.18593 0.27662 0.0
C1050 C 0.21462 0.11584 0.25738 0.0
C1051 C 0.20069 0.0796 0.24603 0.0
C1052 C 0.19834 0.14004 0.25257 0.0
C1053 C 0.17101 0.06852 0.22944 0.0
C1054 C 0.15468 0.09221 0.22465 0.0
C1055 C 0.15109 0.15153 0.23161 0.0
C1056 C 0.16426 0.18726 0.24318 0.0
C1057 C 0.16791 0.12789 0.23618 0.0
C1058 C 0.19465 0.19935 0.25934 0.0
C1059 C 0.21162 0.17601 0.26397 0.0
H1060 H 0.85847 0.99588 0.20638 0.0
H1061 H 0.88213 0.97422 0.27485 0.0
H1062 H 0.92986 0.0444 0.2799 0.0
H1063 H 0.96734 0.11148 0.2641 0.0
H1064 H 0.94459 0.13275 0.19516 0.0
H1065 H 0.89405 0.06359 0.19109 0.0
C1066 C 0.87394 1.00678 0.22242 0.0
C1067 C 0.86727 0.98017 0.24015 0.0
C1068 C 0.90157 0.04709 0.2251 0.0
C1069 C 0.88729 0.99433 0.2609 0.0
C1070 C 0.91448 0.03439 0.2638 0.0
C1071 C 0.95101 0.10107 0.24828 0.0
C1072 C 0.95986 0.12731 0.22997 0.0
C1073 C 0.92226 0.06101 0.24591 0.0
C1074 C 0.93856 0.11321 0.20953 0.0
C1075 C 0.90961 0.0736 0.20715 0.0
H1076 H 0.91715 0.80153 0.20941 0.0
H1077 H 0.91975 0.84762 0.27652 0.0
H1078 H 0.98987 0.86986 0.27977 0.0
H1079 H 0.05158 0.88091 0.2624 0.0
H1080 H 0.04988 0.83681 0.19507 0.0
H1081 H 0.97812 0.80846 0.19312 0.0
C1082 C 0.93292 0.81604 0.22485 0.0
C1083 C 0.91322 0.82317 0.24261 0.0
C1084 C 0.97343 0.82924 0.22651 0.0
C1085 C 0.93414 0.84185 0.26255 0.0
C1086 C 0.97431 0.8547 0.26442 0.0
C1087 C 0.0353 0.8649 0.24738 0.0
C1088 C 0.05565 0.86137 0.22874 0.0
C1089 C 0.99439 0.84932 0.24632 0.0
C1090 C 0.03455 0.83999 0.20952 0.0
C1091 C 0.99368 0.82398 0.2084 0.0
H1092 H 0.09848 0.18824 0.75474 0.0
H1093 H 0.12041 0.23456 0.82315 0.0
H1094 H 0.17294 0.21886 0.82761 0.0
H1095 H 0.20907 0.18669 0.81324 0.0
H1096 H 0.1858 0.13873 0.74541 0.0
H1097 H 0.13787 0.16064 0.73942 0.0
C1098 C 0.11511 0.19541 0.77051 0.0
C1099 C 0.10527 0.21229 0.78862 0.0
C1100 C 0.145 0.18579 0.7731 0.0
C1101 C 0.12712 0.22129 0.80896 0.0
C1102 C 0.15721 0.21231 0.81156 0.0
C1103 C 0.19385 0.18172 0.79708 0.0
C1104 C 0.20047 0.16103 0.77984 0.0
C1105 C 0.16587 0.1938 0.79393 0.0
C1106 C 0.18076 0.1545 0.75893 0.0
C1107 C 0.15336 0.16691 0.75553 0.0
H1108 H 0.86667 0.04507 0.75535 0.0
H1109 H 0.94304 0.05369 0.81059 0.0
H1110 H 0.92035 0.98313 0.80734 0.0
H1111 H 0.87962 0.91958 0.78847 0.0
H1112 H 0.80403 0.91071 0.73251 0.0
H1113 H 0.82514 0.98069 0.73653 0.0
C1114 C 0.87788 0.03122 0.76681 0.0
C1115 C 0.90608 0.05415 0.78336 0.0
C1116 C 0.86491 0.99076 0.76467 0.0
C1117 C 0.92111 0.03635 0.79784 0.0
C1118 C 0.90819 0.99612 0.79596 0.0
C1119 C 0.86777 0.93285 0.77706 0.0
C1120 C 0.8404 0.9098 0.76011 0.0
C1121 C 0.88025 0.97311 0.77936 0.0
C1122 C 0.82517 0.92764 0.74568 0.0
C1123 C 0.83725 0.9677 0.74796 0.0
H1124 H 0.11884 0.91494 0.73995 0.0
H1125 H 0.13882 0.97802 0.80333 0.0
H1126 H 0.07093 0.93393 0.81457 0.0
H1127 H 1.00462 0.879 0.80592 0.0
H1128 H 0.984 0.81487 0.7432 0.0
H1129 H 0.05319 0.85734 0.73226 0.0
C1130 C 0.10841 0.91889 0.75626 0.0
C1131 C 0.13393 0.95018 0.77057 0.0
C1132 C 0.06912 0.89312 0.7628 0.0
C1133 C 0.11986 0.9546 0.79176 0.0
C1134 C 0.08095 0.9293 0.7983 0.0
C1135 C 1.01561 0.87421 0.79001 0.0
C1136 C 0.98977 0.84396 0.77542 0.0
C1137 C 0.05521 0.89876 0.78387 0.0
C1138 C 1.00381 0.83789 0.75474 0.0
C1139 C 0.0432 0.86225 0.74847 0.0
H1140 H 0.80527 0.49734 0.5913 0.0
H1141 H 0.85719 0.54675 0.52634 0.0
H1142 H 0.88351 0.5017 0.52377 0.0
H1143 H 0.88835 0.44575 0.53915 0.0
H1144 H 0.83549 0.39611 0.60414 0.0
H1145 H 0.81295 0.44371 0.60757 0.0
C1146 C 0.82237 0.49811 0.57661 0.0
C1147 C 0.82893 0.52472 0.55887 0.0
C1148 C 0.8371 0.47206 0.57525 0.0
C1149 C 0.8517 0.52623 0.54011 0.0
C1150 C 0.86661 0.50046 0.53863 0.0
C1151 C 0.87217 0.44551 0.55415 0.0
C1152 C 0.86349 0.41719 0.5713 0.0
C1153 C 0.85901 0.47286 0.55597 0.0
C1154 C 0.84261 0.41749 0.59066 0.0
C1155 C 0.82957 0.44466 0.59263 0.0
H1156 H 0.63836 0.44984 0.5886 0.0
H1157 H 0.59648 0.47561 0.52656 0.0
H1158 H 0.54522 0.40654 0.52317 0.0
H1159 H 0.51343 0.33799 0.53711 0.0
H1160 H 0.55546 0.31219 0.59889 0.0
H1161 H 0.60549 0.38182 0.60308 0.0
C1162 C 0.61781 0.44043 0.57445 0.0
C1163 C 0.62133 0.46794 0.55787 0.0
C1164 C 0.58858 0.4005 0.57244 0.0
C1165 C 0.59456 0.45511 0.53956 0.0
C1166 C 0.5652 0.41556 0.53757 0.0
C1167 C 0.53353 0.34783 0.55149 0.0
C1168 C 0.53124 0.32017 0.56751 0.0
C1169 C 0.56216 0.38791 0.55378 0.0
C1170 C 0.55722 0.33302 0.58615 0.0
C1171 C 0.58565 0.3728 0.58861 0.0
H1172 H 0.69572 0.18171 0.5372 0.0
H1173 H 0.71717 0.23615 0.6033 0.0
H1174 H 0.64706 0.21413 0.60741 0.0
H1175 H 0.58039 0.18312 0.5912 0.0
H1176 H 0.5585 0.12903 0.52481 0.0
H1177 H 0.62761 0.1467 0.52193 0.0
C1178 C 0.68478 0.18826 0.55256 0.0
C1179 C 0.71145 0.2109 0.5698 0.0
C1180 C 0.64436 0.17569 0.55472 0.0
C1181 C 0.69713 0.21921 0.58968 0.0
C1182 C 0.65708 0.20659 0.59205 0.0
C1183 C 0.59056 0.17476 0.5762 0.0
C1184 C 0.56417 0.15491 0.55822 0.0
C1185 C 0.6305 0.18539 0.57452 0.0
C1186 C 0.57807 0.14442 0.53891 0.0
C1187 C 0.61769 0.15459 0.5372 0.0
H1188 H 0.83597 0.47594 0.08968 0.0
H1189 H 0.88302 0.52399 0.15578 0.0
H1190 H 0.83612 0.54792 0.15933 0.0
H1191 H 0.77952 0.55208 0.14432 0.0
H1192 H 0.73284 0.50407 0.07793 0.0
H1193 H 0.78185 0.48345 0.07373 0.0
C1194 C 0.83589 0.49177 0.10481 0.0
C1195 C 0.86249 0.498 0.12255 0.0
C1196 C 0.80891 0.50538 0.10666 0.0
C1197 C 0.86265 0.5189 0.14196 0.0
C1198 C 0.83583 0.53245 0.14399 0.0
C1199 C 0.78026 0.53742 0.12883 0.0
C1200 C 0.75231 0.52952 0.11152 0.0
C1201 C 0.8085 0.52546 0.12654 0.0
C1202 C 0.75391 0.51062 0.09154 0.0
C1203 C 0.78187 0.49864 0.08915 0.0
H1204 H 0.53051 0.24031 0.08585 0.0
H1205 H 0.48431 0.21656 0.15421 0.0
H1206 H 0.49846 0.2844 0.15799 0.0
H1207 H 0.52813 0.35203 0.1429 0.0
H1208 H 0.57501 0.3763 0.07488 0.0
H1209 H 0.55659 0.30707 0.06992 0.0
C1210 C 0.52302 0.24983 0.10144 0.0
C1211 C 0.50649 0.22333 0.11973 0.0
C1212 C 0.53178 0.28922 0.10366 0.0
C1213 C 0.49724 0.23632 0.13988 0.0
C1214 C 0.50537 0.27519 0.1421 0.0
C1215 C 0.53383 0.3419 0.12694 0.0
C1216 C 0.55316 0.36907 0.10935 0.0
C1217 C 0.52329 0.30211 0.12428 0.0
C1218 C 0.56055 0.35583 0.08874 0.0
C1219 C 0.54995 0.31629 0.08589 0.0
H1220 H 0.68679 0.16483 0.09303 0.0
H1221 H 0.66169 0.23633 0.13797 0.0
H1222 H 0.73065 0.28912 0.13621 0.0
H1223 H 0.79736 0.31511 0.12136 0.0
H1224 H 0.82299 0.24427 0.07598 0.0
H1225 H 0.75457 0.19073 0.07864 0.0
C1226 C 0.69669 0.19182 0.10263 0.0
C1227 C 0.66951 0.19682 0.11572 0.0
C1228 C 0.7363 0.22205 0.1014 0.0
C1229 C 0.68228 0.23204 0.1278 0.0
C1230 C 0.7216 0.26212 0.12679 0.0
C1231 C 0.78812 0.28804 0.11201 0.0
C1232 C 0.81536 0.28389 0.0984 0.0
C1233 C 0.74878 0.25753 0.11353 0.0
C1234 C 0.80271 0.24836 0.08656 0.0
C1235 C 0.76356 0.21771 0.08806 0.0
H1236 H 0.45899 0.80427 0.87335 0.0
H1237 H 0.5396 0.86902 0.92761 0.0
H1238 H 0.55879 0.81837 0.93067 0.0
H1239 H 0.55143 0.75457 0.91818 0.0
H1240 H 0.47287 0.69219 0.86241 0.0
H1241 H 0.45417 0.74272 0.85963 0.0
C1242 C 0.4809 0.80723 0.88573 0.0
C1243 C 0.49797 0.84011 0.90021 0.0
C1244 C 0.49207 0.77833 0.88714 0.0
C1245 C 0.52637 0.84395 0.91619 0.0
C1246 C 0.53718 0.81495 0.91798 0.0
C1247 C 0.53032 0.75218 0.9054 0.0
C1248 C 0.51357 0.71958 0.89056 0.0
C1249 C 0.52008 0.78185 0.90361 0.0
C1250 C 0.48644 0.71703 0.87398 0.0
C1251 C 0.47558 0.74588 0.8724 0.0
H1252 H 0.28174 0.80598 0.91858 0.0
H1253 H 0.32993 0.79544 0.85472 0.0
H1254 H 0.27556 0.7283 0.8502 0.0
H1255 H 0.21629 0.67083 0.8653 0.0
H1256 H 0.16608 0.68052 0.92832 0.0
H1257 H 0.21863 0.74962 0.93216 0.0
C1258 C 0.28013 0.78903 0.90364 0.0
C1259 C 0.31008 0.80575 0.88711 0.0
C1260 C 0.24829 0.75025 0.90094 0.0
C1261 C 0.30736 0.78346 0.86772 0.0
C1262 C 0.27626 0.74493 0.8651 0.0
C1263 C 0.2166 0.68844 0.87963 0.0
C1264 C 0.18755 0.67101 0.89645 0.0
C1265 C 0.24683 0.72788 0.88169 0.0
C1266 C 0.18809 0.69371 0.91507 0.0
C1267 C 0.21827 0.73303 0.91733 0.0
H1268 H 0.37456 0.57065 0.88451 0.0
H1269 H 0.36962 0.48611 0.93318 0.0
H1270 H 0.29952 0.46264 0.93991 0.0
H1271 H 0.24028 0.4683 0.93289 0.0
H1272 H 0.24616 0.55247 0.8833 0.0
H1273 H 0.31503 0.57403 0.87612 0.0
C1274 C 0.35793 0.54694 0.89647 0.0
C1275 C 0.37686 0.52996 0.90827 0.0
C1276 C 0.3179 0.53378 0.90024 0.0
C1277 C 0.35531 0.49923 0.92373 0.0
C1278 C 0.31538 0.48601 0.92766 0.0
C1279 C 0.25658 0.49122 0.92045 0.0
C1280 C 0.23805 0.50917 0.90899 0.0
C1281 C 0.2964 0.50333 0.91615 0.0
C1282 C 0.25966 0.53863 0.89276 0.0
C1283 C 0.29913 0.55091 0.88851 0.0
H1284 H 0.48593 0.80101 0.48142 0.0
H1285 H 0.53507 0.85629 0.41714 0.0
H1286 H 0.48429 0.87514 0.41309 0.0
H1287 H 0.42431 0.87372 0.4275 0.0
H1288 H 0.3771 0.8199 0.49265 0.0
H1289 H 0.42857 0.80282 0.49676 0.0
C1290 C 0.48553 0.81747 0.46667 0.0
C1291 C 0.5139 0.82742 0.44962 0.0
C1292 C 0.45652 0.82832 0.46459 0.0
C1293 C 0.51344 0.84867 0.4305 0.0
C1294 C 0.48439 0.85925 0.42817 0.0
C1295 C 0.42546 0.85843 0.44262 0.0
C1296 C 0.39679 0.84804 0.45968 0.0
C1297 C 0.45552 0.84894 0.44504 0.0
C1298 C 0.39881 0.82841 0.47925 0.0
C1299 C 0.4282 0.81848 0.48163 0.0
H1300 H 0.20068 0.57831 0.46097 0.0
H1301 H 0.10931 0.55108 0.41127 0.0
H1302 H 0.1225 0.61905 0.41316 0.0
H1303 H 0.163 0.68761 0.42738 0.0
H1304 H 0.25582 0.71425 0.47576 0.0
H1305 H 0.23919 0.64518 0.47594 0.0
C1306 C 0.18357 0.58707 0.45051 0.0
C1307 C 0.1543 0.55956 0.43583 0.0
C1308 C 0.19166 0.62623 0.45146 0.0
C1309 C 0.13215 0.57159 0.42267 0.0
C1310 C 0.1397 0.61051 0.42372 0.0
C1311 C 0.17902 0.67795 0.43819 0.0
C1312 C 0.2104 0.70567 0.45165 0.0
C1313 C 0.16973 0.63824 0.43785 0.0
C1314 C 0.23151 0.69323 0.46533 0.0
C1315 C 0.22207 0.65384 0.46539 0.0
H1316 H 0.45754 0.63823 0.4293 0.0
H1317 H 0.48561 0.6062 0.49406 0.0
H1318 H 0.4178 0.552 0.49766 0.0
H1319 H 0.34923 0.5155 0.48327 0.0
H1320 H 0.32139 0.54859 0.41895 0.0
H1321 H 0.39018 0.60037 0.41427 0.0
C1322 C 0.44898 0.61919 0.44411 0.0
C1323 C 0.4767 0.62642 0.46139 0.0
C1324 C 0.40978 0.58834 0.44622 0.0
C1325 C 0.46491 0.60147 0.48051 0.0
C1326 C 0.42608 0.57043 0.48261 0.0
C1327 C 0.3585 0.53394 0.46819 0.0
C1328 C 0.33047 0.52869 0.45158 0.0
C1329 C 0.3981 0.56388 0.46572 0.0
C1330 C 0.34255 0.55257 0.43207 0.0
C1331 C 0.38183 0.58207 0.42937 0.0
loop_
_geom_bond_atom_site_label_1
_geom_bond_atom_site_label_2
_geom_bond_distance
_geom_bond_site_symmetry_2
_ccdc_geom_bond_type
Co0 O3 1.970 . S
Co0 N17 1.989 . S
Co0 O25 1.967 . S
Co0 O32 1.920 . S
Co1 O4 1.966 . S
Co1 N10 2.022 . S
Co1 N18 1.993 . S
Co1 O26 1.941 . S
C2 O3 1.258 . S
C2 O4 1.263 . S
O3 Co0 1.970 . S
O3 C2 1.258 . S
O4 Co1 1.966 . S
O4 C2 1.263 . S
C5 O6 1.235 . S
C5 O32 1.289 1_655 S
O6 C5 1.235 . S
C7 C9 1.400 . S
C7 N10 1.351 . S
C7 C12 1.501 . S
C8 C9 1.387 . S
C8 N11 1.341 . S
C9 C7 1.400 . S
C9 C8 1.387 . S
N10 Co1 2.022 . S
N10 C7 1.351 . S
N10 N11 1.365 . S
N11 C8 1.341 . S
N11 N10 1.365 . S
N11 H31 0.862 . S
C12 C7 1.501 . S
C12 H13 0.961 . S
C12 H14 0.961 . S
C12 H15 0.960 . S
H13 C12 0.961 . S
H14 C12 0.961 . S
H15 C12 0.960 . S
C16 N17 1.342 . S
C16 C20 1.401 . S
C16 C21 1.499 . S
N17 Co0 1.989 . S
N17 C16 1.342 . S
N17 N18 1.388 . S
N18 Co1 1.993 . S
N18 N17 1.388 . S
N18 C19 1.346 . S
C19 N18 1.346 . S
C19 C20 1.396 . S
C19 C29 1.510 . S
C20 C16 1.401 . S
C20 C19 1.396 . S
C21 C16 1.499 . S
C21 H22 0.959 . S
C21 H23 0.960 . S
C21 H24 0.961 . S
H22 C21 0.959 . S
H23 C21 0.960 . S
H24 C21 0.961 . S
O25 Co0 1.967 . S
O25 C33 1.258 . S
O26 Co1 1.941 . S
O26 C33 1.266 . S
H27 C29 0.959 . S
H28 C29 0.961 . S
C29 C19 1.510 . S
C29 H27 0.959 . S
C29 H28 0.961 . S
C29 H30 0.960 . S
H30 C29 0.960 . S
H31 N11 0.862 . S
O32 Co0 1.920 . S
O32 C5 1.289 1_455 S
C33 O25 1.258 . S
C33 O26 1.266 . S
Co34 O37 1.970 . S
Co34 N51 1.989 . S
Co34 O59 1.967 . S
Co34 O66 1.920 . S
Co35 O38 1.966 . S
Co35 N44 2.022 . S
Co35 N52 1.993 . S
Co35 O60 1.941 . S
C36 O37 1.258 . S
C36 O38 1.263 . S
O37 Co34 1.970 . S
O37 C36 1.258 . S
O38 Co35 1.966 . S
O38 C36 1.263 . S
C39 O40 1.235 . S
C39 O66 1.289 . S
O40 C39 1.235 . S
C41 C43 1.400 . S
C41 N44 1.351 . S
C41 C46 1.501 . S
C42 C43 1.387 . S
C42 N45 1.341 . S
C43 C41 1.400 . S
C43 C42 1.387 . S
N44 Co35 2.022 . S
N44 C41 1.351 . S
N44 N45 1.365 . S
N45 C42 1.341 . S
N45 N44 1.365 . S
N45 H65 0.862 . S
C46 C41 1.501 . S
C46 H47 0.961 . S
C46 H48 0.961 . S
C46 H49 0.960 . S
H47 C46 0.961 . S
H48 C46 0.961 . S
H49 C46 0.960 . S
C50 N51 1.342 . S
C50 C54 1.401 . S
C50 C55 1.499 . S
N51 Co34 1.989 . S
N51 C50 1.342 . S
N51 N52 1.388 . S
N52 Co35 1.993 . S
N52 N51 1.388 . S
N52 C53 1.346 . S
C53 N52 1.346 . S
C53 C54 1.396 . S
C53 C63 1.510 . S
C54 C50 1.401 . S
C54 C53 1.396 . S
C55 C50 1.499 . S
C55 H56 0.959 . S
C55 H57 0.960 . S
C55 H58 0.961 . S
H56 C55 0.959 . S
H57 C55 0.960 . S
H58 C55 0.961 . S
O59 Co34 1.967 . S
O59 C67 1.258 . S
O60 Co35 1.941 . S
O60 C67 1.266 . S
H61 C63 0.959 . S
H62 C63 0.961 . S
C63 C53 1.510 . S
C63 H61 0.959 . S
C63 H62 0.961 . S
C63 H64 0.960 . S
H64 C63 0.960 . S
H65 N45 0.862 . S
O66 Co34 1.920 . S
O66 C39 1.289 . S
C67 O59 1.258 . S
C67 O60 1.266 . S
Co68 O71 1.970 . S
Co68 N85 1.989 . S
Co68 O93 1.967 . S
Co68 O100 1.920 1_565 S
Co69 O72 1.966 . S
Co69 N78 2.022 . S
Co69 N86 1.993 . S
Co69 O94 1.941 . S
C70 O71 1.258 . S
C70 O72 1.263 . S
O71 Co68 1.970 . S
O71 C70 1.258 . S
O72 Co69 1.966 . S
O72 C70 1.263 . S
C73 O74 1.235 . S
C73 O100 1.289 . S
O74 C73 1.235 . S
C75 C77 1.400 . S
C75 N78 1.351 . S
C75 C80 1.501 . S
C76 C77 1.387 . S
C76 N79 1.341 . S
C77 C75 1.400 . S
C77 C76 1.387 . S
N78 Co69 2.022 . S
N78 C75 1.351 . S
N78 N79 1.365 . S
N79 C76 1.341 . S
N79 N78 1.365 . S
N79 H99 0.862 . S
C80 C75 1.501 . S
C80 H81 0.961 . S
C80 H82 0.961 . S
C80 H83 0.960 . S
H81 C80 0.961 . S
H82 C80 0.961 . S
H83 C80 0.960 . S
C84 N85 1.342 . S
C84 C88 1.401 . S
C84 C89 1.499 . S
N85 Co68 1.989 . S
N85 C84 1.342 . S
N85 N86 1.388 . S
N86 Co69 1.993 . S
N86 N85 1.388 . S
N86 C87 1.346 . S
C87 N86 1.346 . S
C87 C88 1.396 . S
C87 C97 1.510 . S
C88 C84 1.401 . S
C88 C87 1.396 . S
C89 C84 1.499 . S
C89 H90 0.959 . S
C89 H91 0.960 . S
C89 H92 0.961 . S
H90 C89 0.959 . S
H91 C89 0.960 . S
H92 C89 0.961 . S
O93 Co68 1.967 . S
O93 C101 1.258 . S
O94 Co69 1.941 . S
O94 C101 1.266 . S
H95 C97 0.959 . S
H96 C97 0.961 . S
C97 C87 1.510 . S
C97 H95 0.959 . S
C97 H96 0.961 . S
C97 H98 0.960 . S
H98 C97 0.960 . S
H99 N79 0.862 . S
O100 Co68 1.920 1_545 S
O100 C73 1.289 . S
C101 O93 1.258 . S
C101 O94 1.266 . S
Co102 O105 1.970 . S
Co102 N119 1.989 . S
Co102 O127 1.967 . S
Co102 O134 1.920 . S
Co103 O106 1.966 . S
Co103 N112 2.022 . S
Co103 N120 1.993 . S
Co103 O128 1.941 . S
C104 O105 1.258 . S
C104 O106 1.263 . S
O105 Co102 1.970 . S
O105 C104 1.258 . S
O106 Co103 1.966 . S
O106 C104 1.263 . S
C107 O108 1.235 . S
C107 O134 1.289 1_565 S
O108 C107 1.235 . S
C109 C111 1.400 . S
C109 N112 1.351 . S
C109 C114 1.501 . S
C110 C111 1.387 . S
C110 N113 1.341 . S
C111 C109 1.400 . S
C111 C110 1.387 . S
N112 Co103 2.022 . S
N112 C109 1.351 . S
N112 N113 1.365 . S
N113 C110 1.341 . S
N113 N112 1.365 . S
N113 H133 0.862 . S
C114 C109 1.501 . S
C114 H115 0.961 . S
C114 H116 0.961 . S
C114 H117 0.960 . S
H115 C114 0.961 . S
H116 C114 0.961 . S
H117 C114 0.960 . S
C118 N119 1.342 . S
C118 C122 1.401 . S
C118 C123 1.499 . S
N119 Co102 1.989 . S
N119 C118 1.342 . S
N119 N120 1.388 . S
N120 Co103 1.993 . S
N120 N119 1.388 . S
N120 C121 1.346 . S
C121 N120 1.346 . S
C121 C122 1.396 . S
C121 C131 1.510 . S
C122 C118 1.401 . S
C122 C121 1.396 . S
C123 C118 1.499 . S
C123 H124 0.959 . S
C123 H125 0.960 . S
C123 H126 0.961 . S
H124 C123 0.959 . S
H125 C123 0.960 . S
H126 C123 0.961 . S
O127 Co102 1.967 . S
O127 C135 1.258 . S
O128 Co103 1.941 . S
O128 C135 1.266 . S
H129 C131 0.959 . S
H130 C131 0.961 . S
C131 C121 1.510 . S
C131 H129 0.959 . S
C131 H130 0.961 . S
C131 H132 0.960 . S
H132 C131 0.960 . S
H133 N113 0.862 . S
O134 Co102 1.920 . S
O134 C107 1.289 1_545 S
C135 O127 1.258 . S
C135 O128 1.266 . S
Co136 O139 1.970 . S
Co136 N153 1.989 . S
Co136 O161 1.967 . S
Co136 O168 1.920 1_655 S
Co137 O140 1.966 . S
Co137 N146 2.022 . S
Co137 N154 1.993 . S
Co137 O162 1.941 . S
C138 O139 1.258 . S
C138 O140 1.263 . S
O139 Co136 1.970 . S
O139 C138 1.258 . S
O140 Co137 1.966 . S
O140 C138 1.263 . S
C141 O142 1.235 . S
C141 O168 1.289 . S
O142 C141 1.235 . S
C143 C145 1.400 . S
C143 N146 1.351 . S
C143 C148 1.501 . S
C144 C145 1.387 . S
C144 N147 1.341 . S
C145 C143 1.400 . S
C145 C144 1.387 . S
N146 Co137 2.022 . S
N146 C143 1.351 . S
N146 N147 1.365 . S
N147 C144 1.341 . S
N147 N146 1.365 . S
N147 H167 0.862 . S
C148 C143 1.501 . S
C148 H149 0.961 . S
C148 H150 0.961 . S
C148 H151 0.960 . S
H149 C148 0.961 . S
H150 C148 0.961 . S
H151 C148 0.960 . S
C152 N153 1.342 . S
C152 C156 1.401 . S
C152 C157 1.499 . S
N153 Co136 1.989 . S
N153 C152 1.342 . S
N153 N154 1.388 . S
N154 Co137 1.993 . S
N154 N153 1.388 . S
N154 C155 1.346 . S
C155 N154 1.346 . S
C155 C156 1.396 . S
C155 C165 1.510 . S
C156 C152 1.401 . S
C156 C155 1.396 . S
C157 C152 1.499 . S
C157 H158 0.959 . S
C157 H159 0.960 . S
C157 H160 0.961 . S
H158 C157 0.959 . S
H159 C157 0.960 . S
H160 C157 0.961 . S
O161 Co136 1.967 . S
O161 C169 1.258 . S
O162 Co137 1.941 . S
O162 C169 1.266 . S
H163 C165 0.959 . S
H164 C165 0.961 . S
C165 C155 1.510 . S
C165 H163 0.959 . S
C165 H164 0.961 . S
C165 H166 0.960 . S
H166 C165 0.960 . S
H167 N147 0.862 . S
O168 Co136 1.920 1_455 S
O168 C141 1.289 . S
C169 O161 1.258 . S
C169 O162 1.266 . S
Co170 O173 1.970 . S
Co170 N187 1.989 . S
Co170 O195 1.967 . S
Co170 O202 1.920 . S
Co171 O174 1.966 . S
Co171 N180 2.022 . S
Co171 N188 1.993 . S
Co171 O196 1.941 . S
C172 O173 1.258 . S
C172 O174 1.263 . S
O173 Co170 1.970 . S
O173 C172 1.258 . S
O174 Co171 1.966 . S
O174 C172 1.263 . S
C175 O176 1.235 . S
C175 O202 1.289 . S
O176 C175 1.235 . S
C177 C179 1.400 . S
C177 N180 1.351 . S
C177 C182 1.501 . S
C178 C179 1.387 . S
C178 N181 1.341 . S
C179 C177 1.400 . S
C179 C178 1.387 . S
N180 Co171 2.022 . S
N180 C177 1.351 . S
N180 N181 1.365 . S
N181 C178 1.341 . S
N181 N180 1.365 . S
N181 H201 0.862 . S
C182 C177 1.501 . S
C182 H183 0.961 . S
C182 H184 0.961 . S
C182 H185 0.960 . S
H183 C182 0.961 . S
H184 C182 0.961 . S
H185 C182 0.960 . S
C186 N187 1.342 . S
C186 C190 1.401 . S
C186 C191 1.499 . S
N187 Co170 1.989 . S
N187 C186 1.342 . S
N187 N188 1.388 . S
N188 Co171 1.993 . S
N188 N187 1.388 . S
N188 C189 1.346 . S
C189 N188 1.346 . S
C189 C190 1.396 . S
C189 C199 1.510 . S
C190 C186 1.401 . S
C190 C189 1.396 . S
C191 C186 1.499 . S
C191 H192 0.959 . S
C191 H193 0.960 . S
C191 H194 0.961 . S
H192 C191 0.959 . S
H193 C191 0.960 . S
H194 C191 0.961 . S
O195 Co170 1.967 . S
O195 C203 1.258 . S
O196 Co171 1.941 . S
O196 C203 1.266 . S
H197 C199 0.959 . S
H198 C199 0.961 . S
C199 C189 1.510 . S
C199 H197 0.959 . S
C199 H198 0.961 . S
C199 H200 0.960 . S
H200 C199 0.960 . S
H201 N181 0.862 . S
O202 Co170 1.920 . S
O202 C175 1.289 . S
C203 O195 1.258 . S
C203 O196 1.266 . S
Co204 O207 1.970 . S
Co204 N221 1.989 . S
Co204 O229 1.967 . S
Co204 O236 1.920 . S
Co205 O208 1.966 . S
Co205 N214 2.022 . S
Co205 N222 1.993 . S
Co205 O230 1.941 . S
C206 O207 1.258 . S
C206 O208 1.263 . S
O207 Co204 1.970 . S
O207 C206 1.258 . S
O208 Co205 1.966 . S
O208 C206 1.263 . S
C209 O210 1.235 . S
C209 O236 1.289 . S
O210 C209 1.235 . S
C211 C213 1.400 . S
C211 N214 1.351 . S
C211 C216 1.501 . S
C212 C213 1.387 . S
C212 N215 1.341 . S
C213 C211 1.400 . S
C213 C212 1.387 . S
N214 Co205 2.022 . S
N214 C211 1.351 . S
N214 N215 1.365 . S
N215 C212 1.341 . S
N215 N214 1.365 . S
N215 H235 0.862 . S
C216 C211 1.501 . S
C216 H217 0.961 . S
C216 H218 0.961 . S
C216 H219 0.960 . S
H217 C216 0.961 . S
H218 C216 0.961 . S
H219 C216 0.960 . S
C220 N221 1.342 . S
C220 C224 1.401 . S
C220 C225 1.499 . S
N221 Co204 1.989 . S
N221 C220 1.342 . S
N221 N222 1.388 . S
N222 Co205 1.993 . S
N222 N221 1.388 . S
N222 C223 1.346 . S
C223 N222 1.346 . S
C223 C224 1.396 . S
C223 C233 1.510 . S
C224 C220 1.401 . S
C224 C223 1.396 . S
C225 C220 1.499 . S
C225 H226 0.959 . S
C225 H227 0.960 . S
C225 H228 0.961 . S
H226 C225 0.959 . S
H227 C225 0.960 . S
H228 C225 0.961 . S
O229 Co204 1.967 . S
O229 C237 1.258 . S
O230 Co205 1.941 . S
O230 C237 1.266 . S
H231 C233 0.959 . S
H232 C233 0.961 . S
C233 C223 1.510 . S
C233 H231 0.959 . S
C233 H232 0.961 . S
C233 H234 0.960 . S
H234 C233 0.960 . S
H235 N215 0.862 . S
O236 Co204 1.920 . S
O236 C209 1.289 . S
C237 O229 1.258 . S
C237 O230 1.266 . S
Co238 O241 1.970 . S
Co238 N255 1.989 . S
Co238 O263 1.967 . S
Co238 O270 1.920 . S
Co239 O242 1.966 . S
Co239 N248 2.022 . S
Co239 N256 1.993 . S
Co239 O264 1.941 . S
C240 O241 1.258 . S
C240 O242 1.263 . S
O241 Co238 1.970 . S
O241 C240 1.258 . S
O242 Co239 1.966 . S
O242 C240 1.263 . S
C243 O244 1.235 . S
C243 O270 1.289 . S
O244 C243 1.235 . S
C245 C247 1.400 . S
C245 N248 1.351 . S
C245 C250 1.501 . S
C246 C247 1.387 . S
C246 N249 1.341 . S
C247 C245 1.400 . S
C247 C246 1.387 . S
N248 Co239 2.022 . S
N248 C245 1.351 . S
N248 N249 1.365 . S
N249 C246 1.341 . S
N249 N248 1.365 . S
N249 H269 0.862 . S
C250 C245 1.501 . S
C250 H251 0.961 . S
C250 H252 0.961 . S
C250 H253 0.960 . S
H251 C250 0.961 . S
H252 C250 0.961 . S
H253 C250 0.960 . S
C254 N255 1.342 . S
C254 C258 1.401 . S
C254 C259 1.499 . S
N255 Co238 1.989 . S
N255 C254 1.342 . S
N255 N256 1.388 . S
N256 Co239 1.993 . S
N256 N255 1.388 . S
N256 C257 1.346 . S
C257 N256 1.346 . S
C257 C258 1.396 . S
C257 C267 1.510 . S
C258 C254 1.401 . S
C258 C257 1.396 . S
C259 C254 1.499 . S
C259 H260 0.959 . S
C259 H261 0.960 . S
C259 H262 0.961 . S
H260 C259 0.959 . S
H261 C259 0.960 . S
H262 C259 0.961 . S
O263 Co238 1.967 . S
O263 C271 1.258 . S
O264 Co239 1.941 . S
O264 C271 1.266 . S
H265 C267 0.959 . S
H266 C267 0.961 . S
C267 C257 1.510 . S
C267 H265 0.959 . S
C267 H266 0.961 . S
C267 H268 0.960 . S
H268 C267 0.960 . S
H269 N249 0.862 . S
O270 Co238 1.920 . S
O270 C243 1.289 . S
C271 O263 1.258 . S
C271 O264 1.266 . S
Co272 O275 1.970 . S
Co272 N289 1.989 . S
Co272 O297 1.967 . S
Co272 O304 1.920 . S
Co273 O276 1.966 . S
Co273 N282 2.022 . S
Co273 N290 1.993 . S
Co273 O298 1.941 . S
C274 O275 1.258 . S
C274 O276 1.263 . S
O275 Co272 1.970 . S
O275 C274 1.258 . S
O276 Co273 1.966 . S
O276 C274 1.263 . S
C277 O278 1.235 . S
C277 O304 1.289 . S
O278 C277 1.235 . S
C279 C281 1.400 . S
C279 N282 1.351 . S
C279 C284 1.501 . S
C280 C281 1.387 . S
C280 N283 1.341 . S
C281 C279 1.400 . S
C281 C280 1.387 . S
N282 Co273 2.022 . S
N282 C279 1.351 . S
N282 N283 1.365 . S
N283 C280 1.341 . S
N283 N282 1.365 . S
N283 H303 0.862 . S
C284 C279 1.501 . S
C284 H285 0.961 . S
C284 H286 0.961 . S
C284 H287 0.960 . S
H285 C284 0.961 . S
H286 C284 0.961 . S
H287 C284 0.960 . S
C288 N289 1.342 . S
C288 C292 1.401 . S
C288 C293 1.499 . S
N289 Co272 1.989 . S
N289 C288 1.342 . S
N289 N290 1.388 . S
N290 Co273 1.993 . S
N290 N289 1.388 . S
N290 C291 1.346 . S
C291 N290 1.346 . S
C291 C292 1.396 . S
C291 C301 1.510 . S
C292 C288 1.401 . S
C292 C291 1.396 . S
C293 C288 1.499 . S
C293 H294 0.959 . S
C293 H295 0.960 . S
C293 H296 0.961 . S
H294 C293 0.959 . S
H295 C293 0.960 . S
H296 C293 0.961 . S
O297 Co272 1.967 . S
O297 C305 1.258 . S
O298 Co273 1.941 . S
O298 C305 1.266 . S
H299 C301 0.959 . S
H300 C301 0.961 . S
C301 C291 1.510 . S
C301 H299 0.959 . S
C301 H300 0.961 . S
C301 H302 0.960 . S
H302 C301 0.960 . S
H303 N283 0.862 . S
O304 Co272 1.920 . S
O304 C277 1.289 . S
C305 O297 1.258 . S
C305 O298 1.266 . S
Co306 O309 1.970 . S
Co306 N323 1.989 . S
Co306 O331 1.967 . S
Co306 O338 1.920 . S
Co307 O310 1.966 . S
Co307 N316 2.024 . S
Co307 N324 1.993 . S
Co307 O332 1.941 . S
C308 O309 1.258 . S
C308 O310 1.263 . S
O309 Co306 1.970 . S
O309 C308 1.258 . S
O310 Co307 1.966 . S
O310 C308 1.263 . S
C311 O312 1.235 . S
C311 O338 1.289 . S
O312 C311 1.235 . S
C313 C315 1.400 . S
C313 N316 1.348 1_455 S
C313 C318 1.501 . S
C314 C315 1.387 . S
C314 N317 1.341 . S
C315 C313 1.400 . S
C315 C314 1.387 . S
N316 Co307 2.024 . S
N316 C313 1.348 1_655 S
N316 N317 1.370 1_655 S
N317 C314 1.341 . S
N317 N316 1.370 1_455 S
N317 H337 0.862 1_455 S
C318 C313 1.501 . S
C318 H319 0.961 . S
C318 H320 0.961 . S
C318 H321 0.960 . S
H319 C318 0.961 . S
H320 C318 0.961 . S
H321 C318 0.960 . S
C322 N323 1.342 . S
C322 C326 1.401 . S
C322 C327 1.499 . S
N323 Co306 1.989 . S
N323 C322 1.342 . S
N323 N324 1.388 . S
N324 Co307 1.993 . S
N324 N323 1.388 . S
N324 C325 1.346 . S
C325 N324 1.346 . S
C325 C326 1.396 . S
C325 C335 1.510 . S
C326 C322 1.401 . S
C326 C325 1.396 . S
C327 C322 1.499 . S
C327 H328 0.959 . S
C327 H329 0.960 . S
C327 H330 0.961 . S
H328 C327 0.959 . S
H329 C327 0.960 . S
H330 C327 0.961 . S
O331 Co306 1.967 . S
O331 C339 1.258 . S
O332 Co307 1.941 . S
O332 C339 1.266 . S
H333 C335 0.959 . S
H334 C335 0.961 . S
C335 C325 1.510 . S
C335 H333 0.959 . S
C335 H334 0.961 . S
C335 H336 0.960 . S
H336 C335 0.960 . S
H337 N317 0.862 1_655 S
O338 Co306 1.920 . S
O338 C311 1.289 . S
C339 O331 1.258 . S
C339 O332 1.266 . S
Co340 O343 1.970 . S
Co340 N357 1.989 . S
Co340 O365 1.967 . S
Co340 O372 1.920 . S
Co341 O344 1.966 . S
Co341 N350 2.022 . S
Co341 N358 1.993 . S
Co341 O366 1.941 . S
C342 O343 1.258 . S
C342 O344 1.263 . S
O343 Co340 1.970 . S
O343 C342 1.258 . S
O344 Co341 1.966 . S
O344 C342 1.263 . S
C345 O346 1.235 . S
C345 O372 1.289 . S
O346 C345 1.235 . S
C347 C349 1.400 . S
C347 N350 1.351 . S
C347 C352 1.501 . S
C348 C349 1.387 . S
C348 N351 1.341 . S
C349 C347 1.400 . S
C349 C348 1.387 . S
N350 Co341 2.022 . S
N350 C347 1.351 . S
N350 N351 1.365 . S
N351 C348 1.341 . S
N351 N350 1.365 . S
N351 H371 0.862 . S
C352 C347 1.501 . S
C352 H353 0.961 . S
C352 H354 0.961 . S
C352 H355 0.960 . S
H353 C352 0.961 . S
H354 C352 0.961 . S
H355 C352 0.960 . S
C356 N357 1.342 . S
C356 C360 1.401 . S
C356 C361 1.499 . S
N357 Co340 1.989 . S
N357 C356 1.342 . S
N357 N358 1.388 . S
N358 Co341 1.993 . S
N358 N357 1.388 . S
N358 C359 1.346 . S
C359 N358 1.346 . S
C359 C360 1.396 . S
C359 C369 1.510 . S
C360 C356 1.401 . S
C360 C359 1.396 . S
C361 C356 1.499 . S
C361 H362 0.959 . S
C361 H363 0.960 . S
C361 H364 0.961 . S
H362 C361 0.959 . S
H363 C361 0.960 . S
H364 C361 0.961 . S
O365 Co340 1.967 . S
O365 C373 1.258 . S
O366 Co341 1.941 . S
O366 C373 1.266 . S
H367 C369 0.959 . S
H368 C369 0.961 . S
C369 C359 1.510 . S
C369 H367 0.959 . S
C369 H368 0.961 . S
C369 H370 0.960 . S
H370 C369 0.960 . S
H371 N351 0.862 . S
O372 Co340 1.920 . S
O372 C345 1.289 . S
C373 O365 1.258 . S
C373 O366 1.266 . S
Co374 O377 1.970 . S
Co374 N391 1.989 . S
Co374 O399 1.967 . S
Co374 O406 1.920 . S
Co375 O378 1.966 . S
Co375 N384 2.022 . S
Co375 N392 1.993 . S
Co375 O400 1.941 . S
C376 O377 1.258 . S
C376 O378 1.263 . S
O377 Co374 1.970 . S
O377 C376 1.258 . S
O378 Co375 1.966 . S
O378 C376 1.263 . S
C379 O380 1.235 . S
C379 O406 1.289 . S
O380 C379 1.235 . S
C381 C383 1.400 . S
C381 N384 1.351 1_565 S
C381 C386 1.501 . S
C382 C383 1.387 . S
C382 N385 1.341 1_565 S
C383 C381 1.400 . S
C383 C382 1.387 . S
N384 Co375 2.022 . S
N384 C381 1.351 1_545 S
N384 N385 1.365 . S
N385 C382 1.341 1_545 S
N385 N384 1.365 . S
N385 H405 0.862 . S
C386 C381 1.501 . S
C386 H387 0.961 . S
C386 H388 0.961 1_565 S
C386 H389 0.960 . S
H387 C386 0.961 . S
H388 C386 0.961 1_545 S
H389 C386 0.960 . S
C390 N391 1.342 . S
C390 C394 1.401 . S
C390 C395 1.499 . S
N391 Co374 1.989 . S
N391 C390 1.342 . S
N391 N392 1.388 . S
N392 Co375 1.993 . S
N392 N391 1.388 . S
N392 C393 1.346 . S
C393 N392 1.346 . S
C393 C394 1.396 . S
C393 C403 1.510 . S
C394 C390 1.401 . S
C394 C393 1.396 . S
C395 C390 1.499 . S
C395 H396 0.959 . S
C395 H397 0.960 . S
C395 H398 0.961 . S
H396 C395 0.959 . S
H397 C395 0.960 . S
H398 C395 0.961 . S
O399 Co374 1.967 . S
O399 C407 1.258 . S
O400 Co375 1.941 . S
O400 C407 1.266 . S
H401 C403 0.959 . S
H402 C403 0.961 . S
C403 C393 1.510 . S
C403 H401 0.959 . S
C403 H402 0.961 . S
C403 H404 0.960 . S
H404 C403 0.960 . S
H405 N385 0.862 . S
O406 Co374 1.920 . S
O406 C379 1.289 . S
C407 O399 1.258 . S
C407 O400 1.266 . S
Co408 O411 1.970 . S
Co408 N425 1.989 . S
Co408 O433 1.967 . S
Co408 O440 1.920 . S
Co409 O412 1.966 . S
Co409 N418 2.024 . S
Co409 N426 1.993 . S
Co409 O434 1.941 . S
C410 O411 1.258 . S
C410 O412 1.263 . S
O411 Co408 1.970 . S
O411 C410 1.258 . S
O412 Co409 1.966 . S
O412 C410 1.263 . S
C413 O414 1.235 . S
C413 O440 1.289 . S
O414 C413 1.235 . S
C415 C417 1.400 . S
C415 N418 1.348 1_545 S
C415 C420 1.501 . S
C416 C417 1.387 . S
C416 N419 1.341 . S
C417 C415 1.400 . S
C417 C416 1.387 . S
N418 Co409 2.024 . S
N418 C415 1.348 1_565 S
N418 N419 1.370 1_565 S
N419 C416 1.341 . S
N419 N418 1.370 1_545 S
N419 H439 0.862 1_545 S
C420 C415 1.501 . S
C420 H421 0.961 . S
C420 H422 0.961 . S
C420 H423 0.960 . S
H421 C420 0.961 . S
H422 C420 0.961 . S
H423 C420 0.960 . S
C424 N425 1.342 . S
C424 C428 1.401 . S
C424 C429 1.499 . S
N425 Co408 1.989 . S
N425 C424 1.342 . S
N425 N426 1.388 . S
N426 Co409 1.993 . S
N426 N425 1.388 . S
N426 C427 1.346 . S
C427 N426 1.346 . S
C427 C428 1.396 . S
C427 C437 1.510 . S
C428 C424 1.401 . S
C428 C427 1.396 . S
C429 C424 1.499 . S
C429 H430 0.959 . S
C429 H431 0.960 . S
C429 H432 0.961 . S
H430 C429 0.959 . S
H431 C429 0.960 . S
H432 C429 0.961 . S
O433 Co408 1.967 . S
O433 C441 1.258 . S
O434 Co409 1.941 . S
O434 C441 1.266 . S
H435 C437 0.959 . S
H436 C437 0.961 . S
C437 C427 1.510 . S
C437 H435 0.959 . S
C437 H436 0.961 . S
C437 H438 0.960 . S
H438 C437 0.960 . S
H439 N419 0.862 1_565 S
O440 Co408 1.920 . S
O440 C413 1.289 . S
C441 O433 1.258 . S
C441 O434 1.266 . S
Co442 O445 1.970 . S
Co442 N459 1.989 . S
Co442 O467 1.967 . S
Co442 O474 1.920 . S
Co443 O446 1.966 . S
Co443 N452 2.022 . S
Co443 N460 1.993 . S
Co443 O468 1.941 . S
C444 O445 1.258 . S
C444 O446 1.263 . S
O445 Co442 1.970 . S
O445 C444 1.258 . S
O446 Co443 1.966 . S
O446 C444 1.263 . S
C447 O448 1.235 . S
C447 O474 1.289 . S
O448 C447 1.235 . S
C449 C451 1.400 . S
C449 N452 1.351 1_655 S
C449 C454 1.501 . S
C450 C451 1.387 . S
C450 N453 1.341 1_655 S
C451 C449 1.400 . S
C451 C450 1.387 . S
N452 Co443 2.022 . S
N452 C449 1.351 1_455 S
N452 N453 1.365 . S
N453 C450 1.341 1_455 S
N453 N452 1.365 . S
N453 H473 0.862 . S
C454 C449 1.501 . S
C454 H455 0.961 . S
C454 H456 0.961 1_655 S
C454 H457 0.960 . S
H455 C454 0.961 . S
H456 C454 0.961 1_455 S
H457 C454 0.960 . S
C458 N459 1.342 . S
C458 C462 1.401 . S
C458 C463 1.499 . S
N459 Co442 1.989 . S
N459 C458 1.342 . S
N459 N460 1.388 . S
N460 Co443 1.993 . S
N460 N459 1.388 . S
N460 C461 1.346 . S
C461 N460 1.346 . S
C461 C462 1.396 . S
C461 C471 1.510 . S
C462 C458 1.401 . S
C462 C461 1.396 . S
C463 C458 1.499 . S
C463 H464 0.959 . S
C463 H465 0.960 . S
C463 H466 0.961 . S
H464 C463 0.959 . S
H465 C463 0.960 . S
H466 C463 0.961 . S
O467 Co442 1.967 . S
O467 C475 1.258 . S
O468 Co443 1.941 . S
O468 C475 1.266 . S
H469 C471 0.959 . S
H470 C471 0.961 . S
C471 C461 1.510 . S
C471 H469 0.959 . S
C471 H470 0.961 . S
C471 H472 0.960 . S
H472 C471 0.960 . S
H473 N453 0.862 . S
O474 Co442 1.920 . S
O474 C447 1.289 . S
C475 O467 1.258 . S
C475 O468 1.266 . S
Co476 O479 1.970 . S
Co476 N493 1.989 . S
Co476 O501 1.967 . S
Co476 O508 1.920 . S
Co477 O480 1.966 . S
Co477 N486 2.022 . S
Co477 N494 1.993 . S
Co477 O502 1.941 . S
C478 O479 1.258 . S
C478 O480 1.263 . S
O479 Co476 1.970 . S
O479 C478 1.258 . S
O480 Co477 1.966 . S
O480 C478 1.263 . S
C481 O482 1.235 . S
C481 O508 1.289 . S
O482 C481 1.235 . S
C483 C485 1.400 . S
C483 N486 1.351 . S
C483 C488 1.501 . S
C484 C485 1.387 . S
C484 N487 1.341 . S
C485 C483 1.400 . S
C485 C484 1.387 . S
N486 Co477 2.022 . S
N486 C483 1.351 . S
N486 N487 1.365 . S
N487 C484 1.341 . S
N487 N486 1.365 . S
N487 H507 0.862 . S
C488 C483 1.501 . S
C488 H489 0.961 . S
C488 H490 0.961 . S
C488 H491 0.960 . S
H489 C488 0.961 . S
H490 C488 0.961 . S
H491 C488 0.960 . S
C492 N493 1.342 . S
C492 C496 1.401 . S
C492 C497 1.499 . S
N493 Co476 1.989 . S
N493 C492 1.342 . S
N493 N494 1.388 . S
N494 Co477 1.993 . S
N494 N493 1.388 . S
N494 C495 1.346 . S
C495 N494 1.346 . S
C495 C496 1.396 . S
C495 C505 1.510 . S
C496 C492 1.401 . S
C496 C495 1.396 . S
C497 C492 1.499 . S
C497 H498 0.959 . S
C497 H499 0.960 . S
C497 H500 0.961 . S
H498 C497 0.959 . S
H499 C497 0.960 . S
H500 C497 0.961 . S
O501 Co476 1.967 . S
O501 C509 1.258 . S
O502 Co477 1.941 . S
O502 C509 1.266 . S
H503 C505 0.959 . S
H504 C505 0.961 . S
C505 C495 1.510 . S
C505 H503 0.959 . S
C505 H504 0.961 . S
C505 H506 0.960 . S
H506 C505 0.960 . S
H507 N487 0.862 . S
O508 Co476 1.920 . S
O508 C481 1.289 . S
C509 O501 1.258 . S
C509 O502 1.266 . S
Co510 O513 1.970 . S
Co510 N527 1.989 . S
Co510 O535 1.967 . S
Co510 O542 1.920 . S
Co511 O514 1.966 . S
Co511 N520 2.022 . S
Co511 N528 1.993 . S
Co511 O536 1.941 . S
C512 O513 1.258 . S
C512 O514 1.263 . S
O513 Co510 1.970 . S
O513 C512 1.258 . S
O514 Co511 1.966 . S
O514 C512 1.263 . S
C515 O516 1.235 . S
C515 O542 1.289 . S
O516 C515 1.235 . S
C517 C519 1.400 . S
C517 N520 1.351 . S
C517 C522 1.501 . S
C518 C519 1.387 . S
C518 N521 1.341 . S
C519 C517 1.400 . S
C519 C518 1.387 . S
N520 Co511 2.022 . S
N520 C517 1.351 . S
N520 N521 1.365 . S
N521 C518 1.341 . S
N521 N520 1.365 . S
N521 H541 0.862 . S
C522 C517 1.501 . S
C522 H523 0.961 . S
C522 H524 0.961 . S
C522 H525 0.960 . S
H523 C522 0.961 . S
H524 C522 0.961 . S
H525 C522 0.960 . S
C526 N527 1.342 . S
C526 C530 1.401 . S
C526 C531 1.499 . S
N527 Co510 1.989 . S
N527 C526 1.342 . S
N527 N528 1.388 . S
N528 Co511 1.993 . S
N528 N527 1.388 . S
N528 C529 1.346 . S
C529 N528 1.346 . S
C529 C530 1.396 . S
C529 C539 1.510 . S
C530 C526 1.401 . S
C530 C529 1.396 . S
C531 C526 1.499 . S
C531 H532 0.959 . S
C531 H533 0.960 . S
C531 H534 0.961 . S
H532 C531 0.959 . S
H533 C531 0.960 . S
H534 C531 0.961 . S
O535 Co510 1.967 . S
O535 C543 1.258 . S
O536 Co511 1.941 . S
O536 C543 1.266 . S
H537 C539 0.959 . S
H538 C539 0.961 . S
C539 C529 1.510 . S
C539 H537 0.959 . S
C539 H538 0.961 . S
C539 H540 0.960 . S
H540 C539 0.960 . S
H541 N521 0.862 . S
O542 Co510 1.920 . S
O542 C515 1.289 . S
C543 O535 1.258 . S
C543 O536 1.266 . S
Co544 O547 1.970 . S
Co544 N561 1.989 . S
Co544 O569 1.967 . S
Co544 O576 1.920 . S
Co545 O548 1.966 . S
Co545 N554 2.022 . S
Co545 N562 1.993 . S
Co545 O570 1.941 . S
C546 O547 1.258 . S
C546 O548 1.263 . S
O547 Co544 1.970 . S
O547 C546 1.258 . S
O548 Co545 1.966 . S
O548 C546 1.263 . S
C549 O550 1.235 . S
C549 O576 1.289 . S
O550 C549 1.235 . S
C551 C553 1.400 . S
C551 N554 1.351 . S
C551 C556 1.501 . S
C552 C553 1.387 . S
C552 N555 1.341 . S
C553 C551 1.400 . S
C553 C552 1.387 . S
N554 Co545 2.022 . S
N554 C551 1.351 . S
N554 N555 1.365 . S
N555 C552 1.341 . S
N555 N554 1.365 . S
N555 H575 0.862 . S
C556 C551 1.501 . S
C556 H557 0.961 . S
C556 H558 0.961 . S
C556 H559 0.960 . S
H557 C556 0.961 . S
H558 C556 0.961 . S
H559 C556 0.960 . S
C560 N561 1.342 . S
C560 C564 1.401 . S
C560 C565 1.499 . S
N561 Co544 1.989 . S
N561 C560 1.342 . S
N561 N562 1.388 . S
N562 Co545 1.993 . S
N562 N561 1.388 . S
N562 C563 1.346 . S
C563 N562 1.346 . S
C563 C564 1.396 . S
C563 C573 1.510 . S
C564 C560 1.401 . S
C564 C563 1.396 . S
C565 C560 1.499 . S
C565 H566 0.959 . S
C565 H567 0.960 . S
C565 H568 0.961 . S
H566 C565 0.959 . S
H567 C565 0.960 . S
H568 C565 0.961 . S
O569 Co544 1.967 . S
O569 C577 1.258 . S
O570 Co545 1.941 . S
O570 C577 1.266 . S
H571 C573 0.959 . S
H572 C573 0.961 . S
C573 C563 1.510 . S
C573 H571 0.959 . S
C573 H572 0.961 . S
C573 H574 0.960 . S
H574 C573 0.960 . S
H575 N555 0.862 . S
O576 Co544 1.920 . S
O576 C549 1.289 . S
C577 O569 1.258 . S
C577 O570 1.266 . S
Co578 O581 1.970 . S
Co578 N595 1.989 . S
Co578 O603 1.967 . S
Co578 O610 1.920 . S
Co579 O582 1.966 . S
Co579 N588 2.022 . S
Co579 N596 1.993 . S
Co579 O604 1.941 . S
C580 O581 1.258 . S
C580 O582 1.263 . S
O581 Co578 1.970 . S
O581 C580 1.258 . S
O582 Co579 1.966 . S
O582 C580 1.263 . S
C583 O584 1.235 . S
C583 O610 1.289 . S
O584 C583 1.235 . S
C585 C587 1.400 . S
C585 N588 1.351 . S
C585 C590 1.501 . S
C586 C587 1.387 . S
C586 N589 1.341 . S
C587 C585 1.400 . S
C587 C586 1.387 . S
N588 Co579 2.022 . S
N588 C585 1.351 . S
N588 N589 1.365 . S
N589 C586 1.341 . S
N589 N588 1.365 . S
N589 H609 0.862 . S
C590 C585 1.501 . S
C590 H591 0.961 . S
C590 H592 0.961 . S
C590 H593 0.960 . S
H591 C590 0.961 . S
H592 C590 0.961 . S
H593 C590 0.960 . S
C594 N595 1.342 . S
C594 C598 1.401 . S
C594 C599 1.499 . S
N595 Co578 1.989 . S
N595 C594 1.342 . S
N595 N596 1.388 . S
N596 Co579 1.993 . S
N596 N595 1.388 . S
N596 C597 1.346 . S
C597 N596 1.346 . S
C597 C598 1.396 . S
C597 C607 1.510 . S
C598 C594 1.401 . S
C598 C597 1.396 . S
C599 C594 1.499 . S
C599 H600 0.959 . S
C599 H601 0.960 . S
C599 H602 0.961 . S
H600 C599 0.959 . S
H601 C599 0.960 . S
H602 C599 0.961 . S
O603 Co578 1.967 . S
O603 C611 1.258 . S
O604 Co579 1.941 . S
O604 C611 1.266 . S
H605 C607 0.959 . S
H606 C607 0.961 . S
C607 C597 1.510 . S
C607 H605 0.959 . S
C607 H606 0.961 . S
C607 H608 0.960 . S
H608 C607 0.960 . S
H609 N589 0.862 . S
O610 Co578 1.920 . S
O610 C583 1.289 . S
C611 O603 1.258 . S
C611 O604 1.266 . S
H612 C618 0.930 . S
H613 C621 0.930 . S
H614 C622 0.930 . S
H615 C623 0.930 . S
H616 C626 0.930 . S
H617 C627 0.930 . S
C618 H612 0.930 . S
C618 C619 1.355 . S
C618 C620 1.415 . S
C619 C618 1.355 . S
C619 C621 1.419 . S
C620 C618 1.415 . S
C620 C625 1.425 . S
C620 C627 1.409 . S
C621 H613 0.930 . S
C621 C619 1.419 . S
C621 C622 1.362 . S
C622 H614 0.930 . S
C622 C621 1.362 . S
C622 C625 1.409 . S
C623 H615 0.930 . S
C623 C624 1.355 . S
C623 C625 1.415 . S
C624 C623 1.355 . S
C624 C626 1.419 . S
C625 C620 1.425 . S
C625 C622 1.409 . S
C625 C623 1.415 . S
C626 H616 0.930 . S
C626 C624 1.419 . S
C626 C627 1.362 . S
C627 H617 0.930 . S
C627 C620 1.409 . S
C627 C626 1.362 . S
H628 C634 0.930 . S
H629 C637 0.930 . S
H630 C638 0.930 . S
H631 C639 0.930 . S
H632 C642 0.930 1_545 S
H633 C643 0.930 . S
C634 H628 0.930 . S
C634 C635 1.355 . S
C634 C636 1.415 . S
C635 C634 1.355 . S
C635 C637 1.419 . S
C636 C634 1.415 . S
C636 C641 1.425 . S
C636 C643 1.409 . S
C637 H629 0.930 . S
C637 C635 1.419 . S
C637 C638 1.362 . S
C638 H630 0.930 . S
C638 C637 1.362 . S
C638 C641 1.409 . S
C639 H631 0.930 . S
C639 C640 1.355 . S
C639 C641 1.415 . S
C640 C639 1.355 . S
C640 C642 1.419 . S
C641 C636 1.425 . S
C641 C638 1.409 . S
C641 C639 1.415 . S
C642 H632 0.930 1_565 S
C642 C640 1.419 . S
C642 C643 1.362 . S
C643 H633 0.930 . S
C643 C636 1.409 . S
C643 C642 1.362 . S
H644 C650 0.930 . S
H645 C653 0.930 . S
H646 C654 0.930 . S
H647 C655 0.930 . S
H648 C658 0.930 . S
H649 C659 0.930 . S
C650 H644 0.930 . S
C650 C651 1.355 . S
C650 C652 1.415 . S
C651 C650 1.355 . S
C651 C653 1.419 . S
C652 C650 1.415 . S
C652 C657 1.425 . S
C652 C659 1.409 . S
C653 H645 0.930 . S
C653 C651 1.419 . S
C653 C654 1.362 . S
C654 H646 0.930 . S
C654 C653 1.362 . S
C654 C657 1.409 . S
C655 H647 0.930 . S
C655 C656 1.355 . S
C655 C657 1.415 . S
C656 C655 1.355 . S
C656 C658 1.419 . S
C657 C652 1.425 . S
C657 C654 1.409 . S
C657 C655 1.415 . S
C658 H648 0.930 . S
C658 C656 1.419 . S
C658 C659 1.362 . S
C659 H649 0.930 . S
C659 C652 1.409 . S
C659 C658 1.362 . S
H660 C666 0.930 . S
H661 C669 0.930 . S
H662 C670 0.930 . S
H663 C671 0.930 . S
H664 C674 0.930 . S
H665 C675 0.930 . S
C666 H660 0.930 . S
C666 C667 1.355 . S
C666 C668 1.415 . S
C667 C666 1.355 . S
C667 C669 1.419 . S
C668 C666 1.415 . S
C668 C673 1.425 . S
C668 C675 1.409 . S
C669 H661 0.930 . S
C669 C667 1.419 . S
C669 C670 1.362 . S
C670 H662 0.930 . S
C670 C669 1.362 . S
C670 C673 1.409 . S
C671 H663 0.930 . S
C671 C672 1.355 . S
C671 C673 1.415 . S
C672 C671 1.355 . S
C672 C674 1.419 . S
C673 C668 1.425 . S
C673 C670 1.409 . S
C673 C671 1.415 . S
C674 H664 0.930 . S
C674 C672 1.419 . S
C674 C675 1.362 . S
C675 H665 0.930 . S
C675 C668 1.409 . S
C675 C674 1.362 . S
H676 C682 0.930 . S
H677 C685 0.930 . S
H678 C686 0.930 . S
H679 C687 0.930 . S
H680 C690 0.930 . S
H681 C691 0.930 . S
C682 H676 0.930 . S
C682 C683 1.355 . S
C682 C684 1.415 . S
C683 C682 1.355 . S
C683 C685 1.419 . S
C684 C682 1.415 . S
C684 C689 1.425 . S
C684 C691 1.409 . S
C685 H677 0.930 . S
C685 C683 1.419 . S
C685 C686 1.362 . S
C686 H678 0.930 . S
C686 C685 1.362 . S
C686 C689 1.409 . S
C687 H679 0.930 . S
C687 C688 1.355 . S
C687 C689 1.415 . S
C688 C687 1.355 . S
C688 C690 1.419 . S
C689 C684 1.425 . S
C689 C686 1.409 . S
C689 C687 1.415 . S
C690 H680 0.930 . S
C690 C688 1.419 . S
C690 C691 1.362 . S
C691 H681 0.930 . S
C691 C684 1.409 . S
C691 C690 1.362 . S
H692 C698 0.930 . S
H693 C701 0.930 . S
H694 C702 0.930 . S
H695 C703 0.930 . S
H696 C706 0.930 . S
H697 C707 0.930 . S
C698 H692 0.930 . S
C698 C699 1.355 . S
C698 C700 1.415 . S
C699 C698 1.355 . S
C699 C701 1.419 . S
C700 C698 1.415 . S
C700 C705 1.425 . S
C700 C707 1.409 . S
C701 H693 0.930 . S
C701 C699 1.419 . S
C701 C702 1.362 . S
C702 H694 0.930 . S
C702 C701 1.362 . S
C702 C705 1.409 . S
C703 H695 0.930 . S
C703 C704 1.355 . S
C703 C705 1.415 . S
C704 C703 1.355 . S
C704 C706 1.419 . S
C705 C700 1.425 . S
C705 C702 1.409 . S
C705 C703 1.415 . S
C706 H696 0.930 . S
C706 C704 1.419 . S
C706 C707 1.362 . S
C707 H697 0.930 . S
C707 C700 1.409 . S
C707 C706 1.362 . S
H708 C714 0.930 . S
H709 C717 0.930 . S
H710 C718 0.930 . S
H711 C719 0.930 . S
H712 C722 0.930 . S
H713 C723 0.930 . S
C714 H708 0.930 . S
C714 C715 1.355 . S
C714 C716 1.415 . S
C715 C714 1.355 . S
C715 C717 1.419 . S
C716 C714 1.415 . S
C716 C721 1.425 . S
C716 C723 1.409 . S
C717 H709 0.930 . S
C717 C715 1.419 . S
C717 C718 1.362 . S
C718 H710 0.930 . S
C718 C717 1.362 . S
C718 C721 1.409 . S
C719 H711 0.930 . S
C719 C720 1.355 . S
C719 C721 1.415 . S
C720 C719 1.355 . S
C720 C722 1.419 . S
C721 C716 1.425 . S
C721 C718 1.409 . S
C721 C719 1.415 . S
C722 H712 0.930 . S
C722 C720 1.419 . S
C722 C723 1.362 . S
C723 H713 0.930 . S
C723 C716 1.409 . S
C723 C722 1.362 . S
H724 C730 0.930 . S
H725 C733 0.930 . S
H726 C734 0.930 . S
H727 C735 0.930 . S
H728 C738 0.930 . S
H729 C739 0.930 . S
C730 H724 0.930 . S
C730 C731 1.355 . S
C730 C732 1.415 1_565 S
C731 C730 1.355 . S
C731 C733 1.419 1_565 S
C732 C730 1.415 1_545 S
C732 C737 1.425 . S
C732 C739 1.409 1_545 S
C733 H725 0.930 . S
C733 C731 1.419 1_545 S
C733 C734 1.362 . S
C734 H726 0.930 . S
C734 C733 1.362 . S
C734 C737 1.409 . S
C735 H727 0.930 . S
C735 C736 1.355 . S
C735 C737 1.415 . S
C736 C735 1.355 . S
C736 C738 1.419 . S
C737 C732 1.425 . S
C737 C734 1.409 . S
C737 C735 1.415 . S
C738 H728 0.930 . S
C738 C736 1.419 . S
C738 C739 1.362 1_545 S
C739 H729 0.930 . S
C739 C732 1.409 1_565 S
C739 C738 1.362 1_565 S
H740 C746 0.930 . S
H741 C749 0.930 . S
H742 C750 0.930 . S
H743 C751 0.930 . S
H744 C754 0.930 . S
H745 C755 0.930 . S
C746 H740 0.930 . S
C746 C747 1.355 . S
C746 C748 1.415 . S
C747 C746 1.355 . S
C747 C749 1.419 1_455 S
C748 C746 1.415 . S
C748 C753 1.425 1_455 S
C748 C755 1.409 . S
C749 H741 0.930 . S
C749 C747 1.419 1_655 S
C749 C750 1.362 . S
C750 H742 0.930 . S
C750 C749 1.362 . S
C750 C753 1.409 . S
C751 H743 0.930 . S
C751 C752 1.355 . S
C751 C753 1.415 . S
C752 C751 1.355 . S
C752 C754 1.419 1_655 S
C753 C748 1.425 1_655 S
C753 C750 1.409 . S
C753 C751 1.415 . S
C754 H744 0.930 . S
C754 C752 1.419 1_455 S
C754 C755 1.362 . S
C755 H745 0.930 . S
C755 C748 1.409 . S
C755 C754 1.362 . S
H756 C762 0.930 . S
H757 C765 0.930 . S
H758 C766 0.930 . S
H759 C767 0.930 . S
H760 C770 0.930 . S
H761 C771 0.930 . S
C762 H756 0.930 . S
C762 C763 1.355 . S
C762 C764 1.415 . S
C763 C762 1.355 . S
C763 C765 1.419 . S
C764 C762 1.415 . S
C764 C769 1.425 . S
C764 C771 1.409 . S
C765 H757 0.930 . S
C765 C763 1.419 . S
C765 C766 1.362 . S
C766 H758 0.930 . S
C766 C765 1.362 . S
C766 C769 1.409 . S
C767 H759 0.930 . S
C767 C768 1.355 . S
C767 C769 1.415 . S
C768 C767 1.355 . S
C768 C770 1.419 . S
C769 C764 1.425 . S
C769 C766 1.409 . S
C769 C767 1.415 . S
C770 H760 0.930 . S
C770 C768 1.419 . S
C770 C771 1.362 . S
C771 H761 0.930 . S
C771 C764 1.409 . S
C771 C770 1.362 . S
H772 C778 0.930 . S
H773 C781 0.930 . S
H774 C782 0.938 . S
H775 C783 0.930 . S
H776 C786 0.930 . S
H777 C787 0.930 . S
C778 H772 0.930 . S
C778 C779 1.355 . S
C778 C780 1.415 . S
C779 C778 1.355 . S
C779 C781 1.419 . S
C780 C778 1.415 . S
C780 C785 1.425 . S
C780 C787 1.409 . S
C781 H773 0.930 . S
C781 C779 1.419 . S
C781 C782 1.362 . S
C782 H774 0.938 . S
C782 C781 1.362 . S
C782 C785 1.409 . S
C783 H775 0.930 . S
C783 C784 1.355 . S
C783 C785 1.415 1_545 S
C784 C783 1.355 . S
C784 C786 1.419 . S
C785 C780 1.425 . S
C785 C782 1.409 . S
C785 C783 1.415 1_565 S
C786 H776 0.930 . S
C786 C784 1.419 . S
C786 C787 1.362 1_545 S
C787 H777 0.930 . S
C787 C780 1.409 . S
C787 C786 1.362 1_565 S
H788 C794 0.930 . S
H789 C797 0.930 1_655 S
H790 C798 0.930 . S
H791 C799 0.930 . S
H792 C802 0.930 . S
H793 C803 0.930 . S
C794 H788 0.930 . S
C794 C795 1.355 . S
C794 C796 1.415 . S
C795 C794 1.355 . S
C795 C797 1.419 . S
C796 C794 1.415 . S
C796 C801 1.425 1_455 S
C796 C803 1.409 . S
C797 H789 0.930 1_455 S
C797 C795 1.419 . S
C797 C798 1.362 1_455 S
C798 H790 0.930 . S
C798 C797 1.362 1_655 S
C798 C801 1.409 . S
C799 H791 0.930 . S
C799 C800 1.355 . S
C799 C801 1.415 . S
C800 C799 1.355 . S
C800 C802 1.419 1_655 S
C801 C796 1.425 1_655 S
C801 C798 1.409 . S
C801 C799 1.415 . S
C802 H792 0.930 . S
C802 C800 1.419 1_455 S
C802 C803 1.362 . S
C803 H793 0.930 . S
C803 C796 1.409 . S
C803 C802 1.362 . S
H804 C810 0.930 . S
H805 C813 0.930 . S
H806 C814 0.930 . S
H807 C815 0.930 . S
H808 C818 0.930 . S
H809 C819 0.930 1_455 S
C810 H804 0.930 . S
C810 C811 1.355 . S
C810 C812 1.415 . S
C811 C810 1.355 . S
C811 C813 1.419 . S
C812 C810 1.415 . S
C812 C817 1.425 1_455 S
C812 C819 1.409 1_455 S
C813 H805 0.930 . S
C813 C811 1.419 . S
C813 C814 1.362 . S
C814 H806 0.930 . S
C814 C813 1.362 . S
C814 C817 1.409 1_455 S
C815 H807 0.930 . S
C815 C816 1.355 . S
C815 C817 1.415 . S
C816 C815 1.355 . S
C816 C818 1.419 . S
C817 C812 1.425 1_655 S
C817 C814 1.409 1_655 S
C817 C815 1.415 . S
C818 H808 0.930 . S
C818 C816 1.419 . S
C818 C819 1.362 . S
C819 H809 0.930 1_655 S
C819 C812 1.409 1_655 S
C819 C818 1.362 . S
H820 C826 0.930 . S
H821 C829 0.930 . S
H822 C830 0.930 . S
H823 C831 0.930 . S
H824 C834 0.930 . S
H825 C835 0.930 . S
C826 H820 0.930 . S
C826 C827 1.355 . S
C826 C828 1.415 . S
C827 C826 1.355 . S
C827 C829 1.419 . S
C828 C826 1.415 . S
C828 C833 1.425 . S
C828 C835 1.409 . S
C829 H821 0.930 . S
C829 C827 1.419 . S
C829 C830 1.362 . S
C830 H822 0.930 . S
C830 C829 1.362 . S
C830 C833 1.409 . S
C831 H823 0.930 . S
C831 C832 1.355 . S
C831 C833 1.415 . S
C832 C831 1.355 . S
C832 C834 1.419 . S
C833 C828 1.425 . S
C833 C830 1.409 . S
C833 C831 1.415 . S
C834 H824 0.930 . S
C834 C832 1.419 . S
C834 C835 1.362 . S
C835 H825 0.930 . S
C835 C828 1.409 . S
C835 C834 1.362 . S
H836 C842 0.930 . S
H837 C845 0.930 . S
H838 C846 0.930 . S
H839 C847 0.930 . S
H840 C850 0.930 . S
H841 C851 0.930 1_565 S
C842 H836 0.930 . S
C842 C843 1.355 . S
C842 C844 1.415 . S
C843 C842 1.355 . S
C843 C845 1.419 . S
C844 C842 1.415 . S
C844 C849 1.425 1_565 S
C844 C851 1.409 1_565 S
C845 H837 0.930 . S
C845 C843 1.419 . S
C845 C846 1.362 1_565 S
C846 H838 0.930 . S
C846 C845 1.362 1_545 S
C846 C849 1.409 . S
C847 H839 0.930 . S
C847 C848 1.355 . S
C847 C849 1.415 . S
C848 C847 1.355 . S
C848 C850 1.419 . S
C849 C844 1.425 1_545 S
C849 C846 1.409 . S
C849 C847 1.415 . S
C850 H840 0.930 . S
C850 C848 1.419 . S
C850 C851 1.362 . S
C851 H841 0.930 1_545 S
C851 C844 1.409 1_545 S
C851 C850 1.362 . S
H852 C858 0.930 . S
H853 C861 0.930 . S
H854 C862 0.930 . S
H855 C863 0.930 . S
H856 C866 0.930 . S
H857 C867 0.930 . S
C858 H852 0.930 . S
C858 C859 1.355 . S
C858 C860 1.415 . S
C859 C858 1.355 . S
C859 C861 1.419 . S
C860 C858 1.415 . S
C860 C865 1.425 1_545 S
C860 C867 1.409 . S
C861 H853 0.930 . S
C861 C859 1.419 . S
C861 C862 1.362 1_545 S
C862 H854 0.930 . S
C862 C861 1.362 1_565 S
C862 C865 1.409 . S
C863 H855 0.930 . S
C863 C864 1.355 . S
C863 C865 1.415 . S
C864 C863 1.355 . S
C864 C866 1.419 . S
C865 C860 1.425 1_565 S
C865 C862 1.409 . S
C865 C863 1.415 . S
C866 H856 0.930 . S
C866 C864 1.419 . S
C866 C867 1.362 1_565 S
C867 H857 0.930 . S
C867 C860 1.409 . S
C867 C866 1.362 1_545 S
H868 C874 0.930 . S
H869 C877 0.930 . S
H870 C878 0.930 . S
H871 C879 0.930 . S
H872 C882 0.930 . S
H873 C883 0.930 . S
C874 H868 0.930 . S
C874 C875 1.355 . S
C874 C876 1.415 1_455 S
C875 C874 1.355 . S
C875 C877 1.419 . S
C876 C874 1.415 1_655 S
C876 C881 1.425 1_655 S
C876 C883 1.409 . S
C877 H869 0.930 . S
C877 C875 1.419 . S
C877 C878 1.362 . S
C878 H870 0.930 . S
C878 C877 1.362 . S
C878 C881 1.409 . S
C879 H871 0.930 . S
C879 C880 1.355 . S
C879 C881 1.415 1_655 S
C880 C879 1.355 . S
C880 C882 1.419 . S
C881 C876 1.425 1_455 S
C881 C878 1.409 . S
C881 C879 1.415 1_455 S
C882 H872 0.930 . S
C882 C880 1.419 . S
C882 C883 1.362 . S
C883 H873 0.930 . S
C883 C876 1.409 . S
C883 C882 1.362 . S
H884 C890 0.930 . S
H885 C893 0.930 . S
H886 C894 0.930 . S
H887 C895 0.930 . S
H888 C898 0.930 . S
H889 C899 0.930 . S
C890 H884 0.930 . S
C890 C891 1.355 . S
C890 C892 1.415 . S
C891 C890 1.355 . S
C891 C893 1.419 . S
C892 C890 1.415 . S
C892 C897 1.425 . S
C892 C899 1.409 . S
C893 H885 0.930 . S
C893 C891 1.419 . S
C893 C894 1.362 . S
C894 H886 0.930 . S
C894 C893 1.362 . S
C894 C897 1.409 . S
C895 H887 0.930 . S
C895 C896 1.355 . S
C895 C897 1.415 . S
C896 C895 1.355 . S
C896 C898 1.419 . S
C897 C892 1.425 . S
C897 C894 1.409 . S
C897 C895 1.415 . S
C898 H888 0.930 . S
C898 C896 1.419 . S
C898 C899 1.362 . S
C899 H889 0.930 . S
C899 C892 1.409 . S
C899 C898 1.362 . S
H900 C906 0.930 . S
H901 C909 0.930 . S
H902 C910 0.930 . S
H903 C911 0.930 . S
H904 C914 0.930 . S
H905 C915 0.930 . S
C906 H900 0.930 . S
C906 C907 1.355 . S
C906 C908 1.415 . S
C907 C906 1.355 . S
C907 C909 1.419 . S
C908 C906 1.415 . S
C908 C913 1.425 . S
C908 C915 1.409 . S
C909 H901 0.930 . S
C909 C907 1.419 . S
C909 C910 1.362 . S
C910 H902 0.930 . S
C910 C909 1.362 . S
C910 C913 1.409 . S
C911 H903 0.930 . S
C911 C912 1.355 . S
C911 C913 1.415 . S
C912 C911 1.355 . S
C912 C914 1.419 . S
C913 C908 1.425 . S
C913 C910 1.409 . S
C913 C911 1.415 . S
C914 H904 0.930 . S
C914 C912 1.419 . S
C914 C915 1.362 . S
C915 H905 0.930 . S
C915 C908 1.409 . S
C915 C914 1.362 . S
H916 C922 0.930 . S
H917 C925 0.930 . S
H918 C926 0.930 . S
H919 C927 0.930 . S
H920 C930 0.930 . S
H921 C931 0.930 . S
C922 H916 0.930 . S
C922 C923 1.355 . S
C922 C924 1.415 . S
C923 C922 1.355 . S
C923 C925 1.419 . S
C924 C922 1.415 . S
C924 C929 1.425 . S
C924 C931 1.409 . S
C925 H917 0.930 . S
C925 C923 1.419 . S
C925 C926 1.362 . S
C926 H918 0.930 . S
C926 C925 1.362 . S
C926 C929 1.409 . S
C927 H919 0.930 . S
C927 C928 1.355 . S
C927 C929 1.415 . S
C928 C927 1.355 . S
C928 C930 1.419 . S
C929 C924 1.425 . S
C929 C926 1.409 . S
C929 C927 1.415 . S
C930 H920 0.930 . S
C930 C928 1.419 . S
C930 C931 1.362 . S
C931 H921 0.930 . S
C931 C924 1.409 . S
C931 C930 1.362 . S
H932 C938 0.930 . S
H933 C941 0.930 . S
H934 C942 0.930 . S
H935 C943 0.930 . S
H936 C946 0.930 . S
H937 C947 0.930 . S
C938 H932 0.930 . S
C938 C939 1.355 . S
C938 C940 1.415 . S
C939 C938 1.355 . S
C939 C941 1.419 . S
C940 C938 1.415 . S
C940 C945 1.425 . S
C940 C947 1.409 . S
C941 H933 0.930 . S
C941 C939 1.419 . S
C941 C942 1.362 . S
C942 H934 0.930 . S
C942 C941 1.362 . S
C942 C945 1.409 . S
C943 H935 0.930 . S
C943 C944 1.355 . S
C943 C945 1.415 . S
C944 C943 1.355 . S
C944 C946 1.419 . S
C945 C940 1.425 . S
C945 C942 1.409 . S
C945 C943 1.415 . S
C946 H936 0.930 . S
C946 C944 1.419 . S
C946 C947 1.362 . S
C947 H937 0.930 . S
C947 C940 1.409 . S
C947 C946 1.362 . S
H948 C954 0.930 . S
H949 C957 0.930 . S
H950 C958 0.930 . S
H951 C959 0.930 . S
H952 C962 0.930 . S
H953 C963 0.930 . S
C954 H948 0.930 . S
C954 C955 1.355 . S
C954 C956 1.415 . S
C955 C954 1.355 . S
C955 C957 1.419 . S
C956 C954 1.415 . S
C956 C961 1.425 . S
C956 C963 1.409 . S
C957 H949 0.930 . S
C957 C955 1.419 . S
C957 C958 1.362 . S
C958 H950 0.930 . S
C958 C957 1.362 . S
C958 C961 1.409 . S
C959 H951 0.930 . S
C959 C960 1.355 . S
C959 C961 1.415 . S
C960 C959 1.355 . S
C960 C962 1.419 . S
C961 C956 1.425 . S
C961 C958 1.409 . S
C961 C959 1.415 . S
C962 H952 0.930 . S
C962 C960 1.419 . S
C962 C963 1.362 . S
C963 H953 0.930 . S
C963 C956 1.409 . S
C963 C962 1.362 . S
H964 C970 0.930 . S
H965 C973 0.930 . S
H966 C974 0.930 . S
H967 C975 0.930 . S
H968 C978 0.930 . S
H969 C979 0.930 . S
C970 H964 0.930 . S
C970 C971 1.355 . S
C970 C972 1.415 . S
C971 C970 1.355 . S
C971 C973 1.419 . S
C972 C970 1.415 . S
C972 C977 1.425 . S
C972 C979 1.409 . S
C973 H965 0.930 . S
C973 C971 1.419 . S
C973 C974 1.362 . S
C974 H966 0.930 . S
C974 C973 1.362 . S
C974 C977 1.409 . S
C975 H967 0.930 . S
C975 C976 1.355 . S
C975 C977 1.415 . S
C976 C975 1.355 . S
C976 C978 1.419 . S
C977 C972 1.425 . S
C977 C974 1.409 . S
C977 C975 1.415 . S
C978 H968 0.930 . S
C978 C976 1.419 . S
C978 C979 1.362 . S
C979 H969 0.930 . S
C979 C972 1.409 . S
C979 C978 1.362 . S
H980 C986 0.930 . S
H981 C989 0.930 . S
H982 C990 0.930 . S
H983 C991 0.930 . S
H984 C994 0.930 . S
H985 C995 0.930 . S
C986 H980 0.930 . S
C986 C987 1.355 . S
C986 C988 1.415 . S
C987 C986 1.355 . S
C987 C989 1.419 . S
C988 C986 1.415 . S
C988 C993 1.425 . S
C988 C995 1.409 . S
C989 H981 0.930 . S
C989 C987 1.419 . S
C989 C990 1.362 . S
C990 H982 0.930 . S
C990 C989 1.362 . S
C990 C993 1.409 . S
C991 H983 0.930 . S
C991 C992 1.355 . S
C991 C993 1.415 . S
C992 C991 1.355 . S
C992 C994 1.419 . S
C993 C988 1.425 . S
C993 C990 1.409 . S
C993 C991 1.415 . S
C994 H984 0.930 . S
C994 C992 1.419 . S
C994 C995 1.362 . S
C995 H985 0.930 . S
C995 C988 1.409 . S
C995 C994 1.362 . S
H996 C1002 0.930 . S
H997 C1005 0.930 . S
H998 C1006 0.930 1_556 S
H999 C1007 0.925 1_655 S
H1000 C1010 0.930 . S
H1001 C1011 0.930 1_554 S
C1002 H996 0.930 . S
C1002 C1003 1.355 1_455 S
C1002 C1004 1.415 . S
C1003 C1002 1.355 1_655 S
C1003 C1005 1.419 . S
C1004 C1002 1.415 . S
C1004 C1009 1.425 1_454 S
C1004 C1011 1.409 1_554 S
C1005 H997 0.930 . S
C1005 C1003 1.419 . S
C1005 C1006 1.362 . S
C1006 H998 0.930 1_554 S
C1006 C1005 1.362 . S
C1006 C1009 1.409 1_554 S
C1007 H999 0.925 1_455 S
C1007 C1008 1.366 . S
C1007 C1009 1.408 1_455 S
C1008 C1007 1.366 . S
C1008 C1010 1.419 . S
C1009 C1004 1.425 1_656 S
C1009 C1006 1.409 1_556 S
C1009 C1007 1.408 1_655 S
C1010 H1000 0.930 . S
C1010 C1008 1.419 . S
C1010 C1011 1.362 . S
C1011 H1001 0.930 1_556 S
C1011 C1004 1.409 1_556 S
C1011 C1010 1.362 . S
H1012 C1018 0.930 . S
H1013 C1021 0.930 . S
H1014 C1022 0.930 . S
H1015 C1023 0.930 . S
H1016 C1026 0.930 . S
H1017 C1027 0.930 . S
C1018 H1012 0.930 . S
C1018 C1019 1.355 . S
C1018 C1020 1.429 . S
C1019 C1018 1.355 . S
C1019 C1021 1.419 . S
C1020 C1018 1.429 . S
C1020 C1025 1.425 1_554 S
C1020 C1027 1.395 1_554 S
C1021 H1013 0.930 . S
C1021 C1019 1.419 . S
C1021 C1022 1.362 . S
C1022 H1014 0.930 . S
C1022 C1021 1.362 . S
C1022 C1025 1.395 1_554 S
C1023 H1015 0.930 . S
C1023 C1024 1.355 . S
C1023 C1025 1.429 . S
C1024 C1023 1.355 . S
C1024 C1026 1.419 . S
C1025 C1020 1.425 1_556 S
C1025 C1022 1.395 1_556 S
C1025 C1023 1.429 . S
C1026 H1016 0.930 . S
C1026 C1024 1.419 . S
C1026 C1027 1.362 . S
C1027 H1017 0.930 . S
C1027 C1020 1.395 1_556 S
C1027 C1026 1.362 . S
H1028 C1034 0.930 . S
H1029 C1037 0.930 . S
H1030 C1038 0.930 . S
H1031 C1039 0.930 . S
H1032 C1042 0.930 . S
H1033 C1043 0.930 . S
C1034 H1028 0.930 . S
C1034 C1035 1.355 . S
C1034 C1036 1.433 . S
C1035 C1034 1.355 . S
C1035 C1037 1.419 1_545 S
C1036 C1034 1.433 . S
C1036 C1041 1.424 1_544 S
C1036 C1043 1.392 1_554 S
C1037 H1029 0.930 . S
C1037 C1035 1.419 1_565 S
C1037 C1038 1.362 . S
C1038 H1030 0.930 . S
C1038 C1037 1.362 . S
C1038 C1041 1.392 1_554 S
C1039 H1031 0.930 . S
C1039 C1040 1.355 . S
C1039 C1041 1.433 . S
C1040 C1039 1.355 . S
C1040 C1042 1.419 1_565 S
C1041 C1036 1.424 1_566 S
C1041 C1038 1.392 1_556 S
C1041 C1039 1.433 . S
C1042 H1032 0.930 . S
C1042 C1040 1.419 1_545 S
C1042 C1043 1.362 . S
C1043 H1033 0.930 . S
C1043 C1036 1.392 1_556 S
C1043 C1042 1.362 . S
H1044 C1050 0.930 . S
H1045 C1053 0.930 . S
H1046 C1054 0.930 . S
H1047 C1055 0.930 . S
H1048 C1058 0.930 . S
H1049 C1059 0.930 . S
C1050 H1044 0.930 . S
C1050 C1051 1.355 . S
C1050 C1052 1.415 . S
C1051 C1050 1.355 . S
C1051 C1053 1.419 . S
C1052 C1050 1.415 . S
C1052 C1057 1.425 . S
C1052 C1059 1.409 . S
C1053 H1045 0.930 . S
C1053 C1051 1.419 . S
C1053 C1054 1.362 . S
C1054 H1046 0.930 . S
C1054 C1053 1.362 . S
C1054 C1057 1.409 . S
C1055 H1047 0.930 . S
C1055 C1056 1.355 . S
C1055 C1057 1.415 . S
C1056 C1055 1.355 . S
C1056 C1058 1.419 . S
C1057 C1052 1.425 . S
C1057 C1054 1.409 . S
C1057 C1055 1.415 . S
C1058 H1048 0.930 . S
C1058 C1056 1.419 . S
C1058 C1059 1.362 . S
C1059 H1049 0.930 . S
C1059 C1052 1.409 . S
C1059 C1058 1.362 . S
H1060 C1066 0.930 . S
H1061 C1069 0.930 . S
H1062 C1070 0.930 . S
H1063 C1071 0.930 . S
H1064 C1074 0.930 . S
H1065 C1075 0.930 . S
C1066 H1060 0.930 . S
C1066 C1067 1.355 1_545 S
C1066 C1068 1.415 . S
C1067 C1066 1.355 1_565 S
C1067 C1069 1.419 . S
C1068 C1066 1.415 . S
C1068 C1073 1.425 . S
C1068 C1075 1.409 . S
C1069 H1061 0.930 . S
C1069 C1067 1.419 . S
C1069 C1070 1.362 1_565 S
C1070 H1062 0.930 . S
C1070 C1069 1.362 1_545 S
C1070 C1073 1.409 . S
C1071 H1063 0.930 . S
C1071 C1072 1.355 . S
C1071 C1073 1.415 . S
C1072 C1071 1.355 . S
C1072 C1074 1.419 . S
C1073 C1068 1.425 . S
C1073 C1070 1.409 . S
C1073 C1071 1.415 . S
C1074 H1064 0.930 . S
C1074 C1072 1.419 . S
C1074 C1075 1.362 . S
C1075 H1065 0.930 . S
C1075 C1068 1.409 . S
C1075 C1074 1.362 . S
H1076 C1082 0.930 . S
H1077 C1085 0.930 . S
H1078 C1086 0.930 . S
H1079 C1087 0.930 . S
H1080 C1090 0.930 . S
H1081 C1091 0.930 . S
C1082 H1076 0.930 . S
C1082 C1083 1.355 . S
C1082 C1084 1.415 . S
C1083 C1082 1.355 . S
C1083 C1085 1.419 . S
C1084 C1082 1.415 . S
C1084 C1089 1.425 . S
C1084 C1091 1.409 . S
C1085 H1077 0.930 . S
C1085 C1083 1.419 . S
C1085 C1086 1.362 . S
C1086 H1078 0.930 . S
C1086 C1085 1.362 . S
C1086 C1089 1.409 . S
C1087 H1079 0.930 . S
C1087 C1088 1.355 1_655 S
C1087 C1089 1.415 . S
C1088 C1087 1.355 1_455 S
C1088 C1090 1.419 . S
C1089 C1084 1.425 . S
C1089 C1086 1.409 . S
C1089 C1087 1.415 . S
C1090 H1080 0.930 . S
C1090 C1088 1.419 . S
C1090 C1091 1.362 1_455 S
C1091 H1081 0.930 . S
C1091 C1084 1.409 . S
C1091 C1090 1.362 1_655 S
H1092 C1098 0.930 . S
H1093 C1101 0.930 . S
H1094 C1102 0.930 . S
H1095 C1103 0.930 . S
H1096 C1106 0.930 . S
H1097 C1107 0.930 . S
C1098 H1092 0.930 . S
C1098 C1099 1.355 . S
C1098 C1100 1.415 . S
C1099 C1098 1.355 . S
C1099 C1101 1.419 . S
C1100 C1098 1.415 . S
C1100 C1105 1.425 . S
C1100 C1107 1.409 . S
C1101 H1093 0.930 . S
C1101 C1099 1.419 . S
C1101 C1102 1.362 . S
C1102 H1094 0.930 . S
C1102 C1101 1.362 . S
C1102 C1105 1.409 . S
C1103 H1095 0.930 . S
C1103 C1104 1.355 . S
C1103 C1105 1.415 . S
C1104 C1103 1.355 . S
C1104 C1106 1.419 . S
C1105 C1100 1.425 . S
C1105 C1102 1.409 . S
C1105 C1103 1.415 . S
C1106 H1096 0.930 . S
C1106 C1104 1.419 . S
C1106 C1107 1.362 . S
C1107 H1097 0.930 . S
C1107 C1100 1.409 . S
C1107 C1106 1.362 . S
H1108 C1114 0.930 . S
H1109 C1117 0.930 . S
H1110 C1118 0.930 . S
H1111 C1119 0.930 . S
H1112 C1122 0.930 . S
H1113 C1123 0.930 . S
C1114 H1108 0.930 . S
C1114 C1115 1.355 1_565 S
C1114 C1116 1.415 . S
C1115 C1114 1.355 1_545 S
C1115 C1117 1.419 . S
C1116 C1114 1.415 . S
C1116 C1121 1.425 . S
C1116 C1123 1.409 . S
C1117 H1109 0.930 . S
C1117 C1115 1.419 . S
C1117 C1118 1.362 1_545 S
C1118 H1110 0.930 . S
C1118 C1117 1.362 1_565 S
C1118 C1121 1.409 . S
C1119 H1111 0.930 . S
C1119 C1120 1.355 . S
C1119 C1121 1.415 . S
C1120 C1119 1.355 . S
C1120 C1122 1.419 . S
C1121 C1116 1.425 . S
C1121 C1118 1.409 . S
C1121 C1119 1.415 . S
C1122 H1112 0.930 . S
C1122 C1120 1.419 . S
C1122 C1123 1.362 . S
C1123 H1113 0.930 . S
C1123 C1116 1.409 . S
C1123 C1122 1.362 . S
H1124 C1130 0.930 . S
H1125 C1133 0.930 . S
H1126 C1134 0.930 . S
H1127 C1135 0.930 1_655 S
H1128 C1138 0.930 1_655 S
H1129 C1139 0.930 . S
C1130 H1124 0.930 . S
C1130 C1131 1.355 . S
C1130 C1132 1.415 . S
C1131 C1130 1.355 . S
C1131 C1133 1.419 . S
C1132 C1130 1.415 . S
C1132 C1137 1.425 . S
C1132 C1139 1.409 . S
C1133 H1125 0.930 . S
C1133 C1131 1.419 . S
C1133 C1134 1.362 . S
C1134 H1126 0.930 . S
C1134 C1133 1.362 . S
C1134 C1137 1.409 . S
C1135 H1127 0.930 1_455 S
C1135 C1136 1.355 1_455 S
C1135 C1137 1.415 . S
C1136 C1135 1.355 1_655 S
C1136 C1138 1.419 1_655 S
C1137 C1132 1.425 . S
C1137 C1134 1.409 . S
C1137 C1135 1.415 . S
C1138 H1128 0.930 1_455 S
C1138 C1136 1.419 1_455 S
C1138 C1139 1.362 . S
C1139 H1129 0.930 . S
C1139 C1132 1.409 . S
C1139 C1138 1.362 . S
H1140 C1146 0.930 . S
H1141 C1149 0.930 . S
H1142 C1150 0.930 . S
H1143 C1151 0.930 . S
H1144 C1154 0.930 . S
H1145 C1155 0.930 . S
C1146 H1140 0.930 . S
C1146 C1147 1.355 . S
C1146 C1148 1.415 . S
C1147 C1146 1.355 . S
C1147 C1149 1.419 . S
C1148 C1146 1.415 . S
C1148 C1153 1.425 . S
C1148 C1155 1.409 . S
C1149 H1141 0.930 . S
C1149 C1147 1.419 . S
C1149 C1150 1.362 . S
C1150 H1142 0.930 . S
C1150 C1149 1.362 . S
C1150 C1153 1.409 . S
C1151 H1143 0.930 . S
C1151 C1152 1.355 . S
C1151 C1153 1.415 . S
C1152 C1151 1.355 . S
C1152 C1154 1.419 . S
C1153 C1148 1.425 . S
C1153 C1150 1.409 . S
C1153 C1151 1.415 . S
C1154 H1144 0.930 . S
C1154 C1152 1.419 . S
C1154 C1155 1.362 . S
C1155 H1145 0.930 . S
C1155 C1148 1.409 . S
C1155 C1154 1.362 . S
H1156 C1162 0.930 . S
H1157 C1165 0.930 . S
H1158 C1166 0.930 . S
H1159 C1167 0.930 . S
H1160 C1170 0.930 . S
H1161 C1171 0.930 . S
C1162 H1156 0.930 . S
C1162 C1163 1.355 . S
C1162 C1164 1.415 . S
C1163 C1162 1.355 . S
C1163 C1165 1.419 . S
C1164 C1162 1.415 . S
C1164 C1169 1.425 . S
C1164 C1171 1.409 . S
C1165 H1157 0.930 . S
C1165 C1163 1.419 . S
C1165 C1166 1.362 . S
C1166 H1158 0.930 . S
C1166 C1165 1.362 . S
C1166 C1169 1.409 . S
C1167 H1159 0.930 . S
C1167 C1168 1.355 . S
C1167 C1169 1.415 . S
C1168 C1167 1.355 . S
C1168 C1170 1.419 . S
C1169 C1164 1.425 . S
C1169 C1166 1.409 . S
C1169 C1167 1.415 . S
C1170 H1160 0.930 . S
C1170 C1168 1.419 . S
C1170 C1171 1.362 . S
C1171 H1161 0.930 . S
C1171 C1164 1.409 . S
C1171 C1170 1.362 . S
H1172 C1178 0.930 . S
H1173 C1181 0.930 . S
H1174 C1182 0.930 . S
H1175 C1183 0.930 . S
H1176 C1186 0.930 . S
H1177 C1187 0.930 . S
C1178 H1172 0.930 . S
C1178 C1179 1.355 . S
C1178 C1180 1.415 . S
C1179 C1178 1.355 . S
C1179 C1181 1.419 . S
C1180 C1178 1.415 . S
C1180 C1185 1.425 . S
C1180 C1187 1.409 . S
C1181 H1173 0.930 . S
C1181 C1179 1.419 . S
C1181 C1182 1.362 . S
C1182 H1174 0.930 . S
C1182 C1181 1.362 . S
C1182 C1185 1.409 . S
C1183 H1175 0.930 . S
C1183 C1184 1.355 . S
C1183 C1185 1.415 . S
C1184 C1183 1.355 . S
C1184 C1186 1.419 . S
C1185 C1180 1.425 . S
C1185 C1182 1.409 . S
C1185 C1183 1.415 . S
C1186 H1176 0.930 . S
C1186 C1184 1.419 . S
C1186 C1187 1.362 . S
C1187 H1177 0.930 . S
C1187 C1180 1.409 . S
C1187 C1186 1.362 . S
H1188 C1194 0.930 . S
H1189 C1197 0.930 . S
H1190 C1198 0.930 . S
H1191 C1199 0.930 . S
H1192 C1202 0.930 . S
H1193 C1203 0.930 . S
C1194 H1188 0.930 . S
C1194 C1195 1.355 . S
C1194 C1196 1.415 . S
C1195 C1194 1.355 . S
C1195 C1197 1.419 . S
C1196 C1194 1.415 . S
C1196 C1201 1.425 . S
C1196 C1203 1.409 . S
C1197 H1189 0.930 . S
C1197 C1195 1.419 . S
C1197 C1198 1.362 . S
C1198 H1190 0.930 . S
C1198 C1197 1.362 . S
C1198 C1201 1.409 . S
C1199 H1191 0.930 . S
C1199 C1200 1.355 . S
C1199 C1201 1.415 . S
C1200 C1199 1.355 . S
C1200 C1202 1.419 . S
C1201 C1196 1.425 . S
C1201 C1198 1.409 . S
C1201 C1199 1.415 . S
C1202 H1192 0.930 . S
C1202 C1200 1.419 . S
C1202 C1203 1.362 . S
C1203 H1193 0.930 . S
C1203 C1196 1.409 . S
C1203 C1202 1.362 . S
H1204 C1210 0.930 . S
H1205 C1213 0.930 . S
H1206 C1214 0.930 . S
H1207 C1215 0.930 . S
H1208 C1218 0.930 . S
H1209 C1219 0.930 . S
C1210 H1204 0.930 . S
C1210 C1211 1.355 . S
C1210 C1212 1.415 . S
C1211 C1210 1.355 . S
C1211 C1213 1.419 . S
C1212 C1210 1.415 . S
C1212 C1217 1.425 . S
C1212 C1219 1.409 . S
C1213 H1205 0.930 . S
C1213 C1211 1.419 . S
C1213 C1214 1.362 . S
C1214 H1206 0.930 . S
C1214 C1213 1.362 . S
C1214 C1217 1.409 . S
C1215 H1207 0.930 . S
C1215 C1216 1.355 . S
C1215 C1217 1.415 . S
C1216 C1215 1.355 . S
C1216 C1218 1.419 . S
C1217 C1212 1.425 . S
C1217 C1214 1.409 . S
C1217 C1215 1.415 . S
C1218 H1208 0.930 . S
C1218 C1216 1.419 . S
C1218 C1219 1.362 . S
C1219 H1209 0.930 . S
C1219 C1212 1.409 . S
C1219 C1218 1.362 . S
H1220 C1226 0.930 . S
H1221 C1229 0.930 . S
H1222 C1230 0.930 . S
H1223 C1231 0.930 . S
H1224 C1234 0.930 . S
H1225 C1235 0.930 . S
C1226 H1220 0.930 . S
C1226 C1227 1.355 . S
C1226 C1228 1.415 . S
C1227 C1226 1.355 . S
C1227 C1229 1.419 . S
C1228 C1226 1.415 . S
C1228 C1233 1.425 . S
C1228 C1235 1.409 . S
C1229 H1221 0.930 . S
C1229 C1227 1.419 . S
C1229 C1230 1.362 . S
C1230 H1222 0.930 . S
C1230 C1229 1.362 . S
C1230 C1233 1.409 . S
C1231 H1223 0.930 . S
C1231 C1232 1.355 . S
C1231 C1233 1.415 . S
C1232 C1231 1.355 . S
C1232 C1234 1.419 . S
C1233 C1228 1.425 . S
C1233 C1230 1.409 . S
C1233 C1231 1.415 . S
C1234 H1224 0.930 . S
C1234 C1232 1.419 . S
C1234 C1235 1.362 . S
C1235 H1225 0.930 . S
C1235 C1228 1.409 . S
C1235 C1234 1.362 . S
H1236 C1242 0.930 . S
H1237 C1245 0.930 . S
H1238 C1246 0.930 . S
H1239 C1247 0.930 . S
H1240 C1250 0.930 . S
H1241 C1251 0.930 . S
C1242 H1236 0.930 . S
C1242 C1243 1.355 . S
C1242 C1244 1.415 . S
C1243 C1242 1.355 . S
C1243 C1245 1.419 . S
C1244 C1242 1.415 . S
C1244 C1249 1.425 . S
C1244 C1251 1.409 . S
C1245 H1237 0.930 . S
C1245 C1243 1.419 . S
C1245 C1246 1.362 . S
C1246 H1238 0.930 . S
C1246 C1245 1.362 . S
C1246 C1249 1.409 . S
C1247 H1239 0.930 . S
C1247 C1248 1.355 . S
C1247 C1249 1.415 . S
C1248 C1247 1.355 . S
C1248 C1250 1.419 . S
C1249 C1244 1.425 . S
C1249 C1246 1.409 . S
C1249 C1247 1.415 . S
C1250 H1240 0.930 . S
C1250 C1248 1.419 . S
C1250 C1251 1.362 . S
C1251 H1241 0.930 . S
C1251 C1244 1.409 . S
C1251 C1250 1.362 . S
H1252 C1258 0.930 . S
H1253 C1261 0.930 . S
H1254 C1262 0.930 . S
H1255 C1263 0.930 . S
H1256 C1266 0.930 . S
H1257 C1267 0.930 . S
C1258 H1252 0.930 . S
C1258 C1259 1.355 . S
C1258 C1260 1.415 . S
C1259 C1258 1.355 . S
C1259 C1261 1.419 . S
C1260 C1258 1.415 . S
C1260 C1265 1.425 . S
C1260 C1267 1.409 . S
C1261 H1253 0.930 . S
C1261 C1259 1.419 . S
C1261 C1262 1.362 . S
C1262 H1254 0.930 . S
C1262 C1261 1.362 . S
C1262 C1265 1.409 . S
C1263 H1255 0.930 . S
C1263 C1264 1.355 . S
C1263 C1265 1.415 . S
C1264 C1263 1.355 . S
C1264 C1266 1.419 . S
C1265 C1260 1.425 . S
C1265 C1262 1.409 . S
C1265 C1263 1.415 . S
C1266 H1256 0.930 . S
C1266 C1264 1.419 . S
C1266 C1267 1.362 . S
C1267 H1257 0.930 . S
C1267 C1260 1.409 . S
C1267 C1266 1.362 . S
H1268 C1274 0.930 . S
H1269 C1277 0.930 . S
H1270 C1278 0.930 . S
H1271 C1279 0.930 . S
H1272 C1282 0.930 . S
H1273 C1283 0.930 . S
C1274 H1268 0.930 . S
C1274 C1275 1.355 . S
C1274 C1276 1.415 . S
C1275 C1274 1.355 . S
C1275 C1277 1.419 . S
C1276 C1274 1.415 . S
C1276 C1281 1.425 . S
C1276 C1283 1.409 . S
C1277 H1269 0.930 . S
C1277 C1275 1.419 . S
C1277 C1278 1.362 . S
C1278 H1270 0.930 . S
C1278 C1277 1.362 . S
C1278 C1281 1.409 . S
C1279 H1271 0.930 . S
C1279 C1280 1.355 . S
C1279 C1281 1.415 . S
C1280 C1279 1.355 . S
C1280 C1282 1.419 . S
C1281 C1276 1.425 . S
C1281 C1278 1.409 . S
C1281 C1279 1.415 . S
C1282 H1272 0.930 . S
C1282 C1280 1.419 . S
C1282 C1283 1.362 . S
C1283 H1273 0.930 . S
C1283 C1276 1.409 . S
C1283 C1282 1.362 . S
H1284 C1290 0.930 . S
H1285 C1293 0.930 . S
H1286 C1294 0.930 . S
H1287 C1295 0.930 . S
H1288 C1298 0.930 . S
H1289 C1299 0.930 . S
C1290 H1284 0.930 . S
C1290 C1291 1.355 . S
C1290 C1292 1.415 . S
C1291 C1290 1.355 . S
C1291 C1293 1.419 . S
C1292 C1290 1.415 . S
C1292 C1297 1.425 . S
C1292 C1299 1.409 . S
C1293 H1285 0.930 . S
C1293 C1291 1.419 . S
C1293 C1294 1.362 . S
C1294 H1286 0.930 . S
C1294 C1293 1.362 . S
C1294 C1297 1.409 . S
C1295 H1287 0.930 . S
C1295 C1296 1.355 . S
C1295 C1297 1.415 . S
C1296 C1295 1.355 . S
C1296 C1298 1.419 . S
C1297 C1292 1.425 . S
C1297 C1294 1.409 . S
C1297 C1295 1.415 . S
C1298 H1288 0.930 . S
C1298 C1296 1.419 . S
C1298 C1299 1.362 . S
C1299 H1289 0.930 . S
C1299 C1292 1.409 . S
C1299 C1298 1.362 . S
H1300 C1306 0.930 . S
H1301 C1309 0.930 . S
H1302 C1310 0.930 . S
H1303 C1311 0.930 . S
H1304 C1314 0.930 . S
H1305 C1315 0.930 . S
C1306 H1300 0.930 . S
C1306 C1307 1.355 . S
C1306 C1308 1.415 . S
C1307 C1306 1.355 . S
C1307 C1309 1.419 . S
C1308 C1306 1.415 . S
C1308 C1313 1.425 . S
C1308 C1315 1.409 . S
C1309 H1301 0.930 . S
C1309 C1307 1.419 . S
C1309 C1310 1.362 . S
C1310 H1302 0.930 . S
C1310 C1309 1.362 . S
C1310 C1313 1.409 . S
C1311 H1303 0.930 . S
C1311 C1312 1.355 . S
C1311 C1313 1.415 . S
C1312 C1311 1.355 . S
C1312 C1314 1.419 . S
C1313 C1308 1.425 . S
C1313 C1310 1.409 . S
C1313 C1311 1.415 . S
C1314 H1304 0.930 . S
C1314 C1312 1.419 . S
C1314 C1315 1.362 . S
C1315 H1305 0.930 . S
C1315 C1308 1.409 . S
C1315 C1314 1.362 . S
H1316 C1322 0.930 . S
H1317 C1325 0.930 . S
H1318 C1326 0.930 . S
H1319 C1327 0.930 . S
H1320 C1330 0.930 . S
H1321 C1331 0.930 . S
C1322 H1316 0.930 . S
C1322 C1323 1.355 . S
C1322 C1324 1.415 . S
C1323 C1322 1.355 . S
C1323 C1325 1.419 . S
C1324 C1322 1.415 . S
C1324 C1329 1.425 . S
C1324 C1331 1.409 . S
C1325 H1317 0.930 . S
C1325 C1323 1.419 . S
C1325 C1326 1.362 . S
C1326 H1318 0.930 . S
C1326 C1325 1.362 . S
C1326 C1329 1.409 . S
C1327 H1319 0.930 . S
C1327 C1328 1.355 . S
C1327 C1329 1.415 . S
C1328 C1327 1.355 . S
C1328 C1330 1.419 . S
C1329 C1324 1.425 . S
C1329 C1326 1.409 . S
C1329 C1327 1.415 . S
C1330 H1320 0.930 . S
C1330 C1328 1.419 . S
C1330 C1331 1.362 . S
C1331 H1321 0.930 . S
C1331 C1324 1.409 . S
C1331 C1330 1.362 . S
C619 C349 1.307 . S
C624 C9 1.286 . S
C635 C43 1.340 . S
C640 C383 1.322 . S
C651 C315 1.309 . S
C656 C77 1.287 . S
C667 C485 1.272 . S
C672 C111 1.287 . S
C683 C145 1.305 . S
C688 C417 1.327 . S
C699 C451 1.350 . S
C704 C179 1.340 . S
C715 C172 2.013 . S
C720 C478 2.021 . S
C731 C410 2.022 . S
C736 C104 2.013 . S
C747 C444 2.022 . S
C752 C138 2.010 . S
C763 C36 2.011 . S
C768 C342 2.015 . S
C779 C70 2.009 . S
C784 C376 2.019 . S
C795 C2 2.015 . S
C800 C308 2.021 . S
C811 C553 1.293 . S
C816 C213 1.315 . S
C827 C587 1.268 . S
C832 C247 1.278 . S
C843 C519 1.274 . S
C848 C281 1.292 . S
C859 C240 2.021 . S
C864 C546 2.014 . S
C875 C580 2.011 . S
C880 C274 2.015 . S
C891 C206 2.010 . S
C896 C512 2.022 . S
C907 C33 1.384 . S
C912 C611 1.412 . S
C923 C67 1.384 . S
C928 C543 1.412 . S
C939 C101 1.400 . S
C944 C577 1.396 . S
C955 C271 1.407 . S
C960 C135 1.390 . S
C971 C169 1.387 . S
C976 C305 1.411 . S
C987 C203 1.391 . S
C992 C237 1.406 . S
C1003 C339 1.403 . S
C1008 C475 1.395 . S
C1019 C373 1.410 . S
C1024 C509 1.386 . S
C1035 C407 1.394 . S
C1040 C441 1.402 . S
C1051 C73 1.561 . S
C1056 C20 1.720 . S
C1067 C54 1.716 . S
C1072 C5 1.587 . S
C1083 C39 1.600 . S
C1088 C88 1.719 . S
C1099 C141 1.534 . S
C1104 C122 1.710 . S
C1115 C156 1.724 . S
C1120 C175 1.619 . S
C1131 C107 1.555 . S
C1136 C190 1.719 . S
C1147 C224 1.721 . S
C1152 C277 1.565 . S
C1163 C209 1.547 . S
C1168 C258 1.710 . S
C1179 C292 1.713 . S
C1184 C243 1.566 . S
C1195 C326 1.728 . S
C1200 C345 1.616 . S
C1211 C379 1.531 . S
C1216 C360 1.710 . S
C1227 C394 1.723 . S
C1232 C311 1.617 . S
C1243 C428 1.710 . S
C1248 C481 1.531 . S
C1259 C413 1.529 . S
C1264 C462 1.711 . S
C1275 C496 1.714 . S
C1280 C447 1.537 . S
C1291 C530 1.710 . S
C1296 C549 1.530 . S
C1307 C583 1.590 . S
C1312 C564 1.717 . S
C1323 C515 1.560 . S
C1328 C598 1.712 . S
