# Generated by pormake.
# Topology ukf, (4)-cn, num edge types: 1
# Building blocks:
#     Node 0, Type 0, BuildingBlock: QUQFOY_clean_sbu_3, # of connection points: 4
#     Node 1, Type 0, BuildingBlock: QUQFOY_clean_sbu_3, # of connection points: 4
#     Node 2, Type 0, BuildingBlock: QUQFOY_clean_sbu_3, # of connection points: 4
#     Node 3, Type 0, BuildingBlock: QUQFOY_clean_sbu_3, # of connection points: 4
#     Node 4, Type 0, BuildingBlock: QUQFOY_clean_sbu_3, # of connection points: 4
#     Node 5, Type 0, BuildingBlock: QUQFOY_clean_sbu_3, # of connection points: 4
#     Node 6, Type 0, BuildingBlock: QUQFOY_clean_sbu_3, # of connection points: 4
#     Node 7, Type 0, BuildingBlock: QUQFOY_clean_sbu_3, # of connection points: 4
#     Node 8, Type 0, BuildingBlock: QUQFOY_clean_sbu_3, # of connection points: 4
#     Node 9, Type 0, BuildingBlock: QUQFOY_clean_sbu_3, # of connection points: 4
#     Node 10, Type 0, BuildingBlock: QUQFOY_clean_sbu_3, # of connection points: 4
#     Node 11, Type 0, BuildingBlock: QUQFOY_clean_sbu_3, # of connection points: 4
#     Edge 12, Type (0, 0), BuildingBlock: ZUJKAS_clean_linker_0, # of connection points: 2
#     Edge 13, Type (0, 0), BuildingBlock: ZUJKAS_clean_linker_0, # of connection points: 2
#     Edge 14, Type (0, 0), BuildingBlock: ZUJKAS_clean_linker_0, # of connection points: 2
#     Edge 15, Type (0, 0), BuildingBlock: ZUJKAS_clean_linker_0, # of connection points: 2
#     Edge 16, Type (0, 0), BuildingBlock: ZUJKAS_clean_linker_0, # of connection points: 2
#     Edge 17, Type (0, 0), BuildingBlock: ZUJKAS_clean_linker_0, # of connection points: 2
#     Edge 18, Type (0, 0), BuildingBlock: ZUJKAS_clean_linker_0, # of connection points: 2
#     Edge 19, Type (0, 0), BuildingBlock: ZUJKAS_clean_linker_0, # of connection points: 2
#     Edge 20, Type (0, 0), BuildingBlock: ZUJKAS_clean_linker_0, # of connection points: 2
#     Edge 21, Type (0, 0), BuildingBlock: ZUJKAS_clean_linker_0, # of connection points: 2
#     Edge 22, Type (0, 0), BuildingBlock: ZUJKAS_clean_linker_0, # of connection points: 2
#     Edge 23, Type (0, 0), BuildingBlock: ZUJKAS_clean_linker_0, # of connection points: 2
#     Edge 24, Type (0, 0), BuildingBlock: ZUJKAS_clean_linker_0, # of connection points: 2
#     Edge 25, Type (0, 0), BuildingBlock: ZUJKAS_clean_linker_0, # of connection points: 2
#     Edge 26, Type (0, 0), BuildingBlock: ZUJKAS_clean_linker_0, # of connection points: 2
#     Edge 27, Type (0, 0), BuildingBlock: ZUJKAS_clean_linker_0, # of connection points: 2
#     Edge 28, Type (0, 0), BuildingBlock: ZUJKAS_clean_linker_0, # of connection points: 2
#     Edge 29, Type (0, 0), BuildingBlock: ZUJKAS_clean_linker_0, # of connection points: 2
#     Edge 30, Type (0, 0), BuildingBlock: ZUJKAS_clean_linker_0, # of connection points: 2
#     Edge 31, Type (0, 0), BuildingBlock: ZUJKAS_clean_linker_0, # of connection points: 2
#     Edge 32, Type (0, 0), BuildingBlock: ZUJKAS_clean_linker_0, # of connection points: 2
#     Edge 33, Type (0, 0), BuildingBlock: ZUJKAS_clean_linker_0, # of connection points: 2
#     Edge 34, Type (0, 0), BuildingBlock: ZUJKAS_clean_linker_0, # of connection points: 2
#     Edge 35, Type (0, 0), BuildingBlock: ZUJKAS_clean_linker_0, # of connection points: 2
# Relax obj value: 0.129
# Max RMSD: 0.097
# Mean RMSD: 0.097
data_MOF--net-ukf--node1-QUQFOY_clean_sbu_3--edge1-ZUJKAS_clean_linker_0
_symmetry_space_group_name_H-M    P1
_symmetry_Int_Tables_number       1
_symmetry_cell_setting            triclinic
loop_
_symmetry_equiv_pos_as_xyz
'x, y, z'
_cell_length_a     41.162447
_cell_length_b     41.193854
_cell_length_c     88.336566
_cell_angle_alpha  89.984568
_cell_angle_beta   90.015495
_cell_angle_gamma 119.95383
loop_
_atom_site_label
_atom_site_type_symbol
_atom_site_fract_x
_atom_site_fract_y
_atom_site_fract_z
_atom_type_partial_charge
C0 C 0.31256 0.17705 0.02385 0.0
O1 O 0.32832 0.20632 0.0157 0.0
Cd2 Cd 0.38634 0.26087 0.02191 0.0
O3 O 0.32695 0.17565 0.03645 0.0
Cd4 Cd 0.38174 0.21729 0.05245 0.0
C5 C 0.44279 0.22152 0.02573 0.0
O6 O 0.38078 0.27488 0.04765 0.0
O7 O 0.4303 0.2811 0.05869 0.0
O8 O 0.34206 0.19589 0.07493 0.0
C9 C 0.41168 0.29614 0.05417 0.0
O10 O 0.4344 0.24312 0.01852 0.0
C11 C 0.36383 0.18877 0.0826 0.0
O12 O 0.42631 0.20626 0.0381 0.0
O13 O 0.3931 0.1931 0.07595 0.0
C14 C 0.13211 0.31404 0.35594 0.0
O15 O 0.1214 0.33057 0.34678 0.0
Cd16 Cd 0.1232 0.38851 0.35246 0.0
O17 O 0.14531 0.3281 0.36887 0.0
Cd18 Cd 0.1589 0.38384 0.38391 0.0
C19 C 0.21801 0.44477 0.35755 0.0
O20 O 0.1013 0.38436 0.37782 0.0
O21 O 0.14358 0.43192 0.39028 0.0
O22 O 0.13819 0.34377 0.40623 0.0
C23 C 0.11078 0.4147 0.38479 0.0
O24 O 0.18859 0.43727 0.35009 0.0
C25 C 0.16664 0.36476 0.41425 0.0
O26 O 0.2159 0.42738 0.36978 0.0
O27 O 0.19251 0.39395 0.40791 0.0
C28 C 0.81382 0.1385 0.69182 0.0
O29 O 0.7865 0.12658 0.68263 0.0
Cd30 Cd 0.72986 0.12814 0.68737 0.0
O31 O 0.81263 0.15251 0.70453 0.0
Cd32 Cd 0.76958 0.16581 0.71923 0.0
C33 C 0.76811 0.2233 0.6919 0.0
O34 O 0.71246 0.10801 0.71285 0.0
O35 O 0.70542 0.14939 0.72517 0.0
O36 O 0.78938 0.14653 0.74185 0.0
C37 C 0.69067 0.11694 0.71941 0.0
O38 O 0.74693 0.19358 0.68448 0.0
C39 C 0.79597 0.175 0.74969 0.0
O40 O 0.78261 0.2218 0.70446 0.0
O41 O 0.79186 0.20017 0.74312 0.0
C42 C 0.68057 0.81772 0.02339 0.0
O43 O 0.66496 0.79076 0.01408 0.0
Cd44 Cd 0.60558 0.73578 0.01872 0.0
O45 O 0.66496 0.81665 0.03598 0.0
Cd46 Cd 0.60737 0.7739 0.05006 0.0
C47 C 0.5494 0.77492 0.02299 0.0
O48 O 0.60553 0.71526 0.04408 0.0
O49 O 0.55595 0.71084 0.05447 0.0
O50 O 0.64177 0.78565 0.0737 0.0
C51 C 0.57353 0.69469 0.04996 0.0
O52 O 0.55831 0.75434 0.01533 0.0
C53 C 0.62314 0.79759 0.08088 0.0
O54 O 0.56472 0.78811 0.03578 0.0
O55 O 0.59789 0.80001 0.07354 0.0
C56 C 0.85366 0.67537 0.35637 0.0
O57 O 0.86686 0.65943 0.34812 0.0
Cd58 Cd 0.86335 0.60113 0.35413 0.0
O59 O 0.83802 0.66104 0.36899 0.0
Cd60 Cd 0.82445 0.60649 0.38515 0.0
C61 C 0.76759 0.54488 0.3584 0.0
O62 O 0.88246 0.60653 0.37988 0.0
O63 O 0.84066 0.55942 0.39265 0.0
O64 O 0.84339 0.64756 0.40718 0.0
C65 C 0.87335 0.57656 0.38706 0.0
O66 O 0.79747 0.55356 0.35106 0.0
C67 C 0.81452 0.62661 0.41501 0.0
O68 O 0.76888 0.56112 0.37086 0.0
O69 O 0.78927 0.59705 0.40865 0.0
C70 C 0.16855 0.85148 0.69185 0.0
O71 O 0.19721 0.86635 0.68331 0.0
Cd72 Cd 0.25392 0.86527 0.68797 0.0
O73 O 0.16889 0.83563 0.7042 0.0
Cd74 Cd 0.21301 0.82428 0.71933 0.0
C75 C 0.21782 0.76981 0.6915 0.0
O76 O 0.26935 0.88345 0.71371 0.0
O77 O 0.27747 0.84229 0.72564 0.0
O78 O 0.19152 0.8409 0.74221 0.0
C79 C 0.29159 0.87501 0.72019 0.0
O80 O 0.2376 0.80012 0.68418 0.0
C81 C 0.18546 0.81203 0.74965 0.0
O82 O 0.20369 0.77011 0.7043 0.0
O83 O 0.19045 0.78786 0.74271 0.0
C84 C 0.81041 0.6739 0.63434 0.0
O85 O 0.78249 0.65765 0.6432 0.0
Cd86 Cd 0.72654 0.59976 0.63738 0.0
O87 O 0.81022 0.65978 0.62149 0.0
Cd88 Cd 0.76874 0.60465 0.60593 0.0
C89 C 0.76603 0.54393 0.6327 0.0
O90 O 0.71079 0.60431 0.6118 0.0
O91 O 0.70531 0.55702 0.59909 0.0
O92 O 0.78982 0.64548 0.58384 0.0
C93 C 0.68979 0.57409 0.60478 0.0
O94 O 0.744 0.55157 0.64 0.0
C95 C 0.79726 0.62442 0.57585 0.0
O96 O 0.78138 0.56099 0.62042 0.0
O97 O 0.79306 0.59479 0.58212 0.0
C98 C 0.13533 0.81899 0.96872 0.0
O99 O 0.12305 0.79241 0.97825 0.0
Cd100 Cd 0.12457 0.73579 0.97415 0.0
O101 O 0.14923 0.81657 0.95617 0.0
Cd102 Cd 0.1611 0.77115 0.94248 0.0
C103 C 0.21955 0.77243 0.96983 0.0
O104 O 0.10237 0.71494 0.94897 0.0
O105 O 0.14491 0.70636 0.93853 0.0
O106 O 0.14147 0.78834 0.91923 0.0
C107 C 0.11149 0.69245 0.94321 0.0
O108 O 0.19 0.75279 0.97759 0.0
C109 C 0.16974 0.79386 0.91149 0.0
O110 O 0.21766 0.78496 0.95686 0.0
O111 O 0.19493 0.79032 0.91835 0.0
C112 C 0.311 0.13327 0.30183 0.0
O113 O 0.32539 0.11884 0.31027 0.0
Cd114 Cd 0.38419 0.12267 0.30509 0.0
O115 O 0.32711 0.14973 0.28956 0.0
Cd116 Cd 0.38313 0.16296 0.27445 0.0
C117 C 0.44119 0.2186 0.3021 0.0
O118 O 0.38201 0.10424 0.27933 0.0
O119 O 0.43227 0.14815 0.26894 0.0
O120 O 0.34413 0.14466 0.25182 0.0
C121 C 0.41353 0.11436 0.27325 0.0
O122 O 0.43165 0.18826 0.30924 0.0
C123 C 0.36613 0.17329 0.2441 0.0
O124 O 0.42641 0.21808 0.28935 0.0
O125 O 0.39542 0.19817 0.25075 0.0
C126 C 0.17044 0.31528 0.63368 0.0
O127 O 0.19996 0.3298 0.64172 0.0
Cd128 Cd 0.25556 0.38738 0.63576 0.0
O129 O 0.16943 0.33042 0.62122 0.0
Cd130 Cd 0.21145 0.38444 0.60499 0.0
C131 C 0.21774 0.44544 0.63227 0.0
O132 O 0.26861 0.38258 0.6099 0.0
O133 O 0.27516 0.43077 0.59758 0.0
O134 O 0.18775 0.34342 0.58302 0.0
C135 C 0.29005 0.41276 0.60295 0.0
O136 O 0.23843 0.43568 0.63939 0.0
C137 C 0.18076 0.3651 0.57522 0.0
O138 O 0.20261 0.43011 0.61971 0.0
O139 O 0.18632 0.39513 0.58158 0.0
C140 C 0.85395 0.1742 0.96873 0.0
O141 O 0.86845 0.20316 0.97708 0.0
Cd142 Cd 0.86305 0.25731 0.97223 0.0
O143 O 0.83678 0.17335 0.95659 0.0
Cd144 Cd 0.82242 0.21545 0.94149 0.0
C145 C 0.76666 0.21656 0.96938 0.0
O146 O 0.88022 0.27377 0.94642 0.0
O147 O 0.83529 0.27887 0.93627 0.0
O148 O 0.84166 0.1964 0.91867 0.0
C149 C 0.86911 0.29467 0.94061 0.0
O150 O 0.79702 0.23755 0.97648 0.0
C151 C 0.8125 0.18864 0.91107 0.0
O152 O 0.76721 0.20265 0.95655 0.0
O153 O 0.78696 0.19171 0.91786 0.0
C154 C 0.67512 0.85396 0.30048 0.0
O155 O 0.65937 0.86528 0.30975 0.0
Cd156 Cd 0.60099 0.86299 0.3047 0.0
O157 O 0.66 0.84001 0.28776 0.0
Cd158 Cd 0.60288 0.82592 0.27352 0.0
C159 C 0.54405 0.76801 0.30055 0.0
O160 O 0.60265 0.88357 0.27927 0.0
O161 O 0.55247 0.83938 0.26889 0.0
O162 O 0.6388 0.84769 0.25022 0.0
C163 C 0.57088 0.87309 0.27334 0.0
O164 O 0.55221 0.79779 0.30785 0.0
C165 C 0.61911 0.81778 0.24279 0.0
O166 O 0.5605 0.76949 0.28813 0.0
O167 O 0.5925 0.79068 0.24986 0.0
H168 H 0.14028 0.87346 0.94962 0.0
H169 H 0.15278 0.93617 0.95661 0.0
H170 H 0.14819 0.90773 0.00388 0.0
H171 H 0.13394 0.84461 -0.00301 0.0
H172 H 0.12108 0.95503 -0.00076 0.0
H173 H 0.2582 0.00752 0.97002 0.0
H174 H 0.2179 0.98331 0.95804 0.0
H175 H 0.22615 0.95832 0.97286 0.0
C176 C 0.14123 0.88041 0.9615 0.0
C177 C 0.13685 0.85445 0.97277 0.0
C178 C 0.14846 0.91623 0.96547 0.0
C179 C 0.15251 0.9269 0.98075 0.0
C180 C 0.14539 0.90013 0.99201 0.0
H181 H 0.27076 0.10963 0.03811 0.0
H182 H 0.22305 0.05108 0.02673 0.0
C183 C 0.13738 0.86409 0.98806 0.0
C184 C 0.16836 0.96666 0.98511 0.0
H185 H 0.24881 0.05134 0.98306 0.0
C186 C 0.14879 0.97626 0.99555 0.0
C187 C 0.20466 0.99427 0.98033 0.0
C188 C 0.22815 0.98541 0.96981 0.0
C189 C 0.16511 0.01246 0.00172 0.0
C190 C 0.20177 0.03949 -0.00271 0.0
C191 C 0.22052 0.03047 0.98631 0.0
C192 C 0.22342 0.07586 0.00507 0.0
C193 C 0.14348 0.02129 0.01317 0.0
C194 C 0.23892 0.10923 -0.00327 0.0
C195 C 0.26638 0.14273 0.00317 0.0
C196 C 0.27911 0.14325 0.01801 0.0
C197 C 0.26175 0.11016 0.02664 0.0
C198 C 0.23417 0.07671 0.0202 0.0
H199 H 0.1128 0.00189 0.01211 0.0
H200 H 0.15214 0.01818 0.02473 0.0
H201 H 0.14937 0.05056 0.01188 0.0
H202 H 0.23118 0.10898 0.98499 0.0
H203 H 0.27899 0.16775 -0.00377 0.0
H204 H 0.13137 0.25981 0.3739 0.0
H205 H 0.14356 0.2099 0.36607 0.0
H206 H 0.1485 0.24312 0.31942 0.0
H207 H 0.13463 0.2919 0.32709 0.0
H208 H 0.11914 0.16716 0.32218 0.0
H209 H 0.25126 0.24516 0.35528 0.0
H210 H 0.20917 0.22811 0.36623 0.0
H211 H 0.22027 0.2635 0.35205 0.0
C212 C 0.13428 0.25592 0.36195 0.0
C213 C 0.13279 0.28013 0.35111 0.0
C214 C 0.14132 0.22749 0.3575 0.0
C215 C 0.14803 0.22359 0.34222 0.0
C216 C 0.14363 0.24582 0.33129 0.0
H217 H 0.27221 0.16119 0.28674 0.0
H218 H 0.2237 0.17237 0.29707 0.0
C219 C 0.13582 0.27376 0.33569 0.0
C220 C 0.16412 0.19994 0.33775 0.0
H221 H 0.24297 0.19317 0.34158 0.0
C222 C 0.14599 0.17245 0.32655 0.0
C223 C 0.1993 0.20713 0.34341 0.0
C224 C 0.22136 0.23776 0.3548 0.0
C225 C 0.16263 0.15262 0.32059 0.0
C226 C 0.19819 0.16067 0.32596 0.0
C227 C 0.21548 0.18689 0.3376 0.0
C228 C 0.22042 0.14594 0.31863 0.0
C229 C 0.14247 0.12383 0.3084 0.0
C230 C 0.2342 0.12684 0.32726 0.0
C231 C 0.26216 0.12065 0.32143 0.0
C232 C 0.2771 0.13387 0.30694 0.0
C233 C 0.26148 0.15084 0.29797 0.0
C234 C 0.23343 0.15691 0.3038 0.0
H235 H 0.11176 0.11299 0.30873 0.0
H236 H 0.15298 0.13699 0.29716 0.0
H237 H 0.14767 0.09995 0.30952 0.0
H238 H 0.2247 0.11848 0.33879 0.0
H239 H 0.2734 0.10728 0.32861 0.0
H240 H 0.83553 0.13255 0.66326 0.0
H241 H 0.89757 0.14571 0.65528 0.0
H242 H 0.93305 0.15891 0.70195 0.0
H243 H 0.87131 0.14715 0.70999 0.0
H244 H 0.97691 0.21847 0.68637 0.0
H245 H 0.96041 0.09705 0.65372 0.0
H246 H 0.9289 0.11182 0.64684 0.0
H247 H 0.92385 0.09424 0.6659 0.0
C248 C 0.85621 0.13729 0.67185 0.0
C249 C 0.84872 0.13931 0.68724 0.0
C250 C 0.89164 0.14443 0.66728 0.0
C251 C 0.91992 0.15288 0.67802 0.0
C252 C 0.91162 0.15233 0.69346 0.0
H253 H 0.1615 0.27748 0.66026 0.0
H254 H 0.1024 0.23068 0.67172 0.0
C255 C 0.87638 0.14575 0.69804 0.0
C256 C 0.95932 0.16863 0.67302 0.0
H257 H 0.01503 0.1574 0.64737 0.0
C258 C 0.98547 0.20464 0.67815 0.0
C259 C 0.97046 0.1507 0.66223 0.0
C260 C 0.94444 0.11115 0.65699 0.0
C261 C 0.02171 0.22413 0.67214 0.0
C262 C 0.03219 0.207 0.66078 0.0
C263 C 0.00674 0.17039 0.65608 0.0
C264 C 0.0682 0.22852 0.65275 0.0
C265 C 0.04785 0.26378 0.67736 0.0
C266 C 0.06845 0.24137 0.63803 0.0
C267 C 0.10209 0.26815 0.63144 0.0
C268 C 0.13598 0.28248 0.6395 0.0
C269 C 0.13585 0.26736 0.65381 0.0
C270 C 0.10217 0.24056 0.66037 0.0
H271 H 0.03351 0.27468 0.68469 0.0
H272 H 0.07125 0.26462 0.68392 0.0
H273 H 0.06009 0.28277 0.66748 0.0
H274 H 0.04239 0.23234 0.632 0.0
H275 H 0.10122 0.27892 0.62035 0.0
H276 H 0.70828 0.84057 0.99494 0.0
H277 H 0.75768 0.90267 0.98743 0.0
H278 H 0.78123 0.93492 0.03439 0.0
H279 H 0.73059 0.87315 0.04198 0.0
H280 H 0.76559 0.97993 0.02004 0.0
H281 H 0.86868 0.96556 0.98518 0.0
H282 H 0.82226 0.93465 0.97835 0.0
H283 H 0.83535 0.92805 -0.0029 0.0
C284 C 0.72465 0.86052 0.00369 0.0
C285 C 0.71524 0.85221 0.01904 0.0
C286 C 0.75325 0.89598 -0.00063 0.0
C287 C 0.77352 0.92344 0.01034 0.0
C288 C 0.76603 0.91415 0.02573 0.0
H289 H 0.88651 0.16544 0.99427 0.0
H290 H 0.87693 0.10654 0.00494 0.0
C291 C 0.737 0.87891 0.03005 0.0
C292 C 0.79701 0.96314 0.00571 0.0
H293 H 0.86179 0.02014 0.97966 0.0
C294 C 0.7874 0.98895 0.01153 0.0
C295 C 0.82533 0.97491 0.99454 0.0
C296 C 0.83872 0.94932 0.98857 0.0
C297 C 0.80347 0.02539 0.0058 0.0
C298 C 0.83013 0.03644 0.99402 0.0
C299 C 0.84121 0.0114 0.98867 0.0
C300 C 0.84339 0.07254 0.98622 0.0
C301 C 0.7901 0.05109 0.01176 0.0
C302 C 0.8291 0.07291 0.97185 0.0
C303 C 0.8344 0.10643 0.96571 0.0
C304 C 0.85405 0.14009 0.97389 0.0
C305 C 0.87083 0.13995 0.98776 0.0
C306 C 0.86554 0.10639 0.99387 0.0
H307 H 0.7656 0.03639 0.01944 0.0
H308 H 0.81312 0.07442 0.01815 0.0
H309 H 0.78222 0.06344 0.00225 0.0
H310 H 0.81186 0.04694 0.96582 0.0
H311 H 0.82141 0.10559 0.95495 0.0
H312 H 0.72761 0.85244 0.28208 0.0
H313 H 0.77782 0.84038 0.28966 0.0
H314 H 0.74859 0.84011 0.33657 0.0
H315 H 0.69962 0.85389 0.32913 0.0
H316 H 0.82398 0.86817 0.33303 0.0
H317 H 0.74248 0.73367 0.30178 0.0
H318 H 0.75936 0.77493 0.29033 0.0
H319 H 0.72487 0.76533 0.30476 0.0
C320 C 0.73246 0.8506 0.29402 0.0
C321 C 0.70929 0.85336 0.30501 0.0
C322 C 0.76105 0.84363 0.29832 0.0
C323 C 0.76612 0.83824 0.31364 0.0
C324 C 0.74498 0.84394 0.32468 0.0
H325 H 0.82787 0.71689 0.37076 0.0
H326 H 0.81771 0.76529 0.35962 0.0
C327 C 0.71692 0.8517 0.32041 0.0
C328 C 0.78975 0.82212 0.31814 0.0
H329 H 0.79466 0.74211 0.31538 0.0
C330 C 0.81797 0.84084 0.32902 0.0
C331 C 0.78167 0.78631 0.31295 0.0
C332 C 0.75027 0.76367 0.30192 0.0
C333 C 0.83756 0.82415 0.33519 0.0
C334 C 0.82853 0.78793 0.33034 0.0
C335 C 0.80167 0.77006 0.31895 0.0
C336 C 0.84279 0.76572 0.33804 0.0
C337 C 0.86709 0.84494 0.34707 0.0
C338 C 0.86076 0.75034 0.32966 0.0
C339 C 0.86635 0.72241 0.33595 0.0
C340 C 0.85362 0.70911 0.35067 0.0
C341 C 0.8378 0.72632 0.35936 0.0
C342 C 0.83233 0.75432 0.35307 0.0
H343 H 0.87864 0.87569 0.34622 0.0
H344 H 0.85433 0.83583 0.35846 0.0
H345 H 0.89044 0.83888 0.34608 0.0
H346 H 0.8687 0.75857 0.31799 0.0
H347 H 0.87886 0.70994 0.32897 0.0
H348 H 0.83101 0.69817 0.66337 0.0
H349 H 0.89276 0.74616 0.67205 0.0
H350 H 0.92944 0.77418 0.62572 0.0
H351 H 0.86806 0.72512 0.61695 0.0
H352 H 0.97276 0.75621 0.6406 0.0
H353 H 0.95553 0.85736 0.67574 0.0
H354 H 0.92406 0.81028 0.68174 0.0
H355 H 0.91928 0.82513 0.66308 0.0
C356 C 0.85189 0.71522 0.65502 0.0
C357 C 0.84489 0.70757 0.63948 0.0
C358 C 0.88714 0.74297 0.66001 0.0
C359 C 0.91569 0.76409 0.64954 0.0
C360 C 0.9078 0.75828 0.63399 0.0
H361 H 0.15736 0.8815 0.66607 0.0
H362 H 0.09729 0.86894 0.65552 0.0
C363 C 0.87277 0.73016 0.629 0.0
C364 C 0.95497 0.78706 0.65476 0.0
H365 H 0.01065 0.85183 0.68109 0.0
C366 C 0.98124 0.7778 0.64918 0.0
C367 C 0.96598 0.81501 0.66604 0.0
C368 C 0.93975 0.82776 0.67187 0.0
C369 C 0.01755 0.79421 0.65509 0.0
C370 C 0.02803 0.82089 0.66682 0.0
C371 C 0.00237 0.83129 0.67209 0.0
C372 C 0.06451 0.83547 0.67449 0.0
C373 C 0.04387 0.78143 0.64928 0.0
C374 C 0.06589 0.82216 0.68894 0.0
C375 C 0.10011 0.82918 0.69502 0.0
C376 C 0.13345 0.84959 0.68669 0.0
C377 C 0.13217 0.86528 0.6727 0.0
C378 C 0.09793 0.85827 0.66666 0.0
H379 H 0.02946 0.75653 0.64179 0.0
H380 H 0.06678 0.80444 0.64272 0.0
H381 H 0.05678 0.77445 0.65886 0.0
H382 H 0.04027 0.80445 0.69512 0.0
H383 H 0.10013 0.81697 0.70588 0.0
H384 H 0.75464 0.23498 -0.00231 0.0
H385 H 0.69677 0.22875 0.0079 0.0
H386 H 0.63946 0.17782 0.96619 0.0
H387 H 0.69724 0.18333 0.95592 0.0
H388 H 0.66021 0.26264 -0.00373 0.0
H389 H 0.56505 0.10868 -0.00207 0.0
H390 H 0.61521 0.12982 0.99578 0.0
H391 H 0.58649 0.1261 0.9798 0.0
C392 C 0.72965 0.22199 0.99072 0.0
C393 C 0.73065 0.20976 0.97595 0.0
C394 C 0.69656 0.21842 -0.0034 0.0
C395 C 0.66371 0.20253 0.98788 0.0
C396 C 0.66429 0.18948 0.97325 0.0
H397 H 0.48109 0.24688 -0.0009 0.0
H398 H 0.53335 0.2401 0.99001 0.0
C399 C 0.69741 0.19287 0.96736 0.0
C400 C 0.62995 0.20263 0.99367 0.0
H401 H 0.53697 0.14658 0.00186 0.0
C402 C 0.63332 0.23722 -0.00244 0.0
C403 C 0.59499 0.16942 0.99548 0.0
C404 C 0.59016 0.13134 0.99217 0.0
C405 C 0.6026 0.23962 0.00298 0.0
C406 C 0.56732 0.2066 0.00428 0.0
C407 C 0.564 0.17187 0.00069 0.0
C408 C 0.53367 0.20791 0.00929 0.0
C409 C 0.60828 0.2775 0.00742 0.0
C410 C 0.51568 0.1909 0.02291 0.0
C411 C 0.48558 0.19457 0.02815 0.0
C412 C 0.47293 0.21525 0.01981 0.0
C413 C 0.49028 0.23108 0.0059 0.0
C414 C 0.52024 0.22734 0.00068 0.0
H415 H 0.63834 0.29813 0.00945 0.0
H416 H 0.59821 0.28839 -0.00187 0.0
H417 H 0.59216 0.27546 0.0178 0.0
H418 H 0.52557 0.17563 0.02968 0.0
H419 H 0.47278 0.18188 0.03887 0.0
H420 H 0.28826 0.45781 0.3652 0.0
H421 H 0.34861 0.50735 0.35545 0.0
H422 H 0.29092 0.54906 0.32781 0.0
H423 H 0.23088 0.49906 0.33698 0.0
H424 H 0.34487 0.54777 0.31216 0.0
H425 H 0.4018 0.61531 0.36779 0.0
H426 H 0.39015 0.56718 0.36673 0.0
H427 H 0.35367 0.57901 0.36537 0.0
C428 C 0.28853 0.47761 0.35706 0.0
C429 C 0.25479 0.47459 0.35191 0.0
C430 C 0.32304 0.50602 0.35155 0.0
C431 C 0.32438 0.53234 0.34107 0.0
C432 C 0.29067 0.5291 0.33588 0.0
H433 H 0.49118 0.75634 0.32166 0.0
H434 H 0.44082 0.69682 0.33108 0.0
C435 C 0.2563 0.50049 0.34117 0.0
C436 C 0.36055 0.56354 0.3354 0.0
H437 H 0.44073 0.64199 0.34655 0.0
C438 C 0.36597 0.56829 0.31968 0.0
C439 C 0.38795 0.59039 0.34523 0.0
C440 C 0.38308 0.58803 0.36221 0.0
C441 C 0.39718 0.59983 0.31349 0.0
C442 C 0.42452 0.62677 0.32331 0.0
C443 C 0.41984 0.62125 0.33904 0.0
C444 C 0.45619 0.66261 0.31764 0.0
C445 C 0.39941 0.60487 0.29651 0.0
C446 C 0.48196 0.66335 0.30701 0.0
C447 C 0.51055 0.69755 0.30136 0.0
C448 C 0.51435 0.73157 0.30651 0.0
C449 C 0.48913 0.73067 0.31746 0.0
C450 C 0.46032 0.69661 0.3229 0.0
H451 H 0.37191 0.58671 0.29098 0.0
H452 H 0.40907 0.63443 0.29342 0.0
H453 H 0.41973 0.59719 0.29189 0.0
H454 H 0.47997 0.63754 0.30307 0.0
H455 H 0.52981 0.69735 0.29306 0.0
H456 H 0.72913 0.23523 0.6698 0.0
H457 H 0.73992 0.29479 0.65975 0.0
H458 H 0.83479 0.35383 0.68956 0.0
H459 H 0.82324 0.29394 0.70016 0.0
H460 H 0.79372 0.38589 0.68983 0.0
H461 H 0.81587 0.36371 0.63009 0.0
H462 H 0.77195 0.32588 0.63653 0.0
H463 H 0.81503 0.33334 0.645 0.0
C464 C 0.75251 0.26082 0.67417 0.0
C465 C 0.77546 0.25981 0.68574 0.0
C466 C 0.75887 0.29493 0.66829 0.0
C467 C 0.78883 0.32883 0.67357 0.0
C468 C 0.81174 0.328 0.68519 0.0
H469 H 0.82287 0.53038 0.625 0.0
H470 H 0.83498 0.48233 0.63555 0.0
C471 C 0.80508 0.29378 0.69125 0.0
C472 C 0.79442 0.36496 0.66755 0.0
H473 H 0.79561 0.40901 0.63464 0.0
C474 C 0.79481 0.39124 0.67777 0.0
C475 C 0.79689 0.3726 0.65183 0.0
C476 C 0.80037 0.34753 0.64027 0.0
C477 C 0.79514 0.42367 0.67267 0.0
C478 C 0.79373 0.42933 0.65692 0.0
C479 C 0.79586 0.40435 0.64672 0.0
C480 C 0.78754 0.45944 0.65084 0.0
C481 C 0.79674 0.45134 0.68426 0.0
C482 C 0.75653 0.46215 0.65571 0.0
C483 C 0.74983 0.48971 0.64986 0.0
C484 C 0.77352 0.51474 0.63872 0.0
C485 C 0.80413 0.51154 0.63357 0.0
C486 C 0.81111 0.48415 0.63961 0.0
H487 H 0.81161 0.45069 0.69465 0.0
H488 H 0.81111 0.48037 0.67974 0.0
H489 H 0.76778 0.44368 0.68759 0.0
H490 H 0.73711 0.44259 0.66393 0.0
H491 H 0.7257 0.49103 0.65393 0.0
H492 H 0.23396 0.75424 -0.00221 0.0
H493 H 0.29306 0.76201 0.00727 0.0
H494 H 0.34709 0.8136 0.96514 0.0
H495 H 0.28802 0.80643 0.95556 0.0
H496 H 0.33099 0.72982 0.99463 0.0
H497 H 0.4217 0.88449 -0.00322 0.0
H498 H 0.37126 0.86169 0.99526 0.0
H499 H 0.39917 0.86666 0.97885 0.0
C500 C 0.25845 0.76764 0.99056 0.0
C501 C 0.25617 0.7796 0.97587 0.0
C502 C 0.29224 0.7721 -0.00397 0.0
C503 C 0.32454 0.78871 0.98698 0.0
C504 C 0.32267 0.80138 0.97243 0.0
H505 H 0.51337 0.75345 0.99576 0.0
H506 H 0.46037 0.75947 0.98707 0.0
C507 C 0.28881 0.79702 0.96694 0.0
C508 C 0.3592 0.78987 0.9924 0.0
H509 H 0.45188 0.84848 0.00036 0.0
C510 C 0.35737 0.75579 0.99594 0.0
C511 C 0.39348 0.82381 0.99423 0.0
C512 C 0.39661 0.86131 0.99122 0.0
C513 C 0.38901 0.75462 0.00104 0.0
C514 C 0.42357 0.78841 0.00241 0.0
C515 C 0.42537 0.82262 -0.00085 0.0
C516 C 0.45805 0.78836 0.00712 0.0
C517 C 0.3851 0.71721 0.00506 0.0
C518 C 0.47513 0.80384 0.02105 0.0
C519 C 0.50561 0.80054 0.02609 0.0
C520 C 0.51951 0.78176 0.01722 0.0
C521 C 0.50322 0.76776 0.00296 0.0
C522 C 0.47286 0.7711 -0.00203 0.0
H523 H 0.35534 0.69539 0.00687 0.0
H524 H 0.39635 0.70784 0.99566 0.0
H525 H 0.40126 0.71941 0.01545 0.0
H526 H 0.46412 0.8174 0.02824 0.0
H527 H 0.51758 0.81177 0.03708 0.0
H528 H 0.47361 0.23026 0.33003 0.0
H529 H 0.52495 0.28829 0.34021 0.0
H530 H 0.52787 0.34625 0.29913 0.0
H531 H 0.47591 0.28828 0.28888 0.0
H532 H 0.59498 0.3271 0.32812 0.0
H533 H 0.53152 0.41818 0.33179 0.0
H534 H 0.50381 0.36801 0.32941 0.0
H535 H 0.52747 0.39759 0.31347 0.0
C536 C 0.48481 0.2554 0.32319 0.0
C537 C 0.47065 0.25455 0.3086 0.0
C538 C 0.51417 0.28858 0.32905 0.0
C539 C 0.53 0.32169 0.32051 0.0
C540 C 0.51557 0.32121 0.30605 0.0
H541 H 0.75447 0.50832 0.33136 0.0
H542 H 0.6959 0.45553 0.32231 0.0
C543 C 0.48601 0.28797 0.30017 0.0
C544 C 0.56343 0.35578 0.32632 0.0
H545 H 0.59771 0.44787 0.33539 0.0
C546 C 0.59549 0.35345 0.32978 0.0
C547 C 0.56392 0.39002 0.32861 0.0
C548 C 0.52975 0.39366 0.32577 0.0
C549 C 0.62822 0.38453 0.33523 0.0
C550 C 0.62919 0.41912 0.33701 0.0
C551 C 0.59695 0.42138 0.33386 0.0
C552 C 0.66371 0.45318 0.34204 0.0
C553 C 0.6614 0.37996 0.33918 0.0
C554 C 0.66466 0.47025 0.3559 0.0
C555 C 0.69818 0.50069 0.36113 0.0
C556 C 0.73126 0.51456 0.35253 0.0
C557 C 0.7297 0.49816 0.33837 0.0
C558 C 0.69624 0.4679 0.33317 0.0
H559 H 0.65304 0.35007 0.3409 0.0
H560 H 0.682 0.39103 0.32977 0.0
H561 H 0.67553 0.39582 0.3496 0.0
H562 H 0.63973 0.45936 0.36287 0.0
H563 H 0.69835 0.51273 0.37204 0.0
H564 H 0.24065 0.47919 0.65985 0.0
H565 H 0.23458 0.53087 0.67004 0.0
H566 H 0.17703 0.53252 0.6295 0.0
H567 H 0.18244 0.48017 0.61923 0.0
H568 H 0.26463 0.60075 0.65755 0.0
H569 H 0.11018 0.53578 0.66311 0.0
H570 H 0.13306 0.5085 0.66049 0.0
H571 H 0.12591 0.53156 0.64463 0.0
C572 C 0.22635 0.49021 0.65311 0.0
C573 C 0.21209 0.47553 0.63869 0.0
C574 C 0.22289 0.51977 0.65899 0.0
C575 C 0.20504 0.5353 0.65061 0.0
C576 C 0.19027 0.52047 0.63629 0.0
H577 H 0.24015 0.75869 0.6638 0.0
H578 H 0.2349 0.70106 0.65382 0.0
C579 C 0.1936 0.4907 0.6304 0.0
C580 C 0.20434 0.56863 0.65652 0.0
H581 H 0.14628 0.60165 0.66704 0.0
C582 C 0.23874 0.60091 0.65966 0.0
C583 C 0.17053 0.56861 0.6594 0.0
C584 C 0.13278 0.53418 0.65688 0.0
C585 C 0.2403 0.63332 0.66545 0.0
C586 C 0.20655 0.63372 0.66792 0.0
C587 C 0.17209 0.60131 0.66499 0.0
C588 C 0.2068 0.6677 0.67355 0.0
C589 C 0.2781 0.66672 0.6691 0.0
C590 C 0.19152 0.66767 0.68775 0.0
C591 C 0.19431 0.70063 0.69351 0.0
C592 C 0.21237 0.73412 0.68512 0.0
C593 C 0.22642 0.73356 0.67065 0.0
C594 C 0.22354 0.70066 0.66492 0.0
H595 H 0.30012 0.65877 0.6702 0.0
H596 H 0.2865 0.68758 0.65983 0.0
H597 H 0.27699 0.68034 0.67978 0.0
H598 H 0.17834 0.64241 0.69454 0.0
H599 H 0.18305 0.70002 0.70465 0.0
H600 H 0.3041 0.17853 0.09971 0.0
H601 H 0.29772 0.17197 0.12725 0.0
H602 H 0.40288 0.1731 0.12995 0.0
H603 H 0.40923 0.17905 0.10242 0.0
H604 H 0.34788 0.12051 0.14909 0.0
H605 H 0.36109 0.26089 0.15528 0.0
H606 H 0.32379 0.2291 0.14308 0.0
H607 H 0.37166 0.24535 0.13783 0.0
C608 C 0.32563 0.17687 0.10614 0.0
C609 C 0.35735 0.17964 0.0989 0.0
C610 C 0.32205 0.17339 0.12188 0.0
C611 C 0.35024 0.1729 0.13064 0.0
C612 C 0.38095 0.1737 0.12339 0.0
H613 H 0.41228 0.22711 0.22399 0.0
H614 H 0.40524 0.22631 0.19647 0.0
C615 C 0.38451 0.17707 0.10765 0.0
C616 C 0.34861 0.17298 0.14739 0.0
H617 H 0.35043 0.2255 0.17764 0.0
C618 C 0.34822 0.14333 0.15535 0.0
C619 C 0.34962 0.20311 0.15549 0.0
C620 C 0.3519 0.23662 0.14753 0.0
C621 C 0.34895 0.14303 0.17123 0.0
C622 C 0.34941 0.1729 0.17934 0.0
C623 C 0.34967 0.20249 0.17137 0.0
C624 C 0.35171 0.17488 0.19607 0.0
C625 C 0.35047 0.11137 0.17918 0.0
C626 C 0.32332 0.14693 0.20498 0.0
C627 C 0.3273 0.14726 0.2207 0.0
C628 C 0.35962 0.17573 0.22778 0.0
C629 C 0.38709 0.20476 0.21888 0.0
C630 C 0.38313 0.20433 0.20316 0.0
H631 H 0.3587 0.09558 0.17136 0.0
H632 H 0.37063 0.12205 0.18875 0.0
H633 H 0.32233 0.09151 0.18379 0.0
H634 H 0.29846 0.12442 0.19975 0.0
H635 H 0.30551 0.12463 0.22725 0.0
H636 H 0.22133 0.40754 0.4347 0.0
H637 H 0.21944 0.39912 0.46213 0.0
H638 H 0.1129 0.29716 0.45819 0.0
H639 H 0.1143 0.3056 0.43075 0.0
H640 H 0.11223 0.34609 0.4793 0.0
H641 H 0.2344 0.32634 0.4885 0.0
H642 H 0.24565 0.36746 0.47763 0.0
H643 H 0.21353 0.32191 0.47008 0.0
C644 C 0.19781 0.38297 0.43963 0.0
C645 C 0.16796 0.35724 0.43055 0.0
C646 C 0.19684 0.37812 0.45531 0.0
C647 C 0.1662 0.34732 0.46218 0.0
C648 C 0.13686 0.32105 0.4531 0.0
H649 H 0.16817 0.30374 0.55879 0.0
H650 H 0.1594 0.2951 0.5314 0.0
C651 C 0.13777 0.32588 0.43742 0.0
C652 C 0.16354 0.34408 0.47889 0.0
H653 H 0.21027 0.34153 0.51036 0.0
C654 C 0.13343 0.34466 0.4861 0.0
C655 C 0.19094 0.34175 0.48772 0.0
C656 C 0.22276 0.33894 0.4806 0.0
C657 C 0.13074 0.34437 0.50194 0.0
C658 C 0.15924 0.34408 0.51078 0.0
C659 C 0.18859 0.34208 0.50356 0.0
C660 C 0.1601 0.3473 0.5275 0.0
C661 C 0.09745 0.3444 0.50907 0.0
C662 C 0.16284 0.37926 0.53441 0.0
C663 C 0.1677 0.38422 0.55006 0.0
C664 C 0.17026 0.35744 0.55906 0.0
C665 C 0.16626 0.32486 0.55217 0.0
C666 C 0.16134 0.31991 0.53652 0.0
H667 H 0.07322 0.33328 0.50117 0.0
H668 H 0.08859 0.32743 0.5196 0.0
H669 H 0.1052 0.3736 0.51198 0.0
H670 H 0.16271 0.4011 0.52763 0.0
H671 H 0.17092 0.40972 0.55501 0.0
H672 H 0.75681 0.17759 0.89127 0.0
H673 H 0.75691 0.17092 0.86377 0.0
H674 H 0.8628 0.1735 0.86638 0.0
H675 H 0.86322 0.18073 0.89387 0.0
H676 H 0.86334 0.22337 0.84564 0.0
H677 H 0.73882 0.08296 0.83699 0.0
H678 H 0.72898 0.11354 0.84808 0.0
H679 H 0.76065 0.09904 0.85527 0.0
C680 C 0.77979 0.17606 0.88603 0.0
C681 C 0.81001 0.1797 0.89474 0.0
C682 C 0.77974 0.1721 0.87031 0.0
C683 C 0.8097 0.17136 0.86305 0.0
C684 C 0.83937 0.17391 0.87177 0.0
H685 H 0.80575 0.12487 0.7665 0.0
H686 H 0.81332 0.1247 0.79396 0.0
C687 C 0.83949 0.17793 0.88748 0.0
C688 C 0.81141 0.17076 0.8463 0.0
H689 H 0.76296 0.12188 0.81506 0.0
C690 C 0.84159 0.201 0.83894 0.0
C691 C 0.78327 0.14136 0.8376 0.0
C692 C 0.75129 0.1072 0.84488 0.0
C693 C 0.84376 0.20321 0.82309 0.0
C694 C 0.81464 0.17472 0.81439 0.0
C695 C 0.7851 0.14388 0.82175 0.0
C696 C 0.81362 0.17676 0.79767 0.0
C697 C 0.87724 0.23596 0.81581 0.0
C698 C 0.81168 0.20631 0.79063 0.0
C699 C 0.80753 0.20659 0.77493 0.0
C700 C 0.80489 0.17712 0.76601 0.0
C701 C 0.80777 0.14803 0.77305 0.0
C702 C 0.81199 0.14782 0.78874 0.0
H703 H 0.90164 0.24888 0.82362 0.0
H704 H 0.88564 0.2273 0.80529 0.0
H705 H 0.86992 0.25769 0.81281 0.0
H706 H 0.81213 0.22855 0.79733 0.0
H707 H 0.80513 0.22925 0.76987 0.0
H708 H 0.59557 0.83295 0.0985 0.0
H709 H 0.6006 0.84087 0.12602 0.0
H710 H 0.66608 0.78554 0.12786 0.0
H711 H 0.66248 0.77898 0.10039 0.0
H712 H 0.5738 0.78827 0.14667 0.0
H713 H 0.72723 0.87247 0.15492 0.0
H714 H 0.70574 0.8657 0.13653 0.0
H715 H 0.71437 0.83043 0.1445 0.0
C716 C 0.61163 0.82314 0.10476 0.0
C717 C 0.62878 0.80552 0.09728 0.0
C718 C 0.61442 0.82759 0.12048 0.0
C719 C 0.63417 0.81428 0.12902 0.0
C720 C 0.65163 0.79703 0.12153 0.0
H721 H 0.58834 0.75582 0.22451 0.0
H722 H 0.59369 0.75429 0.19694 0.0
C723 C 0.64932 0.79307 0.1058 0.0
C724 C 0.6341 0.81586 0.14581 0.0
H725 H 0.69076 0.84186 0.17696 0.0
C726 C 0.59942 0.80029 0.15328 0.0
C727 C 0.66752 0.83186 0.15446 0.0
C728 C 0.7058 0.8514 0.14718 0.0
C729 C 0.59714 0.79986 0.16913 0.0
C730 C 0.63045 0.81419 0.17778 0.0
C731 C 0.6652 0.83027 0.17032 0.0
C732 C 0.62991 0.81427 0.19458 0.0
C733 C 0.55908 0.78488 0.17638 0.0
C734 C 0.6502 0.84814 0.20249 0.0
C735 C 0.64788 0.84894 0.21824 0.0
C736 C 0.62499 0.81591 0.22638 0.0
C737 C 0.60588 0.78177 0.21852 0.0
C738 C 0.60866 0.78092 0.20276 0.0
H739 H 0.5385 0.78542 0.16839 0.0
H740 H 0.54829 0.75533 0.17981 0.0
H741 H 0.56066 0.80131 0.18659 0.0
H742 H 0.66697 0.87418 0.19643 0.0
H743 H 0.66297 0.8757 0.22396 0.0
H744 H 0.80844 0.58125 0.55536 0.0
H745 H 0.81643 0.59057 0.528 0.0
H746 H 0.81559 0.69445 0.53222 0.0
H747 H 0.80702 0.68508 0.55959 0.0
H748 H 0.76623 0.64783 0.5108 0.0
H749 H 0.90574 0.66143 0.50212 0.0
H750 H 0.87444 0.6203 0.51267 0.0
H751 H 0.88928 0.66591 0.52052 0.0
C752 C 0.81064 0.60642 0.55051 0.0
C753 C 0.80708 0.63241 0.55964 0.0
C754 C 0.81537 0.61179 0.53487 0.0
C755 C 0.81698 0.6434 0.5281 0.0
C756 C 0.81454 0.66994 0.53724 0.0
H757 H 0.86521 0.68679 0.43153 0.0
H758 H 0.86538 0.69551 0.45893 0.0
C759 C 0.80974 0.66457 0.55288 0.0
C760 C 0.81823 0.64717 0.51139 0.0
H761 H 0.86705 0.64777 0.48009 0.0
C762 C 0.7885 0.64828 0.50408 0.0
C763 C 0.84753 0.64824 0.50266 0.0
C764 C 0.88125 0.6493 0.50989 0.0
C765 C 0.78655 0.64896 0.48823 0.0
C766 C 0.81475 0.64787 0.47949 0.0
C767 C 0.84524 0.64826 0.48681 0.0
C768 C 0.81252 0.64472 0.46276 0.0
C769 C 0.75427 0.65076 0.481 0.0
C770 C 0.78248 0.61352 0.45581 0.0
C771 C 0.78221 0.60852 0.44016 0.0
C772 C 0.81218 0.63448 0.43119 0.0
C773 C 0.84167 0.66631 0.43812 0.0
C774 C 0.84188 0.6713 0.45378 0.0
H775 H 0.74204 0.66288 0.48885 0.0
H776 H 0.76322 0.66776 0.47047 0.0
H777 H 0.7319 0.62199 0.47805 0.0
H778 H 0.75991 0.59226 0.46256 0.0
H779 H 0.75922 0.58359 0.43518 0.0
H780 H 0.11988 0.80284 0.8941 0.0
H781 H 0.11974 0.80825 0.86652 0.0
H782 H 0.22302 0.8056 0.86402 0.0
H783 H 0.22371 0.80073 0.89161 0.0
H784 H 0.22152 0.85904 0.84501 0.0
H785 H 0.09359 0.71962 0.83819 0.0
H786 H 0.08822 0.75121 0.85057 0.0
H787 H 0.11954 0.73447 0.85571 0.0
C788 C 0.14277 0.80376 0.8877 0.0
C789 C 0.17169 0.80109 0.89502 0.0
C790 C 0.14249 0.80659 0.87194 0.0
C791 C 0.17095 0.80653 0.86323 0.0
C792 C 0.20065 0.80542 0.87054 0.0
H793 H 0.17767 0.75681 0.76901 0.0
H794 H 0.17184 0.7559 0.79658 0.0
C795 C 0.20102 0.80268 0.88631 0.0
C796 C 0.16948 0.80683 0.84648 0.0
H797 H 0.1182 0.75605 0.81601 0.0
C798 C 0.19889 0.83662 0.83865 0.0
C799 C 0.14013 0.77724 0.83825 0.0
C800 C 0.10871 0.74362 0.84606 0.0
C801 C 0.19977 0.83767 0.82277 0.0
C802 C 0.17007 0.80843 0.81454 0.0
C803 C 0.14068 0.7786 0.82237 0.0
C804 C 0.17005 0.80745 0.79778 0.0
C805 C 0.23303 0.8695 0.81495 0.0
C806 C 0.16964 0.83604 0.7893 0.0
C807 C 0.17303 0.83668 0.77355 0.0
C808 C 0.17662 0.80857 0.766 0.0
C809 C 0.17504 0.77891 0.77448 0.0
C810 C 0.17174 0.77836 0.79023 0.0
H811 H 0.2572 0.88463 0.82276 0.0
H812 H 0.24215 0.85912 0.80515 0.0
H813 H 0.225 0.88985 0.81066 0.0
H814 H 0.16753 0.8583 0.7949 0.0
H815 H 0.17392 0.85979 0.76734 0.0
H816 H 0.60345 0.65242 0.04009 0.0
H817 H 0.57504 0.58425 0.04147 0.0
H818 H 0.47742 0.57629 0.06313 0.0
H819 H 0.50568 0.64442 0.06193 0.0
H820 H 0.50638 0.53383 0.07721 0.0
H821 H 0.48587 0.50858 0.01523 0.0
H822 H 0.53274 0.5425 0.02087 0.0
H823 H 0.4952 0.55213 0.02386 0.0
C824 C 0.57592 0.63615 0.04513 0.0
C825 C 0.55667 0.65368 0.05083 0.0
C826 C 0.55971 0.59727 0.04585 0.0
C827 C 0.52401 0.5754 0.05222 0.0
C828 C 0.50496 0.59282 0.05811 0.0
H829 H 0.37941 0.33577 0.04382 0.0
H830 H 0.40594 0.40373 0.04424 0.0
C831 C 0.52111 0.63167 0.05739 0.0
C832 C 0.50655 0.53429 0.05284 0.0
H833 H 0.47368 0.45653 0.03061 0.0
C834 C 0.49912 0.51683 0.06705 0.0
C835 C 0.49679 0.51239 0.03953 0.0
C836 C 0.50271 0.52972 0.02399 0.0
C837 C 0.4826 0.47783 0.06831 0.0
C838 C 0.4738 0.45605 0.05499 0.0
C839 C 0.48074 0.47348 0.04078 0.0
C840 C 0.45724 0.41501 0.05549 0.0
C841 C 0.47423 0.46022 0.08383 0.0
C842 C 0.47744 0.39906 0.06166 0.0
C843 C 0.46238 0.36028 0.06145 0.0
C844 C 0.42699 0.33695 0.05497 0.0
C845 C 0.40673 0.35305 0.0489 0.0
C846 C 0.42182 0.3918 0.04912 0.0
H847 H 0.47413 0.47951 0.0926 0.0
H848 H 0.44666 0.43394 0.08399 0.0
H849 H 0.49611 0.45317 0.08692 0.0
H850 H 0.50512 0.41664 0.06639 0.0
H851 H 0.47867 0.34866 0.06617 0.0
H852 H 0.87093 0.52581 0.40741 0.0
H853 H 0.91246 0.49934 0.4087 0.0
H854 H 0.9722 0.56368 0.36936 0.0
H855 H 0.93197 0.59158 0.36851 0.0
H856 H 0.92235 0.45691 0.38972 0.0
H857 H 0.05806 0.58773 0.39667 0.0
H858 H 0.01382 0.58655 0.39826 0.0
H859 H 0.03427 0.58924 0.37993 0.0
C860 C 0.8932 0.53454 0.39915 0.0
C861 C 0.89852 0.56091 0.38794 0.0
C862 C 0.91685 0.51941 0.39988 0.0
C863 C 0.9459 0.53008 0.38931 0.0
C864 C 0.95079 0.55597 0.37794 0.0
H865 H 0.05126 0.39968 0.36671 0.0
H866 H 0.01066 0.42713 0.36832 0.0
C867 C 0.92763 0.57168 0.37739 0.0
C868 C 0.97001 0.51287 0.38977 0.0
H869 H 0.06113 0.53339 0.38927 0.0
C870 C 0.95272 0.47363 0.38979 0.0
C871 C 0.0096 0.53468 0.39013 0.0
C872 C 0.02998 0.57685 0.39142 0.0
C873 C 0.97392 0.45557 0.38982 0.0
C874 C 0.01349 0.47741 0.38921 0.0
C875 C 0.03078 0.51664 0.38953 0.0
C876 C 0.03765 0.4603 0.38828 0.0
C877 C 0.9536 0.41335 0.3908 0.0
C878 C 0.06715 0.47085 0.39862 0.0
C879 C 0.091 0.45605 0.39745 0.0
C880 C 0.08542 0.43006 0.38603 0.0
C881 C 0.05582 0.41933 0.37573 0.0
C882 C 0.03245 0.43476 0.37672 0.0
H883 H 0.92569 0.40221 0.39624 0.0
H884 H 0.94894 0.40149 0.3792 0.0
H885 H 0.97001 0.40338 0.39731 0.0
H886 H 0.07178 0.49063 0.4076 0.0
H887 H 0.11361 0.46471 0.40555 0.0
H888 H 0.64949 0.05984 0.69984 0.0
H889 H 0.58126 0.01988 0.6992 0.0
H890 H 0.5719 0.07635 0.7387 0.0
H891 H 0.6399 0.11763 0.73889 0.0
H892 H 0.53422 0.971 0.71811 0.0
H893 H 0.49793 0.08272 0.71182 0.0
H894 H 0.54538 0.0918 0.71006 0.0
H895 H 0.52549 0.08958 0.72847 0.0
C896 C 0.63278 0.06378 0.70833 0.0
C897 C 0.64979 0.09195 0.71934 0.0
C898 C 0.59386 0.04099 0.70796 0.0
C899 C 0.57138 0.04567 0.7187 0.0
C900 C 0.58852 0.07307 0.72999 0.0
H901 H 0.34307 0.87476 0.73941 0.0
H902 H 0.41101 0.91656 0.739 0.0
C903 C 0.62737 0.09641 0.73017 0.0
C904 C 0.53013 0.02116 0.71833 0.0
H905 H 0.44779 0.02218 0.7188 0.0
C906 C 0.51532 0.9822 0.71813 0.0
C907 C 0.50547 0.03577 0.71806 0.0
C908 C 0.5194 0.07725 0.71694 0.0
C909 C 0.47654 0.95743 0.71793 0.0
C910 C 0.4519 0.97204 0.7186 0.0
C911 C 0.4667 0.01099 0.71852 0.0
C912 C 0.41067 0.94749 0.71921 0.0
C913 C 0.46255 0.91597 0.71664 0.0
C914 C 0.38774 0.9522 0.70871 0.0
C915 C 0.34887 0.92911 0.70922 0.0
C916 C 0.33237 0.90062 0.72012 0.0
C917 C 0.35522 0.89624 0.73076 0.0
C918 C 0.39402 0.91986 0.73045 0.0
H919 H 0.4838 0.91057 0.71126 0.0
H920 H 0.45691 0.90346 0.72813 0.0
H921 H 0.4363 0.90153 0.70991 0.0
H922 H 0.39996 0.97349 0.69999 0.0
H923 H 0.33182 0.933 0.70087 0.0
H924 H 0.6465 0.58856 0.62378 0.0
H925 H 0.5782 0.55982 0.62345 0.0
H926 H 0.57302 0.49651 0.58367 0.0
H927 H 0.6411 0.52374 0.58445 0.0
H928 H 0.53214 0.56184 0.60383 0.0
H929 H 0.49817 0.4144 0.60969 0.0
H930 H 0.54513 0.4532 0.61204 0.0
H931 H 0.5267 0.43632 0.59339 0.0
C932 C 0.63071 0.5684 0.61501 0.0
C933 C 0.6489 0.55804 0.60423 0.0
C934 C 0.59175 0.55201 0.61482 0.0
C935 C 0.57042 0.52539 0.60373 0.0
C936 C 0.58875 0.516 0.59264 0.0
H937 H 0.33998 0.46401 0.58315 0.0
H938 H 0.40808 0.49091 0.58295 0.0
C939 C 0.62764 0.53178 0.59302 0.0
C940 C 0.52909 0.50808 0.60363 0.0
H941 H 0.44763 0.42409 0.60284 0.0
C942 C 0.51364 0.5317 0.60372 0.0
C943 C 0.50498 0.46876 0.60373 0.0
C944 C 0.51959 0.44173 0.60488 0.0
C945 C 0.47475 0.51714 0.60379 0.0
C946 C 0.45067 0.47785 0.60311 0.0
C947 C 0.46612 0.45422 0.60315 0.0
C948 C 0.40934 0.46055 0.60276 0.0
C949 C 0.46003 0.54406 0.60503 0.0
C950 C 0.38729 0.43317 0.61348 0.0
C951 C 0.34835 0.41698 0.61333 0.0
C952 C 0.33089 0.42828 0.60257 0.0
C953 C 0.35287 0.4552 0.59169 0.0
C954 C 0.39176 0.4708 0.59164 0.0
H955 H 0.48107 0.57104 0.61022 0.0
H956 H 0.45373 0.5503 0.59353 0.0
H957 H 0.43399 0.53206 0.61189 0.0
H958 H 0.40024 0.42467 0.62211 0.0
H959 H 0.33202 0.3963 0.62187 0.0
H960 H 0.12375 0.63847 0.93129 0.0
H961 H 0.07997 0.57103 0.93035 0.0
H962 H -0.0042 0.5871 0.95261 0.0
H963 H 0.03954 0.65468 0.95372 0.0
H964 H 0.00626 0.52971 0.96517 0.0
H965 H 0.98688 0.51593 0.90283 0.0
H966 H 0.03499 0.53971 0.90887 0.0
H967 H 0.00632 0.56044 0.91247 0.0
C968 C 0.09589 0.62769 0.93594 0.0
C969 C 0.08501 0.65182 0.94255 0.0
C970 C 0.07088 0.58922 0.93531 0.0
C971 C 0.0346 0.57433 0.94122 0.0
C972 C 0.02369 0.59825 0.94792 0.0
H973 H 0.85185 0.34603 0.92949 0.0
H974 H 0.89119 0.41432 0.92987 0.0
C975 C 0.04866 0.63676 0.94853 0.0
C976 C 0.00847 0.53357 0.94084 0.0
H977 H 0.96328 0.45925 0.91687 0.0
C978 C -0.00337 0.51427 0.95463 0.0
C979 C -0.00424 0.51377 0.92705 0.0
C980 C 0.00632 0.5335 0.91195 0.0
C981 C 0.97304 0.47532 0.95499 0.0
C982 C 0.96153 0.45534 0.9412 0.0
C983 C 0.97256 0.47475 0.92741 0.0
C984 C 0.9381 0.41418 0.94086 0.0
C985 C 0.96046 0.45589 0.97011 0.0
C986 C 0.95186 0.39171 0.94668 0.0
C987 C 0.92953 0.35277 0.94648 0.0
C988 C 0.89316 0.33575 0.94038 0.0
C989 C 0.87973 0.35837 0.93431 0.0
C990 C 0.9021 0.39732 0.93451 0.0
H991 H 0.964 0.47582 0.9793 0.0
H992 H 0.93058 0.43343 0.9697 0.0
H993 H 0.97757 0.44281 0.97301 0.0
H994 H 0.97988 0.40432 0.95137 0.0
H995 H 0.9407 0.33605 0.95117 0.0
H996 H 0.50313 0.85752 0.26175 0.0
H997 H 0.47663 0.89904 0.26088 0.0
H998 H 0.57631 0.98674 0.28212 0.0
H999 H 0.60292 0.94535 0.28319 0.0
H1000 H 0.50852 0.97362 0.29542 0.0
H1001 H 0.50852 0.99052 0.23301 0.0
H1002 H 0.48628 0.94283 0.23948 0.0
H1003 H 0.53577 0.97298 0.24229 0.0
C1004 C 0.51948 0.8857 0.26618 0.0
C1005 C 0.55511 0.89824 0.27253 0.0
C1006 C 0.50439 0.90941 0.26559 0.0
C1007 C 0.52478 0.94601 0.27126 0.0
C1008 C 0.5603 0.95859 0.27762 0.0
H1009 H 0.48058 0.12919 0.26121 0.0
H1010 H 0.50727 0.08781 0.2607 0.0
C1011 C 0.57542 0.93493 0.27821 0.0
C1012 C 0.50851 0.97079 0.27108 0.0
H1013 H 0.47705 0.01489 0.24757 0.0
C1014 C 0.50169 0.98275 0.28497 0.0
C1015 C 0.50004 0.9828 0.2574 0.0
C1016 C 0.50829 0.97195 0.24218 0.0
C1017 C 0.48611 0.00616 0.28557 0.0
C1018 C 0.47673 0.01737 0.27191 0.0
C1019 C 0.48401 0.00585 0.258 0.0
C1020 C 0.45994 0.04169 0.27185 0.0
C1021 C 0.48033 0.01915 0.30079 0.0
C1022 C 0.42428 0.02906 0.27807 0.0
C1023 C 0.40897 0.05258 0.27839 0.0
C1024 C 0.42909 0.08904 0.27245 0.0
C1025 C 0.4645 0.1013 0.26594 0.0
C1026 C 0.47976 0.07773 0.26561 0.0
H1027 H 0.49673 0.01512 0.30984 0.0
H1028 H 0.48846 0.04922 0.30041 0.0
H1029 H 0.45021 0.00276 0.30387 0.0
H1030 H 0.40838 0.00105 0.28272 0.0
H1031 H 0.38153 0.0423 0.2834 0.0
loop_
_geom_bond_atom_site_label_1
_geom_bond_atom_site_label_2
_geom_bond_distance
_geom_bond_site_symmetry_2
_ccdc_geom_bond_type
C0 O1 1.306 . S
C0 O3 1.160 . S
O1 C0 1.306 . S
O1 Cd2 2.228 . S
Cd2 O1 2.228 . S
Cd2 O6 2.273 . S
Cd2 O10 2.277 . S
O3 C0 1.160 . S
O3 Cd4 2.203 . S
Cd4 O3 2.203 . S
Cd4 O6 2.411 . S
Cd4 O7 2.333 . S
Cd4 O8 2.352 . S
Cd4 O12 2.277 . S
Cd4 O13 2.356 . S
C5 O10 1.209 . S
C5 O12 1.226 . S
O6 Cd2 2.273 . S
O6 Cd4 2.411 . S
O6 C9 1.320 . S
O7 Cd4 2.333 . S
O7 C9 1.214 . S
O8 Cd4 2.352 . S
O8 C11 1.258 . S
C9 O6 1.320 . S
C9 O7 1.214 . S
O10 Cd2 2.277 . S
O10 C5 1.209 . S
C11 O8 1.258 . S
C11 O13 1.282 . S
O12 Cd4 2.277 . S
O12 C5 1.226 . S
O13 Cd4 2.356 . S
O13 C11 1.282 . S
C14 O15 1.306 . S
C14 O17 1.160 . S
O15 C14 1.306 . S
O15 Cd16 2.228 . S
Cd16 O15 2.228 . S
Cd16 O20 2.273 . S
Cd16 O24 2.277 . S
O17 C14 1.160 . S
O17 Cd18 2.203 . S
Cd18 O17 2.203 . S
Cd18 O20 2.411 . S
Cd18 O21 2.333 . S
Cd18 O22 2.352 . S
Cd18 O26 2.277 . S
Cd18 O27 2.356 . S
C19 O24 1.209 . S
C19 O26 1.226 . S
O20 Cd16 2.273 . S
O20 Cd18 2.411 . S
O20 C23 1.320 . S
O21 Cd18 2.333 . S
O21 C23 1.214 . S
O22 Cd18 2.352 . S
O22 C25 1.258 . S
C23 O20 1.320 . S
C23 O21 1.214 . S
O24 Cd16 2.277 . S
O24 C19 1.209 . S
C25 O22 1.258 . S
C25 O27 1.282 . S
O26 Cd18 2.277 . S
O26 C19 1.226 . S
O27 Cd18 2.356 . S
O27 C25 1.282 . S
C28 O29 1.306 . S
C28 O31 1.160 . S
O29 C28 1.306 . S
O29 Cd30 2.228 . S
Cd30 O29 2.228 . S
Cd30 O34 2.273 . S
Cd30 O38 2.277 . S
O31 C28 1.160 . S
O31 Cd32 2.203 . S
Cd32 O31 2.203 . S
Cd32 O34 2.411 . S
Cd32 O35 2.333 . S
Cd32 O36 2.352 . S
Cd32 O40 2.277 . S
Cd32 O41 2.356 . S
C33 O38 1.209 . S
C33 O40 1.226 . S
O34 Cd30 2.273 . S
O34 Cd32 2.411 . S
O34 C37 1.320 . S
O35 Cd32 2.333 . S
O35 C37 1.214 . S
O36 Cd32 2.352 . S
O36 C39 1.258 . S
C37 O34 1.320 . S
C37 O35 1.214 . S
O38 Cd30 2.277 . S
O38 C33 1.209 . S
C39 O36 1.258 . S
C39 O41 1.282 . S
O40 Cd32 2.277 . S
O40 C33 1.226 . S
O41 Cd32 2.356 . S
O41 C39 1.282 . S
C42 O43 1.306 . S
C42 O45 1.160 . S
O43 C42 1.306 . S
O43 Cd44 2.228 . S
Cd44 O43 2.228 . S
Cd44 O48 2.273 . S
Cd44 O52 2.277 . S
O45 C42 1.160 . S
O45 Cd46 2.203 . S
Cd46 O45 2.203 . S
Cd46 O48 2.411 . S
Cd46 O49 2.333 . S
Cd46 O50 2.352 . S
Cd46 O54 2.277 . S
Cd46 O55 2.356 . S
C47 O52 1.209 . S
C47 O54 1.226 . S
O48 Cd44 2.273 . S
O48 Cd46 2.411 . S
O48 C51 1.320 . S
O49 Cd46 2.333 . S
O49 C51 1.214 . S
O50 Cd46 2.352 . S
O50 C53 1.258 . S
C51 O48 1.320 . S
C51 O49 1.214 . S
O52 Cd44 2.277 . S
O52 C47 1.209 . S
C53 O50 1.258 . S
C53 O55 1.282 . S
O54 Cd46 2.277 . S
O54 C47 1.226 . S
O55 Cd46 2.356 . S
O55 C53 1.282 . S
C56 O57 1.306 . S
C56 O59 1.160 . S
O57 C56 1.306 . S
O57 Cd58 2.228 . S
Cd58 O57 2.228 . S
Cd58 O62 2.273 . S
Cd58 O66 2.277 . S
O59 C56 1.160 . S
O59 Cd60 2.203 . S
Cd60 O59 2.203 . S
Cd60 O62 2.411 . S
Cd60 O63 2.333 . S
Cd60 O64 2.352 . S
Cd60 O68 2.277 . S
Cd60 O69 2.356 . S
C61 O66 1.209 . S
C61 O68 1.226 . S
O62 Cd58 2.273 . S
O62 Cd60 2.411 . S
O62 C65 1.320 . S
O63 Cd60 2.333 . S
O63 C65 1.214 . S
O64 Cd60 2.352 . S
O64 C67 1.258 . S
C65 O62 1.320 . S
C65 O63 1.214 . S
O66 Cd58 2.277 . S
O66 C61 1.209 . S
C67 O64 1.258 . S
C67 O69 1.282 . S
O68 Cd60 2.277 . S
O68 C61 1.226 . S
O69 Cd60 2.356 . S
O69 C67 1.282 . S
C70 O71 1.306 . S
C70 O73 1.160 . S
O71 C70 1.306 . S
O71 Cd72 2.228 . S
Cd72 O71 2.228 . S
Cd72 O76 2.273 . S
Cd72 O80 2.277 . S
O73 C70 1.160 . S
O73 Cd74 2.203 . S
Cd74 O73 2.203 . S
Cd74 O76 2.411 . S
Cd74 O77 2.333 . S
Cd74 O78 2.352 . S
Cd74 O82 2.277 . S
Cd74 O83 2.356 . S
C75 O80 1.209 . S
C75 O82 1.226 . S
O76 Cd72 2.273 . S
O76 Cd74 2.411 . S
O76 C79 1.320 . S
O77 Cd74 2.333 . S
O77 C79 1.214 . S
O78 Cd74 2.352 . S
O78 C81 1.258 . S
C79 O76 1.320 . S
C79 O77 1.214 . S
O80 Cd72 2.277 . S
O80 C75 1.209 . S
C81 O78 1.258 . S
C81 O83 1.282 . S
O82 Cd74 2.277 . S
O82 C75 1.226 . S
O83 Cd74 2.356 . S
O83 C81 1.282 . S
C84 O85 1.306 . S
C84 O87 1.160 . S
O85 C84 1.306 . S
O85 Cd86 2.228 . S
Cd86 O85 2.228 . S
Cd86 O90 2.273 . S
Cd86 O94 2.277 . S
O87 C84 1.160 . S
O87 Cd88 2.203 . S
Cd88 O87 2.203 . S
Cd88 O90 2.411 . S
Cd88 O91 2.333 . S
Cd88 O92 2.352 . S
Cd88 O96 2.277 . S
Cd88 O97 2.356 . S
C89 O94 1.209 . S
C89 O96 1.226 . S
O90 Cd86 2.273 . S
O90 Cd88 2.411 . S
O90 C93 1.320 . S
O91 Cd88 2.333 . S
O91 C93 1.214 . S
O92 Cd88 2.352 . S
O92 C95 1.258 . S
C93 O90 1.320 . S
C93 O91 1.214 . S
O94 Cd86 2.277 . S
O94 C89 1.209 . S
C95 O92 1.258 . S
C95 O97 1.282 . S
O96 Cd88 2.277 . S
O96 C89 1.226 . S
O97 Cd88 2.356 . S
O97 C95 1.282 . S
C98 O99 1.306 . S
C98 O101 1.160 . S
O99 C98 1.306 . S
O99 Cd100 2.228 . S
Cd100 O99 2.228 . S
Cd100 O104 2.273 . S
Cd100 O108 2.277 . S
O101 C98 1.160 . S
O101 Cd102 2.203 . S
Cd102 O101 2.203 . S
Cd102 O104 2.411 . S
Cd102 O105 2.333 . S
Cd102 O106 2.352 . S
Cd102 O110 2.277 . S
Cd102 O111 2.356 . S
C103 O108 1.209 . S
C103 O110 1.226 . S
O104 Cd100 2.273 . S
O104 Cd102 2.411 . S
O104 C107 1.320 . S
O105 Cd102 2.333 . S
O105 C107 1.214 . S
O106 Cd102 2.352 . S
O106 C109 1.258 . S
C107 O104 1.320 . S
C107 O105 1.214 . S
O108 Cd100 2.277 . S
O108 C103 1.209 . S
C109 O106 1.258 . S
C109 O111 1.282 . S
O110 Cd102 2.277 . S
O110 C103 1.226 . S
O111 Cd102 2.356 . S
O111 C109 1.282 . S
C112 O113 1.306 . S
C112 O115 1.160 . S
O113 C112 1.306 . S
O113 Cd114 2.228 . S
Cd114 O113 2.228 . S
Cd114 O118 2.273 . S
Cd114 O122 2.277 . S
O115 C112 1.160 . S
O115 Cd116 2.203 . S
Cd116 O115 2.203 . S
Cd116 O118 2.411 . S
Cd116 O119 2.333 . S
Cd116 O120 2.352 . S
Cd116 O124 2.277 . S
Cd116 O125 2.356 . S
C117 O122 1.209 . S
C117 O124 1.226 . S
O118 Cd114 2.273 . S
O118 Cd116 2.411 . S
O118 C121 1.320 . S
O119 Cd116 2.333 . S
O119 C121 1.214 . S
O120 Cd116 2.352 . S
O120 C123 1.258 . S
C121 O118 1.320 . S
C121 O119 1.214 . S
O122 Cd114 2.277 . S
O122 C117 1.209 . S
C123 O120 1.258 . S
C123 O125 1.282 . S
O124 Cd116 2.277 . S
O124 C117 1.226 . S
O125 Cd116 2.356 . S
O125 C123 1.282 . S
C126 O127 1.306 . S
C126 O129 1.160 . S
O127 C126 1.306 . S
O127 Cd128 2.228 . S
Cd128 O127 2.228 . S
Cd128 O132 2.273 . S
Cd128 O136 2.277 . S
O129 C126 1.160 . S
O129 Cd130 2.203 . S
Cd130 O129 2.203 . S
Cd130 O132 2.411 . S
Cd130 O133 2.333 . S
Cd130 O134 2.352 . S
Cd130 O138 2.277 . S
Cd130 O139 2.356 . S
C131 O136 1.209 . S
C131 O138 1.226 . S
O132 Cd128 2.273 . S
O132 Cd130 2.411 . S
O132 C135 1.320 . S
O133 Cd130 2.333 . S
O133 C135 1.214 . S
O134 Cd130 2.352 . S
O134 C137 1.258 . S
C135 O132 1.320 . S
C135 O133 1.214 . S
O136 Cd128 2.277 . S
O136 C131 1.209 . S
C137 O134 1.258 . S
C137 O139 1.282 . S
O138 Cd130 2.277 . S
O138 C131 1.226 . S
O139 Cd130 2.356 . S
O139 C137 1.282 . S
C140 O141 1.306 . S
C140 O143 1.160 . S
O141 C140 1.306 . S
O141 Cd142 2.228 . S
Cd142 O141 2.228 . S
Cd142 O146 2.273 . S
Cd142 O150 2.277 . S
O143 C140 1.160 . S
O143 Cd144 2.203 . S
Cd144 O143 2.203 . S
Cd144 O146 2.411 . S
Cd144 O147 2.333 . S
Cd144 O148 2.352 . S
Cd144 O152 2.277 . S
Cd144 O153 2.356 . S
C145 O150 1.209 . S
C145 O152 1.226 . S
O146 Cd142 2.273 . S
O146 Cd144 2.411 . S
O146 C149 1.320 . S
O147 Cd144 2.333 . S
O147 C149 1.214 . S
O148 Cd144 2.352 . S
O148 C151 1.258 . S
C149 O146 1.320 . S
C149 O147 1.214 . S
O150 Cd142 2.277 . S
O150 C145 1.209 . S
C151 O148 1.258 . S
C151 O153 1.282 . S
O152 Cd144 2.277 . S
O152 C145 1.226 . S
O153 Cd144 2.356 . S
O153 C151 1.282 . S
C154 O155 1.306 . S
C154 O157 1.160 . S
O155 C154 1.306 . S
O155 Cd156 2.228 . S
Cd156 O155 2.228 . S
Cd156 O160 2.273 . S
Cd156 O164 2.277 . S
O157 C154 1.160 . S
O157 Cd158 2.203 . S
Cd158 O157 2.203 . S
Cd158 O160 2.411 . S
Cd158 O161 2.333 . S
Cd158 O162 2.352 . S
Cd158 O166 2.277 . S
Cd158 O167 2.356 . S
C159 O164 1.209 . S
C159 O166 1.226 . S
O160 Cd156 2.273 . S
O160 Cd158 2.411 . S
O160 C163 1.320 . S
O161 Cd158 2.333 . S
O161 C163 1.214 . S
O162 Cd158 2.352 . S
O162 C165 1.258 . S
C163 O160 1.320 . S
C163 O161 1.214 . S
O164 Cd156 2.277 . S
O164 C159 1.209 . S
C165 O162 1.258 . S
C165 O167 1.282 . S
O166 Cd158 2.277 . S
O166 C159 1.226 . S
O167 Cd158 2.356 . S
O167 C165 1.282 . S
H168 C176 0.929 . S
H169 C178 0.930 . S
H170 C180 0.930 . S
H171 C183 0.929 . S
H172 C186 0.930 . S
H173 C188 0.960 1_545 S
H174 C188 0.960 . S
H175 C188 0.960 . S
C176 H168 0.929 . S
C176 C177 1.377 . S
C176 C178 1.384 . S
C177 C176 1.377 . S
C177 C183 1.390 . S
C178 H169 0.930 . S
C178 C176 1.384 . S
C178 C179 1.372 . S
C179 C178 1.372 . S
C179 C180 1.400 . S
C179 C184 1.490 . S
C180 H170 0.930 . S
C180 C179 1.400 . S
C180 C183 1.386 . S
H181 C197 0.930 . S
H182 C198 0.931 . S
C183 H171 0.929 . S
C183 C177 1.390 . S
C183 C180 1.386 . S
C184 C179 1.490 . S
C184 C186 1.395 1_556 S
C184 C187 1.403 . S
H185 C191 0.930 . S
C186 H172 0.930 . S
C186 C184 1.395 1_554 S
C186 C189 1.403 1_565 S
C187 C184 1.403 . S
C187 C188 1.524 . S
C187 C191 1.400 1_565 S
C188 H173 0.960 1_565 S
C188 H174 0.960 . S
C188 H175 0.960 . S
C188 C187 1.524 . S
C189 C186 1.403 1_545 S
C189 C190 1.392 . S
C189 C193 1.495 . S
C190 C189 1.392 . S
C190 C191 1.385 1_554 S
C190 C192 1.478 . S
C191 H185 0.930 . S
C191 C187 1.400 1_545 S
C191 C190 1.385 1_556 S
C192 C190 1.478 . S
C192 C194 1.381 . S
C192 C198 1.383 . S
C193 C189 1.495 . S
C193 H199 0.959 1_545 S
C193 H200 0.961 . S
C193 H201 0.960 . S
C194 C192 1.381 . S
C194 C195 1.394 . S
C194 H202 0.930 . S
C195 C194 1.394 . S
C195 C196 1.383 . S
C195 H203 0.929 . S
C196 C195 1.383 . S
C196 C197 1.377 . S
C197 H181 0.930 . S
C197 C196 1.377 . S
C197 C198 1.379 . S
C198 H182 0.931 . S
C198 C192 1.383 . S
C198 C197 1.379 . S
H199 C193 0.959 1_565 S
H200 C193 0.961 . S
H201 C193 0.960 . S
H202 C194 0.930 . S
H203 C195 0.929 . S
H204 C212 0.929 . S
H205 C214 0.930 . S
H206 C216 0.930 . S
H207 C219 0.929 . S
H208 C222 0.930 . S
H209 C224 0.960 . S
H210 C224 0.960 . S
H211 C224 0.960 . S
C212 H204 0.929 . S
C212 C213 1.377 . S
C212 C214 1.384 . S
C213 C212 1.377 . S
C213 C219 1.390 . S
C214 H205 0.930 . S
C214 C212 1.384 . S
C214 C215 1.372 . S
C215 C214 1.372 . S
C215 C216 1.400 . S
C215 C220 1.490 . S
C216 H206 0.930 . S
C216 C215 1.400 . S
C216 C219 1.386 . S
H217 C233 0.930 . S
H218 C234 0.931 . S
C219 H207 0.929 . S
C219 C213 1.390 . S
C219 C216 1.386 . S
C220 C215 1.490 . S
C220 C222 1.395 . S
C220 C223 1.403 . S
H221 C227 0.930 . S
C222 H208 0.930 . S
C222 C220 1.395 . S
C222 C225 1.403 . S
C223 C220 1.403 . S
C223 C224 1.524 . S
C223 C227 1.400 . S
C224 H209 0.960 . S
C224 H210 0.960 . S
C224 H211 0.960 . S
C224 C223 1.524 . S
C225 C222 1.403 . S
C225 C226 1.392 . S
C225 C229 1.495 . S
C226 C225 1.392 . S
C226 C227 1.385 . S
C226 C228 1.478 . S
C227 H221 0.930 . S
C227 C223 1.400 . S
C227 C226 1.385 . S
C228 C226 1.478 . S
C228 C230 1.381 . S
C228 C234 1.383 . S
C229 C225 1.495 . S
C229 H235 0.959 . S
C229 H236 0.961 . S
C229 H237 0.960 . S
C230 C228 1.381 . S
C230 C231 1.394 . S
C230 H238 0.930 . S
C231 C230 1.394 . S
C231 C232 1.383 . S
C231 H239 0.929 . S
C232 C231 1.383 . S
C232 C233 1.377 . S
C233 H217 0.930 . S
C233 C232 1.377 . S
C233 C234 1.379 . S
C234 H218 0.931 . S
C234 C228 1.383 . S
C234 C233 1.379 . S
H235 C229 0.959 . S
H236 C229 0.961 . S
H237 C229 0.960 . S
H238 C230 0.930 . S
H239 C231 0.929 . S
H240 C248 0.929 . S
H241 C250 0.930 . S
H242 C252 0.930 . S
H243 C255 0.929 . S
H244 C258 0.930 . S
H245 C260 0.960 . S
H246 C260 0.960 . S
H247 C260 0.960 . S
C248 H240 0.929 . S
C248 C249 1.377 . S
C248 C250 1.384 . S
C249 C248 1.377 . S
C249 C255 1.390 . S
C250 H241 0.930 . S
C250 C248 1.384 . S
C250 C251 1.372 . S
C251 C250 1.372 . S
C251 C252 1.400 . S
C251 C256 1.490 . S
C252 H242 0.930 . S
C252 C251 1.400 . S
C252 C255 1.386 . S
H253 C269 0.930 . S
H254 C270 0.931 . S
C255 H243 0.929 . S
C255 C249 1.390 . S
C255 C252 1.386 . S
C256 C251 1.490 . S
C256 C258 1.395 . S
C256 C259 1.403 . S
H257 C263 0.930 . S
C258 H244 0.930 . S
C258 C256 1.395 . S
C258 C261 1.403 1_655 S
C259 C256 1.403 . S
C259 C260 1.524 . S
C259 C263 1.400 1_655 S
C260 H245 0.960 . S
C260 H246 0.960 . S
C260 H247 0.960 . S
C260 C259 1.524 . S
C261 C258 1.403 1_455 S
C261 C262 1.392 . S
C261 C265 1.495 . S
C262 C261 1.392 . S
C262 C263 1.385 . S
C262 C264 1.478 . S
C263 H257 0.930 . S
C263 C259 1.400 1_455 S
C263 C262 1.385 . S
C264 C262 1.478 . S
C264 C266 1.381 . S
C264 C270 1.383 . S
C265 C261 1.495 . S
C265 H271 0.959 . S
C265 H272 0.961 . S
C265 H273 0.960 . S
C266 C264 1.381 . S
C266 C267 1.394 . S
C266 H274 0.930 . S
C267 C266 1.394 . S
C267 C268 1.383 . S
C267 H275 0.929 . S
C268 C267 1.383 . S
C268 C269 1.377 . S
C269 H253 0.930 . S
C269 C268 1.377 . S
C269 C270 1.379 . S
C270 H254 0.931 . S
C270 C264 1.383 . S
C270 C269 1.379 . S
H271 C265 0.959 . S
H272 C265 0.961 . S
H273 C265 0.960 . S
H274 C266 0.930 . S
H275 C267 0.929 . S
H276 C284 0.929 . S
H277 C286 0.930 . S
H278 C288 0.930 . S
H279 C291 0.929 . S
H280 C294 0.930 . S
H281 C296 0.960 . S
H282 C296 0.960 . S
H283 C296 0.960 1_554 S
C284 H276 0.929 . S
C284 C285 1.377 . S
C284 C286 1.384 . S
C285 C284 1.377 . S
C285 C291 1.390 . S
C286 H277 0.930 . S
C286 C284 1.384 . S
C286 C287 1.372 . S
C287 C286 1.372 . S
C287 C288 1.400 . S
C287 C292 1.490 . S
C288 H278 0.930 . S
C288 C287 1.400 . S
C288 C291 1.386 . S
H289 C305 0.930 . S
H290 C306 0.931 . S
C291 H279 0.929 . S
C291 C285 1.390 . S
C291 C288 1.386 . S
C292 C287 1.490 . S
C292 C294 1.395 . S
C292 C295 1.403 1_554 S
H293 C299 0.930 . S
C294 H280 0.930 . S
C294 C292 1.395 . S
C294 C297 1.403 1_565 S
C295 C292 1.403 1_556 S
C295 C296 1.524 . S
C295 C299 1.400 1_565 S
C296 H281 0.960 . S
C296 H282 0.960 . S
C296 H283 0.960 1_556 S
C296 C295 1.524 . S
C297 C294 1.403 1_545 S
C297 C298 1.392 1_554 S
C297 C301 1.495 . S
C298 C297 1.392 1_556 S
C298 C299 1.385 . S
C298 C300 1.478 . S
C299 H293 0.930 . S
C299 C295 1.400 1_545 S
C299 C298 1.385 . S
C300 C298 1.478 . S
C300 C302 1.381 . S
C300 C306 1.383 . S
C301 C297 1.495 . S
C301 H307 0.959 . S
C301 H308 0.961 . S
C301 H309 0.960 1_554 S
C302 C300 1.381 . S
C302 C303 1.394 . S
C302 H310 0.930 . S
C303 C302 1.394 . S
C303 C304 1.383 . S
C303 H311 0.929 . S
C304 C303 1.383 . S
C304 C305 1.377 . S
C305 H289 0.930 . S
C305 C304 1.377 . S
C305 C306 1.379 . S
C306 H290 0.931 . S
C306 C300 1.383 . S
C306 C305 1.379 . S
H307 C301 0.959 . S
H308 C301 0.961 . S
H309 C301 0.960 1_556 S
H310 C302 0.930 . S
H311 C303 0.929 . S
H312 C320 0.929 . S
H313 C322 0.930 . S
H314 C324 0.930 . S
H315 C327 0.929 . S
H316 C330 0.930 . S
H317 C332 0.960 . S
H318 C332 0.960 . S
H319 C332 0.960 . S
C320 H312 0.929 . S
C320 C321 1.377 . S
C320 C322 1.384 . S
C321 C320 1.377 . S
C321 C327 1.390 . S
C322 H313 0.930 . S
C322 C320 1.384 . S
C322 C323 1.372 . S
C323 C322 1.372 . S
C323 C324 1.400 . S
C323 C328 1.490 . S
C324 H314 0.930 . S
C324 C323 1.400 . S
C324 C327 1.386 . S
H325 C341 0.930 . S
H326 C342 0.931 . S
C327 H315 0.929 . S
C327 C321 1.390 . S
C327 C324 1.386 . S
C328 C323 1.490 . S
C328 C330 1.395 . S
C328 C331 1.403 . S
H329 C335 0.930 . S
C330 H316 0.930 . S
C330 C328 1.395 . S
C330 C333 1.403 . S
C331 C328 1.403 . S
C331 C332 1.524 . S
C331 C335 1.400 . S
C332 H317 0.960 . S
C332 H318 0.960 . S
C332 H319 0.960 . S
C332 C331 1.524 . S
C333 C330 1.403 . S
C333 C334 1.392 . S
C333 C337 1.495 . S
C334 C333 1.392 . S
C334 C335 1.385 . S
C334 C336 1.478 . S
C335 H329 0.930 . S
C335 C331 1.400 . S
C335 C334 1.385 . S
C336 C334 1.478 . S
C336 C338 1.381 . S
C336 C342 1.383 . S
C337 C333 1.495 . S
C337 H343 0.959 . S
C337 H344 0.961 . S
C337 H345 0.960 . S
C338 C336 1.381 . S
C338 C339 1.394 . S
C338 H346 0.930 . S
C339 C338 1.394 . S
C339 C340 1.383 . S
C339 H347 0.929 . S
C340 C339 1.383 . S
C340 C341 1.377 . S
C341 H325 0.930 . S
C341 C340 1.377 . S
C341 C342 1.379 . S
C342 H326 0.931 . S
C342 C336 1.383 . S
C342 C341 1.379 . S
H343 C337 0.959 . S
H344 C337 0.961 . S
H345 C337 0.960 . S
H346 C338 0.930 . S
H347 C339 0.929 . S
H348 C356 0.929 . S
H349 C358 0.930 . S
H350 C360 0.930 . S
H351 C363 0.929 . S
H352 C366 0.930 . S
H353 C368 0.960 . S
H354 C368 0.960 . S
H355 C368 0.960 . S
C356 H348 0.929 . S
C356 C357 1.377 . S
C356 C358 1.384 . S
C357 C356 1.377 . S
C357 C363 1.390 . S
C358 H349 0.930 . S
C358 C356 1.384 . S
C358 C359 1.372 . S
C359 C358 1.372 . S
C359 C360 1.400 . S
C359 C364 1.490 . S
C360 H350 0.930 . S
C360 C359 1.400 . S
C360 C363 1.386 . S
H361 C377 0.930 . S
H362 C378 0.931 . S
C363 H351 0.929 . S
C363 C357 1.390 . S
C363 C360 1.386 . S
C364 C359 1.490 . S
C364 C366 1.395 . S
C364 C367 1.403 . S
H365 C371 0.930 . S
C366 H352 0.930 . S
C366 C364 1.395 . S
C366 C369 1.403 1_655 S
C367 C364 1.403 . S
C367 C368 1.524 . S
C367 C371 1.400 1_655 S
C368 H353 0.960 . S
C368 H354 0.960 . S
C368 H355 0.960 . S
C368 C367 1.524 . S
C369 C366 1.403 1_455 S
C369 C370 1.392 . S
C369 C373 1.495 . S
C370 C369 1.392 . S
C370 C371 1.385 . S
C370 C372 1.478 . S
C371 H365 0.930 . S
C371 C367 1.400 1_455 S
C371 C370 1.385 . S
C372 C370 1.478 . S
C372 C374 1.381 . S
C372 C378 1.383 . S
C373 C369 1.495 . S
C373 H379 0.959 . S
C373 H380 0.961 . S
C373 H381 0.960 . S
C374 C372 1.381 . S
C374 C375 1.394 . S
C374 H382 0.930 . S
C375 C374 1.394 . S
C375 C376 1.383 . S
C375 H383 0.929 . S
C376 C375 1.383 . S
C376 C377 1.377 . S
C377 H361 0.930 . S
C377 C376 1.377 . S
C377 C378 1.379 . S
C378 H362 0.931 . S
C378 C372 1.383 . S
C378 C377 1.379 . S
H379 C373 0.959 . S
H380 C373 0.961 . S
H381 C373 0.960 . S
H382 C374 0.930 . S
H383 C375 0.929 . S
H384 C392 0.929 . S
H385 C394 0.930 1_554 S
H386 C396 0.930 . S
H387 C399 0.929 . S
H388 C402 0.930 . S
H389 C404 0.960 . S
H390 C404 0.960 . S
H391 C404 0.960 . S
C392 H384 0.929 . S
C392 C393 1.377 . S
C392 C394 1.384 . S
C393 C392 1.377 . S
C393 C399 1.390 . S
C394 H385 0.930 1_556 S
C394 C392 1.384 . S
C394 C395 1.372 . S
C395 C394 1.372 . S
C395 C396 1.400 . S
C395 C400 1.490 . S
C396 H386 0.930 . S
C396 C395 1.400 . S
C396 C399 1.386 . S
H397 C413 0.930 . S
H398 C414 0.931 1_556 S
C399 H387 0.929 . S
C399 C393 1.390 . S
C399 C396 1.386 . S
C400 C395 1.490 . S
C400 C402 1.395 1_556 S
C400 C403 1.403 . S
H401 C407 0.930 . S
C402 H388 0.930 . S
C402 C400 1.395 1_554 S
C402 C405 1.403 . S
C403 C400 1.403 . S
C403 C404 1.524 . S
C403 C407 1.400 . S
C404 H389 0.960 . S
C404 H390 0.960 . S
C404 H391 0.960 . S
C404 C403 1.524 . S
C405 C402 1.403 . S
C405 C406 1.392 . S
C405 C409 1.495 . S
C406 C405 1.392 . S
C406 C407 1.385 1_554 S
C406 C408 1.478 . S
C407 H401 0.930 . S
C407 C403 1.400 . S
C407 C406 1.385 1_556 S
C408 C406 1.478 . S
C408 C410 1.381 . S
C408 C414 1.383 . S
C409 C405 1.495 . S
C409 H415 0.959 . S
C409 H416 0.961 . S
C409 H417 0.960 . S
C410 C408 1.381 . S
C410 C411 1.394 . S
C410 H418 0.930 . S
C411 C410 1.394 . S
C411 C412 1.383 . S
C411 H419 0.929 . S
C412 C411 1.383 . S
C412 C413 1.377 . S
C413 H397 0.930 . S
C413 C412 1.377 . S
C413 C414 1.379 . S
C414 H398 0.931 1_554 S
C414 C408 1.383 . S
C414 C413 1.379 . S
H415 C409 0.959 . S
H416 C409 0.961 . S
H417 C409 0.960 . S
H418 C410 0.930 . S
H419 C411 0.929 . S
H420 C428 0.929 . S
H421 C430 0.930 . S
H422 C432 0.930 . S
H423 C435 0.929 . S
H424 C438 0.930 . S
H425 C440 0.960 . S
H426 C440 0.960 . S
H427 C440 0.960 . S
C428 H420 0.929 . S
C428 C429 1.377 . S
C428 C430 1.384 . S
C429 C428 1.377 . S
C429 C435 1.390 . S
C430 H421 0.930 . S
C430 C428 1.384 . S
C430 C431 1.372 . S
C431 C430 1.372 . S
C431 C432 1.400 . S
C431 C436 1.490 . S
C432 H422 0.930 . S
C432 C431 1.400 . S
C432 C435 1.386 . S
H433 C449 0.930 . S
H434 C450 0.931 . S
C435 H423 0.929 . S
C435 C429 1.390 . S
C435 C432 1.386 . S
C436 C431 1.490 . S
C436 C438 1.395 . S
C436 C439 1.403 . S
H437 C443 0.930 . S
C438 H424 0.930 . S
C438 C436 1.395 . S
C438 C441 1.403 . S
C439 C436 1.403 . S
C439 C440 1.524 . S
C439 C443 1.400 . S
C440 H425 0.960 . S
C440 H426 0.960 . S
C440 H427 0.960 . S
C440 C439 1.524 . S
C441 C438 1.403 . S
C441 C442 1.392 . S
C441 C445 1.495 . S
C442 C441 1.392 . S
C442 C443 1.385 . S
C442 C444 1.478 . S
C443 H437 0.930 . S
C443 C439 1.400 . S
C443 C442 1.385 . S
C444 C442 1.478 . S
C444 C446 1.381 . S
C444 C450 1.383 . S
C445 C441 1.495 . S
C445 H451 0.959 . S
C445 H452 0.961 . S
C445 H453 0.960 . S
C446 C444 1.381 . S
C446 C447 1.394 . S
C446 H454 0.930 . S
C447 C446 1.394 . S
C447 C448 1.383 . S
C447 H455 0.929 . S
C448 C447 1.383 . S
C448 C449 1.377 . S
C449 H433 0.930 . S
C449 C448 1.377 . S
C449 C450 1.379 . S
C450 H434 0.931 . S
C450 C444 1.383 . S
C450 C449 1.379 . S
H451 C445 0.959 . S
H452 C445 0.961 . S
H453 C445 0.960 . S
H454 C446 0.930 . S
H455 C447 0.929 . S
H456 C464 0.929 . S
H457 C466 0.930 . S
H458 C468 0.930 . S
H459 C471 0.929 . S
H460 C474 0.930 . S
H461 C476 0.960 . S
H462 C476 0.960 . S
H463 C476 0.960 . S
C464 H456 0.929 . S
C464 C465 1.377 . S
C464 C466 1.384 . S
C465 C464 1.377 . S
C465 C471 1.390 . S
C466 H457 0.930 . S
C466 C464 1.384 . S
C466 C467 1.372 . S
C467 C466 1.372 . S
C467 C468 1.400 . S
C467 C472 1.490 . S
C468 H458 0.930 . S
C468 C467 1.400 . S
C468 C471 1.386 . S
H469 C485 0.930 . S
H470 C486 0.931 . S
C471 H459 0.929 . S
C471 C465 1.390 . S
C471 C468 1.386 . S
C472 C467 1.490 . S
C472 C474 1.395 . S
C472 C475 1.403 . S
H473 C479 0.930 . S
C474 H460 0.930 . S
C474 C472 1.395 . S
C474 C477 1.403 . S
C475 C472 1.403 . S
C475 C476 1.524 . S
C475 C479 1.400 . S
C476 H461 0.960 . S
C476 H462 0.960 . S
C476 H463 0.960 . S
C476 C475 1.524 . S
C477 C474 1.403 . S
C477 C478 1.392 . S
C477 C481 1.495 . S
C478 C477 1.392 . S
C478 C479 1.385 . S
C478 C480 1.478 . S
C479 H473 0.930 . S
C479 C475 1.400 . S
C479 C478 1.385 . S
C480 C478 1.478 . S
C480 C482 1.381 . S
C480 C486 1.383 . S
C481 C477 1.495 . S
C481 H487 0.959 . S
C481 H488 0.961 . S
C481 H489 0.960 . S
C482 C480 1.381 . S
C482 C483 1.394 . S
C482 H490 0.930 . S
C483 C482 1.394 . S
C483 C484 1.383 . S
C483 H491 0.929 . S
C484 C483 1.383 . S
C484 C485 1.377 . S
C485 H469 0.930 . S
C485 C484 1.377 . S
C485 C486 1.379 . S
C486 H470 0.931 . S
C486 C480 1.383 . S
C486 C485 1.379 . S
H487 C481 0.959 . S
H488 C481 0.961 . S
H489 C481 0.960 . S
H490 C482 0.930 . S
H491 C483 0.929 . S
H492 C500 0.929 . S
H493 C502 0.930 1_554 S
H494 C504 0.930 . S
H495 C507 0.929 . S
H496 C510 0.930 . S
H497 C512 0.960 . S
H498 C512 0.960 . S
H499 C512 0.960 . S
C500 H492 0.929 . S
C500 C501 1.377 . S
C500 C502 1.384 . S
C501 C500 1.377 . S
C501 C507 1.390 . S
C502 H493 0.930 1_556 S
C502 C500 1.384 . S
C502 C503 1.372 . S
C503 C502 1.372 . S
C503 C504 1.400 . S
C503 C508 1.490 . S
C504 H494 0.930 . S
C504 C503 1.400 . S
C504 C507 1.386 . S
H505 C521 0.930 . S
H506 C522 0.931 1_556 S
C507 H495 0.929 . S
C507 C501 1.390 . S
C507 C504 1.386 . S
C508 C503 1.490 . S
C508 C510 1.395 1_556 S
C508 C511 1.403 . S
H509 C515 0.930 . S
C510 H496 0.930 . S
C510 C508 1.395 1_554 S
C510 C513 1.403 . S
C511 C508 1.403 . S
C511 C512 1.524 . S
C511 C515 1.400 . S
C512 H497 0.960 . S
C512 H498 0.960 . S
C512 H499 0.960 . S
C512 C511 1.524 . S
C513 C510 1.403 . S
C513 C514 1.392 . S
C513 C517 1.495 . S
C514 C513 1.392 . S
C514 C515 1.385 1_554 S
C514 C516 1.478 . S
C515 H509 0.930 . S
C515 C511 1.400 . S
C515 C514 1.385 1_556 S
C516 C514 1.478 . S
C516 C518 1.381 . S
C516 C522 1.383 . S
C517 C513 1.495 . S
C517 H523 0.959 . S
C517 H524 0.961 . S
C517 H525 0.960 . S
C518 C516 1.381 . S
C518 C519 1.394 . S
C518 H526 0.930 . S
C519 C518 1.394 . S
C519 C520 1.383 . S
C519 H527 0.929 . S
C520 C519 1.383 . S
C520 C521 1.377 . S
C521 H505 0.930 . S
C521 C520 1.377 . S
C521 C522 1.379 . S
C522 H506 0.931 1_554 S
C522 C516 1.383 . S
C522 C521 1.379 . S
H523 C517 0.959 . S
H524 C517 0.961 . S
H525 C517 0.960 . S
H526 C518 0.930 . S
H527 C519 0.929 . S
H528 C536 0.929 . S
H529 C538 0.930 . S
H530 C540 0.930 . S
H531 C543 0.929 . S
H532 C546 0.930 . S
H533 C548 0.960 . S
H534 C548 0.960 . S
H535 C548 0.960 . S
C536 H528 0.929 . S
C536 C537 1.377 . S
C536 C538 1.384 . S
C537 C536 1.377 . S
C537 C543 1.390 . S
C538 H529 0.930 . S
C538 C536 1.384 . S
C538 C539 1.372 . S
C539 C538 1.372 . S
C539 C540 1.400 . S
C539 C544 1.490 . S
C540 H530 0.930 . S
C540 C539 1.400 . S
C540 C543 1.386 . S
H541 C557 0.930 . S
H542 C558 0.931 . S
C543 H531 0.929 . S
C543 C537 1.390 . S
C543 C540 1.386 . S
C544 C539 1.490 . S
C544 C546 1.395 . S
C544 C547 1.403 . S
H545 C551 0.930 . S
C546 H532 0.930 . S
C546 C544 1.395 . S
C546 C549 1.403 . S
C547 C544 1.403 . S
C547 C548 1.524 . S
C547 C551 1.400 . S
C548 H533 0.960 . S
C548 H534 0.960 . S
C548 H535 0.960 . S
C548 C547 1.524 . S
C549 C546 1.403 . S
C549 C550 1.392 . S
C549 C553 1.495 . S
C550 C549 1.392 . S
C550 C551 1.385 . S
C550 C552 1.478 . S
C551 H545 0.930 . S
C551 C547 1.400 . S
C551 C550 1.385 . S
C552 C550 1.478 . S
C552 C554 1.381 . S
C552 C558 1.383 . S
C553 C549 1.495 . S
C553 H559 0.959 . S
C553 H560 0.961 . S
C553 H561 0.960 . S
C554 C552 1.381 . S
C554 C555 1.394 . S
C554 H562 0.930 . S
C555 C554 1.394 . S
C555 C556 1.383 . S
C555 H563 0.929 . S
C556 C555 1.383 . S
C556 C557 1.377 . S
C557 H541 0.930 . S
C557 C556 1.377 . S
C557 C558 1.379 . S
C558 H542 0.931 . S
C558 C552 1.383 . S
C558 C557 1.379 . S
H559 C553 0.959 . S
H560 C553 0.961 . S
H561 C553 0.960 . S
H562 C554 0.930 . S
H563 C555 0.929 . S
H564 C572 0.929 . S
H565 C574 0.930 . S
H566 C576 0.930 . S
H567 C579 0.929 . S
H568 C582 0.930 . S
H569 C584 0.960 . S
H570 C584 0.960 . S
H571 C584 0.960 . S
C572 H564 0.929 . S
C572 C573 1.377 . S
C572 C574 1.384 . S
C573 C572 1.377 . S
C573 C579 1.390 . S
C574 H565 0.930 . S
C574 C572 1.384 . S
C574 C575 1.372 . S
C575 C574 1.372 . S
C575 C576 1.400 . S
C575 C580 1.490 . S
C576 H566 0.930 . S
C576 C575 1.400 . S
C576 C579 1.386 . S
H577 C593 0.930 . S
H578 C594 0.931 . S
C579 H567 0.929 . S
C579 C573 1.390 . S
C579 C576 1.386 . S
C580 C575 1.490 . S
C580 C582 1.395 . S
C580 C583 1.403 . S
H581 C587 0.930 . S
C582 H568 0.930 . S
C582 C580 1.395 . S
C582 C585 1.403 . S
C583 C580 1.403 . S
C583 C584 1.524 . S
C583 C587 1.400 . S
C584 H569 0.960 . S
C584 H570 0.960 . S
C584 H571 0.960 . S
C584 C583 1.524 . S
C585 C582 1.403 . S
C585 C586 1.392 . S
C585 C589 1.495 . S
C586 C585 1.392 . S
C586 C587 1.385 . S
C586 C588 1.478 . S
C587 H581 0.930 . S
C587 C583 1.400 . S
C587 C586 1.385 . S
C588 C586 1.478 . S
C588 C590 1.381 . S
C588 C594 1.383 . S
C589 C585 1.495 . S
C589 H595 0.959 . S
C589 H596 0.961 . S
C589 H597 0.960 . S
C590 C588 1.381 . S
C590 C591 1.394 . S
C590 H598 0.930 . S
C591 C590 1.394 . S
C591 C592 1.383 . S
C591 H599 0.929 . S
C592 C591 1.383 . S
C592 C593 1.377 . S
C593 H577 0.930 . S
C593 C592 1.377 . S
C593 C594 1.379 . S
C594 H578 0.931 . S
C594 C588 1.383 . S
C594 C593 1.379 . S
H595 C589 0.959 . S
H596 C589 0.961 . S
H597 C589 0.960 . S
H598 C590 0.930 . S
H599 C591 0.929 . S
H600 C608 0.929 . S
H601 C610 0.930 . S
H602 C612 0.930 . S
H603 C615 0.929 . S
H604 C618 0.930 . S
H605 C620 0.960 . S
H606 C620 0.960 . S
H607 C620 0.960 . S
C608 H600 0.929 . S
C608 C609 1.377 . S
C608 C610 1.384 . S
C609 C608 1.377 . S
C609 C615 1.390 . S
C610 H601 0.930 . S
C610 C608 1.384 . S
C610 C611 1.372 . S
C611 C610 1.372 . S
C611 C612 1.400 . S
C611 C616 1.490 . S
C612 H602 0.930 . S
C612 C611 1.400 . S
C612 C615 1.386 . S
H613 C629 0.930 . S
H614 C630 0.931 . S
C615 H603 0.929 . S
C615 C609 1.390 . S
C615 C612 1.386 . S
C616 C611 1.490 . S
C616 C618 1.395 . S
C616 C619 1.403 . S
H617 C623 0.930 . S
C618 H604 0.930 . S
C618 C616 1.395 . S
C618 C621 1.403 . S
C619 C616 1.403 . S
C619 C620 1.524 . S
C619 C623 1.400 . S
C620 H605 0.960 . S
C620 H606 0.960 . S
C620 H607 0.960 . S
C620 C619 1.524 . S
C621 C618 1.403 . S
C621 C622 1.392 . S
C621 C625 1.495 . S
C622 C621 1.392 . S
C622 C623 1.385 . S
C622 C624 1.478 . S
C623 H617 0.930 . S
C623 C619 1.400 . S
C623 C622 1.385 . S
C624 C622 1.478 . S
C624 C626 1.381 . S
C624 C630 1.383 . S
C625 C621 1.495 . S
C625 H631 0.959 . S
C625 H632 0.961 . S
C625 H633 0.960 . S
C626 C624 1.381 . S
C626 C627 1.394 . S
C626 H634 0.930 . S
C627 C626 1.394 . S
C627 C628 1.383 . S
C627 H635 0.929 . S
C628 C627 1.383 . S
C628 C629 1.377 . S
C629 H613 0.930 . S
C629 C628 1.377 . S
C629 C630 1.379 . S
C630 H614 0.931 . S
C630 C624 1.383 . S
C630 C629 1.379 . S
H631 C625 0.959 . S
H632 C625 0.961 . S
H633 C625 0.960 . S
H634 C626 0.930 . S
H635 C627 0.929 . S
H636 C644 0.929 . S
H637 C646 0.930 . S
H638 C648 0.930 . S
H639 C651 0.929 . S
H640 C654 0.930 . S
H641 C656 0.960 . S
H642 C656 0.960 . S
H643 C656 0.960 . S
C644 H636 0.929 . S
C644 C645 1.377 . S
C644 C646 1.384 . S
C645 C644 1.377 . S
C645 C651 1.390 . S
C646 H637 0.930 . S
C646 C644 1.384 . S
C646 C647 1.372 . S
C647 C646 1.372 . S
C647 C648 1.400 . S
C647 C652 1.490 . S
C648 H638 0.930 . S
C648 C647 1.400 . S
C648 C651 1.386 . S
H649 C665 0.930 . S
H650 C666 0.931 . S
C651 H639 0.929 . S
C651 C645 1.390 . S
C651 C648 1.386 . S
C652 C647 1.490 . S
C652 C654 1.395 . S
C652 C655 1.403 . S
H653 C659 0.930 . S
C654 H640 0.930 . S
C654 C652 1.395 . S
C654 C657 1.403 . S
C655 C652 1.403 . S
C655 C656 1.524 . S
C655 C659 1.400 . S
C656 H641 0.960 . S
C656 H642 0.960 . S
C656 H643 0.960 . S
C656 C655 1.524 . S
C657 C654 1.403 . S
C657 C658 1.392 . S
C657 C661 1.495 . S
C658 C657 1.392 . S
C658 C659 1.385 . S
C658 C660 1.478 . S
C659 H653 0.930 . S
C659 C655 1.400 . S
C659 C658 1.385 . S
C660 C658 1.478 . S
C660 C662 1.381 . S
C660 C666 1.383 . S
C661 C657 1.495 . S
C661 H667 0.959 . S
C661 H668 0.961 . S
C661 H669 0.960 . S
C662 C660 1.381 . S
C662 C663 1.394 . S
C662 H670 0.930 . S
C663 C662 1.394 . S
C663 C664 1.383 . S
C663 H671 0.929 . S
C664 C663 1.383 . S
C664 C665 1.377 . S
C665 H649 0.930 . S
C665 C664 1.377 . S
C665 C666 1.379 . S
C666 H650 0.931 . S
C666 C660 1.383 . S
C666 C665 1.379 . S
H667 C661 0.959 . S
H668 C661 0.961 . S
H669 C661 0.960 . S
H670 C662 0.930 . S
H671 C663 0.929 . S
H672 C680 0.929 . S
H673 C682 0.930 . S
H674 C684 0.930 . S
H675 C687 0.929 . S
H676 C690 0.930 . S
H677 C692 0.960 . S
H678 C692 0.960 . S
H679 C692 0.960 . S
C680 H672 0.929 . S
C680 C681 1.377 . S
C680 C682 1.384 . S
C681 C680 1.377 . S
C681 C687 1.390 . S
C682 H673 0.930 . S
C682 C680 1.384 . S
C682 C683 1.372 . S
C683 C682 1.372 . S
C683 C684 1.400 . S
C683 C688 1.490 . S
C684 H674 0.930 . S
C684 C683 1.400 . S
C684 C687 1.386 . S
H685 C701 0.930 . S
H686 C702 0.931 . S
C687 H675 0.929 . S
C687 C681 1.390 . S
C687 C684 1.386 . S
C688 C683 1.490 . S
C688 C690 1.395 . S
C688 C691 1.403 . S
H689 C695 0.930 . S
C690 H676 0.930 . S
C690 C688 1.395 . S
C690 C693 1.403 . S
C691 C688 1.403 . S
C691 C692 1.524 . S
C691 C695 1.400 . S
C692 H677 0.960 . S
C692 H678 0.960 . S
C692 H679 0.960 . S
C692 C691 1.524 . S
C693 C690 1.403 . S
C693 C694 1.392 . S
C693 C697 1.495 . S
C694 C693 1.392 . S
C694 C695 1.385 . S
C694 C696 1.478 . S
C695 H689 0.930 . S
C695 C691 1.400 . S
C695 C694 1.385 . S
C696 C694 1.478 . S
C696 C698 1.381 . S
C696 C702 1.383 . S
C697 C693 1.495 . S
C697 H703 0.959 . S
C697 H704 0.961 . S
C697 H705 0.960 . S
C698 C696 1.381 . S
C698 C699 1.394 . S
C698 H706 0.930 . S
C699 C698 1.394 . S
C699 C700 1.383 . S
C699 H707 0.929 . S
C700 C699 1.383 . S
C700 C701 1.377 . S
C701 H685 0.930 . S
C701 C700 1.377 . S
C701 C702 1.379 . S
C702 H686 0.931 . S
C702 C696 1.383 . S
C702 C701 1.379 . S
H703 C697 0.959 . S
H704 C697 0.961 . S
H705 C697 0.960 . S
H706 C698 0.930 . S
H707 C699 0.929 . S
H708 C716 0.929 . S
H709 C718 0.930 . S
H710 C720 0.930 . S
H711 C723 0.929 . S
H712 C726 0.930 . S
H713 C728 0.960 . S
H714 C728 0.960 . S
H715 C728 0.960 . S
C716 H708 0.929 . S
C716 C717 1.377 . S
C716 C718 1.384 . S
C717 C716 1.377 . S
C717 C723 1.390 . S
C718 H709 0.930 . S
C718 C716 1.384 . S
C718 C719 1.372 . S
C719 C718 1.372 . S
C719 C720 1.400 . S
C719 C724 1.490 . S
C720 H710 0.930 . S
C720 C719 1.400 . S
C720 C723 1.386 . S
H721 C737 0.930 . S
H722 C738 0.931 . S
C723 H711 0.929 . S
C723 C717 1.390 . S
C723 C720 1.386 . S
C724 C719 1.490 . S
C724 C726 1.395 . S
C724 C727 1.403 . S
H725 C731 0.930 . S
C726 H712 0.930 . S
C726 C724 1.395 . S
C726 C729 1.403 . S
C727 C724 1.403 . S
C727 C728 1.524 . S
C727 C731 1.400 . S
C728 H713 0.960 . S
C728 H714 0.960 . S
C728 H715 0.960 . S
C728 C727 1.524 . S
C729 C726 1.403 . S
C729 C730 1.392 . S
C729 C733 1.495 . S
C730 C729 1.392 . S
C730 C731 1.385 . S
C730 C732 1.478 . S
C731 H725 0.930 . S
C731 C727 1.400 . S
C731 C730 1.385 . S
C732 C730 1.478 . S
C732 C734 1.381 . S
C732 C738 1.383 . S
C733 C729 1.495 . S
C733 H739 0.959 . S
C733 H740 0.961 . S
C733 H741 0.960 . S
C734 C732 1.381 . S
C734 C735 1.394 . S
C734 H742 0.930 . S
C735 C734 1.394 . S
C735 C736 1.383 . S
C735 H743 0.929 . S
C736 C735 1.383 . S
C736 C737 1.377 . S
C737 H721 0.930 . S
C737 C736 1.377 . S
C737 C738 1.379 . S
C738 H722 0.931 . S
C738 C732 1.383 . S
C738 C737 1.379 . S
H739 C733 0.959 . S
H740 C733 0.961 . S
H741 C733 0.960 . S
H742 C734 0.930 . S
H743 C735 0.929 . S
H744 C752 0.929 . S
H745 C754 0.930 . S
H746 C756 0.930 . S
H747 C759 0.929 . S
H748 C762 0.930 . S
H749 C764 0.960 . S
H750 C764 0.960 . S
H751 C764 0.960 . S
C752 H744 0.929 . S
C752 C753 1.377 . S
C752 C754 1.384 . S
C753 C752 1.377 . S
C753 C759 1.390 . S
C754 H745 0.930 . S
C754 C752 1.384 . S
C754 C755 1.372 . S
C755 C754 1.372 . S
C755 C756 1.400 . S
C755 C760 1.490 . S
C756 H746 0.930 . S
C756 C755 1.400 . S
C756 C759 1.386 . S
H757 C773 0.930 . S
H758 C774 0.931 . S
C759 H747 0.929 . S
C759 C753 1.390 . S
C759 C756 1.386 . S
C760 C755 1.490 . S
C760 C762 1.395 . S
C760 C763 1.403 . S
H761 C767 0.930 . S
C762 H748 0.930 . S
C762 C760 1.395 . S
C762 C765 1.403 . S
C763 C760 1.403 . S
C763 C764 1.524 . S
C763 C767 1.400 . S
C764 H749 0.960 . S
C764 H750 0.960 . S
C764 H751 0.960 . S
C764 C763 1.524 . S
C765 C762 1.403 . S
C765 C766 1.392 . S
C765 C769 1.495 . S
C766 C765 1.392 . S
C766 C767 1.385 . S
C766 C768 1.478 . S
C767 H761 0.930 . S
C767 C763 1.400 . S
C767 C766 1.385 . S
C768 C766 1.478 . S
C768 C770 1.381 . S
C768 C774 1.383 . S
C769 C765 1.495 . S
C769 H775 0.959 . S
C769 H776 0.961 . S
C769 H777 0.960 . S
C770 C768 1.381 . S
C770 C771 1.394 . S
C770 H778 0.930 . S
C771 C770 1.394 . S
C771 C772 1.383 . S
C771 H779 0.929 . S
C772 C771 1.383 . S
C772 C773 1.377 . S
C773 H757 0.930 . S
C773 C772 1.377 . S
C773 C774 1.379 . S
C774 H758 0.931 . S
C774 C768 1.383 . S
C774 C773 1.379 . S
H775 C769 0.959 . S
H776 C769 0.961 . S
H777 C769 0.960 . S
H778 C770 0.930 . S
H779 C771 0.929 . S
H780 C788 0.929 . S
H781 C790 0.930 . S
H782 C792 0.930 . S
H783 C795 0.929 . S
H784 C798 0.930 . S
H785 C800 0.960 . S
H786 C800 0.960 . S
H787 C800 0.960 . S
C788 H780 0.929 . S
C788 C789 1.377 . S
C788 C790 1.384 . S
C789 C788 1.377 . S
C789 C795 1.390 . S
C790 H781 0.930 . S
C790 C788 1.384 . S
C790 C791 1.372 . S
C791 C790 1.372 . S
C791 C792 1.400 . S
C791 C796 1.490 . S
C792 H782 0.930 . S
C792 C791 1.400 . S
C792 C795 1.386 . S
H793 C809 0.930 . S
H794 C810 0.931 . S
C795 H783 0.929 . S
C795 C789 1.390 . S
C795 C792 1.386 . S
C796 C791 1.490 . S
C796 C798 1.395 . S
C796 C799 1.403 . S
H797 C803 0.930 . S
C798 H784 0.930 . S
C798 C796 1.395 . S
C798 C801 1.403 . S
C799 C796 1.403 . S
C799 C800 1.524 . S
C799 C803 1.400 . S
C800 H785 0.960 . S
C800 H786 0.960 . S
C800 H787 0.960 . S
C800 C799 1.524 . S
C801 C798 1.403 . S
C801 C802 1.392 . S
C801 C805 1.495 . S
C802 C801 1.392 . S
C802 C803 1.385 . S
C802 C804 1.478 . S
C803 H797 0.930 . S
C803 C799 1.400 . S
C803 C802 1.385 . S
C804 C802 1.478 . S
C804 C806 1.381 . S
C804 C810 1.383 . S
C805 C801 1.495 . S
C805 H811 0.959 . S
C805 H812 0.961 . S
C805 H813 0.960 . S
C806 C804 1.381 . S
C806 C807 1.394 . S
C806 H814 0.930 . S
C807 C806 1.394 . S
C807 C808 1.383 . S
C807 H815 0.929 . S
C808 C807 1.383 . S
C808 C809 1.377 . S
C809 H793 0.930 . S
C809 C808 1.377 . S
C809 C810 1.379 . S
C810 H794 0.931 . S
C810 C804 1.383 . S
C810 C809 1.379 . S
H811 C805 0.959 . S
H812 C805 0.961 . S
H813 C805 0.960 . S
H814 C806 0.930 . S
H815 C807 0.929 . S
H816 C824 0.929 . S
H817 C826 0.930 . S
H818 C828 0.930 . S
H819 C831 0.929 . S
H820 C834 0.930 . S
H821 C836 0.960 . S
H822 C836 0.960 . S
H823 C836 0.960 . S
C824 H816 0.929 . S
C824 C825 1.377 . S
C824 C826 1.384 . S
C825 C824 1.377 . S
C825 C831 1.390 . S
C826 H817 0.930 . S
C826 C824 1.384 . S
C826 C827 1.372 . S
C827 C826 1.372 . S
C827 C828 1.400 . S
C827 C832 1.490 . S
C828 H818 0.930 . S
C828 C827 1.400 . S
C828 C831 1.386 . S
H829 C845 0.930 . S
H830 C846 0.931 . S
C831 H819 0.929 . S
C831 C825 1.390 . S
C831 C828 1.386 . S
C832 C827 1.490 . S
C832 C834 1.395 . S
C832 C835 1.403 . S
H833 C839 0.930 . S
C834 H820 0.930 . S
C834 C832 1.395 . S
C834 C837 1.403 . S
C835 C832 1.403 . S
C835 C836 1.524 . S
C835 C839 1.400 . S
C836 H821 0.960 . S
C836 H822 0.960 . S
C836 H823 0.960 . S
C836 C835 1.524 . S
C837 C834 1.403 . S
C837 C838 1.392 . S
C837 C841 1.495 . S
C838 C837 1.392 . S
C838 C839 1.385 . S
C838 C840 1.478 . S
C839 H833 0.930 . S
C839 C835 1.400 . S
C839 C838 1.385 . S
C840 C838 1.478 . S
C840 C842 1.381 . S
C840 C846 1.383 . S
C841 C837 1.495 . S
C841 H847 0.959 . S
C841 H848 0.961 . S
C841 H849 0.960 . S
C842 C840 1.381 . S
C842 C843 1.394 . S
C842 H850 0.930 . S
C843 C842 1.394 . S
C843 C844 1.383 . S
C843 H851 0.929 . S
C844 C843 1.383 . S
C844 C845 1.377 . S
C845 H829 0.930 . S
C845 C844 1.377 . S
C845 C846 1.379 . S
C846 H830 0.931 . S
C846 C840 1.383 . S
C846 C845 1.379 . S
H847 C841 0.959 . S
H848 C841 0.961 . S
H849 C841 0.960 . S
H850 C842 0.930 . S
H851 C843 0.929 . S
H852 C860 0.929 . S
H853 C862 0.930 . S
H854 C864 0.930 . S
H855 C867 0.929 . S
H856 C870 0.930 . S
H857 C872 0.960 . S
H858 C872 0.960 . S
H859 C872 0.960 . S
C860 H852 0.929 . S
C860 C861 1.377 . S
C860 C862 1.384 . S
C861 C860 1.377 . S
C861 C867 1.390 . S
C862 H853 0.930 . S
C862 C860 1.384 . S
C862 C863 1.372 . S
C863 C862 1.372 . S
C863 C864 1.400 . S
C863 C868 1.490 . S
C864 H854 0.930 . S
C864 C863 1.400 . S
C864 C867 1.386 . S
H865 C881 0.930 . S
H866 C882 0.931 . S
C867 H855 0.929 . S
C867 C861 1.390 . S
C867 C864 1.386 . S
C868 C863 1.490 . S
C868 C870 1.395 . S
C868 C871 1.403 1_655 S
H869 C875 0.930 . S
C870 H856 0.930 . S
C870 C868 1.395 . S
C870 C873 1.403 . S
C871 C868 1.403 1_455 S
C871 C872 1.524 . S
C871 C875 1.400 . S
C872 H857 0.960 . S
C872 H858 0.960 . S
C872 H859 0.960 . S
C872 C871 1.524 . S
C873 C870 1.403 . S
C873 C874 1.392 1_655 S
C873 C877 1.495 . S
C874 C873 1.392 1_455 S
C874 C875 1.385 . S
C874 C876 1.478 . S
C875 H869 0.930 . S
C875 C871 1.400 . S
C875 C874 1.385 . S
C876 C874 1.478 . S
C876 C878 1.381 . S
C876 C882 1.383 . S
C877 C873 1.495 . S
C877 H883 0.959 . S
C877 H884 0.961 . S
C877 H885 0.960 . S
C878 C876 1.381 . S
C878 C879 1.394 . S
C878 H886 0.930 . S
C879 C878 1.394 . S
C879 C880 1.383 . S
C879 H887 0.929 . S
C880 C879 1.383 . S
C880 C881 1.377 . S
C881 H865 0.930 . S
C881 C880 1.377 . S
C881 C882 1.379 . S
C882 H866 0.931 . S
C882 C876 1.383 . S
C882 C881 1.379 . S
H883 C877 0.959 . S
H884 C877 0.961 . S
H885 C877 0.960 . S
H886 C878 0.930 . S
H887 C879 0.929 . S
H888 C896 0.929 . S
H889 C898 0.930 . S
H890 C900 0.930 . S
H891 C903 0.929 . S
H892 C906 0.930 . S
H893 C908 0.960 . S
H894 C908 0.960 . S
H895 C908 0.960 . S
C896 H888 0.929 . S
C896 C897 1.377 . S
C896 C898 1.384 . S
C897 C896 1.377 . S
C897 C903 1.390 . S
C898 H889 0.930 . S
C898 C896 1.384 . S
C898 C899 1.372 . S
C899 C898 1.372 . S
C899 C900 1.400 . S
C899 C904 1.490 . S
C900 H890 0.930 . S
C900 C899 1.400 . S
C900 C903 1.386 . S
H901 C917 0.930 . S
H902 C918 0.931 . S
C903 H891 0.929 . S
C903 C897 1.390 . S
C903 C900 1.386 . S
C904 C899 1.490 . S
C904 C906 1.395 1_545 S
C904 C907 1.403 . S
H905 C911 0.930 . S
C906 H892 0.930 . S
C906 C904 1.395 1_565 S
C906 C909 1.403 . S
C907 C904 1.403 . S
C907 C908 1.524 . S
C907 C911 1.400 . S
C908 H893 0.960 . S
C908 H894 0.960 . S
C908 H895 0.960 . S
C908 C907 1.524 . S
C909 C906 1.403 . S
C909 C910 1.392 . S
C909 C913 1.495 . S
C910 C909 1.392 . S
C910 C911 1.385 1_565 S
C910 C912 1.478 . S
C911 H905 0.930 . S
C911 C907 1.400 . S
C911 C910 1.385 1_545 S
C912 C910 1.478 . S
C912 C914 1.381 . S
C912 C918 1.383 . S
C913 C909 1.495 . S
C913 H919 0.959 . S
C913 H920 0.961 . S
C913 H921 0.960 . S
C914 C912 1.381 . S
C914 C915 1.394 . S
C914 H922 0.930 . S
C915 C914 1.394 . S
C915 C916 1.383 . S
C915 H923 0.929 . S
C916 C915 1.383 . S
C916 C917 1.377 . S
C917 H901 0.930 . S
C917 C916 1.377 . S
C917 C918 1.379 . S
C918 H902 0.931 . S
C918 C912 1.383 . S
C918 C917 1.379 . S
H919 C913 0.959 . S
H920 C913 0.961 . S
H921 C913 0.960 . S
H922 C914 0.930 . S
H923 C915 0.929 . S
H924 C932 0.929 . S
H925 C934 0.930 . S
H926 C936 0.930 . S
H927 C939 0.929 . S
H928 C942 0.930 . S
H929 C944 0.960 . S
H930 C944 0.960 . S
H931 C944 0.960 . S
C932 H924 0.929 . S
C932 C933 1.377 . S
C932 C934 1.384 . S
C933 C932 1.377 . S
C933 C939 1.390 . S
C934 H925 0.930 . S
C934 C932 1.384 . S
C934 C935 1.372 . S
C935 C934 1.372 . S
C935 C936 1.400 . S
C935 C940 1.490 . S
C936 H926 0.930 . S
C936 C935 1.400 . S
C936 C939 1.386 . S
H937 C953 0.930 . S
H938 C954 0.931 . S
C939 H927 0.929 . S
C939 C933 1.390 . S
C939 C936 1.386 . S
C940 C935 1.490 . S
C940 C942 1.395 . S
C940 C943 1.403 . S
H941 C947 0.930 . S
C942 H928 0.930 . S
C942 C940 1.395 . S
C942 C945 1.403 . S
C943 C940 1.403 . S
C943 C944 1.524 . S
C943 C947 1.400 . S
C944 H929 0.960 . S
C944 H930 0.960 . S
C944 H931 0.960 . S
C944 C943 1.524 . S
C945 C942 1.403 . S
C945 C946 1.392 . S
C945 C949 1.495 . S
C946 C945 1.392 . S
C946 C947 1.385 . S
C946 C948 1.478 . S
C947 H941 0.930 . S
C947 C943 1.400 . S
C947 C946 1.385 . S
C948 C946 1.478 . S
C948 C950 1.381 . S
C948 C954 1.383 . S
C949 C945 1.495 . S
C949 H955 0.959 . S
C949 H956 0.961 . S
C949 H957 0.960 . S
C950 C948 1.381 . S
C950 C951 1.394 . S
C950 H958 0.930 . S
C951 C950 1.394 . S
C951 C952 1.383 . S
C951 H959 0.929 . S
C952 C951 1.383 . S
C952 C953 1.377 . S
C953 H937 0.930 . S
C953 C952 1.377 . S
C953 C954 1.379 . S
C954 H938 0.931 . S
C954 C948 1.383 . S
C954 C953 1.379 . S
H955 C949 0.959 . S
H956 C949 0.961 . S
H957 C949 0.960 . S
H958 C950 0.930 . S
H959 C951 0.929 . S
H960 C968 0.929 . S
H961 C970 0.930 . S
H962 C972 0.946 . S
H963 C975 0.929 . S
H964 C978 0.930 . S
H965 C980 0.960 . S
H966 C980 0.960 1_455 S
H967 C980 0.960 . S
C968 H960 0.929 . S
C968 C969 1.377 . S
C968 C970 1.384 . S
C969 C968 1.377 . S
C969 C975 1.390 . S
C970 H961 0.930 . S
C970 C968 1.384 . S
C970 C971 1.372 . S
C971 C970 1.372 . S
C971 C972 1.400 . S
C971 C976 1.490 . S
C972 H962 0.946 . S
C972 C971 1.400 . S
C972 C975 1.386 . S
H973 C989 0.930 . S
H974 C990 0.931 . S
C975 H963 0.929 . S
C975 C969 1.390 . S
C975 C972 1.386 . S
C976 C971 1.490 . S
C976 C978 1.395 . S
C976 C979 1.403 1_455 S
H977 C983 0.930 . S
C978 H964 0.930 . S
C978 C976 1.395 . S
C978 C981 1.403 . S
C979 C976 1.403 1_655 S
C979 C980 1.524 . S
C979 C983 1.400 . S
C980 H965 0.960 . S
C980 H966 0.960 1_655 S
C980 H967 0.960 . S
C980 C979 1.524 . S
C981 C978 1.403 . S
C981 C982 1.392 1_455 S
C981 C985 1.495 . S
C982 C981 1.392 1_655 S
C982 C983 1.385 . S
C982 C984 1.478 . S
C983 H977 0.930 . S
C983 C979 1.400 . S
C983 C982 1.385 . S
C984 C982 1.478 . S
C984 C986 1.381 . S
C984 C990 1.383 . S
C985 C981 1.495 . S
C985 H991 0.959 . S
C985 H992 0.961 1_455 S
C985 H993 0.960 . S
C986 C984 1.381 . S
C986 C987 1.394 . S
C986 H994 0.930 1_655 S
C987 C986 1.394 . S
C987 C988 1.383 . S
C987 H995 0.929 . S
C988 C987 1.383 . S
C988 C989 1.377 . S
C989 H973 0.930 . S
C989 C988 1.377 . S
C989 C990 1.379 . S
C990 H974 0.931 . S
C990 C984 1.383 . S
C990 C989 1.379 . S
H991 C985 0.959 . S
H992 C985 0.961 1_655 S
H993 C985 0.960 . S
H994 C986 0.930 1_455 S
H995 C987 0.929 . S
H996 C1004 0.929 . S
H997 C1006 0.930 . S
H998 C1008 0.930 . S
H999 C1011 0.929 . S
H1000 C1014 0.930 . S
H1001 C1016 0.960 . S
H1002 C1016 0.960 . S
H1003 C1016 0.960 . S
C1004 H996 0.929 . S
C1004 C1005 1.377 . S
C1004 C1006 1.384 . S
C1005 C1004 1.377 . S
C1005 C1011 1.390 . S
C1006 H997 0.930 . S
C1006 C1004 1.384 . S
C1006 C1007 1.372 . S
C1007 C1006 1.372 . S
C1007 C1008 1.400 . S
C1007 C1012 1.490 . S
C1008 H998 0.930 . S
C1008 C1007 1.400 . S
C1008 C1011 1.386 . S
H1009 C1025 0.930 . S
H1010 C1026 0.931 . S
C1011 H999 0.929 . S
C1011 C1005 1.390 . S
C1011 C1008 1.386 . S
C1012 C1007 1.490 . S
C1012 C1014 1.395 . S
C1012 C1015 1.403 . S
H1013 C1019 0.930 . S
C1014 H1000 0.930 . S
C1014 C1012 1.395 . S
C1014 C1017 1.403 1_565 S
C1015 C1012 1.403 . S
C1015 C1016 1.524 . S
C1015 C1019 1.400 1_565 S
C1016 H1001 0.960 . S
C1016 H1002 0.960 . S
C1016 H1003 0.960 . S
C1016 C1015 1.524 . S
C1017 C1014 1.403 1_545 S
C1017 C1018 1.392 . S
C1017 C1021 1.495 . S
C1018 C1017 1.392 . S
C1018 C1019 1.385 . S
C1018 C1020 1.478 . S
C1019 H1013 0.930 . S
C1019 C1015 1.400 1_545 S
C1019 C1018 1.385 . S
C1020 C1018 1.478 . S
C1020 C1022 1.381 . S
C1020 C1026 1.383 . S
C1021 C1017 1.495 . S
C1021 H1027 0.959 . S
C1021 H1028 0.961 . S
C1021 H1029 0.960 . S
C1022 C1020 1.381 . S
C1022 C1023 1.394 . S
C1022 H1030 0.930 . S
C1023 C1022 1.394 . S
C1023 C1024 1.383 . S
C1023 H1031 0.929 . S
C1024 C1023 1.383 . S
C1024 C1025 1.377 . S
C1025 H1009 0.930 . S
C1025 C1024 1.377 . S
C1025 C1026 1.379 . S
C1026 H1010 0.931 . S
C1026 C1020 1.383 . S
C1026 C1025 1.379 . S
H1027 C1021 0.959 . S
H1028 C1021 0.961 . S
H1029 C1021 0.960 . S
H1030 C1022 0.930 . S
H1031 C1023 0.929 . S
C177 C98 1.252 . S
C196 C0 1.270 . S
C213 C14 1.253 . S
C232 C112 1.271 . S
C249 C28 1.247 . S
C268 C126 1.223 . S
C285 C42 1.246 . S
C304 C140 1.222 . S
C321 C154 1.253 . S
C340 C56 1.271 . S
C357 C84 1.247 . S
C376 C70 1.222 . S
C393 C145 1.377 . S
C412 C5 1.374 . S
C429 C19 1.375 . S
C448 C159 1.365 . S
C465 C33 1.379 . S
C484 C89 1.383 . S
C501 C103 1.377 . S
C520 C47 1.373 . S
C537 C117 1.379 . S
C556 C61 1.383 . S
C573 C131 1.379 . S
C592 C75 1.382 . S
C609 C11 1.756 . S
C628 C123 1.760 . S
C645 C25 1.751 . S
C664 C137 1.743 . S
C681 C151 1.753 . S
C700 C39 1.736 . S
C717 C53 1.755 . S
C736 C165 1.741 . S
C753 C95 1.751 . S
C772 C67 1.745 . S
C789 C109 1.755 . S
C808 C81 1.763 . S
C825 C51 1.273 . S
C844 C9 1.253 . S
C861 C65 1.266 . S
C880 C23 1.291 . S
C897 C37 1.269 . S
C916 C79 1.239 . S
C933 C93 1.270 . S
C952 C135 1.239 . S
C969 C107 1.262 . S
C988 C149 1.287 . S
C1005 C163 1.263 . S
C1024 C121 1.270 . S
