# Generated by pormake.
# Topology umb, (4)-cn, num edge types: 1
# Building blocks:
#     Node 0, Type 0, BuildingBlock: ESEHIV_clean_sbu_0, # of connection points: 4
#     Node 1, Type 0, BuildingBlock: ESEHIV_clean_sbu_0, # of connection points: 4
#     Node 2, Type 0, BuildingBlock: ESEHIV_clean_sbu_0, # of connection points: 4
#     Node 3, Type 0, BuildingBlock: ESEHIV_clean_sbu_0, # of connection points: 4
#     Node 4, Type 0, BuildingBlock: ESEHIV_clean_sbu_0, # of connection points: 4
#     Node 5, Type 0, BuildingBlock: ESEHIV_clean_sbu_0, # of connection points: 4
#     Node 6, Type 0, BuildingBlock: ESEHIV_clean_sbu_0, # of connection points: 4
#     Node 7, Type 0, BuildingBlock: ESEHIV_clean_sbu_0, # of connection points: 4
#     Node 8, Type 0, BuildingBlock: ESEHIV_clean_sbu_0, # of connection points: 4
#     Node 9, Type 0, BuildingBlock: ESEHIV_clean_sbu_0, # of connection points: 4
#     Node 10, Type 0, BuildingBlock: ESEHIV_clean_sbu_0, # of connection points: 4
#     Node 11, Type 0, BuildingBlock: ESEHIV_clean_sbu_0, # of connection points: 4
#     Edge 12, Type (0, 0), BuildingBlock: CIFDUS_clean_linker_0, # of connection points: 2
#     Edge 13, Type (0, 0), BuildingBlock: CIFDUS_clean_linker_0, # of connection points: 2
#     Edge 14, Type (0, 0), BuildingBlock: CIFDUS_clean_linker_0, # of connection points: 2
#     Edge 15, Type (0, 0), BuildingBlock: CIFDUS_clean_linker_0, # of connection points: 2
#     Edge 16, Type (0, 0), BuildingBlock: CIFDUS_clean_linker_0, # of connection points: 2
#     Edge 17, Type (0, 0), BuildingBlock: CIFDUS_clean_linker_0, # of connection points: 2
#     Edge 18, Type (0, 0), BuildingBlock: CIFDUS_clean_linker_0, # of connection points: 2
#     Edge 19, Type (0, 0), BuildingBlock: CIFDUS_clean_linker_0, # of connection points: 2
#     Edge 20, Type (0, 0), BuildingBlock: CIFDUS_clean_linker_0, # of connection points: 2
#     Edge 21, Type (0, 0), BuildingBlock: CIFDUS_clean_linker_0, # of connection points: 2
#     Edge 22, Type (0, 0), BuildingBlock: CIFDUS_clean_linker_0, # of connection points: 2
#     Edge 23, Type (0, 0), BuildingBlock: CIFDUS_clean_linker_0, # of connection points: 2
#     Edge 24, Type (0, 0), BuildingBlock: CIFDUS_clean_linker_0, # of connection points: 2
#     Edge 25, Type (0, 0), BuildingBlock: CIFDUS_clean_linker_0, # of connection points: 2
#     Edge 26, Type (0, 0), BuildingBlock: CIFDUS_clean_linker_0, # of connection points: 2
#     Edge 27, Type (0, 0), BuildingBlock: CIFDUS_clean_linker_0, # of connection points: 2
#     Edge 28, Type (0, 0), BuildingBlock: CIFDUS_clean_linker_0, # of connection points: 2
#     Edge 29, Type (0, 0), BuildingBlock: CIFDUS_clean_linker_0, # of connection points: 2
#     Edge 30, Type (0, 0), BuildingBlock: CIFDUS_clean_linker_0, # of connection points: 2
#     Edge 31, Type (0, 0), BuildingBlock: CIFDUS_clean_linker_0, # of connection points: 2
#     Edge 32, Type (0, 0), BuildingBlock: CIFDUS_clean_linker_0, # of connection points: 2
#     Edge 33, Type (0, 0), BuildingBlock: CIFDUS_clean_linker_0, # of connection points: 2
#     Edge 34, Type (0, 0), BuildingBlock: CIFDUS_clean_linker_0, # of connection points: 2
#     Edge 35, Type (0, 0), BuildingBlock: CIFDUS_clean_linker_0, # of connection points: 2
# Relax obj value: 0.179
# Max RMSD: 0.164
# Mean RMSD: 0.147
data_MOF--net-umb--node1-ESEHIV_clean_sbu_0--edge1-CIFDUS_clean_linker_0
_symmetry_space_group_name_H-M    P1
_symmetry_Int_Tables_number       1
_symmetry_cell_setting            triclinic
loop_
_symmetry_equiv_pos_as_xyz
'x, y, z'
_cell_length_a     44.854241
_cell_length_b     48.542581
_cell_length_c     35.068439
_cell_angle_alpha  90.432444
_cell_angle_beta   89.508419
_cell_angle_gamma 117.78491
loop_
_atom_site_label
_atom_site_type_symbol
_atom_site_fract_x
_atom_site_fract_y
_atom_site_fract_z
_atom_type_partial_charge
Cu0 Cu 0.58186 0.1892 0.34549 0.0
N1 N 0.62103 0.22653 0.33873 0.0
N2 N 0.65106 0.27733 0.32722 0.0
C3 C 0.62076 0.25403 0.33706 0.0
C4 C 0.67142 0.26402 0.32278 0.0
C5 C 0.65275 0.23253 0.32994 0.0
O6 O 0.54884 0.196 0.31629 0.0
C7 C 0.59632 0.18502 0.42191 0.0
O8 O 0.62585 0.1922 0.40659 0.0
H9 H 0.5983 0.25664 0.34165 0.0
H10 H 0.66155 0.21527 0.32823 0.0
N11 N 0.58657 0.15559 0.32545 0.0
N12 N 0.57822 0.10683 0.31627 0.0
C13 C 0.56922 0.12568 0.33647 0.0
C14 C 0.60732 0.15576 0.29741 0.0
C15 C 0.60221 0.1258 0.29165 0.0
C16 C 0.55645 0.20213 0.2811 0.0
O17 O 0.5818 0.19867 0.2673 0.0
H18 H 0.55063 0.11806 0.35915 0.0
H19 H 0.62472 0.17616 0.28185 0.0
O20 O 0.57246 0.18255 0.4002 0.0
H21 H 0.69787 0.27616 0.31516 0.0
H22 H 0.6148 0.11857 0.2704 0.0
Cu23 Cu 0.38371 0.57323 0.69938 0.0
N24 N 0.42185 0.60662 0.67915 0.0
N25 N 0.46086 0.65594 0.67163 0.0
C26 C 0.43505 0.63567 0.69311 0.0
C27 C 0.46389 0.63911 0.6425 0.0
C28 C 0.43991 0.60844 0.64749 0.0
O29 O 0.34497 0.57051 0.67198 0.0
C30 C 0.40974 0.59006 0.77245 0.0
O31 O 0.43655 0.59197 0.75469 0.0
H32 H 0.42454 0.64215 0.71737 0.0
H33 H 0.43518 0.58913 0.62861 0.0
N34 N 0.38691 0.53689 0.69195 0.0
N35 N 0.40974 0.50566 0.67992 0.0
C36 C 0.41563 0.53505 0.68731 0.0
C37 C 0.36183 0.50772 0.68769 0.0
C38 C 0.37588 0.48828 0.68034 0.0
C39 C 0.34322 0.56442 0.63641 0.0
O40 O 0.36656 0.55887 0.62064 0.0
H41 H 0.44036 0.55497 0.6893 0.0
H42 H 0.33527 0.50122 0.68903 0.0
O43 O 0.38243 0.58105 0.75387 0.0
H44 H 0.48123 0.64849 0.61873 0.0
H45 H 0.36225 0.46351 0.67475 0.0
Cu46 Cu 0.83268 0.37564 1.02544 0.0
N47 N 0.83269 0.36197 0.07511 0.0
N48 N 0.8369 0.3657 0.13872 0.0
C49 C 0.84598 0.38107 0.10522 0.0
C50 C 0.81705 0.33559 0.12927 0.0
C51 C 0.8145 0.33336 0.08995 0.0
O52 O 0.87912 0.40334 1.0104 0.0
C53 C 0.78919 0.40094 1.0014 0.0
O54 O 0.79454 0.39462 0.96629 0.0
H55 H 0.86006 0.40612 0.10269 0.0
H56 H 0.79899 0.3127 0.07351 0.0
N57 N 0.81484 0.34206 0.99081 0.0
N58 N 0.78219 0.30694 0.94736 0.0
C59 C 0.78398 0.32756 0.9747 0.0
C60 C 0.83288 0.32985 0.9735 0.0
C61 C 0.81294 0.30828 0.94682 0.0
C62 C 0.89583 0.43181 1.02024 0.0
O63 O 0.88095 0.44472 0.04066 0.0
H64 H 0.7637 0.33287 0.98182 0.0
H65 H 0.85911 0.33685 0.97919 0.0
O66 O 0.80466 0.39625 1.02871 0.0
H67 H 0.80442 0.31674 0.14931 0.0
H68 H 0.82064 0.2948 0.92828 0.0
Cu69 Cu 0.45597 0.84163 0.34376 0.0
N70 N 0.41904 0.84874 0.33706 0.0
N71 N 0.36374 0.8332 0.33728 0.0
C72 C 0.38857 0.82657 0.32624 0.0
C73 C 0.37941 0.86121 0.35471 0.0
C74 C 0.41354 0.87072 0.3546 0.0
O75 O 0.4506 0.80717 0.3104 0.0
C76 C 0.43013 0.81689 0.41724 0.0
O77 O 0.40134 0.8019 0.39929 0.0
H78 H 0.38425 0.80379 0.31643 0.0
H79 H 0.43228 0.89008 0.37063 0.0
N80 N 0.49545 0.87766 0.33165 0.0
N81 N 0.53115 0.92786 0.32116 0.0
C82 C 0.49858 0.90618 0.32497 0.0
C83 C 0.52708 0.88133 0.33178 0.0
C84 C 0.54915 0.91223 0.32521 0.0
C85 C 0.46855 0.79323 0.31231 0.0
O86 O 0.49163 0.8015 0.33889 0.0
H87 H 0.47743 0.911 0.32338 0.0
H88 H 0.53372 0.86305 0.33762 0.0
O89 O 0.45688 0.83315 0.39801 0.0
H90 H 0.36683 0.87204 0.37062 0.0
H91 H 0.57637 0.92254 0.32508 0.0
Cu92 Cu 0.60798 0.42485 0.67386 0.0
N93 N 0.57232 0.38628 0.66258 0.0
N94 N 0.53445 0.33655 0.66996 0.0
C95 C 0.55942 0.3619 0.68634 0.0
C96 C 0.53147 0.34538 0.63439 0.0
C97 C 0.55474 0.37631 0.63003 0.0
O98 O 0.64866 0.42803 0.6503 0.0
C99 C 0.62202 0.41701 0.75121 0.0
O100 O 0.64077 0.40516 0.73702 0.0
H101 H 0.56952 0.36221 0.71434 0.0
H102 H 0.55927 0.39028 0.60466 0.0
N103 N 0.59805 0.4546 0.65352 0.0
N104 N 0.56853 0.47987 0.64191 0.0
C105 C 0.57081 0.4578 0.66293 0.0
C106 C 0.6138 0.47532 0.62561 0.0
C107 C 0.59566 0.49114 0.61848 0.0
C108 C 0.67678 0.45249 0.65306 0.0
O109 O 0.67909 0.47512 0.67564 0.0
H110 H 0.55299 0.44402 0.68476 0.0
H111 H 0.6364 0.47823 0.61098 0.0
O112 O 0.60862 0.42854 0.7289 0.0
H113 H 0.51461 0.33029 0.61271 0.0
H114 H 0.60147 0.5089 0.59707 0.0
Cu115 Cu 0.16038 0.59666 1.00827 0.0
N116 N 0.17269 0.62085 0.05243 0.0
N117 N 0.17897 0.62625 0.11571 0.0
C118 C 0.16027 0.6083 0.08668 0.0
C119 C 0.2042 0.65137 0.09901 0.0
C120 C 0.20032 0.64792 0.05988 0.0
O121 O 0.11135 0.57277 1.00972 0.0
C122 C 0.20882 0.57388 1.00065 0.0
O123 O 0.22017 0.5913 0.97013 0.0
H124 H 0.13981 0.58493 0.09002 0.0
H125 H 0.21789 0.66283 1.03861 0.0
N126 N 0.17438 0.62065 0.9635 0.0
N127 N 0.20435 0.65583 0.91875 0.0
C128 C 0.20458 0.64462 0.95402 0.0
C129 C 0.15444 0.61671 0.93337 0.0
C130 C 0.17269 0.63823 0.90588 0.0
C131 C 0.09421 0.54512 0.99715 0.0
O132 O 0.10987 0.53105 0.98074 0.0
H133 H 0.22638 0.65322 0.97234 0.0
H134 H 0.12825 0.59939 0.93165 0.0
O135 O 0.18145 0.57017 1.01611 0.0
H136 H 0.22487 0.67007 0.11385 0.0
H137 H 0.16305 0.64096 0.87878 0.0
Cu138 Cu 0.81341 0.46455 0.3985 0.0
N139 N 0.78877 0.47732 0.36784 0.0
N140 N 0.74758 0.45514 0.32503 0.0
C141 C 0.75682 0.45593 0.36169 0.0
C142 C 0.77422 0.47889 0.3081 0.0
C143 C 0.79962 0.49254 0.33458 0.0
O144 O 0.7887 0.44883 0.44602 0.0
C145 C 0.83713 0.44097 0.33977 0.0
O146 O 0.85786 0.47079 0.3359 0.0
H147 H 0.74392 0.43656 0.38103 0.0
H148 H 0.82575 0.508 0.32792 0.0
N149 N 0.85626 0.49641 0.40838 0.0
N150 N 0.91078 0.51914 0.4227 0.0
C151 C 0.88197 0.49215 0.42095 0.0
C152 C 0.86896 0.52716 0.40229 0.0
C153 C 0.9028 0.54131 0.411 0.0
C154 C 0.79215 0.46792 0.47284 0.0
O155 O 0.81337 0.49754 0.46819 0.0
H156 H 0.8799 0.46944 0.4267 0.0
H157 H 0.85483 0.53833 0.39137 0.0
O158 O 0.81654 0.4322 0.36784 0.0
H159 H 0.77725 0.48268 0.27761 0.0
H160 H 0.92027 0.56583 0.40821 0.0
Cu161 Cu 0.37844 0.81949 0.71776 0.0
N162 N 0.41671 0.81756 0.73428 0.0
N163 N 0.45666 0.80266 0.73694 0.0
C164 C 0.4292 0.79987 0.71843 0.0
C165 C 0.46152 0.82267 0.76595 0.0
C166 C 0.43694 0.83215 0.76397 0.0
O167 O 0.33929 0.78742 0.74448 0.0
C168 C 0.40146 0.82651 0.64168 0.0
O169 O 0.42981 0.84638 0.65774 0.0
H170 H 0.41747 0.7842 0.69469 0.0
H171 H 0.43357 0.84798 0.78328 0.0
N172 N 0.384 0.85916 0.72875 0.0
N173 N 0.41023 0.91067 0.73808 0.0
C174 C 0.41331 0.88556 0.72637 0.0
C175 C 0.36136 0.86767 0.74231 0.0
C176 C 0.37746 0.89951 0.74801 0.0
C177 C 0.33846 0.7858 0.7808 0.0
O178 O 0.36371 0.807 0.80028 0.0
H179 H 0.43648 0.88618 0.71635 0.0
H180 H 0.3352 0.85177 0.74829 0.0
O181 O 0.37522 0.81249 0.66253 0.0
H182 H 0.48087 0.82932 0.78743 0.0
H183 H 0.36609 0.91317 0.75952 0.0
Cu184 Cu 0.55202 0.38585 0.06782 0.0
N185 N 0.53408 0.37773 1.01863 0.0
N186 N 0.53332 0.37972 0.95503 0.0
C187 C 0.55243 0.38906 0.98661 0.0
C188 C 0.50147 0.36212 0.96764 0.0
C189 C 0.50204 0.36085 1.00701 0.0
O190 O 0.54322 0.41843 0.0895 0.0
C191 C 0.60515 0.37798 0.0414 0.0
O192 O 0.57937 0.35183 1.03047 0.0
H193 H 0.57934 0.40427 0.98651 0.0
H194 H 0.48068 0.34853 1.02579 0.0
N195 N 0.53121 0.3505 0.09889 0.0
N196 N 0.52394 0.31121 0.13742 0.0
C197 C 0.54549 0.33415 0.11427 0.0
C198 C 0.49958 0.33756 0.11293 0.0
C199 C 0.49502 0.31334 0.13674 0.0
C200 C 0.54783 0.44237 0.07049 0.0
O201 O 0.56278 0.44717 1.03703 0.0
H202 H 0.57149 0.33953 0.10942 0.0
H203 H 0.48128 0.34551 0.10668 0.0
O204 O 0.59963 0.39724 0.06132 0.0
H205 H 0.47949 0.35062 0.9497 0.0
H206 H 0.47217 0.29838 0.15212 0.0
Cu207 Cu 0.1992 0.59314 0.4129 0.0
N208 N 0.20628 0.63244 0.42813 0.0
N209 N 0.22404 0.68359 0.4259 0.0
C210 C 0.22439 0.65881 0.40867 0.0
C211 C 0.20501 0.67235 0.4576 0.0
C212 C 0.19383 0.64064 0.45873 0.0
O213 O 0.22877 0.58216 0.44196 0.0
C214 C 0.18459 0.58337 0.33339 0.0
O215 O 0.15406 0.56405 0.34505 0.0
H216 H 0.23812 0.65983 0.38273 0.0
H217 H 0.17758 0.62468 0.48017 0.0
N218 N 0.15447 0.56571 0.4235 0.0
N219 N 0.09901 0.54831 0.4274 0.0
C220 C 0.12918 0.57298 0.42047 0.0
C221 C 0.14007 0.53546 0.43324 0.0
C222 C 0.10566 0.52462 0.43575 0.0
C223 C 0.22448 0.57904 0.47794 0.0
O224 O 0.19958 0.58224 0.49366 0.0
H225 H 0.13295 0.59587 0.41249 0.0
H226 H 0.15355 0.52215 0.43727 0.0
O227 O 0.20806 0.59605 0.35785 0.0
H228 H 0.19951 0.68601 0.47833 0.0
H229 H 0.08699 0.50093 0.44182 0.0
Cu230 Cu 0.61441 0.16527 0.72577 0.0
N231 N 0.57661 0.1708 0.73483 0.0
N232 N 0.53855 0.18714 0.72475 0.0
C233 C 0.56768 0.18825 0.71298 0.0
C234 C 0.52884 0.16874 0.75578 0.0
C235 C 0.55226 0.15821 0.76161 0.0
O236 O 0.65233 0.19479 0.7567 0.0
C237 C 0.60015 0.15848 0.64698 0.0
O238 O 0.56986 0.13932 0.65964 0.0
H239 H 0.58257 0.20193 0.68912 0.0
H240 H 0.55164 0.14257 0.78378 0.0
N241 N 0.60425 0.12477 0.73888 0.0
N242 N 0.57553 0.07331 0.74737 0.0
C243 C 0.57473 0.09893 0.73377 0.0
C244 C 0.62446 0.11537 0.75638 0.0
C245 C 0.60685 0.08362 0.7616 0.0
C246 C 0.64829 0.20041 0.79147 0.0
O247 O 0.618 0.18625 0.80663 0.0
H248 H 0.55323 0.09899 0.72013 0.0
H249 H 0.65008 0.13061 0.76502 0.0
O250 O 0.62409 0.17161 0.67092 0.0
H251 H 0.50656 0.16337 0.77279 0.0
H252 H 0.61627 0.06939 0.77543 0.0
Cu253 Cu 0.44313 0.602 0.08771 0.0
N254 N 0.45623 0.6302 0.04766 0.0
N255 N 0.45943 0.6445 0.98673 0.0
C256 C 0.44326 0.62184 1.01252 0.0
C257 C 0.48366 0.66825 1.00657 0.0
C258 C 0.48156 0.65936 0.04433 0.0
O259 O 0.46769 0.57814 0.08059 0.0
C260 C 0.37254 0.58155 0.09248 0.0
O261 O 0.38021 0.6026 0.11951 0.0
H262 H 0.42383 0.59866 1.00553 0.0
H263 H 0.49824 0.67258 0.06721 0.0
N264 N 0.45304 0.62144 0.1359 0.0
N265 N 0.46504 0.65488 0.18484 0.0
C266 C 0.45471 0.64866 0.14811 0.0
C267 C 0.46242 0.61027 0.16593 0.0
C268 C 0.46979 0.63068 0.19595 0.0
C269 C 0.46031 0.55225 0.09651 0.0
O270 O 0.43425 0.53987 0.11971 0.0
H271 H 0.44942 0.66393 0.13024 0.0
H272 H 0.46437 0.58892 0.16585 0.0
O273 O 0.39538 0.57571 0.07893 0.0
H274 H 0.50227 0.69002 0.99447 0.0
H275 H 0.47811 0.62796 0.2239 0.0
H276 H 0.64442 0.19758 0.47565 0.0
H277 H 0.53682 0.15911 0.46219 0.0
H278 H 0.52871 0.14736 0.5304 0.0
H279 H 0.5521 0.14721 0.5936 0.0
H280 H 0.65981 0.18711 0.60738 0.0
H281 H 0.66792 0.19907 0.53922 0.0
C282 C 0.61915 0.18665 0.48757 0.0
C283 C 0.59123 0.1791 0.46364 0.0
C284 C 0.6147 0.18012 0.52686 0.0
C285 C 0.55874 0.1652 0.47981 0.0
C286 C 0.5541 0.15839 0.51884 0.0
C287 C 0.57739 0.15842 0.58172 0.0
C288 C 0.60533 0.16598 0.60562 0.0
C289 C 0.58187 0.16557 0.54258 0.0
C290 C 0.63788 0.18095 0.58973 0.0
C291 C 0.64252 0.18778 0.55072 0.0
H292 H 0.46608 0.62986 0.80979 0.0
H293 H 0.35922 0.57207 0.82588 0.0
H294 H 0.36491 0.58551 0.89392 0.0
H295 H 0.40106 0.61143 0.94934 0.0
H296 H 0.50766 0.66985 0.93233 0.0
H297 H 0.50121 0.65895 0.86392 0.0
C298 C 0.444 0.62022 0.82817 0.0
C299 C 0.41234 0.5996 0.81299 0.0
C300 C 0.44744 0.62831 0.867 0.0
C301 C 0.38387 0.58786 0.83696 0.0
C302 C 0.38714 0.59551 0.87583 0.0
C303 C 0.42281 0.62188 0.93057 0.0
C304 C 0.45486 0.64123 0.94597 0.0
C305 C 0.4189 0.61536 0.89125 0.0
C306 C 0.48273 0.65508 0.92124 0.0
C307 C 0.47909 0.64862 0.88215 0.0
H308 H 0.88222 0.4516 0.28302 0.0
H309 H 0.78575 0.38222 0.32496 0.0
H310 H 0.77828 0.35098 0.2672 0.0
H311 H 0.7968 0.34634 0.20164 0.0
H312 H 0.89283 0.41697 0.16031 0.0
H313 H 0.90269 0.44485 0.2208 0.0
C314 C 0.85969 0.42945 0.27983 0.0
C315 C 0.83453 0.41939 0.30824 0.0
C316 C 0.85528 0.41204 0.2463 0.0
C317 C 0.80563 0.39049 0.30367 0.0
C318 C 0.80123 0.37274 0.27046 0.0
C319 C 0.82014 0.36751 0.20616 0.0
C320 C 0.84391 0.37974 0.17623 0.0
C321 C 0.82553 0.38367 0.24112 0.0
C322 C 0.8739 0.40736 0.18255 0.0
C323 C 0.87961 0.42326 0.2172 0.0
H324 H 0.37634 0.79227 0.46616 0.0
H325 H 0.48487 0.84558 0.46381 0.0
H326 H 0.48534 0.85266 0.53282 0.0
H327 H 0.45503 0.84579 0.59336 0.0
H328 H 0.34657 0.7927 0.59631 0.0
H329 H 0.34605 0.78353 0.5275 0.0
C330 C 0.40017 0.80516 0.48073 0.0
C331 C 0.43056 0.81841 0.45962 0.0
C332 C 0.40026 0.80944 0.52052 0.0
C333 C 0.46111 0.83513 0.47916 0.0
C334 C 0.4614 0.83929 0.51868 0.0
C335 C 0.43121 0.83219 0.57905 0.0
C336 C 0.40084 0.82018 0.60005 0.0
C337 C 0.43112 0.82694 0.53955 0.0
C338 C 0.37031 0.80233 0.58092 0.0
C339 C 0.37 0.79707 0.54154 0.0
H340 H 0.59249 0.38706 0.92664 0.0
H341 H 0.50046 0.38872 0.89612 0.0
H342 H 0.52085 0.40229 0.83048 0.0
H343 H 0.56454 0.41313 0.78183 0.0
H344 H 0.65538 0.40868 0.81131 0.0
H345 H 0.63603 0.3972 0.87762 0.0
C346 C 0.57704 0.39062 0.90565 0.0
C347 C 0.54506 0.38704 0.91622 0.0
C348 C 0.58881 0.39808 0.86795 0.0
C349 C 0.52501 0.39112 0.88857 0.0
C350 C 0.53676 0.39905 0.85115 0.0
C351 C 0.58032 0.41004 0.80286 0.0
C352 C 0.61158 0.41214 0.7918 0.0
C353 C 0.56861 0.4026 0.84055 0.0
C354 C 0.63134 0.40735 0.81919 0.0
C355 C 0.62024 0.40072 0.85703 0.0
H356 H 0.13713 0.56914 0.279 0.0
H357 H 0.24444 0.62078 0.29687 0.0
H358 H 0.25229 0.63961 0.23104 0.0
H359 H 0.2283 0.64134 0.16826 0.0
H360 H 0.1207 0.59061 0.15242 0.0
H361 H 0.11336 0.57161 0.21772 0.0
C362 C 0.16234 0.58433 0.26856 0.0
C363 C 0.19017 0.59333 0.29288 0.0
C364 C 0.16657 0.59544 0.23105 0.0
C365 C 0.22257 0.61333 0.27876 0.0
C366 C 0.22705 0.62421 0.24115 0.0
C367 C 0.20324 0.6265 0.17928 0.0
C368 C 0.17506 0.61737 0.15536 0.0
C369 C 0.19918 0.61557 0.21707 0.0
C370 C 0.1428 0.59772 0.17003 0.0
C371 C 0.13858 0.58686 0.2074 0.0
H372 H 0.68527 0.41638 0.34812 0.0
H373 H 0.76066 0.42751 0.26418 0.0
H374 H 0.73385 0.37141 0.25377 0.0
H375 H 0.69676 0.31902 0.27912 0.0
H376 H 0.62416 0.30829 0.36679 0.0
H377 H 0.64223 0.36402 0.36571 0.0
C378 C 0.69489 0.40647 0.32646 0.0
C379 C 0.72503 0.42599 0.30743 0.0
C380 C 0.68071 0.37408 0.32254 0.0
C381 C 0.7374 0.4131 0.27921 0.0
C382 C 0.72252 0.38087 0.27388 0.0
C383 C 0.68478 0.32892 0.29771 0.0
C384 C 0.65965 0.30968 0.32351 0.0
C385 C 0.69555 0.36112 0.29721 0.0
C386 C 0.64365 0.32262 0.34677 0.0
C387 C 0.65399 0.35451 0.34621 0.0
H388 H 0.47123 0.78609 0.66931 0.0
H389 H 0.47674 0.77529 0.79041 0.0
H390 H 0.48727 0.73075 0.77954 0.0
H391 H 0.48125 0.68843 0.73624 0.0
H392 H 0.47178 0.69729 0.61548 0.0
H393 H 0.47742 0.74948 0.62506 0.0
C394 C 0.47572 0.77442 0.69314 0.0
C395 C 0.47247 0.78327 0.73054 0.0
C396 C 0.48067 0.74836 0.68661 0.0
C397 C 0.47898 0.76866 0.7614 0.0
C398 C 0.48467 0.74306 0.75517 0.0
C399 C 0.48163 0.70238 0.71204 0.0
C400 C 0.47546 0.68909 0.67539 0.0
C401 C 0.48357 0.7317 0.71802 0.0
C402 C 0.47642 0.70718 0.64394 0.0
C403 C 0.47922 0.73681 0.64949 0.0
H404 H 0.66622 0.41063 0.0764 0.0
H405 H 0.61954 0.36208 0.97256 0.0
H406 H 0.67377 0.36936 0.9483 0.0
H407 H 0.73307 0.38427 0.95924 0.0
H408 H 0.77953 0.4286 0.06511 0.0
H409 H 0.72729 0.4287 0.08566 0.0
C410 C 0.66817 0.40209 0.0483 0.0
C411 C 0.63898 0.38561 1.02645 0.0
C412 C 0.69944 0.40549 1.03493 0.0
C413 C 0.64166 0.37448 0.99013 0.0
C414 C 0.67267 0.37869 0.97616 0.0
C415 C 0.73203 0.39464 0.98641 0.0
C416 C 0.76011 0.40643 1.01057 0.0
C417 C 0.70156 0.39343 0.99868 0.0
C418 C 0.75818 0.41934 0.04599 0.0
C419 C 0.72827 0.41926 0.05784 0.0
H420 H 0.33093 0.82158 0.40413 0.0
H421 H 0.32234 0.79045 0.28755 0.0
H422 H 0.27301 0.74135 0.30433 0.0
H423 H 0.23925 0.70456 0.35412 0.0
H424 H 0.25146 0.73442 0.47162 0.0
H425 H 0.29199 0.78714 0.45262 0.0
C426 C 0.31738 0.80456 0.38217 0.0
C427 C 0.32999 0.80946 0.34463 0.0
C428 C 0.29018 0.77601 0.39245 0.0
C429 C 0.31277 0.787 0.31653 0.0
C430 C 0.2849 0.75893 0.32623 0.0
C431 C 0.25055 0.72273 0.37547 0.0
C432 C 0.24296 0.71551 0.41425 0.0
C433 C 0.27448 0.75266 0.36442 0.0
C434 C 0.25697 0.73939 0.4416 0.0
C435 C 0.2803 0.76948 0.43077 0.0
H436 H 0.52151 0.2848 0.63037 0.0
H437 H 0.51804 0.31902 0.74312 0.0
H438 H 0.51115 0.27033 0.77093 0.0
H439 H 0.51869 0.22345 0.76337 0.0
H440 H 0.52764 0.19215 0.65079 0.0
H441 H 0.51889 0.23365 0.62235 0.0
C442 C 0.51795 0.28109 0.66087 0.0
C443 C 0.52085 0.30551 0.68477 0.0
C444 C 0.51544 0.25365 0.67661 0.0
C445 C 0.51643 0.30058 0.72432 0.0
C446 C 0.51261 0.27284 0.74018 0.0
C447 C 0.51739 0.22516 0.73268 0.0
C448 C 0.52406 0.20526 0.70903 0.0
C449 C 0.51397 0.24996 0.71672 0.0
C450 C 0.52278 0.2076 0.66928 0.0
C451 C 0.51798 0.23136 0.65312 0.0
H452 H 0.26052 0.56403 0.97459 0.0
H453 H 0.21006 0.56892 0.07778 0.0
H454 H 0.25505 0.56877 0.11605 0.0
H455 H 0.31236 0.57417 0.11985 0.0
H456 H 0.36151 0.5664 1.01711 0.0
H457 H 0.31346 0.56038 0.97927 0.0
C458 C 0.25905 0.56434 1.00547 0.0
C459 C 0.23214 0.56676 1.0232 0.0
C460 C 0.28499 0.56404 1.02748 0.0
C461 C 0.2304 0.56691 0.0633 0.0
C462 C 0.2563 0.56709 0.0853 0.0
C463 C 0.31217 0.57047 0.08929 0.0
C464 C 0.34063 0.57115 0.07133 0.0
C465 C 0.28424 0.56668 0.06766 0.0
C466 C 0.33995 0.56601 1.03172 0.0
C467 C 0.31253 0.56275 1.00996 0.0
H468 H 0.60847 0.07225 0.29484 0.0
H469 H 0.51747 0.06582 0.34574 0.0
H470 H 0.49487 0.00966 0.35182 0.0
H471 H 0.50091 0.96237 0.3429 0.0
H472 H 0.59096 0.96848 0.28985 0.0
H473 H 0.61383 0.0248 0.28423 0.0
C474 C 0.58354 0.05864 0.30688 0.0
C475 C 0.56482 0.07351 0.31981 0.0
C476 C 0.57048 0.02622 0.30993 0.0
C477 C 0.53276 0.05528 0.336 0.0
C478 C 0.51966 0.02304 0.33926 0.0
C479 C 0.52533 0.97587 0.32961 0.0
C480 C 0.54412 0.96105 0.31678 0.0
C481 C 0.53828 0.00826 0.32629 0.0
C482 C 0.57607 0.97921 0.30037 0.0
C483 C 0.58912 0.01145 0.29699 0.0
H484 H 0.47169 0.5398 0.65008 0.0
H485 H 0.40375 0.44837 0.69265 0.0
H486 H 0.44686 0.43172 0.68247 0.0
H487 H 0.5043 0.4438 0.66382 0.0
H488 H 0.57321 0.53595 0.62425 0.0
H489 H 0.52903 0.55173 0.63078 0.0
C490 C 0.46638 0.51632 0.6575 0.0
C491 C 0.43464 0.49545 0.67249 0.0
C492 C 0.49139 0.50708 0.65207 0.0
C493 C 0.42788 0.46483 0.68088 0.0
C494 C 0.45258 0.45536 0.67528 0.0
C495 C 0.50981 0.46743 0.65696 0.0
C496 C 0.54214 0.48878 0.64397 0.0
C497 C 0.48451 0.47641 0.6613 0.0
C498 C 0.54851 0.51904 0.63411 0.0
C499 C 0.52333 0.52811 0.63806 0.0
H500 H 0.93953 0.49209 1.03869 0.0
H501 H 0.93453 0.41141 0.98037 0.0
H502 H 0.99495 0.4394 0.96732 0.0
H503 H 0.04973 0.48626 0.97404 0.0
H504 H 0.05469 0.56685 1.03254 0.0
H505 H 0.99399 0.53945 0.04374 0.0
C506 C 0.95157 0.48063 1.02295 0.0
C507 C 0.93234 0.44959 1.01067 0.0
C508 C 0.98648 0.49684 1.01562 0.0
C509 C 0.94855 0.43524 0.99026 0.0
C510 C 0.9832 0.45123 0.9828 0.0
C511 C 0.03756 0.49791 0.98912 0.0
C512 C 0.05696 0.52861 1.00249 0.0
C513 C 1.0025 0.48196 0.9956 0.0
C514 C 0.04056 0.54326 1.02192 0.0
C515 C 0.00576 0.52758 1.0284 0.0
H516 H 0.04169 0.51052 0.4646 0.0
H517 H 0.08337 0.58387 0.38101 0.0
H518 H 0.02893 0.5828 0.37432 0.0
H519 H 0.96897 0.55973 0.39016 0.0
H520 H 0.92623 0.48533 0.47203 0.0
H521 H 0.98145 0.48783 0.48123 0.0
C522 C 0.03876 0.52612 0.44482 0.0
C523 C 0.06663 0.54735 0.42358 0.0
C524 C 0.0072 0.52518 0.44076 0.0
C525 C 0.06254 0.56769 0.39829 0.0
C526 C 0.03134 0.56698 0.39422 0.0
C527 C 0.97189 0.54446 0.41048 0.0
C528 C 0.94369 0.52245 0.43044 0.0
C529 C 0.0035 0.54579 0.41523 0.0
C530 C 0.94763 0.50232 0.45614 0.0
C531 C 0.97915 0.50376 0.46142 0.0
H532 H 0.50851 0.05441 0.74399 0.0
H533 H 0.58187 0.02049 0.74921 0.0
H534 H 0.53687 0.96701 0.74794 0.0
H535 H 0.47696 0.92989 0.74484 0.0
H536 H 0.4034 0.96337 0.73678 0.0
H537 H 0.4483 0.01704 0.73983 0.0
C538 C 0.51476 0.03539 0.74446 0.0
C539 C 0.5487 0.04166 0.74668 0.0
C540 C 0.4887 1.00457 0.74332 0.0
C541 C 0.55608 0.01652 0.74801 0.0
C542 C 0.53033 0.98585 0.74704 0.0
C543 C 0.47063 0.94883 0.74325 0.0
C544 C 0.43671 0.94243 0.74034 0.0
C545 C 0.49658 0.97962 0.74459 0.0
C546 C 0.42917 0.96748 0.73935 0.0
C547 C 0.45489 0.99823 0.74087 0.0
H548 H 0.45997 0.50335 0.13486 0.0
H549 H 0.50715 0.56505 0.04001 0.0
H550 H 0.53972 0.53772 1.02501 0.0
H551 H 0.55317 0.49499 1.03705 0.0
H552 H 0.50667 0.43359 0.13233 0.0
H553 H 0.47593 0.46234 0.14911 0.0
C554 C 0.47741 0.51085 0.11094 0.0
C555 C 0.48084 0.53609 0.08844 0.0
C556 C 0.49633 0.49514 0.10257 0.0
C557 C 0.50389 0.54569 0.0578 0.0
C558 C 0.52256 0.53005 0.04916 0.0
C559 C 0.53657 0.48803 0.06172 0.0
C560 C 0.53219 0.46201 0.08324 0.0
C561 C 0.51878 0.50458 0.07113 0.0
C562 C 0.51061 0.45349 0.11521 0.0
C563 C 0.49285 0.46985 0.12475 0.0
H564 H 0.57399 0.22239 0.20882 0.0
H565 H 0.50794 0.21983 0.30047 0.0
H566 H 0.49067 0.25249 0.26307 0.0
H567 H 0.49741 0.28463 0.20561 0.0
H568 H 0.56576 0.28808 0.11624 0.0
H569 H 0.57942 0.25254 0.15179 0.0
C570 C 0.55553 0.22863 0.22069 0.0
C571 C 0.5423 0.21858 0.25753 0.0
C572 C 0.5465 0.24798 0.19954 0.0
C573 C 0.51846 0.22708 0.27219 0.0
C574 C 0.50874 0.24592 0.25086 0.0
C575 C 0.515 0.27731 0.1938 0.0
C576 C 0.53072 0.28922 0.15833 0.0
C577 C 0.52303 0.25694 0.21471 0.0
C578 C 0.55373 0.27973 0.14364 0.0
C579 C 0.5614 0.25923 0.16387 0.0
H580 H 0.22576 0.57827 0.55537 0.0
H581 H 0.27636 0.56772 0.45532 0.0
H582 H 0.31655 0.56093 0.49575 0.0
H583 H 0.3384 0.55979 0.55925 0.0
H584 H 0.28883 0.57184 0.65929 0.0
H585 H 0.24699 0.57613 0.61896 0.0
C586 C 0.24545 0.57432 0.54233 0.0
C587 C 0.24804 0.57357 0.5023 0.0
C588 C 0.26868 0.57078 0.56573 0.0
C589 C 0.2738 0.56849 0.486 0.0
C590 C 0.29681 0.56461 0.50911 0.0
C591 C 0.31835 0.56317 0.57234 0.0
C592 C 0.31681 0.56553 0.6123 0.0
C593 C 0.29465 0.56598 0.54898 0.0
C594 C 0.29067 0.57 0.62865 0.0
C595 C 0.26675 0.57247 0.60559 0.0
H596 H 0.78514 0.28697 0.8758 0.0
H597 H 0.71566 0.28518 0.96276 0.0
H598 H 0.66815 0.25271 0.92178 0.0
H599 H 0.64624 0.22352 0.862 0.0
H600 H 0.71574 0.22568 0.77475 0.0
H601 H 0.76328 0.25908 0.81522 0.0
C602 C 0.75963 0.2793 0.88599 0.0
C603 C 0.75411 0.28837 0.92263 0.0
C604 C 0.73238 0.26062 0.8622 0.0
C605 C 0.72077 0.27875 0.93477 0.0
C606 C 0.69354 0.26003 0.91137 0.0
C607 C 0.67177 0.23129 0.85174 0.0
C608 C 0.6773 0.22187 0.81533 0.0
C609 C 0.69904 0.25064 0.87513 0.0
C610 C 0.71064 0.2325 0.80253 0.0
C611 C 0.73788 0.25158 0.82574 0.0
H612 H 0.42978 0.68756 0.1859 0.0
H613 H 0.51464 0.68281 0.23607 0.0
H614 H 0.52329 0.7252 0.27964 0.0
H615 H 0.50586 0.76249 0.30524 0.0
H616 H 0.42083 0.76784 0.2562 0.0
H617 H 0.41319 0.72663 0.2107 0.0
C618 C 0.45036 0.69614 0.20608 0.0
C619 C 0.47137 0.68184 0.20789 0.0
C620 C 0.45503 0.72051 0.23155 0.0
C621 C 0.4978 0.69305 0.23444 0.0
C622 C 0.50283 0.71736 0.25935 0.0
C623 C 0.48563 0.75471 0.28464 0.0
C624 C 0.4639 0.76826 0.2844 0.0
C625 C 0.48135 0.731 0.25855 0.0
C626 C 0.43795 0.75786 0.25721 0.0
C627 C 0.43355 0.73426 0.23109 0.0
H628 H 0.67752 0.41294 0.59777 0.0
H629 H 0.73855 0.50361 0.64761 0.0
H630 H 0.78095 0.51523 0.59777 0.0
H631 H 0.79815 0.50171 0.53693 0.0
H632 H 0.7369 0.41157 0.48609 0.0
H633 H 0.69732 0.39762 0.53966 0.0
C634 C 0.7003 0.43509 0.59808 0.0
C635 C 0.7046 0.4575 0.62624 0.0
C636 C 0.72444 0.44184 0.56896 0.0
C637 C 0.73441 0.48599 0.62622 0.0
C638 C 0.75867 0.49271 0.59762 0.0
C639 C 0.77631 0.47888 0.53767 0.0
C640 C 0.77031 0.45787 0.50727 0.0
C641 C 0.75352 0.47115 0.56833 0.0
C642 C 0.74209 0.42825 0.509 0.0
C643 C 0.71937 0.4203 0.53958 0.0
H644 H 0.21103 0.66619 0.84248 0.0
H645 H 0.25987 0.70356 0.94999 0.0
H646 H 0.30546 0.74692 0.91681 0.0
H647 H 0.33134 0.77469 0.85737 0.0
H648 H 0.28205 0.73775 0.74996 0.0
H649 H 0.23651 0.69417 0.78317 0.0
C650 C 0.23138 0.6839 0.85885 0.0
C651 C 0.2317 0.68136 0.89893 0.0
C652 C 0.25747 0.70905 0.83956 0.0
C653 C 0.2589 0.70446 0.91924 0.0
C654 C 0.28497 0.72948 0.90025 0.0
C655 C 0.31061 0.75719 0.84114 0.0
C656 C 0.31022 0.75966 0.8011 0.0
C657 C 0.2845 0.73206 0.86043 0.0
C658 C 0.2831 0.73659 0.78072 0.0
C659 C 0.25702 0.71158 0.79972 0.0
loop_
_geom_bond_atom_site_label_1
_geom_bond_atom_site_label_2
_geom_bond_distance
_geom_bond_site_symmetry_2
_ccdc_geom_bond_type
Cu0 N1 1.999 . S
Cu0 O6 1.974 . S
Cu0 N11 1.985 . S
Cu0 O20 1.959 . S
N1 Cu0 1.999 . S
N1 C3 1.263 . S
N1 C5 1.389 . S
N2 C3 1.358 . S
N2 C4 1.400 . S
C3 N1 1.263 . S
C3 N2 1.358 . S
C3 H9 0.930 . S
C4 N2 1.400 . S
C4 C5 1.351 . S
C4 H21 0.930 . S
C5 N1 1.389 . S
C5 C4 1.351 . S
C5 H10 0.930 . S
O6 Cu0 1.974 . S
O6 C16 1.282 . S
C7 O8 1.261 . S
C7 O20 1.251 . S
O8 C7 1.261 . S
H9 C3 0.930 . S
H10 C5 0.930 . S
N11 Cu0 1.985 . S
N11 C13 1.335 . S
N11 C14 1.390 . S
N12 C13 1.345 . S
N12 C15 1.336 . S
C13 N11 1.335 . S
C13 N12 1.345 . S
C13 H18 0.930 . S
C14 N11 1.390 . S
C14 C15 1.346 . S
C14 H19 0.930 . S
C15 N12 1.336 . S
C15 C14 1.346 . S
C15 H22 0.929 . S
C16 O6 1.282 . S
C16 O17 1.216 . S
O17 C16 1.216 . S
H18 C13 0.930 . S
H19 C14 0.930 . S
O20 Cu0 1.959 . S
O20 C7 1.251 . S
H21 C4 0.930 . S
H22 C15 0.929 . S
Cu23 N24 1.999 . S
Cu23 O29 1.974 . S
Cu23 N34 1.985 . S
Cu23 O43 1.959 . S
N24 Cu23 1.999 . S
N24 C26 1.263 . S
N24 C28 1.389 . S
N25 C26 1.358 . S
N25 C27 1.400 . S
C26 N24 1.263 . S
C26 N25 1.358 . S
C26 H32 0.930 . S
C27 N25 1.400 . S
C27 C28 1.351 . S
C27 H44 0.930 . S
C28 N24 1.389 . S
C28 C27 1.351 . S
C28 H33 0.930 . S
O29 Cu23 1.974 . S
O29 C39 1.282 . S
C30 O31 1.261 . S
C30 O43 1.251 . S
O31 C30 1.261 . S
H32 C26 0.930 . S
H33 C28 0.930 . S
N34 Cu23 1.985 . S
N34 C36 1.335 . S
N34 C37 1.390 . S
N35 C36 1.345 . S
N35 C38 1.336 . S
C36 N34 1.335 . S
C36 N35 1.345 . S
C36 H41 0.930 . S
C37 N34 1.390 . S
C37 C38 1.346 . S
C37 H42 0.930 . S
C38 N35 1.336 . S
C38 C37 1.346 . S
C38 H45 0.929 . S
C39 O29 1.282 . S
C39 O40 1.216 . S
O40 C39 1.216 . S
H41 C36 0.930 . S
H42 C37 0.930 . S
O43 Cu23 1.959 . S
O43 C30 1.251 . S
H44 C27 0.930 . S
H45 C38 0.929 . S
Cu46 N47 1.999 . S
Cu46 O52 1.974 . S
Cu46 N57 1.985 1_554 S
Cu46 O66 1.959 . S
N47 Cu46 1.999 . S
N47 C49 1.263 . S
N47 C51 1.389 . S
N48 C49 1.358 . S
N48 C50 1.400 . S
C49 N47 1.263 . S
C49 N48 1.358 . S
C49 H55 0.930 . S
C50 N48 1.400 . S
C50 C51 1.351 . S
C50 H67 0.930 . S
C51 N47 1.389 . S
C51 C50 1.351 . S
C51 H56 0.930 . S
O52 Cu46 1.974 . S
O52 C62 1.282 1_554 S
C53 O54 1.261 . S
C53 O66 1.251 1_556 S
O54 C53 1.261 . S
H55 C49 0.930 . S
H56 C51 0.930 . S
N57 Cu46 1.985 1_556 S
N57 C59 1.335 . S
N57 C60 1.390 . S
N58 C59 1.345 . S
N58 C61 1.336 . S
C59 N57 1.335 . S
C59 N58 1.345 . S
C59 H64 0.930 . S
C60 N57 1.390 . S
C60 C61 1.346 . S
C60 H65 0.930 . S
C61 N58 1.336 . S
C61 C60 1.346 . S
C61 H68 0.929 . S
C62 O52 1.282 1_556 S
C62 O63 1.216 . S
O63 C62 1.216 . S
H64 C59 0.930 . S
H65 C60 0.930 . S
O66 Cu46 1.959 . S
O66 C53 1.251 1_554 S
H67 C50 0.930 . S
H68 C61 0.929 . S
Cu69 N70 1.999 . S
Cu69 O75 1.974 . S
Cu69 N80 1.985 . S
Cu69 O89 1.959 . S
N70 Cu69 1.999 . S
N70 C72 1.263 . S
N70 C74 1.389 . S
N71 C72 1.358 . S
N71 C73 1.400 . S
C72 N70 1.263 . S
C72 N71 1.358 . S
C72 H78 0.930 . S
C73 N71 1.400 . S
C73 C74 1.351 . S
C73 H90 0.930 . S
C74 N70 1.389 . S
C74 C73 1.351 . S
C74 H79 0.930 . S
O75 Cu69 1.974 . S
O75 C85 1.282 . S
C76 O77 1.261 . S
C76 O89 1.251 . S
O77 C76 1.261 . S
H78 C72 0.930 . S
H79 C74 0.930 . S
N80 Cu69 1.985 . S
N80 C82 1.335 . S
N80 C83 1.390 . S
N81 C82 1.345 . S
N81 C84 1.336 . S
C82 N80 1.335 . S
C82 N81 1.345 . S
C82 H87 0.930 . S
C83 N80 1.390 . S
C83 C84 1.346 . S
C83 H88 0.930 . S
C84 N81 1.336 . S
C84 C83 1.346 . S
C84 H91 0.929 . S
C85 O75 1.282 . S
C85 O86 1.216 . S
O86 C85 1.216 . S
H87 C82 0.930 . S
H88 C83 0.930 . S
O89 Cu69 1.959 . S
O89 C76 1.251 . S
H90 C73 0.930 . S
H91 C84 0.929 . S
Cu92 N93 1.999 . S
Cu92 O98 1.974 . S
Cu92 N103 1.985 . S
Cu92 O112 1.959 . S
N93 Cu92 1.999 . S
N93 C95 1.263 . S
N93 C97 1.389 . S
N94 C95 1.358 . S
N94 C96 1.400 . S
C95 N93 1.263 . S
C95 N94 1.358 . S
C95 H101 0.930 . S
C96 N94 1.400 . S
C96 C97 1.351 . S
C96 H113 0.930 . S
C97 N93 1.389 . S
C97 C96 1.351 . S
C97 H102 0.930 . S
O98 Cu92 1.974 . S
O98 C108 1.282 . S
C99 O100 1.261 . S
C99 O112 1.251 . S
O100 C99 1.261 . S
H101 C95 0.930 . S
H102 C97 0.930 . S
N103 Cu92 1.985 . S
N103 C105 1.335 . S
N103 C106 1.390 . S
N104 C105 1.345 . S
N104 C107 1.336 . S
C105 N103 1.335 . S
C105 N104 1.345 . S
C105 H110 0.930 . S
C106 N103 1.390 . S
C106 C107 1.346 . S
C106 H111 0.930 . S
C107 N104 1.336 . S
C107 C106 1.346 . S
C107 H114 0.929 . S
C108 O98 1.282 . S
C108 O109 1.216 . S
O109 C108 1.216 . S
H110 C105 0.930 . S
H111 C106 0.930 . S
O112 Cu92 1.959 . S
O112 C99 1.251 . S
H113 C96 0.930 . S
H114 C107 0.929 . S
Cu115 N116 1.999 . S
Cu115 O121 1.974 . S
Cu115 N126 1.985 1_554 S
Cu115 O135 1.959 . S
N116 Cu115 1.999 . S
N116 C118 1.263 . S
N116 C120 1.389 . S
N117 C118 1.358 . S
N117 C119 1.400 . S
C118 N116 1.263 . S
C118 N117 1.358 . S
C118 H124 0.930 . S
C119 N117 1.400 . S
C119 C120 1.351 . S
C119 H136 0.930 . S
C120 N116 1.389 . S
C120 C119 1.351 . S
C120 H125 0.930 . S
O121 Cu115 1.974 . S
O121 C131 1.282 1_554 S
C122 O123 1.261 . S
C122 O135 1.251 1_556 S
O123 C122 1.261 . S
H124 C118 0.930 . S
H125 C120 0.930 . S
N126 Cu115 1.985 1_556 S
N126 C128 1.335 . S
N126 C129 1.390 . S
N127 C128 1.345 . S
N127 C130 1.336 . S
C128 N126 1.335 . S
C128 N127 1.345 . S
C128 H133 0.930 . S
C129 N126 1.390 . S
C129 C130 1.346 . S
C129 H134 0.930 . S
C130 N127 1.336 . S
C130 C129 1.346 . S
C130 H137 0.929 . S
C131 O121 1.282 1_556 S
C131 O132 1.216 . S
O132 C131 1.216 . S
H133 C128 0.930 . S
H134 C129 0.930 . S
O135 Cu115 1.959 . S
O135 C122 1.251 1_554 S
H136 C119 0.930 . S
H137 C130 0.929 . S
Cu138 N139 1.999 . S
Cu138 O144 1.974 . S
Cu138 N149 1.985 . S
Cu138 O158 1.959 . S
N139 Cu138 1.999 . S
N139 C141 1.263 . S
N139 C143 1.389 . S
N140 C141 1.358 . S
N140 C142 1.400 . S
C141 N139 1.263 . S
C141 N140 1.358 . S
C141 H147 0.930 . S
C142 N140 1.400 . S
C142 C143 1.351 . S
C142 H159 0.930 . S
C143 N139 1.389 . S
C143 C142 1.351 . S
C143 H148 0.930 . S
O144 Cu138 1.974 . S
O144 C154 1.282 . S
C145 O146 1.261 . S
C145 O158 1.251 . S
O146 C145 1.261 . S
H147 C141 0.930 . S
H148 C143 0.930 . S
N149 Cu138 1.985 . S
N149 C151 1.335 . S
N149 C152 1.390 . S
N150 C151 1.345 . S
N150 C153 1.336 . S
C151 N149 1.335 . S
C151 N150 1.345 . S
C151 H156 0.930 . S
C152 N149 1.390 . S
C152 C153 1.346 . S
C152 H157 0.930 . S
C153 N150 1.336 . S
C153 C152 1.346 . S
C153 H160 0.929 . S
C154 O144 1.282 . S
C154 O155 1.216 . S
O155 C154 1.216 . S
H156 C151 0.930 . S
H157 C152 0.930 . S
O158 Cu138 1.959 . S
O158 C145 1.251 . S
H159 C142 0.930 . S
H160 C153 0.929 . S
Cu161 N162 1.999 . S
Cu161 O167 1.974 . S
Cu161 N172 1.985 . S
Cu161 O181 1.959 . S
N162 Cu161 1.999 . S
N162 C164 1.263 . S
N162 C166 1.389 . S
N163 C164 1.358 . S
N163 C165 1.400 . S
C164 N162 1.263 . S
C164 N163 1.358 . S
C164 H170 0.930 . S
C165 N163 1.400 . S
C165 C166 1.351 . S
C165 H182 0.930 . S
C166 N162 1.389 . S
C166 C165 1.351 . S
C166 H171 0.930 . S
O167 Cu161 1.974 . S
O167 C177 1.282 . S
C168 O169 1.261 . S
C168 O181 1.251 . S
O169 C168 1.261 . S
H170 C164 0.930 . S
H171 C166 0.930 . S
N172 Cu161 1.985 . S
N172 C174 1.335 . S
N172 C175 1.390 . S
N173 C174 1.345 . S
N173 C176 1.336 . S
C174 N172 1.335 . S
C174 N173 1.345 . S
C174 H179 0.930 . S
C175 N172 1.390 . S
C175 C176 1.346 . S
C175 H180 0.930 . S
C176 N173 1.336 . S
C176 C175 1.346 . S
C176 H183 0.929 . S
C177 O167 1.282 . S
C177 O178 1.216 . S
O178 C177 1.216 . S
H179 C174 0.930 . S
H180 C175 0.930 . S
O181 Cu161 1.959 . S
O181 C168 1.251 . S
H182 C165 0.930 . S
H183 C176 0.929 . S
Cu184 N185 1.999 . S
Cu184 O190 1.974 . S
Cu184 N195 1.985 1_556 S
Cu184 O204 1.959 . S
N185 Cu184 1.999 . S
N185 C187 1.263 . S
N185 C189 1.389 . S
N186 C187 1.358 . S
N186 C188 1.400 . S
C187 N185 1.263 . S
C187 N186 1.358 . S
C187 H193 0.930 . S
C188 N186 1.400 . S
C188 C189 1.351 . S
C188 H205 0.930 . S
C189 N185 1.389 . S
C189 C188 1.351 . S
C189 H194 0.930 . S
O190 Cu184 1.974 . S
O190 C200 1.282 1_556 S
C191 O192 1.261 . S
C191 O204 1.251 1_554 S
O192 C191 1.261 . S
H193 C187 0.930 . S
H194 C189 0.930 . S
N195 Cu184 1.985 1_554 S
N195 C197 1.335 . S
N195 C198 1.390 . S
N196 C197 1.345 . S
N196 C199 1.336 . S
C197 N195 1.335 . S
C197 N196 1.345 . S
C197 H202 0.930 . S
C198 N195 1.390 . S
C198 C199 1.346 . S
C198 H203 0.930 . S
C199 N196 1.336 . S
C199 C198 1.346 . S
C199 H206 0.929 . S
C200 O190 1.282 1_554 S
C200 O201 1.216 . S
O201 C200 1.216 . S
H202 C197 0.930 . S
H203 C198 0.930 . S
O204 Cu184 1.959 . S
O204 C191 1.251 1_556 S
H205 C188 0.930 . S
H206 C199 0.929 . S
Cu207 N208 1.999 . S
Cu207 O213 1.974 . S
Cu207 N218 1.985 . S
Cu207 O227 1.959 . S
N208 Cu207 1.999 . S
N208 C210 1.263 . S
N208 C212 1.389 . S
N209 C210 1.358 . S
N209 C211 1.400 . S
C210 N208 1.263 . S
C210 N209 1.358 . S
C210 H216 0.930 . S
C211 N209 1.400 . S
C211 C212 1.351 . S
C211 H228 0.930 . S
C212 N208 1.389 . S
C212 C211 1.351 . S
C212 H217 0.930 . S
O213 Cu207 1.974 . S
O213 C223 1.282 . S
C214 O215 1.261 . S
C214 O227 1.251 . S
O215 C214 1.261 . S
H216 C210 0.930 . S
H217 C212 0.930 . S
N218 Cu207 1.985 . S
N218 C220 1.335 . S
N218 C221 1.390 . S
N219 C220 1.345 . S
N219 C222 1.336 . S
C220 N218 1.335 . S
C220 N219 1.345 . S
C220 H225 0.930 . S
C221 N218 1.390 . S
C221 C222 1.346 . S
C221 H226 0.930 . S
C222 N219 1.336 . S
C222 C221 1.346 . S
C222 H229 0.929 . S
C223 O213 1.282 . S
C223 O224 1.216 . S
O224 C223 1.216 . S
H225 C220 0.930 . S
H226 C221 0.930 . S
O227 Cu207 1.959 . S
O227 C214 1.251 . S
H228 C211 0.930 . S
H229 C222 0.929 . S
Cu230 N231 1.999 . S
Cu230 O236 1.974 . S
Cu230 N241 1.985 . S
Cu230 O250 1.959 . S
N231 Cu230 1.999 . S
N231 C233 1.263 . S
N231 C235 1.389 . S
N232 C233 1.358 . S
N232 C234 1.400 . S
C233 N231 1.263 . S
C233 N232 1.358 . S
C233 H239 0.930 . S
C234 N232 1.400 . S
C234 C235 1.351 . S
C234 H251 0.930 . S
C235 N231 1.389 . S
C235 C234 1.351 . S
C235 H240 0.930 . S
O236 Cu230 1.974 . S
O236 C246 1.282 . S
C237 O238 1.261 . S
C237 O250 1.251 . S
O238 C237 1.261 . S
H239 C233 0.930 . S
H240 C235 0.930 . S
N241 Cu230 1.985 . S
N241 C243 1.335 . S
N241 C244 1.390 . S
N242 C243 1.345 . S
N242 C245 1.336 . S
C243 N241 1.335 . S
C243 N242 1.345 . S
C243 H248 0.930 . S
C244 N241 1.390 . S
C244 C245 1.346 . S
C244 H249 0.930 . S
C245 N242 1.336 . S
C245 C244 1.346 . S
C245 H252 0.929 . S
C246 O236 1.282 . S
C246 O247 1.216 . S
O247 C246 1.216 . S
H248 C243 0.930 . S
H249 C244 0.930 . S
O250 Cu230 1.959 . S
O250 C237 1.251 . S
H251 C234 0.930 . S
H252 C245 0.929 . S
Cu253 N254 1.999 . S
Cu253 O259 1.974 . S
Cu253 N264 1.985 1_556 S
Cu253 O273 1.959 . S
N254 Cu253 1.999 . S
N254 C256 1.263 . S
N254 C258 1.389 . S
N255 C256 1.358 . S
N255 C257 1.400 . S
C256 N254 1.263 . S
C256 N255 1.358 . S
C256 H262 0.930 . S
C257 N255 1.400 . S
C257 C258 1.351 . S
C257 H274 0.930 . S
C258 N254 1.389 . S
C258 C257 1.351 . S
C258 H263 0.930 . S
O259 Cu253 1.974 . S
O259 C269 1.282 1_556 S
C260 O261 1.261 . S
C260 O273 1.251 1_554 S
O261 C260 1.261 . S
H262 C256 0.930 . S
H263 C258 0.930 . S
N264 Cu253 1.985 1_554 S
N264 C266 1.335 . S
N264 C267 1.390 . S
N265 C266 1.345 . S
N265 C268 1.336 . S
C266 N264 1.335 . S
C266 N265 1.345 . S
C266 H271 0.930 . S
C267 N264 1.390 . S
C267 C268 1.346 . S
C267 H272 0.930 . S
C268 N265 1.336 . S
C268 C267 1.346 . S
C268 H275 0.929 . S
C269 O259 1.282 1_554 S
C269 O270 1.216 . S
O270 C269 1.216 . S
H271 C266 0.930 . S
H272 C267 0.930 . S
O273 Cu253 1.959 . S
O273 C260 1.251 1_556 S
H274 C257 0.930 . S
H275 C268 0.929 . S
H276 C282 0.930 . S
H277 C285 0.930 . S
H278 C286 0.930 . S
H279 C287 0.930 . S
H280 C290 0.930 . S
H281 C291 0.930 . S
C282 H276 0.930 . S
C282 C283 1.355 . S
C282 C284 1.415 . S
C283 C282 1.355 . S
C283 C285 1.419 . S
C284 C282 1.415 . S
C284 C289 1.425 . S
C284 C291 1.409 . S
C285 H277 0.930 . S
C285 C283 1.419 . S
C285 C286 1.362 . S
C286 H278 0.930 . S
C286 C285 1.362 . S
C286 C289 1.409 . S
C287 H279 0.930 . S
C287 C288 1.355 . S
C287 C289 1.415 . S
C288 C287 1.355 . S
C288 C290 1.419 . S
C289 C284 1.425 . S
C289 C286 1.409 . S
C289 C287 1.415 . S
C290 H280 0.930 . S
C290 C288 1.419 . S
C290 C291 1.362 . S
C291 H281 0.930 . S
C291 C284 1.409 . S
C291 C290 1.362 . S
H292 C298 0.930 . S
H293 C301 0.930 . S
H294 C302 0.930 . S
H295 C303 0.930 . S
H296 C306 0.930 . S
H297 C307 0.930 . S
C298 H292 0.930 . S
C298 C299 1.355 . S
C298 C300 1.415 . S
C299 C298 1.355 . S
C299 C301 1.419 . S
C300 C298 1.415 . S
C300 C305 1.425 . S
C300 C307 1.409 . S
C301 H293 0.930 . S
C301 C299 1.419 . S
C301 C302 1.362 . S
C302 H294 0.930 . S
C302 C301 1.362 . S
C302 C305 1.409 . S
C303 H295 0.930 . S
C303 C304 1.355 . S
C303 C305 1.415 . S
C304 C303 1.355 . S
C304 C306 1.419 . S
C305 C300 1.425 . S
C305 C302 1.409 . S
C305 C303 1.415 . S
C306 H296 0.930 . S
C306 C304 1.419 . S
C306 C307 1.362 . S
C307 H297 0.930 . S
C307 C300 1.409 . S
C307 C306 1.362 . S
H308 C314 0.930 . S
H309 C317 0.930 . S
H310 C318 0.930 . S
H311 C319 0.930 . S
H312 C322 0.930 . S
H313 C323 0.930 . S
C314 H308 0.930 . S
C314 C315 1.355 . S
C314 C316 1.415 . S
C315 C314 1.355 . S
C315 C317 1.419 . S
C316 C314 1.415 . S
C316 C321 1.425 . S
C316 C323 1.409 . S
C317 H309 0.930 . S
C317 C315 1.419 . S
C317 C318 1.362 . S
C318 H310 0.930 . S
C318 C317 1.362 . S
C318 C321 1.409 . S
C319 H311 0.930 . S
C319 C320 1.355 . S
C319 C321 1.415 . S
C320 C319 1.355 . S
C320 C322 1.419 . S
C321 C316 1.425 . S
C321 C318 1.409 . S
C321 C319 1.415 . S
C322 H312 0.930 . S
C322 C320 1.419 . S
C322 C323 1.362 . S
C323 H313 0.930 . S
C323 C316 1.409 . S
C323 C322 1.362 . S
H324 C330 0.930 . S
H325 C333 0.930 . S
H326 C334 0.930 . S
H327 C335 0.930 . S
H328 C338 0.930 . S
H329 C339 0.930 . S
C330 H324 0.930 . S
C330 C331 1.355 . S
C330 C332 1.415 . S
C331 C330 1.355 . S
C331 C333 1.419 . S
C332 C330 1.415 . S
C332 C337 1.425 . S
C332 C339 1.409 . S
C333 H325 0.930 . S
C333 C331 1.419 . S
C333 C334 1.362 . S
C334 H326 0.930 . S
C334 C333 1.362 . S
C334 C337 1.409 . S
C335 H327 0.930 . S
C335 C336 1.355 . S
C335 C337 1.415 . S
C336 C335 1.355 . S
C336 C338 1.419 . S
C337 C332 1.425 . S
C337 C334 1.409 . S
C337 C335 1.415 . S
C338 H328 0.930 . S
C338 C336 1.419 . S
C338 C339 1.362 . S
C339 H329 0.930 . S
C339 C332 1.409 . S
C339 C338 1.362 . S
H340 C346 0.930 . S
H341 C349 0.930 . S
H342 C350 0.930 . S
H343 C351 0.930 . S
H344 C354 0.930 . S
H345 C355 0.930 . S
C346 H340 0.930 . S
C346 C347 1.355 . S
C346 C348 1.415 . S
C347 C346 1.355 . S
C347 C349 1.419 . S
C348 C346 1.415 . S
C348 C353 1.425 . S
C348 C355 1.409 . S
C349 H341 0.930 . S
C349 C347 1.419 . S
C349 C350 1.362 . S
C350 H342 0.930 . S
C350 C349 1.362 . S
C350 C353 1.409 . S
C351 H343 0.930 . S
C351 C352 1.355 . S
C351 C353 1.415 . S
C352 C351 1.355 . S
C352 C354 1.419 . S
C353 C348 1.425 . S
C353 C350 1.409 . S
C353 C351 1.415 . S
C354 H344 0.930 . S
C354 C352 1.419 . S
C354 C355 1.362 . S
C355 H345 0.930 . S
C355 C348 1.409 . S
C355 C354 1.362 . S
H356 C362 0.930 . S
H357 C365 0.930 . S
H358 C366 0.930 . S
H359 C367 0.930 . S
H360 C370 0.930 . S
H361 C371 0.930 . S
C362 H356 0.930 . S
C362 C363 1.355 . S
C362 C364 1.415 . S
C363 C362 1.355 . S
C363 C365 1.419 . S
C364 C362 1.415 . S
C364 C369 1.425 . S
C364 C371 1.409 . S
C365 H357 0.930 . S
C365 C363 1.419 . S
C365 C366 1.362 . S
C366 H358 0.930 . S
C366 C365 1.362 . S
C366 C369 1.409 . S
C367 H359 0.930 . S
C367 C368 1.355 . S
C367 C369 1.415 . S
C368 C367 1.355 . S
C368 C370 1.419 . S
C369 C364 1.425 . S
C369 C366 1.409 . S
C369 C367 1.415 . S
C370 H360 0.930 . S
C370 C368 1.419 . S
C370 C371 1.362 . S
C371 H361 0.930 . S
C371 C364 1.409 . S
C371 C370 1.362 . S
H372 C378 0.930 . S
H373 C381 0.930 . S
H374 C382 0.930 . S
H375 C383 0.930 . S
H376 C386 0.930 . S
H377 C387 0.930 . S
C378 H372 0.930 . S
C378 C379 1.355 . S
C378 C380 1.415 . S
C379 C378 1.355 . S
C379 C381 1.419 . S
C380 C378 1.415 . S
C380 C385 1.425 . S
C380 C387 1.409 . S
C381 H373 0.930 . S
C381 C379 1.419 . S
C381 C382 1.362 . S
C382 H374 0.930 . S
C382 C381 1.362 . S
C382 C385 1.409 . S
C383 H375 0.930 . S
C383 C384 1.355 . S
C383 C385 1.415 . S
C384 C383 1.355 . S
C384 C386 1.419 . S
C385 C380 1.425 . S
C385 C382 1.409 . S
C385 C383 1.415 . S
C386 H376 0.930 . S
C386 C384 1.419 . S
C386 C387 1.362 . S
C387 H377 0.930 . S
C387 C380 1.409 . S
C387 C386 1.362 . S
H388 C394 0.930 . S
H389 C397 0.930 . S
H390 C398 0.930 . S
H391 C399 0.930 . S
H392 C402 0.930 . S
H393 C403 0.930 . S
C394 H388 0.930 . S
C394 C395 1.355 . S
C394 C396 1.415 . S
C395 C394 1.355 . S
C395 C397 1.419 . S
C396 C394 1.415 . S
C396 C401 1.425 . S
C396 C403 1.409 . S
C397 H389 0.930 . S
C397 C395 1.419 . S
C397 C398 1.362 . S
C398 H390 0.930 . S
C398 C397 1.362 . S
C398 C401 1.409 . S
C399 H391 0.930 . S
C399 C400 1.355 . S
C399 C401 1.415 . S
C400 C399 1.355 . S
C400 C402 1.419 . S
C401 C396 1.425 . S
C401 C398 1.409 . S
C401 C399 1.415 . S
C402 H392 0.930 . S
C402 C400 1.419 . S
C402 C403 1.362 . S
C403 H393 0.930 . S
C403 C396 1.409 . S
C403 C402 1.362 . S
H404 C410 0.930 . S
H405 C413 0.930 . S
H406 C414 0.930 . S
H407 C415 0.930 . S
H408 C418 0.930 . S
H409 C419 0.930 . S
C410 H404 0.930 . S
C410 C411 1.355 . S
C410 C412 1.415 . S
C411 C410 1.355 . S
C411 C413 1.419 1_554 S
C412 C410 1.415 . S
C412 C417 1.425 1_554 S
C412 C419 1.409 . S
C413 H405 0.930 . S
C413 C411 1.419 1_556 S
C413 C414 1.362 . S
C414 H406 0.930 . S
C414 C413 1.362 . S
C414 C417 1.409 . S
C415 H407 0.930 . S
C415 C416 1.355 . S
C415 C417 1.415 . S
C416 C415 1.355 . S
C416 C418 1.419 1_556 S
C417 C412 1.425 1_556 S
C417 C414 1.409 . S
C417 C415 1.415 . S
C418 H408 0.930 . S
C418 C416 1.419 1_554 S
C418 C419 1.362 . S
C419 H409 0.930 . S
C419 C412 1.409 . S
C419 C418 1.362 . S
H420 C426 0.930 . S
H421 C429 0.930 . S
H422 C430 0.930 . S
H423 C431 0.930 . S
H424 C434 0.930 . S
H425 C435 0.930 . S
C426 H420 0.930 . S
C426 C427 1.355 . S
C426 C428 1.415 . S
C427 C426 1.355 . S
C427 C429 1.419 . S
C428 C426 1.415 . S
C428 C433 1.425 . S
C428 C435 1.409 . S
C429 H421 0.930 . S
C429 C427 1.419 . S
C429 C430 1.362 . S
C430 H422 0.930 . S
C430 C429 1.362 . S
C430 C433 1.409 . S
C431 H423 0.930 . S
C431 C432 1.355 . S
C431 C433 1.415 . S
C432 C431 1.355 . S
C432 C434 1.419 . S
C433 C428 1.425 . S
C433 C430 1.409 . S
C433 C431 1.415 . S
C434 H424 0.930 . S
C434 C432 1.419 . S
C434 C435 1.362 . S
C435 H425 0.930 . S
C435 C428 1.409 . S
C435 C434 1.362 . S
H436 C442 0.930 . S
H437 C445 0.930 . S
H438 C446 0.930 . S
H439 C447 0.930 . S
H440 C450 0.930 . S
H441 C451 0.930 . S
C442 H436 0.930 . S
C442 C443 1.355 . S
C442 C444 1.415 . S
C443 C442 1.355 . S
C443 C445 1.419 . S
C444 C442 1.415 . S
C444 C449 1.425 . S
C444 C451 1.409 . S
C445 H437 0.930 . S
C445 C443 1.419 . S
C445 C446 1.362 . S
C446 H438 0.930 . S
C446 C445 1.362 . S
C446 C449 1.409 . S
C447 H439 0.930 . S
C447 C448 1.355 . S
C447 C449 1.415 . S
C448 C447 1.355 . S
C448 C450 1.419 . S
C449 C444 1.425 . S
C449 C446 1.409 . S
C449 C447 1.415 . S
C450 H440 0.930 . S
C450 C448 1.419 . S
C450 C451 1.362 . S
C451 H441 0.930 . S
C451 C444 1.409 . S
C451 C450 1.362 . S
H452 C458 0.930 . S
H453 C461 0.930 . S
H454 C462 0.930 . S
H455 C463 0.930 . S
H456 C466 0.930 . S
H457 C467 0.930 . S
C458 H452 0.930 . S
C458 C459 1.355 . S
C458 C460 1.415 . S
C459 C458 1.355 . S
C459 C461 1.419 1_556 S
C460 C458 1.415 . S
C460 C465 1.425 1_556 S
C460 C467 1.409 . S
C461 H453 0.930 . S
C461 C459 1.419 1_554 S
C461 C462 1.362 . S
C462 H454 0.930 . S
C462 C461 1.362 . S
C462 C465 1.409 . S
C463 H455 0.930 . S
C463 C464 1.355 . S
C463 C465 1.415 . S
C464 C463 1.355 . S
C464 C466 1.419 1_554 S
C465 C460 1.425 1_554 S
C465 C462 1.409 . S
C465 C463 1.415 . S
C466 H456 0.930 . S
C466 C464 1.419 1_556 S
C466 C467 1.362 . S
C467 H457 0.930 . S
C467 C460 1.409 . S
C467 C466 1.362 . S
H468 C474 0.930 . S
H469 C477 0.930 . S
H470 C478 0.930 1_565 S
H471 C479 0.930 . S
H472 C482 0.930 . S
H473 C483 0.930 1_545 S
C474 H468 0.930 . S
C474 C475 1.355 . S
C474 C476 1.415 . S
C475 C474 1.355 . S
C475 C477 1.419 . S
C476 C474 1.415 . S
C476 C481 1.425 1_545 S
C476 C483 1.409 1_545 S
C477 H469 0.930 . S
C477 C475 1.419 . S
C477 C478 1.362 . S
C478 H470 0.930 1_545 S
C478 C477 1.362 . S
C478 C481 1.409 1_545 S
C479 H471 0.930 . S
C479 C480 1.355 . S
C479 C481 1.415 . S
C480 C479 1.355 . S
C480 C482 1.419 . S
C481 C476 1.425 1_565 S
C481 C478 1.409 1_565 S
C481 C479 1.415 . S
C482 H472 0.930 . S
C482 C480 1.419 . S
C482 C483 1.362 . S
C483 H473 0.930 1_565 S
C483 C476 1.409 1_565 S
C483 C482 1.362 . S
H484 C490 0.930 . S
H485 C493 0.930 . S
H486 C494 0.930 . S
H487 C495 0.930 . S
H488 C498 0.930 . S
H489 C499 0.930 . S
C490 H484 0.930 . S
C490 C491 1.355 . S
C490 C492 1.415 . S
C491 C490 1.355 . S
C491 C493 1.419 . S
C492 C490 1.415 . S
C492 C497 1.425 . S
C492 C499 1.409 . S
C493 H485 0.930 . S
C493 C491 1.419 . S
C493 C494 1.362 . S
C494 H486 0.930 . S
C494 C493 1.362 . S
C494 C497 1.409 . S
C495 H487 0.930 . S
C495 C496 1.355 . S
C495 C497 1.415 . S
C496 C495 1.355 . S
C496 C498 1.419 . S
C497 C492 1.425 . S
C497 C494 1.409 . S
C497 C495 1.415 . S
C498 H488 0.930 . S
C498 C496 1.419 . S
C498 C499 1.362 . S
C499 H489 0.930 . S
C499 C492 1.409 . S
C499 C498 1.362 . S
H500 C506 0.930 . S
H501 C509 0.930 . S
H502 C510 0.930 . S
H503 C511 0.930 . S
H504 C514 0.930 . S
H505 C515 0.930 . S
C506 H500 0.930 . S
C506 C507 1.354 . S
C506 C508 1.415 . S
C507 C506 1.354 . S
C507 C509 1.420 1_556 S
C508 C506 1.415 . S
C508 C513 1.425 1_656 S
C508 C515 1.409 . S
C509 H501 0.930 . S
C509 C507 1.420 1_554 S
C509 C510 1.362 1_655 S
C510 H502 0.930 . S
C510 C509 1.362 1_455 S
C510 C513 1.409 . S
C511 H503 0.930 . S
C511 C512 1.355 . S
C511 C513 1.415 . S
C512 C511 1.355 . S
C512 C514 1.419 1_554 S
C513 C508 1.425 1_454 S
C513 C510 1.409 . S
C513 C511 1.415 . S
C514 H504 0.930 . S
C514 C512 1.419 1_556 S
C514 C515 1.362 1_455 S
C515 H505 0.930 . S
C515 C508 1.409 . S
C515 C514 1.362 1_655 S
H516 C522 0.930 . S
H517 C525 0.930 . S
H518 C526 0.930 . S
H519 C527 0.930 . S
H520 C530 0.930 . S
H521 C531 0.930 . S
C522 H516 0.930 . S
C522 C523 1.355 . S
C522 C524 1.415 1_455 S
C523 C522 1.355 . S
C523 C525 1.419 . S
C524 C522 1.415 1_655 S
C524 C529 1.425 1_655 S
C524 C531 1.409 . S
C525 H517 0.930 . S
C525 C523 1.419 . S
C525 C526 1.362 . S
C526 H518 0.930 . S
C526 C525 1.362 . S
C526 C529 1.409 . S
C527 H519 0.930 . S
C527 C528 1.355 . S
C527 C529 1.415 1_655 S
C528 C527 1.355 . S
C528 C530 1.419 . S
C529 C524 1.425 1_455 S
C529 C526 1.409 . S
C529 C527 1.415 1_455 S
C530 H520 0.930 . S
C530 C528 1.419 . S
C530 C531 1.362 . S
C531 H521 0.930 . S
C531 C524 1.409 . S
C531 C530 1.362 . S
H532 C538 0.930 . S
H533 C541 0.930 . S
H534 C542 0.930 . S
H535 C543 0.930 . S
H536 C546 0.930 . S
H537 C547 0.930 . S
C538 H532 0.930 . S
C538 C539 1.355 . S
C538 C540 1.415 . S
C539 C538 1.355 . S
C539 C541 1.419 . S
C540 C538 1.415 . S
C540 C545 1.425 1_545 S
C540 C547 1.409 . S
C541 H533 0.930 . S
C541 C539 1.419 . S
C541 C542 1.362 1_545 S
C542 H534 0.930 . S
C542 C541 1.362 1_565 S
C542 C545 1.409 . S
C543 H535 0.930 . S
C543 C544 1.355 . S
C543 C545 1.415 . S
C544 C543 1.355 . S
C544 C546 1.419 . S
C545 C540 1.425 1_565 S
C545 C542 1.409 . S
C545 C543 1.415 . S
C546 H536 0.930 . S
C546 C544 1.419 . S
C546 C547 1.362 1_565 S
C547 H537 0.930 . S
C547 C540 1.409 . S
C547 C546 1.362 1_545 S
H548 C554 0.930 . S
H549 C557 0.930 . S
H550 C558 0.930 . S
H551 C559 0.929 1_556 S
H552 C562 0.931 . S
H553 C563 0.932 . S
C554 H548 0.930 . S
C554 C555 1.355 . S
C554 C556 1.415 . S
C555 C554 1.355 . S
C555 C557 1.419 . S
C556 C554 1.415 . S
C556 C561 1.426 . S
C556 C563 1.408 1_554 S
C557 H549 0.930 . S
C557 C555 1.419 . S
C557 C558 1.362 . S
C558 H550 0.930 . S
C558 C557 1.362 . S
C558 C561 1.409 . S
C559 H551 0.929 1_554 S
C559 C560 1.355 1_554 S
C559 C561 1.415 . S
C560 C559 1.355 1_556 S
C560 C562 1.419 . S
C561 C556 1.426 . S
C561 C558 1.409 . S
C561 C559 1.415 . S
C562 H552 0.931 . S
C562 C560 1.419 . S
C562 C563 1.362 . S
C563 H553 0.932 . S
C563 C556 1.408 1_556 S
C563 C562 1.362 . S
H564 C570 0.930 . S
H565 C573 0.930 . S
H566 C574 0.930 . S
H567 C575 0.930 . S
H568 C578 0.930 . S
H569 C579 0.930 . S
C570 H564 0.930 . S
C570 C571 1.355 . S
C570 C572 1.415 . S
C571 C570 1.355 . S
C571 C573 1.419 . S
C572 C570 1.415 . S
C572 C577 1.425 . S
C572 C579 1.409 . S
C573 H565 0.930 . S
C573 C571 1.419 . S
C573 C574 1.362 . S
C574 H566 0.930 . S
C574 C573 1.362 . S
C574 C577 1.409 . S
C575 H567 0.930 . S
C575 C576 1.355 . S
C575 C577 1.415 . S
C576 C575 1.355 . S
C576 C578 1.419 . S
C577 C572 1.425 . S
C577 C574 1.409 . S
C577 C575 1.415 . S
C578 H568 0.930 . S
C578 C576 1.419 . S
C578 C579 1.362 . S
C579 H569 0.930 . S
C579 C572 1.409 . S
C579 C578 1.362 . S
H580 C586 0.930 . S
H581 C589 0.930 . S
H582 C590 0.930 . S
H583 C591 0.930 . S
H584 C594 0.930 . S
H585 C595 0.930 . S
C586 H580 0.930 . S
C586 C587 1.355 . S
C586 C588 1.415 . S
C587 C586 1.355 . S
C587 C589 1.419 . S
C588 C586 1.415 . S
C588 C593 1.425 . S
C588 C595 1.409 . S
C589 H581 0.930 . S
C589 C587 1.419 . S
C589 C590 1.362 . S
C590 H582 0.930 . S
C590 C589 1.362 . S
C590 C593 1.409 . S
C591 H583 0.930 . S
C591 C592 1.355 . S
C591 C593 1.415 . S
C592 C591 1.355 . S
C592 C594 1.419 . S
C593 C588 1.425 . S
C593 C590 1.409 . S
C593 C591 1.415 . S
C594 H584 0.930 . S
C594 C592 1.419 . S
C594 C595 1.362 . S
C595 H585 0.930 . S
C595 C588 1.409 . S
C595 C594 1.362 . S
H596 C602 0.930 . S
H597 C605 0.930 . S
H598 C606 0.930 . S
H599 C607 0.930 . S
H600 C610 0.930 . S
H601 C611 0.930 . S
C602 H596 0.930 . S
C602 C603 1.355 . S
C602 C604 1.415 . S
C603 C602 1.355 . S
C603 C605 1.419 . S
C604 C602 1.415 . S
C604 C609 1.425 . S
C604 C611 1.409 . S
C605 H597 0.930 . S
C605 C603 1.419 . S
C605 C606 1.362 . S
C606 H598 0.930 . S
C606 C605 1.362 . S
C606 C609 1.409 . S
C607 H599 0.930 . S
C607 C608 1.355 . S
C607 C609 1.415 . S
C608 C607 1.355 . S
C608 C610 1.419 . S
C609 C604 1.425 . S
C609 C606 1.409 . S
C609 C607 1.415 . S
C610 H600 0.930 . S
C610 C608 1.419 . S
C610 C611 1.362 . S
C611 H601 0.930 . S
C611 C604 1.409 . S
C611 C610 1.362 . S
H612 C618 0.930 . S
H613 C621 0.930 . S
H614 C622 0.930 . S
H615 C623 0.930 . S
H616 C626 0.930 . S
H617 C627 0.930 . S
C618 H612 0.930 . S
C618 C619 1.355 . S
C618 C620 1.415 . S
C619 C618 1.355 . S
C619 C621 1.419 . S
C620 C618 1.415 . S
C620 C625 1.425 . S
C620 C627 1.409 . S
C621 H613 0.930 . S
C621 C619 1.419 . S
C621 C622 1.362 . S
C622 H614 0.930 . S
C622 C621 1.362 . S
C622 C625 1.409 . S
C623 H615 0.930 . S
C623 C624 1.355 . S
C623 C625 1.415 . S
C624 C623 1.355 . S
C624 C626 1.419 . S
C625 C620 1.425 . S
C625 C622 1.409 . S
C625 C623 1.415 . S
C626 H616 0.930 . S
C626 C624 1.419 . S
C626 C627 1.362 . S
C627 H617 0.930 . S
C627 C620 1.409 . S
C627 C626 1.362 . S
H628 C634 0.930 . S
H629 C637 0.930 . S
H630 C638 0.930 . S
H631 C639 0.930 . S
H632 C642 0.930 . S
H633 C643 0.930 . S
C634 H628 0.930 . S
C634 C635 1.355 . S
C634 C636 1.415 . S
C635 C634 1.355 . S
C635 C637 1.419 . S
C636 C634 1.415 . S
C636 C641 1.425 . S
C636 C643 1.409 . S
C637 H629 0.930 . S
C637 C635 1.419 . S
C637 C638 1.362 . S
C638 H630 0.930 . S
C638 C637 1.362 . S
C638 C641 1.409 . S
C639 H631 0.930 . S
C639 C640 1.355 . S
C639 C641 1.415 . S
C640 C639 1.355 . S
C640 C642 1.419 . S
C641 C636 1.425 . S
C641 C638 1.409 . S
C641 C639 1.415 . S
C642 H632 0.930 . S
C642 C640 1.419 . S
C642 C643 1.362 . S
C643 H633 0.930 . S
C643 C636 1.409 . S
C643 C642 1.362 . S
H644 C650 0.930 . S
H645 C653 0.930 . S
H646 C654 0.930 . S
H647 C655 0.930 . S
H648 C658 0.930 . S
H649 C659 0.930 . S
C650 H644 0.930 . S
C650 C651 1.355 . S
C650 C652 1.415 . S
C651 C650 1.355 . S
C651 C653 1.419 . S
C652 C650 1.415 . S
C652 C657 1.425 . S
C652 C659 1.409 . S
C653 H645 0.930 . S
C653 C651 1.419 . S
C653 C654 1.362 . S
C654 H646 0.930 . S
C654 C653 1.362 . S
C654 C657 1.409 . S
C655 H647 0.930 . S
C655 C656 1.355 . S
C655 C657 1.415 . S
C656 C655 1.355 . S
C656 C658 1.419 . S
C657 C652 1.425 . S
C657 C654 1.409 . S
C657 C655 1.415 . S
C658 H648 0.930 . S
C658 C656 1.419 . S
C658 C659 1.362 . S
C659 H649 0.930 . S
C659 C652 1.409 . S
C659 C658 1.362 . S
C283 C7 1.851 . S
C288 C237 1.826 . S
C299 C30 1.446 . S
C304 N255 1.327 . S
C315 C145 1.429 . S
C320 N48 1.384 . S
C331 C76 1.802 . S
C336 C168 1.796 . S
C347 N186 1.396 . S
C352 C99 1.420 . S
C363 C214 1.409 . S
C368 N117 1.403 . S
C379 N140 0.918 . S
C384 N2 1.098 . S
C395 N163 1.030 . S
C400 N25 1.037 . S
C411 C191 1.563 . S
C416 C53 1.616 . S
C427 N71 1.072 . S
C432 N209 0.986 . S
C443 N94 1.014 . S
C448 N232 0.985 . S
C459 C122 1.569 . S
C464 C260 1.599 . S
C475 N12 2.488 . S
C480 N81 2.466 . S
C491 N35 2.270 . S
C496 N104 2.288 . S
C507 C62 2.480 . S
C512 C131 2.481 1_554 S
C523 N219 2.248 . S
C528 N150 2.226 . S
C539 N242 2.483 . S
C544 N173 2.488 . S
C555 C269 2.476 . S
C560 C200 2.481 1_556 S
C571 C16 2.152 . S
C576 N196 2.180 . S
C587 C223 1.876 . S
C592 C39 1.882 . S
C603 N58 2.179 . S
C608 C246 2.178 . S
C619 N265 2.172 . S
C624 C85 2.168 . S
C635 C108 1.872 . S
C640 C154 1.877 . S
C651 N127 2.179 . S
C656 C177 2.153 . S
