# Generated by pormake.
# Topology fnl, (5)-cn, num edge types: 1
# Building blocks:
#     Node 0, Type 0, BuildingBlock: BEQFEK_clean_sbu_0, # of connection points: 5
#     Node 1, Type 0, BuildingBlock: BEQFEK_clean_sbu_0, # of connection points: 5
#     Node 2, Type 0, BuildingBlock: BEQFEK_clean_sbu_0, # of connection points: 5
#     Node 3, Type 0, BuildingBlock: BEQFEK_clean_sbu_0, # of connection points: 5
#     Node 4, Type 0, BuildingBlock: BEQFEK_clean_sbu_0, # of connection points: 5
#     Node 5, Type 0, BuildingBlock: BEQFEK_clean_sbu_0, # of connection points: 5
#     Node 6, Type 0, BuildingBlock: BEQFEK_clean_sbu_0, # of connection points: 5
#     Node 7, Type 0, BuildingBlock: BEQFEK_clean_sbu_0, # of connection points: 5
#     Node 8, Type 0, BuildingBlock: BEQFEK_clean_sbu_0, # of connection points: 5
#     Node 9, Type 0, BuildingBlock: BEQFEK_clean_sbu_0, # of connection points: 5
#     Node 10, Type 0, BuildingBlock: BEQFEK_clean_sbu_0, # of connection points: 5
#     Node 11, Type 0, BuildingBlock: BEQFEK_clean_sbu_0, # of connection points: 5
#     Node 12, Type 0, BuildingBlock: BEQFEK_clean_sbu_0, # of connection points: 5
#     Node 13, Type 0, BuildingBlock: BEQFEK_clean_sbu_0, # of connection points: 5
#     Node 14, Type 0, BuildingBlock: BEQFEK_clean_sbu_0, # of connection points: 5
#     Node 15, Type 0, BuildingBlock: BEQFEK_clean_sbu_0, # of connection points: 5
#     Edge 16, Type (0, 0), BuildingBlock: EZIPEK_clean_linker_0, # of connection points: 2
#     Edge 17, Type (0, 0), BuildingBlock: EZIPEK_clean_linker_0, # of connection points: 2
#     Edge 18, Type (0, 0), BuildingBlock: EZIPEK_clean_linker_0, # of connection points: 2
#     Edge 19, Type (0, 0), BuildingBlock: EZIPEK_clean_linker_0, # of connection points: 2
#     Edge 20, Type (0, 0), BuildingBlock: EZIPEK_clean_linker_0, # of connection points: 2
#     Edge 21, Type (0, 0), BuildingBlock: EZIPEK_clean_linker_0, # of connection points: 2
#     Edge 22, Type (0, 0), BuildingBlock: EZIPEK_clean_linker_0, # of connection points: 2
#     Edge 23, Type (0, 0), BuildingBlock: EZIPEK_clean_linker_0, # of connection points: 2
#     Edge 24, Type (0, 0), BuildingBlock: EZIPEK_clean_linker_0, # of connection points: 2
#     Edge 25, Type (0, 0), BuildingBlock: EZIPEK_clean_linker_0, # of connection points: 2
#     Edge 26, Type (0, 0), BuildingBlock: EZIPEK_clean_linker_0, # of connection points: 2
#     Edge 27, Type (0, 0), BuildingBlock: EZIPEK_clean_linker_0, # of connection points: 2
#     Edge 28, Type (0, 0), BuildingBlock: EZIPEK_clean_linker_0, # of connection points: 2
#     Edge 29, Type (0, 0), BuildingBlock: EZIPEK_clean_linker_0, # of connection points: 2
#     Edge 30, Type (0, 0), BuildingBlock: EZIPEK_clean_linker_0, # of connection points: 2
#     Edge 31, Type (0, 0), BuildingBlock: EZIPEK_clean_linker_0, # of connection points: 2
#     Edge 32, Type (0, 0), BuildingBlock: EZIPEK_clean_linker_0, # of connection points: 2
#     Edge 33, Type (0, 0), BuildingBlock: EZIPEK_clean_linker_0, # of connection points: 2
#     Edge 34, Type (0, 0), BuildingBlock: EZIPEK_clean_linker_0, # of connection points: 2
#     Edge 35, Type (0, 0), BuildingBlock: EZIPEK_clean_linker_0, # of connection points: 2
#     Edge 36, Type (0, 0), BuildingBlock: EZIPEK_clean_linker_0, # of connection points: 2
#     Edge 37, Type (0, 0), BuildingBlock: EZIPEK_clean_linker_0, # of connection points: 2
#     Edge 38, Type (0, 0), BuildingBlock: EZIPEK_clean_linker_0, # of connection points: 2
#     Edge 39, Type (0, 0), BuildingBlock: EZIPEK_clean_linker_0, # of connection points: 2
#     Edge 40, Type (0, 0), BuildingBlock: EZIPEK_clean_linker_0, # of connection points: 2
#     Edge 41, Type (0, 0), BuildingBlock: EZIPEK_clean_linker_0, # of connection points: 2
#     Edge 42, Type (0, 0), BuildingBlock: EZIPEK_clean_linker_0, # of connection points: 2
#     Edge 43, Type (0, 0), BuildingBlock: EZIPEK_clean_linker_0, # of connection points: 2
#     Edge 44, Type (0, 0), BuildingBlock: EZIPEK_clean_linker_0, # of connection points: 2
#     Edge 45, Type (0, 0), BuildingBlock: EZIPEK_clean_linker_0, # of connection points: 2
#     Edge 46, Type (0, 0), BuildingBlock: EZIPEK_clean_linker_0, # of connection points: 2
#     Edge 47, Type (0, 0), BuildingBlock: EZIPEK_clean_linker_0, # of connection points: 2
#     Edge 48, Type (0, 0), BuildingBlock: EZIPEK_clean_linker_0, # of connection points: 2
#     Edge 49, Type (0, 0), BuildingBlock: EZIPEK_clean_linker_0, # of connection points: 2
#     Edge 50, Type (0, 0), BuildingBlock: EZIPEK_clean_linker_0, # of connection points: 2
#     Edge 51, Type (0, 0), BuildingBlock: EZIPEK_clean_linker_0, # of connection points: 2
#     Edge 52, Type (0, 0), BuildingBlock: EZIPEK_clean_linker_0, # of connection points: 2
#     Edge 53, Type (0, 0), BuildingBlock: EZIPEK_clean_linker_0, # of connection points: 2
#     Edge 54, Type (0, 0), BuildingBlock: EZIPEK_clean_linker_0, # of connection points: 2
#     Edge 55, Type (0, 0), BuildingBlock: EZIPEK_clean_linker_0, # of connection points: 2
# Relax obj value: 0.414
# Max RMSD: 0.243
# Mean RMSD: 0.243
data_MOF--net-fnl--node1-BEQFEK_clean_sbu_0--edge1-EZIPEK_clean_linker_0
_symmetry_space_group_name_H-M    P1
_symmetry_Int_Tables_number       1
_symmetry_cell_setting            triclinic
loop_
_symmetry_equiv_pos_as_xyz
'x, y, z'
_cell_length_a     28.269621
_cell_length_b     28.211977
_cell_length_c     75.391637
_cell_angle_alpha  89.939483
_cell_angle_beta   89.997951
_cell_angle_gamma 90.032471
loop_
_atom_site_label
_atom_site_type_symbol
_atom_site_fract_x
_atom_site_fract_y
_atom_site_fract_z
_atom_type_partial_charge
Co0 Co 0.00217 0.07467 0.08855 0.0
Co1 Co 0.0049 0.18094 0.09895 0.0
C2 C 0.92506 0.11527 0.11077 0.0
O3 O 0.94427 0.08056 0.10273 0.0
O4 O 0.94355 0.15685 0.11044 0.0
C5 C 0.03213 0.98103 0.08215 0.0
O6 O 0.04494 0.98034 0.0989 0.0
C7 C 0.98436 0.28516 0.1002 0.0
C8 C 0.05602 0.31209 0.1063 0.0
C9 C 0.01019 0.32638 0.10298 0.0
N10 N 0.01386 0.24793 0.10177 0.0
N11 N 0.05654 0.2645 0.10546 0.0
C12 C 0.93282 0.28144 0.09608 0.0
H13 H 0.91217 0.29163 0.108 0.0
H14 H 0.92345 0.24469 0.09218 0.0
H15 H 0.92348 0.30655 0.08529 0.0
C16 C 0.00472 0.11327 0.05272 0.0
N17 N 0.00439 0.11955 0.07041 0.0
N18 N 0.00585 0.16504 0.07411 0.0
C19 C 0.00709 0.18927 0.05859 0.0
C20 C 0.00641 0.15694 0.04464 0.0
C21 C 0.00247 0.06624 0.04353 0.0
H22 H 0.97083 0.04648 0.04813 0.0
H23 H 0.00057 0.07003 0.0289 0.0
H24 H 0.03461 0.04546 0.0468 0.0
O25 O 0.05853 0.07787 0.10335 0.0
O26 O 0.06209 0.15308 0.11135 0.0
H27 H 0.03649 0.2562 0.06584 0.0
H28 H 0.01504 0.25332 0.04318 0.0
C29 C 0.0084 0.24197 0.05706 0.0
H30 H 0.97399 0.25658 0.0615 0.0
H31 H 0.08639 0.24328 0.1072 0.0
O32 O 0.00697 0.01472 0.07646 0.0
C33 C 0.07864 0.11114 0.1117 0.0
Co34 Co 0.35048 0.89157 0.3306 0.0
Co35 Co 0.24559 0.89744 0.34271 0.0
C36 C 0.30559 0.80914 0.34879 0.0
O37 O 0.34104 0.82834 0.34109 0.0
O38 O 0.26585 0.83085 0.35005 0.0
C39 C 0.44409 0.92056 0.32893 0.0
O40 O 0.44321 0.91416 0.3462 0.0
C41 C 0.14155 0.88172 0.3465 0.0
C42 C 0.11799 0.95624 0.34891 0.0
C43 C 0.10171 0.9101 0.34835 0.0
N44 N 0.1798 0.91006 0.34592 0.0
N45 N 0.16535 0.95444 0.34746 0.0
C46 C 0.14332 0.82893 0.34509 0.0
H47 H 0.17113 0.81831 0.33548 0.0
H48 H 0.10852 0.8143 0.34102 0.0
H49 H 0.15292 0.81398 0.35822 0.0
C50 C 0.31059 0.90951 0.29597 0.0
N51 N 0.30556 0.90533 0.31362 0.0
N52 N 0.26067 0.90761 0.31797 0.0
C53 C 0.23531 0.91244 0.30282 0.0
C54 C 0.26643 0.91402 0.28846 0.0
C55 C 0.35673 0.90551 0.2863 0.0
H56 H 0.37978 0.93572 0.29004 0.0
H57 H 0.37469 0.87213 0.2902 0.0
H58 H 0.35197 0.90596 0.27169 0.0
O59 O 0.35001 0.93696 0.34953 0.0
O60 O 0.2774 0.94371 0.35967 0.0
H61 H 0.16779 0.94026 0.31005 0.0
H62 H 0.16985 0.91469 0.28804 0.0
C63 C 0.18258 0.91113 0.3019 0.0
H64 H 0.16994 0.87707 0.30753 0.0
H65 H 0.18794 0.98371 0.34727 0.0
O66 O 0.41122 0.90346 0.31954 0.0
C67 C 0.32095 0.95495 0.36027 0.0
Co68 Co 0.52866 0.26324 0.58865 0.0
Co69 Co 0.51673 0.15782 0.59985 0.0
C70 C 0.60337 0.21699 0.60978 0.0
O71 O 0.58687 0.25277 0.6016 0.0
O72 O 0.58126 0.17724 0.61009 0.0
C73 C 0.5024 0.35703 0.58227 0.0
O74 O 0.49145 0.35843 0.5992 0.0
C75 C 0.52915 0.05287 0.59877 0.0
C76 C 0.46074 0.02974 0.61008 0.0
C77 C 0.50253 0.01307 0.60296 0.0
N78 N 0.50401 0.09162 0.60316 0.0
N79 N 0.46327 0.07736 0.60997 0.0
C80 C 0.57731 0.05388 0.59064 0.0
H81 H 0.58651 0.09032 0.58625 0.0
H82 H 0.57883 0.02899 0.57926 0.0
H83 H 0.60355 0.04175 0.60061 0.0
C84 C 0.51614 0.22487 0.55333 0.0
N85 N 0.51963 0.21851 0.57095 0.0
N86 N 0.51172 0.17386 0.57498 0.0
C87 C 0.50174 0.15051 0.55973 0.0
C88 C 0.50443 0.18237 0.54564 0.0
C89 C 0.52328 0.27105 0.54384 0.0
H90 H 0.55693 0.28752 0.54822 0.0
H91 H 0.52438 0.26655 0.52924 0.0
H92 H 0.49353 0.29516 0.54704 0.0
O93 O 0.47527 0.26466 0.60499 0.0
O94 O 0.46577 0.19051 0.61391 0.0
H95 H 0.47137 0.09124 0.54573 0.0
H96 H 0.52154 0.0777 0.55954 0.0
C97 C 0.48892 0.0993 0.55855 0.0
H98 H 0.46514 0.08973 0.56968 0.0
H99 H 0.43666 0.1002 0.6143 0.0
O100 O 0.52742 0.32339 0.5765 0.0
C101 C 0.4539 0.23398 0.61426 0.0
Co102 Co 0.16329 0.43246 0.83233 0.0
Co103 Co 0.26507 0.41915 0.84726 0.0
C104 C 0.2064 0.50911 0.85355 0.0
O105 O 0.17209 0.49313 0.84432 0.0
O106 O 0.24476 0.48531 0.85544 0.0
C107 C 0.06923 0.40813 0.82717 0.0
O108 O 0.06711 0.41008 0.84456 0.0
C109 C 0.36953 0.43181 0.84958 0.0
C110 C 0.39035 0.36254 0.86089 0.0
C111 C 0.40832 0.40497 0.85468 0.0
N112 N 0.33013 0.40623 0.85257 0.0
N113 N 0.34297 0.365 0.85942 0.0
C114 C 0.37009 0.48062 0.84189 0.0
H115 H 0.33496 0.48977 0.83627 0.0
H116 H 0.39782 0.48328 0.83151 0.0
H117 H 0.37911 0.50631 0.8525 0.0
C118 C 0.20889 0.41812 0.79871 0.0
N119 N 0.21101 0.41981 0.81648 0.0
N120 N 0.25441 0.41194 0.82195 0.0
C121 C 0.28155 0.40454 0.80738 0.0
C122 C 0.25331 0.40839 0.79229 0.0
C123 C 0.16554 0.42872 0.78796 0.0
H124 H 0.14884 0.46182 0.79283 0.0
H125 H 0.17365 0.43264 0.77364 0.0
H126 H 0.13991 0.39921 0.78951 0.0
O127 O 0.15849 0.38399 0.85019 0.0
O128 O 0.2283 0.37209 0.86232 0.0
H129 H 0.34546 0.37968 0.79495 0.0
H130 H 0.35245 0.4292 0.80976 0.0
C131 C 0.33343 0.39532 0.80768 0.0
H132 H 0.34181 0.37089 0.81876 0.0
H133 H 0.31936 0.338 0.86278 0.0
O134 O 0.10478 0.42521 0.81927 0.0
C135 C 0.18428 0.36305 0.86139 0.0
Co136 Co 0.9743 0.26615 0.92891 0.0
Co137 Co 0.99614 0.16733 0.91349 0.0
C138 C 0.90984 0.22027 0.90195 0.0
O139 O 0.92349 0.25415 0.91179 0.0
O140 O 0.93261 0.18108 0.90169 0.0
C141 C 0.91891 0.3348 0.94891 0.0
O142 O 0.88232 0.30613 0.9486 0.0
C143 C 0.9958 0.06279 0.90801 0.0
C144 C 0.07081 0.05033 0.90118 0.0
C145 C 0.0281 0.02754 0.9038 0.0
N146 N 0.01844 0.10476 0.90794 0.0
N147 N 0.06323 0.09691 0.90379 0.0
C148 C 0.94441 0.05653 0.91199 0.0
H149 H 0.92553 0.04723 0.89957 0.0
H150 H 0.92921 0.08964 0.91753 0.0
H151 H 0.9394 0.02681 0.92147 0.0
C152 C 0.98737 0.21898 0.96267 0.0
N153 N 0.98432 0.21774 0.94491 0.0
N154 N 0.99325 0.17475 0.93911 0.0
C155 C 0.00088 0.14666 0.95344 0.0
C156 C 0.99723 0.17417 0.96873 0.0
C157 C 0.98387 0.26283 0.97374 0.0
H158 H 0.00335 0.29222 0.96727 0.0
H159 H 0.94612 0.27266 0.97518 0.0
H160 H -0.00127 0.25736 0.98721 0.0
O161 O 0.03277 0.2798 0.91653 0.0
O162 O 0.0445 0.21217 0.90232 0.0
H163 H 0.04326 0.09009 0.9435 0.0
H164 H 0.0218 0.08101 0.96592 0.0
C165 C 0.01287 0.09523 0.9526 0.0
H166 H 0.98219 0.07545 0.94722 0.0
H167 H 0.0889 0.12337 0.90293 0.0
O168 O 0.95737 0.32318 0.94138 0.0
C169 C 0.05562 0.25533 0.90532 0.0
Co170 Co 0.16324 0.90859 0.16943 0.0
Co171 Co 0.26769 0.91499 0.15764 0.0
C172 C 0.20087 0.83612 0.14485 0.0
O173 O 0.16683 0.85295 0.15396 0.0
O174 O 0.24201 0.8555 0.14507 0.0
C175 C 0.06717 0.9285 0.1744 0.0
O176 O 0.06402 0.9259 0.15703 0.0
C177 C 0.37132 0.89477 0.15476 0.0
C178 C 0.39717 0.9659 0.14706 0.0
C179 C 0.41194 0.92033 0.15075 0.0
N180 N 0.33397 0.92417 0.15352 0.0
N181 N 0.34988 0.96652 0.14887 0.0
C182 C 0.36821 0.84355 0.15963 0.0
H183 H 0.33193 0.83442 0.16413 0.0
H184 H 0.39423 0.83532 0.17022 0.0
H185 H 0.37747 0.82175 0.14789 0.0
C186 C 0.20524 0.9063 0.20468 0.0
N187 N 0.20989 0.9079 0.18695 0.0
N188 N 0.25478 0.91205 0.18268 0.0
C189 C 0.28025 0.91385 0.19789 0.0
C190 C 0.24937 0.91024 0.21224 0.0
C191 C 0.15917 0.90163 0.21436 0.0
H192 H 0.13881 0.87148 0.20881 0.0
H193 H 0.16437 0.8957 0.22878 0.0
H194 H 0.13832 0.93459 0.21258 0.0
O195 O 0.16445 0.96701 0.15551 0.0
O196 O 0.2389 0.97428 0.14732 0.0
H197 H 0.34426 0.92951 0.21235 0.0
H198 H 0.34977 0.88612 0.19491 0.0
C199 C 0.33264 0.91992 0.19875 0.0
H200 H 0.34388 0.94773 0.18924 0.0
H201 H 0.32846 0.99624 0.14708 0.0
O202 O 0.10443 0.91475 0.18201 0.0
C203 C 0.19665 0.98968 0.1475 0.0
Co204 Co 0.51266 0.05585 0.43572 0.0
Co205 Co 0.49906 0.14961 0.41517 0.0
C206 C 0.5858 0.0866 0.41011 0.0
O207 O 0.57289 0.06286 0.42352 0.0
O208 O 0.56093 0.12197 0.40484 0.0
C209 C 0.55602 0.98282 0.45656 0.0
O210 O 0.59584 0.00617 0.4545 0.0
C211 C 0.51166 0.25299 0.40708 0.0
C212 C 0.44164 0.26976 0.39566 0.0
C213 C 0.4844 0.28991 0.40037 0.0
N214 N 0.48598 0.21274 0.40646 0.0
N215 N 0.4443 0.2232 0.3995 0.0
C216 C 0.56112 0.25611 0.41395 0.0
H217 H 0.57108 0.22293 0.42094 0.0
H218 H 0.56464 0.28699 0.42297 0.0
H219 H 0.58558 0.26183 0.40263 0.0
C220 C 0.49514 0.11152 0.4666 0.0
N221 N 0.49945 0.10762 0.44899 0.0
N222 N 0.49522 0.14918 0.44126 0.0
C223 C 0.48827 0.18153 0.45433 0.0
C224 C 0.48846 0.15835 0.47069 0.0
C225 C 0.49895 0.07111 0.47944 0.0
H226 H 0.47545 0.0418 0.47516 0.0
H227 H 0.53596 0.05818 0.47967 0.0
H228 H 0.48885 0.08171 0.49309 0.0
O229 O 0.46056 0.04184 0.4194 0.0
O230 O 0.44835 0.10812 0.4044 0.0
H231 H 0.4675 0.25069 0.46357 0.0
H232 H 0.51511 0.24973 0.44764 0.0
C233 C 0.481 0.23319 0.45139 0.0
H234 H 0.45545 0.23812 0.4404 0.0
H235 H 0.41709 0.19867 0.39771 0.0
O236 O 0.51803 0.00026 0.45042 0.0
C237 C 0.43839 0.06482 0.40752 0.0
Co238 Co 0.36267 0.44686 0.6747 0.0
Co239 Co 0.26039 0.42767 0.66227 0.0
C240 C 0.31507 0.5111 0.64826 0.0
O241 O 0.34925 0.49787 0.65795 0.0
O242 O 0.27575 0.48857 0.64854 0.0
C243 C 0.42471 0.50404 0.69578 0.0
O244 O 0.38995 0.53464 0.69725 0.0
C245 C 0.15583 0.43074 0.65785 0.0
C246 C 0.14068 0.35483 0.65323 0.0
C247 C 0.11952 0.39874 0.65477 0.0
N248 N 0.19692 0.40677 0.65815 0.0
N249 N 0.18749 0.36145 0.65534 0.0
C250 C 0.15138 0.48301 0.66048 0.0
H251 H 0.14057 0.4997 0.64778 0.0
H252 H 0.18552 0.49844 0.66491 0.0
H253 H 0.12333 0.49055 0.67039 0.0
C254 C 0.32054 0.43073 0.7095 0.0
N255 N 0.31628 0.43694 0.69191 0.0
N256 N 0.27163 0.43294 0.6873 0.0
C257 C 0.24572 0.4262 0.70221 0.0
C258 C 0.27627 0.42485 0.7167 0.0
C259 C 0.36625 0.42671 0.71935 0.0
H260 H 0.39428 0.41194 0.7107 0.0
H261 H 0.37647 0.46242 0.72407 0.0
H262 H 0.36236 0.40356 0.73118 0.0
O263 O 0.37402 0.38845 0.66152 0.0
O264 O 0.30035 0.37369 0.65306 0.0
H265 H 0.18495 0.38608 0.69481 0.0
H266 H 0.18023 0.41426 0.71631 0.0
C267 C 0.1935 0.41841 0.70254 0.0
H268 H 0.17559 0.44889 0.69613 0.0
H269 H 0.21304 0.3348 0.65502 0.0
O270 O 0.41978 0.46653 0.68662 0.0
C271 C 0.34411 0.36268 0.65342 0.0
Co272 Co 0.6696 0.41373 0.66811 0.0
Co273 Co 0.77463 0.42151 0.65647 0.0
C274 C 0.71478 0.33524 0.64782 0.0
O275 O 0.67937 0.35359 0.6557 0.0
O276 O 0.75493 0.3564 0.64726 0.0
C277 C 0.57557 0.43955 0.67394 0.0
O278 O 0.57471 0.44828 0.65682 0.0
C279 C 0.87925 0.40738 0.65486 0.0
C280 C 0.90173 0.47952 0.64701 0.0
C281 C 0.91868 0.43506 0.65126 0.0
N282 N 0.84043 0.43445 0.65286 0.0
N283 N 0.85429 0.47744 0.64812 0.0
C284 C 0.87871 0.35638 0.66018 0.0
H285 H 0.84296 0.34572 0.6648 0.0
H286 H 0.9052 0.35008 0.67079 0.0
H287 H 0.88887 0.33436 0.6486 0.0
C288 C 0.70979 0.42514 0.70331 0.0
N289 N 0.71492 0.42348 0.68559 0.0
N290 N 0.75987 0.42707 0.68137 0.0
C291 C 0.78494 0.43102 0.69662 0.0
C292 C 0.75375 0.42984 0.71092 0.0
C293 C 0.66383 0.41931 0.713 0.0
H294 H 0.64005 0.44923 0.70961 0.0
H295 H 0.64674 0.38566 0.7089 0.0
H296 H 0.66871 0.41884 0.7276 0.0
O297 O 0.66791 0.46567 0.65112 0.0
O298 O 0.74175 0.47181 0.64176 0.0
H299 H 0.84943 0.4431 0.71125 0.0
H300 H 0.85296 0.39947 0.69379 0.0
C301 C 0.83753 0.43407 0.69763 0.0
H302 H 0.85021 0.46139 0.68818 0.0
H303 H 0.8313 0.50572 0.64586 0.0
O304 O 0.60989 0.41689 0.68047 0.0
C305 C 0.69868 0.48496 0.64132 0.0
Co306 Co 0.85085 0.93841 0.17592 0.0
Co307 Co 0.75155 0.91982 0.16049 0.0
C308 C 0.80268 0.00782 0.15107 0.0
O309 O 0.83646 0.99198 0.16042 0.0
O310 O 0.76329 0.98558 0.15022 0.0
C311 C 0.91318 0.99709 0.19588 0.0
O312 O 0.88074 0.03026 0.19482 0.0
C313 C 0.64716 0.91735 0.15531 0.0
C314 C 0.63666 0.84204 0.14826 0.0
C315 C 0.6128 0.88401 0.15122 0.0
N316 N 0.68971 0.89604 0.15486 0.0
N317 N 0.68305 0.85107 0.15055 0.0
C318 C 0.63945 0.96842 0.15965 0.0
H319 H 0.62868 0.98752 0.14743 0.0
H320 H 0.67229 0.98461 0.16498 0.0
H321 H 0.61026 0.97196 0.16941 0.0
C322 C 0.80558 0.91873 0.20946 0.0
N323 N 0.80384 0.92353 0.19177 0.0
N324 N 0.76033 0.91768 0.18607 0.0
C325 C 0.73242 0.91064 0.20046 0.0
C326 C 0.76052 0.9113 0.21565 0.0
C327 C 0.84949 0.9219 0.22049 0.0
H328 H 0.87958 0.90499 0.21352 0.0
H329 H 0.85773 0.95973 0.22297 0.0
H330 H 0.84458 0.90424 0.23352 0.0
O331 O 0.86601 0.88433 0.16139 0.0
O332 O 0.79736 0.8763 0.14743 0.0
H333 H 0.67246 0.87366 0.19068 0.0
H334 H 0.66568 0.89531 0.21315 0.0
C335 C 0.68023 0.90339 0.19981 0.0
H336 H 0.66311 0.93581 0.19457 0.0
H337 H 0.7102 0.82621 0.14947 0.0
O338 O 0.90652 0.95698 0.18867 0.0
C339 C 0.84084 0.86517 0.14945 0.0
Co340 Co 0.85252 0.39234 0.82961 0.0
Co341 Co 0.74983 0.41263 0.84126 0.0
C342 C 0.80259 0.32884 0.85568 0.0
O343 O 0.83747 0.34179 0.84629 0.0
O344 O 0.76353 0.35168 0.85513 0.0
C345 C 0.91609 0.33242 0.81061 0.0
O346 O 0.88169 0.30119 0.8099 0.0
C347 C 0.64551 0.40941 0.84578 0.0
C348 C 0.62967 0.48575 0.84881 0.0
C349 C 0.60893 0.4414 0.84838 0.0
N350 N 0.68629 0.43379 0.84476 0.0
N351 N 0.67647 0.47937 0.84658 0.0
C352 C 0.64174 0.35671 0.84446 0.0
H353 H 0.63481 0.34189 0.85785 0.0
H354 H 0.67504 0.34138 0.83918 0.0
H355 H 0.61157 0.34682 0.8358 0.0
C356 C 0.81227 0.40633 0.79437 0.0
N357 N 0.80722 0.40171 0.812 0.0
N358 N 0.76248 0.40685 0.81632 0.0
C359 C 0.73727 0.41309 0.80122 0.0
C360 C 0.76838 0.41281 0.78688 0.0
C361 C 0.85847 0.40748 0.78473 0.0
H362 H 0.88642 0.42334 0.79314 0.0
H363 H 0.86821 0.3707 0.78117 0.0
H364 H 0.8557 0.42819 0.77224 0.0
O365 O 0.86346 0.45101 0.84274 0.0
O366 O 0.78964 0.46617 0.85094 0.0
H367 H 0.67652 0.45438 0.80776 0.0
H368 H 0.67227 0.42387 0.7867 0.0
C369 C 0.68511 0.42119 0.80058 0.0
H370 H 0.66682 0.39157 0.80741 0.0
H371 H 0.70178 0.50628 0.84623 0.0
O372 O 0.91039 0.37185 0.81848 0.0
C373 C 0.8335 0.47684 0.85077 0.0
Co374 Co 0.65854 0.94131 0.33455 0.0
Co375 Co 0.76 0.91236 0.34573 0.0
C376 C 0.71034 0.99534 0.36258 0.0
O377 O 0.67559 0.98794 0.35236 0.0
O378 O 0.74732 0.96923 0.36188 0.0
C379 C 0.595 0.00696 0.3179 0.0
O380 O 0.6288 0.03883 0.31863 0.0
C381 C 0.86491 0.91038 0.34892 0.0
C382 C 0.87748 0.83315 0.35059 0.0
C383 C 0.90023 0.87648 0.3502 0.0
N384 N 0.82286 0.8881 0.34856 0.0
N385 N 0.83075 0.84196 0.34967 0.0
C386 C 0.87127 0.9628 0.34747 0.0
H387 H 0.88484 0.97664 0.36027 0.0
H388 H 0.83721 0.98036 0.34423 0.0
H389 H 0.89801 0.97101 0.33713 0.0
C390 C 0.69768 0.93162 0.29913 0.0
N391 N 0.70324 0.9332 0.31681 0.0
N392 N 0.74739 0.92366 0.32094 0.0
C393 C 0.77175 0.91717 0.30566 0.0
C394 C 0.7407 0.92216 0.29144 0.0
C395 C 0.65142 0.93576 0.28964 0.0
H396 H 0.62292 0.91846 0.29739 0.0
H397 H 0.64326 0.97385 0.28792 0.0
H398 H 0.65297 0.9193 0.27629 0.0
O399 O 0.64528 0.88039 0.34628 0.0
O400 O 0.7181 0.85927 0.3541 0.0
H401 H 0.82784 0.86935 0.31167 0.0
H402 H 0.83462 0.9 0.2907 0.0
C403 C 0.82265 0.90354 0.30466 0.0
H404 H 0.84426 0.93086 0.31144 0.0
H405 H 0.80418 0.81628 0.34946 0.0
O406 O 0.60118 0.96551 0.32411 0.0
C407 C 0.67368 0.85144 0.35365 0.0
Co408 Co 0.49106 0.56676 0.57652 0.0
Co409 Co 0.50714 0.67091 0.58708 0.0
C410 C 0.42442 0.61709 0.60153 0.0
O411 O 0.43907 0.58189 0.59264 0.0
O412 O 0.44599 0.65695 0.60072 0.0
C413 C 0.43495 0.5012 0.55667 0.0
O414 O 0.40356 0.53511 0.55479 0.0
C415 C 0.50342 0.77582 0.59154 0.0
C416 C 0.57993 0.79235 0.59163 0.0
C417 C 0.53566 0.81275 0.5929 0.0
N418 N 0.52766 0.73516 0.58957 0.0
N419 N 0.57332 0.74545 0.5896 0.0
C420 C 0.45074 0.77913 0.59236 0.0
H421 H 0.4397 0.78172 0.60645 0.0
H422 H 0.43429 0.74715 0.58641 0.0
H423 H 0.43833 0.8115 0.58539 0.0
C424 C 0.50452 0.60499 0.54085 0.0
N425 N 0.50051 0.61092 0.55845 0.0
N426 N 0.50203 0.65629 0.56227 0.0
C427 C 0.50439 0.6809 0.54685 0.0
C428 C 0.50587 0.64874 0.53282 0.0
C429 C 0.50886 0.55838 0.53159 0.0
H430 H 0.52481 0.53143 0.54046 0.0
H431 H 0.47321 0.54693 0.52726 0.0
H432 H 0.53112 0.56184 0.51952 0.0
O433 O 0.5488 0.5578 0.59027 0.0
O434 O 0.56119 0.63281 0.5977 0.0
H435 H 0.53994 0.74657 0.55116 0.0
H436 H 0.5027 0.7458 0.53164 0.0
C437 C 0.50593 0.73372 0.54561 0.0
H438 H 0.47696 0.74906 0.55369 0.0
H439 H 0.60013 0.7203 0.58823 0.0
O440 O 0.47248 0.50796 0.56564 0.0
C441 C 0.57313 0.58917 0.59822 0.0
Co442 Co 0.03009 0.76562 0.07481 0.0
Co443 Co 0.00947 0.66642 0.09012 0.0
C444 C 0.09647 0.71806 0.10077 0.0
O445 O 0.08185 0.75192 0.09114 0.0
O446 O 0.07416 0.6786 0.1012 0.0
C447 C 0.08825 0.82966 0.05463 0.0
O448 O 0.12185 0.79756 0.05486 0.0
C449 C 0.00713 0.56197 0.09546 0.0
C450 C 0.93227 0.55144 0.103 0.0
C451 C 0.97416 0.52758 0.09995 0.0
N452 N 0.98571 0.60452 0.0958 0.0
N453 N 0.941 0.59785 0.10037 0.0
C454 C 0.058 0.55433 0.09094 0.0
H455 H 0.07387 0.58721 0.08543 0.0
H456 H 0.06134 0.52493 0.08124 0.0
H457 H 0.07743 0.54382 0.10311 0.0
C458 C 0.01234 0.72023 0.04113 0.0
N459 N 0.01696 0.71823 0.05882 0.0
N460 N 0.00907 0.67491 0.06451 0.0
C461 C 0.00041 0.64737 0.05012 0.0
C462 C 0.00249 0.67558 0.03493 0.0
C463 C 0.01528 0.76449 0.0302 0.0
H464 H -0.00183 0.79431 0.03727 0.0
H465 H 0.05298 0.77306 0.02775 0.0
H466 H 0.99769 0.75993 0.01715 0.0
O467 O 0.97432 0.78072 0.08852 0.0
O468 O 0.96484 0.71218 0.10253 0.0
H469 H 0.95984 0.58957 0.06014 0.0
H470 H 0.98013 0.58175 0.03751 0.0
C471 C 0.98959 0.59565 0.05082 0.0
H472 H 0.02092 0.57632 0.05588 0.0
H473 H 0.91617 0.62502 0.10149 0.0
O474 O 0.049 0.82174 0.06228 0.0
C475 C 0.95396 0.7557 0.10026 0.0
Co476 Co 0.47958 0.7406 0.41372 0.0
Co477 Co 0.4989 0.63628 0.40179 0.0
C478 C 0.41277 0.69231 0.38944 0.0
O479 O 0.42534 0.72783 0.39868 0.0
O480 O 0.43656 0.65357 0.38947 0.0
C481 C 0.49874 0.83539 0.42251 0.0
O482 O 0.51763 0.83852 0.40663 0.0
C483 C 0.49104 0.53041 0.39997 0.0
C484 C 0.56449 0.51181 0.39275 0.0
C485 C 0.52083 0.49226 0.39657 0.0
N486 N 0.51608 0.5708 0.39824 0.0
N487 N 0.5599 0.5592 0.39387 0.0
C488 C 0.4398 0.52838 0.40475 0.0
H489 H 0.41945 0.51467 0.39326 0.0
H490 H 0.42652 0.56411 0.40838 0.0
H491 H 0.43438 0.50341 0.41595 0.0
C492 C 0.48836 0.69975 0.44892 0.0
N493 N 0.48784 0.69471 0.43118 0.0
N494 N 0.497 0.65047 0.42692 0.0
C495 C 0.50386 0.62589 0.44218 0.0
C496 C 0.49863 0.65666 0.45651 0.0
C497 C 0.47979 0.74528 0.45864 0.0
H498 H 0.44569 0.76087 0.45431 0.0
H499 H 0.47865 0.74014 0.47322 0.0
H500 H 0.50879 0.77047 0.45559 0.0
O501 O 0.53573 0.74644 0.39903 0.0
O502 O 0.55089 0.67353 0.38973 0.0
H503 H 0.54391 0.56601 0.43351 0.0
H504 H 0.52668 0.56403 0.4567 0.0
C505 C 0.51544 0.57439 0.44312 0.0
H506 H 0.48355 0.55371 0.43946 0.0
H507 H 0.58703 0.58372 0.39187 0.0
O508 O 0.4735 0.7999 0.42641 0.0
C509 C 0.56032 0.7177 0.39006 0.0
Co510 Co 0.0181 0.57525 0.91602 0.0
Co511 Co 0.00708 0.6809 0.90454 0.0
C512 C 0.09205 0.62065 0.8939 0.0
O513 O 0.07589 0.58506 0.90235 0.0
O514 O 0.07044 0.66065 0.89382 0.0
C515 C 0.99052 0.48169 0.92295 0.0
O516 O 0.97808 0.48063 0.90616 0.0
C517 C 0.02126 0.78591 0.90365 0.0
C518 C 0.95052 0.80875 0.8945 0.0
C519 C 0.99427 0.82562 0.89965 0.0
N520 N 0.99446 0.74708 0.90102 0.0
N521 N 0.9523 0.76118 0.89551 0.0
C522 C 0.07144 0.78505 0.90983 0.0
H523 H 0.0816 0.74884 0.91417 0.0
H524 H 0.07627 0.81059 0.92087 0.0
H525 H 0.09481 0.79643 0.89879 0.0
C526 C 0.00906 0.61522 0.95132 0.0
N527 N 0.01054 0.62079 0.93361 0.0
N528 N 0.00399 0.66559 0.92949 0.0
C529 C 0.99744 0.68998 0.94478 0.0
C530 C 0.0005 0.65853 0.95899 0.0
C531 C 0.01638 0.56924 0.96092 0.0
H532 H 0.98604 0.54539 0.95821 0.0
H533 H 0.04934 0.55214 0.95617 0.0
H534 H 0.01894 0.57422 0.97548 0.0
O535 O 0.96407 0.57407 0.89999 0.0
O536 O 0.95516 0.64814 0.89093 0.0
H537 H 0.97626 0.75235 0.95925 0.0
H538 H 0.02286 0.76087 0.94322 0.0
C539 C 0.98914 0.7421 0.94589 0.0
H540 H 0.963 0.75291 0.93569 0.0
H541 H 0.92438 0.73827 0.89261 0.0
O542 O 0.01625 0.51517 0.92849 0.0
C543 C 0.94281 0.60477 0.89072 0.0
C544 C 0.98573 0.45262 0.11736 0.0
C545 C 0.98063 0.47547 0.1007 0.0
C546 C 0.99157 0.39964 0.08539 0.0
C547 C 0.99465 0.37648 0.10206 0.0
N548 N 0.98567 0.37855 0.1338 0.0
N549 N 0.96863 0.47008 0.06911 0.0
C550 C 0.9889 0.40232 0.11803 0.0
C551 C 0.98049 0.44875 0.08477 0.0
N552 N 0.98921 0.47913 0.13248 0.0
N553 N 0.00112 0.37518 0.07017 0.0
H554 H 0.96033 0.50597 0.06816 0.0
H555 H 0.96297 0.45158 0.05735 0.0
H556 H 0.00835 0.33899 0.07005 0.0
H557 H 0.00513 0.39124 0.05782 0.0
H558 H -0.00182 0.46506 0.1448 0.0
H559 H 0.98664 0.51602 0.13252 0.0
H560 H 0.97681 0.39474 0.14574 0.0
H561 H 0.98772 0.34169 0.13468 0.0
C562 C 0.02699 0.8969 0.36554 0.0
C563 C 0.05114 0.89634 0.34903 0.0
C564 C 0.9762 0.88393 0.33329 0.0
C565 C 0.95217 0.88353 0.34982 0.0
N566 N 0.95397 0.883 0.38176 0.0
N567 N 0.05093 0.88343 0.31744 0.0
C568 C 0.9774 0.88808 0.36599 0.0
C569 C 0.02635 0.88795 0.33297 0.0
N570 N 0.05147 0.90688 0.38074 0.0
N571 N 0.9508 0.88171 0.31787 0.0
H572 H 0.08742 0.88791 0.3166 0.0
H573 H 0.03601 0.87216 0.30556 0.0
H574 H 0.91434 0.87649 0.3176 0.0
H575 H 0.96505 0.88763 0.30535 0.0
H576 H 0.03556 0.91367 0.39292 0.0
H577 H 0.08819 0.91054 0.38107 0.0
H578 H 0.97069 0.88068 0.39402 0.0
H579 H 0.91745 0.87816 0.38258 0.0
C580 C 0.50225 0.94105 0.58343 0.0
C581 C 0.51378 0.96245 0.59991 0.0
C582 C 0.53466 0.88483 0.61226 0.0
C583 C 0.52638 0.86397 0.59542 0.0
N584 N 0.5097 0.87254 0.56422 0.0
N585 N 0.5477 0.95687 0.62914 0.0
C586 C 0.51223 0.89217 0.58077 0.0
C587 C 0.53205 0.93493 0.61408 0.0
N588 N 0.48041 0.9671 0.57052 0.0
N589 N 0.54344 0.85656 0.62663 0.0
H590 H 0.5459 0.99349 0.63095 0.0
H591 H 0.56598 0.93947 0.63921 0.0
H592 H 0.54545 0.8197 0.6258 0.0
H593 H 0.5448 0.86908 0.6396 0.0
H594 H 0.46617 0.95243 0.55904 0.0
H595 H 0.47336 0.00316 0.57186 0.0
H596 H 0.50491 0.89229 0.55269 0.0
H597 H 0.51596 0.8367 0.5618 0.0
C598 C 0.48265 0.40738 0.8365 0.0
C599 C 0.45926 0.41631 0.85281 0.0
C600 C 0.53496 0.4369 0.86666 0.0
C601 C 0.5576 0.43176 0.84997 0.0
N602 N 0.55193 0.42106 0.8183 0.0
N603 N 0.46113 0.44617 0.88272 0.0
C604 C 0.53114 0.41953 0.83467 0.0
C605 C 0.48485 0.43308 0.8677 0.0
N606 N 0.45899 0.38575 0.82293 0.0
N607 N 0.56152 0.44379 0.88159 0.0
H608 H 0.42448 0.44334 0.88398 0.0
H609 H 0.47713 0.46335 0.89336 0.0
H610 H 0.59831 0.44655 0.88134 0.0
H611 H 0.54764 0.44281 0.89438 0.0
H612 H 0.47546 0.37357 0.81145 0.0
H613 H 0.42351 0.37618 0.82379 0.0
H614 H 0.53316 0.41765 0.80649 0.0
H615 H 0.5874 0.42984 0.81642 0.0
C616 C 0.0062 0.89951 0.91768 0.0
C617 C 0.00709 0.87647 0.90096 0.0
C618 C 0.01823 0.95299 0.88605 0.0
C619 C 0.02039 0.97558 0.90283 0.0
N620 N 0.02622 0.96952 0.93467 0.0
N621 N 0.0222 0.87928 0.86954 0.0
C622 C 0.01723 0.94858 0.91868 0.0
C623 C 0.0156 0.90267 0.88522 0.0
N624 N 0.99306 0.87495 0.93251 0.0
N625 N 0.01712 0.97975 0.87092 0.0
H626 H 0.02062 0.84243 0.8685 0.0
H627 H 0.03332 0.89585 0.85792 0.0
H628 H 0.01911 0.01667 0.87102 0.0
H629 H 0.01042 0.96578 0.85839 0.0
H630 H 0.98639 0.89098 0.9447 0.0
H631 H 0.98515 0.8389 0.93235 0.0
H632 H 0.02947 0.9507 0.94649 0.0
H633 H 0.03465 0.00531 0.9359 0.0
C634 C 0.48656 0.90157 0.16735 0.0
C635 C 0.462 0.9049 0.15099 0.0
C636 C 0.53656 0.89571 0.13472 0.0
C637 C 0.56071 0.89013 0.15108 0.0
N638 N 0.5576 0.87664 0.18264 0.0
N639 N 0.46126 0.89614 0.11923 0.0
C640 C 0.53535 0.88967 0.16731 0.0
C641 C 0.48635 0.89916 0.13469 0.0
N642 N 0.46382 0.91178 0.18288 0.0
N643 N 0.56173 0.89925 0.11929 0.0
H644 H 0.42442 0.8983 0.11882 0.0
H645 H 0.47635 0.88731 0.10708 0.0
H646 H 0.59849 0.89626 0.11879 0.0
H647 H 0.54669 0.90856 0.10718 0.0
H648 H 0.48119 0.9155 0.19498 0.0
H649 H 0.428 0.92018 0.18349 0.0
H650 H 0.53994 0.87094 0.19458 0.0
H651 H 0.59313 0.86703 0.18305 0.0
C652 C 0.50713 0.36265 0.38305 0.0
C653 C 0.49545 0.34145 0.39955 0.0
C654 C 0.50376 0.41853 0.41427 0.0
C655 C 0.51054 0.44058 0.39755 0.0
N656 N 0.51203 0.43494 0.36565 0.0
N657 N 0.47311 0.35081 0.43023 0.0
C658 C 0.51046 0.41296 0.38181 0.0
C659 C 0.4911 0.36984 0.415 0.0
N660 N 0.51604 0.33461 0.36866 0.0
N661 N 0.51127 0.44353 0.42953 0.0
H662 H 0.46251 0.3156 0.43115 0.0
H663 H 0.46441 0.37095 0.44133 0.0
H664 H 0.52154 0.47898 0.42955 0.0
H665 H 0.51177 0.42798 0.44206 0.0
H666 H 0.52957 0.34749 0.35675 0.0
H667 H 0.51366 0.29772 0.3691 0.0
H668 H 0.50718 0.41724 0.35368 0.0
H669 H 0.5141 0.47167 0.36424 0.0
C670 C 0.99301 0.42453 0.66899 0.0
C671 C 0.96935 0.42222 0.65242 0.0
C672 C 0.04484 0.40855 0.63726 0.0
C673 C 0.06799 0.40783 0.65395 0.0
N674 N 0.06362 0.4064 0.6859 0.0
N675 N 0.97057 0.40455 0.62117 0.0
C676 C 0.04193 0.41331 0.66989 0.0
C677 C 0.99467 0.41196 0.63665 0.0
N678 N 0.96909 0.439 0.68378 0.0
N679 N 0.07097 0.4075 0.62201 0.0
H680 H 0.93381 0.40699 0.62028 0.0
H681 H 0.98637 0.39215 0.60961 0.0
H682 H 0.10778 0.40483 0.62196 0.0
H683 H 0.05672 0.41303 0.60944 0.0
H684 H 0.9855 0.44683 0.69579 0.0
H685 H 0.93306 0.44663 0.68371 0.0
H686 H 0.04547 0.40465 0.69789 0.0
H687 H 0.09947 0.39846 0.68709 0.0
C688 C 0.0463 0.16756 0.01526 0.0
C689 C 0.00376 0.16483 0.02519 0.0
C690 C 0.95743 0.15965 0.99773 0.0
C691 C 6e-05 0.16127 0.9878 0.0
N692 N 0.08499 0.16068 0.98652 0.0
N693 N 0.91928 0.15394 0.0265 0.0
C694 C 0.04456 0.16319 0.99643 0.0
C695 C 0.95939 0.15976 0.01657 0.0
N696 N 0.08816 0.17512 0.02391 0.0
N697 N 0.91499 0.15954 0.989 0.0
H698 H 0.91888 0.15711 0.04028 0.0
H699 H 0.88668 0.14406 0.02128 0.0
H700 H 0.91235 0.15586 0.97526 0.0
H701 H 0.88247 0.16472 0.99516 0.0
H702 H 0.12022 0.18148 0.01757 0.0
H703 H 0.09042 0.17831 0.03766 0.0
H704 H 0.11883 0.15808 0.99184 0.0
H705 H 0.08452 0.15767 0.97274 0.0
C706 C 0.25405 0.95571 0.25954 0.0
C707 C 0.25674 0.91252 0.26909 0.0
C708 C 0.2587 0.86769 0.24118 0.0
C709 C 0.25877 0.91107 0.23163 0.0
N710 N 0.26149 0.99632 0.2312 0.0
N711 N 0.26484 0.82751 0.26959 0.0
C712 C 0.25794 0.95513 0.24069 0.0
C713 C 0.25974 0.86848 0.26005 0.0
N714 N 0.24701 0.99714 0.26856 0.0
N715 N 0.25629 0.82576 0.23213 0.0
H716 H 0.2625 0.82637 0.28339 0.0
H717 H 0.27336 0.79492 0.26399 0.0
H718 H 0.25846 0.82376 0.21833 0.0
H719 H 0.25005 0.7931 0.23811 0.0
H720 H 0.24045 0.0296 0.26249 0.0
H721 H 0.24408 0.9985 0.28235 0.0
H722 H 0.26547 0.02964 0.2369 0.0
H723 H 0.26401 0.99698 0.2174 0.0
C724 C 0.45359 0.17974 0.51834 0.0
C725 C 0.49885 0.17483 0.5263 0.0
C726 C 0.53631 0.17826 0.49705 0.0
C727 C 0.49108 0.17692 0.48902 0.0
N728 N 0.40638 0.17449 0.49147 0.0
N729 N 0.58307 0.16425 0.52349 0.0
C730 C 0.44954 0.17766 0.49953 0.0
C731 C 0.54021 0.1727 0.5157 0.0
N732 N 0.41475 0.18732 0.52876 0.0
N733 N 0.57548 0.18466 0.48669 0.0
H734 H 0.58705 0.15961 0.53714 0.0
H735 H 0.61396 0.15773 0.5164 0.0
H736 H 0.57329 0.18917 0.47297 0.0
H737 H 0.60932 0.19006 0.49174 0.0
H738 H 0.38168 0.19645 0.52374 0.0
H739 H 0.41621 0.18704 0.54258 0.0
H740 H 0.37486 0.16893 0.49831 0.0
H741 H 0.40251 0.17558 0.47771 0.0
C742 C 0.27316 0.46162 0.74677 0.0
C743 C 0.26659 0.42083 0.73601 0.0
C744 C 0.26288 0.37047 0.76258 0.0
C745 C 0.26669 0.41155 0.77329 0.0
N746 N 0.27372 0.49622 0.77625 0.0
N747 N 0.25271 0.33703 0.73307 0.0
C748 C 0.27188 0.45711 0.76555 0.0
C749 C 0.26067 0.37534 0.74376 0.0
N750 N 0.28145 0.50463 0.73894 0.0
N751 N 0.26202 0.3269 0.77054 0.0
H752 H 0.25181 0.33942 0.71927 0.0
H753 H 0.24427 0.30333 0.73768 0.0
H754 H 0.26407 0.32265 0.78427 0.0
H755 H 0.26261 0.29486 0.76375 0.0
H756 H 0.29278 0.5346 0.74574 0.0
H757 H 0.27864 0.51016 0.72529 0.0
H758 H 0.27122 0.53093 0.77169 0.0
H759 H 0.27612 0.49399 0.79004 0.0
C760 C 0.76371 0.3756 0.75688 0.0
C761 C 0.75955 0.41691 0.76752 0.0
C762 C 0.76182 0.46698 0.74086 0.0
C763 C 0.76332 0.42561 0.73022 0.0
N764 N 0.76209 0.34054 0.7275 0.0
N765 N 0.75031 0.5014 0.77012 0.0
C766 C 0.76357 0.37988 0.73809 0.0
C767 C 0.75722 0.46252 0.75962 0.0
N768 N 0.76887 0.3323 0.76484 0.0
N769 N 0.76561 0.51043 0.73293 0.0
H770 H 0.74755 0.49925 0.78389 0.0
H771 H 0.74406 0.53535 0.76528 0.0
H772 H 0.76923 0.5145 0.71923 0.0
H773 H 0.76876 0.54221 0.7398 0.0
H774 H 0.77843 0.30158 0.75812 0.0
H775 H 0.76552 0.32729 0.7785 0.0
H776 H 0.75592 0.3064 0.73219 0.0
H777 H 0.765 0.34217 0.71372 0.0
C778 C 0.74543 0.87157 0.24475 0.0
C779 C 0.74728 0.91393 0.23466 0.0
C780 C 0.74777 0.96148 0.2619 0.0
C781 C 0.74898 0.91904 0.27203 0.0
N782 N 0.75104 0.83383 0.27372 0.0
N783 N 0.7513 -0.00093 0.23295 0.0
C784 C 0.74841 0.87403 0.26361 0.0
C785 C 0.74826 0.9589 0.24308 0.0
N786 N 0.74043 0.82921 0.23615 0.0
N787 N 0.74526 0.00429 0.27038 0.0
H788 H 0.74805 0.99872 0.21917 0.0
H789 H 0.75856 0.03261 0.23798 0.0
H790 H 0.74865 0.00786 0.28409 0.0
H791 H 0.73807 0.03625 0.26405 0.0
H792 H 0.73554 0.7968 0.24246 0.0
H793 H 0.73792 0.82681 0.22237 0.0
H794 H 0.75458 0.79982 0.26861 0.0
H795 H 0.75233 0.83451 0.28754 0.0
C796 C 0.5451 0.65567 0.48475 0.0
C797 C 0.50141 0.64805 0.47594 0.0
C798 C 0.45984 0.64618 0.50452 0.0
C799 C 0.50322 0.65609 0.51331 0.0
N800 N 0.58612 0.67483 0.51223 0.0
N801 N 0.41677 0.63915 0.47677 0.0
C802 C 0.54561 0.66225 0.50351 0.0
C803 C 0.45868 0.64382 0.48568 0.0
N804 N 0.58604 0.65601 0.47509 0.0
N805 N 0.41992 0.63803 0.51433 0.0
H806 H 0.41496 0.63415 0.46308 0.0
H807 H 0.38368 0.64204 0.48271 0.0
H808 H 0.41849 0.6432 0.52802 0.0
H809 H 0.38864 0.62446 0.50913 0.0
H810 H 0.61971 0.65761 0.48061 0.0
H811 H 0.58654 0.65117 0.46138 0.0
H812 H 0.61764 0.68379 0.50596 0.0
H813 H 0.58741 0.67958 0.52595 0.0
C814 C 0.95635 0.66176 0.98787 0.0
C815 C -0.00057 0.66722 0.9784 0.0
C816 C 0.04392 0.66396 0.00625 0.0
C817 C 0.00079 0.66312 0.01582 0.0
N818 N 0.91572 0.66554 0.01623 0.0
N819 N 0.08361 0.68009 0.97836 0.0
C820 C 0.95685 0.66292 0.00676 0.0
C821 C 0.04307 0.67034 0.98756 0.0
N822 N 0.91518 0.65438 0.97877 0.0
N823 N 0.08569 0.658 0.01511 0.0
H824 H 0.08407 0.68508 0.96464 0.0
H825 H 0.11593 0.68739 0.98438 0.0
H826 H 0.08722 0.6526 0.0288 0.0
H827 H 0.11823 0.65391 0.00884 0.0
H828 H 0.88354 0.64456 0.98481 0.0
H829 H 0.91325 0.65568 0.96495 0.0
H830 H 0.88274 0.67131 0.01048 0.0
H831 H 0.91493 0.6642 0.03006 0.0
C832 C 0.18862 0.04243 0.12039 0.0
C833 C 0.18312 0.03538 0.13893 0.0
C834 C 0.12351 0.09863 0.14018 0.0
C835 C 0.1228 0.09907 0.12141 0.0
N836 N 0.16516 0.08779 0.09424 0.0
N837 N 0.16089 0.06856 0.16705 0.0
C838 C 0.15949 0.07665 0.11175 0.0
C839 C 0.15589 0.06795 0.14902 0.0
N840 N 0.21948 0.01493 0.111 0.0
N841 N 0.0916 0.1253 0.14941 0.0
H842 H 0.18525 0.04684 0.17356 0.0
H843 H 0.14426 0.09275 0.17537 0.0
H844 H 0.06872 0.1491 0.14324 0.0
H845 H 0.0869 0.12344 0.16307 0.0
H846 H 0.22348 0.01638 0.09731 0.0
H847 H 0.24173 0.99013 0.11687 0.0
H848 H 0.19235 0.07507 0.08628 0.0
H849 H 0.14405 0.11322 0.08801 0.0
C850 C 0.33139 0.03055 0.37841 0.0
C851 C 0.34208 0.98217 0.3752 0.0
C852 C 0.41666 0.99087 0.39105 0.0
C853 C 0.40463 0.03793 0.39601 0.0
N854 N 0.34447 0.09881 0.39741 0.0
N855 N 0.3865 0.91318 0.38412 0.0
C856 C 0.36011 0.05686 0.39058 0.0
C857 C 0.3817 0.96136 0.3836 0.0
N858 N 0.29519 0.05178 0.36947 0.0
N859 N 0.46232 0.97516 0.39205 0.0
H860 H 0.36067 0.89033 0.37912 0.0
H861 H 0.41335 0.8964 0.39125 0.0
H862 H 0.49062 0.99724 0.39525 0.0
H863 H 0.47282 0.94212 0.38726 0.0
H864 H 0.28911 0.0882 0.36981 0.0
H865 H 0.2731 0.03322 0.36084 0.0
H866 H 0.31064 0.11202 0.39505 0.0
H867 H 0.36345 0.11806 0.40681 0.0
C868 C 0.37464 0.27034 0.61802 0.0
C869 C 0.41573 0.2513 0.62599 0.0
C870 C 0.39493 0.29017 0.65385 0.0
C871 C 0.36159 0.31872 0.64462 0.0
N872 N 0.31792 0.33464 0.61754 0.0
N873 N 0.46498 0.24105 0.65176 0.0
C874 C 0.34987 0.30769 0.62669 0.0
C875 C 0.42534 0.25975 0.64412 0.0
N876 N 0.36048 0.25333 0.60191 0.0
N877 N 0.39694 0.29181 0.67195 0.0
H878 H 0.48709 0.21727 0.64518 0.0
H879 H 0.47715 0.25096 0.66426 0.0
H880 H 0.37367 0.31232 0.67947 0.0
H881 H 0.41787 0.2691 0.67951 0.0
H882 H 0.32877 0.26259 0.59582 0.0
H883 H 0.37876 0.2262 0.59545 0.0
H884 H 0.30989 0.32965 0.60422 0.0
H885 H 0.30097 0.36417 0.62276 0.0
C886 C 0.08089 0.32766 0.88872 0.0
C887 C 0.09144 0.28072 0.89425 0.0
C888 C 0.16807 0.28691 0.87878 0.0
C889 C 0.15871 0.33543 0.87522 0.0
N890 N 0.11348 0.40496 0.88299 0.0
N891 N 0.15042 0.21929 0.89764 0.0
C892 C 0.11763 0.35673 0.88237 0.0
C893 C 0.13666 0.26116 0.89018 0.0
N894 N 0.03532 0.34386 0.88838 0.0
N895 N 0.20566 0.26507 0.87093 0.0
H896 H 0.12938 0.20068 0.9066 0.0
H897 H 0.18447 0.20563 0.89629 0.0
H898 H 0.2295 0.28311 0.86281 0.0
H899 H 0.2112 0.2286 0.87159 0.0
H900 H 0.02626 0.37686 0.88313 0.0
H901 H 0.0062 0.32224 0.891 0.0
H902 H 0.08525 0.42187 0.88926 0.0
H903 H 0.14077 0.42762 0.87906 0.0
C904 C 0.83115 0.25862 0.89749 0.0
C905 C 0.86793 0.23024 0.89025 0.0
C906 C 0.83724 0.24874 0.86056 0.0
C907 C 0.81117 0.28731 0.86769 0.0
N908 N 0.78101 0.32741 0.89365 0.0
N909 N 0.90364 0.19551 0.86409 0.0
C910 C 0.80625 0.29106 0.88638 0.0
C911 C 0.86952 0.2233 0.87156 0.0
N912 N 0.82089 0.25496 0.91513 0.0
N913 N 0.83166 0.23744 0.84308 0.0
H914 H 0.92651 0.17421 0.87136 0.0
H915 H 0.91044 0.19491 0.85051 0.0
H916 H 0.80781 0.25557 0.83496 0.0
H917 H 0.84664 0.20754 0.83725 0.0
H918 H 0.79226 0.27193 0.92106 0.0
H919 H 0.83831 0.23076 0.92335 0.0
H920 H 0.78193 0.33556 0.90713 0.0
H921 H 0.76074 0.35085 0.88619 0.0
C922 C 0.64764 0.22471 0.63869 0.0
C923 C 0.64793 0.22537 0.61988 0.0
C924 C 0.71121 0.28498 0.61996 0.0
C925 C 0.70614 0.28913 0.63865 0.0
N926 N 0.68551 0.25072 0.66599 0.0
N927 N 0.69215 0.24004 0.59335 0.0
C928 C 0.68001 0.25426 0.64805 0.0
C929 C 0.68457 0.24971 0.61085 0.0
N930 N 0.61423 0.19905 0.64758 0.0
N931 N 0.73806 0.31682 0.61074 0.0
H932 H 0.67236 0.21436 0.58667 0.0
H933 H 0.72041 0.25371 0.58611 0.0
H934 H 0.7597 0.34181 0.61682 0.0
H935 H 0.73774 0.31948 0.59696 0.0
H936 H 0.60802 0.2023 0.66114 0.0
H937 H 0.59169 0.17523 0.64128 0.0
H938 H 0.67028 0.22397 0.67362 0.0
H939 H 0.70936 0.27218 0.67288 0.0
C940 C 0.68725 0.07358 0.37604 0.0
C941 C 0.69916 0.02509 0.37832 0.0
C942 C 0.63758 0.01741 0.4005 0.0
C943 C 0.62679 0.06704 0.39948 0.0
N944 N 0.65364 0.14415 0.38947 0.0
N945 N 0.69899 0.95829 0.39807 0.0
C946 C 0.65554 0.09595 0.38828 0.0
C947 C 0.67986 0.00037 0.39282 0.0
N948 N 0.70514 0.09772 0.36187 0.0
N949 N 0.60546 0.9851 0.40671 0.0
H950 H 0.73007 0.94508 0.3925 0.0
H951 H 0.68696 0.93997 0.40923 0.0
H952 H 0.57 0.99295 0.40896 0.0
H953 H 0.61186 0.94869 0.40666 0.0
H954 H 0.69379 0.13157 0.35831 0.0
H955 H 0.7299 0.08243 0.35334 0.0
H956 H 0.67623 0.16636 0.38236 0.0
H957 H 0.63355 0.16166 0.39901 0.0
C958 C 0.81384 0.04821 0.12133 0.0
C959 C 0.81387 0.05071 0.14014 0.0
C960 C 0.87641 0.11135 0.13916 0.0
C961 C 0.88008 0.10486 0.12053 0.0
N962 N 0.84094 0.08252 0.09351 0.0
N963 N 0.83025 0.09748 0.16593 0.0
C964 C 0.84461 0.07857 0.11152 0.0
C965 C 0.83983 0.08731 0.1486 0.0
N966 N 0.78725 0.01476 0.11286 0.0
N967 N 0.90968 0.13716 0.14805 0.0
H968 H 0.80351 0.07983 0.17287 0.0
H969 H 0.84519 0.1259 0.17273 0.0
H970 H 0.93675 0.15563 0.14174 0.0
H971 H 0.91182 0.13851 0.16182 0.0
H972 H 0.79107 0.0066 0.09947 0.0
H973 H 0.76202 0.99416 0.11932 0.0
H974 H 0.81359 0.06746 0.08617 0.0
H975 H 0.8628 0.10511 0.08619 0.0
C976 C 0.66045 0.56295 0.63585 0.0
C977 C 0.68176 0.52174 0.62875 0.0
C978 C 0.6466 0.53984 0.59987 0.0
C979 C 0.61613 0.57332 0.6081 0.0
N980 N 0.5946 0.61767 0.63443 0.0
N981 N 0.69627 0.47064 0.60374 0.0
C982 C 0.62392 0.58617 0.62614 0.0
C983 C 0.67606 0.51064 0.61056 0.0
N984 N 0.67474 0.57896 0.65208 0.0
N985 N 0.64759 0.53641 0.5818 0.0
H986 H 0.71918 0.44916 0.61101 0.0
H987 H 0.68828 0.45743 0.5912 0.0
H988 H 0.62762 0.55858 0.57362 0.0
H989 H 0.6718 0.51545 0.57495 0.0
H990 H 0.66379 0.61101 0.65754 0.0
H991 H 0.70135 0.562 0.6593 0.0
H992 H 0.59675 0.6258 0.64785 0.0
H993 H 0.56585 0.63387 0.62834 0.0
C994 C 0.86418 0.56706 0.88686 0.0
C995 C 0.90471 0.58743 0.87893 0.0
C996 C 0.88391 0.54975 0.8508 0.0
C997 C 0.85109 0.52027 0.85989 0.0
N998 N 0.80938 0.50112 0.88709 0.0
N999 N 0.95342 0.59965 0.8531 0.0
C1000 C 0.84 0.52971 0.87798 0.0
C1001 C 0.91411 0.58008 0.8607 0.0
N1002 N 0.84982 0.58297 0.90309 0.0
N1003 N 0.88574 0.54901 0.83269 0.0
H1004 H 0.97545 0.62329 0.8598 0.0
H1005 H 0.96547 0.59054 0.8405 0.0
H1006 H 0.86279 0.52836 0.82507 0.0
H1007 H 0.9062 0.57244 0.82525 0.0
H1008 H 0.81829 0.57269 0.90911 0.0
H1009 H 0.8676 0.61017 0.90972 0.0
H1010 H 0.8026 0.50451 0.90058 0.0
H1011 H 0.79274 0.4717 0.88162 0.0
C1012 C 0.94064 0.82435 0.12033 0.0
C1013 C 0.92363 0.78096 0.11329 0.0
C1014 C 0.85103 0.79029 0.13093 0.0
C1015 C 0.86607 0.83649 0.13591 0.0
N1016 N 0.9186 0.90246 0.12999 0.0
N1017 N 0.85886 0.72599 0.10971 0.0
C1018 C 0.90883 0.85506 0.12894 0.0
C1019 C 0.87768 0.76467 0.11798 0.0
N1020 N 0.98767 0.83557 0.11957 0.0
N1021 N 0.81261 0.77026 0.13895 0.0
H1022 H 0.87698 0.7071 0.09997 0.0
H1023 H 0.82387 0.71529 0.1114 0.0
H1024 H 0.7928 0.78777 0.14858 0.0
H1025 H 0.80288 0.73498 0.1371 0.0
H1026 H 0.00181 0.86527 0.12587 0.0
H1027 H 0.01328 0.81241 0.11467 0.0
H1028 H 0.94781 0.91779 0.12377 0.0
H1029 H 0.89472 0.92711 0.13509 0.0
C1030 C 0.66047 0.79973 0.38059 0.0
C1031 C 0.65379 0.80824 0.36216 0.0
C1032 C 0.59344 0.7457 0.36103 0.0
C1033 C 0.59941 0.73822 0.37949 0.0
N1034 N 0.64773 0.74644 0.40546 0.0
N1035 N 0.62496 0.78013 0.33398 0.0
C1036 C 0.63637 0.76122 0.38874 0.0
C1037 C 0.62388 0.77805 0.35209 0.0
N1038 N 0.68671 0.83034 0.39062 0.0
N1039 N 0.55695 0.7242 0.35228 0.0
H1040 H 0.64759 0.80286 0.32708 0.0
H1041 H 0.60708 0.75627 0.32585 0.0
H1042 H 0.53497 0.69918 0.35828 0.0
H1043 H 0.54696 0.73296 0.33939 0.0
H1044 H 0.68816 0.82887 0.40441 0.0
H1045 H 0.70424 0.85965 0.3854 0.0
H1046 H 0.677 0.75888 0.41244 0.0
H1047 H 0.63024 0.71823 0.41161 0.0
C1048 C 0.37711 0.70218 0.35898 0.0
C1049 C 0.37117 0.70001 0.37764 0.0
C1050 C 0.30344 0.75432 0.37575 0.0
C1051 C 0.31419 0.76209 0.35752 0.0
N1052 N 0.34506 0.72841 0.3307 0.0
N1053 N 0.31856 0.70755 0.40235 0.0
C1054 C 0.34537 0.73037 0.34878 0.0
C1055 C 0.33038 0.7203 0.38544 0.0
N1056 N 0.41503 0.68073 0.35117 0.0
N1057 N 0.27009 0.78117 0.38413 0.0
H1058 H 0.33834 0.68263 0.40943 0.0
H1059 H 0.28737 0.71783 0.40859 0.0
H1060 H 0.24605 0.80258 0.37747 0.0
H1061 H 0.26623 0.78231 0.39786 0.0
H1062 H 0.42484 0.68656 0.33803 0.0
H1063 H 0.43774 0.65815 0.35801 0.0
H1064 H 0.36432 0.70373 0.32341 0.0
H1065 H 0.32146 0.74864 0.32318 0.0
C1066 C 0.16405 0.75579 0.14187 0.0
C1067 C 0.19023 0.79314 0.13386 0.0
C1068 C 0.17457 0.75705 0.10484 0.0
C1069 C 0.13796 0.72921 0.11244 0.0
N1070 N 0.1006 0.69861 0.13893 0.0
N1071 N 0.22193 0.8283 0.10709 0.0
C1072 C 0.13434 0.72647 0.13121 0.0
C1073 C 0.19718 0.79277 0.11519 0.0
N1074 N 0.16764 0.74872 0.15975 0.0
N1075 N 0.18627 0.75006 0.08747 0.0
H1076 H 0.23909 0.85523 0.11396 0.0
H1077 H 0.2232 0.83264 0.09338 0.0
H1078 H 0.16987 0.72388 0.07984 0.0
H1079 H 0.21493 0.76646 0.08132 0.0
H1080 H 0.15272 0.7198 0.16628 0.0
H1081 H 0.1899 0.76925 0.16769 0.0
H1082 H 0.09173 0.70071 0.15231 0.0
H1083 H 0.08042 0.67417 0.13191 0.0
C1084 C 0.13494 0.61478 0.8645 0.0
C1085 C 0.13583 0.61229 0.88331 0.0
C1086 C 0.20312 0.55725 0.88209 0.0
C1087 C 0.19736 0.5544 0.86337 0.0
N1088 N 0.17461 0.59532 0.83683 0.0
N1089 N 0.18147 0.59736 0.90951 0.0
C1090 C 0.16921 0.58884 0.85466 0.0
C1091 C 0.17399 0.58912 0.89189 0.0
N1092 N 0.09938 0.63837 0.856 0.0
N1093 N 0.23389 0.52781 0.89065 0.0
H1094 H 0.1604 0.62093 0.91669 0.0
H1095 H 0.21068 0.58478 0.91648 0.0
H1096 H 0.25954 0.50805 0.88412 0.0
H1097 H 0.23406 0.52297 0.90434 0.0
H1098 H 0.0934 0.63588 0.8424 0.0
H1099 H 0.07451 0.65906 0.86259 0.0
H1100 H 0.15784 0.62219 0.82974 0.0
H1101 H 0.19989 0.57646 0.8296 0.0
C1102 C 0.35217 0.59022 0.64309 0.0
C1103 C 0.32493 0.5522 0.6361 0.0
C1104 C 0.3452 0.58008 0.60617 0.0
C1105 C 0.38247 0.60802 0.61328 0.0
N1106 N 0.41999 0.64169 0.6392 0.0
N1107 N 0.29351 0.51248 0.61022 0.0
C1108 C 0.38477 0.61486 0.63194 0.0
C1109 C 0.31967 0.54834 0.6174 0.0
N1110 N 0.34741 0.60182 0.66058 0.0
N1111 N 0.33515 0.58337 0.58849 0.0
H1112 H 0.27263 0.48964 0.6177 0.0
H1113 H 0.29414 0.50409 0.59676 0.0
H1114 H 0.35323 0.60682 0.58017 0.0
H1115 H 0.30617 0.56687 0.5826 0.0
H1116 H 0.3634 0.63134 0.6663 0.0
H1117 H 0.32329 0.58442 0.66882 0.0
H1118 H 0.4272 0.64234 0.65275 0.0
H1119 H 0.44353 0.66173 0.6317 0.0
C1120 C 0.10607 0.94265 0.07062 0.0
C1121 C 0.05646 0.9508 0.06901 0.0
C1122 C 0.05695 0.90134 0.04261 0.0
C1123 C 0.09733 0.87888 0.04939 0.0
N1124 N 0.17079 0.88802 0.06455 0.0
N1125 N 0.9845 0.93911 0.05177 0.0
C1126 C 0.1262 0.90406 0.06123 0.0
C1127 C 0.03188 0.93195 0.05409 0.0
N1128 N 0.13363 0.97231 0.08047 0.0
N1129 N 0.03957 0.88731 0.02663 0.0
H1130 H 0.9635 0.95778 0.0607 0.0
H1131 H 0.96514 0.92265 0.04176 0.0
H1132 H 0.05755 0.8621 0.01904 0.0
H1133 H 0.01062 0.90344 0.02056 0.0
H1134 H 0.17026 0.96949 0.08105 0.0
H1135 H 0.12036 0.00292 0.08638 0.0
H1136 H 0.19227 0.90104 0.07465 0.0
H1137 H 0.18541 0.8605 0.05709 0.0
C1138 C 0.49737 0.95239 0.30475 0.0
C1139 C 0.47384 0.95849 0.32129 0.0
C1140 C 0.51761 0.03196 0.3264 0.0
C1141 C 0.54709 0.01895 0.31227 0.0
N1142 N 0.54766 0.99007 0.28264 0.0
N1143 N 0.44572 0.01595 0.34277 0.0
C1144 C 0.52952 0.988 0.29932 0.0
C1145 C 0.47855 0.00242 0.33052 0.0
N1146 N 0.49246 0.91179 0.29509 0.0
N1147 N 0.53068 0.06899 0.33691 0.0
H1148 H 0.41501 0.99658 0.34506 0.0
H1149 H 0.44627 0.04859 0.3492 0.0
H1150 H 0.55956 0.09033 0.33354 0.0
H1151 H 0.51438 0.07733 0.34889 0.0
H1152 H 0.5125 0.90478 0.28379 0.0
H1153 H 0.47123 0.88349 0.299 0.0
H1154 H 0.53505 0.96947 0.27219 0.0
H1155 H 0.57262 0.01592 0.27928 0.0
C1156 C 0.49466 0.40347 0.55369 0.0
C1157 C 0.47404 0.38405 0.56932 0.0
C1158 C 0.40042 0.42606 0.5631 0.0
C1159 C 0.42578 0.45282 0.55064 0.0
N1160 N 0.47806 0.44485 0.52604 0.0
N1161 N 0.40024 0.35727 0.58227 0.0
C1162 C 0.46567 0.43212 0.5428 0.0
C1163 C 0.42433 0.38882 0.57197 0.0
N1164 N 0.54163 0.39825 0.54998 0.0
N1165 N 0.35617 0.44033 0.56784 0.0
H1166 H 0.41646 0.32766 0.58787 0.0
H1167 H 0.36356 0.35738 0.58331 0.0
H1168 H 0.33934 0.46798 0.5611 0.0
H1169 H 0.33758 0.4262 0.57854 0.0
H1170 H 0.55797 0.41541 0.53937 0.0
H1171 H 0.56505 0.38016 0.55821 0.0
H1172 H 0.50654 0.42976 0.51932 0.0
H1173 H 0.45647 0.46748 0.51863 0.0
C1174 C 0.03159 0.32809 0.82467 0.0
C1175 C 0.039 0.37432 0.8175 0.0
C1176 C 0.98394 0.35507 0.79383 0.0
C1177 C 0.96416 0.32078 0.80507 0.0
N1178 N 0.97645 0.26209 0.82732 0.0
N1179 N 0.0257 0.42975 0.7933 0.0
C1180 C 0.99185 0.30183 0.81879 0.0
C1181 C 0.01745 0.38682 0.8011 0.0
N1182 N 0.06248 0.30954 0.83674 0.0
N1183 N 0.96685 0.35955 0.77705 0.0
H1184 H 0.04854 0.45505 0.79857 0.0
H1185 H 0.00721 0.44153 0.78219 0.0
H1186 H 0.94118 0.3361 0.77231 0.0
H1187 H 0.981 0.3829 0.76774 0.0
H1188 H 0.05999 0.27521 0.84172 0.0
H1189 H 0.09349 0.32692 0.84037 0.0
H1190 H 0.99136 0.24901 0.83896 0.0
H1191 H 0.94717 0.24323 0.82264 0.0
C1192 C 0.88911 0.41339 0.94283 0.0
C1193 C 0.91499 0.38445 0.95446 0.0
C1194 C 0.98515 0.43242 0.95096 0.0
C1195 C 0.9631 0.45432 0.93612 0.0
N1196 N 0.88882 0.4846 0.92491 0.0
N1197 N 0.97239 0.38518 0.9776 0.0
C1198 C 0.91307 0.45109 0.93424 0.0
C1199 C 0.95713 0.40234 0.96173 0.0
N1200 N 0.84363 0.40164 0.93878 0.0
N1201 N 0.03259 0.4368 0.95393 0.0
H1202 H 0.9518 0.361 0.98473 0.0
H1203 H 0.00241 0.39788 0.98406 0.0
H1204 H 0.05498 0.45652 0.94581 0.0
H1205 H 0.05029 0.41792 0.96378 0.0
H1206 H 0.82444 0.41749 0.92858 0.0
H1207 H 0.82596 0.37479 0.94566 0.0
H1208 H 0.85206 0.48593 0.92454 0.0
H1209 H 0.90542 0.51423 0.91946 0.0
C1210 C 0.01687 0.94253 0.20142 0.0
C1211 C 0.03454 0.95855 0.18473 0.0
C1212 C 0.98698 0.0307 0.18741 0.0
C1213 C 0.9618 0.00802 0.20093 0.0
N1214 N 0.96794 0.96154 0.22709 0.0
N1215 N 0.04492 0.02358 0.16396 0.0
C1216 C 0.98362 0.97134 0.21041 0.0
C1217 C 0.0229 0.00496 0.1785 0.0
N1218 N 0.02802 0.89853 0.20777 0.0
N1219 N 0.97446 0.07572 0.18284 0.0
H1220 H 0.07544 0.00902 0.15849 0.0
H1221 H 0.0326 0.05324 0.1572 0.0
H1222 H 0.94749 0.09335 0.18964 0.0
H1223 H 0.9923 0.09626 0.17351 0.0
H1224 H 0.01296 0.88407 0.21915 0.0
H1225 H 0.04947 0.87467 0.20097 0.0
H1226 H 0.98346 0.93639 0.23537 0.0
H1227 H 0.94145 0.98218 0.2329 0.0
C1228 C 0.48905 0.88321 0.45051 0.0
C1229 C 0.51875 0.86317 0.43728 0.0
C1230 C 0.58731 0.90374 0.44992 0.0
C1231 C 0.55534 0.93126 0.45983 0.0
N1232 N 0.48608 0.92905 0.47784 0.0
N1233 N 0.59796 0.83608 0.4305 0.0
C1234 C 0.51015 0.91277 0.46344 0.0
C1235 C 0.56881 0.86745 0.4389 0.0
N1236 N 0.44108 0.87758 0.4499 0.0
N1237 N 0.63431 0.91443 0.45038 0.0
H1238 H 0.58502 0.80701 0.42348 0.0
H1239 H 0.63455 0.83584 0.43197 0.0
H1240 H 0.64781 0.93839 0.45964 0.0
H1241 H 0.65929 0.9 0.4418 0.0
H1242 H 0.41802 0.89508 0.45844 0.0
H1243 H 0.42387 0.85821 0.44007 0.0
H1244 H 0.45333 0.91575 0.48178 0.0
H1245 H 0.50178 0.95326 0.48653 0.0
C1246 C 0.53945 0.51696 0.68271 0.0
C1247 C 0.54584 0.46767 0.68605 0.0
C1248 C 0.49256 0.47534 0.71112 0.0
C1249 C 0.47215 0.51432 0.70247 0.0
N1250 N 0.48482 0.58333 0.68485 0.0
N1251 N 0.53172 0.40074 0.70575 0.0
C1252 C 0.49993 0.53994 0.6904 0.0
C1253 C 0.52464 0.44714 0.70136 0.0
N1254 N 0.57141 0.54153 0.67275 0.0
N1255 N 0.47705 0.46319 0.72757 0.0
H1256 H 0.55299 0.37792 0.6984 0.0
H1257 H 0.51341 0.38404 0.716 0.0
H1258 H 0.45238 0.48435 0.73418 0.0
H1259 H 0.49174 0.4356 0.73494 0.0
H1260 H 0.57007 0.57816 0.67123 0.0
H1261 H 0.6022 0.52595 0.66787 0.0
H1262 H 0.49997 0.6018 0.67431 0.0
H1263 H 0.45556 0.59958 0.69074 0.0
loop_
_geom_bond_atom_site_label_1
_geom_bond_atom_site_label_2
_geom_bond_distance
_geom_bond_site_symmetry_2
_ccdc_geom_bond_type
Co0 O3 1.970 1_455 S
Co0 N17 1.989 . S
Co0 O25 1.967 . S
Co0 O32 1.920 . S
Co1 O4 1.966 1_455 S
Co1 N10 2.022 . S
Co1 N18 1.993 . S
Co1 O26 1.941 . S
C2 O3 1.258 . S
C2 O4 1.263 . S
O3 Co0 1.970 1_655 S
O3 C2 1.258 . S
O4 Co1 1.966 1_655 S
O4 C2 1.263 . S
C5 O6 1.235 1_565 S
C5 O32 1.289 1_665 S
O6 C5 1.235 1_545 S
C7 C9 1.400 . S
C7 N10 1.351 1_655 S
C7 C12 1.501 . S
C8 C9 1.387 1_455 S
C8 N11 1.341 . S
C9 C7 1.400 . S
C9 C8 1.387 1_655 S
N10 Co1 2.022 . S
N10 C7 1.351 1_455 S
N10 N11 1.365 . S
N11 C8 1.341 . S
N11 N10 1.365 . S
N11 H31 0.862 . S
C12 C7 1.501 . S
C12 H13 0.961 . S
C12 H14 0.961 . S
C12 H15 0.960 . S
H13 C12 0.961 . S
H14 C12 0.961 . S
H15 C12 0.960 . S
C16 N17 1.342 . S
C16 C20 1.401 . S
C16 C21 1.499 . S
N17 Co0 1.989 . S
N17 C16 1.342 . S
N17 N18 1.388 . S
N18 Co1 1.993 . S
N18 N17 1.388 . S
N18 C19 1.346 . S
C19 N18 1.346 . S
C19 C20 1.396 . S
C19 C29 1.510 . S
C20 C16 1.401 . S
C20 C19 1.396 . S
C21 C16 1.499 . S
C21 H22 0.959 . S
C21 H23 0.960 . S
C21 H24 0.961 . S
H22 C21 0.959 . S
H23 C21 0.960 . S
H24 C21 0.961 . S
O25 Co0 1.967 . S
O25 C33 1.258 . S
O26 Co1 1.941 . S
O26 C33 1.266 . S
H27 C29 0.959 . S
H28 C29 0.961 1_655 S
C29 C19 1.510 . S
C29 H27 0.959 . S
C29 H28 0.961 1_455 S
C29 H30 0.960 . S
H30 C29 0.960 . S
H31 N11 0.862 . S
O32 Co0 1.920 . S
O32 C5 1.289 1_445 S
C33 O25 1.258 . S
C33 O26 1.266 . S
Co34 O37 1.970 . S
Co34 N51 1.989 . S
Co34 O59 1.967 . S
Co34 O66 1.920 . S
Co35 O38 1.966 . S
Co35 N44 2.022 . S
Co35 N52 1.993 . S
Co35 O60 1.941 . S
C36 O37 1.258 . S
C36 O38 1.263 . S
O37 Co34 1.970 . S
O37 C36 1.258 . S
O38 Co35 1.966 . S
O38 C36 1.263 . S
C39 O40 1.235 . S
C39 O66 1.289 . S
O40 C39 1.235 . S
C41 C43 1.400 . S
C41 N44 1.351 . S
C41 C46 1.501 . S
C42 C43 1.387 . S
C42 N45 1.341 . S
C43 C41 1.400 . S
C43 C42 1.387 . S
N44 Co35 2.022 . S
N44 C41 1.351 . S
N44 N45 1.365 . S
N45 C42 1.341 . S
N45 N44 1.365 . S
N45 H65 0.862 . S
C46 C41 1.501 . S
C46 H47 0.961 . S
C46 H48 0.961 . S
C46 H49 0.960 . S
H47 C46 0.961 . S
H48 C46 0.961 . S
H49 C46 0.960 . S
C50 N51 1.342 . S
C50 C54 1.401 . S
C50 C55 1.499 . S
N51 Co34 1.989 . S
N51 C50 1.342 . S
N51 N52 1.388 . S
N52 Co35 1.993 . S
N52 N51 1.388 . S
N52 C53 1.346 . S
C53 N52 1.346 . S
C53 C54 1.396 . S
C53 C63 1.510 . S
C54 C50 1.401 . S
C54 C53 1.396 . S
C55 C50 1.499 . S
C55 H56 0.959 . S
C55 H57 0.960 . S
C55 H58 0.961 . S
H56 C55 0.959 . S
H57 C55 0.960 . S
H58 C55 0.961 . S
O59 Co34 1.967 . S
O59 C67 1.258 . S
O60 Co35 1.941 . S
O60 C67 1.266 . S
H61 C63 0.959 . S
H62 C63 0.961 . S
C63 C53 1.510 . S
C63 H61 0.959 . S
C63 H62 0.961 . S
C63 H64 0.960 . S
H64 C63 0.960 . S
H65 N45 0.862 . S
O66 Co34 1.920 . S
O66 C39 1.289 . S
C67 O59 1.258 . S
C67 O60 1.266 . S
Co68 O71 1.970 . S
Co68 N85 1.989 . S
Co68 O93 1.967 . S
Co68 O100 1.920 . S
Co69 O72 1.966 . S
Co69 N78 2.022 . S
Co69 N86 1.993 . S
Co69 O94 1.941 . S
C70 O71 1.258 . S
C70 O72 1.263 . S
O71 Co68 1.970 . S
O71 C70 1.258 . S
O72 Co69 1.966 . S
O72 C70 1.263 . S
C73 O74 1.235 . S
C73 O100 1.289 . S
O74 C73 1.235 . S
C75 C77 1.400 . S
C75 N78 1.351 . S
C75 C80 1.501 . S
C76 C77 1.387 . S
C76 N79 1.341 . S
C77 C75 1.400 . S
C77 C76 1.387 . S
N78 Co69 2.022 . S
N78 C75 1.351 . S
N78 N79 1.365 . S
N79 C76 1.341 . S
N79 N78 1.365 . S
N79 H99 0.862 . S
C80 C75 1.501 . S
C80 H81 0.961 . S
C80 H82 0.961 . S
C80 H83 0.960 . S
H81 C80 0.961 . S
H82 C80 0.961 . S
H83 C80 0.960 . S
C84 N85 1.342 . S
C84 C88 1.401 . S
C84 C89 1.499 . S
N85 Co68 1.989 . S
N85 C84 1.342 . S
N85 N86 1.388 . S
N86 Co69 1.993 . S
N86 N85 1.388 . S
N86 C87 1.346 . S
C87 N86 1.346 . S
C87 C88 1.396 . S
C87 C97 1.510 . S
C88 C84 1.401 . S
C88 C87 1.396 . S
C89 C84 1.499 . S
C89 H90 0.959 . S
C89 H91 0.960 . S
C89 H92 0.961 . S
H90 C89 0.959 . S
H91 C89 0.960 . S
H92 C89 0.961 . S
O93 Co68 1.967 . S
O93 C101 1.258 . S
O94 Co69 1.941 . S
O94 C101 1.266 . S
H95 C97 0.959 . S
H96 C97 0.961 . S
C97 C87 1.510 . S
C97 H95 0.959 . S
C97 H96 0.961 . S
C97 H98 0.960 . S
H98 C97 0.960 . S
H99 N79 0.862 . S
O100 Co68 1.920 . S
O100 C73 1.289 . S
C101 O93 1.258 . S
C101 O94 1.266 . S
Co102 O105 1.970 . S
Co102 N119 1.989 . S
Co102 O127 1.967 . S
Co102 O134 1.920 . S
Co103 O106 1.966 . S
Co103 N112 2.022 . S
Co103 N120 1.993 . S
Co103 O128 1.941 . S
C104 O105 1.258 . S
C104 O106 1.263 . S
O105 Co102 1.970 . S
O105 C104 1.258 . S
O106 Co103 1.966 . S
O106 C104 1.263 . S
C107 O108 1.235 . S
C107 O134 1.289 . S
O108 C107 1.235 . S
C109 C111 1.400 . S
C109 N112 1.351 . S
C109 C114 1.501 . S
C110 C111 1.387 . S
C110 N113 1.341 . S
C111 C109 1.400 . S
C111 C110 1.387 . S
N112 Co103 2.022 . S
N112 C109 1.351 . S
N112 N113 1.365 . S
N113 C110 1.341 . S
N113 N112 1.365 . S
N113 H133 0.862 . S
C114 C109 1.501 . S
C114 H115 0.961 . S
C114 H116 0.961 . S
C114 H117 0.960 . S
H115 C114 0.961 . S
H116 C114 0.961 . S
H117 C114 0.960 . S
C118 N119 1.342 . S
C118 C122 1.401 . S
C118 C123 1.499 . S
N119 Co102 1.989 . S
N119 C118 1.342 . S
N119 N120 1.388 . S
N120 Co103 1.993 . S
N120 N119 1.388 . S
N120 C121 1.346 . S
C121 N120 1.346 . S
C121 C122 1.396 . S
C121 C131 1.510 . S
C122 C118 1.401 . S
C122 C121 1.396 . S
C123 C118 1.499 . S
C123 H124 0.959 . S
C123 H125 0.960 . S
C123 H126 0.961 . S
H124 C123 0.959 . S
H125 C123 0.960 . S
H126 C123 0.961 . S
O127 Co102 1.967 . S
O127 C135 1.258 . S
O128 Co103 1.941 . S
O128 C135 1.266 . S
H129 C131 0.959 . S
H130 C131 0.961 . S
C131 C121 1.510 . S
C131 H129 0.959 . S
C131 H130 0.961 . S
C131 H132 0.960 . S
H132 C131 0.960 . S
H133 N113 0.862 . S
O134 Co102 1.920 . S
O134 C107 1.289 . S
C135 O127 1.258 . S
C135 O128 1.266 . S
Co136 O139 1.970 1_455 S
Co136 N153 1.989 . S
Co136 O161 1.967 . S
Co136 O168 1.920 . S
Co137 O140 1.966 1_455 S
Co137 N146 2.022 . S
Co137 N154 1.993 . S
Co137 O162 1.941 . S
C138 O139 1.258 . S
C138 O140 1.263 . S
O139 Co136 1.970 1_655 S
O139 C138 1.258 . S
O140 Co137 1.966 1_655 S
O140 C138 1.263 . S
C141 O142 1.235 . S
C141 O168 1.289 1_655 S
O142 C141 1.235 . S
C143 C145 1.400 . S
C143 N146 1.351 1_655 S
C143 C148 1.501 . S
C144 C145 1.387 1_455 S
C144 N147 1.341 . S
C145 C143 1.400 . S
C145 C144 1.387 1_655 S
N146 Co137 2.022 . S
N146 C143 1.351 1_455 S
N146 N147 1.365 . S
N147 C144 1.341 . S
N147 N146 1.365 . S
N147 H167 0.862 . S
C148 C143 1.501 . S
C148 H149 0.961 . S
C148 H150 0.961 . S
C148 H151 0.960 . S
H149 C148 0.961 . S
H150 C148 0.961 . S
H151 C148 0.960 . S
C152 N153 1.342 . S
C152 C156 1.401 . S
C152 C157 1.499 . S
N153 Co136 1.989 . S
N153 C152 1.342 . S
N153 N154 1.388 . S
N154 Co137 1.993 . S
N154 N153 1.388 . S
N154 C155 1.346 . S
C155 N154 1.346 . S
C155 C156 1.396 . S
C155 C165 1.510 . S
C156 C152 1.401 . S
C156 C155 1.396 . S
C157 C152 1.499 . S
C157 H158 0.959 . S
C157 H159 0.960 . S
C157 H160 0.961 . S
H158 C157 0.959 . S
H159 C157 0.960 . S
H160 C157 0.961 . S
O161 Co136 1.967 . S
O161 C169 1.258 . S
O162 Co137 1.941 . S
O162 C169 1.266 . S
H163 C165 0.959 . S
H164 C165 0.961 1_655 S
C165 C155 1.510 . S
C165 H163 0.959 . S
C165 H164 0.961 1_455 S
C165 H166 0.960 . S
H166 C165 0.960 . S
H167 N147 0.862 . S
O168 Co136 1.920 . S
O168 C141 1.289 1_455 S
C169 O161 1.258 . S
C169 O162 1.266 . S
Co170 O173 1.970 . S
Co170 N187 1.989 . S
Co170 O195 1.967 . S
Co170 O202 1.920 . S
Co171 O174 1.966 . S
Co171 N180 2.022 . S
Co171 N188 1.993 . S
Co171 O196 1.941 . S
C172 O173 1.258 . S
C172 O174 1.263 . S
O173 Co170 1.970 . S
O173 C172 1.258 . S
O174 Co171 1.966 . S
O174 C172 1.263 . S
C175 O176 1.235 . S
C175 O202 1.289 . S
O176 C175 1.235 . S
C177 C179 1.400 . S
C177 N180 1.351 . S
C177 C182 1.501 . S
C178 C179 1.387 . S
C178 N181 1.341 . S
C179 C177 1.400 . S
C179 C178 1.387 . S
N180 Co171 2.022 . S
N180 C177 1.351 . S
N180 N181 1.365 . S
N181 C178 1.341 . S
N181 N180 1.365 . S
N181 H201 0.862 . S
C182 C177 1.501 . S
C182 H183 0.961 . S
C182 H184 0.961 . S
C182 H185 0.960 . S
H183 C182 0.961 . S
H184 C182 0.961 . S
H185 C182 0.960 . S
C186 N187 1.342 . S
C186 C190 1.401 . S
C186 C191 1.499 . S
N187 Co170 1.989 . S
N187 C186 1.342 . S
N187 N188 1.388 . S
N188 Co171 1.993 . S
N188 N187 1.388 . S
N188 C189 1.346 . S
C189 N188 1.346 . S
C189 C190 1.396 . S
C189 C199 1.510 . S
C190 C186 1.401 . S
C190 C189 1.396 . S
C191 C186 1.499 . S
C191 H192 0.959 . S
C191 H193 0.960 . S
C191 H194 0.961 . S
H192 C191 0.959 . S
H193 C191 0.960 . S
H194 C191 0.961 . S
O195 Co170 1.967 . S
O195 C203 1.258 . S
O196 Co171 1.941 . S
O196 C203 1.266 . S
H197 C199 0.959 . S
H198 C199 0.961 . S
C199 C189 1.510 . S
C199 H197 0.959 . S
C199 H198 0.961 . S
C199 H200 0.960 . S
H200 C199 0.960 . S
H201 N181 0.862 . S
O202 Co170 1.920 . S
O202 C175 1.289 . S
C203 O195 1.258 . S
C203 O196 1.266 . S
Co204 O207 1.970 . S
Co204 N221 1.989 . S
Co204 O229 1.967 . S
Co204 O236 1.920 . S
Co205 O208 1.966 . S
Co205 N214 2.022 . S
Co205 N222 1.993 . S
Co205 O230 1.941 . S
C206 O207 1.258 . S
C206 O208 1.263 . S
O207 Co204 1.970 . S
O207 C206 1.258 . S
O208 Co205 1.966 . S
O208 C206 1.263 . S
C209 O210 1.235 1_565 S
C209 O236 1.289 1_565 S
O210 C209 1.235 1_545 S
C211 C213 1.400 . S
C211 N214 1.351 . S
C211 C216 1.501 . S
C212 C213 1.387 . S
C212 N215 1.341 . S
C213 C211 1.400 . S
C213 C212 1.387 . S
N214 Co205 2.022 . S
N214 C211 1.351 . S
N214 N215 1.365 . S
N215 C212 1.341 . S
N215 N214 1.365 . S
N215 H235 0.862 . S
C216 C211 1.501 . S
C216 H217 0.961 . S
C216 H218 0.961 . S
C216 H219 0.960 . S
H217 C216 0.961 . S
H218 C216 0.961 . S
H219 C216 0.960 . S
C220 N221 1.342 . S
C220 C224 1.401 . S
C220 C225 1.499 . S
N221 Co204 1.989 . S
N221 C220 1.342 . S
N221 N222 1.388 . S
N222 Co205 1.993 . S
N222 N221 1.388 . S
N222 C223 1.346 . S
C223 N222 1.346 . S
C223 C224 1.396 . S
C223 C233 1.510 . S
C224 C220 1.401 . S
C224 C223 1.396 . S
C225 C220 1.499 . S
C225 H226 0.959 . S
C225 H227 0.960 . S
C225 H228 0.961 . S
H226 C225 0.959 . S
H227 C225 0.960 . S
H228 C225 0.961 . S
O229 Co204 1.967 . S
O229 C237 1.258 . S
O230 Co205 1.941 . S
O230 C237 1.266 . S
H231 C233 0.959 . S
H232 C233 0.961 . S
C233 C223 1.510 . S
C233 H231 0.959 . S
C233 H232 0.961 . S
C233 H234 0.960 . S
H234 C233 0.960 . S
H235 N215 0.862 . S
O236 Co204 1.920 . S
O236 C209 1.289 1_545 S
C237 O229 1.258 . S
C237 O230 1.266 . S
Co238 O241 1.970 . S
Co238 N255 1.989 . S
Co238 O263 1.967 . S
Co238 O270 1.920 . S
Co239 O242 1.966 . S
Co239 N248 2.022 . S
Co239 N256 1.993 . S
Co239 O264 1.941 . S
C240 O241 1.258 . S
C240 O242 1.263 . S
O241 Co238 1.970 . S
O241 C240 1.258 . S
O242 Co239 1.966 . S
O242 C240 1.263 . S
C243 O244 1.235 . S
C243 O270 1.289 . S
O244 C243 1.235 . S
C245 C247 1.400 . S
C245 N248 1.351 . S
C245 C250 1.501 . S
C246 C247 1.387 . S
C246 N249 1.341 . S
C247 C245 1.400 . S
C247 C246 1.387 . S
N248 Co239 2.022 . S
N248 C245 1.351 . S
N248 N249 1.365 . S
N249 C246 1.341 . S
N249 N248 1.365 . S
N249 H269 0.862 . S
C250 C245 1.501 . S
C250 H251 0.961 . S
C250 H252 0.961 . S
C250 H253 0.960 . S
H251 C250 0.961 . S
H252 C250 0.961 . S
H253 C250 0.960 . S
C254 N255 1.342 . S
C254 C258 1.401 . S
C254 C259 1.499 . S
N255 Co238 1.989 . S
N255 C254 1.342 . S
N255 N256 1.388 . S
N256 Co239 1.993 . S
N256 N255 1.388 . S
N256 C257 1.346 . S
C257 N256 1.346 . S
C257 C258 1.396 . S
C257 C267 1.510 . S
C258 C254 1.401 . S
C258 C257 1.396 . S
C259 C254 1.499 . S
C259 H260 0.959 . S
C259 H261 0.960 . S
C259 H262 0.961 . S
H260 C259 0.959 . S
H261 C259 0.960 . S
H262 C259 0.961 . S
O263 Co238 1.967 . S
O263 C271 1.258 . S
O264 Co239 1.941 . S
O264 C271 1.266 . S
H265 C267 0.959 . S
H266 C267 0.961 . S
C267 C257 1.510 . S
C267 H265 0.959 . S
C267 H266 0.961 . S
C267 H268 0.960 . S
H268 C267 0.960 . S
H269 N249 0.862 . S
O270 Co238 1.920 . S
O270 C243 1.289 . S
C271 O263 1.258 . S
C271 O264 1.266 . S
Co272 O275 1.970 . S
Co272 N289 1.989 . S
Co272 O297 1.967 . S
Co272 O304 1.920 . S
Co273 O276 1.966 . S
Co273 N282 2.022 . S
Co273 N290 1.993 . S
Co273 O298 1.941 . S
C274 O275 1.258 . S
C274 O276 1.263 . S
O275 Co272 1.970 . S
O275 C274 1.258 . S
O276 Co273 1.966 . S
O276 C274 1.263 . S
C277 O278 1.235 . S
C277 O304 1.289 . S
O278 C277 1.235 . S
C279 C281 1.400 . S
C279 N282 1.351 . S
C279 C284 1.501 . S
C280 C281 1.387 . S
C280 N283 1.341 . S
C281 C279 1.400 . S
C281 C280 1.387 . S
N282 Co273 2.022 . S
N282 C279 1.351 . S
N282 N283 1.365 . S
N283 C280 1.341 . S
N283 N282 1.365 . S
N283 H303 0.862 . S
C284 C279 1.501 . S
C284 H285 0.961 . S
C284 H286 0.961 . S
C284 H287 0.960 . S
H285 C284 0.961 . S
H286 C284 0.961 . S
H287 C284 0.960 . S
C288 N289 1.342 . S
C288 C292 1.401 . S
C288 C293 1.499 . S
N289 Co272 1.989 . S
N289 C288 1.342 . S
N289 N290 1.388 . S
N290 Co273 1.993 . S
N290 N289 1.388 . S
N290 C291 1.346 . S
C291 N290 1.346 . S
C291 C292 1.396 . S
C291 C301 1.510 . S
C292 C288 1.401 . S
C292 C291 1.396 . S
C293 C288 1.499 . S
C293 H294 0.959 . S
C293 H295 0.960 . S
C293 H296 0.961 . S
H294 C293 0.959 . S
H295 C293 0.960 . S
H296 C293 0.961 . S
O297 Co272 1.967 . S
O297 C305 1.258 . S
O298 Co273 1.941 . S
O298 C305 1.266 . S
H299 C301 0.959 . S
H300 C301 0.961 . S
C301 C291 1.510 . S
C301 H299 0.959 . S
C301 H300 0.961 . S
C301 H302 0.960 . S
H302 C301 0.960 . S
H303 N283 0.862 . S
O304 Co272 1.920 . S
O304 C277 1.289 . S
C305 O297 1.258 . S
C305 O298 1.266 . S
Co306 O309 1.970 . S
Co306 N323 1.989 . S
Co306 O331 1.967 . S
Co306 O338 1.920 . S
Co307 O310 1.966 . S
Co307 N316 2.022 . S
Co307 N324 1.993 . S
Co307 O332 1.941 . S
C308 O309 1.258 . S
C308 O310 1.263 . S
O309 Co306 1.970 . S
O309 C308 1.258 . S
O310 Co307 1.966 . S
O310 C308 1.263 . S
C311 O312 1.235 . S
C311 O338 1.289 . S
O312 C311 1.235 . S
C313 C315 1.400 . S
C313 N316 1.351 . S
C313 C318 1.501 . S
C314 C315 1.387 . S
C314 N317 1.341 . S
C315 C313 1.400 . S
C315 C314 1.387 . S
N316 Co307 2.022 . S
N316 C313 1.351 . S
N316 N317 1.365 . S
N317 C314 1.341 . S
N317 N316 1.365 . S
N317 H337 0.862 . S
C318 C313 1.501 . S
C318 H319 0.961 . S
C318 H320 0.961 1_565 S
C318 H321 0.960 . S
H319 C318 0.961 . S
H320 C318 0.961 1_545 S
H321 C318 0.960 . S
C322 N323 1.342 . S
C322 C326 1.401 . S
C322 C327 1.499 . S
N323 Co306 1.989 . S
N323 C322 1.342 . S
N323 N324 1.388 . S
N324 Co307 1.993 . S
N324 N323 1.388 . S
N324 C325 1.346 . S
C325 N324 1.346 . S
C325 C326 1.396 . S
C325 C335 1.510 . S
C326 C322 1.401 . S
C326 C325 1.396 . S
C327 C322 1.499 . S
C327 H328 0.959 . S
C327 H329 0.960 . S
C327 H330 0.961 . S
H328 C327 0.959 . S
H329 C327 0.960 . S
H330 C327 0.961 . S
O331 Co306 1.967 . S
O331 C339 1.258 . S
O332 Co307 1.941 . S
O332 C339 1.266 . S
H333 C335 0.959 . S
H334 C335 0.961 . S
C335 C325 1.510 . S
C335 H333 0.959 . S
C335 H334 0.961 . S
C335 H336 0.960 . S
H336 C335 0.960 . S
H337 N317 0.862 . S
O338 Co306 1.920 . S
O338 C311 1.289 . S
C339 O331 1.258 . S
C339 O332 1.266 . S
Co340 O343 1.970 . S
Co340 N357 1.989 . S
Co340 O365 1.967 . S
Co340 O372 1.920 . S
Co341 O344 1.966 . S
Co341 N350 2.022 . S
Co341 N358 1.993 . S
Co341 O366 1.941 . S
C342 O343 1.258 . S
C342 O344 1.263 . S
O343 Co340 1.970 . S
O343 C342 1.258 . S
O344 Co341 1.966 . S
O344 C342 1.263 . S
C345 O346 1.235 . S
C345 O372 1.289 . S
O346 C345 1.235 . S
C347 C349 1.400 . S
C347 N350 1.351 . S
C347 C352 1.501 . S
C348 C349 1.387 . S
C348 N351 1.341 . S
C349 C347 1.400 . S
C349 C348 1.387 . S
N350 Co341 2.022 . S
N350 C347 1.351 . S
N350 N351 1.365 . S
N351 C348 1.341 . S
N351 N350 1.365 . S
N351 H371 0.862 . S
C352 C347 1.501 . S
C352 H353 0.961 . S
C352 H354 0.961 . S
C352 H355 0.960 . S
H353 C352 0.961 . S
H354 C352 0.961 . S
H355 C352 0.960 . S
C356 N357 1.342 . S
C356 C360 1.401 . S
C356 C361 1.499 . S
N357 Co340 1.989 . S
N357 C356 1.342 . S
N357 N358 1.388 . S
N358 Co341 1.993 . S
N358 N357 1.388 . S
N358 C359 1.346 . S
C359 N358 1.346 . S
C359 C360 1.396 . S
C359 C369 1.510 . S
C360 C356 1.401 . S
C360 C359 1.396 . S
C361 C356 1.499 . S
C361 H362 0.959 . S
C361 H363 0.960 . S
C361 H364 0.961 . S
H362 C361 0.959 . S
H363 C361 0.960 . S
H364 C361 0.961 . S
O365 Co340 1.967 . S
O365 C373 1.258 . S
O366 Co341 1.941 . S
O366 C373 1.266 . S
H367 C369 0.959 . S
H368 C369 0.961 . S
C369 C359 1.510 . S
C369 H367 0.959 . S
C369 H368 0.961 . S
C369 H370 0.960 . S
H370 C369 0.960 . S
H371 N351 0.862 . S
O372 Co340 1.920 . S
O372 C345 1.289 . S
C373 O365 1.258 . S
C373 O366 1.266 . S
Co374 O377 1.970 . S
Co374 N391 1.989 . S
Co374 O399 1.967 . S
Co374 O406 1.920 . S
Co375 O378 1.966 . S
Co375 N384 2.022 . S
Co375 N392 1.993 . S
Co375 O400 1.941 . S
C376 O377 1.258 . S
C376 O378 1.263 . S
O377 Co374 1.970 . S
O377 C376 1.258 . S
O378 Co375 1.966 . S
O378 C376 1.263 . S
C379 O380 1.235 . S
C379 O406 1.289 . S
O380 C379 1.235 . S
C381 C383 1.400 . S
C381 N384 1.351 . S
C381 C386 1.501 . S
C382 C383 1.387 . S
C382 N385 1.341 . S
C383 C381 1.400 . S
C383 C382 1.387 . S
N384 Co375 2.022 . S
N384 C381 1.351 . S
N384 N385 1.365 . S
N385 C382 1.341 . S
N385 N384 1.365 . S
N385 H405 0.862 . S
C386 C381 1.501 . S
C386 H387 0.961 . S
C386 H388 0.961 1_565 S
C386 H389 0.960 . S
H387 C386 0.961 . S
H388 C386 0.961 1_545 S
H389 C386 0.960 . S
C390 N391 1.342 . S
C390 C394 1.401 . S
C390 C395 1.499 . S
N391 Co374 1.989 . S
N391 C390 1.342 . S
N391 N392 1.388 . S
N392 Co375 1.993 . S
N392 N391 1.388 . S
N392 C393 1.346 . S
C393 N392 1.346 . S
C393 C394 1.396 . S
C393 C403 1.510 . S
C394 C390 1.401 . S
C394 C393 1.396 . S
C395 C390 1.499 . S
C395 H396 0.959 . S
C395 H397 0.960 . S
C395 H398 0.961 . S
H396 C395 0.959 . S
H397 C395 0.960 . S
H398 C395 0.961 . S
O399 Co374 1.967 . S
O399 C407 1.258 . S
O400 Co375 1.941 . S
O400 C407 1.266 . S
H401 C403 0.959 . S
H402 C403 0.961 . S
C403 C393 1.510 . S
C403 H401 0.959 . S
C403 H402 0.961 . S
C403 H404 0.960 . S
H404 C403 0.960 . S
H405 N385 0.862 . S
O406 Co374 1.920 . S
O406 C379 1.289 . S
C407 O399 1.258 . S
C407 O400 1.266 . S
Co408 O411 1.970 . S
Co408 N425 1.989 . S
Co408 O433 1.967 . S
Co408 O440 1.920 . S
Co409 O412 1.966 . S
Co409 N418 2.022 . S
Co409 N426 1.993 . S
Co409 O434 1.941 . S
C410 O411 1.258 . S
C410 O412 1.263 . S
O411 Co408 1.970 . S
O411 C410 1.258 . S
O412 Co409 1.966 . S
O412 C410 1.263 . S
C413 O414 1.235 . S
C413 O440 1.289 . S
O414 C413 1.235 . S
C415 C417 1.400 . S
C415 N418 1.351 . S
C415 C420 1.501 . S
C416 C417 1.387 . S
C416 N419 1.341 . S
C417 C415 1.400 . S
C417 C416 1.387 . S
N418 Co409 2.022 . S
N418 C415 1.351 . S
N418 N419 1.365 . S
N419 C416 1.341 . S
N419 N418 1.365 . S
N419 H439 0.862 . S
C420 C415 1.501 . S
C420 H421 0.961 . S
C420 H422 0.961 . S
C420 H423 0.960 . S
H421 C420 0.961 . S
H422 C420 0.961 . S
H423 C420 0.960 . S
C424 N425 1.342 . S
C424 C428 1.401 . S
C424 C429 1.499 . S
N425 Co408 1.989 . S
N425 C424 1.342 . S
N425 N426 1.388 . S
N426 Co409 1.993 . S
N426 N425 1.388 . S
N426 C427 1.346 . S
C427 N426 1.346 . S
C427 C428 1.396 . S
C427 C437 1.510 . S
C428 C424 1.401 . S
C428 C427 1.396 . S
C429 C424 1.499 . S
C429 H430 0.959 . S
C429 H431 0.960 . S
C429 H432 0.961 . S
H430 C429 0.959 . S
H431 C429 0.960 . S
H432 C429 0.961 . S
O433 Co408 1.967 . S
O433 C441 1.258 . S
O434 Co409 1.941 . S
O434 C441 1.266 . S
H435 C437 0.959 . S
H436 C437 0.961 . S
C437 C427 1.510 . S
C437 H435 0.959 . S
C437 H436 0.961 . S
C437 H438 0.960 . S
H438 C437 0.960 . S
H439 N419 0.862 . S
O440 Co408 1.920 . S
O440 C413 1.289 . S
C441 O433 1.258 . S
C441 O434 1.266 . S
Co442 O445 1.970 . S
Co442 N459 1.989 . S
Co442 O467 1.967 1_455 S
Co442 O474 1.920 . S
Co443 O446 1.966 1_655 S
Co443 N452 2.022 . S
Co443 N460 1.993 1_655 S
Co443 O468 1.941 . S
C444 O445 1.258 . S
C444 O446 1.263 . S
O445 Co442 1.970 . S
O445 C444 1.258 . S
O446 Co443 1.966 1_455 S
O446 C444 1.263 . S
C447 O448 1.235 . S
C447 O474 1.289 . S
O448 C447 1.235 . S
C449 C451 1.400 . S
C449 N452 1.351 1_455 S
C449 C454 1.501 . S
C450 C451 1.387 1_655 S
C450 N453 1.341 . S
C451 C449 1.400 . S
C451 C450 1.387 1_455 S
N452 Co443 2.022 . S
N452 C449 1.351 1_655 S
N452 N453 1.365 . S
N453 C450 1.341 . S
N453 N452 1.365 . S
N453 H473 0.862 . S
C454 C449 1.501 . S
C454 H455 0.961 . S
C454 H456 0.961 . S
C454 H457 0.960 . S
H455 C454 0.961 . S
H456 C454 0.961 . S
H457 C454 0.960 . S
C458 N459 1.342 1_655 S
C458 C462 1.401 . S
C458 C463 1.499 . S
N459 Co442 1.989 . S
N459 C458 1.342 1_455 S
N459 N460 1.388 . S
N460 Co443 1.993 1_455 S
N460 N459 1.388 . S
N460 C461 1.346 1_455 S
C461 N460 1.346 1_655 S
C461 C462 1.396 . S
C461 C471 1.510 . S
C462 C458 1.401 . S
C462 C461 1.396 . S
C463 C458 1.499 . S
C463 H464 0.959 . S
C463 H465 0.960 1_655 S
C463 H466 0.961 . S
H464 C463 0.959 . S
H465 C463 0.960 1_455 S
H466 C463 0.961 . S
O467 Co442 1.967 1_655 S
O467 C475 1.258 . S
O468 Co443 1.941 . S
O468 C475 1.266 . S
H469 C471 0.960 . S
H470 C471 0.960 1_455 S
C471 C461 1.510 . S
C471 H469 0.960 . S
C471 H470 0.960 1_655 S
C471 H472 0.960 1_655 S
H472 C471 0.960 1_455 S
H473 N453 0.862 . S
O474 Co442 1.920 . S
O474 C447 1.289 . S
C475 O467 1.258 . S
C475 O468 1.266 . S
Co476 O479 1.970 . S
Co476 N493 1.989 . S
Co476 O501 1.967 . S
Co476 O508 1.920 . S
Co477 O480 1.966 . S
Co477 N486 2.022 . S
Co477 N494 1.993 . S
Co477 O502 1.941 . S
C478 O479 1.258 . S
C478 O480 1.263 . S
O479 Co476 1.970 . S
O479 C478 1.258 . S
O480 Co477 1.966 . S
O480 C478 1.263 . S
C481 O482 1.235 . S
C481 O508 1.289 . S
O482 C481 1.235 . S
C483 C485 1.400 . S
C483 N486 1.351 . S
C483 C488 1.501 . S
C484 C485 1.387 . S
C484 N487 1.341 . S
C485 C483 1.400 . S
C485 C484 1.387 . S
N486 Co477 2.022 . S
N486 C483 1.351 . S
N486 N487 1.365 . S
N487 C484 1.341 . S
N487 N486 1.365 . S
N487 H507 0.862 . S
C488 C483 1.501 . S
C488 H489 0.961 . S
C488 H490 0.961 . S
C488 H491 0.960 . S
H489 C488 0.961 . S
H490 C488 0.961 . S
H491 C488 0.960 . S
C492 N493 1.342 . S
C492 C496 1.401 . S
C492 C497 1.499 . S
N493 Co476 1.989 . S
N493 C492 1.342 . S
N493 N494 1.388 . S
N494 Co477 1.993 . S
N494 N493 1.388 . S
N494 C495 1.346 . S
C495 N494 1.346 . S
C495 C496 1.396 . S
C495 C505 1.510 . S
C496 C492 1.401 . S
C496 C495 1.396 . S
C497 C492 1.499 . S
C497 H498 0.959 . S
C497 H499 0.960 . S
C497 H500 0.961 . S
H498 C497 0.959 . S
H499 C497 0.960 . S
H500 C497 0.961 . S
O501 Co476 1.967 . S
O501 C509 1.258 . S
O502 Co477 1.941 . S
O502 C509 1.266 . S
H503 C505 0.959 . S
H504 C505 0.961 . S
C505 C495 1.510 . S
C505 H503 0.959 . S
C505 H504 0.961 . S
C505 H506 0.960 . S
H506 C505 0.960 . S
H507 N487 0.862 . S
O508 Co476 1.920 . S
O508 C481 1.289 . S
C509 O501 1.258 . S
C509 O502 1.266 . S
Co510 O513 1.970 . S
Co510 N527 1.989 . S
Co510 O535 1.967 1_455 S
Co510 O542 1.920 . S
Co511 O514 1.966 1_655 S
Co511 N520 2.022 . S
Co511 N528 1.993 1_655 S
Co511 O536 1.941 . S
C512 O513 1.258 . S
C512 O514 1.263 . S
O513 Co510 1.970 . S
O513 C512 1.258 . S
O514 Co511 1.966 1_455 S
O514 C512 1.263 . S
C515 O516 1.235 . S
C515 O542 1.289 . S
O516 C515 1.235 . S
C517 C519 1.400 . S
C517 N520 1.351 1_455 S
C517 C522 1.501 . S
C518 C519 1.387 1_655 S
C518 N521 1.341 . S
C519 C517 1.400 . S
C519 C518 1.387 1_455 S
N520 Co511 2.022 . S
N520 C517 1.351 1_655 S
N520 N521 1.365 . S
N521 C518 1.341 . S
N521 N520 1.365 . S
N521 H541 0.862 . S
C522 C517 1.501 . S
C522 H523 0.961 . S
C522 H524 0.961 . S
C522 H525 0.960 . S
H523 C522 0.961 . S
H524 C522 0.961 . S
H525 C522 0.960 . S
C526 N527 1.342 1_655 S
C526 C530 1.401 . S
C526 C531 1.499 . S
N527 Co510 1.989 . S
N527 C526 1.342 1_455 S
N527 N528 1.388 . S
N528 Co511 1.993 1_455 S
N528 N527 1.388 . S
N528 C529 1.346 1_455 S
C529 N528 1.346 1_655 S
C529 C530 1.396 . S
C529 C539 1.510 . S
C530 C526 1.401 . S
C530 C529 1.396 . S
C531 C526 1.499 . S
C531 H532 0.959 . S
C531 H533 0.960 1_655 S
C531 H534 0.961 . S
H532 C531 0.959 . S
H533 C531 0.960 1_455 S
H534 C531 0.961 . S
O535 Co510 1.967 1_655 S
O535 C543 1.258 . S
O536 Co511 1.941 . S
O536 C543 1.266 . S
H537 C539 0.962 . S
H538 C539 0.959 1_455 S
C539 C529 1.510 . S
C539 H537 0.962 . S
C539 H538 0.959 1_655 S
C539 H540 0.960 1_655 S
H540 C539 0.960 1_455 S
H541 N521 0.862 . S
O542 Co510 1.920 . S
O542 C515 1.289 . S
C543 O535 1.258 . S
C543 O536 1.266 . S
C544 C545 1.363 . S
C544 C550 1.379 . S
C544 N552 1.356 . S
C545 C544 1.363 . S
C545 C551 1.363 1_455 S
C546 C547 1.363 . S
C546 C551 1.379 . S
C546 N553 1.356 . S
C547 C546 1.363 . S
C547 C550 1.363 1_655 S
N548 C550 1.356 . S
N548 H560 0.984 . S
N548 H561 0.985 . S
N549 C551 1.356 . S
N549 H554 0.984 1_655 S
N549 H555 0.985 . S
C550 C544 1.379 . S
C550 C547 1.363 1_455 S
C550 N548 1.356 . S
C551 C545 1.363 1_655 S
C551 C546 1.379 . S
C551 N549 1.356 . S
N552 C544 1.356 . S
N552 H558 0.984 . S
N552 H559 0.984 . S
N553 C546 1.356 . S
N553 H556 0.984 . S
N553 H557 0.985 . S
H554 N549 0.984 1_455 S
H555 N549 0.985 . S
H556 N553 0.984 . S
H557 N553 0.985 . S
H558 N552 0.984 . S
H559 N552 0.984 . S
H560 N548 0.984 . S
H561 N548 0.985 . S
C562 C563 1.363 . S
C562 C568 1.379 1_455 S
C562 N570 1.356 . S
C563 C562 1.363 . S
C563 C569 1.363 . S
C564 C565 1.363 . S
C564 C569 1.379 1_655 S
C564 N571 1.356 . S
C565 C564 1.363 . S
C565 C568 1.363 . S
N566 C568 1.356 . S
N566 H578 0.984 . S
N566 H579 0.985 . S
N567 C569 1.356 . S
N567 H572 0.984 . S
N567 H573 0.985 . S
C568 C562 1.379 1_655 S
C568 C565 1.363 . S
C568 N566 1.356 . S
C569 C563 1.363 . S
C569 C564 1.379 1_455 S
C569 N567 1.356 . S
N570 C562 1.356 . S
N570 H576 0.984 . S
N570 H577 0.984 . S
N571 C564 1.356 . S
N571 H574 0.984 . S
N571 H575 0.985 . S
H572 N567 0.984 . S
H573 N567 0.985 . S
H574 N571 0.984 . S
H575 N571 0.985 . S
H576 N570 0.984 . S
H577 N570 0.984 . S
H578 N566 0.984 . S
H579 N566 0.985 . S
C580 C581 1.363 . S
C580 C586 1.379 . S
C580 N588 1.356 . S
C581 C580 1.363 . S
C581 C587 1.363 . S
C582 C583 1.363 . S
C582 C587 1.379 . S
C582 N589 1.356 . S
C583 C582 1.363 . S
C583 C586 1.363 . S
N584 C586 1.356 . S
N584 H596 0.984 . S
N584 H597 0.985 . S
N585 C587 1.356 . S
N585 H590 0.984 . S
N585 H591 0.985 . S
C586 C580 1.379 . S
C586 C583 1.363 . S
C586 N584 1.356 . S
C587 C581 1.363 . S
C587 C582 1.379 . S
C587 N585 1.356 . S
N588 C580 1.356 . S
N588 H594 0.984 . S
N588 H595 0.984 1_565 S
N589 C582 1.356 . S
N589 H592 0.984 . S
N589 H593 0.985 . S
H590 N585 0.984 . S
H591 N585 0.985 . S
H592 N589 0.984 . S
H593 N589 0.985 . S
H594 N588 0.984 . S
H595 N588 0.984 1_545 S
H596 N584 0.984 . S
H597 N584 0.985 . S
C598 C599 1.363 . S
C598 C604 1.379 . S
C598 N606 1.356 . S
C599 C598 1.363 . S
C599 C605 1.363 . S
C600 C601 1.363 . S
C600 C605 1.379 . S
C600 N607 1.356 . S
C601 C600 1.363 . S
C601 C604 1.363 . S
N602 C604 1.356 . S
N602 H614 0.984 . S
N602 H615 0.985 . S
N603 C605 1.356 . S
N603 H608 0.984 . S
N603 H609 0.985 . S
C604 C598 1.379 . S
C604 C601 1.363 . S
C604 N602 1.356 . S
C605 C599 1.363 . S
C605 C600 1.379 . S
C605 N603 1.356 . S
N606 C598 1.356 . S
N606 H612 0.984 . S
N606 H613 0.984 . S
N607 C600 1.356 . S
N607 H610 0.984 . S
N607 H611 0.985 . S
H608 N603 0.984 . S
H609 N603 0.985 . S
H610 N607 0.984 . S
H611 N607 0.985 . S
H612 N606 0.984 . S
H613 N606 0.984 . S
H614 N602 0.984 . S
H615 N602 0.985 . S
C616 C617 1.363 1_655 S
C616 C622 1.379 . S
C616 N624 1.356 . S
C617 C616 1.363 1_455 S
C617 C623 1.363 . S
C618 C619 1.363 1_455 S
C618 C623 1.379 . S
C618 N625 1.356 . S
C619 C618 1.363 1_655 S
C619 C622 1.363 . S
N620 C622 1.356 . S
N620 H632 0.984 . S
N620 H633 0.985 . S
N621 C623 1.356 . S
N621 H626 0.984 . S
N621 H627 0.985 . S
C622 C616 1.379 . S
C622 C619 1.363 . S
C622 N620 1.356 . S
C623 C617 1.363 . S
C623 C618 1.379 . S
C623 N621 1.356 . S
N624 C616 1.356 . S
N624 H630 0.984 . S
N624 H631 0.984 1_655 S
N625 C618 1.356 . S
N625 H628 0.984 1_565 S
N625 H629 0.985 . S
H626 N621 0.984 . S
H627 N621 0.985 . S
H628 N625 0.984 1_545 S
H629 N625 0.985 . S
H630 N624 0.984 . S
H631 N624 0.984 1_455 S
H632 N620 0.984 . S
H633 N620 0.985 . S
C634 C635 1.363 . S
C634 C640 1.379 . S
C634 N642 1.356 . S
C635 C634 1.363 . S
C635 C641 1.363 . S
C636 C637 1.363 . S
C636 C641 1.379 . S
C636 N643 1.356 . S
C637 C636 1.363 . S
C637 C640 1.363 . S
N638 C640 1.356 . S
N638 H650 0.984 . S
N638 H651 0.985 . S
N639 C641 1.356 . S
N639 H644 0.984 . S
N639 H645 0.985 . S
C640 C634 1.379 . S
C640 C637 1.363 . S
C640 N638 1.356 . S
C641 C635 1.363 . S
C641 C636 1.379 . S
C641 N639 1.356 . S
N642 C634 1.356 . S
N642 H648 0.984 . S
N642 H649 0.984 . S
N643 C636 1.356 . S
N643 H646 0.984 . S
N643 H647 0.985 . S
H644 N639 0.984 . S
H645 N639 0.985 . S
H646 N643 0.984 . S
H647 N643 0.985 . S
H648 N642 0.984 . S
H649 N642 0.984 . S
H650 N638 0.984 . S
H651 N638 0.985 . S
C652 C653 1.363 . S
C652 C658 1.379 . S
C652 N660 1.356 . S
C653 C652 1.363 . S
C653 C659 1.363 . S
C654 C655 1.363 . S
C654 C659 1.379 . S
C654 N661 1.356 . S
C655 C654 1.363 . S
C655 C658 1.363 . S
N656 C658 1.356 . S
N656 H668 0.984 . S
N656 H669 0.985 . S
N657 C659 1.356 . S
N657 H662 0.984 . S
N657 H663 0.985 . S
C658 C652 1.379 . S
C658 C655 1.363 . S
C658 N656 1.356 . S
C659 C653 1.363 . S
C659 C654 1.379 . S
C659 N657 1.356 . S
N660 C652 1.356 . S
N660 H666 0.984 . S
N660 H667 0.984 . S
N661 C654 1.356 . S
N661 H664 0.984 . S
N661 H665 0.985 . S
H662 N657 0.984 . S
H663 N657 0.985 . S
H664 N661 0.984 . S
H665 N661 0.985 . S
H666 N660 0.984 . S
H667 N660 0.984 . S
H668 N656 0.984 . S
H669 N656 0.985 . S
C670 C671 1.363 . S
C670 C676 1.379 1_655 S
C670 N678 1.356 . S
C671 C670 1.363 . S
C671 C677 1.363 . S
C672 C673 1.363 . S
C672 C677 1.379 1_455 S
C672 N679 1.356 . S
C673 C672 1.363 . S
C673 C676 1.363 . S
N674 C676 1.356 . S
N674 H686 0.984 . S
N674 H687 0.985 . S
N675 C677 1.356 . S
N675 H680 0.984 . S
N675 H681 0.985 . S
C676 C670 1.379 1_455 S
C676 C673 1.363 . S
C676 N674 1.356 . S
C677 C671 1.363 . S
C677 C672 1.379 1_655 S
C677 N675 1.356 . S
N678 C670 1.356 . S
N678 H684 0.984 . S
N678 H685 0.984 . S
N679 C672 1.356 . S
N679 H682 0.984 . S
N679 H683 0.985 . S
H680 N675 0.984 . S
H681 N675 0.985 . S
H682 N679 0.984 . S
H683 N679 0.985 . S
H684 N678 0.984 . S
H685 N678 0.984 . S
H686 N674 0.984 . S
H687 N674 0.985 . S
C688 C689 1.363 . S
C688 C694 1.379 1_554 S
C688 N696 1.356 . S
C689 C688 1.363 . S
C689 C695 1.363 . S
C690 C691 1.363 . S
C690 C695 1.379 1_556 S
C690 N697 1.356 1_455 S
C691 C690 1.363 . S
C691 C694 1.363 . S
N692 C694 1.356 . S
N692 H704 0.984 . S
N692 H705 0.985 . S
N693 C695 1.356 1_655 S
N693 H698 0.984 . S
N693 H699 0.985 . S
C694 C688 1.379 1_556 S
C694 C691 1.363 . S
C694 N692 1.356 . S
C695 C689 1.363 . S
C695 C690 1.379 1_554 S
C695 N693 1.356 1_455 S
N696 C688 1.356 . S
N696 H702 0.984 . S
N696 H703 0.984 . S
N697 C690 1.356 1_655 S
N697 H700 0.984 . S
N697 H701 0.985 . S
H698 N693 0.984 . S
H699 N693 0.985 . S
H700 N697 0.984 . S
H701 N697 0.985 . S
H702 N696 0.984 . S
H703 N696 0.984 . S
H704 N692 0.984 . S
H705 N692 0.985 . S
C706 C707 1.363 . S
C706 C712 1.379 . S
C706 N714 1.364 . S
C707 C706 1.363 . S
C707 C713 1.363 . S
C708 C709 1.363 . S
C708 C713 1.379 . S
C708 N715 1.356 . S
C709 C708 1.363 . S
C709 C712 1.363 . S
N710 C712 1.364 . S
N710 H722 0.974 1_565 S
N710 H723 0.988 . S
N711 C713 1.356 . S
N711 H716 0.984 . S
N711 H717 0.985 . S
C712 C706 1.379 . S
C712 C709 1.363 . S
C712 N710 1.364 . S
C713 C707 1.363 . S
C713 C708 1.379 . S
C713 N711 1.356 . S
N714 C706 1.364 . S
N714 H720 0.973 1_565 S
N714 H721 0.988 . S
N715 C708 1.356 . S
N715 H718 0.984 . S
N715 H719 0.985 . S
H716 N711 0.984 . S
H717 N711 0.985 . S
H718 N715 0.984 . S
H719 N715 0.985 . S
H720 N714 0.973 1_545 S
H721 N714 0.988 . S
H722 N710 0.974 1_545 S
H723 N710 0.988 . S
C724 C725 1.363 . S
C724 C730 1.379 . S
C724 N732 1.356 . S
C725 C724 1.363 . S
C725 C731 1.363 . S
C726 C727 1.363 . S
C726 C731 1.379 . S
C726 N733 1.356 . S
C727 C726 1.363 . S
C727 C730 1.363 . S
N728 C730 1.356 . S
N728 H740 0.984 . S
N728 H741 0.985 . S
N729 C731 1.356 . S
N729 H734 0.984 . S
N729 H735 0.985 . S
C730 C724 1.379 . S
C730 C727 1.363 . S
C730 N728 1.356 . S
C731 C725 1.363 . S
C731 C726 1.379 . S
C731 N729 1.356 . S
N732 C724 1.356 . S
N732 H738 0.984 . S
N732 H739 0.984 . S
N733 C726 1.356 . S
N733 H736 0.984 . S
N733 H737 0.985 . S
H734 N729 0.984 . S
H735 N729 0.985 . S
H736 N733 0.984 . S
H737 N733 0.985 . S
H738 N732 0.984 . S
H739 N732 0.984 . S
H740 N728 0.984 . S
H741 N728 0.985 . S
C742 C743 1.363 . S
C742 C748 1.379 . S
C742 N750 1.356 . S
C743 C742 1.363 . S
C743 C749 1.363 . S
C744 C745 1.363 . S
C744 C749 1.379 . S
C744 N751 1.356 . S
C745 C744 1.363 . S
C745 C748 1.363 . S
N746 C748 1.356 . S
N746 H758 0.984 . S
N746 H759 0.985 . S
N747 C749 1.356 . S
N747 H752 0.984 . S
N747 H753 0.985 . S
C748 C742 1.379 . S
C748 C745 1.363 . S
C748 N746 1.356 . S
C749 C743 1.363 . S
C749 C744 1.379 . S
C749 N747 1.356 . S
N750 C742 1.356 . S
N750 H756 0.984 . S
N750 H757 0.984 . S
N751 C744 1.356 . S
N751 H754 0.984 . S
N751 H755 0.985 . S
H752 N747 0.984 . S
H753 N747 0.985 . S
H754 N751 0.984 . S
H755 N751 0.985 . S
H756 N750 0.984 . S
H757 N750 0.984 . S
H758 N746 0.984 . S
H759 N746 0.985 . S
C760 C761 1.363 . S
C760 C766 1.379 . S
C760 N768 1.356 . S
C761 C760 1.363 . S
C761 C767 1.363 . S
C762 C763 1.363 . S
C762 C767 1.379 . S
C762 N769 1.356 . S
C763 C762 1.363 . S
C763 C766 1.363 . S
N764 C766 1.356 . S
N764 H776 0.984 . S
N764 H777 0.985 . S
N765 C767 1.356 . S
N765 H770 0.984 . S
N765 H771 0.985 . S
C766 C760 1.379 . S
C766 C763 1.363 . S
C766 N764 1.356 . S
C767 C761 1.363 . S
C767 C762 1.379 . S
C767 N765 1.356 . S
N768 C760 1.356 . S
N768 H774 0.984 . S
N768 H775 0.984 . S
N769 C762 1.356 . S
N769 H772 0.984 . S
N769 H773 0.985 . S
H770 N765 0.984 . S
H771 N765 0.985 . S
H772 N769 0.984 . S
H773 N769 0.985 . S
H774 N768 0.984 . S
H775 N768 0.984 . S
H776 N764 0.984 . S
H777 N764 0.985 . S
C778 C779 1.363 . S
C778 C784 1.379 . S
C778 N786 1.356 . S
C779 C778 1.363 . S
C779 C785 1.363 . S
C780 C781 1.363 . S
C780 C785 1.379 . S
C780 N787 1.356 . S
C781 C780 1.363 . S
C781 C784 1.363 . S
N782 C784 1.356 . S
N782 H794 0.984 . S
N782 H795 0.985 . S
N783 C785 1.356 . S
N783 H788 0.984 . S
N783 H789 0.985 . S
C784 C778 1.379 . S
C784 C781 1.363 . S
C784 N782 1.356 . S
C785 C779 1.363 . S
C785 C780 1.379 . S
C785 N783 1.356 . S
N786 C778 1.356 . S
N786 H792 0.984 . S
N786 H793 0.984 . S
N787 C780 1.356 . S
N787 H790 0.984 . S
N787 H791 0.985 . S
H788 N783 0.984 . S
H789 N783 0.985 . S
H790 N787 0.984 . S
H791 N787 0.985 . S
H792 N786 0.984 . S
H793 N786 0.984 . S
H794 N782 0.984 . S
H795 N782 0.985 . S
C796 C797 1.363 . S
C796 C802 1.379 . S
C796 N804 1.356 . S
C797 C796 1.363 . S
C797 C803 1.363 . S
C798 C799 1.363 . S
C798 C803 1.379 . S
C798 N805 1.356 . S
C799 C798 1.363 . S
C799 C802 1.363 . S
N800 C802 1.356 . S
N800 H812 0.984 . S
N800 H813 0.985 . S
N801 C803 1.356 . S
N801 H806 0.984 . S
N801 H807 0.985 . S
C802 C796 1.379 . S
C802 C799 1.363 . S
C802 N800 1.356 . S
C803 C797 1.363 . S
C803 C798 1.379 . S
C803 N801 1.356 . S
N804 C796 1.356 . S
N804 H810 0.984 . S
N804 H811 0.984 . S
N805 C798 1.356 . S
N805 H808 0.984 . S
N805 H809 0.985 . S
H806 N801 0.984 . S
H807 N801 0.985 . S
H808 N805 0.984 . S
H809 N805 0.985 . S
H810 N804 0.984 . S
H811 N804 0.984 . S
H812 N800 0.984 . S
H813 N800 0.985 . S
C814 C815 1.363 . S
C814 C820 1.379 1_556 S
C814 N822 1.356 . S
C815 C814 1.363 . S
C815 C821 1.363 1_655 S
C816 C817 1.363 1_455 S
C816 C821 1.379 1_554 S
C816 N823 1.356 . S
C817 C816 1.363 1_655 S
C817 C820 1.363 . S
N818 C820 1.356 . S
N818 H830 0.984 . S
N818 H831 0.985 . S
N819 C821 1.356 . S
N819 H824 0.984 . S
N819 H825 0.985 . S
C820 C814 1.379 1_554 S
C820 C817 1.363 . S
C820 N818 1.356 . S
C821 C815 1.363 1_455 S
C821 C816 1.379 1_556 S
C821 N819 1.356 . S
N822 C814 1.356 . S
N822 H828 0.984 . S
N822 H829 0.984 . S
N823 C816 1.356 . S
N823 H826 0.984 . S
N823 H827 0.985 . S
H824 N819 0.984 . S
H825 N819 0.985 . S
H826 N823 0.984 . S
H827 N823 0.985 . S
H828 N822 0.984 . S
H829 N822 0.984 . S
H830 N818 0.984 . S
H831 N818 0.985 . S
C832 C833 1.363 . S
C832 C838 1.379 . S
C832 N840 1.356 . S
C833 C832 1.363 . S
C833 C839 1.363 . S
C834 C835 1.363 . S
C834 C839 1.379 . S
C834 N841 1.356 . S
C835 C834 1.363 . S
C835 C838 1.363 . S
N836 C838 1.356 . S
N836 H848 0.984 . S
N836 H849 0.985 . S
N837 C839 1.356 . S
N837 H842 0.984 1_545 S
N837 H843 0.985 . S
C838 C832 1.379 . S
C838 C835 1.363 . S
C838 N836 1.356 . S
C839 C833 1.363 . S
C839 C834 1.379 . S
C839 N837 1.356 . S
N840 C832 1.356 . S
N840 H846 0.984 . S
N840 H847 0.984 . S
N841 C834 1.356 . S
N841 H844 0.984 . S
N841 H845 0.985 . S
H842 N837 0.984 1_565 S
H843 N837 0.985 . S
H844 N841 0.984 . S
H845 N841 0.985 . S
H846 N840 0.984 . S
H847 N840 0.984 . S
H848 N836 0.984 . S
H849 N836 0.985 . S
C850 C851 1.363 . S
C850 C856 1.379 . S
C850 N858 1.356 . S
C851 C850 1.363 . S
C851 C857 1.363 . S
C852 C853 1.363 . S
C852 C857 1.379 . S
C852 N859 1.356 . S
C853 C852 1.363 . S
C853 C856 1.363 . S
N854 C856 1.356 . S
N854 H866 0.984 . S
N854 H867 0.985 . S
N855 C857 1.356 1_565 S
N855 H860 0.984 . S
N855 H861 0.985 . S
C856 C850 1.379 . S
C856 C853 1.363 . S
C856 N854 1.356 . S
C857 C851 1.363 . S
C857 C852 1.379 . S
C857 N855 1.356 1_545 S
N858 C850 1.356 . S
N858 H864 0.984 . S
N858 H865 0.984 . S
N859 C852 1.356 . S
N859 H862 0.984 . S
N859 H863 0.985 . S
H860 N855 0.984 . S
H861 N855 0.985 . S
H862 N859 0.984 . S
H863 N859 0.985 . S
H864 N858 0.984 . S
H865 N858 0.984 . S
H866 N854 0.984 . S
H867 N854 0.985 . S
C868 C869 1.363 . S
C868 C874 1.379 . S
C868 N876 1.356 . S
C869 C868 1.363 . S
C869 C875 1.363 . S
C870 C871 1.363 . S
C870 C875 1.379 . S
C870 N877 1.356 . S
C871 C870 1.363 . S
C871 C874 1.363 . S
N872 C874 1.356 . S
N872 H884 0.984 . S
N872 H885 0.985 . S
N873 C875 1.356 . S
N873 H878 0.984 . S
N873 H879 0.985 . S
C874 C868 1.379 . S
C874 C871 1.363 . S
C874 N872 1.356 . S
C875 C869 1.363 . S
C875 C870 1.379 . S
C875 N873 1.356 . S
N876 C868 1.356 . S
N876 H882 0.984 . S
N876 H883 0.984 . S
N877 C870 1.356 . S
N877 H880 0.984 . S
N877 H881 0.985 . S
H878 N873 0.984 . S
H879 N873 0.985 . S
H880 N877 0.984 . S
H881 N877 0.985 . S
H882 N876 0.984 . S
H883 N876 0.984 . S
H884 N872 0.984 . S
H885 N872 0.985 . S
C886 C887 1.363 . S
C886 C892 1.379 . S
C886 N894 1.356 . S
C887 C886 1.363 . S
C887 C893 1.363 . S
C888 C889 1.363 . S
C888 C893 1.379 . S
C888 N895 1.356 . S
C889 C888 1.363 . S
C889 C892 1.363 . S
N890 C892 1.356 . S
N890 H902 0.984 . S
N890 H903 0.985 . S
N891 C893 1.356 . S
N891 H896 0.984 . S
N891 H897 0.985 . S
C892 C886 1.379 . S
C892 C889 1.363 . S
C892 N890 1.356 . S
C893 C887 1.363 . S
C893 C888 1.379 . S
C893 N891 1.356 . S
N894 C886 1.356 . S
N894 H900 0.984 . S
N894 H901 0.984 . S
N895 C888 1.356 . S
N895 H898 0.984 . S
N895 H899 0.985 . S
H896 N891 0.984 . S
H897 N891 0.985 . S
H898 N895 0.984 . S
H899 N895 0.985 . S
H900 N894 0.984 . S
H901 N894 0.984 . S
H902 N890 0.984 . S
H903 N890 0.985 . S
C904 C905 1.363 . S
C904 C910 1.379 . S
C904 N912 1.356 . S
C905 C904 1.363 . S
C905 C911 1.363 . S
C906 C907 1.363 . S
C906 C911 1.379 . S
C906 N913 1.356 . S
C907 C906 1.363 . S
C907 C910 1.363 . S
N908 C910 1.356 . S
N908 H920 0.984 . S
N908 H921 0.985 . S
N909 C911 1.356 . S
N909 H914 0.984 . S
N909 H915 0.985 . S
C910 C904 1.379 . S
C910 C907 1.363 . S
C910 N908 1.356 . S
C911 C905 1.363 . S
C911 C906 1.379 . S
C911 N909 1.356 . S
N912 C904 1.356 . S
N912 H918 0.984 . S
N912 H919 0.984 . S
N913 C906 1.356 . S
N913 H916 0.984 . S
N913 H917 0.985 . S
H914 N909 0.984 . S
H915 N909 0.985 . S
H916 N913 0.984 . S
H917 N913 0.985 . S
H918 N912 0.984 . S
H919 N912 0.984 . S
H920 N908 0.984 . S
H921 N908 0.985 . S
C922 C923 1.363 . S
C922 C928 1.379 . S
C922 N930 1.356 . S
C923 C922 1.363 . S
C923 C929 1.363 . S
C924 C925 1.363 . S
C924 C929 1.379 . S
C924 N931 1.356 . S
C925 C924 1.363 . S
C925 C928 1.363 . S
N926 C928 1.356 . S
N926 H938 0.984 . S
N926 H939 0.985 . S
N927 C929 1.356 . S
N927 H932 0.984 . S
N927 H933 0.985 . S
C928 C922 1.379 . S
C928 C925 1.363 . S
C928 N926 1.356 . S
C929 C923 1.363 . S
C929 C924 1.379 . S
C929 N927 1.356 . S
N930 C922 1.356 . S
N930 H936 0.984 . S
N930 H937 0.984 . S
N931 C924 1.356 . S
N931 H934 0.984 . S
N931 H935 0.985 . S
H932 N927 0.984 . S
H933 N927 0.985 . S
H934 N931 0.984 . S
H935 N931 0.985 . S
H936 N930 0.984 . S
H937 N930 0.984 . S
H938 N926 0.984 . S
H939 N926 0.985 . S
C940 C941 1.363 . S
C940 C946 1.379 . S
C940 N948 1.356 . S
C941 C940 1.363 . S
C941 C947 1.363 . S
C942 C943 1.363 . S
C942 C947 1.379 . S
C942 N949 1.356 . S
C943 C942 1.363 . S
C943 C946 1.363 . S
N944 C946 1.356 . S
N944 H956 0.984 . S
N944 H957 0.985 . S
N945 C947 1.356 1_565 S
N945 H950 0.984 . S
N945 H951 0.985 . S
C946 C940 1.379 . S
C946 C943 1.363 . S
C946 N944 1.356 . S
C947 C941 1.363 . S
C947 C942 1.379 . S
C947 N945 1.356 1_545 S
N948 C940 1.356 . S
N948 H954 0.984 . S
N948 H955 0.984 . S
N949 C942 1.356 . S
N949 H952 0.984 . S
N949 H953 0.985 . S
H950 N945 0.984 . S
H951 N945 0.985 . S
H952 N949 0.984 . S
H953 N949 0.985 . S
H954 N948 0.984 . S
H955 N948 0.984 . S
H956 N944 0.984 . S
H957 N944 0.985 . S
C958 C959 1.363 . S
C958 C964 1.379 . S
C958 N966 1.356 . S
C959 C958 1.363 . S
C959 C965 1.363 . S
C960 C961 1.363 . S
C960 C965 1.379 . S
C960 N967 1.356 . S
C961 C960 1.363 . S
C961 C964 1.363 . S
N962 C964 1.356 . S
N962 H974 0.984 . S
N962 H975 0.985 . S
N963 C965 1.356 . S
N963 H968 0.984 . S
N963 H969 0.985 . S
C964 C958 1.379 . S
C964 C961 1.363 . S
C964 N962 1.356 . S
C965 C959 1.363 . S
C965 C960 1.379 . S
C965 N963 1.356 . S
N966 C958 1.356 . S
N966 H972 0.984 . S
N966 H973 0.984 1_545 S
N967 C960 1.356 . S
N967 H970 0.984 . S
N967 H971 0.985 . S
H968 N963 0.984 . S
H969 N963 0.985 . S
H970 N967 0.984 . S
H971 N967 0.985 . S
H972 N966 0.984 . S
H973 N966 0.984 1_565 S
H974 N962 0.984 . S
H975 N962 0.985 . S
C976 C977 1.363 . S
C976 C982 1.379 . S
C976 N984 1.356 . S
C977 C976 1.363 . S
C977 C983 1.363 . S
C978 C979 1.363 . S
C978 C983 1.379 . S
C978 N985 1.356 . S
C979 C978 1.363 . S
C979 C982 1.363 . S
N980 C982 1.356 . S
N980 H992 0.984 . S
N980 H993 0.985 . S
N981 C983 1.356 . S
N981 H986 0.984 . S
N981 H987 0.985 . S
C982 C976 1.379 . S
C982 C979 1.363 . S
C982 N980 1.356 . S
C983 C977 1.363 . S
C983 C978 1.379 . S
C983 N981 1.356 . S
N984 C976 1.356 . S
N984 H990 0.984 . S
N984 H991 0.984 . S
N985 C978 1.356 . S
N985 H988 0.984 . S
N985 H989 0.985 . S
H986 N981 0.984 . S
H987 N981 0.985 . S
H988 N985 0.984 . S
H989 N985 0.985 . S
H990 N984 0.984 . S
H991 N984 0.984 . S
H992 N980 0.984 . S
H993 N980 0.985 . S
C994 C995 1.363 . S
C994 C1000 1.379 . S
C994 N1002 1.356 . S
C995 C994 1.363 . S
C995 C1001 1.363 . S
C996 C997 1.363 . S
C996 C1001 1.379 . S
C996 N1003 1.356 . S
C997 C996 1.363 . S
C997 C1000 1.363 . S
N998 C1000 1.356 . S
N998 H1010 0.984 . S
N998 H1011 0.985 . S
N999 C1001 1.356 . S
N999 H1004 0.984 . S
N999 H1005 0.985 . S
C1000 C994 1.379 . S
C1000 C997 1.363 . S
C1000 N998 1.356 . S
C1001 C995 1.363 . S
C1001 C996 1.379 . S
C1001 N999 1.356 . S
N1002 C994 1.356 . S
N1002 H1008 0.984 . S
N1002 H1009 0.984 . S
N1003 C996 1.356 . S
N1003 H1006 0.984 . S
N1003 H1007 0.985 . S
H1004 N999 0.984 . S
H1005 N999 0.985 . S
H1006 N1003 0.984 . S
H1007 N1003 0.985 . S
H1008 N1002 0.984 . S
H1009 N1002 0.984 . S
H1010 N998 0.984 . S
H1011 N998 0.985 . S
C1012 C1013 1.363 . S
C1012 C1018 1.379 . S
C1012 N1020 1.356 . S
C1013 C1012 1.363 . S
C1013 C1019 1.363 . S
C1014 C1015 1.363 . S
C1014 C1019 1.379 . S
C1014 N1021 1.356 . S
C1015 C1014 1.363 . S
C1015 C1018 1.363 . S
N1016 C1018 1.356 . S
N1016 H1028 0.984 . S
N1016 H1029 0.985 . S
N1017 C1019 1.356 . S
N1017 H1022 0.984 . S
N1017 H1023 0.985 . S
C1018 C1012 1.379 . S
C1018 C1015 1.363 . S
C1018 N1016 1.356 . S
C1019 C1013 1.363 . S
C1019 C1014 1.379 . S
C1019 N1017 1.356 . S
N1020 C1012 1.356 . S
N1020 H1026 0.984 . S
N1020 H1027 0.984 . S
N1021 C1014 1.356 . S
N1021 H1024 0.984 . S
N1021 H1025 0.985 . S
H1022 N1017 0.984 . S
H1023 N1017 0.985 . S
H1024 N1021 0.984 . S
H1025 N1021 0.985 . S
H1026 N1020 0.984 . S
H1027 N1020 0.984 . S
H1028 N1016 0.984 . S
H1029 N1016 0.985 . S
C1030 C1031 1.363 . S
C1030 C1036 1.379 . S
C1030 N1038 1.356 . S
C1031 C1030 1.363 . S
C1031 C1037 1.363 . S
C1032 C1033 1.363 . S
C1032 C1037 1.379 . S
C1032 N1039 1.356 . S
C1033 C1032 1.363 . S
C1033 C1036 1.363 . S
N1034 C1036 1.356 . S
N1034 H1046 0.984 . S
N1034 H1047 0.985 . S
N1035 C1037 1.356 . S
N1035 H1040 0.984 . S
N1035 H1041 0.985 . S
C1036 C1030 1.379 . S
C1036 C1033 1.363 . S
C1036 N1034 1.356 . S
C1037 C1031 1.363 . S
C1037 C1032 1.379 . S
C1037 N1035 1.356 . S
N1038 C1030 1.356 . S
N1038 H1044 0.984 . S
N1038 H1045 0.984 . S
N1039 C1032 1.356 . S
N1039 H1042 0.984 . S
N1039 H1043 0.985 . S
H1040 N1035 0.984 . S
H1041 N1035 0.985 . S
H1042 N1039 0.984 . S
H1043 N1039 0.985 . S
H1044 N1038 0.984 . S
H1045 N1038 0.984 . S
H1046 N1034 0.984 . S
H1047 N1034 0.985 . S
C1048 C1049 1.363 . S
C1048 C1054 1.379 . S
C1048 N1056 1.356 . S
C1049 C1048 1.363 . S
C1049 C1055 1.363 . S
C1050 C1051 1.363 . S
C1050 C1055 1.379 . S
C1050 N1057 1.356 . S
C1051 C1050 1.363 . S
C1051 C1054 1.363 . S
N1052 C1054 1.356 . S
N1052 H1064 0.984 . S
N1052 H1065 0.985 . S
N1053 C1055 1.356 . S
N1053 H1058 0.984 . S
N1053 H1059 0.985 . S
C1054 C1048 1.379 . S
C1054 C1051 1.363 . S
C1054 N1052 1.356 . S
C1055 C1049 1.363 . S
C1055 C1050 1.379 . S
C1055 N1053 1.356 . S
N1056 C1048 1.356 . S
N1056 H1062 0.984 . S
N1056 H1063 0.984 . S
N1057 C1050 1.356 . S
N1057 H1060 0.984 . S
N1057 H1061 0.985 . S
H1058 N1053 0.984 . S
H1059 N1053 0.985 . S
H1060 N1057 0.984 . S
H1061 N1057 0.985 . S
H1062 N1056 0.984 . S
H1063 N1056 0.984 . S
H1064 N1052 0.984 . S
H1065 N1052 0.985 . S
C1066 C1067 1.363 . S
C1066 C1072 1.379 . S
C1066 N1074 1.356 . S
C1067 C1066 1.363 . S
C1067 C1073 1.363 . S
C1068 C1069 1.363 . S
C1068 C1073 1.379 . S
C1068 N1075 1.356 . S
C1069 C1068 1.363 . S
C1069 C1072 1.363 . S
N1070 C1072 1.356 . S
N1070 H1082 0.984 . S
N1070 H1083 0.985 . S
N1071 C1073 1.356 . S
N1071 H1076 0.984 . S
N1071 H1077 0.985 . S
C1072 C1066 1.379 . S
C1072 C1069 1.363 . S
C1072 N1070 1.356 . S
C1073 C1067 1.363 . S
C1073 C1068 1.379 . S
C1073 N1071 1.356 . S
N1074 C1066 1.356 . S
N1074 H1080 0.984 . S
N1074 H1081 0.984 . S
N1075 C1068 1.356 . S
N1075 H1078 0.984 . S
N1075 H1079 0.985 . S
H1076 N1071 0.984 . S
H1077 N1071 0.985 . S
H1078 N1075 0.984 . S
H1079 N1075 0.985 . S
H1080 N1074 0.984 . S
H1081 N1074 0.984 . S
H1082 N1070 0.984 . S
H1083 N1070 0.985 . S
C1084 C1085 1.363 . S
C1084 C1090 1.379 . S
C1084 N1092 1.356 . S
C1085 C1084 1.363 . S
C1085 C1091 1.363 . S
C1086 C1087 1.363 . S
C1086 C1091 1.379 . S
C1086 N1093 1.356 . S
C1087 C1086 1.363 . S
C1087 C1090 1.363 . S
N1088 C1090 1.356 . S
N1088 H1100 0.984 . S
N1088 H1101 0.985 . S
N1089 C1091 1.356 . S
N1089 H1094 0.984 . S
N1089 H1095 0.985 . S
C1090 C1084 1.379 . S
C1090 C1087 1.363 . S
C1090 N1088 1.356 . S
C1091 C1085 1.363 . S
C1091 C1086 1.379 . S
C1091 N1089 1.356 . S
N1092 C1084 1.356 . S
N1092 H1098 0.984 . S
N1092 H1099 0.984 . S
N1093 C1086 1.356 . S
N1093 H1096 0.984 . S
N1093 H1097 0.985 . S
H1094 N1089 0.984 . S
H1095 N1089 0.985 . S
H1096 N1093 0.984 . S
H1097 N1093 0.985 . S
H1098 N1092 0.984 . S
H1099 N1092 0.984 . S
H1100 N1088 0.984 . S
H1101 N1088 0.985 . S
C1102 C1103 1.363 . S
C1102 C1108 1.379 . S
C1102 N1110 1.356 . S
C1103 C1102 1.363 . S
C1103 C1109 1.363 . S
C1104 C1105 1.363 . S
C1104 C1109 1.379 . S
C1104 N1111 1.356 . S
C1105 C1104 1.363 . S
C1105 C1108 1.363 . S
N1106 C1108 1.356 . S
N1106 H1118 0.984 . S
N1106 H1119 0.985 . S
N1107 C1109 1.356 . S
N1107 H1112 0.984 . S
N1107 H1113 0.985 . S
C1108 C1102 1.379 . S
C1108 C1105 1.363 . S
C1108 N1106 1.356 . S
C1109 C1103 1.363 . S
C1109 C1104 1.379 . S
C1109 N1107 1.356 . S
N1110 C1102 1.356 . S
N1110 H1116 0.984 . S
N1110 H1117 0.984 . S
N1111 C1104 1.356 . S
N1111 H1114 0.984 . S
N1111 H1115 0.985 . S
H1112 N1107 0.984 . S
H1113 N1107 0.985 . S
H1114 N1111 0.984 . S
H1115 N1111 0.985 . S
H1116 N1110 0.984 . S
H1117 N1110 0.984 . S
H1118 N1106 0.984 . S
H1119 N1106 0.985 . S
C1120 C1121 1.363 1_455 S
C1120 C1126 1.379 . S
C1120 N1128 1.356 . S
C1121 C1120 1.363 1_655 S
C1121 C1127 1.363 . S
C1122 C1123 1.370 . S
C1122 C1127 1.374 1_455 S
C1122 N1129 1.357 . S
C1123 C1122 1.370 . S
C1123 C1126 1.363 . S
N1124 C1126 1.356 . S
N1124 H1136 0.984 . S
N1124 H1137 0.985 . S
N1125 C1127 1.356 . S
N1125 H1130 0.984 . S
N1125 H1131 0.985 . S
C1126 C1120 1.379 . S
C1126 C1123 1.363 . S
C1126 N1124 1.356 . S
C1127 C1121 1.363 . S
C1127 C1122 1.374 1_655 S
C1127 N1125 1.356 . S
N1128 C1120 1.356 . S
N1128 H1134 0.984 . S
N1128 H1135 0.984 1_465 S
N1129 C1122 1.357 . S
N1129 H1132 0.984 . S
N1129 H1133 0.985 1_455 S
H1130 N1125 0.984 . S
H1131 N1125 0.985 . S
H1132 N1129 0.984 . S
H1133 N1129 0.985 1_655 S
H1134 N1128 0.984 . S
H1135 N1128 0.984 1_645 S
H1136 N1124 0.984 . S
H1137 N1124 0.985 . S
C1138 C1139 1.363 . S
C1138 C1144 1.379 . S
C1138 N1146 1.356 . S
C1139 C1138 1.363 . S
C1139 C1145 1.363 . S
C1140 C1141 1.363 . S
C1140 C1145 1.379 . S
C1140 N1147 1.356 . S
C1141 C1140 1.363 . S
C1141 C1144 1.363 . S
N1142 C1144 1.356 . S
N1142 H1154 0.984 . S
N1142 H1155 0.985 . S
N1143 C1145 1.356 . S
N1143 H1148 0.984 . S
N1143 H1149 0.985 . S
C1144 C1138 1.379 . S
C1144 C1141 1.363 . S
C1144 N1142 1.356 . S
C1145 C1139 1.363 . S
C1145 C1140 1.379 . S
C1145 N1143 1.356 . S
N1146 C1138 1.356 . S
N1146 H1152 0.984 . S
N1146 H1153 0.984 . S
N1147 C1140 1.356 . S
N1147 H1150 0.984 . S
N1147 H1151 0.993 . S
H1148 N1143 0.984 . S
H1149 N1143 0.985 . S
H1150 N1147 0.984 . S
H1151 N1147 0.993 . S
H1152 N1146 0.984 . S
H1153 N1146 0.984 . S
H1154 N1142 0.984 . S
H1155 N1142 0.985 . S
C1156 C1157 1.363 . S
C1156 C1162 1.379 . S
C1156 N1164 1.356 . S
C1157 C1156 1.363 . S
C1157 C1163 1.363 . S
C1158 C1159 1.363 . S
C1158 C1163 1.379 . S
C1158 N1165 1.356 . S
C1159 C1158 1.363 . S
C1159 C1162 1.363 . S
N1160 C1162 1.356 . S
N1160 H1172 0.984 . S
N1160 H1173 0.985 . S
N1161 C1163 1.356 . S
N1161 H1166 0.984 . S
N1161 H1167 0.985 . S
C1162 C1156 1.379 . S
C1162 C1159 1.363 . S
C1162 N1160 1.356 . S
C1163 C1157 1.363 . S
C1163 C1158 1.379 . S
C1163 N1161 1.356 . S
N1164 C1156 1.356 . S
N1164 H1170 0.984 . S
N1164 H1171 0.984 . S
N1165 C1158 1.356 . S
N1165 H1168 0.984 . S
N1165 H1169 0.985 . S
H1166 N1161 0.984 . S
H1167 N1161 0.985 . S
H1168 N1165 0.984 . S
H1169 N1165 0.985 . S
H1170 N1164 0.984 . S
H1171 N1164 0.984 . S
H1172 N1160 0.984 . S
H1173 N1160 0.985 . S
C1174 C1175 1.363 . S
C1174 C1180 1.365 1_455 S
C1174 N1182 1.356 . S
C1175 C1174 1.363 . S
C1175 C1181 1.363 . S
C1176 C1177 1.363 . S
C1176 C1181 1.379 1_655 S
C1176 N1183 1.356 . S
C1177 C1176 1.363 . S
C1177 C1180 1.374 . S
N1178 C1180 1.364 . S
N1178 H1190 0.984 . S
N1178 H1191 0.985 . S
N1179 C1181 1.356 . S
N1179 H1184 0.984 . S
N1179 H1185 0.985 . S
C1180 C1174 1.365 1_655 S
C1180 C1177 1.374 . S
C1180 N1178 1.364 . S
C1181 C1175 1.363 . S
C1181 C1176 1.379 1_455 S
C1181 N1179 1.356 . S
N1182 C1174 1.356 . S
N1182 H1188 0.984 . S
N1182 H1189 0.984 . S
N1183 C1176 1.356 . S
N1183 H1186 0.984 . S
N1183 H1187 0.985 . S
H1184 N1179 0.984 . S
H1185 N1179 0.985 . S
H1186 N1183 0.984 . S
H1187 N1183 0.985 . S
H1188 N1182 0.984 . S
H1189 N1182 0.984 . S
H1190 N1178 0.984 . S
H1191 N1178 0.985 . S
C1192 C1193 1.363 1_455 S
C1192 C1198 1.379 . S
C1192 N1200 1.356 . S
C1193 C1192 1.363 1_655 S
C1193 C1199 1.363 . S
C1194 C1195 1.368 . S
C1194 C1199 1.375 1_455 S
C1194 N1201 1.357 . S
C1195 C1194 1.368 . S
C1195 C1198 1.363 . S
N1196 C1198 1.356 . S
N1196 H1208 0.984 . S
N1196 H1209 0.985 . S
N1197 C1199 1.356 . S
N1197 H1202 0.984 . S
N1197 H1203 0.985 . S
C1198 C1192 1.379 . S
C1198 C1195 1.363 . S
C1198 N1196 1.356 . S
C1199 C1193 1.363 . S
C1199 C1194 1.375 1_655 S
C1199 N1197 1.356 . S
N1200 C1192 1.356 . S
N1200 H1206 0.984 . S
N1200 H1207 0.984 1_455 S
N1201 C1194 1.357 . S
N1201 H1204 0.984 . S
N1201 H1205 0.985 1_455 S
H1202 N1197 0.984 . S
H1203 N1197 0.985 . S
H1204 N1201 0.984 . S
H1205 N1201 0.985 1_655 S
H1206 N1200 0.984 . S
H1207 N1200 0.984 1_655 S
H1208 N1196 0.984 . S
H1209 N1196 0.985 . S
C1210 C1211 1.363 . S
C1210 C1216 1.379 1_455 S
C1210 N1218 1.356 . S
C1211 C1210 1.363 . S
C1211 C1217 1.363 . S
C1212 C1213 1.371 . S
C1212 C1217 1.369 1_655 S
C1212 N1219 1.361 . S
C1213 C1212 1.371 . S
C1213 C1216 1.363 . S
N1214 C1216 1.356 . S
N1214 H1226 0.984 . S
N1214 H1227 0.985 . S
N1215 C1217 1.356 . S
N1215 H1220 0.984 . S
N1215 H1221 0.985 . S
C1216 C1210 1.379 1_655 S
C1216 C1213 1.363 . S
C1216 N1214 1.356 . S
C1217 C1211 1.363 . S
C1217 C1212 1.369 1_455 S
C1217 N1215 1.356 . S
N1218 C1210 1.356 . S
N1218 H1224 0.984 . S
N1218 H1225 0.984 . S
N1219 C1212 1.361 . S
N1219 H1222 0.984 . S
N1219 H1223 0.985 . S
H1220 N1215 0.984 . S
H1221 N1215 0.985 . S
H1222 N1219 0.984 . S
H1223 N1219 0.985 . S
H1224 N1218 0.984 . S
H1225 N1218 0.984 . S
H1226 N1214 0.984 . S
H1227 N1214 0.985 . S
C1228 C1229 1.363 . S
C1228 C1234 1.379 . S
C1228 N1236 1.356 . S
C1229 C1228 1.363 . S
C1229 C1235 1.363 . S
C1230 C1231 1.363 . S
C1230 C1235 1.379 . S
C1230 N1237 1.356 . S
C1231 C1230 1.363 . S
C1231 C1234 1.363 . S
N1232 C1234 1.356 . S
N1232 H1244 0.984 . S
N1232 H1245 0.985 1_565 S
N1233 C1235 1.356 . S
N1233 H1238 0.984 . S
N1233 H1239 0.985 . S
C1234 C1228 1.379 . S
C1234 C1231 1.363 . S
C1234 N1232 1.356 . S
C1235 C1229 1.363 . S
C1235 C1230 1.379 . S
C1235 N1233 1.356 . S
N1236 C1228 1.356 . S
N1236 H1242 0.984 . S
N1236 H1243 0.984 . S
N1237 C1230 1.356 . S
N1237 H1240 0.984 . S
N1237 H1241 0.985 . S
H1238 N1233 0.984 . S
H1239 N1233 0.985 . S
H1240 N1237 0.984 . S
H1241 N1237 0.985 . S
H1242 N1236 0.984 . S
H1243 N1236 0.984 . S
H1244 N1232 0.984 . S
H1245 N1232 0.985 1_545 S
C1246 C1247 1.363 . S
C1246 C1252 1.379 . S
C1246 N1254 1.356 . S
C1247 C1246 1.363 . S
C1247 C1253 1.363 . S
C1248 C1249 1.363 . S
C1248 C1253 1.379 . S
C1248 N1255 1.356 . S
C1249 C1248 1.363 . S
C1249 C1252 1.363 . S
N1250 C1252 1.356 . S
N1250 H1262 0.984 . S
N1250 H1263 0.985 . S
N1251 C1253 1.356 . S
N1251 H1256 0.984 . S
N1251 H1257 0.985 . S
C1252 C1246 1.379 . S
C1252 C1249 1.363 . S
C1252 N1250 1.356 . S
C1253 C1247 1.363 . S
C1253 C1248 1.379 . S
C1253 N1251 1.356 . S
N1254 C1246 1.356 . S
N1254 H1260 0.984 . S
N1254 H1261 0.984 . S
N1255 C1248 1.356 . S
N1255 H1258 0.984 . S
N1255 H1259 0.985 . S
H1256 N1251 0.984 . S
H1257 N1251 0.985 . S
H1258 N1255 0.984 . S
H1259 N1255 0.985 . S
H1260 N1254 0.984 . S
H1261 N1254 0.984 . S
H1262 N1250 0.984 . S
H1263 N1250 0.985 . S
C545 C451 1.219 . S
C547 C9 1.219 . S
C563 C43 1.219 . S
C565 C383 1.219 . S
C581 C77 1.219 1_565 S
C583 C417 1.219 . S
C599 C111 1.219 . S
C601 C349 1.219 . S
C617 C519 1.219 . S
C619 C145 1.219 1_565 S
C635 C179 1.219 . S
C637 C315 1.219 . S
C653 C213 1.219 . S
C655 C485 1.219 . S
C671 C281 1.219 . S
C673 C247 1.219 . S
C689 C20 1.621 . S
C691 C156 1.621 . S
C707 C54 1.621 . S
C709 C190 1.621 . S
C725 C88 1.621 . S
C727 C224 1.621 . S
C743 C258 1.621 . S
C745 C122 1.621 . S
C761 C360 1.621 . S
C763 C292 1.621 . S
C779 C326 1.621 . S
C781 C394 1.621 . S
C797 C496 1.621 . S
C799 C428 1.621 . S
C815 C530 1.621 . S
C817 C462 1.621 . S
C833 C203 1.320 1_545 S
C835 C33 1.320 . S
C851 C67 1.320 1_545 S
C853 C237 1.320 . S
C869 C101 1.320 . S
C871 C271 1.320 . S
C887 C169 1.320 . S
C889 C135 1.320 . S
C905 C138 1.623 . S
C907 C342 1.623 . S
C923 C70 1.623 . S
C925 C274 1.623 . S
C941 C376 1.623 1_545 S
C943 C206 1.623 . S
C959 C308 1.623 1_545 S
C961 C2 1.623 . S
C977 C305 1.320 . S
C979 C441 1.320 . S
C995 C543 1.320 . S
C997 C373 1.320 . S
C1013 C475 1.320 . S
C1015 C339 1.320 . S
C1031 C407 1.320 . S
C1033 C509 1.320 . S
C1049 C478 1.623 . S
C1051 C36 1.623 . S
C1067 C172 1.623 . S
C1069 C444 1.623 . S
C1085 C512 1.622 . S
C1087 C104 1.622 . S
C1103 C240 1.623 . S
C1105 C410 1.623 . S
C1121 C5 0.701 . S
C1123 C447 0.701 . S
C1139 C39 0.702 . S
C1141 C379 0.702 . S
C1157 C73 0.701 . S
C1159 C413 0.701 . S
C1175 C107 0.702 . S
C1177 C345 0.702 . S
C1193 C141 0.702 . S
C1195 C515 0.702 . S
C1211 C175 0.701 . S
C1213 C311 0.701 . S
C1229 C481 0.702 . S
C1231 C209 0.702 . S
C1247 C277 0.701 . S
C1249 C243 0.701 . S
