# Generated by pormake.
# Topology wlc, (5)-cn, num edge types: 1
# Building blocks:
#     Node 0, Type 0, BuildingBlock: BEQFEK_clean_sbu_0, # of connection points: 5
#     Node 1, Type 0, BuildingBlock: BEQFEK_clean_sbu_0, # of connection points: 5
#     Node 2, Type 0, BuildingBlock: BEQFEK_clean_sbu_0, # of connection points: 5
#     Node 3, Type 0, BuildingBlock: BEQFEK_clean_sbu_0, # of connection points: 5
#     Node 4, Type 0, BuildingBlock: BEQFEK_clean_sbu_0, # of connection points: 5
#     Node 5, Type 0, BuildingBlock: BEQFEK_clean_sbu_0, # of connection points: 5
#     Node 6, Type 0, BuildingBlock: BEQFEK_clean_sbu_0, # of connection points: 5
#     Node 7, Type 0, BuildingBlock: BEQFEK_clean_sbu_0, # of connection points: 5
#     Node 8, Type 0, BuildingBlock: BEQFEK_clean_sbu_0, # of connection points: 5
#     Node 9, Type 0, BuildingBlock: BEQFEK_clean_sbu_0, # of connection points: 5
#     Node 10, Type 0, BuildingBlock: BEQFEK_clean_sbu_0, # of connection points: 5
#     Node 11, Type 0, BuildingBlock: BEQFEK_clean_sbu_0, # of connection points: 5
#     Edge 12, Type (0, 0), BuildingBlock: EZIPEK_clean_linker_0, # of connection points: 2
#     Edge 13, Type (0, 0), BuildingBlock: EZIPEK_clean_linker_0, # of connection points: 2
#     Edge 14, Type (0, 0), BuildingBlock: EZIPEK_clean_linker_0, # of connection points: 2
#     Edge 15, Type (0, 0), BuildingBlock: EZIPEK_clean_linker_0, # of connection points: 2
#     Edge 16, Type (0, 0), BuildingBlock: EZIPEK_clean_linker_0, # of connection points: 2
#     Edge 17, Type (0, 0), BuildingBlock: EZIPEK_clean_linker_0, # of connection points: 2
#     Edge 18, Type (0, 0), BuildingBlock: EZIPEK_clean_linker_0, # of connection points: 2
#     Edge 19, Type (0, 0), BuildingBlock: EZIPEK_clean_linker_0, # of connection points: 2
#     Edge 20, Type (0, 0), BuildingBlock: EZIPEK_clean_linker_0, # of connection points: 2
#     Edge 21, Type (0, 0), BuildingBlock: EZIPEK_clean_linker_0, # of connection points: 2
#     Edge 22, Type (0, 0), BuildingBlock: EZIPEK_clean_linker_0, # of connection points: 2
#     Edge 23, Type (0, 0), BuildingBlock: EZIPEK_clean_linker_0, # of connection points: 2
#     Edge 24, Type (0, 0), BuildingBlock: EZIPEK_clean_linker_0, # of connection points: 2
#     Edge 25, Type (0, 0), BuildingBlock: EZIPEK_clean_linker_0, # of connection points: 2
#     Edge 26, Type (0, 0), BuildingBlock: EZIPEK_clean_linker_0, # of connection points: 2
#     Edge 27, Type (0, 0), BuildingBlock: EZIPEK_clean_linker_0, # of connection points: 2
#     Edge 28, Type (0, 0), BuildingBlock: EZIPEK_clean_linker_0, # of connection points: 2
#     Edge 29, Type (0, 0), BuildingBlock: EZIPEK_clean_linker_0, # of connection points: 2
#     Edge 30, Type (0, 0), BuildingBlock: EZIPEK_clean_linker_0, # of connection points: 2
#     Edge 31, Type (0, 0), BuildingBlock: EZIPEK_clean_linker_0, # of connection points: 2
#     Edge 32, Type (0, 0), BuildingBlock: EZIPEK_clean_linker_0, # of connection points: 2
#     Edge 33, Type (0, 0), BuildingBlock: EZIPEK_clean_linker_0, # of connection points: 2
#     Edge 34, Type (0, 0), BuildingBlock: EZIPEK_clean_linker_0, # of connection points: 2
#     Edge 35, Type (0, 0), BuildingBlock: EZIPEK_clean_linker_0, # of connection points: 2
#     Edge 36, Type (0, 0), BuildingBlock: EZIPEK_clean_linker_0, # of connection points: 2
#     Edge 37, Type (0, 0), BuildingBlock: EZIPEK_clean_linker_0, # of connection points: 2
#     Edge 38, Type (0, 0), BuildingBlock: EZIPEK_clean_linker_0, # of connection points: 2
#     Edge 39, Type (0, 0), BuildingBlock: EZIPEK_clean_linker_0, # of connection points: 2
#     Edge 40, Type (0, 0), BuildingBlock: EZIPEK_clean_linker_0, # of connection points: 2
#     Edge 41, Type (0, 0), BuildingBlock: EZIPEK_clean_linker_0, # of connection points: 2
# Relax obj value: 0.825
# Max RMSD: 0.278
# Mean RMSD: 0.278
data_MOF--net-wlc--node1-BEQFEK_clean_sbu_0--edge1-EZIPEK_clean_linker_0
_symmetry_space_group_name_H-M    P1
_symmetry_Int_Tables_number       1
_symmetry_cell_setting            triclinic
loop_
_symmetry_equiv_pos_as_xyz
'x, y, z'
_cell_length_a     34.692558
_cell_length_b     34.621121
_cell_length_c     23.113835
_cell_angle_alpha  90.175054
_cell_angle_beta   89.643392
_cell_angle_gamma 120.132
loop_
_atom_site_label
_atom_site_type_symbol
_atom_site_fract_x
_atom_site_fract_y
_atom_site_fract_z
_atom_type_partial_charge
Co0 Co 0.07693 0.39782 0.1778 0.0
Co1 Co 0.03457 0.31658 0.10095 0.0
C2 C 0.12574 0.35824 0.15444 0.0
O3 O 0.12749 0.39507 0.14785 0.0
O4 O 0.08964 0.32352 0.14077 0.0
C5 C 0.13792 0.48574 0.20738 0.0
O6 O 0.15614 0.482 0.15941 0.0
C7 C 0.06209 0.30066 0.99182 0.0
C8 C -0.00141 0.25891 0.94675 0.0
C9 C 0.04401 0.2865 0.93734 0.0
N10 N 0.02874 0.28492 0.03092 0.0
N11 N 0.99096 0.2584 0.00409 0.0
C12 C 0.10995 0.33217 0.00621 0.0
H13 H 0.12166 0.31544 0.03644 0.0
H14 H 0.11305 0.36199 0.02858 0.0
H15 H 0.13139 0.34253 0.96693 0.0
C16 C 0.04111 0.43606 0.09559 0.0
N17 N 0.04791 0.40345 0.11527 0.0
N18 N 0.02968 0.36893 0.08028 0.0
C19 C 0.00931 0.3785 0.03728 0.0
C20 C 0.01689 0.42163 0.04526 0.0
C21 C 0.05719 0.48032 0.12425 0.0
H22 H 0.05301 0.4761 0.17179 0.0
H23 H 0.093 0.5023 0.1139 0.0
H24 H 0.03881 0.49677 0.10851 0.0
O25 O 0.03474 0.34263 0.22304 0.0
O26 O 0.99241 0.28488 0.16461 0.0
H27 H 0.95679 0.31363 0.01328 0.0
H28 H 0.95977 0.35861 0.97021 0.0
C29 C 0.97964 0.34613 0.9925 0.0
H30 H -0.00013 0.34091 0.95972 0.0
H31 H 0.9596 0.24379 0.02376 0.0
O32 O 0.10194 0.45207 0.22509 0.0
C33 C 0.0032 0.30238 0.2151 0.0
Co34 Co 0.57714 0.65204 0.2038 0.0
Co35 Co 0.66051 0.69606 0.12256 0.0
C36 C 0.63255 0.74882 0.19893 0.0
O37 O 0.59599 0.71466 0.21238 0.0
O38 O 0.65978 0.74628 0.16439 0.0
C39 C 0.49262 0.637 0.23308 0.0
O40 O 0.50664 0.67358 0.20251 0.0
C41 C 0.6861 0.73608 0.00978 0.0
C42 C 0.75094 0.74099 0.99393 0.0
C43 C 0.71872 0.74738 0.96664 0.0
N44 N 0.69866 0.72338 0.05771 0.0
N45 N 0.738 0.72744 0.04861 0.0
C46 C 0.64199 0.73413 0.00669 0.0
H47 H 0.62302 0.72112 0.04755 0.0
H48 H 0.62174 0.71259 0.97047 0.0
H49 H 0.64726 0.76822 1.0014 0.0
C50 C 0.53701 0.59375 0.10328 0.0
N51 N 0.57034 0.63068 0.12795 0.0
N52 N 0.60556 0.64746 0.09405 0.0
C53 C 0.59566 0.62125 0.0465 0.0
C54 C 0.55164 0.58705 0.05049 0.0
C55 C 0.49466 0.56146 0.13344 0.0
H56 H 0.50224 0.55375 0.17702 0.0
H57 H 0.47375 0.57695 0.13871 0.0
H58 H 0.47554 0.52994 0.10872 0.0
O59 O 0.62524 0.6471 0.24335 0.0
O60 O 0.68419 0.67339 0.18344 0.0
H61 H 0.6625 0.63935 0.02145 0.0
H62 H 0.61919 0.5913 0.98396 0.0
C63 C 0.62887 0.62464 1.00216 0.0
H64 H 0.62991 0.64609 0.96597 0.0
H65 H 0.75469 0.71856 0.0784 0.0
O66 O 0.51854 0.62159 0.24242 0.0
C67 C 0.66559 0.65756 0.23243 0.0
Co68 Co 0.33323 0.94034 0.18137 0.0
Co69 Co 0.2813 0.96302 0.09463 0.0
C70 C 0.24488 0.87581 0.16719 0.0
O71 O 0.28277 0.88132 0.17884 0.0
O72 O 0.24102 0.90428 0.13654 0.0
C73 C 0.37344 0.90341 0.25286 0.0
O74 O 0.33415 0.86704 0.25146 0.0
C75 C 0.2528 0.94951 0.97343 0.0
C76 C 0.20948 0.97886 0.96907 0.0
C77 C 0.22934 0.96046 0.93506 0.0
N78 N 0.24908 0.96262 0.02697 0.0
N79 N 0.2217 0.9787 0.02439 0.0
C80 C 0.2787 0.92697 0.95815 0.0
H81 H 0.28891 0.91625 0.99748 0.0
H82 H 0.30829 0.9497 0.93182 0.0
H83 H 0.25783 0.8973 0.93086 0.0
C84 C 0.39757 0.96591 0.08657 0.0
N85 N 0.35839 0.95874 0.10788 0.0
N86 N 0.34141 0.97616 0.07326 0.0
C87 C 0.37215 -0.00106 0.0311 0.0
C88 C 0.40856 0.99241 0.03807 0.0
C89 C 0.42594 0.9501 0.11381 0.0
H90 H 0.40488 0.91797 0.13637 0.0
H91 H 0.44688 0.94567 0.08094 0.0
H92 H 0.44842 0.97605 0.14461 0.0
O93 O 0.31429 0.98071 0.21856 0.0
O94 O 0.2842 0.00562 0.15451 0.0
H95 H 0.39748 0.06481 0.99788 0.0
H96 H 0.37384 0.02181 0.94452 0.0
C97 C 0.36959 0.0305 0.98944 0.0
H98 H 0.33752 0.03 0.99407 0.0
H99 H 0.21316 0.99166 0.05984 0.0
O100 O 0.37755 0.93851 0.22979 0.0
C101 C 0.29662 0.00421 0.20599 0.0
Co102 Co 0.60287 0.94024 0.31421 0.0
Co103 Co 0.66909 0.9689 0.41671 0.0
C104 C 0.64254 0.88771 0.33663 0.0
O105 O 0.6119 0.89091 0.31201 0.0
O106 O 0.66652 0.91495 0.37621 0.0
C107 C 0.53033 0.89522 0.23458 0.0
O108 O 0.53185 0.85902 0.24698 0.0
C109 C 0.67735 0.94819 0.53853 0.0
C110 C 0.74587 9e-05 0.55939 0.0
C111 C 0.70863 0.96352 0.58394 0.0
N112 N 0.69615 0.97392 0.49126 0.0
N113 N 0.73726 0.00466 0.50404 0.0
C114 C 0.62997 0.91076 0.53835 0.0
H115 H 0.61312 0.91064 0.4979 0.0
H116 H 0.61124 0.91365 0.57552 0.0
H117 H 0.62899 0.87832 0.53947 0.0
C118 C 0.54529 0.94734 0.40024 0.0
N119 N 0.5831 0.9478 0.3861 0.0
N120 N 0.61213 0.96609 0.42801 0.0
C121 C 0.5939 0.98027 0.46912 0.0
C122 C 0.55075 0.96857 0.45242 0.0
C123 C 0.50644 0.93213 0.36123 0.0
H124 H 0.51616 0.95779 0.32724 0.0
H125 H 0.49822 0.89966 0.34176 0.0
H126 H 0.47664 0.92842 0.38438 0.0
O127 O 0.6586 0.99279 0.29116 0.0
O128 O 0.708 0.01956 0.36256 0.0
H129 H 0.6548 0.0233 0.51437 0.0
H130 H 0.60935 0.03401 0.52835 0.0
C131 C 0.61826 0.00778 0.52058 0.0
H132 H 0.60805 0.986 0.55939 0.0
H133 H 0.75913 0.02922 0.47532 0.0
O134 O 0.5598 0.93205 0.25602 0.0
C135 C 0.69675 0.02114 0.31039 0.0
Co136 Co 0.04167 0.64009 0.29558 0.0
Co137 Co 0.02939 0.69914 0.38791 0.0
C138 C 0.10416 0.73871 0.30586 0.0
O139 O 0.08866 0.70095 0.28227 0.0
O140 O 0.08739 0.74366 0.35235 0.0
C141 C 0.10477 0.61799 0.28002 0.0
O142 O 0.12307 0.65148 0.31659 0.0
C143 C 0.05046 0.74129 0.50091 0.0
C144 C 0.99455 0.75238 0.51933 0.0
C145 C 0.0329 0.7565 0.54463 0.0
N146 N 0.02358 0.72903 0.45441 0.0
N147 N 0.9907 0.73668 0.46517 0.0
C148 C 0.09023 0.73504 0.50239 0.0
H149 H 0.09015 0.71502 0.46486 0.0
H150 H 0.09095 0.71812 0.54257 0.0
H151 H 0.12112 0.76799 0.49914 0.0
C152 C 0.01961 0.57976 0.39235 0.0
N153 N 0.02908 0.61983 0.37157 0.0
N154 N 0.02455 0.64353 0.41268 0.0
C155 C 0.01284 0.61888 0.46208 0.0
C156 C 0.01062 0.57837 0.45056 0.0
C157 C 0.01206 0.54079 0.35574 0.0
H158 H 0.00059 0.54342 0.31202 0.0
H159 H 0.04334 0.53996 0.35154 0.0
H160 H 0.98682 0.50883 0.37581 0.0
O161 O 0.99026 0.6399 0.26234 0.0
O162 O 0.9853 0.68798 0.32293 0.0
H163 H 0.9834 0.65153 0.50903 0.0
H164 H 0.97346 0.59958 0.54026 0.0
C165 C -0.0017 0.63036 0.51743 0.0
H166 H 0.02729 0.64811 0.54646 0.0
H167 H 0.96461 0.72915 0.43674 0.0
O168 O 0.06658 0.60625 0.25881 0.0
C169 C 0.9738 0.66446 0.27638 0.0
Co170 Co 0.3109 0.40789 0.3386 0.0
Co171 Co 0.2771 0.32162 0.40384 0.0
C172 C 0.22077 0.35792 0.35446 0.0
O173 O 0.25309 0.39683 0.36215 0.0
O174 O 0.22661 0.3253 0.36532 0.0
C175 C 0.33344 0.49725 0.31528 0.0
O176 O 0.30124 0.48907 0.35202 0.0
C177 C 0.23164 0.29154 0.50993 0.0
C178 C 0.25988 0.25218 0.54564 0.0
C179 C 0.23846 0.27543 0.56127 0.0
N180 N 0.2514 0.28157 0.46695 0.0
N181 N 0.26622 0.25602 0.4879 0.0
C182 C 0.21206 0.32118 0.5026 0.0
H183 H 0.23714 0.35339 0.48293 0.0
H184 H 0.20013 0.32729 0.54442 0.0
H185 H 0.18361 0.30505 0.47224 0.0
C186 C 0.38218 0.44373 0.42187 0.0
N187 N 0.34218 0.41188 0.40355 0.0
N188 N 0.32773 0.37593 0.43484 0.0
C189 C 0.35866 0.3842 0.47589 0.0
C190 C 0.39203 0.42999 0.47387 0.0
C191 C 0.4157 0.47641 0.37947 0.0
H192 H 0.4083 0.46187 0.3353 0.0
H193 H 0.4137 0.50721 0.37827 0.0
H194 H 0.45018 0.48476 0.38994 0.0
O195 O 0.30657 0.35921 0.2878 0.0
O196 O 0.29791 0.30042 0.33774 0.0
H197 H 0.39954 0.35729 0.50603 0.0
H198 H 0.34499 0.33406 0.54023 0.0
C199 C 0.36402 0.34682 0.49931 0.0
H200 H 0.35056 0.31891 0.46785 0.0
H201 H 0.28522 0.24571 0.46435 0.0
O202 O 0.34093 0.46627 0.30018 0.0
C203 C 0.30375 0.32088 0.28971 0.0
Co204 Co 0.94722 0.58812 0.77528 0.0
Co205 Co 0.96448 0.6515 0.88205 0.0
C206 C 0.88322 0.61819 0.81608 0.0
O207 O 0.89931 0.6012 0.78229 0.0
O208 O 0.90246 0.63639 0.8631 0.0
C209 C 0.88273 0.50389 0.76854 0.0
O210 O 0.87777 0.52094 0.81679 0.0
C211 C 0.94935 0.67935 0.99645 0.0
C212 C 0.01524 0.70537 0.0367 0.0
C213 C 0.97105 0.69152 0.04941 0.0
N214 N 0.9788 0.6832 0.95508 0.0
N215 N 0.01845 0.70032 0.97931 0.0
C216 C 0.90095 0.66274 0.98602 0.0
H217 H 0.88429 0.6275 0.9713 0.0
H218 H 0.88415 0.66505 0.02583 0.0
H219 H 0.8976 0.68289 0.95129 0.0
C220 C 0.9771 0.54446 0.85626 0.0
N221 N 0.96786 0.57703 0.84436 0.0
N222 N 0.97123 0.59972 0.89156 0.0
C223 C 0.98165 0.58087 0.93569 0.0
C224 C 0.98517 0.54518 0.91456 0.0
C225 C 0.97908 0.51348 0.81256 0.0
H226 H 0.98386 0.52754 0.76835 0.0
H227 H 0.94777 0.48081 0.81457 0.0
H228 H 0.0068 0.50736 0.82261 0.0
O229 O 0.99364 0.64248 0.73862 0.0
O230 O 0.00142 0.68883 0.81193 0.0
H231 H 0.02471 0.62477 1.00066 0.0
H232 H 0.98501 0.57001 0.02694 0.0
C233 C 0.98984 0.59696 0.99672 0.0
H234 H 0.96712 0.60916 0.00861 0.0
H235 H 0.04695 0.70487 0.95774 0.0
O236 O 0.91532 0.52962 0.73549 0.0
C237 C 0.00937 0.68181 0.75949 0.0
Co238 Co 0.39236 0.34736 0.77704 0.0
Co239 Co 0.33117 0.30157 0.88633 0.0
C240 C 0.35782 0.25114 0.81173 0.0
O241 O 0.3767 0.28594 0.78121 0.0
O242 O 0.33982 0.25074 0.86009 0.0
C243 C 0.4642 0.35218 0.71147 0.0
O244 O 0.44002 0.30885 0.70428 0.0
C245 C 0.31017 0.27765 0.00962 0.0
C246 C 0.24725 0.27811 0.02082 0.0
C247 C 0.27943 0.2741 0.05109 0.0
N248 N 0.29744 0.28447 0.95759 0.0
N249 N 0.25907 0.28346 0.96445 0.0
C250 C 0.35183 0.27593 0.01975 0.0
H251 H 0.37533 0.29097 0.98282 0.0
H252 H 0.36786 0.29296 0.06082 0.0
H253 H 0.34291 0.24046 0.02386 0.0
C254 C 0.44295 0.41888 0.85894 0.0
N255 N 0.4097 0.37712 0.84754 0.0
N256 N 0.3861 0.35884 0.89466 0.0
C257 C 0.40457 0.38917 0.93785 0.0
C258 C 0.44149 0.4274 0.91691 0.0
C259 C 0.47199 0.45194 0.814 0.0
H260 H 0.45401 0.44502 0.77236 0.0
H261 H 0.50233 0.44962 0.80757 0.0
H262 H 0.48279 0.48662 0.82771 0.0
O263 O 0.33823 0.34512 0.75082 0.0
O264 O 0.29328 0.30675 0.8245 0.0
H265 H 0.39401 0.41949 0.01319 0.0
H266 H 0.39233 0.36752 0.02541 0.0
C267 C 0.38313 0.38595 0.99467 0.0
H268 H 0.34679 0.3683 0.988 0.0
H269 H 0.24217 0.2889 0.93114 0.0
O270 O 0.44555 0.3744 0.72646 0.0
C271 C 0.29958 0.32449 0.77436 0.0
Co272 Co 0.67208 0.08249 0.81415 0.0
Co273 Co 0.70302 0.04626 0.91356 0.0
C274 C 0.76418 0.12745 0.83496 0.0
O275 O 0.73194 0.13124 0.81687 0.0
O276 O 0.75788 0.0971 0.87161 0.0
C277 C 0.64923 0.13438 0.74017 0.0
O278 O 0.6833 0.16968 0.76308 0.0
C279 C 0.73699 0.06536 0.03254 0.0
C280 C 0.71214 0.99764 0.06745 0.0
C281 C 0.73206 0.04216 0.08371 0.0
N282 N 0.71942 0.03576 0.9888 0.0
N283 N 0.70541 0.99541 0.0099 0.0
C284 C 0.75661 0.11461 0.02511 0.0
H285 H 0.78683 0.12746 0.99757 0.0
H286 H 0.73256 0.12134 1.00217 0.0
H287 H 0.7659 0.13234 0.06727 0.0
C288 C 0.6036 0.07264 0.89777 0.0
N289 N 0.64141 0.0726 0.88432 0.0
N290 N 0.65074 0.05254 0.92528 0.0
C291 C 0.61714 0.03684 0.96496 0.0
C292 C 0.58627 0.04949 0.94876 0.0
C293 C 0.58112 0.08916 0.85873 0.0
H294 H 0.6053 0.12356 0.84448 0.0
H295 H 0.55223 0.08898 0.87993 0.0
H296 H 0.56942 0.06679 0.82083 0.0
O297 O 0.67378 0.029 0.78693 0.0
O298 O 0.68853 0.99604 0.85899 0.0
H299 H 0.57864 0.9925 0.03492 0.0
H300 H 0.63835 0.02086 0.04337 0.0
C301 C 0.61089 0.0046 0.01195 0.0
H302 H 0.61233 0.97584 0.99306 0.0
H303 H 0.6888 0.96608 0.9857 0.0
O304 O 0.64195 0.096 0.75502 0.0
C305 C 0.67998 0.99807 0.80575 0.0
Co306 Co 0.39577 0.05757 0.67676 0.0
Co307 Co 0.32317 0.04124 0.58961 0.0
C308 C 0.36139 0.12056 0.66396 0.0
O309 O 0.38246 0.10472 0.68939 0.0
O310 O 0.3407 0.10358 0.61681 0.0
C311 C 0.47765 0.11061 0.7354 0.0
O312 O 0.47149 0.14372 0.72084 0.0
C313 C 0.29719 0.04892 0.4717 0.0
C314 C 0.22658 0.99688 0.46873 0.0
C315 C 0.26046 0.02917 0.43419 0.0
N316 N 0.28475 0.02947 0.52425 0.0
N317 N 0.24224 -0.00125 0.52235 0.0
C318 C 0.34462 0.08321 0.45796 0.0
H319 H 0.36734 0.08477 0.49231 0.0
H320 H 0.35528 0.07596 0.41595 0.0
H321 H 0.34816 0.11681 0.45645 0.0
C322 C 0.44077 0.04732 0.57733 0.0
N323 N 0.40747 0.05167 0.60005 0.0
N324 N 0.37297 0.03356 0.56555 0.0
C325 C 0.38264 0.01391 0.52115 0.0
C326 C 0.42625 0.0224 0.52757 0.0
C327 C 0.4841 0.0616 0.60618 0.0
H328 H 0.49645 0.09483 0.62609 0.0
H329 H 0.50959 0.06371 0.57509 0.0
H330 H 0.4786 0.03635 0.63932 0.0
O331 O 0.34561 0.00065 0.70462 0.0
O332 O 0.29174 0.007 0.66306 0.0
H333 H 0.31533 0.9725 0.49136 0.0
H334 H 0.35456 0.95543 0.4674 0.0
C335 C 0.34999 0.98438 0.47663 0.0
H336 H 0.35619 0.00341 0.43579 0.0
H337 H 0.22439 0.97806 0.55697 0.0
O338 O 0.44753 0.07128 0.72251 0.0
C339 C 0.30617 0.99403 0.7053 0.0
Co340 Co 0.96507 0.35095 0.72483 0.0
Co341 Co 0.98238 0.30599 0.61694 0.0
C342 C 0.91073 0.25206 0.69868 0.0
O343 O 0.92376 0.28768 0.72689 0.0
O344 O 0.92798 0.25237 0.64976 0.0
C345 C 0.89538 0.35562 0.78281 0.0
O346 O 0.87205 0.31231 0.77475 0.0
C347 C 0.96775 0.26484 0.50135 0.0
C348 C 0.03472 0.3048 0.46258 0.0
C349 C 0.99081 0.27431 0.44896 0.0
N350 N -0.00358 0.29046 0.54296 0.0
N351 N 0.03661 0.31319 0.5197 0.0
C352 C 0.91925 0.23314 0.51191 0.0
H353 H 0.90353 0.25169 0.53002 0.0
H354 H 0.90206 0.21562 0.47158 0.0
H355 H 0.91555 0.20815 0.54472 0.0
C356 C 0.97806 0.41829 0.63985 0.0
N357 N 0.9727 0.37795 0.65299 0.0
N358 N 0.97743 0.35906 0.60615 0.0
C359 C 0.98461 0.38697 0.56104 0.0
C360 C 0.98427 0.42463 0.58104 0.0
C361 C 0.98484 0.45347 0.6831 0.0
H362 H 0.99123 0.44509 0.72681 0.0
H363 H 0.95538 0.4578 0.68385 0.0
H364 H 0.01361 0.48616 0.6702 0.0
O365 O 0.02086 0.35602 0.74828 0.0
O366 O 0.03033 0.31832 0.67605 0.0
H367 H 0.03268 0.3899 0.5008 0.0
H368 H 0.99324 0.40338 0.4701 0.0
C369 C -0.00271 0.38133 0.50123 0.0
H370 H 0.97643 0.34642 0.48787 0.0
H371 H 0.06474 0.33689 0.54191 0.0
O372 O 0.93747 0.37643 0.77528 0.0
C373 C 0.04166 0.33804 0.72524 0.0
Co374 Co 0.64558 0.57139 0.73132 0.0
Co375 Co 0.68759 0.64277 0.63263 0.0
C376 C 0.7404 0.61025 0.6923 0.0
O377 O 0.70722 0.5873 0.72471 0.0
O378 O 0.73771 0.6319 0.64984 0.0
C379 C 0.62745 0.48689 0.74403 0.0
O380 O 0.65285 0.50258 0.6979 0.0
C381 C 0.7138 0.65896 0.51346 0.0
C382 C 0.69783 0.71045 0.48706 0.0
C383 C 0.70909 0.67994 0.46534 0.0
N384 N 0.70354 0.67455 0.56099 0.0
N385 N 0.69531 0.70634 0.54518 0.0
C386 C 0.72562 0.62289 0.51451 0.0
H387 H 0.69968 0.59358 0.53869 0.0
H388 H 0.72946 0.61277 0.47023 0.0
H389 H 0.75755 0.63529 0.53784 0.0
C390 C 0.57365 0.52818 0.64663 0.0
N391 N 0.61541 0.55972 0.66044 0.0
N392 N 0.63147 0.59013 0.62005 0.0
C393 C 0.59936 0.58055 0.58055 0.0
C394 C 0.56317 0.53717 0.59154 0.0
C395 C 0.54086 0.49947 0.69238 0.0
H396 H 0.55018 0.51706 0.73461 0.0
H397 H 0.54149 0.46803 0.69737 0.0
H398 H 0.50649 0.49159 0.68202 0.0
O399 O 0.65 0.62447 0.77094 0.0
O400 O 0.68448 0.6765 0.70188 0.0
H401 H 0.56062 0.61067 0.55278 0.0
H402 H 0.61134 0.62721 0.51133 0.0
C403 C 0.59569 0.61839 0.55476 0.0
H404 H 0.61354 0.64845 0.58243 0.0
H405 H 0.68477 0.72283 0.5734 0.0
O406 O 0.619 0.51359 0.77228 0.0
C407 C 0.66945 0.66512 0.75366 0.0
C408 C 0.06225 0.28774 0.77616 0.0
C409 C 0.0721 0.33182 0.76415 0.0
C410 C 0.08239 0.35097 0.86586 0.0
C411 C 0.06441 0.3048 0.87964 0.0
N412 N 0.05241 0.23298 0.84951 0.0
N413 N 0.11579 0.40818 0.79148 0.0
C414 C 0.05975 0.27438 0.83507 0.0
C415 C 0.09219 0.36439 0.80732 0.0
N416 N 0.0533 0.25867 0.73149 0.0
N417 N 0.08527 0.38112 0.90631 0.0
H418 H 0.12043 0.41737 0.74783 0.0
H419 H 0.13374 0.43401 0.82072 0.0
H420 H 0.07546 0.37321 0.94911 0.0
H421 H 0.09368 0.41371 0.89599 0.0
H422 H 0.04074 0.22456 0.73655 0.0
H423 H 0.05967 0.26961 0.68864 0.0
H424 H 0.05053 0.20958 0.81963 0.0
H425 H 0.05144 0.22332 0.89248 0.0
C426 C 0.67696 0.74406 0.87407 0.0
C427 C 0.7156 0.74966 0.90168 0.0
C428 C 0.73183 0.71729 0.81799 0.0
C429 C 0.68719 0.70023 0.79882 0.0
N430 N 0.61829 0.70123 0.80518 0.0
N431 N 0.7912 0.77048 0.87985 0.0
C432 C 0.66009 0.71517 0.82539 0.0
C433 C 0.74697 0.74565 0.86701 0.0
N434 N 0.66113 0.77166 0.88846 0.0
N435 N 0.75873 0.70396 0.79222 0.0
H436 H 0.80253 0.79416 0.91302 0.0
H437 H 0.81635 0.77178 0.85361 0.0
H438 H 0.74934 0.68366 0.75575 0.0
H439 H 0.78918 0.71073 0.80941 0.0
H440 H 0.63507 0.77195 0.86664 0.0
H441 H 0.67857 0.79798 0.91737 0.0
H442 H 0.59582 0.70794 0.82679 0.0
H443 H 0.60574 0.68122 0.76841 0.0
C444 C 0.24121 0.94646 0.7727 0.0
C445 C 0.28335 0.98527 0.76279 0.0
C446 C 0.2801 0.01253 0.85992 0.0
C447 C 0.24212 0.97091 0.87316 0.0
N448 N 0.18687 0.89683 0.84385 0.0
N449 N 0.34721 0.05104 0.80449 0.0
C450 C 0.2225 0.93747 0.82984 0.0
C451 C 0.30392 0.01717 0.80827 0.0
N452 N 0.2195 0.918 0.72797 0.0
N453 N 0.29422 0.04802 0.89686 0.0
H454 H 0.36788 0.05685 0.76934 0.0
H455 H 0.3648 0.07085 0.83967 0.0
H456 H 0.27959 0.04653 0.93677 0.0
H457 H 0.31805 0.08052 0.8852 0.0
H458 H 0.18691 0.89145 0.73098 0.0
H459 H 0.23326 0.92264 0.68655 0.0
H460 H 0.1739 0.86927 0.81642 0.0
H461 H 0.17161 0.89021 0.88453 0.0
C462 C 0.66337 0.9248 0.67585 0.0
C463 C 0.70452 0.95308 0.64827 0.0
C464 C 0.73386 0.99113 0.74067 0.0
C465 C 0.68929 0.973 0.76109 0.0
N466 N 0.61147 0.9183 0.75085 0.0
N467 N 0.78304 0.98896 0.66695 0.0
C468 C 0.65395 0.93809 0.72982 0.0
C469 C 0.74142 0.9788 0.68476 0.0
N470 N 0.63759 0.8823 0.6565 0.0
N471 N 0.76851 0.02239 0.77275 0.0
H472 H 0.78798 0.97598 0.6286 0.0
H473 H 0.81124 0.005 0.69285 0.0
H474 H 0.76444 0.03057 0.81489 0.0
H475 H 0.80088 0.04143 0.75683 0.0
H476 H 0.60861 0.85879 0.67767 0.0
H477 H 0.64966 0.86955 0.62473 0.0
H478 H 0.5841 0.89549 0.72668 0.0
H479 H 0.60401 0.92627 0.79145 0.0
C480 C 0.07621 0.75783 0.63493 0.0
C481 C 0.04152 0.76163 0.60913 0.0
C482 C -0.00172 0.73526 0.69843 0.0
C483 C 0.02662 0.7189 0.71678 0.0
N484 N 0.09625 0.71985 0.70632 0.0
N485 N 0.98913 0.78512 0.63373 0.0
C486 C 0.06721 0.73243 0.68669 0.0
C487 C 0.00864 0.76044 0.64656 0.0
N488 N 0.11847 0.78318 0.6143 0.0
N489 N 0.95962 0.72378 0.72745 0.0
H490 H -9e-05 0.8071 0.59866 0.0
H491 H 0.96723 0.7884 0.6616 0.0
H492 H 0.95083 0.70616 0.76618 0.0
H493 H 0.9351 0.72966 0.71113 0.0
H494 H 0.1462 0.78493 0.63412 0.0
H495 H 0.12543 0.80627 0.58116 0.0
H496 H 0.12412 0.72499 0.68264 0.0
H497 H 0.09116 0.70278 0.74534 0.0
C498 C 0.21609 0.25825 0.66513 0.0
C499 C 0.23796 0.29085 0.62127 0.0
C500 C 0.26959 0.3483 0.69623 0.0
C501 C 0.26129 0.31496 0.73679 0.0
N502 N 0.21478 0.23853 0.76635 0.0
N503 N 0.28895 0.36901 0.59699 0.0
C504 C 0.22966 0.26997 0.72368 0.0
C505 C 0.26438 0.33686 0.63696 0.0
N506 N 0.18308 0.21637 0.65035 0.0
N507 N 0.28734 0.39133 0.71459 0.0
H508 H 0.29107 0.36236 0.55377 0.0
H509 H 0.31135 0.40207 0.60791 0.0
H510 H 0.29303 0.39936 0.75852 0.0
H511 H 0.2919 0.41732 0.68747 0.0
H512 H 0.16378 0.19165 0.68031 0.0
H513 H 0.17255 0.20767 0.60765 0.0
H514 H 0.1967 0.20429 0.75876 0.0
H515 H 0.2203 0.24719 0.80998 0.0
C516 C 0.92224 0.63538 0.19411 0.0
C517 C 0.94875 0.67208 0.22992 0.0
C518 C 0.96883 0.72241 0.14685 0.0
C519 C 0.9524 0.68474 0.10954 0.0
N520 N 0.90851 0.6042 0.09799 0.0
N521 N 0.97826 0.7504 0.24584 0.0
C522 C 0.92614 0.64085 0.13304 0.0
C523 C 0.96558 0.71579 0.20803 0.0
N524 N 0.8949 0.59505 0.2195 0.0
N525 N 0.98924 0.76429 0.12335 0.0
H526 H 0.97249 0.74511 0.2902 0.0
H527 H 0.9901 0.78335 0.23359 0.0
H528 H 0.98951 0.76954 0.07886 0.0
H529 H 0.00618 0.79363 0.14715 0.0
H530 H 0.87159 0.56687 0.19711 0.0
H531 H 0.89308 0.59157 0.26451 0.0
H532 H 0.89476 0.57162 0.11313 0.0
H533 H 0.90879 0.60597 0.05329 0.0
C534 C 0.33215 0.33358 0.19015 0.0
C535 C 0.30666 0.30176 0.23294 0.0
C536 C 0.27017 0.24681 0.1548 0.0
C537 C 0.2878 0.28229 0.11414 0.0
N538 N 0.32273 0.36205 0.10069 0.0
N539 N 0.24978 0.22541 0.25504 0.0
C540 C 0.31573 0.3265 0.13353 0.0
C541 C 0.2756 0.25717 0.21532 0.0
N542 N 0.37023 0.37197 0.20447 0.0
N543 N 0.24796 0.20366 0.13586 0.0
H544 H 0.25412 0.23014 0.29945 0.0
H545 H 0.22285 0.19451 0.2436 0.0
H546 H 0.24258 0.19547 0.09201 0.0
H547 H 0.23799 0.17638 0.16326 0.0
H548 H 0.39056 0.39528 0.17342 0.0
H549 H 0.38326 0.37758 0.24628 0.0
H550 H 0.34102 0.39491 0.11544 0.0
H551 H 0.30466 0.35814 0.0632 0.0
C552 C 0.71241 0.07545 0.23369 0.0
C553 C 0.72828 0.05205 0.26629 0.0
C554 C 0.76681 0.04698 0.17992 0.0
C555 C 0.73979 0.05766 0.14524 0.0
N556 N 0.68676 0.08379 0.14031 0.0
N557 N 0.77724 0.02222 0.27393 0.0
C558 C 0.71368 0.07395 0.17227 0.0
C559 C 0.75888 0.04129 0.24076 0.0
N560 N 0.69306 0.096 0.26214 0.0
N561 N 0.79922 0.04141 0.15417 0.0
H562 H 0.7733 0.01981 0.31879 0.0
H563 H 0.79519 0.00801 0.25714 0.0
H564 H 0.80557 0.04592 0.10975 0.0
H565 H 0.82214 0.03648 0.17705 0.0
H566 H 0.68328 0.11648 0.24176 0.0
H567 H 0.69107 0.09559 0.3073 0.0
H568 H 0.66303 0.09025 0.15851 0.0
H569 H 0.68598 0.08298 0.09545 0.0
C570 C 0.30642 0.06064 0.2825 0.0
C571 C 0.27944 0.0189 0.25526 0.0
C572 C 0.22624 0.99626 0.33613 0.0
C573 C 0.25907 0.03239 0.36888 0.0
N574 N 0.3098 0.11076 0.35847 0.0
N575 N 0.21007 0.94868 0.25221 0.0
C576 C 0.29337 0.06856 0.33778 0.0
C577 C 0.23778 0.98756 0.28045 0.0
N578 N 0.34514 0.09183 0.25686 0.0
N579 N 0.18326 0.97316 0.35565 0.0
H580 H 0.21558 0.9428 0.20959 0.0
H581 H 0.18268 0.92173 0.27178 0.0
H582 H 0.17249 0.98397 0.39111 0.0
H583 H 0.15716 0.94817 0.33201 0.0
H584 H 0.36841 0.12095 0.27776 0.0
H585 H 0.35454 0.08729 0.21553 0.0
H586 H 0.33248 0.13922 0.33572 0.0
H587 H 0.29624 0.11671 0.39562 0.0
C588 C 0.95099 0.28059 0.36072 0.0
C589 C 0.97477 0.26204 0.38815 0.0
C590 C 0.00097 0.25199 0.29358 0.0
C591 C 0.9821 0.27567 0.2677 0.0
N592 N 0.92743 0.29838 0.27042 0.0
N593 N 0.00843 0.21634 0.38003 0.0
C594 C 0.95277 0.28481 0.2994 0.0
C595 C 0.99469 0.24266 0.35394 0.0
N596 N 0.92941 0.29702 0.39299 0.0
N597 N 0.02725 0.24122 0.2611 0.0
H598 H 0.00352 0.2091 0.42421 0.0
H599 H 0.02081 0.1987 0.35767 0.0
H600 H 0.03087 0.24627 0.21645 0.0
H601 H 0.04629 0.22853 0.27824 0.0
H602 H 0.91764 0.31705 0.37637 0.0
H603 H 0.92372 0.29126 0.43698 0.0
H604 H 0.90242 0.30229 0.28974 0.0
H605 H 0.92885 0.3016 0.22542 0.0
C606 C 0.67335 0.62082 0.31901 0.0
C607 C 0.6924 0.65875 0.2829 0.0
C608 C 0.73717 0.70409 0.36467 0.0
C609 C 0.70903 0.66916 0.40283 0.0
N610 N 0.64827 0.59302 0.41543 0.0
N611 N 0.74548 0.73759 0.27056 0.0
C612 C 0.67732 0.62666 0.37993 0.0
C613 C 0.72623 0.70051 0.30498 0.0
N614 N 0.64969 0.57947 0.2946 0.0
N615 N 0.77423 0.74075 0.38574 0.0
H616 H 0.74107 0.73667 0.22603 0.0
H617 H 0.76485 0.76984 0.28672 0.0
H618 H 0.78316 0.74379 0.42927 0.0
H619 H 0.79831 0.76561 0.35936 0.0
H620 H 0.63777 0.54989 0.31791 0.0
H621 H 0.64632 0.57527 0.24977 0.0
H622 H 0.62179 0.5632 0.40017 0.0
H623 H 0.6481 0.59585 0.46013 0.0
C624 C 0.03519 0.51615 0.94548 0.0
C625 C 0.99264 0.51251 0.94706 0.0
C626 C 0.96448 0.44694 0.01056 0.0
C627 C 0.00643 0.44933 0.00651 0.0
N628 N 0.07926 0.4808 0.96284 0.0
N629 N 0.91479 0.47128 0.9733 0.0
C630 C 0.04102 0.48232 0.9716 0.0
C631 C 0.95662 0.47689 0.97731 0.0
N632 N 0.07039 0.55284 0.92072 0.0
N633 N 0.93274 0.41698 0.04763 0.0
H634 H 0.90784 0.49264 0.94962 0.0
H635 H 0.88635 0.44394 0.99018 0.0
H636 H 0.93688 0.39358 0.07097 0.0
H637 H 0.90344 0.41685 0.05796 0.0
H638 H 0.10328 0.56008 0.9237 0.0
H639 H 0.06725 0.57812 0.90082 0.0
H640 H 0.10387 0.50089 0.93313 0.0
H641 H 0.08478 0.45668 0.98173 0.0
C642 C 0.497 0.54779 0.9709 0.0
C643 C 0.52707 0.54768 0.01203 0.0
C644 C 0.50433 0.47035 0.9862 0.0
C645 C 0.47129 0.46916 0.94911 0.0
N646 N 0.43142 0.50408 0.91205 0.0
N647 N 0.55682 0.50823 0.06391 0.0
C648 C 0.4664 0.50724 0.94287 0.0
C649 C 0.53022 0.50882 0.02091 0.0
N650 N 0.49817 0.5869 0.95814 0.0
N651 N 0.5115 0.43496 0.98739 0.0
H652 H 0.57743 0.53621 0.08884 0.0
H653 H 0.55652 0.47944 0.07744 0.0
H654 H 0.49243 0.40574 0.96382 0.0
H655 H 0.53836 0.43567 0.00825 0.0
H656 H 0.48038 0.59029 0.92436 0.0
H657 H 0.51999 0.61712 0.97823 0.0
H658 H 0.42309 0.52907 0.91109 0.0
H659 H 0.40839 0.47493 0.89088 0.0
C660 C 0.53511 0.05916 0.01825 0.0
C661 C 0.54049 0.0349 0.97234 0.0
C662 C 0.45886 0.99205 0.95942 0.0
C663 C 0.4533 0.01325 0.00875 0.0
N664 N 0.4854 0.066 0.08679 0.0
N665 N 0.5079 0.97545 0.90228 0.0
C666 C 0.49134 0.04681 0.03832 0.0
C667 C 0.5024 0.00071 0.94354 0.0
N668 N 0.57195 0.09478 0.0417 0.0
N669 N 0.42228 0.96359 0.92777 0.0
H670 H 0.5391 0.98053 0.89004 0.0
H671 H 0.48172 0.94728 0.88328 0.0
H672 H 0.39013 0.95632 0.93891 0.0
H673 H 0.42387 0.95012 0.88814 0.0
H674 H 0.57062 0.11717 0.07062 0.0
H675 H 0.60439 0.1036 0.02973 0.0
H676 H 0.51088 0.08604 0.11521 0.0
H677 H 0.45416 0.06033 0.10001 0.0
C678 C 0.48566 0.9559 0.51453 0.0
C679 C 0.51987 0.98343 0.47491 0.0
C680 C 0.48184 0.02597 0.45586 0.0
C681 C 0.45045 0.00169 0.49984 0.0
N682 N 0.42221 0.94435 0.57282 0.0
N683 N 0.55343 0.04726 0.41145 0.0
C684 C 0.45204 0.96649 0.52924 0.0
C685 C 0.51867 0.01919 0.44646 0.0
N686 N 0.4848 0.91898 0.53697 0.0
N687 N 0.47609 0.05545 0.42307 0.0
H688 H 0.58108 0.04352 0.40417 0.0
H689 H 0.55683 0.0763 0.39336 0.0
H690 H 0.44912 0.06053 0.42927 0.0
H691 H 0.49526 0.07162 0.38674 0.0
H692 H 0.45814 0.89446 0.56061 0.0
H693 H 0.51013 0.91163 0.52948 0.0
H694 H 0.42482 0.92258 0.60134 0.0
H695 H 0.39544 0.9492 0.58189 0.0
C696 C 0.95984 0.50467 0.49777 0.0
C697 C 0.00332 0.54176 0.49063 0.0
C698 C 0.03458 0.5029 0.54477 0.0
C699 C 0.99144 0.46454 0.54795 0.0
N700 N 0.91404 0.42592 0.52072 0.0
N701 N 0.08274 0.57627 0.5032 0.0
C702 C 0.95428 0.46465 0.52274 0.0
C703 C 0.04089 0.541 0.51334 0.0
N704 N 0.9239 0.50795 0.48088 0.0
N705 N 0.06938 0.50293 0.57231 0.0
H706 H 0.08851 0.60575 0.48338 0.0
H707 H 0.11191 0.57581 0.51181 0.0
H708 H 0.06644 0.47484 0.59301 0.0
H709 H 0.10056 0.53125 0.57759 0.0
H710 H 0.89104 0.48397 0.49018 0.0
H711 H 0.92707 0.53661 0.46156 0.0
H712 H 0.8867 0.42242 0.4979 0.0
H713 H 0.90882 0.39593 0.5382 0.0
C714 C 0.50576 0.52505 0.51273 0.0
C715 C 0.52056 0.50791 0.55741 0.0
C716 C 0.44611 0.44063 0.55707 0.0
C717 C 0.4322 0.45841 0.51225 0.0
N718 N 0.44247 0.53017 0.48397 0.0
N719 N 0.50888 0.43736 0.59357 0.0
C720 C 0.45989 0.50462 0.50126 0.0
C721 C 0.49191 0.46215 0.57188 0.0
N722 N 0.53475 0.55387 0.47294 0.0
N723 N 0.41551 0.40844 0.59247 0.0
H724 H 0.54316 0.44994 0.59668 0.0
H725 H 0.48886 0.40311 0.60058 0.0
H726 H 0.38201 0.39942 0.59072 0.0
H727 H 0.42461 0.39665 0.6283 0.0
H728 H 0.52413 0.56499 0.43779 0.0
H729 H 0.56725 0.5598 0.47058 0.0
H730 H 0.46253 0.56455 0.47749 0.0
H731 H 0.4081 0.51747 0.48269 0.0
C732 C 0.15999 0.56579 0.19441 0.0
C733 C 0.15104 0.53014 0.23223 0.0
C734 C 0.13286 0.56697 0.3091 0.0
C735 C 0.12757 0.59308 0.26592 0.0
N736 N 0.14018 0.62112 0.16804 0.0
N737 N 0.13857 0.50128 0.32917 0.0
C738 C 0.14273 0.59395 0.2087 0.0
C739 C 0.14147 0.53281 0.29122 0.0
N740 N 0.18579 0.57348 0.14625 0.0
N741 N 0.12888 0.57409 0.36648 0.0
H742 H 0.14782 0.47793 0.31745 0.0
H743 H 0.1259 0.49738 0.37104 0.0
H744 H 0.12082 0.59756 0.38143 0.0
H745 H 0.13649 0.55882 0.39968 0.0
H746 H 0.19511 0.60064 0.11886 0.0
H747 H 0.20337 0.55683 0.13874 0.0
H748 H 0.14584 0.61901 0.12411 0.0
H749 H 0.13026 0.64429 0.17793 0.0
C750 C 0.41062 0.58942 0.21567 0.0
C751 C 0.44645 0.61245 0.2548 0.0
C752 C 0.39734 0.57327 0.33602 0.0
C753 C 0.36512 0.5431 0.29635 0.0
N754 N 0.33813 0.52399 0.19894 0.0
N755 N 0.47193 0.63337 0.35284 0.0
C756 C 0.37046 0.55234 0.23627 0.0
C757 C 0.43894 0.60689 0.31507 0.0
N758 N 0.41505 0.60264 0.15921 0.0
N759 N 0.39058 0.56925 0.39429 0.0
H760 H 0.50273 0.6596 0.33913 0.0
H761 H 0.46791 0.62948 0.39765 0.0
H762 H 0.36109 0.54542 0.41415 0.0
H763 H 0.36109 0.54542 0.41415 0.0
H764 H 0.38881 0.58962 0.12994 0.0
H765 H 0.44416 0.62932 0.14248 0.0
H766 H 0.34208 0.52511 0.15419 0.0
H767 H 0.30757 0.49787 0.2134 0.0
C768 C 0.41191 0.8581 0.25848 0.0
C769 C 0.41468 0.90046 0.25827 0.0
C770 C 0.48885 0.93407 0.21548 0.0
C771 C 0.48763 0.89279 0.21892 0.0
N772 N 0.44144 0.8129 0.21962 0.0
N773 N 0.46517 0.98074 0.25918 0.0
C774 C 0.44699 0.85378 0.23298 0.0
C775 C 0.45571 0.93891 0.24368 0.0
N776 N 0.37791 0.82315 0.2873 0.0
N777 N 0.52379 0.96983 0.18917 0.0
H778 H 0.44467 0.98703 0.28613 0.0
H779 H 0.44467 0.98703 0.28613 0.0
H780 H 0.54809 0.96662 0.16622 0.0
H781 H 0.52627 0.00115 0.18736 0.0
H782 H 0.3759 0.79231 0.29242 0.0
H783 H 0.35542 0.82719 0.31314 0.0
H784 H 0.41136 0.78317 0.22504 0.0
H785 H 0.46532 0.80963 0.19585 0.0
C786 C 0.8575 0.39498 0.82324 0.0
C787 C 0.87286 0.38146 0.77505 0.0
C788 C 0.867 0.43519 0.71308 0.0
C789 C 0.86107 0.45451 0.76367 0.0
N790 N 0.82162 0.43608 0.85489 0.0
N791 N 0.87269 0.37375 0.6713 0.0
C792 C 0.84641 0.42871 0.81511 0.0
C793 C 0.87059 0.3963 0.71865 0.0
N794 N 0.85509 0.37691 0.87644 0.0
N795 N 0.87104 0.45523 0.66089 0.0
H796 H 0.87568 0.34533 0.67468 0.0
H797 H 0.86798 0.38098 0.6292 0.0
H798 H 0.86473 0.48157 0.65646 0.0
H799 H 0.8806 0.44615 0.62283 0.0
H800 H 0.84783 0.38856 0.91417 0.0
H801 H 0.86194 0.3511 0.88271 0.0
H802 H 0.80838 0.41678 0.89204 0.0
H803 H 0.80955 0.45768 0.84635 0.0
C804 C 0.54438 0.3799 0.68573 0.0
C805 C 0.51126 0.37111 0.72769 0.0
C806 C 0.56734 0.42084 0.79645 0.0
C807 C 0.59763 0.43783 0.74972 0.0
N808 N 0.62395 0.41546 0.66673 0.0
N809 N 0.49376 0.36423 0.8294 0.0
C810 C 0.58926 0.411 0.69975 0.0
C811 C 0.52375 0.385 0.78569 0.0
N812 N 0.53285 0.36038 0.63251 0.0
N813 N 0.57978 0.44072 0.84937 0.0
H814 H 0.46184 0.33756 0.82154 0.0
H815 H 0.50145 0.37093 0.87303 0.0
H816 H 0.61278 0.46508 0.85775 0.0
H817 H 0.5579 0.43349 0.884 0.0
H818 H 0.55528 0.36932 0.59813 0.0
H819 H 0.50012 0.33631 0.62248 0.0
H820 H 0.62001 0.3953 0.63114 0.0
H821 H 0.65694 0.43599 0.6797 0.0
C822 C 0.57263 0.09439 0.70527 0.0
C823 C 0.61004 0.13614 0.71788 0.0
C824 C 0.56031 0.16328 0.74959 0.0
C825 C 0.52368 0.11897 0.74435 0.0
N826 N 0.50248 0.04086 0.7467 0.0
N827 N 0.63891 0.21482 0.72915 0.0
C828 C 0.53183 0.08385 0.73075 0.0
C829 C 0.6038 0.17228 0.73319 0.0
N830 N 0.57714 0.0638 0.67313 0.0
N831 N 0.55395 0.19542 0.77469 0.0
H832 H 0.66945 0.22148 0.71163 0.0
H833 H 0.63652 0.24323 0.73631 0.0
H834 H 0.52357 0.188 0.79349 0.0
H835 H 0.57951 0.22776 0.78314 0.0
H836 H 0.54996 0.03299 0.6616 0.0
H837 H 0.60757 0.07173 0.65385 0.0
H838 H 0.50889 0.01481 0.73973 0.0
H839 H 0.47551 0.03285 0.7742 0.0
C840 C 0.16002 0.31259 0.2812 0.0
C841 C 0.186 0.35309 0.31214 0.0
C842 C 0.18353 0.39558 0.23041 0.0
C843 C 0.15536 0.35587 0.1997 0.0
N844 N 0.12905 0.27739 0.18842 0.0
N845 N 0.20121 0.42851 0.32516 0.0
C846 C 0.14671 0.31426 0.22313 0.0
C847 C 0.1905 0.39303 0.28966 0.0
N848 N 0.14574 0.27282 0.30875 0.0
N849 N 0.20569 0.43559 0.20235 0.0
H850 H 0.20258 0.42597 0.37004 0.0
H851 H 0.20358 0.45808 0.31053 0.0
H852 H 0.20616 0.43771 0.15727 0.0
H853 H 0.22797 0.46521 0.2232 0.0
H854 H 0.12478 0.24182 0.29022 0.0
H855 H 0.15048 0.27119 0.35301 0.0
H856 H 0.1244 0.24653 0.20115 0.0
H857 H 0.12421 0.27926 0.14424 0.0
C858 C 0.66773 0.86693 0.24784 0.0
C859 C 0.65583 0.8583 0.3073 0.0
C860 C 0.64669 0.78426 0.29658 0.0
C861 C 0.64729 0.78906 0.23526 0.0
N862 N 0.65977 0.83554 0.15177 0.0
N863 N 0.63558 0.80977 0.38977 0.0
C864 C 0.65923 0.8309 0.2105 0.0
C865 C 0.6466 0.81752 0.33249 0.0
N866 N 0.68647 0.90964 0.22741 0.0
N867 N 0.64713 0.74837 0.32024 0.0
H868 H 0.63689 0.83434 0.41732 0.0
H869 H 0.6232 0.77857 0.4091 0.0
H870 H 0.64916 0.72444 0.29505 0.0
H871 H 0.65047 0.745 0.36441 0.0
H872 H 0.69911 0.91894 0.18559 0.0
H873 H 0.69337 0.93651 0.25449 0.0
H874 H 0.66338 0.86398 0.13144 0.0
H875 H 0.6537 0.80975 0.12318 0.0
C876 C 0.21207 0.84337 0.26438 0.0
C877 C 0.20683 0.84309 0.20308 0.0
C878 C 0.12986 0.78263 0.21405 0.0
C879 C 0.13829 0.77758 0.27302 0.0
N880 N 0.1897 0.8 0.35262 0.0
N881 N 0.16145 0.80952 0.11881 0.0
C882 C 0.17993 0.8072 0.29791 0.0
C883 C 0.16576 0.81211 0.17762 0.0
N884 N 0.24658 0.87914 0.29121 0.0
N885 N 0.08727 0.76024 0.19336 0.0
H886 H 0.1872 0.83034 0.09074 0.0
H887 H 0.13366 0.78428 0.09783 0.0
H888 H 0.05986 0.73974 0.21936 0.0
H889 H 0.07861 0.76574 0.15239 0.0
H890 H 0.24914 0.88274 0.33604 0.0
H891 H 0.26969 0.90768 0.26924 0.0
H892 H 0.22159 0.8178 0.3701 0.0
H893 H 0.16707 0.77378 0.37875 0.0
C894 C 0.84553 0.65773 0.77694 0.0
C895 C 0.84263 0.61747 0.79575 0.0
C896 C 0.78087 0.5746 0.72975 0.0
C897 C 0.78295 0.61448 0.71139 0.0
N898 N 0.82518 0.69478 0.70451 0.0
N899 N 0.79984 0.53783 0.80385 0.0
C900 C 0.81764 0.65643 0.73114 0.0
C901 C 0.8079 0.57589 0.77602 0.0
N902 N 0.87341 0.69678 0.80467 0.0
N903 N 0.75362 0.5357 0.70131 0.0
H904 H 0.81733 0.53909 0.84108 0.0
H905 H 0.77304 0.5063 0.79456 0.0
H906 H 0.73562 0.53512 0.66493 0.0
H907 H 0.75266 0.50567 0.70952 0.0
H908 H 0.8741 0.72673 0.79694 0.0
H909 H 0.8929 0.69831 0.83966 0.0
H910 H 0.8524 0.72611 0.71342 0.0
H911 H 0.8069 0.69487 0.66904 0.0
C912 C 0.31618 0.14677 0.72024 0.0
C913 C 0.35779 0.15569 0.69628 0.0
C914 C 0.39655 0.21538 0.76723 0.0
C915 C 0.35556 0.21112 0.7852 0.0
N916 N 0.27597 0.17628 0.77292 0.0
N917 N 0.43715 0.20484 0.68926 0.0
C918 C 0.31513 0.17762 0.76031 0.0
C919 C 0.39786 0.19204 0.71754 0.0
N920 N 0.27792 0.10806 0.70711 0.0
N921 N 0.4343 0.24205 0.79792 0.0
H922 H 0.43875 0.18914 0.65142 0.0
H923 H 0.46694 0.23351 0.69991 0.0
H924 H 0.43356 0.25833 0.83565 0.0
H925 H 0.46481 0.2441 0.78947 0.0
H926 H 0.24785 0.09771 0.72874 0.0
H927 H 0.27673 0.08463 0.67773 0.0
H928 H 0.24654 0.15626 0.75044 0.0
H929 H 0.2735 0.19712 0.80353 0.0
C930 C 0.88499 0.20542 0.78785 0.0
C931 C 0.87765 0.21038 0.72842 0.0
C932 C 0.80213 0.14743 0.73825 0.0
C933 C 0.80594 0.15075 0.79975 0.0
N934 N 0.8521 0.18327 0.88353 0.0
N935 N 0.82772 0.1862 0.64694 0.0
C936 C 0.84794 0.17922 0.82484 0.0
C937 C 0.83608 0.18086 0.70314 0.0
N938 N 0.92752 0.22591 0.80863 0.0
N939 N 0.76627 0.11184 0.71336 0.0
H940 H 0.85164 0.21006 0.61944 0.0
H941 H 0.79602 0.16885 0.62884 0.0
H942 H 0.74181 0.08578 0.73774 0.0
H943 H 0.76375 0.10564 0.66899 0.0
H944 H 0.9353 0.22065 0.85023 0.0
H945 H 0.95527 0.24425 0.78199 0.0
H946 H 0.88094 0.20729 0.90404 0.0
H947 H 0.82558 0.1645 0.9116 0.0
loop_
_geom_bond_atom_site_label_1
_geom_bond_atom_site_label_2
_geom_bond_distance
_geom_bond_site_symmetry_2
_ccdc_geom_bond_type
Co0 O3 1.970 . S
Co0 N17 1.989 . S
Co0 O25 1.967 . S
Co0 O32 1.920 . S
Co1 O4 1.966 . S
Co1 N10 2.022 . S
Co1 N18 1.993 . S
Co1 O26 1.941 . S
C2 O3 1.258 . S
C2 O4 1.263 . S
O3 Co0 1.970 . S
O3 C2 1.258 . S
O4 Co1 1.966 . S
O4 C2 1.263 . S
C5 O6 1.235 . S
C5 O32 1.289 . S
O6 C5 1.235 . S
C7 C9 1.400 . S
C7 N10 1.351 1_556 S
C7 C12 1.501 . S
C8 C9 1.387 1_655 S
C8 N11 1.341 . S
C9 C7 1.400 . S
C9 C8 1.387 1_455 S
N10 Co1 2.022 . S
N10 C7 1.351 1_554 S
N10 N11 1.365 1_454 S
N11 C8 1.341 . S
N11 N10 1.365 1_656 S
N11 H31 0.862 1_556 S
C12 C7 1.501 . S
C12 H13 0.961 1_556 S
C12 H14 0.961 . S
C12 H15 0.960 . S
H13 C12 0.961 1_554 S
H14 C12 0.961 . S
H15 C12 0.960 . S
C16 N17 1.342 . S
C16 C20 1.401 . S
C16 C21 1.499 . S
N17 Co0 1.989 . S
N17 C16 1.342 . S
N17 N18 1.388 . S
N18 Co1 1.993 . S
N18 N17 1.388 . S
N18 C19 1.346 . S
C19 N18 1.346 . S
C19 C20 1.396 . S
C19 C29 1.510 1_554 S
C20 C16 1.401 . S
C20 C19 1.396 . S
C21 C16 1.499 . S
C21 H22 0.959 . S
C21 H23 0.960 . S
C21 H24 0.961 . S
H22 C21 0.959 . S
H23 C21 0.960 . S
H24 C21 0.961 . S
O25 Co0 1.967 . S
O25 C33 1.258 . S
O26 Co1 1.941 . S
O26 C33 1.266 . S
H27 C29 0.959 1_655 S
H28 C29 0.961 . S
C29 C19 1.510 1_556 S
C29 H27 0.959 1_455 S
C29 H28 0.961 . S
C29 H30 0.960 . S
H30 C29 0.960 . S
H31 N11 0.862 1_554 S
O32 Co0 1.920 . S
O32 C5 1.289 . S
C33 O25 1.258 . S
C33 O26 1.266 . S
Co34 O37 1.970 . S
Co34 N51 1.989 . S
Co34 O59 1.967 . S
Co34 O66 1.920 . S
Co35 O38 1.966 . S
Co35 N44 2.022 . S
Co35 N52 1.993 . S
Co35 O60 1.941 . S
C36 O37 1.258 . S
C36 O38 1.263 . S
O37 Co34 1.970 . S
O37 C36 1.258 . S
O38 Co35 1.966 . S
O38 C36 1.263 . S
C39 O40 1.235 . S
C39 O66 1.289 . S
O40 C39 1.235 . S
C41 C43 1.400 . S
C41 N44 1.351 1_556 S
C41 C46 1.501 . S
C42 C43 1.387 . S
C42 N45 1.341 . S
C43 C41 1.400 . S
C43 C42 1.387 . S
N44 Co35 2.022 . S
N44 C41 1.351 1_554 S
N44 N45 1.365 1_554 S
N45 C42 1.341 . S
N45 N44 1.365 1_556 S
N45 H65 0.862 1_556 S
C46 C41 1.501 . S
C46 H47 0.961 1_556 S
C46 H48 0.961 . S
C46 H49 0.960 . S
H47 C46 0.961 1_554 S
H48 C46 0.961 . S
H49 C46 0.960 . S
C50 N51 1.342 . S
C50 C54 1.401 . S
C50 C55 1.499 . S
N51 Co34 1.989 . S
N51 C50 1.342 . S
N51 N52 1.388 . S
N52 Co35 1.993 . S
N52 N51 1.388 . S
N52 C53 1.346 . S
C53 N52 1.346 . S
C53 C54 1.396 . S
C53 C63 1.510 1_554 S
C54 C50 1.401 . S
C54 C53 1.396 . S
C55 C50 1.499 . S
C55 H56 0.959 . S
C55 H57 0.960 . S
C55 H58 0.961 . S
H56 C55 0.959 . S
H57 C55 0.960 . S
H58 C55 0.961 . S
O59 Co34 1.967 . S
O59 C67 1.258 . S
O60 Co35 1.941 . S
O60 C67 1.266 . S
H61 C63 0.959 . S
H62 C63 0.961 . S
C63 C53 1.510 1_556 S
C63 H61 0.959 . S
C63 H62 0.961 . S
C63 H64 0.960 . S
H64 C63 0.960 . S
H65 N45 0.862 1_554 S
O66 Co34 1.920 . S
O66 C39 1.289 . S
C67 O59 1.258 . S
C67 O60 1.266 . S
Co68 O71 1.970 . S
Co68 N85 1.989 . S
Co68 O93 1.967 . S
Co68 O100 1.920 . S
Co69 O72 1.966 . S
Co69 N78 2.022 . S
Co69 N86 1.993 . S
Co69 O94 1.941 . S
C70 O71 1.258 . S
C70 O72 1.263 . S
O71 Co68 1.970 . S
O71 C70 1.258 . S
O72 Co69 1.966 . S
O72 C70 1.263 . S
C73 O74 1.235 . S
C73 O100 1.289 . S
O74 C73 1.235 . S
C75 C77 1.400 . S
C75 N78 1.351 1_556 S
C75 C80 1.501 . S
C76 C77 1.387 1_545 S
C76 N79 1.341 . S
C77 C75 1.400 . S
C77 C76 1.387 1_565 S
N78 Co69 2.022 . S
N78 C75 1.351 1_554 S
N78 N79 1.365 1_564 S
N79 C76 1.341 . S
N79 N78 1.365 1_546 S
N79 H99 0.862 1_556 S
C80 C75 1.501 . S
C80 H81 0.961 1_556 S
C80 H82 0.961 . S
C80 H83 0.960 . S
H81 C80 0.961 1_554 S
H82 C80 0.961 . S
H83 C80 0.960 . S
C84 N85 1.342 . S
C84 C88 1.401 . S
C84 C89 1.499 . S
N85 Co68 1.989 . S
N85 C84 1.342 . S
N85 N86 1.388 . S
N86 Co69 1.993 . S
N86 N85 1.388 . S
N86 C87 1.346 . S
C87 N86 1.346 . S
C87 C88 1.396 . S
C87 C97 1.510 1_554 S
C88 C84 1.401 . S
C88 C87 1.396 . S
C89 C84 1.499 . S
C89 H90 0.959 . S
C89 H91 0.960 . S
C89 H92 0.961 . S
H90 C89 0.959 . S
H91 C89 0.960 . S
H92 C89 0.961 . S
O93 Co68 1.967 . S
O93 C101 1.258 . S
O94 Co69 1.941 . S
O94 C101 1.266 . S
H95 C97 0.959 1_545 S
H96 C97 0.961 . S
C97 C87 1.510 1_556 S
C97 H95 0.959 1_565 S
C97 H96 0.961 . S
C97 H98 0.960 . S
H98 C97 0.960 . S
H99 N79 0.862 1_554 S
O100 Co68 1.920 . S
O100 C73 1.289 . S
C101 O93 1.258 . S
C101 O94 1.266 . S
Co102 O105 1.970 . S
Co102 N119 1.989 . S
Co102 O127 1.967 . S
Co102 O134 1.920 . S
Co103 O106 1.966 . S
Co103 N112 2.022 . S
Co103 N120 1.993 . S
Co103 O128 1.941 . S
C104 O105 1.258 . S
C104 O106 1.263 . S
O105 Co102 1.970 . S
O105 C104 1.258 . S
O106 Co103 1.966 . S
O106 C104 1.263 . S
C107 O108 1.235 . S
C107 O134 1.289 . S
O108 C107 1.235 . S
C109 C111 1.400 . S
C109 N112 1.351 . S
C109 C114 1.501 . S
C110 C111 1.387 1_545 S
C110 N113 1.341 . S
C111 C109 1.400 . S
C111 C110 1.387 1_565 S
N112 Co103 2.022 . S
N112 C109 1.351 . S
N112 N113 1.365 1_565 S
N113 C110 1.341 . S
N113 N112 1.365 1_545 S
N113 H133 0.862 . S
C114 C109 1.501 . S
C114 H115 0.961 . S
C114 H116 0.961 . S
C114 H117 0.960 . S
H115 C114 0.961 . S
H116 C114 0.961 . S
H117 C114 0.960 . S
C118 N119 1.342 . S
C118 C122 1.401 . S
C118 C123 1.499 . S
N119 Co102 1.989 . S
N119 C118 1.342 . S
N119 N120 1.388 . S
N120 Co103 1.993 . S
N120 N119 1.388 . S
N120 C121 1.346 . S
C121 N120 1.346 . S
C121 C122 1.396 . S
C121 C131 1.510 . S
C122 C118 1.401 . S
C122 C121 1.396 . S
C123 C118 1.499 . S
C123 H124 0.959 . S
C123 H125 0.960 . S
C123 H126 0.961 . S
H124 C123 0.959 . S
H125 C123 0.960 . S
H126 C123 0.961 . S
O127 Co102 1.967 . S
O127 C135 1.258 . S
O128 Co103 1.941 . S
O128 C135 1.266 . S
H129 C131 0.959 1_545 S
H130 C131 0.961 . S
C131 C121 1.510 . S
C131 H129 0.959 1_565 S
C131 H130 0.961 . S
C131 H132 0.960 . S
H132 C131 0.960 . S
H133 N113 0.862 . S
O134 Co102 1.920 . S
O134 C107 1.289 . S
C135 O127 1.258 . S
C135 O128 1.266 . S
Co136 O139 1.970 . S
Co136 N153 1.989 . S
Co136 O161 1.967 . S
Co136 O168 1.920 . S
Co137 O140 1.966 . S
Co137 N146 2.022 . S
Co137 N154 1.993 . S
Co137 O162 1.941 . S
C138 O139 1.258 . S
C138 O140 1.263 . S
O139 Co136 1.970 . S
O139 C138 1.258 . S
O140 Co137 1.966 . S
O140 C138 1.263 . S
C141 O142 1.235 . S
C141 O168 1.289 . S
O142 C141 1.235 . S
C143 C145 1.400 . S
C143 N146 1.351 . S
C143 C148 1.501 . S
C144 C145 1.387 1_655 S
C144 N147 1.341 . S
C145 C143 1.400 . S
C145 C144 1.387 1_455 S
N146 Co137 2.022 . S
N146 C143 1.351 . S
N146 N147 1.365 1_455 S
N147 C144 1.341 . S
N147 N146 1.365 1_655 S
N147 H167 0.862 . S
C148 C143 1.501 . S
C148 H149 0.961 . S
C148 H150 0.961 . S
C148 H151 0.960 . S
H149 C148 0.961 . S
H150 C148 0.961 . S
H151 C148 0.960 . S
C152 N153 1.342 . S
C152 C156 1.401 . S
C152 C157 1.499 . S
N153 Co136 1.989 . S
N153 C152 1.342 . S
N153 N154 1.388 . S
N154 Co137 1.993 . S
N154 N153 1.388 . S
N154 C155 1.346 . S
C155 N154 1.346 . S
C155 C156 1.396 . S
C155 C165 1.510 . S
C156 C152 1.401 . S
C156 C155 1.396 . S
C157 C152 1.499 . S
C157 H158 0.959 . S
C157 H159 0.960 . S
C157 H160 0.961 . S
H158 C157 0.959 . S
H159 C157 0.960 . S
H160 C157 0.961 . S
O161 Co136 1.967 . S
O161 C169 1.258 . S
O162 Co137 1.941 . S
O162 C169 1.266 . S
H163 C165 0.959 1_655 S
H164 C165 0.961 . S
C165 C155 1.510 . S
C165 H163 0.959 1_455 S
C165 H164 0.961 . S
C165 H166 0.960 . S
H166 C165 0.960 . S
H167 N147 0.862 . S
O168 Co136 1.920 . S
O168 C141 1.289 . S
C169 O161 1.258 . S
C169 O162 1.266 . S
Co170 O173 1.970 . S
Co170 N187 1.989 . S
Co170 O195 1.967 . S
Co170 O202 1.920 . S
Co171 O174 1.966 . S
Co171 N180 2.022 . S
Co171 N188 1.993 . S
Co171 O196 1.941 . S
C172 O173 1.258 . S
C172 O174 1.263 . S
O173 Co170 1.970 . S
O173 C172 1.258 . S
O174 Co171 1.966 . S
O174 C172 1.263 . S
C175 O176 1.235 . S
C175 O202 1.289 . S
O176 C175 1.235 . S
C177 C179 1.400 . S
C177 N180 1.351 . S
C177 C182 1.501 . S
C178 C179 1.387 . S
C178 N181 1.341 . S
C179 C177 1.400 . S
C179 C178 1.387 . S
N180 Co171 2.022 . S
N180 C177 1.351 . S
N180 N181 1.365 . S
N181 C178 1.341 . S
N181 N180 1.365 . S
N181 H201 0.862 . S
C182 C177 1.501 . S
C182 H183 0.961 . S
C182 H184 0.961 . S
C182 H185 0.960 . S
H183 C182 0.961 . S
H184 C182 0.961 . S
H185 C182 0.960 . S
C186 N187 1.342 . S
C186 C190 1.401 . S
C186 C191 1.499 . S
N187 Co170 1.989 . S
N187 C186 1.342 . S
N187 N188 1.388 . S
N188 Co171 1.993 . S
N188 N187 1.388 . S
N188 C189 1.346 . S
C189 N188 1.346 . S
C189 C190 1.396 . S
C189 C199 1.510 . S
C190 C186 1.401 . S
C190 C189 1.396 . S
C191 C186 1.499 . S
C191 H192 0.959 . S
C191 H193 0.960 . S
C191 H194 0.961 . S
H192 C191 0.959 . S
H193 C191 0.960 . S
H194 C191 0.961 . S
O195 Co170 1.967 . S
O195 C203 1.258 . S
O196 Co171 1.941 . S
O196 C203 1.266 . S
H197 C199 0.959 . S
H198 C199 0.961 . S
C199 C189 1.510 . S
C199 H197 0.959 . S
C199 H198 0.961 . S
C199 H200 0.960 . S
H200 C199 0.960 . S
H201 N181 0.862 . S
O202 Co170 1.920 . S
O202 C175 1.289 . S
C203 O195 1.258 . S
C203 O196 1.266 . S
Co204 O207 1.970 . S
Co204 N221 1.989 . S
Co204 O229 1.967 . S
Co204 O236 1.920 . S
Co205 O208 1.966 . S
Co205 N214 2.022 . S
Co205 N222 1.993 . S
Co205 O230 1.941 . S
C206 O207 1.258 . S
C206 O208 1.263 . S
O207 Co204 1.970 . S
O207 C206 1.258 . S
O208 Co205 1.966 . S
O208 C206 1.263 . S
C209 O210 1.235 . S
C209 O236 1.289 . S
O210 C209 1.235 . S
C211 C213 1.400 . S
C211 N214 1.351 1_554 S
C211 C216 1.501 . S
C212 C213 1.387 1_455 S
C212 N215 1.341 . S
C213 C211 1.400 . S
C213 C212 1.387 1_655 S
N214 Co205 2.022 . S
N214 C211 1.351 1_556 S
N214 N215 1.365 1_656 S
N215 C212 1.341 . S
N215 N214 1.365 1_454 S
N215 H235 0.862 1_554 S
C216 C211 1.501 . S
C216 H217 0.961 1_554 S
C216 H218 0.961 . S
C216 H219 0.960 . S
H217 C216 0.961 1_556 S
H218 C216 0.961 . S
H219 C216 0.960 . S
C220 N221 1.342 . S
C220 C224 1.401 . S
C220 C225 1.499 . S
N221 Co204 1.989 . S
N221 C220 1.342 . S
N221 N222 1.388 . S
N222 Co205 1.993 . S
N222 N221 1.388 . S
N222 C223 1.346 . S
C223 N222 1.346 . S
C223 C224 1.396 . S
C223 C233 1.510 1_556 S
C224 C220 1.401 . S
C224 C223 1.396 . S
C225 C220 1.499 . S
C225 H226 0.959 . S
C225 H227 0.960 . S
C225 H228 0.961 . S
H226 C225 0.959 . S
H227 C225 0.960 . S
H228 C225 0.961 . S
O229 Co204 1.967 . S
O229 C237 1.258 . S
O230 Co205 1.941 . S
O230 C237 1.266 . S
H231 C233 0.959 1_455 S
H232 C233 0.961 . S
C233 C223 1.510 1_554 S
C233 H231 0.959 1_655 S
C233 H232 0.961 . S
C233 H234 0.960 . S
H234 C233 0.960 . S
H235 N215 0.862 1_556 S
O236 Co204 1.920 . S
O236 C209 1.289 . S
C237 O229 1.258 . S
C237 O230 1.266 . S
Co238 O241 1.970 . S
Co238 N255 1.989 . S
Co238 O263 1.967 . S
Co238 O270 1.920 . S
Co239 O242 1.966 . S
Co239 N248 2.022 . S
Co239 N256 1.993 . S
Co239 O264 1.941 . S
C240 O241 1.258 . S
C240 O242 1.263 . S
O241 Co238 1.970 . S
O241 C240 1.258 . S
O242 Co239 1.966 . S
O242 C240 1.263 . S
C243 O244 1.235 . S
C243 O270 1.289 . S
O244 C243 1.235 . S
C245 C247 1.400 . S
C245 N248 1.351 1_554 S
C245 C250 1.501 . S
C246 C247 1.387 . S
C246 N249 1.341 . S
C247 C245 1.400 . S
C247 C246 1.387 . S
N248 Co239 2.022 . S
N248 C245 1.351 1_556 S
N248 N249 1.365 1_556 S
N249 C246 1.341 . S
N249 N248 1.365 1_554 S
N249 H269 0.862 1_554 S
C250 C245 1.501 . S
C250 H251 0.961 1_554 S
C250 H252 0.961 . S
C250 H253 0.960 . S
H251 C250 0.961 1_556 S
H252 C250 0.961 . S
H253 C250 0.960 . S
C254 N255 1.342 . S
C254 C258 1.401 . S
C254 C259 1.499 . S
N255 Co238 1.989 . S
N255 C254 1.342 . S
N255 N256 1.388 . S
N256 Co239 1.993 . S
N256 N255 1.388 . S
N256 C257 1.346 . S
C257 N256 1.346 . S
C257 C258 1.396 . S
C257 C267 1.510 1_556 S
C258 C254 1.401 . S
C258 C257 1.396 . S
C259 C254 1.499 . S
C259 H260 0.959 . S
C259 H261 0.960 . S
C259 H262 0.961 . S
H260 C259 0.959 . S
H261 C259 0.960 . S
H262 C259 0.961 . S
O263 Co238 1.967 . S
O263 C271 1.258 . S
O264 Co239 1.941 . S
O264 C271 1.266 . S
H265 C267 0.959 . S
H266 C267 0.961 . S
C267 C257 1.510 1_554 S
C267 H265 0.959 . S
C267 H266 0.961 . S
C267 H268 0.960 . S
H268 C267 0.960 . S
H269 N249 0.862 1_556 S
O270 Co238 1.920 . S
O270 C243 1.289 . S
C271 O263 1.258 . S
C271 O264 1.266 . S
Co272 O275 1.970 . S
Co272 N289 1.989 . S
Co272 O297 1.967 . S
Co272 O304 1.920 . S
Co273 O276 1.966 . S
Co273 N282 2.022 . S
Co273 N290 1.993 . S
Co273 O298 1.941 . S
C274 O275 1.258 . S
C274 O276 1.263 . S
O275 Co272 1.970 . S
O275 C274 1.258 . S
O276 Co273 1.966 . S
O276 C274 1.263 . S
C277 O278 1.235 . S
C277 O304 1.289 . S
O278 C277 1.235 . S
C279 C281 1.400 . S
C279 N282 1.351 1_554 S
C279 C284 1.501 . S
C280 C281 1.387 1_565 S
C280 N283 1.341 . S
C281 C279 1.400 . S
C281 C280 1.387 1_545 S
N282 Co273 2.022 . S
N282 C279 1.351 1_556 S
N282 N283 1.365 1_546 S
N283 C280 1.341 . S
N283 N282 1.365 1_564 S
N283 H303 0.862 1_554 S
C284 C279 1.501 . S
C284 H285 0.961 1_554 S
C284 H286 0.961 . S
C284 H287 0.960 . S
H285 C284 0.961 1_556 S
H286 C284 0.961 . S
H287 C284 0.960 . S
C288 N289 1.342 . S
C288 C292 1.401 . S
C288 C293 1.499 . S
N289 Co272 1.989 . S
N289 C288 1.342 . S
N289 N290 1.388 . S
N290 Co273 1.993 . S
N290 N289 1.388 . S
N290 C291 1.346 . S
C291 N290 1.346 . S
C291 C292 1.396 . S
C291 C301 1.510 1_556 S
C292 C288 1.401 . S
C292 C291 1.396 . S
C293 C288 1.499 . S
C293 H294 0.959 . S
C293 H295 0.960 . S
C293 H296 0.961 . S
H294 C293 0.959 . S
H295 C293 0.960 . S
H296 C293 0.961 . S
O297 Co272 1.967 . S
O297 C305 1.258 . S
O298 Co273 1.941 . S
O298 C305 1.266 . S
H299 C301 0.959 1_565 S
H300 C301 0.961 . S
C301 C291 1.510 1_554 S
C301 H299 0.959 1_545 S
C301 H300 0.961 . S
C301 H302 0.960 . S
H302 C301 0.960 . S
H303 N283 0.862 1_556 S
O304 Co272 1.920 . S
O304 C277 1.289 . S
C305 O297 1.258 . S
C305 O298 1.266 . S
Co306 O309 1.970 . S
Co306 N323 1.989 . S
Co306 O331 1.967 . S
Co306 O338 1.920 . S
Co307 O310 1.966 . S
Co307 N316 2.022 . S
Co307 N324 1.993 . S
Co307 O332 1.941 . S
C308 O309 1.258 . S
C308 O310 1.263 . S
O309 Co306 1.970 . S
O309 C308 1.258 . S
O310 Co307 1.966 . S
O310 C308 1.263 . S
C311 O312 1.235 . S
C311 O338 1.289 . S
O312 C311 1.235 . S
C313 C315 1.400 . S
C313 N316 1.351 . S
C313 C318 1.501 . S
C314 C315 1.387 1_565 S
C314 N317 1.341 . S
C315 C313 1.400 . S
C315 C314 1.387 1_545 S
N316 Co307 2.022 . S
N316 C313 1.351 . S
N316 N317 1.365 1_545 S
N317 C314 1.341 . S
N317 N316 1.365 1_565 S
N317 H337 0.862 . S
C318 C313 1.501 . S
C318 H319 0.961 . S
C318 H320 0.961 . S
C318 H321 0.960 . S
H319 C318 0.961 . S
H320 C318 0.961 . S
H321 C318 0.960 . S
C322 N323 1.342 . S
C322 C326 1.401 . S
C322 C327 1.499 . S
N323 Co306 1.989 . S
N323 C322 1.342 . S
N323 N324 1.388 . S
N324 Co307 1.993 . S
N324 N323 1.388 . S
N324 C325 1.346 . S
C325 N324 1.346 . S
C325 C326 1.396 . S
C325 C335 1.510 . S
C326 C322 1.401 . S
C326 C325 1.396 . S
C327 C322 1.499 . S
C327 H328 0.959 . S
C327 H329 0.960 . S
C327 H330 0.961 . S
H328 C327 0.959 . S
H329 C327 0.960 . S
H330 C327 0.961 . S
O331 Co306 1.967 . S
O331 C339 1.258 . S
O332 Co307 1.941 . S
O332 C339 1.266 . S
H333 C335 0.959 1_565 S
H334 C335 0.961 . S
C335 C325 1.510 . S
C335 H333 0.959 1_545 S
C335 H334 0.961 . S
C335 H336 0.960 . S
H336 C335 0.960 . S
H337 N317 0.862 . S
O338 Co306 1.920 . S
O338 C311 1.289 . S
C339 O331 1.258 . S
C339 O332 1.266 . S
Co340 O343 1.970 . S
Co340 N357 1.989 . S
Co340 O365 1.967 . S
Co340 O372 1.920 . S
Co341 O344 1.966 . S
Co341 N350 2.022 . S
Co341 N358 1.993 . S
Co341 O366 1.941 . S
C342 O343 1.258 . S
C342 O344 1.263 . S
O343 Co340 1.970 . S
O343 C342 1.258 . S
O344 Co341 1.966 . S
O344 C342 1.263 . S
C345 O346 1.235 . S
C345 O372 1.289 . S
O346 C345 1.235 . S
C347 C349 1.400 . S
C347 N350 1.351 . S
C347 C352 1.501 . S
C348 C349 1.387 1_455 S
C348 N351 1.341 . S
C349 C347 1.400 . S
C349 C348 1.387 1_655 S
N350 Co341 2.022 . S
N350 C347 1.351 . S
N350 N351 1.365 1_655 S
N351 C348 1.341 . S
N351 N350 1.365 1_455 S
N351 H371 0.862 . S
C352 C347 1.501 . S
C352 H353 0.961 . S
C352 H354 0.961 . S
C352 H355 0.960 . S
H353 C352 0.961 . S
H354 C352 0.961 . S
H355 C352 0.960 . S
C356 N357 1.342 . S
C356 C360 1.401 . S
C356 C361 1.499 . S
N357 Co340 1.989 . S
N357 C356 1.342 . S
N357 N358 1.388 . S
N358 Co341 1.993 . S
N358 N357 1.388 . S
N358 C359 1.346 . S
C359 N358 1.346 . S
C359 C360 1.396 . S
C359 C369 1.510 . S
C360 C356 1.401 . S
C360 C359 1.396 . S
C361 C356 1.499 . S
C361 H362 0.959 . S
C361 H363 0.960 . S
C361 H364 0.961 . S
H362 C361 0.959 . S
H363 C361 0.960 . S
H364 C361 0.961 . S
O365 Co340 1.967 . S
O365 C373 1.258 . S
O366 Co341 1.941 . S
O366 C373 1.266 . S
H367 C369 0.959 1_455 S
H368 C369 0.961 . S
C369 C359 1.510 . S
C369 H367 0.959 1_655 S
C369 H368 0.961 . S
C369 H370 0.960 . S
H370 C369 0.960 . S
H371 N351 0.862 . S
O372 Co340 1.920 . S
O372 C345 1.289 . S
C373 O365 1.258 . S
C373 O366 1.266 . S
Co374 O377 1.970 . S
Co374 N391 1.989 . S
Co374 O399 1.967 . S
Co374 O406 1.920 . S
Co375 O378 1.966 . S
Co375 N384 2.022 . S
Co375 N392 1.993 . S
Co375 O400 1.941 . S
C376 O377 1.258 . S
C376 O378 1.263 . S
O377 Co374 1.970 . S
O377 C376 1.258 . S
O378 Co375 1.966 . S
O378 C376 1.263 . S
C379 O380 1.235 . S
C379 O406 1.289 . S
O380 C379 1.235 . S
C381 C383 1.400 . S
C381 N384 1.351 . S
C381 C386 1.501 . S
C382 C383 1.387 . S
C382 N385 1.341 . S
C383 C381 1.400 . S
C383 C382 1.387 . S
N384 Co375 2.022 . S
N384 C381 1.351 . S
N384 N385 1.365 . S
N385 C382 1.341 . S
N385 N384 1.365 . S
N385 H405 0.862 . S
C386 C381 1.501 . S
C386 H387 0.961 . S
C386 H388 0.961 . S
C386 H389 0.960 . S
H387 C386 0.961 . S
H388 C386 0.961 . S
H389 C386 0.960 . S
C390 N391 1.342 . S
C390 C394 1.401 . S
C390 C395 1.499 . S
N391 Co374 1.989 . S
N391 C390 1.342 . S
N391 N392 1.388 . S
N392 Co375 1.993 . S
N392 N391 1.388 . S
N392 C393 1.346 . S
C393 N392 1.346 . S
C393 C394 1.396 . S
C393 C403 1.510 . S
C394 C390 1.401 . S
C394 C393 1.396 . S
C395 C390 1.499 . S
C395 H396 0.959 . S
C395 H397 0.960 . S
C395 H398 0.961 . S
H396 C395 0.959 . S
H397 C395 0.960 . S
H398 C395 0.961 . S
O399 Co374 1.967 . S
O399 C407 1.258 . S
O400 Co375 1.941 . S
O400 C407 1.266 . S
H401 C403 0.959 . S
H402 C403 0.961 . S
C403 C393 1.510 . S
C403 H401 0.959 . S
C403 H402 0.961 . S
C403 H404 0.960 . S
H404 C403 0.960 . S
H405 N385 0.862 . S
O406 Co374 1.920 . S
O406 C379 1.289 . S
C407 O399 1.258 . S
C407 O400 1.266 . S
C408 C409 1.363 1_655 S
C408 C414 1.379 . S
C408 N416 1.356 . S
C409 C408 1.363 1_455 S
C409 C415 1.363 . S
C410 C411 1.363 . S
C410 C415 1.379 . S
C410 N417 1.356 . S
C411 C410 1.363 . S
C411 C414 1.363 1_455 S
N412 C414 1.356 . S
N412 H424 0.984 . S
N412 H425 0.985 . S
N413 C415 1.356 . S
N413 H418 0.984 . S
N413 H419 0.985 . S
C414 C408 1.379 . S
C414 C411 1.363 1_655 S
C414 N412 1.356 . S
C415 C409 1.363 . S
C415 C410 1.379 . S
C415 N413 1.356 . S
N416 C408 1.356 . S
N416 H422 0.984 . S
N416 H423 0.984 . S
N417 C410 1.356 . S
N417 H420 0.984 . S
N417 H421 0.985 . S
H418 N413 0.984 . S
H419 N413 0.985 . S
H420 N417 0.984 . S
H421 N417 0.985 . S
H422 N416 0.984 . S
H423 N416 0.984 . S
H424 N412 0.984 . S
H425 N412 0.985 . S
C426 C427 1.363 . S
C426 C432 1.379 . S
C426 N434 1.356 . S
C427 C426 1.363 . S
C427 C433 1.363 . S
C428 C429 1.363 . S
C428 C433 1.379 . S
C428 N435 1.356 . S
C429 C428 1.363 . S
C429 C432 1.363 . S
N430 C432 1.356 . S
N430 H442 0.984 . S
N430 H443 0.985 . S
N431 C433 1.356 . S
N431 H436 0.984 . S
N431 H437 0.985 . S
C432 C426 1.379 . S
C432 C429 1.363 . S
C432 N430 1.356 . S
C433 C427 1.363 . S
C433 C428 1.379 . S
C433 N431 1.356 . S
N434 C426 1.356 . S
N434 H440 0.984 . S
N434 H441 0.984 . S
N435 C428 1.356 . S
N435 H438 0.984 . S
N435 H439 0.985 . S
H436 N431 0.984 . S
H437 N431 0.985 . S
H438 N435 0.984 . S
H439 N435 0.985 . S
H440 N434 0.984 . S
H441 N434 0.984 . S
H442 N430 0.984 . S
H443 N430 0.985 . S
C444 C445 1.363 . S
C444 C450 1.379 . S
C444 N452 1.356 . S
C445 C444 1.363 . S
C445 C451 1.363 1_565 S
C446 C447 1.363 1_545 S
C446 C451 1.379 . S
C446 N453 1.356 . S
C447 C446 1.363 1_565 S
C447 C450 1.363 . S
N448 C450 1.356 . S
N448 H460 0.984 . S
N448 H461 0.985 . S
N449 C451 1.356 . S
N449 H454 0.984 . S
N449 H455 0.985 . S
C450 C444 1.379 . S
C450 C447 1.363 . S
C450 N448 1.356 . S
C451 C445 1.363 1_545 S
C451 C446 1.379 . S
C451 N449 1.356 . S
N452 C444 1.356 . S
N452 H458 0.984 . S
N452 H459 0.984 . S
N453 C446 1.356 . S
N453 H456 0.984 . S
N453 H457 0.985 . S
H454 N449 0.984 . S
H455 N449 0.985 . S
H456 N453 0.984 . S
H457 N453 0.985 . S
H458 N452 0.984 . S
H459 N452 0.984 . S
H460 N448 0.984 . S
H461 N448 0.985 . S
C462 C463 1.363 . S
C462 C468 1.379 . S
C462 N470 1.356 . S
C463 C462 1.363 . S
C463 C469 1.363 1_565 S
C464 C465 1.363 1_545 S
C464 C469 1.379 . S
C464 N471 1.356 . S
C465 C464 1.363 1_565 S
C465 C468 1.363 . S
N466 C468 1.356 . S
N466 H478 0.984 . S
N466 H479 0.985 . S
N467 C469 1.356 . S
N467 H472 0.984 . S
N467 H473 0.985 . S
C468 C462 1.379 . S
C468 C465 1.363 . S
C468 N466 1.356 . S
C469 C463 1.363 1_545 S
C469 C464 1.379 . S
C469 N467 1.356 . S
N470 C462 1.356 . S
N470 H476 0.984 . S
N470 H477 0.984 . S
N471 C464 1.356 . S
N471 H474 0.984 . S
N471 H475 0.985 . S
H472 N467 0.984 . S
H473 N467 0.985 . S
H474 N471 0.984 . S
H475 N471 0.985 . S
H476 N470 0.984 . S
H477 N470 0.984 . S
H478 N466 0.984 . S
H479 N466 0.985 . S
C480 C481 1.363 . S
C480 C486 1.379 . S
C480 N488 1.356 . S
C481 C480 1.363 . S
C481 C487 1.363 1_455 S
C482 C483 1.363 1_655 S
C482 C487 1.379 . S
C482 N489 1.356 . S
C483 C482 1.363 1_455 S
C483 C486 1.363 . S
N484 C486 1.356 . S
N484 H496 0.984 . S
N484 H497 0.985 . S
N485 C487 1.356 . S
N485 H490 0.984 . S
N485 H491 0.985 . S
C486 C480 1.379 . S
C486 C483 1.363 . S
C486 N484 1.356 . S
C487 C481 1.363 1_655 S
C487 C482 1.379 . S
C487 N485 1.356 . S
N488 C480 1.356 . S
N488 H494 0.984 . S
N488 H495 0.984 . S
N489 C482 1.356 . S
N489 H492 0.984 . S
N489 H493 0.985 . S
H490 N485 0.984 . S
H491 N485 0.985 . S
H492 N489 0.984 . S
H493 N489 0.985 . S
H494 N488 0.984 . S
H495 N488 0.984 . S
H496 N484 0.984 . S
H497 N484 0.985 . S
C498 C499 1.363 . S
C498 C504 1.379 . S
C498 N506 1.356 . S
C499 C498 1.363 . S
C499 C505 1.363 . S
C500 C501 1.363 . S
C500 C505 1.379 . S
C500 N507 1.356 . S
C501 C500 1.363 . S
C501 C504 1.363 . S
N502 C504 1.356 . S
N502 H514 0.984 . S
N502 H515 0.985 . S
N503 C505 1.356 . S
N503 H508 0.984 . S
N503 H509 0.985 . S
C504 C498 1.379 . S
C504 C501 1.363 . S
C504 N502 1.356 . S
C505 C499 1.363 . S
C505 C500 1.379 . S
C505 N503 1.356 . S
N506 C498 1.356 . S
N506 H512 0.984 . S
N506 H513 0.984 . S
N507 C500 1.356 . S
N507 H510 0.984 . S
N507 H511 0.985 . S
H508 N503 0.984 . S
H509 N503 0.985 . S
H510 N507 0.984 . S
H511 N507 0.985 . S
H512 N506 0.984 . S
H513 N506 0.984 . S
H514 N502 0.984 . S
H515 N502 0.985 . S
C516 C517 1.363 . S
C516 C522 1.379 . S
C516 N524 1.356 . S
C517 C516 1.363 . S
C517 C523 1.363 . S
C518 C519 1.363 . S
C518 C523 1.379 . S
C518 N525 1.356 . S
C519 C518 1.363 . S
C519 C522 1.363 . S
N520 C522 1.356 . S
N520 H532 0.984 . S
N520 H533 0.985 . S
N521 C523 1.356 1_455 S
N521 H526 0.984 . S
N521 H527 0.985 . S
C522 C516 1.379 . S
C522 C519 1.363 . S
C522 N520 1.356 . S
C523 C517 1.363 . S
C523 C518 1.379 . S
C523 N521 1.356 1_655 S
N524 C516 1.356 . S
N524 H530 0.984 . S
N524 H531 0.987 . S
N525 C518 1.356 . S
N525 H528 0.984 . S
N525 H529 0.985 . S
H526 N521 0.984 . S
H527 N521 0.985 . S
H528 N525 0.984 . S
H529 N525 0.985 . S
H530 N524 0.984 . S
H531 N524 0.987 . S
H532 N520 0.984 . S
H533 N520 0.985 . S
C534 C535 1.363 . S
C534 C540 1.379 . S
C534 N542 1.356 . S
C535 C534 1.363 . S
C535 C541 1.363 . S
C536 C537 1.363 . S
C536 C541 1.379 . S
C536 N543 1.356 . S
C537 C536 1.363 . S
C537 C540 1.363 . S
N538 C540 1.356 . S
N538 H550 0.984 . S
N538 H551 0.985 . S
N539 C541 1.356 . S
N539 H544 0.984 . S
N539 H545 0.985 . S
C540 C534 1.379 . S
C540 C537 1.363 . S
C540 N538 1.356 . S
C541 C535 1.363 . S
C541 C536 1.379 . S
C541 N539 1.356 . S
N542 C534 1.356 . S
N542 H548 0.984 . S
N542 H549 0.984 . S
N543 C536 1.356 . S
N543 H546 0.984 . S
N543 H547 0.985 . S
H544 N539 0.984 . S
H545 N539 0.985 . S
H546 N543 0.984 . S
H547 N543 0.985 . S
H548 N542 0.984 . S
H549 N542 0.984 . S
H550 N538 0.984 . S
H551 N538 0.985 . S
C552 C553 1.363 . S
C552 C558 1.379 . S
C552 N560 1.356 . S
C553 C552 1.363 . S
C553 C559 1.363 1_545 S
C554 C555 1.363 1_565 S
C554 C559 1.379 . S
C554 N561 1.356 . S
C555 C554 1.363 1_545 S
C555 C558 1.363 . S
N556 C558 1.356 . S
N556 H568 0.984 . S
N556 H569 0.985 . S
N557 C559 1.356 . S
N557 H562 0.984 . S
N557 H563 0.985 . S
C558 C552 1.379 . S
C558 C555 1.363 . S
C558 N556 1.356 . S
C559 C553 1.363 1_565 S
C559 C554 1.379 . S
C559 N557 1.356 . S
N560 C552 1.356 . S
N560 H566 0.984 . S
N560 H567 0.984 . S
N561 C554 1.356 . S
N561 H564 0.984 . S
N561 H565 0.985 . S
H562 N557 0.984 . S
H563 N557 0.985 . S
H564 N561 0.984 . S
H565 N561 0.985 . S
H566 N560 0.984 . S
H567 N560 0.984 . S
H568 N556 0.984 . S
H569 N556 0.985 . S
C570 C571 1.363 . S
C570 C576 1.379 . S
C570 N578 1.356 . S
C571 C570 1.363 . S
C571 C577 1.363 1_545 S
C572 C573 1.363 1_565 S
C572 C577 1.379 . S
C572 N579 1.356 . S
C573 C572 1.363 1_545 S
C573 C576 1.363 . S
N574 C576 1.356 . S
N574 H586 0.984 . S
N574 H587 0.985 . S
N575 C577 1.356 . S
N575 H580 0.984 . S
N575 H581 0.985 . S
C576 C570 1.379 . S
C576 C573 1.363 . S
C576 N574 1.356 . S
C577 C571 1.363 1_565 S
C577 C572 1.379 . S
C577 N575 1.356 . S
N578 C570 1.356 . S
N578 H584 0.984 . S
N578 H585 0.984 . S
N579 C572 1.356 . S
N579 H582 0.984 . S
N579 H583 0.985 . S
H580 N575 0.984 . S
H581 N575 0.985 . S
H582 N579 0.984 . S
H583 N579 0.985 . S
H584 N578 0.984 . S
H585 N578 0.984 . S
H586 N574 0.984 . S
H587 N574 0.985 . S
C588 C589 1.363 . S
C588 C594 1.379 . S
C588 N596 1.356 . S
C589 C588 1.363 . S
C589 C595 1.363 . S
C590 C591 1.363 . S
C590 C595 1.379 . S
C590 N597 1.356 1_655 S
C591 C590 1.363 . S
C591 C594 1.363 . S
N592 C594 1.356 . S
N592 H604 0.984 . S
N592 H605 0.985 1_655 S
N593 C595 1.356 . S
N593 H598 0.984 . S
N593 H599 0.985 . S
C594 C588 1.379 . S
C594 C591 1.363 . S
C594 N592 1.356 . S
C595 C589 1.363 . S
C595 C590 1.379 . S
C595 N593 1.356 . S
N596 C588 1.356 . S
N596 H602 0.984 . S
N596 H603 0.984 . S
N597 C590 1.356 1_455 S
N597 H600 0.984 . S
N597 H601 0.985 . S
H598 N593 0.984 . S
H599 N593 0.985 . S
H600 N597 0.984 . S
H601 N597 0.985 . S
H602 N596 0.984 . S
H603 N596 0.984 . S
H604 N592 0.984 . S
H605 N592 0.985 1_455 S
C606 C607 1.363 . S
C606 C612 1.379 . S
C606 N614 1.356 . S
C607 C606 1.363 . S
C607 C613 1.363 . S
C608 C609 1.363 . S
C608 C613 1.379 . S
C608 N615 1.356 . S
C609 C608 1.363 . S
C609 C612 1.363 . S
N610 C612 1.356 . S
N610 H622 0.984 . S
N610 H623 0.985 . S
N611 C613 1.356 . S
N611 H616 0.984 . S
N611 H617 0.985 . S
C612 C606 1.379 . S
C612 C609 1.363 . S
C612 N610 1.356 . S
C613 C607 1.363 . S
C613 C608 1.379 . S
C613 N611 1.356 . S
N614 C606 1.356 . S
N614 H620 0.984 . S
N614 H621 0.984 . S
N615 C608 1.356 . S
N615 H618 0.984 . S
N615 H619 0.985 . S
H616 N611 0.984 . S
H617 N611 0.985 . S
H618 N615 0.984 . S
H619 N615 0.985 . S
H620 N614 0.984 . S
H621 N614 0.984 . S
H622 N610 0.984 . S
H623 N610 0.985 . S
C624 C625 1.363 1_454 S
C624 C630 1.379 . S
C624 N632 1.356 . S
C625 C624 1.363 1_656 S
C625 C631 1.363 . S
C626 C627 1.363 1_656 S
C626 C631 1.379 . S
C626 N633 1.356 . S
C627 C626 1.363 1_454 S
C627 C630 1.363 . S
N628 C630 1.356 . S
N628 H640 0.984 . S
N628 H641 0.985 . S
N629 C631 1.356 . S
N629 H634 0.984 . S
N629 H635 0.985 . S
C630 C624 1.379 . S
C630 C627 1.363 . S
C630 N628 1.356 . S
C631 C625 1.363 . S
C631 C626 1.379 . S
C631 N629 1.356 . S
N632 C624 1.356 . S
N632 H638 0.984 . S
N632 H639 0.984 . S
N633 C626 1.356 . S
N633 H636 0.984 . S
N633 H637 0.985 . S
H634 N629 0.984 . S
H635 N629 0.985 . S
H636 N633 0.984 . S
H637 N633 0.985 . S
H638 N632 0.984 . S
H639 N632 0.984 . S
H640 N628 0.984 . S
H641 N628 0.985 . S
C642 C643 1.363 1_556 S
C642 C648 1.379 . S
C642 N650 1.356 . S
C643 C642 1.363 1_554 S
C643 C649 1.363 . S
C644 C645 1.363 1_554 S
C644 C649 1.379 . S
C644 N651 1.356 . S
C645 C644 1.363 1_556 S
C645 C648 1.363 . S
N646 C648 1.356 . S
N646 H658 0.984 . S
N646 H659 0.985 . S
N647 C649 1.356 . S
N647 H652 0.984 . S
N647 H653 0.985 . S
C648 C642 1.379 . S
C648 C645 1.363 . S
C648 N646 1.356 . S
C649 C643 1.363 . S
C649 C644 1.379 . S
C649 N647 1.356 . S
N650 C642 1.356 . S
N650 H656 0.984 . S
N650 H657 0.984 . S
N651 C644 1.356 . S
N651 H654 0.984 . S
N651 H655 0.985 . S
H652 N647 0.984 . S
H653 N647 0.985 . S
H654 N651 0.984 . S
H655 N651 0.985 . S
H656 N650 0.984 . S
H657 N650 0.984 . S
H658 N646 0.984 . S
H659 N646 0.985 . S
C660 C661 1.363 1_564 S
C660 C666 1.379 . S
C660 N668 1.356 . S
C661 C660 1.363 1_546 S
C661 C667 1.363 . S
C662 C663 1.363 1_546 S
C662 C667 1.379 . S
C662 N669 1.356 . S
C663 C662 1.363 1_564 S
C663 C666 1.363 . S
N664 C666 1.356 . S
N664 H676 0.984 . S
N664 H677 0.985 . S
N665 C667 1.356 . S
N665 H670 0.984 . S
N665 H671 0.985 . S
C666 C660 1.379 . S
C666 C663 1.363 . S
C666 N664 1.356 . S
C667 C661 1.363 . S
C667 C662 1.379 . S
C667 N665 1.356 . S
N668 C660 1.356 . S
N668 H674 0.984 . S
N668 H675 0.984 1_565 S
N669 C662 1.356 . S
N669 H672 0.984 1_545 S
N669 H673 0.985 . S
H670 N665 0.984 . S
H671 N665 0.985 . S
H672 N669 0.984 1_565 S
H673 N669 0.985 . S
H674 N668 0.984 . S
H675 N668 0.984 1_545 S
H676 N664 0.984 . S
H677 N664 0.985 . S
C678 C679 1.363 . S
C678 C684 1.379 . S
C678 N686 1.356 . S
C679 C678 1.363 . S
C679 C685 1.363 1_565 S
C680 C681 1.363 . S
C680 C685 1.379 . S
C680 N687 1.356 . S
C681 C680 1.363 . S
C681 C684 1.363 1_545 S
N682 C684 1.356 . S
N682 H694 0.984 . S
N682 H695 0.985 . S
N683 C685 1.356 . S
N683 H688 0.984 . S
N683 H689 0.985 . S
C684 C678 1.379 . S
C684 C681 1.363 1_565 S
C684 N682 1.356 . S
C685 C679 1.363 1_545 S
C685 C680 1.379 . S
C685 N683 1.356 . S
N686 C678 1.356 . S
N686 H692 0.984 . S
N686 H693 0.984 . S
N687 C680 1.356 . S
N687 H690 0.984 . S
N687 H691 0.985 . S
H688 N683 0.984 . S
H689 N683 0.985 . S
H690 N687 0.984 . S
H691 N687 0.985 . S
H692 N686 0.984 . S
H693 N686 0.984 . S
H694 N682 0.984 . S
H695 N682 0.985 . S
C696 C697 1.363 1_655 S
C696 C702 1.379 . S
C696 N704 1.356 . S
C697 C696 1.363 1_455 S
C697 C703 1.363 . S
C698 C699 1.363 1_455 S
C698 C703 1.379 . S
C698 N705 1.356 . S
C699 C698 1.363 1_655 S
C699 C702 1.363 . S
N700 C702 1.356 . S
N700 H712 0.984 . S
N700 H713 0.985 . S
N701 C703 1.356 . S
N701 H706 0.984 . S
N701 H707 0.985 . S
C702 C696 1.379 . S
C702 C699 1.363 . S
C702 N700 1.356 . S
C703 C697 1.363 . S
C703 C698 1.379 . S
C703 N701 1.356 . S
N704 C696 1.356 . S
N704 H710 0.984 . S
N704 H711 0.984 . S
N705 C698 1.356 . S
N705 H708 0.984 . S
N705 H709 0.985 . S
H706 N701 0.984 . S
H707 N701 0.985 . S
H708 N705 0.984 . S
H709 N705 0.985 . S
H710 N704 0.984 . S
H711 N704 0.984 . S
H712 N700 0.984 . S
H713 N700 0.985 . S
C714 C715 1.363 . S
C714 C720 1.379 . S
C714 N722 1.356 . S
C715 C714 1.363 . S
C715 C721 1.363 . S
C716 C717 1.363 . S
C716 C721 1.379 . S
C716 N723 1.356 . S
C717 C716 1.363 . S
C717 C720 1.363 . S
N718 C720 1.356 . S
N718 H730 0.984 . S
N718 H731 0.985 . S
N719 C721 1.356 . S
N719 H724 0.984 . S
N719 H725 0.985 . S
C720 C714 1.379 . S
C720 C717 1.363 . S
C720 N718 1.356 . S
C721 C715 1.363 . S
C721 C716 1.379 . S
C721 N719 1.356 . S
N722 C714 1.356 . S
N722 H728 0.984 . S
N722 H729 0.984 . S
N723 C716 1.356 . S
N723 H726 0.984 . S
N723 H727 0.985 . S
H724 N719 0.984 . S
H725 N719 0.985 . S
H726 N723 0.984 . S
H727 N723 0.985 . S
H728 N722 0.984 . S
H729 N722 0.984 . S
H730 N718 0.984 . S
H731 N718 0.985 . S
C732 C733 1.363 . S
C732 C738 1.379 . S
C732 N740 1.356 . S
C733 C732 1.363 . S
C733 C739 1.363 . S
C734 C735 1.363 . S
C734 C739 1.379 . S
C734 N741 1.356 . S
C735 C734 1.363 . S
C735 C738 1.363 . S
N736 C738 1.356 . S
N736 H748 0.984 . S
N736 H749 0.985 . S
N737 C739 1.356 . S
N737 H742 0.984 . S
N737 H743 0.985 . S
C738 C732 1.379 . S
C738 C735 1.363 . S
C738 N736 1.356 . S
C739 C733 1.363 . S
C739 C734 1.379 . S
C739 N737 1.356 . S
N740 C732 1.356 . S
N740 H746 0.984 . S
N740 H747 0.984 . S
N741 C734 1.356 . S
N741 H744 0.984 . S
N741 H745 0.985 . S
H742 N737 0.984 . S
H743 N737 0.985 . S
H744 N741 0.984 . S
H745 N741 0.985 . S
H746 N740 0.984 . S
H747 N740 0.984 . S
H748 N736 0.984 . S
H749 N736 0.985 . S
C750 C751 1.363 . S
C750 C756 1.379 . S
C750 N758 1.356 . S
C751 C750 1.363 . S
C751 C757 1.363 . S
C752 C753 1.363 . S
C752 C757 1.379 . S
C752 N759 1.356 . S
C753 C752 1.363 . S
C753 C756 1.363 . S
N754 C756 1.356 . S
N754 H766 0.984 . S
N754 H767 0.985 . S
N755 C757 1.356 . S
N755 H760 0.984 . S
N755 H761 0.985 . S
C756 C750 1.379 . S
C756 C753 1.363 . S
C756 N754 1.356 . S
C757 C751 1.363 . S
C757 C752 1.379 . S
C757 N755 1.356 . S
N758 C750 1.356 . S
N758 H764 0.984 . S
N758 H765 0.984 . S
N759 C752 1.356 . S
N759 H762 0.984 . S
N759 H763 0.985 . S
H760 N755 0.984 . S
H761 N755 0.985 . S
H762 N759 0.984 . S
H763 N759 0.985 . S
H764 N758 0.984 . S
H765 N758 0.984 . S
H766 N754 0.984 . S
H767 N754 0.985 . S
C768 C769 1.363 . S
C768 C774 1.379 . S
C768 N776 1.356 . S
C769 C768 1.363 . S
C769 C775 1.363 . S
C770 C771 1.363 . S
C770 C775 1.379 . S
C770 N777 1.356 . S
C771 C770 1.363 . S
C771 C774 1.363 . S
N772 C774 1.356 . S
N772 H784 0.984 . S
N772 H785 0.985 . S
N773 C775 1.356 . S
N773 H778 0.984 . S
N773 H779 0.985 . S
C774 C768 1.379 . S
C774 C771 1.363 . S
C774 N772 1.356 . S
C775 C769 1.363 . S
C775 C770 1.379 . S
C775 N773 1.356 . S
N776 C768 1.356 . S
N776 H782 0.984 . S
N776 H783 0.984 . S
N777 C770 1.356 . S
N777 H780 0.984 . S
N777 H781 0.985 . S
H778 N773 0.984 . S
H779 N773 0.985 . S
H780 N777 0.984 . S
H781 N777 0.985 . S
H782 N776 0.984 . S
H783 N776 0.984 . S
H784 N772 0.984 . S
H785 N772 0.985 . S
C786 C787 1.363 . S
C786 C792 1.379 . S
C786 N794 1.356 . S
C787 C786 1.363 . S
C787 C793 1.363 . S
C788 C789 1.363 . S
C788 C793 1.379 . S
C788 N795 1.356 . S
C789 C788 1.363 . S
C789 C792 1.363 . S
N790 C792 1.356 . S
N790 H802 0.984 . S
N790 H803 0.985 . S
N791 C793 1.356 . S
N791 H796 0.984 . S
N791 H797 0.985 . S
C792 C786 1.379 . S
C792 C789 1.363 . S
C792 N790 1.356 . S
C793 C787 1.363 . S
C793 C788 1.379 . S
C793 N791 1.356 . S
N794 C786 1.356 . S
N794 H800 0.984 . S
N794 H801 0.984 . S
N795 C788 1.356 . S
N795 H798 0.984 . S
N795 H799 0.985 . S
H796 N791 0.984 . S
H797 N791 0.985 . S
H798 N795 0.984 . S
H799 N795 0.985 . S
H800 N794 0.984 . S
H801 N794 0.984 . S
H802 N790 0.984 . S
H803 N790 0.985 . S
C804 C805 1.363 . S
C804 C810 1.379 . S
C804 N812 1.356 . S
C805 C804 1.363 . S
C805 C811 1.363 . S
C806 C807 1.363 . S
C806 C811 1.379 . S
C806 N813 1.356 . S
C807 C806 1.363 . S
C807 C810 1.363 . S
N808 C810 1.356 . S
N808 H820 0.984 . S
N808 H821 0.985 . S
N809 C811 1.356 . S
N809 H814 0.984 . S
N809 H815 0.985 . S
C810 C804 1.379 . S
C810 C807 1.363 . S
C810 N808 1.356 . S
C811 C805 1.363 . S
C811 C806 1.379 . S
C811 N809 1.356 . S
N812 C804 1.356 . S
N812 H818 0.984 . S
N812 H819 0.984 . S
N813 C806 1.356 . S
N813 H816 0.984 . S
N813 H817 0.985 . S
H814 N809 0.984 . S
H815 N809 0.985 . S
H816 N813 0.984 . S
H817 N813 0.985 . S
H818 N812 0.984 . S
H819 N812 0.984 . S
H820 N808 0.984 . S
H821 N808 0.985 . S
C822 C823 1.363 . S
C822 C828 1.379 . S
C822 N830 1.356 . S
C823 C822 1.363 . S
C823 C829 1.363 . S
C824 C825 1.363 . S
C824 C829 1.379 . S
C824 N831 1.356 . S
C825 C824 1.363 . S
C825 C828 1.363 . S
N826 C828 1.356 . S
N826 H838 0.984 . S
N826 H839 0.985 . S
N827 C829 1.356 . S
N827 H832 0.984 . S
N827 H833 0.985 . S
C828 C822 1.379 . S
C828 C825 1.363 . S
C828 N826 1.356 . S
C829 C823 1.363 . S
C829 C824 1.379 . S
C829 N827 1.356 . S
N830 C822 1.356 . S
N830 H836 0.984 . S
N830 H837 0.984 . S
N831 C824 1.356 . S
N831 H834 0.984 . S
N831 H835 0.985 . S
H832 N827 0.984 . S
H833 N827 0.985 . S
H834 N831 0.984 . S
H835 N831 0.985 . S
H836 N830 0.984 . S
H837 N830 0.984 . S
H838 N826 0.984 . S
H839 N826 0.985 . S
C840 C841 1.363 . S
C840 C846 1.379 . S
C840 N848 1.356 . S
C841 C840 1.363 . S
C841 C847 1.363 . S
C842 C843 1.363 . S
C842 C847 1.379 . S
C842 N849 1.356 . S
C843 C842 1.363 . S
C843 C846 1.363 . S
N844 C846 1.356 . S
N844 H856 0.984 . S
N844 H857 0.985 . S
N845 C847 1.356 . S
N845 H850 0.984 . S
N845 H851 0.985 . S
C846 C840 1.379 . S
C846 C843 1.363 . S
C846 N844 1.356 . S
C847 C841 1.363 . S
C847 C842 1.379 . S
C847 N845 1.356 . S
N848 C840 1.356 . S
N848 H854 0.984 . S
N848 H855 0.984 . S
N849 C842 1.356 . S
N849 H852 0.984 . S
N849 H853 0.985 . S
H850 N845 0.984 . S
H851 N845 0.985 . S
H852 N849 0.984 . S
H853 N849 0.985 . S
H854 N848 0.984 . S
H855 N848 0.984 . S
H856 N844 0.984 . S
H857 N844 0.985 . S
C858 C859 1.363 . S
C858 C864 1.379 . S
C858 N866 1.356 . S
C859 C858 1.363 . S
C859 C865 1.363 . S
C860 C861 1.363 . S
C860 C865 1.379 . S
C860 N867 1.356 . S
C861 C860 1.363 . S
C861 C864 1.363 . S
N862 C864 1.356 . S
N862 H874 0.984 . S
N862 H875 0.985 . S
N863 C865 1.356 . S
N863 H868 0.984 . S
N863 H869 0.985 . S
C864 C858 1.379 . S
C864 C861 1.363 . S
C864 N862 1.356 . S
C865 C859 1.363 . S
C865 C860 1.379 . S
C865 N863 1.356 . S
N866 C858 1.356 . S
N866 H872 0.984 . S
N866 H873 0.984 . S
N867 C860 1.356 . S
N867 H870 0.984 . S
N867 H871 0.985 . S
H868 N863 0.984 . S
H869 N863 0.985 . S
H870 N867 0.984 . S
H871 N867 0.985 . S
H872 N866 0.984 . S
H873 N866 0.984 . S
H874 N862 0.984 . S
H875 N862 0.985 . S
C876 C877 1.363 . S
C876 C882 1.379 . S
C876 N884 1.356 . S
C877 C876 1.363 . S
C877 C883 1.363 . S
C878 C879 1.363 . S
C878 C883 1.379 . S
C878 N885 1.356 . S
C879 C878 1.363 . S
C879 C882 1.363 . S
N880 C882 1.356 . S
N880 H892 0.984 . S
N880 H893 0.985 . S
N881 C883 1.356 . S
N881 H886 0.984 . S
N881 H887 0.985 . S
C882 C876 1.379 . S
C882 C879 1.363 . S
C882 N880 1.356 . S
C883 C877 1.363 . S
C883 C878 1.379 . S
C883 N881 1.356 . S
N884 C876 1.356 . S
N884 H890 0.984 . S
N884 H891 0.984 . S
N885 C878 1.356 . S
N885 H888 0.984 . S
N885 H889 0.985 . S
H886 N881 0.984 . S
H887 N881 0.985 . S
H888 N885 0.984 . S
H889 N885 0.985 . S
H890 N884 0.984 . S
H891 N884 0.984 . S
H892 N880 0.984 . S
H893 N880 0.985 . S
C894 C895 1.363 . S
C894 C900 1.379 . S
C894 N902 1.356 . S
C895 C894 1.363 . S
C895 C901 1.363 . S
C896 C897 1.363 . S
C896 C901 1.379 . S
C896 N903 1.356 . S
C897 C896 1.363 . S
C897 C900 1.363 . S
N898 C900 1.356 . S
N898 H910 0.984 . S
N898 H911 0.985 . S
N899 C901 1.356 . S
N899 H904 0.984 . S
N899 H905 0.985 . S
C900 C894 1.379 . S
C900 C897 1.363 . S
C900 N898 1.356 . S
C901 C895 1.363 . S
C901 C896 1.379 . S
C901 N899 1.356 . S
N902 C894 1.356 . S
N902 H908 0.984 . S
N902 H909 0.984 . S
N903 C896 1.356 . S
N903 H906 0.984 . S
N903 H907 0.985 . S
H904 N899 0.984 . S
H905 N899 0.985 . S
H906 N903 0.984 . S
H907 N903 0.985 . S
H908 N902 0.984 . S
H909 N902 0.984 . S
H910 N898 0.984 . S
H911 N898 0.985 . S
C912 C913 1.363 . S
C912 C918 1.379 . S
C912 N920 1.356 . S
C913 C912 1.363 . S
C913 C919 1.363 . S
C914 C915 1.363 . S
C914 C919 1.379 . S
C914 N921 1.356 . S
C915 C914 1.363 . S
C915 C918 1.363 . S
N916 C918 1.356 . S
N916 H928 0.984 . S
N916 H929 0.985 . S
N917 C919 1.356 . S
N917 H922 0.984 . S
N917 H923 0.985 . S
C918 C912 1.379 . S
C918 C915 1.363 . S
C918 N916 1.356 . S
C919 C913 1.363 . S
C919 C914 1.379 . S
C919 N917 1.356 . S
N920 C912 1.356 . S
N920 H926 0.984 . S
N920 H927 0.984 . S
N921 C914 1.356 . S
N921 H924 0.984 . S
N921 H925 0.985 . S
H922 N917 0.984 . S
H923 N917 0.985 . S
H924 N921 0.984 . S
H925 N921 0.985 . S
H926 N920 0.984 . S
H927 N920 0.984 . S
H928 N916 0.984 . S
H929 N916 0.985 . S
C930 C931 1.363 . S
C930 C936 1.379 . S
C930 N938 1.356 . S
C931 C930 1.363 . S
C931 C937 1.363 . S
C932 C933 1.363 . S
C932 C937 1.379 . S
C932 N939 1.356 . S
C933 C932 1.363 . S
C933 C936 1.363 . S
N934 C936 1.356 . S
N934 H946 0.984 . S
N934 H947 0.985 . S
N935 C937 1.356 . S
N935 H940 0.984 . S
N935 H941 0.985 . S
C936 C930 1.379 . S
C936 C933 1.363 . S
C936 N934 1.356 . S
C937 C931 1.363 . S
C937 C932 1.379 . S
C937 N935 1.356 . S
N938 C930 1.356 . S
N938 H944 0.984 . S
N938 H945 0.984 . S
N939 C932 1.356 . S
N939 H942 0.984 . S
N939 H943 0.985 . S
H940 N935 0.984 . S
H941 N935 0.985 . S
H942 N939 0.984 . S
H943 N939 0.985 . S
H944 N938 0.984 . S
H945 N938 0.984 . S
H946 N934 0.984 . S
H947 N934 0.985 . S
C409 C373 1.809 1_455 S
C411 C9 1.553 . S
C427 C43 1.553 . S
C429 C407 1.809 . S
C445 C339 1.809 1_565 S
C447 C77 1.553 . S
C463 C111 1.553 . S
C465 C305 1.809 1_565 S
C481 C145 1.553 . S
C483 C237 1.809 1_455 S
C499 C179 1.553 . S
C501 C271 1.809 . S
C517 C169 1.809 1_655 S
C519 C213 1.553 . S
C535 C203 1.809 . S
C537 C247 1.553 . S
C553 C135 1.809 1_545 S
C555 C281 1.553 . S
C571 C101 1.809 1_545 S
C573 C315 1.553 . S
C589 C349 1.553 . S
C591 C33 1.809 1_655 S
C607 C67 1.809 . S
C609 C383 1.553 . S
C625 C224 1.481 . S
C627 C20 1.481 . S
C643 C54 1.481 . S
C645 C258 1.481 . S
C661 C292 1.481 . S
C663 C88 1.481 . S
C679 C122 1.481 . S
C681 C326 1.481 . S
C697 C156 1.481 . S
C699 C360 1.481 . S
C715 C394 1.481 . S
C717 C190 1.481 . S
C733 C5 0.941 . S
C735 C141 0.941 . S
C751 C39 0.942 . S
C753 C175 0.942 . S
C769 C73 0.942 . S
C771 C107 0.942 . S
C787 C345 0.941 . S
C789 C209 0.941 . S
C805 C243 0.942 . S
C807 C379 0.942 . S
C823 C277 0.942 . S
C825 C311 0.942 . S
C841 C172 1.639 . S
C843 C2 1.639 . S
C859 C104 1.639 . S
C861 C36 1.639 . S
C877 C70 1.639 . S
C879 C138 1.639 . S
C895 C206 1.639 . S
C897 C376 1.639 . S
C913 C308 1.639 . S
C915 C240 1.639 . S
C931 C342 1.639 . S
C933 C274 1.639 . S
