# Generated by pormake.
# Topology wkq, (6)-cn, num edge types: 1
# Building blocks:
#     Node 0, Type 0, BuildingBlock: OJICUG_clean_sbu_0, # of connection points: 6
#     Node 1, Type 0, BuildingBlock: OJICUG_clean_sbu_0, # of connection points: 6
#     Node 2, Type 0, BuildingBlock: OJICUG_clean_sbu_0, # of connection points: 6
#     Node 3, Type 0, BuildingBlock: OJICUG_clean_sbu_0, # of connection points: 6
#     Node 4, Type 0, BuildingBlock: OJICUG_clean_sbu_0, # of connection points: 6
#     Node 5, Type 0, BuildingBlock: OJICUG_clean_sbu_0, # of connection points: 6
#     Node 6, Type 0, BuildingBlock: OJICUG_clean_sbu_0, # of connection points: 6
#     Node 7, Type 0, BuildingBlock: OJICUG_clean_sbu_0, # of connection points: 6
#     Node 8, Type 0, BuildingBlock: OJICUG_clean_sbu_0, # of connection points: 6
#     Node 9, Type 0, BuildingBlock: OJICUG_clean_sbu_0, # of connection points: 6
#     Node 10, Type 0, BuildingBlock: OJICUG_clean_sbu_0, # of connection points: 6
#     Node 11, Type 0, BuildingBlock: OJICUG_clean_sbu_0, # of connection points: 6
#     Edge 12, Type (0, 0), BuildingBlock: ZUJKAS_clean_linker_0, # of connection points: 2
#     Edge 13, Type (0, 0), BuildingBlock: ZUJKAS_clean_linker_0, # of connection points: 2
#     Edge 14, Type (0, 0), BuildingBlock: ZUJKAS_clean_linker_0, # of connection points: 2
#     Edge 15, Type (0, 0), BuildingBlock: ZUJKAS_clean_linker_0, # of connection points: 2
#     Edge 16, Type (0, 0), BuildingBlock: ZUJKAS_clean_linker_0, # of connection points: 2
#     Edge 17, Type (0, 0), BuildingBlock: ZUJKAS_clean_linker_0, # of connection points: 2
#     Edge 18, Type (0, 0), BuildingBlock: ZUJKAS_clean_linker_0, # of connection points: 2
#     Edge 19, Type (0, 0), BuildingBlock: ZUJKAS_clean_linker_0, # of connection points: 2
#     Edge 20, Type (0, 0), BuildingBlock: ZUJKAS_clean_linker_0, # of connection points: 2
#     Edge 21, Type (0, 0), BuildingBlock: ZUJKAS_clean_linker_0, # of connection points: 2
#     Edge 22, Type (0, 0), BuildingBlock: ZUJKAS_clean_linker_0, # of connection points: 2
#     Edge 23, Type (0, 0), BuildingBlock: ZUJKAS_clean_linker_0, # of connection points: 2
#     Edge 24, Type (0, 0), BuildingBlock: ZUJKAS_clean_linker_0, # of connection points: 2
#     Edge 25, Type (0, 0), BuildingBlock: ZUJKAS_clean_linker_0, # of connection points: 2
#     Edge 26, Type (0, 0), BuildingBlock: ZUJKAS_clean_linker_0, # of connection points: 2
#     Edge 27, Type (0, 0), BuildingBlock: ZUJKAS_clean_linker_0, # of connection points: 2
#     Edge 28, Type (0, 0), BuildingBlock: ZUJKAS_clean_linker_0, # of connection points: 2
#     Edge 29, Type (0, 0), BuildingBlock: ZUJKAS_clean_linker_0, # of connection points: 2
#     Edge 30, Type (0, 0), BuildingBlock: ZUJKAS_clean_linker_0, # of connection points: 2
#     Edge 31, Type (0, 0), BuildingBlock: ZUJKAS_clean_linker_0, # of connection points: 2
#     Edge 32, Type (0, 0), BuildingBlock: ZUJKAS_clean_linker_0, # of connection points: 2
#     Edge 33, Type (0, 0), BuildingBlock: ZUJKAS_clean_linker_0, # of connection points: 2
#     Edge 34, Type (0, 0), BuildingBlock: ZUJKAS_clean_linker_0, # of connection points: 2
#     Edge 35, Type (0, 0), BuildingBlock: ZUJKAS_clean_linker_0, # of connection points: 2
#     Edge 36, Type (0, 0), BuildingBlock: ZUJKAS_clean_linker_0, # of connection points: 2
#     Edge 37, Type (0, 0), BuildingBlock: ZUJKAS_clean_linker_0, # of connection points: 2
#     Edge 38, Type (0, 0), BuildingBlock: ZUJKAS_clean_linker_0, # of connection points: 2
#     Edge 39, Type (0, 0), BuildingBlock: ZUJKAS_clean_linker_0, # of connection points: 2
#     Edge 40, Type (0, 0), BuildingBlock: ZUJKAS_clean_linker_0, # of connection points: 2
#     Edge 41, Type (0, 0), BuildingBlock: ZUJKAS_clean_linker_0, # of connection points: 2
#     Edge 42, Type (0, 0), BuildingBlock: ZUJKAS_clean_linker_0, # of connection points: 2
#     Edge 43, Type (0, 0), BuildingBlock: ZUJKAS_clean_linker_0, # of connection points: 2
#     Edge 44, Type (0, 0), BuildingBlock: ZUJKAS_clean_linker_0, # of connection points: 2
#     Edge 45, Type (0, 0), BuildingBlock: ZUJKAS_clean_linker_0, # of connection points: 2
#     Edge 46, Type (0, 0), BuildingBlock: ZUJKAS_clean_linker_0, # of connection points: 2
#     Edge 47, Type (0, 0), BuildingBlock: ZUJKAS_clean_linker_0, # of connection points: 2
# Relax obj value: 0.340
# Max RMSD: 0.275
# Mean RMSD: 0.275
data_MOF--net-wkq--node1-OJICUG_clean_sbu_0--edge1-ZUJKAS_clean_linker_0
_symmetry_space_group_name_H-M    P1
_symmetry_Int_Tables_number       1
_symmetry_cell_setting            triclinic
loop_
_symmetry_equiv_pos_as_xyz
'x, y, z'
_cell_length_a     50.153564
_cell_length_b     50.153198
_cell_length_c     44.705885
_cell_angle_alpha  90.035411
_cell_angle_beta   89.965703
_cell_angle_gamma 120.00366
loop_
_atom_site_label
_atom_site_type_symbol
_atom_site_fract_x
_atom_site_fract_y
_atom_site_fract_z
_atom_type_partial_charge
Sc0 Sc 0.20888 0.42469 0.98236 0.0
Sc1 Sc 0.25023 0.44172 0.04968 0.0
Sc2 Sc 0.20449 0.36477 0.02764 0.0
O3 O 0.22116 0.41032 0.01986 0.0
C4 C 0.14548 0.36467 0.0003 0.0
C5 C 0.21091 0.47311 0.02905 0.0
C6 C 0.19986 0.39061 0.09173 0.0
C7 C 0.2813 0.47303 0.98852 0.0
C8 C 0.22032 0.37102 0.95787 0.0
C9 C 0.27064 0.39076 0.05605 0.0
O10 O 0.16059 0.38994 0.98615 0.0
O11 O 0.23111 0.47132 0.04461 0.0
O12 O 0.19362 0.36877 0.07344 0.0
O13 O 0.25561 0.4615 0.97481 0.0
O14 O 0.21445 0.35696 0.98279 0.0
O15 O 0.27367 0.41709 0.06065 0.0
O16 O 0.21949 0.39581 0.95414 0.0
O17 O 0.28385 0.46625 0.01541 0.0
O18 O 0.24808 0.36987 0.04152 0.0
O19 O 0.19796 0.45566 0.00665 0.0
O20 O 0.15848 0.3533 0.01595 0.0
O21 O 0.21848 0.41881 0.08572 0.0
Sc22 Sc 0.84336 0.20031 0.19159 0.0
Sc23 Sc 0.81478 0.24784 0.21647 0.0
Sc24 Sc 0.78829 0.20772 0.14848 0.0
O25 O 0.81552 0.21865 0.1855 0.0
C26 C 0.85313 0.21876 0.12282 0.0
C27 C 0.88538 0.2669 0.221 0.0
C28 C 0.81239 0.27987 0.15586 0.0
C29 C 0.81539 0.19504 0.25632 0.0
C30 C 0.78389 0.1434 0.16225 0.0
C31 C 0.74337 0.2085 0.1987 0.0
O32 O 0.86242 0.21409 0.14768 0.0
O33 O 0.86375 0.273 0.22299 0.0
O34 O 0.80044 0.25491 0.14094 0.0
O35 O 0.82665 0.18556 0.23623 0.0
O36 O 0.77232 0.15905 0.15218 0.0
O37 O 0.76563 0.22649 0.21539 0.0
O38 O 0.80961 0.15539 0.17564 0.0
O39 O 0.81005 0.2171 0.25231 0.0
O40 O 0.74741 0.19872 0.17375 0.0
O41 O 0.88148 0.24194 0.20968 0.0
O42 O 0.82677 0.21643 0.11935 0.0
O43 O 0.81967 0.28128 0.18332 0.0
Sc44 Sc 0.58299 0.78629 0.31357 0.0
Sc45 Sc 0.56276 0.81077 0.37948 0.0
Sc46 Sc 0.64045 0.83811 0.36318 0.0
O47 O 0.5954 0.81166 0.3521 0.0
C48 C 0.64086 0.78023 0.33345 0.0
C49 C 0.53154 0.74002 0.35863 0.0
C50 C 0.60991 0.80704 0.42502 0.0
C51 C 0.53539 0.81149 0.31601 0.0
C52 C 0.63893 0.85251 0.29397 0.0
C53 C 0.61502 0.88041 0.3896 0.0
O54 O 0.61574 0.77039 0.31922 0.0
O55 O 0.53361 0.76201 0.37445 0.0
O56 O 0.63286 0.81912 0.40733 0.0
O57 O 0.54798 0.79796 0.30308 0.0
O58 O 0.65041 0.8592 0.32011 0.0
O59 O 0.58703 0.85921 0.38943 0.0
O60 O 0.61529 0.82662 0.28746 0.0
O61 O 0.54001 0.81959 0.34332 0.0
O62 O 0.63648 0.87623 0.38004 0.0
O63 O 0.54919 0.74435 0.33636 0.0
O64 O 0.65216 0.80436 0.34937 0.0
O65 O 0.58329 0.8024 0.41798 0.0
Sc66 Sc 0.80537 0.64321 0.52537 0.0
Sc67 Sc 0.75692 0.56668 0.54767 0.0
Sc68 Sc 0.7993 0.58198 0.48089 0.0
O69 O 0.7872 0.59733 0.51797 0.0
C70 C 0.78941 0.63648 0.45575 0.0
C71 C 0.73864 0.61909 0.55311 0.0
C72 C 0.72659 0.53479 0.48611 0.0
C73 C 0.80827 0.61773 0.58976 0.0
C74 C 0.86349 0.64116 0.49831 0.0
C75 C 0.79591 0.53414 0.5294 0.0
O76 O 0.79465 0.65042 0.48071 0.0
O77 O 0.73326 0.59169 0.55624 0.0
O78 O 0.75231 0.54639 0.47249 0.0
O79 O 0.81696 0.63945 0.57082 0.0
O80 O 0.848 0.61528 0.4853 0.0
O81 O 0.77644 0.53725 0.54494 0.0
O82 O 0.85085 0.65364 0.51281 0.0
O83 O 0.7875 0.59006 0.58434 0.0
O84 O 0.8081 0.54993 0.50587 0.0
O85 O 0.76295 0.63989 0.54062 0.0
O86 O 0.7906 0.61185 0.45214 0.0
O87 O 0.72398 0.54129 0.51308 0.0
Sc88 Sc 0.2209 0.79827 0.64809 0.0
Sc89 Sc 0.19437 0.75856 0.71625 0.0
Sc90 Sc 0.16571 0.80582 0.69113 0.0
O91 O 0.19364 0.78754 0.68515 0.0
C92 C 0.22516 0.86265 0.66159 0.0
C93 C 0.26582 0.79763 0.69825 0.0
C94 C 0.19414 0.81174 0.75573 0.0
C95 C 0.19667 0.72625 0.65587 0.0
C96 C 0.15584 0.78684 0.62248 0.0
C97 C 0.12374 0.73945 0.72095 0.0
O98 O 0.23676 0.84698 0.65158 0.0
O99 O 0.24354 0.77983 0.71502 0.0
O100 O 0.18256 0.8209 0.73568 0.0
O101 O 0.20907 0.75115 0.64089 0.0
O102 O 0.14658 0.79171 0.64729 0.0
O103 O 0.14547 0.73352 0.72307 0.0
O104 O 0.18225 0.78924 0.61903 0.0
O105 O 0.18893 0.72484 0.68319 0.0
O106 O 0.12755 0.76429 0.70944 0.0
O107 O 0.26185 0.80721 0.67316 0.0
O108 O 0.19941 0.85063 0.67497 0.0
O109 O 0.1995 0.78968 0.75183 0.0
Sc110 Sc 0.36682 0.16873 0.86162 0.0
Sc111 Sc 0.44436 0.1993 0.88053 0.0
Sc112 Sc 0.42455 0.21997 0.81196 0.0
O113 O 0.41199 0.19605 0.85132 0.0
C114 C 0.36966 0.15263 0.79339 0.0
C115 C 0.39483 0.12919 0.89011 0.0
C116 C 0.47449 0.19841 0.81773 0.0
C117 C 0.3937 0.20028 0.92361 0.0
C118 C 0.36599 0.22553 0.82973 0.0
C119 C 0.47287 0.26892 0.85857 0.0
O120 O 0.35883 0.14568 0.81973 0.0
O121 O 0.42281 0.15046 0.88847 0.0
O122 O 0.45862 0.20687 0.80246 0.0
O123 O 0.37182 0.18933 0.90475 0.0
O124 O 0.39224 0.23647 0.81736 0.0
O125 O 0.46922 0.24839 0.87733 0.0
O126 O 0.35382 0.20061 0.84452 0.0
O127 O 0.42024 0.204 0.91805 0.0
O128 O 0.45914 0.26266 0.83333 0.0
O129 O 0.37279 0.13296 0.88158 0.0
O130 O 0.39189 0.17926 0.78641 0.0
O131 O 0.47195 0.19495 0.84598 0.0
Sc132 Sc 0.64448 0.80418 0.80073 0.0
Sc133 Sc 0.56772 0.75492 0.77969 0.0
Sc134 Sc 0.58369 0.79857 0.84564 0.0
O135 O 0.59868 0.7859 0.8087 0.0
C136 C 0.63855 0.78909 0.87054 0.0
C137 C 0.6204 0.73704 0.77405 0.0
C138 C 0.53649 0.72576 0.84164 0.0
C139 C 0.6179 0.80575 0.7366 0.0
C140 C 0.64268 0.86257 0.82729 0.0
C141 C 0.53531 0.79423 0.7973 0.0
O142 O 0.65229 0.79422 0.84547 0.0
O143 O 0.59286 0.73132 0.77125 0.0
O144 O 0.54805 0.75177 0.85471 0.0
O145 O 0.64001 0.81498 0.75517 0.0
O146 O 0.61701 0.84723 0.84071 0.0
O147 O 0.53815 0.77431 0.78228 0.0
O148 O 0.6549 0.84975 0.81269 0.0
O149 O 0.59043 0.78489 0.74254 0.0
O150 O 0.55145 0.80706 0.8205 0.0
O151 O 0.64124 0.76168 0.78602 0.0
O152 O 0.61384 0.79012 0.87431 0.0
O153 O 0.54294 0.72259 0.81483 0.0
Sc154 Sc 0.84397 0.64206 0.96499 0.0
Sc155 Sc 0.81574 0.56488 0.94465 0.0
Sc156 Sc 0.78918 0.58224 0.01084 0.0
O157 O 0.81633 0.59639 0.97351 0.0
C158 C 0.85391 0.63741 0.03475 0.0
C159 C 0.8864 0.61629 0.93934 0.0
C160 C 0.81296 0.53365 0.00746 0.0
C161 C 0.8168 0.61577 0.9008 0.0
C162 C 0.78436 0.64114 0.99211 0.0
C163 C 0.74427 0.5343 0.96199 0.0
O164 O 0.86274 0.65017 0.00929 0.0
O165 O 0.86485 0.58842 0.93822 0.0
O166 O 0.80096 0.54736 0.02107 0.0
O167 O 0.82782 0.63755 0.91982 0.0
O168 O 0.77351 0.61515 0.00497 0.0
O169 O 0.76648 0.53754 0.94577 0.0
O170 O 0.80965 0.65344 0.97791 0.0
O171 O 0.81133 0.58866 0.9067 0.0
O172 O 0.74833 0.54913 0.98634 0.0
O173 O 0.88232 0.63773 0.94927 0.0
O174 O 0.8278 0.6133 0.03907 0.0
O175 O 0.82042 0.5382 0.97994 0.0
Sc176 Sc 0.20599 0.84563 0.13038 0.0
Sc177 Sc 0.25232 0.81534 0.10722 0.0
Sc178 Sc 0.21 0.78891 0.17401 0.0
O179 O 0.22273 0.81664 0.1372 0.0
C180 C 0.22139 0.85339 0.20023 0.0
C181 C 0.27306 0.88688 0.10338 0.0
C182 C 0.28226 0.81234 0.16828 0.0
C183 C 0.20268 0.81803 0.06526 0.0
C184 C 0.14678 0.78622 0.15677 0.0
C185 C 0.21192 0.74389 0.12535 0.0
O186 O 0.21595 0.86232 0.17553 0.0
O187 O 0.27685 0.86402 0.09881 0.0
O188 O 0.25649 0.79836 0.18184 0.0
O189 O 0.19523 0.83194 0.08441 0.0
O190 O 0.16177 0.77549 0.17017 0.0
O191 O 0.2321 0.76624 0.11008 0.0
O192 O 0.15989 0.81103 0.1418 0.0
O193 O 0.22184 0.80897 0.07065 0.0
O194 O 0.19936 0.74784 0.14841 0.0
O195 O 0.24949 0.88431 0.11669 0.0
O196 O 0.2203 0.82757 0.20334 0.0
O197 O 0.28513 0.82217 0.14158 0.0
Sc198 Sc 0.36957 0.20236 0.29539 0.0
Sc199 Sc 0.44743 0.24914 0.2775 0.0
Sc200 Sc 0.42673 0.20753 0.34511 0.0
O201 O 0.41453 0.21961 0.306 0.0
C202 C 0.37214 0.21994 0.36429 0.0
C203 C 0.39644 0.26838 0.26584 0.0
C204 C 0.47499 0.28015 0.3398 0.0
C205 C 0.39914 0.19764 0.2339 0.0
C206 C 0.36781 0.14385 0.32612 0.0
C207 C 0.47781 0.21008 0.3016 0.0
O208 O 0.36013 0.21417 0.33838 0.0
O209 O 0.42349 0.27257 0.26389 0.0
O210 O 0.46281 0.25446 0.35359 0.0
O211 O 0.37629 0.19028 0.25114 0.0
O212 O 0.39267 0.15905 0.34084 0.0
O213 O 0.47675 0.23023 0.28533 0.0
O214 O 0.35717 0.15673 0.30937 0.0
O215 O 0.42674 0.21757 0.24079 0.0
O216 O 0.45923 0.19692 0.32324 0.0
O217 O 0.3748 0.24512 0.27883 0.0
O218 O 0.3958 0.2178 0.37082 0.0
O219 O 0.46978 0.28263 0.31238 0.0
Sc220 Sc 0.16571 0.36334 0.46709 0.0
Sc221 Sc 0.19215 0.44002 0.4458 0.0
Sc222 Sc 0.2203 0.42477 0.51172 0.0
O223 O 0.19271 0.40932 0.47485 0.0
C224 C 0.15586 0.36968 0.53657 0.0
C225 C 0.12208 0.38703 0.44024 0.0
C226 C 0.1946 0.47178 0.50774 0.0
C227 C 0.19321 0.38955 0.40277 0.0
C228 C 0.22553 0.36575 0.49514 0.0
C229 C 0.26403 0.47279 0.46279 0.0
O230 O 0.14711 0.35605 0.51145 0.0
O231 O 0.14325 0.41498 0.43865 0.0
O232 O 0.20868 0.45997 0.52096 0.0
O233 O 0.18208 0.36775 0.42183 0.0
O234 O 0.23636 0.39223 0.50683 0.0
O235 O 0.24125 0.46951 0.44749 0.0
O236 O 0.20026 0.35255 0.48098 0.0
O237 O 0.19831 0.41661 0.40845 0.0
O238 O 0.26075 0.4571 0.48633 0.0
O239 O 0.12667 0.36617 0.45085 0.0
O240 O 0.18178 0.39421 0.54043 0.0
O241 O 0.18536 0.46556 0.48082 0.0
Sc242 Sc 0.80384 0.16264 0.63096 0.0
Sc243 Sc 0.75761 0.193 0.60725 0.0
Sc244 Sc 0.79868 0.21848 0.67509 0.0
O245 O 0.78667 0.19135 0.63778 0.0
C246 C 0.78746 0.15363 0.7004 0.0
C247 C 0.73598 0.12162 0.60404 0.0
C248 C 0.72705 0.19653 0.66866 0.0
C249 C 0.8076 0.18916 0.56579 0.0
C250 C 0.8624 0.22216 0.65846 0.0
C251 C 0.79888 0.26414 0.62498 0.0
O252 O 0.79174 0.14434 0.67536 0.0
O253 O 0.73083 0.14388 0.60164 0.0
O254 O 0.75184 0.20696 0.68366 0.0
O255 O 0.81704 0.17777 0.58571 0.0
O256 O 0.84722 0.23347 0.67045 0.0
O257 O 0.78107 0.24226 0.60781 0.0
O258 O 0.84949 0.19663 0.64462 0.0
O259 O 0.78657 0.19582 0.57047 0.0
O260 O 0.8076 0.2596 0.65031 0.0
O261 O 0.7609 0.12488 0.61486 0.0
O262 O 0.78987 0.17998 0.70403 0.0
O263 O 0.72547 0.19017 0.64093 0.0
H264 H 0.16186 0.47995 0.01078 0.0
H265 H 0.15008 0.51987 0.02685 0.0
H266 H 0.23118 0.56054 0.0825 0.0
H267 H 0.24254 0.52085 0.06744 0.0
H268 H 0.18292 0.55697 0.11189 0.0
H269 H 0.1926 0.60857 -0.00056 0.0
H270 H 0.16441 0.56846 0.00298 0.0
H271 H 0.20462 0.58075 0.00646 0.0
C272 C 0.17716 0.49746 0.0264 0.0
C273 C 0.20315 0.49709 0.03775 0.0
C274 C 0.17047 0.52034 0.03549 0.0
C275 C 0.1899 0.54345 0.05573 0.0
C276 C 0.21572 0.54295 0.06701 0.0
H277 H 0.24363 0.72821 0.08656 0.0
H278 H 0.23197 0.67728 0.07056 0.0
C279 C 0.22222 0.52014 0.05824 0.0
C280 C 0.18425 0.56866 0.06538 0.0
H281 H 0.18479 0.63322 0.04022 0.0
C282 C 0.1829 0.57346 0.09621 0.0
C283 C 0.18433 0.59021 0.04492 0.0
C284 C 0.18679 0.58702 0.01161 0.0
C285 C 0.18347 0.60002 0.1072 0.0
C286 C 0.18446 0.62205 0.08676 0.0
C287 C 0.18398 0.61633 0.0559 0.0
C288 C 0.19018 0.65288 0.09663 0.0
C289 C 0.18504 0.60513 0.14059 0.0
C290 C 0.17052 0.65642 0.11671 0.0
C291 C 0.17743 0.68587 0.12638 0.0
C292 C 0.20383 0.7123 0.11571 0.0
C293 C 0.22302 0.70852 0.09523 0.0
C294 C 0.21634 0.67928 0.08593 0.0
H295 H 0.19048 0.58916 0.15283 0.0
H296 H 0.20276 0.62913 0.14627 0.0
H297 H 0.16243 0.60118 0.14869 0.0
H298 H 0.14985 0.63647 0.12485 0.0
H299 H 0.16201 0.68795 0.14194 0.0
H300 H 0.53171 0.24646 0.27313 0.0
H301 H 0.56967 0.2335 0.25575 0.0
H302 H 0.51715 0.14299 0.29452 0.0
H303 H 0.47869 0.15616 0.31272 0.0
H304 H 0.57963 0.16856 0.30391 0.0
H305 H 0.55916 0.17931 0.18457 0.0
H306 H 0.56658 0.21338 0.20447 0.0
H307 H 0.53297 0.17707 0.21351 0.0
C308 C 0.52805 0.22372 0.27805 0.0
C309 C 0.50187 0.20218 0.294 0.0
C310 C 0.54976 0.21627 0.26785 0.0
C311 C 0.54578 0.18692 0.27288 0.0
C312 C 0.52041 0.16564 0.28995 0.0
H313 H 0.6872 0.16605 0.17417 0.0
H314 H 0.63568 0.15266 0.19231 0.0
C315 C 0.49856 0.17321 0.30046 0.0
C316 C 0.56887 0.17947 0.2606 0.0
H317 H 0.60985 0.1873 0.19692 0.0
C318 C 0.58582 0.17198 0.28041 0.0
C319 C 0.57652 0.18301 0.22978 0.0
C320 C 0.55757 0.18828 0.20684 0.0
C321 C 0.61176 0.17058 0.27063 0.0
C322 C 0.62147 0.17766 0.24044 0.0
C323 C 0.60292 0.18247 0.22018 0.0
C324 C 0.65228 0.18365 0.23025 0.0
C325 C 0.62887 0.16219 0.293 0.0
C326 C 0.67875 0.20581 0.24515 0.0
C327 C 0.70798 0.21337 0.23497 0.0
C328 C 0.71174 0.19936 0.20922 0.0
C329 C 0.68522 0.17727 0.19407 0.0
C330 C 0.65575 0.16954 0.20446 0.0
H331 H 0.61292 0.14619 0.31022 0.0
H332 H 0.64086 0.15126 0.28201 0.0
H333 H 0.64619 0.18333 0.30471 0.0
H334 H 0.67689 0.21792 0.26438 0.0
H335 H 0.72771 0.23073 0.24718 0.0
H336 H 0.27839 0.51512 0.41844 0.0
H337 H 0.32881 0.55361 0.40059 0.0
H338 H 0.37181 0.52241 0.46427 0.0
H339 H 0.32081 0.48375 0.48303 0.0
H340 H 0.39956 0.58366 0.46388 0.0
H341 H 0.38803 0.54542 0.34674 0.0
H342 H 0.35624 0.55048 0.35667 0.0
H343 H 0.36147 0.52161 0.37547 0.0
C344 C 0.29843 0.51608 0.42864 0.0
C345 C 0.29535 0.49605 0.45217 0.0
C346 C 0.32739 0.53804 0.41811 0.0
C347 C 0.35422 0.54043 0.43039 0.0
C348 C 0.35143 0.52074 0.45411 0.0
H349 H 0.52621 0.68385 0.34375 0.0
H350 H 0.4869 0.6326 0.3618 0.0
C351 C 0.32226 0.4987 0.46488 0.0
C352 C 0.38488 0.56506 0.41962 0.0
H353 H 0.4243 0.59986 0.35558 0.0
C354 C 0.40525 0.5868 0.44025 0.0
C355 C 0.3929 0.56898 0.38886 0.0
C356 C 0.37362 0.54513 0.36576 0.0
C357 C 0.43204 0.61344 0.43077 0.0
C358 C 0.43827 0.61895 0.39976 0.0
C359 C 0.41927 0.59605 0.3793 0.0
C360 C 0.46226 0.64952 0.38823 0.0
C361 C 0.45303 0.6358 0.45415 0.0
C362 C 0.4609 0.67583 0.39621 0.0
C363 C 0.48313 0.70483 0.38611 0.0
C364 C 0.50726 0.70842 0.36731 0.0
C365 C 0.50804 0.68192 0.35827 0.0
C366 C 0.48566 0.65267 0.36865 0.0
H367 H 0.45185 0.62374 0.47537 0.0
H368 H 0.47732 0.64843 0.44641 0.0
H369 H 0.44556 0.65276 0.45908 0.0
H370 H 0.44249 0.67398 0.41033 0.0
H371 H 0.48133 0.72454 0.39315 0.0
H372 H 0.77849 0.50135 0.58136 0.0
H373 H 0.78702 0.45983 0.59691 0.0
H374 H 0.83905 0.47087 0.51654 0.0
H375 H 0.83064 0.51301 0.50048 0.0
H376 H 0.76677 0.40526 0.56226 0.0
H377 H 0.89246 0.46512 0.58629 0.0
H378 H 0.87085 0.4851 0.58545 0.0
H379 H 0.88073 0.47357 0.55115 0.0
C380 C 0.79201 0.49531 0.56691 0.0
C381 C 0.80366 0.51051 0.53943 0.0
C382 C 0.79692 0.47152 0.57598 0.0
C383 C 0.81377 0.46234 0.55801 0.0
C384 C 0.82629 0.47789 0.53095 0.0
H385 H 0.79842 0.28322 0.56811 0.0
H386 H 0.80569 0.3328 0.55187 0.0
C387 C 0.82134 0.50186 0.52174 0.0
C388 C 0.81574 0.43483 0.56684 0.0
H389 H 0.86492 0.4108 0.59128 0.0
C390 C 0.78825 0.40647 0.56851 0.0
C391 C 0.84374 0.43656 0.57529 0.0
C392 C 0.8737 0.4667 0.57472 0.0
C393 C 0.78796 0.37977 0.57832 0.0
C394 C 0.81596 0.38133 0.58643 0.0
C395 C 0.84352 0.4097 0.58495 0.0
C396 C 0.81657 0.35329 0.59591 0.0
C397 C 0.75756 0.35007 0.58028 0.0
C398 C 0.82154 0.34879 0.62596 0.0
C399 C 0.81743 0.32028 0.63546 0.0
C400 C 0.80817 0.29588 0.61499 0.0
C401 C 0.80508 0.30129 0.58461 0.0
C402 C 0.8093 0.32967 0.5752 0.0
H403 H 0.73768 0.35404 0.57927 0.0
H404 H 0.75563 0.33496 0.56127 0.0
H405 H 0.75607 0.33765 0.60133 0.0
H406 H 0.82719 0.36682 0.64229 0.0
H407 H 0.82002 0.31689 0.65897 0.0
H408 H 0.50395 0.77765 0.74454 0.0
H409 H 0.46245 0.78586 0.72819 0.0
H410 H 0.47064 0.83594 0.80928 0.0
H411 H 0.51281 0.8279 0.82609 0.0
H412 H 0.40707 0.76411 0.75995 0.0
H413 H 0.46555 0.89065 0.74151 0.0
H414 H 0.48631 0.86983 0.74308 0.0
H415 H 0.47245 0.87803 0.77687 0.0
C416 C 0.49727 0.79066 0.75899 0.0
C417 C 0.5117 0.80188 0.78687 0.0
C418 C 0.47349 0.7954 0.74946 0.0
C419 C 0.46349 0.81162 0.76738 0.0
C420 C 0.47828 0.8237 0.79488 0.0
H421 H 0.2835 0.79362 0.75486 0.0
H422 H 0.33276 0.80031 0.77135 0.0
C423 C 0.50228 0.81897 0.80452 0.0
C424 C 0.43597 0.81338 0.75796 0.0
H425 H 0.41131 0.86261 0.73527 0.0
C426 C 0.40803 0.78567 0.75461 0.0
C427 C 0.43732 0.84149 0.75068 0.0
C428 C 0.46702 0.87176 0.75295 0.0
C429 C 0.3814 0.78526 0.74436 0.0
C430 C 0.38255 0.81335 0.73751 0.0
C431 C 0.41051 0.84113 0.7406 0.0
C432 C 0.35443 0.81381 0.72795 0.0
C433 C 0.35219 0.75467 0.74064 0.0
C434 C 0.35061 0.82032 0.69819 0.0
C435 C 0.32224 0.81652 0.68854 0.0
C436 C 0.2973 0.80605 0.70853 0.0
C437 C 0.30198 0.80125 0.73867 0.0
C438 C 0.33019 0.80514 0.74824 0.0
H439 H 0.35669 0.73511 0.74074 0.0
H440 H 0.33629 0.75133 0.75938 0.0
H441 H 0.3404 0.75408 0.71942 0.0
H442 H 0.36912 0.82708 0.68219 0.0
H443 H 0.31947 0.82045 0.66522 0.0
H444 H 0.69045 0.50571 0.9948 0.0
H445 H 0.63974 0.46471 0.97772 0.0
H446 H 0.6761 0.47091 0.88901 0.0
H447 H 0.72645 0.51157 0.90566 0.0
H448 H 0.6148 0.46495 0.89191 0.0
H449 H 0.62602 0.37684 0.9577 0.0
H450 H 0.63139 0.41032 0.97769 0.0
H451 H 0.6586 0.41425 0.94949 0.0
C452 C 0.68752 0.49859 0.97159 0.0
C453 C 0.71265 0.51172 0.95173 0.0
C454 C 0.65859 0.47511 0.96189 0.0
C455 C 0.65428 0.46458 0.93215 0.0
C456 C 0.67892 0.47861 0.91204 0.0
H457 H 0.51459 0.31646 0.82316 0.0
H458 H 0.55698 0.3662 0.84054 0.0
C459 C 0.70777 0.50179 0.92171 0.0
C460 C 0.62482 0.43772 0.92213 0.0
H461 H 0.58137 0.35964 0.92883 0.0
C462 C 0.60727 0.44191 0.90011 0.0
C463 C 0.61525 0.4077 0.93268 0.0
C464 C 0.63379 0.40174 0.95554 0.0
C465 C 0.58018 0.41684 0.88857 0.0
C466 C 0.57084 0.38671 0.89881 0.0
C467 C 0.58839 0.38269 0.92099 0.0
C468 C 0.54307 0.35877 0.88711 0.0
C469 C 0.56163 0.42297 0.8659 0.0
C470 C 0.52099 0.33807 0.9073 0.0
C471 C 0.49726 0.30961 0.8975 0.0
C472 C 0.49476 0.30119 0.86718 0.0
C473 C 0.51574 0.32252 0.84657 0.0
C474 C 0.53992 0.35098 0.85652 0.0
H475 H 0.5664 0.44709 0.86725 0.0
H476 H 0.56796 0.41932 0.84309 0.0
H477 H 0.53656 0.40716 0.86907 0.0
H478 H 0.52277 0.34347 0.93094 0.0
H479 H 0.48134 0.29369 0.91389 0.0
H480 H 0.27774 0.34 0.04919 0.0
H481 H 0.30431 0.32289 0.08344 0.0
H482 H 0.3343 0.40494 0.13645 0.0
H483 H 0.30958 0.42291 0.1017 0.0
H484 H 0.37703 0.39137 0.13675 0.0
H485 H 0.26757 0.28435 0.16143 0.0
H486 H 0.27847 0.28693 0.1229 0.0
H487 H 0.26912 0.31447 0.1383 0.0
C488 C 0.29056 0.35467 0.06779 0.0
C489 C 0.29119 0.38268 0.07279 0.0
C490 C 0.30541 0.34468 0.0876 0.0
C491 C 0.32038 0.36206 0.11322 0.0
C492 C 0.32268 0.3909 0.11709 0.0
H493 H 0.34734 0.27791 0.27241 0.0
H494 H 0.33074 0.3042 0.23724 0.0
C495 C 0.30849 0.40119 0.09703 0.0
C496 C 0.3326 0.35003 0.13676 0.0
H497 H 0.31265 0.28892 0.18331 0.0
C498 C 0.36288 0.36899 0.14699 0.0
C499 C 0.31397 0.32118 0.1508 0.0
C500 C 0.2804 0.30071 0.14304 0.0
C501 C 0.37508 0.3599 0.17057 0.0
C502 C 0.35699 0.33037 0.18349 0.0
C503 C 0.32666 0.3115 0.1734 0.0
C504 C 0.36913 0.31806 0.20685 0.0
C505 C 0.4069 0.38255 0.18186 0.0
C506 C 0.39657 0.31764 0.20197 0.0
C507 C 0.40652 0.30347 0.22246 0.0
C508 C 0.38876 0.28846 0.24788 0.0
C509 C 0.36162 0.28941 0.25315 0.0
C510 C 0.35203 0.30426 0.23294 0.0
H511 H 0.41248 0.40667 0.17788 0.0
H512 H 0.40923 0.37959 0.20615 0.0
H513 H 0.42413 0.37907 0.16954 0.0
H514 H 0.4097 0.32708 0.18165 0.0
H515 H 0.42722 0.30267 0.21732 0.0
H516 H 0.90049 0.31947 0.25256 0.0
H517 H 0.94158 0.34467 0.28938 0.0
H518 H 0.97657 0.28467 0.26531 0.0
H519 H 0.9355 0.25912 0.22837 0.0
H520 H 0.94688 0.30969 0.33791 0.0
H521 H 0.05467 0.37167 0.27141 0.0
H522 H 0.0172 0.36028 0.25587 0.0
H523 H 0.02914 0.33228 0.26088 0.0
C524 C 0.91734 0.31207 0.25441 0.0
C525 C 0.91441 0.287 0.23753 0.0
C526 C 0.94076 0.32647 0.27564 0.0
C527 C 0.96203 0.31648 0.28014 0.0
C528 C 0.96053 0.29291 0.26201 0.0
H529 H 0.07248 0.32878 0.4331 0.0
H530 H 0.03125 0.31259 0.39627 0.0
C531 C 0.937 0.27835 0.24083 0.0
C532 C 0.98377 0.32859 0.30569 0.0
H533 H 0.06011 0.36773 0.3237 0.0
C534 C 0.97165 0.32258 0.33484 0.0
C535 C 0.01601 0.34539 0.30158 0.0
C536 C 0.03016 0.35307 0.27077 0.0
C537 C 0.99097 0.3325 0.36003 0.0
C538 C 0.02323 0.34875 0.35593 0.0
C539 C 0.03534 0.35523 0.32678 0.0
C540 C 0.045 0.35876 0.38147 0.0
C541 C 0.97679 0.32561 0.39083 0.0
C542 C 0.06588 0.39013 0.38598 0.0
C543 C 0.08941 0.39953 0.40714 0.0
C544 C 0.09284 0.37767 0.42395 0.0
C545 C 0.07061 0.34631 0.42068 0.0
C546 C 0.04697 0.33696 0.39958 0.0
H547 H 0.95217 0.31932 0.39021 0.0
H548 H 0.97814 0.30596 0.40051 0.0
H549 H 0.98947 0.34572 0.40589 0.0
H550 H 0.06469 0.40732 0.37227 0.0
H551 H 0.10599 0.42387 0.40896 0.0
H552 H 0.74146 0.07006 0.59814 0.0
H553 H 0.71473 0.02849 0.56193 0.0
H554 H 0.65648 0.06535 0.53732 0.0
H555 H 0.68307 0.10715 0.57331 0.0
H556 H 0.65119 0.98304 0.55062 0.0
H557 H 0.70398 0.06939 0.45933 0.0
H558 H 0.71753 0.0776 0.49746 0.0
H559 H 0.68277 0.0772 0.48701 0.0
C560 C 0.72247 0.069 0.58562 0.0
C561 C 0.71482 0.09235 0.5884 0.0
C562 C 0.70728 0.04522 0.56483 0.0
C563 C 0.68421 0.04436 0.54644 0.0
C564 C 0.6747 0.06603 0.55089 0.0
H565 H 0.57672 0.89532 0.42007 0.0
H566 H 0.59181 0.9366 0.45669 0.0
C567 C 0.68982 0.08979 0.57169 0.0
C568 C 0.6718 0.02221 0.52124 0.0
H569 H 0.67131 0.01785 0.44491 0.0
C570 C 0.65532 0.99059 0.5275 0.0
C571 C 0.67778 0.03223 0.49111 0.0
C572 C 0.69668 0.06592 0.48315 0.0
C573 C 0.64458 0.96865 0.50441 0.0
C574 C 0.65018 0.97867 0.47426 0.0
C575 C 0.66671 0.0103 0.46801 0.0
C576 C 0.6407 0.95651 0.44907 0.0
C577 C 0.62824 0.9349 0.51245 0.0
C578 C 0.66311 0.9552 0.43137 0.0
C579 C 0.65461 0.93176 0.41022 0.0
C580 C 0.62346 0.90919 0.40633 0.0
C581 C 0.60093 0.91211 0.42252 0.0
C582 C 0.6095 0.93554 0.4437 0.0
H583 H 0.63107 0.93121 0.53647 0.0
H584 H 0.60327 0.92461 0.50786 0.0
H585 H 0.637 0.92244 0.49872 0.0
H586 H 0.68733 0.97139 0.43498 0.0
H587 H 0.67261 0.93041 0.39811 0.0
H588 H 0.67861 0.7458 0.76638 0.0
H589 H 0.69469 0.72139 0.72869 0.0
H590 H 0.59984 0.65977 0.70536 0.0
H591 H 0.58339 0.68401 0.74282 0.0
H592 H 0.67999 0.65937 0.716 0.0
H593 H 0.63964 0.70849 0.62722 0.0
H594 H 0.64516 0.72167 0.6655 0.0
H595 H 0.6116 0.68607 0.65524 0.0
C596 C 0.66105 0.72655 0.75382 0.0
C597 C 0.62968 0.71725 0.75743 0.0
C598 C 0.67034 0.71271 0.73215 0.0
C599 C 0.64849 0.68938 0.71369 0.0
C600 C 0.6171 0.67826 0.71892 0.0
H601 H 0.68628 0.58203 0.58516 0.0
H602 H 0.66217 0.59848 0.62275 0.0
C603 C 0.60775 0.69202 0.74058 0.0
C604 C 0.65863 0.6781 0.68782 0.0
H605 H 0.6591 0.6766 0.61134 0.0
C606 C 0.67531 0.66297 0.69312 0.0
C607 C 0.65299 0.68341 0.65798 0.0
C608 C 0.63661 0.70102 0.65097 0.0
C609 C 0.68616 0.65263 0.66936 0.0
C610 C 0.67982 0.65724 0.63954 0.0
C611 C 0.6635 0.67272 0.63422 0.0
C612 C 0.69105 0.64707 0.61367 0.0
C613 C 0.70499 0.63752 0.67629 0.0
C614 C 0.71398 0.66887 0.59485 0.0
C615 C 0.7278 0.65959 0.57314 0.0
C616 C 0.71885 0.62827 0.56986 0.0
C617 C 0.69401 0.60636 0.58713 0.0
C618 C 0.68031 0.61569 0.60884 0.0
H619 H 0.713 0.64127 0.69989 0.0
H620 H 0.69072 0.61234 0.67249 0.0
H621 H 0.72538 0.64647 0.66136 0.0
H622 H 0.72236 0.69321 0.59804 0.0
H623 H 0.74675 0.67714 0.56027 0.0
H624 H 0.10789 0.68566 0.75049 0.0
H625 H 0.06656 0.65946 0.78692 0.0
H626 H 0.03295 0.72142 0.76654 0.0
H627 H 0.07424 0.74792 0.72996 0.0
H628 H 0.06153 0.6917 0.83716 0.0
H629 H 0.9539 0.63572 0.77004 0.0
H630 H 0.99127 0.6475 0.75401 0.0
H631 H 0.97981 0.67555 0.76145 0.0
C632 C 0.0913 0.69332 0.75308 0.0
C633 C 0.09465 0.71915 0.73731 0.0
C634 C 0.06773 0.67833 0.77407 0.0
C635 C 0.04674 0.68851 0.77949 0.0
C636 C 0.04872 0.71297 0.76249 0.0
H637 H 0.93792 0.67352 0.93443 0.0
H638 H 0.97907 0.68958 0.89752 0.0
C639 C 0.07239 0.7281 0.74153 0.0
C640 C 0.02481 0.67558 0.80486 0.0
H641 H 0.94837 0.63781 0.82266 0.0
C642 C 0.03677 0.67968 0.834 0.0
C643 C 0.99256 0.65989 0.80067 0.0
C644 C 0.9785 0.65411 0.76986 0.0
C645 C 0.01732 0.66904 0.8591 0.0
C646 C 0.9851 0.65402 0.85494 0.0
C647 C 0.97312 0.64936 0.82578 0.0
C648 C 0.96327 0.64369 0.88048 0.0
C649 C 0.03136 0.67391 0.88986 0.0
C650 C 0.94125 0.61245 0.88376 0.0
C651 C 0.91775 0.60311 0.90499 0.0
C652 C 0.9155 0.62494 0.92306 0.0
C653 C 0.93885 0.65603 0.92099 0.0
C654 C 0.96245 0.6653 0.89985 0.0
H655 H 0.0556 0.67901 0.8889 0.0
H656 H 0.03114 0.69373 0.90066 0.0
H657 H 0.01787 0.65332 0.90414 0.0
H658 H 0.94152 0.59541 0.86906 0.0
H659 H 0.90025 0.57899 0.90582 0.0
H660 H 0.33814 0.0778 0.89742 0.0
H661 H 0.32379 0.03691 0.93418 0.0
H662 H 0.41911 0.075 0.95874 0.0
H663 H 0.43379 0.11639 0.92227 0.0
H664 H 0.34035 0.99208 0.94489 0.0
H665 H 0.3775 0.07748 0.03734 0.0
H666 H 0.3731 0.08684 -0.00065 0.0
H667 H 0.40651 0.08464 0.00988 0.0
C668 C 0.35621 0.07726 0.91019 0.0
C669 C 0.38712 0.10074 0.90709 0.0
C670 C 0.34791 0.05384 0.93126 0.0
C671 C 0.37029 0.05338 0.94971 0.0
C672 C 0.4014 0.07536 0.94518 0.0
H673 H 0.3261 0.90156 0.07289 0.0
H674 H 0.35299 0.94355 0.0372 0.0
C675 C 0.40976 0.09884 0.92407 0.0
C676 C 0.36066 0.03096 0.9747 0.0
H677 H 0.35779 0.02566 0.05103 0.0
C678 C 0.3444 0.99939 0.96809 0.0
C679 C 0.36547 0.04061 0.00498 0.0
C680 C 0.38136 0.07422 0.01347 0.0
C681 C 0.33275 0.97718 0.99093 0.0
C682 C 0.33794 0.98684 0.02118 0.0
C683 C 0.35423 0.01838 0.02782 0.0
C684 C 0.32508 0.9644 0.04611 0.0
C685 C 0.31406 0.94358 0.98251 0.0
C686 C 0.30176 0.96335 0.0643 0.0
C687 C 0.28638 0.93945 0.08494 0.0
C688 C 0.29411 0.91617 0.08774 0.0
C689 C 0.31927 0.91886 0.07118 0.0
C690 C 0.33457 0.94274 0.05057 0.0
H691 H 0.30708 0.94041 0.9586 0.0
H692 H 0.32801 0.93235 0.98636 0.0
H693 H 0.29302 0.93164 -0.00346 0.0
H694 H 0.29431 0.98008 0.06137 0.0
H695 H 0.26722 0.93824 0.09729 0.0
H696 H 0.52151 0.66585 0.83293 0.0
H697 H 0.48157 0.6202 0.85867 0.0
H698 H 0.45854 0.67777 0.91175 0.0
H699 H 0.49934 0.72346 0.88721 0.0
H700 H 0.45756 0.63487 0.94524 0.0
H701 H 0.39186 0.58022 0.84171 0.0
H702 H 0.43037 0.58665 0.8408 0.0
H703 H 0.42406 0.61897 0.84223 0.0
C704 C 0.50797 0.66872 0.85018 0.0
C705 C 0.51339 0.69819 0.85793 0.0
C706 C 0.48501 0.64261 0.86472 0.0
C707 C 0.4665 0.64545 0.88663 0.0
C708 C 0.47242 0.67495 0.89484 0.0
H709 H 0.28468 0.51044 0.94279 0.0
H710 H 0.33091 0.55104 0.91877 0.0
C711 C 0.49576 0.70107 0.88079 0.0
C712 C 0.44072 0.61791 0.90095 0.0
H713 H 0.37395 0.5511 0.88619 0.0
C714 C 0.43927 0.61653 0.93233 0.0
C715 C 0.41666 0.59416 0.88409 0.0
C716 C 0.41557 0.59515 0.85037 0.0
C717 C 0.4142 0.59247 0.94732 0.0
C718 C 0.39049 0.56837 0.93046 0.0
C719 C 0.39225 0.56943 0.8991 0.0
C720 C 0.36263 0.54293 0.94473 0.0
C721 C 0.41283 0.59396 0.98099 0.0
C722 C 0.36496 0.52445 0.96699 0.0
C723 C 0.33853 0.5016 0.98122 0.0
C724 C 0.30926 0.49627 0.97282 0.0
C725 C 0.30691 0.51395 0.94971 0.0
C726 C 0.33333 0.53717 0.93595 0.0
H727 H 0.42785 0.61774 0.98947 0.0
H728 H 0.38896 0.58579 0.98881 0.0
H729 H 0.42099 0.57909 0.99103 0.0
H730 H 0.38721 0.52776 0.97348 0.0
H731 H 0.341 0.48802 -0.00132 0.0
H732 H 0.84006 0.50093 0.98779 0.0
H733 H 0.84376 0.46026 0.01439 0.0
H734 H 0.79968 0.47328 0.09132 0.0
H735 H 0.79576 0.51389 0.06509 0.0
H736 H 0.87107 0.46139 0.07373 0.0
H737 H 0.74485 0.38056 0.06586 0.0
H738 H 0.76463 0.41426 0.04244 0.0
H739 H 0.7564 0.41811 0.08077 0.0
C740 C 0.8313 0.49533 0.01044 0.0
C741 C 0.81732 0.51054 0.02415 0.0
C742 C 0.83354 0.47214 0.0256 0.0
C743 C 0.82169 0.46363 0.05463 0.0
C744 C 0.80865 0.47936 0.06877 0.0
H745 H 0.83605 0.338 0.17946 0.0
H746 H 0.84045 0.38363 0.15489 0.0
C747 C 0.8065 0.5026 0.05372 0.0
C748 C 0.8217 0.43737 0.06964 0.0
H749 H 0.77385 0.36388 0.09356 0.0
C750 C 0.84987 0.44005 0.07813 0.0
C751 C 0.79398 0.40954 0.07501 0.0
C752 C 0.7632 0.40517 0.06539 0.0
C753 C 0.85099 0.41557 0.0922 0.0
C754 C 0.8232 0.38791 0.09796 0.0
C755 C 0.79509 0.38521 0.08923 0.0
C756 C 0.82262 0.36106 0.11238 0.0
C757 C 0.88183 0.41922 0.10031 0.0
C758 C 0.81099 0.33326 0.09664 0.0
C759 C 0.80834 0.30714 0.11058 0.0
C760 C 0.81705 0.30821 0.14068 0.0
C761 C 0.82916 0.33631 0.15626 0.0
C762 C 0.83186 0.36248 0.14223 0.0
H763 H 0.90108 0.43925 0.08883 0.0
H764 H 0.88539 0.42284 0.1248 0.0
H765 H 0.88269 0.39814 0.09447 0.0
H766 H 0.80366 0.3317 0.0736 0.0
H767 H 0.79897 0.28599 0.09781 0.0
H768 H 0.34215 0.85694 0.15907 0.0
H769 H 0.38796 0.8623 0.18412 0.0
H770 H 0.33069 0.7812 0.23666 0.0
H771 H 0.28484 0.77669 0.21283 0.0
H772 H 0.37326 0.82286 0.27032 0.0
H773 H 0.42875 0.81346 0.16668 0.0
H774 H 0.42204 0.84536 0.16598 0.0
H775 H 0.3899 0.80662 0.16715 0.0
C776 C 0.33939 0.84031 0.17602 0.0
C777 C 0.30995 0.8163 0.1839 0.0
C778 C 0.36559 0.84325 0.19015 0.0
C779 C 0.36287 0.82171 0.21175 0.0
C780 C 0.33342 0.79805 0.21998 0.0
H781 H 0.50032 0.77817 0.2687 0.0
H782 H 0.4598 0.78316 0.24364 0.0
C783 C 0.30721 0.79548 0.20635 0.0
C784 C 0.39051 0.82363 0.22602 0.0
H785 H 0.45812 0.82532 0.21117 0.0
C786 C 0.39181 0.82337 0.25738 0.0
C787 C 0.41455 0.82392 0.20912 0.0
C788 C 0.41366 0.82204 0.17539 0.0
C789 C 0.41613 0.82286 0.27234 0.0
C790 C 0.44059 0.82401 0.25546 0.0
C791 C 0.43954 0.82476 0.2241 0.0
C792 C 0.46648 0.82243 0.26976 0.0
C793 C 0.41453 0.81972 0.30598 0.0
C794 C 0.48429 0.8433 0.29229 0.0
C795 C 0.50704 0.84006 0.30711 0.0
C796 C 0.51301 0.81646 0.29901 0.0
C797 C 0.49628 0.79662 0.2754 0.0
C798 C 0.47311 0.79945 0.26106 0.0
H799 H 0.39061 0.81022 0.31436 0.0
H800 H 0.42331 0.80449 0.31369 0.0
H801 H 0.42879 0.84276 0.31624 0.0
H802 H 0.48035 0.86187 0.29871 0.0
H803 H 0.5199 0.85596 0.32496 0.0
H804 H 0.72302 0.4978 0.43982 0.0
H805 H 0.6768 0.45816 0.41507 0.0
H806 H 0.62069 0.48106 0.47064 0.0
H807 H 0.66693 0.51983 0.49658 0.0
H808 H 0.59599 0.42222 0.46828 0.0
H809 H 0.62467 0.46444 0.35233 0.0
H810 H 0.65456 0.45887 0.36752 0.0
H811 H 0.64684 0.48727 0.38379 0.0
C812 C 0.70086 0.49462 0.44657 0.0
C813 C 0.69861 0.512 0.47008 0.0
C814 C 0.67443 0.4721 0.43221 0.0
C815 C 0.64523 0.46708 0.44042 0.0
C816 C 0.64295 0.48462 0.46375 0.0
H817 H 0.48999 0.33959 0.32829 0.0
H818 H 0.52795 0.38615 0.35438 0.0
C819 C 0.66938 0.50675 0.47857 0.0
C820 C 0.61708 0.4422 0.42592 0.0
H821 H 0.58656 0.41063 0.35802 0.0
C822 C 0.59373 0.41998 0.44415 0.0
C823 C 0.6136 0.43953 0.39444 0.0
C824 C 0.63613 0.46404 0.37346 0.0
C825 C 0.56777 0.39448 0.43182 0.0
C826 C 0.56571 0.39039 0.40039 0.0
C827 C 0.58832 0.41336 0.38214 0.0
C828 C 0.54106 0.36201 0.38598 0.0
C829 C 0.54283 0.37239 0.45271 0.0
C830 C 0.53575 0.33292 0.39498 0.0
C831 C 0.51364 0.30629 0.38052 0.0
C832 C 0.49703 0.30826 0.35616 0.0
C833 C 0.50249 0.33737 0.34697 0.0
C834 C 0.52417 0.36398 0.36186 0.0
H835 H 0.54204 0.38426 0.4734 0.0
H836 H 0.51981 0.36151 0.44194 0.0
H837 H 0.54782 0.35405 0.45947 0.0
H838 H 0.54919 0.33078 0.41277 0.0
H839 H 0.51028 0.28423 0.38782 0.0
H840 H 0.15342 0.6665 0.66847 0.0
H841 H 0.14654 0.61993 0.64359 0.0
H842 H 0.22364 0.67575 0.58581 0.0
H843 H 0.22953 0.72221 0.60945 0.0
H844 H 0.17987 0.63254 0.55472 0.0
H845 H 0.19622 0.57934 0.65667 0.0
H846 H 0.16432 0.58595 0.65944 0.0
H847 H 0.20289 0.61813 0.65635 0.0
C848 C 0.16885 0.66875 0.65044 0.0
C849 C 0.19208 0.69796 0.64097 0.0
C850 C 0.16505 0.64213 0.63638 0.0
C851 C 0.18499 0.64425 0.61323 0.0
C852 C 0.20798 0.67347 0.60363 0.0
H853 H 0.22974 0.50931 0.55286 0.0
H854 H 0.22436 0.54954 0.578 0.0
C855 C 0.21134 0.70003 0.61718 0.0
C856 C 0.18216 0.61629 0.5987 0.0
H857 H 0.18285 0.54968 0.61239 0.0
C858 C 0.18052 0.61441 0.56734 0.0
C859 C 0.18328 0.59275 0.61515 0.0
C860 C 0.18708 0.59422 0.64872 0.0
C861 C 0.18083 0.59019 0.55192 0.0
C862 C 0.18139 0.56636 0.56839 0.0
C863 C 0.1822 0.56782 0.59978 0.0
C864 C 0.18351 0.54095 0.55358 0.0
C865 C 0.18209 0.59133 0.51817 0.0
C866 C 0.16206 0.5223 0.53179 0.0
C867 C 0.16555 0.49972 0.51684 0.0
C868 C 0.18999 0.49476 0.52411 0.0
C869 C 0.21063 0.51255 0.54681 0.0
C870 C 0.20755 0.53554 0.56122 0.0
H871 H 0.19029 0.61499 0.50963 0.0
H872 H 0.19754 0.58325 0.50938 0.0
H873 H 0.15863 0.57624 0.5091 0.0
H874 H 0.14274 0.52531 0.52618 0.0
H875 H 0.14905 0.48603 0.49973 0.0
H876 H 0.48304 0.19688 0.75728 0.0
H877 H 0.52377 0.1923 0.73184 0.0
H878 H 0.5597 0.18476 0.817 0.0
H879 H 0.51914 0.18928 0.84275 0.0
H880 H 0.60326 0.23173 0.77549 0.0
H881 H 0.53605 0.11558 0.72398 0.0
H882 H 0.52105 0.14124 0.71912 0.0
H883 H 0.52221 0.12738 0.75581 0.0
C884 C 0.4994 0.19395 0.77065 0.0
C885 C 0.49781 0.19353 0.80211 0.0
C886 C 0.52254 0.19117 0.75604 0.0
C887 C 0.5445 0.18794 0.77258 0.0
C888 C 0.5428 0.18707 0.80388 0.0
H889 H 0.71722 0.19613 0.72891 0.0
H890 H 0.67242 0.19265 0.75417 0.0
C891 C 0.51957 0.18964 0.81853 0.0
C892 C 0.57048 0.18755 0.75733 0.0
H893 H 0.58858 0.14523 0.71041 0.0
C894 C 0.60014 0.21278 0.76137 0.0
C895 C 0.56614 0.16291 0.73875 0.0
C896 C 0.53471 0.13507 0.7342 0.0
C897 C 0.62569 0.21427 0.74694 0.0
C898 C 0.6215 0.18942 0.72863 0.0
C899 C 0.59175 0.16418 0.72454 0.0
C900 C 0.64775 0.18939 0.71338 0.0
C901 C 0.65676 0.24287 0.7508 0.0
C902 C 0.64816 0.1873 0.68209 0.0
C903 C 0.67359 0.18887 0.66755 0.0
C904 C 0.69914 0.19264 0.68405 0.0
C905 C 0.69817 0.1937 0.71547 0.0
C906 C 0.67262 0.19185 0.72997 0.0
H907 H 0.65455 0.26284 0.75819 0.0
H908 H 0.66998 0.23859 0.76816 0.0
H909 H 0.67016 0.24908 0.72964 0.0
H910 H 0.62909 0.18518 0.66888 0.0
H911 H 0.67353 0.18791 0.64334 0.0
H912 H 0.20872 0.31227 0.95024 0.0
H913 H 0.23339 0.29412 0.91504 0.0
H914 H 0.2822 0.38428 0.87503 0.0
H915 H 0.25737 0.40278 0.91027 0.0
H916 H 0.2387 0.29813 0.84688 0.0
H917 H 0.34878 0.36311 0.91019 0.0
H918 H 0.31228 0.35374 0.92678 0.0
H919 H 0.32881 0.38282 0.89843 0.0
C920 C 0.22427 0.32816 0.93363 0.0
C921 C 0.23122 0.35904 0.9332 0.0
C922 C 0.2383 0.31771 0.91348 0.0
C923 C 0.2598 0.33792 0.89265 0.0
C924 C 0.26573 0.36838 0.89106 0.0
H925 H 0.38846 0.2862 0.81379 0.0
H926 H 0.36325 0.31689 0.82129 0.0
C927 C 0.2514 0.37883 0.91109 0.0
C928 C 0.27758 0.32734 0.87462 0.0
H929 H 0.34572 0.3275 0.87457 0.0
C930 C 0.26231 0.30495 0.85247 0.0
C931 C 0.30843 0.33645 0.88181 0.0
C932 C 0.32572 0.36027 0.90564 0.0
C933 C 0.27668 0.29047 0.83821 0.0
C934 C 0.30677 0.29793 0.84699 0.0
C935 C 0.32266 0.32169 0.86784 0.0
C936 C 0.32061 0.2789 0.83798 0.0
C937 C 0.25919 0.26685 0.81431 0.0
C938 C 0.30497 0.24731 0.84449 0.0
C939 C 0.3192 0.22978 0.84018 0.0
C940 C 0.34966 0.24344 0.82953 0.0
C941 C 0.36495 0.27487 0.82186 0.0
C942 C 0.35061 0.29248 0.82623 0.0
H943 H 0.24309 0.27229 0.80232 0.0
H944 H 0.27497 0.26546 0.79775 0.0
H945 H 0.24523 0.24393 0.8249 0.0
H946 H 0.28218 0.23638 0.85431 0.0
H947 H 0.30664 0.20567 0.84635 0.0
H948 H 0.85962 0.25837 0.07737 0.0
H949 H 0.90268 0.28286 0.04174 0.0
H950 H 0.94014 0.22842 0.0769 0.0
H951 H 0.89767 0.20423 0.1124 0.0
H952 H 0.96511 0.31691 0.06228 0.0
H953 H 0.94885 0.22346 0.98552 0.0
H954 H 0.91764 0.22214 0.00699 0.0
H955 H 0.94381 0.21196 0.02408 0.0
C956 C 0.87659 0.25103 0.07685 0.0
C957 C 0.87531 0.2294 0.09767 0.0
C958 C 0.9012 0.26511 0.0566 0.0
C959 C 0.92442 0.2572 0.05646 0.0
C960 C 0.92222 0.23447 0.07621 0.0
H961 H 0.10597 0.30815 0.02383 0.0
H962 H 0.05062 0.28438 0.03057 0.0
C963 C 0.89801 0.22079 0.09663 0.0
C964 C 0.95298 0.27497 0.03868 0.0
H965 H 1.00115 0.26518 0.9918 0.0
C966 C 0.97276 0.30595 0.0462 0.0
C967 C 0.96286 0.26055 0.01779 0.0
C968 C 0.94204 0.22776 0.00787 0.0
C969 C 1.00312 0.32213 0.03533 0.0
C970 C 0.01367 0.30704 0.0159 0.0
C971 C 0.99311 0.27672 0.00676 0.0
C972 C 0.04682 0.32064 0.00836 0.0
C973 C 0.02428 0.35439 0.04656 0.0
C974 C 0.06311 0.34861 0.99279 0.0
C975 C 0.09509 0.36251 0.98897 0.0
C976 C 0.11126 0.34857 0.00059 0.0
C977 C 0.09447 0.31977 0.01478 0.0
C978 C 0.06269 0.30601 0.01858 0.0
H979 H 0.01392 0.36075 0.06524 0.0
H980 H 0.04644 0.35686 0.05433 0.0
H981 H 0.02936 0.37099 0.02806 0.0
H982 H 0.05123 0.36004 0.9842 0.0
H983 H 0.10721 0.38461 0.97782 0.0
H984 H 0.67541 0.91339 0.30502 0.0
H985 H 0.69722 0.95569 0.27006 0.0
H986 H 0.65654 0.89228 0.19643 0.0
H987 H 0.63319 0.849 0.23206 0.0
H988 H 0.73815 0.96797 0.22768 0.0
H989 H 0.63095 0.95521 0.17723 0.0
H990 H 0.63037 0.93402 0.21005 0.0
H991 H 0.63683 0.9228 0.17383 0.0
C992 C 0.67101 0.9081 0.28142 0.0
C993 C 0.65265 0.87759 0.2714 0.0
C994 C 0.68355 0.93251 0.26137 0.0
C995 C 0.67852 0.92735 0.23055 0.0
C996 C 0.66036 0.89693 0.22015 0.0
H997 H 0.8017 0.10353 0.14191 0.0
H998 H 0.77464 0.04756 0.14908 0.0
C999 C 0.64724 0.8722 0.24049 0.0
C1000 C 0.6932 0.95445 0.21022 0.0
H1001 H 0.67751 0.99914 0.16403 0.0
C1002 C 0.72496 0.97465 0.21342 0.0
C1003 C 0.67593 0.96314 0.19172 0.0
C1004 C 0.6416 0.94285 0.18803 0.0
C1005 C 0.73954 0.00417 0.20076 0.0
C1006 C 0.72222 0.01326 0.18268 0.0
C1007 C 0.69081 0.99222 0.17778 0.0
C1008 C 0.73546 0.04553 0.17175 0.0
C1009 C 0.77275 0.02597 0.20904 0.0
C1010 C 0.72117 0.06262 0.1794 0.0
C1011 C 0.73598 0.09433 0.174 0.0
C1012 C 0.76556 0.10954 0.16142 0.0
C1013 C 0.77898 0.09224 0.15191 0.0
C1014 C 0.76367 0.06035 0.15633 0.0
H1015 H 0.77989 0.01798 0.22907 0.0
H1016 H 0.78787 0.02741 0.19026 0.0
H1017 H 0.77671 0.0494 0.21377 0.0
H1018 H 0.69934 0.05182 0.19114 0.0
H1019 H 0.72527 0.10728 0.18164 0.0
H1020 H 0.69917 0.79922 0.35277 0.0
H1021 H 0.72405 0.76868 0.3589 0.0
H1022 H 0.64509 0.69 0.32036 0.0
H1023 H 0.61947 0.72054 0.31453 0.0
H1024 H 0.66188 0.67654 0.37343 0.0
H1025 H 0.76556 0.73771 0.30314 0.0
H1026 H 0.76193 0.76426 0.32727 0.0
H1027 H 0.73296 0.7435 0.29925 0.0
C1028 C 0.68714 0.77557 0.34509 0.0
C1029 C 0.65719 0.76235 0.33324 0.0
C1030 C 0.70163 0.75817 0.34835 0.0
C1031 C 0.68674 0.72716 0.33961 0.0
C1032 C 0.65716 0.714 0.32696 0.0
H1033 H 0.75289 0.60443 0.40798 0.0
H1034 H 0.72759 0.62238 0.3728 0.0
C1035 C 0.64258 0.7315 0.32359 0.0
C1036 C 0.70096 0.70814 0.34706 0.0
H1037 H 0.77005 0.71012 0.34615 0.0
C1038 C 0.6852 0.68325 0.36676 0.0
C1039 C 0.73137 0.71681 0.33829 0.0
C1040 C 0.74877 0.74184 0.31556 0.0
C1041 C 0.69992 0.66856 0.37984 0.0
C1042 C 0.7311 0.67889 0.37283 0.0
C1043 C 0.74619 0.70235 0.3516 0.0
C1044 C 0.74942 0.66872 0.3905 0.0
C1045 C 0.68277 0.64358 0.40271 0.0
C1046 C 0.7709 0.68915 0.41121 0.0
C1047 C 0.78524 0.67903 0.43128 0.0
C1048 C 0.77862 0.64826 0.43088 0.0
C1049 C 0.75859 0.62829 0.40878 0.0
C1050 C 0.74396 0.63843 0.38881 0.0
H1051 H 0.65952 0.64013 0.40759 0.0
H1052 H 0.68007 0.62154 0.39432 0.0
H1053 H 0.69605 0.6493 0.42391 0.0
H1054 H 0.77546 0.71263 0.41283 0.0
H1055 H 0.80067 0.69504 0.44789 0.0
H1056 H 0.14895 0.74635 0.57775 0.0
H1057 H 0.10568 0.72133 0.54241 0.0
H1058 H 0.06876 0.77675 0.57632 0.0
H1059 H 0.11142 0.80142 0.6116 0.0
H1060 H 0.04273 0.68808 0.56364 0.0
H1061 H 0.06064 0.7802 0.48427 0.0
H1062 H 0.09162 0.78127 0.50591 0.0
H1063 H 0.06603 0.79243 0.52263 0.0
C1064 C 0.13205 0.75376 0.57701 0.0
C1065 C 0.13355 0.77584 0.59742 0.0
C1066 C 0.10731 0.73937 0.55695 0.0
C1067 C 0.08418 0.74741 0.55654 0.0
C1068 C 0.08659 0.77055 0.57587 0.0
H1069 H 0.90356 0.69842 0.51994 0.0
H1070 H 0.9587 0.72158 0.52751 0.0
C1071 C 0.11092 0.78453 0.59614 0.0
C1072 C 0.05558 0.7295 0.53884 0.0
H1073 H 0.00833 0.73882 0.49035 0.0
C1074 C 0.03541 0.69881 0.54699 0.0
C1075 C 0.04615 0.74363 0.51722 0.0
C1076 C 0.06736 0.77613 0.50675 0.0
C1077 C 0.00512 0.68266 0.53593 0.0
C1078 C 0.99504 0.69746 0.51562 0.0
C1079 C 0.01599 0.72748 0.50594 0.0
C1080 C 0.962 0.68401 0.50757 0.0
C1081 C 0.98355 0.6508 0.54784 0.0
C1082 C 0.94545 0.65546 0.49296 0.0
C1083 C 0.91355 0.64189 0.48871 0.0
C1084 C 0.89771 0.65675 0.49888 0.0
C1085 C 0.91478 0.68608 0.51202 0.0
C1086 C 0.94647 0.69949 0.5163 0.0
H1087 H 0.99348 0.6449 0.56722 0.0
H1088 H 0.96135 0.64874 0.55485 0.0
H1089 H 0.97867 0.63362 0.52995 0.0
H1090 H 0.95706 0.64336 0.48547 0.0
H1091 H 0.9012 0.61937 0.47837 0.0
H1092 H 0.37361 0.15622 0.7314 0.0
H1093 H 0.35001 0.11285 0.69576 0.0
H1094 H 0.31427 0.0491 0.76955 0.0
H1095 H 0.33662 0.09143 0.80468 0.0
H1096 H 0.35647 0.06112 0.68733 0.0
H1097 H 0.23742 0.02436 0.72119 0.0
H1098 H 0.26939 0.06154 0.73122 0.0
H1099 H 0.26013 0.02801 0.75348 0.0
C1100 C 0.36053 0.13293 0.7399 0.0
C1101 C 0.35647 0.12743 0.7709 0.0
C1102 C 0.34713 0.10821 0.71956 0.0
C1103 C 0.32964 0.07777 0.73001 0.0
C1104 C 0.32673 0.07238 0.7609 0.0
H1105 H 0.28553 0.89948 0.67576 0.0
H1106 H 0.31204 0.95495 0.68461 0.0
C1107 C 0.33967 0.09678 0.78101 0.0
C1108 C 0.31426 0.05101 0.70942 0.0
H1109 H 0.246 0.98428 0.70132 0.0
C1110 C 0.33215 0.04456 0.68975 0.0
C1111 C 0.28237 0.02977 0.71185 0.0
C1112 C 0.2612 0.03648 0.73034 0.0
C1113 C 0.31941 0.01632 0.67431 0.0
C1114 C 0.28825 0.99358 0.67953 0.0
C1115 C 0.26998 1.00121 0.69744 0.0
C1116 C 0.27447 0.96105 0.66901 0.0
C1117 C 0.33963 0.01124 0.65282 0.0
C1118 C 0.24435 0.94553 0.65741 0.0
C1119 C 0.22876 0.91358 0.65356 0.0
C1120 C 0.24327 0.89658 0.66034 0.0
C1121 C 0.27405 0.91219 0.66988 0.0
C1122 C 0.28932 0.94404 0.67469 0.0
H1123 H 0.35653 0.03322 0.64197 0.0
H1124 H 0.35292 1.00265 0.66535 0.0
H1125 H 0.32596 0.99434 0.63513 0.0
H1126 H 0.23228 0.95792 0.65275 0.0
H1127 H 0.205 0.90201 0.6462 0.0
H1128 H 0.8035 0.69967 0.97312 0.0
H1129 H 0.77288 0.7244 0.96643 0.0
H1130 H 0.69356 0.64472 0.00317 0.0
H1131 H 0.72415 0.61924 0.00951 0.0
H1132 H 0.6809 0.66221 0.95027 0.0
H1133 H 0.74079 0.76493 0.02206 0.0
H1134 H 0.76766 0.76177 -0.00201 0.0
H1135 H 0.74675 0.73241 0.02563 0.0
C1136 C 0.77967 0.68743 0.98028 0.0
C1137 C 0.76632 0.65733 0.9918 0.0
C1138 C 0.76222 0.70183 0.9767 0.0
C1139 C 0.73102 0.68672 0.98479 0.0
C1140 C 0.71769 0.65697 -0.00295 0.0
H1141 H 0.60684 0.75171 0.91793 0.0
H1142 H 0.6254 0.72644 0.95248 0.0
C1143 C 0.73523 0.64246 0.00071 0.0
C1144 C 0.71203 0.70097 0.97725 0.0
H1145 H 0.71318 0.76965 0.97932 0.0
C1146 C 0.68735 0.68537 0.95729 0.0
C1147 C 0.72037 0.73117 0.98648 0.0
C1148 C 0.74514 0.74837 0.00948 0.0
C1149 C 0.67247 0.70004 0.94449 0.0
C1150 C 0.68239 0.73101 0.95206 0.0
C1151 C 0.70571 0.74595 0.97345 0.0
C1152 C 0.67182 0.74932 0.93492 0.0
C1153 C 0.6477 0.68307 0.92139 0.0
C1154 C 0.69209 0.7714 0.91454 0.0
C1155 C 0.68161 0.78573 0.89484 0.0
C1156 C 0.65066 0.7785 0.89529 0.0
C1157 C 0.63084 0.7579 0.91713 0.0
C1158 C 0.64133 0.74328 0.93672 0.0
H1159 H 0.64471 0.66011 0.91596 0.0
H1160 H 0.62545 0.67976 0.92989 0.0
H1161 H 0.65329 0.6968 0.90048 0.0
H1162 H 0.71572 0.77643 0.91284 0.0
H1163 H 0.69751 0.8016 0.87841 0.0
H1164 H 0.10753 0.80486 0.13607 0.0
H1165 H 0.0521 0.77417 0.12983 0.0
H1166 H 0.05224 0.69636 0.17063 0.0
H1167 H 0.10833 0.72696 0.17654 0.0
H1168 H 0.02216 0.68153 0.11777 0.0
H1169 H 0.97945 0.7445 0.1851 0.0
H1170 H 0.00951 0.77033 0.16047 0.0
H1171 H 0.01791 0.75058 0.1894 0.0
C1172 C 0.09587 0.78138 0.14423 0.0
C1173 C 0.11255 0.76841 0.15674 0.0
C1174 C 0.06398 0.7639 0.1409 0.0
C1175 C 0.04783 0.73308 0.15024 0.0
C1176 C 0.06419 0.7202 0.16354 0.0
H1177 H 0.85877 0.60715 0.08384 0.0
H1178 H 0.90222 0.62661 0.11901 0.0
C1179 C 0.09625 0.73775 0.16693 0.0
C1180 C 0.01459 0.71383 0.14283 0.0
H1181 H 0.94718 0.71525 0.14284 0.0
C1182 C 0.00549 0.68832 0.12396 0.0
C1183 C 0.99276 0.72259 0.15099 0.0
C1184 C 1.00036 0.74831 0.17288 0.0
C1185 C 0.97598 0.67298 0.11109 0.0
C1186 C 0.95501 0.6833 0.11748 0.0
C1187 C 0.96337 0.70747 0.13788 0.0
C1188 C 0.92637 0.67232 0.09985 0.0
C1189 C 0.96818 0.64728 0.08908 0.0
C1190 C 0.92507 0.69193 0.07831 0.0
C1191 C 0.90052 0.68093 0.05826 0.0
C1192 C 0.87654 0.65012 0.0595 0.0
C1193 C 0.87682 0.63102 0.08241 0.0
C1194 C 0.90168 0.64202 0.10237 0.0
H1195 H 0.98805 0.64384 0.08459 0.0
H1196 H 0.94899 0.62546 0.09806 0.0
H1197 H 0.96039 0.65218 0.06758 0.0
H1198 H 0.94386 0.71539 0.07604 0.0
H1199 H 0.9009 0.69629 0.04102 0.0
H1200 H 0.30952 0.10471 0.30659 0.0
H1201 H 0.2847 0.04931 0.3 0.0
H1202 H 0.36322 0.04931 0.33925 0.0
H1203 H 0.38875 0.10541 0.34555 0.0
H1204 H 0.34744 0.02 0.28568 0.0
H1205 H 0.24254 0.97578 0.35442 0.0
H1206 H 0.24642 0.0063 0.33067 0.0
H1207 H 0.27493 0.01419 0.35909 0.0
C1208 C 0.32143 0.093 0.31437 0.0
C1209 C 0.35125 0.10964 0.32652 0.0
C1210 C 0.30698 0.06114 0.31085 0.0
C1211 C 0.32181 0.04496 0.31958 0.0
C1212 C 0.3512 0.06127 0.33264 0.0
H1213 H 0.25802 0.85756 0.24782 0.0
H1214 H 0.28273 0.90025 0.28375 0.0
C1215 C 0.36572 0.09332 0.33629 0.0
C1216 C 0.30786 0.01185 0.31158 0.0
H1217 H 0.23901 0.94446 0.31107 0.0
C1218 C 0.32405 0.00318 0.29194 0.0
C1219 C 0.27736 0.98984 0.3198 0.0
C1220 C 0.25947 0.99696 0.34242 0.0
C1221 C 0.30972 0.97399 0.27836 0.0
C1222 C 0.27847 0.95286 0.28484 0.0
C1223 C 0.26293 0.96075 0.30603 0.0
C1224 C 0.26056 0.92464 0.26665 0.0
C1225 C 0.32736 0.96673 0.25553 0.0
C1226 C 0.23907 0.92368 0.24602 0.0
C1227 C 0.22506 0.89954 0.22554 0.0
C1228 C 0.23203 0.87563 0.22542 0.0
C1229 C 0.25208 0.87557 0.24741 0.0
C1230 C 0.26637 0.90001 0.26781 0.0
H1231 H 0.35054 0.98676 0.25099 0.0
H1232 H 0.33026 0.94747 0.26378 0.0
H1233 H 0.31435 0.95928 0.23418 0.0
H1234 H 0.23422 0.94242 0.2448 0.0
H1235 H 0.20958 0.90019 0.20905 0.0
H1236 H 0.33957 0.24817 0.3519 0.0
H1237 H 0.31769 0.26935 0.38614 0.0
H1238 H 0.35226 0.24159 0.46116 0.0
H1239 H 0.37561 0.22088 0.42633 0.0
H1240 H 0.27387 0.23923 0.42623 0.0
H1241 H 0.37902 0.33028 0.48277 0.0
H1242 H 0.38089 0.31087 0.44951 0.0
H1243 H 0.37231 0.2916 0.48501 0.0
C1244 C 0.34261 0.24638 0.37567 0.0
C1245 C 0.35909 0.23243 0.38636 0.0
C1246 C 0.33009 0.25866 0.39528 0.0
C1247 C 0.33327 0.25716 0.42627 0.0
C1248 C 0.34986 0.24343 0.43731 0.0
H1249 H 0.2073 0.30734 0.5131 0.0
H1250 H 0.23476 0.27892 0.50537 0.0
C1251 C 0.36298 0.23141 0.41744 0.0
C1252 C 0.31799 0.26933 0.4461 0.0
H1253 H 0.33214 0.32794 0.49422 0.0
C1254 C 0.28652 0.25839 0.44142 0.0
C1255 C 0.33458 0.29442 0.46578 0.0
C1256 C 0.36861 0.30774 0.47104 0.0
C1257 C 0.27165 0.27309 0.45398 0.0
C1258 C 0.28827 0.29856 0.47336 0.0
C1259 C 0.31935 0.30838 0.47952 0.0
C1260 C 0.27465 0.3171 0.48468 0.0
C1261 C 0.23895 0.26247 0.44434 0.0
C1262 C 0.2891 0.34878 0.47829 0.0
C1263 C 0.27398 0.36534 0.48396 0.0
C1264 C 0.24397 0.35034 0.49557 0.0
C1265 C 0.23035 0.31926 0.50385 0.0
C1266 C 0.2459 0.30297 0.49914 0.0
H1267 H 0.2327 0.24839 0.4236 0.0
H1268 H 0.22284 0.24794 0.46217 0.0
H1269 H 0.23545 0.28233 0.44021 0.0
H1270 H 0.31134 0.36033 0.46731 0.0
H1271 H 0.28485 0.3893 0.4773 0.0
H1272 H 0.10981 0.31061 0.54454 0.0
H1273 H 0.06655 0.29203 0.5792 0.0
H1274 H 0.10627 0.38231 0.61884 0.0
H1275 H 0.15 0.40124 0.58404 0.0
H1276 H 0.06251 0.29454 0.64575 0.0
H1277 H 0.02022 0.36204 0.58262 0.0
H1278 H 0.04853 0.35381 0.56701 0.0
H1279 H 0.05917 0.38165 0.59641 0.0
C1280 C 0.10972 0.32643 0.561 0.0
C1281 C 0.13323 0.35747 0.56139 0.0
C1282 C 0.085 0.31573 0.58085 0.0
C1283 C 0.08305 0.33587 0.60131 0.0
C1284 C 0.1073 0.36647 0.60303 0.0
H1285 H 0.90051 0.28235 0.67593 0.0
H1286 H 0.95654 0.31307 0.66972 0.0
C1287 C 0.13234 0.37718 0.58329 0.0
C1288 C 0.05418 0.32504 0.61857 0.0
H1289 H 0.98644 0.32567 0.61697 0.0
C1290 C 0.04607 0.30176 0.63995 0.0
C1291 C 0.03286 0.33461 0.61107 0.0
C1292 C 0.04036 0.35931 0.58796 0.0
C1293 C 0.01665 0.28683 0.65306 0.0
C1294 C 0.99453 0.29483 0.64391 0.0
C1295 C 1.00334 0.31946 0.62394 0.0
C1296 C 0.96134 0.27565 0.65163 0.0
C1297 C 0.00938 0.26214 0.67608 0.0
C1298 C 0.9454 0.24439 0.64373 0.0
C1299 C 0.91353 0.22683 0.64726 0.0
C1300 C 0.89664 0.24015 0.65852 0.0
C1301 C 0.91274 0.27128 0.66732 0.0
C1302 C 0.94478 0.2889 0.66374 0.0
H1303 H 0.0304 0.26676 0.6886 0.0
H1304 H 0.99175 0.26033 0.69227 0.0
H1305 H 1.0005 0.23964 0.6646 0.0
H1306 H 0.95743 0.23378 0.63358 0.0
H1307 H 0.90204 0.20298 0.64018 0.0
H1308 H 0.74875 0.14781 0.74649 0.0
H1309 H 0.72426 0.10493 0.78226 0.0
H1310 H 0.77702 0.06608 0.74592 0.0
H1311 H 0.80116 0.10835 0.71014 0.0
H1312 H 0.68945 0.04148 0.76118 0.0
H1313 H 0.78329 0.05919 0.83822 0.0
H1314 H 0.78397 0.09018 0.81693 0.0
H1315 H 0.79438 0.06433 0.79951 0.0
C1316 C 0.75571 0.13056 0.74674 0.0
C1317 C 0.77687 0.13142 0.72552 0.0
C1318 C 0.74162 0.10604 0.76706 0.0
C1319 C 0.74906 0.0825 0.76692 0.0
C1320 C 0.77131 0.08423 0.74676 0.0
H1321 H 0.69958 0.90221 0.80472 0.0
H1322 H 0.72286 0.95728 0.79677 0.0
C1323 C 0.78498 0.10835 0.72622 0.0
C1324 C 0.73135 0.05418 0.78503 0.0
H1325 H 0.74117 0.00718 0.8334 0.0
C1326 C 0.70041 0.03419 0.7776 0.0
C1327 C 0.7458 0.04481 0.80634 0.0
C1328 C 0.77863 0.06586 0.81598 0.0
C1329 C 0.68425 0.00407 0.78906 0.0
C1330 C 0.69931 0.994 0.80906 0.0
C1331 C 0.72963 0.01483 0.81805 0.0
C1332 C 0.6858 0.96102 0.81734 0.0
C1333 C 0.65205 0.98261 0.77786 0.0
C1334 C 0.65749 0.94473 0.83242 0.0
C1335 C 0.64382 0.91284 0.83687 0.0
C1336 C 0.65835 0.89677 0.82645 0.0
C1337 C 0.68747 0.91361 0.81283 0.0
C1338 C 0.70097 0.94525 0.80834 0.0
H1339 H 0.64586 0.99244 0.7586 0.0
H1340 H 0.64956 0.96022 0.77091 0.0
H1341 H 0.63533 0.97815 0.79612 0.0
H1342 H 0.64565 0.95653 0.84012 0.0
H1343 H 0.62148 0.90068 0.84758 0.0
H1344 H 0.16894 0.33263 0.37671 0.0
H1345 H 0.16388 0.32167 0.32297 0.0
H1346 H 0.2182 0.41876 0.30417 0.0
H1347 H 0.22352 0.43011 0.3576 0.0
H1348 H 0.14838 0.37711 0.28155 0.0
H1349 H 0.23334 0.34025 0.25249 0.0
H1350 H 0.21208 0.32854 0.28721 0.0
H1351 H 0.24153 0.36783 0.28209 0.0
C1352 C 0.1806 0.35162 0.3612 0.0
C1353 C 0.1963 0.3823 0.3714 0.0
C1354 C 0.17756 0.34526 0.33056 0.0
C1355 C 0.19046 0.36947 0.30992 0.0
C1356 C 0.20804 0.39987 0.31998 0.0
H1357 H 0.20219 0.42957 0.13573 0.0
H1358 H 0.19155 0.41773 0.18873 0.0
C1359 C 0.21104 0.40627 0.35049 0.0
C1360 C 0.18301 0.36383 0.27796 0.0
H1361 H 0.2083 0.34949 0.21259 0.0
C1362 C 0.16103 0.37053 0.26641 0.0
C1363 C 0.19933 0.35489 0.25865 0.0
C1364 C 0.22294 0.34737 0.27051 0.0
C1365 C 0.15613 0.37014 0.23556 0.0
C1366 C 0.17406 0.36336 0.21601 0.0
C1367 C 0.19462 0.35471 0.22773 0.0
C1368 C 0.17494 0.36898 0.18359 0.0
C1369 C 0.13253 0.3779 0.22413 0.0
C1370 C 0.16865 0.34536 0.16316 0.0
C1371 C 0.17474 0.35205 0.13279 0.0
C1372 C 0.18773 0.38259 0.12251 0.0
C1373 C 0.19234 0.40586 0.1429 0.0
C1374 C 0.18606 0.3991 0.17319 0.0
H1375 H 0.1143 0.37255 0.24106 0.0
H1376 H 0.14401 0.40293 0.21927 0.0
H1377 H 0.12158 0.36513 0.20322 0.0
H1378 H 0.16022 0.32202 0.17089 0.0
H1379 H 0.17091 0.33356 0.1177 0.0
H1380 H 0.80168 0.22087 0.51917 0.0
H1381 H 0.8097 0.21499 0.46625 0.0
H1382 H 0.84496 0.1549 0.48893 0.0
H1383 H 0.83722 0.16066 0.54211 0.0
H1384 H 0.8711 0.21758 0.43408 0.0
H1385 H 0.75691 0.10947 0.43492 0.0
H1386 H 0.76405 0.14037 0.46028 0.0
H1387 H 0.78367 0.11913 0.46554 0.0
C1388 C 0.8118 0.20696 0.51302 0.0
C1389 C 0.81849 0.19097 0.5348 0.0
C1390 C 0.81638 0.20367 0.48283 0.0
C1391 C 0.8276 0.18432 0.47399 0.0
C1392 C 0.83624 0.16989 0.49558 0.0
H1393 H 0.84299 0.1647 0.28018 0.0
H1394 H 0.84631 0.15492 0.33333 0.0
C1395 C 0.83187 0.17333 0.52588 0.0
C1396 C 0.82722 0.17714 0.44211 0.0
H1397 H 0.77808 0.13082 0.38787 0.0
C1398 C 0.85124 0.19818 0.42389 0.0
C1399 C 0.80109 0.15183 0.42926 0.0
C1400 C 0.77485 0.12874 0.44835 0.0
C1401 C 0.849 0.19548 0.39268 0.0
C1402 C 0.82203 0.17118 0.37975 0.0
C1403 C 0.79874 0.14922 0.39805 0.0
C1404 C 0.81582 0.17126 0.34764 0.0
C1405 C 0.87444 0.21971 0.37363 0.0
C1406 C 0.79654 0.18241 0.33835 0.0
C1407 C 0.79469 0.18819 0.30819 0.0
C1408 C 0.81199 0.1827 0.28688 0.0
C1409 C 0.82937 0.16916 0.29608 0.0
C1410 C 0.83141 0.16365 0.32637 0.0
H1411 H 0.89334 0.23782 0.38728 0.0
H1412 H 0.88423 0.20875 0.35914 0.0
H1413 H 0.86506 0.2308 0.35879 0.0
H1414 H 0.78431 0.18832 0.35464 0.0
H1415 H 0.7809 0.19835 0.30175 0.0
H1416 H 0.57747 0.80146 0.69364 0.0
H1417 H 0.58738 0.80911 0.64004 0.0
H1418 H 0.6838 0.84202 0.65534 0.0
H1419 H 0.67419 0.83436 0.70919 0.0
H1420 H 0.63233 0.86226 0.60348 0.0
H1421 H 0.64917 0.7603 0.60411 0.0
H1422 H 0.63058 0.76808 0.63475 0.0
H1423 H 0.67138 0.79146 0.62962 0.0
C1424 C 0.6009 0.81094 0.68572 0.0
C1425 C 0.62496 0.81682 0.70554 0.0
C1426 C 0.60652 0.81535 0.65514 0.0
C1427 C 0.63618 0.82558 0.64399 0.0
C1428 C 0.66071 0.83378 0.66375 0.0
H1429 H 0.66478 0.82066 0.45102 0.0
H1430 H 0.67588 0.82538 0.50461 0.0
C1431 C 0.65517 0.82954 0.69445 0.0
C1432 C 0.64028 0.8245 0.61159 0.0
H1433 H 0.64405 0.77855 0.5574 0.0
C1434 C 0.63555 0.84442 0.59332 0.0
C1435 C 0.6444 0.80105 0.59867 0.0
C1436 C 0.64906 0.77883 0.61765 0.0
C1437 C 0.63345 0.84061 0.56227 0.0
C1438 C 0.63569 0.81602 0.54953 0.0
C1439 C 0.6422 0.79721 0.56756 0.0
C1440 C 0.62861 0.80817 0.51784 0.0
C1441 C 0.62767 0.86212 0.54334 0.0
C1442 C 0.59814 0.79537 0.50803 0.0
C1443 C 0.59161 0.79252 0.47756 0.0
C1444 C 0.61557 0.80263 0.45652 0.0
C1445 C 0.6458 0.81293 0.46662 0.0
C1446 C 0.65227 0.81573 0.49717 0.0
H1447 H 0.63313 0.88352 0.55562 0.0
H1448 H 0.64162 0.8684 0.52252 0.0
H1449 H 0.60302 0.85039 0.53683 0.0
H1450 H 0.57962 0.78907 0.52394 0.0
H1451 H 0.56805 0.78417 0.47061 0.0
H1452 H 0.78929 0.57536 0.85481 0.0
H1453 H 0.79448 0.58761 0.80159 0.0
H1454 H 0.84366 0.68459 0.82202 0.0
H1455 H 0.83875 0.67276 0.87556 0.0
H1456 H 0.7888 0.65133 0.76938 0.0
H1457 H 0.89257 0.63794 0.76806 0.0
H1458 H 0.86024 0.61105 0.79028 0.0
H1459 H 0.88102 0.65089 0.80077 0.0
C1460 C 0.80068 0.59932 0.84812 0.0
C1461 C 0.81401 0.62309 0.86942 0.0
C1462 C 0.80361 0.60623 0.81774 0.0
C1463 C 0.81978 0.63691 0.80823 0.0
C1464 C 0.83122 0.66078 0.82923 0.0
H1465 H 0.83914 0.67492 0.61527 0.0
H1466 H 0.84891 0.6865 0.66863 0.0
C1467 C 0.82828 0.65392 0.85973 0.0
C1468 C 0.8267 0.64344 0.77633 0.0
H1469 H 0.86997 0.637 0.72107 0.0
C1470 C 0.80699 0.64904 0.75871 0.0
C1471 C 0.85052 0.64036 0.7629 0.0
C1472 C 0.87252 0.63491 0.78138 0.0
C1473 C 0.80927 0.64968 0.72746 0.0
C1474 C 0.83196 0.64476 0.71394 0.0
C1475 C 0.85276 0.64089 0.7317 0.0
C1476 C 0.83137 0.63912 0.68165 0.0
C1477 C 0.78617 0.65349 0.70904 0.0
C1478 C 0.81961 0.60884 0.67155 0.0
C1479 C 0.81392 0.60207 0.64123 0.0
C1480 C 0.82004 0.62557 0.62059 0.0
C1481 C 0.83408 0.65628 0.63062 0.0
C1482 C 0.83958 0.66298 0.66105 0.0
H1483 H 0.76861 0.65482 0.72312 0.0
H1484 H 0.79829 0.67489 0.69559 0.0
H1485 H 0.77423 0.63391 0.69323 0.0
H1486 H 0.8133 0.59021 0.68732 0.0
H1487 H 0.8034 0.57826 0.63417 0.0
H1488 H 0.22999 0.80981 0.80044 0.0
H1489 H 0.22713 0.82004 0.85339 0.0
H1490 H 0.16347 0.85162 0.83315 0.0
H1491 H 0.16621 0.84161 0.77994 0.0
H1492 H 0.23247 0.87647 0.88732 0.0
H1493 H 0.11798 0.76854 0.88643 0.0
H1494 H 0.14616 0.77647 0.85755 0.0
H1495 H 0.12631 0.79785 0.8588 0.0
C1496 C 0.21597 0.81965 0.80712 0.0
C1497 C 0.19798 0.82448 0.78613 0.0
C1498 C 0.21445 0.82556 0.83732 0.0
C1499 C 0.19483 0.83618 0.84693 0.0
C1500 C 0.17864 0.8433 0.82593 0.0
H1501 H 0.17402 0.8472 0.04104 0.0
H1502 H 0.16657 0.85272 0.98784 0.0
C1503 C 0.18034 0.83765 0.7956 0.0
C1504 C 0.18869 0.83592 0.87909 0.0
H1505 H 0.13993 0.78887 0.93325 0.0
C1506 C 0.21192 0.85786 0.89745 0.0
C1507 C 0.16189 0.81132 0.89194 0.0
C1508 C 0.13656 0.78704 0.87283 0.0
C1509 C 0.20964 0.85501 0.92864 0.0
C1510 C 0.18362 0.8295 0.9414 0.0
C1511 C 0.1597 0.80841 0.92312 0.0
C1512 C 0.18305 0.82243 0.9733 0.0
C1513 C 0.23579 0.87813 0.94781 0.0
C1514 C 0.19364 0.80264 0.98238 0.0
C1515 C 0.19807 0.79947 0.01263 0.0
C1516 C 0.19188 0.81606 0.03421 0.0
C1517 C 0.17907 0.83412 0.02501 0.0
C1518 C 0.17484 0.83741 0.99468 0.0
H1519 H 0.25409 0.89709 0.93437 0.0
H1520 H 0.22694 0.88821 0.96449 0.0
H1521 H 0.24615 0.86643 0.96033 0.0
H1522 H 0.19996 0.79088 0.96594 0.0
H1523 H 0.20774 0.78521 0.01896 0.0
H1524 H 0.43467 0.23525 0.96668 0.0
H1525 H 0.4254 0.22997 0.02055 0.0
H1526 H 0.32868 0.16814 0.00515 0.0
H1527 H 0.33755 0.17334 0.95109 0.0
H1528 H 0.35873 0.22229 0.06011 0.0
H1529 H 0.39189 0.13194 0.04849 0.0
H1530 H 0.41134 0.16612 0.02586 0.0
H1531 H 0.37144 0.13922 0.01926 0.0
C1532 C 0.41127 0.2213 0.97471 0.0
C1533 C 0.38692 0.20429 0.95476 0.0
C1534 C 0.40604 0.21836 0.00541 0.0
C1535 C 0.37649 0.19837 0.01645 0.0
C1536 C 0.35161 0.18363 -0.00325 0.0
H1537 H 0.34282 0.1615 0.20796 0.0
H1538 H 0.33211 0.1546 0.1544 0.0
C1539 C 0.35676 0.18673 0.96595 0.0
C1540 C 0.37286 0.1897 0.0481 0.0
H1541 H 0.38827 0.14732 0.09738 0.0
C1542 C 0.36452 0.20549 0.06839 0.0
C1543 C 0.38056 0.16777 0.05839 0.0
C1544 C 0.38922 0.15008 0.03697 0.0
C1545 C 0.36522 0.20097 0.09923 0.0
C1546 C 0.37421 0.17996 0.10958 0.0
C1547 C 0.38125 0.16323 0.08916 0.0
C1548 C 0.38005 0.17806 0.14146 0.0
C1549 C 0.3581 0.21992 0.12058 0.0
C1550 C 0.41052 0.19183 0.15158 0.0
C1551 C 0.41683 0.19588 0.1821 0.0
C1552 C 0.39265 0.18619 0.20284 0.0
C1553 C 0.36202 0.16961 0.19258 0.0
C1554 C 0.35578 0.16569 0.16202 0.0
H1555 H 0.35495 0.23767 0.10885 0.0
H1556 H 0.33663 0.20457 0.133 0.0
H1557 H 0.37692 0.23153 0.13722 0.0
H1558 H 0.42948 0.20125 0.13581 0.0
H1559 H 0.44065 0.20838 0.18924 0.0
loop_
_geom_bond_atom_site_label_1
_geom_bond_atom_site_label_2
_geom_bond_distance
_geom_bond_site_symmetry_2
_ccdc_geom_bond_type
Sc0 O3 2.025 . S
Sc0 O10 2.105 . S
Sc0 O13 2.105 1_554 S
Sc0 O16 2.105 1_554 S
Sc0 O19 2.105 . S
Sc1 O3 2.025 . S
Sc1 O11 2.105 . S
Sc1 O15 2.105 . S
Sc1 O17 2.105 . S
Sc1 O21 2.105 . S
Sc2 O3 2.025 . S
Sc2 O12 2.105 . S
Sc2 O14 2.105 . S
Sc2 O18 2.105 . S
Sc2 O20 2.105 . S
O3 Sc0 2.025 . S
O3 Sc1 2.025 . S
O3 Sc2 2.025 . S
C4 O10 1.268 . S
C4 O20 1.268 . S
C5 O11 1.268 . S
C5 O19 1.268 . S
C6 O12 1.268 . S
C6 O21 1.268 . S
C7 O13 1.268 1_554 S
C7 O17 1.268 . S
C8 O14 1.268 1_556 S
C8 O16 1.268 . S
C9 O15 1.268 . S
C9 O18 1.268 . S
O10 Sc0 2.105 . S
O10 C4 1.268 . S
O11 Sc1 2.105 . S
O11 C5 1.268 . S
O12 Sc2 2.105 . S
O12 C6 1.268 . S
O13 Sc0 2.105 1_556 S
O13 C7 1.268 1_556 S
O14 Sc2 2.105 . S
O14 C8 1.268 1_554 S
O15 Sc1 2.105 . S
O15 C9 1.268 . S
O16 Sc0 2.105 1_556 S
O16 C8 1.268 . S
O17 Sc1 2.105 . S
O17 C7 1.268 . S
O18 Sc2 2.105 . S
O18 C9 1.268 . S
O19 Sc0 2.105 . S
O19 C5 1.268 . S
O20 Sc2 2.105 . S
O20 C4 1.268 . S
O21 Sc1 2.105 . S
O21 C6 1.268 . S
Sc22 O25 2.025 . S
Sc22 O32 2.105 . S
Sc22 O35 2.105 . S
Sc22 O38 2.105 . S
Sc22 O41 2.105 . S
Sc23 O25 2.025 . S
Sc23 O33 2.105 . S
Sc23 O37 2.105 . S
Sc23 O39 2.105 . S
Sc23 O43 2.105 . S
Sc24 O25 2.025 . S
Sc24 O34 2.105 . S
Sc24 O36 2.105 . S
Sc24 O40 2.105 . S
Sc24 O42 2.105 . S
O25 Sc22 2.025 . S
O25 Sc23 2.025 . S
O25 Sc24 2.025 . S
C26 O32 1.268 . S
C26 O42 1.268 . S
C27 O33 1.268 . S
C27 O41 1.268 . S
C28 O34 1.268 . S
C28 O43 1.268 . S
C29 O35 1.268 . S
C29 O39 1.268 . S
C30 O36 1.268 . S
C30 O38 1.268 . S
C31 O37 1.268 . S
C31 O40 1.268 . S
O32 Sc22 2.105 . S
O32 C26 1.268 . S
O33 Sc23 2.105 . S
O33 C27 1.268 . S
O34 Sc24 2.105 . S
O34 C28 1.268 . S
O35 Sc22 2.105 . S
O35 C29 1.268 . S
O36 Sc24 2.105 . S
O36 C30 1.268 . S
O37 Sc23 2.105 . S
O37 C31 1.268 . S
O38 Sc22 2.105 . S
O38 C30 1.268 . S
O39 Sc23 2.105 . S
O39 C29 1.268 . S
O40 Sc24 2.105 . S
O40 C31 1.268 . S
O41 Sc22 2.105 . S
O41 C27 1.268 . S
O42 Sc24 2.105 . S
O42 C26 1.268 . S
O43 Sc23 2.105 . S
O43 C28 1.268 . S
Sc44 O47 2.025 . S
Sc44 O54 2.105 . S
Sc44 O57 2.105 . S
Sc44 O60 2.105 . S
Sc44 O63 2.105 . S
Sc45 O47 2.025 . S
Sc45 O55 2.105 . S
Sc45 O59 2.105 . S
Sc45 O61 2.105 . S
Sc45 O65 2.105 . S
Sc46 O47 2.025 . S
Sc46 O56 2.105 . S
Sc46 O58 2.105 . S
Sc46 O62 2.105 . S
Sc46 O64 2.105 . S
O47 Sc44 2.025 . S
O47 Sc45 2.025 . S
O47 Sc46 2.025 . S
C48 O54 1.268 . S
C48 O64 1.268 . S
C49 O55 1.268 . S
C49 O63 1.268 . S
C50 O56 1.268 . S
C50 O65 1.268 . S
C51 O57 1.268 . S
C51 O61 1.268 . S
C52 O58 1.268 . S
C52 O60 1.268 . S
C53 O59 1.268 . S
C53 O62 1.268 . S
O54 Sc44 2.105 . S
O54 C48 1.268 . S
O55 Sc45 2.105 . S
O55 C49 1.268 . S
O56 Sc46 2.105 . S
O56 C50 1.268 . S
O57 Sc44 2.105 . S
O57 C51 1.268 . S
O58 Sc46 2.105 . S
O58 C52 1.268 . S
O59 Sc45 2.105 . S
O59 C53 1.268 . S
O60 Sc44 2.105 . S
O60 C52 1.268 . S
O61 Sc45 2.105 . S
O61 C51 1.268 . S
O62 Sc46 2.105 . S
O62 C53 1.268 . S
O63 Sc44 2.105 . S
O63 C49 1.268 . S
O64 Sc46 2.105 . S
O64 C48 1.268 . S
O65 Sc45 2.105 . S
O65 C50 1.268 . S
Sc66 O69 2.025 . S
Sc66 O76 2.105 . S
Sc66 O79 2.105 . S
Sc66 O82 2.105 . S
Sc66 O85 2.105 . S
Sc67 O69 2.025 . S
Sc67 O77 2.105 . S
Sc67 O81 2.105 . S
Sc67 O83 2.105 . S
Sc67 O87 2.105 . S
Sc68 O69 2.025 . S
Sc68 O78 2.105 . S
Sc68 O80 2.105 . S
Sc68 O84 2.105 . S
Sc68 O86 2.105 . S
O69 Sc66 2.025 . S
O69 Sc67 2.025 . S
O69 Sc68 2.025 . S
C70 O76 1.268 . S
C70 O86 1.268 . S
C71 O77 1.268 . S
C71 O85 1.268 . S
C72 O78 1.268 . S
C72 O87 1.268 . S
C73 O79 1.268 . S
C73 O83 1.268 . S
C74 O80 1.268 . S
C74 O82 1.268 . S
C75 O81 1.268 . S
C75 O84 1.268 . S
O76 Sc66 2.105 . S
O76 C70 1.268 . S
O77 Sc67 2.105 . S
O77 C71 1.268 . S
O78 Sc68 2.105 . S
O78 C72 1.268 . S
O79 Sc66 2.105 . S
O79 C73 1.268 . S
O80 Sc68 2.105 . S
O80 C74 1.268 . S
O81 Sc67 2.105 . S
O81 C75 1.268 . S
O82 Sc66 2.105 . S
O82 C74 1.268 . S
O83 Sc67 2.105 . S
O83 C73 1.268 . S
O84 Sc68 2.105 . S
O84 C75 1.268 . S
O85 Sc66 2.105 . S
O85 C71 1.268 . S
O86 Sc68 2.105 . S
O86 C70 1.268 . S
O87 Sc67 2.105 . S
O87 C72 1.268 . S
Sc88 O91 2.025 . S
Sc88 O98 2.105 . S
Sc88 O101 2.105 . S
Sc88 O104 2.105 . S
Sc88 O107 2.105 . S
Sc89 O91 2.025 . S
Sc89 O99 2.105 . S
Sc89 O103 2.105 . S
Sc89 O105 2.105 . S
Sc89 O109 2.105 . S
Sc90 O91 2.025 . S
Sc90 O100 2.105 . S
Sc90 O102 2.105 . S
Sc90 O106 2.105 . S
Sc90 O108 2.105 . S
O91 Sc88 2.025 . S
O91 Sc89 2.025 . S
O91 Sc90 2.025 . S
C92 O98 1.268 . S
C92 O108 1.268 . S
C93 O99 1.268 . S
C93 O107 1.268 . S
C94 O100 1.268 . S
C94 O109 1.268 . S
C95 O101 1.268 . S
C95 O105 1.268 . S
C96 O102 1.268 . S
C96 O104 1.268 . S
C97 O103 1.268 . S
C97 O106 1.268 . S
O98 Sc88 2.105 . S
O98 C92 1.268 . S
O99 Sc89 2.105 . S
O99 C93 1.268 . S
O100 Sc90 2.105 . S
O100 C94 1.268 . S
O101 Sc88 2.105 . S
O101 C95 1.268 . S
O102 Sc90 2.105 . S
O102 C96 1.268 . S
O103 Sc89 2.105 . S
O103 C97 1.268 . S
O104 Sc88 2.105 . S
O104 C96 1.268 . S
O105 Sc89 2.105 . S
O105 C95 1.268 . S
O106 Sc90 2.105 . S
O106 C97 1.268 . S
O107 Sc88 2.105 . S
O107 C93 1.268 . S
O108 Sc90 2.105 . S
O108 C92 1.268 . S
O109 Sc89 2.105 . S
O109 C94 1.268 . S
Sc110 O113 2.025 . S
Sc110 O120 2.105 . S
Sc110 O123 2.105 . S
Sc110 O126 2.105 . S
Sc110 O129 2.105 . S
Sc111 O113 2.025 . S
Sc111 O121 2.105 . S
Sc111 O125 2.105 . S
Sc111 O127 2.105 . S
Sc111 O131 2.105 . S
Sc112 O113 2.025 . S
Sc112 O122 2.105 . S
Sc112 O124 2.105 . S
Sc112 O128 2.105 . S
Sc112 O130 2.105 . S
O113 Sc110 2.025 . S
O113 Sc111 2.025 . S
O113 Sc112 2.025 . S
C114 O120 1.268 . S
C114 O130 1.268 . S
C115 O121 1.268 . S
C115 O129 1.268 . S
C116 O122 1.268 . S
C116 O131 1.268 . S
C117 O123 1.268 . S
C117 O127 1.268 . S
C118 O124 1.268 . S
C118 O126 1.268 . S
C119 O125 1.268 . S
C119 O128 1.268 . S
O120 Sc110 2.105 . S
O120 C114 1.268 . S
O121 Sc111 2.105 . S
O121 C115 1.268 . S
O122 Sc112 2.105 . S
O122 C116 1.268 . S
O123 Sc110 2.105 . S
O123 C117 1.268 . S
O124 Sc112 2.105 . S
O124 C118 1.268 . S
O125 Sc111 2.105 . S
O125 C119 1.268 . S
O126 Sc110 2.105 . S
O126 C118 1.268 . S
O127 Sc111 2.105 . S
O127 C117 1.268 . S
O128 Sc112 2.105 . S
O128 C119 1.268 . S
O129 Sc110 2.105 . S
O129 C115 1.268 . S
O130 Sc112 2.105 . S
O130 C114 1.268 . S
O131 Sc111 2.105 . S
O131 C116 1.268 . S
Sc132 O135 2.025 . S
Sc132 O142 2.105 . S
Sc132 O145 2.105 . S
Sc132 O148 2.105 . S
Sc132 O151 2.105 . S
Sc133 O135 2.025 . S
Sc133 O143 2.105 . S
Sc133 O147 2.105 . S
Sc133 O149 2.105 . S
Sc133 O153 2.105 . S
Sc134 O135 2.025 . S
Sc134 O144 2.105 . S
Sc134 O146 2.105 . S
Sc134 O150 2.105 . S
Sc134 O152 2.105 . S
O135 Sc132 2.025 . S
O135 Sc133 2.025 . S
O135 Sc134 2.025 . S
C136 O142 1.268 . S
C136 O152 1.268 . S
C137 O143 1.268 . S
C137 O151 1.268 . S
C138 O144 1.268 . S
C138 O153 1.268 . S
C139 O145 1.268 . S
C139 O149 1.268 . S
C140 O146 1.268 . S
C140 O148 1.268 . S
C141 O147 1.268 . S
C141 O150 1.268 . S
O142 Sc132 2.105 . S
O142 C136 1.268 . S
O143 Sc133 2.105 . S
O143 C137 1.268 . S
O144 Sc134 2.105 . S
O144 C138 1.268 . S
O145 Sc132 2.105 . S
O145 C139 1.268 . S
O146 Sc134 2.105 . S
O146 C140 1.268 . S
O147 Sc133 2.105 . S
O147 C141 1.268 . S
O148 Sc132 2.105 . S
O148 C140 1.268 . S
O149 Sc133 2.105 . S
O149 C139 1.268 . S
O150 Sc134 2.105 . S
O150 C141 1.268 . S
O151 Sc132 2.105 . S
O151 C137 1.268 . S
O152 Sc134 2.105 . S
O152 C136 1.268 . S
O153 Sc133 2.105 . S
O153 C138 1.268 . S
Sc154 O157 2.025 . S
Sc154 O164 2.105 . S
Sc154 O167 2.105 . S
Sc154 O170 2.105 . S
Sc154 O173 2.105 . S
Sc155 O157 2.025 . S
Sc155 O165 2.105 . S
Sc155 O169 2.105 . S
Sc155 O171 2.105 . S
Sc155 O175 2.105 . S
Sc156 O157 2.025 . S
Sc156 O166 2.105 1_556 S
Sc156 O168 2.105 . S
Sc156 O172 2.105 . S
Sc156 O174 2.105 1_556 S
O157 Sc154 2.025 . S
O157 Sc155 2.025 . S
O157 Sc156 2.025 . S
C158 O164 1.268 1_554 S
C158 O174 1.268 . S
C159 O165 1.268 . S
C159 O173 1.268 . S
C160 O166 1.268 1_556 S
C160 O175 1.268 . S
C161 O167 1.268 . S
C161 O171 1.268 . S
C162 O168 1.268 . S
C162 O170 1.268 . S
C163 O169 1.268 . S
C163 O172 1.268 . S
O164 Sc154 2.105 . S
O164 C158 1.268 1_556 S
O165 Sc155 2.105 . S
O165 C159 1.268 . S
O166 Sc156 2.105 1_554 S
O166 C160 1.268 1_554 S
O167 Sc154 2.105 . S
O167 C161 1.268 . S
O168 Sc156 2.105 . S
O168 C162 1.268 . S
O169 Sc155 2.105 . S
O169 C163 1.268 . S
O170 Sc154 2.105 . S
O170 C162 1.268 . S
O171 Sc155 2.105 . S
O171 C161 1.268 . S
O172 Sc156 2.105 . S
O172 C163 1.268 . S
O173 Sc154 2.105 . S
O173 C159 1.268 . S
O174 Sc156 2.105 1_554 S
O174 C158 1.268 . S
O175 Sc155 2.105 . S
O175 C160 1.268 . S
Sc176 O179 2.025 . S
Sc176 O186 2.105 . S
Sc176 O189 2.105 . S
Sc176 O192 2.105 . S
Sc176 O195 2.105 . S
Sc177 O179 2.025 . S
Sc177 O187 2.105 . S
Sc177 O191 2.105 . S
Sc177 O193 2.105 . S
Sc177 O197 2.105 . S
Sc178 O179 2.025 . S
Sc178 O188 2.105 . S
Sc178 O190 2.105 . S
Sc178 O194 2.105 . S
Sc178 O196 2.105 . S
O179 Sc176 2.025 . S
O179 Sc177 2.025 . S
O179 Sc178 2.025 . S
C180 O186 1.268 . S
C180 O196 1.268 . S
C181 O187 1.268 . S
C181 O195 1.268 . S
C182 O188 1.268 . S
C182 O197 1.268 . S
C183 O189 1.268 . S
C183 O193 1.268 . S
C184 O190 1.268 . S
C184 O192 1.268 . S
C185 O191 1.268 . S
C185 O194 1.268 . S
O186 Sc176 2.105 . S
O186 C180 1.268 . S
O187 Sc177 2.105 . S
O187 C181 1.268 . S
O188 Sc178 2.105 . S
O188 C182 1.268 . S
O189 Sc176 2.105 . S
O189 C183 1.268 . S
O190 Sc178 2.105 . S
O190 C184 1.268 . S
O191 Sc177 2.105 . S
O191 C185 1.268 . S
O192 Sc176 2.105 . S
O192 C184 1.268 . S
O193 Sc177 2.105 . S
O193 C183 1.268 . S
O194 Sc178 2.105 . S
O194 C185 1.268 . S
O195 Sc176 2.105 . S
O195 C181 1.268 . S
O196 Sc178 2.105 . S
O196 C180 1.268 . S
O197 Sc177 2.105 . S
O197 C182 1.268 . S
Sc198 O201 2.025 . S
Sc198 O208 2.105 . S
Sc198 O211 2.105 . S
Sc198 O214 2.105 . S
Sc198 O217 2.105 . S
Sc199 O201 2.025 . S
Sc199 O209 2.105 . S
Sc199 O213 2.105 . S
Sc199 O215 2.105 . S
Sc199 O219 2.105 . S
Sc200 O201 2.025 . S
Sc200 O210 2.105 . S
Sc200 O212 2.105 . S
Sc200 O216 2.105 . S
Sc200 O218 2.105 . S
O201 Sc198 2.025 . S
O201 Sc199 2.025 . S
O201 Sc200 2.025 . S
C202 O208 1.268 . S
C202 O218 1.268 . S
C203 O209 1.268 . S
C203 O217 1.268 . S
C204 O210 1.268 . S
C204 O219 1.268 . S
C205 O211 1.268 . S
C205 O215 1.268 . S
C206 O212 1.268 . S
C206 O214 1.268 . S
C207 O213 1.268 . S
C207 O216 1.268 . S
O208 Sc198 2.105 . S
O208 C202 1.268 . S
O209 Sc199 2.105 . S
O209 C203 1.268 . S
O210 Sc200 2.105 . S
O210 C204 1.268 . S
O211 Sc198 2.105 . S
O211 C205 1.268 . S
O212 Sc200 2.105 . S
O212 C206 1.268 . S
O213 Sc199 2.105 . S
O213 C207 1.268 . S
O214 Sc198 2.105 . S
O214 C206 1.268 . S
O215 Sc199 2.105 . S
O215 C205 1.268 . S
O216 Sc200 2.105 . S
O216 C207 1.268 . S
O217 Sc198 2.105 . S
O217 C203 1.268 . S
O218 Sc200 2.105 . S
O218 C202 1.268 . S
O219 Sc199 2.105 . S
O219 C204 1.268 . S
Sc220 O223 2.025 . S
Sc220 O230 2.105 . S
Sc220 O233 2.105 . S
Sc220 O236 2.105 . S
Sc220 O239 2.105 . S
Sc221 O223 2.025 . S
Sc221 O231 2.105 . S
Sc221 O235 2.105 . S
Sc221 O237 2.105 . S
Sc221 O241 2.105 . S
Sc222 O223 2.025 . S
Sc222 O232 2.105 . S
Sc222 O234 2.105 . S
Sc222 O238 2.105 . S
Sc222 O240 2.105 . S
O223 Sc220 2.025 . S
O223 Sc221 2.025 . S
O223 Sc222 2.025 . S
C224 O230 1.268 . S
C224 O240 1.268 . S
C225 O231 1.268 . S
C225 O239 1.268 . S
C226 O232 1.268 . S
C226 O241 1.268 . S
C227 O233 1.268 . S
C227 O237 1.268 . S
C228 O234 1.268 . S
C228 O236 1.268 . S
C229 O235 1.268 . S
C229 O238 1.268 . S
O230 Sc220 2.105 . S
O230 C224 1.268 . S
O231 Sc221 2.105 . S
O231 C225 1.268 . S
O232 Sc222 2.105 . S
O232 C226 1.268 . S
O233 Sc220 2.105 . S
O233 C227 1.268 . S
O234 Sc222 2.105 . S
O234 C228 1.268 . S
O235 Sc221 2.105 . S
O235 C229 1.268 . S
O236 Sc220 2.105 . S
O236 C228 1.268 . S
O237 Sc221 2.105 . S
O237 C227 1.268 . S
O238 Sc222 2.105 . S
O238 C229 1.268 . S
O239 Sc220 2.105 . S
O239 C225 1.268 . S
O240 Sc222 2.105 . S
O240 C224 1.268 . S
O241 Sc221 2.105 . S
O241 C226 1.268 . S
Sc242 O245 2.025 . S
Sc242 O252 2.105 . S
Sc242 O255 2.105 . S
Sc242 O258 2.105 . S
Sc242 O261 2.105 . S
Sc243 O245 2.025 . S
Sc243 O253 2.105 . S
Sc243 O257 2.105 . S
Sc243 O259 2.105 . S
Sc243 O263 2.105 . S
Sc244 O245 2.025 . S
Sc244 O254 2.105 . S
Sc244 O256 2.105 . S
Sc244 O260 2.105 . S
Sc244 O262 2.105 . S
O245 Sc242 2.025 . S
O245 Sc243 2.025 . S
O245 Sc244 2.025 . S
C246 O252 1.268 . S
C246 O262 1.268 . S
C247 O253 1.268 . S
C247 O261 1.268 . S
C248 O254 1.268 . S
C248 O263 1.268 . S
C249 O255 1.268 . S
C249 O259 1.268 . S
C250 O256 1.268 . S
C250 O258 1.268 . S
C251 O257 1.268 . S
C251 O260 1.268 . S
O252 Sc242 2.105 . S
O252 C246 1.268 . S
O253 Sc243 2.105 . S
O253 C247 1.268 . S
O254 Sc244 2.105 . S
O254 C248 1.268 . S
O255 Sc242 2.105 . S
O255 C249 1.268 . S
O256 Sc244 2.105 . S
O256 C250 1.268 . S
O257 Sc243 2.105 . S
O257 C251 1.268 . S
O258 Sc242 2.105 . S
O258 C250 1.268 . S
O259 Sc243 2.105 . S
O259 C249 1.268 . S
O260 Sc244 2.105 . S
O260 C251 1.268 . S
O261 Sc242 2.105 . S
O261 C247 1.268 . S
O262 Sc244 2.105 . S
O262 C246 1.268 . S
O263 Sc243 2.105 . S
O263 C248 1.268 . S
H264 C272 0.929 . S
H265 C274 0.930 . S
H266 C276 0.930 . S
H267 C279 0.929 . S
H268 C282 0.930 . S
H269 C284 0.960 . S
H270 C284 0.960 . S
H271 C284 0.960 . S
C272 H264 0.929 . S
C272 C273 1.377 . S
C272 C274 1.384 . S
C273 C272 1.377 . S
C273 C279 1.390 . S
C274 H265 0.930 . S
C274 C272 1.384 . S
C274 C275 1.372 . S
C275 C274 1.372 . S
C275 C276 1.400 . S
C275 C280 1.490 . S
C276 H266 0.930 . S
C276 C275 1.400 . S
C276 C279 1.386 . S
H277 C293 0.930 . S
H278 C294 0.931 . S
C279 H267 0.929 . S
C279 C273 1.390 . S
C279 C276 1.386 . S
C280 C275 1.490 . S
C280 C282 1.395 . S
C280 C283 1.403 . S
H281 C287 0.930 . S
C282 H268 0.930 . S
C282 C280 1.395 . S
C282 C285 1.403 . S
C283 C280 1.403 . S
C283 C284 1.524 . S
C283 C287 1.400 . S
C284 H269 0.960 . S
C284 H270 0.960 . S
C284 H271 0.960 . S
C284 C283 1.524 . S
C285 C282 1.403 . S
C285 C286 1.392 . S
C285 C289 1.495 . S
C286 C285 1.392 . S
C286 C287 1.385 . S
C286 C288 1.478 . S
C287 H281 0.930 . S
C287 C283 1.400 . S
C287 C286 1.385 . S
C288 C286 1.478 . S
C288 C290 1.381 . S
C288 C294 1.383 . S
C289 C285 1.495 . S
C289 H295 0.959 . S
C289 H296 0.961 . S
C289 H297 0.960 . S
C290 C288 1.381 . S
C290 C291 1.394 . S
C290 H298 0.930 . S
C291 C290 1.394 . S
C291 C292 1.383 . S
C291 H299 0.929 . S
C292 C291 1.383 . S
C292 C293 1.377 . S
C293 H277 0.930 . S
C293 C292 1.377 . S
C293 C294 1.379 . S
C294 H278 0.931 . S
C294 C288 1.383 . S
C294 C293 1.379 . S
H295 C289 0.959 . S
H296 C289 0.961 . S
H297 C289 0.960 . S
H298 C290 0.930 . S
H299 C291 0.929 . S
H300 C308 0.929 . S
H301 C310 0.930 . S
H302 C312 0.930 . S
H303 C315 0.929 . S
H304 C318 0.930 . S
H305 C320 0.960 . S
H306 C320 0.960 . S
H307 C320 0.960 . S
C308 H300 0.929 . S
C308 C309 1.377 . S
C308 C310 1.384 . S
C309 C308 1.377 . S
C309 C315 1.390 . S
C310 H301 0.930 . S
C310 C308 1.384 . S
C310 C311 1.372 . S
C311 C310 1.372 . S
C311 C312 1.400 . S
C311 C316 1.490 . S
C312 H302 0.930 . S
C312 C311 1.400 . S
C312 C315 1.386 . S
H313 C329 0.930 . S
H314 C330 0.931 . S
C315 H303 0.929 . S
C315 C309 1.390 . S
C315 C312 1.386 . S
C316 C311 1.490 . S
C316 C318 1.395 . S
C316 C319 1.403 . S
H317 C323 0.930 . S
C318 H304 0.930 . S
C318 C316 1.395 . S
C318 C321 1.403 . S
C319 C316 1.403 . S
C319 C320 1.524 . S
C319 C323 1.400 . S
C320 H305 0.960 . S
C320 H306 0.960 . S
C320 H307 0.960 . S
C320 C319 1.524 . S
C321 C318 1.403 . S
C321 C322 1.392 . S
C321 C325 1.495 . S
C322 C321 1.392 . S
C322 C323 1.385 . S
C322 C324 1.478 . S
C323 H317 0.930 . S
C323 C319 1.400 . S
C323 C322 1.385 . S
C324 C322 1.478 . S
C324 C326 1.381 . S
C324 C330 1.383 . S
C325 C321 1.495 . S
C325 H331 0.959 . S
C325 H332 0.961 . S
C325 H333 0.960 . S
C326 C324 1.381 . S
C326 C327 1.394 . S
C326 H334 0.930 . S
C327 C326 1.394 . S
C327 C328 1.383 . S
C327 H335 0.929 . S
C328 C327 1.383 . S
C328 C329 1.377 . S
C329 H313 0.930 . S
C329 C328 1.377 . S
C329 C330 1.379 . S
C330 H314 0.931 . S
C330 C324 1.383 . S
C330 C329 1.379 . S
H331 C325 0.959 . S
H332 C325 0.961 . S
H333 C325 0.960 . S
H334 C326 0.930 . S
H335 C327 0.929 . S
H336 C344 0.929 . S
H337 C346 0.930 . S
H338 C348 0.930 . S
H339 C351 0.929 . S
H340 C354 0.930 . S
H341 C356 0.960 . S
H342 C356 0.960 . S
H343 C356 0.960 . S
C344 H336 0.929 . S
C344 C345 1.377 . S
C344 C346 1.384 . S
C345 C344 1.377 . S
C345 C351 1.390 . S
C346 H337 0.930 . S
C346 C344 1.384 . S
C346 C347 1.372 . S
C347 C346 1.372 . S
C347 C348 1.400 . S
C347 C352 1.490 . S
C348 H338 0.930 . S
C348 C347 1.400 . S
C348 C351 1.386 . S
H349 C365 0.930 . S
H350 C366 0.931 . S
C351 H339 0.929 . S
C351 C345 1.390 . S
C351 C348 1.386 . S
C352 C347 1.490 . S
C352 C354 1.395 . S
C352 C355 1.403 . S
H353 C359 0.930 . S
C354 H340 0.930 . S
C354 C352 1.395 . S
C354 C357 1.403 . S
C355 C352 1.403 . S
C355 C356 1.524 . S
C355 C359 1.400 . S
C356 H341 0.960 . S
C356 H342 0.960 . S
C356 H343 0.960 . S
C356 C355 1.524 . S
C357 C354 1.403 . S
C357 C358 1.392 . S
C357 C361 1.495 . S
C358 C357 1.392 . S
C358 C359 1.385 . S
C358 C360 1.478 . S
C359 H353 0.930 . S
C359 C355 1.400 . S
C359 C358 1.385 . S
C360 C358 1.478 . S
C360 C362 1.381 . S
C360 C366 1.383 . S
C361 C357 1.495 . S
C361 H367 0.959 . S
C361 H368 0.961 . S
C361 H369 0.960 . S
C362 C360 1.381 . S
C362 C363 1.394 . S
C362 H370 0.930 . S
C363 C362 1.394 . S
C363 C364 1.383 . S
C363 H371 0.929 . S
C364 C363 1.383 . S
C364 C365 1.377 . S
C365 H349 0.930 . S
C365 C364 1.377 . S
C365 C366 1.379 . S
C366 H350 0.931 . S
C366 C360 1.383 . S
C366 C365 1.379 . S
H367 C361 0.959 . S
H368 C361 0.961 . S
H369 C361 0.960 . S
H370 C362 0.930 . S
H371 C363 0.929 . S
H372 C380 0.929 . S
H373 C382 0.930 . S
H374 C384 0.930 . S
H375 C387 0.929 . S
H376 C390 0.930 . S
H377 C392 0.960 . S
H378 C392 0.960 . S
H379 C392 0.960 . S
C380 H372 0.929 . S
C380 C381 1.377 . S
C380 C382 1.384 . S
C381 C380 1.377 . S
C381 C387 1.390 . S
C382 H373 0.930 . S
C382 C380 1.384 . S
C382 C383 1.372 . S
C383 C382 1.372 . S
C383 C384 1.400 . S
C383 C388 1.490 . S
C384 H374 0.930 . S
C384 C383 1.400 . S
C384 C387 1.386 . S
H385 C401 0.930 . S
H386 C402 0.931 . S
C387 H375 0.929 . S
C387 C381 1.390 . S
C387 C384 1.386 . S
C388 C383 1.490 . S
C388 C390 1.395 . S
C388 C391 1.403 . S
H389 C395 0.930 . S
C390 H376 0.930 . S
C390 C388 1.395 . S
C390 C393 1.403 . S
C391 C388 1.403 . S
C391 C392 1.524 . S
C391 C395 1.400 . S
C392 H377 0.960 . S
C392 H378 0.960 . S
C392 H379 0.960 . S
C392 C391 1.524 . S
C393 C390 1.403 . S
C393 C394 1.392 . S
C393 C397 1.495 . S
C394 C393 1.392 . S
C394 C395 1.385 . S
C394 C396 1.478 . S
C395 H389 0.930 . S
C395 C391 1.400 . S
C395 C394 1.385 . S
C396 C394 1.478 . S
C396 C398 1.381 . S
C396 C402 1.383 . S
C397 C393 1.495 . S
C397 H403 0.959 . S
C397 H404 0.961 . S
C397 H405 0.960 . S
C398 C396 1.381 . S
C398 C399 1.394 . S
C398 H406 0.930 . S
C399 C398 1.394 . S
C399 C400 1.383 . S
C399 H407 0.929 . S
C400 C399 1.383 . S
C400 C401 1.377 . S
C401 H385 0.930 . S
C401 C400 1.377 . S
C401 C402 1.379 . S
C402 H386 0.931 . S
C402 C396 1.383 . S
C402 C401 1.379 . S
H403 C397 0.959 . S
H404 C397 0.961 . S
H405 C397 0.960 . S
H406 C398 0.930 . S
H407 C399 0.929 . S
H408 C416 0.929 . S
H409 C418 0.930 . S
H410 C420 0.930 . S
H411 C423 0.929 . S
H412 C426 0.930 . S
H413 C428 0.960 . S
H414 C428 0.960 . S
H415 C428 0.960 . S
C416 H408 0.929 . S
C416 C417 1.377 . S
C416 C418 1.384 . S
C417 C416 1.377 . S
C417 C423 1.390 . S
C418 H409 0.930 . S
C418 C416 1.384 . S
C418 C419 1.372 . S
C419 C418 1.372 . S
C419 C420 1.400 . S
C419 C424 1.490 . S
C420 H410 0.930 . S
C420 C419 1.400 . S
C420 C423 1.386 . S
H421 C437 0.930 . S
H422 C438 0.931 . S
C423 H411 0.929 . S
C423 C417 1.390 . S
C423 C420 1.386 . S
C424 C419 1.490 . S
C424 C426 1.395 . S
C424 C427 1.403 . S
H425 C431 0.930 . S
C426 H412 0.930 . S
C426 C424 1.395 . S
C426 C429 1.403 . S
C427 C424 1.403 . S
C427 C428 1.524 . S
C427 C431 1.400 . S
C428 H413 0.960 . S
C428 H414 0.960 . S
C428 H415 0.960 . S
C428 C427 1.524 . S
C429 C426 1.403 . S
C429 C430 1.392 . S
C429 C433 1.495 . S
C430 C429 1.392 . S
C430 C431 1.385 . S
C430 C432 1.478 . S
C431 H425 0.930 . S
C431 C427 1.400 . S
C431 C430 1.385 . S
C432 C430 1.478 . S
C432 C434 1.381 . S
C432 C438 1.383 . S
C433 C429 1.495 . S
C433 H439 0.959 . S
C433 H440 0.961 . S
C433 H441 0.960 . S
C434 C432 1.381 . S
C434 C435 1.394 . S
C434 H442 0.930 . S
C435 C434 1.394 . S
C435 C436 1.383 . S
C435 H443 0.929 . S
C436 C435 1.383 . S
C436 C437 1.377 . S
C437 H421 0.930 . S
C437 C436 1.377 . S
C437 C438 1.379 . S
C438 H422 0.931 . S
C438 C432 1.383 . S
C438 C437 1.379 . S
H439 C433 0.959 . S
H440 C433 0.961 . S
H441 C433 0.960 . S
H442 C434 0.930 . S
H443 C435 0.929 . S
H444 C452 0.929 . S
H445 C454 0.930 . S
H446 C456 0.930 . S
H447 C459 0.929 . S
H448 C462 0.930 . S
H449 C464 0.960 . S
H450 C464 0.960 . S
H451 C464 0.960 . S
C452 H444 0.929 . S
C452 C453 1.377 . S
C452 C454 1.384 . S
C453 C452 1.377 . S
C453 C459 1.390 . S
C454 H445 0.930 . S
C454 C452 1.384 . S
C454 C455 1.372 . S
C455 C454 1.372 . S
C455 C456 1.400 . S
C455 C460 1.490 . S
C456 H446 0.930 . S
C456 C455 1.400 . S
C456 C459 1.386 . S
H457 C473 0.930 . S
H458 C474 0.931 . S
C459 H447 0.929 . S
C459 C453 1.390 . S
C459 C456 1.386 . S
C460 C455 1.490 . S
C460 C462 1.395 . S
C460 C463 1.403 . S
H461 C467 0.930 . S
C462 H448 0.930 . S
C462 C460 1.395 . S
C462 C465 1.403 . S
C463 C460 1.403 . S
C463 C464 1.524 . S
C463 C467 1.400 . S
C464 H449 0.960 . S
C464 H450 0.960 . S
C464 H451 0.960 . S
C464 C463 1.524 . S
C465 C462 1.403 . S
C465 C466 1.392 . S
C465 C469 1.495 . S
C466 C465 1.392 . S
C466 C467 1.385 . S
C466 C468 1.478 . S
C467 H461 0.930 . S
C467 C463 1.400 . S
C467 C466 1.385 . S
C468 C466 1.478 . S
C468 C470 1.381 . S
C468 C474 1.383 . S
C469 C465 1.495 . S
C469 H475 0.959 . S
C469 H476 0.961 . S
C469 H477 0.960 . S
C470 C468 1.381 . S
C470 C471 1.394 . S
C470 H478 0.930 . S
C471 C470 1.394 . S
C471 C472 1.383 . S
C471 H479 0.929 . S
C472 C471 1.383 . S
C472 C473 1.377 . S
C473 H457 0.930 . S
C473 C472 1.377 . S
C473 C474 1.379 . S
C474 H458 0.931 . S
C474 C468 1.383 . S
C474 C473 1.379 . S
H475 C469 0.959 . S
H476 C469 0.961 . S
H477 C469 0.960 . S
H478 C470 0.930 . S
H479 C471 0.929 . S
H480 C488 0.929 . S
H481 C490 0.930 . S
H482 C492 0.930 . S
H483 C495 0.929 . S
H484 C498 0.930 . S
H485 C500 0.960 . S
H486 C500 0.960 . S
H487 C500 0.960 . S
C488 H480 0.929 . S
C488 C489 1.377 . S
C488 C490 1.384 . S
C489 C488 1.377 . S
C489 C495 1.390 . S
C490 H481 0.930 . S
C490 C488 1.384 . S
C490 C491 1.372 . S
C491 C490 1.372 . S
C491 C492 1.400 . S
C491 C496 1.490 . S
C492 H482 0.930 . S
C492 C491 1.400 . S
C492 C495 1.386 . S
H493 C509 0.930 . S
H494 C510 0.931 . S
C495 H483 0.929 . S
C495 C489 1.390 . S
C495 C492 1.386 . S
C496 C491 1.490 . S
C496 C498 1.395 . S
C496 C499 1.403 . S
H497 C503 0.930 . S
C498 H484 0.930 . S
C498 C496 1.395 . S
C498 C501 1.403 . S
C499 C496 1.403 . S
C499 C500 1.524 . S
C499 C503 1.400 . S
C500 H485 0.960 . S
C500 H486 0.960 . S
C500 H487 0.960 . S
C500 C499 1.524 . S
C501 C498 1.403 . S
C501 C502 1.392 . S
C501 C505 1.495 . S
C502 C501 1.392 . S
C502 C503 1.385 . S
C502 C504 1.478 . S
C503 H497 0.930 . S
C503 C499 1.400 . S
C503 C502 1.385 . S
C504 C502 1.478 . S
C504 C506 1.381 . S
C504 C510 1.383 . S
C505 C501 1.495 . S
C505 H511 0.959 . S
C505 H512 0.961 . S
C505 H513 0.960 . S
C506 C504 1.381 . S
C506 C507 1.394 . S
C506 H514 0.930 . S
C507 C506 1.394 . S
C507 C508 1.383 . S
C507 H515 0.929 . S
C508 C507 1.383 . S
C508 C509 1.377 . S
C509 H493 0.930 . S
C509 C508 1.377 . S
C509 C510 1.379 . S
C510 H494 0.931 . S
C510 C504 1.383 . S
C510 C509 1.379 . S
H511 C505 0.959 . S
H512 C505 0.961 . S
H513 C505 0.960 . S
H514 C506 0.930 . S
H515 C507 0.929 . S
H516 C524 0.929 . S
H517 C526 0.930 . S
H518 C528 0.930 . S
H519 C531 0.929 . S
H520 C534 0.930 . S
H521 C536 0.960 1_455 S
H522 C536 0.960 . S
H523 C536 0.960 . S
C524 H516 0.929 . S
C524 C525 1.377 . S
C524 C526 1.384 . S
C525 C524 1.377 . S
C525 C531 1.390 . S
C526 H517 0.930 . S
C526 C524 1.384 . S
C526 C527 1.372 . S
C527 C526 1.372 . S
C527 C528 1.400 . S
C527 C532 1.490 . S
C528 H518 0.930 . S
C528 C527 1.400 . S
C528 C531 1.386 . S
H529 C545 0.930 . S
H530 C546 0.931 . S
C531 H519 0.929 . S
C531 C525 1.390 . S
C531 C528 1.386 . S
C532 C527 1.490 . S
C532 C534 1.395 . S
C532 C535 1.403 . S
H533 C539 0.930 . S
C534 H520 0.930 . S
C534 C532 1.395 . S
C534 C537 1.403 1_655 S
C535 C532 1.403 . S
C535 C536 1.524 . S
C535 C539 1.400 1_655 S
C536 H521 0.960 1_655 S
C536 H522 0.960 . S
C536 H523 0.960 . S
C536 C535 1.524 . S
C537 C534 1.403 1_455 S
C537 C538 1.392 . S
C537 C541 1.495 . S
C538 C537 1.392 . S
C538 C539 1.385 . S
C538 C540 1.478 . S
C539 H533 0.930 . S
C539 C535 1.400 1_455 S
C539 C538 1.385 . S
C540 C538 1.478 . S
C540 C542 1.381 . S
C540 C546 1.383 . S
C541 C537 1.495 . S
C541 H547 0.959 1_455 S
C541 H548 0.961 . S
C541 H549 0.960 . S
C542 C540 1.381 . S
C542 C543 1.394 . S
C542 H550 0.930 . S
C543 C542 1.394 . S
C543 C544 1.383 . S
C543 H551 0.929 . S
C544 C543 1.383 . S
C544 C545 1.377 . S
C545 H529 0.930 . S
C545 C544 1.377 . S
C545 C546 1.379 . S
C546 H530 0.931 . S
C546 C540 1.383 . S
C546 C545 1.379 . S
H547 C541 0.959 1_655 S
H548 C541 0.961 . S
H549 C541 0.960 . S
H550 C542 0.930 . S
H551 C543 0.929 . S
H552 C560 0.929 . S
H553 C562 0.930 . S
H554 C564 0.930 . S
H555 C567 0.929 . S
H556 C570 0.930 . S
H557 C572 0.960 . S
H558 C572 0.960 . S
H559 C572 0.960 . S
C560 H552 0.929 . S
C560 C561 1.377 . S
C560 C562 1.384 . S
C561 C560 1.377 . S
C561 C567 1.390 . S
C562 H553 0.930 . S
C562 C560 1.384 . S
C562 C563 1.372 . S
C563 C562 1.372 . S
C563 C564 1.400 . S
C563 C568 1.490 . S
C564 H554 0.930 . S
C564 C563 1.400 . S
C564 C567 1.386 . S
H565 C581 0.930 . S
H566 C582 0.931 . S
C567 H555 0.929 . S
C567 C561 1.390 . S
C567 C564 1.386 . S
C568 C563 1.490 . S
C568 C570 1.395 1_545 S
C568 C571 1.403 . S
H569 C575 0.931 1_545 S
C570 H556 0.930 . S
C570 C568 1.395 1_565 S
C570 C573 1.403 . S
C571 C568 1.403 . S
C571 C572 1.524 . S
C571 C575 1.396 1_545 S
C572 H557 0.960 . S
C572 H558 0.960 . S
C572 H559 0.960 . S
C572 C571 1.524 . S
C573 C570 1.403 . S
C573 C574 1.392 . S
C573 C577 1.495 . S
C574 C573 1.392 . S
C574 C575 1.388 . S
C574 C576 1.478 . S
C575 H569 0.931 1_565 S
C575 C571 1.396 1_565 S
C575 C574 1.388 . S
C576 C574 1.478 . S
C576 C578 1.381 . S
C576 C582 1.383 . S
C577 C573 1.495 . S
C577 H583 0.959 . S
C577 H584 0.961 . S
C577 H585 0.960 . S
C578 C576 1.381 . S
C578 C579 1.394 . S
C578 H586 0.930 . S
C579 C578 1.394 . S
C579 C580 1.383 . S
C579 H587 0.929 . S
C580 C579 1.383 . S
C580 C581 1.377 . S
C581 H565 0.930 . S
C581 C580 1.377 . S
C581 C582 1.379 . S
C582 H566 0.931 . S
C582 C576 1.383 . S
C582 C581 1.379 . S
H583 C577 0.959 . S
H584 C577 0.961 . S
H585 C577 0.960 . S
H586 C578 0.930 . S
H587 C579 0.929 . S
H588 C596 0.929 . S
H589 C598 0.930 . S
H590 C600 0.930 . S
H591 C603 0.929 . S
H592 C606 0.930 . S
H593 C608 0.960 . S
H594 C608 0.960 . S
H595 C608 0.960 . S
C596 H588 0.929 . S
C596 C597 1.377 . S
C596 C598 1.384 . S
C597 C596 1.377 . S
C597 C603 1.390 . S
C598 H589 0.930 . S
C598 C596 1.384 . S
C598 C599 1.372 . S
C599 C598 1.372 . S
C599 C600 1.400 . S
C599 C604 1.490 . S
C600 H590 0.930 . S
C600 C599 1.400 . S
C600 C603 1.386 . S
H601 C617 0.930 . S
H602 C618 0.931 . S
C603 H591 0.929 . S
C603 C597 1.390 . S
C603 C600 1.386 . S
C604 C599 1.490 . S
C604 C606 1.395 . S
C604 C607 1.403 . S
H605 C611 0.930 . S
C606 H592 0.930 . S
C606 C604 1.395 . S
C606 C609 1.403 . S
C607 C604 1.403 . S
C607 C608 1.524 . S
C607 C611 1.400 . S
C608 H593 0.960 . S
C608 H594 0.960 . S
C608 H595 0.960 . S
C608 C607 1.524 . S
C609 C606 1.403 . S
C609 C610 1.392 . S
C609 C613 1.495 . S
C610 C609 1.392 . S
C610 C611 1.385 . S
C610 C612 1.478 . S
C611 H605 0.930 . S
C611 C607 1.400 . S
C611 C610 1.385 . S
C612 C610 1.478 . S
C612 C614 1.381 . S
C612 C618 1.383 . S
C613 C609 1.495 . S
C613 H619 0.959 . S
C613 H620 0.961 . S
C613 H621 0.960 . S
C614 C612 1.381 . S
C614 C615 1.394 . S
C614 H622 0.930 . S
C615 C614 1.394 . S
C615 C616 1.383 . S
C615 H623 0.929 . S
C616 C615 1.383 . S
C616 C617 1.377 . S
C617 H601 0.930 . S
C617 C616 1.377 . S
C617 C618 1.379 . S
C618 H602 0.931 . S
C618 C612 1.383 . S
C618 C617 1.379 . S
H619 C613 0.959 . S
H620 C613 0.961 . S
H621 C613 0.960 . S
H622 C614 0.930 . S
H623 C615 0.929 . S
H624 C632 0.929 . S
H625 C634 0.930 . S
H626 C636 0.930 . S
H627 C639 0.929 . S
H628 C642 0.930 . S
H629 C644 0.960 . S
H630 C644 0.960 . S
H631 C644 0.963 . S
C632 H624 0.929 . S
C632 C633 1.377 . S
C632 C634 1.384 . S
C633 C632 1.377 . S
C633 C639 1.390 . S
C634 H625 0.930 . S
C634 C632 1.384 . S
C634 C635 1.372 . S
C635 C634 1.372 . S
C635 C636 1.400 . S
C635 C640 1.490 . S
C636 H626 0.930 . S
C636 C635 1.400 . S
C636 C639 1.386 . S
H637 C653 0.930 . S
H638 C654 0.931 . S
C639 H627 0.929 . S
C639 C633 1.390 . S
C639 C636 1.386 . S
C640 C635 1.490 . S
C640 C642 1.395 . S
C640 C643 1.403 1_455 S
H641 C647 0.930 . S
C642 H628 0.930 . S
C642 C640 1.395 . S
C642 C645 1.403 . S
C643 C640 1.403 1_655 S
C643 C644 1.524 . S
C643 C647 1.400 . S
C644 H629 0.960 . S
C644 H630 0.960 . S
C644 H631 0.963 . S
C644 C643 1.524 . S
C645 C642 1.403 . S
C645 C646 1.392 1_455 S
C645 C649 1.495 . S
C646 C645 1.392 1_655 S
C646 C647 1.385 . S
C646 C648 1.478 . S
C647 H641 0.930 . S
C647 C643 1.400 . S
C647 C646 1.385 . S
C648 C646 1.478 . S
C648 C650 1.381 . S
C648 C654 1.383 . S
C649 C645 1.495 . S
C649 H655 0.959 . S
C649 H656 0.961 . S
C649 H657 0.960 . S
C650 C648 1.381 . S
C650 C651 1.394 . S
C650 H658 0.930 . S
C651 C650 1.394 . S
C651 C652 1.383 . S
C651 H659 0.929 . S
C652 C651 1.383 . S
C652 C653 1.377 . S
C653 H637 0.930 . S
C653 C652 1.377 . S
C653 C654 1.379 . S
C654 H638 0.931 . S
C654 C648 1.383 . S
C654 C653 1.379 . S
H655 C649 0.959 . S
H656 C649 0.961 . S
H657 C649 0.960 . S
H658 C650 0.930 . S
H659 C651 0.929 . S
H660 C668 0.929 . S
H661 C670 0.930 . S
H662 C672 0.930 . S
H663 C675 0.929 . S
H664 C678 0.930 . S
H665 C680 0.960 . S
H666 C680 0.960 . S
H667 C680 0.960 . S
C668 H660 0.929 . S
C668 C669 1.377 . S
C668 C670 1.384 . S
C669 C668 1.377 . S
C669 C675 1.390 . S
C670 H661 0.930 . S
C670 C668 1.384 . S
C670 C671 1.372 . S
C671 C670 1.372 . S
C671 C672 1.400 . S
C671 C676 1.490 . S
C672 H662 0.930 . S
C672 C671 1.400 . S
C672 C675 1.386 . S
H673 C689 0.930 . S
H674 C690 0.931 . S
C675 H663 0.929 . S
C675 C669 1.390 . S
C675 C672 1.386 . S
C676 C671 1.490 . S
C676 C678 1.395 1_545 S
C676 C679 1.403 1_556 S
H677 C683 0.930 . S
C678 H664 0.930 . S
C678 C676 1.395 1_565 S
C678 C681 1.403 . S
C679 C676 1.403 1_554 S
C679 C680 1.524 . S
C679 C683 1.400 . S
C680 H665 0.960 . S
C680 H666 0.960 . S
C680 H667 0.960 . S
C680 C679 1.524 . S
C681 C678 1.403 . S
C681 C682 1.392 1_556 S
C681 C685 1.495 . S
C682 C681 1.392 1_554 S
C682 C683 1.385 1_565 S
C682 C684 1.478 . S
C683 H677 0.930 . S
C683 C679 1.400 . S
C683 C682 1.385 1_545 S
C684 C682 1.478 . S
C684 C686 1.381 . S
C684 C690 1.383 . S
C685 C681 1.495 . S
C685 H691 0.959 . S
C685 H692 0.961 . S
C685 H693 0.960 . S
C686 C684 1.381 . S
C686 C687 1.394 . S
C686 H694 0.930 . S
C687 C686 1.394 . S
C687 C688 1.383 . S
C687 H695 0.929 . S
C688 C687 1.383 . S
C688 C689 1.377 . S
C689 H673 0.930 . S
C689 C688 1.377 . S
C689 C690 1.379 . S
C690 H674 0.931 . S
C690 C684 1.383 . S
C690 C689 1.379 . S
H691 C685 0.959 . S
H692 C685 0.961 . S
H693 C685 0.960 . S
H694 C686 0.930 . S
H695 C687 0.929 . S
H696 C704 0.929 . S
H697 C706 0.930 . S
H698 C708 0.930 . S
H699 C711 0.929 . S
H700 C714 0.930 . S
H701 C716 0.960 . S
H702 C716 0.960 . S
H703 C716 0.960 . S
C704 H696 0.929 . S
C704 C705 1.377 . S
C704 C706 1.384 . S
C705 C704 1.377 . S
C705 C711 1.390 . S
C706 H697 0.930 . S
C706 C704 1.384 . S
C706 C707 1.372 . S
C707 C706 1.372 . S
C707 C708 1.400 . S
C707 C712 1.490 . S
C708 H698 0.930 . S
C708 C707 1.400 . S
C708 C711 1.386 . S
H709 C725 0.930 1_554 S
H710 C726 0.931 . S
C711 H699 0.929 . S
C711 C705 1.390 . S
C711 C708 1.386 . S
C712 C707 1.490 . S
C712 C714 1.395 . S
C712 C715 1.403 . S
H713 C719 0.930 . S
C714 H700 0.930 . S
C714 C712 1.395 . S
C714 C717 1.403 . S
C715 C712 1.403 . S
C715 C716 1.524 . S
C715 C719 1.400 . S
C716 H701 0.960 . S
C716 H702 0.960 . S
C716 H703 0.960 . S
C716 C715 1.524 . S
C717 C714 1.403 . S
C717 C718 1.392 . S
C717 C721 1.495 . S
C718 C717 1.392 . S
C718 C719 1.385 . S
C718 C720 1.478 . S
C719 H713 0.930 . S
C719 C715 1.400 . S
C719 C718 1.385 . S
C720 C718 1.478 . S
C720 C722 1.381 . S
C720 C726 1.383 . S
C721 C717 1.495 . S
C721 H727 0.959 . S
C721 H728 0.961 . S
C721 H729 0.960 . S
C722 C720 1.381 . S
C722 C723 1.394 . S
C722 H730 0.930 . S
C723 C722 1.394 . S
C723 C724 1.383 . S
C723 H731 0.929 . S
C724 C723 1.383 . S
C724 C725 1.377 . S
C725 H709 0.930 1_556 S
C725 C724 1.377 . S
C725 C726 1.379 . S
C726 H710 0.931 . S
C726 C720 1.383 . S
C726 C725 1.379 . S
H727 C721 0.959 . S
H728 C721 0.961 . S
H729 C721 0.960 . S
H730 C722 0.930 . S
H731 C723 0.929 . S
H732 C740 0.929 1_556 S
H733 C742 0.930 . S
H734 C744 0.930 . S
H735 C747 0.929 . S
H736 C750 0.930 . S
H737 C752 0.960 . S
H738 C752 0.960 . S
H739 C752 0.960 . S
C740 H732 0.929 1_554 S
C740 C741 1.377 . S
C740 C742 1.384 . S
C741 C740 1.377 . S
C741 C747 1.390 . S
C742 H733 0.930 . S
C742 C740 1.384 . S
C742 C743 1.372 . S
C743 C742 1.372 . S
C743 C744 1.400 . S
C743 C748 1.490 . S
C744 H734 0.930 . S
C744 C743 1.400 . S
C744 C747 1.386 . S
H745 C761 0.930 . S
H746 C762 0.931 . S
C747 H735 0.929 . S
C747 C741 1.390 . S
C747 C744 1.386 . S
C748 C743 1.490 . S
C748 C750 1.395 . S
C748 C751 1.403 . S
H749 C755 0.930 . S
C750 H736 0.930 . S
C750 C748 1.395 . S
C750 C753 1.403 . S
C751 C748 1.403 . S
C751 C752 1.524 . S
C751 C755 1.400 . S
C752 H737 0.960 . S
C752 H738 0.960 . S
C752 H739 0.960 . S
C752 C751 1.524 . S
C753 C750 1.403 . S
C753 C754 1.392 . S
C753 C757 1.495 . S
C754 C753 1.392 . S
C754 C755 1.385 . S
C754 C756 1.478 . S
C755 H749 0.930 . S
C755 C751 1.400 . S
C755 C754 1.385 . S
C756 C754 1.478 . S
C756 C758 1.381 . S
C756 C762 1.383 . S
C757 C753 1.495 . S
C757 H763 0.959 . S
C757 H764 0.961 . S
C757 H765 0.960 . S
C758 C756 1.381 . S
C758 C759 1.394 . S
C758 H766 0.930 . S
C759 C758 1.394 . S
C759 C760 1.383 . S
C759 H767 0.929 . S
C760 C759 1.383 . S
C760 C761 1.377 . S
C761 H745 0.930 . S
C761 C760 1.377 . S
C761 C762 1.379 . S
C762 H746 0.931 . S
C762 C756 1.383 . S
C762 C761 1.379 . S
H763 C757 0.959 . S
H764 C757 0.961 . S
H765 C757 0.960 . S
H766 C758 0.930 . S
H767 C759 0.929 . S
H768 C776 0.929 . S
H769 C778 0.930 . S
H770 C780 0.930 . S
H771 C783 0.929 . S
H772 C786 0.930 . S
H773 C788 0.960 . S
H774 C788 0.960 . S
H775 C788 0.960 . S
C776 H768 0.929 . S
C776 C777 1.377 . S
C776 C778 1.384 . S
C777 C776 1.377 . S
C777 C783 1.390 . S
C778 H769 0.930 . S
C778 C776 1.384 . S
C778 C779 1.372 . S
C779 C778 1.372 . S
C779 C780 1.400 . S
C779 C784 1.490 . S
C780 H770 0.930 . S
C780 C779 1.400 . S
C780 C783 1.386 . S
H781 C797 0.930 . S
H782 C798 0.931 . S
C783 H771 0.929 . S
C783 C777 1.390 . S
C783 C780 1.386 . S
C784 C779 1.490 . S
C784 C786 1.395 . S
C784 C787 1.403 . S
H785 C791 0.930 . S
C786 H772 0.930 . S
C786 C784 1.395 . S
C786 C789 1.403 . S
C787 C784 1.403 . S
C787 C788 1.524 . S
C787 C791 1.400 . S
C788 H773 0.960 . S
C788 H774 0.960 . S
C788 H775 0.960 . S
C788 C787 1.524 . S
C789 C786 1.403 . S
C789 C790 1.392 . S
C789 C793 1.495 . S
C790 C789 1.392 . S
C790 C791 1.385 . S
C790 C792 1.478 . S
C791 H785 0.930 . S
C791 C787 1.400 . S
C791 C790 1.385 . S
C792 C790 1.478 . S
C792 C794 1.381 . S
C792 C798 1.383 . S
C793 C789 1.495 . S
C793 H799 0.959 . S
C793 H800 0.961 . S
C793 H801 0.960 . S
C794 C792 1.381 . S
C794 C795 1.394 . S
C794 H802 0.930 . S
C795 C794 1.394 . S
C795 C796 1.383 . S
C795 H803 0.929 . S
C796 C795 1.383 . S
C796 C797 1.377 . S
C797 H781 0.930 . S
C797 C796 1.377 . S
C797 C798 1.379 . S
C798 H782 0.931 . S
C798 C792 1.383 . S
C798 C797 1.379 . S
H799 C793 0.959 . S
H800 C793 0.961 . S
H801 C793 0.960 . S
H802 C794 0.930 . S
H803 C795 0.929 . S
H804 C812 0.929 . S
H805 C814 0.930 . S
H806 C816 0.930 . S
H807 C819 0.929 . S
H808 C822 0.930 . S
H809 C824 0.960 . S
H810 C824 0.960 . S
H811 C824 0.960 . S
C812 H804 0.929 . S
C812 C813 1.377 . S
C812 C814 1.384 . S
C813 C812 1.377 . S
C813 C819 1.390 . S
C814 H805 0.930 . S
C814 C812 1.384 . S
C814 C815 1.372 . S
C815 C814 1.372 . S
C815 C816 1.400 . S
C815 C820 1.490 . S
C816 H806 0.930 . S
C816 C815 1.400 . S
C816 C819 1.386 . S
H817 C833 0.930 . S
H818 C834 0.931 . S
C819 H807 0.929 . S
C819 C813 1.390 . S
C819 C816 1.386 . S
C820 C815 1.490 . S
C820 C822 1.395 . S
C820 C823 1.403 . S
H821 C827 0.930 . S
C822 H808 0.930 . S
C822 C820 1.395 . S
C822 C825 1.403 . S
C823 C820 1.403 . S
C823 C824 1.524 . S
C823 C827 1.400 . S
C824 H809 0.960 . S
C824 H810 0.960 . S
C824 H811 0.960 . S
C824 C823 1.524 . S
C825 C822 1.403 . S
C825 C826 1.392 . S
C825 C829 1.495 . S
C826 C825 1.392 . S
C826 C827 1.385 . S
C826 C828 1.478 . S
C827 H821 0.930 . S
C827 C823 1.400 . S
C827 C826 1.385 . S
C828 C826 1.478 . S
C828 C830 1.381 . S
C828 C834 1.383 . S
C829 C825 1.495 . S
C829 H835 0.959 . S
C829 H836 0.961 . S
C829 H837 0.960 . S
C830 C828 1.381 . S
C830 C831 1.394 . S
C830 H838 0.930 . S
C831 C830 1.394 . S
C831 C832 1.383 . S
C831 H839 0.929 . S
C832 C831 1.383 . S
C832 C833 1.377 . S
C833 H817 0.930 . S
C833 C832 1.377 . S
C833 C834 1.379 . S
C834 H818 0.931 . S
C834 C828 1.383 . S
C834 C833 1.379 . S
H835 C829 0.959 . S
H836 C829 0.961 . S
H837 C829 0.960 . S
H838 C830 0.930 . S
H839 C831 0.929 . S
H840 C848 0.929 . S
H841 C850 0.930 . S
H842 C852 0.930 . S
H843 C855 0.929 . S
H844 C858 0.930 . S
H845 C860 0.960 . S
H846 C860 0.960 . S
H847 C860 0.960 . S
C848 H840 0.929 . S
C848 C849 1.377 . S
C848 C850 1.384 . S
C849 C848 1.377 . S
C849 C855 1.390 . S
C850 H841 0.930 . S
C850 C848 1.384 . S
C850 C851 1.372 . S
C851 C850 1.372 . S
C851 C852 1.400 . S
C851 C856 1.490 . S
C852 H842 0.930 . S
C852 C851 1.400 . S
C852 C855 1.386 . S
H853 C869 0.930 . S
H854 C870 0.931 . S
C855 H843 0.929 . S
C855 C849 1.390 . S
C855 C852 1.386 . S
C856 C851 1.490 . S
C856 C858 1.395 . S
C856 C859 1.403 . S
H857 C863 0.930 . S
C858 H844 0.930 . S
C858 C856 1.395 . S
C858 C861 1.403 . S
C859 C856 1.403 . S
C859 C860 1.524 . S
C859 C863 1.400 . S
C860 H845 0.960 . S
C860 H846 0.960 . S
C860 H847 0.960 . S
C860 C859 1.524 . S
C861 C858 1.403 . S
C861 C862 1.392 . S
C861 C865 1.495 . S
C862 C861 1.392 . S
C862 C863 1.385 . S
C862 C864 1.478 . S
C863 H857 0.930 . S
C863 C859 1.400 . S
C863 C862 1.385 . S
C864 C862 1.478 . S
C864 C866 1.381 . S
C864 C870 1.383 . S
C865 C861 1.495 . S
C865 H871 0.959 . S
C865 H872 0.961 . S
C865 H873 0.960 . S
C866 C864 1.381 . S
C866 C867 1.394 . S
C866 H874 0.930 . S
C867 C866 1.394 . S
C867 C868 1.383 . S
C867 H875 0.929 . S
C868 C867 1.383 . S
C868 C869 1.377 . S
C869 H853 0.930 . S
C869 C868 1.377 . S
C869 C870 1.379 . S
C870 H854 0.931 . S
C870 C864 1.383 . S
C870 C869 1.379 . S
H871 C865 0.959 . S
H872 C865 0.961 . S
H873 C865 0.960 . S
H874 C866 0.930 . S
H875 C867 0.929 . S
H876 C884 0.929 . S
H877 C886 0.930 . S
H878 C888 0.930 . S
H879 C891 0.929 . S
H880 C894 0.930 . S
H881 C896 0.960 . S
H882 C896 0.960 . S
H883 C896 0.960 . S
C884 H876 0.929 . S
C884 C885 1.377 . S
C884 C886 1.384 . S
C885 C884 1.377 . S
C885 C891 1.390 . S
C886 H877 0.930 . S
C886 C884 1.384 . S
C886 C887 1.372 . S
C887 C886 1.372 . S
C887 C888 1.400 . S
C887 C892 1.490 . S
C888 H878 0.930 . S
C888 C887 1.400 . S
C888 C891 1.386 . S
H889 C905 0.930 . S
H890 C906 0.931 . S
C891 H879 0.929 . S
C891 C885 1.390 . S
C891 C888 1.386 . S
C892 C887 1.490 . S
C892 C894 1.395 . S
C892 C895 1.403 . S
H893 C899 0.930 . S
C894 H880 0.930 . S
C894 C892 1.395 . S
C894 C897 1.403 . S
C895 C892 1.403 . S
C895 C896 1.524 . S
C895 C899 1.400 . S
C896 H881 0.960 . S
C896 H882 0.960 . S
C896 H883 0.960 . S
C896 C895 1.524 . S
C897 C894 1.403 . S
C897 C898 1.392 . S
C897 C901 1.495 . S
C898 C897 1.392 . S
C898 C899 1.385 . S
C898 C900 1.478 . S
C899 H893 0.930 . S
C899 C895 1.400 . S
C899 C898 1.385 . S
C900 C898 1.478 . S
C900 C902 1.381 . S
C900 C906 1.383 . S
C901 C897 1.495 . S
C901 H907 0.959 . S
C901 H908 0.961 . S
C901 H909 0.960 . S
C902 C900 1.381 . S
C902 C903 1.394 . S
C902 H910 0.930 . S
C903 C902 1.394 . S
C903 C904 1.383 . S
C903 H911 0.929 . S
C904 C903 1.383 . S
C904 C905 1.377 . S
C905 H889 0.930 . S
C905 C904 1.377 . S
C905 C906 1.379 . S
C906 H890 0.931 . S
C906 C900 1.383 . S
C906 C905 1.379 . S
H907 C901 0.959 . S
H908 C901 0.961 . S
H909 C901 0.960 . S
H910 C902 0.930 . S
H911 C903 0.929 . S
H912 C920 0.929 . S
H913 C922 0.930 . S
H914 C924 0.930 . S
H915 C927 0.941 . S
H916 C930 0.930 . S
H917 C932 0.957 1_554 S
H918 C932 0.960 . S
H919 C932 0.960 1_554 S
C920 H912 0.929 . S
C920 C921 1.377 . S
C920 C922 1.384 . S
C921 C920 1.377 . S
C921 C927 1.390 . S
C922 H913 0.930 . S
C922 C920 1.384 . S
C922 C923 1.372 . S
C923 C922 1.372 . S
C923 C924 1.400 . S
C923 C928 1.490 . S
C924 H914 0.930 . S
C924 C923 1.400 . S
C924 C927 1.386 . S
H925 C941 0.930 . S
H926 C942 0.931 . S
C927 H915 0.941 . S
C927 C921 1.390 . S
C927 C924 1.386 . S
C928 C923 1.490 . S
C928 C930 1.395 . S
C928 C931 1.403 . S
H929 C935 0.930 . S
C930 H916 0.930 . S
C930 C928 1.395 . S
C930 C933 1.403 . S
C931 C928 1.403 . S
C931 C932 1.524 . S
C931 C935 1.400 . S
C932 H917 0.957 1_556 S
C932 H918 0.960 . S
C932 H919 0.960 1_556 S
C932 C931 1.524 . S
C933 C930 1.403 . S
C933 C934 1.392 . S
C933 C937 1.495 . S
C934 C933 1.392 . S
C934 C935 1.385 . S
C934 C936 1.478 . S
C935 H929 0.930 . S
C935 C931 1.400 . S
C935 C934 1.385 . S
C936 C934 1.478 . S
C936 C938 1.381 . S
C936 C942 1.383 . S
C937 C933 1.495 . S
C937 H943 0.959 . S
C937 H944 0.961 . S
C937 H945 0.960 . S
C938 C936 1.381 . S
C938 C939 1.394 . S
C938 H946 0.930 . S
C939 C938 1.394 . S
C939 C940 1.383 . S
C939 H947 0.929 . S
C940 C939 1.383 . S
C940 C941 1.377 . S
C941 H925 0.930 . S
C941 C940 1.377 . S
C941 C942 1.379 . S
C942 H926 0.931 . S
C942 C936 1.383 . S
C942 C941 1.379 . S
H943 C937 0.959 . S
H944 C937 0.961 . S
H945 C937 0.960 . S
H946 C938 0.930 . S
H947 C939 0.929 . S
H948 C956 0.929 . S
H949 C958 0.930 . S
H950 C960 0.930 . S
H951 C963 0.929 . S
H952 C966 0.930 1_655 S
H953 C968 0.960 . S
H954 C968 0.960 . S
H955 C968 0.960 . S
C956 H948 0.929 . S
C956 C957 1.377 . S
C956 C958 1.384 . S
C957 C956 1.377 . S
C957 C963 1.390 . S
C958 H949 0.930 . S
C958 C956 1.384 . S
C958 C959 1.372 . S
C959 C958 1.372 . S
C959 C960 1.400 . S
C959 C964 1.490 . S
C960 H950 0.930 . S
C960 C959 1.400 . S
C960 C963 1.386 . S
H961 C977 0.930 . S
H962 C978 0.931 . S
C963 H951 0.929 . S
C963 C957 1.390 . S
C963 C960 1.386 . S
C964 C959 1.490 . S
C964 C966 1.395 1_655 S
C964 C967 1.403 . S
H965 C971 0.930 . S
C966 H952 0.930 1_455 S
C966 C964 1.395 1_455 S
C966 C969 1.403 . S
C967 C964 1.403 . S
C967 C968 1.524 . S
C967 C971 1.400 1_655 S
C968 H953 0.960 . S
C968 H954 0.960 . S
C968 H955 0.960 . S
C968 C967 1.524 . S
C969 C966 1.403 . S
C969 C970 1.392 . S
C969 C973 1.495 . S
C970 C969 1.392 . S
C970 C971 1.385 . S
C970 C972 1.478 . S
C971 H965 0.930 . S
C971 C967 1.400 1_455 S
C971 C970 1.385 . S
C972 C970 1.478 . S
C972 C974 1.381 . S
C972 C978 1.383 . S
C973 C969 1.495 . S
C973 H979 0.959 . S
C973 H980 0.961 . S
C973 H981 0.960 . S
C974 C972 1.381 . S
C974 C975 1.394 . S
C974 H982 0.930 . S
C975 C974 1.394 . S
C975 C976 1.383 . S
C975 H983 0.929 . S
C976 C975 1.383 . S
C976 C977 1.377 . S
C977 H961 0.930 . S
C977 C976 1.377 . S
C977 C978 1.379 . S
C978 H962 0.931 . S
C978 C972 1.383 . S
C978 C977 1.379 . S
H979 C973 0.959 . S
H980 C973 0.961 . S
H981 C973 0.960 . S
H982 C974 0.930 . S
H983 C975 0.929 . S
H984 C992 0.929 . S
H985 C994 0.930 . S
H986 C996 0.930 . S
H987 C999 0.929 . S
H988 C1002 0.930 . S
H989 C1004 0.960 . S
H990 C1004 0.960 . S
H991 C1004 0.960 . S
C992 H984 0.929 . S
C992 C993 1.377 . S
C992 C994 1.384 . S
C993 C992 1.377 . S
C993 C999 1.390 . S
C994 H985 0.930 . S
C994 C992 1.384 . S
C994 C995 1.372 . S
C995 C994 1.372 . S
C995 C996 1.400 . S
C995 C1000 1.490 . S
C996 H986 0.930 . S
C996 C995 1.400 . S
C996 C999 1.386 . S
H997 C1013 0.930 . S
H998 C1014 0.931 . S
C999 H987 0.929 . S
C999 C993 1.390 . S
C999 C996 1.386 . S
C1000 C995 1.490 . S
C1000 C1002 1.395 1_565 S
C1000 C1003 1.403 . S
H1001 C1007 0.930 . S
C1002 H988 0.930 . S
C1002 C1000 1.395 1_545 S
C1002 C1005 1.403 . S
C1003 C1000 1.403 . S
C1003 C1004 1.524 . S
C1003 C1007 1.400 1_565 S
C1004 H989 0.960 . S
C1004 H990 0.960 . S
C1004 H991 0.960 . S
C1004 C1003 1.524 . S
C1005 C1002 1.403 . S
C1005 C1006 1.392 . S
C1005 C1009 1.495 . S
C1006 C1005 1.392 . S
C1006 C1007 1.385 . S
C1006 C1008 1.478 . S
C1007 H1001 0.930 . S
C1007 C1003 1.400 1_545 S
C1007 C1006 1.385 . S
C1008 C1006 1.478 . S
C1008 C1010 1.381 . S
C1008 C1014 1.383 . S
C1009 C1005 1.495 . S
C1009 H1015 0.959 . S
C1009 H1016 0.961 . S
C1009 H1017 0.960 . S
C1010 C1008 1.381 . S
C1010 C1011 1.394 . S
C1010 H1018 0.930 . S
C1011 C1010 1.394 . S
C1011 C1012 1.383 . S
C1011 H1019 0.929 . S
C1012 C1011 1.383 . S
C1012 C1013 1.377 . S
C1013 H997 0.930 . S
C1013 C1012 1.377 . S
C1013 C1014 1.379 . S
C1014 H998 0.931 . S
C1014 C1008 1.383 . S
C1014 C1013 1.379 . S
H1015 C1009 0.959 . S
H1016 C1009 0.961 . S
H1017 C1009 0.960 . S
H1018 C1010 0.930 . S
H1019 C1011 0.929 . S
H1020 C1028 0.929 . S
H1021 C1030 0.930 . S
H1022 C1032 0.930 . S
H1023 C1035 0.929 . S
H1024 C1038 0.930 . S
H1025 C1040 0.960 . S
H1026 C1040 0.960 . S
H1027 C1040 0.960 . S
C1028 H1020 0.929 . S
C1028 C1029 1.377 . S
C1028 C1030 1.384 . S
C1029 C1028 1.377 . S
C1029 C1035 1.390 . S
C1030 H1021 0.930 . S
C1030 C1028 1.384 . S
C1030 C1031 1.372 . S
C1031 C1030 1.372 . S
C1031 C1032 1.400 . S
C1031 C1036 1.490 . S
C1032 H1022 0.930 . S
C1032 C1031 1.400 . S
C1032 C1035 1.386 . S
H1033 C1049 0.930 . S
H1034 C1050 0.931 . S
C1035 H1023 0.929 . S
C1035 C1029 1.390 . S
C1035 C1032 1.386 . S
C1036 C1031 1.490 . S
C1036 C1038 1.395 . S
C1036 C1039 1.403 . S
H1037 C1043 0.930 . S
C1038 H1024 0.930 . S
C1038 C1036 1.395 . S
C1038 C1041 1.403 . S
C1039 C1036 1.403 . S
C1039 C1040 1.524 . S
C1039 C1043 1.400 . S
C1040 H1025 0.960 . S
C1040 H1026 0.960 . S
C1040 H1027 0.960 . S
C1040 C1039 1.524 . S
C1041 C1038 1.403 . S
C1041 C1042 1.392 . S
C1041 C1045 1.495 . S
C1042 C1041 1.392 . S
C1042 C1043 1.385 . S
C1042 C1044 1.478 . S
C1043 H1037 0.930 . S
C1043 C1039 1.400 . S
C1043 C1042 1.385 . S
C1044 C1042 1.478 . S
C1044 C1046 1.381 . S
C1044 C1050 1.383 . S
C1045 C1041 1.495 . S
C1045 H1051 0.959 . S
C1045 H1052 0.961 . S
C1045 H1053 0.960 . S
C1046 C1044 1.381 . S
C1046 C1047 1.394 . S
C1046 H1054 0.930 . S
C1047 C1046 1.394 . S
C1047 C1048 1.383 . S
C1047 H1055 0.929 . S
C1048 C1047 1.383 . S
C1048 C1049 1.377 . S
C1049 H1033 0.930 . S
C1049 C1048 1.377 . S
C1049 C1050 1.379 . S
C1050 H1034 0.931 . S
C1050 C1044 1.383 . S
C1050 C1049 1.379 . S
H1051 C1045 0.959 . S
H1052 C1045 0.961 . S
H1053 C1045 0.960 . S
H1054 C1046 0.930 . S
H1055 C1047 0.929 . S
H1056 C1064 0.929 . S
H1057 C1066 0.930 . S
H1058 C1068 0.930 . S
H1059 C1071 0.929 . S
H1060 C1074 0.930 . S
H1061 C1076 0.960 . S
H1062 C1076 0.960 1_455 S
H1063 C1076 0.960 . S
C1064 H1056 0.929 . S
C1064 C1065 1.377 . S
C1064 C1066 1.384 . S
C1065 C1064 1.377 . S
C1065 C1071 1.390 . S
C1066 H1057 0.930 . S
C1066 C1064 1.384 . S
C1066 C1067 1.372 . S
C1067 C1066 1.372 . S
C1067 C1068 1.400 . S
C1067 C1072 1.490 . S
C1068 H1058 0.930 . S
C1068 C1067 1.400 . S
C1068 C1071 1.386 . S
H1069 C1085 0.930 . S
H1070 C1086 0.931 . S
C1071 H1059 0.929 . S
C1071 C1065 1.390 . S
C1071 C1068 1.386 . S
C1072 C1067 1.490 . S
C1072 C1074 1.395 . S
C1072 C1075 1.403 1_455 S
H1073 C1079 0.930 . S
C1074 H1060 0.930 . S
C1074 C1072 1.395 . S
C1074 C1077 1.403 1_455 S
C1075 C1072 1.403 1_655 S
C1075 C1076 1.524 . S
C1075 C1079 1.400 . S
C1076 H1061 0.960 . S
C1076 H1062 0.960 1_655 S
C1076 H1063 0.960 . S
C1076 C1075 1.524 . S
C1077 C1074 1.403 1_655 S
C1077 C1078 1.392 . S
C1077 C1081 1.495 . S
C1078 C1077 1.392 . S
C1078 C1079 1.385 . S
C1078 C1080 1.478 . S
C1079 H1073 0.930 . S
C1079 C1075 1.400 . S
C1079 C1078 1.385 . S
C1080 C1078 1.478 . S
C1080 C1082 1.381 . S
C1080 C1086 1.383 . S
C1081 C1077 1.495 . S
C1081 H1087 0.959 . S
C1081 H1088 0.961 . S
C1081 H1089 0.960 . S
C1082 C1080 1.381 . S
C1082 C1083 1.394 . S
C1082 H1090 0.930 . S
C1083 C1082 1.394 . S
C1083 C1084 1.383 . S
C1083 H1091 0.929 . S
C1084 C1083 1.383 . S
C1084 C1085 1.377 . S
C1085 H1069 0.930 . S
C1085 C1084 1.377 . S
C1085 C1086 1.379 . S
C1086 H1070 0.931 . S
C1086 C1080 1.383 . S
C1086 C1085 1.379 . S
H1087 C1081 0.959 . S
H1088 C1081 0.961 . S
H1089 C1081 0.960 . S
H1090 C1082 0.930 . S
H1091 C1083 0.929 . S
H1092 C1100 0.929 . S
H1093 C1102 0.930 . S
H1094 C1104 0.930 . S
H1095 C1107 0.929 . S
H1096 C1110 0.930 . S
H1097 C1112 0.960 . S
H1098 C1112 0.966 . S
H1099 C1112 0.960 . S
C1100 H1092 0.929 . S
C1100 C1101 1.377 . S
C1100 C1102 1.384 . S
C1101 C1100 1.377 . S
C1101 C1107 1.390 . S
C1102 H1093 0.930 . S
C1102 C1100 1.384 . S
C1102 C1103 1.372 . S
C1103 C1102 1.372 . S
C1103 C1104 1.400 . S
C1103 C1108 1.490 . S
C1104 H1094 0.930 . S
C1104 C1103 1.400 . S
C1104 C1107 1.386 . S
H1105 C1121 0.930 . S
H1106 C1122 0.931 . S
C1107 H1095 0.929 . S
C1107 C1101 1.390 . S
C1107 C1104 1.386 . S
C1108 C1103 1.490 . S
C1108 C1110 1.395 . S
C1108 C1111 1.403 1_545 S
H1109 C1115 0.930 . S
C1110 H1096 0.930 . S
C1110 C1108 1.395 . S
C1110 C1113 1.403 1_545 S
C1111 C1108 1.403 1_565 S
C1111 C1112 1.524 . S
C1111 C1115 1.400 . S
C1112 H1097 0.960 . S
C1112 H1098 0.966 . S
C1112 H1099 0.960 . S
C1112 C1111 1.524 . S
C1113 C1110 1.403 1_565 S
C1113 C1114 1.392 . S
C1113 C1117 1.495 . S
C1114 C1113 1.392 . S
C1114 C1115 1.385 . S
C1114 C1116 1.478 . S
C1115 H1109 0.930 . S
C1115 C1111 1.400 . S
C1115 C1114 1.385 . S
C1116 C1114 1.478 . S
C1116 C1118 1.381 . S
C1116 C1122 1.383 . S
C1117 C1113 1.495 . S
C1117 H1123 0.959 1_565 S
C1117 H1124 0.961 . S
C1117 H1125 0.960 . S
C1118 C1116 1.381 . S
C1118 C1119 1.394 . S
C1118 H1126 0.930 . S
C1119 C1118 1.394 . S
C1119 C1120 1.383 . S
C1119 H1127 0.929 . S
C1120 C1119 1.383 . S
C1120 C1121 1.377 . S
C1121 H1105 0.930 . S
C1121 C1120 1.377 . S
C1121 C1122 1.379 . S
C1122 H1106 0.931 . S
C1122 C1116 1.383 . S
C1122 C1121 1.379 . S
H1123 C1117 0.959 1_545 S
H1124 C1117 0.961 . S
H1125 C1117 0.960 . S
H1126 C1118 0.930 . S
H1127 C1119 0.929 . S
H1128 C1136 0.929 . S
H1129 C1138 0.930 . S
H1130 C1140 0.930 . S
H1131 C1143 0.929 . S
H1132 C1146 0.930 . S
H1133 C1148 0.960 . S
H1134 C1148 0.960 . S
H1135 C1148 0.960 . S
C1136 H1128 0.929 . S
C1136 C1137 1.377 . S
C1136 C1138 1.384 . S
C1137 C1136 1.377 . S
C1137 C1143 1.390 . S
C1138 H1129 0.930 . S
C1138 C1136 1.384 . S
C1138 C1139 1.372 . S
C1139 C1138 1.372 . S
C1139 C1140 1.400 . S
C1139 C1144 1.490 . S
C1140 H1130 0.930 . S
C1140 C1139 1.400 . S
C1140 C1143 1.386 . S
H1141 C1157 0.930 . S
H1142 C1158 0.931 . S
C1143 H1131 0.929 . S
C1143 C1137 1.390 . S
C1143 C1140 1.386 . S
C1144 C1139 1.490 . S
C1144 C1146 1.395 . S
C1144 C1147 1.403 . S
H1145 C1151 0.930 . S
C1146 H1132 0.930 . S
C1146 C1144 1.395 . S
C1146 C1149 1.403 . S
C1147 C1144 1.403 . S
C1147 C1148 1.524 . S
C1147 C1151 1.400 . S
C1148 H1133 0.960 . S
C1148 H1134 0.960 . S
C1148 H1135 0.960 . S
C1148 C1147 1.524 . S
C1149 C1146 1.403 . S
C1149 C1150 1.392 . S
C1149 C1153 1.495 . S
C1150 C1149 1.392 . S
C1150 C1151 1.385 . S
C1150 C1152 1.478 . S
C1151 H1145 0.930 . S
C1151 C1147 1.400 . S
C1151 C1150 1.385 . S
C1152 C1150 1.478 . S
C1152 C1154 1.381 . S
C1152 C1158 1.383 . S
C1153 C1149 1.495 . S
C1153 H1159 0.959 . S
C1153 H1160 0.961 . S
C1153 H1161 0.960 . S
C1154 C1152 1.381 . S
C1154 C1155 1.394 . S
C1154 H1162 0.930 . S
C1155 C1154 1.394 . S
C1155 C1156 1.383 . S
C1155 H1163 0.929 . S
C1156 C1155 1.383 . S
C1156 C1157 1.377 . S
C1157 H1141 0.930 . S
C1157 C1156 1.377 . S
C1157 C1158 1.379 . S
C1158 H1142 0.931 . S
C1158 C1152 1.383 . S
C1158 C1157 1.379 . S
H1159 C1153 0.959 . S
H1160 C1153 0.961 . S
H1161 C1153 0.960 . S
H1162 C1154 0.930 . S
H1163 C1155 0.929 . S
H1164 C1172 0.929 . S
H1165 C1174 0.930 . S
H1166 C1176 0.930 . S
H1167 C1179 0.929 . S
H1168 C1182 0.930 . S
H1169 C1184 0.960 . S
H1170 C1184 0.960 . S
H1171 C1184 0.960 . S
C1172 H1164 0.929 . S
C1172 C1173 1.377 . S
C1172 C1174 1.384 . S
C1173 C1172 1.377 . S
C1173 C1179 1.390 . S
C1174 H1165 0.930 . S
C1174 C1172 1.384 . S
C1174 C1175 1.372 . S
C1175 C1174 1.372 . S
C1175 C1176 1.400 . S
C1175 C1180 1.490 . S
C1176 H1166 0.930 . S
C1176 C1175 1.400 . S
C1176 C1179 1.386 . S
H1177 C1193 0.930 . S
H1178 C1194 0.931 . S
C1179 H1167 0.929 . S
C1179 C1173 1.390 . S
C1179 C1176 1.386 . S
C1180 C1175 1.490 . S
C1180 C1182 1.395 . S
C1180 C1183 1.403 . S
H1181 C1187 0.930 . S
C1182 H1168 0.930 . S
C1182 C1180 1.395 . S
C1182 C1185 1.403 . S
C1183 C1180 1.403 . S
C1183 C1184 1.524 . S
C1183 C1187 1.400 1_455 S
C1184 H1169 0.960 . S
C1184 H1170 0.960 . S
C1184 H1171 0.960 . S
C1184 C1183 1.524 . S
C1185 C1182 1.403 . S
C1185 C1186 1.392 1_455 S
C1185 C1189 1.495 . S
C1186 C1185 1.392 1_655 S
C1186 C1187 1.385 . S
C1186 C1188 1.478 . S
C1187 H1181 0.930 . S
C1187 C1183 1.400 1_655 S
C1187 C1186 1.385 . S
C1188 C1186 1.478 . S
C1188 C1190 1.381 . S
C1188 C1194 1.383 . S
C1189 C1185 1.495 . S
C1189 H1195 0.959 . S
C1189 H1196 0.961 1_455 S
C1189 H1197 0.977 1_554 S
C1190 C1188 1.381 . S
C1190 C1191 1.394 . S
C1190 H1198 0.929 1_554 S
C1191 C1190 1.394 . S
C1191 C1192 1.383 . S
C1191 H1199 0.929 1_554 S
C1192 C1191 1.383 . S
C1192 C1193 1.377 . S
C1193 H1177 0.930 . S
C1193 C1192 1.377 . S
C1193 C1194 1.379 . S
C1194 H1178 0.931 . S
C1194 C1188 1.383 . S
C1194 C1193 1.379 . S
H1195 C1189 0.959 . S
H1196 C1189 0.961 1_655 S
H1197 C1189 0.977 1_556 S
H1198 C1190 0.929 1_556 S
H1199 C1191 0.929 1_556 S
H1200 C1208 0.929 . S
H1201 C1210 0.930 . S
H1202 C1212 0.930 . S
H1203 C1215 0.929 . S
H1204 C1218 0.930 . S
H1205 C1220 0.960 . S
H1206 C1220 0.960 . S
H1207 C1220 0.960 . S
C1208 H1200 0.929 . S
C1208 C1209 1.377 . S
C1208 C1210 1.384 . S
C1209 C1208 1.377 . S
C1209 C1215 1.390 . S
C1210 H1201 0.930 . S
C1210 C1208 1.384 . S
C1210 C1211 1.372 . S
C1211 C1210 1.372 . S
C1211 C1212 1.400 . S
C1211 C1216 1.490 . S
C1212 H1202 0.930 . S
C1212 C1211 1.400 . S
C1212 C1215 1.386 . S
H1213 C1229 0.930 . S
H1214 C1230 0.931 . S
C1215 H1203 0.929 . S
C1215 C1209 1.390 . S
C1215 C1212 1.386 . S
C1216 C1211 1.490 . S
C1216 C1218 1.395 . S
C1216 C1219 1.403 . S
H1217 C1223 0.930 . S
C1218 H1204 0.930 . S
C1218 C1216 1.395 . S
C1218 C1221 1.403 . S
C1219 C1216 1.403 . S
C1219 C1220 1.524 . S
C1219 C1223 1.400 1_545 S
C1220 H1205 0.960 . S
C1220 H1206 0.960 . S
C1220 H1207 0.960 . S
C1220 C1219 1.524 . S
C1221 C1218 1.403 . S
C1221 C1222 1.392 1_545 S
C1221 C1225 1.518 . S
C1222 C1221 1.392 1_565 S
C1222 C1223 1.385 . S
C1222 C1224 1.478 . S
C1223 H1217 0.930 . S
C1223 C1219 1.400 1_565 S
C1223 C1222 1.385 . S
C1224 C1222 1.478 . S
C1224 C1226 1.381 . S
C1224 C1230 1.383 . S
C1225 C1221 1.518 . S
C1225 H1231 0.974 . S
C1225 H1232 0.928 1_545 S
C1225 H1233 0.958 1_545 S
C1226 C1224 1.381 . S
C1226 C1227 1.394 . S
C1226 H1234 0.930 . S
C1227 C1226 1.394 . S
C1227 C1228 1.383 . S
C1227 H1235 0.929 . S
C1228 C1227 1.383 . S
C1228 C1229 1.377 . S
C1229 H1213 0.930 . S
C1229 C1228 1.377 . S
C1229 C1230 1.379 . S
C1230 H1214 0.931 . S
C1230 C1224 1.383 . S
C1230 C1229 1.379 . S
H1231 C1225 0.974 . S
H1232 C1225 0.928 1_565 S
H1233 C1225 0.958 1_565 S
H1234 C1226 0.930 . S
H1235 C1227 0.929 . S
H1236 C1244 0.929 . S
H1237 C1246 0.930 . S
H1238 C1248 0.930 . S
H1239 C1251 0.929 . S
H1240 C1254 0.930 . S
H1241 C1256 0.960 . S
H1242 C1256 0.960 . S
H1243 C1256 0.960 . S
C1244 H1236 0.929 . S
C1244 C1245 1.377 . S
C1244 C1246 1.384 . S
C1245 C1244 1.377 . S
C1245 C1251 1.390 . S
C1246 H1237 0.930 . S
C1246 C1244 1.384 . S
C1246 C1247 1.372 . S
C1247 C1246 1.372 . S
C1247 C1248 1.400 . S
C1247 C1252 1.490 . S
C1248 H1238 0.930 . S
C1248 C1247 1.400 . S
C1248 C1251 1.386 . S
H1249 C1265 0.930 . S
H1250 C1266 0.931 . S
C1251 H1239 0.929 . S
C1251 C1245 1.390 . S
C1251 C1248 1.386 . S
C1252 C1247 1.490 . S
C1252 C1254 1.395 . S
C1252 C1255 1.403 . S
H1253 C1259 0.930 . S
C1254 H1240 0.930 . S
C1254 C1252 1.395 . S
C1254 C1257 1.403 . S
C1255 C1252 1.403 . S
C1255 C1256 1.524 . S
C1255 C1259 1.400 . S
C1256 H1241 0.960 . S
C1256 H1242 0.960 . S
C1256 H1243 0.960 . S
C1256 C1255 1.524 . S
C1257 C1254 1.403 . S
C1257 C1258 1.392 . S
C1257 C1261 1.495 . S
C1258 C1257 1.392 . S
C1258 C1259 1.385 . S
C1258 C1260 1.478 . S
C1259 H1253 0.930 . S
C1259 C1255 1.400 . S
C1259 C1258 1.385 . S
C1260 C1258 1.478 . S
C1260 C1262 1.381 . S
C1260 C1266 1.383 . S
C1261 C1257 1.495 . S
C1261 H1267 0.959 . S
C1261 H1268 0.961 . S
C1261 H1269 0.960 . S
C1262 C1260 1.381 . S
C1262 C1263 1.394 . S
C1262 H1270 0.930 . S
C1263 C1262 1.394 . S
C1263 C1264 1.383 . S
C1263 H1271 0.929 . S
C1264 C1263 1.383 . S
C1264 C1265 1.377 . S
C1265 H1249 0.930 . S
C1265 C1264 1.377 . S
C1265 C1266 1.379 . S
C1266 H1250 0.931 . S
C1266 C1260 1.383 . S
C1266 C1265 1.379 . S
H1267 C1261 0.959 . S
H1268 C1261 0.961 . S
H1269 C1261 0.960 . S
H1270 C1262 0.930 . S
H1271 C1263 0.929 . S
H1272 C1280 0.929 . S
H1273 C1282 0.930 . S
H1274 C1284 0.930 . S
H1275 C1287 0.929 . S
H1276 C1290 0.930 . S
H1277 C1292 0.960 . S
H1278 C1292 0.960 . S
H1279 C1292 0.960 1_455 S
C1280 H1272 0.929 . S
C1280 C1281 1.377 . S
C1280 C1282 1.384 . S
C1281 C1280 1.377 . S
C1281 C1287 1.390 . S
C1282 H1273 0.930 . S
C1282 C1280 1.384 . S
C1282 C1283 1.372 . S
C1283 C1282 1.372 . S
C1283 C1284 1.400 . S
C1283 C1288 1.490 . S
C1284 H1274 0.930 . S
C1284 C1283 1.400 . S
C1284 C1287 1.386 . S
H1285 C1301 0.930 . S
H1286 C1302 0.931 . S
C1287 H1275 0.929 . S
C1287 C1281 1.390 . S
C1287 C1284 1.386 . S
C1288 C1283 1.490 . S
C1288 C1290 1.395 . S
C1288 C1291 1.403 1_455 S
H1289 C1295 0.930 . S
C1290 H1276 0.930 . S
C1290 C1288 1.395 . S
C1290 C1293 1.403 1_455 S
C1291 C1288 1.403 1_655 S
C1291 C1292 1.524 . S
C1291 C1295 1.400 . S
C1292 H1277 0.960 . S
C1292 H1278 0.960 . S
C1292 H1279 0.960 1_655 S
C1292 C1291 1.524 . S
C1293 C1290 1.403 1_655 S
C1293 C1294 1.392 . S
C1293 C1297 1.495 . S
C1294 C1293 1.392 . S
C1294 C1295 1.385 . S
C1294 C1296 1.478 . S
C1295 H1289 0.930 . S
C1295 C1291 1.400 . S
C1295 C1294 1.385 . S
C1296 C1294 1.478 . S
C1296 C1298 1.381 . S
C1296 C1302 1.383 . S
C1297 C1293 1.495 . S
C1297 H1303 0.959 . S
C1297 H1304 0.961 . S
C1297 H1305 0.960 . S
C1298 C1296 1.381 . S
C1298 C1299 1.394 . S
C1298 H1306 0.930 . S
C1299 C1298 1.394 . S
C1299 C1300 1.383 . S
C1299 H1307 0.929 . S
C1300 C1299 1.383 . S
C1300 C1301 1.377 . S
C1301 H1285 0.930 . S
C1301 C1300 1.377 . S
C1301 C1302 1.379 . S
C1302 H1286 0.931 . S
C1302 C1296 1.383 . S
C1302 C1301 1.379 . S
H1303 C1297 0.959 . S
H1304 C1297 0.961 . S
H1305 C1297 0.960 . S
H1306 C1298 0.930 . S
H1307 C1299 0.929 . S
H1308 C1316 0.929 . S
H1309 C1318 0.930 . S
H1310 C1320 0.930 . S
H1311 C1323 0.929 . S
H1312 C1326 0.930 . S
H1313 C1328 0.960 . S
H1314 C1328 0.960 1_545 S
H1315 C1328 0.960 . S
C1316 H1308 0.929 . S
C1316 C1317 1.377 . S
C1316 C1318 1.384 . S
C1317 C1316 1.377 . S
C1317 C1323 1.390 . S
C1318 H1309 0.930 . S
C1318 C1316 1.384 . S
C1318 C1319 1.372 . S
C1319 C1318 1.372 . S
C1319 C1320 1.400 . S
C1319 C1324 1.490 . S
C1320 H1310 0.930 . S
C1320 C1319 1.400 . S
C1320 C1323 1.386 . S
H1321 C1337 0.930 . S
H1322 C1338 0.931 . S
C1323 H1311 0.929 . S
C1323 C1317 1.390 . S
C1323 C1320 1.386 . S
C1324 C1319 1.490 . S
C1324 C1326 1.395 . S
C1324 C1327 1.403 1_545 S
H1325 C1331 0.930 . S
C1326 H1312 0.930 . S
C1326 C1324 1.395 . S
C1326 C1329 1.403 1_545 S
C1327 C1324 1.403 1_565 S
C1327 C1328 1.524 . S
C1327 C1331 1.400 . S
C1328 H1313 0.960 . S
C1328 H1314 0.960 1_565 S
C1328 H1315 0.960 . S
C1328 C1327 1.524 . S
C1329 C1326 1.403 1_565 S
C1329 C1330 1.392 . S
C1329 C1333 1.495 . S
C1330 C1329 1.392 . S
C1330 C1331 1.385 . S
C1330 C1332 1.478 . S
C1331 H1325 0.930 . S
C1331 C1327 1.400 . S
C1331 C1330 1.385 . S
C1332 C1330 1.478 . S
C1332 C1334 1.381 . S
C1332 C1338 1.383 . S
C1333 C1329 1.495 . S
C1333 H1339 0.959 . S
C1333 H1340 0.961 . S
C1333 H1341 0.960 . S
C1334 C1332 1.381 . S
C1334 C1335 1.394 . S
C1334 H1342 0.930 . S
C1335 C1334 1.394 . S
C1335 C1336 1.383 . S
C1335 H1343 0.929 . S
C1336 C1335 1.383 . S
C1336 C1337 1.377 . S
C1337 H1321 0.930 . S
C1337 C1336 1.377 . S
C1337 C1338 1.379 . S
C1338 H1322 0.931 . S
C1338 C1332 1.383 . S
C1338 C1337 1.379 . S
H1339 C1333 0.959 . S
H1340 C1333 0.961 . S
H1341 C1333 0.960 . S
H1342 C1334 0.930 . S
H1343 C1335 0.929 . S
H1344 C1352 0.929 . S
H1345 C1354 0.930 . S
H1346 C1356 0.930 . S
H1347 C1359 0.929 . S
H1348 C1362 0.930 . S
H1349 C1364 0.960 . S
H1350 C1364 0.960 . S
H1351 C1364 0.960 . S
C1352 H1344 0.929 . S
C1352 C1353 1.377 . S
C1352 C1354 1.384 . S
C1353 C1352 1.377 . S
C1353 C1359 1.390 . S
C1354 H1345 0.930 . S
C1354 C1352 1.384 . S
C1354 C1355 1.372 . S
C1355 C1354 1.372 . S
C1355 C1356 1.400 . S
C1355 C1360 1.490 . S
C1356 H1346 0.930 . S
C1356 C1355 1.400 . S
C1356 C1359 1.386 . S
H1357 C1373 0.930 . S
H1358 C1374 0.931 . S
C1359 H1347 0.929 . S
C1359 C1353 1.390 . S
C1359 C1356 1.386 . S
C1360 C1355 1.490 . S
C1360 C1362 1.395 . S
C1360 C1363 1.403 . S
H1361 C1367 0.930 . S
C1362 H1348 0.930 . S
C1362 C1360 1.395 . S
C1362 C1365 1.403 . S
C1363 C1360 1.403 . S
C1363 C1364 1.524 . S
C1363 C1367 1.400 . S
C1364 H1349 0.960 . S
C1364 H1350 0.960 . S
C1364 H1351 0.960 . S
C1364 C1363 1.524 . S
C1365 C1362 1.403 . S
C1365 C1366 1.392 . S
C1365 C1369 1.495 . S
C1366 C1365 1.392 . S
C1366 C1367 1.385 . S
C1366 C1368 1.478 . S
C1367 H1361 0.930 . S
C1367 C1363 1.400 . S
C1367 C1366 1.385 . S
C1368 C1366 1.478 . S
C1368 C1370 1.381 . S
C1368 C1374 1.383 . S
C1369 C1365 1.495 . S
C1369 H1375 0.959 . S
C1369 H1376 0.961 . S
C1369 H1377 0.960 . S
C1370 C1368 1.381 . S
C1370 C1371 1.394 . S
C1370 H1378 0.930 . S
C1371 C1370 1.394 . S
C1371 C1372 1.383 . S
C1371 H1379 0.929 . S
C1372 C1371 1.383 . S
C1372 C1373 1.377 . S
C1373 H1357 0.930 . S
C1373 C1372 1.377 . S
C1373 C1374 1.379 . S
C1374 H1358 0.931 . S
C1374 C1368 1.383 . S
C1374 C1373 1.379 . S
H1375 C1369 0.959 . S
H1376 C1369 0.961 . S
H1377 C1369 0.960 . S
H1378 C1370 0.930 . S
H1379 C1371 0.929 . S
H1380 C1388 0.929 . S
H1381 C1390 0.930 . S
H1382 C1392 0.930 . S
H1383 C1395 0.929 . S
H1384 C1398 0.930 . S
H1385 C1400 0.960 . S
H1386 C1400 0.960 . S
H1387 C1400 0.960 . S
C1388 H1380 0.929 . S
C1388 C1389 1.377 . S
C1388 C1390 1.384 . S
C1389 C1388 1.377 . S
C1389 C1395 1.390 . S
C1390 H1381 0.930 . S
C1390 C1388 1.384 . S
C1390 C1391 1.372 . S
C1391 C1390 1.372 . S
C1391 C1392 1.400 . S
C1391 C1396 1.490 . S
C1392 H1382 0.930 . S
C1392 C1391 1.400 . S
C1392 C1395 1.386 . S
H1393 C1409 0.930 . S
H1394 C1410 0.931 . S
C1395 H1383 0.929 . S
C1395 C1389 1.390 . S
C1395 C1392 1.386 . S
C1396 C1391 1.490 . S
C1396 C1398 1.395 . S
C1396 C1399 1.403 . S
H1397 C1403 0.930 . S
C1398 H1384 0.930 . S
C1398 C1396 1.395 . S
C1398 C1401 1.403 . S
C1399 C1396 1.403 . S
C1399 C1400 1.524 . S
C1399 C1403 1.400 . S
C1400 H1385 0.960 . S
C1400 H1386 0.960 . S
C1400 H1387 0.960 . S
C1400 C1399 1.524 . S
C1401 C1398 1.403 . S
C1401 C1402 1.392 . S
C1401 C1405 1.495 . S
C1402 C1401 1.392 . S
C1402 C1403 1.385 . S
C1402 C1404 1.478 . S
C1403 H1397 0.930 . S
C1403 C1399 1.400 . S
C1403 C1402 1.385 . S
C1404 C1402 1.478 . S
C1404 C1406 1.381 . S
C1404 C1410 1.383 . S
C1405 C1401 1.495 . S
C1405 H1411 0.959 . S
C1405 H1412 0.961 . S
C1405 H1413 0.960 . S
C1406 C1404 1.381 . S
C1406 C1407 1.394 . S
C1406 H1414 0.930 . S
C1407 C1406 1.394 . S
C1407 C1408 1.383 . S
C1407 H1415 0.929 . S
C1408 C1407 1.383 . S
C1408 C1409 1.377 . S
C1409 H1393 0.930 . S
C1409 C1408 1.377 . S
C1409 C1410 1.379 . S
C1410 H1394 0.931 . S
C1410 C1404 1.383 . S
C1410 C1409 1.379 . S
H1411 C1405 0.959 . S
H1412 C1405 0.961 . S
H1413 C1405 0.960 . S
H1414 C1406 0.930 . S
H1415 C1407 0.929 . S
H1416 C1424 0.929 . S
H1417 C1426 0.930 . S
H1418 C1428 0.930 . S
H1419 C1431 0.929 . S
H1420 C1434 0.930 . S
H1421 C1436 0.960 . S
H1422 C1436 0.960 . S
H1423 C1436 0.960 . S
C1424 H1416 0.929 . S
C1424 C1425 1.377 . S
C1424 C1426 1.384 . S
C1425 C1424 1.377 . S
C1425 C1431 1.390 . S
C1426 H1417 0.930 . S
C1426 C1424 1.384 . S
C1426 C1427 1.372 . S
C1427 C1426 1.372 . S
C1427 C1428 1.400 . S
C1427 C1432 1.490 . S
C1428 H1418 0.930 . S
C1428 C1427 1.400 . S
C1428 C1431 1.386 . S
H1429 C1445 0.930 . S
H1430 C1446 0.931 . S
C1431 H1419 0.929 . S
C1431 C1425 1.390 . S
C1431 C1428 1.386 . S
C1432 C1427 1.490 . S
C1432 C1434 1.395 . S
C1432 C1435 1.403 . S
H1433 C1439 0.930 . S
C1434 H1420 0.930 . S
C1434 C1432 1.395 . S
C1434 C1437 1.403 . S
C1435 C1432 1.403 . S
C1435 C1436 1.524 . S
C1435 C1439 1.400 . S
C1436 H1421 0.960 . S
C1436 H1422 0.960 . S
C1436 H1423 0.960 . S
C1436 C1435 1.524 . S
C1437 C1434 1.403 . S
C1437 C1438 1.392 . S
C1437 C1441 1.495 . S
C1438 C1437 1.392 . S
C1438 C1439 1.385 . S
C1438 C1440 1.478 . S
C1439 H1433 0.930 . S
C1439 C1435 1.400 . S
C1439 C1438 1.385 . S
C1440 C1438 1.478 . S
C1440 C1442 1.381 . S
C1440 C1446 1.383 . S
C1441 C1437 1.495 . S
C1441 H1447 0.959 . S
C1441 H1448 0.961 . S
C1441 H1449 0.960 . S
C1442 C1440 1.381 . S
C1442 C1443 1.394 . S
C1442 H1450 0.930 . S
C1443 C1442 1.394 . S
C1443 C1444 1.383 . S
C1443 H1451 0.929 . S
C1444 C1443 1.383 . S
C1444 C1445 1.377 . S
C1445 H1429 0.930 . S
C1445 C1444 1.377 . S
C1445 C1446 1.379 . S
C1446 H1430 0.931 . S
C1446 C1440 1.383 . S
C1446 C1445 1.379 . S
H1447 C1441 0.959 . S
H1448 C1441 0.961 . S
H1449 C1441 0.960 . S
H1450 C1442 0.930 . S
H1451 C1443 0.929 . S
H1452 C1460 0.929 . S
H1453 C1462 0.930 . S
H1454 C1464 0.930 . S
H1455 C1467 0.929 . S
H1456 C1470 0.930 . S
H1457 C1472 0.960 . S
H1458 C1472 0.960 . S
H1459 C1472 0.960 . S
C1460 H1452 0.929 . S
C1460 C1461 1.377 . S
C1460 C1462 1.384 . S
C1461 C1460 1.377 . S
C1461 C1467 1.390 . S
C1462 H1453 0.930 . S
C1462 C1460 1.384 . S
C1462 C1463 1.372 . S
C1463 C1462 1.372 . S
C1463 C1464 1.400 . S
C1463 C1468 1.490 . S
C1464 H1454 0.930 . S
C1464 C1463 1.400 . S
C1464 C1467 1.386 . S
H1465 C1481 0.930 . S
H1466 C1482 0.931 . S
C1467 H1455 0.929 . S
C1467 C1461 1.390 . S
C1467 C1464 1.386 . S
C1468 C1463 1.490 . S
C1468 C1470 1.395 . S
C1468 C1471 1.403 . S
H1469 C1475 0.930 . S
C1470 H1456 0.930 . S
C1470 C1468 1.395 . S
C1470 C1473 1.403 . S
C1471 C1468 1.403 . S
C1471 C1472 1.524 . S
C1471 C1475 1.400 . S
C1472 H1457 0.960 . S
C1472 H1458 0.960 . S
C1472 H1459 0.960 . S
C1472 C1471 1.524 . S
C1473 C1470 1.403 . S
C1473 C1474 1.392 . S
C1473 C1477 1.495 . S
C1474 C1473 1.392 . S
C1474 C1475 1.385 . S
C1474 C1476 1.478 . S
C1475 H1469 0.930 . S
C1475 C1471 1.400 . S
C1475 C1474 1.385 . S
C1476 C1474 1.478 . S
C1476 C1478 1.381 . S
C1476 C1482 1.383 . S
C1477 C1473 1.495 . S
C1477 H1483 0.959 . S
C1477 H1484 0.961 . S
C1477 H1485 0.960 . S
C1478 C1476 1.381 . S
C1478 C1479 1.394 . S
C1478 H1486 0.930 . S
C1479 C1478 1.394 . S
C1479 C1480 1.383 . S
C1479 H1487 0.929 . S
C1480 C1479 1.383 . S
C1480 C1481 1.377 . S
C1481 H1465 0.930 . S
C1481 C1480 1.377 . S
C1481 C1482 1.379 . S
C1482 H1466 0.931 . S
C1482 C1476 1.383 . S
C1482 C1481 1.379 . S
H1483 C1477 0.959 . S
H1484 C1477 0.961 . S
H1485 C1477 0.960 . S
H1486 C1478 0.930 . S
H1487 C1479 0.929 . S
H1488 C1496 0.929 . S
H1489 C1498 0.930 . S
H1490 C1500 0.930 . S
H1491 C1503 0.929 . S
H1492 C1506 0.930 . S
H1493 C1508 0.960 . S
H1494 C1508 0.960 . S
H1495 C1508 0.960 . S
C1496 H1488 0.929 . S
C1496 C1497 1.377 . S
C1496 C1498 1.384 . S
C1497 C1496 1.377 . S
C1497 C1503 1.390 . S
C1498 H1489 0.930 . S
C1498 C1496 1.384 . S
C1498 C1499 1.372 . S
C1499 C1498 1.372 . S
C1499 C1500 1.400 . S
C1499 C1504 1.490 . S
C1500 H1490 0.930 . S
C1500 C1499 1.400 . S
C1500 C1503 1.386 . S
H1501 C1517 0.930 . S
H1502 C1518 0.931 . S
C1503 H1491 0.929 . S
C1503 C1497 1.390 . S
C1503 C1500 1.386 . S
C1504 C1499 1.490 . S
C1504 C1506 1.395 . S
C1504 C1507 1.403 . S
H1505 C1511 0.930 . S
C1506 H1492 0.930 . S
C1506 C1504 1.395 . S
C1506 C1509 1.403 . S
C1507 C1504 1.403 . S
C1507 C1508 1.524 . S
C1507 C1511 1.400 . S
C1508 H1493 0.960 . S
C1508 H1494 0.960 . S
C1508 H1495 0.960 . S
C1508 C1507 1.524 . S
C1509 C1506 1.403 . S
C1509 C1510 1.392 . S
C1509 C1513 1.495 . S
C1510 C1509 1.392 . S
C1510 C1511 1.385 . S
C1510 C1512 1.478 . S
C1511 H1505 0.930 . S
C1511 C1507 1.400 . S
C1511 C1510 1.385 . S
C1512 C1510 1.478 . S
C1512 C1514 1.381 . S
C1512 C1518 1.383 . S
C1513 C1509 1.495 . S
C1513 H1519 0.959 . S
C1513 H1520 0.961 . S
C1513 H1521 0.960 . S
C1514 C1512 1.381 . S
C1514 C1515 1.394 1_556 S
C1514 H1522 0.930 . S
C1515 C1514 1.394 1_554 S
C1515 C1516 1.383 . S
C1515 H1523 0.929 . S
C1516 C1515 1.383 . S
C1516 C1517 1.377 . S
C1517 H1501 0.930 . S
C1517 C1516 1.377 . S
C1517 C1518 1.379 1_554 S
C1518 H1502 0.931 . S
C1518 C1512 1.383 . S
C1518 C1517 1.379 1_556 S
H1519 C1513 0.959 . S
H1520 C1513 0.961 . S
H1521 C1513 0.960 . S
H1522 C1514 0.930 . S
H1523 C1515 0.929 . S
H1524 C1532 0.929 . S
H1525 C1534 0.924 1_554 S
H1526 C1536 0.930 . S
H1527 C1539 0.929 . S
H1528 C1542 0.930 . S
H1529 C1544 0.960 . S
H1530 C1544 0.960 . S
H1531 C1544 0.960 . S
C1532 H1524 0.929 . S
C1532 C1533 1.377 . S
C1532 C1534 1.400 . S
C1533 C1532 1.377 . S
C1533 C1539 1.390 . S
C1534 H1525 0.924 1_556 S
C1534 C1532 1.400 . S
C1534 C1535 1.362 1_556 S
C1535 C1534 1.362 1_554 S
C1535 C1536 1.400 . S
C1535 C1540 1.490 . S
C1536 H1526 0.930 . S
C1536 C1535 1.400 . S
C1536 C1539 1.386 1_554 S
H1537 C1553 0.930 . S
H1538 C1554 0.931 . S
C1539 H1527 0.929 . S
C1539 C1533 1.390 . S
C1539 C1536 1.386 1_556 S
C1540 C1535 1.490 . S
C1540 C1542 1.395 . S
C1540 C1543 1.403 . S
H1541 C1547 0.930 . S
C1542 H1528 0.930 . S
C1542 C1540 1.395 . S
C1542 C1545 1.403 . S
C1543 C1540 1.403 . S
C1543 C1544 1.524 . S
C1543 C1547 1.400 . S
C1544 H1529 0.960 . S
C1544 H1530 0.960 . S
C1544 H1531 0.960 . S
C1544 C1543 1.524 . S
C1545 C1542 1.403 . S
C1545 C1546 1.392 . S
C1545 C1549 1.495 . S
C1546 C1545 1.392 . S
C1546 C1547 1.385 . S
C1546 C1548 1.478 . S
C1547 H1541 0.930 . S
C1547 C1543 1.400 . S
C1547 C1546 1.385 . S
C1548 C1546 1.478 . S
C1548 C1550 1.381 . S
C1548 C1554 1.383 . S
C1549 C1545 1.495 . S
C1549 H1555 0.959 . S
C1549 H1556 0.961 . S
C1549 H1557 0.960 . S
C1550 C1548 1.381 . S
C1550 C1551 1.394 . S
C1550 H1558 0.930 . S
C1551 C1550 1.394 . S
C1551 C1552 1.383 . S
C1551 H1559 0.929 . S
C1552 C1551 1.383 . S
C1552 C1553 1.377 . S
C1553 H1537 0.930 . S
C1553 C1552 1.377 . S
C1553 C1554 1.379 . S
C1554 H1538 0.931 . S
C1554 C1548 1.383 . S
C1554 C1553 1.379 . S
H1555 C1549 0.959 . S
H1556 C1549 0.961 . S
H1557 C1549 0.960 . S
H1558 C1550 0.930 . S
H1559 C1551 0.929 . S
C273 C5 1.372 . S
C292 C185 1.392 . S
C309 C207 1.370 . S
C328 C31 1.364 . S
C345 C229 1.369 . S
C364 C49 1.372 . S
C381 C75 1.375 . S
C400 C251 1.349 . S
C417 C141 1.376 . S
C436 C93 1.351 . S
C453 C163 1.374 . S
C472 C119 1.392 . S
C489 C9 0.729 . S
C508 C203 0.713 . S
C525 C27 0.744 . S
C544 C225 0.784 . S
C561 C247 0.726 . S
C580 C53 0.698 . S
C597 C137 0.718 . S
C616 C71 0.667 . S
C633 C97 0.747 . S
C652 C159 0.800 . S
C669 C115 0.720 . S
C688 C181 0.668 . S
C705 C138 1.253 . S
C724 C7 1.279 1_556 S
C741 C160 1.255 1_554 S
C760 C28 1.273 . S
C777 C182 1.261 . S
C796 C51 1.237 . S
C813 C72 1.249 . S
C832 C204 1.274 . S
C849 C95 1.260 . S
C868 C226 1.248 . S
C885 C116 1.255 . S
C904 C248 1.239 . S
C921 C8 1.583 . S
C940 C118 1.588 . S
C957 C26 1.585 . S
C976 C4 1.579 . S
C993 C52 1.580 . S
C1012 C30 1.558 . S
C1029 C48 1.576 . S
C1048 C70 1.576 . S
C1065 C96 1.585 . S
C1084 C74 1.592 . S
C1101 C114 1.584 . S
C1120 C92 1.590 . S
C1137 C162 1.575 . S
C1156 C136 1.568 . S
C1173 C184 1.575 . S
C1192 C158 1.564 . S
C1209 C206 1.575 . S
C1228 C180 1.566 . S
C1245 C202 1.581 . S
C1264 C228 1.559 . S
C1281 C224 1.581 . S
C1300 C250 1.578 . S
C1317 C246 1.585 . S
C1336 C140 1.592 . S
C1353 C227 0.363 . S
C1372 C6 0.434 . S
C1389 C249 0.364 . S
C1408 C29 0.299 . S
C1425 C139 0.358 . S
C1444 C50 0.391 . S
C1461 C161 0.372 . S
C1480 C73 0.285 . S
C1497 C94 0.379 . S
C1516 C183 0.290 . S
C1533 C117 0.385 . S
C1552 C205 0.309 . S
