# Generated by pormake.
# Topology sxa, (6)-cn, num edge types: 1
# Building blocks:
#     Node 0, Type 0, BuildingBlock: UKALOJ_clean_sbu_0, # of connection points: 6
#     Node 1, Type 0, BuildingBlock: UKALOJ_clean_sbu_0, # of connection points: 6
#     Node 2, Type 0, BuildingBlock: UKALOJ_clean_sbu_0, # of connection points: 6
#     Node 3, Type 0, BuildingBlock: UKALOJ_clean_sbu_0, # of connection points: 6
#     Edge 4, Type (0, 0), BuildingBlock: FUNLAD_clean_linker_1, # of connection points: 2
#     Edge 5, Type (0, 0), BuildingBlock: FUNLAD_clean_linker_1, # of connection points: 2
#     Edge 6, Type (0, 0), BuildingBlock: FUNLAD_clean_linker_1, # of connection points: 2
#     Edge 7, Type (0, 0), BuildingBlock: FUNLAD_clean_linker_1, # of connection points: 2
#     Edge 8, Type (0, 0), BuildingBlock: FUNLAD_clean_linker_1, # of connection points: 2
#     Edge 9, Type (0, 0), BuildingBlock: FUNLAD_clean_linker_1, # of connection points: 2
#     Edge 10, Type (0, 0), BuildingBlock: FUNLAD_clean_linker_1, # of connection points: 2
#     Edge 11, Type (0, 0), BuildingBlock: FUNLAD_clean_linker_1, # of connection points: 2
#     Edge 12, Type (0, 0), BuildingBlock: FUNLAD_clean_linker_1, # of connection points: 2
#     Edge 13, Type (0, 0), BuildingBlock: FUNLAD_clean_linker_1, # of connection points: 2
#     Edge 14, Type (0, 0), BuildingBlock: FUNLAD_clean_linker_1, # of connection points: 2
#     Edge 15, Type (0, 0), BuildingBlock: FUNLAD_clean_linker_1, # of connection points: 2
# Relax obj value: 0.138
# Max RMSD: 0.194
# Mean RMSD: 0.194
data_MOF--net-sxa--node1-UKALOJ_clean_sbu_0--edge1-FUNLAD_clean_linker_1
_symmetry_space_group_name_H-M    P1
_symmetry_Int_Tables_number       1
_symmetry_cell_setting            triclinic
loop_
_symmetry_equiv_pos_as_xyz
'x, y, z'
_cell_length_a     25.132292
_cell_length_b     39.0867
_cell_length_c     15.937872
_cell_angle_alpha  89.343026
_cell_angle_beta   89.924228
_cell_angle_gamma 89.971922
loop_
_atom_site_label
_atom_site_type_symbol
_atom_site_fract_x
_atom_site_fract_y
_atom_site_fract_z
_atom_type_partial_charge
Zn0 Zn 0.98099 0.81374 0.22858 0.0
O1 O 0.01452 0.8177 0.34892 0.0
C2 C 0.0825 0.78607 0.16849 0.0
Zn3 Zn -0.01521 0.75588 0.24056 0.0
C4 C 0.03117 0.79143 0.389 0.0
O5 O 0.02316 0.76147 0.35994 0.0
C6 C 0.93893 0.77915 0.07894 0.0
O7 O 0.90919 0.75486 0.29761 0.0
O8 O 0.90228 0.81087 0.28175 0.0
N9 N -0.01021 0.70241 0.24052 0.0
C10 C 0.00547 0.68152 0.17774 0.0
C11 C 0.97588 0.64948 0.27598 0.0
N12 N 0.97144 0.68229 0.30151 0.0
N13 N -0.00292 0.64837 0.19825 0.0
C14 C 0.98271 0.88698 0.14438 0.0
C15 C 0.95455 0.91943 0.24101 0.0
N16 N 0.9751 0.86693 0.21332 0.0
N17 N 0.95776 0.88734 0.27332 0.0
N18 N 0.96984 0.91988 0.15983 0.0
H19 H 0.01976 0.84879 0.06501 0.0
H20 H 0.03366 0.89262 0.03702 0.0
H21 H 0.96946 0.87513 0.01561 0.0
C22 C 0.00274 0.87479 0.06123 0.0
C23 C 0.0269 0.69292 0.09384 0.0
H24 H 0.00376 0.68063 0.04314 0.0
H25 H 0.06871 0.68411 0.0879 0.0
H26 H 0.02569 0.72078 0.08363 0.0
O27 O 0.94769 0.75253 0.12261 0.0
O28 O 0.94911 0.80827 0.10898 0.0
C29 C 0.88256 0.7823 0.30603 0.0
O30 O 0.059 0.81447 0.17918 0.0
O31 O 0.05936 0.75828 0.18673 0.0
Zn32 Zn 0.47941 0.27421 0.23032 0.0
O33 O 0.44172 0.27065 0.34857 0.0
C34 C 0.38313 0.3051 0.1643 0.0
Zn35 Zn 0.48376 0.3323 0.23697 0.0
C36 C 0.43234 0.29831 0.38773 0.0
O37 O 0.44777 0.32694 0.35729 0.0
C38 C 0.52593 0.30757 0.07746 0.0
O39 O 0.56107 0.33089 0.29251 0.0
O40 O 0.55521 0.2746 0.28819 0.0
N41 N 0.47725 0.38558 0.24139 0.0
C42 C 0.50347 0.41141 0.20188 0.0
C43 C 0.43338 0.4327 0.25476 0.0
N44 N 0.43394 0.39912 0.27462 0.0
N45 N 0.47606 0.44133 0.20784 0.0
C46 C 0.45238 0.19692 0.18299 0.0
C47 C 0.52981 0.17502 0.18856 0.0
N48 N 0.48511 0.22102 0.21514 0.0
N49 N 0.53302 0.20695 0.21914 0.0
N50 N 0.47965 0.16804 0.16426 0.0
H51 H 0.37686 0.21759 0.21915 0.0
H52 H 0.37275 0.17711 0.16713 0.0
H53 H 0.38818 0.21515 0.10707 0.0
C54 C 0.39409 0.20191 0.16831 0.0
C55 C 0.55698 0.40709 0.16284 0.0
H56 H 0.57649 0.38379 0.18844 0.0
H57 H 0.58249 0.42956 0.17593 0.0
H58 H 0.55239 0.4045 0.09403 0.0
O59 O 0.51766 0.33531 0.11619 0.0
O60 O 0.51475 0.27917 0.11225 0.0
C61 C 0.58103 0.3014 0.30719 0.0
O62 O 0.40506 0.27617 0.17495 0.0
O63 O 0.40762 0.33223 0.18336 0.0
Zn64 Zn -0.00931 0.31828 0.79213 0.0
O65 O 0.95731 0.32428 0.67152 0.0
C66 C 0.88382 0.30166 0.85619 0.0
Zn67 Zn 0.97219 0.26141 0.79057 0.0
C68 C 0.93521 0.29889 0.63608 0.0
O69 O 0.9373 0.26909 0.66995 0.0
C70 C 0.02177 0.28249 0.94918 0.0
O71 O 0.04857 0.25367 0.73514 0.0
O72 O 0.06635 0.30881 0.73956 0.0
N73 N 0.95679 0.20874 0.79401 0.0
C74 C -0.01642 0.18339 0.83448 0.0
C75 C 0.90953 0.16244 0.79635 0.0
N76 N 0.91087 0.19543 0.76987 0.0
N77 N 0.95464 0.15427 0.83786 0.0
C78 C 0.97931 0.39748 0.8284 0.0
C79 C 0.06056 0.41123 0.84388 0.0
N80 N 0.00878 0.37017 0.80486 0.0
N81 N 0.05926 0.37915 0.81372 0.0
N82 N 0.0108 0.4233 0.8548 0.0
H83 H 0.90404 0.38272 0.77566 0.0
H84 H 0.9057 0.42547 0.81662 0.0
H85 H 0.90392 0.38958 0.88803 0.0
C86 C 0.91974 0.39884 0.82684 0.0
C87 C 0.03751 0.18714 0.87351 0.0
H88 H 0.05941 0.20925 0.84684 0.0
H89 H 0.06132 0.16361 0.86351 0.0
H90 H 0.03288 0.19046 0.9422 0.0
O91 O 0.0044 0.25649 0.91161 0.0
O92 O 0.02117 0.31138 0.91232 0.0
C93 C 0.08029 0.27849 0.72124 0.0
O94 O 0.91653 0.32563 0.84274 0.0
O95 O 0.89686 0.2708 0.84265 0.0
Zn96 Zn 0.47766 0.83205 0.78415 0.0
O97 O 0.39858 0.82578 0.73574 0.0
C98 C 0.44255 0.80363 0.9491 0.0
Zn99 Zn 0.48829 0.77448 0.79639 0.0
C100 C 0.38166 0.7953 0.72577 0.0
O101 O 0.41116 0.77003 0.74539 0.0
C102 C 0.58382 0.8101 0.84841 0.0
O103 O 0.52313 0.77622 0.67371 0.0
O104 O 0.50945 0.83202 0.66167 0.0
N105 N 0.49365 0.72114 0.80647 0.0
C106 C 0.51571 0.70061 0.8661 0.0
C107 C 0.47109 0.6685 0.78538 0.0
N108 N 0.46602 0.70095 0.75649 0.0
N109 N 0.50194 0.66753 0.85451 0.0
C110 C 0.48355 0.90709 0.85093 0.0
C111 C 0.44616 0.93718 0.75587 0.0
N112 N 0.47051 0.88549 0.78817 0.0
N113 N 0.44728 0.90442 0.72915 0.0
N114 N 0.46862 0.93949 0.83244 0.0
H115 H 0.5467 0.91179 0.94016 0.0
H116 H 0.51888 0.86954 0.93745 0.0
H117 H 0.48263 0.90382 0.98514 0.0
C118 C 0.5094 0.89696 0.93249 0.0
C119 C 0.54799 0.7131 0.93865 0.0
H120 H 0.5902 0.71526 0.91883 0.0
H121 H 0.54573 0.69503 0.99273 0.0
H122 H 0.53431 0.7386 0.959 0.0
O123 O 0.56417 0.78028 0.84417 0.0
O124 O 0.55616 0.83603 0.82831 0.0
C125 C 0.52825 0.80429 0.63242 0.0
O126 O 0.44739 0.83068 0.90561 0.0
O127 O 0.45538 0.77505 0.91802 0.0
H128 H 0.95364 0.45766 0.91516 0.0
C129 C -0.00465 0.45366 0.90027 0.0
H130 H 0.07356 0.47136 0.91925 0.0
H131 H 0.92694 0.6058 0.03657 0.0
H132 H 0.89251 0.60727 0.89461 0.0
H133 H 0.91641 0.56237 0.7938 0.0
H134 H 0.97402 0.51539 0.83475 0.0
C135 C 0.03154 0.47578 0.9308 0.0
C136 C 0.0172 0.50384 0.99031 0.0
C137 C -0.01499 0.53191 0.96443 0.0
C138 C 0.97329 0.5588 0.02154 0.0
C139 C 0.93889 0.5855 0.99504 0.0
C140 C 0.91855 0.58655 0.91381 0.0
C141 C 0.93184 0.5612 0.85716 0.0
C142 C 0.96473 0.53421 0.88173 0.0
H143 H 0.02947 0.62262 0.08815 0.0
C144 C 0.00668 0.61904 0.14559 0.0
H145 H 0.96434 0.58305 0.21953 0.0
H146 H 0.07801 0.45339 0.06265 0.0
H147 H 0.11454 0.45297 0.20321 0.0
H148 H 0.09756 0.50073 0.29943 0.0
H149 H 0.04355 0.54916 0.25583 0.0
C150 C -0.01351 0.58776 0.16201 0.0
C151 C -0.00434 0.5585 0.10345 0.0
C152 C 0.02745 0.53035 0.12943 0.0
C153 C 0.03804 0.50303 0.07318 0.0
C154 C 0.06945 0.47514 0.10183 0.0
C155 C 0.09054 0.47448 0.1826 0.0
C156 C 0.08091 0.50134 0.23681 0.0
C157 C 0.04978 0.52899 0.21095 0.0
H158 H 0.45469 0.49489 0.19021 0.0
C159 C 0.48191 0.47505 0.16943 0.0
H160 H 0.53896 0.46309 0.07693 0.0
H161 H 0.47886 0.56786 0.79497 0.0
H162 H 0.46975 0.51321 0.7267 0.0
H163 H 0.47662 0.45926 0.80756 0.0
H164 H 0.49351 0.45955 0.95663 0.0
C165 C 0.51369 0.48254 0.10323 0.0
C166 C 0.50921 0.5159 0.05503 0.0
C167 C 0.49769 0.51542 0.96769 0.0
C168 C 0.4916 0.54669 0.92139 0.0
C169 C 0.48218 0.54509 0.83383 0.0
C170 C 0.47711 0.51385 0.79358 0.0
C171 C 0.48114 0.48349 0.83905 0.0
C172 C 0.49118 0.48408 0.9249 0.0
H173 H 0.55335 0.6374 0.93834 0.0
C174 C 0.51571 0.63774 0.9049 0.0
H175 H 0.44458 0.61166 0.8798 0.0
H176 H 0.54273 0.52716 0.2157 0.0
H177 H 0.54623 0.58169 0.28633 0.0
H178 H 0.52227 0.63513 0.21175 0.0
H179 H 0.49667 0.63455 0.0656 0.0
C180 C 0.48211 0.61095 0.91352 0.0
C181 C 0.49475 0.57873 0.96242 0.0
C182 C 0.50604 0.57924 0.04989 0.0
C183 C 0.51561 0.54799 0.09506 0.0
C184 C 0.53166 0.54973 0.18 0.0
C185 C 0.53434 0.58093 0.22111 0.0
C186 C 0.52117 0.61103 0.17899 0.0
C187 C 0.50704 0.61035 0.09455 0.0
H188 H 0.49557 0.96639 0.94444 0.0
C189 C 0.47435 0.96918 0.88538 0.0
H190 H 0.43365 1.00412 0.80639 0.0
H191 H 0.43269 0.07765 0.18514 0.0
H192 H 0.37417 1.0312 0.22702 0.0
H193 H 0.35334 0.98458 0.12941 0.0
H194 H 0.39155 0.98381 0.98967 0.0
C195 C 0.45386 1.00013 0.86588 0.0
C196 C 0.46152 1.03023 0.92245 0.0
C197 C 0.4373 1.03109 1.00308 0.0
C198 C 0.44776 0.05876 0.05851 0.0
C199 C 0.42499 0.05791 0.13977 0.0
C200 C 0.39145 1.03131 0.16476 0.0
C201 C 0.37984 1.00501 0.10988 0.0
C202 C 0.40232 1.00477 0.02996 0.0
H203 H 0.4211 0.13727 0.09579 0.0
C204 C 0.46214 0.13869 0.11663 0.0
H205 H 0.53806 0.11587 0.10882 0.0
H206 H 0.51221 1.03783 0.77151 0.0
H207 H 0.56757 0.08553 0.7273 0.0
H208 H 0.58344 0.13414 0.8213 0.0
H209 H 0.54423 0.13535 0.96031 0.0
C210 C 0.49632 0.11406 0.09196 0.0
C211 C 0.48116 0.0862 0.03253 0.0
C212 C 0.50365 0.08595 0.95072 0.0
C213 C 0.49388 0.05805 0.89587 0.0
C214 C 0.51779 0.05844 0.81535 0.0
C215 C 0.54973 0.08566 0.78916 0.0
C216 C 0.55873 0.11301 0.84213 0.0
C217 C 0.5361 0.11331 0.92194 0.0
H218 H 0.97228 0.9429 0.03388 0.0
C219 C 0.96816 0.94821 0.10035 0.0
H220 H 0.95558 0.98653 0.19003 0.0
H221 H 0.02591 0.07163 0.83677 0.0
H222 H 0.10861 1.03987 0.84275 0.0
H223 H 0.12328 0.99555 0.95165 0.0
H224 H 0.0548 0.98207 0.05375 0.0
C225 C 0.96093 0.98093 0.12397 0.0
C226 C 0.95481 1.00992 0.06168 0.0
C227 C -0.00351 1.01894 1.00515 0.0
C228 C -0.01064 1.04616 0.94553 0.0
C229 C 0.03016 0.05263 0.88609 0.0
C230 C 0.07773 1.03436 0.88835 0.0
C231 C 0.08589 1.00929 0.94941 0.0
C232 C 0.04597 1.0016 1.00728 0.0
H233 H -0.0004 0.12369 0.92949 0.0
C234 C 0.96578 0.12367 0.88709 0.0
H235 H 0.8995 0.09563 0.84565 0.0
H236 H 0.86611 0.99941 0.15849 0.0
H237 H 0.78553 1.03334 0.15784 0.0
H238 H 0.77581 0.08292 0.06208 0.0
H239 H 0.84634 0.09867 0.96566 0.0
C240 C 0.93433 0.0957 0.88588 0.0
C241 C 0.94191 0.06601 0.94575 0.0
C242 C 0.9007 0.05737 1.00332 0.0
C243 C 0.9069 1.02923 0.0604 0.0
C244 C 0.86425 1.02088 0.11517 0.0
C245 C 0.81757 1.04008 0.11532 0.0
C246 C 0.81206 0.06795 0.06128 0.0
C247 C 0.85292 0.07662 1.00593 0.0
H248 H 0.3182 0.7613 0.68193 0.0
C249 C 0.32914 0.78805 0.68866 0.0
H250 H 0.30522 0.83918 0.66607 0.0
H251 H 0.1674 0.75189 0.3835 0.0
H252 H 0.25279 0.74132 0.31881 0.0
H253 H 0.33594 0.75864 0.38821 0.0
H254 H 0.33401 0.78785 0.52115 0.0
C255 C 0.29603 0.81222 0.65878 0.0
C256 C 0.24563 0.8024 0.61567 0.0
C257 C 0.24736 0.78575 0.53694 0.0
C258 C 0.19933 0.77542 0.49731 0.0
C259 C 0.20242 0.75963 0.41771 0.0
C260 C 0.25127 0.75346 0.3795 0.0
C261 C 0.29807 0.76324 0.41852 0.0
C262 C 0.29637 0.77971 0.49548 0.0
H263 H 0.07404 0.82338 0.47901 0.0
C264 C 0.06729 0.79703 0.46059 0.0
H265 H 0.09497 0.74631 0.46974 0.0
H266 H 0.2281 0.83455 0.76459 0.0
H267 H 0.14264 0.84379 0.83173 0.0
H268 H 0.05966 0.82366 0.76615 0.0
H269 H 0.06154 0.7946 0.63238 0.0
C270 C 0.0995 0.77245 0.49113 0.0
C271 C 0.14946 0.78168 0.53637 0.0
C272 C 0.14781 0.79805 0.61539 0.0
C273 C 0.19585 0.80894 0.65427 0.0
C274 C 0.19289 0.8257 0.73243 0.0
C275 C 0.14411 0.83112 0.77172 0.0
C276 C 0.09738 0.81979 0.73478 0.0
C277 C 0.09898 0.80335 0.65769 0.0
H278 H 0.14226 0.24579 0.665 0.0
C279 C 0.13243 0.27191 0.68194 0.0
H280 H 0.15681 0.32362 0.67813 0.0
H281 H 0.38718 0.24506 0.61354 0.0
H282 H 0.3799 0.22577 0.75871 0.0
H283 H 0.29813 0.23636 0.84034 0.0
H284 H 0.22301 0.26592 0.77735 0.0
C285 C 0.16693 0.29725 0.66425 0.0
C286 C 0.21672 0.29086 0.61631 0.0
C287 C 0.26012 0.27332 0.6541 0.0
C288 C 0.30755 0.26757 0.6074 0.0
C289 C 0.35035 0.25011 0.64646 0.0
C290 C 0.3467 0.23895 0.72963 0.0
C291 C 0.30063 0.24487 0.77557 0.0
C292 C 0.25771 0.2618 0.73856 0.0
H293 H 0.3915 0.32245 0.49404 0.0
C294 C 0.39606 0.29856 0.46046 0.0
H295 H 0.36256 0.24993 0.4377 0.0
H296 H 0.14108 0.32551 0.52535 0.0
H297 H 0.14949 0.34622 0.38194 0.0
H298 H 0.23188 0.33659 0.30135 0.0
H299 H 0.30587 0.30567 0.36296 0.0
C300 C 0.36064 0.27334 0.4737 0.0
C301 C 0.3116 0.27962 0.52353 0.0
C302 C 0.26837 0.29743 0.48595 0.0
C303 C 0.22098 0.30315 0.53251 0.0
C304 C 0.17828 0.3208 0.49326 0.0
C305 C 0.18253 0.33282 0.4109 0.0
C306 C 0.22892 0.32743 0.36557 0.0
C307 C 0.27124 0.3097 0.40197 0.0
H308 H 0.90197 0.33064 0.53345 0.0
C309 C 0.89952 0.30575 0.56438 0.0
H310 H 0.85268 0.26142 0.58303 0.0
H311 H 0.64913 0.355 0.50145 0.0
H312 H 0.66164 0.37313 0.64513 0.0
H313 H 0.74263 0.3572 0.72358 0.0
H314 H 0.81123 0.32267 0.65943 0.0
C315 C 0.85745 0.28554 0.54931 0.0
C316 C 0.8114 0.29801 0.49893 0.0
C317 C 0.77168 0.31838 0.53741 0.0
C318 C 0.72502 0.3277 0.49203 0.0
C319 C 0.68558 0.34747 0.53261 0.0
C320 C 0.69223 0.35807 0.61511 0.0
C321 C 0.73784 0.34912 0.65927 0.0
C322 C 0.77701 0.3293 0.62151 0.0
H323 H 0.64597 0.27108 0.36242 0.0
C324 C 0.63356 0.29707 0.34705 0.0
H325 H 0.65451 0.34934 0.35192 0.0
H326 H 0.88136 0.26076 0.40599 0.0
H327 H 0.87029 0.24383 0.26078 0.0
H328 H 0.78982 0.26027 0.18143 0.0
H329 H 0.72002 0.29363 0.24655 0.0
C330 C 0.66643 0.32307 0.36468 0.0
C331 C 0.7179 0.31634 0.40859 0.0
C332 C 0.75868 0.29708 0.36916 0.0
C333 C 0.80534 0.28783 0.41458 0.0
C334 C 0.84516 0.26839 0.37414 0.0
C335 C 0.83935 0.25857 0.2909 0.0
C336 C 0.79402 0.26779 0.24626 0.0
C337 C 0.75408 0.28682 0.28457 0.0
H338 H 0.81501 0.75502 0.36403 0.0
C339 C 0.82925 0.7802 0.34486 0.0
H340 H 0.81254 0.83319 0.34322 0.0
H341 H 0.57483 0.76043 0.40501 0.0
H342 H 0.58191 0.74311 0.25932 0.0
H343 H 0.66418 0.75383 0.17847 0.0
H344 H 0.74001 0.78155 0.2428 0.0
C345 C 0.79846 0.80764 0.35904 0.0
C346 C 0.74682 0.80389 0.40455 0.0
C347 C 0.70275 0.78773 0.3659 0.0
C348 C 0.65502 0.7819 0.41219 0.0
C349 C 0.61187 0.76548 0.37244 0.0
C350 C 0.6154 0.75547 0.28895 0.0
C351 C 0.66175 0.76147 0.24345 0.0
C352 C 0.70506 0.77733 0.28119 0.0
H353 H 0.56418 0.83007 0.52224 0.0
C354 C 0.56397 0.80643 0.55884 0.0
H355 H 0.6061 0.7611 0.58816 0.0
H356 H 0.82251 0.83724 0.49602 0.0
H357 H 0.81384 0.85672 0.63939 0.0
H358 H 0.7307 0.84739 0.71879 0.0
H359 H 0.65617 0.8179 0.65612 0.0
C360 C 0.60358 0.78375 0.5482 0.0
C361 C 0.65128 0.79247 0.49666 0.0
C362 C 0.6945 0.80991 0.53421 0.0
C363 C 0.74226 0.81565 0.48809 0.0
C364 C 0.78511 0.83253 0.52779 0.0
C365 C 0.78068 0.84387 0.61007 0.0
C366 C 0.73387 0.83864 0.65476 0.0
C367 C 0.69133 0.82166 0.6179 0.0
H368 H 0.39972 0.83129 0.04507 0.0
C369 C 0.41304 0.80579 0.02788 0.0
H370 H 0.39897 0.75299 0.04027 0.0
H371 H 0.21279 0.83832 0.26042 0.0
H372 H 0.28203 0.84951 0.36251 0.0
H373 H 0.37441 0.83068 0.33767 0.0
H374 H 0.39783 0.8 0.21083 0.0
C375 C 0.38716 0.77858 0.05879 0.0
C376 C 0.33096 0.78422 0.08199 0.0
C377 C 0.31795 0.80163 0.15667 0.0
C378 C 0.26489 0.81259 0.17067 0.0
C379 C 0.25264 0.82968 0.24618 0.0
C380 C 0.29204 0.83635 0.30521 0.0
C381 C 0.34407 0.82576 0.2912 0.0
C382 C 0.35702 0.80832 0.21818 0.0
H383 H 0.1535 0.7588 0.12838 0.0
C384 C 0.13728 0.78421 0.1393 0.0
H385 H 0.15448 0.83709 0.14542 0.0
H386 H 0.34282 0.75148 0.93054 0.0
H387 H 0.27473 0.7431 0.82592 0.0
H388 H 0.18358 0.76451 0.84783 0.0
H389 H 0.16038 0.79489 0.97458 0.0
C390 C 0.1687 0.81159 0.13076 0.0
C391 C 0.22531 0.806 0.10978 0.0
C392 C 0.23876 0.78971 0.03361 0.0
C393 C 0.29139 0.77798 0.02054 0.0
C394 C 0.30353 0.76114 0.94436 0.0
C395 C 0.26478 0.75618 0.88334 0.0
C396 C 0.21348 0.76821 0.89569 0.0
C397 C 0.20054 0.78516 0.9693 0.0
H398 H 0.06673 0.25226 0.04032 0.0
C399 C 0.05209 0.27795 0.02682 0.0
H400 H 0.06125 0.33058 0.04853 0.0
H401 H 0.25693 0.2511 0.26067 0.0
H402 H 0.19 0.23717 0.36545 0.0
H403 H 0.0958 0.25259 0.34288 0.0
H404 H 0.06807 0.28206 0.2148 0.0
C405 C 0.07556 0.30488 0.06239 0.0
C406 C 0.13224 0.30115 0.08412 0.0
C407 C 0.14751 0.284 0.15884 0.0
C408 C 0.20169 0.27537 0.17187 0.0
C409 C 0.2162 0.25823 0.24725 0.0
C410 C 0.17815 0.25004 0.30793 0.0
C411 C 0.12513 0.25875 0.29525 0.0
C412 C 0.10972 0.27552 0.22157 0.0
H413 H 0.31155 0.33299 0.12549 0.0
C414 C 0.32813 0.30759 0.13601 0.0
H415 H 0.31203 0.25452 0.14324 0.0
H416 H 0.11643 0.33621 0.93506 0.0
H417 H 0.18215 0.34735 0.82737 0.0
H418 H 0.27512 0.32843 0.84579 0.0
H419 H 0.30253 0.29856 0.97275 0.0
C420 C 0.29709 0.27995 0.12892 0.0
C421 C 0.24006 0.28433 0.1102 0.0
C422 C 0.22448 0.30049 0.03417 0.0
C423 C 0.17071 0.31001 0.02227 0.0
C424 C 0.15644 0.32742 0.94694 0.0
C425 C 0.19392 0.33416 0.8845 0.0
C426 C 0.24625 0.32366 0.89502 0.0
C427 C 0.26154 0.30686 0.96862 0.0
H428 H 0.56997 0.28189 0.97923 0.0
C429 C 0.55666 0.30699 0.9995 0.0
H430 H 0.56884 0.36013 0.98996 0.0
H431 H 0.80478 0.30812 0.0419 0.0
H432 H 0.79006 0.34314 0.16407 0.0
H433 H 0.70465 0.37313 0.18421 0.0
H434 H 0.63439 0.36842 0.08114 0.0
C435 C 0.581 0.33496 0.96921 0.0
C436 C 0.63596 0.33012 0.93849 0.0
C437 C 0.67804 0.33522 0.99609 0.0
C438 C 0.72775 0.31923 0.98277 0.0
C439 C 0.76729 0.32158 0.04597 0.0
C440 C 0.75911 0.3412 0.11719 0.0
C441 C 0.71105 0.35797 0.12865 0.0
C442 C 0.67081 0.35487 0.06933 0.0
H443 H 0.82224 0.33795 0.89166 0.0
C444 C 0.8302 0.31092 0.88154 0.0
H445 H 0.79691 0.26138 0.87449 0.0
H446 H 0.56561 0.32045 0.81138 0.0
H447 H 0.58222 0.28947 0.68197 0.0
H448 H 0.67007 0.26353 0.65477 0.0
H449 H 0.74152 0.26811 0.75635 0.0
C450 C 0.79068 0.28824 0.88846 0.0
C451 C 0.73665 0.30074 0.90796 0.0
C452 C 0.6956 0.29748 0.84769 0.0
C453 C 0.6451 0.31234 0.86308 0.0
C454 C 0.60445 0.30905 0.80246 0.0
C455 C 0.61358 0.29155 0.72811 0.0
C456 C 0.66304 0.27692 0.71283 0.0
C457 C 0.70374 0.27975 0.7717 0.0
H458 H 0.88767 0.75245 0.99097 0.0
C459 C 0.90842 0.77647 1.00123 0.0
H460 H 0.91304 0.8289 0.97011 0.0
H461 H 0.7119 0.76239 0.74938 0.0
H462 H 0.7795 0.74656 0.64805 0.0
H463 H 0.87453 0.75778 0.67551 0.0
H464 H 0.90236 0.7851 0.80495 0.0
C465 C 0.89322 0.80469 0.95922 0.0
C466 C 0.83743 0.80599 0.93151 0.0
C467 C 0.82208 0.79014 0.85619 0.0
C468 C 0.7675 0.78384 0.84057 0.0
C469 C 0.75296 0.76772 0.7648 0.0
C470 C 0.79137 0.7585 0.70606 0.0
C471 C 0.84487 0.76485 0.72148 0.0
C472 C 0.86033 0.78038 0.79584 0.0
H473 H 0.65443 0.84077 0.87728 0.0
C474 C 0.63935 0.81481 0.87179 0.0
H475 H 0.65828 0.76207 0.87344 0.0
H476 H 0.85409 0.84122 0.07763 0.0
H477 H 0.78735 0.85611 0.18067 0.0
H478 H 0.69295 0.84154 0.15848 0.0
H479 H 0.66502 0.81214 0.03318 0.0
C480 C 0.67203 0.7881 0.88276 0.0
C481 C 0.72885 0.79374 0.90046 0.0
C482 C 0.74428 0.81013 0.9755 0.0
C483 C 0.79866 0.81728 0.98971 0.0
C484 C 0.81332 0.83438 0.0643 0.0
C485 C 0.77537 0.84325 0.12394 0.0
C486 C 0.72225 0.83516 0.11131 0.0
C487 C 0.70669 0.81859 0.03846 0.0
loop_
_geom_bond_atom_site_label_1
_geom_bond_atom_site_label_2
_geom_bond_distance
_geom_bond_site_symmetry_2
_ccdc_geom_bond_type
Zn0 O1 2.055 1_655 S
Zn0 O8 2.046 . S
Zn0 N16 2.036 . S
Zn0 O28 2.053 . S
Zn0 O30 2.066 1_655 S
O1 Zn0 2.055 1_455 S
O1 C4 1.259 . S
C2 O30 1.256 . S
C2 O31 1.244 . S
Zn3 O5 2.046 . S
Zn3 O7 2.055 1_455 S
Zn3 N9 2.036 . S
Zn3 O27 2.066 1_455 S
Zn3 O31 2.053 . S
C4 O1 1.259 . S
C4 O5 1.254 . S
O5 Zn3 2.046 . S
O5 C4 1.254 . S
C6 O27 1.256 . S
C6 O28 1.244 . S
O7 Zn3 2.055 1_655 S
O7 C29 1.259 . S
O8 Zn0 2.046 . S
O8 C29 1.254 . S
N9 Zn3 2.036 . S
N9 C10 1.298 1_455 S
N9 N12 1.398 . S
C10 N9 1.298 1_655 S
C10 N13 1.367 . S
C10 C23 1.481 . S
C11 N12 1.299 . S
C11 N13 1.379 1_455 S
N12 N9 1.398 . S
N12 C11 1.299 . S
N13 C10 1.367 . S
N13 C11 1.379 1_655 S
C14 N16 1.298 1_455 S
C14 N18 1.367 . S
C14 C22 1.481 . S
C15 N17 1.299 . S
C15 N18 1.379 1_655 S
N16 Zn0 2.036 . S
N16 C14 1.298 1_655 S
N16 N17 1.398 . S
N17 C15 1.299 . S
N17 N16 1.398 . S
N18 C14 1.367 . S
N18 C15 1.379 1_455 S
H19 C22 0.980 . S
H20 C22 0.981 . S
H21 C22 0.981 . S
C22 C14 1.481 . S
C22 H19 0.980 . S
C22 H20 0.981 . S
C22 H21 0.981 . S
C23 C10 1.481 . S
C23 H24 0.980 . S
C23 H25 0.981 . S
C23 H26 0.981 . S
H24 C23 0.980 . S
H25 C23 0.981 . S
H26 C23 0.981 . S
O27 Zn3 2.066 1_655 S
O27 C6 1.256 . S
O28 Zn0 2.053 . S
O28 C6 1.244 . S
C29 O7 1.259 . S
C29 O8 1.254 . S
O30 Zn0 2.066 1_455 S
O30 C2 1.256 . S
O31 C2 1.244 . S
O31 Zn3 2.053 . S
Zn32 O33 2.055 . S
Zn32 O40 2.046 . S
Zn32 N48 2.036 . S
Zn32 O60 2.053 . S
Zn32 O62 2.066 . S
O33 Zn32 2.055 . S
O33 C36 1.259 . S
C34 O62 1.256 . S
C34 O63 1.244 . S
Zn35 O37 2.046 . S
Zn35 O39 2.055 . S
Zn35 N41 2.036 . S
Zn35 O59 2.066 . S
Zn35 O63 2.053 . S
C36 O33 1.259 . S
C36 O37 1.254 . S
O37 Zn35 2.046 . S
O37 C36 1.254 . S
C38 O59 1.256 . S
C38 O60 1.244 . S
O39 Zn35 2.055 . S
O39 C61 1.259 . S
O40 Zn32 2.046 . S
O40 C61 1.254 . S
N41 Zn35 2.036 . S
N41 C42 1.298 . S
N41 N44 1.398 . S
C42 N41 1.298 . S
C42 N45 1.367 . S
C42 C55 1.481 . S
C43 N44 1.299 . S
C43 N45 1.379 . S
N44 N41 1.398 . S
N44 C43 1.299 . S
N45 C42 1.367 . S
N45 C43 1.379 . S
C46 N48 1.298 . S
C46 N50 1.367 . S
C46 C54 1.481 . S
C47 N49 1.299 . S
C47 N50 1.379 . S
N48 Zn32 2.036 . S
N48 C46 1.298 . S
N48 N49 1.398 . S
N49 C47 1.299 . S
N49 N48 1.398 . S
N50 C46 1.367 . S
N50 C47 1.379 . S
H51 C54 0.980 . S
H52 C54 0.981 . S
H53 C54 0.981 . S
C54 C46 1.481 . S
C54 H51 0.980 . S
C54 H52 0.981 . S
C54 H53 0.981 . S
C55 C42 1.481 . S
C55 H56 0.980 . S
C55 H57 0.981 . S
C55 H58 0.981 . S
H56 C55 0.980 . S
H57 C55 0.981 . S
H58 C55 0.981 . S
O59 Zn35 2.066 . S
O59 C38 1.256 . S
O60 Zn32 2.053 . S
O60 C38 1.244 . S
C61 O39 1.259 . S
C61 O40 1.254 . S
O62 Zn32 2.066 . S
O62 C34 1.256 . S
O63 C34 1.244 . S
O63 Zn35 2.053 . S
Zn64 O65 2.055 1_455 S
Zn64 O72 2.046 . S
Zn64 N80 2.036 . S
Zn64 O92 2.053 . S
Zn64 O94 2.066 1_455 S
O65 Zn64 2.055 1_655 S
O65 C68 1.259 . S
C66 O94 1.256 . S
C66 O95 1.244 . S
Zn67 O69 2.046 . S
Zn67 O71 2.055 1_655 S
Zn67 N73 2.036 . S
Zn67 O91 2.066 1_655 S
Zn67 O95 2.053 . S
C68 O65 1.259 . S
C68 O69 1.254 . S
O69 Zn67 2.046 . S
O69 C68 1.254 . S
C70 O91 1.256 . S
C70 O92 1.244 . S
O71 Zn67 2.055 1_455 S
O71 C93 1.259 . S
O72 Zn64 2.046 . S
O72 C93 1.254 . S
N73 Zn67 2.036 . S
N73 C74 1.298 1_655 S
N73 N76 1.398 . S
C74 N73 1.298 1_455 S
C74 N77 1.367 . S
C74 C87 1.481 . S
C75 N76 1.299 . S
C75 N77 1.379 1_655 S
N76 N73 1.398 . S
N76 C75 1.299 . S
N77 C74 1.367 . S
N77 C75 1.379 1_455 S
C78 N80 1.298 1_655 S
C78 N82 1.367 . S
C78 C86 1.481 . S
C79 N81 1.299 . S
C79 N82 1.379 1_455 S
N80 Zn64 2.036 . S
N80 C78 1.298 1_455 S
N80 N81 1.398 . S
N81 C79 1.299 . S
N81 N80 1.398 . S
N82 C78 1.367 . S
N82 C79 1.379 1_655 S
H83 C86 0.980 . S
H84 C86 0.981 . S
H85 C86 0.981 . S
C86 C78 1.481 . S
C86 H83 0.980 . S
C86 H84 0.981 . S
C86 H85 0.981 . S
C87 C74 1.481 . S
C87 H88 0.980 . S
C87 H89 0.981 . S
C87 H90 0.981 . S
H88 C87 0.980 . S
H89 C87 0.981 . S
H90 C87 0.981 . S
O91 Zn67 2.066 1_455 S
O91 C70 1.256 . S
O92 Zn64 2.053 . S
O92 C70 1.244 . S
C93 O71 1.259 . S
C93 O72 1.254 . S
O94 Zn64 2.066 1_655 S
O94 C66 1.256 . S
O95 C66 1.244 . S
O95 Zn67 2.053 . S
Zn96 O97 2.055 . S
Zn96 O104 2.046 . S
Zn96 N112 2.036 . S
Zn96 O124 2.053 . S
Zn96 O126 2.066 . S
O97 Zn96 2.055 . S
O97 C100 1.259 . S
C98 O126 1.256 . S
C98 O127 1.244 . S
Zn99 O101 2.046 . S
Zn99 O103 2.055 . S
Zn99 N105 2.036 . S
Zn99 O123 2.066 . S
Zn99 O127 2.053 . S
C100 O97 1.259 . S
C100 O101 1.254 . S
O101 Zn99 2.046 . S
O101 C100 1.254 . S
C102 O123 1.256 . S
C102 O124 1.244 . S
O103 Zn99 2.055 . S
O103 C125 1.259 . S
O104 Zn96 2.046 . S
O104 C125 1.254 . S
N105 Zn99 2.036 . S
N105 C106 1.298 . S
N105 N108 1.398 . S
C106 N105 1.298 . S
C106 N109 1.367 . S
C106 C119 1.481 . S
C107 N108 1.299 . S
C107 N109 1.379 . S
N108 N105 1.398 . S
N108 C107 1.299 . S
N109 C106 1.367 . S
N109 C107 1.379 . S
C110 N112 1.298 . S
C110 N114 1.367 . S
C110 C118 1.481 . S
C111 N113 1.299 . S
C111 N114 1.379 . S
N112 Zn96 2.036 . S
N112 C110 1.298 . S
N112 N113 1.398 . S
N113 C111 1.299 . S
N113 N112 1.398 . S
N114 C110 1.367 . S
N114 C111 1.379 . S
H115 C118 0.980 . S
H116 C118 0.981 . S
H117 C118 0.981 . S
C118 C110 1.481 . S
C118 H115 0.980 . S
C118 H116 0.981 . S
C118 H117 0.981 . S
C119 C106 1.481 . S
C119 H120 0.980 . S
C119 H121 0.981 . S
C119 H122 0.981 . S
H120 C119 0.980 . S
H121 C119 0.981 . S
H122 C119 0.981 . S
O123 Zn99 2.066 . S
O123 C102 1.256 . S
O124 Zn96 2.053 . S
O124 C102 1.244 . S
C125 O103 1.259 . S
C125 O104 1.254 . S
O126 Zn96 2.066 . S
O126 C98 1.256 . S
O127 C98 1.244 . S
O127 Zn99 2.053 . S
H128 C129 0.951 . S
C129 H128 0.951 . S
C129 C135 1.265 . S
H130 C135 0.950 . S
H131 C139 0.958 . S
H132 C140 0.950 . S
H133 C141 0.951 . S
H134 C142 0.951 . S
C135 C129 1.265 . S
C135 H130 0.950 . S
C135 C136 1.478 . S
C136 C135 1.478 . S
C136 C137 1.397 . S
C136 C153 1.394 1_656 S
C137 C136 1.397 . S
C137 C138 1.438 . S
C137 C142 1.429 . S
C138 C137 1.438 . S
C138 C139 1.428 . S
C138 C151 1.394 1_556 S
C139 H131 0.958 . S
C139 C138 1.428 . S
C139 C140 1.345 . S
C140 H132 0.950 . S
C140 C139 1.345 . S
C140 C141 1.424 . S
C141 H133 0.951 . S
C141 C140 1.424 . S
C141 C142 1.347 . S
C142 H134 0.951 . S
C142 C137 1.429 . S
C142 C141 1.347 . S
H143 C144 0.951 . S
C144 H143 0.951 . S
C144 C150 1.265 . S
H145 C150 0.950 . S
H146 C154 0.958 . S
H147 C155 0.950 . S
H148 C156 0.951 . S
H149 C157 0.951 . S
C150 C144 1.265 . S
C150 H145 0.950 . S
C150 C151 1.478 . S
C151 C138 1.394 1_554 S
C151 C150 1.478 . S
C151 C152 1.397 1_655 S
C152 C151 1.397 1_455 S
C152 C153 1.438 . S
C152 C157 1.429 . S
C153 C136 1.394 1_454 S
C153 C152 1.438 . S
C153 C154 1.428 . S
C154 H146 0.958 . S
C154 C153 1.428 . S
C154 C155 1.345 . S
C155 H147 0.950 . S
C155 C154 1.345 . S
C155 C156 1.424 . S
C156 H148 0.951 . S
C156 C155 1.424 . S
C156 C157 1.347 . S
C157 H149 0.951 . S
C157 C152 1.429 . S
C157 C156 1.347 . S
H158 C159 0.951 . S
C159 H158 0.951 . S
C159 C165 1.265 . S
H160 C165 0.950 . S
H161 C169 0.949 . S
H162 C170 0.950 . S
H163 C171 0.951 . S
H164 C172 0.951 . S
C165 C159 1.265 . S
C165 H160 0.950 . S
C165 C166 1.478 . S
C166 C165 1.478 . S
C166 C167 1.397 1_554 S
C166 C183 1.394 . S
C167 C166 1.397 1_556 S
C167 C168 1.438 . S
C167 C172 1.429 . S
C168 C167 1.438 . S
C168 C169 1.428 . S
C168 C181 1.394 . S
C169 H161 0.949 . S
C169 C168 1.428 . S
C169 C170 1.345 . S
C170 H162 0.950 . S
C170 C169 1.345 . S
C170 C171 1.424 . S
C171 H163 0.951 . S
C171 C170 1.424 . S
C171 C172 1.347 . S
C172 H164 0.951 . S
C172 C167 1.429 . S
C172 C171 1.347 . S
H173 C174 0.951 . S
C174 H173 0.951 . S
C174 C180 1.265 . S
H175 C180 0.950 . S
H176 C184 0.949 . S
H177 C185 0.950 . S
H178 C186 0.951 . S
H179 C187 0.951 . S
C180 C174 1.265 . S
C180 H175 0.950 . S
C180 C181 1.478 . S
C181 C168 1.394 . S
C181 C180 1.478 . S
C181 C182 1.397 1_556 S
C182 C181 1.397 1_554 S
C182 C183 1.438 . S
C182 C187 1.429 . S
C183 C166 1.394 . S
C183 C182 1.438 . S
C183 C184 1.428 . S
C184 H176 0.949 . S
C184 C183 1.428 . S
C184 C185 1.345 . S
C185 H177 0.950 . S
C185 C184 1.345 . S
C185 C186 1.424 . S
C186 H178 0.951 . S
C186 C185 1.424 . S
C186 C187 1.347 . S
C187 H179 0.951 . S
C187 C182 1.429 . S
C187 C186 1.347 . S
H188 C189 0.951 . S
C189 H188 0.951 . S
C189 C195 1.265 . S
H190 C195 0.950 . S
H191 C199 0.949 . S
H192 C200 0.950 . S
H193 C201 0.951 . S
H194 C202 0.951 . S
C195 C189 1.265 . S
C195 H190 0.950 . S
C195 C196 1.478 . S
C196 C195 1.478 . S
C196 C197 1.397 1_556 S
C196 C213 1.394 . S
C197 C196 1.397 1_554 S
C197 C198 1.438 1_565 S
C197 C202 1.429 . S
C198 C197 1.438 1_545 S
C198 C199 1.428 . S
C198 C211 1.394 . S
C199 H191 0.949 . S
C199 C198 1.428 . S
C199 C200 1.345 1_545 S
C200 H192 0.950 . S
C200 C199 1.345 1_565 S
C200 C201 1.424 . S
C201 H193 0.951 . S
C201 C200 1.424 . S
C201 C202 1.347 . S
C202 H194 0.951 . S
C202 C197 1.429 . S
C202 C201 1.347 . S
H203 C204 0.951 . S
C204 H203 0.951 . S
C204 C210 1.265 . S
H205 C210 0.950 . S
H206 C214 0.949 . S
H207 C215 0.950 . S
H208 C216 0.951 . S
H209 C217 0.951 . S
C210 C204 1.265 . S
C210 H205 0.950 . S
C210 C211 1.478 . S
C211 C198 1.394 . S
C211 C210 1.478 . S
C211 C212 1.397 1_554 S
C212 C211 1.397 1_556 S
C212 C213 1.438 1_545 S
C212 C217 1.429 . S
C213 C196 1.394 . S
C213 C212 1.438 1_565 S
C213 C214 1.428 . S
C214 H206 0.949 . S
C214 C213 1.428 . S
C214 C215 1.345 1_565 S
C215 H207 0.950 . S
C215 C214 1.345 1_545 S
C215 C216 1.424 . S
C216 H208 0.951 . S
C216 C215 1.424 . S
C216 C217 1.347 . S
C217 H209 0.951 . S
C217 C212 1.429 . S
C217 C216 1.347 . S
H218 C219 0.951 1_655 S
C219 H218 0.951 1_455 S
C219 C225 1.265 . S
H220 C225 0.950 . S
H221 C229 0.949 . S
H222 C230 0.950 . S
H223 C231 0.951 . S
H224 C232 0.951 . S
C225 C219 1.265 . S
C225 H220 0.950 . S
C225 C226 1.478 . S
C226 C225 1.478 . S
C226 C227 1.397 1_554 S
C226 C243 1.394 1_455 S
C227 C226 1.397 1_556 S
C227 C228 1.438 1_565 S
C227 C232 1.429 . S
C228 C227 1.438 1_545 S
C228 C229 1.428 . S
C228 C241 1.394 . S
C229 H221 0.949 . S
C229 C228 1.428 . S
C229 C230 1.345 1_545 S
C230 H222 0.950 . S
C230 C229 1.345 1_565 S
C230 C231 1.424 . S
C231 H223 0.951 . S
C231 C230 1.424 . S
C231 C232 1.347 . S
C232 H224 0.951 . S
C232 C227 1.429 . S
C232 C231 1.347 . S
H233 C234 0.951 . S
C234 H233 0.951 . S
C234 C240 1.265 1_455 S
H235 C240 0.950 . S
H236 C244 0.949 . S
H237 C245 0.950 . S
H238 C246 0.951 . S
H239 C247 0.951 . S
C240 C234 1.265 1_655 S
C240 H235 0.950 . S
C240 C241 1.478 1_655 S
C241 C228 1.394 . S
C241 C240 1.478 1_455 S
C241 C242 1.397 1_456 S
C242 C241 1.397 1_654 S
C242 C243 1.438 1_545 S
C242 C247 1.429 . S
C243 C226 1.394 1_655 S
C243 C242 1.438 1_565 S
C243 C244 1.428 . S
C244 H236 0.949 . S
C244 C243 1.428 . S
C244 C245 1.345 1_565 S
C245 H237 0.950 . S
C245 C244 1.345 1_545 S
C245 C246 1.424 . S
C246 H238 0.951 . S
C246 C245 1.424 . S
C246 C247 1.347 . S
C247 H239 0.951 . S
C247 C242 1.429 . S
C247 C246 1.347 . S
H248 C249 0.951 . S
C249 H248 0.951 . S
C249 C255 1.265 . S
H250 C255 0.950 . S
H251 C259 0.949 . S
H252 C260 0.950 . S
H253 C261 0.951 . S
H254 C262 0.951 . S
C255 C249 1.265 . S
C255 H250 0.950 . S
C255 C256 1.478 . S
C256 C255 1.478 . S
C256 C257 1.397 . S
C256 C273 1.394 . S
C257 C256 1.397 . S
C257 C258 1.438 . S
C257 C262 1.429 . S
C258 C257 1.438 . S
C258 C259 1.428 . S
C258 C271 1.394 . S
C259 H251 0.949 . S
C259 C258 1.428 . S
C259 C260 1.345 . S
C260 H252 0.950 . S
C260 C259 1.345 . S
C260 C261 1.424 . S
C261 H253 0.951 . S
C261 C260 1.424 . S
C261 C262 1.347 . S
C262 H254 0.951 . S
C262 C257 1.429 . S
C262 C261 1.347 . S
H263 C264 0.951 . S
C264 H263 0.951 . S
C264 C270 1.265 . S
H265 C270 0.950 . S
H266 C274 0.949 . S
H267 C275 0.950 . S
H268 C276 0.951 . S
H269 C277 0.951 . S
C270 C264 1.265 . S
C270 H265 0.950 . S
C270 C271 1.478 . S
C271 C258 1.394 . S
C271 C270 1.478 . S
C271 C272 1.397 . S
C272 C271 1.397 . S
C272 C273 1.438 . S
C272 C277 1.429 . S
C273 C256 1.394 . S
C273 C272 1.438 . S
C273 C274 1.428 . S
C274 H266 0.949 . S
C274 C273 1.428 . S
C274 C275 1.345 . S
C275 H267 0.950 . S
C275 C274 1.345 . S
C275 C276 1.424 . S
C276 H268 0.951 . S
C276 C275 1.424 . S
C276 C277 1.347 . S
C277 H269 0.951 . S
C277 C272 1.429 . S
C277 C276 1.347 . S
H278 C279 0.951 . S
C279 H278 0.951 . S
C279 C285 1.265 . S
H280 C285 0.950 . S
H281 C289 0.949 . S
H282 C290 0.950 . S
H283 C291 0.951 . S
H284 C292 0.951 . S
C285 C279 1.265 . S
C285 H280 0.950 . S
C285 C286 1.478 . S
C286 C285 1.478 . S
C286 C287 1.397 . S
C286 C303 1.394 . S
C287 C286 1.397 . S
C287 C288 1.438 . S
C287 C292 1.429 . S
C288 C287 1.438 . S
C288 C289 1.428 . S
C288 C301 1.394 . S
C289 H281 0.949 . S
C289 C288 1.428 . S
C289 C290 1.345 . S
C290 H282 0.950 . S
C290 C289 1.345 . S
C290 C291 1.424 . S
C291 H283 0.951 . S
C291 C290 1.424 . S
C291 C292 1.347 . S
C292 H284 0.951 . S
C292 C287 1.429 . S
C292 C291 1.347 . S
H293 C294 0.951 . S
C294 H293 0.951 . S
C294 C300 1.265 . S
H295 C300 0.950 . S
H296 C304 0.949 . S
H297 C305 0.950 . S
H298 C306 0.951 . S
H299 C307 0.951 . S
C300 C294 1.265 . S
C300 H295 0.950 . S
C300 C301 1.478 . S
C301 C288 1.394 . S
C301 C300 1.478 . S
C301 C302 1.397 . S
C302 C301 1.397 . S
C302 C303 1.438 . S
C302 C307 1.429 . S
C303 C286 1.394 . S
C303 C302 1.438 . S
C303 C304 1.428 . S
C304 H296 0.949 . S
C304 C303 1.428 . S
C304 C305 1.345 . S
C305 H297 0.950 . S
C305 C304 1.345 . S
C305 C306 1.424 . S
C306 H298 0.951 . S
C306 C305 1.424 . S
C306 C307 1.347 . S
C307 H299 0.951 . S
C307 C302 1.429 . S
C307 C306 1.347 . S
H308 C309 0.951 . S
C309 H308 0.951 . S
C309 C315 1.265 . S
H310 C315 0.950 . S
H311 C319 0.949 . S
H312 C320 0.950 . S
H313 C321 0.951 . S
H314 C322 0.951 . S
C315 C309 1.265 . S
C315 H310 0.950 . S
C315 C316 1.478 . S
C316 C315 1.478 . S
C316 C317 1.397 . S
C316 C333 1.394 . S
C317 C316 1.397 . S
C317 C318 1.438 . S
C317 C322 1.429 . S
C318 C317 1.438 . S
C318 C319 1.428 . S
C318 C331 1.394 . S
C319 H311 0.949 . S
C319 C318 1.428 . S
C319 C320 1.345 . S
C320 H312 0.950 . S
C320 C319 1.345 . S
C320 C321 1.424 . S
C321 H313 0.951 . S
C321 C320 1.424 . S
C321 C322 1.347 . S
C322 H314 0.951 . S
C322 C317 1.429 . S
C322 C321 1.347 . S
H323 C324 0.951 . S
C324 H323 0.951 . S
C324 C330 1.265 . S
H325 C330 0.950 . S
H326 C334 0.949 . S
H327 C335 0.950 . S
H328 C336 0.951 . S
H329 C337 0.951 . S
C330 C324 1.265 . S
C330 H325 0.950 . S
C330 C331 1.478 . S
C331 C318 1.394 . S
C331 C330 1.478 . S
C331 C332 1.397 . S
C332 C331 1.397 . S
C332 C333 1.438 . S
C332 C337 1.429 . S
C333 C316 1.394 . S
C333 C332 1.438 . S
C333 C334 1.428 . S
C334 H326 0.949 . S
C334 C333 1.428 . S
C334 C335 1.345 . S
C335 H327 0.950 . S
C335 C334 1.345 . S
C335 C336 1.424 . S
C336 H328 0.951 . S
C336 C335 1.424 . S
C336 C337 1.347 . S
C337 H329 0.951 . S
C337 C332 1.429 . S
C337 C336 1.347 . S
H338 C339 0.951 . S
C339 H338 0.951 . S
C339 C345 1.265 . S
H340 C345 0.950 . S
H341 C349 0.949 . S
H342 C350 0.950 . S
H343 C351 0.951 . S
H344 C352 0.951 . S
C345 C339 1.265 . S
C345 H340 0.950 . S
C345 C346 1.478 . S
C346 C345 1.478 . S
C346 C347 1.397 . S
C346 C363 1.394 . S
C347 C346 1.397 . S
C347 C348 1.438 . S
C347 C352 1.429 . S
C348 C347 1.438 . S
C348 C349 1.428 . S
C348 C361 1.394 . S
C349 H341 0.949 . S
C349 C348 1.428 . S
C349 C350 1.345 . S
C350 H342 0.950 . S
C350 C349 1.345 . S
C350 C351 1.424 . S
C351 H343 0.951 . S
C351 C350 1.424 . S
C351 C352 1.347 . S
C352 H344 0.951 . S
C352 C347 1.429 . S
C352 C351 1.347 . S
H353 C354 0.951 . S
C354 H353 0.951 . S
C354 C360 1.265 . S
H355 C360 0.950 . S
H356 C364 0.949 . S
H357 C365 0.950 . S
H358 C366 0.951 . S
H359 C367 0.951 . S
C360 C354 1.265 . S
C360 H355 0.950 . S
C360 C361 1.478 . S
C361 C348 1.394 . S
C361 C360 1.478 . S
C361 C362 1.397 . S
C362 C361 1.397 . S
C362 C363 1.438 . S
C362 C367 1.429 . S
C363 C346 1.394 . S
C363 C362 1.438 . S
C363 C364 1.428 . S
C364 H356 0.949 . S
C364 C363 1.428 . S
C364 C365 1.345 . S
C365 H357 0.950 . S
C365 C364 1.345 . S
C365 C366 1.424 . S
C366 H358 0.951 . S
C366 C365 1.424 . S
C366 C367 1.347 . S
C367 H359 0.951 . S
C367 C362 1.429 . S
C367 C366 1.347 . S
H368 C369 0.951 1_554 S
C369 H368 0.951 1_556 S
C369 C375 1.265 . S
H370 C375 0.950 . S
H371 C379 0.949 . S
H372 C380 0.950 . S
H373 C381 0.951 . S
H374 C382 0.951 . S
C375 C369 1.265 . S
C375 H370 0.950 . S
C375 C376 1.478 . S
C376 C375 1.478 . S
C376 C377 1.397 . S
C376 C393 1.394 . S
C377 C376 1.397 . S
C377 C378 1.438 1_556 S
C377 C382 1.429 . S
C378 C377 1.438 1_554 S
C378 C379 1.428 . S
C378 C391 1.394 . S
C379 H371 0.949 . S
C379 C378 1.428 . S
C379 C380 1.345 . S
C380 H372 0.950 . S
C380 C379 1.345 . S
C380 C381 1.424 . S
C381 H373 0.951 . S
C381 C380 1.424 . S
C381 C382 1.347 1_554 S
C382 H374 0.951 . S
C382 C377 1.429 . S
C382 C381 1.347 1_556 S
H383 C384 0.951 1_556 S
C384 H383 0.951 1_554 S
C384 C390 1.265 . S
H385 C390 0.950 . S
H386 C394 0.949 . S
H387 C395 0.950 . S
H388 C396 0.951 . S
H389 C397 0.951 . S
C390 C384 1.265 . S
C390 H385 0.950 . S
C390 C391 1.478 . S
C391 C378 1.394 . S
C391 C390 1.478 . S
C391 C392 1.397 . S
C392 C391 1.397 . S
C392 C393 1.438 1_554 S
C392 C397 1.429 . S
C393 C376 1.394 . S
C393 C392 1.438 1_556 S
C393 C394 1.428 . S
C394 H386 0.949 . S
C394 C393 1.428 . S
C394 C395 1.345 . S
C395 H387 0.950 . S
C395 C394 1.345 . S
C395 C396 1.424 . S
C396 H388 0.951 . S
C396 C395 1.424 . S
C396 C397 1.347 1_556 S
C397 H389 0.951 . S
C397 C392 1.429 . S
C397 C396 1.347 1_554 S
H398 C399 0.951 . S
C399 H398 0.951 . S
C399 C405 1.265 . S
H400 C405 0.950 1_554 S
H401 C409 0.949 . S
H402 C410 0.950 . S
H403 C411 0.951 . S
H404 C412 0.951 . S
C405 C399 1.265 . S
C405 H400 0.950 1_556 S
C405 C406 1.478 . S
C406 C405 1.478 . S
C406 C407 1.397 1_556 S
C406 C423 1.394 . S
C407 C406 1.397 1_554 S
C407 C408 1.438 . S
C407 C412 1.429 . S
C408 C407 1.438 . S
C408 C409 1.428 . S
C408 C421 1.394 . S
C409 H401 0.949 . S
C409 C408 1.428 . S
C409 C410 1.345 . S
C410 H402 0.950 . S
C410 C409 1.345 . S
C410 C411 1.424 . S
C411 H403 0.951 . S
C411 C410 1.424 . S
C411 C412 1.347 . S
C412 H404 0.951 . S
C412 C407 1.429 . S
C412 C411 1.347 . S
H413 C414 0.951 . S
C414 H413 0.951 . S
C414 C420 1.265 . S
H415 C420 0.950 1_556 S
H416 C424 0.949 . S
H417 C425 0.950 . S
H418 C426 0.951 . S
H419 C427 0.951 . S
C420 C414 1.265 . S
C420 H415 0.950 1_554 S
C420 C421 1.478 . S
C421 C408 1.394 . S
C421 C420 1.478 . S
C421 C422 1.397 1_554 S
C422 C421 1.397 1_556 S
C422 C423 1.438 . S
C422 C427 1.429 . S
C423 C406 1.394 . S
C423 C422 1.438 . S
C423 C424 1.428 . S
C424 H416 0.949 . S
C424 C423 1.428 . S
C424 C425 1.345 . S
C425 H417 0.950 . S
C425 C424 1.345 . S
C425 C426 1.424 . S
C426 H418 0.951 . S
C426 C425 1.424 . S
C426 C427 1.347 . S
C427 H419 0.951 . S
C427 C422 1.429 . S
C427 C426 1.347 . S
H428 C429 0.951 . S
C429 H428 0.951 . S
C429 C435 1.265 . S
H430 C435 0.950 1_556 S
H431 C439 0.949 . S
H432 C440 0.950 . S
H433 C441 0.951 . S
H434 C442 0.951 . S
C435 C429 1.265 . S
C435 H430 0.950 1_554 S
C435 C436 1.478 . S
C436 C435 1.478 . S
C436 C437 1.397 . S
C436 C453 1.394 . S
C437 C436 1.397 . S
C437 C438 1.438 1_554 S
C437 C442 1.429 . S
C438 C437 1.438 1_556 S
C438 C439 1.428 1_556 S
C438 C451 1.394 . S
C439 H431 0.949 . S
C439 C438 1.428 1_554 S
C439 C440 1.345 . S
C440 H432 0.950 . S
C440 C439 1.345 . S
C440 C441 1.424 . S
C441 H433 0.951 . S
C441 C440 1.424 . S
C441 C442 1.347 . S
C442 H434 0.951 . S
C442 C437 1.429 . S
C442 C441 1.347 . S
H443 C444 0.951 . S
C444 H443 0.951 . S
C444 C450 1.265 . S
H445 C450 0.950 1_554 S
H446 C454 0.949 . S
H447 C455 0.950 . S
H448 C456 0.951 . S
H449 C457 0.951 . S
C450 C444 1.265 . S
C450 H445 0.950 1_556 S
C450 C451 1.478 . S
C451 C438 1.394 . S
C451 C450 1.478 . S
C451 C452 1.397 . S
C452 C451 1.397 . S
C452 C453 1.438 1_556 S
C452 C457 1.429 . S
C453 C436 1.394 . S
C453 C452 1.438 1_554 S
C453 C454 1.428 1_554 S
C454 H446 0.949 . S
C454 C453 1.428 1_556 S
C454 C455 1.345 . S
C455 H447 0.950 . S
C455 C454 1.345 . S
C455 C456 1.424 . S
C456 H448 0.951 . S
C456 C455 1.424 . S
C456 C457 1.347 . S
C457 H449 0.951 . S
C457 C452 1.429 . S
C457 C456 1.347 . S
H458 C459 0.951 . S
C459 H458 0.951 . S
C459 C465 1.265 . S
H460 C465 0.950 1_556 S
H461 C469 0.949 . S
H462 C470 0.950 . S
H463 C471 0.951 . S
H464 C472 0.951 . S
C465 C459 1.265 . S
C465 H460 0.950 1_554 S
C465 C466 1.478 . S
C466 C465 1.478 . S
C466 C467 1.397 1_554 S
C466 C483 1.394 . S
C467 C466 1.397 1_556 S
C467 C468 1.438 . S
C467 C472 1.429 . S
C468 C467 1.438 . S
C468 C469 1.428 . S
C468 C481 1.394 . S
C469 H461 0.949 . S
C469 C468 1.428 . S
C469 C470 1.345 . S
C470 H462 0.950 . S
C470 C469 1.345 . S
C470 C471 1.424 . S
C471 H463 0.951 . S
C471 C470 1.424 . S
C471 C472 1.347 . S
C472 H464 0.951 . S
C472 C467 1.429 . S
C472 C471 1.347 . S
H473 C474 0.951 . S
C474 H473 0.951 . S
C474 C480 1.265 . S
H475 C480 0.950 1_554 S
H476 C484 0.949 . S
H477 C485 0.950 . S
H478 C486 0.951 . S
H479 C487 0.951 . S
C480 C474 1.265 . S
C480 H475 0.950 1_556 S
C480 C481 1.478 . S
C481 C468 1.394 . S
C481 C480 1.478 . S
C481 C482 1.397 1_556 S
C482 C481 1.397 1_554 S
C482 C483 1.438 . S
C482 C487 1.429 . S
C483 C466 1.394 . S
C483 C482 1.438 . S
C483 C484 1.428 . S
C484 H476 0.949 . S
C484 C483 1.428 . S
C484 C485 1.345 . S
C485 H477 0.950 . S
C485 C484 1.345 . S
C485 C486 1.424 . S
C486 H478 0.951 . S
C486 C485 1.424 . S
C486 C487 1.347 . S
C487 H479 0.951 . S
C487 C482 1.429 . S
C487 C486 1.347 . S
C129 N82 1.911 . S
C144 N13 1.880 . S
C159 N45 1.888 . S
C174 N109 1.956 . S
C189 N114 1.885 . S
C204 N50 1.955 . S
C219 N18 1.875 . S
C234 N77 1.943 . S
C249 C100 1.569 . S
C264 C4 1.569 . S
C279 C93 1.544 . S
C294 C36 1.547 . S
C309 C68 1.547 . S
C324 C61 1.544 . S
C339 C29 1.544 . S
C354 C125 1.547 . S
C369 C98 0.790 . S
C384 C2 0.787 . S
C399 C70 0.652 . S
C414 C34 0.652 . S
C429 C38 0.660 . S
C444 C66 0.663 . S
C459 C6 0.652 . S
C474 C102 0.653 . S
