# Generated by pormake.
# Topology uos, (4)-cn, num edge types: 1
# Building blocks:
#     Node 0, Type 0, BuildingBlock: GALJAG_clean_sbu_0, # of connection points: 4
#     Node 1, Type 0, BuildingBlock: GALJAG_clean_sbu_0, # of connection points: 4
#     Node 2, Type 0, BuildingBlock: GALJAG_clean_sbu_0, # of connection points: 4
#     Node 3, Type 0, BuildingBlock: GALJAG_clean_sbu_0, # of connection points: 4
#     Node 4, Type 0, BuildingBlock: GALJAG_clean_sbu_0, # of connection points: 4
#     Node 5, Type 0, BuildingBlock: GALJAG_clean_sbu_0, # of connection points: 4
#     Node 6, Type 0, BuildingBlock: GALJAG_clean_sbu_0, # of connection points: 4
#     Node 7, Type 0, BuildingBlock: GALJAG_clean_sbu_0, # of connection points: 4
#     Node 8, Type 0, BuildingBlock: GALJAG_clean_sbu_0, # of connection points: 4
#     Node 9, Type 0, BuildingBlock: GALJAG_clean_sbu_0, # of connection points: 4
#     Node 10, Type 0, BuildingBlock: GALJAG_clean_sbu_0, # of connection points: 4
#     Node 11, Type 0, BuildingBlock: GALJAG_clean_sbu_0, # of connection points: 4
#     Node 12, Type 0, BuildingBlock: GALJAG_clean_sbu_0, # of connection points: 4
#     Node 13, Type 0, BuildingBlock: GALJAG_clean_sbu_0, # of connection points: 4
#     Node 14, Type 0, BuildingBlock: GALJAG_clean_sbu_0, # of connection points: 4
#     Node 15, Type 0, BuildingBlock: GALJAG_clean_sbu_0, # of connection points: 4
#     Node 16, Type 0, BuildingBlock: GALJAG_clean_sbu_0, # of connection points: 4
#     Node 17, Type 0, BuildingBlock: GALJAG_clean_sbu_0, # of connection points: 4
#     Node 18, Type 0, BuildingBlock: GALJAG_clean_sbu_0, # of connection points: 4
#     Node 19, Type 0, BuildingBlock: GALJAG_clean_sbu_0, # of connection points: 4
#     Node 20, Type 0, BuildingBlock: GALJAG_clean_sbu_0, # of connection points: 4
#     Node 21, Type 0, BuildingBlock: GALJAG_clean_sbu_0, # of connection points: 4
#     Node 22, Type 0, BuildingBlock: GALJAG_clean_sbu_0, # of connection points: 4
#     Node 23, Type 0, BuildingBlock: GALJAG_clean_sbu_0, # of connection points: 4
#     Node 24, Type 0, BuildingBlock: GALJAG_clean_sbu_0, # of connection points: 4
#     Node 25, Type 0, BuildingBlock: GALJAG_clean_sbu_0, # of connection points: 4
#     Node 26, Type 0, BuildingBlock: GALJAG_clean_sbu_0, # of connection points: 4
#     Node 27, Type 0, BuildingBlock: GALJAG_clean_sbu_0, # of connection points: 4
#     Node 28, Type 0, BuildingBlock: GALJAG_clean_sbu_0, # of connection points: 4
#     Node 29, Type 0, BuildingBlock: GALJAG_clean_sbu_0, # of connection points: 4
#     Node 30, Type 0, BuildingBlock: GALJAG_clean_sbu_0, # of connection points: 4
#     Node 31, Type 0, BuildingBlock: GALJAG_clean_sbu_0, # of connection points: 4
#     Edge 32, Type (0, 0), BuildingBlock: AJUNOK_clean_linker_0, # of connection points: 2
#     Edge 33, Type (0, 0), BuildingBlock: AJUNOK_clean_linker_0, # of connection points: 2
#     Edge 34, Type (0, 0), BuildingBlock: AJUNOK_clean_linker_0, # of connection points: 2
#     Edge 35, Type (0, 0), BuildingBlock: AJUNOK_clean_linker_0, # of connection points: 2
#     Edge 36, Type (0, 0), BuildingBlock: AJUNOK_clean_linker_0, # of connection points: 2
#     Edge 37, Type (0, 0), BuildingBlock: AJUNOK_clean_linker_0, # of connection points: 2
#     Edge 38, Type (0, 0), BuildingBlock: AJUNOK_clean_linker_0, # of connection points: 2
#     Edge 39, Type (0, 0), BuildingBlock: AJUNOK_clean_linker_0, # of connection points: 2
#     Edge 40, Type (0, 0), BuildingBlock: AJUNOK_clean_linker_0, # of connection points: 2
#     Edge 41, Type (0, 0), BuildingBlock: AJUNOK_clean_linker_0, # of connection points: 2
#     Edge 42, Type (0, 0), BuildingBlock: AJUNOK_clean_linker_0, # of connection points: 2
#     Edge 43, Type (0, 0), BuildingBlock: AJUNOK_clean_linker_0, # of connection points: 2
#     Edge 44, Type (0, 0), BuildingBlock: AJUNOK_clean_linker_0, # of connection points: 2
#     Edge 45, Type (0, 0), BuildingBlock: AJUNOK_clean_linker_0, # of connection points: 2
#     Edge 46, Type (0, 0), BuildingBlock: AJUNOK_clean_linker_0, # of connection points: 2
#     Edge 47, Type (0, 0), BuildingBlock: AJUNOK_clean_linker_0, # of connection points: 2
#     Edge 48, Type (0, 0), BuildingBlock: AJUNOK_clean_linker_0, # of connection points: 2
#     Edge 49, Type (0, 0), BuildingBlock: AJUNOK_clean_linker_0, # of connection points: 2
#     Edge 50, Type (0, 0), BuildingBlock: AJUNOK_clean_linker_0, # of connection points: 2
#     Edge 51, Type (0, 0), BuildingBlock: AJUNOK_clean_linker_0, # of connection points: 2
#     Edge 52, Type (0, 0), BuildingBlock: AJUNOK_clean_linker_0, # of connection points: 2
#     Edge 53, Type (0, 0), BuildingBlock: AJUNOK_clean_linker_0, # of connection points: 2
#     Edge 54, Type (0, 0), BuildingBlock: AJUNOK_clean_linker_0, # of connection points: 2
#     Edge 55, Type (0, 0), BuildingBlock: AJUNOK_clean_linker_0, # of connection points: 2
#     Edge 56, Type (0, 0), BuildingBlock: AJUNOK_clean_linker_0, # of connection points: 2
#     Edge 57, Type (0, 0), BuildingBlock: AJUNOK_clean_linker_0, # of connection points: 2
#     Edge 58, Type (0, 0), BuildingBlock: AJUNOK_clean_linker_0, # of connection points: 2
#     Edge 59, Type (0, 0), BuildingBlock: AJUNOK_clean_linker_0, # of connection points: 2
#     Edge 60, Type (0, 0), BuildingBlock: AJUNOK_clean_linker_0, # of connection points: 2
#     Edge 61, Type (0, 0), BuildingBlock: AJUNOK_clean_linker_0, # of connection points: 2
#     Edge 62, Type (0, 0), BuildingBlock: AJUNOK_clean_linker_0, # of connection points: 2
#     Edge 63, Type (0, 0), BuildingBlock: AJUNOK_clean_linker_0, # of connection points: 2
#     Edge 64, Type (0, 0), BuildingBlock: AJUNOK_clean_linker_0, # of connection points: 2
#     Edge 65, Type (0, 0), BuildingBlock: AJUNOK_clean_linker_0, # of connection points: 2
#     Edge 66, Type (0, 0), BuildingBlock: AJUNOK_clean_linker_0, # of connection points: 2
#     Edge 67, Type (0, 0), BuildingBlock: AJUNOK_clean_linker_0, # of connection points: 2
#     Edge 68, Type (0, 0), BuildingBlock: AJUNOK_clean_linker_0, # of connection points: 2
#     Edge 69, Type (0, 0), BuildingBlock: AJUNOK_clean_linker_0, # of connection points: 2
#     Edge 70, Type (0, 0), BuildingBlock: AJUNOK_clean_linker_0, # of connection points: 2
#     Edge 71, Type (0, 0), BuildingBlock: AJUNOK_clean_linker_0, # of connection points: 2
#     Edge 72, Type (0, 0), BuildingBlock: AJUNOK_clean_linker_0, # of connection points: 2
#     Edge 73, Type (0, 0), BuildingBlock: AJUNOK_clean_linker_0, # of connection points: 2
#     Edge 74, Type (0, 0), BuildingBlock: AJUNOK_clean_linker_0, # of connection points: 2
#     Edge 75, Type (0, 0), BuildingBlock: AJUNOK_clean_linker_0, # of connection points: 2
#     Edge 76, Type (0, 0), BuildingBlock: AJUNOK_clean_linker_0, # of connection points: 2
#     Edge 77, Type (0, 0), BuildingBlock: AJUNOK_clean_linker_0, # of connection points: 2
#     Edge 78, Type (0, 0), BuildingBlock: AJUNOK_clean_linker_0, # of connection points: 2
#     Edge 79, Type (0, 0), BuildingBlock: AJUNOK_clean_linker_0, # of connection points: 2
#     Edge 80, Type (0, 0), BuildingBlock: AJUNOK_clean_linker_0, # of connection points: 2
#     Edge 81, Type (0, 0), BuildingBlock: AJUNOK_clean_linker_0, # of connection points: 2
#     Edge 82, Type (0, 0), BuildingBlock: AJUNOK_clean_linker_0, # of connection points: 2
#     Edge 83, Type (0, 0), BuildingBlock: AJUNOK_clean_linker_0, # of connection points: 2
#     Edge 84, Type (0, 0), BuildingBlock: AJUNOK_clean_linker_0, # of connection points: 2
#     Edge 85, Type (0, 0), BuildingBlock: AJUNOK_clean_linker_0, # of connection points: 2
#     Edge 86, Type (0, 0), BuildingBlock: AJUNOK_clean_linker_0, # of connection points: 2
#     Edge 87, Type (0, 0), BuildingBlock: AJUNOK_clean_linker_0, # of connection points: 2
#     Edge 88, Type (0, 0), BuildingBlock: AJUNOK_clean_linker_0, # of connection points: 2
#     Edge 89, Type (0, 0), BuildingBlock: AJUNOK_clean_linker_0, # of connection points: 2
#     Edge 90, Type (0, 0), BuildingBlock: AJUNOK_clean_linker_0, # of connection points: 2
#     Edge 91, Type (0, 0), BuildingBlock: AJUNOK_clean_linker_0, # of connection points: 2
#     Edge 92, Type (0, 0), BuildingBlock: AJUNOK_clean_linker_0, # of connection points: 2
#     Edge 93, Type (0, 0), BuildingBlock: AJUNOK_clean_linker_0, # of connection points: 2
#     Edge 94, Type (0, 0), BuildingBlock: AJUNOK_clean_linker_0, # of connection points: 2
#     Edge 95, Type (0, 0), BuildingBlock: AJUNOK_clean_linker_0, # of connection points: 2
# Relax obj value: 0.041
# Max RMSD: 0.074
# Mean RMSD: 0.074
data_MOF--net-uos--node1-GALJAG_clean_sbu_0--edge1-AJUNOK_clean_linker_0
_symmetry_space_group_name_H-M    P1
_symmetry_Int_Tables_number       1
_symmetry_cell_setting            triclinic
loop_
_symmetry_equiv_pos_as_xyz
'x, y, z'
_cell_length_a     66.262492
_cell_length_b     66.261531
_cell_length_c     15.49274
_cell_angle_alpha  90.010132
_cell_angle_beta   90.038493
_cell_angle_gamma 90.004346
loop_
_atom_site_label
_atom_site_type_symbol
_atom_site_fract_x
_atom_site_fract_y
_atom_site_fract_z
_atom_type_partial_charge
In0 In 0.17739 0.16985 0.12246 0.0
O1 O 0.17428 0.15964 0.9794 0.0
O2 O 0.15481 0.14684 0.07234 0.0
C3 C 0.21672 0.1684 0.17023 0.0
C4 C 0.15955 0.15444 0.26286 0.0
C5 C 0.1696 0.20937 0.09424 0.0
O6 O 0.20858 0.15436 0.12738 0.0
O7 O 0.2053 0.18309 0.18611 0.0
O8 O 0.16196 0.19945 0.15554 0.0
O9 O 0.1807 0.19912 0.04445 0.0
C10 C 0.15994 0.14758 0.9946 0.0
O11 O 0.15268 0.16969 0.22362 0.0
O12 O 0.1759 0.14756 0.23304 0.0
In13 In 0.08955 0.92656 0.36656 0.0
O14 O 0.11486 0.92464 0.26513 0.0
O15 O 0.09053 0.90394 0.25642 0.0
C16 C 0.09638 0.96499 0.42103 0.0
C17 C 0.10666 0.90357 0.48903 0.0
C18 C 0.04903 0.92278 0.34956 0.0
O19 O 0.09334 0.96083 0.34243 0.0
O20 O 0.0965 0.94986 0.46989 0.0
O21 O 0.05957 0.91141 0.39666 0.0
O22 O 0.05899 0.93606 0.30954 0.0
C23 C 0.10743 0.90943 0.22733 0.0
O24 O 0.08983 0.9121 0.50018 0.0
O25 O 0.11474 0.90659 0.41664 0.0
In26 In 0.33301 0.83918 0.6248 0.0
O27 O 0.33384 0.86378 0.52001 0.0
O28 O 0.35838 0.84341 0.52708 0.0
C29 C 0.29412 0.84246 0.67696 0.0
C30 C 0.35456 0.85789 0.74778 0.0
C31 C 0.3353 0.79868 0.60565 0.0
O32 O 0.2992 0.84374 0.59849 0.0
O33 O 0.30862 0.83963 0.72817 0.0
O34 O 0.34313 0.80808 0.66799 0.0
O35 O 0.32643 0.80979 0.55128 0.0
C36 C 0.35104 0.8589 0.49194 0.0
O37 O 0.35781 0.83982 0.72616 0.0
O38 O 0.3402 0.86632 0.70825 0.0
In39 In 0.42065 0.08299 0.87389 0.0
O40 O 0.39615 0.08329 0.76856 0.0
O41 O 0.41749 0.10709 0.76984 0.0
C42 C 0.41876 0.04468 0.93406 0.0
C43 C 0.39946 0.10404 0.99062 0.0
C44 C 0.46113 0.08666 0.8608 0.0
O45 O 0.41757 0.04865 0.85426 0.0
O46 O 0.42094 0.05992 0.98175 0.0
O47 O 0.45081 0.09526 0.9185 0.0
O48 O 0.45092 0.0763 0.80784 0.0
C49 C 0.40161 0.09999 0.73699 0.0
O50 O 0.41753 0.10833 0.97231 0.0
O51 O 0.39237 0.08903 0.95088 0.0
In52 In 0.17304 0.83915 0.8639 0.0
O53 O 0.15436 0.83997 0.74046 0.0
O54 O 0.15989 0.86766 0.80661 0.0
C55 C 0.1692 0.79875 0.8853 0.0
C56 C 0.15459 0.85794 0.99753 0.0
C57 C 0.21144 0.84341 0.80569 0.0
O58 O 0.15927 0.80878 0.83075 0.0
O59 O 0.1809 0.80924 0.93162 0.0
O60 O 0.20724 0.84357 0.88531 0.0
O61 O 0.19636 0.84144 0.75711 0.0
C62 C 0.15142 0.85878 0.74441 0.0
O63 O 0.1723 0.86249 0.97398 0.0
O64 O 0.14717 0.84299 0.95843 0.0
In65 In 0.42074 0.92364 0.12253 0.0
O66 O 0.41843 0.89736 0.02837 0.0
O67 O 0.39431 0.91851 0.03254 0.0
C68 C 0.46112 0.92058 0.14354 0.0
C69 C 0.40015 0.90678 0.25579 0.0
C70 C 0.41911 0.96243 0.06828 0.0
O71 O 0.45171 0.91252 0.08164 0.0
O72 O 0.45006 0.93002 0.19626 0.0
O73 O 0.41643 0.95756 0.14643 0.0
O74 O 0.42258 0.94777 0.01859 0.0
C75 C 0.40132 0.90252 0.00019 0.0
O76 O 0.39522 0.92353 0.22325 0.0
O77 O 0.41612 0.8994 0.22506 0.0
In78 In 0.33603 0.17019 0.37181 0.0
O79 O 0.33561 0.14931 0.49091 0.0
O80 O 0.36346 0.16228 0.45307 0.0
C81 C 0.29752 0.16887 0.31506 0.0
C82 C 0.35419 0.15059 0.24117 0.0
C83 C 0.33919 0.21018 0.40254 0.0
O84 O 0.30367 0.15765 0.37569 0.0
O85 O 0.31054 0.18084 0.28534 0.0
O86 O 0.34771 0.20135 0.34026 0.0
O87 O 0.32939 0.19861 0.45227 0.0
C88 C 0.35445 0.15033 0.5031 0.0
O89 O 0.36008 0.16764 0.2671 0.0
O90 O 0.33901 0.14374 0.28016 0.0
In91 In 0.09091 0.08538 0.61614 0.0
O92 O 0.10958 0.0846 0.74223 0.0
O93 O 0.10094 0.11302 0.69094 0.0
C94 C 0.09509 0.04705 0.55706 0.0
C95 C 0.11179 0.10661 0.49949 0.0
C96 C 0.05037 0.08907 0.63608 0.0
O97 O 0.09879 0.05188 0.63443 0.0
O98 O 0.08932 0.06151 0.51034 0.0
O99 O 0.05995 0.09568 0.57196 0.0
O100 O 0.0613 0.08055 0.69211 0.0
C101 C 0.11086 0.1036 0.74718 0.0
O102 O 0.09366 0.11053 0.5182 0.0
O103 O 0.11908 0.09129 0.53682 0.0
In104 In 0.83423 0.8394 0.86697 0.0
O105 O 0.83565 0.86366 0.97442 0.0
O106 O 0.8599 0.8431 0.96269 0.0
C107 C 0.79593 0.84253 0.80719 0.0
C108 C 0.85559 0.85858 0.74513 0.0
C109 C 0.83671 0.79887 0.88514 0.0
O110 O 0.80007 0.8444 0.88664 0.0
O111 O 0.81098 0.83911 0.75987 0.0
O112 O 0.84527 0.80859 0.82563 0.0
O113 O 0.82679 0.80968 0.93737 0.0
C114 C 0.85306 0.85856 -0.00031 0.0
O115 O 0.85921 0.84058 0.76685 0.0
O116 O 0.84096 0.86671 0.78393 0.0
In117 In 0.92198 0.08393 0.62618 0.0
O118 O 0.92012 0.10963 0.52932 0.0
O119 O 0.89489 0.08998 0.54072 0.0
C120 C 0.96248 0.08806 0.64068 0.0
C121 C 0.90167 0.10079 0.76051 0.0
C122 C 0.92013 0.04512 0.57146 0.0
O123 O 0.95221 0.09571 0.58051 0.0
O124 O 0.95226 0.07825 0.69531 0.0
O125 O 0.91929 0.0498 0.65057 0.0
O126 O 0.92187 0.05996 0.52118 0.0
C127 C 0.90249 0.10528 0.50479 0.0
O128 O 0.89671 0.08401 0.72837 0.0
O129 O 0.91757 0.10816 0.7291 0.0
In130 In 0.6754 0.17051 0.37152 0.0
O131 O 0.67366 0.14603 0.4775 0.0
O132 O 0.64943 0.16662 0.46592 0.0
C133 C 0.7144 0.16784 0.32035 0.0
C134 C 0.65499 0.1514 0.24627 0.0
C135 C 0.672 0.21096 0.38932 0.0
O136 O 0.70931 0.16661 0.39888 0.0
O137 O 0.69988 0.17029 0.26894 0.0
O138 O 0.66384 0.20108 0.32919 0.0
O139 O 0.68196 0.20036 0.44216 0.0
C140 C 0.65626 0.15111 0.50264 0.0
O141 O 0.65182 0.16965 0.26529 0.0
O142 O 0.66875 0.14296 0.28957 0.0
In143 In 0.58919 0.92422 0.11622 0.0
O144 O 0.61386 0.92366 0.21991 0.0
O145 O 0.59287 0.89946 0.21715 0.0
C146 C 0.59389 0.96308 0.06372 0.0
C147 C 0.60745 0.90244 0.99285 0.0
C148 C 0.54895 0.92041 0.14252 0.0
O149 O 0.59374 0.95812 0.14243 0.0
O150 O 0.59215 0.94846 0.01246 0.0
O151 O 0.55854 0.91009 0.08781 0.0
O152 O 0.55978 0.93238 0.18581 0.0
C153 C 0.60862 0.90678 0.2507 0.0
O154 O 0.58926 0.90793 0.98633 0.0
O155 O 0.61635 0.9081 0.06044 0.0
In156 In 0.83517 0.16932 0.12852 0.0
O157 O 0.8606 0.16815 0.22692 0.0
O158 O 0.8418 0.14231 0.21334 0.0
C159 C 0.83767 0.20969 0.10572 0.0
C160 C 0.85256 0.1492 0.99511 0.0
C161 C 0.79691 0.16713 0.18923 0.0
O162 O 0.84646 0.20041 0.16606 0.0
O163 O 0.82775 0.19849 0.05503 0.0
O164 O 0.80097 0.16483 0.11 0.0
O165 O 0.81204 0.17048 0.23629 0.0
C166 C 0.85673 0.15033 0.25049 0.0
O167 O 0.83545 0.14441 0.02454 0.0
O168 O 0.86 0.16481 0.0289 0.0
In169 In 0.58971 0.084 0.87428 0.0
O170 O 0.61437 0.0853 0.76905 0.0
O171 O 0.59191 0.10798 0.76981 0.0
C172 C 0.59275 0.04564 0.93311 0.0
C173 C 0.60959 0.10599 0.99229 0.0
C174 C 0.54911 0.08668 0.86214 0.0
O175 O 0.59431 0.04985 0.85363 0.0
O176 O 0.58962 0.06067 0.98101 0.0
O177 O 0.5593 0.09514 0.92061 0.0
O178 O 0.55948 0.07676 0.80829 0.0
C179 C 0.60803 0.10161 0.73669 0.0
O180 O 0.59188 0.11023 0.9684 0.0
O181 O 0.61707 0.0905 0.95751 0.0
In182 In 0.67479 0.83864 0.61926 0.0
O183 O 0.6575 0.83931 0.74674 0.0
O184 O 0.65935 0.86637 0.67289 0.0
C185 C 0.67062 0.79839 0.594 0.0
C186 C 0.65754 0.85779 0.48363 0.0
C187 C 0.71356 0.84311 0.67365 0.0
O188 O 0.66051 0.80814 0.64889 0.0
O189 O 0.68263 0.80904 0.55019 0.0
O190 O 0.70877 0.84302 0.59473 0.0
O191 O 0.69883 0.84133 0.72427 0.0
C192 C 0.65261 0.85764 0.73903 0.0
O193 O 0.6745 0.86293 0.51397 0.0
O194 O 0.65008 0.84221 0.51799 0.0
In195 In 0.92081 0.92506 0.37048 0.0
O196 O 0.91935 0.90011 0.4709 0.0
O197 O 0.89316 0.91809 0.45092 0.0
C198 C 0.96117 0.92188 0.3509 0.0
C199 C 0.90185 0.90773 0.23353 0.0
C200 C 0.91909 0.96316 0.4335 0.0
O201 O 0.95127 0.912 0.4061 0.0
O202 O 0.95061 0.93339 0.30392 0.0
O203 O 0.91663 0.95939 0.35401 0.0
O204 O 0.92232 0.94782 0.47943 0.0
C205 C 0.90123 0.90361 0.49096 0.0
O206 O 0.89579 0.92409 0.26632 0.0
O207 O 0.91797 0.90116 0.26602 0.0
In208 In 0.67412 0.6704 0.62555 0.0
O209 O 0.67438 0.65392 0.49359 0.0
O210 O 0.64665 0.65648 0.56096 0.0
C211 C 0.71257 0.66734 0.6843 0.0
C212 C 0.6548 0.65068 0.75131 0.0
C213 C 0.66986 0.7106 0.59683 0.0
O214 O 0.70731 0.66084 0.61089 0.0
O215 O 0.69849 0.67525 0.72717 0.0
O216 O 0.66206 0.70157 0.66002 0.0
O217 O 0.67947 0.69925 0.54609 0.0
C218 C 0.65579 0.64967 0.49621 0.0
O219 O 0.65002 0.66832 0.72795 0.0
O220 O 0.66988 0.64321 0.71285 0.0
In221 In 0.58889 0.4243 0.87879 0.0
O222 O 0.59174 0.4002 0.98267 0.0
O223 O 0.61692 0.41943 0.95935 0.0
C224 C 0.54837 0.42089 0.86305 0.0
C225 C 0.60783 0.40541 0.74597 0.0
C226 C 0.59162 0.46287 0.93469 0.0
O227 O 0.55846 0.41235 0.92162 0.0
O228 O 0.55878 0.43124 0.81095 0.0
O229 O 0.59271 0.45844 0.85528 0.0
O230 O 0.58892 0.448 0.98396 0.0
C231 C 0.60966 0.40493 0.00195 0.0
O232 O 0.61236 0.42317 0.76854 0.0
O233 O 0.59305 0.39809 0.78618 0.0
In234 In 0.83521 0.33793 0.12735 0.0
O235 O 0.85962 0.34074 0.23021 0.0
O236 O 0.84028 0.36588 0.20776 0.0
C237 C 0.83767 0.29755 0.10559 0.0
C238 C 0.85392 0.35672 0.9939 0.0
C239 C 0.79699 0.34029 0.1876 0.0
O240 O 0.8466 0.3069 0.16545 0.0
O241 O 0.82763 0.30868 0.0551 0.0
O242 O 0.80111 0.34313 0.10865 0.0
O243 O 0.81202 0.33614 0.23417 0.0
C244 C 0.85489 0.35864 0.24977 0.0
O245 O 0.83621 0.36134 0.01693 0.0
O246 O 0.86134 0.34202 0.03445 0.0
In247 In 0.91981 0.58502 0.3837 0.0
O248 O 0.89545 0.58623 0.27675 0.0
O249 O 0.91587 0.61063 0.2879 0.0
C250 C 0.91728 0.5466 0.44244 0.0
C251 C 0.90045 0.60584 0.50685 0.0
C252 C 0.96024 0.58817 0.36407 0.0
O253 O 0.9155 0.55082 0.36307 0.0
O254 O 0.92032 0.56165 0.49035 0.0
O255 O 0.95046 0.59691 0.42297 0.0
O256 O 0.94953 0.57775 0.3132 0.0
C257 C 0.90046 0.60362 0.25102 0.0
O258 O 0.91864 0.6092 0.48746 0.0
O259 O 0.89219 0.59176 0.46483 0.0
In260 In 0.67601 0.33927 0.37618 0.0
O261 O 0.65216 0.34183 0.27107 0.0
O262 O 0.66986 0.36775 0.30002 0.0
C263 C 0.6723 0.29883 0.39116 0.0
C264 C 0.6575 0.35746 0.5118 0.0
C265 C 0.71484 0.3413 0.32253 0.0
O266 O 0.66372 0.30902 0.33297 0.0
O267 O 0.68279 0.30912 0.44328 0.0
O268 O 0.71001 0.34306 0.40121 0.0
O269 O 0.70014 0.33864 0.2722 0.0
C270 C 0.65584 0.36017 0.25549 0.0
O271 O 0.67445 0.36327 0.48403 0.0
O272 O 0.65081 0.3419 0.47495 0.0
In273 In 0.92025 0.4251 0.62466 0.0
O274 O 0.89659 0.4233 0.73359 0.0
O275 O 0.91713 0.39905 0.71908 0.0
C276 C 0.91746 0.46402 0.57284 0.0
C277 C 0.89967 0.40493 0.50303 0.0
C278 C 0.96076 0.42264 0.64213 0.0
O279 O 0.91556 0.45891 0.65114 0.0
O280 O 0.92061 0.44954 0.5219 0.0
O281 O 0.9512 0.41467 0.58042 0.0
O282 O 0.94978 0.43168 0.69649 0.0
C283 C 0.90194 0.40591 0.75812 0.0
O284 O 0.91795 0.40116 0.51972 0.0
O285 O 0.89205 0.41904 0.54685 0.0
In286 In 0.83285 0.67027 0.88046 0.0
O287 O 0.85862 0.66865 0.78403 0.0
O288 O 0.83987 0.6428 0.79881 0.0
C289 C 0.83576 0.71091 0.89101 0.0
C290 C 0.85067 0.65183 0.01753 0.0
C291 C 0.79448 0.66701 0.82169 0.0
O292 O 0.84424 0.70051 0.83332 0.0
O293 O 0.82565 0.70074 0.94489 0.0
O294 O 0.79853 0.66704 0.9016 0.0
O295 O 0.80965 0.66866 0.77332 0.0
C296 C 0.85488 0.6507 0.76187 0.0
O297 O 0.83428 0.64555 0.98571 0.0
O298 O 0.85697 0.66797 0.98433 0.0
In299 In 0.58886 0.58396 0.12141 0.0
O300 O 0.59033 0.60726 0.0156 0.0
O301 O 0.6163 0.58885 0.03613 0.0
C302 C 0.54859 0.5881 0.14852 0.0
C303 C 0.60955 0.60299 0.24875 0.0
C304 C 0.59216 0.54532 0.06541 0.0
O305 O 0.55773 0.59563 0.08507 0.0
O306 O 0.55988 0.57883 0.20073 0.0
O307 O 0.59799 0.55074 0.13959 0.0
O308 O 0.58488 0.55934 0.02031 0.0
C309 C 0.6083 0.6032 0.99457 0.0
O310 O 0.60583 0.5843 0.25222 0.0
O311 O 0.60207 0.61191 0.18477 0.0
In312 In 0.33347 0.33839 0.38119 0.0
O313 O 0.33466 0.36308 0.48694 0.0
O314 O 0.3583 0.34168 0.4809 0.0
C315 C 0.29524 0.34059 0.31934 0.0
C316 C 0.3551 0.35792 0.26119 0.0
C317 C 0.33645 0.298 0.40231 0.0
O318 O 0.29912 0.34256 0.399 0.0
O319 O 0.3105 0.33753 0.27278 0.0
O320 O 0.34482 0.3075 0.34151 0.0
O321 O 0.32648 0.30895 0.45375 0.0
C322 C 0.35157 0.35742 0.51601 0.0
O323 O 0.35889 0.33996 0.28301 0.0
O324 O 0.3402 0.36583 0.29891 0.0
In325 In 0.42044 0.58444 0.1242 0.0
O326 O 0.39609 0.58611 0.23055 0.0
O327 O 0.41648 0.61051 0.2178 0.0
C328 C 0.41782 0.54544 0.07253 0.0
C329 C 0.40129 0.60512 -0.00021 0.0
C330 C 0.4608 0.58731 0.1468 0.0
O331 O 0.41589 0.5506 0.15071 0.0
O332 O 0.42092 0.55991 0.02148 0.0
O333 O 0.45155 0.59514 0.08402 0.0
O334 O 0.44961 0.57804 0.19958 0.0
C335 C 0.40113 0.60357 0.25534 0.0
O336 O 0.41953 0.6083 0.01892 0.0
O337 O 0.39292 0.5912 0.0423 0.0
In338 In 0.17448 0.67031 0.87375 0.0
O339 O 0.17442 0.64509 0.9763 0.0
O340 O 0.15043 0.66613 0.97746 0.0
C341 C 0.21287 0.66816 0.81432 0.0
C342 C 0.1529 0.65086 0.75314 0.0
C343 C 0.17055 0.7108 0.88833 0.0
O344 O 0.20884 0.66747 0.89414 0.0
O345 O 0.19766 0.67003 0.76625 0.0
O346 O 0.16225 0.70049 0.82991 0.0
O347 O 0.18092 0.70061 0.94127 0.0
C348 C 0.1577 0.65016 0.0087 0.0
O349 O 0.1488 0.66862 0.77676 0.0
O350 O 0.16802 0.64309 0.78982 0.0
In351 In 0.08917 0.42441 0.62066 0.0
O352 O 0.11395 0.42255 0.72549 0.0
O353 O 0.09222 0.3992 0.719 0.0
C354 C 0.09185 0.46326 0.56789 0.0
C355 C 0.10833 0.40304 0.49863 0.0
C356 C 0.04867 0.42247 0.63961 0.0
O357 O 0.09419 0.45823 0.6461 0.0
O358 O 0.0884 0.44873 0.51753 0.0
O359 O 0.05796 0.41466 0.57685 0.0
O360 O 0.05991 0.43115 0.69416 0.0
C361 C 0.10811 0.40566 0.75396 0.0
O362 O 0.09067 0.39882 0.52319 0.0
O363 O 0.11608 0.4183 0.53434 0.0
In364 In 0.33394 0.67032 0.62703 0.0
O365 O 0.33558 0.64549 0.52271 0.0
O366 O 0.35863 0.66759 0.52609 0.0
C367 C 0.2952 0.66772 0.68117 0.0
C368 C 0.35548 0.65096 0.74819 0.0
C369 C 0.33576 0.71079 0.60747 0.0
O370 O 0.30014 0.66499 0.60311 0.0
O371 O 0.30978 0.67157 0.73081 0.0
O372 O 0.34406 0.70152 0.66917 0.0
O373 O 0.32665 0.69955 0.55427 0.0
C374 C 0.35217 0.65158 0.49213 0.0
O375 O 0.35975 0.66862 0.7237 0.0
O376 O 0.34012 0.64334 0.71284 0.0
In377 In 0.08864 0.58406 0.37592 0.0
O378 O 0.11343 0.58413 0.2714 0.0
O379 O 0.09307 0.60868 0.275 0.0
C380 C 0.09105 0.54571 0.43574 0.0
C381 C 0.10793 0.6056 0.4971 0.0
C382 C 0.04814 0.58765 0.35987 0.0
O383 O 0.09202 0.54975 0.35597 0.0
O384 O 0.0888 0.56089 0.48363 0.0
O385 O 0.0583 0.5961 0.41837 0.0
O386 O 0.05848 0.57728 0.30752 0.0
C387 C 0.10867 0.6012 0.24147 0.0
O388 O 0.0901 0.60951 0.47389 0.0
O389 O 0.11587 0.59064 0.45981 0.0
In390 In 0.17454 0.33732 0.12429 0.0
O391 O 0.15095 0.33854 0.23048 0.0
O392 O 0.16746 0.36529 0.20298 0.0
C393 C 0.17031 0.29706 0.1015 0.0
C394 C 0.15614 0.35653 0.99064 0.0
C395 C 0.2133 0.33945 0.18035 0.0
O396 O 0.16181 0.30678 0.16124 0.0
O397 O 0.18119 0.30769 0.05225 0.0
O398 O 0.2086 0.34173 0.10176 0.0
O399 O 0.19853 0.33607 0.22939 0.0
C400 C 0.15383 0.35695 0.24721 0.0
O401 O 0.17334 0.36176 0.0178 0.0
O402 O 0.14913 0.34109 0.02719 0.0
In403 In 0.42005 0.42424 0.88479 0.0
O404 O 0.4189 0.40011 0.98877 0.0
O405 O 0.39233 0.41727 0.96519 0.0
C406 C 0.46048 0.42086 0.8655 0.0
C407 C 0.40083 0.40584 0.75104 0.0
C408 C 0.4177 0.46271 0.94333 0.0
O409 O 0.45059 0.41192 0.92354 0.0
O410 O 0.44988 0.4316 0.81545 0.0
O411 O 0.41588 0.45845 0.86401 0.0
O412 O 0.42066 0.44767 0.99134 0.0
C413 C 0.40064 0.40329 0.00755 0.0
O414 O 0.39555 0.42301 0.7783 0.0
O415 O 0.41641 0.39896 0.78707 0.0
C416 C 0.26782 0.18596 0.24942 0.0
C417 C 0.27684 0.1681 0.27955 0.0
C418 C 0.24842 0.18581 0.21341 0.0
C419 C 0.2376 0.1677 0.20355 0.0
H420 H 0.2757 0.20023 0.25488 0.0
H421 H 0.24188 0.19999 0.19269 0.0
S422 S 0.25479 0.11674 0.2696 0.0
N423 N 0.27363 0.1318 0.29681 0.0
N424 N 0.23737 0.1314 0.22602 0.0
C425 C 0.24659 0.14966 0.23186 0.0
C426 C 0.26616 0.1499 0.27083 0.0
C427 C 0.09332 1.00248 0.40213 0.0
C428 C 0.09794 0.9859 0.45521 0.0
C429 C 0.09276 0.02218 0.43547 0.0
C430 C 0.09687 0.02613 0.52317 0.0
H431 H 0.08959 1.0002 0.33474 0.0
H432 H 0.08876 0.03438 0.39218 0.0
S433 S 0.11107 0.98812 0.68832 0.0
N434 N 0.10766 0.97486 0.59929 0.0
N435 N 0.10663 0.01181 0.66151 0.0
C436 C 0.10211 0.00976 0.57638 0.0
C437 C 0.10263 0.98968 0.54252 0.0
C438 C 0.24892 0.84382 0.82808 0.0
C439 C 0.23235 0.8444 0.7714 0.0
C440 C 0.26879 0.84345 0.7968 0.0
C441 C 0.27292 0.84373 0.70757 0.0
H442 H 0.24655 0.8433 0.89722 0.0
H443 H 0.28101 0.84275 0.84318 0.0
S444 S 0.23492 0.84603 0.5318 0.0
N445 N 0.22144 0.84582 0.62135 0.0
N446 N 0.25873 0.84518 0.56298 0.0
C447 C 0.25651 0.84473 0.65017 0.0
C448 C 0.23627 0.84505 0.68196 0.0
C449 C 0.41965 0.00714 0.91426 0.0
C450 C 0.41811 0.02388 0.9696 0.0
C451 C 0.41987 0.98738 0.94691 0.0
C452 C 0.41839 0.98354 0.03619 0.0
H453 H 0.42099 0.00929 0.84519 0.0
H454 H 0.42128 0.97502 0.90157 0.0
S455 S 0.41323 0.0221 0.20848 0.0
N456 N 0.41454 0.03528 0.11826 0.0
N457 N 0.41483 0.9982 0.17921 0.0
C458 C 0.4165 1.00013 0.09217 0.0
C459 C 0.41639 0.02026 0.059 0.0
C460 C 0.7584 0.8447 0.82725 0.0
C461 C 0.77512 0.84375 0.77159 0.0
C462 C 0.7386 0.84485 0.7948 0.0
C463 C 0.73471 0.84417 0.70536 0.0
H464 H 0.76057 0.84498 0.89654 0.0
H465 H 0.72624 0.84526 0.84048 0.0
S466 S 0.77324 0.84255 0.53178 0.0
N467 N 0.78646 0.84283 0.6221 0.0
N468 N 0.74934 0.84317 0.5616 0.0
C469 C 0.7513 0.8437 0.64891 0.0
C470 C 0.77146 0.84346 0.68188 0.0
C471 C 0.91779 1.00076 0.41579 0.0
C472 C 0.9187 0.98386 0.47045 0.0
C473 C 0.91814 0.02045 0.44926 0.0
C474 C 0.9193 0.02405 0.53882 0.0
H475 H 0.91702 0.99882 0.34644 0.0
H476 H 0.91757 0.03295 0.40428 0.0
S477 S 0.92152 0.985 0.7101 0.0
N478 N 0.92048 0.97205 0.61917 0.0
N479 N 0.92104 0.00899 0.68163 0.0
C480 C 0.91995 0.0073 0.59433 0.0
C481 C 0.91969 0.98724 0.56028 0.0
C482 C 0.73959 0.16632 0.20022 0.0
C483 C 0.7356 0.16686 0.28955 0.0
C484 C 0.75941 0.16606 0.16838 0.0
C485 C 0.77607 0.16649 0.22453 0.0
H486 H 0.72729 0.16619 0.15413 0.0
H487 H 0.76165 0.16582 0.09913 0.0
S488 S 0.77392 0.16741 0.46426 0.0
N489 N 0.75004 0.16735 0.43378 0.0
N490 N 0.78725 0.16699 0.37432 0.0
C491 C 0.77232 0.16678 0.31413 0.0
C492 C 0.75211 0.16693 0.34653 0.0
C493 C 0.59509 0.00817 0.91182 0.0
C494 C 0.59406 0.02479 0.96807 0.0
C495 C 0.59543 0.98833 0.94356 0.0
C496 C 0.59485 0.98429 0.03286 0.0
H497 H 0.59531 0.01046 0.8426 0.0
H498 H 0.59589 0.97605 0.89743 0.0
S499 S 0.59304 0.02249 0.20782 0.0
N500 N 0.59315 0.03587 0.11796 0.0
N501 N 0.59384 0.99865 0.17715 0.0
C502 C 0.59429 1.00077 0.08991 0.0
C503 C 0.59387 0.02098 0.05765 0.0
C504 C 0.73729 0.67009 0.80609 0.0
C505 C 0.7335 0.66612 0.71816 0.0
C506 C 0.75698 0.66982 0.83969 0.0
C507 C 0.77367 0.66584 0.78644 0.0
H508 H 0.72495 0.67355 0.84947 0.0
H509 H 0.75914 0.6732 0.90748 0.0
S510 S 0.77192 0.65384 0.55222 0.0
N511 N 0.7481 0.65746 0.57914 0.0
N512 N 0.78505 0.65719 0.64167 0.0
C513 C 0.77007 0.66154 0.69864 0.0
C514 C 0.75001 0.66161 0.66468 0.0
C515 C 0.58965 0.50032 0.91336 0.0
C516 C 0.59297 0.48379 0.96836 0.0
C517 C 0.58965 0.52014 0.94534 0.0
C518 C 0.59324 0.52423 0.03332 0.0
H519 H 0.58657 0.49792 0.84545 0.0
H520 H 0.58666 0.53235 0.90064 0.0
S521 S 0.60401 0.48629 0.2033 0.0
N522 N 0.60075 0.47285 0.11466 0.0
N523 N 0.60098 0.51007 0.17422 0.0
C524 C 0.59716 0.50787 0.08853 0.0
C525 C 0.59694 0.48767 0.05621 0.0
C526 C 0.73971 0.34168 0.2009 0.0
C527 C 0.73596 0.34189 0.29048 0.0
C528 C 0.75945 0.34153 0.16806 0.0
C529 C 0.77624 0.3414 0.22348 0.0
H530 H 0.72729 0.34151 0.15543 0.0
H531 H 0.76153 0.34118 0.09873 0.0
S532 S 0.77475 0.34266 0.46326 0.0
N533 N 0.75079 0.34258 0.43397 0.0
N534 N 0.78783 0.34217 0.37266 0.0
C535 C 0.77273 0.3419 0.31323 0.0
C536 C 0.75262 0.34219 0.34662 0.0
C537 C 0.91667 0.48926 0.4526 0.0
C538 C 0.91651 0.48522 0.54195 0.0
C539 C 0.91655 0.5091 0.42089 0.0
C540 C 0.91641 0.52573 0.47723 0.0
H541 H 0.91703 0.47698 0.40645 0.0
H542 H 0.91688 0.51139 0.35168 0.0
S543 S 0.91532 0.52343 0.71695 0.0
N544 N 0.91568 0.49957 0.68627 0.0
N545 N 0.91556 0.53681 0.62711 0.0
C546 C 0.91596 0.52191 0.56679 0.0
C547 C 0.91597 0.5017 0.59902 0.0
C548 C 0.2576 0.33979 0.33712 0.0
C549 C 0.2745 0.34123 0.28271 0.0
C550 C 0.23793 0.33934 0.30328 0.0
C551 C 0.23434 0.34048 0.21367 0.0
H552 H 0.25956 0.33865 0.40637 0.0
H553 H 0.22544 0.33798 0.34798 0.0
S554 S 0.2734 0.34546 0.0435 0.0
N555 N 0.28631 0.34448 0.13456 0.0
N556 N 0.24942 0.34377 0.07142 0.0
C557 C 0.25109 0.34234 0.15864 0.0
C558 C 0.27113 0.34267 0.19302 0.0
C559 C 0.41682 0.52008 0.95268 0.0
C560 C 0.41698 0.5242 0.04195 0.0
C561 C 0.41671 0.50021 0.9213 0.0
C562 C 0.41692 0.48363 0.97788 0.0
H563 H 0.41688 0.53232 0.90634 0.0
H564 H 0.41676 0.49785 0.8521 0.0
S565 S 0.41694 0.48616 0.21762 0.0
N566 N 0.41694 0.50998 0.18653 0.0
N567 N 0.41687 0.47269 0.12799 0.0
C568 C 0.41685 0.48753 0.06741 0.0
C569 C 0.41683 0.50778 0.09931 0.0
C570 C 0.27019 0.66879 0.80219 0.0
C571 C 0.27408 0.66697 0.71307 0.0
C572 C 0.25041 0.66884 0.83458 0.0
C573 C 0.2337 0.66722 0.77911 0.0
H574 H 0.28253 0.67032 0.84761 0.0
H575 H 0.24823 0.67046 0.90352 0.0
S576 S 0.2356 0.66141 0.5406 0.0
N577 N 0.25949 0.66295 0.57011 0.0
N578 N 0.22237 0.66314 0.63053 0.0
C579 C 0.23736 0.66511 0.68989 0.0
C580 C 0.25752 0.66495 0.65701 0.0
C581 C 0.09149 0.48838 0.44718 0.0
C582 C 0.09255 0.48444 0.53649 0.0
C583 C 0.09134 0.50818 0.41506 0.0
C584 C 0.09209 0.52487 0.47095 0.0
H585 H 0.09065 0.47606 0.40137 0.0
H586 H 0.09033 0.51039 0.34592 0.0
S587 S 0.0956 0.52284 0.71029 0.0
N588 N 0.09487 0.49895 0.68022 0.0
N589 N 0.09447 0.53613 0.62029 0.0
C590 C 0.09342 0.52116 0.56043 0.0
C591 C 0.09369 0.50098 0.59307 0.0
C592 C 0.13843 0.1182 0.95274 0.0
C593 C 0.14908 0.13572 0.92814 0.0
C594 C 0.12649 0.10747 0.8935 0.0
C595 C 0.1243 0.11425 0.80826 0.0
H596 H 0.13919 0.1128 0.01866 0.0
H597 H 0.11845 0.09418 0.91523 0.0
S598 S 0.14968 0.15858 0.70984 0.0
N599 N 0.1574 0.15868 0.81125 0.0
N600 N 0.13448 0.13895 0.70057 0.0
C601 C 0.13513 0.13151 0.7823 0.0
C602 C 0.14766 0.14213 0.84204 0.0
C603 C 0.15118 0.88751 0.09834 0.0
C604 C 0.14245 0.87068 0.05718 0.0
C605 C 0.13963 0.90041 0.15081 0.0
C606 C 0.11887 0.89704 0.16397 0.0
H607 H 0.16708 0.89076 0.09008 0.0
H608 H 0.14714 0.9129 0.18255 0.0
S609 S 0.08842 0.85579 0.06705 0.0
N610 N 0.1115 0.85185 0.03091 0.0
N611 N 0.08992 0.87604 0.12871 0.0
C612 C 0.10988 0.88049 0.12192 0.0
C613 C 0.12163 0.86733 0.0689 0.0
C614 C 0.39444 0.8771 0.35219 0.0
C615 C 0.38742 0.89551 0.31831 0.0
C616 C 0.3824 0.86528 0.40663 0.0
C617 C 0.36274 0.87128 0.4295 0.0
H618 H 0.4094 0.87166 0.33626 0.0
H619 H 0.38866 0.85133 0.43135 0.0
S620 S 0.33697 0.91811 0.3575 0.0
N621 N 0.35937 0.91915 0.31111 0.0
N622 N 0.33672 0.89692 0.4136 0.0
C623 C 0.35545 0.88965 0.39604 0.0
C624 C 0.36778 0.90176 0.34059 0.0
C625 C 0.39782 0.12874 0.63404 0.0
C626 C 0.38934 0.11171 0.67432 0.0
C627 C 0.38629 0.14123 0.58021 0.0
C628 C 0.36569 0.13741 0.56504 0.0
H629 H 0.41353 0.13255 0.64441 0.0
H630 H 0.39365 0.15404 0.55029 0.0
S631 S 0.33607 0.09486 0.65572 0.0
N632 N 0.35897 0.09168 0.69555 0.0
N633 N 0.33725 0.11527 0.59477 0.0
C634 C 0.35694 0.12046 0.60506 0.0
C635 C 0.36878 0.10758 0.65936 0.0
C636 C 0.85776 0.88857 0.0977 0.0
C637 C 0.86549 0.87078 0.06046 0.0
C638 C 0.86976 0.90082 0.15145 0.0
C639 C 0.88996 0.89579 0.16989 0.0
H640 H 0.84233 0.8931 0.08524 0.0
H641 H 0.86302 0.91415 0.17985 0.0
S642 S 0.91779 0.85131 0.08554 0.0
N643 N 0.89494 0.84913 0.04427 0.0
N644 N 0.91732 0.87208 0.14423 0.0
C645 C 0.89794 0.87821 0.13203 0.0
C646 C 0.88576 0.86573 0.07774 0.0
C647 C 0.88344 0.14308 0.9064 0.0
C648 C 0.86417 0.13664 0.93292 0.0
C649 C 0.89553 0.13115 0.85256 0.0
C650 C 0.88894 0.11219 0.8228 0.0
H651 H 0.88937 0.15747 0.92777 0.0
H652 H 0.91015 0.13697 0.8337 0.0
S653 S 0.83969 0.0882 0.87322 0.0
N654 N 0.83904 0.10994 0.92535 0.0
N655 N 0.86176 0.08751 0.82381 0.0
C656 C 0.8697 0.10549 0.84878 0.0
C657 C 0.85732 0.11771 0.90371 0.0
C658 C 0.63971 0.10846 0.65216 0.0
C659 C 0.6197 0.11371 0.67301 0.0
C660 C 0.65158 0.12078 0.59836 0.0
C661 C 0.64391 0.13884 0.56339 0.0
H662 H 0.6464 0.09489 0.67865 0.0
H663 H 0.66686 0.11606 0.58401 0.0
S664 S 0.59217 0.15911 0.59593 0.0
N665 N 0.59262 0.13803 0.65256 0.0
N666 N 0.6148 0.16109 0.55232 0.0
C667 C 0.62385 0.14415 0.58318 0.0
C668 C 0.61179 0.13161 0.63761 0.0
C669 C 0.62673 0.86392 0.39403 0.0
C670 C 0.64594 0.87036 0.42152 0.0
C671 C 0.61465 0.87603 0.34071 0.0
C672 C 0.6212 0.89514 0.3127 0.0
H673 H 0.62085 0.84942 0.41428 0.0
H674 H 0.60008 0.87023 0.3209 0.0
S675 S 0.67023 0.91919 0.36659 0.0
N676 N 0.67093 0.89723 0.41684 0.0
N677 N 0.64823 0.91997 0.31663 0.0
C678 C 0.64035 0.90183 0.33981 0.0
C679 C 0.65272 0.88944 0.39401 0.0
C680 C 0.6304 0.62323 0.4596 0.0
C681 C 0.64533 0.63693 0.43189 0.0
C682 C 0.61939 0.61156 0.40029 0.0
C683 C 0.62249 0.61375 0.31122 0.0
H684 H 0.62718 0.62154 0.52779 0.0
H685 H 0.60791 0.60133 0.42407 0.0
S686 S 0.65998 0.64716 0.20547 0.0
N687 N 0.66313 0.65138 0.30976 0.0
N688 N 0.64179 0.6302 0.1979 0.0
C689 C 0.63747 0.62724 0.28271 0.0
C690 C 0.64909 0.63864 0.34317 0.0
C691 C 0.63823 0.40086 0.65062 0.0
C692 C 0.62004 0.39323 0.68447 0.0
C693 C 0.65061 0.38902 0.59699 0.0
C694 C 0.64526 0.3691 0.57495 0.0
H695 H 0.64304 0.41606 0.66609 0.0
H696 H 0.66431 0.39566 0.57158 0.0
S697 S 0.59942 0.34176 0.64801 0.0
N698 N 0.5975 0.36428 0.69272 0.0
N699 N 0.62066 0.34217 0.59255 0.0
C700 C 0.62719 0.36125 0.60884 0.0
C701 C 0.61461 0.37327 0.6633 0.0
C702 C 0.87091 0.3998 0.84785 0.0
C703 C 0.89022 0.39358 0.82072 0.0
C704 C 0.859 0.38759 0.90191 0.0
C705 C 0.86597 0.36871 0.93123 0.0
H706 H 0.86482 0.41411 0.8264 0.0
H707 H 0.84433 0.39311 0.92163 0.0
S708 S 0.9155 0.34543 0.87912 0.0
N709 N 0.91574 0.36723 0.82766 0.0
N710 N 0.8935 0.34442 0.92872 0.0
C711 C 0.88526 0.36234 0.90456 0.0
C712 C 0.89734 0.37473 0.84957 0.0
C713 C 0.86981 0.60837 0.15689 0.0
C714 C 0.88817 0.61585 0.18979 0.0
C715 C 0.85743 0.62027 0.10331 0.0
C716 C 0.86291 0.64012 0.08065 0.0
H717 H 0.86488 0.59325 0.1729 0.0
H718 H 0.8436 0.61374 0.07858 0.0
S719 S 0.90929 0.66702 0.15108 0.0
N720 N 0.91105 0.64455 0.19627 0.0
N721 N 0.88789 0.66678 0.09664 0.0
C722 C 0.88116 0.6478 0.11373 0.0
C723 C 0.89376 0.63571 0.16787 0.0
C724 C 0.35782 0.38884 0.60376 0.0
C725 C 0.36375 0.36926 0.57899 0.0
C726 C 0.37005 0.40079 0.6578 0.0
C727 C 0.3887 0.39365 0.68907 0.0
H728 H 0.34373 0.3951 0.58045 0.0
H729 H 0.36477 0.4157 0.67556 0.0
S730 S 0.41105 0.34327 0.64435 0.0
N731 N 0.38948 0.34322 0.59112 0.0
N732 N 0.41236 0.36555 0.6915 0.0
C733 C 0.39474 0.37406 0.66488 0.0
C734 C 0.38231 0.36192 0.6103 0.0
C735 C 0.35871 0.62007 0.40596 0.0
C736 C 0.36426 0.63991 0.42851 0.0
C737 C 0.37086 0.60826 0.35131 0.0
C738 C 0.38904 0.61581 0.31707 0.0
H739 H 0.345 0.6135 0.4316 0.0
H740 H 0.36591 0.59312 0.33557 0.0
S741 S 0.41017 0.66702 0.3546 0.0
N742 N 0.38905 0.66667 0.41088 0.0
N743 N 0.4118 0.64459 0.30898 0.0
C744 C 0.39468 0.63567 0.33876 0.0
C745 C 0.38232 0.64768 0.39412 0.0
C746 C 0.12754 0.64442 0.10224 0.0
C747 C 0.1462 0.63746 0.07074 0.0
C748 C 0.11542 0.63238 0.15547 0.0
C749 C 0.12136 0.61278 0.17964 0.0
H750 H 0.1221 0.65932 0.08523 0.0
H751 H 0.10128 0.63861 0.17831 0.0
S752 S 0.1688 0.58721 0.11429 0.0
N753 N 0.17002 0.60954 0.0673 0.0
N754 N 0.14725 0.58691 0.16775 0.0
C755 C 0.13998 0.60556 0.14867 0.0
C756 C 0.1524 0.61789 0.09433 0.0
C757 C 0.13908 0.39968 0.84472 0.0
C758 C 0.11989 0.39333 0.81656 0.0
C759 C 0.15096 0.38753 0.89928 0.0
C760 C 0.14411 0.36855 0.92781 0.0
H761 H 0.14508 0.41409 0.82394 0.0
H762 H 0.16553 0.39317 0.91987 0.0
S763 S 0.09497 0.34481 0.87238 0.0
N764 N 0.09464 0.36668 0.82154 0.0
N765 N 0.11685 0.34397 0.92313 0.0
C766 C 0.12496 0.36201 0.89989 0.0
C767 C 0.11289 0.37436 0.84467 0.0
C768 C 0.18123 0.26397 0.03773 0.0
C769 C 0.16835 0.27482 0.09309 0.0
C770 C 0.18089 0.24277 0.03528 0.0
C771 C 0.16766 0.23164 0.08809 0.0
H772 H 0.19213 0.27186 0.99805 0.0
H773 H 0.19162 0.23507 0.99412 0.0
S774 S 0.12915 0.25289 0.23647 0.0
N775 N 0.14072 0.27283 0.19619 0.0
N776 N 0.14012 0.23314 0.19159 0.0
C777 C 0.15401 0.24235 0.14039 0.0
C778 C 0.15435 0.26388 0.14292 0.0
C779 C 0.9943 0.93523 0.29741 0.0
C780 C 0.9835 0.92082 0.34551 0.0
C781 C 0.0155 0.93548 0.2974 0.0
C782 C 0.02669 0.92129 0.34522 0.0
H783 H 0.98635 0.94674 0.26123 0.0
H784 H 0.02313 0.94716 0.26101 0.0
S785 S 0.00561 0.87935 0.47618 0.0
N786 N 0.98562 0.89124 0.43814 0.0
N787 N 0.0253 0.89167 0.43791 0.0
C788 C 0.01605 0.90637 0.39114 0.0
C789 C 0.99451 0.90615 0.39135 0.0
C790 C 0.3469 0.76542 0.66236 0.0
C791 C 0.33597 0.77633 0.60003 0.0
C792 C 0.34701 0.7443 0.66284 0.0
C793 C 0.33617 0.73313 0.60105 0.0
H794 H 0.3553 0.77323 0.71223 0.0
H795 H 0.35548 0.7367 0.71306 0.0
S796 S 0.30558 0.75436 0.42192 0.0
N797 N 0.3144 0.77436 0.47318 0.0
N798 N 0.31458 0.73458 0.47409 0.0
C799 C 0.32549 0.7438 0.53707 0.0
C800 C 0.32539 0.7654 0.53656 0.0
C801 C 0.49456 0.07627 0.79871 0.0
C802 C 0.48351 0.08787 0.85842 0.0
C803 C 0.51576 0.07625 0.79912 0.0
C804 C 0.52673 0.0878 0.8593 0.0
H805 H 0.48679 0.06685 0.75218 0.0
H806 H 0.52359 0.06682 0.75286 0.0
S807 S 0.50501 0.1217 0.02617 0.0
N808 N 0.4852 0.1119 0.97701 0.0
N809 N 0.52487 0.11184 0.97783 0.0
C810 C 0.51585 0.09984 0.91795 0.0
C811 C 0.4943 0.09988 0.91749 0.0
C812 C 0.18042 0.76567 0.94853 0.0
C813 C 0.16814 0.77638 0.89012 0.0
C814 C 0.18076 0.74446 0.94925 0.0
C815 C 0.16889 0.73315 0.89138 0.0
H816 H 0.19016 0.77371 0.99297 0.0
H817 H 0.19075 0.73689 0.99419 0.0
S818 S 0.13324 0.75389 0.72882 0.0
N819 N 0.14312 0.77397 0.77551 0.0
N820 N 0.1438 0.73432 0.77669 0.0
C821 C 0.15614 0.74369 0.83431 0.0
C822 C 0.15575 0.76523 0.83374 0.0
C823 C 0.49441 0.90806 0.09046 0.0
C824 C 0.48345 0.91968 0.15027 0.0
C825 C 0.51554 0.90794 0.09046 0.0
C826 C 0.52664 0.91952 0.14999 0.0
H827 H 0.48663 0.89919 0.04199 0.0
H828 H 0.52321 0.89904 0.04182 0.0
S829 S 0.50525 0.95167 0.32358 0.0
N830 N 0.4853 0.94237 0.27349 0.0
N831 N 0.52507 0.94223 0.27319 0.0
C832 C 0.51591 0.93077 0.21189 0.0
C833 C 0.49432 0.93082 0.21212 0.0
C834 C 0.35007 0.24389 0.34875 0.0
C835 C 0.33947 0.23251 0.41054 0.0
C836 C 0.34928 0.26499 0.34821 0.0
C837 C 0.33787 0.2757 0.4095 0.0
H838 H 0.35877 0.23647 0.29878 0.0
H839 H 0.35745 0.27292 0.29805 0.0
S840 S 0.30833 0.2532 0.58884 0.0
N841 N 0.31791 0.23357 0.53747 0.0
N842 N 0.31646 0.27335 0.53663 0.0
C843 C 0.32768 0.26459 0.47356 0.0
C844 C 0.32848 0.24299 0.47406 0.0
C845 C 0.99613 0.07834 0.70328 0.0
C846 C 0.98483 0.08976 0.64377 0.0
C847 C 0.01736 0.07863 0.70238 0.0
C848 C 0.02804 0.09032 0.6418 0.0
H849 H 0.98857 0.06872 0.74959 0.0
H850 H 0.02542 0.0692 0.7479 0.0
S851 S 0.00558 0.12441 0.47749 0.0
N852 N 0.986 0.11419 0.52654 0.0
N853 N 0.02566 0.11468 0.52476 0.0
C854 C 0.0169 0.10236 0.58412 0.0
C855 C 0.99536 0.1021 0.58512 0.0
C856 C 0.82493 0.74462 0.94935 0.0
C857 C 0.83711 0.73328 0.89287 0.0
C858 C 0.82518 0.76584 0.94805 0.0
C859 C 0.83763 0.7765 0.89023 0.0
H860 H 0.81481 0.73708 0.99376 0.0
H861 H 0.81524 0.77392 0.99144 0.0
S862 S 0.87359 0.75392 0.73367 0.0
N863 N 0.86282 0.73437 0.78086 0.0
N864 N 0.8633 0.77403 0.77844 0.0
C865 C 0.85032 0.76531 0.83527 0.0
C866 C 0.85006 0.74378 0.83658 0.0
C867 C 0.68336 0.24418 0.45047 0.0
C868 C 0.67071 0.23329 0.39422 0.0
C869 C 0.68344 0.26539 0.4508 0.0
C870 C 0.67087 0.27649 0.39494 0.0
H871 H 0.69365 0.23629 0.49307 0.0
H872 H 0.69379 0.27312 0.49371 0.0
S873 S 0.63355 0.25517 0.24087 0.0
N874 N 0.6443 0.23525 0.28532 0.0
N875 N 0.64445 0.27492 0.28596 0.0
C876 C 0.65763 0.26576 0.34064 0.0
C877 C 0.65755 0.24422 0.34028 0.0
C878 C 0.84996 0.26418 0.15835 0.0
C879 C 0.83831 0.27522 0.09887 0.0
C880 C 0.84996 0.24307 0.15834 0.0
C881 C 0.83832 0.23202 0.09885 0.0
H882 H 0.85895 0.27189 0.20657 0.0
H883 H 0.85896 0.23537 0.20657 0.0
S884 S 0.80582 0.2536 0.9268 0.0
N885 N 0.81531 0.27349 0.9766 0.0
N886 N 0.81532 0.23371 0.9766 0.0
C887 C 0.82698 0.24281 0.0374 0.0
C888 C 0.82697 0.26441 0.03741 0.0
C889 C 0.65701 0.74412 0.64556 0.0
C890 C 0.66892 0.73288 0.5878 0.0
C891 C 0.65719 0.76526 0.6449 0.0
C892 C 0.66938 0.77608 0.58672 0.0
H893 H 0.64774 0.73656 0.6932 0.0
H894 H 0.64807 0.77314 0.69212 0.0
S895 S 0.70245 0.75388 0.41825 0.0
N896 N 0.6925 0.73417 0.46762 0.0
N897 N 0.69293 0.77394 0.46664 0.0
C898 C 0.68087 0.76507 0.52653 0.0
C899 C 0.68061 0.74347 0.52697 0.0
C900 C 0.51493 0.43267 0.8054 0.0
C901 C 0.52602 0.41956 0.85894 0.0
C902 C 0.49372 0.43267 0.80598 0.0
C903 C 0.48281 0.41953 0.86005 0.0
H904 H 0.52268 0.44339 0.76433 0.0
H905 H 0.48583 0.44338 0.76533 0.0
S906 S 0.50468 0.38084 0.00625 0.0
N907 N 0.52444 0.39211 0.963 0.0
N908 N 0.48477 0.39207 0.96402 0.0
C909 C 0.49374 0.40583 0.91143 0.0
C910 C 0.51528 0.40585 0.9109 0.0
C911 C 0.99334 0.57674 0.30169 0.0
C912 C 0.98258 0.58936 0.35851 0.0
C913 C 0.01457 0.57662 0.30064 0.0
C914 C 0.02579 0.58911 0.3564 0.0
H915 H 0.98535 0.56653 0.25911 0.0
H916 H 0.0222 0.56632 0.25731 0.0
S917 S 0.00484 0.62621 0.51226 0.0
N918 N 0.98482 0.61559 0.4681 0.0
N919 N 0.02447 0.61536 0.46616 0.0
C920 C 0.01518 0.60229 0.41134 0.0
C921 C 0.99365 0.60241 0.41239 0.0
C922 C 0.99403 0.4119 0.58238 0.0
C923 C 0.98312 0.42202 0.64712 0.0
C924 C 0.01515 0.41188 0.58173 0.0
C925 C 0.02633 0.42197 0.64581 0.0
H926 H 0.98622 0.40411 0.53076 0.0
H927 H 0.02276 0.40406 0.52965 0.0
S928 S 0.0051 0.45017 0.83186 0.0
N929 N 0.9851 0.44197 0.77872 0.0
N930 N 0.02488 0.44192 0.77751 0.0
C931 C 0.01566 0.43182 0.71211 0.0
C932 C 0.99406 0.43185 0.71276 0.0
C933 C 0.49409 0.59966 0.09375 0.0
C934 C 0.4831 0.58838 0.15457 0.0
C935 C 0.5152 0.59995 0.09448 0.0
C936 C 0.52629 0.58896 0.15604 0.0
H937 H 0.48636 0.60811 0.04382 0.0
H938 H 0.52288 0.60857 0.04495 0.0
S939 S 0.50481 0.55778 0.33255 0.0
N940 N 0.48488 0.56656 0.28064 0.0
N941 N 0.52467 0.56708 0.28194 0.0
C942 C 0.51553 0.57809 0.2191 0.0
C943 C 0.49393 0.5778 0.21836 0.0
C944 C 0.15473 0.12465 0.35856 0.0
C945 C 0.14798 0.14362 0.32978 0.0
C946 C 0.14294 0.11283 0.41371 0.0
C947 C 0.12393 0.11951 0.4419 0.0
H948 H 0.16902 0.1186 0.33663 0.0
H949 H 0.14865 0.0982 0.43315 0.0
S950 S 0.10013 0.16886 0.39174 0.0
N951 N 0.12165 0.16915 0.33815 0.0
N952 N 0.09944 0.14689 0.44188 0.0
C953 C 0.11726 0.13873 0.41599 0.0
C954 C 0.12932 0.15081 0.36001 0.0
C955 C 0.12859 0.87491 0.53215 0.0
C956 C 0.11672 0.89158 0.55604 0.0
C957 C 0.13933 0.86391 0.5941 0.0
C958 C 0.13904 0.86969 0.68124 0.0
H959 H 0.12959 0.87037 0.46509 0.0
H960 H 0.14841 0.8512 0.57332 0.0
S961 S 0.11011 0.91206 0.77677 0.0
N962 N 0.10481 0.91302 0.67265 0.0
N963 N 0.12565 0.89277 0.78898 0.0
C964 C 0.12713 0.88624 0.70605 0.0
C965 C 0.11576 0.89709 0.64335 0.0
C966 C 0.37309 0.89941 0.89529 0.0
C967 C 0.39001 0.89074 0.93551 0.0
C968 C 0.36174 0.88861 0.8349 0.0
C969 C 0.36678 0.86866 0.81284 0.0
H970 H 0.36857 0.91474 0.91022 0.0
H971 H 0.34889 0.89601 0.80538 0.0
S972 S 0.40945 0.83883 0.90149 0.0
N973 N 0.41117 0.86094 0.95015 0.0
N974 N 0.38972 0.84051 0.83673 0.0
C975 C 0.38361 0.85972 0.85291 0.0
C976 C 0.39527 0.8708 0.91417 0.0
C977 C 0.39524 0.13383 0.08734 0.0
C978 C 0.38744 0.11581 0.05298 0.0
C979 C 0.38416 0.14526 0.1467 0.0
C980 C 0.36495 0.13899 0.17428 0.0
H981 H 0.41004 0.13918 0.06844 0.0
H982 H 0.39087 0.15893 0.17221 0.0
S983 S 0.33747 0.09317 0.10203 0.0
N984 N 0.3591 0.09242 0.0494 0.0
N985 N 0.33834 0.11385 0.16129 0.0
C986 C 0.35686 0.12111 0.1397 0.0
C987 C 0.36809 0.10953 0.07895 0.0
C988 C 0.87114 0.89851 0.58435 0.0
C989 C 0.89012 0.89174 0.55592 0.0
C990 C 0.86012 0.88764 0.64556 0.0
C991 C 0.86756 0.86948 0.67996 0.0
H992 H 0.86475 0.91239 0.55953 0.0
H993 H 0.8456 0.8935 0.66567 0.0
S994 S 0.91646 0.84518 0.62696 0.0
N995 N 0.91595 0.86576 0.56692 0.0
N996 N 0.89508 0.84518 0.68165 0.0
C997 C 0.88647 0.86246 0.65193 0.0
C998 C 0.89781 0.87364 0.59005 0.0
C999 C 0.86167 0.12092 0.34789 0.0
C1000 C 0.86874 0.13945 0.31578 0.0
C1001 C 0.87273 0.11002 0.40896 0.0
C1002 C 0.89137 0.11717 0.43978 0.0
H1003 H 0.84742 0.11475 0.32598 0.0
H1004 H 0.86661 0.09584 0.43188 0.0
S1005 S 0.91667 0.16484 0.3757 0.0
N1006 N 0.89557 0.16452 0.31902 0.0
N1007 N 0.91648 0.14393 0.43365 0.0
C1008 C 0.89868 0.13566 0.40808 0.0
C1009 C 0.88733 0.14685 0.34617 0.0
C1010 C 0.64907 0.12084 0.15647 0.0
C1011 C 0.6433 0.1405 0.17996 0.0
C1012 C 0.63809 0.10987 0.09537 0.0
C1013 C 0.62081 0.11806 0.05613 0.0
H1014 H 0.66218 0.1138 0.1855 0.0
H1015 H 0.64309 0.09475 0.07949 0.0
S1016 S 0.59954 0.16911 0.09371 0.0
N1017 N 0.61937 0.16791 0.15807 0.0
N1018 N 0.59859 0.14714 0.04357 0.0
C1019 C 0.61488 0.13774 0.07865 0.0
C1020 C 0.62618 0.14901 0.14042 0.0
C1021 C 0.64281 0.86468 0.8909 0.0
C1022 C 0.64009 0.86828 0.80241 0.0
C1023 C 0.63204 0.87582 0.95232 0.0
C1024 C 0.61778 0.89037 0.92689 0.0
H1025 H 0.65378 0.85369 0.91276 0.0
H1026 H 0.63488 0.87303 0.02017 0.0
S1027 S 0.6044 0.90454 0.7028 0.0
N1028 N 0.62193 0.88701 0.69199 0.0
N1029 N 0.60103 0.90735 0.80777 0.0
C1030 C 0.61443 0.8936 0.83861 0.0
C1031 C 0.6258 0.88269 0.77616 0.0
C1032 C 0.63926 0.60953 0.90712 0.0
C1033 C 0.61961 0.61529 0.93083 0.0
C1034 C 0.65062 0.62116 0.84944 0.0
C1035 C 0.6428 0.63908 0.81421 0.0
H1036 H 0.64598 0.59594 0.93333 0.0
H1037 H 0.66566 0.6161 0.83268 0.0
S1038 S 0.59199 0.66069 0.85463 0.0
N1039 N 0.5927 0.63999 0.91376 0.0
N1040 N 0.61411 0.66192 0.80604 0.0
C1041 C 0.62317 0.64503 0.83736 0.0
C1042 C 0.61154 0.6331 0.89542 0.0
C1043 C 0.62705 0.36355 0.15277 0.0
C1044 C 0.64435 0.37195 0.19127 0.0
C1045 C 0.6157 0.37447 0.09252 0.0
C1046 C 0.62141 0.39406 0.0679 0.0
H1047 H 0.62215 0.34845 0.16947 0.0
H1048 H 0.60254 0.36738 0.06413 0.0
S1049 S 0.66512 0.42314 0.15126 0.0
N1050 N 0.66638 0.40126 0.20185 0.0
N1051 N 0.64515 0.42166 0.08787 0.0
C1052 C 0.6386 0.40269 0.1061 0.0
C1053 C 0.65005 0.39166 0.16803 0.0
C1054 C 0.89634 0.37608 0.40046 0.0
C1055 C 0.88796 0.39343 0.43861 0.0
C1056 C 0.88541 0.3647 0.34031 0.0
C1057 C 0.86582 0.37042 0.31551 0.0
H1058 H 0.91142 0.37117 0.4174 0.0
H1059 H 0.89247 0.35151 0.3122 0.0
S1060 S 0.83681 0.41427 0.39785 0.0
N1061 N 0.85869 0.41553 0.44852 0.0
N1062 N 0.83826 0.39423 0.33488 0.0
C1063 C 0.85722 0.38766 0.35333 0.0
C1064 C 0.86826 0.39915 0.41508 0.0
C1065 C 0.85928 0.62183 0.66113 0.0
C1066 C 0.86696 0.63968 0.69742 0.0
C1067 C 0.87027 0.61101 0.59964 0.0
C1068 C 0.88946 0.61752 0.57284 0.0
H1069 H 0.84455 0.61622 0.67971 0.0
H1070 H 0.86365 0.5974 0.57313 0.0
S1071 S 0.91658 0.66312 0.6498 0.0
N1072 N 0.89501 0.66334 0.70311 0.0
N1073 N 0.91583 0.64285 0.58791 0.0
C1074 C 0.89744 0.63526 0.60919 0.0
C1075 C 0.88614 0.6464 0.67133 0.0
C1076 C 0.35918 0.38662 0.15926 0.0
C1077 C 0.36712 0.36902 0.19675 0.0
C1078 C 0.37018 0.39758 0.0982 0.0
C1079 C 0.38963 0.39148 0.07309 0.0
H1080 H 0.34425 0.39192 0.17661 0.0
H1081 H 0.36336 0.41098 0.0707 0.0
S1082 S 0.41749 0.34671 0.15408 0.0
N1083 N 0.3957 0.34607 0.20561 0.0
N1084 N 0.41653 0.36682 0.09129 0.0
C1085 C 0.39785 0.37399 0.1107 0.0
C1086 C 0.38655 0.36271 0.17236 0.0
C1087 C 0.37062 0.61119 0.91066 0.0
C1088 C 0.39026 0.61701 0.93444 0.0
C1089 C 0.35954 0.62231 0.8504 0.0
C1090 C 0.36757 0.63979 0.81228 0.0
H1091 H 0.36371 0.5979 0.93869 0.0
H1092 H 0.34447 0.6172 0.83408 0.0
S1093 S 0.41843 0.66137 0.85152 0.0
N1094 N 0.41743 0.64128 0.91439 0.0
N1095 N 0.39645 0.66232 0.80146 0.0
C1096 C 0.38719 0.64582 0.83533 0.0
C1097 C 0.39858 0.63437 0.89625 0.0
C1098 C 0.14818 0.62127 0.65647 0.0
C1099 C 0.14103 0.63985 0.68778 0.0
C1100 C 0.13734 0.61035 0.59479 0.0
C1101 C 0.11885 0.61751 0.56258 0.0
H1102 H 0.16234 0.61509 0.67944 0.0
H1103 H 0.1435 0.59612 0.57253 0.0
S1104 S 0.09345 0.66534 0.62373 0.0
N1105 N 0.11431 0.66501 0.68206 0.0
N1106 N 0.0938 0.64435 0.56629 0.0
C1107 C 0.11145 0.63604 0.59346 0.0
C1108 C 0.12258 0.64726 0.65597 0.0
C1109 C 0.14776 0.38784 0.33487 0.0
C1110 C 0.14198 0.36813 0.31213 0.0
C1111 C 0.13674 0.39899 0.3952 0.0
C1112 C 0.11938 0.39094 0.43428 0.0
H1113 H 0.16097 0.39474 0.30612 0.0
H1114 H 0.14181 0.4141 0.41086 0.0
S1115 S 0.09789 0.33994 0.39757 0.0
N1116 N 0.11784 0.34091 0.33394 0.0
N1117 N 0.09697 0.36201 0.44689 0.0
C1118 C 0.11336 0.37127 0.41209 0.0
C1119 C 0.12472 0.35981 0.35118 0.0
loop_
_geom_bond_atom_site_label_1
_geom_bond_atom_site_label_2
_geom_bond_distance
_geom_bond_site_symmetry_2
_ccdc_geom_bond_type
In0 O1 2.294 . S
In0 O2 2.326 . S
In0 O6 2.266 . S
In0 O7 2.326 . S
In0 O8 2.266 . S
In0 O9 2.326 . S
In0 O11 2.294 . S
In0 O12 2.326 . S
O1 In0 2.294 . S
O1 C10 1.240 . S
O2 In0 2.326 . S
O2 C10 1.252 . S
C3 O6 1.252 . S
C3 O7 1.260 . S
C4 O11 1.240 . S
C4 O12 1.252 . S
C5 O8 1.252 . S
C5 O9 1.260 . S
O6 In0 2.266 . S
O6 C3 1.252 . S
O7 In0 2.326 . S
O7 C3 1.260 . S
O8 In0 2.266 . S
O8 C5 1.252 . S
O9 In0 2.326 . S
O9 C5 1.260 . S
C10 O1 1.240 . S
C10 O2 1.252 . S
O11 In0 2.294 . S
O11 C4 1.240 . S
O12 In0 2.326 . S
O12 C4 1.252 . S
In13 O14 2.294 . S
In13 O15 2.326 . S
In13 O19 2.266 . S
In13 O20 2.326 . S
In13 O21 2.266 . S
In13 O22 2.326 . S
In13 O24 2.294 . S
In13 O25 2.326 . S
O14 In13 2.294 . S
O14 C23 1.240 . S
O15 In13 2.326 . S
O15 C23 1.252 . S
C16 O19 1.252 . S
C16 O20 1.260 . S
C17 O24 1.240 . S
C17 O25 1.252 . S
C18 O21 1.252 . S
C18 O22 1.260 . S
O19 In13 2.266 . S
O19 C16 1.252 . S
O20 In13 2.326 . S
O20 C16 1.260 . S
O21 In13 2.266 . S
O21 C18 1.252 . S
O22 In13 2.326 . S
O22 C18 1.260 . S
C23 O14 1.240 . S
C23 O15 1.252 . S
O24 In13 2.294 . S
O24 C17 1.240 . S
O25 In13 2.326 . S
O25 C17 1.252 . S
In26 O27 2.294 . S
In26 O28 2.326 . S
In26 O32 2.266 . S
In26 O33 2.326 . S
In26 O34 2.266 . S
In26 O35 2.326 . S
In26 O37 2.294 . S
In26 O38 2.326 . S
O27 In26 2.294 . S
O27 C36 1.240 . S
O28 In26 2.326 . S
O28 C36 1.252 . S
C29 O32 1.252 . S
C29 O33 1.260 . S
C30 O37 1.240 . S
C30 O38 1.252 . S
C31 O34 1.252 . S
C31 O35 1.260 . S
O32 In26 2.266 . S
O32 C29 1.252 . S
O33 In26 2.326 . S
O33 C29 1.260 . S
O34 In26 2.266 . S
O34 C31 1.252 . S
O35 In26 2.326 . S
O35 C31 1.260 . S
C36 O27 1.240 . S
C36 O28 1.252 . S
O37 In26 2.294 . S
O37 C30 1.240 . S
O38 In26 2.326 . S
O38 C30 1.252 . S
In39 O40 2.294 . S
In39 O41 2.326 . S
In39 O45 2.266 . S
In39 O46 2.326 . S
In39 O47 2.266 . S
In39 O48 2.326 . S
In39 O50 2.294 . S
In39 O51 2.326 . S
O40 In39 2.294 . S
O40 C49 1.240 . S
O41 In39 2.326 . S
O41 C49 1.252 . S
C42 O45 1.252 . S
C42 O46 1.260 . S
C43 O50 1.240 . S
C43 O51 1.252 . S
C44 O47 1.252 . S
C44 O48 1.260 . S
O45 In39 2.266 . S
O45 C42 1.252 . S
O46 In39 2.326 . S
O46 C42 1.260 . S
O47 In39 2.266 . S
O47 C44 1.252 . S
O48 In39 2.326 . S
O48 C44 1.260 . S
C49 O40 1.240 . S
C49 O41 1.252 . S
O50 In39 2.294 . S
O50 C43 1.240 . S
O51 In39 2.326 . S
O51 C43 1.252 . S
In52 O53 2.294 . S
In52 O54 2.326 . S
In52 O58 2.266 . S
In52 O59 2.326 . S
In52 O60 2.266 . S
In52 O61 2.326 . S
In52 O63 2.294 . S
In52 O64 2.326 . S
O53 In52 2.294 . S
O53 C62 1.240 . S
O54 In52 2.326 . S
O54 C62 1.252 . S
C55 O58 1.252 . S
C55 O59 1.260 . S
C56 O63 1.240 . S
C56 O64 1.252 . S
C57 O60 1.252 . S
C57 O61 1.260 . S
O58 In52 2.266 . S
O58 C55 1.252 . S
O59 In52 2.326 . S
O59 C55 1.260 . S
O60 In52 2.266 . S
O60 C57 1.252 . S
O61 In52 2.326 . S
O61 C57 1.260 . S
C62 O53 1.240 . S
C62 O54 1.252 . S
O63 In52 2.294 . S
O63 C56 1.240 . S
O64 In52 2.326 . S
O64 C56 1.252 . S
In65 O66 2.294 . S
In65 O67 2.326 . S
In65 O71 2.266 . S
In65 O72 2.326 . S
In65 O73 2.266 . S
In65 O74 2.326 . S
In65 O76 2.294 . S
In65 O77 2.326 . S
O66 In65 2.294 . S
O66 C75 1.240 . S
O67 In65 2.326 . S
O67 C75 1.252 . S
C68 O71 1.252 . S
C68 O72 1.260 . S
C69 O76 1.240 . S
C69 O77 1.252 . S
C70 O73 1.252 . S
C70 O74 1.260 . S
O71 In65 2.266 . S
O71 C68 1.252 . S
O72 In65 2.326 . S
O72 C68 1.260 . S
O73 In65 2.266 . S
O73 C70 1.252 . S
O74 In65 2.326 . S
O74 C70 1.260 . S
C75 O66 1.240 . S
C75 O67 1.252 . S
O76 In65 2.294 . S
O76 C69 1.240 . S
O77 In65 2.326 . S
O77 C69 1.252 . S
In78 O79 2.294 . S
In78 O80 2.326 . S
In78 O84 2.266 . S
In78 O85 2.326 . S
In78 O86 2.266 . S
In78 O87 2.326 . S
In78 O89 2.294 . S
In78 O90 2.326 . S
O79 In78 2.294 . S
O79 C88 1.240 . S
O80 In78 2.326 . S
O80 C88 1.252 . S
C81 O84 1.252 . S
C81 O85 1.260 . S
C82 O89 1.240 . S
C82 O90 1.252 . S
C83 O86 1.252 . S
C83 O87 1.260 . S
O84 In78 2.266 . S
O84 C81 1.252 . S
O85 In78 2.326 . S
O85 C81 1.260 . S
O86 In78 2.266 . S
O86 C83 1.252 . S
O87 In78 2.326 . S
O87 C83 1.260 . S
C88 O79 1.240 . S
C88 O80 1.252 . S
O89 In78 2.294 . S
O89 C82 1.240 . S
O90 In78 2.326 . S
O90 C82 1.252 . S
In91 O92 2.294 . S
In91 O93 2.326 . S
In91 O97 2.266 . S
In91 O98 2.326 . S
In91 O99 2.266 . S
In91 O100 2.326 . S
In91 O102 2.294 . S
In91 O103 2.326 . S
O92 In91 2.294 . S
O92 C101 1.240 . S
O93 In91 2.326 . S
O93 C101 1.252 . S
C94 O97 1.252 . S
C94 O98 1.260 . S
C95 O102 1.240 . S
C95 O103 1.252 . S
C96 O99 1.252 . S
C96 O100 1.260 . S
O97 In91 2.266 . S
O97 C94 1.252 . S
O98 In91 2.326 . S
O98 C94 1.260 . S
O99 In91 2.266 . S
O99 C96 1.252 . S
O100 In91 2.326 . S
O100 C96 1.260 . S
C101 O92 1.240 . S
C101 O93 1.252 . S
O102 In91 2.294 . S
O102 C95 1.240 . S
O103 In91 2.326 . S
O103 C95 1.252 . S
In104 O105 2.294 . S
In104 O106 2.326 . S
In104 O110 2.266 . S
In104 O111 2.326 . S
In104 O112 2.266 . S
In104 O113 2.326 . S
In104 O115 2.294 . S
In104 O116 2.326 . S
O105 In104 2.294 . S
O105 C114 1.240 . S
O106 In104 2.326 . S
O106 C114 1.252 . S
C107 O110 1.252 . S
C107 O111 1.260 . S
C108 O115 1.240 . S
C108 O116 1.252 . S
C109 O112 1.252 . S
C109 O113 1.260 . S
O110 In104 2.266 . S
O110 C107 1.252 . S
O111 In104 2.326 . S
O111 C107 1.260 . S
O112 In104 2.266 . S
O112 C109 1.252 . S
O113 In104 2.326 . S
O113 C109 1.260 . S
C114 O105 1.240 . S
C114 O106 1.252 . S
O115 In104 2.294 . S
O115 C108 1.240 . S
O116 In104 2.326 . S
O116 C108 1.252 . S
In117 O118 2.294 . S
In117 O119 2.326 . S
In117 O123 2.266 . S
In117 O124 2.326 . S
In117 O125 2.266 . S
In117 O126 2.326 . S
In117 O128 2.294 . S
In117 O129 2.326 . S
O118 In117 2.294 . S
O118 C127 1.240 . S
O119 In117 2.326 . S
O119 C127 1.252 . S
C120 O123 1.252 . S
C120 O124 1.260 . S
C121 O128 1.240 . S
C121 O129 1.252 . S
C122 O125 1.252 . S
C122 O126 1.260 . S
O123 In117 2.266 . S
O123 C120 1.252 . S
O124 In117 2.326 . S
O124 C120 1.260 . S
O125 In117 2.266 . S
O125 C122 1.252 . S
O126 In117 2.326 . S
O126 C122 1.260 . S
C127 O118 1.240 . S
C127 O119 1.252 . S
O128 In117 2.294 . S
O128 C121 1.240 . S
O129 In117 2.326 . S
O129 C121 1.252 . S
In130 O131 2.294 . S
In130 O132 2.326 . S
In130 O136 2.266 . S
In130 O137 2.326 . S
In130 O138 2.266 . S
In130 O139 2.326 . S
In130 O141 2.294 . S
In130 O142 2.326 . S
O131 In130 2.294 . S
O131 C140 1.240 . S
O132 In130 2.326 . S
O132 C140 1.252 . S
C133 O136 1.252 . S
C133 O137 1.260 . S
C134 O141 1.240 . S
C134 O142 1.252 . S
C135 O138 1.252 . S
C135 O139 1.260 . S
O136 In130 2.266 . S
O136 C133 1.252 . S
O137 In130 2.326 . S
O137 C133 1.260 . S
O138 In130 2.266 . S
O138 C135 1.252 . S
O139 In130 2.326 . S
O139 C135 1.260 . S
C140 O131 1.240 . S
C140 O132 1.252 . S
O141 In130 2.294 . S
O141 C134 1.240 . S
O142 In130 2.326 . S
O142 C134 1.252 . S
In143 O144 2.294 . S
In143 O145 2.326 . S
In143 O149 2.266 . S
In143 O150 2.326 . S
In143 O151 2.266 . S
In143 O152 2.326 . S
In143 O154 2.294 . S
In143 O155 2.326 . S
O144 In143 2.294 . S
O144 C153 1.240 . S
O145 In143 2.326 . S
O145 C153 1.252 . S
C146 O149 1.252 . S
C146 O150 1.260 . S
C147 O154 1.240 . S
C147 O155 1.252 . S
C148 O151 1.252 . S
C148 O152 1.260 . S
O149 In143 2.266 . S
O149 C146 1.252 . S
O150 In143 2.326 . S
O150 C146 1.260 . S
O151 In143 2.266 . S
O151 C148 1.252 . S
O152 In143 2.326 . S
O152 C148 1.260 . S
C153 O144 1.240 . S
C153 O145 1.252 . S
O154 In143 2.294 . S
O154 C147 1.240 . S
O155 In143 2.326 . S
O155 C147 1.252 . S
In156 O157 2.294 . S
In156 O158 2.326 . S
In156 O162 2.266 . S
In156 O163 2.326 . S
In156 O164 2.266 . S
In156 O165 2.326 . S
In156 O167 2.294 . S
In156 O168 2.326 . S
O157 In156 2.294 . S
O157 C166 1.240 . S
O158 In156 2.326 . S
O158 C166 1.252 . S
C159 O162 1.252 . S
C159 O163 1.260 . S
C160 O167 1.240 . S
C160 O168 1.252 . S
C161 O164 1.252 . S
C161 O165 1.260 . S
O162 In156 2.266 . S
O162 C159 1.252 . S
O163 In156 2.326 . S
O163 C159 1.260 . S
O164 In156 2.266 . S
O164 C161 1.252 . S
O165 In156 2.326 . S
O165 C161 1.260 . S
C166 O157 1.240 . S
C166 O158 1.252 . S
O167 In156 2.294 . S
O167 C160 1.240 . S
O168 In156 2.326 . S
O168 C160 1.252 . S
In169 O170 2.294 . S
In169 O171 2.326 . S
In169 O175 2.266 . S
In169 O176 2.326 . S
In169 O177 2.266 . S
In169 O178 2.326 . S
In169 O180 2.294 . S
In169 O181 2.326 . S
O170 In169 2.294 . S
O170 C179 1.240 . S
O171 In169 2.326 . S
O171 C179 1.252 . S
C172 O175 1.252 . S
C172 O176 1.260 . S
C173 O180 1.240 . S
C173 O181 1.252 . S
C174 O177 1.252 . S
C174 O178 1.260 . S
O175 In169 2.266 . S
O175 C172 1.252 . S
O176 In169 2.326 . S
O176 C172 1.260 . S
O177 In169 2.266 . S
O177 C174 1.252 . S
O178 In169 2.326 . S
O178 C174 1.260 . S
C179 O170 1.240 . S
C179 O171 1.252 . S
O180 In169 2.294 . S
O180 C173 1.240 . S
O181 In169 2.326 . S
O181 C173 1.252 . S
In182 O183 2.294 . S
In182 O184 2.326 . S
In182 O188 2.266 . S
In182 O189 2.326 . S
In182 O190 2.266 . S
In182 O191 2.326 . S
In182 O193 2.294 . S
In182 O194 2.326 . S
O183 In182 2.294 . S
O183 C192 1.240 . S
O184 In182 2.326 . S
O184 C192 1.252 . S
C185 O188 1.252 . S
C185 O189 1.260 . S
C186 O193 1.240 . S
C186 O194 1.252 . S
C187 O190 1.252 . S
C187 O191 1.260 . S
O188 In182 2.266 . S
O188 C185 1.252 . S
O189 In182 2.326 . S
O189 C185 1.260 . S
O190 In182 2.266 . S
O190 C187 1.252 . S
O191 In182 2.326 . S
O191 C187 1.260 . S
C192 O183 1.240 . S
C192 O184 1.252 . S
O193 In182 2.294 . S
O193 C186 1.240 . S
O194 In182 2.326 . S
O194 C186 1.252 . S
In195 O196 2.294 . S
In195 O197 2.326 . S
In195 O201 2.266 . S
In195 O202 2.326 . S
In195 O203 2.266 . S
In195 O204 2.326 . S
In195 O206 2.294 . S
In195 O207 2.326 . S
O196 In195 2.294 . S
O196 C205 1.240 . S
O197 In195 2.326 . S
O197 C205 1.252 . S
C198 O201 1.252 . S
C198 O202 1.260 . S
C199 O206 1.240 . S
C199 O207 1.252 . S
C200 O203 1.252 . S
C200 O204 1.260 . S
O201 In195 2.266 . S
O201 C198 1.252 . S
O202 In195 2.326 . S
O202 C198 1.260 . S
O203 In195 2.266 . S
O203 C200 1.252 . S
O204 In195 2.326 . S
O204 C200 1.260 . S
C205 O196 1.240 . S
C205 O197 1.252 . S
O206 In195 2.294 . S
O206 C199 1.240 . S
O207 In195 2.326 . S
O207 C199 1.252 . S
In208 O209 2.294 . S
In208 O210 2.326 . S
In208 O214 2.266 . S
In208 O215 2.326 . S
In208 O216 2.266 . S
In208 O217 2.326 . S
In208 O219 2.294 . S
In208 O220 2.326 . S
O209 In208 2.294 . S
O209 C218 1.240 . S
O210 In208 2.326 . S
O210 C218 1.252 . S
C211 O214 1.252 . S
C211 O215 1.260 . S
C212 O219 1.240 . S
C212 O220 1.252 . S
C213 O216 1.252 . S
C213 O217 1.260 . S
O214 In208 2.266 . S
O214 C211 1.252 . S
O215 In208 2.326 . S
O215 C211 1.260 . S
O216 In208 2.266 . S
O216 C213 1.252 . S
O217 In208 2.326 . S
O217 C213 1.260 . S
C218 O209 1.240 . S
C218 O210 1.252 . S
O219 In208 2.294 . S
O219 C212 1.240 . S
O220 In208 2.326 . S
O220 C212 1.252 . S
In221 O222 2.294 . S
In221 O223 2.326 . S
In221 O227 2.266 . S
In221 O228 2.326 . S
In221 O229 2.266 . S
In221 O230 2.326 . S
In221 O232 2.294 . S
In221 O233 2.326 . S
O222 In221 2.294 . S
O222 C231 1.240 . S
O223 In221 2.326 . S
O223 C231 1.252 . S
C224 O227 1.252 . S
C224 O228 1.260 . S
C225 O232 1.240 . S
C225 O233 1.252 . S
C226 O229 1.252 . S
C226 O230 1.260 . S
O227 In221 2.266 . S
O227 C224 1.252 . S
O228 In221 2.326 . S
O228 C224 1.260 . S
O229 In221 2.266 . S
O229 C226 1.252 . S
O230 In221 2.326 . S
O230 C226 1.260 . S
C231 O222 1.240 . S
C231 O223 1.252 . S
O232 In221 2.294 . S
O232 C225 1.240 . S
O233 In221 2.326 . S
O233 C225 1.252 . S
In234 O235 2.294 . S
In234 O236 2.326 . S
In234 O240 2.266 . S
In234 O241 2.326 . S
In234 O242 2.266 . S
In234 O243 2.326 . S
In234 O245 2.294 . S
In234 O246 2.326 . S
O235 In234 2.294 . S
O235 C244 1.240 . S
O236 In234 2.326 . S
O236 C244 1.252 . S
C237 O240 1.252 . S
C237 O241 1.260 . S
C238 O245 1.240 . S
C238 O246 1.252 . S
C239 O242 1.252 . S
C239 O243 1.260 . S
O240 In234 2.266 . S
O240 C237 1.252 . S
O241 In234 2.326 . S
O241 C237 1.260 . S
O242 In234 2.266 . S
O242 C239 1.252 . S
O243 In234 2.326 . S
O243 C239 1.260 . S
C244 O235 1.240 . S
C244 O236 1.252 . S
O245 In234 2.294 . S
O245 C238 1.240 . S
O246 In234 2.326 . S
O246 C238 1.252 . S
In247 O248 2.294 . S
In247 O249 2.326 . S
In247 O253 2.266 . S
In247 O254 2.326 . S
In247 O255 2.266 . S
In247 O256 2.326 . S
In247 O258 2.294 . S
In247 O259 2.326 . S
O248 In247 2.294 . S
O248 C257 1.240 . S
O249 In247 2.326 . S
O249 C257 1.252 . S
C250 O253 1.252 . S
C250 O254 1.260 . S
C251 O258 1.240 . S
C251 O259 1.252 . S
C252 O255 1.252 . S
C252 O256 1.260 . S
O253 In247 2.266 . S
O253 C250 1.252 . S
O254 In247 2.326 . S
O254 C250 1.260 . S
O255 In247 2.266 . S
O255 C252 1.252 . S
O256 In247 2.326 . S
O256 C252 1.260 . S
C257 O248 1.240 . S
C257 O249 1.252 . S
O258 In247 2.294 . S
O258 C251 1.240 . S
O259 In247 2.326 . S
O259 C251 1.252 . S
In260 O261 2.294 . S
In260 O262 2.326 . S
In260 O266 2.266 . S
In260 O267 2.326 . S
In260 O268 2.266 . S
In260 O269 2.326 . S
In260 O271 2.294 . S
In260 O272 2.326 . S
O261 In260 2.294 . S
O261 C270 1.240 . S
O262 In260 2.326 . S
O262 C270 1.252 . S
C263 O266 1.252 . S
C263 O267 1.260 . S
C264 O271 1.240 . S
C264 O272 1.252 . S
C265 O268 1.252 . S
C265 O269 1.260 . S
O266 In260 2.266 . S
O266 C263 1.252 . S
O267 In260 2.326 . S
O267 C263 1.260 . S
O268 In260 2.266 . S
O268 C265 1.252 . S
O269 In260 2.326 . S
O269 C265 1.260 . S
C270 O261 1.240 . S
C270 O262 1.252 . S
O271 In260 2.294 . S
O271 C264 1.240 . S
O272 In260 2.326 . S
O272 C264 1.252 . S
In273 O274 2.294 . S
In273 O275 2.326 . S
In273 O279 2.266 . S
In273 O280 2.326 . S
In273 O281 2.266 . S
In273 O282 2.326 . S
In273 O284 2.294 . S
In273 O285 2.326 . S
O274 In273 2.294 . S
O274 C283 1.240 . S
O275 In273 2.326 . S
O275 C283 1.252 . S
C276 O279 1.252 . S
C276 O280 1.260 . S
C277 O284 1.240 . S
C277 O285 1.252 . S
C278 O281 1.252 . S
C278 O282 1.260 . S
O279 In273 2.266 . S
O279 C276 1.252 . S
O280 In273 2.326 . S
O280 C276 1.260 . S
O281 In273 2.266 . S
O281 C278 1.252 . S
O282 In273 2.326 . S
O282 C278 1.260 . S
C283 O274 1.240 . S
C283 O275 1.252 . S
O284 In273 2.294 . S
O284 C277 1.240 . S
O285 In273 2.326 . S
O285 C277 1.252 . S
In286 O287 2.294 . S
In286 O288 2.326 . S
In286 O292 2.266 . S
In286 O293 2.326 . S
In286 O294 2.266 . S
In286 O295 2.326 . S
In286 O297 2.294 . S
In286 O298 2.326 . S
O287 In286 2.294 . S
O287 C296 1.240 . S
O288 In286 2.326 . S
O288 C296 1.252 . S
C289 O292 1.252 . S
C289 O293 1.260 . S
C290 O297 1.240 . S
C290 O298 1.252 . S
C291 O294 1.252 . S
C291 O295 1.260 . S
O292 In286 2.266 . S
O292 C289 1.252 . S
O293 In286 2.326 . S
O293 C289 1.260 . S
O294 In286 2.266 . S
O294 C291 1.252 . S
O295 In286 2.326 . S
O295 C291 1.260 . S
C296 O287 1.240 . S
C296 O288 1.252 . S
O297 In286 2.294 . S
O297 C290 1.240 . S
O298 In286 2.326 . S
O298 C290 1.252 . S
In299 O300 2.294 . S
In299 O301 2.326 . S
In299 O305 2.266 . S
In299 O306 2.326 . S
In299 O307 2.266 . S
In299 O308 2.326 . S
In299 O310 2.294 . S
In299 O311 2.326 . S
O300 In299 2.294 . S
O300 C309 1.240 . S
O301 In299 2.326 . S
O301 C309 1.252 . S
C302 O305 1.252 . S
C302 O306 1.260 . S
C303 O310 1.240 . S
C303 O311 1.252 . S
C304 O307 1.252 . S
C304 O308 1.260 . S
O305 In299 2.266 . S
O305 C302 1.252 . S
O306 In299 2.326 . S
O306 C302 1.260 . S
O307 In299 2.266 . S
O307 C304 1.252 . S
O308 In299 2.326 . S
O308 C304 1.260 . S
C309 O300 1.240 . S
C309 O301 1.252 . S
O310 In299 2.294 . S
O310 C303 1.240 . S
O311 In299 2.326 . S
O311 C303 1.252 . S
In312 O313 2.294 . S
In312 O314 2.326 . S
In312 O318 2.266 . S
In312 O319 2.326 . S
In312 O320 2.266 . S
In312 O321 2.326 . S
In312 O323 2.294 . S
In312 O324 2.326 . S
O313 In312 2.294 . S
O313 C322 1.240 . S
O314 In312 2.326 . S
O314 C322 1.252 . S
C315 O318 1.252 . S
C315 O319 1.260 . S
C316 O323 1.240 . S
C316 O324 1.252 . S
C317 O320 1.252 . S
C317 O321 1.260 . S
O318 In312 2.266 . S
O318 C315 1.252 . S
O319 In312 2.326 . S
O319 C315 1.260 . S
O320 In312 2.266 . S
O320 C317 1.252 . S
O321 In312 2.326 . S
O321 C317 1.260 . S
C322 O313 1.240 . S
C322 O314 1.252 . S
O323 In312 2.294 . S
O323 C316 1.240 . S
O324 In312 2.326 . S
O324 C316 1.252 . S
In325 O326 2.294 . S
In325 O327 2.326 . S
In325 O331 2.266 . S
In325 O332 2.326 . S
In325 O333 2.266 . S
In325 O334 2.326 . S
In325 O336 2.294 . S
In325 O337 2.326 . S
O326 In325 2.294 . S
O326 C335 1.240 . S
O327 In325 2.326 . S
O327 C335 1.252 . S
C328 O331 1.252 . S
C328 O332 1.260 . S
C329 O336 1.240 . S
C329 O337 1.252 . S
C330 O333 1.252 . S
C330 O334 1.260 . S
O331 In325 2.266 . S
O331 C328 1.252 . S
O332 In325 2.326 . S
O332 C328 1.260 . S
O333 In325 2.266 . S
O333 C330 1.252 . S
O334 In325 2.326 . S
O334 C330 1.260 . S
C335 O326 1.240 . S
C335 O327 1.252 . S
O336 In325 2.294 . S
O336 C329 1.240 . S
O337 In325 2.326 . S
O337 C329 1.252 . S
In338 O339 2.294 . S
In338 O340 2.326 . S
In338 O344 2.266 . S
In338 O345 2.326 . S
In338 O346 2.266 . S
In338 O347 2.326 . S
In338 O349 2.294 . S
In338 O350 2.326 . S
O339 In338 2.294 . S
O339 C348 1.240 . S
O340 In338 2.326 . S
O340 C348 1.252 . S
C341 O344 1.252 . S
C341 O345 1.260 . S
C342 O349 1.240 . S
C342 O350 1.252 . S
C343 O346 1.252 . S
C343 O347 1.260 . S
O344 In338 2.266 . S
O344 C341 1.252 . S
O345 In338 2.326 . S
O345 C341 1.260 . S
O346 In338 2.266 . S
O346 C343 1.252 . S
O347 In338 2.326 . S
O347 C343 1.260 . S
C348 O339 1.240 . S
C348 O340 1.252 . S
O349 In338 2.294 . S
O349 C342 1.240 . S
O350 In338 2.326 . S
O350 C342 1.252 . S
In351 O352 2.294 . S
In351 O353 2.326 . S
In351 O357 2.266 . S
In351 O358 2.326 . S
In351 O359 2.266 . S
In351 O360 2.326 . S
In351 O362 2.294 . S
In351 O363 2.326 . S
O352 In351 2.294 . S
O352 C361 1.240 . S
O353 In351 2.326 . S
O353 C361 1.252 . S
C354 O357 1.252 . S
C354 O358 1.260 . S
C355 O362 1.240 . S
C355 O363 1.252 . S
C356 O359 1.252 . S
C356 O360 1.260 . S
O357 In351 2.266 . S
O357 C354 1.252 . S
O358 In351 2.326 . S
O358 C354 1.260 . S
O359 In351 2.266 . S
O359 C356 1.252 . S
O360 In351 2.326 . S
O360 C356 1.260 . S
C361 O352 1.240 . S
C361 O353 1.252 . S
O362 In351 2.294 . S
O362 C355 1.240 . S
O363 In351 2.326 . S
O363 C355 1.252 . S
In364 O365 2.294 . S
In364 O366 2.326 . S
In364 O370 2.266 . S
In364 O371 2.326 . S
In364 O372 2.266 . S
In364 O373 2.326 . S
In364 O375 2.294 . S
In364 O376 2.326 . S
O365 In364 2.294 . S
O365 C374 1.240 . S
O366 In364 2.326 . S
O366 C374 1.252 . S
C367 O370 1.252 . S
C367 O371 1.260 . S
C368 O375 1.240 . S
C368 O376 1.252 . S
C369 O372 1.252 . S
C369 O373 1.260 . S
O370 In364 2.266 . S
O370 C367 1.252 . S
O371 In364 2.326 . S
O371 C367 1.260 . S
O372 In364 2.266 . S
O372 C369 1.252 . S
O373 In364 2.326 . S
O373 C369 1.260 . S
C374 O365 1.240 . S
C374 O366 1.252 . S
O375 In364 2.294 . S
O375 C368 1.240 . S
O376 In364 2.326 . S
O376 C368 1.252 . S
In377 O378 2.294 . S
In377 O379 2.326 . S
In377 O383 2.266 . S
In377 O384 2.326 . S
In377 O385 2.266 . S
In377 O386 2.326 . S
In377 O388 2.294 . S
In377 O389 2.326 . S
O378 In377 2.294 . S
O378 C387 1.240 . S
O379 In377 2.326 . S
O379 C387 1.252 . S
C380 O383 1.252 . S
C380 O384 1.260 . S
C381 O388 1.240 . S
C381 O389 1.252 . S
C382 O385 1.252 . S
C382 O386 1.260 . S
O383 In377 2.266 . S
O383 C380 1.252 . S
O384 In377 2.326 . S
O384 C380 1.260 . S
O385 In377 2.266 . S
O385 C382 1.252 . S
O386 In377 2.326 . S
O386 C382 1.260 . S
C387 O378 1.240 . S
C387 O379 1.252 . S
O388 In377 2.294 . S
O388 C381 1.240 . S
O389 In377 2.326 . S
O389 C381 1.252 . S
In390 O391 2.294 . S
In390 O392 2.326 . S
In390 O396 2.266 . S
In390 O397 2.326 . S
In390 O398 2.266 . S
In390 O399 2.326 . S
In390 O401 2.294 . S
In390 O402 2.326 . S
O391 In390 2.294 . S
O391 C400 1.240 . S
O392 In390 2.326 . S
O392 C400 1.252 . S
C393 O396 1.252 . S
C393 O397 1.260 . S
C394 O401 1.240 . S
C394 O402 1.252 . S
C395 O398 1.252 . S
C395 O399 1.260 . S
O396 In390 2.266 . S
O396 C393 1.252 . S
O397 In390 2.326 . S
O397 C393 1.260 . S
O398 In390 2.266 . S
O398 C395 1.252 . S
O399 In390 2.326 . S
O399 C395 1.260 . S
C400 O391 1.240 . S
C400 O392 1.252 . S
O401 In390 2.294 . S
O401 C394 1.240 . S
O402 In390 2.326 . S
O402 C394 1.252 . S
In403 O404 2.294 . S
In403 O405 2.326 . S
In403 O409 2.266 . S
In403 O410 2.326 . S
In403 O411 2.266 . S
In403 O412 2.326 . S
In403 O414 2.294 . S
In403 O415 2.326 . S
O404 In403 2.294 . S
O404 C413 1.240 . S
O405 In403 2.326 . S
O405 C413 1.252 . S
C406 O409 1.252 . S
C406 O410 1.260 . S
C407 O414 1.240 . S
C407 O415 1.252 . S
C408 O411 1.252 . S
C408 O412 1.260 . S
O409 In403 2.266 . S
O409 C406 1.252 . S
O410 In403 2.326 . S
O410 C406 1.260 . S
O411 In403 2.266 . S
O411 C408 1.252 . S
O412 In403 2.326 . S
O412 C408 1.260 . S
C413 O404 1.240 . S
C413 O405 1.252 . S
O414 In403 2.294 . S
O414 C407 1.240 . S
O415 In403 2.326 . S
O415 C407 1.252 . S
C416 C417 1.369 . S
C416 C418 1.419 . S
C416 H420 0.930 . S
C417 C416 1.369 . S
C417 C426 1.429 . S
C418 C416 1.419 . S
C418 C419 1.363 . S
C418 H421 0.929 . S
C419 C418 1.363 . S
C419 C425 1.428 . S
H420 C416 0.930 . S
H421 C418 0.929 . S
S422 N423 1.613 . S
S422 N424 1.610 . S
N423 S422 1.613 . S
N423 C426 1.350 . S
N424 S422 1.610 . S
N424 C425 1.351 . S
C425 C419 1.428 . S
C425 N424 1.351 . S
C425 C426 1.434 . S
C426 C417 1.429 . S
C426 N423 1.350 . S
C426 C425 1.434 . S
C427 C428 1.369 . S
C427 C429 1.419 1_565 S
C427 H431 0.930 . S
C428 C427 1.369 . S
C428 C437 1.429 . S
C429 C427 1.419 1_545 S
C429 C430 1.363 . S
C429 H432 0.929 . S
C430 C429 1.363 . S
C430 C436 1.428 . S
H431 C427 0.930 . S
H432 C429 0.929 . S
S433 N434 1.613 . S
S433 N435 1.610 1_565 S
N434 S433 1.613 . S
N434 C437 1.350 . S
N435 S433 1.610 1_545 S
N435 C436 1.351 . S
C436 C430 1.428 . S
C436 N435 1.351 . S
C436 C437 1.434 1_545 S
C437 C428 1.429 . S
C437 N434 1.350 . S
C437 C436 1.434 1_565 S
C438 C439 1.369 . S
C438 C440 1.419 . S
C438 H442 0.930 . S
C439 C438 1.369 . S
C439 C448 1.429 . S
C440 C438 1.419 . S
C440 C441 1.363 . S
C440 H443 0.929 . S
C441 C440 1.363 . S
C441 C447 1.428 . S
H442 C438 0.930 . S
H443 C440 0.929 . S
S444 N445 1.613 . S
S444 N446 1.610 . S
N445 S444 1.613 . S
N445 C448 1.350 . S
N446 S444 1.610 . S
N446 C447 1.351 . S
C447 C441 1.428 . S
C447 N446 1.351 . S
C447 C448 1.434 . S
C448 C439 1.429 . S
C448 N445 1.350 . S
C448 C447 1.434 . S
C449 C450 1.369 . S
C449 C451 1.419 1_545 S
C449 H453 0.930 . S
C450 C449 1.369 . S
C450 C459 1.429 1_556 S
C451 C449 1.419 1_565 S
C451 C452 1.363 1_556 S
C451 H454 0.929 . S
C452 C451 1.363 1_554 S
C452 C458 1.428 . S
H453 C449 0.930 . S
H454 C451 0.929 . S
S455 N456 1.613 . S
S455 N457 1.610 1_545 S
N456 S455 1.613 . S
N456 C459 1.350 . S
N457 S455 1.610 1_565 S
N457 C458 1.351 . S
C458 C452 1.428 . S
C458 N457 1.351 . S
C458 C459 1.434 1_565 S
C459 C450 1.429 1_554 S
C459 N456 1.350 . S
C459 C458 1.434 1_545 S
C460 C461 1.369 . S
C460 C462 1.419 . S
C460 H464 0.930 . S
C461 C460 1.369 . S
C461 C470 1.429 . S
C462 C460 1.419 . S
C462 C463 1.363 . S
C462 H465 0.929 . S
C463 C462 1.363 . S
C463 C469 1.428 . S
H464 C460 0.930 . S
H465 C462 0.929 . S
S466 N467 1.613 . S
S466 N468 1.610 . S
N467 S466 1.613 . S
N467 C470 1.350 . S
N468 S466 1.610 . S
N468 C469 1.351 . S
C469 C463 1.428 . S
C469 N468 1.351 . S
C469 C470 1.434 . S
C470 C461 1.429 . S
C470 N467 1.350 . S
C470 C469 1.434 . S
C471 C472 1.369 . S
C471 C473 1.419 1_565 S
C471 H475 0.930 . S
C472 C471 1.369 . S
C472 C481 1.429 . S
C473 C471 1.419 1_545 S
C473 C474 1.363 . S
C473 H476 0.929 . S
C474 C473 1.363 . S
C474 C480 1.428 . S
H475 C471 0.930 . S
H476 C473 0.929 . S
S477 N478 1.613 . S
S477 N479 1.610 1_565 S
N478 S477 1.613 . S
N478 C481 1.350 . S
N479 S477 1.610 1_545 S
N479 C480 1.351 . S
C480 C474 1.428 . S
C480 N479 1.351 . S
C480 C481 1.434 1_545 S
C481 C472 1.429 . S
C481 N478 1.350 . S
C481 C480 1.434 1_565 S
C482 C483 1.369 . S
C482 C484 1.419 . S
C482 H486 0.930 . S
C483 C482 1.369 . S
C483 C492 1.429 . S
C484 C482 1.419 . S
C484 C485 1.363 . S
C484 H487 0.929 . S
C485 C484 1.363 . S
C485 C491 1.428 . S
H486 C482 0.930 . S
H487 C484 0.929 . S
S488 N489 1.613 . S
S488 N490 1.610 . S
N489 S488 1.613 . S
N489 C492 1.350 . S
N490 S488 1.610 . S
N490 C491 1.351 . S
C491 C485 1.428 . S
C491 N490 1.351 . S
C491 C492 1.434 . S
C492 C483 1.429 . S
C492 N489 1.350 . S
C492 C491 1.434 . S
C493 C494 1.369 . S
C493 C495 1.419 1_545 S
C493 H497 0.930 . S
C494 C493 1.369 . S
C494 C503 1.429 1_556 S
C495 C493 1.419 1_565 S
C495 C496 1.363 1_556 S
C495 H498 0.929 . S
C496 C495 1.363 1_554 S
C496 C502 1.428 . S
H497 C493 0.930 . S
H498 C495 0.929 . S
S499 N500 1.613 . S
S499 N501 1.610 1_545 S
N500 S499 1.613 . S
N500 C503 1.350 . S
N501 S499 1.610 1_565 S
N501 C502 1.351 . S
C502 C496 1.428 . S
C502 N501 1.351 . S
C502 C503 1.434 1_565 S
C503 C494 1.429 1_554 S
C503 N500 1.350 . S
C503 C502 1.434 1_545 S
C504 C505 1.369 . S
C504 C506 1.419 . S
C504 H508 0.930 . S
C505 C504 1.369 . S
C505 C514 1.429 . S
C506 C504 1.419 . S
C506 C507 1.363 . S
C506 H509 0.929 . S
C507 C506 1.363 . S
C507 C513 1.428 . S
H508 C504 0.930 . S
H509 C506 0.929 . S
S510 N511 1.613 . S
S510 N512 1.610 . S
N511 S510 1.613 . S
N511 C514 1.350 . S
N512 S510 1.610 . S
N512 C513 1.351 . S
C513 C507 1.428 . S
C513 N512 1.351 . S
C513 C514 1.434 . S
C514 C505 1.429 . S
C514 N511 1.350 . S
C514 C513 1.434 . S
C515 C516 1.369 . S
C515 C517 1.419 . S
C515 H519 0.930 . S
C516 C515 1.369 . S
C516 C525 1.429 1_556 S
C517 C515 1.419 . S
C517 C518 1.363 1_556 S
C517 H520 0.929 . S
C518 C517 1.363 1_554 S
C518 C524 1.428 . S
H519 C515 0.930 . S
H520 C517 0.929 . S
S521 N522 1.613 . S
S521 N523 1.610 . S
N522 S521 1.613 . S
N522 C525 1.350 . S
N523 S521 1.610 . S
N523 C524 1.351 . S
C524 C518 1.428 . S
C524 N523 1.351 . S
C524 C525 1.434 . S
C525 C516 1.429 1_554 S
C525 N522 1.350 . S
C525 C524 1.434 . S
C526 C527 1.369 . S
C526 C528 1.419 . S
C526 H530 0.930 . S
C527 C526 1.369 . S
C527 C536 1.429 . S
C528 C526 1.419 . S
C528 C529 1.363 . S
C528 H531 0.929 . S
C529 C528 1.363 . S
C529 C535 1.428 . S
H530 C526 0.930 . S
H531 C528 0.929 . S
S532 N533 1.613 . S
S532 N534 1.610 . S
N533 S532 1.613 . S
N533 C536 1.350 . S
N534 S532 1.610 . S
N534 C535 1.351 . S
C535 C529 1.428 . S
C535 N534 1.351 . S
C535 C536 1.434 . S
C536 C527 1.429 . S
C536 N533 1.350 . S
C536 C535 1.434 . S
C537 C538 1.369 . S
C537 C539 1.419 . S
C537 H541 0.930 . S
C538 C537 1.369 . S
C538 C547 1.429 . S
C539 C537 1.419 . S
C539 C540 1.363 . S
C539 H542 0.929 . S
C540 C539 1.363 . S
C540 C546 1.428 . S
H541 C537 0.930 . S
H542 C539 0.929 . S
S543 N544 1.613 . S
S543 N545 1.610 . S
N544 S543 1.613 . S
N544 C547 1.350 . S
N545 S543 1.610 . S
N545 C546 1.351 . S
C546 C540 1.428 . S
C546 N545 1.351 . S
C546 C547 1.434 . S
C547 C538 1.429 . S
C547 N544 1.350 . S
C547 C546 1.434 . S
C548 C549 1.369 . S
C548 C550 1.419 . S
C548 H552 0.930 . S
C549 C548 1.369 . S
C549 C558 1.429 . S
C550 C548 1.419 . S
C550 C551 1.363 . S
C550 H553 0.929 . S
C551 C550 1.363 . S
C551 C557 1.428 . S
H552 C548 0.930 . S
H553 C550 0.929 . S
S554 N555 1.613 . S
S554 N556 1.610 . S
N555 S554 1.613 . S
N555 C558 1.350 . S
N556 S554 1.610 . S
N556 C557 1.351 . S
C557 C551 1.428 . S
C557 N556 1.351 . S
C557 C558 1.434 . S
C558 C549 1.429 . S
C558 N555 1.350 . S
C558 C557 1.434 . S
C559 C560 1.369 1_556 S
C559 C561 1.419 . S
C559 H563 0.930 . S
C560 C559 1.369 1_554 S
C560 C569 1.429 . S
C561 C559 1.419 . S
C561 C562 1.363 . S
C561 H564 0.929 . S
C562 C561 1.363 . S
C562 C568 1.428 1_556 S
H563 C559 0.930 . S
H564 C561 0.929 . S
S565 N566 1.613 . S
S565 N567 1.610 . S
N566 S565 1.613 . S
N566 C569 1.350 . S
N567 S565 1.610 . S
N567 C568 1.351 . S
C568 C562 1.428 1_554 S
C568 N567 1.351 . S
C568 C569 1.434 . S
C569 C560 1.429 . S
C569 N566 1.350 . S
C569 C568 1.434 . S
C570 C571 1.369 . S
C570 C572 1.419 . S
C570 H574 0.930 . S
C571 C570 1.369 . S
C571 C580 1.429 . S
C572 C570 1.419 . S
C572 C573 1.363 . S
C572 H575 0.929 . S
C573 C572 1.363 . S
C573 C579 1.428 . S
H574 C570 0.930 . S
H575 C572 0.929 . S
S576 N577 1.613 . S
S576 N578 1.610 . S
N577 S576 1.613 . S
N577 C580 1.350 . S
N578 S576 1.610 . S
N578 C579 1.351 . S
C579 C573 1.428 . S
C579 N578 1.351 . S
C579 C580 1.434 . S
C580 C571 1.429 . S
C580 N577 1.350 . S
C580 C579 1.434 . S
C581 C582 1.369 . S
C581 C583 1.419 . S
C581 H585 0.930 . S
C582 C581 1.369 . S
C582 C591 1.429 . S
C583 C581 1.419 . S
C583 C584 1.363 . S
C583 H586 0.929 . S
C584 C583 1.363 . S
C584 C590 1.428 . S
H585 C581 0.930 . S
H586 C583 0.929 . S
S587 N588 1.613 . S
S587 N589 1.610 . S
N588 S587 1.613 . S
N588 C591 1.350 . S
N589 S587 1.610 . S
N589 C590 1.351 . S
C590 C584 1.428 . S
C590 N589 1.351 . S
C590 C591 1.434 . S
C591 C582 1.429 . S
C591 N588 1.350 . S
C591 C590 1.434 . S
C592 C593 1.369 . S
C592 C594 1.419 . S
C592 H596 0.930 1_556 S
C593 C592 1.369 . S
C593 C602 1.429 . S
C594 C592 1.419 . S
C594 C595 1.363 . S
C594 H597 0.929 . S
C595 C594 1.363 . S
C595 C601 1.428 . S
H596 C592 0.930 1_554 S
H597 C594 0.929 . S
S598 N599 1.613 . S
S598 N600 1.610 . S
N599 S598 1.613 . S
N599 C602 1.350 . S
N600 S598 1.610 . S
N600 C601 1.351 . S
C601 C595 1.428 . S
C601 N600 1.351 . S
C601 C602 1.434 . S
C602 C593 1.429 . S
C602 N599 1.350 . S
C602 C601 1.434 . S
C603 C604 1.369 . S
C603 C605 1.419 . S
C603 H607 0.930 . S
C604 C603 1.369 . S
C604 C613 1.429 . S
C605 C603 1.419 . S
C605 C606 1.363 . S
C605 H608 0.929 . S
C606 C605 1.363 . S
C606 C612 1.428 . S
H607 C603 0.930 . S
H608 C605 0.929 . S
S609 N610 1.613 . S
S609 N611 1.610 1_556 S
N610 S609 1.613 . S
N610 C613 1.350 1_556 S
N611 S609 1.610 1_554 S
N611 C612 1.351 . S
C612 C606 1.428 . S
C612 N611 1.351 . S
C612 C613 1.434 . S
C613 C604 1.429 . S
C613 N610 1.350 1_554 S
C613 C612 1.434 . S
C614 C615 1.369 . S
C614 C616 1.419 . S
C614 H618 0.930 . S
C615 C614 1.369 . S
C615 C624 1.429 . S
C616 C614 1.419 . S
C616 C617 1.363 . S
C616 H619 0.929 . S
C617 C616 1.363 . S
C617 C623 1.428 . S
H618 C614 0.930 . S
H619 C616 0.929 . S
S620 N621 1.613 . S
S620 N622 1.610 . S
N621 S620 1.613 . S
N621 C624 1.350 . S
N622 S620 1.610 . S
N622 C623 1.351 . S
C623 C617 1.428 . S
C623 N622 1.351 . S
C623 C624 1.434 . S
C624 C615 1.429 . S
C624 N621 1.350 . S
C624 C623 1.434 . S
C625 C626 1.369 . S
C625 C627 1.419 . S
C625 H629 0.930 . S
C626 C625 1.369 . S
C626 C635 1.429 . S
C627 C625 1.419 . S
C627 C628 1.363 . S
C627 H630 0.929 . S
C628 C627 1.363 . S
C628 C634 1.428 . S
H629 C625 0.930 . S
H630 C627 0.929 . S
S631 N632 1.613 . S
S631 N633 1.610 . S
N632 S631 1.613 . S
N632 C635 1.350 . S
N633 S631 1.610 . S
N633 C634 1.351 . S
C634 C628 1.428 . S
C634 N633 1.351 . S
C634 C635 1.434 . S
C635 C626 1.429 . S
C635 N632 1.350 . S
C635 C634 1.434 . S
C636 C637 1.369 . S
C636 C638 1.419 . S
C636 H640 0.930 . S
C637 C636 1.369 . S
C637 C646 1.429 . S
C638 C636 1.419 . S
C638 C639 1.363 . S
C638 H641 0.929 . S
C639 C638 1.363 . S
C639 C645 1.428 . S
H640 C636 0.930 . S
H641 C638 0.929 . S
S642 N643 1.613 . S
S642 N644 1.610 1_556 S
N643 S642 1.613 . S
N643 C646 1.350 1_556 S
N644 S642 1.610 1_554 S
N644 C645 1.351 . S
C645 C639 1.428 . S
C645 N644 1.351 . S
C645 C646 1.434 . S
C646 C637 1.429 . S
C646 N643 1.350 1_554 S
C646 C645 1.434 . S
C647 C648 1.369 . S
C647 C649 1.419 . S
C647 H651 0.930 . S
C648 C647 1.369 . S
C648 C657 1.429 . S
C649 C647 1.419 . S
C649 C650 1.363 . S
C649 H652 0.929 . S
C650 C649 1.363 . S
C650 C656 1.428 . S
H651 C647 0.930 . S
H652 C649 0.929 . S
S653 N654 1.613 . S
S653 N655 1.610 . S
N654 S653 1.613 . S
N654 C657 1.350 . S
N655 S653 1.610 . S
N655 C656 1.351 . S
C656 C650 1.428 . S
C656 N655 1.351 . S
C656 C657 1.434 . S
C657 C648 1.429 . S
C657 N654 1.350 . S
C657 C656 1.434 . S
C658 C659 1.369 . S
C658 C660 1.419 . S
C658 H662 0.930 . S
C659 C658 1.369 . S
C659 C668 1.429 . S
C660 C658 1.419 . S
C660 C661 1.363 . S
C660 H663 0.929 . S
C661 C660 1.363 . S
C661 C667 1.428 . S
H662 C658 0.930 . S
H663 C660 0.929 . S
S664 N665 1.613 . S
S664 N666 1.610 . S
N665 S664 1.613 . S
N665 C668 1.350 . S
N666 S664 1.610 . S
N666 C667 1.351 . S
C667 C661 1.428 . S
C667 N666 1.351 . S
C667 C668 1.434 . S
C668 C659 1.429 . S
C668 N665 1.350 . S
C668 C667 1.434 . S
C669 C670 1.369 . S
C669 C671 1.419 . S
C669 H673 0.930 . S
C670 C669 1.369 . S
C670 C679 1.429 . S
C671 C669 1.419 . S
C671 C672 1.363 . S
C671 H674 0.929 . S
C672 C671 1.363 . S
C672 C678 1.428 . S
H673 C669 0.930 . S
H674 C671 0.929 . S
S675 N676 1.613 . S
S675 N677 1.610 . S
N676 S675 1.613 . S
N676 C679 1.350 . S
N677 S675 1.610 . S
N677 C678 1.351 . S
C678 C672 1.428 . S
C678 N677 1.351 . S
C678 C679 1.434 . S
C679 C670 1.429 . S
C679 N676 1.350 . S
C679 C678 1.434 . S
C680 C681 1.369 . S
C680 C682 1.419 . S
C680 H684 0.930 . S
C681 C680 1.369 . S
C681 C690 1.429 . S
C682 C680 1.419 . S
C682 C683 1.363 . S
C682 H685 0.929 . S
C683 C682 1.363 . S
C683 C689 1.428 . S
H684 C680 0.930 . S
H685 C682 0.929 . S
S686 N687 1.613 . S
S686 N688 1.610 . S
N687 S686 1.613 . S
N687 C690 1.350 . S
N688 S686 1.610 . S
N688 C689 1.351 . S
C689 C683 1.428 . S
C689 N688 1.351 . S
C689 C690 1.434 . S
C690 C681 1.429 . S
C690 N687 1.350 . S
C690 C689 1.434 . S
C691 C692 1.369 . S
C691 C693 1.419 . S
C691 H695 0.930 . S
C692 C691 1.369 . S
C692 C701 1.429 . S
C693 C691 1.419 . S
C693 C694 1.363 . S
C693 H696 0.929 . S
C694 C693 1.363 . S
C694 C700 1.428 . S
H695 C691 0.930 . S
H696 C693 0.929 . S
S697 N698 1.613 . S
S697 N699 1.610 . S
N698 S697 1.613 . S
N698 C701 1.350 . S
N699 S697 1.610 . S
N699 C700 1.351 . S
C700 C694 1.428 . S
C700 N699 1.351 . S
C700 C701 1.434 . S
C701 C692 1.429 . S
C701 N698 1.350 . S
C701 C700 1.434 . S
C702 C703 1.369 . S
C702 C704 1.419 . S
C702 H706 0.930 . S
C703 C702 1.369 . S
C703 C712 1.429 . S
C704 C702 1.419 . S
C704 C705 1.363 . S
C704 H707 0.929 . S
C705 C704 1.363 . S
C705 C711 1.428 . S
H706 C702 0.930 . S
H707 C704 0.929 . S
S708 N709 1.613 . S
S708 N710 1.610 . S
N709 S708 1.613 . S
N709 C712 1.350 . S
N710 S708 1.610 . S
N710 C711 1.351 . S
C711 C705 1.428 . S
C711 N710 1.351 . S
C711 C712 1.434 . S
C712 C703 1.429 . S
C712 N709 1.350 . S
C712 C711 1.434 . S
C713 C714 1.369 . S
C713 C715 1.419 . S
C713 H717 0.930 . S
C714 C713 1.369 . S
C714 C723 1.429 . S
C715 C713 1.419 . S
C715 C716 1.363 . S
C715 H718 0.929 . S
C716 C715 1.363 . S
C716 C722 1.428 . S
H717 C713 0.930 . S
H718 C715 0.929 . S
S719 N720 1.613 . S
S719 N721 1.610 . S
N720 S719 1.613 . S
N720 C723 1.350 . S
N721 S719 1.610 . S
N721 C722 1.351 . S
C722 C716 1.428 . S
C722 N721 1.351 . S
C722 C723 1.434 . S
C723 C714 1.429 . S
C723 N720 1.350 . S
C723 C722 1.434 . S
C724 C725 1.369 . S
C724 C726 1.419 . S
C724 H728 0.930 . S
C725 C724 1.369 . S
C725 C734 1.429 . S
C726 C724 1.419 . S
C726 C727 1.363 . S
C726 H729 0.929 . S
C727 C726 1.363 . S
C727 C733 1.428 . S
H728 C724 0.930 . S
H729 C726 0.929 . S
S730 N731 1.613 . S
S730 N732 1.610 . S
N731 S730 1.613 . S
N731 C734 1.350 . S
N732 S730 1.610 . S
N732 C733 1.351 . S
C733 C727 1.428 . S
C733 N732 1.351 . S
C733 C734 1.434 . S
C734 C725 1.429 . S
C734 N731 1.350 . S
C734 C733 1.434 . S
C735 C736 1.369 . S
C735 C737 1.419 . S
C735 H739 0.930 . S
C736 C735 1.369 . S
C736 C745 1.429 . S
C737 C735 1.419 . S
C737 C738 1.363 . S
C737 H740 0.929 . S
C738 C737 1.363 . S
C738 C744 1.428 . S
H739 C735 0.930 . S
H740 C737 0.929 . S
S741 N742 1.613 . S
S741 N743 1.610 . S
N742 S741 1.613 . S
N742 C745 1.350 . S
N743 S741 1.610 . S
N743 C744 1.351 . S
C744 C738 1.428 . S
C744 N743 1.351 . S
C744 C745 1.434 . S
C745 C736 1.429 . S
C745 N742 1.350 . S
C745 C744 1.434 . S
C746 C747 1.369 . S
C746 C748 1.419 . S
C746 H750 0.930 . S
C747 C746 1.369 . S
C747 C756 1.429 . S
C748 C746 1.419 . S
C748 C749 1.363 . S
C748 H751 0.929 . S
C749 C748 1.363 . S
C749 C755 1.428 . S
H750 C746 0.930 . S
H751 C748 0.929 . S
S752 N753 1.613 . S
S752 N754 1.610 1_556 S
N753 S752 1.613 . S
N753 C756 1.350 1_556 S
N754 S752 1.610 1_554 S
N754 C755 1.351 . S
C755 C749 1.428 . S
C755 N754 1.351 . S
C755 C756 1.434 . S
C756 C747 1.429 . S
C756 N753 1.350 1_554 S
C756 C755 1.434 . S
C757 C758 1.369 . S
C757 C759 1.419 . S
C757 H761 0.930 . S
C758 C757 1.369 . S
C758 C767 1.429 . S
C759 C757 1.419 . S
C759 C760 1.363 . S
C759 H762 0.929 . S
C760 C759 1.363 . S
C760 C766 1.428 . S
H761 C757 0.930 . S
H762 C759 0.929 . S
S763 N764 1.613 . S
S763 N765 1.610 . S
N764 S763 1.613 . S
N764 C767 1.350 . S
N765 S763 1.610 . S
N765 C766 1.351 . S
C766 C760 1.428 . S
C766 N765 1.351 . S
C766 C767 1.434 . S
C767 C758 1.429 . S
C767 N764 1.350 . S
C767 C766 1.434 . S
C768 C769 1.369 . S
C768 C770 1.419 . S
C768 H772 0.930 . S
C769 C768 1.369 . S
C769 C778 1.429 . S
C770 C768 1.419 . S
C770 C771 1.363 . S
C770 H773 0.929 . S
C771 C770 1.363 . S
C771 C777 1.428 . S
H772 C768 0.930 . S
H773 C770 0.929 . S
S774 N775 1.613 1_556 S
S774 N776 1.610 1_556 S
N775 S774 1.613 1_554 S
N775 C778 1.350 . S
N776 S774 1.610 1_554 S
N776 C777 1.351 . S
C777 C771 1.428 . S
C777 N776 1.351 . S
C777 C778 1.434 . S
C778 C769 1.429 . S
C778 N775 1.350 . S
C778 C777 1.434 . S
C779 C780 1.369 . S
C779 C781 1.419 1_655 S
C779 H783 0.930 . S
C780 C779 1.369 . S
C780 C789 1.429 . S
C781 C779 1.419 1_455 S
C781 C782 1.363 . S
C781 H784 0.929 . S
C782 C781 1.363 . S
C782 C788 1.428 . S
H783 C779 0.930 . S
H784 C781 0.929 . S
S785 N786 1.618 1_455 S
S785 N787 1.606 . S
N786 S785 1.618 1_655 S
N786 C789 1.350 . S
N787 S785 1.606 . S
N787 C788 1.351 . S
C788 C782 1.428 . S
C788 N787 1.351 . S
C788 C789 1.434 1_455 S
C789 C780 1.429 . S
C789 N786 1.350 . S
C789 C788 1.434 1_655 S
C790 C791 1.369 . S
C790 C792 1.419 . S
C790 H794 0.930 . S
C791 C790 1.369 . S
C791 C800 1.429 . S
C792 C790 1.419 . S
C792 C793 1.363 . S
C792 H795 0.929 . S
C793 C792 1.363 . S
C793 C799 1.428 . S
H794 C790 0.930 . S
H795 C792 0.929 . S
S796 N797 1.613 . S
S796 N798 1.610 . S
N797 S796 1.613 . S
N797 C800 1.350 . S
N798 S796 1.610 . S
N798 C799 1.351 . S
C799 C793 1.428 . S
C799 N798 1.351 . S
C799 C800 1.434 . S
C800 C791 1.429 . S
C800 N797 1.350 . S
C800 C799 1.434 . S
C801 C802 1.369 . S
C801 C803 1.419 . S
C801 H805 0.930 . S
C802 C801 1.369 . S
C802 C811 1.429 . S
C803 C801 1.419 . S
C803 C804 1.363 . S
C803 H806 0.929 . S
C804 C803 1.363 . S
C804 C810 1.428 . S
H805 C801 0.930 . S
H806 C803 0.929 . S
S807 N808 1.613 1_554 S
S807 N809 1.610 1_554 S
N808 S807 1.613 1_556 S
N808 C811 1.350 . S
N809 S807 1.610 1_556 S
N809 C810 1.351 . S
C810 C804 1.428 . S
C810 N809 1.351 . S
C810 C811 1.434 . S
C811 C802 1.429 . S
C811 N808 1.350 . S
C811 C810 1.434 . S
C812 C813 1.369 . S
C812 C814 1.419 . S
C812 H816 0.930 1_556 S
C813 C812 1.369 . S
C813 C822 1.429 . S
C814 C812 1.419 . S
C814 C815 1.363 . S
C814 H817 0.929 1_556 S
C815 C814 1.363 . S
C815 C821 1.428 . S
H816 C812 0.930 1_554 S
H817 C814 0.929 1_554 S
S818 N819 1.613 . S
S818 N820 1.610 . S
N819 S818 1.613 . S
N819 C822 1.350 . S
N820 S818 1.610 . S
N820 C821 1.351 . S
C821 C815 1.428 . S
C821 N820 1.351 . S
C821 C822 1.434 . S
C822 C813 1.429 . S
C822 N819 1.350 . S
C822 C821 1.434 . S
C823 C824 1.369 . S
C823 C825 1.419 . S
C823 H827 0.930 . S
C824 C823 1.369 . S
C824 C833 1.429 . S
C825 C823 1.419 . S
C825 C826 1.363 . S
C825 H828 0.929 . S
C826 C825 1.363 . S
C826 C832 1.428 . S
H827 C823 0.930 . S
H828 C825 0.929 . S
S829 N830 1.613 . S
S829 N831 1.610 . S
N830 S829 1.613 . S
N830 C833 1.350 . S
N831 S829 1.610 . S
N831 C832 1.351 . S
C832 C826 1.428 . S
C832 N831 1.351 . S
C832 C833 1.434 . S
C833 C824 1.429 . S
C833 N830 1.350 . S
C833 C832 1.434 . S
C834 C835 1.369 . S
C834 C836 1.419 . S
C834 H838 0.930 . S
C835 C834 1.369 . S
C835 C844 1.429 . S
C836 C834 1.419 . S
C836 C837 1.363 . S
C836 H839 0.929 . S
C837 C836 1.363 . S
C837 C843 1.428 . S
H838 C834 0.930 . S
H839 C836 0.929 . S
S840 N841 1.613 . S
S840 N842 1.610 . S
N841 S840 1.613 . S
N841 C844 1.350 . S
N842 S840 1.610 . S
N842 C843 1.351 . S
C843 C837 1.428 . S
C843 N842 1.351 . S
C843 C844 1.434 . S
C844 C835 1.429 . S
C844 N841 1.350 . S
C844 C843 1.434 . S
C845 C846 1.369 . S
C845 C847 1.419 1_655 S
C845 H849 0.930 . S
C846 C845 1.369 . S
C846 C855 1.429 . S
C847 C845 1.419 1_455 S
C847 C848 1.363 . S
C847 H850 0.929 . S
C848 C847 1.363 . S
C848 C854 1.428 . S
H849 C845 0.930 . S
H850 C847 0.929 . S
S851 N852 1.618 1_455 S
S851 N853 1.606 . S
N852 S851 1.618 1_655 S
N852 C855 1.350 . S
N853 S851 1.606 . S
N853 C854 1.351 . S
C854 C848 1.428 . S
C854 N853 1.351 . S
C854 C855 1.434 1_455 S
C855 C846 1.429 . S
C855 N852 1.350 . S
C855 C854 1.434 1_655 S
C856 C857 1.369 . S
C856 C858 1.419 . S
C856 H860 0.930 . S
C857 C856 1.369 . S
C857 C866 1.429 . S
C858 C856 1.419 . S
C858 C859 1.363 . S
C858 H861 0.929 . S
C859 C858 1.363 . S
C859 C865 1.428 . S
H860 C856 0.930 . S
H861 C858 0.929 . S
S862 N863 1.613 . S
S862 N864 1.610 . S
N863 S862 1.613 . S
N863 C866 1.350 . S
N864 S862 1.610 . S
N864 C865 1.351 . S
C865 C859 1.428 . S
C865 N864 1.351 . S
C865 C866 1.434 . S
C866 C857 1.429 . S
C866 N863 1.350 . S
C866 C865 1.434 . S
C867 C868 1.369 . S
C867 C869 1.419 . S
C867 H871 0.930 . S
C868 C867 1.369 . S
C868 C877 1.429 . S
C869 C867 1.419 . S
C869 C870 1.363 . S
C869 H872 0.929 . S
C870 C869 1.363 . S
C870 C876 1.428 . S
H871 C867 0.930 . S
H872 C869 0.929 . S
S873 N874 1.613 . S
S873 N875 1.610 . S
N874 S873 1.613 . S
N874 C877 1.350 . S
N875 S873 1.610 . S
N875 C876 1.351 . S
C876 C870 1.428 . S
C876 N875 1.351 . S
C876 C877 1.434 . S
C877 C868 1.429 . S
C877 N874 1.350 . S
C877 C876 1.434 . S
C878 C879 1.369 . S
C878 C880 1.419 . S
C878 H882 0.930 . S
C879 C878 1.369 . S
C879 C888 1.429 . S
C880 C878 1.419 . S
C880 C881 1.363 . S
C880 H883 0.929 . S
C881 C880 1.363 . S
C881 C887 1.428 . S
H882 C878 0.930 . S
H883 C880 0.929 . S
S884 N885 1.613 . S
S884 N886 1.610 . S
N885 S884 1.613 . S
N885 C888 1.350 . S
N886 S884 1.610 . S
N886 C887 1.351 . S
C887 C881 1.428 . S
C887 N886 1.351 . S
C887 C888 1.434 . S
C888 C879 1.429 . S
C888 N885 1.350 . S
C888 C887 1.434 . S
C889 C890 1.369 . S
C889 C891 1.419 . S
C889 H893 0.930 . S
C890 C889 1.369 . S
C890 C899 1.429 . S
C891 C889 1.419 . S
C891 C892 1.363 . S
C891 H894 0.929 . S
C892 C891 1.363 . S
C892 C898 1.428 . S
H893 C889 0.930 . S
H894 C891 0.929 . S
S895 N896 1.613 . S
S895 N897 1.610 . S
N896 S895 1.613 . S
N896 C899 1.350 . S
N897 S895 1.610 . S
N897 C898 1.351 . S
C898 C892 1.428 . S
C898 N897 1.351 . S
C898 C899 1.434 . S
C899 C890 1.429 . S
C899 N896 1.350 . S
C899 C898 1.434 . S
C900 C901 1.369 . S
C900 C902 1.419 . S
C900 H904 0.930 . S
C901 C900 1.369 . S
C901 C910 1.429 . S
C902 C900 1.419 . S
C902 C903 1.363 . S
C902 H905 0.929 . S
C903 C902 1.363 . S
C903 C909 1.428 . S
H904 C900 0.930 . S
H905 C902 0.929 . S
S906 N907 1.613 . S
S906 N908 1.610 . S
N907 S906 1.613 . S
N907 C910 1.350 . S
N908 S906 1.610 . S
N908 C909 1.351 . S
C909 C903 1.428 . S
C909 N908 1.351 . S
C909 C910 1.434 . S
C910 C901 1.429 . S
C910 N907 1.350 . S
C910 C909 1.434 . S
C911 C912 1.369 . S
C911 C913 1.419 1_655 S
C911 H915 0.930 . S
C912 C911 1.369 . S
C912 C921 1.429 . S
C913 C911 1.419 1_455 S
C913 C914 1.363 . S
C913 H916 0.929 . S
C914 C913 1.363 . S
C914 C920 1.428 . S
H915 C911 0.930 . S
H916 C913 0.929 . S
S917 N918 1.618 1_455 S
S917 N919 1.606 . S
N918 S917 1.618 1_655 S
N918 C921 1.350 . S
N919 S917 1.606 . S
N919 C920 1.351 . S
C920 C914 1.428 . S
C920 N919 1.351 . S
C920 C921 1.434 1_455 S
C921 C912 1.429 . S
C921 N918 1.350 . S
C921 C920 1.434 1_655 S
C922 C923 1.369 . S
C922 C924 1.419 1_655 S
C922 H926 0.930 . S
C923 C922 1.369 . S
C923 C932 1.429 . S
C924 C922 1.419 1_455 S
C924 C925 1.363 . S
C924 H927 0.929 . S
C925 C924 1.363 . S
C925 C931 1.428 . S
H926 C922 0.930 . S
H927 C924 0.929 . S
S928 N929 1.618 1_455 S
S928 N930 1.606 . S
N929 S928 1.618 1_655 S
N929 C932 1.350 . S
N930 S928 1.606 . S
N930 C931 1.351 . S
C931 C925 1.428 . S
C931 N930 1.351 . S
C931 C932 1.434 1_455 S
C932 C923 1.429 . S
C932 N929 1.350 . S
C932 C931 1.434 1_655 S
C933 C934 1.369 . S
C933 C935 1.419 . S
C933 H937 0.930 . S
C934 C933 1.369 . S
C934 C943 1.429 . S
C935 C933 1.419 . S
C935 C936 1.363 . S
C935 H938 0.929 . S
C936 C935 1.363 . S
C936 C942 1.428 . S
H937 C933 0.930 . S
H938 C935 0.929 . S
S939 N940 1.613 . S
S939 N941 1.610 . S
N940 S939 1.613 . S
N940 C943 1.350 . S
N941 S939 1.610 . S
N941 C942 1.351 . S
C942 C936 1.428 . S
C942 N941 1.351 . S
C942 C943 1.434 . S
C943 C934 1.429 . S
C943 N940 1.350 . S
C943 C942 1.434 . S
C944 C945 1.369 . S
C944 C946 1.419 . S
C944 H948 0.930 . S
C945 C944 1.369 . S
C945 C954 1.429 . S
C946 C944 1.419 . S
C946 C947 1.363 . S
C946 H949 0.929 . S
C947 C946 1.363 . S
C947 C953 1.428 . S
H948 C944 0.930 . S
H949 C946 0.929 . S
S950 N951 1.613 . S
S950 N952 1.610 . S
N951 S950 1.613 . S
N951 C954 1.350 . S
N952 S950 1.610 . S
N952 C953 1.351 . S
C953 C947 1.428 . S
C953 N952 1.351 . S
C953 C954 1.434 . S
C954 C945 1.429 . S
C954 N951 1.350 . S
C954 C953 1.434 . S
C955 C956 1.369 . S
C955 C957 1.419 . S
C955 H959 0.930 . S
C956 C955 1.369 . S
C956 C965 1.429 . S
C957 C955 1.419 . S
C957 C958 1.363 . S
C957 H960 0.929 . S
C958 C957 1.363 . S
C958 C964 1.428 . S
H959 C955 0.930 . S
H960 C957 0.929 . S
S961 N962 1.613 . S
S961 N963 1.610 . S
N962 S961 1.613 . S
N962 C965 1.350 . S
N963 S961 1.610 . S
N963 C964 1.351 . S
C964 C958 1.428 . S
C964 N963 1.351 . S
C964 C965 1.434 . S
C965 C956 1.429 . S
C965 N962 1.350 . S
C965 C964 1.434 . S
C966 C967 1.369 . S
C966 C968 1.419 . S
C966 H970 0.930 . S
C967 C966 1.369 . S
C967 C976 1.429 . S
C968 C966 1.419 . S
C968 C969 1.363 . S
C968 H971 0.929 . S
C969 C968 1.363 . S
C969 C975 1.428 . S
H970 C966 0.930 . S
H971 C968 0.929 . S
S972 N973 1.613 . S
S972 N974 1.610 1_554 S
N973 S972 1.613 . S
N973 C976 1.350 1_554 S
N974 S972 1.610 1_556 S
N974 C975 1.351 . S
C975 C969 1.428 . S
C975 N974 1.351 . S
C975 C976 1.434 . S
C976 C967 1.429 . S
C976 N973 1.350 1_556 S
C976 C975 1.434 . S
C977 C978 1.369 . S
C977 C979 1.419 . S
C977 H981 0.930 . S
C978 C977 1.369 . S
C978 C987 1.429 . S
C979 C977 1.419 . S
C979 C980 1.363 . S
C979 H982 0.929 . S
C980 C979 1.363 . S
C980 C986 1.428 . S
H981 C977 0.930 . S
H982 C979 0.929 . S
S983 N984 1.613 . S
S983 N985 1.610 . S
N984 S983 1.613 . S
N984 C987 1.350 . S
N985 S983 1.610 . S
N985 C986 1.351 . S
C986 C980 1.428 . S
C986 N985 1.351 . S
C986 C987 1.434 . S
C987 C978 1.429 . S
C987 N984 1.350 . S
C987 C986 1.434 . S
C988 C989 1.369 . S
C988 C990 1.419 . S
C988 H992 0.930 . S
C989 C988 1.369 . S
C989 C998 1.429 . S
C990 C988 1.419 . S
C990 C991 1.363 . S
C990 H993 0.929 . S
C991 C990 1.363 . S
C991 C997 1.428 . S
H992 C988 0.930 . S
H993 C990 0.929 . S
S994 N995 1.613 . S
S994 N996 1.610 . S
N995 S994 1.613 . S
N995 C998 1.350 . S
N996 S994 1.610 . S
N996 C997 1.351 . S
C997 C991 1.428 . S
C997 N996 1.351 . S
C997 C998 1.434 . S
C998 C989 1.429 . S
C998 N995 1.350 . S
C998 C997 1.434 . S
C999 C1000 1.369 . S
C999 C1001 1.419 . S
C999 H1003 0.930 . S
C1000 C999 1.369 . S
C1000 C1009 1.429 . S
C1001 C999 1.419 . S
C1001 C1002 1.363 . S
C1001 H1004 0.929 . S
C1002 C1001 1.363 . S
C1002 C1008 1.428 . S
H1003 C999 0.930 . S
H1004 C1001 0.929 . S
S1005 N1006 1.613 . S
S1005 N1007 1.610 . S
N1006 S1005 1.613 . S
N1006 C1009 1.350 . S
N1007 S1005 1.610 . S
N1007 C1008 1.351 . S
C1008 C1002 1.428 . S
C1008 N1007 1.351 . S
C1008 C1009 1.434 . S
C1009 C1000 1.429 . S
C1009 N1006 1.350 . S
C1009 C1008 1.434 . S
C1010 C1011 1.369 . S
C1010 C1012 1.419 . S
C1010 H1014 0.930 . S
C1011 C1010 1.369 . S
C1011 C1020 1.429 . S
C1012 C1010 1.419 . S
C1012 C1013 1.363 . S
C1012 H1015 0.929 . S
C1013 C1012 1.363 . S
C1013 C1019 1.428 . S
H1014 C1010 0.930 . S
H1015 C1012 0.929 . S
S1016 N1017 1.613 1_556 S
S1016 N1018 1.610 . S
N1017 S1016 1.613 1_554 S
N1017 C1020 1.350 . S
N1018 S1016 1.610 . S
N1018 C1019 1.351 1_556 S
C1019 C1013 1.428 . S
C1019 N1018 1.351 1_554 S
C1019 C1020 1.434 . S
C1020 C1011 1.429 . S
C1020 N1017 1.350 . S
C1020 C1019 1.434 . S
C1021 C1022 1.369 . S
C1021 C1023 1.419 . S
C1021 H1025 0.930 . S
C1022 C1021 1.369 . S
C1022 C1031 1.429 . S
C1023 C1021 1.419 . S
C1023 C1024 1.363 . S
C1023 H1026 0.929 1_556 S
C1024 C1023 1.363 . S
C1024 C1030 1.428 . S
H1025 C1021 0.930 . S
H1026 C1023 0.929 1_554 S
S1027 N1028 1.613 . S
S1027 N1029 1.610 . S
N1028 S1027 1.613 . S
N1028 C1031 1.350 . S
N1029 S1027 1.610 . S
N1029 C1030 1.351 . S
C1030 C1024 1.428 . S
C1030 N1029 1.351 . S
C1030 C1031 1.434 . S
C1031 C1022 1.429 . S
C1031 N1028 1.350 . S
C1031 C1030 1.434 . S
C1032 C1033 1.369 . S
C1032 C1034 1.419 . S
C1032 H1036 0.930 . S
C1033 C1032 1.369 . S
C1033 C1042 1.429 . S
C1034 C1032 1.419 . S
C1034 C1035 1.363 . S
C1034 H1037 0.929 . S
C1035 C1034 1.363 . S
C1035 C1041 1.428 . S
H1036 C1032 0.930 . S
H1037 C1034 0.929 . S
S1038 N1039 1.613 . S
S1038 N1040 1.610 . S
N1039 S1038 1.613 . S
N1039 C1042 1.350 . S
N1040 S1038 1.610 . S
N1040 C1041 1.351 . S
C1041 C1035 1.428 . S
C1041 N1040 1.351 . S
C1041 C1042 1.434 . S
C1042 C1033 1.429 . S
C1042 N1039 1.350 . S
C1042 C1041 1.434 . S
C1043 C1044 1.369 . S
C1043 C1045 1.419 . S
C1043 H1047 0.930 . S
C1044 C1043 1.369 . S
C1044 C1053 1.429 . S
C1045 C1043 1.419 . S
C1045 C1046 1.363 . S
C1045 H1048 0.929 1_554 S
C1046 C1045 1.363 . S
C1046 C1052 1.428 . S
H1047 C1043 0.930 . S
H1048 C1045 0.929 1_556 S
S1049 N1050 1.613 . S
S1049 N1051 1.610 . S
N1050 S1049 1.613 . S
N1050 C1053 1.350 . S
N1051 S1049 1.610 . S
N1051 C1052 1.351 . S
C1052 C1046 1.428 . S
C1052 N1051 1.351 . S
C1052 C1053 1.434 . S
C1053 C1044 1.429 . S
C1053 N1050 1.350 . S
C1053 C1052 1.434 . S
C1054 C1055 1.369 . S
C1054 C1056 1.419 . S
C1054 H1058 0.930 . S
C1055 C1054 1.369 . S
C1055 C1064 1.429 . S
C1056 C1054 1.419 . S
C1056 C1057 1.363 . S
C1056 H1059 0.929 . S
C1057 C1056 1.363 . S
C1057 C1063 1.428 . S
H1058 C1054 0.930 . S
H1059 C1056 0.929 . S
S1060 N1061 1.613 . S
S1060 N1062 1.610 . S
N1061 S1060 1.613 . S
N1061 C1064 1.350 . S
N1062 S1060 1.610 . S
N1062 C1063 1.351 . S
C1063 C1057 1.428 . S
C1063 N1062 1.351 . S
C1063 C1064 1.434 . S
C1064 C1055 1.429 . S
C1064 N1061 1.350 . S
C1064 C1063 1.434 . S
C1065 C1066 1.369 . S
C1065 C1067 1.419 . S
C1065 H1069 0.930 . S
C1066 C1065 1.369 . S
C1066 C1075 1.429 . S
C1067 C1065 1.419 . S
C1067 C1068 1.363 . S
C1067 H1070 0.929 . S
C1068 C1067 1.363 . S
C1068 C1074 1.428 . S
H1069 C1065 0.930 . S
H1070 C1067 0.929 . S
S1071 N1072 1.613 . S
S1071 N1073 1.610 . S
N1072 S1071 1.613 . S
N1072 C1075 1.350 . S
N1073 S1071 1.610 . S
N1073 C1074 1.351 . S
C1074 C1068 1.428 . S
C1074 N1073 1.351 . S
C1074 C1075 1.434 . S
C1075 C1066 1.429 . S
C1075 N1072 1.350 . S
C1075 C1074 1.434 . S
C1076 C1077 1.369 . S
C1076 C1078 1.419 . S
C1076 H1080 0.930 . S
C1077 C1076 1.369 . S
C1077 C1086 1.429 . S
C1078 C1076 1.419 . S
C1078 C1079 1.363 . S
C1078 H1081 0.929 1_554 S
C1079 C1078 1.363 . S
C1079 C1085 1.428 . S
H1080 C1076 0.930 . S
H1081 C1078 0.929 1_556 S
S1082 N1083 1.613 . S
S1082 N1084 1.610 . S
N1083 S1082 1.613 . S
N1083 C1086 1.350 . S
N1084 S1082 1.610 . S
N1084 C1085 1.351 . S
C1085 C1079 1.428 . S
C1085 N1084 1.351 . S
C1085 C1086 1.434 . S
C1086 C1077 1.429 . S
C1086 N1083 1.350 . S
C1086 C1085 1.434 . S
C1087 C1088 1.369 . S
C1087 C1089 1.419 . S
C1087 H1091 0.930 1_556 S
C1088 C1087 1.369 . S
C1088 C1097 1.429 . S
C1089 C1087 1.419 . S
C1089 C1090 1.363 . S
C1089 H1092 0.929 . S
C1090 C1089 1.363 . S
C1090 C1096 1.428 . S
H1091 C1087 0.930 1_554 S
H1092 C1089 0.929 . S
S1093 N1094 1.613 . S
S1093 N1095 1.610 . S
N1094 S1093 1.613 . S
N1094 C1097 1.350 . S
N1095 S1093 1.610 . S
N1095 C1096 1.351 . S
C1096 C1090 1.428 . S
C1096 N1095 1.351 . S
C1096 C1097 1.434 . S
C1097 C1088 1.429 . S
C1097 N1094 1.350 . S
C1097 C1096 1.434 . S
C1098 C1099 1.369 . S
C1098 C1100 1.419 . S
C1098 H1102 0.930 . S
C1099 C1098 1.369 . S
C1099 C1108 1.429 . S
C1100 C1098 1.419 . S
C1100 C1101 1.363 . S
C1100 H1103 0.929 . S
C1101 C1100 1.363 . S
C1101 C1107 1.428 . S
H1102 C1098 0.930 . S
H1103 C1100 0.929 . S
S1104 N1105 1.613 . S
S1104 N1106 1.610 . S
N1105 S1104 1.613 . S
N1105 C1108 1.350 . S
N1106 S1104 1.610 . S
N1106 C1107 1.351 . S
C1107 C1101 1.428 . S
C1107 N1106 1.351 . S
C1107 C1108 1.434 . S
C1108 C1099 1.429 . S
C1108 N1105 1.350 . S
C1108 C1107 1.434 . S
C1109 C1110 1.369 . S
C1109 C1111 1.419 . S
C1109 H1113 0.930 . S
C1110 C1109 1.369 . S
C1110 C1119 1.429 . S
C1111 C1109 1.419 . S
C1111 C1112 1.363 . S
C1111 H1114 0.929 . S
C1112 C1111 1.363 . S
C1112 C1118 1.428 . S
H1113 C1109 0.930 . S
H1114 C1111 0.929 . S
S1115 N1116 1.613 . S
S1115 N1117 1.610 . S
N1116 S1115 1.613 . S
N1116 C1119 1.350 . S
N1117 S1115 1.610 . S
N1117 C1118 1.351 . S
C1118 C1112 1.428 . S
C1118 N1117 1.351 . S
C1118 C1119 1.434 . S
C1119 C1110 1.429 . S
C1119 N1116 1.350 . S
C1119 C1118 1.434 . S
C417 C81 1.543 . S
C419 C3 1.544 . S
C428 C16 1.543 . S
C430 C94 1.545 . S
C439 C57 1.544 . S
C441 C29 1.544 . S
C450 C42 1.543 . S
C452 C70 1.545 . S
C461 C107 1.543 . S
C463 C187 1.545 . S
C472 C200 1.543 . S
C474 C122 1.544 . S
C483 C133 1.544 . S
C485 C161 1.543 . S
C494 C172 1.543 . S
C496 C146 1.545 . S
C505 C211 1.545 . S
C507 C291 1.543 . S
C516 C226 1.543 . S
C518 C304 1.545 . S
C527 C265 1.545 . S
C529 C239 1.543 . S
C538 C276 1.545 . S
C540 C250 1.543 . S
C549 C315 1.543 . S
C551 C395 1.544 . S
C560 C328 1.544 . S
C562 C408 1.543 . S
C571 C367 1.545 . S
C573 C341 1.543 . S
C582 C354 1.545 . S
C584 C380 1.543 . S
C593 C10 1.581 1_556 S
C595 C101 1.578 . S
C604 C56 1.577 1_554 S
C606 C23 1.581 . S
C615 C69 1.577 . S
C617 C36 1.580 . S
C626 C49 1.578 . S
C628 C88 1.579 . S
C637 C114 1.578 1_554 S
C639 C199 1.581 . S
C648 C160 1.578 1_556 S
C650 C121 1.579 . S
C659 C179 1.581 . S
C661 C140 1.578 . S
C670 C186 1.578 . S
C672 C153 1.579 . S
C681 C218 1.582 . S
C683 C303 1.578 . S
C692 C225 1.577 . S
C694 C264 1.581 . S
C703 C283 1.580 . S
C705 C238 1.580 1_556 S
C714 C257 1.578 . S
C716 C290 1.581 1_554 S
C725 C322 1.581 . S
C727 C407 1.578 . S
C736 C374 1.581 . S
C738 C335 1.578 . S
C747 C348 1.577 1_554 S
C749 C387 1.581 . S
C758 C361 1.580 . S
C760 C394 1.580 1_556 S
C769 C393 1.552 . S
C771 C5 1.552 . S
C780 C198 1.552 . S
C782 C18 1.552 . S
C791 C31 1.551 . S
C793 C369 1.551 . S
C802 C44 1.551 . S
C804 C174 1.551 . S
C813 C55 1.551 . S
C815 C343 1.551 . S
C824 C68 1.553 . S
C826 C148 1.553 . S
C835 C83 1.553 . S
C837 C317 1.553 . S
C846 C120 1.551 . S
C848 C96 1.552 . S
C857 C289 1.552 . S
C859 C109 1.552 . S
C868 C135 1.552 . S
C870 C263 1.552 . S
C879 C237 1.552 . S
C881 C159 1.552 . S
C890 C213 1.551 . S
C892 C185 1.552 . S
C901 C224 1.553 . S
C903 C406 1.552 . S
C912 C252 1.551 . S
C914 C382 1.551 . S
C923 C278 1.552 . S
C925 C356 1.552 . S
C934 C330 1.553 . S
C936 C302 1.552 . S
C945 C4 1.466 . S
C947 C95 1.467 . S
C956 C17 1.466 . S
C958 C62 1.468 . S
C967 C75 1.467 1_556 S
C969 C30 1.466 . S
C978 C43 1.468 1_554 S
C980 C82 1.467 . S
C989 C205 1.466 . S
C991 C108 1.466 . S
C1000 C166 1.466 . S
C1002 C127 1.466 . S
C1011 C134 1.465 . S
C1013 C173 1.467 1_554 S
C1022 C192 1.468 . S
C1024 C147 1.466 1_556 S
C1033 C309 1.465 1_556 S
C1035 C212 1.467 . S
C1044 C270 1.468 . S
C1046 C231 1.466 1_554 S
C1055 C277 1.468 . S
C1057 C244 1.466 . S
C1066 C296 1.467 . S
C1068 C251 1.466 . S
C1077 C316 1.468 . S
C1079 C413 1.466 1_554 S
C1088 C329 1.465 1_556 S
C1090 C368 1.467 . S
C1099 C342 1.466 . S
C1101 C381 1.466 . S
C1110 C400 1.465 . S
C1112 C355 1.467 . S
