# Generated by pormake.
# Topology tsi, (8)-cn, num edge types: 1
# Building blocks:
#     Node 0, Type 0, BuildingBlock: LIZSOE_clean_sbu_0, # of connection points: 8
#     Node 1, Type 0, BuildingBlock: LIZSOE_clean_sbu_0, # of connection points: 8
#     Node 2, Type 0, BuildingBlock: LIZSOE_clean_sbu_0, # of connection points: 8
#     Node 3, Type 0, BuildingBlock: LIZSOE_clean_sbu_0, # of connection points: 8
#     Edge 4, Type (0, 0), BuildingBlock: KIFKEQ_clean_linker_1, # of connection points: 2
#     Edge 5, Type (0, 0), BuildingBlock: KIFKEQ_clean_linker_1, # of connection points: 2
#     Edge 6, Type (0, 0), BuildingBlock: KIFKEQ_clean_linker_1, # of connection points: 2
#     Edge 7, Type (0, 0), BuildingBlock: KIFKEQ_clean_linker_1, # of connection points: 2
#     Edge 8, Type (0, 0), BuildingBlock: KIFKEQ_clean_linker_1, # of connection points: 2
#     Edge 9, Type (0, 0), BuildingBlock: KIFKEQ_clean_linker_1, # of connection points: 2
#     Edge 10, Type (0, 0), BuildingBlock: KIFKEQ_clean_linker_1, # of connection points: 2
#     Edge 11, Type (0, 0), BuildingBlock: KIFKEQ_clean_linker_1, # of connection points: 2
#     Edge 12, Type (0, 0), BuildingBlock: KIFKEQ_clean_linker_1, # of connection points: 2
#     Edge 13, Type (0, 0), BuildingBlock: KIFKEQ_clean_linker_1, # of connection points: 2
#     Edge 14, Type (0, 0), BuildingBlock: KIFKEQ_clean_linker_1, # of connection points: 2
#     Edge 15, Type (0, 0), BuildingBlock: KIFKEQ_clean_linker_1, # of connection points: 2
#     Edge 16, Type (0, 0), BuildingBlock: KIFKEQ_clean_linker_1, # of connection points: 2
#     Edge 17, Type (0, 0), BuildingBlock: KIFKEQ_clean_linker_1, # of connection points: 2
#     Edge 18, Type (0, 0), BuildingBlock: KIFKEQ_clean_linker_1, # of connection points: 2
#     Edge 19, Type (0, 0), BuildingBlock: KIFKEQ_clean_linker_1, # of connection points: 2
# Relax obj value: 0.232
# Max RMSD: 0.259
# Mean RMSD: 0.250
data_MOF--net-tsi--node1-LIZSOE_clean_sbu_0--edge1-KIFKEQ_clean_linker_1
_symmetry_space_group_name_H-M    P1
_symmetry_Int_Tables_number       1
_symmetry_cell_setting            triclinic
loop_
_symmetry_equiv_pos_as_xyz
'x, y, z'
_cell_length_a     15.725344
_cell_length_b     15.705042
_cell_length_c     66.618646
_cell_angle_alpha  100.95793
_cell_angle_beta   100.82828
_cell_angle_gamma 89.154077
loop_
_atom_site_label
_atom_site_type_symbol
_atom_site_fract_x
_atom_site_fract_y
_atom_site_fract_z
_atom_type_partial_charge
Co0 Co 0.25692 0.4585 0.48813 0.0
N1 N 0.34359 0.40468 0.5044 0.0
C2 C 0.42706 0.43275 0.51047 0.0
N3 N 0.41647 0.32092 0.52537 0.0
C4 C 0.3393 0.33582 0.51385 0.0
C5 C 0.47203 0.38099 0.52317 0.0
Co6 Co 1.042 0.52793 0.39682 0.0
N7 N 0.96526 0.58413 0.37915 0.0
N8 N 0.88648 0.61576 0.34971 0.0
C9 C 0.86746 0.6723 0.36612 0.0
C10 C 0.91572 0.65283 0.3841 0.0
C11 C 0.94555 0.56229 0.35814 0.0
Co12 Co 0.1438 0.4908 0.44285 0.0
C13 C 0.16615 0.49188 0.39813 0.0
H14 H 0.91345 0.6856 0.39979 0.0
O15 O 0.16674 0.51013 0.47468 0.0
O16 O 1.0152 0.49209 0.44325 0.0
O17 O 0.14175 0.36153 0.44016 0.0
O18 O 0.27116 0.48989 0.44166 0.0
O19 O 0.33795 0.49304 0.47441 0.0
O20 O 0.95583 0.51166 0.41116 0.0
O21 O 0.12089 0.47187 0.4114 0.0
O22 O 0.07269 0.63618 0.4147 0.0
O23 O 0.2373 0.35214 0.46875 0.0
O24 O 0.17498 0.43062 0.49969 0.0
O25 O 0.14774 0.62027 0.44561 0.0
O26 O 0.13054 0.53939 0.38496 0.0
C27 C 0.19047 0.31681 0.45159 0.0
C28 C 0.98027 0.48306 0.3462 0.0
H29 H 1.00245 0.43614 0.35653 0.0
H30 H 0.93024 0.45166 0.33289 0.0
H31 H 1.03658 0.50211 0.34007 0.0
C32 C 0.94903 0.49948 0.42911 0.0
C33 C 0.33943 0.49814 0.45577 0.0
H34 H 0.45348 0.48893 0.5064 0.0
H35 H 0.22299 0.31321 0.52457 0.0
H36 H 0.27494 0.21576 0.51462 0.0
H37 H 0.215 0.27792 0.49702 0.0
C38 C 0.25859 0.28258 0.51227 0.0
C39 C 0.12929 0.47783 0.48791 0.0
C40 C 0.11368 0.66776 0.43282 0.0
H41 H 0.53931 0.3888 0.53084 0.0
H42 H 0.82107 0.72369 0.36517 0.0
Co43 Co 0.13094 0.62255 0.70885 0.0
N44 N 0.06988 0.55352 0.7221 0.0
C45 C 0.10724 0.48557 0.72988 0.0
N46 N 0.97806 0.4938 0.73787 0.0
C47 C 0.9907 0.5577 0.72759 0.0
C48 C 0.05102 0.44841 0.73925 0.0
Co49 Co 0.25331 0.69606 0.62634 0.0
N50 N 0.33002 0.74566 0.61322 0.0
N51 N 0.39916 0.83205 0.59794 0.0
C52 C 0.44744 0.76191 0.59991 0.0
C53 C 0.40492 0.70901 0.60921 0.0
C54 C 0.32755 0.82052 0.60574 0.0
Co55 Co 0.18149 0.66916 0.66804 0.0
C56 C 0.12458 0.68171 0.62142 0.0
H57 H 0.42754 0.64722 0.61276 0.0
O58 O 0.19225 0.69216 0.69944 0.0
O59 O 0.18313 0.79822 0.66993 0.0
O60 O 0.05194 0.67223 0.66326 0.0
O61 O 0.18401 0.5371 0.6668 0.0
O62 O 0.19889 0.5281 0.70046 0.0
O63 O 0.26462 0.80137 0.64641 0.0
O64 O 0.1721 0.64668 0.63629 0.0
O65 O 0.34485 0.6484 0.64158 0.0
O66 O 1.0447 0.58286 0.6844 0.0
O67 O 0.06727 0.71683 0.7135 0.0
O68 O 0.31368 0.66686 0.67341 0.0
O69 O 0.16133 0.73722 0.61347 0.0
C70 C 1.00806 0.62141 0.67021 0.0
C71 C 0.24944 0.87702 0.60345 0.0
H72 H 0.21952 0.88673 0.61742 0.0
H73 H 0.26484 0.94131 0.60037 0.0
H74 H 0.20053 0.84438 0.59004 0.0
C75 C 0.22958 0.84004 0.66119 0.0
C76 C 0.20415 0.49437 0.68176 0.0
H77 H 0.17319 0.46614 0.72974 0.0
H78 H 0.94559 0.68626 0.73586 0.0
H79 H 0.86028 0.60625 0.72479 0.0
H80 H 0.92453 0.64361 0.7084 0.0
C81 C 0.92629 0.62706 0.72384 0.0
C82 C 0.15055 0.70825 0.71547 0.0
C83 C 0.3663 0.64718 0.66076 0.0
H84 H 0.06443 0.39527 0.74755 0.0
H85 H 0.50922 0.75018 0.59506 0.0
Co86 Co 0.32111 0.78349 0.95375 0.0
N87 N 0.26603 0.85976 0.97187 0.0
C88 C 0.19474 0.90619 0.96717 0.0
N89 N 0.23657 0.94052 1.00139 0.0
C90 C 0.29058 0.88239 0.99279 0.0
C91 C 0.17665 0.95567 0.9852 0.0
Co92 Co 0.38984 0.57691 0.86155 0.0
N93 N 0.45072 0.49909 0.84496 0.0
N94 N 0.54088 0.43759 0.82421 0.0
C95 C 0.47992 0.3783 0.82405 0.0
C96 C 0.42493 0.41605 0.83682 0.0
C97 C 0.52167 0.51075 0.8368 0.0
Co98 Co 0.35103 0.6822 0.90697 0.0
C99 C 0.35255 0.70002 0.86141 0.0
H100 H 0.36771 0.38563 0.8394 0.0
O101 O 0.37465 0.70492 0.9385 0.0
O102 O 0.48001 0.68896 0.90968 0.0
O103 O 0.34692 0.81061 0.90662 0.0
O104 O 0.22148 0.67739 0.90512 0.0
O105 O 0.21342 0.75014 0.93679 0.0
O106 O 0.49318 0.60118 0.88048 0.0
O107 O 0.32878 0.65832 0.87506 0.0
O108 O 0.36502 0.49009 0.87494 0.0
O109 O 0.33287 0.87047 0.93912 0.0
O110 O 0.31384 0.69486 0.96594 0.0
O111 O 0.35405 0.55367 0.90743 0.0
O112 O 0.4106 0.66552 0.85112 0.0
C113 C 0.34124 0.87698 0.92087 0.0
C114 C 0.56496 0.59774 0.83867 0.0
H115 H 0.56961 0.63758 0.8544 0.0
H116 H 0.63098 0.59213 0.83518 0.0
H117 H 0.5261 0.63316 0.82731 0.0
C118 C 0.52659 0.64572 0.8979 0.0
C119 C 0.17743 0.70978 0.91895 0.0
H120 H 0.15881 0.9051 0.95159 0.0
H121 H 0.3565 0.79553 1.01125 0.0
H122 H 0.40384 0.90327 1.0172 0.0
H123 H 0.41771 0.82861 0.99369 0.0
C124 C 0.3723 0.85109 1.00441 0.0
C125 C 0.35835 0.65932 0.95206 0.0
C126 C 0.35627 0.48607 0.8933 0.0
H127 H 0.1237 1.00011 0.98631 0.0
H128 H 0.47417 0.31325 0.81483 0.0
Co129 Co 0.47588 0.3261 0.22295 0.0
N130 N 0.4256 0.2867 0.2432 0.0
C131 C 0.36678 0.22145 0.23967 0.0
N132 N 0.38603 0.27507 0.27356 0.0
C133 C 0.43691 0.31782 0.26407 0.0
C134 C 0.34209 0.21471 0.25809 0.0
Co135 Co 0.52053 0.36784 0.12793 0.0
N136 N 0.56041 0.41733 0.10764 0.0
N137 N 0.5741 0.45367 0.07709 0.0
C138 C 0.63294 0.4996 0.09257 0.0
C139 C 0.62497 0.47686 0.11112 0.0
C140 C 0.53093 0.40367 0.0867 0.0
Co141 Co 0.49878 0.34652 0.17543 0.0
C142 C 0.4041 0.32406 0.1307 0.0
H143 H 0.66272 0.50355 0.12629 0.0
O144 O 0.52702 0.3726 0.20648 0.0
O145 O 0.49701 0.47461 0.17587 0.0
O146 O 0.37056 0.348 0.1748 0.0
O147 O 0.49987 0.21794 0.17603 0.0
O148 O 0.48744 0.21151 0.20897 0.0
O149 O 0.51547 0.48024 0.14389 0.0
O150 O 0.47396 0.31707 0.14439 0.0
O151 O 0.63457 0.35737 0.14207 0.0
O152 O 0.36419 0.33007 0.20678 0.0
O153 O 0.46936 0.43823 0.23344 0.0
O154 O 0.62751 0.34568 0.17502 0.0
O155 O 0.40862 0.37327 0.11723 0.0
C156 C 0.32729 0.33896 0.18868 0.0
C157 C 0.45423 0.34536 0.07614 0.0
H158 H 0.39413 0.38222 0.07743 0.0
H159 H 0.45369 0.32137 0.05945 0.0
H160 H 0.45306 0.2889 0.08391 0.0
C161 C 0.50609 0.51756 0.16195 0.0
C162 C 0.49576 0.17514 0.19056 0.0
H163 H 0.34165 0.18255 0.22452 0.0
H164 H 0.55094 0.39706 0.26716 0.0
H165 H 0.51644 0.39723 0.29142 0.0
H166 H 0.4563 0.45522 0.27304 0.0
C167 C 0.49372 0.39566 0.27464 0.0
C168 C 0.51841 0.44296 0.21995 0.0
C169 C 0.6706 0.34958 0.16051 0.0
H170 H 0.29377 0.16982 0.25992 0.0
H171 H 0.67775 0.54778 0.09064 0.0
H172 H 0.11284 0.64881 0.50465 0.0
H173 H 0.9941 0.39621 0.49645 0.0
H174 H 0.06949 0.68931 0.53853 0.0
H175 H 0.9543 0.43514 0.53068 0.0
H176 H 0.98052 0.74281 0.59989 0.0
H177 H 0.94132 0.69875 0.56208 0.0
H178 H 0.08452 0.46429 0.56537 0.0
H179 H 0.1273 0.5104 0.60307 0.0
C180 C 0.07215 0.60392 0.50931 0.0
C181 C 0.05765 0.51893 0.49772 0.0
C182 C 0.04889 0.62646 0.52906 0.0
C183 C 1.01052 0.56452 0.5376 0.0
C184 C 0.98474 0.48401 0.52473 0.0
C185 C 1.00591 0.46248 0.50482 0.0
C186 C 0.9991 0.67911 0.59276 0.0
C187 C 0.0581 0.63084 0.6047 0.0
C188 C 0.97814 0.65488 0.57095 0.0
C189 C 1.01146 0.57908 0.5606 0.0
C190 C 0.05803 0.52342 0.57282 0.0
C191 C 0.08114 0.54899 0.59463 0.0
H192 H 0.71319 0.45703 0.83678 0.0
H193 H 0.51121 0.39751 0.78242 0.0
H194 H 0.81941 0.46682 0.81457 0.0
H195 H 0.61758 0.40462 0.76001 0.0
H196 H 0.87302 0.35419 0.73098 0.0
H197 H 0.76465 0.32901 0.75164 0.0
H198 H 0.82602 0.58207 0.79031 0.0
H199 H 0.93279 0.60707 0.76937 0.0
C200 C 0.69232 0.44465 0.82002 0.0
C201 C 0.60458 0.42839 0.81117 0.0
C202 C 0.7525 0.45049 0.80738 0.0
C203 C 0.72598 0.43781 0.78567 0.0
C204 C 0.63926 0.41491 0.77673 0.0
C205 C 0.57877 0.41055 0.78944 0.0
C206 C 0.86172 0.40448 0.74371 0.0
C207 C 0.90929 0.48288 0.74855 0.0
C208 C 0.80041 0.3902 0.75548 0.0
C209 C 0.78783 0.45344 0.77257 0.0
C210 C 0.83523 0.53216 0.77728 0.0
C211 C 0.89525 0.54693 0.76527 0.0
H212 H 0.53209 0.66566 0.9648 0.0
H213 H 0.30608 0.50272 0.95724 0.0
H214 H 0.60091 0.60159 0.99436 0.0
H215 H 0.37639 0.43539 0.986 0.0
H216 H 0.55828 0.33155 1.04119 0.0
H217 H 0.52127 0.35717 1.00528 0.0
H218 H 0.52613 0.63285 1.02881 0.0
H219 H 0.55643 0.60693 0.0645 0.0
C220 C 0.49975 0.61138 0.96833 0.0
C221 C 0.4138 0.58874 0.95846 0.0
C222 C 0.53855 0.57586 0.98557 0.0
C223 C 0.49335 0.51457 0.99273 0.0
C224 C 0.41294 0.48231 0.98085 0.0
C225 C 0.37323 0.51965 0.96401 0.0
C226 C 0.54869 0.39735 1.03868 0.0
C227 C 0.55629 0.46707 0.05575 0.0
C228 C 0.5294 0.41206 1.01813 0.0
C229 C 0.52126 0.49702 1.01422 0.0
C230 C 0.53297 0.56667 1.03129 0.0
C231 C 0.54984 0.55187 0.05173 0.0
H232 H 0.71716 0.63411 0.33518 0.0
H233 H 0.96286 0.58976 0.31563 0.0
H234 H 0.64451 0.62044 0.29909 0.0
H235 H 0.89022 0.57541 0.27917 0.0
H236 H 0.68866 0.40541 0.22386 0.0
H237 H 0.79365 0.46924 0.25436 0.0
H238 H 0.6208 0.67992 0.26771 0.0
H239 H 0.51475 0.61425 0.23725 0.0
C240 C 0.75574 0.6225 0.32311 0.0
C241 C 0.84534 0.6111 0.32821 0.0
C242 C 0.71431 0.61544 0.30237 0.0
C243 C 0.76144 0.59734 0.28609 0.0
C244 C 0.85177 0.5887 0.29126 0.0
C245 C 0.89332 0.59599 0.31211 0.0
C246 C 0.67535 0.46842 0.23241 0.0
C247 C 0.59272 0.50397 0.22834 0.0
C248 C 0.73538 0.50462 0.25023 0.0
C249 C 0.71408 0.57774 0.26404 0.0
C250 C 0.63789 0.62173 0.2578 0.0
C251 C 0.57775 0.58517 0.24006 0.0
H252 H 0.23053 0.29275 0.28498 0.0
H253 H 0.50398 0.29501 0.31016 0.0
H254 H 0.19978 0.32516 0.32027 0.0
H255 H 0.47344 0.33413 0.34564 0.0
H256 H 0.32169 0.54702 0.39291 0.0
H257 H 0.39117 0.47871 0.36417 0.0
H258 H 0.22783 0.25123 0.35485 0.0
H259 H 0.16095 0.3183 0.38418 0.0
C260 C 0.28414 0.30078 0.29808 0.0
C261 C 0.3698 0.29469 0.29469 0.0
C262 C 0.26657 0.3189 0.31829 0.0
C263 C 0.33421 0.33228 0.33575 0.0
C264 C 0.42005 0.32477 0.33248 0.0
C265 C 0.43756 0.30423 0.31216 0.0
C266 C 0.305 0.48006 0.3857 0.0
C267 C 0.23641 0.43779 0.39101 0.0
C268 C 0.34397 0.44134 0.36901 0.0
C269 C 0.31364 0.36038 0.35698 0.0
C270 C 0.25212 0.31399 0.36377 0.0
C271 C 0.21494 0.35179 0.38086 0.0
H272 H 0.26965 0.61734 0.73814 0.0
H273 H 0.13005 0.85633 0.74326 0.0
H274 H 0.29981 0.63439 0.7762 0.0
H275 H 0.16359 0.87514 0.78137 0.0
H276 H 0.37344 0.85452 0.84993 0.0
H277 H 0.32929 0.87138 0.81366 0.0
H278 H 0.1584 0.64845 0.80181 0.0
H279 H 0.19946 0.6339 0.83827 0.0
C280 C 0.24893 0.67559 0.74733 0.0
C281 C 0.19839 0.73597 0.73749 0.0
C282 C 0.26487 0.68459 0.76917 0.0
C283 C 0.23277 0.75544 0.78177 0.0
C284 C 0.1887 0.81966 0.7721 0.0
C285 C 0.17076 0.80946 0.75026 0.0
C286 C 0.32127 0.81334 0.84008 0.0
C287 C 0.28947 0.74339 0.8473 0.0
C288 C 0.29789 0.82148 0.81907 0.0
C289 C 0.24248 0.7596 0.80475 0.0
C290 C 0.20237 0.69636 0.81244 0.0
C291 C 0.22409 0.68961 0.83355 0.0
H292 H 0.27024 0.86914 1.03619 0.0
H293 H 0.2145 0.11025 1.01499 0.0
H294 H 0.28507 0.94576 0.0724 0.0
H295 H 0.22906 0.18693 0.05082 0.0
H296 H 0.23375 0.32207 0.11255 0.0
H297 H 0.17172 0.21276 0.08233 0.0
H298 H 0.38722 0.04685 0.09666 0.0
H299 H 0.44736 0.15498 0.12692 0.0
C300 C 0.26176 0.93857 1.0393 0.0
C301 C 0.24299 0.98409 1.02279 0.0
C302 C 0.26938 0.98239 0.06001 0.0
C303 C 0.25765 0.07262 0.06464 0.0
C304 C 0.23646 0.11726 1.04798 0.0
C305 C 0.22892 0.07354 1.02739 0.0
C306 C 0.26479 0.25991 0.10998 0.0
C307 C 0.34593 0.24766 0.12199 0.0
C308 C 0.23033 0.1979 0.09237 0.0
C309 C 0.27647 0.12258 0.08651 0.0
C310 C 0.35011 0.10426 0.10051 0.0
C311 C 0.38417 0.1661 0.11819 0.0
H312 H 0.52931 0.19079 0.52265 0.0
H313 H 0.3418 0.31149 0.55785 0.0
H314 H 0.54381 0.07269 0.5425 0.0
H315 H 0.35385 0.19386 0.57739 0.0
H316 H 0.42221 0.99782 0.6177 0.0
H317 H 0.44628 0.12321 0.60234 0.0
H318 H 0.44854 0.95184 0.54337 0.0
H319 H 0.42624 0.82701 0.55914 0.0
C320 C 0.49251 0.19231 0.53491 0.0
C321 C 0.43398 0.2588 0.53875 0.0
C322 C 0.50006 0.12484 0.54612 0.0
C323 C 0.44956 0.12365 0.56142 0.0
C324 C 0.39439 0.19314 0.56589 0.0
C325 C 0.38683 0.26008 0.55466 0.0
C326 C 0.42891 0.98772 0.60153 0.0
C327 C 0.42092 0.90401 0.58937 0.0
C328 C 0.44246 0.05898 0.59273 0.0
C329 C 0.44838 0.04753 0.57158 0.0
C330 C 0.44503 0.96282 0.55974 0.0
C331 C 0.43175 0.89154 0.56863 0.0
H332 H 0.07534 0.2087 0.42149 0.0
H333 H 0.29835 0.20585 0.47036 0.0
H334 H 0.06047 0.05139 0.41699 0.0
H335 H 0.2793 0.05153 0.46726 0.0
H336 H 0.26568 0.75868 0.44744 0.0
H337 H 0.2897 0.91359 0.44969 0.0
H338 H 1.0133 0.94512 0.43221 0.0
H339 H 0.99122 0.78957 0.42876 0.0
C340 C 0.12118 0.17465 0.43126 0.0
C341 C 0.18684 0.22043 0.44657 0.0
C342 C 0.11196 0.08439 0.42893 0.0
C343 C 0.16746 1.03794 0.44206 0.0
C344 C 0.23537 0.08381 0.45671 0.0
C345 C 0.24563 0.17326 0.45869 0.0
C346 C 0.2103 0.79942 0.44444 0.0
C347 C 0.12667 0.76267 0.43804 0.0
C348 C 0.22377 0.88839 0.44566 0.0
C349 C 0.15353 0.94287 0.44094 0.0
C350 C 0.06945 0.90568 0.43537 0.0
C351 C 0.05641 0.81659 0.43368 0.0
H352 H 0.45296 0.5029 0.64919 0.0
H353 H 0.48796 0.76179 0.68571 0.0
H354 H 0.60843 0.49364 0.65005 0.0
H355 H 0.64478 0.75293 0.68682 0.0
H356 H 0.90424 0.48582 0.67069 0.0
H357 H 0.75015 0.48835 0.67156 0.0
H358 H 0.74006 0.7514 0.66089 0.0
H359 H 0.89563 0.7491 0.66035 0.0
C360 C 0.49474 0.55638 0.65822 0.0
C361 C 0.45884 0.63211 0.66787 0.0
C362 C 0.58381 0.55157 0.65852 0.0
C363 C 0.6392 0.623 0.66825 0.0
C364 C 0.60377 0.69723 0.6789 0.0
C365 C 0.51435 0.70167 0.67873 0.0
C366 C 0.86869 0.54349 0.66798 0.0
C367 C 0.91205 0.61707 0.66529 0.0
C368 C 0.78035 0.54515 0.66863 0.0
C369 C 0.73276 0.62052 0.66664 0.0
C370 C 0.77518 0.69287 0.66292 0.0
C371 C 0.86387 0.69103 0.66216 0.0
H372 H 0.43497 0.34387 0.87609 0.0
H373 H 0.27264 0.43019 0.92123 0.0
H374 H 0.42901 0.19718 0.88238 0.0
H375 H 0.26598 0.28193 0.92759 0.0
H376 H 0.35426 1.02915 0.94893 0.0
H377 H 0.35605 0.17566 0.94249 0.0
H378 H 0.33112 0.0749 0.87655 0.0
H379 H 0.33123 0.92689 0.8831 0.0
C380 C 0.39746 0.33125 0.88732 0.0
C381 C 0.35423 0.3985 0.89823 0.0
C382 C 0.39374 0.24692 0.89085 0.0
C383 C 0.3464 0.22743 0.90533 0.0
C384 C 0.30377 0.29495 0.91645 0.0
C385 C 0.30777 0.37985 0.91293 0.0
C386 C 0.34914 1.03778 0.933 0.0
C387 C 0.34306 0.9659 0.91648 0.0
C388 C 0.34947 0.12218 0.92933 0.0
C389 C 0.34342 0.13724 0.90903 0.0
C390 C 0.33698 0.06552 0.89244 0.0
C391 C 0.33697 0.98068 0.89614 0.0
H392 H 0.21656 0.29095 0.21172 0.0
H393 H 0.21967 0.38679 0.15521 0.0
H394 H 0.05978 0.29147 0.20489 0.0
H395 H 0.06178 0.39119 0.14878 0.0
H396 H 0.77745 0.30997 0.13236 0.0
H397 H 0.93436 0.306 0.13886 0.0
H398 H 0.93955 0.38081 0.20499 0.0
H399 H 0.78171 0.38096 0.19843 0.0
C400 C 0.1838 0.31286 0.19787 0.0
C401 C 0.23107 0.33898 0.18402 0.0
C402 C 0.09341 0.31386 0.19403 0.0
C403 C 0.0473 0.342 0.17635 0.0
C404 C 0.09463 0.36794 0.16243 0.0
C405 C 0.18537 0.36593 0.16615 0.0
C406 C 0.81194 0.32534 0.14833 0.0
C407 C 0.76666 0.34559 0.16491 0.0
C408 C 0.90236 0.32376 0.15205 0.0
C409 C 0.95047 0.34348 0.17245 0.0
C410 C 0.90508 0.36378 0.18906 0.0
C411 C 0.81433 0.36422 0.18534 0.0
H412 H 0.33409 0.94556 0.64749 0.0
H413 H 0.13947 0.9552 0.68582 0.0
H414 H 0.32976 0.10275 0.65071 0.0
H415 H 0.1397 0.11408 0.69002 0.0
H416 H 0.27271 0.39649 0.71026 0.0
H417 H 0.27854 0.23947 0.70572 0.0
H418 H 0.18778 0.21707 0.63972 0.0
H419 H 0.17651 0.3761 0.6443 0.0
C420 C 0.29039 0.98097 0.65666 0.0
C421 C 0.23556 0.93689 0.66602 0.0
C422 C 0.28812 0.07118 0.65845 0.0
C423 C 0.23336 0.12024 0.67028 0.0
C424 C 0.18185 0.07735 0.6806 0.0
C425 C 0.18227 0.98652 0.67833 0.0
C426 C 0.25293 0.35874 0.69472 0.0
C427 C 0.22187 0.39953 0.67771 0.0
C428 C 0.25668 0.26854 0.69219 0.0
C429 C 0.23217 0.21624 0.67248 0.0
C430 C 0.20632 0.25629 0.65515 0.0
C431 C 0.20048 0.34721 0.65775 0.0
H432 H 0.63919 0.53101 0.88215 0.0
H433 H 0.63032 0.77482 0.9245 0.0
H434 H 0.79527 0.54704 0.88649 0.0
H435 H 0.78738 0.79175 0.92864 0.0
H436 H 0.07452 0.74767 0.9478 0.0
H437 H 0.91958 0.73143 0.94324 0.0
H438 H 0.90512 0.63184 0.87757 0.0
H439 H 0.06312 0.64657 0.88224 0.0
C440 C 0.67077 0.58806 0.8925 0.0
C441 C 0.62231 0.65188 0.90298 0.0
C442 C 0.76029 0.59758 0.89479 0.0
C443 C 0.80396 0.67109 0.90769 0.0
C444 C 0.75585 0.73391 0.91867 0.0
C445 C 0.66591 0.72423 0.91639 0.0
C446 C 1.03893 0.7227 0.93227 0.0
C447 C 0.08179 0.69885 0.91531 0.0
C448 C 0.94944 0.71386 0.92968 0.0
C449 C 0.89953 0.68107 0.91005 0.0
C450 C 0.94189 0.65673 0.89299 0.0
C451 C 1.03228 0.66541 0.8956 0.0
H452 H 0.55418 0.62841 0.13893 0.0
H453 H 0.45781 0.6253 0.1954 0.0
H454 H 0.55404 0.78554 0.14591 0.0
H455 H 0.45386 0.78343 0.20199 0.0
H456 H 0.53535 0.06814 0.21866 0.0
H457 H 0.53941 0.91087 0.21203 0.0
H458 H 0.46473 0.90596 0.14595 0.0
H459 H 0.46445 0.06399 0.15264 0.0
C460 C 0.53223 0.66124 0.1528 0.0
C461 C 0.50588 0.61391 0.1666 0.0
C462 C 0.53147 0.7518 0.15672 0.0
C463 C 0.50337 0.79795 0.17445 0.0
C464 C 0.47712 0.75054 0.18831 0.0
C465 C 0.47887 0.65966 0.18449 0.0
C466 C 0.52007 1.0336 0.20268 0.0
C467 C 0.49984 0.07896 0.18614 0.0
C468 C 0.52169 0.94301 0.19888 0.0
C469 C 0.50204 0.89491 0.17845 0.0
C470 C 0.48174 0.94042 0.16189 0.0
C471 C 0.48124 1.03129 0.16569 0.0
H472 H 0.79868 0.50794 0.40169 0.0
H473 H 0.89604 0.48513 0.4656 0.0
H474 H 0.65214 0.50996 0.40782 0.0
H475 H 0.74707 0.48545 0.47163 0.0
H476 H 0.47891 0.58892 0.47993 0.0
H477 H 0.62708 0.58639 0.4738 0.0
H478 H 0.54359 0.4163 0.41432 0.0
H479 H 0.39539 0.41874 0.42065 0.0
C480 C 0.78908 0.50266 0.4171 0.0
C481 C 0.85978 0.49654 0.43324 0.0
C482 C 0.70449 0.50329 0.42052 0.0
C483 C 0.6878 0.49774 0.44016 0.0
C484 C 0.75804 0.49079 0.45634 0.0
C485 C 0.84331 0.49006 0.45289 0.0
C486 C 0.49225 0.55191 0.46543 0.0
C487 C 0.42551 0.5055 0.45051 0.0
C488 C 0.57717 0.54969 0.46203 0.0
C489 C 0.59726 0.50072 0.44366 0.0
C490 C 0.53003 0.45558 0.42853 0.0
C491 C 0.44494 0.45781 0.43197 0.0
loop_
_geom_bond_atom_site_label_1
_geom_bond_atom_site_label_2
_geom_bond_distance
_geom_bond_site_symmetry_2
_ccdc_geom_bond_type
Co0 N1 2.034 . S
Co0 O15 2.262 . S
Co0 O19 1.958 . S
Co0 O23 1.950 . S
Co0 O24 2.057 . S
N1 Co0 2.034 . S
N1 C2 1.366 . S
N1 C4 1.332 . S
C2 N1 1.366 . S
C2 C5 1.377 . S
C2 H34 0.931 . S
N3 C4 1.346 . S
N3 C5 1.337 . S
C4 N1 1.332 . S
C4 N3 1.346 . S
C4 C38 1.361 . S
C5 C2 1.377 . S
C5 N3 1.337 . S
C5 H41 0.930 . S
Co6 N7 2.034 . S
Co6 O20 1.950 . S
Co6 O21 2.262 1_655 S
Co6 O22 1.958 1_655 S
Co6 O26 2.057 1_655 S
N7 Co6 2.034 . S
N7 C10 1.366 . S
N7 C11 1.332 . S
N8 C9 1.337 . S
N8 C11 1.346 . S
C9 N8 1.337 . S
C9 C10 1.377 . S
C9 H42 0.930 . S
C10 N7 1.366 . S
C10 C9 1.377 . S
C10 H14 0.931 . S
C11 N7 1.332 . S
C11 N8 1.346 . S
C11 C28 1.361 . S
Co12 O15 2.097 . S
Co12 O16 2.065 1_455 S
Co12 O17 2.065 . S
Co12 O18 2.042 . S
Co12 O21 2.097 . S
Co12 O25 2.042 . S
C13 O21 1.253 . S
C13 O26 1.263 . S
H14 C10 0.931 . S
O15 Co0 2.262 . S
O15 Co12 2.097 . S
O15 C39 1.253 . S
O16 Co12 2.065 1_655 S
O16 C32 1.221 . S
O17 Co12 2.065 . S
O17 C27 1.221 . S
O18 Co12 2.042 . S
O18 C33 1.237 . S
O19 Co0 1.958 . S
O19 C33 1.278 . S
O20 Co6 1.950 . S
O20 C32 1.277 . S
O21 Co6 2.262 1_455 S
O21 Co12 2.097 . S
O21 C13 1.253 . S
O22 Co6 1.958 1_455 S
O22 C40 1.278 . S
O23 Co0 1.950 . S
O23 C27 1.277 . S
O24 Co0 2.057 . S
O24 C39 1.263 . S
O25 Co12 2.042 . S
O25 C40 1.237 . S
O26 Co6 2.057 1_455 S
O26 C13 1.263 . S
C27 O17 1.221 . S
C27 O23 1.277 . S
C28 C11 1.361 . S
C28 H29 0.960 . S
C28 H30 0.961 . S
C28 H31 0.961 . S
H29 C28 0.960 . S
H30 C28 0.961 . S
H31 C28 0.961 . S
C32 O16 1.221 . S
C32 O20 1.277 . S
C33 O18 1.237 . S
C33 O19 1.278 . S
H34 C2 0.931 . S
H35 C38 0.961 . S
H36 C38 0.961 . S
H37 C38 0.960 . S
C38 C4 1.361 . S
C38 H35 0.961 . S
C38 H36 0.961 . S
C38 H37 0.960 . S
C39 O15 1.253 . S
C39 O24 1.263 . S
C40 O22 1.278 . S
C40 O25 1.237 . S
H41 C5 0.930 . S
H42 C9 0.930 . S
Co43 N44 2.034 . S
Co43 O58 2.262 . S
Co43 O62 1.958 . S
Co43 O66 1.950 . S
Co43 O67 2.057 . S
N44 Co43 2.034 . S
N44 C45 1.366 . S
N44 C47 1.332 . S
C45 N44 1.366 . S
C45 C48 1.377 . S
C45 H77 0.931 . S
N46 C47 1.346 1_655 S
N46 C48 1.337 1_655 S
C47 N44 1.332 . S
C47 N46 1.346 1_455 S
C47 C81 1.361 1_455 S
C48 C45 1.377 . S
C48 N46 1.337 1_455 S
C48 H84 0.930 . S
Co49 N50 2.034 . S
Co49 O63 1.950 . S
Co49 O64 2.262 . S
Co49 O65 1.958 . S
Co49 O69 2.057 . S
N50 Co49 2.034 . S
N50 C53 1.366 . S
N50 C54 1.332 . S
N51 C52 1.337 . S
N51 C54 1.346 . S
C52 N51 1.337 . S
C52 C53 1.377 . S
C52 H85 0.930 . S
C53 N50 1.366 . S
C53 C52 1.377 . S
C53 H57 0.931 . S
C54 N50 1.332 . S
C54 N51 1.346 . S
C54 C71 1.361 . S
Co55 O58 2.097 . S
Co55 O59 2.065 . S
Co55 O60 2.065 . S
Co55 O61 2.042 . S
Co55 O64 2.097 . S
Co55 O68 2.042 . S
C56 O64 1.253 . S
C56 O69 1.263 . S
H57 C53 0.931 . S
O58 Co43 2.262 . S
O58 Co55 2.097 . S
O58 C82 1.253 . S
O59 Co55 2.065 . S
O59 C75 1.221 . S
O60 Co55 2.065 . S
O60 C70 1.221 . S
O61 Co55 2.042 . S
O61 C76 1.237 . S
O62 Co43 1.958 . S
O62 C76 1.278 . S
O63 Co49 1.950 . S
O63 C75 1.277 . S
O64 Co49 2.262 . S
O64 Co55 2.097 . S
O64 C56 1.253 . S
O65 Co49 1.958 . S
O65 C83 1.278 . S
O66 Co43 1.950 . S
O66 C70 1.277 . S
O67 Co43 2.057 . S
O67 C82 1.263 . S
O68 Co55 2.042 . S
O68 C83 1.237 . S
O69 Co49 2.057 . S
O69 C56 1.263 . S
C70 O60 1.221 . S
C70 O66 1.277 . S
C71 C54 1.361 . S
C71 H72 0.960 . S
C71 H73 0.961 . S
C71 H74 0.961 . S
H72 C71 0.960 . S
H73 C71 0.961 . S
H74 C71 0.961 . S
C75 O59 1.221 . S
C75 O63 1.277 . S
C76 O61 1.237 . S
C76 O62 1.278 . S
H77 C45 0.931 . S
H78 C81 0.961 1_455 S
H79 C81 0.961 . S
H80 C81 0.960 1_455 S
C81 C47 1.361 1_655 S
C81 H78 0.961 1_655 S
C81 H79 0.961 . S
C81 H80 0.960 1_655 S
C82 O58 1.253 . S
C82 O67 1.263 . S
C83 O65 1.278 . S
C83 O68 1.237 . S
H84 C48 0.930 . S
H85 C52 0.930 . S
Co86 N87 2.034 . S
Co86 O101 2.262 . S
Co86 O105 1.958 . S
Co86 O109 1.950 . S
Co86 O110 2.057 . S
N87 Co86 2.034 . S
N87 C88 1.366 . S
N87 C90 1.332 . S
C88 N87 1.366 . S
C88 C91 1.377 . S
C88 H120 0.931 . S
N89 C90 1.346 . S
N89 C91 1.337 . S
C90 N87 1.332 . S
C90 N89 1.346 . S
C90 C124 1.361 . S
C91 C88 1.377 . S
C91 N89 1.337 . S
C91 H127 0.930 . S
Co92 N93 2.034 . S
Co92 O106 1.950 . S
Co92 O107 2.262 . S
Co92 O108 1.958 . S
Co92 O112 2.057 . S
N93 Co92 2.034 . S
N93 C96 1.366 . S
N93 C97 1.332 . S
N94 C95 1.337 . S
N94 C97 1.346 . S
C95 N94 1.337 . S
C95 C96 1.377 . S
C95 H128 0.930 . S
C96 N93 1.366 . S
C96 C95 1.377 . S
C96 H100 0.931 . S
C97 N93 1.332 . S
C97 N94 1.346 . S
C97 C114 1.361 . S
Co98 O101 2.097 . S
Co98 O102 2.065 . S
Co98 O103 2.065 . S
Co98 O104 2.042 . S
Co98 O107 2.097 . S
Co98 O111 2.042 . S
C99 O107 1.253 . S
C99 O112 1.263 . S
H100 C96 0.931 . S
O101 Co86 2.262 . S
O101 Co98 2.097 . S
O101 C125 1.253 . S
O102 Co98 2.065 . S
O102 C118 1.221 . S
O103 Co98 2.065 . S
O103 C113 1.221 . S
O104 Co98 2.042 . S
O104 C119 1.237 . S
O105 Co86 1.958 . S
O105 C119 1.278 . S
O106 Co92 1.950 . S
O106 C118 1.277 . S
O107 Co92 2.262 . S
O107 Co98 2.097 . S
O107 C99 1.253 . S
O108 Co92 1.958 . S
O108 C126 1.278 . S
O109 Co86 1.950 . S
O109 C113 1.277 . S
O110 Co86 2.057 . S
O110 C125 1.263 . S
O111 Co98 2.042 . S
O111 C126 1.237 . S
O112 Co92 2.057 . S
O112 C99 1.263 . S
C113 O103 1.221 . S
C113 O109 1.277 . S
C114 C97 1.361 . S
C114 H115 0.960 . S
C114 H116 0.961 . S
C114 H117 0.961 . S
H115 C114 0.960 . S
H116 C114 0.961 . S
H117 C114 0.961 . S
C118 O102 1.221 . S
C118 O106 1.277 . S
C119 O104 1.237 . S
C119 O105 1.278 . S
H120 C88 0.931 . S
H121 C124 0.961 . S
H122 C124 0.961 1_545 S
H123 C124 0.960 . S
C124 C90 1.361 . S
C124 H121 0.961 . S
C124 H122 0.961 1_565 S
C124 H123 0.960 . S
C125 O101 1.253 . S
C125 O110 1.263 . S
C126 O108 1.278 . S
C126 O111 1.237 . S
H127 C91 0.930 . S
H128 C95 0.930 . S
Co129 N130 2.034 . S
Co129 O144 2.262 . S
Co129 O148 1.958 . S
Co129 O152 1.950 . S
Co129 O153 2.057 . S
N130 Co129 2.034 . S
N130 C131 1.366 . S
N130 C133 1.332 . S
C131 N130 1.366 . S
C131 C134 1.377 . S
C131 H163 0.931 . S
N132 C133 1.346 . S
N132 C134 1.337 . S
C133 N130 1.332 . S
C133 N132 1.346 . S
C133 C167 1.361 . S
C134 C131 1.377 . S
C134 N132 1.337 . S
C134 H170 0.930 . S
Co135 N136 2.034 . S
Co135 O149 1.950 . S
Co135 O150 2.262 . S
Co135 O151 1.958 . S
Co135 O155 2.057 . S
N136 Co135 2.034 . S
N136 C139 1.366 . S
N136 C140 1.332 . S
N137 C138 1.337 . S
N137 C140 1.346 . S
C138 N137 1.337 . S
C138 C139 1.377 . S
C138 H171 0.930 . S
C139 N136 1.366 . S
C139 C138 1.377 . S
C139 H143 0.931 . S
C140 N136 1.332 . S
C140 N137 1.346 . S
C140 C157 1.361 . S
Co141 O144 2.097 . S
Co141 O145 2.065 . S
Co141 O146 2.065 . S
Co141 O147 2.042 . S
Co141 O150 2.097 . S
Co141 O154 2.042 . S
C142 O150 1.253 . S
C142 O155 1.263 . S
H143 C139 0.931 . S
O144 Co129 2.262 . S
O144 Co141 2.097 . S
O144 C168 1.253 . S
O145 Co141 2.065 . S
O145 C161 1.221 . S
O146 Co141 2.065 . S
O146 C156 1.221 . S
O147 Co141 2.042 . S
O147 C162 1.237 . S
O148 Co129 1.958 . S
O148 C162 1.278 . S
O149 Co135 1.950 . S
O149 C161 1.277 . S
O150 Co135 2.262 . S
O150 Co141 2.097 . S
O150 C142 1.253 . S
O151 Co135 1.958 . S
O151 C169 1.278 . S
O152 Co129 1.950 . S
O152 C156 1.277 . S
O153 Co129 2.057 . S
O153 C168 1.263 . S
O154 Co141 2.042 . S
O154 C169 1.237 . S
O155 Co135 2.057 . S
O155 C142 1.263 . S
C156 O146 1.221 . S
C156 O152 1.277 . S
C157 C140 1.361 . S
C157 H158 0.960 . S
C157 H159 0.961 . S
C157 H160 0.961 . S
H158 C157 0.960 . S
H159 C157 0.961 . S
H160 C157 0.961 . S
C161 O145 1.221 . S
C161 O149 1.277 . S
C162 O147 1.237 . S
C162 O148 1.278 . S
H163 C131 0.931 . S
H164 C167 0.961 . S
H165 C167 0.961 . S
H166 C167 0.960 . S
C167 C133 1.361 . S
C167 H164 0.961 . S
C167 H165 0.961 . S
C167 H166 0.960 . S
C168 O144 1.253 . S
C168 O153 1.263 . S
C169 O151 1.278 . S
C169 O154 1.237 . S
H170 C134 0.930 . S
H171 C138 0.930 . S
H172 C180 0.950 . S
H173 C185 0.950 . S
H174 C182 0.950 . S
H175 C184 0.950 1_655 S
H176 C186 0.950 1_655 S
H177 C188 0.950 1_655 S
H178 C190 0.950 . S
H179 C191 0.950 . S
C180 H172 0.950 . S
C180 C181 1.386 . S
C180 C182 1.391 . S
C181 C180 1.386 . S
C181 C185 1.393 1_455 S
C182 H174 0.950 . S
C182 C180 1.391 . S
C182 C183 1.400 . S
C183 C182 1.400 . S
C183 C184 1.398 . S
C183 C189 1.491 . S
C184 H175 0.950 1_455 S
C184 C183 1.398 . S
C184 C185 1.391 1_455 S
C185 H173 0.950 . S
C185 C181 1.393 1_655 S
C185 C184 1.391 1_655 S
C186 H176 0.950 1_455 S
C186 C187 1.386 . S
C186 C188 1.391 . S
C187 C186 1.386 . S
C187 C191 1.393 . S
C188 H177 0.950 1_455 S
C188 C186 1.391 . S
C188 C189 1.400 . S
C189 C183 1.491 . S
C189 C188 1.400 . S
C189 C190 1.398 . S
C190 H178 0.950 . S
C190 C189 1.398 . S
C190 C191 1.391 . S
C191 H179 0.950 . S
C191 C187 1.393 . S
C191 C190 1.391 . S
H192 C200 0.950 . S
H193 C205 0.950 . S
H194 C202 0.950 . S
H195 C204 0.950 . S
H196 C206 0.950 . S
H197 C208 0.950 . S
H198 C210 0.950 . S
H199 C211 0.950 1_455 S
C200 H192 0.950 . S
C200 C201 1.386 . S
C200 C202 1.391 . S
C201 C200 1.386 . S
C201 C205 1.393 . S
C202 H194 0.950 . S
C202 C200 1.391 . S
C202 C203 1.400 . S
C203 C202 1.400 . S
C203 C204 1.398 . S
C203 C209 1.491 . S
C204 H195 0.950 . S
C204 C203 1.398 . S
C204 C205 1.391 . S
C205 H193 0.950 . S
C205 C201 1.393 . S
C205 C204 1.391 . S
C206 H196 0.950 . S
C206 C207 1.386 . S
C206 C208 1.391 . S
C207 C206 1.386 . S
C207 C211 1.393 . S
C208 H197 0.950 . S
C208 C206 1.391 . S
C208 C209 1.400 . S
C209 C203 1.491 . S
C209 C208 1.400 . S
C209 C210 1.398 . S
C210 H198 0.950 . S
C210 C209 1.398 . S
C210 C211 1.391 . S
C211 H199 0.950 1_655 S
C211 C207 1.393 . S
C211 C210 1.391 . S
H212 C220 0.950 . S
H213 C225 0.950 . S
H214 C222 0.950 . S
H215 C224 0.950 . S
H216 C226 0.950 . S
H217 C228 0.950 . S
H218 C230 0.940 1_556 S
H219 C231 0.950 . S
C220 H212 0.950 . S
C220 C221 1.386 . S
C220 C222 1.391 . S
C221 C220 1.386 . S
C221 C225 1.393 . S
C222 H214 0.950 . S
C222 C220 1.391 . S
C222 C223 1.400 . S
C223 C222 1.400 . S
C223 C224 1.398 . S
C223 C229 1.491 . S
C224 H215 0.950 . S
C224 C223 1.398 . S
C224 C225 1.391 . S
C225 H213 0.950 . S
C225 C221 1.393 . S
C225 C224 1.391 . S
C226 H216 0.950 . S
C226 C227 1.386 . S
C226 C228 1.391 1_554 S
C227 C226 1.386 . S
C227 C231 1.393 . S
C228 H217 0.950 . S
C228 C226 1.391 1_556 S
C228 C229 1.400 . S
C229 C223 1.491 . S
C229 C228 1.400 . S
C229 C230 1.379 1_556 S
C230 H218 0.940 1_554 S
C230 C229 1.379 1_554 S
C230 C231 1.420 . S
C231 H219 0.950 . S
C231 C227 1.393 . S
C231 C230 1.420 . S
H232 C240 0.950 . S
H233 C245 0.950 . S
H234 C242 0.950 . S
H235 C244 0.950 . S
H236 C246 0.950 . S
H237 C248 0.950 . S
H238 C250 0.950 . S
H239 C251 0.950 . S
C240 H232 0.950 . S
C240 C241 1.386 . S
C240 C242 1.391 . S
C241 C240 1.386 . S
C241 C245 1.393 . S
C242 H234 0.950 . S
C242 C240 1.391 . S
C242 C243 1.400 . S
C243 C242 1.400 . S
C243 C244 1.398 . S
C243 C249 1.491 . S
C244 H235 0.950 . S
C244 C243 1.398 . S
C244 C245 1.391 . S
C245 H233 0.950 . S
C245 C241 1.393 . S
C245 C244 1.391 . S
C246 H236 0.950 . S
C246 C247 1.386 . S
C246 C248 1.391 . S
C247 C246 1.386 . S
C247 C251 1.393 . S
C248 H237 0.950 . S
C248 C246 1.391 . S
C248 C249 1.400 . S
C249 C243 1.491 . S
C249 C248 1.400 . S
C249 C250 1.398 . S
C250 H238 0.950 . S
C250 C249 1.398 . S
C250 C251 1.391 . S
C251 H239 0.950 . S
C251 C247 1.393 . S
C251 C250 1.391 . S
H252 C260 0.950 . S
H253 C265 0.950 . S
H254 C262 0.950 . S
H255 C264 0.950 . S
H256 C266 0.950 . S
H257 C268 0.950 . S
H258 C270 0.950 1_655 S
H259 C271 0.950 1_655 S
C260 H252 0.950 . S
C260 C261 1.386 . S
C260 C262 1.391 . S
C261 C260 1.386 . S
C261 C265 1.393 . S
C262 H254 0.950 . S
C262 C260 1.391 . S
C262 C263 1.400 . S
C263 C262 1.400 . S
C263 C264 1.398 . S
C263 C269 1.491 . S
C264 H255 0.950 . S
C264 C263 1.398 . S
C264 C265 1.391 . S
C265 H253 0.950 . S
C265 C261 1.393 . S
C265 C264 1.391 . S
C266 H256 0.950 . S
C266 C267 1.386 . S
C266 C268 1.391 . S
C267 C266 1.386 . S
C267 C271 1.393 . S
C268 H257 0.950 . S
C268 C266 1.391 . S
C268 C269 1.400 . S
C269 C263 1.491 . S
C269 C268 1.400 . S
C269 C270 1.398 . S
C270 H258 0.950 1_455 S
C270 C269 1.398 . S
C270 C271 1.391 . S
C271 H259 0.950 1_455 S
C271 C267 1.393 . S
C271 C270 1.391 . S
H272 C280 0.950 . S
H273 C285 0.950 . S
H274 C282 0.950 . S
H275 C284 0.950 . S
H276 C286 0.950 . S
H277 C288 0.950 . S
H278 C290 0.950 . S
H279 C291 0.950 . S
C280 H272 0.950 . S
C280 C281 1.386 . S
C280 C282 1.391 . S
C281 C280 1.386 . S
C281 C285 1.393 . S
C282 H274 0.950 . S
C282 C280 1.391 . S
C282 C283 1.400 . S
C283 C282 1.400 . S
C283 C284 1.398 . S
C283 C289 1.491 . S
C284 H275 0.950 . S
C284 C283 1.398 . S
C284 C285 1.391 . S
C285 H273 0.950 . S
C285 C281 1.393 . S
C285 C284 1.391 . S
C286 H276 0.950 . S
C286 C287 1.386 . S
C286 C288 1.391 . S
C287 C286 1.386 . S
C287 C291 1.393 . S
C288 H277 0.950 . S
C288 C286 1.391 . S
C288 C289 1.400 . S
C289 C283 1.491 . S
C289 C288 1.400 . S
C289 C290 1.398 . S
C290 H278 0.950 . S
C290 C289 1.398 . S
C290 C291 1.391 . S
C291 H279 0.950 . S
C291 C287 1.393 . S
C291 C290 1.391 . S
H292 C300 0.950 . S
H293 C305 0.950 . S
H294 C302 0.950 . S
H295 C304 0.950 . S
H296 C306 0.950 . S
H297 C308 0.950 . S
H298 C310 0.950 . S
H299 C311 0.950 . S
C300 H292 0.950 . S
C300 C301 1.386 1_565 S
C300 C302 1.391 1_566 S
C301 C300 1.386 1_545 S
C301 C305 1.393 . S
C302 H294 0.950 . S
C302 C300 1.391 1_544 S
C302 C303 1.400 . S
C303 C302 1.400 . S
C303 C304 1.398 1_554 S
C303 C309 1.491 . S
C304 H295 0.950 . S
C304 C303 1.398 1_556 S
C304 C305 1.391 . S
C305 H293 0.950 . S
C305 C301 1.393 . S
C305 C304 1.391 . S
C306 H296 0.950 . S
C306 C307 1.386 . S
C306 C308 1.391 . S
C307 C306 1.386 . S
C307 C311 1.393 . S
C308 H297 0.950 . S
C308 C306 1.391 . S
C308 C309 1.400 . S
C309 C303 1.491 . S
C309 C308 1.400 . S
C309 C310 1.398 . S
C310 H298 0.950 . S
C310 C309 1.398 . S
C310 C311 1.391 . S
C311 H299 0.950 . S
C311 C307 1.393 . S
C311 C310 1.391 . S
H312 C320 0.950 1_565 S
H313 C325 0.950 . S
H314 C322 0.950 . S
H315 C324 0.950 . S
H316 C326 0.950 . S
H317 C328 0.950 1_545 S
H318 C330 0.950 . S
H319 C331 0.950 . S
C320 H312 0.950 1_545 S
C320 C321 1.386 . S
C320 C322 1.391 1_545 S
C321 C320 1.386 . S
C321 C325 1.393 . S
C322 H314 0.950 . S
C322 C320 1.391 1_565 S
C322 C323 1.400 . S
C323 C322 1.400 . S
C323 C324 1.398 1_565 S
C323 C329 1.491 . S
C324 H315 0.950 . S
C324 C323 1.398 1_545 S
C324 C325 1.391 . S
C325 H313 0.950 . S
C325 C321 1.393 . S
C325 C324 1.391 . S
C326 H316 0.950 . S
C326 C327 1.386 . S
C326 C328 1.391 . S
C327 C326 1.386 . S
C327 C331 1.393 . S
C328 H317 0.950 1_565 S
C328 C326 1.391 . S
C328 C329 1.400 . S
C329 C323 1.491 . S
C329 C328 1.400 . S
C329 C330 1.398 . S
C330 H318 0.950 . S
C330 C329 1.398 . S
C330 C331 1.391 . S
C331 H319 0.950 . S
C331 C327 1.393 . S
C331 C330 1.391 . S
H332 C340 0.950 1_655 S
H333 C345 0.950 . S
H334 C342 0.950 1_655 S
H335 C344 0.950 . S
H336 C346 0.950 . S
H337 C348 0.950 . S
H338 C350 0.950 1_655 S
H339 C351 0.950 1_655 S
C340 H332 0.950 1_455 S
C340 C341 1.386 . S
C340 C342 1.391 1_545 S
C341 C340 1.386 . S
C341 C345 1.393 . S
C342 H334 0.950 1_455 S
C342 C340 1.391 1_565 S
C342 C343 1.400 . S
C343 C342 1.400 . S
C343 C344 1.398 . S
C343 C349 1.491 . S
C344 H335 0.950 . S
C344 C343 1.398 . S
C344 C345 1.391 1_565 S
C345 H333 0.950 . S
C345 C341 1.393 . S
C345 C344 1.391 1_545 S
C346 H336 0.950 . S
C346 C347 1.386 . S
C346 C348 1.391 . S
C347 C346 1.386 . S
C347 C351 1.393 . S
C348 H337 0.950 . S
C348 C346 1.391 . S
C348 C349 1.400 . S
C349 C343 1.491 . S
C349 C348 1.400 . S
C349 C350 1.398 . S
C350 H338 0.950 1_455 S
C350 C349 1.398 . S
C350 C351 1.391 . S
C351 H339 0.950 1_455 S
C351 C347 1.393 . S
C351 C350 1.391 . S
H352 C360 0.950 . S
H353 C365 0.950 . S
H354 C362 0.950 . S
H355 C364 0.950 . S
H356 C366 0.950 . S
H357 C368 0.950 . S
H358 C370 0.950 . S
H359 C371 0.950 . S
C360 H352 0.950 . S
C360 C361 1.386 . S
C360 C362 1.391 . S
C361 C360 1.386 . S
C361 C365 1.393 . S
C362 H354 0.950 . S
C362 C360 1.391 . S
C362 C363 1.400 . S
C363 C362 1.400 . S
C363 C364 1.398 . S
C363 C369 1.491 . S
C364 H355 0.950 . S
C364 C363 1.398 . S
C364 C365 1.391 . S
C365 H353 0.950 . S
C365 C361 1.393 . S
C365 C364 1.391 . S
C366 H356 0.950 . S
C366 C367 1.386 . S
C366 C368 1.391 . S
C367 C366 1.386 . S
C367 C371 1.393 . S
C368 H357 0.950 . S
C368 C366 1.391 . S
C368 C369 1.400 . S
C369 C363 1.491 . S
C369 C368 1.400 . S
C369 C370 1.398 . S
C370 H358 0.950 . S
C370 C369 1.398 . S
C370 C371 1.391 . S
C371 H359 0.950 . S
C371 C367 1.393 . S
C371 C370 1.391 . S
H372 C380 0.950 . S
H373 C385 0.950 . S
H374 C382 0.950 . S
H375 C384 0.950 . S
H376 C386 0.950 1_565 S
H377 C388 0.950 . S
H378 C390 0.950 . S
H379 C391 0.950 . S
C380 H372 0.950 . S
C380 C381 1.386 . S
C380 C382 1.391 . S
C381 C380 1.386 . S
C381 C385 1.393 . S
C382 H374 0.950 . S
C382 C380 1.391 . S
C382 C383 1.400 . S
C383 C382 1.400 . S
C383 C384 1.398 . S
C383 C389 1.491 . S
C384 H375 0.950 . S
C384 C383 1.398 . S
C384 C385 1.391 . S
C385 H373 0.950 . S
C385 C381 1.393 . S
C385 C384 1.391 . S
C386 H376 0.950 1_545 S
C386 C387 1.386 1_545 S
C386 C388 1.391 . S
C387 C386 1.386 1_565 S
C387 C391 1.393 . S
C388 H377 0.950 . S
C388 C386 1.391 . S
C388 C389 1.400 . S
C389 C383 1.491 . S
C389 C388 1.400 . S
C389 C390 1.398 . S
C390 H378 0.950 . S
C390 C389 1.398 . S
C390 C391 1.391 1_545 S
C391 H379 0.950 . S
C391 C387 1.393 . S
C391 C390 1.391 1_565 S
H392 C400 0.950 . S
H393 C405 0.950 . S
H394 C402 0.950 . S
H395 C404 0.950 . S
H396 C406 0.950 . S
H397 C408 0.950 . S
H398 C410 0.950 . S
H399 C411 0.950 . S
C400 H392 0.950 . S
C400 C401 1.386 . S
C400 C402 1.391 1_455 S
C401 C400 1.386 . S
C401 C405 1.393 . S
C402 H394 0.950 . S
C402 C400 1.391 1_655 S
C402 C403 1.400 . S
C403 C402 1.400 . S
C403 C404 1.398 . S
C403 C409 1.491 . S
C404 H395 0.950 . S
C404 C403 1.398 . S
C404 C405 1.391 1_655 S
C405 H393 0.950 . S
C405 C401 1.393 . S
C405 C404 1.391 1_455 S
C406 H396 0.950 . S
C406 C407 1.386 . S
C406 C408 1.391 . S
C407 C406 1.386 . S
C407 C411 1.393 . S
C408 H397 0.950 . S
C408 C406 1.391 . S
C408 C409 1.400 . S
C409 C403 1.491 . S
C409 C408 1.400 . S
C409 C410 1.398 . S
C410 H398 0.950 . S
C410 C409 1.398 . S
C410 C411 1.391 . S
C411 H399 0.950 . S
C411 C407 1.393 . S
C411 C410 1.391 . S
H412 C420 0.950 . S
H413 C425 0.950 . S
H414 C422 0.950 . S
H415 C424 0.950 . S
H416 C426 0.950 . S
H417 C428 0.950 . S
H418 C430 0.950 . S
H419 C431 0.950 . S
C420 H412 0.950 . S
C420 C421 1.386 . S
C420 C422 1.391 . S
C421 C420 1.386 . S
C421 C425 1.393 . S
C422 H414 0.950 . S
C422 C420 1.391 . S
C422 C423 1.400 . S
C423 C422 1.400 . S
C423 C424 1.398 . S
C423 C429 1.491 1_565 S
C424 H415 0.950 . S
C424 C423 1.398 . S
C424 C425 1.391 . S
C425 H413 0.950 . S
C425 C421 1.393 . S
C425 C424 1.391 . S
C426 H416 0.950 . S
C426 C427 1.386 . S
C426 C428 1.391 . S
C427 C426 1.386 . S
C427 C431 1.393 . S
C428 H417 0.950 . S
C428 C426 1.391 . S
C428 C429 1.400 . S
C429 C423 1.491 1_545 S
C429 C428 1.400 . S
C429 C430 1.398 . S
C430 H418 0.950 . S
C430 C429 1.398 . S
C430 C431 1.391 . S
C431 H419 0.950 . S
C431 C427 1.393 . S
C431 C430 1.391 . S
H432 C440 0.950 . S
H433 C445 0.950 . S
H434 C442 0.950 . S
H435 C444 0.950 . S
H436 C446 0.950 . S
H437 C448 0.950 . S
H438 C450 0.950 . S
H439 C451 0.950 . S
C440 H432 0.950 . S
C440 C441 1.386 . S
C440 C442 1.391 . S
C441 C440 1.386 . S
C441 C445 1.393 . S
C442 H434 0.950 . S
C442 C440 1.391 . S
C442 C443 1.400 . S
C443 C442 1.400 . S
C443 C444 1.398 . S
C443 C449 1.491 . S
C444 H435 0.950 . S
C444 C443 1.398 . S
C444 C445 1.391 . S
C445 H433 0.950 . S
C445 C441 1.393 . S
C445 C444 1.391 . S
C446 H436 0.950 . S
C446 C447 1.386 . S
C446 C448 1.391 1_455 S
C447 C446 1.386 . S
C447 C451 1.393 . S
C448 H437 0.950 . S
C448 C446 1.391 1_655 S
C448 C449 1.400 . S
C449 C443 1.491 . S
C449 C448 1.400 . S
C449 C450 1.398 . S
C450 H438 0.950 . S
C450 C449 1.398 . S
C450 C451 1.391 1_655 S
C451 H439 0.950 . S
C451 C447 1.393 . S
C451 C450 1.391 1_455 S
H452 C460 0.950 . S
H453 C465 0.950 . S
H454 C462 0.950 . S
H455 C464 0.950 . S
H456 C466 0.950 . S
H457 C468 0.950 . S
H458 C470 0.950 . S
H459 C471 0.950 . S
C460 H452 0.950 . S
C460 C461 1.386 . S
C460 C462 1.391 . S
C461 C460 1.386 . S
C461 C465 1.393 . S
C462 H454 0.950 . S
C462 C460 1.391 . S
C462 C463 1.400 . S
C463 C462 1.400 . S
C463 C464 1.398 . S
C463 C469 1.491 . S
C464 H455 0.950 . S
C464 C463 1.398 . S
C464 C465 1.391 . S
C465 H453 0.950 . S
C465 C461 1.393 . S
C465 C464 1.391 . S
C466 H456 0.950 . S
C466 C467 1.386 . S
C466 C468 1.391 1_545 S
C467 C466 1.386 . S
C467 C471 1.393 . S
C468 H457 0.950 . S
C468 C466 1.391 1_565 S
C468 C469 1.400 . S
C469 C463 1.491 . S
C469 C468 1.400 . S
C469 C470 1.398 . S
C470 H458 0.950 . S
C470 C469 1.398 . S
C470 C471 1.391 1_565 S
C471 H459 0.950 . S
C471 C467 1.393 . S
C471 C470 1.391 1_545 S
H472 C480 0.950 . S
H473 C485 0.950 . S
H474 C482 0.950 . S
H475 C484 0.950 . S
H476 C486 0.950 . S
H477 C488 0.950 . S
H478 C490 0.950 . S
H479 C491 0.950 . S
C480 H472 0.950 . S
C480 C481 1.386 . S
C480 C482 1.391 . S
C481 C480 1.386 . S
C481 C485 1.393 . S
C482 H474 0.950 . S
C482 C480 1.391 . S
C482 C483 1.400 . S
C483 C482 1.400 . S
C483 C484 1.398 . S
C483 C489 1.491 . S
C484 H475 0.950 . S
C484 C483 1.398 . S
C484 C485 1.391 . S
C485 H473 0.950 . S
C485 C481 1.393 . S
C485 C484 1.391 . S
C486 H476 0.950 . S
C486 C487 1.386 . S
C486 C488 1.391 . S
C487 C486 1.386 . S
C487 C491 1.393 . S
C488 H477 0.950 . S
C488 C486 1.391 . S
C488 C489 1.400 . S
C489 C483 1.491 . S
C489 C488 1.400 . S
C489 C490 1.398 . S
C490 H478 0.950 . S
C490 C489 1.398 . S
C490 C491 1.391 . S
C491 H479 0.950 . S
C491 C487 1.393 . S
C491 C490 1.391 . S
C181 C39 1.854 . S
C187 C56 1.860 . S
C201 N94 1.444 . S
C207 N46 1.436 . S
C221 C125 1.349 . S
C227 N137 1.575 . S
C241 N8 1.787 . S
C247 C168 1.540 . S
C261 N132 1.575 . S
C267 C13 1.340 . S
C281 C82 1.865 . S
C287 C99 1.841 . S
C301 N89 1.781 1_545 S
C307 C142 1.579 . S
C321 N3 1.452 . S
C327 N51 1.444 . S
C341 C27 1.375 . S
C347 C40 1.381 . S
C361 C83 1.391 . S
C367 C70 1.384 1_655 S
C381 C126 1.549 . S
C387 C113 1.532 . S
C401 C156 1.455 . S
C407 C169 1.464 . S
C421 C75 1.383 . S
C427 C76 1.383 . S
C441 C118 1.389 . S
C447 C119 1.389 . S
C461 C161 1.439 . S
C467 C162 1.446 . S
C481 C32 1.544 . S
C487 C33 1.557 . S
