# Generated by pormake.
# Topology sou, (8)-cn, num edge types: 1
# Building blocks:
#     Node 0, Type 0, BuildingBlock: NUHRAL_clean_sbu_3, # of connection points: 8
#     Node 1, Type 0, BuildingBlock: NUHRAL_clean_sbu_3, # of connection points: 8
#     Node 2, Type 0, BuildingBlock: NUHRAL_clean_sbu_3, # of connection points: 8
#     Node 3, Type 0, BuildingBlock: NUHRAL_clean_sbu_3, # of connection points: 8
#     Node 4, Type 0, BuildingBlock: NUHRAL_clean_sbu_3, # of connection points: 8
#     Node 5, Type 0, BuildingBlock: NUHRAL_clean_sbu_3, # of connection points: 8
#     Node 6, Type 0, BuildingBlock: NUHRAL_clean_sbu_3, # of connection points: 8
#     Node 7, Type 0, BuildingBlock: NUHRAL_clean_sbu_3, # of connection points: 8
#     Node 8, Type 0, BuildingBlock: NUHRAL_clean_sbu_3, # of connection points: 8
#     Node 9, Type 0, BuildingBlock: NUHRAL_clean_sbu_3, # of connection points: 8
#     Node 10, Type 0, BuildingBlock: NUHRAL_clean_sbu_3, # of connection points: 8
#     Node 11, Type 0, BuildingBlock: NUHRAL_clean_sbu_3, # of connection points: 8
#     Node 12, Type 0, BuildingBlock: NUHRAL_clean_sbu_3, # of connection points: 8
#     Node 13, Type 0, BuildingBlock: NUHRAL_clean_sbu_3, # of connection points: 8
#     Node 14, Type 0, BuildingBlock: NUHRAL_clean_sbu_3, # of connection points: 8
#     Node 15, Type 0, BuildingBlock: NUHRAL_clean_sbu_3, # of connection points: 8
#     Node 16, Type 0, BuildingBlock: NUHRAL_clean_sbu_3, # of connection points: 8
#     Node 17, Type 0, BuildingBlock: NUHRAL_clean_sbu_3, # of connection points: 8
#     Node 18, Type 0, BuildingBlock: NUHRAL_clean_sbu_3, # of connection points: 8
#     Node 19, Type 0, BuildingBlock: NUHRAL_clean_sbu_3, # of connection points: 8
#     Node 20, Type 0, BuildingBlock: NUHRAL_clean_sbu_3, # of connection points: 8
#     Node 21, Type 0, BuildingBlock: NUHRAL_clean_sbu_3, # of connection points: 8
#     Node 22, Type 0, BuildingBlock: NUHRAL_clean_sbu_3, # of connection points: 8
#     Node 23, Type 0, BuildingBlock: NUHRAL_clean_sbu_3, # of connection points: 8
#     Node 24, Type 0, BuildingBlock: NUHRAL_clean_sbu_3, # of connection points: 8
#     Node 25, Type 0, BuildingBlock: NUHRAL_clean_sbu_3, # of connection points: 8
#     Node 26, Type 0, BuildingBlock: NUHRAL_clean_sbu_3, # of connection points: 8
#     Node 27, Type 0, BuildingBlock: NUHRAL_clean_sbu_3, # of connection points: 8
#     Node 28, Type 0, BuildingBlock: NUHRAL_clean_sbu_3, # of connection points: 8
#     Node 29, Type 0, BuildingBlock: NUHRAL_clean_sbu_3, # of connection points: 8
#     Node 30, Type 0, BuildingBlock: NUHRAL_clean_sbu_3, # of connection points: 8
#     Node 31, Type 0, BuildingBlock: NUHRAL_clean_sbu_3, # of connection points: 8
#     Edge 32, Type (0, 0), BuildingBlock: AJUNOK_clean_linker_0, # of connection points: 2
#     Edge 33, Type (0, 0), BuildingBlock: AJUNOK_clean_linker_0, # of connection points: 2
#     Edge 34, Type (0, 0), BuildingBlock: AJUNOK_clean_linker_0, # of connection points: 2
#     Edge 35, Type (0, 0), BuildingBlock: AJUNOK_clean_linker_0, # of connection points: 2
#     Edge 36, Type (0, 0), BuildingBlock: AJUNOK_clean_linker_0, # of connection points: 2
#     Edge 37, Type (0, 0), BuildingBlock: AJUNOK_clean_linker_0, # of connection points: 2
#     Edge 38, Type (0, 0), BuildingBlock: AJUNOK_clean_linker_0, # of connection points: 2
#     Edge 39, Type (0, 0), BuildingBlock: AJUNOK_clean_linker_0, # of connection points: 2
#     Edge 40, Type (0, 0), BuildingBlock: AJUNOK_clean_linker_0, # of connection points: 2
#     Edge 41, Type (0, 0), BuildingBlock: AJUNOK_clean_linker_0, # of connection points: 2
#     Edge 42, Type (0, 0), BuildingBlock: AJUNOK_clean_linker_0, # of connection points: 2
#     Edge 43, Type (0, 0), BuildingBlock: AJUNOK_clean_linker_0, # of connection points: 2
#     Edge 44, Type (0, 0), BuildingBlock: AJUNOK_clean_linker_0, # of connection points: 2
#     Edge 45, Type (0, 0), BuildingBlock: AJUNOK_clean_linker_0, # of connection points: 2
#     Edge 46, Type (0, 0), BuildingBlock: AJUNOK_clean_linker_0, # of connection points: 2
#     Edge 47, Type (0, 0), BuildingBlock: AJUNOK_clean_linker_0, # of connection points: 2
#     Edge 48, Type (0, 0), BuildingBlock: AJUNOK_clean_linker_0, # of connection points: 2
#     Edge 49, Type (0, 0), BuildingBlock: AJUNOK_clean_linker_0, # of connection points: 2
#     Edge 50, Type (0, 0), BuildingBlock: AJUNOK_clean_linker_0, # of connection points: 2
#     Edge 51, Type (0, 0), BuildingBlock: AJUNOK_clean_linker_0, # of connection points: 2
#     Edge 52, Type (0, 0), BuildingBlock: AJUNOK_clean_linker_0, # of connection points: 2
#     Edge 53, Type (0, 0), BuildingBlock: AJUNOK_clean_linker_0, # of connection points: 2
#     Edge 54, Type (0, 0), BuildingBlock: AJUNOK_clean_linker_0, # of connection points: 2
#     Edge 55, Type (0, 0), BuildingBlock: AJUNOK_clean_linker_0, # of connection points: 2
#     Edge 56, Type (0, 0), BuildingBlock: AJUNOK_clean_linker_0, # of connection points: 2
#     Edge 57, Type (0, 0), BuildingBlock: AJUNOK_clean_linker_0, # of connection points: 2
#     Edge 58, Type (0, 0), BuildingBlock: AJUNOK_clean_linker_0, # of connection points: 2
#     Edge 59, Type (0, 0), BuildingBlock: AJUNOK_clean_linker_0, # of connection points: 2
#     Edge 60, Type (0, 0), BuildingBlock: AJUNOK_clean_linker_0, # of connection points: 2
#     Edge 61, Type (0, 0), BuildingBlock: AJUNOK_clean_linker_0, # of connection points: 2
#     Edge 62, Type (0, 0), BuildingBlock: AJUNOK_clean_linker_0, # of connection points: 2
#     Edge 63, Type (0, 0), BuildingBlock: AJUNOK_clean_linker_0, # of connection points: 2
#     Edge 64, Type (0, 0), BuildingBlock: AJUNOK_clean_linker_0, # of connection points: 2
#     Edge 65, Type (0, 0), BuildingBlock: AJUNOK_clean_linker_0, # of connection points: 2
#     Edge 66, Type (0, 0), BuildingBlock: AJUNOK_clean_linker_0, # of connection points: 2
#     Edge 67, Type (0, 0), BuildingBlock: AJUNOK_clean_linker_0, # of connection points: 2
#     Edge 68, Type (0, 0), BuildingBlock: AJUNOK_clean_linker_0, # of connection points: 2
#     Edge 69, Type (0, 0), BuildingBlock: AJUNOK_clean_linker_0, # of connection points: 2
#     Edge 70, Type (0, 0), BuildingBlock: AJUNOK_clean_linker_0, # of connection points: 2
#     Edge 71, Type (0, 0), BuildingBlock: AJUNOK_clean_linker_0, # of connection points: 2
#     Edge 72, Type (0, 0), BuildingBlock: AJUNOK_clean_linker_0, # of connection points: 2
#     Edge 73, Type (0, 0), BuildingBlock: AJUNOK_clean_linker_0, # of connection points: 2
#     Edge 74, Type (0, 0), BuildingBlock: AJUNOK_clean_linker_0, # of connection points: 2
#     Edge 75, Type (0, 0), BuildingBlock: AJUNOK_clean_linker_0, # of connection points: 2
#     Edge 76, Type (0, 0), BuildingBlock: AJUNOK_clean_linker_0, # of connection points: 2
#     Edge 77, Type (0, 0), BuildingBlock: AJUNOK_clean_linker_0, # of connection points: 2
#     Edge 78, Type (0, 0), BuildingBlock: AJUNOK_clean_linker_0, # of connection points: 2
#     Edge 79, Type (0, 0), BuildingBlock: AJUNOK_clean_linker_0, # of connection points: 2
#     Edge 80, Type (0, 0), BuildingBlock: AJUNOK_clean_linker_0, # of connection points: 2
#     Edge 81, Type (0, 0), BuildingBlock: AJUNOK_clean_linker_0, # of connection points: 2
#     Edge 82, Type (0, 0), BuildingBlock: AJUNOK_clean_linker_0, # of connection points: 2
#     Edge 83, Type (0, 0), BuildingBlock: AJUNOK_clean_linker_0, # of connection points: 2
#     Edge 84, Type (0, 0), BuildingBlock: AJUNOK_clean_linker_0, # of connection points: 2
#     Edge 85, Type (0, 0), BuildingBlock: AJUNOK_clean_linker_0, # of connection points: 2
#     Edge 86, Type (0, 0), BuildingBlock: AJUNOK_clean_linker_0, # of connection points: 2
#     Edge 87, Type (0, 0), BuildingBlock: AJUNOK_clean_linker_0, # of connection points: 2
#     Edge 88, Type (0, 0), BuildingBlock: AJUNOK_clean_linker_0, # of connection points: 2
#     Edge 89, Type (0, 0), BuildingBlock: AJUNOK_clean_linker_0, # of connection points: 2
#     Edge 90, Type (0, 0), BuildingBlock: AJUNOK_clean_linker_0, # of connection points: 2
#     Edge 91, Type (0, 0), BuildingBlock: AJUNOK_clean_linker_0, # of connection points: 2
#     Edge 92, Type (0, 0), BuildingBlock: AJUNOK_clean_linker_0, # of connection points: 2
#     Edge 93, Type (0, 0), BuildingBlock: AJUNOK_clean_linker_0, # of connection points: 2
#     Edge 94, Type (0, 0), BuildingBlock: AJUNOK_clean_linker_0, # of connection points: 2
#     Edge 95, Type (0, 0), BuildingBlock: AJUNOK_clean_linker_0, # of connection points: 2
#     Edge 96, Type (0, 0), BuildingBlock: AJUNOK_clean_linker_0, # of connection points: 2
#     Edge 97, Type (0, 0), BuildingBlock: AJUNOK_clean_linker_0, # of connection points: 2
#     Edge 98, Type (0, 0), BuildingBlock: AJUNOK_clean_linker_0, # of connection points: 2
#     Edge 99, Type (0, 0), BuildingBlock: AJUNOK_clean_linker_0, # of connection points: 2
#     Edge 100, Type (0, 0), BuildingBlock: AJUNOK_clean_linker_0, # of connection points: 2
#     Edge 101, Type (0, 0), BuildingBlock: AJUNOK_clean_linker_0, # of connection points: 2
#     Edge 102, Type (0, 0), BuildingBlock: AJUNOK_clean_linker_0, # of connection points: 2
#     Edge 103, Type (0, 0), BuildingBlock: AJUNOK_clean_linker_0, # of connection points: 2
#     Edge 104, Type (0, 0), BuildingBlock: AJUNOK_clean_linker_0, # of connection points: 2
#     Edge 105, Type (0, 0), BuildingBlock: AJUNOK_clean_linker_0, # of connection points: 2
#     Edge 106, Type (0, 0), BuildingBlock: AJUNOK_clean_linker_0, # of connection points: 2
#     Edge 107, Type (0, 0), BuildingBlock: AJUNOK_clean_linker_0, # of connection points: 2
#     Edge 108, Type (0, 0), BuildingBlock: AJUNOK_clean_linker_0, # of connection points: 2
#     Edge 109, Type (0, 0), BuildingBlock: AJUNOK_clean_linker_0, # of connection points: 2
#     Edge 110, Type (0, 0), BuildingBlock: AJUNOK_clean_linker_0, # of connection points: 2
#     Edge 111, Type (0, 0), BuildingBlock: AJUNOK_clean_linker_0, # of connection points: 2
#     Edge 112, Type (0, 0), BuildingBlock: AJUNOK_clean_linker_0, # of connection points: 2
#     Edge 113, Type (0, 0), BuildingBlock: AJUNOK_clean_linker_0, # of connection points: 2
#     Edge 114, Type (0, 0), BuildingBlock: AJUNOK_clean_linker_0, # of connection points: 2
#     Edge 115, Type (0, 0), BuildingBlock: AJUNOK_clean_linker_0, # of connection points: 2
#     Edge 116, Type (0, 0), BuildingBlock: AJUNOK_clean_linker_0, # of connection points: 2
#     Edge 117, Type (0, 0), BuildingBlock: AJUNOK_clean_linker_0, # of connection points: 2
#     Edge 118, Type (0, 0), BuildingBlock: AJUNOK_clean_linker_0, # of connection points: 2
#     Edge 119, Type (0, 0), BuildingBlock: AJUNOK_clean_linker_0, # of connection points: 2
#     Edge 120, Type (0, 0), BuildingBlock: AJUNOK_clean_linker_0, # of connection points: 2
#     Edge 121, Type (0, 0), BuildingBlock: AJUNOK_clean_linker_0, # of connection points: 2
#     Edge 122, Type (0, 0), BuildingBlock: AJUNOK_clean_linker_0, # of connection points: 2
#     Edge 123, Type (0, 0), BuildingBlock: AJUNOK_clean_linker_0, # of connection points: 2
#     Edge 124, Type (0, 0), BuildingBlock: AJUNOK_clean_linker_0, # of connection points: 2
#     Edge 125, Type (0, 0), BuildingBlock: AJUNOK_clean_linker_0, # of connection points: 2
#     Edge 126, Type (0, 0), BuildingBlock: AJUNOK_clean_linker_0, # of connection points: 2
#     Edge 127, Type (0, 0), BuildingBlock: AJUNOK_clean_linker_0, # of connection points: 2
#     Edge 128, Type (0, 0), BuildingBlock: AJUNOK_clean_linker_0, # of connection points: 2
#     Edge 129, Type (0, 0), BuildingBlock: AJUNOK_clean_linker_0, # of connection points: 2
#     Edge 130, Type (0, 0), BuildingBlock: AJUNOK_clean_linker_0, # of connection points: 2
#     Edge 131, Type (0, 0), BuildingBlock: AJUNOK_clean_linker_0, # of connection points: 2
#     Edge 132, Type (0, 0), BuildingBlock: AJUNOK_clean_linker_0, # of connection points: 2
#     Edge 133, Type (0, 0), BuildingBlock: AJUNOK_clean_linker_0, # of connection points: 2
#     Edge 134, Type (0, 0), BuildingBlock: AJUNOK_clean_linker_0, # of connection points: 2
#     Edge 135, Type (0, 0), BuildingBlock: AJUNOK_clean_linker_0, # of connection points: 2
#     Edge 136, Type (0, 0), BuildingBlock: AJUNOK_clean_linker_0, # of connection points: 2
#     Edge 137, Type (0, 0), BuildingBlock: AJUNOK_clean_linker_0, # of connection points: 2
#     Edge 138, Type (0, 0), BuildingBlock: AJUNOK_clean_linker_0, # of connection points: 2
#     Edge 139, Type (0, 0), BuildingBlock: AJUNOK_clean_linker_0, # of connection points: 2
#     Edge 140, Type (0, 0), BuildingBlock: AJUNOK_clean_linker_0, # of connection points: 2
#     Edge 141, Type (0, 0), BuildingBlock: AJUNOK_clean_linker_0, # of connection points: 2
#     Edge 142, Type (0, 0), BuildingBlock: AJUNOK_clean_linker_0, # of connection points: 2
#     Edge 143, Type (0, 0), BuildingBlock: AJUNOK_clean_linker_0, # of connection points: 2
#     Edge 144, Type (0, 0), BuildingBlock: AJUNOK_clean_linker_0, # of connection points: 2
#     Edge 145, Type (0, 0), BuildingBlock: AJUNOK_clean_linker_0, # of connection points: 2
#     Edge 146, Type (0, 0), BuildingBlock: AJUNOK_clean_linker_0, # of connection points: 2
#     Edge 147, Type (0, 0), BuildingBlock: AJUNOK_clean_linker_0, # of connection points: 2
#     Edge 148, Type (0, 0), BuildingBlock: AJUNOK_clean_linker_0, # of connection points: 2
#     Edge 149, Type (0, 0), BuildingBlock: AJUNOK_clean_linker_0, # of connection points: 2
#     Edge 150, Type (0, 0), BuildingBlock: AJUNOK_clean_linker_0, # of connection points: 2
#     Edge 151, Type (0, 0), BuildingBlock: AJUNOK_clean_linker_0, # of connection points: 2
#     Edge 152, Type (0, 0), BuildingBlock: AJUNOK_clean_linker_0, # of connection points: 2
#     Edge 153, Type (0, 0), BuildingBlock: AJUNOK_clean_linker_0, # of connection points: 2
#     Edge 154, Type (0, 0), BuildingBlock: AJUNOK_clean_linker_0, # of connection points: 2
#     Edge 155, Type (0, 0), BuildingBlock: AJUNOK_clean_linker_0, # of connection points: 2
#     Edge 156, Type (0, 0), BuildingBlock: AJUNOK_clean_linker_0, # of connection points: 2
#     Edge 157, Type (0, 0), BuildingBlock: AJUNOK_clean_linker_0, # of connection points: 2
#     Edge 158, Type (0, 0), BuildingBlock: AJUNOK_clean_linker_0, # of connection points: 2
#     Edge 159, Type (0, 0), BuildingBlock: AJUNOK_clean_linker_0, # of connection points: 2
# Relax obj value: 0.058
# Max RMSD: 0.153
# Mean RMSD: 0.153
data_MOF--net-sou--node1-NUHRAL_clean_sbu_3--edge1-AJUNOK_clean_linker_0
_symmetry_space_group_name_H-M    P1
_symmetry_Int_Tables_number       1
_symmetry_cell_setting            triclinic
loop_
_symmetry_equiv_pos_as_xyz
'x, y, z'
_cell_length_a     70.354127
_cell_length_b     33.962919
_cell_length_c     29.998051
_cell_angle_alpha  90.065068
_cell_angle_beta   89.872191
_cell_angle_gamma 90.121693
loop_
_atom_site_label
_atom_site_type_symbol
_atom_site_fract_x
_atom_site_fract_y
_atom_site_fract_z
_atom_type_partial_charge
C0 C 0.08048 0.3588 0.02926 0.0
C1 C 0.09175 0.39091 0.01327 0.0
C2 C 0.10948 0.40003 0.03403 0.0
C3 C 0.11348 0.37967 0.07339 0.0
C4 C 0.10628 0.34186 0.07933 0.0
C5 C 0.08901 0.33202 0.05916 0.0
O6 O 0.01366 0.40046 0.0514 0.0
Tb7 Tb 0.0274 0.36682 0.99698 0.0
O8 O 0.02748 0.42663 0.96881 0.0
O9 O 0.01431 0.35635 0.109 0.0
Eu10 Eu 1.00164 0.30575 0.06871 0.0
O11 O 0.05562 0.36668 0.97443 0.0
C12 C 0.96594 0.31901 0.05282 0.0
O13 O 0.04758 0.33956 0.03839 0.0
O14 O 0.01626 0.27282 0.01262 0.0
O15 O 0.01355 0.31895 0.95757 0.0
C16 C 0.06153 0.34812 0.01036 0.0
C17 C 0.01976 0.22835 0.10488 0.0
O18 O 0.03433 0.24221 0.08236 0.0
C19 C 0.0137 0.39305 0.09458 0.0
C20 C 0.0147 0.28139 0.97017 0.0
O21 O 1.00437 0.24998 0.10892 0.0
C22 C 0.94662 0.31124 0.03506 0.0
C23 C 0.91634 0.33954 0.01292 0.0
C24 C 0.93532 0.34438 0.02551 0.0
C25 C 0.93851 0.27293 0.03146 0.0
C26 C 0.91931 0.26883 0.01802 0.0
C27 C 0.90862 0.30226 0.00928 0.0
C28 C 0.01225 0.44946 0.96878 0.0
O29 O 0.99547 0.43292 0.97359 0.0
O30 O 0.97194 0.29884 0.08738 0.0
O31 O 0.9796 0.33177 0.02633 0.0
H32 H 0.08694 0.40688 0.9844 0.0
H33 H 0.12504 0.38891 0.09479 0.0
H34 H 0.08262 0.3035 0.06546 0.0
H35 H 0.94104 0.37386 0.02939 0.0
H36 H 0.94689 0.24708 0.03902 0.0
H37 H 0.89375 0.29928 0.99999 0.0
C38 C 0.19004 0.93427 0.0292 0.0
C39 C 0.17885 0.90118 0.01598 0.0
C40 C 0.15925 0.89938 0.02747 0.0
C41 C 0.15129 0.93142 0.04993 0.0
C42 C 0.16218 0.9631 0.065 0.0
C43 C 0.18157 0.96432 0.05479 0.0
O44 O 0.25667 0.89092 0.0549 0.0
Tb45 Tb 0.24432 0.92786 1.00132 0.0
O46 O 0.24693 0.87111 0.96825 0.0
O47 O 0.2594 0.93503 0.11199 0.0
Eu48 Eu 0.27273 0.98366 0.06872 0.0
O49 O 0.21634 0.92204 0.97856 0.0
C50 C 0.30775 0.96711 0.0504 0.0
O51 O 0.22307 0.95346 0.04132 0.0
O52 O 0.25933 0.0217 0.01541 0.0
O53 O 0.25661 0.97602 0.95954 0.0
C54 C 0.20976 0.94177 0.0131 0.0
C55 C 0.25661 0.06015 0.11196 0.0
O56 O 0.24045 0.04275 0.1022 0.0
C57 C 0.25794 0.8982 0.09796 0.0
C58 C 0.25811 1.01336 0.97273 0.0
O59 O 0.27265 0.04138 0.10527 0.0
C60 C 0.32711 0.9748 0.03332 0.0
C61 C 0.35858 0.94727 0.023 0.0
C62 C 0.33926 0.94204 0.03147 0.0
C63 C 0.33447 1.01301 0.02378 0.0
C64 C 0.35403 1.01722 0.01309 0.0
C65 C 0.36573 0.98438 0.01482 0.0
C66 C 0.26265 0.85055 0.9727 0.0
O67 O 0.27843 0.86947 0.98249 0.0
O68 O 0.30243 0.98475 0.0874 0.0
O69 O 0.29374 0.95818 0.02296 0.0
H70 H 0.18532 0.87736 0.99737 0.0
H71 H 0.13626 0.93082 0.05787 0.0
H72 H 0.18998 0.98919 0.06607 0.0
H73 H 0.3339 0.91276 0.03879 0.0
H74 H 0.32529 0.03855 0.02475 0.0
H75 H 0.3809 0.98758 0.00873 0.0
C76 C 0.08485 0.93552 0.22777 0.0
C77 C 0.09416 0.89948 0.23823 0.0
C78 C 0.11259 0.89213 0.22126 0.0
C79 C 0.12129 0.92019 0.19463 0.0
C80 C 0.11342 0.95741 0.18849 0.0
C81 C 0.09488 0.9646 0.20349 0.0
O82 O 0.02207 0.89324 0.19447 0.0
Tb83 Tb 0.03111 0.93039 0.25139 0.0
O84 O 0.02693 0.87303 0.28153 0.0
O85 O 0.01227 0.93702 0.14085 0.0
Eu86 Eu 1.00094 0.98543 0.18669 0.0
O87 O 0.05847 0.92499 0.27816 0.0
C88 C 0.96571 0.97113 0.20593 0.0
O89 O 0.05301 0.9598 0.21742 0.0
O90 O 0.0164 0.02162 0.23897 0.0
O91 O 0.01672 0.97535 0.29349 0.0
C92 C 0.06583 0.9464 0.24577 0.0
C93 C 0.01801 0.06218 0.14646 0.0
O94 O 0.03399 0.04456 0.15684 0.0
C95 C 0.01685 0.90084 0.15311 0.0
C96 C 0.01665 1.01289 0.28151 0.0
O97 O 1.00179 0.04356 0.15146 0.0
C98 C 0.94664 0.98006 0.22412 0.0
C99 C 0.9161 0.95307 0.24665 0.0
C100 C 0.9352 0.94768 0.23546 0.0
C101 C 0.93855 1.0183 0.22389 0.0
C102 C 0.91917 0.02326 0.23532 0.0
C103 C 0.90833 0.99061 0.24738 0.0
C104 C 1.01062 0.85504 0.27459 0.0
O105 O 0.99582 0.8768 0.26456 0.0
O106 O 0.97117 0.98943 0.16949 0.0
O107 O 0.97973 0.96042 0.23249 0.0
H108 H 0.08731 0.87779 0.25932 0.0
H109 H 0.13519 0.91365 0.1806 0.0
H110 H 0.08851 0.99315 0.19751 0.0
H111 H 0.94081 0.91801 0.23291 0.0
H112 H 0.94701 0.04352 0.21399 0.0
H113 H 0.89335 0.99424 0.2552 0.0
C114 C 0.19076 0.36263 0.22376 0.0
C115 C 0.17861 0.39191 0.24263 0.0
C116 C 0.15993 0.39734 0.22617 0.0
C117 C 0.15468 0.37634 0.18828 0.0
C118 C 0.16454 0.34264 0.1754 0.0
C119 C 0.18297 0.33641 0.1918 0.0
O120 O 0.25887 0.39948 0.20247 0.0
Tb121 Tb 0.24505 0.3637 0.25465 0.0
O122 O 0.24941 0.40547 0.30921 0.0
O123 O 0.26031 0.35422 0.14556 0.0
Eu124 Eu 0.27479 0.30528 0.18546 0.0
O125 O 0.21717 0.37906 0.27205 0.0
C126 C 0.31056 0.32088 0.19858 0.0
O127 O 0.22279 0.33459 0.22059 0.0
O128 O 0.26346 0.26737 0.24168 0.0
O129 O 0.25583 0.3134 0.29541 0.0
C130 C 0.20977 0.35376 0.24379 0.0
C131 C 0.25616 0.22751 0.15258 0.0
O132 O 0.24161 0.24372 0.17303 0.0
C133 C 0.25961 0.39121 0.15946 0.0
C134 C 0.25918 0.27644 0.28299 0.0
O135 O 0.27173 0.24852 0.14698 0.0
C136 C 0.32837 0.30925 0.22167 0.0
C137 C 0.35654 0.33116 0.26394 0.0
C138 C 0.33924 0.33945 0.24156 0.0
C139 C 0.33606 0.2708 0.22024 0.0
C140 C 0.35246 0.26266 0.24546 0.0
C141 C 0.35971 0.2916 0.27364 0.0
C142 C 0.25492 0.44283 0.31148 0.0
O143 O 0.25657 0.45782 0.35169 0.0
O144 O 0.30444 0.29937 0.16499 0.0
O145 O 0.29679 0.33554 0.22343 0.0
H146 H 0.18333 0.40894 0.27108 0.0
H147 H 0.14137 0.38309 0.17179 0.0
H148 H 0.19079 0.31056 0.18127 0.0
H149 H 0.33406 0.36913 0.238 0.0
H150 H 0.32976 0.24816 0.19951 0.0
H151 H 0.36984 0.28232 0.29814 0.0
C152 C 0.07895 0.7305 0.9729 0.0
C153 C 0.08627 0.76921 0.97827 0.0
C154 C 0.10407 0.77443 0.9996 0.0
C155 C 0.11341 0.74195 0.01717 0.0
C156 C 0.10797 0.70381 0.00585 0.0
C157 C 0.09055 0.69841 0.98378 0.0
O158 O 0.01189 0.76939 0.98516 0.0
Tb159 Tb 0.02631 0.73354 0.93414 0.0
O160 O 0.02571 0.78917 0.89769 0.0
O161 O 0.01277 0.72676 0.04366 0.0
Eu162 Eu 1.00011 0.67373 0.00609 0.0
O163 O 0.05499 0.73906 0.9161 0.0
C164 C 0.96339 0.68407 0.99873 0.0
O165 O 0.04621 0.709 0.9782 0.0
O166 O 0.01319 0.63704 0.9507 0.0
O167 O 0.01454 0.68324 0.89456 0.0
C168 C 0.0604 0.72041 0.95231 0.0
C169 C 0.01357 0.59482 0.06252 0.0
O170 O 0.01857 0.58076 0.10154 0.0
C171 C 0.01248 0.76331 0.02849 0.0
C172 C 0.01426 0.64573 0.90795 0.0
O173 O 1.00716 0.63149 0.06194 0.0
C174 C 0.94403 0.67573 0.98018 0.0
C175 C 0.91718 0.69712 0.93469 0.0
C176 C 0.93588 0.70266 0.94967 0.0
C177 C 0.93233 0.64521 0.99797 0.0
C178 C 0.91356 0.63919 0.98191 0.0
C179 C 0.90738 0.66309 0.94705 0.0
C180 C 1.00985 0.80902 0.89224 0.0
O181 O 0.99358 0.7925 0.90302 0.0
O182 O 0.97115 0.65895 0.02658 0.0
O183 O 0.976 0.7033 0.97442 0.0
H184 H 0.0785 0.79438 0.96582 0.0
H185 H 0.12623 0.74682 0.03643 0.0
H186 H 0.08611 0.66947 0.97289 0.0
H187 H 0.94372 0.7285 0.93902 0.0
H188 H 0.93763 0.62757 0.02519 0.0
H189 H 0.89387 0.65698 0.93111 0.0
C190 C 0.69725 0.05317 0.97433 0.0
C191 C 0.68894 1.01506 0.98006 0.0
C192 C 0.66929 1.01199 0.991 0.0
C193 C 0.65854 0.04614 0.99277 0.0
C194 C 0.66674 0.08304 0.9901 0.0
C195 C 0.68605 0.08679 0.98089 0.0
O196 O 0.76534 1.01884 0.98793 0.0
Tb197 Tb 0.7506 0.0522 0.9357 0.0
O198 O 0.75257 0.99822 0.89648 0.0
O199 O 0.76306 0.06306 0.04432 0.0
Eu200 Eu 0.77655 0.11454 0.00552 0.0
O201 O 0.72214 0.04106 0.92048 0.0
C202 C 0.81357 0.10601 0.00547 0.0
O203 O 0.73021 0.0761 0.98 0.0
O204 O 0.7668 0.14946 0.94583 0.0
O205 O 0.76027 0.10196 0.8925 0.0
C206 C 0.71642 0.06078 0.95571 0.0
C207 C 0.75693 0.19094 0.05762 0.0
O208 O 0.74825 0.20341 0.09377 0.0
C209 C 0.7635 0.0261 0.03066 0.0
C210 C 0.76353 0.1393 0.90415 0.0
O211 O 0.76357 0.15436 0.05833 0.0
C212 C 0.83307 0.11263 0.98593 0.0
C213 C 0.86053 0.08771 0.94291 0.0
C214 C 0.84132 0.08425 0.95653 0.0
C215 C 0.84455 0.14466 1.00064 0.0
C216 C 0.86351 0.14841 0.98571 0.0
C217 C 0.87099 0.12009 0.95737 0.0
C218 C 0.76693 0.9737 0.90077 0.0
O219 O 0.78219 0.98438 0.92276 0.0
O220 O 0.80478 0.1348 0.02667 0.0
O221 O 0.80178 0.08169 0.98513 0.0
H222 H 0.69742 0.98878 0.97568 0.0
H223 H 0.64319 0.04396 0.99607 0.0
H224 H 0.69211 0.11595 0.97639 0.0
H225 H 0.83306 0.05922 0.94525 0.0
H226 H 0.83884 0.16642 0.02344 0.0
H227 H 0.88551 0.1238 0.94573 0.0
C228 C 0.07845 0.05862 0.78046 0.0
C229 C 0.08703 0.02059 0.78052 0.0
C230 C 0.10546 1.01546 0.76154 0.0
C231 C 0.11411 0.04745 0.74072 0.0
C232 C 0.10714 0.08513 0.74653 0.0
C233 C 0.08911 0.09086 0.76487 0.0
O234 O 0.01241 0.01974 0.76714 0.0
Tb235 Tb 0.02578 0.05544 0.82016 0.0
O236 O 0.02371 0.99956 0.85656 0.0
O237 O 1.00948 0.0645 0.71063 0.0
Eu238 Eu 0.99624 0.11466 0.75135 0.0
O239 O 0.05444 0.04787 0.83726 0.0
C240 C 0.95934 0.10477 0.75606 0.0
O241 O 0.04596 0.08193 0.7779 0.0
O242 O 1.00749 0.15116 0.8081 0.0
O243 O 0.01469 0.10502 0.86233 0.0
C244 C 0.06007 0.0684 0.80245 0.0
C245 C 0.0139 0.19424 0.70263 0.0
O246 O 0.02235 0.20884 0.66722 0.0
C247 C 1.01144 0.02786 0.72431 0.0
C248 C 1.01111 0.14207 0.8498 0.0
O249 O 1.00738 0.15763 0.69956 0.0
C250 C 0.94017 0.11401 0.77583 0.0
C251 C 0.91179 0.09313 0.81833 0.0
C252 C 0.93056 0.08591 0.80328 0.0
C253 C 0.93007 0.14811 0.76222 0.0
C254 C 0.9117 0.15548 0.77888 0.0
C255 C 0.90354 0.12938 0.80878 0.0
C256 C 1.00823 0.97763 0.85373 0.0
O257 O 0.99273 0.99342 0.83728 0.0
O258 O 0.96767 0.13094 0.73002 0.0
O259 O 0.97154 0.08358 0.77915 0.0
H260 H 0.07991 0.99612 0.79656 0.0
H261 H 0.12795 0.04402 0.72504 0.0
H262 H 0.08397 0.12065 0.76984 0.0
H263 H 0.93733 0.05823 0.81143 0.0
H264 H 0.93624 0.16845 0.73843 0.0
H265 H 0.88957 0.13623 0.82223 0.0
C266 C 0.69414 0.7263 0.77519 0.0
C267 C 0.68371 0.76222 0.77479 0.0
C268 C 0.66628 0.76426 0.75075 0.0
C269 C 0.66149 0.73239 0.72358 0.0
C270 C 0.66862 0.69557 0.73376 0.0
C271 C 0.68547 0.69245 0.75764 0.0
O272 O 0.75938 0.76859 0.76428 0.0
Tb273 Tb 0.74627 0.7325 0.81767 0.0
O274 O 0.74895 0.78595 0.85782 0.0
O275 O 0.76436 0.72293 0.70971 0.0
Eu276 Eu 0.78055 0.68016 0.75467 0.0
O277 O 0.71748 0.7443 0.83125 0.0
C278 C 0.81621 0.69965 0.76075 0.0
O279 O 0.72632 0.70283 0.77841 0.0
O280 O 0.77205 0.64282 0.8143 0.0
O281 O 0.75502 0.68308 0.86229 0.0
C282 C 0.71207 0.71963 0.7999 0.0
C283 C 0.76203 0.59904 0.73446 0.0
O284 O 0.74679 0.61881 0.74635 0.0
C285 C 0.76133 0.75976 0.72177 0.0
C286 C 0.76301 0.64862 0.85219 0.0
O287 O 0.77782 0.61883 0.72689 0.0
C288 C 0.8353 0.68801 0.77766 0.0
C289 C 0.86446 0.70655 0.81703 0.0
C290 C 0.84578 0.71532 0.8037 0.0
C291 C 0.84406 0.65215 0.76452 0.0
C292 C 0.86277 0.64374 0.77825 0.0
C293 C 0.87208 0.66998 0.80622 0.0
C294 C 0.76405 0.80874 0.85374 0.0
O295 O 0.77891 0.79606 0.83146 0.0
O296 O 0.80908 0.67952 0.72708 0.0
O297 O 0.80327 0.71132 0.78987 0.0
H298 H 0.68858 0.78712 0.79424 0.0
H299 H 0.64942 0.73415 0.70127 0.0
H300 H 0.69113 0.66347 0.76498 0.0
H301 H 0.8396 0.74343 0.8127 0.0
H302 H 0.83668 0.63157 0.74299 0.0
H303 H 0.88596 0.66197 0.81915 0.0
C304 C 0.08554 0.85103 0.52745 0.0
C305 C 0.09544 0.88673 0.5181 0.0
C306 C 0.11448 0.89144 0.53245 0.0
C307 C 0.12334 0.86035 0.55406 0.0
C308 C 0.11417 0.82465 0.5622 0.0
C309 C 0.0951 0.82038 0.54991 0.0
O310 O 0.02346 0.89666 0.56157 0.0
Tb311 Tb 0.03158 0.85827 0.50488 0.0
O312 O 0.02708 0.91511 0.47346 0.0
O313 O 1.0098 0.85608 0.61463 0.0
Eu314 Eu 0.99971 0.8054 0.57096 0.0
O315 O 0.05902 0.86389 0.47818 0.0
C316 C 0.96444 0.81728 0.55164 0.0
O317 O 0.0533 0.82869 0.53872 0.0
O318 O 0.01483 0.76811 0.51944 0.0
O319 O 0.01724 0.81253 0.46325 0.0
C320 C 0.06618 0.84198 0.51026 0.0
C321 C 0.01732 0.7292 0.61175 0.0
O322 O 0.0331 0.74557 0.59723 0.0
C323 C 0.01621 0.89086 0.60172 0.0
C324 C 0.01528 0.77546 0.47659 0.0
O325 O 1.00143 0.74945 0.61047 0.0
C326 C 0.94522 0.80941 0.53423 0.0
C327 C 0.91431 0.83715 0.51745 0.0
C328 C 0.93341 0.84237 0.52836 0.0
C329 C 0.93766 0.77092 0.52812 0.0
C330 C 0.91837 0.76658 0.51575 0.0
C331 C 0.90714 0.79976 0.51074 0.0
C332 C 1.01074 0.93293 0.48036 0.0
O333 O 0.99611 0.91134 0.49261 0.0
O334 O 0.96996 0.79877 0.5878 0.0
O335 O 0.97833 0.8289 0.52505 0.0
H336 H 0.08855 0.91023 0.49993 0.0
H337 H 0.13797 0.86407 0.56468 0.0
H338 H 0.08786 0.79281 0.5567 0.0
H339 H 0.93883 0.87186 0.53425 0.0
H340 H 0.94651 0.74521 0.5329 0.0
H341 H 0.89228 0.7964 0.50152 0.0
C342 C 0.19193 0.43014 0.5245 0.0
C343 C 0.18045 0.39762 0.51112 0.0
C344 C 0.16141 0.39461 0.52576 0.0
C345 C 0.15398 0.42422 0.55253 0.0
C346 C 0.16454 0.45711 0.56507 0.0
C347 C 0.18374 0.45972 0.55204 0.0
O348 O 0.25657 0.38718 0.55331 0.0
Tb349 Tb 0.24642 0.42487 0.49853 0.0
O350 O 0.25375 0.3864 0.44245 0.0
O351 O 0.26182 0.43264 0.60949 0.0
Eu352 Eu 0.27251 0.48427 0.56705 0.0
O353 O 0.21875 0.40959 0.47886 0.0
C354 C 0.30748 0.47287 0.54444 0.0
O355 O 0.22396 0.45743 0.52673 0.0
O356 O 0.2561 0.52062 0.51679 0.0
O357 O 0.25912 0.47572 0.46136 0.0
C358 C 0.21116 0.437 0.50434 0.0
C359 C 0.25624 0.55893 0.61408 0.0
O360 O 0.24009 0.54092 0.60587 0.0
C361 C 0.25915 0.39582 0.59594 0.0
C362 C 0.25725 0.51296 0.47408 0.0
O363 O 0.2723 0.54101 0.60534 0.0
C364 C 0.32671 0.48044 0.52675 0.0
C365 C 0.35722 0.45109 0.5093 0.0
C366 C 0.33787 0.44705 0.51847 0.0
C367 C 0.33503 0.51853 0.52337 0.0
C368 C 0.35463 0.52185 0.51322 0.0
C369 C 0.36541 0.48812 0.50777 0.0
C370 C 0.26011 0.34965 0.44018 0.0
O371 O 0.26477 0.33636 0.4005 0.0
O372 O 0.30244 0.48954 0.58218 0.0
O373 O 0.2933 0.46218 0.51832 0.0
H374 H 0.18618 0.37511 0.48932 0.0
H375 H 0.13932 0.42184 0.56361 0.0
H376 H 0.19198 0.48526 0.56186 0.0
H377 H 0.33168 0.41785 0.52109 0.0
H378 H 0.32657 0.54468 0.52894 0.0
H379 H 0.38061 0.49093 0.50179 0.0
C380 C 0.08438 0.43219 0.72533 0.0
C381 C 0.09569 0.39987 0.7398 0.0
C382 C 0.11321 0.39107 0.71794 0.0
C383 C 0.11678 0.41164 0.6785 0.0
C384 C 0.10972 0.44964 0.67349 0.0
C385 C 0.09271 0.4594 0.69527 0.0
O386 O 0.02045 0.3895 0.69822 0.0
Tb387 Tb 0.03113 0.42337 0.75618 0.0
O388 O 0.02794 0.36322 0.78322 0.0
O389 O 1.0074 0.43302 0.64661 0.0
Eu390 Eu 0.99986 0.48507 0.69108 0.0
O391 O 0.05925 0.42034 0.77928 0.0
C392 C 0.96525 0.48292 0.71969 0.0
O393 O 0.05182 0.45353 0.71884 0.0
O394 O 0.01862 0.51462 0.74208 0.0
O395 O 0.01734 0.46986 0.79798 0.0
C396 C 0.06556 0.44194 0.7458 0.0
C397 C 0.01813 0.56104 0.64952 0.0
O398 O 0.03368 0.54598 0.66661 0.0
C399 C 0.01336 0.3976 0.65842 0.0
C400 C 0.01702 0.50726 0.78478 0.0
O401 O 1.00247 0.53991 0.6496 0.0
C402 C 0.94543 0.48205 0.73604 0.0
C403 C 0.91961 0.44499 0.76801 0.0
C404 C 0.93681 0.44569 0.74483 0.0
C405 C 0.93453 0.51678 0.74232 0.0
C406 C 0.91684 0.51487 0.76574 0.0
C407 C 0.91302 0.47938 0.78749 0.0
C408 C 1.01117 0.34546 0.782 0.0
O409 O 0.99613 0.36742 0.77473 0.0
O410 O 0.97028 0.50358 0.6846 0.0
O411 O 0.97888 0.46215 0.73843 0.0
H412 H 0.09104 0.38298 0.7683 0.0
H413 H 0.12718 0.40151 0.65463 0.0
H414 H 0.08631 0.48797 0.68978 0.0
H415 H 0.9429 0.41864 0.73197 0.0
H416 H 0.93989 0.54411 0.72885 0.0
H417 H 0.9021 0.47672 0.81253 0.0
C418 C 0.18825 0.84916 0.73225 0.0
C419 C 0.17651 0.88024 0.74854 0.0
C420 C 0.15818 0.88675 0.72993 0.0
C421 C 0.15294 0.86358 0.69342 0.0
C422 C 0.16273 0.82915 0.68268 0.0
C423 C 0.18065 0.82264 0.70076 0.0
O424 O 0.24809 0.89473 0.6924 0.0
Tb425 Tb 0.24195 0.85701 0.75096 0.0
O426 O 0.24735 0.91428 0.78033 0.0
O427 O 0.26409 0.85628 0.6407 0.0
Eu428 Eu 0.27346 0.80384 0.68314 0.0
O429 O 0.21499 0.86385 0.78051 0.0
C430 C 0.30929 0.81472 0.69838 0.0
O431 O 0.21985 0.82419 0.72338 0.0
O432 O 0.25952 0.76689 0.7376 0.0
O433 O 0.25755 0.81326 0.79216 0.0
C434 C 0.20728 0.83973 0.75113 0.0
C435 C 0.25429 0.72709 0.64815 0.0
O436 O 0.23942 0.74351 0.66706 0.0
C437 C 0.25648 0.89022 0.65326 0.0
C438 C 0.25873 0.77575 0.78011 0.0
O439 O 0.26999 0.74784 0.64365 0.0
C440 C 0.32782 0.80464 0.7182 0.0
C441 C 0.35738 0.8297 0.75085 0.0
C442 C 0.33974 0.83621 0.72974 0.0
C443 C 0.33493 0.76593 0.72145 0.0
C444 C 0.35228 0.75977 0.74366 0.0
C445 C 0.36129 0.79132 0.76441 0.0
C446 C 0.26359 0.9317 0.77084 0.0
O447 O 0.27769 0.90967 0.75661 0.0
O448 O 0.30295 0.79398 0.66447 0.0
O449 O 0.29585 0.82909 0.72446 0.0
H450 H 0.18141 0.89833 0.77594 0.0
H451 H 0.14037 0.87068 0.67433 0.0
H452 H 0.18843 0.79643 0.69115 0.0
H453 H 0.33527 0.86537 0.72009 0.0
H454 H 0.32727 0.74137 0.70698 0.0
H455 H 0.37267 0.78507 0.78734 0.0
C456 C 0.07813 0.23226 0.47638 0.0
C457 C 0.08649 0.27039 0.47705 0.0
C458 C 0.1057 0.27451 0.49024 0.0
C459 C 0.11629 0.24121 0.5001 0.0
C460 C 0.10817 0.20397 0.49989 0.0
C461 C 0.08887 0.19978 0.49007 0.0
O462 O 0.01398 0.27153 0.49147 0.0
Tb463 Tb 0.02575 0.23505 0.43757 0.0
O464 O 0.02327 0.28893 0.3985 0.0
O465 O 1.00582 0.22687 0.54607 0.0
Eu466 Eu 0.99393 0.17799 0.50151 0.0
O467 O 0.05423 0.24402 0.42073 0.0
C468 C 0.9575 0.18297 0.49338 0.0
O469 O 0.04585 0.20763 0.47882 0.0
O470 O 1.00584 0.14168 0.44467 0.0
O471 O 0.0158 0.18705 0.39268 0.0
C472 C 0.05984 0.22266 0.45477 0.0
C473 C 0.01554 0.09999 0.52444 0.0
O474 O 0.03027 0.12015 0.50993 0.0
C475 C 1.01023 0.26305 0.53341 0.0
C476 C 0.01168 0.15023 0.40428 0.0
O477 O 0.99969 0.11902 0.5334 0.0
C478 C 0.93639 0.18366 0.49094 0.0
C479 C 0.90679 0.21173 0.46451 0.0
C480 C 0.92666 0.20836 0.46096 0.0
C481 C 0.92558 0.15702 0.51713 0.0
C482 C 0.90546 0.15992 0.51939 0.0
C483 C 0.89781 0.19455 0.50131 0.0
C484 C 1.00832 0.31193 0.40284 0.0
O485 O 0.99354 0.29985 0.42587 0.0
O486 O 0.96594 0.16557 0.52714 0.0
O487 O 0.96903 0.19957 0.46396 0.0
H488 H 0.0784 0.29596 0.46696 0.0
H489 H 0.13137 0.24455 0.50687 0.0
H490 H 0.08251 0.17065 0.48982 0.0
H491 H 0.93426 0.22308 0.43429 0.0
H492 H 0.93323 0.13433 0.53427 0.0
H493 H 0.88322 0.20274 0.50712 0.0
C494 C 0.69558 0.55745 0.47823 0.0
C495 C 0.6882 0.51834 0.47994 0.0
C496 C 0.66877 0.51254 0.4907 0.0
C497 C 0.65722 0.54478 0.49767 0.0
C498 C 0.6641 0.58295 0.49827 0.0
C499 C 0.68356 0.58922 0.48958 0.0
O500 O 0.7635 0.52339 0.49353 0.0
Tb501 Tb 0.74873 0.55549 0.44038 0.0
O502 O 0.75036 0.50017 0.40351 0.0
O503 O 0.76324 0.56894 0.54991 0.0
Eu504 Eu 0.77744 0.61853 0.50844 0.0
O505 O 0.72018 0.54841 0.42299 0.0
C506 C 0.81311 0.60161 0.49384 0.0
O507 O 0.72839 0.58088 0.48374 0.0
O508 O 0.76245 0.65083 0.45196 0.0
O509 O 0.76041 0.60328 0.39769 0.0
C510 C 0.71438 0.56789 0.4584 0.0
C511 C 0.7606 0.70277 0.53436 0.0
O512 O 0.74435 0.68422 0.52911 0.0
C513 C 0.76269 0.5316 0.53637 0.0
C514 C 0.76084 0.64091 0.40971 0.0
O515 O 0.77639 0.68167 0.53481 0.0
C516 C 0.83294 0.60988 0.47792 0.0
C517 C 0.86169 0.58475 0.44072 0.0
C518 C 0.84241 0.58037 0.45283 0.0
C519 C 0.84331 0.64404 0.4911 0.0
C520 C 0.86249 0.64868 0.47779 0.0
C521 C 0.87108 0.61942 0.45249 0.0
C522 C 0.76572 0.47805 0.40414 0.0
O523 O 0.78137 0.49239 0.4217 0.0
O524 O 0.80693 0.61935 0.53013 0.0
O525 O 0.7995 0.59286 0.46517 0.0
H526 H 0.69714 0.49339 0.47194 0.0
H527 H 0.64213 0.53933 0.50179 0.0
H528 H 0.6893 0.61881 0.48963 0.0
H529 H 0.83491 0.55362 0.44392 0.0
H530 H 0.83661 0.66653 0.51134 0.0
H531 H 0.88564 0.62405 0.44168 0.0
C532 C 0.07677 0.55679 0.28391 0.0
C533 C 0.08558 0.51924 0.28714 0.0
C534 C 0.10243 0.51211 0.26259 0.0
C535 C 0.10913 0.54123 0.23408 0.0
C536 C 0.1046 0.58041 0.24228 0.0
C537 C 0.08667 0.58724 0.26195 0.0
O538 O 0.01513 0.519 0.26327 0.0
Tb539 Tb 0.02467 0.55454 0.32041 0.0
O540 O 0.02118 0.50103 0.35993 0.0
O541 O 1.00416 0.56282 0.21027 0.0
Eu542 Eu 0.99384 0.61292 0.25544 0.0
O543 O 0.05286 0.54486 0.34031 0.0
C544 C 0.95775 0.60796 0.27215 0.0
O545 O 0.04576 0.58589 0.28611 0.0
O546 O 1.00974 0.64773 0.30846 0.0
O547 O 0.01199 0.60137 0.36302 0.0
C548 C 0.05935 0.56835 0.30891 0.0
C549 C 0.01438 0.6897 0.22304 0.0
O550 O 0.0297 0.66971 0.23361 0.0
C551 C 1.00978 0.52711 0.22214 0.0
C552 C 1.01134 0.6389 0.35084 0.0
O553 O 0.99812 0.67067 0.21985 0.0
C554 C 0.93685 0.60682 0.28066 0.0
C555 C 0.90861 0.57153 0.30757 0.0
C556 C 0.92857 0.57522 0.30452 0.0
C557 C 0.9249 0.6373 0.26456 0.0
C558 C 0.90494 0.6343 0.26875 0.0
C559 C 0.89739 0.59938 0.28545 0.0
C560 C 1.00733 0.47602 0.35116 0.0
O561 O 0.9938 0.48606 0.32336 0.0
O562 O 0.96471 0.62651 0.23725 0.0
O563 O 0.97053 0.59117 0.29817 0.0
H564 H 0.07982 0.49671 0.30884 0.0
H565 H 0.12009 0.53275 0.21121 0.0
H566 H 0.08091 0.61676 0.26328 0.0
H567 H 0.93757 0.55361 0.32052 0.0
H568 H 0.93115 0.66333 0.24962 0.0
H569 H 0.88217 0.596 0.28475 0.0
C570 C 0.69457 0.22964 0.28301 0.0
C571 C 0.68677 0.26821 0.28518 0.0
C572 C 0.6675 0.27417 0.27343 0.0
C573 C 0.65654 0.24246 0.25963 0.0
C574 C 0.66416 0.20503 0.25554 0.0
C575 C 0.68313 0.19845 0.26757 0.0
O576 O 0.75993 0.27231 0.26671 0.0
Tb577 Tb 0.74724 0.23504 0.31885 0.0
O578 O 0.74787 0.29074 0.3547 0.0
O579 O 0.76713 0.22865 0.21017 0.0
Eu580 Eu 0.77842 0.17719 0.25251 0.0
O581 O 0.71882 0.23759 0.3384 0.0
C582 C 0.81494 0.18059 0.26222 0.0
O583 O 0.72737 0.20835 0.27568 0.0
O584 O 0.76502 0.14221 0.30943 0.0
O585 O 0.75965 0.18926 0.36288 0.0
C586 C 0.71326 0.21883 0.3023 0.0
C587 C 0.75695 0.09871 0.23054 0.0
O588 O 0.7418 0.11841 0.24321 0.0
C589 C 0.7631 0.26482 0.22416 0.0
C590 C 0.76181 0.15187 0.35113 0.0
O591 O 0.77242 0.11857 0.2201 0.0
C592 C 0.83599 0.18247 0.26775 0.0
C593 C 0.86353 0.21337 0.30278 0.0
C594 C 0.8438 0.21077 0.29675 0.0
C595 C 0.84833 0.15404 0.24833 0.0
C596 C 0.86824 0.15678 0.255 0.0
C597 C 0.87546 0.19023 0.27643 0.0
C598 C 0.76382 0.31066 0.35904 0.0
O599 O 0.77991 0.29378 0.34771 0.0
O600 O 0.80692 0.16328 0.22777 0.0
O601 O 0.80303 0.19711 0.29079 0.0
H602 H 0.69532 0.29274 0.29666 0.0
H603 H 0.64158 0.24716 0.2524 0.0
H604 H 0.68873 0.16872 0.26672 0.0
H605 H 0.83457 0.22864 0.31745 0.0
H606 H 0.84245 0.12892 0.23082 0.0
H607 H 0.8907 0.19275 0.28132 0.0
C608 C 0.58129 0.36175 0.53077 0.0
C609 C 0.59122 0.39775 0.5218 0.0
C610 C 0.60966 0.40428 0.5402 0.0
C611 C 0.61672 0.3757 0.5689 0.0
C612 C 0.60917 0.33792 0.57037 0.0
C613 C 0.59102 0.3312 0.55315 0.0
O614 O 0.5138 0.39901 0.55501 0.0
Tb615 Tb 0.52752 0.36647 0.49994 0.0
O616 O 0.52585 0.42608 0.47176 0.0
O617 O 0.5122 0.35409 0.61206 0.0
Eu618 Eu 0.5002 0.30421 0.56928 0.0
O619 O 0.55573 0.37096 0.47744 0.0
C620 C 0.46511 0.31584 0.5473 0.0
O621 O 0.54852 0.34078 0.54036 0.0
O622 O 0.51742 0.27263 0.51692 0.0
O623 O 0.51453 0.31724 0.46068 0.0
C624 C 0.56212 0.35182 0.51251 0.0
C625 C 0.51714 0.22858 0.61269 0.0
O626 O 0.5332 0.24703 0.6047 0.0
C627 C 0.51311 0.39091 0.59796 0.0
C628 C 0.51576 0.27994 0.47422 0.0
O629 O 0.50094 0.24611 0.60458 0.0
C630 C 0.44612 0.30814 0.52792 0.0
C631 C 0.41602 0.33703 0.50703 0.0
C632 C 0.43465 0.34141 0.52172 0.0
C633 C 0.43823 0.26997 0.52042 0.0
C634 C 0.41932 0.26667 0.50417 0.0
C635 C 0.40891 0.30045 0.49621 0.0
C636 C 0.51061 0.44858 0.47608 0.0
O637 O 0.49405 0.4316 0.48277 0.0
O638 O 0.47013 0.2977 0.5841 0.0
O639 O 0.47938 0.32797 0.52217 0.0
H640 H 0.58477 0.41982 0.50073 0.0
H641 H 0.63011 0.38025 0.58572 0.0
H642 H 0.58471 0.30216 0.55605 0.0
H643 H 0.43984 0.37049 0.53057 0.0
H644 H 0.44643 0.24378 0.52752 0.0
H645 H 0.39423 0.29811 0.48505 0.0
C646 C 0.69027 0.92893 0.52384 0.0
C647 C 0.67903 0.89641 0.50964 0.0
C648 C 0.6597 0.89345 0.5224 0.0
C649 C 0.65202 0.92248 0.54953 0.0
C650 C 0.6624 0.95574 0.56223 0.0
C651 C 0.68168 0.95851 0.55035 0.0
O652 O 0.75575 0.88732 0.5536 0.0
Tb653 Tb 0.74508 0.92591 0.49998 0.0
O654 O 0.75321 0.8863 0.44568 0.0
O655 O 0.7624 0.93145 0.6101 0.0
Eu656 Eu 0.77414 0.98242 0.56834 0.0
O657 O 0.71768 0.90951 0.47949 0.0
C658 C 0.80947 0.96887 0.55034 0.0
O659 O 0.72221 0.9563 0.52928 0.0
O660 O 0.76259 0.02187 0.51413 0.0
O661 O 0.75586 0.9766 0.45945 0.0
C662 C 0.70976 0.93603 0.5056 0.0
C663 C 0.75553 0.05928 0.60476 0.0
O664 O 0.74113 0.04477 0.58222 0.0
C665 C 0.7594 0.89497 0.59599 0.0
C666 C 0.75899 1.0135 0.47235 0.0
O667 O 0.77097 0.03781 0.60947 0.0
C668 C 0.82744 0.9802 0.52806 0.0
C669 C 0.85662 0.95458 0.4957 0.0
C670 C 0.8374 0.94983 0.50672 0.0
C671 C 0.83661 1.01682 0.53522 0.0
C672 C 0.85548 0.02248 0.52021 0.0
C673 C 0.86464 0.99203 0.49762 0.0
C674 C 0.76033 0.85013 0.4455 0.0
O675 O 0.76598 0.83621 0.40681 0.0
O676 O 0.80393 0.98867 0.5858 0.0
O677 O 0.79545 0.95504 0.52567 0.0
H678 H 0.68511 0.8741 0.4881 0.0
H679 H 0.63761 0.91867 0.5618 0.0
H680 H 0.68977 0.98411 0.56069 0.0
H681 H 0.83092 0.92092 0.50387 0.0
H682 H 0.82957 0.0398 0.55409 0.0
H683 H 0.8792 0.99636 0.48679 0.0
C684 C 0.58386 0.93318 0.72542 0.0
C685 C 0.59348 0.89911 0.74126 0.0
C686 C 0.6125 0.89169 0.72822 0.0
C687 C 0.62115 0.91749 0.69829 0.0
C688 C 0.61274 0.95298 0.68589 0.0
C689 C 0.59387 0.96032 0.69845 0.0
O690 O 0.51903 0.89141 0.69492 0.0
Tb691 Tb 0.52991 0.92957 0.74944 0.0
O692 O 0.52676 0.87325 0.78232 0.0
O693 O 0.51261 0.93557 0.63907 0.0
Eu694 Eu 0.49932 0.98426 0.68204 0.0
O695 O 0.55732 0.92517 0.7755 0.0
C696 C 0.46308 0.97214 0.69047 0.0
O697 O 0.5518 0.95674 0.7126 0.0
O698 O 0.50993 0.02066 0.74042 0.0
O699 O 0.51646 0.97406 0.7935 0.0
C700 C 0.56466 0.94481 0.74175 0.0
C701 C 0.51895 0.06185 0.65213 0.0
O702 O 0.53285 0.04661 0.67561 0.0
C703 C 0.51572 0.899 0.65245 0.0
C704 C 0.51281 1.01102 0.78225 0.0
O705 O 0.50384 0.04032 0.64368 0.0
C706 C 0.44426 0.98162 0.71003 0.0
C707 C 0.41464 0.95434 0.73946 0.0
C708 C 0.43224 0.94938 0.71813 0.0
C709 C 0.43744 0.02028 0.71839 0.0
C710 C 0.41945 0.0251 0.73896 0.0
C711 C 0.40926 0.99201 0.75235 0.0
C712 C 0.51036 0.85486 0.77934 0.0
O713 O 0.49518 0.87601 0.77077 0.0
O714 O 0.47035 0.99521 0.65966 0.0
O715 O 0.47584 0.95506 0.71614 0.0
H716 H 0.58651 0.87951 0.7646 0.0
H717 H 0.63513 0.91034 0.68529 0.0
H718 H 0.58718 0.98763 0.68847 0.0
H719 H 0.43659 0.92064 0.70635 0.0
H720 H 0.44585 0.04577 0.70923 0.0
H721 H 0.39612 0.99609 0.77076 0.0
C722 C 0.68928 0.35201 0.73114 0.0
C723 C 0.67828 0.38209 0.75186 0.0
C724 C 0.65937 0.38932 0.7379 0.0
C725 C 0.65227 0.36772 0.70195 0.0
C726 C 0.66216 0.33593 0.68383 0.0
C727 C 0.68082 0.32864 0.69756 0.0
O728 O 0.7509 0.39597 0.69615 0.0
Tb729 Tb 0.7431 0.35691 0.75204 0.0
O730 O 0.74782 0.41374 0.78341 0.0
O731 O 0.76265 0.35551 0.64089 0.0
Eu732 Eu 0.7731 0.30408 0.68407 0.0
O733 O 0.71601 0.36046 0.78101 0.0
C734 C 0.80823 0.31735 0.7045 0.0
O735 O 0.72108 0.32796 0.71836 0.0
O736 O 0.75761 0.26659 0.73536 0.0
O737 O 0.75844 0.31152 0.79111 0.0
C738 C 0.70841 0.34026 0.74791 0.0
C739 C 0.75632 0.22688 0.64228 0.0
O740 O 0.74014 0.24402 0.65219 0.0
C741 C 0.75691 0.3906 0.65491 0.0
C742 C 0.75846 0.27423 0.77813 0.0
O743 O 0.77236 0.24616 0.64755 0.0
C744 C 0.82776 0.30907 0.71974 0.0
C745 C 0.85957 0.33605 0.72814 0.0
C746 C 0.83985 0.34164 0.72633 0.0
C747 C 0.83546 0.27049 0.72191 0.0
C748 C 0.8554 0.26593 0.72388 0.0
C749 C 0.86695 0.29889 0.72051 0.0
C750 C 0.7643 0.43127 0.7767 0.0
O751 O 0.77866 0.4094 0.76368 0.0
O752 O 0.8028 0.30168 0.66652 0.0
O753 O 0.79428 0.32551 0.73252 0.0
H754 H 0.68412 0.3989 0.77931 0.0
H755 H 0.63844 0.37496 0.6883 0.0
H756 H 0.68848 0.30405 0.68316 0.0
H757 H 0.83398 0.37103 0.72902 0.0
H758 H 0.82623 0.24492 0.72179 0.0
H759 H 0.88229 0.295 0.71963 0.0
C760 C 0.5775 0.728 0.47308 0.0
C761 C 0.58693 0.76478 0.4807 0.0
C762 C 0.60375 0.76545 0.50771 0.0
C763 C 0.60766 0.73094 0.5312 0.0
C764 C 0.60302 0.69551 0.51132 0.0
C765 C 0.58713 0.69344 0.48425 0.0
O766 O 0.51099 0.769 0.48258 0.0
Tb767 Tb 0.52519 0.73363 0.43078 0.0
O768 O 0.52392 0.78842 0.39264 0.0
O769 O 0.50952 0.72573 0.54055 0.0
Eu770 Eu 0.49678 0.67317 0.50156 0.0
O771 O 0.55408 0.74398 0.41629 0.0
C772 C 0.45999 0.68269 0.49544 0.0
O773 O 0.54489 0.70651 0.47274 0.0
O774 O 0.50862 0.63645 0.44442 0.0
O775 O 0.51475 0.68306 0.38943 0.0
C776 C 0.55922 0.72158 0.44986 0.0
C777 C 0.51095 0.59814 0.56499 0.0
O778 O 0.51535 0.58703 0.60561 0.0
C779 C 0.5111 0.76235 0.52582 0.0
C780 C 0.51193 0.64575 0.40228 0.0
O781 O 0.50422 0.63437 0.56056 0.0
C782 C 0.44072 0.67567 0.47564 0.0
C783 C 0.4123 0.70294 0.43962 0.0
C784 C 0.43137 0.70702 0.45329 0.0
C785 C 0.43036 0.64042 0.48442 0.0
C786 C 0.41151 0.63614 0.46899 0.0
C787 C 0.4032 0.66695 0.44592 0.0
C788 C 0.50849 0.81039 0.39214 0.0
O789 O 0.49246 0.79544 0.40709 0.0
O790 O 0.46801 0.65487 0.51936 0.0
O791 O 0.47238 0.70538 0.47458 0.0
H792 H 0.58165 0.79121 0.46498 0.0
H793 H 0.61742 0.73044 0.55889 0.0
H794 H 0.5827 0.66523 0.47071 0.0
H795 H 0.4386 0.73482 0.44804 0.0
H796 H 0.43671 0.61692 0.50367 0.0
H797 H 0.3887 0.66345 0.43427 0.0
C798 C 0.19545 0.05685 0.4757 0.0
C799 C 0.18808 1.01817 0.48218 0.0
C800 C 0.16927 1.01346 0.4985 0.0
C801 C 0.15833 0.04644 0.5075 0.0
C802 C 0.16503 0.08378 0.49842 0.0
C803 C 0.18364 0.08939 0.48376 0.0
O804 O 0.26226 0.02138 0.49263 0.0
Tb805 Tb 0.24834 0.05364 0.43801 0.0
O806 O 0.25051 0.99768 0.40227 0.0
O807 O 0.26416 0.06833 0.54743 0.0
Eu808 Eu 0.27949 0.1149 0.50391 0.0
O809 O 0.21987 0.04433 0.42114 0.0
C810 C 0.31509 0.09601 0.49182 0.0
O811 O 0.22794 0.08052 0.47948 0.0
O812 O 0.26758 0.14863 0.44505 0.0
O813 O 0.2586 0.10156 0.39325 0.0
C814 C 0.21406 0.06587 0.45495 0.0
C815 C 0.26194 0.19947 0.52462 0.0
O816 O 0.2459 0.18041 0.51814 0.0
C817 C 0.26217 0.03092 0.53521 0.0
C818 C 0.26257 0.13864 0.40437 0.0
O819 O 0.27779 0.17869 0.52811 0.0
C820 C 0.33456 0.10557 0.47448 0.0
C821 C 0.36376 0.08227 0.4379 0.0
C822 C 0.34464 0.07616 0.45036 0.0
C823 C 0.34405 0.14139 0.48545 0.0
C824 C 0.363 0.1477 0.4713 0.0
C825 C 0.37222 0.1183 0.44752 0.0
C826 C 0.2662 0.9766 0.40428 0.0
O827 O 0.28152 0.99286 0.42123 0.0
O828 O 0.30878 0.11531 0.52701 0.0
O829 O 0.30153 0.08597 0.46359 0.0
H830 H 0.19662 0.99261 0.47422 0.0
H831 H 0.14375 0.04292 0.51905 0.0
H832 H 0.18853 0.11895 0.47604 0.0
H833 H 0.33783 0.04839 0.44243 0.0
H834 H 0.33687 0.16388 0.50476 0.0
H835 H 0.38673 0.12352 0.43658 0.0
C836 C 0.57808 0.06465 0.28007 0.0
C837 C 0.58798 0.02815 0.2825 0.0
C838 C 0.6054 0.02329 0.25871 0.0
C839 C 0.6111 0.05367 0.23019 0.0
C840 C 0.60439 0.09146 0.2374 0.0
C841 C 0.58722 0.09679 0.25984 0.0
O842 O 0.5139 0.0222 0.26501 0.0
Tb843 Tb 0.52599 0.05777 0.3195 0.0
O844 O 0.52432 1.002 0.35604 0.0
O845 O 0.5097 0.06772 0.20902 0.0
Eu846 Eu 0.49802 0.12012 0.24911 0.0
O847 O 0.55465 0.05059 0.33716 0.0
C848 C 0.46119 0.10917 0.2526 0.0
O849 O 0.54599 0.08842 0.2811 0.0
O850 O 0.50878 0.15358 0.30896 0.0
O851 O 0.51362 0.10518 0.36207 0.0
C852 C 0.5602 0.07368 0.30442 0.0
C853 C 0.5145 0.20124 0.19424 0.0
O854 O 0.52033 0.21357 0.15503 0.0
C855 C 0.51153 0.03078 0.22253 0.0
C856 C 0.5113 0.14286 0.35069 0.0
O857 O 0.50887 0.16368 0.19649 0.0
C858 C 0.44209 0.1151 0.27388 0.0
C859 C 0.41675 0.09276 0.32395 0.0
C860 C 0.43497 0.08759 0.30548 0.0
C861 C 0.42948 0.14422 0.2573 0.0
C862 C 0.41126 0.14973 0.27669 0.0
C863 C 0.40671 0.12699 0.314 0.0
C864 C 0.50896 0.97968 0.35388 0.0
O865 O 0.49348 0.99458 0.33624 0.0
O866 O 0.46924 0.1383 0.2304 0.0
O867 O 0.4736 0.08632 0.27276 0.0
H868 H 0.58268 1.0052 0.30418 0.0
H869 H 0.62371 0.0504 0.20964 0.0
H870 H 0.5819 0.12642 0.265 0.0
H871 H 0.44315 0.06177 0.3143 0.0
H872 H 0.43371 0.16091 0.22831 0.0
H873 H 0.39384 0.13299 0.33272 0.0
C874 C 0.19414 0.72931 0.27858 0.0
C875 C 0.18656 0.76699 0.26779 0.0
C876 C 0.16747 0.76986 0.25274 0.0
C877 C 0.1565 0.73585 0.25001 0.0
C878 C 0.16349 0.69949 0.26274 0.0
C879 C 0.18237 0.69597 0.27613 0.0
O880 O 0.26215 0.76748 0.26373 0.0
Tb881 Tb 0.24729 0.73445 0.31619 0.0
O882 O 0.24857 0.79049 0.35177 0.0
O883 O 0.26382 0.72249 0.20692 0.0
Eu884 Eu 0.27838 0.674 0.24911 0.0
O885 O 0.21869 0.74252 0.33254 0.0
C886 C 0.31382 0.69366 0.26184 0.0
O887 O 0.22732 0.70921 0.27217 0.0
O888 O 0.26609 0.63963 0.30773 0.0
O889 O 0.25766 0.68638 0.36045 0.0
C890 C 0.21327 0.72238 0.29734 0.0
C891 C 0.26197 0.5888 0.22112 0.0
O892 O 0.24546 0.6067 0.22319 0.0
C893 C 0.26178 0.75954 0.22072 0.0
C894 C 0.26169 0.64939 0.34908 0.0
O895 O 0.27767 0.61038 0.22337 0.0
C896 C 0.33338 0.68482 0.27865 0.0
C897 C 0.36083 0.70603 0.32275 0.0
C898 C 0.34183 0.71111 0.30961 0.0
C899 C 0.34472 0.65426 0.25993 0.0
C900 C 0.36384 0.64925 0.27343 0.0
C901 C 0.37085 0.67333 0.30723 0.0
C902 C 0.26472 0.80938 0.35761 0.0
O903 O 0.28071 0.79205 0.34641 0.0
O904 O 0.30769 0.67507 0.22604 0.0
O905 O 0.30016 0.70238 0.29048 0.0
H906 H 0.19522 0.79322 0.27123 0.0
H907 H 0.14182 0.73783 0.23907 0.0
H908 H 0.18771 0.66742 0.28634 0.0
H909 H 0.33387 0.73604 0.32225 0.0
H910 H 0.3389 0.63523 0.23435 0.0
H911 H 0.38481 0.66734 0.32097 0.0
C912 C 0.57991 0.86362 0.02294 0.0
C913 C 0.59205 0.89377 0.0062 0.0
C914 C 0.61171 0.89302 0.01548 0.0
C915 C 0.61906 0.86288 0.04113 0.0
C916 C 0.60762 0.8331 0.05883 0.0
C917 C 0.58791 0.83372 0.05011 0.0
O918 O 0.51071 0.90444 0.05098 0.0
Tb919 Tb 0.52435 0.87019 0.99707 0.0
O920 O 0.51861 0.91198 0.94237 0.0
O921 O 0.51378 0.86018 0.10842 0.0
Eu922 Eu 0.50191 0.80674 0.07077 0.0
O923 O 0.55231 0.88601 0.9805 0.0
C924 C 0.46624 0.81628 0.05216 0.0
O925 O 0.54649 0.84172 0.03254 0.0
O926 O 0.51691 0.77273 0.01638 0.0
O927 O 0.51365 0.81689 0.95975 0.0
C928 C 0.55946 0.86075 0.00909 0.0
C929 C 0.52037 0.72989 0.10978 0.0
O930 O 0.53527 0.74428 0.0889 0.0
C931 C 0.51197 0.89691 0.09417 0.0
C932 C 0.51499 0.77964 0.97363 0.0
O933 O 0.50479 0.75127 0.11203 0.0
C934 C 0.4474 0.80505 0.03394 0.0
C935 C 0.4167 0.83041 0.01042 0.0
C936 C 0.43615 0.83598 0.01808 0.0
C937 C 0.43912 0.76717 0.03915 0.0
C938 C 0.41964 0.76122 0.02895 0.0
C939 C 0.40887 0.79288 0.01396 0.0
C940 C 0.51372 0.94972 0.93716 0.0
O941 O 0.51076 0.96072 0.89581 0.0
O942 O 0.47222 0.79945 0.08896 0.0
O943 O 0.47991 0.82865 0.02546 0.0
H944 H 0.58633 0.91746 0.98619 0.0
H945 H 0.63402 0.86443 0.0499 0.0
H946 H 0.57892 0.81093 0.06416 0.0
H947 H 0.44212 0.86539 0.01572 0.0
H948 H 0.44748 0.74313 0.05235 0.0
H949 H 0.39381 0.78867 0.00776 0.0
C950 C 0.68973 0.42939 0.03329 0.0
C951 C 0.68039 0.394 0.02008 0.0
C952 C 0.66148 0.38668 0.03376 0.0
C953 C 0.65219 0.41423 0.05997 0.0
C954 C 0.66006 0.45095 0.06955 0.0
C955 C 0.67922 0.45802 0.05771 0.0
O956 O 0.75817 0.38935 0.05401 0.0
Tb957 Tb 0.74319 0.42144 1.00007 0.0
O958 O 0.74308 0.36007 0.97495 0.0
O959 O 0.76165 0.4362 0.10892 0.0
Eu960 Eu 0.77404 0.48442 0.06411 0.0
O961 O 0.71493 0.4232 0.9791 0.0
C962 C 0.80939 0.47083 0.04445 0.0
O963 O 0.7232 0.44676 0.04467 0.0
O964 O 0.75773 0.5168 0.01049 0.0
O965 O 0.75648 0.46841 0.95715 0.0
C966 C 0.70916 0.43998 0.01638 0.0
C967 C 0.75681 0.56082 0.10603 0.0
O968 O 0.74083 0.5415 0.10017 0.0
C969 C 0.76015 0.39891 0.09651 0.0
C970 C 0.75706 0.50652 0.96837 0.0
O971 O 0.77308 0.54343 0.09781 0.0
C972 C 0.82819 0.47877 0.02344 0.0
C973 C 0.85611 0.44958 0.98863 0.0
C974 C 0.8378 0.4458 0.00635 0.0
C975 C 0.83822 0.51522 0.02661 0.0
C976 C 0.85686 0.51838 0.00845 0.0
C977 C 0.86406 0.48672 0.98409 0.0
C978 C 0.75907 0.34046 0.96835 0.0
O979 O 0.7749 0.36087 0.96552 0.0
O980 O 0.80409 0.49121 0.07962 0.0
O981 O 0.79518 0.4575 0.01998 0.0
H982 H 0.68762 0.37269 0.99922 0.0
H983 H 0.63792 0.40738 0.07154 0.0
H984 H 0.68567 0.48609 0.06593 0.0
H985 H 0.83168 0.41662 0.01008 0.0
H986 H 0.83205 0.53981 0.04447 0.0
H987 H 0.87792 0.48934 0.9684 0.0
C988 C 0.58101 0.42352 0.22635 0.0
C989 C 0.59335 0.39419 0.24375 0.0
C990 C 0.61316 0.39631 0.23632 0.0
C991 C 0.62045 0.42848 0.21319 0.0
C992 C 0.60886 0.45673 0.19317 0.0
C993 C 0.58896 0.45422 0.19993 0.0
O994 O 0.5093 0.38613 0.19939 0.0
Tb995 Tb 0.52496 0.41726 0.25231 0.0
O996 O 0.51935 0.37587 0.30764 0.0
O997 O 0.51039 0.43208 0.14298 0.0
Eu998 Eu 0.49888 0.48377 0.1845 0.0
O999 O 0.5526 0.39598 0.26348 0.0
C1000 C 0.46355 0.47169 0.20624 0.0
O1001 O 0.54739 0.44498 0.21661 0.0
O1002 O 0.51612 0.51622 0.2367 0.0
O1003 O 0.51536 0.46993 0.29205 0.0
C1004 C 0.55999 0.42173 0.23566 0.0
C1005 C 0.51711 0.56156 0.14607 0.0
O1006 O 0.53299 0.54226 0.15295 0.0
C1007 C 0.50942 0.39489 0.15648 0.0
C1008 C 0.51614 0.50749 0.27922 0.0
O1009 O 0.50071 0.54335 0.15125 0.0
C1010 C 0.44474 0.47978 0.2272 0.0
C1011 C 0.41675 0.45155 0.263 0.0
C1012 C 0.43445 0.44677 0.24225 0.0
C1013 C 0.43561 0.51725 0.22747 0.0
C1014 C 0.4176 0.52162 0.24885 0.0
C1015 C 0.41049 0.48941 0.27259 0.0
C1016 C 0.51844 0.33701 0.3146 0.0
O1017 O 0.51638 0.32626 0.3563 0.0
O1018 O 0.4687 0.49063 0.1699 0.0
O1019 O 0.47788 0.45957 0.23101 0.0
H1020 H 0.58752 0.3694 0.26193 0.0
H1021 H 0.63569 0.42988 0.20818 0.0
H1022 H 0.57976 0.47588 0.18471 0.0
H1023 H 0.43976 0.41744 0.23535 0.0
H1024 H 0.44211 0.54164 0.20996 0.0
H1025 H 0.39777 0.49262 0.29277 0.0
C1026 C 0.6867 0.85437 0.229 0.0
C1027 C 0.6777 0.88806 0.2478 0.0
C1028 C 0.65892 0.89767 0.23558 0.0
C1029 C 0.65008 0.87564 0.20239 0.0
C1030 C 0.65747 0.83985 0.18761 0.0
C1031 C 0.67611 0.82972 0.20001 0.0
O1032 O 0.74974 0.89462 0.19424 0.0
Tb1033 Tb 0.74059 0.85587 0.24961 0.0
O1034 O 0.74436 0.91321 0.28087 0.0
O1035 O 0.76155 0.85331 0.13989 0.0
Eu1036 Eu 0.77346 0.80413 0.18354 0.0
O1037 O 0.71358 0.85917 0.27825 0.0
C1038 C 0.80916 0.81841 0.19689 0.0
O1039 O 0.71827 0.82906 0.21401 0.0
O1040 O 0.76213 0.76533 0.23912 0.0
O1041 O 0.75466 0.81119 0.29245 0.0
C1042 C 0.70574 0.84067 0.24428 0.0
C1043 C 0.75465 0.72737 0.14768 0.0
O1044 O 0.74043 0.74127 0.17136 0.0
C1045 C 0.75585 0.88854 0.15313 0.0
C1046 C 0.75847 0.77428 0.28084 0.0
O1047 O 0.77002 0.74903 0.14255 0.0
C1048 C 0.82794 0.80915 0.2161 0.0
C1049 C 0.85815 0.83543 0.24154 0.0
C1050 C 0.83946 0.84136 0.22763 0.0
C1051 C 0.83559 0.77058 0.21814 0.0
C1052 C 0.85465 0.76522 0.23182 0.0
C1053 C 0.86547 0.79769 0.24444 0.0
C1054 C 0.76073 0.93171 0.27638 0.0
O1055 O 0.77566 0.91091 0.26461 0.0
O1056 O 0.8029 0.79703 0.16339 0.0
O1057 O 0.79568 0.83247 0.22305 0.0
H1058 H 0.68489 0.90566 0.27278 0.0
H1059 H 0.6364 0.88542 0.18995 0.0
H1060 H 0.68215 0.8022 0.18851 0.0
H1061 H 0.8342 0.87118 0.22378 0.0
H1062 H 0.8271 0.74544 0.20818 0.0
H1063 H 0.88015 0.79373 0.25467 0.0
C1064 C 0.57839 0.22843 0.9671 0.0
C1065 C 0.58625 0.26632 0.97687 0.0
C1066 C 0.60579 0.26929 0.98888 0.0
C1067 C 0.61687 0.23559 0.98905 0.0
C1068 C 0.60921 0.19915 0.9797 0.0
C1069 C 0.59005 0.1951 0.96953 0.0
O1070 O 0.51269 0.26695 0.99153 0.0
Tb1071 Tb 0.52443 0.23239 0.93653 0.0
O1072 O 0.52178 0.28661 0.89714 0.0
O1073 O 0.50536 0.22155 0.04684 0.0
Eu1074 Eu 0.49809 0.16531 0.00663 0.0
O1075 O 0.55261 0.23968 0.91545 0.0
C1076 C 0.46207 0.16701 0.9869 0.0
O1077 O 0.5455 0.20798 0.97785 0.0
O1078 O 0.51567 0.13547 0.95309 0.0
O1079 O 0.51201 0.18199 0.89867 0.0
C1080 C 0.55891 0.22067 0.95057 0.0
C1081 C 0.51139 0.08261 0.0643 0.0
O1082 O 0.51669 0.07211 0.10452 0.0
C1083 C 0.50861 0.25825 0.03323 0.0
C1084 C 0.51414 0.14453 0.91068 0.0
O1085 O 0.50571 0.12001 0.0604 0.0
C1086 C 0.44131 0.16747 0.97586 0.0
C1087 C 0.4133 0.20007 0.94345 0.0
C1088 C 0.43309 0.19932 0.95192 0.0
C1089 C 0.4294 0.13619 0.99022 0.0
C1090 C 0.40984 0.13676 0.98062 0.0
C1091 C 0.40226 0.16796 0.95702 0.0
C1092 C 0.50798 0.31221 0.90421 0.0
O1093 O 0.49354 0.3025 0.9297 0.0
O1094 O 0.46901 0.14496 0.01898 0.0
O1095 O 0.47483 0.1879 0.965 0.0
H1096 H 0.57749 0.29244 0.97527 0.0
H1097 H 0.63192 0.23761 0.99708 0.0
H1098 H 0.58443 0.16609 0.9619 0.0
H1099 H 0.44194 0.22339 0.94035 0.0
H1100 H 0.4353 0.11135 0.00807 0.0
H1101 H 0.38737 0.16621 0.94778 0.0
C1102 C 0.19322 0.55639 0.96644 0.0
C1103 C 0.1859 0.5175 0.96821 0.0
C1104 C 0.16918 0.51034 0.99315 0.0
C1105 C 0.16152 0.54061 0.01878 0.0
C1106 C 0.16512 0.57957 0.00713 0.0
C1107 C 0.18189 0.58725 0.98274 0.0
O1108 O 0.25509 0.51813 0.99181 0.0
Tb1109 Tb 0.24592 0.55454 0.93475 0.0
O1110 O 0.24965 0.49964 0.89788 0.0
O1111 O 0.26833 0.56008 0.0445 0.0
Eu1112 Eu 0.27989 0.61023 1.00144 0.0
O1113 O 0.21805 0.54464 0.91246 0.0
C1114 C 0.31649 0.60616 0.99408 0.0
O1115 O 0.22432 0.58486 0.96826 0.0
O1116 O 0.26745 0.64622 0.94501 0.0
O1117 O 0.25827 0.60155 0.89141 0.0
C1118 C 0.2111 0.56788 0.94356 0.0
C1119 C 0.25696 0.68563 0.02612 0.0
O1120 O 0.2425 0.66364 0.01383 0.0
C1121 C 0.26159 0.52523 0.0324 0.0
C1122 C 0.26264 0.63813 0.90374 0.0
O1123 O 0.27323 0.66813 0.03461 0.0
C1124 C 0.33758 0.60401 0.99005 0.0
C1125 C 0.36552 0.56992 0.96223 0.0
C1126 C 0.34585 0.57615 0.96121 0.0
C1127 C 0.34988 0.63035 0.01319 0.0
C1128 C 0.36989 0.62373 0.01344 0.0
C1129 C 0.37597 0.58729 0.9967 0.0
C1130 C 0.26511 0.47844 0.90371 0.0
O1131 O 0.27941 0.49435 0.92536 0.0
O1132 O 0.30809 0.62427 0.02753 0.0
O1133 O 0.30489 0.58957 0.96488 0.0
H1134 H 0.19268 0.4938 0.95003 0.0
H1135 H 0.15077 0.53328 0.04318 0.0
H1136 H 0.186 0.61698 0.97419 0.0
H1137 H 0.3373 0.56123 0.93634 0.0
H1138 H 0.3439 0.65617 0.02897 0.0
H1139 H 0.39053 0.57803 1.00091 0.0
C1140 C 0.57987 0.56038 0.78274 0.0
C1141 C 0.58926 0.52337 0.7862 0.0
C1142 C 0.60721 0.51765 0.76514 0.0
C1143 C 0.61457 0.54811 0.73893 0.0
C1144 C 0.60706 0.58578 0.74116 0.0
C1145 C 0.58944 0.5917 0.76176 0.0
O1146 O 0.51688 0.51957 0.76365 0.0
Tb1147 Tb 0.52725 0.55593 0.81932 0.0
O1148 O 0.52415 0.50149 0.85818 0.0
O1149 O 0.50838 0.5634 0.70849 0.0
Eu1150 Eu 0.49519 0.61209 0.75117 0.0
O1151 O 0.55565 0.54756 0.83861 0.0
C1152 C 0.45893 0.6006 0.75913 0.0
O1153 O 0.54802 0.58627 0.78263 0.0
O1154 O 0.50758 0.64918 0.80748 0.0
O1155 O 0.51471 0.60359 0.86161 0.0
C1156 C 0.56184 0.57049 0.80634 0.0
C1157 C 0.51478 0.69063 0.72385 0.0
O1158 O 0.53017 0.67119 0.73513 0.0
C1159 C 0.51271 0.52736 0.72176 0.0
C1160 C 0.5116 0.6407 0.8492 0.0
O1161 O 0.49902 0.67059 0.71749 0.0
C1162 C 0.43818 0.60455 0.76805 0.0
C1163 C 0.40983 0.57569 0.80146 0.0
C1164 C 0.42963 0.57756 0.79759 0.0
C1165 C 0.42653 0.63379 0.74779 0.0
C1166 C 0.40647 0.63151 0.75248 0.0
C1167 C 0.39873 0.59791 0.77247 0.0
C1168 C 0.51013 0.47642 0.85037 0.0
O1169 O 0.4961 0.48669 0.82413 0.0
O1170 O 0.46666 0.61904 0.72504 0.0
O1171 O 0.47113 0.58823 0.78952 0.0
H1172 H 0.58313 0.5003 0.80653 0.0
H1173 H 0.62795 0.54399 0.72152 0.0
H1174 H 0.58379 0.62136 0.76396 0.0
H1175 H 0.43832 0.55935 0.81905 0.0
H1176 H 0.43295 0.65833 0.73028 0.0
H1177 H 0.38337 0.59556 0.77554 0.0
C1178 C 0.1953 0.22934 0.77961 0.0
C1179 C 0.18656 0.26699 0.78207 0.0
C1180 C 0.16731 0.27138 0.76909 0.0
C1181 C 0.1574 0.23889 0.75313 0.0
C1182 C 0.16569 0.202 0.75065 0.0
C1183 C 0.18466 0.19717 0.76371 0.0
O1184 O 0.26216 0.27118 0.76671 0.0
Tb1185 Tb 0.24792 0.23571 0.81856 0.0
O1186 O 0.2484 0.29153 0.85429 0.0
O1187 O 0.26474 0.22559 0.7109 0.0
Eu1188 Eu 0.27983 0.17911 0.75358 0.0
O1189 O 0.21922 0.23947 0.83574 0.0
C1190 C 0.31578 0.19572 0.76458 0.0
O1191 O 0.22844 0.20927 0.77413 0.0
O1192 O 0.26659 0.14224 0.80918 0.0
O1193 O 0.25942 0.18864 0.86256 0.0
C1194 C 0.21406 0.22013 0.79972 0.0
C1195 C 0.26198 0.09867 0.72534 0.0
O1196 O 0.24617 0.11771 0.7343 0.0
C1197 C 0.26276 0.26261 0.7239 0.0
C1198 C 0.26199 0.15137 0.85042 0.0
O1199 O 0.27788 0.11897 0.72223 0.0
C1200 C 0.33562 0.18647 0.77945 0.0
C1201 C 0.36478 0.20987 0.81626 0.0
C1202 C 0.34535 0.21461 0.80609 0.0
C1203 C 0.34573 0.15271 0.76397 0.0
C1204 C 0.36508 0.14758 0.77542 0.0
C1205 C 0.37408 0.17636 0.80075 0.0
C1206 C 0.2645 0.31062 0.8599 0.0
O1207 O 0.28048 0.29328 0.84855 0.0
O1208 O 0.30896 0.17756 0.72922 0.0
O1209 O 0.30259 0.20553 0.79403 0.0
H1210 H 0.19437 0.29203 0.79498 0.0
H1211 H 0.14256 0.24215 0.74404 0.0
H1212 H 0.19079 0.16788 0.7638 0.0
H1213 H 0.33794 0.24055 0.81789 0.0
H1214 H 0.33867 0.13081 0.74355 0.0
H1215 H 0.38885 0.17179 0.80961 0.0
C1216 C 0.87376 0.40176 0.03385 0.0
C1217 C 0.86983 0.41709 0.99134 0.0
C1218 C 0.8901 0.37964 0.0415 0.0
C1219 C 0.90307 0.37213 0.00696 0.0
H1220 H 0.86452 0.40827 0.06186 0.0
H1221 H 0.89236 0.36724 0.07435 0.0
S1222 S 0.89918 0.40477 0.88982 0.0
N1223 N 0.88013 0.42316 0.91436 0.0
N1224 N 0.91081 0.38027 0.92869 0.0
C1225 C 0.89928 0.38679 0.96428 0.0
C1226 C 0.88264 0.40948 0.95645 0.0
C1227 C 0.37242 0.8886 0.98674 0.0
C1228 C 0.37228 0.91511 0.02253 0.0
C1229 C 0.3878 0.8632 0.98041 0.0
C1230 C 0.40341 0.86375 0.00975 0.0
H1231 H 0.36083 0.88825 0.96299 0.0
H1232 H 0.38728 0.84226 0.95316 0.0
S1233 S 0.41008 0.93042 0.10662 0.0
N1234 N 0.38914 0.94237 0.08606 0.0
N1235 N 0.41804 0.89446 0.07465 0.0
C1236 C 0.40359 0.89118 0.04483 0.0
C1237 C 0.38793 0.91667 0.05135 0.0
C1238 C 0.88027 0.88093 0.20512 0.0
C1239 C 0.87164 0.86789 0.24458 0.0
C1240 C 0.8957 0.90664 0.20655 0.0
C1241 C 0.90281 0.92007 0.24747 0.0
H1242 H 0.87531 0.87045 0.17304 0.0
H1243 H 0.90181 0.91697 0.17547 0.0
S1244 S 0.88543 0.89331 0.35986 0.0
N1245 N 0.87152 0.86855 0.32545 0.0
N1246 N 0.90034 0.91862 0.32823 0.0
C1247 C 0.89436 0.90718 0.2872 0.0
C1248 C 0.87877 0.88052 0.28572 0.0
C1249 C 0.3694 0.39991 0.2529 0.0
C1250 C 0.37242 0.36144 0.26897 0.0
C1251 C 0.38396 0.4274 0.25009 0.0
C1252 C 0.4024 0.41951 0.26535 0.0
H1253 H 0.3559 0.40978 0.24044 0.0
H1254 H 0.38063 0.45529 0.23482 0.0
S1255 S 0.41997 0.32462 0.3085 0.0
N1256 N 0.3973 0.31692 0.29787 0.0
N1257 N 0.42381 0.37103 0.29545 0.0
C1258 C 0.40623 0.38189 0.28135 0.0
C1259 C 0.39149 0.35261 0.28294 0.0
C1260 C 0.15522 0.65037 0.01167 0.0
C1261 C 0.15012 0.61042 0.01378 0.0
C1262 C 0.14156 0.67974 0.00869 0.0
C1263 C 0.12195 0.67137 0.01192 0.0
H1264 H 0.16991 0.65965 0.01072 0.0
H1265 H 0.14674 0.70924 1.00244 0.0
S1266 S 0.10025 0.57243 0.02464 0.0
N1267 N 0.1232 0.56429 0.01922 0.0
N1268 N 0.09809 0.62064 0.02364 0.0
C1269 C 0.11649 0.63203 0.0181 0.0
C1270 C 0.13036 0.60144 0.01714 0.0
C1271 C 0.65231 0.14037 0.95349 0.0
C1272 C 0.6538 0.11653 0.99137 0.0
C1273 C 0.63673 0.16511 0.94823 0.0
C1274 C 0.62224 0.16622 0.98046 0.0
H1275 H 0.66279 0.13869 0.92703 0.0
H1276 H 0.63613 0.18411 0.91926 0.0
S1277 S 0.61966 0.10945 0.08531 0.0
N1278 N 0.63996 0.09619 0.06218 0.0
N1279 N 0.61019 0.14216 0.05123 0.0
C1280 C 0.6236 0.14287 0.01856 0.0
C1281 C 0.63964 0.11839 0.02449 0.0
C1282 C 0.15101 0.14083 0.77794 0.0
C1283 C 0.1528 0.16848 0.74355 0.0
C1284 C 0.13553 0.11531 0.77932 0.0
C1285 C 0.12139 0.11646 0.7463 0.0
H1286 H 0.16106 0.14031 0.80527 0.0
H1287 H 0.13457 0.09431 0.80644 0.0
S1288 S 0.11974 0.18214 0.64851 0.0
N1289 N 0.1395 0.19466 0.67472 0.0
N1290 N 0.11017 0.14605 0.67788 0.0
C1291 C 0.12312 0.14311 0.7112 0.0
C1292 C 0.13897 0.16912 0.70953 0.0
C1293 C 0.64338 0.66049 0.77421 0.0
C1294 C 0.65442 0.66422 0.73537 0.0
C1295 C 0.62678 0.63793 0.77431 0.0
C1296 C 0.62077 0.61819 0.73563 0.0
H1297 H 0.64739 0.676 0.80437 0.0
H1298 H 0.61909 0.63445 0.80541 0.0
S1299 S 0.64545 0.61842 0.62692 0.0
N1300 N 0.6586 0.64739 0.65816 0.0
N1301 N 0.62745 0.60337 0.65797 0.0
C1302 C 0.63173 0.622 0.69665 0.0
C1303 C 0.64857 0.64532 0.69668 0.0
C1304 C 0.90165 0.89602 0.47909 0.0
C1305 C 0.90068 0.86942 0.51459 0.0
C1306 C 0.88647 0.92141 0.47048 0.0
C1307 C 0.86991 0.92092 0.49711 0.0
H1308 H 0.91394 0.89645 0.45727 0.0
H1309 H 0.8879 0.94234 0.44347 0.0
S1310 S 0.86072 0.85464 0.59355 0.0
N1311 N 0.88216 0.8427 0.57589 0.0
N1312 N 0.85365 0.89033 0.5603 0.0
C1313 C 0.86882 0.89357 0.53234 0.0
C1314 C 0.88428 0.86814 0.54118 0.0
C1315 C 0.38377 0.41759 0.47115 0.0
C1316 C 0.37013 0.41764 0.50565 0.0
C1317 C 0.39966 0.39332 0.4733 0.0
C1318 C 0.40215 0.3684 0.50979 0.0
H1319 H 0.38248 0.43767 0.44326 0.0
H1320 H 0.4098 0.3934 0.44604 0.0
S1321 S 0.3695 0.35365 0.60544 0.0
N1322 N 0.35947 0.38863 0.57545 0.0
N1323 N 0.38923 0.3418 0.57873 0.0
C1324 C 0.38826 0.36679 0.54341 0.0
C1325 C 0.37214 0.3915 0.54132 0.0
C1326 C 0.88752 0.35696 0.77254 0.0
C1327 C 0.87325 0.36672 0.74128 0.0
C1328 C 0.90324 0.3812 0.7793 0.0
C1329 C 0.90484 0.41654 0.75616 0.0
H1330 H 0.88682 0.32959 0.79091 0.0
H1331 H 0.91403 0.37259 0.80307 0.0
S1332 S 0.87074 0.45761 0.67399 0.0
N1333 N 0.86131 0.41506 0.68895 0.0
N1334 N 0.89079 0.46154 0.70221 0.0
C1335 C 0.89044 0.42742 0.72587 0.0
C1336 C 0.8745 0.40253 0.71875 0.0
C1337 C 0.36747 0.90068 0.74738 0.0
C1338 C 0.37253 0.86093 0.75277 0.0
C1339 C 0.38114 0.9298 0.74149 0.0
C1340 C 0.40071 0.92175 0.74524 0.0
H1341 H 0.35284 0.91011 0.74657 0.0
H1342 H 0.37604 0.95899 0.73347 0.0
S1343 S 0.42246 0.82392 0.76358 0.0
N1344 N 0.39951 0.81528 0.75938 0.0
N1345 N 0.42464 0.872 0.75933 0.0
C1346 C 0.4062 0.88288 0.75368 0.0
C1347 C 0.39233 0.85221 0.75535 0.0
C1348 C 0.13617 0.17097 0.53381 0.0
C1349 C 0.12102 0.17001 0.50306 0.0
C1350 C 0.15103 0.14397 0.53114 0.0
C1351 C 0.15102 0.11521 0.49786 0.0
H1352 H 0.13686 0.19363 0.55915 0.0
H1353 H 0.16242 0.14528 0.55536 0.0
S1354 S 0.11454 0.0982 0.41098 0.0
N1355 N 0.10689 0.13688 0.43904 0.0
N1356 N 0.13467 0.08538 0.43501 0.0
C1357 C 0.13581 0.113 0.46779 0.0
C1358 C 0.12075 0.14045 0.47033 0.0
C1359 C 0.61784 0.63244 0.53136 0.0
C1360 C 0.61825 0.66676 0.50646 0.0
C1361 C 0.6332 0.60683 0.53004 0.0
C1362 C 0.64969 0.6146 0.50409 0.0
H1363 H 0.60574 0.62562 0.55242 0.0
H1364 H 0.63203 0.58061 0.55031 0.0
S1365 S 0.65653 0.70101 0.43028 0.0
N1366 N 0.63528 0.70729 0.45265 0.0
N1367 N 0.66469 0.65957 0.45148 0.0
C1368 C 0.65007 0.64929 0.47879 0.0
C1369 C 0.63416 0.67509 0.47943 0.0
C1370 C 0.13211 0.67095 0.28051 0.0
C1371 C 0.15021 0.66611 0.26187 0.0
C1372 C 0.11757 0.64428 0.272 0.0
C1373 C 0.12025 0.61101 0.24426 0.0
H1374 H 0.12901 0.6964 0.30113 0.0
H1375 H 0.10431 0.65013 0.28883 0.0
S1376 S 0.16688 0.5844 0.19077 0.0
N1377 N 0.17124 0.6255 0.21805 0.0
N1378 N 0.14417 0.57528 0.19951 0.0
C1379 C 0.13896 0.60555 0.22643 0.0
C1380 C 0.15385 0.63288 0.23612 0.0
C1381 C 0.63289 0.11762 0.27415 0.0
C1382 C 0.61917 0.1217 0.24034 0.0
C1383 C 0.64851 0.14273 0.27648 0.0
C1384 C 0.65087 0.17287 0.24515 0.0
H1385 H 0.63143 0.09476 0.29913 0.0
H1386 H 0.65822 0.1398 0.30426 0.0
S1387 S 0.61879 0.19593 0.15068 0.0
N1388 N 0.60861 0.15797 0.17562 0.0
N1389 N 0.63852 0.20499 0.17867 0.0
C1390 C 0.63745 0.17666 0.21053 0.0
C1391 C 0.62136 0.1513 0.20864 0.0
C1392 C 0.15963 0.44351 0.01709 0.0
C1393 C 0.15679 0.47525 0.98868 0.0
C1394 C 0.14454 0.41865 0.02869 0.0
C1395 C 0.12542 0.42527 0.0146 0.0
H1396 H 0.1733 0.43942 0.03301 0.0
H1397 H 0.14825 0.39485 0.05063 0.0
S1398 S 0.11175 0.50182 0.93213 0.0
N1399 N 0.13473 0.50888 0.93984 0.0
N1400 N 0.10584 0.4644 0.96445 0.0
C1401 C 0.12289 0.45541 0.98285 0.0
C1402 C 0.13863 0.47974 0.96944 0.0
C1403 C 0.13257 0.85503 0.0519 0.0
C1404 C 0.14603 0.86535 0.01865 0.0
C1405 C 0.11737 0.82948 0.04334 0.0
C1406 C 0.11516 0.81154 1.00157 0.0
H1407 H 0.13369 0.86719 0.08521 0.0
H1408 H 0.10791 0.82176 0.07054 0.0
S1409 S 0.14832 0.82116 0.90569 0.0
N1410 N 0.15701 0.85186 0.94332 0.0
N1411 N 0.12918 0.80116 0.92843 0.0
C1412 C 0.12904 0.8195 0.9687 0.0
C1413 C 0.14436 0.84656 0.97704 0.0
C1414 C 0.13054 0.83278 0.19799 0.0
C1415 C 0.12478 0.85803 0.23266 0.0
C1416 C 0.14635 0.80808 0.20266 0.0
C1417 C 0.15689 0.80669 0.24266 0.0
H1418 H 0.12309 0.8331 0.16641 0.0
H1419 H 0.14968 0.788 0.17565 0.0
S1420 S 0.14911 0.87029 0.34132 0.0
N1421 N 0.13217 0.88341 0.30627 0.0
N1422 N 0.16119 0.83491 0.31622 0.0
C1423 C 0.15172 0.83275 0.27691 0.0
C1424 C 0.13576 0.85854 0.27182 0.0
C1425 C 0.1496 0.46007 0.26466 0.0
C1426 C 0.145 0.42268 0.24796 0.0
C1427 C 0.13525 0.48707 0.2758 0.0
C1428 C 0.11573 0.47847 0.26903 0.0
H1429 H 0.16427 0.46966 0.26614 0.0
H1430 H 0.13955 0.51654 0.28547 0.0
S1431 S 0.09591 0.38206 0.23607 0.0
N1432 N 0.11915 0.37548 0.23565 0.0
N1433 N 0.09259 0.42838 0.25081 0.0
C1434 C 0.11087 0.4402 0.25668 0.0
C1435 C 0.12541 0.41191 0.24743 0.0
C1436 C 0.86547 0.59034 0.0056 0.0
C1437 C 0.87043 0.55172 0.01644 0.0
C1438 C 0.87956 0.6192 0.99925 0.0
C1439 C 0.89932 0.61024 1.0008 0.0
H1440 H 0.85076 0.59775 0.99907 0.0
H1441 H 0.87479 0.64842 0.99035 0.0
S1442 S 0.91932 0.51516 0.03931 0.0
N1443 N 0.89609 0.50833 0.04012 0.0
N1444 N 0.92255 0.56071 0.02169 0.0
C1445 C 0.90429 0.57266 0.01632 0.0
C1446 C 0.88986 0.54398 0.02558 0.0
C1447 C 0.90157 0.22479 0.96826 0.0
C1448 C 0.9089 0.2314 0.01121 0.0
C1449 C 0.8856 0.20106 0.96151 0.0
C1450 C 0.87665 0.18124 0.99704 0.0
H1451 H 0.90748 0.24046 0.93996 0.0
H1452 H 0.88049 0.197 0.92778 0.0
S1453 S 0.89112 0.18592 0.11557 0.0
N1454 N 0.90615 0.21582 0.08992 0.0
N1455 N 0.87703 0.16786 0.07649 0.0
C1456 C 0.8842 0.18627 0.03999 0.0
C1457 C 0.90021 0.21172 0.04714 0.0
C1458 C 0.87388 0.20477 0.70947 0.0
C1459 C 0.86565 0.23095 0.74026 0.0
C1460 C 0.89 0.18238 0.72083 0.0
C1461 C 0.89889 0.18677 0.76259 0.0
H1462 H 0.86833 0.20286 0.6759 0.0
H1463 H 0.89538 0.16105 0.6971 0.0
S1464 S 0.88384 0.25395 0.85338 0.0
N1465 N 0.86774 0.26013 0.8141 0.0
N1466 N 0.89872 0.22051 0.83393 0.0
C1467 C 0.89094 0.21329 0.79327 0.0
C1468 C 0.87408 0.23433 0.7827 0.0
C1469 C 0.89273 0.61485 0.74906 0.0
C1470 C 0.87397 0.60888 0.7642 0.0
C1471 C 0.90626 0.58474 0.74979 0.0
C1472 C 0.90159 0.54641 0.76396 0.0
H1473 H 0.89741 0.64415 0.73977 0.0
H1474 H 0.9206 0.5926 0.74056 0.0
S1475 S 0.85235 0.51399 0.79684 0.0
N1476 N 0.85049 0.56186 0.78915 0.0
N1477 N 0.87462 0.50335 0.7848 0.0
C1478 C 0.88194 0.53926 0.77443 0.0
C1479 C 0.86846 0.57079 0.77562 0.0
C1480 C 0.14749 0.96124 0.47087 0.0
C1481 C 0.15904 0.97593 0.50555 0.0
C1482 C 0.13185 0.93637 0.47973 0.0
C1483 C 0.12684 0.92632 0.52369 0.0
H1484 H 0.15009 0.97045 0.43683 0.0
H1485 H 0.12389 0.92429 0.45202 0.0
S1486 S 0.15133 0.9605 0.62651 0.0
N1487 N 0.16386 0.97989 0.58539 0.0
N1488 N 0.13401 0.93545 0.60244 0.0
C1489 C 0.1379 0.94217 0.55865 0.0
C1490 C 0.15417 0.96592 0.54949 0.0
C1491 C 0.12122 0.32176 0.53988 0.0
C1492 C 0.11613 0.31193 0.49599 0.0
C1493 C 0.13697 0.34557 0.54878 0.0
C1494 C 0.148 0.36214 0.5142 0.0
H1495 H 0.11374 0.30854 0.56776 0.0
H1496 H 0.14038 0.35174 0.58333 0.0
S1497 S 0.14068 0.34547 0.39333 0.0
N1498 N 0.12377 0.31912 0.41748 0.0
N1499 N 0.15254 0.36715 0.4341 0.0
C1500 C 0.14295 0.35308 0.47005 0.0
C1501 C 0.12713 0.32761 0.461 0.0
C1502 C 0.12426 0.33648 0.77019 0.0
C1503 C 0.12858 0.3643 0.73677 0.0
C1504 C 0.138 0.31004 0.7861 0.0
C1505 C 0.15659 0.30898 0.76827 0.0
H1506 H 0.10999 0.33343 0.78308 0.0
H1507 H 0.13353 0.28759 0.80955 0.0
S1508 S 0.17716 0.37831 0.68667 0.0
N1509 N 0.15505 0.39307 0.6935 0.0
N1510 N 0.17938 0.3397 0.71936 0.0
C1511 C 0.1617 0.33793 0.73774 0.0
C1512 C 0.14807 0.36615 0.72274 0.0
C1513 C 0.13706 0.98288 0.77459 0.0
C1514 C 0.11741 0.97917 0.76487 0.0
C1515 C 0.15009 0.95265 0.76515 0.0
C1516 C 0.14399 0.91651 0.74735 0.0
H1517 H 0.14268 1.01064 0.7867 0.0
H1518 H 0.16508 0.95863 0.76968 0.0
S1519 S 0.0933 0.88844 0.72729 0.0
N1520 N 0.09227 0.93516 0.74204 0.0
N1521 N 0.11596 0.87627 0.73035 0.0
C1522 C 0.12397 0.91086 0.7432 0.0
C1523 C 0.11089 0.94248 0.7507 0.0
C1524 C 0.86036 0.09512 0.51808 0.0
C1525 C 0.86691 0.05818 0.5306 0.0
C1526 C 0.87246 0.12784 0.51825 0.0
C1527 C 0.89206 0.12565 0.53046 0.0
H1528 H 0.84606 0.0984 0.50526 0.0
H1529 H 0.86597 0.15414 0.50561 0.0
S1530 S 0.91486 0.03422 0.57432 0.0
N1531 N 0.89299 0.02071 0.56198 0.0
N1532 N 0.91601 0.08148 0.56206 0.0
C1533 C 0.89821 0.08855 0.54668 0.0
C1534 C 0.88565 0.05522 0.54681 0.0
C1535 C 0.88302 0.68521 0.53238 0.0
C1536 C 0.87511 0.68237 0.48941 0.0
C1537 C 0.89912 0.70903 0.54059 0.0
C1538 C 0.90832 0.72939 0.50574 0.0
H1539 H 0.87691 0.66847 0.55959 0.0
H1540 H 0.90387 0.71298 0.57462 0.0
S1541 S 0.89324 0.73198 0.38752 0.0
N1542 N 0.87745 0.70334 0.41227 0.0
N1543 N 0.90838 0.74486 0.42686 0.0
C1544 C 0.90093 0.72541 0.46252 0.0
C1545 C 0.88407 0.70329 0.45473 0.0
C1546 C 0.89398 0.69069 0.21996 0.0
C1547 C 0.89134 0.66704 0.25794 0.0
C1548 C 0.88082 0.72019 0.20878 0.0
C1549 C 0.86433 0.72673 0.2346 0.0
H1550 H 0.90634 0.68665 0.19887 0.0
H1551 H 0.88398 0.73932 0.18083 0.0
S1552 S 0.85039 0.67405 0.33721 0.0
N1553 N 0.87091 0.65428 0.32274 0.0
N1554 N 0.84587 0.7075 0.29892 0.0
C1555 C 0.8612 0.70293 0.27173 0.0
C1556 C 0.8748 0.67387 0.28423 0.0
C1557 C 0.88296 0.10224 0.20804 0.0
C1558 C 0.88158 0.12278 0.24869 0.0
C1559 C 0.89645 0.07189 0.20225 0.0
C1560 C 0.90924 0.06162 0.23653 0.0
H1561 H 0.87355 0.10951 0.18076 0.0
H1562 H 0.89645 0.05536 0.17134 0.0
S1563 S 0.9098 0.10192 0.35105 0.0
N1564 N 0.89293 0.12679 0.32544 0.0
N1565 N 0.91857 0.0717 0.3132 0.0
C1566 C 0.9078 0.08138 0.27724 0.0
C1567 C 0.8939 0.11133 0.28367 0.0
C1568 C 0.63853 0.44672 0.55601 0.0
C1569 C 0.62404 0.43503 0.52581 0.0
C1570 C 0.65559 0.46404 0.54178 0.0
C1571 C 0.65842 0.47491 0.49714 0.0
H1572 H 0.63686 0.44201 0.59151 0.0
H1573 H 0.66571 0.47329 0.56694 0.0
S1574 S 0.6232 0.46256 0.40624 0.0
N1575 N 0.6131 0.44067 0.44938 0.0
N1576 N 0.64407 0.47842 0.42388 0.0
C1577 C 0.64371 0.46576 0.46682 0.0
C1578 C 0.62665 0.44595 0.48097 0.0
C1579 C 0.61426 0.83662 0.49583 0.0
C1580 C 0.61881 0.79768 0.50768 0.0
C1581 C 0.628 0.86685 0.49709 0.0
C1582 C 0.64692 0.85984 0.51078 0.0
H1583 H 0.59987 0.84434 0.48676 0.0
H1584 H 0.62354 0.89653 0.4891 0.0
S1585 S 0.66746 0.76384 0.54229 0.0
N1586 N 0.64532 0.75406 0.52888 0.0
N1587 N 0.66968 0.81172 0.53551 0.0
C1588 C 0.65196 0.82136 0.52124 0.0
C1589 C 0.63831 0.79022 0.51878 0.0
C1590 C 0.65737 0.83586 0.75879 0.0
C1591 C 0.65176 0.79641 0.75558 0.0
C1592 C 0.64404 0.86632 0.75476 0.0
C1593 C 0.62461 0.85881 0.74539 0.0
H1594 H 0.67226 0.84348 0.76196 0.0
H1595 H 0.64928 0.89631 0.75598 0.0
S1596 S 0.60171 0.76051 0.74474 0.0
N1597 N 0.62439 0.75151 0.75405 0.0
N1598 N 0.60008 0.80878 0.73971 0.0
C1599 C 0.61849 0.81959 0.74621 0.0
C1600 C 0.63188 0.78847 0.7528 0.0
C1601 C 0.63994 0.48847 0.77426 0.0
C1602 C 0.61997 0.48264 0.77162 0.0
C1603 C 0.65288 0.45771 0.76682 0.0
C1604 C 0.64644 0.41931 0.75869 0.0
H1605 H 0.64573 0.51779 0.77883 0.0
H1606 H 0.66788 0.46468 0.76439 0.0
S1607 S 0.59609 0.38567 0.76359 0.0
N1608 N 0.59473 0.43399 0.76872 0.0
N1609 N 0.61898 0.37539 0.7603 0.0
C1610 C 0.62668 0.41204 0.76329 0.0
C1611 C 0.61346 0.44375 0.76864 0.0
C1612 C 0.39371 0.59591 0.52527 0.0
C1613 C 0.39846 0.60306 0.48043 0.0
C1614 C 0.37756 0.57342 0.53667 0.0
C1615 C 0.36524 0.5584 0.5037 0.0
H1616 H 0.40228 0.60847 0.55168 0.0
H1617 H 0.37515 0.56618 0.57139 0.0
S1618 S 0.3719 0.56679 0.38148 0.0
N1619 N 0.39018 0.59078 0.40284 0.0
N1620 N 0.35933 0.55114 0.42453 0.0
C1621 C 0.3698 0.56572 0.45888 0.0
C1622 C 0.3866 0.58684 0.44722 0.0
C1623 C 0.38558 0.19962 0.44638 0.0
C1624 C 0.37502 0.18272 0.4816 0.0
C1625 C 0.40197 0.22192 0.4543 0.0
C1626 C 0.40816 0.23015 0.4979 0.0
H1627 H 0.38164 0.19371 0.41208 0.0
H1628 H 0.40923 0.23505 0.42605 0.0
S1629 S 0.38374 0.19929 0.60183 0.0
N1630 N 0.37115 0.17834 0.5618 0.0
N1631 N 0.40103 0.22377 0.57676 0.0
C1632 C 0.39717 0.21535 0.53345 0.0
C1633 C 0.38073 0.19136 0.52534 0.0
C1634 C 0.3764 0.16597 0.2654 0.0
C1635 C 0.39585 0.17587 0.25797 0.0
C1636 C 0.3616 0.1925 0.2569 0.0
C1637 C 0.36541 0.229 0.23757 0.0
H1638 H 0.37241 0.13812 0.28011 0.0
H1639 H 0.34735 0.18545 0.26821 0.0
S1640 S 0.41241 0.26659 0.20042 0.0
N1641 N 0.41723 0.22408 0.22445 0.0
N1642 N 0.3891 0.27127 0.2031 0.0
C1643 C 0.38422 0.23711 0.22385 0.0
C1644 C 0.3995 0.21129 0.23516 0.0
C1645 C 0.37111 0.5799 0.24981 0.0
C1646 C 0.37711 0.61889 0.25465 0.0
C1647 C 0.38435 0.54961 0.2436 0.0
C1648 C 0.40433 0.5563 0.24432 0.0
H1649 H 0.35623 0.57228 0.25349 0.0
H1650 H 0.37865 0.52026 0.24061 0.0
S1651 S 0.42693 0.65484 0.24352 0.0
N1652 N 0.40397 0.66402 0.24801 0.0
N1653 N 0.4289 0.60644 0.24195 0.0
C1654 C 0.41034 0.59564 0.24442 0.0
C1655 C 0.39675 0.62689 0.24848 0.0
C1656 C 0.64546 0.97633 0.03691 0.0
C1657 C 0.65809 0.97548 1.00009 0.0
C1658 C 0.62926 0.95243 0.03868 0.0
C1659 C 0.62535 0.92501 0.00492 0.0
H1660 H 0.6474 0.99795 0.06315 0.0
H1661 H 0.62001 0.9545 0.06753 0.0
S1662 S 0.65605 0.90394 0.90711 0.0
N1663 N 0.66661 0.94163 0.93176 0.0
N1664 N 0.63713 0.89339 0.93769 0.0
C1665 C 0.6387 0.92113 0.97009 0.0
C1666 C 0.65489 0.94681 0.96727 0.0
C1667 C 0.6246 0.32923 0.96891 0.0
C1668 C 0.61645 0.30525 1.00217 0.0
C1669 C 0.64061 0.3531 0.97787 0.0
C1670 C 0.64952 0.3527 0.01992 0.0
H1671 H 0.61901 0.32835 0.9353 0.0
H1672 H 0.6458 0.37269 0.95209 0.0
S1673 S 0.63441 0.29382 0.11772 0.0
N1674 N 0.61871 0.28272 0.07882 0.0
N1675 N 0.64919 0.32568 0.09468 0.0
C1676 C 0.64169 0.32835 0.05306 0.0
C1677 C 0.62503 0.30553 0.04462 0.0
C1678 C 0.65637 0.32946 0.22852 0.0
C1679 C 0.65766 0.31248 0.27096 0.0
C1680 C 0.64134 0.35444 0.21746 0.0
C1681 C 0.62715 0.36497 0.24874 0.0
H1682 H 0.66621 0.32077 0.20244 0.0
H1683 H 0.64077 0.36546 0.18361 0.0
S1684 S 0.62371 0.32728 0.36432 0.0
N1685 N 0.64299 0.30601 0.34395 0.0
N1686 N 0.61539 0.35567 0.32416 0.0
C1687 C 0.62835 0.34851 0.29156 0.0
C1688 C 0.64352 0.32207 0.30253 0.0
C1689 C 0.65275 0.96823 0.25641 0.0
C1690 C 0.64706 0.92877 0.25713 0.0
C1691 C 0.63931 0.99839 0.26194 0.0
C1692 C 0.61946 0.99044 0.26558 0.0
H1693 H 0.66731 0.97595 0.24843 0.0
H1694 H 0.64453 0.02837 0.26043 0.0
S1695 S 0.59846 0.89125 0.28093 0.0
N1696 N 0.62136 0.88303 0.27356 0.0
N1697 N 0.59581 0.93946 0.27801 0.0
C1698 C 0.61408 0.95105 0.27145 0.0
C1699 C 0.62795 0.92041 0.2685 0.0
C1700 C 0.38392 0.108 0.02758 0.0
C1701 C 0.39644 0.10447 0.99103 0.0
C1702 C 0.36821 0.08252 0.03256 0.0
C1703 C 0.36406 0.05394 1.00005 0.0
H1704 H 0.38635 0.13056 0.05249 0.0
H1705 H 0.35991 0.08379 0.06298 0.0
S1706 S 0.39181 0.03442 0.89712 0.0
N1707 N 0.4034 0.07077 0.92168 0.0
N1708 N 0.37313 0.02541 0.92881 0.0
C1709 C 0.37573 0.05244 0.96174 0.0
C1710 C 0.39219 0.07667 0.95803 0.0
C1711 C 0.37988 0.68769 0.05153 0.0
C1712 C 0.38447 0.65584 0.02328 0.0
C1713 C 0.39211 0.72033 0.05628 0.0
C1714 C 0.40959 0.72278 0.0332 0.0
H1715 H 0.36653 0.68814 0.06946 0.0
H1716 H 0.38743 0.74485 0.07666 0.0
S1717 S 0.42923 0.64933 0.95508 0.0
N1718 N 0.40898 0.63019 0.97226 0.0
N1719 N 0.43107 0.69161 0.98159 0.0
C1720 C 0.41483 0.69119 0.00633 0.0
C1721 C 0.40254 0.65784 1.00125 0.0
C1722 C 0.38075 0.67425 0.7836 0.0
C1723 C 0.39316 0.6657 0.74764 0.0
C1724 C 0.36625 0.70198 0.7804 0.0
C1725 C 0.36345 0.72313 0.74113 0.0
H1726 H 0.38203 0.65917 0.81496 0.0
H1727 H 0.35767 0.70821 0.80963 0.0
S1728 S 0.39316 0.71729 0.63894 0.0
N1729 N 0.40234 0.68355 0.67223 0.0
N1730 N 0.37529 0.73733 0.66668 0.0
C1731 C 0.37604 0.71645 0.70522 0.0
C1732 C 0.39089 0.68763 0.70839 0.0
C1733 C 0.38787 0.09558 0.79807 0.0
C1734 C 0.37729 0.11318 0.76351 0.0
C1735 C 0.40379 0.0722 0.78928 0.0
C1736 C 0.40921 0.06279 0.74551 0.0
H1737 H 0.38428 0.10161 0.83255 0.0
H1738 H 0.41126 0.05902 0.81699 0.0
S1739 S 0.38595 0.09896 0.64272 0.0
N1740 N 0.37374 0.11998 0.68344 0.0
N1741 N 0.40244 0.07185 0.66692 0.0
C1742 C 0.39863 0.07938 0.71048 0.0
C1743 C 0.38282 0.10494 0.71944 0.0
C1744 C 0.02361 0.1783 0.91914 0.0
C1745 C 1.01123 0.17655 0.88228 0.0
C1746 C 0.02492 0.2125 0.94637 0.0
C1747 C 0.01417 0.24701 0.93787 0.0
H1748 H 0.03262 0.15336 0.92662 0.0
H1749 H 0.03459 0.21194 0.97441 0.0
S1750 S 0.97754 0.25609 0.85005 0.0
N1751 N 0.98647 0.2117 0.84211 0.0
N1752 N 0.98945 0.27529 0.89217 0.0
C1753 C 1.0015 0.24533 0.90182 0.0
C1754 C 0.99992 0.21045 0.87452 0.0
C1755 C 0.27056 0.08086 0.94958 0.0
C1756 C 0.25888 0.04778 0.94029 0.0
C1757 C 0.27109 0.11465 0.92167 0.0
C1758 C 0.25981 0.11743 0.88303 0.0
H1759 H 0.27964 0.08052 0.9787 0.0
H1760 H 0.28074 0.13841 0.92994 0.0
S1761 S 0.22432 0.04255 0.84725 0.0
N1762 N 0.23425 0.02248 0.89158 0.0
N1763 N 0.23516 0.08525 0.83955 0.0
C1764 C 0.24762 0.08514 0.87406 0.0
C1765 C 0.24715 0.05068 0.90241 0.0
C1766 C 1.00289 0.08061 0.3798 0.0
C1767 C 0.01338 0.11574 0.37206 0.0
C1768 C 1.0045 0.04699 0.35194 0.0
C1769 C 0.01671 0.04657 0.31467 0.0
H1770 H 0.99308 0.07907 0.40762 0.0
H1771 H 0.99569 0.02155 0.35895 0.0
S1772 S 0.04963 0.12765 0.28291 0.0
N1773 N 0.03805 0.14549 0.32643 0.0
N1774 N 0.04088 0.08314 0.27416 0.0
C1775 C 0.02778 0.08081 0.30739 0.0
C1776 C 0.02619 0.11501 0.33586 0.0
C1777 C 0.24516 0.18226 0.34788 0.0
C1778 C 0.26197 0.17199 0.37079 0.0
C1779 C 0.24406 0.21681 0.3211 0.0
C1780 C 0.25962 0.24299 0.3163 0.0
H1781 H 0.23263 0.16394 0.35137 0.0
H1782 H 0.23091 0.22297 0.30374 0.0
S1783 S 0.30726 0.22834 0.36632 0.0
N1784 N 0.29471 0.19063 0.38506 0.0
N1785 N 0.2927 0.25424 0.33474 0.0
C1786 C 0.27652 0.23259 0.33838 0.0
C1787 C 0.27763 0.19771 0.36566 0.0
C1788 C 0.02012 0.82756 0.13399 0.0
C1789 C 0.01551 0.86639 0.12037 0.0
C1790 C 0.01872 0.79466 0.10491 0.0
C1791 C 0.01285 0.79853 0.06012 0.0
H1792 H 0.02498 0.82231 0.16765 0.0
H1793 H 0.0226 0.76595 0.11762 0.0
S1794 S 0.99777 0.8927 0.00755 0.0
N1795 N 1.00375 0.90567 0.0587 0.0
N1796 N 1.00143 0.84478 0.00446 0.0
C1797 C 1.00789 0.83702 0.04618 0.0
C1798 C 1.00914 0.87048 0.07596 0.0
C1799 C 0.77074 0.95545 0.05412 0.0
C1800 C 0.76174 0.99186 0.06293 0.0
C1801 C 0.76868 0.92244 0.08278 0.0
C1802 C 0.75726 0.92372 0.12164 0.0
H1803 H 0.77965 0.95245 0.02483 0.0
H1804 H 0.77627 0.89571 0.07445 0.0
S1805 S 0.72859 1.01044 0.15686 0.0
N1806 N 0.73989 0.02602 0.11195 0.0
N1807 N 0.73567 0.96469 0.16495 0.0
C1808 C 0.74786 0.95985 0.13022 0.0
C1809 C 0.75017 0.99354 0.10126 0.0
C1810 C 0.02874 0.95571 0.63347 0.0
C1811 C 0.01465 0.92593 0.63288 0.0
C1812 C 0.02743 0.98894 0.6621 0.0
C1813 C 0.01187 0.99428 0.69123 0.0
H1814 H 0.04109 0.95304 0.61209 0.0
H1815 H 0.03891 1.01025 0.66203 0.0
S1816 S 0.9692 0.93005 0.69593 0.0
N1817 N 0.98332 0.90755 0.66 0.0
N1818 N 0.98094 0.96937 0.71325 0.0
C1819 C 0.99728 0.96583 0.68943 0.0
C1820 C 0.99863 0.93198 0.66046 0.0
C1821 C 0.74816 0.79583 0.65397 0.0
C1822 C 0.76185 0.79296 0.68807 0.0
C1823 C 0.74743 0.82884 0.62501 0.0
C1824 C 0.76037 0.86062 0.62833 0.0
H1825 H 0.73758 0.77286 0.65032 0.0
H1826 H 0.73631 0.82996 0.60033 0.0
S1827 S 0.80092 0.86473 0.70735 0.0
N1828 N 0.78983 0.82339 0.72057 0.0
N1829 N 0.78859 0.88455 0.66627 0.0
C1830 C 0.77453 0.85741 0.66138 0.0
C1831 C 0.77524 0.82391 0.691 0.0
C1832 C 0.0189 0.7439 0.39898 0.0
C1833 C 0.0141 0.74057 0.44452 0.0
C1834 C 0.01817 0.711 0.36969 0.0
C1835 C 0.01267 0.67281 0.38402 0.0
H1836 H 0.0234 0.77208 0.38575 0.0
H1837 H 0.0221 0.71555 0.33528 0.0
S1838 S 0.99765 0.64784 0.49916 0.0
N1839 N 1.00285 0.69519 0.50181 0.0
N1840 N 1.00178 0.63448 0.44712 0.0
C1841 C 1.00779 0.66909 0.42931 0.0
C1842 C 1.0084 0.70251 0.4592 0.0
C1843 C 0.24666 0.61238 0.41537 0.0
C1844 C 0.26121 0.61598 0.38303 0.0
C1845 C 0.24536 0.57904 0.44405 0.0
C1846 C 0.25835 0.54724 0.44155 0.0
H1847 H 0.23595 0.63511 0.41798 0.0
H1848 H 0.23389 0.57795 0.46816 0.0
S1849 S 0.30102 0.54511 0.36875 0.0
N1850 N 0.29019 0.58633 0.35453 0.0
N1851 N 0.28752 0.52441 0.40732 0.0
C1852 C 0.27325 0.55113 0.41044 0.0
C1853 C 0.2747 0.5851 0.38161 0.0
C1854 C 0.02139 0.54002 0.86145 0.0
C1855 C 0.01568 0.54228 0.81651 0.0
C1856 C 0.02119 0.57355 0.88986 0.0
C1857 C 0.01508 0.61124 0.87533 0.0
H1858 H 0.02644 0.5123 0.87469 0.0
H1859 H 0.02617 0.56989 0.92367 0.0
S1860 S 0.99753 0.63311 0.76139 0.0
N1861 N 1.003 0.58589 0.75943 0.0
N1862 N 1.00257 0.64777 0.81253 0.0
C1863 C 1.00918 0.6138 0.8306 0.0
C1864 C 1.00943 0.57978 0.80155 0.0
C1865 C 0.25075 0.67268 0.83257 0.0
C1866 C 0.26192 0.67304 0.87163 0.0
C1867 C 0.24946 0.70615 0.80421 0.0
C1868 C 0.25904 0.74202 0.81343 0.0
H1869 H 0.24278 0.64646 0.82392 0.0
H1870 H 0.24074 0.70397 0.77468 0.0
S1871 S 0.29173 0.75801 0.90835 0.0
N1872 N 0.28388 0.71265 0.91576 0.0
N1873 N 0.28095 0.7746 0.86336 0.0
C1874 C 0.27024 0.74281 0.85213 0.0
C1875 C 0.2718 0.70874 0.88075 0.0
C1876 C 0.02555 0.32472 0.56461 0.0
C1877 C 1.01076 0.29652 0.56654 0.0
C1878 C 0.02618 0.35748 0.59382 0.0
C1879 C 0.01183 0.36411 0.62575 0.0
H1880 H 0.0369 0.32124 0.54048 0.0
H1881 H 0.03807 0.37769 0.59151 0.0
S1882 S 0.96867 0.3025 0.64101 0.0
N1883 N 0.9807 0.27943 0.60147 0.0
N1884 N 0.98162 0.34121 0.65515 0.0
C1885 C 0.9967 0.33685 0.62726 0.0
C1886 C 0.99621 0.30311 0.59804 0.0
C1887 C 0.76959 0.42733 0.58603 0.0
C1888 C 0.75799 0.42674 0.62456 0.0
C1889 C 0.77131 0.46136 0.55874 0.0
C1890 C 0.76179 0.49708 0.56863 0.0
H1891 H 0.77756 0.4013 0.57687 0.0
H1892 H 0.78029 0.45964 0.52942 0.0
S1893 S 0.72825 0.51106 0.66278 0.0
N1894 N 0.73582 0.46542 0.66908 0.0
N1895 N 0.73945 0.52857 0.61861 0.0
C1896 C 0.75013 0.49697 0.60681 0.0
C1897 C 0.74816 0.46223 0.63437 0.0
C1898 C 0.02021 0.45832 0.19875 0.0
C1899 C 1.0102 0.49339 0.18874 0.0
C1900 C 0.02097 0.42602 0.1689 0.0
C1901 C 0.01195 0.42705 0.12704 0.0
H1902 H 0.02773 0.45567 0.23006 0.0
H1903 H 0.02905 0.40028 0.17843 0.0
S1904 S 0.98102 0.50825 0.0871 0.0
N1905 N 0.98904 0.52442 0.13548 0.0
N1906 N 0.9909 0.46472 0.07927 0.0
C1907 C 1.00139 0.4613 0.11703 0.0
C1908 C 1.0004 0.49405 0.14773 0.0
C1909 C 0.77382 0.3337 0.12403 0.0
C1910 C 0.76151 0.36607 0.13058 0.0
C1911 C 0.77421 0.30103 0.15362 0.0
C1912 C 0.76245 0.29928 0.1918 0.0
H1913 H 0.78351 0.33393 0.09607 0.0
H1914 H 0.78405 0.27727 0.14685 0.0
S1915 S 0.72745 0.37624 0.22433 0.0
N1916 N 0.73722 0.39386 0.17837 0.0
N1917 N 0.73799 0.33368 0.23393 0.0
C1918 C 0.75032 0.33193 0.19907 0.0
C1919 C 0.74988 0.36492 0.16875 0.0
C1920 C 0.50481 0.24612 0.40253 0.0
C1921 C 0.51497 0.24481 0.44284 0.0
C1922 C 0.50342 0.21294 0.37408 0.0
C1923 C 0.51179 0.17613 0.3846 0.0
H1924 H 0.49742 0.27274 0.39326 0.0
H1925 H 0.49557 0.21631 0.34331 0.0
S1926 S 0.53932 0.15578 0.48741 0.0
N1927 N 0.53322 0.20252 0.49237 0.0
N1928 N 0.53026 0.14064 0.4396 0.0
C1929 C 0.52155 0.174 0.42544 0.0
C1930 C 0.52318 0.208 0.45425 0.0
C1931 C 0.77508 0.07411 0.43951 0.0
C1932 C 0.7595 0.04764 0.43963 0.0
C1933 C 0.77552 0.10829 0.41224 0.0
C1934 C 0.76018 0.11843 0.38435 0.0
H1935 H 0.78722 0.06813 0.46056 0.0
H1936 H 0.78813 0.12662 0.4125 0.0
S1937 S 0.71525 0.06144 0.37428 0.0
N1938 N 0.72788 0.03566 0.41031 0.0
N1939 N 0.72863 0.09941 0.35974 0.0
C1940 C 0.74441 0.09256 0.38451 0.0
C1941 C 0.74405 0.05753 0.41194 0.0
C1942 C 0.52448 0.07633 0.88463 0.0
C1943 C 0.51384 0.1111 0.87719 0.0
C1944 C 0.52391 0.04385 0.8548 0.0
C1945 C 0.51238 0.04411 0.81634 0.0
H1946 H 0.53355 0.07433 0.91366 0.0
H1947 H 0.53288 1.0187 0.86151 0.0
S1948 S 0.47994 0.12567 0.78418 0.0
N1949 N 0.49043 0.14213 0.82975 0.0
N1950 N 0.48895 0.0816 0.77474 0.0
C1951 C 0.50129 0.07829 0.80933 0.0
C1952 C 0.50209 0.11147 0.83932 0.0
C1953 C 0.75054 0.20391 0.80207 0.0
C1954 C 0.75988 0.24017 0.81061 0.0
C1955 C 0.75207 0.17111 0.83126 0.0
C1956 C 0.76325 0.17265 0.87027 0.0
H1957 H 0.74171 0.20098 0.77272 0.0
H1958 H 0.74411 0.14464 0.82361 0.0
S1959 S 0.7932 0.25823 0.90403 0.0
N1960 N 0.78214 0.27384 0.85892 0.0
N1961 N 0.78554 0.21287 0.91257 0.0
C1962 C 0.77329 0.20829 0.87798 0.0
C1963 C 0.77147 0.24172 0.84867 0.0
C1964 C 0.50999 0.82604 0.63399 0.0
C1965 C 0.51469 0.8646 0.61958 0.0
C1966 C 0.5088 0.79347 0.60416 0.0
C1967 C 0.5124 0.79741 0.55794 0.0
H1968 H 0.50698 0.82096 0.6688 0.0
H1969 H 0.50492 0.76497 0.6176 0.0
S1970 S 0.52688 0.89123 0.50299 0.0
N1971 N 0.52382 0.90386 0.55565 0.0
N1972 N 0.52197 0.84374 0.50017 0.0
C1973 C 0.51744 0.83578 0.54327 0.0
C1974 C 0.51848 0.86887 0.57367 0.0
C1975 C 0.24481 0.98853 0.593 0.0
C1976 C 0.26154 0.99755 0.56889 0.0
C1977 C 0.24325 0.95409 0.61985 0.0
C1978 C 0.25816 0.92628 0.62322 0.0
H1979 H 0.23262 1.00779 0.5903 0.0
H1980 H 0.23004 0.94881 0.6375 0.0
S1981 S 0.30578 0.93814 0.57089 0.0
N1982 N 0.29382 0.97688 0.55314 0.0
N1983 N 0.29094 0.91291 0.60276 0.0
C1984 C 0.27512 0.93563 0.60015 0.0
C1985 C 0.27675 0.9708 0.57324 0.0
C1986 C 0.52242 0.93087 0.166 0.0
C1987 C 0.51114 0.93077 0.12715 0.0
C1988 C 0.52243 0.96308 0.19618 0.0
C1989 C 0.51111 0.99694 0.18932 0.0
H1990 H 0.53165 0.90611 0.1728 0.0
H1991 H 0.53164 0.96159 0.22504 0.0
S1992 S 0.47617 1.00825 0.09751 0.0
N1993 N 0.48669 0.9659 0.08642 0.0
N1994 N 0.48629 0.02526 0.14334 0.0
C1995 C 0.4991 0.99634 0.15168 0.0
C1996 C 0.49923 0.96372 0.12069 0.0
C1997 C 0.26954 0.795 0.14682 0.0
C1998 C 0.26017 0.79424 0.18853 0.0
C1999 C 0.26897 0.82869 0.11858 0.0
C2000 C 0.25894 0.86342 0.13007 0.0
H2001 H 0.27778 0.76973 0.13627 0.0
H2002 H 0.27684 0.82787 0.08767 0.0
S2003 S 0.23052 0.87596 0.23344 0.0
N2004 N 0.23961 0.83138 0.23839 0.0
N2005 N 0.23857 0.89349 0.18563 0.0
C2006 C 0.24934 0.86282 0.17132 0.0
C2007 C 0.24992 0.8287 0.20016 0.0
C2008 C 0.51399 0.71473 0.86625 0.0
C2009 C 0.51261 0.67534 0.88198 0.0
C2010 C 0.51477 0.74794 0.89524 0.0
C2011 C 0.51406 0.74398 0.94206 0.0
H2012 H 0.51452 0.72014 0.83083 0.0
H2013 H 0.51597 0.77698 0.88063 0.0
S2014 S 0.50861 0.64784 1.00124 0.0
N2015 N 0.5096 0.63518 0.94819 0.0
N2016 N 0.51068 0.69627 1.00236 0.0
C2017 C 0.5123 0.70468 0.95825 0.0
C2018 C 0.51169 0.67095 0.92858 0.0
C2019 C 0.74292 0.56716 0.93052 0.0
C2020 C 0.75806 0.53994 0.93467 0.0
C2021 C 0.74463 0.60259 0.9053 0.0
C2022 C 0.76172 0.61314 0.88337 0.0
H2023 H 0.7296 0.5612 0.94739 0.0
H2024 H 0.73235 0.62159 0.90249 0.0
S2025 S 0.8064 0.55486 0.88781 0.0
N2026 N 0.7912 0.52828 0.9172 0.0
N2027 N 0.79445 0.59362 0.87015 0.0
C2028 C 0.77702 0.58642 0.88798 0.0
C2029 C 0.77524 0.55046 0.91354 0.0
C2030 C 0.52792 0.57437 0.30784 0.0
C2031 C 0.51544 0.54171 0.31208 0.0
C2032 C 0.52655 0.60826 0.33579 0.0
C2033 C 0.51238 0.61164 0.36907 0.0
H2034 H 0.53899 0.57367 0.28271 0.0
H2035 H 0.53688 0.63167 0.33175 0.0
S2036 S 0.47333 0.53927 0.38649 0.0
N2037 N 0.48677 0.51828 0.34807 0.0
N2038 N 0.48394 0.58115 0.39955 0.0
C2039 C 0.49928 0.58001 0.37201 0.0
C2040 C 0.50082 0.54549 0.34391 0.0
C2041 C 0.76849 0.70521 0.30473 0.0
C2042 C 0.75879 0.7408 0.31457 0.0
C2043 C 0.76867 0.67274 0.33452 0.0
C2044 C 0.75921 0.67404 0.37597 0.0
H2045 H 0.77622 0.70237 0.27364 0.0
H2046 H 0.77668 0.64674 0.32539 0.0
S2047 S 0.72901 0.75691 0.41509 0.0
N2048 N 0.7377 0.77287 0.36725 0.0
N2049 N 0.7382 0.71278 0.423 0.0
C2050 C 0.74899 0.70889 0.38565 0.0
C2051 C 0.74873 0.74186 0.35523 0.0
C2052 C 0.52226 0.35598 0.09054 0.0
C2053 C 0.50817 0.36143 0.12338 0.0
C2054 C 0.52229 0.3225 0.06229 0.0
C2055 C 0.50832 0.29254 0.06556 0.0
H2056 H 0.53362 0.37736 0.08722 0.0
H2057 H 0.53356 0.31985 0.0378 0.0
S2058 S 0.4658 0.29732 0.13886 0.0
N2059 N 0.47828 0.33673 0.15288 0.0
N2060 N 0.47841 0.27422 0.10032 0.0
C2061 C 0.49366 0.29861 0.09691 0.0
C2062 C 0.49359 0.33282 0.12557 0.0
C2063 C 0.24826 0.45998 0.06088 0.0
C2064 C 0.26141 0.49137 0.06549 0.0
C2065 C 0.24794 0.42751 0.09057 0.0
C2066 C 0.26071 0.42475 0.12656 0.0
H2067 H 0.23791 0.46061 0.03421 0.0
H2068 H 0.23735 0.40472 0.08577 0.0
S2069 S 0.29959 0.4956 0.15087 0.0
N2070 N 0.28869 0.51501 0.10741 0.0
N2071 N 0.28786 0.45479 0.16298 0.0
C2072 C 0.27418 0.45531 0.1311 0.0
C2073 C 0.27459 0.48827 0.10078 0.0
C2074 C 0.52254 0.42508 0.67022 0.0
C2075 C 0.51205 0.42498 0.63028 0.0
C2076 C 0.52278 0.45823 0.69894 0.0
C2077 C 0.51246 0.493 0.68941 0.0
H2078 H 0.53101 0.39964 0.67892 0.0
H2079 H 0.53131 0.4566 0.72889 0.0
S2080 S 0.47975 0.50493 0.59346 0.0
N2081 N 0.48935 0.46116 0.58539 0.0
N2082 N 0.48948 0.52256 0.63938 0.0
C2083 C 0.50129 0.49255 0.65044 0.0
C2084 C 0.50117 0.45892 0.62103 0.0
C2085 C 0.27399 0.32906 0.69436 0.0
C2086 C 0.26193 0.29586 0.69043 0.0
C2087 C 0.27291 0.36135 0.6644 0.0
C2088 C 0.25959 0.36224 0.62923 0.0
H2089 H 0.28449 0.32995 0.72069 0.0
H2090 H 0.2828 0.38557 0.6685 0.0
S2091 S 0.22232 0.28654 0.60983 0.0
N2092 N 0.23484 0.26841 0.65151 0.0
N2093 N 0.23258 0.32866 0.59619 0.0
C2094 C 0.24703 0.32985 0.62608 0.0
C2095 C 0.24824 0.29693 0.65632 0.0
C2096 C 0.13548 0.30291 0.16935 0.0
C2097 C 0.15323 0.31318 0.15022 0.0
C2098 C 0.11877 0.30477 0.14392 0.0
C2099 C 0.11978 0.31291 0.09823 0.0
H2100 H 0.13402 0.30221 0.20531 0.0
H2101 H 0.10521 0.30595 0.16108 0.0
S2102 S 0.16356 0.31829 0.02957 0.0
N2103 N 0.1713 0.31752 0.08155 0.0
N2104 N 0.14018 0.31403 0.03267 0.0
C2105 C 0.13779 0.31052 0.07748 0.0
C2106 C 0.15464 0.31226 0.10376 0.0
C2107 C 0.12023 0.99857 0.12236 0.0
C2108 C 0.12546 0.98691 0.16543 0.0
C2109 C 0.1341 1.00171 0.08884 0.0
C2110 C 0.15303 0.99017 0.0974 0.0
H2111 H 0.10539 0.99878 0.11278 0.0
H2112 H 0.1293 1.00465 0.0547 0.0
S2113 S 0.17419 0.97396 0.20871 0.0
N2114 N 0.15127 0.98002 0.21839 0.0
N2115 N 0.17695 0.97972 0.15442 0.0
C2116 C 0.15882 0.98805 0.14204 0.0
C2117 C 0.14491 0.98796 0.17656 0.0
C2118 C 0.91075 0.73061 0.86252 0.0
C2119 C 0.90632 0.7261 0.9078 0.0
C2120 C 0.89614 0.73557 0.83114 0.0
C2121 C 0.87683 0.73266 0.84424 0.0
H2122 H 0.92499 0.7244 0.85064 0.0
H2123 H 0.89984 0.73307 0.79616 0.0
S2124 S 0.85887 0.73691 0.95997 0.0
N2125 N 0.8822 0.73439 0.96511 0.0
N2126 N 0.85463 0.73769 0.90584 0.0
C2127 C 0.87267 0.73698 0.88959 0.0
C2128 C 0.8876 0.73489 0.92158 0.0
C2129 C 0.90417 0.05556 0.88787 0.0
C2130 C 0.89942 0.06502 0.84379 0.0
C2131 C 0.88987 0.05181 0.92058 0.0
C2132 C 0.87068 0.06125 0.91079 0.0
H2133 H 0.91887 0.05673 0.89847 0.0
H2134 H 0.89432 0.04993 0.95507 0.0
S2135 S 0.85072 0.07174 0.79746 0.0
N2136 N 0.87388 0.06786 0.78941 0.0
N2137 N 0.84742 0.06795 0.85183 0.0
C2138 C 0.86557 0.06219 0.8657 0.0
C2139 C 0.87998 0.06247 0.83195 0.0
C2140 C 0.15834 0.79593 0.60972 0.0
C2141 C 0.15278 0.80013 0.65435 0.0
C2142 C 0.14449 0.79081 0.5766 0.0
C2143 C 0.12501 0.79476 0.5876 0.0
H2144 H 0.17281 0.80255 0.59973 0.0
H2145 H 0.14896 0.79381 0.54216 0.0
S2146 S 0.10461 0.78471 0.70068 0.0
N2147 N 0.12775 0.78882 0.70871 0.0
N2148 N 0.10149 0.78604 0.64612 0.0
C2149 C 0.11982 0.78852 0.63211 0.0
C2150 C 0.13397 0.79034 0.66582 0.0
C2151 C 0.15733 0.48227 0.63991 0.0
C2152 C 0.15437 0.48593 0.59387 0.0
C2153 C 0.14173 0.4795 0.66907 0.0
C2154 C 0.12293 0.47846 0.65244 0.0
H2155 H 0.17125 0.47435 0.65239 0.0
H2156 H 0.14444 0.47087 0.70324 0.0
S2157 S 0.10849 0.50564 0.53837 0.0
N2158 N 0.13196 0.50527 0.53662 0.0
N2159 N 0.10256 0.49482 0.59028 0.0
C2160 C 0.12006 0.49146 0.60882 0.0
C2161 C 0.13601 0.4972 0.57989 0.0
C2162 C 0.86946 0.19026 0.37785 0.0
C2163 C 0.87101 0.22146 0.34763 0.0
C2164 C 0.88137 0.18782 0.41444 0.0
C2165 C 0.89456 0.21781 0.4247 0.0
H2166 H 0.86026 0.16537 0.3707 0.0
H2167 H 0.88071 0.16102 0.4338 0.0
S2168 S 0.90263 0.30817 0.35828 0.0
N2169 N 0.88622 0.28374 0.33008 0.0
N2170 N 0.90756 0.28125 0.40271 0.0
C2171 C 0.8956 0.25044 0.39605 0.0
C2172 C 0.88392 0.25198 0.35694 0.0
C2173 C 0.90541 0.54885 0.38585 0.0
C2174 C 0.89882 0.54635 0.34173 0.0
C2175 C 0.89248 0.55228 0.42131 0.0
C2176 C 0.87276 0.5561 0.4131 0.0
H2177 H 0.92027 0.55467 0.39263 0.0
H2178 H 0.89812 0.55927 0.45398 0.0
S2179 S 0.84896 0.52914 0.30743 0.0
N2180 N 0.8719 0.52713 0.29572 0.0
N2181 N 0.84747 0.54176 0.36051 0.0
C2182 C 0.86618 0.54388 0.37125 0.0
C2183 C 0.87943 0.53656 0.33603 0.0
C2184 C 0.61867 0.29611 0.63301 0.0
C2185 C 0.62198 0.30727 0.58873 0.0
C2186 C 0.63355 0.29743 0.66403 0.0
C2187 C 0.65177 0.311 0.65144 0.0
H2188 H 0.60424 0.29368 0.64538 0.0
H2189 H 0.62998 0.29471 0.69905 0.0
S2190 S 0.66831 0.32992 0.53638 0.0
N2191 N 0.64568 0.31784 0.53102 0.0
N2192 N 0.67306 0.32607 0.5901 0.0
C2193 C 0.65596 0.31357 0.60588 0.0
C2194 C 0.64108 0.30907 0.57397 0.0
C2195 C 0.64392 0.98424 0.6699 0.0
C2196 C 0.62449 0.98032 0.65869 0.0
C2197 C 0.65786 0.98519 0.63644 0.0
C2198 C 0.65247 0.98435 0.59149 0.0
H2199 H 0.64849 0.97886 0.70384 0.0
H2200 H 0.67247 0.9795 0.64573 0.0
S2201 S 0.60387 0.99556 0.54681 0.0
N2202 N 0.60079 0.98952 0.60099 0.0
N2203 N 0.62709 0.99671 0.53872 0.0
C2204 C 0.63338 0.99309 0.58132 0.0
C2205 C 0.61915 0.98927 0.61494 0.0
C2206 C 0.3815 0.73699 0.42995 0.0
C2207 C 0.40082 0.73375 0.41679 0.0
C2208 C 0.36694 0.73447 0.39798 0.0
C2209 C 0.37148 0.73342 0.35245 0.0
H2210 H 0.37767 0.73179 0.46448 0.0
H2211 H 0.35266 0.72736 0.40903 0.0
S2212 S 0.41898 0.7501 0.30266 0.0
N2213 N 0.42315 0.74509 0.35654 0.0
N2214 N 0.39567 0.74769 0.29686 0.0
C2215 C 0.39021 0.74358 0.34009 0.0
C2216 C 0.40509 0.74246 0.37232 0.0
C2217 C 0.40995 0.05695 0.39498 0.0
C2218 C 0.406 0.06239 0.3496 0.0
C2219 C 0.39502 0.05063 0.42554 0.0
C2220 C 0.37581 0.05434 0.41183 0.0
H2221 H 0.42403 0.06326 0.40771 0.0
H2222 H 0.39839 0.0524 0.46073 0.0
S2223 S 0.35911 0.05115 0.29516 0.0
N2224 N 0.38249 0.05429 0.29113 0.0
N2225 N 0.35432 0.04966 0.34907 0.0
C2226 C 0.37217 0.05052 0.36618 0.0
C2227 C 0.38744 0.05334 0.33489 0.0
C2228 C 0.62497 0.8143 0.17043 0.0
C2229 C 0.64462 0.81469 0.15999 0.0
C2230 C 0.61126 0.81148 0.13673 0.0
C2231 C 0.6169 0.80696 0.09216 0.0
H2232 H 0.62021 0.82264 0.2035 0.0
H2233 H 0.59674 0.81944 0.14475 0.0
S2234 S 0.66549 0.78516 0.05171 0.0
N2235 N 0.66838 0.7969 0.10473 0.0
N2236 N 0.64233 0.786 0.04275 0.0
C2237 C 0.63586 0.79527 0.08416 0.0
C2238 C 0.64999 0.8011 0.1177 0.0
C2239 C 0.6518 0.49144 0.13653 0.0
C2240 C 0.64725 0.47933 0.09314 0.0
C2241 C 0.6374 0.49539 0.16893 0.0
C2242 C 0.61853 0.48297 0.15978 0.0
H2243 H 0.6665 0.49225 0.14717 0.0
H2244 H 0.64178 0.4998 0.20319 0.0
S2245 S 0.59884 0.46725 0.04673 0.0
N2246 N 0.6219 0.47293 0.03864 0.0
N2247 N 0.59542 0.47235 0.10092 0.0
C2248 C 0.61343 0.4801 0.1147 0.0
C2249 C 0.62784 0.48008 0.08101 0.0
C2250 C 0.40923 0.23589 0.87161 0.0
C2251 C 0.40335 0.23038 0.91589 0.0
C2252 C 0.39568 0.24068 0.83764 0.0
C2253 C 0.37603 0.23582 0.84683 0.0
H2254 H 0.42386 0.23047 0.86217 0.0
H2255 H 0.40065 0.23944 0.80345 0.0
S2256 S 0.35427 0.24079 0.95911 0.0
N2257 N 0.37739 0.23946 0.9685 0.0
N2258 N 0.35181 0.24023 0.90436 0.0
C2259 C 0.37031 0.24002 0.89135 0.0
C2260 C 0.38419 0.23924 0.92605 0.0
C2261 C 0.38333 0.603 0.90318 0.0
C2262 C 0.37592 0.56745 0.91957 0.0
C2263 C 0.39678 0.60339 0.8695 0.0
C2264 C 0.401 0.5692 0.84535 0.0
H2265 H 0.37943 0.63087 0.91827 0.0
H2266 H 0.40312 0.63134 0.86031 0.0
S2267 S 0.38384 0.46871 0.87088 0.0
N2268 N 0.37403 0.49653 0.90995 0.0
N2269 N 0.39634 0.49861 0.83855 0.0
C2270 C 0.39297 0.53341 0.85929 0.0
C2271 C 0.38074 0.53235 0.89759 0.0
C2272 C 0.03089 0.50614 1.00015 0.0
C2273 C 0.01435 0.49256 0.97868 0.0
C2274 C 0.03126 0.54261 0.02232 0.0
C2275 C 0.01526 0.56754 0.02365 0.0
H2276 H 0.0431 0.48703 0.00356 0.0
H2277 H 0.04369 0.54974 0.04206 0.0
S2278 S 0.97008 0.55036 0.96329 0.0
N2279 N 0.98272 0.51036 0.95313 0.0
N2280 N 0.98354 0.57892 0.99483 0.0
C2281 C 0.99949 0.55664 0.99767 0.0
C2282 C 0.999 0.51914 0.9753 0.0
C2283 C 0.27372 0.75071 0.02348 0.0
C2284 C 0.25728 0.72833 0.01472 0.0
C2285 C 0.27567 0.78938 0.00779 0.0
C2286 C 0.26114 0.80783 0.98329 0.0
H2287 H 0.28542 0.7381 0.042 0.0
H2288 H 0.28865 0.80507 0.01564 0.0
S2289 S 0.21542 0.76202 0.9497 0.0
N2290 N 0.22631 0.72742 0.9785 0.0
N2291 N 0.22992 0.80027 0.94985 0.0
C2292 C 0.24464 0.78585 0.9741 0.0
C2293 C 0.24268 0.74624 0.98978 0.0
C2294 C 0.02878 0.75114 0.25478 0.0
C2295 C 0.01394 0.73294 0.23092 0.0
C2296 C 0.02722 0.78997 0.27027 0.0
C2297 C 1.0109 0.81265 0.26191 0.0
H2298 H 0.04147 0.7348 0.2633 0.0
H2299 H 0.03898 0.80228 0.28896 0.0
S2300 S 0.96914 0.78076 0.19501 0.0
N2301 N 0.98312 0.74183 0.19596 0.0
N2302 N 0.98023 0.8149 0.22431 0.0
C2303 C 0.99625 0.79535 0.2364 0.0
C2304 C 0.99782 0.75566 0.22084 0.0
C2305 C 0.27743 0.5306 0.2575 0.0
C2306 C 0.26277 0.54538 0.23054 0.0
C2307 C 0.27583 0.49376 0.27856 0.0
C2308 C 0.25959 0.46975 0.27361 0.0
H2309 H 0.28952 0.549 0.26572 0.0
H2310 H 0.28669 0.48553 0.30231 0.0
S2311 S 0.21973 0.48953 0.19626 0.0
N2312 N 0.23333 0.52914 0.19218 0.0
N2313 N 0.23023 0.46024 0.2326 0.0
C2314 C 0.24594 0.48185 0.24234 0.0
C2315 C 0.24755 0.51957 0.22069 0.0
C2316 C 0.77405 0.28796 0.0144 0.0
C2317 C 0.76038 0.29811 0.98225 0.0
C2318 C 0.77419 0.25083 0.03494 0.0
C2319 C 0.76114 0.22125 0.02319 0.0
H2320 H 0.78414 0.3098 0.02571 0.0
H2321 H 0.7838 0.24623 0.06264 0.0
S2322 S 0.72509 0.22908 0.93353 0.0
N2323 N 0.73517 0.27314 0.93455 0.0
N2324 N 0.73556 0.20297 0.97294 0.0
C2325 C 0.74835 0.22966 0.98834 0.0
C2326 C 0.74798 0.26804 0.9678 0.0
C2327 C 0.99435 0.28707 0.74881 0.0
C2328 C 1.00967 0.3018 0.7742 0.0
C2329 C 0.99435 0.24856 0.73148 0.0
C2330 C 1.00957 0.22272 0.73891 0.0
H2331 H 0.98278 0.30627 0.73946 0.0
H2332 H 0.98322 0.24031 0.70835 0.0
S2333 S 0.05048 0.24234 0.81362 0.0
N2334 N 0.03855 0.28424 0.81371 0.0
N2335 N 0.03871 0.2121 0.78036 0.0
C2336 C 0.02392 0.2354 0.76839 0.0
C2337 C 0.02393 0.27479 0.78621 0.0
C2338 C 0.74744 0.53698 0.76418 0.0
C2339 C 0.76286 0.55591 0.74305 0.0
C2340 C 0.74834 0.49723 0.77662 0.0
C2341 C 0.76473 0.47457 0.76872 0.0
H2342 H 0.73449 0.55295 0.77145 0.0
H2343 H 0.73591 0.48407 0.79195 0.0
S2344 S 0.8093 0.5102 0.71513 0.0
N2345 N 0.79515 0.54888 0.71512 0.0
N2346 N 0.79699 0.47451 0.73892 0.0
C2347 C 0.78039 0.49327 0.74813 0.0
C2348 C 0.7794 0.53373 0.73512 0.0
C2349 C 0.02681 0.03979 0.4839 0.0
C2350 C 0.01458 0.05692 0.51575 0.0
C2351 C 0.02501 1.00011 0.47142 0.0
C2352 C 1.01086 0.97588 0.49006 0.0
H2353 H 0.03769 0.05731 0.4677 0.0
H2354 H 0.03486 0.98828 0.44704 0.0
S2355 S 0.97575 1.00582 0.57656 0.0
N2356 N 0.98815 0.0462 0.56659 0.0
N2357 N 0.98471 0.97178 0.54335 0.0
C2358 C 0.99853 0.99261 0.52206 0.0
C2359 C 1.00042 0.03301 0.53487 0.0
C2360 C 0.24491 0.30274 0.49347 0.0
C2361 C 0.26152 0.3211 0.47765 0.0
C2362 C 0.24539 0.2645 0.51192 0.0
C2363 C 0.26253 0.24311 0.51593 0.0
H2364 H 0.23121 0.31626 0.48751 0.0
H2365 H 0.23199 0.25057 0.52023 0.0
S2366 S 0.31029 0.27999 0.48323 0.0
N2367 N 0.29575 0.31625 0.47008 0.0
N2368 N 0.29681 0.24542 0.5057 0.0
C2369 C 0.27943 0.26269 0.50371 0.0
C2370 C 0.27887 0.30135 0.48443 0.0
C2371 C 0.24651 0.99526 0.75746 0.0
C2372 C 0.26377 0.9746 0.76089 0.0
C2373 C 0.24602 0.03465 0.74352 0.0
C2374 C 0.26277 0.05534 0.73277 0.0
H2375 H 0.23314 0.98085 0.76507 0.0
H2376 H 0.23234 0.04918 0.74212 0.0
S2377 S 0.31169 1.0142 0.73393 0.0
N2378 N 0.29805 0.97745 0.75065 0.0
N2379 N 0.29716 0.05138 0.72468 0.0
C2380 C 0.28012 0.03477 0.73505 0.0
C2381 C 0.28062 0.99458 0.74921 0.0
C2382 C 0.7784 0.76362 0.51019 0.0
C2383 C 0.76149 0.74639 0.52618 0.0
C2384 C 0.77837 0.80077 0.48937 0.0
C2385 C 0.76152 0.82272 0.48419 0.0
H2386 H 0.7915 0.74691 0.50992 0.0
H2387 H 0.79135 0.81076 0.47349 0.0
S2388 S 0.71428 0.79483 0.5282 0.0
N2389 N 0.72798 0.75732 0.54174 0.0
N2390 N 0.72809 0.82695 0.50254 0.0
C2391 C 0.74504 0.80806 0.50473 0.0
C2392 C 0.74498 0.76998 0.52568 0.0
C2393 C 0.74368 0.99651 0.27288 0.0
C2394 C 0.76079 0.97523 0.26965 0.0
C2395 C 0.74257 0.03606 0.25961 0.0
C2396 C 0.75846 0.0561 0.24201 0.0
H2397 H 0.73082 0.98229 0.28461 0.0
H2398 H 0.729 0.05081 0.26264 0.0
S2399 S 0.8073 1.01538 0.23176 0.0
N2400 N 0.79451 0.97852 0.25152 0.0
N2401 N 0.79236 0.05236 0.22586 0.0
C2402 C 0.77587 0.03565 0.24025 0.0
C2403 C 0.77706 0.99547 0.2543 0.0
C2404 C 0.49737 0.55504 0.50455 0.0
C2405 C 0.51322 0.56814 0.52898 0.0
C2406 C 0.49706 0.51712 0.48497 0.0
C2407 C 0.51277 0.4914 0.48751 0.0
H2408 H 0.48443 0.57226 0.50466 0.0
H2409 H 0.48388 0.5067 0.47064 0.0
S2410 S 0.55818 0.51299 0.54557 0.0
N2411 N 0.54531 0.55306 0.55295 0.0
N2412 N 0.54501 0.48325 0.51491 0.0
C2413 C 0.5292 0.50558 0.50894 0.0
C2414 C 0.52935 0.54359 0.52973 0.0
C2415 C 0.52927 0.75291 0.75295 0.0
C2416 C 0.51347 0.73334 0.73449 0.0
C2417 C 0.52781 0.79131 0.76971 0.0
C2418 C 0.51053 0.81214 0.76835 0.0
H2419 H 0.54287 0.7382 0.75554 0.0
H2420 H 0.54048 0.80492 0.78324 0.0
S2421 S 0.46506 0.77515 0.72112 0.0
N2422 N 0.48007 0.7384 0.71432 0.0
N2423 N 0.47727 0.81035 0.74605 0.0
C2424 C 0.49458 0.79298 0.74993 0.0
C2425 C 0.49611 0.75387 0.73258 0.0
C2426 C 0.50339 0.26663 0.22134 0.0
C2427 C 0.51376 0.23197 0.23013 0.0
C2428 C 0.50571 0.30162 0.24639 0.0
C2429 C 0.51906 0.3041 0.28102 0.0
H2430 H 0.49349 0.2666 0.19406 0.0
H2431 H 0.49642 0.32621 0.23971 0.0
S2432 S 0.55038 0.22219 0.31803 0.0
N2433 N 0.53849 0.20314 0.27571 0.0
N2434 N 0.54254 0.26775 0.32384 0.0
C2435 C 0.52953 0.26945 0.29049 0.0
C2436 C 0.52711 0.23388 0.26481 0.0
C2437 C 0.52462 1.0183 0.03583 0.0
C2438 C 0.51233 0.05095 0.02894 0.0
C2439 C 0.52447 0.98454 0.00813 0.0
C2440 C 0.51183 0.98138 0.97222 0.0
H2441 H 0.53456 1.01864 0.06337 0.0
H2442 H 0.53469 0.96138 0.01422 0.0
S2443 S 0.47582 0.05677 0.94045 0.0
N2444 N 0.48665 0.07636 0.98394 0.0
N2445 N 0.48616 1.01379 0.932 0.0
C2446 C 0.49928 1.01356 0.9652 0.0
C2447 C 0.49957 0.04799 0.9933 0.0
C2448 C 0.02714 0.11821 0.09788 0.0
C2449 C 0.01804 0.1044 0.13639 0.0
C2450 C 0.02773 0.15855 0.08833 0.0
C2451 C 0.01934 0.18632 0.11716 0.0
H2452 H 0.03367 0.09768 0.07485 0.0
H2453 H 0.03456 0.16799 0.05773 0.0
S2454 S 0.99533 0.16482 0.22453 0.0
N2455 N 1.00144 0.12112 0.20494 0.0
N2456 N 1.00247 0.19718 0.18689 0.0
C2457 C 1.01036 0.17278 0.15609 0.0
C2458 C 1.00977 0.13167 0.1658 0.0
C2459 C 0.2693 0.16871 0.11233 0.0
C2460 C 0.25603 0.18471 0.14247 0.0
C2461 C 0.26972 0.12811 0.10338 0.0
C2462 C 0.25685 0.10219 0.12417 0.0
H2463 H 0.27934 0.18768 0.09524 0.0
H2464 H 0.2799 0.11707 0.07927 0.0
S2465 S 0.22099 0.12791 0.20968 0.0
N2466 N 0.23088 0.1704 0.19617 0.0
N2467 N 0.2315 0.09448 0.17822 0.0
C2468 C 0.24384 0.1175 0.15495 0.0
C2469 C 0.24349 0.15866 0.16445 0.0
C2470 C 0.02346 0.87731 0.89932 0.0
C2471 C 1.01034 0.85124 0.87957 0.0
C2472 C 0.02275 0.91815 0.89101 0.0
C2473 C 1.00889 0.93437 0.8626 0.0
H2474 H 0.03396 0.86625 0.92248 0.0
H2475 H 0.03291 0.93718 0.90754 0.0
S2476 S 0.97304 0.87737 0.79817 0.0
N2477 N 0.98425 0.84382 0.82782 0.0
N2478 N 0.98298 0.91992 0.81129 0.0
C2479 C 0.9962 0.90813 0.84139 0.0
C2480 C 0.99689 0.86678 0.85014 0.0
C2481 C 0.76344 0.90304 0.92136 0.0
C2482 C 0.76463 0.93216 0.88808 0.0
C2483 C 0.7624 0.86289 0.91016 0.0
C2484 C 0.76299 0.85085 0.86542 0.0
H2485 H 0.76346 0.91137 0.95624 0.0
H2486 H 0.76178 0.84118 0.93656 0.0
S2487 S 0.7644 0.91607 0.76631 0.0
N2488 N 0.76492 0.94666 0.80911 0.0
N2489 N 0.76356 0.87126 0.78774 0.0
C2490 C 0.76361 0.87985 0.83196 0.0
C2491 C 0.76427 0.9206 0.8434 0.0
C2492 C 0.03429 0.62611 0.6392 0.0
C2493 C 0.01753 0.60343 0.63747 0.0
C2494 C 0.03402 0.66679 0.63157 0.0
C2495 C 0.01695 0.68662 0.62243 0.0
H2496 H 0.04779 0.61245 0.64683 0.0
H2497 H 0.04732 0.68284 0.63305 0.0
S2498 S 0.9691 0.64094 0.61252 0.0
N2499 N 0.98334 0.60394 0.62463 0.0
N2500 N 0.98284 0.68034 0.61071 0.0
C2501 C 1.00005 0.66437 0.62035 0.0
C2502 C 1.00035 0.62283 0.62765 0.0
C2503 C 0.26763 0.6679 0.60936 0.0
C2504 C 0.25455 0.68408 0.6398 0.0
C2505 C 0.26849 0.6271 0.60213 0.0
C2506 C 0.25634 0.60117 0.62518 0.0
H2507 H 0.27711 0.68688 0.59063 0.0
H2508 H 0.2784 0.61588 0.57751 0.0
S2509 S 0.22175 0.62761 0.71319 0.0
N2510 N 0.23058 0.6702 0.69645 0.0
N2511 N 0.23225 0.59373 0.68234 0.0
C2512 C 0.24371 0.61668 0.65666 0.0
C2513 C 0.24282 0.65811 0.66415 0.0
C2514 C 1.00816 0.36462 0.34501 0.0
C2515 C 1.00952 0.35364 0.38992 0.0
C2516 C 1.00755 0.40451 0.33288 0.0
C2517 C 1.00877 0.43455 0.3652 0.0
H2518 H 1.00702 0.3423 0.31931 0.0
H2519 H 1.00612 0.41194 0.29792 0.0
S2520 S 0.01367 0.42077 0.48703 0.0
N2521 N 0.01259 0.37555 0.46674 0.0
N2522 N 0.01226 0.45056 0.44361 0.0
C2523 C 1.01089 0.42387 0.41001 0.0
C2524 C 1.01103 0.38331 0.42247 0.0
C2525 C 0.78006 0.37082 0.3886 0.0
C2526 C 0.76359 0.35305 0.37127 0.0
C2527 C 0.78066 0.41122 0.39835 0.0
C2528 C 0.76487 0.43578 0.39075 0.0
H2529 H 0.79262 0.35333 0.39497 0.0
H2530 H 0.79364 0.42312 0.41234 0.0
S2531 S 0.71852 0.40407 0.3434 0.0
N2532 N 0.73122 0.3633 0.34548 0.0
N2533 N 0.73235 0.43919 0.36338 0.0
C2534 C 0.74834 0.41843 0.37283 0.0
C2535 C 0.74769 0.37713 0.36326 0.0
C2536 C 0.50846 0.11888 0.60576 0.0
C2537 C 0.51876 0.10445 0.64237 0.0
C2538 C 0.50771 0.15937 0.59679 0.0
C2539 C 0.51725 0.18659 0.62415 0.0
H2540 H 0.50108 0.09875 0.58369 0.0
H2541 H 0.49994 0.16939 0.56779 0.0
S2542 S 0.54348 0.16484 0.72785 0.0
N2543 N 0.53681 0.12125 0.709 0.0
N2544 N 0.53568 0.1972 0.69118 0.0
C2545 C 0.52706 0.17282 0.66146 0.0
C2546 C 0.52773 0.13173 0.67088 0.0
C2547 C 0.74639 0.12856 0.58769 0.0
C2548 C 0.75574 0.10171 0.61594 0.0
C2549 C 0.74677 0.16917 0.59617 0.0
C2550 C 0.75665 0.18433 0.6329 0.0
H2551 H 0.73893 0.11819 0.55836 0.0
H2552 H 0.73943 0.18886 0.57366 0.0
S2553 S 0.78187 0.12666 0.71933 0.0
N2554 N 0.77422 0.0932 0.68353 0.0
N2555 N 0.77493 0.16966 0.69949 0.0
C2556 C 0.76586 0.15796 0.66176 0.0
C2557 C 0.76544 0.11657 0.6532 0.0
C2558 C 0.49274 0.91413 0.36191 0.0
C2559 C 0.50949 0.93681 0.36534 0.0
C2560 C 0.4927 0.87338 0.36971 0.0
C2561 C 0.50946 0.85311 0.38074 0.0
H2562 H 0.47941 0.92788 0.35299 0.0
H2563 H 0.47936 0.8576 0.36698 0.0
S2564 S 0.5572 0.89831 0.39526 0.0
N2565 N 0.54337 0.93561 0.38161 0.0
N2566 N 0.54333 0.85903 0.39571 0.0
C2567 C 0.52638 0.87522 0.38423 0.0
C2568 C 0.52638 0.91698 0.37681 0.0
C2569 C 0.25067 0.91729 0.36893 0.0
C2570 C 0.26602 0.93384 0.39265 0.0
C2571 C 0.25006 0.87681 0.3588 0.0
C2572 C 0.26482 0.85133 0.37175 0.0
H2573 H 0.23907 0.93574 0.35781 0.0
H2574 H 0.23813 0.86558 0.33982 0.0
S2575 S 0.30708 0.8785 0.43868 0.0
N2576 N 0.29557 0.92035 0.43194 0.0
N2577 N 0.29448 0.84488 0.41205 0.0
C2578 C 0.27998 0.86722 0.39624 0.0
C2579 C 0.28056 0.90826 0.40691 0.0
C2580 C 0.53233 0.661 0.10068 0.0
C2581 C 0.52 0.68756 0.12237 0.0
C2582 C 0.53122 0.6203 0.10834 0.0
C2583 C 0.51772 0.60452 0.13788 0.0
H2584 H 0.54257 0.67153 0.07644 0.0
H2585 H 0.54078 0.60097 0.09035 0.0
S2586 S 0.48441 0.66149 0.20894 0.0
N2587 N 0.49527 0.69524 0.17844 0.0
N2588 N 0.49331 0.61873 0.19302 0.0
C2589 C 0.50584 0.63072 0.16125 0.0
C2590 C 0.50696 0.67223 0.15347 0.0
C2591 C 0.74574 0.61737 0.15205 0.0
C2592 C 0.75645 0.60323 0.11599 0.0
C2593 C 0.74502 0.65775 0.16157 0.0
C2594 C 0.75483 0.68535 0.13499 0.0
H2595 H 0.73812 0.59702 0.17344 0.0
H2596 H 0.73702 0.6673 0.19051 0.0
S2597 S 0.7832 0.66327 0.03379 0.0
N2598 N 0.77603 0.61972 0.05178 0.0
N2599 N 0.77461 0.69576 0.06955 0.0
C2600 C 0.76529 0.67154 0.09829 0.0
C2601 C 0.7661 0.63041 0.08876 0.0
C2602 C 0.51094 0.40449 0.83285 0.0
C2603 C 0.51138 0.43488 0.86493 0.0
C2604 C 0.51067 0.36459 0.84553 0.0
C2605 C 0.51022 0.35389 0.89071 0.0
H2606 H 0.51066 0.41167 0.79766 0.0
H2607 H 0.51012 0.3421 0.81992 0.0
S2608 S 0.51175 0.42207 0.98741 0.0
N2609 N 0.51223 0.45144 0.94352 0.0
N2610 N 0.51086 0.3767 0.96753 0.0
C2611 C 0.51095 0.38398 0.923 0.0
C2612 C 0.51176 0.42446 0.91007 0.0
C2613 C 0.24898 0.37715 0.86293 0.0
C2614 C 0.26455 0.3528 0.87307 0.0
C2615 C 0.24941 0.41779 0.87204 0.0
C2616 C 0.26538 0.43569 0.89197 0.0
H2617 H 0.23649 0.36491 0.84698 0.0
H2618 H 0.23707 0.43522 0.8635 0.0
S2619 S 0.30933 0.38397 0.9278 0.0
N2620 N 0.29602 0.34904 0.90564 0.0
N2621 N 0.29688 0.4249 0.92328 0.0
C2622 C 0.28091 0.41133 0.90293 0.0
C2623 C 0.28048 0.37009 0.89336 0.0
loop_
_geom_bond_atom_site_label_1
_geom_bond_atom_site_label_2
_geom_bond_distance
_geom_bond_site_symmetry_2
_ccdc_geom_bond_type
C0 C1 1.387 . S
C0 C5 1.380 . S
C0 C16 1.494 . S
C1 C0 1.387 . S
C1 C2 1.386 . S
C1 H32 0.930 . S
C2 C1 1.386 . S
C2 C3 1.397 . S
C3 C2 1.397 . S
C3 C4 1.393 . S
C3 H33 0.930 . S
C4 C3 1.393 . S
C4 C5 1.395 . S
C5 C0 1.380 . S
C5 C4 1.395 . S
C5 H34 0.930 . S
O6 Tb7 2.295 1_554 S
O6 C19 1.242 . S
Tb7 O6 2.295 1_556 S
Tb7 O8 2.312 . S
Tb7 O11 2.438 . S
Tb7 O13 2.472 1_556 S
Tb7 O15 2.308 . S
Tb7 C16 2.821 1_556 S
O8 Tb7 2.312 . S
O8 C28 1.264 1_455 S
O9 Eu10 2.315 . S
O9 C19 1.226 1_655 S
Eu10 O9 2.315 . S
Eu10 C12 2.821 . S
Eu10 O14 2.296 . S
Eu10 O21 2.312 1_655 S
Eu10 O30 2.438 . S
Eu10 O31 2.472 . S
O11 Tb7 2.438 . S
O11 C16 1.263 1_556 S
C12 Eu10 2.821 . S
C12 C22 1.494 . S
C12 O30 1.263 . S
C12 O31 1.264 . S
O13 Tb7 2.472 1_554 S
O13 C16 1.264 . S
O14 Eu10 2.296 . S
O14 C20 1.242 1_654 S
O15 Tb7 2.308 . S
O15 C20 1.243 . S
C16 C0 1.494 . S
C16 Tb7 2.821 1_554 S
C16 O11 1.263 1_554 S
C16 O13 1.264 . S
C17 O18 1.260 . S
C17 O21 1.264 . S
O18 C17 1.260 . S
C19 O6 1.242 . S
C19 O9 1.226 1_455 S
C20 O14 1.242 1_456 S
C20 O15 1.243 . S
O21 Eu10 2.312 1_455 S
O21 C17 1.264 . S
C22 C12 1.494 . S
C22 C24 1.380 . S
C22 C25 1.387 . S
C23 C24 1.395 1_556 S
C23 C27 1.393 . S
C24 C22 1.380 . S
C24 C23 1.395 1_554 S
C24 H35 0.930 . S
C25 C22 1.387 . S
C25 C26 1.386 . S
C25 H36 0.930 . S
C26 C25 1.386 . S
C26 C27 1.397 1_554 S
C27 C23 1.393 . S
C27 C26 1.397 1_556 S
C27 H37 0.930 . S
C28 O8 1.264 1_655 S
C28 O29 1.260 . S
O29 C28 1.260 . S
O30 Eu10 2.438 . S
O30 C12 1.263 . S
O31 Eu10 2.472 . S
O31 C12 1.264 . S
H32 C1 0.930 . S
H33 C3 0.930 . S
H34 C5 0.930 . S
H35 C24 0.930 . S
H36 C25 0.930 . S
H37 C27 0.930 . S
C38 C39 1.387 . S
C38 C43 1.380 . S
C38 C54 1.494 . S
C39 C38 1.387 . S
C39 C40 1.386 . S
C39 H70 0.930 . S
C40 C39 1.386 . S
C40 C41 1.397 . S
C41 C40 1.397 . S
C41 C42 1.393 . S
C41 H71 0.930 . S
C42 C41 1.393 . S
C42 C43 1.395 . S
C43 C38 1.380 . S
C43 C42 1.395 . S
C43 H72 0.930 . S
O44 Tb45 2.295 1_554 S
O44 C57 1.242 . S
Tb45 O44 2.295 1_556 S
Tb45 O46 2.312 . S
Tb45 O49 2.438 . S
Tb45 O51 2.472 1_556 S
Tb45 O53 2.308 . S
Tb45 C54 2.821 1_556 S
O46 Tb45 2.312 . S
O46 C66 1.264 . S
O47 Eu48 2.308 . S
O47 C57 1.243 . S
Eu48 O47 2.308 . S
Eu48 C50 2.821 . S
Eu48 O52 2.295 . S
Eu48 O59 2.312 1_565 S
Eu48 O68 2.438 1_565 S
Eu48 O69 2.472 . S
O49 Tb45 2.438 . S
O49 C54 1.263 1_556 S
C50 Eu48 2.821 . S
C50 C60 1.494 . S
C50 O68 1.263 1_565 S
C50 O69 1.264 . S
O51 Tb45 2.472 1_554 S
O51 C54 1.264 . S
O52 Eu48 2.295 . S
O52 C58 1.242 1_554 S
O53 Tb45 2.308 . S
O53 C58 1.243 . S
C54 C38 1.494 . S
C54 Tb45 2.821 1_554 S
C54 O49 1.263 1_554 S
C54 O51 1.264 . S
C55 O56 1.260 . S
C55 O59 1.264 . S
O56 C55 1.260 . S
C57 O44 1.242 . S
C57 O47 1.243 . S
C58 O52 1.242 1_556 S
C58 O53 1.243 . S
O59 Eu48 2.312 1_545 S
O59 C55 1.264 . S
C60 C50 1.494 . S
C60 C62 1.380 . S
C60 C63 1.387 1_565 S
C61 C62 1.395 1_556 S
C61 C65 1.393 . S
C62 C60 1.380 . S
C62 C61 1.395 1_554 S
C62 H73 0.930 . S
C63 C60 1.387 1_545 S
C63 C64 1.386 . S
C63 H74 0.930 . S
C64 C63 1.386 . S
C64 C65 1.397 1_544 S
C65 C61 1.393 . S
C65 C64 1.397 1_566 S
C65 H75 0.930 . S
C66 O46 1.264 . S
C66 O67 1.260 . S
O67 C66 1.260 . S
O68 Eu48 2.438 1_545 S
O68 C50 1.263 1_545 S
O69 Eu48 2.472 . S
O69 C50 1.264 . S
H70 C39 0.930 . S
H71 C41 0.930 . S
H72 C43 0.930 . S
H73 C62 0.930 . S
H74 C63 0.930 . S
H75 C65 0.930 . S
C76 C77 1.387 . S
C76 C81 1.380 . S
C76 C92 1.494 . S
C77 C76 1.387 . S
C77 C78 1.386 . S
C77 H108 0.930 . S
C78 C77 1.386 . S
C78 C79 1.397 . S
C79 C78 1.397 . S
C79 C80 1.393 . S
C79 H109 0.930 . S
C80 C79 1.393 . S
C80 C81 1.395 . S
C81 C76 1.380 . S
C81 C80 1.395 . S
C81 H110 0.930 . S
O82 Tb83 2.295 . S
O82 C95 1.242 . S
Tb83 O82 2.295 . S
Tb83 O84 2.312 . S
Tb83 O87 2.438 . S
Tb83 O89 2.472 . S
Tb83 O91 2.308 . S
Tb83 C92 2.821 . S
O84 Tb83 2.312 . S
O84 C104 1.264 1_455 S
O85 Eu86 2.315 . S
O85 C95 1.226 1_655 S
Eu86 O85 2.315 . S
Eu86 C88 2.821 . S
Eu86 O90 2.296 . S
Eu86 O97 2.312 1_665 S
Eu86 O106 2.438 1_565 S
Eu86 O107 2.472 . S
O87 Tb83 2.438 . S
O87 C92 1.263 . S
C88 Eu86 2.821 . S
C88 C98 1.494 . S
C88 O106 1.263 1_565 S
C88 O107 1.264 . S
O89 Tb83 2.472 . S
O89 C92 1.264 . S
O90 Eu86 2.296 . S
O90 C96 1.242 1_655 S
O91 Tb83 2.308 . S
O91 C96 1.243 . S
C92 C76 1.494 . S
C92 Tb83 2.821 . S
C92 O87 1.263 . S
C92 O89 1.264 . S
C93 O94 1.260 . S
C93 O97 1.264 . S
O94 C93 1.260 . S
C95 O82 1.242 . S
C95 O85 1.226 1_455 S
C96 O90 1.242 1_455 S
C96 O91 1.243 . S
O97 Eu86 2.312 1_445 S
O97 C93 1.264 . S
C98 C88 1.494 . S
C98 C100 1.380 . S
C98 C101 1.387 1_565 S
C99 C100 1.395 . S
C99 C103 1.393 . S
C100 C98 1.380 . S
C100 C99 1.395 . S
C100 H111 0.930 . S
C101 C98 1.387 1_545 S
C101 C102 1.386 . S
C101 H112 0.930 . S
C102 C101 1.386 . S
C102 C103 1.397 1_545 S
C103 C99 1.393 . S
C103 C102 1.397 1_565 S
C103 H113 0.930 . S
C104 O84 1.264 1_655 S
C104 O105 1.260 . S
O105 C104 1.260 . S
O106 Eu86 2.438 1_545 S
O106 C88 1.263 1_545 S
O107 Eu86 2.472 . S
O107 C88 1.264 . S
H108 C77 0.930 . S
H109 C79 0.930 . S
H110 C81 0.930 . S
H111 C100 0.930 . S
H112 C101 0.930 . S
H113 C103 0.930 . S
C114 C115 1.387 . S
C114 C119 1.380 . S
C114 C130 1.494 . S
C115 C114 1.387 . S
C115 C116 1.386 . S
C115 H146 0.930 . S
C116 C115 1.386 . S
C116 C117 1.397 . S
C117 C116 1.397 . S
C117 C118 1.393 . S
C117 H147 0.930 . S
C118 C117 1.393 . S
C118 C119 1.395 . S
C119 C114 1.380 . S
C119 C118 1.395 . S
C119 H148 0.930 . S
O120 Tb121 2.295 . S
O120 C133 1.242 . S
Tb121 O120 2.295 . S
Tb121 O122 2.312 . S
Tb121 O125 2.438 . S
Tb121 O127 2.472 . S
Tb121 O129 2.308 . S
Tb121 C130 2.821 . S
O122 Tb121 2.312 . S
O122 C142 1.264 . S
O123 Eu124 2.308 . S
O123 C133 1.243 . S
Eu124 O123 2.308 . S
Eu124 C126 2.821 . S
Eu124 O128 2.295 . S
Eu124 O135 2.312 . S
Eu124 O144 2.438 . S
Eu124 O145 2.472 . S
O125 Tb121 2.438 . S
O125 C130 1.263 . S
C126 Eu124 2.821 . S
C126 C136 1.494 . S
C126 O144 1.263 . S
C126 O145 1.264 . S
O127 Tb121 2.472 . S
O127 C130 1.264 . S
O128 Eu124 2.295 . S
O128 C134 1.242 . S
O129 Tb121 2.308 . S
O129 C134 1.243 . S
C130 C114 1.494 . S
C130 Tb121 2.821 . S
C130 O125 1.263 . S
C130 O127 1.264 . S
C131 O132 1.260 . S
C131 O135 1.264 . S
O132 C131 1.260 . S
C133 O120 1.242 . S
C133 O123 1.243 . S
C134 O128 1.242 . S
C134 O129 1.243 . S
O135 Eu124 2.312 . S
O135 C131 1.264 . S
C136 C126 1.494 . S
C136 C138 1.380 . S
C136 C139 1.387 . S
C137 C138 1.395 . S
C137 C141 1.393 . S
C138 C136 1.380 . S
C138 C137 1.395 . S
C138 H149 0.930 . S
C139 C136 1.387 . S
C139 C140 1.386 . S
C139 H150 0.930 . S
C140 C139 1.386 . S
C140 C141 1.397 . S
C141 C137 1.393 . S
C141 C140 1.397 . S
C141 H151 0.930 . S
C142 O122 1.264 . S
C142 O143 1.260 . S
O143 C142 1.260 . S
O144 Eu124 2.438 . S
O144 C126 1.263 . S
O145 Eu124 2.472 . S
O145 C126 1.264 . S
H146 C115 0.930 . S
H147 C117 0.930 . S
H148 C119 0.930 . S
H149 C138 0.930 . S
H150 C139 0.930 . S
H151 C141 0.930 . S
C152 C153 1.387 . S
C152 C157 1.380 . S
C152 C168 1.494 . S
C153 C152 1.387 . S
C153 C154 1.386 . S
C153 H184 0.930 . S
C154 C153 1.386 . S
C154 C155 1.397 1_556 S
C155 C154 1.397 1_554 S
C155 C156 1.393 . S
C155 H185 0.930 . S
C156 C155 1.393 . S
C156 C157 1.395 1_554 S
C157 C152 1.380 . S
C157 C156 1.395 1_556 S
C157 H186 0.930 . S
O158 Tb159 2.296 . S
O158 C171 1.242 1_456 S
Tb159 O158 2.296 . S
Tb159 O160 2.312 1_455 S
Tb159 O163 2.438 . S
Tb159 O165 2.472 . S
Tb159 O167 2.315 . S
Tb159 C168 2.821 . S
O160 Tb159 2.312 1_655 S
O160 C180 1.264 . S
O161 Eu162 2.308 . S
O161 C171 1.243 . S
Eu162 O161 2.308 . S
Eu162 C164 2.821 1_554 S
Eu162 O166 2.295 1_554 S
Eu162 O173 2.312 . S
Eu162 O182 2.438 . S
Eu162 O183 2.472 1_554 S
O163 Tb159 2.438 . S
O163 C168 1.263 . S
C164 Eu162 2.821 1_556 S
C164 C174 1.494 . S
C164 O182 1.263 1_556 S
C164 O183 1.264 . S
O165 Tb159 2.472 . S
O165 C168 1.264 . S
O166 Eu162 2.295 1_556 S
O166 C172 1.242 . S
O167 Tb159 2.315 . S
O167 C172 1.226 1_455 S
C168 C152 1.494 . S
C168 Tb159 2.821 . S
C168 O163 1.263 . S
C168 O165 1.264 . S
C169 O170 1.260 . S
C169 O173 1.264 1_455 S
O170 C169 1.260 . S
C171 O158 1.242 1_654 S
C171 O161 1.243 . S
C172 O166 1.242 . S
C172 O167 1.226 1_655 S
O173 Eu162 2.312 . S
O173 C169 1.264 1_655 S
C174 C164 1.494 . S
C174 C176 1.380 . S
C174 C177 1.387 . S
C175 C176 1.395 . S
C175 C179 1.393 . S
C176 C174 1.380 . S
C176 C175 1.395 . S
C176 H187 0.930 . S
C177 C174 1.387 . S
C177 C178 1.386 . S
C177 H188 0.930 . S
C178 C177 1.386 . S
C178 C179 1.397 . S
C179 C175 1.393 . S
C179 C178 1.397 . S
C179 H189 0.930 . S
C180 O160 1.264 . S
C180 O181 1.260 . S
O181 C180 1.260 . S
O182 Eu162 2.438 . S
O182 C164 1.263 1_554 S
O183 Eu162 2.472 1_556 S
O183 C164 1.264 . S
H184 C153 0.930 . S
H185 C155 0.930 . S
H186 C157 0.930 . S
H187 C176 0.930 . S
H188 C177 0.930 . S
H189 C179 0.930 . S
C190 C191 1.387 1_545 S
C190 C195 1.380 . S
C190 C206 1.494 . S
C191 C190 1.387 1_565 S
C191 C192 1.386 . S
C191 H222 0.930 . S
C192 C191 1.386 . S
C192 C193 1.397 1_566 S
C193 C192 1.397 1_544 S
C193 C194 1.393 . S
C193 H223 0.930 . S
C194 C193 1.393 . S
C194 C195 1.395 1_554 S
C195 C190 1.380 . S
C195 C194 1.395 1_556 S
C195 H224 0.930 . S
O196 Tb197 2.295 . S
O196 C209 1.242 1_556 S
Tb197 O196 2.295 . S
Tb197 O198 2.312 1_545 S
Tb197 O201 2.438 1_545 S
Tb197 O203 2.472 . S
Tb197 O205 2.308 . S
Tb197 C206 2.821 . S
O198 Tb197 2.312 1_565 S
O198 C218 1.264 . S
O199 Eu200 2.308 . S
O199 C209 1.243 . S
Eu200 O199 2.308 . S
Eu200 C202 2.821 1_554 S
Eu200 O204 2.295 1_554 S
Eu200 O211 2.312 . S
Eu200 O220 2.438 . S
Eu200 O221 2.472 1_554 S
O201 Tb197 2.438 1_565 S
O201 C206 1.263 1_565 S
C202 Eu200 2.821 1_556 S
C202 C212 1.494 . S
C202 O220 1.263 1_556 S
C202 O221 1.264 . S
O203 Tb197 2.472 . S
O203 C206 1.264 . S
O204 Eu200 2.295 1_556 S
O204 C210 1.242 . S
O205 Tb197 2.308 . S
O205 C210 1.243 . S
C206 C190 1.494 . S
C206 Tb197 2.821 . S
C206 O201 1.263 1_545 S
C206 O203 1.264 . S
C207 O208 1.260 . S
C207 O211 1.264 . S
O208 C207 1.260 . S
C209 O196 1.242 1_554 S
C209 O199 1.243 . S
C210 O204 1.242 . S
C210 O205 1.243 . S
O211 Eu200 2.312 . S
O211 C207 1.264 . S
C212 C202 1.494 . S
C212 C214 1.380 . S
C212 C215 1.387 . S
C213 C214 1.395 . S
C213 C217 1.393 . S
C214 C212 1.380 . S
C214 C213 1.395 . S
C214 H225 0.930 . S
C215 C212 1.387 . S
C215 C216 1.386 . S
C215 H226 0.930 . S
C216 C215 1.386 . S
C216 C217 1.397 . S
C217 C213 1.393 . S
C217 C216 1.397 . S
C217 H227 0.930 . S
C218 O198 1.264 . S
C218 O219 1.260 . S
O219 C218 1.260 . S
O220 Eu200 2.438 . S
O220 C202 1.263 1_554 S
O221 Eu200 2.472 1_556 S
O221 C202 1.264 . S
H222 C191 0.930 . S
H223 C193 0.930 . S
H224 C195 0.930 . S
H225 C214 0.930 . S
H226 C215 0.930 . S
H227 C217 0.930 . S
C228 C229 1.387 1_545 S
C228 C233 1.380 . S
C228 C244 1.494 . S
C229 C228 1.387 1_565 S
C229 C230 1.386 . S
C229 H260 0.930 . S
C230 C229 1.386 . S
C230 C231 1.397 1_565 S
C231 C230 1.397 1_545 S
C231 C232 1.393 . S
C231 H261 0.930 . S
C232 C231 1.393 . S
C232 C233 1.395 . S
C233 C228 1.380 . S
C233 C232 1.395 . S
C233 H262 0.930 . S
O234 Tb235 2.296 . S
O234 C247 1.242 1_455 S
Tb235 O234 2.296 . S
Tb235 O236 2.312 1_445 S
Tb235 O239 2.438 1_545 S
Tb235 O241 2.472 . S
Tb235 O243 2.315 . S
Tb235 C244 2.821 . S
O236 Tb235 2.312 1_665 S
O236 C256 1.264 . S
O237 Eu238 2.308 . S
O237 C247 1.243 . S
Eu238 O237 2.308 . S
Eu238 C240 2.821 . S
Eu238 O242 2.295 . S
Eu238 O249 2.312 . S
Eu238 O258 2.438 . S
Eu238 O259 2.472 . S
O239 Tb235 2.438 1_565 S
O239 C244 1.263 1_565 S
C240 Eu238 2.821 . S
C240 C250 1.494 . S
C240 O258 1.263 . S
C240 O259 1.264 . S
O241 Tb235 2.472 . S
O241 C244 1.264 . S
O242 Eu238 2.295 . S
O242 C248 1.242 . S
O243 Tb235 2.315 . S
O243 C248 1.226 1_455 S
C244 C228 1.494 . S
C244 Tb235 2.821 . S
C244 O239 1.263 1_545 S
C244 O241 1.264 . S
C245 O246 1.260 . S
C245 O249 1.264 1_455 S
O246 C245 1.260 . S
C247 O234 1.242 1_655 S
C247 O237 1.243 . S
C248 O242 1.242 . S
C248 O243 1.226 1_655 S
O249 Eu238 2.312 . S
O249 C245 1.264 1_655 S
C250 C240 1.494 . S
C250 C252 1.380 . S
C250 C253 1.387 . S
C251 C252 1.395 . S
C251 C255 1.393 . S
C252 C250 1.380 . S
C252 C251 1.395 . S
C252 H263 0.930 . S
C253 C250 1.387 . S
C253 C254 1.386 . S
C253 H264 0.930 . S
C254 C253 1.386 . S
C254 C255 1.397 . S
C255 C251 1.393 . S
C255 C254 1.397 . S
C255 H265 0.930 . S
C256 O236 1.264 . S
C256 O257 1.260 . S
O257 C256 1.260 . S
O258 Eu238 2.438 . S
O258 C240 1.263 . S
O259 Eu238 2.472 . S
O259 C240 1.264 . S
H260 C229 0.930 . S
H261 C231 0.930 . S
H262 C233 0.930 . S
H263 C252 0.930 . S
H264 C253 0.930 . S
H265 C255 0.930 . S
C266 C267 1.387 . S
C266 C271 1.380 . S
C266 C282 1.494 . S
C267 C266 1.387 . S
C267 C268 1.386 . S
C267 H298 0.930 . S
C268 C267 1.386 . S
C268 C269 1.397 . S
C269 C268 1.397 . S
C269 C270 1.393 . S
C269 H299 0.930 . S
C270 C269 1.393 . S
C270 C271 1.395 . S
C271 C266 1.380 . S
C271 C270 1.395 . S
C271 H300 0.930 . S
O272 Tb273 2.295 . S
O272 C285 1.242 . S
Tb273 O272 2.295 . S
Tb273 O274 2.312 . S
Tb273 O277 2.438 . S
Tb273 O279 2.472 . S
Tb273 O281 2.308 . S
Tb273 C282 2.821 . S
O274 Tb273 2.312 . S
O274 C294 1.264 . S
O275 Eu276 2.308 . S
O275 C285 1.243 . S
Eu276 O275 2.308 . S
Eu276 C278 2.821 . S
Eu276 O280 2.295 . S
Eu276 O287 2.312 . S
Eu276 O296 2.438 . S
Eu276 O297 2.472 . S
O277 Tb273 2.438 . S
O277 C282 1.263 . S
C278 Eu276 2.821 . S
C278 C288 1.494 . S
C278 O296 1.263 . S
C278 O297 1.264 . S
O279 Tb273 2.472 . S
O279 C282 1.264 . S
O280 Eu276 2.295 . S
O280 C286 1.242 . S
O281 Tb273 2.308 . S
O281 C286 1.243 . S
C282 C266 1.494 . S
C282 Tb273 2.821 . S
C282 O277 1.263 . S
C282 O279 1.264 . S
C283 O284 1.260 . S
C283 O287 1.264 . S
O284 C283 1.260 . S
C285 O272 1.242 . S
C285 O275 1.243 . S
C286 O280 1.242 . S
C286 O281 1.243 . S
O287 Eu276 2.312 . S
O287 C283 1.264 . S
C288 C278 1.494 . S
C288 C290 1.380 . S
C288 C291 1.387 . S
C289 C290 1.395 . S
C289 C293 1.393 . S
C290 C288 1.380 . S
C290 C289 1.395 . S
C290 H301 0.930 . S
C291 C288 1.387 . S
C291 C292 1.386 . S
C291 H302 0.930 . S
C292 C291 1.386 . S
C292 C293 1.397 . S
C293 C289 1.393 . S
C293 C292 1.397 . S
C293 H303 0.930 . S
C294 O274 1.264 . S
C294 O295 1.260 . S
O295 C294 1.260 . S
O296 Eu276 2.438 . S
O296 C278 1.263 . S
O297 Eu276 2.472 . S
O297 C278 1.264 . S
H298 C267 0.930 . S
H299 C269 0.930 . S
H300 C271 0.930 . S
H301 C290 0.930 . S
H302 C291 0.930 . S
H303 C293 0.930 . S
C304 C305 1.387 . S
C304 C309 1.380 . S
C304 C320 1.494 . S
C305 C304 1.387 . S
C305 C306 1.386 . S
C305 H336 0.930 . S
C306 C305 1.386 . S
C306 C307 1.397 . S
C307 C306 1.397 . S
C307 C308 1.393 . S
C307 H337 0.930 . S
C308 C307 1.393 . S
C308 C309 1.395 . S
C309 C304 1.380 . S
C309 C308 1.395 . S
C309 H338 0.930 . S
O310 Tb311 2.295 . S
O310 C323 1.242 . S
Tb311 O310 2.295 . S
Tb311 O312 2.312 . S
Tb311 O315 2.438 . S
Tb311 O317 2.472 . S
Tb311 O319 2.308 . S
Tb311 C320 2.821 . S
O312 Tb311 2.312 . S
O312 C332 1.264 1_455 S
O313 Eu314 2.315 . S
O313 C323 1.226 1_655 S
Eu314 O313 2.315 . S
Eu314 C316 2.821 . S
Eu314 O318 2.296 . S
Eu314 O325 2.312 1_655 S
Eu314 O334 2.438 . S
Eu314 O335 2.472 . S
O315 Tb311 2.438 . S
O315 C320 1.263 . S
C316 Eu314 2.821 . S
C316 C326 1.494 . S
C316 O334 1.263 . S
C316 O335 1.264 . S
O317 Tb311 2.472 . S
O317 C320 1.264 . S
O318 Eu314 2.296 . S
O318 C324 1.242 1_655 S
O319 Tb311 2.308 . S
O319 C324 1.243 . S
C320 C304 1.494 . S
C320 Tb311 2.821 . S
C320 O315 1.263 . S
C320 O317 1.264 . S
C321 O322 1.260 . S
C321 O325 1.264 . S
O322 C321 1.260 . S
C323 O310 1.242 . S
C323 O313 1.226 1_455 S
C324 O318 1.242 1_455 S
C324 O319 1.243 . S
O325 Eu314 2.312 1_455 S
O325 C321 1.264 . S
C326 C316 1.494 . S
C326 C328 1.380 . S
C326 C329 1.387 . S
C327 C328 1.395 . S
C327 C331 1.393 . S
C328 C326 1.380 . S
C328 C327 1.395 . S
C328 H339 0.930 . S
C329 C326 1.387 . S
C329 C330 1.386 . S
C329 H340 0.930 . S
C330 C329 1.386 . S
C330 C331 1.397 . S
C331 C327 1.393 . S
C331 C330 1.397 . S
C331 H341 0.930 . S
C332 O312 1.264 1_655 S
C332 O333 1.260 . S
O333 C332 1.260 . S
O334 Eu314 2.438 . S
O334 C316 1.263 . S
O335 Eu314 2.472 . S
O335 C316 1.264 . S
H336 C305 0.930 . S
H337 C307 0.930 . S
H338 C309 0.930 . S
H339 C328 0.930 . S
H340 C329 0.930 . S
H341 C331 0.930 . S
C342 C343 1.387 . S
C342 C347 1.380 . S
C342 C358 1.494 . S
C343 C342 1.387 . S
C343 C344 1.386 . S
C343 H374 0.930 . S
C344 C343 1.386 . S
C344 C345 1.397 . S
C345 C344 1.397 . S
C345 C346 1.393 . S
C345 H375 0.930 . S
C346 C345 1.393 . S
C346 C347 1.395 . S
C347 C342 1.380 . S
C347 C346 1.395 . S
C347 H376 0.930 . S
O348 Tb349 2.295 . S
O348 C361 1.242 . S
Tb349 O348 2.295 . S
Tb349 O350 2.312 . S
Tb349 O353 2.438 . S
Tb349 O355 2.472 . S
Tb349 O357 2.308 . S
Tb349 C358 2.821 . S
O350 Tb349 2.312 . S
O350 C370 1.264 . S
O351 Eu352 2.308 . S
O351 C361 1.243 . S
Eu352 O351 2.308 . S
Eu352 C354 2.821 . S
Eu352 O356 2.295 . S
Eu352 O363 2.312 . S
Eu352 O372 2.438 . S
Eu352 O373 2.472 . S
O353 Tb349 2.438 . S
O353 C358 1.263 . S
C354 Eu352 2.821 . S
C354 C364 1.494 . S
C354 O372 1.263 . S
C354 O373 1.264 . S
O355 Tb349 2.472 . S
O355 C358 1.264 . S
O356 Eu352 2.295 . S
O356 C362 1.242 . S
O357 Tb349 2.308 . S
O357 C362 1.243 . S
C358 C342 1.494 . S
C358 Tb349 2.821 . S
C358 O353 1.263 . S
C358 O355 1.264 . S
C359 O360 1.260 . S
C359 O363 1.264 . S
O360 C359 1.260 . S
C361 O348 1.242 . S
C361 O351 1.243 . S
C362 O356 1.242 . S
C362 O357 1.243 . S
O363 Eu352 2.312 . S
O363 C359 1.264 . S
C364 C354 1.494 . S
C364 C366 1.380 . S
C364 C367 1.387 . S
C365 C366 1.395 . S
C365 C369 1.393 . S
C366 C364 1.380 . S
C366 C365 1.395 . S
C366 H377 0.930 . S
C367 C364 1.387 . S
C367 C368 1.386 . S
C367 H378 0.930 . S
C368 C367 1.386 . S
C368 C369 1.397 . S
C369 C365 1.393 . S
C369 C368 1.397 . S
C369 H379 0.930 . S
C370 O350 1.264 . S
C370 O371 1.260 . S
O371 C370 1.260 . S
O372 Eu352 2.438 . S
O372 C354 1.263 . S
O373 Eu352 2.472 . S
O373 C354 1.264 . S
H374 C343 0.930 . S
H375 C345 0.930 . S
H376 C347 0.930 . S
H377 C366 0.930 . S
H378 C367 0.930 . S
H379 C369 0.930 . S
C380 C381 1.387 . S
C380 C385 1.380 . S
C380 C396 1.494 . S
C381 C380 1.387 . S
C381 C382 1.386 . S
C381 H412 0.930 . S
C382 C381 1.386 . S
C382 C383 1.397 . S
C383 C382 1.397 . S
C383 C384 1.393 . S
C383 H413 0.930 . S
C384 C383 1.393 . S
C384 C385 1.395 . S
C385 C380 1.380 . S
C385 C384 1.395 . S
C385 H414 0.930 . S
O386 Tb387 2.295 . S
O386 C399 1.242 . S
Tb387 O386 2.295 . S
Tb387 O388 2.312 . S
Tb387 O391 2.438 . S
Tb387 O393 2.472 . S
Tb387 O395 2.308 . S
Tb387 C396 2.821 . S
O388 Tb387 2.312 . S
O388 C408 1.264 1_455 S
O389 Eu390 2.315 . S
O389 C399 1.226 1_655 S
Eu390 O389 2.315 . S
Eu390 C392 2.821 . S
Eu390 O394 2.296 . S
Eu390 O401 2.312 1_655 S
Eu390 O410 2.438 . S
Eu390 O411 2.472 . S
O391 Tb387 2.438 . S
O391 C396 1.263 . S
C392 Eu390 2.821 . S
C392 C402 1.494 . S
C392 O410 1.263 . S
C392 O411 1.264 . S
O393 Tb387 2.472 . S
O393 C396 1.264 . S
O394 Eu390 2.296 . S
O394 C400 1.242 1_655 S
O395 Tb387 2.308 . S
O395 C400 1.243 . S
C396 C380 1.494 . S
C396 Tb387 2.821 . S
C396 O391 1.263 . S
C396 O393 1.264 . S
C397 O398 1.260 . S
C397 O401 1.264 . S
O398 C397 1.260 . S
C399 O386 1.242 . S
C399 O389 1.226 1_455 S
C400 O394 1.242 1_455 S
C400 O395 1.243 . S
O401 Eu390 2.312 1_455 S
O401 C397 1.264 . S
C402 C392 1.494 . S
C402 C404 1.380 . S
C402 C405 1.387 . S
C403 C404 1.395 . S
C403 C407 1.393 . S
C404 C402 1.380 . S
C404 C403 1.395 . S
C404 H415 0.930 . S
C405 C402 1.387 . S
C405 C406 1.386 . S
C405 H416 0.930 . S
C406 C405 1.386 . S
C406 C407 1.397 . S
C407 C403 1.393 . S
C407 C406 1.397 . S
C407 H417 0.930 . S
C408 O388 1.264 1_655 S
C408 O409 1.260 . S
O409 C408 1.260 . S
O410 Eu390 2.438 . S
O410 C392 1.263 . S
O411 Eu390 2.472 . S
O411 C392 1.264 . S
H412 C381 0.930 . S
H413 C383 0.930 . S
H414 C385 0.930 . S
H415 C404 0.930 . S
H416 C405 0.930 . S
H417 C407 0.930 . S
C418 C419 1.387 . S
C418 C423 1.380 . S
C418 C434 1.494 . S
C419 C418 1.387 . S
C419 C420 1.386 . S
C419 H450 0.930 . S
C420 C419 1.386 . S
C420 C421 1.397 . S
C421 C420 1.397 . S
C421 C422 1.393 . S
C421 H451 0.930 . S
C422 C421 1.393 . S
C422 C423 1.395 . S
C423 C418 1.380 . S
C423 C422 1.395 . S
C423 H452 0.930 . S
O424 Tb425 2.295 . S
O424 C437 1.242 . S
Tb425 O424 2.295 . S
Tb425 O426 2.312 . S
Tb425 O429 2.438 . S
Tb425 O431 2.472 . S
Tb425 O433 2.308 . S
Tb425 C434 2.821 . S
O426 Tb425 2.312 . S
O426 C446 1.264 . S
O427 Eu428 2.308 . S
O427 C437 1.243 . S
Eu428 O427 2.308 . S
Eu428 C430 2.821 . S
Eu428 O432 2.295 . S
Eu428 O439 2.312 . S
Eu428 O448 2.438 . S
Eu428 O449 2.472 . S
O429 Tb425 2.438 . S
O429 C434 1.263 . S
C430 Eu428 2.821 . S
C430 C440 1.494 . S
C430 O448 1.263 . S
C430 O449 1.264 . S
O431 Tb425 2.472 . S
O431 C434 1.264 . S
O432 Eu428 2.295 . S
O432 C438 1.242 . S
O433 Tb425 2.308 . S
O433 C438 1.243 . S
C434 C418 1.494 . S
C434 Tb425 2.821 . S
C434 O429 1.263 . S
C434 O431 1.264 . S
C435 O436 1.260 . S
C435 O439 1.264 . S
O436 C435 1.260 . S
C437 O424 1.242 . S
C437 O427 1.243 . S
C438 O432 1.242 . S
C438 O433 1.243 . S
O439 Eu428 2.312 . S
O439 C435 1.264 . S
C440 C430 1.494 . S
C440 C442 1.380 . S
C440 C443 1.387 . S
C441 C442 1.395 . S
C441 C445 1.393 . S
C442 C440 1.380 . S
C442 C441 1.395 . S
C442 H453 0.930 . S
C443 C440 1.387 . S
C443 C444 1.386 . S
C443 H454 0.930 . S
C444 C443 1.386 . S
C444 C445 1.397 . S
C445 C441 1.393 . S
C445 C444 1.397 . S
C445 H455 0.930 . S
C446 O426 1.264 . S
C446 O447 1.260 . S
O447 C446 1.260 . S
O448 Eu428 2.438 . S
O448 C430 1.263 . S
O449 Eu428 2.472 . S
O449 C430 1.264 . S
H450 C419 0.930 . S
H451 C421 0.930 . S
H452 C423 0.930 . S
H453 C442 0.930 . S
H454 C443 0.930 . S
H455 C445 0.930 . S
C456 C457 1.387 . S
C456 C461 1.380 . S
C456 C472 1.494 . S
C457 C456 1.387 . S
C457 C458 1.386 . S
C457 H488 0.930 . S
C458 C457 1.386 . S
C458 C459 1.397 . S
C459 C458 1.397 . S
C459 C460 1.393 . S
C459 H489 0.930 . S
C460 C459 1.393 . S
C460 C461 1.395 . S
C461 C456 1.380 . S
C461 C460 1.395 . S
C461 H490 0.930 . S
O462 Tb463 2.296 . S
O462 C475 1.242 1_455 S
Tb463 O462 2.296 . S
Tb463 O464 2.312 1_455 S
Tb463 O467 2.438 . S
Tb463 O469 2.472 . S
Tb463 O471 2.315 . S
Tb463 C472 2.821 . S
O464 Tb463 2.312 1_655 S
O464 C484 1.264 . S
O465 Eu466 2.308 . S
O465 C475 1.243 . S
Eu466 O465 2.308 . S
Eu466 C468 2.821 . S
Eu466 O470 2.295 . S
Eu466 O477 2.312 . S
Eu466 O486 2.438 . S
Eu466 O487 2.472 . S
O467 Tb463 2.438 . S
O467 C472 1.263 . S
C468 Eu466 2.821 . S
C468 C478 1.494 . S
C468 O486 1.263 . S
C468 O487 1.264 . S
O469 Tb463 2.472 . S
O469 C472 1.264 . S
O470 Eu466 2.295 . S
O470 C476 1.242 . S
O471 Tb463 2.315 . S
O471 C476 1.226 1_455 S
C472 C456 1.494 . S
C472 Tb463 2.821 . S
C472 O467 1.263 . S
C472 O469 1.264 . S
C473 O474 1.260 . S
C473 O477 1.264 1_455 S
O474 C473 1.260 . S
C475 O462 1.242 1_655 S
C475 O465 1.243 . S
C476 O470 1.242 . S
C476 O471 1.226 1_655 S
O477 Eu466 2.312 . S
O477 C473 1.264 1_655 S
C478 C468 1.494 . S
C478 C480 1.380 . S
C478 C481 1.387 . S
C479 C480 1.395 . S
C479 C483 1.393 . S
C480 C478 1.380 . S
C480 C479 1.395 . S
C480 H491 0.930 . S
C481 C478 1.387 . S
C481 C482 1.386 . S
C481 H492 0.930 . S
C482 C481 1.386 . S
C482 C483 1.397 . S
C483 C479 1.393 . S
C483 C482 1.397 . S
C483 H493 0.930 . S
C484 O464 1.264 . S
C484 O485 1.260 . S
O485 C484 1.260 . S
O486 Eu466 2.438 . S
O486 C468 1.263 . S
O487 Eu466 2.472 . S
O487 C468 1.264 . S
H488 C457 0.930 . S
H489 C459 0.930 . S
H490 C461 0.930 . S
H491 C480 0.930 . S
H492 C481 0.930 . S
H493 C483 0.930 . S
C494 C495 1.387 . S
C494 C499 1.380 . S
C494 C510 1.494 . S
C495 C494 1.387 . S
C495 C496 1.386 . S
C495 H526 0.930 . S
C496 C495 1.386 . S
C496 C497 1.397 . S
C497 C496 1.397 . S
C497 C498 1.393 . S
C497 H527 0.930 . S
C498 C497 1.393 . S
C498 C499 1.395 . S
C499 C494 1.380 . S
C499 C498 1.395 . S
C499 H528 0.930 . S
O500 Tb501 2.295 . S
O500 C513 1.242 . S
Tb501 O500 2.295 . S
Tb501 O502 2.312 . S
Tb501 O505 2.438 . S
Tb501 O507 2.472 . S
Tb501 O509 2.308 . S
Tb501 C510 2.821 . S
O502 Tb501 2.312 . S
O502 C522 1.264 . S
O503 Eu504 2.308 . S
O503 C513 1.243 . S
Eu504 O503 2.308 . S
Eu504 C506 2.821 . S
Eu504 O508 2.295 . S
Eu504 O515 2.312 . S
Eu504 O524 2.438 . S
Eu504 O525 2.472 . S
O505 Tb501 2.438 . S
O505 C510 1.263 . S
C506 Eu504 2.821 . S
C506 C516 1.494 . S
C506 O524 1.263 . S
C506 O525 1.264 . S
O507 Tb501 2.472 . S
O507 C510 1.264 . S
O508 Eu504 2.295 . S
O508 C514 1.242 . S
O509 Tb501 2.308 . S
O509 C514 1.243 . S
C510 C494 1.494 . S
C510 Tb501 2.821 . S
C510 O505 1.263 . S
C510 O507 1.264 . S
C511 O512 1.260 . S
C511 O515 1.264 . S
O512 C511 1.260 . S
C513 O500 1.242 . S
C513 O503 1.243 . S
C514 O508 1.242 . S
C514 O509 1.243 . S
O515 Eu504 2.312 . S
O515 C511 1.264 . S
C516 C506 1.494 . S
C516 C518 1.380 . S
C516 C519 1.387 . S
C517 C518 1.395 . S
C517 C521 1.393 . S
C518 C516 1.380 . S
C518 C517 1.395 . S
C518 H529 0.930 . S
C519 C516 1.387 . S
C519 C520 1.386 . S
C519 H530 0.930 . S
C520 C519 1.386 . S
C520 C521 1.397 . S
C521 C517 1.393 . S
C521 C520 1.397 . S
C521 H531 0.930 . S
C522 O502 1.264 . S
C522 O523 1.260 . S
O523 C522 1.260 . S
O524 Eu504 2.438 . S
O524 C506 1.263 . S
O525 Eu504 2.472 . S
O525 C506 1.264 . S
H526 C495 0.930 . S
H527 C497 0.930 . S
H528 C499 0.930 . S
H529 C518 0.930 . S
H530 C519 0.930 . S
H531 C521 0.930 . S
C532 C533 1.387 . S
C532 C537 1.380 . S
C532 C548 1.494 . S
C533 C532 1.387 . S
C533 C534 1.386 . S
C533 H564 0.930 . S
C534 C533 1.386 . S
C534 C535 1.397 . S
C535 C534 1.397 . S
C535 C536 1.393 . S
C535 H565 0.930 . S
C536 C535 1.393 . S
C536 C537 1.395 . S
C537 C532 1.380 . S
C537 C536 1.395 . S
C537 H566 0.930 . S
O538 Tb539 2.296 . S
O538 C551 1.242 1_455 S
Tb539 O538 2.296 . S
Tb539 O540 2.312 1_455 S
Tb539 O543 2.438 . S
Tb539 O545 2.472 . S
Tb539 O547 2.315 . S
Tb539 C548 2.821 . S
O540 Tb539 2.312 1_655 S
O540 C560 1.264 . S
O541 Eu542 2.308 . S
O541 C551 1.243 . S
Eu542 O541 2.308 . S
Eu542 C544 2.821 . S
Eu542 O546 2.295 . S
Eu542 O553 2.312 . S
Eu542 O562 2.438 . S
Eu542 O563 2.472 . S
O543 Tb539 2.438 . S
O543 C548 1.263 . S
C544 Eu542 2.821 . S
C544 C554 1.494 . S
C544 O562 1.263 . S
C544 O563 1.264 . S
O545 Tb539 2.472 . S
O545 C548 1.264 . S
O546 Eu542 2.295 . S
O546 C552 1.242 . S
O547 Tb539 2.315 . S
O547 C552 1.226 1_455 S
C548 C532 1.494 . S
C548 Tb539 2.821 . S
C548 O543 1.263 . S
C548 O545 1.264 . S
C549 O550 1.260 . S
C549 O553 1.264 1_455 S
O550 C549 1.260 . S
C551 O538 1.242 1_655 S
C551 O541 1.243 . S
C552 O546 1.242 . S
C552 O547 1.226 1_655 S
O553 Eu542 2.312 . S
O553 C549 1.264 1_655 S
C554 C544 1.494 . S
C554 C556 1.380 . S
C554 C557 1.387 . S
C555 C556 1.395 . S
C555 C559 1.393 . S
C556 C554 1.380 . S
C556 C555 1.395 . S
C556 H567 0.930 . S
C557 C554 1.387 . S
C557 C558 1.386 . S
C557 H568 0.930 . S
C558 C557 1.386 . S
C558 C559 1.397 . S
C559 C555 1.393 . S
C559 C558 1.397 . S
C559 H569 0.930 . S
C560 O540 1.264 . S
C560 O561 1.260 . S
O561 C560 1.260 . S
O562 Eu542 2.438 . S
O562 C544 1.263 . S
O563 Eu542 2.472 . S
O563 C544 1.264 . S
H564 C533 0.930 . S
H565 C535 0.930 . S
H566 C537 0.930 . S
H567 C556 0.930 . S
H568 C557 0.930 . S
H569 C559 0.930 . S
C570 C571 1.387 . S
C570 C575 1.380 . S
C570 C586 1.494 . S
C571 C570 1.387 . S
C571 C572 1.386 . S
C571 H602 0.930 . S
C572 C571 1.386 . S
C572 C573 1.397 . S
C573 C572 1.397 . S
C573 C574 1.393 . S
C573 H603 0.930 . S
C574 C573 1.393 . S
C574 C575 1.395 . S
C575 C570 1.380 . S
C575 C574 1.395 . S
C575 H604 0.930 . S
O576 Tb577 2.295 . S
O576 C589 1.242 . S
Tb577 O576 2.295 . S
Tb577 O578 2.312 . S
Tb577 O581 2.438 . S
Tb577 O583 2.472 . S
Tb577 O585 2.308 . S
Tb577 C586 2.821 . S
O578 Tb577 2.312 . S
O578 C598 1.264 . S
O579 Eu580 2.308 . S
O579 C589 1.243 . S
Eu580 O579 2.308 . S
Eu580 C582 2.821 . S
Eu580 O584 2.295 . S
Eu580 O591 2.312 . S
Eu580 O600 2.438 . S
Eu580 O601 2.472 . S
O581 Tb577 2.438 . S
O581 C586 1.263 . S
C582 Eu580 2.821 . S
C582 C592 1.494 . S
C582 O600 1.263 . S
C582 O601 1.264 . S
O583 Tb577 2.472 . S
O583 C586 1.264 . S
O584 Eu580 2.295 . S
O584 C590 1.242 . S
O585 Tb577 2.308 . S
O585 C590 1.243 . S
C586 C570 1.494 . S
C586 Tb577 2.821 . S
C586 O581 1.263 . S
C586 O583 1.264 . S
C587 O588 1.260 . S
C587 O591 1.264 . S
O588 C587 1.260 . S
C589 O576 1.242 . S
C589 O579 1.243 . S
C590 O584 1.242 . S
C590 O585 1.243 . S
O591 Eu580 2.312 . S
O591 C587 1.264 . S
C592 C582 1.494 . S
C592 C594 1.380 . S
C592 C595 1.387 . S
C593 C594 1.395 . S
C593 C597 1.393 . S
C594 C592 1.380 . S
C594 C593 1.395 . S
C594 H605 0.930 . S
C595 C592 1.387 . S
C595 C596 1.386 . S
C595 H606 0.930 . S
C596 C595 1.386 . S
C596 C597 1.397 . S
C597 C593 1.393 . S
C597 C596 1.397 . S
C597 H607 0.930 . S
C598 O578 1.264 . S
C598 O599 1.260 . S
O599 C598 1.260 . S
O600 Eu580 2.438 . S
O600 C582 1.263 . S
O601 Eu580 2.472 . S
O601 C582 1.264 . S
H602 C571 0.930 . S
H603 C573 0.930 . S
H604 C575 0.930 . S
H605 C594 0.930 . S
H606 C595 0.930 . S
H607 C597 0.930 . S
C608 C609 1.387 . S
C608 C613 1.380 . S
C608 C624 1.494 . S
C609 C608 1.387 . S
C609 C610 1.386 . S
C609 H640 0.930 . S
C610 C609 1.386 . S
C610 C611 1.397 . S
C611 C610 1.397 . S
C611 C612 1.393 . S
C611 H641 0.930 . S
C612 C611 1.393 . S
C612 C613 1.395 . S
C613 C608 1.380 . S
C613 C612 1.395 . S
C613 H642 0.930 . S
O614 Tb615 2.295 . S
O614 C627 1.242 . S
Tb615 O614 2.295 . S
Tb615 O616 2.312 . S
Tb615 O619 2.438 . S
Tb615 O621 2.472 . S
Tb615 O623 2.308 . S
Tb615 C624 2.821 . S
O616 Tb615 2.312 . S
O616 C636 1.264 . S
O617 Eu618 2.308 . S
O617 C627 1.243 . S
Eu618 O617 2.308 . S
Eu618 C620 2.821 . S
Eu618 O622 2.295 . S
Eu618 O629 2.312 . S
Eu618 O638 2.438 . S
Eu618 O639 2.472 . S
O619 Tb615 2.438 . S
O619 C624 1.263 . S
C620 Eu618 2.821 . S
C620 C630 1.494 . S
C620 O638 1.263 . S
C620 O639 1.264 . S
O621 Tb615 2.472 . S
O621 C624 1.264 . S
O622 Eu618 2.295 . S
O622 C628 1.242 . S
O623 Tb615 2.308 . S
O623 C628 1.243 . S
C624 C608 1.494 . S
C624 Tb615 2.821 . S
C624 O619 1.263 . S
C624 O621 1.264 . S
C625 O626 1.260 . S
C625 O629 1.264 . S
O626 C625 1.260 . S
C627 O614 1.242 . S
C627 O617 1.243 . S
C628 O622 1.242 . S
C628 O623 1.243 . S
O629 Eu618 2.312 . S
O629 C625 1.264 . S
C630 C620 1.494 . S
C630 C632 1.380 . S
C630 C633 1.387 . S
C631 C632 1.395 . S
C631 C635 1.393 . S
C632 C630 1.380 . S
C632 C631 1.395 . S
C632 H643 0.930 . S
C633 C630 1.387 . S
C633 C634 1.386 . S
C633 H644 0.930 . S
C634 C633 1.386 . S
C634 C635 1.397 . S
C635 C631 1.393 . S
C635 C634 1.397 . S
C635 H645 0.930 . S
C636 O616 1.264 . S
C636 O637 1.260 . S
O637 C636 1.260 . S
O638 Eu618 2.438 . S
O638 C620 1.263 . S
O639 Eu618 2.472 . S
O639 C620 1.264 . S
H640 C609 0.930 . S
H641 C611 0.930 . S
H642 C613 0.930 . S
H643 C632 0.930 . S
H644 C633 0.930 . S
H645 C635 0.930 . S
C646 C647 1.387 . S
C646 C651 1.380 . S
C646 C662 1.494 . S
C647 C646 1.387 . S
C647 C648 1.386 . S
C647 H678 0.930 . S
C648 C647 1.386 . S
C648 C649 1.397 . S
C649 C648 1.397 . S
C649 C650 1.393 . S
C649 H679 0.930 . S
C650 C649 1.393 . S
C650 C651 1.395 . S
C651 C646 1.380 . S
C651 C650 1.395 . S
C651 H680 0.930 . S
O652 Tb653 2.295 . S
O652 C665 1.242 . S
Tb653 O652 2.295 . S
Tb653 O654 2.312 . S
Tb653 O657 2.438 . S
Tb653 O659 2.472 . S
Tb653 O661 2.308 . S
Tb653 C662 2.821 . S
O654 Tb653 2.312 . S
O654 C674 1.264 . S
O655 Eu656 2.308 . S
O655 C665 1.243 . S
Eu656 O655 2.308 . S
Eu656 C658 2.821 . S
Eu656 O660 2.295 . S
Eu656 O667 2.312 1_565 S
Eu656 O676 2.438 1_565 S
Eu656 O677 2.472 . S
O657 Tb653 2.438 . S
O657 C662 1.263 . S
C658 Eu656 2.821 . S
C658 C668 1.494 . S
C658 O676 1.263 1_565 S
C658 O677 1.264 . S
O659 Tb653 2.472 . S
O659 C662 1.264 . S
O660 Eu656 2.295 . S
O660 C666 1.242 . S
O661 Tb653 2.308 . S
O661 C666 1.243 . S
C662 C646 1.494 . S
C662 Tb653 2.821 . S
C662 O657 1.263 . S
C662 O659 1.264 . S
C663 O664 1.260 . S
C663 O667 1.264 . S
O664 C663 1.260 . S
C665 O652 1.242 . S
C665 O655 1.243 . S
C666 O660 1.242 . S
C666 O661 1.243 . S
O667 Eu656 2.312 1_545 S
O667 C663 1.264 . S
C668 C658 1.494 . S
C668 C670 1.380 . S
C668 C671 1.387 1_565 S
C669 C670 1.395 . S
C669 C673 1.393 . S
C670 C668 1.380 . S
C670 C669 1.395 . S
C670 H681 0.930 . S
C671 C668 1.387 1_545 S
C671 C672 1.386 . S
C671 H682 0.930 . S
C672 C671 1.386 . S
C672 C673 1.397 1_545 S
C673 C669 1.393 . S
C673 C672 1.397 1_565 S
C673 H683 0.930 . S
C674 O654 1.264 . S
C674 O675 1.260 . S
O675 C674 1.260 . S
O676 Eu656 2.438 1_545 S
O676 C658 1.263 1_545 S
O677 Eu656 2.472 . S
O677 C658 1.264 . S
H678 C647 0.930 . S
H679 C649 0.930 . S
H680 C651 0.930 . S
H681 C670 0.930 . S
H682 C671 0.930 . S
H683 C673 0.930 . S
C684 C685 1.387 . S
C684 C689 1.380 . S
C684 C700 1.494 . S
C685 C684 1.387 . S
C685 C686 1.386 . S
C685 H716 0.930 . S
C686 C685 1.386 . S
C686 C687 1.397 . S
C687 C686 1.397 . S
C687 C688 1.393 . S
C687 H717 0.930 . S
C688 C687 1.393 . S
C688 C689 1.395 . S
C689 C684 1.380 . S
C689 C688 1.395 . S
C689 H718 0.930 . S
O690 Tb691 2.295 . S
O690 C703 1.242 . S
Tb691 O690 2.295 . S
Tb691 O692 2.312 . S
Tb691 O695 2.438 . S
Tb691 O697 2.472 . S
Tb691 O699 2.308 . S
Tb691 C700 2.821 . S
O692 Tb691 2.312 . S
O692 C712 1.264 . S
O693 Eu694 2.308 . S
O693 C703 1.243 . S
Eu694 O693 2.308 . S
Eu694 C696 2.821 . S
Eu694 O698 2.295 . S
Eu694 O705 2.312 1_565 S
Eu694 O714 2.438 1_565 S
Eu694 O715 2.472 . S
O695 Tb691 2.438 . S
O695 C700 1.263 . S
C696 Eu694 2.821 . S
C696 C706 1.494 . S
C696 O714 1.263 1_565 S
C696 O715 1.264 . S
O697 Tb691 2.472 . S
O697 C700 1.264 . S
O698 Eu694 2.295 . S
O698 C704 1.242 . S
O699 Tb691 2.308 . S
O699 C704 1.243 . S
C700 C684 1.494 . S
C700 Tb691 2.821 . S
C700 O695 1.263 . S
C700 O697 1.264 . S
C701 O702 1.260 . S
C701 O705 1.264 . S
O702 C701 1.260 . S
C703 O690 1.242 . S
C703 O693 1.243 . S
C704 O698 1.242 . S
C704 O699 1.243 . S
O705 Eu694 2.312 1_545 S
O705 C701 1.264 . S
C706 C696 1.494 . S
C706 C708 1.380 . S
C706 C709 1.387 1_565 S
C707 C708 1.395 . S
C707 C711 1.393 . S
C708 C706 1.380 . S
C708 C707 1.395 . S
C708 H719 0.930 . S
C709 C706 1.387 1_545 S
C709 C710 1.386 . S
C709 H720 0.930 . S
C710 C709 1.386 . S
C710 C711 1.397 1_545 S
C711 C707 1.393 . S
C711 C710 1.397 1_565 S
C711 H721 0.930 . S
C712 O692 1.264 . S
C712 O713 1.260 . S
O713 C712 1.260 . S
O714 Eu694 2.438 1_545 S
O714 C696 1.263 1_545 S
O715 Eu694 2.472 . S
O715 C696 1.264 . S
H716 C685 0.930 . S
H717 C687 0.930 . S
H718 C689 0.930 . S
H719 C708 0.930 . S
H720 C709 0.930 . S
H721 C711 0.930 . S
C722 C723 1.387 . S
C722 C727 1.380 . S
C722 C738 1.494 . S
C723 C722 1.387 . S
C723 C724 1.386 . S
C723 H754 0.930 . S
C724 C723 1.386 . S
C724 C725 1.397 . S
C725 C724 1.397 . S
C725 C726 1.393 . S
C725 H755 0.930 . S
C726 C725 1.393 . S
C726 C727 1.395 . S
C727 C722 1.380 . S
C727 C726 1.395 . S
C727 H756 0.930 . S
O728 Tb729 2.295 . S
O728 C741 1.242 . S
Tb729 O728 2.295 . S
Tb729 O730 2.312 . S
Tb729 O733 2.438 . S
Tb729 O735 2.472 . S
Tb729 O737 2.308 . S
Tb729 C738 2.821 . S
O730 Tb729 2.312 . S
O730 C750 1.264 . S
O731 Eu732 2.308 . S
O731 C741 1.243 . S
Eu732 O731 2.308 . S
Eu732 C734 2.821 . S
Eu732 O736 2.295 . S
Eu732 O743 2.312 . S
Eu732 O752 2.438 . S
Eu732 O753 2.472 . S
O733 Tb729 2.438 . S
O733 C738 1.263 . S
C734 Eu732 2.821 . S
C734 C744 1.494 . S
C734 O752 1.263 . S
C734 O753 1.264 . S
O735 Tb729 2.472 . S
O735 C738 1.264 . S
O736 Eu732 2.295 . S
O736 C742 1.242 . S
O737 Tb729 2.308 . S
O737 C742 1.243 . S
C738 C722 1.494 . S
C738 Tb729 2.821 . S
C738 O733 1.263 . S
C738 O735 1.264 . S
C739 O740 1.260 . S
C739 O743 1.264 . S
O740 C739 1.260 . S
C741 O728 1.242 . S
C741 O731 1.243 . S
C742 O736 1.242 . S
C742 O737 1.243 . S
O743 Eu732 2.312 . S
O743 C739 1.264 . S
C744 C734 1.494 . S
C744 C746 1.380 . S
C744 C747 1.387 . S
C745 C746 1.395 . S
C745 C749 1.393 . S
C746 C744 1.380 . S
C746 C745 1.395 . S
C746 H757 0.930 . S
C747 C744 1.387 . S
C747 C748 1.386 . S
C747 H758 0.930 . S
C748 C747 1.386 . S
C748 C749 1.397 . S
C749 C745 1.393 . S
C749 C748 1.397 . S
C749 H759 0.930 . S
C750 O730 1.264 . S
C750 O751 1.260 . S
O751 C750 1.260 . S
O752 Eu732 2.438 . S
O752 C734 1.263 . S
O753 Eu732 2.472 . S
O753 C734 1.264 . S
H754 C723 0.930 . S
H755 C725 0.930 . S
H756 C727 0.930 . S
H757 C746 0.930 . S
H758 C747 0.930 . S
H759 C749 0.930 . S
C760 C761 1.387 . S
C760 C765 1.380 . S
C760 C776 1.494 . S
C761 C760 1.387 . S
C761 C762 1.386 . S
C761 H792 0.930 . S
C762 C761 1.386 . S
C762 C763 1.397 . S
C763 C762 1.397 . S
C763 C764 1.393 . S
C763 H793 0.930 . S
C764 C763 1.393 . S
C764 C765 1.395 . S
C765 C760 1.380 . S
C765 C764 1.395 . S
C765 H794 0.930 . S
O766 Tb767 2.295 . S
O766 C779 1.242 . S
Tb767 O766 2.295 . S
Tb767 O768 2.312 . S
Tb767 O771 2.438 . S
Tb767 O773 2.472 . S
Tb767 O775 2.308 . S
Tb767 C776 2.821 . S
O768 Tb767 2.312 . S
O768 C788 1.264 . S
O769 Eu770 2.308 . S
O769 C779 1.243 . S
Eu770 O769 2.308 . S
Eu770 C772 2.821 . S
Eu770 O774 2.295 . S
Eu770 O781 2.312 . S
Eu770 O790 2.438 . S
Eu770 O791 2.472 . S
O771 Tb767 2.438 . S
O771 C776 1.263 . S
C772 Eu770 2.821 . S
C772 C782 1.494 . S
C772 O790 1.263 . S
C772 O791 1.264 . S
O773 Tb767 2.472 . S
O773 C776 1.264 . S
O774 Eu770 2.295 . S
O774 C780 1.242 . S
O775 Tb767 2.308 . S
O775 C780 1.243 . S
C776 C760 1.494 . S
C776 Tb767 2.821 . S
C776 O771 1.263 . S
C776 O773 1.264 . S
C777 O778 1.260 . S
C777 O781 1.264 . S
O778 C777 1.260 . S
C779 O766 1.242 . S
C779 O769 1.243 . S
C780 O774 1.242 . S
C780 O775 1.243 . S
O781 Eu770 2.312 . S
O781 C777 1.264 . S
C782 C772 1.494 . S
C782 C784 1.380 . S
C782 C785 1.387 . S
C783 C784 1.395 . S
C783 C787 1.393 . S
C784 C782 1.380 . S
C784 C783 1.395 . S
C784 H795 0.930 . S
C785 C782 1.387 . S
C785 C786 1.386 . S
C785 H796 0.930 . S
C786 C785 1.386 . S
C786 C787 1.397 . S
C787 C783 1.393 . S
C787 C786 1.397 . S
C787 H797 0.930 . S
C788 O768 1.264 . S
C788 O789 1.260 . S
O789 C788 1.260 . S
O790 Eu770 2.438 . S
O790 C772 1.263 . S
O791 Eu770 2.472 . S
O791 C772 1.264 . S
H792 C761 0.930 . S
H793 C763 0.930 . S
H794 C765 0.930 . S
H795 C784 0.930 . S
H796 C785 0.930 . S
H797 C787 0.930 . S
C798 C799 1.387 1_545 S
C798 C803 1.380 . S
C798 C814 1.494 . S
C799 C798 1.387 1_565 S
C799 C800 1.386 . S
C799 H830 0.930 . S
C800 C799 1.386 . S
C800 C801 1.397 1_565 S
C801 C800 1.397 1_545 S
C801 C802 1.393 . S
C801 H831 0.930 . S
C802 C801 1.393 . S
C802 C803 1.395 . S
C803 C798 1.380 . S
C803 C802 1.395 . S
C803 H832 0.930 . S
O804 Tb805 2.295 . S
O804 C817 1.242 . S
Tb805 O804 2.295 . S
Tb805 O806 2.312 1_545 S
Tb805 O809 2.438 1_545 S
Tb805 O811 2.472 . S
Tb805 O813 2.308 . S
Tb805 C814 2.821 . S
O806 Tb805 2.312 1_565 S
O806 C826 1.264 . S
O807 Eu808 2.308 . S
O807 C817 1.243 . S
Eu808 O807 2.308 . S
Eu808 C810 2.821 . S
Eu808 O812 2.295 . S
Eu808 O819 2.312 . S
Eu808 O828 2.438 . S
Eu808 O829 2.472 . S
O809 Tb805 2.438 1_565 S
O809 C814 1.263 1_565 S
C810 Eu808 2.821 . S
C810 C820 1.494 . S
C810 O828 1.263 . S
C810 O829 1.264 . S
O811 Tb805 2.472 . S
O811 C814 1.264 . S
O812 Eu808 2.295 . S
O812 C818 1.242 . S
O813 Tb805 2.308 . S
O813 C818 1.243 . S
C814 C798 1.494 . S
C814 Tb805 2.821 . S
C814 O809 1.263 1_545 S
C814 O811 1.264 . S
C815 O816 1.260 . S
C815 O819 1.264 . S
O816 C815 1.260 . S
C817 O804 1.242 . S
C817 O807 1.243 . S
C818 O812 1.242 . S
C818 O813 1.243 . S
O819 Eu808 2.312 . S
O819 C815 1.264 . S
C820 C810 1.494 . S
C820 C822 1.380 . S
C820 C823 1.387 . S
C821 C822 1.395 . S
C821 C825 1.393 . S
C822 C820 1.380 . S
C822 C821 1.395 . S
C822 H833 0.930 . S
C823 C820 1.387 . S
C823 C824 1.386 . S
C823 H834 0.930 . S
C824 C823 1.386 . S
C824 C825 1.397 . S
C825 C821 1.393 . S
C825 C824 1.397 . S
C825 H835 0.930 . S
C826 O806 1.264 . S
C826 O827 1.260 . S
O827 C826 1.260 . S
O828 Eu808 2.438 . S
O828 C810 1.263 . S
O829 Eu808 2.472 . S
O829 C810 1.264 . S
H830 C799 0.930 . S
H831 C801 0.930 . S
H832 C803 0.930 . S
H833 C822 0.930 . S
H834 C823 0.930 . S
H835 C825 0.930 . S
C836 C837 1.387 1_545 S
C836 C841 1.380 . S
C836 C852 1.494 . S
C837 C836 1.387 1_565 S
C837 C838 1.386 . S
C837 H868 0.930 . S
C838 C837 1.386 . S
C838 C839 1.397 1_565 S
C839 C838 1.397 1_545 S
C839 C840 1.393 . S
C839 H869 0.930 . S
C840 C839 1.393 . S
C840 C841 1.395 . S
C841 C836 1.380 . S
C841 C840 1.395 . S
C841 H870 0.930 . S
O842 Tb843 2.295 . S
O842 C855 1.242 . S
Tb843 O842 2.295 . S
Tb843 O844 2.312 1_545 S
Tb843 O847 2.438 1_545 S
Tb843 O849 2.472 . S
Tb843 O851 2.308 . S
Tb843 C852 2.821 . S
O844 Tb843 2.312 1_565 S
O844 C864 1.264 . S
O845 Eu846 2.308 . S
O845 C855 1.243 . S
Eu846 O845 2.308 . S
Eu846 C848 2.821 . S
Eu846 O850 2.295 . S
Eu846 O857 2.312 . S
Eu846 O866 2.438 . S
Eu846 O867 2.472 . S
O847 Tb843 2.438 1_565 S
O847 C852 1.263 1_565 S
C848 Eu846 2.821 . S
C848 C858 1.494 . S
C848 O866 1.263 . S
C848 O867 1.264 . S
O849 Tb843 2.472 . S
O849 C852 1.264 . S
O850 Eu846 2.295 . S
O850 C856 1.242 . S
O851 Tb843 2.308 . S
O851 C856 1.243 . S
C852 C836 1.494 . S
C852 Tb843 2.821 . S
C852 O847 1.263 1_545 S
C852 O849 1.264 . S
C853 O854 1.260 . S
C853 O857 1.264 . S
O854 C853 1.260 . S
C855 O842 1.242 . S
C855 O845 1.243 . S
C856 O850 1.242 . S
C856 O851 1.243 . S
O857 Eu846 2.312 . S
O857 C853 1.264 . S
C858 C848 1.494 . S
C858 C860 1.380 . S
C858 C861 1.387 . S
C859 C860 1.395 . S
C859 C863 1.393 . S
C860 C858 1.380 . S
C860 C859 1.395 . S
C860 H871 0.930 . S
C861 C858 1.387 . S
C861 C862 1.386 . S
C861 H872 0.930 . S
C862 C861 1.386 . S
C862 C863 1.397 . S
C863 C859 1.393 . S
C863 C862 1.397 . S
C863 H873 0.930 . S
C864 O844 1.264 . S
C864 O865 1.260 . S
O865 C864 1.260 . S
O866 Eu846 2.438 . S
O866 C848 1.263 . S
O867 Eu846 2.472 . S
O867 C848 1.264 . S
H868 C837 0.930 . S
H869 C839 0.930 . S
H870 C841 0.930 . S
H871 C860 0.930 . S
H872 C861 0.930 . S
H873 C863 0.930 . S
C874 C875 1.387 . S
C874 C879 1.380 . S
C874 C890 1.494 . S
C875 C874 1.387 . S
C875 C876 1.386 . S
C875 H906 0.930 . S
C876 C875 1.386 . S
C876 C877 1.397 . S
C877 C876 1.397 . S
C877 C878 1.393 . S
C877 H907 0.930 . S
C878 C877 1.393 . S
C878 C879 1.395 . S
C879 C874 1.380 . S
C879 C878 1.395 . S
C879 H908 0.930 . S
O880 Tb881 2.295 . S
O880 C893 1.242 . S
Tb881 O880 2.295 . S
Tb881 O882 2.312 . S
Tb881 O885 2.438 . S
Tb881 O887 2.472 . S
Tb881 O889 2.308 . S
Tb881 C890 2.821 . S
O882 Tb881 2.312 . S
O882 C902 1.264 . S
O883 Eu884 2.308 . S
O883 C893 1.243 . S
Eu884 O883 2.308 . S
Eu884 C886 2.821 . S
Eu884 O888 2.295 . S
Eu884 O895 2.312 . S
Eu884 O904 2.438 . S
Eu884 O905 2.472 . S
O885 Tb881 2.438 . S
O885 C890 1.263 . S
C886 Eu884 2.821 . S
C886 C896 1.494 . S
C886 O904 1.263 . S
C886 O905 1.264 . S
O887 Tb881 2.472 . S
O887 C890 1.264 . S
O888 Eu884 2.295 . S
O888 C894 1.242 . S
O889 Tb881 2.308 . S
O889 C894 1.243 . S
C890 C874 1.494 . S
C890 Tb881 2.821 . S
C890 O885 1.263 . S
C890 O887 1.264 . S
C891 O892 1.260 . S
C891 O895 1.264 . S
O892 C891 1.260 . S
C893 O880 1.242 . S
C893 O883 1.243 . S
C894 O888 1.242 . S
C894 O889 1.243 . S
O895 Eu884 2.312 . S
O895 C891 1.264 . S
C896 C886 1.494 . S
C896 C898 1.380 . S
C896 C899 1.387 . S
C897 C898 1.395 . S
C897 C901 1.393 . S
C898 C896 1.380 . S
C898 C897 1.395 . S
C898 H909 0.930 . S
C899 C896 1.387 . S
C899 C900 1.386 . S
C899 H910 0.930 . S
C900 C899 1.386 . S
C900 C901 1.397 . S
C901 C897 1.393 . S
C901 C900 1.397 . S
C901 H911 0.930 . S
C902 O882 1.264 . S
C902 O903 1.260 . S
O903 C902 1.260 . S
O904 Eu884 2.438 . S
O904 C886 1.263 . S
O905 Eu884 2.472 . S
O905 C886 1.264 . S
H906 C875 0.930 . S
H907 C877 0.930 . S
H908 C879 0.930 . S
H909 C898 0.930 . S
H910 C899 0.930 . S
H911 C901 0.930 . S
C912 C913 1.387 . S
C912 C917 1.380 . S
C912 C928 1.494 . S
C913 C912 1.387 . S
C913 C914 1.386 . S
C913 H944 0.930 . S
C914 C913 1.386 . S
C914 C915 1.397 . S
C915 C914 1.397 . S
C915 C916 1.393 . S
C915 H945 0.930 . S
C916 C915 1.393 . S
C916 C917 1.395 . S
C917 C912 1.380 . S
C917 C916 1.395 . S
C917 H946 0.930 . S
O918 Tb919 2.295 1_554 S
O918 C931 1.242 . S
Tb919 O918 2.295 1_556 S
Tb919 O920 2.312 . S
Tb919 O923 2.438 . S
Tb919 O925 2.472 1_556 S
Tb919 O927 2.308 . S
Tb919 C928 2.821 1_556 S
O920 Tb919 2.312 . S
O920 C940 1.264 . S
O921 Eu922 2.308 . S
O921 C931 1.243 . S
Eu922 O921 2.308 . S
Eu922 C924 2.821 . S
Eu922 O926 2.295 . S
Eu922 O933 2.312 . S
Eu922 O942 2.438 . S
Eu922 O943 2.472 . S
O923 Tb919 2.438 . S
O923 C928 1.263 1_556 S
C924 Eu922 2.821 . S
C924 C934 1.494 . S
C924 O942 1.263 . S
C924 O943 1.264 . S
O925 Tb919 2.472 1_554 S
O925 C928 1.264 . S
O926 Eu922 2.295 . S
O926 C932 1.242 1_554 S
O927 Tb919 2.308 . S
O927 C932 1.243 . S
C928 C912 1.494 . S
C928 Tb919 2.821 1_554 S
C928 O923 1.263 1_554 S
C928 O925 1.264 . S
C929 O930 1.260 . S
C929 O933 1.264 . S
O930 C929 1.260 . S
C931 O918 1.242 . S
C931 O921 1.243 . S
C932 O926 1.242 1_556 S
C932 O927 1.243 . S
O933 Eu922 2.312 . S
O933 C929 1.264 . S
C934 C924 1.494 . S
C934 C936 1.380 . S
C934 C937 1.387 . S
C935 C936 1.395 1_556 S
C935 C939 1.393 . S
C936 C934 1.380 . S
C936 C935 1.395 1_554 S
C936 H947 0.930 . S
C937 C934 1.387 . S
C937 C938 1.386 . S
C937 H948 0.930 . S
C938 C937 1.386 . S
C938 C939 1.397 1_554 S
C939 C935 1.393 . S
C939 C938 1.397 1_556 S
C939 H949 0.930 . S
C940 O920 1.264 . S
C940 O941 1.260 . S
O941 C940 1.260 . S
O942 Eu922 2.438 . S
O942 C924 1.263 . S
O943 Eu922 2.472 . S
O943 C924 1.264 . S
H944 C913 0.930 . S
H945 C915 0.930 . S
H946 C917 0.930 . S
H947 C936 0.930 . S
H948 C937 0.930 . S
H949 C939 0.930 . S
C950 C951 1.387 . S
C950 C955 1.380 . S
C950 C966 1.494 . S
C951 C950 1.387 . S
C951 C952 1.386 . S
C951 H982 0.930 . S
C952 C951 1.386 . S
C952 C953 1.397 . S
C953 C952 1.397 . S
C953 C954 1.393 . S
C953 H983 0.930 . S
C954 C953 1.393 . S
C954 C955 1.395 . S
C955 C950 1.380 . S
C955 C954 1.395 . S
C955 H984 0.930 . S
O956 Tb957 2.295 1_554 S
O956 C969 1.242 . S
Tb957 O956 2.295 1_556 S
Tb957 O958 2.312 . S
Tb957 O961 2.438 . S
Tb957 O963 2.472 1_556 S
Tb957 O965 2.308 . S
Tb957 C966 2.821 1_556 S
O958 Tb957 2.312 . S
O958 C978 1.264 . S
O959 Eu960 2.308 . S
O959 C969 1.243 . S
Eu960 O959 2.308 . S
Eu960 C962 2.821 . S
Eu960 O964 2.295 . S
Eu960 O971 2.312 . S
Eu960 O980 2.438 . S
Eu960 O981 2.472 . S
O961 Tb957 2.438 . S
O961 C966 1.263 1_556 S
C962 Eu960 2.821 . S
C962 C972 1.494 . S
C962 O980 1.263 . S
C962 O981 1.264 . S
O963 Tb957 2.472 1_554 S
O963 C966 1.264 . S
O964 Eu960 2.295 . S
O964 C970 1.242 1_554 S
O965 Tb957 2.308 . S
O965 C970 1.243 . S
C966 C950 1.494 . S
C966 Tb957 2.821 1_554 S
C966 O961 1.263 1_554 S
C966 O963 1.264 . S
C967 O968 1.260 . S
C967 O971 1.264 . S
O968 C967 1.260 . S
C969 O956 1.242 . S
C969 O959 1.243 . S
C970 O964 1.242 1_556 S
C970 O965 1.243 . S
O971 Eu960 2.312 . S
O971 C967 1.264 . S
C972 C962 1.494 . S
C972 C974 1.380 . S
C972 C975 1.387 . S
C973 C974 1.395 1_556 S
C973 C977 1.393 . S
C974 C972 1.380 . S
C974 C973 1.395 1_554 S
C974 H985 0.930 . S
C975 C972 1.387 . S
C975 C976 1.386 . S
C975 H986 0.930 . S
C976 C975 1.386 . S
C976 C977 1.397 1_554 S
C977 C973 1.393 . S
C977 C976 1.397 1_556 S
C977 H987 0.930 . S
C978 O958 1.264 . S
C978 O979 1.260 . S
O979 C978 1.260 . S
O980 Eu960 2.438 . S
O980 C962 1.263 . S
O981 Eu960 2.472 . S
O981 C962 1.264 . S
H982 C951 0.930 . S
H983 C953 0.930 . S
H984 C955 0.930 . S
H985 C974 0.930 . S
H986 C975 0.930 . S
H987 C977 0.930 . S
C988 C989 1.387 . S
C988 C993 1.380 . S
C988 C1004 1.494 . S
C989 C988 1.387 . S
C989 C990 1.386 . S
C989 H1020 0.930 . S
C990 C989 1.386 . S
C990 C991 1.397 . S
C991 C990 1.397 . S
C991 C992 1.393 . S
C991 H1021 0.930 . S
C992 C991 1.393 . S
C992 C993 1.395 . S
C993 C988 1.380 . S
C993 C992 1.395 . S
C993 H1022 0.930 . S
O994 Tb995 2.295 . S
O994 C1007 1.242 . S
Tb995 O994 2.295 . S
Tb995 O996 2.312 . S
Tb995 O999 2.438 . S
Tb995 O1001 2.472 . S
Tb995 O1003 2.308 . S
Tb995 C1004 2.821 . S
O996 Tb995 2.312 . S
O996 C1016 1.264 . S
O997 Eu998 2.308 . S
O997 C1007 1.243 . S
Eu998 O997 2.308 . S
Eu998 C1000 2.821 . S
Eu998 O1002 2.295 . S
Eu998 O1009 2.312 . S
Eu998 O1018 2.438 . S
Eu998 O1019 2.472 . S
O999 Tb995 2.438 . S
O999 C1004 1.263 . S
C1000 Eu998 2.821 . S
C1000 C1010 1.494 . S
C1000 O1018 1.263 . S
C1000 O1019 1.264 . S
O1001 Tb995 2.472 . S
O1001 C1004 1.264 . S
O1002 Eu998 2.295 . S
O1002 C1008 1.242 . S
O1003 Tb995 2.308 . S
O1003 C1008 1.243 . S
C1004 C988 1.494 . S
C1004 Tb995 2.821 . S
C1004 O999 1.263 . S
C1004 O1001 1.264 . S
C1005 O1006 1.260 . S
C1005 O1009 1.264 . S
O1006 C1005 1.260 . S
C1007 O994 1.242 . S
C1007 O997 1.243 . S
C1008 O1002 1.242 . S
C1008 O1003 1.243 . S
O1009 Eu998 2.312 . S
O1009 C1005 1.264 . S
C1010 C1000 1.494 . S
C1010 C1012 1.380 . S
C1010 C1013 1.387 . S
C1011 C1012 1.395 . S
C1011 C1015 1.393 . S
C1012 C1010 1.380 . S
C1012 C1011 1.395 . S
C1012 H1023 0.930 . S
C1013 C1010 1.387 . S
C1013 C1014 1.386 . S
C1013 H1024 0.930 . S
C1014 C1013 1.386 . S
C1014 C1015 1.397 . S
C1015 C1011 1.393 . S
C1015 C1014 1.397 . S
C1015 H1025 0.930 . S
C1016 O996 1.264 . S
C1016 O1017 1.260 . S
O1017 C1016 1.260 . S
O1018 Eu998 2.438 . S
O1018 C1000 1.263 . S
O1019 Eu998 2.472 . S
O1019 C1000 1.264 . S
H1020 C989 0.930 . S
H1021 C991 0.930 . S
H1022 C993 0.930 . S
H1023 C1012 0.930 . S
H1024 C1013 0.930 . S
H1025 C1015 0.930 . S
C1026 C1027 1.387 . S
C1026 C1031 1.380 . S
C1026 C1042 1.494 . S
C1027 C1026 1.387 . S
C1027 C1028 1.386 . S
C1027 H1058 0.930 . S
C1028 C1027 1.386 . S
C1028 C1029 1.397 . S
C1029 C1028 1.397 . S
C1029 C1030 1.393 . S
C1029 H1059 0.930 . S
C1030 C1029 1.393 . S
C1030 C1031 1.395 . S
C1031 C1026 1.380 . S
C1031 C1030 1.395 . S
C1031 H1060 0.930 . S
O1032 Tb1033 2.295 . S
O1032 C1045 1.242 . S
Tb1033 O1032 2.295 . S
Tb1033 O1034 2.312 . S
Tb1033 O1037 2.438 . S
Tb1033 O1039 2.472 . S
Tb1033 O1041 2.308 . S
Tb1033 C1042 2.821 . S
O1034 Tb1033 2.312 . S
O1034 C1054 1.264 . S
O1035 Eu1036 2.308 . S
O1035 C1045 1.243 . S
Eu1036 O1035 2.308 . S
Eu1036 C1038 2.821 . S
Eu1036 O1040 2.295 . S
Eu1036 O1047 2.312 . S
Eu1036 O1056 2.438 . S
Eu1036 O1057 2.472 . S
O1037 Tb1033 2.438 . S
O1037 C1042 1.263 . S
C1038 Eu1036 2.821 . S
C1038 C1048 1.494 . S
C1038 O1056 1.263 . S
C1038 O1057 1.264 . S
O1039 Tb1033 2.472 . S
O1039 C1042 1.264 . S
O1040 Eu1036 2.295 . S
O1040 C1046 1.242 . S
O1041 Tb1033 2.308 . S
O1041 C1046 1.243 . S
C1042 C1026 1.494 . S
C1042 Tb1033 2.821 . S
C1042 O1037 1.263 . S
C1042 O1039 1.264 . S
C1043 O1044 1.260 . S
C1043 O1047 1.264 . S
O1044 C1043 1.260 . S
C1045 O1032 1.242 . S
C1045 O1035 1.243 . S
C1046 O1040 1.242 . S
C1046 O1041 1.243 . S
O1047 Eu1036 2.312 . S
O1047 C1043 1.264 . S
C1048 C1038 1.494 . S
C1048 C1050 1.380 . S
C1048 C1051 1.387 . S
C1049 C1050 1.395 . S
C1049 C1053 1.393 . S
C1050 C1048 1.380 . S
C1050 C1049 1.395 . S
C1050 H1061 0.930 . S
C1051 C1048 1.387 . S
C1051 C1052 1.386 . S
C1051 H1062 0.930 . S
C1052 C1051 1.386 . S
C1052 C1053 1.397 . S
C1053 C1049 1.393 . S
C1053 C1052 1.397 . S
C1053 H1063 0.930 . S
C1054 O1034 1.264 . S
C1054 O1055 1.260 . S
O1055 C1054 1.260 . S
O1056 Eu1036 2.438 . S
O1056 C1038 1.263 . S
O1057 Eu1036 2.472 . S
O1057 C1038 1.264 . S
H1058 C1027 0.930 . S
H1059 C1029 0.930 . S
H1060 C1031 0.930 . S
H1061 C1050 0.930 . S
H1062 C1051 0.930 . S
H1063 C1053 0.930 . S
C1064 C1065 1.387 . S
C1064 C1069 1.380 . S
C1064 C1080 1.494 . S
C1065 C1064 1.387 . S
C1065 C1066 1.386 . S
C1065 H1096 0.930 . S
C1066 C1065 1.386 . S
C1066 C1067 1.397 1_556 S
C1067 C1066 1.397 1_554 S
C1067 C1068 1.393 . S
C1067 H1097 0.930 . S
C1068 C1067 1.393 . S
C1068 C1069 1.395 1_554 S
C1069 C1064 1.380 . S
C1069 C1068 1.395 1_556 S
C1069 H1098 0.930 . S
O1070 Tb1071 2.295 . S
O1070 C1083 1.242 1_556 S
Tb1071 O1070 2.295 . S
Tb1071 O1072 2.312 . S
Tb1071 O1075 2.438 . S
Tb1071 O1077 2.472 . S
Tb1071 O1079 2.308 . S
Tb1071 C1080 2.821 . S
O1072 Tb1071 2.312 . S
O1072 C1092 1.264 . S
O1073 Eu1074 2.308 . S
O1073 C1083 1.243 . S
Eu1074 O1073 2.308 . S
Eu1074 C1076 2.821 1_554 S
Eu1074 O1078 2.295 1_554 S
Eu1074 O1085 2.312 . S
Eu1074 O1094 2.438 . S
Eu1074 O1095 2.472 1_554 S
O1075 Tb1071 2.438 . S
O1075 C1080 1.263 . S
C1076 Eu1074 2.821 1_556 S
C1076 C1086 1.494 . S
C1076 O1094 1.263 1_556 S
C1076 O1095 1.264 . S
O1077 Tb1071 2.472 . S
O1077 C1080 1.264 . S
O1078 Eu1074 2.295 1_556 S
O1078 C1084 1.242 . S
O1079 Tb1071 2.308 . S
O1079 C1084 1.243 . S
C1080 C1064 1.494 . S
C1080 Tb1071 2.821 . S
C1080 O1075 1.263 . S
C1080 O1077 1.264 . S
C1081 O1082 1.260 . S
C1081 O1085 1.264 . S
O1082 C1081 1.260 . S
C1083 O1070 1.242 1_554 S
C1083 O1073 1.243 . S
C1084 O1078 1.242 . S
C1084 O1079 1.243 . S
O1085 Eu1074 2.312 . S
O1085 C1081 1.264 . S
C1086 C1076 1.494 . S
C1086 C1088 1.380 . S
C1086 C1089 1.387 . S
C1087 C1088 1.395 . S
C1087 C1091 1.393 . S
C1088 C1086 1.380 . S
C1088 C1087 1.395 . S
C1088 H1099 0.930 . S
C1089 C1086 1.387 . S
C1089 C1090 1.386 . S
C1089 H1100 0.930 . S
C1090 C1089 1.386 . S
C1090 C1091 1.397 . S
C1091 C1087 1.393 . S
C1091 C1090 1.397 . S
C1091 H1101 0.930 . S
C1092 O1072 1.264 . S
C1092 O1093 1.260 . S
O1093 C1092 1.260 . S
O1094 Eu1074 2.438 . S
O1094 C1076 1.263 1_554 S
O1095 Eu1074 2.472 1_556 S
O1095 C1076 1.264 . S
H1096 C1065 0.930 . S
H1097 C1067 0.930 . S
H1098 C1069 0.930 . S
H1099 C1088 0.930 . S
H1100 C1089 0.930 . S
H1101 C1091 0.930 . S
C1102 C1103 1.387 . S
C1102 C1107 1.380 . S
C1102 C1118 1.494 . S
C1103 C1102 1.387 . S
C1103 C1104 1.386 . S
C1103 H1134 0.930 . S
C1104 C1103 1.386 . S
C1104 C1105 1.397 1_556 S
C1105 C1104 1.397 1_554 S
C1105 C1106 1.393 . S
C1105 H1135 0.930 . S
C1106 C1105 1.393 . S
C1106 C1107 1.395 1_554 S
C1107 C1102 1.380 . S
C1107 C1106 1.395 1_556 S
C1107 H1136 0.930 . S
O1108 Tb1109 2.295 . S
O1108 C1121 1.242 1_556 S
Tb1109 O1108 2.295 . S
Tb1109 O1110 2.312 . S
Tb1109 O1113 2.438 . S
Tb1109 O1115 2.472 . S
Tb1109 O1117 2.308 . S
Tb1109 C1118 2.821 . S
O1110 Tb1109 2.312 . S
O1110 C1130 1.264 . S
O1111 Eu1112 2.308 . S
O1111 C1121 1.243 . S
Eu1112 O1111 2.308 . S
Eu1112 C1114 2.821 1_554 S
Eu1112 O1116 2.295 1_554 S
Eu1112 O1123 2.312 . S
Eu1112 O1132 2.438 . S
Eu1112 O1133 2.472 1_554 S
O1113 Tb1109 2.438 . S
O1113 C1118 1.263 . S
C1114 Eu1112 2.821 1_556 S
C1114 C1124 1.494 . S
C1114 O1132 1.263 1_556 S
C1114 O1133 1.264 . S
O1115 Tb1109 2.472 . S
O1115 C1118 1.264 . S
O1116 Eu1112 2.295 1_556 S
O1116 C1122 1.242 . S
O1117 Tb1109 2.308 . S
O1117 C1122 1.243 . S
C1118 C1102 1.494 . S
C1118 Tb1109 2.821 . S
C1118 O1113 1.263 . S
C1118 O1115 1.264 . S
C1119 O1120 1.260 . S
C1119 O1123 1.264 . S
O1120 C1119 1.260 . S
C1121 O1108 1.242 1_554 S
C1121 O1111 1.243 . S
C1122 O1116 1.242 . S
C1122 O1117 1.243 . S
O1123 Eu1112 2.312 . S
O1123 C1119 1.264 . S
C1124 C1114 1.494 . S
C1124 C1126 1.380 . S
C1124 C1127 1.387 . S
C1125 C1126 1.395 . S
C1125 C1129 1.393 . S
C1126 C1124 1.380 . S
C1126 C1125 1.395 . S
C1126 H1137 0.930 . S
C1127 C1124 1.387 . S
C1127 C1128 1.386 . S
C1127 H1138 0.930 . S
C1128 C1127 1.386 . S
C1128 C1129 1.397 . S
C1129 C1125 1.393 . S
C1129 C1128 1.397 . S
C1129 H1139 0.930 . S
C1130 O1110 1.264 . S
C1130 O1131 1.260 . S
O1131 C1130 1.260 . S
O1132 Eu1112 2.438 . S
O1132 C1114 1.263 1_554 S
O1133 Eu1112 2.472 1_556 S
O1133 C1114 1.264 . S
H1134 C1103 0.930 . S
H1135 C1105 0.930 . S
H1136 C1107 0.930 . S
H1137 C1126 0.930 . S
H1138 C1127 0.930 . S
H1139 C1129 0.930 . S
C1140 C1141 1.387 . S
C1140 C1145 1.380 . S
C1140 C1156 1.494 . S
C1141 C1140 1.387 . S
C1141 C1142 1.386 . S
C1141 H1172 0.930 . S
C1142 C1141 1.386 . S
C1142 C1143 1.397 . S
C1143 C1142 1.397 . S
C1143 C1144 1.393 . S
C1143 H1173 0.930 . S
C1144 C1143 1.393 . S
C1144 C1145 1.395 . S
C1145 C1140 1.380 . S
C1145 C1144 1.395 . S
C1145 H1174 0.930 . S
O1146 Tb1147 2.295 . S
O1146 C1159 1.242 . S
Tb1147 O1146 2.295 . S
Tb1147 O1148 2.312 . S
Tb1147 O1151 2.438 . S
Tb1147 O1153 2.472 . S
Tb1147 O1155 2.308 . S
Tb1147 C1156 2.821 . S
O1148 Tb1147 2.312 . S
O1148 C1168 1.264 . S
O1149 Eu1150 2.308 . S
O1149 C1159 1.243 . S
Eu1150 O1149 2.308 . S
Eu1150 C1152 2.821 . S
Eu1150 O1154 2.295 . S
Eu1150 O1161 2.312 . S
Eu1150 O1170 2.438 . S
Eu1150 O1171 2.472 . S
O1151 Tb1147 2.438 . S
O1151 C1156 1.263 . S
C1152 Eu1150 2.821 . S
C1152 C1162 1.494 . S
C1152 O1170 1.263 . S
C1152 O1171 1.264 . S
O1153 Tb1147 2.472 . S
O1153 C1156 1.264 . S
O1154 Eu1150 2.295 . S
O1154 C1160 1.242 . S
O1155 Tb1147 2.308 . S
O1155 C1160 1.243 . S
C1156 C1140 1.494 . S
C1156 Tb1147 2.821 . S
C1156 O1151 1.263 . S
C1156 O1153 1.264 . S
C1157 O1158 1.260 . S
C1157 O1161 1.264 . S
O1158 C1157 1.260 . S
C1159 O1146 1.242 . S
C1159 O1149 1.243 . S
C1160 O1154 1.242 . S
C1160 O1155 1.243 . S
O1161 Eu1150 2.312 . S
O1161 C1157 1.264 . S
C1162 C1152 1.494 . S
C1162 C1164 1.380 . S
C1162 C1165 1.387 . S
C1163 C1164 1.395 . S
C1163 C1167 1.393 . S
C1164 C1162 1.380 . S
C1164 C1163 1.395 . S
C1164 H1175 0.930 . S
C1165 C1162 1.387 . S
C1165 C1166 1.386 . S
C1165 H1176 0.930 . S
C1166 C1165 1.386 . S
C1166 C1167 1.397 . S
C1167 C1163 1.393 . S
C1167 C1166 1.397 . S
C1167 H1177 0.930 . S
C1168 O1148 1.264 . S
C1168 O1169 1.260 . S
O1169 C1168 1.260 . S
O1170 Eu1150 2.438 . S
O1170 C1152 1.263 . S
O1171 Eu1150 2.472 . S
O1171 C1152 1.264 . S
H1172 C1141 0.930 . S
H1173 C1143 0.930 . S
H1174 C1145 0.930 . S
H1175 C1164 0.930 . S
H1176 C1165 0.930 . S
H1177 C1167 0.930 . S
C1178 C1179 1.387 . S
C1178 C1183 1.380 . S
C1178 C1194 1.494 . S
C1179 C1178 1.387 . S
C1179 C1180 1.386 . S
C1179 H1210 0.930 . S
C1180 C1179 1.386 . S
C1180 C1181 1.397 . S
C1181 C1180 1.397 . S
C1181 C1182 1.393 . S
C1181 H1211 0.930 . S
C1182 C1181 1.393 . S
C1182 C1183 1.395 . S
C1183 C1178 1.380 . S
C1183 C1182 1.395 . S
C1183 H1212 0.930 . S
O1184 Tb1185 2.295 . S
O1184 C1197 1.242 . S
Tb1185 O1184 2.295 . S
Tb1185 O1186 2.312 . S
Tb1185 O1189 2.438 . S
Tb1185 O1191 2.472 . S
Tb1185 O1193 2.308 . S
Tb1185 C1194 2.821 . S
O1186 Tb1185 2.312 . S
O1186 C1206 1.264 . S
O1187 Eu1188 2.308 . S
O1187 C1197 1.243 . S
Eu1188 O1187 2.308 . S
Eu1188 C1190 2.821 . S
Eu1188 O1192 2.295 . S
Eu1188 O1199 2.312 . S
Eu1188 O1208 2.438 . S
Eu1188 O1209 2.472 . S
O1189 Tb1185 2.438 . S
O1189 C1194 1.263 . S
C1190 Eu1188 2.821 . S
C1190 C1200 1.494 . S
C1190 O1208 1.263 . S
C1190 O1209 1.264 . S
O1191 Tb1185 2.472 . S
O1191 C1194 1.264 . S
O1192 Eu1188 2.295 . S
O1192 C1198 1.242 . S
O1193 Tb1185 2.308 . S
O1193 C1198 1.243 . S
C1194 C1178 1.494 . S
C1194 Tb1185 2.821 . S
C1194 O1189 1.263 . S
C1194 O1191 1.264 . S
C1195 O1196 1.260 . S
C1195 O1199 1.264 . S
O1196 C1195 1.260 . S
C1197 O1184 1.242 . S
C1197 O1187 1.243 . S
C1198 O1192 1.242 . S
C1198 O1193 1.243 . S
O1199 Eu1188 2.312 . S
O1199 C1195 1.264 . S
C1200 C1190 1.494 . S
C1200 C1202 1.380 . S
C1200 C1203 1.387 . S
C1201 C1202 1.395 . S
C1201 C1205 1.393 . S
C1202 C1200 1.380 . S
C1202 C1201 1.395 . S
C1202 H1213 0.930 . S
C1203 C1200 1.387 . S
C1203 C1204 1.386 . S
C1203 H1214 0.930 . S
C1204 C1203 1.386 . S
C1204 C1205 1.397 . S
C1205 C1201 1.393 . S
C1205 C1204 1.397 . S
C1205 H1215 0.930 . S
C1206 O1186 1.264 . S
C1206 O1207 1.260 . S
O1207 C1206 1.260 . S
O1208 Eu1188 2.438 . S
O1208 C1190 1.263 . S
O1209 Eu1188 2.472 . S
O1209 C1190 1.264 . S
H1210 C1179 0.930 . S
H1211 C1181 0.930 . S
H1212 C1183 0.930 . S
H1213 C1202 0.930 . S
H1214 C1203 0.930 . S
H1215 C1205 0.930 . S
C1216 C1217 1.369 1_554 S
C1216 C1218 1.419 . S
C1216 H1220 0.930 . S
C1217 C1216 1.369 1_556 S
C1217 C1226 1.429 . S
C1218 C1216 1.419 . S
C1218 C1219 1.363 1_554 S
C1218 H1221 0.929 . S
C1219 C1218 1.363 1_556 S
C1219 C1225 1.428 . S
H1220 C1216 0.930 . S
H1221 C1218 0.929 . S
S1222 N1223 1.613 . S
S1222 N1224 1.610 . S
N1223 S1222 1.613 . S
N1223 C1226 1.350 . S
N1224 S1222 1.610 . S
N1224 C1225 1.351 . S
C1225 C1219 1.428 . S
C1225 N1224 1.351 . S
C1225 C1226 1.434 . S
C1226 C1217 1.429 . S
C1226 N1223 1.350 . S
C1226 C1225 1.434 . S
C1227 C1228 1.369 . S
C1227 C1229 1.419 . S
C1227 H1231 0.930 . S
C1228 C1227 1.369 . S
C1228 C1237 1.429 1_556 S
C1229 C1227 1.419 . S
C1229 C1230 1.363 . S
C1229 H1232 0.929 . S
C1230 C1229 1.363 . S
C1230 C1236 1.428 1_556 S
H1231 C1227 0.930 . S
H1232 C1229 0.929 . S
S1233 N1234 1.613 . S
S1233 N1235 1.610 . S
N1234 S1233 1.613 . S
N1234 C1237 1.350 . S
N1235 S1233 1.610 . S
N1235 C1236 1.351 . S
C1236 C1230 1.428 1_554 S
C1236 N1235 1.351 . S
C1236 C1237 1.434 . S
C1237 C1228 1.429 1_554 S
C1237 N1234 1.350 . S
C1237 C1236 1.434 . S
C1238 C1239 1.369 . S
C1238 C1240 1.419 . S
C1238 H1242 0.930 . S
C1239 C1238 1.369 . S
C1239 C1248 1.429 . S
C1240 C1238 1.419 . S
C1240 C1241 1.363 . S
C1240 H1243 0.929 . S
C1241 C1240 1.363 . S
C1241 C1247 1.428 . S
H1242 C1238 0.930 . S
H1243 C1240 0.929 . S
S1244 N1245 1.613 . S
S1244 N1246 1.610 . S
N1245 S1244 1.613 . S
N1245 C1248 1.350 . S
N1246 S1244 1.610 . S
N1246 C1247 1.351 . S
C1247 C1241 1.428 . S
C1247 N1246 1.351 . S
C1247 C1248 1.434 . S
C1248 C1239 1.429 . S
C1248 N1245 1.350 . S
C1248 C1247 1.434 . S
C1249 C1250 1.369 . S
C1249 C1251 1.419 . S
C1249 H1253 0.930 . S
C1250 C1249 1.369 . S
C1250 C1259 1.429 . S
C1251 C1249 1.419 . S
C1251 C1252 1.363 . S
C1251 H1254 0.929 . S
C1252 C1251 1.363 . S
C1252 C1258 1.428 . S
H1253 C1249 0.930 . S
H1254 C1251 0.929 . S
S1255 N1256 1.613 . S
S1255 N1257 1.610 . S
N1256 S1255 1.613 . S
N1256 C1259 1.350 . S
N1257 S1255 1.610 . S
N1257 C1258 1.351 . S
C1258 C1252 1.428 . S
C1258 N1257 1.351 . S
C1258 C1259 1.434 . S
C1259 C1250 1.429 . S
C1259 N1256 1.350 . S
C1259 C1258 1.434 . S
C1260 C1261 1.369 . S
C1260 C1262 1.419 . S
C1260 H1264 0.930 . S
C1261 C1260 1.369 . S
C1261 C1270 1.429 . S
C1262 C1260 1.419 . S
C1262 C1263 1.363 . S
C1262 H1265 0.929 . S
C1263 C1262 1.363 . S
C1263 C1269 1.428 . S
H1264 C1260 0.930 . S
H1265 C1262 0.929 . S
S1266 N1267 1.613 1_556 S
S1266 N1268 1.608 1_556 S
N1267 S1266 1.613 1_554 S
N1267 C1270 1.350 . S
N1268 S1266 1.608 1_554 S
N1268 C1269 1.354 . S
C1269 C1263 1.428 . S
C1269 N1268 1.354 . S
C1269 C1270 1.434 . S
C1270 C1261 1.429 . S
C1270 N1267 1.350 . S
C1270 C1269 1.434 . S
C1271 C1272 1.369 1_556 S
C1271 C1273 1.419 . S
C1271 H1275 0.930 . S
C1272 C1271 1.369 1_554 S
C1272 C1281 1.429 . S
C1273 C1271 1.419 . S
C1273 C1274 1.363 1_556 S
C1273 H1276 0.929 . S
C1274 C1273 1.363 1_554 S
C1274 C1280 1.428 . S
H1275 C1271 0.930 . S
H1276 C1273 0.929 . S
S1277 N1278 1.613 . S
S1277 N1279 1.610 . S
N1278 S1277 1.613 . S
N1278 C1281 1.350 . S
N1279 S1277 1.610 . S
N1279 C1280 1.351 . S
C1280 C1274 1.428 . S
C1280 N1279 1.351 . S
C1280 C1281 1.434 . S
C1281 C1272 1.429 . S
C1281 N1278 1.350 . S
C1281 C1280 1.434 . S
C1282 C1283 1.369 . S
C1282 C1284 1.419 . S
C1282 H1286 0.930 . S
C1283 C1282 1.369 . S
C1283 C1292 1.429 . S
C1284 C1282 1.419 . S
C1284 C1285 1.363 . S
C1284 H1287 0.929 . S
C1285 C1284 1.363 . S
C1285 C1291 1.428 . S
H1286 C1282 0.930 . S
H1287 C1284 0.929 . S
S1288 N1289 1.613 . S
S1288 N1290 1.610 . S
N1289 S1288 1.613 . S
N1289 C1292 1.350 . S
N1290 S1288 1.610 . S
N1290 C1291 1.351 . S
C1291 C1285 1.428 . S
C1291 N1290 1.351 . S
C1291 C1292 1.434 . S
C1292 C1283 1.429 . S
C1292 N1289 1.350 . S
C1292 C1291 1.434 . S
C1293 C1294 1.369 . S
C1293 C1295 1.419 . S
C1293 H1297 0.930 . S
C1294 C1293 1.369 . S
C1294 C1303 1.429 . S
C1295 C1293 1.419 . S
C1295 C1296 1.363 . S
C1295 H1298 0.929 . S
C1296 C1295 1.363 . S
C1296 C1302 1.428 . S
H1297 C1293 0.930 . S
H1298 C1295 0.929 . S
S1299 N1300 1.613 . S
S1299 N1301 1.610 . S
N1300 S1299 1.613 . S
N1300 C1303 1.350 . S
N1301 S1299 1.610 . S
N1301 C1302 1.351 . S
C1302 C1296 1.428 . S
C1302 N1301 1.351 . S
C1302 C1303 1.434 . S
C1303 C1294 1.429 . S
C1303 N1300 1.350 . S
C1303 C1302 1.434 . S
C1304 C1305 1.369 . S
C1304 C1306 1.419 . S
C1304 H1308 0.930 . S
C1305 C1304 1.369 . S
C1305 C1314 1.429 . S
C1306 C1304 1.419 . S
C1306 C1307 1.363 . S
C1306 H1309 0.929 . S
C1307 C1306 1.363 . S
C1307 C1313 1.428 . S
H1308 C1304 0.930 . S
H1309 C1306 0.929 . S
S1310 N1311 1.613 . S
S1310 N1312 1.610 . S
N1311 S1310 1.613 . S
N1311 C1314 1.350 . S
N1312 S1310 1.610 . S
N1312 C1313 1.351 . S
C1313 C1307 1.428 . S
C1313 N1312 1.351 . S
C1313 C1314 1.434 . S
C1314 C1305 1.429 . S
C1314 N1311 1.350 . S
C1314 C1313 1.434 . S
C1315 C1316 1.369 . S
C1315 C1317 1.419 . S
C1315 H1319 0.930 . S
C1316 C1315 1.369 . S
C1316 C1325 1.429 . S
C1317 C1315 1.419 . S
C1317 C1318 1.363 . S
C1317 H1320 0.929 . S
C1318 C1317 1.363 . S
C1318 C1324 1.428 . S
H1319 C1315 0.930 . S
H1320 C1317 0.929 . S
S1321 N1322 1.613 . S
S1321 N1323 1.610 . S
N1322 S1321 1.613 . S
N1322 C1325 1.350 . S
N1323 S1321 1.610 . S
N1323 C1324 1.351 . S
C1324 C1318 1.428 . S
C1324 N1323 1.351 . S
C1324 C1325 1.434 . S
C1325 C1316 1.429 . S
C1325 N1322 1.350 . S
C1325 C1324 1.434 . S
C1326 C1327 1.369 . S
C1326 C1328 1.419 . S
C1326 H1330 0.930 . S
C1327 C1326 1.369 . S
C1327 C1336 1.429 . S
C1328 C1326 1.419 . S
C1328 C1329 1.363 . S
C1328 H1331 0.929 . S
C1329 C1328 1.363 . S
C1329 C1335 1.428 . S
H1330 C1326 0.930 . S
H1331 C1328 0.929 . S
S1332 N1333 1.613 . S
S1332 N1334 1.610 . S
N1333 S1332 1.613 . S
N1333 C1336 1.350 . S
N1334 S1332 1.610 . S
N1334 C1335 1.351 . S
C1335 C1329 1.428 . S
C1335 N1334 1.351 . S
C1335 C1336 1.434 . S
C1336 C1327 1.429 . S
C1336 N1333 1.350 . S
C1336 C1335 1.434 . S
C1337 C1338 1.369 . S
C1337 C1339 1.419 . S
C1337 H1341 0.930 . S
C1338 C1337 1.369 . S
C1338 C1347 1.429 . S
C1339 C1337 1.419 . S
C1339 C1340 1.363 . S
C1339 H1342 0.929 . S
C1340 C1339 1.363 . S
C1340 C1346 1.428 . S
H1341 C1337 0.930 . S
H1342 C1339 0.929 . S
S1343 N1344 1.613 . S
S1343 N1345 1.610 . S
N1344 S1343 1.613 . S
N1344 C1347 1.350 . S
N1345 S1343 1.610 . S
N1345 C1346 1.351 . S
C1346 C1340 1.428 . S
C1346 N1345 1.351 . S
C1346 C1347 1.434 . S
C1347 C1338 1.429 . S
C1347 N1344 1.350 . S
C1347 C1346 1.434 . S
C1348 C1349 1.369 . S
C1348 C1350 1.419 . S
C1348 H1352 0.930 . S
C1349 C1348 1.369 . S
C1349 C1358 1.429 . S
C1350 C1348 1.419 . S
C1350 C1351 1.363 . S
C1350 H1353 0.929 . S
C1351 C1350 1.363 . S
C1351 C1357 1.428 . S
H1352 C1348 0.930 . S
H1353 C1350 0.929 . S
S1354 N1355 1.613 . S
S1354 N1356 1.610 . S
N1355 S1354 1.613 . S
N1355 C1358 1.350 . S
N1356 S1354 1.610 . S
N1356 C1357 1.351 . S
C1357 C1351 1.428 . S
C1357 N1356 1.351 . S
C1357 C1358 1.434 . S
C1358 C1349 1.429 . S
C1358 N1355 1.350 . S
C1358 C1357 1.434 . S
C1359 C1360 1.369 . S
C1359 C1361 1.419 . S
C1359 H1363 0.930 . S
C1360 C1359 1.369 . S
C1360 C1369 1.429 . S
C1361 C1359 1.419 . S
C1361 C1362 1.363 . S
C1361 H1364 0.929 . S
C1362 C1361 1.363 . S
C1362 C1368 1.428 . S
H1363 C1359 0.930 . S
H1364 C1361 0.929 . S
S1365 N1366 1.613 . S
S1365 N1367 1.610 . S
N1366 S1365 1.613 . S
N1366 C1369 1.350 . S
N1367 S1365 1.610 . S
N1367 C1368 1.351 . S
C1368 C1362 1.428 . S
C1368 N1367 1.351 . S
C1368 C1369 1.434 . S
C1369 C1360 1.429 . S
C1369 N1366 1.350 . S
C1369 C1368 1.434 . S
C1370 C1371 1.369 . S
C1370 C1372 1.419 . S
C1370 H1374 0.930 . S
C1371 C1370 1.369 . S
C1371 C1380 1.429 . S
C1372 C1370 1.419 . S
C1372 C1373 1.363 . S
C1372 H1375 0.929 . S
C1373 C1372 1.363 . S
C1373 C1379 1.428 . S
H1374 C1370 0.930 . S
H1375 C1372 0.929 . S
S1376 N1377 1.613 . S
S1376 N1378 1.610 . S
N1377 S1376 1.613 . S
N1377 C1380 1.350 . S
N1378 S1376 1.610 . S
N1378 C1379 1.351 . S
C1379 C1373 1.428 . S
C1379 N1378 1.351 . S
C1379 C1380 1.434 . S
C1380 C1371 1.429 . S
C1380 N1377 1.350 . S
C1380 C1379 1.434 . S
C1381 C1382 1.369 . S
C1381 C1383 1.419 . S
C1381 H1385 0.930 . S
C1382 C1381 1.369 . S
C1382 C1391 1.429 . S
C1383 C1381 1.419 . S
C1383 C1384 1.363 . S
C1383 H1386 0.929 . S
C1384 C1383 1.363 . S
C1384 C1390 1.428 . S
H1385 C1381 0.930 . S
H1386 C1383 0.929 . S
S1387 N1388 1.613 . S
S1387 N1389 1.610 . S
N1388 S1387 1.613 . S
N1388 C1391 1.350 . S
N1389 S1387 1.610 . S
N1389 C1390 1.351 . S
C1390 C1384 1.428 . S
C1390 N1389 1.351 . S
C1390 C1391 1.434 . S
C1391 C1382 1.429 . S
C1391 N1388 1.350 . S
C1391 C1390 1.434 . S
C1392 C1393 1.369 . S
C1392 C1394 1.419 . S
C1392 H1396 0.930 . S
C1393 C1392 1.369 . S
C1393 C1402 1.429 . S
C1394 C1392 1.419 . S
C1394 C1395 1.363 . S
C1394 H1397 0.929 . S
C1395 C1394 1.363 . S
C1395 C1401 1.428 . S
H1396 C1392 0.930 . S
H1397 C1394 0.929 . S
S1398 N1399 1.613 . S
S1398 N1400 1.610 1_556 S
N1399 S1398 1.613 . S
N1399 C1402 1.350 1_556 S
N1400 S1398 1.610 1_554 S
N1400 C1401 1.351 . S
C1401 C1395 1.428 . S
C1401 N1400 1.351 . S
C1401 C1402 1.434 . S
C1402 C1393 1.429 . S
C1402 N1399 1.350 1_554 S
C1402 C1401 1.434 . S
C1403 C1404 1.369 . S
C1403 C1405 1.419 . S
C1403 H1407 0.930 . S
C1404 C1403 1.369 . S
C1404 C1413 1.429 1_554 S
C1405 C1403 1.419 . S
C1405 C1406 1.363 . S
C1405 H1408 0.929 . S
C1406 C1405 1.363 . S
C1406 C1412 1.428 1_554 S
H1407 C1403 0.930 . S
H1408 C1405 0.929 . S
S1409 N1410 1.613 . S
S1409 N1411 1.610 . S
N1410 S1409 1.613 . S
N1410 C1413 1.350 . S
N1411 S1409 1.610 . S
N1411 C1412 1.351 . S
C1412 C1406 1.428 1_556 S
C1412 N1411 1.351 . S
C1412 C1413 1.434 . S
C1413 C1404 1.429 1_556 S
C1413 N1410 1.350 . S
C1413 C1412 1.434 . S
C1414 C1415 1.369 . S
C1414 C1416 1.419 . S
C1414 H1418 0.930 . S
C1415 C1414 1.369 . S
C1415 C1424 1.429 . S
C1416 C1414 1.419 . S
C1416 C1417 1.363 . S
C1416 H1419 0.929 . S
C1417 C1416 1.363 . S
C1417 C1423 1.428 . S
H1418 C1414 0.930 . S
H1419 C1416 0.929 . S
S1420 N1421 1.613 . S
S1420 N1422 1.610 . S
N1421 S1420 1.613 . S
N1421 C1424 1.350 . S
N1422 S1420 1.610 . S
N1422 C1423 1.351 . S
C1423 C1417 1.428 . S
C1423 N1422 1.351 . S
C1423 C1424 1.434 . S
C1424 C1415 1.429 . S
C1424 N1421 1.350 . S
C1424 C1423 1.434 . S
C1425 C1426 1.369 . S
C1425 C1427 1.419 . S
C1425 H1429 0.930 . S
C1426 C1425 1.369 . S
C1426 C1435 1.429 . S
C1427 C1425 1.419 . S
C1427 C1428 1.363 . S
C1427 H1430 0.929 . S
C1428 C1427 1.363 . S
C1428 C1434 1.428 . S
H1429 C1425 0.930 . S
H1430 C1427 0.929 . S
S1431 N1432 1.613 . S
S1431 N1433 1.610 . S
N1432 S1431 1.613 . S
N1432 C1435 1.350 . S
N1433 S1431 1.610 . S
N1433 C1434 1.351 . S
C1434 C1428 1.428 . S
C1434 N1433 1.351 . S
C1434 C1435 1.434 . S
C1435 C1426 1.429 . S
C1435 N1432 1.350 . S
C1435 C1434 1.434 . S
C1436 C1437 1.369 . S
C1436 C1438 1.419 . S
C1436 H1440 0.930 . S
C1437 C1436 1.369 . S
C1437 C1446 1.426 1_556 S
C1438 C1436 1.419 . S
C1438 C1439 1.363 . S
C1438 H1441 0.929 . S
C1439 C1438 1.363 . S
C1439 C1445 1.428 . S
H1440 C1436 0.930 . S
H1441 C1438 0.929 . S
S1442 N1443 1.613 . S
S1442 N1444 1.610 1_554 S
N1443 S1442 1.613 . S
N1443 C1446 1.361 . S
N1444 S1442 1.610 1_556 S
N1444 C1445 1.351 . S
C1445 C1439 1.428 . S
C1445 N1444 1.351 . S
C1445 C1446 1.427 1_556 S
C1446 C1437 1.426 1_554 S
C1446 N1443 1.361 . S
C1446 C1445 1.427 1_554 S
C1447 C1448 1.369 . S
C1447 C1449 1.419 . S
C1447 H1451 0.930 . S
C1448 C1447 1.369 . S
C1448 C1457 1.429 1_556 S
C1449 C1447 1.419 . S
C1449 C1450 1.363 . S
C1449 H1452 0.929 . S
C1450 C1449 1.363 . S
C1450 C1456 1.428 1_556 S
H1451 C1447 0.930 . S
H1452 C1449 0.929 . S
S1453 N1454 1.613 . S
S1453 N1455 1.610 . S
N1454 S1453 1.613 . S
N1454 C1457 1.350 . S
N1455 S1453 1.610 . S
N1455 C1456 1.351 . S
C1456 C1450 1.428 1_554 S
C1456 N1455 1.351 . S
C1456 C1457 1.434 . S
C1457 C1448 1.429 1_554 S
C1457 N1454 1.350 . S
C1457 C1456 1.434 . S
C1458 C1459 1.369 . S
C1458 C1460 1.419 . S
C1458 H1462 0.930 . S
C1459 C1458 1.369 . S
C1459 C1468 1.429 . S
C1460 C1458 1.419 . S
C1460 C1461 1.363 . S
C1460 H1463 0.929 . S
C1461 C1460 1.363 . S
C1461 C1467 1.428 . S
H1462 C1458 0.930 . S
H1463 C1460 0.929 . S
S1464 N1465 1.613 . S
S1464 N1466 1.610 . S
N1465 S1464 1.613 . S
N1465 C1468 1.350 . S
N1466 S1464 1.610 . S
N1466 C1467 1.351 . S
C1467 C1461 1.428 . S
C1467 N1466 1.351 . S
C1467 C1468 1.434 . S
C1468 C1459 1.429 . S
C1468 N1465 1.350 . S
C1468 C1467 1.434 . S
C1469 C1470 1.369 . S
C1469 C1471 1.419 . S
C1469 H1473 0.930 . S
C1470 C1469 1.369 . S
C1470 C1479 1.429 . S
C1471 C1469 1.419 . S
C1471 C1472 1.363 . S
C1471 H1474 0.929 . S
C1472 C1471 1.363 . S
C1472 C1478 1.428 . S
H1473 C1469 0.930 . S
H1474 C1471 0.929 . S
S1475 N1476 1.613 . S
S1475 N1477 1.610 . S
N1476 S1475 1.613 . S
N1476 C1479 1.350 . S
N1477 S1475 1.610 . S
N1477 C1478 1.351 . S
C1478 C1472 1.428 . S
C1478 N1477 1.351 . S
C1478 C1479 1.434 . S
C1479 C1470 1.429 . S
C1479 N1476 1.350 . S
C1479 C1478 1.434 . S
C1480 C1481 1.369 . S
C1480 C1482 1.419 . S
C1480 H1484 0.930 . S
C1481 C1480 1.369 . S
C1481 C1490 1.429 . S
C1482 C1480 1.419 . S
C1482 C1483 1.363 . S
C1482 H1485 0.929 . S
C1483 C1482 1.363 . S
C1483 C1489 1.428 . S
H1484 C1480 0.930 . S
H1485 C1482 0.929 . S
S1486 N1487 1.613 . S
S1486 N1488 1.610 . S
N1487 S1486 1.613 . S
N1487 C1490 1.350 . S
N1488 S1486 1.610 . S
N1488 C1489 1.351 . S
C1489 C1483 1.428 . S
C1489 N1488 1.351 . S
C1489 C1490 1.434 . S
C1490 C1481 1.429 . S
C1490 N1487 1.350 . S
C1490 C1489 1.434 . S
C1491 C1492 1.369 . S
C1491 C1493 1.419 . S
C1491 H1495 0.930 . S
C1492 C1491 1.369 . S
C1492 C1501 1.429 . S
C1493 C1491 1.419 . S
C1493 C1494 1.363 . S
C1493 H1496 0.929 . S
C1494 C1493 1.363 . S
C1494 C1500 1.428 . S
H1495 C1491 0.930 . S
H1496 C1493 0.929 . S
S1497 N1498 1.613 . S
S1497 N1499 1.610 . S
N1498 S1497 1.613 . S
N1498 C1501 1.350 . S
N1499 S1497 1.610 . S
N1499 C1500 1.351 . S
C1500 C1494 1.428 . S
C1500 N1499 1.351 . S
C1500 C1501 1.434 . S
C1501 C1492 1.429 . S
C1501 N1498 1.350 . S
C1501 C1500 1.434 . S
C1502 C1503 1.369 . S
C1502 C1504 1.419 . S
C1502 H1506 0.930 . S
C1503 C1502 1.369 . S
C1503 C1512 1.429 . S
C1504 C1502 1.419 . S
C1504 C1505 1.363 . S
C1504 H1507 0.929 . S
C1505 C1504 1.363 . S
C1505 C1511 1.428 . S
H1506 C1502 0.930 . S
H1507 C1504 0.929 . S
S1508 N1509 1.613 . S
S1508 N1510 1.610 . S
N1509 S1508 1.613 . S
N1509 C1512 1.350 . S
N1510 S1508 1.610 . S
N1510 C1511 1.351 . S
C1511 C1505 1.428 . S
C1511 N1510 1.351 . S
C1511 C1512 1.434 . S
C1512 C1503 1.429 . S
C1512 N1509 1.350 . S
C1512 C1511 1.434 . S
C1513 C1514 1.369 . S
C1513 C1515 1.419 . S
C1513 H1517 0.930 1_565 S
C1514 C1513 1.369 . S
C1514 C1523 1.429 . S
C1515 C1513 1.419 . S
C1515 C1516 1.363 . S
C1515 H1518 0.929 . S
C1516 C1515 1.363 . S
C1516 C1522 1.428 . S
H1517 C1513 0.930 1_545 S
H1518 C1515 0.929 . S
S1519 N1520 1.613 . S
S1519 N1521 1.610 . S
N1520 S1519 1.613 . S
N1520 C1523 1.350 . S
N1521 S1519 1.610 . S
N1521 C1522 1.351 . S
C1522 C1516 1.428 . S
C1522 N1521 1.351 . S
C1522 C1523 1.434 . S
C1523 C1514 1.429 . S
C1523 N1520 1.350 . S
C1523 C1522 1.434 . S
C1524 C1525 1.369 . S
C1524 C1526 1.419 . S
C1524 H1528 0.930 . S
C1525 C1524 1.369 . S
C1525 C1534 1.429 . S
C1526 C1524 1.419 . S
C1526 C1527 1.363 . S
C1526 H1529 0.929 . S
C1527 C1526 1.363 . S
C1527 C1533 1.428 . S
H1528 C1524 0.930 . S
H1529 C1526 0.929 . S
S1530 N1531 1.613 . S
S1530 N1532 1.610 1_565 S
N1531 S1530 1.613 . S
N1531 C1534 1.350 1_565 S
N1532 S1530 1.610 1_545 S
N1532 C1533 1.351 . S
C1533 C1527 1.428 . S
C1533 N1532 1.351 . S
C1533 C1534 1.434 . S
C1534 C1525 1.429 . S
C1534 N1531 1.350 1_545 S
C1534 C1533 1.434 . S
C1535 C1536 1.369 . S
C1535 C1537 1.419 . S
C1535 H1539 0.930 . S
C1536 C1535 1.369 . S
C1536 C1545 1.429 . S
C1537 C1535 1.419 . S
C1537 C1538 1.363 . S
C1537 H1540 0.929 . S
C1538 C1537 1.363 . S
C1538 C1544 1.428 . S
H1539 C1535 0.930 . S
H1540 C1537 0.929 . S
S1541 N1542 1.613 . S
S1541 N1543 1.610 . S
N1542 S1541 1.613 . S
N1542 C1545 1.350 . S
N1543 S1541 1.610 . S
N1543 C1544 1.351 . S
C1544 C1538 1.428 . S
C1544 N1543 1.351 . S
C1544 C1545 1.434 . S
C1545 C1536 1.429 . S
C1545 N1542 1.350 . S
C1545 C1544 1.434 . S
C1546 C1547 1.369 . S
C1546 C1548 1.419 . S
C1546 H1550 0.930 . S
C1547 C1546 1.369 . S
C1547 C1556 1.429 . S
C1548 C1546 1.419 . S
C1548 C1549 1.363 . S
C1548 H1551 0.929 . S
C1549 C1548 1.363 . S
C1549 C1555 1.428 . S
H1550 C1546 0.930 . S
H1551 C1548 0.929 . S
S1552 N1553 1.613 . S
S1552 N1554 1.610 . S
N1553 S1552 1.613 . S
N1553 C1556 1.350 . S
N1554 S1552 1.610 . S
N1554 C1555 1.351 . S
C1555 C1549 1.428 . S
C1555 N1554 1.351 . S
C1555 C1556 1.434 . S
C1556 C1547 1.429 . S
C1556 N1553 1.350 . S
C1556 C1555 1.434 . S
C1557 C1558 1.369 . S
C1557 C1559 1.419 . S
C1557 H1561 0.930 . S
C1558 C1557 1.369 . S
C1558 C1567 1.429 . S
C1559 C1557 1.419 . S
C1559 C1560 1.363 . S
C1559 H1562 0.929 . S
C1560 C1559 1.363 . S
C1560 C1566 1.428 . S
H1561 C1557 0.930 . S
H1562 C1559 0.929 . S
S1563 N1564 1.613 . S
S1563 N1565 1.610 . S
N1564 S1563 1.613 . S
N1564 C1567 1.350 . S
N1565 S1563 1.610 . S
N1565 C1566 1.351 . S
C1566 C1560 1.428 . S
C1566 N1565 1.351 . S
C1566 C1567 1.434 . S
C1567 C1558 1.429 . S
C1567 N1564 1.350 . S
C1567 C1566 1.434 . S
C1568 C1569 1.369 . S
C1568 C1570 1.419 . S
C1568 H1572 0.930 . S
C1569 C1568 1.369 . S
C1569 C1578 1.429 . S
C1570 C1568 1.419 . S
C1570 C1571 1.363 . S
C1570 H1573 0.929 . S
C1571 C1570 1.363 . S
C1571 C1577 1.428 . S
H1572 C1568 0.930 . S
H1573 C1570 0.929 . S
S1574 N1575 1.613 . S
S1574 N1576 1.610 . S
N1575 S1574 1.613 . S
N1575 C1578 1.350 . S
N1576 S1574 1.610 . S
N1576 C1577 1.351 . S
C1577 C1571 1.428 . S
C1577 N1576 1.351 . S
C1577 C1578 1.434 . S
C1578 C1569 1.429 . S
C1578 N1575 1.350 . S
C1578 C1577 1.434 . S
C1579 C1580 1.369 . S
C1579 C1581 1.419 . S
C1579 H1583 0.930 . S
C1580 C1579 1.369 . S
C1580 C1589 1.429 . S
C1581 C1579 1.419 . S
C1581 C1582 1.363 . S
C1581 H1584 0.929 . S
C1582 C1581 1.363 . S
C1582 C1588 1.428 . S
H1583 C1579 0.930 . S
H1584 C1581 0.929 . S
S1585 N1586 1.613 . S
S1585 N1587 1.610 . S
N1586 S1585 1.613 . S
N1586 C1589 1.350 . S
N1587 S1585 1.610 . S
N1587 C1588 1.351 . S
C1588 C1582 1.428 . S
C1588 N1587 1.351 . S
C1588 C1589 1.434 . S
C1589 C1580 1.429 . S
C1589 N1586 1.350 . S
C1589 C1588 1.434 . S
C1590 C1591 1.369 . S
C1590 C1592 1.419 . S
C1590 H1594 0.930 . S
C1591 C1590 1.369 . S
C1591 C1600 1.429 . S
C1592 C1590 1.419 . S
C1592 C1593 1.363 . S
C1592 H1595 0.929 . S
C1593 C1592 1.363 . S
C1593 C1599 1.428 . S
H1594 C1590 0.930 . S
H1595 C1592 0.929 . S
S1596 N1597 1.613 . S
S1596 N1598 1.610 . S
N1597 S1596 1.613 . S
N1597 C1600 1.350 . S
N1598 S1596 1.610 . S
N1598 C1599 1.351 . S
C1599 C1593 1.428 . S
C1599 N1598 1.351 . S
C1599 C1600 1.434 . S
C1600 C1591 1.429 . S
C1600 N1597 1.350 . S
C1600 C1599 1.434 . S
C1601 C1602 1.369 . S
C1601 C1603 1.419 . S
C1601 H1605 0.930 . S
C1602 C1601 1.369 . S
C1602 C1611 1.429 . S
C1603 C1601 1.419 . S
C1603 C1604 1.363 . S
C1603 H1606 0.929 . S
C1604 C1603 1.363 . S
C1604 C1610 1.428 . S
H1605 C1601 0.930 . S
H1606 C1603 0.929 . S
S1607 N1608 1.613 . S
S1607 N1609 1.610 . S
N1608 S1607 1.613 . S
N1608 C1611 1.350 . S
N1609 S1607 1.610 . S
N1609 C1610 1.351 . S
C1610 C1604 1.428 . S
C1610 N1609 1.351 . S
C1610 C1611 1.434 . S
C1611 C1602 1.429 . S
C1611 N1608 1.350 . S
C1611 C1610 1.434 . S
C1612 C1613 1.369 . S
C1612 C1614 1.419 . S
C1612 H1616 0.930 . S
C1613 C1612 1.369 . S
C1613 C1622 1.429 . S
C1614 C1612 1.419 . S
C1614 C1615 1.363 . S
C1614 H1617 0.929 . S
C1615 C1614 1.363 . S
C1615 C1621 1.428 . S
H1616 C1612 0.930 . S
H1617 C1614 0.929 . S
S1618 N1619 1.613 . S
S1618 N1620 1.610 . S
N1619 S1618 1.613 . S
N1619 C1622 1.350 . S
N1620 S1618 1.610 . S
N1620 C1621 1.351 . S
C1621 C1615 1.428 . S
C1621 N1620 1.351 . S
C1621 C1622 1.434 . S
C1622 C1613 1.429 . S
C1622 N1619 1.350 . S
C1622 C1621 1.434 . S
C1623 C1624 1.369 . S
C1623 C1625 1.419 . S
C1623 H1627 0.930 . S
C1624 C1623 1.369 . S
C1624 C1633 1.429 . S
C1625 C1623 1.419 . S
C1625 C1626 1.363 . S
C1625 H1628 0.929 . S
C1626 C1625 1.363 . S
C1626 C1632 1.428 . S
H1627 C1623 0.930 . S
H1628 C1625 0.929 . S
S1629 N1630 1.613 . S
S1629 N1631 1.610 . S
N1630 S1629 1.613 . S
N1630 C1633 1.350 . S
N1631 S1629 1.610 . S
N1631 C1632 1.351 . S
C1632 C1626 1.428 . S
C1632 N1631 1.351 . S
C1632 C1633 1.434 . S
C1633 C1624 1.429 . S
C1633 N1630 1.350 . S
C1633 C1632 1.434 . S
C1634 C1635 1.369 . S
C1634 C1636 1.419 . S
C1634 H1638 0.930 . S
C1635 C1634 1.369 . S
C1635 C1644 1.429 . S
C1636 C1634 1.419 . S
C1636 C1637 1.363 . S
C1636 H1639 0.929 . S
C1637 C1636 1.363 . S
C1637 C1643 1.428 . S
H1638 C1634 0.930 . S
H1639 C1636 0.929 . S
S1640 N1641 1.613 . S
S1640 N1642 1.610 . S
N1641 S1640 1.613 . S
N1641 C1644 1.350 . S
N1642 S1640 1.610 . S
N1642 C1643 1.351 . S
C1643 C1637 1.428 . S
C1643 N1642 1.351 . S
C1643 C1644 1.434 . S
C1644 C1635 1.429 . S
C1644 N1641 1.350 . S
C1644 C1643 1.434 . S
C1645 C1646 1.369 . S
C1645 C1647 1.419 . S
C1645 H1649 0.930 . S
C1646 C1645 1.369 . S
C1646 C1655 1.429 . S
C1647 C1645 1.419 . S
C1647 C1648 1.363 . S
C1647 H1650 0.929 . S
C1648 C1647 1.363 . S
C1648 C1654 1.428 . S
H1649 C1645 0.930 . S
H1650 C1647 0.929 . S
S1651 N1652 1.613 . S
S1651 N1653 1.610 . S
N1652 S1651 1.613 . S
N1652 C1655 1.350 . S
N1653 S1651 1.610 . S
N1653 C1654 1.351 . S
C1654 C1648 1.428 . S
C1654 N1653 1.351 . S
C1654 C1655 1.434 . S
C1655 C1646 1.429 . S
C1655 N1652 1.350 . S
C1655 C1654 1.434 . S
C1656 C1657 1.369 . S
C1656 C1658 1.419 . S
C1656 H1660 0.930 1_565 S
C1657 C1656 1.369 . S
C1657 C1666 1.429 1_554 S
C1658 C1656 1.419 . S
C1658 C1659 1.363 . S
C1658 H1661 0.929 . S
C1659 C1658 1.363 . S
C1659 C1665 1.428 . S
H1660 C1656 0.930 1_545 S
H1661 C1658 0.929 . S
S1662 N1663 1.613 . S
S1662 N1664 1.610 . S
N1663 S1662 1.613 . S
N1663 C1666 1.350 . S
N1664 S1662 1.610 . S
N1664 C1665 1.351 1_556 S
C1665 C1659 1.428 . S
C1665 N1664 1.351 1_554 S
C1665 C1666 1.434 1_554 S
C1666 C1657 1.429 1_556 S
C1666 N1663 1.350 . S
C1666 C1665 1.434 1_556 S
C1667 C1668 1.369 1_556 S
C1667 C1669 1.419 . S
C1667 H1671 0.930 . S
C1668 C1667 1.369 1_554 S
C1668 C1677 1.429 . S
C1669 C1667 1.419 . S
C1669 C1670 1.363 1_556 S
C1669 H1672 0.929 . S
C1670 C1669 1.363 1_554 S
C1670 C1676 1.428 . S
H1671 C1667 0.930 . S
H1672 C1669 0.929 . S
S1673 N1674 1.613 . S
S1673 N1675 1.610 . S
N1674 S1673 1.613 . S
N1674 C1677 1.350 . S
N1675 S1673 1.610 . S
N1675 C1676 1.351 . S
C1676 C1670 1.428 . S
C1676 N1675 1.351 . S
C1676 C1677 1.434 . S
C1677 C1668 1.429 . S
C1677 N1674 1.350 . S
C1677 C1676 1.434 . S
C1678 C1679 1.369 . S
C1678 C1680 1.419 . S
C1678 H1682 0.930 . S
C1679 C1678 1.369 . S
C1679 C1688 1.429 . S
C1680 C1678 1.419 . S
C1680 C1681 1.363 . S
C1680 H1683 0.929 . S
C1681 C1680 1.363 . S
C1681 C1687 1.428 . S
H1682 C1678 0.930 . S
H1683 C1680 0.929 . S
S1684 N1685 1.613 . S
S1684 N1686 1.610 . S
N1685 S1684 1.613 . S
N1685 C1688 1.350 . S
N1686 S1684 1.610 . S
N1686 C1687 1.351 . S
C1687 C1681 1.428 . S
C1687 N1686 1.351 . S
C1687 C1688 1.434 . S
C1688 C1679 1.429 . S
C1688 N1685 1.350 . S
C1688 C1687 1.434 . S
C1689 C1690 1.369 . S
C1689 C1691 1.419 . S
C1689 H1693 0.930 . S
C1690 C1689 1.369 . S
C1690 C1699 1.429 . S
C1691 C1689 1.419 . S
C1691 C1692 1.363 . S
C1691 H1694 0.929 1_565 S
C1692 C1691 1.363 . S
C1692 C1698 1.428 . S
H1693 C1689 0.930 . S
H1694 C1691 0.929 1_545 S
S1695 N1696 1.613 . S
S1695 N1697 1.610 . S
N1696 S1695 1.613 . S
N1696 C1699 1.350 . S
N1697 S1695 1.610 . S
N1697 C1698 1.351 . S
C1698 C1692 1.428 . S
C1698 N1697 1.351 . S
C1698 C1699 1.434 . S
C1699 C1690 1.429 . S
C1699 N1696 1.350 . S
C1699 C1698 1.434 . S
C1700 C1701 1.369 . S
C1700 C1702 1.419 1_556 S
C1700 H1704 0.930 1_556 S
C1701 C1700 1.369 . S
C1701 C1710 1.429 . S
C1702 C1700 1.419 1_554 S
C1702 C1703 1.363 1_554 S
C1702 H1705 0.929 . S
C1703 C1702 1.363 1_556 S
C1703 C1709 1.428 . S
H1704 C1700 0.930 1_554 S
H1705 C1702 0.929 . S
S1706 N1707 1.613 1_565 S
S1706 N1708 1.610 . S
N1707 S1706 1.613 1_545 S
N1707 C1710 1.350 . S
N1708 S1706 1.610 . S
N1708 C1709 1.351 1_565 S
C1709 C1703 1.428 . S
C1709 N1708 1.351 1_545 S
C1709 C1710 1.434 . S
C1710 C1701 1.429 . S
C1710 N1707 1.350 . S
C1710 C1709 1.434 . S
C1711 C1712 1.369 . S
C1711 C1713 1.419 1_556 S
C1711 H1715 0.930 . S
C1712 C1711 1.369 . S
C1712 C1721 1.429 . S
C1713 C1711 1.419 1_554 S
C1713 C1714 1.363 1_554 S
C1713 H1716 0.929 . S
C1714 C1713 1.363 1_556 S
C1714 C1720 1.428 . S
H1715 C1711 0.930 . S
H1716 C1713 0.929 . S
S1717 N1718 1.613 . S
S1717 N1719 1.610 . S
N1718 S1717 1.613 . S
N1718 C1721 1.350 . S
N1719 S1717 1.610 . S
N1719 C1720 1.351 . S
C1720 C1714 1.428 . S
C1720 N1719 1.351 . S
C1720 C1721 1.434 . S
C1721 C1712 1.429 . S
C1721 N1718 1.350 . S
C1721 C1720 1.434 . S
C1722 C1723 1.369 . S
C1722 C1724 1.419 . S
C1722 H1726 0.930 . S
C1723 C1722 1.369 . S
C1723 C1732 1.429 . S
C1724 C1722 1.419 . S
C1724 C1725 1.363 . S
C1724 H1727 0.929 . S
C1725 C1724 1.363 . S
C1725 C1731 1.428 . S
H1726 C1722 0.930 . S
H1727 C1724 0.929 . S
S1728 N1729 1.613 . S
S1728 N1730 1.610 . S
N1729 S1728 1.613 . S
N1729 C1732 1.350 . S
N1730 S1728 1.610 . S
N1730 C1731 1.351 . S
C1731 C1725 1.428 . S
C1731 N1730 1.351 . S
C1731 C1732 1.434 . S
C1732 C1723 1.429 . S
C1732 N1729 1.350 . S
C1732 C1731 1.434 . S
C1733 C1734 1.369 . S
C1733 C1735 1.419 . S
C1733 H1737 0.930 . S
C1734 C1733 1.369 . S
C1734 C1743 1.429 . S
C1735 C1733 1.419 . S
C1735 C1736 1.363 . S
C1735 H1738 0.929 . S
C1736 C1735 1.363 . S
C1736 C1742 1.428 . S
H1737 C1733 0.930 . S
H1738 C1735 0.929 . S
S1739 N1740 1.613 . S
S1739 N1741 1.610 . S
N1740 S1739 1.613 . S
N1740 C1743 1.350 . S
N1741 S1739 1.610 . S
N1741 C1742 1.351 . S
C1742 C1736 1.428 . S
C1742 N1741 1.351 . S
C1742 C1743 1.434 . S
C1743 C1734 1.429 . S
C1743 N1740 1.350 . S
C1743 C1742 1.434 . S
C1744 C1745 1.369 1_455 S
C1744 C1746 1.419 . S
C1744 H1748 0.930 . S
C1745 C1744 1.369 1_655 S
C1745 C1754 1.429 . S
C1746 C1744 1.419 . S
C1746 C1747 1.363 1_455 S
C1746 H1749 0.929 . S
C1747 C1746 1.363 1_655 S
C1747 C1753 1.428 . S
H1748 C1744 0.930 . S
H1749 C1746 0.929 . S
S1750 N1751 1.613 . S
S1750 N1752 1.610 . S
N1751 S1750 1.613 . S
N1751 C1754 1.350 . S
N1752 S1750 1.610 . S
N1752 C1753 1.351 . S
C1753 C1747 1.428 . S
C1753 N1752 1.351 . S
C1753 C1754 1.434 . S
C1754 C1745 1.429 . S
C1754 N1751 1.350 . S
C1754 C1753 1.434 . S
C1755 C1756 1.369 . S
C1755 C1757 1.419 . S
C1755 H1759 0.930 . S
C1756 C1755 1.369 . S
C1756 C1765 1.429 . S
C1757 C1755 1.419 . S
C1757 C1758 1.363 . S
C1757 H1760 0.929 . S
C1758 C1757 1.363 . S
C1758 C1764 1.428 . S
H1759 C1755 0.930 . S
H1760 C1757 0.929 . S
S1761 N1762 1.613 . S
S1761 N1763 1.610 . S
N1762 S1761 1.613 . S
N1762 C1765 1.350 . S
N1763 S1761 1.610 . S
N1763 C1764 1.351 . S
C1764 C1758 1.428 . S
C1764 N1763 1.351 . S
C1764 C1765 1.434 . S
C1765 C1756 1.429 . S
C1765 N1762 1.350 . S
C1765 C1764 1.434 . S
C1766 C1767 1.369 . S
C1766 C1768 1.419 . S
C1766 H1770 0.930 . S
C1767 C1766 1.369 . S
C1767 C1776 1.429 1_655 S
C1768 C1766 1.419 . S
C1768 C1769 1.363 . S
C1768 H1771 0.929 . S
C1769 C1768 1.363 . S
C1769 C1775 1.428 1_655 S
H1770 C1766 0.930 . S
H1771 C1768 0.929 . S
S1772 N1773 1.613 . S
S1772 N1774 1.610 . S
N1773 S1772 1.613 . S
N1773 C1776 1.350 . S
N1774 S1772 1.610 . S
N1774 C1775 1.351 . S
C1775 C1769 1.428 1_455 S
C1775 N1774 1.351 . S
C1775 C1776 1.434 . S
C1776 C1767 1.429 1_455 S
C1776 N1773 1.350 . S
C1776 C1775 1.434 . S
C1777 C1778 1.369 . S
C1777 C1779 1.419 . S
C1777 H1781 0.930 . S
C1778 C1777 1.369 . S
C1778 C1787 1.429 . S
C1779 C1777 1.419 . S
C1779 C1780 1.363 . S
C1779 H1782 0.929 . S
C1780 C1779 1.363 . S
C1780 C1786 1.428 . S
H1781 C1777 0.930 . S
H1782 C1779 0.929 . S
S1783 N1784 1.613 . S
S1783 N1785 1.610 . S
N1784 S1783 1.613 . S
N1784 C1787 1.350 . S
N1785 S1783 1.610 . S
N1785 C1786 1.351 . S
C1786 C1780 1.428 . S
C1786 N1785 1.351 . S
C1786 C1787 1.434 . S
C1787 C1778 1.429 . S
C1787 N1784 1.350 . S
C1787 C1786 1.434 . S
C1788 C1789 1.369 . S
C1788 C1790 1.419 . S
C1788 H1792 0.930 . S
C1789 C1788 1.369 . S
C1789 C1798 1.429 . S
C1790 C1788 1.419 . S
C1790 C1791 1.363 . S
C1790 H1793 0.929 . S
C1791 C1790 1.363 . S
C1791 C1797 1.428 . S
H1792 C1788 0.930 . S
H1793 C1790 0.929 . S
S1794 N1795 1.613 1_655 S
S1794 N1796 1.610 . S
N1795 S1794 1.613 1_455 S
N1795 C1798 1.350 . S
N1796 S1794 1.610 . S
N1796 C1797 1.351 1_655 S
C1797 C1791 1.428 . S
C1797 N1796 1.351 1_455 S
C1797 C1798 1.434 . S
C1798 C1789 1.429 . S
C1798 N1795 1.350 . S
C1798 C1797 1.434 . S
C1799 C1800 1.369 . S
C1799 C1801 1.419 . S
C1799 H1803 0.930 . S
C1800 C1799 1.369 . S
C1800 C1809 1.429 . S
C1801 C1799 1.419 . S
C1801 C1802 1.363 . S
C1801 H1804 0.929 . S
C1802 C1801 1.363 . S
C1802 C1808 1.428 . S
H1803 C1799 0.930 . S
H1804 C1801 0.929 . S
S1805 N1806 1.613 1_565 S
S1805 N1807 1.610 . S
N1806 S1805 1.613 1_545 S
N1806 C1809 1.350 1_545 S
N1807 S1805 1.610 . S
N1807 C1808 1.351 . S
C1808 C1802 1.428 . S
C1808 N1807 1.351 . S
C1808 C1809 1.434 . S
C1809 C1800 1.429 . S
C1809 N1806 1.350 1_565 S
C1809 C1808 1.434 . S
C1810 C1811 1.369 . S
C1810 C1812 1.419 . S
C1810 H1814 0.930 . S
C1811 C1810 1.369 . S
C1811 C1820 1.429 1_455 S
C1812 C1810 1.419 . S
C1812 C1813 1.363 . S
C1812 H1815 0.929 . S
C1813 C1812 1.363 . S
C1813 C1819 1.428 1_455 S
H1814 C1810 0.930 . S
H1815 C1812 0.929 . S
S1816 N1817 1.613 . S
S1816 N1818 1.610 . S
N1817 S1816 1.613 . S
N1817 C1820 1.350 . S
N1818 S1816 1.610 . S
N1818 C1819 1.351 . S
C1819 C1813 1.428 1_655 S
C1819 N1818 1.351 . S
C1819 C1820 1.434 . S
C1820 C1811 1.429 1_655 S
C1820 N1817 1.350 . S
C1820 C1819 1.434 . S
C1821 C1822 1.369 . S
C1821 C1823 1.419 . S
C1821 H1825 0.930 . S
C1822 C1821 1.369 . S
C1822 C1831 1.429 . S
C1823 C1821 1.419 . S
C1823 C1824 1.363 . S
C1823 H1826 0.929 . S
C1824 C1823 1.363 . S
C1824 C1830 1.428 . S
H1825 C1821 0.930 . S
H1826 C1823 0.929 . S
S1827 N1828 1.613 . S
S1827 N1829 1.610 . S
N1828 S1827 1.613 . S
N1828 C1831 1.350 . S
N1829 S1827 1.610 . S
N1829 C1830 1.351 . S
C1830 C1824 1.428 . S
C1830 N1829 1.351 . S
C1830 C1831 1.434 . S
C1831 C1822 1.429 . S
C1831 N1828 1.350 . S
C1831 C1830 1.434 . S
C1832 C1833 1.369 1_455 S
C1832 C1834 1.417 1_455 S
C1832 H1836 0.930 . S
C1833 C1832 1.369 1_655 S
C1833 C1842 1.429 . S
C1834 C1832 1.417 1_655 S
C1834 C1835 1.369 . S
C1834 H1837 0.925 1_655 S
C1835 C1834 1.369 . S
C1835 C1841 1.428 . S
H1836 C1832 0.930 . S
H1837 C1834 0.925 1_455 S
S1838 N1839 1.613 . S
S1838 N1840 1.610 . S
N1839 S1838 1.613 . S
N1839 C1842 1.350 . S
N1840 S1838 1.610 . S
N1840 C1841 1.351 . S
C1841 C1835 1.428 . S
C1841 N1840 1.351 . S
C1841 C1842 1.434 . S
C1842 C1833 1.429 . S
C1842 N1839 1.350 . S
C1842 C1841 1.434 . S
C1843 C1844 1.369 . S
C1843 C1845 1.419 . S
C1843 H1847 0.930 . S
C1844 C1843 1.369 . S
C1844 C1853 1.429 . S
C1845 C1843 1.419 . S
C1845 C1846 1.363 . S
C1845 H1848 0.929 . S
C1846 C1845 1.363 . S
C1846 C1852 1.428 . S
H1847 C1843 0.930 . S
H1848 C1845 0.929 . S
S1849 N1850 1.613 . S
S1849 N1851 1.610 . S
N1850 S1849 1.613 . S
N1850 C1853 1.350 . S
N1851 S1849 1.610 . S
N1851 C1852 1.351 . S
C1852 C1846 1.428 . S
C1852 N1851 1.351 . S
C1852 C1853 1.434 . S
C1853 C1844 1.429 . S
C1853 N1850 1.350 . S
C1853 C1852 1.434 . S
C1854 C1855 1.369 1_455 S
C1854 C1856 1.417 1_455 S
C1854 H1858 0.930 . S
C1855 C1854 1.369 1_655 S
C1855 C1864 1.429 . S
C1856 C1854 1.417 1_655 S
C1856 C1857 1.369 . S
C1856 H1859 0.925 1_655 S
C1857 C1856 1.369 . S
C1857 C1863 1.428 . S
H1858 C1854 0.930 . S
H1859 C1856 0.925 1_455 S
S1860 N1861 1.613 . S
S1860 N1862 1.610 . S
N1861 S1860 1.613 . S
N1861 C1864 1.350 . S
N1862 S1860 1.610 . S
N1862 C1863 1.351 . S
C1863 C1857 1.428 . S
C1863 N1862 1.351 . S
C1863 C1864 1.434 . S
C1864 C1855 1.429 . S
C1864 N1861 1.350 . S
C1864 C1863 1.434 . S
C1865 C1866 1.369 . S
C1865 C1867 1.419 . S
C1865 H1869 0.930 . S
C1866 C1865 1.369 . S
C1866 C1875 1.429 . S
C1867 C1865 1.419 . S
C1867 C1868 1.363 . S
C1867 H1870 0.929 . S
C1868 C1867 1.363 . S
C1868 C1874 1.428 . S
H1869 C1865 0.930 . S
H1870 C1867 0.929 . S
S1871 N1872 1.613 . S
S1871 N1873 1.610 . S
N1872 S1871 1.613 . S
N1872 C1875 1.350 . S
N1873 S1871 1.610 . S
N1873 C1874 1.351 . S
C1874 C1868 1.428 . S
C1874 N1873 1.351 . S
C1874 C1875 1.434 . S
C1875 C1866 1.429 . S
C1875 N1872 1.350 . S
C1875 C1874 1.434 . S
C1876 C1877 1.369 . S
C1876 C1878 1.419 . S
C1876 H1880 0.930 . S
C1877 C1876 1.369 . S
C1877 C1886 1.429 1_455 S
C1878 C1876 1.419 . S
C1878 C1879 1.363 . S
C1878 H1881 0.929 . S
C1879 C1878 1.363 . S
C1879 C1885 1.428 1_455 S
H1880 C1876 0.930 . S
H1881 C1878 0.929 . S
S1882 N1883 1.613 . S
S1882 N1884 1.610 . S
N1883 S1882 1.613 . S
N1883 C1886 1.350 . S
N1884 S1882 1.610 . S
N1884 C1885 1.351 . S
C1885 C1879 1.428 1_655 S
C1885 N1884 1.351 . S
C1885 C1886 1.434 . S
C1886 C1877 1.429 1_655 S
C1886 N1883 1.350 . S
C1886 C1885 1.434 . S
C1887 C1888 1.369 . S
C1887 C1889 1.419 . S
C1887 H1891 0.930 . S
C1888 C1887 1.369 . S
C1888 C1897 1.429 . S
C1889 C1887 1.419 . S
C1889 C1890 1.363 . S
C1889 H1892 0.929 . S
C1890 C1889 1.363 . S
C1890 C1896 1.428 . S
H1891 C1887 0.930 . S
H1892 C1889 0.929 . S
S1893 N1894 1.613 . S
S1893 N1895 1.610 . S
N1894 S1893 1.613 . S
N1894 C1897 1.350 . S
N1895 S1893 1.610 . S
N1895 C1896 1.351 . S
C1896 C1890 1.428 . S
C1896 N1895 1.351 . S
C1896 C1897 1.434 . S
C1897 C1888 1.429 . S
C1897 N1894 1.350 . S
C1897 C1896 1.434 . S
C1898 C1899 1.369 . S
C1898 C1900 1.419 . S
C1898 H1902 0.930 . S
C1899 C1898 1.369 . S
C1899 C1908 1.429 . S
C1900 C1898 1.419 . S
C1900 C1901 1.363 . S
C1900 H1903 0.929 . S
C1901 C1900 1.363 . S
C1901 C1907 1.428 . S
H1902 C1898 0.930 . S
H1903 C1900 0.929 . S
S1904 N1905 1.613 . S
S1904 N1906 1.610 1_655 S
N1905 S1904 1.613 . S
N1905 C1908 1.350 1_655 S
N1906 S1904 1.610 1_455 S
N1906 C1907 1.351 . S
C1907 C1901 1.428 . S
C1907 N1906 1.351 . S
C1907 C1908 1.434 . S
C1908 C1899 1.429 . S
C1908 N1905 1.350 1_455 S
C1908 C1907 1.434 . S
C1909 C1910 1.369 . S
C1909 C1911 1.419 . S
C1909 H1913 0.930 . S
C1910 C1909 1.369 . S
C1910 C1919 1.429 . S
C1911 C1909 1.419 . S
C1911 C1912 1.363 . S
C1911 H1914 0.929 . S
C1912 C1911 1.363 . S
C1912 C1918 1.428 . S
H1913 C1909 0.930 . S
H1914 C1911 0.929 . S
S1915 N1916 1.613 . S
S1915 N1917 1.610 . S
N1916 S1915 1.613 . S
N1916 C1919 1.350 . S
N1917 S1915 1.610 . S
N1917 C1918 1.351 . S
C1918 C1912 1.428 . S
C1918 N1917 1.351 . S
C1918 C1919 1.434 . S
C1919 C1910 1.429 . S
C1919 N1916 1.350 . S
C1919 C1918 1.434 . S
C1920 C1921 1.369 . S
C1920 C1922 1.419 . S
C1920 H1924 0.930 . S
C1921 C1920 1.369 . S
C1921 C1930 1.429 . S
C1922 C1920 1.419 . S
C1922 C1923 1.363 . S
C1922 H1925 0.929 . S
C1923 C1922 1.363 . S
C1923 C1929 1.428 . S
H1924 C1920 0.930 . S
H1925 C1922 0.929 . S
S1926 N1927 1.613 . S
S1926 N1928 1.610 . S
N1927 S1926 1.613 . S
N1927 C1930 1.350 . S
N1928 S1926 1.610 . S
N1928 C1929 1.351 . S
C1929 C1923 1.428 . S
C1929 N1928 1.351 . S
C1929 C1930 1.434 . S
C1930 C1921 1.429 . S
C1930 N1927 1.350 . S
C1930 C1929 1.434 . S
C1931 C1932 1.369 . S
C1931 C1933 1.419 . S
C1931 H1935 0.930 . S
C1932 C1931 1.369 . S
C1932 C1941 1.429 . S
C1933 C1931 1.419 . S
C1933 C1934 1.363 . S
C1933 H1936 0.929 . S
C1934 C1933 1.363 . S
C1934 C1940 1.428 . S
H1935 C1931 0.930 . S
H1936 C1933 0.929 . S
S1937 N1938 1.613 . S
S1937 N1939 1.610 . S
N1938 S1937 1.613 . S
N1938 C1941 1.350 . S
N1939 S1937 1.610 . S
N1939 C1940 1.351 . S
C1940 C1934 1.428 . S
C1940 N1939 1.351 . S
C1940 C1941 1.434 . S
C1941 C1932 1.429 . S
C1941 N1938 1.350 . S
C1941 C1940 1.434 . S
C1942 C1943 1.369 . S
C1942 C1944 1.419 . S
C1942 H1946 0.930 . S
C1943 C1942 1.369 . S
C1943 C1952 1.429 . S
C1944 C1942 1.419 . S
C1944 C1945 1.363 . S
C1944 H1947 0.929 . S
C1945 C1944 1.363 . S
C1945 C1951 1.428 . S
H1946 C1942 0.930 . S
H1947 C1944 0.929 . S
S1948 N1949 1.613 . S
S1948 N1950 1.610 . S
N1949 S1948 1.613 . S
N1949 C1952 1.350 . S
N1950 S1948 1.610 . S
N1950 C1951 1.351 . S
C1951 C1945 1.428 . S
C1951 N1950 1.351 . S
C1951 C1952 1.434 . S
C1952 C1943 1.429 . S
C1952 N1949 1.350 . S
C1952 C1951 1.434 . S
C1953 C1954 1.369 . S
C1953 C1955 1.419 . S
C1953 H1957 0.930 . S
C1954 C1953 1.369 . S
C1954 C1963 1.429 . S
C1955 C1953 1.419 . S
C1955 C1956 1.363 . S
C1955 H1958 0.929 . S
C1956 C1955 1.363 . S
C1956 C1962 1.428 . S
H1957 C1953 0.930 . S
H1958 C1955 0.929 . S
S1959 N1960 1.613 . S
S1959 N1961 1.610 . S
N1960 S1959 1.613 . S
N1960 C1963 1.350 . S
N1961 S1959 1.610 . S
N1961 C1962 1.351 . S
C1962 C1956 1.428 . S
C1962 N1961 1.351 . S
C1962 C1963 1.434 . S
C1963 C1954 1.429 . S
C1963 N1960 1.350 . S
C1963 C1962 1.434 . S
C1964 C1965 1.369 . S
C1964 C1966 1.419 . S
C1964 H1968 0.930 . S
C1965 C1964 1.369 . S
C1965 C1974 1.429 . S
C1966 C1964 1.419 . S
C1966 C1967 1.363 . S
C1966 H1969 0.929 . S
C1967 C1966 1.363 . S
C1967 C1973 1.428 . S
H1968 C1964 0.930 . S
H1969 C1966 0.929 . S
S1970 N1971 1.613 . S
S1970 N1972 1.610 . S
N1971 S1970 1.613 . S
N1971 C1974 1.350 . S
N1972 S1970 1.610 . S
N1972 C1973 1.351 . S
C1973 C1967 1.428 . S
C1973 N1972 1.351 . S
C1973 C1974 1.434 . S
C1974 C1965 1.429 . S
C1974 N1971 1.350 . S
C1974 C1973 1.434 . S
C1975 C1976 1.369 . S
C1975 C1977 1.419 . S
C1975 H1979 0.930 . S
C1976 C1975 1.369 . S
C1976 C1985 1.429 . S
C1977 C1975 1.419 . S
C1977 C1978 1.363 . S
C1977 H1980 0.929 . S
C1978 C1977 1.363 . S
C1978 C1984 1.428 . S
H1979 C1975 0.930 . S
H1980 C1977 0.929 . S
S1981 N1982 1.613 . S
S1981 N1983 1.610 . S
N1982 S1981 1.613 . S
N1982 C1985 1.350 . S
N1983 S1981 1.610 . S
N1983 C1984 1.351 . S
C1984 C1978 1.428 . S
C1984 N1983 1.351 . S
C1984 C1985 1.434 . S
C1985 C1976 1.429 . S
C1985 N1982 1.350 . S
C1985 C1984 1.434 . S
C1986 C1987 1.369 . S
C1986 C1988 1.419 . S
C1986 H1990 0.930 . S
C1987 C1986 1.369 . S
C1987 C1996 1.429 . S
C1988 C1986 1.419 . S
C1988 C1989 1.363 . S
C1988 H1991 0.929 . S
C1989 C1988 1.363 . S
C1989 C1995 1.428 . S
H1990 C1986 0.930 . S
H1991 C1988 0.929 . S
S1992 N1993 1.613 . S
S1992 N1994 1.610 . S
N1993 S1992 1.613 . S
N1993 C1996 1.350 . S
N1994 S1992 1.610 . S
N1994 C1995 1.351 . S
C1995 C1989 1.428 . S
C1995 N1994 1.351 . S
C1995 C1996 1.434 . S
C1996 C1987 1.429 . S
C1996 N1993 1.350 . S
C1996 C1995 1.434 . S
C1997 C1998 1.369 . S
C1997 C1999 1.419 . S
C1997 H2001 0.930 . S
C1998 C1997 1.369 . S
C1998 C2007 1.429 . S
C1999 C1997 1.419 . S
C1999 C2000 1.363 . S
C1999 H2002 0.929 . S
C2000 C1999 1.363 . S
C2000 C2006 1.428 . S
H2001 C1997 0.930 . S
H2002 C1999 0.929 . S
S2003 N2004 1.613 . S
S2003 N2005 1.610 . S
N2004 S2003 1.613 . S
N2004 C2007 1.350 . S
N2005 S2003 1.610 . S
N2005 C2006 1.351 . S
C2006 C2000 1.428 . S
C2006 N2005 1.351 . S
C2006 C2007 1.434 . S
C2007 C1998 1.429 . S
C2007 N2004 1.350 . S
C2007 C2006 1.434 . S
C2008 C2009 1.369 . S
C2008 C2010 1.419 . S
C2008 H2012 0.930 . S
C2009 C2008 1.369 . S
C2009 C2018 1.429 . S
C2010 C2008 1.419 . S
C2010 C2011 1.363 . S
C2010 H2013 0.929 . S
C2011 C2010 1.363 . S
C2011 C2017 1.428 . S
H2012 C2008 0.930 . S
H2013 C2010 0.929 . S
S2014 N2015 1.613 . S
S2014 N2016 1.610 . S
N2015 S2014 1.613 . S
N2015 C2018 1.350 . S
N2016 S2014 1.610 . S
N2016 C2017 1.351 . S
C2017 C2011 1.428 . S
C2017 N2016 1.351 . S
C2017 C2018 1.434 . S
C2018 C2009 1.429 . S
C2018 N2015 1.350 . S
C2018 C2017 1.434 . S
C2019 C2020 1.369 . S
C2019 C2021 1.419 . S
C2019 H2023 0.930 . S
C2020 C2019 1.369 . S
C2020 C2029 1.429 . S
C2021 C2019 1.419 . S
C2021 C2022 1.363 . S
C2021 H2024 0.929 . S
C2022 C2021 1.363 . S
C2022 C2028 1.428 . S
H2023 C2019 0.930 . S
H2024 C2021 0.929 . S
S2025 N2026 1.613 . S
S2025 N2027 1.610 . S
N2026 S2025 1.613 . S
N2026 C2029 1.350 . S
N2027 S2025 1.610 . S
N2027 C2028 1.351 . S
C2028 C2022 1.428 . S
C2028 N2027 1.351 . S
C2028 C2029 1.434 . S
C2029 C2020 1.429 . S
C2029 N2026 1.350 . S
C2029 C2028 1.434 . S
C2030 C2031 1.369 . S
C2030 C2032 1.419 . S
C2030 H2034 0.930 . S
C2031 C2030 1.369 . S
C2031 C2040 1.429 . S
C2032 C2030 1.419 . S
C2032 C2033 1.363 . S
C2032 H2035 0.929 . S
C2033 C2032 1.363 . S
C2033 C2039 1.428 . S
H2034 C2030 0.930 . S
H2035 C2032 0.929 . S
S2036 N2037 1.613 . S
S2036 N2038 1.610 . S
N2037 S2036 1.613 . S
N2037 C2040 1.350 . S
N2038 S2036 1.610 . S
N2038 C2039 1.351 . S
C2039 C2033 1.428 . S
C2039 N2038 1.351 . S
C2039 C2040 1.434 . S
C2040 C2031 1.429 . S
C2040 N2037 1.350 . S
C2040 C2039 1.434 . S
C2041 C2042 1.369 . S
C2041 C2043 1.419 . S
C2041 H2045 0.930 . S
C2042 C2041 1.369 . S
C2042 C2051 1.429 . S
C2043 C2041 1.419 . S
C2043 C2044 1.363 . S
C2043 H2046 0.929 . S
C2044 C2043 1.363 . S
C2044 C2050 1.428 . S
H2045 C2041 0.930 . S
H2046 C2043 0.929 . S
S2047 N2048 1.613 . S
S2047 N2049 1.610 . S
N2048 S2047 1.613 . S
N2048 C2051 1.350 . S
N2049 S2047 1.610 . S
N2049 C2050 1.351 . S
C2050 C2044 1.428 . S
C2050 N2049 1.351 . S
C2050 C2051 1.434 . S
C2051 C2042 1.429 . S
C2051 N2048 1.350 . S
C2051 C2050 1.434 . S
C2052 C2053 1.369 . S
C2052 C2054 1.419 . S
C2052 H2056 0.930 . S
C2053 C2052 1.369 . S
C2053 C2062 1.429 . S
C2054 C2052 1.419 . S
C2054 C2055 1.363 . S
C2054 H2057 0.929 . S
C2055 C2054 1.363 . S
C2055 C2061 1.428 . S
H2056 C2052 0.930 . S
H2057 C2054 0.929 . S
S2058 N2059 1.613 . S
S2058 N2060 1.610 . S
N2059 S2058 1.613 . S
N2059 C2062 1.350 . S
N2060 S2058 1.610 . S
N2060 C2061 1.351 . S
C2061 C2055 1.428 . S
C2061 N2060 1.351 . S
C2061 C2062 1.434 . S
C2062 C2053 1.429 . S
C2062 N2059 1.350 . S
C2062 C2061 1.434 . S
C2063 C2064 1.369 . S
C2063 C2065 1.419 . S
C2063 H2067 0.930 . S
C2064 C2063 1.369 . S
C2064 C2073 1.429 . S
C2065 C2063 1.419 . S
C2065 C2066 1.363 . S
C2065 H2068 0.929 . S
C2066 C2065 1.363 . S
C2066 C2072 1.428 . S
H2067 C2063 0.930 . S
H2068 C2065 0.929 . S
S2069 N2070 1.613 . S
S2069 N2071 1.610 . S
N2070 S2069 1.613 . S
N2070 C2073 1.350 . S
N2071 S2069 1.610 . S
N2071 C2072 1.351 . S
C2072 C2066 1.428 . S
C2072 N2071 1.351 . S
C2072 C2073 1.434 . S
C2073 C2064 1.429 . S
C2073 N2070 1.350 . S
C2073 C2072 1.434 . S
C2074 C2075 1.369 . S
C2074 C2076 1.419 . S
C2074 H2078 0.930 . S
C2075 C2074 1.369 . S
C2075 C2084 1.429 . S
C2076 C2074 1.419 . S
C2076 C2077 1.363 . S
C2076 H2079 0.929 . S
C2077 C2076 1.363 . S
C2077 C2083 1.428 . S
H2078 C2074 0.930 . S
H2079 C2076 0.929 . S
S2080 N2081 1.613 . S
S2080 N2082 1.610 . S
N2081 S2080 1.613 . S
N2081 C2084 1.350 . S
N2082 S2080 1.610 . S
N2082 C2083 1.351 . S
C2083 C2077 1.428 . S
C2083 N2082 1.351 . S
C2083 C2084 1.434 . S
C2084 C2075 1.429 . S
C2084 N2081 1.350 . S
C2084 C2083 1.434 . S
C2085 C2086 1.369 . S
C2085 C2087 1.419 . S
C2085 H2089 0.930 . S
C2086 C2085 1.369 . S
C2086 C2095 1.429 . S
C2087 C2085 1.419 . S
C2087 C2088 1.363 . S
C2087 H2090 0.929 . S
C2088 C2087 1.363 . S
C2088 C2094 1.428 . S
H2089 C2085 0.930 . S
H2090 C2087 0.929 . S
S2091 N2092 1.613 . S
S2091 N2093 1.610 . S
N2092 S2091 1.613 . S
N2092 C2095 1.350 . S
N2093 S2091 1.610 . S
N2093 C2094 1.351 . S
C2094 C2088 1.428 . S
C2094 N2093 1.351 . S
C2094 C2095 1.434 . S
C2095 C2086 1.429 . S
C2095 N2092 1.350 . S
C2095 C2094 1.434 . S
C2096 C2097 1.369 . S
C2096 C2098 1.419 . S
C2096 H2100 0.930 . S
C2097 C2096 1.369 . S
C2097 C2106 1.429 . S
C2098 C2096 1.419 . S
C2098 C2099 1.363 . S
C2098 H2101 0.929 . S
C2099 C2098 1.363 . S
C2099 C2105 1.428 . S
H2100 C2096 0.930 . S
H2101 C2098 0.929 . S
S2102 N2103 1.613 . S
S2102 N2104 1.610 . S
N2103 S2102 1.613 . S
N2103 C2106 1.350 . S
N2104 S2102 1.610 . S
N2104 C2105 1.351 . S
C2105 C2099 1.428 . S
C2105 N2104 1.351 . S
C2105 C2106 1.434 . S
C2106 C2097 1.429 . S
C2106 N2103 1.350 . S
C2106 C2105 1.434 . S
C2107 C2108 1.369 . S
C2107 C2109 1.419 . S
C2107 H2111 0.930 . S
C2108 C2107 1.369 . S
C2108 C2117 1.429 . S
C2109 C2107 1.419 . S
C2109 C2110 1.363 . S
C2109 H2112 0.929 . S
C2110 C2109 1.363 . S
C2110 C2116 1.428 . S
H2111 C2107 0.930 . S
H2112 C2109 0.929 . S
S2113 N2114 1.613 . S
S2113 N2115 1.610 . S
N2114 S2113 1.613 . S
N2114 C2117 1.350 . S
N2115 S2113 1.610 . S
N2115 C2116 1.351 . S
C2116 C2110 1.428 . S
C2116 N2115 1.351 . S
C2116 C2117 1.434 . S
C2117 C2108 1.429 . S
C2117 N2114 1.350 . S
C2117 C2116 1.434 . S
C2118 C2119 1.369 . S
C2118 C2120 1.419 . S
C2118 H2122 0.930 . S
C2119 C2118 1.369 . S
C2119 C2128 1.429 . S
C2120 C2118 1.419 . S
C2120 C2121 1.363 . S
C2120 H2123 0.929 . S
C2121 C2120 1.363 . S
C2121 C2127 1.428 . S
H2122 C2118 0.930 . S
H2123 C2120 0.929 . S
S2124 N2125 1.613 . S
S2124 N2126 1.610 . S
N2125 S2124 1.613 . S
N2125 C2128 1.350 . S
N2126 S2124 1.610 . S
N2126 C2127 1.351 . S
C2127 C2121 1.428 . S
C2127 N2126 1.351 . S
C2127 C2128 1.434 . S
C2128 C2119 1.429 . S
C2128 N2125 1.350 . S
C2128 C2127 1.434 . S
C2129 C2130 1.369 . S
C2129 C2131 1.419 . S
C2129 H2133 0.930 . S
C2130 C2129 1.369 . S
C2130 C2139 1.429 . S
C2131 C2129 1.419 . S
C2131 C2132 1.363 . S
C2131 H2134 0.929 . S
C2132 C2131 1.363 . S
C2132 C2138 1.428 . S
H2133 C2129 0.930 . S
H2134 C2131 0.929 . S
S2135 N2136 1.613 . S
S2135 N2137 1.610 . S
N2136 S2135 1.613 . S
N2136 C2139 1.350 . S
N2137 S2135 1.610 . S
N2137 C2138 1.351 . S
C2138 C2132 1.428 . S
C2138 N2137 1.351 . S
C2138 C2139 1.434 . S
C2139 C2130 1.429 . S
C2139 N2136 1.350 . S
C2139 C2138 1.434 . S
C2140 C2141 1.369 . S
C2140 C2142 1.419 . S
C2140 H2144 0.930 . S
C2141 C2140 1.369 . S
C2141 C2150 1.429 . S
C2142 C2140 1.419 . S
C2142 C2143 1.363 . S
C2142 H2145 0.929 . S
C2143 C2142 1.363 . S
C2143 C2149 1.428 . S
H2144 C2140 0.930 . S
H2145 C2142 0.929 . S
S2146 N2147 1.613 . S
S2146 N2148 1.610 . S
N2147 S2146 1.613 . S
N2147 C2150 1.350 . S
N2148 S2146 1.610 . S
N2148 C2149 1.351 . S
C2149 C2143 1.428 . S
C2149 N2148 1.351 . S
C2149 C2150 1.434 . S
C2150 C2141 1.429 . S
C2150 N2147 1.350 . S
C2150 C2149 1.434 . S
C2151 C2152 1.369 . S
C2151 C2153 1.419 . S
C2151 H2155 0.930 . S
C2152 C2151 1.369 . S
C2152 C2161 1.429 . S
C2153 C2151 1.419 . S
C2153 C2154 1.363 . S
C2153 H2156 0.929 . S
C2154 C2153 1.363 . S
C2154 C2160 1.428 . S
H2155 C2151 0.930 . S
H2156 C2153 0.929 . S
S2157 N2158 1.613 . S
S2157 N2159 1.610 . S
N2158 S2157 1.613 . S
N2158 C2161 1.350 . S
N2159 S2157 1.610 . S
N2159 C2160 1.351 . S
C2160 C2154 1.428 . S
C2160 N2159 1.351 . S
C2160 C2161 1.434 . S
C2161 C2152 1.429 . S
C2161 N2158 1.350 . S
C2161 C2160 1.434 . S
C2162 C2163 1.369 . S
C2162 C2164 1.419 . S
C2162 H2166 0.930 . S
C2163 C2162 1.369 . S
C2163 C2172 1.429 . S
C2164 C2162 1.419 . S
C2164 C2165 1.363 . S
C2164 H2167 0.929 . S
C2165 C2164 1.363 . S
C2165 C2171 1.428 . S
H2166 C2162 0.930 . S
H2167 C2164 0.929 . S
S2168 N2169 1.613 . S
S2168 N2170 1.610 . S
N2169 S2168 1.613 . S
N2169 C2172 1.350 . S
N2170 S2168 1.610 . S
N2170 C2171 1.351 . S
C2171 C2165 1.428 . S
C2171 N2170 1.351 . S
C2171 C2172 1.434 . S
C2172 C2163 1.429 . S
C2172 N2169 1.350 . S
C2172 C2171 1.434 . S
C2173 C2174 1.369 . S
C2173 C2175 1.419 . S
C2173 H2177 0.930 . S
C2174 C2173 1.369 . S
C2174 C2183 1.429 . S
C2175 C2173 1.419 . S
C2175 C2176 1.363 . S
C2175 H2178 0.929 . S
C2176 C2175 1.363 . S
C2176 C2182 1.428 . S
H2177 C2173 0.930 . S
H2178 C2175 0.929 . S
S2179 N2180 1.613 . S
S2179 N2181 1.610 . S
N2180 S2179 1.613 . S
N2180 C2183 1.350 . S
N2181 S2179 1.610 . S
N2181 C2182 1.351 . S
C2182 C2176 1.428 . S
C2182 N2181 1.351 . S
C2182 C2183 1.434 . S
C2183 C2174 1.429 . S
C2183 N2180 1.350 . S
C2183 C2182 1.434 . S
C2184 C2185 1.369 . S
C2184 C2186 1.419 . S
C2184 H2188 0.930 . S
C2185 C2184 1.369 . S
C2185 C2194 1.429 . S
C2186 C2184 1.419 . S
C2186 C2187 1.363 . S
C2186 H2189 0.929 . S
C2187 C2186 1.363 . S
C2187 C2193 1.428 . S
H2188 C2184 0.930 . S
H2189 C2186 0.929 . S
S2190 N2191 1.613 . S
S2190 N2192 1.610 . S
N2191 S2190 1.613 . S
N2191 C2194 1.350 . S
N2192 S2190 1.610 . S
N2192 C2193 1.351 . S
C2193 C2187 1.428 . S
C2193 N2192 1.351 . S
C2193 C2194 1.434 . S
C2194 C2185 1.429 . S
C2194 N2191 1.350 . S
C2194 C2193 1.434 . S
C2195 C2196 1.369 . S
C2195 C2197 1.419 . S
C2195 H2199 0.930 . S
C2196 C2195 1.369 . S
C2196 C2205 1.429 . S
C2197 C2195 1.419 . S
C2197 C2198 1.363 . S
C2197 H2200 0.929 . S
C2198 C2197 1.363 . S
C2198 C2204 1.428 . S
H2199 C2195 0.930 . S
H2200 C2197 0.929 . S
S2201 N2202 1.613 . S
S2201 N2203 1.610 . S
N2202 S2201 1.613 . S
N2202 C2205 1.350 . S
N2203 S2201 1.610 . S
N2203 C2204 1.351 . S
C2204 C2198 1.428 . S
C2204 N2203 1.351 . S
C2204 C2205 1.434 . S
C2205 C2196 1.429 . S
C2205 N2202 1.350 . S
C2205 C2204 1.434 . S
C2206 C2207 1.369 . S
C2206 C2208 1.419 . S
C2206 H2210 0.930 . S
C2207 C2206 1.369 . S
C2207 C2216 1.429 . S
C2208 C2206 1.419 . S
C2208 C2209 1.363 . S
C2208 H2211 0.929 . S
C2209 C2208 1.363 . S
C2209 C2215 1.428 . S
H2210 C2206 0.930 . S
H2211 C2208 0.929 . S
S2212 N2213 1.613 . S
S2212 N2214 1.610 . S
N2213 S2212 1.613 . S
N2213 C2216 1.350 . S
N2214 S2212 1.610 . S
N2214 C2215 1.351 . S
C2215 C2209 1.428 . S
C2215 N2214 1.351 . S
C2215 C2216 1.434 . S
C2216 C2207 1.429 . S
C2216 N2213 1.350 . S
C2216 C2215 1.434 . S
C2217 C2218 1.369 . S
C2217 C2219 1.419 . S
C2217 H2221 0.930 . S
C2218 C2217 1.369 . S
C2218 C2227 1.429 . S
C2219 C2217 1.419 . S
C2219 C2220 1.363 . S
C2219 H2222 0.929 . S
C2220 C2219 1.363 . S
C2220 C2226 1.428 . S
H2221 C2217 0.930 . S
H2222 C2219 0.929 . S
S2223 N2224 1.613 . S
S2223 N2225 1.610 . S
N2224 S2223 1.613 . S
N2224 C2227 1.350 . S
N2225 S2223 1.610 . S
N2225 C2226 1.351 . S
C2226 C2220 1.428 . S
C2226 N2225 1.351 . S
C2226 C2227 1.434 . S
C2227 C2218 1.429 . S
C2227 N2224 1.350 . S
C2227 C2226 1.434 . S
C2228 C2229 1.369 . S
C2228 C2230 1.419 . S
C2228 H2232 0.930 . S
C2229 C2228 1.369 . S
C2229 C2238 1.429 . S
C2230 C2228 1.419 . S
C2230 C2231 1.363 . S
C2230 H2233 0.929 . S
C2231 C2230 1.363 . S
C2231 C2237 1.428 . S
H2232 C2228 0.930 . S
H2233 C2230 0.929 . S
S2234 N2235 1.613 . S
S2234 N2236 1.610 . S
N2235 S2234 1.613 . S
N2235 C2238 1.350 . S
N2236 S2234 1.610 . S
N2236 C2237 1.351 . S
C2237 C2231 1.428 . S
C2237 N2236 1.351 . S
C2237 C2238 1.434 . S
C2238 C2229 1.429 . S
C2238 N2235 1.350 . S
C2238 C2237 1.434 . S
C2239 C2240 1.369 . S
C2239 C2241 1.419 . S
C2239 H2243 0.930 . S
C2240 C2239 1.369 . S
C2240 C2249 1.429 . S
C2241 C2239 1.419 . S
C2241 C2242 1.363 . S
C2241 H2244 0.929 . S
C2242 C2241 1.363 . S
C2242 C2248 1.428 . S
H2243 C2239 0.930 . S
H2244 C2241 0.929 . S
S2245 N2246 1.613 . S
S2245 N2247 1.610 . S
N2246 S2245 1.613 . S
N2246 C2249 1.350 . S
N2247 S2245 1.610 . S
N2247 C2248 1.351 . S
C2248 C2242 1.428 . S
C2248 N2247 1.351 . S
C2248 C2249 1.434 . S
C2249 C2240 1.429 . S
C2249 N2246 1.350 . S
C2249 C2248 1.434 . S
C2250 C2251 1.369 . S
C2250 C2252 1.419 . S
C2250 H2254 0.930 . S
C2251 C2250 1.369 . S
C2251 C2260 1.429 . S
C2252 C2250 1.419 . S
C2252 C2253 1.363 . S
C2252 H2255 0.929 . S
C2253 C2252 1.363 . S
C2253 C2259 1.428 . S
H2254 C2250 0.930 . S
H2255 C2252 0.929 . S
S2256 N2257 1.613 . S
S2256 N2258 1.610 . S
N2257 S2256 1.613 . S
N2257 C2260 1.350 . S
N2258 S2256 1.610 . S
N2258 C2259 1.351 . S
C2259 C2253 1.428 . S
C2259 N2258 1.351 . S
C2259 C2260 1.434 . S
C2260 C2251 1.429 . S
C2260 N2257 1.350 . S
C2260 C2259 1.434 . S
C2261 C2262 1.369 . S
C2261 C2263 1.419 . S
C2261 H2265 0.930 . S
C2262 C2261 1.369 . S
C2262 C2271 1.429 . S
C2263 C2261 1.419 . S
C2263 C2264 1.363 . S
C2263 H2266 0.929 . S
C2264 C2263 1.363 . S
C2264 C2270 1.428 . S
H2265 C2261 0.930 . S
H2266 C2263 0.929 . S
S2267 N2268 1.613 . S
S2267 N2269 1.610 . S
N2268 S2267 1.613 . S
N2268 C2271 1.350 . S
N2269 S2267 1.610 . S
N2269 C2270 1.351 . S
C2270 C2264 1.428 . S
C2270 N2269 1.351 . S
C2270 C2271 1.434 . S
C2271 C2262 1.429 . S
C2271 N2268 1.350 . S
C2271 C2270 1.434 . S
C2272 C2273 1.369 1_455 S
C2272 C2274 1.419 1_556 S
C2272 H2276 0.930 . S
C2273 C2272 1.369 1_655 S
C2273 C2282 1.429 . S
C2274 C2272 1.419 1_554 S
C2274 C2275 1.363 . S
C2274 H2277 0.929 . S
C2275 C2274 1.363 . S
C2275 C2281 1.428 1_455 S
H2276 C2272 0.930 . S
H2277 C2274 0.929 . S
S2278 N2279 1.613 . S
S2278 N2280 1.610 1_556 S
N2279 S2278 1.613 . S
N2279 C2282 1.350 . S
N2280 S2278 1.610 1_554 S
N2280 C2281 1.351 . S
C2281 C2275 1.428 1_655 S
C2281 N2280 1.351 . S
C2281 C2282 1.434 1_554 S
C2282 C2273 1.429 . S
C2282 N2279 1.350 . S
C2282 C2281 1.434 1_556 S
C2283 C2284 1.369 . S
C2283 C2285 1.419 1_554 S
C2283 H2287 0.930 . S
C2284 C2283 1.369 . S
C2284 C2293 1.429 . S
C2285 C2283 1.419 1_556 S
C2285 C2286 1.363 . S
C2285 H2288 0.929 . S
C2286 C2285 1.363 . S
C2286 C2292 1.428 . S
H2287 C2283 0.930 . S
H2288 C2285 0.929 . S
S2289 N2290 1.613 . S
S2289 N2291 1.610 . S
N2290 S2289 1.613 . S
N2290 C2293 1.350 1_556 S
N2291 S2289 1.610 . S
N2291 C2292 1.351 . S
C2292 C2286 1.428 . S
C2292 N2291 1.351 . S
C2292 C2293 1.434 1_556 S
C2293 C2284 1.429 . S
C2293 N2290 1.350 1_554 S
C2293 C2292 1.434 1_554 S
C2294 C2295 1.369 . S
C2294 C2296 1.419 . S
C2294 H2298 0.930 . S
C2295 C2294 1.369 . S
C2295 C2304 1.429 1_455 S
C2296 C2294 1.419 . S
C2296 C2297 1.363 1_455 S
C2296 H2299 0.929 . S
C2297 C2296 1.363 1_655 S
C2297 C2303 1.428 . S
H2298 C2294 0.930 . S
H2299 C2296 0.929 . S
S2300 N2301 1.613 . S
S2300 N2302 1.610 . S
N2301 S2300 1.613 . S
N2301 C2304 1.350 . S
N2302 S2300 1.610 . S
N2302 C2303 1.351 . S
C2303 C2297 1.428 . S
C2303 N2302 1.351 . S
C2303 C2304 1.434 . S
C2304 C2295 1.429 1_655 S
C2304 N2301 1.350 . S
C2304 C2303 1.434 . S
C2305 C2306 1.369 . S
C2305 C2307 1.419 . S
C2305 H2309 0.930 . S
C2306 C2305 1.369 . S
C2306 C2315 1.429 . S
C2307 C2305 1.419 . S
C2307 C2308 1.363 . S
C2307 H2310 0.929 . S
C2308 C2307 1.363 . S
C2308 C2314 1.428 . S
H2309 C2305 0.930 . S
H2310 C2307 0.929 . S
S2311 N2312 1.613 . S
S2311 N2313 1.610 . S
N2312 S2311 1.613 . S
N2312 C2315 1.350 . S
N2313 S2311 1.610 . S
N2313 C2314 1.351 . S
C2314 C2308 1.428 . S
C2314 N2313 1.351 . S
C2314 C2315 1.434 . S
C2315 C2306 1.429 . S
C2315 N2312 1.350 . S
C2315 C2314 1.434 . S
C2316 C2317 1.369 1_554 S
C2316 C2318 1.419 . S
C2316 H2320 0.930 . S
C2317 C2316 1.369 1_556 S
C2317 C2326 1.429 . S
C2318 C2316 1.419 . S
C2318 C2319 1.363 . S
C2318 H2321 0.929 . S
C2319 C2318 1.363 . S
C2319 C2325 1.428 1_554 S
H2320 C2316 0.930 . S
H2321 C2318 0.929 . S
S2322 N2323 1.613 . S
S2322 N2324 1.610 . S
N2323 S2322 1.613 . S
N2323 C2326 1.350 . S
N2324 S2322 1.610 . S
N2324 C2325 1.351 . S
C2325 C2319 1.428 1_556 S
C2325 N2324 1.351 . S
C2325 C2326 1.434 . S
C2326 C2317 1.429 . S
C2326 N2323 1.350 . S
C2326 C2325 1.434 . S
C2327 C2328 1.369 . S
C2327 C2329 1.421 . S
C2327 H2331 0.930 . S
C2328 C2327 1.369 . S
C2328 C2337 1.429 1_655 S
C2329 C2327 1.421 . S
C2329 C2330 1.360 1_655 S
C2329 H2332 0.929 . S
C2330 C2329 1.360 1_455 S
C2330 C2336 1.428 . S
H2331 C2327 0.930 . S
H2332 C2329 0.929 . S
S2333 N2334 1.613 . S
S2333 N2335 1.610 . S
N2334 S2333 1.613 . S
N2334 C2337 1.350 . S
N2335 S2333 1.610 . S
N2335 C2336 1.351 . S
C2336 C2330 1.428 . S
C2336 N2335 1.351 . S
C2336 C2337 1.434 . S
C2337 C2328 1.429 1_455 S
C2337 N2334 1.350 . S
C2337 C2336 1.434 . S
C2338 C2339 1.369 . S
C2338 C2340 1.419 . S
C2338 H2342 0.930 . S
C2339 C2338 1.369 . S
C2339 C2348 1.429 . S
C2340 C2338 1.419 . S
C2340 C2341 1.363 . S
C2340 H2343 0.929 . S
C2341 C2340 1.363 . S
C2341 C2347 1.428 . S
H2342 C2338 0.930 . S
H2343 C2340 0.929 . S
S2344 N2345 1.613 . S
S2344 N2346 1.610 . S
N2345 S2344 1.613 . S
N2345 C2348 1.350 . S
N2346 S2344 1.610 . S
N2346 C2347 1.351 . S
C2347 C2341 1.428 . S
C2347 N2346 1.351 . S
C2347 C2348 1.434 . S
C2348 C2339 1.429 . S
C2348 N2345 1.350 . S
C2348 C2347 1.434 . S
C2349 C2350 1.369 . S
C2349 C2351 1.419 . S
C2349 H2353 0.930 . S
C2350 C2349 1.369 . S
C2350 C2359 1.429 1_445 S
C2351 C2349 1.419 . S
C2351 C2352 1.363 1_445 S
C2351 H2354 0.929 . S
C2352 C2351 1.363 1_665 S
C2352 C2358 1.428 . S
H2353 C2349 0.930 . S
H2354 C2351 0.929 . S
S2355 N2356 1.613 . S
S2355 N2357 1.610 . S
N2356 S2355 1.613 . S
N2356 C2359 1.350 . S
N2357 S2355 1.610 . S
N2357 C2358 1.351 . S
C2358 C2352 1.428 . S
C2358 N2357 1.351 . S
C2358 C2359 1.434 . S
C2359 C2350 1.429 1_665 S
C2359 N2356 1.350 . S
C2359 C2358 1.434 . S
C2360 C2361 1.369 . S
C2360 C2362 1.419 . S
C2360 H2364 0.930 . S
C2361 C2360 1.369 . S
C2361 C2370 1.429 . S
C2362 C2360 1.419 . S
C2362 C2363 1.363 . S
C2362 H2365 0.929 . S
C2363 C2362 1.363 . S
C2363 C2369 1.428 . S
H2364 C2360 0.930 . S
H2365 C2362 0.929 . S
S2366 N2367 1.613 . S
S2366 N2368 1.610 . S
N2367 S2366 1.613 . S
N2367 C2370 1.350 . S
N2368 S2366 1.610 . S
N2368 C2369 1.351 . S
C2369 C2363 1.428 . S
C2369 N2368 1.351 . S
C2369 C2370 1.434 . S
C2370 C2361 1.429 . S
C2370 N2367 1.350 . S
C2370 C2369 1.434 . S
C2371 C2372 1.369 . S
C2371 C2373 1.419 1_565 S
C2371 H2375 0.930 . S
C2372 C2371 1.369 . S
C2372 C2381 1.429 . S
C2373 C2371 1.419 1_545 S
C2373 C2374 1.363 . S
C2373 H2376 0.929 . S
C2374 C2373 1.363 . S
C2374 C2380 1.428 . S
H2375 C2371 0.930 . S
H2376 C2373 0.929 . S
S2377 N2378 1.613 1_545 S
S2377 N2379 1.610 . S
N2378 S2377 1.613 1_565 S
N2378 C2381 1.350 . S
N2379 S2377 1.610 . S
N2379 C2380 1.351 . S
C2380 C2374 1.428 . S
C2380 N2379 1.351 . S
C2380 C2381 1.434 1_545 S
C2381 C2372 1.429 . S
C2381 N2378 1.350 . S
C2381 C2380 1.434 1_565 S
C2382 C2383 1.369 . S
C2382 C2384 1.419 . S
C2382 H2386 0.930 . S
C2383 C2382 1.369 . S
C2383 C2392 1.429 . S
C2384 C2382 1.419 . S
C2384 C2385 1.363 . S
C2384 H2387 0.929 . S
C2385 C2384 1.363 . S
C2385 C2391 1.428 . S
H2386 C2382 0.930 . S
H2387 C2384 0.929 . S
S2388 N2389 1.613 . S
S2388 N2390 1.610 . S
N2389 S2388 1.613 . S
N2389 C2392 1.350 . S
N2390 S2388 1.610 . S
N2390 C2391 1.351 . S
C2391 C2385 1.428 . S
C2391 N2390 1.351 . S
C2391 C2392 1.434 . S
C2392 C2383 1.429 . S
C2392 N2389 1.350 . S
C2392 C2391 1.434 . S
C2393 C2394 1.369 . S
C2393 C2395 1.419 1_565 S
C2393 H2397 0.930 . S
C2394 C2393 1.369 . S
C2394 C2403 1.429 . S
C2395 C2393 1.419 1_545 S
C2395 C2396 1.363 . S
C2395 H2398 0.929 . S
C2396 C2395 1.363 . S
C2396 C2402 1.428 . S
H2397 C2393 0.930 . S
H2398 C2395 0.929 . S
S2399 N2400 1.613 1_545 S
S2399 N2401 1.610 . S
N2400 S2399 1.613 1_565 S
N2400 C2403 1.350 . S
N2401 S2399 1.610 . S
N2401 C2402 1.351 . S
C2402 C2396 1.428 . S
C2402 N2401 1.351 . S
C2402 C2403 1.434 1_545 S
C2403 C2394 1.429 . S
C2403 N2400 1.350 . S
C2403 C2402 1.434 1_565 S
C2404 C2405 1.369 . S
C2404 C2406 1.419 . S
C2404 H2408 0.930 . S
C2405 C2404 1.369 . S
C2405 C2414 1.429 . S
C2406 C2404 1.419 . S
C2406 C2407 1.363 . S
C2406 H2409 0.929 . S
C2407 C2406 1.363 . S
C2407 C2413 1.428 . S
H2408 C2404 0.930 . S
H2409 C2406 0.929 . S
S2410 N2411 1.613 . S
S2410 N2412 1.610 . S
N2411 S2410 1.613 . S
N2411 C2414 1.350 . S
N2412 S2410 1.610 . S
N2412 C2413 1.351 . S
C2413 C2407 1.428 . S
C2413 N2412 1.351 . S
C2413 C2414 1.434 . S
C2414 C2405 1.429 . S
C2414 N2411 1.350 . S
C2414 C2413 1.434 . S
C2415 C2416 1.369 . S
C2415 C2417 1.419 . S
C2415 H2419 0.930 . S
C2416 C2415 1.369 . S
C2416 C2425 1.429 . S
C2417 C2415 1.419 . S
C2417 C2418 1.363 . S
C2417 H2420 0.929 . S
C2418 C2417 1.363 . S
C2418 C2424 1.428 . S
H2419 C2415 0.930 . S
H2420 C2417 0.929 . S
S2421 N2422 1.613 . S
S2421 N2423 1.610 . S
N2422 S2421 1.613 . S
N2422 C2425 1.350 . S
N2423 S2421 1.610 . S
N2423 C2424 1.351 . S
C2424 C2418 1.428 . S
C2424 N2423 1.351 . S
C2424 C2425 1.434 . S
C2425 C2416 1.429 . S
C2425 N2422 1.350 . S
C2425 C2424 1.434 . S
C2426 C2427 1.369 . S
C2426 C2428 1.419 . S
C2426 H2430 0.930 . S
C2427 C2426 1.369 . S
C2427 C2436 1.429 . S
C2428 C2426 1.419 . S
C2428 C2429 1.363 . S
C2428 H2431 0.929 . S
C2429 C2428 1.363 . S
C2429 C2435 1.428 . S
H2430 C2426 0.930 . S
H2431 C2428 0.929 . S
S2432 N2433 1.613 . S
S2432 N2434 1.610 . S
N2433 S2432 1.613 . S
N2433 C2436 1.350 . S
N2434 S2432 1.610 . S
N2434 C2435 1.351 . S
C2435 C2429 1.428 . S
C2435 N2434 1.351 . S
C2435 C2436 1.434 . S
C2436 C2427 1.429 . S
C2436 N2433 1.350 . S
C2436 C2435 1.434 . S
C2437 C2438 1.369 1_565 S
C2437 C2439 1.417 . S
C2437 H2441 0.930 . S
C2438 C2437 1.369 1_545 S
C2438 C2447 1.429 1_554 S
C2439 C2437 1.417 . S
C2439 C2440 1.365 1_554 S
C2439 H2442 0.929 . S
C2440 C2439 1.365 1_556 S
C2440 C2446 1.428 1_565 S
H2441 C2437 0.930 . S
H2442 C2439 0.929 . S
S2443 N2444 1.613 . S
S2443 N2445 1.610 . S
N2444 S2443 1.613 . S
N2444 C2447 1.350 . S
N2445 S2443 1.610 . S
N2445 C2446 1.351 . S
C2446 C2440 1.428 1_545 S
C2446 N2445 1.351 . S
C2446 C2447 1.434 . S
C2447 C2438 1.429 1_556 S
C2447 N2444 1.350 . S
C2447 C2446 1.434 . S
C2448 C2449 1.369 . S
C2448 C2450 1.419 . S
C2448 H2452 0.930 . S
C2449 C2448 1.369 . S
C2449 C2458 1.429 . S
C2450 C2448 1.419 . S
C2450 C2451 1.363 . S
C2450 H2453 0.929 . S
C2451 C2450 1.363 . S
C2451 C2457 1.428 . S
H2452 C2448 0.930 . S
H2453 C2450 0.929 . S
S2454 N2455 1.609 1_655 S
S2454 N2456 1.603 1_655 S
N2455 S2454 1.609 1_455 S
N2455 C2458 1.356 . S
N2456 S2454 1.603 1_455 S
N2456 C2457 1.362 . S
C2457 C2451 1.428 . S
C2457 N2456 1.362 . S
C2457 C2458 1.434 . S
C2458 C2449 1.429 . S
C2458 N2455 1.356 . S
C2458 C2457 1.434 . S
C2459 C2460 1.369 . S
C2459 C2461 1.419 . S
C2459 H2463 0.930 . S
C2460 C2459 1.369 . S
C2460 C2469 1.429 . S
C2461 C2459 1.419 . S
C2461 C2462 1.363 . S
C2461 H2464 0.929 . S
C2462 C2461 1.363 . S
C2462 C2468 1.428 . S
H2463 C2459 0.930 . S
H2464 C2461 0.929 . S
S2465 N2466 1.613 . S
S2465 N2467 1.610 . S
N2466 S2465 1.613 . S
N2466 C2469 1.350 . S
N2467 S2465 1.610 . S
N2467 C2468 1.351 . S
C2468 C2462 1.428 . S
C2468 N2467 1.351 . S
C2468 C2469 1.434 . S
C2469 C2460 1.429 . S
C2469 N2466 1.350 . S
C2469 C2468 1.434 . S
C2470 C2471 1.369 . S
C2470 C2472 1.419 . S
C2470 H2474 0.955 . S
C2471 C2470 1.369 . S
C2471 C2480 1.429 . S
C2472 C2470 1.419 . S
C2472 C2473 1.363 . S
C2472 H2475 0.943 . S
C2473 C2472 1.363 . S
C2473 C2479 1.428 . S
H2474 C2470 0.955 . S
H2475 C2472 0.943 . S
S2476 N2477 1.613 . S
S2476 N2478 1.610 . S
N2477 S2476 1.613 . S
N2477 C2480 1.350 . S
N2478 S2476 1.610 . S
N2478 C2479 1.351 . S
C2479 C2473 1.428 . S
C2479 N2478 1.351 . S
C2479 C2480 1.434 . S
C2480 C2471 1.429 . S
C2480 N2477 1.350 . S
C2480 C2479 1.434 . S
C2481 C2482 1.369 . S
C2481 C2483 1.419 . S
C2481 H2485 0.930 . S
C2482 C2481 1.369 . S
C2482 C2491 1.429 . S
C2483 C2481 1.419 . S
C2483 C2484 1.363 . S
C2483 H2486 0.929 . S
C2484 C2483 1.363 . S
C2484 C2490 1.428 . S
H2485 C2481 0.930 . S
H2486 C2483 0.929 . S
S2487 N2488 1.613 . S
S2487 N2489 1.610 . S
N2488 S2487 1.613 . S
N2488 C2491 1.350 . S
N2489 S2487 1.610 . S
N2489 C2490 1.351 . S
C2490 C2484 1.428 . S
C2490 N2489 1.351 . S
C2490 C2491 1.434 . S
C2491 C2482 1.429 . S
C2491 N2488 1.350 . S
C2491 C2490 1.434 . S
C2492 C2493 1.369 . S
C2492 C2494 1.419 . S
C2492 H2496 0.930 . S
C2493 C2492 1.369 . S
C2493 C2502 1.429 1_455 S
C2494 C2492 1.419 . S
C2494 C2495 1.363 . S
C2494 H2497 0.929 . S
C2495 C2494 1.363 . S
C2495 C2501 1.428 1_455 S
H2496 C2492 0.930 . S
H2497 C2494 0.929 . S
S2498 N2499 1.613 . S
S2498 N2500 1.610 . S
N2499 S2498 1.613 . S
N2499 C2502 1.350 . S
N2500 S2498 1.610 . S
N2500 C2501 1.351 . S
C2501 C2495 1.428 1_655 S
C2501 N2500 1.351 . S
C2501 C2502 1.434 . S
C2502 C2493 1.429 1_655 S
C2502 N2499 1.350 . S
C2502 C2501 1.434 . S
C2503 C2504 1.369 . S
C2503 C2505 1.419 . S
C2503 H2507 0.930 . S
C2504 C2503 1.369 . S
C2504 C2513 1.429 . S
C2505 C2503 1.419 . S
C2505 C2506 1.363 . S
C2505 H2508 0.929 . S
C2506 C2505 1.363 . S
C2506 C2512 1.428 . S
H2507 C2503 0.930 . S
H2508 C2505 0.929 . S
S2509 N2510 1.613 . S
S2509 N2511 1.610 . S
N2510 S2509 1.613 . S
N2510 C2513 1.350 . S
N2511 S2509 1.610 . S
N2511 C2512 1.351 . S
C2512 C2506 1.428 . S
C2512 N2511 1.351 . S
C2512 C2513 1.434 . S
C2513 C2504 1.429 . S
C2513 N2510 1.350 . S
C2513 C2512 1.434 . S
C2514 C2515 1.369 . S
C2514 C2516 1.419 . S
C2514 H2518 0.930 . S
C2515 C2514 1.369 . S
C2515 C2524 1.429 . S
C2516 C2514 1.419 . S
C2516 C2517 1.363 . S
C2516 H2519 0.929 . S
C2517 C2516 1.363 . S
C2517 C2523 1.428 . S
H2518 C2514 0.930 . S
H2519 C2516 0.929 . S
S2520 N2521 1.613 . S
S2520 N2522 1.610 . S
N2521 S2520 1.613 . S
N2521 C2524 1.350 . S
N2522 S2520 1.610 . S
N2522 C2523 1.351 . S
C2523 C2517 1.428 . S
C2523 N2522 1.351 . S
C2523 C2524 1.434 . S
C2524 C2515 1.429 . S
C2524 N2521 1.350 . S
C2524 C2523 1.434 . S
C2525 C2526 1.369 . S
C2525 C2527 1.419 . S
C2525 H2529 0.930 . S
C2526 C2525 1.369 . S
C2526 C2535 1.429 . S
C2527 C2525 1.419 . S
C2527 C2528 1.363 . S
C2527 H2530 0.929 . S
C2528 C2527 1.363 . S
C2528 C2534 1.428 . S
H2529 C2525 0.930 . S
H2530 C2527 0.929 . S
S2531 N2532 1.613 . S
S2531 N2533 1.610 . S
N2532 S2531 1.613 . S
N2532 C2535 1.350 . S
N2533 S2531 1.610 . S
N2533 C2534 1.351 . S
C2534 C2528 1.428 . S
C2534 N2533 1.351 . S
C2534 C2535 1.434 . S
C2535 C2526 1.429 . S
C2535 N2532 1.350 . S
C2535 C2534 1.434 . S
C2536 C2537 1.369 . S
C2536 C2538 1.419 . S
C2536 H2540 0.930 . S
C2537 C2536 1.369 . S
C2537 C2546 1.429 . S
C2538 C2536 1.419 . S
C2538 C2539 1.363 . S
C2538 H2541 0.929 . S
C2539 C2538 1.363 . S
C2539 C2545 1.428 . S
H2540 C2536 0.930 . S
H2541 C2538 0.929 . S
S2542 N2543 1.613 . S
S2542 N2544 1.610 . S
N2543 S2542 1.613 . S
N2543 C2546 1.350 . S
N2544 S2542 1.610 . S
N2544 C2545 1.351 . S
C2545 C2539 1.428 . S
C2545 N2544 1.351 . S
C2545 C2546 1.434 . S
C2546 C2537 1.429 . S
C2546 N2543 1.350 . S
C2546 C2545 1.434 . S
C2547 C2548 1.369 . S
C2547 C2549 1.419 . S
C2547 H2551 0.930 . S
C2548 C2547 1.369 . S
C2548 C2557 1.429 . S
C2549 C2547 1.419 . S
C2549 C2550 1.363 . S
C2549 H2552 0.929 . S
C2550 C2549 1.363 . S
C2550 C2556 1.428 . S
H2551 C2547 0.930 . S
H2552 C2549 0.929 . S
S2553 N2554 1.613 . S
S2553 N2555 1.610 . S
N2554 S2553 1.613 . S
N2554 C2557 1.350 . S
N2555 S2553 1.610 . S
N2555 C2556 1.351 . S
C2556 C2550 1.428 . S
C2556 N2555 1.351 . S
C2556 C2557 1.434 . S
C2557 C2548 1.429 . S
C2557 N2554 1.350 . S
C2557 C2556 1.434 . S
C2558 C2559 1.369 . S
C2558 C2560 1.419 . S
C2558 H2562 0.930 . S
C2559 C2558 1.369 . S
C2559 C2568 1.429 . S
C2560 C2558 1.419 . S
C2560 C2561 1.363 . S
C2560 H2563 0.929 . S
C2561 C2560 1.363 . S
C2561 C2567 1.428 . S
H2562 C2558 0.930 . S
H2563 C2560 0.929 . S
S2564 N2565 1.613 . S
S2564 N2566 1.610 . S
N2565 S2564 1.613 . S
N2565 C2568 1.350 . S
N2566 S2564 1.610 . S
N2566 C2567 1.351 . S
C2567 C2561 1.428 . S
C2567 N2566 1.351 . S
C2567 C2568 1.434 . S
C2568 C2559 1.429 . S
C2568 N2565 1.350 . S
C2568 C2567 1.434 . S
C2569 C2570 1.369 . S
C2569 C2571 1.419 . S
C2569 H2573 0.930 . S
C2570 C2569 1.369 . S
C2570 C2579 1.429 . S
C2571 C2569 1.419 . S
C2571 C2572 1.363 . S
C2571 H2574 0.929 . S
C2572 C2571 1.363 . S
C2572 C2578 1.428 . S
H2573 C2569 0.930 . S
H2574 C2571 0.929 . S
S2575 N2576 1.613 . S
S2575 N2577 1.610 . S
N2576 S2575 1.613 . S
N2576 C2579 1.350 . S
N2577 S2575 1.610 . S
N2577 C2578 1.351 . S
C2578 C2572 1.428 . S
C2578 N2577 1.351 . S
C2578 C2579 1.434 . S
C2579 C2570 1.429 . S
C2579 N2576 1.350 . S
C2579 C2578 1.434 . S
C2580 C2581 1.369 . S
C2580 C2582 1.419 . S
C2580 H2584 0.930 . S
C2581 C2580 1.369 . S
C2581 C2590 1.429 . S
C2582 C2580 1.419 . S
C2582 C2583 1.363 . S
C2582 H2585 0.929 . S
C2583 C2582 1.363 . S
C2583 C2589 1.428 . S
H2584 C2580 0.930 . S
H2585 C2582 0.929 . S
S2586 N2587 1.613 . S
S2586 N2588 1.610 . S
N2587 S2586 1.613 . S
N2587 C2590 1.350 . S
N2588 S2586 1.610 . S
N2588 C2589 1.351 . S
C2589 C2583 1.428 . S
C2589 N2588 1.351 . S
C2589 C2590 1.434 . S
C2590 C2581 1.429 . S
C2590 N2587 1.350 . S
C2590 C2589 1.434 . S
C2591 C2592 1.369 . S
C2591 C2593 1.419 . S
C2591 H2595 0.930 . S
C2592 C2591 1.369 . S
C2592 C2601 1.429 . S
C2593 C2591 1.419 . S
C2593 C2594 1.363 . S
C2593 H2596 0.929 . S
C2594 C2593 1.363 . S
C2594 C2600 1.428 . S
H2595 C2591 0.930 . S
H2596 C2593 0.929 . S
S2597 N2598 1.613 . S
S2597 N2599 1.610 . S
N2598 S2597 1.613 . S
N2598 C2601 1.350 . S
N2599 S2597 1.610 . S
N2599 C2600 1.351 . S
C2600 C2594 1.428 . S
C2600 N2599 1.351 . S
C2600 C2601 1.434 . S
C2601 C2592 1.429 . S
C2601 N2598 1.350 . S
C2601 C2600 1.434 . S
C2602 C2603 1.369 . S
C2602 C2604 1.419 . S
C2602 H2606 0.930 . S
C2603 C2602 1.369 . S
C2603 C2612 1.429 . S
C2604 C2602 1.419 . S
C2604 C2605 1.363 . S
C2604 H2607 0.929 . S
C2605 C2604 1.363 . S
C2605 C2611 1.428 . S
H2606 C2602 0.930 . S
H2607 C2604 0.929 . S
S2608 N2609 1.613 . S
S2608 N2610 1.610 . S
N2609 S2608 1.613 . S
N2609 C2612 1.350 . S
N2610 S2608 1.610 . S
N2610 C2611 1.351 . S
C2611 C2605 1.428 . S
C2611 N2610 1.351 . S
C2611 C2612 1.434 . S
C2612 C2603 1.429 . S
C2612 N2609 1.350 . S
C2612 C2611 1.434 . S
C2613 C2614 1.369 . S
C2613 C2615 1.419 . S
C2613 H2617 0.930 . S
C2614 C2613 1.369 . S
C2614 C2623 1.429 . S
C2615 C2613 1.419 . S
C2615 C2616 1.363 . S
C2615 H2618 0.929 . S
C2616 C2615 1.363 . S
C2616 C2622 1.428 . S
H2617 C2613 0.930 . S
H2618 C2615 0.929 . S
S2619 N2620 1.613 . S
S2619 N2621 1.610 . S
N2620 S2619 1.613 . S
N2620 C2623 1.350 . S
N2621 S2619 1.610 . S
N2621 C2622 1.351 . S
C2622 C2616 1.428 . S
C2622 N2621 1.351 . S
C2622 C2623 1.434 . S
C2623 C2614 1.429 . S
C2623 N2620 1.350 . S
C2623 C2622 1.434 . S
C1217 C973 2.116 . S
C1219 C23 2.116 . S
C1228 C61 2.110 . S
C1230 C935 2.116 . S
C1239 C1049 2.117 . S
C1241 C99 2.115 . S
C1250 C137 2.112 . S
C1252 C1011 2.117 . S
C1261 C1106 2.110 . S
C1263 C156 2.116 . S
C1272 C194 2.112 . S
C1274 C1068 2.117 . S
C1283 C1182 2.111 . S
C1285 C232 2.117 . S
C1294 C270 2.117 . S
C1296 C1144 2.115 . S
C1305 C327 2.110 . S
C1307 C669 2.116 . S
C1316 C365 2.113 . S
C1318 C631 2.111 . S
C1327 C745 2.115 . S
C1329 C403 2.111 . S
C1338 C441 2.112 . S
C1340 C707 2.117 . S
C1349 C460 2.117 . S
C1351 C802 2.111 . S
C1360 C764 2.110 . S
C1362 C498 2.115 . S
C1371 C878 2.118 . S
C1373 C536 2.112 . S
C1382 C840 2.117 . S
C1384 C574 2.114 . S
C1393 C1104 1.665 1_554 S
C1395 C2 1.642 . S
C1404 C40 1.637 . S
C1406 C154 1.669 1_554 S
C1415 C78 1.635 . S
C1417 C876 1.671 . S
C1426 C116 1.637 . S
C1428 C534 1.670 . S
C1437 C976 1.667 1_556 S
C1439 C178 1.640 . S
C1448 C26 1.672 1_556 S
C1450 C216 1.636 . S
C1459 C748 1.665 . S
C1461 C254 1.643 . S
C1470 C292 1.644 . S
C1472 C406 1.665 . S
C1481 C800 1.671 . S
C1483 C306 1.639 . S
C1492 C458 1.669 . S
C1494 C344 1.638 . S
C1503 C382 1.640 . S
C1505 C1180 1.669 . S
C1514 C230 1.672 . S
C1516 C420 1.636 . S
C1525 C672 1.667 . S
C1527 C482 1.640 . S
C1536 C520 1.642 . S
C1538 C330 1.667 . S
C1547 C558 1.641 . S
C1549 C1052 1.668 . S
C1558 C596 1.637 . S
C1560 C102 1.670 . S
C1569 C610 1.637 . S
C1571 C496 1.669 . S
C1580 C762 1.664 . S
C1582 C648 1.643 . S
C1591 C268 1.665 . S
C1593 C686 1.643 . S
C1602 C1142 1.672 . S
C1604 C724 1.636 . S
C1613 C786 1.639 . S
C1615 C368 1.670 . S
C1624 C824 1.638 . S
C1626 C634 1.669 . S
C1635 C862 1.642 . S
C1637 C140 1.666 . S
C1646 C900 1.635 . S
C1648 C1014 1.671 . S
C1657 C192 1.672 1_554 S
C1659 C914 1.636 . S
C1668 C1066 1.667 1_554 S
C1670 C952 1.642 . S
C1679 C572 1.668 . S
C1681 C990 1.638 . S
C1690 C1028 1.636 . S
C1692 C838 1.671 . S
C1701 C1090 1.643 . S
C1703 C64 1.666 1_556 S
C1712 C1128 1.636 . S
C1714 C938 1.671 1_556 S
C1723 C1166 1.639 . S
C1725 C444 1.668 . S
C1734 C1204 1.636 . S
C1736 C710 1.670 . S
C1745 C248 2.012 . S
C1747 C20 2.040 1_655 S
C1756 C58 2.040 1_545 S
C1758 C1198 2.010 . S
C1767 C476 2.009 . S
C1769 C96 2.039 1_645 S
C1778 C818 2.014 . S
C1780 C134 2.041 . S
C1789 C95 2.010 . S
C1791 C171 2.039 1_455 S
C1800 C209 2.041 1_565 S
C1802 C1045 2.012 . S
C1811 C323 2.008 . S
C1813 C247 2.039 1_465 S
C1822 C285 2.040 . S
C1824 C665 2.011 . S
C1833 C324 2.040 1_655 S
C1835 C552 2.012 . S
C1844 C894 2.012 . S
C1846 C362 2.041 . S
C1855 C400 2.040 1_655 S
C1857 C172 2.011 . S
C1866 C1122 2.012 . S
C1868 C438 2.041 . S
C1877 C475 2.040 1_455 S
C1879 C399 2.010 . S
C1888 C741 2.014 . S
C1890 C513 2.042 . S
C1899 C551 2.039 1_455 S
C1901 C19 2.010 . S
C1910 C969 2.011 . S
C1912 C589 2.040 . S
C1921 C628 2.040 . S
C1923 C856 2.010 . S
C1932 C666 2.040 1_545 S
C1934 C590 2.010 . S
C1943 C1084 2.013 . S
C1945 C704 2.040 1_545 S
C1954 C742 2.041 . S
C1956 C210 2.013 . S
C1965 C703 2.012 . S
C1967 C779 2.041 . S
C1976 C817 2.040 1_565 S
C1978 C437 2.010 . S
C1987 C931 2.009 . S
C1989 C855 2.039 1_565 S
C1998 C893 2.041 . S
C2000 C57 2.013 . S
C2009 C1160 2.012 . S
C2011 C932 2.040 . S
C2020 C970 2.042 . S
C2022 C286 2.013 . S
C2031 C1008 2.041 . S
C2033 C780 2.012 . S
C2042 C1046 2.041 . S
C2044 C514 2.011 . S
C2053 C1007 2.011 . S
C2055 C1083 2.040 . S
C2064 C1121 2.039 . S
C2066 C133 2.010 . S
C2075 C627 2.010 . S
C2077 C1159 2.040 . S
C2086 C1197 2.041 . S
C2088 C361 2.012 . S
C2097 C118 1.649 . S
C2099 C4 1.650 . S
C2108 C80 1.652 . S
C2110 C42 1.652 . S
C2119 C175 1.653 . S
C2121 C289 1.654 . S
C2130 C251 1.650 . S
C2132 C213 1.651 . S
C2141 C422 1.657 . S
C2143 C308 1.656 . S
C2152 C346 1.660 . S
C2154 C384 1.658 . S
C2163 C593 1.659 . S
C2165 C479 1.658 . S
C2174 C555 1.653 . S
C2176 C517 1.654 . S
C2185 C612 1.650 . S
C2187 C726 1.650 . S
C2196 C688 1.654 . S
C2198 C650 1.654 . S
C2207 C783 1.659 . S
C2209 C897 1.657 . S
C2218 C859 1.653 . S
C2220 C821 1.654 . S
C2229 C1030 1.657 . S
C2231 C916 1.656 . S
C2240 C954 1.654 . S
C2242 C992 1.654 . S
C2251 C1087 1.653 . S
C2253 C1201 1.653 . S
C2262 C1125 1.659 . S
C2264 C1163 1.658 . S
C2273 C28 0.955 . S
C2275 C169 0.940 . S
C2284 C1119 0.942 . S
C2286 C66 0.951 . S
C2295 C549 0.955 . S
C2297 C104 0.940 . S
C2306 C891 0.955 . S
C2308 C142 0.941 . S
C2317 C978 0.956 . S
C2319 C207 0.941 . S
C2328 C408 0.953 . S
C2330 C245 0.941 . S
C2339 C283 0.952 . S
C2341 C750 0.944 . S
C2350 C473 0.955 . S
C2352 C332 0.940 . S
C2361 C370 0.955 . S
C2363 C815 0.941 . S
C2372 C446 0.950 . S
C2374 C1195 0.945 . S
C2383 C511 0.949 . S
C2385 C674 0.945 . S
C2394 C1054 0.952 . S
C2396 C587 0.944 . S
C2405 C777 0.952 . S
C2407 C636 0.941 . S
C2416 C1157 0.955 . S
C2418 C712 0.940 . S
C2427 C853 0.938 . S
C2429 C1016 0.953 . S
C2438 C1081 0.940 . S
C2440 C940 0.952 . S
C2449 C93 1.022 . S
C2451 C17 1.010 . S
C2460 C131 1.023 . S
C2462 C55 1.008 . S
C2471 C180 1.007 . S
C2473 C256 1.022 . S
C2482 C218 1.007 . S
C2484 C294 1.022 . S
C2493 C397 1.011 . S
C2495 C321 1.020 . S
C2504 C435 1.024 . S
C2506 C359 1.009 . S
C2515 C484 1.023 . S
C2517 C560 1.009 . S
C2526 C598 1.023 . S
C2528 C522 1.010 . S
C2537 C701 1.024 . S
C2539 C625 1.009 . S
C2548 C663 1.006 . S
C2550 C739 1.022 . S
C2559 C864 1.015 . S
C2561 C788 1.017 . S
C2570 C826 1.017 . S
C2572 C902 1.012 . S
C2581 C929 1.007 . S
C2583 C1005 1.022 . S
C2592 C967 1.021 . S
C2594 C1043 1.010 . S
C2603 C1168 1.008 . S
C2605 C1092 1.022 . S
C2614 C1206 1.007 . S
C2616 C1130 1.020 . S
