# Generated by pormake.
# Topology qtz-e, (6)-cn, num edge types: 1
# Building blocks:
#     Node 0, Type 0, BuildingBlock: LEVNOQ01_clean_sbu_1, # of connection points: 6
#     Node 1, Type 0, BuildingBlock: LEVNOQ01_clean_sbu_1, # of connection points: 6
#     Node 2, Type 0, BuildingBlock: LEVNOQ01_clean_sbu_1, # of connection points: 6
#     Node 3, Type 0, BuildingBlock: LEVNOQ01_clean_sbu_1, # of connection points: 6
#     Node 4, Type 0, BuildingBlock: LEVNOQ01_clean_sbu_1, # of connection points: 6
#     Node 5, Type 0, BuildingBlock: LEVNOQ01_clean_sbu_1, # of connection points: 6
#     Edge 6, Type (0, 0), BuildingBlock: XUDNAN_clean_linker_2, # of connection points: 2
#     Edge 7, Type (0, 0), BuildingBlock: XUDNAN_clean_linker_2, # of connection points: 2
#     Edge 8, Type (0, 0), BuildingBlock: XUDNAN_clean_linker_2, # of connection points: 2
#     Edge 9, Type (0, 0), BuildingBlock: XUDNAN_clean_linker_2, # of connection points: 2
#     Edge 10, Type (0, 0), BuildingBlock: XUDNAN_clean_linker_2, # of connection points: 2
#     Edge 11, Type (0, 0), BuildingBlock: XUDNAN_clean_linker_2, # of connection points: 2
#     Edge 12, Type (0, 0), BuildingBlock: XUDNAN_clean_linker_2, # of connection points: 2
#     Edge 13, Type (0, 0), BuildingBlock: XUDNAN_clean_linker_2, # of connection points: 2
#     Edge 14, Type (0, 0), BuildingBlock: XUDNAN_clean_linker_2, # of connection points: 2
#     Edge 15, Type (0, 0), BuildingBlock: XUDNAN_clean_linker_2, # of connection points: 2
#     Edge 16, Type (0, 0), BuildingBlock: XUDNAN_clean_linker_2, # of connection points: 2
#     Edge 17, Type (0, 0), BuildingBlock: XUDNAN_clean_linker_2, # of connection points: 2
#     Edge 18, Type (0, 0), BuildingBlock: XUDNAN_clean_linker_2, # of connection points: 2
#     Edge 19, Type (0, 0), BuildingBlock: XUDNAN_clean_linker_2, # of connection points: 2
#     Edge 20, Type (0, 0), BuildingBlock: XUDNAN_clean_linker_2, # of connection points: 2
#     Edge 21, Type (0, 0), BuildingBlock: XUDNAN_clean_linker_2, # of connection points: 2
#     Edge 22, Type (0, 0), BuildingBlock: XUDNAN_clean_linker_2, # of connection points: 2
#     Edge 23, Type (0, 0), BuildingBlock: XUDNAN_clean_linker_2, # of connection points: 2
# Relax obj value: 0.330
# Max RMSD: 0.227
# Mean RMSD: 0.227
data_MOF--net-qtz-e--node1-LEVNOQ01_clean_sbu_1--edge1-XUDNAN_clean_linker_2
_symmetry_space_group_name_H-M    P1
_symmetry_Int_Tables_number       1
_symmetry_cell_setting            triclinic
loop_
_symmetry_equiv_pos_as_xyz
'x, y, z'
_cell_length_a     28.374209
_cell_length_b     28.303594
_cell_length_c     31.532387
_cell_angle_alpha  91.625811
_cell_angle_beta   89.132467
_cell_angle_gamma 119.93016
loop_
_atom_site_label
_atom_site_type_symbol
_atom_site_fract_x
_atom_site_fract_y
_atom_site_fract_z
_atom_type_partial_charge
O0 O 0.29516 0.47639 0.93908 0.0
Mg1 Mg 0.22103 0.47864 0.93404 0.0
O2 O 0.25795 0.41208 -0.01353 0.0
Mg3 Mg 0.17315 0.38552 0.96245 0.0
O4 O 0.18097 0.46904 -0.0111 0.0
O5 O 0.23355 0.55026 0.95856 0.0
O6 O 0.08924 0.3627 0.9396 0.0
O7 O 0.14018 0.36069 0.02996 0.0
Mg8 Mg 0.08119 0.25218 0.96688 0.0
O9 O 0.15902 0.30202 0.94656 0.0
O10 O 0.02835 0.27461 0.93526 0.0
O11 O 0.08686 0.27037 0.03342 0.0
O12 O 0.12201 0.21349 0.93871 0.0
C13 C 0.19436 0.4288 0.86432 0.0
C14 C 0.29989 0.44889 0.96808 0.0
C15 C 0.20179 0.52168 -0.01125 0.0
C16 C 0.0417 0.32428 0.93045 0.0
C17 C 0.11134 0.31768 0.05088 0.0
C18 C 0.16415 0.26109 0.93452 0.0
O19 O 0.17203 0.4546 0.87897 0.0
O20 O 0.20609 0.40333 0.89094 0.0
O21 O 0.75981 0.06339 0.32911 0.0
Mg22 Mg 0.76336 0.09115 0.2656 0.0
O23 O 0.77466 0.13955 0.36352 0.0
Mg24 Mg 0.78468 0.20539 0.3207 0.0
O25 O 0.81704 0.1729 0.27145 0.0
O26 O 0.83559 0.1231 0.22785 0.0
O27 O 0.79613 0.2757 0.28072 0.0
O28 O 0.87319 0.26343 0.34301 0.0
Mg29 Mg 0.80614 0.30272 0.39058 0.0
O30 O 0.74365 0.23116 0.37107 0.0
O31 O 0.82225 0.34311 0.32991 0.0
O32 O 0.85701 0.272 0.40912 0.0
O33 O 0.73119 0.27864 0.42165 0.0
C34 C 0.66895 0.1097 0.27188 0.0
C35 C 0.76507 0.09067 0.36336 0.0
C36 C 0.85031 0.17004 0.24532 0.0
C37 C 0.81342 0.32573 0.29124 0.0
C38 C 0.89119 0.28498 0.3794 0.0
C39 C 0.71087 0.23643 0.3967 0.0
O40 O 0.68659 0.08368 0.24949 0.0
O41 O 0.69999 0.14935 0.29642 0.0
O42 O 0.58508 0.87553 0.72901 0.0
Mg43 Mg 0.52496 0.81423 0.6887 0.0
O44 O 0.61079 0.8837 0.66391 0.0
Mg45 Mg 0.59754 0.79453 0.65806 0.0
O46 O 0.51674 0.74017 0.69767 0.0
O47 O 0.45648 0.76495 0.72021 0.0
O48 O 0.59229 0.71303 0.64867 0.0
O49 O 0.64911 0.80944 0.71703 0.0
Mg50 Mg 0.71741 0.79846 0.63094 0.0
O51 O 0.67033 0.83062 0.61909 0.0
O52 O 0.66452 0.71198 0.62078 0.0
O53 O 0.7295 0.81934 0.69688 0.0
O54 O 0.74565 0.85926 0.58331 0.0
C55 C 0.51691 0.80011 0.59348 0.0
C56 C 0.60682 0.90621 0.69819 0.0
C57 C 0.47115 0.7286 0.71636 0.0
C58 C 0.61589 0.68758 0.63468 0.0
C59 C 0.69696 0.81893 0.7255 0.0
C60 C 0.70275 0.86239 0.59143 0.0
O61 O 0.50689 0.82415 0.62397 0.0
O62 O 0.54712 0.77957 0.59932 0.0
O63 O 0.87315 0.67321 0.03348 0.0
Mg64 Mg 0.8726 0.64393 0.97198 0.0
O65 O 0.815 0.58895 0.04997 0.0
Mg66 Mg 0.7539 0.55194 -0.00603 0.0
O67 O 0.7985 0.62537 0.95069 0.0
O68 O 0.87592 0.69216 0.92431 0.0
O69 O 0.69305 0.50976 0.93896 0.0
O70 O 0.69986 0.58682 0.01835 0.0
Mg71 Mg 0.63135 0.44877 0.02831 0.0
O72 O 0.7106 0.48037 0.03365 0.0
O73 O 0.62011 0.43379 0.96164 0.0
O74 O 0.62702 0.51846 0.04929 0.0
O75 O 0.65731 0.40874 0.07043 0.0
C76 C 0.85227 0.52818 0.96034 0.0
C77 C 0.85524 0.63533 0.05977 0.0
C78 C 0.82347 0.6668 0.92622 0.0
C79 C 0.64773 0.46616 0.93226 0.0
C80 C 0.65522 0.5683 0.03906 0.0
C81 C 0.7058 0.44674 0.06177 0.0
O82 O 0.88814 0.57842 0.9604 0.0
O83 O 0.80292 0.51275 0.96948 0.0
O84 O 0.14349 0.66941 0.29488 0.0
Mg85 Mg 0.22303 0.73851 0.29954 0.0
O86 O 0.11472 0.71267 0.33682 0.0
Mg87 Mg 0.18896 0.79461 0.31887 0.0
O88 O 0.25071 0.77365 0.3572 0.0
O89 O 0.2646 0.7087 0.32671 0.0
O90 O 0.26208 0.8755 0.30165 0.0
O91 O 0.18188 0.83098 0.38421 0.0
Mg92 Mg 0.15682 0.89735 0.30823 0.0
O93 O 0.13741 0.82206 0.29043 0.0
O94 O 0.24176 0.9416 0.29298 0.0
O95 O 0.14263 0.88184 0.37355 0.0
O96 O 0.09503 0.85895 0.26073 0.0
C97 C 0.22112 0.76001 0.22496 0.0
C98 C 0.10679 0.66865 0.31857 0.0
C99 C 0.27169 0.74179 0.35797 0.0
C100 C 0.2754 0.92419 0.29264 0.0
C101 C 0.15931 0.85804 0.39784 0.0
C102 C 0.10288 0.81818 0.26339 0.0
O103 O 0.26553 0.77285 0.2427 0.0
O104 O 0.18401 0.76063 0.24763 0.0
O105 O 0.32139 0.16207 0.72826 0.0
Mg106 Mg 0.29407 0.18496 0.67556 0.0
O107 O 0.39741 0.23057 0.70637 0.0
Mg108 Mg 0.39732 0.2054 0.634 0.0
O109 O 0.30552 0.14527 0.62614 0.0
O110 O 0.22302 0.12695 0.64864 0.0
O111 O 0.40206 0.17943 0.56288 0.0
O112 O 0.41291 0.13807 0.65391 0.0
Mg113 Mg 0.51774 0.23829 0.5934 0.0
O114 O 0.48595 0.26364 0.63881 0.0
O115 O 0.47886 0.24704 0.53981 0.0
O116 O 0.48812 0.15713 0.61644 0.0
O117 O 0.57436 0.30617 0.63111 0.0
C118 C 0.36576 0.29802 0.6374 0.0
C119 C 0.36762 0.20214 0.73687 0.0
C120 C 0.25302 0.11488 0.6247 0.0
C121 C 0.43407 0.20418 0.53216 0.0
C122 C 0.44914 0.12676 0.64121 0.0
C123 C 0.53265 0.30104 0.65168 0.0
O124 O 0.33011 0.27049 0.66505 0.0
O125 O 0.38741 0.2764 0.61434 0.0
H126 H 0.28888 0.75769 0.16337 0.0
H127 H 0.11985 0.67913 0.20269 0.0
H128 H 0.09546 0.61039 0.14522 0.0
H129 H 0.26899 0.73258 0.04973 0.0
H130 H 0.32343 0.71742 0.04401 0.0
H131 H 0.32608 0.76361 0.08558 0.0
H132 H 0.33748 0.7041 0.14101 0.0
H133 H 0.33376 0.65713 0.09967 0.0
H134 H 0.28732 0.63278 0.14387 0.0
H135 H 0.09088 0.54435 0.08812 0.0
H136 H 0.10593 0.49224 0.02998 0.0
H137 H 0.27729 0.61377 0.02845 0.0
C138 C 0.24653 0.72706 0.15895 0.0
C139 C 0.2059 0.72542 0.18615 0.0
C140 C 0.15123 0.68314 0.18069 0.0
C141 C 0.13708 0.64315 0.14865 0.0
C142 C 0.17827 0.64537 0.12287 0.0
C143 C 0.23183 0.68637 0.1275 0.0
C144 C 0.2688 0.67756 0.09739 0.0
C145 C 0.29855 0.72565 0.06738 0.0
C146 C 0.30922 0.66729 0.12195 0.0
C147 C 0.2274 0.6264 0.0741 0.0
C148 C 0.17555 0.6076 0.08991 0.0
C149 C 0.13114 0.55911 0.07497 0.0
C150 C 0.13996 0.52976 0.04221 0.0
C151 C 0.19239 0.54999 0.02453 0.0
C152 C 0.23657 0.59844 0.04094 0.0
H153 H 0.46017 0.12607 0.53243 0.0
H154 H 0.4199 0.21925 0.44949 0.0
H155 H 0.46882 0.20311 0.39096 0.0
H156 H 0.58181 0.18841 0.51761 0.0
H157 H 0.60087 0.13635 0.51689 0.0
H158 H 0.53972 0.12412 0.543 0.0
H159 H 0.48276 0.03738 0.49678 0.0
H160 H 0.54474 0.04813 0.47153 0.0
H161 H 0.48885 0.04044 0.4399 0.0
H162 H 0.54592 0.20885 0.35229 0.0
H163 H 0.64325 0.24109 0.34034 0.0
H164 H 0.64681 0.15755 0.45172 0.0
C165 C 0.45823 0.13904 0.50085 0.0
C166 C 0.43518 0.17247 0.49486 0.0
C167 C 0.43569 0.19194 0.45414 0.0
C168 C 0.46383 0.18309 0.42077 0.0
C169 C 0.49222 0.15571 0.42895 0.0
C170 C 0.4889 0.13297 0.46808 0.0
C171 C 0.53429 0.11979 0.47326 0.0
C172 C 0.56602 0.14373 0.5151 0.0
C173 C 0.51133 0.05778 0.47015 0.0
C174 C 0.56856 0.14718 0.43459 0.0
C175 C 0.54137 0.1635 0.40777 0.0
C176 C 0.56694 0.19507 0.37245 0.0
C177 C 0.62226 0.21322 0.3658 0.0
C178 C 0.65166 0.2009 0.39487 0.0
C179 C 0.62421 0.16581 0.42858 0.0
H180 H 0.19508 0.50268 0.81122 0.0
H181 H 0.27222 0.40615 0.83226 0.0
H182 H 0.34859 0.46714 0.78611 0.0
H183 H 0.25074 0.55562 0.70272 0.0
H184 H 0.26044 0.62167 0.71829 0.0
H185 H 0.20498 0.56096 0.74031 0.0
H186 H 0.23929 0.60098 0.81581 0.0
H187 H 0.29575 0.6608 0.79429 0.0
H188 H 0.30771 0.62001 0.83075 0.0
H189 H 0.42531 0.55023 0.75011 0.0
H190 H 0.49106 0.64344 0.72623 0.0
H191 H 0.36507 0.68734 0.73722 0.0
C192 C 0.22658 0.49253 0.80451 0.0
C193 C 0.22758 0.44962 0.82541 0.0
C194 C 0.27025 0.43852 0.81632 0.0
C195 C 0.31406 0.47325 0.79033 0.0
C196 C 0.31437 0.51864 0.77378 0.0
C197 C 0.27118 0.5278 0.78021 0.0
C198 C 0.28479 0.5839 0.76647 0.0
C199 C 0.24806 0.58029 0.72974 0.0
C200 C 0.28171 0.61839 0.80406 0.0
C201 C 0.34265 0.60545 0.75202 0.0
C202 C 0.35909 0.56727 0.75565 0.0
C203 C 0.41246 0.58005 0.74656 0.0
C204 C 0.4496 0.63308 0.73331 0.0
C205 C 0.43325 0.67266 0.73017 0.0
C206 C 0.37901 0.65817 0.73943 0.0
H207 H 0.81633 0.31095 0.20537 0.0
H208 H 0.82144 0.4255 0.30212 0.0
H209 H 0.8194 0.48364 0.24689 0.0
H210 H 0.84595 0.36827 0.0781 0.0
H211 H 0.8639 0.34298 0.12327 0.0
H212 H 0.89113 0.41517 0.11812 0.0
H213 H 0.7624 0.28055 0.14178 0.0
H214 H 0.74393 0.30445 0.09645 0.0
H215 H 0.71928 0.31025 0.14828 0.0
H216 H 0.80024 0.52062 0.18427 0.0
H217 H 0.75245 0.5254 0.12163 0.0
H218 H 0.75329 0.38473 0.06555 0.0
C219 C 0.81918 0.34938 0.21477 0.0
C220 C 0.81985 0.36408 0.25797 0.0
C221 C 0.82192 0.41384 0.26917 0.0
C222 C 0.82168 0.44772 0.23789 0.0
C223 C 0.81997 0.4317 0.19549 0.0
C224 C 0.81853 0.38347 0.18386 0.0
C225 C 0.80535 0.36983 0.13723 0.0
C226 C 0.85455 0.37439 0.11271 0.0
C227 C 0.75473 0.31297 0.1306 0.0
C228 C 0.79473 0.41506 0.12546 0.0
C229 C 0.80627 0.452 0.15889 0.0
C230 C 0.79349 0.49351 0.15736 0.0
C231 C 0.76629 0.49596 0.12166 0.0
C232 C 0.75079 0.4561 0.08887 0.0
C233 C 0.7668 0.41656 0.08989 0.0
H234 H 0.4804 0.86133 0.55333 0.0
H235 H 0.48364 0.70965 0.54421 0.0
H236 H 0.41995 0.6792 0.48432 0.0
H237 H 0.34032 0.8061 0.53183 0.0
H238 H 0.34731 0.86044 0.49905 0.0
H239 H 0.39677 0.87426 0.53959 0.0
H240 H 0.47479 0.91399 0.48509 0.0
H241 H 0.42631 0.90215 0.44407 0.0
H242 H 0.47101 0.87424 0.43823 0.0
H243 H 0.35075 0.66053 0.43192 0.0
H244 H 0.28837 0.65963 0.37875 0.0
H245 H 0.32877 0.82405 0.41813 0.0
C246 C 0.46752 0.82181 0.53865 0.0
C247 C 0.48608 0.78739 0.55376 0.0
C248 C 0.47003 0.73668 0.53299 0.0
C249 C 0.43352 0.71881 0.49922 0.0
C250 C 0.41417 0.75254 0.48623 0.0
C251 C 0.4313 0.80348 0.5044 0.0
C252 C 0.40416 0.83142 0.48337 0.0
C253 C 0.37007 0.84372 0.51539 0.0
C254 C 0.44659 0.88352 0.46137 0.0
C255 C 0.36822 0.7874 0.45134 0.0
C256 C 0.37478 0.74234 0.45405 0.0
C257 C 0.34579 0.69579 0.42886 0.0
C258 C 0.31038 0.69576 0.3988 0.0
C259 C 0.30434 0.74209 0.39392 0.0
C260 C 0.33271 0.78816 0.4212 0.0
H261 H 0.6322 0.37634 0.88909 0.0
H262 H 0.62061 0.52235 0.87807 0.0
H263 H 0.58005 0.49108 0.80631 0.0
H264 H 0.67745 0.37979 0.78196 0.0
H265 H 0.64401 0.3066 0.77609 0.0
H266 H 0.66654 0.3386 0.82761 0.0
H267 H 0.56859 0.27959 0.85681 0.0
H268 H 0.54572 0.24784 0.80521 0.0
H269 H 0.51281 0.28107 0.83145 0.0
H270 H 0.53916 0.4417 0.73606 0.0
H271 H 0.5166 0.38699 0.66866 0.0
H272 H 0.56503 0.27975 0.72452 0.0
C273 C 0.62071 0.40138 0.8715 0.0
C274 C 0.62783 0.45072 0.88886 0.0
C275 C 0.61424 0.48378 0.86504 0.0
C276 C 0.59113 0.46628 0.82455 0.0
C277 C 0.58377 0.41667 0.80834 0.0
C278 C 0.59957 0.38552 0.83072 0.0
C279 C 0.59306 0.33701 0.80483 0.0
C280 C 0.64855 0.34075 0.79716 0.0
C281 C 0.55261 0.2832 0.82584 0.0
C282 C 0.57026 0.34506 0.76449 0.0
C283 C 0.56423 0.39064 0.76723 0.0
C284 C 0.54399 0.40613 0.73349 0.0
C285 C 0.53112 0.37498 0.69558 0.0
C286 C 0.53942 0.32986 0.6921 0.0
C287 C 0.55844 0.3143 0.72692 0.0
H288 H 0.39429 0.47486 0.92671 0.0
H289 H 0.32562 0.47167 0.05102 0.0
H290 H 0.41809 0.52763 0.08074 0.0
H291 H 0.50347 0.45939 0.97155 0.0
H292 H 0.55112 0.49802 0.93085 0.0
H293 H 0.47968 0.46009 0.919 0.0
H294 H 0.48344 0.54746 0.89292 0.0
H295 H 0.55492 0.58691 0.90497 0.0
H296 H 0.50845 0.60677 0.92769 0.0
H297 H 0.51688 0.58022 0.09717 0.0
H298 H 0.6128 0.60359 0.10258 0.0
H299 H 0.61844 0.58112 0.9668 0.0
C300 C 0.39906 0.48568 0.96024 0.0
C301 C 0.35354 0.46956 -0.01327 0.0
C302 C 0.36054 0.48336 0.03052 0.0
C303 C 0.41269 0.51597 0.04742 0.0
C304 C 0.457 0.53369 0.02005 0.0
C305 C 0.45076 0.51735 0.97777 0.0
C306 C 0.50494 0.53556 0.95657 0.0
C307 C 0.51007 0.48532 0.94373 0.0
C308 C 0.5134 0.57134 0.91828 0.0
C309 C 0.5429 0.56781 -0.00721 0.0
C310 C 0.51438 0.56571 0.02933 0.0
C311 C 0.53993 0.58335 0.06869 0.0
C312 C 0.59483 0.59795 0.07146 0.0
C313 C 0.62279 0.59478 0.03503 0.0
C314 C 0.5984 0.58596 -0.00522 0.0
H315 H 0.06255 0.57296 0.27309 0.0
H316 H 0.05574 0.64385 0.3953 0.0
H317 H 0.00687 0.55186 0.42536 0.0
H318 H 0.92895 0.45169 0.28154 0.0
H319 H 0.94824 0.40622 0.25559 0.0
H320 H 0.98094 0.4769 0.24143 0.0
H321 H 0.07508 0.49085 0.25825 0.0
H322 H 0.0451 0.42027 0.27193 0.0
H323 H 0.08813 0.47311 0.30951 0.0
H324 H 0.9732 0.45541 0.44458 0.0
H325 H 0.92797 0.35553 0.44764 0.0
H326 H 0.95232 0.34633 0.31181 0.0
C327 C 0.04923 0.56888 0.30585 0.0
C328 C 0.06304 0.61527 0.33206 0.0
C329 C 0.04506 0.60869 0.37468 0.0
C330 C 0.01817 0.55675 0.39217 0.0
C331 C 0.00903 0.51223 0.36631 0.0
C332 C 0.0221 0.51742 0.32369 0.0
C333 C 0.00667 0.46279 0.30272 0.0
C334 C 0.96361 0.44843 0.26823 0.0
C335 C 0.05676 0.46174 0.28455 0.0
C336 C 0.98351 0.42613 0.34051 0.0
C337 C -0.01347 0.4558 0.37696 0.0
C338 C 0.96934 0.43147 0.41611 0.0
C339 C 0.9443 0.37468 0.41755 0.0
C340 C 0.93521 0.34275 0.37983 0.0
C341 C 0.95805 0.36926 0.34123 0.0
H342 H 0.44799 0.03964 0.60317 0.0
H343 H 0.46672 0.12287 0.72434 0.0
H344 H 0.51222 0.07565 0.75338 0.0
H345 H 0.42933 0.90912 0.65738 0.0
H346 H 0.46041 0.89438 0.61296 0.0
H347 H 0.41918 0.92552 0.60482 0.0
H348 H 0.49862 0.00387 0.56529 0.0
H349 H 0.54219 0.97598 0.57377 0.0
H350 H 0.56299 0.0447 0.59178 0.0
H351 H 0.57033 0.03247 0.76406 0.0
H352 H 0.6186 0.97971 0.76097 0.0
H353 H 0.56483 0.93025 0.631 0.0
C354 C 0.45918 0.04546 0.63641 0.0
C355 C 0.45395 0.0841 0.66182 0.0
C356 C 0.46968 0.09223 0.70493 0.0
C357 C 0.49608 0.06618 0.72145 0.0
C358 C 0.50474 0.03139 0.69451 0.0
C359 C 0.4845 0.01904 0.65355 0.0
C360 C 0.49995 0.98107 0.63098 0.0
C361 C 0.44926 0.92416 0.62614 0.0
C362 C 0.52764 0.0028 0.58794 0.0
C363 C 0.53866 0.98073 0.66307 0.0
C364 C 0.53911 0.00791 0.70027 0.0
C365 C 0.56997 0.01068 0.7352 0.0
C366 C 0.59817 0.9817 0.7329 0.0
C367 C 0.59616 0.95172 0.69558 0.0
C368 C 0.56814 0.95361 0.65969 0.0
H369 H 0.58364 0.60287 0.5764 0.0
H370 H 0.58255 0.64278 0.71009 0.0
H371 H 0.51528 0.54711 0.724 0.0
H372 H 0.44523 0.51205 0.56651 0.0
H373 H 0.4499 0.46289 0.53174 0.0
H374 H 0.50299 0.53328 0.53173 0.0
H375 H 0.57538 0.50605 0.54823 0.0
H376 H 0.52283 0.4354 0.54679 0.0
H377 H 0.56558 0.46373 0.59295 0.0
H378 H 0.43987 0.45374 0.72215 0.0
H379 H 0.37374 0.35722 0.70854 0.0
H380 H 0.42558 0.37296 0.57674 0.0
C381 C 0.57057 0.59064 0.60866 0.0
C382 C 0.58783 0.62935 0.64233 0.0
C383 C 0.5694 0.613 0.68413 0.0
C384 C 0.53109 0.55908 0.69227 0.0
C385 C 0.51224 0.52221 0.65821 0.0
C386 C 0.53236 0.53644 0.61749 0.0
C387 C 0.50387 0.48822 0.58687 0.0
C388 C 0.47373 0.49984 0.55216 0.0
C389 C 0.54433 0.4724 0.56759 0.0
C390 C 0.46425 0.44534 0.61679 0.0
C391 C 0.46932 0.46648 0.65753 0.0
C392 C 0.43584 0.4362 0.69055 0.0
C393 C 0.39777 0.3816 0.68226 0.0
C394 C 0.39434 0.35774 0.64148 0.0
C395 C 0.42719 0.39036 0.6081 0.0
H396 H 0.06035 0.42487 0.91067 0.0
H397 H 0.93017 0.26038 0.93474 0.0
H398 H 0.86487 0.29418 0.9397 0.0
H399 H 0.02066 0.48654 -0.01326 0.0
H400 H 0.0403 0.54773 0.95793 0.0
H401 H 0.0746 0.50957 0.94804 0.0
H402 H 0.0509 0.5006 0.86797 0.0
H403 H 0.01757 0.53992 0.87753 0.0
H404 H 0.98112 0.47347 0.85208 0.0
H405 H 0.81705 0.34838 0.95216 0.0
H406 H 0.78896 0.41715 0.96557 0.0
H407 H 0.95253 0.54578 0.9359 0.0
C408 C 0.0178 0.39541 0.91551 0.0
C409 C 0.00027 0.33985 0.92203 0.0
C410 C 0.94436 0.30294 0.92897 0.0
C411 C 0.9071 0.32188 0.93217 0.0
C412 C 0.92655 0.37757 0.92809 0.0
C413 C 0.98054 0.41364 0.91935 0.0
C414 C -0.00734 0.47208 0.92057 0.0
C415 C 0.0345 0.50592 0.95538 0.0
C416 C 0.01166 0.49803 0.87693 0.0
C417 C 0.93701 0.46342 0.93162 0.0
C418 C 0.89935 0.40873 0.93578 0.0
C419 C 0.8459 0.3912 0.94809 0.0
C420 C 0.83038 0.43059 0.95566 0.0
C421 C 0.86835 0.4868 0.9511 0.0
C422 C 0.92231 0.50314 0.93904 0.0
H423 H 0.34801 0.94605 0.22769 0.0
H424 H 0.33123 0.98587 0.35885 0.0
H425 H 0.43098 0.03788 0.36635 0.0
H426 H 0.46036 0.92804 0.24061 0.0
H427 H 0.4953 0.96044 0.19252 0.0
H428 H 0.42237 0.92888 0.1956 0.0
H429 H 0.42779 0.01958 0.17532 0.0
H430 H 0.50074 0.0512 0.17148 0.0
H431 H 0.4706 0.08097 0.20576 0.0
H432 H 0.52687 0.06961 0.36351 0.0
H433 H 0.62308 0.10574 0.34698 0.0
H434 H 0.58312 0.055 0.215 0.0
C435 C 0.36583 0.96741 0.25736 0.0
C436 C 0.33302 0.96345 0.29258 0.0
C437 C 0.35654 -0.00995 0.33149 0.0
C438 C 0.4128 0.019 0.33611 0.0
C439 C 0.44433 0.02128 0.3012 0.0
C440 C 0.42227 -0.00222 0.26221 0.0
C441 C 0.46644 0.00721 0.23018 0.0
C442 C 0.46076 0.9529 0.21378 0.0
C443 C 0.46639 0.04181 0.19351 0.0
C444 C 0.51649 0.03872 0.25774 0.0
C445 C 0.50203 0.0452 0.29865 0.0
C446 C 0.53943 0.06828 0.33121 0.0
C447 C 0.59387 0.08874 0.32136 0.0
C448 C 0.61055 0.08618 0.27923 0.0
C449 C 0.57136 0.0593 0.24707 0.0
H450 H 0.3229 0.14675 0.80798 0.0
H451 H 0.42351 0.31014 0.76199 0.0
H452 H 0.39664 0.34697 0.82354 0.0
H453 H 0.218 0.1564 0.8211 0.0
H454 H 0.18958 0.117 0.86809 0.0
H455 H 0.23405 0.10457 0.83484 0.0
H456 H 0.29895 0.12251 0.8976 0.0
H457 H 0.25342 0.13296 0.93198 0.0
H458 H 0.32421 0.18454 0.92911 0.0
H459 H 0.33672 0.36234 0.87397 0.0
H460 H 0.25612 0.35509 0.91074 0.0
H461 H 0.18811 0.18056 0.91906 0.0
C462 C 0.34191 0.19055 0.8125 0.0
C463 C 0.37469 0.22552 0.78028 0.0
C464 C 0.39855 0.28259 0.7865 0.0
C465 C 0.38312 0.30383 0.82138 0.0
C466 C 0.34461 0.26742 0.84974 0.0
C467 C 0.32537 0.21181 0.84624 0.0
C468 C 0.2758 0.17999 0.87392 0.0
C469 C 0.22654 0.13708 0.8479 0.0
C470 C 0.28891 0.15346 0.91033 0.0
C471 C 0.26704 0.22562 0.89037 0.0
C472 C 0.30815 0.27596 0.87758 0.0
C473 C 0.30519 0.32326 0.88507 0.0
C474 C 0.2589 0.31876 0.90557 0.0
C475 C 0.21558 0.26726 0.91726 0.0
C476 C 0.22064 0.22054 0.91051 0.0
H477 H 0.8783 0.2583 0.19827 0.0
H478 H 0.94345 0.18001 0.27455 0.0
H479 H 0.03494 0.2398 0.24576 0.0
H480 H 0.93477 0.25107 0.1106 0.0
H481 H 0.94768 0.31468 0.08878 0.0
H482 H 0.89559 0.28206 0.1278 0.0
H483 H 0.94467 0.3735 0.17377 0.0
H484 H -0.00296 0.40307 0.13384 0.0
H485 H 0.01494 0.40091 0.18807 0.0
H486 H 0.10392 0.27585 0.19194 0.0
H487 H 0.14612 0.29046 0.12097 0.0
H488 H 0.04258 0.35069 0.07769 0.0
C489 C 0.91287 0.25657 0.21046 0.0
C490 C 0.90495 0.21575 0.23868 0.0
C491 C 0.94963 0.21201 0.25327 0.0
C492 C 0.00168 0.24601 0.23718 0.0
C493 C 0.00804 0.28317 0.20637 0.0
C494 C 0.96495 0.28956 0.19369 0.0
C495 C 0.97881 0.32215 0.1536 0.0
C496 C 0.93679 0.29065 0.11816 0.0
C497 C -0.0158 0.37825 0.16288 0.0
C498 C 0.0335 0.32749 0.1431 0.0
C499 C 0.05055 0.30636 0.17469 0.0
C500 C 0.09277 0.29504 0.16793 0.0
C501 C 0.11641 0.30312 0.12757 0.0
C502 C 0.09828 0.32312 0.09498 0.0
C503 C 0.05838 0.33778 0.10323 0.0
H504 H 0.65072 0.84573 0.51748 0.0
H505 H 0.73628 0.96573 0.61702 0.0
H506 H 0.74533 0.03872 0.57083 0.0
H507 H 0.72825 0.9053 0.44163 0.0
H508 H 0.68167 0.89216 0.39872 0.0
H509 H 0.66041 0.84706 0.44254 0.0
H510 H 0.57861 0.8617 0.45791 0.0
H511 H 0.59784 0.90502 0.41254 0.0
H512 H 0.58954 0.92994 0.46372 0.0
H513 H 0.77131 0.09737 0.51027 0.0
H514 H 0.80028 0.13972 0.44061 0.0
H515 H 0.69953 0.98234 0.37829 0.0
C516 C 0.66833 0.88713 0.52994 0.0
C517 C 0.69254 0.90106 0.57021 0.0
C518 C 0.71707 0.95512 0.58609 0.0
C519 C 0.72211 -0.00345 0.56017 0.0
C520 C 0.70182 0.98249 0.51897 0.0
C521 C 0.6736 0.9288 0.50426 0.0
C522 C 0.6644 0.92543 0.45684 0.0
C523 C 0.68498 0.89047 0.43364 0.0
C524 C 0.60404 0.90429 0.44719 0.0
C525 C 0.69862 0.98499 0.44657 0.0
C526 C 0.71779 0.01731 0.48297 0.0
C527 C 0.75497 0.07286 0.48158 0.0
C528 C 0.7719 0.09632 0.44194 0.0
C529 C 0.7523 0.06401 0.40432 0.0
C530 C 0.71535 0.00772 0.40668 0.0
H531 H 0.79659 0.84821 0.75605 0.0
H532 H 0.62762 0.7798 0.7934 0.0
H533 H 0.64445 0.74006 0.85587 0.0
H534 H 0.7991 0.73528 0.76897 0.0
H535 H 0.86791 0.76428 0.78782 0.0
H536 H 0.84983 0.8035 0.75496 0.0
H537 H 0.88296 0.88134 0.81176 0.0
H538 H 0.90404 0.84381 0.8442 0.0
H539 H 0.8587 0.86586 0.86558 0.0
H540 H 0.67314 0.6879 0.90204 0.0
H541 H 0.71711 0.64204 0.93636 0.0
H542 H 0.86436 0.74082 0.86437 0.0
C543 C 0.76382 0.82736 0.77858 0.0
C544 C 0.71082 0.81645 0.76973 0.0
C545 C 0.66872 0.78872 0.79968 0.0
C546 C 0.67778 0.7656 0.83512 0.0
C547 C 0.72918 0.77158 0.84014 0.0
C548 C 0.77195 0.80315 0.81328 0.0
C549 C 0.82049 0.79623 0.82075 0.0
C550 C 0.83511 0.77347 0.78077 0.0
C551 C 0.86943 0.85001 0.83655 0.0
C552 C 0.79786 0.75467 0.85507 0.0
C553 C 0.74533 0.74092 0.86613 0.0
C554 C 0.71485 0.69954 0.89456 0.0
C555 C 0.73974 0.67319 0.91338 0.0
C556 C 0.79416 0.68841 0.90323 0.0
C557 C 0.82295 0.72897 0.87328 0.0
H558 H 0.00447 0.72946 0.27038 0.0
H559 H 0.14483 0.80961 0.18868 0.0
H560 H 0.09664 0.74077 0.13219 0.0
H561 H 0.94353 0.58021 0.21536 0.0
H562 H 0.87735 0.57245 0.22502 0.0
H563 H 0.93112 0.60954 0.26274 0.0
H564 H 0.91116 0.68966 0.25606 0.0
H565 H 0.86077 0.65281 0.21634 0.0
H566 H 0.91757 0.71917 0.2048 0.0
H567 H 0.03198 0.68125 0.08177 0.0
H568 H 0.95375 0.65525 0.03591 0.0
H569 H 0.84887 0.61944 0.1457 0.0
C570 C 0.02538 0.73009 0.2412 0.0
C571 C 0.07817 0.77272 0.23359 0.0
C572 C 0.10455 0.77568 0.19484 0.0
C573 C 0.07764 0.73649 0.16293 0.0
C574 C 0.02464 0.69481 0.17064 0.0
C575 C -0.00159 0.69173 0.20876 0.0
C576 C 0.93778 0.65365 0.20501 0.0
C577 C 0.92155 0.6008 0.22838 0.0
C578 C 0.905 0.68054 0.22145 0.0
C579 C 0.93309 0.64353 0.15748 0.0
C580 C -0.01586 0.66308 0.13924 0.0
C581 C -0.00811 0.66505 0.09562 0.0
C582 C 0.94736 0.651 0.0699 0.0
C583 C 0.89617 0.63672 0.08791 0.0
C584 C 0.88789 0.62987 0.13183 0.0
H585 H 0.30345 0.06955 0.5786 0.0
H586 H 0.14493 0.05089 0.60753 0.0
H587 H 0.10151 0.96773 0.56235 0.0
H588 H 0.27952 0.03363 0.47195 0.0
H589 H 0.31748 -0.00189 0.46961 0.0
H590 H 0.33447 0.05169 0.50854 0.0
H591 H 0.32254 0.98473 0.56763 0.0
H592 H 0.30378 0.93031 0.52877 0.0
H593 H 0.25885 0.92193 0.57253 0.0
H594 H 0.07633 0.89478 0.50894 0.0
H595 H 0.07218 0.84324 0.44346 0.0
H596 H 0.2457 0.90564 0.4503 0.0
C597 C 0.25955 0.0476 0.57578 0.0
C598 C 0.22745 0.06626 0.59674 0.0
C599 C 0.17022 0.03692 0.59199 0.0
C600 C 0.14514 -0.01062 0.56676 0.0
C601 C 0.17785 0.97152 0.54703 0.0
C602 C 0.23383 -0.00011 0.55092 0.0
C603 C 0.25995 0.97516 0.52284 0.0
C604 C 0.30015 0.01711 0.49136 0.0
C605 C 0.28792 0.95163 0.54955 0.0
C606 C 0.20999 0.93019 0.5008 0.0
C607 C 0.16295 0.92796 0.51617 0.0
C608 C 0.11245 0.89479 0.4974 0.0
C609 C 0.11035 0.8654 0.46048 0.0
C610 C 0.15841 0.86961 0.44303 0.0
C611 C 0.20827 0.90008 0.46443 0.0
loop_
_geom_bond_atom_site_label_1
_geom_bond_atom_site_label_2
_geom_bond_distance
_geom_bond_site_symmetry_2
_ccdc_geom_bond_type
O0 Mg1 1.990 . S
O0 C14 1.253 . S
Mg1 O0 1.990 . S
Mg1 O4 2.180 . S
Mg1 O5 2.117 . S
Mg1 O19 2.030 1_554 S
O2 Mg3 2.072 1_554 S
O2 C14 1.260 . S
Mg3 O2 2.072 1_556 S
Mg3 O4 2.099 1_556 S
Mg3 O6 2.079 . S
Mg3 O7 2.072 1_556 S
Mg3 O9 2.099 . S
Mg3 O20 2.079 . S
O4 Mg1 2.180 . S
O4 Mg3 2.099 1_554 S
O4 C15 1.279 . S
O5 Mg1 2.117 . S
O5 C15 1.250 . S
O6 Mg3 2.079 . S
O6 C16 1.264 . S
O7 Mg3 2.072 1_554 S
O7 C17 1.260 . S
Mg8 O9 2.180 . S
Mg8 O10 2.030 . S
Mg8 O11 1.990 1_556 S
Mg8 O12 2.117 . S
O9 Mg3 2.099 . S
O9 Mg8 2.180 . S
O9 C18 1.279 . S
O10 Mg8 2.030 . S
O10 C16 1.248 . S
O11 Mg8 1.990 1_554 S
O11 C17 1.253 . S
O12 Mg8 2.117 . S
O12 C18 1.250 . S
C13 O19 1.248 . S
C13 O20 1.264 . S
C14 O0 1.253 . S
C14 O2 1.260 . S
C15 O4 1.279 . S
C15 O5 1.250 . S
C16 O6 1.264 . S
C16 O10 1.248 . S
C17 O7 1.260 . S
C17 O11 1.253 . S
C18 O9 1.279 . S
C18 O12 1.250 . S
O19 Mg1 2.030 1_556 S
O19 C13 1.248 . S
O20 Mg3 2.079 . S
O20 C13 1.264 . S
O21 Mg22 1.990 . S
O21 C35 1.253 . S
Mg22 O21 1.990 . S
Mg22 O25 2.180 . S
Mg22 O26 2.117 . S
Mg22 O40 2.030 . S
O23 Mg24 2.072 . S
O23 C35 1.260 . S
Mg24 O23 2.072 . S
Mg24 O25 2.099 . S
Mg24 O27 2.079 . S
Mg24 O28 2.072 . S
Mg24 O30 2.099 . S
Mg24 O41 2.079 . S
O25 Mg22 2.180 . S
O25 Mg24 2.099 . S
O25 C36 1.279 . S
O26 Mg22 2.117 . S
O26 C36 1.250 . S
O27 Mg24 2.079 . S
O27 C37 1.264 . S
O28 Mg24 2.072 . S
O28 C38 1.260 . S
Mg29 O30 2.180 . S
Mg29 O31 2.030 . S
Mg29 O32 1.990 . S
Mg29 O33 2.117 . S
O30 Mg24 2.099 . S
O30 Mg29 2.180 . S
O30 C39 1.279 . S
O31 Mg29 2.030 . S
O31 C37 1.248 . S
O32 Mg29 1.990 . S
O32 C38 1.253 . S
O33 Mg29 2.117 . S
O33 C39 1.250 . S
C34 O40 1.248 . S
C34 O41 1.264 . S
C35 O21 1.253 . S
C35 O23 1.260 . S
C36 O25 1.279 . S
C36 O26 1.250 . S
C37 O27 1.264 . S
C37 O31 1.248 . S
C38 O28 1.260 . S
C38 O32 1.253 . S
C39 O30 1.279 . S
C39 O33 1.250 . S
O40 Mg22 2.030 . S
O40 C34 1.248 . S
O41 Mg24 2.079 . S
O41 C34 1.264 . S
O42 Mg43 1.990 . S
O42 C56 1.253 . S
Mg43 O42 1.990 . S
Mg43 O46 2.180 . S
Mg43 O47 2.117 . S
Mg43 O61 2.030 . S
O44 Mg45 2.072 . S
O44 C56 1.260 . S
Mg45 O44 2.072 . S
Mg45 O46 2.099 . S
Mg45 O48 2.079 . S
Mg45 O49 2.072 . S
Mg45 O51 2.099 . S
Mg45 O62 2.079 . S
O46 Mg43 2.180 . S
O46 Mg45 2.099 . S
O46 C57 1.279 . S
O47 Mg43 2.117 . S
O47 C57 1.250 . S
O48 Mg45 2.079 . S
O48 C58 1.264 . S
O49 Mg45 2.072 . S
O49 C59 1.260 . S
Mg50 O51 2.180 . S
Mg50 O52 2.030 . S
Mg50 O53 1.990 . S
Mg50 O54 2.117 . S
O51 Mg45 2.099 . S
O51 Mg50 2.180 . S
O51 C60 1.279 . S
O52 Mg50 2.030 . S
O52 C58 1.248 . S
O53 Mg50 1.990 . S
O53 C59 1.253 . S
O54 Mg50 2.117 . S
O54 C60 1.250 . S
C55 O61 1.248 . S
C55 O62 1.264 . S
C56 O42 1.253 . S
C56 O44 1.260 . S
C57 O46 1.279 . S
C57 O47 1.250 . S
C58 O48 1.264 . S
C58 O52 1.248 . S
C59 O49 1.260 . S
C59 O53 1.253 . S
C60 O51 1.279 . S
C60 O54 1.250 . S
O61 Mg43 2.030 . S
O61 C55 1.248 . S
O62 Mg45 2.079 . S
O62 C55 1.264 . S
O63 Mg64 1.990 1_554 S
O63 C77 1.253 . S
Mg64 O63 1.990 1_556 S
Mg64 O67 2.180 . S
Mg64 O68 2.117 . S
Mg64 O82 2.030 . S
O65 Mg66 2.072 1_554 S
O65 C77 1.260 . S
Mg66 O65 2.072 1_556 S
Mg66 O67 2.099 . S
Mg66 O69 2.079 . S
Mg66 O70 2.072 1_556 S
Mg66 O72 2.099 1_556 S
Mg66 O83 2.079 . S
O67 Mg64 2.180 . S
O67 Mg66 2.099 . S
O67 C78 1.279 . S
O68 Mg64 2.117 . S
O68 C78 1.250 . S
O69 Mg66 2.079 . S
O69 C79 1.264 . S
O70 Mg66 2.072 1_554 S
O70 C80 1.260 . S
Mg71 O72 2.180 . S
Mg71 O73 2.030 1_554 S
Mg71 O74 1.990 . S
Mg71 O75 2.117 . S
O72 Mg66 2.099 1_554 S
O72 Mg71 2.180 . S
O72 C81 1.279 . S
O73 Mg71 2.030 1_556 S
O73 C79 1.248 . S
O74 Mg71 1.990 . S
O74 C80 1.253 . S
O75 Mg71 2.117 . S
O75 C81 1.250 . S
C76 O82 1.248 . S
C76 O83 1.264 . S
C77 O63 1.253 . S
C77 O65 1.260 . S
C78 O67 1.279 . S
C78 O68 1.250 . S
C79 O69 1.264 . S
C79 O73 1.248 . S
C80 O70 1.260 . S
C80 O74 1.253 . S
C81 O72 1.279 . S
C81 O75 1.250 . S
O82 Mg64 2.030 . S
O82 C76 1.248 . S
O83 Mg66 2.079 . S
O83 C76 1.264 . S
O84 Mg85 1.990 . S
O84 C98 1.253 . S
Mg85 O84 1.990 . S
Mg85 O88 2.180 . S
Mg85 O89 2.117 . S
Mg85 O103 2.030 . S
O86 Mg87 2.072 . S
O86 C98 1.260 . S
Mg87 O86 2.072 . S
Mg87 O88 2.099 . S
Mg87 O90 2.079 . S
Mg87 O91 2.072 . S
Mg87 O93 2.099 . S
Mg87 O104 2.079 . S
O88 Mg85 2.180 . S
O88 Mg87 2.099 . S
O88 C99 1.279 . S
O89 Mg85 2.117 . S
O89 C99 1.250 . S
O90 Mg87 2.079 . S
O90 C100 1.264 . S
O91 Mg87 2.072 . S
O91 C101 1.260 . S
Mg92 O93 2.180 . S
Mg92 O94 2.030 . S
Mg92 O95 1.990 . S
Mg92 O96 2.117 . S
O93 Mg87 2.099 . S
O93 Mg92 2.180 . S
O93 C102 1.279 . S
O94 Mg92 2.030 . S
O94 C100 1.248 . S
O95 Mg92 1.990 . S
O95 C101 1.253 . S
O96 Mg92 2.117 . S
O96 C102 1.250 . S
C97 O103 1.248 . S
C97 O104 1.264 . S
C98 O84 1.253 . S
C98 O86 1.260 . S
C99 O88 1.279 . S
C99 O89 1.250 . S
C100 O90 1.264 . S
C100 O94 1.248 . S
C101 O91 1.260 . S
C101 O95 1.253 . S
C102 O93 1.279 . S
C102 O96 1.250 . S
O103 Mg85 2.030 . S
O103 C97 1.248 . S
O104 Mg87 2.079 . S
O104 C97 1.264 . S
O105 Mg106 1.990 . S
O105 C119 1.253 . S
Mg106 O105 1.990 . S
Mg106 O109 2.180 . S
Mg106 O110 2.117 . S
Mg106 O124 2.030 . S
O107 Mg108 2.072 . S
O107 C119 1.260 . S
Mg108 O107 2.072 . S
Mg108 O109 2.099 . S
Mg108 O111 2.079 . S
Mg108 O112 2.072 . S
Mg108 O114 2.099 . S
Mg108 O125 2.079 . S
O109 Mg106 2.180 . S
O109 Mg108 2.099 . S
O109 C120 1.279 . S
O110 Mg106 2.117 . S
O110 C120 1.250 . S
O111 Mg108 2.079 . S
O111 C121 1.264 . S
O112 Mg108 2.072 . S
O112 C122 1.260 . S
Mg113 O114 2.180 . S
Mg113 O115 2.030 . S
Mg113 O116 1.990 . S
Mg113 O117 2.117 . S
O114 Mg108 2.099 . S
O114 Mg113 2.180 . S
O114 C123 1.279 . S
O115 Mg113 2.030 . S
O115 C121 1.248 . S
O116 Mg113 1.990 . S
O116 C122 1.253 . S
O117 Mg113 2.117 . S
O117 C123 1.250 . S
C118 O124 1.248 . S
C118 O125 1.264 . S
C119 O105 1.253 . S
C119 O107 1.260 . S
C120 O109 1.279 . S
C120 O110 1.250 . S
C121 O111 1.264 . S
C121 O115 1.248 . S
C122 O112 1.260 . S
C122 O116 1.253 . S
C123 O114 1.279 . S
C123 O117 1.250 . S
O124 Mg106 2.030 . S
O124 C118 1.248 . S
O125 Mg108 2.079 . S
O125 C118 1.264 . S
H126 C138 0.930 . S
H127 C140 0.930 . S
H128 C141 0.930 . S
H129 C145 0.959 . S
H130 C145 0.959 . S
H131 C145 0.961 . S
H132 C146 0.960 . S
H133 C146 0.961 . S
H134 C146 0.959 . S
H135 C149 0.929 . S
H136 C150 0.931 . S
H137 C152 0.930 . S
C138 H126 0.930 . S
C138 C139 1.399 . S
C138 C143 1.399 . S
C139 C138 1.399 . S
C139 C140 1.376 . S
C140 H127 0.930 . S
C140 C139 1.376 . S
C140 C141 1.388 . S
C141 H128 0.930 . S
C141 C140 1.388 . S
C141 C142 1.390 . S
C142 C141 1.390 . S
C142 C143 1.394 . S
C142 C148 1.465 . S
C143 C138 1.399 . S
C143 C142 1.394 . S
C143 C144 1.516 . S
C144 C143 1.516 . S
C144 C145 1.502 . S
C144 C146 1.561 . S
C144 C147 1.526 . S
C145 H129 0.959 . S
C145 H130 0.959 . S
C145 H131 0.961 . S
C145 C144 1.502 . S
C146 H132 0.960 . S
C146 H133 0.961 . S
C146 H134 0.959 . S
C146 C144 1.561 . S
C147 C144 1.526 . S
C147 C148 1.396 . S
C147 C152 1.390 . S
C148 C142 1.465 . S
C148 C147 1.396 . S
C148 C149 1.399 . S
C149 H135 0.929 . S
C149 C148 1.399 . S
C149 C150 1.385 . S
C150 H136 0.931 . S
C150 C149 1.385 . S
C150 C151 1.389 . S
C151 C150 1.389 . S
C151 C152 1.387 . S
C152 H137 0.930 . S
C152 C147 1.390 . S
C152 C151 1.387 . S
H153 C165 0.930 . S
H154 C167 0.930 . S
H155 C168 0.930 . S
H156 C172 0.959 . S
H157 C172 0.959 . S
H158 C172 0.961 . S
H159 C173 0.960 . S
H160 C173 0.961 . S
H161 C173 0.959 . S
H162 C176 0.929 . S
H163 C177 0.931 . S
H164 C179 0.930 . S
C165 H153 0.930 . S
C165 C166 1.399 . S
C165 C170 1.399 . S
C166 C165 1.399 . S
C166 C167 1.376 . S
C167 H154 0.930 . S
C167 C166 1.376 . S
C167 C168 1.388 . S
C168 H155 0.930 . S
C168 C167 1.388 . S
C168 C169 1.390 . S
C169 C168 1.390 . S
C169 C170 1.394 . S
C169 C175 1.465 . S
C170 C165 1.399 . S
C170 C169 1.394 . S
C170 C171 1.516 . S
C171 C170 1.516 . S
C171 C172 1.502 . S
C171 C173 1.561 . S
C171 C174 1.526 . S
C172 H156 0.959 . S
C172 H157 0.959 . S
C172 H158 0.961 . S
C172 C171 1.502 . S
C173 H159 0.960 . S
C173 H160 0.961 . S
C173 H161 0.959 . S
C173 C171 1.561 . S
C174 C171 1.526 . S
C174 C175 1.396 . S
C174 C179 1.390 . S
C175 C169 1.465 . S
C175 C174 1.396 . S
C175 C176 1.399 . S
C176 H162 0.929 . S
C176 C175 1.399 . S
C176 C177 1.385 . S
C177 H163 0.931 . S
C177 C176 1.385 . S
C177 C178 1.389 . S
C178 C177 1.389 . S
C178 C179 1.387 . S
C179 H164 0.930 . S
C179 C174 1.390 . S
C179 C178 1.387 . S
H180 C192 0.930 . S
H181 C194 0.930 . S
H182 C195 0.930 . S
H183 C199 0.959 . S
H184 C199 0.959 . S
H185 C199 0.961 . S
H186 C200 0.960 . S
H187 C200 0.961 . S
H188 C200 0.959 . S
H189 C203 0.929 . S
H190 C204 0.931 . S
H191 C206 0.930 . S
C192 H180 0.930 . S
C192 C193 1.399 . S
C192 C197 1.399 . S
C193 C192 1.399 . S
C193 C194 1.376 . S
C194 H181 0.930 . S
C194 C193 1.376 . S
C194 C195 1.388 . S
C195 H182 0.930 . S
C195 C194 1.388 . S
C195 C196 1.390 . S
C196 C195 1.390 . S
C196 C197 1.394 . S
C196 C202 1.465 . S
C197 C192 1.399 . S
C197 C196 1.394 . S
C197 C198 1.516 . S
C198 C197 1.516 . S
C198 C199 1.502 . S
C198 C200 1.561 . S
C198 C201 1.526 . S
C199 H183 0.959 . S
C199 H184 0.959 . S
C199 H185 0.961 . S
C199 C198 1.502 . S
C200 H186 0.960 . S
C200 H187 0.961 . S
C200 H188 0.959 . S
C200 C198 1.561 . S
C201 C198 1.526 . S
C201 C202 1.396 . S
C201 C206 1.390 . S
C202 C196 1.465 . S
C202 C201 1.396 . S
C202 C203 1.399 . S
C203 H189 0.929 . S
C203 C202 1.399 . S
C203 C204 1.385 . S
C204 H190 0.931 . S
C204 C203 1.385 . S
C204 C205 1.389 . S
C205 C204 1.389 . S
C205 C206 1.387 . S
C206 H191 0.930 . S
C206 C201 1.390 . S
C206 C205 1.387 . S
H207 C219 0.930 . S
H208 C221 0.930 . S
H209 C222 0.930 . S
H210 C226 0.959 . S
H211 C226 0.959 . S
H212 C226 0.961 . S
H213 C227 0.960 . S
H214 C227 0.961 . S
H215 C227 0.959 . S
H216 C230 0.929 . S
H217 C231 0.931 . S
H218 C233 0.930 . S
C219 H207 0.930 . S
C219 C220 1.399 . S
C219 C224 1.399 . S
C220 C219 1.399 . S
C220 C221 1.376 . S
C221 H208 0.930 . S
C221 C220 1.376 . S
C221 C222 1.388 . S
C222 H209 0.930 . S
C222 C221 1.388 . S
C222 C223 1.390 . S
C223 C222 1.390 . S
C223 C224 1.394 . S
C223 C229 1.465 . S
C224 C219 1.399 . S
C224 C223 1.394 . S
C224 C225 1.516 . S
C225 C224 1.516 . S
C225 C226 1.502 . S
C225 C227 1.561 . S
C225 C228 1.526 . S
C226 H210 0.959 . S
C226 H211 0.959 . S
C226 H212 0.961 . S
C226 C225 1.502 . S
C227 H213 0.960 . S
C227 H214 0.961 . S
C227 H215 0.959 . S
C227 C225 1.561 . S
C228 C225 1.526 . S
C228 C229 1.396 . S
C228 C233 1.390 . S
C229 C223 1.465 . S
C229 C228 1.396 . S
C229 C230 1.399 . S
C230 H216 0.929 . S
C230 C229 1.399 . S
C230 C231 1.385 . S
C231 H217 0.931 . S
C231 C230 1.385 . S
C231 C232 1.389 . S
C232 C231 1.389 . S
C232 C233 1.387 . S
C233 H218 0.930 . S
C233 C228 1.390 . S
C233 C232 1.387 . S
H234 C246 0.930 . S
H235 C248 0.930 . S
H236 C249 0.930 . S
H237 C253 0.959 . S
H238 C253 0.959 . S
H239 C253 0.961 . S
H240 C254 0.960 . S
H241 C254 0.961 . S
H242 C254 0.959 . S
H243 C257 0.929 . S
H244 C258 0.931 . S
H245 C260 0.930 . S
C246 H234 0.930 . S
C246 C247 1.399 . S
C246 C251 1.399 . S
C247 C246 1.399 . S
C247 C248 1.376 . S
C248 H235 0.930 . S
C248 C247 1.376 . S
C248 C249 1.388 . S
C249 H236 0.930 . S
C249 C248 1.388 . S
C249 C250 1.390 . S
C250 C249 1.390 . S
C250 C251 1.394 . S
C250 C256 1.465 . S
C251 C246 1.399 . S
C251 C250 1.394 . S
C251 C252 1.516 . S
C252 C251 1.516 . S
C252 C253 1.502 . S
C252 C254 1.561 . S
C252 C255 1.526 . S
C253 H237 0.959 . S
C253 H238 0.959 . S
C253 H239 0.961 . S
C253 C252 1.502 . S
C254 H240 0.960 . S
C254 H241 0.961 . S
C254 H242 0.959 . S
C254 C252 1.561 . S
C255 C252 1.526 . S
C255 C256 1.396 . S
C255 C260 1.390 . S
C256 C250 1.465 . S
C256 C255 1.396 . S
C256 C257 1.399 . S
C257 H243 0.929 . S
C257 C256 1.399 . S
C257 C258 1.385 . S
C258 H244 0.931 . S
C258 C257 1.385 . S
C258 C259 1.389 . S
C259 C258 1.389 . S
C259 C260 1.387 . S
C260 H245 0.930 . S
C260 C255 1.390 . S
C260 C259 1.387 . S
H261 C273 0.930 . S
H262 C275 0.930 . S
H263 C276 0.930 . S
H264 C280 0.959 . S
H265 C280 0.959 . S
H266 C280 0.961 . S
H267 C281 0.960 . S
H268 C281 0.961 . S
H269 C281 0.959 . S
H270 C284 0.929 . S
H271 C285 0.931 . S
H272 C287 0.930 . S
C273 H261 0.930 . S
C273 C274 1.399 . S
C273 C278 1.399 . S
C274 C273 1.399 . S
C274 C275 1.376 . S
C275 H262 0.930 . S
C275 C274 1.376 . S
C275 C276 1.388 . S
C276 H263 0.930 . S
C276 C275 1.388 . S
C276 C277 1.390 . S
C277 C276 1.390 . S
C277 C278 1.394 . S
C277 C283 1.465 . S
C278 C273 1.399 . S
C278 C277 1.394 . S
C278 C279 1.516 . S
C279 C278 1.516 . S
C279 C280 1.502 . S
C279 C281 1.561 . S
C279 C282 1.526 . S
C280 H264 0.959 . S
C280 H265 0.959 . S
C280 H266 0.961 . S
C280 C279 1.502 . S
C281 H267 0.960 . S
C281 H268 0.961 . S
C281 H269 0.959 . S
C281 C279 1.561 . S
C282 C279 1.526 . S
C282 C283 1.396 . S
C282 C287 1.390 . S
C283 C277 1.465 . S
C283 C282 1.396 . S
C283 C284 1.399 . S
C284 H270 0.929 . S
C284 C283 1.399 . S
C284 C285 1.385 . S
C285 H271 0.931 . S
C285 C284 1.385 . S
C285 C286 1.389 . S
C286 C285 1.389 . S
C286 C287 1.387 . S
C287 H272 0.930 . S
C287 C282 1.390 . S
C287 C286 1.387 . S
H288 C300 0.930 . S
H289 C302 0.930 . S
H290 C303 0.930 . S
H291 C307 0.959 . S
H292 C307 0.959 . S
H293 C307 0.961 . S
H294 C308 0.960 . S
H295 C308 0.961 . S
H296 C308 0.959 . S
H297 C311 0.929 . S
H298 C312 0.931 . S
H299 C314 0.930 . S
C300 H288 0.930 . S
C300 C301 1.399 1_556 S
C300 C305 1.397 1_556 S
C301 C300 1.399 1_554 S
C301 C302 1.376 . S
C302 H289 0.930 . S
C302 C301 1.376 . S
C302 C303 1.388 . S
C303 H290 0.930 . S
C303 C302 1.388 . S
C303 C304 1.390 . S
C304 C303 1.390 . S
C304 C305 1.403 . S
C304 C310 1.465 . S
C305 C300 1.397 1_554 S
C305 C304 1.403 . S
C305 C306 1.510 1_554 S
C306 C305 1.510 1_556 S
C306 C307 1.502 . S
C306 C308 1.561 . S
C306 C309 1.513 1_556 S
C307 H291 0.959 . S
C307 H292 0.959 . S
C307 H293 0.961 . S
C307 C306 1.502 . S
C308 H294 0.960 . S
C308 H295 0.961 . S
C308 H296 0.959 . S
C308 C306 1.561 . S
C309 C306 1.513 1_554 S
C309 C310 1.415 . S
C309 C314 1.386 1_554 S
C310 C304 1.465 . S
C310 C309 1.415 . S
C310 C311 1.399 . S
C311 H297 0.929 . S
C311 C310 1.399 . S
C311 C312 1.385 . S
C312 H298 0.931 . S
C312 C311 1.385 . S
C312 C313 1.389 . S
C313 C312 1.389 . S
C313 C314 1.387 1_554 S
C314 H299 0.930 . S
C314 C309 1.386 1_556 S
C314 C313 1.387 1_556 S
H315 C327 0.930 . S
H316 C329 0.930 . S
H317 C330 0.930 . S
H318 C334 0.959 . S
H319 C334 0.959 . S
H320 C334 0.961 . S
H321 C335 0.960 . S
H322 C335 0.961 . S
H323 C335 0.959 . S
H324 C338 0.929 1_455 S
H325 C339 0.931 . S
H326 C341 0.930 . S
C327 H315 0.930 . S
C327 C328 1.399 . S
C327 C332 1.399 . S
C328 C327 1.399 . S
C328 C329 1.376 . S
C329 H316 0.930 . S
C329 C328 1.376 . S
C329 C330 1.388 . S
C330 H317 0.930 . S
C330 C329 1.388 . S
C330 C331 1.390 . S
C331 C330 1.390 . S
C331 C332 1.394 . S
C331 C337 1.465 1_455 S
C332 C327 1.399 . S
C332 C331 1.394 . S
C332 C333 1.516 1_455 S
C333 C332 1.516 1_655 S
C333 C334 1.502 . S
C333 C335 1.561 1_655 S
C333 C336 1.526 . S
C334 H318 0.959 . S
C334 H319 0.959 . S
C334 H320 0.961 . S
C334 C333 1.502 . S
C335 H321 0.960 . S
C335 H322 0.961 . S
C335 H323 0.959 . S
C335 C333 1.561 1_455 S
C336 C333 1.526 . S
C336 C337 1.396 . S
C336 C341 1.390 . S
C337 C331 1.465 1_655 S
C337 C336 1.396 . S
C337 C338 1.399 . S
C338 H324 0.929 1_655 S
C338 C337 1.399 . S
C338 C339 1.385 . S
C339 H325 0.931 . S
C339 C338 1.385 . S
C339 C340 1.389 . S
C340 C339 1.389 . S
C340 C341 1.387 . S
C341 H326 0.930 . S
C341 C336 1.390 . S
C341 C340 1.387 . S
H342 C354 0.930 . S
H343 C356 0.930 . S
H344 C357 0.930 . S
H345 C361 0.959 . S
H346 C361 0.959 . S
H347 C361 0.961 . S
H348 C362 0.960 . S
H349 C362 0.961 1_565 S
H350 C362 0.959 . S
H351 C365 0.929 . S
H352 C366 0.931 . S
H353 C368 0.930 . S
C354 H342 0.930 . S
C354 C355 1.399 . S
C354 C359 1.399 . S
C355 C354 1.399 . S
C355 C356 1.376 . S
C356 H343 0.930 . S
C356 C355 1.376 . S
C356 C357 1.388 . S
C357 H344 0.930 . S
C357 C356 1.388 . S
C357 C358 1.390 . S
C358 C357 1.390 . S
C358 C359 1.394 . S
C358 C364 1.465 . S
C359 C354 1.399 . S
C359 C358 1.394 . S
C359 C360 1.516 1_545 S
C360 C359 1.516 1_565 S
C360 C361 1.502 . S
C360 C362 1.561 1_565 S
C360 C363 1.526 . S
C361 H345 0.959 . S
C361 H346 0.959 . S
C361 H347 0.961 . S
C361 C360 1.502 . S
C362 H348 0.960 . S
C362 H349 0.961 1_545 S
C362 H350 0.959 . S
C362 C360 1.561 1_545 S
C363 C360 1.526 . S
C363 C364 1.396 1_565 S
C363 C368 1.390 . S
C364 C358 1.465 . S
C364 C363 1.396 1_545 S
C364 C365 1.399 . S
C365 H351 0.929 . S
C365 C364 1.399 . S
C365 C366 1.385 1_545 S
C366 H352 0.931 . S
C366 C365 1.385 1_565 S
C366 C367 1.389 . S
C367 C366 1.389 . S
C367 C368 1.387 . S
C368 H353 0.930 . S
C368 C363 1.390 . S
C368 C367 1.387 . S
H369 C381 0.930 . S
H370 C383 0.930 . S
H371 C384 0.930 . S
H372 C388 0.959 . S
H373 C388 0.959 . S
H374 C388 0.961 . S
H375 C389 0.960 . S
H376 C389 0.961 . S
H377 C389 0.959 . S
H378 C392 0.929 . S
H379 C393 0.931 . S
H380 C395 0.930 . S
C381 H369 0.930 . S
C381 C382 1.399 . S
C381 C386 1.399 . S
C382 C381 1.399 . S
C382 C383 1.376 . S
C383 H370 0.930 . S
C383 C382 1.376 . S
C383 C384 1.388 . S
C384 H371 0.930 . S
C384 C383 1.388 . S
C384 C385 1.390 . S
C385 C384 1.390 . S
C385 C386 1.394 . S
C385 C391 1.465 . S
C386 C381 1.399 . S
C386 C385 1.394 . S
C386 C387 1.516 . S
C387 C386 1.516 . S
C387 C388 1.502 . S
C387 C389 1.561 . S
C387 C390 1.526 . S
C388 H372 0.959 . S
C388 H373 0.959 . S
C388 H374 0.961 . S
C388 C387 1.502 . S
C389 H375 0.960 . S
C389 H376 0.961 . S
C389 H377 0.959 . S
C389 C387 1.561 . S
C390 C387 1.526 . S
C390 C391 1.396 . S
C390 C395 1.390 . S
C391 C385 1.465 . S
C391 C390 1.396 . S
C391 C392 1.399 . S
C392 H378 0.929 . S
C392 C391 1.399 . S
C392 C393 1.385 . S
C393 H379 0.931 . S
C393 C392 1.385 . S
C393 C394 1.389 . S
C394 C393 1.389 . S
C394 C395 1.387 . S
C395 H380 0.930 . S
C395 C390 1.390 . S
C395 C394 1.387 . S
H396 C408 0.930 . S
H397 C410 0.930 . S
H398 C411 0.930 . S
H399 C415 0.959 . S
H400 C415 0.959 . S
H401 C415 0.961 . S
H402 C416 0.960 . S
H403 C416 0.961 . S
H404 C416 0.959 1_655 S
H405 C419 0.929 . S
H406 C420 0.931 . S
H407 C422 0.930 . S
C408 H396 0.930 . S
C408 C409 1.399 . S
C408 C413 1.399 . S
C409 C408 1.399 . S
C409 C410 1.376 1_556 S
C410 H397 0.930 . S
C410 C409 1.376 1_554 S
C410 C411 1.388 1_455 S
C411 H398 0.930 . S
C411 C410 1.388 1_655 S
C411 C412 1.390 1_554 S
C412 C411 1.390 1_556 S
C412 C413 1.394 1_655 S
C412 C418 1.465 . S
C413 C408 1.399 . S
C413 C412 1.394 1_455 S
C413 C414 1.516 . S
C414 C413 1.516 . S
C414 C415 1.502 . S
C414 C416 1.561 . S
C414 C417 1.526 1_455 S
C415 H399 0.959 . S
C415 H400 0.959 . S
C415 H401 0.961 . S
C415 C414 1.502 . S
C416 H402 0.960 . S
C416 H403 0.961 . S
C416 H404 0.959 1_455 S
C416 C414 1.561 . S
C417 C414 1.526 1_655 S
C417 C418 1.396 . S
C417 C422 1.390 . S
C418 C412 1.465 . S
C418 C417 1.396 . S
C418 C419 1.399 1_556 S
C419 H405 0.929 . S
C419 C418 1.399 1_554 S
C419 C420 1.385 . S
C420 H406 0.931 . S
C420 C419 1.385 . S
C420 C421 1.389 1_554 S
C421 C420 1.389 1_556 S
C421 C422 1.387 . S
C422 H407 0.930 . S
C422 C417 1.390 . S
C422 C421 1.387 . S
H423 C435 0.930 . S
H424 C437 0.930 . S
H425 C438 0.930 . S
H426 C442 0.959 . S
H427 C442 0.959 . S
H428 C442 0.961 . S
H429 C443 0.960 . S
H430 C443 0.961 . S
H431 C443 0.959 . S
H432 C446 0.929 . S
H433 C447 0.931 . S
H434 C449 0.930 . S
C435 H423 0.930 . S
C435 C436 1.399 . S
C435 C440 1.399 . S
C436 C435 1.399 . S
C436 C437 1.376 . S
C437 H424 0.930 . S
C437 C436 1.376 . S
C437 C438 1.388 . S
C438 H425 0.930 . S
C438 C437 1.388 . S
C438 C439 1.390 . S
C439 C438 1.390 . S
C439 C440 1.394 . S
C439 C445 1.465 1_565 S
C440 C435 1.399 . S
C440 C439 1.394 . S
C440 C441 1.516 1_565 S
C441 C440 1.516 1_545 S
C441 C442 1.502 1_545 S
C441 C443 1.561 . S
C441 C444 1.526 . S
C442 H426 0.959 . S
C442 H427 0.959 . S
C442 H428 0.961 . S
C442 C441 1.502 1_565 S
C443 H429 0.960 . S
C443 H430 0.961 . S
C443 H431 0.959 . S
C443 C441 1.561 . S
C444 C441 1.526 . S
C444 C445 1.396 . S
C444 C449 1.390 . S
C445 C439 1.465 1_545 S
C445 C444 1.396 . S
C445 C446 1.399 . S
C446 H432 0.929 . S
C446 C445 1.399 . S
C446 C447 1.385 . S
C447 H433 0.931 . S
C447 C446 1.385 . S
C447 C448 1.389 . S
C448 C447 1.389 . S
C448 C449 1.387 . S
C449 H434 0.930 . S
C449 C444 1.390 . S
C449 C448 1.387 . S
H450 C462 0.930 . S
H451 C464 0.930 . S
H452 C465 0.930 . S
H453 C469 0.959 . S
H454 C469 0.959 . S
H455 C469 0.961 . S
H456 C470 0.960 . S
H457 C470 0.961 . S
H458 C470 0.959 . S
H459 C473 0.929 . S
H460 C474 0.931 . S
H461 C476 0.930 . S
C462 H450 0.930 . S
C462 C463 1.399 . S
C462 C467 1.399 . S
C463 C462 1.399 . S
C463 C464 1.376 . S
C464 H451 0.930 . S
C464 C463 1.376 . S
C464 C465 1.388 . S
C465 H452 0.930 . S
C465 C464 1.388 . S
C465 C466 1.390 . S
C466 C465 1.390 . S
C466 C467 1.394 . S
C466 C472 1.465 . S
C467 C462 1.399 . S
C467 C466 1.394 . S
C467 C468 1.516 . S
C468 C467 1.516 . S
C468 C469 1.502 . S
C468 C470 1.561 . S
C468 C471 1.526 . S
C469 H453 0.959 . S
C469 H454 0.959 . S
C469 H455 0.961 . S
C469 C468 1.502 . S
C470 H456 0.960 . S
C470 H457 0.961 . S
C470 H458 0.959 . S
C470 C468 1.561 . S
C471 C468 1.526 . S
C471 C472 1.396 . S
C471 C476 1.390 . S
C472 C466 1.465 . S
C472 C471 1.396 . S
C472 C473 1.399 . S
C473 H459 0.929 . S
C473 C472 1.399 . S
C473 C474 1.385 . S
C474 H460 0.931 . S
C474 C473 1.385 . S
C474 C475 1.389 . S
C475 C474 1.389 . S
C475 C476 1.387 . S
C476 H461 0.930 . S
C476 C471 1.390 . S
C476 C475 1.387 . S
H477 C489 0.930 . S
H478 C491 0.930 . S
H479 C492 0.930 . S
H480 C496 0.959 . S
H481 C496 0.959 . S
H482 C496 0.961 . S
H483 C497 0.960 . S
H484 C497 0.961 . S
H485 C497 0.959 . S
H486 C500 0.929 . S
H487 C501 0.931 . S
H488 C503 0.930 . S
C489 H477 0.930 . S
C489 C490 1.399 . S
C489 C494 1.399 . S
C490 C489 1.399 . S
C490 C491 1.376 . S
C491 H478 0.930 . S
C491 C490 1.376 . S
C491 C492 1.388 1_655 S
C492 H479 0.930 . S
C492 C491 1.388 1_455 S
C492 C493 1.390 . S
C493 C492 1.390 . S
C493 C494 1.394 1_455 S
C493 C499 1.465 . S
C494 C489 1.399 . S
C494 C493 1.394 1_655 S
C494 C495 1.516 . S
C495 C494 1.516 . S
C495 C496 1.502 . S
C495 C497 1.561 . S
C495 C498 1.526 1_655 S
C496 H480 0.959 . S
C496 H481 0.959 . S
C496 H482 0.961 . S
C496 C495 1.502 . S
C497 H483 0.960 . S
C497 H484 0.961 . S
C497 H485 0.959 . S
C497 C495 1.561 . S
C498 C495 1.526 1_455 S
C498 C499 1.396 . S
C498 C503 1.390 . S
C499 C493 1.465 . S
C499 C498 1.396 . S
C499 C500 1.399 . S
C500 H486 0.929 . S
C500 C499 1.399 . S
C500 C501 1.385 . S
C501 H487 0.931 . S
C501 C500 1.385 . S
C501 C502 1.389 . S
C502 C501 1.389 . S
C502 C503 1.387 . S
C503 H488 0.930 . S
C503 C498 1.390 . S
C503 C502 1.387 . S
H504 C516 0.930 . S
H505 C518 0.930 . S
H506 C519 0.930 . S
H507 C523 0.959 . S
H508 C523 0.959 . S
H509 C523 0.961 . S
H510 C524 0.960 . S
H511 C524 0.961 . S
H512 C524 0.959 . S
H513 C527 0.929 . S
H514 C528 0.931 . S
H515 C530 0.930 . S
C516 H504 0.930 . S
C516 C517 1.399 . S
C516 C521 1.399 . S
C517 C516 1.399 . S
C517 C518 1.376 . S
C518 H505 0.930 . S
C518 C517 1.376 . S
C518 C519 1.388 1_565 S
C519 H506 0.930 . S
C519 C518 1.388 1_545 S
C519 C520 1.388 1_545 S
C520 C519 1.388 1_565 S
C520 C521 1.405 . S
C520 C526 1.458 1_565 S
C521 C516 1.399 . S
C521 C520 1.405 . S
C521 C522 1.516 . S
C522 C521 1.516 . S
C522 C523 1.502 . S
C522 C524 1.561 . S
C522 C525 1.526 1_565 S
C523 H507 0.959 . S
C523 H508 0.959 . S
C523 H509 0.961 . S
C523 C522 1.502 . S
C524 H510 0.960 . S
C524 H511 0.961 . S
C524 H512 0.959 . S
C524 C522 1.561 . S
C525 C522 1.526 1_545 S
C525 C526 1.396 . S
C525 C530 1.390 . S
C526 C520 1.458 1_545 S
C526 C525 1.396 . S
C526 C527 1.399 . S
C527 H513 0.929 . S
C527 C526 1.399 . S
C527 C528 1.385 . S
C528 H514 0.931 . S
C528 C527 1.385 . S
C528 C529 1.389 . S
C529 C528 1.389 . S
C529 C530 1.387 . S
C530 H515 0.930 . S
C530 C525 1.390 . S
C530 C529 1.387 . S
H531 C543 0.930 . S
H532 C545 0.930 . S
H533 C546 0.930 . S
H534 C550 0.959 . S
H535 C550 0.959 . S
H536 C550 0.961 . S
H537 C551 0.960 . S
H538 C551 0.961 . S
H539 C551 0.959 . S
H540 C554 0.929 . S
H541 C555 0.931 . S
H542 C557 0.930 . S
C543 H531 0.930 . S
C543 C544 1.399 . S
C543 C548 1.399 . S
C544 C543 1.399 . S
C544 C545 1.376 . S
C545 H532 0.930 . S
C545 C544 1.376 . S
C545 C546 1.388 . S
C546 H533 0.930 . S
C546 C545 1.388 . S
C546 C547 1.390 . S
C547 C546 1.390 . S
C547 C548 1.394 . S
C547 C553 1.465 . S
C548 C543 1.399 . S
C548 C547 1.394 . S
C548 C549 1.516 . S
C549 C548 1.516 . S
C549 C550 1.502 . S
C549 C551 1.561 . S
C549 C552 1.526 . S
C550 H534 0.959 . S
C550 H535 0.959 . S
C550 H536 0.961 . S
C550 C549 1.502 . S
C551 H537 0.960 . S
C551 H538 0.961 . S
C551 H539 0.959 . S
C551 C549 1.561 . S
C552 C549 1.526 . S
C552 C553 1.396 . S
C552 C557 1.390 . S
C553 C547 1.465 . S
C553 C552 1.396 . S
C553 C554 1.399 . S
C554 H540 0.929 . S
C554 C553 1.399 . S
C554 C555 1.385 . S
C555 H541 0.931 . S
C555 C554 1.385 . S
C555 C556 1.389 . S
C556 C555 1.389 . S
C556 C557 1.387 . S
C557 H542 0.930 . S
C557 C552 1.390 . S
C557 C556 1.387 . S
H558 C570 0.930 . S
H559 C572 0.930 . S
H560 C573 0.930 . S
H561 C577 0.959 . S
H562 C577 0.959 . S
H563 C577 0.961 . S
H564 C578 0.960 . S
H565 C578 0.961 . S
H566 C578 0.959 . S
H567 C581 0.929 1_455 S
H568 C582 0.931 . S
H569 C584 0.930 . S
C570 H558 0.930 . S
C570 C571 1.399 . S
C570 C575 1.399 . S
C571 C570 1.399 . S
C571 C572 1.376 . S
C572 H559 0.930 . S
C572 C571 1.376 . S
C572 C573 1.388 . S
C573 H560 0.930 . S
C573 C572 1.388 . S
C573 C574 1.390 . S
C574 C573 1.390 . S
C574 C575 1.394 . S
C574 C580 1.465 1_455 S
C575 C570 1.399 . S
C575 C574 1.394 . S
C575 C576 1.516 1_455 S
C576 C575 1.516 1_655 S
C576 C577 1.502 . S
C576 C578 1.561 . S
C576 C579 1.526 . S
C577 H561 0.959 . S
C577 H562 0.959 . S
C577 H563 0.961 . S
C577 C576 1.502 . S
C578 H564 0.960 . S
C578 H565 0.961 . S
C578 H566 0.959 . S
C578 C576 1.561 . S
C579 C576 1.526 . S
C579 C580 1.396 . S
C579 C584 1.390 . S
C580 C574 1.465 1_655 S
C580 C579 1.396 . S
C580 C581 1.399 . S
C581 H567 0.929 1_655 S
C581 C580 1.399 . S
C581 C582 1.385 . S
C582 H568 0.931 . S
C582 C581 1.385 . S
C582 C583 1.389 . S
C583 C582 1.389 . S
C583 C584 1.387 . S
C584 H569 0.930 . S
C584 C579 1.390 . S
C584 C583 1.387 . S
H585 C597 0.930 . S
H586 C599 0.930 . S
H587 C600 0.930 . S
H588 C604 0.959 . S
H589 C604 0.959 . S
H590 C604 0.961 . S
H591 C605 0.960 . S
H592 C605 0.961 . S
H593 C605 0.959 . S
H594 C608 0.929 . S
H595 C609 0.931 . S
H596 C611 0.930 . S
C597 H585 0.930 . S
C597 C598 1.399 . S
C597 C602 1.399 . S
C598 C597 1.399 . S
C598 C599 1.376 . S
C599 H586 0.930 . S
C599 C598 1.376 . S
C599 C600 1.388 . S
C600 H587 0.930 . S
C600 C599 1.388 . S
C600 C601 1.390 . S
C601 C600 1.390 . S
C601 C602 1.394 . S
C601 C607 1.465 1_545 S
C602 C597 1.399 . S
C602 C601 1.394 . S
C602 C603 1.516 1_545 S
C603 C602 1.516 1_565 S
C603 C604 1.502 . S
C603 C605 1.561 . S
C603 C606 1.526 . S
C604 H588 0.959 . S
C604 H589 0.959 . S
C604 H590 0.961 . S
C604 C603 1.502 . S
C605 H591 0.960 . S
C605 H592 0.961 . S
C605 H593 0.959 . S
C605 C603 1.561 . S
C606 C603 1.526 . S
C606 C607 1.396 . S
C606 C611 1.390 . S
C607 C601 1.465 1_565 S
C607 C606 1.396 . S
C607 C608 1.399 . S
C608 H594 0.929 . S
C608 C607 1.399 . S
C608 C609 1.385 . S
C609 H595 0.931 . S
C609 C608 1.385 . S
C609 C610 1.389 . S
C610 C609 1.389 . S
C610 C611 1.387 . S
C611 H596 0.930 . S
C611 C606 1.390 . S
C611 C610 1.387 . S
C139 C97 0.858 . S
C151 C15 0.959 . S
C166 C121 0.957 . S
C178 C39 0.764 . S
C193 C13 0.874 . S
C205 C57 0.967 . S
C220 C37 0.880 . S
C232 C81 0.828 . S
C247 C55 0.964 . S
C259 C99 0.772 . S
C274 C79 0.894 . S
C286 C123 0.962 . S
C301 C14 0.992 . S
C313 C80 1.106 . S
C328 C98 1.002 . S
C340 C38 1.092 . S
C355 C122 0.988 . S
C367 C56 1.112 . S
C382 C58 1.158 . S
C394 C118 1.145 . S
C409 C16 1.164 . S
C421 C76 1.145 . S
C436 C100 1.154 . S
C448 C34 1.146 . S
C463 C119 1.086 . S
C475 C18 1.118 . S
C490 C36 1.111 . S
C502 C17 1.153 . S
C517 C60 1.137 . S
C529 C35 1.149 . S
C544 C59 1.151 . S
C556 C78 1.133 . S
C571 C102 1.040 . S
C583 C77 1.078 . S
C598 C120 1.035 . S
C610 C101 1.093 . S
