# Generated by pormake.
# Topology vcc, (6)-cn, num edge types: 1
# Building blocks:
#     Node 0, Type 0, BuildingBlock: GEDQOX_clean_sbu_0, # of connection points: 6
#     Node 1, Type 0, BuildingBlock: GEDQOX_clean_sbu_0, # of connection points: 6
#     Node 2, Type 0, BuildingBlock: GEDQOX_clean_sbu_0, # of connection points: 6
#     Node 3, Type 0, BuildingBlock: GEDQOX_clean_sbu_0, # of connection points: 6
#     Node 4, Type 0, BuildingBlock: GEDQOX_clean_sbu_0, # of connection points: 6
#     Node 5, Type 0, BuildingBlock: GEDQOX_clean_sbu_0, # of connection points: 6
#     Node 6, Type 0, BuildingBlock: GEDQOX_clean_sbu_0, # of connection points: 6
#     Node 7, Type 0, BuildingBlock: GEDQOX_clean_sbu_0, # of connection points: 6
#     Node 8, Type 0, BuildingBlock: GEDQOX_clean_sbu_0, # of connection points: 6
#     Node 9, Type 0, BuildingBlock: GEDQOX_clean_sbu_0, # of connection points: 6
#     Node 10, Type 0, BuildingBlock: GEDQOX_clean_sbu_0, # of connection points: 6
#     Node 11, Type 0, BuildingBlock: GEDQOX_clean_sbu_0, # of connection points: 6
#     Node 12, Type 0, BuildingBlock: GEDQOX_clean_sbu_0, # of connection points: 6
#     Node 13, Type 0, BuildingBlock: GEDQOX_clean_sbu_0, # of connection points: 6
#     Node 14, Type 0, BuildingBlock: GEDQOX_clean_sbu_0, # of connection points: 6
#     Node 15, Type 0, BuildingBlock: GEDQOX_clean_sbu_0, # of connection points: 6
#     Node 16, Type 0, BuildingBlock: GEDQOX_clean_sbu_0, # of connection points: 6
#     Node 17, Type 0, BuildingBlock: GEDQOX_clean_sbu_0, # of connection points: 6
#     Node 18, Type 0, BuildingBlock: GEDQOX_clean_sbu_0, # of connection points: 6
#     Node 19, Type 0, BuildingBlock: GEDQOX_clean_sbu_0, # of connection points: 6
#     Node 20, Type 0, BuildingBlock: GEDQOX_clean_sbu_0, # of connection points: 6
#     Node 21, Type 0, BuildingBlock: GEDQOX_clean_sbu_0, # of connection points: 6
#     Node 22, Type 0, BuildingBlock: GEDQOX_clean_sbu_0, # of connection points: 6
#     Node 23, Type 0, BuildingBlock: GEDQOX_clean_sbu_0, # of connection points: 6
#     Node 24, Type 0, BuildingBlock: GEDQOX_clean_sbu_0, # of connection points: 6
#     Node 25, Type 0, BuildingBlock: GEDQOX_clean_sbu_0, # of connection points: 6
#     Node 26, Type 0, BuildingBlock: GEDQOX_clean_sbu_0, # of connection points: 6
#     Node 27, Type 0, BuildingBlock: GEDQOX_clean_sbu_0, # of connection points: 6
#     Node 28, Type 0, BuildingBlock: GEDQOX_clean_sbu_0, # of connection points: 6
#     Node 29, Type 0, BuildingBlock: GEDQOX_clean_sbu_0, # of connection points: 6
#     Node 30, Type 0, BuildingBlock: GEDQOX_clean_sbu_0, # of connection points: 6
#     Node 31, Type 0, BuildingBlock: GEDQOX_clean_sbu_0, # of connection points: 6
#     Edge 32, Type (0, 0), BuildingBlock: UVAHIK_clean_linker_0, # of connection points: 2
#     Edge 33, Type (0, 0), BuildingBlock: UVAHIK_clean_linker_0, # of connection points: 2
#     Edge 34, Type (0, 0), BuildingBlock: UVAHIK_clean_linker_0, # of connection points: 2
#     Edge 35, Type (0, 0), BuildingBlock: UVAHIK_clean_linker_0, # of connection points: 2
#     Edge 36, Type (0, 0), BuildingBlock: UVAHIK_clean_linker_0, # of connection points: 2
#     Edge 37, Type (0, 0), BuildingBlock: UVAHIK_clean_linker_0, # of connection points: 2
#     Edge 38, Type (0, 0), BuildingBlock: UVAHIK_clean_linker_0, # of connection points: 2
#     Edge 39, Type (0, 0), BuildingBlock: UVAHIK_clean_linker_0, # of connection points: 2
#     Edge 40, Type (0, 0), BuildingBlock: UVAHIK_clean_linker_0, # of connection points: 2
#     Edge 41, Type (0, 0), BuildingBlock: UVAHIK_clean_linker_0, # of connection points: 2
#     Edge 42, Type (0, 0), BuildingBlock: UVAHIK_clean_linker_0, # of connection points: 2
#     Edge 43, Type (0, 0), BuildingBlock: UVAHIK_clean_linker_0, # of connection points: 2
#     Edge 44, Type (0, 0), BuildingBlock: UVAHIK_clean_linker_0, # of connection points: 2
#     Edge 45, Type (0, 0), BuildingBlock: UVAHIK_clean_linker_0, # of connection points: 2
#     Edge 46, Type (0, 0), BuildingBlock: UVAHIK_clean_linker_0, # of connection points: 2
#     Edge 47, Type (0, 0), BuildingBlock: UVAHIK_clean_linker_0, # of connection points: 2
#     Edge 48, Type (0, 0), BuildingBlock: UVAHIK_clean_linker_0, # of connection points: 2
#     Edge 49, Type (0, 0), BuildingBlock: UVAHIK_clean_linker_0, # of connection points: 2
#     Edge 50, Type (0, 0), BuildingBlock: UVAHIK_clean_linker_0, # of connection points: 2
#     Edge 51, Type (0, 0), BuildingBlock: UVAHIK_clean_linker_0, # of connection points: 2
#     Edge 52, Type (0, 0), BuildingBlock: UVAHIK_clean_linker_0, # of connection points: 2
#     Edge 53, Type (0, 0), BuildingBlock: UVAHIK_clean_linker_0, # of connection points: 2
#     Edge 54, Type (0, 0), BuildingBlock: UVAHIK_clean_linker_0, # of connection points: 2
#     Edge 55, Type (0, 0), BuildingBlock: UVAHIK_clean_linker_0, # of connection points: 2
#     Edge 56, Type (0, 0), BuildingBlock: UVAHIK_clean_linker_0, # of connection points: 2
#     Edge 57, Type (0, 0), BuildingBlock: UVAHIK_clean_linker_0, # of connection points: 2
#     Edge 58, Type (0, 0), BuildingBlock: UVAHIK_clean_linker_0, # of connection points: 2
#     Edge 59, Type (0, 0), BuildingBlock: UVAHIK_clean_linker_0, # of connection points: 2
#     Edge 60, Type (0, 0), BuildingBlock: UVAHIK_clean_linker_0, # of connection points: 2
#     Edge 61, Type (0, 0), BuildingBlock: UVAHIK_clean_linker_0, # of connection points: 2
#     Edge 62, Type (0, 0), BuildingBlock: UVAHIK_clean_linker_0, # of connection points: 2
#     Edge 63, Type (0, 0), BuildingBlock: UVAHIK_clean_linker_0, # of connection points: 2
#     Edge 64, Type (0, 0), BuildingBlock: UVAHIK_clean_linker_0, # of connection points: 2
#     Edge 65, Type (0, 0), BuildingBlock: UVAHIK_clean_linker_0, # of connection points: 2
#     Edge 66, Type (0, 0), BuildingBlock: UVAHIK_clean_linker_0, # of connection points: 2
#     Edge 67, Type (0, 0), BuildingBlock: UVAHIK_clean_linker_0, # of connection points: 2
#     Edge 68, Type (0, 0), BuildingBlock: UVAHIK_clean_linker_0, # of connection points: 2
#     Edge 69, Type (0, 0), BuildingBlock: UVAHIK_clean_linker_0, # of connection points: 2
#     Edge 70, Type (0, 0), BuildingBlock: UVAHIK_clean_linker_0, # of connection points: 2
#     Edge 71, Type (0, 0), BuildingBlock: UVAHIK_clean_linker_0, # of connection points: 2
#     Edge 72, Type (0, 0), BuildingBlock: UVAHIK_clean_linker_0, # of connection points: 2
#     Edge 73, Type (0, 0), BuildingBlock: UVAHIK_clean_linker_0, # of connection points: 2
#     Edge 74, Type (0, 0), BuildingBlock: UVAHIK_clean_linker_0, # of connection points: 2
#     Edge 75, Type (0, 0), BuildingBlock: UVAHIK_clean_linker_0, # of connection points: 2
#     Edge 76, Type (0, 0), BuildingBlock: UVAHIK_clean_linker_0, # of connection points: 2
#     Edge 77, Type (0, 0), BuildingBlock: UVAHIK_clean_linker_0, # of connection points: 2
#     Edge 78, Type (0, 0), BuildingBlock: UVAHIK_clean_linker_0, # of connection points: 2
#     Edge 79, Type (0, 0), BuildingBlock: UVAHIK_clean_linker_0, # of connection points: 2
#     Edge 80, Type (0, 0), BuildingBlock: UVAHIK_clean_linker_0, # of connection points: 2
#     Edge 81, Type (0, 0), BuildingBlock: UVAHIK_clean_linker_0, # of connection points: 2
#     Edge 82, Type (0, 0), BuildingBlock: UVAHIK_clean_linker_0, # of connection points: 2
#     Edge 83, Type (0, 0), BuildingBlock: UVAHIK_clean_linker_0, # of connection points: 2
#     Edge 84, Type (0, 0), BuildingBlock: UVAHIK_clean_linker_0, # of connection points: 2
#     Edge 85, Type (0, 0), BuildingBlock: UVAHIK_clean_linker_0, # of connection points: 2
#     Edge 86, Type (0, 0), BuildingBlock: UVAHIK_clean_linker_0, # of connection points: 2
#     Edge 87, Type (0, 0), BuildingBlock: UVAHIK_clean_linker_0, # of connection points: 2
#     Edge 88, Type (0, 0), BuildingBlock: UVAHIK_clean_linker_0, # of connection points: 2
#     Edge 89, Type (0, 0), BuildingBlock: UVAHIK_clean_linker_0, # of connection points: 2
#     Edge 90, Type (0, 0), BuildingBlock: UVAHIK_clean_linker_0, # of connection points: 2
#     Edge 91, Type (0, 0), BuildingBlock: UVAHIK_clean_linker_0, # of connection points: 2
#     Edge 92, Type (0, 0), BuildingBlock: UVAHIK_clean_linker_0, # of connection points: 2
#     Edge 93, Type (0, 0), BuildingBlock: UVAHIK_clean_linker_0, # of connection points: 2
#     Edge 94, Type (0, 0), BuildingBlock: UVAHIK_clean_linker_0, # of connection points: 2
#     Edge 95, Type (0, 0), BuildingBlock: UVAHIK_clean_linker_0, # of connection points: 2
#     Edge 96, Type (0, 0), BuildingBlock: UVAHIK_clean_linker_0, # of connection points: 2
#     Edge 97, Type (0, 0), BuildingBlock: UVAHIK_clean_linker_0, # of connection points: 2
#     Edge 98, Type (0, 0), BuildingBlock: UVAHIK_clean_linker_0, # of connection points: 2
#     Edge 99, Type (0, 0), BuildingBlock: UVAHIK_clean_linker_0, # of connection points: 2
#     Edge 100, Type (0, 0), BuildingBlock: UVAHIK_clean_linker_0, # of connection points: 2
#     Edge 101, Type (0, 0), BuildingBlock: UVAHIK_clean_linker_0, # of connection points: 2
#     Edge 102, Type (0, 0), BuildingBlock: UVAHIK_clean_linker_0, # of connection points: 2
#     Edge 103, Type (0, 0), BuildingBlock: UVAHIK_clean_linker_0, # of connection points: 2
#     Edge 104, Type (0, 0), BuildingBlock: UVAHIK_clean_linker_0, # of connection points: 2
#     Edge 105, Type (0, 0), BuildingBlock: UVAHIK_clean_linker_0, # of connection points: 2
#     Edge 106, Type (0, 0), BuildingBlock: UVAHIK_clean_linker_0, # of connection points: 2
#     Edge 107, Type (0, 0), BuildingBlock: UVAHIK_clean_linker_0, # of connection points: 2
#     Edge 108, Type (0, 0), BuildingBlock: UVAHIK_clean_linker_0, # of connection points: 2
#     Edge 109, Type (0, 0), BuildingBlock: UVAHIK_clean_linker_0, # of connection points: 2
#     Edge 110, Type (0, 0), BuildingBlock: UVAHIK_clean_linker_0, # of connection points: 2
#     Edge 111, Type (0, 0), BuildingBlock: UVAHIK_clean_linker_0, # of connection points: 2
#     Edge 112, Type (0, 0), BuildingBlock: UVAHIK_clean_linker_0, # of connection points: 2
#     Edge 113, Type (0, 0), BuildingBlock: UVAHIK_clean_linker_0, # of connection points: 2
#     Edge 114, Type (0, 0), BuildingBlock: UVAHIK_clean_linker_0, # of connection points: 2
#     Edge 115, Type (0, 0), BuildingBlock: UVAHIK_clean_linker_0, # of connection points: 2
#     Edge 116, Type (0, 0), BuildingBlock: UVAHIK_clean_linker_0, # of connection points: 2
#     Edge 117, Type (0, 0), BuildingBlock: UVAHIK_clean_linker_0, # of connection points: 2
#     Edge 118, Type (0, 0), BuildingBlock: UVAHIK_clean_linker_0, # of connection points: 2
#     Edge 119, Type (0, 0), BuildingBlock: UVAHIK_clean_linker_0, # of connection points: 2
#     Edge 120, Type (0, 0), BuildingBlock: UVAHIK_clean_linker_0, # of connection points: 2
#     Edge 121, Type (0, 0), BuildingBlock: UVAHIK_clean_linker_0, # of connection points: 2
#     Edge 122, Type (0, 0), BuildingBlock: UVAHIK_clean_linker_0, # of connection points: 2
#     Edge 123, Type (0, 0), BuildingBlock: UVAHIK_clean_linker_0, # of connection points: 2
#     Edge 124, Type (0, 0), BuildingBlock: UVAHIK_clean_linker_0, # of connection points: 2
#     Edge 125, Type (0, 0), BuildingBlock: UVAHIK_clean_linker_0, # of connection points: 2
#     Edge 126, Type (0, 0), BuildingBlock: UVAHIK_clean_linker_0, # of connection points: 2
#     Edge 127, Type (0, 0), BuildingBlock: UVAHIK_clean_linker_0, # of connection points: 2
# Relax obj value: 0.530
# Max RMSD: 0.240
# Mean RMSD: 0.240
data_MOF--net-vcc--node1-GEDQOX_clean_sbu_0--edge1-UVAHIK_clean_linker_0
_symmetry_space_group_name_H-M    P1
_symmetry_Int_Tables_number       1
_symmetry_cell_setting            triclinic
loop_
_symmetry_equiv_pos_as_xyz
'x, y, z'
_cell_length_a     83.555131
_cell_length_b     74.13511
_cell_length_c     51.560022
_cell_angle_alpha  89.888068
_cell_angle_beta   89.794235
_cell_angle_gamma 89.98875
loop_
_atom_site_label
_atom_site_type_symbol
_atom_site_fract_x
_atom_site_fract_y
_atom_site_fract_z
_atom_type_partial_charge
Nd0 Nd 0.31431 0.99087 0.1797 0.0
Nd1 Nd 0.34097 -0.00146 0.19957 0.0
C2 C 0.28925 0.97909 0.15335 0.0
C3 C 0.28495 0.96644 0.13258 0.0
C4 C 0.29173 0.94911 0.13106 0.0
C5 C 0.28575 0.93649 1.11341 0.0
C6 C 0.27301 0.94107 1.09692 0.0
C7 C 0.26687 0.95875 1.09769 0.0
C8 C 0.27278 0.97128 1.11536 0.0
C9 C 0.31482 0.02775 0.19462 0.0
C10 C 0.34347 0.99607 0.1343 0.0
C11 C 0.36532 0.01207 0.22599 0.0
C12 C 0.36926 0.02732 0.24302 0.0
C13 C 0.36404 0.04494 0.23744 0.0
C14 C 0.37041 0.05965 0.25088 0.0
C15 C 0.38198 0.05691 0.27022 0.0
C16 C 0.38626 0.03913 0.2769 0.0
C17 C 0.37998 0.0245 0.26338 0.0
C18 C 0.34385 0.96221 0.18596 0.0
C19 C 0.30859 0.99335 0.2424 0.0
O20 O 0.2941 0.97202 0.17514 0.0
O21 O 0.29721 0.99356 0.14686 0.0
O22 O 0.30351 0.01646 0.19992 0.0
O23 O 0.32544 0.01961 0.18174 0.0
O24 O 0.32903 0.98918 0.13915 0.0
O25 O 0.3508 0.00249 0.1554 0.0
O26 O 0.36222 0.01603 0.20193 0.0
O27 O 0.35609 -0.00061 0.23519 0.0
O28 O 0.35415 0.9747 0.18123 0.0
O29 O 0.33151 0.96916 0.19691 0.0
O30 O 0.32349 3e-05 0.23884 0.0
O31 O 0.30223 0.98667 0.22101 0.0
H32 H 0.30125 0.94513 0.1441 0.0
H33 H 0.29081 0.92304 1.11313 0.0
H34 H 0.25687 0.96267 1.08561 0.0
H35 H 0.26737 0.98455 0.11631 0.0
H36 H 0.35564 0.04743 0.22188 0.0
H37 H 0.36678 0.07317 0.24546 0.0
H38 H 0.39532 0.0365 0.29139 0.0
H39 H 0.38418 0.01103 0.26791 0.0
Nd40 Nd 0.94789 0.2512 0.17678 0.0
Nd41 Nd 0.92111 0.2447 0.1971 0.0
C42 C 0.97308 0.26215 0.1497 0.0
C43 C 0.97764 0.27548 0.12987 0.0
C44 C 0.97117 0.29299 0.12983 0.0
C45 C 0.97767 0.30632 1.11367 0.0
C46 C 0.99064 0.30229 1.09723 0.0
C47 C 0.99634 0.28442 1.09625 0.0
C48 C 0.98991 0.27118 1.11244 0.0
C49 C 0.9468 0.21453 0.19275 0.0
C50 C 0.91869 0.24623 0.13175 0.0
C51 C 0.896 0.23299 0.22409 0.0
C52 C 0.89017 0.2168 0.23767 0.0
C53 C 0.89368 0.19943 0.22839 0.0
C54 C 0.88558 0.1844 0.23829 0.0
C55 C 0.87383 0.18653 0.25762 0.0
C56 C 0.87117 0.20386 0.268 0.0
C57 C 0.87927 0.21883 0.25809 0.0
C58 C 0.91958 0.28112 0.18304 0.0
C59 C 0.95363 0.24919 0.23954 0.0
O60 O 0.96915 0.26853 0.17238 0.0
O61 O 0.96412 0.24864 0.14256 0.0
O62 O 0.95849 0.22553 0.19676 0.0
O63 O 0.93608 0.22273 0.18015 0.0
O64 O 0.93307 0.25329 0.13644 0.0
O65 O 0.91151 0.2397 0.15304 0.0
O66 O 0.89746 0.23161 0.19908 0.0
O67 O 0.90762 0.24212 0.2345 0.0
O68 O 0.90888 0.26913 0.17849 0.0
O69 O 0.93154 0.27363 0.19414 0.0
O70 O 0.93853 0.24305 0.23633 0.0
O71 O 0.96017 0.25537 0.21786 0.0
H72 H 0.96157 0.29655 0.14306 0.0
H73 H 0.97293 0.3199 1.11471 0.0
H74 H 0.00648 0.28087 1.08415 0.0
H75 H 0.99507 0.25776 1.11226 0.0
H76 H 0.90202 0.19762 0.21255 0.0
H77 H 0.88803 0.17125 0.23007 0.0
H78 H 0.86204 0.2061 0.2826 0.0
H79 H 0.87634 0.23213 0.26539 0.0
Nd80 Nd 0.31293 0.2513 0.30837 0.0
Nd81 Nd 0.33978 0.24392 0.28815 0.0
C82 C 0.28786 0.26307 0.33505 0.0
C83 C 0.28363 0.27571 0.35594 0.0
C84 C 0.29085 0.29279 0.35787 0.0
C85 C 0.28507 0.30544 0.37574 0.0
C86 C 0.27208 0.30115 0.39206 0.0
C87 C 0.26546 0.28371 0.3908 0.0
C88 C 0.27117 0.27115 0.37291 0.0
C89 C 0.31383 0.21445 0.29347 0.0
C90 C 0.34232 0.24643 0.35347 0.0
C91 C 0.36435 0.23075 0.26158 0.0
C92 C 0.36856 0.21564 0.24443 0.0
C93 C 0.36351 0.19791 0.24985 0.0
C94 C 0.37012 0.18336 0.23628 0.0
C95 C 0.38176 0.18635 0.21699 0.0
C96 C 0.38588 0.20422 0.21049 0.0
C97 C 0.37936 0.2187 0.22413 0.0
C98 C 0.34204 0.28031 0.30173 0.0
C99 C 0.30729 0.24855 0.2455 0.0
O100 O 0.29272 0.27016 0.31322 0.0
O101 O 0.2958 0.24856 0.34138 0.0
O102 O 0.30236 0.22556 0.28841 0.0
O103 O 0.32438 0.22273 0.30618 0.0
O104 O 0.32778 0.25313 0.34878 0.0
O105 O 0.34968 0.24009 0.33225 0.0
O106 O 0.36118 0.22666 0.28561 0.0
O107 O 0.35503 0.24336 0.25249 0.0
O108 O 0.35254 0.26806 0.30651 0.0
O109 O 0.32991 0.27308 0.29075 0.0
O110 O 0.32234 0.24225 0.24893 0.0
O111 O 0.30076 0.25499 0.26702 0.0
H112 H 0.30058 0.29655 0.34502 0.0
H113 H 0.2905 0.31869 0.37638 0.0
H114 H 0.25527 0.28001 0.40273 0.0
H115 H 0.26542 0.25808 0.37165 0.0
H116 H 0.35507 0.19525 0.26536 0.0
H117 H 0.36661 0.16977 0.24156 0.0
H118 H 0.39498 0.20704 0.19604 0.0
H119 H 0.38343 0.23225 0.21973 0.0
Nd120 Nd 0.94709 0.99181 0.31033 0.0
Nd121 Nd 0.92041 -0.00319 0.28738 0.0
C122 C 0.97482 0.98107 0.3299 0.0
C123 C 0.98122 0.96727 0.34754 0.0
C124 C 0.97539 0.94947 0.34756 0.0
C125 C 0.98267 0.93628 0.36299 0.0
C126 C 0.99576 0.94074 0.37879 0.0
C127 C 1.00116 0.95873 0.37926 0.0
C128 C 0.99396 0.97183 0.36377 0.0
C129 C 0.94215 0.02909 0.29972 0.0
C130 C 0.91836 0.99604 0.35365 0.0
C131 C 0.89551 0.00977 0.26211 0.0
C132 C 0.89158 0.02343 0.24239 0.0
C133 C 0.89795 0.04098 0.24366 0.0
C134 C 0.89178 0.05473 0.22801 0.0
C135 C 0.87923 0.05111 0.21073 0.0
C136 C 0.87368 0.03325 0.20832 0.0
C137 C 0.87978 0.01957 0.22405 0.0
C138 C 0.91857 0.96132 0.30536 0.0
C139 C 0.95308 0.99312 0.24617 0.0
O140 O 0.96916 0.97546 0.30782 0.0
O141 O 0.96616 0.99382 0.34022 0.0
O142 O 0.94555 0.02278 0.32252 0.0
O143 O 0.94075 0.01599 0.28477 0.0
O144 O 0.93185 0.98717 0.34913 0.0
O145 O 0.91251 0.00415 0.33231 0.0
O146 O 0.9005 0.016 0.28435 0.0
O147 O 0.90303 0.99514 0.25468 0.0
O148 O 0.90762 0.97339 0.30777 0.0
O149 O 0.9309 0.96841 0.29463 0.0
O150 O 0.93698 0.99439 0.24768 0.0
O151 O 0.96031 0.99209 0.26905 0.0
H152 H 0.96546 0.94569 0.33526 0.0
H153 H 0.97821 0.92257 0.36233 0.0
H154 H 0.01139 0.96257 0.39083 0.0
H155 H 0.99864 0.98546 0.36396 0.0
H156 H 0.90711 0.0443 0.25766 0.0
H157 H 0.89639 0.0683 0.23014 0.0
H158 H 0.86386 0.03003 0.19548 0.0
H159 H 0.87466 0.00617 0.22286 0.0
Nd160 Nd 0.67035 0.99568 1.03735 0.0
Nd161 Nd 0.69698 0.00018 1.06 0.0
C162 C 0.64518 0.98311 1.01246 0.0
C163 C 0.6407 0.96943 0.99317 0.0
C164 C 0.64674 0.95173 0.99456 0.0
C165 C 0.63979 0.93794 0.97995 0.0
C166 C 0.62679 0.94167 0.96359 0.0
C167 C 0.62163 0.95966 0.96083 0.0
C168 C 0.6285 0.97339 0.97554 0.0
C169 C 0.66874 0.03117 1.05513 0.0
C170 C 0.70293 -0.00078 0.99587 0.0
C171 C 0.72484 0.01044 1.07954 0.0
C172 C 0.73147 0.02503 1.09548 0.0
C173 C 0.72639 0.043 1.09254 0.0
C174 C 0.73407 0.05686 1.10606 0.0
C175 C 0.74681 0.0529 0.12289 0.0
C176 C 0.75135 0.03479 0.12649 0.0
C177 C 0.74377 0.02101 1.11289 0.0
C178 C 0.6917 0.96297 1.04938 0.0
C179 C 0.66836 0.99638 1.1036 0.0
O180 O 0.65018 0.97687 1.03474 0.0
O181 O 0.65297 -0.00254 1.00462 0.0
O182 O 0.65771 0.0192 1.0575 0.0
O183 O 0.68109 0.02401 1.04459 0.0
O184 O 0.68683 -0.00198 0.99747 0.0
O185 O 0.71019 0.00018 1.01872 0.0
O186 O 0.71989 0.01487 1.05646 0.0
O187 O 0.71541 -0.00109 1.09105 0.0
O188 O 0.69523 0.96917 1.07214 0.0
O189 O 0.69041 0.97614 1.03447 0.0
O190 O 0.6819 0.00511 1.09891 0.0
O191 O 0.66243 0.98833 1.08233 0.0
H192 H 0.65619 0.94834 1.00802 0.0
H193 H 0.64412 0.92426 0.98229 0.0
H194 H 0.6115 0.96299 0.94867 0.0
H195 H 0.62363 0.98691 0.97428 0.0
H196 H 0.7168 0.04638 1.07931 0.0
H197 H 0.73026 0.07066 1.10302 0.0
H198 H 0.7613 0.03129 0.13894 0.0
H199 H 0.74785 0.00724 1.11536 0.0
Nd200 Nd 0.08973 0.74818 1.03506 0.0
Nd201 Nd 0.06273 0.74049 1.05565 0.0
C202 C 0.11422 0.76169 1.00857 0.0
C203 C 0.11853 0.77697 0.99169 0.0
C204 C 0.11381 0.79471 0.99765 0.0
C205 C 0.1206 0.80934 0.98441 0.0
C206 C 0.13211 0.80643 0.96492 0.0
C207 C 0.13591 0.78858 0.95788 0.0
C208 C 0.1292 0.77402 0.97117 0.0
C209 C 0.09218 0.71185 1.04897 0.0
C210 C 0.05717 0.74329 0.99264 0.0
C211 C 0.03778 0.72839 1.08234 0.0
C212 C 0.03359 0.71596 1.10357 0.0
C213 C 0.04069 0.69883 1.10579 0.0
C214 C 0.03488 0.68636 0.12397 0.0
C215 C 0.02198 0.69089 0.14029 0.0
C216 C 0.01549 0.70839 0.13877 0.0
C217 C 0.02123 0.72076 0.12058 0.0
C218 C 0.0634 0.77717 1.04019 0.0
C219 C 0.09224 0.74589 1.10046 0.0
O220 O 0.11105 0.76555 1.03266 0.0
O221 O 0.10489 0.74919 0.99928 0.0
O222 O 0.1027 0.72413 1.05332 0.0
O223 O 0.07994 0.71896 1.03811 0.0
O224 O 0.07222 0.74962 0.99593 0.0
O225 O 0.05065 0.73686 1.01422 0.0
O226 O 0.04292 0.72113 1.06083 0.0
O227 O 0.04538 0.74318 1.08833 0.0
O228 O 0.0519 0.76603 1.03554 0.0
O229 O 0.07403 0.76902 1.05299 0.0
O230 O 0.07767 0.73919 1.096 0.0
O231 O 0.09959 0.75207 1.07911 0.0
H232 H 0.10551 0.79731 1.01336 0.0
H233 H 0.11732 0.82291 0.9901 0.0
H234 H 0.14491 0.78581 0.94325 0.0
H235 H 0.13303 0.76046 0.96636 0.0
H236 H 0.05035 0.69487 1.09293 0.0
H237 H 0.04021 0.67306 0.12482 0.0
H238 H 1.00536 0.71226 0.15069 0.0
H239 H 0.01556 0.73387 0.1191 0.0
Nd240 Nd 0.66961 0.74834 0.94614 0.0
Nd241 Nd 0.69632 0.74114 0.92607 0.0
C242 C 0.64466 0.76096 0.97254 0.0
C243 C 0.63923 0.77682 0.98723 0.0
C244 C 0.64301 0.79441 0.97903 0.0
C245 C 0.63515 0.80927 0.98984 0.0
C246 C 0.62335 0.80676 1.00901 0.0
C247 C 0.62045 0.78918 1.01837 0.0
C248 C 0.62832 0.77438 1.00756 0.0
C249 C 0.66728 0.71187 0.93297 0.0
C250 C 0.70203 0.74352 0.98878 0.0
C251 C 0.72145 0.72964 0.89941 0.0
C252 C 0.72589 0.71629 0.87962 0.0
C253 C 0.71966 0.69867 0.88007 0.0
C254 C 0.72609 0.68539 0.86385 0.0
C255 C 0.73876 0.68957 0.84685 0.0
C256 C 0.7442 0.70752 0.84538 0.0
C257 C 0.73783 0.72072 0.86165 0.0
C258 C 0.6957 0.77789 0.94155 0.0
C259 C 0.66731 0.74607 0.88064 0.0
O260 O 0.6469 0.76335 0.94781 0.0
O261 O 0.6554 0.75046 0.98289 0.0
O262 O 0.65684 0.72415 0.92818 0.0
O263 O 0.67953 0.71908 0.94362 0.0
O264 O 0.68704 0.74998 0.98538 0.0
O265 O 0.70846 0.73698 0.96727 0.0
O266 O 0.71726 0.72328 0.92204 0.0
O267 O 0.71281 0.7434 0.89213 0.0
O268 O 0.70722 0.7667 0.94585 0.0
O269 O 0.68498 0.76982 0.92885 0.0
O270 O 0.68167 0.73902 0.88557 0.0
O271 O 0.66008 0.75273 0.90179 0.0
H272 H 0.65137 0.79658 0.9633 0.0
H273 H 0.6378 0.82262 0.9824 0.0
H274 H 0.61128 0.78666 1.03282 0.0
H275 H 0.62516 0.76092 1.01404 0.0
H276 H 0.71031 0.69499 0.89371 0.0
H277 H 0.72157 0.67173 0.86526 0.0
H278 H 0.7541 0.71119 0.83284 0.0
H279 H 0.74281 0.73422 0.86107 0.0
Nd280 Nd 0.09103 0.99488 0.9523 0.0
Nd281 Nd 0.06456 0.00102 0.92829 0.0
C282 C 0.11761 0.97832 0.9667 0.0
C283 C 0.12364 0.96285 0.98184 0.0
C284 C 0.12006 0.94495 0.97482 0.0
C285 C 0.12813 0.93053 0.98643 0.0
C286 C 0.13987 0.93375 1.0053 0.0
C287 C 0.14271 0.95161 1.01331 0.0
C288 C 0.1347 0.96599 1.00165 0.0
C289 C 0.09066 0.03206 0.94827 0.0
C290 C 0.05899 -0.00166 0.99337 0.0
C291 C 0.03742 0.01488 0.91113 0.0
C292 C 0.03149 0.02812 0.89213 0.0
C293 C 0.03754 0.04582 0.891 0.0
C294 C 0.03059 0.05858 0.87447 0.0
C295 C 0.01761 0.05379 0.85865 0.0
C296 C 0.01199 0.0359 0.85926 0.0
C297 C 0.01884 0.02323 0.87587 0.0
C298 C 0.06793 0.96378 0.93916 0.0
C299 C 0.09313 -0.0026 0.88443 0.0
O300 O 0.10985 0.97466 0.94542 0.0
O301 O 0.11174 0.99216 0.97921 0.0
O302 O 0.09398 0.02298 0.96904 0.0
O303 O 0.08609 0.02133 0.93017 0.0
O304 O 0.07429 0.9928 0.99145 0.0
O305 O 0.05273 0.00377 0.97093 0.0
O306 O 0.04521 0.02119 0.93109 0.0
O307 O 0.04351 -8e-05 0.90206 0.0
O308 O 0.06389 0.97015 0.91665 0.0
O309 O 0.07002 0.97676 0.95428 0.0
O310 O 0.078 0.00227 0.88753 0.0
O311 O 0.10057 0.99303 0.90674 0.0
H312 H 0.11155 0.94209 0.95958 0.0
H313 H 0.1256 0.91693 0.98001 0.0
H314 H 0.15186 0.95463 1.02748 0.0
H315 H 0.13776 0.97964 1.00724 0.0
H316 H 0.04738 0.04992 0.90328 0.0
H317 H 0.03521 0.07223 0.8743 0.0
H318 H 1.00183 0.03185 0.84767 0.0
H319 H 0.01396 0.00969 0.87653 0.0
Nd320 Nd 0.31463 0.48969 0.67589 0.0
Nd321 Nd 0.34147 0.49684 0.69575 0.0
C322 C 0.28949 0.47811 0.6495 0.0
C323 C 0.28496 0.46537 0.62893 0.0
C324 C 0.29143 0.44788 0.6277 0.0
C325 C 0.28523 0.43525 0.61025 0.0
C326 C 0.27255 0.43995 0.59368 0.0
C327 C 0.2667 0.45777 0.59421 0.0
C328 C 0.27284 0.47031 0.61167 0.0
C329 C 0.31542 0.52652 0.69114 0.0
C330 C 0.34363 0.49493 0.63043 0.0
C331 C 0.36651 0.50914 0.72199 0.0
C332 C 0.37234 0.52538 0.73529 0.0
C333 C 0.36925 0.54272 0.72546 0.0
C334 C 0.37741 0.5577 0.73524 0.0
C335 C 0.38882 0.55554 0.75499 0.0
C336 C 0.39104 0.53827 0.76588 0.0
C337 C 0.38287 0.52336 0.75611 0.0
C338 C 0.34338 0.46023 0.6829 0.0
C339 C 0.30897 0.49236 0.73851 0.0
O340 O 0.2942 0.47113 0.67143 0.0
O341 O 0.29768 0.49238 0.64281 0.0
O342 O 0.30382 0.51542 0.69554 0.0
O343 O 0.32616 0.51834 0.6785 0.0
O344 O 0.32941 0.48756 0.63548 0.0
O345 O 0.35076 0.50178 0.65143 0.0
O346 O 0.3649 0.51041 0.69699 0.0
O347 O 0.35505 0.49987 0.73281 0.0
O348 O 0.35392 0.47232 0.67769 0.0
O349 O 0.33133 0.46774 0.69382 0.0
O350 O 0.32399 0.49871 0.735 0.0
O351 O 0.30248 0.48581 0.71715 0.0
H352 H 0.30088 0.4438 0.64078 0.0
H353 H 0.29007 0.4217 0.61016 0.0
H354 H 0.25677 0.46181 0.58207 0.0
H355 H 0.26765 0.4837 0.6124 0.0
H356 H 0.3612 0.54456 0.70932 0.0
H357 H 0.37529 0.57081 0.72662 0.0
H358 H 0.39989 0.53599 0.78082 0.0
H359 H 0.38548 0.51008 0.76385 0.0
Nd360 Nd 0.94707 0.7507 0.67392 0.0
Nd361 Nd 0.92008 0.74556 0.69658 0.0
C362 C 0.97484 0.76189 0.65472 0.0
C363 C 0.98124 0.77581 0.63719 0.0
C364 C 0.97531 0.79357 0.63728 0.0
C365 C 0.98254 0.80684 0.62183 0.0
C366 C 0.99568 0.80248 0.60591 0.0
C367 C 1.00119 0.78455 0.60537 0.0
C368 C 0.99405 0.77137 0.62087 0.0
C369 C 0.94228 0.71332 0.68412 0.0
C370 C 0.9185 0.74644 0.6302 0.0
C371 C 0.89469 0.73253 0.72084 0.0
C372 C 0.88976 0.71842 0.73938 0.0
C373 C 0.89468 0.70041 0.73613 0.0
C374 C 0.88731 0.68655 0.75014 0.0
C375 C 0.87479 0.69043 0.76751 0.0
C376 C 0.87069 0.70861 0.77202 0.0
C377 C 0.87812 0.72245 0.75807 0.0
C378 C 0.91845 0.78118 0.67891 0.0
C379 C 0.95259 0.74905 0.73822 0.0
O380 O 0.96893 0.76737 0.67677 0.0
O381 O 0.96641 0.74906 0.64424 0.0
O382 O 0.94643 0.71975 0.66169 0.0
O383 O 0.94037 0.72634 0.69912 0.0
O384 O 0.93203 0.75522 0.63484 0.0
O385 O 0.9125 0.73835 0.65152 0.0
O386 O 0.89985 0.7268 0.69837 0.0
O387 O 0.90251 0.74662 0.72939 0.0
O388 O 0.90751 0.76916 0.67636 0.0
O389 O 0.93067 0.77398 0.6897 0.0
O390 O 0.93648 0.74765 0.73653 0.0
O391 O 0.95997 0.75032 0.71538 0.0
H392 H 0.96533 0.79725 0.64964 0.0
H393 H 0.978 0.82051 0.62255 0.0
H394 H 0.01147 0.78079 0.59371 0.0
H395 H 0.9988 0.75777 0.6206 0.0
H396 H 0.90352 0.69688 0.72164 0.0
H397 H 0.89088 0.67275 0.74645 0.0
H398 H 0.86096 0.71211 0.78497 0.0
H399 H 0.87405 0.73621 0.76072 0.0
Nd400 Nd 0.31462 0.7502 0.80538 0.0
Nd401 Nd 0.34103 0.74509 0.78237 0.0
C402 C 0.28685 0.76096 0.82509 0.0
C403 C 0.28028 0.77478 0.84256 0.0
C404 C 0.2859 0.79266 0.8422 0.0
C405 C 0.2784 0.80586 0.85737 0.0
C406 C 0.26529 0.80132 0.87327 0.0
C407 C 0.26012 0.78326 0.87414 0.0
C408 C 0.26754 0.77015 0.85893 0.0
C409 C 0.31932 0.71282 0.79503 0.0
C410 C 0.34317 0.74588 0.84878 0.0
C411 C 0.36587 0.73181 0.75708 0.0
C412 C 0.36978 0.71788 0.73776 0.0
C413 C 0.36338 0.70037 0.73971 0.0
C414 C 0.36968 0.68633 0.72475 0.0
C415 C 0.3824 0.68962 0.7075 0.0
C416 C 0.38793 0.70744 0.70427 0.0
C417 C 0.38169 0.72142 0.71932 0.0
C418 C 0.34344 0.78053 0.80008 0.0
C419 C 0.30849 0.74902 0.74121 0.0
O420 O 0.29253 0.76653 0.80291 0.0
O421 O 0.29554 0.7483 0.83552 0.0
O422 O 0.31616 0.71923 0.81786 0.0
O423 O 0.3207 0.72588 0.77991 0.0
O424 O 0.32967 0.75472 0.8443 0.0
O425 O 0.34902 0.73782 0.82736 0.0
O426 O 0.36089 0.72584 0.77957 0.0
O427 O 0.35836 0.74635 0.74933 0.0
O428 O 0.35419 0.76824 0.8023 0.0
O429 O 0.33092 0.77371 0.78971 0.0
O430 O 0.32459 0.7477 0.74263 0.0
O431 O 0.30129 0.75005 0.76421 0.0
H432 H 0.29582 0.7965 0.82979 0.0
H433 H 0.28269 0.81963 0.85641 0.0
H434 H 0.24988 0.77934 0.8858 0.0
H435 H 0.26302 0.75645 0.8594 0.0
H436 H 0.35415 0.6973 0.75381 0.0
H437 H 0.36508 0.6728 0.72749 0.0
H438 H 0.39787 0.71042 0.69142 0.0
H439 H 0.38684 0.73479 0.71761 0.0
Nd440 Nd 0.94757 0.49079 0.8058 0.0
Nd441 Nd 0.92081 0.49855 0.78606 0.0
C442 C 0.97268 0.47891 0.83199 0.0
C443 C 0.97706 0.46619 0.85271 0.0
C444 C 0.97037 0.44881 0.85414 0.0
C445 C 0.97645 0.43611 0.87166 0.0
C446 C 0.98921 0.44066 0.88811 0.0
C447 C 0.99524 0.45839 0.88746 0.0
C448 C 0.98923 0.47099 0.86991 0.0
C449 C 0.94715 0.5276 0.79025 0.0
C450 C 0.91856 0.49599 0.85143 0.0
C451 C 0.89627 0.51212 0.75999 0.0
C452 C 0.89188 0.52787 0.74415 0.0
C453 C 0.89631 0.54546 0.75138 0.0
C454 C 0.88943 0.56041 0.7391 0.0
C455 C 0.87811 0.55797 0.71932 0.0
C456 C 0.87463 0.54031 0.71099 0.0
C457 C 0.88143 0.52544 0.72333 0.0
C458 C 0.91813 0.4621 0.79932 0.0
C459 C 0.95312 0.49339 0.74308 0.0
O460 O 0.96779 0.47192 0.81022 0.0
O461 O 0.96474 0.49337 0.83856 0.0
O462 O 0.95847 0.51626 0.78533 0.0
O463 O 0.93651 0.51959 0.80334 0.0
O464 O 0.9329 0.4889 0.84641 0.0
O465 O 0.91127 0.50265 0.83041 0.0
O466 O 0.899 0.51519 0.78441 0.0
O467 O 0.90605 0.50027 0.75007 0.0
O468 O 0.90779 0.47449 0.80426 0.0
O469 O 0.9304 0.4692 0.78838 0.0
O470 O 0.93823 0.50011 0.74669 0.0
O471 O 0.95951 0.48662 0.76442 0.0
H472 H 0.96086 0.44484 0.84111 0.0
H473 H 0.97148 0.42262 0.87185 0.0
H474 H 1.00524 0.46229 0.89952 0.0
H475 H 0.99457 0.4843 0.86903 0.0
H476 H 0.90445 0.54766 0.76736 0.0
H477 H 0.89247 0.57382 0.74578 0.0
H478 H 0.86579 0.53789 0.69609 0.0
H479 H 0.87782 0.512 0.71754 0.0
Nd480 Nd 0.67125 0.49543 0.53504 0.0
Nd481 Nd 0.69788 0.50026 0.5581 0.0
C482 C 0.64641 0.48268 0.50951 0.0
C483 C 0.64255 0.46914 0.48967 0.0
C484 C 0.64897 0.45161 0.49083 0.0
C485 C 0.64282 0.43792 0.47514 0.0
C486 C 0.63021 0.44159 0.45797 0.0
C487 C 0.62464 0.45945 0.4556 0.0
C488 C 0.63074 0.47308 0.47136 0.0
C489 C 0.6693 0.53084 0.55304 0.0
C490 C 0.70394 0.49905 0.49397 0.0
C491 C 0.7256 0.51083 0.57785 0.0
C492 C 0.73191 0.52441 0.59584 0.0
C493 C 0.72561 0.54198 0.5969 0.0
C494 C 0.73271 0.55501 0.61276 0.0
C495 C 0.74609 0.55059 0.62796 0.0
C496 C 0.75199 0.53281 0.62735 0.0
C497 C 0.74497 0.51987 0.61143 0.0
C498 C 0.69279 0.46306 0.54762 0.0
C499 C 0.66907 0.496 0.60123 0.0
O500 O 0.65132 0.47632 0.53177 0.0
O501 O 0.65398 0.49732 0.50222 0.0
O502 O 0.65836 0.51876 0.55526 0.0
O503 O 0.68174 0.52382 0.54253 0.0
O504 O 0.68784 0.49792 0.49541 0.0
O505 O 0.71115 0.49996 0.51688 0.0
O506 O 0.7199 0.51675 0.55594 0.0
O507 O 0.717 0.49789 0.58786 0.0
O508 O 0.69611 0.46933 0.57043 0.0
O509 O 0.69154 0.47617 0.53257 0.0
O510 O 0.68261 0.5048 0.59683 0.0
O511 O 0.66321 0.48801 0.57987 0.0
H512 H 0.65815 0.44825 0.5048 0.0
H513 H 0.64744 0.42435 0.47723 0.0
H514 H 0.61478 0.46271 0.44283 0.0
H515 H 0.62558 0.48647 0.47025 0.0
H516 H 0.71542 0.54572 0.58511 0.0
H517 H 0.72786 0.56856 0.61294 0.0
H518 H 0.76246 0.52902 0.63844 0.0
H519 H 0.75001 0.50641 0.61082 0.0
Nd520 Nd 0.09118 0.2476 0.5338 0.0
Nd521 Nd 0.06516 0.24218 0.55774 0.0
C522 C 0.11781 0.26427 0.51959 0.0
C523 C 0.12392 0.27996 0.50494 0.0
C524 C 0.11985 0.29773 0.51198 0.0
C525 C 0.12813 0.3124 0.5013 0.0
C526 C 0.14047 0.30953 0.4832 0.0
C527 C 0.14376 0.29181 0.47501 0.0
C528 C 0.13562 0.27719 0.48585 0.0
C529 C 0.09104 0.21047 0.53793 0.0
C530 C 0.05933 0.2439 0.49266 0.0
C531 C 0.03762 0.22945 0.57543 0.0
C532 C 0.03124 0.21641 0.5944 0.0
C533 C 0.0373 0.19875 0.59625 0.0
C534 C 0.02979 0.18604 0.6123 0.0
C535 C 0.01622 0.19085 0.62691 0.0
C536 C 0.01062 0.20874 0.62573 0.0
C537 C 0.01805 0.22137 0.6096 0.0
C538 C 0.06867 0.27924 0.54502 0.0
C539 C 0.09326 0.24565 0.60197 0.0
O540 O 0.11001 0.26767 0.54101 0.0
O541 O 0.11194 0.25061 0.50673 0.0
O542 O 0.09443 0.21955 0.51717 0.0
O543 O 0.08625 0.22114 0.55604 0.0
O544 O 0.07465 0.24936 0.49443 0.0
O545 O 0.05308 0.23878 0.51534 0.0
O546 O 0.04519 0.22281 0.5554 0.0
O547 O 0.04423 0.24411 0.58445 0.0
O548 O 0.06559 0.27341 0.56826 0.0
O549 O 0.0703 0.26586 0.53056 0.0
O550 O 0.07808 0.24107 0.59887 0.0
O551 O 0.10078 0.24963 0.57945 0.0
H552 H 0.11078 0.30031 0.52659 0.0
H553 H 0.12526 0.3259 0.50782 0.0
H554 H 0.15336 0.28911 0.46138 0.0
H555 H 0.13905 0.26364 0.48026 0.0
H556 H 0.04756 0.19463 0.5848 0.0
H557 H 0.03442 0.17241 0.61296 0.0
H558 H 1.00004 0.21283 0.63639 0.0
H559 H 0.01315 0.23488 0.60836 0.0
Nd560 Nd 0.67169 0.24763 0.44693 0.0
Nd561 Nd 0.69864 0.24084 0.42646 0.0
C562 C 0.64675 0.25972 0.47377 0.0
C563 C 0.64168 0.27493 0.49011 0.0
C564 C 0.64637 0.29269 0.48432 0.0
C565 C 0.63888 0.30728 0.49649 0.0
C566 C 0.6266 0.3043 0.5147 0.0
C567 C 0.62281 0.28643 0.52177 0.0
C568 C 0.63028 0.2719 0.50955 0.0
C569 C 0.66984 0.21133 0.43277 0.0
C570 C 0.70426 0.24299 0.4893 0.0
C571 C 0.72376 0.22981 0.39936 0.0
C572 C 0.728 0.21761 0.37799 0.0
C573 C 0.72067 0.20066 0.37518 0.0
C574 C 0.72646 0.18837 0.35681 0.0
C575 C 0.73955 0.19293 0.34089 0.0
C576 C 0.74627 0.21028 0.34299 0.0
C577 C 0.74054 0.22247 0.36137 0.0
C578 C 0.6976 0.27741 0.44247 0.0
C579 C 0.66928 0.24579 0.38148 0.0
O580 O 0.64943 0.26343 0.44946 0.0
O581 O 0.65698 0.2482 0.48323 0.0
O582 O 0.65923 0.22347 0.42821 0.0
O583 O 0.68194 0.21862 0.44375 0.0
O584 O 0.6892 0.24926 0.48603 0.0
O585 O 0.71079 0.2367 0.46769 0.0
O586 O 0.71899 0.22227 0.42093 0.0
O587 O 0.7157 0.24434 0.39357 0.0
O588 O 0.70927 0.26638 0.44663 0.0
O589 O 0.68694 0.26926 0.42973 0.0
O590 O 0.68383 0.23911 0.38608 0.0
O591 O 0.66191 0.25197 0.4028 0.0
H592 H 0.65517 0.2953 0.46939 0.0
H593 H 0.64218 0.32086 0.49081 0.0
H594 H 0.61326 0.28359 0.53544 0.0
H595 H 0.62645 0.2583 0.51419 0.0
H596 H 0.71086 0.19669 0.38774 0.0
H597 H 0.72097 0.17517 0.35552 0.0
H598 H 0.75654 0.21416 0.3314 0.0
H599 H 0.74636 0.23546 0.36331 0.0
Nd600 Nd 0.09137 0.49596 0.44935 0.0
Nd601 Nd 0.06524 0.50171 0.42545 0.0
C602 C 0.11789 0.47922 0.46363 0.0
C603 C 0.1239 0.4637 0.4787 0.0
C604 C 0.11977 0.44585 0.47222 0.0
C605 C 0.12789 0.4313 0.48346 0.0
C606 C 0.14013 0.43435 0.50153 0.0
C607 C 0.1435 0.45218 0.50911 0.0
C608 C 0.13551 0.46669 0.49773 0.0
C609 C 0.09118 0.53311 0.44542 0.0
C610 C 0.05938 0.49976 0.49047 0.0
C611 C 0.03791 0.51471 0.40763 0.0
C612 C 0.03199 0.52772 0.38829 0.0
C613 C 0.03843 0.5452 0.38617 0.0
C614 C 0.03157 0.55782 0.36932 0.0
C615 C 0.01828 0.5531 0.35415 0.0
C616 C 0.01224 0.53541 0.35575 0.0
C617 C 0.01902 0.52288 0.37269 0.0
C618 C 0.06868 0.46459 0.43796 0.0
C619 C 0.09354 0.4983 0.3813 0.0
O620 O 0.11004 0.47559 0.44242 0.0
O621 O 0.11213 0.49311 0.47617 0.0
O622 O 0.09452 0.52398 0.46614 0.0
O623 O 0.08651 0.52246 0.42726 0.0
O624 O 0.07464 0.49409 0.4886 0.0
O625 O 0.05322 0.50513 0.46792 0.0
O626 O 0.04543 0.52134 0.42764 0.0
O627 O 0.04436 0.49983 0.39892 0.0
O628 O 0.06555 0.47049 0.41479 0.0
O629 O 0.07034 0.47794 0.45244 0.0
O630 O 0.07842 0.50312 0.38451 0.0
O631 O 0.10097 0.49398 0.40367 0.0
H632 H 0.11078 0.4431 0.45767 0.0
H633 H 0.12497 0.41771 0.47741 0.0
H634 H 0.15302 0.45504 0.5227 0.0
H635 H 0.13898 0.4803 0.50289 0.0
H636 H 0.04854 0.54924 0.39792 0.0
H637 H 0.03652 0.57131 0.36838 0.0
H638 H 1.00185 0.53142 0.34466 0.0
H639 H 0.01384 0.50951 0.37411 0.0
Nd640 Nd 0.81439 0.99175 0.67767 0.0
Nd641 Nd 0.84083 -0.00244 0.70164 0.0
C642 C 0.78724 0.97797 0.6605 0.0
C643 C 0.7813 0.96479 0.64149 0.0
C644 C 0.78739 0.94711 0.64026 0.0
C645 C 0.78042 0.93439 0.62377 0.0
C646 C 0.76736 0.93919 0.60809 0.0
C647 C 0.76169 0.95706 0.6088 0.0
C648 C 0.76857 0.9697 0.62537 0.0
C649 C 0.8178 0.02896 0.68882 0.0
C650 C 0.8429 0.99548 0.63372 0.0
C651 C 0.86732 0.01407 0.7164 0.0
C652 C 0.87273 0.02959 0.73195 0.0
C653 C 0.86885 0.04744 0.72494 0.0
C654 C 0.87606 0.06201 0.73752 0.0
C655 C 0.88723 0.059 0.75734 0.0
C656 C 0.89043 0.04115 0.76517 0.0
C657 C 0.88328 0.02663 0.75256 0.0
C658 C 0.84036 0.96039 0.69717 0.0
C659 C 0.80877 0.99412 0.74276 0.0
O660 O 0.79504 0.97158 0.68044 0.0
O661 O 0.79334 0.99295 0.65145 0.0
O662 O 0.81372 0.02271 0.66629 0.0
O663 O 0.81993 0.01589 0.70383 0.0
O664 O 0.82772 0.99082 0.63681 0.0
O665 O 0.85042 -0.00045 0.65608 0.0
O666 O 0.85974 0.01773 0.69492 0.0
O667 O 0.86148 7e-05 0.72864 0.0
O668 O 0.84366 0.96927 0.71808 0.0
O669 O 0.83589 0.97135 0.67922 0.0
O670 O 0.82412 -0.00053 0.74086 0.0
O671 O 0.80246 0.98892 0.72027 0.0
H672 H 0.79729 0.943 0.65242 0.0
H673 H 0.78508 0.92076 0.62352 0.0
H674 H 0.75147 0.96113 0.59733 0.0
H675 H 0.76365 0.98321 0.62611 0.0
H676 H 0.86073 0.05018 0.70909 0.0
H677 H 0.87328 0.07559 0.73119 0.0
H678 H 0.89919 0.03832 0.78006 0.0
H679 H 0.88656 0.01303 0.75818 0.0
Nd680 Nd 0.44788 0.25128 0.67702 0.0
Nd681 Nd 0.42083 0.24498 0.7 0.0
C682 C 0.47326 0.26309 0.65148 0.0
C683 C 0.47787 0.27538 0.63034 0.0
C684 C 0.4711 0.29268 0.628 0.0
C685 C 0.47756 0.30518 0.61049 0.0
C686 C 0.49078 0.30051 0.59495 0.0
C687 C 0.49683 0.28281 0.59633 0.0
C688 C 0.49045 0.2704 0.61388 0.0
C689 C 0.4466 0.21501 0.69409 0.0
C690 C 0.41839 0.24722 0.63314 0.0
C691 C 0.39258 0.23274 0.71552 0.0
C692 C 0.37774 0.22764 0.70215 0.0
C693 C 0.36891 0.21279 0.71097 0.0
C694 C 0.35408 0.20879 0.69997 0.0
C695 C 0.34781 0.21968 0.68006 0.0
C696 C 0.35708 0.23399 0.67032 0.0
C697 C 0.37196 0.23788 0.68118 0.0
C698 C 0.42403 0.28226 0.69924 0.0
C699 C 0.45264 0.24938 0.74124 0.0
O700 O 0.46772 0.27058 0.67263 0.0
O701 O 0.46584 0.24817 0.64533 0.0
O702 O 0.4584 0.22589 0.69803 0.0
O703 O 0.43594 0.22338 0.68163 0.0
O704 O 0.4341 0.24946 0.63615 0.0
O705 O 0.41023 0.24534 0.65553 0.0
O706 O 0.39634 0.24976 0.71479 0.0
O707 O 0.40493 0.22228 0.712 0.0
O708 O 0.422 0.27264 0.72005 0.0
O709 O 0.427 0.27178 0.68017 0.0
O710 O 0.4382 0.2416 0.73828 0.0
O711 O 0.45814 0.25719 0.7197 0.0
H712 H 0.46127 0.29678 0.64043 0.0
H713 H 0.47256 0.31865 0.60971 0.0
H714 H 0.50717 0.27883 0.58496 0.0
H715 H 0.49586 0.25716 0.61547 0.0
H716 H 0.37322 0.20467 0.72699 0.0
H717 H 0.3471 0.19784 0.70812 0.0
H718 H 0.35255 0.24254 0.65495 0.0
H719 H 0.37867 0.24929 0.67377 0.0
Nd720 Nd 0.81476 0.25211 0.80601 0.0
Nd721 Nd 0.84149 0.24407 0.7858 0.0
C722 C 0.78984 0.26446 0.83245 0.0
C723 C 0.78561 0.27702 0.85344 0.0
C724 C 0.79248 0.29429 0.8551 0.0
C725 C 0.78658 0.30684 0.87301 0.0
C726 C 0.77383 0.30225 0.88962 0.0
C727 C 0.76759 0.28462 0.88868 0.0
C728 C 0.77343 0.27216 0.87075 0.0
C729 C 0.8149 0.2153 0.79094 0.0
C730 C 0.84397 0.24656 0.85121 0.0
C731 C 0.8658 0.23019 0.75934 0.0
C732 C 0.86981 0.21459 0.74297 0.0
C733 C 0.86498 0.19702 0.74977 0.0
C734 C 0.8715 0.18208 0.737 0.0
C735 C 0.88288 0.18452 0.71714 0.0
C736 C 0.88673 0.20219 0.70921 0.0
C737 C 0.88027 0.21706 0.72205 0.0
C738 C 0.84444 0.28046 0.79897 0.0
C739 C 0.80911 0.2493 0.74318 0.0
O740 O 0.79501 0.27158 0.81083 0.0
O741 O 0.7974 0.24969 0.83873 0.0
O742 O 0.80362 0.2267 0.7861 0.0
O743 O 0.82566 0.22326 0.80367 0.0
O744 O 0.82952 0.2535 0.8465 0.0
O745 O 0.85127 0.24014 0.82999 0.0
O746 O 0.86288 0.22677 0.78366 0.0
O747 O 0.8564 0.24256 0.7498 0.0
O748 O 0.85472 0.26798 0.80372 0.0
O749 O 0.83211 0.27349 0.78822 0.0
O750 O 0.82402 0.24263 0.74664 0.0
O751 O 0.80272 0.25602 0.76463 0.0
H752 H 0.802 0.2983 0.84199 0.0
H753 H 0.79171 0.32025 0.87341 0.0
H754 H 0.75759 0.28068 0.90084 0.0
H755 H 0.76794 0.25894 0.8697 0.0
H756 H 0.85682 0.1948 0.76581 0.0
H757 H 0.86819 0.16866 0.74338 0.0
H758 H 0.89562 0.20461 0.69427 0.0
H759 H 0.88417 0.23048 0.71657 0.0
Nd760 Nd 0.44655 0.9911 0.80799 0.0
Nd761 Nd 0.41999 -0.00153 0.78828 0.0
C762 C 0.47182 0.97957 0.83413 0.0
C763 C 0.47669 0.96608 0.8535 0.0
C764 C 0.4711 0.94821 0.85254 0.0
C765 C 0.4781 0.9349 0.86812 0.0
C766 C 0.4907 0.93931 0.88496 0.0
C767 C 0.49547 0.95747 0.88699 0.0
C768 C 0.48854 0.9707 0.87138 0.0
C769 C 0.44591 0.02805 0.79303 0.0
C770 C 0.41753 0.99609 0.8535 0.0
C771 C 0.39531 0.01138 0.76188 0.0
C772 C 0.39057 0.02685 0.7458 0.0
C773 C 0.39513 0.04455 0.7522 0.0
C774 C 0.38774 0.05928 0.74017 0.0
C775 C 0.37578 0.0565 0.72148 0.0
C776 C 0.37223 0.03873 0.71378 0.0
C777 C 0.37954 0.02407 0.72588 0.0
C778 C 0.4174 0.96202 0.80173 0.0
C779 C 0.4523 0.9936 0.7454 0.0
O780 O 0.46763 0.97343 0.81147 0.0
O781 O 0.46299 0.99306 0.84187 0.0
O782 O 0.45727 0.01682 0.78788 0.0
O783 O 0.43528 0.01985 0.80586 0.0
O784 O 0.43189 0.98902 0.84856 0.0
O785 O 0.41028 0.00271 0.83244 0.0
O786 O 0.39798 0.01473 0.78623 0.0
O787 O 0.40534 -0.00028 0.75214 0.0
O788 O 0.40707 0.97441 0.80671 0.0
O789 O 0.42965 0.96914 0.79076 0.0
O790 O 0.43743 0.00033 0.74899 0.0
O791 O 0.45862 0.9868 0.76676 0.0
H792 H 0.46186 0.94436 0.83896 0.0
H793 H 0.47407 0.92108 0.86629 0.0
H794 H 0.5053 0.96134 0.89943 0.0
H795 H 0.49305 0.98439 0.87233 0.0
H796 H 0.40374 0.047 0.76745 0.0
H797 H 0.39085 0.0728 0.74631 0.0
H798 H 0.36293 0.03604 0.69973 0.0
H799 H 0.37584 0.01053 0.72074 0.0
Nd800 Nd 0.17083 0.99439 0.53892 0.0
Nd801 Nd 0.19765 0.00149 0.55901 0.0
C802 C 0.14616 0.98159 0.51242 0.0
C803 C 0.14167 0.96619 0.49604 0.0
C804 C 0.14632 0.94849 0.50238 0.0
C805 C 0.13954 0.93377 0.48952 0.0
C806 C 0.12806 0.93655 0.47006 0.0
C807 C 0.12428 0.95435 0.46269 0.0
C808 C 0.13101 0.96901 0.47559 0.0
C809 C 0.16863 0.03078 0.55267 0.0
C810 C 0.20331 -0.0007 0.49626 0.0
C811 C 0.22282 0.01265 0.58558 0.0
C812 C 0.22736 0.02525 0.60624 0.0
C813 C 0.22065 0.0426 0.60793 0.0
C814 C 0.22696 0.05526 0.62523 0.0
C815 C 0.23998 0.05068 0.64116 0.0
C816 C 0.24599 0.03295 0.64033 0.0
C817 C 0.23974 0.02039 0.62303 0.0
C818 C 0.19686 0.96481 0.54339 0.0
C819 C 0.16837 0.9966 0.60424 0.0
O820 O 0.14889 0.97802 0.53672 0.0
O821 O 0.15605 0.99351 0.5029 0.0
O822 O 0.15807 0.01856 0.55732 0.0
O823 O 0.18084 0.02355 0.54177 0.0
O824 O 0.18834 0.99279 0.49971 0.0
O825 O 0.20973 0.00581 0.51772 0.0
O826 O 0.21824 0.01978 0.56368 0.0
O827 O 0.21449 -0.00154 0.59213 0.0
O828 O 0.2084 0.97595 0.53887 0.0
O829 O 0.18618 0.97293 0.55622 0.0
O830 O 0.18283 0.00345 0.59942 0.0
O831 O 0.16107 0.99019 0.58311 0.0
H832 H 0.15458 0.94601 0.51808 0.0
H833 H 0.14281 0.92025 0.49547 0.0
H834 H 0.1153 0.95702 0.44807 0.0
H835 H 0.12723 0.98254 0.4705 0.0
H836 H 0.21097 0.04659 0.59522 0.0
H837 H 0.22199 0.06875 0.62557 0.0
H838 H 0.25618 0.02901 0.65197 0.0
H839 H 0.24509 0.00709 0.62193 0.0
Nd840 Nd 0.59037 0.74648 0.53141 0.0
Nd841 Nd 0.56444 0.74093 0.55562 0.0
C842 C 0.61677 0.76316 0.5163 0.0
C843 C 0.62215 0.77876 0.50078 0.0
C844 C 0.61761 0.7965 0.50721 0.0
C845 C 0.62502 0.81124 0.49517 0.0
C846 C 0.63693 0.80846 0.47631 0.0
C847 C 0.64068 0.79071 0.46881 0.0
C848 C 0.63341 0.77602 0.48101 0.0
C849 C 0.59034 0.70935 0.53587 0.0
C850 C 0.55839 0.74282 0.49055 0.0
C851 C 0.53709 0.72785 0.57343 0.0
C852 C 0.53099 0.71431 0.5919 0.0
C853 C 0.53673 0.69646 0.59192 0.0
C854 C 0.52923 0.68328 0.60715 0.0
C855 C 0.51601 0.68778 0.62276 0.0
C856 C 0.51086 0.70585 0.62362 0.0
C857 C 0.51826 0.71895 0.60828 0.0
C858 C 0.56786 0.77804 0.54334 0.0
C859 C 0.59276 0.74446 0.59947 0.0
O860 O 0.60919 0.76671 0.53788 0.0
O861 O 0.61097 0.74919 0.50407 0.0
O862 O 0.59354 0.71833 0.51494 0.0
O863 O 0.58563 0.7201 0.5539 0.0
O864 O 0.57372 0.74825 0.4922 0.0
O865 O 0.55221 0.73768 0.51328 0.0
O866 O 0.54441 0.72172 0.55282 0.0
O867 O 0.54377 0.74232 0.58295 0.0
O868 O 0.56479 0.77206 0.56651 0.0
O869 O 0.56946 0.76476 0.52867 0.0
O870 O 0.57761 0.73972 0.59652 0.0
O871 O 0.60016 0.7486 0.57691 0.0
H872 H 0.60884 0.79904 0.5223 0.0
H873 H 0.62184 0.82477 0.50119 0.0
H874 H 0.64998 0.7881 0.45462 0.0
H875 H 0.63716 0.7625 0.47582 0.0
H876 H 0.54664 0.69255 0.57956 0.0
H877 H 0.53351 0.6695 0.60624 0.0
H878 H 0.50055 0.70972 0.63511 0.0
H879 H 0.51362 0.73261 0.60847 0.0
Nd880 Nd 0.17084 0.74903 0.44525 0.0
Nd881 Nd 0.1977 0.74193 0.42465 0.0
C882 C 0.14621 0.76191 0.47203 0.0
C883 C 0.14172 0.77733 0.48843 0.0
C884 C 0.14638 0.79502 0.482 0.0
C885 C 0.13955 0.80977 0.4948 0.0
C886 C 0.12801 0.80703 0.5143 0.0
C887 C 0.12422 0.78925 0.52179 0.0
C888 C 0.13101 0.77456 0.50894 0.0
C889 C 0.16871 0.71268 0.43142 0.0
C890 C 0.20343 0.74424 0.48752 0.0
C891 C 0.22279 0.7305 0.39776 0.0
C892 C 0.22722 0.71786 0.37701 0.0
C893 C 0.22029 0.70063 0.37526 0.0
C894 C 0.22643 0.68794 0.35777 0.0
C895 C 0.23949 0.69234 0.3417 0.0
C896 C 0.24578 0.70995 0.34266 0.0
C897 C 0.2397 0.72255 0.36016 0.0
C898 C 0.1969 0.77859 0.44026 0.0
C899 C 0.16818 0.74678 0.37989 0.0
O900 O 0.14895 0.76547 0.4477 0.0
O901 O 0.15608 0.74997 0.48146 0.0
O902 O 0.15809 0.72486 0.42706 0.0
O903 O 0.18091 0.71991 0.44217 0.0
O904 O 0.18836 0.75048 0.48433 0.0
O905 O 0.20994 0.73798 0.46587 0.0
O906 O 0.21813 0.7234 0.41969 0.0
O907 O 0.21458 0.7448 0.39133 0.0
O908 O 0.20849 0.76748 0.44455 0.0
O909 O 0.18619 0.77045 0.42764 0.0
O910 O 0.18278 0.7402 0.38437 0.0
O911 O 0.16085 0.75297 0.40122 0.0
H912 H 0.15468 0.79746 0.46624 0.0
H913 H 0.14283 0.82328 0.48875 0.0
H914 H 0.1152 0.78661 0.53644 0.0
H915 H 0.1272 0.76104 0.5141 0.0
H916 H 0.21055 0.69677 0.38802 0.0
H917 H 0.22125 0.67455 0.35733 0.0
H918 H 0.25601 0.71375 0.33092 0.0
H919 H 0.24523 0.73575 0.3613 0.0
Nd920 Nd 0.59071 0.99574 0.45213 0.0
Nd921 Nd 0.56474 0.0014 0.42803 0.0
C922 C 0.61705 0.97909 0.46726 0.0
C923 C 0.62234 0.96368 0.48319 0.0
C924 C 0.61772 0.94587 0.47736 0.0
C925 C 0.62494 0.93128 0.48998 0.0
C926 C 0.63675 0.93427 0.5088 0.0
C927 C 0.64061 0.95212 0.51563 0.0
C928 C 0.63353 0.96665 0.50288 0.0
C929 C 0.59056 0.03288 0.44792 0.0
C930 C 0.55869 -0.0005 0.49302 0.0
C931 C 0.53733 0.01432 0.41044 0.0
C932 C 0.53095 0.02743 0.39165 0.0
C933 C 0.53658 0.0453 0.39054 0.0
C934 C 0.52892 0.05805 0.37483 0.0
C935 C 0.51562 0.05308 0.35983 0.0
C936 C 0.51051 0.03499 0.3602 0.0
C937 C 0.51808 0.02233 0.37599 0.0
C938 C 0.56816 0.96429 0.44027 0.0
C939 C 0.59313 -0.00222 0.38415 0.0
O940 O 0.60944 0.9753 0.44588 0.0
O941 O 0.61134 0.99327 0.47916 0.0
O942 O 0.59369 0.02383 0.46879 0.0
O943 O 0.58598 0.02217 0.42979 0.0
O944 O 0.57396 0.9939 0.49129 0.0
O945 O 0.55257 0.00478 0.47041 0.0
O946 O 0.54485 0.02087 0.43051 0.0
O947 O 0.54394 -0.00032 0.40128 0.0
O948 O 0.56512 0.97027 0.41713 0.0
O949 O 0.56974 0.97757 0.45494 0.0
O950 O 0.57799 0.00258 0.38715 0.0
O951 O 0.60051 0.99362 0.40661 0.0
H952 H 0.60901 0.94316 0.46236 0.0
H953 H 0.62168 0.91768 0.48446 0.0
H954 H 0.64985 0.95488 0.52976 0.0
H955 H 0.63734 0.98022 0.5076 0.0
H956 H 0.54657 0.04956 0.40236 0.0
H957 H 0.53318 0.07184 0.3748 0.0
H958 H 0.50014 0.03077 0.34923 0.0
H959 H 0.51351 0.00865 0.37666 0.0
Nd960 Nd 0.8156 0.49145 0.17637 0.0
Nd961 Nd 0.84177 0.49721 0.20043 0.0
C962 C 0.78822 0.47839 0.15891 0.0
C963 C 0.78185 0.46547 0.13989 0.0
C964 C 0.78772 0.44772 0.13811 0.0
C965 C 0.78023 0.43517 0.12195 0.0
C966 C 0.76685 0.44021 1.10715 0.0
C967 C 0.76143 0.45817 1.1083 0.0
C968 C 0.76885 0.47064 0.12454 0.0
C969 C 0.81896 0.52856 0.18852 0.0
C970 C 0.84404 0.49496 0.13246 0.0
C971 C 0.86817 0.51395 0.21505 0.0
C972 C 0.87363 0.52954 0.23041 0.0
C973 C 0.86918 0.54731 0.2239 0.0
C974 C 0.87664 0.56201 0.23579 0.0
C975 C 0.88851 0.55918 0.25458 0.0
C976 C 0.8922 0.5414 0.26212 0.0
C977 C 0.88488 0.52675 0.25007 0.0
C978 C 0.84136 0.46007 0.19656 0.0
C979 C 0.80981 0.4935 0.24144 0.0
O980 O 0.79591 0.47169 0.17873 0.0
O981 O 0.79464 0.49323 0.14996 0.0
O982 O 0.81577 0.52262 0.16543 0.0
O983 O 0.82071 0.51526 0.20314 0.0
O984 O 0.82889 0.49022 0.13553 0.0
O985 O 0.85146 0.49916 0.15485 0.0
O986 O 0.86051 0.51754 0.19362 0.0
O987 O 0.86243 0.49994 0.22741 0.0
O988 O 0.84462 0.46911 0.21732 0.0
O989 O 0.83694 0.47084 0.17834 0.0
O990 O 0.82508 0.49909 0.23959 0.0
O991 O 0.80361 0.4882 0.21891 0.0
H992 H 0.79783 0.44342 0.14969 0.0
H993 H 0.78472 0.42148 0.12132 0.0
H994 H 0.75099 0.46244 1.09751 0.0
H995 H 0.76408 0.48421 0.12572 0.0
H996 H 0.86043 0.54989 0.20889 0.0
H997 H 0.87351 0.57555 0.22973 0.0
H998 H 0.90146 0.53875 0.27626 0.0
H999 H 0.88857 0.51321 0.25531 0.0
Nd1000 Nd 0.44665 0.75139 0.17495 0.0
Nd1001 Nd 0.41987 0.74394 0.19525 0.0
C1002 C 0.47168 0.76332 0.14833 0.0
C1003 C 0.47607 0.77584 0.12734 0.0
C1004 C 0.4692 0.7931 0.12537 0.0
C1005 C 0.47531 0.80566 1.10759 0.0
C1006 C 0.48829 0.80109 1.09144 0.0
C1007 C 0.4945 0.78345 1.09263 0.0
C1008 C 0.48845 0.77098 1.11042 0.0
C1009 C 0.44618 0.7146 0.19023 0.0
C1010 C 0.41757 0.74596 0.12971 0.0
C1011 C 0.39501 0.73112 0.22173 0.0
C1012 C 0.38971 0.71523 0.23659 0.0
C1013 C 0.39353 0.69766 0.22846 0.0
C1014 C 0.38577 0.68276 0.23945 0.0
C1015 C 0.37405 0.68522 0.25875 0.0
C1016 C 0.37113 0.70279 0.26804 0.0
C1017 C 0.37889 0.71763 0.25705 0.0
C1018 C 0.41752 0.78045 0.18207 0.0
C1019 C 0.45239 0.74862 0.23774 0.0
O1020 O 0.46668 0.77049 0.16998 0.0
O1021 O 0.46386 0.74873 0.14208 0.0
O1022 O 0.45769 0.72579 0.19457 0.0
O1023 O 0.43537 0.7227 0.17774 0.0
O1024 O 0.43199 0.75292 0.13441 0.0
O1025 O 0.41027 0.73958 0.151 0.0
O1026 O 0.39728 0.72869 0.19703 0.0
O1027 O 0.40564 0.74176 0.23199 0.0
O1028 O 0.40711 0.76818 0.17717 0.0
O1029 O 0.42971 0.77317 0.19283 0.0
O1030 O 0.43736 0.74225 0.23441 0.0
O1031 O 0.45886 0.75512 0.21619 0.0
H1032 H 0.45953 0.7971 0.13817 0.0
H1033 H 0.47019 0.81907 1.10698 0.0
H1034 H 0.50467 0.77952 1.08085 0.0
H1035 H 0.49393 0.75776 1.11172 0.0
H1036 H 0.40183 0.69551 0.21266 0.0
H1037 H 0.38842 0.66942 0.23205 0.0
H1038 H 0.36202 0.70527 0.2826 0.0
H1039 H 0.37571 0.73107 0.26348 0.0
Nd1040 Nd 0.81436 0.75097 0.30628 0.0
Nd1041 Nd 0.84047 0.74568 0.28185 0.0
C1042 C 0.78705 0.7639 0.32448 0.0
C1043 C 0.78121 0.77684 0.34396 0.0
C1044 C 0.78785 0.7942 0.34626 0.0
C1045 C 0.78104 0.80679 0.36322 0.0
C1046 C 0.76763 0.80214 0.37832 0.0
C1047 C 0.76141 0.78455 0.37656 0.0
C1048 C 0.76812 0.77205 0.35952 0.0
C1049 C 0.81797 0.71395 0.29374 0.0
C1050 C 0.84283 0.74743 0.34995 0.0
C1051 C 0.86711 0.72933 0.26708 0.0
C1052 C 0.87313 0.71369 0.25234 0.0
C1053 C 0.86889 0.69591 0.2592 0.0
C1054 C 0.87712 0.68125 0.24853 0.0
C1055 C 0.88957 0.68411 0.23062 0.0
C1056 C 0.893 0.70184 0.22253 0.0
C1057 C 0.8849 0.71647 0.23337 0.0
C1058 C 0.84 0.78277 0.28664 0.0
C1059 C 0.80835 0.74924 0.24116 0.0
O1060 O 0.79457 0.77063 0.3044 0.0
O1061 O 0.79348 0.74897 0.33304 0.0
O1062 O 0.81474 0.71976 0.31692 0.0
O1063 O 0.81962 0.72733 0.27919 0.0
O1064 O 0.8276 0.7519 0.34711 0.0
O1065 O 0.85027 0.74357 0.32734 0.0
O1066 O 0.85955 0.72584 0.28871 0.0
O1067 O 0.86103 0.74295 0.25433 0.0
O1068 O 0.84328 0.77399 0.2656 0.0
O1069 O 0.83554 0.77178 0.30459 0.0
O1070 O 0.82373 0.74393 0.24274 0.0
O1071 O 0.80214 0.75425 0.26392 0.0
H1072 H 0.79805 0.79818 0.33455 0.0
H1073 H 0.78613 0.82021 0.36428 0.0
H1074 H 0.75091 0.78063 0.3876 0.0
H1075 H 0.7628 0.75877 0.35796 0.0
H1076 H 0.85975 0.69334 0.27369 0.0
H1077 H 0.87416 0.66773 0.25495 0.0
H1078 H 0.90268 0.70454 0.20903 0.0
H1079 H 0.88844 0.73003 0.22791 0.0
Nd1080 Nd 0.44633 0.49088 0.30563 0.0
Nd1081 Nd 0.42038 0.49655 0.2816 0.0
C1082 C 0.47373 0.4778 0.32298 0.0
C1083 C 0.4801 0.46426 0.34116 0.0
C1084 C 0.47509 0.44615 0.34043 0.0
C1085 C 0.48297 0.43308 0.35527 0.0
C1086 C 0.49586 0.43795 0.37122 0.0
C1087 C 0.50025 0.45625 0.37285 0.0
C1088 C 0.49247 0.46924 0.35792 0.0
C1089 C 0.44299 0.5281 0.29384 0.0
C1090 C 0.41797 0.49426 0.34952 0.0
C1091 C 0.39397 0.51307 0.2664 0.0
C1092 C 0.38872 0.52849 0.25045 0.0
C1093 C 0.39353 0.54627 0.25608 0.0
C1094 C 0.38643 0.56089 0.24334 0.0
C1095 C 0.37456 0.55795 0.22459 0.0
C1096 C 0.37048 0.54012 0.21802 0.0
C1097 C 0.37745 0.52556 0.23088 0.0
C1098 C 0.4207 0.45936 0.28576 0.0
C1099 C 0.4524 0.49292 0.24075 0.0
O1100 O 0.46639 0.47171 0.30245 0.0
O1101 O 0.46698 0.49217 0.33277 0.0
O1102 O 0.44617 0.52195 0.31684 0.0
O1103 O 0.44127 0.51493 0.279 0.0
O1104 O 0.43309 0.48938 0.34645 0.0
O1105 O 0.4106 0.49861 0.32712 0.0
O1106 O 0.40152 0.51685 0.28784 0.0
O1107 O 0.39977 0.49894 0.25449 0.0
O1108 O 0.41759 0.4684 0.26487 0.0
O1109 O 0.4251 0.47015 0.30389 0.0
O1110 O 0.43714 0.49855 0.2425 0.0
O1111 O 0.4585 0.48754 0.26331 0.0
H1112 H 0.46548 0.44196 0.32775 0.0
H1113 H 0.47927 0.41912 0.35376 0.0
H1114 H 0.5103 0.46042 0.38462 0.0
H1115 H 0.49656 0.4831 0.35868 0.0
H1116 H 0.40231 0.54894 0.271 0.0
H1117 H 0.38986 0.57447 0.24868 0.0
H1118 H 0.3612 0.5374 0.20395 0.0
H1119 H 0.3735 0.51202 0.22632 0.0
Nd1120 Nd 0.17049 0.49593 1.03185 0.0
Nd1121 Nd 0.19657 0.50129 1.05575 0.0
C1122 C 0.14388 0.47958 1.01729 0.0
C1123 C 0.13799 0.46426 1.00184 0.0
C1124 C 0.14244 0.44637 1.00759 0.0
C1125 C 0.13452 0.43191 0.99586 0.0
C1126 C 0.12217 0.43511 0.97802 0.0
C1127 C 0.11847 0.45302 0.97119 0.0
C1128 C 0.12627 0.46743 0.98305 0.0
C1129 C 0.17093 0.53304 1.03571 0.0
C1130 C 0.20252 0.49947 0.99079 0.0
C1131 C 0.22404 0.5139 1.07348 0.0
C1132 C 0.23012 0.52699 1.09248 0.0
C1133 C 0.22396 0.54462 1.09405 0.0
C1134 C 0.23107 0.55733 1.1104 0.0
C1135 C 0.24433 0.55255 0.12562 0.0
C1136 C 0.25006 0.53471 0.12465 0.0
C1137 C 0.24304 0.52209 1.1082 0.0
C1138 C 0.19284 0.46425 1.04323 0.0
C1139 C 0.16827 0.49814 1.09989 0.0
O1140 O 0.15165 0.47569 1.0385 0.0
O1141 O 0.14972 0.49358 1.00503 0.0
O1142 O 0.16767 0.52399 1.01495 0.0
O1143 O 0.1755 0.52232 1.05392 0.0
O1144 O 0.18722 0.49393 0.99264 0.0
O1145 O 0.20869 0.50473 1.01334 0.0
O1146 O 0.21667 0.5205 1.05326 0.0
O1147 O 0.21733 0.49925 1.08252 0.0
O1148 O 0.19596 0.47004 1.06641 0.0
O1149 O 0.19134 0.47765 1.02874 0.0
O1150 O 0.18343 0.50282 1.09669 0.0
O1151 O 0.16082 0.49392 1.07752 0.0
H1152 H 0.15154 0.44351 1.02193 0.0
H1153 H 0.13768 0.41826 1.00135 0.0
H1154 H 0.10885 0.45598 0.95782 0.0
H1155 H 0.12257 0.48107 0.97843 0.0
H1156 H 0.2139 0.54871 1.08221 0.0
H1157 H 0.22635 0.57093 1.11088 0.0
H1158 H 0.26043 0.53067 0.1358 0.0
H1159 H 0.24801 0.5086 1.1072 0.0
Nd1160 Nd 0.59169 0.2477 1.03349 0.0
Nd1161 Nd 0.56525 0.24183 1.05775 0.0
C1162 C 0.61831 0.26426 1.01899 0.0
C1163 C 0.62438 0.27991 1.00422 0.0
C1164 C 0.62079 0.29772 1.01175 0.0
C1165 C 0.62897 0.31228 1.00062 0.0
C1166 C 0.64083 0.3093 0.98173 0.0
C1167 C 0.64367 0.29156 0.97318 0.0
C1168 C 0.63556 0.27703 0.98436 0.0
C1169 C 0.59133 0.21055 1.03784 0.0
C1170 C 0.55962 0.24419 0.99266 0.0
C1171 C 0.5379 0.2284 1.07505 0.0
C1172 C 0.53145 0.21519 1.09372 0.0
C1173 C 0.53686 0.19722 1.09433 0.0
C1174 C 0.52915 0.18445 1.11003 0.0
C1175 C 0.51602 0.1895 0.12551 0.0
C1176 C 0.51112 0.20766 0.12559 0.0
C1177 C 0.51874 0.22035 1.10983 0.0
C1178 C 0.56877 0.27902 1.04644 0.0
C1179 C 0.5938 0.24527 1.10146 0.0
O1180 O 0.61063 0.26768 1.04052 0.0
O1181 O 0.61232 0.25063 1.00621 0.0
O1182 O 0.59474 0.21954 1.01699 0.0
O1183 O 0.58667 0.22134 1.05586 0.0
O1184 O 0.57493 0.24973 0.99442 0.0
O1185 O 0.55339 0.23882 1.01522 0.0
O1186 O 0.54565 0.22202 1.055 0.0
O1187 O 0.54426 0.24312 1.08436 0.0
O1188 O 0.56475 0.27277 1.06908 0.0
O1189 O 0.57078 0.26596 1.03145 0.0
O1190 O 0.57863 0.24051 1.09849 0.0
O1191 O 0.60125 0.24956 1.07902 0.0
H1192 H 0.61219 0.30039 1.02704 0.0
H1193 H 0.62643 0.3258 1.00744 0.0
H1194 H 0.6529 0.28873 0.95896 0.0
H1195 H 0.63864 0.26346 0.97839 0.0
H1196 H 0.54673 0.1929 1.08215 0.0
H1197 H 0.53325 0.1706 1.1097 0.0
H1198 H 0.50087 0.21196 0.13693 0.0
H1199 H 0.51433 0.23409 1.10954 0.0
Nd1200 Nd 0.16971 0.24693 0.9503 0.0
Nd1201 Nd 0.19652 0.24197 0.92672 0.0
C1202 C 0.14476 0.26 0.97553 0.0
C1203 C 0.14037 0.27396 0.99452 0.0
C1204 C 0.14647 0.2916 0.99248 0.0
C1205 C 0.13938 0.30572 1.00633 0.0
C1206 C 0.12618 0.30237 1.02257 0.0
C1207 C 0.121 0.28445 1.02615 0.0
C1208 C 0.12802 0.27039 1.01218 0.0
C1209 C 0.16821 0.21138 0.93298 0.0
C1210 C 0.20255 0.24258 0.99108 0.0
C1211 C 0.22322 0.23227 0.90287 0.0
C1212 C 0.22645 0.22852 0.87535 0.0
C1213 C 0.21494 0.21987 0.85989 0.0
C1214 C 0.21745 0.21787 0.83326 0.0
C1215 C 0.23143 0.22462 0.8216 0.0
C1216 C 0.24298 0.23312 0.83719 0.0
C1217 C 0.2405 0.23505 0.86383 0.0
C1218 C 0.19088 0.27894 0.93744 0.0
C1219 C 0.16764 0.24687 0.88348 0.0
O1220 O 0.14973 0.26596 0.95302 0.0
O1221 O 0.15247 0.24564 0.98352 0.0
O1222 O 0.15716 0.22329 0.93043 0.0
O1223 O 0.18047 0.21865 0.94352 0.0
O1224 O 0.18652 0.24489 0.98972 0.0
O1225 O 0.20968 0.24056 0.96808 0.0
O1226 O 0.21391 0.22088 0.91498 0.0
O1227 O 0.21973 0.24897 0.90818 0.0
O1228 O 0.19326 0.27274 0.91417 0.0
O1229 O 0.1902 0.26579 0.95252 0.0
O1230 O 0.18162 0.23893 0.88743 0.0
O1231 O 0.16135 0.25399 0.90529 0.0
H1232 H 0.15604 0.2947 0.97897 0.0
H1233 H 0.14373 0.31934 1.00339 0.0
H1234 H 0.11073 0.28141 1.03827 0.0
H1235 H 0.12308 0.25693 1.01392 0.0
H1236 H 0.20389 0.21491 0.86829 0.0
H1237 H 0.20832 0.21135 0.82171 0.0
H1238 H 0.254 0.23818 0.82879 0.0
H1239 H 0.24944 0.24188 0.87539 0.0
Nd1240 Nd 0.59164 0.49349 0.94651 0.0
Nd1241 Nd 0.5648 0.50145 0.92623 0.0
C1242 C 0.61595 0.47961 0.9728 0.0
C1243 C 0.62018 0.46393 0.98893 0.0
C1244 C 0.61584 0.4463 0.98175 0.0
C1245 C 0.62262 0.43141 0.99431 0.0
C1246 C 0.63378 0.43395 1.01431 0.0
C1247 C 0.63716 0.45164 1.02259 0.0
C1248 C 0.63043 0.46646 1.00998 0.0
C1249 C 0.59451 0.52988 0.93321 0.0
C1250 C 0.55914 0.49883 0.98899 0.0
C1251 C 0.53984 0.51342 0.89977 0.0
C1252 C 0.53552 0.52542 0.87817 0.0
C1253 C 0.54245 0.54259 0.87518 0.0
C1254 C 0.53648 0.55464 0.85665 0.0
C1255 C 0.52358 0.54965 0.84074 0.0
C1256 C 0.51728 0.5321 0.84302 0.0
C1257 C 0.52319 0.52014 0.86155 0.0
C1258 C 0.56514 0.46476 0.94183 0.0
C1259 C 0.59408 0.49589 0.88114 0.0
O1260 O 0.61315 0.47638 0.94844 0.0
O1261 O 0.60637 0.49174 0.98254 0.0
O1262 O 0.6049 0.51747 0.92868 0.0
O1263 O 0.58209 0.52287 0.94381 0.0
O1264 O 0.57404 0.4921 0.9856 0.0
O1265 O 0.55279 0.50555 0.96757 0.0
O1266 O 0.54521 0.52105 0.9208 0.0
O1267 O 0.54725 0.49842 0.89414 0.0
O1268 O 0.55378 0.47607 0.94662 0.0
O1269 O 0.57584 0.47274 0.92884 0.0
O1270 O 0.57964 0.50285 0.88582 0.0
O1271 O 0.60137 0.48948 0.90231 0.0
H1272 H 0.60786 0.44402 0.96559 0.0
H1273 H 0.61966 0.41797 0.98766 0.0
H1274 H 0.64587 0.45414 1.03765 0.0
H1275 H 0.63398 0.47993 1.01574 0.0
H1276 H 0.55208 0.5469 0.88773 0.0
H1277 H 0.54166 0.568 0.85521 0.0
H1278 H 0.50716 0.52788 0.83145 0.0
H1279 H 0.51766 0.50699 0.86363 0.0
C1280 C 0.41662 0.81279 0.20134 0.0
C1281 C 0.4123 0.80015 0.18213 0.0
C1282 C 0.40928 0.83017 0.20248 0.0
C1283 C 0.38498 0.86331 0.16205 0.0
H1284 H 0.37346 0.88529 0.22761 0.0
C1285 C 0.36101 0.93749 0.167 0.0
C1286 C 0.3492 0.94256 0.18526 0.0
C1287 C 0.36813 0.92022 0.16714 0.0
C1288 C 0.37646 0.87938 0.20903 0.0
H1289 H 0.39685 0.7965 0.14895 0.0
H1290 H 0.38462 0.82624 0.15048 0.0
H1291 H 0.38757 0.85619 0.22696 0.0
H1292 H 0.33587 0.93269 0.2184 0.0
H1293 H 0.34831 0.90243 0.21879 0.0
H1294 H 0.37392 0.88627 0.14402 0.0
C1295 C 0.39364 0.82303 0.16478 0.0
C1296 C 0.3848 0.86264 0.20866 0.0
C1297 C 0.40074 0.80576 0.16389 0.0
C1298 C 0.34467 0.92939 0.20371 0.0
C1299 C 0.35203 0.91201 0.2041 0.0
C1300 C 0.37684 0.88006 0.16242 0.0
C1301 C 0.39754 0.83565 0.18422 0.0
C1302 C 0.3892 0.85414 0.18511 0.0
C1303 C 0.36401 0.90705 0.18582 0.0
C1304 C 0.37234 0.88856 0.18588 0.0
H1305 H 0.42522 0.80906 0.21606 0.0
H1306 H 0.41282 0.83932 0.21775 0.0
H1307 H 0.38812 0.85763 0.14339 0.0
H1308 H 0.36505 0.94715 0.1526 0.0
H1309 H 0.37733 0.91743 0.15287 0.0
C1310 C 0.85612 0.43305 0.21481 0.0
C1311 C 0.84859 0.44129 0.19333 0.0
C1312 C 0.86414 0.41636 0.21285 0.0
C1313 C 0.88038 0.38183 0.1642 0.0
H1314 H 0.88642 0.35339 0.22657 0.0
C1315 C 0.90477 0.30715 0.16261 0.0
C1316 C 0.91489 0.30092 0.18259 0.0
C1317 C 0.89776 0.32449 0.16317 0.0
C1318 C 0.88509 0.36116 0.20891 0.0
H1319 H 0.84369 0.43748 0.15255 0.0
H1320 H 0.85708 0.40801 0.14916 0.0
H1321 H 0.87144 0.38142 0.22856 0.0
H1322 H 0.92536 0.30866 0.21921 0.0
H1323 H 0.91302 0.3389 0.22049 0.0
H1324 H 0.8936 0.36092 0.14451 0.0
C1325 C 0.85715 0.41477 0.16772 0.0
C1326 C 0.87641 0.37757 0.21 0.0
C1327 C 0.84921 0.43176 0.16966 0.0
C1328 C 0.91793 0.31295 0.20317 0.0
C1329 C 0.91062 0.33029 0.20402 0.0
C1330 C 0.88886 0.36524 0.16306 0.0
C1331 C 0.86492 0.40665 0.18933 0.0
C1332 C 0.87389 0.38849 0.18772 0.0
C1333 C 0.90022 0.33638 0.18412 0.0
C1334 C 0.89149 0.35455 0.18542 0.0
H1335 H 0.85615 0.43973 0.23347 0.0
H1336 H 0.87007 0.41139 0.23003 0.0
H1337 H 0.87917 0.38953 0.14648 0.0
H1338 H 0.90188 0.29831 0.14658 0.0
H1339 H 0.88982 0.32828 0.14754 0.0
C1340 C 0.41311 0.4309 0.31276 0.0
C1341 C 0.41333 0.44062 0.28918 0.0
C1342 C 0.40518 0.4139 0.3149 0.0
C1343 C 0.38489 0.3771 0.27317 0.0
H1344 H 0.36962 0.35953 0.33947 0.0
C1345 C 0.34354 0.31231 0.28176 0.0
C1346 C 0.34708 0.30004 0.3019 0.0
C1347 C 0.3509 0.32963 0.28065 0.0
C1348 C 0.37381 0.36411 0.32069 0.0
H1349 H 0.405 0.43941 0.24943 0.0
H1350 H 0.39108 0.41108 0.25324 0.0
H1351 H 0.38392 0.38818 0.33708 0.0
H1352 H 0.36106 0.29701 0.3369 0.0
H1353 H 0.37323 0.32693 0.33553 0.0
H1354 H 0.37443 0.35313 0.25683 0.0
C1355 C 0.39735 0.41588 0.27018 0.0
C1356 C 0.38223 0.38074 0.31929 0.0
C1357 C 0.40537 0.43257 0.26801 0.0
C1358 C 0.35779 0.30602 0.32121 0.0
C1359 C 0.36486 0.32334 0.32041 0.0
C1360 C 0.37627 0.36066 0.27455 0.0
C1361 C 0.39699 0.40595 0.29361 0.0
C1362 C 0.38804 0.38774 0.29546 0.0
C1363 C 0.36186 0.33548 0.29988 0.0
C1364 C 0.37055 0.3537 0.29832 0.0
H1365 H 0.41898 0.43645 0.32964 0.0
H1366 H 0.40561 0.407 0.33338 0.0
H1367 H 0.38931 0.38121 0.25434 0.0
H1368 H 0.33562 0.30826 0.26625 0.0
H1369 H 0.34807 0.33843 0.26454 0.0
C1370 C 0.84728 0.81093 0.3142 0.0
C1371 C 0.84735 0.80145 0.29048 0.0
C1372 C 0.85521 0.82788 0.31676 0.0
C1373 C 0.87608 0.86496 0.27598 0.0
H1374 H 0.89057 0.88192 0.34281 0.0
C1375 C 0.91761 0.92928 0.28601 0.0
C1376 C 0.91374 0.94156 0.30594 0.0
C1377 C 0.91025 0.91199 0.28476 0.0
C1378 C 0.88661 0.8775 0.32389 0.0
H1379 H 0.8562 0.803 0.25094 0.0
H1380 H 0.87014 0.83123 0.25548 0.0
H1381 H 0.87621 0.85333 0.33976 0.0
H1382 H 0.89915 0.94468 0.3404 0.0
H1383 H 0.88699 0.91474 0.33884 0.0
H1384 H 0.88683 0.88902 0.26016 0.0
C1385 C 0.86363 0.82629 0.2722 0.0
C1386 C 0.87816 0.86092 0.3221 0.0
C1387 C 0.8556 0.80966 0.2696 0.0
C1388 C 0.9027 0.93563 0.32494 0.0
C1389 C 0.89563 0.91831 0.32401 0.0
C1390 C 0.88475 0.88134 0.27774 0.0
C1391 C 0.86369 0.83599 0.29577 0.0
C1392 C 0.87264 0.85415 0.29807 0.0
C1393 C 0.89894 0.90619 0.30362 0.0
C1394 C 0.89019 0.88806 0.30172 0.0
H1395 H 0.84117 0.80523 0.33086 0.0
H1396 H 0.85454 0.83461 0.33531 0.0
H1397 H 0.87188 0.86105 0.25701 0.0
H1398 H 0.92576 0.93332 0.27069 0.0
H1399 H 0.91332 0.90318 0.26877 0.0
C1400 C 0.66814 0.06341 1.03617 0.0
C1401 C 0.66406 0.05098 1.05587 0.0
C1402 C 0.66092 0.08079 1.03504 0.0
C1403 C 0.63724 0.1151 1.07433 0.0
H1404 H 0.62316 0.13245 1.00744 0.0
C1405 C 0.59829 0.18204 1.06503 0.0
C1406 C 0.59862 0.19181 1.0415 0.0
C1407 C 0.60613 0.16502 1.06744 0.0
C1408 C 0.62719 0.12828 1.02643 0.0
H1409 H 0.64926 0.0477 1.09007 0.0
H1410 H 0.63732 0.07777 1.08873 0.0
H1411 H 0.63791 0.10432 1.0104 0.0
H1412 H 0.60785 0.1907 1.00217 0.0
H1413 H 0.62163 0.16234 1.00648 0.0
H1414 H 0.62685 0.13917 1.09042 0.0
C1415 C 0.64603 0.07425 1.07398 0.0
C1416 C 0.63573 0.11181 1.02807 0.0
C1417 C 0.65296 0.05686 1.07479 0.0
C1418 C 0.60705 0.18382 1.02067 0.0
C1419 C 0.61499 0.16711 1.02313 0.0
C1420 C 0.6289 0.13177 1.07267 0.0
C1421 C 0.64955 0.08653 1.05381 0.0
C1422 C 0.64094 0.10477 1.05204 0.0
C1423 C 0.61478 0.15711 1.0465 0.0
C1424 C 0.62362 0.13887 1.04864 0.0
H1425 H 0.67635 0.05943 1.02092 0.0
H1426 H 0.66415 0.08971 1.01922 0.0
H1427 H 0.64102 0.11044 1.09325 0.0
H1428 H 0.59204 0.18756 1.08165 0.0
H1429 H 0.60527 0.15806 1.08584 0.0
C1430 C 0.10789 0.6863 1.06901 0.0
C1431 C 0.09719 0.69214 1.04956 0.0
C1432 C 0.11496 0.66899 1.06853 0.0
C1433 C 0.12663 0.63164 1.02329 0.0
H1434 H 0.13398 0.60418 1.08614 0.0
C1435 C 0.15573 0.55982 1.01766 0.0
C1436 C 0.16365 0.5518 1.03895 0.0
C1437 C 0.1477 0.57649 1.01965 0.0
C1438 C 0.13236 0.61162 1.06828 0.0
H1439 H 0.08578 0.68372 1.01402 0.0
H1440 H 0.09826 0.65356 1.01286 0.0
H1441 H 0.11957 0.6328 1.08811 0.0
H1442 H 0.16921 0.55601 1.07942 0.0
H1443 H 0.15583 0.58548 1.08281 0.0
H1444 H 0.13987 0.61115 1.00345 0.0
C1445 C 0.10106 0.66245 1.02884 0.0
C1446 C 0.12389 0.62821 1.06943 0.0
C1447 C 0.09368 0.67976 1.02963 0.0
C1448 C 0.16338 0.56154 1.06245 0.0
C1449 C 0.15545 0.57854 1.06439 0.0
C1450 C 0.13531 0.61524 1.02218 0.0
C1451 C 0.112 0.65674 1.0482 0.0
C1452 C 0.12074 0.63857 1.04693 0.0
C1453 C 0.1473 0.58644 1.04298 0.0
C1454 C 0.13834 0.60463 1.04459 0.0
H1455 H 0.11112 0.6954 1.08454 0.0
H1456 H 0.12332 0.66549 1.08373 0.0
H1457 H 0.12488 0.63916 1.0055 0.0
H1458 H 0.1554 0.55296 0.99914 0.0
H1459 H 0.14146 0.58126 1.00264 0.0
C1460 C 0.65067 0.68673 0.91424 0.0
C1461 C 0.66218 0.69216 0.93261 0.0
C1462 C 0.64367 0.66941 0.91475 0.0
C1463 C 0.6349 0.62933 0.95782 0.0
H1464 H 0.62446 0.60628 0.89268 0.0
C1465 C 0.59503 0.56255 0.95125 0.0
C1466 C 0.5998 0.54954 0.93279 0.0
C1467 C 0.60231 0.57996 0.95198 0.0
C1468 C 0.62726 0.61233 0.91121 0.0
H1469 H 0.67513 0.68293 0.96639 0.0
H1470 H 0.66289 0.65258 0.96744 0.0
H1471 H 0.63854 0.635 0.89267 0.0
H1472 H 0.61595 0.54525 0.90048 0.0
H1473 H 0.62809 0.57503 0.90131 0.0
H1474 H 0.62355 0.60644 0.97627 0.0
C1475 C 0.65931 0.6619 0.95235 0.0
C1476 C 0.63532 0.62911 0.9112 0.0
C1477 C 0.66656 0.67932 0.95158 0.0
C1478 C 0.61174 0.55479 0.91486 0.0
C1479 C 0.61878 0.57209 0.91533 0.0
C1480 C 0.62662 0.61255 0.95783 0.0
C1481 C 0.64762 0.65658 0.93396 0.0
C1482 C 0.63938 0.63807 0.93446 0.0
C1483 C 0.61442 0.58508 0.93403 0.0
C1484 C 0.62267 0.6036 0.93448 0.0
H1485 H 0.64675 0.69614 0.89947 0.0
H1486 H 0.63468 0.66632 0.90037 0.0
H1487 H 0.63755 0.63561 0.97625 0.0
H1488 H 0.5861 0.5591 0.96569 0.0
H1489 H 0.59841 0.58942 0.96667 0.0
C1490 C 0.15295 0.1856 0.9128 0.0
C1491 C 0.16363 0.19155 0.93216 0.0
C1492 C 0.14599 0.16822 0.91345 0.0
C1493 C 0.13468 0.13087 0.95923 0.0
H1494 H 0.12705 0.1033 0.89673 0.0
C1495 C 0.10597 0.05886 0.96589 0.0
C1496 C 0.09791 0.05083 0.94481 0.0
C1497 C 0.11392 0.07558 0.96365 0.0
C1498 C 0.12875 0.11077 0.91451 0.0
H1499 H 0.1751 0.18328 0.96779 0.0
H1500 H 0.16287 0.15301 0.9692 0.0
H1501 H 0.14131 0.132 0.89429 0.0
H1502 H 0.09199 0.05503 0.90445 0.0
H1503 H 0.10525 0.08455 0.90062 0.0
H1504 H 0.12168 0.11032 0.97946 0.0
C1505 C 0.15999 0.16185 0.95314 0.0
C1506 C 0.13713 0.12741 0.91308 0.0
C1507 C 0.16725 0.17922 0.95218 0.0
C1508 C 0.09795 0.06058 0.92126 0.0
C1509 C 0.10581 0.07761 0.91906 0.0
C1510 C 0.12609 0.11442 0.96063 0.0
C1511 C 0.14905 0.15603 0.93389 0.0
C1512 C 0.14038 0.13782 0.93544 0.0
C1513 C 0.1141 0.08554 0.94026 0.0
C1514 C 0.12297 0.10377 0.93835 0.0
H1515 H 0.14959 0.19469 0.89727 0.0
H1516 H 0.13761 0.16465 0.89833 0.0
H1517 H 0.1365 0.13842 0.97693 0.0
H1518 H 0.10648 0.05199 0.98443 0.0
H1519 H 0.12028 0.08038 0.9805 0.0
C1520 C 0.40867 0.30878 0.7186 0.0
C1521 C 0.41642 0.30094 0.69698 0.0
C1522 C 0.40033 0.32535 0.71681 0.0
C1523 C 0.38394 0.35985 0.6678 0.0
H1524 H 0.37637 0.38808 0.7298 0.0
C1525 C 0.35893 0.43412 0.66397 0.0
C1526 C 0.34841 0.44049 0.68341 0.0
C1527 C 0.36611 0.41688 0.66531 0.0
C1528 C 0.37814 0.38037 0.71221 0.0
H1529 H 0.42138 0.30527 0.65626 0.0
H1530 H 0.40756 0.33435 0.6532 0.0
H1531 H 0.3915 0.36011 0.7325 0.0
H1532 H 0.33747 0.43304 0.71998 0.0
H1533 H 0.3501 0.40298 0.72258 0.0
H1534 H 0.37096 0.38061 0.6475 0.0
C1535 C 0.40747 0.32747 0.67171 0.0
C1536 C 0.38693 0.36401 0.71372 0.0
C1537 C 0.41568 0.31068 0.67346 0.0
C1538 C 0.3452 0.42867 0.70431 0.0
C1539 C 0.35269 0.41142 0.70593 0.0
C1540 C 0.37536 0.37634 0.66626 0.0
C1541 C 0.39942 0.33523 0.69333 0.0
C1542 C 0.39007 0.3532 0.69157 0.0
C1543 C 0.36344 0.40519 0.68652 0.0
C1544 C 0.37222 0.38702 0.68843 0.0
H1545 H 0.4087 0.30184 0.7371 0.0
H1546 H 0.39426 0.3301 0.73404 0.0
H1547 H 0.38554 0.35222 0.65012 0.0
H1548 H 0.36196 0.44278 0.64772 0.0
H1549 H 0.37433 0.41303 0.65001 0.0
C1550 C 0.85594 0.93351 0.71425 0.0
C1551 C 0.8477 0.94167 0.6934 0.0
C1552 C 0.86392 0.91683 0.71173 0.0
C1553 C 0.87829 0.88179 0.662 0.0
H1554 H 0.88701 0.85404 0.72414 0.0
C1555 C 0.90268 0.80696 0.65942 0.0
C1556 C 0.91365 0.80099 0.67839 0.0
C1557 C 0.89566 0.82432 0.66034 0.0
C1558 C 0.88492 0.86161 0.7065 0.0
H1559 H 0.84152 0.93771 0.65312 0.0
H1560 H 0.85482 0.90825 0.6488 0.0
H1561 H 0.8722 0.88211 0.7272 0.0
H1562 H 0.92558 0.80923 0.71357 0.0
H1563 H 0.91325 0.83943 0.71546 0.0
H1564 H 0.89056 0.8606 0.64134 0.0
C1565 C 0.8555 0.91507 0.66729 0.0
C1566 C 0.87632 0.87806 0.7082 0.0
C1567 C 0.84762 0.93207 0.66977 0.0
C1568 C 0.91749 0.81329 0.69828 0.0
C1569 C 0.91018 0.83063 0.69951 0.0
C1570 C 0.88667 0.86514 0.66028 0.0
C1571 C 0.86396 0.907 0.68826 0.0
C1572 C 0.87285 0.88876 0.68604 0.0
C1573 C 0.89895 0.83647 0.68067 0.0
C1574 C 0.89027 0.85469 0.68251 0.0
H1575 H 0.85655 0.94025 0.73283 0.0
H1576 H 0.8704 0.91194 0.72843 0.0
H1577 H 0.87632 0.88927 0.64428 0.0
H1578 H 0.89915 0.79791 0.64399 0.0
H1579 H 0.88708 0.8279 0.64552 0.0
C1580 C 0.41633 0.92957 0.78291 0.0
C1581 C 0.41209 0.94236 0.80203 0.0
C1582 C 0.40893 0.91223 0.78214 0.0
C1583 C 0.38471 0.87939 0.82341 0.0
H1584 H 0.37274 0.85726 0.75831 0.0
C1585 C 0.36046 0.80523 0.81924 0.0
C1586 C 0.34855 0.80023 0.80126 0.0
C1587 C 0.3676 0.82249 0.819 0.0
C1588 C 0.37586 0.86321 0.77676 0.0
H1589 H 0.39674 0.94629 0.83544 0.0
H1590 H 0.38443 0.91658 0.83455 0.0
H1591 H 0.38697 0.88628 0.75838 0.0
H1592 H 0.33508 0.8102 0.76847 0.0
H1593 H 0.34754 0.84044 0.76792 0.0
H1594 H 0.37368 0.85652 0.84187 0.0
C1595 C 0.39342 0.91967 0.82003 0.0
C1596 C 0.38427 0.87991 0.7768 0.0
C1597 C 0.40056 0.93692 0.82055 0.0
C1598 C 0.34393 0.81347 0.78301 0.0
C1599 C 0.35132 0.83083 0.7825 0.0
C1600 C 0.37651 0.86268 0.82336 0.0
C1601 C 0.39722 0.90691 0.80068 0.0
C1602 C 0.38883 0.88847 0.80016 0.0
C1603 C 0.36341 0.8357 0.80046 0.0
C1604 C 0.37184 0.85413 0.80009 0.0
H1605 H 0.42491 0.93318 0.768 0.0
H1606 H 0.41241 0.90296 0.76693 0.0
H1607 H 0.38797 0.88513 0.84194 0.0
H1608 H 0.3646 0.79549 0.8334 0.0
H1609 H 0.37689 0.82524 0.83302 0.0
C1610 C 0.84526 0.31314 0.78076 0.0
C1611 C 0.84981 0.30009 0.79933 0.0
C1612 C 0.85261 0.33052 0.78003 0.0
C1613 C 0.87737 0.36276 0.82092 0.0
H1614 H 0.88822 0.38607 0.75589 0.0
C1615 C 0.90116 0.43704 0.8179 0.0
C1616 C 0.91283 0.44244 0.79959 0.0
C1617 C 0.89407 0.41977 0.81736 0.0
C1618 C 0.88541 0.37978 0.77432 0.0
H1619 H 0.8657 0.29571 0.83181 0.0
H1620 H 0.87796 0.32543 0.83096 0.0
H1621 H 0.87412 0.35696 0.75585 0.0
H1622 H 0.92595 0.43318 0.76591 0.0
H1623 H 0.91354 0.40292 0.7648 0.0
H1624 H 0.88859 0.38535 0.83948 0.0
C1625 C 0.86875 0.32254 0.81686 0.0
C1626 C 0.87707 0.36303 0.77429 0.0
C1627 C 0.86164 0.30528 0.81734 0.0
C1628 C 0.91725 0.42961 0.78066 0.0
C1629 C 0.90991 0.41223 0.77986 0.0
C1630 C 0.88549 0.3795 0.82094 0.0
C1631 C 0.8646 0.33558 0.79807 0.0
C1632 C 0.87292 0.35406 0.79764 0.0
C1633 C 0.89807 0.40695 0.7982 0.0
C1634 C 0.88975 0.38847 0.79769 0.0
H1635 H 0.83643 0.30975 0.76626 0.0
H1636 H 0.84887 0.34001 0.76527 0.0
H1637 H 0.87442 0.35669 0.83944 0.0
H1638 H 0.89721 0.44645 0.83266 0.0
H1639 H 0.88497 0.41671 0.83171 0.0
C1640 C 0.65331 0.55634 0.57273 0.0
C1641 C 0.66447 0.5506 0.55383 0.0
C1642 C 0.64622 0.57365 0.57195 0.0
C1643 C 0.63563 0.61113 0.52607 0.0
H1644 H 0.62648 0.63836 0.58843 0.0
C1645 C 0.6063 0.6828 0.5187 0.0
C1646 C 0.5978 0.6907 0.53953 0.0
C1647 C 0.61439 0.66619 0.52115 0.0
C1648 C 0.6286 0.63099 0.57068 0.0
H1649 H 0.6767 0.5592 0.5189 0.0
H1650 H 0.66425 0.58935 0.51724 0.0
H1651 H 0.64089 0.60978 0.59125 0.0
H1652 H 0.59127 0.68637 0.57968 0.0
H1653 H 0.60475 0.65702 0.58385 0.0
H1654 H 0.62289 0.63164 0.50545 0.0
C1655 C 0.66108 0.58039 0.53304 0.0
C1656 C 0.63708 0.61441 0.57233 0.0
C1657 C 0.66846 0.56309 0.53415 0.0
C1658 C 0.59757 0.68092 0.56305 0.0
C1659 C 0.60556 0.66399 0.56546 0.0
C1660 C 0.62694 0.62751 0.52443 0.0
C1661 C 0.64965 0.58599 0.5518 0.0
C1662 C 0.64088 0.60413 0.55004 0.0
C1663 C 0.61427 0.65618 0.54452 0.0
C1664 C 0.62327 0.63804 0.54665 0.0
H1665 H 0.64967 0.54713 0.58799 0.0
H1666 H 0.63748 0.57706 0.58669 0.0
H1667 H 0.63789 0.60367 0.50839 0.0
H1668 H 0.60704 0.6897 0.5002 0.0
H1669 H 0.62108 0.6615 0.5045 0.0
C1670 C 0.16747 0.06292 0.53313 0.0
C1671 C 0.16367 0.05053 0.55304 0.0
C1672 C 0.1602 0.0803 0.53217 0.0
C1673 C 0.13706 0.11465 0.57239 0.0
H1674 H 0.12232 0.13232 0.50607 0.0
C1675 C 0.09815 0.18178 0.56475 0.0
C1676 C 0.09827 0.19166 0.5413 0.0
C1677 C 0.10597 0.16471 0.5668 0.0
C1678 C 0.12653 0.12806 0.52491 0.0
H1679 H 0.14935 0.04737 0.58781 0.0
H1680 H 0.13734 0.07737 0.5867 0.0
H1681 H 0.13703 0.10413 0.50837 0.0
H1682 H 0.1071 0.19066 0.50172 0.0
H1683 H 0.12083 0.16222 0.50541 0.0
H1684 H 0.12689 0.13868 0.58898 0.0
C1685 C 0.14583 0.07383 0.57164 0.0
C1686 C 0.13506 0.11155 0.52617 0.0
C1687 C 0.1528 0.05646 0.57229 0.0
C1688 C 0.10647 0.1837 0.52019 0.0
C1689 C 0.11438 0.16695 0.52229 0.0
C1690 C 0.12874 0.13134 0.57111 0.0
C1691 C 0.14909 0.08609 0.55134 0.0
C1692 C 0.1405 0.10438 0.54992 0.0
C1693 C 0.11438 0.15685 0.54557 0.0
C1694 C 0.12321 0.13856 0.5473 0.0
H1695 H 0.17551 0.05893 0.51767 0.0
H1696 H 0.16324 0.0892 0.51622 0.0
H1697 H 0.14104 0.10991 0.59117 0.0
H1698 H 0.0921 0.18725 0.58158 0.0
H1699 H 0.10528 0.15768 0.58516 0.0
C1700 C 0.6545 0.18555 0.41277 0.0
C1701 C 0.66495 0.19158 0.43241 0.0
C1702 C 0.64739 0.16826 0.41348 0.0
C1703 C 0.63521 0.13132 0.45938 0.0
H1704 H 0.62819 0.10348 0.39694 0.0
C1705 C 0.60583 0.05963 0.4658 0.0
C1706 C 0.59797 0.05158 0.44453 0.0
C1707 C 0.61394 0.07626 0.46367 0.0
C1708 C 0.62971 0.11103 0.41469 0.0
H1709 H 0.67589 0.18351 0.46856 0.0
H1710 H 0.66339 0.15337 0.47008 0.0
H1711 H 0.64271 0.132 0.39468 0.0
H1712 H 0.5926 0.05566 0.40394 0.0
H1713 H 0.60615 0.08502 0.40028 0.0
H1714 H 0.62178 0.111 0.47939 0.0
C1715 C 0.6608 0.16211 0.45378 0.0
C1716 C 0.63825 0.12757 0.41337 0.0
C1717 C 0.6682 0.1794 0.45278 0.0
C1718 C 0.59838 0.06122 0.42089 0.0
C1719 C 0.60641 0.07816 0.4188 0.0
C1720 C 0.62647 0.11496 0.46066 0.0
C1721 C 0.65008 0.15622 0.43423 0.0
C1722 C 0.64128 0.13808 0.43571 0.0
C1723 C 0.6145 0.0861 0.44019 0.0
C1724 C 0.62355 0.10422 0.4384 0.0
H1725 H 0.65145 0.19452 0.39692 0.0
H1726 H 0.63921 0.16464 0.39812 0.0
H1727 H 0.63686 0.13895 0.47706 0.0
H1728 H 0.60604 0.05285 0.48441 0.0
H1729 H 0.62012 0.08107 0.48068 0.0
C1730 C 0.1531 0.68702 0.4116 0.0
C1731 C 0.16384 0.69291 0.43091 0.0
C1732 C 0.14615 0.66964 0.41217 0.0
C1733 C 0.1351 0.63194 0.45752 0.0
H1734 H 0.1274 0.6048 0.39466 0.0
C1735 C 0.10651 0.55982 0.46327 0.0
C1736 C 0.09843 0.5519 0.44212 0.0
C1737 C 0.11444 0.57656 0.46123 0.0
C1738 C 0.12911 0.61214 0.41253 0.0
H1739 H 0.1755 0.68449 0.4663 0.0
H1740 H 0.16326 0.6542 0.4676 0.0
H1741 H 0.14158 0.63355 0.39256 0.0
H1742 H 0.09245 0.55635 0.40185 0.0
H1743 H 0.10567 0.58592 0.39836 0.0
H1744 H 0.12219 0.6112 0.47752 0.0
C1745 C 0.16031 0.66312 0.45166 0.0
C1746 C 0.13745 0.62882 0.41131 0.0
C1747 C 0.16755 0.68051 0.45079 0.0
C1748 C 0.09843 0.5618 0.4187 0.0
C1749 C 0.10626 0.57886 0.4167 0.0
C1750 C 0.12655 0.61545 0.45872 0.0
C1751 C 0.14931 0.65736 0.43245 0.0
C1752 C 0.14072 0.63909 0.4338 0.0
C1753 C 0.11456 0.58668 0.43797 0.0
C1754 C 0.1234 0.60495 0.4363 0.0
H1755 H 0.14971 0.69613 0.39611 0.0
H1756 H 0.13774 0.66611 0.39708 0.0
H1757 H 0.13694 0.63937 0.47532 0.0
H1758 H 0.10705 0.55285 0.48173 0.0
H1759 H 0.12081 0.58127 0.47812 0.0
C1760 C 0.30349 0.00174 0.2931 0.0
C1761 C 0.29831 0.99403 0.26909 0.0
C1762 C 0.29365 0.0023 0.31663 0.0
C1763 C 0.25038 0.98906 0.34623 0.0
H1764 H 0.26679 0.00953 0.40952 0.0
C1765 C 0.20835 0.99114 0.44546 0.0
C1766 C 0.21359 -0.00136 0.46957 0.0
C1767 C 0.21818 0.99058 0.42193 0.0
C1768 C 0.26152 0.00364 0.39242 0.0
H1769 H 0.27718 0.98089 0.25395 0.0
H1770 H 0.26074 0.98176 0.29316 0.0
H1771 H 0.2834 0.00869 0.37062 0.0
H1772 H 0.23485 0.01143 0.48487 0.0
H1773 H 0.25129 0.01056 0.44566 0.0
H1774 H 0.2285 0.98401 0.36803 0.0
C1775 C 0.27257 0.98757 0.2944 0.0
C1776 C 0.27148 0.00315 0.36911 0.0
C1777 C 0.28237 0.98701 0.27101 0.0
C1778 C 0.2296 0.00547 0.46773 0.0
C1779 C 0.2394 0.00493 0.44434 0.0
C1780 C 0.24042 0.98956 0.36953 0.0
C1781 C 0.27762 0.99525 0.31857 0.0
C1782 C 0.26649 0.99583 0.34468 0.0
C1783 C 0.23429 -0.00255 0.42008 0.0
C1784 C 0.24541 -0.00312 0.39397 0.0
H1785 H 0.31536 0.00754 0.29388 0.0
H1786 H 0.29889 0.0085 0.33353 0.0
H1787 H 0.24511 0.98318 0.32912 0.0
H1788 H 0.19641 0.9855 0.4446 0.0
H1789 H 0.21288 0.98455 0.40495 0.0
C1790 C 0.03231 0.23868 0.46534 0.0
C1791 C 0.04872 0.24429 0.46631 0.0
C1792 C 0.02244 0.23913 0.44206 0.0
C1793 C 0.02199 0.25219 0.36609 0.0
H1794 H 0.9782 0.23559 0.36869 0.0
C1795 C 0.98008 0.25486 0.26777 0.0
C1796 C 0.96389 0.24853 0.26624 0.0
C1797 C 0.98985 0.25431 0.29113 0.0
C1798 C 0.99036 0.2404 0.36675 0.0
H1799 H 0.06649 0.25511 0.43988 0.0
H1800 H 0.04994 0.25588 0.40057 0.0
H1801 H 0.99481 0.23479 0.40751 0.0
H1802 H 0.94638 0.2363 0.29183 0.0
H1803 H 0.96279 0.23537 0.33141 0.0
H1804 H 0.01756 0.25779 0.32536 0.0
C1805 C 0.04435 0.25093 0.41811 0.0
C1806 C 1.00031 0.23994 0.39 0.0
C1807 C 0.05425 0.25046 0.44147 0.0
C1808 C 0.95845 0.24154 0.29068 0.0
C1809 C 0.96825 0.241 0.31418 0.0
C1810 C 0.01204 0.25266 0.34285 0.0
C1811 C 0.02786 0.24529 0.41708 0.0
C1812 C 0.01671 0.2458 0.39103 0.0
C1813 C 0.98454 0.24735 0.31572 0.0
C1814 C 0.99564 0.24679 0.34181 0.0
H1815 H 0.02682 0.23379 0.48306 0.0
H1816 H 0.01023 0.23451 0.44404 0.0
H1817 H 0.03413 0.25702 0.36413 0.0
H1818 H 0.9855 0.26041 0.2504 0.0
H1819 H 1.00187 0.25956 0.28953 0.0
C1820 C 0.22995 0.24009 1.01822 0.0
C1821 C 0.21295 0.24285 1.01769 0.0
C1822 C 0.2397 0.24055 1.04165 0.0
C1823 C 0.23888 0.24954 0.11875 0.0
H1824 H 0.2837 0.23694 0.11546 0.0
C1825 C 0.28081 0.25386 0.21705 0.0
C1826 C 0.29707 0.24774 0.21874 0.0
C1827 C 0.2711 0.25319 0.19362 0.0
C1828 C 0.27124 0.24059 0.11761 0.0
H1829 H 0.19399 0.24856 1.04518 0.0
H1830 H 0.21034 0.24937 1.08477 0.0
H1831 H 0.26722 0.23598 1.07649 0.0
H1832 H 0.31476 0.23575 0.19328 0.0
H1833 H 0.29846 0.23466 0.15358 0.0
H1834 H 0.24289 0.25412 0.15986 0.0
C1835 C 0.21649 0.24673 1.0667 0.0
C1836 C 0.26137 0.24007 1.09425 0.0
C1837 C 0.20671 0.2462 1.04318 0.0
C1838 C 0.30263 0.24084 0.19434 0.0
C1839 C 0.2929 0.24021 0.17076 0.0
C1840 C 0.24876 0.25012 0.14208 0.0
C1841 C 0.23357 0.24392 1.06727 0.0
C1842 C 0.24461 0.24451 1.09345 0.0
C1843 C 0.27655 0.24634 0.16908 0.0
C1844 C 0.26552 0.24567 0.14289 0.0
H1845 H 0.23602 0.23751 1.00002 0.0
H1846 H 0.25239 0.23829 1.03925 0.0
H1847 H 0.22644 0.25325 0.12089 0.0
H1848 H 0.2753 0.25933 0.23435 0.0
H1849 H 0.25903 0.25831 0.19509 0.0
C1850 C 0.98055 0.99183 0.21931 0.0
C1851 C 0.96346 0.99342 0.2196 0.0
C1852 C 0.99035 0.99228 0.19593 0.0
C1853 C 0.98943 -0.00111 0.11854 0.0
H1854 H 0.03478 0.98931 0.12293 0.0
C1855 C 0.0319 0.00306 1.02064 0.0
C1856 C 0.04839 -0.00219 1.01971 0.0
C1857 C 0.02199 0.00249 1.04393 0.0
C1858 C 0.02218 0.99207 0.12048 0.0
H1859 H 0.9443 -0.00307 0.1919 0.0
H1860 H 0.96079 -0.00231 0.15227 0.0
H1861 H 0.01812 0.98838 0.16177 0.0
H1862 H 0.06635 0.98758 1.04608 0.0
H1863 H 0.04973 0.98664 1.0855 0.0
H1864 H 0.9935 0.00252 1.07721 0.0
C1865 C 0.96697 0.99604 0.1705 0.0
C1866 C 0.0122 0.99159 0.14375 0.0
C1867 C 0.95712 0.99555 0.194 0.0
C1868 C 0.05402 0.99193 1.04453 0.0
C1869 C 0.04411 0.9914 1.06793 0.0
C1870 C 0.99942 -0.00058 1.09528 0.0
C1871 C 0.98415 0.99442 0.17018 0.0
C1872 C 0.99526 0.99497 0.14411 0.0
C1873 C 0.02752 0.99664 1.06891 0.0
C1874 C 0.01636 0.99604 1.09493 0.0
H1875 H 0.98664 0.99022 0.23766 0.0
H1876 H 1.00313 0.991 0.19847 0.0
H1877 H 0.97684 0.00173 0.11613 0.0
H1878 H 0.02637 0.00772 1.0029 0.0
H1879 H 0.00972 0.00689 1.04201 0.0
C1880 C 0.70695 -0.00311 0.94366 0.0
C1881 C 0.7133 -0.00106 0.96926 0.0
C1882 C 0.71678 0.9964 0.92013 0.0
C1883 C 0.76204 0.00065 0.89329 0.0
H1884 H 0.74326 0.99014 0.82675 0.0
C1885 C 0.80386 0.00028 0.79399 0.0
C1886 C 0.79818 0.99463 0.76912 0.0
C1887 C 0.79396 0.0008 0.81741 0.0
C1888 C 0.7492 0.99311 0.84481 0.0
H1889 H 0.7365 0.00202 0.98726 0.0
H1890 H 0.75297 0.00125 0.94804 0.0
H1891 H 0.72661 0.99091 0.86569 0.0
H1892 H 0.77605 0.98509 0.75228 0.0
H1893 H 0.75942 0.98591 0.79142 0.0
H1894 H 0.78463 0.00282 0.87245 0.0
C1895 C 0.74019 3e-05 0.94552 0.0
C1896 C 0.73922 0.99364 0.8681 0.0
C1897 C 0.73039 0.00047 0.96892 0.0
C1898 C 0.78163 0.98958 0.77005 0.0
C1899 C 0.77174 0.99013 0.79337 0.0
C1900 C 0.77201 0.00018 0.87 0.0
C1901 C 0.73397 -0.00205 0.91978 0.0
C1902 C 0.74508 -0.00258 0.89367 0.0
C1903 C 0.77732 0.99577 0.81839 0.0
C1904 C 0.76617 0.99636 0.84444 0.0
H1905 H 0.69412 0.99555 0.94158 0.0
H1906 H 0.71059 0.99481 0.90192 0.0
H1907 H 0.76799 0.00374 0.91131 0.0
H1908 H 0.81623 0.00447 0.79556 0.0
H1909 H 0.79963 0.00538 0.83501 0.0
C1910 C 0.05251 0.75083 0.94142 0.0
C1911 C 0.04693 0.74406 0.96591 0.0
C1912 C 0.04277 0.75141 0.91785 0.0
C1913 C 0.9985 0.74203 0.88952 0.0
H1914 H 0.01719 0.75488 0.82348 0.0
C1915 C 0.95649 0.74617 0.79055 0.0
C1916 C 0.96287 0.74871 0.76494 0.0
C1917 C 0.96624 0.74566 0.8141 0.0
C1918 C 0.01128 0.75115 0.84137 0.0
H1919 H 0.02512 0.73267 0.98175 0.0
H1920 H 0.00882 0.73365 0.9425 0.0
H1921 H 0.03368 0.75395 0.86245 0.0
H1922 H 0.98611 0.75265 0.74711 0.0
H1923 H 1.00242 0.75187 0.78636 0.0
H1924 H 0.9761 0.73922 0.86846 0.0
C1925 C 0.02092 0.73869 0.94095 0.0
C1926 C 0.02115 0.75066 0.86472 0.0
C1927 C 0.03064 0.73804 0.96436 0.0
C1928 C 0.97994 0.7507 0.7654 0.0
C1929 C 0.98966 0.75026 0.78884 0.0
C1930 C 0.98862 0.74258 0.8662 0.0
C1931 C 0.02638 0.7454 0.91631 0.0
C1932 C 0.01535 0.74604 0.89015 0.0
C1933 C 0.9834 0.74769 0.81457 0.0
C1934 C 0.99443 0.74715 0.84075 0.0
H1935 H 0.06466 0.75582 0.94026 0.0
H1936 H 0.04834 0.75687 0.90059 0.0
H1937 H 0.99257 0.73841 0.90744 0.0
H1938 H 0.94368 0.74446 0.79262 0.0
H1939 H 0.96 0.74368 0.83229 0.0
C1940 C 0.70706 0.75163 1.03968 0.0
C1941 C 0.71234 0.74425 1.01542 0.0
C1942 C 0.71692 0.75221 1.06312 0.0
C1943 C 0.76063 0.74015 1.09182 0.0
H1944 H 0.74366 0.75849 0.15629 0.0
C1945 C 0.80315 0.74273 0.19004 0.0
C1946 C 0.79767 0.74882 0.21491 0.0
C1947 C 0.7932 0.74223 0.16676 0.0
C1948 C 0.74909 0.7532 0.13884 0.0
H1949 H 0.73372 0.73174 0.99984 0.0
H1950 H 0.75017 0.73266 1.03885 0.0
H1951 H 0.72695 0.75762 0.11758 0.0
H1952 H 0.77575 0.75915 0.23179 0.0
H1953 H 0.75906 0.75838 0.19289 0.0
H1954 H 0.78275 0.73572 1.11303 0.0
C1955 C 0.73824 0.73819 1.04036 0.0
C1956 C 0.73908 0.7527 0.11565 0.0
C1957 C 0.72842 0.7376 1.01707 0.0
C1958 C 0.78122 0.75433 0.21405 0.0
C1959 C 0.77128 0.75385 0.19083 0.0
C1960 C 0.77064 0.74067 1.11499 0.0
C1961 C 0.7331 0.74553 1.06476 0.0
C1962 C 0.74426 0.74614 1.09078 0.0
C1963 C 0.77667 0.74776 0.16582 0.0
C1964 C 0.76546 0.74721 0.13986 0.0
H1965 H 0.69508 0.75714 1.04074 0.0
H1966 H 0.71158 0.75815 1.08021 0.0
H1967 H 0.76609 0.7349 1.07438 0.0
H1968 H 0.81542 0.73816 0.18838 0.0
H1969 H 0.79877 0.73734 0.14918 0.0
C1970 C 0.22959 0.50458 0.96352 0.0
C1971 C 0.2132 0.49891 0.96454 0.0
C1972 C 0.23955 0.50396 0.94029 0.0
C1973 C 0.24029 0.49025 0.8648 0.0
H1974 H 0.28402 0.50706 0.86703 0.0
C1975 C 0.28258 0.48663 0.7669 0.0
C1976 C 0.29867 0.49323 0.76515 0.0
C1977 C 0.27274 0.48735 0.79022 0.0
C1978 C 0.27188 0.50219 0.86521 0.0
H1979 H 0.19554 0.48783 0.93843 0.0
H1980 H 0.21226 0.48678 0.89915 0.0
H1981 H 0.26724 0.50815 0.90579 0.0
H1982 H 0.31595 0.50615 0.79017 0.0
H1983 H 0.2994 0.50739 0.82973 0.0
H1984 H 0.2449 0.48431 0.82425 0.0
C1985 C 0.21776 0.4919 0.91659 0.0
C1986 C 0.26184 0.50281 0.88842 0.0
C1987 C 0.20777 0.49253 0.93989 0.0
C1988 C 0.30396 0.50068 0.78926 0.0
C1989 C 0.29408 0.5014 0.81273 0.0
C1990 C 0.25033 0.48961 0.84161 0.0
C1991 C 0.23423 0.49758 0.91549 0.0
C1992 C 0.24546 0.49688 0.88953 0.0
C1993 C 0.27789 0.49478 0.81448 0.0
C1994 C 0.2667 0.49554 0.84048 0.0
H1995 H 0.23497 0.50962 0.98113 0.0
H1996 H 0.25174 0.50863 0.94217 0.0
H1997 H 0.22817 0.48535 0.86295 0.0
H1998 H 0.27731 0.48073 0.74975 0.0
H1999 H 0.2608 0.48186 0.78883 0.0
C2000 C 0.23003 0.73899 0.51561 0.0
C2001 C 0.21371 0.74491 0.51419 0.0
C2002 C 0.23979 0.73954 0.53897 0.0
C2003 C 0.2396 0.751 0.61527 0.0
H2004 H 0.28472 0.73994 0.61119 0.0
C2005 C 0.28102 0.75066 0.71433 0.0
C2006 C 0.29811 0.74881 0.71463 0.0
C2007 C 0.27125 0.75031 0.69096 0.0
C2008 C 0.27219 0.74319 0.61355 0.0
H2009 H 0.19595 0.75637 0.54001 0.0
H2010 H 0.21234 0.75727 0.57961 0.0
H2011 H 0.26819 0.73927 0.5723 0.0
H2012 H 0.31725 0.74491 0.68679 0.0
H2013 H 0.30084 0.74429 0.64724 0.0
H2014 H 0.24362 0.75496 0.65652 0.0
C2015 C 0.21791 0.75197 0.56227 0.0
C2016 C 0.26227 0.74272 0.59028 0.0
C2017 C 0.20813 0.75147 0.53876 0.0
C2018 C 0.30444 0.7465 0.68896 0.0
C2019 C 0.29463 0.74609 0.66548 0.0
C2020 C 0.24952 0.7514 0.63856 0.0
C2021 C 0.23432 0.74605 0.56368 0.0
C2022 C 0.2454 0.7466 0.58978 0.0
C2023 C 0.27746 0.74798 0.66516 0.0
C2024 C 0.26639 0.74753 0.63906 0.0
H2025 H 0.23556 0.73377 0.49815 0.0
H2026 H 0.25192 0.73459 0.53732 0.0
H2027 H 0.22706 0.75417 0.61763 0.0
H2028 H 0.2749 0.75242 0.73269 0.0
H2029 H 0.25848 0.7518 0.69353 0.0
C2030 C 0.05413 0.49279 0.5414 0.0
C2031 C 0.04873 0.49928 0.51676 0.0
C2032 C 0.04417 0.49223 0.56475 0.0
C2033 C 1.00024 0.50371 0.59308 0.0
H2034 H 0.01699 0.48456 0.65711 0.0
C2035 C 0.95824 0.50196 0.6924 0.0
C2036 C 0.9634 0.49418 0.71641 0.0
C2037 C 0.9681 0.50261 0.66891 0.0
C2038 C 0.01161 0.49005 0.63978 0.0
H2039 H 0.02702 0.51025 0.50022 0.0
H2040 H 0.0103 0.50938 0.53923 0.0
H2041 H 0.03368 0.48548 0.61835 0.0
H2042 H 0.98453 0.48102 0.73161 0.0
H2043 H 1.00101 0.48204 0.69248 0.0
H2044 H 0.97815 0.50826 0.61455 0.0
C2045 C 0.02245 0.50458 0.54109 0.0
C2046 C 0.02163 0.49062 0.61657 0.0
C2047 C 0.03239 0.50512 0.51783 0.0
C2048 C 0.97935 0.48719 0.71454 0.0
C2049 C 0.98918 0.48785 0.6912 0.0
C2050 C 0.99022 0.50315 0.61631 0.0
C2051 C 0.02775 0.4981 0.56589 0.0
C2052 C 0.01653 0.49747 0.59188 0.0
C2053 C 0.98416 0.49559 0.66703 0.0
C2054 C 0.99533 0.49628 0.641 0.0
H2055 H 0.06632 0.48795 0.54284 0.0
H2056 H 0.04964 0.48703 0.58217 0.0
H2057 H 0.9949 0.50923 0.57575 0.0
H2058 H 0.94636 0.50774 0.69159 0.0
H2059 H 0.96289 0.50887 0.65199 0.0
C2060 C 0.7827 0.48877 0.26866 0.0
C2061 C 0.79919 0.49402 0.26771 0.0
C2062 C 0.77279 0.48936 0.29194 0.0
C2063 C 0.77301 0.49984 0.36838 0.0
H2064 H 0.72764 0.49038 0.36408 0.0
C2065 C 0.73142 0.50016 0.46717 0.0
C2066 C 0.71433 0.49873 0.46744 0.0
C2067 C 0.74122 0.49968 0.44379 0.0
C2068 C 0.74025 0.49317 0.36647 0.0
H2069 H 0.81713 0.50431 0.29398 0.0
H2070 H 0.80051 0.5053 0.33338 0.0
H2071 H 0.7443 0.48953 0.32516 0.0
H2072 H 0.69514 0.49546 0.43976 0.0
H2073 H 0.71162 0.49465 0.40013 0.0
H2074 H 0.76897 0.50354 0.40964 0.0
C2075 C 0.7949 0.5005 0.31585 0.0
C2076 C 0.75023 0.49259 0.34321 0.0
C2077 C 0.80481 0.49994 0.29248 0.0
C2078 C 0.70797 0.49671 0.44185 0.0
C2079 C 0.71781 0.49619 0.41836 0.0
C2080 C 0.76305 0.50036 0.39163 0.0
C2081 C 0.77832 0.49526 0.31686 0.0
C2082 C 0.76717 0.4959 0.34286 0.0
C2083 C 0.735 0.49765 0.41806 0.0
C2084 C 0.7461 0.49706 0.392 0.0
H2085 H 0.77718 0.48407 0.25094 0.0
H2086 H 0.76053 0.48496 0.29005 0.0
H2087 H 0.78563 0.50253 0.37081 0.0
H2088 H 0.73752 0.50167 0.48552 0.0
H2089 H 0.75401 0.50082 0.44633 0.0
C2090 C 0.70914 0.25098 0.54024 0.0
C2091 C 0.71451 0.24368 0.51599 0.0
C2092 C 0.71893 0.25157 0.56375 0.0
C2093 C 0.76232 0.23884 0.59313 0.0
H2094 H 0.7457 0.25923 0.65652 0.0
C2095 C 0.80409 0.24087 0.69243 0.0
C2096 C 0.79886 0.24857 0.7165 0.0
C2097 C 0.7943 0.24027 0.66893 0.0
C2098 C 0.75104 0.25336 0.63938 0.0
H2099 H 0.73597 0.23131 0.50049 0.0
H2100 H 0.75232 0.23222 0.53964 0.0
H2101 H 0.72918 0.25835 0.61766 0.0
H2102 H 0.77764 0.26165 0.73168 0.0
H2103 H 0.76129 0.26071 0.69254 0.0
H2104 H 0.78417 0.23386 0.61485 0.0
C2105 C 0.74036 0.23766 0.54109 0.0
C2106 C 0.74112 0.25283 0.6161 0.0
C2107 C 0.73061 0.23709 0.51772 0.0
C2108 C 0.78289 0.25554 0.71461 0.0
C2109 C 0.77314 0.25494 0.69124 0.0
C2110 C 0.77223 0.23936 0.61641 0.0
C2111 C 0.73512 0.24494 0.56549 0.0
C2112 C 0.74619 0.24554 0.59161 0.0
C2113 C 0.77824 0.24728 0.66702 0.0
C2114 C 0.76717 0.24666 0.6409 0.0
H2115 H 0.69714 0.25644 0.54124 0.0
H2116 H 0.71351 0.25742 0.58083 0.0
H2117 H 0.76765 0.23296 0.576 0.0
H2118 H 0.81598 0.2351 0.69158 0.0
H2119 H 0.7996 0.23408 0.652 0.0
C2120 C 0.55436 0.25111 0.94162 0.0
C2121 C 0.54898 0.24463 0.96638 0.0
C2122 C 0.54439 0.2516 0.91835 0.0
C2123 C 0.50069 0.23926 0.89018 0.0
H2124 H 0.5167 0.26003 0.82651 0.0
C2125 C 0.45859 0.24026 0.79137 0.0
C2126 C 0.46323 0.24885 0.76757 0.0
C2127 C 0.46855 0.23975 0.81465 0.0
C2128 C 0.51154 0.25407 0.84374 0.0
H2129 H 0.52729 0.23357 0.98309 0.0
H2130 H 0.51059 0.23432 0.94423 0.0
H2131 H 0.53346 0.25928 0.86511 0.0
H2132 H 0.4836 0.26363 0.75256 0.0
H2133 H 0.50029 0.26285 0.79143 0.0
H2134 H 0.47876 0.23406 0.86881 0.0
C2135 C 0.52272 0.23916 0.94223 0.0
C2136 C 0.5216 0.25359 0.86685 0.0
C2137 C 0.53266 0.23871 0.96543 0.0
C2138 C 0.47882 0.2568 0.76946 0.0
C2139 C 0.48877 0.25627 0.79264 0.0
C2140 C 0.49064 0.23971 0.86705 0.0
C2141 C 0.52799 0.24564 0.91734 0.0
C2142 C 0.51676 0.24616 0.89142 0.0
C2143 C 0.48423 0.24772 0.81659 0.0
C2144 C 0.49547 0.24716 0.8425 0.0
H2145 H 0.56653 0.256 0.94003 0.0
H2146 H 0.54986 0.25679 0.90084 0.0
H2147 H 0.49555 0.23323 0.90739 0.0
H2148 H 0.44703 0.2337 0.79217 0.0
H2149 H 0.46371 0.2328 0.83137 0.0
C2150 C 0.47855 0.98736 0.71695 0.0
C2151 C 0.4626 0.99436 0.71877 0.0
C2152 C 0.48839 0.98798 0.69362 0.0
C2153 C 0.48945 0.00313 0.61869 0.0
H2154 H 0.53292 0.98551 0.62088 0.0
C2155 C 0.53165 0.00486 0.52025 0.0
C2156 C 0.548 -0.00093 0.51927 0.0
C2157 C 0.52169 0.00437 0.5435 0.0
C2158 C 0.52087 0.99064 0.61905 0.0
H2159 H 0.44557 0.0079 0.69388 0.0
H2160 H 0.46212 0.00896 0.6543 0.0
H2161 H 0.51622 0.98467 0.65961 0.0
H2162 H 0.56561 0.98792 0.54547 0.0
H2163 H 0.54892 0.98707 0.58477 0.0
H2164 H 0.49414 0.00912 0.5781 0.0
C2165 C 0.46733 0.00272 0.67125 0.0
C2166 C 0.51084 0.99011 0.64225 0.0
C2167 C 0.45745 0.00211 0.69473 0.0
C2168 C 0.55341 0.9927 0.54397 0.0
C2169 C 0.54343 0.99219 0.56729 0.0
C2170 C 0.49948 0.00364 0.59546 0.0
C2171 C 0.48338 0.99569 0.66943 0.0
C2172 C 0.49455 0.99632 0.64341 0.0
C2173 C 0.527 -0.00201 0.56835 0.0
C2174 C 0.51577 -0.00258 0.59432 0.0
H2175 H 0.48371 0.98121 0.73404 0.0
H2176 H 0.50021 0.98216 0.69494 0.0
H2177 H 0.47738 0.00822 0.61689 0.0
H2178 H 0.52628 0.0099 0.50259 0.0
H2179 H 0.50953 0.00911 0.54158 0.0
C2180 C 0.45734 0.74057 0.28873 0.0
C2181 C 0.46268 0.74786 0.26441 0.0
C2182 C 0.46717 0.73998 0.31221 0.0
C2183 C 0.51086 0.75196 0.34098 0.0
H2184 H 0.49382 0.73359 0.40547 0.0
C2185 C 0.55322 0.74946 0.43942 0.0
C2186 C 0.54773 0.74326 0.46426 0.0
C2187 C 0.5433 0.74996 0.41609 0.0
C2188 C 0.49927 0.73889 0.38801 0.0
H2189 H 0.48412 0.76022 0.24877 0.0
H2190 H 0.50053 0.75928 0.28784 0.0
H2191 H 0.47717 0.73447 0.3667 0.0
H2192 H 0.52586 0.73273 0.48104 0.0
H2193 H 0.50921 0.73351 0.44208 0.0
H2194 H 0.53295 0.75639 0.36225 0.0
C2195 C 0.48858 0.75383 0.28937 0.0
C2196 C 0.48929 0.73939 0.36478 0.0
C2197 C 0.47879 0.75443 0.26604 0.0
C2198 C 0.53132 0.73764 0.46332 0.0
C2199 C 0.52142 0.73812 0.44007 0.0
C2200 C 0.52084 0.75144 0.36419 0.0
C2201 C 0.48337 0.74657 0.31384 0.0
C2202 C 0.4945 0.74596 0.33991 0.0
C2203 C 0.52681 0.74432 0.41509 0.0
C2204 C 0.51563 0.74488 0.38907 0.0
H2205 H 0.44534 0.73514 0.28982 0.0
H2206 H 0.46178 0.73412 0.32935 0.0
H2207 H 0.51634 0.75722 0.32353 0.0
H2208 H 0.56546 0.75411 0.4378 0.0
H2209 H 0.54887 0.75494 0.39854 0.0
C2210 C 0.45773 0.49978 0.18985 0.0
C2211 C 0.4631 0.49337 0.21454 0.0
C2212 C 0.46775 0.50029 0.16657 0.0
C2213 C 0.51176 0.48892 0.13866 0.0
H2214 H 0.49504 0.50759 1.07432 0.0
C2215 C 0.55393 0.4904 1.03964 0.0
C2216 C 0.54879 0.4981 1.01556 0.0
C2217 C 0.54401 0.48979 1.06306 0.0
C2218 C 0.50041 0.50224 1.09174 0.0
H2219 H 0.48478 0.48248 0.2313 0.0
H2220 H 0.50159 0.48328 0.19239 0.0
H2221 H 0.47826 0.50674 1.11297 0.0
H2222 H 0.52769 0.51115 1.00012 0.0
H2223 H 0.51112 0.51021 1.03915 0.0
H2224 H 0.53393 0.48445 0.11739 0.0
C2225 C 0.48944 0.48805 0.19043 0.0
C2226 C 0.49034 0.50171 1.11489 0.0
C2227 C 0.47945 0.48755 0.21363 0.0
C2228 C 0.53283 0.50505 1.01726 0.0
C2229 C 0.52295 0.50444 1.04054 0.0
C2230 C 0.52183 0.48944 0.1155 0.0
C2231 C 0.48418 0.49446 0.16558 0.0
C2232 C 0.49544 0.49503 0.13968 0.0
C2233 C 0.52795 0.49677 1.06477 0.0
C2234 C 0.51673 0.49614 1.09072 0.0
H2235 H 0.44554 0.50458 0.18831 0.0
H2236 H 0.4623 0.50544 0.14908 0.0
H2237 H 0.5171 0.48354 0.15609 0.0
H2238 H 0.56582 0.48465 1.04055 0.0
H2239 H 0.5492 0.48359 1.08005 0.0
C2240 C 0.34264 0.99133 1.08257 0.0
C2241 C 0.35125 0.99628 1.10548 0.0
C2242 C 0.34947 0.99149 1.0565 0.0
C2243 C 0.39018 0.99636 1.01587 0.0
H2244 H 0.36258 0.99666 0.95589 0.0
C2245 C 0.41833 0.99111 0.90522 0.0
C2246 C 0.40978 0.9963 0.88234 0.0
C2247 C 0.41151 0.99126 0.9313 0.0
C2248 C 0.37087 0.99662 0.97196 0.0
H2249 H 0.37507 0.00526 0.1156 0.0
H2250 H 0.38671 0.0053 1.07169 0.0
H2251 H 0.35115 0.99666 0.99968 0.0
H2252 H 0.38607 0.00571 0.87226 0.0
H2253 H 0.37443 0.00574 0.91618 0.0
H2254 H 0.4099 0.9962 0.98814 0.0
C2255 C 0.37434 0.00122 1.07362 0.0
C2256 C 0.36405 0.9965 0.99806 0.0
C2257 C 0.36744 0.00128 1.09969 0.0
C2258 C 0.39365 0.00153 0.88816 0.0
C2259 C 0.38676 0.00147 0.91422 0.0
C2260 C 0.39699 0.99624 0.98977 0.0
C2261 C 0.36571 0.99639 1.05059 0.0
C2262 C 0.37333 0.99642 1.02146 0.0
C2263 C 0.39533 0.9964 0.93724 0.0
C2264 C 0.38771 0.99642 0.96637 0.0
H2265 H 0.33026 0.98727 1.08467 0.0
H2266 H 0.34175 0.98743 1.04077 0.0
H2267 H 0.39846 0.99619 1.03194 0.0
H2268 H 0.43065 0.98686 0.90309 0.0
H2269 H 0.41918 0.98701 0.94701 0.0
C2270 C 0.91937 0.25103 1.07984 0.0
C2271 C 0.91085 0.24599 1.10295 0.0
C2272 C 0.91249 0.2509 1.05384 0.0
C2273 C 0.8717 0.24585 1.01362 0.0
H2274 H 0.89917 0.24615 0.95319 0.0
C2275 C 0.84322 0.25116 0.90315 0.0
C2276 C 0.85179 0.2463 0.88003 0.0
C2277 C 0.85009 0.25097 0.92916 0.0
C2278 C 0.89091 0.24603 0.96938 0.0
H2279 H 0.88706 0.2369 1.11338 0.0
H2280 H 0.87533 0.23692 1.06963 0.0
H2281 H 0.91068 0.2461 0.99683 0.0
H2282 H 0.87564 0.23743 0.86961 0.0
H2283 H 0.88734 0.23735 0.91336 0.0
H2284 H 0.85192 0.24592 0.98618 0.0
C2285 C 0.8877 0.24103 1.07135 0.0
C2286 C 0.89778 0.24611 0.99542 0.0
C2287 C 0.89466 0.24094 1.09735 0.0
C2288 C 0.86801 0.24135 0.88564 0.0
C2289 C 0.87495 0.24137 0.91164 0.0
C2290 C 0.86483 0.24601 0.98759 0.0
C2291 C 0.89625 0.24596 1.04812 0.0
C2292 C 0.88856 0.24597 1.01902 0.0
C2293 C 0.86636 0.24612 0.93488 0.0
C2294 C 0.87405 0.24605 0.96399 0.0
H2295 H 0.93174 0.25515 1.08173 0.0
H2296 H 0.92018 0.25502 1.03799 0.0
H2297 H 0.86343 0.24583 1.02981 0.0
H2298 H 0.83083 0.25519 0.90126 0.0
H2299 H 0.84237 0.25496 0.94502 0.0
C2300 C 0.34193 0.25213 0.40519 0.0
C2301 C 0.3502 0.24634 0.38224 0.0
C2302 C 0.34888 0.25211 0.43115 0.0
C2303 C 0.38944 0.24405 0.47144 0.0
H2304 H 0.3626 0.25104 0.53175 0.0
C2305 C 0.41921 0.24794 0.5809 0.0
C2306 C 0.41022 0.24697 0.6046 0.0
C2307 C 0.41215 0.24777 0.55505 0.0
C2308 C 0.37069 0.24898 0.51562 0.0
H2309 H 0.37359 0.23592 0.37205 0.0
H2310 H 0.38539 0.23597 0.41566 0.0
H2311 H 0.35094 0.25088 0.48831 0.0
H2312 H 0.38535 0.24509 0.61627 0.0
H2313 H 0.37336 0.24492 0.57274 0.0
H2314 H 0.40919 0.24216 0.49872 0.0
C2315 C 0.3732 0.24069 0.4139 0.0
C2316 C 0.36374 0.24898 0.48964 0.0
C2317 C 0.3662 0.24059 0.38795 0.0
C2318 C 0.39335 0.24588 0.59975 0.0
C2319 C 0.38625 0.24584 0.57384 0.0
C2320 C 0.39641 0.24418 0.4974 0.0
C2321 C 0.36492 0.24642 0.437 0.0
C2322 C 0.37271 0.24648 0.46606 0.0
C2323 C 0.39527 0.24674 0.55001 0.0
C2324 C 0.38744 0.24663 0.52098 0.0
H2325 H 0.32973 0.25681 0.40321 0.0
H2326 H 0.34139 0.25687 0.44683 0.0
H2327 H 0.39755 0.2421 0.45531 0.0
H2328 H 0.43211 0.24885 0.58218 0.0
H2329 H 0.42029 0.24864 0.53875 0.0
C2330 C 0.91809 0.98949 0.40488 0.0
C2331 C 0.91034 0.9966 0.3823 0.0
C2332 C 0.91119 0.98966 0.43088 0.0
C2333 C 0.8713 -0.00079 0.47188 0.0
H2334 H 0.89837 0.99219 0.53168 0.0
C2335 C 0.84215 0.99357 0.58174 0.0
C2336 C 0.85109 0.99598 0.60517 0.0
C2337 C 0.84911 0.99387 0.55578 0.0
C2338 C 0.89024 0.99425 0.51567 0.0
H2339 H 0.88788 0.00953 0.37274 0.0
H2340 H 0.87607 0.00964 0.41661 0.0
H2341 H 0.90987 0.99234 0.48794 0.0
H2342 H 0.87571 0.00055 0.61629 0.0
H2343 H 0.88758 0.00082 0.57246 0.0
H2344 H 0.85165 0.00103 0.4996 0.0
C2345 C 0.88785 0.0038 0.41441 0.0
C2346 C 0.89708 0.99422 0.48957 0.0
C2347 C 0.89486 0.00382 0.38837 0.0
C2348 C 0.86779 -0.00139 0.59998 0.0
C2349 C 0.87481 -0.0013 0.57395 0.0
C2350 C 0.86443 -0.00098 0.49796 0.0
C2351 C 0.89567 0.99676 0.43711 0.0
C2352 C 0.88799 0.99675 0.46623 0.0
C2353 C 0.86583 0.99639 0.55041 0.0
C2354 C 0.87352 0.99657 0.52131 0.0
H2355 H 0.92987 0.98362 0.40256 0.0
H2356 H 0.91826 0.98381 0.44628 0.0
H2357 H 0.86316 0.00117 0.45586 0.0
H2358 H 0.82937 0.99142 0.58333 0.0
H2359 H 0.84107 0.99183 0.53967 0.0
C2360 C 0.64484 0.98889 0.13852 0.0
C2361 C 0.66037 0.99592 0.13232 0.0
C2362 C 0.63787 0.98899 0.1646 0.0
C2363 C 0.64727 -0.00155 0.23974 0.0
H2364 H 0.60181 0.99212 0.24997 0.0
C2365 C 0.61803 0.99442 0.35037 0.0
C2366 C 0.60134 -0.0028 0.35558 0.0
C2367 C 0.62504 0.99425 0.32431 0.0
C2368 C 0.6146 0.994 0.24828 0.0
H2369 H 0.68006 0.00864 0.15245 0.0
H2370 H 0.66852 0.00858 0.19623 0.0
H2371 H 0.61326 0.99185 0.20619 0.0
H2372 H 0.57966 0.00193 0.33371 0.0
H2373 H 0.59132 0.00138 0.29005 0.0
H2374 H 0.64863 0.00047 0.28184 0.0
C2375 C 0.66137 0.00283 0.18089 0.0
C2376 C 0.62144 0.99372 0.22217 0.0
C2377 C 0.66823 0.00292 0.15485 0.0
C2378 C 0.59242 -0.00033 0.33212 0.0
C2379 C 0.59936 -0.00071 0.30615 0.0
C2380 C 0.64046 -0.0015 0.26587 0.0
C2381 C 0.64579 0.99592 0.18724 0.0
C2382 C 0.63815 0.99601 0.21642 0.0
C2383 C 0.61606 0.99662 0.30076 0.0
C2384 C 0.62374 0.99635 0.2716 0.0
H2385 H 0.63778 0.98327 0.12295 0.0
H2386 H 0.62603 0.98329 0.16687 0.0
H2387 H 0.66008 0.0002 0.23805 0.0
H2388 H 0.62595 0.99242 0.36668 0.0
H2389 H 0.63779 0.99202 0.32282 0.0
C2390 C 0.11642 0.75105 0.13451 0.0
C2391 C 0.10016 0.74616 0.12917 0.0
C2392 C 0.12348 0.75107 0.16042 0.0
C2393 C 0.11368 0.74651 0.23649 0.0
H2394 H 0.15958 0.74676 0.24513 0.0
C2395 C 0.14393 0.75163 0.34581 0.0
C2396 C 0.16023 0.7469 0.3512 0.0
C2397 C 0.13686 0.75149 0.31991 0.0
C2398 C 0.14667 0.74665 0.24389 0.0
H2399 H 0.07925 0.73744 0.15073 0.0
H2400 H 0.091 0.73772 0.19434 0.0
H2401 H 0.14787 0.74662 0.20167 0.0
H2402 H 0.18117 0.73823 0.32974 0.0
H2403 H 0.16941 0.73823 0.28615 0.0
H2404 H 0.11249 0.74666 0.27872 0.0
C2405 C 0.09866 0.74163 0.17835 0.0
C2406 C 0.13968 0.74668 0.21796 0.0
C2407 C 0.09167 0.74141 0.15243 0.0
C2408 C 0.16873 0.7421 0.328 0.0
C2409 C 0.16173 0.74216 0.30209 0.0
C2410 C 0.12067 0.74671 0.26243 0.0
C2411 C 0.11497 0.74642 0.1838 0.0
C2412 C 0.12279 0.74654 0.21279 0.0
C2413 C 0.14539 0.7468 0.29658 0.0
C2414 C 0.13756 0.74672 0.2676 0.0
H2415 H 0.12399 0.75489 0.11835 0.0
H2416 H 0.13589 0.75504 0.16194 0.0
H2417 H 0.10077 0.74651 0.23525 0.0
H2418 H 0.13634 0.75548 0.36192 0.0
H2419 H 0.12442 0.75536 0.31834 0.0
C2420 C 0.66806 0.74059 0.82885 0.0
C2421 C 0.65958 0.7462 0.85171 0.0
C2422 C 0.6613 0.74061 0.80274 0.0
C2423 C 0.62085 0.74733 0.76173 0.0
H2424 H 0.64838 0.74316 0.70168 0.0
C2425 C 0.59207 0.74221 0.65161 0.0
C2426 C 0.60096 0.74497 0.62805 0.0
C2427 C 0.59899 0.74253 0.67756 0.0
C2428 C 0.6401 0.74439 0.71774 0.0
H2429 H 0.636 0.75624 0.86151 0.0
H2430 H 0.62449 0.7561 0.81764 0.0
H2431 H 0.65975 0.74338 0.74541 0.0
H2432 H 0.62553 0.75022 0.61689 0.0
H2433 H 0.63732 0.75055 0.66066 0.0
H2434 H 0.60121 0.74826 0.73411 0.0
C2435 C 0.63673 0.75157 0.81961 0.0
C2436 C 0.64688 0.74442 0.74387 0.0
C2437 C 0.64356 0.75173 0.84571 0.0
C2438 C 0.61761 0.74798 0.63324 0.0
C2439 C 0.62459 0.74811 0.65928 0.0
C2440 C 0.61407 0.7471 0.73563 0.0
C2441 C 0.64523 0.74605 0.79661 0.0
C2442 C 0.63765 0.74594 0.76737 0.0
C2443 C 0.61565 0.74545 0.68293 0.0
C2444 C 0.6233 0.74566 0.71212 0.0
H2445 H 0.6803 0.73608 0.83101 0.0
H2446 H 0.66895 0.73602 0.78714 0.0
H2447 H 0.61256 0.74846 0.77778 0.0
H2448 H 0.57934 0.73976 0.65011 0.0
H2449 H 0.59094 0.7402 0.69368 0.0
C2450 C 0.11795 0.99368 0.85072 0.0
C2451 C 0.10134 -0.00301 0.85591 0.0
C2452 C 0.125 0.99362 0.82472 0.0
C2453 C 0.11469 0.9954 0.74869 0.0
H2454 H 0.16046 -0.00144 0.73896 0.0
C2455 C 0.14451 0.99096 0.63893 0.0
C2456 C 0.16057 0.99643 0.63305 0.0
C2457 C 0.13759 0.99103 0.66498 0.0
C2458 C 0.14757 -0.00231 0.74051 0.0
H2459 H 0.07985 0.00285 0.83412 0.0
H2460 H 0.09159 0.00258 0.79053 0.0
H2461 H 0.14893 -0.00132 0.78267 0.0
H2462 H 0.18128 0.00636 0.65371 0.0
H2463 H 0.16975 0.00632 0.69756 0.0
H2464 H 0.11333 0.99435 0.70656 0.0
C2465 C 0.09953 -8e-05 0.8066 0.0
C2466 C 0.14071 -0.00235 0.76659 0.0
C2467 C 0.09254 0.00015 0.83252 0.0
C2468 C 0.16901 0.0019 0.65587 0.0
C2469 C 0.16216 0.00182 0.68193 0.0
C2470 C 0.12157 0.99525 0.72263 0.0
C2471 C 0.11615 0.99669 0.80122 0.0
C2472 C 0.12388 0.99657 0.77213 0.0
C2473 C 0.14605 0.99642 0.68794 0.0
C2474 C 0.13838 0.99645 0.71707 0.0
H2475 H 0.12576 0.99113 0.86701 0.0
H2476 H 0.13768 0.99091 0.82324 0.0
H2477 H 0.10182 0.99439 0.75022 0.0
H2478 H 0.13701 0.98655 0.62309 0.0
H2479 H 0.12533 0.98655 0.66695 0.0
C2480 C 0.34294 0.4893 0.57887 0.0
C2481 C 0.35133 0.49518 0.60154 0.0
C2482 C 0.34969 0.48941 0.55274 0.0
C2483 C 0.38998 0.49673 0.51153 0.0
H2484 H 0.36246 0.49247 0.45179 0.0
C2485 C 0.41868 0.49169 0.40142 0.0
C2486 C 0.40979 0.49469 0.37807 0.0
C2487 C 0.41176 0.49192 0.4274 0.0
C2488 C 0.37072 0.49374 0.46778 0.0
H2489 H 0.37469 0.50582 0.61112 0.0
H2490 H 0.3862 0.50586 0.56713 0.0
H2491 H 0.35109 0.49257 0.49563 0.0
H2492 H 0.3853 0.5003 0.36712 0.0
H2493 H 0.37349 0.50051 0.41101 0.0
H2494 H 0.40961 0.49785 0.48373 0.0
C2495 C 0.37406 0.50103 0.56929 0.0
C2496 C 0.36395 0.49369 0.49394 0.0
C2497 C 0.36723 0.50109 0.59542 0.0
C2498 C 0.39318 0.49787 0.38337 0.0
C2499 C 0.3862 0.49793 0.40944 0.0
C2500 C 0.39676 0.49659 0.4854 0.0
C2501 C 0.36565 0.49523 0.54649 0.0
C2502 C 0.3732 0.49522 0.51727 0.0
C2503 C 0.39514 0.495 0.4329 0.0
C2504 C 0.38751 0.49513 0.46206 0.0
H2505 H 0.33079 0.48449 0.58121 0.0
H2506 H 0.34215 0.48458 0.53724 0.0
H2507 H 0.39826 0.49789 0.52751 0.0
H2508 H 0.43139 0.4891 0.39975 0.0
H2509 H 0.41977 0.48939 0.44342 0.0
C2510 C 0.89499 0.73891 0.59545 0.0
C2511 C 0.91052 0.74597 0.60147 0.0
C2512 C 0.88799 0.73898 0.56944 0.0
C2513 C 0.89721 0.7486 0.49396 0.0
H2514 H 0.85182 0.74164 0.48437 0.0
C2515 C 0.86784 0.74453 0.38351 0.0
C2516 C 0.85109 0.7469 0.37848 0.0
C2517 C 0.87488 0.74442 0.4095 0.0
C2518 C 0.86459 0.7437 0.48586 0.0
H2519 H 0.93015 0.75874 0.58095 0.0
H2520 H 0.91858 0.75862 0.53729 0.0
H2521 H 0.86333 0.74144 0.52799 0.0
H2522 H 0.82936 0.75096 0.40074 0.0
H2523 H 0.84108 0.7505 0.44426 0.0
H2524 H 0.89849 0.75072 0.45181 0.0
C2525 C 0.91144 0.75287 0.55276 0.0
C2526 C 0.87147 0.74347 0.5119 0.0
C2527 C 0.91833 0.75298 0.57875 0.0
C2528 C 0.84217 0.74902 0.40213 0.0
C2529 C 0.84915 0.7487 0.42803 0.0
C2530 C 0.89036 0.7486 0.46789 0.0
C2531 C 0.89586 0.74592 0.5466 0.0
C2532 C 0.88817 0.74598 0.51746 0.0
C2533 C 0.86591 0.74644 0.43324 0.0
C2534 C 0.87365 0.74623 0.46235 0.0
H2535 H 0.88794 0.73327 0.61114 0.0
H2536 H 0.87617 0.73326 0.56738 0.0
H2537 H 0.91 0.75054 0.49544 0.0
H2538 H 0.87579 0.74282 0.36709 0.0
H2539 H 0.88769 0.74251 0.41078 0.0
C2540 C 0.36693 0.73875 0.88334 0.0
C2541 C 0.35119 0.74528 0.87747 0.0
C2542 C 0.37393 0.73879 0.90936 0.0
C2543 C 0.36423 0.74624 0.98498 0.0
H2544 H 0.40997 0.74328 0.99465 0.0
C2545 C 0.39351 0.74109 1.09517 0.0
C2546 C 0.40983 0.74561 1.10081 0.0
C2547 C 0.38665 0.74109 1.0691 0.0
C2548 C 0.39709 0.74417 0.99311 0.0
H2549 H 0.33118 0.75701 0.89823 0.0
H2550 H 0.34273 0.75673 0.94191 0.0
H2551 H 0.39856 0.7431 0.95088 0.0
H2552 H 0.43105 0.75366 1.07952 0.0
H2553 H 0.41965 0.75329 1.03565 0.0
H2554 H 0.36274 0.74709 1.02719 0.0
C2555 C 0.35003 0.75148 0.92631 0.0
C2556 C 0.39029 0.74396 0.96701 0.0
C2557 C 0.34317 0.75169 0.90032 0.0
C2558 C 0.41857 0.74998 1.07763 0.0
C2559 C 0.41179 0.74971 1.05155 0.0
C2560 C 0.37101 0.74616 1.01108 0.0
C2561 C 0.36582 0.74509 0.93232 0.0
C2562 C 0.37347 0.74508 0.96147 0.0
C2563 C 0.39543 0.74533 1.0458 0.0
C2564 C 0.38784 0.74521 1.01662 0.0
H2565 H 0.37416 0.73361 0.86754 0.0
H2566 H 0.38593 0.73353 0.91134 0.0
H2567 H 0.35134 0.74704 0.98346 0.0
H2568 H 0.38574 0.73757 1.11123 0.0
H2569 H 0.37417 0.73744 1.06736 0.0
C2570 C 0.9193 0.49044 0.90309 0.0
C2571 C 0.91085 0.49614 0.88035 0.0
C2572 C 0.91254 0.49051 0.92923 0.0
C2573 C 0.87215 0.49749 0.97037 0.0
H2574 H 0.89965 0.49337 1.03018 0.0
C2575 C 0.84336 0.4925 1.08052 0.0
C2576 C 0.85224 0.49541 1.10389 0.0
C2577 C 0.85029 0.49275 1.05454 0.0
C2578 C 0.89139 0.49459 1.01418 0.0
H2579 H 0.88737 0.50641 0.87067 0.0
H2580 H 0.87584 0.50638 0.91464 0.0
H2581 H 0.91104 0.49351 0.98637 0.0
H2582 H 0.87675 0.50086 1.11484 0.0
H2583 H 0.88858 0.50111 1.07098 0.0
H2584 H 0.8525 0.49853 0.99813 0.0
C2585 C 0.88804 0.50173 0.91254 0.0
C2586 C 0.89817 0.49457 0.98802 0.0
C2587 C 0.89488 0.50182 0.88642 0.0
C2588 C 0.86887 0.49851 1.09859 0.0
C2589 C 0.87586 0.49859 1.07253 0.0
C2590 C 0.86535 0.49733 0.9965 0.0
C2591 C 0.89651 0.49611 0.93542 0.0
C2592 C 0.88893 0.49606 0.96465 0.0
C2593 C 0.86693 0.49576 1.04905 0.0
C2594 C 0.87459 0.49591 1.01988 0.0
H2595 H 0.93152 0.48581 0.90081 0.0
H2596 H 0.92014 0.48583 0.94477 0.0
H2597 H 0.86387 0.49861 0.95438 0.0
H2598 H 0.83064 0.48997 1.08218 0.0
H2599 H 0.84227 0.49029 1.03852 0.0
C2600 C 0.5932 0.50013 0.82932 0.0
C2601 C 0.60187 0.49558 0.85236 0.0
C2602 C 0.60005 0.49988 0.80327 0.0
C2603 C 0.64088 0.49613 0.76297 0.0
H2604 H 0.61349 0.49323 0.70287 0.0
C2605 C 0.66894 0.50186 0.65254 0.0
C2606 C 0.66099 0.49538 0.62981 0.0
C2607 C 0.662 0.50163 0.67849 0.0
C2608 C 0.6217 0.49403 0.71899 0.0
H2609 H 0.62584 0.48723 0.86276 0.0
H2610 H 0.63754 0.48709 0.81888 0.0
H2611 H 0.60194 0.49335 0.74665 0.0
H2612 H 0.63815 0.48355 0.61983 0.0
H2613 H 0.62623 0.48342 0.66366 0.0
H2614 H 0.66062 0.49697 0.73534 0.0
C2615 C 0.62509 0.49089 0.8207 0.0
C2616 C 0.61482 0.49422 0.74505 0.0
C2617 C 0.61816 0.49089 0.84674 0.0
C2618 C 0.64527 0.48875 0.63563 0.0
C2619 C 0.63821 0.48876 0.66161 0.0
C2620 C 0.64773 0.49621 0.73691 0.0
C2621 C 0.61639 0.49532 0.79754 0.0
C2622 C 0.62404 0.49521 0.76846 0.0
C2623 C 0.64624 0.49514 0.68446 0.0
C2624 C 0.63853 0.49511 0.7135 0.0
H2625 H 0.58075 0.50393 0.8313 0.0
H2626 H 0.59229 0.50361 0.78741 0.0
H2627 H 0.64909 0.49703 0.77907 0.0
H2628 H 0.68091 0.50725 0.65039 0.0
H2629 H 0.66922 0.50696 0.69407 0.0
C2630 C 0.1679 0.24136 0.83186 0.0
C2631 C 0.15967 0.24746 0.85472 0.0
C2632 C 0.16112 0.24145 0.8058 0.0
C2633 C 0.12093 0.24917 0.76457 0.0
H2634 H 0.14849 0.24373 0.70476 0.0
C2635 C 0.09235 0.24378 0.65418 0.0
C2636 C 0.10136 0.2462 0.63066 0.0
C2637 C 0.09918 0.24414 0.68021 0.0
C2638 C 0.1402 0.24533 0.72074 0.0
H2639 H 0.13641 0.25846 0.86448 0.0
H2640 H 0.12483 0.25844 0.82056 0.0
H2641 H 0.15975 0.244 0.74854 0.0
H2642 H 0.12605 0.25089 0.61969 0.0
H2643 H 0.13768 0.25128 0.66356 0.0
H2644 H 0.10137 0.2504 0.73678 0.0
C2645 C 0.13693 0.25348 0.82259 0.0
C2646 C 0.14691 0.24538 0.74692 0.0
C2647 C 0.14381 0.25358 0.84872 0.0
C2648 C 0.11803 0.24893 0.63598 0.0
C2649 C 0.12493 0.24909 0.66209 0.0
C2650 C 0.11419 0.2489 0.73841 0.0
C2651 C 0.14523 0.24745 0.79963 0.0
C2652 C 0.13767 0.24735 0.77035 0.0
C2653 C 0.11587 0.24676 0.68571 0.0
C2654 C 0.12344 0.24701 0.71497 0.0
H2655 H 0.17999 0.23634 0.83401 0.0
H2656 H 0.16861 0.23643 0.79027 0.0
H2657 H 0.11263 0.25067 0.78056 0.0
H2658 H 0.07959 0.24156 0.6526 0.0
H2659 H 0.09105 0.24208 0.69629 0.0
C2660 C 0.59324 0.2426 0.15352 0.0
C2661 C 0.60203 0.24564 0.12996 0.0
C2662 C 0.60024 0.2428 0.17939 0.0
C2663 C 0.64149 0.24494 0.21907 0.0
H2664 H 0.61413 0.24805 0.27946 0.0
C2665 C 0.66994 0.24078 0.32965 0.0
C2666 C 0.66146 0.246 0.35268 0.0
C2667 C 0.66308 0.24088 0.30364 0.0
C2668 C 0.62237 0.2472 0.2633 0.0
H2669 H 0.62651 0.25127 0.11863 0.0
H2670 H 0.63844 0.25143 0.16226 0.0
H2671 H 0.60261 0.24804 0.23594 0.0
H2672 H 0.63776 0.25545 0.36295 0.0
H2673 H 0.62608 0.25548 0.31922 0.0
H2674 H 0.66125 0.24405 0.24648 0.0
C2675 C 0.62573 0.24885 0.16096 0.0
C2676 C 0.61549 0.24707 0.23729 0.0
C2677 C 0.61867 0.24882 0.13501 0.0
C2678 C 0.64533 0.25124 0.34699 0.0
C2679 C 0.63839 0.25119 0.32098 0.0
C2680 C 0.64837 0.24488 0.24511 0.0
C2681 C 0.61689 0.24589 0.18462 0.0
C2682 C 0.62465 0.24598 0.21369 0.0
C2683 C 0.6469 0.24605 0.29782 0.0
C2684 C 0.6392 0.24605 0.26871 0.0
H2685 H 0.58052 0.24001 0.15209 0.0
H2686 H 0.59228 0.24025 0.19555 0.0
H2687 H 0.64971 0.24398 0.2029 0.0
H2688 H 0.68227 0.2365 0.3316 0.0
H2689 H 0.67073 0.23659 0.28787 0.0
C2690 C 0.14361 0.49426 0.1341 0.0
C2691 C 0.16014 0.49779 0.12856 0.0
C2692 C 0.13669 0.49424 0.16024 0.0
C2693 C 0.14734 0.49751 0.2363 0.0
H2694 H 0.10155 0.49764 0.24652 0.0
C2695 C 0.11817 0.49424 0.34709 0.0
C2696 C 0.10165 0.49792 0.35263 0.0
C2697 C 0.12508 0.49419 0.32095 0.0
C2698 C 0.11445 0.49765 0.24488 0.0
H2699 H 0.18166 0.50408 0.15 0.0
H2700 H 0.17018 0.50392 0.19374 0.0
H2701 H 0.11285 0.49767 0.20272 0.0
H2702 H 0.08018 0.50444 0.33117 0.0
H2703 H 0.09166 0.50423 0.28743 0.0
H2704 H 0.14895 0.49746 0.27847 0.0
C2705 C 0.16216 0.50105 0.17787 0.0
C2706 C 0.1212 0.49757 0.21869 0.0
C2707 C 0.16901 0.50121 0.15181 0.0
C2708 C 0.09281 0.50144 0.32936 0.0
C2709 C 0.09966 0.50126 0.30331 0.0
C2710 C 0.1406 0.49745 0.2625 0.0
C2711 C 0.14561 0.4976 0.18361 0.0
C2712 C 0.13803 0.49755 0.2129 0.0
C2713 C 0.11619 0.49766 0.29757 0.0
C2714 C 0.12377 0.49758 0.26829 0.0
H2715 H 0.13573 0.4915 0.11798 0.0
H2716 H 0.12405 0.49135 0.16192 0.0
H2717 H 0.16024 0.49738 0.23467 0.0
H2718 H 0.12603 0.49139 0.36322 0.0
H2719 H 0.1377 0.49119 0.31928 0.0
C2720 C 0.32554 0.18244 0.29425 0.0
C2721 C 0.31475 0.19515 0.2838 0.0
C2722 C 0.3262 0.16448 0.28483 0.0
C2723 C 0.31695 0.13576 0.22694 0.0
H2724 H 0.31734 0.09542 0.27485 0.0
C2725 C 0.32609 0.05994 0.19356 0.0
C2726 C 0.31553 0.04705 0.20428 0.0
C2727 C 0.32656 0.07791 0.20296 0.0
C2728 C 0.31726 0.10648 0.26109 0.0
H2729 H 0.29646 0.1986 0.25456 0.0
H2730 H 0.29792 0.16774 0.2378 0.0
H2731 H 0.31734 0.12642 0.29149 0.0
H2732 H 0.29747 0.04329 0.234 0.0
H2733 H 0.2986 0.07418 0.25073 0.0
H2734 H 0.31713 0.11582 0.19654 0.0
C2735 C 0.30577 0.17152 0.25354 0.0
C2736 C 0.31736 0.12437 0.2707 0.0
C2737 C 0.30486 0.1893 0.26333 0.0
C2738 C 0.30569 0.05273 0.22501 0.0
C2739 C 0.30641 0.07053 0.23478 0.0
C2740 C 0.31725 0.11787 0.21733 0.0
C2741 C 0.31637 0.15867 0.26417 0.0
C2742 C 0.31701 0.1394 0.25385 0.0
C2743 C 0.31678 0.08356 0.22388 0.0
C2744 C 0.31721 0.10283 0.23419 0.0
H2745 H 0.33343 0.18634 0.30987 0.0
H2746 H 0.33462 0.15518 0.29352 0.0
H2747 H 0.3168 0.14681 0.21319 0.0
H2748 H 0.33395 0.05617 0.17772 0.0
H2749 H 0.33481 0.08735 0.19405 0.0
C2750 C 0.94114 0.0522 0.26358 0.0
C2751 C 0.94238 0.04851 0.29036 0.0
C2752 C 0.94121 0.06999 0.25382 0.0
C2753 C 0.95065 0.11863 0.27172 0.0
H2754 H 0.92914 0.12848 0.20681 0.0
C2755 C 0.9582 0.18861 0.21926 0.0
C2756 C 0.94601 0.19537 0.20306 0.0
C2757 C 0.9574 0.17108 0.23004 0.0
C2758 C 0.93512 0.12626 0.2251 0.0
H2759 H 0.94464 0.0613 0.32782 0.0
H2760 H 0.94449 0.09236 0.31104 0.0
H2761 H 0.92783 0.09853 0.22566 0.0
H2762 H 0.92349 0.18834 0.18531 0.0
H2763 H 0.92166 0.15824 0.20468 0.0
H2764 H 0.9574 0.14656 0.27167 0.0
C2765 C 0.94371 0.08139 0.2973 0.0
C2766 C 0.9346 0.1087 0.23589 0.0
C2767 C 0.94371 0.06345 0.3071 0.0
C2768 C 0.93304 0.1838 0.19785 0.0
C2769 C 0.93213 0.16629 0.20887 0.0
C2770 C 0.95108 0.13624 0.26102 0.0
C2771 C 0.94243 0.0851 0.27035 0.0
C2772 C 0.94249 0.10435 0.25935 0.0
C2773 C 0.94429 0.15947 0.22533 0.0
C2774 C 0.94345 0.1405 0.23729 0.0
H2775 H 0.94016 0.04121 0.24986 0.0
H2776 H 0.94055 0.07176 0.23302 0.0
H2777 H 0.95704 0.11622 0.28961 0.0
H2778 H 0.96844 0.19696 0.22379 0.0
H2779 H 0.96729 0.16664 0.24194 0.0
C2780 C 0.68214 0.80874 0.94662 0.0
C2781 C 0.69502 0.79704 0.95188 0.0
C2782 C 0.68131 0.82622 0.95771 0.0
C2783 C 0.70036 0.85592 1.01008 0.0
H2784 H 0.67717 0.89389 0.97497 0.0
C2785 C 0.69327 0.92854 1.05657 0.0
C2786 C 0.69186 0.94357 1.03993 0.0
C2787 C 0.69323 0.91065 1.04667 0.0
C2788 C 0.68392 0.88365 0.98513 0.0
H2789 H 0.71738 0.79517 0.97278 0.0
H2790 H 0.71637 0.82542 0.99102 0.0
H2791 H 0.67839 0.86404 0.95597 0.0
H2792 H 0.68944 0.95108 0.9995 0.0
H2793 H 0.68976 0.92062 0.98249 0.0
H2794 H 0.70639 0.87577 1.03876 0.0
C2795 C 0.70649 0.82112 0.97904 0.0
C2796 C 0.6844 0.86614 0.97426 0.0
C2797 C 0.7072 0.80363 0.9682 0.0
C2798 C 0.69048 0.94001 1.01315 0.0
C2799 C 0.69051 0.92228 1.00329 0.0
C2800 C 0.69998 0.87348 1.02087 0.0
C2801 C 0.69346 0.83287 0.97429 0.0
C2802 C 0.69269 0.8518 0.98635 0.0
C2803 C 0.69182 0.90707 1.01972 0.0
C2804 C 0.69184 0.88786 1.0086 0.0
H2805 H 0.67258 0.80433 0.93404 0.0
H2806 H 0.67089 0.83436 0.95349 0.0
H2807 H 0.70666 0.84553 1.02067 0.0
H2808 H 0.6943 0.93058 1.07728 0.0
H2809 H 0.69408 0.89961 1.06035 0.0
C2810 C 0.05375 0.80224 1.01043 0.0
C2811 C 0.06427 0.79634 1.03004 0.0
C2812 C 0.05463 0.81989 1.00012 0.0
C2813 C 0.06888 0.8667 1.01468 0.0
H2814 H 0.06418 0.87466 0.94085 0.0
C2815 C 0.07557 0.93949 0.9714 0.0
C2816 C 0.06807 0.94426 0.94793 0.0
C2817 C 0.07561 0.92155 0.98063 0.0
C2818 C 0.06526 0.87297 0.9616 0.0
H2819 H 0.08407 0.80485 1.05401 0.0
H2820 H 0.08538 0.83572 1.03659 0.0
H2821 H 0.06317 0.8441 0.95826 0.0
H2822 H 0.0546 0.93339 0.91585 0.0
H2823 H 0.05393 0.90239 0.93225 0.0
H2824 H 0.07037 0.89539 1.01846 0.0
C2825 C 0.0764 0.82663 1.02907 0.0
C2826 C 0.06476 0.85518 0.97166 0.0
C2827 C 0.07568 0.80883 1.03909 0.0
C2828 C 0.06059 0.93034 0.93392 0.0
C2829 C 0.06032 0.91236 0.94343 0.0
C2830 C 0.06911 0.88449 1.00472 0.0
C2831 C 0.06592 0.83252 1.00928 0.0
C2832 C 0.06661 0.85165 0.99841 0.0
C2833 C 0.06779 0.90749 0.96714 0.0
C2834 C 0.06738 0.88814 0.97787 0.0
H2835 H 0.04485 0.79309 1.00276 0.0
H2836 H 0.04624 0.82374 0.98515 0.0
H2837 H 0.07012 0.86477 1.0354 0.0
H2838 H 0.08162 0.9497 0.98272 0.0
H2839 H 0.08199 0.91883 0.99842 0.0
C2840 C 0.31787 0.67845 0.80294 0.0
C2841 C 0.31911 0.69332 0.78596 0.0
C2842 C 0.31791 0.66045 0.79344 0.0
C2843 C 0.3271 0.63278 0.73239 0.0
H2844 H 0.30442 0.59501 0.76906 0.0
C2845 C 0.32909 0.55735 0.6958 0.0
C2846 C 0.31612 0.54575 0.7012 0.0
C2847 C 0.3299 0.57495 0.70649 0.0
C2848 C 0.31072 0.60529 0.75817 0.0
H2849 H 0.32122 0.7004 0.7453 0.0
H2850 H 0.32096 0.66974 0.72896 0.0
H2851 H 0.30467 0.62547 0.78647 0.0
H2852 H 0.29364 0.54421 0.72205 0.0
H2853 H 0.29465 0.57465 0.73969 0.0
H2854 H 0.3327 0.61281 0.70364 0.0
C2855 C 0.32031 0.67162 0.74974 0.0
C2856 C 0.31107 0.62299 0.76855 0.0
C2857 C 0.32031 0.68947 0.75921 0.0
C2858 C 0.30387 0.55257 0.71734 0.0
C2859 C 0.30459 0.57018 0.72783 0.0
C2860 C 0.32668 0.61513 0.72194 0.0
C2861 C 0.31917 0.65658 0.76653 0.0
C2862 C 0.31918 0.63724 0.75585 0.0
C2863 C 0.31766 0.58183 0.72286 0.0
C2864 C 0.3184 0.60091 0.73446 0.0
H2865 H 0.31697 0.6807 0.82364 0.0
H2866 H 0.31719 0.64955 0.80737 0.0
H2867 H 0.33382 0.64293 0.72189 0.0
H2868 H 0.33871 0.55276 0.68335 0.0
H2869 H 0.34036 0.58302 0.70213 0.0
C2870 C 0.94826 0.6794 0.67825 0.0
C2871 C 0.94246 0.69384 0.69334 0.0
C2872 C 0.94866 0.66149 0.68819 0.0
C2873 C 0.94306 0.6346 0.75185 0.0
H2874 H 0.94531 0.59341 0.70597 0.0
C2875 C 0.93545 0.5596 0.78914 0.0
C2876 C 0.94628 0.54663 0.77946 0.0
C2877 C 0.9348 0.57728 0.7786 0.0
C2878 C 0.94474 0.60473 0.71919 0.0
H2879 H 0.93242 0.70026 0.73095 0.0
H2880 H 0.93204 0.6697 0.74736 0.0
H2881 H 0.94434 0.62378 0.68782 0.0
H2882 H 0.96466 0.54241 0.75039 0.0
H2883 H 0.96329 0.57281 0.7318 0.0
H2884 H 0.94294 0.6153 0.78314 0.0
C2885 C 0.93699 0.67182 0.72821 0.0
C2886 C 0.94428 0.62242 0.70869 0.0
C2887 C 0.93695 0.68964 0.71852 0.0
C2888 C 0.95623 0.55194 0.75861 0.0
C2889 C 0.95536 0.56945 0.74775 0.0
C2890 C 0.94319 0.61693 0.76227 0.0
C2891 C 0.94303 0.6572 0.71352 0.0
C2892 C 0.94348 0.63791 0.72473 0.0
C2893 C 0.9447 0.58256 0.75759 0.0
C2894 C 0.94411 0.60159 0.74621 0.0
H2895 H 0.95275 0.68196 0.65886 0.0
H2896 H 0.95369 0.65111 0.67592 0.0
H2897 H 0.94292 0.64566 0.76547 0.0
H2898 H 0.92751 0.55612 0.80501 0.0
H2899 H 0.92631 0.58678 0.78672 0.0
C2900 C 0.68381 0.30812 0.44734 0.0
C2901 C 0.69682 0.29659 0.45259 0.0
C2902 C 0.6829 0.32567 0.45815 0.0
C2903 C 0.70184 0.35586 0.50991 0.0
H2904 H 0.67864 0.3935 0.47407 0.0
C2905 C 0.69428 0.42871 0.55527 0.0
C2906 C 0.69304 0.44363 0.53839 0.0
C2907 C 0.69431 0.41076 0.54563 0.0
C2908 C 0.68539 0.38335 0.48443 0.0
H2909 H 0.7193 0.29509 0.4732 0.0
H2910 H 0.71813 0.32547 0.49102 0.0
H2911 H 0.67996 0.36349 0.45555 0.0
H2912 H 0.69102 0.45088 0.49781 0.0
H2913 H 0.69143 0.42029 0.48123 0.0
H2914 H 0.70774 0.37595 0.53833 0.0
C2915 C 0.70823 0.32097 0.47923 0.0
C2916 C 0.68593 0.36576 0.47384 0.0
C2917 C 0.70903 0.30341 0.46864 0.0
C2918 C 0.69192 0.4399 0.51163 0.0
C2919 C 0.692 0.4221 0.50202 0.0
C2920 C 0.70139 0.37349 0.52043 0.0
C2921 C 0.69509 0.33255 0.47445 0.0
C2922 C 0.69424 0.35155 0.48621 0.0
C2923 C 0.69314 0.40702 0.5187 0.0
C2924 C 0.69324 0.38774 0.50788 0.0
H2925 H 0.67417 0.3035 0.43505 0.0
H2926 H 0.6724 0.33369 0.45398 0.0
H2927 H 0.70816 0.34556 0.52068 0.0
H2928 H 0.69512 0.43089 0.57598 0.0
H2929 H 0.69502 0.39981 0.55947 0.0
C2930 C 0.06979 0.30183 0.50809 0.0
C2931 C 0.06856 0.29851 0.53501 0.0
C2932 C 0.06976 0.31949 0.49785 0.0
C2933 C 0.07668 0.36822 0.51482 0.0
H2934 H 0.05439 0.37757 0.45041 0.0
C2935 C 0.07034 0.44196 0.47471 0.0
C2936 C 0.06864 0.44531 0.4479 0.0
C2937 C 0.0704 0.4243 0.48495 0.0
C2938 C 0.06095 0.37535 0.46819 0.0
H2939 H 0.0666 0.31183 0.57217 0.0
H2940 H 0.06672 0.34271 0.55442 0.0
H2941 H 0.05434 0.34731 0.46895 0.0
H2942 H 0.06589 0.43204 0.41089 0.0
H2943 H 0.06637 0.40123 0.42843 0.0
H2944 H 0.08366 0.39605 0.5139 0.0
C2945 C 0.06766 0.33149 0.5411 0.0
C2946 C 0.06086 0.35778 0.47901 0.0
C2947 C 0.0675 0.31369 0.55139 0.0
C2948 C 0.06712 0.43016 0.43162 0.0
C2949 C 0.0673 0.41235 0.44188 0.0
C2950 C 0.07694 0.38575 0.50387 0.0
C2951 C 0.06868 0.33476 0.51405 0.0
C2952 C 0.06867 0.35381 0.50262 0.0
C2953 C 0.06893 0.40897 0.46887 0.0
C2954 C 0.069 0.38983 0.48032 0.0
H2955 H 0.07075 0.29064 0.49469 0.0
H2956 H 0.07084 0.32115 0.47705 0.0
H2957 H 0.08311 0.3659 0.53272 0.0
H2958 H 0.07153 0.45313 0.48808 0.0
H2959 H 0.07135 0.4228 0.50576 0.0
C2960 C 0.82532 0.05312 0.72136 0.0
C2961 C 0.818 0.04847 0.69766 0.0
C2962 C 0.82551 0.07108 0.73048 0.0
C2963 C 0.80397 0.11526 0.72568 0.0
H2964 H 0.84195 0.13502 0.75774 0.0
C2965 C 0.80501 0.19059 0.76091 0.0
C2966 C 0.81553 0.19616 0.78066 0.0
C2967 C 0.80564 0.17299 0.75044 0.0
C2968 C 0.83104 0.12983 0.74935 0.0
H2969 H 0.80498 0.0596 0.66516 0.0
H2970 H 0.80484 0.09083 0.68138 0.0
H2971 H 0.84233 0.10442 0.74059 0.0
H2972 H 0.83504 0.18702 0.80477 0.0
H2973 H 0.83579 0.15632 0.78759 0.0
H2974 H 0.79239 0.14017 0.73515 0.0
C2975 C 0.81064 0.0805 0.69288 0.0
C2976 C 0.83133 0.11208 0.73923 0.0
C2977 C 0.81077 0.06253 0.68343 0.0
C2978 C 0.82669 0.18336 0.78964 0.0
C2979 C 0.8272 0.16561 0.77943 0.0
C2980 C 0.80358 0.13288 0.73619 0.0
C2981 C 0.81804 0.08516 0.71661 0.0
C2982 C 0.81781 0.10441 0.72711 0.0
C2983 C 0.81667 0.15993 0.75949 0.0
C2984 C 0.81712 0.14072 0.74826 0.0
H2985 H 0.83103 0.04279 0.73298 0.0
H2986 H 0.83125 0.07384 0.74884 0.0
H2987 H 0.7932 0.10995 0.71694 0.0
H2988 H 0.79636 0.20002 0.75311 0.0
H2989 H 0.79751 0.16986 0.73482 0.0
C2990 C 0.45594 0.18978 0.72394 0.0
C2991 C 0.44573 0.19572 0.7039 0.0
C2992 C 0.45517 0.17196 0.73372 0.0
C2993 C 0.44337 0.12487 0.71699 0.0
H2994 H 0.44411 0.11614 0.79115 0.0
C2995 C 0.45515 0.05312 0.76277 0.0
C2996 C 0.44522 0.04739 0.7834 0.0
C2997 C 0.45447 0.07095 0.753 0.0
C2998 C 0.44386 0.11825 0.77037 0.0
H2999 H 0.42669 0.18701 0.67851 0.0
H3000 H 0.42576 0.15578 0.6948 0.0
H3001 H 0.44446 0.14718 0.77446 0.0
H3002 H 0.42672 0.05645 0.80979 0.0
H3003 H 0.42597 0.0877 0.7935 0.0
H3004 H 0.44328 0.09593 0.71288 0.0
C3005 C 0.4343 0.16505 0.70321 0.0
C3006 C 0.44416 0.13616 0.76073 0.0
C3007 C 0.43479 0.18306 0.69385 0.0
C3008 C 0.43463 0.06026 0.79404 0.0
C3009 C 0.43423 0.07826 0.78466 0.0
C3010 C 0.44349 0.10696 0.72662 0.0
C3011 C 0.44442 0.15916 0.72347 0.0
C3012 C 0.44388 0.13986 0.73383 0.0
C3013 C 0.44409 0.08396 0.76384 0.0
C3014 C 0.4437 0.10326 0.75352 0.0
H3015 H 0.46448 0.19904 0.73237 0.0
H3016 H 0.46325 0.16811 0.74914 0.0
H3017 H 0.44324 0.12697 0.6962 0.0
H3018 H 0.46339 0.0437 0.75384 0.0
H3019 H 0.46234 0.07464 0.73712 0.0
C3020 C 0.18389 0.80992 0.4436 0.0
C3021 C 0.19636 0.7979 0.44999 0.0
C3022 C 0.18342 0.82772 0.4537 0.0
C3023 C 0.20965 0.86288 0.48658 0.0
H3024 H 0.16945 0.88705 0.5006 0.0
C3025 C 0.2083 0.93905 0.5167 0.0
C3026 C 0.19633 0.94551 0.53365 0.0
C3027 C 0.20788 0.92134 0.50667 0.0
C3028 C 0.18086 0.88057 0.49708 0.0
H3029 H 0.21809 0.7956 0.47246 0.0
H3030 H 0.21733 0.82608 0.48994 0.0
H3031 H 0.16946 0.85633 0.48342 0.0
H3032 H 0.17442 0.9378 0.55322 0.0
H3033 H 0.17367 0.90695 0.53601 0.0
H3034 H 0.22109 0.88679 0.50073 0.0
C3035 C 0.20792 0.82209 0.47678 0.0
C3036 C 0.18087 0.86283 0.48677 0.0
C3037 C 0.20834 0.80437 0.46676 0.0
C3038 C 0.18387 0.93347 0.54022 0.0
C3039 C 0.18342 0.91567 0.53012 0.0
C3040 C 0.20964 0.88055 0.49683 0.0
C3041 C 0.19548 0.83426 0.4705 0.0
C3042 C 0.19528 0.85352 0.48132 0.0
C3043 C 0.19546 0.90915 0.51313 0.0
C3044 C 0.19527 0.88989 0.50231 0.0
H3045 H 0.17442 0.80557 0.43075 0.0
H3046 H 0.17366 0.83643 0.44795 0.0
H3047 H 0.22109 0.85665 0.48251 0.0
H3048 H 0.21803 0.94783 0.51085 0.0
H3049 H 0.21727 0.91735 0.49337 0.0
C3050 C 0.56917 0.80095 0.50687 0.0
C3051 C 0.56785 0.79738 0.53371 0.0
C3052 C 0.56922 0.81871 0.49701 0.0
C3053 C 0.57626 0.8672 0.51504 0.0
H3054 H 0.55385 0.87731 0.45098 0.0
C3055 C 0.56988 0.94135 0.47663 0.0
C3056 C 0.56817 0.94495 0.44989 0.0
C3057 C 0.56997 0.92359 0.48649 0.0
C3058 C 0.56044 0.87488 0.46866 0.0
H3059 H 0.56584 0.81031 0.57114 0.0
H3060 H 0.56609 0.84136 0.55405 0.0
H3061 H 0.55377 0.84686 0.46881 0.0
H3062 H 0.56544 0.93205 0.4126 0.0
H3063 H 0.56595 0.90109 0.42948 0.0
H3064 H 0.5833 0.89501 0.51472 0.0
C3065 C 0.56704 0.83027 0.54051 0.0
C3066 C 0.56033 0.8572 0.47907 0.0
C3067 C 0.5668 0.81238 0.5504 0.0
C3068 C 0.56667 0.92997 0.43329 0.0
C3069 C 0.56687 0.91207 0.44317 0.0
C3070 C 0.57653 0.88484 0.5045 0.0
C3071 C 0.56814 0.83381 0.51354 0.0
C3072 C 0.56819 0.85295 0.50254 0.0
C3073 C 0.5685 0.90844 0.47008 0.0
C3074 C 0.56855 0.88919 0.48109 0.0
H3075 H 0.57014 0.78989 0.49325 0.0
H3076 H 0.57037 0.82059 0.47626 0.0
H3077 H 0.58271 0.86465 0.53285 0.0
H3078 H 0.57107 0.9524 0.49021 0.0
H3079 H 0.57093 0.92188 0.50726 0.0
C3080 C 0.82014 0.55125 0.22512 0.0
C3081 C 0.81877 0.54785 0.19827 0.0
C3082 C 0.82002 0.56893 0.23515 0.0
C3083 C 0.82648 0.61763 0.21754 0.0
H3084 H 0.80417 0.62691 0.28216 0.0
C3085 C 0.81972 0.69135 0.2571 0.0
C3086 C 0.81803 0.69469 0.2839 0.0
C3087 C 0.81987 0.67368 0.24699 0.0
C3088 C 0.81073 0.62472 0.26432 0.0
H3089 H 0.81646 0.56102 0.16101 0.0
H3090 H 0.81642 0.59195 0.1784 0.0
H3091 H 0.8043 0.59662 0.26393 0.0
H3092 H 0.81542 0.68144 0.32106 0.0
H3093 H 0.81607 0.65063 0.30376 0.0
H3094 H 0.83328 0.64551 0.21811 0.0
C3095 C 0.81754 0.58078 0.19182 0.0
C3096 C 0.81074 0.60713 0.25369 0.0
C3097 C 0.81748 0.56295 0.18175 0.0
C3098 C 0.81662 0.67955 0.30033 0.0
C3099 C 0.81691 0.66175 0.29021 0.0
C3100 C 0.82663 0.63518 0.22832 0.0
C3101 C 0.8187 0.58413 0.2188 0.0
C3102 C 0.81857 0.60318 0.23001 0.0
C3103 C 0.81852 0.65836 0.26322 0.0
C3104 C 0.81868 0.63922 0.25194 0.0
H3105 H 0.82129 0.54012 0.23862 0.0
H3106 H 0.82122 0.57067 0.2559 0.0
H3107 H 0.8329 0.61532 0.19958 0.0
H3108 H 0.82082 0.70252 0.24364 0.0
H3109 H 0.82079 0.67217 0.22618 0.0
C3110 C 0.44099 0.5514 0.25795 0.0
C3111 C 0.44305 0.54754 0.28454 0.0
C3112 C 0.44096 0.56926 0.2484 0.0
C3113 C 0.45139 0.6177 0.26651 0.0
H3114 H 0.42867 0.62837 0.20299 0.0
C3115 C 0.45804 0.68839 0.21569 0.0
C3116 C 0.44564 0.6953 0.20007 0.0
C3117 C 0.45744 0.67072 0.22602 0.0
C3118 C 0.435 0.62593 0.22092 0.0
H3119 H 0.44649 0.56009 0.32192 0.0
H3120 H 0.44612 0.59121 0.3056 0.0
H3121 H 0.42753 0.59826 0.22127 0.0
H3122 H 0.42291 0.6884 0.1829 0.0
H3123 H 0.42141 0.65808 0.20154 0.0
H3124 H 0.45829 0.64557 0.26675 0.0
C3125 C 0.44485 0.58035 0.29177 0.0
C3126 C 0.43457 0.60826 0.23136 0.0
C3127 C 0.44497 0.56237 0.30132 0.0
C3128 C 0.43265 0.68374 0.19497 0.0
C3129 C 0.43192 0.66609 0.20557 0.0
C3130 C 0.45171 0.63542 0.25619 0.0
C3131 C 0.44286 0.58426 0.26501 0.0
C3132 C 0.44288 0.6036 0.25431 0.0
C3133 C 0.4443 0.65911 0.22144 0.0
C3134 C 0.44363 0.63999 0.23298 0.0
H3135 H 0.43947 0.54049 0.24422 0.0
H3136 H 0.43972 0.57116 0.22771 0.0
H3137 H 0.45813 0.61507 0.28399 0.0
H3138 H 0.46832 0.69674 0.2201 0.0
H3139 H 0.4675 0.66617 0.23745 0.0
C3140 C 0.19404 0.42978 1.04955 0.0
C3141 C 0.19263 0.445 1.03327 0.0
C3142 C 0.19364 0.41201 1.03927 0.0
C3143 C 0.19878 0.38595 0.97652 0.0
H3144 H 0.17749 0.34738 1.01366 0.0
C3145 C 0.1914 0.31341 0.93027 0.0
C3146 C 0.19091 0.29831 0.94691 0.0
C3147 C 0.19137 0.33126 0.94033 0.0
C3148 C 0.18377 0.35778 1.00297 0.0
H3149 H 0.1895 0.45299 0.99314 0.0
H3150 H 0.18892 0.42256 0.97552 0.0
H3151 H 0.17837 0.37751 1.03233 0.0
H3152 H 0.19013 0.29062 0.98747 0.0
H3153 H 0.19046 0.32099 1.00467 0.0
H3154 H 0.20441 0.36626 0.94734 0.0
C3155 C 0.19052 0.42414 0.99622 0.0
C3156 C 0.18423 0.37529 1.01384 0.0
C3157 C 0.19077 0.44177 1.00646 0.0
C3158 C 0.19045 0.30174 0.97382 0.0
C3159 C 0.19048 0.31943 0.98382 0.0
C3160 C 0.19845 0.3684 0.96574 0.0
C3161 C 0.19198 0.40882 1.01231 0.0
C3162 C 0.19172 0.38981 1.00087 0.0
C3163 C 0.19089 0.33469 0.96742 0.0
C3164 C 0.19096 0.35383 0.9787 0.0
H3165 H 0.19543 0.43158 1.07026 0.0
H3166 H 0.19491 0.40076 1.05251 0.0
H3167 H 0.20489 0.39649 0.96582 0.0
H3168 H 0.19173 0.31146 0.90947 0.0
H3169 H 0.1915 0.34237 0.9267 0.0
C3170 C 0.56158 0.31254 1.05151 0.0
C3171 C 0.569 0.29851 1.03749 0.0
C3172 C 0.56139 0.33048 1.04186 0.0
C3173 C 0.58218 0.36208 0.99527 0.0
H3174 H 0.54294 0.38971 0.99853 0.0
C3175 C 0.57717 0.43295 0.94357 0.0
C3176 C 0.56589 0.44569 0.95242 0.0
C3177 C 0.57777 0.41527 0.95408 0.0
C3178 C 0.5542 0.38255 0.99772 0.0
H3179 H 0.58238 0.29284 1.00239 0.0
H3180 H 0.5825 0.32383 0.98616 0.0
H3181 H 0.54388 0.35959 1.01722 0.0
H3182 H 0.54663 0.44953 0.98001 0.0
H3183 H 0.54795 0.41948 0.99877 0.0
H3184 H 0.59273 0.38506 0.9765 0.0
C3185 C 0.57664 0.32108 1.0045 0.0
C3186 C 0.55468 0.36499 1.00851 0.0
C3187 C 0.5765 0.30315 1.01383 0.0
C3188 C 0.55537 0.44014 0.97231 0.0
C3189 C 0.55609 0.42261 0.98306 0.0
C3190 C 0.58181 0.37977 0.98488 0.0
C3191 C 0.56894 0.33512 1.01813 0.0
C3192 C 0.56863 0.35431 1.00738 0.0
C3193 C 0.56723 0.40961 0.97415 0.0
C3194 C 0.56777 0.39048 0.98567 0.0
H3195 H 0.55565 0.3096 1.06974 0.0
H3196 H 0.55543 0.34079 1.05317 0.0
H3197 H 0.59326 0.35454 0.99415 0.0
H3198 H 0.58552 0.43662 0.92834 0.0
H3199 H 0.58645 0.406 0.94603 0.0
C3200 C 0.25874 0.93176 1.0565 0.0
C3201 C 0.2648 0.92721 1.081 0.0
C3202 C 0.24752 0.9207 1.04442 0.0
C3203 C 0.21548 0.89074 1.06611 0.0
H3204 H 0.20315 0.89846 0.99464 0.0
C3205 C 0.15763 0.90713 0.99655 0.0
C3206 C 0.15063 0.91912 1.01441 0.0
C3207 C 0.17099 0.89684 1.00356 0.0
C3208 C 0.20633 0.89557 1.01455 0.0
H3209 H 0.26539 0.90635 1.11054 0.0
H3210 H 0.24623 0.88671 1.08902 0.0
H3211 H 0.23107 0.90045 1.00655 0.0
H3212 H 0.1506 0.92775 1.0545 0.0
H3213 H 0.17403 0.91061 1.06649 0.0
H3214 H 0.19072 0.8861 1.07417 0.0
C3215 C 0.24972 0.89913 1.07949 0.0
C3216 C 0.22243 0.897 1.02146 0.0
C3217 C 0.26087 0.91032 1.09172 0.0
C3218 C 0.156 0.91898 1.04015 0.0
C3219 C 0.16939 0.90886 1.04709 0.0
C3220 C 0.19943 0.88892 1.0591 0.0
C3221 C 0.2422 0.9047 1.05645 0.0
C3222 C 0.22698 0.89619 1.04767 0.0
C3223 C 0.17766 0.8985 1.02848 0.0
C3224 C 0.19449 0.89292 1.03369 0.0
H3225 H 0.26183 0.9445 1.04745 0.0
H3226 H 0.24207 0.92562 1.02675 0.0
H3227 H 0.21844 0.8897 1.08647 0.0
H3228 H 0.1537 0.90681 0.97657 0.0
H3229 H 0.17677 0.88864 0.98891 0.0
C3230 C 0.10912 0.31602 1.05734 0.0
C3231 C 0.11624 0.3174 1.03275 0.0
C3232 C 0.0963 0.32713 1.06406 0.0
C3233 C 0.0631 0.34738 1.02915 0.0
H3234 H 0.04724 0.34961 1.09969 0.0
C3235 C 1.00387 0.33266 1.09698 0.0
C3236 C 0.99971 0.31678 1.08372 0.0
C3237 C 0.01603 0.34385 1.08746 0.0
C3238 C 0.05131 0.34966 1.07974 0.0
H3239 H 0.11688 0.33307 0.99717 0.0
H3240 H 0.09476 0.35283 1.00919 0.0
H3241 H 0.07575 0.3507 1.0917 0.0
H3242 H 1.00332 0.30166 1.04828 0.0
H3243 H 0.0248 0.32051 1.03222 0.0
H3244 H 0.03865 0.34591 1.01724 0.0
C3245 C 0.09878 0.34282 1.02304 0.0
C3246 C 0.06779 0.35005 1.0752 0.0
C3247 C 0.11159 0.33159 1.01626 0.0
C3248 C 0.00655 0.31355 1.05927 0.0
C3249 C 0.01878 0.3246 1.04988 0.0
C3250 C 0.04659 0.34734 1.03365 0.0
C3251 C 0.09035 0.33997 1.04635 0.0
C3252 C 0.07387 0.34724 1.05009 0.0
C3253 C 0.02437 0.33926 1.06465 0.0
C3254 C 0.04057 0.34683 1.05915 0.0
H3255 H 0.11266 0.30543 1.07065 0.0
H3256 H 0.09019 0.32439 1.08219 0.0
H3257 H 0.06725 0.34552 1.00942 0.0
H3258 H 0.99875 0.33564 0.11582 0.0
H3259 H 0.0197 0.3553 1.099 0.0
C3260 C 0.25799 0.31042 0.43287 0.0
C3261 C 0.26425 0.31509 0.40846 0.0
C3262 C 0.24722 0.32183 0.44549 0.0
C3263 C 0.22302 0.34628 0.46964 0.0
H3264 H 0.19172 0.35918 0.4176 0.0
C3265 C 0.15806 0.33594 0.49364 0.0
C3266 C 0.15127 0.32441 0.47505 0.0
C3267 C 0.17147 0.34644 0.48738 0.0
C3268 C 0.20033 0.35582 0.4325 0.0
H3269 H 0.26565 0.3364 0.37967 0.0
H3270 H 0.24724 0.3566 0.40211 0.0
H3271 H 0.21938 0.35505 0.405 0.0
H3272 H 0.15171 0.31671 0.4346 0.0
H3273 H 0.17511 0.33435 0.42378 0.0
H3274 H 0.20362 0.34483 0.49649 0.0
C3275 C 0.25025 0.34385 0.41115 0.0
C3276 C 0.21635 0.35368 0.42533 0.0
C3277 C 0.26095 0.33233 0.39838 0.0
C3278 C 0.15691 0.3252 0.44944 0.0
C3279 C 0.17029 0.33559 0.4432 0.0
C3280 C 0.20693 0.34804 0.4767 0.0
C3281 C 0.24253 0.33829 0.43413 0.0
C3282 C 0.22765 0.34739 0.44343 0.0
C3283 C 0.17834 0.34551 0.46245 0.0
C3284 C 0.19521 0.35128 0.45769 0.0
H3285 H 0.26059 0.2974 0.44144 0.0
H3286 H 0.24159 0.31689 0.46306 0.0
H3287 H 0.23154 0.34226 0.48435 0.0
H3288 H 0.15391 0.33571 0.51357 0.0
H3289 H 0.1771 0.35423 0.50256 0.0
C3290 C 0.01081 0.93047 0.41795 0.0
C3291 C 1.00476 0.92669 0.3932 0.0
C3292 C 0.02237 0.91935 0.42905 0.0
C3293 C 0.05523 0.89145 0.40527 0.0
H3294 H 0.06702 0.89668 0.47739 0.0
C3295 C 0.11185 0.90843 0.47679 0.0
C3296 C 0.11838 0.92137 0.45979 0.0
C3297 C 0.09913 0.8975 0.46885 0.0
C3298 C 0.06403 0.89448 0.45724 0.0
H3299 H 1.00469 0.90714 0.36197 0.0
H3300 H 0.02459 0.88738 0.38171 0.0
H3301 H 0.03912 0.89795 0.46532 0.0
H3302 H 0.11841 0.93104 0.42015 0.0
H3303 H 0.09601 0.91282 0.40661 0.0
H3304 H 0.08015 0.88817 0.39715 0.0
C3305 C 0.02074 0.89924 0.39225 0.0
C3306 C 0.04792 0.89551 0.45026 0.0
C3307 C 0.00921 0.91048 0.38103 0.0
C3308 C 0.11332 0.92154 0.43388 0.0
C3309 C 0.10054 0.9108 0.42603 0.0
C3310 C 0.0713 0.89 0.41232 0.0
C3311 C 0.02811 0.90406 0.41575 0.0
C3312 C 0.0435 0.89567 0.42397 0.0
C3313 C 0.09259 0.89947 0.44389 0.0
C3314 C 0.07602 0.8932 0.43806 0.0
H3315 H 0.00734 0.94267 0.42805 0.0
H3316 H 0.02771 0.92371 0.44708 0.0
H3317 H 0.05237 0.89115 0.38482 0.0
H3318 H 0.11556 0.90782 0.49688 0.0
H3319 H 0.09365 0.88855 0.48293 0.0
C3320 C 0.86557 0.08122 0.21195 0.0
C3321 C 0.8704 0.06595 0.19776 0.0
C3322 C 0.85365 0.09265 0.20231 0.0
C3323 C 0.82551 0.09819 0.14587 0.0
H3324 H 0.7937 0.09894 0.2007 0.0
C3325 C 0.76184 0.08212 0.11983 0.0
C3326 C 0.75648 0.06745 0.13483 0.0
C3327 C 0.77416 0.09323 0.12887 0.0
C3328 C 0.80242 0.099 0.1851 0.0
H3329 H 0.86823 0.05215 0.16098 0.0
H3330 H 0.84724 0.07144 0.14457 0.0
H3331 H 0.82181 0.09785 0.21176 0.0
H3332 H 0.75821 0.05441 0.17233 0.0
H3333 H 0.7799 0.07308 0.1877 0.0
H3334 H 0.80611 0.097 0.11929 0.0
C3335 C 0.85254 0.07488 0.16304 0.0
C3336 C 0.81866 0.09863 0.19144 0.0
C3337 C 0.86448 0.06358 0.17258 0.0
C3338 C 0.76237 0.06536 0.1601 0.0
C3339 C 0.77471 0.07633 0.16905 0.0
C3340 C 0.80928 0.09817 0.13955 0.0
C3341 C 0.84628 0.08893 0.17842 0.0
C3342 C 0.83034 0.0967 0.17188 0.0
C3343 C 0.7814 0.08976 0.15297 0.0
C3344 C 0.79756 0.09708 0.15917 0.0
H3345 H 0.86997 0.08349 0.2314 0.0
H3346 H 0.84942 0.10359 0.21442 0.0
H3347 H 0.83422 0.09749 0.1303 0.0
H3348 H 0.75746 0.08417 1.1003 0.0
H3349 H 0.77874 0.1037 0.11621 0.0
C3350 C 0.01057 0.65989 0.1471 0.0
C3351 C 0.01404 0.67713 0.15693 0.0
C3352 C 0.99969 0.6486 0.15996 0.0
C3353 C 0.96562 0.63946 0.17389 0.0
H3354 H 0.95269 0.6488 0.24478 0.0
C3355 C 0.90614 0.66842 0.19714 0.0
C3356 C 0.90039 0.66922 0.22268 0.0
C3357 C 0.91954 0.65802 0.19113 0.0
C3358 C 0.95605 0.64546 0.22507 0.0
H3359 H 0.01054 0.69501 0.18963 0.0
H3360 H 0.99124 0.67594 0.2114 0.0
H3361 H 0.98068 0.65092 0.23292 0.0
H3362 H 0.90289 0.658 0.26133 0.0
H3363 H 0.92615 0.63952 0.25076 0.0
H3364 H 0.94097 0.63427 0.16596 0.0
C3365 C 0.99686 0.67083 0.19396 0.0
C3366 C 0.97219 0.64696 0.21817 0.0
C3367 C 0.0078 0.68199 0.18124 0.0
C3368 C 0.90712 0.65774 0.24145 0.0
C3369 C 0.92056 0.64725 0.23543 0.0
C3370 C 0.94954 0.63758 0.18091 0.0
C3371 C 0.99197 0.6544 0.18278 0.0
C3372 C 0.97691 0.64563 0.19203 0.0
C3373 C 0.92752 0.64812 0.21056 0.0
C3374 C 0.94438 0.64226 0.20599 0.0
H3375 H 0.01524 0.65566 0.12846 0.0
H3376 H 0.99654 0.63587 0.15109 0.0
H3377 H 0.96872 0.63795 0.15362 0.0
H3378 H 0.901 0.6769 0.18218 0.0
H3379 H 0.92445 0.65922 0.17175 0.0
C3380 C 0.85939 0.66164 0.76196 0.0
C3381 C 0.86449 0.67581 0.77809 0.0
C3382 C 0.84661 0.65059 0.7694 0.0
C3383 C 0.8111 0.64584 0.77706 0.0
H3384 H 0.79627 0.64385 0.84821 0.0
C3385 C 0.75426 0.6784 0.80849 0.0
C3386 C 0.74785 0.67518 0.83326 0.0
C3387 C 0.7666 0.66762 0.79889 0.0
C3388 C 0.80007 0.64372 0.82812 0.0
H3389 H 0.86161 0.68789 0.81603 0.0
H3390 H 0.83905 0.66936 0.82858 0.0
H3391 H 0.82469 0.64328 0.83919 0.0
H3392 H 0.74774 0.65656 0.86579 0.0
H3393 H 0.76887 0.63734 0.84861 0.0
H3394 H 0.78647 0.64665 0.76602 0.0
C3395 C 0.84486 0.66649 0.81025 0.0
C3396 C 0.81648 0.64366 0.82298 0.0
C3397 C 0.85771 0.67739 0.80291 0.0
C3398 C 0.75252 0.65952 0.8467 0.0
C3399 C 0.76478 0.64859 0.83696 0.0
C3400 C 0.79467 0.64555 0.78217 0.0
C3401 C 0.83856 0.65362 0.793 0.0
C3402 C 0.82217 0.64634 0.79758 0.0
C3403 C 0.77271 0.65324 0.81377 0.0
C3404 C 0.789 0.64609 0.80786 0.0
H3405 H 0.86438 0.65997 0.74269 0.0
H3406 H 0.84234 0.64054 0.75588 0.0
H3407 H 0.81493 0.64762 0.75714 0.0
H3408 H 0.75062 0.69012 0.7974 0.0
H3409 H 0.77228 0.67173 0.78094 0.0
C3410 C 0.90152 0.07396 0.79399 0.0
C3411 C 0.89712 0.07393 0.76777 0.0
C3412 C 0.9143 0.08447 0.8024 0.0
C3413 C 0.94348 0.10489 0.81756 0.0
H3414 H 0.97697 0.09511 0.76739 0.0
C3415 C 1.00451 0.0841 0.854 0.0
C3416 C 0.00897 0.06748 0.84303 0.0
C3417 C 0.99337 0.09521 0.84153 0.0
C3418 C 0.9678 0.09809 0.78165 0.0
H3419 H 0.90119 0.08682 0.7305 0.0
H3420 H 0.92322 0.10559 0.74534 0.0
H3421 H 0.94947 0.09682 0.75316 0.0
H3422 H 0.00678 0.0505 0.80911 0.0
H3423 H 0.98712 0.0693 0.78785 0.0
H3424 H 0.96161 0.10388 0.84649 0.0
C3425 C 0.91714 0.09706 0.75931 0.0
C3426 C 0.95194 0.09936 0.77342 0.0
C3427 C 0.90438 0.0864 0.75083 0.0
C3428 C 1.00332 0.06306 0.81827 0.0
C3429 C 0.99217 0.07406 0.80589 0.0
C3430 C 0.95931 0.10323 0.82587 0.0
C3431 C 0.92294 0.09533 0.78479 0.0
C3432 C 0.93945 0.1013 0.79162 0.0
C3433 C 0.98645 0.08985 0.81792 0.0
C3434 C 0.97146 0.09838 0.80824 0.0
H3435 H 0.89587 0.06479 0.80762 0.0
H3436 H 0.91828 0.08263 0.82219 0.0
H3437 H 0.93425 0.10722 0.83197 0.0
H3438 H 0.00872 0.08792 0.87306 0.0
H3439 H 0.98948 0.10743 0.85114 0.0
C3440 C 0.26015 0.40929 0.58849 0.0
C3441 C 0.2642 0.42616 0.57779 0.0
C3442 C 0.24906 0.39811 0.57612 0.0
C3443 C 0.22217 0.39589 0.51753 0.0
H3444 H 0.19009 0.38513 0.56971 0.0
C3445 C 0.15617 0.41915 0.53606 0.0
C3446 C 0.15074 0.41952 0.51037 0.0
C3447 C 0.16936 0.40867 0.54285 0.0
C3448 C 0.19891 0.3879 0.55478 0.0
H3449 H 0.26142 0.44341 0.54415 0.0
H3450 H 0.24175 0.42453 0.52321 0.0
H3451 H 0.21775 0.38849 0.58245 0.0
H3452 H 0.15355 0.40742 0.47236 0.0
H3453 H 0.1764 0.38873 0.48436 0.0
H3454 H 0.20303 0.39751 0.49042 0.0
C3455 C 0.24709 0.41964 0.54097 0.0
C3456 C 0.21492 0.38959 0.56204 0.0
C3457 C 0.25824 0.4307 0.55321 0.0
C3458 C 0.15754 0.40752 0.49232 0.0
C3459 C 0.17075 0.39692 0.49915 0.0
C3460 C 0.20609 0.39459 0.51037 0.0
C3461 C 0.24169 0.40363 0.55291 0.0
C3462 C 0.22655 0.39507 0.54383 0.0
C3463 C 0.17742 0.3982 0.52411 0.0
C3464 C 0.19413 0.39211 0.52935 0.0
H3465 H 0.26459 0.40532 0.60737 0.0
H3466 H 0.24551 0.38569 0.58561 0.0
H3467 H 0.23091 0.39929 0.50277 0.0
H3468 H 0.15096 0.428 0.5505 0.0
H3469 H 0.17404 0.41019 0.56227 0.0
C3470 C 0.11177 0.83509 0.50739 0.0
C3471 C 0.11826 0.82223 0.52447 0.0
C3472 C 0.099 0.84603 0.51527 0.0
C3473 C 0.07096 0.85366 0.57183 0.0
H3474 H 0.03897 0.84545 0.51898 0.0
C3475 C 0.01068 0.81287 0.56659 0.0
C3476 C 1.00459 0.8166 0.5914 0.0
C3477 C 0.02219 0.82406 0.55538 0.0
C3478 C 0.04771 0.84797 0.534 0.0
H3479 H 0.11816 0.8127 0.56419 0.0
H3480 H 0.09569 0.83092 0.57764 0.0
H3481 H 0.0669 0.84678 0.50681 0.0
H3482 H 1.00436 0.83617 0.6226 0.0
H3483 H 0.02417 0.85607 0.60267 0.0
H3484 H 0.05194 0.85252 0.5994 0.0
C3485 C 0.10028 0.83288 0.55819 0.0
C3486 C 0.06384 0.84902 0.52695 0.0
C3487 C 0.11311 0.82214 0.5504 0.0
C3488 C 0.00892 0.83285 0.60351 0.0
C3489 C 0.0204 0.84418 0.59217 0.0
C3490 C 0.05486 0.85217 0.57894 0.0
C3491 C 0.09237 0.84413 0.54027 0.0
C3492 C 0.07577 0.85039 0.54609 0.0
C3493 C 0.02783 0.83938 0.56863 0.0
C3494 C 0.04321 0.84785 0.5603 0.0
H3495 H 0.11555 0.83563 0.48729 0.0
H3496 H 0.09355 0.85491 0.50114 0.0
H3497 H 0.07975 0.85557 0.58695 0.0
H3498 H 0.0073 0.80064 0.55653 0.0
H3499 H 0.02758 0.81972 0.53732 0.0
C3500 C 0.24986 0.81167 0.91215 0.0
C3501 C 0.25604 0.81535 0.88736 0.0
C3502 C 0.23818 0.82277 0.92302 0.0
C3503 C 0.20535 0.85053 0.89885 0.0
H3504 H 0.19334 0.8459 0.97113 0.0
C3505 C 0.14843 0.83451 0.97101 0.0
C3506 C 0.14185 0.82152 0.95429 0.0
C3507 C 0.16124 0.84528 0.96279 0.0
C3508 C 0.1964 0.84792 0.95092 0.0
H3509 H 0.25617 0.83472 0.85579 0.0
H3510 H 0.23605 0.85445 0.87512 0.0
H3511 H 0.22127 0.84435 0.95895 0.0
H3512 H 0.14183 0.81161 0.91482 0.0
H3513 H 0.16437 0.82955 0.90081 0.0
H3514 H 0.18047 0.85392 0.89078 0.0
C3515 C 0.2399 0.84268 0.88587 0.0
C3516 C 0.21252 0.84674 0.94389 0.0
C3517 C 0.25156 0.83145 0.87489 0.0
C3518 C 0.14694 0.82116 0.92835 0.0
C3519 C 0.15982 0.83173 0.92022 0.0
C3520 C 0.18926 0.85213 0.90595 0.0
C3521 C 0.23244 0.83795 0.90945 0.0
C3522 C 0.21701 0.84638 0.91758 0.0
C3523 C 0.16782 0.84309 0.93782 0.0
C3524 C 0.18446 0.84916 0.93178 0.0
H3525 H 0.25335 0.79957 0.9225 0.0
H3526 H 0.23276 0.81849 0.94112 0.0
H3527 H 0.20827 0.85067 0.87838 0.0
H3528 H 0.14469 0.83526 0.99111 0.0
H3529 H 0.16675 0.85428 0.97666 0.0
C3530 C 0.10608 0.42041 0.94321 0.0
C3531 C 0.11173 0.42028 0.96879 0.0
C3532 C 0.0929 0.40999 0.93632 0.0
C3533 C 0.06333 0.38918 0.92448 0.0
H3534 H 0.03181 0.39963 0.97764 0.0
C3535 C 1.00155 0.40996 0.89291 0.0
C3536 C 0.99754 0.42674 0.90384 0.0
C3537 C 0.01282 0.39877 0.90491 0.0
C3538 C 0.04042 0.39647 0.96257 0.0
H3539 H 0.10937 0.40731 1.00635 0.0
H3540 H 0.08657 0.38865 0.99412 0.0
H3541 H 0.05984 0.39804 0.98912 0.0
H3542 H 1.00052 0.44379 0.93754 0.0
H3543 H 0.02047 0.4249 0.95786 0.0
H3544 H 0.04416 0.38985 0.8974 0.0
C3545 C 0.09202 0.39724 0.97955 0.0
C3546 C 0.05658 0.39527 0.96923 0.0
C3547 C 0.10521 0.40781 0.98649 0.0
C3548 C 1.00366 0.43114 0.92834 0.0
C3549 C 0.01499 0.42008 0.9402 0.0
C3550 C 0.04722 0.39075 0.91774 0.0
C3551 C 0.08508 0.39907 0.95484 0.0
C3552 C 0.06834 0.39307 0.94987 0.0
C3553 C 0.02039 0.40423 0.92794 0.0
C3554 C 0.03574 0.39583 0.93641 0.0
H3555 H 0.11109 0.42964 0.92902 0.0
H3556 H 0.08801 0.4119 0.9171 0.0
H3557 H 0.07201 0.38671 0.90925 0.0
H3558 H 0.99699 0.4061 0.87409 0.0
H3559 H 0.01637 0.38646 0.89522 0.0
C3560 C 0.75865 0.58125 0.63163 0.0
C3561 C 0.7548 0.56453 0.64295 0.0
C3562 C 0.76985 0.59264 0.64333 0.0
C3563 C 0.80407 0.60168 0.65665 0.0
H3564 H 0.81613 0.59507 0.72846 0.0
C3565 C 0.86324 0.57364 0.6838 0.0
C3566 C 0.86819 0.5732 0.70976 0.0
C3567 C 0.85014 0.58408 0.67644 0.0
C3568 C 0.81304 0.59767 0.70844 0.0
H3569 H 0.75812 0.54766 0.67684 0.0
H3570 H 0.77793 0.56691 0.69668 0.0
H3571 H 0.7883 0.5927 0.71632 0.0
H3572 H 0.86487 0.58553 0.74753 0.0
H3573 H 0.84242 0.60436 0.73446 0.0
H3574 H 0.82883 0.60646 0.64872 0.0
C3575 C 0.77235 0.57155 0.67896 0.0
C3576 C 0.79698 0.59601 0.7014 0.0
C3577 C 0.76112 0.56028 0.66738 0.0
C3578 C 0.86124 0.58539 0.72739 0.0
C3579 C 0.84821 0.59605 0.71995 0.0
C3580 C 0.82008 0.60376 0.66378 0.0
C3581 C 0.77748 0.58747 0.66649 0.0
C3582 C 0.79255 0.59636 0.67512 0.0
C3583 C 0.84177 0.59451 0.69486 0.0
C3584 C 0.82495 0.6001 0.68935 0.0
H3585 H 0.7539 0.58496 0.61284 0.0
H3586 H 0.77324 0.60497 0.63343 0.0
H3587 H 0.80118 0.6024 0.63624 0.0
H3588 H 0.86864 0.56474 0.6696 0.0
H3589 H 0.84572 0.58245 0.65689 0.0
C3590 C 1.00305 0.16049 0.6303 0.0
C3591 C 0.00695 0.17715 0.64166 0.0
C3592 C 0.99147 0.14932 0.64166 0.0
C3593 C 0.95691 0.14083 0.65418 0.0
H3594 H 0.94429 0.1468 0.72596 0.0
C3595 C 0.89766 0.16897 0.68132 0.0
C3596 C 0.89258 0.16919 0.70728 0.0
C3597 C 0.91072 0.15847 0.67384 0.0
C3598 C 0.94753 0.14439 0.70593 0.0
H3599 H 1.0032 0.19415 0.67523 0.0
H3600 H 0.98279 0.17522 0.69454 0.0
H3601 H 0.97222 0.14917 0.71412 0.0
H3602 H 0.89559 0.15643 0.74486 0.0
H3603 H 0.91799 0.13761 0.7316 0.0
H3604 H 0.9322 0.13631 0.64592 0.0
C3605 C 0.98862 0.17049 0.67705 0.0
C3606 C 0.96365 0.14604 0.69908 0.0
C3607 C 1.00021 0.18157 0.66578 0.0
C3608 C 0.89931 0.15674 0.72473 0.0
C3609 C 0.91231 0.14605 0.71717 0.0
C3610 C 0.94083 0.1388 0.66111 0.0
C3611 C 0.98354 0.15463 0.66453 0.0
C3612 C 0.9683 0.14588 0.67286 0.0
C3613 C 0.91893 0.1478 0.69214 0.0
C3614 C 0.93576 0.14221 0.68668 0.0
H3615 H 0.00808 0.15667 0.61172 0.0
H3616 H 0.98808 0.13705 0.63173 0.0
H3617 H 0.96 0.14028 0.63379 0.0
H3618 H 0.89242 0.17809 0.66727 0.0
H3619 H 0.91527 0.16026 0.65433 0.0
C3620 C 0.75412 0.18438 0.30024 0.0
C3621 C 0.74752 0.17927 0.32421 0.0
C3622 C 0.7653 0.17338 0.28786 0.0
C3623 C 0.79067 0.15009 0.26471 0.0
H3624 H 0.82066 0.13644 0.31839 0.0
C3625 C 0.85611 0.16065 0.24505 0.0
C3626 C 0.86277 0.17156 0.26455 0.0
C3627 C 0.84253 0.15018 0.25019 0.0
C3628 C 0.81245 0.14007 0.30304 0.0
H3629 H 0.74582 0.15749 0.35224 0.0
H3630 H 0.76489 0.13794 0.3301 0.0
H3631 H 0.79267 0.14004 0.32918 0.0
H3632 H 0.86189 0.17791 0.30551 0.0
H3633 H 0.838 0.16059 0.31424 0.0
H3634 H 0.81074 0.15238 0.23936 0.0
C3635 C 0.76189 0.15077 0.32131 0.0
C3636 C 0.79623 0.14188 0.30914 0.0
C3637 C 0.7508 0.16191 0.33388 0.0
C3638 C 0.85677 0.17005 0.28991 0.0
C3639 C 0.84311 0.15981 0.29497 0.0
C3640 C 0.80695 0.1487 0.25876 0.0
C3641 C 0.77004 0.15687 0.29902 0.0
C3642 C 0.78534 0.14831 0.29049 0.0
C3643 C 0.83522 0.15063 0.27481 0.0
C3644 C 0.81819 0.14509 0.2784 0.0
H3645 H 0.75152 0.1975 0.29197 0.0
H3646 H 0.77122 0.17871 0.27078 0.0
H3647 H 0.78252 0.15427 0.24956 0.0
H3648 H 0.86051 0.16135 0.22529 0.0
H3649 H 0.83709 0.14284 0.23436 0.0
C3650 C 0.90559 0.58643 0.24664 0.0
C3651 C 0.8985 0.57426 0.2642 0.0
C3652 C 0.91848 0.59719 0.25437 0.0
C3653 C 0.94536 0.60596 0.31168 0.0
H3654 H 0.97838 0.59418 0.26159 0.0
C3655 C 0.00595 0.58375 0.34834 0.0
C3656 C 0.00981 0.56672 0.3381 0.0
C3657 C 0.99509 0.59501 0.33551 0.0
C3658 C 0.96934 0.59774 0.2758 0.0
H3659 H 0.89776 0.56565 0.30431 0.0
H3660 H 0.92027 0.58378 0.31768 0.0
H3661 H 0.95084 0.5965 0.24757 0.0
H3662 H 0.00682 0.54906 0.30507 0.0
H3663 H 0.98765 0.56819 0.2832 0.0
H3664 H 0.96359 0.60498 0.34044 0.0
C3665 C 0.91608 0.58531 0.29796 0.0
C3666 C 0.95347 0.59934 0.26769 0.0
C3667 C 0.90322 0.57465 0.29026 0.0
C3668 C 1.00382 0.56195 0.31368 0.0
C3669 C 0.99297 0.57313 0.30093 0.0
C3670 C 0.96118 0.60401 0.31988 0.0
C3671 C 0.92454 0.59589 0.27975 0.0
C3672 C 0.94112 0.60191 0.28596 0.0
C3673 C 0.98786 0.58943 0.31226 0.0
C3674 C 0.97312 0.59839 0.30234 0.0
H3675 H 0.90214 0.58651 0.22641 0.0
H3676 H 0.92445 0.60543 0.23993 0.0
H3677 H 0.93624 0.60878 0.32609 0.0
H3678 H 0.01043 0.58784 0.36712 0.0
H3679 H 0.99165 0.6076 0.34459 0.0
C3680 C 0.75288 0.93001 0.56788 0.0
C3681 C 0.75868 0.92552 0.59255 0.0
C3682 C 0.74172 0.919 0.55562 0.0
C3683 C 0.70909 0.88961 0.57601 0.0
H3684 H 0.69877 0.89626 0.50348 0.0
C3685 C 0.65361 0.90673 0.50208 0.0
C3686 C 0.64657 0.91924 0.51911 0.0
C3687 C 0.66643 0.89604 0.51027 0.0
C3688 C 0.70137 0.89367 0.52369 0.0
H3689 H 0.75869 0.90495 0.62251 0.0
H3690 H 0.73943 0.88543 0.6008 0.0
H3691 H 0.72637 0.89799 0.51727 0.0
H3692 H 0.64582 0.92854 0.55885 0.0
H3693 H 0.66824 0.9105 0.57302 0.0
H3694 H 0.68407 0.8856 0.58252 0.0
C3695 C 0.74321 0.89771 0.59117 0.0
C3696 C 0.71729 0.89494 0.53167 0.0
C3697 C 0.75436 0.90883 0.60353 0.0
C3698 C 0.65124 0.91926 0.5452 0.0
C3699 C 0.66406 0.90866 0.55336 0.0
C3700 C 0.69321 0.88796 0.56796 0.0
C3701 C 0.73613 0.90312 0.56768 0.0
C3702 C 0.72112 0.89457 0.5582 0.0
C3703 C 0.67248 0.89773 0.53561 0.0
C3704 C 0.689 0.89166 0.5421 0.0
H3705 H 0.75624 0.94262 0.55871 0.0
H3706 H 0.73655 0.9238 0.53766 0.0
H3707 H 0.71152 0.8889 0.59659 0.0
H3708 H 0.65019 0.90635 0.48184 0.0
H3709 H 0.67238 0.88753 0.49619 0.0
C3710 C 0.50651 0.30983 0.55577 0.0
C3711 C 0.49961 0.31435 0.57975 0.0
C3712 C 0.51838 0.3207 0.54485 0.0
C3713 C 0.55017 0.34925 0.57014 0.0
H3714 H 0.5652 0.34204 0.49982 0.0
C3715 C 0.60977 0.31913 0.54878 0.0
C3716 C 0.61612 0.31927 0.52356 0.0
C3717 C 0.59644 0.32963 0.5549 0.0
C3718 C 0.56128 0.34479 0.51945 0.0
H3719 H 0.49824 0.33502 0.60939 0.0
H3720 H 0.51858 0.35433 0.58988 0.0
H3721 H 0.53679 0.34094 0.50897 0.0
H3722 H 0.61488 0.33245 0.48599 0.0
H3723 H 0.59198 0.35128 0.49696 0.0
H3724 H 0.57468 0.35276 0.5807 0.0
C3725 C 0.51521 0.34208 0.5799 0.0
C3726 C 0.5449 0.34388 0.52475 0.0
C3727 C 0.5034 0.33108 0.59096 0.0
C3728 C 0.6102 0.3319 0.50559 0.0
C3729 C 0.59693 0.34257 0.51179 0.0
C3730 C 0.56653 0.35053 0.56475 0.0
C3731 C 0.52354 0.33646 0.55756 0.0
C3732 C 0.5393 0.34453 0.55048 0.0
C3733 C 0.58923 0.34066 0.53596 0.0
C3734 C 0.57238 0.34672 0.53975 0.0
H3735 H 0.50358 0.29721 0.54637 0.0
H3736 H 0.52444 0.31578 0.52768 0.0
H3737 H 0.5464 0.35011 0.5902 0.0
H3738 H 0.61432 0.30984 0.56323 0.0
H3739 H 0.59098 0.32768 0.57376 0.0
C3740 C 0.76193 0.33308 0.89558 0.0
C3741 C 0.76574 0.31604 0.90592 0.0
C3742 C 0.7509 0.34427 0.90819 0.0
C3743 C 0.7236 0.34605 0.96661 0.0
H3744 H 0.69202 0.3579 0.91446 0.0
C3745 C 0.6587 0.33562 0.99147 0.0
C3746 C 0.65169 0.32402 0.97317 0.0
C3747 C 0.67212 0.34596 0.98482 0.0
C3748 C 0.7007 0.3548 0.92938 0.0
H3749 H 0.76266 0.29849 0.93919 0.0
H3750 H 0.74308 0.31738 0.96052 0.0
H3751 H 0.71973 0.35426 0.90184 0.0
H3752 H 0.65176 0.31614 0.93277 0.0
H3753 H 0.67527 0.33341 0.92134 0.0
H3754 H 0.70426 0.34436 0.99353 0.0
C3755 C 0.74855 0.3224 0.94288 0.0
C3756 C 0.71674 0.35296 0.9222 0.0
C3757 C 0.75966 0.31134 0.93042 0.0
C3758 C 0.65715 0.32462 0.94743 0.0
C3759 C 0.67058 0.33481 0.94083 0.0
C3760 C 0.70749 0.3475 0.97368 0.0
C3761 C 0.74334 0.33857 0.93123 0.0
C3762 C 0.72819 0.34716 0.94038 0.0
C3763 C 0.67883 0.34478 0.9598 0.0
C3764 C 0.69569 0.35044 0.95469 0.0
H3765 H 0.76647 0.33718 0.87678 0.0
H3766 H 0.7475 0.35683 0.89896 0.0
H3767 H 0.7322 0.34236 0.98136 0.0
H3768 H 0.6547 0.33557 1.01148 0.0
H3769 H 0.67789 0.35381 0.99979 0.0
C3770 C 0.5054 0.90983 0.88376 0.0
C3771 C 0.50037 0.92507 0.89781 0.0
C3772 C 0.51796 0.8991 0.8929 0.0
C3773 C 0.54784 0.89557 0.9473 0.0
H3774 H 0.57799 0.89489 0.89004 0.0
C3775 C 0.61031 0.92896 0.92759 0.0
C3776 C 0.61708 0.92691 0.95226 0.0
C3777 C 0.59771 0.91791 0.91981 0.0
C3778 C 0.56975 0.8948 0.9063 0.0
H3779 H 0.50294 0.93945 0.93407 0.0
H3780 H 0.52509 0.92142 0.94951 0.0
H3781 H 0.54958 0.89528 0.88121 0.0
H3782 H 0.61736 0.91017 0.98684 0.0
H3783 H 0.59565 0.89052 0.97294 0.0
H3784 H 0.56805 0.89732 0.97228 0.0
C3785 C 0.51945 0.91748 0.93153 0.0
C3786 C 0.55334 0.89478 0.90126 0.0
C3787 C 0.50683 0.92806 0.92252 0.0
C3788 C 0.61232 0.91217 0.96772 0.0
C3789 C 0.59975 0.90101 0.95986 0.0
C3790 C 0.56426 0.89593 0.95232 0.0
C3791 C 0.52582 0.90353 0.91612 0.0
C3792 C 0.54221 0.89658 0.92167 0.0
C3793 C 0.59165 0.90445 0.9365 0.0
C3794 C 0.57536 0.897 0.93176 0.0
H3795 H 0.50062 0.90705 0.86469 0.0
H3796 H 0.52226 0.88818 0.88083 0.0
H3797 H 0.5396 0.89623 0.96353 0.0
H3798 H 0.61394 0.93997 0.91505 0.0
H3799 H 0.59185 0.92112 0.90169 0.0
C3800 C 0.25536 0.06018 0.68038 0.0
C3801 C 0.24866 0.0646 0.65628 0.0
C3802 C 0.26713 0.0711 0.69128 0.0
C3803 C 0.29348 0.09428 0.7114 0.0
H3804 H 0.32347 0.10426 0.65574 0.0
C3805 C 0.35885 0.08361 0.73098 0.0
C3806 C 0.36526 0.07147 0.71277 0.0
C3807 C 0.34539 0.09398 0.72484 0.0
C3808 C 0.31526 0.10168 0.67161 0.0
H3809 H 0.24749 0.0852 0.62639 0.0
H3810 H 0.26758 0.10464 0.64593 0.0
H3811 H 0.29532 0.10106 0.64603 0.0
H3812 H 0.36418 0.06274 0.67277 0.0
H3813 H 0.34053 0.08002 0.66233 0.0
H3814 H 0.31363 0.09262 0.73643 0.0
C3815 C 0.26419 0.09238 0.65599 0.0
C3816 C 0.29897 0.1001 0.66611 0.0
C3817 C 0.2525 0.08132 0.64492 0.0
C3818 C 0.35924 0.07163 0.6874 0.0
C3819 C 0.34572 0.08181 0.68135 0.0
C3820 C 0.30981 0.09545 0.7168 0.0
C3821 C 0.27236 0.08684 0.67845 0.0
C3822 C 0.28803 0.09503 0.68565 0.0
C3823 C 0.338 0.09224 0.70049 0.0
C3824 C 0.32102 0.09781 0.6966 0.0
H3825 H 0.25236 0.04759 0.68993 0.0
H3826 H 0.27305 0.06623 0.70856 0.0
H3827 H 0.28532 0.09111 0.72713 0.0
H3828 H 0.36326 0.08393 0.7507 0.0
H3829 H 0.34007 0.10227 0.73984 0.0
C3830 C 0.39628 0.65975 0.71095 0.0
C3831 C 0.39151 0.67453 0.69566 0.0
C3832 C 0.40852 0.64829 0.70247 0.0
C3833 C 0.43779 0.64169 0.64758 0.0
H3834 H 0.46862 0.64404 0.70343 0.0
C3835 C 0.50172 0.65805 0.62248 0.0
C3836 C 0.50639 0.67364 0.63596 0.0
C3837 C 0.48943 0.6471 0.63217 0.0
C3838 C 0.46018 0.64307 0.6876 0.0
H3839 H 0.39413 0.68734 0.65813 0.0
H3840 H 0.41566 0.66797 0.64365 0.0
H3841 H 0.44029 0.64459 0.71345 0.0
H3842 H 0.50342 0.68865 0.67163 0.0
H3843 H 0.48181 0.67012 0.68813 0.0
H3844 H 0.45766 0.64243 0.62161 0.0
C3845 C 0.41008 0.66495 0.66213 0.0
C3846 C 0.44384 0.64314 0.69334 0.0
C3847 C 0.39781 0.6763 0.67054 0.0
C3848 C 0.49982 0.67693 0.66058 0.0
C3849 C 0.48753 0.66607 0.67019 0.0
C3850 C 0.45413 0.64194 0.64182 0.0
C3851 C 0.41626 0.65149 0.67863 0.0
C3852 C 0.43247 0.64397 0.67327 0.0
C3853 C 0.48155 0.65161 0.65543 0.0
C3854 C 0.46546 0.64411 0.66172 0.0
H3855 H 0.39159 0.65795 0.7304 0.0
H3856 H 0.41271 0.6378 0.71542 0.0
H3857 H 0.42935 0.64159 0.63169 0.0
H3858 H 0.50661 0.6551 0.60347 0.0
H3859 H 0.48536 0.63586 0.62055 0.0
C3860 C 0.35664 0.65872 0.24787 0.0
C3861 C 0.36324 0.67025 0.26666 0.0
C3862 C 0.34319 0.64822 0.25372 0.0
C3863 C 0.30766 0.64641 0.26264 0.0
H3864 H 0.29361 0.64001 0.33367 0.0
C3865 C 0.2545 0.68284 0.30188 0.0
C3866 C 0.24786 0.67837 0.32609 0.0
C3867 C 0.26587 0.67166 0.29031 0.0
C3868 C 0.29711 0.64121 0.31351 0.0
H3869 H 0.36244 0.67771 0.30722 0.0
H3870 H 0.33879 0.6603 0.31719 0.0
H3871 H 0.3216 0.63628 0.32295 0.0
H3872 H 0.24641 0.65748 0.35553 0.0
H3873 H 0.26583 0.6376 0.33485 0.0
H3874 H 0.28318 0.65146 0.25325 0.0
C3875 C 0.34383 0.65906 0.29792 0.0
C3876 C 0.31333 0.63933 0.30743 0.0
C3877 C 0.35735 0.66935 0.29214 0.0
C3878 C 0.25139 0.66141 0.33694 0.0
C3879 C 0.26268 0.65008 0.3252 0.0
C3880 C 0.29139 0.64787 0.26861 0.0
C3881 C 0.33596 0.64922 0.27837 0.0
C3882 C 0.31898 0.64358 0.28243 0.0
C3883 C 0.27078 0.65558 0.30255 0.0
C3884 C 0.28614 0.64692 0.29452 0.0
H3885 H 0.36095 0.65895 0.22804 0.0
H3886 H 0.33777 0.64042 0.23834 0.0
H3887 H 0.31137 0.64944 0.24298 0.0
H3888 H 0.25173 0.69563 0.29271 0.0
H3889 H 0.27176 0.67653 0.27292 0.0
C3890 C 0.49954 0.06263 0.32136 0.0
C3891 C 0.50606 0.06677 0.34566 0.0
C3892 C 0.48763 0.07347 0.31065 0.0
C3893 C 0.45492 0.10123 0.33513 0.0
H3894 H 0.44254 0.09644 0.26321 0.0
C3895 C 0.39649 0.07172 0.30678 0.0
C3896 C 0.39137 0.07217 0.28091 0.0
C3897 C 0.4093 0.08237 0.31478 0.0
C3898 C 0.4457 0.09851 0.28332 0.0
H3899 H 0.50646 0.0866 0.37653 0.0
H3900 H 0.48591 0.10584 0.35749 0.0
H3901 H 0.47053 0.09485 0.2747 0.0
H3902 H 0.39399 0.08621 0.24416 0.0
H3903 H 0.41594 0.10534 0.25839 0.0
H3904 H 0.43007 0.10459 0.3438 0.0
C3905 C 0.48972 0.09395 0.34698 0.0
C3906 C 0.46185 0.09732 0.28995 0.0
C3907 C 0.50162 0.083 0.35778 0.0
C3908 C 0.39777 0.08537 0.2642 0.0
C3909 C 0.41051 0.09621 0.27229 0.0
C3910 C 0.43879 0.1028 0.32844 0.0
C3911 C 0.482 0.08882 0.32393 0.0
C3912 C 0.46648 0.09708 0.31613 0.0
C3913 C 0.41719 0.09387 0.2971 0.0
C3914 C 0.43386 0.09985 0.30274 0.0
H3915 H 0.50296 0.05039 0.31132 0.0
H3916 H 0.482 0.0689 0.29298 0.0
H3917 H 0.45797 0.10142 0.35552 0.0
H3918 H 0.3915 0.062 0.32029 0.0
H3919 H 0.41392 0.0801 0.33408 0.0
C3920 C 0.65078 0.40658 1.00662 0.0
C3921 C 0.6437 0.41877 1.0241 0.0
C3922 C 0.66381 0.396 1.01427 0.0
C3923 C 0.69165 0.38846 1.07087 0.0
H3924 H 0.72371 0.39937 1.0187 0.0
C3925 C 0.75113 0.43133 1.06798 0.0
C3926 C 0.75761 0.42669 1.09216 0.0
C3927 C 0.73964 0.42039 1.05638 0.0
C3928 C 0.71495 0.3961 1.0335 0.0
H3929 H 0.64303 0.42733 1.06421 0.0
H3930 H 0.66593 0.40972 1.07731 0.0
H3931 H 0.69593 0.39695 1.00618 0.0
H3932 H 0.75833 0.40598 0.1219 0.0
H3933 H 0.73849 0.3866 1.10132 0.0
H3934 H 0.71045 0.3898 1.09863 0.0
C3935 C 0.66162 0.40803 1.0577 0.0
C3936 C 0.69892 0.39442 1.02626 0.0
C3937 C 0.64852 0.41842 1.05013 0.0
C3938 C 0.75351 0.40997 1.10328 0.0
C3939 C 0.74203 0.39893 1.09159 0.0
C3940 C 0.70764 0.39051 1.07818 0.0
C3941 C 0.67012 0.39759 1.03944 0.0
C3942 C 0.68691 0.39204 1.04521 0.0
C3943 C 0.73438 0.40444 1.06861 0.0
C3944 C 0.71926 0.39575 1.05983 0.0
H3945 H 0.64726 0.40638 0.98642 0.0
H3946 H 0.66972 0.38772 0.99984 0.0
H3947 H 0.68283 0.3858 1.08583 0.0
H3948 H 0.75429 0.44397 1.05869 0.0
H3949 H 0.73403 0.42526 1.03882 0.0
C3950 C 0.60645 0.82254 1.04216 0.0
C3951 C 0.61249 0.82171 1.01676 0.0
C3952 C 0.59292 0.83286 1.04775 0.0
C3953 C 0.55698 0.84576 1.0121 0.0
H3954 H 0.54272 0.85265 1.0829 0.0
C3955 C 0.50033 0.8319 1.08615 0.0
C3956 C 0.49668 0.81493 1.07556 0.0
C3957 C 0.51173 0.84304 1.07427 0.0
C3958 C 0.54629 0.85132 1.06279 0.0
H3959 H 0.61043 0.83315 0.97811 0.0
H3960 H 0.58725 0.85177 0.98815 0.0
H3961 H 0.57079 0.85594 1.07242 0.0
H3962 H 0.5004 0.79749 1.04243 0.0
H3963 H 0.52062 0.81625 1.02242 0.0
H3964 H 0.53248 0.84099 1.00253 0.0
C3965 C 0.59256 0.84386 1.00356 0.0
C3966 C 0.56254 0.85295 1.05685 0.0
C3967 C 0.60601 0.83332 0.99788 0.0
C3968 C 0.50327 0.81028 1.05141 0.0
C3969 C 0.51476 0.82128 1.03971 0.0
C3970 C 0.54067 0.84455 1.01792 0.0
C3971 C 0.5852 0.8428 1.02811 0.0
C3972 C 0.56824 0.84855 1.03196 0.0
C3973 C 0.51983 0.83733 1.05176 0.0
C3974 C 0.53533 0.8457 1.04376 0.0
H3975 H 0.61144 0.81413 1.05731 0.0
H3976 H 0.58777 0.83158 1.06694 0.0
H3977 H 0.56074 0.84259 0.99253 0.0
H3978 H 0.49539 0.83597 1.10468 0.0
H3979 H 0.51499 0.85553 1.08375 0.0
C3980 C 0.65402 0.8356 0.48436 0.0
C3981 C 0.64699 0.82355 0.46673 0.0
C3982 C 0.66706 0.84623 0.47678 0.0
C3983 C 0.69453 0.8549 0.41983 0.0
H3984 H 0.72698 0.84288 0.47047 0.0
C3985 C 0.753 0.81093 0.41874 0.0
C3986 C 0.75919 0.81577 0.39438 0.0
C3987 C 0.74205 0.82208 0.43137 0.0
C3988 C 0.71811 0.84651 0.45611 0.0
H3989 H 0.64648 0.81508 0.42661 0.0
H3990 H 0.66926 0.83303 0.41347 0.0
H3991 H 0.6993 0.84512 0.484 0.0
H3992 H 0.76011 0.83699 0.36541 0.0
H3993 H 0.74117 0.85671 0.38776 0.0
H3994 H 0.71309 0.85403 0.3914 0.0
C3995 C 0.66491 0.83454 0.43314 0.0
C3996 C 0.70215 0.84807 0.46394 0.0
C3997 C 0.6519 0.82399 0.44071 0.0
C3998 C 0.75547 0.83285 0.38414 0.0
C3999 C 0.74452 0.84409 0.39686 0.0
C4000 C 0.71045 0.85297 0.41191 0.0
C4001 C 0.67332 0.84494 0.45146 0.0
C4002 C 0.69001 0.85078 0.44547 0.0
C4003 C 0.73705 0.83842 0.41999 0.0
C4004 C 0.72219 0.8473 0.42965 0.0
H4005 H 0.65043 0.83563 0.50457 0.0
H4006 H 0.67299 0.85434 0.49129 0.0
H4007 H 0.68558 0.85781 0.40527 0.0
H4008 H 0.7559 0.798 0.42734 0.0
H4009 H 0.73656 0.81707 0.44902 0.0
C4010 C 0.51134 0.409 0.36986 0.0
C4011 C 0.50596 0.42408 0.38392 0.0
C4012 C 0.52398 0.39848 0.37919 0.0
C4013 C 0.55287 0.39463 0.43476 0.0
H4014 H 0.58423 0.39515 0.37921 0.0
C4015 C 0.61514 0.42915 0.4202 0.0
C4016 C 0.62126 0.42677 0.44526 0.0
C4017 C 0.603 0.41796 0.41108 0.0
C4018 C 0.57564 0.3947 0.39499 0.0
H4019 H 0.50813 0.43854 0.42018 0.0
H4020 H 0.53035 0.42079 0.43608 0.0
H4021 H 0.55599 0.39544 0.3688 0.0
H4022 H 0.621 0.40932 0.4791 0.0
H4023 H 0.6001 0.38945 0.46287 0.0
H4024 H 0.57249 0.39613 0.46092 0.0
C4025 C 0.5249 0.41681 0.41795 0.0
C4026 C 0.55935 0.39462 0.38903 0.0
C4027 C 0.51225 0.42723 0.40869 0.0
C4028 C 0.61645 0.41159 0.45972 0.0
C4029 C 0.60434 0.40029 0.45052 0.0
C4030 C 0.56916 0.39502 0.44071 0.0
C4031 C 0.53152 0.40293 0.40268 0.0
C4032 C 0.5478 0.396 0.40886 0.0
C4033 C 0.59677 0.40405 0.4268 0.0
C4034 C 0.58068 0.39649 0.42084 0.0
H4035 H 0.50668 0.40617 0.35071 0.0
H4036 H 0.52855 0.38767 0.36718 0.0
H4037 H 0.54427 0.39501 0.45052 0.0
H4038 H 0.61886 0.44052 0.4084 0.0
H4039 H 0.59754 0.4214 0.39271 0.0
C4040 C 0.3581 0.58588 0.23078 0.0
C4041 C 0.36495 0.57307 0.21401 0.0
C4042 C 0.3454 0.59671 0.22239 0.0
C4043 C 0.31849 0.60435 0.16477 0.0
H4044 H 0.28546 0.59438 0.21572 0.0
C4045 C 0.25727 0.58297 0.1299 0.0
C4046 C 0.25312 0.56624 0.14096 0.0
C4047 C 0.26843 0.59418 0.14205 0.0
C4048 C 0.2945 0.59744 0.20126 0.0
H4049 H 0.36555 0.56338 0.17446 0.0
H4050 H 0.34331 0.58159 0.15999 0.0
H4051 H 0.31307 0.59647 0.22939 0.0
H4052 H 0.25595 0.54913 0.17471 0.0
H4053 H 0.27564 0.56816 0.19544 0.0
H4054 H 0.30014 0.60308 0.13623 0.0
C4055 C 0.34755 0.58358 0.17959 0.0
C4056 C 0.31042 0.59891 0.20916 0.0
C4057 C 0.36025 0.57288 0.18793 0.0
C4058 C 0.25916 0.56178 0.16549 0.0
C4059 C 0.27031 0.5729 0.17757 0.0
C4060 C 0.30261 0.60254 0.15681 0.0
C4061 C 0.33928 0.59479 0.19714 0.0
C4062 C 0.32275 0.60086 0.19067 0.0
C4063 C 0.27568 0.58884 0.16543 0.0
C4064 C 0.29064 0.5976 0.17474 0.0
H4065 H 0.36156 0.58643 0.25099 0.0
H4066 H 0.33959 0.60549 0.23628 0.0
H4067 H 0.32761 0.60664 0.15015 0.0
H4068 H 0.25277 0.58681 1.111 0.0
H4069 H 0.27208 0.60649 0.13236 0.0
C4070 C 0.39776 0.158 0.2226 0.0
C4071 C 0.39133 0.17126 0.20609 0.0
C4072 C 0.41054 0.14724 0.21428 0.0
C4073 C 0.44573 0.14476 0.20274 0.0
H4074 H 0.45789 0.14197 0.13033 0.0
C4075 C 0.50001 0.17991 0.16423 0.0
C4076 C 0.50638 0.17584 0.13972 0.0
C4077 C 0.488 0.1692 0.17504 0.0
C4078 C 0.45487 0.14213 0.15076 0.0
H4079 H 0.39151 0.18168 0.16684 0.0
H4080 H 0.414 0.16372 0.15265 0.0
H4081 H 0.42997 0.13913 0.14243 0.0
H4082 H 0.50642 0.15621 1.10859 0.0
H4083 H 0.4857 0.13718 0.1278 0.0
H4084 H 0.4706 0.14803 0.21102 0.0
C4085 C 0.40935 0.16133 0.17197 0.0
C4086 C 0.43873 0.14074 0.15768 0.0
C4087 C 0.39651 0.1719 0.18019 0.0
C4088 C 0.50169 0.15976 0.12748 0.0
C4089 C 0.48969 0.14894 0.13839 0.0
C4090 C 0.46189 0.14576 0.19587 0.0
C4091 C 0.41722 0.14971 0.18943 0.0
C4092 C 0.43386 0.14365 0.18348 0.0
C4093 C 0.48211 0.15405 0.16166 0.0
C4094 C 0.46649 0.14602 0.16963 0.0
H4095 H 0.39394 0.15703 0.24265 0.0
H4096 H 0.41596 0.13804 0.22802 0.0
H4097 H 0.4426 0.14679 0.22291 0.0
H4098 H 0.50362 0.19203 0.17437 0.0
H4099 H 0.48248 0.17376 0.19289 0.0
C4100 C 0.32076 0.23298 0.67387 0.0
C4101 C 0.33078 0.21781 0.67273 0.0
C4102 C 0.30418 0.23088 0.67462 0.0
C4103 C 0.2778 0.19692 0.7021 0.0
H4104 H 0.24808 0.23692 0.69745 0.0
C4105 C 0.2318 0.20573 0.78132 0.0
C4106 C 0.23429 0.22246 0.79341 0.0
C4107 C 0.23703 0.2029 0.75586 0.0
C4108 C 0.25609 0.22546 0.69857 0.0
H4109 H 0.33144 0.18885 0.66756 0.0
H4110 H 0.30239 0.18516 0.668 0.0
H4111 H 0.27067 0.23526 0.66738 0.0
H4112 H 0.24251 0.24989 0.78757 0.0
H4113 H 0.25196 0.24491 0.74351 0.0
H4114 H 0.26392 0.18771 0.73421 0.0
C4115 C 0.30731 0.19864 0.66933 0.0
C4116 C 0.26907 0.22452 0.68142 0.0
C4117 C 0.32394 0.20072 0.66901 0.0
C4118 C 0.24076 0.23674 0.77887 0.0
C4119 C 0.24593 0.23395 0.75345 0.0
C4120 C 0.26478 0.19777 0.71901 0.0
C4121 C 0.29728 0.21356 0.67405 0.0
C4122 C 0.28075 0.21098 0.68434 0.0
C4123 C 0.24477 0.21678 0.74206 0.0
C4124 C 0.25447 0.21272 0.71864 0.0
H4125 H 0.32569 0.24633 0.6768 0.0
H4126 H 0.297 0.24275 0.67837 0.0
H4127 H 0.28644 0.18625 0.70513 0.0
H4128 H 0.22677 0.19449 0.79204 0.0
H4129 H 0.23587 0.18957 0.74751 0.0
C4130 C 0.509 0.55763 0.79997 0.0
C4131 C 0.51539 0.56302 0.82387 0.0
C4132 C 0.49771 0.56834 0.78735 0.0
C4133 C 0.47234 0.5912 0.76342 0.0
H4134 H 0.44171 0.60515 0.81625 0.0
C4135 C 0.40704 0.58106 0.7424 0.0
C4136 C 0.39998 0.57038 0.76192 0.0
C4137 C 0.42067 0.59136 0.74769 0.0
C4138 C 0.45011 0.60142 0.80114 0.0
H4139 H 0.51654 0.58498 0.85154 0.0
H4140 H 0.49732 0.60402 0.82898 0.0
H4141 H 0.46957 0.60158 0.82767 0.0
H4142 H 0.4002 0.56429 0.80301 0.0
H4143 H 0.42419 0.58126 0.81203 0.0
H4144 H 0.45259 0.58881 0.73769 0.0
C4145 C 0.50056 0.59119 0.82043 0.0
C4146 C 0.46625 0.59963 0.8076 0.0
C4147 C 0.51175 0.58035 0.83324 0.0
C4148 C 0.40565 0.57195 0.7874 0.0
C4149 C 0.41936 0.582 0.79262 0.0
C4150 C 0.45614 0.59257 0.75711 0.0
C4151 C 0.49266 0.58483 0.79819 0.0
C4152 C 0.47737 0.59314 0.78927 0.0
C4153 C 0.42764 0.59095 0.7725 0.0
C4154 C 0.44467 0.59633 0.77644 0.0
H4155 H 0.51187 0.54454 0.79191 0.0
H4156 H 0.492 0.5628 0.77034 0.0
H4157 H 0.48068 0.58696 0.74849 0.0
H4158 H 0.40292 0.58031 0.72254 0.0
H4159 H 0.42641 0.59853 0.73188 0.0
loop_
_geom_bond_atom_site_label_1
_geom_bond_atom_site_label_2
_geom_bond_distance
_geom_bond_site_symmetry_2
_ccdc_geom_bond_type
Nd0 C2 2.838 . S
Nd0 O20 2.500 1_545 S
Nd0 O21 2.492 . S
Nd0 O22 2.487 . S
Nd0 O23 2.682 . S
Nd0 O24 2.410 . S
Nd0 O29 2.414 1_545 S
Nd0 O31 2.430 . S
Nd1 C11 2.836 . S
Nd1 O23 2.414 . S
Nd1 O25 2.424 . S
Nd1 O26 2.500 . S
Nd1 O27 2.492 1_545 S
Nd1 O28 2.487 1_545 S
Nd1 O29 2.682 1_545 S
Nd1 O30 2.410 1_545 S
C2 Nd0 2.838 . S
C2 C3 1.496 1_545 S
C2 O20 1.243 1_545 S
C2 O21 1.255 . S
C3 C2 1.496 1_565 S
C3 C4 1.403 1_554 S
C3 C8 1.373 1_565 S
C4 C3 1.403 1_556 S
C4 C5 1.392 . S
C4 H32 0.930 . S
C5 C4 1.392 . S
C5 C6 1.398 . S
C5 H33 0.929 . S
C6 C5 1.398 . S
C6 C7 1.352 1_565 S
C7 C6 1.352 1_545 S
C7 C8 1.384 1_556 S
C7 H34 0.930 . S
C8 C3 1.373 1_545 S
C8 C7 1.384 1_554 S
C8 H35 0.929 . S
C9 O22 1.241 . S
C9 O23 1.273 . S
C10 O24 1.251 . S
C10 O25 1.268 . S
C11 Nd1 2.836 . S
C11 C12 1.498 . S
C11 O26 1.258 . S
C11 O27 1.239 1_545 S
C12 C11 1.498 . S
C12 C13 1.366 . S
C12 C17 1.407 1_545 S
C13 C12 1.366 . S
C13 C14 1.392 . S
C13 H36 0.930 . S
C14 C13 1.392 . S
C14 C15 1.398 . S
C14 H37 0.929 . S
C15 C14 1.398 . S
C15 C16 1.352 1_545 S
C16 C15 1.352 1_565 S
C16 C17 1.384 . S
C16 H38 0.930 . S
C17 C12 1.407 1_565 S
C17 C16 1.384 . S
C17 H39 0.929 . S
C18 O28 1.241 . S
C18 O29 1.273 . S
C19 O30 1.266 . S
C19 O31 1.261 1_565 S
O20 Nd0 2.500 1_565 S
O20 C2 1.243 1_565 S
O21 Nd0 2.492 . S
O21 C2 1.255 . S
O22 Nd0 2.487 . S
O22 C9 1.241 . S
O23 Nd0 2.682 . S
O23 Nd1 2.414 . S
O23 C9 1.273 . S
O24 Nd0 2.410 . S
O24 C10 1.251 . S
O25 Nd1 2.424 . S
O25 C10 1.268 . S
O26 Nd1 2.500 . S
O26 C11 1.258 . S
O27 Nd1 2.492 1_565 S
O27 C11 1.239 1_565 S
O28 Nd1 2.487 1_565 S
O28 C18 1.241 . S
O29 Nd0 2.414 1_565 S
O29 Nd1 2.682 1_565 S
O29 C18 1.273 . S
O30 Nd1 2.410 1_565 S
O30 C19 1.266 . S
O31 Nd0 2.430 . S
O31 C19 1.261 1_545 S
H32 C4 0.930 . S
H33 C5 0.929 . S
H34 C7 0.930 . S
H35 C8 0.929 . S
H36 C13 0.930 . S
H37 C14 0.929 . S
H38 C16 0.930 . S
H39 C17 0.929 . S
Nd40 C42 2.836 . S
Nd40 O60 2.500 . S
Nd40 O61 2.492 . S
Nd40 O62 2.487 . S
Nd40 O63 2.682 . S
Nd40 O64 2.410 . S
Nd40 O69 2.414 . S
Nd40 O71 2.424 . S
Nd41 C51 2.836 . S
Nd41 O63 2.414 . S
Nd41 O65 2.424 . S
Nd41 O66 2.500 . S
Nd41 O67 2.492 . S
Nd41 O68 2.487 . S
Nd41 O69 2.682 . S
Nd41 O70 2.410 . S
C42 Nd40 2.836 . S
C42 C43 1.498 . S
C42 O60 1.258 . S
C42 O61 1.239 . S
C43 C42 1.498 . S
C43 C44 1.366 1_554 S
C43 C48 1.407 . S
C44 C43 1.366 1_556 S
C44 C45 1.392 . S
C44 H72 0.930 . S
C45 C44 1.392 . S
C45 C46 1.398 . S
C45 H73 0.929 . S
C46 C45 1.398 . S
C46 C47 1.352 . S
C47 C46 1.352 . S
C47 C48 1.384 1_556 S
C47 H74 0.930 . S
C48 C43 1.407 . S
C48 C47 1.384 1_554 S
C48 H75 0.929 . S
C49 O62 1.241 . S
C49 O63 1.273 . S
C50 O64 1.251 . S
C50 O65 1.268 . S
C51 Nd41 2.836 . S
C51 C52 1.498 . S
C51 O66 1.258 . S
C51 O67 1.239 . S
C52 C51 1.498 . S
C52 C53 1.366 . S
C52 C57 1.407 . S
C53 C52 1.366 . S
C53 C54 1.392 . S
C53 H76 0.930 . S
C54 C53 1.392 . S
C54 C55 1.398 . S
C54 H77 0.929 . S
C55 C54 1.398 . S
C55 C56 1.352 . S
C56 C55 1.352 . S
C56 C57 1.384 . S
C56 H78 0.930 . S
C57 C52 1.407 . S
C57 C56 1.384 . S
C57 H79 0.929 . S
C58 O68 1.241 . S
C58 O69 1.273 . S
C59 O70 1.251 . S
C59 O71 1.268 . S
O60 Nd40 2.500 . S
O60 C42 1.258 . S
O61 Nd40 2.492 . S
O61 C42 1.239 . S
O62 Nd40 2.487 . S
O62 C49 1.241 . S
O63 Nd40 2.682 . S
O63 Nd41 2.414 . S
O63 C49 1.273 . S
O64 Nd40 2.410 . S
O64 C50 1.251 . S
O65 Nd41 2.424 . S
O65 C50 1.268 . S
O66 Nd41 2.500 . S
O66 C51 1.258 . S
O67 Nd41 2.492 . S
O67 C51 1.239 . S
O68 Nd41 2.487 . S
O68 C58 1.241 . S
O69 Nd40 2.414 . S
O69 Nd41 2.682 . S
O69 C58 1.273 . S
O70 Nd41 2.410 . S
O70 C59 1.251 . S
O71 Nd40 2.424 . S
O71 C59 1.268 . S
H72 C44 0.930 . S
H73 C45 0.929 . S
H74 C47 0.930 . S
H75 C48 0.929 . S
H76 C53 0.930 . S
H77 C54 0.929 . S
H78 C56 0.930 . S
H79 C57 0.929 . S
Nd80 C82 2.836 . S
Nd80 O100 2.500 . S
Nd80 O101 2.492 . S
Nd80 O102 2.487 . S
Nd80 O103 2.682 . S
Nd80 O104 2.410 . S
Nd80 O109 2.414 . S
Nd80 O111 2.424 . S
Nd81 C91 2.836 . S
Nd81 O103 2.414 . S
Nd81 O105 2.424 . S
Nd81 O106 2.500 . S
Nd81 O107 2.492 . S
Nd81 O108 2.487 . S
Nd81 O109 2.682 . S
Nd81 O110 2.410 . S
C82 Nd80 2.836 . S
C82 C83 1.498 . S
C82 O100 1.258 . S
C82 O101 1.239 . S
C83 C82 1.498 . S
C83 C84 1.366 . S
C83 C88 1.407 . S
C84 C83 1.366 . S
C84 C85 1.392 . S
C84 H112 0.930 . S
C85 C84 1.392 . S
C85 C86 1.398 . S
C85 H113 0.929 . S
C86 C85 1.398 . S
C86 C87 1.352 . S
C87 C86 1.352 . S
C87 C88 1.384 . S
C87 H114 0.930 . S
C88 C83 1.407 . S
C88 C87 1.384 . S
C88 H115 0.929 . S
C89 O102 1.241 . S
C89 O103 1.273 . S
C90 O104 1.251 . S
C90 O105 1.268 . S
C91 Nd81 2.836 . S
C91 C92 1.498 . S
C91 O106 1.258 . S
C91 O107 1.239 . S
C92 C91 1.498 . S
C92 C93 1.366 . S
C92 C97 1.407 . S
C93 C92 1.366 . S
C93 C94 1.392 . S
C93 H116 0.930 . S
C94 C93 1.392 . S
C94 C95 1.398 . S
C94 H117 0.929 . S
C95 C94 1.398 . S
C95 C96 1.352 . S
C96 C95 1.352 . S
C96 C97 1.384 . S
C96 H118 0.930 . S
C97 C92 1.407 . S
C97 C96 1.384 . S
C97 H119 0.929 . S
C98 O108 1.241 . S
C98 O109 1.273 . S
C99 O110 1.251 . S
C99 O111 1.268 . S
O100 Nd80 2.500 . S
O100 C82 1.258 . S
O101 Nd80 2.492 . S
O101 C82 1.239 . S
O102 Nd80 2.487 . S
O102 C89 1.241 . S
O103 Nd80 2.682 . S
O103 Nd81 2.414 . S
O103 C89 1.273 . S
O104 Nd80 2.410 . S
O104 C90 1.251 . S
O105 Nd81 2.424 . S
O105 C90 1.268 . S
O106 Nd81 2.500 . S
O106 C91 1.258 . S
O107 Nd81 2.492 . S
O107 C91 1.239 . S
O108 Nd81 2.487 . S
O108 C98 1.241 . S
O109 Nd80 2.414 . S
O109 Nd81 2.682 . S
O109 C98 1.273 . S
O110 Nd81 2.410 . S
O110 C99 1.251 . S
O111 Nd80 2.424 . S
O111 C99 1.268 . S
H112 C84 0.930 . S
H113 C85 0.929 . S
H114 C87 0.930 . S
H115 C88 0.929 . S
H116 C93 0.930 . S
H117 C94 0.929 . S
H118 C96 0.930 . S
H119 C97 0.929 . S
Nd120 C122 2.838 . S
Nd120 O140 2.500 1_545 S
Nd120 O141 2.492 . S
Nd120 O142 2.487 . S
Nd120 O143 2.682 . S
Nd120 O144 2.410 . S
Nd120 O149 2.414 1_545 S
Nd120 O151 2.430 . S
Nd121 C131 2.836 . S
Nd121 O143 2.414 . S
Nd121 O145 2.424 . S
Nd121 O146 2.500 . S
Nd121 O147 2.492 1_545 S
Nd121 O148 2.487 1_545 S
Nd121 O149 2.682 1_545 S
Nd121 O150 2.410 1_545 S
C122 Nd120 2.838 . S
C122 C123 1.496 1_545 S
C122 O140 1.243 1_545 S
C122 O141 1.255 . S
C123 C122 1.496 1_565 S
C123 C124 1.403 . S
C123 C128 1.373 1_565 S
C124 C123 1.403 . S
C124 C125 1.392 . S
C124 H152 0.930 . S
C125 C124 1.392 . S
C125 C126 1.398 . S
C125 H153 0.929 . S
C126 C125 1.398 . S
C126 C127 1.352 1_565 S
C127 C126 1.352 1_545 S
C127 C128 1.384 . S
C127 H154 0.930 . S
C128 C123 1.373 1_545 S
C128 C127 1.384 . S
C128 H155 0.929 . S
C129 O142 1.241 . S
C129 O143 1.273 . S
C130 O144 1.251 . S
C130 O145 1.268 . S
C131 Nd121 2.836 . S
C131 C132 1.498 . S
C131 O146 1.258 . S
C131 O147 1.239 1_545 S
C132 C131 1.498 . S
C132 C133 1.366 . S
C132 C137 1.407 1_545 S
C133 C132 1.366 . S
C133 C134 1.392 . S
C133 H156 0.930 . S
C134 C133 1.392 . S
C134 C135 1.398 . S
C134 H157 0.929 . S
C135 C134 1.398 . S
C135 C136 1.352 1_545 S
C136 C135 1.352 1_565 S
C136 C137 1.384 . S
C136 H158 0.930 . S
C137 C132 1.407 1_565 S
C137 C136 1.384 . S
C137 H159 0.929 . S
C138 O148 1.241 . S
C138 O149 1.273 . S
C139 O150 1.266 . S
C139 O151 1.261 1_565 S
O140 Nd120 2.500 1_565 S
O140 C122 1.243 1_565 S
O141 Nd120 2.492 . S
O141 C122 1.255 . S
O142 Nd120 2.487 . S
O142 C129 1.241 . S
O143 Nd120 2.682 . S
O143 Nd121 2.414 . S
O143 C129 1.273 . S
O144 Nd120 2.410 . S
O144 C130 1.251 . S
O145 Nd121 2.424 . S
O145 C130 1.268 . S
O146 Nd121 2.500 . S
O146 C131 1.258 . S
O147 Nd121 2.492 1_565 S
O147 C131 1.239 1_565 S
O148 Nd121 2.487 1_565 S
O148 C138 1.241 . S
O149 Nd120 2.414 1_565 S
O149 Nd121 2.682 1_565 S
O149 C138 1.273 . S
O150 Nd121 2.410 1_565 S
O150 C139 1.266 . S
O151 Nd120 2.430 . S
O151 C139 1.261 1_545 S
H152 C124 0.930 . S
H153 C125 0.929 . S
H154 C127 0.930 . S
H155 C128 0.929 . S
H156 C133 0.930 . S
H157 C134 0.929 . S
H158 C136 0.930 . S
H159 C137 0.929 . S
Nd160 C162 2.836 . S
Nd160 O180 2.500 . S
Nd160 O181 2.492 1_565 S
Nd160 O182 2.487 1_565 S
Nd160 O183 2.682 1_565 S
Nd160 O184 2.410 1_565 S
Nd160 O189 2.414 . S
Nd160 O191 2.424 . S
Nd161 C171 2.838 . S
Nd161 O183 2.414 1_565 S
Nd161 O185 2.430 . S
Nd161 O186 2.500 1_565 S
Nd161 O187 2.492 . S
Nd161 O188 2.487 . S
Nd161 O189 2.682 . S
Nd161 O190 2.410 . S
C162 Nd160 2.836 . S
C162 C163 1.498 . S
C162 O180 1.258 . S
C162 O181 1.239 1_565 S
C163 C162 1.498 . S
C163 C164 1.366 . S
C163 C168 1.407 1_565 S
C164 C163 1.366 . S
C164 C165 1.392 . S
C164 H192 0.930 . S
C165 C164 1.392 . S
C165 C166 1.398 . S
C165 H193 0.929 . S
C166 C165 1.398 . S
C166 C167 1.352 1_565 S
C167 C166 1.352 1_545 S
C167 C168 1.384 . S
C167 H194 0.930 . S
C168 C163 1.407 1_545 S
C168 C167 1.384 . S
C168 H195 0.929 . S
C169 O182 1.241 . S
C169 O183 1.273 . S
C170 O184 1.266 . S
C170 O185 1.261 1_545 S
C171 Nd161 2.838 . S
C171 C172 1.496 1_565 S
C171 O186 1.243 1_565 S
C171 O187 1.255 . S
C172 C171 1.496 1_545 S
C172 C173 1.403 1_556 S
C172 C177 1.373 1_545 S
C173 C172 1.403 1_554 S
C173 C174 1.392 . S
C173 H196 0.930 . S
C174 C173 1.392 . S
C174 C175 1.398 . S
C174 H197 0.929 . S
C175 C174 1.398 . S
C175 C176 1.352 1_545 S
C176 C175 1.352 1_565 S
C176 C177 1.384 1_554 S
C176 H198 0.930 . S
C177 C172 1.373 1_565 S
C177 C176 1.384 1_556 S
C177 H199 0.929 . S
C178 O188 1.241 . S
C178 O189 1.273 . S
C179 O190 1.251 . S
C179 O191 1.268 . S
O180 Nd160 2.500 . S
O180 C162 1.258 . S
O181 Nd160 2.492 1_545 S
O181 C162 1.239 1_545 S
O182 Nd160 2.487 1_545 S
O182 C169 1.241 . S
O183 Nd160 2.682 1_545 S
O183 Nd161 2.414 1_545 S
O183 C169 1.273 . S
O184 Nd160 2.410 1_545 S
O184 C170 1.266 . S
O185 Nd161 2.430 . S
O185 C170 1.261 1_565 S
O186 Nd161 2.500 1_545 S
O186 C171 1.243 1_545 S
O187 Nd161 2.492 . S
O187 C171 1.255 . S
O188 Nd161 2.487 . S
O188 C178 1.241 . S
O189 Nd160 2.414 . S
O189 Nd161 2.682 . S
O189 C178 1.273 . S
O190 Nd161 2.410 . S
O190 C179 1.251 . S
O191 Nd160 2.424 . S
O191 C179 1.268 . S
H192 C164 0.930 . S
H193 C165 0.929 . S
H194 C167 0.930 . S
H195 C168 0.929 . S
H196 C173 0.930 . S
H197 C174 0.929 . S
H198 C176 0.930 . S
H199 C177 0.929 . S
Nd200 C202 2.836 . S
Nd200 O220 2.500 . S
Nd200 O221 2.492 . S
Nd200 O222 2.487 . S
Nd200 O223 2.682 . S
Nd200 O224 2.410 . S
Nd200 O229 2.414 . S
Nd200 O231 2.424 . S
Nd201 C211 2.836 . S
Nd201 O223 2.414 . S
Nd201 O225 2.424 . S
Nd201 O226 2.500 . S
Nd201 O227 2.492 . S
Nd201 O228 2.487 . S
Nd201 O229 2.682 . S
Nd201 O230 2.410 . S
C202 Nd200 2.836 . S
C202 C203 1.498 . S
C202 O220 1.258 . S
C202 O221 1.239 . S
C203 C202 1.498 . S
C203 C204 1.366 . S
C203 C208 1.407 . S
C204 C203 1.366 . S
C204 C205 1.392 . S
C204 H232 0.930 . S
C205 C204 1.392 . S
C205 C206 1.398 . S
C205 H233 0.929 . S
C206 C205 1.398 . S
C206 C207 1.352 . S
C207 C206 1.352 . S
C207 C208 1.384 . S
C207 H234 0.930 . S
C208 C203 1.407 . S
C208 C207 1.384 . S
C208 H235 0.929 . S
C209 O222 1.241 . S
C209 O223 1.273 . S
C210 O224 1.251 . S
C210 O225 1.268 . S
C211 Nd201 2.836 . S
C211 C212 1.498 . S
C211 O226 1.258 . S
C211 O227 1.239 . S
C212 C211 1.498 . S
C212 C213 1.366 1_556 S
C212 C217 1.407 . S
C213 C212 1.366 1_554 S
C213 C214 1.392 . S
C213 H236 0.930 . S
C214 C213 1.392 . S
C214 C215 1.398 . S
C214 H237 0.929 . S
C215 C214 1.398 . S
C215 C216 1.352 . S
C216 C215 1.352 . S
C216 C217 1.384 1_554 S
C216 H238 0.930 . S
C217 C212 1.407 . S
C217 C216 1.384 1_556 S
C217 H239 0.929 . S
C218 O228 1.241 . S
C218 O229 1.273 . S
C219 O230 1.251 . S
C219 O231 1.268 . S
O220 Nd200 2.500 . S
O220 C202 1.258 . S
O221 Nd200 2.492 . S
O221 C202 1.239 . S
O222 Nd200 2.487 . S
O222 C209 1.241 . S
O223 Nd200 2.682 . S
O223 Nd201 2.414 . S
O223 C209 1.273 . S
O224 Nd200 2.410 . S
O224 C210 1.251 . S
O225 Nd201 2.424 . S
O225 C210 1.268 . S
O226 Nd201 2.500 . S
O226 C211 1.258 . S
O227 Nd201 2.492 . S
O227 C211 1.239 . S
O228 Nd201 2.487 . S
O228 C218 1.241 . S
O229 Nd200 2.414 . S
O229 Nd201 2.682 . S
O229 C218 1.273 . S
O230 Nd201 2.410 . S
O230 C219 1.251 . S
O231 Nd200 2.424 . S
O231 C219 1.268 . S
H232 C204 0.930 . S
H233 C205 0.929 . S
H234 C207 0.930 . S
H235 C208 0.929 . S
H236 C213 0.930 . S
H237 C214 0.929 . S
H238 C216 0.930 . S
H239 C217 0.929 . S
Nd240 C242 2.836 . S
Nd240 O260 2.500 . S
Nd240 O261 2.492 . S
Nd240 O262 2.487 . S
Nd240 O263 2.682 . S
Nd240 O264 2.410 . S
Nd240 O269 2.414 . S
Nd240 O271 2.424 . S
Nd241 C251 2.836 . S
Nd241 O263 2.414 . S
Nd241 O265 2.424 . S
Nd241 O266 2.500 . S
Nd241 O267 2.492 . S
Nd241 O268 2.487 . S
Nd241 O269 2.682 . S
Nd241 O270 2.410 . S
C242 Nd240 2.836 . S
C242 C243 1.498 . S
C242 O260 1.258 . S
C242 O261 1.239 . S
C243 C242 1.498 . S
C243 C244 1.366 . S
C243 C248 1.407 . S
C244 C243 1.366 . S
C244 C245 1.392 . S
C244 H272 0.930 . S
C245 C244 1.392 . S
C245 C246 1.398 . S
C245 H273 0.929 . S
C246 C245 1.398 . S
C246 C247 1.352 . S
C247 C246 1.352 . S
C247 C248 1.384 . S
C247 H274 0.930 . S
C248 C243 1.407 . S
C248 C247 1.384 . S
C248 H275 0.929 . S
C249 O262 1.241 . S
C249 O263 1.273 . S
C250 O264 1.251 . S
C250 O265 1.268 . S
C251 Nd241 2.836 . S
C251 C252 1.498 . S
C251 O266 1.258 . S
C251 O267 1.239 . S
C252 C251 1.498 . S
C252 C253 1.366 . S
C252 C257 1.407 . S
C253 C252 1.366 . S
C253 C254 1.392 . S
C253 H276 0.930 . S
C254 C253 1.392 . S
C254 C255 1.398 . S
C254 H277 0.929 . S
C255 C254 1.398 . S
C255 C256 1.352 . S
C256 C255 1.352 . S
C256 C257 1.384 . S
C256 H278 0.930 . S
C257 C252 1.407 . S
C257 C256 1.384 . S
C257 H279 0.929 . S
C258 O268 1.241 . S
C258 O269 1.273 . S
C259 O270 1.251 . S
C259 O271 1.268 . S
O260 Nd240 2.500 . S
O260 C242 1.258 . S
O261 Nd240 2.492 . S
O261 C242 1.239 . S
O262 Nd240 2.487 . S
O262 C249 1.241 . S
O263 Nd240 2.682 . S
O263 Nd241 2.414 . S
O263 C249 1.273 . S
O264 Nd240 2.410 . S
O264 C250 1.251 . S
O265 Nd241 2.424 . S
O265 C250 1.268 . S
O266 Nd241 2.500 . S
O266 C251 1.258 . S
O267 Nd241 2.492 . S
O267 C251 1.239 . S
O268 Nd241 2.487 . S
O268 C258 1.241 . S
O269 Nd240 2.414 . S
O269 Nd241 2.682 . S
O269 C258 1.273 . S
O270 Nd241 2.410 . S
O270 C259 1.251 . S
O271 Nd240 2.424 . S
O271 C259 1.268 . S
H272 C244 0.930 . S
H273 C245 0.929 . S
H274 C247 0.930 . S
H275 C248 0.929 . S
H276 C253 0.930 . S
H277 C254 0.929 . S
H278 C256 0.930 . S
H279 C257 0.929 . S
Nd280 C282 2.836 . S
Nd280 O300 2.500 . S
Nd280 O301 2.492 1_565 S
Nd280 O302 2.487 1_565 S
Nd280 O303 2.682 1_565 S
Nd280 O304 2.410 1_565 S
Nd280 O309 2.414 . S
Nd280 O311 2.424 . S
Nd281 C291 2.838 . S
Nd281 O303 2.414 1_565 S
Nd281 O305 2.430 . S
Nd281 O306 2.500 1_565 S
Nd281 O307 2.492 . S
Nd281 O308 2.487 . S
Nd281 O309 2.682 . S
Nd281 O310 2.410 . S
C282 Nd280 2.836 . S
C282 C283 1.498 . S
C282 O300 1.258 . S
C282 O301 1.239 1_565 S
C283 C282 1.498 . S
C283 C284 1.366 . S
C283 C288 1.407 1_565 S
C284 C283 1.366 . S
C284 C285 1.392 . S
C284 H312 0.930 . S
C285 C284 1.392 . S
C285 C286 1.398 . S
C285 H313 0.929 . S
C286 C285 1.398 . S
C286 C287 1.352 1_565 S
C287 C286 1.352 1_545 S
C287 C288 1.384 . S
C287 H314 0.930 . S
C288 C283 1.407 1_545 S
C288 C287 1.384 . S
C288 H315 0.929 . S
C289 O302 1.241 . S
C289 O303 1.273 . S
C290 O304 1.266 . S
C290 O305 1.261 1_545 S
C291 Nd281 2.838 . S
C291 C292 1.496 1_565 S
C291 O306 1.243 1_565 S
C291 O307 1.255 . S
C292 C291 1.496 1_545 S
C292 C293 1.403 . S
C292 C297 1.373 1_545 S
C293 C292 1.403 . S
C293 C294 1.392 . S
C293 H316 0.930 . S
C294 C293 1.392 . S
C294 C295 1.398 . S
C294 H317 0.929 . S
C295 C294 1.398 . S
C295 C296 1.352 1_545 S
C296 C295 1.352 1_565 S
C296 C297 1.384 . S
C296 H318 0.930 . S
C297 C292 1.373 1_565 S
C297 C296 1.384 . S
C297 H319 0.929 . S
C298 O308 1.241 . S
C298 O309 1.273 . S
C299 O310 1.251 . S
C299 O311 1.268 . S
O300 Nd280 2.500 . S
O300 C282 1.258 . S
O301 Nd280 2.492 1_545 S
O301 C282 1.239 1_545 S
O302 Nd280 2.487 1_545 S
O302 C289 1.241 . S
O303 Nd280 2.682 1_545 S
O303 Nd281 2.414 1_545 S
O303 C289 1.273 . S
O304 Nd280 2.410 1_545 S
O304 C290 1.266 . S
O305 Nd281 2.430 . S
O305 C290 1.261 1_565 S
O306 Nd281 2.500 1_545 S
O306 C291 1.243 1_545 S
O307 Nd281 2.492 . S
O307 C291 1.255 . S
O308 Nd281 2.487 . S
O308 C298 1.241 . S
O309 Nd280 2.414 . S
O309 Nd281 2.682 . S
O309 C298 1.273 . S
O310 Nd281 2.410 . S
O310 C299 1.251 . S
O311 Nd280 2.424 . S
O311 C299 1.268 . S
H312 C284 0.930 . S
H313 C285 0.929 . S
H314 C287 0.930 . S
H315 C288 0.929 . S
H316 C293 0.930 . S
H317 C294 0.929 . S
H318 C296 0.930 . S
H319 C297 0.929 . S
Nd320 C322 2.836 . S
Nd320 O340 2.500 . S
Nd320 O341 2.492 . S
Nd320 O342 2.487 . S
Nd320 O343 2.682 . S
Nd320 O344 2.410 . S
Nd320 O349 2.414 . S
Nd320 O351 2.424 . S
Nd321 C331 2.836 . S
Nd321 O343 2.414 . S
Nd321 O345 2.424 . S
Nd321 O346 2.500 . S
Nd321 O347 2.492 . S
Nd321 O348 2.487 . S
Nd321 O349 2.682 . S
Nd321 O350 2.410 . S
C322 Nd320 2.836 . S
C322 C323 1.498 . S
C322 O340 1.258 . S
C322 O341 1.239 . S
C323 C322 1.498 . S
C323 C324 1.366 . S
C323 C328 1.407 . S
C324 C323 1.366 . S
C324 C325 1.392 . S
C324 H352 0.930 . S
C325 C324 1.392 . S
C325 C326 1.398 . S
C325 H353 0.929 . S
C326 C325 1.398 . S
C326 C327 1.352 . S
C327 C326 1.352 . S
C327 C328 1.384 . S
C327 H354 0.930 . S
C328 C323 1.407 . S
C328 C327 1.384 . S
C328 H355 0.929 . S
C329 O342 1.241 . S
C329 O343 1.273 . S
C330 O344 1.251 . S
C330 O345 1.268 . S
C331 Nd321 2.836 . S
C331 C332 1.498 . S
C331 O346 1.258 . S
C331 O347 1.239 . S
C332 C331 1.498 . S
C332 C333 1.366 . S
C332 C337 1.407 . S
C333 C332 1.366 . S
C333 C334 1.392 . S
C333 H356 0.930 . S
C334 C333 1.392 . S
C334 C335 1.398 . S
C334 H357 0.929 . S
C335 C334 1.398 . S
C335 C336 1.352 . S
C336 C335 1.352 . S
C336 C337 1.384 . S
C336 H358 0.930 . S
C337 C332 1.407 . S
C337 C336 1.384 . S
C337 H359 0.929 . S
C338 O348 1.241 . S
C338 O349 1.273 . S
C339 O350 1.251 . S
C339 O351 1.268 . S
O340 Nd320 2.500 . S
O340 C322 1.258 . S
O341 Nd320 2.492 . S
O341 C322 1.239 . S
O342 Nd320 2.487 . S
O342 C329 1.241 . S
O343 Nd320 2.682 . S
O343 Nd321 2.414 . S
O343 C329 1.273 . S
O344 Nd320 2.410 . S
O344 C330 1.251 . S
O345 Nd321 2.424 . S
O345 C330 1.268 . S
O346 Nd321 2.500 . S
O346 C331 1.258 . S
O347 Nd321 2.492 . S
O347 C331 1.239 . S
O348 Nd321 2.487 . S
O348 C338 1.241 . S
O349 Nd320 2.414 . S
O349 Nd321 2.682 . S
O349 C338 1.273 . S
O350 Nd321 2.410 . S
O350 C339 1.251 . S
O351 Nd320 2.424 . S
O351 C339 1.268 . S
H352 C324 0.930 . S
H353 C325 0.929 . S
H354 C327 0.930 . S
H355 C328 0.929 . S
H356 C333 0.930 . S
H357 C334 0.929 . S
H358 C336 0.930 . S
H359 C337 0.929 . S
Nd360 C362 2.836 . S
Nd360 O380 2.500 . S
Nd360 O381 2.492 . S
Nd360 O382 2.487 . S
Nd360 O383 2.682 . S
Nd360 O384 2.410 . S
Nd360 O389 2.414 . S
Nd360 O391 2.424 . S
Nd361 C371 2.836 . S
Nd361 O383 2.414 . S
Nd361 O385 2.424 . S
Nd361 O386 2.500 . S
Nd361 O387 2.492 . S
Nd361 O388 2.487 . S
Nd361 O389 2.682 . S
Nd361 O390 2.410 . S
C362 Nd360 2.836 . S
C362 C363 1.498 . S
C362 O380 1.258 . S
C362 O381 1.239 . S
C363 C362 1.498 . S
C363 C364 1.366 . S
C363 C368 1.407 . S
C364 C363 1.366 . S
C364 C365 1.392 . S
C364 H392 0.930 . S
C365 C364 1.392 . S
C365 C366 1.398 . S
C365 H393 0.929 . S
C366 C365 1.398 . S
C366 C367 1.352 . S
C367 C366 1.352 . S
C367 C368 1.384 . S
C367 H394 0.930 . S
C368 C363 1.407 . S
C368 C367 1.384 . S
C368 H395 0.929 . S
C369 O382 1.241 . S
C369 O383 1.273 . S
C370 O384 1.251 . S
C370 O385 1.268 . S
C371 Nd361 2.836 . S
C371 C372 1.498 . S
C371 O386 1.258 . S
C371 O387 1.239 . S
C372 C371 1.498 . S
C372 C373 1.366 . S
C372 C377 1.407 . S
C373 C372 1.366 . S
C373 C374 1.392 . S
C373 H396 0.930 . S
C374 C373 1.392 . S
C374 C375 1.398 . S
C374 H397 0.929 . S
C375 C374 1.398 . S
C375 C376 1.352 . S
C376 C375 1.352 . S
C376 C377 1.384 . S
C376 H398 0.930 . S
C377 C372 1.407 . S
C377 C376 1.384 . S
C377 H399 0.929 . S
C378 O388 1.241 . S
C378 O389 1.273 . S
C379 O390 1.251 . S
C379 O391 1.268 . S
O380 Nd360 2.500 . S
O380 C362 1.258 . S
O381 Nd360 2.492 . S
O381 C362 1.239 . S
O382 Nd360 2.487 . S
O382 C369 1.241 . S
O383 Nd360 2.682 . S
O383 Nd361 2.414 . S
O383 C369 1.273 . S
O384 Nd360 2.410 . S
O384 C370 1.251 . S
O385 Nd361 2.424 . S
O385 C370 1.268 . S
O386 Nd361 2.500 . S
O386 C371 1.258 . S
O387 Nd361 2.492 . S
O387 C371 1.239 . S
O388 Nd361 2.487 . S
O388 C378 1.241 . S
O389 Nd360 2.414 . S
O389 Nd361 2.682 . S
O389 C378 1.273 . S
O390 Nd361 2.410 . S
O390 C379 1.251 . S
O391 Nd360 2.424 . S
O391 C379 1.268 . S
H392 C364 0.930 . S
H393 C365 0.929 . S
H394 C367 0.930 . S
H395 C368 0.929 . S
H396 C373 0.930 . S
H397 C374 0.929 . S
H398 C376 0.930 . S
H399 C377 0.929 . S
Nd400 C402 2.836 . S
Nd400 O420 2.500 . S
Nd400 O421 2.492 . S
Nd400 O422 2.487 . S
Nd400 O423 2.682 . S
Nd400 O424 2.410 . S
Nd400 O429 2.414 . S
Nd400 O431 2.424 . S
Nd401 C411 2.836 . S
Nd401 O423 2.414 . S
Nd401 O425 2.424 . S
Nd401 O426 2.500 . S
Nd401 O427 2.492 . S
Nd401 O428 2.487 . S
Nd401 O429 2.682 . S
Nd401 O430 2.410 . S
C402 Nd400 2.836 . S
C402 C403 1.498 . S
C402 O420 1.258 . S
C402 O421 1.239 . S
C403 C402 1.498 . S
C403 C404 1.366 . S
C403 C408 1.407 . S
C404 C403 1.366 . S
C404 C405 1.392 . S
C404 H432 0.930 . S
C405 C404 1.392 . S
C405 C406 1.398 . S
C405 H433 0.929 . S
C406 C405 1.398 . S
C406 C407 1.352 . S
C407 C406 1.352 . S
C407 C408 1.384 . S
C407 H434 0.930 . S
C408 C403 1.407 . S
C408 C407 1.384 . S
C408 H435 0.929 . S
C409 O422 1.241 . S
C409 O423 1.273 . S
C410 O424 1.251 . S
C410 O425 1.268 . S
C411 Nd401 2.836 . S
C411 C412 1.498 . S
C411 O426 1.258 . S
C411 O427 1.239 . S
C412 C411 1.498 . S
C412 C413 1.366 . S
C412 C417 1.407 . S
C413 C412 1.366 . S
C413 C414 1.392 . S
C413 H436 0.930 . S
C414 C413 1.392 . S
C414 C415 1.398 . S
C414 H437 0.929 . S
C415 C414 1.398 . S
C415 C416 1.352 . S
C416 C415 1.352 . S
C416 C417 1.384 . S
C416 H438 0.930 . S
C417 C412 1.407 . S
C417 C416 1.384 . S
C417 H439 0.929 . S
C418 O428 1.241 . S
C418 O429 1.273 . S
C419 O430 1.251 . S
C419 O431 1.268 . S
O420 Nd400 2.500 . S
O420 C402 1.258 . S
O421 Nd400 2.492 . S
O421 C402 1.239 . S
O422 Nd400 2.487 . S
O422 C409 1.241 . S
O423 Nd400 2.682 . S
O423 Nd401 2.414 . S
O423 C409 1.273 . S
O424 Nd400 2.410 . S
O424 C410 1.251 . S
O425 Nd401 2.424 . S
O425 C410 1.268 . S
O426 Nd401 2.500 . S
O426 C411 1.258 . S
O427 Nd401 2.492 . S
O427 C411 1.239 . S
O428 Nd401 2.487 . S
O428 C418 1.241 . S
O429 Nd400 2.414 . S
O429 Nd401 2.682 . S
O429 C418 1.273 . S
O430 Nd401 2.410 . S
O430 C419 1.251 . S
O431 Nd400 2.424 . S
O431 C419 1.268 . S
H432 C404 0.930 . S
H433 C405 0.929 . S
H434 C407 0.930 . S
H435 C408 0.929 . S
H436 C413 0.930 . S
H437 C414 0.929 . S
H438 C416 0.930 . S
H439 C417 0.929 . S
Nd440 C442 2.836 . S
Nd440 O460 2.500 . S
Nd440 O461 2.492 . S
Nd440 O462 2.487 . S
Nd440 O463 2.682 . S
Nd440 O464 2.410 . S
Nd440 O469 2.414 . S
Nd440 O471 2.424 . S
Nd441 C451 2.836 . S
Nd441 O463 2.414 . S
Nd441 O465 2.424 . S
Nd441 O466 2.500 . S
Nd441 O467 2.492 . S
Nd441 O468 2.487 . S
Nd441 O469 2.682 . S
Nd441 O470 2.410 . S
C442 Nd440 2.836 . S
C442 C443 1.498 . S
C442 O460 1.258 . S
C442 O461 1.239 . S
C443 C442 1.498 . S
C443 C444 1.366 . S
C443 C448 1.407 . S
C444 C443 1.366 . S
C444 C445 1.392 . S
C444 H472 0.930 . S
C445 C444 1.392 . S
C445 C446 1.398 . S
C445 H473 0.929 . S
C446 C445 1.398 . S
C446 C447 1.352 . S
C447 C446 1.352 . S
C447 C448 1.384 . S
C447 H474 0.930 . S
C448 C443 1.407 . S
C448 C447 1.384 . S
C448 H475 0.929 . S
C449 O462 1.241 . S
C449 O463 1.273 . S
C450 O464 1.251 . S
C450 O465 1.268 . S
C451 Nd441 2.836 . S
C451 C452 1.498 . S
C451 O466 1.258 . S
C451 O467 1.239 . S
C452 C451 1.498 . S
C452 C453 1.366 . S
C452 C457 1.407 . S
C453 C452 1.366 . S
C453 C454 1.392 . S
C453 H476 0.930 . S
C454 C453 1.392 . S
C454 C455 1.398 . S
C454 H477 0.929 . S
C455 C454 1.398 . S
C455 C456 1.352 . S
C456 C455 1.352 . S
C456 C457 1.384 . S
C456 H478 0.930 . S
C457 C452 1.407 . S
C457 C456 1.384 . S
C457 H479 0.929 . S
C458 O468 1.241 . S
C458 O469 1.273 . S
C459 O470 1.251 . S
C459 O471 1.268 . S
O460 Nd440 2.500 . S
O460 C442 1.258 . S
O461 Nd440 2.492 . S
O461 C442 1.239 . S
O462 Nd440 2.487 . S
O462 C449 1.241 . S
O463 Nd440 2.682 . S
O463 Nd441 2.414 . S
O463 C449 1.273 . S
O464 Nd440 2.410 . S
O464 C450 1.251 . S
O465 Nd441 2.424 . S
O465 C450 1.268 . S
O466 Nd441 2.500 . S
O466 C451 1.258 . S
O467 Nd441 2.492 . S
O467 C451 1.239 . S
O468 Nd441 2.487 . S
O468 C458 1.241 . S
O469 Nd440 2.414 . S
O469 Nd441 2.682 . S
O469 C458 1.273 . S
O470 Nd441 2.410 . S
O470 C459 1.251 . S
O471 Nd440 2.424 . S
O471 C459 1.268 . S
H472 C444 0.930 . S
H473 C445 0.929 . S
H474 C447 0.930 . S
H475 C448 0.929 . S
H476 C453 0.930 . S
H477 C454 0.929 . S
H478 C456 0.930 . S
H479 C457 0.929 . S
Nd480 C482 2.836 . S
Nd480 O500 2.500 . S
Nd480 O501 2.492 . S
Nd480 O502 2.487 . S
Nd480 O503 2.682 . S
Nd480 O504 2.410 . S
Nd480 O509 2.414 . S
Nd480 O511 2.424 . S
Nd481 C491 2.836 . S
Nd481 O503 2.414 . S
Nd481 O505 2.424 . S
Nd481 O506 2.500 . S
Nd481 O507 2.492 . S
Nd481 O508 2.487 . S
Nd481 O509 2.682 . S
Nd481 O510 2.410 . S
C482 Nd480 2.836 . S
C482 C483 1.498 . S
C482 O500 1.258 . S
C482 O501 1.239 . S
C483 C482 1.498 . S
C483 C484 1.366 . S
C483 C488 1.407 . S
C484 C483 1.366 . S
C484 C485 1.392 . S
C484 H512 0.930 . S
C485 C484 1.392 . S
C485 C486 1.398 . S
C485 H513 0.929 . S
C486 C485 1.398 . S
C486 C487 1.352 . S
C487 C486 1.352 . S
C487 C488 1.384 . S
C487 H514 0.930 . S
C488 C483 1.407 . S
C488 C487 1.384 . S
C488 H515 0.929 . S
C489 O502 1.241 . S
C489 O503 1.273 . S
C490 O504 1.251 . S
C490 O505 1.268 . S
C491 Nd481 2.836 . S
C491 C492 1.498 . S
C491 O506 1.258 . S
C491 O507 1.239 . S
C492 C491 1.498 . S
C492 C493 1.366 . S
C492 C497 1.407 . S
C493 C492 1.366 . S
C493 C494 1.392 . S
C493 H516 0.930 . S
C494 C493 1.392 . S
C494 C495 1.398 . S
C494 H517 0.929 . S
C495 C494 1.398 . S
C495 C496 1.352 . S
C496 C495 1.352 . S
C496 C497 1.384 . S
C496 H518 0.930 . S
C497 C492 1.407 . S
C497 C496 1.384 . S
C497 H519 0.929 . S
C498 O508 1.241 . S
C498 O509 1.273 . S
C499 O510 1.251 . S
C499 O511 1.268 . S
O500 Nd480 2.500 . S
O500 C482 1.258 . S
O501 Nd480 2.492 . S
O501 C482 1.239 . S
O502 Nd480 2.487 . S
O502 C489 1.241 . S
O503 Nd480 2.682 . S
O503 Nd481 2.414 . S
O503 C489 1.273 . S
O504 Nd480 2.410 . S
O504 C490 1.251 . S
O505 Nd481 2.424 . S
O505 C490 1.268 . S
O506 Nd481 2.500 . S
O506 C491 1.258 . S
O507 Nd481 2.492 . S
O507 C491 1.239 . S
O508 Nd481 2.487 . S
O508 C498 1.241 . S
O509 Nd480 2.414 . S
O509 Nd481 2.682 . S
O509 C498 1.273 . S
O510 Nd481 2.410 . S
O510 C499 1.251 . S
O511 Nd480 2.424 . S
O511 C499 1.268 . S
H512 C484 0.930 . S
H513 C485 0.929 . S
H514 C487 0.930 . S
H515 C488 0.929 . S
H516 C493 0.930 . S
H517 C494 0.929 . S
H518 C496 0.930 . S
H519 C497 0.929 . S
Nd520 C522 2.836 . S
Nd520 O540 2.500 . S
Nd520 O541 2.492 . S
Nd520 O542 2.487 . S
Nd520 O543 2.682 . S
Nd520 O544 2.410 . S
Nd520 O549 2.414 . S
Nd520 O551 2.424 . S
Nd521 C531 2.836 . S
Nd521 O543 2.414 . S
Nd521 O545 2.424 . S
Nd521 O546 2.500 . S
Nd521 O547 2.492 . S
Nd521 O548 2.487 . S
Nd521 O549 2.682 . S
Nd521 O550 2.410 . S
C522 Nd520 2.836 . S
C522 C523 1.498 . S
C522 O540 1.258 . S
C522 O541 1.239 . S
C523 C522 1.498 . S
C523 C524 1.366 . S
C523 C528 1.407 . S
C524 C523 1.366 . S
C524 C525 1.392 . S
C524 H552 0.930 . S
C525 C524 1.392 . S
C525 C526 1.398 . S
C525 H553 0.929 . S
C526 C525 1.398 . S
C526 C527 1.352 . S
C527 C526 1.352 . S
C527 C528 1.384 . S
C527 H554 0.930 . S
C528 C523 1.407 . S
C528 C527 1.384 . S
C528 H555 0.929 . S
C529 O542 1.241 . S
C529 O543 1.273 . S
C530 O544 1.251 . S
C530 O545 1.268 . S
C531 Nd521 2.836 . S
C531 C532 1.498 . S
C531 O546 1.258 . S
C531 O547 1.239 . S
C532 C531 1.498 . S
C532 C533 1.366 . S
C532 C537 1.407 . S
C533 C532 1.366 . S
C533 C534 1.392 . S
C533 H556 0.930 . S
C534 C533 1.392 . S
C534 C535 1.398 . S
C534 H557 0.929 . S
C535 C534 1.398 . S
C535 C536 1.352 . S
C536 C535 1.352 . S
C536 C537 1.384 . S
C536 H558 0.930 . S
C537 C532 1.407 . S
C537 C536 1.384 . S
C537 H559 0.929 . S
C538 O548 1.241 . S
C538 O549 1.273 . S
C539 O550 1.251 . S
C539 O551 1.268 . S
O540 Nd520 2.500 . S
O540 C522 1.258 . S
O541 Nd520 2.492 . S
O541 C522 1.239 . S
O542 Nd520 2.487 . S
O542 C529 1.241 . S
O543 Nd520 2.682 . S
O543 Nd521 2.414 . S
O543 C529 1.273 . S
O544 Nd520 2.410 . S
O544 C530 1.251 . S
O545 Nd521 2.424 . S
O545 C530 1.268 . S
O546 Nd521 2.500 . S
O546 C531 1.258 . S
O547 Nd521 2.492 . S
O547 C531 1.239 . S
O548 Nd521 2.487 . S
O548 C538 1.241 . S
O549 Nd520 2.414 . S
O549 Nd521 2.682 . S
O549 C538 1.273 . S
O550 Nd521 2.410 . S
O550 C539 1.251 . S
O551 Nd520 2.424 . S
O551 C539 1.268 . S
H552 C524 0.930 . S
H553 C525 0.929 . S
H554 C527 0.930 . S
H555 C528 0.929 . S
H556 C533 0.930 . S
H557 C534 0.929 . S
H558 C536 0.930 . S
H559 C537 0.929 . S
Nd560 C562 2.836 . S
Nd560 O580 2.500 . S
Nd560 O581 2.492 . S
Nd560 O582 2.487 . S
Nd560 O583 2.682 . S
Nd560 O584 2.410 . S
Nd560 O589 2.414 . S
Nd560 O591 2.424 . S
Nd561 C571 2.836 . S
Nd561 O583 2.414 . S
Nd561 O585 2.424 . S
Nd561 O586 2.500 . S
Nd561 O587 2.492 . S
Nd561 O588 2.487 . S
Nd561 O589 2.682 . S
Nd561 O590 2.410 . S
C562 Nd560 2.836 . S
C562 C563 1.498 . S
C562 O580 1.258 . S
C562 O581 1.239 . S
C563 C562 1.498 . S
C563 C564 1.366 . S
C563 C568 1.407 . S
C564 C563 1.366 . S
C564 C565 1.392 . S
C564 H592 0.930 . S
C565 C564 1.392 . S
C565 C566 1.398 . S
C565 H593 0.929 . S
C566 C565 1.398 . S
C566 C567 1.352 . S
C567 C566 1.352 . S
C567 C568 1.384 . S
C567 H594 0.930 . S
C568 C563 1.407 . S
C568 C567 1.384 . S
C568 H595 0.929 . S
C569 O582 1.241 . S
C569 O583 1.273 . S
C570 O584 1.251 . S
C570 O585 1.268 . S
C571 Nd561 2.836 . S
C571 C572 1.498 . S
C571 O586 1.258 . S
C571 O587 1.239 . S
C572 C571 1.498 . S
C572 C573 1.366 . S
C572 C577 1.407 . S
C573 C572 1.366 . S
C573 C574 1.392 . S
C573 H596 0.930 . S
C574 C573 1.392 . S
C574 C575 1.398 . S
C574 H597 0.929 . S
C575 C574 1.398 . S
C575 C576 1.352 . S
C576 C575 1.352 . S
C576 C577 1.384 . S
C576 H598 0.930 . S
C577 C572 1.407 . S
C577 C576 1.384 . S
C577 H599 0.929 . S
C578 O588 1.241 . S
C578 O589 1.273 . S
C579 O590 1.251 . S
C579 O591 1.268 . S
O580 Nd560 2.500 . S
O580 C562 1.258 . S
O581 Nd560 2.492 . S
O581 C562 1.239 . S
O582 Nd560 2.487 . S
O582 C569 1.241 . S
O583 Nd560 2.682 . S
O583 Nd561 2.414 . S
O583 C569 1.273 . S
O584 Nd560 2.410 . S
O584 C570 1.251 . S
O585 Nd561 2.424 . S
O585 C570 1.268 . S
O586 Nd561 2.500 . S
O586 C571 1.258 . S
O587 Nd561 2.492 . S
O587 C571 1.239 . S
O588 Nd561 2.487 . S
O588 C578 1.241 . S
O589 Nd560 2.414 . S
O589 Nd561 2.682 . S
O589 C578 1.273 . S
O590 Nd561 2.410 . S
O590 C579 1.251 . S
O591 Nd560 2.424 . S
O591 C579 1.268 . S
H592 C564 0.930 . S
H593 C565 0.929 . S
H594 C567 0.930 . S
H595 C568 0.929 . S
H596 C573 0.930 . S
H597 C574 0.929 . S
H598 C576 0.930 . S
H599 C577 0.929 . S
Nd600 C602 2.836 . S
Nd600 O620 2.500 . S
Nd600 O621 2.492 . S
Nd600 O622 2.487 . S
Nd600 O623 2.682 . S
Nd600 O624 2.410 . S
Nd600 O629 2.414 . S
Nd600 O631 2.424 . S
Nd601 C611 2.836 . S
Nd601 O623 2.414 . S
Nd601 O625 2.424 . S
Nd601 O626 2.500 . S
Nd601 O627 2.492 . S
Nd601 O628 2.487 . S
Nd601 O629 2.682 . S
Nd601 O630 2.410 . S
C602 Nd600 2.836 . S
C602 C603 1.498 . S
C602 O620 1.258 . S
C602 O621 1.239 . S
C603 C602 1.498 . S
C603 C604 1.366 . S
C603 C608 1.407 . S
C604 C603 1.366 . S
C604 C605 1.392 . S
C604 H632 0.930 . S
C605 C604 1.392 . S
C605 C606 1.398 . S
C605 H633 0.929 . S
C606 C605 1.398 . S
C606 C607 1.352 . S
C607 C606 1.352 . S
C607 C608 1.384 . S
C607 H634 0.930 . S
C608 C603 1.407 . S
C608 C607 1.384 . S
C608 H635 0.929 . S
C609 O622 1.241 . S
C609 O623 1.273 . S
C610 O624 1.251 . S
C610 O625 1.268 . S
C611 Nd601 2.836 . S
C611 C612 1.498 . S
C611 O626 1.258 . S
C611 O627 1.239 . S
C612 C611 1.498 . S
C612 C613 1.366 . S
C612 C617 1.407 . S
C613 C612 1.366 . S
C613 C614 1.392 . S
C613 H636 0.930 . S
C614 C613 1.392 . S
C614 C615 1.398 . S
C614 H637 0.929 . S
C615 C614 1.398 . S
C615 C616 1.352 . S
C616 C615 1.352 . S
C616 C617 1.384 . S
C616 H638 0.930 . S
C617 C612 1.407 . S
C617 C616 1.384 . S
C617 H639 0.929 . S
C618 O628 1.241 . S
C618 O629 1.273 . S
C619 O630 1.251 . S
C619 O631 1.268 . S
O620 Nd600 2.500 . S
O620 C602 1.258 . S
O621 Nd600 2.492 . S
O621 C602 1.239 . S
O622 Nd600 2.487 . S
O622 C609 1.241 . S
O623 Nd600 2.682 . S
O623 Nd601 2.414 . S
O623 C609 1.273 . S
O624 Nd600 2.410 . S
O624 C610 1.251 . S
O625 Nd601 2.424 . S
O625 C610 1.268 . S
O626 Nd601 2.500 . S
O626 C611 1.258 . S
O627 Nd601 2.492 . S
O627 C611 1.239 . S
O628 Nd601 2.487 . S
O628 C618 1.241 . S
O629 Nd600 2.414 . S
O629 Nd601 2.682 . S
O629 C618 1.273 . S
O630 Nd601 2.410 . S
O630 C619 1.251 . S
O631 Nd600 2.424 . S
O631 C619 1.268 . S
H632 C604 0.930 . S
H633 C605 0.929 . S
H634 C607 0.930 . S
H635 C608 0.929 . S
H636 C613 0.930 . S
H637 C614 0.929 . S
H638 C616 0.930 . S
H639 C617 0.929 . S
Nd640 C642 2.838 . S
Nd640 O660 2.500 1_545 S
Nd640 O661 2.492 . S
Nd640 O662 2.487 . S
Nd640 O663 2.682 . S
Nd640 O664 2.410 . S
Nd640 O669 2.414 1_545 S
Nd640 O671 2.430 . S
Nd641 C651 2.836 . S
Nd641 O663 2.414 . S
Nd641 O665 2.424 . S
Nd641 O666 2.500 . S
Nd641 O667 2.492 1_545 S
Nd641 O668 2.487 1_545 S
Nd641 O669 2.682 1_545 S
Nd641 O670 2.410 1_545 S
C642 Nd640 2.838 . S
C642 C643 1.496 1_545 S
C642 O660 1.243 1_545 S
C642 O661 1.255 . S
C643 C642 1.496 1_565 S
C643 C644 1.403 . S
C643 C648 1.373 1_565 S
C644 C643 1.403 . S
C644 C645 1.392 . S
C644 H672 0.930 . S
C645 C644 1.392 . S
C645 C646 1.398 . S
C645 H673 0.929 . S
C646 C645 1.398 . S
C646 C647 1.352 1_565 S
C647 C646 1.352 1_545 S
C647 C648 1.384 . S
C647 H674 0.930 . S
C648 C643 1.373 1_545 S
C648 C647 1.384 . S
C648 H675 0.929 . S
C649 O662 1.241 . S
C649 O663 1.273 . S
C650 O664 1.251 . S
C650 O665 1.268 . S
C651 Nd641 2.836 . S
C651 C652 1.498 . S
C651 O666 1.258 . S
C651 O667 1.239 1_545 S
C652 C651 1.498 . S
C652 C653 1.366 . S
C652 C657 1.407 1_545 S
C653 C652 1.366 . S
C653 C654 1.392 . S
C653 H676 0.930 . S
C654 C653 1.392 . S
C654 C655 1.398 . S
C654 H677 0.929 . S
C655 C654 1.398 . S
C655 C656 1.352 1_545 S
C656 C655 1.352 1_565 S
C656 C657 1.384 . S
C656 H678 0.930 . S
C657 C652 1.407 1_565 S
C657 C656 1.384 . S
C657 H679 0.929 . S
C658 O668 1.241 . S
C658 O669 1.273 . S
C659 O670 1.266 . S
C659 O671 1.261 1_565 S
O660 Nd640 2.500 1_565 S
O660 C642 1.243 1_565 S
O661 Nd640 2.492 . S
O661 C642 1.255 . S
O662 Nd640 2.487 . S
O662 C649 1.241 . S
O663 Nd640 2.682 . S
O663 Nd641 2.414 . S
O663 C649 1.273 . S
O664 Nd640 2.410 . S
O664 C650 1.251 . S
O665 Nd641 2.424 . S
O665 C650 1.268 . S
O666 Nd641 2.500 . S
O666 C651 1.258 . S
O667 Nd641 2.492 1_565 S
O667 C651 1.239 1_565 S
O668 Nd641 2.487 1_565 S
O668 C658 1.241 . S
O669 Nd640 2.414 1_565 S
O669 Nd641 2.682 1_565 S
O669 C658 1.273 . S
O670 Nd641 2.410 1_565 S
O670 C659 1.266 . S
O671 Nd640 2.430 . S
O671 C659 1.261 1_545 S
H672 C644 0.930 . S
H673 C645 0.929 . S
H674 C647 0.930 . S
H675 C648 0.929 . S
H676 C653 0.930 . S
H677 C654 0.929 . S
H678 C656 0.930 . S
H679 C657 0.929 . S
Nd680 C682 2.836 . S
Nd680 O700 2.500 . S
Nd680 O701 2.492 . S
Nd680 O702 2.487 . S
Nd680 O703 2.682 . S
Nd680 O704 2.410 . S
Nd680 O709 2.414 . S
Nd680 O711 2.424 . S
Nd681 C691 2.836 . S
Nd681 O703 2.414 . S
Nd681 O705 2.424 . S
Nd681 O706 2.500 . S
Nd681 O707 2.492 . S
Nd681 O708 2.487 . S
Nd681 O709 2.682 . S
Nd681 O710 2.410 . S
C682 Nd680 2.836 . S
C682 C683 1.498 . S
C682 O700 1.258 . S
C682 O701 1.239 . S
C683 C682 1.498 . S
C683 C684 1.366 . S
C683 C688 1.407 . S
C684 C683 1.366 . S
C684 C685 1.392 . S
C684 H712 0.930 . S
C685 C684 1.392 . S
C685 C686 1.398 . S
C685 H713 0.929 . S
C686 C685 1.398 . S
C686 C687 1.352 . S
C687 C686 1.352 . S
C687 C688 1.384 . S
C687 H714 0.930 . S
C688 C683 1.407 . S
C688 C687 1.384 . S
C688 H715 0.929 . S
C689 O702 1.241 . S
C689 O703 1.273 . S
C690 O704 1.251 . S
C690 O705 1.268 . S
C691 Nd681 2.836 . S
C691 C692 1.498 . S
C691 O706 1.258 . S
C691 O707 1.239 . S
C692 C691 1.498 . S
C692 C693 1.366 . S
C692 C697 1.407 . S
C693 C692 1.366 . S
C693 C694 1.392 . S
C693 H716 0.930 . S
C694 C693 1.392 . S
C694 C695 1.398 . S
C694 H717 0.929 . S
C695 C694 1.398 . S
C695 C696 1.352 . S
C696 C695 1.352 . S
C696 C697 1.384 . S
C696 H718 0.930 . S
C697 C692 1.407 . S
C697 C696 1.384 . S
C697 H719 0.929 . S
C698 O708 1.241 . S
C698 O709 1.273 . S
C699 O710 1.251 . S
C699 O711 1.268 . S
O700 Nd680 2.500 . S
O700 C682 1.258 . S
O701 Nd680 2.492 . S
O701 C682 1.239 . S
O702 Nd680 2.487 . S
O702 C689 1.241 . S
O703 Nd680 2.682 . S
O703 Nd681 2.414 . S
O703 C689 1.273 . S
O704 Nd680 2.410 . S
O704 C690 1.251 . S
O705 Nd681 2.424 . S
O705 C690 1.268 . S
O706 Nd681 2.500 . S
O706 C691 1.258 . S
O707 Nd681 2.492 . S
O707 C691 1.239 . S
O708 Nd681 2.487 . S
O708 C698 1.241 . S
O709 Nd680 2.414 . S
O709 Nd681 2.682 . S
O709 C698 1.273 . S
O710 Nd681 2.410 . S
O710 C699 1.251 . S
O711 Nd680 2.424 . S
O711 C699 1.268 . S
H712 C684 0.930 . S
H713 C685 0.929 . S
H714 C687 0.930 . S
H715 C688 0.929 . S
H716 C693 0.930 . S
H717 C694 0.929 . S
H718 C696 0.930 . S
H719 C697 0.929 . S
Nd720 C722 2.836 . S
Nd720 O740 2.500 . S
Nd720 O741 2.492 . S
Nd720 O742 2.487 . S
Nd720 O743 2.682 . S
Nd720 O744 2.410 . S
Nd720 O749 2.414 . S
Nd720 O751 2.424 . S
Nd721 C731 2.836 . S
Nd721 O743 2.414 . S
Nd721 O745 2.424 . S
Nd721 O746 2.500 . S
Nd721 O747 2.492 . S
Nd721 O748 2.487 . S
Nd721 O749 2.682 . S
Nd721 O750 2.410 . S
C722 Nd720 2.836 . S
C722 C723 1.498 . S
C722 O740 1.258 . S
C722 O741 1.239 . S
C723 C722 1.498 . S
C723 C724 1.366 . S
C723 C728 1.407 . S
C724 C723 1.366 . S
C724 C725 1.392 . S
C724 H752 0.930 . S
C725 C724 1.392 . S
C725 C726 1.398 . S
C725 H753 0.929 . S
C726 C725 1.398 . S
C726 C727 1.352 . S
C727 C726 1.352 . S
C727 C728 1.384 . S
C727 H754 0.930 . S
C728 C723 1.407 . S
C728 C727 1.384 . S
C728 H755 0.929 . S
C729 O742 1.241 . S
C729 O743 1.273 . S
C730 O744 1.251 . S
C730 O745 1.268 . S
C731 Nd721 2.836 . S
C731 C732 1.498 . S
C731 O746 1.258 . S
C731 O747 1.239 . S
C732 C731 1.498 . S
C732 C733 1.366 . S
C732 C737 1.407 . S
C733 C732 1.366 . S
C733 C734 1.392 . S
C733 H756 0.930 . S
C734 C733 1.392 . S
C734 C735 1.398 . S
C734 H757 0.929 . S
C735 C734 1.398 . S
C735 C736 1.352 . S
C736 C735 1.352 . S
C736 C737 1.384 . S
C736 H758 0.930 . S
C737 C732 1.407 . S
C737 C736 1.384 . S
C737 H759 0.929 . S
C738 O748 1.241 . S
C738 O749 1.273 . S
C739 O750 1.251 . S
C739 O751 1.268 . S
O740 Nd720 2.500 . S
O740 C722 1.258 . S
O741 Nd720 2.492 . S
O741 C722 1.239 . S
O742 Nd720 2.487 . S
O742 C729 1.241 . S
O743 Nd720 2.682 . S
O743 Nd721 2.414 . S
O743 C729 1.273 . S
O744 Nd720 2.410 . S
O744 C730 1.251 . S
O745 Nd721 2.424 . S
O745 C730 1.268 . S
O746 Nd721 2.500 . S
O746 C731 1.258 . S
O747 Nd721 2.492 . S
O747 C731 1.239 . S
O748 Nd721 2.487 . S
O748 C738 1.241 . S
O749 Nd720 2.414 . S
O749 Nd721 2.682 . S
O749 C738 1.273 . S
O750 Nd721 2.410 . S
O750 C739 1.251 . S
O751 Nd720 2.424 . S
O751 C739 1.268 . S
H752 C724 0.930 . S
H753 C725 0.929 . S
H754 C727 0.930 . S
H755 C728 0.929 . S
H756 C733 0.930 . S
H757 C734 0.929 . S
H758 C736 0.930 . S
H759 C737 0.929 . S
Nd760 C762 2.838 . S
Nd760 O780 2.500 1_545 S
Nd760 O781 2.492 . S
Nd760 O782 2.487 . S
Nd760 O783 2.682 . S
Nd760 O784 2.410 . S
Nd760 O789 2.414 1_545 S
Nd760 O791 2.430 . S
Nd761 C771 2.836 . S
Nd761 O783 2.414 . S
Nd761 O785 2.424 . S
Nd761 O786 2.500 . S
Nd761 O787 2.492 1_545 S
Nd761 O788 2.487 1_545 S
Nd761 O789 2.682 1_545 S
Nd761 O790 2.410 1_545 S
C762 Nd760 2.838 . S
C762 C763 1.496 1_545 S
C762 O780 1.243 1_545 S
C762 O781 1.255 . S
C763 C762 1.496 1_565 S
C763 C764 1.403 . S
C763 C768 1.373 1_565 S
C764 C763 1.403 . S
C764 C765 1.392 . S
C764 H792 0.930 . S
C765 C764 1.392 . S
C765 C766 1.398 . S
C765 H793 0.929 . S
C766 C765 1.398 . S
C766 C767 1.352 1_565 S
C767 C766 1.352 1_545 S
C767 C768 1.384 . S
C767 H794 0.930 . S
C768 C763 1.373 1_545 S
C768 C767 1.384 . S
C768 H795 0.929 . S
C769 O782 1.241 . S
C769 O783 1.273 . S
C770 O784 1.251 . S
C770 O785 1.268 . S
C771 Nd761 2.836 . S
C771 C772 1.498 . S
C771 O786 1.258 . S
C771 O787 1.239 1_545 S
C772 C771 1.498 . S
C772 C773 1.366 . S
C772 C777 1.407 1_545 S
C773 C772 1.366 . S
C773 C774 1.392 . S
C773 H796 0.930 . S
C774 C773 1.392 . S
C774 C775 1.398 . S
C774 H797 0.929 . S
C775 C774 1.398 . S
C775 C776 1.352 1_545 S
C776 C775 1.352 1_565 S
C776 C777 1.384 . S
C776 H798 0.930 . S
C777 C772 1.407 1_565 S
C777 C776 1.384 . S
C777 H799 0.929 . S
C778 O788 1.241 . S
C778 O789 1.273 . S
C779 O790 1.266 . S
C779 O791 1.261 1_565 S
O780 Nd760 2.500 1_565 S
O780 C762 1.243 1_565 S
O781 Nd760 2.492 . S
O781 C762 1.255 . S
O782 Nd760 2.487 . S
O782 C769 1.241 . S
O783 Nd760 2.682 . S
O783 Nd761 2.414 . S
O783 C769 1.273 . S
O784 Nd760 2.410 . S
O784 C770 1.251 . S
O785 Nd761 2.424 . S
O785 C770 1.268 . S
O786 Nd761 2.500 . S
O786 C771 1.258 . S
O787 Nd761 2.492 1_565 S
O787 C771 1.239 1_565 S
O788 Nd761 2.487 1_565 S
O788 C778 1.241 . S
O789 Nd760 2.414 1_565 S
O789 Nd761 2.682 1_565 S
O789 C778 1.273 . S
O790 Nd761 2.410 1_565 S
O790 C779 1.266 . S
O791 Nd760 2.430 . S
O791 C779 1.261 1_545 S
H792 C764 0.930 . S
H793 C765 0.929 . S
H794 C767 0.930 . S
H795 C768 0.929 . S
H796 C773 0.930 . S
H797 C774 0.929 . S
H798 C776 0.930 . S
H799 C777 0.929 . S
Nd800 C802 2.836 . S
Nd800 O820 2.500 . S
Nd800 O821 2.492 1_565 S
Nd800 O822 2.487 1_565 S
Nd800 O823 2.682 1_565 S
Nd800 O824 2.410 1_565 S
Nd800 O829 2.414 . S
Nd800 O831 2.424 . S
Nd801 C811 2.838 . S
Nd801 O823 2.414 1_565 S
Nd801 O825 2.430 . S
Nd801 O826 2.500 1_565 S
Nd801 O827 2.492 . S
Nd801 O828 2.487 . S
Nd801 O829 2.682 . S
Nd801 O830 2.410 . S
C802 Nd800 2.836 . S
C802 C803 1.498 . S
C802 O820 1.258 . S
C802 O821 1.239 1_565 S
C803 C802 1.498 . S
C803 C804 1.366 . S
C803 C808 1.407 1_565 S
C804 C803 1.366 . S
C804 C805 1.392 . S
C804 H832 0.930 . S
C805 C804 1.392 . S
C805 C806 1.398 . S
C805 H833 0.929 . S
C806 C805 1.398 . S
C806 C807 1.352 1_565 S
C807 C806 1.352 1_545 S
C807 C808 1.384 . S
C807 H834 0.930 . S
C808 C803 1.407 1_545 S
C808 C807 1.384 . S
C808 H835 0.929 . S
C809 O822 1.241 . S
C809 O823 1.273 . S
C810 O824 1.266 . S
C810 O825 1.261 1_545 S
C811 Nd801 2.838 . S
C811 C812 1.496 1_565 S
C811 O826 1.243 1_565 S
C811 O827 1.255 . S
C812 C811 1.496 1_545 S
C812 C813 1.403 . S
C812 C817 1.373 1_545 S
C813 C812 1.403 . S
C813 C814 1.392 . S
C813 H836 0.930 . S
C814 C813 1.392 . S
C814 C815 1.398 . S
C814 H837 0.929 . S
C815 C814 1.398 . S
C815 C816 1.352 1_545 S
C816 C815 1.352 1_565 S
C816 C817 1.384 . S
C816 H838 0.930 . S
C817 C812 1.373 1_565 S
C817 C816 1.384 . S
C817 H839 0.929 . S
C818 O828 1.241 . S
C818 O829 1.273 . S
C819 O830 1.251 . S
C819 O831 1.268 . S
O820 Nd800 2.500 . S
O820 C802 1.258 . S
O821 Nd800 2.492 1_545 S
O821 C802 1.239 1_545 S
O822 Nd800 2.487 1_545 S
O822 C809 1.241 . S
O823 Nd800 2.682 1_545 S
O823 Nd801 2.414 1_545 S
O823 C809 1.273 . S
O824 Nd800 2.410 1_545 S
O824 C810 1.266 . S
O825 Nd801 2.430 . S
O825 C810 1.261 1_565 S
O826 Nd801 2.500 1_545 S
O826 C811 1.243 1_545 S
O827 Nd801 2.492 . S
O827 C811 1.255 . S
O828 Nd801 2.487 . S
O828 C818 1.241 . S
O829 Nd800 2.414 . S
O829 Nd801 2.682 . S
O829 C818 1.273 . S
O830 Nd801 2.410 . S
O830 C819 1.251 . S
O831 Nd800 2.424 . S
O831 C819 1.268 . S
H832 C804 0.930 . S
H833 C805 0.929 . S
H834 C807 0.930 . S
H835 C808 0.929 . S
H836 C813 0.930 . S
H837 C814 0.929 . S
H838 C816 0.930 . S
H839 C817 0.929 . S
Nd840 C842 2.836 . S
Nd840 O860 2.500 . S
Nd840 O861 2.492 . S
Nd840 O862 2.487 . S
Nd840 O863 2.682 . S
Nd840 O864 2.410 . S
Nd840 O869 2.414 . S
Nd840 O871 2.424 . S
Nd841 C851 2.836 . S
Nd841 O863 2.414 . S
Nd841 O865 2.424 . S
Nd841 O866 2.500 . S
Nd841 O867 2.492 . S
Nd841 O868 2.487 . S
Nd841 O869 2.682 . S
Nd841 O870 2.410 . S
C842 Nd840 2.836 . S
C842 C843 1.498 . S
C842 O860 1.258 . S
C842 O861 1.239 . S
C843 C842 1.498 . S
C843 C844 1.366 . S
C843 C848 1.407 . S
C844 C843 1.366 . S
C844 C845 1.392 . S
C844 H872 0.930 . S
C845 C844 1.392 . S
C845 C846 1.398 . S
C845 H873 0.929 . S
C846 C845 1.398 . S
C846 C847 1.352 . S
C847 C846 1.352 . S
C847 C848 1.384 . S
C847 H874 0.930 . S
C848 C843 1.407 . S
C848 C847 1.384 . S
C848 H875 0.929 . S
C849 O862 1.241 . S
C849 O863 1.273 . S
C850 O864 1.251 . S
C850 O865 1.268 . S
C851 Nd841 2.836 . S
C851 C852 1.498 . S
C851 O866 1.258 . S
C851 O867 1.239 . S
C852 C851 1.498 . S
C852 C853 1.366 . S
C852 C857 1.407 . S
C853 C852 1.366 . S
C853 C854 1.392 . S
C853 H876 0.930 . S
C854 C853 1.392 . S
C854 C855 1.398 . S
C854 H877 0.929 . S
C855 C854 1.398 . S
C855 C856 1.352 . S
C856 C855 1.352 . S
C856 C857 1.384 . S
C856 H878 0.930 . S
C857 C852 1.407 . S
C857 C856 1.384 . S
C857 H879 0.929 . S
C858 O868 1.241 . S
C858 O869 1.273 . S
C859 O870 1.251 . S
C859 O871 1.268 . S
O860 Nd840 2.500 . S
O860 C842 1.258 . S
O861 Nd840 2.492 . S
O861 C842 1.239 . S
O862 Nd840 2.487 . S
O862 C849 1.241 . S
O863 Nd840 2.682 . S
O863 Nd841 2.414 . S
O863 C849 1.273 . S
O864 Nd840 2.410 . S
O864 C850 1.251 . S
O865 Nd841 2.424 . S
O865 C850 1.268 . S
O866 Nd841 2.500 . S
O866 C851 1.258 . S
O867 Nd841 2.492 . S
O867 C851 1.239 . S
O868 Nd841 2.487 . S
O868 C858 1.241 . S
O869 Nd840 2.414 . S
O869 Nd841 2.682 . S
O869 C858 1.273 . S
O870 Nd841 2.410 . S
O870 C859 1.251 . S
O871 Nd840 2.424 . S
O871 C859 1.268 . S
H872 C844 0.930 . S
H873 C845 0.929 . S
H874 C847 0.930 . S
H875 C848 0.929 . S
H876 C853 0.930 . S
H877 C854 0.929 . S
H878 C856 0.930 . S
H879 C857 0.929 . S
Nd880 C882 2.836 . S
Nd880 O900 2.500 . S
Nd880 O901 2.492 . S
Nd880 O902 2.487 . S
Nd880 O903 2.682 . S
Nd880 O904 2.410 . S
Nd880 O909 2.414 . S
Nd880 O911 2.424 . S
Nd881 C891 2.836 . S
Nd881 O903 2.414 . S
Nd881 O905 2.424 . S
Nd881 O906 2.500 . S
Nd881 O907 2.492 . S
Nd881 O908 2.487 . S
Nd881 O909 2.682 . S
Nd881 O910 2.410 . S
C882 Nd880 2.836 . S
C882 C883 1.498 . S
C882 O900 1.258 . S
C882 O901 1.239 . S
C883 C882 1.498 . S
C883 C884 1.366 . S
C883 C888 1.407 . S
C884 C883 1.366 . S
C884 C885 1.392 . S
C884 H912 0.930 . S
C885 C884 1.392 . S
C885 C886 1.398 . S
C885 H913 0.929 . S
C886 C885 1.398 . S
C886 C887 1.352 . S
C887 C886 1.352 . S
C887 C888 1.384 . S
C887 H914 0.930 . S
C888 C883 1.407 . S
C888 C887 1.384 . S
C888 H915 0.929 . S
C889 O902 1.241 . S
C889 O903 1.273 . S
C890 O904 1.251 . S
C890 O905 1.268 . S
C891 Nd881 2.836 . S
C891 C892 1.498 . S
C891 O906 1.258 . S
C891 O907 1.239 . S
C892 C891 1.498 . S
C892 C893 1.366 . S
C892 C897 1.407 . S
C893 C892 1.366 . S
C893 C894 1.392 . S
C893 H916 0.930 . S
C894 C893 1.392 . S
C894 C895 1.398 . S
C894 H917 0.929 . S
C895 C894 1.398 . S
C895 C896 1.352 . S
C896 C895 1.352 . S
C896 C897 1.384 . S
C896 H918 0.930 . S
C897 C892 1.407 . S
C897 C896 1.384 . S
C897 H919 0.929 . S
C898 O908 1.241 . S
C898 O909 1.273 . S
C899 O910 1.251 . S
C899 O911 1.268 . S
O900 Nd880 2.500 . S
O900 C882 1.258 . S
O901 Nd880 2.492 . S
O901 C882 1.239 . S
O902 Nd880 2.487 . S
O902 C889 1.241 . S
O903 Nd880 2.682 . S
O903 Nd881 2.414 . S
O903 C889 1.273 . S
O904 Nd880 2.410 . S
O904 C890 1.251 . S
O905 Nd881 2.424 . S
O905 C890 1.268 . S
O906 Nd881 2.500 . S
O906 C891 1.258 . S
O907 Nd881 2.492 . S
O907 C891 1.239 . S
O908 Nd881 2.487 . S
O908 C898 1.241 . S
O909 Nd880 2.414 . S
O909 Nd881 2.682 . S
O909 C898 1.273 . S
O910 Nd881 2.410 . S
O910 C899 1.251 . S
O911 Nd880 2.424 . S
O911 C899 1.268 . S
H912 C884 0.930 . S
H913 C885 0.929 . S
H914 C887 0.930 . S
H915 C888 0.929 . S
H916 C893 0.930 . S
H917 C894 0.929 . S
H918 C896 0.930 . S
H919 C897 0.929 . S
Nd920 C922 2.836 . S
Nd920 O940 2.500 . S
Nd920 O941 2.492 1_565 S
Nd920 O942 2.487 1_565 S
Nd920 O943 2.682 1_565 S
Nd920 O944 2.410 1_565 S
Nd920 O949 2.414 . S
Nd920 O951 2.424 . S
Nd921 C931 2.838 . S
Nd921 O943 2.414 1_565 S
Nd921 O945 2.430 . S
Nd921 O946 2.500 1_565 S
Nd921 O947 2.492 . S
Nd921 O948 2.487 . S
Nd921 O949 2.682 . S
Nd921 O950 2.410 . S
C922 Nd920 2.836 . S
C922 C923 1.498 . S
C922 O940 1.258 . S
C922 O941 1.239 1_565 S
C923 C922 1.498 . S
C923 C924 1.366 . S
C923 C928 1.407 1_565 S
C924 C923 1.366 . S
C924 C925 1.392 . S
C924 H952 0.930 . S
C925 C924 1.392 . S
C925 C926 1.398 . S
C925 H953 0.929 . S
C926 C925 1.398 . S
C926 C927 1.352 1_565 S
C927 C926 1.352 1_545 S
C927 C928 1.384 . S
C927 H954 0.930 . S
C928 C923 1.407 1_545 S
C928 C927 1.384 . S
C928 H955 0.929 . S
C929 O942 1.241 . S
C929 O943 1.273 . S
C930 O944 1.266 . S
C930 O945 1.261 1_545 S
C931 Nd921 2.838 . S
C931 C932 1.496 1_565 S
C931 O946 1.243 1_565 S
C931 O947 1.255 . S
C932 C931 1.496 1_545 S
C932 C933 1.403 . S
C932 C937 1.373 1_545 S
C933 C932 1.403 . S
C933 C934 1.392 . S
C933 H956 0.930 . S
C934 C933 1.392 . S
C934 C935 1.398 . S
C934 H957 0.929 . S
C935 C934 1.398 . S
C935 C936 1.352 1_545 S
C936 C935 1.352 1_565 S
C936 C937 1.384 . S
C936 H958 0.930 . S
C937 C932 1.373 1_565 S
C937 C936 1.384 . S
C937 H959 0.929 . S
C938 O948 1.241 . S
C938 O949 1.273 . S
C939 O950 1.251 . S
C939 O951 1.268 . S
O940 Nd920 2.500 . S
O940 C922 1.258 . S
O941 Nd920 2.492 1_545 S
O941 C922 1.239 1_545 S
O942 Nd920 2.487 1_545 S
O942 C929 1.241 . S
O943 Nd920 2.682 1_545 S
O943 Nd921 2.414 1_545 S
O943 C929 1.273 . S
O944 Nd920 2.410 1_545 S
O944 C930 1.266 . S
O945 Nd921 2.430 . S
O945 C930 1.261 1_565 S
O946 Nd921 2.500 1_545 S
O946 C931 1.243 1_545 S
O947 Nd921 2.492 . S
O947 C931 1.255 . S
O948 Nd921 2.487 . S
O948 C938 1.241 . S
O949 Nd920 2.414 . S
O949 Nd921 2.682 . S
O949 C938 1.273 . S
O950 Nd921 2.410 . S
O950 C939 1.251 . S
O951 Nd920 2.424 . S
O951 C939 1.268 . S
H952 C924 0.930 . S
H953 C925 0.929 . S
H954 C927 0.930 . S
H955 C928 0.929 . S
H956 C933 0.930 . S
H957 C934 0.929 . S
H958 C936 0.930 . S
H959 C937 0.929 . S
Nd960 C962 2.836 . S
Nd960 O980 2.500 . S
Nd960 O981 2.492 . S
Nd960 O982 2.487 . S
Nd960 O983 2.682 . S
Nd960 O984 2.410 . S
Nd960 O989 2.414 . S
Nd960 O991 2.424 . S
Nd961 C971 2.836 . S
Nd961 O983 2.414 . S
Nd961 O985 2.424 . S
Nd961 O986 2.500 . S
Nd961 O987 2.492 . S
Nd961 O988 2.487 . S
Nd961 O989 2.682 . S
Nd961 O990 2.410 . S
C962 Nd960 2.836 . S
C962 C963 1.498 . S
C962 O980 1.258 . S
C962 O981 1.239 . S
C963 C962 1.498 . S
C963 C964 1.366 1_554 S
C963 C968 1.407 . S
C964 C963 1.366 1_556 S
C964 C965 1.392 . S
C964 H992 0.930 . S
C965 C964 1.392 . S
C965 C966 1.398 . S
C965 H993 0.929 . S
C966 C965 1.398 . S
C966 C967 1.352 . S
C967 C966 1.352 . S
C967 C968 1.384 1_556 S
C967 H994 0.930 . S
C968 C963 1.407 . S
C968 C967 1.384 1_554 S
C968 H995 0.929 . S
C969 O982 1.241 . S
C969 O983 1.273 . S
C970 O984 1.251 . S
C970 O985 1.268 . S
C971 Nd961 2.836 . S
C971 C972 1.498 . S
C971 O986 1.258 . S
C971 O987 1.239 . S
C972 C971 1.498 . S
C972 C973 1.366 . S
C972 C977 1.407 . S
C973 C972 1.366 . S
C973 C974 1.392 . S
C973 H996 0.930 . S
C974 C973 1.392 . S
C974 C975 1.398 . S
C974 H997 0.929 . S
C975 C974 1.398 . S
C975 C976 1.352 . S
C976 C975 1.352 . S
C976 C977 1.384 . S
C976 H998 0.930 . S
C977 C972 1.407 . S
C977 C976 1.384 . S
C977 H999 0.929 . S
C978 O988 1.241 . S
C978 O989 1.273 . S
C979 O990 1.251 . S
C979 O991 1.268 . S
O980 Nd960 2.500 . S
O980 C962 1.258 . S
O981 Nd960 2.492 . S
O981 C962 1.239 . S
O982 Nd960 2.487 . S
O982 C969 1.241 . S
O983 Nd960 2.682 . S
O983 Nd961 2.414 . S
O983 C969 1.273 . S
O984 Nd960 2.410 . S
O984 C970 1.251 . S
O985 Nd961 2.424 . S
O985 C970 1.268 . S
O986 Nd961 2.500 . S
O986 C971 1.258 . S
O987 Nd961 2.492 . S
O987 C971 1.239 . S
O988 Nd961 2.487 . S
O988 C978 1.241 . S
O989 Nd960 2.414 . S
O989 Nd961 2.682 . S
O989 C978 1.273 . S
O990 Nd961 2.410 . S
O990 C979 1.251 . S
O991 Nd960 2.424 . S
O991 C979 1.268 . S
H992 C964 0.930 . S
H993 C965 0.929 . S
H994 C967 0.930 . S
H995 C968 0.929 . S
H996 C973 0.930 . S
H997 C974 0.929 . S
H998 C976 0.930 . S
H999 C977 0.929 . S
Nd1000 C1002 2.836 . S
Nd1000 O1020 2.500 . S
Nd1000 O1021 2.492 . S
Nd1000 O1022 2.487 . S
Nd1000 O1023 2.682 . S
Nd1000 O1024 2.410 . S
Nd1000 O1029 2.414 . S
Nd1000 O1031 2.424 . S
Nd1001 C1011 2.836 . S
Nd1001 O1023 2.414 . S
Nd1001 O1025 2.424 . S
Nd1001 O1026 2.500 . S
Nd1001 O1027 2.492 . S
Nd1001 O1028 2.487 . S
Nd1001 O1029 2.682 . S
Nd1001 O1030 2.410 . S
C1002 Nd1000 2.836 . S
C1002 C1003 1.498 . S
C1002 O1020 1.258 . S
C1002 O1021 1.239 . S
C1003 C1002 1.498 . S
C1003 C1004 1.366 1_554 S
C1003 C1008 1.407 . S
C1004 C1003 1.366 1_556 S
C1004 C1005 1.392 . S
C1004 H1032 0.930 . S
C1005 C1004 1.392 . S
C1005 C1006 1.398 . S
C1005 H1033 0.929 . S
C1006 C1005 1.398 . S
C1006 C1007 1.352 . S
C1007 C1006 1.352 . S
C1007 C1008 1.384 1_556 S
C1007 H1034 0.930 . S
C1008 C1003 1.407 . S
C1008 C1007 1.384 1_554 S
C1008 H1035 0.929 . S
C1009 O1022 1.241 . S
C1009 O1023 1.273 . S
C1010 O1024 1.251 . S
C1010 O1025 1.268 . S
C1011 Nd1001 2.836 . S
C1011 C1012 1.498 . S
C1011 O1026 1.258 . S
C1011 O1027 1.239 . S
C1012 C1011 1.498 . S
C1012 C1013 1.366 . S
C1012 C1017 1.407 . S
C1013 C1012 1.366 . S
C1013 C1014 1.392 . S
C1013 H1036 0.930 . S
C1014 C1013 1.392 . S
C1014 C1015 1.398 . S
C1014 H1037 0.929 . S
C1015 C1014 1.398 . S
C1015 C1016 1.352 . S
C1016 C1015 1.352 . S
C1016 C1017 1.384 . S
C1016 H1038 0.930 . S
C1017 C1012 1.407 . S
C1017 C1016 1.384 . S
C1017 H1039 0.929 . S
C1018 O1028 1.241 . S
C1018 O1029 1.273 . S
C1019 O1030 1.251 . S
C1019 O1031 1.268 . S
O1020 Nd1000 2.500 . S
O1020 C1002 1.258 . S
O1021 Nd1000 2.492 . S
O1021 C1002 1.239 . S
O1022 Nd1000 2.487 . S
O1022 C1009 1.241 . S
O1023 Nd1000 2.682 . S
O1023 Nd1001 2.414 . S
O1023 C1009 1.273 . S
O1024 Nd1000 2.410 . S
O1024 C1010 1.251 . S
O1025 Nd1001 2.424 . S
O1025 C1010 1.268 . S
O1026 Nd1001 2.500 . S
O1026 C1011 1.258 . S
O1027 Nd1001 2.492 . S
O1027 C1011 1.239 . S
O1028 Nd1001 2.487 . S
O1028 C1018 1.241 . S
O1029 Nd1000 2.414 . S
O1029 Nd1001 2.682 . S
O1029 C1018 1.273 . S
O1030 Nd1001 2.410 . S
O1030 C1019 1.251 . S
O1031 Nd1000 2.424 . S
O1031 C1019 1.268 . S
H1032 C1004 0.930 . S
H1033 C1005 0.929 . S
H1034 C1007 0.930 . S
H1035 C1008 0.929 . S
H1036 C1013 0.930 . S
H1037 C1014 0.929 . S
H1038 C1016 0.930 . S
H1039 C1017 0.929 . S
Nd1040 C1042 2.836 . S
Nd1040 O1060 2.500 . S
Nd1040 O1061 2.492 . S
Nd1040 O1062 2.487 . S
Nd1040 O1063 2.682 . S
Nd1040 O1064 2.410 . S
Nd1040 O1069 2.414 . S
Nd1040 O1071 2.424 . S
Nd1041 C1051 2.836 . S
Nd1041 O1063 2.414 . S
Nd1041 O1065 2.424 . S
Nd1041 O1066 2.500 . S
Nd1041 O1067 2.492 . S
Nd1041 O1068 2.487 . S
Nd1041 O1069 2.682 . S
Nd1041 O1070 2.410 . S
C1042 Nd1040 2.836 . S
C1042 C1043 1.498 . S
C1042 O1060 1.258 . S
C1042 O1061 1.239 . S
C1043 C1042 1.498 . S
C1043 C1044 1.366 . S
C1043 C1048 1.407 . S
C1044 C1043 1.366 . S
C1044 C1045 1.392 . S
C1044 H1072 0.930 . S
C1045 C1044 1.392 . S
C1045 C1046 1.398 . S
C1045 H1073 0.929 . S
C1046 C1045 1.398 . S
C1046 C1047 1.352 . S
C1047 C1046 1.352 . S
C1047 C1048 1.384 . S
C1047 H1074 0.930 . S
C1048 C1043 1.407 . S
C1048 C1047 1.384 . S
C1048 H1075 0.929 . S
C1049 O1062 1.241 . S
C1049 O1063 1.273 . S
C1050 O1064 1.251 . S
C1050 O1065 1.268 . S
C1051 Nd1041 2.836 . S
C1051 C1052 1.498 . S
C1051 O1066 1.258 . S
C1051 O1067 1.239 . S
C1052 C1051 1.498 . S
C1052 C1053 1.366 . S
C1052 C1057 1.407 . S
C1053 C1052 1.366 . S
C1053 C1054 1.392 . S
C1053 H1076 0.930 . S
C1054 C1053 1.392 . S
C1054 C1055 1.398 . S
C1054 H1077 0.929 . S
C1055 C1054 1.398 . S
C1055 C1056 1.352 . S
C1056 C1055 1.352 . S
C1056 C1057 1.384 . S
C1056 H1078 0.930 . S
C1057 C1052 1.407 . S
C1057 C1056 1.384 . S
C1057 H1079 0.929 . S
C1058 O1068 1.241 . S
C1058 O1069 1.273 . S
C1059 O1070 1.251 . S
C1059 O1071 1.268 . S
O1060 Nd1040 2.500 . S
O1060 C1042 1.258 . S
O1061 Nd1040 2.492 . S
O1061 C1042 1.239 . S
O1062 Nd1040 2.487 . S
O1062 C1049 1.241 . S
O1063 Nd1040 2.682 . S
O1063 Nd1041 2.414 . S
O1063 C1049 1.273 . S
O1064 Nd1040 2.410 . S
O1064 C1050 1.251 . S
O1065 Nd1041 2.424 . S
O1065 C1050 1.268 . S
O1066 Nd1041 2.500 . S
O1066 C1051 1.258 . S
O1067 Nd1041 2.492 . S
O1067 C1051 1.239 . S
O1068 Nd1041 2.487 . S
O1068 C1058 1.241 . S
O1069 Nd1040 2.414 . S
O1069 Nd1041 2.682 . S
O1069 C1058 1.273 . S
O1070 Nd1041 2.410 . S
O1070 C1059 1.251 . S
O1071 Nd1040 2.424 . S
O1071 C1059 1.268 . S
H1072 C1044 0.930 . S
H1073 C1045 0.929 . S
H1074 C1047 0.930 . S
H1075 C1048 0.929 . S
H1076 C1053 0.930 . S
H1077 C1054 0.929 . S
H1078 C1056 0.930 . S
H1079 C1057 0.929 . S
Nd1080 C1082 2.836 . S
Nd1080 O1100 2.500 . S
Nd1080 O1101 2.492 . S
Nd1080 O1102 2.487 . S
Nd1080 O1103 2.682 . S
Nd1080 O1104 2.410 . S
Nd1080 O1109 2.414 . S
Nd1080 O1111 2.424 . S
Nd1081 C1091 2.836 . S
Nd1081 O1103 2.414 . S
Nd1081 O1105 2.424 . S
Nd1081 O1106 2.500 . S
Nd1081 O1107 2.492 . S
Nd1081 O1108 2.487 . S
Nd1081 O1109 2.682 . S
Nd1081 O1110 2.410 . S
C1082 Nd1080 2.836 . S
C1082 C1083 1.498 . S
C1082 O1100 1.258 . S
C1082 O1101 1.239 . S
C1083 C1082 1.498 . S
C1083 C1084 1.366 . S
C1083 C1088 1.407 . S
C1084 C1083 1.366 . S
C1084 C1085 1.392 . S
C1084 H1112 0.930 . S
C1085 C1084 1.392 . S
C1085 C1086 1.398 . S
C1085 H1113 0.929 . S
C1086 C1085 1.398 . S
C1086 C1087 1.352 . S
C1087 C1086 1.352 . S
C1087 C1088 1.384 . S
C1087 H1114 0.930 . S
C1088 C1083 1.407 . S
C1088 C1087 1.384 . S
C1088 H1115 0.929 . S
C1089 O1102 1.241 . S
C1089 O1103 1.273 . S
C1090 O1104 1.251 . S
C1090 O1105 1.268 . S
C1091 Nd1081 2.836 . S
C1091 C1092 1.498 . S
C1091 O1106 1.258 . S
C1091 O1107 1.239 . S
C1092 C1091 1.498 . S
C1092 C1093 1.366 . S
C1092 C1097 1.407 . S
C1093 C1092 1.366 . S
C1093 C1094 1.392 . S
C1093 H1116 0.930 . S
C1094 C1093 1.392 . S
C1094 C1095 1.398 . S
C1094 H1117 0.929 . S
C1095 C1094 1.398 . S
C1095 C1096 1.352 . S
C1096 C1095 1.352 . S
C1096 C1097 1.384 . S
C1096 H1118 0.930 . S
C1097 C1092 1.407 . S
C1097 C1096 1.384 . S
C1097 H1119 0.929 . S
C1098 O1108 1.241 . S
C1098 O1109 1.273 . S
C1099 O1110 1.251 . S
C1099 O1111 1.268 . S
O1100 Nd1080 2.500 . S
O1100 C1082 1.258 . S
O1101 Nd1080 2.492 . S
O1101 C1082 1.239 . S
O1102 Nd1080 2.487 . S
O1102 C1089 1.241 . S
O1103 Nd1080 2.682 . S
O1103 Nd1081 2.414 . S
O1103 C1089 1.273 . S
O1104 Nd1080 2.410 . S
O1104 C1090 1.251 . S
O1105 Nd1081 2.424 . S
O1105 C1090 1.268 . S
O1106 Nd1081 2.500 . S
O1106 C1091 1.258 . S
O1107 Nd1081 2.492 . S
O1107 C1091 1.239 . S
O1108 Nd1081 2.487 . S
O1108 C1098 1.241 . S
O1109 Nd1080 2.414 . S
O1109 Nd1081 2.682 . S
O1109 C1098 1.273 . S
O1110 Nd1081 2.410 . S
O1110 C1099 1.251 . S
O1111 Nd1080 2.424 . S
O1111 C1099 1.268 . S
H1112 C1084 0.930 . S
H1113 C1085 0.929 . S
H1114 C1087 0.930 . S
H1115 C1088 0.929 . S
H1116 C1093 0.930 . S
H1117 C1094 0.929 . S
H1118 C1096 0.930 . S
H1119 C1097 0.929 . S
Nd1120 C1122 2.836 . S
Nd1120 O1140 2.500 . S
Nd1120 O1141 2.492 . S
Nd1120 O1142 2.487 . S
Nd1120 O1143 2.682 . S
Nd1120 O1144 2.410 . S
Nd1120 O1149 2.414 . S
Nd1120 O1151 2.424 . S
Nd1121 C1131 2.836 . S
Nd1121 O1143 2.414 . S
Nd1121 O1145 2.424 . S
Nd1121 O1146 2.500 . S
Nd1121 O1147 2.492 . S
Nd1121 O1148 2.487 . S
Nd1121 O1149 2.682 . S
Nd1121 O1150 2.410 . S
C1122 Nd1120 2.836 . S
C1122 C1123 1.498 . S
C1122 O1140 1.258 . S
C1122 O1141 1.239 . S
C1123 C1122 1.498 . S
C1123 C1124 1.366 . S
C1123 C1128 1.407 . S
C1124 C1123 1.366 . S
C1124 C1125 1.392 . S
C1124 H1152 0.930 . S
C1125 C1124 1.392 . S
C1125 C1126 1.398 . S
C1125 H1153 0.929 . S
C1126 C1125 1.398 . S
C1126 C1127 1.352 . S
C1127 C1126 1.352 . S
C1127 C1128 1.384 . S
C1127 H1154 0.930 . S
C1128 C1123 1.407 . S
C1128 C1127 1.384 . S
C1128 H1155 0.929 . S
C1129 O1142 1.241 . S
C1129 O1143 1.273 . S
C1130 O1144 1.251 . S
C1130 O1145 1.268 . S
C1131 Nd1121 2.836 . S
C1131 C1132 1.498 . S
C1131 O1146 1.258 . S
C1131 O1147 1.239 . S
C1132 C1131 1.498 . S
C1132 C1133 1.366 1_556 S
C1132 C1137 1.407 . S
C1133 C1132 1.366 1_554 S
C1133 C1134 1.392 . S
C1133 H1156 0.930 . S
C1134 C1133 1.392 . S
C1134 C1135 1.398 . S
C1134 H1157 0.929 . S
C1135 C1134 1.398 . S
C1135 C1136 1.352 . S
C1136 C1135 1.352 . S
C1136 C1137 1.384 1_554 S
C1136 H1158 0.930 . S
C1137 C1132 1.407 . S
C1137 C1136 1.384 1_556 S
C1137 H1159 0.929 . S
C1138 O1148 1.241 . S
C1138 O1149 1.273 . S
C1139 O1150 1.251 . S
C1139 O1151 1.268 . S
O1140 Nd1120 2.500 . S
O1140 C1122 1.258 . S
O1141 Nd1120 2.492 . S
O1141 C1122 1.239 . S
O1142 Nd1120 2.487 . S
O1142 C1129 1.241 . S
O1143 Nd1120 2.682 . S
O1143 Nd1121 2.414 . S
O1143 C1129 1.273 . S
O1144 Nd1120 2.410 . S
O1144 C1130 1.251 . S
O1145 Nd1121 2.424 . S
O1145 C1130 1.268 . S
O1146 Nd1121 2.500 . S
O1146 C1131 1.258 . S
O1147 Nd1121 2.492 . S
O1147 C1131 1.239 . S
O1148 Nd1121 2.487 . S
O1148 C1138 1.241 . S
O1149 Nd1120 2.414 . S
O1149 Nd1121 2.682 . S
O1149 C1138 1.273 . S
O1150 Nd1121 2.410 . S
O1150 C1139 1.251 . S
O1151 Nd1120 2.424 . S
O1151 C1139 1.268 . S
H1152 C1124 0.930 . S
H1153 C1125 0.929 . S
H1154 C1127 0.930 . S
H1155 C1128 0.929 . S
H1156 C1133 0.930 . S
H1157 C1134 0.929 . S
H1158 C1136 0.930 . S
H1159 C1137 0.929 . S
Nd1160 C1162 2.836 . S
Nd1160 O1180 2.500 . S
Nd1160 O1181 2.492 . S
Nd1160 O1182 2.487 . S
Nd1160 O1183 2.682 . S
Nd1160 O1184 2.410 . S
Nd1160 O1189 2.414 . S
Nd1160 O1191 2.424 . S
Nd1161 C1171 2.836 . S
Nd1161 O1183 2.414 . S
Nd1161 O1185 2.424 . S
Nd1161 O1186 2.500 . S
Nd1161 O1187 2.492 . S
Nd1161 O1188 2.487 . S
Nd1161 O1189 2.682 . S
Nd1161 O1190 2.410 . S
C1162 Nd1160 2.836 . S
C1162 C1163 1.498 . S
C1162 O1180 1.258 . S
C1162 O1181 1.239 . S
C1163 C1162 1.498 . S
C1163 C1164 1.366 . S
C1163 C1168 1.407 . S
C1164 C1163 1.366 . S
C1164 C1165 1.392 . S
C1164 H1192 0.930 . S
C1165 C1164 1.392 . S
C1165 C1166 1.398 . S
C1165 H1193 0.929 . S
C1166 C1165 1.398 . S
C1166 C1167 1.352 . S
C1167 C1166 1.352 . S
C1167 C1168 1.384 . S
C1167 H1194 0.930 . S
C1168 C1163 1.407 . S
C1168 C1167 1.384 . S
C1168 H1195 0.929 . S
C1169 O1182 1.241 . S
C1169 O1183 1.273 . S
C1170 O1184 1.251 . S
C1170 O1185 1.268 . S
C1171 Nd1161 2.836 . S
C1171 C1172 1.498 . S
C1171 O1186 1.258 . S
C1171 O1187 1.239 . S
C1172 C1171 1.498 . S
C1172 C1173 1.366 1_556 S
C1172 C1177 1.407 . S
C1173 C1172 1.366 1_554 S
C1173 C1174 1.392 . S
C1173 H1196 0.930 . S
C1174 C1173 1.392 . S
C1174 C1175 1.398 . S
C1174 H1197 0.929 . S
C1175 C1174 1.398 . S
C1175 C1176 1.352 . S
C1176 C1175 1.352 . S
C1176 C1177 1.384 1_554 S
C1176 H1198 0.930 . S
C1177 C1172 1.407 . S
C1177 C1176 1.384 1_556 S
C1177 H1199 0.929 . S
C1178 O1188 1.241 . S
C1178 O1189 1.273 . S
C1179 O1190 1.251 . S
C1179 O1191 1.268 . S
O1180 Nd1160 2.500 . S
O1180 C1162 1.258 . S
O1181 Nd1160 2.492 . S
O1181 C1162 1.239 . S
O1182 Nd1160 2.487 . S
O1182 C1169 1.241 . S
O1183 Nd1160 2.682 . S
O1183 Nd1161 2.414 . S
O1183 C1169 1.273 . S
O1184 Nd1160 2.410 . S
O1184 C1170 1.251 . S
O1185 Nd1161 2.424 . S
O1185 C1170 1.268 . S
O1186 Nd1161 2.500 . S
O1186 C1171 1.258 . S
O1187 Nd1161 2.492 . S
O1187 C1171 1.239 . S
O1188 Nd1161 2.487 . S
O1188 C1178 1.241 . S
O1189 Nd1160 2.414 . S
O1189 Nd1161 2.682 . S
O1189 C1178 1.273 . S
O1190 Nd1161 2.410 . S
O1190 C1179 1.251 . S
O1191 Nd1160 2.424 . S
O1191 C1179 1.268 . S
H1192 C1164 0.930 . S
H1193 C1165 0.929 . S
H1194 C1167 0.930 . S
H1195 C1168 0.929 . S
H1196 C1173 0.930 . S
H1197 C1174 0.929 . S
H1198 C1176 0.930 . S
H1199 C1177 0.929 . S
Nd1200 C1202 2.836 . S
Nd1200 O1220 2.500 . S
Nd1200 O1221 2.492 . S
Nd1200 O1222 2.487 . S
Nd1200 O1223 2.682 . S
Nd1200 O1224 2.410 . S
Nd1200 O1229 2.414 . S
Nd1200 O1231 2.424 . S
Nd1201 C1211 2.836 . S
Nd1201 O1223 2.414 . S
Nd1201 O1225 2.424 . S
Nd1201 O1226 2.500 . S
Nd1201 O1227 2.492 . S
Nd1201 O1228 2.487 . S
Nd1201 O1229 2.682 . S
Nd1201 O1230 2.410 . S
C1202 Nd1200 2.836 . S
C1202 C1203 1.498 . S
C1202 O1220 1.258 . S
C1202 O1221 1.239 . S
C1203 C1202 1.498 . S
C1203 C1204 1.366 . S
C1203 C1208 1.407 . S
C1204 C1203 1.366 . S
C1204 C1205 1.392 . S
C1204 H1232 0.930 . S
C1205 C1204 1.392 . S
C1205 C1206 1.398 . S
C1205 H1233 0.929 . S
C1206 C1205 1.398 . S
C1206 C1207 1.352 . S
C1207 C1206 1.352 . S
C1207 C1208 1.384 . S
C1207 H1234 0.930 . S
C1208 C1203 1.407 . S
C1208 C1207 1.384 . S
C1208 H1235 0.929 . S
C1209 O1222 1.241 . S
C1209 O1223 1.273 . S
C1210 O1224 1.251 . S
C1210 O1225 1.268 . S
C1211 Nd1201 2.836 . S
C1211 C1212 1.498 . S
C1211 O1226 1.258 . S
C1211 O1227 1.239 . S
C1212 C1211 1.498 . S
C1212 C1213 1.366 . S
C1212 C1217 1.407 . S
C1213 C1212 1.366 . S
C1213 C1214 1.392 . S
C1213 H1236 0.930 . S
C1214 C1213 1.392 . S
C1214 C1215 1.398 . S
C1214 H1237 0.929 . S
C1215 C1214 1.398 . S
C1215 C1216 1.352 . S
C1216 C1215 1.352 . S
C1216 C1217 1.384 . S
C1216 H1238 0.930 . S
C1217 C1212 1.407 . S
C1217 C1216 1.384 . S
C1217 H1239 0.929 . S
C1218 O1228 1.241 . S
C1218 O1229 1.273 . S
C1219 O1230 1.251 . S
C1219 O1231 1.268 . S
O1220 Nd1200 2.500 . S
O1220 C1202 1.258 . S
O1221 Nd1200 2.492 . S
O1221 C1202 1.239 . S
O1222 Nd1200 2.487 . S
O1222 C1209 1.241 . S
O1223 Nd1200 2.682 . S
O1223 Nd1201 2.414 . S
O1223 C1209 1.273 . S
O1224 Nd1200 2.410 . S
O1224 C1210 1.251 . S
O1225 Nd1201 2.424 . S
O1225 C1210 1.268 . S
O1226 Nd1201 2.500 . S
O1226 C1211 1.258 . S
O1227 Nd1201 2.492 . S
O1227 C1211 1.239 . S
O1228 Nd1201 2.487 . S
O1228 C1218 1.241 . S
O1229 Nd1200 2.414 . S
O1229 Nd1201 2.682 . S
O1229 C1218 1.273 . S
O1230 Nd1201 2.410 . S
O1230 C1219 1.251 . S
O1231 Nd1200 2.424 . S
O1231 C1219 1.268 . S
H1232 C1204 0.930 . S
H1233 C1205 0.929 . S
H1234 C1207 0.930 . S
H1235 C1208 0.929 . S
H1236 C1213 0.930 . S
H1237 C1214 0.929 . S
H1238 C1216 0.930 . S
H1239 C1217 0.929 . S
Nd1240 C1242 2.836 . S
Nd1240 O1260 2.500 . S
Nd1240 O1261 2.492 . S
Nd1240 O1262 2.487 . S
Nd1240 O1263 2.682 . S
Nd1240 O1264 2.410 . S
Nd1240 O1269 2.414 . S
Nd1240 O1271 2.424 . S
Nd1241 C1251 2.836 . S
Nd1241 O1263 2.414 . S
Nd1241 O1265 2.424 . S
Nd1241 O1266 2.500 . S
Nd1241 O1267 2.492 . S
Nd1241 O1268 2.487 . S
Nd1241 O1269 2.682 . S
Nd1241 O1270 2.410 . S
C1242 Nd1240 2.836 . S
C1242 C1243 1.498 . S
C1242 O1260 1.258 . S
C1242 O1261 1.239 . S
C1243 C1242 1.498 . S
C1243 C1244 1.366 . S
C1243 C1248 1.407 . S
C1244 C1243 1.366 . S
C1244 C1245 1.392 . S
C1244 H1272 0.930 . S
C1245 C1244 1.392 . S
C1245 C1246 1.398 . S
C1245 H1273 0.929 . S
C1246 C1245 1.398 . S
C1246 C1247 1.352 . S
C1247 C1246 1.352 . S
C1247 C1248 1.384 . S
C1247 H1274 0.930 . S
C1248 C1243 1.407 . S
C1248 C1247 1.384 . S
C1248 H1275 0.929 . S
C1249 O1262 1.241 . S
C1249 O1263 1.273 . S
C1250 O1264 1.251 . S
C1250 O1265 1.268 . S
C1251 Nd1241 2.836 . S
C1251 C1252 1.498 . S
C1251 O1266 1.258 . S
C1251 O1267 1.239 . S
C1252 C1251 1.498 . S
C1252 C1253 1.366 . S
C1252 C1257 1.407 . S
C1253 C1252 1.366 . S
C1253 C1254 1.392 . S
C1253 H1276 0.930 . S
C1254 C1253 1.392 . S
C1254 C1255 1.398 . S
C1254 H1277 0.929 . S
C1255 C1254 1.398 . S
C1255 C1256 1.352 . S
C1256 C1255 1.352 . S
C1256 C1257 1.384 . S
C1256 H1278 0.930 . S
C1257 C1252 1.407 . S
C1257 C1256 1.384 . S
C1257 H1279 0.929 . S
C1258 O1268 1.241 . S
C1258 O1269 1.273 . S
C1259 O1270 1.251 . S
C1259 O1271 1.268 . S
O1260 Nd1240 2.500 . S
O1260 C1242 1.258 . S
O1261 Nd1240 2.492 . S
O1261 C1242 1.239 . S
O1262 Nd1240 2.487 . S
O1262 C1249 1.241 . S
O1263 Nd1240 2.682 . S
O1263 Nd1241 2.414 . S
O1263 C1249 1.273 . S
O1264 Nd1240 2.410 . S
O1264 C1250 1.251 . S
O1265 Nd1241 2.424 . S
O1265 C1250 1.268 . S
O1266 Nd1241 2.500 . S
O1266 C1251 1.258 . S
O1267 Nd1241 2.492 . S
O1267 C1251 1.239 . S
O1268 Nd1241 2.487 . S
O1268 C1258 1.241 . S
O1269 Nd1240 2.414 . S
O1269 Nd1241 2.682 . S
O1269 C1258 1.273 . S
O1270 Nd1241 2.410 . S
O1270 C1259 1.251 . S
O1271 Nd1240 2.424 . S
O1271 C1259 1.268 . S
H1272 C1244 0.930 . S
H1273 C1245 0.929 . S
H1274 C1247 0.930 . S
H1275 C1248 0.929 . S
H1276 C1253 0.930 . S
H1277 C1254 0.929 . S
H1278 C1256 0.930 . S
H1279 C1257 0.929 . S
C1280 C1281 1.349 . S
C1280 C1282 1.327 . S
C1280 H1305 0.950 . S
C1281 C1280 1.349 . S
C1281 C1297 1.349 . S
C1282 C1280 1.327 . S
C1282 C1301 1.429 . S
C1282 H1306 0.950 . S
C1283 C1300 1.574 . S
C1283 C1302 1.368 . S
C1283 H1307 0.949 . S
H1284 C1288 0.949 . S
C1285 C1286 1.349 . S
C1285 C1287 1.327 . S
C1285 H1308 0.950 . S
C1286 C1285 1.349 . S
C1286 C1298 1.349 . S
C1287 C1285 1.327 . S
C1287 C1303 1.429 . S
C1287 H1309 0.950 . S
C1288 H1284 0.949 . S
C1288 C1296 1.574 . S
C1288 C1304 1.368 . S
H1289 C1297 0.950 . S
H1290 C1295 0.950 . S
H1291 C1296 0.949 . S
H1292 C1298 0.950 . S
H1293 C1299 0.950 . S
H1294 C1300 0.949 . S
C1295 H1290 0.950 . S
C1295 C1297 1.327 . S
C1295 C1301 1.429 . S
C1296 C1288 1.574 . S
C1296 H1291 0.949 . S
C1296 C1302 1.368 . S
C1297 C1281 1.349 . S
C1297 H1289 0.950 . S
C1297 C1295 1.327 . S
C1298 C1286 1.349 . S
C1298 H1292 0.950 . S
C1298 C1299 1.327 . S
C1299 H1293 0.950 . S
C1299 C1298 1.327 . S
C1299 C1303 1.429 . S
C1300 C1283 1.574 . S
C1300 H1294 0.949 . S
C1300 C1304 1.368 . S
C1301 C1282 1.429 . S
C1301 C1295 1.429 . S
C1301 C1302 1.523 . S
C1302 C1283 1.368 . S
C1302 C1296 1.368 . S
C1302 C1301 1.523 . S
C1303 C1287 1.429 . S
C1303 C1299 1.429 . S
C1303 C1304 1.523 . S
C1304 C1288 1.368 . S
C1304 C1300 1.368 . S
C1304 C1303 1.523 . S
H1305 C1280 0.950 . S
H1306 C1282 0.950 . S
H1307 C1283 0.949 . S
H1308 C1285 0.950 . S
H1309 C1287 0.950 . S
C1310 C1311 1.349 . S
C1310 C1312 1.327 . S
C1310 H1335 0.950 . S
C1311 C1310 1.349 . S
C1311 C1327 1.349 . S
C1312 C1310 1.327 . S
C1312 C1331 1.429 . S
C1312 H1336 0.950 . S
C1313 C1330 1.574 . S
C1313 C1332 1.368 . S
C1313 H1337 0.949 . S
H1314 C1318 0.949 . S
C1315 C1316 1.349 . S
C1315 C1317 1.327 . S
C1315 H1338 0.950 . S
C1316 C1315 1.349 . S
C1316 C1328 1.349 . S
C1317 C1315 1.327 . S
C1317 C1333 1.429 . S
C1317 H1339 0.950 . S
C1318 H1314 0.949 . S
C1318 C1326 1.574 . S
C1318 C1334 1.368 . S
H1319 C1327 0.950 . S
H1320 C1325 0.950 . S
H1321 C1326 0.949 . S
H1322 C1328 0.950 . S
H1323 C1329 0.950 . S
H1324 C1330 0.949 . S
C1325 H1320 0.950 . S
C1325 C1327 1.327 . S
C1325 C1331 1.429 . S
C1326 C1318 1.574 . S
C1326 H1321 0.949 . S
C1326 C1332 1.368 . S
C1327 C1311 1.349 . S
C1327 H1319 0.950 . S
C1327 C1325 1.327 . S
C1328 C1316 1.349 . S
C1328 H1322 0.950 . S
C1328 C1329 1.327 . S
C1329 H1323 0.950 . S
C1329 C1328 1.327 . S
C1329 C1333 1.429 . S
C1330 C1313 1.574 . S
C1330 H1324 0.949 . S
C1330 C1334 1.368 . S
C1331 C1312 1.429 . S
C1331 C1325 1.429 . S
C1331 C1332 1.523 . S
C1332 C1313 1.368 . S
C1332 C1326 1.368 . S
C1332 C1331 1.523 . S
C1333 C1317 1.429 . S
C1333 C1329 1.429 . S
C1333 C1334 1.523 . S
C1334 C1318 1.368 . S
C1334 C1330 1.368 . S
C1334 C1333 1.523 . S
H1335 C1310 0.950 . S
H1336 C1312 0.950 . S
H1337 C1313 0.949 . S
H1338 C1315 0.950 . S
H1339 C1317 0.950 . S
C1340 C1341 1.349 . S
C1340 C1342 1.327 . S
C1340 H1365 0.950 . S
C1341 C1340 1.349 . S
C1341 C1357 1.349 . S
C1342 C1340 1.327 . S
C1342 C1361 1.429 . S
C1342 H1366 0.950 . S
C1343 C1360 1.574 . S
C1343 C1362 1.368 . S
C1343 H1367 0.949 . S
H1344 C1348 0.949 . S
C1345 C1346 1.349 . S
C1345 C1347 1.327 . S
C1345 H1368 0.950 . S
C1346 C1345 1.349 . S
C1346 C1358 1.349 . S
C1347 C1345 1.327 . S
C1347 C1363 1.429 . S
C1347 H1369 0.950 . S
C1348 H1344 0.949 . S
C1348 C1356 1.574 . S
C1348 C1364 1.368 . S
H1349 C1357 0.950 . S
H1350 C1355 0.950 . S
H1351 C1356 0.949 . S
H1352 C1358 0.950 . S
H1353 C1359 0.950 . S
H1354 C1360 0.949 . S
C1355 H1350 0.950 . S
C1355 C1357 1.327 . S
C1355 C1361 1.429 . S
C1356 C1348 1.574 . S
C1356 H1351 0.949 . S
C1356 C1362 1.368 . S
C1357 C1341 1.349 . S
C1357 H1349 0.950 . S
C1357 C1355 1.327 . S
C1358 C1346 1.349 . S
C1358 H1352 0.950 . S
C1358 C1359 1.327 . S
C1359 H1353 0.950 . S
C1359 C1358 1.327 . S
C1359 C1363 1.429 . S
C1360 C1343 1.574 . S
C1360 H1354 0.949 . S
C1360 C1364 1.368 . S
C1361 C1342 1.429 . S
C1361 C1355 1.429 . S
C1361 C1362 1.523 . S
C1362 C1343 1.368 . S
C1362 C1356 1.368 . S
C1362 C1361 1.523 . S
C1363 C1347 1.429 . S
C1363 C1359 1.429 . S
C1363 C1364 1.523 . S
C1364 C1348 1.368 . S
C1364 C1360 1.368 . S
C1364 C1363 1.523 . S
H1365 C1340 0.950 . S
H1366 C1342 0.950 . S
H1367 C1343 0.949 . S
H1368 C1345 0.950 . S
H1369 C1347 0.950 . S
C1370 C1371 1.349 . S
C1370 C1372 1.327 . S
C1370 H1395 0.950 . S
C1371 C1370 1.349 . S
C1371 C1387 1.349 . S
C1372 C1370 1.327 . S
C1372 C1391 1.429 . S
C1372 H1396 0.950 . S
C1373 C1390 1.574 . S
C1373 C1392 1.368 . S
C1373 H1397 0.949 . S
H1374 C1378 0.949 . S
C1375 C1376 1.349 . S
C1375 C1377 1.327 . S
C1375 H1398 0.950 . S
C1376 C1375 1.349 . S
C1376 C1388 1.349 . S
C1377 C1375 1.327 . S
C1377 C1393 1.429 . S
C1377 H1399 0.950 . S
C1378 H1374 0.949 . S
C1378 C1386 1.574 . S
C1378 C1394 1.368 . S
H1379 C1387 0.950 . S
H1380 C1385 0.950 . S
H1381 C1386 0.949 . S
H1382 C1388 0.950 . S
H1383 C1389 0.950 . S
H1384 C1390 0.949 . S
C1385 H1380 0.950 . S
C1385 C1387 1.327 . S
C1385 C1391 1.429 . S
C1386 C1378 1.574 . S
C1386 H1381 0.949 . S
C1386 C1392 1.368 . S
C1387 C1371 1.349 . S
C1387 H1379 0.950 . S
C1387 C1385 1.327 . S
C1388 C1376 1.349 . S
C1388 H1382 0.950 . S
C1388 C1389 1.327 . S
C1389 H1383 0.950 . S
C1389 C1388 1.327 . S
C1389 C1393 1.429 . S
C1390 C1373 1.574 . S
C1390 H1384 0.949 . S
C1390 C1394 1.368 . S
C1391 C1372 1.429 . S
C1391 C1385 1.429 . S
C1391 C1392 1.523 . S
C1392 C1373 1.368 . S
C1392 C1386 1.368 . S
C1392 C1391 1.523 . S
C1393 C1377 1.429 . S
C1393 C1389 1.429 . S
C1393 C1394 1.523 . S
C1394 C1378 1.368 . S
C1394 C1390 1.368 . S
C1394 C1393 1.523 . S
H1395 C1370 0.950 . S
H1396 C1372 0.950 . S
H1397 C1373 0.949 . S
H1398 C1375 0.950 . S
H1399 C1377 0.950 . S
C1400 C1401 1.349 . S
C1400 C1402 1.327 . S
C1400 H1425 0.950 . S
C1401 C1400 1.349 . S
C1401 C1417 1.349 . S
C1402 C1400 1.327 . S
C1402 C1421 1.429 . S
C1402 H1426 0.950 . S
C1403 C1420 1.574 . S
C1403 C1422 1.368 . S
C1403 H1427 0.949 . S
H1404 C1408 0.949 . S
C1405 C1406 1.349 . S
C1405 C1407 1.327 . S
C1405 H1428 0.950 . S
C1406 C1405 1.349 . S
C1406 C1418 1.349 . S
C1407 C1405 1.327 . S
C1407 C1423 1.429 . S
C1407 H1429 0.950 . S
C1408 H1404 0.949 . S
C1408 C1416 1.574 . S
C1408 C1424 1.368 . S
H1409 C1417 0.950 . S
H1410 C1415 0.950 . S
H1411 C1416 0.949 . S
H1412 C1418 0.950 . S
H1413 C1419 0.950 . S
H1414 C1420 0.949 . S
C1415 H1410 0.950 . S
C1415 C1417 1.327 . S
C1415 C1421 1.429 . S
C1416 C1408 1.574 . S
C1416 H1411 0.949 . S
C1416 C1422 1.368 . S
C1417 C1401 1.349 . S
C1417 H1409 0.950 . S
C1417 C1415 1.327 . S
C1418 C1406 1.349 . S
C1418 H1412 0.950 . S
C1418 C1419 1.327 . S
C1419 H1413 0.950 . S
C1419 C1418 1.327 . S
C1419 C1423 1.429 . S
C1420 C1403 1.574 . S
C1420 H1414 0.949 . S
C1420 C1424 1.368 . S
C1421 C1402 1.429 . S
C1421 C1415 1.429 . S
C1421 C1422 1.523 . S
C1422 C1403 1.368 . S
C1422 C1416 1.368 . S
C1422 C1421 1.523 . S
C1423 C1407 1.429 . S
C1423 C1419 1.429 . S
C1423 C1424 1.523 . S
C1424 C1408 1.368 . S
C1424 C1420 1.368 . S
C1424 C1423 1.523 . S
H1425 C1400 0.950 . S
H1426 C1402 0.950 . S
H1427 C1403 0.949 . S
H1428 C1405 0.950 . S
H1429 C1407 0.950 . S
C1430 C1431 1.349 . S
C1430 C1432 1.327 . S
C1430 H1455 0.950 . S
C1431 C1430 1.349 . S
C1431 C1447 1.349 . S
C1432 C1430 1.327 . S
C1432 C1451 1.429 . S
C1432 H1456 0.950 . S
C1433 C1450 1.574 . S
C1433 C1452 1.368 . S
C1433 H1457 0.949 . S
H1434 C1438 0.949 . S
C1435 C1436 1.349 . S
C1435 C1437 1.327 . S
C1435 H1458 0.950 . S
C1436 C1435 1.349 . S
C1436 C1448 1.349 . S
C1437 C1435 1.327 . S
C1437 C1453 1.429 . S
C1437 H1459 0.950 . S
C1438 H1434 0.949 . S
C1438 C1446 1.574 . S
C1438 C1454 1.368 . S
H1439 C1447 0.950 . S
H1440 C1445 0.950 . S
H1441 C1446 0.949 . S
H1442 C1448 0.950 . S
H1443 C1449 0.950 . S
H1444 C1450 0.949 . S
C1445 H1440 0.950 . S
C1445 C1447 1.327 . S
C1445 C1451 1.429 . S
C1446 C1438 1.574 . S
C1446 H1441 0.949 . S
C1446 C1452 1.368 . S
C1447 C1431 1.349 . S
C1447 H1439 0.950 . S
C1447 C1445 1.327 . S
C1448 C1436 1.349 . S
C1448 H1442 0.950 . S
C1448 C1449 1.327 . S
C1449 H1443 0.950 . S
C1449 C1448 1.327 . S
C1449 C1453 1.429 . S
C1450 C1433 1.574 . S
C1450 H1444 0.949 . S
C1450 C1454 1.368 . S
C1451 C1432 1.429 . S
C1451 C1445 1.429 . S
C1451 C1452 1.523 . S
C1452 C1433 1.368 . S
C1452 C1446 1.368 . S
C1452 C1451 1.523 . S
C1453 C1437 1.429 . S
C1453 C1449 1.429 . S
C1453 C1454 1.523 . S
C1454 C1438 1.368 . S
C1454 C1450 1.368 . S
C1454 C1453 1.523 . S
H1455 C1430 0.950 . S
H1456 C1432 0.950 . S
H1457 C1433 0.949 . S
H1458 C1435 0.950 . S
H1459 C1437 0.950 . S
C1460 C1461 1.349 . S
C1460 C1462 1.327 . S
C1460 H1485 0.950 . S
C1461 C1460 1.349 . S
C1461 C1477 1.349 . S
C1462 C1460 1.327 . S
C1462 C1481 1.429 . S
C1462 H1486 0.950 . S
C1463 C1480 1.574 . S
C1463 C1482 1.368 . S
C1463 H1487 0.949 . S
H1464 C1468 0.949 . S
C1465 C1466 1.349 . S
C1465 C1467 1.327 . S
C1465 H1488 0.950 . S
C1466 C1465 1.349 . S
C1466 C1478 1.349 . S
C1467 C1465 1.327 . S
C1467 C1483 1.429 . S
C1467 H1489 0.950 . S
C1468 H1464 0.949 . S
C1468 C1476 1.574 . S
C1468 C1484 1.368 . S
H1469 C1477 0.950 . S
H1470 C1475 0.950 . S
H1471 C1476 0.949 . S
H1472 C1478 0.950 . S
H1473 C1479 0.950 . S
H1474 C1480 0.949 . S
C1475 H1470 0.950 . S
C1475 C1477 1.327 . S
C1475 C1481 1.429 . S
C1476 C1468 1.574 . S
C1476 H1471 0.949 . S
C1476 C1482 1.368 . S
C1477 C1461 1.349 . S
C1477 H1469 0.950 . S
C1477 C1475 1.327 . S
C1478 C1466 1.349 . S
C1478 H1472 0.950 . S
C1478 C1479 1.327 . S
C1479 H1473 0.950 . S
C1479 C1478 1.327 . S
C1479 C1483 1.429 . S
C1480 C1463 1.574 . S
C1480 H1474 0.949 . S
C1480 C1484 1.368 . S
C1481 C1462 1.429 . S
C1481 C1475 1.429 . S
C1481 C1482 1.523 . S
C1482 C1463 1.368 . S
C1482 C1476 1.368 . S
C1482 C1481 1.523 . S
C1483 C1467 1.429 . S
C1483 C1479 1.429 . S
C1483 C1484 1.523 . S
C1484 C1468 1.368 . S
C1484 C1480 1.368 . S
C1484 C1483 1.523 . S
H1485 C1460 0.950 . S
H1486 C1462 0.950 . S
H1487 C1463 0.949 . S
H1488 C1465 0.950 . S
H1489 C1467 0.950 . S
C1490 C1491 1.349 . S
C1490 C1492 1.327 . S
C1490 H1515 0.950 . S
C1491 C1490 1.349 . S
C1491 C1507 1.349 . S
C1492 C1490 1.327 . S
C1492 C1511 1.429 . S
C1492 H1516 0.950 . S
C1493 C1510 1.574 . S
C1493 C1512 1.368 . S
C1493 H1517 0.949 . S
H1494 C1498 0.949 . S
C1495 C1496 1.349 . S
C1495 C1497 1.327 . S
C1495 H1518 0.950 . S
C1496 C1495 1.349 . S
C1496 C1508 1.349 . S
C1497 C1495 1.327 . S
C1497 C1513 1.429 . S
C1497 H1519 0.950 . S
C1498 H1494 0.949 . S
C1498 C1506 1.574 . S
C1498 C1514 1.368 . S
H1499 C1507 0.950 . S
H1500 C1505 0.950 . S
H1501 C1506 0.949 . S
H1502 C1508 0.950 . S
H1503 C1509 0.950 . S
H1504 C1510 0.949 . S
C1505 H1500 0.950 . S
C1505 C1507 1.327 . S
C1505 C1511 1.429 . S
C1506 C1498 1.574 . S
C1506 H1501 0.949 . S
C1506 C1512 1.368 . S
C1507 C1491 1.349 . S
C1507 H1499 0.950 . S
C1507 C1505 1.327 . S
C1508 C1496 1.349 . S
C1508 H1502 0.950 . S
C1508 C1509 1.327 . S
C1509 H1503 0.950 . S
C1509 C1508 1.327 . S
C1509 C1513 1.429 . S
C1510 C1493 1.574 . S
C1510 H1504 0.949 . S
C1510 C1514 1.368 . S
C1511 C1492 1.429 . S
C1511 C1505 1.429 . S
C1511 C1512 1.523 . S
C1512 C1493 1.368 . S
C1512 C1506 1.368 . S
C1512 C1511 1.523 . S
C1513 C1497 1.429 . S
C1513 C1509 1.429 . S
C1513 C1514 1.523 . S
C1514 C1498 1.368 . S
C1514 C1510 1.368 . S
C1514 C1513 1.523 . S
H1515 C1490 0.950 . S
H1516 C1492 0.950 . S
H1517 C1493 0.949 . S
H1518 C1495 0.950 . S
H1519 C1497 0.950 . S
C1520 C1521 1.349 . S
C1520 C1522 1.327 . S
C1520 H1545 0.950 . S
C1521 C1520 1.349 . S
C1521 C1537 1.349 . S
C1522 C1520 1.327 . S
C1522 C1541 1.429 . S
C1522 H1546 0.950 . S
C1523 C1540 1.574 . S
C1523 C1542 1.368 . S
C1523 H1547 0.949 . S
H1524 C1528 0.949 . S
C1525 C1526 1.349 . S
C1525 C1527 1.327 . S
C1525 H1548 0.950 . S
C1526 C1525 1.349 . S
C1526 C1538 1.349 . S
C1527 C1525 1.327 . S
C1527 C1543 1.429 . S
C1527 H1549 0.950 . S
C1528 H1524 0.949 . S
C1528 C1536 1.574 . S
C1528 C1544 1.368 . S
H1529 C1537 0.950 . S
H1530 C1535 0.950 . S
H1531 C1536 0.949 . S
H1532 C1538 0.950 . S
H1533 C1539 0.950 . S
H1534 C1540 0.949 . S
C1535 H1530 0.950 . S
C1535 C1537 1.327 . S
C1535 C1541 1.429 . S
C1536 C1528 1.574 . S
C1536 H1531 0.949 . S
C1536 C1542 1.368 . S
C1537 C1521 1.349 . S
C1537 H1529 0.950 . S
C1537 C1535 1.327 . S
C1538 C1526 1.349 . S
C1538 H1532 0.950 . S
C1538 C1539 1.327 . S
C1539 H1533 0.950 . S
C1539 C1538 1.327 . S
C1539 C1543 1.429 . S
C1540 C1523 1.574 . S
C1540 H1534 0.949 . S
C1540 C1544 1.368 . S
C1541 C1522 1.429 . S
C1541 C1535 1.429 . S
C1541 C1542 1.523 . S
C1542 C1523 1.368 . S
C1542 C1536 1.368 . S
C1542 C1541 1.523 . S
C1543 C1527 1.429 . S
C1543 C1539 1.429 . S
C1543 C1544 1.523 . S
C1544 C1528 1.368 . S
C1544 C1540 1.368 . S
C1544 C1543 1.523 . S
H1545 C1520 0.950 . S
H1546 C1522 0.950 . S
H1547 C1523 0.949 . S
H1548 C1525 0.950 . S
H1549 C1527 0.950 . S
C1550 C1551 1.349 . S
C1550 C1552 1.327 . S
C1550 H1575 0.950 . S
C1551 C1550 1.349 . S
C1551 C1567 1.349 . S
C1552 C1550 1.327 . S
C1552 C1571 1.429 . S
C1552 H1576 0.950 . S
C1553 C1570 1.574 . S
C1553 C1572 1.368 . S
C1553 H1577 0.949 . S
H1554 C1558 0.949 . S
C1555 C1556 1.349 . S
C1555 C1557 1.327 . S
C1555 H1578 0.950 . S
C1556 C1555 1.349 . S
C1556 C1568 1.349 . S
C1557 C1555 1.327 . S
C1557 C1573 1.429 . S
C1557 H1579 0.950 . S
C1558 H1554 0.949 . S
C1558 C1566 1.574 . S
C1558 C1574 1.368 . S
H1559 C1567 0.950 . S
H1560 C1565 0.950 . S
H1561 C1566 0.949 . S
H1562 C1568 0.950 . S
H1563 C1569 0.950 . S
H1564 C1570 0.949 . S
C1565 H1560 0.950 . S
C1565 C1567 1.327 . S
C1565 C1571 1.429 . S
C1566 C1558 1.574 . S
C1566 H1561 0.949 . S
C1566 C1572 1.368 . S
C1567 C1551 1.349 . S
C1567 H1559 0.950 . S
C1567 C1565 1.327 . S
C1568 C1556 1.349 . S
C1568 H1562 0.950 . S
C1568 C1569 1.327 . S
C1569 H1563 0.950 . S
C1569 C1568 1.327 . S
C1569 C1573 1.429 . S
C1570 C1553 1.574 . S
C1570 H1564 0.949 . S
C1570 C1574 1.368 . S
C1571 C1552 1.429 . S
C1571 C1565 1.429 . S
C1571 C1572 1.523 . S
C1572 C1553 1.368 . S
C1572 C1566 1.368 . S
C1572 C1571 1.523 . S
C1573 C1557 1.429 . S
C1573 C1569 1.429 . S
C1573 C1574 1.523 . S
C1574 C1558 1.368 . S
C1574 C1570 1.368 . S
C1574 C1573 1.523 . S
H1575 C1550 0.950 . S
H1576 C1552 0.950 . S
H1577 C1553 0.949 . S
H1578 C1555 0.950 . S
H1579 C1557 0.950 . S
C1580 C1581 1.349 . S
C1580 C1582 1.327 . S
C1580 H1605 0.950 . S
C1581 C1580 1.349 . S
C1581 C1597 1.349 . S
C1582 C1580 1.327 . S
C1582 C1601 1.429 . S
C1582 H1606 0.950 . S
C1583 C1600 1.574 . S
C1583 C1602 1.368 . S
C1583 H1607 0.949 . S
H1584 C1588 0.949 . S
C1585 C1586 1.349 . S
C1585 C1587 1.327 . S
C1585 H1608 0.950 . S
C1586 C1585 1.349 . S
C1586 C1598 1.349 . S
C1587 C1585 1.327 . S
C1587 C1603 1.429 . S
C1587 H1609 0.950 . S
C1588 H1584 0.949 . S
C1588 C1596 1.574 . S
C1588 C1604 1.368 . S
H1589 C1597 0.950 . S
H1590 C1595 0.950 . S
H1591 C1596 0.949 . S
H1592 C1598 0.950 . S
H1593 C1599 0.950 . S
H1594 C1600 0.949 . S
C1595 H1590 0.950 . S
C1595 C1597 1.327 . S
C1595 C1601 1.429 . S
C1596 C1588 1.574 . S
C1596 H1591 0.949 . S
C1596 C1602 1.368 . S
C1597 C1581 1.349 . S
C1597 H1589 0.950 . S
C1597 C1595 1.327 . S
C1598 C1586 1.349 . S
C1598 H1592 0.950 . S
C1598 C1599 1.327 . S
C1599 H1593 0.950 . S
C1599 C1598 1.327 . S
C1599 C1603 1.429 . S
C1600 C1583 1.574 . S
C1600 H1594 0.949 . S
C1600 C1604 1.368 . S
C1601 C1582 1.429 . S
C1601 C1595 1.429 . S
C1601 C1602 1.523 . S
C1602 C1583 1.368 . S
C1602 C1596 1.368 . S
C1602 C1601 1.523 . S
C1603 C1587 1.429 . S
C1603 C1599 1.429 . S
C1603 C1604 1.523 . S
C1604 C1588 1.368 . S
C1604 C1600 1.368 . S
C1604 C1603 1.523 . S
H1605 C1580 0.950 . S
H1606 C1582 0.950 . S
H1607 C1583 0.949 . S
H1608 C1585 0.950 . S
H1609 C1587 0.950 . S
C1610 C1611 1.349 . S
C1610 C1612 1.327 . S
C1610 H1635 0.950 . S
C1611 C1610 1.349 . S
C1611 C1627 1.349 . S
C1612 C1610 1.327 . S
C1612 C1631 1.429 . S
C1612 H1636 0.950 . S
C1613 C1630 1.574 . S
C1613 C1632 1.368 . S
C1613 H1637 0.949 . S
H1614 C1618 0.949 . S
C1615 C1616 1.349 . S
C1615 C1617 1.327 . S
C1615 H1638 0.950 . S
C1616 C1615 1.349 . S
C1616 C1628 1.349 . S
C1617 C1615 1.327 . S
C1617 C1633 1.429 . S
C1617 H1639 0.950 . S
C1618 H1614 0.949 . S
C1618 C1626 1.574 . S
C1618 C1634 1.368 . S
H1619 C1627 0.950 . S
H1620 C1625 0.950 . S
H1621 C1626 0.949 . S
H1622 C1628 0.950 . S
H1623 C1629 0.950 . S
H1624 C1630 0.949 . S
C1625 H1620 0.950 . S
C1625 C1627 1.327 . S
C1625 C1631 1.429 . S
C1626 C1618 1.574 . S
C1626 H1621 0.949 . S
C1626 C1632 1.368 . S
C1627 C1611 1.349 . S
C1627 H1619 0.950 . S
C1627 C1625 1.327 . S
C1628 C1616 1.349 . S
C1628 H1622 0.950 . S
C1628 C1629 1.327 . S
C1629 H1623 0.950 . S
C1629 C1628 1.327 . S
C1629 C1633 1.429 . S
C1630 C1613 1.574 . S
C1630 H1624 0.949 . S
C1630 C1634 1.368 . S
C1631 C1612 1.429 . S
C1631 C1625 1.429 . S
C1631 C1632 1.523 . S
C1632 C1613 1.368 . S
C1632 C1626 1.368 . S
C1632 C1631 1.523 . S
C1633 C1617 1.429 . S
C1633 C1629 1.429 . S
C1633 C1634 1.523 . S
C1634 C1618 1.368 . S
C1634 C1630 1.368 . S
C1634 C1633 1.523 . S
H1635 C1610 0.950 . S
H1636 C1612 0.950 . S
H1637 C1613 0.949 . S
H1638 C1615 0.950 . S
H1639 C1617 0.950 . S
C1640 C1641 1.349 . S
C1640 C1642 1.327 . S
C1640 H1665 0.950 . S
C1641 C1640 1.349 . S
C1641 C1657 1.349 . S
C1642 C1640 1.327 . S
C1642 C1661 1.429 . S
C1642 H1666 0.950 . S
C1643 C1660 1.574 . S
C1643 C1662 1.368 . S
C1643 H1667 0.949 . S
H1644 C1648 0.949 . S
C1645 C1646 1.349 . S
C1645 C1647 1.327 . S
C1645 H1668 0.950 . S
C1646 C1645 1.349 . S
C1646 C1658 1.349 . S
C1647 C1645 1.327 . S
C1647 C1663 1.429 . S
C1647 H1669 0.950 . S
C1648 H1644 0.949 . S
C1648 C1656 1.574 . S
C1648 C1664 1.368 . S
H1649 C1657 0.950 . S
H1650 C1655 0.950 . S
H1651 C1656 0.949 . S
H1652 C1658 0.950 . S
H1653 C1659 0.950 . S
H1654 C1660 0.949 . S
C1655 H1650 0.950 . S
C1655 C1657 1.327 . S
C1655 C1661 1.429 . S
C1656 C1648 1.574 . S
C1656 H1651 0.949 . S
C1656 C1662 1.368 . S
C1657 C1641 1.349 . S
C1657 H1649 0.950 . S
C1657 C1655 1.327 . S
C1658 C1646 1.349 . S
C1658 H1652 0.950 . S
C1658 C1659 1.327 . S
C1659 H1653 0.950 . S
C1659 C1658 1.327 . S
C1659 C1663 1.429 . S
C1660 C1643 1.574 . S
C1660 H1654 0.949 . S
C1660 C1664 1.368 . S
C1661 C1642 1.429 . S
C1661 C1655 1.429 . S
C1661 C1662 1.523 . S
C1662 C1643 1.368 . S
C1662 C1656 1.368 . S
C1662 C1661 1.523 . S
C1663 C1647 1.429 . S
C1663 C1659 1.429 . S
C1663 C1664 1.523 . S
C1664 C1648 1.368 . S
C1664 C1660 1.368 . S
C1664 C1663 1.523 . S
H1665 C1640 0.950 . S
H1666 C1642 0.950 . S
H1667 C1643 0.949 . S
H1668 C1645 0.950 . S
H1669 C1647 0.950 . S
C1670 C1671 1.349 . S
C1670 C1672 1.327 . S
C1670 H1695 0.950 . S
C1671 C1670 1.349 . S
C1671 C1687 1.349 . S
C1672 C1670 1.327 . S
C1672 C1691 1.429 . S
C1672 H1696 0.950 . S
C1673 C1690 1.574 . S
C1673 C1692 1.368 . S
C1673 H1697 0.949 . S
H1674 C1678 0.949 . S
C1675 C1676 1.349 . S
C1675 C1677 1.327 . S
C1675 H1698 0.950 . S
C1676 C1675 1.349 . S
C1676 C1688 1.349 . S
C1677 C1675 1.327 . S
C1677 C1693 1.429 . S
C1677 H1699 0.950 . S
C1678 H1674 0.949 . S
C1678 C1686 1.574 . S
C1678 C1694 1.368 . S
H1679 C1687 0.950 . S
H1680 C1685 0.950 . S
H1681 C1686 0.949 . S
H1682 C1688 0.950 . S
H1683 C1689 0.950 . S
H1684 C1690 0.949 . S
C1685 H1680 0.950 . S
C1685 C1687 1.327 . S
C1685 C1691 1.429 . S
C1686 C1678 1.574 . S
C1686 H1681 0.949 . S
C1686 C1692 1.368 . S
C1687 C1671 1.349 . S
C1687 H1679 0.950 . S
C1687 C1685 1.327 . S
C1688 C1676 1.349 . S
C1688 H1682 0.950 . S
C1688 C1689 1.327 . S
C1689 H1683 0.950 . S
C1689 C1688 1.327 . S
C1689 C1693 1.429 . S
C1690 C1673 1.574 . S
C1690 H1684 0.949 . S
C1690 C1694 1.368 . S
C1691 C1672 1.429 . S
C1691 C1685 1.429 . S
C1691 C1692 1.523 . S
C1692 C1673 1.368 . S
C1692 C1686 1.368 . S
C1692 C1691 1.523 . S
C1693 C1677 1.429 . S
C1693 C1689 1.429 . S
C1693 C1694 1.523 . S
C1694 C1678 1.368 . S
C1694 C1690 1.368 . S
C1694 C1693 1.523 . S
H1695 C1670 0.950 . S
H1696 C1672 0.950 . S
H1697 C1673 0.949 . S
H1698 C1675 0.950 . S
H1699 C1677 0.950 . S
C1700 C1701 1.349 . S
C1700 C1702 1.327 . S
C1700 H1725 0.950 . S
C1701 C1700 1.349 . S
C1701 C1717 1.349 . S
C1702 C1700 1.327 . S
C1702 C1721 1.429 . S
C1702 H1726 0.950 . S
C1703 C1720 1.574 . S
C1703 C1722 1.368 . S
C1703 H1727 0.949 . S
H1704 C1708 0.949 . S
C1705 C1706 1.349 . S
C1705 C1707 1.327 . S
C1705 H1728 0.950 . S
C1706 C1705 1.349 . S
C1706 C1718 1.349 . S
C1707 C1705 1.327 . S
C1707 C1723 1.429 . S
C1707 H1729 0.950 . S
C1708 H1704 0.949 . S
C1708 C1716 1.574 . S
C1708 C1724 1.368 . S
H1709 C1717 0.950 . S
H1710 C1715 0.950 . S
H1711 C1716 0.949 . S
H1712 C1718 0.950 . S
H1713 C1719 0.950 . S
H1714 C1720 0.949 . S
C1715 H1710 0.950 . S
C1715 C1717 1.327 . S
C1715 C1721 1.429 . S
C1716 C1708 1.574 . S
C1716 H1711 0.949 . S
C1716 C1722 1.368 . S
C1717 C1701 1.349 . S
C1717 H1709 0.950 . S
C1717 C1715 1.327 . S
C1718 C1706 1.349 . S
C1718 H1712 0.950 . S
C1718 C1719 1.327 . S
C1719 H1713 0.950 . S
C1719 C1718 1.327 . S
C1719 C1723 1.429 . S
C1720 C1703 1.574 . S
C1720 H1714 0.949 . S
C1720 C1724 1.368 . S
C1721 C1702 1.429 . S
C1721 C1715 1.429 . S
C1721 C1722 1.523 . S
C1722 C1703 1.368 . S
C1722 C1716 1.368 . S
C1722 C1721 1.523 . S
C1723 C1707 1.429 . S
C1723 C1719 1.429 . S
C1723 C1724 1.523 . S
C1724 C1708 1.368 . S
C1724 C1720 1.368 . S
C1724 C1723 1.523 . S
H1725 C1700 0.950 . S
H1726 C1702 0.950 . S
H1727 C1703 0.949 . S
H1728 C1705 0.950 . S
H1729 C1707 0.950 . S
C1730 C1731 1.349 . S
C1730 C1732 1.327 . S
C1730 H1755 0.950 . S
C1731 C1730 1.349 . S
C1731 C1747 1.349 . S
C1732 C1730 1.327 . S
C1732 C1751 1.429 . S
C1732 H1756 0.950 . S
C1733 C1750 1.574 . S
C1733 C1752 1.368 . S
C1733 H1757 0.949 . S
H1734 C1738 0.949 . S
C1735 C1736 1.349 . S
C1735 C1737 1.327 . S
C1735 H1758 0.950 . S
C1736 C1735 1.349 . S
C1736 C1748 1.349 . S
C1737 C1735 1.327 . S
C1737 C1753 1.429 . S
C1737 H1759 0.950 . S
C1738 H1734 0.949 . S
C1738 C1746 1.574 . S
C1738 C1754 1.368 . S
H1739 C1747 0.950 . S
H1740 C1745 0.950 . S
H1741 C1746 0.949 . S
H1742 C1748 0.950 . S
H1743 C1749 0.950 . S
H1744 C1750 0.949 . S
C1745 H1740 0.950 . S
C1745 C1747 1.327 . S
C1745 C1751 1.429 . S
C1746 C1738 1.574 . S
C1746 H1741 0.949 . S
C1746 C1752 1.368 . S
C1747 C1731 1.349 . S
C1747 H1739 0.950 . S
C1747 C1745 1.327 . S
C1748 C1736 1.349 . S
C1748 H1742 0.950 . S
C1748 C1749 1.327 . S
C1749 H1743 0.950 . S
C1749 C1748 1.327 . S
C1749 C1753 1.429 . S
C1750 C1733 1.574 . S
C1750 H1744 0.949 . S
C1750 C1754 1.368 . S
C1751 C1732 1.429 . S
C1751 C1745 1.429 . S
C1751 C1752 1.523 . S
C1752 C1733 1.368 . S
C1752 C1746 1.368 . S
C1752 C1751 1.523 . S
C1753 C1737 1.429 . S
C1753 C1749 1.429 . S
C1753 C1754 1.523 . S
C1754 C1738 1.368 . S
C1754 C1750 1.368 . S
C1754 C1753 1.523 . S
H1755 C1730 0.950 . S
H1756 C1732 0.950 . S
H1757 C1733 0.949 . S
H1758 C1735 0.950 . S
H1759 C1737 0.950 . S
C1760 C1761 1.341 1_565 S
C1760 C1762 1.327 . S
C1760 H1785 0.950 . S
C1761 C1760 1.341 1_545 S
C1761 C1777 1.356 . S
C1762 C1760 1.327 . S
C1762 C1781 1.427 1_565 S
C1762 H1786 0.950 . S
C1763 C1780 1.574 . S
C1763 C1782 1.366 . S
C1763 H1787 0.949 . S
H1764 C1768 0.949 . S
C1765 C1766 1.341 1_545 S
C1765 C1767 1.327 . S
C1765 H1788 0.950 . S
C1766 C1765 1.341 1_565 S
C1766 C1778 1.356 . S
C1767 C1765 1.327 . S
C1767 C1783 1.427 1_545 S
C1767 H1789 0.950 . S
C1768 H1764 0.949 . S
C1768 C1776 1.574 . S
C1768 C1784 1.366 . S
H1769 C1777 0.950 . S
H1770 C1775 0.950 . S
H1771 C1776 0.949 . S
H1772 C1778 0.950 . S
H1773 C1779 0.950 . S
H1774 C1780 0.949 . S
C1775 H1770 0.950 . S
C1775 C1777 1.327 . S
C1775 C1781 1.430 . S
C1776 C1768 1.574 . S
C1776 H1771 0.949 . S
C1776 C1782 1.371 1_565 S
C1777 C1761 1.356 . S
C1777 H1769 0.950 . S
C1777 C1775 1.327 . S
C1778 C1766 1.356 . S
C1778 H1772 0.950 . S
C1778 C1779 1.327 . S
C1779 H1773 0.950 . S
C1779 C1778 1.327 . S
C1779 C1783 1.430 . S
C1780 C1763 1.574 . S
C1780 H1774 0.949 . S
C1780 C1784 1.371 1_545 S
C1781 C1762 1.427 1_545 S
C1781 C1775 1.430 . S
C1781 C1782 1.523 . S
C1782 C1763 1.366 . S
C1782 C1776 1.371 1_545 S
C1782 C1781 1.523 . S
C1783 C1767 1.427 1_565 S
C1783 C1779 1.430 . S
C1783 C1784 1.523 . S
C1784 C1768 1.366 . S
C1784 C1780 1.371 1_565 S
C1784 C1783 1.523 . S
H1785 C1760 0.950 . S
H1786 C1762 0.950 . S
H1787 C1763 0.949 . S
H1788 C1765 0.950 . S
H1789 C1767 0.950 . S
C1790 C1791 1.349 . S
C1790 C1792 1.327 . S
C1790 H1815 0.950 . S
C1791 C1790 1.349 . S
C1791 C1807 1.349 . S
C1792 C1790 1.327 . S
C1792 C1811 1.429 . S
C1792 H1816 0.950 . S
C1793 C1810 1.620 . S
C1793 C1812 1.368 . S
C1793 H1817 0.949 . S
H1794 C1798 0.949 . S
C1795 C1796 1.349 . S
C1795 C1797 1.327 . S
C1795 H1818 0.950 . S
C1796 C1795 1.349 . S
C1796 C1808 1.349 . S
C1797 C1795 1.327 . S
C1797 C1813 1.429 . S
C1797 H1819 0.950 . S
C1798 H1794 0.949 . S
C1798 C1806 1.620 . S
C1798 C1814 1.368 . S
H1799 C1807 0.950 . S
H1800 C1805 0.950 . S
H1801 C1806 0.954 . S
H1802 C1808 0.950 . S
H1803 C1809 0.950 . S
H1804 C1810 0.954 . S
C1805 H1800 0.950 . S
C1805 C1807 1.327 . S
C1805 C1811 1.429 . S
C1806 C1798 1.620 . S
C1806 H1801 0.954 . S
C1806 C1812 1.321 1_655 S
C1807 C1791 1.349 . S
C1807 H1799 0.950 . S
C1807 C1805 1.327 . S
C1808 C1796 1.349 . S
C1808 H1802 0.950 . S
C1808 C1809 1.327 . S
C1809 H1803 0.950 . S
C1809 C1808 1.327 . S
C1809 C1813 1.429 . S
C1810 C1793 1.620 . S
C1810 H1804 0.954 . S
C1810 C1814 1.321 1_455 S
C1811 C1792 1.429 . S
C1811 C1805 1.429 . S
C1811 C1812 1.523 . S
C1812 C1793 1.368 . S
C1812 C1806 1.321 1_455 S
C1812 C1811 1.523 . S
C1813 C1797 1.429 . S
C1813 C1809 1.429 . S
C1813 C1814 1.523 . S
C1814 C1798 1.368 . S
C1814 C1810 1.321 1_655 S
C1814 C1813 1.523 . S
H1815 C1790 0.950 . S
H1816 C1792 0.950 . S
H1817 C1793 0.949 . S
H1818 C1795 0.950 . S
H1819 C1797 0.950 . S
C1820 C1821 1.349 . S
C1820 C1822 1.327 . S
C1820 H1845 0.950 . S
C1821 C1820 1.349 . S
C1821 C1837 1.349 . S
C1822 C1820 1.327 . S
C1822 C1841 1.429 . S
C1822 H1846 0.950 . S
C1823 C1840 1.574 1_556 S
C1823 C1842 1.368 . S
C1823 H1847 0.949 . S
H1824 C1828 0.949 . S
C1825 C1826 1.349 . S
C1825 C1827 1.327 . S
C1825 H1848 0.950 . S
C1826 C1825 1.349 . S
C1826 C1838 1.349 . S
C1827 C1825 1.327 . S
C1827 C1843 1.429 . S
C1827 H1849 0.950 . S
C1828 H1824 0.949 . S
C1828 C1836 1.574 1_554 S
C1828 C1844 1.368 . S
H1829 C1837 0.950 . S
H1830 C1835 0.950 . S
H1831 C1836 0.949 . S
H1832 C1838 0.950 . S
H1833 C1839 0.950 . S
H1834 C1840 0.949 . S
C1835 H1830 0.950 . S
C1835 C1837 1.327 . S
C1835 C1841 1.429 . S
C1836 C1828 1.574 1_556 S
C1836 H1831 0.949 . S
C1836 C1842 1.368 . S
C1837 C1821 1.349 . S
C1837 H1829 0.950 . S
C1837 C1835 1.327 . S
C1838 C1826 1.349 . S
C1838 H1832 0.950 . S
C1838 C1839 1.327 . S
C1839 H1833 0.950 . S
C1839 C1838 1.327 . S
C1839 C1843 1.429 . S
C1840 C1823 1.574 1_554 S
C1840 H1834 0.949 . S
C1840 C1844 1.368 . S
C1841 C1822 1.429 . S
C1841 C1835 1.429 . S
C1841 C1842 1.523 . S
C1842 C1823 1.368 . S
C1842 C1836 1.368 . S
C1842 C1841 1.523 . S
C1843 C1827 1.429 . S
C1843 C1839 1.429 . S
C1843 C1844 1.523 . S
C1844 C1828 1.368 . S
C1844 C1840 1.368 . S
C1844 C1843 1.523 . S
H1845 C1820 0.950 . S
H1846 C1822 0.950 . S
H1847 C1823 0.949 . S
H1848 C1825 0.950 . S
H1849 C1827 0.950 . S
C1850 C1851 1.356 . S
C1850 C1852 1.327 . S
C1850 H1875 0.950 . S
C1851 C1850 1.356 . S
C1851 C1867 1.341 1_545 S
C1852 C1850 1.327 . S
C1852 C1871 1.430 . S
C1852 H1876 0.950 . S
C1853 C1870 1.621 1_554 S
C1853 C1872 1.371 1_565 S
C1853 H1877 0.949 . S
H1854 C1858 0.949 . S
C1855 C1856 1.356 . S
C1855 C1857 1.327 . S
C1855 H1878 0.950 . S
C1856 C1855 1.356 . S
C1856 C1868 1.341 1_565 S
C1857 C1855 1.327 . S
C1857 C1873 1.430 . S
C1857 H1879 0.950 . S
C1858 H1854 0.949 . S
C1858 C1866 1.621 1_556 S
C1858 C1874 1.371 1_545 S
H1859 C1867 0.950 . S
H1860 C1865 0.950 . S
H1861 C1866 0.955 . S
H1862 C1868 0.950 . S
H1863 C1869 0.950 . S
H1864 C1870 0.955 . S
C1865 H1860 0.950 . S
C1865 C1867 1.327 . S
C1865 C1871 1.427 1_565 S
C1866 C1858 1.621 1_554 S
C1866 H1861 0.955 . S
C1866 C1872 1.318 1_455 S
C1867 C1851 1.341 1_565 S
C1867 H1859 0.950 . S
C1867 C1865 1.327 . S
C1868 C1856 1.341 1_545 S
C1868 H1862 0.950 . S
C1868 C1869 1.327 . S
C1869 H1863 0.950 . S
C1869 C1868 1.327 . S
C1869 C1873 1.427 1_545 S
C1870 C1853 1.621 1_556 S
C1870 H1864 0.955 . S
C1870 C1874 1.318 1_655 S
C1871 C1852 1.430 . S
C1871 C1865 1.427 1_545 S
C1871 C1872 1.523 . S
C1872 C1853 1.371 1_545 S
C1872 C1866 1.318 1_655 S
C1872 C1871 1.523 . S
C1873 C1857 1.430 . S
C1873 C1869 1.427 1_565 S
C1873 C1874 1.523 . S
C1874 C1858 1.371 1_565 S
C1874 C1870 1.318 1_455 S
C1874 C1873 1.523 . S
H1875 C1850 0.950 . S
H1876 C1852 0.950 . S
H1877 C1853 0.949 . S
H1878 C1855 0.950 . S
H1879 C1857 0.950 . S
C1880 C1881 1.356 . S
C1880 C1882 1.327 . S
C1880 H1905 0.950 . S
C1881 C1880 1.356 . S
C1881 C1897 1.341 1_565 S
C1882 C1880 1.327 . S
C1882 C1901 1.430 . S
C1882 H1906 0.950 . S
C1883 C1900 1.574 . S
C1883 C1902 1.371 1_545 S
C1883 H1907 0.949 . S
H1884 C1888 0.949 . S
C1885 C1886 1.356 . S
C1885 C1887 1.327 . S
C1885 H1908 0.950 . S
C1886 C1885 1.356 . S
C1886 C1898 1.341 1_545 S
C1887 C1885 1.327 . S
C1887 C1903 1.430 . S
C1887 H1909 0.950 . S
C1888 H1884 0.949 . S
C1888 C1896 1.574 . S
C1888 C1904 1.371 1_565 S
H1889 C1897 0.950 . S
H1890 C1895 0.950 . S
H1891 C1896 0.949 . S
H1892 C1898 0.950 . S
H1893 C1899 0.950 . S
H1894 C1900 0.949 . S
C1895 H1890 0.950 . S
C1895 C1897 1.327 . S
C1895 C1901 1.427 1_545 S
C1896 C1888 1.574 . S
C1896 H1891 0.949 . S
C1896 C1902 1.366 . S
C1897 C1881 1.341 1_545 S
C1897 H1889 0.950 . S
C1897 C1895 1.327 . S
C1898 C1886 1.341 1_565 S
C1898 H1892 0.950 . S
C1898 C1899 1.327 . S
C1899 H1893 0.950 . S
C1899 C1898 1.327 . S
C1899 C1903 1.427 1_565 S
C1900 C1883 1.574 . S
C1900 H1894 0.949 . S
C1900 C1904 1.366 . S
C1901 C1882 1.430 . S
C1901 C1895 1.427 1_565 S
C1901 C1902 1.523 . S
C1902 C1883 1.371 1_565 S
C1902 C1896 1.366 . S
C1902 C1901 1.523 . S
C1903 C1887 1.430 . S
C1903 C1899 1.427 1_545 S
C1903 C1904 1.523 . S
C1904 C1888 1.371 1_545 S
C1904 C1900 1.366 . S
C1904 C1903 1.523 . S
H1905 C1880 0.950 . S
H1906 C1882 0.950 . S
H1907 C1883 0.949 . S
H1908 C1885 0.950 . S
H1909 C1887 0.950 . S
C1910 C1911 1.349 . S
C1910 C1912 1.327 . S
C1910 H1935 0.950 . S
C1911 C1910 1.349 . S
C1911 C1927 1.349 . S
C1912 C1910 1.327 . S
C1912 C1931 1.429 . S
C1912 H1936 0.950 . S
C1913 C1930 1.622 . S
C1913 C1932 1.320 1_655 S
C1913 H1937 0.955 . S
H1914 C1918 0.955 . S
C1915 C1916 1.349 . S
C1915 C1917 1.327 . S
C1915 H1938 0.950 . S
C1916 C1915 1.349 . S
C1916 C1928 1.349 . S
C1917 C1915 1.327 . S
C1917 C1933 1.429 . S
C1917 H1939 0.950 . S
C1918 H1914 0.955 . S
C1918 C1926 1.622 . S
C1918 C1934 1.320 1_455 S
H1919 C1927 0.950 . S
H1920 C1925 0.950 . S
H1921 C1926 0.949 . S
H1922 C1928 0.950 . S
H1923 C1929 0.950 . S
H1924 C1930 0.949 . S
C1925 H1920 0.950 . S
C1925 C1927 1.327 . S
C1925 C1931 1.429 . S
C1926 C1918 1.622 . S
C1926 H1921 0.949 . S
C1926 C1932 1.368 . S
C1927 C1911 1.349 . S
C1927 H1919 0.950 . S
C1927 C1925 1.327 . S
C1928 C1916 1.349 . S
C1928 H1922 0.950 . S
C1928 C1929 1.327 . S
C1929 H1923 0.950 . S
C1929 C1928 1.327 . S
C1929 C1933 1.429 . S
C1930 C1913 1.622 . S
C1930 H1924 0.949 . S
C1930 C1934 1.368 . S
C1931 C1912 1.429 . S
C1931 C1925 1.429 . S
C1931 C1932 1.523 . S
C1932 C1913 1.320 1_455 S
C1932 C1926 1.368 . S
C1932 C1931 1.523 . S
C1933 C1917 1.429 . S
C1933 C1929 1.429 . S
C1933 C1934 1.523 . S
C1934 C1918 1.320 1_655 S
C1934 C1930 1.368 . S
C1934 C1933 1.523 . S
H1935 C1910 0.950 . S
H1936 C1912 0.950 . S
H1937 C1913 0.955 . S
H1938 C1915 0.950 . S
H1939 C1917 0.950 . S
C1940 C1941 1.349 . S
C1940 C1942 1.327 . S
C1940 H1965 0.950 . S
C1941 C1940 1.349 . S
C1941 C1957 1.349 . S
C1942 C1940 1.327 . S
C1942 C1961 1.429 . S
C1942 H1966 0.950 . S
C1943 C1960 1.574 1_556 S
C1943 C1962 1.368 . S
C1943 H1967 0.949 . S
H1944 C1948 0.949 . S
C1945 C1946 1.349 . S
C1945 C1947 1.327 . S
C1945 H1968 0.950 . S
C1946 C1945 1.349 . S
C1946 C1958 1.349 . S
C1947 C1945 1.327 . S
C1947 C1963 1.429 . S
C1947 H1969 0.950 . S
C1948 H1944 0.949 . S
C1948 C1956 1.574 1_554 S
C1948 C1964 1.368 . S
H1949 C1957 0.950 . S
H1950 C1955 0.950 . S
H1951 C1956 0.949 . S
H1952 C1958 0.950 . S
H1953 C1959 0.950 . S
H1954 C1960 0.949 . S
C1955 H1950 0.950 . S
C1955 C1957 1.327 . S
C1955 C1961 1.429 . S
C1956 C1948 1.574 1_556 S
C1956 H1951 0.949 . S
C1956 C1962 1.368 . S
C1957 C1941 1.349 . S
C1957 H1949 0.950 . S
C1957 C1955 1.327 . S
C1958 C1946 1.349 . S
C1958 H1952 0.950 . S
C1958 C1959 1.327 . S
C1959 H1953 0.950 . S
C1959 C1958 1.327 . S
C1959 C1963 1.429 . S
C1960 C1943 1.574 1_554 S
C1960 H1954 0.949 . S
C1960 C1964 1.368 . S
C1961 C1942 1.429 . S
C1961 C1955 1.429 . S
C1961 C1962 1.523 . S
C1962 C1943 1.368 . S
C1962 C1956 1.368 . S
C1962 C1961 1.523 . S
C1963 C1947 1.429 . S
C1963 C1959 1.429 . S
C1963 C1964 1.523 . S
C1964 C1948 1.368 . S
C1964 C1960 1.368 . S
C1964 C1963 1.523 . S
H1965 C1940 0.950 . S
H1966 C1942 0.950 . S
H1967 C1943 0.949 . S
H1968 C1945 0.950 . S
H1969 C1947 0.950 . S
C1970 C1971 1.349 . S
C1970 C1972 1.327 . S
C1970 H1995 0.950 . S
C1971 C1970 1.349 . S
C1971 C1987 1.349 . S
C1972 C1970 1.327 . S
C1972 C1991 1.429 . S
C1972 H1996 0.950 . S
C1973 C1990 1.574 . S
C1973 C1992 1.368 . S
C1973 H1997 0.949 . S
H1974 C1978 0.949 . S
C1975 C1976 1.349 . S
C1975 C1977 1.327 . S
C1975 H1998 0.950 . S
C1976 C1975 1.349 . S
C1976 C1988 1.349 . S
C1977 C1975 1.327 . S
C1977 C1993 1.429 . S
C1977 H1999 0.950 . S
C1978 H1974 0.949 . S
C1978 C1986 1.574 . S
C1978 C1994 1.368 . S
H1979 C1987 0.950 . S
H1980 C1985 0.950 . S
H1981 C1986 0.949 . S
H1982 C1988 0.950 . S
H1983 C1989 0.950 . S
H1984 C1990 0.949 . S
C1985 H1980 0.950 . S
C1985 C1987 1.327 . S
C1985 C1991 1.429 . S
C1986 C1978 1.574 . S
C1986 H1981 0.949 . S
C1986 C1992 1.368 . S
C1987 C1971 1.349 . S
C1987 H1979 0.950 . S
C1987 C1985 1.327 . S
C1988 C1976 1.349 . S
C1988 H1982 0.950 . S
C1988 C1989 1.327 . S
C1989 H1983 0.950 . S
C1989 C1988 1.327 . S
C1989 C1993 1.429 . S
C1990 C1973 1.574 . S
C1990 H1984 0.949 . S
C1990 C1994 1.368 . S
C1991 C1972 1.429 . S
C1991 C1985 1.429 . S
C1991 C1992 1.523 . S
C1992 C1973 1.368 . S
C1992 C1986 1.368 . S
C1992 C1991 1.523 . S
C1993 C1977 1.429 . S
C1993 C1989 1.429 . S
C1993 C1994 1.523 . S
C1994 C1978 1.368 . S
C1994 C1990 1.368 . S
C1994 C1993 1.523 . S
H1995 C1970 0.950 . S
H1996 C1972 0.950 . S
H1997 C1973 0.949 . S
H1998 C1975 0.950 . S
H1999 C1977 0.950 . S
C2000 C2001 1.349 . S
C2000 C2002 1.327 . S
C2000 H2025 0.950 . S
C2001 C2000 1.349 . S
C2001 C2017 1.349 . S
C2002 C2000 1.327 . S
C2002 C2021 1.429 . S
C2002 H2026 0.950 . S
C2003 C2020 1.574 . S
C2003 C2022 1.368 . S
C2003 H2027 0.949 . S
H2004 C2008 0.949 . S
C2005 C2006 1.349 . S
C2005 C2007 1.327 . S
C2005 H2028 0.950 . S
C2006 C2005 1.349 . S
C2006 C2018 1.349 . S
C2007 C2005 1.327 . S
C2007 C2023 1.429 . S
C2007 H2029 0.950 . S
C2008 H2004 0.949 . S
C2008 C2016 1.574 . S
C2008 C2024 1.368 . S
H2009 C2017 0.950 . S
H2010 C2015 0.950 . S
H2011 C2016 0.949 . S
H2012 C2018 0.950 . S
H2013 C2019 0.950 . S
H2014 C2020 0.949 . S
C2015 H2010 0.950 . S
C2015 C2017 1.327 . S
C2015 C2021 1.429 . S
C2016 C2008 1.574 . S
C2016 H2011 0.949 . S
C2016 C2022 1.368 . S
C2017 C2001 1.349 . S
C2017 H2009 0.950 . S
C2017 C2015 1.327 . S
C2018 C2006 1.349 . S
C2018 H2012 0.950 . S
C2018 C2019 1.327 . S
C2019 H2013 0.950 . S
C2019 C2018 1.327 . S
C2019 C2023 1.429 . S
C2020 C2003 1.574 . S
C2020 H2014 0.949 . S
C2020 C2024 1.368 . S
C2021 C2002 1.429 . S
C2021 C2015 1.429 . S
C2021 C2022 1.523 . S
C2022 C2003 1.368 . S
C2022 C2016 1.368 . S
C2022 C2021 1.523 . S
C2023 C2007 1.429 . S
C2023 C2019 1.429 . S
C2023 C2024 1.523 . S
C2024 C2008 1.368 . S
C2024 C2020 1.368 . S
C2024 C2023 1.523 . S
H2025 C2000 0.950 . S
H2026 C2002 0.950 . S
H2027 C2003 0.949 . S
H2028 C2005 0.950 . S
H2029 C2007 0.950 . S
C2030 C2031 1.349 . S
C2030 C2032 1.327 . S
C2030 H2055 0.950 . S
C2031 C2030 1.349 . S
C2031 C2047 1.349 . S
C2032 C2030 1.327 . S
C2032 C2051 1.429 . S
C2032 H2056 0.950 . S
C2033 C2050 1.622 . S
C2033 C2052 1.320 1_655 S
C2033 H2057 0.955 . S
H2034 C2038 0.955 . S
C2035 C2036 1.349 . S
C2035 C2037 1.327 . S
C2035 H2058 0.950 . S
C2036 C2035 1.349 . S
C2036 C2048 1.349 . S
C2037 C2035 1.327 . S
C2037 C2053 1.429 . S
C2037 H2059 0.950 . S
C2038 H2034 0.955 . S
C2038 C2046 1.622 . S
C2038 C2054 1.320 1_455 S
H2039 C2047 0.950 . S
H2040 C2045 0.950 . S
H2041 C2046 0.949 . S
H2042 C2048 0.950 . S
H2043 C2049 0.950 . S
H2044 C2050 0.949 . S
C2045 H2040 0.950 . S
C2045 C2047 1.327 . S
C2045 C2051 1.429 . S
C2046 C2038 1.622 . S
C2046 H2041 0.949 . S
C2046 C2052 1.368 . S
C2047 C2031 1.349 . S
C2047 H2039 0.950 . S
C2047 C2045 1.327 . S
C2048 C2036 1.349 . S
C2048 H2042 0.950 . S
C2048 C2049 1.327 . S
C2049 H2043 0.950 . S
C2049 C2048 1.327 . S
C2049 C2053 1.429 . S
C2050 C2033 1.622 . S
C2050 H2044 0.949 . S
C2050 C2054 1.368 . S
C2051 C2032 1.429 . S
C2051 C2045 1.429 . S
C2051 C2052 1.523 . S
C2052 C2033 1.320 1_455 S
C2052 C2046 1.368 . S
C2052 C2051 1.523 . S
C2053 C2037 1.429 . S
C2053 C2049 1.429 . S
C2053 C2054 1.523 . S
C2054 C2038 1.320 1_655 S
C2054 C2050 1.368 . S
C2054 C2053 1.523 . S
H2055 C2030 0.950 . S
H2056 C2032 0.950 . S
H2057 C2033 0.955 . S
H2058 C2035 0.950 . S
H2059 C2037 0.950 . S
C2060 C2061 1.349 . S
C2060 C2062 1.327 . S
C2060 H2085 0.950 . S
C2061 C2060 1.349 . S
C2061 C2077 1.349 . S
C2062 C2060 1.327 . S
C2062 C2081 1.429 . S
C2062 H2086 0.950 . S
C2063 C2080 1.574 . S
C2063 C2082 1.368 . S
C2063 H2087 0.949 . S
H2064 C2068 0.949 . S
C2065 C2066 1.349 . S
C2065 C2067 1.327 . S
C2065 H2088 0.950 . S
C2066 C2065 1.349 . S
C2066 C2078 1.349 . S
C2067 C2065 1.327 . S
C2067 C2083 1.429 . S
C2067 H2089 0.950 . S
C2068 H2064 0.949 . S
C2068 C2076 1.574 . S
C2068 C2084 1.368 . S
H2069 C2077 0.950 . S
H2070 C2075 0.950 . S
H2071 C2076 0.949 . S
H2072 C2078 0.950 . S
H2073 C2079 0.950 . S
H2074 C2080 0.949 . S
C2075 H2070 0.950 . S
C2075 C2077 1.327 . S
C2075 C2081 1.429 . S
C2076 C2068 1.574 . S
C2076 H2071 0.949 . S
C2076 C2082 1.368 . S
C2077 C2061 1.349 . S
C2077 H2069 0.950 . S
C2077 C2075 1.327 . S
C2078 C2066 1.349 . S
C2078 H2072 0.950 . S
C2078 C2079 1.327 . S
C2079 H2073 0.950 . S
C2079 C2078 1.327 . S
C2079 C2083 1.429 . S
C2080 C2063 1.574 . S
C2080 H2074 0.949 . S
C2080 C2084 1.368 . S
C2081 C2062 1.429 . S
C2081 C2075 1.429 . S
C2081 C2082 1.523 . S
C2082 C2063 1.368 . S
C2082 C2076 1.368 . S
C2082 C2081 1.523 . S
C2083 C2067 1.429 . S
C2083 C2079 1.429 . S
C2083 C2084 1.523 . S
C2084 C2068 1.368 . S
C2084 C2080 1.368 . S
C2084 C2083 1.523 . S
H2085 C2060 0.950 . S
H2086 C2062 0.950 . S
H2087 C2063 0.949 . S
H2088 C2065 0.950 . S
H2089 C2067 0.950 . S
C2090 C2091 1.349 . S
C2090 C2092 1.327 . S
C2090 H2115 0.950 . S
C2091 C2090 1.349 . S
C2091 C2107 1.349 . S
C2092 C2090 1.327 . S
C2092 C2111 1.429 . S
C2092 H2116 0.950 . S
C2093 C2110 1.574 . S
C2093 C2112 1.368 . S
C2093 H2117 0.949 . S
H2094 C2098 0.949 . S
C2095 C2096 1.349 . S
C2095 C2097 1.327 . S
C2095 H2118 0.950 . S
C2096 C2095 1.349 . S
C2096 C2108 1.349 . S
C2097 C2095 1.327 . S
C2097 C2113 1.429 . S
C2097 H2119 0.950 . S
C2098 H2094 0.949 . S
C2098 C2106 1.574 . S
C2098 C2114 1.368 . S
H2099 C2107 0.950 . S
H2100 C2105 0.950 . S
H2101 C2106 0.949 . S
H2102 C2108 0.950 . S
H2103 C2109 0.950 . S
H2104 C2110 0.949 . S
C2105 H2100 0.950 . S
C2105 C2107 1.327 . S
C2105 C2111 1.429 . S
C2106 C2098 1.574 . S
C2106 H2101 0.949 . S
C2106 C2112 1.368 . S
C2107 C2091 1.349 . S
C2107 H2099 0.950 . S
C2107 C2105 1.327 . S
C2108 C2096 1.349 . S
C2108 H2102 0.950 . S
C2108 C2109 1.327 . S
C2109 H2103 0.950 . S
C2109 C2108 1.327 . S
C2109 C2113 1.429 . S
C2110 C2093 1.574 . S
C2110 H2104 0.949 . S
C2110 C2114 1.368 . S
C2111 C2092 1.429 . S
C2111 C2105 1.429 . S
C2111 C2112 1.523 . S
C2112 C2093 1.368 . S
C2112 C2106 1.368 . S
C2112 C2111 1.523 . S
C2113 C2097 1.429 . S
C2113 C2109 1.429 . S
C2113 C2114 1.523 . S
C2114 C2098 1.368 . S
C2114 C2110 1.368 . S
C2114 C2113 1.523 . S
H2115 C2090 0.950 . S
H2116 C2092 0.950 . S
H2117 C2093 0.949 . S
H2118 C2095 0.950 . S
H2119 C2097 0.950 . S
C2120 C2121 1.349 . S
C2120 C2122 1.327 . S
C2120 H2145 0.950 . S
C2121 C2120 1.349 . S
C2121 C2137 1.349 . S
C2122 C2120 1.327 . S
C2122 C2141 1.429 . S
C2122 H2146 0.950 . S
C2123 C2140 1.574 . S
C2123 C2142 1.368 . S
C2123 H2147 0.949 . S
H2124 C2128 0.949 . S
C2125 C2126 1.349 . S
C2125 C2127 1.327 . S
C2125 H2148 0.950 . S
C2126 C2125 1.349 . S
C2126 C2138 1.349 . S
C2127 C2125 1.327 . S
C2127 C2143 1.429 . S
C2127 H2149 0.950 . S
C2128 H2124 0.949 . S
C2128 C2136 1.574 . S
C2128 C2144 1.368 . S
H2129 C2137 0.950 . S
H2130 C2135 0.950 . S
H2131 C2136 0.949 . S
H2132 C2138 0.950 . S
H2133 C2139 0.950 . S
H2134 C2140 0.949 . S
C2135 H2130 0.950 . S
C2135 C2137 1.327 . S
C2135 C2141 1.429 . S
C2136 C2128 1.574 . S
C2136 H2131 0.949 . S
C2136 C2142 1.368 . S
C2137 C2121 1.349 . S
C2137 H2129 0.950 . S
C2137 C2135 1.327 . S
C2138 C2126 1.349 . S
C2138 H2132 0.950 . S
C2138 C2139 1.327 . S
C2139 H2133 0.950 . S
C2139 C2138 1.327 . S
C2139 C2143 1.429 . S
C2140 C2123 1.574 . S
C2140 H2134 0.949 . S
C2140 C2144 1.368 . S
C2141 C2122 1.429 . S
C2141 C2135 1.429 . S
C2141 C2142 1.523 . S
C2142 C2123 1.368 . S
C2142 C2136 1.368 . S
C2142 C2141 1.523 . S
C2143 C2127 1.429 . S
C2143 C2139 1.429 . S
C2143 C2144 1.523 . S
C2144 C2128 1.368 . S
C2144 C2140 1.368 . S
C2144 C2143 1.523 . S
H2145 C2120 0.950 . S
H2146 C2122 0.950 . S
H2147 C2123 0.949 . S
H2148 C2125 0.950 . S
H2149 C2127 0.950 . S
C2150 C2151 1.356 . S
C2150 C2152 1.327 . S
C2150 H2175 0.950 . S
C2151 C2150 1.356 . S
C2151 C2167 1.341 1_545 S
C2152 C2150 1.327 . S
C2152 C2171 1.430 . S
C2152 H2176 0.950 . S
C2153 C2170 1.574 . S
C2153 C2172 1.371 1_565 S
C2153 H2177 0.949 . S
H2154 C2158 0.949 . S
C2155 C2156 1.356 . S
C2155 C2157 1.327 . S
C2155 H2178 0.950 . S
C2156 C2155 1.356 . S
C2156 C2168 1.341 1_565 S
C2157 C2155 1.327 . S
C2157 C2173 1.430 . S
C2157 H2179 0.950 . S
C2158 H2154 0.949 . S
C2158 C2166 1.574 . S
C2158 C2174 1.371 1_545 S
H2159 C2167 0.950 . S
H2160 C2165 0.950 . S
H2161 C2166 0.949 . S
H2162 C2168 0.950 . S
H2163 C2169 0.950 . S
H2164 C2170 0.949 . S
C2165 H2160 0.950 . S
C2165 C2167 1.327 . S
C2165 C2171 1.427 1_565 S
C2166 C2158 1.574 . S
C2166 H2161 0.949 . S
C2166 C2172 1.366 . S
C2167 C2151 1.341 1_565 S
C2167 H2159 0.950 . S
C2167 C2165 1.327 . S
C2168 C2156 1.341 1_545 S
C2168 H2162 0.950 . S
C2168 C2169 1.327 . S
C2169 H2163 0.950 . S
C2169 C2168 1.327 . S
C2169 C2173 1.427 1_545 S
C2170 C2153 1.574 . S
C2170 H2164 0.949 . S
C2170 C2174 1.366 . S
C2171 C2152 1.430 . S
C2171 C2165 1.427 1_545 S
C2171 C2172 1.523 . S
C2172 C2153 1.371 1_545 S
C2172 C2166 1.366 . S
C2172 C2171 1.523 . S
C2173 C2157 1.430 . S
C2173 C2169 1.427 1_565 S
C2173 C2174 1.523 . S
C2174 C2158 1.371 1_565 S
C2174 C2170 1.366 . S
C2174 C2173 1.523 . S
H2175 C2150 0.950 . S
H2176 C2152 0.950 . S
H2177 C2153 0.949 . S
H2178 C2155 0.950 . S
H2179 C2157 0.950 . S
C2180 C2181 1.349 . S
C2180 C2182 1.327 . S
C2180 H2205 0.950 . S
C2181 C2180 1.349 . S
C2181 C2197 1.349 . S
C2182 C2180 1.327 . S
C2182 C2201 1.429 . S
C2182 H2206 0.950 . S
C2183 C2200 1.574 . S
C2183 C2202 1.368 . S
C2183 H2207 0.949 . S
H2184 C2188 0.949 . S
C2185 C2186 1.349 . S
C2185 C2187 1.327 . S
C2185 H2208 0.950 . S
C2186 C2185 1.349 . S
C2186 C2198 1.349 . S
C2187 C2185 1.327 . S
C2187 C2203 1.429 . S
C2187 H2209 0.950 . S
C2188 H2184 0.949 . S
C2188 C2196 1.574 . S
C2188 C2204 1.368 . S
H2189 C2197 0.950 . S
H2190 C2195 0.950 . S
H2191 C2196 0.949 . S
H2192 C2198 0.950 . S
H2193 C2199 0.950 . S
H2194 C2200 0.949 . S
C2195 H2190 0.950 . S
C2195 C2197 1.327 . S
C2195 C2201 1.429 . S
C2196 C2188 1.574 . S
C2196 H2191 0.949 . S
C2196 C2202 1.368 . S
C2197 C2181 1.349 . S
C2197 H2189 0.950 . S
C2197 C2195 1.327 . S
C2198 C2186 1.349 . S
C2198 H2192 0.950 . S
C2198 C2199 1.327 . S
C2199 H2193 0.950 . S
C2199 C2198 1.327 . S
C2199 C2203 1.429 . S
C2200 C2183 1.574 . S
C2200 H2194 0.949 . S
C2200 C2204 1.368 . S
C2201 C2182 1.429 . S
C2201 C2195 1.429 . S
C2201 C2202 1.523 . S
C2202 C2183 1.368 . S
C2202 C2196 1.368 . S
C2202 C2201 1.523 . S
C2203 C2187 1.429 . S
C2203 C2199 1.429 . S
C2203 C2204 1.523 . S
C2204 C2188 1.368 . S
C2204 C2200 1.368 . S
C2204 C2203 1.523 . S
H2205 C2180 0.950 . S
H2206 C2182 0.950 . S
H2207 C2183 0.949 . S
H2208 C2185 0.950 . S
H2209 C2187 0.950 . S
C2210 C2211 1.349 . S
C2210 C2212 1.327 . S
C2210 H2235 0.950 . S
C2211 C2210 1.349 . S
C2211 C2227 1.349 . S
C2212 C2210 1.327 . S
C2212 C2231 1.429 . S
C2212 H2236 0.950 . S
C2213 C2230 1.574 1_554 S
C2213 C2232 1.368 . S
C2213 H2237 0.949 . S
H2214 C2218 0.949 . S
C2215 C2216 1.349 . S
C2215 C2217 1.327 . S
C2215 H2238 0.950 . S
C2216 C2215 1.349 . S
C2216 C2228 1.349 . S
C2217 C2215 1.327 . S
C2217 C2233 1.429 . S
C2217 H2239 0.950 . S
C2218 H2214 0.949 . S
C2218 C2226 1.574 1_556 S
C2218 C2234 1.368 . S
H2219 C2227 0.950 . S
H2220 C2225 0.950 . S
H2221 C2226 0.949 . S
H2222 C2228 0.950 . S
H2223 C2229 0.950 . S
H2224 C2230 0.949 . S
C2225 H2220 0.950 . S
C2225 C2227 1.327 . S
C2225 C2231 1.429 . S
C2226 C2218 1.574 1_554 S
C2226 H2221 0.949 . S
C2226 C2232 1.368 . S
C2227 C2211 1.349 . S
C2227 H2219 0.950 . S
C2227 C2225 1.327 . S
C2228 C2216 1.349 . S
C2228 H2222 0.950 . S
C2228 C2229 1.327 . S
C2229 H2223 0.950 . S
C2229 C2228 1.327 . S
C2229 C2233 1.429 . S
C2230 C2213 1.574 1_556 S
C2230 H2224 0.949 . S
C2230 C2234 1.368 . S
C2231 C2212 1.429 . S
C2231 C2225 1.429 . S
C2231 C2232 1.523 . S
C2232 C2213 1.368 . S
C2232 C2226 1.368 . S
C2232 C2231 1.523 . S
C2233 C2217 1.429 . S
C2233 C2229 1.429 . S
C2233 C2234 1.523 . S
C2234 C2218 1.368 . S
C2234 C2230 1.368 . S
C2234 C2233 1.523 . S
H2235 C2210 0.950 . S
H2236 C2212 0.950 . S
H2237 C2213 0.949 . S
H2238 C2215 0.950 . S
H2239 C2217 0.950 . S
C2240 C2241 1.349 1_565 S
C2240 C2242 1.327 . S
C2240 H2265 0.950 . S
C2241 C2240 1.349 1_545 S
C2241 C2257 1.349 . S
C2242 C2240 1.327 . S
C2242 C2261 1.429 1_565 S
C2242 H2266 0.950 . S
C2243 C2260 1.574 . S
C2243 C2262 1.368 . S
C2243 H2267 0.949 . S
H2244 C2248 0.949 . S
C2245 C2246 1.349 . S
C2245 C2247 1.327 . S
C2245 H2268 0.950 . S
C2246 C2245 1.349 . S
C2246 C2258 1.349 1_545 S
C2247 C2245 1.327 . S
C2247 C2263 1.429 . S
C2247 H2269 0.950 . S
C2248 H2244 0.949 . S
C2248 C2256 1.574 . S
C2248 C2264 1.368 1_565 S
H2249 C2257 0.950 . S
H2250 C2255 0.950 . S
H2251 C2256 0.949 . S
H2252 C2258 0.950 . S
H2253 C2259 0.950 . S
H2254 C2260 0.949 . S
C2255 H2250 0.950 . S
C2255 C2257 1.327 . S
C2255 C2261 1.429 . S
C2256 C2248 1.574 . S
C2256 H2251 0.949 . S
C2256 C2262 1.368 1_565 S
C2257 C2241 1.349 . S
C2257 H2249 0.950 . S
C2257 C2255 1.327 . S
C2258 C2246 1.349 1_565 S
C2258 H2252 0.950 . S
C2258 C2259 1.327 . S
C2259 H2253 0.950 . S
C2259 C2258 1.327 . S
C2259 C2263 1.429 1_565 S
C2260 C2243 1.574 . S
C2260 H2254 0.949 . S
C2260 C2264 1.368 . S
C2261 C2242 1.429 1_545 S
C2261 C2255 1.429 . S
C2261 C2262 1.523 . S
C2262 C2243 1.368 . S
C2262 C2256 1.368 1_545 S
C2262 C2261 1.523 . S
C2263 C2247 1.429 . S
C2263 C2259 1.429 1_545 S
C2263 C2264 1.523 . S
C2264 C2248 1.368 1_545 S
C2264 C2260 1.368 . S
C2264 C2263 1.523 . S
H2265 C2240 0.950 . S
H2266 C2242 0.950 . S
H2267 C2243 0.949 . S
H2268 C2245 0.950 . S
H2269 C2247 0.950 . S
C2270 C2271 1.349 . S
C2270 C2272 1.327 . S
C2270 H2295 0.950 . S
C2271 C2270 1.349 . S
C2271 C2287 1.349 . S
C2272 C2270 1.327 . S
C2272 C2291 1.429 . S
C2272 H2296 0.950 . S
C2273 C2290 1.574 . S
C2273 C2292 1.368 . S
C2273 H2297 0.949 . S
H2274 C2278 0.949 . S
C2275 C2276 1.349 . S
C2275 C2277 1.327 . S
C2275 H2298 0.950 . S
C2276 C2275 1.349 . S
C2276 C2288 1.349 . S
C2277 C2275 1.327 . S
C2277 C2293 1.429 . S
C2277 H2299 0.950 . S
C2278 H2274 0.949 . S
C2278 C2286 1.574 . S
C2278 C2294 1.368 . S
H2279 C2287 0.950 . S
H2280 C2285 0.950 . S
H2281 C2286 0.949 . S
H2282 C2288 0.950 . S
H2283 C2289 0.950 . S
H2284 C2290 0.949 . S
C2285 H2280 0.950 . S
C2285 C2287 1.327 . S
C2285 C2291 1.429 . S
C2286 C2278 1.574 . S
C2286 H2281 0.949 . S
C2286 C2292 1.368 . S
C2287 C2271 1.349 . S
C2287 H2279 0.950 . S
C2287 C2285 1.327 . S
C2288 C2276 1.349 . S
C2288 H2282 0.950 . S
C2288 C2289 1.327 . S
C2289 H2283 0.950 . S
C2289 C2288 1.327 . S
C2289 C2293 1.429 . S
C2290 C2273 1.574 . S
C2290 H2284 0.949 . S
C2290 C2294 1.368 . S
C2291 C2272 1.429 . S
C2291 C2285 1.429 . S
C2291 C2292 1.523 . S
C2292 C2273 1.368 . S
C2292 C2286 1.368 . S
C2292 C2291 1.523 . S
C2293 C2277 1.429 . S
C2293 C2289 1.429 . S
C2293 C2294 1.523 . S
C2294 C2278 1.368 . S
C2294 C2290 1.368 . S
C2294 C2293 1.523 . S
H2295 C2270 0.950 . S
H2296 C2272 0.950 . S
H2297 C2273 0.949 . S
H2298 C2275 0.950 . S
H2299 C2277 0.950 . S
C2300 C2301 1.349 . S
C2300 C2302 1.327 . S
C2300 H2325 0.950 . S
C2301 C2300 1.349 . S
C2301 C2317 1.349 . S
C2302 C2300 1.327 . S
C2302 C2321 1.429 . S
C2302 H2326 0.950 . S
C2303 C2320 1.574 . S
C2303 C2322 1.368 . S
C2303 H2327 0.949 . S
H2304 C2308 0.949 . S
C2305 C2306 1.349 . S
C2305 C2307 1.327 . S
C2305 H2328 0.950 . S
C2306 C2305 1.349 . S
C2306 C2318 1.349 . S
C2307 C2305 1.327 . S
C2307 C2323 1.429 . S
C2307 H2329 0.950 . S
C2308 H2304 0.949 . S
C2308 C2316 1.574 . S
C2308 C2324 1.368 . S
H2309 C2317 0.950 . S
H2310 C2315 0.950 . S
H2311 C2316 0.949 . S
H2312 C2318 0.950 . S
H2313 C2319 0.950 . S
H2314 C2320 0.949 . S
C2315 H2310 0.950 . S
C2315 C2317 1.327 . S
C2315 C2321 1.429 . S
C2316 C2308 1.574 . S
C2316 H2311 0.949 . S
C2316 C2322 1.368 . S
C2317 C2301 1.349 . S
C2317 H2309 0.950 . S
C2317 C2315 1.327 . S
C2318 C2306 1.349 . S
C2318 H2312 0.950 . S
C2318 C2319 1.327 . S
C2319 H2313 0.950 . S
C2319 C2318 1.327 . S
C2319 C2323 1.429 . S
C2320 C2303 1.574 . S
C2320 H2314 0.949 . S
C2320 C2324 1.368 . S
C2321 C2302 1.429 . S
C2321 C2315 1.429 . S
C2321 C2322 1.523 . S
C2322 C2303 1.368 . S
C2322 C2316 1.368 . S
C2322 C2321 1.523 . S
C2323 C2307 1.429 . S
C2323 C2319 1.429 . S
C2323 C2324 1.523 . S
C2324 C2308 1.368 . S
C2324 C2320 1.368 . S
C2324 C2323 1.523 . S
H2325 C2300 0.950 . S
H2326 C2302 0.950 . S
H2327 C2303 0.949 . S
H2328 C2305 0.950 . S
H2329 C2307 0.950 . S
C2330 C2331 1.349 1_565 S
C2330 C2332 1.327 . S
C2330 H2355 0.950 . S
C2331 C2330 1.349 1_545 S
C2331 C2347 1.349 . S
C2332 C2330 1.327 . S
C2332 C2351 1.429 1_565 S
C2332 H2356 0.950 . S
C2333 C2350 1.574 . S
C2333 C2352 1.368 . S
C2333 H2357 0.949 . S
H2334 C2338 0.949 . S
C2335 C2336 1.349 . S
C2335 C2337 1.327 . S
C2335 H2358 0.950 . S
C2336 C2335 1.349 . S
C2336 C2348 1.349 1_545 S
C2337 C2335 1.327 . S
C2337 C2353 1.429 . S
C2337 H2359 0.950 . S
C2338 H2334 0.949 . S
C2338 C2346 1.574 . S
C2338 C2354 1.368 1_565 S
H2339 C2347 0.950 . S
H2340 C2345 0.950 . S
H2341 C2346 0.949 . S
H2342 C2348 0.950 . S
H2343 C2349 0.950 . S
H2344 C2350 0.949 . S
C2345 H2340 0.950 . S
C2345 C2347 1.327 . S
C2345 C2351 1.429 . S
C2346 C2338 1.574 . S
C2346 H2341 0.949 . S
C2346 C2352 1.368 1_565 S
C2347 C2331 1.349 . S
C2347 H2339 0.950 . S
C2347 C2345 1.327 . S
C2348 C2336 1.349 1_565 S
C2348 H2342 0.950 . S
C2348 C2349 1.327 . S
C2349 H2343 0.950 . S
C2349 C2348 1.327 . S
C2349 C2353 1.429 1_565 S
C2350 C2333 1.574 . S
C2350 H2344 0.949 . S
C2350 C2354 1.368 . S
C2351 C2332 1.429 1_545 S
C2351 C2345 1.429 . S
C2351 C2352 1.523 . S
C2352 C2333 1.368 . S
C2352 C2346 1.368 1_545 S
C2352 C2351 1.523 . S
C2353 C2337 1.429 . S
C2353 C2349 1.429 1_545 S
C2353 C2354 1.523 . S
C2354 C2338 1.368 1_545 S
C2354 C2350 1.368 . S
C2354 C2353 1.523 . S
H2355 C2330 0.950 . S
H2356 C2332 0.950 . S
H2357 C2333 0.949 . S
H2358 C2335 0.950 . S
H2359 C2337 0.950 . S
C2360 C2361 1.349 1_545 S
C2360 C2362 1.327 . S
C2360 H2385 0.950 . S
C2361 C2360 1.349 1_565 S
C2361 C2377 1.349 . S
C2362 C2360 1.327 . S
C2362 C2381 1.429 1_545 S
C2362 H2386 0.950 . S
C2363 C2380 1.574 . S
C2363 C2382 1.368 . S
C2363 H2387 0.949 . S
H2364 C2368 0.949 . S
C2365 C2366 1.349 . S
C2365 C2367 1.327 . S
C2365 H2388 0.950 . S
C2366 C2365 1.349 . S
C2366 C2378 1.349 1_565 S
C2367 C2365 1.327 . S
C2367 C2383 1.429 . S
C2367 H2389 0.950 . S
C2368 H2364 0.949 . S
C2368 C2376 1.574 . S
C2368 C2384 1.368 1_545 S
H2369 C2377 0.950 . S
H2370 C2375 0.950 . S
H2371 C2376 0.949 . S
H2372 C2378 0.950 . S
H2373 C2379 0.950 . S
H2374 C2380 0.949 . S
C2375 H2370 0.950 . S
C2375 C2377 1.327 . S
C2375 C2381 1.429 . S
C2376 C2368 1.574 . S
C2376 H2371 0.949 . S
C2376 C2382 1.368 1_545 S
C2377 C2361 1.349 . S
C2377 H2369 0.950 . S
C2377 C2375 1.327 . S
C2378 C2366 1.349 1_545 S
C2378 H2372 0.950 . S
C2378 C2379 1.327 . S
C2379 H2373 0.950 . S
C2379 C2378 1.327 . S
C2379 C2383 1.429 1_545 S
C2380 C2363 1.574 . S
C2380 H2374 0.949 . S
C2380 C2384 1.368 . S
C2381 C2362 1.429 1_565 S
C2381 C2375 1.429 . S
C2381 C2382 1.523 . S
C2382 C2363 1.368 . S
C2382 C2376 1.368 1_565 S
C2382 C2381 1.523 . S
C2383 C2367 1.429 . S
C2383 C2379 1.429 1_565 S
C2383 C2384 1.523 . S
C2384 C2368 1.368 1_565 S
C2384 C2380 1.368 . S
C2384 C2383 1.523 . S
H2385 C2360 0.950 . S
H2386 C2362 0.950 . S
H2387 C2363 0.949 . S
H2388 C2365 0.950 . S
H2389 C2367 0.950 . S
C2390 C2391 1.349 . S
C2390 C2392 1.327 . S
C2390 H2415 0.950 . S
C2391 C2390 1.349 . S
C2391 C2407 1.349 . S
C2392 C2390 1.327 . S
C2392 C2411 1.429 . S
C2392 H2416 0.950 . S
C2393 C2410 1.574 . S
C2393 C2412 1.368 . S
C2393 H2417 0.949 . S
H2394 C2398 0.949 . S
C2395 C2396 1.349 . S
C2395 C2397 1.327 . S
C2395 H2418 0.950 . S
C2396 C2395 1.349 . S
C2396 C2408 1.349 . S
C2397 C2395 1.327 . S
C2397 C2413 1.429 . S
C2397 H2419 0.950 . S
C2398 H2394 0.949 . S
C2398 C2406 1.574 . S
C2398 C2414 1.368 . S
H2399 C2407 0.950 . S
H2400 C2405 0.950 . S
H2401 C2406 0.949 . S
H2402 C2408 0.950 . S
H2403 C2409 0.950 . S
H2404 C2410 0.949 . S
C2405 H2400 0.950 . S
C2405 C2407 1.327 . S
C2405 C2411 1.429 . S
C2406 C2398 1.574 . S
C2406 H2401 0.949 . S
C2406 C2412 1.368 . S
C2407 C2391 1.349 . S
C2407 H2399 0.950 . S
C2407 C2405 1.327 . S
C2408 C2396 1.349 . S
C2408 H2402 0.950 . S
C2408 C2409 1.327 . S
C2409 H2403 0.950 . S
C2409 C2408 1.327 . S
C2409 C2413 1.429 . S
C2410 C2393 1.574 . S
C2410 H2404 0.949 . S
C2410 C2414 1.368 . S
C2411 C2392 1.429 . S
C2411 C2405 1.429 . S
C2411 C2412 1.523 . S
C2412 C2393 1.368 . S
C2412 C2406 1.368 . S
C2412 C2411 1.523 . S
C2413 C2397 1.429 . S
C2413 C2409 1.429 . S
C2413 C2414 1.523 . S
C2414 C2398 1.368 . S
C2414 C2410 1.368 . S
C2414 C2413 1.523 . S
H2415 C2390 0.950 . S
H2416 C2392 0.950 . S
H2417 C2393 0.949 . S
H2418 C2395 0.950 . S
H2419 C2397 0.950 . S
C2420 C2421 1.349 . S
C2420 C2422 1.327 . S
C2420 H2445 0.950 . S
C2421 C2420 1.349 . S
C2421 C2437 1.349 . S
C2422 C2420 1.327 . S
C2422 C2441 1.429 . S
C2422 H2446 0.950 . S
C2423 C2440 1.574 . S
C2423 C2442 1.368 . S
C2423 H2447 0.949 . S
H2424 C2428 0.949 . S
C2425 C2426 1.349 . S
C2425 C2427 1.327 . S
C2425 H2448 0.950 . S
C2426 C2425 1.349 . S
C2426 C2438 1.349 . S
C2427 C2425 1.327 . S
C2427 C2443 1.429 . S
C2427 H2449 0.950 . S
C2428 H2424 0.949 . S
C2428 C2436 1.574 . S
C2428 C2444 1.368 . S
H2429 C2437 0.950 . S
H2430 C2435 0.950 . S
H2431 C2436 0.949 . S
H2432 C2438 0.950 . S
H2433 C2439 0.950 . S
H2434 C2440 0.949 . S
C2435 H2430 0.950 . S
C2435 C2437 1.327 . S
C2435 C2441 1.429 . S
C2436 C2428 1.574 . S
C2436 H2431 0.949 . S
C2436 C2442 1.368 . S
C2437 C2421 1.349 . S
C2437 H2429 0.950 . S
C2437 C2435 1.327 . S
C2438 C2426 1.349 . S
C2438 H2432 0.950 . S
C2438 C2439 1.327 . S
C2439 H2433 0.950 . S
C2439 C2438 1.327 . S
C2439 C2443 1.429 . S
C2440 C2423 1.574 . S
C2440 H2434 0.949 . S
C2440 C2444 1.368 . S
C2441 C2422 1.429 . S
C2441 C2435 1.429 . S
C2441 C2442 1.523 . S
C2442 C2423 1.368 . S
C2442 C2436 1.368 . S
C2442 C2441 1.523 . S
C2443 C2427 1.429 . S
C2443 C2439 1.429 . S
C2443 C2444 1.523 . S
C2444 C2428 1.368 . S
C2444 C2440 1.368 . S
C2444 C2443 1.523 . S
H2445 C2420 0.950 . S
H2446 C2422 0.950 . S
H2447 C2423 0.949 . S
H2448 C2425 0.950 . S
H2449 C2427 0.950 . S
C2450 C2451 1.349 1_545 S
C2450 C2452 1.327 . S
C2450 H2475 0.950 . S
C2451 C2450 1.349 1_565 S
C2451 C2467 1.349 . S
C2452 C2450 1.327 . S
C2452 C2471 1.429 1_545 S
C2452 H2476 0.950 . S
C2453 C2470 1.574 . S
C2453 C2472 1.368 . S
C2453 H2477 0.949 . S
H2454 C2458 0.949 . S
C2455 C2456 1.349 . S
C2455 C2457 1.327 . S
C2455 H2478 0.950 . S
C2456 C2455 1.349 . S
C2456 C2468 1.349 1_565 S
C2457 C2455 1.327 . S
C2457 C2473 1.429 . S
C2457 H2479 0.950 . S
C2458 H2454 0.949 . S
C2458 C2466 1.574 . S
C2458 C2474 1.368 1_545 S
H2459 C2467 0.950 . S
H2460 C2465 0.950 . S
H2461 C2466 0.949 . S
H2462 C2468 0.950 . S
H2463 C2469 0.950 . S
H2464 C2470 0.949 . S
C2465 H2460 0.950 . S
C2465 C2467 1.327 . S
C2465 C2471 1.429 . S
C2466 C2458 1.574 . S
C2466 H2461 0.949 . S
C2466 C2472 1.368 1_545 S
C2467 C2451 1.349 . S
C2467 H2459 0.950 . S
C2467 C2465 1.327 . S
C2468 C2456 1.349 1_545 S
C2468 H2462 0.950 . S
C2468 C2469 1.327 . S
C2469 H2463 0.950 . S
C2469 C2468 1.327 . S
C2469 C2473 1.429 1_545 S
C2470 C2453 1.574 . S
C2470 H2464 0.949 . S
C2470 C2474 1.368 . S
C2471 C2452 1.429 1_565 S
C2471 C2465 1.429 . S
C2471 C2472 1.523 . S
C2472 C2453 1.368 . S
C2472 C2466 1.368 1_565 S
C2472 C2471 1.523 . S
C2473 C2457 1.429 . S
C2473 C2469 1.429 1_565 S
C2473 C2474 1.523 . S
C2474 C2458 1.368 1_565 S
C2474 C2470 1.368 . S
C2474 C2473 1.523 . S
H2475 C2450 0.950 . S
H2476 C2452 0.950 . S
H2477 C2453 0.949 . S
H2478 C2455 0.950 . S
H2479 C2457 0.950 . S
C2480 C2481 1.349 . S
C2480 C2482 1.327 . S
C2480 H2505 0.950 . S
C2481 C2480 1.349 . S
C2481 C2497 1.349 . S
C2482 C2480 1.327 . S
C2482 C2501 1.429 . S
C2482 H2506 0.950 . S
C2483 C2500 1.574 . S
C2483 C2502 1.368 . S
C2483 H2507 0.949 . S
H2484 C2488 0.949 . S
C2485 C2486 1.349 . S
C2485 C2487 1.327 . S
C2485 H2508 0.950 . S
C2486 C2485 1.349 . S
C2486 C2498 1.349 . S
C2487 C2485 1.327 . S
C2487 C2503 1.429 . S
C2487 H2509 0.950 . S
C2488 H2484 0.949 . S
C2488 C2496 1.574 . S
C2488 C2504 1.368 . S
H2489 C2497 0.950 . S
H2490 C2495 0.950 . S
H2491 C2496 0.949 . S
H2492 C2498 0.950 . S
H2493 C2499 0.950 . S
H2494 C2500 0.949 . S
C2495 H2490 0.950 . S
C2495 C2497 1.327 . S
C2495 C2501 1.429 . S
C2496 C2488 1.574 . S
C2496 H2491 0.949 . S
C2496 C2502 1.368 . S
C2497 C2481 1.349 . S
C2497 H2489 0.950 . S
C2497 C2495 1.327 . S
C2498 C2486 1.349 . S
C2498 H2492 0.950 . S
C2498 C2499 1.327 . S
C2499 H2493 0.950 . S
C2499 C2498 1.327 . S
C2499 C2503 1.429 . S
C2500 C2483 1.574 . S
C2500 H2494 0.949 . S
C2500 C2504 1.368 . S
C2501 C2482 1.429 . S
C2501 C2495 1.429 . S
C2501 C2502 1.523 . S
C2502 C2483 1.368 . S
C2502 C2496 1.368 . S
C2502 C2501 1.523 . S
C2503 C2487 1.429 . S
C2503 C2499 1.429 . S
C2503 C2504 1.523 . S
C2504 C2488 1.368 . S
C2504 C2500 1.368 . S
C2504 C2503 1.523 . S
H2505 C2480 0.950 . S
H2506 C2482 0.950 . S
H2507 C2483 0.949 . S
H2508 C2485 0.950 . S
H2509 C2487 0.950 . S
C2510 C2511 1.349 . S
C2510 C2512 1.327 . S
C2510 H2535 0.950 . S
C2511 C2510 1.349 . S
C2511 C2527 1.349 . S
C2512 C2510 1.327 . S
C2512 C2531 1.429 . S
C2512 H2536 0.950 . S
C2513 C2530 1.574 . S
C2513 C2532 1.368 . S
C2513 H2537 0.949 . S
H2514 C2518 0.949 . S
C2515 C2516 1.349 . S
C2515 C2517 1.327 . S
C2515 H2538 0.950 . S
C2516 C2515 1.349 . S
C2516 C2528 1.349 . S
C2517 C2515 1.327 . S
C2517 C2533 1.429 . S
C2517 H2539 0.950 . S
C2518 H2514 0.949 . S
C2518 C2526 1.574 . S
C2518 C2534 1.368 . S
H2519 C2527 0.950 . S
H2520 C2525 0.950 . S
H2521 C2526 0.949 . S
H2522 C2528 0.950 . S
H2523 C2529 0.950 . S
H2524 C2530 0.949 . S
C2525 H2520 0.950 . S
C2525 C2527 1.327 . S
C2525 C2531 1.429 . S
C2526 C2518 1.574 . S
C2526 H2521 0.949 . S
C2526 C2532 1.368 . S
C2527 C2511 1.349 . S
C2527 H2519 0.950 . S
C2527 C2525 1.327 . S
C2528 C2516 1.349 . S
C2528 H2522 0.950 . S
C2528 C2529 1.327 . S
C2529 H2523 0.950 . S
C2529 C2528 1.327 . S
C2529 C2533 1.429 . S
C2530 C2513 1.574 . S
C2530 H2524 0.949 . S
C2530 C2534 1.368 . S
C2531 C2512 1.429 . S
C2531 C2525 1.429 . S
C2531 C2532 1.523 . S
C2532 C2513 1.368 . S
C2532 C2526 1.368 . S
C2532 C2531 1.523 . S
C2533 C2517 1.429 . S
C2533 C2529 1.429 . S
C2533 C2534 1.523 . S
C2534 C2518 1.368 . S
C2534 C2530 1.368 . S
C2534 C2533 1.523 . S
H2535 C2510 0.950 . S
H2536 C2512 0.950 . S
H2537 C2513 0.949 . S
H2538 C2515 0.950 . S
H2539 C2517 0.950 . S
C2540 C2541 1.349 . S
C2540 C2542 1.327 . S
C2540 H2565 0.950 . S
C2541 C2540 1.349 . S
C2541 C2557 1.349 . S
C2542 C2540 1.327 . S
C2542 C2561 1.429 . S
C2542 H2566 0.950 . S
C2543 C2560 1.574 . S
C2543 C2562 1.368 . S
C2543 H2567 0.949 . S
H2544 C2548 0.949 . S
C2545 C2546 1.349 . S
C2545 C2547 1.327 . S
C2545 H2568 0.950 . S
C2546 C2545 1.349 . S
C2546 C2558 1.349 . S
C2547 C2545 1.327 . S
C2547 C2563 1.429 . S
C2547 H2569 0.950 . S
C2548 H2544 0.949 . S
C2548 C2556 1.574 . S
C2548 C2564 1.368 . S
H2549 C2557 0.950 . S
H2550 C2555 0.950 . S
H2551 C2556 0.949 . S
H2552 C2558 0.950 . S
H2553 C2559 0.950 . S
H2554 C2560 0.949 . S
C2555 H2550 0.950 . S
C2555 C2557 1.327 . S
C2555 C2561 1.429 . S
C2556 C2548 1.574 . S
C2556 H2551 0.949 . S
C2556 C2562 1.368 . S
C2557 C2541 1.349 . S
C2557 H2549 0.950 . S
C2557 C2555 1.327 . S
C2558 C2546 1.349 . S
C2558 H2552 0.950 . S
C2558 C2559 1.327 . S
C2559 H2553 0.950 . S
C2559 C2558 1.327 . S
C2559 C2563 1.429 . S
C2560 C2543 1.574 . S
C2560 H2554 0.949 . S
C2560 C2564 1.368 . S
C2561 C2542 1.429 . S
C2561 C2555 1.429 . S
C2561 C2562 1.523 . S
C2562 C2543 1.368 . S
C2562 C2556 1.368 . S
C2562 C2561 1.523 . S
C2563 C2547 1.429 . S
C2563 C2559 1.429 . S
C2563 C2564 1.523 . S
C2564 C2548 1.368 . S
C2564 C2560 1.368 . S
C2564 C2563 1.523 . S
H2565 C2540 0.950 . S
H2566 C2542 0.950 . S
H2567 C2543 0.949 . S
H2568 C2545 0.950 . S
H2569 C2547 0.950 . S
C2570 C2571 1.349 . S
C2570 C2572 1.327 . S
C2570 H2595 0.950 . S
C2571 C2570 1.349 . S
C2571 C2587 1.349 . S
C2572 C2570 1.327 . S
C2572 C2591 1.429 . S
C2572 H2596 0.950 . S
C2573 C2590 1.574 . S
C2573 C2592 1.368 . S
C2573 H2597 0.949 . S
H2574 C2578 0.949 . S
C2575 C2576 1.349 . S
C2575 C2577 1.327 . S
C2575 H2598 0.950 . S
C2576 C2575 1.349 . S
C2576 C2588 1.349 . S
C2577 C2575 1.327 . S
C2577 C2593 1.429 . S
C2577 H2599 0.950 . S
C2578 H2574 0.949 . S
C2578 C2586 1.574 . S
C2578 C2594 1.368 . S
H2579 C2587 0.950 . S
H2580 C2585 0.950 . S
H2581 C2586 0.949 . S
H2582 C2588 0.950 . S
H2583 C2589 0.950 . S
H2584 C2590 0.949 . S
C2585 H2580 0.950 . S
C2585 C2587 1.327 . S
C2585 C2591 1.429 . S
C2586 C2578 1.574 . S
C2586 H2581 0.949 . S
C2586 C2592 1.368 . S
C2587 C2571 1.349 . S
C2587 H2579 0.950 . S
C2587 C2585 1.327 . S
C2588 C2576 1.349 . S
C2588 H2582 0.950 . S
C2588 C2589 1.327 . S
C2589 H2583 0.950 . S
C2589 C2588 1.327 . S
C2589 C2593 1.429 . S
C2590 C2573 1.574 . S
C2590 H2584 0.949 . S
C2590 C2594 1.368 . S
C2591 C2572 1.429 . S
C2591 C2585 1.429 . S
C2591 C2592 1.523 . S
C2592 C2573 1.368 . S
C2592 C2586 1.368 . S
C2592 C2591 1.523 . S
C2593 C2577 1.429 . S
C2593 C2589 1.429 . S
C2593 C2594 1.523 . S
C2594 C2578 1.368 . S
C2594 C2590 1.368 . S
C2594 C2593 1.523 . S
H2595 C2570 0.950 . S
H2596 C2572 0.950 . S
H2597 C2573 0.949 . S
H2598 C2575 0.950 . S
H2599 C2577 0.950 . S
C2600 C2601 1.349 . S
C2600 C2602 1.327 . S
C2600 H2625 0.950 . S
C2601 C2600 1.349 . S
C2601 C2617 1.349 . S
C2602 C2600 1.327 . S
C2602 C2621 1.429 . S
C2602 H2626 0.950 . S
C2603 C2620 1.574 . S
C2603 C2622 1.368 . S
C2603 H2627 0.949 . S
H2604 C2608 0.949 . S
C2605 C2606 1.349 . S
C2605 C2607 1.327 . S
C2605 H2628 0.950 . S
C2606 C2605 1.349 . S
C2606 C2618 1.349 . S
C2607 C2605 1.327 . S
C2607 C2623 1.429 . S
C2607 H2629 0.950 . S
C2608 H2604 0.949 . S
C2608 C2616 1.574 . S
C2608 C2624 1.368 . S
H2609 C2617 0.950 . S
H2610 C2615 0.950 . S
H2611 C2616 0.949 . S
H2612 C2618 0.950 . S
H2613 C2619 0.950 . S
H2614 C2620 0.949 . S
C2615 H2610 0.950 . S
C2615 C2617 1.327 . S
C2615 C2621 1.429 . S
C2616 C2608 1.574 . S
C2616 H2611 0.949 . S
C2616 C2622 1.368 . S
C2617 C2601 1.349 . S
C2617 H2609 0.950 . S
C2617 C2615 1.327 . S
C2618 C2606 1.349 . S
C2618 H2612 0.950 . S
C2618 C2619 1.327 . S
C2619 H2613 0.950 . S
C2619 C2618 1.327 . S
C2619 C2623 1.429 . S
C2620 C2603 1.574 . S
C2620 H2614 0.949 . S
C2620 C2624 1.368 . S
C2621 C2602 1.429 . S
C2621 C2615 1.429 . S
C2621 C2622 1.523 . S
C2622 C2603 1.368 . S
C2622 C2616 1.368 . S
C2622 C2621 1.523 . S
C2623 C2607 1.429 . S
C2623 C2619 1.429 . S
C2623 C2624 1.523 . S
C2624 C2608 1.368 . S
C2624 C2620 1.368 . S
C2624 C2623 1.523 . S
H2625 C2600 0.950 . S
H2626 C2602 0.950 . S
H2627 C2603 0.949 . S
H2628 C2605 0.950 . S
H2629 C2607 0.950 . S
C2630 C2631 1.349 . S
C2630 C2632 1.327 . S
C2630 H2655 0.950 . S
C2631 C2630 1.349 . S
C2631 C2647 1.349 . S
C2632 C2630 1.327 . S
C2632 C2651 1.429 . S
C2632 H2656 0.950 . S
C2633 C2650 1.574 . S
C2633 C2652 1.368 . S
C2633 H2657 0.949 . S
H2634 C2638 0.949 . S
C2635 C2636 1.349 . S
C2635 C2637 1.327 . S
C2635 H2658 0.950 . S
C2636 C2635 1.349 . S
C2636 C2648 1.349 . S
C2637 C2635 1.327 . S
C2637 C2653 1.429 . S
C2637 H2659 0.950 . S
C2638 H2634 0.949 . S
C2638 C2646 1.574 . S
C2638 C2654 1.368 . S
H2639 C2647 0.950 . S
H2640 C2645 0.950 . S
H2641 C2646 0.949 . S
H2642 C2648 0.950 . S
H2643 C2649 0.950 . S
H2644 C2650 0.949 . S
C2645 H2640 0.950 . S
C2645 C2647 1.327 . S
C2645 C2651 1.429 . S
C2646 C2638 1.574 . S
C2646 H2641 0.949 . S
C2646 C2652 1.368 . S
C2647 C2631 1.349 . S
C2647 H2639 0.950 . S
C2647 C2645 1.327 . S
C2648 C2636 1.349 . S
C2648 H2642 0.950 . S
C2648 C2649 1.327 . S
C2649 H2643 0.950 . S
C2649 C2648 1.327 . S
C2649 C2653 1.429 . S
C2650 C2633 1.574 . S
C2650 H2644 0.949 . S
C2650 C2654 1.368 . S
C2651 C2632 1.429 . S
C2651 C2645 1.429 . S
C2651 C2652 1.523 . S
C2652 C2633 1.368 . S
C2652 C2646 1.368 . S
C2652 C2651 1.523 . S
C2653 C2637 1.429 . S
C2653 C2649 1.429 . S
C2653 C2654 1.523 . S
C2654 C2638 1.368 . S
C2654 C2650 1.368 . S
C2654 C2653 1.523 . S
H2655 C2630 0.950 . S
H2656 C2632 0.950 . S
H2657 C2633 0.949 . S
H2658 C2635 0.950 . S
H2659 C2637 0.950 . S
C2660 C2661 1.349 . S
C2660 C2662 1.327 . S
C2660 H2685 0.950 . S
C2661 C2660 1.349 . S
C2661 C2677 1.349 . S
C2662 C2660 1.327 . S
C2662 C2681 1.429 . S
C2662 H2686 0.950 . S
C2663 C2680 1.574 . S
C2663 C2682 1.368 . S
C2663 H2687 0.949 . S
H2664 C2668 0.949 . S
C2665 C2666 1.349 . S
C2665 C2667 1.327 . S
C2665 H2688 0.950 . S
C2666 C2665 1.349 . S
C2666 C2678 1.349 . S
C2667 C2665 1.327 . S
C2667 C2683 1.429 . S
C2667 H2689 0.950 . S
C2668 H2664 0.949 . S
C2668 C2676 1.574 . S
C2668 C2684 1.368 . S
H2669 C2677 0.950 . S
H2670 C2675 0.950 . S
H2671 C2676 0.949 . S
H2672 C2678 0.950 . S
H2673 C2679 0.950 . S
H2674 C2680 0.949 . S
C2675 H2670 0.950 . S
C2675 C2677 1.327 . S
C2675 C2681 1.429 . S
C2676 C2668 1.574 . S
C2676 H2671 0.949 . S
C2676 C2682 1.368 . S
C2677 C2661 1.349 . S
C2677 H2669 0.950 . S
C2677 C2675 1.327 . S
C2678 C2666 1.349 . S
C2678 H2672 0.950 . S
C2678 C2679 1.327 . S
C2679 H2673 0.950 . S
C2679 C2678 1.327 . S
C2679 C2683 1.429 . S
C2680 C2663 1.574 . S
C2680 H2674 0.949 . S
C2680 C2684 1.368 . S
C2681 C2662 1.429 . S
C2681 C2675 1.429 . S
C2681 C2682 1.523 . S
C2682 C2663 1.368 . S
C2682 C2676 1.368 . S
C2682 C2681 1.523 . S
C2683 C2667 1.429 . S
C2683 C2679 1.429 . S
C2683 C2684 1.523 . S
C2684 C2668 1.368 . S
C2684 C2680 1.368 . S
C2684 C2683 1.523 . S
H2685 C2660 0.950 . S
H2686 C2662 0.950 . S
H2687 C2663 0.949 . S
H2688 C2665 0.950 . S
H2689 C2667 0.950 . S
C2690 C2691 1.349 . S
C2690 C2692 1.327 . S
C2690 H2715 0.950 . S
C2691 C2690 1.349 . S
C2691 C2707 1.349 . S
C2692 C2690 1.327 . S
C2692 C2711 1.429 . S
C2692 H2716 0.950 . S
C2693 C2710 1.574 . S
C2693 C2712 1.368 . S
C2693 H2717 0.949 . S
H2694 C2698 0.949 . S
C2695 C2696 1.349 . S
C2695 C2697 1.327 . S
C2695 H2718 0.950 . S
C2696 C2695 1.349 . S
C2696 C2708 1.349 . S
C2697 C2695 1.327 . S
C2697 C2713 1.429 . S
C2697 H2719 0.950 . S
C2698 H2694 0.949 . S
C2698 C2706 1.574 . S
C2698 C2714 1.368 . S
H2699 C2707 0.950 . S
H2700 C2705 0.950 . S
H2701 C2706 0.949 . S
H2702 C2708 0.950 . S
H2703 C2709 0.950 . S
H2704 C2710 0.949 . S
C2705 H2700 0.950 . S
C2705 C2707 1.327 . S
C2705 C2711 1.429 . S
C2706 C2698 1.574 . S
C2706 H2701 0.949 . S
C2706 C2712 1.368 . S
C2707 C2691 1.349 . S
C2707 H2699 0.950 . S
C2707 C2705 1.327 . S
C2708 C2696 1.349 . S
C2708 H2702 0.950 . S
C2708 C2709 1.327 . S
C2709 H2703 0.950 . S
C2709 C2708 1.327 . S
C2709 C2713 1.429 . S
C2710 C2693 1.574 . S
C2710 H2704 0.949 . S
C2710 C2714 1.368 . S
C2711 C2692 1.429 . S
C2711 C2705 1.429 . S
C2711 C2712 1.523 . S
C2712 C2693 1.368 . S
C2712 C2706 1.368 . S
C2712 C2711 1.523 . S
C2713 C2697 1.429 . S
C2713 C2709 1.429 . S
C2713 C2714 1.523 . S
C2714 C2698 1.368 . S
C2714 C2710 1.368 . S
C2714 C2713 1.523 . S
H2715 C2690 0.950 . S
H2716 C2692 0.950 . S
H2717 C2693 0.949 . S
H2718 C2695 0.950 . S
H2719 C2697 0.950 . S
C2720 C2721 1.349 . S
C2720 C2722 1.327 . S
C2720 H2745 0.950 . S
C2721 C2720 1.349 . S
C2721 C2737 1.349 . S
C2722 C2720 1.327 . S
C2722 C2741 1.429 . S
C2722 H2746 0.950 . S
C2723 C2740 1.574 . S
C2723 C2742 1.368 . S
C2723 H2747 0.949 . S
H2724 C2728 0.949 . S
C2725 C2726 1.349 . S
C2725 C2727 1.327 . S
C2725 H2748 0.950 . S
C2726 C2725 1.349 . S
C2726 C2738 1.349 . S
C2727 C2725 1.327 . S
C2727 C2743 1.429 . S
C2727 H2749 0.950 . S
C2728 H2724 0.949 . S
C2728 C2736 1.574 . S
C2728 C2744 1.368 . S
H2729 C2737 0.950 . S
H2730 C2735 0.950 . S
H2731 C2736 0.949 . S
H2732 C2738 0.950 . S
H2733 C2739 0.950 . S
H2734 C2740 0.949 . S
C2735 H2730 0.950 . S
C2735 C2737 1.327 . S
C2735 C2741 1.429 . S
C2736 C2728 1.574 . S
C2736 H2731 0.949 . S
C2736 C2742 1.368 . S
C2737 C2721 1.349 . S
C2737 H2729 0.950 . S
C2737 C2735 1.327 . S
C2738 C2726 1.349 . S
C2738 H2732 0.950 . S
C2738 C2739 1.327 . S
C2739 H2733 0.950 . S
C2739 C2738 1.327 . S
C2739 C2743 1.429 . S
C2740 C2723 1.574 . S
C2740 H2734 0.949 . S
C2740 C2744 1.368 . S
C2741 C2722 1.429 . S
C2741 C2735 1.429 . S
C2741 C2742 1.523 . S
C2742 C2723 1.368 . S
C2742 C2736 1.368 . S
C2742 C2741 1.523 . S
C2743 C2727 1.429 . S
C2743 C2739 1.429 . S
C2743 C2744 1.523 . S
C2744 C2728 1.368 . S
C2744 C2740 1.368 . S
C2744 C2743 1.523 . S
H2745 C2720 0.950 . S
H2746 C2722 0.950 . S
H2747 C2723 0.949 . S
H2748 C2725 0.950 . S
H2749 C2727 0.950 . S
C2750 C2751 1.349 . S
C2750 C2752 1.327 . S
C2750 H2775 0.950 . S
C2751 C2750 1.349 . S
C2751 C2767 1.349 . S
C2752 C2750 1.327 . S
C2752 C2771 1.429 . S
C2752 H2776 0.950 . S
C2753 C2770 1.574 . S
C2753 C2772 1.368 . S
C2753 H2777 0.949 . S
H2754 C2758 0.949 . S
C2755 C2756 1.349 . S
C2755 C2757 1.327 . S
C2755 H2778 0.950 . S
C2756 C2755 1.349 . S
C2756 C2768 1.349 . S
C2757 C2755 1.327 . S
C2757 C2773 1.429 . S
C2757 H2779 0.950 . S
C2758 H2754 0.949 . S
C2758 C2766 1.574 . S
C2758 C2774 1.368 . S
H2759 C2767 0.950 . S
H2760 C2765 0.950 . S
H2761 C2766 0.949 . S
H2762 C2768 0.950 . S
H2763 C2769 0.950 . S
H2764 C2770 0.949 . S
C2765 H2760 0.950 . S
C2765 C2767 1.327 . S
C2765 C2771 1.429 . S
C2766 C2758 1.574 . S
C2766 H2761 0.949 . S
C2766 C2772 1.368 . S
C2767 C2751 1.349 . S
C2767 H2759 0.950 . S
C2767 C2765 1.327 . S
C2768 C2756 1.349 . S
C2768 H2762 0.950 . S
C2768 C2769 1.327 . S
C2769 H2763 0.950 . S
C2769 C2768 1.327 . S
C2769 C2773 1.429 . S
C2770 C2753 1.574 . S
C2770 H2764 0.949 . S
C2770 C2774 1.368 . S
C2771 C2752 1.429 . S
C2771 C2765 1.429 . S
C2771 C2772 1.523 . S
C2772 C2753 1.368 . S
C2772 C2766 1.368 . S
C2772 C2771 1.523 . S
C2773 C2757 1.429 . S
C2773 C2769 1.429 . S
C2773 C2774 1.523 . S
C2774 C2758 1.368 . S
C2774 C2770 1.368 . S
C2774 C2773 1.523 . S
H2775 C2750 0.950 . S
H2776 C2752 0.950 . S
H2777 C2753 0.949 . S
H2778 C2755 0.950 . S
H2779 C2757 0.950 . S
C2780 C2781 1.349 . S
C2780 C2782 1.327 . S
C2780 H2805 0.950 . S
C2781 C2780 1.349 . S
C2781 C2797 1.349 . S
C2782 C2780 1.327 . S
C2782 C2801 1.429 . S
C2782 H2806 0.950 . S
C2783 C2800 1.574 . S
C2783 C2802 1.368 . S
C2783 H2807 0.949 . S
H2784 C2788 0.949 . S
C2785 C2786 1.349 . S
C2785 C2787 1.327 . S
C2785 H2808 0.950 . S
C2786 C2785 1.349 . S
C2786 C2798 1.349 . S
C2787 C2785 1.327 . S
C2787 C2803 1.429 . S
C2787 H2809 0.950 . S
C2788 H2784 0.949 . S
C2788 C2796 1.574 . S
C2788 C2804 1.368 . S
H2789 C2797 0.950 . S
H2790 C2795 0.950 . S
H2791 C2796 0.949 . S
H2792 C2798 0.950 . S
H2793 C2799 0.950 . S
H2794 C2800 0.949 . S
C2795 H2790 0.950 . S
C2795 C2797 1.327 . S
C2795 C2801 1.429 . S
C2796 C2788 1.574 . S
C2796 H2791 0.949 . S
C2796 C2802 1.368 . S
C2797 C2781 1.349 . S
C2797 H2789 0.950 . S
C2797 C2795 1.327 . S
C2798 C2786 1.349 . S
C2798 H2792 0.950 . S
C2798 C2799 1.327 . S
C2799 H2793 0.950 . S
C2799 C2798 1.327 . S
C2799 C2803 1.429 . S
C2800 C2783 1.574 . S
C2800 H2794 0.949 . S
C2800 C2804 1.368 . S
C2801 C2782 1.429 . S
C2801 C2795 1.429 . S
C2801 C2802 1.523 . S
C2802 C2783 1.368 . S
C2802 C2796 1.368 . S
C2802 C2801 1.523 . S
C2803 C2787 1.429 . S
C2803 C2799 1.429 . S
C2803 C2804 1.523 . S
C2804 C2788 1.368 . S
C2804 C2800 1.368 . S
C2804 C2803 1.523 . S
H2805 C2780 0.950 . S
H2806 C2782 0.950 . S
H2807 C2783 0.949 . S
H2808 C2785 0.950 . S
H2809 C2787 0.950 . S
C2810 C2811 1.349 . S
C2810 C2812 1.327 . S
C2810 H2835 0.950 . S
C2811 C2810 1.349 . S
C2811 C2827 1.349 . S
C2812 C2810 1.327 . S
C2812 C2831 1.429 . S
C2812 H2836 0.950 . S
C2813 C2830 1.574 . S
C2813 C2832 1.368 . S
C2813 H2837 0.949 . S
H2814 C2818 0.949 . S
C2815 C2816 1.349 . S
C2815 C2817 1.327 . S
C2815 H2838 0.950 . S
C2816 C2815 1.349 . S
C2816 C2828 1.349 . S
C2817 C2815 1.327 . S
C2817 C2833 1.429 . S
C2817 H2839 0.950 . S
C2818 H2814 0.949 . S
C2818 C2826 1.574 . S
C2818 C2834 1.368 . S
H2819 C2827 0.950 . S
H2820 C2825 0.950 . S
H2821 C2826 0.949 . S
H2822 C2828 0.950 . S
H2823 C2829 0.950 . S
H2824 C2830 0.949 . S
C2825 H2820 0.950 . S
C2825 C2827 1.327 . S
C2825 C2831 1.429 . S
C2826 C2818 1.574 . S
C2826 H2821 0.949 . S
C2826 C2832 1.368 . S
C2827 C2811 1.349 . S
C2827 H2819 0.950 . S
C2827 C2825 1.327 . S
C2828 C2816 1.349 . S
C2828 H2822 0.950 . S
C2828 C2829 1.327 . S
C2829 H2823 0.950 . S
C2829 C2828 1.327 . S
C2829 C2833 1.429 . S
C2830 C2813 1.574 . S
C2830 H2824 0.949 . S
C2830 C2834 1.368 . S
C2831 C2812 1.429 . S
C2831 C2825 1.429 . S
C2831 C2832 1.523 . S
C2832 C2813 1.368 . S
C2832 C2826 1.368 . S
C2832 C2831 1.523 . S
C2833 C2817 1.429 . S
C2833 C2829 1.429 . S
C2833 C2834 1.523 . S
C2834 C2818 1.368 . S
C2834 C2830 1.368 . S
C2834 C2833 1.523 . S
H2835 C2810 0.950 . S
H2836 C2812 0.950 . S
H2837 C2813 0.949 . S
H2838 C2815 0.950 . S
H2839 C2817 0.950 . S
C2840 C2841 1.349 . S
C2840 C2842 1.327 . S
C2840 H2865 0.950 . S
C2841 C2840 1.349 . S
C2841 C2857 1.349 . S
C2842 C2840 1.327 . S
C2842 C2861 1.429 . S
C2842 H2866 0.950 . S
C2843 C2860 1.574 . S
C2843 C2862 1.368 . S
C2843 H2867 0.949 . S
H2844 C2848 0.949 . S
C2845 C2846 1.349 . S
C2845 C2847 1.327 . S
C2845 H2868 0.950 . S
C2846 C2845 1.349 . S
C2846 C2858 1.349 . S
C2847 C2845 1.327 . S
C2847 C2863 1.429 . S
C2847 H2869 0.950 . S
C2848 H2844 0.949 . S
C2848 C2856 1.574 . S
C2848 C2864 1.368 . S
H2849 C2857 0.950 . S
H2850 C2855 0.950 . S
H2851 C2856 0.949 . S
H2852 C2858 0.950 . S
H2853 C2859 0.950 . S
H2854 C2860 0.949 . S
C2855 H2850 0.950 . S
C2855 C2857 1.327 . S
C2855 C2861 1.429 . S
C2856 C2848 1.574 . S
C2856 H2851 0.949 . S
C2856 C2862 1.368 . S
C2857 C2841 1.349 . S
C2857 H2849 0.950 . S
C2857 C2855 1.327 . S
C2858 C2846 1.349 . S
C2858 H2852 0.950 . S
C2858 C2859 1.327 . S
C2859 H2853 0.950 . S
C2859 C2858 1.327 . S
C2859 C2863 1.429 . S
C2860 C2843 1.574 . S
C2860 H2854 0.949 . S
C2860 C2864 1.368 . S
C2861 C2842 1.429 . S
C2861 C2855 1.429 . S
C2861 C2862 1.523 . S
C2862 C2843 1.368 . S
C2862 C2856 1.368 . S
C2862 C2861 1.523 . S
C2863 C2847 1.429 . S
C2863 C2859 1.429 . S
C2863 C2864 1.523 . S
C2864 C2848 1.368 . S
C2864 C2860 1.368 . S
C2864 C2863 1.523 . S
H2865 C2840 0.950 . S
H2866 C2842 0.950 . S
H2867 C2843 0.949 . S
H2868 C2845 0.950 . S
H2869 C2847 0.950 . S
C2870 C2871 1.349 . S
C2870 C2872 1.327 . S
C2870 H2895 0.950 . S
C2871 C2870 1.349 . S
C2871 C2887 1.349 . S
C2872 C2870 1.327 . S
C2872 C2891 1.429 . S
C2872 H2896 0.950 . S
C2873 C2890 1.574 . S
C2873 C2892 1.368 . S
C2873 H2897 0.949 . S
H2874 C2878 0.949 . S
C2875 C2876 1.349 . S
C2875 C2877 1.327 . S
C2875 H2898 0.950 . S
C2876 C2875 1.349 . S
C2876 C2888 1.349 . S
C2877 C2875 1.327 . S
C2877 C2893 1.429 . S
C2877 H2899 0.950 . S
C2878 H2874 0.949 . S
C2878 C2886 1.574 . S
C2878 C2894 1.368 . S
H2879 C2887 0.950 . S
H2880 C2885 0.950 . S
H2881 C2886 0.949 . S
H2882 C2888 0.950 . S
H2883 C2889 0.950 . S
H2884 C2890 0.949 . S
C2885 H2880 0.950 . S
C2885 C2887 1.327 . S
C2885 C2891 1.429 . S
C2886 C2878 1.574 . S
C2886 H2881 0.949 . S
C2886 C2892 1.368 . S
C2887 C2871 1.349 . S
C2887 H2879 0.950 . S
C2887 C2885 1.327 . S
C2888 C2876 1.349 . S
C2888 H2882 0.950 . S
C2888 C2889 1.327 . S
C2889 H2883 0.950 . S
C2889 C2888 1.327 . S
C2889 C2893 1.429 . S
C2890 C2873 1.574 . S
C2890 H2884 0.949 . S
C2890 C2894 1.368 . S
C2891 C2872 1.429 . S
C2891 C2885 1.429 . S
C2891 C2892 1.523 . S
C2892 C2873 1.368 . S
C2892 C2886 1.368 . S
C2892 C2891 1.523 . S
C2893 C2877 1.429 . S
C2893 C2889 1.429 . S
C2893 C2894 1.523 . S
C2894 C2878 1.368 . S
C2894 C2890 1.368 . S
C2894 C2893 1.523 . S
H2895 C2870 0.950 . S
H2896 C2872 0.950 . S
H2897 C2873 0.949 . S
H2898 C2875 0.950 . S
H2899 C2877 0.950 . S
C2900 C2901 1.349 . S
C2900 C2902 1.327 . S
C2900 H2925 0.950 . S
C2901 C2900 1.349 . S
C2901 C2917 1.349 . S
C2902 C2900 1.327 . S
C2902 C2921 1.429 . S
C2902 H2926 0.950 . S
C2903 C2920 1.574 . S
C2903 C2922 1.368 . S
C2903 H2927 0.949 . S
H2904 C2908 0.949 . S
C2905 C2906 1.349 . S
C2905 C2907 1.327 . S
C2905 H2928 0.950 . S
C2906 C2905 1.349 . S
C2906 C2918 1.349 . S
C2907 C2905 1.327 . S
C2907 C2923 1.429 . S
C2907 H2929 0.950 . S
C2908 H2904 0.949 . S
C2908 C2916 1.574 . S
C2908 C2924 1.368 . S
H2909 C2917 0.950 . S
H2910 C2915 0.950 . S
H2911 C2916 0.949 . S
H2912 C2918 0.950 . S
H2913 C2919 0.950 . S
H2914 C2920 0.949 . S
C2915 H2910 0.950 . S
C2915 C2917 1.327 . S
C2915 C2921 1.429 . S
C2916 C2908 1.574 . S
C2916 H2911 0.949 . S
C2916 C2922 1.368 . S
C2917 C2901 1.349 . S
C2917 H2909 0.950 . S
C2917 C2915 1.327 . S
C2918 C2906 1.349 . S
C2918 H2912 0.950 . S
C2918 C2919 1.327 . S
C2919 H2913 0.950 . S
C2919 C2918 1.327 . S
C2919 C2923 1.429 . S
C2920 C2903 1.574 . S
C2920 H2914 0.949 . S
C2920 C2924 1.368 . S
C2921 C2902 1.429 . S
C2921 C2915 1.429 . S
C2921 C2922 1.523 . S
C2922 C2903 1.368 . S
C2922 C2916 1.368 . S
C2922 C2921 1.523 . S
C2923 C2907 1.429 . S
C2923 C2919 1.429 . S
C2923 C2924 1.523 . S
C2924 C2908 1.368 . S
C2924 C2920 1.368 . S
C2924 C2923 1.523 . S
H2925 C2900 0.950 . S
H2926 C2902 0.950 . S
H2927 C2903 0.949 . S
H2928 C2905 0.950 . S
H2929 C2907 0.950 . S
C2930 C2931 1.349 . S
C2930 C2932 1.327 . S
C2930 H2955 0.950 . S
C2931 C2930 1.349 . S
C2931 C2947 1.349 . S
C2932 C2930 1.327 . S
C2932 C2951 1.429 . S
C2932 H2956 0.950 . S
C2933 C2950 1.574 . S
C2933 C2952 1.368 . S
C2933 H2957 0.949 . S
H2934 C2938 0.949 . S
C2935 C2936 1.349 . S
C2935 C2937 1.327 . S
C2935 H2958 0.950 . S
C2936 C2935 1.349 . S
C2936 C2948 1.349 . S
C2937 C2935 1.327 . S
C2937 C2953 1.429 . S
C2937 H2959 0.950 . S
C2938 H2934 0.949 . S
C2938 C2946 1.574 . S
C2938 C2954 1.368 . S
H2939 C2947 0.950 . S
H2940 C2945 0.950 . S
H2941 C2946 0.949 . S
H2942 C2948 0.950 . S
H2943 C2949 0.950 . S
H2944 C2950 0.949 . S
C2945 H2940 0.950 . S
C2945 C2947 1.327 . S
C2945 C2951 1.429 . S
C2946 C2938 1.574 . S
C2946 H2941 0.949 . S
C2946 C2952 1.368 . S
C2947 C2931 1.349 . S
C2947 H2939 0.950 . S
C2947 C2945 1.327 . S
C2948 C2936 1.349 . S
C2948 H2942 0.950 . S
C2948 C2949 1.327 . S
C2949 H2943 0.950 . S
C2949 C2948 1.327 . S
C2949 C2953 1.429 . S
C2950 C2933 1.574 . S
C2950 H2944 0.949 . S
C2950 C2954 1.368 . S
C2951 C2932 1.429 . S
C2951 C2945 1.429 . S
C2951 C2952 1.523 . S
C2952 C2933 1.368 . S
C2952 C2946 1.368 . S
C2952 C2951 1.523 . S
C2953 C2937 1.429 . S
C2953 C2949 1.429 . S
C2953 C2954 1.523 . S
C2954 C2938 1.368 . S
C2954 C2950 1.368 . S
C2954 C2953 1.523 . S
H2955 C2930 0.950 . S
H2956 C2932 0.950 . S
H2957 C2933 0.949 . S
H2958 C2935 0.950 . S
H2959 C2937 0.950 . S
C2960 C2961 1.349 . S
C2960 C2962 1.327 . S
C2960 H2985 0.950 . S
C2961 C2960 1.349 . S
C2961 C2977 1.349 . S
C2962 C2960 1.327 . S
C2962 C2981 1.429 . S
C2962 H2986 0.950 . S
C2963 C2980 1.574 . S
C2963 C2982 1.368 . S
C2963 H2987 0.949 . S
H2964 C2968 0.949 . S
C2965 C2966 1.349 . S
C2965 C2967 1.327 . S
C2965 H2988 0.950 . S
C2966 C2965 1.349 . S
C2966 C2978 1.349 . S
C2967 C2965 1.327 . S
C2967 C2983 1.429 . S
C2967 H2989 0.950 . S
C2968 H2964 0.949 . S
C2968 C2976 1.574 . S
C2968 C2984 1.368 . S
H2969 C2977 0.950 . S
H2970 C2975 0.950 . S
H2971 C2976 0.949 . S
H2972 C2978 0.950 . S
H2973 C2979 0.950 . S
H2974 C2980 0.949 . S
C2975 H2970 0.950 . S
C2975 C2977 1.327 . S
C2975 C2981 1.429 . S
C2976 C2968 1.574 . S
C2976 H2971 0.949 . S
C2976 C2982 1.368 . S
C2977 C2961 1.349 . S
C2977 H2969 0.950 . S
C2977 C2975 1.327 . S
C2978 C2966 1.349 . S
C2978 H2972 0.950 . S
C2978 C2979 1.327 . S
C2979 H2973 0.950 . S
C2979 C2978 1.327 . S
C2979 C2983 1.429 . S
C2980 C2963 1.574 . S
C2980 H2974 0.949 . S
C2980 C2984 1.368 . S
C2981 C2962 1.429 . S
C2981 C2975 1.429 . S
C2981 C2982 1.523 . S
C2982 C2963 1.368 . S
C2982 C2976 1.368 . S
C2982 C2981 1.523 . S
C2983 C2967 1.429 . S
C2983 C2979 1.429 . S
C2983 C2984 1.523 . S
C2984 C2968 1.368 . S
C2984 C2980 1.368 . S
C2984 C2983 1.523 . S
H2985 C2960 0.950 . S
H2986 C2962 0.950 . S
H2987 C2963 0.949 . S
H2988 C2965 0.950 . S
H2989 C2967 0.950 . S
C2990 C2991 1.349 . S
C2990 C2992 1.327 . S
C2990 H3015 0.950 . S
C2991 C2990 1.349 . S
C2991 C3007 1.349 . S
C2992 C2990 1.327 . S
C2992 C3011 1.429 . S
C2992 H3016 0.950 . S
C2993 C3010 1.574 . S
C2993 C3012 1.368 . S
C2993 H3017 0.949 . S
H2994 C2998 0.949 . S
C2995 C2996 1.349 . S
C2995 C2997 1.327 . S
C2995 H3018 0.950 . S
C2996 C2995 1.349 . S
C2996 C3008 1.349 . S
C2997 C2995 1.327 . S
C2997 C3013 1.429 . S
C2997 H3019 0.950 . S
C2998 H2994 0.949 . S
C2998 C3006 1.574 . S
C2998 C3014 1.368 . S
H2999 C3007 0.950 . S
H3000 C3005 0.950 . S
H3001 C3006 0.949 . S
H3002 C3008 0.950 . S
H3003 C3009 0.950 . S
H3004 C3010 0.949 . S
C3005 H3000 0.950 . S
C3005 C3007 1.327 . S
C3005 C3011 1.429 . S
C3006 C2998 1.574 . S
C3006 H3001 0.949 . S
C3006 C3012 1.368 . S
C3007 C2991 1.349 . S
C3007 H2999 0.950 . S
C3007 C3005 1.327 . S
C3008 C2996 1.349 . S
C3008 H3002 0.950 . S
C3008 C3009 1.327 . S
C3009 H3003 0.950 . S
C3009 C3008 1.327 . S
C3009 C3013 1.429 . S
C3010 C2993 1.574 . S
C3010 H3004 0.949 . S
C3010 C3014 1.368 . S
C3011 C2992 1.429 . S
C3011 C3005 1.429 . S
C3011 C3012 1.523 . S
C3012 C2993 1.368 . S
C3012 C3006 1.368 . S
C3012 C3011 1.523 . S
C3013 C2997 1.429 . S
C3013 C3009 1.429 . S
C3013 C3014 1.523 . S
C3014 C2998 1.368 . S
C3014 C3010 1.368 . S
C3014 C3013 1.523 . S
H3015 C2990 0.950 . S
H3016 C2992 0.950 . S
H3017 C2993 0.949 . S
H3018 C2995 0.950 . S
H3019 C2997 0.950 . S
C3020 C3021 1.349 . S
C3020 C3022 1.327 . S
C3020 H3045 0.950 . S
C3021 C3020 1.349 . S
C3021 C3037 1.349 . S
C3022 C3020 1.327 . S
C3022 C3041 1.429 . S
C3022 H3046 0.950 . S
C3023 C3040 1.574 . S
C3023 C3042 1.368 . S
C3023 H3047 0.949 . S
H3024 C3028 0.949 . S
C3025 C3026 1.349 . S
C3025 C3027 1.327 . S
C3025 H3048 0.950 . S
C3026 C3025 1.349 . S
C3026 C3038 1.349 . S
C3027 C3025 1.327 . S
C3027 C3043 1.429 . S
C3027 H3049 0.950 . S
C3028 H3024 0.949 . S
C3028 C3036 1.574 . S
C3028 C3044 1.368 . S
H3029 C3037 0.950 . S
H3030 C3035 0.950 . S
H3031 C3036 0.949 . S
H3032 C3038 0.950 . S
H3033 C3039 0.950 . S
H3034 C3040 0.949 . S
C3035 H3030 0.950 . S
C3035 C3037 1.327 . S
C3035 C3041 1.429 . S
C3036 C3028 1.574 . S
C3036 H3031 0.949 . S
C3036 C3042 1.368 . S
C3037 C3021 1.349 . S
C3037 H3029 0.950 . S
C3037 C3035 1.327 . S
C3038 C3026 1.349 . S
C3038 H3032 0.950 . S
C3038 C3039 1.327 . S
C3039 H3033 0.950 . S
C3039 C3038 1.327 . S
C3039 C3043 1.429 . S
C3040 C3023 1.574 . S
C3040 H3034 0.949 . S
C3040 C3044 1.368 . S
C3041 C3022 1.429 . S
C3041 C3035 1.429 . S
C3041 C3042 1.523 . S
C3042 C3023 1.368 . S
C3042 C3036 1.368 . S
C3042 C3041 1.523 . S
C3043 C3027 1.429 . S
C3043 C3039 1.429 . S
C3043 C3044 1.523 . S
C3044 C3028 1.368 . S
C3044 C3040 1.368 . S
C3044 C3043 1.523 . S
H3045 C3020 0.950 . S
H3046 C3022 0.950 . S
H3047 C3023 0.949 . S
H3048 C3025 0.950 . S
H3049 C3027 0.950 . S
C3050 C3051 1.349 . S
C3050 C3052 1.327 . S
C3050 H3075 0.950 . S
C3051 C3050 1.349 . S
C3051 C3067 1.349 . S
C3052 C3050 1.327 . S
C3052 C3071 1.429 . S
C3052 H3076 0.950 . S
C3053 C3070 1.574 . S
C3053 C3072 1.368 . S
C3053 H3077 0.949 . S
H3054 C3058 0.949 . S
C3055 C3056 1.349 . S
C3055 C3057 1.327 . S
C3055 H3078 0.950 . S
C3056 C3055 1.349 . S
C3056 C3068 1.349 . S
C3057 C3055 1.327 . S
C3057 C3073 1.429 . S
C3057 H3079 0.950 . S
C3058 H3054 0.949 . S
C3058 C3066 1.574 . S
C3058 C3074 1.368 . S
H3059 C3067 0.950 . S
H3060 C3065 0.950 . S
H3061 C3066 0.949 . S
H3062 C3068 0.950 . S
H3063 C3069 0.950 . S
H3064 C3070 0.949 . S
C3065 H3060 0.950 . S
C3065 C3067 1.327 . S
C3065 C3071 1.429 . S
C3066 C3058 1.574 . S
C3066 H3061 0.949 . S
C3066 C3072 1.368 . S
C3067 C3051 1.349 . S
C3067 H3059 0.950 . S
C3067 C3065 1.327 . S
C3068 C3056 1.349 . S
C3068 H3062 0.950 . S
C3068 C3069 1.327 . S
C3069 H3063 0.950 . S
C3069 C3068 1.327 . S
C3069 C3073 1.429 . S
C3070 C3053 1.574 . S
C3070 H3064 0.949 . S
C3070 C3074 1.368 . S
C3071 C3052 1.429 . S
C3071 C3065 1.429 . S
C3071 C3072 1.523 . S
C3072 C3053 1.368 . S
C3072 C3066 1.368 . S
C3072 C3071 1.523 . S
C3073 C3057 1.429 . S
C3073 C3069 1.429 . S
C3073 C3074 1.523 . S
C3074 C3058 1.368 . S
C3074 C3070 1.368 . S
C3074 C3073 1.523 . S
H3075 C3050 0.950 . S
H3076 C3052 0.950 . S
H3077 C3053 0.949 . S
H3078 C3055 0.950 . S
H3079 C3057 0.950 . S
C3080 C3081 1.349 . S
C3080 C3082 1.327 . S
C3080 H3105 0.950 . S
C3081 C3080 1.349 . S
C3081 C3097 1.349 . S
C3082 C3080 1.327 . S
C3082 C3101 1.429 . S
C3082 H3106 0.950 . S
C3083 C3100 1.574 . S
C3083 C3102 1.368 . S
C3083 H3107 0.949 . S
H3084 C3088 0.949 . S
C3085 C3086 1.349 . S
C3085 C3087 1.327 . S
C3085 H3108 0.950 . S
C3086 C3085 1.349 . S
C3086 C3098 1.349 . S
C3087 C3085 1.327 . S
C3087 C3103 1.429 . S
C3087 H3109 0.950 . S
C3088 H3084 0.949 . S
C3088 C3096 1.574 . S
C3088 C3104 1.368 . S
H3089 C3097 0.950 . S
H3090 C3095 0.950 . S
H3091 C3096 0.949 . S
H3092 C3098 0.950 . S
H3093 C3099 0.950 . S
H3094 C3100 0.949 . S
C3095 H3090 0.950 . S
C3095 C3097 1.327 . S
C3095 C3101 1.429 . S
C3096 C3088 1.574 . S
C3096 H3091 0.949 . S
C3096 C3102 1.368 . S
C3097 C3081 1.349 . S
C3097 H3089 0.950 . S
C3097 C3095 1.327 . S
C3098 C3086 1.349 . S
C3098 H3092 0.950 . S
C3098 C3099 1.327 . S
C3099 H3093 0.950 . S
C3099 C3098 1.327 . S
C3099 C3103 1.429 . S
C3100 C3083 1.574 . S
C3100 H3094 0.949 . S
C3100 C3104 1.368 . S
C3101 C3082 1.429 . S
C3101 C3095 1.429 . S
C3101 C3102 1.523 . S
C3102 C3083 1.368 . S
C3102 C3096 1.368 . S
C3102 C3101 1.523 . S
C3103 C3087 1.429 . S
C3103 C3099 1.429 . S
C3103 C3104 1.523 . S
C3104 C3088 1.368 . S
C3104 C3100 1.368 . S
C3104 C3103 1.523 . S
H3105 C3080 0.950 . S
H3106 C3082 0.950 . S
H3107 C3083 0.949 . S
H3108 C3085 0.950 . S
H3109 C3087 0.950 . S
C3110 C3111 1.349 . S
C3110 C3112 1.327 . S
C3110 H3135 0.950 . S
C3111 C3110 1.349 . S
C3111 C3127 1.349 . S
C3112 C3110 1.327 . S
C3112 C3131 1.429 . S
C3112 H3136 0.950 . S
C3113 C3130 1.574 . S
C3113 C3132 1.368 . S
C3113 H3137 0.949 . S
H3114 C3118 0.949 . S
C3115 C3116 1.349 . S
C3115 C3117 1.327 . S
C3115 H3138 0.950 . S
C3116 C3115 1.349 . S
C3116 C3128 1.349 . S
C3117 C3115 1.327 . S
C3117 C3133 1.429 . S
C3117 H3139 0.950 . S
C3118 H3114 0.949 . S
C3118 C3126 1.574 . S
C3118 C3134 1.368 . S
H3119 C3127 0.950 . S
H3120 C3125 0.950 . S
H3121 C3126 0.949 . S
H3122 C3128 0.950 . S
H3123 C3129 0.950 . S
H3124 C3130 0.949 . S
C3125 H3120 0.950 . S
C3125 C3127 1.327 . S
C3125 C3131 1.429 . S
C3126 C3118 1.574 . S
C3126 H3121 0.949 . S
C3126 C3132 1.368 . S
C3127 C3111 1.349 . S
C3127 H3119 0.950 . S
C3127 C3125 1.327 . S
C3128 C3116 1.349 . S
C3128 H3122 0.950 . S
C3128 C3129 1.327 . S
C3129 H3123 0.950 . S
C3129 C3128 1.327 . S
C3129 C3133 1.429 . S
C3130 C3113 1.574 . S
C3130 H3124 0.949 . S
C3130 C3134 1.368 . S
C3131 C3112 1.429 . S
C3131 C3125 1.429 . S
C3131 C3132 1.523 . S
C3132 C3113 1.368 . S
C3132 C3126 1.368 . S
C3132 C3131 1.523 . S
C3133 C3117 1.429 . S
C3133 C3129 1.429 . S
C3133 C3134 1.523 . S
C3134 C3118 1.368 . S
C3134 C3130 1.368 . S
C3134 C3133 1.523 . S
H3135 C3110 0.950 . S
H3136 C3112 0.950 . S
H3137 C3113 0.949 . S
H3138 C3115 0.950 . S
H3139 C3117 0.950 . S
C3140 C3141 1.349 . S
C3140 C3142 1.327 . S
C3140 H3165 0.950 . S
C3141 C3140 1.349 . S
C3141 C3157 1.349 . S
C3142 C3140 1.327 . S
C3142 C3161 1.429 . S
C3142 H3166 0.950 . S
C3143 C3160 1.574 . S
C3143 C3162 1.368 . S
C3143 H3167 0.949 . S
H3144 C3148 0.949 . S
C3145 C3146 1.349 . S
C3145 C3147 1.327 . S
C3145 H3168 0.950 . S
C3146 C3145 1.349 . S
C3146 C3158 1.349 . S
C3147 C3145 1.327 . S
C3147 C3163 1.429 . S
C3147 H3169 0.950 . S
C3148 H3144 0.949 . S
C3148 C3156 1.574 . S
C3148 C3164 1.368 . S
H3149 C3157 0.950 . S
H3150 C3155 0.950 . S
H3151 C3156 0.949 . S
H3152 C3158 0.950 . S
H3153 C3159 0.950 . S
H3154 C3160 0.949 . S
C3155 H3150 0.950 . S
C3155 C3157 1.327 . S
C3155 C3161 1.429 . S
C3156 C3148 1.574 . S
C3156 H3151 0.949 . S
C3156 C3162 1.368 . S
C3157 C3141 1.349 . S
C3157 H3149 0.950 . S
C3157 C3155 1.327 . S
C3158 C3146 1.349 . S
C3158 H3152 0.950 . S
C3158 C3159 1.327 . S
C3159 H3153 0.950 . S
C3159 C3158 1.327 . S
C3159 C3163 1.429 . S
C3160 C3143 1.574 . S
C3160 H3154 0.949 . S
C3160 C3164 1.368 . S
C3161 C3142 1.429 . S
C3161 C3155 1.429 . S
C3161 C3162 1.523 . S
C3162 C3143 1.368 . S
C3162 C3156 1.368 . S
C3162 C3161 1.523 . S
C3163 C3147 1.429 . S
C3163 C3159 1.429 . S
C3163 C3164 1.523 . S
C3164 C3148 1.368 . S
C3164 C3160 1.368 . S
C3164 C3163 1.523 . S
H3165 C3140 0.950 . S
H3166 C3142 0.950 . S
H3167 C3143 0.949 . S
H3168 C3145 0.950 . S
H3169 C3147 0.950 . S
C3170 C3171 1.349 . S
C3170 C3172 1.327 . S
C3170 H3195 0.950 . S
C3171 C3170 1.349 . S
C3171 C3187 1.349 . S
C3172 C3170 1.327 . S
C3172 C3191 1.429 . S
C3172 H3196 0.950 . S
C3173 C3190 1.574 . S
C3173 C3192 1.368 . S
C3173 H3197 0.949 . S
H3174 C3178 0.949 . S
C3175 C3176 1.349 . S
C3175 C3177 1.327 . S
C3175 H3198 0.950 . S
C3176 C3175 1.349 . S
C3176 C3188 1.349 . S
C3177 C3175 1.327 . S
C3177 C3193 1.429 . S
C3177 H3199 0.950 . S
C3178 H3174 0.949 . S
C3178 C3186 1.574 . S
C3178 C3194 1.368 . S
H3179 C3187 0.950 . S
H3180 C3185 0.950 . S
H3181 C3186 0.949 . S
H3182 C3188 0.950 . S
H3183 C3189 0.950 . S
H3184 C3190 0.949 . S
C3185 H3180 0.950 . S
C3185 C3187 1.327 . S
C3185 C3191 1.429 . S
C3186 C3178 1.574 . S
C3186 H3181 0.949 . S
C3186 C3192 1.368 . S
C3187 C3171 1.349 . S
C3187 H3179 0.950 . S
C3187 C3185 1.327 . S
C3188 C3176 1.349 . S
C3188 H3182 0.950 . S
C3188 C3189 1.327 . S
C3189 H3183 0.950 . S
C3189 C3188 1.327 . S
C3189 C3193 1.429 . S
C3190 C3173 1.574 . S
C3190 H3184 0.949 . S
C3190 C3194 1.368 . S
C3191 C3172 1.429 . S
C3191 C3185 1.429 . S
C3191 C3192 1.523 . S
C3192 C3173 1.368 . S
C3192 C3186 1.368 . S
C3192 C3191 1.523 . S
C3193 C3177 1.429 . S
C3193 C3189 1.429 . S
C3193 C3194 1.523 . S
C3194 C3178 1.368 . S
C3194 C3190 1.368 . S
C3194 C3193 1.523 . S
H3195 C3170 0.950 . S
H3196 C3172 0.950 . S
H3197 C3173 0.949 . S
H3198 C3175 0.950 . S
H3199 C3177 0.950 . S
C3200 C3201 1.349 1_545 S
C3200 C3202 1.327 . S
C3200 H3225 0.950 . S
C3201 C3200 1.349 1_565 S
C3201 C3217 1.349 . S
C3202 C3200 1.327 . S
C3202 C3221 1.429 1_545 S
C3202 H3226 0.950 . S
C3203 C3220 1.574 . S
C3203 C3222 1.368 . S
C3203 H3227 0.949 . S
H3204 C3208 0.949 . S
C3205 C3206 1.349 . S
C3205 C3207 1.327 . S
C3205 H3228 0.950 . S
C3206 C3205 1.349 . S
C3206 C3218 1.373 . S
C3207 C3205 1.327 . S
C3207 C3223 1.429 . S
C3207 H3229 0.950 . S
C3208 H3204 0.949 . S
C3208 C3216 1.574 . S
C3208 C3224 1.368 1_545 S
H3209 C3217 0.950 . S
H3210 C3215 0.950 . S
H3211 C3216 0.949 . S
H3212 C3218 0.929 1_545 S
H3213 C3219 0.972 . S
H3214 C3220 0.949 . S
C3215 H3210 0.950 . S
C3215 C3217 1.327 . S
C3215 C3221 1.429 . S
C3216 C3208 1.574 . S
C3216 H3211 0.949 . S
C3216 C3222 1.368 1_545 S
C3217 C3201 1.349 . S
C3217 H3209 0.950 . S
C3217 C3215 1.327 . S
C3218 C3206 1.373 . S
C3218 H3212 0.929 1_565 S
C3218 C3219 1.324 1_565 S
C3219 H3213 0.972 . S
C3219 C3218 1.324 1_545 S
C3219 C3223 1.410 1_545 S
C3220 C3203 1.574 . S
C3220 H3214 0.949 . S
C3220 C3224 1.368 . S
C3221 C3202 1.429 1_565 S
C3221 C3215 1.429 . S
C3221 C3222 1.523 . S
C3222 C3203 1.368 . S
C3222 C3216 1.368 1_565 S
C3222 C3221 1.523 . S
C3223 C3207 1.429 . S
C3223 C3219 1.410 1_565 S
C3223 C3224 1.523 . S
C3224 C3208 1.368 1_565 S
C3224 C3220 1.368 . S
C3224 C3223 1.523 . S
H3225 C3200 0.950 . S
H3226 C3202 0.950 . S
H3227 C3203 0.949 . S
H3228 C3205 0.950 . S
H3229 C3207 0.950 . S
C3230 C3231 1.349 . S
C3230 C3232 1.327 . S
C3230 H3255 0.950 . S
C3231 C3230 1.349 . S
C3231 C3247 1.349 . S
C3232 C3230 1.327 . S
C3232 C3251 1.429 . S
C3232 H3256 0.950 . S
C3233 C3250 1.574 . S
C3233 C3252 1.368 . S
C3233 H3257 0.949 . S
H3234 C3238 0.949 . S
C3235 C3236 1.349 . S
C3235 C3237 1.377 . S
C3235 H3258 0.950 . S
C3236 C3235 1.349 . S
C3236 C3248 1.349 . S
C3237 C3235 1.377 . S
C3237 C3253 1.396 1_655 S
C3237 H3259 0.933 1_655 S
C3238 H3234 0.949 . S
C3238 C3246 1.574 . S
C3238 C3254 1.368 . S
H3239 C3247 0.950 . S
H3240 C3245 0.950 . S
H3241 C3246 0.949 . S
H3242 C3248 0.950 . S
H3243 C3249 0.950 . S
H3244 C3250 0.949 . S
C3245 H3240 0.950 . S
C3245 C3247 1.327 . S
C3245 C3251 1.429 . S
C3246 C3238 1.574 . S
C3246 H3241 0.949 . S
C3246 C3252 1.368 . S
C3247 C3231 1.349 . S
C3247 H3239 0.950 . S
C3247 C3245 1.327 . S
C3248 C3236 1.349 . S
C3248 H3242 0.950 . S
C3248 C3249 1.327 1_655 S
C3249 H3243 0.950 . S
C3249 C3248 1.327 1_455 S
C3249 C3253 1.429 . S
C3250 C3233 1.574 . S
C3250 H3244 0.949 . S
C3250 C3254 1.368 . S
C3251 C3232 1.429 . S
C3251 C3245 1.429 . S
C3251 C3252 1.523 . S
C3252 C3233 1.368 . S
C3252 C3246 1.368 . S
C3252 C3251 1.523 . S
C3253 C3237 1.396 1_455 S
C3253 C3249 1.429 . S
C3253 C3254 1.523 . S
C3254 C3238 1.368 . S
C3254 C3250 1.368 . S
C3254 C3253 1.523 . S
H3255 C3230 0.950 . S
H3256 C3232 0.950 . S
H3257 C3233 0.949 . S
H3258 C3235 0.950 . S
H3259 C3237 0.933 1_455 S
C3260 C3261 1.349 . S
C3260 C3262 1.327 . S
C3260 H3285 0.950 . S
C3261 C3260 1.349 . S
C3261 C3277 1.349 . S
C3262 C3260 1.327 . S
C3262 C3281 1.429 . S
C3262 H3286 0.950 . S
C3263 C3280 1.574 . S
C3263 C3282 1.368 . S
C3263 H3287 0.949 . S
H3264 C3268 0.949 . S
C3265 C3266 1.349 . S
C3265 C3267 1.327 . S
C3265 H3288 0.950 . S
C3266 C3265 1.349 . S
C3266 C3278 1.349 . S
C3267 C3265 1.327 . S
C3267 C3283 1.429 . S
C3267 H3289 0.950 . S
C3268 H3264 0.949 . S
C3268 C3276 1.574 . S
C3268 C3284 1.368 . S
H3269 C3277 0.950 . S
H3270 C3275 0.950 . S
H3271 C3276 0.949 . S
H3272 C3278 0.950 . S
H3273 C3279 0.950 . S
H3274 C3280 0.949 . S
C3275 H3270 0.950 . S
C3275 C3277 1.327 . S
C3275 C3281 1.429 . S
C3276 C3268 1.574 . S
C3276 H3271 0.949 . S
C3276 C3282 1.368 . S
C3277 C3261 1.349 . S
C3277 H3269 0.950 . S
C3277 C3275 1.327 . S
C3278 C3266 1.349 . S
C3278 H3272 0.950 . S
C3278 C3279 1.327 . S
C3279 H3273 0.950 . S
C3279 C3278 1.327 . S
C3279 C3283 1.429 . S
C3280 C3263 1.574 . S
C3280 H3274 0.949 . S
C3280 C3284 1.368 . S
C3281 C3262 1.429 . S
C3281 C3275 1.429 . S
C3281 C3282 1.523 . S
C3282 C3263 1.368 . S
C3282 C3276 1.368 . S
C3282 C3281 1.523 . S
C3283 C3267 1.429 . S
C3283 C3279 1.429 . S
C3283 C3284 1.523 . S
C3284 C3268 1.368 . S
C3284 C3280 1.368 . S
C3284 C3283 1.523 . S
H3285 C3260 0.950 . S
H3286 C3262 0.950 . S
H3287 C3263 0.949 . S
H3288 C3265 0.950 . S
H3289 C3267 0.950 . S
C3290 C3291 1.349 1_545 S
C3290 C3292 1.320 . S
C3290 H3315 0.950 . S
C3291 C3290 1.349 1_565 S
C3291 C3307 1.349 . S
C3292 C3290 1.320 . S
C3292 C3311 1.433 1_645 S
C3292 H3316 0.953 1_655 S
C3293 C3310 1.574 . S
C3293 C3312 1.368 . S
C3293 H3317 0.949 . S
H3294 C3298 0.949 . S
C3295 C3296 1.349 . S
C3295 C3297 1.327 . S
C3295 H3318 0.950 . S
C3296 C3295 1.349 . S
C3296 C3308 1.306 1_565 S
C3297 C3295 1.327 . S
C3297 C3313 1.429 . S
C3297 H3319 0.950 . S
C3298 H3294 0.949 . S
C3298 C3306 1.574 . S
C3298 C3314 1.368 1_545 S
H3299 C3307 0.950 . S
H3300 C3305 0.950 . S
H3301 C3306 0.949 . S
H3302 C3308 0.991 . S
H3303 C3309 0.950 . S
H3304 C3310 0.949 . S
C3305 H3300 0.950 . S
C3305 C3307 1.327 1_455 S
C3305 C3311 1.429 . S
C3306 C3298 1.574 . S
C3306 H3301 0.949 . S
C3306 C3312 1.368 1_545 S
C3307 C3291 1.349 . S
C3307 H3299 0.950 . S
C3307 C3305 1.327 1_655 S
C3308 C3296 1.306 1_545 S
C3308 H3302 0.991 . S
C3308 C3309 1.333 . S
C3309 H3303 0.950 . S
C3309 C3308 1.333 . S
C3309 C3313 1.429 1_545 S
C3310 C3293 1.574 . S
C3310 H3304 0.949 . S
C3310 C3314 1.368 . S
C3311 C3292 1.433 1_465 S
C3311 C3305 1.429 . S
C3311 C3312 1.523 . S
C3312 C3293 1.368 . S
C3312 C3306 1.368 1_565 S
C3312 C3311 1.523 . S
C3313 C3297 1.429 . S
C3313 C3309 1.429 1_565 S
C3313 C3314 1.523 . S
C3314 C3298 1.368 1_565 S
C3314 C3310 1.368 . S
C3314 C3313 1.523 . S
H3315 C3290 0.950 . S
H3316 C3292 0.953 1_455 S
H3317 C3293 0.949 . S
H3318 C3295 0.950 . S
H3319 C3297 0.950 . S
C3320 C3321 1.349 . S
C3320 C3322 1.327 . S
C3320 H3345 0.950 . S
C3321 C3320 1.349 . S
C3321 C3337 1.349 . S
C3322 C3320 1.327 . S
C3322 C3341 1.429 . S
C3322 H3346 0.943 1_545 S
C3323 C3340 1.574 . S
C3323 C3342 1.368 . S
C3323 H3347 0.949 . S
H3324 C3328 0.942 1_565 S
C3325 C3326 1.349 . S
C3325 C3327 1.327 . S
C3325 H3348 0.950 . S
C3326 C3325 1.349 . S
C3326 C3338 1.349 1_545 S
C3327 C3325 1.327 . S
C3327 C3343 1.429 . S
C3327 H3349 0.950 . S
C3328 H3324 0.942 1_545 S
C3328 C3336 1.575 . S
C3328 C3344 1.375 . S
H3329 C3337 0.950 . S
H3330 C3335 0.950 . S
H3331 C3336 0.949 1_565 S
H3332 C3338 0.950 . S
H3333 C3339 0.950 . S
H3334 C3340 0.949 . S
C3335 H3330 0.950 . S
C3335 C3337 1.327 . S
C3335 C3341 1.429 . S
C3336 C3328 1.575 . S
C3336 H3331 0.949 1_545 S
C3336 C3342 1.368 . S
C3337 C3321 1.349 . S
C3337 H3329 0.950 . S
C3337 C3335 1.327 . S
C3338 C3326 1.349 1_565 S
C3338 H3332 0.950 . S
C3338 C3339 1.327 . S
C3339 H3333 0.950 . S
C3339 C3338 1.327 . S
C3339 C3343 1.429 1_565 S
C3340 C3323 1.574 . S
C3340 H3334 0.949 . S
C3340 C3344 1.368 . S
C3341 C3322 1.429 . S
C3341 C3335 1.429 . S
C3341 C3342 1.523 . S
C3342 C3323 1.368 . S
C3342 C3336 1.368 . S
C3342 C3341 1.523 . S
C3343 C3327 1.429 . S
C3343 C3339 1.429 1_545 S
C3343 C3344 1.523 . S
C3344 C3328 1.375 . S
C3344 C3340 1.368 . S
C3344 C3343 1.523 . S
H3345 C3320 0.950 . S
H3346 C3322 0.943 1_565 S
H3347 C3323 0.949 . S
H3348 C3325 0.950 . S
H3349 C3327 0.950 . S
C3350 C3351 1.349 . S
C3350 C3352 1.372 . S
C3350 H3375 0.950 . S
C3351 C3350 1.349 . S
C3351 C3367 1.349 . S
C3352 C3350 1.372 . S
C3352 C3371 1.400 1_455 S
C3352 H3376 0.935 1_455 S
C3353 C3370 1.574 . S
C3353 C3372 1.368 . S
C3353 H3377 0.949 . S
H3354 C3358 0.949 . S
C3355 C3356 1.349 . S
C3355 C3357 1.327 . S
C3355 H3378 0.950 . S
C3356 C3355 1.349 . S
C3356 C3368 1.349 . S
C3357 C3355 1.327 . S
C3357 C3373 1.429 . S
C3357 H3379 0.950 . S
C3358 H3354 0.949 . S
C3358 C3366 1.574 . S
C3358 C3374 1.368 . S
H3359 C3367 0.950 . S
H3360 C3365 0.950 . S
H3361 C3366 0.949 . S
H3362 C3368 0.950 . S
H3363 C3369 0.950 . S
H3364 C3370 0.949 . S
C3365 H3360 0.950 . S
C3365 C3367 1.327 1_655 S
C3365 C3371 1.429 . S
C3366 C3358 1.574 . S
C3366 H3361 0.949 . S
C3366 C3372 1.368 . S
C3367 C3351 1.349 . S
C3367 H3359 0.950 . S
C3367 C3365 1.327 1_455 S
C3368 C3356 1.349 . S
C3368 H3362 0.950 . S
C3368 C3369 1.327 . S
C3369 H3363 0.950 . S
C3369 C3368 1.327 . S
C3369 C3373 1.429 . S
C3370 C3353 1.574 . S
C3370 H3364 0.949 . S
C3370 C3374 1.368 . S
C3371 C3352 1.400 1_655 S
C3371 C3365 1.429 . S
C3371 C3372 1.523 . S
C3372 C3353 1.368 . S
C3372 C3366 1.368 . S
C3372 C3371 1.523 . S
C3373 C3357 1.429 . S
C3373 C3369 1.429 . S
C3373 C3374 1.523 . S
C3374 C3358 1.368 . S
C3374 C3370 1.368 . S
C3374 C3373 1.523 . S
H3375 C3350 0.950 . S
H3376 C3352 0.935 1_655 S
H3377 C3353 0.949 . S
H3378 C3355 0.950 . S
H3379 C3357 0.950 . S
C3380 C3381 1.349 . S
C3380 C3382 1.327 . S
C3380 H3405 0.950 . S
C3381 C3380 1.349 . S
C3381 C3397 1.349 . S
C3382 C3380 1.327 . S
C3382 C3401 1.429 . S
C3382 H3406 0.950 . S
C3383 C3400 1.574 . S
C3383 C3402 1.368 . S
C3383 H3407 0.949 . S
H3384 C3388 0.949 . S
C3385 C3386 1.349 . S
C3385 C3387 1.327 . S
C3385 H3408 0.950 . S
C3386 C3385 1.349 . S
C3386 C3398 1.349 . S
C3387 C3385 1.327 . S
C3387 C3403 1.429 . S
C3387 H3409 0.950 . S
C3388 H3384 0.949 . S
C3388 C3396 1.574 . S
C3388 C3404 1.368 . S
H3389 C3397 0.950 . S
H3390 C3395 0.950 . S
H3391 C3396 0.949 . S
H3392 C3398 0.950 . S
H3393 C3399 0.950 . S
H3394 C3400 0.949 . S
C3395 H3390 0.950 . S
C3395 C3397 1.327 . S
C3395 C3401 1.429 . S
C3396 C3388 1.574 . S
C3396 H3391 0.949 . S
C3396 C3402 1.368 . S
C3397 C3381 1.349 . S
C3397 H3389 0.950 . S
C3397 C3395 1.327 . S
C3398 C3386 1.349 . S
C3398 H3392 0.950 . S
C3398 C3399 1.327 . S
C3399 H3393 0.950 . S
C3399 C3398 1.327 . S
C3399 C3403 1.429 . S
C3400 C3383 1.574 . S
C3400 H3394 0.949 . S
C3400 C3404 1.368 . S
C3401 C3382 1.429 . S
C3401 C3395 1.429 . S
C3401 C3402 1.523 . S
C3402 C3383 1.368 . S
C3402 C3396 1.368 . S
C3402 C3401 1.523 . S
C3403 C3387 1.429 . S
C3403 C3399 1.429 . S
C3403 C3404 1.523 . S
C3404 C3388 1.368 . S
C3404 C3400 1.368 . S
C3404 C3403 1.523 . S
H3405 C3380 0.950 . S
H3406 C3382 0.950 . S
H3407 C3383 0.949 . S
H3408 C3385 0.950 . S
H3409 C3387 0.950 . S
C3410 C3411 1.349 . S
C3410 C3412 1.331 . S
C3410 H3435 0.950 1_545 S
C3411 C3410 1.349 . S
C3411 C3427 1.349 . S
C3412 C3410 1.331 . S
C3412 C3431 1.448 . S
C3412 H3436 0.927 1_545 S
C3413 C3430 1.574 . S
C3413 C3432 1.368 . S
C3413 H3437 0.949 . S
H3414 C3418 0.949 . S
C3415 C3416 1.349 . S
C3415 C3417 1.327 1_455 S
C3415 H3438 0.950 . S
C3416 C3415 1.349 . S
C3416 C3428 1.349 1_545 S
C3417 C3415 1.327 1_655 S
C3417 C3433 1.429 . S
C3417 H3439 0.950 . S
C3418 H3414 0.949 . S
C3418 C3426 1.574 . S
C3418 C3434 1.368 1_565 S
H3419 C3427 0.950 . S
H3420 C3425 0.950 . S
H3421 C3426 0.949 . S
H3422 C3428 0.950 . S
H3423 C3429 0.936 1_655 S
H3424 C3430 0.949 . S
C3425 H3420 0.950 . S
C3425 C3427 1.327 . S
C3425 C3431 1.429 . S
C3426 C3418 1.574 . S
C3426 H3421 0.949 . S
C3426 C3432 1.368 1_565 S
C3427 C3411 1.349 . S
C3427 H3419 0.950 . S
C3427 C3425 1.327 . S
C3428 C3416 1.349 1_565 S
C3428 H3422 0.950 . S
C3428 C3429 1.366 . S
C3429 H3423 0.936 1_455 S
C3429 C3428 1.366 . S
C3429 C3433 1.404 1_465 S
C3430 C3413 1.574 . S
C3430 H3424 0.949 . S
C3430 C3434 1.368 . S
C3431 C3412 1.448 . S
C3431 C3425 1.429 . S
C3431 C3432 1.523 . S
C3432 C3413 1.368 . S
C3432 C3426 1.368 1_545 S
C3432 C3431 1.523 . S
C3433 C3417 1.429 . S
C3433 C3429 1.404 1_645 S
C3433 C3434 1.523 . S
C3434 C3418 1.368 1_545 S
C3434 C3430 1.368 . S
C3434 C3433 1.523 . S
H3435 C3410 0.950 1_565 S
H3436 C3412 0.927 1_565 S
H3437 C3413 0.949 . S
H3438 C3415 0.950 . S
H3439 C3417 0.950 . S
C3440 C3441 1.349 . S
C3440 C3442 1.327 . S
C3440 H3465 0.950 . S
C3441 C3440 1.349 . S
C3441 C3457 1.349 . S
C3442 C3440 1.327 . S
C3442 C3461 1.429 . S
C3442 H3466 0.950 . S
C3443 C3460 1.574 . S
C3443 C3462 1.368 . S
C3443 H3467 0.949 . S
H3444 C3448 0.949 . S
C3445 C3446 1.349 . S
C3445 C3447 1.327 . S
C3445 H3468 0.950 . S
C3446 C3445 1.349 . S
C3446 C3458 1.349 . S
C3447 C3445 1.327 . S
C3447 C3463 1.429 . S
C3447 H3469 0.950 . S
C3448 H3444 0.949 . S
C3448 C3456 1.574 . S
C3448 C3464 1.368 . S
H3449 C3457 0.950 . S
H3450 C3455 0.950 . S
H3451 C3456 0.949 . S
H3452 C3458 0.950 . S
H3453 C3459 0.950 . S
H3454 C3460 0.949 . S
C3455 H3450 0.950 . S
C3455 C3457 1.327 . S
C3455 C3461 1.429 . S
C3456 C3448 1.574 . S
C3456 H3451 0.949 . S
C3456 C3462 1.368 . S
C3457 C3441 1.349 . S
C3457 H3449 0.950 . S
C3457 C3455 1.327 . S
C3458 C3446 1.349 . S
C3458 H3452 0.950 . S
C3458 C3459 1.327 . S
C3459 H3453 0.950 . S
C3459 C3458 1.327 . S
C3459 C3463 1.429 . S
C3460 C3443 1.574 . S
C3460 H3454 0.949 . S
C3460 C3464 1.368 . S
C3461 C3442 1.429 . S
C3461 C3455 1.429 . S
C3461 C3462 1.523 . S
C3462 C3443 1.368 . S
C3462 C3456 1.368 . S
C3462 C3461 1.523 . S
C3463 C3447 1.429 . S
C3463 C3459 1.429 . S
C3463 C3464 1.523 . S
C3464 C3448 1.368 . S
C3464 C3460 1.368 . S
C3464 C3463 1.523 . S
H3465 C3440 0.950 . S
H3466 C3442 0.950 . S
H3467 C3443 0.949 . S
H3468 C3445 0.950 . S
H3469 C3447 0.950 . S
C3470 C3471 1.349 . S
C3470 C3472 1.327 . S
C3470 H3495 0.950 . S
C3471 C3470 1.349 . S
C3471 C3487 1.349 . S
C3472 C3470 1.327 . S
C3472 C3491 1.429 . S
C3472 H3496 0.950 . S
C3473 C3490 1.574 . S
C3473 C3492 1.368 . S
C3473 H3497 0.949 . S
H3474 C3478 0.949 . S
C3475 C3476 1.349 . S
C3475 C3477 1.327 1_655 S
C3475 H3498 0.950 . S
C3476 C3475 1.349 . S
C3476 C3488 1.349 . S
C3477 C3475 1.327 1_455 S
C3477 C3493 1.429 . S
C3477 H3499 0.950 . S
C3478 H3474 0.949 . S
C3478 C3486 1.574 . S
C3478 C3494 1.368 . S
H3479 C3487 0.950 . S
H3480 C3485 0.950 . S
H3481 C3486 0.949 . S
H3482 C3488 0.950 . S
H3483 C3489 0.950 1_455 S
H3484 C3490 0.949 . S
C3485 H3480 0.950 . S
C3485 C3487 1.327 . S
C3485 C3491 1.429 . S
C3486 C3478 1.574 . S
C3486 H3481 0.949 . S
C3486 C3492 1.368 . S
C3487 C3471 1.349 . S
C3487 H3479 0.950 . S
C3487 C3485 1.327 . S
C3488 C3476 1.349 . S
C3488 H3482 0.950 . S
C3488 C3489 1.327 . S
C3489 H3483 0.950 1_655 S
C3489 C3488 1.327 . S
C3489 C3493 1.429 1_655 S
C3490 C3473 1.574 . S
C3490 H3484 0.949 . S
C3490 C3494 1.368 . S
C3491 C3472 1.429 . S
C3491 C3485 1.429 . S
C3491 C3492 1.523 . S
C3492 C3473 1.368 . S
C3492 C3486 1.368 . S
C3492 C3491 1.523 . S
C3493 C3477 1.429 . S
C3493 C3489 1.429 1_455 S
C3493 C3494 1.523 . S
C3494 C3478 1.368 . S
C3494 C3490 1.368 . S
C3494 C3493 1.523 . S
H3495 C3470 0.950 . S
H3496 C3472 0.950 . S
H3497 C3473 0.949 . S
H3498 C3475 0.950 . S
H3499 C3477 0.950 . S
C3500 C3501 1.349 . S
C3500 C3502 1.327 . S
C3500 H3525 0.950 . S
C3501 C3500 1.349 . S
C3501 C3517 1.349 . S
C3502 C3500 1.327 . S
C3502 C3521 1.429 . S
C3502 H3526 0.950 . S
C3503 C3520 1.574 . S
C3503 C3522 1.368 . S
C3503 H3527 0.949 . S
H3504 C3508 0.949 . S
C3505 C3506 1.349 . S
C3505 C3507 1.327 . S
C3505 H3528 0.950 . S
C3506 C3505 1.349 . S
C3506 C3518 1.349 . S
C3507 C3505 1.327 . S
C3507 C3523 1.429 . S
C3507 H3529 0.950 . S
C3508 H3504 0.949 . S
C3508 C3516 1.574 . S
C3508 C3524 1.368 . S
H3509 C3517 0.950 . S
H3510 C3515 0.950 . S
H3511 C3516 0.949 . S
H3512 C3518 0.950 . S
H3513 C3519 0.950 . S
H3514 C3520 0.949 . S
C3515 H3510 0.950 . S
C3515 C3517 1.327 . S
C3515 C3521 1.429 . S
C3516 C3508 1.574 . S
C3516 H3511 0.949 . S
C3516 C3522 1.368 . S
C3517 C3501 1.349 . S
C3517 H3509 0.950 . S
C3517 C3515 1.327 . S
C3518 C3506 1.349 . S
C3518 H3512 0.950 . S
C3518 C3519 1.327 . S
C3519 H3513 0.950 . S
C3519 C3518 1.327 . S
C3519 C3523 1.429 . S
C3520 C3503 1.574 . S
C3520 H3514 0.949 . S
C3520 C3524 1.368 . S
C3521 C3502 1.429 . S
C3521 C3515 1.429 . S
C3521 C3522 1.523 . S
C3522 C3503 1.368 . S
C3522 C3516 1.368 . S
C3522 C3521 1.523 . S
C3523 C3507 1.429 . S
C3523 C3519 1.429 . S
C3523 C3524 1.523 . S
C3524 C3508 1.368 . S
C3524 C3520 1.368 . S
C3524 C3523 1.523 . S
H3525 C3500 0.950 . S
H3526 C3502 0.950 . S
H3527 C3503 0.949 . S
H3528 C3505 0.950 . S
H3529 C3507 0.950 . S
C3530 C3531 1.349 . S
C3530 C3532 1.327 . S
C3530 H3555 0.950 . S
C3531 C3530 1.349 . S
C3531 C3547 1.349 . S
C3532 C3530 1.327 . S
C3532 C3551 1.429 . S
C3532 H3556 0.950 . S
C3533 C3550 1.574 . S
C3533 C3552 1.368 . S
C3533 H3557 0.949 . S
H3534 C3538 0.949 . S
C3535 C3536 1.349 . S
C3535 C3537 1.327 1_655 S
C3535 H3558 0.950 . S
C3536 C3535 1.349 . S
C3536 C3548 1.349 . S
C3537 C3535 1.327 1_455 S
C3537 C3553 1.429 . S
C3537 H3559 0.950 . S
C3538 H3534 0.949 . S
C3538 C3546 1.574 . S
C3538 C3554 1.368 . S
H3539 C3547 0.950 . S
H3540 C3545 0.950 . S
H3541 C3546 0.949 . S
H3542 C3548 0.950 . S
H3543 C3549 0.941 1_455 S
H3544 C3550 0.949 . S
C3545 H3540 0.950 . S
C3545 C3547 1.327 . S
C3545 C3551 1.429 . S
C3546 C3538 1.574 . S
C3546 H3541 0.949 . S
C3546 C3552 1.368 . S
C3547 C3531 1.349 . S
C3547 H3539 0.950 . S
C3547 C3545 1.327 . S
C3548 C3536 1.349 . S
C3548 H3542 0.950 . S
C3548 C3549 1.350 . S
C3549 H3543 0.941 1_655 S
C3549 C3548 1.350 . S
C3549 C3553 1.414 1_655 S
C3550 C3533 1.574 . S
C3550 H3544 0.949 . S
C3550 C3554 1.368 . S
C3551 C3532 1.429 . S
C3551 C3545 1.429 . S
C3551 C3552 1.523 . S
C3552 C3533 1.368 . S
C3552 C3546 1.368 . S
C3552 C3551 1.523 . S
C3553 C3537 1.429 . S
C3553 C3549 1.414 1_455 S
C3553 C3554 1.523 . S
C3554 C3538 1.368 . S
C3554 C3550 1.368 . S
C3554 C3553 1.523 . S
H3555 C3530 0.950 . S
H3556 C3532 0.950 . S
H3557 C3533 0.949 . S
H3558 C3535 0.950 . S
H3559 C3537 0.950 . S
C3560 C3561 1.349 . S
C3560 C3562 1.327 . S
C3560 H3585 0.950 . S
C3561 C3560 1.349 . S
C3561 C3577 1.349 . S
C3562 C3560 1.327 . S
C3562 C3581 1.429 . S
C3562 H3586 0.950 . S
C3563 C3580 1.574 . S
C3563 C3582 1.368 . S
C3563 H3587 0.949 . S
H3564 C3568 0.949 . S
C3565 C3566 1.349 . S
C3565 C3567 1.327 . S
C3565 H3588 0.950 . S
C3566 C3565 1.349 . S
C3566 C3578 1.349 . S
C3567 C3565 1.327 . S
C3567 C3583 1.429 . S
C3567 H3589 0.950 . S
C3568 H3564 0.949 . S
C3568 C3576 1.574 . S
C3568 C3584 1.368 . S
H3569 C3577 0.950 . S
H3570 C3575 0.950 . S
H3571 C3576 0.949 . S
H3572 C3578 0.950 . S
H3573 C3579 0.950 . S
H3574 C3580 0.949 . S
C3575 H3570 0.950 . S
C3575 C3577 1.327 . S
C3575 C3581 1.429 . S
C3576 C3568 1.574 . S
C3576 H3571 0.949 . S
C3576 C3582 1.368 . S
C3577 C3561 1.349 . S
C3577 H3569 0.950 . S
C3577 C3575 1.327 . S
C3578 C3566 1.349 . S
C3578 H3572 0.950 . S
C3578 C3579 1.327 . S
C3579 H3573 0.950 . S
C3579 C3578 1.327 . S
C3579 C3583 1.429 . S
C3580 C3563 1.574 . S
C3580 H3574 0.949 . S
C3580 C3584 1.368 . S
C3581 C3562 1.429 . S
C3581 C3575 1.429 . S
C3581 C3582 1.523 . S
C3582 C3563 1.368 . S
C3582 C3576 1.368 . S
C3582 C3581 1.523 . S
C3583 C3567 1.429 . S
C3583 C3579 1.429 . S
C3583 C3584 1.523 . S
C3584 C3568 1.368 . S
C3584 C3580 1.368 . S
C3584 C3583 1.523 . S
H3585 C3560 0.950 . S
H3586 C3562 0.950 . S
H3587 C3563 0.949 . S
H3588 C3565 0.950 . S
H3589 C3567 0.950 . S
C3590 C3591 1.349 . S
C3590 C3592 1.386 . S
C3590 H3615 0.950 . S
C3591 C3590 1.349 . S
C3591 C3607 1.349 . S
C3592 C3590 1.386 . S
C3592 C3611 1.390 1_455 S
C3592 H3616 0.931 1_455 S
C3593 C3610 1.574 . S
C3593 C3612 1.368 . S
C3593 H3617 0.949 . S
H3594 C3598 0.949 . S
C3595 C3596 1.349 . S
C3595 C3597 1.327 . S
C3595 H3618 0.950 . S
C3596 C3595 1.349 . S
C3596 C3608 1.349 . S
C3597 C3595 1.327 . S
C3597 C3613 1.429 . S
C3597 H3619 0.950 . S
C3598 H3594 0.949 . S
C3598 C3606 1.574 . S
C3598 C3614 1.368 . S
H3599 C3607 0.950 . S
H3600 C3605 0.950 . S
H3601 C3606 0.949 . S
H3602 C3608 0.950 . S
H3603 C3609 0.950 . S
H3604 C3610 0.949 . S
C3605 H3600 0.950 . S
C3605 C3607 1.327 1_655 S
C3605 C3611 1.429 . S
C3606 C3598 1.574 . S
C3606 H3601 0.949 . S
C3606 C3612 1.368 . S
C3607 C3591 1.349 . S
C3607 H3599 0.950 . S
C3607 C3605 1.327 1_455 S
C3608 C3596 1.349 . S
C3608 H3602 0.950 . S
C3608 C3609 1.327 . S
C3609 H3603 0.950 . S
C3609 C3608 1.327 . S
C3609 C3613 1.429 . S
C3610 C3593 1.574 . S
C3610 H3604 0.949 . S
C3610 C3614 1.368 . S
C3611 C3592 1.390 1_655 S
C3611 C3605 1.429 . S
C3611 C3612 1.523 . S
C3612 C3593 1.368 . S
C3612 C3606 1.368 . S
C3612 C3611 1.523 . S
C3613 C3597 1.429 . S
C3613 C3609 1.429 . S
C3613 C3614 1.523 . S
C3614 C3598 1.368 . S
C3614 C3610 1.368 . S
C3614 C3613 1.523 . S
H3615 C3590 0.950 . S
H3616 C3592 0.931 1_655 S
H3617 C3593 0.949 . S
H3618 C3595 0.950 . S
H3619 C3597 0.950 . S
C3620 C3621 1.349 . S
C3620 C3622 1.327 . S
C3620 H3645 0.950 . S
C3621 C3620 1.349 . S
C3621 C3637 1.349 . S
C3622 C3620 1.327 . S
C3622 C3641 1.429 . S
C3622 H3646 0.950 . S
C3623 C3640 1.574 . S
C3623 C3642 1.368 . S
C3623 H3647 0.949 . S
H3624 C3628 0.949 . S
C3625 C3626 1.349 . S
C3625 C3627 1.327 . S
C3625 H3648 0.950 . S
C3626 C3625 1.349 . S
C3626 C3638 1.349 . S
C3627 C3625 1.327 . S
C3627 C3643 1.429 . S
C3627 H3649 0.950 . S
C3628 H3624 0.949 . S
C3628 C3636 1.574 . S
C3628 C3644 1.368 . S
H3629 C3637 0.950 . S
H3630 C3635 0.950 . S
H3631 C3636 0.949 . S
H3632 C3638 0.950 . S
H3633 C3639 0.950 . S
H3634 C3640 0.949 . S
C3635 H3630 0.950 . S
C3635 C3637 1.327 . S
C3635 C3641 1.429 . S
C3636 C3628 1.574 . S
C3636 H3631 0.949 . S
C3636 C3642 1.368 . S
C3637 C3621 1.349 . S
C3637 H3629 0.950 . S
C3637 C3635 1.327 . S
C3638 C3626 1.349 . S
C3638 H3632 0.950 . S
C3638 C3639 1.327 . S
C3639 H3633 0.950 . S
C3639 C3638 1.327 . S
C3639 C3643 1.429 . S
C3640 C3623 1.574 . S
C3640 H3634 0.949 . S
C3640 C3644 1.368 . S
C3641 C3622 1.429 . S
C3641 C3635 1.429 . S
C3641 C3642 1.523 . S
C3642 C3623 1.368 . S
C3642 C3636 1.368 . S
C3642 C3641 1.523 . S
C3643 C3627 1.429 . S
C3643 C3639 1.429 . S
C3643 C3644 1.523 . S
C3644 C3628 1.368 . S
C3644 C3640 1.368 . S
C3644 C3643 1.523 . S
H3645 C3620 0.950 . S
H3646 C3622 0.950 . S
H3647 C3623 0.949 . S
H3648 C3625 0.950 . S
H3649 C3627 0.950 . S
C3650 C3651 1.349 . S
C3650 C3652 1.327 . S
C3650 H3675 0.950 . S
C3651 C3650 1.349 . S
C3651 C3667 1.349 . S
C3652 C3650 1.327 . S
C3652 C3671 1.429 . S
C3652 H3676 0.950 . S
C3653 C3670 1.574 . S
C3653 C3672 1.368 . S
C3653 H3677 0.949 . S
H3654 C3658 0.949 . S
C3655 C3656 1.349 . S
C3655 C3657 1.327 1_455 S
C3655 H3678 0.950 . S
C3656 C3655 1.349 . S
C3656 C3668 1.349 . S
C3657 C3655 1.327 1_655 S
C3657 C3673 1.429 . S
C3657 H3679 0.950 . S
C3658 H3654 0.949 . S
C3658 C3666 1.574 . S
C3658 C3674 1.368 . S
H3659 C3667 0.950 . S
H3660 C3665 0.950 . S
H3661 C3666 0.949 . S
H3662 C3668 0.950 . S
H3663 C3669 0.931 1_655 S
H3664 C3670 0.949 . S
C3665 H3660 0.950 . S
C3665 C3667 1.327 . S
C3665 C3671 1.429 . S
C3666 C3658 1.574 . S
C3666 H3661 0.949 . S
C3666 C3672 1.368 . S
C3667 C3651 1.349 . S
C3667 H3659 0.950 . S
C3667 C3665 1.327 . S
C3668 C3656 1.349 . S
C3668 H3662 0.950 . S
C3668 C3669 1.386 . S
C3669 H3663 0.931 1_455 S
C3669 C3668 1.386 . S
C3669 C3673 1.390 1_455 S
C3670 C3653 1.574 . S
C3670 H3664 0.949 . S
C3670 C3674 1.368 . S
C3671 C3652 1.429 . S
C3671 C3665 1.429 . S
C3671 C3672 1.523 . S
C3672 C3653 1.368 . S
C3672 C3666 1.368 . S
C3672 C3671 1.523 . S
C3673 C3657 1.429 . S
C3673 C3669 1.390 1_655 S
C3673 C3674 1.523 . S
C3674 C3658 1.368 . S
C3674 C3670 1.368 . S
C3674 C3673 1.523 . S
H3675 C3650 0.950 . S
H3676 C3652 0.950 . S
H3677 C3653 0.949 . S
H3678 C3655 0.950 . S
H3679 C3657 0.950 . S
C3680 C3681 1.349 1_545 S
C3680 C3682 1.327 . S
C3680 H3705 0.950 . S
C3681 C3680 1.349 1_565 S
C3681 C3697 1.349 . S
C3682 C3680 1.327 . S
C3682 C3701 1.429 1_545 S
C3682 H3706 0.950 . S
C3683 C3700 1.574 . S
C3683 C3702 1.368 . S
C3683 H3707 0.949 . S
H3684 C3688 0.949 . S
C3685 C3686 1.349 . S
C3685 C3687 1.327 . S
C3685 H3708 0.950 . S
C3686 C3685 1.349 . S
C3686 C3698 1.372 . S
C3687 C3685 1.327 . S
C3687 C3703 1.429 . S
C3687 H3709 0.950 . S
C3688 H3684 0.949 . S
C3688 C3696 1.574 . S
C3688 C3704 1.368 1_545 S
H3689 C3697 0.950 . S
H3690 C3695 0.950 . S
H3691 C3696 0.949 . S
H3692 C3698 0.930 1_545 S
H3693 C3699 0.973 . S
H3694 C3700 0.949 . S
C3695 H3690 0.950 . S
C3695 C3697 1.327 . S
C3695 C3701 1.429 . S
C3696 C3688 1.574 . S
C3696 H3691 0.949 . S
C3696 C3702 1.368 1_545 S
C3697 C3681 1.349 . S
C3697 H3689 0.950 . S
C3697 C3695 1.327 . S
C3698 C3686 1.372 . S
C3698 H3692 0.930 1_565 S
C3698 C3699 1.324 1_565 S
C3699 H3693 0.973 . S
C3699 C3698 1.324 1_545 S
C3699 C3703 1.410 1_545 S
C3700 C3683 1.574 . S
C3700 H3694 0.949 . S
C3700 C3704 1.368 . S
C3701 C3682 1.429 1_565 S
C3701 C3695 1.429 . S
C3701 C3702 1.523 . S
C3702 C3683 1.368 . S
C3702 C3696 1.368 1_565 S
C3702 C3701 1.523 . S
C3703 C3687 1.429 . S
C3703 C3699 1.410 1_565 S
C3703 C3704 1.523 . S
C3704 C3688 1.368 1_565 S
C3704 C3700 1.368 . S
C3704 C3703 1.523 . S
H3705 C3680 0.950 . S
H3706 C3682 0.950 . S
H3707 C3683 0.949 . S
H3708 C3685 0.950 . S
H3709 C3687 0.950 . S
C3710 C3711 1.349 . S
C3710 C3712 1.327 . S
C3710 H3735 0.950 . S
C3711 C3710 1.349 . S
C3711 C3727 1.349 . S
C3712 C3710 1.327 . S
C3712 C3731 1.429 . S
C3712 H3736 0.950 . S
C3713 C3730 1.574 . S
C3713 C3732 1.368 . S
C3713 H3737 0.949 . S
H3714 C3718 0.949 . S
C3715 C3716 1.349 . S
C3715 C3717 1.327 . S
C3715 H3738 0.950 . S
C3716 C3715 1.349 . S
C3716 C3728 1.349 . S
C3717 C3715 1.327 . S
C3717 C3733 1.429 . S
C3717 H3739 0.950 . S
C3718 H3714 0.949 . S
C3718 C3726 1.574 . S
C3718 C3734 1.368 . S
H3719 C3727 0.950 . S
H3720 C3725 0.950 . S
H3721 C3726 0.949 . S
H3722 C3728 0.950 . S
H3723 C3729 0.950 . S
H3724 C3730 0.949 . S
C3725 H3720 0.950 . S
C3725 C3727 1.327 . S
C3725 C3731 1.429 . S
C3726 C3718 1.574 . S
C3726 H3721 0.949 . S
C3726 C3732 1.368 . S
C3727 C3711 1.349 . S
C3727 H3719 0.950 . S
C3727 C3725 1.327 . S
C3728 C3716 1.349 . S
C3728 H3722 0.950 . S
C3728 C3729 1.327 . S
C3729 H3723 0.950 . S
C3729 C3728 1.327 . S
C3729 C3733 1.429 . S
C3730 C3713 1.574 . S
C3730 H3724 0.949 . S
C3730 C3734 1.368 . S
C3731 C3712 1.429 . S
C3731 C3725 1.429 . S
C3731 C3732 1.523 . S
C3732 C3713 1.368 . S
C3732 C3726 1.368 . S
C3732 C3731 1.523 . S
C3733 C3717 1.429 . S
C3733 C3729 1.429 . S
C3733 C3734 1.523 . S
C3734 C3718 1.368 . S
C3734 C3730 1.368 . S
C3734 C3733 1.523 . S
H3735 C3710 0.950 . S
H3736 C3712 0.950 . S
H3737 C3713 0.949 . S
H3738 C3715 0.950 . S
H3739 C3717 0.950 . S
C3740 C3741 1.349 . S
C3740 C3742 1.327 . S
C3740 H3765 0.950 . S
C3741 C3740 1.349 . S
C3741 C3757 1.349 . S
C3742 C3740 1.327 . S
C3742 C3761 1.429 . S
C3742 H3766 0.950 . S
C3743 C3760 1.574 . S
C3743 C3762 1.368 . S
C3743 H3767 0.949 . S
H3744 C3748 0.949 . S
C3745 C3746 1.349 . S
C3745 C3747 1.327 . S
C3745 H3768 0.950 . S
C3746 C3745 1.349 . S
C3746 C3758 1.349 . S
C3747 C3745 1.327 . S
C3747 C3763 1.429 . S
C3747 H3769 0.950 . S
C3748 H3744 0.949 . S
C3748 C3756 1.574 . S
C3748 C3764 1.368 . S
H3749 C3757 0.950 . S
H3750 C3755 0.950 . S
H3751 C3756 0.949 . S
H3752 C3758 0.950 . S
H3753 C3759 0.950 . S
H3754 C3760 0.949 . S
C3755 H3750 0.950 . S
C3755 C3757 1.327 . S
C3755 C3761 1.429 . S
C3756 C3748 1.574 . S
C3756 H3751 0.949 . S
C3756 C3762 1.368 . S
C3757 C3741 1.349 . S
C3757 H3749 0.950 . S
C3757 C3755 1.327 . S
C3758 C3746 1.349 . S
C3758 H3752 0.950 . S
C3758 C3759 1.327 . S
C3759 H3753 0.950 . S
C3759 C3758 1.327 . S
C3759 C3763 1.429 . S
C3760 C3743 1.574 . S
C3760 H3754 0.949 . S
C3760 C3764 1.368 . S
C3761 C3742 1.429 . S
C3761 C3755 1.429 . S
C3761 C3762 1.523 . S
C3762 C3743 1.368 . S
C3762 C3756 1.368 . S
C3762 C3761 1.523 . S
C3763 C3747 1.429 . S
C3763 C3759 1.429 . S
C3763 C3764 1.523 . S
C3764 C3748 1.368 . S
C3764 C3760 1.368 . S
C3764 C3763 1.523 . S
H3765 C3740 0.950 . S
H3766 C3742 0.950 . S
H3767 C3743 0.949 . S
H3768 C3745 0.950 . S
H3769 C3747 0.950 . S
C3770 C3771 1.349 . S
C3770 C3772 1.327 . S
C3770 H3795 0.950 . S
C3771 C3770 1.349 . S
C3771 C3787 1.349 1_565 S
C3772 C3770 1.327 . S
C3772 C3791 1.429 . S
C3772 H3796 0.950 . S
C3773 C3790 1.574 . S
C3773 C3792 1.368 1_545 S
C3773 H3797 0.949 . S
H3774 C3778 0.949 . S
C3775 C3776 1.349 . S
C3775 C3777 1.329 . S
C3775 H3798 0.950 1_565 S
C3776 C3775 1.349 . S
C3776 C3788 1.349 . S
C3777 C3775 1.329 . S
C3777 C3793 1.440 . S
C3777 H3799 0.937 1_565 S
C3778 H3774 0.949 . S
C3778 C3786 1.574 . S
C3778 C3794 1.368 . S
H3779 C3787 0.950 . S
H3780 C3785 0.950 . S
H3781 C3786 0.949 . S
H3782 C3788 0.950 . S
H3783 C3789 0.950 . S
H3784 C3790 0.949 . S
C3785 H3780 0.950 . S
C3785 C3787 1.327 . S
C3785 C3791 1.429 1_545 S
C3786 C3778 1.574 . S
C3786 H3781 0.949 . S
C3786 C3792 1.368 . S
C3787 C3771 1.349 1_545 S
C3787 H3779 0.950 . S
C3787 C3785 1.327 . S
C3788 C3776 1.349 . S
C3788 H3782 0.950 . S
C3788 C3789 1.327 . S
C3789 H3783 0.950 . S
C3789 C3788 1.327 . S
C3789 C3793 1.429 . S
C3790 C3773 1.574 . S
C3790 H3784 0.949 . S
C3790 C3794 1.368 1_545 S
C3791 C3772 1.429 . S
C3791 C3785 1.429 1_565 S
C3791 C3792 1.523 . S
C3792 C3773 1.368 1_565 S
C3792 C3786 1.368 . S
C3792 C3791 1.523 . S
C3793 C3777 1.440 . S
C3793 C3789 1.429 . S
C3793 C3794 1.523 . S
C3794 C3778 1.368 . S
C3794 C3790 1.368 1_565 S
C3794 C3793 1.523 . S
H3795 C3770 0.950 . S
H3796 C3772 0.950 . S
H3797 C3773 0.949 . S
H3798 C3775 0.950 1_545 S
H3799 C3777 0.937 1_545 S
C3800 C3801 1.349 1_565 S
C3800 C3802 1.327 . S
C3800 H3825 0.950 . S
C3801 C3800 1.349 1_545 S
C3801 C3817 1.349 . S
C3802 C3800 1.327 . S
C3802 C3821 1.429 1_565 S
C3802 H3826 0.950 . S
C3803 C3820 1.574 . S
C3803 C3822 1.368 . S
C3803 H3827 0.949 . S
H3804 C3808 0.949 . S
C3805 C3806 1.349 . S
C3805 C3807 1.327 . S
C3805 H3828 0.950 . S
C3806 C3805 1.349 . S
C3806 C3818 1.349 1_545 S
C3807 C3805 1.327 . S
C3807 C3823 1.429 . S
C3807 H3829 0.950 . S
C3808 H3804 0.949 . S
C3808 C3816 1.574 . S
C3808 C3824 1.368 1_565 S
H3809 C3817 0.950 . S
H3810 C3815 0.950 . S
H3811 C3816 0.949 . S
H3812 C3818 0.950 . S
H3813 C3819 0.950 . S
H3814 C3820 0.949 . S
C3815 H3810 0.950 . S
C3815 C3817 1.327 . S
C3815 C3821 1.429 . S
C3816 C3808 1.574 . S
C3816 H3811 0.949 . S
C3816 C3822 1.368 1_565 S
C3817 C3801 1.349 . S
C3817 H3809 0.950 . S
C3817 C3815 1.327 . S
C3818 C3806 1.349 1_565 S
C3818 H3812 0.950 . S
C3818 C3819 1.327 . S
C3819 H3813 0.950 . S
C3819 C3818 1.327 . S
C3819 C3823 1.429 1_565 S
C3820 C3803 1.574 . S
C3820 H3814 0.949 . S
C3820 C3824 1.368 . S
C3821 C3802 1.429 1_545 S
C3821 C3815 1.429 . S
C3821 C3822 1.523 . S
C3822 C3803 1.368 . S
C3822 C3816 1.368 1_545 S
C3822 C3821 1.523 . S
C3823 C3807 1.429 . S
C3823 C3819 1.429 1_545 S
C3823 C3824 1.523 . S
C3824 C3808 1.368 1_545 S
C3824 C3820 1.368 . S
C3824 C3823 1.523 . S
H3825 C3800 0.950 . S
H3826 C3802 0.950 . S
H3827 C3803 0.949 . S
H3828 C3805 0.950 . S
H3829 C3807 0.950 . S
C3830 C3831 1.349 . S
C3830 C3832 1.327 . S
C3830 H3855 0.950 . S
C3831 C3830 1.349 . S
C3831 C3847 1.349 . S
C3832 C3830 1.327 . S
C3832 C3851 1.429 . S
C3832 H3856 0.950 . S
C3833 C3850 1.574 . S
C3833 C3852 1.368 . S
C3833 H3857 0.949 . S
H3834 C3838 0.949 . S
C3835 C3836 1.349 . S
C3835 C3837 1.327 . S
C3835 H3858 0.950 . S
C3836 C3835 1.349 . S
C3836 C3848 1.349 . S
C3837 C3835 1.327 . S
C3837 C3853 1.429 . S
C3837 H3859 0.950 . S
C3838 H3834 0.949 . S
C3838 C3846 1.574 . S
C3838 C3854 1.368 . S
H3839 C3847 0.950 . S
H3840 C3845 0.950 . S
H3841 C3846 0.949 . S
H3842 C3848 0.950 . S
H3843 C3849 0.950 . S
H3844 C3850 0.949 . S
C3845 H3840 0.950 . S
C3845 C3847 1.327 . S
C3845 C3851 1.429 . S
C3846 C3838 1.574 . S
C3846 H3841 0.949 . S
C3846 C3852 1.368 . S
C3847 C3831 1.349 . S
C3847 H3839 0.950 . S
C3847 C3845 1.327 . S
C3848 C3836 1.349 . S
C3848 H3842 0.950 . S
C3848 C3849 1.327 . S
C3849 H3843 0.950 . S
C3849 C3848 1.327 . S
C3849 C3853 1.429 . S
C3850 C3833 1.574 . S
C3850 H3844 0.949 . S
C3850 C3854 1.368 . S
C3851 C3832 1.429 . S
C3851 C3845 1.429 . S
C3851 C3852 1.523 . S
C3852 C3833 1.368 . S
C3852 C3846 1.368 . S
C3852 C3851 1.523 . S
C3853 C3837 1.429 . S
C3853 C3849 1.429 . S
C3853 C3854 1.523 . S
C3854 C3838 1.368 . S
C3854 C3850 1.368 . S
C3854 C3853 1.523 . S
H3855 C3830 0.950 . S
H3856 C3832 0.950 . S
H3857 C3833 0.949 . S
H3858 C3835 0.950 . S
H3859 C3837 0.950 . S
C3860 C3861 1.349 . S
C3860 C3862 1.327 . S
C3860 H3885 0.950 . S
C3861 C3860 1.349 . S
C3861 C3877 1.349 . S
C3862 C3860 1.327 . S
C3862 C3881 1.429 . S
C3862 H3886 0.950 . S
C3863 C3880 1.574 . S
C3863 C3882 1.368 . S
C3863 H3887 0.949 . S
H3864 C3868 0.949 . S
C3865 C3866 1.349 . S
C3865 C3867 1.327 . S
C3865 H3888 0.950 . S
C3866 C3865 1.349 . S
C3866 C3878 1.349 . S
C3867 C3865 1.327 . S
C3867 C3883 1.429 . S
C3867 H3889 0.950 . S
C3868 H3864 0.949 . S
C3868 C3876 1.574 . S
C3868 C3884 1.368 . S
H3869 C3877 0.950 . S
H3870 C3875 0.950 . S
H3871 C3876 0.949 . S
H3872 C3878 0.950 . S
H3873 C3879 0.950 . S
H3874 C3880 0.949 . S
C3875 H3870 0.950 . S
C3875 C3877 1.327 . S
C3875 C3881 1.429 . S
C3876 C3868 1.574 . S
C3876 H3871 0.949 . S
C3876 C3882 1.368 . S
C3877 C3861 1.349 . S
C3877 H3869 0.950 . S
C3877 C3875 1.327 . S
C3878 C3866 1.349 . S
C3878 H3872 0.950 . S
C3878 C3879 1.327 . S
C3879 H3873 0.950 . S
C3879 C3878 1.327 . S
C3879 C3883 1.429 . S
C3880 C3863 1.574 . S
C3880 H3874 0.949 . S
C3880 C3884 1.368 . S
C3881 C3862 1.429 . S
C3881 C3875 1.429 . S
C3881 C3882 1.523 . S
C3882 C3863 1.368 . S
C3882 C3876 1.368 . S
C3882 C3881 1.523 . S
C3883 C3867 1.429 . S
C3883 C3879 1.429 . S
C3883 C3884 1.523 . S
C3884 C3868 1.368 . S
C3884 C3880 1.368 . S
C3884 C3883 1.523 . S
H3885 C3860 0.950 . S
H3886 C3862 0.950 . S
H3887 C3863 0.949 . S
H3888 C3865 0.950 . S
H3889 C3867 0.950 . S
C3890 C3891 1.349 . S
C3890 C3892 1.327 . S
C3890 H3915 0.950 . S
C3891 C3890 1.349 . S
C3891 C3907 1.349 1_545 S
C3892 C3890 1.327 . S
C3892 C3911 1.429 . S
C3892 H3916 0.950 . S
C3893 C3910 1.571 1_565 S
C3893 C3912 1.363 1_565 S
C3893 H3917 0.954 . S
H3894 C3898 0.949 . S
C3895 C3896 1.349 . S
C3895 C3897 1.327 . S
C3895 H3918 0.959 . S
C3896 C3895 1.349 . S
C3896 C3908 1.349 . S
C3897 C3895 1.327 . S
C3897 C3913 1.429 . S
C3897 H3919 0.950 1_545 S
C3898 H3894 0.949 . S
C3898 C3906 1.574 . S
C3898 C3914 1.368 . S
H3899 C3907 0.950 . S
H3900 C3905 0.950 . S
H3901 C3906 0.949 . S
H3902 C3908 0.950 . S
H3903 C3909 0.950 . S
H3904 C3910 0.933 1_565 S
C3905 H3900 0.950 . S
C3905 C3907 1.327 . S
C3905 C3911 1.429 1_565 S
C3906 C3898 1.574 . S
C3906 H3901 0.949 . S
C3906 C3912 1.368 . S
C3907 C3891 1.349 1_565 S
C3907 H3899 0.950 . S
C3907 C3905 1.327 . S
C3908 C3896 1.349 . S
C3908 H3902 0.950 . S
C3908 C3909 1.327 . S
C3909 H3903 0.950 . S
C3909 C3908 1.327 . S
C3909 C3913 1.429 . S
C3910 C3893 1.571 1_545 S
C3910 H3904 0.933 1_545 S
C3910 C3914 1.392 . S
C3911 C3892 1.429 . S
C3911 C3905 1.429 1_545 S
C3911 C3912 1.523 . S
C3912 C3893 1.363 1_545 S
C3912 C3906 1.368 . S
C3912 C3911 1.523 . S
C3913 C3897 1.429 . S
C3913 C3909 1.429 . S
C3913 C3914 1.523 . S
C3914 C3898 1.368 . S
C3914 C3910 1.392 . S
C3914 C3913 1.523 . S
H3915 C3890 0.950 . S
H3916 C3892 0.950 . S
H3917 C3893 0.954 . S
H3918 C3895 0.959 . S
H3919 C3897 0.950 1_565 S
C3920 C3921 1.349 . S
C3920 C3922 1.327 . S
C3920 H3945 0.950 . S
C3921 C3920 1.349 . S
C3921 C3937 1.349 . S
C3922 C3920 1.327 . S
C3922 C3941 1.429 . S
C3922 H3946 0.950 . S
C3923 C3940 1.574 . S
C3923 C3942 1.368 . S
C3923 H3947 0.949 . S
H3924 C3928 0.949 . S
C3925 C3926 1.349 . S
C3925 C3927 1.327 . S
C3925 H3948 0.950 . S
C3926 C3925 1.349 . S
C3926 C3938 1.349 . S
C3927 C3925 1.327 . S
C3927 C3943 1.429 . S
C3927 H3949 0.950 . S
C3928 H3924 0.949 . S
C3928 C3936 1.574 . S
C3928 C3944 1.368 . S
H3929 C3937 0.950 . S
H3930 C3935 0.950 . S
H3931 C3936 0.949 . S
H3932 C3938 0.950 . S
H3933 C3939 0.950 . S
H3934 C3940 0.949 . S
C3935 H3930 0.950 . S
C3935 C3937 1.327 . S
C3935 C3941 1.429 . S
C3936 C3928 1.574 . S
C3936 H3931 0.949 . S
C3936 C3942 1.368 . S
C3937 C3921 1.349 . S
C3937 H3929 0.950 . S
C3937 C3935 1.327 . S
C3938 C3926 1.349 . S
C3938 H3932 0.950 . S
C3938 C3939 1.327 . S
C3939 H3933 0.950 . S
C3939 C3938 1.327 . S
C3939 C3943 1.429 . S
C3940 C3923 1.574 . S
C3940 H3934 0.949 . S
C3940 C3944 1.368 . S
C3941 C3922 1.429 . S
C3941 C3935 1.429 . S
C3941 C3942 1.523 . S
C3942 C3923 1.368 . S
C3942 C3936 1.368 . S
C3942 C3941 1.523 . S
C3943 C3927 1.429 . S
C3943 C3939 1.429 . S
C3943 C3944 1.523 . S
C3944 C3928 1.368 . S
C3944 C3940 1.368 . S
C3944 C3943 1.523 . S
H3945 C3920 0.950 . S
H3946 C3922 0.950 . S
H3947 C3923 0.949 . S
H3948 C3925 0.950 . S
H3949 C3927 0.950 . S
C3950 C3951 1.349 . S
C3950 C3952 1.327 . S
C3950 H3975 0.950 . S
C3951 C3950 1.349 . S
C3951 C3967 1.349 . S
C3952 C3950 1.327 . S
C3952 C3971 1.429 . S
C3952 H3976 0.950 . S
C3953 C3970 1.574 . S
C3953 C3972 1.368 . S
C3953 H3977 0.949 . S
H3954 C3958 0.949 . S
C3955 C3956 1.349 . S
C3955 C3957 1.327 . S
C3955 H3978 0.950 . S
C3956 C3955 1.349 . S
C3956 C3968 1.349 . S
C3957 C3955 1.327 . S
C3957 C3973 1.429 . S
C3957 H3979 0.950 . S
C3958 H3954 0.949 . S
C3958 C3966 1.574 . S
C3958 C3974 1.368 . S
H3959 C3967 0.950 . S
H3960 C3965 0.950 . S
H3961 C3966 0.949 . S
H3962 C3968 0.950 . S
H3963 C3969 0.950 . S
H3964 C3970 0.949 . S
C3965 H3960 0.950 . S
C3965 C3967 1.327 . S
C3965 C3971 1.429 . S
C3966 C3958 1.574 . S
C3966 H3961 0.949 . S
C3966 C3972 1.368 . S
C3967 C3951 1.349 . S
C3967 H3959 0.950 . S
C3967 C3965 1.327 . S
C3968 C3956 1.349 . S
C3968 H3962 0.950 . S
C3968 C3969 1.327 . S
C3969 H3963 0.950 . S
C3969 C3968 1.327 . S
C3969 C3973 1.429 . S
C3970 C3953 1.574 . S
C3970 H3964 0.949 . S
C3970 C3974 1.368 . S
C3971 C3952 1.429 . S
C3971 C3965 1.429 . S
C3971 C3972 1.523 . S
C3972 C3953 1.368 . S
C3972 C3966 1.368 . S
C3972 C3971 1.523 . S
C3973 C3957 1.429 . S
C3973 C3969 1.429 . S
C3973 C3974 1.523 . S
C3974 C3958 1.368 . S
C3974 C3970 1.368 . S
C3974 C3973 1.523 . S
H3975 C3950 0.950 . S
H3976 C3952 0.950 . S
H3977 C3953 0.949 . S
H3978 C3955 0.950 . S
H3979 C3957 0.950 . S
C3980 C3981 1.349 . S
C3980 C3982 1.327 . S
C3980 H4005 0.950 . S
C3981 C3980 1.349 . S
C3981 C3997 1.349 . S
C3982 C3980 1.327 . S
C3982 C4001 1.429 . S
C3982 H4006 0.950 . S
C3983 C4000 1.574 . S
C3983 C4002 1.368 . S
C3983 H4007 0.949 . S
H3984 C3988 0.949 . S
C3985 C3986 1.349 . S
C3985 C3987 1.327 . S
C3985 H4008 0.950 . S
C3986 C3985 1.349 . S
C3986 C3998 1.349 . S
C3987 C3985 1.327 . S
C3987 C4003 1.429 . S
C3987 H4009 0.950 . S
C3988 H3984 0.949 . S
C3988 C3996 1.574 . S
C3988 C4004 1.368 . S
H3989 C3997 0.950 . S
H3990 C3995 0.950 . S
H3991 C3996 0.949 . S
H3992 C3998 0.950 . S
H3993 C3999 0.950 . S
H3994 C4000 0.949 . S
C3995 H3990 0.950 . S
C3995 C3997 1.327 . S
C3995 C4001 1.429 . S
C3996 C3988 1.574 . S
C3996 H3991 0.949 . S
C3996 C4002 1.368 . S
C3997 C3981 1.349 . S
C3997 H3989 0.950 . S
C3997 C3995 1.327 . S
C3998 C3986 1.349 . S
C3998 H3992 0.950 . S
C3998 C3999 1.327 . S
C3999 H3993 0.950 . S
C3999 C3998 1.327 . S
C3999 C4003 1.429 . S
C4000 C3983 1.574 . S
C4000 H3994 0.949 . S
C4000 C4004 1.368 . S
C4001 C3982 1.429 . S
C4001 C3995 1.429 . S
C4001 C4002 1.523 . S
C4002 C3983 1.368 . S
C4002 C3996 1.368 . S
C4002 C4001 1.523 . S
C4003 C3987 1.429 . S
C4003 C3999 1.429 . S
C4003 C4004 1.523 . S
C4004 C3988 1.368 . S
C4004 C4000 1.368 . S
C4004 C4003 1.523 . S
H4005 C3980 0.950 . S
H4006 C3982 0.950 . S
H4007 C3983 0.949 . S
H4008 C3985 0.950 . S
H4009 C3987 0.950 . S
C4010 C4011 1.349 . S
C4010 C4012 1.327 . S
C4010 H4035 0.950 . S
C4011 C4010 1.349 . S
C4011 C4027 1.349 . S
C4012 C4010 1.327 . S
C4012 C4031 1.429 . S
C4012 H4036 0.950 . S
C4013 C4030 1.574 . S
C4013 C4032 1.368 . S
C4013 H4037 0.949 . S
H4014 C4018 0.949 . S
C4015 C4016 1.349 . S
C4015 C4017 1.327 . S
C4015 H4038 0.950 . S
C4016 C4015 1.349 . S
C4016 C4028 1.349 . S
C4017 C4015 1.327 . S
C4017 C4033 1.429 . S
C4017 H4039 0.950 . S
C4018 H4014 0.949 . S
C4018 C4026 1.574 . S
C4018 C4034 1.368 . S
H4019 C4027 0.950 . S
H4020 C4025 0.950 . S
H4021 C4026 0.949 . S
H4022 C4028 0.950 . S
H4023 C4029 0.950 . S
H4024 C4030 0.949 . S
C4025 H4020 0.950 . S
C4025 C4027 1.327 . S
C4025 C4031 1.429 . S
C4026 C4018 1.574 . S
C4026 H4021 0.949 . S
C4026 C4032 1.368 . S
C4027 C4011 1.349 . S
C4027 H4019 0.950 . S
C4027 C4025 1.327 . S
C4028 C4016 1.349 . S
C4028 H4022 0.950 . S
C4028 C4029 1.327 . S
C4029 H4023 0.950 . S
C4029 C4028 1.327 . S
C4029 C4033 1.429 . S
C4030 C4013 1.574 . S
C4030 H4024 0.949 . S
C4030 C4034 1.368 . S
C4031 C4012 1.429 . S
C4031 C4025 1.429 . S
C4031 C4032 1.523 . S
C4032 C4013 1.368 . S
C4032 C4026 1.368 . S
C4032 C4031 1.523 . S
C4033 C4017 1.429 . S
C4033 C4029 1.429 . S
C4033 C4034 1.523 . S
C4034 C4018 1.368 . S
C4034 C4030 1.368 . S
C4034 C4033 1.523 . S
H4035 C4010 0.950 . S
H4036 C4012 0.950 . S
H4037 C4013 0.949 . S
H4038 C4015 0.950 . S
H4039 C4017 0.950 . S
C4040 C4041 1.349 . S
C4040 C4042 1.327 . S
C4040 H4065 0.950 . S
C4041 C4040 1.349 . S
C4041 C4057 1.349 . S
C4042 C4040 1.327 . S
C4042 C4061 1.429 . S
C4042 H4066 0.950 . S
C4043 C4060 1.574 . S
C4043 C4062 1.368 . S
C4043 H4067 0.949 . S
H4044 C4048 0.949 . S
C4045 C4046 1.349 . S
C4045 C4047 1.327 . S
C4045 H4068 0.950 . S
C4046 C4045 1.349 . S
C4046 C4058 1.349 . S
C4047 C4045 1.327 . S
C4047 C4063 1.429 . S
C4047 H4069 0.950 . S
C4048 H4044 0.949 . S
C4048 C4056 1.574 . S
C4048 C4064 1.368 . S
H4049 C4057 0.950 . S
H4050 C4055 0.950 . S
H4051 C4056 0.949 . S
H4052 C4058 0.950 . S
H4053 C4059 0.950 . S
H4054 C4060 0.949 . S
C4055 H4050 0.950 . S
C4055 C4057 1.327 . S
C4055 C4061 1.429 . S
C4056 C4048 1.574 . S
C4056 H4051 0.949 . S
C4056 C4062 1.368 . S
C4057 C4041 1.349 . S
C4057 H4049 0.950 . S
C4057 C4055 1.327 . S
C4058 C4046 1.349 . S
C4058 H4052 0.950 . S
C4058 C4059 1.327 . S
C4059 H4053 0.950 . S
C4059 C4058 1.327 . S
C4059 C4063 1.429 . S
C4060 C4043 1.574 . S
C4060 H4054 0.949 . S
C4060 C4064 1.368 . S
C4061 C4042 1.429 . S
C4061 C4055 1.429 . S
C4061 C4062 1.523 . S
C4062 C4043 1.368 . S
C4062 C4056 1.368 . S
C4062 C4061 1.523 . S
C4063 C4047 1.429 . S
C4063 C4059 1.429 . S
C4063 C4064 1.523 . S
C4064 C4048 1.368 . S
C4064 C4060 1.368 . S
C4064 C4063 1.523 . S
H4065 C4040 0.950 . S
H4066 C4042 0.950 . S
H4067 C4043 0.949 . S
H4068 C4045 0.950 . S
H4069 C4047 0.950 . S
C4070 C4071 1.349 . S
C4070 C4072 1.327 . S
C4070 H4095 0.950 . S
C4071 C4070 1.349 . S
C4071 C4087 1.349 . S
C4072 C4070 1.327 . S
C4072 C4091 1.429 . S
C4072 H4096 0.950 . S
C4073 C4090 1.574 . S
C4073 C4092 1.368 . S
C4073 H4097 0.949 . S
H4074 C4078 0.949 . S
C4075 C4076 1.349 . S
C4075 C4077 1.327 . S
C4075 H4098 0.950 . S
C4076 C4075 1.349 . S
C4076 C4088 1.349 . S
C4077 C4075 1.327 . S
C4077 C4093 1.429 . S
C4077 H4099 0.950 . S
C4078 H4074 0.949 . S
C4078 C4086 1.574 . S
C4078 C4094 1.368 . S
H4079 C4087 0.950 . S
H4080 C4085 0.950 . S
H4081 C4086 0.949 . S
H4082 C4088 0.950 . S
H4083 C4089 0.950 . S
H4084 C4090 0.949 . S
C4085 H4080 0.950 . S
C4085 C4087 1.327 . S
C4085 C4091 1.429 . S
C4086 C4078 1.574 . S
C4086 H4081 0.949 . S
C4086 C4092 1.368 . S
C4087 C4071 1.349 . S
C4087 H4079 0.950 . S
C4087 C4085 1.327 . S
C4088 C4076 1.349 . S
C4088 H4082 0.950 . S
C4088 C4089 1.327 . S
C4089 H4083 0.950 . S
C4089 C4088 1.327 . S
C4089 C4093 1.429 . S
C4090 C4073 1.574 . S
C4090 H4084 0.949 . S
C4090 C4094 1.368 . S
C4091 C4072 1.429 . S
C4091 C4085 1.429 . S
C4091 C4092 1.523 . S
C4092 C4073 1.368 . S
C4092 C4086 1.368 . S
C4092 C4091 1.523 . S
C4093 C4077 1.429 . S
C4093 C4089 1.429 . S
C4093 C4094 1.523 . S
C4094 C4078 1.368 . S
C4094 C4090 1.368 . S
C4094 C4093 1.523 . S
H4095 C4070 0.950 . S
H4096 C4072 0.950 . S
H4097 C4073 0.949 . S
H4098 C4075 0.950 . S
H4099 C4077 0.950 . S
C4100 C4101 1.349 . S
C4100 C4102 1.327 . S
C4100 H4125 0.950 . S
C4101 C4100 1.349 . S
C4101 C4117 1.349 . S
C4102 C4100 1.327 . S
C4102 C4121 1.429 . S
C4102 H4126 0.950 . S
C4103 C4120 1.574 . S
C4103 C4122 1.368 . S
C4103 H4127 0.949 . S
H4104 C4108 0.949 . S
C4105 C4106 1.349 . S
C4105 C4107 1.327 . S
C4105 H4128 0.950 . S
C4106 C4105 1.349 . S
C4106 C4118 1.349 . S
C4107 C4105 1.327 . S
C4107 C4123 1.429 . S
C4107 H4129 0.950 . S
C4108 H4104 0.949 . S
C4108 C4116 1.574 . S
C4108 C4124 1.368 . S
H4109 C4117 0.950 . S
H4110 C4115 0.950 . S
H4111 C4116 0.949 . S
H4112 C4118 0.950 . S
H4113 C4119 0.950 . S
H4114 C4120 0.949 . S
C4115 H4110 0.950 . S
C4115 C4117 1.327 . S
C4115 C4121 1.429 . S
C4116 C4108 1.574 . S
C4116 H4111 0.949 . S
C4116 C4122 1.368 . S
C4117 C4101 1.349 . S
C4117 H4109 0.950 . S
C4117 C4115 1.327 . S
C4118 C4106 1.349 . S
C4118 H4112 0.950 . S
C4118 C4119 1.327 . S
C4119 H4113 0.950 . S
C4119 C4118 1.327 . S
C4119 C4123 1.429 . S
C4120 C4103 1.574 . S
C4120 H4114 0.949 . S
C4120 C4124 1.368 . S
C4121 C4102 1.429 . S
C4121 C4115 1.429 . S
C4121 C4122 1.523 . S
C4122 C4103 1.368 . S
C4122 C4116 1.368 . S
C4122 C4121 1.523 . S
C4123 C4107 1.429 . S
C4123 C4119 1.429 . S
C4123 C4124 1.523 . S
C4124 C4108 1.368 . S
C4124 C4120 1.368 . S
C4124 C4123 1.523 . S
H4125 C4100 0.950 . S
H4126 C4102 0.950 . S
H4127 C4103 0.949 . S
H4128 C4105 0.950 . S
H4129 C4107 0.950 . S
C4130 C4131 1.349 . S
C4130 C4132 1.327 . S
C4130 H4155 0.950 . S
C4131 C4130 1.349 . S
C4131 C4147 1.349 . S
C4132 C4130 1.327 . S
C4132 C4151 1.429 . S
C4132 H4156 0.950 . S
C4133 C4150 1.574 . S
C4133 C4152 1.368 . S
C4133 H4157 0.949 . S
H4134 C4138 0.949 . S
C4135 C4136 1.349 . S
C4135 C4137 1.327 . S
C4135 H4158 0.950 . S
C4136 C4135 1.349 . S
C4136 C4148 1.349 . S
C4137 C4135 1.327 . S
C4137 C4153 1.429 . S
C4137 H4159 0.950 . S
C4138 H4134 0.949 . S
C4138 C4146 1.574 . S
C4138 C4154 1.368 . S
H4139 C4147 0.950 . S
H4140 C4145 0.950 . S
H4141 C4146 0.949 . S
H4142 C4148 0.950 . S
H4143 C4149 0.950 . S
H4144 C4150 0.949 . S
C4145 H4140 0.950 . S
C4145 C4147 1.327 . S
C4145 C4151 1.429 . S
C4146 C4138 1.574 . S
C4146 H4141 0.949 . S
C4146 C4152 1.368 . S
C4147 C4131 1.349 . S
C4147 H4139 0.950 . S
C4147 C4145 1.327 . S
C4148 C4136 1.349 . S
C4148 H4142 0.950 . S
C4148 C4149 1.327 . S
C4149 H4143 0.950 . S
C4149 C4148 1.327 . S
C4149 C4153 1.429 . S
C4150 C4133 1.574 . S
C4150 H4144 0.949 . S
C4150 C4154 1.368 . S
C4151 C4132 1.429 . S
C4151 C4145 1.429 . S
C4151 C4152 1.523 . S
C4152 C4133 1.368 . S
C4152 C4146 1.368 . S
C4152 C4151 1.523 . S
C4153 C4137 1.429 . S
C4153 C4149 1.429 . S
C4153 C4154 1.523 . S
C4154 C4138 1.368 . S
C4154 C4150 1.368 . S
C4154 C4153 1.523 . S
H4155 C4130 0.950 . S
H4156 C4132 0.950 . S
H4157 C4133 0.949 . S
H4158 C4135 0.950 . S
H4159 C4137 0.950 . S
C1281 C1018 1.993 . S
C1286 C18 1.993 . S
C1311 C978 1.993 . S
C1316 C58 1.993 . S
C1341 C1098 1.993 . S
C1346 C98 1.993 . S
C1371 C1058 1.993 . S
C1376 C138 1.993 . S
C1401 C169 1.993 . S
C1406 C1169 1.993 . S
C1431 C209 1.993 . S
C1436 C1129 1.993 . S
C1461 C249 1.993 . S
C1466 C1249 1.993 . S
C1491 C1209 1.993 . S
C1496 C289 1.993 . S
C1521 C698 1.993 . S
C1526 C338 1.993 . S
C1551 C658 1.993 . S
C1556 C378 1.993 . S
C1581 C778 1.993 . S
C1586 C418 1.993 . S
C1611 C738 1.993 . S
C1616 C458 1.993 . S
C1641 C489 1.993 . S
C1646 C849 1.993 . S
C1671 C809 1.993 . S
C1676 C529 1.993 . S
C1701 C569 1.993 . S
C1706 C929 1.993 . S
C1731 C889 1.993 . S
C1736 C609 1.993 . S
C1761 C19 5.005 1_545 S
C1766 C810 5.005 1_565 S
C1791 C530 5.006 . S
C1796 C59 5.006 . S
C1821 C1210 5.006 . S
C1826 C99 5.006 . S
C1851 C139 5.005 1_545 S
C1856 C290 5.005 1_565 S
C1881 C170 5.005 1_565 S
C1886 C659 5.005 1_545 S
C1911 C210 5.006 . S
C1916 C379 5.006 . S
C1941 C250 5.006 . S
C1946 C1059 5.006 . S
C1971 C1130 5.005 . S
C1976 C339 5.005 . S
C2001 C890 5.006 . S
C2006 C419 5.006 . S
C2031 C610 5.006 . S
C2036 C459 5.006 . S
C2061 C979 5.005 . S
C2066 C490 5.005 . S
C2091 C570 5.006 . S
C2096 C739 5.006 . S
C2121 C1170 5.006 . S
C2126 C699 5.006 . S
C2151 C779 5.005 1_545 S
C2156 C930 5.005 1_565 S
C2181 C1019 5.006 . S
C2186 C850 5.006 . S
C2211 C1099 5.006 . S
C2216 C1250 5.006 . S
C2241 C10 4.743 1_556 S
C2246 C770 4.743 . S
C2271 C50 4.743 1_556 S
C2276 C730 4.743 . S
C2301 C90 4.743 . S
C2306 C690 4.743 . S
C2331 C130 4.743 . S
C2336 C650 4.743 . S
C2361 C179 4.743 1_554 S
C2366 C939 4.743 . S
C2391 C219 4.743 1_554 S
C2396 C899 4.743 . S
C2421 C259 4.743 . S
C2426 C859 4.743 . S
C2451 C299 4.743 . S
C2456 C819 4.743 . S
C2481 C330 4.743 . S
C2486 C1090 4.743 . S
C2511 C370 4.743 . S
C2516 C1050 4.743 . S
C2541 C410 4.743 . S
C2546 C1010 4.743 1_556 S
C2571 C450 4.743 . S
C2576 C970 4.743 1_556 S
C2601 C1259 4.743 . S
C2606 C499 4.743 . S
C2631 C1219 4.743 . S
C2636 C539 4.743 . S
C2661 C1179 4.743 1_554 S
C2666 C579 4.743 . S
C2691 C1139 4.743 1_554 S
C2696 C619 4.743 . S
C2721 C89 1.489 . S
C2726 C9 1.489 . S
C2751 C129 1.489 . S
C2756 C49 1.489 . S
C2781 C258 1.489 . S
C2786 C178 1.489 . S
C2811 C218 1.489 . S
C2816 C298 1.489 . S
C2841 C409 1.490 . S
C2846 C329 1.490 . S
C2871 C369 1.490 . S
C2876 C449 1.490 . S
C2901 C578 1.490 . S
C2906 C498 1.490 . S
C2931 C538 1.490 . S
C2936 C618 1.490 . S
C2961 C649 1.489 . S
C2966 C729 1.489 . S
C2991 C689 1.489 . S
C2996 C769 1.489 . S
C3021 C898 1.489 . S
C3026 C818 1.489 . S
C3051 C858 1.489 . S
C3056 C938 1.489 . S
C3081 C969 1.490 . S
C3086 C1049 1.490 . S
C3111 C1089 1.490 . S
C3116 C1009 1.490 . S
C3141 C1138 1.490 . S
C3146 C1218 1.490 . S
C3171 C1178 1.490 . S
C3176 C1258 1.490 . S
C3201 C6 0.756 . S
C3206 C286 0.765 . S
C3231 C1206 0.765 . S
C3236 C46 0.756 . S
C3261 C86 0.756 . S
C3266 C526 0.765 . S
C3291 C126 0.756 . S
C3296 C806 0.765 . S
C3321 C135 0.765 . S
C3326 C175 0.756 . S
C3351 C215 0.756 . S
C3356 C1055 0.765 . S
C3381 C375 0.765 . S
C3386 C255 0.756 . S
C3411 C655 0.765 . S
C3416 C295 0.756 . S
C3441 C326 0.756 . S
C3446 C606 0.765 . S
C3471 C886 0.765 . S
C3476 C366 0.756 . S
C3501 C406 0.756 . S
C3506 C206 0.765 . S
C3531 C1126 0.765 . S
C3536 C446 0.756 . S
C3561 C495 0.756 . S
C3566 C455 0.765 . S
C3591 C535 0.756 . S
C3596 C735 0.765 . S
C3621 C575 0.756 . S
C3626 C55 0.765 . S
C3651 C975 0.765 . S
C3656 C615 0.756 . S
C3681 C646 0.756 . S
C3686 C926 0.765 . S
C3711 C686 0.756 . S
C3716 C566 0.765 . S
C3741 C726 0.756 . S
C3746 C1166 0.765 . S
C3771 C766 0.756 . S
C3776 C166 0.765 . S
C3801 C815 0.756 . S
C3806 C775 0.765 . S
C3831 C415 0.765 . S
C3836 C855 0.756 . S
C3861 C1015 0.765 . S
C3866 C895 0.756 . S
C3891 C935 0.756 . S
C3896 C15 0.765 . S
C3921 C1246 0.765 . S
C3926 C966 0.756 . S
C3951 C246 0.765 . S
C3956 C1006 0.756 . S
C3981 C846 0.765 . S
C3986 C1046 0.756 . S
C4011 C1086 0.756 . S
C4016 C486 0.765 . S
C4041 C1095 0.765 . S
C4046 C1135 0.756 . S
C4071 C95 0.765 . S
C4076 C1175 0.756 . S
C4101 C695 0.765 . S
C4106 C1215 0.756 . S
C4131 C1255 0.756 . S
C4136 C335 0.765 . S
