# Generated by pormake.
# Topology whz, (6)-cn, num edge types: 1
# Building blocks:
#     Node 0, Type 0, BuildingBlock: JUFBIX_clean_sbu_0, # of connection points: 6
#     Node 1, Type 0, BuildingBlock: JUFBIX_clean_sbu_0, # of connection points: 6
#     Node 2, Type 0, BuildingBlock: JUFBIX_clean_sbu_0, # of connection points: 6
#     Node 3, Type 0, BuildingBlock: JUFBIX_clean_sbu_0, # of connection points: 6
#     Node 4, Type 0, BuildingBlock: JUFBIX_clean_sbu_0, # of connection points: 6
#     Node 5, Type 0, BuildingBlock: JUFBIX_clean_sbu_0, # of connection points: 6
#     Node 6, Type 0, BuildingBlock: JUFBIX_clean_sbu_0, # of connection points: 6
#     Node 7, Type 0, BuildingBlock: JUFBIX_clean_sbu_0, # of connection points: 6
#     Node 8, Type 0, BuildingBlock: JUFBIX_clean_sbu_0, # of connection points: 6
#     Node 9, Type 0, BuildingBlock: JUFBIX_clean_sbu_0, # of connection points: 6
#     Node 10, Type 0, BuildingBlock: JUFBIX_clean_sbu_0, # of connection points: 6
#     Node 11, Type 0, BuildingBlock: JUFBIX_clean_sbu_0, # of connection points: 6
#     Node 12, Type 0, BuildingBlock: JUFBIX_clean_sbu_0, # of connection points: 6
#     Node 13, Type 0, BuildingBlock: JUFBIX_clean_sbu_0, # of connection points: 6
#     Node 14, Type 0, BuildingBlock: JUFBIX_clean_sbu_0, # of connection points: 6
#     Node 15, Type 0, BuildingBlock: JUFBIX_clean_sbu_0, # of connection points: 6
#     Edge 16, Type (0, 0), BuildingBlock: UVAHIK_clean_linker_0, # of connection points: 2
#     Edge 17, Type (0, 0), BuildingBlock: UVAHIK_clean_linker_0, # of connection points: 2
#     Edge 18, Type (0, 0), BuildingBlock: UVAHIK_clean_linker_0, # of connection points: 2
#     Edge 19, Type (0, 0), BuildingBlock: UVAHIK_clean_linker_0, # of connection points: 2
#     Edge 20, Type (0, 0), BuildingBlock: UVAHIK_clean_linker_0, # of connection points: 2
#     Edge 21, Type (0, 0), BuildingBlock: UVAHIK_clean_linker_0, # of connection points: 2
#     Edge 22, Type (0, 0), BuildingBlock: UVAHIK_clean_linker_0, # of connection points: 2
#     Edge 23, Type (0, 0), BuildingBlock: UVAHIK_clean_linker_0, # of connection points: 2
#     Edge 24, Type (0, 0), BuildingBlock: UVAHIK_clean_linker_0, # of connection points: 2
#     Edge 25, Type (0, 0), BuildingBlock: UVAHIK_clean_linker_0, # of connection points: 2
#     Edge 26, Type (0, 0), BuildingBlock: UVAHIK_clean_linker_0, # of connection points: 2
#     Edge 27, Type (0, 0), BuildingBlock: UVAHIK_clean_linker_0, # of connection points: 2
#     Edge 28, Type (0, 0), BuildingBlock: UVAHIK_clean_linker_0, # of connection points: 2
#     Edge 29, Type (0, 0), BuildingBlock: UVAHIK_clean_linker_0, # of connection points: 2
#     Edge 30, Type (0, 0), BuildingBlock: UVAHIK_clean_linker_0, # of connection points: 2
#     Edge 31, Type (0, 0), BuildingBlock: UVAHIK_clean_linker_0, # of connection points: 2
#     Edge 32, Type (0, 0), BuildingBlock: UVAHIK_clean_linker_0, # of connection points: 2
#     Edge 33, Type (0, 0), BuildingBlock: UVAHIK_clean_linker_0, # of connection points: 2
#     Edge 34, Type (0, 0), BuildingBlock: UVAHIK_clean_linker_0, # of connection points: 2
#     Edge 35, Type (0, 0), BuildingBlock: UVAHIK_clean_linker_0, # of connection points: 2
#     Edge 36, Type (0, 0), BuildingBlock: UVAHIK_clean_linker_0, # of connection points: 2
#     Edge 37, Type (0, 0), BuildingBlock: UVAHIK_clean_linker_0, # of connection points: 2
#     Edge 38, Type (0, 0), BuildingBlock: UVAHIK_clean_linker_0, # of connection points: 2
#     Edge 39, Type (0, 0), BuildingBlock: UVAHIK_clean_linker_0, # of connection points: 2
#     Edge 40, Type (0, 0), BuildingBlock: UVAHIK_clean_linker_0, # of connection points: 2
#     Edge 41, Type (0, 0), BuildingBlock: UVAHIK_clean_linker_0, # of connection points: 2
#     Edge 42, Type (0, 0), BuildingBlock: UVAHIK_clean_linker_0, # of connection points: 2
#     Edge 43, Type (0, 0), BuildingBlock: UVAHIK_clean_linker_0, # of connection points: 2
#     Edge 44, Type (0, 0), BuildingBlock: UVAHIK_clean_linker_0, # of connection points: 2
#     Edge 45, Type (0, 0), BuildingBlock: UVAHIK_clean_linker_0, # of connection points: 2
#     Edge 46, Type (0, 0), BuildingBlock: UVAHIK_clean_linker_0, # of connection points: 2
#     Edge 47, Type (0, 0), BuildingBlock: UVAHIK_clean_linker_0, # of connection points: 2
#     Edge 48, Type (0, 0), BuildingBlock: UVAHIK_clean_linker_0, # of connection points: 2
#     Edge 49, Type (0, 0), BuildingBlock: UVAHIK_clean_linker_0, # of connection points: 2
#     Edge 50, Type (0, 0), BuildingBlock: UVAHIK_clean_linker_0, # of connection points: 2
#     Edge 51, Type (0, 0), BuildingBlock: UVAHIK_clean_linker_0, # of connection points: 2
#     Edge 52, Type (0, 0), BuildingBlock: UVAHIK_clean_linker_0, # of connection points: 2
#     Edge 53, Type (0, 0), BuildingBlock: UVAHIK_clean_linker_0, # of connection points: 2
#     Edge 54, Type (0, 0), BuildingBlock: UVAHIK_clean_linker_0, # of connection points: 2
#     Edge 55, Type (0, 0), BuildingBlock: UVAHIK_clean_linker_0, # of connection points: 2
#     Edge 56, Type (0, 0), BuildingBlock: UVAHIK_clean_linker_0, # of connection points: 2
#     Edge 57, Type (0, 0), BuildingBlock: UVAHIK_clean_linker_0, # of connection points: 2
#     Edge 58, Type (0, 0), BuildingBlock: UVAHIK_clean_linker_0, # of connection points: 2
#     Edge 59, Type (0, 0), BuildingBlock: UVAHIK_clean_linker_0, # of connection points: 2
#     Edge 60, Type (0, 0), BuildingBlock: UVAHIK_clean_linker_0, # of connection points: 2
#     Edge 61, Type (0, 0), BuildingBlock: UVAHIK_clean_linker_0, # of connection points: 2
#     Edge 62, Type (0, 0), BuildingBlock: UVAHIK_clean_linker_0, # of connection points: 2
#     Edge 63, Type (0, 0), BuildingBlock: UVAHIK_clean_linker_0, # of connection points: 2
# Relax obj value: 0.419
# Max RMSD: 0.257
# Mean RMSD: 0.257
data_MOF--net-whz--node1-JUFBIX_clean_sbu_0--edge1-UVAHIK_clean_linker_0
_symmetry_space_group_name_H-M    P1
_symmetry_Int_Tables_number       1
_symmetry_cell_setting            triclinic
loop_
_symmetry_equiv_pos_as_xyz
'x, y, z'
_cell_length_a     50.632562
_cell_length_b     50.613312
_cell_length_c     59.792731
_cell_angle_alpha  89.9976
_cell_angle_beta   89.978669
_cell_angle_gamma 89.967597
loop_
_atom_site_label
_atom_site_type_symbol
_atom_site_fract_x
_atom_site_fract_y
_atom_site_fract_z
_atom_type_partial_charge
Co0 Co 0.2682 0.1395 0.1299 0.0
C1 C 0.31523 0.11152 0.13675 0.0
Co2 Co 0.30429 0.16038 0.11886 0.0
C3 C 0.2152 0.11699 0.13346 0.0
C4 C 0.24005 0.10873 0.16158 0.0
N5 N 0.23965 0.12137 0.14172 0.0
N6 N 0.20052 0.10189 0.14738 0.0
C7 C 0.21614 0.09678 0.16509 0.0
H8 H 0.20854 0.12422 0.11738 0.0
H9 H 0.25681 0.1081 0.17279 0.0
C10 C 0.25709 0.18889 0.11383 0.0
N11 N 0.33321 0.17861 0.10728 0.0
C12 C 0.35723 0.18417 0.11607 0.0
C13 C 0.33328 0.19031 0.08704 0.0
N14 N 0.37228 0.1988 0.10196 0.0
C15 C 0.35705 0.20265 0.08374 0.0
C16 C 0.27855 0.12964 0.08595 0.0
O17 O 0.24628 0.16855 0.1223 0.0
O18 O 0.28186 0.1888 0.11028 0.0
O19 O 0.29869 0.14388 0.09016 0.0
O20 O 0.26231 0.12455 0.10155 0.0
O21 O 0.32653 0.13176 0.12844 0.0
H22 H 0.31684 0.19025 0.07549 0.0
H23 H 0.3635 0.1776 0.13246 0.0
O24 O 0.29021 0.11089 0.13769 0.0
O25 O 0.27404 0.15488 0.15812 0.0
O26 O 0.30888 0.17706 0.14715 0.0
C27 C 0.2923 0.17126 0.16235 0.0
H28 H 0.21062 0.08531 0.17964 0.0
H29 H 0.36235 0.21421 0.0692 0.0
Co30 Co 0.61577 0.51797 0.37995 0.0
C31 C 0.64481 0.56412 0.38682 0.0
Co32 Co 0.59569 0.55442 0.36857 0.0
C33 C 0.63429 0.46356 0.38493 0.0
C34 C 0.64481 0.48884 0.41224 0.0
N35 N 0.63261 0.48881 0.39217 0.0
N36 N 0.64676 0.4479 0.3999 0.0
C37 C 0.65343 0.4638 0.41704 0.0
H38 H 0.62589 0.45666 0.36934 0.0
H39 H 0.64689 0.50596 0.42292 0.0
C40 C 0.56614 0.50808 0.36347 0.0
N41 N 0.5785 0.58387 0.35667 0.0
C42 C 0.57288 0.6079 0.36551 0.0
C43 C 0.56754 0.58431 0.33615 0.0
N44 N 0.55893 0.62328 0.35115 0.0
C45 C 0.5556 0.60828 0.33272 0.0
C46 C 0.62621 0.52748 0.33604 0.0
O47 O 0.5861 0.497 0.3723 0.0
O48 O 0.56676 0.53281 0.35972 0.0
O49 O 0.61248 0.54806 0.34007 0.0
O50 O 0.63079 0.51123 0.35176 0.0
O51 O 0.62486 0.57582 0.37838 0.0
H52 H 0.56774 0.56795 0.32451 0.0
H53 H 0.57883 0.61388 0.38214 0.0
O54 O 0.64498 0.53907 0.38779 0.0
O55 O 0.60036 0.52466 0.40802 0.0
O56 O 0.57876 0.55972 0.39668 0.0
C57 C 0.5843 0.54328 0.41205 0.0
H58 H 0.66389 0.45774 0.43197 0.0
H59 H 0.54459 0.61384 0.31795 0.0
Co60 Co 0.23744 0.86551 0.63096 0.0
C61 C 0.19178 0.89536 0.63738 0.0
Co62 Co 0.20092 0.84603 0.61913 0.0
C63 C 0.29198 0.88342 0.63601 0.0
C64 C 0.26686 0.89394 0.66343 0.0
N65 N 0.26676 0.88186 0.64332 0.0
N66 N 0.30775 0.8957 0.65099 0.0
C67 C 0.29196 0.90237 0.6682 0.0
H68 H 0.29875 0.87512 0.62033 0.0
H69 H 0.24977 0.89616 0.67414 0.0
C70 C 0.24675 0.81567 0.61449 0.0
N71 N 0.17125 0.82939 0.60714 0.0
C72 C 0.14707 0.82459 0.61597 0.0
C73 C 0.17046 0.81849 0.58659 0.0
N74 N 0.13124 0.81127 0.60158 0.0
C75 C 0.14607 0.80744 0.58313 0.0
C76 C 0.22877 0.87598 0.58686 0.0
O77 O 0.25794 0.83541 0.62358 0.0
O78 O 0.22213 0.8167 0.61036 0.0
O79 O 0.20779 0.86277 0.59063 0.0
O80 O 0.24478 0.88016 0.60282 0.0
O81 O 0.17993 0.87556 0.62886 0.0
H82 H 0.18678 0.81829 0.5749 0.0
H83 H 0.14118 0.83087 0.63254 0.0
O84 O 0.2168 0.89517 0.63854 0.0
O85 O 0.23016 0.85042 0.659 0.0
O86 O 0.19514 0.82913 0.64724 0.0
C87 C 0.21133 0.83455 0.66281 0.0
H88 H 0.29811 0.91277 0.68314 0.0
H89 H 0.13996 0.79687 0.56827 0.0
Co90 Co 0.88893 0.48686 0.88101 0.0
C91 C 0.8594 0.4405 0.88629 0.0
Co92 Co 0.90893 0.45046 0.86949 0.0
C93 C 0.87011 0.54121 0.88697 0.0
C94 C 0.85642 0.51417 0.91192 0.0
N95 N 0.87131 0.51558 0.89327 0.0
N96 N 0.85498 0.55582 0.90102 0.0
C97 C 0.84632 0.53863 0.91663 0.0
H98 H 0.88035 0.5489 0.87248 0.0
H99 H 0.85306 0.49639 0.92154 0.0
C100 C 0.93887 0.49697 0.86591 0.0
N101 N 0.92662 0.42132 0.85756 0.0
C102 C 0.93228 0.39724 0.86626 0.0
C103 C 0.93801 0.42123 0.83719 0.0
N104 N 0.94666 0.38215 0.85198 0.0
C105 C 0.95024 0.39741 0.83373 0.0
C106 C 0.8798 0.47838 0.83668 0.0
O107 O 0.91885 0.50801 0.87471 0.0
O108 O 0.93805 0.47239 0.86152 0.0
O109 O 0.89285 0.45733 0.84068 0.0
O110 O 0.87526 0.49439 0.85258 0.0
O111 O 0.87962 0.42868 0.87848 0.0
H112 H 0.9379 0.43773 0.82569 0.0
H113 H 0.92604 0.391 0.88275 0.0
O114 O 0.85941 0.46551 0.88739 0.0
O115 O 0.90305 0.47946 0.90942 0.0
O116 O 0.92513 0.44477 0.89786 0.0
C117 C 0.91915 0.46084 0.91341 0.0
H118 H 0.83318 0.54308 0.93038 0.0
H119 H 0.9616 0.39213 0.81907 0.0
Co120 Co 0.70059 0.84545 0.88359 0.0
C121 C 0.74761 0.81675 0.8883 0.0
Co122 Co 0.7366 0.86615 0.87224 0.0
C123 C 0.64723 0.82276 0.88631 0.0
C124 C 0.67105 0.81562 0.91527 0.0
N125 N 0.67145 0.82746 0.89508 0.0
N126 N 0.63175 0.80859 0.9004 0.0
C127 C 0.64685 0.80409 0.91857 0.0
H128 H 0.64102 0.82984 0.87006 0.0
H129 H 0.68745 0.81525 0.92685 0.0
C130 C 0.68997 0.8946 0.86587 0.0
N131 N 0.76521 0.8842 0.86045 0.0
C132 C 0.78967 0.88845 0.86875 0.0
C133 C 0.76483 0.89706 0.84069 0.0
N134 N 0.80437 0.90368 0.85494 0.0
C135 C 0.78876 0.90902 0.83728 0.0
C136 C 0.71219 0.83478 0.83988 0.0
O137 O 0.67846 0.8742 0.87368 0.0
O138 O 0.71498 0.89516 0.86517 0.0
O139 O 0.73021 0.85149 0.84386 0.0
O140 O 0.69611 0.82855 0.85534 0.0
O141 O 0.7582 0.83674 0.87909 0.0
H142 H 0.74804 0.89791 0.82953 0.0
H143 H 0.7963 0.88108 0.88479 0.0
O144 O 0.72298 0.81703 0.89256 0.0
O145 O 0.7061 0.86214 0.91222 0.0
O146 O 0.74302 0.88041 0.9008 0.0
C147 C 0.72666 0.87578 0.91643 0.0
H148 H 0.64101 0.79286 0.93316 0.0
H149 H 0.79428 0.92067 0.82284 0.0
Co150 Co 0.40979 0.45048 0.63426 0.0
C151 C 0.44019 0.49629 0.63886 0.0
Co152 Co 0.39041 0.48705 0.62235 0.0
C153 C 0.43119 0.39664 0.63735 0.0
C154 C 0.43732 0.4199 0.66679 0.0
N155 N 0.4264 0.42079 0.64626 0.0
N156 N 0.44453 0.38073 0.65167 0.0
C157 C 0.44838 0.39547 0.67016 0.0
H158 H 0.42489 0.39084 0.62076 0.0
H159 H 0.43753 0.43617 0.67852 0.0
C160 C 0.3605 0.4414 0.61604 0.0
N161 N 0.37404 0.51637 0.60994 0.0
C162 C 0.37207 0.54154 0.61731 0.0
C163 C 0.36213 0.51642 0.58975 0.0
N164 N 0.35969 0.55723 0.6023 0.0
C165 C 0.35339 0.54143 0.58501 0.0
C166 C 0.42135 0.46081 0.59057 0.0
O167 O 0.38025 0.42952 0.62461 0.0
O168 O 0.36076 0.46643 0.61477 0.0
O169 O 0.40557 0.47973 0.59434 0.0
O170 O 0.42665 0.44459 0.60616 0.0
O171 O 0.42049 0.50755 0.62976 0.0
H172 H 0.36017 0.49933 0.57901 0.0
H173 H 0.38007 0.54833 0.63309 0.0
O174 O 0.43911 0.47165 0.64298 0.0
O175 O 0.39309 0.45744 0.66275 0.0
O176 O 0.37571 0.49443 0.65048 0.0
C177 C 0.37987 0.47845 0.66647 0.0
H178 H 0.45897 0.38927 0.68498 0.0
H179 H 0.34299 0.5475 0.57005 0.0
Co180 Co 0.80466 0.1597 0.38411 0.0
C181 C 0.75797 0.18907 0.38871 0.0
Co182 Co 0.76848 0.13972 0.37217 0.0
C183 C 0.85785 0.18289 0.38749 0.0
C184 C 0.83399 0.18818 0.41672 0.0
N185 N 0.8338 0.17717 0.3962 0.0
N186 N 0.87302 0.19695 0.40191 0.0
C187 C 0.85785 0.20026 0.42025 0.0
H188 H 0.86401 0.17689 0.37092 0.0
H189 H 0.81755 0.18789 0.42827 0.0
C190 C 0.81497 0.11082 0.36581 0.0
N191 N 0.73977 0.12232 0.35985 0.0
C192 C 0.71527 0.11793 0.36801 0.0
C193 C 0.74015 0.11009 0.33981 0.0
N194 N 0.70054 0.1032 0.35386 0.0
C195 C 0.71617 0.09836 0.3361 0.0
C196 C 0.79391 0.17126 0.34042 0.0
O197 O 0.8265 0.13076 0.37442 0.0
O198 O 0.78996 0.11065 0.3646 0.0
O199 O 0.77534 0.15507 0.34415 0.0
O200 O 0.81007 0.17676 0.35601 0.0
O201 O 0.7471 0.16919 0.37955 0.0
H202 H 0.75698 0.10946 0.32867 0.0
H203 H 0.70864 0.12477 0.38422 0.0
O204 O 0.78261 0.18843 0.39283 0.0
O205 O 0.79816 0.14281 0.41263 0.0
O206 O 0.76154 0.12484 0.40032 0.0
C207 C 0.77739 0.12925 0.41634 0.0
H208 H 0.86323 0.21131 0.43505 0.0
H209 H 0.71065 0.08714 0.32141 0.0
Co210 Co 0.09583 0.55466 0.13426 0.0
C211 C 0.06576 0.50884 0.13937 0.0
Co212 Co 0.11577 0.51798 0.12322 0.0
C213 C 0.07439 0.60868 0.13669 0.0
C214 C 0.06751 0.58547 0.16605 0.0
N215 N 0.0789 0.58451 0.14569 0.0
N216 N 0.06079 0.62464 0.15081 0.0
C217 C 0.05647 0.60993 0.16924 0.0
H218 H 0.0811 0.61445 0.12021 0.0
H219 H 0.06701 0.56923 0.17781 0.0
C220 C 0.14536 0.56362 0.11629 0.0
N221 N 0.13227 0.48836 0.11153 0.0
C222 C 0.13376 0.46345 0.11958 0.0
C223 C 0.14435 0.48738 0.09143 0.0
N224 N 0.14601 0.447 0.1051 0.0
C225 C 0.15273 0.46203 0.08742 0.0
C226 C 0.08485 0.54315 0.09072 0.0
O227 O 0.12547 0.57552 0.12465 0.0
O228 O 0.14527 0.53857 0.11527 0.0
O229 O 0.10065 0.52438 0.09499 0.0
O230 O 0.07943 0.55987 0.10591 0.0
O231 O 0.08583 0.49751 0.13096 0.0
H232 H 0.14659 0.50401 0.08023 0.0
H233 H 0.12541 0.45739 0.13544 0.0
O234 O 0.06643 0.5336 0.1429 0.0
O235 O 0.11204 0.54839 0.16302 0.0
O236 O 0.13049 0.51154 0.15155 0.0
C237 C 0.12573 0.52783 0.1672 0.0
H238 H 0.0456 0.61618 0.1839 0.0
H239 H 0.16314 0.45522 0.07269 0.0
Co240 Co 0.76891 0.63864 0.6307 0.0
C241 C 0.81485 0.60901 0.63674 0.0
Co242 Co 0.80524 0.65825 0.61857 0.0
C243 C 0.7146 0.62016 0.63609 0.0
C244 C 0.73999 0.61004 0.66343 0.0
N245 N 0.73984 0.62208 0.6433 0.0
N246 N 0.69907 0.60768 0.65115 0.0
C247 C 0.71503 0.60126 0.66831 0.0
H248 H 0.70766 0.6283 0.62041 0.0
H249 H 0.75717 0.60803 0.67405 0.0
C250 C 0.75917 0.68838 0.61429 0.0
N251 N 0.83464 0.67513 0.6063 0.0
C252 C 0.85863 0.68093 0.61508 0.0
C253 C 0.83506 0.6858 0.58566 0.0
N254 N 0.87397 0.69473 0.6006 0.0
C255 C 0.85899 0.69776 0.58213 0.0
C256 C 0.77715 0.62822 0.58651 0.0
O257 O 0.74813 0.66862 0.62349 0.0
O258 O 0.78375 0.68742 0.60998 0.0
O259 O 0.79814 0.64147 0.59013 0.0
O260 O 0.76134 0.62395 0.60261 0.0
O261 O 0.82653 0.62886 0.62812 0.0
H262 H 0.81869 0.68546 0.57404 0.0
H263 H 0.86459 0.67526 0.63179 0.0
O264 O 0.78983 0.6091 0.63811 0.0
O265 O 0.77641 0.65379 0.65868 0.0
O266 O 0.81122 0.67519 0.64662 0.0
C267 C 0.79519 0.66975 0.66232 0.0
H268 H 0.70911 0.59077 0.68327 0.0
H269 H 0.8645 0.70861 0.56725 0.0
Co270 Co 0.11608 0.01773 0.88172 0.0
C271 C 0.14703 0.06276 0.88757 0.0
Co272 Co 0.09738 0.05466 0.8699 0.0
C273 C 0.13358 0.96298 0.88683 0.0
C274 C 0.14419 0.98809 0.91422 0.0
N275 N 0.13208 0.98822 0.89412 0.0
N276 N 0.14587 0.94718 0.90182 0.0
C277 C 0.15258 0.96298 0.91901 0.0
H278 H 0.12534 0.95623 0.87114 0.0
H279 H 0.14656 0.00521 0.92487 0.0
C280 C 0.06606 0.00942 0.86565 0.0
N281 N 0.08117 0.08459 0.85788 0.0
C282 C 0.07634 0.10872 0.86682 0.0
C283 C 0.07051 0.08561 0.83725 0.0
N284 N 0.06325 0.12474 0.85242 0.0
C285 C 0.0596 0.1101 0.83384 0.0
C286 C 0.12642 0.02598 0.83752 0.0
O287 O 0.08548 0.99782 0.87487 0.0
O288 O 0.06774 0.03395 0.86123 0.0
O289 O 0.11393 0.04741 0.84136 0.0
O290 O 0.13013 0.00981 0.85346 0.0
O291 O 0.1273 0.07518 0.87951 0.0
H292 H 0.07033 0.06938 0.82548 0.0
H293 H 0.0824 0.11442 0.8835 0.0
O294 O 0.14627 0.03775 0.88872 0.0
O295 O 0.10157 0.02558 0.90988 0.0
O296 O 0.08061 0.06078 0.89805 0.0
C297 C 0.08592 0.0446 0.91367 0.0
H298 H 0.16307 0.95683 0.9339 0.0
H299 H 0.0492 0.11638 0.81895 0.0
Co300 Co 0.73743 0.366 0.12948 0.0
C301 C 0.69213 0.39613 0.13652 0.0
Co302 Co 0.70054 0.34655 0.11856 0.0
C303 C 0.79191 0.38411 0.13322 0.0
C304 C 0.76787 0.39424 0.16143 0.0
N305 N 0.76704 0.38231 0.14126 0.0
N306 N 0.80819 0.39642 0.14777 0.0
C307 C 0.79309 0.40284 0.16549 0.0
H308 H 0.79806 0.37604 0.11727 0.0
H309 H 0.75119 0.39631 0.17261 0.0
C310 C 0.74618 0.31605 0.11318 0.0
N311 N 0.6706 0.32995 0.10712 0.0
C312 C 0.64649 0.32558 0.11623 0.0
C313 C 0.66942 0.31875 0.08669 0.0
N314 N 0.63033 0.31226 0.10212 0.0
C315 C 0.64485 0.30796 0.08357 0.0
C316 C 0.72762 0.37622 0.08556 0.0
O317 O 0.75767 0.33588 0.12182 0.0
O318 O 0.72143 0.31705 0.10964 0.0
O319 O 0.70683 0.36294 0.08984 0.0
O320 O 0.74409 0.38061 0.10113 0.0
O321 O 0.67985 0.37632 0.12845 0.0
H322 H 0.68556 0.3182 0.07485 0.0
H323 H 0.64087 0.33221 0.13277 0.0
O324 O 0.71716 0.39571 0.13728 0.0
O325 O 0.73082 0.35098 0.15772 0.0
O326 O 0.69528 0.32994 0.14682 0.0
C327 C 0.71199 0.33529 0.16201 0.0
H328 H 0.79976 0.41325 0.18026 0.0
H329 H 0.63838 0.29728 0.06888 0.0
Co330 Co 0.38938 0.98743 0.38049 0.0
C331 C 0.35893 0.9422 0.38679 0.0
Co332 Co 0.40832 0.9507 0.36847 0.0
C333 C 0.37115 0.04184 0.38461 0.0
C334 C 0.36184 0.01785 0.41304 0.0
N335 N 0.37337 0.01701 0.3927 0.0
N336 N 0.35895 0.05811 0.39927 0.0
C337 C 0.35307 0.04304 0.41714 0.0
H338 H 0.37875 0.04795 0.36849 0.0
H339 H 0.36004 1.00118 0.42426 0.0
C340 C 0.4393 0.99605 0.36399 0.0
N341 N 0.42464 0.92081 0.35654 0.0
C342 C 0.42943 0.89669 0.36552 0.0
C343 C 0.43543 0.91977 0.33595 0.0
N344 N 0.44264 0.88067 0.35119 0.0
C345 C 0.4464 0.89529 0.33262 0.0
C346 C 0.37889 0.97896 0.33626 0.0
O347 O 0.41977 0.00751 0.37319 0.0
O348 O 0.43786 0.97148 0.35971 0.0
O349 O 0.39178 0.95775 0.33997 0.0
O350 O 0.3749 0.99495 0.35228 0.0
O351 O 0.37856 0.93012 0.37817 0.0
H352 H 0.43566 0.93598 0.32416 0.0
H353 H 0.42327 0.89101 0.38217 0.0
O354 O 0.35943 0.96722 0.38805 0.0
O355 O 0.4043 0.97998 0.40854 0.0
O356 O 0.42511 0.94472 0.39661 0.0
C357 C 0.41996 0.96094 0.41225 0.0
H358 H 0.3428 0.04967 0.432 0.0
H359 H 0.4569 0.889 0.31777 0.0
Co360 Co 0.2005 0.34714 0.38412 0.0
C361 C 0.24602 0.3161 0.38831 0.0
Co362 Co 0.23733 0.36618 0.37241 0.0
C363 C 0.14654 0.326 0.3873 0.0
C364 C 0.16988 0.31978 0.41668 0.0
N365 N 0.17072 0.33073 0.39614 0.0
N366 N 0.13066 0.31269 0.40166 0.0
C367 C 0.14545 0.30879 0.42011 0.0
H368 H 0.1407 0.3323 0.37072 0.0
H369 H 0.1862 0.31947 0.42835 0.0
C370 C 0.19208 0.39683 0.36649 0.0
N371 N 0.26675 0.38233 0.36 0.0
C372 C 0.292 0.38385 0.36725 0.0
C373 C 0.26683 0.39444 0.33989 0.0
N374 N 0.30774 0.39615 0.35224 0.0
C375 C 0.29191 0.40285 0.33507 0.0
C376 C 0.21057 0.33592 0.34039 0.0
O377 O 0.17982 0.37712 0.37474 0.0
O378 O 0.21708 0.39615 0.36522 0.0
O379 O 0.22968 0.35141 0.34428 0.0
O380 O 0.19428 0.3307 0.35594 0.0
O381 O 0.25748 0.33584 0.37948 0.0
H382 H 0.2497 0.39675 0.32925 0.0
H383 H 0.29879 0.37557 0.38292 0.0
O384 O 0.2214 0.31737 0.39247 0.0
O385 O 0.20783 0.36344 0.41275 0.0
O386 O 0.24502 0.38046 0.4006 0.0
C387 C 0.22901 0.37632 0.41657 0.0
H388 H 0.13931 0.29818 0.43494 0.0
H389 H 0.29803 0.4133 0.32014 0.0
Co390 Co 0.90773 0.95065 0.13328 0.0
C391 C 0.93874 0.99617 0.13755 0.0
Co392 Co 0.88891 0.98743 0.1213 0.0
C393 C 0.93008 0.89704 0.13666 0.0
C394 C 0.93446 0.92031 0.16631 0.0
N395 N 0.92416 0.92097 0.14555 0.0
N396 N 0.94359 0.88151 0.1512 0.0
C397 C 0.94631 0.89631 0.16982 0.0
H398 H 0.92474 0.89128 0.11983 0.0
H399 H 0.93401 0.93659 0.17803 0.0
C400 C 0.85832 0.94212 0.11536 0.0
N401 N 0.87277 0.01673 0.10871 0.0
C402 C 0.871 0.04198 0.11593 0.0
C403 C 0.86074 0.01667 0.08857 0.0
N404 N 0.85862 0.0576 0.10088 0.0
C405 C 0.85212 0.04168 0.08371 0.0
C406 C 0.9195 0.96063 0.08957 0.0
O407 O 0.87805 0.92982 0.12355 0.0
O408 O 0.85893 0.96714 0.11423 0.0
O409 O 0.90367 0.97954 0.09323 0.0
O410 O 0.92478 0.94453 0.10526 0.0
O411 O 0.91932 0.00762 0.1282 0.0
H412 H 0.85856 0.99949 0.07797 0.0
H413 H 0.87911 0.04884 0.13164 0.0
O414 O 0.93714 0.97165 0.14205 0.0
O415 O 0.89091 0.95793 0.16171 0.0
O416 O 0.87463 0.99542 0.14947 0.0
C417 C 0.87834 0.97932 0.16546 0.0
H418 H 0.95693 0.89064 0.18476 0.0
H419 H 0.84161 0.04767 0.06878 0.0
Co420 Co 0.30422 0.65867 0.8845 0.0
C421 C 0.25838 0.68888 0.88948 0.0
Co422 Co 0.26769 0.63912 0.87281 0.0
C423 C 0.35788 0.68095 0.88736 0.0
C424 C 0.33468 0.68609 0.91698 0.0
N425 N 0.33392 0.67542 0.89634 0.0
N426 N 0.37353 0.69454 0.90173 0.0
C427 C 0.35878 0.69776 0.92032 0.0
H428 H 0.36362 0.67517 0.87062 0.0
H429 H 0.31846 0.6859 0.92875 0.0
C430 C 0.31332 0.6094 0.86609 0.0
N431 N 0.23818 0.62277 0.86083 0.0
C432 C 0.21342 0.62073 0.86907 0.0
C433 C 0.23717 0.61109 0.84057 0.0
N434 N 0.19701 0.60849 0.85457 0.0
C435 C 0.21193 0.60239 0.83666 0.0
C436 C 0.29333 0.67019 0.84086 0.0
O437 O 0.32517 0.62919 0.87464 0.0
O438 O 0.28828 0.60953 0.86497 0.0
O439 O 0.27456 0.65428 0.84475 0.0
O440 O 0.30967 0.67559 0.85634 0.0
O441 O 0.2472 0.66912 0.88043 0.0
H442 H 0.25374 0.60923 0.82925 0.0
H443 H 0.20743 0.62857 0.88514 0.0
O444 O 0.28304 0.68794 0.89343 0.0
O445 O 0.29769 0.64192 0.91304 0.0
O446 O 0.26075 0.62437 0.90099 0.0
C447 C 0.27681 0.6286 0.91688 0.0
H448 H 0.36461 0.70851 0.93515 0.0
H449 H 0.20514 0.5921 0.82187 0.0
Co450 Co 0.59569 0.0535 0.63374 0.0
C451 C 0.56626 0.00707 0.63882 0.0
Co452 Co 0.6159 0.01709 0.62239 0.0
C453 C 0.57295 0.10702 0.63688 0.0
C454 C 0.5672 0.08322 0.66607 0.0
N455 N 0.57837 0.0829 0.64562 0.0
N456 N 0.55894 0.12235 0.65124 0.0
C457 C 0.55534 0.10722 0.66955 0.0
H458 H 0.57914 0.11312 0.62034 0.0
H459 H 0.56724 0.06678 0.67763 0.0
C460 C 0.64483 0.06335 0.61557 0.0
N461 N 0.63288 0.988 0.6102 0.0
C462 C 0.63479 0.9628 0.61752 0.0
C463 C 0.64508 0.98806 0.59013 0.0
N464 N 0.64741 0.94719 0.60259 0.0
C465 C 0.65393 0.96308 0.58541 0.0
C466 C 0.5844 0.04229 0.59025 0.0
O467 O 0.62483 0.07499 0.62401 0.0
O468 O 0.64506 0.03831 0.61456 0.0
O469 O 0.6005 0.02371 0.5943 0.0
O470 O 0.57885 0.05877 0.6056 0.0
O471 O 0.58628 0.99601 0.63003 0.0
H472 H 0.64704 0.00516 0.57941 0.0
H473 H 0.62647 0.9559 0.63315 0.0
O474 O 0.56679 0.0318 0.64252 0.0
O475 O 0.61234 0.04715 0.66228 0.0
O476 O 0.63087 0.01042 0.65062 0.0
C477 C 0.6261 0.0266 0.66635 0.0
H478 H 0.54423 0.11273 0.68429 0.0
H479 H 0.66448 0.95706 0.57049 0.0
C480 C 0.27621 0.17583 0.20137 0.0
C481 C 0.29088 0.18619 0.18345 0.0
C482 C 0.26846 0.19203 0.21904 0.0
C483 C 0.25216 0.26124 0.22877 0.0
H484 H 0.24606 0.2395 0.29073 0.0
C485 C 0.22486 0.33132 0.30091 0.0
C486 C 0.21069 0.32115 0.31918 0.0
C487 C 0.23179 0.31503 0.28306 0.0
C488 C 0.2472 0.24564 0.2734 0.0
H489 H 0.31079 0.221 0.17078 0.0
H490 H 0.29746 0.24939 0.20194 0.0
H491 H 0.26838 0.21076 0.26398 0.0
H492 H 0.19067 0.28664 0.33231 0.0
H493 H 0.20254 0.25808 0.30083 0.0
H494 H 0.23101 0.29614 0.23819 0.0
C495 C 0.29163 0.2288 0.20208 0.0
C496 C 0.2602 0.22929 0.25814 0.0
C497 C 0.29956 0.21249 0.18442 0.0
C498 C 0.20152 0.295 0.31839 0.0
C499 C 0.20863 0.27859 0.30054 0.0
C500 C 0.23915 0.27759 0.24402 0.0
C501 C 0.27514 0.21894 0.2191 0.0
C502 C 0.26287 0.23695 0.23567 0.0
C503 C 0.22476 0.2882 0.28318 0.0
C504 C 0.23656 0.26998 0.26651 0.0
H505 H 0.26931 0.15557 0.20106 0.0
H506 H 0.25575 0.18383 0.23185 0.0
H507 H 0.25337 0.26741 0.21145 0.0
H508 H 0.23212 0.35146 0.30109 0.0
H509 H 0.24425 0.32304 0.27 0.0
C510 C 0.46261 0.45266 0.56878 0.0
C511 C 0.43621 0.46107 0.56942 0.0
C512 C 0.47889 0.46006 0.55094 0.0
C513 C 0.47926 0.48998 0.4942 0.0
H514 H 0.54504 0.52138 0.51413 0.0
C515 C 0.54305 0.55076 0.43402 0.0
C516 C 0.56949 0.54246 0.43321 0.0
C517 C 0.52688 0.54301 0.45182 0.0
C518 C 0.52679 0.51261 0.50831 0.0
H519 H 0.40536 0.48139 0.55107 0.0
H520 H 0.43354 0.49402 0.51998 0.0
H521 H 0.51683 0.49859 0.54098 0.0
H522 H 0.60047 0.52192 0.45122 0.0
H523 H 0.57245 0.50871 0.48226 0.0
H524 H 0.4892 0.50404 0.46154 0.0
C525 C 0.44186 0.48194 0.53316 0.0
C526 C 0.51075 0.49933 0.52363 0.0
C527 C 0.42571 0.47472 0.551 0.0
C528 C 0.5801 0.52851 0.45142 0.0
C529 C 0.56405 0.52096 0.46923 0.0
C530 C 0.49528 0.50326 0.47889 0.0
C531 C 0.46889 0.47572 0.53342 0.0
C532 C 0.48681 0.48788 0.51674 0.0
C533 C 0.53701 0.52712 0.46913 0.0
C534 C 0.51921 0.51475 0.48579 0.0
H535 H 0.47121 0.44222 0.58283 0.0
H536 H 0.49957 0.45458 0.55135 0.0
H537 H 0.461 0.48122 0.48837 0.0
H538 H 0.53436 0.56143 0.42014 0.0
H539 H 0.50618 0.54844 0.45154 0.0
C540 C 0.22495 0.83059 0.70246 0.0
C541 C 0.21174 0.81973 0.68397 0.0
C542 C 0.23256 0.81459 0.72028 0.0
C543 C 0.22571 0.74845 0.74589 0.0
H544 H 0.29908 0.7597 0.76218 0.0
C545 C 0.27939 0.67425 0.80129 0.0
C546 C 0.29273 0.68507 0.81973 0.0
C547 C 0.27169 0.69028 0.78352 0.0
C548 C 0.27855 0.75643 0.75793 0.0
H549 H 0.19412 0.78421 0.67038 0.0
H550 H 0.20749 0.75606 0.70161 0.0
H551 H 0.27786 0.7893 0.73551 0.0
H552 H 0.31045 0.72057 0.83327 0.0
H553 H 0.29692 0.74877 0.80213 0.0
H554 H 0.2264 0.71559 0.76831 0.0
C555 C 0.2119 0.77697 0.70236 0.0
C556 C 0.26632 0.77345 0.74275 0.0
C557 C 0.20411 0.79309 0.68453 0.0
C558 C 0.30037 0.71171 0.81917 0.0
C559 C 0.29248 0.72786 0.80138 0.0
C560 C 0.23794 0.73144 0.76107 0.0
C561 C 0.22726 0.78737 0.7199 0.0
C562 C 0.23975 0.76968 0.7366 0.0
C563 C 0.27703 0.71749 0.78389 0.0
C564 C 0.26452 0.73521 0.76722 0.0
H565 H 0.23087 0.85117 0.70251 0.0
H566 H 0.24371 0.8233 0.73386 0.0
H567 H 0.20518 0.74518 0.74162 0.0
H568 H 0.27346 0.65368 0.80125 0.0
H569 H 0.26047 0.68159 0.76997 0.0
C570 C 0.92332 0.47561 0.95281 0.0
C571 C 0.93389 0.46157 0.93462 0.0
C572 C 0.93945 0.48332 0.97052 0.0
C573 C 0.0052 0.47516 0.99653 0.0
H574 H 0.99598 0.54922 0.0116 0.0
C575 C 0.08056 0.52792 0.05147 0.0
C576 C 0.07004 0.54216 0.06956 0.0
C577 C 0.06443 0.5202 0.03377 0.0
C578 C 0.99868 0.5285 0.00769 0.0
H579 H 0.96903 0.44263 0.92153 0.0
H580 H 0.99735 0.45613 0.95256 0.0
H581 H 0.96594 0.52827 0.98515 0.0
H582 H 0.03499 0.56137 0.08253 0.0
H583 H 0.00663 0.54779 0.05154 0.0
H584 H 0.03793 0.47538 0.01908 0.0
C585 C 0.97657 0.46114 0.95315 0.0
C586 C 0.98141 0.51643 0.99264 0.0
C587 C 0.96034 0.45328 0.93543 0.0
C588 C 0.04363 0.55057 0.0687 0.0
C589 C 0.02739 0.54267 0.051 0.0
C590 C 0.02247 0.48723 0.01159 0.0
C591 C 0.96651 0.47725 0.97035 0.0
C592 C 0.98445 0.48961 0.98693 0.0
C593 C 0.0374 0.52641 0.03387 0.0
C594 C 0.01944 0.51405 0.0173 0.0
H595 H 0.90291 0.48208 0.95269 0.0
H596 H 0.93097 0.49508 0.98385 0.0
H597 H 0.00791 0.45444 0.99261 0.0
H598 H 0.10094 0.52138 0.05164 0.0
H599 H 0.07288 0.50833 0.02049 0.0
C600 C 0.70576 0.79331 0.81798 0.0
C601 C 0.7135 0.81991 0.81875 0.0
C602 C 0.71393 0.7772 0.80026 0.0
C603 C 0.76894 0.77343 0.76029 0.0
H604 H 0.7288 0.71586 0.73452 0.0
C605 C 0.80264 0.71131 0.68386 0.0
C606 C 0.79488 0.6847 0.68343 0.0
C607 C 0.79493 0.72758 0.70164 0.0
C608 C 0.74039 0.73164 0.74181 0.0
H609 H 0.73338 0.85127 0.80066 0.0
H610 H 0.74688 0.82343 0.76948 0.0
H611 H 0.70758 0.74562 0.76106 0.0
H612 H 0.77564 0.65347 0.70214 0.0
H613 H 0.76291 0.6816 0.73336 0.0
H614 H 0.80174 0.75946 0.74096 0.0
C615 C 0.73534 0.81473 0.78285 0.0
C616 C 0.72817 0.74874 0.75693 0.0
C617 C 0.72736 0.83072 0.80057 0.0
C618 C 0.78165 0.67401 0.70199 0.0
C619 C 0.77411 0.69017 0.71974 0.0
C620 C 0.78115 0.75634 0.74514 0.0
C621 C 0.72977 0.78756 0.78301 0.0
C622 C 0.74229 0.76984 0.76632 0.0
C623 C 0.77952 0.71736 0.71922 0.0
C624 C 0.76704 0.73521 0.73581 0.0
H625 H 0.69527 0.78443 0.83187 0.0
H626 H 0.70931 0.75633 0.80086 0.0
H627 H 0.78054 0.78919 0.76759 0.0
H628 H 0.81266 0.72007 0.66967 0.0
H629 H 0.79943 0.74847 0.7008 0.0
C630 C 0.70402 0.29431 0.18424 0.0
C631 C 0.71282 0.32057 0.18324 0.0
C632 C 0.71163 0.27809 0.20207 0.0
C633 C 0.74243 0.27773 0.25837 0.0
H634 H 0.77249 0.21121 0.23853 0.0
C635 C 0.80182 0.21268 0.31872 0.0
C636 C 0.79329 0.18631 0.31935 0.0
C637 C 0.79435 0.22907 0.30097 0.0
C638 C 0.76408 0.22966 0.24435 0.0
H639 H 0.73419 0.35124 0.20092 0.0
H640 H 0.74714 0.32315 0.23202 0.0
H641 H 0.75002 0.2397 0.21171 0.0
H642 H 0.77258 0.15567 0.30107 0.0
H643 H 0.75978 0.18406 0.27018 0.0
H644 H 0.75643 0.26766 0.29102 0.0
C645 C 0.7346 0.31492 0.21911 0.0
C646 C 0.75101 0.24586 0.22903 0.0
C647 C 0.7272 0.33101 0.20128 0.0
C648 C 0.77934 0.17598 0.30103 0.0
C649 C 0.77203 0.19226 0.28329 0.0
C650 C 0.75547 0.2615 0.2737 0.0
C651 C 0.72788 0.28801 0.21921 0.0
C652 C 0.74002 0.27006 0.23588 0.0
C653 C 0.77847 0.21924 0.28354 0.0
C654 C 0.76644 0.23728 0.26685 0.0
H655 H 0.69303 0.28575 0.1705 0.0
H656 H 0.70579 0.25751 0.20194 0.0
H657 H 0.73404 0.2962 0.26416 0.0
H658 H 0.81249 0.22115 0.33268 0.0
H659 H 0.8 0.2497 0.30137 0.0
C660 C 0.96142 0.95377 0.06842 0.0
C661 C 0.93468 0.96107 0.06857 0.0
C662 C 0.97785 0.96188 0.05088 0.0
C663 C 0.98158 0.01661 0.01069 0.0
H664 H 0.04061 0.97759 0.98602 0.0
C665 C 0.04423 0.05163 0.93511 0.0
C666 C 0.07094 0.04423 0.93478 0.0
C667 C 0.02793 0.04359 0.95276 0.0
C668 C 0.02443 0.9889 0.99302 0.0
H669 H 0.90347 0.97997 0.0496 0.0
H670 H 0.93188 0.99333 0.01875 0.0
H671 H 0.01077 0.95588 0.01221 0.0
H672 H 0.10227 0.02524 0.95354 0.0
H673 H 0.07411 0.01203 0.98461 0.0
H674 H 0.99523 0.04963 0.99151 0.0
C675 C 0.94042 0.98219 0.03243 0.0
C676 C 0.00727 0.97637 0.00792 0.0
C677 C 0.9241 0.97426 0.04995 0.0
C678 C 0.08165 0.03102 0.95334 0.0
C679 C 0.06548 0.02318 0.97098 0.0
C680 C 0.99874 0.02913 0.9958 0.0
C681 C 0.96769 0.97724 0.03324 0.0
C682 C 0.98561 0.99006 0.01687 0.0
C683 C 0.03821 0.02822 0.97035 0.0
C684 C 0.02039 0.01543 0.98682 0.0
H685 H 0.97011 0.94383 0.08268 0.0
H686 H 0.9988 0.95772 0.05197 0.0
H687 H 0.96538 0.0279 0.01768 0.0
H688 H 0.03543 0.06157 0.9209 0.0
H689 H 0.00699 0.04781 0.9518 0.0
C690 C 0.42465 0.9749 0.45179 0.0
C691 C 0.43491 0.96107 0.43336 0.0
C692 C 0.44097 0.98196 0.46956 0.0
C693 C 0.51016 0.99839 0.47894 0.0
H694 H 0.48871 0.00363 0.54104 0.0
C695 C 0.57995 0.02712 0.55099 0.0
C696 C 0.56952 0.04137 0.56912 0.0
C697 C 0.56379 0.01959 0.53325 0.0
C698 C 0.49478 1.00269 0.52368 0.0
H699 H 0.46963 0.94178 0.41986 0.0
H700 H 0.49826 0.95385 0.45122 0.0
H701 H 0.46017 0.98113 0.51429 0.0
H702 H 0.5346 0.06082 0.58211 0.0
H703 H 0.50625 0.04786 0.55084 0.0
H704 H 0.54479 0.01995 0.48835 0.0
C705 C 0.47765 0.95958 0.4517 0.0
C706 C 0.47855 0.9896 0.50842 0.0
C707 C 0.46122 0.95236 0.43392 0.0
C708 C 0.54316 0.04992 0.5683 0.0
C709 C 0.52688 0.04219 0.55057 0.0
C710 C 0.52641 0.01146 0.49421 0.0
C711 C 0.46791 0.97539 0.46923 0.0
C712 C 0.48604 0.98733 0.48587 0.0
C713 C 0.53682 0.02605 0.53334 0.0
C714 C 0.51887 0.0138 0.51674 0.0
H715 H 0.40439 0.98182 0.45179 0.0
H716 H 0.43285 0.99417 0.48275 0.0
H717 H 0.51622 0.99751 0.46158 0.0
H718 H 0.60025 0.02033 0.55119 0.0
H719 H 0.57205 0.00714 0.52028 0.0
C720 C 0.19262 0.06303 0.90298 0.0
C721 C 0.16869 0.07646 0.89942 0.0
C722 C 0.21014 0.07137 0.91954 0.0
C723 C 0.22536 0.12392 0.96112 0.0
H724 H 0.24358 0.06406 0.99864 0.0
C725 C 0.28395 0.13447 0.04438 0.0
C726 C 0.27227 0.12157 0.06273 0.0
C727 C 0.27516 0.12944 0.02256 0.0
C728 C 0.23875 0.08098 0.98832 0.0
H729 H 0.14544 0.11054 0.90906 0.0
H730 H 0.17608 0.12515 0.93818 0.0
H731 H 0.22191 0.05665 0.9629 0.0
H732 H 0.24292 0.09257 0.07247 0.0
H733 H 0.22802 0.08347 0.03452 0.0
H734 H 0.24155 0.14824 0.98714 0.0
C735 C 0.18137 0.10822 0.92805 0.0
C736 C 0.22657 0.07675 0.96769 0.0
C737 C 0.16384 0.09993 0.9113 0.0
C738 C 0.2524 0.10278 0.05872 0.0
C739 C 0.24389 0.09752 0.03695 0.0
C740 C 0.2378 0.12815 0.98177 0.0
C741 C 0.20406 0.09323 0.93308 0.0
C742 C 0.21938 0.09815 0.95394 0.0
C743 C 0.25482 0.11112 0.01865 0.0
C744 C 0.24418 0.10672 0.99577 0.0
H745 H 0.19697 0.04496 0.89397 0.0
H746 H 0.22777 0.05978 0.92259 0.0
H747 H 0.22015 0.14081 0.95091 0.0
H748 H 0.29917 0.1492 0.04692 0.0
H749 H 0.2841 0.14006 0.00877 0.0
C750 C 0.62156 0.53254 0.29443 0.0
C751 C 0.63419 0.52076 0.31287 0.0
C752 C 0.62642 0.52343 0.27268 0.0
C753 C 0.6743 0.48613 0.23861 0.0
H754 H 0.61433 0.46824 0.20116 0.0
C755 C 0.65513 0.41224 0.16085 0.0
C756 C 0.67838 0.41748 0.1488 0.0
C757 C 0.64691 0.42943 0.17791 0.0
C758 C 0.63125 0.47325 0.21139 0.0
H759 H 0.66254 0.49087 0.32283 0.0
H760 H 0.67142 0.47543 0.28496 0.0
H761 H 0.60709 0.4896 0.23748 0.0
H762 H 0.70956 0.44611 0.14343 0.0
H763 H 0.69491 0.47625 0.17264 0.0
H764 H 0.69846 0.46924 0.21306 0.0
C765 C 0.65767 0.49161 0.28728 0.0
C766 C 0.62713 0.48565 0.23209 0.0
C767 C 0.65255 0.50043 0.309 0.0
C768 C 0.69166 0.44145 0.15255 0.0
C769 C 0.68341 0.4586 0.16944 0.0
C770 C 0.67841 0.47402 0.21792 0.0
C771 C 0.64433 0.50266 0.26891 0.0
C772 C 0.64862 0.49181 0.24607 0.0
C773 C 0.66177 0.45214 0.18309 0.0
C774 C 0.65696 0.46713 0.20415 0.0
H775 H 0.60714 0.5481 0.29685 0.0
H776 H 0.61602 0.53247 0.25882 0.0
H777 H 0.69125 0.49077 0.24894 0.0
H778 H 0.64463 0.39381 0.15847 0.0
H779 H 0.63013 0.42388 0.18812 0.0
C780 C 0.26019 0.89709 0.55999 0.0
C781 C 0.23641 0.88344 0.56373 0.0
C782 C 0.26987 0.90061 0.53833 0.0
C783 C 0.25253 0.90034 0.47849 0.0
H784 H 0.32767 0.88789 0.47142 0.0
C785 C 0.34288 0.9027 0.40815 0.0
C786 C 0.33804 0.92792 0.39923 0.0
C787 C 0.32668 0.8926 0.42514 0.0
C788 C 0.30658 0.89099 0.47292 0.0
H789 H 0.20354 0.86387 0.54742 0.0
H790 H 0.22043 0.8703 0.50942 0.0
H791 H 0.30704 0.88096 0.50766 0.0
H792 H 0.31091 0.96109 0.39947 0.0
H793 H 0.28278 0.94355 0.42884 0.0
H794 H 0.25226 0.91077 0.44371 0.0
C795 C 0.23156 0.87819 0.52337 0.0
C796 C 0.29481 0.88741 0.49383 0.0
C797 C 0.22187 0.87455 0.54514 0.0
C798 C 0.31524 0.94162 0.40606 0.0
C799 C 0.29901 0.9315 0.4229 0.0
C800 C 0.26437 0.90407 0.45752 0.0
C801 C 0.25604 0.89064 0.51979 0.0
C802 C 0.26779 0.89259 0.49701 0.0
C803 C 0.30524 0.90745 0.43339 0.0
C804 C 0.29165 0.89988 0.45458 0.0
H805 H 0.27188 0.90434 0.57387 0.0
H806 H 0.28848 0.91084 0.53613 0.0
H807 H 0.23166 0.90445 0.48039 0.0
H808 H 0.3603 0.89166 0.4033 0.0
H809 H 0.33174 0.87376 0.4326 0.0
C810 C 0.85446 0.59359 0.65828 0.0
C811 C 0.8295 0.58827 0.64908 0.0
C812 C 0.86471 0.57741 0.67523 0.0
C813 C 0.86613 0.55683 0.72288 0.0
H814 H 0.85394 0.4816 0.72975 0.0
C815 C 0.85899 0.50973 0.80959 0.0
C816 C 0.87287 0.4861 0.81345 0.0
C817 C 0.85586 0.51951 0.78792 0.0
C818 C 0.85771 0.50256 0.72802 0.0
H819 H 0.79699 0.56039 0.64877 0.0
H820 H 0.81478 0.53232 0.67807 0.0
H821 H 0.84789 0.50239 0.69311 0.0
H822 H 0.8933 0.45357 0.79733 0.0
H823 H 0.88755 0.47065 0.75929 0.0
H824 H 0.87554 0.55719 0.75774 0.0
C825 C 0.82653 0.54889 0.67239 0.0
C826 C 0.85412 0.5145 0.70707 0.0
C827 C 0.81626 0.56508 0.65558 0.0
C828 C 0.88242 0.47179 0.79495 0.0
C829 C 0.87918 0.48159 0.77316 0.0
C830 C 0.86957 0.54495 0.74376 0.0
C831 C 0.85026 0.55554 0.68317 0.0
C832 C 0.85782 0.5419 0.70434 0.0
C833 C 0.86647 0.50593 0.76948 0.0
C834 C 0.86483 0.51781 0.74673 0.0
H835 H 0.86512 0.61133 0.65369 0.0
H836 H 0.8833 0.58282 0.68292 0.0
H837 H 0.86884 0.57799 0.72154 0.0
H838 H 0.85123 0.52123 0.82339 0.0
H839 H 0.84541 0.538 0.78564 0.0
C840 C 0.81287 0.94163 0.09965 0.0
C841 C 0.83684 0.92832 0.10332 0.0
C842 C 0.79556 0.93331 0.08291 0.0
C843 C 0.77959 0.9281 0.03461 0.0
H844 H 0.76451 0.85666 0.01508 0.0
C845 C 0.75331 0.90227 0.94358 0.0
C846 C 0.73322 0.88369 0.93964 0.0
C847 C 0.76204 0.90739 0.96531 0.0
C848 C 0.76831 0.87673 0.02046 0.0
H849 H 0.86039 0.89446 0.09365 0.0
H850 H 0.83009 0.87985 0.06425 0.0
H851 H 0.78595 0.86401 0.05132 0.0
H852 H 0.70622 0.85624 0.95554 0.0
H853 H 0.72169 0.86513 0.99363 0.0
H854 H 0.7626 0.94085 0.00366 0.0
C855 C 0.82462 0.89669 0.07442 0.0
C856 C 0.78076 0.88092 0.04112 0.0
C857 C 0.84195 0.90497 0.09134 0.0
C858 C 0.72159 0.87083 0.95803 0.0
C859 C 0.73061 0.87571 0.97981 0.0
C860 C 0.76741 0.92391 0.01396 0.0
C861 C 0.80189 0.91157 0.06931 0.0
C862 C 0.78674 0.90667 0.04835 0.0
C863 C 0.75114 0.89385 0.98365 0.0
C864 C 0.76193 0.8982 0.0065 0.0
H865 H 0.80831 0.95961 0.10871 0.0
H866 H 0.7779 0.94483 0.07978 0.0
H867 H 0.78425 0.94818 0.03944 0.0
H868 H 0.76276 0.91244 0.92978 0.0
H869 H 0.77804 0.92132 0.96768 0.0
C870 C 0.31439 0.56558 0.84704 0.0
C871 C 0.3278 0.58863 0.85365 0.0
C872 C 0.32463 0.54935 0.83025 0.0
C873 C 0.36471 0.557 0.77999 0.0
H874 H 0.35207 0.48186 0.77306 0.0
C875 C 0.35858 0.50988 0.69324 0.0
C876 C 0.37242 0.48618 0.68957 0.0
C877 C 0.35509 0.51969 0.71486 0.0
C878 C 0.35595 0.50279 0.7748 0.0
H879 H 0.36368 0.61136 0.84926 0.0
H880 H 0.3818 0.58277 0.82005 0.0
H881 H 0.3458 0.50268 0.80964 0.0
H882 H 0.39235 0.45355 0.70598 0.0
H883 H 0.38599 0.47069 0.74391 0.0
H884 H 0.37448 0.55729 0.7452 0.0
C885 C 0.3631 0.57752 0.82764 0.0
C886 C 0.35225 0.51476 0.79572 0.0
C887 C 0.35288 0.59374 0.84457 0.0
C888 C 0.38152 0.47183 0.70821 0.0
C889 C 0.37792 0.48165 0.72994 0.0
C890 C 0.36827 0.5451 0.75914 0.0
C891 C 0.34851 0.5558 0.8196 0.0
C892 C 0.35612 0.54212 0.79847 0.0
C893 C 0.36529 0.50607 0.73343 0.0
C894 C 0.36338 0.51799 0.75615 0.0
H895 H 0.29504 0.56103 0.85377 0.0
H896 H 0.31278 0.53289 0.82449 0.0
H897 H 0.36756 0.57814 0.78135 0.0
H898 H 0.35117 0.52141 0.67932 0.0
H899 H 0.34471 0.53824 0.717 0.0
C900 C 0.78345 0.13148 0.45814 0.0
C901 C 0.76963 0.12178 0.43944 0.0
C902 C 0.77336 0.12796 0.4798 0.0
C903 C 0.75193 0.10626 0.52471 0.0
H904 H 0.67625 0.11633 0.53017 0.0
C905 C 0.68886 0.0649 0.59691 0.0
C906 C 0.66546 0.078 0.6031 0.0
C907 C 0.70511 0.07507 0.58011 0.0
C908 C 0.69747 0.11391 0.52911 0.0
H909 H 0.73513 0.0995 0.42904 0.0
H910 H 0.71788 0.09318 0.46659 0.0
H911 H 0.6976 0.12301 0.49419 0.0
H912 H 0.64202 0.11328 0.59786 0.0
H913 H 0.67062 0.13129 0.5686 0.0
H914 H 0.75163 0.09677 0.55969 0.0
C915 C 0.73619 0.10397 0.46455 0.0
C916 C 0.70966 0.11733 0.50835 0.0
C917 C 0.74625 0.10739 0.443 0.0
C918 C 0.65993 0.10274 0.59352 0.0
C919 C 0.67616 0.11289 0.57656 0.0
C920 C 0.73967 0.10268 0.54553 0.0
C921 C 0.74922 0.1148 0.48317 0.0
C922 C 0.73693 0.11301 0.50576 0.0
C923 C 0.69831 0.09857 0.56899 0.0
C924 C 0.71219 0.10601 0.54789 0.0
H925 H 0.80145 0.14276 0.45599 0.0
H926 H 0.78389 0.13651 0.49381 0.0
H927 H 0.77298 0.10282 0.52328 0.0
H928 H 0.69372 0.04581 0.60401 0.0
H929 H 0.7219 0.06344 0.57471 0.0
C930 C 0.19156 0.44224 0.35066 0.0
C931 C 0.17823 0.41831 0.35447 0.0
C932 C 0.1832 0.45947 0.33386 0.0
C933 C 0.17793 0.47495 0.28545 0.0
H934 H 0.10653 0.49039 0.26605 0.0
C935 C 0.15197 0.50092 0.19437 0.0
C936 C 0.13358 0.5212 0.19042 0.0
C937 C 0.15706 0.49219 0.21612 0.0
C938 C 0.12659 0.48648 0.27139 0.0
H939 H 0.14431 0.39478 0.34502 0.0
H940 H 0.12964 0.42494 0.31552 0.0
H941 H 0.1139 0.46917 0.3024 0.0
H942 H 0.10641 0.54852 0.20631 0.0
H943 H 0.11525 0.53308 0.24441 0.0
H944 H 0.19065 0.4916 0.25436 0.0
C945 C 0.14652 0.43044 0.32562 0.0
C946 C 0.13078 0.47416 0.29211 0.0
C947 C 0.15483 0.41319 0.3426 0.0
C948 C 0.12085 0.533 0.2088 0.0
C949 C 0.1257 0.524 0.23059 0.0
C950 C 0.17373 0.48699 0.26474 0.0
C951 C 0.16142 0.45309 0.32035 0.0
C952 C 0.15652 0.46808 0.2993 0.0
C953 C 0.14367 0.50331 0.23445 0.0
C954 C 0.14803 0.49261 0.25733 0.0
H955 H 0.20957 0.4468 0.35964 0.0
H956 H 0.19474 0.47707 0.3306 0.0
H957 H 0.198 0.47019 0.29025 0.0
H958 H 0.16203 0.49132 0.18059 0.0
H959 H 0.17085 0.47607 0.2185 0.0
C960 C 0.74555 0.60701 0.55986 0.0
C961 C 0.76919 0.62095 0.56342 0.0
C962 C 0.73547 0.60376 0.53831 0.0
C963 C 0.75157 0.60596 0.47813 0.0
H964 H 0.676 0.61658 0.47247 0.0
C965 C 0.65991 0.60335 0.40904 0.0
C966 C 0.66544 0.57867 0.39935 0.0
C967 C 0.67609 0.61333 0.42609 0.0
C968 C 0.69719 0.61401 0.47358 0.0
H969 H 0.8014 0.64135 0.54688 0.0
H970 H 0.78379 0.63547 0.50908 0.0
H971 H 0.69719 0.62294 0.50854 0.0
H972 H 0.69365 0.54644 0.39831 0.0
H973 H 0.72172 0.56377 0.42777 0.0
H974 H 0.75142 0.59672 0.44312 0.0
C975 C 0.77309 0.62709 0.52307 0.0
C976 C 0.70929 0.61724 0.4944 0.0
C977 C 0.7832 0.63042 0.54473 0.0
C978 C 0.6888 0.56549 0.40549 0.0
C979 C 0.70499 0.57549 0.4224 0.0
C980 C 0.73941 0.60261 0.45726 0.0
C981 C 0.74872 0.61434 0.51969 0.0
C982 C 0.73652 0.6127 0.49706 0.0
C983 C 0.69817 0.59891 0.43364 0.0
C984 C 0.71197 0.60614 0.45482 0.0
H985 H 0.73428 0.59931 0.57382 0.0
H986 H 0.71698 0.59328 0.53625 0.0
H987 H 0.77258 0.60236 0.47961 0.0
H988 H 0.64203 0.61395 0.40473 0.0
H989 H 0.67055 0.63169 0.43413 0.0
C990 C 0.12479 0.03273 0.79579 0.0
C991 C 0.13362 0.01814 0.81438 0.0
C992 C 0.12819 0.02291 0.77403 0.0
C993 C 0.14976 1.00169 0.72909 0.0
H994 H 0.13751 0.92648 0.72223 0.0
C995 C 0.1908 0.93914 0.65649 0.0
C996 C 0.17733 0.91615 0.64984 0.0
C997 C 0.18066 0.95532 0.67336 0.0
C998 C 0.14054 0.94759 0.72367 0.0
H999 H 0.15418 0.98246 0.82454 0.0
H1000 H 0.16034 0.96567 0.78682 0.0
H1001 H 0.13071 0.9472 0.75845 0.0
H1002 H 0.14142 0.89347 0.65426 0.0
H1003 H 0.12345 0.92198 0.68358 0.0
H1004 H 0.15992 1.00192 0.69425 0.0
C1005 C 0.1503 0.9844 0.789 0.0
C1006 C 0.13705 0.95941 0.74457 0.0
C1007 C 0.14697 0.99418 0.81065 0.0
C1008 C 0.15227 0.91105 0.65897 0.0
C1009 C 0.14214 0.92722 0.67597 0.0
C1010 C 0.15337 0.98981 0.70812 0.0
C1011 C 0.14038 0.99828 0.77046 0.0
C1012 C 0.14218 0.98647 0.74768 0.0
C1013 C 0.15679 0.94887 0.68406 0.0
C1014 C 0.14928 0.9625 0.70525 0.0
H1015 H 0.11432 0.0512 0.79807 0.0
H1016 H 0.12034 0.0341 0.76009 0.0
H1017 H 0.15383 0.02258 0.73091 0.0
H1018 H 0.21014 0.94367 0.64974 0.0
H1019 H 0.19257 0.97171 0.67915 0.0
C1020 C 0.72266 0.37082 0.044 0.0
C1021 C 0.7343 0.38385 0.0623 0.0
C1022 C 0.73183 0.37533 0.0222 0.0
C1023 C 0.76997 0.37552 0.98173 0.0
H1024 H 0.78543 0.44668 0.96171 0.0
C1025 C 0.84361 0.40335 0.91058 0.0
C1026 C 0.83806 0.42629 0.89819 0.0
C1027 C 0.82636 0.3951 0.92759 0.0
C1028 C 0.78092 0.42667 0.96685 0.0
H1029 H 0.76401 0.41249 0.07196 0.0
H1030 H 0.7795 0.42079 0.034 0.0
H1031 H 0.76382 0.43992 0.99762 0.0
H1032 H 0.80885 0.45676 0.89212 0.0
H1033 H 0.77862 0.44204 0.92123 0.0
H1034 H 0.78778 0.3623 0.95108 0.0
C1035 C 0.76341 0.407 0.03647 0.0
C1036 C 0.76876 0.42282 0.98756 0.0
C1037 C 0.75455 0.40222 0.05824 0.0
C1038 C 0.81373 0.4391 0.90149 0.0
C1039 C 0.79653 0.43083 0.91834 0.0
C1040 C 0.78244 0.37937 0.96103 0.0
C1041 C 0.7525 0.39327 0.01824 0.0
C1042 C 0.7634 0.39722 0.99538 0.0
C1043 C 0.80329 0.40961 0.93237 0.0
C1044 C 0.78822 0.40501 0.95342 0.0
H1045 H 0.70718 0.35638 0.04659 0.0
H1046 H 0.72292 0.36462 0.00846 0.0
H1047 H 0.76627 0.35554 0.98741 0.0
H1048 H 0.86233 0.39324 0.90857 0.0
H1049 H 0.83214 0.37865 0.9381 0.0
C1050 C 0.31737 0.06734 0.15502 0.0
C1051 C 0.33012 0.09103 0.14916 0.0
C1052 C 0.32751 0.05118 0.1719 0.0
C1053 C 0.36528 0.05929 0.22344 0.0
H1054 H 0.35443 0.98373 0.22914 0.0
C1055 C 0.35779 0.01057 0.30954 0.0
C1056 C 0.37178 0.98694 0.31314 0.0
C1057 C 0.35472 0.02072 0.28798 0.0
C1058 C 0.35782 0.00479 0.22776 0.0
H1059 H 0.36483 0.11508 0.15496 0.0
H1060 H 0.38284 0.08658 0.18429 0.0
H1061 H 0.34909 0.00499 0.19266 0.0
H1062 H 0.39244 0.95481 0.29668 0.0
H1063 H 0.3869 0.97256 0.25888 0.0
H1064 H 0.37375 0.05924 0.25847 0.0
C1065 C 0.3647 0.08076 0.17607 0.0
C1066 C 0.35463 0.01701 0.20689 0.0
C1067 C 0.35457 0.09693 0.15906 0.0
C1068 C 0.38146 0.97301 0.29449 0.0
C1069 C 0.37834 0.98319 0.27283 0.0
C1070 C 0.36838 0.04713 0.24424 0.0
C1071 C 0.35063 0.05833 0.18338 0.0
C1072 C 0.35783 0.04451 0.20456 0.0
C1073 C 0.36555 0.00755 0.26941 0.0
C1074 C 0.36411 0.01984 0.24679 0.0
H1075 H 0.29851 0.06219 0.14766 0.0
H1076 H 0.31605 0.03417 0.17707 0.0
H1077 H 0.3676 0.08053 0.22241 0.0
H1078 H 0.34993 0.02178 0.32347 0.0
H1079 H 0.34418 0.03918 0.2859 0.0
C1080 C 0.34468 0.40186 0.59462 0.0
C1081 C 0.33964 0.42696 0.60371 0.0
C1082 C 0.32839 0.3917 0.57773 0.0
C1083 C 0.2656 0.40284 0.54592 0.0
H1084 H 0.30795 0.3805 0.49531 0.0
C1085 C 0.26063 0.39708 0.44343 0.0
C1086 C 0.23683 0.38347 0.43971 0.0
C1087 C 0.27047 0.40033 0.46506 0.0
C1088 C 0.29582 0.38674 0.50927 0.0
H1089 H 0.31213 0.45982 0.60389 0.0
H1090 H 0.28387 0.44217 0.57469 0.0
H1091 H 0.32888 0.38722 0.53144 0.0
H1092 H 0.20409 0.36366 0.45604 0.0
H1093 H 0.2213 0.36959 0.494 0.0
H1094 H 0.23269 0.40327 0.52328 0.0
C1095 C 0.30031 0.43026 0.58041 0.0
C1096 C 0.30775 0.39018 0.53012 0.0
C1097 C 0.31661 0.44045 0.59716 0.0
C1098 C 0.22244 0.37433 0.45831 0.0
C1099 C 0.23231 0.37767 0.48006 0.0
C1100 C 0.2536 0.39926 0.525 0.0
C1101 C 0.30668 0.40636 0.56974 0.0
C1102 C 0.29294 0.39882 0.54863 0.0
C1103 C 0.2568 0.3901 0.48359 0.0
C1104 C 0.26873 0.3918 0.50632 0.0
H1105 H 0.36229 0.391 0.59926 0.0
H1106 H 0.33357 0.37298 0.57012 0.0
H1107 H 0.25357 0.40933 0.55986 0.0
H1108 H 0.27219 0.40452 0.42955 0.0
H1109 H 0.28908 0.41055 0.46723 0.0
C1110 C 0.85762 0.01113 0.19226 0.0
C1111 C 0.87122 0.9873 0.18859 0.0
C1112 C 0.85449 0.02115 0.21386 0.0
C1113 C 0.85669 0.00458 0.27401 0.0
H1114 H 0.86743 0.08012 0.28 0.0
C1115 C 0.85423 0.09596 0.3435 0.0
C1116 C 0.82967 0.09026 0.3533 0.0
C1117 C 0.86421 0.07988 0.32636 0.0
C1118 C 0.86483 0.05893 0.2788 0.0
H1119 H 0.89119 0.9547 0.205 0.0
H1120 H 0.88558 0.97221 0.24287 0.0
H1121 H 0.87363 0.05913 0.24382 0.0
H1122 H 0.79766 0.06184 0.35444 0.0
H1123 H 0.81495 0.03396 0.32481 0.0
H1124 H 0.84765 0.00452 0.30906 0.0
C1125 C 0.87734 0.98312 0.22893 0.0
C1126 C 0.86796 0.04694 0.25792 0.0
C1127 C 0.88051 0.97306 0.20722 0.0
C1128 C 0.81663 0.06682 0.34717 0.0
C1129 C 0.82661 0.05074 0.33017 0.0
C1130 C 0.85347 0.01662 0.29496 0.0
C1131 C 0.8649 0.00765 0.23243 0.0
C1132 C 0.86337 0.01974 0.25513 0.0
C1133 C 0.84988 0.05773 0.3188 0.0
C1134 C 0.85703 0.04405 0.29753 0.0
H1135 H 0.85007 0.02258 0.17835 0.0
H1136 H 0.84423 0.03977 0.21599 0.0
H1137 H 0.85305 0.98358 0.27246 0.0
H1138 H 0.86472 0.11391 0.34779 0.0
H1139 H 0.88246 0.08555 0.31823 0.0
C1140 C 0.18934 0.56456 0.09754 0.0
C1141 C 0.16625 0.57804 0.10396 0.0
C1142 C 0.20572 0.57471 0.08082 0.0
C1143 C 0.19836 0.61446 0.03038 0.0
H1144 H 0.27348 0.60156 0.0237 0.0
C1145 C 0.28357 0.63051 0.95859 0.0
C1146 C 0.26924 0.62119 0.94003 0.0
C1147 C 0.27376 0.62709 0.98035 0.0
C1148 C 0.25255 0.60551 0.02537 0.0
H1149 H 0.14359 0.61396 0.09935 0.0
H1150 H 0.17243 0.63191 0.07026 0.0
H1151 H 0.25251 0.59567 0.06028 0.0
H1152 H 0.23413 0.59968 0.92994 0.0
H1153 H 0.21735 0.59353 0.96766 0.0
H1154 H 0.19822 0.6239 0.99552 0.0
C1155 C 0.1776 0.61323 0.07794 0.0
C1156 C 0.24051 0.60203 0.04629 0.0
C1157 C 0.16123 0.6031 0.0948 0.0
C1158 C 0.24564 0.60727 0.9438 0.0
C1159 C 0.23586 0.60395 0.96544 0.0
C1160 C 0.21034 0.6178 0.00953 0.0
C1161 C 0.19936 0.59856 0.07006 0.0
C1162 C 0.21315 0.606 0.04894 0.0
C1163 C 0.24941 0.61442 0.98393 0.0
C1164 C 0.23744 0.61279 0.00664 0.0
H1165 H 0.19382 0.54523 0.10434 0.0
H1166 H 0.2222 0.5628 0.07518 0.0
H1167 H 0.17722 0.61738 0.03166 0.0
H1168 H 0.30177 0.64141 0.95628 0.0
H1169 H 0.28468 0.63534 0.99427 0.0
C1170 C 0.65228 0.99965 0.69357 0.0
C1171 C 0.63371 0.01975 0.68958 0.0
C1172 C 0.65696 0.99057 0.71529 0.0
C1173 C 0.67228 0.98487 0.76433 0.0
H1174 H 0.61156 0.96481 0.80014 0.0
C1175 C 0.68785 0.94019 0.85059 0.0
C1176 C 0.67554 0.91557 0.85371 0.0
C1177 C 0.67955 0.9572 0.83363 0.0
C1178 C 0.62867 0.97044 0.79037 0.0
H1179 H 0.60581 0.04642 0.70538 0.0
H1180 H 0.61388 0.0303 0.74339 0.0
H1181 H 0.60499 0.9865 0.76386 0.0
H1182 H 0.64332 0.89056 0.84284 0.0
H1183 H 0.62865 0.92045 0.8131 0.0
H1184 H 0.696 0.96837 0.79036 0.0
C1185 C 0.62481 0.02166 0.72964 0.0
C1186 C 0.62494 0.98301 0.7697 0.0
C1187 C 0.62041 0.03105 0.7079 0.0
C1188 C 0.65302 0.9095 0.84097 0.0
C1189 C 0.64473 0.92658 0.82385 0.0
C1190 C 0.67601 0.97263 0.78502 0.0
C1191 C 0.64292 1.00111 0.73352 0.0
C1192 C 0.64673 0.98997 0.75631 0.0
C1193 C 0.6588 0.94998 0.8193 0.0
C1194 C 0.65428 0.96499 0.79821 0.0
H1195 H 0.66276 0.99044 0.67982 0.0
H1196 H 0.6709 0.97458 0.71772 0.0
H1197 H 0.68944 0.9901 0.75446 0.0
H1198 H 0.70517 0.94547 0.86024 0.0
H1199 H 0.6904 0.97536 0.83089 0.0
C1200 C 0.40884 0.21373 0.12688 0.0
C1201 C 0.39862 0.2092 0.1053 0.0
C1202 C 0.43359 0.22587 0.1297 0.0
C1203 C 0.47862 0.27089 0.1002 0.0
H1204 H 0.53439 0.24335 0.13801 0.0
C1205 C 0.58635 0.30089 0.08716 0.0
C1206 C 0.60333 0.30392 0.10557 0.0
C1207 C 0.56075 0.29127 0.08993 0.0
C1208 C 0.51887 0.25159 0.12768 0.0
H1209 H 0.40751 0.21235 0.06987 0.0
H1210 H 0.44991 0.23377 0.07481 0.0
H1211 H 0.49089 0.22203 0.13798 0.0
H1212 H 0.60637 0.29953 0.14152 0.0
H1213 H 0.5612 0.28289 0.14647 0.0
H1214 H 0.50626 0.30028 0.08972 0.0
C1215 C 0.43865 0.22845 0.08954 0.0
C1216 C 0.49399 0.23932 0.12764 0.0
C1217 C 0.41421 0.21619 0.08673 0.0
C1218 C 0.59375 0.29758 0.12701 0.0
C1219 C 0.56798 0.28779 0.1298 0.0
C1220 C 0.50328 0.28321 0.10035 0.0
C1221 C 0.44845 0.23389 0.11101 0.0
C1222 C 0.47385 0.24843 0.11339 0.0
C1223 C 0.55119 0.28444 0.11124 0.0
C1224 C 0.52401 0.27329 0.11357 0.0
H1225 H 0.39741 0.20868 0.14156 0.0
H1226 H 0.44071 0.22977 0.14646 0.0
H1227 H 0.46332 0.27872 0.0894 0.0
H1228 H 0.59288 0.30589 0.07045 0.0
H1229 H 0.54863 0.28863 0.07518 0.0
C1230 C 0.54215 0.66548 0.33588 0.0
C1231 C 0.5485 0.64965 0.35447 0.0
C1232 C 0.52975 0.68989 0.33859 0.0
C1233 C 0.51726 0.74488 0.37674 0.0
H1234 H 0.45716 0.7569 0.33784 0.0
C1235 C 0.45788 0.84412 0.37594 0.0
C1236 C 0.45149 0.85376 0.35453 0.0
C1237 C 0.46806 0.81846 0.37864 0.0
C1238 C 0.474 0.75402 0.34874 0.0
H1239 H 0.54776 0.64805 0.39072 0.0
H1240 H 0.52644 0.69131 0.39545 0.0
H1241 H 0.4792 0.71419 0.3376 0.0
H1242 H 0.44993 0.84349 0.31936 0.0
H1243 H 0.46795 0.79952 0.32391 0.0
H1244 H 0.51255 0.78516 0.3873 0.0
C1245 C 0.53094 0.68439 0.37874 0.0
C1246 C 0.48659 0.72947 0.34863 0.0
C1247 C 0.54322 0.65965 0.37601 0.0
C1248 C 0.45494 0.83695 0.33605 0.0
C1249 C 0.465 0.81147 0.33872 0.0
C1250 C 0.50474 0.76967 0.37672 0.0
C1251 C 0.52353 0.69946 0.35998 0.0
C1252 C 0.50874 0.72477 0.36222 0.0
C1253 C 0.47183 0.80183 0.36001 0.0
C1254 C 0.48333 0.77475 0.36228 0.0
H1255 H 0.54657 0.65897 0.31906 0.0
H1256 H 0.52489 0.70131 0.32382 0.0
H1257 H 0.5343 0.74183 0.38738 0.0
H1258 H 0.45563 0.85659 0.39052 0.0
H1259 H 0.47294 0.81165 0.39531 0.0
C1260 C 0.91022 0.71071 0.62543 0.0
C1261 C 0.90026 0.70537 0.60389 0.0
C1262 C 0.9349 0.72305 0.62815 0.0
C1263 C 0.98014 0.76728 0.59796 0.0
H1264 H 0.03539 0.74159 0.63721 0.0
C1265 C 0.08772 0.7989 0.58612 0.0
C1266 C 0.10431 0.80244 0.60473 0.0
C1267 C 0.06223 0.78886 0.58862 0.0
C1268 C 0.02002 0.74933 0.62646 0.0
H1269 H 0.90958 0.70734 0.56848 0.0
H1270 H 0.95182 0.72913 0.57323 0.0
H1271 H 0.9921 0.71987 0.6371 0.0
H1272 H 0.10669 0.7985 0.64076 0.0
H1273 H 0.06172 0.78123 0.64523 0.0
H1274 H 0.00766 0.79662 0.5872 0.0
C1275 C 0.94041 0.72426 0.588 0.0
C1276 C 0.99525 0.73682 0.62637 0.0
C1277 C 0.91606 0.71179 0.58529 0.0
C1278 C 0.09441 0.79617 0.62608 0.0
C1279 C 0.06873 0.78601 0.62861 0.0
C1280 C 0.00468 0.77985 0.59817 0.0
C1281 C 0.94996 0.73049 0.6094 0.0
C1282 C 0.97529 0.74524 0.61165 0.0
C1283 C 0.05234 0.78213 0.60985 0.0
C1284 C 0.02525 0.77063 0.61194 0.0
H1285 H 0.89866 0.70613 0.64014 0.0
H1286 H 0.94179 0.72756 0.64487 0.0
H1287 H 0.96497 0.77461 0.58678 0.0
H1288 H 0.09446 0.80382 0.56946 0.0
H1289 H 0.05047 0.78583 0.57372 0.0
C1290 C 0.96206 0.34557 0.87675 0.0
C1291 C 0.95723 0.35581 0.85522 0.0
C1292 C 0.97437 0.32085 0.87946 0.0
C1293 C 0.01932 0.27598 0.84954 0.0
H1294 H 0.99288 0.22021 0.88792 0.0
C1295 C 0.05116 0.16847 0.83717 0.0
C1296 C 0.05439 0.15166 0.85569 0.0
C1297 C 0.04107 0.19395 0.83976 0.0
C1298 C 1.00082 0.23572 0.87742 0.0
H1299 H 0.96007 0.34697 0.81977 0.0
H1300 H 0.98177 0.30465 0.82449 0.0
H1301 H 0.97113 0.26353 0.88787 0.0
H1302 H 0.04982 0.14884 0.89164 0.0
H1303 H 0.03244 0.19378 0.89627 0.0
H1304 H 0.04888 0.24856 0.83896 0.0
C1305 C 0.97654 0.31586 0.83928 0.0
C1306 C 0.9883 0.26051 0.87737 0.0
C1307 C 0.96411 0.34026 0.83659 0.0
C1308 C 0.04774 0.16131 0.87704 0.0
C1309 C 0.03752 0.18697 0.87965 0.0
C1310 C 0.0319 0.25142 0.84971 0.0
C1311 C 0.98227 0.30603 0.86069 0.0
C1312 C 0.99701 0.28067 0.86296 0.0
C1313 C 0.03397 0.20359 0.86099 0.0
C1314 C 0.02241 0.23067 0.86316 0.0
H1315 H 0.95711 0.35695 0.89149 0.0
H1316 H 0.97849 0.31373 0.89618 0.0
H1317 H 0.02687 0.29129 0.83861 0.0
H1318 H 0.05637 0.16192 0.82052 0.0
H1319 H 0.0383 0.20591 0.82492 0.0
C1320 C 0.58848 0.79564 0.91601 0.0
C1321 C 0.60478 0.7999 0.89731 0.0
C1322 C 0.56289 0.78585 0.91351 0.0
C1323 C 0.51979 0.74815 0.87519 0.0
H1324 H 0.46554 0.77273 0.91599 0.0
C1325 C 0.40961 0.71054 0.87673 0.0
C1326 C 0.39993 0.70478 0.89829 0.0
C1327 C 0.4344 0.72265 0.87394 0.0
C1328 C 0.48047 0.7656 0.90449 0.0
H1329 H 0.60659 0.79746 0.86117 0.0
H1330 H 0.56144 0.78058 0.85672 0.0
H1331 H 0.50843 0.79433 0.9156 0.0
H1332 H 0.40982 0.70566 0.93361 0.0
H1333 H 0.45228 0.72702 0.92876 0.0
H1334 H 0.49145 0.71927 0.86422 0.0
C1335 C 0.56875 0.78463 0.87339 0.0
C1336 C 0.50513 0.77794 0.90429 0.0
C1337 C 0.59452 0.79455 0.87591 0.0
C1338 C 0.41611 0.71047 0.91681 0.0
C1339 C 0.44057 0.72269 0.91404 0.0
C1340 C 0.49491 0.73587 0.87527 0.0
C1341 C 0.55263 0.7801 0.89221 0.0
C1342 C 0.52541 0.76894 0.89012 0.0
C1343 C 0.44984 0.72941 0.89265 0.0
C1344 C 0.47524 0.74402 0.89039 0.0
H1345 H 0.59549 0.79984 0.93272 0.0
H1346 H 0.55133 0.78229 0.92845 0.0
H1347 H 0.53495 0.74062 0.8641 0.0
H1348 H 0.39773 0.70651 0.86209 0.0
H1349 H 0.44107 0.72755 0.85724 0.0
C1350 C 0.45948 0.344 0.62697 0.0
C1351 C 0.45335 0.3538 0.64839 0.0
C1352 C 0.46953 0.31829 0.62429 0.0
C1353 C 0.47536 0.25398 0.65436 0.0
H1354 H 0.53516 0.24118 0.61527 0.0
C1355 C 0.54255 0.1646 0.66671 0.0
C1356 C 0.54875 0.14884 0.64804 0.0
C1357 C 0.53038 0.18914 0.66411 0.0
C1358 C 0.51826 0.24439 0.62604 0.0
H1359 H 0.45216 0.34375 0.68363 0.0
H1360 H 0.46996 0.29967 0.6791 0.0
H1361 H 0.51379 0.28469 0.61544 0.0
H1362 H 0.54802 0.14746 0.61179 0.0
H1363 H 0.52708 0.19094 0.60725 0.0
H1364 H 0.48029 0.21411 0.6655 0.0
C1365 C 0.4669 0.31156 0.66427 0.0
C1366 C 0.50595 0.26929 0.62611 0.0
C1367 C 0.45697 0.33709 0.66692 0.0
C1368 C 0.54358 0.15901 0.62654 0.0
C1369 C 0.53152 0.18388 0.62393 0.0
C1370 C 0.48772 0.22931 0.6544 0.0
C1371 C 0.47343 0.30176 0.64296 0.0
C1372 C 0.48473 0.27458 0.6407 0.0
C1373 C 0.52424 0.1989 0.64276 0.0
C1374 C 0.50969 0.22438 0.64065 0.0
H1375 H 0.4571 0.35638 0.61235 0.0
H1376 H 0.47418 0.31135 0.60762 0.0
H1377 H 0.45864 0.25703 0.66537 0.0
H1378 H 0.5469 0.15793 0.68349 0.0
H1379 H 0.52564 0.20051 0.67894 0.0
C1380 C 0.08711 0.30029 0.41705 0.0
C1381 C 0.10375 0.30386 0.39846 0.0
C1382 C 0.06162 0.29026 0.4145 0.0
C1383 C 0.01947 0.25085 0.37657 0.0
H1384 H 0.96429 0.27636 0.41605 0.0
C1385 C 0.90955 0.2126 0.37722 0.0
C1386 C 0.89938 0.20743 0.39872 0.0
C1387 C 0.93431 0.22482 0.37459 0.0
C1388 C 0.97949 0.26896 0.40493 0.0
H1389 H 0.10624 0.29997 0.36244 0.0
H1390 H 0.06127 0.28273 0.35787 0.0
H1391 H 0.00706 0.29821 0.41576 0.0
H1392 H 0.90839 0.20954 0.43418 0.0
H1393 H 0.95079 0.23108 0.42958 0.0
H1394 H 0.99151 0.22147 0.36585 0.0
C1395 C 0.06824 0.28747 0.37451 0.0
C1396 C 0.00408 0.28145 0.40479 0.0
C1397 C 0.09391 0.29762 0.37709 0.0
C1398 C 0.91504 0.21387 0.41738 0.0
C1399 C 0.93948 0.2262 0.41477 0.0
C1400 C 0.99466 0.23842 0.37658 0.0
C1401 C 0.05179 0.28359 0.39324 0.0
C1402 C 0.02468 0.27215 0.39109 0.0
C1403 C 0.94924 0.23228 0.3934 0.0
C1404 C 0.97464 0.24693 0.39123 0.0
H1405 H 0.0938 0.30518 0.43372 0.0
H1406 H 0.0498 0.28722 0.42937 0.0
H1407 H 0.03487 0.24306 0.36586 0.0
H1408 H 0.89808 0.208 0.36246 0.0
H1409 H 0.94136 0.22922 0.35789 0.0
C1410 C 0.04617 0.66142 0.12603 0.0
C1411 C 0.05219 0.65162 0.14747 0.0
C1412 C 0.03608 0.68712 0.12334 0.0
C1413 C 0.02954 0.75134 0.15357 0.0
H1414 H 0.96974 0.76362 0.11439 0.0
C1415 C 0.96055 0.8393 0.16636 0.0
C1416 C 0.95436 0.85528 0.14781 0.0
C1417 C 0.97322 0.81504 0.16361 0.0
C1418 C 0.98664 0.76055 0.12518 0.0
H1419 H 0.05326 0.66166 0.1827 0.0
H1420 H 0.0354 0.7057 0.17817 0.0
H1421 H 0.9917 0.7204 0.11438 0.0
H1422 H 0.95574 0.85727 0.11159 0.0
H1423 H 0.97748 0.81427 0.10678 0.0
H1424 H 0.02395 0.79103 0.16495 0.0
C1425 C 0.03856 0.69384 0.16333 0.0
C1426 C 0.99929 0.73582 0.12515 0.0
C1427 C 0.04852 0.66833 0.16599 0.0
C1428 C 0.96012 0.84557 0.12626 0.0
C1429 C 0.97265 0.82097 0.12349 0.0
C1430 C 0.01681 0.77583 0.15372 0.0
C1431 C 0.03204 0.70363 0.14202 0.0
C1432 C 0.0205 0.73071 0.13978 0.0
C1433 C 0.97986 0.80575 0.14221 0.0
C1434 C 0.99484 0.78055 0.13995 0.0
H1435 H 0.04862 0.64903 0.11143 0.0
H1436 H 0.03146 0.69405 0.10667 0.0
H1437 H 0.04623 0.74844 0.16461 0.0
H1438 H 0.95579 0.84558 0.18317 0.0
H1439 H 0.97793 0.80349 0.17834 0.0
C1440 C 0.21455 0.21447 0.11502 0.0
C1441 C 0.24183 0.21355 0.1106 0.0
C1442 C 0.20101 0.2386 0.11475 0.0
C1443 C 0.21292 0.30907 0.12355 0.0
H1444 H 0.14647 0.32043 0.09279 0.0
C1445 C 0.15772 0.40857 0.1286 0.0
C1446 C 0.15118 0.4192 0.10763 0.0
C1447 C 0.16541 0.38209 0.13049 0.0
C1448 C 0.16496 0.31747 0.10155 0.0
H1449 H 0.27602 0.23714 0.10157 0.0
H1450 H 0.25244 0.27903 0.10121 0.0
H1451 H 0.16714 0.27664 0.09202 0.0
H1452 H 0.14593 0.41021 0.0725 0.0
H1453 H 0.15925 0.36406 0.07576 0.0
H1454 H 0.21109 0.34987 0.13278 0.0
C1455 C 0.2416 0.26116 0.10507 0.0
C1456 C 0.17669 0.29243 0.10119 0.0
C1457 C 0.25504 0.2371 0.1051 0.0
C1458 C 0.15122 0.40259 0.08881 0.0
C1459 C 0.15857 0.37611 0.09072 0.0
C1460 C 0.20107 0.33396 0.12413 0.0
C1461 C 0.21459 0.26224 0.11031 0.0
C1462 C 0.20105 0.28815 0.11183 0.0
C1463 C 0.1663 0.36572 0.11149 0.0
C1464 C 0.17719 0.33855 0.11283 0.0
H1465 H 0.2038 0.19667 0.11932 0.0
H1466 H 0.18017 0.23891 0.11884 0.0
H1467 H 0.23154 0.30622 0.13214 0.0
H1468 H 0.15791 0.42098 0.14335 0.0
H1469 H 0.1711 0.37453 0.14674 0.0
C1470 C 0.34727 0.40863 0.37411 0.0
C1471 C 0.3356 0.4014 0.35371 0.0
C1472 C 0.37369 0.4168 0.37478 0.0
C1473 C 0.42439 0.44527 0.33743 0.0
H1474 H 0.47153 0.43221 0.38727 0.0
C1475 C 0.519 0.50589 0.35116 0.0
C1476 C 0.54153 0.49302 0.35952 0.0
C1477 C 0.49495 0.49256 0.34956 0.0
C1478 C 0.45872 0.43577 0.37309 0.0
H1479 H 0.3428 0.39506 0.31842 0.0
H1480 H 0.38887 0.40866 0.3196 0.0
H1481 H 0.42794 0.41155 0.38671 0.0
H1482 H 0.55663 0.45578 0.37217 0.0
H1483 H 0.51464 0.43234 0.36901 0.0
H1484 H 0.45512 0.46919 0.32365 0.0
C1485 C 0.37754 0.40897 0.33497 0.0
C1486 C 0.43361 0.42419 0.37291 0.0
C1487 C 0.35117 0.40109 0.33428 0.0
C1488 C 0.53963 0.46627 0.36566 0.0
C1489 C 0.51552 0.4529 0.36404 0.0
C1490 C 0.44943 0.45675 0.33758 0.0
C1491 C 0.38895 0.41764 0.35509 0.0
C1492 C 0.41608 0.42894 0.35512 0.0
C1493 C 0.49283 0.46599 0.35622 0.0
C1494 C 0.46682 0.45238 0.3555 0.0
H1495 H 0.33563 0.40914 0.38929 0.0
H1496 H 0.38179 0.42351 0.39055 0.0
H1497 H 0.4113 0.44971 0.3236 0.0
H1498 H 0.51972 0.52652 0.34639 0.0
H1499 H 0.47782 0.50336 0.34374 0.0
C1500 C 0.28835 0.78882 0.6167 0.0
C1501 C 0.2616 0.79089 0.6106 0.0
C1502 C 0.30158 0.76463 0.61505 0.0
C1503 C 0.3186 0.70777 0.62397 0.0
H1504 H 0.30457 0.66052 0.57438 0.0
C1505 C 0.34662 0.59646 0.62438 0.0
C1506 C 0.35396 0.58502 0.60391 0.0
C1507 C 0.33811 0.62279 0.62521 0.0
C1508 C 0.30902 0.67355 0.58824 0.0
H1509 H 0.22797 0.76929 0.59753 0.0
H1510 H 0.25091 0.72721 0.59484 0.0
H1511 H 0.28494 0.7043 0.57466 0.0
H1512 H 0.36011 0.59254 0.56864 0.0
H1513 H 0.34588 0.63844 0.57009 0.0
H1514 H 0.34301 0.677 0.63738 0.0
C1515 C 0.26181 0.74429 0.60065 0.0
C1516 C 0.29745 0.69858 0.58852 0.0
C1517 C 0.2486 0.76843 0.60227 0.0
C1518 C 0.35399 0.60072 0.58455 0.0
C1519 C 0.34576 0.62699 0.5854 0.0
C1520 C 0.33026 0.68269 0.62366 0.0
C1521 C 0.28837 0.742 0.60725 0.0
C1522 C 0.3019 0.71592 0.60647 0.0
C1523 C 0.33702 0.63817 0.6056 0.0
C1524 C 0.3255 0.66523 0.60582 0.0
H1525 H 0.29895 0.80576 0.62317 0.0
H1526 H 0.32214 0.76363 0.61997 0.0
H1527 H 0.32222 0.72055 0.63817 0.0
H1528 H 0.34632 0.58471 0.63951 0.0
H1529 H 0.33136 0.63071 0.64104 0.0
C1530 C 0.98718 0.49821 0.85742 0.0
C1531 C 0.96383 0.51177 0.86294 0.0
C1532 C 0.01138 0.51136 0.85719 0.0
C1533 C 0.04283 0.57619 0.85255 0.0
H1534 H 0.10101 0.54165 0.88307 0.0
C1535 C 0.15249 0.6025 0.83873 0.0
C1536 C 0.16939 0.60268 0.85736 0.0
C1537 C 0.12618 0.59471 0.84091 0.0
C1538 C 0.0849 0.5517 0.87471 0.0
H1539 H 0.94746 0.55004 0.87165 0.0
H1540 H 0.98991 0.57315 0.87086 0.0
H1541 H 0.05736 0.52121 0.88316 0.0
H1542 H 0.17185 0.59561 0.89301 0.0
H1543 H 0.1257 0.58169 0.89686 0.0
H1544 H 0.07058 0.60646 0.84376 0.0
C1545 C 0.98936 0.55228 0.86687 0.0
C1546 C 0.06 0.53986 0.87454 0.0
C1547 C 0.9651 0.53904 0.86733 0.0
C1548 C 0.15921 0.59573 0.87841 0.0
C1549 C 0.13291 0.58761 0.88056 0.0
C1550 C 0.06785 0.58792 0.85251 0.0
C1551 C 0.01279 0.53842 0.86225 0.0
C1552 C 0.0388 0.55181 0.86324 0.0
C1553 C 0.11625 0.58668 0.86175 0.0
C1554 C 0.08919 0.57564 0.86341 0.0
H1555 H 0.98693 0.47721 0.85393 0.0
H1556 H 0.02909 0.50029 0.85322 0.0
H1557 H 0.02684 0.5858 0.84369 0.0
H1558 H 0.15975 0.60809 0.82236 0.0
H1559 H 0.11389 0.59402 0.8261 0.0
C1560 C 0.78498 0.78666 0.87842 0.0
C1561 C 0.76298 0.79233 0.8919 0.0
C1562 C 0.79728 0.76194 0.87959 0.0
C1563 C 0.78346 0.69334 0.8988 0.0
H1564 H 0.85813 0.68274 0.88724 0.0
C1565 C 0.83742 0.59664 0.91837 0.0
C1566 C 0.84856 0.58365 0.89977 0.0
C1567 C 0.82901 0.62278 0.91684 0.0
C1568 C 0.83723 0.68553 0.89033 0.0
H1569 H 0.73755 0.77736 0.91811 0.0
H1570 H 0.7598 0.73489 0.92114 0.0
H1571 H 0.8399 0.72757 0.8872 0.0
H1572 H 0.86071 0.58899 0.8652 0.0
H1573 H 0.84669 0.63522 0.86291 0.0
H1574 H 0.78117 0.65136 0.90282 0.0
C1575 C 0.76696 0.74893 0.9089 0.0
C1576 C 0.82671 0.71113 0.89026 0.0
C1577 C 0.75434 0.7734 0.90738 0.0
C1578 C 0.8523 0.59816 0.87989 0.0
C1579 C 0.84424 0.62463 0.87852 0.0
C1580 C 0.79407 0.66792 0.89928 0.0
C1581 C 0.78811 0.74253 0.89456 0.0
C1582 C 0.79966 0.7154 0.89462 0.0
C1583 C 0.83202 0.63687 0.89686 0.0
C1584 C 0.82101 0.66381 0.89514 0.0
H1585 H 0.79191 0.80083 0.86617 0.0
H1586 H 0.81328 0.75777 0.86811 0.0
H1587 H 0.76245 0.69558 0.90154 0.0
H1588 H 0.83487 0.58667 0.9342 0.0
H1589 H 0.81993 0.632 0.93129 0.0
C1590 C 0.65962 0.59505 0.62924 0.0
C1591 C 0.67127 0.60204 0.6497 0.0
C1592 C 0.63324 0.58675 0.62849 0.0
C1593 C 0.58243 0.55774 0.66549 0.0
H1594 H 0.53544 0.57176 0.61573 0.0
C1595 C 0.46711 0.53785 0.63686 0.0
C1596 C 0.46497 0.51106 0.64284 0.0
C1597 C 0.49132 0.55101 0.63862 0.0
C1598 C 0.54821 0.56792 0.62989 0.0
H1599 H 0.66408 0.60775 0.68507 0.0
H1600 H 0.61809 0.59391 0.68377 0.0
H1601 H 0.57909 0.59223 0.61658 0.0
H1602 H 0.48647 0.47727 0.65581 0.0
H1603 H 0.52856 0.50006 0.65867 0.0
H1604 H 0.55157 0.53377 0.67898 0.0
C1605 C 0.62941 0.5939 0.6684 0.0
C1606 C 0.57335 0.57939 0.63023 0.0
C1607 C 0.65574 0.6019 0.66916 0.0
C1608 C 0.48737 0.49794 0.65115 0.0
C1609 C 0.51153 0.51106 0.65288 0.0
C1610 C 0.55734 0.54637 0.66519 0.0
C1611 C 0.61799 0.58555 0.64818 0.0
C1612 C 0.59083 0.57431 0.64799 0.0
C1613 C 0.51389 0.53767 0.64641 0.0
C1614 C 0.53999 0.55109 0.64729 0.0
H1615 H 0.67122 0.59487 0.61403 0.0
H1616 H 0.62515 0.58029 0.61265 0.0
H1617 H 0.59547 0.55305 0.67929 0.0
H1618 H 0.45022 0.54854 0.6304 0.0
H1619 H 0.49237 0.5716 0.6338 0.0
C1620 C 0.75551 0.23609 0.40133 0.0
C1621 C 0.7428 0.21363 0.39268 0.0
C1622 C 0.74213 0.26012 0.40299 0.0
C1623 C 0.68561 0.29659 0.37923 0.0
H1624 H 0.69931 0.34376 0.42894 0.0
C1625 C 0.65912 0.40822 0.37815 0.0
C1626 C 0.65193 0.42 0.39852 0.0
C1627 C 0.66709 0.38171 0.37753 0.0
C1628 C 0.69491 0.33075 0.41505 0.0
H1629 H 0.70576 0.19864 0.3796 0.0
H1630 H 0.68222 0.2406 0.38288 0.0
H1631 H 0.71854 0.29983 0.4289 0.0
H1632 H 0.64546 0.41297 0.43381 0.0
H1633 H 0.65866 0.36675 0.43272 0.0
H1634 H 0.66166 0.32755 0.36555 0.0
C1635 C 0.7027 0.23967 0.38802 0.0
C1636 C 0.70627 0.30563 0.41491 0.0
C1637 C 0.71613 0.21558 0.38633 0.0
C1638 C 0.65147 0.40449 0.41798 0.0
C1639 C 0.65912 0.37804 0.41734 0.0
C1640 C 0.67414 0.32176 0.37941 0.0
C1641 C 0.71565 0.26231 0.39613 0.0
C1642 C 0.70203 0.28834 0.39689 0.0
C1643 C 0.66775 0.36649 0.39725 0.0
C1644 C 0.67882 0.33923 0.39727 0.0
H1645 H 0.77608 0.23534 0.40628 0.0
H1646 H 0.75284 0.2772 0.40903 0.0
H1647 H 0.68214 0.28386 0.36498 0.0
H1648 H 0.65974 0.41982 0.36295 0.0
H1649 H 0.67378 0.37352 0.36179 0.0
C1650 C 0.85245 0.40207 0.1641 0.0
C1651 C 0.83586 0.40204 0.14527 0.0
C1652 C 0.87875 0.40995 0.16228 0.0
C1653 C 0.9203 0.45353 0.12929 0.0
H1654 H 0.97787 0.41976 0.16122 0.0
C1655 C 0.0174 0.50763 0.14767 0.0
C1656 C 0.04087 0.49405 0.14258 0.0
C1657 C 0.99323 0.49439 0.14776 0.0
C1658 C 0.96202 0.42929 0.15211 0.0
H1659 H 0.83394 0.40936 0.10964 0.0
H1660 H 0.88012 0.42344 0.10641 0.0
H1661 H 0.93437 0.3987 0.16025 0.0
H1662 H 0.05749 0.45567 0.13456 0.0
H1663 H 0.01516 0.43247 0.13504 0.0
H1664 H 0.94775 0.48429 0.12142 0.0
C1665 C 0.87266 0.41735 0.12259 0.0
C1666 C 0.93714 0.41733 0.15163 0.0
C1667 C 0.84635 0.40913 0.12438 0.0
C1668 C 0.03976 0.46669 0.13856 0.0
C1669 C 0.01555 0.4534 0.13883 0.0
C1670 C 0.94507 0.46559 0.12994 0.0
C1671 C 0.88898 0.41821 0.14161 0.0
C1672 C 0.91597 0.42947 0.1404 0.0
C1673 C 0.992 0.46726 0.14294 0.0
C1674 C 0.96608 0.45377 0.14159 0.0
H1675 H 0.84492 0.39637 0.18035 0.0
H1676 H 0.89077 0.4106 0.17726 0.0
H1677 H 0.9043 0.46348 0.12069 0.0
H1678 H 0.01754 0.52869 0.15087 0.0
H1679 H 0.97542 0.50547 0.15135 0.0
C1680 C 0.71753 0.71517 0.61669 0.0
C1681 C 0.74423 0.71311 0.61044 0.0
C1682 C 0.70425 0.73934 0.61504 0.0
C1683 C 0.68723 0.79624 0.62383 0.0
H1684 H 0.70133 0.84343 0.5742 0.0
C1685 C 0.66004 0.90773 0.62452 0.0
C1686 C 0.65289 0.91936 0.60408 0.0
C1687 C 0.66828 0.88131 0.62526 0.0
C1688 C 0.69684 0.83042 0.58806 0.0
H1689 H 0.77774 0.7347 0.5971 0.0
H1690 H 0.75474 0.77672 0.59443 0.0
H1691 H 0.7207 0.79955 0.57439 0.0
H1692 H 0.64677 0.91211 0.56878 0.0
H1693 H 0.66045 0.86604 0.57007 0.0
H1694 H 0.66304 0.82714 0.63732 0.0
C1695 C 0.7439 0.75966 0.60035 0.0
C1696 C 0.70827 0.80533 0.5883 0.0
C1697 C 0.75714 0.73554 0.60197 0.0
C1698 C 0.65275 0.90377 0.58466 0.0
C1699 C 0.66067 0.8774 0.58541 0.0
C1700 C 0.6757 0.82139 0.62355 0.0
C1701 C 0.71738 0.76195 0.60708 0.0
C1702 C 0.70384 0.78802 0.60628 0.0
C1703 C 0.66924 0.86601 0.60559 0.0
C1704 C 0.6805 0.83884 0.60572 0.0
H1705 H 0.70701 0.69824 0.62328 0.0
H1706 H 0.68372 0.74034 0.62007 0.0
H1707 H 0.68362 0.7835 0.63805 0.0
H1708 H 0.66042 0.91939 0.63969 0.0
H1709 H 0.6749 0.87324 0.64106 0.0
C1710 C 0.84971 0.89805 0.86976 0.0
C1711 C 0.83085 0.91324 0.85827 0.0
C1712 C 0.87579 0.907 0.87176 0.0
C1713 C 0.91599 0.96773 0.86882 0.0
H1714 H 0.97412 0.92076 0.85447 0.0
C1715 C 0.01939 0.00845 0.85213 0.0
C1716 C 0.04073 0.99543 0.86233 0.0
C1717 C 0.99442 0.99683 0.8517 0.0
C1718 C 0.95811 0.93403 0.85875 0.0
H1719 H 0.82424 0.95006 0.84061 0.0
H1720 H 0.86946 0.96552 0.84393 0.0
H1721 H 0.92896 0.90357 0.85532 0.0
H1722 H 0.05286 0.95943 0.87917 0.0
H1723 H 0.0091 0.93918 0.8785 0.0
H1724 H 0.94488 0.99821 0.87215 0.0
C1725 C 0.86425 0.94674 0.85142 0.0
C1726 C 0.93229 0.92417 0.8593 0.0
C1727 C 0.83839 0.93775 0.8493 0.0
C1728 C 0.03682 0.96997 0.87116 0.0
C1729 C 0.01176 0.95834 0.87076 0.0
C1730 C 0.9417 0.97754 0.86829 0.0
C1731 C 0.8833 0.93144 0.86254 0.0
C1732 C 0.91093 0.94105 0.86398 0.0
C1733 C 0.99016 0.97195 0.86151 0.0
C1734 C 0.96303 0.96093 0.86288 0.0
H1735 H 0.84445 0.87902 0.87672 0.0
H1736 H 0.89004 0.89487 0.88054 0.0
H1737 H 0.89999 0.98111 0.8729 0.0
H1738 H 0.02177 0.028 0.84502 0.0
H1739 H 0.97831 0.00756 0.84399 0.0
C1740 C 0.8459 0.09698 0.12287 0.0
C1741 C 0.85296 0.08539 0.10239 0.0
C1742 C 0.83743 0.12332 0.12365 0.0
C1743 C 0.80777 0.17374 0.08677 0.0
H1744 H 0.82198 0.22119 0.13619 0.0
C1745 C 0.74765 0.26871 0.10125 0.0
C1746 C 0.76089 0.29124 0.10915 0.0
C1747 C 0.7608 0.24455 0.09955 0.0
C1748 C 0.81808 0.20828 0.12213 0.0
H1749 H 0.85867 0.09266 0.06703 0.0
H1750 H 0.84448 0.13858 0.06838 0.0
H1751 H 0.84275 0.17764 0.13539 0.0
H1752 H 0.79859 0.30623 0.12084 0.0
H1753 H 0.82166 0.26406 0.1175 0.0
H1754 H 0.78339 0.20436 0.07336 0.0
C1755 C 0.84457 0.12723 0.08374 0.0
C1756 C 0.82973 0.18321 0.12182 0.0
C1757 C 0.85277 0.10096 0.08296 0.0
C1758 C 0.7878 0.28923 0.11471 0.0
C1759 C 0.80097 0.26503 0.11299 0.0
C1760 C 0.7962 0.19876 0.08706 0.0
C1761 C 0.83611 0.13855 0.10397 0.0
C1762 C 0.8246 0.16559 0.10417 0.0
C1763 C 0.78753 0.24233 0.10564 0.0
C1764 C 0.80102 0.21626 0.10482 0.0
H1765 H 0.84577 0.08534 0.13807 0.0
H1766 H 0.8309 0.13136 0.1395 0.0
H1767 H 0.80305 0.16057 0.07307 0.0
H1768 H 0.72689 0.26953 0.09693 0.0
H1769 H 0.74975 0.2274 0.09408 0.0
C1770 C 0.46831 0.03566 0.36959 0.0
C1771 C 0.46451 0.01026 0.36061 0.0
C1772 C 0.49331 0.04743 0.3692 0.0
C1773 C 0.56349 0.02857 0.36634 0.0
H1774 H 0.57584 0.10284 0.3543 0.0
C1775 C 0.66657 0.06923 0.3476 0.0
C1776 C 0.67406 0.09353 0.357 0.0
C1777 C 0.64073 0.06011 0.34961 0.0
C1778 C 0.57262 0.08214 0.35801 0.0
H1779 H 0.48359 0.97797 0.34303 0.0
H1780 H 0.52693 0.99866 0.34198 0.0
H1781 H 0.53075 0.08543 0.35334 0.0
H1782 H 0.6604 0.12723 0.37609 0.0
H1783 H 0.61484 0.11116 0.37969 0.0
H1784 H 0.60525 0.02513 0.37077 0.0
C1785 C 0.51079 0.00923 0.34982 0.0
C1786 C 0.54684 0.07217 0.3574 0.0
C1787 C 0.48589 0.99746 0.35026 0.0
C1788 C 0.65517 0.10837 0.36879 0.0
C1789 C 0.62911 0.0993 0.37067 0.0
C1790 C 0.58916 0.0385 0.36691 0.0
C1791 C 0.51497 0.03403 0.3598 0.0
C1792 C 0.54206 0.04516 0.36121 0.0
C1793 C 0.62166 0.07506 0.36104 0.0
C1794 C 0.59408 0.06529 0.36241 0.0
H1795 H 0.45225 0.04603 0.37773 0.0
H1796 H 0.49589 0.06652 0.37707 0.0
H1797 H 0.56044 0.00782 0.36995 0.0
H1798 H 0.68074 0.05718 0.33866 0.0
H1799 H 0.63557 0.04149 0.34181 0.0
C1800 C 0.28785 0.28955 0.38759 0.0
C1801 C 0.2605 0.291 0.39156 0.0
C1802 C 0.30094 0.26522 0.3882 0.0
C1803 C 0.28842 0.19456 0.38039 0.0
H1804 H 0.3552 0.1843 0.41092 0.0
C1805 C 0.35259 0.10245 0.41536 0.0
C1806 C 0.35279 0.08568 0.39664 0.0
C1807 C 0.34434 0.12865 0.4134 0.0
C1808 C 0.33659 0.18693 0.40227 0.0
H1809 H 0.22563 0.26814 0.39999 0.0
H1810 H 0.24849 0.22577 0.40102 0.0
H1811 H 0.33419 0.22787 0.41127 0.0
H1812 H 0.34531 0.08335 0.36105 0.0
H1813 H 0.33062 0.12934 0.35757 0.0
H1814 H 0.29054 0.15359 0.37168 0.0
C1815 C 0.25973 0.24342 0.39724 0.0
C1816 C 0.32466 0.21185 0.40238 0.0
C1817 C 0.2467 0.26773 0.39684 0.0
C1818 C 0.34542 0.0959 0.37571 0.0
C1819 C 0.33685 0.12209 0.37378 0.0
C1820 C 0.30046 0.16973 0.38009 0.0
C1821 C 0.28689 0.24186 0.39258 0.0
C1822 C 0.30025 0.2158 0.39173 0.0
C1823 C 0.33588 0.13861 0.39269 0.0
C1824 C 0.32449 0.16556 0.39128 0.0
H1825 H 0.29905 0.30712 0.38346 0.0
H1826 H 0.32187 0.26457 0.3845 0.0
H1827 H 0.26976 0.19712 0.37179 0.0
H1828 H 0.35849 0.09516 0.43163 0.0
H1829 H 0.34364 0.14082 0.42829 0.0
C1830 C 0.9853 0.99742 0.15131 0.0
C1831 C 0.964 0.01027 0.1409 0.0
C1832 C 0.01026 0.00906 0.15172 0.0
C1833 C 0.04666 0.07173 0.14406 0.0
H1834 H 0.10473 0.02437 0.13043 0.0
C1835 C 0.15514 0.10741 0.13259 0.0
C1836 C 0.17401 0.09233 0.14419 0.0
C1837 C 0.12903 0.09848 0.13074 0.0
C1838 C 0.08875 0.03783 0.13437 0.0
H1839 H 0.95193 0.04604 0.12368 0.0
H1840 H 0.99568 0.06633 0.12431 0.0
H1841 H 0.05982 0.00734 0.13137 0.0
H1842 H 0.1806 0.05574 0.16218 0.0
H1843 H 0.13534 0.04033 0.15912 0.0
H1844 H 0.07586 0.10221 0.14716 0.0
C1845 C 0.99299 0.04728 0.13224 0.0
C1846 C 0.06302 0.02806 0.135 0.0
C1847 C 0.96794 0.03563 0.13186 0.0
C1848 C 0.16645 0.06796 0.1534 0.0
C1849 C 0.14056 0.05899 0.15144 0.0
C1850 C 0.07251 0.08155 0.14341 0.0
C1851 C 0.01456 0.0338 0.14167 0.0
C1852 C 0.04172 0.04477 0.14022 0.0
C1853 C 0.1215 0.07418 0.14021 0.0
C1854 C 0.09385 0.06457 0.13891 0.0
H1855 H 0.98291 0.97796 0.15859 0.0
H1856 H 0.02635 0.99844 0.15959 0.0
H1857 H 0.03067 0.08509 0.14819 0.0
H1858 H 0.16041 0.12633 0.12544 0.0
H1859 H 0.11478 0.11051 0.12187 0.0
C1860 C 0.15112 0.9037 0.91965 0.0
C1861 C 0.15124 0.91934 0.90025 0.0
C1862 C 0.15915 0.87737 0.91886 0.0
C1863 C 0.17439 0.82147 0.88073 0.0
H1864 H 0.21997 0.80004 0.92962 0.0
C1865 C 0.25643 0.73608 0.90177 0.0
C1866 C 0.24345 0.71357 0.89351 0.0
C1867 C 0.24312 0.76016 0.90349 0.0
C1868 C 0.20737 0.80572 0.91579 0.0
H1869 H 0.1588 0.91947 0.86464 0.0
H1870 H 0.17341 0.87336 0.8632 0.0
H1871 H 0.20028 0.84381 0.92988 0.0
H1872 H 0.20606 0.69853 0.88119 0.0
H1873 H 0.1827 0.74055 0.88456 0.0
H1874 H 0.18242 0.7836 0.86626 0.0
C1875 C 0.16674 0.88138 0.87902 0.0
C1876 C 0.19578 0.83073 0.91607 0.0
C1877 C 0.15842 0.90777 0.8798 0.0
C1878 C 0.21664 0.71551 0.8876 0.0
C1879 C 0.20331 0.73964 0.88934 0.0
C1880 C 0.18607 0.79641 0.88043 0.0
C1881 C 0.16778 0.86607 0.89867 0.0
C1882 C 0.17923 0.83899 0.89851 0.0
C1883 C 0.2165 0.76232 0.89705 0.0
C1884 C 0.20288 0.78833 0.89788 0.0
H1885 H 0.14513 0.912 0.93555 0.0
H1886 H 0.15901 0.86598 0.93419 0.0
H1887 H 0.16159 0.82713 0.86704 0.0
H1888 H 0.27711 0.73531 0.90637 0.0
H1889 H 0.25399 0.77729 0.90923 0.0
C1890 C 0.34729 0.90803 0.62906 0.0
C1891 C 0.33563 0.90086 0.64948 0.0
C1892 C 0.37377 0.91603 0.62832 0.0
C1893 C 0.42475 0.94412 0.66556 0.0
H1894 H 0.47155 0.93108 0.61545 0.0
C1895 C 0.5398 0.9652 0.63668 0.0
C1896 C 0.5417 0.99195 0.64284 0.0
C1897 C 0.51573 0.95179 0.63843 0.0
C1898 C 0.45884 0.93463 0.62971 0.0
H1899 H 0.34287 0.89445 0.68475 0.0
H1900 H 0.38903 0.90775 0.68346 0.0
H1901 H 0.42792 0.91053 0.6162 0.0
H1902 H 0.51992 0.02538 0.65615 0.0
H1903 H 0.47809 1.00215 0.65902 0.0
H1904 H 0.45563 0.96792 0.67923 0.0
C1905 C 0.37766 0.90814 0.66812 0.0
C1906 C 0.43371 0.92312 0.63 0.0
C1907 C 0.35124 0.90045 0.66888 0.0
C1908 C 0.51921 0.00476 0.65135 0.0
C1909 C 0.4952 0.99138 0.65308 0.0
C1910 C 0.44982 0.95553 0.66531 0.0
C1911 C 0.38908 0.91675 0.64797 0.0
C1912 C 0.41629 0.92789 0.64787 0.0
C1913 C 0.49307 0.96482 0.64641 0.0
C1914 C 0.46708 0.95118 0.64728 0.0
H1915 H 0.33562 0.90861 0.6139 0.0
H1916 H 0.38186 0.92269 0.61253 0.0
H1917 H 0.41177 0.94858 0.67946 0.0
H1918 H 0.55677 0.95476 0.63006 0.0
H1919 H 0.51483 0.93124 0.63344 0.0
loop_
_geom_bond_atom_site_label_1
_geom_bond_atom_site_label_2
_geom_bond_distance
_geom_bond_site_symmetry_2
_ccdc_geom_bond_type
Co0 N5 2.057 . S
Co0 O17 2.021 . S
Co0 O20 2.062 . S
Co0 O24 2.117 . S
Co0 O25 2.020 . S
C1 O21 1.259 . S
C1 O24 1.258 . S
Co2 N11 2.057 . S
Co2 O18 2.117 . S
Co2 O19 2.020 . S
Co2 O21 2.021 . S
Co2 O26 2.062 . S
C3 N5 1.316 . S
C3 N6 1.347 . S
C3 H8 0.931 . S
C4 N5 1.375 . S
C4 C7 1.350 . S
C4 H9 0.930 . S
N5 Co0 2.057 . S
N5 C3 1.316 . S
N5 C4 1.375 . S
N6 C3 1.347 . S
N6 C7 1.373 . S
C7 C4 1.350 . S
C7 N6 1.373 . S
C7 H28 0.931 . S
H8 C3 0.931 . S
H9 C4 0.930 . S
C10 O17 1.259 . S
C10 O18 1.258 . S
N11 Co2 2.057 . S
N11 C12 1.316 . S
N11 C13 1.375 . S
C12 N11 1.316 . S
C12 N14 1.347 . S
C12 H23 0.931 . S
C13 N11 1.375 . S
C13 C15 1.350 . S
C13 H22 0.930 . S
N14 C12 1.347 . S
N14 C15 1.373 . S
C15 C13 1.350 . S
C15 N14 1.373 . S
C15 H29 0.931 . S
C16 O19 1.256 . S
C16 O20 1.255 . S
O17 Co0 2.021 . S
O17 C10 1.259 . S
O18 Co2 2.117 . S
O18 C10 1.258 . S
O19 Co2 2.020 . S
O19 C16 1.256 . S
O20 Co0 2.062 . S
O20 C16 1.255 . S
O21 C1 1.259 . S
O21 Co2 2.021 . S
H22 C13 0.930 . S
H23 C12 0.931 . S
O24 Co0 2.117 . S
O24 C1 1.258 . S
O25 Co0 2.020 . S
O25 C27 1.256 . S
O26 Co2 2.062 . S
O26 C27 1.255 . S
C27 O25 1.256 . S
C27 O26 1.255 . S
H28 C7 0.931 . S
H29 C15 0.931 . S
Co30 N35 2.057 . S
Co30 O47 2.021 . S
Co30 O50 2.062 . S
Co30 O54 2.117 . S
Co30 O55 2.020 . S
C31 O51 1.259 . S
C31 O54 1.258 . S
Co32 N41 2.057 . S
Co32 O48 2.117 . S
Co32 O49 2.020 . S
Co32 O51 2.021 . S
Co32 O56 2.062 . S
C33 N35 1.316 . S
C33 N36 1.347 . S
C33 H38 0.931 . S
C34 N35 1.375 . S
C34 C37 1.350 . S
C34 H39 0.930 . S
N35 Co30 2.057 . S
N35 C33 1.316 . S
N35 C34 1.375 . S
N36 C33 1.347 . S
N36 C37 1.373 . S
C37 C34 1.350 . S
C37 N36 1.373 . S
C37 H58 0.931 . S
H38 C33 0.931 . S
H39 C34 0.930 . S
C40 O47 1.259 . S
C40 O48 1.258 . S
N41 Co32 2.057 . S
N41 C42 1.316 . S
N41 C43 1.375 . S
C42 N41 1.316 . S
C42 N44 1.347 . S
C42 H53 0.931 . S
C43 N41 1.375 . S
C43 C45 1.350 . S
C43 H52 0.930 . S
N44 C42 1.347 . S
N44 C45 1.373 . S
C45 C43 1.350 . S
C45 N44 1.373 . S
C45 H59 0.931 . S
C46 O49 1.256 . S
C46 O50 1.255 . S
O47 Co30 2.021 . S
O47 C40 1.259 . S
O48 Co32 2.117 . S
O48 C40 1.258 . S
O49 Co32 2.020 . S
O49 C46 1.256 . S
O50 Co30 2.062 . S
O50 C46 1.255 . S
O51 C31 1.259 . S
O51 Co32 2.021 . S
H52 C43 0.930 . S
H53 C42 0.931 . S
O54 Co30 2.117 . S
O54 C31 1.258 . S
O55 Co30 2.020 . S
O55 C57 1.256 . S
O56 Co32 2.062 . S
O56 C57 1.255 . S
C57 O55 1.256 . S
C57 O56 1.255 . S
H58 C37 0.931 . S
H59 C45 0.931 . S
Co60 N65 2.057 . S
Co60 O77 2.021 . S
Co60 O80 2.062 . S
Co60 O84 2.117 . S
Co60 O85 2.020 . S
C61 O81 1.259 . S
C61 O84 1.258 . S
Co62 N71 2.057 . S
Co62 O78 2.117 . S
Co62 O79 2.020 . S
Co62 O81 2.021 . S
Co62 O86 2.062 . S
C63 N65 1.316 . S
C63 N66 1.347 . S
C63 H68 0.931 . S
C64 N65 1.375 . S
C64 C67 1.350 . S
C64 H69 0.930 . S
N65 Co60 2.057 . S
N65 C63 1.316 . S
N65 C64 1.375 . S
N66 C63 1.347 . S
N66 C67 1.373 . S
C67 C64 1.350 . S
C67 N66 1.373 . S
C67 H88 0.931 . S
H68 C63 0.931 . S
H69 C64 0.930 . S
C70 O77 1.259 . S
C70 O78 1.258 . S
N71 Co62 2.057 . S
N71 C72 1.316 . S
N71 C73 1.375 . S
C72 N71 1.316 . S
C72 N74 1.347 . S
C72 H83 0.931 . S
C73 N71 1.375 . S
C73 C75 1.350 . S
C73 H82 0.930 . S
N74 C72 1.347 . S
N74 C75 1.373 . S
C75 C73 1.350 . S
C75 N74 1.373 . S
C75 H89 0.931 . S
C76 O79 1.256 . S
C76 O80 1.255 . S
O77 Co60 2.021 . S
O77 C70 1.259 . S
O78 Co62 2.117 . S
O78 C70 1.258 . S
O79 Co62 2.020 . S
O79 C76 1.256 . S
O80 Co60 2.062 . S
O80 C76 1.255 . S
O81 C61 1.259 . S
O81 Co62 2.021 . S
H82 C73 0.930 . S
H83 C72 0.931 . S
O84 Co60 2.117 . S
O84 C61 1.258 . S
O85 Co60 2.020 . S
O85 C87 1.256 . S
O86 Co62 2.062 . S
O86 C87 1.255 . S
C87 O85 1.256 . S
C87 O86 1.255 . S
H88 C67 0.931 . S
H89 C75 0.931 . S
Co90 N95 2.057 . S
Co90 O107 2.021 . S
Co90 O110 2.062 . S
Co90 O114 2.117 . S
Co90 O115 2.020 . S
C91 O111 1.259 . S
C91 O114 1.258 . S
Co92 N101 2.057 . S
Co92 O108 2.117 . S
Co92 O109 2.020 . S
Co92 O111 2.021 . S
Co92 O116 2.062 . S
C93 N95 1.316 . S
C93 N96 1.347 . S
C93 H98 0.931 . S
C94 N95 1.375 . S
C94 C97 1.350 . S
C94 H99 0.930 . S
N95 Co90 2.057 . S
N95 C93 1.316 . S
N95 C94 1.375 . S
N96 C93 1.347 . S
N96 C97 1.373 . S
C97 C94 1.350 . S
C97 N96 1.373 . S
C97 H118 0.931 . S
H98 C93 0.931 . S
H99 C94 0.930 . S
C100 O107 1.259 . S
C100 O108 1.258 . S
N101 Co92 2.057 . S
N101 C102 1.316 . S
N101 C103 1.375 . S
C102 N101 1.316 . S
C102 N104 1.347 . S
C102 H113 0.931 . S
C103 N101 1.375 . S
C103 C105 1.350 . S
C103 H112 0.930 . S
N104 C102 1.347 . S
N104 C105 1.373 . S
C105 C103 1.350 . S
C105 N104 1.373 . S
C105 H119 0.931 . S
C106 O109 1.256 . S
C106 O110 1.255 . S
O107 Co90 2.021 . S
O107 C100 1.259 . S
O108 Co92 2.117 . S
O108 C100 1.258 . S
O109 Co92 2.020 . S
O109 C106 1.256 . S
O110 Co90 2.062 . S
O110 C106 1.255 . S
O111 C91 1.259 . S
O111 Co92 2.021 . S
H112 C103 0.930 . S
H113 C102 0.931 . S
O114 Co90 2.117 . S
O114 C91 1.258 . S
O115 Co90 2.020 . S
O115 C117 1.256 . S
O116 Co92 2.062 . S
O116 C117 1.255 . S
C117 O115 1.256 . S
C117 O116 1.255 . S
H118 C97 0.931 . S
H119 C105 0.931 . S
Co120 N125 2.057 . S
Co120 O137 2.021 . S
Co120 O140 2.062 . S
Co120 O144 2.117 . S
Co120 O145 2.020 . S
C121 O141 1.259 . S
C121 O144 1.258 . S
Co122 N131 2.057 . S
Co122 O138 2.117 . S
Co122 O139 2.020 . S
Co122 O141 2.021 . S
Co122 O146 2.062 . S
C123 N125 1.316 . S
C123 N126 1.347 . S
C123 H128 0.931 . S
C124 N125 1.375 . S
C124 C127 1.350 . S
C124 H129 0.930 . S
N125 Co120 2.057 . S
N125 C123 1.316 . S
N125 C124 1.375 . S
N126 C123 1.347 . S
N126 C127 1.373 . S
C127 C124 1.350 . S
C127 N126 1.373 . S
C127 H148 0.931 . S
H128 C123 0.931 . S
H129 C124 0.930 . S
C130 O137 1.259 . S
C130 O138 1.258 . S
N131 Co122 2.057 . S
N131 C132 1.316 . S
N131 C133 1.375 . S
C132 N131 1.316 . S
C132 N134 1.347 . S
C132 H143 0.931 . S
C133 N131 1.375 . S
C133 C135 1.350 . S
C133 H142 0.930 . S
N134 C132 1.347 . S
N134 C135 1.373 . S
C135 C133 1.350 . S
C135 N134 1.373 . S
C135 H149 0.931 . S
C136 O139 1.256 . S
C136 O140 1.255 . S
O137 Co120 2.021 . S
O137 C130 1.259 . S
O138 Co122 2.117 . S
O138 C130 1.258 . S
O139 Co122 2.020 . S
O139 C136 1.256 . S
O140 Co120 2.062 . S
O140 C136 1.255 . S
O141 C121 1.259 . S
O141 Co122 2.021 . S
H142 C133 0.930 . S
H143 C132 0.931 . S
O144 Co120 2.117 . S
O144 C121 1.258 . S
O145 Co120 2.020 . S
O145 C147 1.256 . S
O146 Co122 2.062 . S
O146 C147 1.255 . S
C147 O145 1.256 . S
C147 O146 1.255 . S
H148 C127 0.931 . S
H149 C135 0.931 . S
Co150 N155 2.057 . S
Co150 O167 2.021 . S
Co150 O170 2.062 . S
Co150 O174 2.117 . S
Co150 O175 2.020 . S
C151 O171 1.259 . S
C151 O174 1.258 . S
Co152 N161 2.057 . S
Co152 O168 2.117 . S
Co152 O169 2.020 . S
Co152 O171 2.021 . S
Co152 O176 2.062 . S
C153 N155 1.316 . S
C153 N156 1.347 . S
C153 H158 0.931 . S
C154 N155 1.375 . S
C154 C157 1.350 . S
C154 H159 0.930 . S
N155 Co150 2.057 . S
N155 C153 1.316 . S
N155 C154 1.375 . S
N156 C153 1.347 . S
N156 C157 1.373 . S
C157 C154 1.350 . S
C157 N156 1.373 . S
C157 H178 0.931 . S
H158 C153 0.931 . S
H159 C154 0.930 . S
C160 O167 1.259 . S
C160 O168 1.258 . S
N161 Co152 2.057 . S
N161 C162 1.316 . S
N161 C163 1.375 . S
C162 N161 1.316 . S
C162 N164 1.347 . S
C162 H173 0.931 . S
C163 N161 1.375 . S
C163 C165 1.350 . S
C163 H172 0.930 . S
N164 C162 1.347 . S
N164 C165 1.373 . S
C165 C163 1.350 . S
C165 N164 1.373 . S
C165 H179 0.931 . S
C166 O169 1.256 . S
C166 O170 1.255 . S
O167 Co150 2.021 . S
O167 C160 1.259 . S
O168 Co152 2.117 . S
O168 C160 1.258 . S
O169 Co152 2.020 . S
O169 C166 1.256 . S
O170 Co150 2.062 . S
O170 C166 1.255 . S
O171 C151 1.259 . S
O171 Co152 2.021 . S
H172 C163 0.930 . S
H173 C162 0.931 . S
O174 Co150 2.117 . S
O174 C151 1.258 . S
O175 Co150 2.020 . S
O175 C177 1.256 . S
O176 Co152 2.062 . S
O176 C177 1.255 . S
C177 O175 1.256 . S
C177 O176 1.255 . S
H178 C157 0.931 . S
H179 C165 0.931 . S
Co180 N185 2.057 . S
Co180 O197 2.021 . S
Co180 O200 2.062 . S
Co180 O204 2.117 . S
Co180 O205 2.020 . S
C181 O201 1.259 . S
C181 O204 1.258 . S
Co182 N191 2.057 . S
Co182 O198 2.117 . S
Co182 O199 2.020 . S
Co182 O201 2.021 . S
Co182 O206 2.062 . S
C183 N185 1.316 . S
C183 N186 1.347 . S
C183 H188 0.931 . S
C184 N185 1.375 . S
C184 C187 1.350 . S
C184 H189 0.930 . S
N185 Co180 2.057 . S
N185 C183 1.316 . S
N185 C184 1.375 . S
N186 C183 1.347 . S
N186 C187 1.373 . S
C187 C184 1.350 . S
C187 N186 1.373 . S
C187 H208 0.931 . S
H188 C183 0.931 . S
H189 C184 0.930 . S
C190 O197 1.259 . S
C190 O198 1.258 . S
N191 Co182 2.057 . S
N191 C192 1.316 . S
N191 C193 1.375 . S
C192 N191 1.316 . S
C192 N194 1.347 . S
C192 H203 0.931 . S
C193 N191 1.375 . S
C193 C195 1.350 . S
C193 H202 0.930 . S
N194 C192 1.347 . S
N194 C195 1.373 . S
C195 C193 1.350 . S
C195 N194 1.373 . S
C195 H209 0.931 . S
C196 O199 1.256 . S
C196 O200 1.255 . S
O197 Co180 2.021 . S
O197 C190 1.259 . S
O198 Co182 2.117 . S
O198 C190 1.258 . S
O199 Co182 2.020 . S
O199 C196 1.256 . S
O200 Co180 2.062 . S
O200 C196 1.255 . S
O201 C181 1.259 . S
O201 Co182 2.021 . S
H202 C193 0.930 . S
H203 C192 0.931 . S
O204 Co180 2.117 . S
O204 C181 1.258 . S
O205 Co180 2.020 . S
O205 C207 1.256 . S
O206 Co182 2.062 . S
O206 C207 1.255 . S
C207 O205 1.256 . S
C207 O206 1.255 . S
H208 C187 0.931 . S
H209 C195 0.931 . S
Co210 N215 2.057 . S
Co210 O227 2.021 . S
Co210 O230 2.062 . S
Co210 O234 2.117 . S
Co210 O235 2.020 . S
C211 O231 1.259 . S
C211 O234 1.258 . S
Co212 N221 2.057 . S
Co212 O228 2.117 . S
Co212 O229 2.020 . S
Co212 O231 2.021 . S
Co212 O236 2.062 . S
C213 N215 1.316 . S
C213 N216 1.347 . S
C213 H218 0.931 . S
C214 N215 1.375 . S
C214 C217 1.350 . S
C214 H219 0.930 . S
N215 Co210 2.057 . S
N215 C213 1.316 . S
N215 C214 1.375 . S
N216 C213 1.347 . S
N216 C217 1.373 . S
C217 C214 1.350 . S
C217 N216 1.373 . S
C217 H238 0.931 . S
H218 C213 0.931 . S
H219 C214 0.930 . S
C220 O227 1.259 . S
C220 O228 1.258 . S
N221 Co212 2.057 . S
N221 C222 1.316 . S
N221 C223 1.375 . S
C222 N221 1.316 . S
C222 N224 1.347 . S
C222 H233 0.931 . S
C223 N221 1.375 . S
C223 C225 1.350 . S
C223 H232 0.930 . S
N224 C222 1.347 . S
N224 C225 1.373 . S
C225 C223 1.350 . S
C225 N224 1.373 . S
C225 H239 0.931 . S
C226 O229 1.256 . S
C226 O230 1.255 . S
O227 Co210 2.021 . S
O227 C220 1.259 . S
O228 Co212 2.117 . S
O228 C220 1.258 . S
O229 Co212 2.020 . S
O229 C226 1.256 . S
O230 Co210 2.062 . S
O230 C226 1.255 . S
O231 C211 1.259 . S
O231 Co212 2.021 . S
H232 C223 0.930 . S
H233 C222 0.931 . S
O234 Co210 2.117 . S
O234 C211 1.258 . S
O235 Co210 2.020 . S
O235 C237 1.256 . S
O236 Co212 2.062 . S
O236 C237 1.255 . S
C237 O235 1.256 . S
C237 O236 1.255 . S
H238 C217 0.931 . S
H239 C225 0.931 . S
Co240 N245 2.057 . S
Co240 O257 2.021 . S
Co240 O260 2.062 . S
Co240 O264 2.117 . S
Co240 O265 2.020 . S
C241 O261 1.259 . S
C241 O264 1.258 . S
Co242 N251 2.057 . S
Co242 O258 2.117 . S
Co242 O259 2.020 . S
Co242 O261 2.021 . S
Co242 O266 2.062 . S
C243 N245 1.316 . S
C243 N246 1.347 . S
C243 H248 0.931 . S
C244 N245 1.375 . S
C244 C247 1.350 . S
C244 H249 0.930 . S
N245 Co240 2.057 . S
N245 C243 1.316 . S
N245 C244 1.375 . S
N246 C243 1.347 . S
N246 C247 1.373 . S
C247 C244 1.350 . S
C247 N246 1.373 . S
C247 H268 0.931 . S
H248 C243 0.931 . S
H249 C244 0.930 . S
C250 O257 1.259 . S
C250 O258 1.258 . S
N251 Co242 2.057 . S
N251 C252 1.316 . S
N251 C253 1.375 . S
C252 N251 1.316 . S
C252 N254 1.347 . S
C252 H263 0.931 . S
C253 N251 1.375 . S
C253 C255 1.350 . S
C253 H262 0.930 . S
N254 C252 1.347 . S
N254 C255 1.373 . S
C255 C253 1.350 . S
C255 N254 1.373 . S
C255 H269 0.931 . S
C256 O259 1.256 . S
C256 O260 1.255 . S
O257 Co240 2.021 . S
O257 C250 1.259 . S
O258 Co242 2.117 . S
O258 C250 1.258 . S
O259 Co242 2.020 . S
O259 C256 1.256 . S
O260 Co240 2.062 . S
O260 C256 1.255 . S
O261 C241 1.259 . S
O261 Co242 2.021 . S
H262 C253 0.930 . S
H263 C252 0.931 . S
O264 Co240 2.117 . S
O264 C241 1.258 . S
O265 Co240 2.020 . S
O265 C267 1.256 . S
O266 Co242 2.062 . S
O266 C267 1.255 . S
C267 O265 1.256 . S
C267 O266 1.255 . S
H268 C247 0.931 . S
H269 C255 0.931 . S
Co270 N275 2.057 . S
Co270 O287 2.021 . S
Co270 O290 2.062 1_565 S
Co270 O294 2.117 1_565 S
Co270 O295 2.020 1_565 S
C271 O291 1.259 . S
C271 O294 1.258 . S
Co272 N281 2.057 . S
Co272 O288 2.117 . S
Co272 O289 2.020 . S
Co272 O291 2.021 . S
Co272 O296 2.062 . S
C273 N275 1.316 . S
C273 N276 1.347 . S
C273 H278 0.931 . S
C274 N275 1.375 . S
C274 C277 1.350 . S
C274 H279 0.930 . S
N275 Co270 2.057 . S
N275 C273 1.316 . S
N275 C274 1.375 . S
N276 C273 1.347 . S
N276 C277 1.373 . S
C277 C274 1.350 . S
C277 N276 1.373 . S
C277 H298 0.931 . S
H278 C273 0.931 . S
H279 C274 0.930 . S
C280 O287 1.259 1_545 S
C280 O288 1.258 . S
N281 Co272 2.057 . S
N281 C282 1.316 . S
N281 C283 1.375 . S
C282 N281 1.316 . S
C282 N284 1.347 . S
C282 H293 0.931 . S
C283 N281 1.375 . S
C283 C285 1.350 . S
C283 H292 0.930 . S
N284 C282 1.347 . S
N284 C285 1.373 . S
C285 C283 1.350 . S
C285 N284 1.373 . S
C285 H299 0.931 . S
C286 O289 1.256 . S
C286 O290 1.255 . S
O287 Co270 2.021 . S
O287 C280 1.259 1_565 S
O288 Co272 2.117 . S
O288 C280 1.258 . S
O289 Co272 2.020 . S
O289 C286 1.256 . S
O290 Co270 2.062 1_545 S
O290 C286 1.255 . S
O291 C271 1.259 . S
O291 Co272 2.021 . S
H292 C283 0.930 . S
H293 C282 0.931 . S
O294 Co270 2.117 1_545 S
O294 C271 1.258 . S
O295 Co270 2.020 1_545 S
O295 C297 1.256 . S
O296 Co272 2.062 . S
O296 C297 1.255 . S
C297 O295 1.256 . S
C297 O296 1.255 . S
H298 C277 0.931 . S
H299 C285 0.931 . S
Co300 N305 2.057 . S
Co300 O317 2.021 . S
Co300 O320 2.062 . S
Co300 O324 2.117 . S
Co300 O325 2.020 . S
C301 O321 1.259 . S
C301 O324 1.258 . S
Co302 N311 2.057 . S
Co302 O318 2.117 . S
Co302 O319 2.020 . S
Co302 O321 2.021 . S
Co302 O326 2.062 . S
C303 N305 1.316 . S
C303 N306 1.347 . S
C303 H308 0.931 . S
C304 N305 1.375 . S
C304 C307 1.350 . S
C304 H309 0.930 . S
N305 Co300 2.057 . S
N305 C303 1.316 . S
N305 C304 1.375 . S
N306 C303 1.347 . S
N306 C307 1.373 . S
C307 C304 1.350 . S
C307 N306 1.373 . S
C307 H328 0.931 . S
H308 C303 0.931 . S
H309 C304 0.930 . S
C310 O317 1.259 . S
C310 O318 1.258 . S
N311 Co302 2.057 . S
N311 C312 1.316 . S
N311 C313 1.375 . S
C312 N311 1.316 . S
C312 N314 1.347 . S
C312 H323 0.931 . S
C313 N311 1.375 . S
C313 C315 1.350 . S
C313 H322 0.930 . S
N314 C312 1.347 . S
N314 C315 1.373 . S
C315 C313 1.350 . S
C315 N314 1.373 . S
C315 H329 0.931 . S
C316 O319 1.256 . S
C316 O320 1.255 . S
O317 Co300 2.021 . S
O317 C310 1.259 . S
O318 Co302 2.117 . S
O318 C310 1.258 . S
O319 Co302 2.020 . S
O319 C316 1.256 . S
O320 Co300 2.062 . S
O320 C316 1.255 . S
O321 C301 1.259 . S
O321 Co302 2.021 . S
H322 C313 0.930 . S
H323 C312 0.931 . S
O324 Co300 2.117 . S
O324 C301 1.258 . S
O325 Co300 2.020 . S
O325 C327 1.256 . S
O326 Co302 2.062 . S
O326 C327 1.255 . S
C327 O325 1.256 . S
C327 O326 1.255 . S
H328 C307 0.931 . S
H329 C315 0.931 . S
Co330 N335 2.057 . S
Co330 O347 2.021 . S
Co330 O350 2.062 1_545 S
Co330 O354 2.117 1_545 S
Co330 O355 2.020 1_545 S
C331 O351 1.259 . S
C331 O354 1.258 . S
Co332 N341 2.057 . S
Co332 O348 2.117 . S
Co332 O349 2.020 . S
Co332 O351 2.021 . S
Co332 O356 2.062 . S
C333 N335 1.316 . S
C333 N336 1.347 . S
C333 H338 0.931 . S
C334 N335 1.375 . S
C334 C337 1.350 . S
C334 H339 0.930 . S
N335 Co330 2.057 . S
N335 C333 1.316 . S
N335 C334 1.375 . S
N336 C333 1.347 . S
N336 C337 1.373 . S
C337 C334 1.350 . S
C337 N336 1.373 . S
C337 H358 0.931 . S
H338 C333 0.931 . S
H339 C334 0.930 . S
C340 O347 1.259 1_565 S
C340 O348 1.258 . S
N341 Co332 2.057 . S
N341 C342 1.316 . S
N341 C343 1.375 . S
C342 N341 1.316 . S
C342 N344 1.347 . S
C342 H353 0.931 . S
C343 N341 1.375 . S
C343 C345 1.350 . S
C343 H352 0.930 . S
N344 C342 1.347 . S
N344 C345 1.373 . S
C345 C343 1.350 . S
C345 N344 1.373 . S
C345 H359 0.931 . S
C346 O349 1.256 . S
C346 O350 1.255 . S
O347 Co330 2.021 . S
O347 C340 1.259 1_545 S
O348 Co332 2.117 . S
O348 C340 1.258 . S
O349 Co332 2.020 . S
O349 C346 1.256 . S
O350 Co330 2.062 1_565 S
O350 C346 1.255 . S
O351 C331 1.259 . S
O351 Co332 2.021 . S
H352 C343 0.930 . S
H353 C342 0.931 . S
O354 Co330 2.117 1_565 S
O354 C331 1.258 . S
O355 Co330 2.020 1_565 S
O355 C357 1.256 . S
O356 Co332 2.062 . S
O356 C357 1.255 . S
C357 O355 1.256 . S
C357 O356 1.255 . S
H358 C337 0.931 . S
H359 C345 0.931 . S
Co360 N365 2.057 . S
Co360 O377 2.021 . S
Co360 O380 2.062 . S
Co360 O384 2.117 . S
Co360 O385 2.020 . S
C361 O381 1.259 . S
C361 O384 1.258 . S
Co362 N371 2.057 . S
Co362 O378 2.117 . S
Co362 O379 2.020 . S
Co362 O381 2.021 . S
Co362 O386 2.062 . S
C363 N365 1.316 . S
C363 N366 1.347 . S
C363 H368 0.931 . S
C364 N365 1.375 . S
C364 C367 1.350 . S
C364 H369 0.930 . S
N365 Co360 2.057 . S
N365 C363 1.316 . S
N365 C364 1.375 . S
N366 C363 1.347 . S
N366 C367 1.373 . S
C367 C364 1.350 . S
C367 N366 1.373 . S
C367 H388 0.931 . S
H368 C363 0.931 . S
H369 C364 0.930 . S
C370 O377 1.259 . S
C370 O378 1.258 . S
N371 Co362 2.057 . S
N371 C372 1.316 . S
N371 C373 1.375 . S
C372 N371 1.316 . S
C372 N374 1.347 . S
C372 H383 0.931 . S
C373 N371 1.375 . S
C373 C375 1.350 . S
C373 H382 0.930 . S
N374 C372 1.347 . S
N374 C375 1.373 . S
C375 C373 1.350 . S
C375 N374 1.373 . S
C375 H389 0.931 . S
C376 O379 1.256 . S
C376 O380 1.255 . S
O377 Co360 2.021 . S
O377 C370 1.259 . S
O378 Co362 2.117 . S
O378 C370 1.258 . S
O379 Co362 2.020 . S
O379 C376 1.256 . S
O380 Co360 2.062 . S
O380 C376 1.255 . S
O381 C361 1.259 . S
O381 Co362 2.021 . S
H382 C373 0.930 . S
H383 C372 0.931 . S
O384 Co360 2.117 . S
O384 C361 1.258 . S
O385 Co360 2.020 . S
O385 C387 1.256 . S
O386 Co362 2.062 . S
O386 C387 1.255 . S
C387 O385 1.256 . S
C387 O386 1.255 . S
H388 C367 0.931 . S
H389 C375 0.931 . S
Co390 N395 2.057 . S
Co390 O407 2.021 . S
Co390 O410 2.062 . S
Co390 O414 2.117 . S
Co390 O415 2.020 . S
C391 O411 1.259 1_565 S
C391 O414 1.258 . S
Co392 N401 2.057 . S
Co392 O408 2.117 1_545 S
Co392 O409 2.020 1_545 S
Co392 O411 2.021 . S
Co392 O416 2.062 1_545 S
C393 N395 1.316 . S
C393 N396 1.347 . S
C393 H398 0.931 . S
C394 N395 1.375 . S
C394 C397 1.350 . S
C394 H399 0.930 . S
N395 Co390 2.057 . S
N395 C393 1.316 . S
N395 C394 1.375 . S
N396 C393 1.347 . S
N396 C397 1.373 . S
C397 C394 1.350 . S
C397 N396 1.373 . S
C397 H418 0.931 . S
H398 C393 0.931 . S
H399 C394 0.930 . S
C400 O407 1.259 . S
C400 O408 1.258 . S
N401 Co392 2.057 . S
N401 C402 1.316 . S
N401 C403 1.375 . S
C402 N401 1.316 . S
C402 N404 1.347 . S
C402 H413 0.931 . S
C403 N401 1.375 . S
C403 C405 1.350 . S
C403 H412 0.930 . S
N404 C402 1.347 . S
N404 C405 1.373 . S
C405 C403 1.350 . S
C405 N404 1.373 . S
C405 H419 0.931 . S
C406 O409 1.256 . S
C406 O410 1.255 . S
O407 Co390 2.021 . S
O407 C400 1.259 . S
O408 Co392 2.117 1_565 S
O408 C400 1.258 . S
O409 Co392 2.020 1_565 S
O409 C406 1.256 . S
O410 Co390 2.062 . S
O410 C406 1.255 . S
O411 C391 1.259 1_545 S
O411 Co392 2.021 . S
H412 C403 0.930 . S
H413 C402 0.931 . S
O414 Co390 2.117 . S
O414 C391 1.258 . S
O415 Co390 2.020 . S
O415 C417 1.256 . S
O416 Co392 2.062 1_565 S
O416 C417 1.255 . S
C417 O415 1.256 . S
C417 O416 1.255 . S
H418 C397 0.931 . S
H419 C405 0.931 . S
Co420 N425 2.057 . S
Co420 O437 2.021 . S
Co420 O440 2.062 . S
Co420 O444 2.117 . S
Co420 O445 2.020 . S
C421 O441 1.259 . S
C421 O444 1.258 . S
Co422 N431 2.057 . S
Co422 O438 2.117 . S
Co422 O439 2.020 . S
Co422 O441 2.021 . S
Co422 O446 2.062 . S
C423 N425 1.316 . S
C423 N426 1.347 . S
C423 H428 0.931 . S
C424 N425 1.375 . S
C424 C427 1.350 . S
C424 H429 0.930 . S
N425 Co420 2.057 . S
N425 C423 1.316 . S
N425 C424 1.375 . S
N426 C423 1.347 . S
N426 C427 1.373 . S
C427 C424 1.350 . S
C427 N426 1.373 . S
C427 H448 0.931 . S
H428 C423 0.931 . S
H429 C424 0.930 . S
C430 O437 1.259 . S
C430 O438 1.258 . S
N431 Co422 2.057 . S
N431 C432 1.316 . S
N431 C433 1.375 . S
C432 N431 1.316 . S
C432 N434 1.347 . S
C432 H443 0.931 . S
C433 N431 1.375 . S
C433 C435 1.350 . S
C433 H442 0.930 . S
N434 C432 1.347 . S
N434 C435 1.373 . S
C435 C433 1.350 . S
C435 N434 1.373 . S
C435 H449 0.931 . S
C436 O439 1.256 . S
C436 O440 1.255 . S
O437 Co420 2.021 . S
O437 C430 1.259 . S
O438 Co422 2.117 . S
O438 C430 1.258 . S
O439 Co422 2.020 . S
O439 C436 1.256 . S
O440 Co420 2.062 . S
O440 C436 1.255 . S
O441 C421 1.259 . S
O441 Co422 2.021 . S
H442 C433 0.930 . S
H443 C432 0.931 . S
O444 Co420 2.117 . S
O444 C421 1.258 . S
O445 Co420 2.020 . S
O445 C447 1.256 . S
O446 Co422 2.062 . S
O446 C447 1.255 . S
C447 O445 1.256 . S
C447 O446 1.255 . S
H448 C427 0.931 . S
H449 C435 0.931 . S
Co450 N455 2.057 . S
Co450 O467 2.021 . S
Co450 O470 2.062 . S
Co450 O474 2.117 . S
Co450 O475 2.020 . S
C451 O471 1.259 1_545 S
C451 O474 1.258 . S
Co452 N461 2.057 . S
Co452 O468 2.117 1_565 S
Co452 O469 2.020 1_565 S
Co452 O471 2.021 . S
Co452 O476 2.062 1_565 S
C453 N455 1.316 . S
C453 N456 1.347 . S
C453 H458 0.931 . S
C454 N455 1.375 . S
C454 C457 1.350 . S
C454 H459 0.930 . S
N455 Co450 2.057 . S
N455 C453 1.316 . S
N455 C454 1.375 . S
N456 C453 1.347 . S
N456 C457 1.373 . S
C457 C454 1.350 . S
C457 N456 1.373 . S
C457 H478 0.931 . S
H458 C453 0.931 . S
H459 C454 0.930 . S
C460 O467 1.259 . S
C460 O468 1.258 . S
N461 Co452 2.057 . S
N461 C462 1.316 . S
N461 C463 1.375 . S
C462 N461 1.316 . S
C462 N464 1.347 . S
C462 H473 0.931 . S
C463 N461 1.375 . S
C463 C465 1.350 . S
C463 H472 0.930 . S
N464 C462 1.347 . S
N464 C465 1.373 . S
C465 C463 1.350 . S
C465 N464 1.373 . S
C465 H479 0.931 . S
C466 O469 1.256 . S
C466 O470 1.255 . S
O467 Co450 2.021 . S
O467 C460 1.259 . S
O468 Co452 2.117 1_545 S
O468 C460 1.258 . S
O469 Co452 2.020 1_545 S
O469 C466 1.256 . S
O470 Co450 2.062 . S
O470 C466 1.255 . S
O471 C451 1.259 1_565 S
O471 Co452 2.021 . S
H472 C463 0.930 . S
H473 C462 0.931 . S
O474 Co450 2.117 . S
O474 C451 1.258 . S
O475 Co450 2.020 . S
O475 C477 1.256 . S
O476 Co452 2.062 1_545 S
O476 C477 1.255 . S
C477 O475 1.256 . S
C477 O476 1.255 . S
H478 C457 0.931 . S
H479 C465 0.931 . S
C480 C481 1.349 . S
C480 C482 1.327 . S
C480 H505 0.950 . S
C481 C480 1.349 . S
C481 C497 1.349 . S
C482 C480 1.327 . S
C482 C501 1.429 . S
C482 H506 0.950 . S
C483 C500 1.574 . S
C483 C502 1.368 . S
C483 H507 0.949 . S
H484 C488 0.949 . S
C485 C486 1.349 . S
C485 C487 1.327 . S
C485 H508 0.950 . S
C486 C485 1.349 . S
C486 C498 1.349 . S
C487 C485 1.327 . S
C487 C503 1.429 . S
C487 H509 0.950 . S
C488 H484 0.949 . S
C488 C496 1.574 . S
C488 C504 1.368 . S
H489 C497 0.950 . S
H490 C495 0.950 . S
H491 C496 0.949 . S
H492 C498 0.950 . S
H493 C499 0.950 . S
H494 C500 0.949 . S
C495 H490 0.950 . S
C495 C497 1.327 . S
C495 C501 1.429 . S
C496 C488 1.574 . S
C496 H491 0.949 . S
C496 C502 1.368 . S
C497 C481 1.349 . S
C497 H489 0.950 . S
C497 C495 1.327 . S
C498 C486 1.349 . S
C498 H492 0.950 . S
C498 C499 1.327 . S
C499 H493 0.950 . S
C499 C498 1.327 . S
C499 C503 1.429 . S
C500 C483 1.574 . S
C500 H494 0.949 . S
C500 C504 1.368 . S
C501 C482 1.429 . S
C501 C495 1.429 . S
C501 C502 1.523 . S
C502 C483 1.368 . S
C502 C496 1.368 . S
C502 C501 1.523 . S
C503 C487 1.429 . S
C503 C499 1.429 . S
C503 C504 1.523 . S
C504 C488 1.368 . S
C504 C500 1.368 . S
C504 C503 1.523 . S
H505 C480 0.950 . S
H506 C482 0.950 . S
H507 C483 0.949 . S
H508 C485 0.950 . S
H509 C487 0.950 . S
C510 C511 1.349 . S
C510 C512 1.327 . S
C510 H535 0.950 . S
C511 C510 1.349 . S
C511 C527 1.349 . S
C512 C510 1.327 . S
C512 C531 1.429 . S
C512 H536 0.950 . S
C513 C530 1.574 . S
C513 C532 1.368 . S
C513 H537 0.949 . S
H514 C518 0.949 . S
C515 C516 1.349 . S
C515 C517 1.327 . S
C515 H538 0.950 . S
C516 C515 1.349 . S
C516 C528 1.349 . S
C517 C515 1.327 . S
C517 C533 1.429 . S
C517 H539 0.950 . S
C518 H514 0.949 . S
C518 C526 1.574 . S
C518 C534 1.368 . S
H519 C527 0.950 . S
H520 C525 0.950 . S
H521 C526 0.949 . S
H522 C528 0.950 . S
H523 C529 0.950 . S
H524 C530 0.949 . S
C525 H520 0.950 . S
C525 C527 1.327 . S
C525 C531 1.429 . S
C526 C518 1.574 . S
C526 H521 0.949 . S
C526 C532 1.368 . S
C527 C511 1.349 . S
C527 H519 0.950 . S
C527 C525 1.327 . S
C528 C516 1.349 . S
C528 H522 0.950 . S
C528 C529 1.327 . S
C529 H523 0.950 . S
C529 C528 1.327 . S
C529 C533 1.429 . S
C530 C513 1.574 . S
C530 H524 0.949 . S
C530 C534 1.368 . S
C531 C512 1.429 . S
C531 C525 1.429 . S
C531 C532 1.523 . S
C532 C513 1.368 . S
C532 C526 1.368 . S
C532 C531 1.523 . S
C533 C517 1.429 . S
C533 C529 1.429 . S
C533 C534 1.523 . S
C534 C518 1.368 . S
C534 C530 1.368 . S
C534 C533 1.523 . S
H535 C510 0.950 . S
H536 C512 0.950 . S
H537 C513 0.949 . S
H538 C515 0.950 . S
H539 C517 0.950 . S
C540 C541 1.349 . S
C540 C542 1.327 . S
C540 H565 0.950 . S
C541 C540 1.349 . S
C541 C557 1.349 . S
C542 C540 1.327 . S
C542 C561 1.429 . S
C542 H566 0.950 . S
C543 C560 1.574 . S
C543 C562 1.368 . S
C543 H567 0.949 . S
H544 C548 0.949 . S
C545 C546 1.349 . S
C545 C547 1.327 . S
C545 H568 0.950 . S
C546 C545 1.349 . S
C546 C558 1.349 . S
C547 C545 1.327 . S
C547 C563 1.429 . S
C547 H569 0.950 . S
C548 H544 0.949 . S
C548 C556 1.574 . S
C548 C564 1.368 . S
H549 C557 0.950 . S
H550 C555 0.950 . S
H551 C556 0.949 . S
H552 C558 0.950 . S
H553 C559 0.950 . S
H554 C560 0.949 . S
C555 H550 0.950 . S
C555 C557 1.327 . S
C555 C561 1.429 . S
C556 C548 1.574 . S
C556 H551 0.949 . S
C556 C562 1.368 . S
C557 C541 1.349 . S
C557 H549 0.950 . S
C557 C555 1.327 . S
C558 C546 1.349 . S
C558 H552 0.950 . S
C558 C559 1.327 . S
C559 H553 0.950 . S
C559 C558 1.327 . S
C559 C563 1.429 . S
C560 C543 1.574 . S
C560 H554 0.949 . S
C560 C564 1.368 . S
C561 C542 1.429 . S
C561 C555 1.429 . S
C561 C562 1.523 . S
C562 C543 1.368 . S
C562 C556 1.368 . S
C562 C561 1.523 . S
C563 C547 1.429 . S
C563 C559 1.429 . S
C563 C564 1.523 . S
C564 C548 1.368 . S
C564 C560 1.368 . S
C564 C563 1.523 . S
H565 C540 0.950 . S
H566 C542 0.950 . S
H567 C543 0.949 . S
H568 C545 0.950 . S
H569 C547 0.950 . S
C570 C571 1.349 . S
C570 C572 1.327 . S
C570 H595 0.950 . S
C571 C570 1.349 . S
C571 C587 1.349 . S
C572 C570 1.327 . S
C572 C591 1.429 . S
C572 H596 0.950 . S
C573 C590 1.574 1_656 S
C573 C592 1.368 . S
C573 H597 0.949 . S
H574 C578 0.949 . S
C575 C576 1.349 . S
C575 C577 1.327 . S
C575 H598 0.950 . S
C576 C575 1.349 . S
C576 C588 1.349 . S
C577 C575 1.327 . S
C577 C593 1.429 . S
C577 H599 0.950 . S
C578 H574 0.949 . S
C578 C586 1.574 1_454 S
C578 C594 1.368 . S
H579 C587 0.950 . S
H580 C585 0.950 . S
H581 C586 0.949 . S
H582 C588 0.950 . S
H583 C589 0.950 . S
H584 C590 0.949 . S
C585 H580 0.950 . S
C585 C587 1.327 . S
C585 C591 1.429 . S
C586 C578 1.574 1_656 S
C586 H581 0.949 . S
C586 C592 1.368 . S
C587 C571 1.349 . S
C587 H579 0.950 . S
C587 C585 1.327 . S
C588 C576 1.349 . S
C588 H582 0.950 . S
C588 C589 1.327 . S
C589 H583 0.950 . S
C589 C588 1.327 . S
C589 C593 1.429 . S
C590 C573 1.574 1_454 S
C590 H584 0.949 . S
C590 C594 1.368 . S
C591 C572 1.429 . S
C591 C585 1.429 . S
C591 C592 1.523 . S
C592 C573 1.368 . S
C592 C586 1.368 . S
C592 C591 1.523 . S
C593 C577 1.429 . S
C593 C589 1.429 . S
C593 C594 1.523 . S
C594 C578 1.368 . S
C594 C590 1.368 . S
C594 C593 1.523 . S
H595 C570 0.950 . S
H596 C572 0.950 . S
H597 C573 0.949 . S
H598 C575 0.950 . S
H599 C577 0.950 . S
C600 C601 1.349 . S
C600 C602 1.327 . S
C600 H625 0.950 . S
C601 C600 1.349 . S
C601 C617 1.349 . S
C602 C600 1.327 . S
C602 C621 1.429 . S
C602 H626 0.950 . S
C603 C620 1.574 . S
C603 C622 1.368 . S
C603 H627 0.949 . S
H604 C608 0.949 . S
C605 C606 1.349 . S
C605 C607 1.327 . S
C605 H628 0.950 . S
C606 C605 1.349 . S
C606 C618 1.349 . S
C607 C605 1.327 . S
C607 C623 1.429 . S
C607 H629 0.950 . S
C608 H604 0.949 . S
C608 C616 1.574 . S
C608 C624 1.368 . S
H609 C617 0.950 . S
H610 C615 0.950 . S
H611 C616 0.949 . S
H612 C618 0.950 . S
H613 C619 0.950 . S
H614 C620 0.949 . S
C615 H610 0.950 . S
C615 C617 1.327 . S
C615 C621 1.429 . S
C616 C608 1.574 . S
C616 H611 0.949 . S
C616 C622 1.368 . S
C617 C601 1.349 . S
C617 H609 0.950 . S
C617 C615 1.327 . S
C618 C606 1.349 . S
C618 H612 0.950 . S
C618 C619 1.327 . S
C619 H613 0.950 . S
C619 C618 1.327 . S
C619 C623 1.429 . S
C620 C603 1.574 . S
C620 H614 0.949 . S
C620 C624 1.368 . S
C621 C602 1.429 . S
C621 C615 1.429 . S
C621 C622 1.523 . S
C622 C603 1.368 . S
C622 C616 1.368 . S
C622 C621 1.523 . S
C623 C607 1.429 . S
C623 C619 1.429 . S
C623 C624 1.523 . S
C624 C608 1.368 . S
C624 C620 1.368 . S
C624 C623 1.523 . S
H625 C600 0.950 . S
H626 C602 0.950 . S
H627 C603 0.949 . S
H628 C605 0.950 . S
H629 C607 0.950 . S
C630 C631 1.349 . S
C630 C632 1.327 . S
C630 H655 0.950 . S
C631 C630 1.349 . S
C631 C647 1.349 . S
C632 C630 1.327 . S
C632 C651 1.429 . S
C632 H656 0.950 . S
C633 C650 1.574 . S
C633 C652 1.368 . S
C633 H657 0.949 . S
H634 C638 0.949 . S
C635 C636 1.349 . S
C635 C637 1.327 . S
C635 H658 0.950 . S
C636 C635 1.349 . S
C636 C648 1.349 . S
C637 C635 1.327 . S
C637 C653 1.429 . S
C637 H659 0.950 . S
C638 H634 0.949 . S
C638 C646 1.574 . S
C638 C654 1.368 . S
H639 C647 0.950 . S
H640 C645 0.950 . S
H641 C646 0.949 . S
H642 C648 0.950 . S
H643 C649 0.950 . S
H644 C650 0.949 . S
C645 H640 0.950 . S
C645 C647 1.327 . S
C645 C651 1.429 . S
C646 C638 1.574 . S
C646 H641 0.949 . S
C646 C652 1.368 . S
C647 C631 1.349 . S
C647 H639 0.950 . S
C647 C645 1.327 . S
C648 C636 1.349 . S
C648 H642 0.950 . S
C648 C649 1.327 . S
C649 H643 0.950 . S
C649 C648 1.327 . S
C649 C653 1.429 . S
C650 C633 1.574 . S
C650 H644 0.949 . S
C650 C654 1.368 . S
C651 C632 1.429 . S
C651 C645 1.429 . S
C651 C652 1.523 . S
C652 C633 1.368 . S
C652 C646 1.368 . S
C652 C651 1.523 . S
C653 C637 1.429 . S
C653 C649 1.429 . S
C653 C654 1.523 . S
C654 C638 1.368 . S
C654 C650 1.368 . S
C654 C653 1.523 . S
H655 C630 0.950 . S
H656 C632 0.950 . S
H657 C633 0.949 . S
H658 C635 0.950 . S
H659 C637 0.950 . S
C660 C661 1.349 . S
C660 C662 1.327 . S
C660 H685 0.950 . S
C661 C660 1.349 . S
C661 C677 1.349 . S
C662 C660 1.327 . S
C662 C681 1.429 . S
C662 H686 0.950 . S
C663 C680 1.574 1_654 S
C663 C682 1.368 1_545 S
C663 H687 0.949 . S
H664 C668 0.949 . S
C665 C666 1.349 . S
C665 C667 1.327 . S
C665 H688 0.950 . S
C666 C665 1.349 . S
C666 C678 1.349 . S
C667 C665 1.327 . S
C667 C683 1.429 . S
C667 H689 0.950 . S
C668 H664 0.949 . S
C668 C676 1.574 1_456 S
C668 C684 1.368 1_565 S
H669 C677 0.950 1_545 S
H670 C675 0.950 . S
H671 C676 0.949 . S
H672 C678 0.950 1_565 S
H673 C679 0.950 . S
H674 C680 0.949 . S
C675 H670 0.950 . S
C675 C677 1.327 1_545 S
C675 C681 1.429 1_545 S
C676 C668 1.574 1_654 S
C676 H671 0.949 . S
C676 C682 1.368 . S
C677 C661 1.349 . S
C677 H669 0.950 1_565 S
C677 C675 1.327 1_565 S
C678 C666 1.349 . S
C678 H672 0.950 1_545 S
C678 C679 1.327 1_545 S
C679 H673 0.950 . S
C679 C678 1.327 1_565 S
C679 C683 1.429 1_565 S
C680 C663 1.574 1_456 S
C680 H674 0.949 . S
C680 C684 1.368 . S
C681 C662 1.429 . S
C681 C675 1.429 1_565 S
C681 C682 1.523 . S
C682 C663 1.368 1_565 S
C682 C676 1.368 . S
C682 C681 1.523 . S
C683 C667 1.429 . S
C683 C679 1.429 1_545 S
C683 C684 1.523 . S
C684 C668 1.368 1_545 S
C684 C680 1.368 . S
C684 C683 1.523 . S
H685 C660 0.950 . S
H686 C662 0.950 . S
H687 C663 0.949 . S
H688 C665 0.950 . S
H689 C667 0.950 . S
C690 C691 1.349 . S
C690 C692 1.327 . S
C690 H715 0.950 . S
C691 C690 1.349 . S
C691 C707 1.349 . S
C692 C690 1.327 . S
C692 C711 1.429 . S
C692 H716 0.950 . S
C693 C710 1.574 1_565 S
C693 C712 1.368 . S
C693 H717 0.949 . S
H694 C698 0.949 . S
C695 C696 1.349 . S
C695 C697 1.327 . S
C695 H718 0.950 . S
C696 C695 1.349 . S
C696 C708 1.349 . S
C697 C695 1.327 . S
C697 C713 1.429 . S
C697 H719 0.950 . S
C698 H694 0.949 . S
C698 C706 1.574 1_545 S
C698 C714 1.368 . S
H699 C707 0.950 . S
H700 C705 0.950 . S
H701 C706 0.949 . S
H702 C708 0.950 . S
H703 C709 0.950 . S
H704 C710 0.949 . S
C705 H700 0.950 . S
C705 C707 1.327 . S
C705 C711 1.429 . S
C706 C698 1.574 1_565 S
C706 H701 0.949 . S
C706 C712 1.368 . S
C707 C691 1.349 . S
C707 H699 0.950 . S
C707 C705 1.327 . S
C708 C696 1.349 . S
C708 H702 0.950 . S
C708 C709 1.327 . S
C709 H703 0.950 . S
C709 C708 1.327 . S
C709 C713 1.429 . S
C710 C693 1.574 1_545 S
C710 H704 0.949 . S
C710 C714 1.368 . S
C711 C692 1.429 . S
C711 C705 1.429 . S
C711 C712 1.523 . S
C712 C693 1.368 . S
C712 C706 1.368 . S
C712 C711 1.523 . S
C713 C697 1.429 . S
C713 C709 1.429 . S
C713 C714 1.523 . S
C714 C698 1.368 . S
C714 C710 1.368 . S
C714 C713 1.523 . S
H715 C690 0.950 . S
H716 C692 0.950 . S
H717 C693 0.949 . S
H718 C695 0.950 . S
H719 C697 0.950 . S
C720 C721 1.349 . S
C720 C722 1.327 . S
C720 H745 0.950 . S
C721 C720 1.349 . S
C721 C737 1.349 . S
C722 C720 1.327 . S
C722 C741 1.429 . S
C722 H746 0.950 . S
C723 C740 1.574 1_556 S
C723 C742 1.368 . S
C723 H747 0.949 . S
H724 C728 0.949 . S
C725 C726 1.349 . S
C725 C727 1.327 . S
C725 H748 0.950 . S
C726 C725 1.349 . S
C726 C738 1.349 . S
C727 C725 1.327 . S
C727 C743 1.429 . S
C727 H749 0.950 . S
C728 H724 0.949 . S
C728 C736 1.574 1_554 S
C728 C744 1.368 . S
H729 C737 0.950 . S
H730 C735 0.950 . S
H731 C736 0.949 . S
H732 C738 0.950 . S
H733 C739 0.950 . S
H734 C740 0.949 . S
C735 H730 0.950 . S
C735 C737 1.327 . S
C735 C741 1.429 . S
C736 C728 1.574 1_556 S
C736 H731 0.949 . S
C736 C742 1.368 . S
C737 C721 1.349 . S
C737 H729 0.950 . S
C737 C735 1.327 . S
C738 C726 1.349 . S
C738 H732 0.950 . S
C738 C739 1.327 . S
C739 H733 0.950 . S
C739 C738 1.327 . S
C739 C743 1.429 . S
C740 C723 1.574 1_554 S
C740 H734 0.949 . S
C740 C744 1.368 . S
C741 C722 1.429 . S
C741 C735 1.429 . S
C741 C742 1.523 . S
C742 C723 1.368 . S
C742 C736 1.368 . S
C742 C741 1.523 . S
C743 C727 1.429 . S
C743 C739 1.429 . S
C743 C744 1.523 . S
C744 C728 1.368 . S
C744 C740 1.368 . S
C744 C743 1.523 . S
H745 C720 0.950 . S
H746 C722 0.950 . S
H747 C723 0.949 . S
H748 C725 0.950 . S
H749 C727 0.950 . S
C750 C751 1.349 . S
C750 C752 1.327 . S
C750 H775 0.950 . S
C751 C750 1.349 . S
C751 C767 1.349 . S
C752 C750 1.327 . S
C752 C771 1.429 . S
C752 H776 0.950 . S
C753 C770 1.574 . S
C753 C772 1.368 . S
C753 H777 0.949 . S
H754 C758 0.949 . S
C755 C756 1.349 . S
C755 C757 1.327 . S
C755 H778 0.950 . S
C756 C755 1.349 . S
C756 C768 1.349 . S
C757 C755 1.327 . S
C757 C773 1.429 . S
C757 H779 0.950 . S
C758 H754 0.949 . S
C758 C766 1.574 . S
C758 C774 1.368 . S
H759 C767 0.950 . S
H760 C765 0.950 . S
H761 C766 0.949 . S
H762 C768 0.950 . S
H763 C769 0.950 . S
H764 C770 0.949 . S
C765 H760 0.950 . S
C765 C767 1.327 . S
C765 C771 1.429 . S
C766 C758 1.574 . S
C766 H761 0.949 . S
C766 C772 1.368 . S
C767 C751 1.349 . S
C767 H759 0.950 . S
C767 C765 1.327 . S
C768 C756 1.349 . S
C768 H762 0.950 . S
C768 C769 1.327 . S
C769 H763 0.950 . S
C769 C768 1.327 . S
C769 C773 1.429 . S
C770 C753 1.574 . S
C770 H764 0.949 . S
C770 C774 1.368 . S
C771 C752 1.429 . S
C771 C765 1.429 . S
C771 C772 1.523 . S
C772 C753 1.368 . S
C772 C766 1.368 . S
C772 C771 1.523 . S
C773 C757 1.429 . S
C773 C769 1.429 . S
C773 C774 1.523 . S
C774 C758 1.368 . S
C774 C770 1.368 . S
C774 C773 1.523 . S
H775 C750 0.950 . S
H776 C752 0.950 . S
H777 C753 0.949 . S
H778 C755 0.950 . S
H779 C757 0.950 . S
C780 C781 1.349 . S
C780 C782 1.327 . S
C780 H805 0.950 . S
C781 C780 1.349 . S
C781 C797 1.349 . S
C782 C780 1.327 . S
C782 C801 1.429 . S
C782 H806 0.950 . S
C783 C800 1.574 . S
C783 C802 1.368 . S
C783 H807 0.949 . S
H784 C788 0.949 . S
C785 C786 1.349 . S
C785 C787 1.327 . S
C785 H808 0.950 . S
C786 C785 1.349 . S
C786 C798 1.349 . S
C787 C785 1.327 . S
C787 C803 1.429 . S
C787 H809 0.950 . S
C788 H784 0.949 . S
C788 C796 1.574 . S
C788 C804 1.368 . S
H789 C797 0.950 . S
H790 C795 0.950 . S
H791 C796 0.949 . S
H792 C798 0.950 . S
H793 C799 0.950 . S
H794 C800 0.949 . S
C795 H790 0.950 . S
C795 C797 1.327 . S
C795 C801 1.429 . S
C796 C788 1.574 . S
C796 H791 0.949 . S
C796 C802 1.368 . S
C797 C781 1.349 . S
C797 H789 0.950 . S
C797 C795 1.327 . S
C798 C786 1.349 . S
C798 H792 0.950 . S
C798 C799 1.327 . S
C799 H793 0.950 . S
C799 C798 1.327 . S
C799 C803 1.429 . S
C800 C783 1.574 . S
C800 H794 0.949 . S
C800 C804 1.368 . S
C801 C782 1.429 . S
C801 C795 1.429 . S
C801 C802 1.523 . S
C802 C783 1.368 . S
C802 C796 1.368 . S
C802 C801 1.523 . S
C803 C787 1.429 . S
C803 C799 1.429 . S
C803 C804 1.523 . S
C804 C788 1.368 . S
C804 C800 1.368 . S
C804 C803 1.523 . S
H805 C780 0.950 . S
H806 C782 0.950 . S
H807 C783 0.949 . S
H808 C785 0.950 . S
H809 C787 0.950 . S
C810 C811 1.349 . S
C810 C812 1.327 . S
C810 H835 0.950 . S
C811 C810 1.349 . S
C811 C827 1.349 . S
C812 C810 1.327 . S
C812 C831 1.429 . S
C812 H836 0.950 . S
C813 C830 1.574 . S
C813 C832 1.368 . S
C813 H837 0.949 . S
H814 C818 0.949 . S
C815 C816 1.349 . S
C815 C817 1.327 . S
C815 H838 0.950 . S
C816 C815 1.349 . S
C816 C828 1.349 . S
C817 C815 1.327 . S
C817 C833 1.429 . S
C817 H839 0.950 . S
C818 H814 0.949 . S
C818 C826 1.574 . S
C818 C834 1.368 . S
H819 C827 0.950 . S
H820 C825 0.950 . S
H821 C826 0.949 . S
H822 C828 0.950 . S
H823 C829 0.950 . S
H824 C830 0.949 . S
C825 H820 0.950 . S
C825 C827 1.327 . S
C825 C831 1.429 . S
C826 C818 1.574 . S
C826 H821 0.949 . S
C826 C832 1.368 . S
C827 C811 1.349 . S
C827 H819 0.950 . S
C827 C825 1.327 . S
C828 C816 1.349 . S
C828 H822 0.950 . S
C828 C829 1.327 . S
C829 H823 0.950 . S
C829 C828 1.327 . S
C829 C833 1.429 . S
C830 C813 1.574 . S
C830 H824 0.949 . S
C830 C834 1.368 . S
C831 C812 1.429 . S
C831 C825 1.429 . S
C831 C832 1.523 . S
C832 C813 1.368 . S
C832 C826 1.368 . S
C832 C831 1.523 . S
C833 C817 1.429 . S
C833 C829 1.429 . S
C833 C834 1.523 . S
C834 C818 1.368 . S
C834 C830 1.368 . S
C834 C833 1.523 . S
H835 C810 0.950 . S
H836 C812 0.950 . S
H837 C813 0.949 . S
H838 C815 0.950 . S
H839 C817 0.950 . S
C840 C841 1.349 . S
C840 C842 1.327 . S
C840 H865 0.950 . S
C841 C840 1.349 . S
C841 C857 1.349 . S
C842 C840 1.327 . S
C842 C861 1.429 . S
C842 H866 0.950 . S
C843 C860 1.574 1_554 S
C843 C862 1.368 . S
C843 H867 0.949 . S
H844 C848 0.949 . S
C845 C846 1.349 . S
C845 C847 1.327 . S
C845 H868 0.950 . S
C846 C845 1.349 . S
C846 C858 1.349 . S
C847 C845 1.327 . S
C847 C863 1.429 . S
C847 H869 0.950 . S
C848 H844 0.949 . S
C848 C856 1.574 1_556 S
C848 C864 1.368 . S
H849 C857 0.950 . S
H850 C855 0.950 . S
H851 C856 0.949 . S
H852 C858 0.950 . S
H853 C859 0.950 . S
H854 C860 0.949 . S
C855 H850 0.950 . S
C855 C857 1.327 . S
C855 C861 1.429 . S
C856 C848 1.574 1_554 S
C856 H851 0.949 . S
C856 C862 1.368 . S
C857 C841 1.349 . S
C857 H849 0.950 . S
C857 C855 1.327 . S
C858 C846 1.349 . S
C858 H852 0.950 . S
C858 C859 1.327 . S
C859 H853 0.950 . S
C859 C858 1.327 . S
C859 C863 1.429 . S
C860 C843 1.574 1_556 S
C860 H854 0.949 . S
C860 C864 1.368 . S
C861 C842 1.429 . S
C861 C855 1.429 . S
C861 C862 1.523 . S
C862 C843 1.368 . S
C862 C856 1.368 . S
C862 C861 1.523 . S
C863 C847 1.429 . S
C863 C859 1.429 . S
C863 C864 1.523 . S
C864 C848 1.368 . S
C864 C860 1.368 . S
C864 C863 1.523 . S
H865 C840 0.950 . S
H866 C842 0.950 . S
H867 C843 0.949 . S
H868 C845 0.950 . S
H869 C847 0.950 . S
C870 C871 1.349 . S
C870 C872 1.327 . S
C870 H895 0.950 . S
C871 C870 1.349 . S
C871 C887 1.349 . S
C872 C870 1.327 . S
C872 C891 1.429 . S
C872 H896 0.950 . S
C873 C890 1.574 . S
C873 C892 1.368 . S
C873 H897 0.949 . S
H874 C878 0.949 . S
C875 C876 1.349 . S
C875 C877 1.327 . S
C875 H898 0.950 . S
C876 C875 1.349 . S
C876 C888 1.349 . S
C877 C875 1.327 . S
C877 C893 1.429 . S
C877 H899 0.950 . S
C878 H874 0.949 . S
C878 C886 1.574 . S
C878 C894 1.368 . S
H879 C887 0.950 . S
H880 C885 0.950 . S
H881 C886 0.949 . S
H882 C888 0.950 . S
H883 C889 0.950 . S
H884 C890 0.949 . S
C885 H880 0.950 . S
C885 C887 1.327 . S
C885 C891 1.429 . S
C886 C878 1.574 . S
C886 H881 0.949 . S
C886 C892 1.368 . S
C887 C871 1.349 . S
C887 H879 0.950 . S
C887 C885 1.327 . S
C888 C876 1.349 . S
C888 H882 0.950 . S
C888 C889 1.327 . S
C889 H883 0.950 . S
C889 C888 1.327 . S
C889 C893 1.429 . S
C890 C873 1.574 . S
C890 H884 0.949 . S
C890 C894 1.368 . S
C891 C872 1.429 . S
C891 C885 1.429 . S
C891 C892 1.523 . S
C892 C873 1.368 . S
C892 C886 1.368 . S
C892 C891 1.523 . S
C893 C877 1.429 . S
C893 C889 1.429 . S
C893 C894 1.523 . S
C894 C878 1.368 . S
C894 C890 1.368 . S
C894 C893 1.523 . S
H895 C870 0.950 . S
H896 C872 0.950 . S
H897 C873 0.949 . S
H898 C875 0.950 . S
H899 C877 0.950 . S
C900 C901 1.349 . S
C900 C902 1.327 . S
C900 H925 0.950 . S
C901 C900 1.349 . S
C901 C917 1.349 . S
C902 C900 1.327 . S
C902 C921 1.429 . S
C902 H926 0.950 . S
C903 C920 1.574 . S
C903 C922 1.368 . S
C903 H927 0.949 . S
H904 C908 0.949 . S
C905 C906 1.349 . S
C905 C907 1.327 . S
C905 H928 0.950 . S
C906 C905 1.349 . S
C906 C918 1.349 . S
C907 C905 1.327 . S
C907 C923 1.429 . S
C907 H929 0.950 . S
C908 H904 0.949 . S
C908 C916 1.574 . S
C908 C924 1.368 . S
H909 C917 0.950 . S
H910 C915 0.950 . S
H911 C916 0.949 . S
H912 C918 0.950 . S
H913 C919 0.950 . S
H914 C920 0.949 . S
C915 H910 0.950 . S
C915 C917 1.327 . S
C915 C921 1.429 . S
C916 C908 1.574 . S
C916 H911 0.949 . S
C916 C922 1.368 . S
C917 C901 1.349 . S
C917 H909 0.950 . S
C917 C915 1.327 . S
C918 C906 1.349 . S
C918 H912 0.950 . S
C918 C919 1.327 . S
C919 H913 0.950 . S
C919 C918 1.327 . S
C919 C923 1.429 . S
C920 C903 1.574 . S
C920 H914 0.949 . S
C920 C924 1.368 . S
C921 C902 1.429 . S
C921 C915 1.429 . S
C921 C922 1.523 . S
C922 C903 1.368 . S
C922 C916 1.368 . S
C922 C921 1.523 . S
C923 C907 1.429 . S
C923 C919 1.429 . S
C923 C924 1.523 . S
C924 C908 1.368 . S
C924 C920 1.368 . S
C924 C923 1.523 . S
H925 C900 0.950 . S
H926 C902 0.950 . S
H927 C903 0.949 . S
H928 C905 0.950 . S
H929 C907 0.950 . S
C930 C931 1.349 . S
C930 C932 1.327 . S
C930 H955 0.950 . S
C931 C930 1.349 . S
C931 C947 1.349 . S
C932 C930 1.327 . S
C932 C951 1.429 . S
C932 H956 0.950 . S
C933 C950 1.574 . S
C933 C952 1.368 . S
C933 H957 0.949 . S
H934 C938 0.949 . S
C935 C936 1.349 . S
C935 C937 1.327 . S
C935 H958 0.950 . S
C936 C935 1.349 . S
C936 C948 1.349 . S
C937 C935 1.327 . S
C937 C953 1.429 . S
C937 H959 0.950 . S
C938 H934 0.949 . S
C938 C946 1.574 . S
C938 C954 1.368 . S
H939 C947 0.950 . S
H940 C945 0.950 . S
H941 C946 0.949 . S
H942 C948 0.950 . S
H943 C949 0.950 . S
H944 C950 0.949 . S
C945 H940 0.950 . S
C945 C947 1.327 . S
C945 C951 1.429 . S
C946 C938 1.574 . S
C946 H941 0.949 . S
C946 C952 1.368 . S
C947 C931 1.349 . S
C947 H939 0.950 . S
C947 C945 1.327 . S
C948 C936 1.349 . S
C948 H942 0.950 . S
C948 C949 1.327 . S
C949 H943 0.950 . S
C949 C948 1.327 . S
C949 C953 1.429 . S
C950 C933 1.574 . S
C950 H944 0.949 . S
C950 C954 1.368 . S
C951 C932 1.429 . S
C951 C945 1.429 . S
C951 C952 1.523 . S
C952 C933 1.368 . S
C952 C946 1.368 . S
C952 C951 1.523 . S
C953 C937 1.429 . S
C953 C949 1.429 . S
C953 C954 1.523 . S
C954 C938 1.368 . S
C954 C950 1.368 . S
C954 C953 1.523 . S
H955 C930 0.950 . S
H956 C932 0.950 . S
H957 C933 0.949 . S
H958 C935 0.950 . S
H959 C937 0.950 . S
C960 C961 1.349 . S
C960 C962 1.327 . S
C960 H985 0.950 . S
C961 C960 1.349 . S
C961 C977 1.349 . S
C962 C960 1.327 . S
C962 C981 1.429 . S
C962 H986 0.950 . S
C963 C980 1.574 . S
C963 C982 1.368 . S
C963 H987 0.949 . S
H964 C968 0.949 . S
C965 C966 1.349 . S
C965 C967 1.327 . S
C965 H988 0.950 . S
C966 C965 1.349 . S
C966 C978 1.349 . S
C967 C965 1.327 . S
C967 C983 1.429 . S
C967 H989 0.950 . S
C968 H964 0.949 . S
C968 C976 1.574 . S
C968 C984 1.368 . S
H969 C977 0.950 . S
H970 C975 0.950 . S
H971 C976 0.949 . S
H972 C978 0.950 . S
H973 C979 0.950 . S
H974 C980 0.949 . S
C975 H970 0.950 . S
C975 C977 1.327 . S
C975 C981 1.429 . S
C976 C968 1.574 . S
C976 H971 0.949 . S
C976 C982 1.368 . S
C977 C961 1.349 . S
C977 H969 0.950 . S
C977 C975 1.327 . S
C978 C966 1.349 . S
C978 H972 0.950 . S
C978 C979 1.327 . S
C979 H973 0.950 . S
C979 C978 1.327 . S
C979 C983 1.429 . S
C980 C963 1.574 . S
C980 H974 0.949 . S
C980 C984 1.368 . S
C981 C962 1.429 . S
C981 C975 1.429 . S
C981 C982 1.523 . S
C982 C963 1.368 . S
C982 C976 1.368 . S
C982 C981 1.523 . S
C983 C967 1.429 . S
C983 C979 1.429 . S
C983 C984 1.523 . S
C984 C968 1.368 . S
C984 C980 1.368 . S
C984 C983 1.523 . S
H985 C960 0.950 . S
H986 C962 0.950 . S
H987 C963 0.949 . S
H988 C965 0.950 . S
H989 C967 0.950 . S
C990 C991 1.349 . S
C990 C992 1.311 1_545 S
C990 H1015 0.950 . S
C991 C990 1.349 . S
C991 C1007 1.349 . S
C992 C990 1.311 1_565 S
C992 C1011 1.440 . S
C992 H1016 0.955 . S
C993 C1010 1.574 . S
C993 C1012 1.368 . S
C993 H1017 0.949 . S
H994 C998 0.949 . S
C995 C996 1.349 . S
C995 C997 1.327 . S
C995 H1018 0.950 . S
C996 C995 1.349 . S
C996 C1008 1.349 . S
C997 C995 1.327 . S
C997 C1013 1.429 . S
C997 H1019 0.950 . S
C998 H994 0.949 . S
C998 C1006 1.574 . S
C998 C1014 1.368 . S
H999 C1007 0.950 . S
H1000 C1005 0.950 . S
H1001 C1006 0.949 . S
H1002 C1008 0.950 . S
H1003 C1009 0.950 . S
H1004 C1010 0.949 . S
C1005 H1000 0.950 . S
C1005 C1007 1.327 1_565 S
C1005 C1011 1.429 . S
C1006 C998 1.574 . S
C1006 H1001 0.949 . S
C1006 C1012 1.368 . S
C1007 C991 1.349 . S
C1007 H999 0.950 . S
C1007 C1005 1.327 1_545 S
C1008 C996 1.349 . S
C1008 H1002 0.950 . S
C1008 C1009 1.327 . S
C1009 H1003 0.950 . S
C1009 C1008 1.327 . S
C1009 C1013 1.429 . S
C1010 C993 1.574 . S
C1010 H1004 0.949 . S
C1010 C1014 1.368 . S
C1011 C992 1.440 . S
C1011 C1005 1.429 . S
C1011 C1012 1.523 . S
C1012 C993 1.368 . S
C1012 C1006 1.368 . S
C1012 C1011 1.523 . S
C1013 C997 1.429 . S
C1013 C1009 1.429 . S
C1013 C1014 1.523 . S
C1014 C998 1.368 . S
C1014 C1010 1.368 . S
C1014 C1013 1.523 . S
H1015 C990 0.950 . S
H1016 C992 0.955 . S
H1017 C993 0.949 . S
H1018 C995 0.950 . S
H1019 C997 0.950 . S
C1020 C1021 1.349 . S
C1020 C1022 1.327 . S
C1020 H1045 0.950 . S
C1021 C1020 1.349 . S
C1021 C1037 1.349 . S
C1022 C1020 1.327 . S
C1022 C1041 1.429 . S
C1022 H1046 0.950 . S
C1023 C1040 1.575 1_554 S
C1023 C1042 1.368 . S
C1023 H1047 0.949 . S
H1024 C1028 0.949 . S
C1025 C1026 1.349 . S
C1025 C1027 1.327 . S
C1025 H1048 0.950 . S
C1026 C1025 1.349 . S
C1026 C1038 1.349 . S
C1027 C1025 1.327 . S
C1027 C1043 1.429 . S
C1027 H1049 0.950 . S
C1028 H1024 0.949 . S
C1028 C1036 1.574 1_556 S
C1028 C1044 1.368 . S
H1029 C1037 0.950 . S
H1030 C1035 0.950 . S
H1031 C1036 0.949 . S
H1032 C1038 0.950 . S
H1033 C1039 0.950 . S
H1034 C1040 0.947 . S
C1035 H1030 0.950 . S
C1035 C1037 1.327 . S
C1035 C1041 1.429 . S
C1036 C1028 1.574 1_554 S
C1036 H1031 0.949 . S
C1036 C1042 1.368 . S
C1037 C1021 1.349 . S
C1037 H1029 0.950 . S
C1037 C1035 1.327 . S
C1038 C1026 1.349 . S
C1038 H1032 0.950 . S
C1038 C1039 1.327 . S
C1039 H1033 0.950 . S
C1039 C1038 1.327 . S
C1039 C1043 1.429 . S
C1040 C1023 1.575 1_556 S
C1040 H1034 0.947 . S
C1040 C1044 1.367 . S
C1041 C1022 1.429 . S
C1041 C1035 1.429 . S
C1041 C1042 1.523 . S
C1042 C1023 1.368 . S
C1042 C1036 1.368 . S
C1042 C1041 1.523 . S
C1043 C1027 1.429 . S
C1043 C1039 1.429 . S
C1043 C1044 1.523 . S
C1044 C1028 1.368 . S
C1044 C1040 1.367 . S
C1044 C1043 1.523 . S
H1045 C1020 0.950 . S
H1046 C1022 0.950 . S
H1047 C1023 0.949 . S
H1048 C1025 0.950 . S
H1049 C1027 0.950 . S
C1050 C1051 1.349 . S
C1050 C1052 1.327 . S
C1050 H1075 0.950 . S
C1051 C1050 1.349 . S
C1051 C1067 1.349 . S
C1052 C1050 1.327 . S
C1052 C1071 1.429 . S
C1052 H1076 0.950 . S
C1053 C1070 1.574 . S
C1053 C1072 1.368 . S
C1053 H1077 0.949 . S
H1054 C1058 0.949 1_565 S
C1055 C1056 1.349 1_545 S
C1055 C1057 1.327 . S
C1055 H1078 0.950 . S
C1056 C1055 1.349 1_565 S
C1056 C1068 1.349 . S
C1057 C1055 1.327 . S
C1057 C1073 1.429 . S
C1057 H1079 0.950 . S
C1058 H1054 0.949 1_545 S
C1058 C1066 1.574 . S
C1058 C1074 1.368 . S
H1059 C1067 0.950 . S
H1060 C1065 0.950 . S
H1061 C1066 0.949 . S
H1062 C1068 0.950 . S
H1063 C1069 0.950 . S
H1064 C1070 0.949 . S
C1065 H1060 0.950 . S
C1065 C1067 1.327 . S
C1065 C1071 1.429 . S
C1066 C1058 1.574 . S
C1066 H1061 0.949 . S
C1066 C1072 1.368 . S
C1067 C1051 1.349 . S
C1067 H1059 0.950 . S
C1067 C1065 1.327 . S
C1068 C1056 1.349 . S
C1068 H1062 0.950 . S
C1068 C1069 1.327 . S
C1069 H1063 0.950 . S
C1069 C1068 1.327 . S
C1069 C1073 1.429 1_565 S
C1070 C1053 1.574 . S
C1070 H1064 0.949 . S
C1070 C1074 1.368 . S
C1071 C1052 1.429 . S
C1071 C1065 1.429 . S
C1071 C1072 1.523 . S
C1072 C1053 1.368 . S
C1072 C1066 1.368 . S
C1072 C1071 1.523 . S
C1073 C1057 1.429 . S
C1073 C1069 1.429 1_545 S
C1073 C1074 1.523 . S
C1074 C1058 1.368 . S
C1074 C1070 1.368 . S
C1074 C1073 1.523 . S
H1075 C1050 0.950 . S
H1076 C1052 0.950 . S
H1077 C1053 0.949 . S
H1078 C1055 0.950 . S
H1079 C1057 0.950 . S
C1080 C1081 1.349 . S
C1080 C1082 1.327 . S
C1080 H1105 0.950 . S
C1081 C1080 1.349 . S
C1081 C1097 1.349 . S
C1082 C1080 1.327 . S
C1082 C1101 1.429 . S
C1082 H1106 0.950 . S
C1083 C1100 1.574 . S
C1083 C1102 1.368 . S
C1083 H1107 0.949 . S
H1084 C1088 0.949 . S
C1085 C1086 1.349 . S
C1085 C1087 1.327 . S
C1085 H1108 0.950 . S
C1086 C1085 1.349 . S
C1086 C1098 1.349 . S
C1087 C1085 1.327 . S
C1087 C1103 1.429 . S
C1087 H1109 0.950 . S
C1088 H1084 0.949 . S
C1088 C1096 1.574 . S
C1088 C1104 1.368 . S
H1089 C1097 0.950 . S
H1090 C1095 0.950 . S
H1091 C1096 0.949 . S
H1092 C1098 0.950 . S
H1093 C1099 0.950 . S
H1094 C1100 0.949 . S
C1095 H1090 0.950 . S
C1095 C1097 1.327 . S
C1095 C1101 1.429 . S
C1096 C1088 1.574 . S
C1096 H1091 0.949 . S
C1096 C1102 1.368 . S
C1097 C1081 1.349 . S
C1097 H1089 0.950 . S
C1097 C1095 1.327 . S
C1098 C1086 1.349 . S
C1098 H1092 0.950 . S
C1098 C1099 1.327 . S
C1099 H1093 0.950 . S
C1099 C1098 1.327 . S
C1099 C1103 1.429 . S
C1100 C1083 1.574 . S
C1100 H1094 0.949 . S
C1100 C1104 1.368 . S
C1101 C1082 1.429 . S
C1101 C1095 1.429 . S
C1101 C1102 1.523 . S
C1102 C1083 1.368 . S
C1102 C1096 1.368 . S
C1102 C1101 1.523 . S
C1103 C1087 1.429 . S
C1103 C1099 1.429 . S
C1103 C1104 1.523 . S
C1104 C1088 1.368 . S
C1104 C1100 1.368 . S
C1104 C1103 1.523 . S
H1105 C1080 0.950 . S
H1106 C1082 0.950 . S
H1107 C1083 0.949 . S
H1108 C1085 0.950 . S
H1109 C1087 0.950 . S
C1110 C1111 1.349 1_545 S
C1110 C1112 1.327 . S
C1110 H1135 0.950 . S
C1111 C1110 1.349 1_565 S
C1111 C1127 1.349 . S
C1112 C1110 1.327 . S
C1112 C1131 1.429 . S
C1112 H1136 0.950 . S
C1113 C1130 1.574 . S
C1113 C1132 1.368 . S
C1113 H1137 0.949 . S
H1114 C1118 0.949 . S
C1115 C1116 1.349 . S
C1115 C1117 1.327 . S
C1115 H1138 0.950 . S
C1116 C1115 1.349 . S
C1116 C1128 1.349 . S
C1117 C1115 1.327 . S
C1117 C1133 1.429 . S
C1117 H1139 0.950 . S
C1118 H1114 0.949 . S
C1118 C1126 1.574 . S
C1118 C1134 1.368 . S
H1119 C1127 0.950 . S
H1120 C1125 0.950 . S
H1121 C1126 0.949 . S
H1122 C1128 0.950 . S
H1123 C1129 0.950 . S
H1124 C1130 0.949 . S
C1125 H1120 0.950 . S
C1125 C1127 1.327 . S
C1125 C1131 1.429 1_565 S
C1126 C1118 1.574 . S
C1126 H1121 0.949 . S
C1126 C1132 1.368 . S
C1127 C1111 1.349 . S
C1127 H1119 0.950 . S
C1127 C1125 1.327 . S
C1128 C1116 1.349 . S
C1128 H1122 0.950 . S
C1128 C1129 1.327 . S
C1129 H1123 0.950 . S
C1129 C1128 1.327 . S
C1129 C1133 1.429 . S
C1130 C1113 1.574 . S
C1130 H1124 0.949 . S
C1130 C1134 1.368 . S
C1131 C1112 1.429 . S
C1131 C1125 1.429 1_545 S
C1131 C1132 1.523 . S
C1132 C1113 1.368 . S
C1132 C1126 1.368 . S
C1132 C1131 1.523 . S
C1133 C1117 1.429 . S
C1133 C1129 1.429 . S
C1133 C1134 1.523 . S
C1134 C1118 1.368 . S
C1134 C1130 1.368 . S
C1134 C1133 1.523 . S
H1135 C1110 0.950 . S
H1136 C1112 0.950 . S
H1137 C1113 0.949 . S
H1138 C1115 0.950 . S
H1139 C1117 0.950 . S
C1140 C1141 1.349 . S
C1140 C1142 1.327 . S
C1140 H1165 0.950 . S
C1141 C1140 1.349 . S
C1141 C1157 1.349 . S
C1142 C1140 1.327 . S
C1142 C1161 1.429 . S
C1142 H1166 0.950 . S
C1143 C1160 1.574 1_554 S
C1143 C1162 1.368 . S
C1143 H1167 0.949 . S
H1144 C1148 0.949 . S
C1145 C1146 1.349 . S
C1145 C1147 1.327 . S
C1145 H1168 0.950 . S
C1146 C1145 1.349 . S
C1146 C1158 1.349 . S
C1147 C1145 1.327 . S
C1147 C1163 1.429 . S
C1147 H1169 0.950 . S
C1148 H1144 0.949 . S
C1148 C1156 1.574 1_556 S
C1148 C1164 1.368 . S
H1149 C1157 0.950 . S
H1150 C1155 0.950 . S
H1151 C1156 0.949 . S
H1152 C1158 0.950 . S
H1153 C1159 0.950 . S
H1154 C1160 0.949 . S
C1155 H1150 0.950 . S
C1155 C1157 1.327 . S
C1155 C1161 1.429 . S
C1156 C1148 1.574 1_554 S
C1156 H1151 0.949 . S
C1156 C1162 1.368 . S
C1157 C1141 1.349 . S
C1157 H1149 0.950 . S
C1157 C1155 1.327 . S
C1158 C1146 1.349 . S
C1158 H1152 0.950 . S
C1158 C1159 1.327 . S
C1159 H1153 0.950 . S
C1159 C1158 1.327 . S
C1159 C1163 1.429 . S
C1160 C1143 1.574 1_556 S
C1160 H1154 0.949 . S
C1160 C1164 1.368 . S
C1161 C1142 1.429 . S
C1161 C1155 1.429 . S
C1161 C1162 1.523 . S
C1162 C1143 1.368 . S
C1162 C1156 1.368 . S
C1162 C1161 1.523 . S
C1163 C1147 1.429 . S
C1163 C1159 1.429 . S
C1163 C1164 1.523 . S
C1164 C1148 1.368 . S
C1164 C1160 1.368 . S
C1164 C1163 1.523 . S
H1165 C1140 0.950 . S
H1166 C1142 0.950 . S
H1167 C1143 0.949 . S
H1168 C1145 0.950 . S
H1169 C1147 0.950 . S
C1170 C1171 1.374 . S
C1170 C1172 1.307 1_545 S
C1170 H1195 0.946 1_545 S
C1171 C1170 1.374 . S
C1171 C1187 1.349 . S
C1172 C1170 1.307 1_565 S
C1172 C1191 1.429 . S
C1172 H1196 0.950 . S
C1173 C1190 1.574 . S
C1173 C1192 1.368 . S
C1173 H1197 0.949 . S
H1174 C1178 0.949 . S
C1175 C1176 1.349 . S
C1175 C1177 1.327 . S
C1175 H1198 0.950 . S
C1176 C1175 1.349 . S
C1176 C1188 1.349 . S
C1177 C1175 1.327 . S
C1177 C1193 1.429 . S
C1177 H1199 0.950 . S
C1178 H1174 0.949 . S
C1178 C1186 1.574 . S
C1178 C1194 1.368 . S
H1179 C1187 0.950 . S
H1180 C1185 0.950 . S
H1181 C1186 0.949 . S
H1182 C1188 0.950 . S
H1183 C1189 0.950 . S
H1184 C1190 0.949 . S
C1185 H1180 0.950 . S
C1185 C1187 1.327 . S
C1185 C1191 1.429 1_545 S
C1186 C1178 1.574 . S
C1186 H1181 0.949 . S
C1186 C1192 1.368 . S
C1187 C1171 1.349 . S
C1187 H1179 0.950 . S
C1187 C1185 1.327 . S
C1188 C1176 1.349 . S
C1188 H1182 0.950 . S
C1188 C1189 1.327 . S
C1189 H1183 0.950 . S
C1189 C1188 1.327 . S
C1189 C1193 1.429 . S
C1190 C1173 1.574 . S
C1190 H1184 0.949 . S
C1190 C1194 1.368 . S
C1191 C1172 1.429 . S
C1191 C1185 1.429 1_565 S
C1191 C1192 1.523 . S
C1192 C1173 1.368 . S
C1192 C1186 1.368 . S
C1192 C1191 1.523 . S
C1193 C1177 1.429 . S
C1193 C1189 1.429 . S
C1193 C1194 1.523 . S
C1194 C1178 1.368 . S
C1194 C1190 1.368 . S
C1194 C1193 1.523 . S
H1195 C1170 0.946 1_565 S
H1196 C1172 0.950 . S
H1197 C1173 0.949 . S
H1198 C1175 0.950 . S
H1199 C1177 0.950 . S
C1200 C1201 1.349 . S
C1200 C1202 1.327 . S
C1200 H1225 0.950 . S
C1201 C1200 1.349 . S
C1201 C1217 1.349 . S
C1202 C1200 1.327 . S
C1202 C1221 1.429 . S
C1202 H1226 0.950 . S
C1203 C1220 1.574 . S
C1203 C1222 1.368 . S
C1203 H1227 0.949 . S
H1204 C1208 0.949 . S
C1205 C1206 1.349 . S
C1205 C1207 1.327 . S
C1205 H1228 0.950 . S
C1206 C1205 1.349 . S
C1206 C1218 1.349 . S
C1207 C1205 1.327 . S
C1207 C1223 1.429 . S
C1207 H1229 0.950 . S
C1208 H1204 0.949 . S
C1208 C1216 1.574 . S
C1208 C1224 1.368 . S
H1209 C1217 0.950 . S
H1210 C1215 0.950 . S
H1211 C1216 0.949 . S
H1212 C1218 0.950 . S
H1213 C1219 0.950 . S
H1214 C1220 0.949 . S
C1215 H1210 0.950 . S
C1215 C1217 1.327 . S
C1215 C1221 1.429 . S
C1216 C1208 1.574 . S
C1216 H1211 0.949 . S
C1216 C1222 1.368 . S
C1217 C1201 1.349 . S
C1217 H1209 0.950 . S
C1217 C1215 1.327 . S
C1218 C1206 1.349 . S
C1218 H1212 0.950 . S
C1218 C1219 1.327 . S
C1219 H1213 0.950 . S
C1219 C1218 1.327 . S
C1219 C1223 1.429 . S
C1220 C1203 1.574 . S
C1220 H1214 0.949 . S
C1220 C1224 1.368 . S
C1221 C1202 1.429 . S
C1221 C1215 1.429 . S
C1221 C1222 1.523 . S
C1222 C1203 1.368 . S
C1222 C1216 1.368 . S
C1222 C1221 1.523 . S
C1223 C1207 1.429 . S
C1223 C1219 1.429 . S
C1223 C1224 1.523 . S
C1224 C1208 1.368 . S
C1224 C1220 1.368 . S
C1224 C1223 1.523 . S
H1225 C1200 0.950 . S
H1226 C1202 0.950 . S
H1227 C1203 0.949 . S
H1228 C1205 0.950 . S
H1229 C1207 0.950 . S
C1230 C1231 1.349 . S
C1230 C1232 1.327 . S
C1230 H1255 0.950 . S
C1231 C1230 1.349 . S
C1231 C1247 1.349 . S
C1232 C1230 1.327 . S
C1232 C1251 1.429 . S
C1232 H1256 0.950 . S
C1233 C1250 1.574 . S
C1233 C1252 1.368 . S
C1233 H1257 0.949 . S
H1234 C1238 0.949 . S
C1235 C1236 1.349 . S
C1235 C1237 1.327 . S
C1235 H1258 0.950 . S
C1236 C1235 1.349 . S
C1236 C1248 1.349 . S
C1237 C1235 1.327 . S
C1237 C1253 1.429 . S
C1237 H1259 0.950 . S
C1238 H1234 0.949 . S
C1238 C1246 1.574 . S
C1238 C1254 1.368 . S
H1239 C1247 0.950 . S
H1240 C1245 0.950 . S
H1241 C1246 0.949 . S
H1242 C1248 0.950 . S
H1243 C1249 0.950 . S
H1244 C1250 0.949 . S
C1245 H1240 0.950 . S
C1245 C1247 1.327 . S
C1245 C1251 1.429 . S
C1246 C1238 1.574 . S
C1246 H1241 0.949 . S
C1246 C1252 1.368 . S
C1247 C1231 1.349 . S
C1247 H1239 0.950 . S
C1247 C1245 1.327 . S
C1248 C1236 1.349 . S
C1248 H1242 0.950 . S
C1248 C1249 1.327 . S
C1249 H1243 0.950 . S
C1249 C1248 1.327 . S
C1249 C1253 1.429 . S
C1250 C1233 1.574 . S
C1250 H1244 0.949 . S
C1250 C1254 1.368 . S
C1251 C1232 1.429 . S
C1251 C1245 1.429 . S
C1251 C1252 1.523 . S
C1252 C1233 1.368 . S
C1252 C1246 1.368 . S
C1252 C1251 1.523 . S
C1253 C1237 1.429 . S
C1253 C1249 1.429 . S
C1253 C1254 1.523 . S
C1254 C1238 1.368 . S
C1254 C1250 1.368 . S
C1254 C1253 1.523 . S
H1255 C1230 0.950 . S
H1256 C1232 0.950 . S
H1257 C1233 0.949 . S
H1258 C1235 0.950 . S
H1259 C1237 0.950 . S
C1260 C1261 1.349 . S
C1260 C1262 1.327 . S
C1260 H1285 0.950 . S
C1261 C1260 1.349 . S
C1261 C1277 1.349 . S
C1262 C1260 1.327 . S
C1262 C1281 1.429 . S
C1262 H1286 0.950 . S
C1263 C1280 1.574 1_655 S
C1263 C1282 1.368 . S
C1263 H1287 0.949 . S
H1264 C1268 0.949 . S
C1265 C1266 1.349 . S
C1265 C1267 1.327 . S
C1265 H1288 0.950 . S
C1266 C1265 1.349 . S
C1266 C1278 1.349 . S
C1267 C1265 1.327 . S
C1267 C1283 1.429 . S
C1267 H1289 0.950 . S
C1268 H1264 0.949 . S
C1268 C1276 1.574 1_455 S
C1268 C1284 1.368 . S
H1269 C1277 0.950 . S
H1270 C1275 0.950 . S
H1271 C1276 0.949 . S
H1272 C1278 0.950 . S
H1273 C1279 0.950 . S
H1274 C1280 0.949 . S
C1275 H1270 0.950 . S
C1275 C1277 1.327 . S
C1275 C1281 1.429 . S
C1276 C1268 1.574 1_655 S
C1276 H1271 0.949 . S
C1276 C1282 1.368 . S
C1277 C1261 1.349 . S
C1277 H1269 0.950 . S
C1277 C1275 1.327 . S
C1278 C1266 1.349 . S
C1278 H1272 0.950 . S
C1278 C1279 1.327 . S
C1279 H1273 0.950 . S
C1279 C1278 1.327 . S
C1279 C1283 1.429 . S
C1280 C1263 1.574 1_455 S
C1280 H1274 0.949 . S
C1280 C1284 1.368 . S
C1281 C1262 1.429 . S
C1281 C1275 1.429 . S
C1281 C1282 1.523 . S
C1282 C1263 1.368 . S
C1282 C1276 1.368 . S
C1282 C1281 1.523 . S
C1283 C1267 1.429 . S
C1283 C1279 1.429 . S
C1283 C1284 1.523 . S
C1284 C1268 1.368 . S
C1284 C1280 1.368 . S
C1284 C1283 1.523 . S
H1285 C1260 0.950 . S
H1286 C1262 0.950 . S
H1287 C1263 0.949 . S
H1288 C1265 0.950 . S
H1289 C1267 0.950 . S
C1290 C1291 1.349 . S
C1290 C1292 1.327 . S
C1290 H1315 0.950 . S
C1291 C1290 1.349 . S
C1291 C1307 1.349 . S
C1292 C1290 1.327 . S
C1292 C1311 1.429 . S
C1292 H1316 0.950 . S
C1293 C1310 1.574 . S
C1293 C1312 1.368 1_455 S
C1293 H1317 0.949 . S
H1294 C1298 0.949 . S
C1295 C1296 1.349 . S
C1295 C1297 1.327 . S
C1295 H1318 0.950 . S
C1296 C1295 1.349 . S
C1296 C1308 1.349 . S
C1297 C1295 1.327 . S
C1297 C1313 1.429 . S
C1297 H1319 0.950 . S
C1298 H1294 0.949 . S
C1298 C1306 1.574 . S
C1298 C1314 1.368 1_655 S
H1299 C1307 0.950 . S
H1300 C1305 0.950 . S
H1301 C1306 0.949 . S
H1302 C1308 0.950 . S
H1303 C1309 0.950 . S
H1304 C1310 0.949 . S
C1305 H1300 0.950 . S
C1305 C1307 1.327 . S
C1305 C1311 1.429 . S
C1306 C1298 1.574 . S
C1306 H1301 0.949 . S
C1306 C1312 1.368 . S
C1307 C1291 1.349 . S
C1307 H1299 0.950 . S
C1307 C1305 1.327 . S
C1308 C1296 1.349 . S
C1308 H1302 0.950 . S
C1308 C1309 1.327 . S
C1309 H1303 0.950 . S
C1309 C1308 1.327 . S
C1309 C1313 1.429 . S
C1310 C1293 1.574 . S
C1310 H1304 0.949 . S
C1310 C1314 1.368 . S
C1311 C1292 1.429 . S
C1311 C1305 1.429 . S
C1311 C1312 1.523 . S
C1312 C1293 1.368 1_655 S
C1312 C1306 1.368 . S
C1312 C1311 1.523 . S
C1313 C1297 1.429 . S
C1313 C1309 1.429 . S
C1313 C1314 1.523 . S
C1314 C1298 1.368 1_455 S
C1314 C1310 1.368 . S
C1314 C1313 1.523 . S
H1315 C1290 0.950 . S
H1316 C1292 0.950 . S
H1317 C1293 0.949 . S
H1318 C1295 0.950 . S
H1319 C1297 0.950 . S
C1320 C1321 1.349 . S
C1320 C1322 1.327 . S
C1320 H1345 0.950 . S
C1321 C1320 1.349 . S
C1321 C1337 1.349 . S
C1322 C1320 1.327 . S
C1322 C1341 1.429 . S
C1322 H1346 0.950 . S
C1323 C1340 1.574 . S
C1323 C1342 1.368 . S
C1323 H1347 0.949 . S
H1324 C1328 0.949 . S
C1325 C1326 1.349 . S
C1325 C1327 1.327 . S
C1325 H1348 0.950 . S
C1326 C1325 1.349 . S
C1326 C1338 1.349 . S
C1327 C1325 1.327 . S
C1327 C1343 1.429 . S
C1327 H1349 0.950 . S
C1328 H1324 0.949 . S
C1328 C1336 1.574 . S
C1328 C1344 1.368 . S
H1329 C1337 0.950 . S
H1330 C1335 0.950 . S
H1331 C1336 0.949 . S
H1332 C1338 0.950 . S
H1333 C1339 0.950 . S
H1334 C1340 0.949 . S
C1335 H1330 0.950 . S
C1335 C1337 1.327 . S
C1335 C1341 1.429 . S
C1336 C1328 1.574 . S
C1336 H1331 0.949 . S
C1336 C1342 1.368 . S
C1337 C1321 1.349 . S
C1337 H1329 0.950 . S
C1337 C1335 1.327 . S
C1338 C1326 1.349 . S
C1338 H1332 0.950 . S
C1338 C1339 1.327 . S
C1339 H1333 0.950 . S
C1339 C1338 1.327 . S
C1339 C1343 1.429 . S
C1340 C1323 1.574 . S
C1340 H1334 0.949 . S
C1340 C1344 1.368 . S
C1341 C1322 1.429 . S
C1341 C1335 1.429 . S
C1341 C1342 1.523 . S
C1342 C1323 1.368 . S
C1342 C1336 1.368 . S
C1342 C1341 1.523 . S
C1343 C1327 1.429 . S
C1343 C1339 1.429 . S
C1343 C1344 1.523 . S
C1344 C1328 1.368 . S
C1344 C1340 1.368 . S
C1344 C1343 1.523 . S
H1345 C1320 0.950 . S
H1346 C1322 0.950 . S
H1347 C1323 0.949 . S
H1348 C1325 0.950 . S
H1349 C1327 0.950 . S
C1350 C1351 1.349 . S
C1350 C1352 1.327 . S
C1350 H1375 0.950 . S
C1351 C1350 1.349 . S
C1351 C1367 1.349 . S
C1352 C1350 1.327 . S
C1352 C1371 1.429 . S
C1352 H1376 0.950 . S
C1353 C1370 1.574 . S
C1353 C1372 1.368 . S
C1353 H1377 0.949 . S
H1354 C1358 0.949 . S
C1355 C1356 1.349 . S
C1355 C1357 1.327 . S
C1355 H1378 0.950 . S
C1356 C1355 1.349 . S
C1356 C1368 1.349 . S
C1357 C1355 1.327 . S
C1357 C1373 1.429 . S
C1357 H1379 0.950 . S
C1358 H1354 0.949 . S
C1358 C1366 1.574 . S
C1358 C1374 1.368 . S
H1359 C1367 0.950 . S
H1360 C1365 0.950 . S
H1361 C1366 0.949 . S
H1362 C1368 0.950 . S
H1363 C1369 0.950 . S
H1364 C1370 0.949 . S
C1365 H1360 0.950 . S
C1365 C1367 1.327 . S
C1365 C1371 1.429 . S
C1366 C1358 1.574 . S
C1366 H1361 0.949 . S
C1366 C1372 1.368 . S
C1367 C1351 1.349 . S
C1367 H1359 0.950 . S
C1367 C1365 1.327 . S
C1368 C1356 1.349 . S
C1368 H1362 0.950 . S
C1368 C1369 1.327 . S
C1369 H1363 0.950 . S
C1369 C1368 1.327 . S
C1369 C1373 1.429 . S
C1370 C1353 1.574 . S
C1370 H1364 0.949 . S
C1370 C1374 1.368 . S
C1371 C1352 1.429 . S
C1371 C1365 1.429 . S
C1371 C1372 1.523 . S
C1372 C1353 1.368 . S
C1372 C1366 1.368 . S
C1372 C1371 1.523 . S
C1373 C1357 1.429 . S
C1373 C1369 1.429 . S
C1373 C1374 1.523 . S
C1374 C1358 1.368 . S
C1374 C1370 1.368 . S
C1374 C1373 1.523 . S
H1375 C1350 0.950 . S
H1376 C1352 0.950 . S
H1377 C1353 0.949 . S
H1378 C1355 0.950 . S
H1379 C1357 0.950 . S
C1380 C1381 1.349 . S
C1380 C1382 1.327 . S
C1380 H1405 0.950 . S
C1381 C1380 1.349 . S
C1381 C1397 1.349 . S
C1382 C1380 1.327 . S
C1382 C1401 1.429 . S
C1382 H1406 0.950 . S
C1383 C1400 1.574 1_455 S
C1383 C1402 1.368 . S
C1383 H1407 0.949 . S
H1384 C1388 0.949 . S
C1385 C1386 1.349 . S
C1385 C1387 1.327 . S
C1385 H1408 0.950 . S
C1386 C1385 1.349 . S
C1386 C1398 1.349 . S
C1387 C1385 1.327 . S
C1387 C1403 1.429 . S
C1387 H1409 0.950 . S
C1388 H1384 0.949 . S
C1388 C1396 1.574 1_655 S
C1388 C1404 1.368 . S
H1389 C1397 0.950 . S
H1390 C1395 0.950 . S
H1391 C1396 0.949 . S
H1392 C1398 0.950 . S
H1393 C1399 0.950 . S
H1394 C1400 0.949 . S
C1395 H1390 0.950 . S
C1395 C1397 1.327 . S
C1395 C1401 1.429 . S
C1396 C1388 1.574 1_455 S
C1396 H1391 0.949 . S
C1396 C1402 1.368 . S
C1397 C1381 1.349 . S
C1397 H1389 0.950 . S
C1397 C1395 1.327 . S
C1398 C1386 1.349 . S
C1398 H1392 0.950 . S
C1398 C1399 1.327 . S
C1399 H1393 0.950 . S
C1399 C1398 1.327 . S
C1399 C1403 1.429 . S
C1400 C1383 1.574 1_655 S
C1400 H1394 0.949 . S
C1400 C1404 1.368 . S
C1401 C1382 1.429 . S
C1401 C1395 1.429 . S
C1401 C1402 1.523 . S
C1402 C1383 1.368 . S
C1402 C1396 1.368 . S
C1402 C1401 1.523 . S
C1403 C1387 1.429 . S
C1403 C1399 1.429 . S
C1403 C1404 1.523 . S
C1404 C1388 1.368 . S
C1404 C1400 1.368 . S
C1404 C1403 1.523 . S
H1405 C1380 0.950 . S
H1406 C1382 0.950 . S
H1407 C1383 0.949 . S
H1408 C1385 0.950 . S
H1409 C1387 0.950 . S
C1410 C1411 1.349 . S
C1410 C1412 1.327 . S
C1410 H1435 0.950 . S
C1411 C1410 1.349 . S
C1411 C1427 1.349 . S
C1412 C1410 1.327 . S
C1412 C1431 1.429 . S
C1412 H1436 0.950 . S
C1413 C1430 1.574 . S
C1413 C1432 1.368 . S
C1413 H1437 0.949 . S
H1414 C1418 0.949 . S
C1415 C1416 1.349 . S
C1415 C1417 1.327 . S
C1415 H1438 0.950 . S
C1416 C1415 1.349 . S
C1416 C1428 1.349 . S
C1417 C1415 1.327 . S
C1417 C1433 1.429 . S
C1417 H1439 0.950 . S
C1418 H1414 0.949 . S
C1418 C1426 1.574 . S
C1418 C1434 1.368 . S
H1419 C1427 0.950 . S
H1420 C1425 0.950 . S
H1421 C1426 0.949 . S
H1422 C1428 0.950 . S
H1423 C1429 0.950 . S
H1424 C1430 0.949 . S
C1425 H1420 0.950 . S
C1425 C1427 1.327 . S
C1425 C1431 1.429 . S
C1426 C1418 1.574 . S
C1426 H1421 0.949 . S
C1426 C1432 1.368 1_655 S
C1427 C1411 1.349 . S
C1427 H1419 0.950 . S
C1427 C1425 1.327 . S
C1428 C1416 1.349 . S
C1428 H1422 0.950 . S
C1428 C1429 1.327 . S
C1429 H1423 0.950 . S
C1429 C1428 1.327 . S
C1429 C1433 1.429 . S
C1430 C1413 1.574 . S
C1430 H1424 0.949 . S
C1430 C1434 1.368 1_455 S
C1431 C1412 1.429 . S
C1431 C1425 1.429 . S
C1431 C1432 1.523 . S
C1432 C1413 1.368 . S
C1432 C1426 1.368 1_455 S
C1432 C1431 1.523 . S
C1433 C1417 1.429 . S
C1433 C1429 1.429 . S
C1433 C1434 1.523 . S
C1434 C1418 1.368 . S
C1434 C1430 1.368 1_655 S
C1434 C1433 1.523 . S
H1435 C1410 0.950 . S
H1436 C1412 0.950 . S
H1437 C1413 0.949 . S
H1438 C1415 0.950 . S
H1439 C1417 0.950 . S
C1440 C1441 1.349 . S
C1440 C1442 1.327 . S
C1440 H1465 0.950 . S
C1441 C1440 1.349 . S
C1441 C1457 1.349 . S
C1442 C1440 1.327 . S
C1442 C1461 1.429 . S
C1442 H1466 0.950 . S
C1443 C1460 1.574 . S
C1443 C1462 1.368 . S
C1443 H1467 0.949 . S
H1444 C1448 0.949 . S
C1445 C1446 1.349 . S
C1445 C1447 1.327 . S
C1445 H1468 0.950 . S
C1446 C1445 1.349 . S
C1446 C1458 1.349 . S
C1447 C1445 1.327 . S
C1447 C1463 1.429 . S
C1447 H1469 0.950 . S
C1448 H1444 0.949 . S
C1448 C1456 1.574 . S
C1448 C1464 1.368 . S
H1449 C1457 0.950 . S
H1450 C1455 0.950 . S
H1451 C1456 0.949 . S
H1452 C1458 0.950 . S
H1453 C1459 0.950 . S
H1454 C1460 0.949 . S
C1455 H1450 0.950 . S
C1455 C1457 1.327 . S
C1455 C1461 1.429 . S
C1456 C1448 1.574 . S
C1456 H1451 0.949 . S
C1456 C1462 1.368 . S
C1457 C1441 1.349 . S
C1457 H1449 0.950 . S
C1457 C1455 1.327 . S
C1458 C1446 1.349 . S
C1458 H1452 0.950 . S
C1458 C1459 1.327 . S
C1459 H1453 0.950 . S
C1459 C1458 1.327 . S
C1459 C1463 1.429 . S
C1460 C1443 1.574 . S
C1460 H1454 0.949 . S
C1460 C1464 1.368 . S
C1461 C1442 1.429 . S
C1461 C1455 1.429 . S
C1461 C1462 1.523 . S
C1462 C1443 1.368 . S
C1462 C1456 1.368 . S
C1462 C1461 1.523 . S
C1463 C1447 1.429 . S
C1463 C1459 1.429 . S
C1463 C1464 1.523 . S
C1464 C1448 1.368 . S
C1464 C1460 1.368 . S
C1464 C1463 1.523 . S
H1465 C1440 0.950 . S
H1466 C1442 0.950 . S
H1467 C1443 0.949 . S
H1468 C1445 0.950 . S
H1469 C1447 0.950 . S
C1470 C1471 1.349 . S
C1470 C1472 1.327 . S
C1470 H1495 0.950 . S
C1471 C1470 1.349 . S
C1471 C1487 1.349 . S
C1472 C1470 1.327 . S
C1472 C1491 1.429 . S
C1472 H1496 0.950 . S
C1473 C1490 1.574 . S
C1473 C1492 1.368 . S
C1473 H1497 0.949 . S
H1474 C1478 0.949 . S
C1475 C1476 1.349 . S
C1475 C1477 1.327 . S
C1475 H1498 0.950 . S
C1476 C1475 1.349 . S
C1476 C1488 1.349 . S
C1477 C1475 1.327 . S
C1477 C1493 1.429 . S
C1477 H1499 0.950 . S
C1478 H1474 0.949 . S
C1478 C1486 1.574 . S
C1478 C1494 1.368 . S
H1479 C1487 0.950 . S
H1480 C1485 0.950 . S
H1481 C1486 0.949 . S
H1482 C1488 0.950 . S
H1483 C1489 0.950 . S
H1484 C1490 0.949 . S
C1485 H1480 0.950 . S
C1485 C1487 1.327 . S
C1485 C1491 1.429 . S
C1486 C1478 1.574 . S
C1486 H1481 0.949 . S
C1486 C1492 1.368 . S
C1487 C1471 1.349 . S
C1487 H1479 0.950 . S
C1487 C1485 1.327 . S
C1488 C1476 1.349 . S
C1488 H1482 0.950 . S
C1488 C1489 1.327 . S
C1489 H1483 0.950 . S
C1489 C1488 1.327 . S
C1489 C1493 1.429 . S
C1490 C1473 1.574 . S
C1490 H1484 0.949 . S
C1490 C1494 1.368 . S
C1491 C1472 1.429 . S
C1491 C1485 1.429 . S
C1491 C1492 1.523 . S
C1492 C1473 1.368 . S
C1492 C1486 1.368 . S
C1492 C1491 1.523 . S
C1493 C1477 1.429 . S
C1493 C1489 1.429 . S
C1493 C1494 1.523 . S
C1494 C1478 1.368 . S
C1494 C1490 1.368 . S
C1494 C1493 1.523 . S
H1495 C1470 0.950 . S
H1496 C1472 0.950 . S
H1497 C1473 0.949 . S
H1498 C1475 0.950 . S
H1499 C1477 0.950 . S
C1500 C1501 1.349 . S
C1500 C1502 1.327 . S
C1500 H1525 0.950 . S
C1501 C1500 1.349 . S
C1501 C1517 1.349 . S
C1502 C1500 1.327 . S
C1502 C1521 1.429 . S
C1502 H1526 0.950 . S
C1503 C1520 1.574 . S
C1503 C1522 1.368 . S
C1503 H1527 0.949 . S
H1504 C1508 0.949 . S
C1505 C1506 1.349 . S
C1505 C1507 1.327 . S
C1505 H1528 0.950 . S
C1506 C1505 1.349 . S
C1506 C1518 1.349 . S
C1507 C1505 1.327 . S
C1507 C1523 1.429 . S
C1507 H1529 0.950 . S
C1508 H1504 0.949 . S
C1508 C1516 1.574 . S
C1508 C1524 1.368 . S
H1509 C1517 0.950 . S
H1510 C1515 0.950 . S
H1511 C1516 0.949 . S
H1512 C1518 0.950 . S
H1513 C1519 0.950 . S
H1514 C1520 0.949 . S
C1515 H1510 0.950 . S
C1515 C1517 1.327 . S
C1515 C1521 1.429 . S
C1516 C1508 1.574 . S
C1516 H1511 0.949 . S
C1516 C1522 1.368 . S
C1517 C1501 1.349 . S
C1517 H1509 0.950 . S
C1517 C1515 1.327 . S
C1518 C1506 1.349 . S
C1518 H1512 0.950 . S
C1518 C1519 1.327 . S
C1519 H1513 0.950 . S
C1519 C1518 1.327 . S
C1519 C1523 1.429 . S
C1520 C1503 1.574 . S
C1520 H1514 0.949 . S
C1520 C1524 1.368 . S
C1521 C1502 1.429 . S
C1521 C1515 1.429 . S
C1521 C1522 1.523 . S
C1522 C1503 1.368 . S
C1522 C1516 1.368 . S
C1522 C1521 1.523 . S
C1523 C1507 1.429 . S
C1523 C1519 1.429 . S
C1523 C1524 1.523 . S
C1524 C1508 1.368 . S
C1524 C1520 1.368 . S
C1524 C1523 1.523 . S
H1525 C1500 0.950 . S
H1526 C1502 0.950 . S
H1527 C1503 0.949 . S
H1528 C1505 0.950 . S
H1529 C1507 0.950 . S
C1530 C1531 1.349 . S
C1530 C1532 1.327 . S
C1530 H1555 0.950 . S
C1531 C1530 1.349 . S
C1531 C1547 1.349 . S
C1532 C1530 1.327 . S
C1532 C1551 1.429 1_655 S
C1532 H1556 0.950 1_655 S
C1533 C1550 1.574 . S
C1533 C1552 1.368 . S
C1533 H1557 0.949 . S
H1534 C1538 0.949 . S
C1535 C1536 1.349 . S
C1535 C1537 1.327 . S
C1535 H1558 0.950 . S
C1536 C1535 1.349 . S
C1536 C1548 1.349 . S
C1537 C1535 1.327 . S
C1537 C1553 1.429 . S
C1537 H1559 0.950 . S
C1538 H1534 0.949 . S
C1538 C1546 1.574 . S
C1538 C1554 1.368 . S
H1539 C1547 0.950 . S
H1540 C1545 0.950 . S
H1541 C1546 0.949 . S
H1542 C1548 0.950 . S
H1543 C1549 0.950 . S
H1544 C1550 0.949 . S
C1545 H1540 0.950 . S
C1545 C1547 1.327 . S
C1545 C1551 1.429 1_655 S
C1546 C1538 1.574 . S
C1546 H1541 0.949 . S
C1546 C1552 1.368 . S
C1547 C1531 1.349 . S
C1547 H1539 0.950 . S
C1547 C1545 1.327 . S
C1548 C1536 1.349 . S
C1548 H1542 0.950 . S
C1548 C1549 1.327 . S
C1549 H1543 0.950 . S
C1549 C1548 1.327 . S
C1549 C1553 1.429 . S
C1550 C1533 1.574 . S
C1550 H1544 0.949 . S
C1550 C1554 1.368 . S
C1551 C1532 1.429 1_455 S
C1551 C1545 1.429 1_455 S
C1551 C1552 1.523 . S
C1552 C1533 1.368 . S
C1552 C1546 1.368 . S
C1552 C1551 1.523 . S
C1553 C1537 1.429 . S
C1553 C1549 1.429 . S
C1553 C1554 1.523 . S
C1554 C1538 1.368 . S
C1554 C1550 1.368 . S
C1554 C1553 1.523 . S
H1555 C1530 0.950 . S
H1556 C1532 0.950 1_455 S
H1557 C1533 0.949 . S
H1558 C1535 0.950 . S
H1559 C1537 0.950 . S
C1560 C1561 1.349 . S
C1560 C1562 1.327 . S
C1560 H1585 0.950 . S
C1561 C1560 1.349 . S
C1561 C1577 1.349 . S
C1562 C1560 1.327 . S
C1562 C1581 1.429 . S
C1562 H1586 0.950 . S
C1563 C1580 1.574 . S
C1563 C1582 1.368 . S
C1563 H1587 0.949 . S
H1564 C1568 0.949 . S
C1565 C1566 1.349 . S
C1565 C1567 1.327 . S
C1565 H1588 0.950 . S
C1566 C1565 1.349 . S
C1566 C1578 1.349 . S
C1567 C1565 1.327 . S
C1567 C1583 1.429 . S
C1567 H1589 0.950 . S
C1568 H1564 0.949 . S
C1568 C1576 1.574 . S
C1568 C1584 1.368 . S
H1569 C1577 0.950 . S
H1570 C1575 0.950 . S
H1571 C1576 0.949 . S
H1572 C1578 0.950 . S
H1573 C1579 0.950 . S
H1574 C1580 0.949 . S
C1575 H1570 0.950 . S
C1575 C1577 1.327 . S
C1575 C1581 1.429 . S
C1576 C1568 1.574 . S
C1576 H1571 0.949 . S
C1576 C1582 1.368 . S
C1577 C1561 1.349 . S
C1577 H1569 0.950 . S
C1577 C1575 1.327 . S
C1578 C1566 1.349 . S
C1578 H1572 0.950 . S
C1578 C1579 1.327 . S
C1579 H1573 0.950 . S
C1579 C1578 1.327 . S
C1579 C1583 1.429 . S
C1580 C1563 1.574 . S
C1580 H1574 0.949 . S
C1580 C1584 1.368 . S
C1581 C1562 1.429 . S
C1581 C1575 1.429 . S
C1581 C1582 1.523 . S
C1582 C1563 1.368 . S
C1582 C1576 1.368 . S
C1582 C1581 1.523 . S
C1583 C1567 1.429 . S
C1583 C1579 1.429 . S
C1583 C1584 1.523 . S
C1584 C1568 1.368 . S
C1584 C1580 1.368 . S
C1584 C1583 1.523 . S
H1585 C1560 0.950 . S
H1586 C1562 0.950 . S
H1587 C1563 0.949 . S
H1588 C1565 0.950 . S
H1589 C1567 0.950 . S
C1590 C1591 1.349 . S
C1590 C1592 1.327 . S
C1590 H1615 0.950 . S
C1591 C1590 1.349 . S
C1591 C1607 1.349 . S
C1592 C1590 1.327 . S
C1592 C1611 1.429 . S
C1592 H1616 0.950 . S
C1593 C1610 1.574 . S
C1593 C1612 1.368 . S
C1593 H1617 0.949 . S
H1594 C1598 0.949 . S
C1595 C1596 1.349 . S
C1595 C1597 1.327 . S
C1595 H1618 0.950 . S
C1596 C1595 1.349 . S
C1596 C1608 1.349 . S
C1597 C1595 1.327 . S
C1597 C1613 1.429 . S
C1597 H1619 0.950 . S
C1598 H1594 0.949 . S
C1598 C1606 1.574 . S
C1598 C1614 1.368 . S
H1599 C1607 0.950 . S
H1600 C1605 0.950 . S
H1601 C1606 0.949 . S
H1602 C1608 0.950 . S
H1603 C1609 0.950 . S
H1604 C1610 0.949 . S
C1605 H1600 0.950 . S
C1605 C1607 1.327 . S
C1605 C1611 1.429 . S
C1606 C1598 1.574 . S
C1606 H1601 0.949 . S
C1606 C1612 1.368 . S
C1607 C1591 1.349 . S
C1607 H1599 0.950 . S
C1607 C1605 1.327 . S
C1608 C1596 1.349 . S
C1608 H1602 0.950 . S
C1608 C1609 1.327 . S
C1609 H1603 0.950 . S
C1609 C1608 1.327 . S
C1609 C1613 1.429 . S
C1610 C1593 1.574 . S
C1610 H1604 0.949 . S
C1610 C1614 1.368 . S
C1611 C1592 1.429 . S
C1611 C1605 1.429 . S
C1611 C1612 1.523 . S
C1612 C1593 1.368 . S
C1612 C1606 1.368 . S
C1612 C1611 1.523 . S
C1613 C1597 1.429 . S
C1613 C1609 1.429 . S
C1613 C1614 1.523 . S
C1614 C1598 1.368 . S
C1614 C1610 1.368 . S
C1614 C1613 1.523 . S
H1615 C1590 0.950 . S
H1616 C1592 0.950 . S
H1617 C1593 0.949 . S
H1618 C1595 0.950 . S
H1619 C1597 0.950 . S
C1620 C1621 1.349 . S
C1620 C1622 1.327 . S
C1620 H1645 0.950 . S
C1621 C1620 1.349 . S
C1621 C1637 1.349 . S
C1622 C1620 1.327 . S
C1622 C1641 1.429 . S
C1622 H1646 0.950 . S
C1623 C1640 1.574 . S
C1623 C1642 1.368 . S
C1623 H1647 0.949 . S
H1624 C1628 0.949 . S
C1625 C1626 1.349 . S
C1625 C1627 1.327 . S
C1625 H1648 0.950 . S
C1626 C1625 1.349 . S
C1626 C1638 1.349 . S
C1627 C1625 1.327 . S
C1627 C1643 1.429 . S
C1627 H1649 0.950 . S
C1628 H1624 0.949 . S
C1628 C1636 1.574 . S
C1628 C1644 1.368 . S
H1629 C1637 0.950 . S
H1630 C1635 0.950 . S
H1631 C1636 0.949 . S
H1632 C1638 0.950 . S
H1633 C1639 0.950 . S
H1634 C1640 0.949 . S
C1635 H1630 0.950 . S
C1635 C1637 1.327 . S
C1635 C1641 1.429 . S
C1636 C1628 1.574 . S
C1636 H1631 0.949 . S
C1636 C1642 1.368 . S
C1637 C1621 1.349 . S
C1637 H1629 0.950 . S
C1637 C1635 1.327 . S
C1638 C1626 1.349 . S
C1638 H1632 0.950 . S
C1638 C1639 1.327 . S
C1639 H1633 0.950 . S
C1639 C1638 1.327 . S
C1639 C1643 1.429 . S
C1640 C1623 1.574 . S
C1640 H1634 0.949 . S
C1640 C1644 1.368 . S
C1641 C1622 1.429 . S
C1641 C1635 1.429 . S
C1641 C1642 1.523 . S
C1642 C1623 1.368 . S
C1642 C1636 1.368 . S
C1642 C1641 1.523 . S
C1643 C1627 1.429 . S
C1643 C1639 1.429 . S
C1643 C1644 1.523 . S
C1644 C1628 1.368 . S
C1644 C1640 1.368 . S
C1644 C1643 1.523 . S
H1645 C1620 0.950 . S
H1646 C1622 0.950 . S
H1647 C1623 0.949 . S
H1648 C1625 0.950 . S
H1649 C1627 0.950 . S
C1650 C1651 1.349 . S
C1650 C1652 1.327 . S
C1650 H1675 0.950 . S
C1651 C1650 1.349 . S
C1651 C1667 1.349 . S
C1652 C1650 1.327 . S
C1652 C1671 1.429 . S
C1652 H1676 0.950 . S
C1653 C1670 1.574 . S
C1653 C1672 1.368 . S
C1653 H1677 0.949 . S
H1654 C1658 0.949 . S
C1655 C1656 1.349 . S
C1655 C1657 1.327 . S
C1655 H1678 0.950 . S
C1656 C1655 1.349 . S
C1656 C1668 1.349 . S
C1657 C1655 1.327 . S
C1657 C1673 1.429 1_455 S
C1657 H1679 0.950 1_455 S
C1658 H1654 0.949 . S
C1658 C1666 1.574 . S
C1658 C1674 1.368 . S
H1659 C1667 0.950 . S
H1660 C1665 0.950 . S
H1661 C1666 0.949 . S
H1662 C1668 0.950 . S
H1663 C1669 0.950 . S
H1664 C1670 0.949 . S
C1665 H1660 0.950 . S
C1665 C1667 1.327 . S
C1665 C1671 1.429 . S
C1666 C1658 1.574 . S
C1666 H1661 0.949 . S
C1666 C1672 1.368 . S
C1667 C1651 1.349 . S
C1667 H1659 0.950 . S
C1667 C1665 1.327 . S
C1668 C1656 1.349 . S
C1668 H1662 0.950 . S
C1668 C1669 1.327 . S
C1669 H1663 0.950 . S
C1669 C1668 1.327 . S
C1669 C1673 1.429 1_455 S
C1670 C1653 1.574 . S
C1670 H1664 0.949 . S
C1670 C1674 1.368 . S
C1671 C1652 1.429 . S
C1671 C1665 1.429 . S
C1671 C1672 1.523 . S
C1672 C1653 1.368 . S
C1672 C1666 1.368 . S
C1672 C1671 1.523 . S
C1673 C1657 1.429 1_655 S
C1673 C1669 1.429 1_655 S
C1673 C1674 1.523 . S
C1674 C1658 1.368 . S
C1674 C1670 1.368 . S
C1674 C1673 1.523 . S
H1675 C1650 0.950 . S
H1676 C1652 0.950 . S
H1677 C1653 0.949 . S
H1678 C1655 0.950 . S
H1679 C1657 0.950 1_655 S
C1680 C1681 1.349 . S
C1680 C1682 1.327 . S
C1680 H1705 0.950 . S
C1681 C1680 1.349 . S
C1681 C1697 1.349 . S
C1682 C1680 1.327 . S
C1682 C1701 1.429 . S
C1682 H1706 0.950 . S
C1683 C1700 1.574 . S
C1683 C1702 1.368 . S
C1683 H1707 0.949 . S
H1684 C1688 0.949 . S
C1685 C1686 1.349 . S
C1685 C1687 1.327 . S
C1685 H1708 0.950 . S
C1686 C1685 1.349 . S
C1686 C1698 1.349 . S
C1687 C1685 1.327 . S
C1687 C1703 1.429 . S
C1687 H1709 0.950 . S
C1688 H1684 0.949 . S
C1688 C1696 1.574 . S
C1688 C1704 1.368 . S
H1689 C1697 0.950 . S
H1690 C1695 0.950 . S
H1691 C1696 0.949 . S
H1692 C1698 0.950 . S
H1693 C1699 0.950 . S
H1694 C1700 0.949 . S
C1695 H1690 0.950 . S
C1695 C1697 1.327 . S
C1695 C1701 1.429 . S
C1696 C1688 1.574 . S
C1696 H1691 0.949 . S
C1696 C1702 1.368 . S
C1697 C1681 1.349 . S
C1697 H1689 0.950 . S
C1697 C1695 1.327 . S
C1698 C1686 1.349 . S
C1698 H1692 0.950 . S
C1698 C1699 1.327 . S
C1699 H1693 0.950 . S
C1699 C1698 1.327 . S
C1699 C1703 1.429 . S
C1700 C1683 1.574 . S
C1700 H1694 0.949 . S
C1700 C1704 1.368 . S
C1701 C1682 1.429 . S
C1701 C1695 1.429 . S
C1701 C1702 1.523 . S
C1702 C1683 1.368 . S
C1702 C1696 1.368 . S
C1702 C1701 1.523 . S
C1703 C1687 1.429 . S
C1703 C1699 1.429 . S
C1703 C1704 1.523 . S
C1704 C1688 1.368 . S
C1704 C1700 1.368 . S
C1704 C1703 1.523 . S
H1705 C1680 0.950 . S
H1706 C1682 0.950 . S
H1707 C1683 0.949 . S
H1708 C1685 0.950 . S
H1709 C1687 0.950 . S
C1710 C1711 1.349 . S
C1710 C1712 1.327 . S
C1710 H1735 0.950 . S
C1711 C1710 1.349 . S
C1711 C1727 1.349 . S
C1712 C1710 1.327 . S
C1712 C1731 1.429 . S
C1712 H1736 0.950 . S
C1713 C1730 1.574 . S
C1713 C1732 1.368 . S
C1713 H1737 0.949 . S
H1714 C1718 0.949 . S
C1715 C1716 1.349 1_545 S
C1715 C1717 1.327 1_545 S
C1715 H1738 0.950 . S
C1716 C1715 1.349 1_565 S
C1716 C1728 1.349 . S
C1717 C1715 1.327 1_565 S
C1717 C1733 1.429 1_455 S
C1717 H1739 0.950 1_455 S
C1718 H1714 0.949 . S
C1718 C1726 1.574 . S
C1718 C1734 1.368 . S
H1719 C1727 0.950 . S
H1720 C1725 0.950 . S
H1721 C1726 0.949 . S
H1722 C1728 0.950 . S
H1723 C1729 0.950 . S
H1724 C1730 0.949 . S
C1725 H1720 0.950 . S
C1725 C1727 1.327 . S
C1725 C1731 1.429 . S
C1726 C1718 1.574 . S
C1726 H1721 0.949 . S
C1726 C1732 1.368 . S
C1727 C1711 1.349 . S
C1727 H1719 0.950 . S
C1727 C1725 1.327 . S
C1728 C1716 1.349 . S
C1728 H1722 0.950 . S
C1728 C1729 1.327 . S
C1729 H1723 0.950 . S
C1729 C1728 1.327 . S
C1729 C1733 1.429 1_455 S
C1730 C1713 1.574 . S
C1730 H1724 0.949 . S
C1730 C1734 1.368 . S
C1731 C1712 1.429 . S
C1731 C1725 1.429 . S
C1731 C1732 1.523 . S
C1732 C1713 1.368 . S
C1732 C1726 1.368 . S
C1732 C1731 1.523 . S
C1733 C1717 1.429 1_655 S
C1733 C1729 1.429 1_655 S
C1733 C1734 1.523 . S
C1734 C1718 1.368 . S
C1734 C1730 1.368 . S
C1734 C1733 1.523 . S
H1735 C1710 0.950 . S
H1736 C1712 0.950 . S
H1737 C1713 0.949 . S
H1738 C1715 0.950 . S
H1739 C1717 0.950 1_655 S
C1740 C1741 1.349 . S
C1740 C1742 1.327 . S
C1740 H1765 0.950 . S
C1741 C1740 1.349 . S
C1741 C1757 1.349 . S
C1742 C1740 1.327 . S
C1742 C1761 1.429 . S
C1742 H1766 0.950 . S
C1743 C1760 1.574 . S
C1743 C1762 1.368 . S
C1743 H1767 0.949 . S
H1744 C1748 0.949 . S
C1745 C1746 1.349 . S
C1745 C1747 1.327 . S
C1745 H1768 0.950 . S
C1746 C1745 1.349 . S
C1746 C1758 1.349 . S
C1747 C1745 1.327 . S
C1747 C1763 1.429 . S
C1747 H1769 0.950 . S
C1748 H1744 0.949 . S
C1748 C1756 1.574 . S
C1748 C1764 1.368 . S
H1749 C1757 0.950 . S
H1750 C1755 0.950 . S
H1751 C1756 0.949 . S
H1752 C1758 0.950 . S
H1753 C1759 0.950 . S
H1754 C1760 0.949 . S
C1755 H1750 0.950 . S
C1755 C1757 1.327 . S
C1755 C1761 1.429 . S
C1756 C1748 1.574 . S
C1756 H1751 0.949 . S
C1756 C1762 1.368 . S
C1757 C1741 1.349 . S
C1757 H1749 0.950 . S
C1757 C1755 1.327 . S
C1758 C1746 1.349 . S
C1758 H1752 0.950 . S
C1758 C1759 1.327 . S
C1759 H1753 0.950 . S
C1759 C1758 1.327 . S
C1759 C1763 1.429 . S
C1760 C1743 1.574 . S
C1760 H1754 0.949 . S
C1760 C1764 1.368 . S
C1761 C1742 1.429 . S
C1761 C1755 1.429 . S
C1761 C1762 1.523 . S
C1762 C1743 1.368 . S
C1762 C1756 1.368 . S
C1762 C1761 1.523 . S
C1763 C1747 1.429 . S
C1763 C1759 1.429 . S
C1763 C1764 1.523 . S
C1764 C1748 1.368 . S
C1764 C1760 1.368 . S
C1764 C1763 1.523 . S
H1765 C1740 0.950 . S
H1766 C1742 0.950 . S
H1767 C1743 0.949 . S
H1768 C1745 0.950 . S
H1769 C1747 0.950 . S
C1770 C1771 1.349 . S
C1770 C1772 1.327 . S
C1770 H1795 0.950 . S
C1771 C1770 1.349 . S
C1771 C1787 1.349 1_545 S
C1772 C1770 1.327 . S
C1772 C1791 1.429 . S
C1772 H1796 0.950 . S
C1773 C1790 1.574 . S
C1773 C1792 1.368 . S
C1773 H1797 0.949 . S
H1774 C1778 0.949 . S
C1775 C1776 1.349 . S
C1775 C1777 1.327 . S
C1775 H1798 0.950 . S
C1776 C1775 1.349 . S
C1776 C1788 1.349 . S
C1777 C1775 1.327 . S
C1777 C1793 1.429 . S
C1777 H1799 0.950 . S
C1778 H1774 0.949 . S
C1778 C1786 1.574 . S
C1778 C1794 1.368 . S
H1779 C1787 0.950 . S
H1780 C1785 0.950 1_565 S
H1781 C1786 0.949 . S
H1782 C1788 0.950 . S
H1783 C1789 0.950 . S
H1784 C1790 0.949 . S
C1785 H1780 0.950 1_545 S
C1785 C1787 1.327 1_545 S
C1785 C1791 1.429 . S
C1786 C1778 1.574 . S
C1786 H1781 0.949 . S
C1786 C1792 1.368 . S
C1787 C1771 1.349 1_565 S
C1787 H1779 0.950 . S
C1787 C1785 1.327 1_565 S
C1788 C1776 1.349 . S
C1788 H1782 0.950 . S
C1788 C1789 1.327 . S
C1789 H1783 0.950 . S
C1789 C1788 1.327 . S
C1789 C1793 1.429 . S
C1790 C1773 1.574 . S
C1790 H1784 0.949 . S
C1790 C1794 1.368 . S
C1791 C1772 1.429 . S
C1791 C1785 1.429 . S
C1791 C1792 1.523 . S
C1792 C1773 1.368 . S
C1792 C1786 1.368 . S
C1792 C1791 1.523 . S
C1793 C1777 1.429 . S
C1793 C1789 1.429 . S
C1793 C1794 1.523 . S
C1794 C1778 1.368 . S
C1794 C1790 1.368 . S
C1794 C1793 1.523 . S
H1795 C1770 0.950 . S
H1796 C1772 0.950 . S
H1797 C1773 0.949 . S
H1798 C1775 0.950 . S
H1799 C1777 0.950 . S
C1800 C1801 1.349 . S
C1800 C1802 1.327 . S
C1800 H1825 0.950 . S
C1801 C1800 1.349 . S
C1801 C1817 1.349 . S
C1802 C1800 1.327 . S
C1802 C1821 1.429 . S
C1802 H1826 0.950 . S
C1803 C1820 1.574 . S
C1803 C1822 1.368 . S
C1803 H1827 0.949 . S
H1804 C1808 0.949 . S
C1805 C1806 1.349 . S
C1805 C1807 1.327 . S
C1805 H1828 0.950 . S
C1806 C1805 1.349 . S
C1806 C1818 1.349 . S
C1807 C1805 1.327 . S
C1807 C1823 1.429 . S
C1807 H1829 0.950 . S
C1808 H1804 0.949 . S
C1808 C1816 1.574 . S
C1808 C1824 1.368 . S
H1809 C1817 0.950 . S
H1810 C1815 0.950 . S
H1811 C1816 0.949 . S
H1812 C1818 0.950 . S
H1813 C1819 0.950 . S
H1814 C1820 0.949 . S
C1815 H1810 0.950 . S
C1815 C1817 1.327 . S
C1815 C1821 1.429 . S
C1816 C1808 1.574 . S
C1816 H1811 0.949 . S
C1816 C1822 1.368 . S
C1817 C1801 1.349 . S
C1817 H1809 0.950 . S
C1817 C1815 1.327 . S
C1818 C1806 1.349 . S
C1818 H1812 0.950 . S
C1818 C1819 1.327 . S
C1819 H1813 0.950 . S
C1819 C1818 1.327 . S
C1819 C1823 1.429 . S
C1820 C1803 1.574 . S
C1820 H1814 0.949 . S
C1820 C1824 1.368 . S
C1821 C1802 1.429 . S
C1821 C1815 1.429 . S
C1821 C1822 1.523 . S
C1822 C1803 1.368 . S
C1822 C1816 1.368 . S
C1822 C1821 1.523 . S
C1823 C1807 1.429 . S
C1823 C1819 1.429 . S
C1823 C1824 1.523 . S
C1824 C1808 1.368 . S
C1824 C1820 1.368 . S
C1824 C1823 1.523 . S
H1825 C1800 0.950 . S
H1826 C1802 0.950 . S
H1827 C1803 0.949 . S
H1828 C1805 0.950 . S
H1829 C1807 0.950 . S
C1830 C1831 1.349 1_565 S
C1830 C1832 1.327 1_565 S
C1830 H1855 0.950 . S
C1831 C1830 1.349 1_545 S
C1831 C1847 1.349 . S
C1832 C1830 1.327 1_545 S
C1832 C1851 1.429 1_655 S
C1832 H1856 0.950 1_655 S
C1833 C1850 1.574 . S
C1833 C1852 1.368 . S
C1833 H1857 0.949 . S
H1834 C1838 0.949 . S
C1835 C1836 1.349 . S
C1835 C1837 1.327 . S
C1835 H1858 0.950 . S
C1836 C1835 1.349 . S
C1836 C1848 1.349 . S
C1837 C1835 1.327 . S
C1837 C1853 1.429 . S
C1837 H1859 0.950 . S
C1838 H1834 0.949 . S
C1838 C1846 1.574 . S
C1838 C1854 1.368 . S
H1839 C1847 0.950 . S
H1840 C1845 0.950 . S
H1841 C1846 0.949 . S
H1842 C1848 0.950 . S
H1843 C1849 0.950 . S
H1844 C1850 0.949 . S
C1845 H1840 0.950 . S
C1845 C1847 1.327 . S
C1845 C1851 1.429 1_655 S
C1846 C1838 1.574 . S
C1846 H1841 0.949 . S
C1846 C1852 1.368 . S
C1847 C1831 1.349 . S
C1847 H1839 0.950 . S
C1847 C1845 1.327 . S
C1848 C1836 1.349 . S
C1848 H1842 0.950 . S
C1848 C1849 1.327 . S
C1849 H1843 0.950 . S
C1849 C1848 1.327 . S
C1849 C1853 1.429 . S
C1850 C1833 1.574 . S
C1850 H1844 0.949 . S
C1850 C1854 1.368 . S
C1851 C1832 1.429 1_455 S
C1851 C1845 1.429 1_455 S
C1851 C1852 1.523 . S
C1852 C1833 1.368 . S
C1852 C1846 1.368 . S
C1852 C1851 1.523 . S
C1853 C1837 1.429 . S
C1853 C1849 1.429 . S
C1853 C1854 1.523 . S
C1854 C1838 1.368 . S
C1854 C1850 1.368 . S
C1854 C1853 1.523 . S
H1855 C1830 0.950 . S
H1856 C1832 0.950 1_455 S
H1857 C1833 0.949 . S
H1858 C1835 0.950 . S
H1859 C1837 0.950 . S
C1860 C1861 1.349 . S
C1860 C1862 1.327 . S
C1860 H1885 0.950 . S
C1861 C1860 1.349 . S
C1861 C1877 1.349 . S
C1862 C1860 1.327 . S
C1862 C1881 1.429 . S
C1862 H1886 0.950 . S
C1863 C1880 1.574 . S
C1863 C1882 1.368 . S
C1863 H1887 0.949 . S
H1864 C1868 0.949 . S
C1865 C1866 1.349 . S
C1865 C1867 1.327 . S
C1865 H1888 0.950 . S
C1866 C1865 1.349 . S
C1866 C1878 1.349 . S
C1867 C1865 1.327 . S
C1867 C1883 1.429 . S
C1867 H1889 0.950 . S
C1868 H1864 0.949 . S
C1868 C1876 1.574 . S
C1868 C1884 1.368 . S
H1869 C1877 0.950 . S
H1870 C1875 0.950 . S
H1871 C1876 0.949 . S
H1872 C1878 0.950 . S
H1873 C1879 0.950 . S
H1874 C1880 0.949 . S
C1875 H1870 0.950 . S
C1875 C1877 1.327 . S
C1875 C1881 1.429 . S
C1876 C1868 1.574 . S
C1876 H1871 0.949 . S
C1876 C1882 1.368 . S
C1877 C1861 1.349 . S
C1877 H1869 0.950 . S
C1877 C1875 1.327 . S
C1878 C1866 1.349 . S
C1878 H1872 0.950 . S
C1878 C1879 1.327 . S
C1879 H1873 0.950 . S
C1879 C1878 1.327 . S
C1879 C1883 1.429 . S
C1880 C1863 1.574 . S
C1880 H1874 0.949 . S
C1880 C1884 1.368 . S
C1881 C1862 1.429 . S
C1881 C1875 1.429 . S
C1881 C1882 1.523 . S
C1882 C1863 1.368 . S
C1882 C1876 1.368 . S
C1882 C1881 1.523 . S
C1883 C1867 1.429 . S
C1883 C1879 1.429 . S
C1883 C1884 1.523 . S
C1884 C1868 1.368 . S
C1884 C1880 1.368 . S
C1884 C1883 1.523 . S
H1885 C1860 0.950 . S
H1886 C1862 0.950 . S
H1887 C1863 0.949 . S
H1888 C1865 0.950 . S
H1889 C1867 0.950 . S
C1890 C1891 1.349 . S
C1890 C1892 1.327 . S
C1890 H1915 0.950 . S
C1891 C1890 1.349 . S
C1891 C1907 1.349 . S
C1892 C1890 1.327 . S
C1892 C1911 1.429 . S
C1892 H1916 0.950 . S
C1893 C1910 1.574 . S
C1893 C1912 1.368 . S
C1893 H1917 0.949 . S
H1894 C1898 0.949 . S
C1895 C1896 1.349 . S
C1895 C1897 1.327 . S
C1895 H1918 0.950 . S
C1896 C1895 1.349 . S
C1896 C1908 1.350 . S
C1897 C1895 1.327 . S
C1897 C1913 1.429 . S
C1897 H1919 0.950 . S
C1898 H1894 0.949 . S
C1898 C1906 1.574 . S
C1898 C1914 1.368 . S
H1899 C1907 0.950 . S
H1900 C1905 0.950 . S
H1901 C1906 0.949 . S
H1902 C1908 0.947 1_545 S
H1903 C1909 0.950 . S
H1904 C1910 0.949 . S
C1905 H1900 0.950 . S
C1905 C1907 1.327 . S
C1905 C1911 1.429 . S
C1906 C1898 1.574 . S
C1906 H1901 0.949 . S
C1906 C1912 1.368 . S
C1907 C1891 1.349 . S
C1907 H1899 0.950 . S
C1907 C1905 1.327 . S
C1908 C1896 1.350 . S
C1908 H1902 0.947 1_565 S
C1908 C1909 1.329 . S
C1909 H1903 0.950 . S
C1909 C1908 1.329 . S
C1909 C1913 1.429 . S
C1910 C1893 1.574 . S
C1910 H1904 0.949 . S
C1910 C1914 1.368 . S
C1911 C1892 1.429 . S
C1911 C1905 1.429 . S
C1911 C1912 1.523 . S
C1912 C1893 1.368 . S
C1912 C1906 1.368 . S
C1912 C1911 1.523 . S
C1913 C1897 1.429 . S
C1913 C1909 1.429 . S
C1913 C1914 1.523 . S
C1914 C1898 1.368 . S
C1914 C1910 1.368 . S
C1914 C1913 1.523 . S
H1915 C1890 0.950 . S
H1916 C1892 0.950 . S
H1917 C1893 0.949 . S
H1918 C1895 0.950 . S
H1919 C1897 0.950 . S
C481 C27 0.562 . S
C486 C376 0.562 . S
C511 C166 0.562 . S
C516 C57 0.562 . S
C541 C87 0.562 . S
C546 C436 0.562 . S
C571 C117 0.562 . S
C576 C226 0.562 . S
C601 C136 0.562 . S
C606 C267 0.562 . S
C631 C327 0.562 . S
C636 C196 0.562 . S
C661 C406 0.562 . S
C666 C297 0.562 . S
C691 C357 0.562 . S
C696 C466 0.562 . S
C721 C271 1.418 . S
C726 C16 1.407 . S
C751 C46 1.407 . S
C756 C301 1.418 . S
C781 C76 1.407 . S
C786 C331 1.418 . S
C811 C241 1.418 . S
C816 C106 1.407 . S
C841 C400 1.418 . S
C846 C147 1.407 . S
C871 C430 1.418 . S
C876 C177 1.407 . S
C901 C207 1.407 . S
C906 C460 1.418 . S
C931 C370 1.418 . S
C936 C237 1.407 . S
C961 C256 1.407 . S
C966 C31 1.418 . S
C991 C286 1.407 . S
C996 C61 1.418 . S
C1021 C316 1.407 . S
C1026 C91 1.418 . S
C1051 C1 1.418 . S
C1056 C346 1.407 . S
C1081 C160 1.418 . S
C1086 C387 1.407 . S
C1111 C417 1.407 . S
C1116 C190 1.418 . S
C1141 C220 1.418 . S
C1146 C447 1.407 . S
C1171 C477 1.407 . S
C1176 C130 1.418 . S
C1201 N14 1.374 . S
C1206 N314 1.374 . S
C1231 N44 1.374 . S
C1236 N344 1.374 . S
C1261 N254 1.374 . S
C1266 N74 1.374 . S
C1291 N104 1.374 . S
C1296 N284 1.374 . S
C1321 N126 1.374 . S
C1326 N426 1.374 . S
C1351 N156 1.374 . S
C1356 N456 1.374 . S
C1381 N366 1.374 . S
C1386 N186 1.374 . S
C1411 N216 1.374 . S
C1416 N396 1.374 . S
C1441 C10 1.048 . S
C1446 N224 1.063 . S
C1471 N374 1.063 . S
C1476 C40 1.048 . S
C1501 C70 1.048 . S
C1506 N164 1.063 . S
C1531 C100 1.048 . S
C1536 N434 1.063 . S
C1561 C121 1.048 . S
C1566 N96 1.063 . S
C1591 N246 1.063 . S
C1596 C151 1.048 . S
C1621 C181 1.048 . S
C1626 N36 1.063 . S
C1651 N306 1.063 . S
C1656 C211 1.048 . S
C1681 C250 1.048 . S
C1686 N464 1.063 . S
C1711 N134 1.063 . S
C1716 C280 1.048 1_565 S
C1741 N404 1.063 . S
C1746 C310 1.048 . S
C1771 C340 1.048 1_545 S
C1776 N194 1.063 . S
C1801 C361 1.048 . S
C1806 N336 1.063 . S
C1831 C391 1.048 1_545 S
C1836 N6 1.063 . S
C1861 N276 1.063 . S
C1866 C421 1.048 . S
C1891 N66 1.063 . S
C1896 C451 1.048 1_565 S
