# Generated by pormake.
# Topology unn, (4)-cn, num edge types: 1
# Building blocks:
#     Node 0, Type 0, BuildingBlock: ESEHIV_clean_sbu_0, # of connection points: 4
#     Node 1, Type 0, BuildingBlock: ESEHIV_clean_sbu_0, # of connection points: 4
#     Node 2, Type 0, BuildingBlock: ESEHIV_clean_sbu_0, # of connection points: 4
#     Node 3, Type 0, BuildingBlock: ESEHIV_clean_sbu_0, # of connection points: 4
#     Node 4, Type 0, BuildingBlock: ESEHIV_clean_sbu_0, # of connection points: 4
#     Node 5, Type 0, BuildingBlock: ESEHIV_clean_sbu_0, # of connection points: 4
#     Node 6, Type 0, BuildingBlock: ESEHIV_clean_sbu_0, # of connection points: 4
#     Node 7, Type 0, BuildingBlock: ESEHIV_clean_sbu_0, # of connection points: 4
#     Node 8, Type 0, BuildingBlock: ESEHIV_clean_sbu_0, # of connection points: 4
#     Node 9, Type 0, BuildingBlock: ESEHIV_clean_sbu_0, # of connection points: 4
#     Node 10, Type 0, BuildingBlock: ESEHIV_clean_sbu_0, # of connection points: 4
#     Node 11, Type 0, BuildingBlock: ESEHIV_clean_sbu_0, # of connection points: 4
#     Node 12, Type 0, BuildingBlock: ESEHIV_clean_sbu_0, # of connection points: 4
#     Node 13, Type 0, BuildingBlock: ESEHIV_clean_sbu_0, # of connection points: 4
#     Node 14, Type 0, BuildingBlock: ESEHIV_clean_sbu_0, # of connection points: 4
#     Node 15, Type 0, BuildingBlock: ESEHIV_clean_sbu_0, # of connection points: 4
#     Node 16, Type 0, BuildingBlock: ESEHIV_clean_sbu_0, # of connection points: 4
#     Node 17, Type 0, BuildingBlock: ESEHIV_clean_sbu_0, # of connection points: 4
#     Edge 18, Type (0, 0), BuildingBlock: OJICUG_clean_linker_0, # of connection points: 2
#     Edge 19, Type (0, 0), BuildingBlock: OJICUG_clean_linker_0, # of connection points: 2
#     Edge 20, Type (0, 0), BuildingBlock: OJICUG_clean_linker_0, # of connection points: 2
#     Edge 21, Type (0, 0), BuildingBlock: OJICUG_clean_linker_0, # of connection points: 2
#     Edge 22, Type (0, 0), BuildingBlock: OJICUG_clean_linker_0, # of connection points: 2
#     Edge 23, Type (0, 0), BuildingBlock: OJICUG_clean_linker_0, # of connection points: 2
#     Edge 24, Type (0, 0), BuildingBlock: OJICUG_clean_linker_0, # of connection points: 2
#     Edge 25, Type (0, 0), BuildingBlock: OJICUG_clean_linker_0, # of connection points: 2
#     Edge 26, Type (0, 0), BuildingBlock: OJICUG_clean_linker_0, # of connection points: 2
#     Edge 27, Type (0, 0), BuildingBlock: OJICUG_clean_linker_0, # of connection points: 2
#     Edge 28, Type (0, 0), BuildingBlock: OJICUG_clean_linker_0, # of connection points: 2
#     Edge 29, Type (0, 0), BuildingBlock: OJICUG_clean_linker_0, # of connection points: 2
#     Edge 30, Type (0, 0), BuildingBlock: OJICUG_clean_linker_0, # of connection points: 2
#     Edge 31, Type (0, 0), BuildingBlock: OJICUG_clean_linker_0, # of connection points: 2
#     Edge 32, Type (0, 0), BuildingBlock: OJICUG_clean_linker_0, # of connection points: 2
#     Edge 33, Type (0, 0), BuildingBlock: OJICUG_clean_linker_0, # of connection points: 2
#     Edge 34, Type (0, 0), BuildingBlock: OJICUG_clean_linker_0, # of connection points: 2
#     Edge 35, Type (0, 0), BuildingBlock: OJICUG_clean_linker_0, # of connection points: 2
#     Edge 36, Type (0, 0), BuildingBlock: OJICUG_clean_linker_0, # of connection points: 2
#     Edge 37, Type (0, 0), BuildingBlock: OJICUG_clean_linker_0, # of connection points: 2
#     Edge 38, Type (0, 0), BuildingBlock: OJICUG_clean_linker_0, # of connection points: 2
#     Edge 39, Type (0, 0), BuildingBlock: OJICUG_clean_linker_0, # of connection points: 2
#     Edge 40, Type (0, 0), BuildingBlock: OJICUG_clean_linker_0, # of connection points: 2
#     Edge 41, Type (0, 0), BuildingBlock: OJICUG_clean_linker_0, # of connection points: 2
#     Edge 42, Type (0, 0), BuildingBlock: OJICUG_clean_linker_0, # of connection points: 2
#     Edge 43, Type (0, 0), BuildingBlock: OJICUG_clean_linker_0, # of connection points: 2
#     Edge 44, Type (0, 0), BuildingBlock: OJICUG_clean_linker_0, # of connection points: 2
#     Edge 45, Type (0, 0), BuildingBlock: OJICUG_clean_linker_0, # of connection points: 2
#     Edge 46, Type (0, 0), BuildingBlock: OJICUG_clean_linker_0, # of connection points: 2
#     Edge 47, Type (0, 0), BuildingBlock: OJICUG_clean_linker_0, # of connection points: 2
#     Edge 48, Type (0, 0), BuildingBlock: OJICUG_clean_linker_0, # of connection points: 2
#     Edge 49, Type (0, 0), BuildingBlock: OJICUG_clean_linker_0, # of connection points: 2
#     Edge 50, Type (0, 0), BuildingBlock: OJICUG_clean_linker_0, # of connection points: 2
#     Edge 51, Type (0, 0), BuildingBlock: OJICUG_clean_linker_0, # of connection points: 2
#     Edge 52, Type (0, 0), BuildingBlock: OJICUG_clean_linker_0, # of connection points: 2
#     Edge 53, Type (0, 0), BuildingBlock: OJICUG_clean_linker_0, # of connection points: 2
# Relax obj value: 0.010
# Max RMSD: 0.160
# Mean RMSD: 0.158
data_MOF--net-unn--node1-ESEHIV_clean_sbu_0--edge1-OJICUG_clean_linker_0
_symmetry_space_group_name_H-M    P1
_symmetry_Int_Tables_number       1
_symmetry_cell_setting            triclinic
loop_
_symmetry_equiv_pos_as_xyz
'x, y, z'
_cell_length_a     42.108272
_cell_length_b     41.874851
_cell_length_c     30.549659
_cell_angle_alpha  89.921696
_cell_angle_beta   90.376052
_cell_angle_gamma 119.86392
loop_
_atom_site_label
_atom_site_type_symbol
_atom_site_fract_x
_atom_site_fract_y
_atom_site_fract_z
_atom_type_partial_charge
Cu0 Cu 0.03234 0.74957 0.28938 0.0
N1 N 0.0705 0.79509 0.30868 0.0
N2 N 0.12629 0.83265 0.33674 0.0
C3 C 0.10587 0.80366 0.31017 0.0
C4 C 0.10294 0.8435 0.3514 0.0
C5 C 0.06854 0.82016 0.33427 0.0
O6 O 1.02209 0.71657 0.33864 0.0
C7 C 0.03045 0.70824 0.21283 0.0
O8 O 0.99795 0.68249 0.22568 0.0
H9 H 0.11577 0.7872 0.29441 0.0
H10 H 0.04345 0.81969 0.34283 0.0
N11 N 0.98897 0.75056 0.27792 0.0
N12 N 0.93299 0.73233 0.25027 0.0
C13 C 0.96616 0.73554 0.24332 0.0
C14 C 0.96976 0.75768 0.30748 0.0
C15 C 0.93541 0.74673 0.2905 0.0
C16 C 0.04693 0.71435 0.3601 0.0
O17 O 0.07992 0.72858 0.3436 0.0
H18 H 0.97314 0.7257 0.21435 0.0
H19 H 0.97905 0.76746 0.34041 0.0
O20 O 0.04899 0.73659 0.23664 0.0
H21 H 0.10948 0.86481 0.37556 0.0
H22 H 0.91314 0.74685 0.30783 0.0
Cu23 Cu 0.30798 0.30284 0.27304 0.0
N24 N 0.30379 0.25706 0.26103 0.0
N25 N 0.32053 0.21757 0.23521 0.0
C26 C 0.32771 0.25275 0.23622 0.0
C27 C 0.29068 0.19884 0.26064 0.0
C28 C 0.28043 0.22331 0.27655 0.0
O29 O 0.32586 0.33136 0.21978 0.0
C30 C 0.32515 0.30961 0.36099 0.0
O31 O 0.29099 0.2827 0.36189 0.0
H32 H 0.35087 0.27532 0.22048 0.0
H33 H 0.2581 0.21707 0.2986 0.0
N34 N 0.26361 0.30061 0.28618 0.0
N35 N 0.2262 0.31913 0.31362 0.0
C36 C 0.26125 0.32782 0.3066 0.0
C37 C 0.22887 0.27367 0.27953 0.0
C38 C 0.20571 0.28501 0.29644 0.0
C39 C 0.35819 0.34499 0.20504 0.0
O40 O 0.38387 0.34504 0.22976 0.0
H41 H 0.28506 0.35349 0.31619 0.0
H42 H 0.22096 0.24752 0.26407 0.0
O43 O 0.33956 0.32345 0.32414 0.0
H44 H 0.2773 0.16966 0.26757 0.0
H45 H 0.17612 0.26891 0.29697 0.0
Cu46 Cu 0.76127 0.02465 0.28074 0.0
N47 N 0.764 0.98252 0.29382 0.0
N48 N 0.74576 0.92616 0.32014 0.0
C49 C 0.73819 0.95379 0.31644 0.0
C50 C 0.77766 0.93802 0.29867 0.0
C51 C 0.78885 0.97286 0.28243 0.0
O52 O 0.74159 0.03619 0.33137 0.0
C53 C 0.74335 1.01331 0.19291 0.0
O54 O 0.77739 0.02031 0.19085 0.0
H55 H 0.71387 0.95301 0.32911 0.0
H56 H 0.81311 0.98972 0.26337 0.0
N57 N 0.80602 0.06626 0.26769 0.0
N58 N 0.84431 0.12207 0.24051 0.0
C59 C 0.8091 0.09522 0.24496 0.0
C60 C 0.84041 0.07494 0.27843 0.0
C61 C 0.86414 0.10936 0.26156 0.0
C62 C 0.75522 0.03599 0.36861 0.0
O63 O 0.78182 0.02823 0.37095 0.0
H64 H 0.78576 0.09615 0.23145 0.0
H65 H 0.84766 0.05767 0.29741 0.0
O66 O 0.72989 1.01358 0.22999 0.0
H67 H 0.79203 0.92277 0.29509 0.0
H68 H 0.89363 0.12403 0.2652 0.0
Cu69 Cu 0.03775 0.30114 0.77382 0.0
N70 N 0.99631 0.25553 0.7615 0.0
N71 N 0.94013 0.21655 0.73542 0.0
C72 C 0.96796 0.25165 0.73688 0.0
C73 C 0.95149 0.19741 0.76037 0.0
C74 C 0.98618 0.22156 0.77644 0.0
O75 O 0.0483 0.32968 0.72053 0.0
C76 C 0.02747 0.30794 0.86146 0.0
O77 O 0.03454 0.28072 0.86252 0.0
H78 H 0.96715 0.27447 0.72164 0.0
H79 H 1.00244 0.21495 0.79821 0.0
N80 N 0.07988 0.29879 0.78762 0.0
N81 N 0.13597 0.31768 0.81505 0.0
C82 C 0.10939 0.32621 0.80778 0.0
C83 C 0.08793 0.27183 0.78144 0.0
C84 C 0.12254 0.2834 0.79835 0.0
C85 C 0.02974 0.34356 0.70516 0.0
O86 O 1.0042 0.34395 0.72926 0.0
H87 H 0.1111 0.35199 0.81685 0.0
H88 H 0.06984 0.24557 0.76618 0.0
O89 O 0.02693 0.32198 0.82457 0.0
H90 H 0.93587 0.16817 0.76689 0.0
H91 H 0.13627 0.26739 0.79911 0.0
Cu92 Cu 0.759 0.7495 0.78486 0.0
N93 N 0.76262 0.79501 0.79697 0.0
N94 N 0.74547 0.83401 0.82334 0.0
C95 C 0.73783 0.79874 0.8207 0.0
C96 C 0.77648 0.85341 0.79999 0.0
C97 C 0.787 0.82924 0.78376 0.0
O98 O 0.74209 0.72122 0.83842 0.0
C99 C 0.74097 0.7426 0.69738 0.0
O100 O 0.77468 0.77043 0.69642 0.0
H101 H 0.71393 0.77576 0.83472 0.0
H102 H 0.81042 0.83609 0.76333 0.0
N103 N 0.80352 0.75236 0.77097 0.0
N104 N 0.84133 0.73453 0.7432 0.0
C105 C 0.80618 0.72582 0.7493 0.0
C106 C 0.83815 0.77888 0.77926 0.0
C107 C 0.86157 0.76801 0.76203 0.0
C108 C 0.70989 0.70711 0.85372 0.0
O109 O 0.68361 0.70623 0.82941 0.0
H110 H 0.78258 0.70086 0.73755 0.0
H111 H 0.84582 0.80421 0.79664 0.0
O112 O 0.72704 0.72827 0.73423 0.0
H113 H 0.7906 0.88289 0.79494 0.0
H114 H 0.89117 0.78341 0.76379 0.0
Cu115 Cu 0.30145 0.02201 0.77661 0.0
N116 N 0.29936 0.06443 0.76312 0.0
N117 N 0.31833 0.12097 0.73683 0.0
C118 C 0.32538 0.09296 0.74043 0.0
C119 C 0.28654 0.10953 0.75841 0.0
C120 C 0.27491 0.07461 0.77463 0.0
O121 O 0.32016 1.00933 0.7258 0.0
C122 C 0.31988 0.03456 0.86419 0.0
O123 O 0.28625 0.0288 0.86582 0.0
H124 H 0.34951 0.09337 0.72772 0.0
H125 H 0.25067 0.05806 0.79386 0.0
N126 N 0.2565 0.98107 0.79091 0.0
N127 N 0.21809 0.92641 0.82073 0.0
C128 C 0.25335 0.95262 0.81478 0.0
C129 C 0.22204 0.97267 0.7809 0.0
C130 C 0.19824 0.93888 0.79926 0.0
C131 C 0.30644 1.00947 0.68857 0.0
O132 O 0.28032 0.01791 0.6862 0.0
H133 H 0.27674 0.95116 0.82712 0.0
H134 H 0.21477 0.98982 0.7617 0.0
O135 O 0.33309 0.0332 0.82731 0.0
H136 H 0.27258 0.12516 0.76215 0.0
H137 H 0.16865 0.9249 0.79737 0.0
Cu138 Cu 0.70167 0.0869 0.6137 0.0
N139 N 0.66033 0.09056 0.59967 0.0
N140 N 0.60427 0.07217 0.57248 0.0
C141 C 0.63045 0.06314 0.58013 0.0
C142 C 0.61835 0.1068 0.58834 0.0
C143 C 0.65297 0.11807 0.6051 0.0
O144 O 0.71241 0.06613 0.56334 0.0
C145 C 0.68968 0.06958 0.70136 0.0
O146 O 0.69762 0.10413 0.70319 0.0
H147 H 0.6281 0.03691 0.57202 0.0
H148 H 0.67142 0.14441 0.61993 0.0
N149 N 0.74405 0.13124 0.62698 0.0
N150 N 0.8009 0.16809 0.65238 0.0
C151 C 0.77252 0.13331 0.64976 0.0
C152 C 0.75466 0.1659 0.61443 0.0
C153 C 0.78975 0.18874 0.63013 0.0
C154 C 0.71228 0.07973 0.52609 0.0
O155 O 0.70501 0.10678 0.52372 0.0
H156 H 0.77269 0.1094 0.66295 0.0
H157 H 0.73841 0.17387 0.59458 0.0
O158 O 0.68974 0.05556 0.66445 0.0
H159 H 0.60497 0.12313 0.58735 0.0
H160 H 0.80577 0.21821 0.62537 0.0
Cu161 Cu 0.97455 0.63352 0.61248 0.0
N162 N 0.97145 0.58827 0.60025 0.0
N163 N 0.99016 0.55005 0.57545 0.0
C164 C 0.99692 0.58507 0.57733 0.0
C165 C 0.95878 0.53021 0.59799 0.0
C166 C 0.94739 0.55392 0.61343 0.0
O167 O 0.99161 0.66211 0.55916 0.0
C168 C 0.99208 0.63971 0.70004 0.0
O169 O 0.95847 0.6117 0.70052 0.0
H170 H 1.02022 0.60813 0.56248 0.0
H171 H 0.92381 0.54676 0.6337 0.0
N172 N 0.92986 0.63033 0.62619 0.0
N173 N 0.8919 0.64801 0.65382 0.0
C174 C 0.92707 0.65684 0.64773 0.0
C175 C 0.89527 0.60366 0.61799 0.0
C176 C 0.87175 0.61445 0.63514 0.0
C177 C 1.02393 0.67657 0.54415 0.0
O178 O 0.05019 0.6776 0.56865 0.0
H179 H 0.95063 0.68188 0.65939 0.0
H180 H 0.8877 0.57829 0.60076 0.0
O181 O 1.00617 0.65454 0.66343 0.0
H182 H 0.94562 0.50092 0.60414 0.0
H183 H 0.84215 0.59894 0.63343 0.0
Cu184 Cu 0.42137 0.35765 0.61314 0.0
N185 N 0.46652 0.39976 0.60198 0.0
N186 N 0.50598 0.4553 0.57494 0.0
C187 C 0.47044 0.42981 0.581 0.0
C188 C 0.52515 0.44061 0.59316 0.0
C189 C 0.50074 0.40636 0.60981 0.0
O190 O 0.39124 0.34796 0.56093 0.0
C191 C 0.42035 0.37402 0.70008 0.0
O192 O 0.45386 0.37967 0.69679 0.0
H193 H 0.44747 0.4322 0.56906 0.0
H194 H 0.50745 0.38748 0.62599 0.0
N195 N 0.42452 0.31558 0.62475 0.0
N196 N 0.4067 0.25931 0.65125 0.0
C197 C 0.39963 0.28737 0.64884 0.0
C198 C 0.44834 0.30522 0.61111 0.0
C199 C 0.43741 0.27045 0.62746 0.0
C200 C 0.40609 0.34936 0.52418 0.0
O201 O 0.44032 0.35684 0.52353 0.0
H202 H 0.37616 0.2872 0.66329 0.0
H203 H 0.47163 0.3215 0.59036 0.0
O204 O 0.40035 0.36541 0.66578 0.0
H205 H 0.5547 0.45359 0.59444 0.0
H206 H 0.45109 0.25472 0.62219 0.0
Cu207 Cu 0.70241 0.63451 0.10853 0.0
N208 N 0.66448 0.58887 0.08931 0.0
N209 N 0.6088 0.55075 0.06144 0.0
C210 C 0.62909 0.58018 0.08745 0.0
C211 C 0.63224 0.53977 0.04754 0.0
C212 C 0.66659 0.56346 0.06456 0.0
O213 O 0.71242 0.66745 0.05924 0.0
C214 C 0.70361 0.6752 0.18549 0.0
O215 O 0.73618 0.70119 0.17318 0.0
H216 H 0.61903 0.59672 0.10262 0.0
H217 H 0.69173 0.56382 0.05656 0.0
N218 N 0.74592 0.63382 0.11999 0.0
N219 N 0.80193 0.65213 0.14761 0.0
C220 C 0.76874 0.64887 0.15457 0.0
C221 C 0.76516 0.62674 0.09042 0.0
C222 C 0.79952 0.63775 0.10738 0.0
C223 C 0.68753 0.66971 0.03792 0.0
O224 O 0.65461 0.65555 0.05458 0.0
H225 H 0.76173 0.65865 0.18357 0.0
H226 H 0.75586 0.61692 0.0575 0.0
O227 O 0.68538 0.64708 0.16125 0.0
H228 H 0.62578 0.51806 1.02399 0.0
H229 H 0.8218 0.63764 0.09005 0.0
Cu230 Cu 0.42215 0.08251 0.11199 0.0
N231 N 0.46659 0.08444 0.10015 0.0
N232 N 0.50453 0.06614 0.07398 0.0
C233 C 0.46935 0.05749 0.07962 0.0
C234 C 0.52469 0.09998 0.09198 0.0
C235 C 0.5012 0.11117 0.10814 0.0
O236 O 0.3912 0.06274 0.06068 0.0
C237 C 0.4195 0.06459 0.19871 0.0
O238 O 0.45203 0.09424 0.19722 0.0
H239 H 0.4458 0.03242 0.06802 0.0
H240 H 0.5088 0.13696 0.12435 0.0
N241 N 0.42593 0.12783 0.12467 0.0
N242 N 0.40809 0.16625 0.15085 0.0
C243 C 0.40099 0.13112 0.14861 0.0
C244 C 0.44983 0.16205 0.11104 0.0
C245 C 0.43889 0.18588 0.12719 0.0
C246 C 0.40543 0.07568 1.02357 0.0
O247 O 0.44001 0.10151 1.02175 0.0
H248 H 0.37732 0.1078 0.16282 0.0
H249 H 0.47305 0.16905 0.09018 0.0
O250 O 0.40095 0.05272 0.16347 0.0
H251 H 0.55428 0.11554 0.09365 0.0
H252 H 0.45249 0.21529 0.12173 0.0
Cu253 Cu 0.98085 0.35669 0.11292 0.0
N254 N 0.97863 0.39952 0.10194 0.0
N255 N 0.99619 0.45618 0.07707 0.0
C256 C 1.00506 0.4295 0.08165 0.0
C257 C 0.96281 0.44241 0.09548 0.0
C258 C 0.952 0.4074 0.11067 0.0
O259 O 1.00095 0.34671 0.061 0.0
C260 C 0.9974 0.37187 0.20008 0.0
O261 O 0.96939 0.37734 0.19609 0.0
H262 H 0.03038 0.43158 0.07056 0.0
H263 H 0.92649 0.38896 0.12669 0.0
N264 N 0.93556 0.31517 0.12384 0.0
N265 N 0.89681 0.25921 0.15021 0.0
C266 C 0.93199 0.28638 0.14733 0.0
C267 C 0.90145 0.30611 0.11113 0.0
C268 C 0.8774 0.27157 0.12755 0.0
C269 C 0.98773 0.34875 1.02409 0.0
O270 O 0.9615 0.35709 1.02313 0.0
H271 H 0.95498 0.28568 0.16235 0.0
H272 H 0.89461 0.32317 0.09108 0.0
O273 O 1.00922 0.36364 0.16607 0.0
H274 H 0.94698 0.45629 0.09708 0.0
H275 H 0.84805 0.25652 0.12244 0.0
Cu276 Cu 0.36944 0.41798 0.94945 0.0
N277 N 0.40791 0.46345 0.96827 0.0
N278 N 0.46373 0.50136 0.99595 0.0
C279 C 0.44315 0.47167 0.97042 0.0
C280 C 0.4406 0.51295 1.00925 0.0
C281 C 0.40619 0.48941 0.99235 0.0
O282 O 0.35862 0.38527 0.99917 0.0
C283 C 0.36685 0.37595 0.87341 0.0
O284 O 0.33409 0.35076 0.88622 0.0
H285 H 0.45289 0.45467 0.95575 0.0
H286 H 0.38124 0.48958 0.99994 0.0
N287 N 0.32652 0.41967 0.93755 0.0
N288 N 0.27071 0.40224 0.90985 0.0
C289 C 0.30366 0.40488 0.90294 0.0
C290 C 0.30761 0.42724 0.96706 0.0
C291 C 0.2734 0.41676 0.95007 0.0
C292 C 0.3831 0.38277 1.0211 0.0
O293 O 0.41618 0.39658 1.00501 0.0
H294 H 0.31041 0.39475 0.87405 0.0
H295 H 0.31696 0.43692 1.0 0.0
O296 O 0.38582 0.40424 0.89712 0.0
H297 H 0.44731 0.53506 0.03229 0.0
H298 H 0.25133 0.4172 0.96751 0.0
Cu299 Cu 0.63887 0.96513 0.94682 0.0
N300 N 0.63679 0.92065 0.93326 0.0
N301 N 0.65619 0.88343 0.90723 0.0
C302 C 0.66311 0.91843 0.91098 0.0
C303 C 0.62416 0.8628 0.92827 0.0
C304 C 0.61226 0.88588 0.94435 0.0
O305 O 0.65852 0.99679 0.89647 0.0
C306 C 0.65655 0.97122 0.0347 0.0
O307 O 0.62244 0.94428 0.03659 0.0
H308 H 0.68738 0.94232 0.89874 0.0
H309 H 0.58782 0.87793 0.96324 0.0
N310 N 0.59397 0.9616 0.95998 0.0
N311 N 0.55572 0.97924 0.9868 0.0
C312 C 0.59095 0.98804 0.98137 0.0
C313 C 0.55946 0.93501 0.95117 0.0
C314 C 0.53576 0.94577 0.96784 0.0
C315 C 0.64478 0.98306 0.85926 0.0
O316 O 0.61809 0.94871 0.85694 0.0
H317 H 0.61439 1.01304 0.99331 0.0
H318 H 0.55207 0.90978 0.93372 0.0
O319 O 0.67013 0.98518 0.9977 0.0
H320 H 0.61022 0.83317 0.93179 0.0
H321 H 0.50618 0.93035 0.96556 0.0
Cu322 Cu 0.08697 0.6912 0.95287 0.0
N323 N 0.0932 0.65097 0.96485 0.0
N324 N 0.07886 0.59571 0.99191 0.0
C325 C 0.06933 0.62201 0.98879 0.0
C326 C 0.11012 0.60879 0.96868 0.0
C327 C 0.1189 0.64293 0.952 0.0
O328 O 0.06478 0.69757 1.00537 0.0
C329 C 0.07202 0.6818 0.86392 0.0
O330 O 0.10677 0.69109 0.86356 0.0
H331 H 0.04485 0.62004 1.0027 0.0
H332 H 0.14207 0.66038 0.93164 0.0
N333 N 0.13068 0.73485 0.94149 0.0
N334 N 0.16765 0.79096 0.91411 0.0
C335 C 0.13271 0.7638 0.91973 0.0
C336 C 0.16552 0.74391 0.95021 0.0
C337 C 0.1884 0.77857 0.93347 0.0
C338 C 0.08484 0.70719 0.03968 0.0
O339 O 0.11889 0.71442 0.03647 0.0
H340 H 0.10883 0.76467 0.90805 0.0
H341 H 0.17373 0.72638 0.96697 0.0
O342 O 0.05666 0.67963 0.90053 0.0
H343 H 0.12565 0.59484 0.96409 0.0
H344 H 0.21803 0.79302 0.93449 0.0
Cu345 Cu 0.3674 0.96364 0.44449 0.0
N346 N 0.32834 0.91842 0.4258 0.0
N347 N 0.27188 0.8808 0.3996 0.0
C348 C 0.29295 0.90987 0.42583 0.0
C349 C 0.2949 0.87008 0.38346 0.0
C350 C 0.32969 0.89349 0.39935 0.0
O351 O 0.38262 0.99724 0.3952 0.0
C352 C 0.3506 0.96641 0.53109 0.0
O353 O 0.35899 0.94014 0.53349 0.0
H354 H 0.28358 0.92668 0.44187 0.0
H355 H 0.3546 0.89429 0.38912 0.0
N356 N 0.40873 0.96125 0.46247 0.0
N357 N 0.46437 0.98049 0.49137 0.0
C358 C 0.43891 0.98974 0.48024 0.0
C359 C 0.41514 0.93283 0.4624 0.0
C360 C 0.44953 0.94466 0.48005 0.0
C361 C 0.36073 0.9959 0.36538 0.0
O362 O 0.32536 0.97402 0.37004 0.0
H363 H 0.44205 0.0168 0.48472 0.0
H364 H 0.39605 0.90534 0.45103 0.0
O365 O 0.35173 0.98097 0.49409 0.0
H366 H 0.28784 0.84893 0.35892 0.0
H367 H 0.46221 0.92793 0.48505 0.0
Cu368 Cu 0.09178 0.41662 0.4504 0.0
N369 N 0.09866 0.46214 0.46914 0.0
N370 N 0.0817 0.50035 0.49837 0.0
C371 C 0.07148 0.47002 0.47362 0.0
C372 C 0.11719 0.51266 0.50873 0.0
C373 C 0.12749 0.48895 0.49085 0.0
O374 O 0.0706 0.38403 0.50014 0.0
C375 C 0.05261 0.37435 0.37456 0.0
O376 O 0.06096 0.34955 0.38777 0.0
H377 H 0.04409 0.45258 0.46096 0.0
H378 H 0.15326 0.4897 0.49616 0.0
N379 N 0.13629 0.41836 0.43865 0.0
N380 N 0.17496 0.40168 0.41045 0.0
C381 C 0.14459 0.40436 0.40361 0.0
C382 C 0.1627 0.42543 0.46835 0.0
C383 C 0.18662 0.4154 0.45108 0.0
C384 C 0.0428 0.38029 0.52081 0.0
O385 O 1.0224 0.39257 0.50328 0.0
H386 H 0.12784 0.39482 0.37441 0.0
H387 H 0.16294 0.43455 0.50153 0.0
O388 O 0.06138 0.40265 0.39806 0.0
H389 H 0.13372 0.5355 0.53043 0.0
H390 H 0.20918 0.4156 0.4685 0.0
Cu391 Cu 0.64547 0.69022 0.44506 0.0
N392 N 0.64157 0.73179 0.43297 0.0
N393 N 0.65873 0.78781 0.40618 0.0
C394 C 0.66622 0.76005 0.40875 0.0
C395 C 0.62799 0.77642 0.43 0.0
C396 C 0.61748 0.7418 0.44654 0.0
O397 O 0.66728 0.68295 0.39281 0.0
C398 C 0.66023 0.69904 0.53416 0.0
O399 O 0.62572 0.69063 0.53455 0.0
H400 H 0.68987 0.76052 0.39439 0.0
H401 H 0.59431 0.72542 0.46742 0.0
N402 N 0.60055 0.64775 0.45598 0.0
N403 N 0.56129 0.59218 0.48313 0.0
C404 C 0.59679 0.61786 0.47721 0.0
C405 C 0.56627 0.64084 0.44784 0.0
C406 C 0.54198 0.60658 0.46455 0.0
C407 C 0.64754 0.67396 0.35826 0.0
O408 O 0.61371 0.66745 0.36106 0.0
H409 H 0.61983 0.61571 0.48946 0.0
H410 H 0.55943 0.65954 0.43145 0.0
O411 O 0.67537 0.70064 0.49757 0.0
H412 H 0.61403 0.79189 0.4352 0.0
H413 H 0.51243 0.5934 0.46309 0.0
C414 C 0.08152 0.72823 0.15936 0.0
C415 C 0.04406 0.70675 0.16872 0.0
H416 H 0.12359 0.74513 0.11135 0.0
C417 C 1.01971 0.68581 0.1349 0.0
H418 H 0.10095 0.74476 0.18464 0.0
C419 C 0.03263 0.68666 0.09246 0.0
C420 C 0.0702 0.70793 0.08335 0.0
H421 H 0.99061 0.6693 0.14102 0.0
H422 H 1.01335 0.6702 0.06704 0.0
C423 C 0.09447 0.72853 0.11731 0.0
C424 C 0.40463 0.3733 0.09433 0.0
C425 C 0.37621 0.37088 0.0675 0.0
H426 H 0.4215 0.36759 0.15883 0.0
C427 C 0.34206 0.36027 0.08648 0.0
H428 H 0.43138 0.38168 0.08088 0.0
C429 C 0.33654 0.35262 0.13121 0.0
C430 C 0.36501 0.35533 0.15815 0.0
H431 H 0.31963 0.35837 0.06693 0.0
H432 H 0.30983 0.34448 0.1446 0.0
C433 C 0.39909 0.3656 0.13915 0.0
C434 C 0.73815 1.01336 0.11146 0.0
C435 C 0.72109 1.00441 0.15257 0.0
H436 H 0.73108 1.01037 0.04181 0.0
C437 C 0.68272 0.98593 0.1546 0.0
H438 H 0.76773 0.02783 0.10892 0.0
C439 C 0.66178 0.97553 0.11618 0.0
C440 C 0.67884 0.98399 0.07506 0.0
H441 H 0.66885 0.97867 0.18583 0.0
H442 H 0.6322 0.96068 0.11871 0.0
C443 C 0.71722 1.00352 0.07304 0.0
C444 C 0.73996 0.04656 0.4883 0.0
C445 C 0.7213 0.06648 0.48595 0.0
H446 H 0.76558 0.02154 0.45284 0.0
C447 C 0.71243 0.07487 0.44468 0.0
H448 H 0.74716 0.03972 0.51965 0.0
C449 C 0.72256 0.06411 0.40644 0.0
C450 C 0.74228 0.04526 0.40879 0.0
H451 H 0.69782 0.09 0.44188 0.0
H452 H 0.71576 0.07136 0.3751 0.0
C453 C 0.75061 0.03631 0.45005 0.0
C454 C 0.06436 0.69793 0.47787 0.0
C455 C 0.03025 0.68691 0.49723 0.0
H456 H 0.09624 0.71457 0.41928 0.0
C457 C 1.0013 0.68345 0.47061 0.0
H458 H 0.08713 0.7005 0.49729 0.0
C459 C 1.00638 0.6911 0.42585 0.0
C460 C 0.04056 0.70244 0.40651 0.0
H461 H 0.97455 0.67474 0.48429 0.0
H462 H 0.98359 0.68863 0.40656 0.0
C463 C 0.06946 0.7056 0.43301 0.0
C464 C 0.40395 0.35124 0.44233 0.0
C465 C 0.38534 0.34157 0.48255 0.0
H466 H 0.3996 0.34926 0.37225 0.0
C467 C 0.34693 0.32318 0.48233 0.0
H468 H 0.43359 0.36569 0.44143 0.0
C469 C 0.32754 0.31343 0.44271 0.0
C470 C 0.34612 0.32236 0.40249 0.0
H471 H 0.33183 0.31538 0.51272 0.0
H472 H 0.29789 0.29854 0.44364 0.0
C473 C 0.38454 0.34199 0.40268 0.0
C474 C 0.02903 0.31147 0.94318 0.0
C475 C 1.01958 0.32089 0.90283 0.0
H476 H 0.02688 0.3133 1.01315 0.0
C477 C 1.00136 0.34127 0.90277 0.0
H478 H 0.04335 0.296 0.94432 0.0
C479 C 0.99158 0.35081 0.94228 0.0
C480 C 1.00032 0.34065 0.98262 0.0
H481 H 0.99375 0.34893 0.87224 0.0
H482 H 0.97683 0.36585 0.94118 0.0
C483 C 1.01974 0.32148 0.98266 0.0
C484 C 0.66483 0.67856 0.96518 0.0
C485 C 0.69377 0.68157 0.99148 0.0
H486 H 0.64697 0.68369 0.90102 0.0
C487 C 0.72783 0.69272 0.97192 0.0
H488 H 0.63814 0.66976 0.97907 0.0
C489 C 0.73274 0.70028 0.92714 0.0
C490 C 0.70375 0.69695 0.90071 0.0
H491 H 0.75065 0.69508 0.99106 0.0
H492 H 0.7594 0.70882 0.91328 0.0
C493 C 0.66977 0.68617 0.92029 0.0
C494 C 0.40078 0.07061 0.94199 0.0
C495 C 0.38341 0.06306 0.98292 0.0
H496 H 0.39427 0.06704 0.87222 0.0
C497 C 0.34503 0.04463 0.98444 0.0
H498 H 0.43036 0.0846 0.93982 0.0
C499 C 0.32444 0.03502 0.94574 0.0
C500 C 0.34182 0.04313 0.90481 0.0
H501 H 0.3309 0.03846 1.01548 0.0
H502 H 0.29488 0.02141 0.94792 0.0
C503 C 0.38016 0.06046 0.90329 0.0
C504 C 0.33851 0.98065 0.65076 0.0
C505 C 0.319 0.99971 0.64835 0.0
H506 H 0.36347 0.95491 0.61548 0.0
C507 C 0.31077 1.00866 0.607 0.0
H508 H 0.34521 0.97335 0.68214 0.0
C509 C 0.32161 0.9985 0.56877 0.0
C510 C 0.34034 0.97866 0.5712 0.0
H511 H 0.29593 0.02354 0.60413 0.0
H512 H 0.31471 1.00557 0.53737 0.0
C513 C 0.34881 0.96998 0.61256 0.0
C514 C 0.0596 0.35146 0.63223 0.0
C515 C 0.03334 0.35376 0.6582 0.0
H516 H 0.08272 0.35727 0.56862 0.0
C517 C 1.00915 0.36338 0.63813 0.0
H518 H 0.07852 0.34385 0.64646 0.0
C519 C 1.01136 0.37078 0.59319 0.0
C520 C 0.03784 0.36875 0.56734 0.0
H521 H 0.98835 0.36503 0.65706 0.0
H522 H 0.99265 0.37865 0.57889 0.0
C523 C 0.06182 0.35885 0.5874 0.0
C524 C 0.66238 0.69785 0.61605 0.0
C525 C 0.68101 0.70785 0.57585 0.0
H526 H 0.66669 0.70049 0.68614 0.0
C527 C 0.71942 0.72762 0.57611 0.0
H528 H 0.63274 0.68238 0.61691 0.0
C529 C 0.73876 0.73835 0.61573 0.0
C530 C 0.72013 0.72904 0.65592 0.0
H531 H 0.73453 0.73572 0.54573 0.0
H532 H 0.76838 0.75425 0.61482 0.0
C533 C 0.68177 0.70808 0.65572 0.0
C534 C 0.3556 0.35397 0.79534 0.0
C535 C 0.38022 0.37413 0.8293 0.0
H536 H 0.34887 0.33885 0.72731 0.0
C537 C 0.41778 0.39466 0.82004 0.0
H538 H 0.32644 0.33822 0.80139 0.0
C539 C 0.43055 0.3948 0.77793 0.0
C540 C 0.40601 0.37502 0.74383 0.0
H541 H 0.43741 0.41059 0.84544 0.0
H542 H 0.45973 0.41065 0.77203 0.0
C543 C 0.36836 0.35469 0.75286 0.0
C544 C 0.66086 1.00876 0.73954 0.0
C545 C 0.67988 0.04737 0.74169 0.0
H546 H 0.63457 0.95816 0.7752 0.0
C547 C 0.68853 0.06472 0.78287 0.0
H548 H 0.65381 0.99466 0.70825 0.0
C549 C 0.67792 0.04385 0.82121 0.0
C550 C 0.65794 1.00526 0.81903 0.0
H551 H 0.70339 0.09448 0.78551 0.0
H552 H 0.68462 0.05796 0.85249 0.0
C553 C 0.64973 0.9879 0.77786 0.0
C554 C 1.01299 0.65296 0.82157 0.0
C555 C 0.05139 0.67316 0.82212 0.0
H556 H 0.96425 0.62643 0.78246 0.0
C557 C 0.07019 0.68396 0.78207 0.0
H558 H 0.99775 0.64426 0.85183 0.0
C559 C 0.05102 0.67414 0.74225 0.0
C560 C 1.01268 0.65281 0.74173 0.0
H561 H 0.09983 0.6998 0.78143 0.0
H562 H 0.06625 0.68237 0.71195 0.0
C563 C 0.99386 0.64266 0.78179 0.0
C564 C 0.63863 0.65364 0.28025 0.0
C565 C 0.66258 0.67367 0.3147 0.0
H566 H 0.6328 0.63843 0.21259 0.0
C567 C 0.70025 0.69499 0.30619 0.0
H568 H 0.60943 0.63705 0.28576 0.0
C569 C 0.71359 0.69646 0.26385 0.0
C570 C 0.68956 0.67609 0.22952 0.0
H571 H 0.71928 0.71105 0.33201 0.0
H572 H 0.74276 0.713 0.25819 0.0
C573 C 0.65199 0.65454 0.23828 0.0
C574 C 0.42692 0.05692 0.27857 0.0
C575 C 0.40421 0.04706 0.24129 0.0
H576 H 0.43101 0.04866 0.34706 0.0
C577 C 0.36679 0.02133 0.2455 0.0
H578 H 0.45587 0.07679 0.27642 0.0
C579 C 0.35244 1.0056 0.28617 0.0
C580 C 0.3753 1.01499 0.32332 0.0
H581 H 0.34855 1.01344 0.21744 0.0
H582 H 0.32355 0.98551 0.28826 0.0
C583 C 0.41267 0.04091 0.3191 0.0
C584 C 0.04258 0.35245 0.29651 0.0
C585 C 0.03738 0.37226 0.33019 0.0
H586 H 0.03482 0.33751 0.22841 0.0
C587 C 1.01967 0.3923 0.32038 0.0
H588 H 0.05655 0.3371 0.303 0.0
C589 C 1.00711 0.39233 0.27799 0.0
C590 C 1.01261 0.37292 0.24417 0.0
H591 H 1.01541 0.40796 0.34557 0.0
H592 H 0.99326 0.40782 0.27165 0.0
C593 C 0.03059 0.35305 0.25375 0.0
C594 C 0.22035 0.89239 0.38498 0.0
C595 C 0.23474 0.86838 0.38507 0.0
H596 H 0.17503 0.90013 0.3688 0.0
C597 C 0.21276 0.83246 0.36884 0.0
H598 H 0.23663 0.92048 0.39637 0.0
C599 C 0.17746 0.82088 0.35277 0.0
C600 C 0.16313 0.84494 0.35238 0.0
H601 H 0.22275 0.81313 0.36886 0.0
H602 H 0.16123 0.79279 0.34137 0.0
C603 C 0.18502 0.8808 0.36888 0.0
C604 C 0.17779 0.33464 0.33047 0.0
C605 C 0.21366 0.34107 0.33646 0.0
H606 H 0.13729 0.34854 0.34903 0.0
C607 C 0.23697 0.36903 0.36577 0.0
H608 H 0.15914 0.31372 0.30787 0.0
C609 C 0.2246 0.38948 0.38895 0.0
C610 C 0.18851 0.38255 0.38371 0.0
H611 H 0.26464 0.37471 0.37176 0.0
H612 H 0.24333 0.41058 0.41132 0.0
C613 C 0.16538 0.35508 0.35375 0.0
C614 C 0.72528 0.85984 0.32881 0.0
C615 C 0.72381 0.89124 0.34182 0.0
H616 H 0.7052 0.80234 0.33806 0.0
C617 C 0.70016 0.88788 0.3761 0.0
H618 H 0.74268 0.86123 0.30211 0.0
C619 C 0.67862 0.85403 0.39689 0.0
C620 C 0.68016 0.82261 0.38398 0.0
H621 H 0.69868 0.91157 0.38745 0.0
H622 H 0.66131 0.85272 0.42365 0.0
C623 C 0.70368 0.82598 0.34951 0.0
C624 C 0.8936 0.17601 0.20198 0.0
C625 C 0.85758 0.15675 0.21783 0.0
H626 H 0.93402 0.22302 0.16745 0.0
C627 C 0.8346 0.1718 0.21069 0.0
H628 H 0.91192 0.1651 0.20614 0.0
C629 C 0.84729 0.20514 0.18831 0.0
C630 C 0.88334 0.22442 0.17261 0.0
H631 H 0.80688 0.15818 0.22293 0.0
H632 H 0.82902 0.21612 0.18402 0.0
C633 C 0.90629 0.20935 0.17969 0.0
C634 C 0.86373 0.66457 0.17031 0.0
C635 C 0.83469 0.67188 0.17417 0.0
H636 H 0.91737 0.67756 0.1914 0.0
C637 C 0.83887 0.69984 0.20319 0.0
H638 H 0.86139 0.64302 0.14872 0.0
C639 C 0.87117 0.71988 0.22759 0.0
C640 C 0.90021 0.71257 0.22373 0.0
H641 H 0.81753 0.70688 0.2065 0.0
H642 H 0.87351 0.74142 0.24919 0.0
C643 C 0.89603 0.6846 0.19472 0.0
C644 C 0.36445 0.22331 0.17775 0.0
C645 C 0.34193 0.20402 0.21339 0.0
H646 H 0.40286 0.22649 0.12996 0.0
C647 C 0.34162 0.172 0.22797 0.0
H648 H 0.36501 0.24769 0.16499 0.0
C649 C 0.36342 0.1598 0.20768 0.0
C650 C 0.3861 0.17926 0.17225 0.0
H651 H 0.32511 0.1567 0.25562 0.0
H652 H 0.36289 0.13538 0.22027 0.0
C653 C 0.38629 0.21117 0.15757 0.0
C654 C 0.83962 0.15989 0.70785 0.0
C655 C 0.83606 0.18007 0.67312 0.0
H656 H 0.87517 0.15566 0.75506 0.0
C657 C 0.86753 0.21189 0.65868 0.0
H658 H 0.81592 0.13548 0.72019 0.0
C659 C 0.90157 0.22335 0.67855 0.0
C660 C 0.90513 0.20348 0.71366 0.0
H661 H 0.86603 0.22773 0.63155 0.0
H662 H 0.92517 0.24774 0.66602 0.0
C663 C 0.87369 0.17143 0.72785 0.0
C664 C 0.84389 0.65315 0.69471 0.0
C665 C 0.87898 0.66984 0.67608 0.0
H666 H 0.80473 0.66028 0.73126 0.0
C667 C 0.90146 0.70828 0.68007 0.0
H668 H 0.826 0.62363 0.69293 0.0
C669 C 0.88925 0.72939 0.70216 0.0
C670 C 0.85417 0.7127 0.72081 0.0
H671 H 0.9284 0.72228 0.6656 0.0
H672 H 0.90713 0.7589 0.70394 0.0
C673 C 0.83167 0.67426 0.71679 0.0
C674 C 0.36427 0.15906 0.68104 0.0
C675 C 0.34068 0.15589 0.71531 0.0
H676 H 0.40335 0.19406 0.6336 0.0
C677 C 0.33964 0.1875 0.72845 0.0
H678 H 0.36544 0.13522 0.66962 0.0
C679 C 0.36154 0.22134 0.70785 0.0
C680 C 0.38496 0.22451 0.67336 0.0
H681 H 0.32232 0.18627 0.75516 0.0
H682 H 0.36033 0.24512 0.7194 0.0
C683 C 0.38611 0.1929 0.66035 0.0
C684 C 0.22655 0.88921 0.87801 0.0
C685 C 0.20491 0.89242 0.84486 0.0
H686 H 0.23159 0.85485 0.92623 0.0
C687 C 0.17052 0.86169 0.83538 0.0
H688 H 0.25286 0.91242 0.88689 0.0
C689 C 0.15827 0.82856 0.85811 0.0
C690 C 0.18008 0.8253 0.89099 0.0
H691 H 0.15331 0.86293 0.80975 0.0
H692 H 0.13199 0.80531 0.84922 0.0
C693 C 0.21433 0.85612 0.9007 0.0
C694 C 0.17541 0.36838 0.86617 0.0
C695 C 0.1706 0.34 0.83746 0.0
H696 H 0.21092 0.41075 0.9107 0.0
C697 C 0.20011 0.33363 0.83158 0.0
H698 H 0.1534 0.37405 0.87206 0.0
C699 C 0.23318 0.35456 0.85434 0.0
C700 C 0.23769 0.38248 0.88367 0.0
H701 H 0.19771 0.3124 0.80944 0.0
H702 H 0.25478 0.34807 0.8497 0.0
C703 C 0.20845 0.38933 0.88882 0.0
C704 C 0.69993 0.82669 0.87935 0.0
C705 C 0.72379 0.8472 0.84523 0.0
H706 H 0.66008 0.8221 0.92582 0.0
C707 C 0.72521 0.88011 0.83225 0.0
H708 H 0.69853 0.8016 0.89095 0.0
C709 C 0.70308 0.89192 0.85248 0.0
C710 C 0.67894 0.87116 0.88625 0.0
H711 H 0.74284 0.8964 0.80582 0.0
H712 H 0.70442 0.91704 0.84106 0.0
C713 C 0.67776 0.83844 0.89945 0.0
C714 C 0.5551 0.50699 0.53312 0.0
C715 C 0.52013 0.49004 0.55214 0.0
H716 H 0.59525 0.55212 0.49569 0.0
C717 C 0.49895 0.50738 0.54789 0.0
H718 H 0.57199 0.49427 0.53505 0.0
C719 C 0.51231 0.54063 0.52517 0.0
C720 C 0.54725 0.55755 0.50611 0.0
H721 H 0.47217 0.49555 0.56263 0.0
H722 H 0.49541 0.55335 0.52323 0.0
C723 C 0.56846 0.54026 0.51042 0.0
C724 C 0.56303 0.01965 0.52457 0.0
C725 C 0.56904 0.04944 0.55155 0.0
H726 H 0.52541 0.97472 0.4842 0.0
C727 C 0.53988 0.05627 0.55792 0.0
H728 H 0.58484 1.01382 0.51799 0.0
C729 C 0.50569 0.03381 0.53814 0.0
C730 C 0.4997 1.00386 0.51156 0.0
H731 H 0.54318 0.07857 0.5788 0.0
H732 H 0.48375 0.03954 0.54438 0.0
C733 C 0.52884 0.99712 0.50502 0.0
C734 C 1.02055 0.48868 0.52229 0.0
C735 C 0.05825 0.5131 0.51625 0.0
H736 H 0.9694 0.48121 0.54567 0.0
C737 C 0.07293 0.54983 0.52982 0.0
H738 H 1.00829 0.46002 0.51298 0.0
C739 C 0.05066 0.56185 0.54906 0.0
C740 C 1.013 0.53744 0.55535 0.0
H741 H 0.10174 0.56938 0.52558 0.0
H742 H 0.06328 0.59022 0.5597 0.0
C743 C 0.99824 0.5007 0.54165 0.0
C744 C 0.52251 0.55028 1.02691 0.0
C745 C 0.50058 0.51399 1.01176 0.0
H746 H 0.57397 0.59056 0.05397 0.0
C747 C 0.51484 0.4899 1.01379 0.0
H748 H 0.51261 0.56967 1.02544 0.0
C749 C 0.55007 0.50182 1.0304 0.0
C750 C 0.57197 0.53809 0.04558 0.0
H751 H 0.49859 0.46153 1.00336 0.0
H752 H 0.56002 0.48247 0.03183 0.0
C753 C 0.55771 0.56219 0.04355 0.0
C754 C 0.50742 0.98449 1.02684 0.0
C755 C 0.54262 1.00112 1.00852 0.0
H756 H 0.46803 0.99179 0.06268 0.0
C757 C 0.56505 0.03958 1.01227 0.0
H758 H 0.48958 0.95497 1.02519 0.0
C759 C 0.55269 0.06078 0.03382 0.0
C760 C 0.51752 0.04417 0.05221 0.0
H761 H 0.59207 0.05352 0.99799 0.0
H762 H 0.57056 0.0903 0.03538 0.0
C763 C 0.49506 1.00571 0.04842 0.0
C764 C 0.03407 0.55584 0.04779 0.0
C765 C 0.05886 0.56073 1.01422 0.0
H766 H 0.99505 0.51909 0.09419 0.0
C767 C 0.06305 0.5306 1.0023 0.0
H768 H 0.03055 0.57846 0.0586 0.0
C769 C 0.0427 0.49647 1.023 0.0
C770 C 1.01758 0.49154 0.05613 0.0
H771 H 0.08145 0.53307 0.9763 0.0
H772 H 0.04611 0.47373 1.01234 0.0
C773 C 1.01364 0.5217 0.06833 0.0
loop_
_geom_bond_atom_site_label_1
_geom_bond_atom_site_label_2
_geom_bond_distance
_geom_bond_site_symmetry_2
_ccdc_geom_bond_type
Cu0 N1 1.999 . S
Cu0 O6 1.974 1_455 S
Cu0 N11 1.985 1_455 S
Cu0 O20 1.959 . S
N1 Cu0 1.999 . S
N1 C3 1.263 . S
N1 C5 1.389 . S
N2 C3 1.358 . S
N2 C4 1.400 . S
C3 N1 1.263 . S
C3 N2 1.358 . S
C3 H9 0.930 . S
C4 N2 1.400 . S
C4 C5 1.351 . S
C4 H21 0.930 . S
C5 N1 1.389 . S
C5 C4 1.351 . S
C5 H10 0.930 . S
O6 Cu0 1.974 1_655 S
O6 C16 1.282 . S
C7 O8 1.261 . S
C7 O20 1.251 . S
O8 C7 1.261 . S
H9 C3 0.930 . S
H10 C5 0.930 . S
N11 Cu0 1.985 1_655 S
N11 C13 1.335 . S
N11 C14 1.390 . S
N12 C13 1.345 . S
N12 C15 1.336 . S
C13 N11 1.335 . S
C13 N12 1.345 . S
C13 H18 0.930 . S
C14 N11 1.390 . S
C14 C15 1.346 . S
C14 H19 0.930 . S
C15 N12 1.336 . S
C15 C14 1.346 . S
C15 H22 0.929 . S
C16 O6 1.282 . S
C16 O17 1.216 . S
O17 C16 1.216 . S
H18 C13 0.930 . S
H19 C14 0.930 . S
O20 Cu0 1.959 . S
O20 C7 1.251 . S
H21 C4 0.930 . S
H22 C15 0.929 . S
Cu23 N24 1.999 . S
Cu23 O29 1.974 . S
Cu23 N34 1.985 . S
Cu23 O43 1.959 . S
N24 Cu23 1.999 . S
N24 C26 1.263 . S
N24 C28 1.389 . S
N25 C26 1.358 . S
N25 C27 1.400 . S
C26 N24 1.263 . S
C26 N25 1.358 . S
C26 H32 0.930 . S
C27 N25 1.400 . S
C27 C28 1.351 . S
C27 H44 0.930 . S
C28 N24 1.389 . S
C28 C27 1.351 . S
C28 H33 0.930 . S
O29 Cu23 1.974 . S
O29 C39 1.282 . S
C30 O31 1.261 . S
C30 O43 1.251 . S
O31 C30 1.261 . S
H32 C26 0.930 . S
H33 C28 0.930 . S
N34 Cu23 1.985 . S
N34 C36 1.335 . S
N34 C37 1.390 . S
N35 C36 1.345 . S
N35 C38 1.336 . S
C36 N34 1.335 . S
C36 N35 1.345 . S
C36 H41 0.930 . S
C37 N34 1.390 . S
C37 C38 1.346 . S
C37 H42 0.930 . S
C38 N35 1.336 . S
C38 C37 1.346 . S
C38 H45 0.929 . S
C39 O29 1.282 . S
C39 O40 1.216 . S
O40 C39 1.216 . S
H41 C36 0.930 . S
H42 C37 0.930 . S
O43 Cu23 1.959 . S
O43 C30 1.251 . S
H44 C27 0.930 . S
H45 C38 0.929 . S
Cu46 N47 1.999 1_545 S
Cu46 O52 1.974 . S
Cu46 N57 1.985 . S
Cu46 O66 1.959 1_545 S
N47 Cu46 1.999 1_565 S
N47 C49 1.263 . S
N47 C51 1.389 . S
N48 C49 1.358 . S
N48 C50 1.400 . S
C49 N47 1.263 . S
C49 N48 1.358 . S
C49 H55 0.930 . S
C50 N48 1.400 . S
C50 C51 1.351 . S
C50 H67 0.930 . S
C51 N47 1.389 . S
C51 C50 1.351 . S
C51 H56 0.930 . S
O52 Cu46 1.974 . S
O52 C62 1.282 . S
C53 O54 1.261 . S
C53 O66 1.251 . S
O54 C53 1.261 . S
H55 C49 0.930 . S
H56 C51 0.930 . S
N57 Cu46 1.985 . S
N57 C59 1.335 . S
N57 C60 1.390 . S
N58 C59 1.345 . S
N58 C61 1.336 . S
C59 N57 1.335 . S
C59 N58 1.345 . S
C59 H64 0.930 . S
C60 N57 1.390 . S
C60 C61 1.346 . S
C60 H65 0.930 . S
C61 N58 1.336 . S
C61 C60 1.346 . S
C61 H68 0.929 . S
C62 O52 1.282 . S
C62 O63 1.216 . S
O63 C62 1.216 . S
H64 C59 0.930 . S
H65 C60 0.930 . S
O66 Cu46 1.959 1_565 S
O66 C53 1.251 . S
H67 C50 0.930 . S
H68 C61 0.929 . S
Cu69 N70 1.999 1_455 S
Cu69 O75 1.974 . S
Cu69 N80 1.985 . S
Cu69 O89 1.959 1_455 S
N70 Cu69 1.999 1_655 S
N70 C72 1.263 . S
N70 C74 1.389 . S
N71 C72 1.358 . S
N71 C73 1.400 . S
C72 N70 1.263 . S
C72 N71 1.358 . S
C72 H78 0.930 . S
C73 N71 1.400 . S
C73 C74 1.351 . S
C73 H90 0.930 . S
C74 N70 1.389 . S
C74 C73 1.351 . S
C74 H79 0.930 . S
O75 Cu69 1.974 . S
O75 C85 1.282 . S
C76 O77 1.261 . S
C76 O89 1.251 . S
O77 C76 1.261 . S
H78 C72 0.930 . S
H79 C74 0.930 . S
N80 Cu69 1.985 . S
N80 C82 1.335 . S
N80 C83 1.390 . S
N81 C82 1.345 . S
N81 C84 1.336 . S
C82 N80 1.335 . S
C82 N81 1.345 . S
C82 H87 0.930 . S
C83 N80 1.390 . S
C83 C84 1.346 . S
C83 H88 0.930 . S
C84 N81 1.336 . S
C84 C83 1.346 . S
C84 H91 0.929 . S
C85 O75 1.282 . S
C85 O86 1.216 . S
O86 C85 1.216 . S
H87 C82 0.930 . S
H88 C83 0.930 . S
O89 Cu69 1.959 1_655 S
O89 C76 1.251 . S
H90 C73 0.930 . S
H91 C84 0.929 . S
Cu92 N93 1.999 . S
Cu92 O98 1.974 . S
Cu92 N103 1.985 . S
Cu92 O112 1.959 . S
N93 Cu92 1.999 . S
N93 C95 1.263 . S
N93 C97 1.389 . S
N94 C95 1.358 . S
N94 C96 1.400 . S
C95 N93 1.263 . S
C95 N94 1.358 . S
C95 H101 0.930 . S
C96 N94 1.400 . S
C96 C97 1.351 . S
C96 H113 0.930 . S
C97 N93 1.389 . S
C97 C96 1.351 . S
C97 H102 0.930 . S
O98 Cu92 1.974 . S
O98 C108 1.282 . S
C99 O100 1.261 . S
C99 O112 1.251 . S
O100 C99 1.261 . S
H101 C95 0.930 . S
H102 C97 0.930 . S
N103 Cu92 1.985 . S
N103 C105 1.335 . S
N103 C106 1.390 . S
N104 C105 1.345 . S
N104 C107 1.336 . S
C105 N103 1.335 . S
C105 N104 1.345 . S
C105 H110 0.930 . S
C106 N103 1.390 . S
C106 C107 1.346 . S
C106 H111 0.930 . S
C107 N104 1.336 . S
C107 C106 1.346 . S
C107 H114 0.929 . S
C108 O98 1.282 . S
C108 O109 1.216 . S
O109 C108 1.216 . S
H110 C105 0.930 . S
H111 C106 0.930 . S
O112 Cu92 1.959 . S
O112 C99 1.251 . S
H113 C96 0.930 . S
H114 C107 0.929 . S
Cu115 N116 1.999 . S
Cu115 O121 1.974 1_545 S
Cu115 N126 1.985 1_545 S
Cu115 O135 1.959 . S
N116 Cu115 1.999 . S
N116 C118 1.263 . S
N116 C120 1.389 . S
N117 C118 1.358 . S
N117 C119 1.400 . S
C118 N116 1.263 . S
C118 N117 1.358 . S
C118 H124 0.930 . S
C119 N117 1.400 . S
C119 C120 1.351 . S
C119 H136 0.930 . S
C120 N116 1.389 . S
C120 C119 1.351 . S
C120 H125 0.930 . S
O121 Cu115 1.974 1_565 S
O121 C131 1.282 . S
C122 O123 1.261 . S
C122 O135 1.251 . S
O123 C122 1.261 . S
H124 C118 0.930 . S
H125 C120 0.930 . S
N126 Cu115 1.985 1_565 S
N126 C128 1.335 . S
N126 C129 1.390 . S
N127 C128 1.345 . S
N127 C130 1.336 . S
C128 N126 1.335 . S
C128 N127 1.345 . S
C128 H133 0.930 . S
C129 N126 1.390 . S
C129 C130 1.346 . S
C129 H134 0.930 . S
C130 N127 1.336 . S
C130 C129 1.346 . S
C130 H137 0.929 . S
C131 O121 1.282 . S
C131 O132 1.216 . S
O132 C131 1.216 . S
H133 C128 0.930 . S
H134 C129 0.930 . S
O135 Cu115 1.959 . S
O135 C122 1.251 . S
H136 C119 0.930 . S
H137 C130 0.929 . S
Cu138 N139 1.999 . S
Cu138 O144 1.974 . S
Cu138 N149 1.985 . S
Cu138 O158 1.959 . S
N139 Cu138 1.999 . S
N139 C141 1.263 . S
N139 C143 1.389 . S
N140 C141 1.358 . S
N140 C142 1.400 . S
C141 N139 1.263 . S
C141 N140 1.358 . S
C141 H147 0.930 . S
C142 N140 1.400 . S
C142 C143 1.351 . S
C142 H159 0.930 . S
C143 N139 1.389 . S
C143 C142 1.351 . S
C143 H148 0.930 . S
O144 Cu138 1.974 . S
O144 C154 1.282 . S
C145 O146 1.261 . S
C145 O158 1.251 . S
O146 C145 1.261 . S
H147 C141 0.930 . S
H148 C143 0.930 . S
N149 Cu138 1.985 . S
N149 C151 1.335 . S
N149 C152 1.390 . S
N150 C151 1.345 . S
N150 C153 1.336 . S
C151 N149 1.335 . S
C151 N150 1.345 . S
C151 H156 0.930 . S
C152 N149 1.390 . S
C152 C153 1.346 . S
C152 H157 0.930 . S
C153 N150 1.336 . S
C153 C152 1.346 . S
C153 H160 0.929 . S
C154 O144 1.282 . S
C154 O155 1.216 . S
O155 C154 1.216 . S
H156 C151 0.930 . S
H157 C152 0.930 . S
O158 Cu138 1.959 . S
O158 C145 1.251 . S
H159 C142 0.930 . S
H160 C153 0.929 . S
Cu161 N162 1.999 . S
Cu161 O167 1.974 . S
Cu161 N172 1.985 . S
Cu161 O181 1.959 . S
N162 Cu161 1.999 . S
N162 C164 1.263 . S
N162 C166 1.389 . S
N163 C164 1.358 . S
N163 C165 1.400 . S
C164 N162 1.263 . S
C164 N163 1.358 . S
C164 H170 0.930 . S
C165 N163 1.400 . S
C165 C166 1.351 . S
C165 H182 0.930 . S
C166 N162 1.389 . S
C166 C165 1.351 . S
C166 H171 0.930 . S
O167 Cu161 1.974 . S
O167 C177 1.282 . S
C168 O169 1.261 1_655 S
C168 O181 1.251 . S
O169 C168 1.261 1_455 S
H170 C164 0.930 . S
H171 C166 0.930 . S
N172 Cu161 1.985 . S
N172 C174 1.335 . S
N172 C175 1.390 . S
N173 C174 1.345 . S
N173 C176 1.336 . S
C174 N172 1.335 . S
C174 N173 1.345 . S
C174 H179 0.930 . S
C175 N172 1.390 . S
C175 C176 1.346 . S
C175 H180 0.930 . S
C176 N173 1.336 . S
C176 C175 1.346 . S
C176 H183 0.929 . S
C177 O167 1.282 . S
C177 O178 1.216 . S
O178 C177 1.216 . S
H179 C174 0.930 . S
H180 C175 0.930 . S
O181 Cu161 1.959 . S
O181 C168 1.251 . S
H182 C165 0.930 . S
H183 C176 0.929 . S
Cu184 N185 1.999 . S
Cu184 O190 1.974 . S
Cu184 N195 1.985 . S
Cu184 O204 1.959 . S
N185 Cu184 1.999 . S
N185 C187 1.263 . S
N185 C189 1.389 . S
N186 C187 1.358 . S
N186 C188 1.400 . S
C187 N185 1.263 . S
C187 N186 1.358 . S
C187 H193 0.930 . S
C188 N186 1.400 . S
C188 C189 1.351 . S
C188 H205 0.930 . S
C189 N185 1.389 . S
C189 C188 1.351 . S
C189 H194 0.930 . S
O190 Cu184 1.974 . S
O190 C200 1.282 . S
C191 O192 1.261 . S
C191 O204 1.251 . S
O192 C191 1.261 . S
H193 C187 0.930 . S
H194 C189 0.930 . S
N195 Cu184 1.985 . S
N195 C197 1.335 . S
N195 C198 1.390 . S
N196 C197 1.345 . S
N196 C199 1.336 . S
C197 N195 1.335 . S
C197 N196 1.345 . S
C197 H202 0.930 . S
C198 N195 1.390 . S
C198 C199 1.346 . S
C198 H203 0.930 . S
C199 N196 1.336 . S
C199 C198 1.346 . S
C199 H206 0.929 . S
C200 O190 1.282 . S
C200 O201 1.216 . S
O201 C200 1.216 . S
H202 C197 0.930 . S
H203 C198 0.930 . S
O204 Cu184 1.959 . S
O204 C191 1.251 . S
H205 C188 0.930 . S
H206 C199 0.929 . S
Cu207 N208 1.999 . S
Cu207 O213 1.974 . S
Cu207 N218 1.985 . S
Cu207 O227 1.959 . S
N208 Cu207 1.999 . S
N208 C210 1.263 . S
N208 C212 1.389 . S
N209 C210 1.358 . S
N209 C211 1.400 . S
C210 N208 1.263 . S
C210 N209 1.358 . S
C210 H216 0.930 . S
C211 N209 1.400 . S
C211 C212 1.351 . S
C211 H228 0.930 . S
C212 N208 1.389 . S
C212 C211 1.351 . S
C212 H217 0.930 . S
O213 Cu207 1.974 . S
O213 C223 1.282 . S
C214 O215 1.261 . S
C214 O227 1.251 . S
O215 C214 1.261 . S
H216 C210 0.930 . S
H217 C212 0.930 . S
N218 Cu207 1.985 . S
N218 C220 1.335 . S
N218 C221 1.390 . S
N219 C220 1.345 . S
N219 C222 1.336 . S
C220 N218 1.335 . S
C220 N219 1.345 . S
C220 H225 0.930 . S
C221 N218 1.390 . S
C221 C222 1.346 . S
C221 H226 0.930 . S
C222 N219 1.336 . S
C222 C221 1.346 . S
C222 H229 0.929 . S
C223 O213 1.282 . S
C223 O224 1.216 . S
O224 C223 1.216 . S
H225 C220 0.930 . S
H226 C221 0.930 . S
O227 Cu207 1.959 . S
O227 C214 1.251 . S
H228 C211 0.930 . S
H229 C222 0.929 . S
Cu230 N231 1.999 . S
Cu230 O236 1.974 . S
Cu230 N241 1.985 . S
Cu230 O250 1.959 . S
N231 Cu230 1.999 . S
N231 C233 1.263 . S
N231 C235 1.389 . S
N232 C233 1.358 . S
N232 C234 1.400 . S
C233 N231 1.263 . S
C233 N232 1.358 . S
C233 H239 0.930 . S
C234 N232 1.400 . S
C234 C235 1.351 . S
C234 H251 0.930 . S
C235 N231 1.389 . S
C235 C234 1.351 . S
C235 H240 0.930 . S
O236 Cu230 1.974 . S
O236 C246 1.296 . S
C237 O238 1.261 . S
C237 O250 1.251 . S
O238 C237 1.261 . S
H239 C233 0.930 . S
H240 C235 0.930 . S
N241 Cu230 1.985 . S
N241 C243 1.335 . S
N241 C244 1.390 . S
N242 C243 1.345 . S
N242 C245 1.336 . S
C243 N241 1.335 . S
C243 N242 1.345 . S
C243 H248 0.930 . S
C244 N241 1.390 . S
C244 C245 1.346 . S
C244 H249 0.930 . S
C245 N242 1.336 . S
C245 C244 1.346 . S
C245 H252 0.929 . S
C246 O236 1.296 . S
C246 O247 1.225 . S
O247 C246 1.225 . S
H248 C243 0.930 . S
H249 C244 0.930 . S
O250 Cu230 1.959 . S
O250 C237 1.251 . S
H251 C234 0.930 . S
H252 C245 0.929 . S
Cu253 N254 1.999 . S
Cu253 O259 1.974 . S
Cu253 N264 1.985 . S
Cu253 O273 1.959 . S
N254 Cu253 1.999 . S
N254 C256 1.263 . S
N254 C258 1.389 . S
N255 C256 1.358 . S
N255 C257 1.400 . S
C256 N254 1.263 . S
C256 N255 1.358 . S
C256 H262 0.930 . S
C257 N255 1.400 . S
C257 C258 1.351 . S
C257 H274 0.930 . S
C258 N254 1.389 . S
C258 C257 1.351 . S
C258 H263 0.930 . S
O259 Cu253 1.974 . S
O259 C269 1.282 . S
C260 O261 1.241 1_655 S
C260 O273 1.251 . S
O261 C260 1.241 1_455 S
H262 C256 0.930 . S
H263 C258 0.930 . S
N264 Cu253 1.985 . S
N264 C266 1.335 . S
N264 C267 1.390 . S
N265 C266 1.345 . S
N265 C268 1.336 . S
C266 N264 1.335 . S
C266 N265 1.345 . S
C266 H271 0.930 . S
C267 N264 1.390 . S
C267 C268 1.346 . S
C267 H272 0.930 . S
C268 N265 1.336 . S
C268 C267 1.346 . S
C268 H275 0.929 . S
C269 O259 1.282 . S
C269 O270 1.216 . S
O270 C269 1.216 . S
H271 C266 0.930 . S
H272 C267 0.930 . S
O273 Cu253 1.959 . S
O273 C260 1.251 . S
H274 C257 0.930 . S
H275 C268 0.929 . S
Cu276 N277 1.999 . S
Cu276 O282 1.974 . S
Cu276 N287 1.985 . S
Cu276 O296 1.959 . S
N277 Cu276 1.999 . S
N277 C279 1.263 . S
N277 C281 1.389 . S
N278 C279 1.358 . S
N278 C280 1.400 . S
C279 N277 1.263 . S
C279 N278 1.358 . S
C279 H285 0.930 . S
C280 N278 1.400 . S
C280 C281 1.351 . S
C280 H297 0.930 . S
C281 N277 1.389 . S
C281 C280 1.351 . S
C281 H286 0.930 . S
O282 Cu276 1.974 . S
O282 C292 1.282 . S
C283 O284 1.261 . S
C283 O296 1.251 . S
O284 C283 1.261 . S
H285 C279 0.930 . S
H286 C281 0.930 . S
N287 Cu276 1.985 . S
N287 C289 1.335 . S
N287 C290 1.390 . S
N288 C289 1.345 . S
N288 C291 1.336 . S
C289 N287 1.335 . S
C289 N288 1.345 . S
C289 H294 0.930 . S
C290 N287 1.390 . S
C290 C291 1.346 . S
C290 H295 0.930 . S
C291 N288 1.336 . S
C291 C290 1.346 . S
C291 H298 0.929 . S
C292 O282 1.282 . S
C292 O293 1.216 . S
O293 C292 1.216 . S
H294 C289 0.930 . S
H295 C290 0.930 . S
O296 Cu276 1.959 . S
O296 C283 1.251 . S
H297 C280 0.930 . S
H298 C291 0.929 . S
Cu299 N300 1.999 . S
Cu299 O305 1.974 . S
Cu299 N310 1.985 . S
Cu299 O319 1.959 . S
N300 Cu299 1.999 . S
N300 C302 1.263 . S
N300 C304 1.389 . S
N301 C302 1.358 . S
N301 C303 1.400 . S
C302 N300 1.263 . S
C302 N301 1.358 . S
C302 H308 0.930 . S
C303 N301 1.400 . S
C303 C304 1.351 . S
C303 H320 0.930 . S
C304 N300 1.389 . S
C304 C303 1.351 . S
C304 H309 0.930 . S
O305 Cu299 1.974 . S
O305 C315 1.282 . S
C306 O307 1.261 . S
C306 O319 1.251 . S
O307 C306 1.261 . S
H308 C302 0.930 . S
H309 C304 0.930 . S
N310 Cu299 1.985 . S
N310 C312 1.335 . S
N310 C313 1.390 1_565 S
N311 C312 1.345 1_545 S
N311 C314 1.336 . S
C312 N310 1.335 . S
C312 N311 1.345 1_565 S
C312 H317 0.930 . S
C313 N310 1.390 1_545 S
C313 C314 1.346 . S
C313 H318 0.930 . S
C314 N311 1.336 . S
C314 C313 1.346 . S
C314 H321 0.929 . S
C315 O305 1.282 . S
C315 O316 1.216 1_565 S
O316 C315 1.216 1_545 S
H317 C312 0.930 . S
H318 C313 0.930 . S
O319 Cu299 1.959 . S
O319 C306 1.251 . S
H320 C303 0.930 . S
H321 C314 0.929 . S
Cu322 N323 1.999 . S
Cu322 O328 1.974 . S
Cu322 N333 1.985 . S
Cu322 O342 1.959 . S
N323 Cu322 1.999 . S
N323 C325 1.263 . S
N323 C327 1.389 . S
N324 C325 1.358 . S
N324 C326 1.400 . S
C325 N323 1.263 . S
C325 N324 1.358 . S
C325 H331 0.930 . S
C326 N324 1.400 . S
C326 C327 1.351 . S
C326 H343 0.930 . S
C327 N323 1.389 . S
C327 C326 1.351 . S
C327 H332 0.930 . S
O328 Cu322 1.974 . S
O328 C338 1.295 . S
C329 O330 1.261 . S
C329 O342 1.251 . S
O330 C329 1.261 . S
H331 C325 0.930 . S
H332 C327 0.930 . S
N333 Cu322 1.985 . S
N333 C335 1.335 . S
N333 C336 1.390 . S
N334 C335 1.345 . S
N334 C337 1.336 . S
C335 N333 1.335 . S
C335 N334 1.345 . S
C335 H340 0.930 . S
C336 N333 1.390 . S
C336 C337 1.346 . S
C336 H341 0.930 . S
C337 N334 1.336 . S
C337 C336 1.346 . S
C337 H344 0.929 . S
C338 O328 1.295 . S
C338 O339 1.224 . S
O339 C338 1.224 . S
H340 C335 0.930 . S
H341 C336 0.930 . S
O342 Cu322 1.959 . S
O342 C329 1.251 . S
H343 C326 0.930 . S
H344 C337 0.929 . S
Cu345 N346 1.999 . S
Cu345 O351 1.974 . S
Cu345 N356 1.985 . S
Cu345 O365 1.959 . S
N346 Cu345 1.999 . S
N346 C348 1.263 . S
N346 C350 1.389 . S
N347 C348 1.358 . S
N347 C349 1.400 . S
C348 N346 1.263 . S
C348 N347 1.358 . S
C348 H354 0.930 . S
C349 N347 1.400 . S
C349 C350 1.351 . S
C349 H366 0.930 . S
C350 N346 1.389 . S
C350 C349 1.351 . S
C350 H355 0.930 . S
O351 Cu345 1.974 . S
O351 C361 1.282 . S
C352 O353 1.261 . S
C352 O365 1.251 . S
O353 C352 1.261 . S
H354 C348 0.930 . S
H355 C350 0.930 . S
N356 Cu345 1.985 . S
N356 C358 1.335 . S
N356 C359 1.390 1_565 S
N357 C358 1.345 1_545 S
N357 C360 1.336 . S
C358 N356 1.335 . S
C358 N357 1.345 1_565 S
C358 H363 0.930 . S
C359 N356 1.390 1_545 S
C359 C360 1.346 . S
C359 H364 0.930 . S
C360 N357 1.336 . S
C360 C359 1.346 . S
C360 H367 0.929 . S
C361 O351 1.282 . S
C361 O362 1.216 1_565 S
O362 C361 1.216 1_545 S
H363 C358 0.930 . S
H364 C359 0.930 . S
O365 Cu345 1.959 . S
O365 C352 1.251 . S
H366 C349 0.930 . S
H367 C360 0.929 . S
Cu368 N369 1.999 . S
Cu368 O374 1.974 . S
Cu368 N379 1.985 . S
Cu368 O388 1.959 . S
N369 Cu368 1.999 . S
N369 C371 1.263 . S
N369 C373 1.389 . S
N370 C371 1.358 . S
N370 C372 1.400 . S
C371 N369 1.263 . S
C371 N370 1.358 . S
C371 H377 0.930 . S
C372 N370 1.400 . S
C372 C373 1.351 . S
C372 H389 0.930 . S
C373 N369 1.389 . S
C373 C372 1.351 . S
C373 H378 0.930 . S
O374 Cu368 1.974 . S
O374 C384 1.282 . S
C375 O376 1.261 . S
C375 O388 1.251 . S
O376 C375 1.261 . S
H377 C371 0.930 . S
H378 C373 0.930 . S
N379 Cu368 1.985 . S
N379 C381 1.335 . S
N379 C382 1.390 . S
N380 C381 1.345 . S
N380 C383 1.336 . S
C381 N379 1.335 . S
C381 N380 1.345 . S
C381 H386 0.930 . S
C382 N379 1.390 . S
C382 C383 1.346 . S
C382 H387 0.930 . S
C383 N380 1.336 . S
C383 C382 1.346 . S
C383 H390 0.929 . S
C384 O374 1.282 . S
C384 O385 1.216 . S
O385 C384 1.216 . S
H386 C381 0.930 . S
H387 C382 0.930 . S
O388 Cu368 1.959 . S
O388 C375 1.251 . S
H389 C372 0.930 . S
H390 C383 0.929 . S
Cu391 N392 1.999 . S
Cu391 O397 1.974 . S
Cu391 N402 1.985 . S
Cu391 O411 1.959 . S
N392 Cu391 1.999 . S
N392 C394 1.263 . S
N392 C396 1.389 . S
N393 C394 1.358 . S
N393 C395 1.400 . S
C394 N392 1.263 . S
C394 N393 1.358 . S
C394 H400 0.930 . S
C395 N393 1.400 . S
C395 C396 1.351 . S
C395 H412 0.930 . S
C396 N392 1.389 . S
C396 C395 1.351 . S
C396 H401 0.930 . S
O397 Cu391 1.974 . S
O397 C407 1.282 . S
C398 O399 1.261 . S
C398 O411 1.251 . S
O399 C398 1.261 . S
H400 C394 0.930 . S
H401 C396 0.930 . S
N402 Cu391 1.985 . S
N402 C404 1.335 . S
N402 C405 1.390 . S
N403 C404 1.345 . S
N403 C406 1.336 . S
C404 N402 1.335 . S
C404 N403 1.345 . S
C404 H409 0.930 . S
C405 N402 1.390 . S
C405 C406 1.346 . S
C405 H410 0.930 . S
C406 N403 1.336 . S
C406 C405 1.346 . S
C406 H413 0.929 . S
C407 O397 1.282 . S
C407 O408 1.216 . S
O408 C407 1.216 . S
H409 C404 0.930 . S
H410 C405 0.930 . S
O411 Cu391 1.959 . S
O411 C398 1.251 . S
H412 C395 0.930 . S
H413 C406 0.929 . S
C414 C415 1.387 . S
C414 H418 0.950 . S
C414 C423 1.390 . S
C415 C414 1.387 . S
C415 C417 1.387 . S
H416 C423 0.950 . S
C417 C415 1.387 . S
C417 C419 1.390 . S
C417 H421 0.950 . S
H418 C414 0.950 . S
C419 C417 1.390 . S
C419 C420 1.387 . S
C419 H422 0.950 . S
C420 C419 1.387 . S
C420 C423 1.387 . S
H421 C417 0.950 . S
H422 C419 0.950 . S
C423 C414 1.390 . S
C423 H416 0.950 . S
C423 C420 1.387 . S
C424 C425 1.387 . S
C424 H428 0.950 . S
C424 C433 1.390 . S
C425 C424 1.387 . S
C425 C427 1.387 . S
H426 C433 0.950 . S
C427 C425 1.387 . S
C427 C429 1.390 . S
C427 H431 0.950 . S
H428 C424 0.950 . S
C429 C427 1.390 . S
C429 C430 1.387 . S
C429 H432 0.950 . S
C430 C429 1.387 . S
C430 C433 1.387 . S
H431 C427 0.950 . S
H432 C429 0.950 . S
C433 C424 1.390 . S
C433 H426 0.950 . S
C433 C430 1.387 . S
C434 C435 1.387 . S
C434 H438 0.950 . S
C434 C443 1.390 . S
C435 C434 1.387 . S
C435 C437 1.387 . S
H436 C443 0.950 . S
C437 C435 1.387 . S
C437 C439 1.390 . S
C437 H441 0.950 . S
H438 C434 0.950 . S
C439 C437 1.390 . S
C439 C440 1.387 . S
C439 H442 0.950 . S
C440 C439 1.387 . S
C440 C443 1.387 . S
H441 C437 0.950 . S
H442 C439 0.950 . S
C443 C434 1.390 . S
C443 H436 0.950 . S
C443 C440 1.387 . S
C444 C445 1.387 . S
C444 H448 0.950 . S
C444 C453 1.390 . S
C445 C444 1.387 . S
C445 C447 1.387 . S
H446 C453 0.950 . S
C447 C445 1.387 . S
C447 C449 1.390 . S
C447 H451 0.950 1_545 S
H448 C444 0.950 . S
C449 C447 1.390 . S
C449 C450 1.387 . S
C449 H452 0.950 1_545 S
C450 C449 1.387 . S
C450 C453 1.387 . S
H451 C447 0.950 1_565 S
H452 C449 0.950 1_565 S
C453 C444 1.390 . S
C453 H446 0.950 . S
C453 C450 1.387 . S
C454 C455 1.387 1_455 S
C454 H458 0.950 . S
C454 C463 1.390 . S
C455 C454 1.387 1_655 S
C455 C457 1.387 . S
H456 C463 0.950 . S
C457 C455 1.387 . S
C457 C459 1.390 . S
C457 H461 0.950 . S
H458 C454 0.950 . S
C459 C457 1.390 . S
C459 C460 1.387 . S
C459 H462 0.950 . S
C460 C459 1.387 . S
C460 C463 1.387 1_655 S
H461 C457 0.950 . S
H462 C459 0.950 . S
C463 C454 1.390 . S
C463 H456 0.950 . S
C463 C460 1.387 1_455 S
C464 C465 1.387 . S
C464 H468 0.950 . S
C464 C473 1.390 . S
C465 C464 1.387 . S
C465 C467 1.387 . S
H466 C473 0.950 . S
C467 C465 1.387 . S
C467 C469 1.390 . S
C467 H471 0.950 . S
H468 C464 0.950 . S
C469 C467 1.390 . S
C469 C470 1.387 . S
C469 H472 0.950 . S
C470 C469 1.387 . S
C470 C473 1.387 . S
H471 C467 0.950 . S
H472 C469 0.950 . S
C473 C464 1.390 . S
C473 H466 0.950 . S
C473 C470 1.387 . S
C474 C475 1.387 . S
C474 H478 0.950 1_655 S
C474 C483 1.390 . S
C475 C474 1.387 . S
C475 C477 1.387 . S
H476 C483 0.950 . S
C477 C475 1.387 . S
C477 C479 1.390 . S
C477 H481 0.950 . S
H478 C474 0.950 1_455 S
C479 C477 1.390 . S
C479 C480 1.387 . S
C479 H482 0.950 . S
C480 C479 1.387 . S
C480 C483 1.387 . S
H481 C477 0.950 . S
H482 C479 0.950 . S
C483 C474 1.390 . S
C483 H476 0.950 . S
C483 C480 1.387 . S
C484 C485 1.387 . S
C484 H488 0.950 . S
C484 C493 1.390 . S
C485 C484 1.387 . S
C485 C487 1.387 . S
H486 C493 0.950 . S
C487 C485 1.387 . S
C487 C489 1.390 . S
C487 H491 0.950 . S
H488 C484 0.950 . S
C489 C487 1.390 . S
C489 C490 1.387 . S
C489 H492 0.950 . S
C490 C489 1.387 . S
C490 C493 1.387 . S
H491 C487 0.950 . S
H492 C489 0.950 . S
C493 C484 1.390 . S
C493 H486 0.950 . S
C493 C490 1.387 . S
C494 C495 1.387 . S
C494 H498 0.950 1_545 S
C494 C503 1.390 . S
C495 C494 1.387 . S
C495 C497 1.387 . S
H496 C503 0.950 1_565 S
C497 C495 1.387 . S
C497 C499 1.390 . S
C497 H501 0.950 . S
H498 C494 0.950 1_565 S
C499 C497 1.390 . S
C499 C500 1.387 . S
C499 H502 0.950 . S
C500 C499 1.387 . S
C500 C503 1.387 . S
H501 C497 0.950 . S
H502 C499 0.950 . S
C503 C494 1.390 . S
C503 H496 0.950 1_545 S
C503 C500 1.387 . S
C504 C505 1.387 1_545 S
C504 H508 0.950 . S
C504 C513 1.390 . S
C505 C504 1.387 1_565 S
C505 C507 1.387 . S
H506 C513 0.950 . S
C507 C505 1.387 . S
C507 C509 1.390 . S
C507 H511 0.950 . S
H508 C504 0.950 . S
C509 C507 1.390 . S
C509 C510 1.387 . S
C509 H512 0.950 . S
C510 C509 1.387 . S
C510 C513 1.387 1_565 S
H511 C507 0.950 . S
H512 C509 0.950 . S
C513 C504 1.390 . S
C513 H506 0.950 . S
C513 C510 1.387 1_545 S
C514 C515 1.387 . S
C514 H518 0.950 . S
C514 C523 1.390 . S
C515 C514 1.387 . S
C515 C517 1.387 . S
H516 C523 0.950 . S
C517 C515 1.387 . S
C517 C519 1.390 . S
C517 H521 0.950 1_455 S
H518 C514 0.950 . S
C519 C517 1.390 . S
C519 C520 1.387 . S
C519 H522 0.950 1_455 S
C520 C519 1.387 . S
C520 C523 1.387 . S
H521 C517 0.950 1_655 S
H522 C519 0.950 1_655 S
C523 C514 1.390 . S
C523 H516 0.950 . S
C523 C520 1.387 . S
C524 C525 1.387 . S
C524 H528 0.950 . S
C524 C533 1.390 . S
C525 C524 1.387 . S
C525 C527 1.387 . S
H526 C533 0.950 . S
C527 C525 1.387 . S
C527 C529 1.390 . S
C527 H531 0.950 . S
H528 C524 0.950 . S
C529 C527 1.390 . S
C529 C530 1.387 . S
C529 H532 0.950 . S
C530 C529 1.387 . S
C530 C533 1.387 . S
H531 C527 0.950 . S
H532 C529 0.950 . S
C533 C524 1.390 . S
C533 H526 0.950 . S
C533 C530 1.387 . S
C534 C535 1.387 . S
C534 H538 0.950 . S
C534 C543 1.390 . S
C535 C534 1.387 . S
C535 C537 1.387 . S
H536 C543 0.950 . S
C537 C535 1.387 . S
C537 C539 1.390 . S
C537 H541 0.950 . S
H538 C534 0.950 . S
C539 C537 1.390 . S
C539 C540 1.387 . S
C539 H542 0.950 . S
C540 C539 1.387 . S
C540 C543 1.387 . S
H541 C537 0.950 . S
H542 C539 0.950 . S
C543 C534 1.390 . S
C543 H536 0.950 . S
C543 C540 1.387 . S
C544 C545 1.387 . S
C544 H548 0.950 . S
C544 C553 1.390 1_545 S
C545 C544 1.387 . S
C545 C547 1.387 . S
H546 C553 0.950 . S
C547 C545 1.387 . S
C547 C549 1.390 1_545 S
C547 H551 0.950 . S
H548 C544 0.950 . S
C549 C547 1.390 1_565 S
C549 C550 1.387 . S
C549 H552 0.950 . S
C550 C549 1.387 . S
C550 C553 1.387 . S
H551 C547 0.950 . S
H552 C549 0.950 . S
C553 C544 1.390 1_565 S
C553 H546 0.950 . S
C553 C550 1.387 . S
C554 C555 1.387 . S
C554 H558 0.950 . S
C554 C563 1.390 . S
C555 C554 1.387 . S
C555 C557 1.386 1_455 S
H556 C563 0.950 . S
C557 C555 1.386 1_655 S
C557 C559 1.392 . S
C557 H561 0.949 . S
H558 C554 0.950 . S
C559 C557 1.392 . S
C559 C560 1.387 . S
C559 H562 0.950 . S
C560 C559 1.387 . S
C560 C563 1.387 1_655 S
H561 C557 0.949 . S
H562 C559 0.950 . S
C563 C554 1.390 . S
C563 H556 0.950 . S
C563 C560 1.387 1_455 S
C564 C565 1.387 . S
C564 H568 0.950 . S
C564 C573 1.390 . S
C565 C564 1.387 . S
C565 C567 1.387 . S
H566 C573 0.950 . S
C567 C565 1.387 . S
C567 C569 1.390 . S
C567 H571 0.950 . S
H568 C564 0.950 . S
C569 C567 1.390 . S
C569 C570 1.387 . S
C569 H572 0.950 . S
C570 C569 1.387 . S
C570 C573 1.387 . S
H571 C567 0.950 . S
H572 C569 0.950 . S
C573 C564 1.390 . S
C573 H566 0.950 . S
C573 C570 1.387 . S
C574 C575 1.387 . S
C574 H578 0.950 . S
C574 C583 1.390 1_545 S
C575 C574 1.387 . S
C575 C577 1.387 . S
H576 C583 0.950 . S
C577 C575 1.387 . S
C577 C579 1.390 . S
C577 H581 0.950 . S
H578 C574 0.950 . S
C579 C577 1.390 . S
C579 C580 1.387 1_545 S
C579 H582 0.950 1_545 S
C580 C579 1.387 1_565 S
C580 C583 1.387 . S
H581 C577 0.950 . S
H582 C579 0.950 1_565 S
C583 C574 1.390 1_565 S
C583 H576 0.950 . S
C583 C580 1.387 . S
C584 C585 1.387 1_655 S
C584 H588 0.950 . S
C584 C593 1.390 . S
C585 C584 1.387 1_455 S
C585 C587 1.387 . S
H586 C593 0.950 . S
C587 C585 1.387 . S
C587 C589 1.390 . S
C587 H591 0.950 . S
H588 C584 0.950 . S
C589 C587 1.390 . S
C589 C590 1.387 1_455 S
C589 H592 0.950 . S
C590 C589 1.387 1_655 S
C590 C593 1.387 . S
H591 C587 0.950 . S
H592 C589 0.950 . S
C593 C584 1.390 . S
C593 H586 0.950 . S
C593 C590 1.387 . S
C594 C595 1.387 . S
C594 H598 0.950 . S
C594 C603 1.390 . S
C595 C594 1.387 . S
C595 C597 1.387 . S
H596 C603 0.950 . S
C597 C595 1.387 . S
C597 C599 1.390 . S
C597 H601 0.950 . S
H598 C594 0.950 . S
C599 C597 1.390 . S
C599 C600 1.387 . S
C599 H602 0.950 . S
C600 C599 1.387 . S
C600 C603 1.387 . S
H601 C597 0.950 . S
H602 C599 0.950 . S
C603 C594 1.390 . S
C603 H596 0.950 . S
C603 C600 1.387 . S
C604 C605 1.387 . S
C604 H608 0.950 . S
C604 C613 1.390 . S
C605 C604 1.387 . S
C605 C607 1.387 . S
H606 C613 0.950 . S
C607 C605 1.387 . S
C607 C609 1.390 . S
C607 H611 0.950 . S
H608 C604 0.950 . S
C609 C607 1.390 . S
C609 C610 1.387 . S
C609 H612 0.950 . S
C610 C609 1.387 . S
C610 C613 1.387 . S
H611 C607 0.950 . S
H612 C609 0.950 . S
C613 C604 1.390 . S
C613 H606 0.950 . S
C613 C610 1.387 . S
C614 C615 1.387 . S
C614 H618 0.950 . S
C614 C623 1.390 . S
C615 C614 1.387 . S
C615 C617 1.387 . S
H616 C623 0.950 . S
C617 C615 1.387 . S
C617 C619 1.390 . S
C617 H621 0.950 . S
H618 C614 0.950 . S
C619 C617 1.390 . S
C619 C620 1.387 . S
C619 H622 0.950 . S
C620 C619 1.387 . S
C620 C623 1.387 . S
H621 C617 0.950 . S
H622 C619 0.950 . S
C623 C614 1.390 . S
C623 H616 0.950 . S
C623 C620 1.387 . S
C624 C625 1.387 . S
C624 H628 0.950 . S
C624 C633 1.390 . S
C625 C624 1.387 . S
C625 C627 1.387 . S
H626 C633 0.950 . S
C627 C625 1.387 . S
C627 C629 1.390 . S
C627 H631 0.950 . S
H628 C624 0.950 . S
C629 C627 1.390 . S
C629 C630 1.387 . S
C629 H632 0.950 . S
C630 C629 1.387 . S
C630 C633 1.387 . S
H631 C627 0.950 . S
H632 C629 0.950 . S
C633 C624 1.390 . S
C633 H626 0.950 . S
C633 C630 1.387 . S
C634 C635 1.387 . S
C634 H638 0.950 . S
C634 C643 1.390 . S
C635 C634 1.387 . S
C635 C637 1.387 . S
H636 C643 0.950 . S
C637 C635 1.387 . S
C637 C639 1.390 . S
C637 H641 0.950 . S
H638 C634 0.950 . S
C639 C637 1.390 . S
C639 C640 1.387 . S
C639 H642 0.950 . S
C640 C639 1.387 . S
C640 C643 1.387 . S
H641 C637 0.950 . S
H642 C639 0.950 . S
C643 C634 1.390 . S
C643 H636 0.950 . S
C643 C640 1.387 . S
C644 C645 1.387 . S
C644 H648 0.950 . S
C644 C653 1.390 . S
C645 C644 1.387 . S
C645 C647 1.387 . S
H646 C653 0.950 . S
C647 C645 1.387 . S
C647 C649 1.390 . S
C647 H651 0.950 . S
H648 C644 0.950 . S
C649 C647 1.390 . S
C649 C650 1.387 . S
C649 H652 0.950 . S
C650 C649 1.387 . S
C650 C653 1.387 . S
H651 C647 0.950 . S
H652 C649 0.950 . S
C653 C644 1.390 . S
C653 H646 0.950 . S
C653 C650 1.387 . S
C654 C655 1.387 . S
C654 H658 0.950 . S
C654 C663 1.390 . S
C655 C654 1.387 . S
C655 C657 1.387 . S
H656 C663 0.950 . S
C657 C655 1.387 . S
C657 C659 1.390 . S
C657 H661 0.950 . S
H658 C654 0.950 . S
C659 C657 1.390 . S
C659 C660 1.387 . S
C659 H662 0.950 . S
C660 C659 1.387 . S
C660 C663 1.387 . S
H661 C657 0.950 . S
H662 C659 0.950 . S
C663 C654 1.390 . S
C663 H656 0.950 . S
C663 C660 1.387 . S
C664 C665 1.387 . S
C664 H668 0.950 . S
C664 C673 1.390 . S
C665 C664 1.387 . S
C665 C667 1.387 . S
H666 C673 0.950 . S
C667 C665 1.387 . S
C667 C669 1.390 . S
C667 H671 0.950 . S
H668 C664 0.950 . S
C669 C667 1.390 . S
C669 C670 1.387 . S
C669 H672 0.950 . S
C670 C669 1.387 . S
C670 C673 1.387 . S
H671 C667 0.950 . S
H672 C669 0.950 . S
C673 C664 1.390 . S
C673 H666 0.950 . S
C673 C670 1.387 . S
C674 C675 1.387 . S
C674 H678 0.950 . S
C674 C683 1.390 . S
C675 C674 1.387 . S
C675 C677 1.387 . S
H676 C683 0.950 . S
C677 C675 1.387 . S
C677 C679 1.390 . S
C677 H681 0.950 . S
H678 C674 0.950 . S
C679 C677 1.390 . S
C679 C680 1.387 . S
C679 H682 0.950 . S
C680 C679 1.387 . S
C680 C683 1.387 . S
H681 C677 0.950 . S
H682 C679 0.950 . S
C683 C674 1.390 . S
C683 H676 0.950 . S
C683 C680 1.387 . S
C684 C685 1.387 . S
C684 H688 0.950 . S
C684 C693 1.390 . S
C685 C684 1.387 . S
C685 C687 1.387 . S
H686 C693 0.950 . S
C687 C685 1.387 . S
C687 C689 1.390 . S
C687 H691 0.950 . S
H688 C684 0.950 . S
C689 C687 1.390 . S
C689 C690 1.387 . S
C689 H692 0.950 . S
C690 C689 1.387 . S
C690 C693 1.387 . S
H691 C687 0.950 . S
H692 C689 0.950 . S
C693 C684 1.390 . S
C693 H686 0.950 . S
C693 C690 1.387 . S
C694 C695 1.387 . S
C694 H698 0.950 . S
C694 C703 1.390 . S
C695 C694 1.387 . S
C695 C697 1.387 . S
H696 C703 0.950 . S
C697 C695 1.387 . S
C697 C699 1.390 . S
C697 H701 0.950 . S
H698 C694 0.950 . S
C699 C697 1.390 . S
C699 C700 1.387 . S
C699 H702 0.950 . S
C700 C699 1.387 . S
C700 C703 1.387 . S
H701 C697 0.950 . S
H702 C699 0.950 . S
C703 C694 1.390 . S
C703 H696 0.950 . S
C703 C700 1.387 . S
C704 C705 1.387 . S
C704 H708 0.950 . S
C704 C713 1.390 . S
C705 C704 1.387 . S
C705 C707 1.387 . S
H706 C713 0.950 . S
C707 C705 1.387 . S
C707 C709 1.390 . S
C707 H711 0.950 . S
H708 C704 0.950 . S
C709 C707 1.390 . S
C709 C710 1.387 . S
C709 H712 0.950 . S
C710 C709 1.387 . S
C710 C713 1.387 . S
H711 C707 0.950 . S
H712 C709 0.950 . S
C713 C704 1.390 . S
C713 H706 0.950 . S
C713 C710 1.387 . S
C714 C715 1.387 . S
C714 H718 0.950 . S
C714 C723 1.390 . S
C715 C714 1.387 . S
C715 C717 1.387 . S
H716 C723 0.950 . S
C717 C715 1.387 . S
C717 C719 1.390 . S
C717 H721 0.950 . S
H718 C714 0.950 . S
C719 C717 1.390 . S
C719 C720 1.387 . S
C719 H722 0.950 . S
C720 C719 1.387 . S
C720 C723 1.387 . S
H721 C717 0.950 . S
H722 C719 0.950 . S
C723 C714 1.390 . S
C723 H716 0.950 . S
C723 C720 1.387 . S
C724 C725 1.387 1_565 S
C724 H728 0.950 . S
C724 C733 1.390 . S
C725 C724 1.387 1_545 S
C725 C727 1.387 . S
H726 C733 0.950 . S
C727 C725 1.387 . S
C727 C729 1.390 . S
C727 H731 0.950 . S
H728 C724 0.950 . S
C729 C727 1.390 . S
C729 C730 1.387 . S
C729 H732 0.950 . S
C730 C729 1.387 . S
C730 C733 1.387 1_545 S
H731 C727 0.950 . S
H732 C729 0.950 . S
C733 C724 1.390 . S
C733 H726 0.950 . S
C733 C730 1.387 1_565 S
C734 C735 1.387 1_655 S
C734 H738 0.950 . S
C734 C743 1.390 . S
C735 C734 1.387 1_455 S
C735 C737 1.387 . S
H736 C743 0.950 . S
C737 C735 1.387 . S
C737 C739 1.390 . S
C737 H741 0.950 . S
H738 C734 0.950 . S
C739 C737 1.390 . S
C739 C740 1.387 . S
C739 H742 0.950 . S
C740 C739 1.387 . S
C740 C743 1.387 1_455 S
H741 C737 0.950 . S
H742 C739 0.950 . S
C743 C734 1.390 . S
C743 H736 0.950 . S
C743 C740 1.387 1_655 S
C744 C745 1.387 . S
C744 H748 0.950 . S
C744 C753 1.390 . S
C745 C744 1.387 . S
C745 C747 1.387 1_556 S
H746 C753 0.950 . S
C747 C745 1.387 1_554 S
C747 C749 1.390 . S
C747 H751 0.950 . S
H748 C744 0.950 . S
C749 C747 1.390 . S
C749 C750 1.387 . S
C749 H752 0.950 . S
C750 C749 1.387 . S
C750 C753 1.387 1_554 S
H751 C747 0.950 . S
H752 C749 0.950 . S
C753 C744 1.390 . S
C753 H746 0.950 . S
C753 C750 1.387 1_556 S
C754 C755 1.387 1_565 S
C754 H758 0.950 . S
C754 C763 1.390 1_556 S
C755 C754 1.387 1_545 S
C755 C757 1.387 . S
H756 C763 0.950 . S
C757 C755 1.387 . S
C757 C759 1.390 1_556 S
C757 H761 0.950 . S
H758 C754 0.950 . S
C759 C757 1.390 1_554 S
C759 C760 1.387 . S
C759 H762 0.950 . S
C760 C759 1.387 . S
C760 C763 1.387 1_545 S
H761 C757 0.950 . S
H762 C759 0.950 . S
C763 C754 1.390 1_554 S
C763 H756 0.950 . S
C763 C760 1.387 1_565 S
C764 C765 1.387 1_554 S
C764 H768 0.950 . S
C764 C773 1.390 . S
C765 C764 1.387 1_556 S
C765 C767 1.387 1_455 S
H766 C773 0.950 . S
C767 C765 1.387 1_655 S
C767 C769 1.390 . S
C767 H771 0.950 . S
H768 C764 0.950 . S
C769 C767 1.390 . S
C769 C770 1.387 1_656 S
C769 H772 0.950 . S
C770 C769 1.387 1_454 S
C770 C773 1.387 . S
H771 C767 0.950 . S
H772 C769 0.950 . S
C773 C764 1.390 . S
C773 H766 0.950 . S
C773 C770 1.387 . S
C415 C7 1.706 . S
C420 C338 1.641 1_554 S
C425 C292 1.629 1_554 S
C430 C39 1.631 . S
C435 C53 1.736 . S
C440 C306 1.734 1_554 S
C445 C154 1.634 . S
C450 C62 1.634 . S
C455 C177 1.630 . S
C460 C16 1.629 . S
C465 C200 1.656 . S
C470 C30 1.699 . S
C475 C76 1.695 . S
C480 C269 1.653 1_556 S
C485 C223 1.631 1_556 S
C490 C108 1.631 . S
C495 C246 1.631 1_556 S
C500 C122 1.698 . S
C505 C131 1.664 . S
C510 C352 1.705 . S
C515 C85 1.630 . S
C520 C384 1.630 . S
C525 C398 1.737 . S
C530 C99 1.737 . S
C535 C283 1.733 . S
C540 C191 1.733 . S
C545 C145 1.711 . S
C550 C315 1.667 . S
C555 C329 1.735 . S
C560 C168 1.735 . S
C565 C407 1.670 . S
C570 C214 1.714 . S
C575 C237 1.713 . S
C580 C361 1.668 . S
C585 C375 1.738 . S
C590 C260 1.738 . S
C595 N347 1.577 . S
C600 N2 1.577 . S
C605 N35 1.675 . S
C610 N380 1.675 . S
C615 N48 1.578 . S
C620 N393 1.578 . S
C625 N58 1.664 . S
C630 N265 1.665 . S
C635 N219 1.662 . S
C640 N12 1.663 . S
C645 N25 1.564 . S
C650 N242 1.677 . S
C655 N150 1.671 . S
C660 N71 1.562 . S
C665 N173 1.658 . S
C670 N104 1.658 . S
C675 N117 1.564 . S
C680 N196 1.672 . S
C685 N127 1.660 . S
C690 N334 1.660 . S
C695 N81 1.659 . S
C700 N288 1.659 . S
C705 N94 1.565 . S
C710 N301 1.566 . S
C715 N186 1.564 . S
C720 N403 1.670 . S
C725 N140 1.563 . S
C730 N357 1.671 . S
C735 N370 1.573 . S
C740 N163 1.574 1_455 S
C745 N278 1.571 . S
C750 N209 1.570 . S
C755 N311 1.663 . S
C760 N232 1.556 . S
C765 N324 1.567 . S
C770 N255 1.568 1_455 S
