# Generated by pormake.
# Topology kag, (6)-cn, num edge types: 1
# Building blocks:
#     Node 0, Type 0, BuildingBlock: KUMBOL_clean_sbu_1, # of connection points: 6
#     Node 1, Type 0, BuildingBlock: KUMBOL_clean_sbu_1, # of connection points: 6
#     Node 2, Type 0, BuildingBlock: KUMBOL_clean_sbu_1, # of connection points: 6
#     Edge 3, Type (0, 0), BuildingBlock: XUDNAN_clean_linker_2, # of connection points: 2
#     Edge 4, Type (0, 0), BuildingBlock: XUDNAN_clean_linker_2, # of connection points: 2
#     Edge 5, Type (0, 0), BuildingBlock: XUDNAN_clean_linker_2, # of connection points: 2
#     Edge 6, Type (0, 0), BuildingBlock: XUDNAN_clean_linker_2, # of connection points: 2
#     Edge 7, Type (0, 0), BuildingBlock: XUDNAN_clean_linker_2, # of connection points: 2
#     Edge 8, Type (0, 0), BuildingBlock: XUDNAN_clean_linker_2, # of connection points: 2
#     Edge 9, Type (0, 0), BuildingBlock: XUDNAN_clean_linker_2, # of connection points: 2
#     Edge 10, Type (0, 0), BuildingBlock: XUDNAN_clean_linker_2, # of connection points: 2
#     Edge 11, Type (0, 0), BuildingBlock: XUDNAN_clean_linker_2, # of connection points: 2
# Relax obj value: 0.094
# Max RMSD: 0.181
# Mean RMSD: 0.125
data_MOF--net-kag--node1-KUMBOL_clean_sbu_1--edge1-XUDNAN_clean_linker_2
_symmetry_space_group_name_H-M    P1
_symmetry_Int_Tables_number       1
_symmetry_cell_setting            triclinic
loop_
_symmetry_equiv_pos_as_xyz
'x, y, z'
_cell_length_a     30.896567
_cell_length_b     40.531022
_cell_length_c     14.867394
_cell_angle_alpha  107.89241
_cell_angle_beta   96.826474
_cell_angle_gamma 99.550905
loop_
_atom_site_label
_atom_site_type_symbol
_atom_site_fract_x
_atom_site_fract_y
_atom_site_fract_z
_atom_type_partial_charge
C0 C 1.03902 0.38949 0.77694 0.0
C1 C 0.10444 0.36635 0.80829 0.0
C2 C 0.07693 0.39064 0.8379 0.0
C3 C 0.09393 0.34176 0.71445 0.0
C4 C 1.02729 0.36412 0.68388 0.0
C5 C 0.05538 0.34065 0.65232 0.0
N6 N 1.01265 0.41241 0.8102 0.0
C7 C 0.97278 0.41033 0.75598 0.0
C8 C 0.98728 0.36273 0.62626 0.0
C9 C 0.95969 0.38571 0.6629 0.0
Gd10 Gd 0.05984 0.55997 0.05369 0.0
Gd11 Gd 1.03809 0.45455 0.96419 0.0
N12 N 0.08555 0.41438 0.92813 0.0
C13 C 0.14095 0.36694 0.87473 0.0
C14 C 0.11947 0.41368 0.99498 0.0
C15 C 0.14817 0.39044 0.9689 0.0
H16 H 0.12504 0.43173 0.06796 0.0
H17 H 0.17575 0.39063 0.0214 0.0
H18 H 1.02171 0.55506 0.82036 0.0
H19 H 0.95126 0.42795 0.78398 0.0
H20 H 0.9544 0.56011 0.72732 0.0
H21 H 0.16305 0.34882 0.8548 0.0
H22 H 0.11482 0.32304 0.68998 0.0
H23 H 0.05119 0.59483 0.28286 0.0
H24 H 0.97704 0.34364 0.55426 0.0
H25 H 0.92835 0.38448 0.61954 0.0
H26 H 0.86626 0.60398 0.96268 0.0
H27 H 0.04716 0.32111 0.58079 0.0
H28 H 0.92796 0.62971 0.29373 0.0
H29 H 0.99774 0.62182 0.37703 0.0
N30 N 1.0117 0.58703 0.14777 0.0
C31 C 0.97447 0.59226 0.10054 0.0
C32 C 1.02074 0.598 0.24575 0.0
C33 C 0.9514 0.61799 0.25206 0.0
C34 C 0.99067 0.61348 0.29934 0.0
C35 C 0.94291 0.60746 0.15159 0.0
H36 H 0.87885 0.62237 0.13894 0.0
N37 N 0.99905 0.56776 0.95363 0.0
C38 C 0.96754 0.58181 1.00083 0.0
C39 C 0.92325 0.57738 0.85044 0.0
C40 C 0.92856 0.58646 0.95024 0.0
C41 C 0.99527 0.56171 0.85721 0.0
C42 C 0.95717 0.56561 0.80404 0.0
O43 O 0.11298 0.47762 0.97405 0.0
O44 O 0.12478 0.53944 0.03888 0.0
O45 O 0.07766 0.61237 0.04118 0.0
O46 O 0.10884 0.60166 0.16425 0.0
O47 O 0.08456 0.48442 0.10692 0.0
O48 O 0.06528 0.53779 0.17605 0.0
O49 O 0.99883 0.52556 0.07785 0.0
O50 O 0.97835 0.47965 0.93837 0.0
O51 O 1.00447 0.45532 0.08451 0.0
O52 O 1.00395 0.40511 0.97666 0.0
O53 O 0.07626 0.53461 0.90577 0.0
O54 O 1.02637 0.48121 0.85358 0.0
C55 C 0.13975 0.50973 0.00651 0.0
C56 C 0.07796 0.50907 0.18251 0.0
C57 C 0.1519 0.64416 0.11127 0.0
C58 C 0.19418 0.68954 0.05893 0.0
C59 C 0.23284 0.65991 0.15291 0.0
C60 C 0.19214 0.64015 0.15735 0.0
C61 C 0.23397 0.68451 0.10456 0.0
C62 C 0.15323 0.66888 0.0621 0.0
C63 C 0.10835 0.62431 0.11827 0.0
C64 C 0.8965 0.60062 1.00065 0.0
C65 C 0.90373 0.61121 0.10104 0.0
H66 H 0.89385 0.58054 0.80905 0.0
C67 C 0.9668 0.50332 0.00894 0.0
C68 C 0.05706 0.50431 0.83754 0.0
C69 C 0.93993 0.40945 0.05072 0.0
C70 C 0.87321 0.36183 0.00762 0.0
C71 C 0.86991 0.42247 0.09584 0.0
C72 C 0.91535 0.43353 0.098 0.0
C73 C 0.84884 0.38689 0.05072 0.0
C74 C 0.91868 0.37349 0.00656 0.0
C75 C 0.98809 0.42123 0.05183 0.0
H76 H 0.26364 0.65663 0.18874 0.0
H77 H 0.19226 0.62216 0.19806 0.0
H78 H 0.26603 0.70029 0.10551 0.0
H79 H 0.12224 0.67213 0.02683 0.0
H80 H 0.85113 0.44143 0.13081 0.0
H81 H 0.93131 0.4609 0.13749 0.0
H82 H 0.81365 0.37887 0.05111 0.0
H83 H 0.93803 0.35443 0.97472 0.0
C84 C 0.68031 0.98868 0.17031 0.0
C85 C 0.71119 0.95002 0.04659 0.0
C86 C 0.68189 0.97303 0.07403 0.0
C87 C 0.73756 0.94191 0.1172 0.0
C88 C 0.70783 0.9815 0.24165 0.0
C89 C 0.73578 0.95752 0.21448 0.0
N90 N 0.65371 0.01236 0.19443 0.0
C91 C 0.65538 0.03158 0.28847 0.0
C92 C 0.70747 0.99948 0.33829 0.0
C93 C 0.68163 0.02501 0.36172 0.0
Gd94 Gd 0.47716 0.98693 0.98259 0.0
Gd95 Gd 0.61021 0.02066 0.06572 0.0
N96 N 0.65544 0.98087 0.00715 0.0
C97 C 0.71335 0.93609 0.94899 0.0
C98 C 0.65897 0.96878 0.9124 0.0
C99 C 0.68746 0.94583 0.88176 0.0
H100 H 0.63963 0.97667 0.86035 0.0
H101 H 0.68963 0.93582 0.80642 0.0
H102 H 0.45296 0.00811 0.20906 0.0
H103 H 0.63714 0.05251 0.30725 0.0
H104 H 0.42549 0.05556 0.31839 0.0
H105 H 0.73543 0.91833 0.92503 0.0
H106 H 0.75992 0.924 0.09744 0.0
H107 H 0.46155 0.99789 0.76951 0.0
H108 H 0.72814 0.99472 0.39523 0.0
H109 H 0.68256 0.04007 0.43613 0.0
H110 H 0.38687 0.12653 0.12854 0.0
H111 H 0.75692 0.95151 0.26827 0.0
H112 H 0.40581 0.08995 0.79935 0.0
H113 H 0.43417 0.04015 0.69847 0.0
N114 N 0.44937 0.02416 0.90836 0.0
C115 C 0.43218 0.05034 0.96415 0.0
C116 C 0.44908 0.01957 0.81346 0.0
C117 C 0.41749 0.0714 0.83048 0.0
C118 C 0.43357 0.04336 0.77329 0.0
C119 C 0.41639 0.07505 0.92698 0.0
H120 H 0.38832 0.12203 0.96015 0.0
N121 N 0.44824 0.02902 0.09373 0.0
C122 C 0.43212 0.05309 0.05975 0.0
C123 C 0.41377 0.08162 0.21439 0.0
C124 C 0.41515 0.08036 0.11972 0.0
C125 C 0.44438 0.02892 0.18425 0.0
C126 C 0.42783 0.05549 0.24627 0.0
O127 O 0.58621 0.96013 0.00229 0.0
O128 O 0.5125 0.94734 0.02161 0.0
O129 O 0.41299 0.96001 0.99684 0.0
O130 O 0.4343 0.94571 0.85857 0.0
O131 O 0.58128 0.0124 0.91052 0.0
O132 O 0.51742 0.96802 0.86804 0.0
O133 O 0.51622 0.03892 0.97736 0.0
O134 O 0.56292 0.05576 0.11877 0.0
O135 O 0.63219 0.05985 0.99944 0.0
O136 O 0.67177 0.06014 0.13007 0.0
O137 O 0.50624 0.98221 0.12375 0.0
O138 O 0.5696 0.02685 0.18568 0.0
C139 C 0.55076 0.93806 0.00808 0.0
C140 C 0.55017 0.98737 0.84573 0.0
C141 C 0.35675 0.92889 0.86063 0.0
C142 C 0.28537 0.88746 0.83005 0.0
C143 C 0.29185 0.93657 0.76709 0.0
C144 C 0.33723 0.9478 0.80842 0.0
C145 C 0.26593 0.90665 0.77801 0.0
C146 C 0.33086 0.89898 0.87112 0.0
C147 C 0.40364 0.93936 0.90767 0.0
C148 C 0.3997 0.10526 0.08322 0.0
C149 C 0.4004 0.10265 0.98721 0.0
H150 H 0.40092 0.10212 0.26267 0.0
C151 C 0.53892 0.06431 0.05449 0.0
C152 C 0.53908 1.0018 0.19468 0.0
C153 C 0.70988 0.07917 0.02007 0.0
C154 C 0.75933 0.11615 0.95579 0.0
C155 C 0.7761 0.06083 0.96739 0.0
C156 C 0.73795 0.05484 0.00674 0.0
C157 C 0.7869 0.09129 0.9423 0.0
C158 C 0.72045 0.10952 0.9938 0.0
C159 C 0.66941 0.07356 0.061 0.0
H160 H 0.27667 0.95115 0.7268 0.0
H161 H 0.35683 0.97111 0.80019 0.0
H162 H 0.23091 0.89846 0.74547 0.0
H163 H 0.3462 0.88509 0.91365 0.0
H164 H 0.79773 0.04203 0.95756 0.0
H165 H 0.73067 0.03143 0.02726 0.0
H166 H 0.81745 0.0958 0.91476 0.0
H167 H 0.69834 0.12801 0.00333 0.0
C168 C 0.65941 0.5935 0.19383 0.0
C169 C 0.71758 0.59832 0.09892 0.0
C170 C 0.67268 0.58693 0.10485 0.0
C171 C 0.7491 0.61613 0.18362 0.0
C172 C 0.69088 0.61194 0.27888 0.0
C173 C 0.73578 0.62293 0.27329 0.0
N174 N 0.61575 0.58227 0.19716 0.0
C175 C 0.60098 0.59054 0.28275 0.0
C176 C 0.67623 0.61903 0.3671 0.0
C177 C 0.63103 0.60856 0.36892 0.0
Gd178 Gd 0.5333 0.44413 0.95766 0.0
Gd179 Gd 0.56887 0.55086 0.04796 0.0
N180 N 0.64181 0.56815 0.02401 0.0
C181 C 0.72946 0.59132 0.00793 0.0
C182 C 0.65257 0.56327 0.93514 0.0
C183 C 0.69668 0.57415 0.92571 0.0
H184 H 0.62721 0.55085 0.87178 0.0
H185 H 0.70535 0.56942 0.85507 0.0
H186 H 0.48342 0.45012 0.14861 0.0
H187 H 0.56588 0.58368 0.28481 0.0
H188 H 0.40986 0.42622 0.17981 0.0
H189 H 0.76366 0.59953 1.00037 0.0
H190 H 0.78383 0.62486 0.18054 0.0
H191 H 0.52436 0.41967 0.71482 0.0
H192 H 0.69939 0.63309 0.43404 0.0
H193 H 0.61924 0.61461 0.43665 0.0
H194 H 0.32465 0.35877 0.8657 0.0
H195 H 0.76045 0.63693 0.33795 0.0
H196 H 0.39131 0.36048 0.5922 0.0
H197 H 0.46643 0.38635 0.57269 0.0
N198 N 0.48133 0.41605 0.81496 0.0
C199 C 0.44028 0.40169 0.82753 0.0
C200 C 0.49116 0.4103 0.72497 0.0
C201 C 0.41624 0.37606 0.65526 0.0
C202 C 0.45858 0.39074 0.64392 0.0
C203 C 0.40678 0.38107 0.74771 0.0
H204 H 0.33925 0.3495 0.70188 0.0
N205 N 0.46381 0.42857 0.99694 0.0
C206 C 0.43161 0.40745 0.92078 0.0
C207 C 0.38179 0.39958 0.02971 0.0
C208 C 0.38965 0.39243 0.93541 0.0
C209 C 0.45691 0.43483 0.089 0.0
C210 C 0.41551 0.42093 0.10674 0.0
O211 O 0.62573 0.52074 0.04672 0.0
O212 O 0.60768 0.46126 0.95134 0.0
O213 O 0.54555 0.40805 0.03677 0.0
O214 O 0.53611 0.3896 0.88185 0.0
O215 O 0.54099 0.51902 0.89033 0.0
O216 O 0.56537 0.46683 0.85612 0.0
O217 O 0.47564 0.47534 0.95589 0.0
O218 O 0.4996 0.5309 0.07196 0.0
O219 O 0.54656 0.58098 0.95844 0.0
O220 O 0.56748 0.60653 0.1114 0.0
O221 O 0.56691 0.47452 0.1109 0.0
O222 O 0.54265 0.52685 0.15543 0.0
C223 C 0.63741 0.49066 0.00334 0.0
C224 C 0.5578 0.49449 0.83367 0.0
C225 C 0.57404 0.35692 0.96089 0.0
C226 C 0.58776 0.30083 0.97796 0.0
C227 C 0.64204 0.33761 0.92333 0.0
C228 C 0.61507 0.36247 0.93048 0.0
C229 C 0.62838 0.30689 0.94592 0.0
C230 C 0.56081 0.32626 0.98607 0.0
C231 C 0.54315 0.38119 0.95928 0.0
C232 C 0.35687 0.37099 0.85581 0.0
C233 C 0.3652 0.3657 0.7624 0.0
H234 H 0.34985 0.3887 0.04381 0.0
C235 C 0.46702 0.50472 0.01482 0.0
C236 C 0.55721 0.50091 0.17656 0.0
C237 C 0.52176 0.63428 0.03211 0.0
C238 C 0.5081 0.69269 0.03244 0.0
C239 C 0.45163 0.64993 0.06498 0.0
C240 C 0.47942 0.62565 0.05359 0.0
C241 C 0.46588 0.68318 0.05587 0.0
C242 C 0.53563 0.66739 0.01976 0.0
C243 C 0.55349 0.61058 0.03037 0.0
H244 H 0.67358 0.34203 0.89942 0.0
H245 H 0.62591 0.38573 0.91082 0.0
H246 H 0.64993 0.28806 0.93978 0.0
H247 H 0.52909 0.32172 0.00944 0.0
H248 H 0.41914 0.64324 0.08308 0.0
H249 H 0.46828 0.60044 0.06328 0.0
H250 H 0.44384 0.70156 0.06965 0.0
H251 H 0.56815 0.67322 1.00109 0.0
H252 H 0.08238 0.55502 0.75091 0.0
H253 H 0.0506 0.44149 0.69463 0.0
H254 H 0.05881 0.43094 0.52621 0.0
H255 H 1.01537 0.54934 0.52916 0.0
H256 H 0.05204 0.5857 0.51273 0.0
H257 H 0.04911 0.58454 0.63205 0.0
H258 H 0.13458 0.58962 0.66555 0.0
H259 H 0.13775 0.59059 0.54608 0.0
H260 H 0.15927 0.55776 0.58601 0.0
H261 H 0.07038 0.43261 0.36268 0.0
H262 H 0.07443 0.44547 0.21205 0.0
H263 H 0.08838 0.55772 0.36642 0.0
C264 C 0.07672 0.52788 0.70334 0.0
C265 C 0.06462 0.4989 0.73667 0.0
C266 C 0.05875 0.46403 0.67133 0.0
C267 C 0.06377 0.45781 0.57525 0.0
C268 C 0.07404 0.48681 0.54412 0.0
C269 C 0.07969 0.52118 0.60573 0.0
C270 C 0.08626 0.54743 0.55149 0.0
C271 C 0.04845 0.56796 0.55667 0.0
C272 C 0.1322 0.57285 0.58957 0.0
C273 C 0.08364 0.52242 0.44997 0.0
C274 C 0.07757 0.48764 0.44806 0.0
C275 C 0.07484 0.45974 0.36328 0.0
C276 C 0.07736 0.46738 0.27786 0.0
C277 C 0.08145 0.50261 0.27657 0.0
C278 C 0.08506 0.5305 0.3645 0.0
H279 H 0.57059 0.04736 0.3829 0.0
H280 H 0.51131 0.9376 0.21164 0.0
H281 H 0.51101 0.92198 0.35871 0.0
H282 H 0.6421 0.02866 0.56867 0.0
H283 H 0.63334 0.06509 0.6656 0.0
H284 H 0.63069 0.06802 0.54665 0.0
H285 H 0.55138 0.08093 0.54996 0.0
H286 H 0.55407 0.07798 0.66884 0.0
H287 H 0.50864 0.05036 0.5741 0.0
H288 H 0.51301 0.91804 0.52184 0.0
H289 H 0.51879 0.92618 0.69467 0.0
H290 H 0.57903 0.03769 0.76466 0.0
C291 C 0.55828 0.02 0.37662 0.0
C292 C 0.54116 0.99367 0.28558 0.0
C293 C 0.52435 0.95829 0.28043 0.0
C294 C 0.52421 0.94906 0.36361 0.0
C295 C 0.54097 0.97548 0.45207 0.0
C296 C 0.55779 0.01024 0.45966 0.0
C297 C 0.57234 0.03346 0.56464 0.0
C298 C 0.62262 0.04976 0.5877 0.0
C299 C 0.54497 0.06238 0.59088 0.0
C300 C 0.56115 0.00622 0.61405 0.0
C301 C 0.54289 0.97301 0.54744 0.0
C302 C 0.52775 0.94382 0.57485 0.0
C303 C 0.5311 0.94869 0.67307 0.0
C304 C 0.5499 0.98237 0.74285 0.0
C305 C 0.56546 0.01144 0.7128 0.0
H306 H 0.51776 0.52779 0.71848 0.0
H307 H 0.61708 0.46449 0.73375 0.0
H308 H 0.63095 0.46385 0.57387 0.0
H309 H 0.4715 0.48283 0.47107 0.0
H310 H 0.46208 0.52176 0.44405 0.0
H311 H 0.46213 0.52032 0.56394 0.0
H312 H 0.52351 0.57807 0.63151 0.0
H313 H 0.52364 0.57964 0.51162 0.0
H314 H 0.57476 0.58007 0.58473 0.0
H315 H 0.63197 0.46669 0.41157 0.0
H316 H 0.61855 0.47122 0.25022 0.0
H317 H 0.51756 0.53194 0.33122 0.0
C318 C 0.54278 0.51422 0.68841 0.0
C319 C 0.56628 0.49608 0.73865 0.0
C320 C 0.59839 0.47827 0.69647 0.0
C321 C 0.60675 0.47794 0.60583 0.0
C322 C 0.58271 0.4955 0.55752 0.0
C323 C 0.55131 0.51329 0.59671 0.0
C324 C 0.52854 0.52815 0.52583 0.0
C325 C 0.47807 0.51231 0.49968 0.0
C326 C 0.53819 0.56891 0.56584 0.0
C327 C 0.5515 0.51525 0.44044 0.0
C328 C 0.58296 0.49685 0.46147 0.0
C329 C 0.60761 0.48119 0.39431 0.0
C330 C 0.59955 0.48382 0.30252 0.0
C331 C 0.56697 0.50191 0.27776 0.0
C332 C 0.54306 0.51834 0.34836 0.0
H333 H 0.19125 0.4626 0.90896 0.0
H334 H 0.20425 0.56481 0.12844 0.0
H335 H 0.28588 0.57323 0.15197 0.0
H336 H 0.2862 0.43779 0.02441 0.0
H337 H 0.30322 0.41686 0.91289 0.0
H338 H 0.24562 0.41872 0.91445 0.0
H339 H 0.24787 0.44877 0.78386 0.0
H340 H 0.30594 0.44737 0.78479 0.0
H341 H 0.28869 0.48908 0.80637 0.0
H342 H 0.36668 0.5705 0.15867 0.0
H343 H 0.44108 0.5592 0.14152 0.0
H344 H 0.38216 0.46031 0.90932 0.0
C345 C 0.21128 0.48682 0.96175 0.0
C346 C 0.19023 0.51327 0.0163 0.0
C347 C 0.21851 0.54435 0.08439 0.0
C348 C 0.26539 0.54931 0.09887 0.0
C349 C 0.28491 0.5231 0.04436 0.0
C350 C 0.25894 0.49258 0.97629 0.0
C351 C 0.28938 0.46899 0.92739 0.0
C352 C 0.28055 0.43348 0.946 0.0
C353 C 0.28254 0.46321 0.81914 0.0
C354 C 0.33634 0.4911 0.97824 0.0
C355 C 0.33237 0.52202 0.04618 0.0
C356 C 0.37003 0.54655 0.10473 0.0
C357 C 0.41271 0.53982 0.09371 0.0
C358 C 0.41903 0.50899 0.02307 0.0
C359 C 0.37955 0.48416 0.96447 0.0
H360 H 0.75157 0.18273 0.06149 0.0
H361 H 0.7975 0.1258 0.80501 0.0
H362 H 0.82541 0.18262 0.78073 0.0
H363 H 0.71729 0.25189 0.96895 0.0
H364 H 0.73531 0.28572 0.08542 0.0
H365 H 0.71468 0.24029 0.07617 0.0
H366 H 0.78799 0.2415 0.18336 0.0
H367 H 0.8089 0.28677 0.19285 0.0
H368 H 0.84073 0.25366 0.14873 0.0
H369 H 0.85496 0.24613 0.79411 0.0
H370 H 0.8834 0.311 0.84396 0.0
H371 H 0.81694 0.32544 0.09024 0.0
C372 C 0.76625 0.18198 0.99849 0.0
C373 C 0.77228 0.14972 0.93514 0.0
C374 C 0.79293 0.15019 0.85519 0.0
C375 C 0.80851 0.1823 0.84027 0.0
C376 C 0.80272 0.21366 0.90522 0.0
C377 C 0.78169 0.21368 0.98225 0.0
C378 C 0.78222 0.25104 0.04531 0.0
C379 C 0.73455 0.25762 0.04385 0.0
C380 C 0.80641 0.25867 0.14861 0.0
C381 C 0.80853 0.27212 0.99408 0.0
C382 C 0.81949 0.25015 0.91261 0.0
C383 C 0.84608 0.26361 0.85706 0.0
C384 C 0.86235 0.30044 0.88631 0.0
C385 C 0.85225 0.32334 0.97076 0.0
C386 C 0.8244 0.30882 0.02411 0.0
H387 H 0.48179 0.88131 0.98305 0.0
H388 H 0.62602 0.91064 0.02669 0.0
H389 H 0.63102 0.85163 0.03493 0.0
H390 H 0.47453 0.83035 0.1393 0.0
H391 H 0.42759 0.79671 0.06306 0.0
H392 H 0.43528 0.84118 0.05875 0.0
H393 H 0.43405 0.8172 0.87583 0.0
H394 H 0.42601 0.7726 0.87934 0.0
H395 H 0.47208 0.78954 0.83051 0.0
H396 H 0.6201 0.7905 0.05195 0.0
H397 H 0.59496 0.73133 0.06211 0.0
H398 H 0.45702 0.73867 0.98858 0.0
C399 C 0.51453 0.87537 0.99377 0.0
C400 C 0.55378 0.90124 0.00519 0.0
C401 C 0.59563 0.89183 0.01824 0.0
C402 C 0.59872 0.85816 0.02311 0.0
C403 C 0.5595 0.83363 0.01312 0.0
C404 C 0.51812 0.84161 0.99715 0.0
C405 C 0.48104 0.81031 0.98776 0.0
C406 C 0.45298 0.82024 0.06695 0.0
C407 C 0.45158 0.7966 0.88737 0.0
C408 C 0.5081 0.78363 0.00213 0.0
C409 C 0.55325 0.79775 0.01753 0.0
C410 C 0.58477 0.77891 0.03788 0.0
C411 C 0.5699 0.74481 0.04245 0.0
C412 C 0.52364 0.72908 0.02499 0.0
C413 C 0.49261 0.7492 0.00372 0.0
H414 H 0.88537 0.46849 0.8754 0.0
H415 H 0.93663 0.53538 0.1716 0.0
H416 H 0.86042 0.53802 0.19854 0.0
H417 H 0.79237 0.51053 0.83605 0.0
H418 H 0.75325 0.46985 0.76585 0.0
H419 H 0.8122 0.47298 0.76667 0.0
H420 H 0.80892 0.418 0.82177 0.0
H421 H 0.74989 0.41469 0.82048 0.0
H422 H 0.78644 0.41793 0.92816 0.0
H423 H 0.779 0.53501 0.19689 0.0
H424 H 0.69727 0.52583 0.167 0.0
H425 H 0.69197 0.45905 0.87346 0.0
C426 C 0.88054 0.48367 0.9459 0.0
C427 C 0.91823 0.50251 0.02072 0.0
C428 C 0.90943 0.52159 0.11178 0.0
C429 C 0.86578 0.52299 0.12837 0.0
C430 C 0.8298 0.50472 0.05383 0.0
C431 C 0.83634 0.48516 0.96433 0.0
C432 C 0.79079 0.46785 0.89788 0.0
C433 C 0.78693 0.48108 0.81145 0.0
C434 C 0.78359 0.4272 0.86508 0.0
C435 C 0.75802 0.48098 0.96389 0.0
C436 C 0.78181 0.50224 0.05352 0.0
C437 C 0.76015 0.51825 0.12702 0.0
C438 C 0.71332 0.51286 0.10909 0.0
C439 C 0.68727 0.4916 0.0181 0.0
C440 C 0.71033 0.47505 0.94445 0.0
H441 H 0.25676 0.70958 0.9572 0.0
H442 H 0.13544 0.73362 0.0575 0.0
H443 H 0.1406 0.78245 0.99074 0.0
H444 H 0.31401 0.79799 0.0238 0.0
H445 H 0.34237 0.79133 0.92259 0.0
H446 H 0.32582 0.75519 0.96594 0.0
H447 H 0.28165 0.71676 0.79615 0.0
H448 H 0.29811 0.75291 0.7523 0.0
H449 H 0.23981 0.73328 0.73777 0.0
H450 H 0.16279 0.83246 0.92712 0.0
H451 H 0.20197 0.88058 0.87773 0.0
H452 H 0.30933 0.82461 0.82224 0.0
C453 C 0.23104 0.72489 0.96479 0.0
C454 C 0.19548 0.71737 0.01227 0.0
C455 C 0.16249 0.73813 0.0197 0.0
C456 C 0.16523 0.76613 0.98237 0.0
C457 C 0.20115 0.77315 0.93768 0.0
C458 C 0.2335 0.75312 0.9288 0.0
C459 C 0.27058 0.76782 0.88452 0.0
C460 C 0.31584 0.77873 0.95333 0.0
C461 C 0.27263 0.7411 0.78687 0.0
C462 C 0.25465 0.79984 0.87249 0.0
C463 C 0.21422 0.8022 0.90216 0.0
C464 C 0.19417 0.83063 0.90247 0.0
C465 C 0.21653 0.85776 0.87379 0.0
C466 C 0.25867 0.85638 0.84609 0.0
C467 C 0.27723 0.82651 0.84338 0.0
H468 H 0.57801 0.23078 0.86609 0.0
H469 H 0.56924 0.29754 0.15063 0.0
H470 H 0.55505 0.24442 0.20111 0.0
H471 H 0.48828 0.15641 0.85531 0.0
H472 H 0.51543 0.12306 0.7896 0.0
H473 H 0.52414 0.16612 0.77531 0.0
H474 H 0.60963 0.17353 0.82211 0.0
H475 H 0.60114 0.13059 0.83689 0.0
H476 H 0.63221 0.1692 0.93445 0.0
H477 H 0.54871 0.18421 0.22441 0.0
H478 H 0.5417 0.12115 0.21314 0.0
H479 H 0.54719 0.09255 0.90962 0.0
C480 C 0.57257 0.23408 0.93869 0.0
C481 C 0.57469 0.26834 0.00465 0.0
C482 C 0.56739 0.27159 0.09889 0.0
C483 C 0.55955 0.24156 0.12822 0.0
C484 C 0.55819 0.20823 0.06193 0.0
C485 C 0.5636 0.20422 0.96843 0.0
C486 C 0.55979 0.16533 0.91088 0.0
C487 C 0.51952 0.15195 0.82785 0.0
C488 C 0.60328 0.15933 0.87394 0.0
C489 C 0.55231 0.1482 0.98697 0.0
C490 C 0.55199 0.17344 0.07394 0.0
C491 C 0.54826 0.16423 0.15628 0.0
C492 C 0.54453 0.12842 0.14945 0.0
C493 C 0.54366 0.10205 0.06064 0.0
C494 C 0.54724 0.11214 0.97828 0.0
loop_
_geom_bond_atom_site_label_1
_geom_bond_atom_site_label_2
_geom_bond_distance
_geom_bond_site_symmetry_2
_ccdc_geom_bond_type
C0 C2 1.422 . S
C0 C4 1.415 . S
C0 N6 1.369 . S
C1 C2 1.421 . S
C1 C3 1.417 . S
C1 C13 1.422 1_556 S
C2 C0 1.422 . S
C2 C1 1.421 . S
C2 N12 1.359 . S
C3 C1 1.417 . S
C3 C5 1.329 . S
C3 H22 0.930 . S
C4 C0 1.415 . S
C4 C5 1.437 . S
C4 C8 1.413 . S
C5 C3 1.329 . S
C5 C4 1.437 . S
C5 H27 0.929 . S
N6 C0 1.369 . S
N6 C7 1.338 1_455 S
N6 Gd11 2.622 1_455 S
C7 N6 1.338 1_655 S
C7 C9 1.378 1_655 S
C7 H19 0.929 . S
C8 C4 1.413 . S
C8 C9 1.348 . S
C8 H24 0.931 . S
C9 C7 1.378 1_455 S
C9 C8 1.348 . S
C9 H25 0.930 . S
Gd10 N30 2.622 1_455 S
Gd10 N37 2.570 1_455 S
Gd10 O44 2.353 . S
Gd10 O45 2.468 1_554 S
Gd10 O46 2.427 . S
Gd10 O48 2.388 . S
Gd10 O49 2.386 1_455 S
Gd10 O53 2.307 1_454 S
Gd10 C63 2.805 . S
Gd11 N6 2.622 1_655 S
Gd11 N12 2.570 1_655 S
Gd11 O43 2.386 1_655 S
Gd11 O47 2.307 1_656 S
Gd11 O50 2.353 . S
Gd11 O51 2.468 1_556 S
Gd11 O52 2.427 . S
Gd11 O54 2.388 . S
Gd11 C75 2.805 . S
N12 C2 1.359 . S
N12 Gd11 2.570 1_455 S
N12 C14 1.343 1_556 S
C13 C1 1.422 1_554 S
C13 C15 1.321 . S
C13 H21 0.931 . S
C14 N12 1.343 1_554 S
C14 C15 1.390 . S
C14 H16 0.931 . S
C15 C13 1.321 . S
C15 C14 1.390 . S
C15 H17 0.930 . S
H16 C14 0.931 . S
H17 C15 0.930 . S
H18 C41 0.931 . S
H19 C7 0.929 . S
H20 C42 0.930 . S
H21 C13 0.931 . S
H22 C3 0.930 . S
H23 C32 0.929 . S
H24 C8 0.931 . S
H25 C9 0.930 . S
H26 C64 0.930 . S
H27 C5 0.929 . S
H28 C33 0.931 . S
H29 C34 0.930 . S
N30 Gd10 2.622 1_655 S
N30 C31 1.369 . S
N30 C32 1.338 1_655 S
C31 N30 1.369 . S
C31 C35 1.415 . S
C31 C38 1.422 . S
C32 H23 0.929 . S
C32 N30 1.338 1_455 S
C32 C34 1.378 1_455 S
C33 H28 0.931 . S
C33 C34 1.348 . S
C33 C35 1.413 . S
C34 H29 0.930 . S
C34 C32 1.378 1_655 S
C34 C33 1.348 . S
C35 C31 1.415 . S
C35 C33 1.413 . S
C35 C65 1.437 . S
H36 C65 0.929 . S
N37 Gd10 2.570 1_655 S
N37 C38 1.359 . S
N37 C41 1.343 1_554 S
C38 C31 1.422 . S
C38 N37 1.359 . S
C38 C40 1.421 . S
C39 C40 1.422 1_556 S
C39 C42 1.321 . S
C39 H66 0.931 . S
C40 C38 1.421 . S
C40 C39 1.422 1_554 S
C40 C64 1.417 . S
C41 H18 0.931 . S
C41 N37 1.343 1_556 S
C41 C42 1.390 . S
C42 H20 0.930 . S
C42 C39 1.321 . S
C42 C41 1.390 . S
O43 Gd11 2.386 1_455 S
O43 C55 1.265 1_556 S
O44 Gd10 2.353 . S
O44 C55 1.242 . S
O45 Gd10 2.468 1_556 S
O45 C63 1.263 1_556 S
O46 Gd10 2.427 . S
O46 C63 1.252 . S
O47 Gd11 2.307 1_454 S
O47 C56 1.261 . S
O48 Gd10 2.388 . S
O48 C56 1.252 . S
O49 Gd10 2.386 1_655 S
O49 C67 1.265 1_554 S
O50 Gd11 2.353 . S
O50 C67 1.242 . S
O51 Gd11 2.468 1_554 S
O51 C75 1.263 1_554 S
O52 Gd11 2.427 . S
O52 C75 1.252 . S
O53 Gd10 2.307 1_656 S
O53 C68 1.261 . S
O54 Gd11 2.388 . S
O54 C68 1.252 . S
C55 O43 1.265 1_554 S
C55 O44 1.242 . S
C56 O47 1.261 . S
C56 O48 1.252 . S
C57 C60 1.394 . S
C57 C62 1.370 . S
C57 C63 1.500 . S
C58 C61 1.383 . S
C58 C62 1.395 . S
C59 C60 1.396 . S
C59 C61 1.365 . S
C59 H76 0.929 . S
C60 C57 1.394 . S
C60 C59 1.396 . S
C60 H77 0.930 . S
C61 C58 1.383 . S
C61 C59 1.365 . S
C61 H78 0.931 . S
C62 C57 1.370 . S
C62 C58 1.395 . S
C62 H79 0.930 1_554 S
C63 Gd10 2.805 . S
C63 O45 1.263 1_554 S
C63 O46 1.252 . S
C63 C57 1.500 . S
C64 H26 0.930 . S
C64 C40 1.417 . S
C64 C65 1.329 . S
C65 C35 1.437 . S
C65 H36 0.929 . S
C65 C64 1.329 . S
H66 C39 0.931 . S
C67 O49 1.265 1_556 S
C67 O50 1.242 . S
C68 O53 1.261 . S
C68 O54 1.252 . S
C69 C72 1.394 . S
C69 C74 1.370 . S
C69 C75 1.500 . S
C70 C73 1.383 . S
C70 C74 1.395 . S
C71 C72 1.396 . S
C71 C73 1.365 . S
C71 H80 0.929 . S
C72 C69 1.394 . S
C72 C71 1.396 . S
C72 H81 0.930 . S
C73 C70 1.383 . S
C73 C71 1.365 . S
C73 H82 0.931 . S
C74 C69 1.370 . S
C74 C70 1.395 . S
C74 H83 0.930 1_556 S
C75 Gd11 2.805 . S
C75 O51 1.263 1_556 S
C75 O52 1.252 . S
C75 C69 1.500 . S
H76 C59 0.929 . S
H77 C60 0.930 . S
H78 C61 0.931 . S
H79 C62 0.930 1_556 S
H80 C71 0.929 . S
H81 C72 0.930 . S
H82 C73 0.931 . S
H83 C74 0.930 1_554 S
C84 C86 1.422 . S
C84 C88 1.415 . S
C84 N90 1.369 1_565 S
C85 C86 1.421 1_556 S
C85 C87 1.417 1_556 S
C85 C97 1.422 . S
C86 C84 1.422 . S
C86 C85 1.421 1_554 S
C86 N96 1.359 1_554 S
C87 C85 1.417 1_554 S
C87 C89 1.329 . S
C87 H106 0.930 . S
C88 C84 1.415 . S
C88 C89 1.437 . S
C88 C92 1.413 . S
C89 C87 1.329 . S
C89 C88 1.437 . S
C89 H111 0.929 . S
N90 C84 1.369 1_545 S
N90 C91 1.338 . S
N90 Gd95 2.622 . S
C91 N90 1.338 . S
C91 C93 1.378 . S
C91 H103 0.929 . S
C92 C88 1.413 . S
C92 C93 1.348 1_565 S
C92 H108 0.931 . S
C93 C91 1.378 . S
C93 C92 1.348 1_545 S
C93 H109 0.930 . S
Gd94 N114 2.622 . S
Gd94 N121 2.570 1_566 S
Gd94 O128 2.353 . S
Gd94 O129 2.468 1_556 S
Gd94 O130 2.427 . S
Gd94 O132 2.388 . S
Gd94 O133 2.386 1_565 S
Gd94 O137 2.307 1_566 S
Gd94 C147 2.805 . S
Gd95 N90 2.622 . S
Gd95 N96 2.570 1_544 S
Gd95 O127 2.386 1_545 S
Gd95 O131 2.307 1_544 S
Gd95 O134 2.353 . S
Gd95 O135 2.468 1_554 S
Gd95 O136 2.427 . S
Gd95 O138 2.388 . S
Gd95 C159 2.805 . S
N96 C86 1.359 1_556 S
N96 Gd95 2.570 1_566 S
N96 C98 1.343 . S
C97 C85 1.422 . S
C97 C99 1.321 . S
C97 H105 0.931 . S
C98 N96 1.343 . S
C98 C99 1.390 . S
C98 H100 0.931 . S
C99 C97 1.321 . S
C99 C98 1.390 . S
C99 H101 0.930 . S
H100 C98 0.931 . S
H101 C99 0.930 . S
H102 C125 0.931 . S
H103 C91 0.929 . S
H104 C126 0.930 . S
H105 C97 0.931 . S
H106 C87 0.930 . S
H107 C116 0.929 . S
H108 C92 0.931 . S
H109 C93 0.930 . S
H110 C148 0.930 . S
H111 C89 0.929 . S
H112 C117 0.931 . S
H113 C118 0.930 . S
N114 Gd94 2.622 . S
N114 C115 1.369 1_565 S
N114 C116 1.338 . S
C115 N114 1.369 1_545 S
C115 C119 1.415 . S
C115 C122 1.422 . S
C116 H107 0.929 . S
C116 N114 1.338 . S
C116 C118 1.378 . S
C117 H112 0.931 . S
C117 C118 1.348 1_545 S
C117 C119 1.413 . S
C118 H113 0.930 . S
C118 C116 1.378 . S
C118 C117 1.348 1_565 S
C119 C115 1.415 . S
C119 C117 1.413 . S
C119 C149 1.437 . S
H120 C149 0.929 . S
N121 Gd94 2.570 1_544 S
N121 C122 1.359 1_554 S
N121 C125 1.343 . S
C122 C115 1.422 . S
C122 N121 1.359 1_556 S
C122 C124 1.421 1_556 S
C123 C124 1.422 . S
C123 C126 1.321 . S
C123 H150 0.931 . S
C124 C122 1.421 1_554 S
C124 C123 1.422 . S
C124 C148 1.417 1_554 S
C125 H102 0.931 . S
C125 N121 1.343 . S
C125 C126 1.390 . S
C126 H104 0.930 . S
C126 C123 1.321 . S
C126 C125 1.390 . S
O127 Gd95 2.386 1_565 S
O127 C139 1.265 1_554 S
O128 Gd94 2.353 . S
O128 C139 1.242 . S
O129 Gd94 2.468 1_554 S
O129 C147 1.263 1_554 S
O130 Gd94 2.427 . S
O130 C147 1.252 . S
O131 Gd95 2.307 1_566 S
O131 C140 1.261 . S
O132 Gd94 2.388 . S
O132 C140 1.252 . S
O133 Gd94 2.386 1_545 S
O133 C151 1.265 1_556 S
O134 Gd95 2.353 . S
O134 C151 1.242 . S
O135 Gd95 2.468 1_556 S
O135 C159 1.263 1_556 S
O136 Gd95 2.427 . S
O136 C159 1.252 . S
O137 Gd94 2.307 1_544 S
O137 C152 1.261 . S
O138 Gd95 2.388 . S
O138 C152 1.252 . S
C139 O127 1.265 1_556 S
C139 O128 1.242 . S
C140 O131 1.261 . S
C140 O132 1.252 . S
C141 C144 1.394 . S
C141 C146 1.370 1_556 S
C141 C147 1.500 . S
C142 C145 1.383 1_554 S
C142 C146 1.395 . S
C143 C144 1.396 . S
C143 C145 1.365 . S
C143 H160 0.929 . S
C144 C141 1.394 . S
C144 C143 1.396 . S
C144 H161 0.930 . S
C145 C142 1.383 1_556 S
C145 C143 1.365 . S
C145 H162 0.931 . S
C146 C141 1.370 1_554 S
C146 C142 1.395 . S
C146 H163 0.930 . S
C147 Gd94 2.805 . S
C147 O129 1.263 1_556 S
C147 O130 1.252 . S
C147 C141 1.500 . S
C148 H110 0.930 . S
C148 C124 1.417 1_556 S
C148 C149 1.329 . S
C149 C119 1.437 . S
C149 H120 0.929 . S
C149 C148 1.329 . S
H150 C123 0.931 . S
C151 O133 1.265 1_554 S
C151 O134 1.242 . S
C152 O137 1.261 . S
C152 O138 1.252 . S
C153 C156 1.394 . S
C153 C158 1.370 1_554 S
C153 C159 1.500 . S
C154 C157 1.383 1_556 S
C154 C158 1.395 . S
C155 C156 1.396 . S
C155 C157 1.365 . S
C155 H164 0.929 . S
C156 C153 1.394 . S
C156 C155 1.396 . S
C156 H165 0.930 . S
C157 C154 1.383 1_554 S
C157 C155 1.365 . S
C157 H166 0.931 . S
C158 C153 1.370 1_556 S
C158 C154 1.395 . S
C158 H167 0.930 . S
C159 Gd95 2.805 . S
C159 O135 1.263 1_554 S
C159 O136 1.252 . S
C159 C153 1.500 . S
H160 C143 0.929 . S
H161 C144 0.930 . S
H162 C145 0.931 . S
H163 C146 0.930 . S
H164 C155 0.929 . S
H165 C156 0.930 . S
H166 C157 0.931 . S
H167 C158 0.930 . S
C168 C170 1.422 . S
C168 C172 1.415 . S
C168 N174 1.369 . S
C169 C170 1.421 . S
C169 C171 1.417 . S
C169 C181 1.422 1_554 S
C170 C168 1.422 . S
C170 C169 1.421 . S
C170 N180 1.359 . S
C171 C169 1.417 . S
C171 C173 1.329 . S
C171 H190 0.930 . S
C172 C168 1.415 . S
C172 C173 1.437 . S
C172 C176 1.413 . S
C173 C171 1.329 . S
C173 C172 1.437 . S
C173 H195 0.929 . S
N174 C168 1.369 . S
N174 C175 1.338 . S
N174 Gd179 2.622 . S
C175 N174 1.338 . S
C175 C177 1.378 . S
C175 H187 0.929 . S
C176 C172 1.413 . S
C176 C177 1.348 . S
C176 H192 0.931 . S
C177 C175 1.378 . S
C177 C176 1.348 . S
C177 H193 0.930 . S
Gd178 N198 2.622 . S
Gd178 N205 2.570 . S
Gd178 O212 2.353 . S
Gd178 O213 2.468 1_556 S
Gd178 O214 2.427 . S
Gd178 O216 2.388 . S
Gd178 O217 2.386 . S
Gd178 O221 2.307 1_556 S
Gd178 C231 2.805 . S
Gd179 N174 2.622 . S
Gd179 N180 2.570 . S
Gd179 O211 2.386 . S
Gd179 O215 2.307 1_554 S
Gd179 O218 2.353 . S
Gd179 O219 2.468 1_554 S
Gd179 O220 2.427 . S
Gd179 O222 2.388 . S
Gd179 C243 2.805 . S
N180 C170 1.359 . S
N180 Gd179 2.570 . S
N180 C182 1.343 1_554 S
C181 C169 1.422 1_556 S
C181 C183 1.321 . S
C181 H189 0.931 . S
C182 N180 1.343 1_556 S
C182 C183 1.390 . S
C182 H184 0.931 . S
C183 C181 1.321 . S
C183 C182 1.390 . S
C183 H185 0.930 . S
H184 C182 0.931 . S
H185 C183 0.930 . S
H186 C209 0.931 . S
H187 C175 0.929 . S
H188 C210 0.930 . S
H189 C181 0.931 . S
H190 C171 0.930 . S
H191 C200 0.929 . S
H192 C176 0.931 . S
H193 C177 0.930 . S
H194 C232 0.930 . S
H195 C173 0.929 . S
H196 C201 0.931 . S
H197 C202 0.930 . S
N198 Gd178 2.622 . S
N198 C199 1.369 . S
N198 C200 1.338 . S
C199 N198 1.369 . S
C199 C203 1.415 . S
C199 C206 1.422 . S
C200 H191 0.929 . S
C200 N198 1.338 . S
C200 C202 1.378 . S
C201 H196 0.931 . S
C201 C202 1.348 . S
C201 C203 1.413 . S
C202 H197 0.930 . S
C202 C200 1.378 . S
C202 C201 1.348 . S
C203 C199 1.415 . S
C203 C201 1.413 . S
C203 C233 1.437 . S
H204 C233 0.929 . S
N205 Gd178 2.570 . S
N205 C206 1.359 . S
N205 C209 1.343 1_556 S
C206 C199 1.422 . S
C206 N205 1.359 . S
C206 C208 1.421 . S
C207 C208 1.422 1_554 S
C207 C210 1.321 . S
C207 H234 0.931 . S
C208 C206 1.421 . S
C208 C207 1.422 1_556 S
C208 C232 1.417 . S
C209 H186 0.931 . S
C209 N205 1.343 1_554 S
C209 C210 1.390 . S
C210 H188 0.930 . S
C210 C207 1.321 . S
C210 C209 1.390 . S
O211 Gd179 2.386 . S
O211 C223 1.265 . S
O212 Gd178 2.353 . S
O212 C223 1.242 1_556 S
O213 Gd178 2.468 1_554 S
O213 C231 1.263 1_554 S
O214 Gd178 2.427 . S
O214 C231 1.252 . S
O215 Gd179 2.307 1_556 S
O215 C224 1.261 . S
O216 Gd178 2.388 . S
O216 C224 1.252 . S
O217 Gd178 2.386 . S
O217 C235 1.265 . S
O218 Gd179 2.353 . S
O218 C235 1.242 1_554 S
O219 Gd179 2.468 1_556 S
O219 C243 1.263 1_556 S
O220 Gd179 2.427 . S
O220 C243 1.252 . S
O221 Gd178 2.307 1_554 S
O221 C236 1.261 . S
O222 Gd179 2.388 . S
O222 C236 1.252 . S
C223 O211 1.265 . S
C223 O212 1.242 1_554 S
C224 O215 1.261 . S
C224 O216 1.252 . S
C225 C228 1.394 . S
C225 C230 1.375 . S
C225 C231 1.500 . S
C226 C229 1.383 . S
C226 C230 1.394 . S
C227 C228 1.396 . S
C227 C229 1.365 . S
C227 H244 0.929 . S
C228 C225 1.394 . S
C228 C227 1.396 . S
C228 H245 0.930 . S
C229 C226 1.383 . S
C229 C227 1.365 . S
C229 H246 0.931 . S
C230 C225 1.375 . S
C230 C226 1.394 . S
C230 H247 0.926 1_556 S
C231 Gd178 2.805 . S
C231 O213 1.263 1_556 S
C231 O214 1.252 . S
C231 C225 1.500 . S
C232 H194 0.930 . S
C232 C208 1.417 . S
C232 C233 1.329 . S
C233 C203 1.437 . S
C233 H204 0.929 . S
C233 C232 1.329 . S
H234 C207 0.931 . S
C235 O217 1.265 . S
C235 O218 1.242 1_556 S
C236 O221 1.261 . S
C236 O222 1.252 . S
C237 C240 1.394 . S
C237 C242 1.378 . S
C237 C243 1.500 . S
C238 C241 1.383 . S
C238 C242 1.393 . S
C239 C240 1.396 . S
C239 C241 1.365 . S
C239 H248 0.929 . S
C240 C237 1.394 . S
C240 C239 1.396 . S
C240 H249 0.930 . S
C241 C238 1.383 . S
C241 C239 1.365 . S
C241 H250 0.931 . S
C242 C237 1.378 . S
C242 C238 1.393 . S
C242 H251 0.924 1_554 S
C243 Gd179 2.805 . S
C243 O219 1.263 1_554 S
C243 O220 1.252 . S
C243 C237 1.500 . S
H244 C227 0.929 . S
H245 C228 0.930 . S
H246 C229 0.931 . S
H247 C230 0.926 1_554 S
H248 C239 0.929 . S
H249 C240 0.930 . S
H250 C241 0.931 . S
H251 C242 0.924 1_556 S
H252 C264 0.930 . S
H253 C266 0.930 . S
H254 C267 0.930 . S
H255 C271 0.959 . S
H256 C271 0.959 . S
H257 C271 0.961 . S
H258 C272 0.960 . S
H259 C272 0.961 . S
H260 C272 0.959 . S
H261 C275 0.929 . S
H262 C276 0.931 . S
H263 C278 0.928 1_655 S
C264 H252 0.930 . S
C264 C265 1.397 1_655 S
C264 C269 1.399 1_655 S
C265 C264 1.397 1_455 S
C265 C266 1.383 . S
C266 H253 0.930 . S
C266 C265 1.383 . S
C266 C267 1.388 . S
C267 H254 0.930 . S
C267 C266 1.388 . S
C267 C268 1.390 . S
C268 C267 1.390 . S
C268 C269 1.394 . S
C268 C274 1.465 . S
C269 C264 1.399 1_455 S
C269 C268 1.394 . S
C269 C270 1.516 . S
C270 C269 1.516 . S
C270 C271 1.502 1_455 S
C270 C272 1.561 . S
C270 C273 1.526 . S
C271 H255 0.959 . S
C271 H256 0.959 . S
C271 H257 0.961 . S
C271 C270 1.502 1_655 S
C272 H258 0.960 . S
C272 H259 0.961 . S
C272 H260 0.959 . S
C272 C270 1.561 . S
C273 C270 1.526 . S
C273 C274 1.396 . S
C273 C278 1.390 . S
C274 C268 1.465 . S
C274 C273 1.396 . S
C274 C275 1.399 . S
C275 H261 0.929 . S
C275 C274 1.399 . S
C275 C276 1.385 . S
C276 H262 0.931 . S
C276 C275 1.385 . S
C276 C277 1.389 . S
C277 C276 1.389 . S
C277 C278 1.387 . S
C278 H263 0.928 1_455 S
C278 C273 1.390 . S
C278 C277 1.387 . S
H279 C291 0.930 . S
H280 C293 0.930 . S
H281 C294 0.930 . S
H282 C298 0.959 . S
H283 C298 0.959 . S
H284 C298 0.961 . S
H285 C299 0.960 . S
H286 C299 0.961 . S
H287 C299 0.959 . S
H288 C302 0.929 . S
H289 C303 0.931 . S
H290 C305 0.930 . S
C291 H279 0.930 . S
C291 C292 1.399 . S
C291 C296 1.399 . S
C292 C291 1.399 . S
C292 C293 1.376 1_545 S
C293 H280 0.930 . S
C293 C292 1.376 1_565 S
C293 C294 1.388 . S
C294 H281 0.930 . S
C294 C293 1.388 . S
C294 C295 1.390 . S
C295 C294 1.390 . S
C295 C296 1.394 1_565 S
C295 C301 1.465 . S
C296 C291 1.399 . S
C296 C295 1.394 1_545 S
C296 C297 1.516 . S
C297 C296 1.516 . S
C297 C298 1.502 . S
C297 C299 1.561 . S
C297 C300 1.526 . S
C298 H282 0.959 . S
C298 H283 0.959 . S
C298 H284 0.961 . S
C298 C297 1.502 . S
C299 H285 0.960 . S
C299 H286 0.961 . S
C299 H287 0.959 . S
C299 C297 1.561 . S
C300 C297 1.526 . S
C300 C301 1.396 1_545 S
C300 C305 1.390 . S
C301 C295 1.465 . S
C301 C300 1.396 1_565 S
C301 C302 1.399 . S
C302 H288 0.929 . S
C302 C301 1.399 . S
C302 C303 1.385 . S
C303 H289 0.931 . S
C303 C302 1.385 . S
C303 C304 1.389 . S
C304 C303 1.389 . S
C304 C305 1.387 1_565 S
C305 H290 0.930 . S
C305 C300 1.390 . S
C305 C304 1.387 1_545 S
H306 C318 0.930 . S
H307 C320 0.930 . S
H308 C321 0.930 . S
H309 C325 0.959 . S
H310 C325 0.959 . S
H311 C325 0.961 . S
H312 C326 0.960 . S
H313 C326 0.961 . S
H314 C326 0.959 . S
H315 C329 0.929 . S
H316 C330 0.931 . S
H317 C332 0.930 . S
C318 H306 0.930 . S
C318 C319 1.399 . S
C318 C323 1.399 . S
C319 C318 1.399 . S
C319 C320 1.376 . S
C320 H307 0.930 . S
C320 C319 1.376 . S
C320 C321 1.388 . S
C321 H308 0.930 . S
C321 C320 1.388 . S
C321 C322 1.390 . S
C322 C321 1.390 . S
C322 C323 1.394 . S
C322 C328 1.465 . S
C323 C318 1.399 . S
C323 C322 1.394 . S
C323 C324 1.516 . S
C324 C323 1.516 . S
C324 C325 1.502 . S
C324 C326 1.561 . S
C324 C327 1.526 . S
C325 H309 0.959 . S
C325 H310 0.959 . S
C325 H311 0.961 . S
C325 C324 1.502 . S
C326 H312 0.960 . S
C326 H313 0.961 . S
C326 H314 0.959 . S
C326 C324 1.561 . S
C327 C324 1.526 . S
C327 C328 1.396 . S
C327 C332 1.390 . S
C328 C322 1.465 . S
C328 C327 1.396 . S
C328 C329 1.399 . S
C329 H315 0.929 . S
C329 C328 1.399 . S
C329 C330 1.385 . S
C330 H316 0.931 . S
C330 C329 1.385 . S
C330 C331 1.389 . S
C331 C330 1.389 . S
C331 C332 1.387 . S
C332 H317 0.930 . S
C332 C327 1.390 . S
C332 C331 1.387 . S
H333 C345 0.930 . S
H334 C347 0.930 . S
H335 C348 0.930 . S
H336 C352 0.959 1_554 S
H337 C352 0.959 . S
H338 C352 0.961 . S
H339 C353 0.960 . S
H340 C353 0.961 . S
H341 C353 0.959 . S
H342 C356 0.929 . S
H343 C357 0.931 . S
H344 C359 0.930 . S
C345 H333 0.930 . S
C345 C346 1.399 1_556 S
C345 C350 1.399 . S
C346 C345 1.399 1_554 S
C346 C347 1.376 . S
C347 H334 0.930 . S
C347 C346 1.376 . S
C347 C348 1.388 . S
C348 H335 0.930 . S
C348 C347 1.388 . S
C348 C349 1.390 . S
C349 C348 1.390 . S
C349 C350 1.394 1_554 S
C349 C355 1.465 . S
C350 C345 1.399 . S
C350 C349 1.394 1_556 S
C350 C351 1.516 . S
C351 C350 1.516 . S
C351 C352 1.502 . S
C351 C353 1.561 . S
C351 C354 1.526 . S
C352 H336 0.959 1_556 S
C352 H337 0.959 . S
C352 H338 0.961 . S
C352 C351 1.502 . S
C353 H339 0.960 . S
C353 H340 0.961 . S
C353 H341 0.959 . S
C353 C351 1.561 . S
C354 C351 1.526 . S
C354 C355 1.396 1_556 S
C354 C359 1.390 . S
C355 C349 1.465 . S
C355 C354 1.396 1_554 S
C355 C356 1.399 . S
C356 H342 0.929 . S
C356 C355 1.399 . S
C356 C357 1.385 . S
C357 H343 0.931 . S
C357 C356 1.385 . S
C357 C358 1.387 1_554 S
C358 C357 1.387 1_556 S
C358 C359 1.388 . S
C359 H344 0.930 . S
C359 C354 1.390 . S
C359 C358 1.388 . S
H360 C372 0.930 . S
H361 C374 0.930 . S
H362 C375 0.930 . S
H363 C379 0.959 . S
H364 C379 0.959 . S
H365 C379 0.961 . S
H366 C380 0.960 . S
H367 C380 0.961 . S
H368 C380 0.959 . S
H369 C383 0.929 . S
H370 C384 0.931 . S
H371 C386 0.930 . S
C372 H360 0.930 . S
C372 C373 1.399 1_554 S
C372 C377 1.399 . S
C373 C372 1.399 1_556 S
C373 C374 1.376 . S
C374 H361 0.930 . S
C374 C373 1.376 . S
C374 C375 1.388 . S
C375 H362 0.930 . S
C375 C374 1.388 . S
C375 C376 1.390 . S
C376 C375 1.390 . S
C376 C377 1.394 1_556 S
C376 C382 1.465 . S
C377 C372 1.399 . S
C377 C376 1.394 1_554 S
C377 C378 1.516 . S
C378 C377 1.516 . S
C378 C379 1.502 . S
C378 C380 1.561 . S
C378 C381 1.526 . S
C379 H363 0.959 . S
C379 H364 0.959 . S
C379 H365 0.961 . S
C379 C378 1.502 . S
C380 H366 0.960 . S
C380 H367 0.961 . S
C380 H368 0.959 . S
C380 C378 1.561 . S
C381 C378 1.526 . S
C381 C382 1.396 1_554 S
C381 C386 1.390 . S
C382 C376 1.465 . S
C382 C381 1.396 1_556 S
C382 C383 1.399 . S
C383 H369 0.929 . S
C383 C382 1.399 . S
C383 C384 1.385 . S
C384 H370 0.931 . S
C384 C383 1.385 . S
C384 C385 1.389 1_556 S
C385 C384 1.389 1_554 S
C385 C386 1.387 . S
C386 H371 0.930 . S
C386 C381 1.390 . S
C386 C385 1.387 . S
H387 C399 0.930 . S
H388 C401 0.930 . S
H389 C402 0.930 . S
H390 C406 0.959 . S
H391 C406 0.959 . S
H392 C406 0.961 . S
H393 C407 0.960 . S
H394 C407 0.961 . S
H395 C407 0.959 . S
H396 C410 0.929 . S
H397 C411 0.931 . S
H398 C413 0.930 . S
C399 H387 0.930 . S
C399 C400 1.399 . S
C399 C404 1.399 . S
C400 C399 1.399 . S
C400 C401 1.376 . S
C401 H388 0.930 . S
C401 C400 1.376 . S
C401 C402 1.388 . S
C402 H389 0.930 . S
C402 C401 1.388 . S
C402 C403 1.390 . S
C403 C402 1.390 . S
C403 C404 1.394 . S
C403 C409 1.465 . S
C404 C399 1.399 . S
C404 C403 1.394 . S
C404 C405 1.516 . S
C405 C404 1.516 . S
C405 C406 1.502 1_556 S
C405 C407 1.561 . S
C405 C408 1.526 . S
C406 H390 0.959 . S
C406 H391 0.959 . S
C406 H392 0.961 . S
C406 C405 1.502 1_554 S
C407 H393 0.960 . S
C407 H394 0.961 . S
C407 H395 0.959 . S
C407 C405 1.561 . S
C408 C405 1.526 . S
C408 C409 1.396 . S
C408 C413 1.390 . S
C409 C403 1.465 . S
C409 C408 1.396 . S
C409 C410 1.399 . S
C410 H396 0.929 . S
C410 C409 1.399 . S
C410 C411 1.385 . S
C411 H397 0.931 . S
C411 C410 1.385 . S
C411 C412 1.389 . S
C412 C411 1.389 . S
C412 C413 1.387 . S
C413 H398 0.930 . S
C413 C408 1.390 . S
C413 C412 1.387 . S
H414 C426 0.930 . S
H415 C428 0.930 . S
H416 C429 0.930 . S
H417 C433 0.959 . S
H418 C433 0.959 . S
H419 C433 0.961 . S
H420 C434 0.960 . S
H421 C434 0.961 . S
H422 C434 0.959 . S
H423 C437 0.929 . S
H424 C438 0.931 . S
H425 C440 0.930 . S
C426 H414 0.930 . S
C426 C427 1.402 . S
C426 C431 1.399 . S
C427 C426 1.402 . S
C427 C428 1.372 1_556 S
C428 H415 0.930 . S
C428 C427 1.372 1_554 S
C428 C429 1.388 . S
C429 H416 0.930 . S
C429 C428 1.388 . S
C429 C430 1.390 . S
C430 C429 1.390 . S
C430 C431 1.394 1_554 S
C430 C436 1.465 . S
C431 C426 1.399 . S
C431 C430 1.394 1_556 S
C431 C432 1.516 . S
C432 C431 1.516 . S
C432 C433 1.502 . S
C432 C434 1.561 . S
C432 C435 1.526 . S
C433 H417 0.959 . S
C433 H418 0.959 . S
C433 H419 0.961 . S
C433 C432 1.502 . S
C434 H420 0.960 . S
C434 H421 0.961 . S
C434 H422 0.959 . S
C434 C432 1.561 . S
C435 C432 1.526 . S
C435 C436 1.396 1_556 S
C435 C440 1.390 . S
C436 C430 1.465 . S
C436 C435 1.396 1_554 S
C436 C437 1.399 . S
C437 H423 0.929 . S
C437 C436 1.399 . S
C437 C438 1.385 . S
C438 H424 0.931 . S
C438 C437 1.385 . S
C438 C439 1.389 . S
C439 C438 1.389 . S
C439 C440 1.387 1_554 S
C440 H425 0.930 . S
C440 C435 1.390 . S
C440 C439 1.387 1_556 S
H441 C453 0.930 . S
H442 C455 0.930 . S
H443 C456 0.930 . S
H444 C460 0.959 . S
H445 C460 0.959 . S
H446 C460 0.961 . S
H447 C461 0.960 . S
H448 C461 0.961 . S
H449 C461 0.959 . S
H450 C464 0.929 . S
H451 C465 0.931 . S
H452 C467 0.930 . S
C453 H441 0.930 . S
C453 C454 1.399 . S
C453 C458 1.399 . S
C454 C453 1.399 . S
C454 C455 1.376 1_556 S
C455 H442 0.930 . S
C455 C454 1.376 1_554 S
C455 C456 1.388 . S
C456 H443 0.930 . S
C456 C455 1.388 . S
C456 C457 1.390 . S
C457 C456 1.390 . S
C457 C458 1.394 1_554 S
C457 C463 1.465 . S
C458 C453 1.399 . S
C458 C457 1.394 1_556 S
C458 C459 1.516 . S
C459 C458 1.516 . S
C459 C460 1.502 . S
C459 C461 1.561 . S
C459 C462 1.526 . S
C460 H444 0.959 . S
C460 H445 0.959 . S
C460 H446 0.961 . S
C460 C459 1.502 . S
C461 H447 0.960 . S
C461 H448 0.961 . S
C461 H449 0.959 . S
C461 C459 1.561 . S
C462 C459 1.526 . S
C462 C463 1.396 1_556 S
C462 C467 1.390 . S
C463 C457 1.465 . S
C463 C462 1.396 1_554 S
C463 C464 1.399 . S
C464 H450 0.929 . S
C464 C463 1.399 . S
C464 C465 1.385 . S
C465 H451 0.931 . S
C465 C464 1.385 . S
C465 C466 1.389 . S
C466 C465 1.389 . S
C466 C467 1.387 1_554 S
C467 H452 0.930 . S
C467 C462 1.390 . S
C467 C466 1.387 1_556 S
H468 C480 0.930 . S
H469 C482 0.930 . S
H470 C483 0.930 . S
H471 C487 0.959 . S
H472 C487 0.959 . S
H473 C487 0.961 . S
H474 C488 0.960 . S
H475 C488 0.961 . S
H476 C488 0.959 . S
H477 C491 0.929 . S
H478 C492 0.931 . S
H479 C494 0.930 . S
C480 H468 0.930 . S
C480 C481 1.399 1_556 S
C480 C485 1.399 . S
C481 C480 1.399 1_554 S
C481 C482 1.376 . S
C482 H469 0.930 . S
C482 C481 1.376 . S
C482 C483 1.388 . S
C483 H470 0.930 . S
C483 C482 1.388 . S
C483 C484 1.390 . S
C484 C483 1.390 . S
C484 C485 1.394 1_554 S
C484 C490 1.465 . S
C485 C480 1.399 . S
C485 C484 1.394 1_556 S
C485 C486 1.516 . S
C486 C485 1.516 . S
C486 C487 1.502 . S
C486 C488 1.561 . S
C486 C489 1.526 . S
C487 H471 0.959 . S
C487 H472 0.959 . S
C487 H473 0.961 . S
C487 C486 1.502 . S
C488 H474 0.960 . S
C488 H475 0.961 . S
C488 H476 0.959 . S
C488 C486 1.561 . S
C489 C486 1.526 . S
C489 C490 1.396 1_556 S
C489 C494 1.390 . S
C490 C484 1.465 . S
C490 C489 1.396 1_554 S
C490 C491 1.399 . S
C491 H477 0.929 . S
C491 C490 1.399 . S
C491 C492 1.385 . S
C492 H478 0.931 . S
C492 C491 1.385 . S
C492 C493 1.389 . S
C493 C492 1.389 . S
C493 C494 1.387 1_554 S
C494 H479 0.930 . S
C494 C489 1.390 . S
C494 C493 1.387 1_556 S
C265 C68 1.468 1_455 S
C277 C56 1.490 . S
C292 C152 1.538 . S
C304 C140 1.497 . S
C319 C224 1.437 . S
C331 C236 1.503 . S
C346 C55 2.291 . S
C358 C235 2.321 . S
C373 C154 0.887 . S
C385 C70 0.661 1_554 S
C400 C139 1.650 . S
C412 C238 1.501 1_556 S
C427 C67 2.285 . S
C439 C223 2.317 . S
C454 C58 0.691 1_556 S
C466 C142 0.892 . S
C481 C226 1.533 1_554 S
C493 C151 1.616 . S
