# Generated by pormake.
# Topology wiv, (6)-cn, num edge types: 1
# Building blocks:
#     Node 0, Type 0, BuildingBlock: CUWYAW_clean_sbu_0, # of connection points: 6
#     Node 1, Type 0, BuildingBlock: CUWYAW_clean_sbu_0, # of connection points: 6
#     Node 2, Type 0, BuildingBlock: CUWYAW_clean_sbu_0, # of connection points: 6
#     Node 3, Type 0, BuildingBlock: CUWYAW_clean_sbu_0, # of connection points: 6
#     Node 4, Type 0, BuildingBlock: CUWYAW_clean_sbu_0, # of connection points: 6
#     Node 5, Type 0, BuildingBlock: CUWYAW_clean_sbu_0, # of connection points: 6
#     Node 6, Type 0, BuildingBlock: CUWYAW_clean_sbu_0, # of connection points: 6
#     Node 7, Type 0, BuildingBlock: CUWYAW_clean_sbu_0, # of connection points: 6
#     Node 8, Type 0, BuildingBlock: CUWYAW_clean_sbu_0, # of connection points: 6
#     Node 9, Type 0, BuildingBlock: CUWYAW_clean_sbu_0, # of connection points: 6
#     Node 10, Type 0, BuildingBlock: CUWYAW_clean_sbu_0, # of connection points: 6
#     Node 11, Type 0, BuildingBlock: CUWYAW_clean_sbu_0, # of connection points: 6
#     Node 12, Type 0, BuildingBlock: CUWYAW_clean_sbu_0, # of connection points: 6
#     Node 13, Type 0, BuildingBlock: CUWYAW_clean_sbu_0, # of connection points: 6
#     Node 14, Type 0, BuildingBlock: CUWYAW_clean_sbu_0, # of connection points: 6
#     Node 15, Type 0, BuildingBlock: CUWYAW_clean_sbu_0, # of connection points: 6
#     Edge 16, Type (0, 0), BuildingBlock: UVAHIK_clean_linker_0, # of connection points: 2
#     Edge 17, Type (0, 0), BuildingBlock: UVAHIK_clean_linker_0, # of connection points: 2
#     Edge 18, Type (0, 0), BuildingBlock: UVAHIK_clean_linker_0, # of connection points: 2
#     Edge 19, Type (0, 0), BuildingBlock: UVAHIK_clean_linker_0, # of connection points: 2
#     Edge 20, Type (0, 0), BuildingBlock: UVAHIK_clean_linker_0, # of connection points: 2
#     Edge 21, Type (0, 0), BuildingBlock: UVAHIK_clean_linker_0, # of connection points: 2
#     Edge 22, Type (0, 0), BuildingBlock: UVAHIK_clean_linker_0, # of connection points: 2
#     Edge 23, Type (0, 0), BuildingBlock: UVAHIK_clean_linker_0, # of connection points: 2
#     Edge 24, Type (0, 0), BuildingBlock: UVAHIK_clean_linker_0, # of connection points: 2
#     Edge 25, Type (0, 0), BuildingBlock: UVAHIK_clean_linker_0, # of connection points: 2
#     Edge 26, Type (0, 0), BuildingBlock: UVAHIK_clean_linker_0, # of connection points: 2
#     Edge 27, Type (0, 0), BuildingBlock: UVAHIK_clean_linker_0, # of connection points: 2
#     Edge 28, Type (0, 0), BuildingBlock: UVAHIK_clean_linker_0, # of connection points: 2
#     Edge 29, Type (0, 0), BuildingBlock: UVAHIK_clean_linker_0, # of connection points: 2
#     Edge 30, Type (0, 0), BuildingBlock: UVAHIK_clean_linker_0, # of connection points: 2
#     Edge 31, Type (0, 0), BuildingBlock: UVAHIK_clean_linker_0, # of connection points: 2
#     Edge 32, Type (0, 0), BuildingBlock: UVAHIK_clean_linker_0, # of connection points: 2
#     Edge 33, Type (0, 0), BuildingBlock: UVAHIK_clean_linker_0, # of connection points: 2
#     Edge 34, Type (0, 0), BuildingBlock: UVAHIK_clean_linker_0, # of connection points: 2
#     Edge 35, Type (0, 0), BuildingBlock: UVAHIK_clean_linker_0, # of connection points: 2
#     Edge 36, Type (0, 0), BuildingBlock: UVAHIK_clean_linker_0, # of connection points: 2
#     Edge 37, Type (0, 0), BuildingBlock: UVAHIK_clean_linker_0, # of connection points: 2
#     Edge 38, Type (0, 0), BuildingBlock: UVAHIK_clean_linker_0, # of connection points: 2
#     Edge 39, Type (0, 0), BuildingBlock: UVAHIK_clean_linker_0, # of connection points: 2
#     Edge 40, Type (0, 0), BuildingBlock: UVAHIK_clean_linker_0, # of connection points: 2
#     Edge 41, Type (0, 0), BuildingBlock: UVAHIK_clean_linker_0, # of connection points: 2
#     Edge 42, Type (0, 0), BuildingBlock: UVAHIK_clean_linker_0, # of connection points: 2
#     Edge 43, Type (0, 0), BuildingBlock: UVAHIK_clean_linker_0, # of connection points: 2
#     Edge 44, Type (0, 0), BuildingBlock: UVAHIK_clean_linker_0, # of connection points: 2
#     Edge 45, Type (0, 0), BuildingBlock: UVAHIK_clean_linker_0, # of connection points: 2
#     Edge 46, Type (0, 0), BuildingBlock: UVAHIK_clean_linker_0, # of connection points: 2
#     Edge 47, Type (0, 0), BuildingBlock: UVAHIK_clean_linker_0, # of connection points: 2
#     Edge 48, Type (0, 0), BuildingBlock: UVAHIK_clean_linker_0, # of connection points: 2
#     Edge 49, Type (0, 0), BuildingBlock: UVAHIK_clean_linker_0, # of connection points: 2
#     Edge 50, Type (0, 0), BuildingBlock: UVAHIK_clean_linker_0, # of connection points: 2
#     Edge 51, Type (0, 0), BuildingBlock: UVAHIK_clean_linker_0, # of connection points: 2
#     Edge 52, Type (0, 0), BuildingBlock: UVAHIK_clean_linker_0, # of connection points: 2
#     Edge 53, Type (0, 0), BuildingBlock: UVAHIK_clean_linker_0, # of connection points: 2
#     Edge 54, Type (0, 0), BuildingBlock: UVAHIK_clean_linker_0, # of connection points: 2
#     Edge 55, Type (0, 0), BuildingBlock: UVAHIK_clean_linker_0, # of connection points: 2
#     Edge 56, Type (0, 0), BuildingBlock: UVAHIK_clean_linker_0, # of connection points: 2
#     Edge 57, Type (0, 0), BuildingBlock: UVAHIK_clean_linker_0, # of connection points: 2
#     Edge 58, Type (0, 0), BuildingBlock: UVAHIK_clean_linker_0, # of connection points: 2
#     Edge 59, Type (0, 0), BuildingBlock: UVAHIK_clean_linker_0, # of connection points: 2
#     Edge 60, Type (0, 0), BuildingBlock: UVAHIK_clean_linker_0, # of connection points: 2
#     Edge 61, Type (0, 0), BuildingBlock: UVAHIK_clean_linker_0, # of connection points: 2
#     Edge 62, Type (0, 0), BuildingBlock: UVAHIK_clean_linker_0, # of connection points: 2
#     Edge 63, Type (0, 0), BuildingBlock: UVAHIK_clean_linker_0, # of connection points: 2
# Relax obj value: 0.103
# Max RMSD: 0.166
# Mean RMSD: 0.166
data_MOF--net-wiv--node1-CUWYAW_clean_sbu_0--edge1-UVAHIK_clean_linker_0
_symmetry_space_group_name_H-M    P1
_symmetry_Int_Tables_number       1
_symmetry_cell_setting            triclinic
loop_
_symmetry_equiv_pos_as_xyz
'x, y, z'
_cell_length_a     67.979413
_cell_length_b     68.050172
_cell_length_c     29.579259
_cell_angle_alpha  89.969888
_cell_angle_beta   90.011603
_cell_angle_gamma 90.060771
loop_
_atom_site_label
_atom_site_type_symbol
_atom_site_fract_x
_atom_site_fract_y
_atom_site_fract_z
_atom_type_partial_charge
C0 C 0.39859 0.12627 0.99417 0.0
Eu1 Eu 0.38229 0.11612 0.07073 0.0
C2 C 0.39414 0.12447 0.94551 0.0
C3 C 0.38031 0.11078 0.92966 0.0
C4 C 0.3763 0.10925 0.8833 0.0
C5 C 0.38611 0.12135 0.85183 0.0
C6 C 0.39995 0.13505 0.86811 0.0
C7 C 0.40389 0.13659 0.91444 0.0
C8 C 0.38038 0.07901 0.10393 0.0
C9 C 0.33525 0.10827 0.05324 0.0
C10 C 0.33933 0.10062 0.22703 0.0
Eu11 Eu 0.35533 0.11107 0.15026 0.0
C12 C 0.34398 0.10215 0.2756 0.0
C13 C 0.35875 0.11489 0.29127 0.0
C14 C 0.3628 0.11629 0.33763 0.0
C15 C 0.3522 0.10494 0.3692 0.0
C16 C 0.33753 0.0921 0.3531 0.0
C17 C 0.33348 0.09074 0.3068 0.0
C18 C 0.35814 0.14869 0.12 0.0
C19 C 0.40268 0.11922 0.16619 0.0
O20 O 0.38714 0.13789 0.01756 0.0
O21 O 0.40264 0.10997 1.01564 0.0
O22 O 0.39639 0.08704 0.08884 0.0
O23 O 0.36597 0.09045 0.09865 0.0
O24 O 0.3521 0.11535 0.03805 0.0
O25 O 0.33316 0.10301 0.09605 0.0
O26 O 0.35066 0.08912 0.20311 0.0
O27 O 0.33526 0.11703 0.20608 0.0
O28 O 0.34191 0.14052 0.13339 0.0
O29 O 0.37227 0.1368 0.1241 0.0
O30 O 0.38605 0.11181 0.18232 0.0
O31 O 0.40407 0.12502 0.12375 0.0
H32 H 0.37262 0.10127 0.95315 0.0
H33 H 0.36537 0.09872 0.87219 0.0
H34 H 0.40801 0.14441 0.84499 0.0
H35 H 0.41466 0.14721 0.926 0.0
H36 H 0.3671 0.12376 0.26766 0.0
H37 H 0.37436 0.12614 0.34871 0.0
H38 H 0.32891 0.08332 0.37636 0.0
H39 H 0.32203 0.08083 0.29535 0.0
C40 C 0.10323 0.66966 0.81818 0.0
Eu41 Eu 0.11261 0.64955 0.88999 0.0
C42 C 0.10609 0.66666 0.76902 0.0
C43 C 0.10839 0.68284 0.74011 0.0
C44 C 0.11096 0.6801 0.69346 0.0
C45 C 0.11126 0.66107 0.67464 0.0
C46 C 0.10901 0.64489 0.70396 0.0
C47 C 0.10655 0.64765 0.75054 0.0
C48 C 0.1498 0.63731 0.90766 0.0
C49 C 0.11801 0.60281 0.87925 0.0
C50 C 0.12334 0.60785 0.05225 0.0
Eu51 Eu 0.11623 0.6243 0.97393 0.0
C52 C 0.12606 0.61321 0.10024 0.0
C53 C 0.12271 0.59892 0.1335 0.0
C54 C 0.12349 0.60381 0.1794 0.0
C55 C 0.12753 0.62319 0.1932 0.0
C56 C 0.13113 0.63749 0.15967 0.0
C57 C 0.13049 0.63251 0.1136 0.0
C58 C 0.08011 0.62471 0.93423 0.0
C59 C 0.11134 0.67147 0.98768 0.0
O60 O 0.09124 0.65735 0.83829 0.0
O61 O 0.11908 0.67321 0.84207 0.0
O62 O 0.14216 0.63826 0.86767 0.0
O63 O 0.13769 0.64329 0.93704 0.0
O64 O 0.10864 0.61845 0.86353 0.0
O65 O 0.12577 0.60272 0.92025 0.0
O66 O 0.13718 0.6127 0.02347 0.0
O67 O 0.10572 0.61071 0.03602 0.0
O68 O 0.08829 0.60899 0.9503 0.0
O69 O 0.09115 0.63934 0.94028 0.0
O70 O 0.11329 0.65399 1.00636 0.0
O71 O 0.11066 0.67381 0.94317 0.0
H72 H 0.10821 0.69764 0.75362 0.0
H73 H 0.11294 0.69292 0.67225 0.0
H74 H 0.10885 0.63003 0.69092 0.0
H75 H 0.10488 0.63487 0.7721 0.0
H76 H 0.11908 0.58398 0.12392 0.0
H77 H 0.12035 0.59247 0.20409 0.0
H78 H 0.13447 0.65251 0.16903 0.0
H79 H 0.1332 0.64375 0.08845 0.0
C80 C 0.60859 0.87917 0.99436 0.0
Eu81 Eu 0.6244 0.89025 0.07075 0.0
C82 C 0.61298 0.88122 0.94575 0.0
C83 C 0.62632 0.89543 0.93003 0.0
C84 C 0.63038 0.89709 0.88372 0.0
C85 C 0.62119 0.88455 0.85222 0.0
C86 C 0.60786 0.87032 0.86835 0.0
C87 C 0.60383 0.86868 0.91461 0.0
C88 C 0.62593 0.92772 0.10201 0.0
C89 C 0.67132 0.89887 0.05359 0.0
C90 C 0.66698 0.90692 0.22743 0.0
Eu91 Eu 0.65114 0.89622 0.15061 0.0
C92 C 0.66273 0.9049 0.27609 0.0
C93 C 0.64885 0.89125 0.29197 0.0
C94 C 0.64507 0.88956 0.33841 0.0
C95 C 0.65502 0.90158 0.36979 0.0
C96 C 0.66881 0.9153 0.35347 0.0
C97 C 0.67262 0.91692 0.30712 0.0
C98 C 0.64868 0.85837 0.12171 0.0
C99 C 0.60397 0.8875 0.16613 0.0
O100 O 0.62071 0.86822 0.01775 0.0
O101 O 0.6036 0.89521 1.01582 0.0
O102 O 0.61008 0.91951 0.0865 0.0
O103 O 0.64041 0.91628 0.09791 0.0
O104 O 0.65469 0.89123 0.03853 0.0
O105 O 0.67313 0.9046 0.09617 0.0
O106 O 0.65489 0.91792 0.20428 0.0
O107 O 0.67176 0.89088 0.20581 0.0
O108 O 0.6648 0.86669 0.1352 0.0
O109 O 0.6345 0.87019 0.1252 0.0
O110 O 0.62023 0.89588 0.18169 0.0
O111 O 0.60295 0.88084 0.12431 0.0
H112 H 0.6336 0.90522 0.95359 0.0
H113 H 0.64091 0.90804 0.87267 0.0
H114 H 0.60029 0.8606 0.84515 0.0
H115 H 0.59348 0.85763 0.92608 0.0
H116 H 0.64094 0.88194 0.26847 0.0
H117 H 0.63419 0.87901 0.34969 0.0
H118 H 0.67691 0.92462 0.3766 0.0
H119 H 0.68336 0.92756 0.29549 0.0
C120 C 0.909 0.34017 0.80641 0.0
Eu121 Eu 0.89628 0.35488 0.88267 0.0
C122 C 0.9062 0.34379 0.75771 0.0
C123 C 0.89219 0.35735 0.74217 0.0
C124 C 0.88983 0.36069 0.69571 0.0
C125 C 0.90145 0.35054 0.66391 0.0
C126 C 0.91552 0.33703 0.67993 0.0
C127 C 0.91784 0.33371 0.72632 0.0
C128 C 0.85781 0.35646 0.90718 0.0
C129 C 0.88693 0.40212 0.86839 0.0
C130 C 0.87655 0.396 0.03945 0.0
Eu131 Eu 0.88882 0.38082 0.9634 0.0
C132 C 0.87859 0.39179 0.08814 0.0
C133 C 0.89319 0.37899 0.10419 0.0
C134 C 0.89501 0.37527 0.15062 0.0
C135 C 0.88233 0.38438 0.1819 0.0
C136 C 0.86767 0.39712 0.16543 0.0
C137 C 0.86582 0.40075 0.11904 0.0
C138 C 0.92682 0.37968 0.93513 0.0
C139 C 0.89797 0.33404 0.97949 0.0
O140 O 0.91821 0.35391 0.82888 0.0
O141 O 0.89385 0.33325 0.8285 0.0
O142 O 0.86658 0.34088 0.89213 0.0
O143 O 0.86956 0.37085 0.90707 0.0
O144 O 0.89489 0.38582 0.85204 0.0
O145 O 0.88052 0.40299 0.91047 0.0
O146 O 0.86632 0.38336 1.01579 0.0
O147 O 0.89248 0.40176 0.01847 0.0
O148 O 0.91841 0.39534 0.95087 0.0
O149 O 0.91528 0.36524 0.93771 0.0
O150 O 0.88997 0.35043 0.99478 0.0
O151 O 0.90414 0.33263 0.93713 0.0
H152 H 0.88307 0.3653 0.76595 0.0
H153 H 0.87872 0.37103 0.68471 0.0
H154 H 0.92496 0.32919 0.65664 0.0
H155 H 0.92883 0.3233 0.73772 0.0
H156 H 0.90326 0.37201 0.08084 0.0
H157 H 0.90659 0.36554 0.16206 0.0
H158 H 0.85747 0.40416 0.18839 0.0
H159 H 0.8544 0.41062 0.10727 0.0
C160 C 0.39027 0.37685 0.29007 0.0
Eu161 Eu 0.37625 0.38964 0.21335 0.0
C162 C 0.38534 0.37889 0.33845 0.0
C163 C 0.3733 0.39425 0.35379 0.0
C164 C 0.36915 0.39629 0.39997 0.0
C165 C 0.37706 0.38305 0.43178 0.0
C166 C 0.38895 0.36756 0.41601 0.0
C167 C 0.39303 0.36551 0.36984 0.0
C168 C 0.37702 0.42695 0.18105 0.0
C169 C 0.32915 0.40018 0.22682 0.0
C170 C 0.33625 0.41696 0.05568 0.0
Eu171 Eu 0.34944 0.39912 0.12738 0.0
C172 C 0.33809 0.41336 1.0067 0.0
C173 C 0.34943 0.39763 0.99063 0.0
C174 C 0.35195 0.39476 0.94411 0.0
C175 C 0.34317 0.4076 0.91264 0.0
C176 C 0.33164 0.42324 0.92907 0.0
C177 C 0.32916 0.4261 0.97565 0.0
C178 C 0.35249 0.35943 0.13878 0.0
C179 C 0.39587 0.38582 0.11655 0.0
O180 O 0.37788 0.3668 0.26522 0.0
O181 O 0.39659 0.39275 0.26976 0.0
O182 O 0.39227 0.41821 0.19824 0.0
O183 O 0.36207 0.41604 0.18394 0.0
O184 O 0.34618 0.3945 0.24425 0.0
O185 O 0.32679 0.40389 0.183 0.0
O186 O 0.35263 0.42186 0.07621 0.0
O187 O 0.32584 0.40415 0.07869 0.0
O188 O 0.3419 0.36765 0.1076 0.0
O189 O 0.36022 0.37275 0.16232 0.0
O190 O 0.38078 0.39602 0.10033 0.0
O191 O 0.3961 0.37878 0.15826 0.0
H192 H 0.36729 0.4048 0.3301 0.0
H193 H 0.36012 0.4085 0.41081 0.0
H194 H 0.39504 0.35692 0.43935 0.0
H195 H 0.4023 0.35352 0.35866 0.0
H196 H 0.35649 0.38765 1.01413 0.0
H197 H 0.3607 0.38242 0.93281 0.0
H198 H 0.32487 0.43357 0.90597 0.0
H199 H 0.32047 0.43841 0.98744 0.0
C200 C 0.40983 0.66891 0.98099 0.0
Eu201 Eu 0.39813 0.65355 0.90464 0.0
C202 C 0.40794 0.66476 0.02989 0.0
C203 C 0.40295 0.68006 0.05948 0.0
C204 C 0.40111 0.67658 0.10591 0.0
C205 C 0.40426 0.65768 0.12389 0.0
C206 C 0.4092 0.64234 0.09405 0.0
C207 C 0.41103 0.64584 0.04756 0.0
C208 C 0.36001 0.65177 0.87744 0.0
C209 C 0.38895 0.6063 0.91958 0.0
C210 C 0.38127 0.61127 0.74817 0.0
Eu211 Eu 0.39188 0.62729 0.82458 0.0
C212 C 0.38279 0.61562 0.6993 0.0
C213 C 0.38823 0.60059 0.66942 0.0
C214 C 0.38984 0.60426 0.62302 0.0
C215 C 0.38604 0.6231 0.6054 0.0
C216 C 0.38066 0.63819 0.63553 0.0
C217 C 0.37901 0.63448 0.68197 0.0
C218 C 0.42935 0.62864 0.85638 0.0
C219 C 0.40023 0.67415 0.8078 0.0
O220 O 0.42049 0.6568 0.95695 0.0
O221 O 0.3938 0.67434 0.96004 0.0
O222 O 0.36868 0.66752 0.89193 0.0
O223 O 0.37172 0.63736 0.87902 0.0
O224 O 0.39665 0.62272 0.93616 0.0
O225 O 0.38303 0.60528 0.87717 0.0
O226 O 0.36975 0.62254 0.77238 0.0
O227 O 0.3977 0.60702 0.76893 0.0
O228 O 0.42095 0.61273 0.84194 0.0
O229 O 0.41801 0.64312 0.85147 0.0
O230 O 0.39279 0.65753 0.79234 0.0
O231 O 0.40589 0.67587 0.85044 0.0
H232 H 0.40044 0.69476 0.04661 0.0
H233 H 0.39698 0.68869 0.12766 0.0
H234 H 0.41196 0.62765 0.10666 0.0
H235 H 0.41494 0.63376 0.02553 0.0
H236 H 0.39128 0.58595 0.68203 0.0
H237 H 0.39431 0.59237 0.60101 0.0
H238 H 0.37742 0.65281 0.62317 0.0
H239 H 0.37471 0.64634 0.70425 0.0
C240 C 0.61531 0.63029 0.2886 0.0
Eu241 Eu 0.62917 0.61758 0.21173 0.0
C242 C 0.62052 0.62829 0.33682 0.0
C243 C 0.63269 0.61295 0.35178 0.0
C244 C 0.63717 0.61093 0.39778 0.0
C245 C 0.62952 0.62418 0.42985 0.0
C246 C 0.61744 0.63962 0.41448 0.0
C247 C 0.61302 0.64165 0.36845 0.0
C248 C 0.62789 0.58045 0.17865 0.0
C249 C 0.67624 0.60663 0.22506 0.0
C250 C 0.66906 0.59011 0.05397 0.0
Eu251 Eu 0.65596 0.60803 0.1256 0.0
C252 C 0.66747 0.59367 1.00494 0.0
C253 C 0.65607 0.60928 0.98838 0.0
C254 C 0.65387 0.61211 0.94174 0.0
C255 C 0.663 0.59935 0.91069 0.0
C256 C 0.67456 0.58382 0.92764 0.0
C257 C 0.67675 0.58102 0.9743 0.0
C258 C 0.65338 0.64767 0.13774 0.0
C259 C 0.60964 0.62195 0.11475 0.0
O260 O 0.62746 0.64048 0.2634 0.0
O261 O 0.60908 0.61432 0.26851 0.0
O262 O 0.61276 0.58933 0.19601 0.0
O263 O 0.643 0.59112 0.18183 0.0
O264 O 0.65923 0.61232 0.24262 0.0
O265 O 0.67857 0.60304 0.1812 0.0
O266 O 0.65254 0.58546 0.0742 0.0
O267 O 0.67958 0.60278 0.07712 0.0
O268 O 0.66388 0.63948 0.10638 0.0
O269 O 0.64547 0.63435 0.16096 0.0
O270 O 0.62474 0.61182 0.09828 0.0
O271 O 0.60931 0.62865 0.15675 0.0
H272 H 0.63861 0.60245 0.32789 0.0
H273 H 0.64674 0.59904 0.40816 0.0
H274 H 0.61106 0.64995 0.43812 0.0
H275 H 0.60355 0.65355 0.3576 0.0
H276 H 0.64867 0.61914 1.01156 0.0
H277 H 0.64465 0.62404 0.93006 0.0
H278 H 0.68202 0.57387 0.90482 0.0
H279 H 0.68558 0.56887 0.98647 0.0
C280 C 0.60791 0.3333 0.97376 0.0
Eu281 Eu 0.61252 0.35544 0.90236 0.0
C282 C 0.61097 0.33647 0.02257 0.0
C283 C 0.61824 0.35448 0.03855 0.0
C284 C 0.62021 0.35782 0.08504 0.0
C285 C 0.61491 0.34321 0.11657 0.0
C286 C 0.60783 0.32509 0.1002 0.0
C287 C 0.60586 0.32178 0.05365 0.0
C288 C 0.64807 0.37039 0.87896 0.0
C289 C 0.61452 0.40249 0.91269 0.0
C290 C 0.61602 0.39677 0.73848 0.0
Eu291 Eu 0.61192 0.38052 0.81793 0.0
C292 C 0.62023 0.39092 0.69133 0.0
C293 C 0.61485 0.37228 0.67501 0.0
C294 C 0.61667 0.36779 0.62899 0.0
C295 C 0.62381 0.38189 0.59821 0.0
C296 C 0.62983 0.4003 0.61507 0.0
C297 C 0.62804 0.40475 0.66112 0.0
C298 C 0.57702 0.37869 0.86255 0.0
C299 C 0.61181 0.33321 0.805 0.0
O300 O 0.59379 0.34363 0.95557 0.0
O301 O 0.62371 0.33296 0.9485 0.0
O302 O 0.64149 0.36943 0.91993 0.0
O303 O 0.63567 0.36324 0.85159 0.0
O304 O 0.60737 0.38609 0.93052 0.0
O305 O 0.62061 0.40311 0.87019 0.0
O306 O 0.63038 0.39574 0.76802 0.0
O307 O 0.59923 0.39066 0.75487 0.0
O308 O 0.58344 0.39426 0.84223 0.0
O309 O 0.58862 0.36444 0.85648 0.0
O310 O 0.61255 0.35067 0.78596 0.0
O311 O 0.61098 0.33102 0.84946 0.0
H312 H 0.62222 0.36604 1.01504 0.0
H313 H 0.62596 0.37184 0.09626 0.0
H314 H 0.60335 0.3136 0.12337 0.0
H315 H 0.60008 0.30784 0.04196 0.0
H316 H 0.60859 0.3614 0.69754 0.0
H317 H 0.61171 0.35354 0.6173 0.0
H318 H 0.63571 0.4114 0.59255 0.0
H319 H 0.63224 0.41923 0.67294 0.0
C320 C 0.89879 0.6275 0.49115 0.0
Eu321 Eu 0.88272 0.61727 0.56787 0.0
C322 C 0.89408 0.62578 0.44259 0.0
C323 C 0.88131 0.61112 0.42657 0.0
C324 C 0.87716 0.60962 0.38028 0.0
C325 C 0.88567 0.62277 0.3491 0.0
C326 C 0.89834 0.63752 0.36553 0.0
C327 C 0.90248 0.63899 0.41178 0.0
C328 C 0.88099 0.5802 0.60141 0.0
C329 C 0.83573 0.60913 0.55026 0.0
C330 C 0.83988 0.60175 0.72414 0.0
Eu331 Eu 0.85577 0.61224 0.64732 0.0
C332 C 0.84452 0.60338 0.77272 0.0
C333 C 0.85776 0.6176 0.78883 0.0
C334 C 0.86172 0.6191 0.83522 0.0
C335 C 0.85261 0.60631 0.86633 0.0
C336 C 0.83956 0.59193 0.84978 0.0
C337 C 0.83556 0.59051 0.80348 0.0
C338 C 0.85848 0.64984 0.61691 0.0
C339 C 0.90317 0.62045 0.66323 0.0
O340 O 0.88752 0.63916 0.51491 0.0
O341 O 0.90291 0.61117 0.51244 0.0
O342 O 0.89697 0.58828 0.58622 0.0
O343 O 0.86653 0.59156 0.59598 0.0
O344 O 0.85258 0.61619 0.53501 0.0
O345 O 0.83362 0.60404 0.59317 0.0
O346 O 0.85128 0.59029 0.7003 0.0
O347 O 0.83563 0.61809 0.70304 0.0
O348 O 0.84226 0.64164 0.6303 0.0
O349 O 0.87263 0.638 0.62109 0.0
O350 O 0.88648 0.6132 0.67944 0.0
O351 O 0.90463 0.62609 0.62069 0.0
H352 H 0.87457 0.60082 0.44985 0.0
H353 H 0.86714 0.59826 0.36897 0.0
H354 H 0.90535 0.64775 0.34256 0.0
H355 H 0.91237 0.65041 0.42347 0.0
H356 H 0.86498 0.62757 0.76557 0.0
H357 H 0.87204 0.63015 0.84668 0.0
H358 H 0.83213 0.58199 0.87273 0.0
H359 H 0.82533 0.57942 0.79168 0.0
C360 C 0.60943 0.17309 0.31115 0.0
Eu361 Eu 0.61601 0.15141 0.38243 0.0
C362 C 0.61254 0.17013 0.26226 0.0
C363 C 0.62079 0.15258 0.24615 0.0
C364 C 0.62294 0.14942 0.19963 0.0
C365 C 0.61684 0.16372 0.16817 0.0
C366 C 0.60875 0.18138 0.18466 0.0
C367 C 0.60661 0.18452 0.23124 0.0
C368 C 0.65244 0.13788 0.40294 0.0
C369 C 0.61956 0.1045 0.37198 0.0
C370 C 0.62342 0.11014 0.5461 0.0
Eu371 Eu 0.61773 0.12615 0.46684 0.0
C372 C 0.62713 0.11631 0.59328 0.0
C373 C 0.62061 0.13461 0.60935 0.0
C374 C 0.62193 0.13924 0.65541 0.0
C375 C 0.62972 0.12562 0.68649 0.0
C376 C 0.63688 0.10759 0.66989 0.0
C377 C 0.63558 0.103 0.6238 0.0
C378 C 0.58206 0.12708 0.42533 0.0
C379 C 0.6154 0.17345 0.47997 0.0
O380 O 0.59618 0.16173 0.32967 0.0
O381 O 0.62527 0.17467 0.33607 0.0
O382 O 0.6453 0.13874 0.36247 0.0
O383 O 0.64018 0.14445 0.43129 0.0
O384 O 0.61118 0.12053 0.35536 0.0
O385 O 0.6268 0.10412 0.41354 0.0
O386 O 0.63756 0.11253 0.51644 0.0
O387 O 0.60614 0.11473 0.52989 0.0
O388 O 0.5893 0.11156 0.44436 0.0
O389 O 0.59339 0.1416 0.43068 0.0
O390 O 0.61744 0.15604 0.4988 0.0
O391 O 0.61375 0.17564 0.43562 0.0
H392 H 0.62544 0.14126 0.26959 0.0
H393 H 0.62948 0.13577 0.18835 0.0
H394 H 0.60365 0.19262 0.16155 0.0
H395 H 0.60008 0.19811 0.24302 0.0
H396 H 0.61382 0.14506 0.5866 0.0
H397 H 0.61609 0.15318 0.66686 0.0
H398 H 0.64326 0.09687 0.69263 0.0
H399 H 0.64065 0.08878 0.61221 0.0
C400 C 0.10782 0.37996 0.49612 0.0
Eu401 Eu 0.12402 0.39025 0.57257 0.0
C402 C 0.11229 0.38178 0.44731 0.0
C403 C 0.09733 0.38731 0.41723 0.0
C404 C 0.10117 0.38913 0.37091 0.0
C405 C 0.1201 0.38545 0.35358 0.0
C406 C 0.1351 0.37995 0.38391 0.0
C407 C 0.13123 0.37813 0.43024 0.0
C408 C 0.12566 0.4273 0.60593 0.0
C409 C 0.17094 0.39891 0.55449 0.0
C410 C 0.16778 0.40441 0.72897 0.0
Eu411 Eu 0.15135 0.3953 0.65178 0.0
C412 C 0.16323 0.40269 0.77769 0.0
C413 C 0.17836 0.39809 0.80813 0.0
C414 C 0.1745 0.39643 0.85445 0.0
C415 C 0.15538 0.39937 0.87141 0.0
C416 C 0.14021 0.40394 0.84073 0.0
C417 C 0.14408 0.40553 0.79433 0.0
C418 C 0.14845 0.35784 0.62056 0.0
C419 C 0.10415 0.38737 0.66841 0.0
O420 O 0.11913 0.36835 0.52004 0.0
O421 O 0.10345 0.39621 0.51741 0.0
O422 O 0.10974 0.41922 0.59042 0.0
O423 O 0.14019 0.41598 0.60075 0.0
O424 O 0.15411 0.39173 0.5394 0.0
O425 O 0.17321 0.40388 0.59743 0.0
O426 O 0.15707 0.41658 0.70527 0.0
O427 O 0.17126 0.38804 0.70744 0.0
O428 O 0.16478 0.36602 0.63319 0.0
O429 O 0.13436 0.36966 0.62561 0.0
O430 O 0.12063 0.39544 0.68357 0.0
O431 O 0.10274 0.38089 0.6265 0.0
H432 H 0.0826 0.39015 0.42958 0.0
H433 H 0.0892 0.39312 0.34859 0.0
H434 H 0.1499 0.37725 0.37193 0.0
H435 H 0.14307 0.37386 0.45267 0.0
H436 H 0.19324 0.39586 0.79605 0.0
H437 H 0.18657 0.39313 0.87708 0.0
H438 H 0.12527 0.40607 0.8525 0.0
H439 H 0.1321 0.40897 0.77153 0.0
C440 C 0.40592 0.83774 0.3075 0.0
Eu441 Eu 0.39487 0.85333 0.38412 0.0
C442 C 0.40395 0.84188 0.25863 0.0
C443 C 0.399 0.82656 0.22902 0.0
C444 C 0.39732 0.83002 0.18254 0.0
C445 C 0.40057 0.84892 0.1646 0.0
C446 C 0.40541 0.86428 0.19448 0.0
C447 C 0.4071 0.8608 0.24098 0.0
C448 C 0.35688 0.85535 0.41214 0.0
C449 C 0.38607 0.90059 0.36886 0.0
C450 C 0.37837 0.89568 0.54054 0.0
Eu451 Eu 0.38906 0.87979 0.46412 0.0
C452 C 0.38025 0.89137 0.58934 0.0
C453 C 0.38544 0.90653 0.61914 0.0
C454 C 0.38736 0.90287 0.66548 0.0
C455 C 0.38411 0.88392 0.6831 0.0
C456 C 0.379 0.86871 0.65304 0.0
C457 C 0.37707 0.8724 0.60666 0.0
C458 C 0.42652 0.87828 0.43243 0.0
C459 C 0.39761 0.83296 0.48118 0.0
O460 O 0.41683 0.84978 0.33116 0.0
O461 O 0.38992 0.83254 0.32886 0.0
O462 O 0.36543 0.83949 0.39796 0.0
O463 O 0.36867 0.86969 0.41005 0.0
O464 O 0.39354 0.88408 0.35237 0.0
O465 O 0.38035 0.90179 0.41137 0.0
O466 O 0.36701 0.8841 0.51666 0.0
O467 O 0.39459 0.90036 0.51935 0.0
O468 O 0.41834 0.89414 0.44776 0.0
O469 O 0.41503 0.86386 0.43684 0.0
O470 O 0.39031 0.84963 0.49668 0.0
O471 O 0.40289 0.83109 0.43832 0.0
H472 H 0.39645 0.81187 0.24189 0.0
H473 H 0.39327 0.8179 0.16071 0.0
H474 H 0.40825 0.87896 0.18188 0.0
H475 H 0.41101 0.87289 0.26303 0.0
H476 H 0.38806 0.92126 0.60651 0.0
H477 H 0.39161 0.91488 0.68744 0.0
H478 H 0.37619 0.85399 0.66541 0.0
H479 H 0.37299 0.86042 0.58444 0.0
C480 C 0.89036 0.87737 0.7882 0.0
Eu481 Eu 0.87659 0.89049 0.71152 0.0
C482 C 0.88551 0.87978 0.83658 0.0
C483 C 0.8739 0.89555 0.8515 0.0
C484 C 0.86962 0.89782 0.89756 0.0
C485 C 0.87691 0.88438 0.92974 0.0
C486 C 0.88847 0.86855 0.91441 0.0
C487 C 0.8927 0.86629 0.86833 0.0
C488 C 0.87758 0.92795 0.68 0.0
C489 C 0.82956 0.90153 0.72542 0.0
C490 C 0.83664 0.91856 0.55425 0.0
Eu491 Eu 0.84974 0.90052 0.62585 0.0
C492 C 0.83835 0.9151 0.50515 0.0
C493 C 0.84936 0.89922 0.4886 0.0
C494 C 0.8517 0.89648 0.44196 0.0
C495 C 0.84311 0.9096 0.41084 0.0
C496 C 0.83196 0.92543 0.42776 0.0
C497 C 0.82963 0.92814 0.47444 0.0
C498 C 0.85279 0.86072 0.63615 0.0
C499 C 0.89613 0.8873 0.61488 0.0
O500 O 0.87756 0.86772 0.76362 0.0
O501 O 0.89725 0.89294 0.76752 0.0
O502 O 0.89278 0.91903 0.697 0.0
O503 O 0.86256 0.91712 0.68272 0.0
O504 O 0.84661 0.89578 0.74267 0.0
O505 O 0.8271 0.90519 0.68161 0.0
O506 O 0.85307 0.92327 0.57473 0.0
O507 O 0.82616 0.90578 0.5772 0.0
O508 O 0.84226 0.86912 0.60513 0.0
O509 O 0.86051 0.87392 0.66002 0.0
O510 O 0.88125 0.89808 0.5996 0.0
O511 O 0.89615 0.87948 0.65585 0.0
H512 H 0.86822 0.90615 0.82752 0.0
H513 H 0.86045 0.91002 0.90789 0.0
H514 H 0.89458 0.85807 0.9381 0.0
H515 H 0.90173 0.85406 0.85753 0.0
H516 H 0.85636 0.88907 0.51181 0.0
H517 H 0.8606 0.8843 0.43033 0.0
H518 H 0.82493 0.93569 0.40492 0.0
H519 H 0.82112 0.94052 0.48656 0.0
C520 C 0.91353 0.1688 0.47802 0.0
Eu521 Eu 0.90082 0.15392 0.40192 0.0
C522 C 0.91134 0.16472 0.5267 0.0
C523 C 0.8977 0.15082 0.54245 0.0
C524 C 0.89566 0.14731 0.58892 0.0
C525 C 0.90723 0.15764 0.62053 0.0
C526 C 0.921 0.17143 0.60431 0.0
C527 C 0.92301 0.17492 0.5579 0.0
C528 C 0.86249 0.15227 0.37642 0.0
C529 C 0.89131 0.10668 0.4163 0.0
C530 C 0.88247 0.11225 0.24505 0.0
Eu531 Eu 0.89385 0.12788 0.32139 0.0
C532 C 0.88441 0.11657 0.19639 0.0
C533 C 0.89856 0.12992 0.18045 0.0
C534 C 0.90035 0.13366 0.13403 0.0
C535 C 0.8881 0.12403 0.10263 0.0
C536 C 0.87386 0.11076 0.11899 0.0
C537 C 0.87205 0.10709 0.16538 0.0
C538 C 0.9316 0.12923 0.35151 0.0
C539 C 0.90227 0.17479 0.30519 0.0
O540 O 0.92329 0.15578 0.45453 0.0
O541 O 0.89782 0.17501 0.45696 0.0
O542 O 0.87121 0.16789 0.39157 0.0
O543 O 0.87422 0.13788 0.37694 0.0
O544 O 0.89927 0.12298 0.43283 0.0
O545 O 0.88508 0.10584 0.37409 0.0
O546 O 0.87163 0.12437 0.26862 0.0
O547 O 0.8986 0.10723 0.2662 0.0
O548 O 0.92317 0.11337 0.3368 0.0
O549 O 0.92014 0.14365 0.34751 0.0
O550 O 0.89466 0.15824 0.28976 0.0
O551 O 0.90829 0.17635 0.34763 0.0
H552 H 0.88854 0.14279 0.51882 0.0
H553 H 0.88478 0.13673 0.60008 0.0
H554 H 0.9304 0.17942 0.62747 0.0
H555 H 0.9337 0.18562 0.54636 0.0
H556 H 0.90831 0.13732 0.20389 0.0
H557 H 0.9116 0.14381 0.12269 0.0
H558 H 0.86398 0.1033 0.09595 0.0
H559 H 0.86099 0.0968 0.17705 0.0
C560 C 0.11559 0.13064 0.78986 0.0
Eu561 Eu 0.12941 0.1177 0.71315 0.0
C562 C 0.12069 0.12871 0.8382 0.0
C563 C 0.13242 0.11312 0.85369 0.0
C564 C 0.13665 0.11114 0.89985 0.0
C565 C 0.12916 0.12466 0.93151 0.0
C566 C 0.1176 0.14038 0.91559 0.0
C567 C 0.11344 0.14238 0.86943 0.0
C568 C 0.12791 0.08061 0.68007 0.0
C569 C 0.17634 0.10622 0.72695 0.0
C570 C 0.16939 0.0899 0.55552 0.0
Eu571 Eu 0.15639 0.10785 0.62723 0.0
C572 C 0.16771 0.09361 0.50654 0.0
C573 C 0.15678 0.10964 0.49044 0.0
C574 C 0.15435 0.11259 0.44391 0.0
C575 C 0.1628 0.09954 0.41245 0.0
C576 C 0.17393 0.0836 0.42892 0.0
C577 C 0.17632 0.08066 0.47551 0.0
C578 C 0.154 0.14749 0.63937 0.0
C579 C 0.11018 0.12207 0.6158 0.0
O580 O 0.12784 0.1407 0.76464 0.0
O581 O 0.10926 0.11467 0.76988 0.0
O582 O 0.11281 0.08959 0.69732 0.0
O583 O 0.14309 0.09116 0.68339 0.0
O584 O 0.15934 0.11207 0.74431 0.0
O585 O 0.17879 0.10264 0.68312 0.0
O586 O 0.15289 0.08528 0.57584 0.0
O587 O 0.17999 0.1025 0.57873 0.0
O588 O 0.16455 0.13926 0.60815 0.0
O589 O 0.14598 0.1342 0.66244 0.0
O590 O 0.12527 0.11185 0.59961 0.0
O591 O 0.10973 0.1288 0.65779 0.0
H592 H 0.13808 0.10234 0.83015 0.0
H593 H 0.14541 0.09874 0.91081 0.0
H594 H 0.11183 0.15125 0.93879 0.0
H595 H 0.10442 0.15455 0.85814 0.0
H596 H 0.14997 0.11979 0.51392 0.0
H597 H 0.14592 0.12515 0.43259 0.0
H598 H 0.18042 0.07311 0.40583 0.0
H599 H 0.18467 0.06812 0.48731 0.0
C600 C 0.1024 0.83644 0.47235 0.0
Eu601 Eu 0.11021 0.85707 0.40023 0.0
C602 C 0.10586 0.8392 0.52125 0.0
C603 C 0.10535 0.82307 0.5507 0.0
C604 C 0.10801 0.82572 0.59732 0.0
C605 C 0.11118 0.84462 0.61549 0.0
C606 C 0.11186 0.86072 0.58555 0.0
C607 C 0.10931 0.85803 0.53899 0.0
C608 C 0.14684 0.87033 0.38026 0.0
C609 C 0.11417 0.90404 0.40989 0.0
C610 C 0.11874 0.89823 0.23696 0.0
Eu611 Eu 0.11219 0.88186 0.31561 0.0
C612 C 0.12225 0.89271 0.1894 0.0
C613 C 0.12141 0.90729 0.15598 0.0
C614 C 0.12272 0.90231 0.11019 0.0
C615 C 0.12474 0.88257 0.09678 0.0
C616 C 0.12595 0.86799 0.13052 0.0
C617 C 0.12482 0.87305 0.17644 0.0
C618 C 0.07646 0.88098 0.357 0.0
C619 C 0.10833 0.83462 0.30311 0.0
O620 O 0.08995 0.8487 0.45376 0.0
O621 O 0.11798 0.83348 0.44721 0.0
O622 O 0.13956 0.8695 0.42061 0.0
O623 O 0.13464 0.86375 0.35172 0.0
O624 O 0.10592 0.88805 0.42702 0.0
O625 O 0.12104 0.90427 0.36806 0.0
O626 O 0.13267 0.89456 0.26642 0.0
O627 O 0.10124 0.89415 0.25258 0.0
O628 O 0.08408 0.89664 0.33915 0.0
O629 O 0.08774 0.8665 0.35135 0.0
O630 O 0.10949 0.85205 0.28386 0.0
O631 O 0.10841 0.83252 0.34769 0.0
H632 H 0.1028 0.80841 0.53767 0.0
H633 H 0.10771 0.81292 0.61906 0.0
H634 H 0.11398 0.87552 0.59809 0.0
H635 H 0.10979 0.8707 0.51686 0.0
H636 H 0.11927 0.92254 0.16527 0.0
H637 H 0.1215 0.91389 0.08522 0.0
H638 H 0.12773 0.85268 0.12143 0.0
H639 H 0.12564 0.8616 0.20176 0.0
C640 C 0.3871 0.91677 0.29222 0.0
C641 C 0.38392 0.91809 0.3391 0.0
C642 C 0.38546 0.93344 0.2646 0.0
C643 C 0.39286 0.9727 0.21822 0.0
H644 H 0.35451 0.01312 0.24552 0.0
C645 C 0.39721 0.04999 0.13819 0.0
C646 C 0.37966 0.05984 0.1276 0.0
C647 C 0.39685 0.0322 0.16188 0.0
C648 C 0.36517 1.00191 0.23698 0.0
H649 H 0.37647 0.93808 0.39356 0.0
H650 H 0.37404 0.96707 0.34584 0.0
H651 H 0.35491 0.98292 0.28967 0.0
H652 H 0.34792 0.05864 0.13287 0.0
H653 H 0.34718 0.02734 0.17362 0.0
H654 H 0.40284 0.99148 0.1649 0.0
C655 C 0.37739 0.95312 0.33006 0.0
C656 C 0.36559 0.98465 0.2628 0.0
C657 C 0.37892 0.93645 0.35757 0.0
C658 C 0.36169 0.05141 0.14075 0.0
C659 C 0.3613 0.03352 0.16435 0.0
C660 C 0.39239 0.98991 0.19228 0.0
C661 C 0.38069 0.95189 0.28317 0.0
C662 C 0.37958 0.96987 0.25413 0.0
C663 C 0.3789 0.02369 0.1754 0.0
C664 C 0.37869 0.00488 0.20159 0.0
H665 H 0.3908 0.90285 0.27674 0.0
H666 H 0.38781 0.9318 0.2286 0.0
H667 H 0.40398 0.9618 0.21068 0.0
H668 H 0.41131 0.05619 0.12877 0.0
H669 H 0.41072 0.02533 0.17041 0.0
C670 C 0.91926 0.6182 0.73977 0.0
C671 C 0.92062 0.62223 0.69323 0.0
C672 C 0.93594 0.61935 0.76753 0.0
C673 C 0.9753 0.61125 0.81308 0.0
H674 H 0.01534 0.6506 0.78996 0.0
C675 C 0.05226 0.60736 0.89596 0.0
C676 C 0.06142 0.62503 0.90859 0.0
C677 C 0.03475 0.60755 0.87108 0.0
C678 C 1.00424 0.63963 0.79731 0.0
H679 H 0.94067 0.63065 0.63953 0.0
H680 H 0.96965 0.63227 0.68747 0.0
H681 H 0.98524 0.6506 0.74548 0.0
H682 H 0.05937 0.65675 0.90559 0.0
H683 H 0.0286 0.65716 0.86291 0.0
H684 H 0.99411 0.60057 0.86566 0.0
C685 C 0.95567 0.62861 0.7029 0.0
C686 C 0.98704 0.63946 0.7713 0.0
C687 C 0.93902 0.62756 0.67525 0.0
C688 C 0.05267 0.6429 0.8961 0.0
C689 C 0.03508 0.64311 0.87141 0.0
C690 C 0.99248 0.61147 0.83924 0.0
C691 C 0.95441 0.62448 0.74943 0.0
C692 C 0.97238 0.62517 0.77854 0.0
C693 C 0.02588 0.62542 0.85845 0.0
C694 C 0.00727 0.62557 0.8315 0.0
H695 H 0.90532 0.61412 0.75484 0.0
H696 H 0.9343 0.61634 0.80328 0.0
H697 H 0.96449 0.59989 0.81943 0.0
H698 H 0.05876 0.59335 0.90484 0.0
H699 H 0.02835 0.59363 0.8611 0.0
C700 C 0.64358 0.954 0.14592 0.0
C701 C 0.62629 0.9469 0.1257 0.0
C702 C 0.64332 0.9713 0.17164 0.0
C703 C 0.60796 0.00561 0.22906 0.0
H704 H 0.65423 0.03861 0.24028 0.0
C705 C 0.60722 0.08366 0.30813 0.0
C706 C 0.62079 0.08667 0.34334 0.0
C707 C 0.60817 0.06673 0.28135 0.0
C708 C 0.64124 0.02946 0.23753 0.0
H709 H 0.59545 0.95302 0.11406 0.0
H710 H 0.59516 0.98365 0.15621 0.0
H711 H 0.65537 0.00948 0.19222 0.0
H712 H 0.64627 0.07454 0.37737 0.0
H713 H 0.64827 0.04519 0.3295 0.0
H714 H 0.59372 0.0262 0.27309 0.0
C715 C 0.60878 0.97547 0.15455 0.0
C716 C 0.64187 0.01265 0.21019 0.0
C717 C 0.60897 0.95797 0.12978 0.0
C718 C 0.63553 0.07256 0.35069 0.0
C719 C 0.63676 0.05583 0.32319 0.0
C720 C 0.60723 0.02263 0.25554 0.0
C721 C 0.62584 0.98225 0.17676 0.0
C722 C 0.62524 1.00039 0.20557 0.0
C723 C 0.62299 0.05269 0.2885 0.0
C724 C 0.62386 0.03469 0.26017 0.0
H725 H 0.65724 0.94595 0.14272 0.0
H726 H 0.65676 0.97576 0.18832 0.0
H727 H 0.59497 0.99643 0.22767 0.0
H728 H 0.59566 0.09425 0.30169 0.0
H729 H 0.59742 0.06469 0.2547 0.0
C730 C 0.95782 0.3966 0.91159 0.0
C731 C 0.94638 0.37943 0.91317 0.0
C732 C 0.97574 0.39689 0.88834 0.0
C733 C 0.01305 0.36411 0.83251 0.0
H734 H 0.02798 0.41278 0.77343 0.0
C735 C 0.07253 0.37121 0.6915 0.0
C736 C 0.08701 0.38561 0.69905 0.0
C737 C 0.05611 0.36985 0.71992 0.0
C738 C 0.02404 0.39913 0.79001 0.0
H739 H 0.94511 0.34885 0.89331 0.0
H740 H 0.97567 0.34956 0.85036 0.0
H741 H 0.99789 0.41148 0.81787 0.0
H742 H 0.09561 0.4099 0.74217 0.0
H743 H 0.06657 0.40787 0.79097 0.0
H744 H 0.03892 0.35167 0.80224 0.0
C745 C 0.9712 0.36277 0.86789 0.0
C746 C 0.00683 0.39836 0.81588 0.0
C747 C 0.95349 0.36239 0.89209 0.0
C748 C 0.08475 0.39859 0.73563 0.0
C749 C 0.06812 0.3975 0.76342 0.0
C750 C 0.03005 0.3648 0.80577 0.0
C751 C 0.98254 0.38011 0.86524 0.0
C752 C 1.00107 0.38086 0.83778 0.0
C753 C 0.05364 0.38312 0.75581 0.0
C754 C 0.03573 0.38234 0.78444 0.0
H755 H 0.95285 0.40991 0.92805 0.0
H756 H 0.98419 0.41037 0.88851 0.0
H757 H 0.00947 0.35045 0.84934 0.0
H758 H 0.07391 0.36095 0.66369 0.0
H759 H 0.04511 0.35869 0.71323 0.0
C760 C 0.36012 0.45568 0.14479 0.0
C761 C 0.37758 0.44615 0.15748 0.0
C762 C 0.36073 0.4736 0.12145 0.0
C763 C 0.36596 0.505 0.04927 0.0
H764 H 0.40681 0.5432 0.0749 0.0
C765 C 0.38109 0.57055 0.93018 0.0
C766 C 0.38678 0.58867 0.94896 0.0
C767 C 0.37942 0.55376 0.95718 0.0
C768 C 0.39515 0.53283 0.06756 0.0
H769 H 0.40938 0.44795 0.15604 0.0
H770 H 0.41053 0.47896 0.11472 0.0
H771 H 0.40467 0.51331 0.11995 0.0
H772 H 0.39492 0.60329 1.01133 0.0
H773 H 0.39167 0.57407 0.05868 0.0
H774 H 0.35614 0.5247 0.99763 0.0
C775 C 0.39631 0.47286 0.12335 0.0
C776 C 0.39409 0.5155 0.09306 0.0
C777 C 0.39567 0.455 0.14685 0.0
C778 C 0.39062 0.58958 0.99564 0.0
C779 C 0.38885 0.57275 0.02278 0.0
C780 C 0.36696 0.52236 0.02392 0.0
C781 C 0.37885 0.48241 0.11015 0.0
C782 C 0.37957 0.50125 0.08406 0.0
C783 C 0.38326 0.55457 1.0039 0.0
C784 C 0.38169 0.53646 0.03239 0.0
H785 H 0.34595 0.44926 0.15282 0.0
H786 H 0.34697 0.4806 0.11257 0.0
H787 H 0.35469 0.49435 0.04089 0.0
H788 H 0.37815 0.56922 0.89432 0.0
H789 H 0.37545 0.54002 0.94113 0.0
C790 C 0.59268 0.62064 0.03919 0.0
C791 C 0.59207 0.62502 0.08563 0.0
C792 C 0.57581 0.62249 1.01233 0.0
C793 C 0.5359 0.61545 0.96929 0.0
H794 H 0.49681 0.65549 0.99361 0.0
C795 C 0.45806 0.61164 0.89172 0.0
C796 C 0.4486 0.62921 0.87976 0.0
C797 C 0.47594 0.61196 0.91513 0.0
C798 C 0.50764 0.64434 0.98589 0.0
H799 H 0.57317 0.63501 0.14003 0.0
H800 H 0.54375 0.63775 0.09368 0.0
H801 H 0.52745 0.65534 0.03613 0.0
H802 H 0.45054 0.66095 0.88234 0.0
H803 H 0.48204 0.66161 0.92228 0.0
H804 H 0.51637 0.60478 0.9182 0.0
C805 C 0.55734 0.63329 0.0776 0.0
C806 C 0.52517 0.64407 1.01082 0.0
C807 C 0.57425 0.63161 0.10435 0.0
C808 C 0.45749 0.64717 0.89127 0.0
C809 C 0.47548 0.64751 0.91446 0.0
C810 C 0.51846 0.6158 0.94416 0.0
C811 C 0.55781 0.62861 0.03124 0.0
C812 C 0.53949 0.62951 1.00321 0.0
C813 C 0.48495 0.6299 0.92687 0.0
C814 C 0.50396 0.63012 0.95238 0.0
H815 H 0.60619 0.61567 0.02351 0.0
H816 H 0.57691 0.61912 0.97666 0.0
H817 H 0.54639 0.60384 0.96266 0.0
H818 H 0.45148 0.59757 0.88362 0.0
H819 H 0.4825 0.59809 0.92477 0.0
C820 C 0.60865 0.5534 0.14219 0.0
C821 C 0.62693 0.56159 0.15382 0.0
C822 C 0.60761 0.53592 0.1174 0.0
C823 C 0.60887 0.49359 0.08504 0.0
H824 H 0.64667 0.48439 0.98932 0.0
C825 C 0.61201 0.41973 0.98771 0.0
C826 C 0.61602 0.42045 0.94108 0.0
C827 C 0.61366 0.43664 1.01447 0.0
C828 C 0.63588 0.48676 1.01566 0.0
H829 H 0.65848 0.55768 0.14957 0.0
H830 H 0.65675 0.52697 0.10694 0.0
H831 H 0.64869 0.5144 0.03384 0.0
H832 H 0.62477 0.43967 0.8861 0.0
H833 H 0.62724 0.46912 0.93239 0.0
H834 H 0.59566 0.46627 0.0659 0.0
C835 C 0.64316 0.53423 0.1161 0.0
C836 C 0.63721 0.50389 0.0417 0.0
C837 C 0.64418 0.55177 0.14079 0.0
C838 C 0.62165 0.43851 0.9219 0.0
C839 C 0.62321 0.45543 0.9486 0.0
C840 C 0.60749 0.47649 0.0589 0.0
C841 C 0.62485 0.52609 0.10386 0.0
C842 C 0.62369 0.5076 0.07669 0.0
C843 C 0.61928 0.45474 0.9953 0.0
C844 C 0.62094 0.47285 0.02372 0.0
H845 H 0.5951 0.5607 0.15161 0.0
H846 H 0.59325 0.53033 0.10809 0.0
H847 H 0.59833 0.49576 0.11202 0.0
H848 H 0.60775 0.40605 1.00373 0.0
H849 H 0.61079 0.43542 0.05037 0.0
C850 C 0.43094 0.37518 0.10619 0.0
C851 C 0.41361 0.38315 0.08781 0.0
C852 C 0.4481 0.37392 0.08027 0.0
C853 C 0.46721 0.37381 0.9633 0.0
H854 H 0.51567 0.39065 0.0206 0.0
C855 C 0.54055 0.38327 0.86411 0.0
C856 C 0.55794 0.37773 0.88628 0.0
C857 C 0.52256 0.38343 0.88735 0.0
C858 C 0.50237 0.3856 1.00416 0.0
H859 H 0.40066 0.39548 0.02701 0.0
H860 H 0.43064 0.39318 0.98175 0.0
H861 H 0.48508 0.3913 0.06316 0.0
H862 H 0.57039 0.36975 0.95076 0.0
H863 H 0.5392 0.36877 0.99081 0.0
H864 H 0.48457 0.36793 0.90435 0.0
C865 C 0.4309 0.38791 1.0163 0.0
C866 C 0.48478 0.38602 0.02862 0.0
C867 C 0.41374 0.38931 0.04236 0.0
C868 C 0.55712 0.3728 0.93219 0.0
C869 C 0.53922 0.37286 0.95543 0.0
C870 C 0.48487 0.37326 0.93884 0.0
C871 C 0.44837 0.38048 0.03518 0.0
C872 C 0.46699 0.38007 1.00861 0.0
C873 C 0.52167 0.37828 0.93346 0.0
C874 C 0.50272 0.37906 0.95902 0.0
H875 H 0.43143 0.37023 0.14097 0.0
H876 H 0.46121 0.36785 0.09564 0.0
H877 H 0.45378 0.36898 0.94701 0.0
H878 H 0.5409 0.38758 0.82885 0.0
H879 H 0.50946 0.38805 0.86945 0.0
C880 C 0.88885 0.41851 0.79214 0.0
C881 C 0.88488 0.41966 0.83873 0.0
C882 C 0.88726 0.43519 0.76453 0.0
C883 C 0.89436 0.47456 0.71861 0.0
H884 H 0.85504 0.51433 0.74352 0.0
C885 C 0.89803 0.55159 0.63702 0.0
C886 C 0.88041 0.56114 0.62564 0.0
C887 C 0.89778 0.53392 0.66119 0.0
C888 C 0.86598 0.5033 0.73563 0.0
H889 H 0.87614 0.43937 0.89271 0.0
H890 H 0.87386 0.46841 0.84507 0.0
H891 H 0.85549 0.48419 0.78785 0.0
H892 H 0.84866 0.55954 0.63007 0.0
H893 H 0.84812 0.52842 0.67155 0.0
H894 H 0.90453 0.49341 0.66564 0.0
C895 C 0.87775 0.45457 0.82944 0.0
C896 C 0.86642 0.48607 0.76159 0.0
C897 C 0.8792 0.43788 0.85694 0.0
C898 C 0.86248 0.55253 0.63853 0.0
C899 C 0.86221 0.53475 0.66258 0.0
C900 C 0.89384 0.49172 0.6925 0.0
C901 C 0.8818 0.45351 0.78283 0.0
C902 C 0.88075 0.47152 0.75379 0.0
C903 C 0.87988 0.52521 0.67439 0.0
C904 C 0.87978 0.50646 0.7009 0.0
H905 H 0.89315 0.40471 0.77685 0.0
H906 H 0.89019 0.43365 0.72874 0.0
H907 H 0.90575 0.46386 0.71174 0.0
H908 H 0.91209 0.55794 0.62784 0.0
H909 H 0.91171 0.5273 0.6703 0.0
C910 C 0.56186 0.13108 0.35553 0.0
C911 C 0.56286 0.12758 0.40213 0.0
C912 C 0.54376 0.13112 0.33315 0.0
C913 C 0.49309 0.11228 0.34017 0.0
H914 H 0.48274 0.15239 0.25013 0.0
C915 C 0.41896 0.11654 0.24251 0.0
C916 C 0.42009 0.12119 0.19622 0.0
C917 C 0.4356 0.11811 0.2703 0.0
C918 C 0.48544 0.14095 0.27481 0.0
H919 H 0.54598 0.12027 0.46178 0.0
H920 H 0.51408 0.12027 0.42268 0.0
H921 H 0.51315 0.1535 0.29358 0.0
H922 H 0.43972 0.13105 0.14297 0.0
H923 H 0.46861 0.13342 0.1909 0.0
H924 H 0.46556 0.09947 0.32069 0.0
C925 C 0.5273 0.12329 0.40346 0.0
C926 C 0.50288 0.14162 0.29982 0.0
C927 C 0.54549 0.12338 0.42587 0.0
C928 C 0.43823 0.12747 0.17849 0.0
C929 C 0.45483 0.12896 0.20614 0.0
C930 C 0.47565 0.11153 0.31492 0.0
C931 C 0.52622 0.12731 0.35683 0.0
C932 C 0.50705 0.12717 0.33241 0.0
C933 C 0.45378 0.12432 0.25244 0.0
C934 C 0.47171 0.12572 0.28146 0.0
H935 H 0.57509 0.13305 0.33595 0.0
H936 H 0.54355 0.13364 0.29699 0.0
H937 H 0.49593 0.10082 0.36473 0.0
H938 H 0.40523 0.11169 0.25735 0.0
H939 H 0.43417 0.11462 0.30586 0.0
C940 C 0.10567 0.58164 0.81609 0.0
C941 C 0.11953 0.58508 0.85047 0.0
C942 C 0.10688 0.56476 0.78922 0.0
C943 C 0.14058 0.52846 0.74362 0.0
H944 H 0.09499 0.4944 0.73574 0.0
C945 C 0.14338 0.45337 0.65033 0.0
C946 C 0.12604 0.44627 0.63041 0.0
C947 C 0.14311 0.4705 0.67666 0.0
C948 C 0.10778 0.50387 0.73663 0.0
H949 H 0.1458 0.57381 0.88292 0.0
H950 H 0.14821 0.54453 0.83491 0.0
H951 H 0.09351 0.52402 0.78164 0.0
H952 H 0.09507 0.45216 0.62 0.0
H953 H 0.09474 0.48246 0.66328 0.0
H954 H 0.15471 0.50889 0.69734 0.0
C955 C 0.13629 0.5548 0.82931 0.0
C956 C 0.10693 0.5208 0.76335 0.0
C957 C 0.13483 0.57147 0.85689 0.0
C958 C 0.10864 0.45712 0.63546 0.0
C959 C 0.10843 0.47443 0.66087 0.0
C960 C 0.14133 0.51173 0.71606 0.0
C961 C 0.12222 0.55121 0.79548 0.0
C962 C 0.1233 0.53324 0.76717 0.0
C963 C 0.12556 0.48121 0.68274 0.0
C964 C 0.12492 0.49915 0.7121 0.0
H965 H 0.0937 0.59183 0.81039 0.0
H966 H 0.09591 0.56238 0.76323 0.0
H967 H 0.15338 0.53792 0.74577 0.0
H968 H 0.1571 0.44549 0.64633 0.0
H969 H 0.15662 0.47502 0.69303 0.0
C970 C 0.58398 0.89789 0.23328 0.0
C971 C 0.58673 0.88522 0.19637 0.0
C972 C 0.56725 0.89623 0.26066 0.0
C973 C 0.51695 0.87331 0.26266 0.0
H974 H 0.51867 0.88907 0.38855 0.0
C975 C 0.45305 0.8603 0.39026 0.0
C976 C 0.44598 0.8777 0.40997 0.0
C977 C 0.47072 0.86031 0.36588 0.0
C978 C 0.51802 0.88461 0.35342 0.0
H979 H 0.57449 0.86038 0.16023 0.0
H980 H 0.54595 0.85675 0.20906 0.0
H981 H 0.54863 0.89024 0.34324 0.0
H982 H 0.45238 0.90849 0.42168 0.0
H983 H 0.48366 0.90829 0.38066 0.0
H984 H 0.48637 0.86707 0.27384 0.0
C985 C 0.55616 0.86858 0.21604 0.0
C986 C 0.53515 0.88544 0.32718 0.0
C987 C 0.57266 0.87054 0.1881 0.0
C988 C 0.45739 0.89488 0.40666 0.0
C989 C 0.47529 0.89477 0.38326 0.0
C990 C 0.49995 0.87207 0.28922 0.0
C991 C 0.55301 0.88156 0.25248 0.0
C992 C 0.53487 0.88 0.28117 0.0
C993 C 0.48196 0.87758 0.362 0.0
C994 C 0.50028 0.8779 0.3347 0.0
H995 H 0.59452 0.90945 0.24033 0.0
H996 H 0.56534 0.90679 0.28764 0.0
H997 H 0.51582 0.8694 0.2273 0.0
H998 H 0.44476 0.84675 0.39301 0.0
H999 H 0.47565 0.84682 0.3501 0.0
C1000 C 0.89656 0.95555 0.64482 0.0
C1001 C 0.87837 0.94707 0.65607 0.0
C1002 C 0.89741 0.97331 0.62096 0.0
C1003 C 0.86727 0.00587 0.54725 0.0
H1004 H 0.90905 0.04327 0.57116 0.0
C1005 C 0.88279 0.07109 0.42725 0.0
C1006 C 0.88905 0.08908 0.44573 0.0
C1007 C 0.88098 0.05433 0.45438 0.0
C1008 C 0.89713 0.03314 0.5643 0.0
H1009 H 0.84678 0.95071 0.65207 0.0
H1010 H 0.84817 0.9819 0.61123 0.0
H1011 H 0.90658 0.01353 0.61657 0.0
H1012 H 0.89814 0.10351 0.50768 0.0
H1013 H 0.89459 0.07439 0.55523 0.0
H1014 H 0.85751 0.02569 0.49577 0.0
C1015 C 0.86185 0.97468 0.6199 0.0
C1016 C 0.89587 0.01588 0.59001 0.0
C1017 C 0.86102 0.95686 0.64359 0.0
C1018 C 0.89334 0.0899 0.49222 0.0
C1019 C 0.89142 0.07313 0.51948 0.0
C1020 C 0.86847 0.02317 0.52171 0.0
C1021 C 0.88007 0.98314 0.60801 0.0
C1022 C 0.88102 1.0019 0.58164 0.0
C1023 C 0.88525 0.05507 0.50091 0.0
C1024 C 0.88352 0.03699 0.52955 0.0
H1025 H 0.91018 0.94828 0.65379 0.0
H1026 H 0.9117 0.97911 0.61186 0.0
H1027 H 0.85574 0.99544 0.53935 0.0
H1028 H 0.87948 0.06982 0.39155 0.0
H1029 H 0.87656 0.04069 0.43853 0.0
C1030 C 0.09369 0.12104 0.53974 0.0
C1031 C 0.09277 0.12521 0.58625 0.0
C1032 C 0.07698 0.12292 0.51238 0.0
C1033 C 0.03744 0.11582 0.46784 0.0
H1034 H 0.99799 0.15559 0.49145 0.0
C1035 C 0.96021 0.1121 0.38698 0.0
C1036 C 0.95078 0.12971 0.37518 0.0
C1037 C 0.97793 0.11237 0.41103 0.0
C1038 C 0.00893 0.14451 0.48392 0.0
H1039 H 0.0735 0.13488 0.64026 0.0
H1040 H 0.04434 0.13767 0.593 0.0
H1041 H 0.0283 0.15538 0.53522 0.0
H1042 H 0.95262 0.16144 0.37856 0.0
H1043 H 0.98385 0.162 0.41958 0.0
H1044 H 0.01836 0.10529 0.4157 0.0
C1045 C 0.05805 0.13334 0.57727 0.0
C1046 C 0.02626 0.14422 0.50957 0.0
C1047 C 0.0748 0.13164 0.60454 0.0
C1048 C 0.95956 0.14763 0.38736 0.0
C1049 C 0.97739 0.14792 0.41118 0.0
C1050 C 0.0202 0.11621 0.44199 0.0
C1051 C 0.05883 0.12884 0.53084 0.0
C1052 C 0.0407 0.12975 0.50219 0.0
C1053 C 0.98679 0.13027 0.42356 0.0
C1054 C 0.00559 0.13043 0.44992 0.0
H1055 H 0.10732 0.11621 0.52437 0.0
H1056 H 0.07833 0.1197 0.47667 0.0
H1057 H 0.04803 0.10429 0.46138 0.0
H1058 H 0.95371 0.09806 0.37835 0.0
H1059 H 0.98445 0.09846 0.42058 0.0
C1060 C 0.1109 0.92142 0.48442 0.0
C1061 C 0.11579 0.92198 0.43825 0.0
C1062 C 0.11255 0.93827 0.51127 0.0
C1063 C 0.10663 0.97811 0.5552 0.0
H1064 H 0.14915 0.01503 0.53454 0.0
C1065 C 0.1085 0.05434 0.6413 0.0
C1066 C 0.1268 0.06196 0.65454 0.0
C1067 C 0.10738 0.0371 0.61567 0.0
C1068 C 0.13729 0.0048 0.54117 0.0
H1069 H 0.12614 0.94084 0.3841 0.0
H1070 H 0.12857 0.97028 0.43054 0.0
H1071 H 0.14713 0.98524 0.48928 0.0
H1072 H 0.15829 0.05734 0.65235 0.0
H1073 H 0.15641 0.02699 0.60841 0.0
H1074 H 0.09711 0.99736 0.60797 0.0
C1075 C 0.12385 0.95672 0.44636 0.0
C1076 C 0.13596 0.9878 0.51468 0.0
C1077 C 0.12233 0.93983 0.41958 0.0
C1078 C 0.14398 0.05184 0.64233 0.0
C1079 C 0.14288 0.03452 0.61687 0.0
C1080 C 0.10801 0.99505 0.58184 0.0
C1081 C 0.119 0.95619 0.49262 0.0
C1082 C 0.12057 0.97423 0.5212 0.0
C1083 C 0.12455 0.02695 0.60297 0.0
C1084 C 0.12332 0.00868 0.5751 0.0
H1085 H 0.10592 0.90791 0.50005 0.0
H1086 H 0.10899 0.93715 0.54686 0.0
H1087 H 0.09442 0.96818 0.56095 0.0
H1088 H 0.09501 0.06191 0.65003 0.0
H1089 H 0.09302 0.03195 0.60507 0.0
C1090 C 0.0461 0.89765 0.38498 0.0
C1091 C 0.0575 0.88053 0.38163 0.0
C1092 C 0.02838 0.8976 0.40903 0.0
C1093 C 0.99091 0.86397 0.46118 0.0
H1094 H 0.9754 0.91181 0.52272 0.0
C1095 C 0.92735 0.86976 0.59364 0.0
C1096 C 0.91385 0.88507 0.58605 0.0
C1097 C 0.94452 0.86832 0.56762 0.0
C1098 C 0.9795 0.89838 0.5055 0.0
H1099 H 0.05902 0.84976 0.39982 0.0
H1100 H 0.02874 0.84983 0.44403 0.0
H1101 H 0.00621 0.91096 0.48095 0.0
H1102 H 0.90778 0.9108 0.54503 0.0
H1103 H 0.93797 0.90853 0.50054 0.0
H1104 H 0.96434 0.85131 0.48774 0.0
C1105 C 0.03313 0.86328 0.42727 0.0
C1106 C 0.99714 0.89788 0.48118 0.0
C1107 C 0.05069 0.86326 0.4024 0.0
C1108 C 0.91782 0.89878 0.55165 0.0
C1109 C 0.93515 0.89757 0.52632 0.0
C1110 C 0.97342 0.86438 0.48632 0.0
C1111 C 0.02172 0.88049 0.43114 0.0
C1112 C 1.00305 0.88074 0.45817 0.0
C1113 C 0.94873 0.88239 0.53417 0.0
C1114 C 0.96746 0.88165 0.50834 0.0
H1115 H 0.05085 0.91115 0.36891 0.0
H1116 H 0.01988 0.91103 0.40992 0.0
H1117 H 0.99466 0.85057 0.44351 0.0
H1118 H 0.92468 0.85893 0.61979 0.0
H1119 H 0.95478 0.85652 0.57445 0.0
C1120 C 0.37847 0.17941 0.12735 0.0
C1121 C 0.36041 0.17028 0.11742 0.0
C1122 C 0.37982 0.19997 0.12965 0.0
C1123 C 0.35618 0.2452 0.08996 0.0
H1124 H 0.3763 0.26992 0.19874 0.0
C1125 C 0.33992 0.32589 0.12457 0.0
C1126 C 0.35445 0.33791 0.1438 0.0
C1127 C 0.34223 0.30556 0.12306 0.0
C1128 C 0.37092 0.2633 0.16782 0.0
H1129 H 0.32983 0.1754 0.10079 0.0
H1130 H 0.3323 0.2112 0.10333 0.0
H1131 H 0.37819 0.23413 0.19021 0.0
H1132 H 0.38261 0.33809 0.17793 0.0
H1133 H 0.38701 0.30223 0.17438 0.0
H1134 H 0.34911 0.27405 0.06695 0.0
C1135 C 0.34536 0.20253 0.10982 0.0
C1136 C 0.37199 0.2428 0.163 0.0
C1137 C 0.34393 0.18205 0.10839 0.0
C1138 C 0.37114 0.3291 0.16312 0.0
C1139 C 0.37362 0.30858 0.16101 0.0
C1140 C 0.35535 0.2656 0.09446 0.0
C1141 C 0.36323 0.21173 0.12107 0.0
C1142 C 0.3642 0.23352 0.12444 0.0
C1143 C 0.35936 0.2966 0.13989 0.0
C1144 C 0.36218 0.27495 0.13398 0.0
H1145 H 0.39139 0.17068 0.13474 0.0
H1146 H 0.39379 0.20668 0.13813 0.0
H1147 H 0.35037 0.23849 0.05954 0.0
H1148 H 0.32679 0.33226 0.10985 0.0
H1149 H 0.33058 0.29688 0.10803 0.0
C1150 C 0.32906 0.63229 0.86453 0.0
C1151 C 0.33833 0.64965 0.87875 0.0
C1152 C 0.30863 0.63002 0.86916 0.0
C1153 C 0.26265 0.65882 0.8938 0.0
H1154 H 0.24083 0.60717 0.91758 0.0
C1155 C 0.18138 0.64691 0.94554 0.0
C1156 C 0.17119 0.63521 0.91422 0.0
C1157 C 0.20201 0.64743 0.94518 0.0
C1158 C 0.24679 0.62168 0.91114 0.0
H1159 H 0.33352 0.67827 0.90895 0.0
H1160 H 0.29844 0.67408 0.91895 0.0
H1161 H 0.27629 0.61093 0.90719 0.0
H1162 H 0.17432 0.61401 0.86014 0.0
H1163 H 0.21033 0.6143 0.86086 0.0
H1164 H 0.23309 0.66952 0.89921 0.0
C1165 C 0.30654 0.66237 0.90271 0.0
C1166 C 0.2671 0.62385 0.90462 0.0
C1167 C 0.3268 0.66475 0.89725 0.0
C1168 C 0.18189 0.62313 0.88464 0.0
C1169 C 0.20245 0.62327 0.88507 0.0
C1170 C 0.24246 0.65668 0.90133 0.0
C1171 C 0.29707 0.64496 0.88887 0.0
C1172 C 0.27536 0.64247 0.89561 0.0
C1173 C 0.2127 0.63586 0.91436 0.0
C1174 C 0.23432 0.6381 0.90983 0.0
H1175 H 0.3376 0.62042 0.85008 0.0
H1176 H 0.30196 0.61655 0.85718 0.0
H1177 H 0.26818 0.67333 0.88582 0.0
H1178 H 0.17344 0.65647 0.96841 0.0
H1179 H 0.20961 0.65722 0.96817 0.0
C1180 C 0.66308 0.82505 0.11089 0.0
C1181 C 0.64651 0.83679 0.11916 0.0
C1182 C 0.66164 0.80457 0.11208 0.0
C1183 C 0.63461 0.76424 0.1636 0.0
H1184 H 0.6579 0.73322 0.06777 0.0
C1185 C 0.63492 0.67801 0.16227 0.0
C1186 C 0.65163 0.66916 0.14323 0.0
C1187 C 0.63261 0.69855 0.16049 0.0
C1188 C 0.65155 0.7416 0.09523 0.0
H1189 H 0.61536 0.83636 0.13491 0.0
H1190 H 0.61295 0.80036 0.13793 0.0
H1191 H 0.65683 0.7688 0.06087 0.0
H1192 H 0.67951 0.6747 0.1102 0.0
H1193 H 0.67604 0.71012 0.10902 0.0
H1194 H 0.62999 0.73703 0.1988 0.0
C1195 C 0.627 0.80709 0.13021 0.0
C1196 C 0.65082 0.76202 0.09101 0.0
C1197 C 0.62836 0.82764 0.12814 0.0
C1198 C 0.66637 0.68112 0.12468 0.0
C1199 C 0.66425 0.70147 0.12354 0.0
C1200 C 0.63557 0.74373 0.16816 0.0
C1201 C 0.64367 0.79537 0.12235 0.0
C1202 C 0.64265 0.77359 0.1254 0.0
C1203 C 0.64709 0.71049 0.14003 0.0
C1204 C 0.64445 0.73216 0.13439 0.0
H1205 H 0.67724 0.83173 0.104 0.0
H1206 H 0.67475 0.79591 0.10616 0.0
H1207 H 0.62828 0.77285 0.19073 0.0
H1208 H 0.62329 0.66906 0.17654 0.0
H1209 H 0.61921 0.70496 0.17356 0.0
C1210 C 0.82472 0.34352 0.88611 0.0
C1211 C 0.83616 0.35858 0.90514 0.0
C1212 C 0.80449 0.34592 0.88008 0.0
C1213 C 0.76519 0.38437 0.87703 0.0
H1214 H 0.731 0.33879 0.88336 0.0
C1215 C 0.6802 0.38564 0.89766 0.0
C1216 C 0.66925 0.37289 0.87007 0.0
C1217 C 0.70074 0.38559 0.89616 0.0
C1218 C 0.74042 0.3516 0.8809 0.0
H1219 H 0.83533 0.38776 0.93413 0.0
H1220 H 0.79975 0.39165 0.92588 0.0
H1221 H 0.76607 0.33497 0.89691 0.0
H1222 H 0.67102 0.35059 0.81805 0.0
H1223 H 0.70717 0.35008 0.81629 0.0
H1224 H 0.73902 0.40104 0.86349 0.0
C1225 C 0.80647 0.3782 0.914 0.0
C1226 C 0.76059 0.34945 0.88857 0.0
C1227 C 0.82685 0.37592 0.91927 0.0
C1228 C 0.67915 0.36069 0.83934 0.0
C1229 C 0.69977 0.3603 0.83861 0.0
C1230 C 0.74491 0.38655 0.87028 0.0
C1231 C 0.79501 0.3633 0.89382 0.0
C1232 C 0.77334 0.36578 0.88658 0.0
C1233 C 0.71073 0.37244 0.86776 0.0
C1234 C 0.73236 0.37017 0.87196 0.0
H1235 H 0.83147 0.33002 0.8745 0.0
H1236 H 0.79644 0.33423 0.86354 0.0
H1237 H 0.77445 0.39726 0.87433 0.0
H1238 H 0.67285 0.39512 0.92175 0.0
H1239 H 0.70881 0.39501 0.91913 0.0
C1240 C 0.87871 0.68063 0.62438 0.0
C1241 C 0.86069 0.67145 0.61432 0.0
C1242 C 0.88 0.7012 0.62666 0.0
C1243 C 0.85638 0.74637 0.58668 0.0
H1244 H 0.87627 0.77114 0.69562 0.0
C1245 C 0.84033 0.82723 0.62075 0.0
C1246 C 0.85475 0.83917 0.64062 0.0
C1247 C 0.84258 0.80689 0.6191 0.0
C1248 C 0.87096 0.76452 0.66465 0.0
H1249 H 0.83012 0.67649 0.59744 0.0
H1250 H 0.8325 0.7123 0.59993 0.0
H1251 H 0.87814 0.73535 0.68723 0.0
H1252 H 0.88271 0.8392 0.67562 0.0
H1253 H 0.88705 0.80335 0.67178 0.0
H1254 H 0.84943 0.77522 0.56344 0.0
C1255 C 0.84557 0.70367 0.60654 0.0
C1256 C 0.87202 0.74401 0.65991 0.0
C1257 C 0.84419 0.68318 0.60514 0.0
C1258 C 0.87131 0.83028 0.6603 0.0
C1259 C 0.87376 0.80976 0.65804 0.0
C1260 C 0.85557 0.76679 0.59109 0.0
C1261 C 0.8634 0.71291 0.61793 0.0
C1262 C 0.86431 0.73471 0.62128 0.0
C1263 C 0.85958 0.79784 0.63643 0.0
C1264 C 0.86234 0.77616 0.63064 0.0
H1265 H 0.89164 0.67193 0.63189 0.0
H1266 H 0.89394 0.70794 0.63526 0.0
H1267 H 0.85064 0.73965 0.5562 0.0
H1268 H 0.8273 0.83366 0.60572 0.0
H1269 H 0.83099 0.79828 0.60365 0.0
C1270 C 0.83155 0.13285 0.36315 0.0
C1271 C 0.84083 0.15013 0.37787 0.0
C1272 C 0.81114 0.13055 0.36779 0.0
C1273 C 0.76519 0.15921 0.39285 0.0
H1274 H 0.74338 0.1075 0.41587 0.0
C1275 C 0.68372 0.14745 0.44205 0.0
C1276 C 0.67373 0.1356 0.41071 0.0
C1277 C 0.70434 0.14792 0.44246 0.0
C1278 C 0.74934 0.12202 0.40965 0.0
H1279 H 0.83605 0.17857 0.40895 0.0
H1280 H 0.80096 0.17433 0.4189 0.0
H1281 H 0.77886 0.11131 0.40584 0.0
H1282 H 0.67718 0.11405 0.35749 0.0
H1283 H 0.71317 0.11427 0.35951 0.0
H1284 H 0.73562 0.16988 0.39797 0.0
C1285 C 0.80907 0.16271 0.40232 0.0
C1286 C 0.76965 0.12423 0.40335 0.0
C1287 C 0.82932 0.16512 0.39688 0.0
C1288 C 0.6846 0.12328 0.382 0.0
C1289 C 0.70515 0.12338 0.38318 0.0
C1290 C 0.74499 0.15704 0.40011 0.0
C1291 C 0.7996 0.14538 0.38796 0.0
C1292 C 0.7779 0.14287 0.39459 0.0
C1293 C 0.71522 0.13616 0.41237 0.0
C1294 C 0.73685 0.13843 0.40832 0.0
H1295 H 0.84009 0.12107 0.34828 0.0
H1296 H 0.80445 0.11715 0.35544 0.0
H1297 H 0.77073 0.17374 0.38509 0.0
H1298 H 0.67564 0.1572 0.46425 0.0
H1299 H 0.7118 0.15785 0.46538 0.0
C1300 C 0.16259 0.32454 0.60819 0.0
C1301 C 0.14616 0.3363 0.61765 0.0
C1302 C 0.16113 0.30407 0.60947 0.0
C1303 C 0.13463 0.26396 0.66328 0.0
H1304 H 0.15722 0.23257 0.56718 0.0
C1305 C 0.1354 0.17775 0.66372 0.0
C1306 C 0.15212 0.16897 0.64455 0.0
C1307 C 0.13292 0.19825 0.66156 0.0
C1308 C 0.15105 0.24107 0.59467 0.0
H1309 H 0.11523 0.33594 0.63542 0.0
H1310 H 0.11277 0.29995 0.63852 0.0
H1311 H 0.15589 0.26812 0.55937 0.0
H1312 H 0.17985 0.1746 0.61092 0.0
H1313 H 0.17606 0.20998 0.60898 0.0
H1314 H 0.13046 0.2369 0.69937 0.0
C1315 C 0.12673 0.30666 0.62985 0.0
C1316 C 0.15019 0.26145 0.58995 0.0
C1317 C 0.1281 0.3272 0.62773 0.0
C1318 C 0.16671 0.18097 0.62551 0.0
C1319 C 0.1644 0.20129 0.62394 0.0
C1320 C 0.13572 0.24348 0.6683 0.0
C1321 C 0.14327 0.2949 0.62096 0.0
C1322 C 0.14229 0.27315 0.62447 0.0
C1323 C 0.14722 0.21021 0.64054 0.0
C1324 C 0.14436 0.23181 0.63441 0.0
H1325 H 0.17668 0.33119 0.60044 0.0
H1326 H 0.17415 0.29538 0.60275 0.0
H1327 H 0.12854 0.27267 0.69051 0.0
H1328 H 0.1239 0.16876 0.67838 0.0
H1329 H 0.11951 0.20461 0.67475 0.0
C1330 C 0.32607 0.87518 0.42363 0.0
C1331 C 0.33521 0.85752 0.41102 0.0
C1332 C 0.30566 0.87748 0.41885 0.0
C1333 C 0.2594 0.8486 0.39694 0.0
H1334 H 0.23816 0.89986 0.3673 0.0
C1335 C 0.17833 0.85993 0.34326 0.0
C1336 C 0.16821 0.87237 0.37306 0.0
C1337 C 0.19895 0.8593 0.34379 0.0
C1338 C 0.24395 0.88546 0.37539 0.0
H1339 H 0.33012 0.82839 0.38374 0.0
H1340 H 0.29506 0.83259 0.37354 0.0
H1341 H 0.27356 0.89605 0.37856 0.0
H1342 H 0.17146 0.89474 0.42456 0.0
H1343 H 0.20747 0.89427 0.42402 0.0
H1344 H 0.22974 0.83803 0.39235 0.0
C1345 C 0.30328 0.84455 0.38855 0.0
C1346 C 0.26422 0.88326 0.3824 0.0
C1347 C 0.32353 0.84215 0.39413 0.0
C1348 C 0.17898 0.88507 0.40116 0.0
C1349 C 0.19954 0.88481 0.40085 0.0
C1350 C 0.23924 0.85074 0.38894 0.0
C1351 C 0.29397 0.86226 0.40063 0.0
C1352 C 0.27228 0.86479 0.39351 0.0
C1353 C 0.20971 0.87149 0.37324 0.0
C1354 C 0.23131 0.86918 0.3783 0.0
H1355 H 0.33472 0.88726 0.43684 0.0
H1356 H 0.29911 0.8912 0.42947 0.0
H1357 H 0.26477 0.83422 0.40653 0.0
H1358 H 0.17033 0.84986 0.32163 0.0
H1359 H 0.20649 0.84893 0.3221 0.0
C1360 C 0.21269 0.10298 0.74399 0.0
C1361 C 0.19307 0.10364 0.75903 0.0
C1362 C 0.22826 0.10205 0.77518 0.0
C1363 C 0.24028 0.08943 0.89437 0.0
H1364 H 0.28409 0.12514 0.87765 0.0
C1365 C 0.29937 0.10235 0.0343 0.0
C1366 C 0.31879 0.10606 0.02031 0.0
C1367 C 0.28404 0.10114 1.00245 0.0
C1368 C 0.27217 0.1148 0.88267 0.0
H1369 H 0.17458 0.10314 0.81889 0.0
H1370 H 0.20152 0.10135 0.87265 0.0
H1371 H 0.25807 0.1238 0.82125 0.0
H1372 H 0.33725 0.11084 0.96143 0.0
H1373 H 0.31102 0.10809 0.90659 0.0
H1374 H 0.25443 0.08026 0.95558 0.0
C1375 C 0.20494 0.10158 0.83688 0.0
C1376 C 0.2572 0.11407 0.85017 0.0
C1377 C 0.18945 0.10274 0.80588 0.0
C1378 C 0.32251 0.10813 0.97374 0.0
C1379 C 0.30733 0.10671 0.94206 0.0
C1380 C 0.25537 0.09001 0.92672 0.0
C1381 C 0.22457 0.10146 0.82206 0.0
C1382 C 0.24101 0.10145 0.85565 0.0
C1383 C 0.28779 0.10345 0.9558 0.0
C1384 C 0.27155 0.10274 0.92145 0.0
H1385 H 0.21603 0.10368 0.70824 0.0
H1386 H 0.24322 0.10182 0.7626 0.0
H1387 H 0.2281 0.0794 0.89948 0.0
H1388 H 0.29594 0.10075 0.06987 0.0
H1389 H 0.26919 0.09881 1.01457 0.0
C1390 C 0.10913 0.70814 1.00297 0.0
C1391 C 0.11001 0.68867 0.01888 0.0
C1392 C 0.10838 0.72397 0.03353 0.0
C1393 C 0.12013 0.73693 0.1526 0.0
H1394 H 0.08443 0.78047 0.13358 0.0
C1395 C 0.10909 0.79788 0.28837 0.0
C1396 C 0.10708 0.81725 0.27246 0.0
C1397 C 0.10879 0.78194 0.25807 0.0
C1398 C 0.09468 0.76856 0.13927 0.0
H1399 H 0.11019 0.6708 0.07985 0.0
H1400 H 0.10911 0.69807 0.13217 0.0
H1401 H 0.08587 0.75395 0.07825 0.0
H1402 H 0.10255 0.8348 0.21194 0.0
H1403 H 0.10265 0.8075 0.15988 0.0
H1404 H 0.12918 0.75157 0.21323 0.0
C1405 C 0.10929 0.70122 0.09627 0.0
C1406 C 0.09549 0.75333 0.1074 0.0
C1407 C 0.10987 0.68551 0.06598 0.0
C1408 C 0.10439 0.82018 0.22571 0.0
C1409 C 0.10418 0.80439 0.19561 0.0
C1410 C 0.11943 0.75221 0.18432 0.0
C1411 C 0.10864 0.72068 0.08061 0.0
C1412 C 0.1082 0.73729 0.11367 0.0
C1413 C 0.10644 0.785 0.21115 0.0
C1414 C 0.1067 0.76828 0.17816 0.0
H1415 H 0.10917 0.71116 0.96702 0.0
H1416 H 0.10795 0.7388 0.02029 0.0
H1417 H 0.13028 0.72491 0.15828 0.0
H1418 H 0.11113 0.79504 0.32409 0.0
H1419 H 0.11032 0.76722 0.27147 0.0
C1420 C 0.70702 0.90592 0.03488 0.0
C1421 C 0.68781 0.90126 0.02076 0.0
C1422 C 0.7224 0.90739 1.00326 0.0
C1423 C 0.73245 0.91476 0.88075 0.0
H1424 H 0.78192 0.88894 0.90682 0.0
C1425 C 0.7932 0.90373 0.74364 0.0
C1426 C 0.81294 0.90407 0.75779 0.0
C1427 C 0.77784 0.90454 0.77549 0.0
C1428 C 0.76835 0.89655 0.89906 0.0
H1429 H 0.66982 0.89484 0.96187 0.0
H1430 H 0.69637 0.89759 0.90738 0.0
H1431 H 0.7559 0.88889 0.96331 0.0
H1432 H 0.83188 0.90652 0.8166 0.0
H1433 H 0.80548 0.90853 0.87126 0.0
H1434 H 0.74491 0.92257 0.81664 0.0
C1435 C 0.69961 0.90015 0.94274 0.0
C1436 C 0.75338 0.89648 0.93162 0.0
C1437 C 0.68436 0.89846 0.97423 0.0
C1438 C 0.81689 0.90591 0.80431 0.0
C1439 C 0.80165 0.90693 0.83592 0.0
C1440 C 0.7475 0.91499 0.84827 0.0
C1441 C 0.71888 0.90451 0.95675 0.0
C1442 C 0.73518 0.90548 0.92286 0.0
C1443 C 0.78186 0.90589 0.82223 0.0
C1444 C 0.76569 0.90583 0.85684 0.0
H1445 H 0.71023 0.90816 0.07037 0.0
H1446 H 0.73705 0.9109 1.0152 0.0
H1447 H 0.71869 0.92202 0.87299 0.0
H1448 H 0.7896 0.90224 0.70813 0.0
H1449 H 0.76283 0.90353 0.76346 0.0
C1450 C 0.89944 0.32127 0.05886 0.0
C1451 C 0.90055 0.31753 1.01214 0.0
C1452 C 0.90112 0.30607 0.09042 0.0
C1453 C 0.9162 0.25339 0.10375 0.0
H1454 H 0.88567 0.25764 0.21409 0.0
C1455 C 0.90283 0.18807 0.22607 0.0
C1456 C 0.90426 0.19152 0.27291 0.0
C1457 C 0.90385 0.20355 0.19502 0.0
C1458 C 0.89448 0.25632 0.18374 0.0
H1459 H 0.90446 0.29465 0.96214 0.0
H1460 H 0.9067 0.26785 0.01719 0.0
H1461 H 0.88402 0.2837 0.1579 0.0
H1462 H 0.90801 0.21418 0.32361 0.0
H1463 H 0.90941 0.24142 0.26917 0.0
H1464 H 0.92602 0.22554 0.12934 0.0
C1465 C 0.905 0.28271 0.02958 0.0
C1466 C 0.8936 0.27134 0.15134 0.0
C1467 C 0.90361 0.29808 0.99784 0.0
C1468 C 0.90691 0.21097 0.28785 0.0
C1469 C 0.9076 0.22657 0.25666 0.0
C1470 C 0.91686 0.23823 0.13594 0.0
C1471 C 0.90362 0.28647 0.07646 0.0
C1472 C 0.90449 0.27018 0.11081 0.0
C1473 C 0.90604 0.22303 0.20983 0.0
C1474 C 0.90601 0.23951 0.17638 0.0
H1475 H 0.89732 0.33606 0.07135 0.0
H1476 H 0.90054 0.30982 0.12595 0.0
H1477 H 0.92509 0.25198 0.07357 0.0
H1478 H 0.90081 0.17332 0.21315 0.0
H1479 H 0.90239 0.20028 0.15934 0.0
C1480 C 0.29286 0.40451 0.24374 0.0
C1481 C 0.31238 0.40259 0.25888 0.0
C1482 C 0.27726 0.40565 0.27485 0.0
C1483 C 0.266 0.41653 0.39553 0.0
H1484 H 0.21964 0.38465 0.37476 0.0
C1485 C 0.20693 0.40333 0.53505 0.0
C1486 C 0.18722 0.40153 0.52131 0.0
C1487 C 0.22209 0.40457 0.50283 0.0
C1488 C 0.23232 0.39391 0.38095 0.0
H1489 H 0.33066 0.40083 0.31902 0.0
H1490 H 0.30375 0.40288 0.37251 0.0
H1491 H 0.24566 0.38547 0.31822 0.0
H1492 H 0.16799 0.40063 0.46279 0.0
H1493 H 0.19408 0.40316 0.40724 0.0
H1494 H 0.25268 0.42503 0.45818 0.0
C1495 C 0.3004 0.40358 0.33674 0.0
C1496 C 0.24728 0.39436 0.34837 0.0
C1497 C 0.31588 0.40227 0.30583 0.0
C1498 C 0.18301 0.40159 0.47473 0.0
C1499 C 0.19806 0.40297 0.44268 0.0
C1500 C 0.25098 0.41618 0.42802 0.0
C1501 C 0.28085 0.40512 0.3218 0.0
C1502 C 0.26439 0.40556 0.35532 0.0
C1503 C 0.21787 0.4042 0.4561 0.0
C1504 C 0.23393 0.40479 0.42134 0.0
H1505 H 0.28958 0.40478 0.20791 0.0
H1506 H 0.26238 0.40698 0.26215 0.0
H1507 H 0.27887 0.42551 0.40182 0.0
H1508 H 0.2107 0.40327 0.57063 0.0
H1509 H 0.23715 0.40532 0.51462 0.0
C1510 C 0.40476 0.7103 0.79029 0.0
C1511 C 0.40242 0.69082 0.77543 0.0
C1512 C 0.40565 0.72585 0.759 0.0
C1513 C 0.41519 0.73705 0.63766 0.0
H1514 H 0.38413 0.78366 0.66073 0.0
C1515 C 0.40188 0.79687 0.4997 0.0
C1516 C 0.40023 0.81651 0.51391 0.0
C1517 C 0.40315 0.78157 0.53157 0.0
C1518 C 0.39317 0.77093 0.65386 0.0
H1519 H 0.39994 0.67244 0.71574 0.0
H1520 H 0.40147 0.69931 0.66175 0.0
H1521 H 0.38521 0.75754 0.7169 0.0
H1522 H 0.39965 0.83544 0.57289 0.0
H1523 H 0.40231 0.80913 0.62779 0.0
H1524 H 0.42327 0.75045 0.57475 0.0
C1525 C 0.4026 0.70269 0.69744 0.0
C1526 C 0.39376 0.75589 0.68624 0.0
C1527 C 0.40153 0.68725 0.72858 0.0
C1528 C 0.40048 0.82048 0.5606 0.0
C1529 C 0.40193 0.80529 0.59228 0.0
C1530 C 0.41473 0.75217 0.60537 0.0
C1531 C 0.40449 0.72224 0.71213 0.0
C1532 C 0.40468 0.73869 0.67852 0.0
C1533 C 0.403 0.78555 0.57842 0.0
C1534 C 0.40366 0.76934 0.61287 0.0
H1535 H 0.40551 0.71359 0.82607 0.0
H1536 H 0.4073 0.74071 0.77152 0.0
H1537 H 0.42394 0.72411 0.63074 0.0
H1538 H 0.40168 0.79328 0.46404 0.0
H1539 H 0.40377 0.76658 0.5194 0.0
C1540 C 0.68966 0.60376 0.30389 0.0
C1541 C 0.69309 0.60421 0.25693 0.0
C1542 C 0.70525 0.60264 0.33464 0.0
C1543 C 0.75785 0.61419 0.34656 0.0
H1544 H 0.75451 0.58149 0.45372 0.0
C1545 C 0.82311 0.60825 0.47064 0.0
C1546 C 0.81929 0.60678 0.5173 0.0
C1547 C 0.80793 0.60678 0.43893 0.0
C1548 C 0.75562 0.59093 0.42435 0.0
H1549 H 0.71588 0.60356 0.20573 0.0
H1550 H 0.74324 0.60175 0.25965 0.0
H1551 H 0.72809 0.58066 0.39788 0.0
H1552 H 0.79629 0.60241 0.56697 0.0
H1553 H 0.76958 0.60035 0.51163 0.0
H1554 H 0.78505 0.62491 0.37326 0.0
C1555 C 0.72834 0.6023 0.27251 0.0
C1556 C 0.74047 0.59037 0.39214 0.0
C1557 C 0.71265 0.60321 0.24157 0.0
C1558 C 0.79979 0.60355 0.53135 0.0
C1559 C 0.78448 0.60227 0.49947 0.0
C1560 C 0.77291 0.61489 0.3789 0.0
C1561 C 0.72482 0.60211 0.31949 0.0
C1562 C 0.74137 0.60201 0.35282 0.0
C1563 C 0.78831 0.60402 0.45272 0.0
C1564 C 0.77207 0.60326 0.41835 0.0
H1565 H 0.67485 0.60446 0.31719 0.0
H1566 H 0.70195 0.60273 0.37046 0.0
H1567 H 0.75889 0.62362 0.31714 0.0
H1568 H 0.83793 0.61053 0.45832 0.0
H1569 H 0.81168 0.60771 0.40342 0.0
C1570 C 0.62473 0.18933 0.55301 0.0
C1571 C 0.61523 0.1907 0.51087 0.0
C1572 C 0.62378 0.20467 0.58431 0.0
C1573 C 0.6108 0.25782 0.59666 0.0
H1574 H 0.61205 0.24447 0.72409 0.0
C1575 C 0.62152 0.31783 0.73174 0.0
C1576 C 0.61241 0.31593 0.77421 0.0
C1577 C 0.62128 0.30242 0.70056 0.0
C1578 C 0.61142 0.24856 0.68876 0.0
H1579 H 0.59744 0.20952 0.46842 0.0
H1580 H 0.59521 0.23625 0.52363 0.0
H1581 H 0.61178 0.2185 0.66793 0.0
H1582 H 0.5961 0.29611 0.81744 0.0
H1583 H 0.59508 0.26921 0.76241 0.0
H1584 H 0.60947 0.28785 0.6175 0.0
C1585 C 0.6038 0.22339 0.53224 0.0
C1586 C 0.61162 0.23357 0.65624 0.0
C1587 C 0.60501 0.20805 0.50046 0.0
C1588 C 0.60333 0.29799 0.7851 0.0
C1589 C 0.60281 0.28256 0.75344 0.0
C1590 C 0.61032 0.2728 0.62918 0.0
C1591 C 0.61303 0.22185 0.57492 0.0
C1592 C 0.61165 0.23794 0.6096 0.0
C1593 C 0.61163 0.28462 0.71041 0.0
C1594 C 0.61096 0.26846 0.67581 0.0
H1595 H 0.63303 0.17631 0.56193 0.0
H1596 H 0.63165 0.203 0.61589 0.0
H1597 H 0.61092 0.26195 0.56132 0.0
H1598 H 0.62898 0.33132 0.72247 0.0
H1599 H 0.62882 0.30453 0.6687 0.0
C1600 C 0.35624 0.08976 0.44644 0.0
C1601 C 0.35623 0.10657 0.41871 0.0
C1602 C 0.35954 0.09132 0.49304 0.0
C1603 C 0.37995 0.12479 0.58075 0.0
H1604 H 0.34966 0.09218 0.66275 0.0
C1605 C 0.38148 0.13647 0.77463 0.0
C1606 C 0.38209 0.11964 0.80228 0.0
C1607 C 0.37821 0.13486 0.72803 0.0
C1608 C 0.3584 0.10126 0.64034 0.0
H1609 H 0.35959 0.13825 0.41868 0.0
H1610 H 0.36527 0.14099 0.49983 0.0
H1611 H 0.34439 0.08944 0.58147 0.0
H1612 H 0.37978 0.08784 0.80203 0.0
H1613 H 0.37398 0.08505 0.72092 0.0
H1614 H 0.39389 0.13666 0.63968 0.0
C1615 C 0.36303 0.12653 0.48546 0.0
C1616 C 0.3554 0.09967 0.59363 0.0
C1617 C 0.35977 0.12496 0.43883 0.0
C1618 C 0.37913 0.10116 0.78203 0.0
C1619 C 0.37582 0.09955 0.73542 0.0
C1620 C 0.38292 0.1264 0.62746 0.0
C1621 C 0.3629 0.10973 0.51328 0.0
C1622 C 0.36613 0.11141 0.56314 0.0
C1623 C 0.37541 0.11637 0.70774 0.0
C1624 C 0.37219 0.11466 0.65792 0.0
H1625 H 0.35389 0.07531 0.43206 0.0
H1626 H 0.35969 0.07801 0.51313 0.0
H1627 H 0.38873 0.13385 0.55839 0.0
H1628 H 0.38333 0.15098 0.78904 0.0
H1629 H 0.37765 0.14816 0.70796 0.0
C1630 C 0.12464 0.64198 0.60812 0.0
C1631 C 0.11379 0.65804 0.62478 0.0
C1632 C 0.12661 0.63882 0.56154 0.0
C1633 C 0.12303 0.66354 0.44999 0.0
H1634 H 0.11798 0.61036 0.40458 0.0
C1635 C 0.11853 0.64578 0.25775 0.0
C1636 C 0.12745 0.62837 0.24234 0.0
C1637 C 0.11736 0.64994 0.30414 0.0
C1638 C 0.11973 0.62528 0.4166 0.0
H1639 H 0.09649 0.68336 0.60463 0.0
H1640 H 0.10014 0.67797 0.52354 0.0
H1641 H 0.11508 0.61654 0.48534 0.0
H1642 H 0.1429 0.60214 0.26389 0.0
H1643 H 0.1411 0.60944 0.34435 0.0
H1644 H 0.1278 0.67227 0.38121 0.0
C1645 C 0.10726 0.66789 0.54667 0.0
C1646 C 0.11802 0.62883 0.46306 0.0
C1647 C 0.1052 0.671 0.59331 0.0
C1648 C 0.1356 0.6155 0.2745 0.0
C1649 C 0.13451 0.61969 0.32078 0.0
C1650 C 0.12483 0.65998 0.40345 0.0
C1651 C 0.11788 0.65167 0.53014 0.0
C1652 C 0.11968 0.648 0.48046 0.0
C1653 C 0.12516 0.63684 0.33639 0.0
C1654 C 0.12325 0.64078 0.38605 0.0
H1655 H 0.13184 0.63188 0.63107 0.0
H1656 H 0.13518 0.62637 0.55011 0.0
H1657 H 0.12462 0.67846 0.46219 0.0
H1658 H 0.11189 0.65593 0.23403 0.0
H1659 H 0.10984 0.66318 0.31472 0.0
C1660 C 0.64998 0.91663 0.44677 0.0
C1661 C 0.65116 0.89979 0.41932 0.0
C1662 C 0.64678 0.91497 0.49337 0.0
C1663 C 0.62857 0.88046 0.58147 0.0
H1664 H 0.65646 0.91527 0.66313 0.0
C1665 C 0.627 0.86946 0.77551 0.0
C1666 C 0.62532 0.88632 0.80276 0.0
C1667 C 0.63037 0.8711 0.72897 0.0
C1668 C 0.64838 0.90557 0.64082 0.0
H1669 H 0.65001 0.86795 0.41977 0.0
H1670 H 0.64452 0.86504 0.50099 0.0
H1671 H 0.66171 0.91808 0.58186 0.0
H1672 H 0.62586 0.91819 0.80194 0.0
H1673 H 0.63176 0.92104 0.72086 0.0
H1674 H 0.61528 0.86792 0.64045 0.0
C1675 C 0.64575 0.87958 0.48638 0.0
C1676 C 0.65139 0.90718 0.59411 0.0
C1677 C 0.64891 0.88124 0.43972 0.0
C1678 C 0.62733 0.90487 0.7822 0.0
C1679 C 0.63072 0.90651 0.73563 0.0
C1680 C 0.62559 0.87883 0.62817 0.0
C1681 C 0.6447 0.89642 0.5139 0.0
C1682 C 0.64151 0.89466 0.56375 0.0
C1683 C 0.63219 0.88964 0.70832 0.0
C1684 C 0.63545 0.89136 0.65851 0.0
H1685 H 0.65132 0.93116 0.43214 0.0
H1686 H 0.64569 0.92828 0.51324 0.0
H1687 H 0.62046 0.87077 0.55919 0.0
H1688 H 0.6259 0.85493 0.79023 0.0
H1689 H 0.63178 0.85778 0.70922 0.0
C1690 C 0.88843 0.36184 0.24822 0.0
C1691 C 0.88444 0.38078 0.23147 0.0
C1692 C 0.89021 0.3585 0.29479 0.0
C1693 C 0.89993 0.38404 0.40334 0.0
H1694 H 0.87644 0.33754 0.45657 0.0
C1695 C 0.89556 0.37299 0.59729 0.0
C1696 C 0.899 0.35399 0.61432 0.0
C1697 C 0.89362 0.37623 0.55072 0.0
C1698 C 0.8833 0.35049 0.44225 0.0
H1699 H 0.87955 0.41112 0.25088 0.0
H1700 H 0.88238 0.40526 0.33191 0.0
H1701 H 0.87369 0.34311 0.37538 0.0
H1702 H 0.90269 0.32343 0.59526 0.0
H1703 H 0.89978 0.32912 0.51427 0.0
H1704 H 0.90962 0.3914 0.47009 0.0
C1705 C 0.88425 0.39298 0.30905 0.0
C1706 C 0.88171 0.35369 0.39561 0.0
C1707 C 0.8824 0.3963 0.26253 0.0
C1708 C 0.9003 0.3383 0.58346 0.0
C1709 C 0.89838 0.34154 0.53692 0.0
C1710 C 0.90155 0.38083 0.44995 0.0
C1711 C 0.88815 0.37404 0.32584 0.0
C1712 C 0.88998 0.37052 0.37551 0.0
C1713 C 0.89506 0.36055 0.51985 0.0
C1714 C 0.89325 0.36402 0.47011 0.0
H1715 H 0.88993 0.34951 0.22535 0.0
H1716 H 0.8934 0.34376 0.30645 0.0
H1717 H 0.90674 0.39701 0.38898 0.0
H1718 H 0.89465 0.38547 0.6199 0.0
H1719 H 0.89084 0.39104 0.53895 0.0
C1720 C 0.38826 0.38233 0.51302 0.0
C1721 C 0.37321 0.38554 0.4812 0.0
C1722 C 0.38477 0.38477 0.55933 0.0
C1723 C 0.34474 0.38687 0.64456 0.0
H1724 H 0.38483 0.41122 0.71914 0.0
C1725 C 0.33091 0.40801 0.83202 0.0
C1726 C 0.34631 0.40488 0.86301 0.0
C1727 C 0.33396 0.40565 0.78548 0.0
C1728 C 0.37356 0.40417 0.69897 0.0
H1729 H 0.34254 0.39366 0.47362 0.0
H1730 H 0.33654 0.3982 0.5543 0.0
H1731 H 0.39051 0.40719 0.63836 0.0
H1732 H 0.37711 0.39696 0.86883 0.0
H1733 H 0.38231 0.39247 0.78802 0.0
H1734 H 0.3278 0.38383 0.70525 0.0
C1735 C 0.35103 0.39362 0.54342 0.0
C1736 C 0.37682 0.40186 0.65254 0.0
C1737 C 0.35454 0.39123 0.49704 0.0
C1738 C 0.36483 0.39928 0.84613 0.0
C1739 C 0.36789 0.39695 0.79962 0.0
C1740 C 0.34148 0.38917 0.69105 0.0
C1741 C 0.36612 0.39047 0.57521 0.0
C1742 C 0.36249 0.39313 0.62467 0.0
C1743 C 0.35251 0.40014 0.76861 0.0
C1744 C 0.35587 0.39781 0.71894 0.0
H1745 H 0.40288 0.37817 0.50214 0.0
H1746 H 0.39669 0.38198 0.58275 0.0
H1747 H 0.33348 0.37982 0.62434 0.0
H1748 H 0.3164 0.41213 0.84374 0.0
H1749 H 0.32181 0.40841 0.76267 0.0
C1750 C 0.39381 0.63667 0.18999 0.0
C1751 C 0.40244 0.65407 0.17352 0.0
C1752 C 0.39202 0.63338 0.23655 0.0
C1753 C 0.39146 0.65929 0.34679 0.0
H1754 H 0.40173 0.60745 0.39573 0.0
C1755 C 0.39596 0.6445 0.53954 0.0
C1756 C 0.38766 0.62692 0.55584 0.0
C1757 C 0.39769 0.6479 0.493 0.0
C1758 C 0.39857 0.62197 0.38261 0.0
H1759 H 0.41632 0.68144 0.19355 0.0
H1760 H 0.41313 0.67572 0.27453 0.0
H1761 H 0.40485 0.61311 0.31466 0.0
H1762 H 0.37425 0.59935 0.53561 0.0
H1763 H 0.37725 0.60528 0.45469 0.0
H1764 H 0.38514 0.66815 0.41472 0.0
C1765 C 0.40745 0.66475 0.25142 0.0
C1766 C 0.40037 0.62522 0.33606 0.0
C1767 C 0.40928 0.66804 0.2049 0.0
C1768 C 0.38104 0.6129 0.52435 0.0
C1769 C 0.38277 0.61631 0.47786 0.0
C1770 C 0.38964 0.65604 0.39335 0.0
C1771 C 0.39879 0.64739 0.26789 0.0
C1772 C 0.39684 0.64392 0.31751 0.0
C1773 C 0.39117 0.63382 0.46153 0.0
C1774 C 0.39316 0.63733 0.4119 0.0
H1775 H 0.38811 0.62572 0.1669 0.0
H1776 H 0.38502 0.61996 0.24798 0.0
H1777 H 0.38833 0.67381 0.33364 0.0
H1778 H 0.40147 0.6555 0.56276 0.0
H1779 H 0.40449 0.66144 0.48171 0.0
C1780 C 0.65999 0.62098 0.84168 0.0
C1781 C 0.66026 0.60207 0.86095 0.0
C1782 C 0.65717 0.62351 0.79512 0.0
C1783 C 0.6599 0.59697 0.68542 0.0
H1784 H 0.62688 0.63954 0.64281 0.0
C1785 C 0.63443 0.60296 0.49892 0.0
C1786 C 0.63384 0.62176 0.4791 0.0
C1787 C 0.63809 0.60069 0.54523 0.0
C1788 C 0.63634 0.62771 0.65404 0.0
H1789 H 0.65747 0.57099 0.84596 0.0
H1790 H 0.65256 0.57539 0.76499 0.0
H1791 H 0.63241 0.63537 0.72367 0.0
H1792 H 0.63712 0.65291 0.49279 0.0
H1793 H 0.64345 0.64895 0.57342 0.0
H1794 H 0.66376 0.58927 0.61577 0.0
C1795 C 0.65486 0.58829 0.78576 0.0
C1796 C 0.63952 0.62532 0.70051 0.0
C1797 C 0.65769 0.58576 0.83231 0.0
C1798 C 0.63713 0.63822 0.5069 0.0
C1799 C 0.64077 0.63595 0.55323 0.0
C1800 C 0.65671 0.59935 0.63895 0.0
C1801 C 0.65453 0.6072 0.7665 0.0
C1802 C 0.65132 0.60989 0.71688 0.0
C1803 C 0.64125 0.61716 0.57307 0.0
C1804 C 0.64485 0.61474 0.62261 0.0
H1805 H 0.66222 0.63387 0.86252 0.0
H1806 H 0.65732 0.63828 0.78147 0.0
H1807 H 0.66933 0.58511 0.69664 0.0
H1808 H 0.63165 0.58995 0.47883 0.0
H1809 H 0.63805 0.58601 0.55938 0.0
C1810 C 0.62929 0.35915 0.53184 0.0
C1811 C 0.62403 0.37778 0.54857 0.0
C1812 C 0.62873 0.35521 0.48533 0.0
C1813 C 0.60611 0.37287 0.37861 0.0
H1814 H 0.64693 0.34194 0.32124 0.0
C1815 C 0.61133 0.36544 0.18426 0.0
C1816 C 0.61642 0.347 0.16623 0.0
C1817 C 0.61247 0.36896 0.23082 0.0
C1818 C 0.63527 0.35041 0.33678 0.0
H1819 H 0.61394 0.40681 0.52906 0.0
H1820 H 0.61336 0.40007 0.44827 0.0
H1821 H 0.64862 0.34844 0.40229 0.0
H1822 H 0.62699 0.31788 0.1835 0.0
H1823 H 0.62862 0.3239 0.26471 0.0
H1824 H 0.59272 0.37482 0.31327 0.0
C1825 C 0.61775 0.38843 0.47109 0.0
C1826 C 0.63625 0.35415 0.38333 0.0
C1827 C 0.61835 0.39238 0.5175 0.0
C1828 C 0.62276 0.3322 0.19613 0.0
C1829 C 0.62392 0.33573 0.24273 0.0
C1830 C 0.60512 0.36912 0.33214 0.0
C1831 C 0.62282 0.36976 0.45435 0.0
C1832 C 0.62172 0.36551 0.40485 0.0
C1833 C 0.61873 0.35415 0.26075 0.0
C1834 C 0.61972 0.35791 0.3105 0.0
H1835 H 0.63388 0.3476 0.55468 0.0
H1836 H 0.63259 0.34062 0.47375 0.0
H1837 H 0.59445 0.38135 0.39411 0.0
H1838 H 0.60617 0.37714 0.16246 0.0
H1839 H 0.60858 0.3834 0.2433 0.0
C1840 C 0.85759 0.62657 0.93676 0.0
C1841 C 0.85649 0.60804 0.91586 0.0
C1842 C 0.8607 0.62817 0.98344 0.0
C1843 C 0.85688 0.59969 0.09041 0.0
H1844 H 0.89039 0.64094 0.13782 0.0
C1845 C 0.88067 0.60252 0.2786 0.0
C1846 C 0.88159 0.62104 0.29963 0.0
C1847 C 0.87738 0.60094 0.23199 0.0
C1848 C 0.8808 0.62946 0.12525 0.0
H1849 H 0.85833 0.57666 0.92779 0.0
H1850 H 0.86388 0.57943 1.00897 0.0
H1851 H 0.88541 0.63818 0.05649 0.0
H1852 H 0.87919 0.65241 0.28793 0.0
H1853 H 0.87343 0.64966 0.20684 0.0
H1854 H 0.85232 0.59095 0.1592 0.0
C1855 C 0.86193 0.59275 0.98946 0.0
C1856 C 0.87793 0.62788 0.0785 0.0
C1857 C 0.85877 0.59116 0.94282 0.0
C1858 C 0.87892 0.63792 0.27283 0.0
C1859 C 0.87563 0.63634 0.22624 0.0
C1860 C 0.85976 0.60126 0.13716 0.0
C1861 C 0.86285 0.61128 1.01049 0.0
C1862 C 0.86593 0.61297 0.06039 0.0
C1863 C 0.87491 0.61783 0.20511 0.0
C1864 C 0.87176 0.61617 0.15525 0.0
H1865 H 0.85562 0.63988 0.91719 0.0
H1866 H 0.86101 0.64268 0.99845 0.0
H1867 H 0.84727 0.58822 0.07786 0.0
H1868 H 0.88293 0.58921 0.298 0.0
H1869 H 0.8772 0.58645 0.21686 0.0
C1870 C 0.6335 0.14871 0.75292 0.0
C1871 C 0.62944 0.12978 0.73613 0.0
C1872 C 0.6325 0.15265 0.7994 0.0
C1873 C 0.61054 0.13366 0.90577 0.0
H1874 H 0.64916 0.16714 0.96388 0.0
C1875 C 0.61464 0.14139 0.10028 0.0
C1876 C 0.61861 0.16009 0.11846 0.0
C1877 C 0.6161 0.13798 0.05372 0.0
C1878 C 0.6381 0.15794 0.94814 0.0
H1879 H 0.621 0.1002 0.75556 0.0
H1880 H 0.61964 0.10695 0.8363 0.0
H1881 H 0.65155 0.16074 0.88289 0.0
H1882 H 0.6275 0.18981 0.10141 0.0
H1883 H 0.62968 0.18395 0.0202 0.0
H1884 H 0.59706 0.13088 0.97085 0.0
C1885 C 0.62344 0.11883 0.81353 0.0
C1886 C 0.63948 0.15426 0.90161 0.0
C1887 C 0.62448 0.11489 0.76716 0.0
C1888 C 0.62414 0.17527 0.08868 0.0
C1889 C 0.62562 0.17185 0.04207 0.0
C1890 C 0.60915 0.13736 0.95222 0.0
C1891 C 0.62732 0.13778 0.83033 0.0
C1892 C 0.62576 0.14199 0.87981 0.0
C1893 C 0.62157 0.15316 0.02391 0.0
C1894 C 0.62295 0.14948 0.97415 0.0
H1895 H 0.63751 0.16051 0.73013 0.0
H1896 H 0.63544 0.16745 0.811 0.0
H1897 H 0.59948 0.12445 0.89007 0.0
H1898 H 0.61013 0.12939 0.12198 0.0
H1899 H 0.6131 0.12334 0.04116 0.0
C1900 C 0.11564 0.40239 0.27841 0.0
C1901 C 0.12409 0.38716 0.30407 0.0
C1902 C 0.11908 0.4038 0.23184 0.0
C1903 C 0.13498 0.37427 0.13293 0.0
H1904 H 0.14271 0.42521 0.0769 0.0
C1905 C 0.16014 0.38283 0.94685 0.0
C1906 C 0.15137 0.39777 0.92089 0.0
C1907 C 0.15666 0.3815 0.9934 0.0
C1908 C 0.14035 0.41088 0.09189 0.0
H1909 H 0.14281 0.36142 0.30041 0.0
H1910 H 0.14911 0.36408 0.2195 0.0
H1911 H 0.13724 0.42308 0.15824 0.0
H1912 H 0.13208 0.42309 0.92387 0.0
H1913 H 0.12582 0.42063 1.00494 0.0
H1914 H 0.13815 0.36207 0.06658 0.0
C1915 C 0.13962 0.37484 0.23531 0.0
C1916 C 0.13722 0.40965 0.13861 0.0
C1917 C 0.1362 0.37345 0.2819 0.0
C1918 C 0.13895 0.4113 0.94271 0.0
C1919 C 0.13553 0.41002 0.98932 0.0
C1920 C 0.13815 0.3755 0.08623 0.0
C1921 C 0.13105 0.39 0.20959 0.0
C1922 C 0.13449 0.39132 0.15979 0.0
C1923 C 0.14437 0.39511 1.01532 0.0
C1924 C 0.14088 0.39382 0.06507 0.0
H1925 H 0.10642 0.41335 0.29436 0.0
H1926 H 0.11208 0.41556 0.21315 0.0
H1927 H 0.1326 0.35993 0.14786 0.0
H1928 H 0.16963 0.37204 0.93113 0.0
H1929 H 0.16386 0.36994 1.01236 0.0
C1930 C 0.40619 0.83861 0.08381 0.0
C1931 C 0.39904 0.85251 0.11494 0.0
C1932 C 0.40474 0.84194 0.03724 0.0
C1933 C 0.39805 0.88156 0.95261 0.0
H1934 H 0.38372 0.83862 0.87299 0.0
C1935 C 0.37903 0.89396 0.76421 0.0
C1936 C 0.38593 0.88013 0.73263 0.0
C1937 C 0.38081 0.89051 0.81067 0.0
C1938 C 0.38796 0.85072 0.89465 0.0
H1939 H 0.38453 0.88075 0.12111 0.0
H1940 H 0.38203 0.88656 0.03996 0.0
H1941 H 0.38645 0.83282 0.95411 0.0
H1942 H 0.40033 0.85187 0.72551 0.0
H1943 H 0.4034 0.84586 0.80652 0.0
H1944 H 0.39956 0.89947 0.89318 0.0
C1945 C 0.38902 0.87319 0.05161 0.0
C1946 C 0.38953 0.8474 0.94122 0.0
C1947 C 0.39045 0.86985 0.09821 0.0
C1948 C 0.3946 0.86272 0.7488 0.0
C1949 C 0.39636 0.85927 0.79531 0.0
C1950 C 0.39649 0.88488 0.90605 0.0
C1951 C 0.39613 0.85926 0.0205 0.0
C1952 C 0.39456 0.86278 0.97084 0.0
C1953 C 0.38951 0.87314 0.82686 0.0
C1954 C 0.39139 0.86952 0.87644 0.0
H1955 H 0.4132 0.82525 0.09542 0.0
H1956 H 0.41066 0.83104 1.01433 0.0
H1957 H 0.40227 0.89367 0.97428 0.0
H1958 H 0.37197 0.90737 0.75306 0.0
H1959 H 0.37505 0.90137 0.83392 0.0
C1960 C 0.8491 0.92325 0.33263 0.0
C1961 C 0.84599 0.90695 0.36106 0.0
C1962 C 0.85204 0.92076 0.2861 0.0
C1963 C 0.86662 0.88347 0.20061 0.0
H1964 H 0.84378 0.92042 0.11576 0.0
C1965 C 0.86896 0.87061 1.00695 0.0
C1966 C 0.87269 0.88696 0.97904 0.0
C1967 C 0.86538 0.873 0.05328 0.0
C1968 C 0.85046 0.91007 0.13897 0.0
H1969 H 0.84319 0.8752 0.36218 0.0
H1970 H 0.84828 0.87087 0.28121 0.0
H1971 H 0.83815 0.92462 0.19658 0.0
H1972 H 0.87572 0.9187 0.97865 0.0
H1973 H 0.86943 0.92284 0.0592 0.0
H1974 H 0.87893 0.86893 0.143 0.0
C1975 C 0.84878 0.8856 0.29501 0.0
C1976 C 0.84722 0.91249 0.18543 0.0
C1977 C 0.84584 0.88808 0.34156 0.0
C1978 C 0.8726 0.90578 0.9988 0.0
C1979 C 0.869 0.90816 0.04513 0.0
C1980 C 0.86984 0.88105 0.15416 0.0
C1981 C 0.85196 0.9019 0.2666 0.0
C1982 C 0.85528 0.89924 0.21695 0.0
C1983 C 0.8654 0.8918 0.07308 0.0
C1984 C 0.86182 0.89432 0.12265 0.0
H1985 H 0.84965 0.93797 0.34645 0.0
H1986 H 0.85476 0.93365 0.26553 0.0
H1987 H 0.87334 0.87315 0.22379 0.0
H1988 H 0.86857 0.85593 0.99292 0.0
H1989 H 0.86234 0.86008 0.0735 0.0
C1990 C 0.88873 0.11198 0.0221 0.0
C1991 C 0.89022 0.12761 0.05305 0.0
C1992 C 0.89061 0.11528 0.97558 0.0
C1993 C 0.88727 0.15437 0.88862 0.0
H1994 H 0.91623 0.11726 0.81483 0.0
C1995 C 0.90596 0.16992 0.70091 0.0
C1996 C 0.90495 0.15417 0.67015 0.0
C1997 C 0.90406 0.1667 0.74746 0.0
C1998 C 0.90787 0.12766 0.83478 0.0
H1999 H 0.89477 0.15905 0.05893 0.0
H2000 H 0.89832 0.16476 0.97785 0.0
H2001 H 0.9133 0.11171 0.89597 0.0
H2002 H 0.90119 0.12261 0.66474 0.0
H2003 H 0.89745 0.11706 0.74574 0.0
H2004 H 0.88178 0.17028 0.82744 0.0
C2005 C 0.89552 0.14995 0.98959 0.0
C2006 C 0.90621 0.12448 0.88141 0.0
C2007 C 0.8937 0.14664 0.03617 0.0
C2008 C 0.90187 0.13512 0.68729 0.0
C2009 C 0.89997 0.1319 0.73387 0.0
C2010 C 0.8889 0.15753 0.84197 0.0
C2011 C 0.894 0.1343 0.95866 0.0
C2012 C 0.89588 0.13778 0.90898 0.0
C2013 C 0.90108 0.14765 0.76464 0.0
C2014 C 0.89923 0.14422 0.81438 0.0
H2015 H 0.88629 0.0971 0.03383 0.0
H2016 H 0.88916 0.1029 0.95281 0.0
H2017 H 0.87894 0.16477 0.90862 0.0
H2018 H 0.90806 0.18483 0.68902 0.0
H2019 H 0.9052 0.17917 0.77004 0.0
C2020 C 0.11811 0.12583 1.01283 0.0
C2021 C 0.13303 0.12219 0.98094 0.0
C2022 C 0.12159 0.12335 0.05913 0.0
C2023 C 0.16164 0.12024 0.14423 0.0
H2024 H 0.12098 0.09697 0.21904 0.0
C2025 C 0.17503 0.09882 0.33182 0.0
C2026 C 0.15972 0.10235 0.36281 0.0
C2027 C 0.17202 0.10125 0.28527 0.0
C2028 C 0.13242 0.10371 0.19881 0.0
H2029 H 0.16347 0.11328 0.97325 0.0
H2030 H 0.16946 0.10867 0.05395 0.0
H2031 H 0.11535 0.10112 0.13828 0.0
H2032 H 0.12914 0.11106 0.36862 0.0
H2033 H 0.12403 0.11566 0.28781 0.0
H2034 H 0.1787 0.12285 0.20487 0.0
C2035 C 0.15507 0.11361 0.04311 0.0
C2036 C 0.12919 0.10609 0.15238 0.0
C2037 C 0.15157 0.11605 0.99673 0.0
C2038 C 0.14135 0.10841 0.34592 0.0
C2039 C 0.13834 0.11082 0.29941 0.0
C2040 C 0.16487 0.11787 0.19072 0.0
C2041 C 0.14011 0.11718 0.07496 0.0
C2042 C 0.14372 0.11444 0.12443 0.0
C2043 C 0.15361 0.10723 0.26839 0.0
C2044 C 0.15028 0.10962 0.21871 0.0
H2045 H 0.10358 0.13035 1.002 0.0
H2046 H 0.10978 0.12646 0.0826 0.0
H2047 H 0.17306 0.12697 0.12395 0.0
H2048 H 0.18943 0.09433 0.34353 0.0
H2049 H 0.18408 0.09817 0.26245 0.0
C2050 C 0.1025 0.83643 0.69648 0.0
C2051 C 0.11353 0.84759 0.66537 0.0
C2052 C 0.10438 0.83955 0.74312 0.0
C2053 C 0.11984 0.87701 0.82636 0.0
H2054 H 0.12172 0.83314 0.90992 0.0
C2055 C 0.13539 0.88885 0.01646 0.0
C2056 C 0.12492 0.87732 0.04776 0.0
C2057 C 0.13467 0.88465 0.97016 0.0
C2058 C 0.12098 0.8456 0.88718 0.0
H2059 H 0.13565 0.87048 0.65968 0.0
H2060 H 0.1387 0.87606 0.74074 0.0
H2061 H 0.11899 0.82697 0.82888 0.0
H2062 H 0.10553 0.85219 0.05465 0.0
H2063 H 0.10406 0.84497 0.97395 0.0
H2064 H 0.1215 0.89568 0.88439 0.0
C2065 C 0.1284 0.86504 0.72896 0.0
C2066 C 0.11944 0.84203 0.84063 0.0
C2067 C 0.12661 0.86185 0.68236 0.0
C2068 C 0.11398 0.86124 0.03158 0.0
C2069 C 0.11315 0.85709 0.98519 0.0
C2070 C 0.12125 0.88058 0.87286 0.0
C2071 C 0.11726 0.85398 0.75997 0.0
C2072 C 0.1189 0.8577 0.80959 0.0
C2073 C 0.12334 0.86885 0.95372 0.0
C2074 C 0.12189 0.86493 0.90401 0.0
H2075 H 0.09204 0.82555 0.68483 0.0
H2076 H 0.09539 0.83093 0.76597 0.0
H2077 H 0.11912 0.88944 0.80353 0.0
H2078 H 0.14422 0.90116 0.02779 0.0
H2079 H 0.14308 0.89379 0.94724 0.0
loop_
_geom_bond_atom_site_label_1
_geom_bond_atom_site_label_2
_geom_bond_distance
_geom_bond_site_symmetry_2
_ccdc_geom_bond_type
C0 Eu1 2.835 1_556 S
C0 C2 1.500 . S
C0 O20 1.257 1_556 S
C0 O21 1.260 1_556 S
Eu1 C0 2.835 1_554 S
Eu1 O20 2.473 . S
Eu1 O21 2.480 . S
Eu1 O22 2.430 . S
Eu1 O23 2.670 . S
Eu1 O24 2.394 . S
Eu1 O29 2.355 . S
Eu1 O31 2.374 . S
C2 C0 1.500 . S
C2 C3 1.377 . S
C2 C7 1.377 . S
C3 C2 1.377 . S
C3 C4 1.395 . S
C3 H32 0.931 . S
C4 C3 1.395 . S
C4 C5 1.383 . S
C4 H33 0.931 . S
C5 C4 1.383 . S
C5 C6 1.394 . S
C6 C5 1.394 . S
C6 C7 1.378 . S
C6 H34 0.931 . S
C7 C2 1.377 . S
C7 C6 1.378 . S
C7 H35 0.931 . S
C8 O22 1.259 . S
C8 O23 1.270 . S
C9 O24 1.251 . S
C9 O25 1.251 . S
C10 Eu11 2.835 . S
C10 C12 1.500 . S
C10 O26 1.257 . S
C10 O27 1.260 . S
Eu11 C10 2.835 . S
Eu11 O23 2.355 . S
Eu11 O25 2.374 . S
Eu11 O26 2.473 . S
Eu11 O27 2.480 . S
Eu11 O28 2.430 . S
Eu11 O29 2.670 . S
Eu11 O30 2.394 . S
C12 C10 1.500 . S
C12 C13 1.377 . S
C12 C17 1.377 . S
C13 C12 1.377 . S
C13 C14 1.395 . S
C13 H36 0.931 . S
C14 C13 1.395 . S
C14 C15 1.383 . S
C14 H37 0.931 . S
C15 C14 1.383 . S
C15 C16 1.394 . S
C16 C15 1.394 . S
C16 C17 1.378 . S
C16 H38 0.931 . S
C17 C12 1.377 . S
C17 C16 1.378 . S
C17 H39 0.931 . S
C18 O28 1.259 . S
C18 O29 1.270 . S
C19 O30 1.251 . S
C19 O31 1.251 . S
O20 C0 1.257 1_554 S
O20 Eu1 2.473 . S
O21 C0 1.260 1_554 S
O21 Eu1 2.480 . S
O22 Eu1 2.430 . S
O22 C8 1.259 . S
O23 Eu1 2.670 . S
O23 C8 1.270 . S
O23 Eu11 2.355 . S
O24 Eu1 2.394 . S
O24 C9 1.251 . S
O25 C9 1.251 . S
O25 Eu11 2.374 . S
O26 C10 1.257 . S
O26 Eu11 2.473 . S
O27 C10 1.260 . S
O27 Eu11 2.480 . S
O28 Eu11 2.430 . S
O28 C18 1.259 . S
O29 Eu1 2.355 . S
O29 Eu11 2.670 . S
O29 C18 1.270 . S
O30 Eu11 2.394 . S
O30 C19 1.251 . S
O31 Eu1 2.374 . S
O31 C19 1.251 . S
H32 C3 0.931 . S
H33 C4 0.931 . S
H34 C6 0.931 . S
H35 C7 0.931 . S
H36 C13 0.931 . S
H37 C14 0.931 . S
H38 C16 0.931 . S
H39 C17 0.931 . S
C40 Eu41 2.835 . S
C40 C42 1.500 . S
C40 O60 1.257 . S
C40 O61 1.260 . S
Eu41 C40 2.835 . S
Eu41 O60 2.473 . S
Eu41 O61 2.480 . S
Eu41 O62 2.430 . S
Eu41 O63 2.670 . S
Eu41 O64 2.394 . S
Eu41 O69 2.355 . S
Eu41 O71 2.374 . S
C42 C40 1.500 . S
C42 C43 1.377 . S
C42 C47 1.377 . S
C43 C42 1.377 . S
C43 C44 1.395 . S
C43 H72 0.931 . S
C44 C43 1.395 . S
C44 C45 1.383 . S
C44 H73 0.931 . S
C45 C44 1.383 . S
C45 C46 1.394 . S
C46 C45 1.394 . S
C46 C47 1.378 . S
C46 H74 0.931 . S
C47 C42 1.377 . S
C47 C46 1.378 . S
C47 H75 0.931 . S
C48 O62 1.259 . S
C48 O63 1.270 . S
C49 O64 1.251 . S
C49 O65 1.251 . S
C50 Eu51 2.835 1_554 S
C50 C52 1.500 . S
C50 O66 1.257 1_554 S
C50 O67 1.260 1_554 S
Eu51 C50 2.835 1_556 S
Eu51 O63 2.355 . S
Eu51 O65 2.374 . S
Eu51 O66 2.473 . S
Eu51 O67 2.480 . S
Eu51 O68 2.430 . S
Eu51 O69 2.670 . S
Eu51 O70 2.394 . S
C52 C50 1.500 . S
C52 C53 1.377 . S
C52 C57 1.377 . S
C53 C52 1.377 . S
C53 C54 1.395 . S
C53 H76 0.931 . S
C54 C53 1.395 . S
C54 C55 1.383 . S
C54 H77 0.931 . S
C55 C54 1.383 . S
C55 C56 1.394 . S
C56 C55 1.394 . S
C56 C57 1.378 . S
C56 H78 0.931 . S
C57 C52 1.377 . S
C57 C56 1.378 . S
C57 H79 0.931 . S
C58 O68 1.259 . S
C58 O69 1.270 . S
C59 O70 1.251 . S
C59 O71 1.251 . S
O60 C40 1.257 . S
O60 Eu41 2.473 . S
O61 C40 1.260 . S
O61 Eu41 2.480 . S
O62 Eu41 2.430 . S
O62 C48 1.259 . S
O63 Eu41 2.670 . S
O63 C48 1.270 . S
O63 Eu51 2.355 . S
O64 Eu41 2.394 . S
O64 C49 1.251 . S
O65 C49 1.251 . S
O65 Eu51 2.374 . S
O66 C50 1.257 1_556 S
O66 Eu51 2.473 . S
O67 C50 1.260 1_556 S
O67 Eu51 2.480 . S
O68 Eu51 2.430 . S
O68 C58 1.259 . S
O69 Eu41 2.355 . S
O69 Eu51 2.670 . S
O69 C58 1.270 . S
O70 Eu51 2.394 . S
O70 C59 1.251 . S
O71 Eu41 2.374 . S
O71 C59 1.251 . S
H72 C43 0.931 . S
H73 C44 0.931 . S
H74 C46 0.931 . S
H75 C47 0.931 . S
H76 C53 0.931 . S
H77 C54 0.931 . S
H78 C56 0.931 . S
H79 C57 0.931 . S
C80 Eu81 2.835 1_556 S
C80 C82 1.500 . S
C80 O100 1.257 1_556 S
C80 O101 1.260 1_556 S
Eu81 C80 2.835 1_554 S
Eu81 O100 2.473 . S
Eu81 O101 2.480 . S
Eu81 O102 2.430 . S
Eu81 O103 2.670 . S
Eu81 O104 2.394 . S
Eu81 O109 2.355 . S
Eu81 O111 2.374 . S
C82 C80 1.500 . S
C82 C83 1.377 . S
C82 C87 1.377 . S
C83 C82 1.377 . S
C83 C84 1.395 . S
C83 H112 0.931 . S
C84 C83 1.395 . S
C84 C85 1.383 . S
C84 H113 0.931 . S
C85 C84 1.383 . S
C85 C86 1.394 . S
C86 C85 1.394 . S
C86 C87 1.378 . S
C86 H114 0.931 . S
C87 C82 1.377 . S
C87 C86 1.378 . S
C87 H115 0.931 . S
C88 O102 1.259 . S
C88 O103 1.270 . S
C89 O104 1.251 . S
C89 O105 1.251 . S
C90 Eu91 2.835 . S
C90 C92 1.500 . S
C90 O106 1.257 . S
C90 O107 1.260 . S
Eu91 C90 2.835 . S
Eu91 O103 2.355 . S
Eu91 O105 2.374 . S
Eu91 O106 2.473 . S
Eu91 O107 2.480 . S
Eu91 O108 2.430 . S
Eu91 O109 2.670 . S
Eu91 O110 2.394 . S
C92 C90 1.500 . S
C92 C93 1.377 . S
C92 C97 1.377 . S
C93 C92 1.377 . S
C93 C94 1.395 . S
C93 H116 0.931 . S
C94 C93 1.395 . S
C94 C95 1.383 . S
C94 H117 0.931 . S
C95 C94 1.383 . S
C95 C96 1.394 . S
C96 C95 1.394 . S
C96 C97 1.378 . S
C96 H118 0.931 . S
C97 C92 1.377 . S
C97 C96 1.378 . S
C97 H119 0.931 . S
C98 O108 1.259 . S
C98 O109 1.270 . S
C99 O110 1.251 . S
C99 O111 1.251 . S
O100 C80 1.257 1_554 S
O100 Eu81 2.473 . S
O101 C80 1.260 1_554 S
O101 Eu81 2.480 . S
O102 Eu81 2.430 . S
O102 C88 1.259 . S
O103 Eu81 2.670 . S
O103 C88 1.270 . S
O103 Eu91 2.355 . S
O104 Eu81 2.394 . S
O104 C89 1.251 . S
O105 C89 1.251 . S
O105 Eu91 2.374 . S
O106 C90 1.257 . S
O106 Eu91 2.473 . S
O107 C90 1.260 . S
O107 Eu91 2.480 . S
O108 Eu91 2.430 . S
O108 C98 1.259 . S
O109 Eu81 2.355 . S
O109 Eu91 2.670 . S
O109 C98 1.270 . S
O110 Eu91 2.394 . S
O110 C99 1.251 . S
O111 Eu81 2.374 . S
O111 C99 1.251 . S
H112 C83 0.931 . S
H113 C84 0.931 . S
H114 C86 0.931 . S
H115 C87 0.931 . S
H116 C93 0.931 . S
H117 C94 0.931 . S
H118 C96 0.931 . S
H119 C97 0.931 . S
C120 Eu121 2.835 . S
C120 C122 1.500 . S
C120 O140 1.257 . S
C120 O141 1.260 . S
Eu121 C120 2.835 . S
Eu121 O140 2.473 . S
Eu121 O141 2.480 . S
Eu121 O142 2.430 . S
Eu121 O143 2.670 . S
Eu121 O144 2.394 . S
Eu121 O149 2.355 . S
Eu121 O151 2.374 . S
C122 C120 1.500 . S
C122 C123 1.377 . S
C122 C127 1.377 . S
C123 C122 1.377 . S
C123 C124 1.395 . S
C123 H152 0.931 . S
C124 C123 1.395 . S
C124 C125 1.383 . S
C124 H153 0.931 . S
C125 C124 1.383 . S
C125 C126 1.394 . S
C126 C125 1.394 . S
C126 C127 1.378 . S
C126 H154 0.931 . S
C127 C122 1.377 . S
C127 C126 1.378 . S
C127 H155 0.931 . S
C128 O142 1.259 . S
C128 O143 1.270 . S
C129 O144 1.251 . S
C129 O145 1.251 . S
C130 Eu131 2.835 1_554 S
C130 C132 1.500 . S
C130 O146 1.257 1_554 S
C130 O147 1.260 1_554 S
Eu131 C130 2.835 1_556 S
Eu131 O143 2.355 . S
Eu131 O145 2.374 . S
Eu131 O146 2.473 . S
Eu131 O147 2.480 . S
Eu131 O148 2.430 . S
Eu131 O149 2.670 . S
Eu131 O150 2.394 . S
C132 C130 1.500 . S
C132 C133 1.377 . S
C132 C137 1.377 . S
C133 C132 1.377 . S
C133 C134 1.395 . S
C133 H156 0.931 . S
C134 C133 1.395 . S
C134 C135 1.383 . S
C134 H157 0.931 . S
C135 C134 1.383 . S
C135 C136 1.394 . S
C136 C135 1.394 . S
C136 C137 1.378 . S
C136 H158 0.931 . S
C137 C132 1.377 . S
C137 C136 1.378 . S
C137 H159 0.931 . S
C138 O148 1.259 . S
C138 O149 1.270 . S
C139 O150 1.251 . S
C139 O151 1.251 . S
O140 C120 1.257 . S
O140 Eu121 2.473 . S
O141 C120 1.260 . S
O141 Eu121 2.480 . S
O142 Eu121 2.430 . S
O142 C128 1.259 . S
O143 Eu121 2.670 . S
O143 C128 1.270 . S
O143 Eu131 2.355 . S
O144 Eu121 2.394 . S
O144 C129 1.251 . S
O145 C129 1.251 . S
O145 Eu131 2.374 . S
O146 C130 1.257 1_556 S
O146 Eu131 2.473 . S
O147 C130 1.260 1_556 S
O147 Eu131 2.480 . S
O148 Eu131 2.430 . S
O148 C138 1.259 . S
O149 Eu121 2.355 . S
O149 Eu131 2.670 . S
O149 C138 1.270 . S
O150 Eu131 2.394 . S
O150 C139 1.251 . S
O151 Eu121 2.374 . S
O151 C139 1.251 . S
H152 C123 0.931 . S
H153 C124 0.931 . S
H154 C126 0.931 . S
H155 C127 0.931 . S
H156 C133 0.931 . S
H157 C134 0.931 . S
H158 C136 0.931 . S
H159 C137 0.931 . S
C160 Eu161 2.835 . S
C160 C162 1.500 . S
C160 O180 1.257 . S
C160 O181 1.260 . S
Eu161 C160 2.835 . S
Eu161 O180 2.473 . S
Eu161 O181 2.480 . S
Eu161 O182 2.430 . S
Eu161 O183 2.670 . S
Eu161 O184 2.394 . S
Eu161 O189 2.355 . S
Eu161 O191 2.374 . S
C162 C160 1.500 . S
C162 C163 1.377 . S
C162 C167 1.377 . S
C163 C162 1.377 . S
C163 C164 1.395 . S
C163 H192 0.931 . S
C164 C163 1.395 . S
C164 C165 1.383 . S
C164 H193 0.931 . S
C165 C164 1.383 . S
C165 C166 1.394 . S
C166 C165 1.394 . S
C166 C167 1.378 . S
C166 H194 0.931 . S
C167 C162 1.377 . S
C167 C166 1.378 . S
C167 H195 0.931 . S
C168 O182 1.259 . S
C168 O183 1.270 . S
C169 O184 1.251 . S
C169 O185 1.251 . S
C170 Eu171 2.835 1_556 S
C170 C172 1.500 . S
C170 O186 1.257 1_556 S
C170 O187 1.260 . S
Eu171 C170 2.835 1_554 S
Eu171 O183 2.355 . S
Eu171 O185 2.374 . S
Eu171 O186 2.474 . S
Eu171 O187 2.480 1_554 S
Eu171 O188 2.430 . S
Eu171 O189 2.670 . S
Eu171 O190 2.394 . S
C172 C170 1.500 . S
C172 C173 1.377 . S
C172 C177 1.377 . S
C173 C172 1.377 . S
C173 C174 1.395 . S
C173 H196 0.931 . S
C174 C173 1.395 . S
C174 C175 1.383 . S
C174 H197 0.931 . S
C175 C174 1.383 . S
C175 C176 1.394 . S
C176 C175 1.394 . S
C176 C177 1.378 . S
C176 H198 0.931 . S
C177 C172 1.377 . S
C177 C176 1.378 . S
C177 H199 0.931 . S
C178 O188 1.259 . S
C178 O189 1.270 . S
C179 O190 1.251 . S
C179 O191 1.251 . S
O180 C160 1.257 . S
O180 Eu161 2.473 . S
O181 C160 1.260 . S
O181 Eu161 2.480 . S
O182 Eu161 2.430 . S
O182 C168 1.259 . S
O183 Eu161 2.670 . S
O183 C168 1.270 . S
O183 Eu171 2.355 . S
O184 Eu161 2.394 . S
O184 C169 1.251 . S
O185 C169 1.251 . S
O185 Eu171 2.374 . S
O186 C170 1.257 1_554 S
O186 Eu171 2.474 . S
O187 C170 1.260 . S
O187 Eu171 2.480 1_556 S
O188 Eu171 2.430 . S
O188 C178 1.259 . S
O189 Eu161 2.355 . S
O189 Eu171 2.670 . S
O189 C178 1.270 . S
O190 Eu171 2.394 . S
O190 C179 1.251 . S
O191 Eu161 2.374 . S
O191 C179 1.251 . S
H192 C163 0.931 . S
H193 C164 0.931 . S
H194 C166 0.931 . S
H195 C167 0.931 . S
H196 C173 0.931 . S
H197 C174 0.931 . S
H198 C176 0.931 . S
H199 C177 0.931 . S
C200 Eu201 2.835 1_554 S
C200 C202 1.500 . S
C200 O220 1.257 1_554 S
C200 O221 1.260 . S
Eu201 C200 2.835 1_556 S
Eu201 O220 2.474 . S
Eu201 O221 2.480 1_556 S
Eu201 O222 2.430 . S
Eu201 O223 2.670 . S
Eu201 O224 2.394 . S
Eu201 O229 2.355 . S
Eu201 O231 2.374 . S
C202 C200 1.500 . S
C202 C203 1.377 . S
C202 C207 1.377 . S
C203 C202 1.377 . S
C203 C204 1.395 . S
C203 H232 0.931 . S
C204 C203 1.395 . S
C204 C205 1.383 . S
C204 H233 0.931 . S
C205 C204 1.383 . S
C205 C206 1.394 . S
C206 C205 1.394 . S
C206 C207 1.378 . S
C206 H234 0.931 . S
C207 C202 1.377 . S
C207 C206 1.378 . S
C207 H235 0.931 . S
C208 O222 1.259 . S
C208 O223 1.270 . S
C209 O224 1.251 . S
C209 O225 1.251 . S
C210 Eu211 2.835 . S
C210 C212 1.500 . S
C210 O226 1.257 . S
C210 O227 1.260 . S
Eu211 C210 2.835 . S
Eu211 O223 2.355 . S
Eu211 O225 2.374 . S
Eu211 O226 2.473 . S
Eu211 O227 2.480 . S
Eu211 O228 2.430 . S
Eu211 O229 2.670 . S
Eu211 O230 2.394 . S
C212 C210 1.500 . S
C212 C213 1.377 . S
C212 C217 1.377 . S
C213 C212 1.377 . S
C213 C214 1.395 . S
C213 H236 0.931 . S
C214 C213 1.395 . S
C214 C215 1.383 . S
C214 H237 0.931 . S
C215 C214 1.383 . S
C215 C216 1.394 . S
C216 C215 1.394 . S
C216 C217 1.378 . S
C216 H238 0.931 . S
C217 C212 1.377 . S
C217 C216 1.378 . S
C217 H239 0.931 . S
C218 O228 1.259 . S
C218 O229 1.270 . S
C219 O230 1.251 . S
C219 O231 1.251 . S
O220 C200 1.257 1_556 S
O220 Eu201 2.474 . S
O221 C200 1.260 . S
O221 Eu201 2.480 1_554 S
O222 Eu201 2.430 . S
O222 C208 1.259 . S
O223 Eu201 2.670 . S
O223 C208 1.270 . S
O223 Eu211 2.355 . S
O224 Eu201 2.394 . S
O224 C209 1.251 . S
O225 C209 1.251 . S
O225 Eu211 2.374 . S
O226 C210 1.257 . S
O226 Eu211 2.473 . S
O227 C210 1.260 . S
O227 Eu211 2.480 . S
O228 Eu211 2.430 . S
O228 C218 1.259 . S
O229 Eu201 2.355 . S
O229 Eu211 2.670 . S
O229 C218 1.270 . S
O230 Eu211 2.394 . S
O230 C219 1.251 . S
O231 Eu201 2.374 . S
O231 C219 1.251 . S
H232 C203 0.931 . S
H233 C204 0.931 . S
H234 C206 0.931 . S
H235 C207 0.931 . S
H236 C213 0.931 . S
H237 C214 0.931 . S
H238 C216 0.931 . S
H239 C217 0.931 . S
C240 Eu241 2.835 . S
C240 C242 1.500 . S
C240 O260 1.257 . S
C240 O261 1.260 . S
Eu241 C240 2.835 . S
Eu241 O260 2.473 . S
Eu241 O261 2.480 . S
Eu241 O262 2.430 . S
Eu241 O263 2.670 . S
Eu241 O264 2.394 . S
Eu241 O269 2.355 . S
Eu241 O271 2.374 . S
C242 C240 1.500 . S
C242 C243 1.377 . S
C242 C247 1.377 . S
C243 C242 1.377 . S
C243 C244 1.395 . S
C243 H272 0.931 . S
C244 C243 1.395 . S
C244 C245 1.383 . S
C244 H273 0.931 . S
C245 C244 1.383 . S
C245 C246 1.394 . S
C246 C245 1.394 . S
C246 C247 1.378 . S
C246 H274 0.931 . S
C247 C242 1.377 . S
C247 C246 1.378 . S
C247 H275 0.931 . S
C248 O262 1.259 . S
C248 O263 1.270 . S
C249 O264 1.251 . S
C249 O265 1.251 . S
C250 Eu251 2.835 1_556 S
C250 C252 1.500 . S
C250 O266 1.257 1_556 S
C250 O267 1.260 . S
Eu251 C250 2.835 1_554 S
Eu251 O263 2.355 . S
Eu251 O265 2.374 . S
Eu251 O266 2.474 . S
Eu251 O267 2.480 1_554 S
Eu251 O268 2.430 . S
Eu251 O269 2.670 . S
Eu251 O270 2.394 . S
C252 C250 1.500 . S
C252 C253 1.377 . S
C252 C257 1.377 . S
C253 C252 1.377 . S
C253 C254 1.395 . S
C253 H276 0.931 . S
C254 C253 1.395 . S
C254 C255 1.383 . S
C254 H277 0.931 . S
C255 C254 1.383 . S
C255 C256 1.394 . S
C256 C255 1.394 . S
C256 C257 1.378 . S
C256 H278 0.931 . S
C257 C252 1.377 . S
C257 C256 1.378 . S
C257 H279 0.931 . S
C258 O268 1.259 . S
C258 O269 1.270 . S
C259 O270 1.251 . S
C259 O271 1.251 . S
O260 C240 1.257 . S
O260 Eu241 2.473 . S
O261 C240 1.260 . S
O261 Eu241 2.480 . S
O262 Eu241 2.430 . S
O262 C248 1.259 . S
O263 Eu241 2.670 . S
O263 C248 1.270 . S
O263 Eu251 2.355 . S
O264 Eu241 2.394 . S
O264 C249 1.251 . S
O265 C249 1.251 . S
O265 Eu251 2.374 . S
O266 C250 1.257 1_554 S
O266 Eu251 2.474 . S
O267 C250 1.260 . S
O267 Eu251 2.480 1_556 S
O268 Eu251 2.430 . S
O268 C258 1.259 . S
O269 Eu241 2.355 . S
O269 Eu251 2.670 . S
O269 C258 1.270 . S
O270 Eu251 2.394 . S
O270 C259 1.251 . S
O271 Eu241 2.374 . S
O271 C259 1.251 . S
H272 C243 0.931 . S
H273 C244 0.931 . S
H274 C246 0.931 . S
H275 C247 0.931 . S
H276 C253 0.931 . S
H277 C254 0.931 . S
H278 C256 0.931 . S
H279 C257 0.931 . S
C280 Eu281 2.835 1_554 S
C280 C282 1.500 . S
C280 O300 1.257 1_554 S
C280 O301 1.260 . S
Eu281 C280 2.835 1_556 S
Eu281 O300 2.474 . S
Eu281 O301 2.480 1_556 S
Eu281 O302 2.430 . S
Eu281 O303 2.670 . S
Eu281 O304 2.394 . S
Eu281 O309 2.355 . S
Eu281 O311 2.374 . S
C282 C280 1.500 . S
C282 C283 1.377 . S
C282 C287 1.377 . S
C283 C282 1.377 . S
C283 C284 1.395 . S
C283 H312 0.931 . S
C284 C283 1.395 . S
C284 C285 1.383 . S
C284 H313 0.931 . S
C285 C284 1.383 . S
C285 C286 1.394 . S
C286 C285 1.394 . S
C286 C287 1.378 . S
C286 H314 0.931 . S
C287 C282 1.377 . S
C287 C286 1.378 . S
C287 H315 0.931 . S
C288 O302 1.259 . S
C288 O303 1.270 . S
C289 O304 1.251 . S
C289 O305 1.251 . S
C290 Eu291 2.835 . S
C290 C292 1.500 . S
C290 O306 1.257 . S
C290 O307 1.260 . S
Eu291 C290 2.835 . S
Eu291 O303 2.355 . S
Eu291 O305 2.374 . S
Eu291 O306 2.473 . S
Eu291 O307 2.480 . S
Eu291 O308 2.430 . S
Eu291 O309 2.670 . S
Eu291 O310 2.394 . S
C292 C290 1.500 . S
C292 C293 1.377 . S
C292 C297 1.377 . S
C293 C292 1.377 . S
C293 C294 1.395 . S
C293 H316 0.931 . S
C294 C293 1.395 . S
C294 C295 1.383 . S
C294 H317 0.931 . S
C295 C294 1.383 . S
C295 C296 1.394 . S
C296 C295 1.394 . S
C296 C297 1.378 . S
C296 H318 0.931 . S
C297 C292 1.377 . S
C297 C296 1.378 . S
C297 H319 0.931 . S
C298 O308 1.259 . S
C298 O309 1.270 . S
C299 O310 1.251 . S
C299 O311 1.251 . S
O300 C280 1.257 1_556 S
O300 Eu281 2.474 . S
O301 C280 1.260 . S
O301 Eu281 2.480 1_554 S
O302 Eu281 2.430 . S
O302 C288 1.259 . S
O303 Eu281 2.670 . S
O303 C288 1.270 . S
O303 Eu291 2.355 . S
O304 Eu281 2.394 . S
O304 C289 1.251 . S
O305 C289 1.251 . S
O305 Eu291 2.374 . S
O306 C290 1.257 . S
O306 Eu291 2.473 . S
O307 C290 1.260 . S
O307 Eu291 2.480 . S
O308 Eu291 2.430 . S
O308 C298 1.259 . S
O309 Eu281 2.355 . S
O309 Eu291 2.670 . S
O309 C298 1.270 . S
O310 Eu291 2.394 . S
O310 C299 1.251 . S
O311 Eu281 2.374 . S
O311 C299 1.251 . S
H312 C283 0.931 . S
H313 C284 0.931 . S
H314 C286 0.931 . S
H315 C287 0.931 . S
H316 C293 0.931 . S
H317 C294 0.931 . S
H318 C296 0.931 . S
H319 C297 0.931 . S
C320 Eu321 2.835 . S
C320 C322 1.500 . S
C320 O340 1.257 . S
C320 O341 1.260 . S
Eu321 C320 2.835 . S
Eu321 O340 2.473 . S
Eu321 O341 2.480 . S
Eu321 O342 2.430 . S
Eu321 O343 2.670 . S
Eu321 O344 2.394 . S
Eu321 O349 2.355 . S
Eu321 O351 2.374 . S
C322 C320 1.500 . S
C322 C323 1.377 . S
C322 C327 1.377 . S
C323 C322 1.377 . S
C323 C324 1.395 . S
C323 H352 0.931 . S
C324 C323 1.395 . S
C324 C325 1.383 . S
C324 H353 0.931 . S
C325 C324 1.383 . S
C325 C326 1.394 . S
C326 C325 1.394 . S
C326 C327 1.378 . S
C326 H354 0.931 . S
C327 C322 1.377 . S
C327 C326 1.378 . S
C327 H355 0.931 . S
C328 O342 1.259 . S
C328 O343 1.270 . S
C329 O344 1.251 . S
C329 O345 1.251 . S
C330 Eu331 2.835 . S
C330 C332 1.500 . S
C330 O346 1.257 . S
C330 O347 1.260 . S
Eu331 C330 2.835 . S
Eu331 O343 2.355 . S
Eu331 O345 2.374 . S
Eu331 O346 2.473 . S
Eu331 O347 2.480 . S
Eu331 O348 2.430 . S
Eu331 O349 2.670 . S
Eu331 O350 2.394 . S
C332 C330 1.500 . S
C332 C333 1.377 . S
C332 C337 1.377 . S
C333 C332 1.377 . S
C333 C334 1.395 . S
C333 H356 0.931 . S
C334 C333 1.395 . S
C334 C335 1.383 . S
C334 H357 0.931 . S
C335 C334 1.383 . S
C335 C336 1.394 . S
C336 C335 1.394 . S
C336 C337 1.378 . S
C336 H358 0.931 . S
C337 C332 1.377 . S
C337 C336 1.378 . S
C337 H359 0.931 . S
C338 O348 1.259 . S
C338 O349 1.270 . S
C339 O350 1.251 . S
C339 O351 1.251 . S
O340 C320 1.257 . S
O340 Eu321 2.473 . S
O341 C320 1.260 . S
O341 Eu321 2.480 . S
O342 Eu321 2.430 . S
O342 C328 1.259 . S
O343 Eu321 2.670 . S
O343 C328 1.270 . S
O343 Eu331 2.355 . S
O344 Eu321 2.394 . S
O344 C329 1.251 . S
O345 C329 1.251 . S
O345 Eu331 2.374 . S
O346 C330 1.257 . S
O346 Eu331 2.473 . S
O347 C330 1.260 . S
O347 Eu331 2.480 . S
O348 Eu331 2.430 . S
O348 C338 1.259 . S
O349 Eu321 2.355 . S
O349 Eu331 2.670 . S
O349 C338 1.270 . S
O350 Eu331 2.394 . S
O350 C339 1.251 . S
O351 Eu321 2.374 . S
O351 C339 1.251 . S
H352 C323 0.931 . S
H353 C324 0.931 . S
H354 C326 0.931 . S
H355 C327 0.931 . S
H356 C333 0.931 . S
H357 C334 0.931 . S
H358 C336 0.931 . S
H359 C337 0.931 . S
C360 Eu361 2.835 . S
C360 C362 1.500 . S
C360 O380 1.257 . S
C360 O381 1.260 . S
Eu361 C360 2.835 . S
Eu361 O380 2.473 . S
Eu361 O381 2.480 . S
Eu361 O382 2.430 . S
Eu361 O383 2.670 . S
Eu361 O384 2.394 . S
Eu361 O389 2.355 . S
Eu361 O391 2.374 . S
C362 C360 1.500 . S
C362 C363 1.377 . S
C362 C367 1.377 . S
C363 C362 1.377 . S
C363 C364 1.395 . S
C363 H392 0.931 . S
C364 C363 1.395 . S
C364 C365 1.383 . S
C364 H393 0.931 . S
C365 C364 1.383 . S
C365 C366 1.394 . S
C366 C365 1.394 . S
C366 C367 1.378 . S
C366 H394 0.931 . S
C367 C362 1.377 . S
C367 C366 1.378 . S
C367 H395 0.931 . S
C368 O382 1.259 . S
C368 O383 1.270 . S
C369 O384 1.251 . S
C369 O385 1.251 . S
C370 Eu371 2.835 . S
C370 C372 1.500 . S
C370 O386 1.257 . S
C370 O387 1.260 . S
Eu371 C370 2.835 . S
Eu371 O383 2.355 . S
Eu371 O385 2.374 . S
Eu371 O386 2.473 . S
Eu371 O387 2.480 . S
Eu371 O388 2.430 . S
Eu371 O389 2.670 . S
Eu371 O390 2.394 . S
C372 C370 1.500 . S
C372 C373 1.377 . S
C372 C377 1.377 . S
C373 C372 1.377 . S
C373 C374 1.395 . S
C373 H396 0.931 . S
C374 C373 1.395 . S
C374 C375 1.383 . S
C374 H397 0.931 . S
C375 C374 1.383 . S
C375 C376 1.394 . S
C376 C375 1.394 . S
C376 C377 1.378 . S
C376 H398 0.931 . S
C377 C372 1.377 . S
C377 C376 1.378 . S
C377 H399 0.931 . S
C378 O388 1.259 . S
C378 O389 1.270 . S
C379 O390 1.251 . S
C379 O391 1.251 . S
O380 C360 1.257 . S
O380 Eu361 2.473 . S
O381 C360 1.260 . S
O381 Eu361 2.480 . S
O382 Eu361 2.430 . S
O382 C368 1.259 . S
O383 Eu361 2.670 . S
O383 C368 1.270 . S
O383 Eu371 2.355 . S
O384 Eu361 2.394 . S
O384 C369 1.251 . S
O385 C369 1.251 . S
O385 Eu371 2.374 . S
O386 C370 1.257 . S
O386 Eu371 2.473 . S
O387 C370 1.260 . S
O387 Eu371 2.480 . S
O388 Eu371 2.430 . S
O388 C378 1.259 . S
O389 Eu361 2.355 . S
O389 Eu371 2.670 . S
O389 C378 1.270 . S
O390 Eu371 2.394 . S
O390 C379 1.251 . S
O391 Eu361 2.374 . S
O391 C379 1.251 . S
H392 C363 0.931 . S
H393 C364 0.931 . S
H394 C366 0.931 . S
H395 C367 0.931 . S
H396 C373 0.931 . S
H397 C374 0.931 . S
H398 C376 0.931 . S
H399 C377 0.931 . S
C400 Eu401 2.835 . S
C400 C402 1.500 . S
C400 O420 1.257 . S
C400 O421 1.260 . S
Eu401 C400 2.835 . S
Eu401 O420 2.473 . S
Eu401 O421 2.480 . S
Eu401 O422 2.430 . S
Eu401 O423 2.670 . S
Eu401 O424 2.394 . S
Eu401 O429 2.355 . S
Eu401 O431 2.374 . S
C402 C400 1.500 . S
C402 C403 1.377 . S
C402 C407 1.377 . S
C403 C402 1.377 . S
C403 C404 1.395 . S
C403 H432 0.931 . S
C404 C403 1.395 . S
C404 C405 1.383 . S
C404 H433 0.931 . S
C405 C404 1.383 . S
C405 C406 1.394 . S
C406 C405 1.394 . S
C406 C407 1.378 . S
C406 H434 0.931 . S
C407 C402 1.377 . S
C407 C406 1.378 . S
C407 H435 0.931 . S
C408 O422 1.259 . S
C408 O423 1.270 . S
C409 O424 1.251 . S
C409 O425 1.251 . S
C410 Eu411 2.835 . S
C410 C412 1.500 . S
C410 O426 1.257 . S
C410 O427 1.260 . S
Eu411 C410 2.835 . S
Eu411 O423 2.355 . S
Eu411 O425 2.374 . S
Eu411 O426 2.473 . S
Eu411 O427 2.480 . S
Eu411 O428 2.430 . S
Eu411 O429 2.670 . S
Eu411 O430 2.394 . S
C412 C410 1.500 . S
C412 C413 1.377 . S
C412 C417 1.377 . S
C413 C412 1.377 . S
C413 C414 1.395 . S
C413 H436 0.931 . S
C414 C413 1.395 . S
C414 C415 1.383 . S
C414 H437 0.931 . S
C415 C414 1.383 . S
C415 C416 1.394 . S
C416 C415 1.394 . S
C416 C417 1.378 . S
C416 H438 0.931 . S
C417 C412 1.377 . S
C417 C416 1.378 . S
C417 H439 0.931 . S
C418 O428 1.259 . S
C418 O429 1.270 . S
C419 O430 1.251 . S
C419 O431 1.251 . S
O420 C400 1.257 . S
O420 Eu401 2.473 . S
O421 C400 1.260 . S
O421 Eu401 2.480 . S
O422 Eu401 2.430 . S
O422 C408 1.259 . S
O423 Eu401 2.670 . S
O423 C408 1.270 . S
O423 Eu411 2.355 . S
O424 Eu401 2.394 . S
O424 C409 1.251 . S
O425 C409 1.251 . S
O425 Eu411 2.374 . S
O426 C410 1.257 . S
O426 Eu411 2.473 . S
O427 C410 1.260 . S
O427 Eu411 2.480 . S
O428 Eu411 2.430 . S
O428 C418 1.259 . S
O429 Eu401 2.355 . S
O429 Eu411 2.670 . S
O429 C418 1.270 . S
O430 Eu411 2.394 . S
O430 C419 1.251 . S
O431 Eu401 2.374 . S
O431 C419 1.251 . S
H432 C403 0.931 . S
H433 C404 0.931 . S
H434 C406 0.931 . S
H435 C407 0.931 . S
H436 C413 0.931 . S
H437 C414 0.931 . S
H438 C416 0.931 . S
H439 C417 0.931 . S
C440 Eu441 2.835 . S
C440 C442 1.500 . S
C440 O460 1.257 . S
C440 O461 1.260 . S
Eu441 C440 2.835 . S
Eu441 O460 2.473 . S
Eu441 O461 2.480 . S
Eu441 O462 2.430 . S
Eu441 O463 2.670 . S
Eu441 O464 2.394 . S
Eu441 O469 2.355 . S
Eu441 O471 2.374 . S
C442 C440 1.500 . S
C442 C443 1.377 . S
C442 C447 1.377 . S
C443 C442 1.377 . S
C443 C444 1.395 . S
C443 H472 0.931 . S
C444 C443 1.395 . S
C444 C445 1.383 . S
C444 H473 0.931 . S
C445 C444 1.383 . S
C445 C446 1.394 . S
C446 C445 1.394 . S
C446 C447 1.378 . S
C446 H474 0.931 . S
C447 C442 1.377 . S
C447 C446 1.378 . S
C447 H475 0.931 . S
C448 O462 1.259 . S
C448 O463 1.270 . S
C449 O464 1.251 . S
C449 O465 1.251 . S
C450 Eu451 2.835 . S
C450 C452 1.500 . S
C450 O466 1.257 . S
C450 O467 1.260 . S
Eu451 C450 2.835 . S
Eu451 O463 2.355 . S
Eu451 O465 2.374 . S
Eu451 O466 2.473 . S
Eu451 O467 2.480 . S
Eu451 O468 2.430 . S
Eu451 O469 2.670 . S
Eu451 O470 2.394 . S
C452 C450 1.500 . S
C452 C453 1.377 . S
C452 C457 1.377 . S
C453 C452 1.377 . S
C453 C454 1.395 . S
C453 H476 0.931 . S
C454 C453 1.395 . S
C454 C455 1.383 . S
C454 H477 0.931 . S
C455 C454 1.383 . S
C455 C456 1.394 . S
C456 C455 1.394 . S
C456 C457 1.378 . S
C456 H478 0.931 . S
C457 C452 1.377 . S
C457 C456 1.378 . S
C457 H479 0.931 . S
C458 O468 1.259 . S
C458 O469 1.270 . S
C459 O470 1.251 . S
C459 O471 1.251 . S
O460 C440 1.257 . S
O460 Eu441 2.473 . S
O461 C440 1.260 . S
O461 Eu441 2.480 . S
O462 Eu441 2.430 . S
O462 C448 1.259 . S
O463 Eu441 2.670 . S
O463 C448 1.270 . S
O463 Eu451 2.355 . S
O464 Eu441 2.394 . S
O464 C449 1.251 . S
O465 C449 1.251 . S
O465 Eu451 2.374 . S
O466 C450 1.257 . S
O466 Eu451 2.473 . S
O467 C450 1.260 . S
O467 Eu451 2.480 . S
O468 Eu451 2.430 . S
O468 C458 1.259 . S
O469 Eu441 2.355 . S
O469 Eu451 2.670 . S
O469 C458 1.270 . S
O470 Eu451 2.394 . S
O470 C459 1.251 . S
O471 Eu441 2.374 . S
O471 C459 1.251 . S
H472 C443 0.931 . S
H473 C444 0.931 . S
H474 C446 0.931 . S
H475 C447 0.931 . S
H476 C453 0.931 . S
H477 C454 0.931 . S
H478 C456 0.931 . S
H479 C457 0.931 . S
C480 Eu481 2.835 . S
C480 C482 1.500 . S
C480 O500 1.257 . S
C480 O501 1.260 . S
Eu481 C480 2.835 . S
Eu481 O500 2.473 . S
Eu481 O501 2.480 . S
Eu481 O502 2.430 . S
Eu481 O503 2.670 . S
Eu481 O504 2.394 . S
Eu481 O509 2.355 . S
Eu481 O511 2.374 . S
C482 C480 1.500 . S
C482 C483 1.377 . S
C482 C487 1.377 . S
C483 C482 1.377 . S
C483 C484 1.395 . S
C483 H512 0.931 . S
C484 C483 1.395 . S
C484 C485 1.383 . S
C484 H513 0.931 . S
C485 C484 1.383 . S
C485 C486 1.394 . S
C486 C485 1.394 . S
C486 C487 1.378 . S
C486 H514 0.931 . S
C487 C482 1.377 . S
C487 C486 1.378 . S
C487 H515 0.931 . S
C488 O502 1.259 . S
C488 O503 1.270 . S
C489 O504 1.251 . S
C489 O505 1.251 . S
C490 Eu491 2.835 . S
C490 C492 1.500 . S
C490 O506 1.257 . S
C490 O507 1.260 . S
Eu491 C490 2.835 . S
Eu491 O503 2.355 . S
Eu491 O505 2.374 . S
Eu491 O506 2.473 . S
Eu491 O507 2.480 . S
Eu491 O508 2.430 . S
Eu491 O509 2.670 . S
Eu491 O510 2.394 . S
C492 C490 1.500 . S
C492 C493 1.377 . S
C492 C497 1.377 . S
C493 C492 1.377 . S
C493 C494 1.395 . S
C493 H516 0.931 . S
C494 C493 1.395 . S
C494 C495 1.383 . S
C494 H517 0.931 . S
C495 C494 1.383 . S
C495 C496 1.394 . S
C496 C495 1.394 . S
C496 C497 1.378 . S
C496 H518 0.931 . S
C497 C492 1.377 . S
C497 C496 1.378 . S
C497 H519 0.931 . S
C498 O508 1.259 . S
C498 O509 1.270 . S
C499 O510 1.251 . S
C499 O511 1.251 . S
O500 C480 1.257 . S
O500 Eu481 2.473 . S
O501 C480 1.260 . S
O501 Eu481 2.480 . S
O502 Eu481 2.430 . S
O502 C488 1.259 . S
O503 Eu481 2.670 . S
O503 C488 1.270 . S
O503 Eu491 2.355 . S
O504 Eu481 2.394 . S
O504 C489 1.251 . S
O505 C489 1.251 . S
O505 Eu491 2.374 . S
O506 C490 1.257 . S
O506 Eu491 2.473 . S
O507 C490 1.260 . S
O507 Eu491 2.480 . S
O508 Eu491 2.430 . S
O508 C498 1.259 . S
O509 Eu481 2.355 . S
O509 Eu491 2.670 . S
O509 C498 1.270 . S
O510 Eu491 2.394 . S
O510 C499 1.251 . S
O511 Eu481 2.374 . S
O511 C499 1.251 . S
H512 C483 0.931 . S
H513 C484 0.931 . S
H514 C486 0.931 . S
H515 C487 0.931 . S
H516 C493 0.931 . S
H517 C494 0.931 . S
H518 C496 0.931 . S
H519 C497 0.931 . S
C520 Eu521 2.835 . S
C520 C522 1.500 . S
C520 O540 1.257 . S
C520 O541 1.260 . S
Eu521 C520 2.835 . S
Eu521 O540 2.473 . S
Eu521 O541 2.480 . S
Eu521 O542 2.430 . S
Eu521 O543 2.670 . S
Eu521 O544 2.394 . S
Eu521 O549 2.355 . S
Eu521 O551 2.374 . S
C522 C520 1.500 . S
C522 C523 1.377 . S
C522 C527 1.377 . S
C523 C522 1.377 . S
C523 C524 1.395 . S
C523 H552 0.931 . S
C524 C523 1.395 . S
C524 C525 1.383 . S
C524 H553 0.931 . S
C525 C524 1.383 . S
C525 C526 1.394 . S
C526 C525 1.394 . S
C526 C527 1.378 . S
C526 H554 0.931 . S
C527 C522 1.377 . S
C527 C526 1.378 . S
C527 H555 0.931 . S
C528 O542 1.259 . S
C528 O543 1.270 . S
C529 O544 1.251 . S
C529 O545 1.251 . S
C530 Eu531 2.835 . S
C530 C532 1.500 . S
C530 O546 1.257 . S
C530 O547 1.260 . S
Eu531 C530 2.835 . S
Eu531 O543 2.355 . S
Eu531 O545 2.374 . S
Eu531 O546 2.473 . S
Eu531 O547 2.480 . S
Eu531 O548 2.430 . S
Eu531 O549 2.670 . S
Eu531 O550 2.394 . S
C532 C530 1.500 . S
C532 C533 1.377 . S
C532 C537 1.377 . S
C533 C532 1.377 . S
C533 C534 1.395 . S
C533 H556 0.931 . S
C534 C533 1.395 . S
C534 C535 1.383 . S
C534 H557 0.931 . S
C535 C534 1.383 . S
C535 C536 1.394 . S
C536 C535 1.394 . S
C536 C537 1.378 . S
C536 H558 0.931 . S
C537 C532 1.377 . S
C537 C536 1.378 . S
C537 H559 0.931 . S
C538 O548 1.259 . S
C538 O549 1.270 . S
C539 O550 1.251 . S
C539 O551 1.251 . S
O540 C520 1.257 . S
O540 Eu521 2.473 . S
O541 C520 1.260 . S
O541 Eu521 2.480 . S
O542 Eu521 2.430 . S
O542 C528 1.259 . S
O543 Eu521 2.670 . S
O543 C528 1.270 . S
O543 Eu531 2.355 . S
O544 Eu521 2.394 . S
O544 C529 1.251 . S
O545 C529 1.251 . S
O545 Eu531 2.374 . S
O546 C530 1.257 . S
O546 Eu531 2.473 . S
O547 C530 1.260 . S
O547 Eu531 2.480 . S
O548 Eu531 2.430 . S
O548 C538 1.259 . S
O549 Eu521 2.355 . S
O549 Eu531 2.670 . S
O549 C538 1.270 . S
O550 Eu531 2.394 . S
O550 C539 1.251 . S
O551 Eu521 2.374 . S
O551 C539 1.251 . S
H552 C523 0.931 . S
H553 C524 0.931 . S
H554 C526 0.931 . S
H555 C527 0.931 . S
H556 C533 0.931 . S
H557 C534 0.931 . S
H558 C536 0.931 . S
H559 C537 0.931 . S
C560 Eu561 2.835 . S
C560 C562 1.500 . S
C560 O580 1.257 . S
C560 O581 1.260 . S
Eu561 C560 2.835 . S
Eu561 O580 2.473 . S
Eu561 O581 2.480 . S
Eu561 O582 2.430 . S
Eu561 O583 2.670 . S
Eu561 O584 2.394 . S
Eu561 O589 2.355 . S
Eu561 O591 2.374 . S
C562 C560 1.500 . S
C562 C563 1.377 . S
C562 C567 1.377 . S
C563 C562 1.377 . S
C563 C564 1.395 . S
C563 H592 0.931 . S
C564 C563 1.395 . S
C564 C565 1.383 . S
C564 H593 0.931 . S
C565 C564 1.383 . S
C565 C566 1.394 . S
C566 C565 1.394 . S
C566 C567 1.378 . S
C566 H594 0.931 . S
C567 C562 1.377 . S
C567 C566 1.378 . S
C567 H595 0.931 . S
C568 O582 1.259 . S
C568 O583 1.270 . S
C569 O584 1.251 . S
C569 O585 1.251 . S
C570 Eu571 2.835 . S
C570 C572 1.500 . S
C570 O586 1.257 . S
C570 O587 1.260 . S
Eu571 C570 2.835 . S
Eu571 O583 2.355 . S
Eu571 O585 2.374 . S
Eu571 O586 2.473 . S
Eu571 O587 2.480 . S
Eu571 O588 2.430 . S
Eu571 O589 2.670 . S
Eu571 O590 2.394 . S
C572 C570 1.500 . S
C572 C573 1.377 . S
C572 C577 1.377 . S
C573 C572 1.377 . S
C573 C574 1.395 . S
C573 H596 0.931 . S
C574 C573 1.395 . S
C574 C575 1.383 . S
C574 H597 0.931 . S
C575 C574 1.383 . S
C575 C576 1.394 . S
C576 C575 1.394 . S
C576 C577 1.378 . S
C576 H598 0.931 . S
C577 C572 1.377 . S
C577 C576 1.378 . S
C577 H599 0.931 . S
C578 O588 1.259 . S
C578 O589 1.270 . S
C579 O590 1.251 . S
C579 O591 1.251 . S
O580 C560 1.257 . S
O580 Eu561 2.473 . S
O581 C560 1.260 . S
O581 Eu561 2.480 . S
O582 Eu561 2.430 . S
O582 C568 1.259 . S
O583 Eu561 2.670 . S
O583 C568 1.270 . S
O583 Eu571 2.355 . S
O584 Eu561 2.394 . S
O584 C569 1.251 . S
O585 C569 1.251 . S
O585 Eu571 2.374 . S
O586 C570 1.257 . S
O586 Eu571 2.473 . S
O587 C570 1.260 . S
O587 Eu571 2.480 . S
O588 Eu571 2.430 . S
O588 C578 1.259 . S
O589 Eu561 2.355 . S
O589 Eu571 2.670 . S
O589 C578 1.270 . S
O590 Eu571 2.394 . S
O590 C579 1.251 . S
O591 Eu561 2.374 . S
O591 C579 1.251 . S
H592 C563 0.931 . S
H593 C564 0.931 . S
H594 C566 0.931 . S
H595 C567 0.931 . S
H596 C573 0.931 . S
H597 C574 0.931 . S
H598 C576 0.931 . S
H599 C577 0.931 . S
C600 Eu601 2.835 . S
C600 C602 1.500 . S
C600 O620 1.257 . S
C600 O621 1.260 . S
Eu601 C600 2.835 . S
Eu601 O620 2.473 . S
Eu601 O621 2.480 . S
Eu601 O622 2.430 . S
Eu601 O623 2.670 . S
Eu601 O624 2.394 . S
Eu601 O629 2.355 . S
Eu601 O631 2.374 . S
C602 C600 1.500 . S
C602 C603 1.377 . S
C602 C607 1.377 . S
C603 C602 1.377 . S
C603 C604 1.395 . S
C603 H632 0.931 . S
C604 C603 1.395 . S
C604 C605 1.383 . S
C604 H633 0.931 . S
C605 C604 1.383 . S
C605 C606 1.394 . S
C606 C605 1.394 . S
C606 C607 1.378 . S
C606 H634 0.931 . S
C607 C602 1.377 . S
C607 C606 1.378 . S
C607 H635 0.931 . S
C608 O622 1.259 . S
C608 O623 1.270 . S
C609 O624 1.251 . S
C609 O625 1.251 . S
C610 Eu611 2.835 . S
C610 C612 1.500 . S
C610 O626 1.257 . S
C610 O627 1.260 . S
Eu611 C610 2.835 . S
Eu611 O623 2.355 . S
Eu611 O625 2.374 . S
Eu611 O626 2.473 . S
Eu611 O627 2.480 . S
Eu611 O628 2.430 . S
Eu611 O629 2.670 . S
Eu611 O630 2.394 . S
C612 C610 1.500 . S
C612 C613 1.377 . S
C612 C617 1.377 . S
C613 C612 1.377 . S
C613 C614 1.395 . S
C613 H636 0.931 . S
C614 C613 1.395 . S
C614 C615 1.383 . S
C614 H637 0.931 . S
C615 C614 1.383 . S
C615 C616 1.394 . S
C616 C615 1.394 . S
C616 C617 1.378 . S
C616 H638 0.931 . S
C617 C612 1.377 . S
C617 C616 1.378 . S
C617 H639 0.931 . S
C618 O628 1.259 . S
C618 O629 1.270 . S
C619 O630 1.251 . S
C619 O631 1.251 . S
O620 C600 1.257 . S
O620 Eu601 2.473 . S
O621 C600 1.260 . S
O621 Eu601 2.480 . S
O622 Eu601 2.430 . S
O622 C608 1.259 . S
O623 Eu601 2.670 . S
O623 C608 1.270 . S
O623 Eu611 2.355 . S
O624 Eu601 2.394 . S
O624 C609 1.251 . S
O625 C609 1.251 . S
O625 Eu611 2.374 . S
O626 C610 1.257 . S
O626 Eu611 2.473 . S
O627 C610 1.260 . S
O627 Eu611 2.480 . S
O628 Eu611 2.430 . S
O628 C618 1.259 . S
O629 Eu601 2.355 . S
O629 Eu611 2.670 . S
O629 C618 1.270 . S
O630 Eu611 2.394 . S
O630 C619 1.251 . S
O631 Eu601 2.374 . S
O631 C619 1.251 . S
H632 C603 0.931 . S
H633 C604 0.931 . S
H634 C606 0.931 . S
H635 C607 0.931 . S
H636 C613 0.931 . S
H637 C614 0.931 . S
H638 C616 0.931 . S
H639 C617 0.931 . S
C640 C641 1.349 . S
C640 C642 1.327 . S
C640 H665 0.950 . S
C641 C640 1.349 . S
C641 C657 1.349 . S
C642 C640 1.327 . S
C642 C661 1.429 . S
C642 H666 0.950 . S
C643 C660 1.574 . S
C643 C662 1.368 . S
C643 H667 0.949 . S
H644 C648 0.949 . S
C645 C646 1.349 . S
C645 C647 1.327 . S
C645 H668 0.950 . S
C646 C645 1.349 . S
C646 C658 1.349 . S
C647 C645 1.327 . S
C647 C663 1.429 . S
C647 H669 0.950 . S
C648 H644 0.949 . S
C648 C656 1.574 . S
C648 C664 1.368 . S
H649 C657 0.950 . S
H650 C655 0.950 . S
H651 C656 0.949 . S
H652 C658 0.950 . S
H653 C659 0.950 . S
H654 C660 0.949 1_545 S
C655 H650 0.950 . S
C655 C657 1.327 . S
C655 C661 1.429 . S
C656 C648 1.574 . S
C656 H651 0.949 . S
C656 C662 1.368 . S
C657 C641 1.349 . S
C657 H649 0.950 . S
C657 C655 1.327 . S
C658 C646 1.349 . S
C658 H652 0.950 . S
C658 C659 1.327 . S
C659 H653 0.950 . S
C659 C658 1.327 . S
C659 C663 1.429 . S
C660 C643 1.574 . S
C660 H654 0.949 1_565 S
C660 C664 1.368 . S
C661 C642 1.429 . S
C661 C655 1.429 . S
C661 C662 1.523 . S
C662 C643 1.368 . S
C662 C656 1.368 . S
C662 C661 1.523 . S
C663 C647 1.429 . S
C663 C659 1.429 . S
C663 C664 1.523 1_545 S
C664 C648 1.368 . S
C664 C660 1.368 . S
C664 C663 1.523 1_565 S
H665 C640 0.950 . S
H666 C642 0.950 . S
H667 C643 0.949 . S
H668 C645 0.950 . S
H669 C647 0.950 . S
C670 C671 1.349 . S
C670 C672 1.327 . S
C670 H695 0.950 . S
C671 C670 1.349 . S
C671 C687 1.349 . S
C672 C670 1.327 . S
C672 C691 1.429 . S
C672 H696 0.950 . S
C673 C690 1.574 . S
C673 C692 1.368 . S
C673 H697 0.949 . S
H674 C678 0.949 . S
C675 C676 1.349 . S
C675 C677 1.327 . S
C675 H698 0.950 . S
C676 C675 1.349 . S
C676 C688 1.349 . S
C677 C675 1.327 . S
C677 C693 1.429 . S
C677 H699 0.950 . S
C678 H674 0.949 . S
C678 C686 1.574 . S
C678 C694 1.368 . S
H679 C687 0.950 . S
H680 C685 0.950 . S
H681 C686 0.949 . S
H682 C688 0.950 . S
H683 C689 0.950 . S
H684 C690 0.949 1_455 S
C685 H680 0.950 . S
C685 C687 1.327 . S
C685 C691 1.429 . S
C686 C678 1.574 . S
C686 H681 0.949 . S
C686 C692 1.368 . S
C687 C671 1.349 . S
C687 H679 0.950 . S
C687 C685 1.327 . S
C688 C676 1.349 . S
C688 H682 0.950 . S
C688 C689 1.327 . S
C689 H683 0.950 . S
C689 C688 1.327 . S
C689 C693 1.429 . S
C690 C673 1.574 . S
C690 H684 0.949 1_655 S
C690 C694 1.368 . S
C691 C672 1.429 . S
C691 C685 1.429 . S
C691 C692 1.523 . S
C692 C673 1.368 . S
C692 C686 1.368 . S
C692 C691 1.523 . S
C693 C677 1.429 . S
C693 C689 1.429 . S
C693 C694 1.523 1_455 S
C694 C678 1.368 . S
C694 C690 1.368 . S
C694 C693 1.523 1_655 S
H695 C670 0.950 . S
H696 C672 0.950 . S
H697 C673 0.949 . S
H698 C675 0.950 . S
H699 C677 0.950 . S
C700 C701 1.349 . S
C700 C702 1.327 . S
C700 H725 0.950 . S
C701 C700 1.349 . S
C701 C717 1.349 . S
C702 C700 1.327 . S
C702 C721 1.429 . S
C702 H726 0.950 . S
C703 C720 1.574 . S
C703 C722 1.368 . S
C703 H727 0.949 . S
H704 C708 0.949 . S
C705 C706 1.349 . S
C705 C707 1.327 . S
C705 H728 0.950 . S
C706 C705 1.349 . S
C706 C718 1.349 . S
C707 C705 1.327 . S
C707 C723 1.429 . S
C707 H729 0.950 . S
C708 H704 0.949 . S
C708 C716 1.574 . S
C708 C724 1.368 . S
H709 C717 0.950 . S
H710 C715 0.950 . S
H711 C716 0.949 1_565 S
H712 C718 0.950 . S
H713 C719 0.950 . S
H714 C720 0.949 . S
C715 H710 0.950 . S
C715 C717 1.327 . S
C715 C721 1.429 . S
C716 C708 1.574 . S
C716 H711 0.949 1_545 S
C716 C722 1.368 . S
C717 C701 1.349 . S
C717 H709 0.950 . S
C717 C715 1.327 . S
C718 C706 1.349 . S
C718 H712 0.950 . S
C718 C719 1.327 . S
C719 H713 0.950 . S
C719 C718 1.327 . S
C719 C723 1.429 . S
C720 C703 1.574 . S
C720 H714 0.949 . S
C720 C724 1.368 . S
C721 C702 1.429 . S
C721 C715 1.429 . S
C721 C722 1.523 1_565 S
C722 C703 1.368 . S
C722 C716 1.368 . S
C722 C721 1.523 1_545 S
C723 C707 1.429 . S
C723 C719 1.429 . S
C723 C724 1.523 . S
C724 C708 1.368 . S
C724 C720 1.368 . S
C724 C723 1.523 . S
H725 C700 0.950 . S
H726 C702 0.950 . S
H727 C703 0.949 . S
H728 C705 0.950 . S
H729 C707 0.950 . S
C730 C731 1.349 . S
C730 C732 1.327 . S
C730 H755 0.950 . S
C731 C730 1.349 . S
C731 C747 1.349 . S
C732 C730 1.327 . S
C732 C751 1.429 . S
C732 H756 0.950 . S
C733 C750 1.574 . S
C733 C752 1.368 . S
C733 H757 0.949 1_455 S
H734 C738 0.949 . S
C735 C736 1.349 . S
C735 C737 1.327 . S
C735 H758 0.950 . S
C736 C735 1.349 . S
C736 C748 1.349 . S
C737 C735 1.327 . S
C737 C753 1.429 . S
C737 H759 0.950 . S
C738 H734 0.949 . S
C738 C746 1.574 . S
C738 C754 1.368 . S
H739 C747 0.950 . S
H740 C745 0.950 . S
H741 C746 0.949 . S
H742 C748 0.950 . S
H743 C749 0.950 . S
H744 C750 0.949 . S
C745 H740 0.950 . S
C745 C747 1.327 . S
C745 C751 1.429 . S
C746 C738 1.574 . S
C746 H741 0.949 . S
C746 C752 1.368 . S
C747 C731 1.349 . S
C747 H739 0.950 . S
C747 C745 1.327 . S
C748 C736 1.349 . S
C748 H742 0.950 . S
C748 C749 1.327 . S
C749 H743 0.950 . S
C749 C748 1.327 . S
C749 C753 1.429 . S
C750 C733 1.574 . S
C750 H744 0.949 . S
C750 C754 1.368 . S
C751 C732 1.429 . S
C751 C745 1.429 . S
C751 C752 1.523 1_655 S
C752 C733 1.368 . S
C752 C746 1.368 . S
C752 C751 1.523 1_455 S
C753 C737 1.429 . S
C753 C749 1.429 . S
C753 C754 1.523 . S
C754 C738 1.368 . S
C754 C750 1.368 . S
C754 C753 1.523 . S
H755 C730 0.950 . S
H756 C732 0.950 . S
H757 C733 0.949 1_655 S
H758 C735 0.950 . S
H759 C737 0.950 . S
C760 C761 1.349 . S
C760 C762 1.327 . S
C760 H785 0.950 . S
C761 C760 1.349 . S
C761 C777 1.349 . S
C762 C760 1.327 . S
C762 C781 1.429 . S
C762 H786 0.950 . S
C763 C780 1.574 . S
C763 C782 1.368 1_556 S
C763 H787 0.949 . S
H764 C768 0.949 . S
C765 C766 1.349 . S
C765 C767 1.327 . S
C765 H788 0.950 . S
C766 C765 1.349 . S
C766 C778 1.349 . S
C767 C765 1.327 . S
C767 C783 1.429 . S
C767 H789 0.950 . S
C768 H764 0.949 . S
C768 C776 1.574 . S
C768 C784 1.368 . S
H769 C777 0.950 . S
H770 C775 0.950 . S
H771 C776 0.949 . S
H772 C778 0.950 1_554 S
H773 C779 0.950 . S
H774 C780 0.949 . S
C775 H770 0.950 . S
C775 C777 1.327 . S
C775 C781 1.429 . S
C776 C768 1.574 . S
C776 H771 0.949 . S
C776 C782 1.368 . S
C777 C761 1.349 . S
C777 H769 0.950 . S
C777 C775 1.327 . S
C778 C766 1.349 . S
C778 H772 0.950 1_556 S
C778 C779 1.327 1_556 S
C779 H773 0.950 . S
C779 C778 1.327 1_554 S
C779 C783 1.429 1_554 S
C780 C763 1.574 . S
C780 H774 0.949 . S
C780 C784 1.368 1_556 S
C781 C762 1.429 . S
C781 C775 1.429 . S
C781 C782 1.523 . S
C782 C763 1.368 1_554 S
C782 C776 1.368 . S
C782 C781 1.523 . S
C783 C767 1.429 . S
C783 C779 1.429 1_556 S
C783 C784 1.523 1_556 S
C784 C768 1.368 . S
C784 C780 1.368 1_554 S
C784 C783 1.523 1_554 S
H785 C760 0.950 . S
H786 C762 0.950 . S
H787 C763 0.949 . S
H788 C765 0.950 . S
H789 C767 0.950 . S
C790 C791 1.349 . S
C790 C792 1.327 . S
C790 H815 0.950 . S
C791 C790 1.349 . S
C791 C807 1.349 . S
C792 C790 1.327 . S
C792 C811 1.429 . S
C792 H816 0.950 1_554 S
C793 C810 1.574 . S
C793 C812 1.368 . S
C793 H817 0.949 1_556 S
H794 C798 0.949 . S
C795 C796 1.349 . S
C795 C797 1.327 . S
C795 H818 0.950 . S
C796 C795 1.349 . S
C796 C808 1.349 . S
C797 C795 1.327 . S
C797 C813 1.429 . S
C797 H819 0.950 . S
C798 H794 0.949 . S
C798 C806 1.574 . S
C798 C814 1.368 . S
H799 C807 0.950 . S
H800 C805 0.950 . S
H801 C806 0.949 . S
H802 C808 0.950 . S
H803 C809 0.950 . S
H804 C810 0.949 . S
C805 H800 0.950 . S
C805 C807 1.327 . S
C805 C811 1.429 . S
C806 C798 1.574 . S
C806 H801 0.949 . S
C806 C812 1.368 . S
C807 C791 1.349 . S
C807 H799 0.950 . S
C807 C805 1.327 . S
C808 C796 1.349 . S
C808 H802 0.950 . S
C808 C809 1.327 . S
C809 H803 0.950 . S
C809 C808 1.327 . S
C809 C813 1.429 . S
C810 C793 1.574 . S
C810 H804 0.949 . S
C810 C814 1.368 . S
C811 C792 1.429 . S
C811 C805 1.429 . S
C811 C812 1.523 1_554 S
C812 C793 1.368 . S
C812 C806 1.368 . S
C812 C811 1.523 1_556 S
C813 C797 1.429 . S
C813 C809 1.429 . S
C813 C814 1.523 . S
C814 C798 1.368 . S
C814 C810 1.368 . S
C814 C813 1.523 . S
H815 C790 0.950 . S
H816 C792 0.950 1_556 S
H817 C793 0.949 1_554 S
H818 C795 0.950 . S
H819 C797 0.950 . S
C820 C821 1.349 . S
C820 C822 1.327 . S
C820 H845 0.950 . S
C821 C820 1.349 . S
C821 C837 1.349 . S
C822 C820 1.327 . S
C822 C841 1.429 . S
C822 H846 0.950 . S
C823 C840 1.574 . S
C823 C842 1.368 . S
C823 H847 0.949 . S
H824 C828 0.949 . S
C825 C826 1.349 . S
C825 C827 1.327 1_556 S
C825 H848 0.950 1_556 S
C826 C825 1.349 . S
C826 C838 1.349 . S
C827 C825 1.327 1_554 S
C827 C843 1.429 1_554 S
C827 H849 0.950 . S
C828 H824 0.949 . S
C828 C836 1.574 . S
C828 C844 1.368 1_556 S
H829 C837 0.950 . S
H830 C835 0.950 . S
H831 C836 0.949 . S
H832 C838 0.950 . S
H833 C839 0.950 . S
H834 C840 0.949 . S
C835 H830 0.950 . S
C835 C837 1.327 . S
C835 C841 1.429 . S
C836 C828 1.574 . S
C836 H831 0.949 . S
C836 C842 1.368 1_556 S
C837 C821 1.349 . S
C837 H829 0.950 . S
C837 C835 1.327 . S
C838 C826 1.349 . S
C838 H832 0.950 . S
C838 C839 1.327 . S
C839 H833 0.950 . S
C839 C838 1.327 . S
C839 C843 1.429 . S
C840 C823 1.574 . S
C840 H834 0.949 . S
C840 C844 1.368 . S
C841 C822 1.429 . S
C841 C835 1.429 . S
C841 C842 1.523 . S
C842 C823 1.368 . S
C842 C836 1.368 1_554 S
C842 C841 1.523 . S
C843 C827 1.429 1_556 S
C843 C839 1.429 . S
C843 C844 1.523 1_556 S
C844 C828 1.368 1_554 S
C844 C840 1.368 . S
C844 C843 1.523 1_554 S
H845 C820 0.950 . S
H846 C822 0.950 . S
H847 C823 0.949 . S
H848 C825 0.950 1_554 S
H849 C827 0.950 . S
C850 C851 1.349 . S
C850 C852 1.327 . S
C850 H875 0.950 . S
C851 C850 1.349 . S
C851 C867 1.349 . S
C852 C850 1.327 . S
C852 C871 1.429 . S
C852 H876 0.950 . S
C853 C870 1.574 . S
C853 C872 1.368 . S
C853 H877 0.949 . S
H854 C858 0.949 . S
C855 C856 1.349 . S
C855 C857 1.327 . S
C855 H878 0.950 . S
C856 C855 1.349 . S
C856 C868 1.349 . S
C857 C855 1.327 . S
C857 C873 1.429 . S
C857 H879 0.950 . S
C858 H854 0.949 . S
C858 C866 1.574 1_556 S
C858 C874 1.368 . S
H859 C867 0.950 . S
H860 C865 0.950 1_556 S
H861 C866 0.949 . S
H862 C868 0.950 . S
H863 C869 0.950 . S
H864 C870 0.949 . S
C865 H860 0.950 1_554 S
C865 C867 1.327 . S
C865 C871 1.429 . S
C866 C858 1.574 1_554 S
C866 H861 0.949 . S
C866 C872 1.368 1_554 S
C867 C851 1.349 . S
C867 H859 0.950 . S
C867 C865 1.327 . S
C868 C856 1.349 . S
C868 H862 0.950 . S
C868 C869 1.327 . S
C869 H863 0.950 . S
C869 C868 1.327 . S
C869 C873 1.429 . S
C870 C853 1.574 . S
C870 H864 0.949 . S
C870 C874 1.368 . S
C871 C852 1.429 . S
C871 C865 1.429 . S
C871 C872 1.523 1_554 S
C872 C853 1.368 . S
C872 C866 1.368 1_556 S
C872 C871 1.523 1_556 S
C873 C857 1.429 . S
C873 C869 1.429 . S
C873 C874 1.523 . S
C874 C858 1.368 . S
C874 C870 1.368 . S
C874 C873 1.523 . S
H875 C850 0.950 . S
H876 C852 0.950 . S
H877 C853 0.949 . S
H878 C855 0.950 . S
H879 C857 0.950 . S
C880 C881 1.349 . S
C880 C882 1.327 . S
C880 H905 0.950 . S
C881 C880 1.349 . S
C881 C897 1.349 . S
C882 C880 1.327 . S
C882 C901 1.429 . S
C882 H906 0.950 . S
C883 C900 1.574 . S
C883 C902 1.368 . S
C883 H907 0.949 . S
H884 C888 0.949 . S
C885 C886 1.349 . S
C885 C887 1.327 . S
C885 H908 0.950 . S
C886 C885 1.349 . S
C886 C898 1.349 . S
C887 C885 1.327 . S
C887 C903 1.429 . S
C887 H909 0.950 . S
C888 H884 0.949 . S
C888 C896 1.574 . S
C888 C904 1.368 . S
H889 C897 0.950 . S
H890 C895 0.950 . S
H891 C896 0.949 . S
H892 C898 0.950 . S
H893 C899 0.950 . S
H894 C900 0.949 . S
C895 H890 0.950 . S
C895 C897 1.327 . S
C895 C901 1.429 . S
C896 C888 1.574 . S
C896 H891 0.949 . S
C896 C902 1.368 . S
C897 C881 1.349 . S
C897 H889 0.950 . S
C897 C895 1.327 . S
C898 C886 1.349 . S
C898 H892 0.950 . S
C898 C899 1.327 . S
C899 H893 0.950 . S
C899 C898 1.327 . S
C899 C903 1.429 . S
C900 C883 1.574 . S
C900 H894 0.949 . S
C900 C904 1.368 . S
C901 C882 1.429 . S
C901 C895 1.429 . S
C901 C902 1.523 . S
C902 C883 1.368 . S
C902 C896 1.368 . S
C902 C901 1.523 . S
C903 C887 1.429 . S
C903 C899 1.429 . S
C903 C904 1.523 . S
C904 C888 1.368 . S
C904 C900 1.368 . S
C904 C903 1.523 . S
H905 C880 0.950 . S
H906 C882 0.950 . S
H907 C883 0.949 . S
H908 C885 0.950 . S
H909 C887 0.950 . S
C910 C911 1.349 . S
C910 C912 1.327 . S
C910 H935 0.950 . S
C911 C910 1.349 . S
C911 C927 1.349 . S
C912 C910 1.327 . S
C912 C931 1.429 . S
C912 H936 0.950 . S
C913 C930 1.574 . S
C913 C932 1.368 . S
C913 H937 0.949 . S
H914 C918 0.949 . S
C915 C916 1.349 . S
C915 C917 1.327 . S
C915 H938 0.950 . S
C916 C915 1.349 . S
C916 C928 1.349 . S
C917 C915 1.327 . S
C917 C933 1.429 . S
C917 H939 0.950 . S
C918 H914 0.949 . S
C918 C926 1.574 . S
C918 C934 1.368 . S
H919 C927 0.950 . S
H920 C925 0.950 . S
H921 C926 0.949 . S
H922 C928 0.950 . S
H923 C929 0.950 . S
H924 C930 0.949 . S
C925 H920 0.950 . S
C925 C927 1.327 . S
C925 C931 1.429 . S
C926 C918 1.574 . S
C926 H921 0.949 . S
C926 C932 1.368 . S
C927 C911 1.349 . S
C927 H919 0.950 . S
C927 C925 1.327 . S
C928 C916 1.349 . S
C928 H922 0.950 . S
C928 C929 1.327 . S
C929 H923 0.950 . S
C929 C928 1.327 . S
C929 C933 1.429 . S
C930 C913 1.574 . S
C930 H924 0.949 . S
C930 C934 1.368 . S
C931 C912 1.429 . S
C931 C925 1.429 . S
C931 C932 1.523 . S
C932 C913 1.368 . S
C932 C926 1.368 . S
C932 C931 1.523 . S
C933 C917 1.429 . S
C933 C929 1.429 . S
C933 C934 1.523 . S
C934 C918 1.368 . S
C934 C930 1.368 . S
C934 C933 1.523 . S
H935 C910 0.950 . S
H936 C912 0.950 . S
H937 C913 0.949 . S
H938 C915 0.950 . S
H939 C917 0.950 . S
C940 C941 1.349 . S
C940 C942 1.327 . S
C940 H965 0.950 . S
C941 C940 1.349 . S
C941 C957 1.349 . S
C942 C940 1.327 . S
C942 C961 1.429 . S
C942 H966 0.950 . S
C943 C960 1.574 . S
C943 C962 1.368 . S
C943 H967 0.949 . S
H944 C948 0.949 . S
C945 C946 1.349 . S
C945 C947 1.327 . S
C945 H968 0.950 . S
C946 C945 1.349 . S
C946 C958 1.349 . S
C947 C945 1.327 . S
C947 C963 1.429 . S
C947 H969 0.950 . S
C948 H944 0.949 . S
C948 C956 1.574 . S
C948 C964 1.368 . S
H949 C957 0.950 . S
H950 C955 0.950 . S
H951 C956 0.949 . S
H952 C958 0.950 . S
H953 C959 0.950 . S
H954 C960 0.949 . S
C955 H950 0.950 . S
C955 C957 1.327 . S
C955 C961 1.429 . S
C956 C948 1.574 . S
C956 H951 0.949 . S
C956 C962 1.368 . S
C957 C941 1.349 . S
C957 H949 0.950 . S
C957 C955 1.327 . S
C958 C946 1.349 . S
C958 H952 0.950 . S
C958 C959 1.327 . S
C959 H953 0.950 . S
C959 C958 1.327 . S
C959 C963 1.429 . S
C960 C943 1.574 . S
C960 H954 0.949 . S
C960 C964 1.368 . S
C961 C942 1.429 . S
C961 C955 1.429 . S
C961 C962 1.523 . S
C962 C943 1.368 . S
C962 C956 1.368 . S
C962 C961 1.523 . S
C963 C947 1.429 . S
C963 C959 1.429 . S
C963 C964 1.523 . S
C964 C948 1.368 . S
C964 C960 1.368 . S
C964 C963 1.523 . S
H965 C940 0.950 . S
H966 C942 0.950 . S
H967 C943 0.949 . S
H968 C945 0.950 . S
H969 C947 0.950 . S
C970 C971 1.349 . S
C970 C972 1.327 . S
C970 H995 0.950 . S
C971 C970 1.349 . S
C971 C987 1.349 . S
C972 C970 1.327 . S
C972 C991 1.429 . S
C972 H996 0.950 . S
C973 C990 1.574 . S
C973 C992 1.368 . S
C973 H997 0.949 . S
H974 C978 0.949 . S
C975 C976 1.349 . S
C975 C977 1.327 . S
C975 H998 0.950 . S
C976 C975 1.349 . S
C976 C988 1.349 . S
C977 C975 1.327 . S
C977 C993 1.429 . S
C977 H999 0.950 . S
C978 H974 0.949 . S
C978 C986 1.574 . S
C978 C994 1.368 . S
H979 C987 0.950 . S
H980 C985 0.950 . S
H981 C986 0.949 . S
H982 C988 0.950 . S
H983 C989 0.950 . S
H984 C990 0.949 . S
C985 H980 0.950 . S
C985 C987 1.327 . S
C985 C991 1.429 . S
C986 C978 1.574 . S
C986 H981 0.949 . S
C986 C992 1.368 . S
C987 C971 1.349 . S
C987 H979 0.950 . S
C987 C985 1.327 . S
C988 C976 1.349 . S
C988 H982 0.950 . S
C988 C989 1.327 . S
C989 H983 0.950 . S
C989 C988 1.327 . S
C989 C993 1.429 . S
C990 C973 1.574 . S
C990 H984 0.949 . S
C990 C994 1.368 . S
C991 C972 1.429 . S
C991 C985 1.429 . S
C991 C992 1.523 . S
C992 C973 1.368 . S
C992 C986 1.368 . S
C992 C991 1.523 . S
C993 C977 1.429 . S
C993 C989 1.429 . S
C993 C994 1.523 . S
C994 C978 1.368 . S
C994 C990 1.368 . S
C994 C993 1.523 . S
H995 C970 0.950 . S
H996 C972 0.950 . S
H997 C973 0.949 . S
H998 C975 0.950 . S
H999 C977 0.950 . S
C1000 C1001 1.349 . S
C1000 C1002 1.327 . S
C1000 H1025 0.950 . S
C1001 C1000 1.349 . S
C1001 C1017 1.349 . S
C1002 C1000 1.327 . S
C1002 C1021 1.429 . S
C1002 H1026 0.950 . S
C1003 C1020 1.574 . S
C1003 C1022 1.368 . S
C1003 H1027 0.949 1_545 S
H1004 C1008 0.949 . S
C1005 C1006 1.349 . S
C1005 C1007 1.327 . S
C1005 H1028 0.950 . S
C1006 C1005 1.349 . S
C1006 C1018 1.349 . S
C1007 C1005 1.327 . S
C1007 C1023 1.429 . S
C1007 H1029 0.950 . S
C1008 H1004 0.949 . S
C1008 C1016 1.574 . S
C1008 C1024 1.368 . S
H1009 C1017 0.950 . S
H1010 C1015 0.950 . S
H1011 C1016 0.949 . S
H1012 C1018 0.950 . S
H1013 C1019 0.950 . S
H1014 C1020 0.949 . S
C1015 H1010 0.950 . S
C1015 C1017 1.327 . S
C1015 C1021 1.429 . S
C1016 C1008 1.574 . S
C1016 H1011 0.949 . S
C1016 C1022 1.368 . S
C1017 C1001 1.349 . S
C1017 H1009 0.950 . S
C1017 C1015 1.327 . S
C1018 C1006 1.349 . S
C1018 H1012 0.950 . S
C1018 C1019 1.327 . S
C1019 H1013 0.950 . S
C1019 C1018 1.327 . S
C1019 C1023 1.429 . S
C1020 C1003 1.574 . S
C1020 H1014 0.949 . S
C1020 C1024 1.368 . S
C1021 C1002 1.429 . S
C1021 C1015 1.429 . S
C1021 C1022 1.523 1_565 S
C1022 C1003 1.368 . S
C1022 C1016 1.368 . S
C1022 C1021 1.523 1_545 S
C1023 C1007 1.429 . S
C1023 C1019 1.429 . S
C1023 C1024 1.523 . S
C1024 C1008 1.368 . S
C1024 C1020 1.368 . S
C1024 C1023 1.523 . S
H1025 C1000 0.950 . S
H1026 C1002 0.950 . S
H1027 C1003 0.949 1_565 S
H1028 C1005 0.950 . S
H1029 C1007 0.950 . S
C1030 C1031 1.349 . S
C1030 C1032 1.327 . S
C1030 H1055 0.950 . S
C1031 C1030 1.349 . S
C1031 C1047 1.349 . S
C1032 C1030 1.327 . S
C1032 C1051 1.429 . S
C1032 H1056 0.950 . S
C1033 C1050 1.574 . S
C1033 C1052 1.368 . S
C1033 H1057 0.949 . S
H1034 C1038 0.949 . S
C1035 C1036 1.349 . S
C1035 C1037 1.327 . S
C1035 H1058 0.950 . S
C1036 C1035 1.349 . S
C1036 C1048 1.349 . S
C1037 C1035 1.327 . S
C1037 C1053 1.429 . S
C1037 H1059 0.950 . S
C1038 H1034 0.949 . S
C1038 C1046 1.574 . S
C1038 C1054 1.368 . S
H1039 C1047 0.950 . S
H1040 C1045 0.950 . S
H1041 C1046 0.949 . S
H1042 C1048 0.950 . S
H1043 C1049 0.950 . S
H1044 C1050 0.949 1_655 S
C1045 H1040 0.950 . S
C1045 C1047 1.327 . S
C1045 C1051 1.429 . S
C1046 C1038 1.574 . S
C1046 H1041 0.949 . S
C1046 C1052 1.368 . S
C1047 C1031 1.349 . S
C1047 H1039 0.950 . S
C1047 C1045 1.327 . S
C1048 C1036 1.349 . S
C1048 H1042 0.950 . S
C1048 C1049 1.327 . S
C1049 H1043 0.950 . S
C1049 C1048 1.327 . S
C1049 C1053 1.429 . S
C1050 C1033 1.574 . S
C1050 H1044 0.949 1_455 S
C1050 C1054 1.368 . S
C1051 C1032 1.429 . S
C1051 C1045 1.429 . S
C1051 C1052 1.523 . S
C1052 C1033 1.368 . S
C1052 C1046 1.368 . S
C1052 C1051 1.523 . S
C1053 C1037 1.429 . S
C1053 C1049 1.429 . S
C1053 C1054 1.523 1_655 S
C1054 C1038 1.368 . S
C1054 C1050 1.368 . S
C1054 C1053 1.523 1_455 S
H1055 C1030 0.950 . S
H1056 C1032 0.950 . S
H1057 C1033 0.949 . S
H1058 C1035 0.950 . S
H1059 C1037 0.950 . S
C1060 C1061 1.349 . S
C1060 C1062 1.327 . S
C1060 H1085 0.950 . S
C1061 C1060 1.349 . S
C1061 C1077 1.349 . S
C1062 C1060 1.327 . S
C1062 C1081 1.429 . S
C1062 H1086 0.950 . S
C1063 C1080 1.574 . S
C1063 C1082 1.368 . S
C1063 H1087 0.949 . S
H1064 C1068 0.949 . S
C1065 C1066 1.349 . S
C1065 C1067 1.327 . S
C1065 H1088 0.950 . S
C1066 C1065 1.349 . S
C1066 C1078 1.349 . S
C1067 C1065 1.327 . S
C1067 C1083 1.429 . S
C1067 H1089 0.950 . S
C1068 H1064 0.949 . S
C1068 C1076 1.574 . S
C1068 C1084 1.368 . S
H1069 C1077 0.950 . S
H1070 C1075 0.950 . S
H1071 C1076 0.949 . S
H1072 C1078 0.950 . S
H1073 C1079 0.950 . S
H1074 C1080 0.949 1_545 S
C1075 H1070 0.950 . S
C1075 C1077 1.327 . S
C1075 C1081 1.429 . S
C1076 C1068 1.574 . S
C1076 H1071 0.949 . S
C1076 C1082 1.368 . S
C1077 C1061 1.349 . S
C1077 H1069 0.950 . S
C1077 C1075 1.327 . S
C1078 C1066 1.349 . S
C1078 H1072 0.950 . S
C1078 C1079 1.327 . S
C1079 H1073 0.950 . S
C1079 C1078 1.327 . S
C1079 C1083 1.429 . S
C1080 C1063 1.574 . S
C1080 H1074 0.949 1_565 S
C1080 C1084 1.368 . S
C1081 C1062 1.429 . S
C1081 C1075 1.429 . S
C1081 C1082 1.523 . S
C1082 C1063 1.368 . S
C1082 C1076 1.368 . S
C1082 C1081 1.523 . S
C1083 C1067 1.429 . S
C1083 C1079 1.429 . S
C1083 C1084 1.523 1_545 S
C1084 C1068 1.368 . S
C1084 C1080 1.368 . S
C1084 C1083 1.523 1_565 S
H1085 C1060 0.950 . S
H1086 C1062 0.950 . S
H1087 C1063 0.949 . S
H1088 C1065 0.950 . S
H1089 C1067 0.950 . S
C1090 C1091 1.349 . S
C1090 C1092 1.327 . S
C1090 H1115 0.950 . S
C1091 C1090 1.349 . S
C1091 C1107 1.349 . S
C1092 C1090 1.327 . S
C1092 C1111 1.429 . S
C1092 H1116 0.950 . S
C1093 C1110 1.574 . S
C1093 C1112 1.368 . S
C1093 H1117 0.949 1_655 S
H1094 C1098 0.949 . S
C1095 C1096 1.349 . S
C1095 C1097 1.327 . S
C1095 H1118 0.950 . S
C1096 C1095 1.349 . S
C1096 C1108 1.349 . S
C1097 C1095 1.327 . S
C1097 C1113 1.429 . S
C1097 H1119 0.950 . S
C1098 H1094 0.949 . S
C1098 C1106 1.574 . S
C1098 C1114 1.368 . S
H1099 C1107 0.950 . S
H1100 C1105 0.950 . S
H1101 C1106 0.949 . S
H1102 C1108 0.950 . S
H1103 C1109 0.950 . S
H1104 C1110 0.949 . S
C1105 H1100 0.950 . S
C1105 C1107 1.327 . S
C1105 C1111 1.429 . S
C1106 C1098 1.574 . S
C1106 H1101 0.949 . S
C1106 C1112 1.368 . S
C1107 C1091 1.349 . S
C1107 H1099 0.950 . S
C1107 C1105 1.327 . S
C1108 C1096 1.349 . S
C1108 H1102 0.950 . S
C1108 C1109 1.327 . S
C1109 H1103 0.950 . S
C1109 C1108 1.327 . S
C1109 C1113 1.429 . S
C1110 C1093 1.574 . S
C1110 H1104 0.949 . S
C1110 C1114 1.368 . S
C1111 C1092 1.429 . S
C1111 C1105 1.429 . S
C1111 C1112 1.523 1_455 S
C1112 C1093 1.368 . S
C1112 C1106 1.368 . S
C1112 C1111 1.523 1_655 S
C1113 C1097 1.429 . S
C1113 C1109 1.429 . S
C1113 C1114 1.523 . S
C1114 C1098 1.368 . S
C1114 C1110 1.368 . S
C1114 C1113 1.523 . S
H1115 C1090 0.950 . S
H1116 C1092 0.950 . S
H1117 C1093 0.949 1_455 S
H1118 C1095 0.950 . S
H1119 C1097 0.950 . S
C1120 C1121 1.349 . S
C1120 C1122 1.327 . S
C1120 H1145 0.950 . S
C1121 C1120 1.349 . S
C1121 C1137 1.349 . S
C1122 C1120 1.327 . S
C1122 C1141 1.429 . S
C1122 H1146 0.950 . S
C1123 C1140 1.574 . S
C1123 C1142 1.368 . S
C1123 H1147 0.949 . S
H1124 C1128 0.949 . S
C1125 C1126 1.349 . S
C1125 C1127 1.327 . S
C1125 H1148 0.950 . S
C1126 C1125 1.349 . S
C1126 C1138 1.349 . S
C1127 C1125 1.327 . S
C1127 C1143 1.429 . S
C1127 H1149 0.950 . S
C1128 H1124 0.949 . S
C1128 C1136 1.574 . S
C1128 C1144 1.368 . S
H1129 C1137 0.950 . S
H1130 C1135 0.950 . S
H1131 C1136 0.949 . S
H1132 C1138 0.950 . S
H1133 C1139 0.950 . S
H1134 C1140 0.949 . S
C1135 H1130 0.950 . S
C1135 C1137 1.327 . S
C1135 C1141 1.429 . S
C1136 C1128 1.574 . S
C1136 H1131 0.949 . S
C1136 C1142 1.368 . S
C1137 C1121 1.349 . S
C1137 H1129 0.950 . S
C1137 C1135 1.327 . S
C1138 C1126 1.349 . S
C1138 H1132 0.950 . S
C1138 C1139 1.327 . S
C1139 H1133 0.950 . S
C1139 C1138 1.327 . S
C1139 C1143 1.429 . S
C1140 C1123 1.574 . S
C1140 H1134 0.949 . S
C1140 C1144 1.368 . S
C1141 C1122 1.429 . S
C1141 C1135 1.429 . S
C1141 C1142 1.523 . S
C1142 C1123 1.368 . S
C1142 C1136 1.368 . S
C1142 C1141 1.523 . S
C1143 C1127 1.429 . S
C1143 C1139 1.429 . S
C1143 C1144 1.523 . S
C1144 C1128 1.368 . S
C1144 C1140 1.368 . S
C1144 C1143 1.523 . S
H1145 C1120 0.950 . S
H1146 C1122 0.950 . S
H1147 C1123 0.949 . S
H1148 C1125 0.950 . S
H1149 C1127 0.950 . S
C1150 C1151 1.349 . S
C1150 C1152 1.327 . S
C1150 H1175 0.950 . S
C1151 C1150 1.349 . S
C1151 C1167 1.349 . S
C1152 C1150 1.327 . S
C1152 C1171 1.429 . S
C1152 H1176 0.950 . S
C1153 C1170 1.574 . S
C1153 C1172 1.368 . S
C1153 H1177 0.949 . S
H1154 C1158 0.949 . S
C1155 C1156 1.349 . S
C1155 C1157 1.327 . S
C1155 H1178 0.950 . S
C1156 C1155 1.349 . S
C1156 C1168 1.349 . S
C1157 C1155 1.327 . S
C1157 C1173 1.429 . S
C1157 H1179 0.950 . S
C1158 H1154 0.949 . S
C1158 C1166 1.574 . S
C1158 C1174 1.368 . S
H1159 C1167 0.950 . S
H1160 C1165 0.950 . S
H1161 C1166 0.949 . S
H1162 C1168 0.950 . S
H1163 C1169 0.950 . S
H1164 C1170 0.949 . S
C1165 H1160 0.950 . S
C1165 C1167 1.327 . S
C1165 C1171 1.429 . S
C1166 C1158 1.574 . S
C1166 H1161 0.949 . S
C1166 C1172 1.368 . S
C1167 C1151 1.349 . S
C1167 H1159 0.950 . S
C1167 C1165 1.327 . S
C1168 C1156 1.349 . S
C1168 H1162 0.950 . S
C1168 C1169 1.327 . S
C1169 H1163 0.950 . S
C1169 C1168 1.327 . S
C1169 C1173 1.429 . S
C1170 C1153 1.574 . S
C1170 H1164 0.949 . S
C1170 C1174 1.368 . S
C1171 C1152 1.429 . S
C1171 C1165 1.429 . S
C1171 C1172 1.523 . S
C1172 C1153 1.368 . S
C1172 C1166 1.368 . S
C1172 C1171 1.523 . S
C1173 C1157 1.429 . S
C1173 C1169 1.429 . S
C1173 C1174 1.523 . S
C1174 C1158 1.368 . S
C1174 C1170 1.368 . S
C1174 C1173 1.523 . S
H1175 C1150 0.950 . S
H1176 C1152 0.950 . S
H1177 C1153 0.949 . S
H1178 C1155 0.950 . S
H1179 C1157 0.950 . S
C1180 C1181 1.349 . S
C1180 C1182 1.327 . S
C1180 H1205 0.950 . S
C1181 C1180 1.349 . S
C1181 C1197 1.349 . S
C1182 C1180 1.327 . S
C1182 C1201 1.429 . S
C1182 H1206 0.950 . S
C1183 C1200 1.574 . S
C1183 C1202 1.368 . S
C1183 H1207 0.949 . S
H1184 C1188 0.949 . S
C1185 C1186 1.349 . S
C1185 C1187 1.327 . S
C1185 H1208 0.950 . S
C1186 C1185 1.349 . S
C1186 C1198 1.349 . S
C1187 C1185 1.327 . S
C1187 C1203 1.429 . S
C1187 H1209 0.950 . S
C1188 H1184 0.949 . S
C1188 C1196 1.574 . S
C1188 C1204 1.368 . S
H1189 C1197 0.950 . S
H1190 C1195 0.950 . S
H1191 C1196 0.949 . S
H1192 C1198 0.950 . S
H1193 C1199 0.950 . S
H1194 C1200 0.949 . S
C1195 H1190 0.950 . S
C1195 C1197 1.327 . S
C1195 C1201 1.429 . S
C1196 C1188 1.574 . S
C1196 H1191 0.949 . S
C1196 C1202 1.368 . S
C1197 C1181 1.349 . S
C1197 H1189 0.950 . S
C1197 C1195 1.327 . S
C1198 C1186 1.349 . S
C1198 H1192 0.950 . S
C1198 C1199 1.327 . S
C1199 H1193 0.950 . S
C1199 C1198 1.327 . S
C1199 C1203 1.429 . S
C1200 C1183 1.574 . S
C1200 H1194 0.949 . S
C1200 C1204 1.368 . S
C1201 C1182 1.429 . S
C1201 C1195 1.429 . S
C1201 C1202 1.523 . S
C1202 C1183 1.368 . S
C1202 C1196 1.368 . S
C1202 C1201 1.523 . S
C1203 C1187 1.429 . S
C1203 C1199 1.429 . S
C1203 C1204 1.523 . S
C1204 C1188 1.368 . S
C1204 C1200 1.368 . S
C1204 C1203 1.523 . S
H1205 C1180 0.950 . S
H1206 C1182 0.950 . S
H1207 C1183 0.949 . S
H1208 C1185 0.950 . S
H1209 C1187 0.950 . S
C1210 C1211 1.349 . S
C1210 C1212 1.327 . S
C1210 H1235 0.950 . S
C1211 C1210 1.349 . S
C1211 C1227 1.349 . S
C1212 C1210 1.327 . S
C1212 C1231 1.429 . S
C1212 H1236 0.950 . S
C1213 C1230 1.574 . S
C1213 C1232 1.368 . S
C1213 H1237 0.949 . S
H1214 C1218 0.949 . S
C1215 C1216 1.349 . S
C1215 C1217 1.327 . S
C1215 H1238 0.950 . S
C1216 C1215 1.349 . S
C1216 C1228 1.349 . S
C1217 C1215 1.327 . S
C1217 C1233 1.429 . S
C1217 H1239 0.950 . S
C1218 H1214 0.949 . S
C1218 C1226 1.574 . S
C1218 C1234 1.368 . S
H1219 C1227 0.950 . S
H1220 C1225 0.950 . S
H1221 C1226 0.949 . S
H1222 C1228 0.950 . S
H1223 C1229 0.950 . S
H1224 C1230 0.949 . S
C1225 H1220 0.950 . S
C1225 C1227 1.327 . S
C1225 C1231 1.429 . S
C1226 C1218 1.574 . S
C1226 H1221 0.949 . S
C1226 C1232 1.368 . S
C1227 C1211 1.349 . S
C1227 H1219 0.950 . S
C1227 C1225 1.327 . S
C1228 C1216 1.349 . S
C1228 H1222 0.950 . S
C1228 C1229 1.327 . S
C1229 H1223 0.950 . S
C1229 C1228 1.327 . S
C1229 C1233 1.429 . S
C1230 C1213 1.574 . S
C1230 H1224 0.949 . S
C1230 C1234 1.368 . S
C1231 C1212 1.429 . S
C1231 C1225 1.429 . S
C1231 C1232 1.523 . S
C1232 C1213 1.368 . S
C1232 C1226 1.368 . S
C1232 C1231 1.523 . S
C1233 C1217 1.429 . S
C1233 C1229 1.429 . S
C1233 C1234 1.523 . S
C1234 C1218 1.368 . S
C1234 C1230 1.368 . S
C1234 C1233 1.523 . S
H1235 C1210 0.950 . S
H1236 C1212 0.950 . S
H1237 C1213 0.949 . S
H1238 C1215 0.950 . S
H1239 C1217 0.950 . S
C1240 C1241 1.349 . S
C1240 C1242 1.327 . S
C1240 H1265 0.950 . S
C1241 C1240 1.349 . S
C1241 C1257 1.349 . S
C1242 C1240 1.327 . S
C1242 C1261 1.429 . S
C1242 H1266 0.950 . S
C1243 C1260 1.574 . S
C1243 C1262 1.368 . S
C1243 H1267 0.949 . S
H1244 C1248 0.949 . S
C1245 C1246 1.349 . S
C1245 C1247 1.327 . S
C1245 H1268 0.950 . S
C1246 C1245 1.349 . S
C1246 C1258 1.349 . S
C1247 C1245 1.327 . S
C1247 C1263 1.429 . S
C1247 H1269 0.950 . S
C1248 H1244 0.949 . S
C1248 C1256 1.574 . S
C1248 C1264 1.368 . S
H1249 C1257 0.950 . S
H1250 C1255 0.950 . S
H1251 C1256 0.949 . S
H1252 C1258 0.950 . S
H1253 C1259 0.950 . S
H1254 C1260 0.949 . S
C1255 H1250 0.950 . S
C1255 C1257 1.327 . S
C1255 C1261 1.429 . S
C1256 C1248 1.574 . S
C1256 H1251 0.949 . S
C1256 C1262 1.368 . S
C1257 C1241 1.349 . S
C1257 H1249 0.950 . S
C1257 C1255 1.327 . S
C1258 C1246 1.349 . S
C1258 H1252 0.950 . S
C1258 C1259 1.327 . S
C1259 H1253 0.950 . S
C1259 C1258 1.327 . S
C1259 C1263 1.429 . S
C1260 C1243 1.574 . S
C1260 H1254 0.949 . S
C1260 C1264 1.368 . S
C1261 C1242 1.429 . S
C1261 C1255 1.429 . S
C1261 C1262 1.523 . S
C1262 C1243 1.368 . S
C1262 C1256 1.368 . S
C1262 C1261 1.523 . S
C1263 C1247 1.429 . S
C1263 C1259 1.429 . S
C1263 C1264 1.523 . S
C1264 C1248 1.368 . S
C1264 C1260 1.368 . S
C1264 C1263 1.523 . S
H1265 C1240 0.950 . S
H1266 C1242 0.950 . S
H1267 C1243 0.949 . S
H1268 C1245 0.950 . S
H1269 C1247 0.950 . S
C1270 C1271 1.349 . S
C1270 C1272 1.327 . S
C1270 H1295 0.950 . S
C1271 C1270 1.349 . S
C1271 C1287 1.349 . S
C1272 C1270 1.327 . S
C1272 C1291 1.429 . S
C1272 H1296 0.950 . S
C1273 C1290 1.574 . S
C1273 C1292 1.368 . S
C1273 H1297 0.949 . S
H1274 C1278 0.949 . S
C1275 C1276 1.349 . S
C1275 C1277 1.327 . S
C1275 H1298 0.950 . S
C1276 C1275 1.349 . S
C1276 C1288 1.349 . S
C1277 C1275 1.327 . S
C1277 C1293 1.429 . S
C1277 H1299 0.950 . S
C1278 H1274 0.949 . S
C1278 C1286 1.574 . S
C1278 C1294 1.368 . S
H1279 C1287 0.950 . S
H1280 C1285 0.950 . S
H1281 C1286 0.949 . S
H1282 C1288 0.950 . S
H1283 C1289 0.950 . S
H1284 C1290 0.949 . S
C1285 H1280 0.950 . S
C1285 C1287 1.327 . S
C1285 C1291 1.429 . S
C1286 C1278 1.574 . S
C1286 H1281 0.949 . S
C1286 C1292 1.368 . S
C1287 C1271 1.349 . S
C1287 H1279 0.950 . S
C1287 C1285 1.327 . S
C1288 C1276 1.349 . S
C1288 H1282 0.950 . S
C1288 C1289 1.327 . S
C1289 H1283 0.950 . S
C1289 C1288 1.327 . S
C1289 C1293 1.429 . S
C1290 C1273 1.574 . S
C1290 H1284 0.949 . S
C1290 C1294 1.368 . S
C1291 C1272 1.429 . S
C1291 C1285 1.429 . S
C1291 C1292 1.523 . S
C1292 C1273 1.368 . S
C1292 C1286 1.368 . S
C1292 C1291 1.523 . S
C1293 C1277 1.429 . S
C1293 C1289 1.429 . S
C1293 C1294 1.523 . S
C1294 C1278 1.368 . S
C1294 C1290 1.368 . S
C1294 C1293 1.523 . S
H1295 C1270 0.950 . S
H1296 C1272 0.950 . S
H1297 C1273 0.949 . S
H1298 C1275 0.950 . S
H1299 C1277 0.950 . S
C1300 C1301 1.349 . S
C1300 C1302 1.327 . S
C1300 H1325 0.950 . S
C1301 C1300 1.349 . S
C1301 C1317 1.349 . S
C1302 C1300 1.327 . S
C1302 C1321 1.429 . S
C1302 H1326 0.950 . S
C1303 C1320 1.574 . S
C1303 C1322 1.368 . S
C1303 H1327 0.949 . S
H1304 C1308 0.949 . S
C1305 C1306 1.349 . S
C1305 C1307 1.327 . S
C1305 H1328 0.950 . S
C1306 C1305 1.349 . S
C1306 C1318 1.349 . S
C1307 C1305 1.327 . S
C1307 C1323 1.429 . S
C1307 H1329 0.950 . S
C1308 H1304 0.949 . S
C1308 C1316 1.574 . S
C1308 C1324 1.368 . S
H1309 C1317 0.950 . S
H1310 C1315 0.950 . S
H1311 C1316 0.949 . S
H1312 C1318 0.950 . S
H1313 C1319 0.950 . S
H1314 C1320 0.949 . S
C1315 H1310 0.950 . S
C1315 C1317 1.327 . S
C1315 C1321 1.429 . S
C1316 C1308 1.574 . S
C1316 H1311 0.949 . S
C1316 C1322 1.368 . S
C1317 C1301 1.349 . S
C1317 H1309 0.950 . S
C1317 C1315 1.327 . S
C1318 C1306 1.349 . S
C1318 H1312 0.950 . S
C1318 C1319 1.327 . S
C1319 H1313 0.950 . S
C1319 C1318 1.327 . S
C1319 C1323 1.429 . S
C1320 C1303 1.574 . S
C1320 H1314 0.949 . S
C1320 C1324 1.368 . S
C1321 C1302 1.429 . S
C1321 C1315 1.429 . S
C1321 C1322 1.523 . S
C1322 C1303 1.368 . S
C1322 C1316 1.368 . S
C1322 C1321 1.523 . S
C1323 C1307 1.429 . S
C1323 C1319 1.429 . S
C1323 C1324 1.523 . S
C1324 C1308 1.368 . S
C1324 C1320 1.368 . S
C1324 C1323 1.523 . S
H1325 C1300 0.950 . S
H1326 C1302 0.950 . S
H1327 C1303 0.949 . S
H1328 C1305 0.950 . S
H1329 C1307 0.950 . S
C1330 C1331 1.349 . S
C1330 C1332 1.327 . S
C1330 H1355 0.950 . S
C1331 C1330 1.349 . S
C1331 C1347 1.349 . S
C1332 C1330 1.327 . S
C1332 C1351 1.429 . S
C1332 H1356 0.950 . S
C1333 C1350 1.574 . S
C1333 C1352 1.368 . S
C1333 H1357 0.949 . S
H1334 C1338 0.949 . S
C1335 C1336 1.349 . S
C1335 C1337 1.327 . S
C1335 H1358 0.950 . S
C1336 C1335 1.349 . S
C1336 C1348 1.349 . S
C1337 C1335 1.327 . S
C1337 C1353 1.429 . S
C1337 H1359 0.950 . S
C1338 H1334 0.949 . S
C1338 C1346 1.574 . S
C1338 C1354 1.368 . S
H1339 C1347 0.950 . S
H1340 C1345 0.950 . S
H1341 C1346 0.949 . S
H1342 C1348 0.950 . S
H1343 C1349 0.950 . S
H1344 C1350 0.949 . S
C1345 H1340 0.950 . S
C1345 C1347 1.327 . S
C1345 C1351 1.429 . S
C1346 C1338 1.574 . S
C1346 H1341 0.949 . S
C1346 C1352 1.368 . S
C1347 C1331 1.349 . S
C1347 H1339 0.950 . S
C1347 C1345 1.327 . S
C1348 C1336 1.349 . S
C1348 H1342 0.950 . S
C1348 C1349 1.327 . S
C1349 H1343 0.950 . S
C1349 C1348 1.327 . S
C1349 C1353 1.429 . S
C1350 C1333 1.574 . S
C1350 H1344 0.949 . S
C1350 C1354 1.368 . S
C1351 C1332 1.429 . S
C1351 C1345 1.429 . S
C1351 C1352 1.523 . S
C1352 C1333 1.368 . S
C1352 C1346 1.368 . S
C1352 C1351 1.523 . S
C1353 C1337 1.429 . S
C1353 C1349 1.429 . S
C1353 C1354 1.523 . S
C1354 C1338 1.368 . S
C1354 C1350 1.368 . S
C1354 C1353 1.523 . S
H1355 C1330 0.950 . S
H1356 C1332 0.950 . S
H1357 C1333 0.949 . S
H1358 C1335 0.950 . S
H1359 C1337 0.950 . S
C1360 C1361 1.349 . S
C1360 C1362 1.327 . S
C1360 H1385 0.950 . S
C1361 C1360 1.349 . S
C1361 C1377 1.349 . S
C1362 C1360 1.327 . S
C1362 C1381 1.429 . S
C1362 H1386 0.950 . S
C1363 C1380 1.574 . S
C1363 C1382 1.368 . S
C1363 H1387 0.949 . S
H1364 C1368 0.949 . S
C1365 C1366 1.349 . S
C1365 C1367 1.327 1_554 S
C1365 H1388 0.950 . S
C1366 C1365 1.349 . S
C1366 C1378 1.349 1_554 S
C1367 C1365 1.327 1_556 S
C1367 C1383 1.429 . S
C1367 H1389 0.950 . S
C1368 H1364 0.949 . S
C1368 C1376 1.574 . S
C1368 C1384 1.368 . S
H1369 C1377 0.950 . S
H1370 C1375 0.950 . S
H1371 C1376 0.949 . S
H1372 C1378 0.950 . S
H1373 C1379 0.950 . S
H1374 C1380 0.949 . S
C1375 H1370 0.950 . S
C1375 C1377 1.327 . S
C1375 C1381 1.429 . S
C1376 C1368 1.574 . S
C1376 H1371 0.949 . S
C1376 C1382 1.368 . S
C1377 C1361 1.349 . S
C1377 H1369 0.950 . S
C1377 C1375 1.327 . S
C1378 C1366 1.349 1_556 S
C1378 H1372 0.950 . S
C1378 C1379 1.327 . S
C1379 H1373 0.950 . S
C1379 C1378 1.327 . S
C1379 C1383 1.429 . S
C1380 C1363 1.574 . S
C1380 H1374 0.949 . S
C1380 C1384 1.368 . S
C1381 C1362 1.429 . S
C1381 C1375 1.429 . S
C1381 C1382 1.523 . S
C1382 C1363 1.368 . S
C1382 C1376 1.368 . S
C1382 C1381 1.523 . S
C1383 C1367 1.429 . S
C1383 C1379 1.429 . S
C1383 C1384 1.523 . S
C1384 C1368 1.368 . S
C1384 C1380 1.368 . S
C1384 C1383 1.523 . S
H1385 C1360 0.950 . S
H1386 C1362 0.950 . S
H1387 C1363 0.949 . S
H1388 C1365 0.950 . S
H1389 C1367 0.950 . S
C1390 C1391 1.349 . S
C1390 C1392 1.327 1_556 S
C1390 H1415 0.950 . S
C1391 C1390 1.349 . S
C1391 C1407 1.349 1_556 S
C1392 C1390 1.327 1_554 S
C1392 C1411 1.429 . S
C1392 H1416 0.950 . S
C1393 C1410 1.574 . S
C1393 C1412 1.368 . S
C1393 H1417 0.949 . S
H1394 C1398 0.949 . S
C1395 C1396 1.349 . S
C1395 C1397 1.327 . S
C1395 H1418 0.950 . S
C1396 C1395 1.349 . S
C1396 C1408 1.349 . S
C1397 C1395 1.327 . S
C1397 C1413 1.429 . S
C1397 H1419 0.950 . S
C1398 H1394 0.949 . S
C1398 C1406 1.574 . S
C1398 C1414 1.368 . S
H1399 C1407 0.950 . S
H1400 C1405 0.950 . S
H1401 C1406 0.949 . S
H1402 C1408 0.950 . S
H1403 C1409 0.950 . S
H1404 C1410 0.949 . S
C1405 H1400 0.950 . S
C1405 C1407 1.327 . S
C1405 C1411 1.429 . S
C1406 C1398 1.574 . S
C1406 H1401 0.949 . S
C1406 C1412 1.368 . S
C1407 C1391 1.349 1_554 S
C1407 H1399 0.950 . S
C1407 C1405 1.327 . S
C1408 C1396 1.349 . S
C1408 H1402 0.950 . S
C1408 C1409 1.327 . S
C1409 H1403 0.950 . S
C1409 C1408 1.327 . S
C1409 C1413 1.429 . S
C1410 C1393 1.574 . S
C1410 H1404 0.949 . S
C1410 C1414 1.368 . S
C1411 C1392 1.429 . S
C1411 C1405 1.429 . S
C1411 C1412 1.523 . S
C1412 C1393 1.368 . S
C1412 C1406 1.368 . S
C1412 C1411 1.523 . S
C1413 C1397 1.429 . S
C1413 C1409 1.429 . S
C1413 C1414 1.523 . S
C1414 C1398 1.368 . S
C1414 C1410 1.368 . S
C1414 C1413 1.523 . S
H1415 C1390 0.950 . S
H1416 C1392 0.950 . S
H1417 C1393 0.949 . S
H1418 C1395 0.950 . S
H1419 C1397 0.950 . S
C1420 C1421 1.349 . S
C1420 C1422 1.327 1_554 S
C1420 H1445 0.950 . S
C1421 C1420 1.349 . S
C1421 C1437 1.349 1_554 S
C1422 C1420 1.327 1_556 S
C1422 C1441 1.429 . S
C1422 H1446 0.950 . S
C1423 C1440 1.574 . S
C1423 C1442 1.368 . S
C1423 H1447 0.949 . S
H1424 C1428 0.949 . S
C1425 C1426 1.349 . S
C1425 C1427 1.327 . S
C1425 H1448 0.950 . S
C1426 C1425 1.349 . S
C1426 C1438 1.349 . S
C1427 C1425 1.327 . S
C1427 C1443 1.429 . S
C1427 H1449 0.950 . S
C1428 H1424 0.949 . S
C1428 C1436 1.574 . S
C1428 C1444 1.368 . S
H1429 C1437 0.950 . S
H1430 C1435 0.950 . S
H1431 C1436 0.949 . S
H1432 C1438 0.950 . S
H1433 C1439 0.950 . S
H1434 C1440 0.949 . S
C1435 H1430 0.950 . S
C1435 C1437 1.327 . S
C1435 C1441 1.429 . S
C1436 C1428 1.574 . S
C1436 H1431 0.949 . S
C1436 C1442 1.368 . S
C1437 C1421 1.349 1_556 S
C1437 H1429 0.950 . S
C1437 C1435 1.327 . S
C1438 C1426 1.349 . S
C1438 H1432 0.950 . S
C1438 C1439 1.327 . S
C1439 H1433 0.950 . S
C1439 C1438 1.327 . S
C1439 C1443 1.429 . S
C1440 C1423 1.574 . S
C1440 H1434 0.949 . S
C1440 C1444 1.368 . S
C1441 C1422 1.429 . S
C1441 C1435 1.429 . S
C1441 C1442 1.523 . S
C1442 C1423 1.368 . S
C1442 C1436 1.368 . S
C1442 C1441 1.523 . S
C1443 C1427 1.429 . S
C1443 C1439 1.429 . S
C1443 C1444 1.523 . S
C1444 C1428 1.368 . S
C1444 C1440 1.368 . S
C1444 C1443 1.523 . S
H1445 C1420 0.950 . S
H1446 C1422 0.950 . S
H1447 C1423 0.949 . S
H1448 C1425 0.950 . S
H1449 C1427 0.950 . S
C1450 C1451 1.349 1_554 S
C1450 C1452 1.327 . S
C1450 H1475 0.950 . S
C1451 C1450 1.349 1_556 S
C1451 C1467 1.349 . S
C1452 C1450 1.327 . S
C1452 C1471 1.429 . S
C1452 H1476 0.950 . S
C1453 C1470 1.574 . S
C1453 C1472 1.368 . S
C1453 H1477 0.949 . S
H1454 C1458 0.949 . S
C1455 C1456 1.349 . S
C1455 C1457 1.327 . S
C1455 H1478 0.950 . S
C1456 C1455 1.349 . S
C1456 C1468 1.349 . S
C1457 C1455 1.327 . S
C1457 C1473 1.429 . S
C1457 H1479 0.950 . S
C1458 H1454 0.949 . S
C1458 C1466 1.574 . S
C1458 C1474 1.368 . S
H1459 C1467 0.950 . S
H1460 C1465 0.950 . S
H1461 C1466 0.949 . S
H1462 C1468 0.950 . S
H1463 C1469 0.950 . S
H1464 C1470 0.949 . S
C1465 H1460 0.950 . S
C1465 C1467 1.327 1_554 S
C1465 C1471 1.429 . S
C1466 C1458 1.574 . S
C1466 H1461 0.949 . S
C1466 C1472 1.368 . S
C1467 C1451 1.349 . S
C1467 H1459 0.950 . S
C1467 C1465 1.327 1_556 S
C1468 C1456 1.349 . S
C1468 H1462 0.950 . S
C1468 C1469 1.327 . S
C1469 H1463 0.950 . S
C1469 C1468 1.327 . S
C1469 C1473 1.429 . S
C1470 C1453 1.574 . S
C1470 H1464 0.949 . S
C1470 C1474 1.368 . S
C1471 C1452 1.429 . S
C1471 C1465 1.429 . S
C1471 C1472 1.523 . S
C1472 C1453 1.368 . S
C1472 C1466 1.368 . S
C1472 C1471 1.523 . S
C1473 C1457 1.429 . S
C1473 C1469 1.429 . S
C1473 C1474 1.523 . S
C1474 C1458 1.368 . S
C1474 C1470 1.368 . S
C1474 C1473 1.523 . S
H1475 C1450 0.950 . S
H1476 C1452 0.950 . S
H1477 C1453 0.949 . S
H1478 C1455 0.950 . S
H1479 C1457 0.950 . S
C1480 C1481 1.349 . S
C1480 C1482 1.327 . S
C1480 H1505 0.950 . S
C1481 C1480 1.349 . S
C1481 C1497 1.349 . S
C1482 C1480 1.327 . S
C1482 C1501 1.429 . S
C1482 H1506 0.950 . S
C1483 C1500 1.574 . S
C1483 C1502 1.368 . S
C1483 H1507 0.949 . S
H1484 C1488 0.949 . S
C1485 C1486 1.349 . S
C1485 C1487 1.327 . S
C1485 H1508 0.950 . S
C1486 C1485 1.349 . S
C1486 C1498 1.349 . S
C1487 C1485 1.327 . S
C1487 C1503 1.429 . S
C1487 H1509 0.950 . S
C1488 H1484 0.949 . S
C1488 C1496 1.574 . S
C1488 C1504 1.368 . S
H1489 C1497 0.950 . S
H1490 C1495 0.950 . S
H1491 C1496 0.949 . S
H1492 C1498 0.950 . S
H1493 C1499 0.950 . S
H1494 C1500 0.949 . S
C1495 H1490 0.950 . S
C1495 C1497 1.327 . S
C1495 C1501 1.429 . S
C1496 C1488 1.574 . S
C1496 H1491 0.949 . S
C1496 C1502 1.368 . S
C1497 C1481 1.349 . S
C1497 H1489 0.950 . S
C1497 C1495 1.327 . S
C1498 C1486 1.349 . S
C1498 H1492 0.950 . S
C1498 C1499 1.327 . S
C1499 H1493 0.950 . S
C1499 C1498 1.327 . S
C1499 C1503 1.429 . S
C1500 C1483 1.574 . S
C1500 H1494 0.949 . S
C1500 C1504 1.368 . S
C1501 C1482 1.429 . S
C1501 C1495 1.429 . S
C1501 C1502 1.523 . S
C1502 C1483 1.368 . S
C1502 C1496 1.368 . S
C1502 C1501 1.523 . S
C1503 C1487 1.429 . S
C1503 C1499 1.429 . S
C1503 C1504 1.523 . S
C1504 C1488 1.368 . S
C1504 C1500 1.368 . S
C1504 C1503 1.523 . S
H1505 C1480 0.950 . S
H1506 C1482 0.950 . S
H1507 C1483 0.949 . S
H1508 C1485 0.950 . S
H1509 C1487 0.950 . S
C1510 C1511 1.349 . S
C1510 C1512 1.327 . S
C1510 H1535 0.950 . S
C1511 C1510 1.349 . S
C1511 C1527 1.349 . S
C1512 C1510 1.327 . S
C1512 C1531 1.429 . S
C1512 H1536 0.950 . S
C1513 C1530 1.574 . S
C1513 C1532 1.368 . S
C1513 H1537 0.949 . S
H1514 C1518 0.949 . S
C1515 C1516 1.349 . S
C1515 C1517 1.327 . S
C1515 H1538 0.950 . S
C1516 C1515 1.349 . S
C1516 C1528 1.349 . S
C1517 C1515 1.327 . S
C1517 C1533 1.429 . S
C1517 H1539 0.950 . S
C1518 H1514 0.949 . S
C1518 C1526 1.574 . S
C1518 C1534 1.368 . S
H1519 C1527 0.950 . S
H1520 C1525 0.950 . S
H1521 C1526 0.949 . S
H1522 C1528 0.950 . S
H1523 C1529 0.950 . S
H1524 C1530 0.949 . S
C1525 H1520 0.950 . S
C1525 C1527 1.327 . S
C1525 C1531 1.429 . S
C1526 C1518 1.574 . S
C1526 H1521 0.949 . S
C1526 C1532 1.368 . S
C1527 C1511 1.349 . S
C1527 H1519 0.950 . S
C1527 C1525 1.327 . S
C1528 C1516 1.349 . S
C1528 H1522 0.950 . S
C1528 C1529 1.327 . S
C1529 H1523 0.950 . S
C1529 C1528 1.327 . S
C1529 C1533 1.429 . S
C1530 C1513 1.574 . S
C1530 H1524 0.949 . S
C1530 C1534 1.368 . S
C1531 C1512 1.429 . S
C1531 C1525 1.429 . S
C1531 C1532 1.523 . S
C1532 C1513 1.368 . S
C1532 C1526 1.368 . S
C1532 C1531 1.523 . S
C1533 C1517 1.429 . S
C1533 C1529 1.429 . S
C1533 C1534 1.523 . S
C1534 C1518 1.368 . S
C1534 C1530 1.368 . S
C1534 C1533 1.523 . S
H1535 C1510 0.950 . S
H1536 C1512 0.950 . S
H1537 C1513 0.949 . S
H1538 C1515 0.950 . S
H1539 C1517 0.950 . S
C1540 C1541 1.349 . S
C1540 C1542 1.327 . S
C1540 H1565 0.950 . S
C1541 C1540 1.349 . S
C1541 C1557 1.349 . S
C1542 C1540 1.327 . S
C1542 C1561 1.429 . S
C1542 H1566 0.950 . S
C1543 C1560 1.574 . S
C1543 C1562 1.368 . S
C1543 H1567 0.949 . S
H1544 C1548 0.949 . S
C1545 C1546 1.349 . S
C1545 C1547 1.327 . S
C1545 H1568 0.950 . S
C1546 C1545 1.349 . S
C1546 C1558 1.349 . S
C1547 C1545 1.327 . S
C1547 C1563 1.429 . S
C1547 H1569 0.950 . S
C1548 H1544 0.949 . S
C1548 C1556 1.574 . S
C1548 C1564 1.368 . S
H1549 C1557 0.950 . S
H1550 C1555 0.950 . S
H1551 C1556 0.949 . S
H1552 C1558 0.950 . S
H1553 C1559 0.950 . S
H1554 C1560 0.949 . S
C1555 H1550 0.950 . S
C1555 C1557 1.327 . S
C1555 C1561 1.429 . S
C1556 C1548 1.574 . S
C1556 H1551 0.949 . S
C1556 C1562 1.368 . S
C1557 C1541 1.349 . S
C1557 H1549 0.950 . S
C1557 C1555 1.327 . S
C1558 C1546 1.349 . S
C1558 H1552 0.950 . S
C1558 C1559 1.327 . S
C1559 H1553 0.950 . S
C1559 C1558 1.327 . S
C1559 C1563 1.429 . S
C1560 C1543 1.574 . S
C1560 H1554 0.949 . S
C1560 C1564 1.368 . S
C1561 C1542 1.429 . S
C1561 C1555 1.429 . S
C1561 C1562 1.523 . S
C1562 C1543 1.368 . S
C1562 C1556 1.368 . S
C1562 C1561 1.523 . S
C1563 C1547 1.429 . S
C1563 C1559 1.429 . S
C1563 C1564 1.523 . S
C1564 C1548 1.368 . S
C1564 C1560 1.368 . S
C1564 C1563 1.523 . S
H1565 C1540 0.950 . S
H1566 C1542 0.950 . S
H1567 C1543 0.949 . S
H1568 C1545 0.950 . S
H1569 C1547 0.950 . S
C1570 C1571 1.349 . S
C1570 C1572 1.327 . S
C1570 H1595 0.950 . S
C1571 C1570 1.349 . S
C1571 C1587 1.349 . S
C1572 C1570 1.327 . S
C1572 C1591 1.429 . S
C1572 H1596 0.950 . S
C1573 C1590 1.574 . S
C1573 C1592 1.368 . S
C1573 H1597 0.949 . S
H1574 C1578 0.949 . S
C1575 C1576 1.349 . S
C1575 C1577 1.327 . S
C1575 H1598 0.950 . S
C1576 C1575 1.349 . S
C1576 C1588 1.349 . S
C1577 C1575 1.327 . S
C1577 C1593 1.429 . S
C1577 H1599 0.950 . S
C1578 H1574 0.949 . S
C1578 C1586 1.574 . S
C1578 C1594 1.368 . S
H1579 C1587 0.950 . S
H1580 C1585 0.950 . S
H1581 C1586 0.949 . S
H1582 C1588 0.950 . S
H1583 C1589 0.950 . S
H1584 C1590 0.949 . S
C1585 H1580 0.950 . S
C1585 C1587 1.327 . S
C1585 C1591 1.429 . S
C1586 C1578 1.574 . S
C1586 H1581 0.949 . S
C1586 C1592 1.368 . S
C1587 C1571 1.349 . S
C1587 H1579 0.950 . S
C1587 C1585 1.327 . S
C1588 C1576 1.349 . S
C1588 H1582 0.950 . S
C1588 C1589 1.327 . S
C1589 H1583 0.950 . S
C1589 C1588 1.327 . S
C1589 C1593 1.429 . S
C1590 C1573 1.574 . S
C1590 H1584 0.949 . S
C1590 C1594 1.368 . S
C1591 C1572 1.429 . S
C1591 C1585 1.429 . S
C1591 C1592 1.523 . S
C1592 C1573 1.368 . S
C1592 C1586 1.368 . S
C1592 C1591 1.523 . S
C1593 C1577 1.429 . S
C1593 C1589 1.429 . S
C1593 C1594 1.523 . S
C1594 C1578 1.368 . S
C1594 C1590 1.368 . S
C1594 C1593 1.523 . S
H1595 C1570 0.950 . S
H1596 C1572 0.950 . S
H1597 C1573 0.949 . S
H1598 C1575 0.950 . S
H1599 C1577 0.950 . S
C1600 C1601 1.349 . S
C1600 C1602 1.327 . S
C1600 H1625 0.950 . S
C1601 C1600 1.349 . S
C1601 C1617 1.349 . S
C1602 C1600 1.327 . S
C1602 C1621 1.429 . S
C1602 H1626 0.950 . S
C1603 C1620 1.574 . S
C1603 C1622 1.368 . S
C1603 H1627 0.949 . S
H1604 C1608 0.949 . S
C1605 C1606 1.349 . S
C1605 C1607 1.327 . S
C1605 H1628 0.950 . S
C1606 C1605 1.349 . S
C1606 C1618 1.349 . S
C1607 C1605 1.327 . S
C1607 C1623 1.429 . S
C1607 H1629 0.950 . S
C1608 H1604 0.949 . S
C1608 C1616 1.574 . S
C1608 C1624 1.368 . S
H1609 C1617 0.950 . S
H1610 C1615 0.950 . S
H1611 C1616 0.949 . S
H1612 C1618 0.950 . S
H1613 C1619 0.950 . S
H1614 C1620 0.949 . S
C1615 H1610 0.950 . S
C1615 C1617 1.327 . S
C1615 C1621 1.429 . S
C1616 C1608 1.574 . S
C1616 H1611 0.949 . S
C1616 C1622 1.368 . S
C1617 C1601 1.349 . S
C1617 H1609 0.950 . S
C1617 C1615 1.327 . S
C1618 C1606 1.349 . S
C1618 H1612 0.950 . S
C1618 C1619 1.327 . S
C1619 H1613 0.950 . S
C1619 C1618 1.327 . S
C1619 C1623 1.429 . S
C1620 C1603 1.574 . S
C1620 H1614 0.949 . S
C1620 C1624 1.368 . S
C1621 C1602 1.429 . S
C1621 C1615 1.429 . S
C1621 C1622 1.523 . S
C1622 C1603 1.368 . S
C1622 C1616 1.368 . S
C1622 C1621 1.523 . S
C1623 C1607 1.429 . S
C1623 C1619 1.429 . S
C1623 C1624 1.523 . S
C1624 C1608 1.368 . S
C1624 C1620 1.368 . S
C1624 C1623 1.523 . S
H1625 C1600 0.950 . S
H1626 C1602 0.950 . S
H1627 C1603 0.949 . S
H1628 C1605 0.950 . S
H1629 C1607 0.950 . S
C1630 C1631 1.349 . S
C1630 C1632 1.327 . S
C1630 H1655 0.950 . S
C1631 C1630 1.349 . S
C1631 C1647 1.349 . S
C1632 C1630 1.327 . S
C1632 C1651 1.429 . S
C1632 H1656 0.950 . S
C1633 C1650 1.574 . S
C1633 C1652 1.368 . S
C1633 H1657 0.949 . S
H1634 C1638 0.949 . S
C1635 C1636 1.349 . S
C1635 C1637 1.327 . S
C1635 H1658 0.950 . S
C1636 C1635 1.349 . S
C1636 C1648 1.349 . S
C1637 C1635 1.327 . S
C1637 C1653 1.429 . S
C1637 H1659 0.950 . S
C1638 H1634 0.949 . S
C1638 C1646 1.574 . S
C1638 C1654 1.368 . S
H1639 C1647 0.950 . S
H1640 C1645 0.950 . S
H1641 C1646 0.949 . S
H1642 C1648 0.950 . S
H1643 C1649 0.950 . S
H1644 C1650 0.949 . S
C1645 H1640 0.950 . S
C1645 C1647 1.327 . S
C1645 C1651 1.429 . S
C1646 C1638 1.574 . S
C1646 H1641 0.949 . S
C1646 C1652 1.368 . S
C1647 C1631 1.349 . S
C1647 H1639 0.950 . S
C1647 C1645 1.327 . S
C1648 C1636 1.349 . S
C1648 H1642 0.950 . S
C1648 C1649 1.327 . S
C1649 H1643 0.950 . S
C1649 C1648 1.327 . S
C1649 C1653 1.429 . S
C1650 C1633 1.574 . S
C1650 H1644 0.949 . S
C1650 C1654 1.368 . S
C1651 C1632 1.429 . S
C1651 C1645 1.429 . S
C1651 C1652 1.523 . S
C1652 C1633 1.368 . S
C1652 C1646 1.368 . S
C1652 C1651 1.523 . S
C1653 C1637 1.429 . S
C1653 C1649 1.429 . S
C1653 C1654 1.523 . S
C1654 C1638 1.368 . S
C1654 C1650 1.368 . S
C1654 C1653 1.523 . S
H1655 C1630 0.950 . S
H1656 C1632 0.950 . S
H1657 C1633 0.949 . S
H1658 C1635 0.950 . S
H1659 C1637 0.950 . S
C1660 C1661 1.349 . S
C1660 C1662 1.327 . S
C1660 H1685 0.950 . S
C1661 C1660 1.349 . S
C1661 C1677 1.349 . S
C1662 C1660 1.327 . S
C1662 C1681 1.429 . S
C1662 H1686 0.950 . S
C1663 C1680 1.574 . S
C1663 C1682 1.368 . S
C1663 H1687 0.949 . S
H1664 C1668 0.949 . S
C1665 C1666 1.349 . S
C1665 C1667 1.327 . S
C1665 H1688 0.950 . S
C1666 C1665 1.349 . S
C1666 C1678 1.349 . S
C1667 C1665 1.327 . S
C1667 C1683 1.429 . S
C1667 H1689 0.950 . S
C1668 H1664 0.949 . S
C1668 C1676 1.574 . S
C1668 C1684 1.368 . S
H1669 C1677 0.950 . S
H1670 C1675 0.950 . S
H1671 C1676 0.949 . S
H1672 C1678 0.950 . S
H1673 C1679 0.950 . S
H1674 C1680 0.949 . S
C1675 H1670 0.950 . S
C1675 C1677 1.327 . S
C1675 C1681 1.429 . S
C1676 C1668 1.574 . S
C1676 H1671 0.949 . S
C1676 C1682 1.368 . S
C1677 C1661 1.349 . S
C1677 H1669 0.950 . S
C1677 C1675 1.327 . S
C1678 C1666 1.349 . S
C1678 H1672 0.950 . S
C1678 C1679 1.327 . S
C1679 H1673 0.950 . S
C1679 C1678 1.327 . S
C1679 C1683 1.429 . S
C1680 C1663 1.574 . S
C1680 H1674 0.949 . S
C1680 C1684 1.368 . S
C1681 C1662 1.429 . S
C1681 C1675 1.429 . S
C1681 C1682 1.523 . S
C1682 C1663 1.368 . S
C1682 C1676 1.368 . S
C1682 C1681 1.523 . S
C1683 C1667 1.429 . S
C1683 C1679 1.429 . S
C1683 C1684 1.523 . S
C1684 C1668 1.368 . S
C1684 C1680 1.368 . S
C1684 C1683 1.523 . S
H1685 C1660 0.950 . S
H1686 C1662 0.950 . S
H1687 C1663 0.949 . S
H1688 C1665 0.950 . S
H1689 C1667 0.950 . S
C1690 C1691 1.349 . S
C1690 C1692 1.327 . S
C1690 H1715 0.950 . S
C1691 C1690 1.349 . S
C1691 C1707 1.349 . S
C1692 C1690 1.327 . S
C1692 C1711 1.429 . S
C1692 H1716 0.950 . S
C1693 C1710 1.574 . S
C1693 C1712 1.368 . S
C1693 H1717 0.949 . S
H1694 C1698 0.949 . S
C1695 C1696 1.349 . S
C1695 C1697 1.327 . S
C1695 H1718 0.950 . S
C1696 C1695 1.349 . S
C1696 C1708 1.349 . S
C1697 C1695 1.327 . S
C1697 C1713 1.429 . S
C1697 H1719 0.950 . S
C1698 H1694 0.949 . S
C1698 C1706 1.574 . S
C1698 C1714 1.368 . S
H1699 C1707 0.950 . S
H1700 C1705 0.950 . S
H1701 C1706 0.949 . S
H1702 C1708 0.950 . S
H1703 C1709 0.950 . S
H1704 C1710 0.949 . S
C1705 H1700 0.950 . S
C1705 C1707 1.327 . S
C1705 C1711 1.429 . S
C1706 C1698 1.574 . S
C1706 H1701 0.949 . S
C1706 C1712 1.368 . S
C1707 C1691 1.349 . S
C1707 H1699 0.950 . S
C1707 C1705 1.327 . S
C1708 C1696 1.349 . S
C1708 H1702 0.950 . S
C1708 C1709 1.327 . S
C1709 H1703 0.950 . S
C1709 C1708 1.327 . S
C1709 C1713 1.429 . S
C1710 C1693 1.574 . S
C1710 H1704 0.949 . S
C1710 C1714 1.368 . S
C1711 C1692 1.429 . S
C1711 C1705 1.429 . S
C1711 C1712 1.523 . S
C1712 C1693 1.368 . S
C1712 C1706 1.368 . S
C1712 C1711 1.523 . S
C1713 C1697 1.429 . S
C1713 C1709 1.429 . S
C1713 C1714 1.523 . S
C1714 C1698 1.368 . S
C1714 C1710 1.368 . S
C1714 C1713 1.523 . S
H1715 C1690 0.950 . S
H1716 C1692 0.950 . S
H1717 C1693 0.949 . S
H1718 C1695 0.950 . S
H1719 C1697 0.950 . S
C1720 C1721 1.349 . S
C1720 C1722 1.327 . S
C1720 H1745 0.950 . S
C1721 C1720 1.349 . S
C1721 C1737 1.349 . S
C1722 C1720 1.327 . S
C1722 C1741 1.429 . S
C1722 H1746 0.950 . S
C1723 C1740 1.574 . S
C1723 C1742 1.368 . S
C1723 H1747 0.949 . S
H1724 C1728 0.949 . S
C1725 C1726 1.349 . S
C1725 C1727 1.327 . S
C1725 H1748 0.950 . S
C1726 C1725 1.349 . S
C1726 C1738 1.349 . S
C1727 C1725 1.327 . S
C1727 C1743 1.429 . S
C1727 H1749 0.950 . S
C1728 H1724 0.949 . S
C1728 C1736 1.574 . S
C1728 C1744 1.368 . S
H1729 C1737 0.950 . S
H1730 C1735 0.950 . S
H1731 C1736 0.949 . S
H1732 C1738 0.950 . S
H1733 C1739 0.950 . S
H1734 C1740 0.949 . S
C1735 H1730 0.950 . S
C1735 C1737 1.327 . S
C1735 C1741 1.429 . S
C1736 C1728 1.574 . S
C1736 H1731 0.949 . S
C1736 C1742 1.368 . S
C1737 C1721 1.349 . S
C1737 H1729 0.950 . S
C1737 C1735 1.327 . S
C1738 C1726 1.349 . S
C1738 H1732 0.950 . S
C1738 C1739 1.327 . S
C1739 H1733 0.950 . S
C1739 C1738 1.327 . S
C1739 C1743 1.429 . S
C1740 C1723 1.574 . S
C1740 H1734 0.949 . S
C1740 C1744 1.368 . S
C1741 C1722 1.429 . S
C1741 C1735 1.429 . S
C1741 C1742 1.523 . S
C1742 C1723 1.368 . S
C1742 C1736 1.368 . S
C1742 C1741 1.523 . S
C1743 C1727 1.429 . S
C1743 C1739 1.429 . S
C1743 C1744 1.523 . S
C1744 C1728 1.368 . S
C1744 C1740 1.368 . S
C1744 C1743 1.523 . S
H1745 C1720 0.950 . S
H1746 C1722 0.950 . S
H1747 C1723 0.949 . S
H1748 C1725 0.950 . S
H1749 C1727 0.950 . S
C1750 C1751 1.349 . S
C1750 C1752 1.327 . S
C1750 H1775 0.950 . S
C1751 C1750 1.349 . S
C1751 C1767 1.349 . S
C1752 C1750 1.327 . S
C1752 C1771 1.429 . S
C1752 H1776 0.950 . S
C1753 C1770 1.574 . S
C1753 C1772 1.368 . S
C1753 H1777 0.949 . S
H1754 C1758 0.949 . S
C1755 C1756 1.349 . S
C1755 C1757 1.327 . S
C1755 H1778 0.950 . S
C1756 C1755 1.349 . S
C1756 C1768 1.349 . S
C1757 C1755 1.327 . S
C1757 C1773 1.429 . S
C1757 H1779 0.950 . S
C1758 H1754 0.949 . S
C1758 C1766 1.574 . S
C1758 C1774 1.368 . S
H1759 C1767 0.950 . S
H1760 C1765 0.950 . S
H1761 C1766 0.949 . S
H1762 C1768 0.950 . S
H1763 C1769 0.950 . S
H1764 C1770 0.949 . S
C1765 H1760 0.950 . S
C1765 C1767 1.327 . S
C1765 C1771 1.429 . S
C1766 C1758 1.574 . S
C1766 H1761 0.949 . S
C1766 C1772 1.368 . S
C1767 C1751 1.349 . S
C1767 H1759 0.950 . S
C1767 C1765 1.327 . S
C1768 C1756 1.349 . S
C1768 H1762 0.950 . S
C1768 C1769 1.327 . S
C1769 H1763 0.950 . S
C1769 C1768 1.327 . S
C1769 C1773 1.429 . S
C1770 C1753 1.574 . S
C1770 H1764 0.949 . S
C1770 C1774 1.368 . S
C1771 C1752 1.429 . S
C1771 C1765 1.429 . S
C1771 C1772 1.523 . S
C1772 C1753 1.368 . S
C1772 C1766 1.368 . S
C1772 C1771 1.523 . S
C1773 C1757 1.429 . S
C1773 C1769 1.429 . S
C1773 C1774 1.523 . S
C1774 C1758 1.368 . S
C1774 C1770 1.368 . S
C1774 C1773 1.523 . S
H1775 C1750 0.950 . S
H1776 C1752 0.950 . S
H1777 C1753 0.949 . S
H1778 C1755 0.950 . S
H1779 C1757 0.950 . S
C1780 C1781 1.349 . S
C1780 C1782 1.327 . S
C1780 H1805 0.950 . S
C1781 C1780 1.349 . S
C1781 C1797 1.349 . S
C1782 C1780 1.327 . S
C1782 C1801 1.429 . S
C1782 H1806 0.950 . S
C1783 C1800 1.574 . S
C1783 C1802 1.368 . S
C1783 H1807 0.949 . S
H1784 C1788 0.949 . S
C1785 C1786 1.349 . S
C1785 C1787 1.327 . S
C1785 H1808 0.950 . S
C1786 C1785 1.349 . S
C1786 C1798 1.349 . S
C1787 C1785 1.327 . S
C1787 C1803 1.429 . S
C1787 H1809 0.950 . S
C1788 H1784 0.949 . S
C1788 C1796 1.574 . S
C1788 C1804 1.368 . S
H1789 C1797 0.950 . S
H1790 C1795 0.950 . S
H1791 C1796 0.949 . S
H1792 C1798 0.950 . S
H1793 C1799 0.950 . S
H1794 C1800 0.949 . S
C1795 H1790 0.950 . S
C1795 C1797 1.327 . S
C1795 C1801 1.429 . S
C1796 C1788 1.574 . S
C1796 H1791 0.949 . S
C1796 C1802 1.368 . S
C1797 C1781 1.349 . S
C1797 H1789 0.950 . S
C1797 C1795 1.327 . S
C1798 C1786 1.349 . S
C1798 H1792 0.950 . S
C1798 C1799 1.327 . S
C1799 H1793 0.950 . S
C1799 C1798 1.327 . S
C1799 C1803 1.429 . S
C1800 C1783 1.574 . S
C1800 H1794 0.949 . S
C1800 C1804 1.368 . S
C1801 C1782 1.429 . S
C1801 C1795 1.429 . S
C1801 C1802 1.523 . S
C1802 C1783 1.368 . S
C1802 C1796 1.368 . S
C1802 C1801 1.523 . S
C1803 C1787 1.429 . S
C1803 C1799 1.429 . S
C1803 C1804 1.523 . S
C1804 C1788 1.368 . S
C1804 C1800 1.368 . S
C1804 C1803 1.523 . S
H1805 C1780 0.950 . S
H1806 C1782 0.950 . S
H1807 C1783 0.949 . S
H1808 C1785 0.950 . S
H1809 C1787 0.950 . S
C1810 C1811 1.349 . S
C1810 C1812 1.327 . S
C1810 H1835 0.950 . S
C1811 C1810 1.349 . S
C1811 C1827 1.349 . S
C1812 C1810 1.327 . S
C1812 C1831 1.429 . S
C1812 H1836 0.950 . S
C1813 C1830 1.574 . S
C1813 C1832 1.368 . S
C1813 H1837 0.949 . S
H1814 C1818 0.949 . S
C1815 C1816 1.349 . S
C1815 C1817 1.327 . S
C1815 H1838 0.950 . S
C1816 C1815 1.349 . S
C1816 C1828 1.349 . S
C1817 C1815 1.327 . S
C1817 C1833 1.429 . S
C1817 H1839 0.950 . S
C1818 H1814 0.949 . S
C1818 C1826 1.574 . S
C1818 C1834 1.368 . S
H1819 C1827 0.950 . S
H1820 C1825 0.950 . S
H1821 C1826 0.949 . S
H1822 C1828 0.950 . S
H1823 C1829 0.950 . S
H1824 C1830 0.949 . S
C1825 H1820 0.950 . S
C1825 C1827 1.327 . S
C1825 C1831 1.429 . S
C1826 C1818 1.574 . S
C1826 H1821 0.949 . S
C1826 C1832 1.368 . S
C1827 C1811 1.349 . S
C1827 H1819 0.950 . S
C1827 C1825 1.327 . S
C1828 C1816 1.349 . S
C1828 H1822 0.950 . S
C1828 C1829 1.327 . S
C1829 H1823 0.950 . S
C1829 C1828 1.327 . S
C1829 C1833 1.429 . S
C1830 C1813 1.574 . S
C1830 H1824 0.949 . S
C1830 C1834 1.368 . S
C1831 C1812 1.429 . S
C1831 C1825 1.429 . S
C1831 C1832 1.523 . S
C1832 C1813 1.368 . S
C1832 C1826 1.368 . S
C1832 C1831 1.523 . S
C1833 C1817 1.429 . S
C1833 C1829 1.429 . S
C1833 C1834 1.523 . S
C1834 C1818 1.368 . S
C1834 C1830 1.368 . S
C1834 C1833 1.523 . S
H1835 C1810 0.950 . S
H1836 C1812 0.950 . S
H1837 C1813 0.949 . S
H1838 C1815 0.950 . S
H1839 C1817 0.950 . S
C1840 C1841 1.349 . S
C1840 C1842 1.327 1_556 S
C1840 H1865 0.950 . S
C1841 C1840 1.349 . S
C1841 C1857 1.349 . S
C1842 C1840 1.327 1_554 S
C1842 C1861 1.429 . S
C1842 H1866 0.950 . S
C1843 C1860 1.574 . S
C1843 C1862 1.368 . S
C1843 H1867 0.949 . S
H1844 C1848 0.949 . S
C1845 C1846 1.349 . S
C1845 C1847 1.327 . S
C1845 H1868 0.950 . S
C1846 C1845 1.349 . S
C1846 C1858 1.349 . S
C1847 C1845 1.327 . S
C1847 C1863 1.429 . S
C1847 H1869 0.950 . S
C1848 H1844 0.949 . S
C1848 C1856 1.574 . S
C1848 C1864 1.368 . S
H1849 C1857 0.950 . S
H1850 C1855 0.950 . S
H1851 C1856 0.949 . S
H1852 C1858 0.950 . S
H1853 C1859 0.950 . S
H1854 C1860 0.949 . S
C1855 H1850 0.950 . S
C1855 C1857 1.327 1_554 S
C1855 C1861 1.429 . S
C1856 C1848 1.574 . S
C1856 H1851 0.949 . S
C1856 C1862 1.368 . S
C1857 C1841 1.349 . S
C1857 H1849 0.950 . S
C1857 C1855 1.327 1_556 S
C1858 C1846 1.349 . S
C1858 H1852 0.950 . S
C1858 C1859 1.327 . S
C1859 H1853 0.950 . S
C1859 C1858 1.327 . S
C1859 C1863 1.429 . S
C1860 C1843 1.574 . S
C1860 H1854 0.949 . S
C1860 C1864 1.368 . S
C1861 C1842 1.429 . S
C1861 C1855 1.429 . S
C1861 C1862 1.523 . S
C1862 C1843 1.368 . S
C1862 C1856 1.368 . S
C1862 C1861 1.523 . S
C1863 C1847 1.429 . S
C1863 C1859 1.429 . S
C1863 C1864 1.523 . S
C1864 C1848 1.368 . S
C1864 C1860 1.368 . S
C1864 C1863 1.523 . S
H1865 C1840 0.950 . S
H1866 C1842 0.950 . S
H1867 C1843 0.949 . S
H1868 C1845 0.950 . S
H1869 C1847 0.950 . S
C1870 C1871 1.349 . S
C1870 C1872 1.327 . S
C1870 H1895 0.950 . S
C1871 C1870 1.349 . S
C1871 C1887 1.349 . S
C1872 C1870 1.327 . S
C1872 C1891 1.429 . S
C1872 H1896 0.950 . S
C1873 C1890 1.574 . S
C1873 C1892 1.368 . S
C1873 H1897 0.949 . S
H1874 C1878 0.949 . S
C1875 C1876 1.349 . S
C1875 C1877 1.327 1_554 S
C1875 H1898 0.950 . S
C1876 C1875 1.349 . S
C1876 C1888 1.349 . S
C1877 C1875 1.327 1_556 S
C1877 C1893 1.429 . S
C1877 H1899 0.950 . S
C1878 H1874 0.949 . S
C1878 C1886 1.574 . S
C1878 C1894 1.368 . S
H1879 C1887 0.950 . S
H1880 C1885 0.950 . S
H1881 C1886 0.949 . S
H1882 C1888 0.950 . S
H1883 C1889 0.950 . S
H1884 C1890 0.949 . S
C1885 H1880 0.950 . S
C1885 C1887 1.327 . S
C1885 C1891 1.429 . S
C1886 C1878 1.574 . S
C1886 H1881 0.949 . S
C1886 C1892 1.368 . S
C1887 C1871 1.349 . S
C1887 H1879 0.950 . S
C1887 C1885 1.327 . S
C1888 C1876 1.349 . S
C1888 H1882 0.950 . S
C1888 C1889 1.327 1_554 S
C1889 H1883 0.950 . S
C1889 C1888 1.327 1_556 S
C1889 C1893 1.429 . S
C1890 C1873 1.574 . S
C1890 H1884 0.949 . S
C1890 C1894 1.368 . S
C1891 C1872 1.429 . S
C1891 C1885 1.429 . S
C1891 C1892 1.523 . S
C1892 C1873 1.368 . S
C1892 C1886 1.368 . S
C1892 C1891 1.523 . S
C1893 C1877 1.429 . S
C1893 C1889 1.429 . S
C1893 C1894 1.523 . S
C1894 C1878 1.368 . S
C1894 C1890 1.368 . S
C1894 C1893 1.523 . S
H1895 C1870 0.950 . S
H1896 C1872 0.950 . S
H1897 C1873 0.949 . S
H1898 C1875 0.950 . S
H1899 C1877 0.950 . S
C1900 C1901 1.349 . S
C1900 C1902 1.327 . S
C1900 H1925 0.950 . S
C1901 C1900 1.349 . S
C1901 C1917 1.349 . S
C1902 C1900 1.327 . S
C1902 C1921 1.429 . S
C1902 H1926 0.950 . S
C1903 C1920 1.574 . S
C1903 C1922 1.368 . S
C1903 H1927 0.949 . S
H1904 C1908 0.949 . S
C1905 C1906 1.349 . S
C1905 C1907 1.327 1_556 S
C1905 H1928 0.950 . S
C1906 C1905 1.349 . S
C1906 C1918 1.349 . S
C1907 C1905 1.327 1_554 S
C1907 C1923 1.429 . S
C1907 H1929 0.950 . S
C1908 H1904 0.949 . S
C1908 C1916 1.574 . S
C1908 C1924 1.368 . S
H1909 C1917 0.950 . S
H1910 C1915 0.950 . S
H1911 C1916 0.949 . S
H1912 C1918 0.950 . S
H1913 C1919 0.950 . S
H1914 C1920 0.949 . S
C1915 H1910 0.950 . S
C1915 C1917 1.327 . S
C1915 C1921 1.429 . S
C1916 C1908 1.574 . S
C1916 H1911 0.949 . S
C1916 C1922 1.368 . S
C1917 C1901 1.349 . S
C1917 H1909 0.950 . S
C1917 C1915 1.327 . S
C1918 C1906 1.349 . S
C1918 H1912 0.950 . S
C1918 C1919 1.327 1_556 S
C1919 H1913 0.950 . S
C1919 C1918 1.327 1_554 S
C1919 C1923 1.429 . S
C1920 C1903 1.574 . S
C1920 H1914 0.949 . S
C1920 C1924 1.368 . S
C1921 C1902 1.429 . S
C1921 C1915 1.429 . S
C1921 C1922 1.523 . S
C1922 C1903 1.368 . S
C1922 C1916 1.368 . S
C1922 C1921 1.523 . S
C1923 C1907 1.429 . S
C1923 C1919 1.429 . S
C1923 C1924 1.523 . S
C1924 C1908 1.368 . S
C1924 C1920 1.368 . S
C1924 C1923 1.523 . S
H1925 C1900 0.950 . S
H1926 C1902 0.950 . S
H1927 C1903 0.949 . S
H1928 C1905 0.950 . S
H1929 C1907 0.950 . S
C1930 C1931 1.349 . S
C1930 C1932 1.327 1_554 S
C1930 H1955 0.950 . S
C1931 C1930 1.349 . S
C1931 C1947 1.349 . S
C1932 C1930 1.327 1_556 S
C1932 C1951 1.429 . S
C1932 H1956 0.950 . S
C1933 C1950 1.574 . S
C1933 C1952 1.368 . S
C1933 H1957 0.949 . S
H1934 C1938 0.949 . S
C1935 C1936 1.349 . S
C1935 C1937 1.327 . S
C1935 H1958 0.950 . S
C1936 C1935 1.349 . S
C1936 C1948 1.349 . S
C1937 C1935 1.327 . S
C1937 C1953 1.429 . S
C1937 H1959 0.950 . S
C1938 H1934 0.949 . S
C1938 C1946 1.574 . S
C1938 C1954 1.368 . S
H1939 C1947 0.950 . S
H1940 C1945 0.950 . S
H1941 C1946 0.949 . S
H1942 C1948 0.950 . S
H1943 C1949 0.950 . S
H1944 C1950 0.949 . S
C1945 H1940 0.950 . S
C1945 C1947 1.327 1_556 S
C1945 C1951 1.429 . S
C1946 C1938 1.574 . S
C1946 H1941 0.949 . S
C1946 C1952 1.368 . S
C1947 C1931 1.349 . S
C1947 H1939 0.950 . S
C1947 C1945 1.327 1_554 S
C1948 C1936 1.349 . S
C1948 H1942 0.950 . S
C1948 C1949 1.327 . S
C1949 H1943 0.950 . S
C1949 C1948 1.327 . S
C1949 C1953 1.429 . S
C1950 C1933 1.574 . S
C1950 H1944 0.949 . S
C1950 C1954 1.368 . S
C1951 C1932 1.429 . S
C1951 C1945 1.429 . S
C1951 C1952 1.523 . S
C1952 C1933 1.368 . S
C1952 C1946 1.368 . S
C1952 C1951 1.523 . S
C1953 C1937 1.429 . S
C1953 C1949 1.429 . S
C1953 C1954 1.523 . S
C1954 C1938 1.368 . S
C1954 C1950 1.368 . S
C1954 C1953 1.523 . S
H1955 C1930 0.950 . S
H1956 C1932 0.950 . S
H1957 C1933 0.949 . S
H1958 C1935 0.950 . S
H1959 C1937 0.950 . S
C1960 C1961 1.349 . S
C1960 C1962 1.327 . S
C1960 H1985 0.950 . S
C1961 C1960 1.349 . S
C1961 C1977 1.349 . S
C1962 C1960 1.327 . S
C1962 C1981 1.429 . S
C1962 H1986 0.950 . S
C1963 C1980 1.574 . S
C1963 C1982 1.368 . S
C1963 H1987 0.949 . S
H1964 C1968 0.949 . S
C1965 C1966 1.349 . S
C1965 C1967 1.327 1_556 S
C1965 H1988 0.950 . S
C1966 C1965 1.349 . S
C1966 C1978 1.349 . S
C1967 C1965 1.327 1_554 S
C1967 C1983 1.429 . S
C1967 H1989 0.950 . S
C1968 H1964 0.949 . S
C1968 C1976 1.574 . S
C1968 C1984 1.368 . S
H1969 C1977 0.950 . S
H1970 C1975 0.950 . S
H1971 C1976 0.949 . S
H1972 C1978 0.950 . S
H1973 C1979 0.950 . S
H1974 C1980 0.949 . S
C1975 H1970 0.950 . S
C1975 C1977 1.327 . S
C1975 C1981 1.429 . S
C1976 C1968 1.574 . S
C1976 H1971 0.949 . S
C1976 C1982 1.368 . S
C1977 C1961 1.349 . S
C1977 H1969 0.950 . S
C1977 C1975 1.327 . S
C1978 C1966 1.349 . S
C1978 H1972 0.950 . S
C1978 C1979 1.327 1_556 S
C1979 H1973 0.950 . S
C1979 C1978 1.327 1_554 S
C1979 C1983 1.429 . S
C1980 C1963 1.574 . S
C1980 H1974 0.949 . S
C1980 C1984 1.368 . S
C1981 C1962 1.429 . S
C1981 C1975 1.429 . S
C1981 C1982 1.523 . S
C1982 C1963 1.368 . S
C1982 C1976 1.368 . S
C1982 C1981 1.523 . S
C1983 C1967 1.429 . S
C1983 C1979 1.429 . S
C1983 C1984 1.523 . S
C1984 C1968 1.368 . S
C1984 C1980 1.368 . S
C1984 C1983 1.523 . S
H1985 C1960 0.950 . S
H1986 C1962 0.950 . S
H1987 C1963 0.949 . S
H1988 C1965 0.950 . S
H1989 C1967 0.950 . S
C1990 C1991 1.349 . S
C1990 C1992 1.327 1_554 S
C1990 H2015 0.950 . S
C1991 C1990 1.349 . S
C1991 C2007 1.349 . S
C1992 C1990 1.327 1_556 S
C1992 C2011 1.429 . S
C1992 H2016 0.950 . S
C1993 C2010 1.574 . S
C1993 C2012 1.368 . S
C1993 H2017 0.949 . S
H1994 C1998 0.949 . S
C1995 C1996 1.349 . S
C1995 C1997 1.327 . S
C1995 H2018 0.950 . S
C1996 C1995 1.349 . S
C1996 C2008 1.349 . S
C1997 C1995 1.327 . S
C1997 C2013 1.429 . S
C1997 H2019 0.950 . S
C1998 H1994 0.949 . S
C1998 C2006 1.574 . S
C1998 C2014 1.368 . S
H1999 C2007 0.950 . S
H2000 C2005 0.950 . S
H2001 C2006 0.949 . S
H2002 C2008 0.950 . S
H2003 C2009 0.950 . S
H2004 C2010 0.949 . S
C2005 H2000 0.950 . S
C2005 C2007 1.327 1_556 S
C2005 C2011 1.429 . S
C2006 C1998 1.574 . S
C2006 H2001 0.949 . S
C2006 C2012 1.368 . S
C2007 C1991 1.349 . S
C2007 H1999 0.950 . S
C2007 C2005 1.327 1_554 S
C2008 C1996 1.349 . S
C2008 H2002 0.950 . S
C2008 C2009 1.327 . S
C2009 H2003 0.950 . S
C2009 C2008 1.327 . S
C2009 C2013 1.429 . S
C2010 C1993 1.574 . S
C2010 H2004 0.949 . S
C2010 C2014 1.368 . S
C2011 C1992 1.429 . S
C2011 C2005 1.429 . S
C2011 C2012 1.523 . S
C2012 C1993 1.368 . S
C2012 C2006 1.368 . S
C2012 C2011 1.523 . S
C2013 C1997 1.429 . S
C2013 C2009 1.429 . S
C2013 C2014 1.523 . S
C2014 C1998 1.368 . S
C2014 C2010 1.368 . S
C2014 C2013 1.523 . S
H2015 C1990 0.950 . S
H2016 C1992 0.950 . S
H2017 C1993 0.949 . S
H2018 C1995 0.950 . S
H2019 C1997 0.950 . S
C2020 C2021 1.349 . S
C2020 C2022 1.327 1_556 S
C2020 H2045 0.950 . S
C2021 C2020 1.349 . S
C2021 C2037 1.349 . S
C2022 C2020 1.327 1_554 S
C2022 C2041 1.429 . S
C2022 H2046 0.950 . S
C2023 C2040 1.574 . S
C2023 C2042 1.368 . S
C2023 H2047 0.949 . S
H2024 C2028 0.949 . S
C2025 C2026 1.349 . S
C2025 C2027 1.327 . S
C2025 H2048 0.950 . S
C2026 C2025 1.349 . S
C2026 C2038 1.349 . S
C2027 C2025 1.327 . S
C2027 C2043 1.429 . S
C2027 H2049 0.950 . S
C2028 H2024 0.949 . S
C2028 C2036 1.574 . S
C2028 C2044 1.368 . S
H2029 C2037 0.950 . S
H2030 C2035 0.950 . S
H2031 C2036 0.949 . S
H2032 C2038 0.950 . S
H2033 C2039 0.950 . S
H2034 C2040 0.949 . S
C2035 H2030 0.950 . S
C2035 C2037 1.327 1_554 S
C2035 C2041 1.429 . S
C2036 C2028 1.574 . S
C2036 H2031 0.949 . S
C2036 C2042 1.368 . S
C2037 C2021 1.349 . S
C2037 H2029 0.950 . S
C2037 C2035 1.327 1_556 S
C2038 C2026 1.349 . S
C2038 H2032 0.950 . S
C2038 C2039 1.327 . S
C2039 H2033 0.950 . S
C2039 C2038 1.327 . S
C2039 C2043 1.429 . S
C2040 C2023 1.574 . S
C2040 H2034 0.949 . S
C2040 C2044 1.368 . S
C2041 C2022 1.429 . S
C2041 C2035 1.429 . S
C2041 C2042 1.523 . S
C2042 C2023 1.368 . S
C2042 C2036 1.368 . S
C2042 C2041 1.523 . S
C2043 C2027 1.429 . S
C2043 C2039 1.429 . S
C2043 C2044 1.523 . S
C2044 C2028 1.368 . S
C2044 C2040 1.368 . S
C2044 C2043 1.523 . S
H2045 C2020 0.950 . S
H2046 C2022 0.950 . S
H2047 C2023 0.949 . S
H2048 C2025 0.950 . S
H2049 C2027 0.950 . S
C2050 C2051 1.349 . S
C2050 C2052 1.327 . S
C2050 H2075 0.950 . S
C2051 C2050 1.349 . S
C2051 C2067 1.349 . S
C2052 C2050 1.327 . S
C2052 C2071 1.429 . S
C2052 H2076 0.950 . S
C2053 C2070 1.574 . S
C2053 C2072 1.368 . S
C2053 H2077 0.949 . S
H2054 C2058 0.949 . S
C2055 C2056 1.349 . S
C2055 C2057 1.327 1_554 S
C2055 H2078 0.950 . S
C2056 C2055 1.349 . S
C2056 C2068 1.349 . S
C2057 C2055 1.327 1_556 S
C2057 C2073 1.429 . S
C2057 H2079 0.950 . S
C2058 H2054 0.949 . S
C2058 C2066 1.574 . S
C2058 C2074 1.368 . S
H2059 C2067 0.950 . S
H2060 C2065 0.950 . S
H2061 C2066 0.949 . S
H2062 C2068 0.950 . S
H2063 C2069 0.950 . S
H2064 C2070 0.949 . S
C2065 H2060 0.950 . S
C2065 C2067 1.327 . S
C2065 C2071 1.429 . S
C2066 C2058 1.574 . S
C2066 H2061 0.949 . S
C2066 C2072 1.368 . S
C2067 C2051 1.349 . S
C2067 H2059 0.950 . S
C2067 C2065 1.327 . S
C2068 C2056 1.349 . S
C2068 H2062 0.950 . S
C2068 C2069 1.327 1_554 S
C2069 H2063 0.950 . S
C2069 C2068 1.327 1_556 S
C2069 C2073 1.429 . S
C2070 C2053 1.574 . S
C2070 H2064 0.949 . S
C2070 C2074 1.368 . S
C2071 C2052 1.429 . S
C2071 C2065 1.429 . S
C2071 C2072 1.523 . S
C2072 C2053 1.368 . S
C2072 C2066 1.368 . S
C2072 C2071 1.523 . S
C2073 C2057 1.429 . S
C2073 C2069 1.429 . S
C2073 C2074 1.523 . S
C2074 C2058 1.368 . S
C2074 C2070 1.368 . S
C2074 C2073 1.523 . S
H2075 C2050 0.950 . S
H2076 C2052 0.950 . S
H2077 C2053 0.949 . S
H2078 C2055 0.950 . S
H2079 C2057 0.950 . S
C641 C449 1.707 . S
C646 C8 1.690 . S
C671 C339 1.707 . S
C676 C58 1.690 . S
C701 C88 1.690 . S
C706 C369 1.707 . S
C731 C138 1.690 . S
C736 C419 1.707 . S
C761 C168 1.690 . S
C766 C209 1.707 . S
C791 C259 1.707 . S
C796 C218 1.690 . S
C821 C248 1.690 . S
C826 C289 1.707 . S
C851 C179 1.707 . S
C856 C298 1.690 . S
C881 C129 1.707 . S
C886 C328 1.690 . S
C911 C378 1.690 . S
C916 C19 1.707 . S
C941 C49 1.707 . S
C946 C408 1.690 . S
C971 C99 1.707 . S
C976 C458 1.690 . S
C1001 C488 1.690 . S
C1006 C529 1.707 . S
C1031 C579 1.707 . S
C1036 C538 1.690 . S
C1061 C609 1.707 . S
C1066 C568 1.690 . S
C1091 C618 1.690 . S
C1096 C499 1.707 . S
C1121 C18 1.168 . S
C1126 C178 1.168 . S
C1151 C208 1.168 . S
C1156 C48 1.168 . S
C1181 C98 1.168 . S
C1186 C258 1.168 . S
C1211 C128 1.168 . S
C1216 C288 1.168 . S
C1241 C338 1.168 . S
C1246 C498 1.168 . S
C1271 C528 1.168 . S
C1276 C368 1.168 . S
C1301 C418 1.168 . S
C1306 C578 1.168 . S
C1331 C448 1.168 . S
C1336 C608 1.168 . S
C1361 C569 2.242 . S
C1366 C9 2.242 . S
C1391 C59 2.242 . S
C1396 C619 2.242 . S
C1421 C89 2.242 . S
C1426 C489 2.242 . S
C1451 C139 2.242 . S
C1456 C539 2.242 . S
C1481 C169 2.242 . S
C1486 C409 2.242 . S
C1511 C219 2.242 . S
C1516 C459 2.242 . S
C1541 C249 2.242 . S
C1546 C329 2.242 . S
C1571 C379 2.242 . S
C1576 C299 2.242 . S
C1601 C15 1.018 . S
C1606 C5 1.018 . S
C1631 C45 1.018 . S
C1636 C55 1.018 . S
C1661 C95 1.018 . S
C1666 C85 1.018 . S
C1691 C135 1.018 . S
C1696 C125 1.018 . S
C1721 C165 1.018 . S
C1726 C175 1.018 . S
C1751 C205 1.018 . S
C1756 C215 1.018 . S
C1781 C255 1.018 . S
C1786 C245 1.018 . S
C1811 C295 1.018 . S
C1816 C285 1.018 . S
C1841 C335 1.018 . S
C1846 C325 1.018 . S
C1871 C375 1.018 . S
C1876 C365 1.018 . S
C1901 C405 1.018 . S
C1906 C415 1.018 . S
C1931 C445 1.018 . S
C1936 C455 1.018 . S
C1961 C495 1.018 . S
C1966 C485 1.018 . S
C1991 C535 1.018 . S
C1996 C525 1.018 . S
C2021 C565 1.018 . S
C2026 C575 1.018 . S
C2051 C605 1.018 . S
C2056 C615 1.018 . S
