# Generated by pormake.
# Topology bcu, (8)-cn, num edge types: 1
# Building blocks:
#     Node 0, Type 0, BuildingBlock: GIZVER_clean_sbu_0, # of connection points: 8
#     Node 1, Type 0, BuildingBlock: GIZVER_clean_sbu_0, # of connection points: 8
#     Edge 2, Type (0, 0), BuildingBlock: XUDNAN_clean_linker_2, # of connection points: 2
#     Edge 3, Type (0, 0), BuildingBlock: XUDNAN_clean_linker_2, # of connection points: 2
#     Edge 4, Type (0, 0), BuildingBlock: XUDNAN_clean_linker_2, # of connection points: 2
#     Edge 5, Type (0, 0), BuildingBlock: XUDNAN_clean_linker_2, # of connection points: 2
#     Edge 6, Type (0, 0), BuildingBlock: XUDNAN_clean_linker_2, # of connection points: 2
#     Edge 7, Type (0, 0), BuildingBlock: XUDNAN_clean_linker_2, # of connection points: 2
#     Edge 8, Type (0, 0), BuildingBlock: XUDNAN_clean_linker_2, # of connection points: 2
#     Edge 9, Type (0, 0), BuildingBlock: XUDNAN_clean_linker_2, # of connection points: 2
# Relax obj value: 0.004
# Max RMSD: 0.041
# Mean RMSD: 0.041
data_MOF--net-bcu--node1-GIZVER_clean_sbu_0--edge1-XUDNAN_clean_linker_2
_symmetry_space_group_name_H-M    P1
_symmetry_Int_Tables_number       1
_symmetry_cell_setting            triclinic
loop_
_symmetry_equiv_pos_as_xyz
'x, y, z'
_cell_length_a     21.984977
_cell_length_b     24.665483
_cell_length_c     12.689364
_cell_angle_alpha  88.203489
_cell_angle_beta   92.660801
_cell_angle_gamma 109.31991
loop_
_atom_site_label
_atom_site_type_symbol
_atom_site_fract_x
_atom_site_fract_y
_atom_site_fract_z
_atom_type_partial_charge
Co0 Co 0.0776 0.92725 0.98345 0.0
Co1 Co 0.10125 0.98178 0.16305 0.0
Co2 Co 1.01623 1.03377 0.99788 0.0
O3 O 0.09169 1.00512 0.02369 0.0
H4 H 0.13186 1.03169 0.99958 0.0
O5 O 0.94029 0.06015 0.96939 0.0
Co6 Co 0.93645 0.12872 0.02806 0.0
Co7 Co 0.94226 0.09878 0.84167 0.0
H8 H 0.90006 1.02881 0.97485 0.0
O9 O 0.17737 0.96911 0.21777 0.0
O10 O 0.09438 0.90691 0.12963 0.0
O11 O 0.02818 0.97224 0.24816 0.0
O12 O 0.96357 0.98554 0.11598 0.0
O13 O 0.05979 0.09938 0.09494 0.0
O14 O 0.92745 0.18976 0.08686 0.0
O15 O 0.85194 0.10358 0.05754 0.0
O16 O 0.02433 0.16321 1.00815 0.0
O17 O 0.07096 0.08209 0.88335 0.0
O18 O 0.02527 0.13463 0.78272 0.0
O19 O 0.91591 0.15728 0.88644 0.0
O20 O 0.86587 0.08832 0.76811 0.0
C21 C 0.12938 0.88204 0.91911 0.0
C22 C 0.95837 0.91791 0.93449 0.0
C23 C 0.97218 0.96606 0.20837 0.0
C24 C 0.14937 0.91809 0.18075 0.0
C25 C 0.86854 0.15548 0.09516 0.0
C26 C 0.06544 0.15148 0.07015 0.0
C27 C 0.07437 0.12163 0.81393 0.0
C28 C 0.86823 0.1339 0.81912 0.0
O29 O 0.06939 0.85817 0.9417 0.0
O30 O 0.15984 0.93532 0.9461 0.0
O31 O 0.97197 0.96924 0.8992 0.0
O32 O 0.99144 0.90772 1.0118 0.0
Co33 Co 0.56583 0.41693 0.46397 0.0
Co34 Co 0.58307 0.46385 0.65151 0.0
Co35 Co 0.51711 0.53214 0.50079 0.0
O36 O 0.58523 0.49449 0.51594 0.0
H37 H 0.62795 0.51982 0.50021 0.0
O38 O 0.44813 0.5674 0.4824 0.0
Co39 Co 0.4478 0.63392 0.55538 0.0
Co40 Co 0.45933 0.61338 0.36234 0.0
H41 H 0.40585 0.53847 0.47925 0.0
O42 O 0.65084 0.4434 0.71078 0.0
O43 O 0.56675 0.38814 0.61185 0.0
O44 O 0.51357 0.46552 0.73638 0.0
O45 O 0.4544 0.47345 0.5944 0.0
O46 O 0.55547 0.5817 0.62323 0.0
O47 O 0.44087 0.69326 0.62407 0.0
O48 O 0.3614 0.61515 0.56489 0.0
O49 O 0.53975 0.66158 0.56012 0.0
O50 O 0.58273 0.59162 0.41274 0.0
O51 O 0.54217 0.64418 0.30391 0.0
O52 O 0.44078 0.67369 0.41688 0.0
O53 O 0.38821 0.6121 0.28715 0.0
C54 C 0.61623 0.36589 0.41609 0.0
C55 C 0.45335 0.42931 0.39113 0.0
C56 C 0.45898 0.45536 0.68904 0.0
C57 C 0.6191 0.394 0.66966 0.0
C58 C 0.37973 0.6645 0.61276 0.0
C59 C 0.57285 0.63646 0.61577 0.0
C60 C 0.58984 0.63191 0.34367 0.0
C61 C 0.39365 0.65603 0.34548 0.0
O62 O 0.55384 0.34847 0.41654 0.0
O63 O 0.64895 0.41755 0.4496 0.0
O64 O 0.47737 0.48349 0.37741 0.0
O65 O 0.4768 0.40433 0.4633 0.0
H66 H 0.18274 0.15102 0.15785 0.0
H67 H 0.06893 0.26213 0.08003 0.0
H68 H 0.15657 0.34487 0.15019 0.0
H69 H 0.24946 0.21122 0.39543 0.0
H70 H 0.3312 0.21191 0.38326 0.0
H71 H 0.26521 0.15846 0.31682 0.0
H72 H 0.31084 0.18545 0.13396 0.0
H73 H 0.38188 0.23554 0.19571 0.0
H74 H 0.33812 0.25968 0.09128 0.0
H75 H 0.25527 0.41587 0.22614 0.0
H76 H 0.35968 0.47095 0.31188 0.0
H77 H 0.40933 0.31482 0.34747 0.0
C78 C 0.17637 0.19275 0.15598 0.0
C79 C 0.11896 0.20004 0.11384 0.0
C80 C 0.11259 0.25545 0.11156 0.0
C81 C 0.16209 0.30285 0.15117 0.0
C82 C 0.21799 0.29439 0.19208 0.0
C83 C 0.22578 0.24096 0.19442 0.0
C84 C 0.29106 0.24418 0.24317 0.0
C85 C 0.28389 0.20419 0.34057 0.0
C86 C 0.33295 0.23038 0.16115 0.0
C87 C 0.31713 0.30717 0.27205 0.0
C88 C 0.27474 0.33549 0.23933 0.0
C89 C 0.28899 0.39432 0.2525 0.0
C90 C 0.3484 0.42525 0.30077 0.0
C91 C 0.39216 0.397 0.33648 0.0
C92 C 0.37624 0.33725 0.32187 0.0
H93 H 0.89084 0.26048 0.18529 0.0
H94 H 0.73971 0.09841 0.11974 0.0
H95 H 0.66171 0.13368 0.2054 0.0
H96 H 0.8345 0.28069 0.44301 0.0
H97 H 0.85595 0.35745 0.42627 0.0
H98 H 0.90123 0.31955 0.36284 0.0
H99 H 0.87742 0.36018 0.17747 0.0
H100 H 0.83681 0.40036 0.24583 0.0
H101 H 0.79503 0.35367 0.1408 0.0
H102 H 0.6003 0.18611 0.29279 0.0
H103 H 0.55568 0.254 0.36884 0.0
H104 H 0.74579 0.38428 0.37938 0.0
C105 C 0.84135 0.23225 0.18909 0.0
C106 C 0.82135 0.17643 0.14591 0.0
C107 C 0.75619 0.14109 0.15243 0.0
C108 C 0.71162 0.16074 0.20118 0.0
C109 C 0.73307 0.21571 0.24335 0.0
C110 C 0.79626 0.25114 0.23773 0.0
C111 C 0.8062 0.30876 0.28812 0.0
C112 C 0.85221 0.31708 0.38585 0.0
C113 C 0.83036 0.35865 0.2082 0.0
C114 C 0.73801 0.30094 0.3192 0.0
C115 C 0.69715 0.24648 0.29405 0.0
C116 C 0.63177 0.22883 0.31273 0.0
C117 C 0.60694 0.26813 0.35582 0.0
C118 C 0.64707 0.32504 0.37929 0.0
C119 C 0.71388 0.34126 0.36241 0.0
H120 H 0.84724 0.92109 0.12792 0.0
H121 H 0.97225 0.90767 0.39593 0.0
H122 H 0.89 0.81809 0.4528 0.0
H123 H 0.69403 0.86331 0.26698 0.0
H124 H 0.65108 0.82634 0.15166 0.0
H125 H 0.7181 0.8918 0.1371 0.0
H126 H 0.77269 0.83869 0.01902 0.0
H127 H 0.7063 0.77296 0.03487 0.0
H128 H 0.78734 0.77484 0.06965 0.0
H129 H 0.79915 0.72533 0.47174 0.0
H130 H 0.69808 0.64338 0.4682 0.0
H131 H 0.62937 0.71793 0.19209 0.0
C132 C 0.85663 0.90051 0.20058 0.0
C133 C 0.9166 0.92188 0.2573 0.0
C134 C 0.92687 0.89267 0.35105 0.0
C135 C 0.88055 0.84134 0.38369 0.0
C136 C 0.82354 0.82008 0.32306 0.0
C137 C 0.81063 0.84937 0.23497 0.0
C138 C 0.74576 0.8166 0.18308 0.0
C139 C 0.6995 0.85159 0.18487 0.0
C140 C 0.75351 0.7998 0.06996 0.0
C141 C 0.72453 0.76414 0.25549 0.0
C142 C 0.77052 0.76678 0.33494 0.0
C143 C 0.76259 0.72294 0.41026 0.0
C144 C 0.70509 0.67615 0.40681 0.0
C145 C 0.65548 0.67385 0.32967 0.0
C146 C 0.66628 0.71807 0.25174 0.0
H147 H 0.26099 0.9219 0.29556 0.0
H148 H 0.09729 0.80715 0.11875 0.0
H149 H 0.13958 0.72785 0.15308 0.0
H150 H 0.37888 0.86555 0.20999 0.0
H151 H 0.42219 0.87117 0.33558 0.0
H152 H 0.37808 0.91955 0.302 0.0
H153 H 0.31452 0.88852 0.47312 0.0
H154 H 0.35758 0.83916 0.50664 0.0
H155 H 0.27075 0.81358 0.49691 0.0
H156 H 0.19901 0.66213 0.19826 0.0
H157 H 0.2763 0.61251 0.24735 0.0
H158 H 0.40273 0.76648 0.4002 0.0
C159 C 0.23397 0.88 0.26463 0.0
C160 C 0.17602 0.87104 0.20356 0.0
C161 C 0.14207 0.81553 0.16464 0.0
C162 C 0.1654 0.76989 0.18443 0.0
C163 C 0.22233 0.78004 0.24467 0.0
C164 C 0.25631 0.83343 0.2847 0.0
C165 C 0.31737 0.83224 0.34456 0.0
C166 C 0.37769 0.87464 0.29504 0.0
C167 C 0.31488 0.8441 0.46226 0.0
C168 C 0.31314 0.77039 0.32836 0.0
C169 C 0.25727 0.74118 0.27173 0.0
C170 C 0.24283 0.68432 0.24307 0.0
C171 C 0.28732 0.65664 0.27105 0.0
C172 C 0.34585 0.68581 0.32677 0.0
C173 C 0.3583 0.74312 0.3579 0.0
H174 H 0.25782 0.88631 0.92249 0.0
H175 H 0.06791 0.79862 0.7823 0.0
H176 H 0.11137 0.73495 0.68807 0.0
H177 H 0.34938 0.87838 0.69439 0.0
H178 H 0.41365 0.86404 0.77104 0.0
H179 H 0.36928 0.90535 0.8263 0.0
H180 H 0.34053 0.83493 0.98573 0.0
H181 H 0.38519 0.79333 0.93254 0.0
H182 H 0.30176 0.7593 0.96335 0.0
H183 H 0.17284 0.67833 0.61256 0.0
H184 H 0.25091 0.6329 0.55841 0.0
H185 H 0.40163 0.75505 0.74641 0.0
C186 C 0.22586 0.85423 0.87076 0.0
C187 C 0.15952 0.84755 0.85964 0.0
C188 C 0.11886 0.80439 0.79259 0.0
C189 C 0.14304 0.76799 0.73832 0.0
C190 C 0.20815 0.7748 0.75197 0.0
C191 C 0.24921 0.81672 0.81628 0.0
C192 C 0.31678 0.81295 0.81925 0.0
C193 C 0.36513 0.86847 0.77508 0.0
C194 C 0.33725 0.79931 0.93188 0.0
C195 C 0.30692 0.76269 0.74643 0.0
C196 C 0.2438 0.74135 0.70876 0.0
C197 C 0.22253 0.69455 0.6415 0.0
C198 C 0.26707 0.6688 0.61161 0.0
C199 C 0.33217 0.69005 0.6486 0.0
C200 C 0.35213 0.73773 0.71678 0.0
H201 H 0.33242 0.41585 0.61186 0.0
H202 H 0.46122 0.38665 0.86107 0.0
H203 H 0.37869 0.29576 0.90853 0.0
H204 H 0.18245 0.35359 0.76338 0.0
H205 H 0.13503 0.32364 0.64642 0.0
H206 H 0.20319 0.38866 0.63692 0.0
H207 H 0.24828 0.34064 0.49699 0.0
H208 H 0.18404 0.27303 0.50986 0.0
H209 H 0.26699 0.27647 0.53122 0.0
H210 H 0.28986 0.2037 0.91579 0.0
H211 H 0.18774 0.12432 0.91383 0.0
H212 H 0.10934 0.21349 0.67056 0.0
C213 C 0.34256 0.39119 0.67841 0.0
C214 C 0.40373 0.40856 0.73212 0.0
C215 C 0.41501 0.37468 0.8184 0.0
C216 C 0.36851 0.32257 0.84574 0.0
C217 C 0.31023 0.30538 0.78793 0.0
C218 C 0.2959 0.33941 0.70876 0.0
C219 C 0.2288 0.31043 0.66039 0.0
C220 C 0.18475 0.34621 0.67787 0.0
C221 C 0.23212 0.29946 0.54255 0.0
C222 C 0.20826 0.25454 0.72422 0.0
C223 C 0.2568 0.25248 0.79572 0.0
C224 C 0.25094 0.20511 0.86154 0.0
C225 C 0.19257 0.15972 0.85869 0.0
C226 C 0.13974 0.16227 0.79227 0.0
C227 C 0.14858 0.20989 0.72196 0.0
H228 H 0.87443 0.24332 0.86657 0.0
H229 H 0.75301 0.08886 0.70984 0.0
H230 H 0.67406 0.13746 0.6584 0.0
H231 H 0.74726 0.28716 0.96534 0.0
H232 H 0.78864 0.36253 0.9408 0.0
H233 H 0.83414 0.31461 0.96872 0.0
H234 H 0.84857 0.39497 0.76588 0.0
H235 H 0.84763 0.34152 0.67157 0.0
H236 H 0.89382 0.34697 0.79433 0.0
H237 H 0.60884 0.20369 0.62231 0.0
H238 H 0.5639 0.28308 0.60137 0.0
H239 H 0.73061 0.3947 0.77576 0.0
C240 C 0.831 0.21951 0.8222 0.0
C241 C 0.81983 0.1623 0.79235 0.0
C242 C 0.76265 0.13283 0.7334 0.0
C243 C 0.71745 0.16 0.70394 0.0
C244 C 0.73033 0.2167 0.73356 0.0
C245 C 0.78581 0.24614 0.79102 0.0
C246 C 0.7894 0.30737 0.80957 0.0
C247 C 0.78985 0.31854 0.92813 0.0
C248 C 0.84834 0.35022 0.75719 0.0
C249 C 0.72708 0.30772 0.75425 0.0
C250 C 0.69354 0.25501 0.71107 0.0
C251 C 0.6347 0.24518 0.6558 0.0
C252 C 0.60963 0.29058 0.64414 0.0
C253 C 0.64388 0.34528 0.68621 0.0
C254 C 0.70315 0.35351 0.7425 0.0
H255 H 0.63065 0.75413 0.6116 0.0
H256 H 0.65548 0.59586 0.73446 0.0
H257 H 0.75856 0.65162 0.82069 0.0
H258 H 0.80018 0.82888 0.56324 0.0
H259 H 0.79765 0.89765 0.60234 0.0
H260 H 0.72632 0.84523 0.54605 0.0
H261 H 0.66347 0.85096 0.71148 0.0
H262 H 0.73472 0.90298 0.76833 0.0
H263 H 0.69431 0.8378 0.84042 0.0
H264 H 0.85432 0.72203 0.89959 0.0
H265 H 0.94096 0.80502 0.96928 0.0
H266 H 0.85843 0.92025 0.79501 0.0
C267 C 0.65786 0.73123 0.65644 0.0
C268 C 0.63483 0.6706 0.6665 0.0
C269 C 0.67193 0.64223 0.72568 0.0
C270 C 0.73068 0.67348 0.77481 0.0
C271 C 0.75178 0.73298 0.76372 0.0
C272 C 0.71686 0.7618 0.70622 0.0
C273 C 0.75046 0.82631 0.70956 0.0
C274 C 0.76977 0.85102 0.59867 0.0
C275 C 0.70821 0.85626 0.76051 0.0
C276 C 0.80921 0.82901 0.77939 0.0
C277 C 0.80869 0.77444 0.80893 0.0
C278 C 0.85586 0.76501 0.87621 0.0
C279 C 0.90488 0.81266 0.91545 0.0
C280 C 0.90685 0.86925 0.88681 0.0
C281 C 0.85858 0.87752 0.81707 0.0
loop_
_geom_bond_atom_site_label_1
_geom_bond_atom_site_label_2
_geom_bond_distance
_geom_bond_site_symmetry_2
_ccdc_geom_bond_type
Co0 O3 2.042 1_556 S
Co0 O10 2.264 1_556 S
Co0 O29 2.286 . S
Co0 O30 2.069 . S
Co0 O32 2.015 1_455 S
Co1 O3 2.122 . S
Co1 O9 2.073 . S
Co1 O10 2.327 . S
Co1 O11 1.976 1_455 S
Co2 O3 2.087 1_545 S
Co2 O5 2.087 1_454 S
Co2 O12 2.111 1_445 S
Co2 O13 2.143 . S
Co2 O17 2.111 1_554 S
Co2 O31 2.143 1_444 S
O3 Co0 2.042 1_554 S
O3 Co1 2.122 . S
O3 Co2 2.087 1_565 S
O3 H4 0.980 . S
H4 O3 0.980 . S
O5 Co2 2.087 1_656 S
O5 Co6 2.042 1_556 S
O5 Co7 2.122 . S
O5 H8 0.980 . S
Co6 O5 2.042 1_554 S
Co6 O14 2.286 . S
Co6 O15 2.069 . S
Co6 O16 2.015 1_655 S
Co6 O19 2.264 1_554 S
Co7 O5 2.122 . S
Co7 O18 1.976 1_655 S
Co7 O19 2.327 . S
Co7 O20 2.073 . S
H8 O5 0.980 . S
O9 Co1 2.073 . S
O9 C24 1.245 . S
O10 Co0 2.264 1_554 S
O10 Co1 2.327 . S
O10 C24 1.257 . S
O11 Co1 1.976 1_655 S
O11 C23 1.251 . S
O12 Co2 2.111 1_665 S
O12 C23 1.274 . S
O13 Co2 2.143 . S
O13 C26 1.246 . S
O14 Co6 2.286 . S
O14 C25 1.259 . S
O15 Co6 2.069 . S
O15 C25 1.289 . S
O16 Co6 2.015 1_455 S
O16 C26 1.257 . S
O17 Co2 2.111 1_556 S
O17 C27 1.274 . S
O18 Co7 1.976 1_455 S
O18 C27 1.251 . S
O19 Co6 2.264 1_556 S
O19 Co7 2.327 . S
O19 C28 1.257 . S
O20 Co7 2.073 . S
O20 C28 1.245 . S
C21 O29 1.259 . S
C21 O30 1.289 . S
C22 O31 1.246 . S
C22 O32 1.257 . S
C23 O11 1.251 . S
C23 O12 1.274 . S
C24 O9 1.245 . S
C24 O10 1.257 . S
C25 O14 1.259 . S
C25 O15 1.289 . S
C26 O13 1.246 . S
C26 O16 1.257 . S
C27 O17 1.274 . S
C27 O18 1.251 . S
C28 O19 1.257 . S
C28 O20 1.245 . S
O29 Co0 2.286 . S
O29 C21 1.259 . S
O30 Co0 2.069 . S
O30 C21 1.289 . S
O31 Co2 2.143 1_666 S
O31 C22 1.246 . S
O32 Co0 2.015 1_655 S
O32 C22 1.257 . S
Co33 O36 2.042 . S
Co33 O43 2.264 . S
Co33 O62 2.286 . S
Co33 O63 2.069 . S
Co33 O65 2.015 . S
Co34 O36 2.122 . S
Co34 O42 2.073 . S
Co34 O43 2.327 . S
Co34 O44 1.976 . S
Co35 O36 2.087 . S
Co35 O38 2.087 . S
Co35 O45 2.111 . S
Co35 O46 2.143 . S
Co35 O50 2.111 . S
Co35 O64 2.143 . S
O36 Co33 2.042 . S
O36 Co34 2.122 . S
O36 Co35 2.087 . S
O36 H37 0.980 . S
H37 O36 0.980 . S
O38 Co35 2.087 . S
O38 Co39 2.042 . S
O38 Co40 2.122 . S
O38 H41 0.980 . S
Co39 O38 2.042 . S
Co39 O47 2.286 . S
Co39 O48 2.069 . S
Co39 O49 2.015 . S
Co39 O52 2.264 . S
Co40 O38 2.122 . S
Co40 O51 1.976 . S
Co40 O52 2.327 . S
Co40 O53 2.073 . S
H41 O38 0.980 . S
O42 Co34 2.073 . S
O42 C57 1.245 . S
O43 Co33 2.264 . S
O43 Co34 2.327 . S
O43 C57 1.257 . S
O44 Co34 1.976 . S
O44 C56 1.251 . S
O45 Co35 2.111 . S
O45 C56 1.274 . S
O46 Co35 2.143 . S
O46 C59 1.246 . S
O47 Co39 2.286 . S
O47 C58 1.259 . S
O48 Co39 2.069 . S
O48 C58 1.289 . S
O49 Co39 2.015 . S
O49 C59 1.257 . S
O50 Co35 2.111 . S
O50 C60 1.274 . S
O51 Co40 1.976 . S
O51 C60 1.251 . S
O52 Co39 2.264 . S
O52 Co40 2.327 . S
O52 C61 1.257 . S
O53 Co40 2.073 . S
O53 C61 1.245 . S
C54 O62 1.259 . S
C54 O63 1.289 . S
C55 O64 1.246 . S
C55 O65 1.257 . S
C56 O44 1.251 . S
C56 O45 1.274 . S
C57 O42 1.245 . S
C57 O43 1.257 . S
C58 O47 1.259 . S
C58 O48 1.289 . S
C59 O46 1.246 . S
C59 O49 1.257 . S
C60 O50 1.274 . S
C60 O51 1.251 . S
C61 O52 1.257 . S
C61 O53 1.245 . S
O62 Co33 2.286 . S
O62 C54 1.259 . S
O63 Co33 2.069 . S
O63 C54 1.289 . S
O64 Co35 2.143 . S
O64 C55 1.246 . S
O65 Co33 2.015 . S
O65 C55 1.257 . S
H66 C78 0.930 . S
H67 C80 0.930 . S
H68 C81 0.930 . S
H69 C85 0.959 . S
H70 C85 0.959 . S
H71 C85 0.961 . S
H72 C86 0.960 1_556 S
H73 C86 0.961 . S
H74 C86 0.959 . S
H75 C89 0.929 . S
H76 C90 0.931 . S
H77 C92 0.930 . S
C78 H66 0.930 . S
C78 C79 1.399 . S
C78 C83 1.399 . S
C79 C78 1.399 . S
C79 C80 1.376 . S
C80 H67 0.930 . S
C80 C79 1.376 . S
C80 C81 1.388 . S
C81 H68 0.930 . S
C81 C80 1.388 . S
C81 C82 1.390 . S
C82 C81 1.390 . S
C82 C83 1.394 . S
C82 C88 1.465 . S
C83 C78 1.399 . S
C83 C82 1.394 . S
C83 C84 1.516 . S
C84 C83 1.516 . S
C84 C85 1.502 . S
C84 C86 1.561 . S
C84 C87 1.526 . S
C85 H69 0.959 . S
C85 H70 0.959 . S
C85 H71 0.961 . S
C85 C84 1.502 . S
C86 H72 0.960 1_554 S
C86 H73 0.961 . S
C86 H74 0.959 . S
C86 C84 1.561 . S
C87 C84 1.526 . S
C87 C88 1.396 . S
C87 C92 1.390 . S
C88 C82 1.465 . S
C88 C87 1.396 . S
C88 C89 1.399 . S
C89 H75 0.929 . S
C89 C88 1.399 . S
C89 C90 1.385 . S
C90 H76 0.931 . S
C90 C89 1.385 . S
C90 C91 1.389 . S
C91 C90 1.389 . S
C91 C92 1.387 . S
C92 H77 0.930 . S
C92 C87 1.390 . S
C92 C91 1.387 . S
H93 C105 0.930 . S
H94 C107 0.930 . S
H95 C108 0.930 . S
H96 C112 0.959 . S
H97 C112 0.959 . S
H98 C112 0.961 . S
H99 C113 0.960 . S
H100 C113 0.961 . S
H101 C113 0.959 . S
H102 C116 0.929 . S
H103 C117 0.931 . S
H104 C119 0.930 . S
C105 H93 0.930 . S
C105 C106 1.399 . S
C105 C110 1.399 . S
C106 C105 1.399 . S
C106 C107 1.376 . S
C107 H94 0.930 . S
C107 C106 1.376 . S
C107 C108 1.388 . S
C108 H95 0.930 . S
C108 C107 1.388 . S
C108 C109 1.390 . S
C109 C108 1.390 . S
C109 C110 1.394 . S
C109 C115 1.465 . S
C110 C105 1.399 . S
C110 C109 1.394 . S
C110 C111 1.516 . S
C111 C110 1.516 . S
C111 C112 1.502 . S
C111 C113 1.561 . S
C111 C114 1.526 . S
C112 H96 0.959 . S
C112 H97 0.959 . S
C112 H98 0.961 . S
C112 C111 1.502 . S
C113 H99 0.960 . S
C113 H100 0.961 . S
C113 H101 0.959 . S
C113 C111 1.561 . S
C114 C111 1.526 . S
C114 C115 1.396 . S
C114 C119 1.390 . S
C115 C109 1.465 . S
C115 C114 1.396 . S
C115 C116 1.399 . S
C116 H102 0.929 . S
C116 C115 1.399 . S
C116 C117 1.385 . S
C117 H103 0.931 . S
C117 C116 1.385 . S
C117 C118 1.389 . S
C118 C117 1.389 . S
C118 C119 1.387 . S
C119 H104 0.930 . S
C119 C114 1.390 . S
C119 C118 1.387 . S
H120 C132 0.930 . S
H121 C134 0.930 . S
H122 C135 0.930 . S
H123 C139 0.959 . S
H124 C139 0.959 . S
H125 C139 0.961 . S
H126 C140 0.960 . S
H127 C140 0.961 . S
H128 C140 0.959 . S
H129 C143 0.929 . S
H130 C144 0.931 . S
H131 C146 0.930 . S
C132 H120 0.930 . S
C132 C133 1.399 . S
C132 C137 1.399 . S
C133 C132 1.399 . S
C133 C134 1.376 . S
C134 H121 0.930 . S
C134 C133 1.376 . S
C134 C135 1.388 . S
C135 H122 0.930 . S
C135 C134 1.388 . S
C135 C136 1.390 . S
C136 C135 1.390 . S
C136 C137 1.394 . S
C136 C142 1.465 . S
C137 C132 1.399 . S
C137 C136 1.394 . S
C137 C138 1.516 . S
C138 C137 1.516 . S
C138 C139 1.502 . S
C138 C140 1.561 . S
C138 C141 1.526 . S
C139 H123 0.959 . S
C139 H124 0.959 . S
C139 H125 0.961 . S
C139 C138 1.502 . S
C140 H126 0.960 . S
C140 H127 0.961 . S
C140 H128 0.959 . S
C140 C138 1.561 . S
C141 C138 1.526 . S
C141 C142 1.396 . S
C141 C146 1.390 . S
C142 C136 1.465 . S
C142 C141 1.396 . S
C142 C143 1.399 . S
C143 H129 0.929 . S
C143 C142 1.399 . S
C143 C144 1.385 . S
C144 H130 0.931 . S
C144 C143 1.385 . S
C144 C145 1.389 . S
C145 C144 1.389 . S
C145 C146 1.387 . S
C146 H131 0.930 . S
C146 C141 1.390 . S
C146 C145 1.387 . S
H147 C159 0.930 . S
H148 C161 0.930 . S
H149 C162 0.930 . S
H150 C166 0.959 . S
H151 C166 0.959 . S
H152 C166 0.961 . S
H153 C167 0.960 . S
H154 C167 0.961 . S
H155 C167 0.959 . S
H156 C170 0.929 . S
H157 C171 0.931 . S
H158 C173 0.930 . S
C159 H147 0.930 . S
C159 C160 1.399 . S
C159 C164 1.399 . S
C160 C159 1.399 . S
C160 C161 1.376 . S
C161 H148 0.930 . S
C161 C160 1.376 . S
C161 C162 1.388 . S
C162 H149 0.930 . S
C162 C161 1.388 . S
C162 C163 1.390 . S
C163 C162 1.390 . S
C163 C164 1.394 . S
C163 C169 1.465 . S
C164 C159 1.399 . S
C164 C163 1.394 . S
C164 C165 1.516 . S
C165 C164 1.516 . S
C165 C166 1.502 . S
C165 C167 1.561 . S
C165 C168 1.526 . S
C166 H150 0.959 . S
C166 H151 0.959 . S
C166 H152 0.961 . S
C166 C165 1.502 . S
C167 H153 0.960 . S
C167 H154 0.961 . S
C167 H155 0.959 . S
C167 C165 1.561 . S
C168 C165 1.526 . S
C168 C169 1.396 . S
C168 C173 1.390 . S
C169 C163 1.465 . S
C169 C168 1.396 . S
C169 C170 1.399 . S
C170 H156 0.929 . S
C170 C169 1.399 . S
C170 C171 1.385 . S
C171 H157 0.931 . S
C171 C170 1.385 . S
C171 C172 1.389 . S
C172 C171 1.389 . S
C172 C173 1.387 . S
C173 H158 0.930 . S
C173 C168 1.390 . S
C173 C172 1.387 . S
H174 C186 0.930 . S
H175 C188 0.930 . S
H176 C189 0.930 . S
H177 C193 0.959 . S
H178 C193 0.959 . S
H179 C193 0.961 1_554 S
H180 C194 0.960 . S
H181 C194 0.961 . S
H182 C194 0.959 . S
H183 C197 0.929 . S
H184 C198 0.931 . S
H185 C200 0.930 . S
C186 H174 0.930 . S
C186 C187 1.399 . S
C186 C191 1.399 . S
C187 C186 1.399 . S
C187 C188 1.376 . S
C188 H175 0.930 . S
C188 C187 1.376 . S
C188 C189 1.388 . S
C189 H176 0.930 . S
C189 C188 1.388 . S
C189 C190 1.390 . S
C190 C189 1.390 . S
C190 C191 1.394 . S
C190 C196 1.465 . S
C191 C186 1.399 . S
C191 C190 1.394 . S
C191 C192 1.516 . S
C192 C191 1.516 . S
C192 C193 1.502 . S
C192 C194 1.561 . S
C192 C195 1.526 . S
C193 H177 0.959 . S
C193 H178 0.959 . S
C193 H179 0.961 1_556 S
C193 C192 1.502 . S
C194 H180 0.960 . S
C194 H181 0.961 . S
C194 H182 0.959 . S
C194 C192 1.561 . S
C195 C192 1.526 . S
C195 C196 1.396 . S
C195 C200 1.390 . S
C196 C190 1.465 . S
C196 C195 1.396 . S
C196 C197 1.399 . S
C197 H183 0.929 . S
C197 C196 1.399 . S
C197 C198 1.385 . S
C198 H184 0.931 . S
C198 C197 1.385 . S
C198 C199 1.389 . S
C199 C198 1.389 . S
C199 C200 1.387 . S
C200 H185 0.930 . S
C200 C195 1.390 . S
C200 C199 1.387 . S
H201 C213 0.930 . S
H202 C215 0.930 . S
H203 C216 0.930 . S
H204 C220 0.959 . S
H205 C220 0.959 1_554 S
H206 C220 0.961 . S
H207 C221 0.960 . S
H208 C221 0.961 . S
H209 C221 0.959 . S
H210 C224 0.929 . S
H211 C225 0.931 . S
H212 C227 0.930 . S
C213 H201 0.930 . S
C213 C214 1.399 . S
C213 C218 1.399 . S
C214 C213 1.399 . S
C214 C215 1.376 . S
C215 H202 0.930 . S
C215 C214 1.376 . S
C215 C216 1.388 . S
C216 H203 0.930 . S
C216 C215 1.388 . S
C216 C217 1.390 . S
C217 C216 1.390 . S
C217 C218 1.394 . S
C217 C223 1.465 . S
C218 C213 1.399 . S
C218 C217 1.394 . S
C218 C219 1.516 . S
C219 C218 1.516 . S
C219 C220 1.502 . S
C219 C221 1.561 . S
C219 C222 1.526 . S
C220 H204 0.959 . S
C220 H205 0.959 1_556 S
C220 H206 0.961 . S
C220 C219 1.502 . S
C221 H207 0.960 . S
C221 H208 0.961 . S
C221 H209 0.959 . S
C221 C219 1.561 . S
C222 C219 1.526 . S
C222 C223 1.396 . S
C222 C227 1.390 . S
C223 C217 1.465 . S
C223 C222 1.396 . S
C223 C224 1.399 . S
C224 H210 0.929 . S
C224 C223 1.399 . S
C224 C225 1.385 . S
C225 H211 0.931 . S
C225 C224 1.385 . S
C225 C226 1.389 . S
C226 C225 1.389 . S
C226 C227 1.387 . S
C227 H212 0.930 . S
C227 C222 1.390 . S
C227 C226 1.387 . S
H228 C240 0.930 . S
H229 C242 0.930 . S
H230 C243 0.930 . S
H231 C247 0.959 . S
H232 C247 0.959 . S
H233 C247 0.961 . S
H234 C248 0.960 . S
H235 C248 0.961 . S
H236 C248 0.959 . S
H237 C251 0.929 . S
H238 C252 0.931 . S
H239 C254 0.930 . S
C240 H228 0.930 . S
C240 C241 1.399 . S
C240 C245 1.399 . S
C241 C240 1.399 . S
C241 C242 1.376 . S
C242 H229 0.930 . S
C242 C241 1.376 . S
C242 C243 1.388 . S
C243 H230 0.930 . S
C243 C242 1.388 . S
C243 C244 1.390 . S
C244 C243 1.390 . S
C244 C245 1.394 . S
C244 C250 1.465 . S
C245 C240 1.399 . S
C245 C244 1.394 . S
C245 C246 1.516 . S
C246 C245 1.516 . S
C246 C247 1.502 . S
C246 C248 1.561 . S
C246 C249 1.526 . S
C247 H231 0.959 . S
C247 H232 0.959 . S
C247 H233 0.961 . S
C247 C246 1.502 . S
C248 H234 0.960 . S
C248 H235 0.961 . S
C248 H236 0.959 . S
C248 C246 1.561 . S
C249 C246 1.526 . S
C249 C250 1.396 . S
C249 C254 1.390 . S
C250 C244 1.465 . S
C250 C249 1.396 . S
C250 C251 1.399 . S
C251 H237 0.929 . S
C251 C250 1.399 . S
C251 C252 1.385 . S
C252 H238 0.931 . S
C252 C251 1.385 . S
C252 C253 1.389 . S
C253 C252 1.389 . S
C253 C254 1.387 . S
C254 H239 0.930 . S
C254 C249 1.390 . S
C254 C253 1.387 . S
H255 C267 0.930 . S
H256 C269 0.930 . S
H257 C270 0.930 . S
H258 C274 0.959 . S
H259 C274 0.959 . S
H260 C274 0.961 . S
H261 C275 0.960 . S
H262 C275 0.961 . S
H263 C275 0.959 . S
H264 C278 0.929 . S
H265 C279 0.931 . S
H266 C281 0.930 . S
C267 H255 0.930 . S
C267 C268 1.399 . S
C267 C272 1.399 . S
C268 C267 1.399 . S
C268 C269 1.376 . S
C269 H256 0.930 . S
C269 C268 1.376 . S
C269 C270 1.388 . S
C270 H257 0.930 . S
C270 C269 1.388 . S
C270 C271 1.390 . S
C271 C270 1.390 . S
C271 C272 1.394 . S
C271 C277 1.465 . S
C272 C267 1.399 . S
C272 C271 1.394 . S
C272 C273 1.516 . S
C273 C272 1.516 . S
C273 C274 1.502 . S
C273 C275 1.561 . S
C273 C276 1.526 . S
C274 H258 0.959 . S
C274 H259 0.959 . S
C274 H260 0.961 . S
C274 C273 1.502 . S
C275 H261 0.960 . S
C275 H262 0.961 . S
C275 H263 0.959 . S
C275 C273 1.561 . S
C276 C273 1.526 . S
C276 C277 1.396 . S
C276 C281 1.390 . S
C277 C271 1.465 . S
C277 C276 1.396 . S
C277 C278 1.399 . S
C278 H264 0.929 . S
C278 C277 1.399 . S
C278 C279 1.385 . S
C279 H265 0.931 . S
C279 C278 1.385 . S
C279 C280 1.389 . S
C280 C279 1.389 . S
C280 C281 1.387 . S
C281 H266 0.930 . S
C281 C276 1.390 . S
C281 C280 1.387 . S
C79 C26 1.294 . S
C91 C55 1.362 . S
C106 C25 1.703 . S
C118 C54 1.699 . S
C133 C23 1.228 . S
C145 C60 1.327 . S
C160 C24 1.383 . S
C172 C61 1.383 . S
C187 C21 1.688 . S
C199 C58 1.704 . S
C214 C56 1.315 . S
C226 C27 1.260 . S
C241 C28 1.428 . S
C253 C57 1.349 . S
C268 C59 1.361 . S
C280 C22 1.301 . S
