# Generated by pormake.
# Topology una, (4)-cn, num edge types: 1
# Building blocks:
#     Node 0, Type 0, BuildingBlock: AZAVOO_clean_sbu_0, # of connection points: 4
#     Node 1, Type 0, BuildingBlock: AZAVOO_clean_sbu_0, # of connection points: 4
#     Node 2, Type 0, BuildingBlock: AZAVOO_clean_sbu_0, # of connection points: 4
#     Node 3, Type 0, BuildingBlock: AZAVOO_clean_sbu_0, # of connection points: 4
#     Node 4, Type 0, BuildingBlock: AZAVOO_clean_sbu_0, # of connection points: 4
#     Node 5, Type 0, BuildingBlock: AZAVOO_clean_sbu_0, # of connection points: 4
#     Node 6, Type 0, BuildingBlock: AZAVOO_clean_sbu_0, # of connection points: 4
#     Node 7, Type 0, BuildingBlock: AZAVOO_clean_sbu_0, # of connection points: 4
#     Node 8, Type 0, BuildingBlock: AZAVOO_clean_sbu_0, # of connection points: 4
#     Node 9, Type 0, BuildingBlock: AZAVOO_clean_sbu_0, # of connection points: 4
#     Node 10, Type 0, BuildingBlock: AZAVOO_clean_sbu_0, # of connection points: 4
#     Node 11, Type 0, BuildingBlock: AZAVOO_clean_sbu_0, # of connection points: 4
#     Edge 12, Type (0, 0), BuildingBlock: XUDNAN_clean_linker_2, # of connection points: 2
#     Edge 13, Type (0, 0), BuildingBlock: XUDNAN_clean_linker_2, # of connection points: 2
#     Edge 14, Type (0, 0), BuildingBlock: XUDNAN_clean_linker_2, # of connection points: 2
#     Edge 15, Type (0, 0), BuildingBlock: XUDNAN_clean_linker_2, # of connection points: 2
#     Edge 16, Type (0, 0), BuildingBlock: XUDNAN_clean_linker_2, # of connection points: 2
#     Edge 17, Type (0, 0), BuildingBlock: XUDNAN_clean_linker_2, # of connection points: 2
#     Edge 18, Type (0, 0), BuildingBlock: XUDNAN_clean_linker_2, # of connection points: 2
#     Edge 19, Type (0, 0), BuildingBlock: XUDNAN_clean_linker_2, # of connection points: 2
#     Edge 20, Type (0, 0), BuildingBlock: XUDNAN_clean_linker_2, # of connection points: 2
#     Edge 21, Type (0, 0), BuildingBlock: XUDNAN_clean_linker_2, # of connection points: 2
#     Edge 22, Type (0, 0), BuildingBlock: XUDNAN_clean_linker_2, # of connection points: 2
#     Edge 23, Type (0, 0), BuildingBlock: XUDNAN_clean_linker_2, # of connection points: 2
#     Edge 24, Type (0, 0), BuildingBlock: XUDNAN_clean_linker_2, # of connection points: 2
#     Edge 25, Type (0, 0), BuildingBlock: XUDNAN_clean_linker_2, # of connection points: 2
#     Edge 26, Type (0, 0), BuildingBlock: XUDNAN_clean_linker_2, # of connection points: 2
#     Edge 27, Type (0, 0), BuildingBlock: XUDNAN_clean_linker_2, # of connection points: 2
#     Edge 28, Type (0, 0), BuildingBlock: XUDNAN_clean_linker_2, # of connection points: 2
#     Edge 29, Type (0, 0), BuildingBlock: XUDNAN_clean_linker_2, # of connection points: 2
#     Edge 30, Type (0, 0), BuildingBlock: XUDNAN_clean_linker_2, # of connection points: 2
#     Edge 31, Type (0, 0), BuildingBlock: XUDNAN_clean_linker_2, # of connection points: 2
#     Edge 32, Type (0, 0), BuildingBlock: XUDNAN_clean_linker_2, # of connection points: 2
#     Edge 33, Type (0, 0), BuildingBlock: XUDNAN_clean_linker_2, # of connection points: 2
#     Edge 34, Type (0, 0), BuildingBlock: XUDNAN_clean_linker_2, # of connection points: 2
#     Edge 35, Type (0, 0), BuildingBlock: XUDNAN_clean_linker_2, # of connection points: 2
# Relax obj value: 0.178
# Max RMSD: 0.208
# Mean RMSD: 0.204
data_MOF--net-una--node1-AZAVOO_clean_sbu_0--edge1-XUDNAN_clean_linker_2
_symmetry_space_group_name_H-M    P1
_symmetry_Int_Tables_number       1
_symmetry_cell_setting            triclinic
loop_
_symmetry_equiv_pos_as_xyz
'x, y, z'
_cell_length_a     57.890297
_cell_length_b     55.633346
_cell_length_c     21.951336
_cell_angle_alpha  90.093862
_cell_angle_beta   89.88431
_cell_angle_gamma 121.3357
loop_
_atom_site_label
_atom_site_type_symbol
_atom_site_fract_x
_atom_site_fract_y
_atom_site_fract_z
_atom_type_partial_charge
Mg0 Mg 0.15778 0.44423 0.97463 0.0
O1 O 0.15809 0.4793 0.03007 0.0
O2 O 0.2011 0.51299 0.04531 0.0
Mg3 Mg 0.22834 0.49767 0.00968 0.0
C4 C 0.17582 0.50349 0.05033 0.0
C5 C 0.09619 0.41851 -0.00555 0.0
O6 O 0.1044 0.41997 0.05084 0.0
O7 O 0.17272 0.47194 0.89015 0.0
O8 O 0.21662 0.50088 0.91205 0.0
O9 O 0.15862 0.42111 0.05808 0.0
O10 O 0.19473 0.45364 0.00942 0.0
C11 C 0.19664 0.49142 0.87535 0.0
C12 C 0.18471 0.43554 0.05255 0.0
O13 O 0.11348 0.42703 0.95161 0.0
Mg14 Mg 0.69133 0.12358 0.25642 0.0
O15 O 0.71191 0.14852 0.17078 0.0
O16 O 0.6845 0.13095 0.09065 0.0
Mg17 Mg 0.64483 0.09391 0.12701 0.0
C18 C 0.70714 0.14894 0.11437 0.0
C19 C 0.75034 0.16633 0.29492 0.0
O20 O 0.75435 0.15238 0.25204 0.0
O21 O 0.66638 0.1447 0.26236 0.0
O22 O 0.63886 0.12536 0.18206 0.0
O23 O 0.7042 0.09279 0.23394 0.0
O24 O 0.66563 0.08831 0.20497 0.0
C25 C 0.64736 0.14193 0.22791 0.0
C26 C 0.68173 0.07889 0.20399 0.0
O27 O 0.72623 0.15893 0.30943 0.0
Mg28 Mg 0.58102 0.69602 0.38973 0.0
O29 O 0.5396 0.6567 0.41214 0.0
O30 O 0.51232 0.67159 0.44328 0.0
Mg31 Mg 0.53564 0.71937 0.44412 0.0
C32 C 0.51658 0.65186 0.43029 0.0
C33 C 0.59588 0.65007 0.37291 0.0
O34 O 0.58883 0.64654 0.43064 0.0
O35 O 0.56338 0.70214 0.30143 0.0
O36 O 0.53708 0.71685 0.34099 0.0
O37 O 0.59478 0.7002 0.48775 0.0
O38 O 0.57372 0.72018 0.44949 0.0
C39 C 0.54666 0.71048 0.29556 0.0
C40 C 0.5843 0.71562 0.49591 0.0
O41 O 0.59432 0.66857 0.34237 0.0
Mg42 Mg 0.84944 0.56434 0.48824 0.0
O43 O 0.84798 0.53143 0.55314 0.0
O44 O 0.80586 0.50395 0.58739 0.0
Mg45 Mg 0.7807 0.52165 0.5506 0.0
C46 C 0.83046 0.5105 0.5843 0.0
C47 C 0.90915 0.58117 0.49747 0.0
O48 O 0.9023 0.58061 0.55478 0.0
O49 O 0.82672 0.53033 0.41556 0.0
O50 O 0.78495 0.50813 0.45523 0.0
O51 O 0.857 0.5947 0.56481 0.0
O52 O 0.81667 0.56285 0.53027 0.0
C53 C 0.80144 0.51173 0.4124 0.0
C54 C 0.83099 0.58321 0.56693 0.0
O55 O 0.89137 0.57483 0.45646 0.0
Mg56 Mg 0.30007 0.87224 0.73124 0.0
O57 O 0.28783 0.84722 0.6425 0.0
O58 O 0.32312 0.86778 0.57878 0.0
Mg59 Mg 0.35672 0.90772 0.62408 0.0
C60 C 0.29906 0.84821 0.59181 0.0
C61 C 0.23967 0.82873 0.76207 0.0
O62 O 0.2364 0.84342 0.71987 0.0
O63 O 0.32744 0.85496 0.7548 0.0
O64 O 0.36203 0.87931 0.69058 0.0
O65 O 0.28533 0.89971 0.69566 0.0
O66 O 0.32704 0.90883 0.68492 0.0
C67 C 0.35056 0.8614 0.73347 0.0
C68 C 0.30936 0.91557 0.67335 0.0
O69 O 0.2635 0.83534 0.77699 0.0
Mg70 Mg 0.4358 0.31568 0.88355 0.0
O71 O 0.4784 0.35558 0.88766 0.0
O72 O 0.5067 0.34097 0.91136 0.0
Mg73 Mg 0.48309 0.29388 0.9307 0.0
C74 C 0.50225 0.36045 0.89717 0.0
C75 C 0.3982 0.33755 0.86121 0.0
O76 O 0.39007 0.32387 0.91308 0.0
O77 O 0.44628 0.30185 0.79426 0.0
O78 O 0.47172 0.28565 0.83051 0.0
O79 O 0.4281 0.31845 0.98356 0.0
O80 O 0.44676 0.29571 0.94671 0.0
C81 C 0.45951 0.28945 0.78667 0.0
C82 C 0.43846 0.30306 -0.00668 0.0
O83 O 0.41838 0.33902 0.83433 0.0
Mg84 Mg 0.56269 0.87055 0.8799 0.0
O85 O 0.55281 0.8396 0.95762 0.0
O86 O 0.53799 0.85236 0.03826 0.0
Mg87 Mg 0.54073 0.8936 0.01318 0.0
C88 C 0.54364 0.83564 0.01172 0.0
C89 C 0.57752 0.82754 0.83283 0.0
O90 O 0.58988 0.83428 0.88576 0.0
O91 O 0.51718 0.85206 0.86365 0.0
O92 O 0.50625 0.86796 0.94608 0.0
O93 O 0.60515 0.8978 0.9141 0.0
O94 O 0.57089 0.90234 0.94153 0.0
C95 C 0.49993 0.8542 0.89611 0.0
C96 C 0.59605 0.91046 0.94694 0.0
O97 O 0.56443 0.83905 0.81633 0.0
Mg98 Mg 0.72298 0.58419 0.01042 0.0
O99 O 0.68601 0.55036 0.95927 0.0
O100 O 0.69928 0.52797 0.89707 0.0
Mg101 Mg 0.74573 0.55105 0.89995 0.0
C102 C 0.68078 0.53104 0.92065 0.0
C103 C 0.69343 0.58102 0.13503 0.0
O104 O 0.708 0.57085 0.15507 0.0
O105 O 0.72464 0.54961 0.06355 0.0
O106 O 0.7433 0.53425 -0.00413 0.0
O107 O 0.73101 0.61576 0.93609 0.0
O108 O 0.74821 0.58843 0.93999 0.0
C109 C 0.73447 0.53441 0.04909 0.0
C110 C 0.74593 0.60723 0.91188 0.0
O111 O 0.69504 0.58785 0.07921 0.0
Mg112 Mg 0.12593 0.69863 0.20096 0.0
O113 O 0.13275 0.66235 0.17569 0.0
O114 O 0.1727 0.68221 0.12756 0.0
Mg115 Mg 0.19099 0.72948 0.11919 0.0
C116 C 0.15157 0.66066 0.14909 0.0
C117 C 0.09113 0.66943 0.32192 0.0
O118 O 0.11426 0.68539 0.34986 0.0
O119 O 0.15794 0.7128 0.27685 0.0
O120 O 0.19602 0.73183 0.22184 0.0
O121 O 0.10632 0.69542 0.1098 0.0
O122 O 0.15009 0.72167 0.12819 0.0
C123 C 0.18368 0.7253 0.27287 0.0
C124 C 0.13061 0.71202 0.08965 0.0
O125 O 0.09024 0.66992 0.26404 0.0
Mg126 Mg 0.42826 0.12246 0.34414 0.0
O127 O 0.4348 0.15117 0.42423 0.0
O128 O 0.44855 0.13799 0.5054 0.0
Mg129 Mg 0.44927 0.09874 0.4767 0.0
C130 C 0.44242 0.15445 0.47949 0.0
C131 C 0.41372 0.16577 0.29816 0.0
O132 O 0.3974 0.15547 0.34527 0.0
O133 O 0.47392 0.143 0.33277 0.0
O134 O 0.48493 0.12597 0.41241 0.0
O135 O 0.38532 0.09332 0.37303 0.0
O136 O 0.4198 0.08967 0.40293 0.0
C137 C 0.49136 0.14076 0.36387 0.0
C138 C 0.39438 0.08073 0.40616 0.0
O139 O 0.42811 0.15546 0.28376 0.0
Mg140 Mg 0.29038 0.4174 0.47742 0.0
O141 O 0.33096 0.45567 0.4487 0.0
O142 O 0.32264 0.48237 0.3876 0.0
Mg143 Mg 0.27706 0.45993 0.37153 0.0
C144 C 0.33902 0.47774 0.41661 0.0
C145 C 0.30167 0.40168 0.60541 0.0
O146 O 0.27885 0.4007 0.61599 0.0
O147 O 0.2819 0.44541 0.5384 0.0
O148 O 0.2723 0.46916 0.47037 0.0
O149 O 0.28984 0.39303 0.39416 0.0
O150 O 0.27198 0.41977 0.4004 0.0
C151 C 0.27498 0.46318 0.52498 0.0
C152 C 0.27695 0.40364 0.36877 0.0
O153 O 0.31197 0.40819 0.5524 0.0
Mg154 Mg 0.87537 0.31072 0.70901 0.0
O155 O 0.86832 0.3476 0.69652 0.0
O156 O 0.82579 0.32853 0.66315 0.0
Mg157 Mg 0.807 0.28144 0.64626 0.0
C158 C 0.84827 0.34979 0.68025 0.0
C159 C 0.91425 0.32738 0.81984 0.0
O160 O 0.89415 0.30274 0.83748 0.0
O161 O 0.84705 0.29507 0.79171 0.0
O162 O 0.80622 0.27369 0.74833 0.0
O163 O 0.89086 0.31487 0.6126 0.0
O164 O 0.84806 0.2891 0.64008 0.0
C165 C 0.8213 0.27996 0.79521 0.0
C166 C 0.86579 0.29845 0.5973 0.0
O167 O 0.9128 0.33719 0.76863 0.0
H168 H 0.17114 0.40049 0.15168 0.0
H169 H 0.2389 0.45804 0.03746 0.0
H170 H 0.26881 0.44735 0.09525 0.0
H171 H 0.20721 0.41974 0.2885 0.0
H172 H 0.18931 0.38477 0.3203 0.0
H173 H 0.17308 0.39475 0.26481 0.0
H174 H 0.16397 0.352 0.1984 0.0
H175 H 0.18107 0.34255 0.25321 0.0
H176 H 0.19193 0.34849 0.17479 0.0
H177 H 0.29245 0.43443 0.1711 0.0
H178 H 0.30845 0.42528 0.26785 0.0
H179 H 0.22581 0.37544 0.33109 0.0
C180 C 0.19222 0.41066 0.13861 0.0
C181 C 0.20263 0.4301 0.09018 0.0
C182 C 0.23042 0.44318 0.07472 0.0
C183 C 0.24756 0.43696 0.10672 0.0
C184 C 0.23663 0.41747 0.15385 0.0
C185 C 0.20967 0.40474 0.1702 0.0
C186 C 0.20365 0.38691 0.22665 0.0
C187 C 0.19269 0.39717 0.27808 0.0
C188 C 0.18399 0.35563 0.21237 0.0
C189 C 0.23165 0.39258 0.24088 0.0
C190 C 0.25031 0.40967 0.19745 0.0
C191 C 0.27798 0.4204 0.2046 0.0
C192 C 0.28693 0.41483 0.2592 0.0
C193 C 0.26818 0.39887 0.30537 0.0
C194 C 0.24027 0.38662 0.29495 0.0
H195 H 0.81872 0.28589 0.54292 0.0
H196 H 0.8933 0.28741 0.51122 0.0
H197 H 0.87342 0.25846 0.41843 0.0
H198 H 0.77724 0.21726 0.51638 0.0
H199 H 0.75045 0.21937 0.48006 0.0
H200 H 0.77249 0.24617 0.533 0.0
H201 H 0.78523 0.28472 0.45143 0.0
H202 H 0.76273 0.25805 0.39826 0.0
H203 H 0.79769 0.28171 0.37823 0.0
H204 H 0.8423 0.22181 0.34212 0.0
H205 H 0.80393 0.18302 0.28632 0.0
H206 H 0.74923 0.20403 0.373 0.0
C207 C 0.8311 0.28074 0.51569 0.0
C208 C 0.85739 0.2886 0.53433 0.0
C209 C 0.87319 0.28184 0.49711 0.0
C210 C 0.86199 0.2653 0.44456 0.0
C211 C 0.83519 0.25617 0.4298 0.0
C212 C 0.82015 0.26415 0.46381 0.0
C213 C 0.79091 0.24889 0.4437 0.0
C214 C 0.77167 0.23192 0.49641 0.0
C215 C 0.78373 0.26958 0.41625 0.0
C216 C 0.7914 0.2298 0.3954 0.0
C217 C 0.81719 0.23471 0.3869 0.0
C218 C 0.82215 0.21819 0.34757 0.0
C219 C 0.80019 0.1961 0.31635 0.0
C220 C 0.77358 0.19046 0.32549 0.0
C221 C 0.76933 0.20783 0.36496 0.0
H222 H 0.56721 0.75189 0.51932 0.0
H223 H 0.60161 0.70779 0.60732 0.0
H224 H 0.60249 0.73058 0.70537 0.0
H225 H 0.60474 0.81585 0.5967 0.0
H226 H 0.57735 0.82234 0.60122 0.0
H227 H 0.57857 0.80166 0.5396 0.0
H228 H 0.5306 0.76049 0.56783 0.0
H229 H 0.52913 0.78112 0.62938 0.0
H230 H 0.52389 0.74678 0.64438 0.0
H231 H 0.60128 0.7605 0.79261 0.0
H232 H 0.59725 0.7935 0.86105 0.0
H233 H 0.56216 0.81589 0.71351 0.0
C234 C 0.5744 0.74639 0.55921 0.0
C235 C 0.58397 0.72769 0.55577 0.0
C236 C 0.59399 0.7219 0.60902 0.0
C237 C 0.59455 0.73473 0.6648 0.0
C238 C 0.58489 0.7531 0.66629 0.0
C239 C 0.57487 0.75871 0.61476 0.0
C240 C 0.56618 0.77959 0.62727 0.0
C241 C 0.58271 0.80644 0.58893 0.0
C242 C 0.53564 0.76618 0.6166 0.0
C243 C 0.57312 0.78523 0.694 0.0
C244 C 0.58391 0.76983 0.71589 0.0
C245 C 0.59266 0.77245 0.77596 0.0
C246 C 0.59035 0.79131 0.81441 0.0
C247 C 0.57931 0.80721 0.79262 0.0
C248 C 0.57047 0.80389 0.73171 0.0
H249 H 0.84748 0.6073 0.68009 0.0
H250 H 0.7838 0.58082 0.54613 0.0
H251 H 0.7593 0.59501 0.61501 0.0
H252 H 0.80452 0.57838 0.80197 0.0
H253 H 0.82561 0.60541 0.85601 0.0
H254 H 0.84068 0.59896 0.79139 0.0
H255 H 0.8633 0.6515 0.7605 0.0
H256 H 0.84778 0.65789 0.82481 0.0
H257 H 0.84263 0.6666 0.74899 0.0
H258 H 0.73879 0.60603 0.70214 0.0
H259 H 0.72147 0.6067 0.8051 0.0
H260 H 0.79715 0.62406 0.88366 0.0
C261 C 0.82876 0.60526 0.66487 0.0
C262 C 0.81761 0.59326 0.60787 0.0
C263 C 0.79266 0.59004 0.58985 0.0
C264 C 0.77875 0.59834 0.62831 0.0
C265 C 0.78998 0.60973 0.68482 0.0
C266 C 0.81431 0.61294 0.70335 0.0
C267 C 0.81983 0.62144 0.76962 0.0
C268 C 0.8228 0.59975 0.80691 0.0
C269 C 0.84487 0.65113 0.77635 0.0
C270 C 0.79425 0.62111 0.78608 0.0
C271 C 0.77768 0.6153 0.73609 0.0
C272 C 0.75181 0.61125 0.74144 0.0
C273 C 0.74217 0.61187 0.79984 0.0
C274 C 0.75828 0.61595 0.85149 0.0
C275 C 0.78487 0.62165 0.84428 0.0
H276 H 0.23838 0.78859 0.83575 0.0
H277 H 0.18783 0.81819 0.7638 0.0
H278 H 0.14998 0.7839 0.82853 0.0
H279 H 0.18264 0.71273 0.85425 0.0
H280 H 0.19756 0.70956 0.92344 0.0
H281 H 0.21884 0.73282 0.86372 0.0
H282 H 0.24043 0.77435 0.94042 0.0
H283 H 0.21933 0.75128 4e-05 0.0
H284 H 0.21888 0.78273 0.98313 0.0
H285 H 0.12056 0.75229 0.91407 0.0
H286 H 0.10329 0.72717 0.01237 0.0
H287 H 0.1718 0.71601 0.0225 0.0
C288 C 0.21915 0.7874 0.8325 0.0
C289 C 0.21605 0.80606 0.79491 0.0
C290 C 0.19062 0.80398 0.79212 0.0
C291 C 0.16896 0.78449 0.82856 0.0
C292 C 0.17291 0.76684 0.86645 0.0
C293 C 0.19731 0.76789 0.8679 0.0
C294 C 0.19739 0.7487 0.91642 0.0
C295 C 0.19921 0.72451 0.88772 0.0
C296 C 0.22035 0.76527 0.96271 0.0
C297 C 0.1699 0.73805 0.94463 0.0
C298 C 0.15576 0.74823 0.91464 0.0
C299 C 0.13116 0.74363 0.937 0.0
C300 C 0.12141 0.72926 -0.00737 0.0
C301 C 0.13648 0.72007 0.02509 0.0
C302 C 0.16021 0.72333 -0.00085 0.0
H303 H 0.44586 0.19191 0.19936 0.0
H304 H 0.38801 0.19472 0.3207 0.0
H305 H 0.39296 0.23542 0.26361 0.0
H306 H 0.4896 0.26824 0.177 0.0
H307 H 0.49553 0.26425 0.09802 0.0
H308 H 0.48941 0.23723 0.15218 0.0
H309 H 0.44959 0.19996 0.08635 0.0
H310 H 0.45586 0.22675 0.03181 0.0
H311 H 0.42277 0.20578 0.0655 0.0
H312 H 0.40175 0.27363 0.18754 0.0
H313 H 0.41088 0.30293 0.09548 0.0
H314 H 0.46302 0.27456 0.02669 0.0
C315 C 0.43441 0.20121 0.21443 0.0
C316 C 0.41655 0.19013 0.26445 0.0
C317 C 0.40181 0.20284 0.28238 0.0
C318 C 0.40463 0.2261 0.25054 0.0
C319 C 0.42243 0.23649 0.20129 0.0
C320 C 0.43701 0.22436 0.18337 0.0
C321 C 0.45325 0.23797 0.1264 0.0
C322 C 0.48376 0.2528 0.1392 0.0
C323 C 0.44485 0.21633 0.07447 0.0
C324 C 0.44483 0.25902 0.11372 0.0
C325 C 0.42745 0.25831 0.15787 0.0
C326 C 0.41565 0.27464 0.15315 0.0
C327 C 0.42104 0.29132 0.10086 0.0
C328 C 0.43778 0.29117 0.0539 0.0
C329 C 0.45042 0.2755 0.06177 0.0
H330 H 0.20676 0.56017 0.07019 0.0
H331 H 0.12456 0.489 0.08605 0.0
H332 H 0.10943 0.52108 0.1198 0.0
H333 H 0.20486 0.6009 0.19924 0.0
H334 H 0.22493 0.63388 0.15981 0.0
H335 H 0.22945 0.60485 0.14334 0.0
H336 H 0.22052 0.60829 0.0289 0.0
H337 H 0.2158 0.63716 0.04504 0.0
H338 H 0.18963 0.60632 0.00657 0.0
H339 H 0.10312 0.56195 0.14688 0.0
H340 H 0.10614 0.6077 0.16145 0.0
H341 H 0.19225 0.65116 0.12348 0.0
C342 C 0.18566 0.55116 0.08194 0.0
C343 C 0.16691 0.52202 0.07597 0.0
C344 C 0.13935 0.51126 0.09056 0.0
C345 C 0.13056 0.52931 0.10986 0.0
C346 C 0.14956 0.55804 0.11412 0.0
C347 C 0.17654 0.56884 0.10053 0.0
C348 C 0.19266 0.60058 0.10452 0.0
C349 C 0.21424 0.61064 0.15473 0.0
C350 C 0.20539 0.61385 0.04257 0.0
C351 C 0.17052 0.60607 0.12162 0.0
C352 C 0.14583 0.58134 0.12775 0.0
C353 C 0.12239 0.58142 0.14243 0.0
C354 C 0.12429 0.60748 0.15063 0.0
C355 C 0.14938 0.63302 0.14328 0.0
C356 C 0.17271 0.63207 0.12905 0.0
H357 H 0.62835 0.14427 0.33963 0.0
H358 H 0.63047 0.16786 0.15099 0.0
H359 H 0.59607 0.18029 0.17266 0.0
H360 H 0.56147 0.10777 0.35104 0.0
H361 H 0.5585 0.11663 0.42853 0.0
H362 H 0.58879 0.11805 0.40418 0.0
H363 H 0.61758 0.17015 0.43822 0.0
H364 H 0.58727 0.16883 0.46351 0.0
H365 H 0.60958 0.19537 0.4099 0.0
H366 H 0.5556 0.1806 0.20849 0.0
H367 H 0.51165 0.16745 0.25431 0.0
H368 H 0.53413 0.14155 0.41914 0.0
C369 C 0.62257 0.15352 0.3039 0.0
C370 C 0.63237 0.15579 0.24408 0.0
C371 C 0.62344 0.1665 0.19736 0.0
C372 C 0.60398 0.17367 0.20934 0.0
C373 C 0.59356 0.16984 0.26821 0.0
C374 C 0.60268 0.16017 0.31495 0.0
C375 C 0.58495 0.15306 0.37097 0.0
C376 C 0.57271 0.12205 0.38969 0.0
C377 C 0.60079 0.17305 0.42377 0.0
C378 C 0.56354 0.15849 0.34714 0.0
C379 C 0.56932 0.169 0.2885 0.0
C380 C 0.55115 0.17299 0.2549 0.0
C381 C 0.52616 0.16536 0.2813 0.0
C382 C 0.51935 0.15341 0.34037 0.0
C383 C 0.53874 0.15084 0.37415 0.0
H384 H 0.36116 0.53404 0.40025 0.0
H385 H 0.38228 0.47115 0.43609 0.0
H386 H 0.43066 0.50875 0.4421 0.0
H387 H 0.41972 0.5815 0.31001 0.0
H388 H 0.42216 0.6125 0.34265 0.0
H389 H 0.38975 0.58037 0.33712 0.0
H390 H 0.38261 0.58222 0.45331 0.0
H391 H 0.41508 0.61423 0.45928 0.0
H392 H 0.40755 0.58428 0.50561 0.0
H393 H 0.47717 0.55406 0.44298 0.0
H394 H 0.51688 0.60284 0.4446 0.0
H395 H 0.46366 0.63496 0.41588 0.0
C396 C 0.37598 0.5281 0.40839 0.0
C397 C 0.36807 0.49969 0.41687 0.0
C398 C 0.388 0.49283 0.42908 0.0
C399 C 0.41548 0.51402 0.43251 0.0
C400 C 0.42256 0.54191 0.42453 0.0
C401 C 0.40329 0.54892 0.41316 0.0
C402 C 0.41576 0.58041 0.40957 0.0
C403 C 0.4116 0.5892 0.34606 0.0
C404 C 0.40459 0.59089 0.45995 0.0
C405 C 0.44509 0.59012 0.42056 0.0
C406 C 0.44879 0.5677 0.4284 0.0
C407 C 0.47446 0.57176 0.43736 0.0
C408 C 0.49686 0.59947 0.43822 0.0
C409 C 0.49328 0.62263 0.43126 0.0
C410 C 0.46701 0.61772 0.42252 0.0
H411 H 0.79747 0.45523 0.61583 0.0
H412 H 0.8816 0.5229 0.61325 0.0
H413 H 0.89519 0.48982 0.64825 0.0
H414 H 0.80156 0.4161 0.7478 0.0
H415 H 0.77877 0.38252 0.71302 0.0
H416 H 0.77552 0.41238 0.69681 0.0
H417 H 0.77947 0.4055 0.58125 0.0
H418 H 0.7829 0.3758 0.59706 0.0
H419 H 0.80846 0.40491 0.55314 0.0
H420 H 0.8998 0.44828 0.67497 0.0
H421 H 0.89509 0.40174 0.68725 0.0
H422 H 0.80804 0.36144 0.66817 0.0
C423 C 0.81869 0.46331 0.62434 0.0
C424 C 0.83844 0.49174 0.61255 0.0
C425 C 0.86609 0.50125 0.62242 0.0
C426 C 0.874 0.48262 0.64244 0.0
C427 C 0.85404 0.45455 0.65216 0.0
C428 C 0.82694 0.44495 0.64345 0.0
C429 C 0.80967 0.41336 0.65117 0.0
C430 C 0.79024 0.40564 0.70544 0.0
C431 C 0.79424 0.39907 0.59214 0.0
C432 C 0.83131 0.40657 0.66421 0.0
C433 C 0.85674 0.4306 0.6656 0.0
C434 C 0.87994 0.42935 0.67455 0.0
C435 C 0.87707 0.40281 0.68149 0.0
C436 C 0.85121 0.3779 0.67858 0.0
C437 C 0.82811 0.38003 0.67065 0.0
H438 H 0.39572 0.86388 0.68803 0.0
H439 H 0.34014 0.8322 0.84119 0.0
H440 H 0.36948 0.81837 0.89234 0.0
H441 H 0.41747 0.81071 0.6969 0.0
H442 H 0.45167 0.83695 0.67622 0.0
H443 H 0.42377 0.83915 0.6468 0.0
H444 H 0.44532 0.88974 0.68987 0.0
H445 H 0.47315 0.8877 0.71934 0.0
H446 H 0.45352 0.89583 0.76979 0.0
H447 H 0.40869 0.81678 0.93455 0.0
H448 H 0.45403 0.82671 0.96359 0.0
H449 H 0.48356 0.85769 0.78177 0.0
C450 C 0.38928 0.85334 0.73164 0.0
C451 C 0.36561 0.84916 0.76064 0.0
C452 C 0.35807 0.83548 0.81788 0.0
C453 C 0.37459 0.82748 0.8472 0.0
C454 C 0.39829 0.83283 0.81816 0.0
C455 C 0.40542 0.84512 0.76122 0.0
C456 C 0.43324 0.85142 0.74251 0.0
C457 C 0.43142 0.83348 0.68733 0.0
C458 C 0.45242 0.88303 0.72968 0.0
C459 C 0.44141 0.8423 0.79933 0.0
C460 C 0.42076 0.83118 0.84205 0.0
C461 C 0.42468 0.82463 0.90089 0.0
C462 C 0.45048 0.83037 0.91701 0.0
C463 C 0.47199 0.84238 0.87442 0.0
C464 C 0.46715 0.84753 0.81434 0.0
H465 H 0.55493 0.37652 0.87759 0.0
H466 H 0.50278 0.41002 0.9064 0.0
H467 H 0.54293 0.45836 0.90628 0.0
H468 H 0.60735 0.4226 0.97311 0.0
H469 H 0.63414 0.42587 0.92511 0.0
H470 H 0.6012 0.3944 0.92221 0.0
H471 H 0.59904 0.40091 0.80586 0.0
H472 H 0.63206 0.43247 0.8084 0.0
H473 H 0.60384 0.43356 0.7772 0.0
H474 H 0.5893 0.50238 0.91522 0.0
H475 H 0.63775 0.53862 0.927 0.0
H476 H 0.65901 0.47616 0.88654 0.0
C477 C 0.55188 0.39402 0.88321 0.0
C478 C 0.52574 0.38953 0.89232 0.0
C479 C 0.52261 0.413 0.89915 0.0
C480 C 0.54529 0.4405 0.89914 0.0
C481 C 0.57083 0.44412 0.89108 0.0
C482 C 0.57416 0.42149 0.88241 0.0
C483 C 0.60374 0.43082 0.87689 0.0
C484 C 0.61209 0.41764 0.92734 0.0
C485 C 0.61003 0.42404 0.81329 0.0
C486 C 0.61667 0.4622 0.88588 0.0
C487 C 0.59739 0.46951 0.89382 0.0
C488 C 0.60455 0.49698 0.90785 0.0
C489 C 0.63209 0.51739 0.9146 0.0
C490 C 0.65212 0.51026 0.90686 0.0
C491 C 0.64421 0.48239 0.89123 0.0
H492 H 0.22988 0.43402 0.59232 0.0
H493 H 0.29886 0.51774 0.56212 0.0
H494 H 0.28068 0.53697 0.63788 0.0
H495 H 0.18018 0.45628 0.61069 0.0
H496 H 0.16131 0.42987 0.66769 0.0
H497 H 0.17905 0.42329 0.60868 0.0
H498 H 0.20537 0.41303 0.68995 0.0
H499 H 0.18701 0.41861 0.74861 0.0
H500 H 0.22347 0.43862 0.74896 0.0
H501 H 0.25803 0.54517 0.72642 0.0
H502 H 0.23426 0.54126 0.82294 0.0
H503 H 0.17696 0.45333 0.78506 0.0
C504 C 0.24112 0.45637 0.60214 0.0
C505 C 0.26594 0.47448 0.57325 0.0
C506 C 0.27999 0.50367 0.58526 0.0
C507 C 0.26965 0.51472 0.62738 0.0
C508 C 0.24483 0.4963 0.65497 0.0
C509 C 0.2307 0.46776 0.64249 0.0
C510 C 0.20518 0.4522 0.68 0.0
C511 C 0.17994 0.43968 0.63932 0.0
C512 C 0.20529 0.42929 0.71922 0.0
C513 C 0.20787 0.47614 0.71831 0.0
C514 C 0.23069 0.50153 0.70269 0.0
C515 C 0.23965 0.52568 0.73789 0.0
C516 C 0.22594 0.52336 0.79237 0.0
C517 C 0.20345 0.49717 0.81045 0.0
C518 C 0.19338 0.47385 0.77099 0.0
H519 H 0.70255 0.16213 -0.00354 0.0
H520 H 0.75958 0.18744 0.14615 0.0
H521 H 0.79451 0.22601 0.08325 0.0
H522 H 0.74937 0.17506 0.87749 0.0
H523 H 0.73433 0.18793 0.82506 0.0
H524 H 0.71385 0.16288 0.88282 0.0
H525 H 0.6991 0.19697 0.9216 0.0
H526 H 0.71978 0.22226 0.86425 0.0
H527 H 0.72451 0.23231 0.94345 0.0
H528 H 0.82386 0.26085 0.00191 0.0
H529 H 0.84516 0.28812 0.90806 0.0
H530 H 0.76811 0.24045 0.81435 0.0
C531 C 0.72236 0.17572 0.01612 0.0
C532 C 0.72829 0.17166 0.0762 0.0
C533 C 0.7545 0.19008 0.10018 0.0
C534 C 0.77449 0.21213 0.0649 0.0
C535 C 0.76789 0.21562 0.00595 0.0
C536 C 0.74246 0.19792 0.98181 0.0
C537 C 0.74062 0.20577 0.91694 0.0
C538 C 0.73417 0.18147 0.873 0.0
C539 C 0.71977 0.21487 0.91126 0.0
C540 C 0.7691 0.2304 0.90802 0.0
C541 C 0.78456 0.23589 0.95982 0.0
C542 C 0.81188 0.2569 0.96119 0.0
C543 C 0.82381 0.27232 0.90772 0.0
C544 C 0.80834 0.26657 0.85382 0.0
C545 C 0.78053 0.24568 0.85481 0.0
H546 H 0.58034 0.74043 0.20179 0.0
H547 H 0.49636 0.69412 0.25775 0.0
H548 H 0.485 0.71618 0.1755 0.0
H549 H 0.58582 0.80117 0.1833 0.0
H550 H 0.60686 0.81364 0.11623 0.0
H551 H 0.60778 0.78819 0.16468 0.0
H552 H 0.59562 0.75385 0.07411 0.0
H553 H 0.59544 0.77956 0.02448 0.0
H554 H 0.56623 0.74444 0.02851 0.0
H555 H 0.48514 0.75244 0.11282 0.0
H556 H 0.49548 0.79579 0.0583 0.0
H557 H 0.57871 0.81814 0.03626 0.0
C558 C 0.55936 0.73366 0.19385 0.0
C559 C 0.53911 0.71537 0.23512 0.0
C560 C 0.512 0.70784 0.22578 0.0
C561 C 0.50538 0.72031 0.17927 0.0
C562 C 0.5261 0.74002 0.14212 0.0
C563 C 0.55246 0.74609 0.14741 0.0
C564 C 0.57143 0.77096 0.10758 0.0
C565 C 0.59429 0.79488 0.14524 0.0
C566 C 0.58285 0.76164 0.05557 0.0
C567 C 0.55203 0.77925 0.08346 0.0
C568 C 0.52592 0.76087 0.10338 0.0
C569 C 0.50523 0.76637 0.09482 0.0
C570 C 0.5113 0.79112 0.06464 0.0
C571 C 0.53772 0.80982 0.04297 0.0
C572 C 0.55822 0.80365 0.0515 0.0
H573 H 0.82449 0.52708 0.29927 0.0
H574 H 0.7504 0.4672 0.39239 0.0
H575 H 0.72499 0.45879 0.2975 0.0
H576 H 0.80259 0.56064 0.22799 0.0
H577 H 0.8192 0.56626 0.15532 0.0
H578 H 0.83357 0.56044 0.2217 0.0
H579 H 0.83271 0.51807 0.17058 0.0
H580 H 0.81913 0.52427 0.10256 0.0
H581 H 0.80169 0.49009 0.13813 0.0
H582 H 0.70631 0.47064 0.20982 0.0
H583 H 0.69703 0.49365 0.12462 0.0
H584 H 0.78249 0.54226 0.08243 0.0
C585 C 0.80325 0.51088 0.29871 0.0
C586 C 0.78938 0.49821 0.35336 0.0
C587 C 0.76144 0.47743 0.35115 0.0
C588 C 0.74677 0.47245 0.29729 0.0
C589 C 0.76049 0.48766 0.24559 0.0
C590 C 0.78835 0.50553 0.24492 0.0
C591 C 0.79767 0.52231 0.18631 0.0
C592 C 0.81419 0.55427 0.19866 0.0
C593 C 0.81375 0.51312 0.14706 0.0
C594 C 0.77063 0.51336 0.15757 0.0
C595 C 0.74938 0.49306 0.19196 0.0
C596 C 0.72265 0.48545 0.1807 0.0
C597 C 0.71755 0.49878 0.13293 0.0
C598 C 0.73906 0.51909 0.09691 0.0
C599 C 0.76573 0.52601 0.10853 0.0
H600 H 0.17516 0.74448 0.3812 0.0
H601 H 0.23131 0.72793 0.28646 0.0
H602 H 0.26526 0.75308 0.36636 0.0
H603 H 0.22037 0.81191 0.41862 0.0
H604 H 0.2078 0.81219 0.49366 0.0
H605 H 0.18534 0.7877 0.43738 0.0
H606 H 0.17287 0.74595 0.50976 0.0
H607 H 0.19495 0.77039 0.56698 0.0
H608 H 0.19934 0.7421 0.54228 0.0
H609 H 0.29585 0.78772 0.44117 0.0
H610 H 0.32015 0.82577 0.51635 0.0
H611 H 0.2447 0.81931 0.56757 0.0
C612 C 0.19416 0.7451 0.37898 0.0
C613 C 0.20065 0.73422 0.32797 0.0
C614 C 0.226 0.73614 0.3253 0.0
C615 C 0.24539 0.75033 0.37051 0.0
C616 C 0.23905 0.76225 0.41847 0.0
C617 C 0.2139 0.75934 0.42399 0.0
C618 C 0.21348 0.77674 0.47685 0.0
C619 C 0.20633 0.79841 0.4553 0.0
C620 C 0.19401 0.75765 0.52695 0.0
C621 C 0.24266 0.79095 0.49769 0.0
C622 C 0.25693 0.78207 0.46358 0.0
C623 C 0.2848 0.7943 0.46947 0.0
C624 C 0.29846 0.81607 0.51173 0.0
C625 C 0.28421 0.82521 0.54783 0.0
C626 C 0.25592 0.81226 0.54122 0.0
H627 H 0.48181 0.25798 0.76043 0.0
H628 H 0.43408 0.28945 0.68013 0.0
H629 H 0.42742 0.26081 0.58793 0.0
H630 H 0.51302 0.25206 0.61916 0.0
H631 H 0.51057 0.22003 0.64472 0.0
H632 H 0.5149 0.24629 0.69932 0.0
H633 H 0.47187 0.20871 0.75634 0.0
H634 H 0.46715 0.18247 0.70159 0.0
H635 H 0.44038 0.1893 0.71542 0.0
H636 H 0.42276 0.22524 0.50875 0.0
H637 H 0.42021 0.18606 0.45003 0.0
H638 H 0.46909 0.17681 0.58685 0.0
C639 C 0.47047 0.25952 0.72307 0.0
C640 C 0.45856 0.27613 0.72752 0.0
C641 C 0.44357 0.27706 0.67764 0.0
C642 C 0.43967 0.26085 0.62515 0.0
C643 C 0.45093 0.24394 0.62347 0.0
C644 C 0.46614 0.24334 0.67113 0.0
C645 C 0.4741 0.2217 0.66108 0.0
C646 C 0.50498 0.23587 0.65573 0.0
C647 C 0.46268 0.19923 0.7116 0.0
C648 C 0.46042 0.20959 0.60085 0.0
C649 C 0.44751 0.22295 0.5793 0.0
C650 C 0.43297 0.21482 0.52504 0.0
C651 C 0.43159 0.19248 0.4921 0.0
C652 C 0.44436 0.17826 0.51402 0.0
C653 C 0.45901 0.18712 0.56902 0.0
H654 H 0.07273 0.417 0.88454 0.0
H655 H 0.0538 0.39152 0.07383 0.0
H656 H 0.00513 0.36835 0.0508 0.0
H657 H 0.01753 0.43043 0.86028 0.0
H658 H 0.0115 0.41711 0.7834 0.0
H659 H 0.04497 0.43327 0.81544 0.0
H660 H 0.04628 0.3884 0.79116 0.0
H661 H 0.01286 0.37211 0.75912 0.0
H662 H 0.01975 0.35485 0.81964 0.0
H663 H 0.95878 0.34433 0.00582 0.0
H664 H 0.9176 0.32254 0.94236 0.0
H665 H 0.96623 0.36522 0.78306 0.0
C666 C 0.05836 0.4068 0.9213 0.0
C667 C 0.06709 0.40603 0.98101 0.0
C668 C 0.04763 0.39244 0.02777 0.0
C669 C 0.01992 0.37923 0.01517 0.0
C670 C 0.012 0.38009 0.95574 0.0
C671 C 0.03061 0.39373 0.90964 0.0
C672 C 0.01668 0.39078 0.8493 0.0
C673 C 0.02305 0.41962 0.82573 0.0
C674 C 0.02435 0.37563 0.80204 0.0
C675 C 0.98732 0.37273 0.86841 0.0
C676 C 0.98511 0.36688 0.93006 0.0
C677 C 0.96021 0.34911 0.95769 0.0
C678 C 0.93696 0.33677 0.92127 0.0
C679 C 0.93874 0.34243 0.85802 0.0
C680 C 0.96424 0.36098 0.83153 0.0
H681 H 0.58302 0.94422 0.0086 0.0
H682 H 0.649 0.92985 0.97854 0.0
H683 H 0.67858 0.97092 0.04415 0.0
H684 H 0.62185 0.01795 0.00143 0.0
H685 H 0.60279 0.02317 0.05941 0.0
H686 H 0.58671 0.99173 0.01372 0.0
H687 H 0.57268 0.96103 0.11131 0.0
H688 H 0.5885 0.9924 0.15739 0.0
H689 H 0.59815 0.96658 0.16613 0.0
H690 H 0.70117 0.01522 0.11167 0.0
H691 H 0.71429 0.05805 0.17284 0.0
H692 H 0.63283 0.04202 0.15471 0.0
C693 C 0.60354 0.9493 0.01646 0.0
C694 C 0.61363 0.93367 0.98892 0.0
C695 C 0.64081 0.94148 -0.00048 0.0
C696 C 0.65773 0.96475 0.03669 0.0
C697 C 0.64711 0.9799 0.06264 0.0
C698 C 0.62058 0.97235 0.0529 0.0
C699 C 0.61406 0.99241 0.08365 0.0
C700 C 0.60588 0.00718 0.03674 0.0
C701 C 0.59205 0.97719 0.13253 0.0
C702 C 0.64113 0.01269 0.11191 0.0
C703 C 0.66 0.00519 0.09985 0.0
C704 C 0.6865 0.02121 0.12139 0.0
C705 C 0.69378 0.04547 0.15601 0.0
C706 C 0.67464 0.05347 0.16809 0.0
C707 C 0.64804 0.03669 0.14579 0.0
H708 H 0.66928 0.61179 0.11571 0.0
H709 H 0.67933 0.56128 0.2515 0.0
H710 H 0.6528 0.57096 0.32491 0.0
H711 H 0.67753 0.66514 0.21644 0.0
H712 H 0.65283 0.67071 0.17996 0.0
H713 H 0.67054 0.65785 0.13632 0.0
H714 H 0.62485 0.61467 0.1024 0.0
H715 H 0.60696 0.62743 0.14592 0.0
H716 H 0.60055 0.59251 0.15925 0.0
H717 H 0.62711 0.58788 0.38507 0.0
H718 H 0.60526 0.61203 0.42882 0.0
H719 H 0.61273 0.65238 0.25461 0.0
C720 C 0.66558 0.60242 0.16059 0.0
C721 C 0.67628 0.58566 0.17777 0.0
C722 C 0.67132 0.57416 0.23727 0.0
C723 C 0.6562 0.57946 0.27925 0.0
C724 C 0.64621 0.59634 0.2611 0.0
C725 C 0.6507 0.60767 0.20323 0.0
C726 C 0.63901 0.62638 0.19637 0.0
C727 C 0.66131 0.65682 0.18141 0.0
C728 C 0.6165 0.61453 0.14812 0.0
C729 C 0.62766 0.62417 0.25974 0.0
C730 C 0.63176 0.60648 0.29614 0.0
C731 C 0.62364 0.60165 0.35691 0.0
C732 C 0.61125 0.61549 0.38135 0.0
C733 C 0.60726 0.63412 0.34522 0.0
C734 C 0.61538 0.63821 0.28341 0.0
H735 H 0.03861 0.64253 0.28081 0.0
H736 H 0.08668 0.65959 0.44463 0.0
H737 H 0.04492 0.63545 0.50611 0.0
H738 H 0.99076 0.65577 0.34442 0.0
H739 H 0.9622 0.62835 0.30339 0.0
H740 H 0.99561 0.64427 0.27123 0.0
H741 H 0.99026 0.59519 0.26153 0.0
H742 H 0.95675 0.57908 0.29354 0.0
H743 H 0.98155 0.57305 0.32788 0.0
H744 H 0.99849 0.61273 0.55066 0.0
H745 H 0.95047 0.59335 0.57565 0.0
H746 H 0.93225 0.59132 0.38322 0.0
C747 C 0.04036 0.64073 0.32947 0.0
C748 C 0.06596 0.65285 0.35785 0.0
C749 C 0.06733 0.65043 0.4218 0.0
C750 C 0.04371 0.63669 0.45713 0.0
C751 C 0.01885 0.62541 0.42788 0.0
C752 C 0.01697 0.62719 0.3655 0.0
C753 C 0.98782 0.61483 0.3459 0.0
C754 C 0.98388 0.63714 0.31439 0.0
C755 C 0.97855 0.589 0.30478 0.0
C756 C 0.97369 0.60645 0.40718 0.0
C757 C 0.99196 0.61247 0.45374 0.0
C758 C 0.98396 0.60768 0.51456 0.0
C759 C 0.95661 0.59672 0.52828 0.0
C760 C 0.93754 0.59077 0.48143 0.0
C761 C 0.94625 0.59542 0.42004 0.0
H762 H 0.40825 0.04956 0.47543 0.0
H763 H 0.33999 0.05787 0.42792 0.0
H764 H 0.31025 0.01669 0.49291 0.0
H765 H 0.37355 0.97549 0.47404 0.0
H766 H 0.39188 0.97309 0.53767 0.0
H767 H 0.40764 0.0037 0.48945 0.0
H768 H 0.41698 0.03584 0.58336 0.0
H769 H 0.40145 0.00533 0.632 0.0
H770 H 0.38935 0.02935 0.63259 0.0
H771 H 0.28789 0.97312 0.56167 0.0
H772 H 0.27539 0.93212 0.62819 0.0
H773 H 0.35921 0.95438 0.62982 0.0
C774 C 0.38715 0.0431 0.47918 0.0
C775 C 0.37649 0.05709 0.44695 0.0
C776 C 0.34862 0.04752 0.45246 0.0
C777 C 0.33159 0.02416 0.48922 0.0
C778 C 0.34282 0.01076 0.52012 0.0
C779 C 0.37002 0.02004 0.51555 0.0
C780 C 0.37726 0.00194 0.55219 0.0
C781 C 0.38822 0.98771 0.51085 0.0
C782 C 0.39745 0.01914 0.60306 0.0
C783 C 0.34985 0.98076 0.57783 0.0
C784 C 0.33016 0.98608 0.55908 0.0
C785 C 0.30319 0.96886 0.57672 0.0
C786 C 0.29628 0.94563 0.61443 0.0
C787 C 0.31628 0.93991 0.6338 0.0
C788 C 0.34335 0.9579 0.61532 0.0
H789 H 0.34624 0.39631 0.59614 0.0
H790 H 0.28613 0.38997 0.72459 0.0
H791 H 0.3062 0.37565 0.805 0.0
H792 H 0.34666 0.33631 0.64759 0.0
H793 H 0.38251 0.35135 0.63729 0.0
H794 H 0.36469 0.36303 0.59059 0.0
H795 H 0.39775 0.41451 0.62439 0.0
H796 H 0.41571 0.40298 0.67121 0.0
H797 H 0.40241 0.42299 0.70444 0.0
H798 H 0.3309 0.35968 0.8698 0.0
H799 H 0.35859 0.34265 0.91537 0.0
H800 H 0.40304 0.35921 0.74559 0.0
C801 C 0.33748 0.39222 0.64135 0.0
C802 C 0.31461 0.39432 0.65406 0.0
C803 C 0.30363 0.38853 0.7137 0.0
C804 C 0.31493 0.38044 0.75976 0.0
C805 C 0.33725 0.37831 0.74557 0.0
C806 C 0.34848 0.38406 0.68793 0.0
C807 C 0.37181 0.37902 0.68427 0.0
C808 C 0.36606 0.35606 0.63715 0.0
C809 C 0.3985 0.40652 0.67026 0.0
C810 C 0.3716 0.36906 0.74862 0.0
C811 C 0.3516 0.36902 0.78322 0.0
C812 C 0.34676 0.3598 0.84335 0.0
C813 C 0.36259 0.35011 0.86877 0.0
C814 C 0.38304 0.34964 0.83413 0.0
C815 C 0.38774 0.35955 0.77341 0.0
loop_
_geom_bond_atom_site_label_1
_geom_bond_atom_site_label_2
_geom_bond_distance
_geom_bond_site_symmetry_2
_ccdc_geom_bond_type
Mg0 O1 2.028 . S
Mg0 O7 1.986 1_554 S
Mg0 O9 2.114 . S
Mg0 O10 2.251 . S
Mg0 O13 2.010 . S
O1 Mg0 2.028 . S
O1 C4 1.250 . S
O2 Mg3 2.028 . S
O2 C4 1.248 . S
Mg3 O2 2.028 . S
Mg3 O8 2.032 1_554 S
Mg3 O10 2.079 . S
C4 O1 1.250 . S
C4 O2 1.248 . S
C5 O6 1.264 1_554 S
C5 O13 1.249 . S
O6 C5 1.264 1_556 S
O7 Mg0 1.986 1_556 S
O7 C11 1.246 . S
O8 Mg3 2.032 1_556 S
O8 C11 1.259 . S
O9 Mg0 2.114 . S
O9 C12 1.252 . S
O10 Mg0 2.251 . S
O10 Mg3 2.079 . S
O10 C12 1.273 . S
C11 O7 1.246 . S
C11 O8 1.259 . S
C12 O9 1.252 . S
C12 O10 1.273 . S
O13 Mg0 2.010 . S
O13 C5 1.249 . S
Mg14 O15 2.028 . S
Mg14 O21 1.986 . S
Mg14 O23 2.114 . S
Mg14 O24 2.251 . S
Mg14 O27 2.010 . S
O15 Mg14 2.028 . S
O15 C18 1.250 . S
O16 Mg17 2.028 . S
O16 C18 1.248 . S
Mg17 O16 2.028 . S
Mg17 O22 2.032 . S
Mg17 O24 2.079 . S
C18 O15 1.250 . S
C18 O16 1.248 . S
C19 O20 1.264 . S
C19 O27 1.249 . S
O20 C19 1.264 . S
O21 Mg14 1.986 . S
O21 C25 1.246 . S
O22 Mg17 2.032 . S
O22 C25 1.259 . S
O23 Mg14 2.114 . S
O23 C26 1.252 . S
O24 Mg14 2.251 . S
O24 Mg17 2.079 . S
O24 C26 1.273 . S
C25 O21 1.246 . S
C25 O22 1.259 . S
C26 O23 1.252 . S
C26 O24 1.273 . S
O27 Mg14 2.010 . S
O27 C19 1.249 . S
Mg28 O29 2.028 . S
Mg28 O35 1.986 . S
Mg28 O37 2.114 . S
Mg28 O38 2.251 . S
Mg28 O41 2.010 . S
O29 Mg28 2.028 . S
O29 C32 1.250 . S
O30 Mg31 2.028 . S
O30 C32 1.248 . S
Mg31 O30 2.028 . S
Mg31 O36 2.032 . S
Mg31 O38 2.079 . S
C32 O29 1.250 . S
C32 O30 1.248 . S
C33 O34 1.264 . S
C33 O41 1.249 . S
O34 C33 1.264 . S
O35 Mg28 1.986 . S
O35 C39 1.246 . S
O36 Mg31 2.032 . S
O36 C39 1.259 . S
O37 Mg28 2.114 . S
O37 C40 1.252 . S
O38 Mg28 2.251 . S
O38 Mg31 2.079 . S
O38 C40 1.273 . S
C39 O35 1.246 . S
C39 O36 1.259 . S
C40 O37 1.252 . S
C40 O38 1.273 . S
O41 Mg28 2.010 . S
O41 C33 1.249 . S
Mg42 O43 2.028 . S
Mg42 O49 1.986 . S
Mg42 O51 2.114 . S
Mg42 O52 2.251 . S
Mg42 O55 2.010 . S
O43 Mg42 2.028 . S
O43 C46 1.250 . S
O44 Mg45 2.028 . S
O44 C46 1.248 . S
Mg45 O44 2.028 . S
Mg45 O50 2.032 . S
Mg45 O52 2.079 . S
C46 O43 1.250 . S
C46 O44 1.248 . S
C47 O48 1.264 . S
C47 O55 1.249 . S
O48 C47 1.264 . S
O49 Mg42 1.986 . S
O49 C53 1.246 . S
O50 Mg45 2.032 . S
O50 C53 1.259 . S
O51 Mg42 2.114 . S
O51 C54 1.252 . S
O52 Mg42 2.251 . S
O52 Mg45 2.079 . S
O52 C54 1.273 . S
C53 O49 1.246 . S
C53 O50 1.259 . S
C54 O51 1.252 . S
C54 O52 1.273 . S
O55 Mg42 2.010 . S
O55 C47 1.249 . S
Mg56 O57 2.028 . S
Mg56 O63 1.986 . S
Mg56 O65 2.114 . S
Mg56 O66 2.251 . S
Mg56 O69 2.010 . S
O57 Mg56 2.028 . S
O57 C60 1.250 . S
O58 Mg59 2.028 . S
O58 C60 1.248 . S
Mg59 O58 2.028 . S
Mg59 O64 2.032 . S
Mg59 O66 2.079 . S
C60 O57 1.250 . S
C60 O58 1.248 . S
C61 O62 1.264 . S
C61 O69 1.249 . S
O62 C61 1.264 . S
O63 Mg56 1.986 . S
O63 C67 1.246 . S
O64 Mg59 2.032 . S
O64 C67 1.259 . S
O65 Mg56 2.114 . S
O65 C68 1.252 . S
O66 Mg56 2.251 . S
O66 Mg59 2.079 . S
O66 C68 1.273 . S
C67 O63 1.246 . S
C67 O64 1.259 . S
C68 O65 1.252 . S
C68 O66 1.273 . S
O69 Mg56 2.010 . S
O69 C61 1.249 . S
Mg70 O71 2.028 . S
Mg70 O77 1.986 . S
Mg70 O79 2.114 . S
Mg70 O80 2.251 . S
Mg70 O83 2.010 . S
O71 Mg70 2.028 . S
O71 C74 1.250 . S
O72 Mg73 2.028 . S
O72 C74 1.248 . S
Mg73 O72 2.028 . S
Mg73 O78 2.032 . S
Mg73 O80 2.079 . S
C74 O71 1.250 . S
C74 O72 1.248 . S
C75 O76 1.264 . S
C75 O83 1.249 . S
O76 C75 1.264 . S
O77 Mg70 1.986 . S
O77 C81 1.246 . S
O78 Mg73 2.032 . S
O78 C81 1.259 . S
O79 Mg70 2.114 . S
O79 C82 1.252 . S
O80 Mg70 2.251 . S
O80 Mg73 2.079 . S
O80 C82 1.273 . S
C81 O77 1.246 . S
C81 O78 1.259 . S
C82 O79 1.252 . S
C82 O80 1.273 . S
O83 Mg70 2.010 . S
O83 C75 1.249 . S
Mg84 O85 2.028 . S
Mg84 O91 1.986 . S
Mg84 O93 2.114 . S
Mg84 O94 2.251 . S
Mg84 O97 2.010 . S
O85 Mg84 2.028 . S
O85 C88 1.250 . S
O86 Mg87 2.028 . S
O86 C88 1.248 . S
Mg87 O86 2.028 . S
Mg87 O92 2.032 . S
Mg87 O94 2.079 . S
C88 O85 1.250 . S
C88 O86 1.248 . S
C89 O90 1.264 . S
C89 O97 1.249 . S
O90 C89 1.264 . S
O91 Mg84 1.986 . S
O91 C95 1.246 . S
O92 Mg87 2.032 . S
O92 C95 1.259 . S
O93 Mg84 2.114 . S
O93 C96 1.252 . S
O94 Mg84 2.251 . S
O94 Mg87 2.079 . S
O94 C96 1.273 . S
C95 O91 1.246 . S
C95 O92 1.259 . S
C96 O93 1.252 . S
C96 O94 1.273 . S
O97 Mg84 2.010 . S
O97 C89 1.249 . S
Mg98 O99 2.028 . S
Mg98 O105 1.986 . S
Mg98 O107 2.114 1_554 S
Mg98 O108 2.251 1_554 S
Mg98 O111 2.010 . S
O99 Mg98 2.028 . S
O99 C102 1.250 . S
O100 Mg101 2.028 . S
O100 C102 1.248 . S
Mg101 O100 2.028 . S
Mg101 O106 2.032 . S
Mg101 O108 2.079 1_554 S
C102 O99 1.250 . S
C102 O100 1.248 . S
C103 O104 1.264 . S
C103 O111 1.249 . S
O104 C103 1.264 . S
O105 Mg98 1.986 . S
O105 C109 1.246 . S
O106 Mg101 2.032 . S
O106 C109 1.259 . S
O107 Mg98 2.114 1_556 S
O107 C110 1.252 . S
O108 Mg98 2.251 1_556 S
O108 Mg101 2.079 1_556 S
O108 C110 1.273 . S
C109 O105 1.246 . S
C109 O106 1.259 . S
C110 O107 1.252 . S
C110 O108 1.273 . S
O111 Mg98 2.010 . S
O111 C103 1.249 . S
Mg112 O113 2.028 . S
Mg112 O119 1.986 . S
Mg112 O121 2.114 . S
Mg112 O122 2.251 . S
Mg112 O125 2.010 . S
O113 Mg112 2.028 . S
O113 C116 1.250 . S
O114 Mg115 2.028 . S
O114 C116 1.248 . S
Mg115 O114 2.028 . S
Mg115 O120 2.032 . S
Mg115 O122 2.079 . S
C116 O113 1.250 . S
C116 O114 1.248 . S
C117 O118 1.264 . S
C117 O125 1.249 . S
O118 C117 1.264 . S
O119 Mg112 1.986 . S
O119 C123 1.246 . S
O120 Mg115 2.032 . S
O120 C123 1.259 . S
O121 Mg112 2.114 . S
O121 C124 1.252 . S
O122 Mg112 2.251 . S
O122 Mg115 2.079 . S
O122 C124 1.273 . S
C123 O119 1.246 . S
C123 O120 1.259 . S
C124 O121 1.252 . S
C124 O122 1.273 . S
O125 Mg112 2.010 . S
O125 C117 1.249 . S
Mg126 O127 2.028 . S
Mg126 O133 1.986 . S
Mg126 O135 2.114 . S
Mg126 O136 2.251 . S
Mg126 O139 2.010 . S
O127 Mg126 2.028 . S
O127 C130 1.250 . S
O128 Mg129 2.028 . S
O128 C130 1.248 . S
Mg129 O128 2.028 . S
Mg129 O134 2.032 . S
Mg129 O136 2.079 . S
C130 O127 1.250 . S
C130 O128 1.248 . S
C131 O132 1.264 . S
C131 O139 1.249 . S
O132 C131 1.264 . S
O133 Mg126 1.986 . S
O133 C137 1.246 . S
O134 Mg129 2.032 . S
O134 C137 1.259 . S
O135 Mg126 2.114 . S
O135 C138 1.252 . S
O136 Mg126 2.251 . S
O136 Mg129 2.079 . S
O136 C138 1.273 . S
C137 O133 1.246 . S
C137 O134 1.259 . S
C138 O135 1.252 . S
C138 O136 1.273 . S
O139 Mg126 2.010 . S
O139 C131 1.249 . S
Mg140 O141 2.028 . S
Mg140 O147 1.986 . S
Mg140 O149 2.114 . S
Mg140 O150 2.251 . S
Mg140 O153 2.010 . S
O141 Mg140 2.028 . S
O141 C144 1.250 . S
O142 Mg143 2.028 . S
O142 C144 1.248 . S
Mg143 O142 2.028 . S
Mg143 O148 2.032 . S
Mg143 O150 2.079 . S
C144 O141 1.250 . S
C144 O142 1.248 . S
C145 O146 1.264 . S
C145 O153 1.249 . S
O146 C145 1.264 . S
O147 Mg140 1.986 . S
O147 C151 1.246 . S
O148 Mg143 2.032 . S
O148 C151 1.259 . S
O149 Mg140 2.114 . S
O149 C152 1.252 . S
O150 Mg140 2.251 . S
O150 Mg143 2.079 . S
O150 C152 1.273 . S
C151 O147 1.246 . S
C151 O148 1.259 . S
C152 O149 1.252 . S
C152 O150 1.273 . S
O153 Mg140 2.010 . S
O153 C145 1.249 . S
Mg154 O155 2.028 . S
Mg154 O161 1.986 . S
Mg154 O163 2.114 . S
Mg154 O164 2.251 . S
Mg154 O167 2.010 . S
O155 Mg154 2.028 . S
O155 C158 1.250 . S
O156 Mg157 2.028 . S
O156 C158 1.248 . S
Mg157 O156 2.028 . S
Mg157 O162 2.032 . S
Mg157 O164 2.079 . S
C158 O155 1.250 . S
C158 O156 1.248 . S
C159 O160 1.264 . S
C159 O167 1.249 . S
O160 C159 1.264 . S
O161 Mg154 1.986 . S
O161 C165 1.246 . S
O162 Mg157 2.032 . S
O162 C165 1.259 . S
O163 Mg154 2.114 . S
O163 C166 1.252 . S
O164 Mg154 2.251 . S
O164 Mg157 2.079 . S
O164 C166 1.273 . S
C165 O161 1.246 . S
C165 O162 1.259 . S
C166 O163 1.252 . S
C166 O164 1.273 . S
O167 Mg154 2.010 . S
O167 C159 1.249 . S
H168 C180 0.930 . S
H169 C182 0.930 . S
H170 C183 0.930 . S
H171 C187 0.959 . S
H172 C187 0.959 . S
H173 C187 0.961 . S
H174 C188 0.960 . S
H175 C188 0.961 . S
H176 C188 0.959 . S
H177 C191 0.929 . S
H178 C192 0.931 . S
H179 C194 0.930 . S
C180 H168 0.930 . S
C180 C181 1.399 . S
C180 C185 1.399 . S
C181 C180 1.399 . S
C181 C182 1.376 . S
C182 H169 0.930 . S
C182 C181 1.376 . S
C182 C183 1.388 . S
C183 H170 0.930 . S
C183 C182 1.388 . S
C183 C184 1.390 . S
C184 C183 1.390 . S
C184 C185 1.394 . S
C184 C190 1.465 . S
C185 C180 1.399 . S
C185 C184 1.394 . S
C185 C186 1.516 . S
C186 C185 1.516 . S
C186 C187 1.502 . S
C186 C188 1.561 . S
C186 C189 1.526 . S
C187 H171 0.959 . S
C187 H172 0.959 . S
C187 H173 0.961 . S
C187 C186 1.502 . S
C188 H174 0.960 . S
C188 H175 0.961 . S
C188 H176 0.959 . S
C188 C186 1.561 . S
C189 C186 1.526 . S
C189 C190 1.396 . S
C189 C194 1.390 . S
C190 C184 1.465 . S
C190 C189 1.396 . S
C190 C191 1.399 . S
C191 H177 0.929 . S
C191 C190 1.399 . S
C191 C192 1.385 . S
C192 H178 0.931 . S
C192 C191 1.385 . S
C192 C193 1.389 . S
C193 C192 1.389 . S
C193 C194 1.387 . S
C194 H179 0.930 . S
C194 C189 1.390 . S
C194 C193 1.387 . S
H195 C207 0.930 . S
H196 C209 0.930 . S
H197 C210 0.930 . S
H198 C214 0.959 . S
H199 C214 0.959 . S
H200 C214 0.961 . S
H201 C215 0.960 . S
H202 C215 0.961 . S
H203 C215 0.959 . S
H204 C218 0.929 . S
H205 C219 0.931 . S
H206 C221 0.930 . S
C207 H195 0.930 . S
C207 C208 1.399 . S
C207 C212 1.399 . S
C208 C207 1.399 . S
C208 C209 1.376 . S
C209 H196 0.930 . S
C209 C208 1.376 . S
C209 C210 1.388 . S
C210 H197 0.930 . S
C210 C209 1.388 . S
C210 C211 1.390 . S
C211 C210 1.390 . S
C211 C212 1.394 . S
C211 C217 1.465 . S
C212 C207 1.399 . S
C212 C211 1.394 . S
C212 C213 1.516 . S
C213 C212 1.516 . S
C213 C214 1.502 . S
C213 C215 1.561 . S
C213 C216 1.526 . S
C214 H198 0.959 . S
C214 H199 0.959 . S
C214 H200 0.961 . S
C214 C213 1.502 . S
C215 H201 0.960 . S
C215 H202 0.961 . S
C215 H203 0.959 . S
C215 C213 1.561 . S
C216 C213 1.526 . S
C216 C217 1.396 . S
C216 C221 1.390 . S
C217 C211 1.465 . S
C217 C216 1.396 . S
C217 C218 1.399 . S
C218 H204 0.929 . S
C218 C217 1.399 . S
C218 C219 1.385 . S
C219 H205 0.931 . S
C219 C218 1.385 . S
C219 C220 1.389 . S
C220 C219 1.389 . S
C220 C221 1.387 . S
C221 H206 0.930 . S
C221 C216 1.390 . S
C221 C220 1.387 . S
H222 C234 0.930 . S
H223 C236 0.930 . S
H224 C237 0.930 . S
H225 C241 0.959 . S
H226 C241 0.959 . S
H227 C241 0.961 . S
H228 C242 0.960 . S
H229 C242 0.961 . S
H230 C242 0.959 . S
H231 C245 0.929 . S
H232 C246 0.931 . S
H233 C248 0.930 . S
C234 H222 0.930 . S
C234 C235 1.399 . S
C234 C239 1.399 . S
C235 C234 1.399 . S
C235 C236 1.376 . S
C236 H223 0.930 . S
C236 C235 1.376 . S
C236 C237 1.388 . S
C237 H224 0.930 . S
C237 C236 1.388 . S
C237 C238 1.390 . S
C238 C237 1.390 . S
C238 C239 1.394 . S
C238 C244 1.465 . S
C239 C234 1.399 . S
C239 C238 1.394 . S
C239 C240 1.516 . S
C240 C239 1.516 . S
C240 C241 1.502 . S
C240 C242 1.561 . S
C240 C243 1.526 . S
C241 H225 0.959 . S
C241 H226 0.959 . S
C241 H227 0.961 . S
C241 C240 1.502 . S
C242 H228 0.960 . S
C242 H229 0.961 . S
C242 H230 0.959 . S
C242 C240 1.561 . S
C243 C240 1.526 . S
C243 C244 1.396 . S
C243 C248 1.390 . S
C244 C238 1.465 . S
C244 C243 1.396 . S
C244 C245 1.399 . S
C245 H231 0.929 . S
C245 C244 1.399 . S
C245 C246 1.385 . S
C246 H232 0.931 . S
C246 C245 1.385 . S
C246 C247 1.389 . S
C247 C246 1.389 . S
C247 C248 1.387 . S
C248 H233 0.930 . S
C248 C243 1.390 . S
C248 C247 1.387 . S
H249 C261 0.930 . S
H250 C263 0.930 . S
H251 C264 0.930 . S
H252 C268 0.959 . S
H253 C268 0.959 . S
H254 C268 0.961 . S
H255 C269 0.960 . S
H256 C269 0.961 . S
H257 C269 0.959 . S
H258 C272 0.929 . S
H259 C273 0.931 . S
H260 C275 0.930 . S
C261 H249 0.930 . S
C261 C262 1.399 . S
C261 C266 1.399 . S
C262 C261 1.399 . S
C262 C263 1.376 . S
C263 H250 0.930 . S
C263 C262 1.376 . S
C263 C264 1.388 . S
C264 H251 0.930 . S
C264 C263 1.388 . S
C264 C265 1.390 . S
C265 C264 1.390 . S
C265 C266 1.394 . S
C265 C271 1.465 . S
C266 C261 1.399 . S
C266 C265 1.394 . S
C266 C267 1.516 . S
C267 C266 1.516 . S
C267 C268 1.502 . S
C267 C269 1.561 . S
C267 C270 1.526 . S
C268 H252 0.959 . S
C268 H253 0.959 . S
C268 H254 0.961 . S
C268 C267 1.502 . S
C269 H255 0.960 . S
C269 H256 0.961 . S
C269 H257 0.959 . S
C269 C267 1.561 . S
C270 C267 1.526 . S
C270 C271 1.396 . S
C270 C275 1.390 . S
C271 C265 1.465 . S
C271 C270 1.396 . S
C271 C272 1.399 . S
C272 H258 0.929 . S
C272 C271 1.399 . S
C272 C273 1.385 . S
C273 H259 0.931 . S
C273 C272 1.385 . S
C273 C274 1.389 . S
C274 C273 1.389 . S
C274 C275 1.387 . S
C275 H260 0.930 . S
C275 C270 1.390 . S
C275 C274 1.387 . S
H276 C288 0.930 . S
H277 C290 0.930 . S
H278 C291 0.930 . S
H279 C295 0.959 . S
H280 C295 0.959 . S
H281 C295 0.961 . S
H282 C296 0.960 1_556 S
H283 C296 0.961 . S
H284 C296 0.959 . S
H285 C299 0.929 . S
H286 C300 0.931 . S
H287 C302 0.930 . S
C288 H276 0.930 . S
C288 C289 1.399 . S
C288 C293 1.399 . S
C289 C288 1.399 . S
C289 C290 1.376 . S
C290 H277 0.930 . S
C290 C289 1.376 . S
C290 C291 1.388 . S
C291 H278 0.930 . S
C291 C290 1.388 . S
C291 C292 1.390 . S
C292 C291 1.390 . S
C292 C293 1.394 . S
C292 C298 1.465 1_556 S
C293 C288 1.399 . S
C293 C292 1.394 . S
C293 C294 1.516 . S
C294 C293 1.516 . S
C294 C295 1.502 . S
C294 C296 1.561 1_556 S
C294 C297 1.526 1_556 S
C295 H279 0.959 . S
C295 H280 0.959 . S
C295 H281 0.961 . S
C295 C294 1.502 . S
C296 H282 0.960 1_554 S
C296 H283 0.961 . S
C296 H284 0.959 . S
C296 C294 1.561 1_554 S
C297 C294 1.526 1_554 S
C297 C298 1.396 . S
C297 C302 1.390 . S
C298 C292 1.465 1_554 S
C298 C297 1.396 . S
C298 C299 1.399 . S
C299 H285 0.929 . S
C299 C298 1.399 . S
C299 C300 1.385 . S
C300 H286 0.931 . S
C300 C299 1.385 . S
C300 C301 1.389 . S
C301 C300 1.389 . S
C301 C302 1.387 . S
C302 H287 0.930 . S
C302 C297 1.390 . S
C302 C301 1.387 . S
H303 C315 0.930 . S
H304 C317 0.930 . S
H305 C318 0.930 . S
H306 C322 0.959 1_556 S
H307 C322 0.959 1_556 S
H308 C322 0.961 . S
H309 C323 0.960 . S
H310 C323 0.961 . S
H311 C323 0.959 . S
H312 C326 0.929 . S
H313 C327 0.931 . S
H314 C329 0.930 . S
C315 H303 0.930 . S
C315 C316 1.399 . S
C315 C320 1.399 . S
C316 C315 1.399 . S
C316 C317 1.376 . S
C317 H304 0.930 . S
C317 C316 1.376 . S
C317 C318 1.388 . S
C318 H305 0.930 . S
C318 C317 1.388 . S
C318 C319 1.390 . S
C319 C318 1.390 . S
C319 C320 1.394 . S
C319 C325 1.465 . S
C320 C315 1.399 . S
C320 C319 1.394 . S
C320 C321 1.516 . S
C321 C320 1.516 . S
C321 C322 1.502 . S
C321 C323 1.561 . S
C321 C324 1.526 . S
C322 H306 0.959 1_554 S
C322 H307 0.959 1_554 S
C322 H308 0.961 . S
C322 C321 1.502 . S
C323 H309 0.960 . S
C323 H310 0.961 . S
C323 H311 0.959 . S
C323 C321 1.561 . S
C324 C321 1.526 . S
C324 C325 1.396 . S
C324 C329 1.390 1_554 S
C325 C319 1.465 . S
C325 C324 1.396 . S
C325 C326 1.399 . S
C326 H312 0.929 . S
C326 C325 1.399 . S
C326 C327 1.385 . S
C327 H313 0.931 . S
C327 C326 1.385 . S
C327 C328 1.389 1_554 S
C328 C327 1.389 1_556 S
C328 C329 1.387 . S
C329 H314 0.930 . S
C329 C324 1.390 1_556 S
C329 C328 1.387 . S
H330 C342 0.930 . S
H331 C344 0.930 . S
H332 C345 0.930 . S
H333 C349 0.959 . S
H334 C349 0.959 . S
H335 C349 0.961 . S
H336 C350 0.960 . S
H337 C350 0.961 . S
H338 C350 0.959 . S
H339 C353 0.929 . S
H340 C354 0.931 . S
H341 C356 0.930 . S
C342 H330 0.930 . S
C342 C343 1.399 . S
C342 C347 1.399 . S
C343 C342 1.399 . S
C343 C344 1.376 . S
C344 H331 0.930 . S
C344 C343 1.376 . S
C344 C345 1.388 . S
C345 H332 0.930 . S
C345 C344 1.388 . S
C345 C346 1.390 . S
C346 C345 1.390 . S
C346 C347 1.394 . S
C346 C352 1.465 . S
C347 C342 1.399 . S
C347 C346 1.394 . S
C347 C348 1.516 . S
C348 C347 1.516 . S
C348 C349 1.502 . S
C348 C350 1.561 . S
C348 C351 1.526 . S
C349 H333 0.959 . S
C349 H334 0.959 . S
C349 H335 0.961 . S
C349 C348 1.502 . S
C350 H336 0.960 . S
C350 H337 0.961 . S
C350 H338 0.959 . S
C350 C348 1.561 . S
C351 C348 1.526 . S
C351 C352 1.396 . S
C351 C356 1.390 . S
C352 C346 1.465 . S
C352 C351 1.396 . S
C352 C353 1.399 . S
C353 H339 0.929 . S
C353 C352 1.399 . S
C353 C354 1.385 . S
C354 H340 0.931 . S
C354 C353 1.385 . S
C354 C355 1.389 . S
C355 C354 1.389 . S
C355 C356 1.387 . S
C356 H341 0.930 . S
C356 C351 1.390 . S
C356 C355 1.387 . S
H357 C369 0.930 . S
H358 C371 0.930 . S
H359 C372 0.930 . S
H360 C376 0.959 . S
H361 C376 0.959 . S
H362 C376 0.961 . S
H363 C377 0.960 . S
H364 C377 0.961 . S
H365 C377 0.959 . S
H366 C380 0.929 . S
H367 C381 0.931 . S
H368 C383 0.930 . S
C369 H357 0.930 . S
C369 C370 1.399 . S
C369 C374 1.399 . S
C370 C369 1.399 . S
C370 C371 1.376 . S
C371 H358 0.930 . S
C371 C370 1.376 . S
C371 C372 1.388 . S
C372 H359 0.930 . S
C372 C371 1.388 . S
C372 C373 1.390 . S
C373 C372 1.390 . S
C373 C374 1.394 . S
C373 C379 1.465 . S
C374 C369 1.399 . S
C374 C373 1.394 . S
C374 C375 1.516 . S
C375 C374 1.516 . S
C375 C376 1.502 . S
C375 C377 1.561 . S
C375 C378 1.526 . S
C376 H360 0.959 . S
C376 H361 0.959 . S
C376 H362 0.961 . S
C376 C375 1.502 . S
C377 H363 0.960 . S
C377 H364 0.961 . S
C377 H365 0.959 . S
C377 C375 1.561 . S
C378 C375 1.526 . S
C378 C379 1.396 . S
C378 C383 1.390 . S
C379 C373 1.465 . S
C379 C378 1.396 . S
C379 C380 1.399 . S
C380 H366 0.929 . S
C380 C379 1.399 . S
C380 C381 1.385 . S
C381 H367 0.931 . S
C381 C380 1.385 . S
C381 C382 1.389 . S
C382 C381 1.389 . S
C382 C383 1.387 . S
C383 H368 0.930 . S
C383 C378 1.390 . S
C383 C382 1.387 . S
H384 C396 0.930 . S
H385 C398 0.930 . S
H386 C399 0.930 . S
H387 C403 0.959 . S
H388 C403 0.959 . S
H389 C403 0.961 . S
H390 C404 0.960 . S
H391 C404 0.961 . S
H392 C404 0.959 . S
H393 C407 0.929 . S
H394 C408 0.931 . S
H395 C410 0.930 . S
C396 H384 0.930 . S
C396 C397 1.399 . S
C396 C401 1.399 . S
C397 C396 1.399 . S
C397 C398 1.376 . S
C398 H385 0.930 . S
C398 C397 1.376 . S
C398 C399 1.388 . S
C399 H386 0.930 . S
C399 C398 1.388 . S
C399 C400 1.390 . S
C400 C399 1.390 . S
C400 C401 1.394 . S
C400 C406 1.465 . S
C401 C396 1.399 . S
C401 C400 1.394 . S
C401 C402 1.516 . S
C402 C401 1.516 . S
C402 C403 1.502 . S
C402 C404 1.561 . S
C402 C405 1.526 . S
C403 H387 0.959 . S
C403 H388 0.959 . S
C403 H389 0.961 . S
C403 C402 1.502 . S
C404 H390 0.960 . S
C404 H391 0.961 . S
C404 H392 0.959 . S
C404 C402 1.561 . S
C405 C402 1.526 . S
C405 C406 1.396 . S
C405 C410 1.390 . S
C406 C400 1.465 . S
C406 C405 1.396 . S
C406 C407 1.399 . S
C407 H393 0.929 . S
C407 C406 1.399 . S
C407 C408 1.385 . S
C408 H394 0.931 . S
C408 C407 1.385 . S
C408 C409 1.389 . S
C409 C408 1.389 . S
C409 C410 1.387 . S
C410 H395 0.930 . S
C410 C405 1.390 . S
C410 C409 1.387 . S
H411 C423 0.930 . S
H412 C425 0.930 . S
H413 C426 0.930 . S
H414 C430 0.959 . S
H415 C430 0.959 . S
H416 C430 0.961 . S
H417 C431 0.960 . S
H418 C431 0.961 . S
H419 C431 0.959 . S
H420 C434 0.929 . S
H421 C435 0.931 . S
H422 C437 0.930 . S
C423 H411 0.930 . S
C423 C424 1.399 . S
C423 C428 1.399 . S
C424 C423 1.399 . S
C424 C425 1.376 . S
C425 H412 0.930 . S
C425 C424 1.376 . S
C425 C426 1.388 . S
C426 H413 0.930 . S
C426 C425 1.388 . S
C426 C427 1.390 . S
C427 C426 1.390 . S
C427 C428 1.394 . S
C427 C433 1.465 . S
C428 C423 1.399 . S
C428 C427 1.394 . S
C428 C429 1.516 . S
C429 C428 1.516 . S
C429 C430 1.502 . S
C429 C431 1.561 . S
C429 C432 1.526 . S
C430 H414 0.959 . S
C430 H415 0.959 . S
C430 H416 0.961 . S
C430 C429 1.502 . S
C431 H417 0.960 . S
C431 H418 0.961 . S
C431 H419 0.959 . S
C431 C429 1.561 . S
C432 C429 1.526 . S
C432 C433 1.396 . S
C432 C437 1.390 . S
C433 C427 1.465 . S
C433 C432 1.396 . S
C433 C434 1.399 . S
C434 H420 0.929 . S
C434 C433 1.399 . S
C434 C435 1.385 . S
C435 H421 0.931 . S
C435 C434 1.385 . S
C435 C436 1.389 . S
C436 C435 1.389 . S
C436 C437 1.387 . S
C437 H422 0.930 . S
C437 C432 1.390 . S
C437 C436 1.387 . S
H438 C450 0.930 . S
H439 C452 0.930 . S
H440 C453 0.930 . S
H441 C457 0.959 . S
H442 C457 0.959 . S
H443 C457 0.961 . S
H444 C458 0.960 . S
H445 C458 0.961 . S
H446 C458 0.959 . S
H447 C461 0.929 . S
H448 C462 0.931 . S
H449 C464 0.930 . S
C450 H438 0.930 . S
C450 C451 1.399 . S
C450 C455 1.399 . S
C451 C450 1.399 . S
C451 C452 1.376 . S
C452 H439 0.930 . S
C452 C451 1.376 . S
C452 C453 1.388 . S
C453 H440 0.930 . S
C453 C452 1.388 . S
C453 C454 1.390 . S
C454 C453 1.390 . S
C454 C455 1.394 . S
C454 C460 1.465 . S
C455 C450 1.399 . S
C455 C454 1.394 . S
C455 C456 1.516 . S
C456 C455 1.516 . S
C456 C457 1.502 . S
C456 C458 1.561 . S
C456 C459 1.526 . S
C457 H441 0.959 . S
C457 H442 0.959 . S
C457 H443 0.961 . S
C457 C456 1.502 . S
C458 H444 0.960 . S
C458 H445 0.961 . S
C458 H446 0.959 . S
C458 C456 1.561 . S
C459 C456 1.526 . S
C459 C460 1.396 . S
C459 C464 1.390 . S
C460 C454 1.465 . S
C460 C459 1.396 . S
C460 C461 1.399 . S
C461 H447 0.929 . S
C461 C460 1.399 . S
C461 C462 1.385 . S
C462 H448 0.931 . S
C462 C461 1.385 . S
C462 C463 1.389 . S
C463 C462 1.389 . S
C463 C464 1.387 . S
C464 H449 0.930 . S
C464 C459 1.390 . S
C464 C463 1.387 . S
H465 C477 0.930 . S
H466 C479 0.930 . S
H467 C480 0.930 . S
H468 C484 0.959 . S
H469 C484 0.959 . S
H470 C484 0.961 . S
H471 C485 0.960 . S
H472 C485 0.961 . S
H473 C485 0.959 . S
H474 C488 0.929 . S
H475 C489 0.931 . S
H476 C491 0.930 . S
C477 H465 0.930 . S
C477 C478 1.399 . S
C477 C482 1.399 . S
C478 C477 1.399 . S
C478 C479 1.376 . S
C479 H466 0.930 . S
C479 C478 1.376 . S
C479 C480 1.388 . S
C480 H467 0.930 . S
C480 C479 1.388 . S
C480 C481 1.390 . S
C481 C480 1.390 . S
C481 C482 1.394 . S
C481 C487 1.465 . S
C482 C477 1.399 . S
C482 C481 1.394 . S
C482 C483 1.516 . S
C483 C482 1.516 . S
C483 C484 1.502 . S
C483 C485 1.561 . S
C483 C486 1.526 . S
C484 H468 0.959 . S
C484 H469 0.959 . S
C484 H470 0.961 . S
C484 C483 1.502 . S
C485 H471 0.960 . S
C485 H472 0.961 . S
C485 H473 0.959 . S
C485 C483 1.561 . S
C486 C483 1.526 . S
C486 C487 1.396 . S
C486 C491 1.390 . S
C487 C481 1.465 . S
C487 C486 1.396 . S
C487 C488 1.399 1_556 S
C488 H474 0.929 . S
C488 C487 1.399 1_554 S
C488 C489 1.385 . S
C489 H475 0.931 . S
C489 C488 1.385 . S
C489 C490 1.389 . S
C490 C489 1.389 . S
C490 C491 1.387 1_554 S
C491 H476 0.930 . S
C491 C486 1.390 . S
C491 C490 1.387 1_556 S
H492 C504 0.930 . S
H493 C506 0.930 . S
H494 C507 0.930 . S
H495 C511 0.959 . S
H496 C511 0.959 . S
H497 C511 0.961 . S
H498 C512 0.960 . S
H499 C512 0.961 . S
H500 C512 0.959 . S
H501 C515 0.929 . S
H502 C516 0.931 . S
H503 C518 0.930 . S
C504 H492 0.930 . S
C504 C505 1.399 . S
C504 C509 1.399 . S
C505 C504 1.399 . S
C505 C506 1.376 . S
C506 H493 0.930 . S
C506 C505 1.376 . S
C506 C507 1.388 . S
C507 H494 0.930 . S
C507 C506 1.388 . S
C507 C508 1.390 . S
C508 C507 1.390 . S
C508 C509 1.394 . S
C508 C514 1.465 . S
C509 C504 1.399 . S
C509 C508 1.394 . S
C509 C510 1.516 . S
C510 C509 1.516 . S
C510 C511 1.502 . S
C510 C512 1.561 . S
C510 C513 1.526 . S
C511 H495 0.959 . S
C511 H496 0.959 . S
C511 H497 0.961 . S
C511 C510 1.502 . S
C512 H498 0.960 . S
C512 H499 0.961 . S
C512 H500 0.959 . S
C512 C510 1.561 . S
C513 C510 1.526 . S
C513 C514 1.396 . S
C513 C518 1.390 . S
C514 C508 1.465 . S
C514 C513 1.396 . S
C514 C515 1.399 . S
C515 H501 0.929 . S
C515 C514 1.399 . S
C515 C516 1.385 . S
C516 H502 0.931 . S
C516 C515 1.385 . S
C516 C517 1.389 . S
C517 C516 1.389 . S
C517 C518 1.387 . S
C518 H503 0.930 . S
C518 C513 1.390 . S
C518 C517 1.387 . S
H519 C531 0.930 . S
H520 C533 0.930 . S
H521 C534 0.930 1_556 S
H522 C538 0.959 . S
H523 C538 0.959 . S
H524 C538 0.961 . S
H525 C539 0.960 . S
H526 C539 0.961 . S
H527 C539 0.959 . S
H528 C542 0.929 . S
H529 C543 0.931 . S
H530 C545 0.930 . S
C531 H519 0.930 . S
C531 C532 1.399 . S
C531 C536 1.399 . S
C532 C531 1.399 . S
C532 C533 1.376 . S
C533 H520 0.930 . S
C533 C532 1.376 . S
C533 C534 1.388 . S
C534 H521 0.930 1_554 S
C534 C533 1.388 . S
C534 C535 1.390 . S
C535 C534 1.390 . S
C535 C536 1.394 . S
C535 C541 1.465 1_554 S
C536 C531 1.399 . S
C536 C535 1.394 . S
C536 C537 1.516 . S
C537 C536 1.516 . S
C537 C538 1.502 . S
C537 C539 1.561 . S
C537 C540 1.526 1_554 S
C538 H522 0.959 . S
C538 H523 0.959 . S
C538 H524 0.961 . S
C538 C537 1.502 . S
C539 H525 0.960 . S
C539 H526 0.961 . S
C539 H527 0.959 . S
C539 C537 1.561 . S
C540 C537 1.526 1_556 S
C540 C541 1.396 . S
C540 C545 1.390 . S
C541 C535 1.465 1_556 S
C541 C540 1.396 . S
C541 C542 1.399 . S
C542 H528 0.929 . S
C542 C541 1.399 . S
C542 C543 1.385 . S
C543 H529 0.931 . S
C543 C542 1.385 . S
C543 C544 1.389 . S
C544 C543 1.389 . S
C544 C545 1.387 . S
C545 H530 0.930 . S
C545 C540 1.390 . S
C545 C544 1.387 . S
H546 C558 0.930 . S
H547 C560 0.930 . S
H548 C561 0.930 . S
H549 C565 0.959 1_554 S
H550 C565 0.959 . S
H551 C565 0.961 1_554 S
H552 C566 0.960 . S
H553 C566 0.961 1_556 S
H554 C566 0.959 . S
H555 C569 0.929 . S
H556 C570 0.931 . S
H557 C572 0.930 . S
C558 H546 0.930 . S
C558 C559 1.399 . S
C558 C563 1.399 . S
C559 C558 1.399 . S
C559 C560 1.376 . S
C560 H547 0.930 . S
C560 C559 1.376 . S
C560 C561 1.388 . S
C561 H548 0.930 . S
C561 C560 1.388 . S
C561 C562 1.390 . S
C562 C561 1.390 . S
C562 C563 1.394 . S
C562 C568 1.465 . S
C563 C558 1.399 . S
C563 C562 1.394 . S
C563 C564 1.516 . S
C564 C563 1.516 . S
C564 C565 1.502 1_554 S
C564 C566 1.561 . S
C564 C567 1.526 . S
C565 H549 0.959 1_556 S
C565 H550 0.959 . S
C565 H551 0.961 1_556 S
C565 C564 1.502 1_556 S
C566 H552 0.960 . S
C566 H553 0.961 1_554 S
C566 H554 0.959 . S
C566 C564 1.561 . S
C567 C564 1.526 . S
C567 C568 1.396 . S
C567 C572 1.390 1_554 S
C568 C562 1.465 . S
C568 C567 1.396 . S
C568 C569 1.399 . S
C569 H555 0.929 . S
C569 C568 1.399 . S
C569 C570 1.385 . S
C570 H556 0.931 . S
C570 C569 1.385 . S
C570 C571 1.389 1_554 S
C571 C570 1.389 1_556 S
C571 C572 1.387 . S
C572 H557 0.930 . S
C572 C567 1.390 1_556 S
C572 C571 1.387 . S
H573 C585 0.930 . S
H574 C587 0.930 . S
H575 C588 0.930 . S
H576 C592 0.959 . S
H577 C592 0.959 . S
H578 C592 0.961 . S
H579 C593 0.960 . S
H580 C593 0.961 . S
H581 C593 0.959 . S
H582 C596 0.929 . S
H583 C597 0.931 . S
H584 C599 0.930 . S
C585 H573 0.930 . S
C585 C586 1.399 . S
C585 C590 1.399 . S
C586 C585 1.399 . S
C586 C587 1.376 . S
C587 H574 0.930 . S
C587 C586 1.376 . S
C587 C588 1.388 . S
C588 H575 0.930 . S
C588 C587 1.388 . S
C588 C589 1.390 . S
C589 C588 1.390 . S
C589 C590 1.394 . S
C589 C595 1.465 . S
C590 C585 1.399 . S
C590 C589 1.394 . S
C590 C591 1.516 . S
C591 C590 1.516 . S
C591 C592 1.502 . S
C591 C593 1.561 . S
C591 C594 1.526 . S
C592 H576 0.959 . S
C592 H577 0.959 . S
C592 H578 0.961 . S
C592 C591 1.502 . S
C593 H579 0.960 . S
C593 H580 0.961 . S
C593 H581 0.959 . S
C593 C591 1.561 . S
C594 C591 1.526 . S
C594 C595 1.396 . S
C594 C599 1.390 . S
C595 C589 1.465 . S
C595 C594 1.396 . S
C595 C596 1.399 . S
C596 H582 0.929 . S
C596 C595 1.399 . S
C596 C597 1.385 . S
C597 H583 0.931 . S
C597 C596 1.385 . S
C597 C598 1.389 . S
C598 C597 1.389 . S
C598 C599 1.387 . S
C599 H584 0.930 . S
C599 C594 1.390 . S
C599 C598 1.387 . S
H600 C612 0.930 . S
H601 C614 0.930 . S
H602 C615 0.930 . S
H603 C619 0.959 . S
H604 C619 0.959 . S
H605 C619 0.961 . S
H606 C620 0.960 . S
H607 C620 0.961 . S
H608 C620 0.959 . S
H609 C623 0.929 . S
H610 C624 0.931 . S
H611 C626 0.930 . S
C612 H600 0.930 . S
C612 C613 1.399 . S
C612 C617 1.399 . S
C613 C612 1.399 . S
C613 C614 1.376 . S
C614 H601 0.930 . S
C614 C613 1.376 . S
C614 C615 1.388 . S
C615 H602 0.930 . S
C615 C614 1.388 . S
C615 C616 1.390 . S
C616 C615 1.390 . S
C616 C617 1.394 . S
C616 C622 1.465 . S
C617 C612 1.399 . S
C617 C616 1.394 . S
C617 C618 1.516 . S
C618 C617 1.516 . S
C618 C619 1.502 . S
C618 C620 1.561 . S
C618 C621 1.526 . S
C619 H603 0.959 . S
C619 H604 0.959 . S
C619 H605 0.961 . S
C619 C618 1.502 . S
C620 H606 0.960 . S
C620 H607 0.961 . S
C620 H608 0.959 . S
C620 C618 1.561 . S
C621 C618 1.526 . S
C621 C622 1.396 . S
C621 C626 1.390 . S
C622 C616 1.465 . S
C622 C621 1.396 . S
C622 C623 1.399 . S
C623 H609 0.929 . S
C623 C622 1.399 . S
C623 C624 1.385 . S
C624 H610 0.931 . S
C624 C623 1.385 . S
C624 C625 1.389 . S
C625 C624 1.389 . S
C625 C626 1.387 . S
C626 H611 0.930 . S
C626 C621 1.390 . S
C626 C625 1.387 . S
H627 C639 0.930 . S
H628 C641 0.930 . S
H629 C642 0.930 . S
H630 C646 0.959 . S
H631 C646 0.959 . S
H632 C646 0.961 . S
H633 C647 0.960 . S
H634 C647 0.961 . S
H635 C647 0.959 . S
H636 C650 0.929 . S
H637 C651 0.931 . S
H638 C653 0.930 . S
C639 H627 0.930 . S
C639 C640 1.399 . S
C639 C644 1.399 . S
C640 C639 1.399 . S
C640 C641 1.376 . S
C641 H628 0.930 . S
C641 C640 1.376 . S
C641 C642 1.388 . S
C642 H629 0.930 . S
C642 C641 1.388 . S
C642 C643 1.390 . S
C643 C642 1.390 . S
C643 C644 1.394 . S
C643 C649 1.465 . S
C644 C639 1.399 . S
C644 C643 1.394 . S
C644 C645 1.516 . S
C645 C644 1.516 . S
C645 C646 1.502 . S
C645 C647 1.561 . S
C645 C648 1.526 . S
C646 H630 0.959 . S
C646 H631 0.959 . S
C646 H632 0.961 . S
C646 C645 1.502 . S
C647 H633 0.960 . S
C647 H634 0.961 . S
C647 H635 0.959 . S
C647 C645 1.561 . S
C648 C645 1.526 . S
C648 C649 1.396 . S
C648 C653 1.390 . S
C649 C643 1.465 . S
C649 C648 1.396 . S
C649 C650 1.399 . S
C650 H636 0.929 . S
C650 C649 1.399 . S
C650 C651 1.385 . S
C651 H637 0.931 . S
C651 C650 1.385 . S
C651 C652 1.389 . S
C652 C651 1.389 . S
C652 C653 1.387 . S
C653 H638 0.930 . S
C653 C648 1.390 . S
C653 C652 1.387 . S
H654 C666 0.930 . S
H655 C668 0.930 1_554 S
H656 C669 0.930 . S
H657 C673 0.959 1_655 S
H658 C673 0.927 1_655 S
H659 C673 0.961 . S
H660 C674 0.960 . S
H661 C674 0.961 . S
H662 C674 0.959 . S
H663 C677 0.929 . S
H664 C678 0.931 . S
H665 C680 0.930 . S
C666 H654 0.930 . S
C666 C667 1.399 . S
C666 C671 1.399 . S
C667 C666 1.399 . S
C667 C668 1.376 . S
C668 H655 0.930 1_556 S
C668 C667 1.376 . S
C668 C669 1.388 . S
C669 H656 0.930 . S
C669 C668 1.388 . S
C669 C670 1.390 . S
C670 C669 1.390 . S
C670 C671 1.394 . S
C670 C676 1.465 1_455 S
C671 C666 1.399 . S
C671 C670 1.394 . S
C671 C672 1.516 . S
C672 C671 1.516 . S
C672 C673 1.502 . S
C672 C674 1.561 . S
C672 C675 1.526 1_455 S
C673 H657 0.959 1_455 S
C673 H658 0.927 1_455 S
C673 H659 0.961 . S
C673 C672 1.502 . S
C674 H660 0.960 . S
C674 H661 0.961 . S
C674 H662 0.959 . S
C674 C672 1.561 . S
C675 C672 1.526 1_655 S
C675 C676 1.396 . S
C675 C680 1.390 . S
C676 C670 1.465 1_655 S
C676 C675 1.396 . S
C676 C677 1.399 . S
C677 H663 0.929 . S
C677 C676 1.399 . S
C677 C678 1.385 . S
C678 H664 0.931 . S
C678 C677 1.385 . S
C678 C679 1.389 . S
C679 C678 1.389 . S
C679 C680 1.387 . S
C680 H665 0.930 . S
C680 C675 1.390 . S
C680 C679 1.387 . S
H681 C693 0.930 . S
H682 C695 0.930 . S
H683 C696 0.930 . S
H684 C700 0.959 . S
H685 C700 0.959 . S
H686 C700 0.961 . S
H687 C701 0.960 . S
H688 C701 0.961 . S
H689 C701 0.959 . S
H690 C704 0.929 1_565 S
H691 C705 0.931 . S
H692 C707 0.930 . S
C693 H681 0.930 . S
C693 C694 1.399 . S
C693 C698 1.399 . S
C694 C693 1.399 . S
C694 C695 1.376 . S
C695 H682 0.930 . S
C695 C694 1.376 . S
C695 C696 1.388 1_556 S
C696 H683 0.930 . S
C696 C695 1.388 1_554 S
C696 C697 1.390 . S
C697 C696 1.390 . S
C697 C698 1.394 1_554 S
C697 C703 1.465 1_565 S
C698 C693 1.399 . S
C698 C697 1.394 1_556 S
C698 C699 1.516 1_565 S
C699 C698 1.516 1_545 S
C699 C700 1.502 . S
C699 C701 1.561 . S
C699 C702 1.526 1_556 S
C700 H684 0.959 . S
C700 H685 0.959 . S
C700 H686 0.961 . S
C700 C699 1.502 . S
C701 H687 0.960 . S
C701 H688 0.961 . S
C701 H689 0.959 . S
C701 C699 1.561 . S
C702 C699 1.526 1_554 S
C702 C703 1.396 . S
C702 C707 1.390 . S
C703 C697 1.465 1_545 S
C703 C702 1.396 . S
C703 C704 1.399 . S
C704 H690 0.929 1_545 S
C704 C703 1.399 . S
C704 C705 1.385 . S
C705 H691 0.931 . S
C705 C704 1.385 . S
C705 C706 1.389 . S
C706 C705 1.389 . S
C706 C707 1.387 . S
C707 H692 0.930 . S
C707 C702 1.390 . S
C707 C706 1.387 . S
H708 C720 0.930 . S
H709 C722 0.930 . S
H710 C723 0.930 . S
H711 C727 0.959 . S
H712 C727 0.959 . S
H713 C727 0.961 . S
H714 C728 0.960 . S
H715 C728 0.961 . S
H716 C728 0.959 . S
H717 C731 0.929 . S
H718 C732 0.931 . S
H719 C734 0.930 . S
C720 H708 0.930 . S
C720 C721 1.399 . S
C720 C725 1.399 . S
C721 C720 1.399 . S
C721 C722 1.376 . S
C722 H709 0.930 . S
C722 C721 1.376 . S
C722 C723 1.388 . S
C723 H710 0.930 . S
C723 C722 1.388 . S
C723 C724 1.390 . S
C724 C723 1.390 . S
C724 C725 1.394 . S
C724 C730 1.465 . S
C725 C720 1.399 . S
C725 C724 1.394 . S
C725 C726 1.516 . S
C726 C725 1.516 . S
C726 C727 1.502 . S
C726 C728 1.561 . S
C726 C729 1.526 . S
C727 H711 0.959 . S
C727 H712 0.959 . S
C727 H713 0.961 . S
C727 C726 1.502 . S
C728 H714 0.960 . S
C728 H715 0.961 . S
C728 H716 0.959 . S
C728 C726 1.561 . S
C729 C726 1.526 . S
C729 C730 1.396 . S
C729 C734 1.390 . S
C730 C724 1.465 . S
C730 C729 1.396 . S
C730 C731 1.399 . S
C731 H717 0.929 . S
C731 C730 1.399 . S
C731 C732 1.385 . S
C732 H718 0.931 . S
C732 C731 1.385 . S
C732 C733 1.389 . S
C733 C732 1.389 . S
C733 C734 1.387 . S
C734 H719 0.930 . S
C734 C729 1.390 . S
C734 C733 1.387 . S
H735 C747 0.930 . S
H736 C749 0.930 . S
H737 C750 0.930 . S
H738 C754 0.959 . S
H739 C754 0.959 . S
H740 C754 0.961 . S
H741 C755 0.960 . S
H742 C755 0.961 . S
H743 C755 0.959 . S
H744 C758 0.929 . S
H745 C759 0.931 . S
H746 C761 0.930 . S
C747 H735 0.930 . S
C747 C748 1.399 . S
C747 C752 1.399 . S
C748 C747 1.399 . S
C748 C749 1.376 . S
C749 H736 0.930 . S
C749 C748 1.376 . S
C749 C750 1.388 . S
C750 H737 0.930 . S
C750 C749 1.388 . S
C750 C751 1.390 . S
C751 C750 1.390 . S
C751 C752 1.394 . S
C751 C757 1.465 1_455 S
C752 C747 1.399 . S
C752 C751 1.394 . S
C752 C753 1.516 1_455 S
C753 C752 1.516 1_655 S
C753 C754 1.502 . S
C753 C755 1.561 . S
C753 C756 1.526 . S
C754 H738 0.959 . S
C754 H739 0.959 . S
C754 H740 0.961 . S
C754 C753 1.502 . S
C755 H741 0.960 . S
C755 H742 0.961 . S
C755 H743 0.959 . S
C755 C753 1.561 . S
C756 C753 1.526 . S
C756 C757 1.396 . S
C756 C761 1.390 . S
C757 C751 1.465 1_655 S
C757 C756 1.396 . S
C757 C758 1.399 . S
C758 H744 0.929 . S
C758 C757 1.399 . S
C758 C759 1.385 . S
C759 H745 0.931 . S
C759 C758 1.385 . S
C759 C760 1.389 . S
C760 C759 1.389 . S
C760 C761 1.387 . S
C761 H746 0.930 . S
C761 C756 1.390 . S
C761 C760 1.387 . S
H762 C774 0.930 . S
H763 C776 0.930 . S
H764 C777 0.930 . S
H765 C781 0.959 . S
H766 C781 0.959 . S
H767 C781 0.961 . S
H768 C782 0.960 . S
H769 C782 0.961 . S
H770 C782 0.959 . S
H771 C785 0.929 1_545 S
H772 C786 0.931 . S
H773 C788 0.930 . S
C774 H762 0.930 . S
C774 C775 1.399 . S
C774 C779 1.399 . S
C775 C774 1.399 . S
C775 C776 1.376 . S
C776 H763 0.930 . S
C776 C775 1.376 . S
C776 C777 1.388 . S
C777 H764 0.930 . S
C777 C776 1.388 . S
C777 C778 1.390 . S
C778 C777 1.390 . S
C778 C779 1.394 . S
C778 C784 1.465 1_545 S
C779 C774 1.399 . S
C779 C778 1.394 . S
C779 C780 1.516 1_545 S
C780 C779 1.516 1_565 S
C780 C781 1.502 . S
C780 C782 1.561 . S
C780 C783 1.526 . S
C781 H765 0.959 . S
C781 H766 0.959 . S
C781 H767 0.961 . S
C781 C780 1.502 . S
C782 H768 0.960 . S
C782 H769 0.961 . S
C782 H770 0.959 . S
C782 C780 1.561 . S
C783 C780 1.526 . S
C783 C784 1.396 . S
C783 C788 1.390 . S
C784 C778 1.465 1_565 S
C784 C783 1.396 . S
C784 C785 1.399 . S
C785 H771 0.929 1_565 S
C785 C784 1.399 . S
C785 C786 1.385 . S
C786 H772 0.931 . S
C786 C785 1.385 . S
C786 C787 1.389 . S
C787 C786 1.389 . S
C787 C788 1.387 . S
C788 H773 0.930 . S
C788 C783 1.390 . S
C788 C787 1.387 . S
H789 C801 0.930 . S
H790 C803 0.930 . S
H791 C804 0.930 . S
H792 C808 0.959 . S
H793 C808 0.959 . S
H794 C808 0.961 . S
H795 C809 0.960 . S
H796 C809 0.961 . S
H797 C809 0.959 . S
H798 C812 0.929 . S
H799 C813 0.931 . S
H800 C815 0.930 . S
C801 H789 0.930 . S
C801 C802 1.399 . S
C801 C806 1.399 . S
C802 C801 1.399 . S
C802 C803 1.376 . S
C803 H790 0.930 . S
C803 C802 1.376 . S
C803 C804 1.388 . S
C804 H791 0.930 . S
C804 C803 1.388 . S
C804 C805 1.390 . S
C805 C804 1.390 . S
C805 C806 1.394 . S
C805 C811 1.465 . S
C806 C801 1.399 . S
C806 C805 1.394 . S
C806 C807 1.516 . S
C807 C806 1.516 . S
C807 C808 1.502 . S
C807 C809 1.561 . S
C807 C810 1.526 . S
C808 H792 0.959 . S
C808 H793 0.959 . S
C808 H794 0.961 . S
C808 C807 1.502 . S
C809 H795 0.960 . S
C809 H796 0.961 . S
C809 H797 0.959 . S
C809 C807 1.561 . S
C810 C807 1.526 . S
C810 C811 1.396 . S
C810 C815 1.390 . S
C811 C805 1.465 . S
C811 C810 1.396 . S
C811 C812 1.399 . S
C812 H798 0.929 . S
C812 C811 1.399 . S
C812 C813 1.385 . S
C813 H799 0.931 . S
C813 C812 1.385 . S
C813 C814 1.389 . S
C814 C813 1.389 . S
C814 C815 1.387 . S
C815 H800 0.930 . S
C815 C810 1.390 . S
C815 C814 1.387 . S
C181 C12 1.210 . S
C193 C152 1.234 . S
C208 C166 1.181 . S
C220 C19 1.013 . S
C235 C40 1.196 . S
C247 C89 1.049 . S
C262 C54 1.211 . S
C274 C110 1.231 . S
C289 C61 1.035 . S
C301 C124 1.192 . S
C316 C131 1.149 . S
C328 C82 1.186 . S
C343 C4 1.530 . S
C355 C116 1.507 . S
C370 C25 1.478 . S
C382 C137 1.491 . S
C397 C144 1.548 . S
C409 C32 1.511 . S
C424 C46 1.567 . S
C436 C158 1.573 . S
C451 C67 1.515 . S
C463 C95 1.502 . S
C478 C74 1.564 . S
C490 C102 1.579 . S
C505 C151 0.883 . S
C517 C11 0.853 . S
C532 C18 0.939 . S
C544 C165 0.942 . S
C559 C39 0.911 . S
C571 C88 0.895 . S
C586 C53 0.893 . S
C598 C109 0.844 . S
C613 C123 0.944 . S
C625 C60 0.930 . S
C640 C81 0.915 . S
C652 C130 0.902 . S
C667 C5 1.236 1_556 S
C679 C159 1.254 . S
C694 C96 1.401 . S
C706 C26 1.449 . S
C721 C103 1.232 . S
C733 C33 1.269 . S
C748 C117 1.288 . S
C760 C47 1.299 . S
C775 C138 1.402 . S
C787 C68 1.446 . S
C802 C145 1.232 . S
C814 C75 1.255 . S
