# Generated by pormake.
# Topology snz, (6)-cn, num edge types: 1
# Building blocks:
#     Node 0, Type 0, BuildingBlock: FUNLAD_clean_sbu_0, # of connection points: 6
#     Node 1, Type 0, BuildingBlock: FUNLAD_clean_sbu_0, # of connection points: 6
#     Node 2, Type 0, BuildingBlock: FUNLAD_clean_sbu_0, # of connection points: 6
#     Node 3, Type 0, BuildingBlock: FUNLAD_clean_sbu_0, # of connection points: 6
#     Node 4, Type 0, BuildingBlock: FUNLAD_clean_sbu_0, # of connection points: 6
#     Node 5, Type 0, BuildingBlock: FUNLAD_clean_sbu_0, # of connection points: 6
#     Node 6, Type 0, BuildingBlock: FUNLAD_clean_sbu_0, # of connection points: 6
#     Node 7, Type 0, BuildingBlock: FUNLAD_clean_sbu_0, # of connection points: 6
#     Node 8, Type 0, BuildingBlock: FUNLAD_clean_sbu_0, # of connection points: 6
#     Edge 9, Type (0, 0), BuildingBlock: XUDNAN_clean_linker_2, # of connection points: 2
#     Edge 10, Type (0, 0), BuildingBlock: XUDNAN_clean_linker_2, # of connection points: 2
#     Edge 11, Type (0, 0), BuildingBlock: XUDNAN_clean_linker_2, # of connection points: 2
#     Edge 12, Type (0, 0), BuildingBlock: XUDNAN_clean_linker_2, # of connection points: 2
#     Edge 13, Type (0, 0), BuildingBlock: XUDNAN_clean_linker_2, # of connection points: 2
#     Edge 14, Type (0, 0), BuildingBlock: XUDNAN_clean_linker_2, # of connection points: 2
#     Edge 15, Type (0, 0), BuildingBlock: XUDNAN_clean_linker_2, # of connection points: 2
#     Edge 16, Type (0, 0), BuildingBlock: XUDNAN_clean_linker_2, # of connection points: 2
#     Edge 17, Type (0, 0), BuildingBlock: XUDNAN_clean_linker_2, # of connection points: 2
#     Edge 18, Type (0, 0), BuildingBlock: XUDNAN_clean_linker_2, # of connection points: 2
#     Edge 19, Type (0, 0), BuildingBlock: XUDNAN_clean_linker_2, # of connection points: 2
#     Edge 20, Type (0, 0), BuildingBlock: XUDNAN_clean_linker_2, # of connection points: 2
#     Edge 21, Type (0, 0), BuildingBlock: XUDNAN_clean_linker_2, # of connection points: 2
#     Edge 22, Type (0, 0), BuildingBlock: XUDNAN_clean_linker_2, # of connection points: 2
#     Edge 23, Type (0, 0), BuildingBlock: XUDNAN_clean_linker_2, # of connection points: 2
#     Edge 24, Type (0, 0), BuildingBlock: XUDNAN_clean_linker_2, # of connection points: 2
#     Edge 25, Type (0, 0), BuildingBlock: XUDNAN_clean_linker_2, # of connection points: 2
#     Edge 26, Type (0, 0), BuildingBlock: XUDNAN_clean_linker_2, # of connection points: 2
#     Edge 27, Type (0, 0), BuildingBlock: XUDNAN_clean_linker_2, # of connection points: 2
#     Edge 28, Type (0, 0), BuildingBlock: XUDNAN_clean_linker_2, # of connection points: 2
#     Edge 29, Type (0, 0), BuildingBlock: XUDNAN_clean_linker_2, # of connection points: 2
#     Edge 30, Type (0, 0), BuildingBlock: XUDNAN_clean_linker_2, # of connection points: 2
#     Edge 31, Type (0, 0), BuildingBlock: XUDNAN_clean_linker_2, # of connection points: 2
#     Edge 32, Type (0, 0), BuildingBlock: XUDNAN_clean_linker_2, # of connection points: 2
#     Edge 33, Type (0, 0), BuildingBlock: XUDNAN_clean_linker_2, # of connection points: 2
#     Edge 34, Type (0, 0), BuildingBlock: XUDNAN_clean_linker_2, # of connection points: 2
#     Edge 35, Type (0, 0), BuildingBlock: XUDNAN_clean_linker_2, # of connection points: 2
# Relax obj value: 0.657
# Max RMSD: 0.282
# Mean RMSD: 0.259
data_MOF--net-snz--node1-FUNLAD_clean_sbu_0--edge1-XUDNAN_clean_linker_2
_symmetry_space_group_name_H-M    P1
_symmetry_Int_Tables_number       1
_symmetry_cell_setting            triclinic
loop_
_symmetry_equiv_pos_as_xyz
'x, y, z'
_cell_length_a     48.431793
_cell_length_b     53.954591
_cell_length_c     16.573553
_cell_angle_alpha  89.46306
_cell_angle_beta   89.658507
_cell_angle_gamma 120.3211
loop_
_atom_site_label
_atom_site_type_symbol
_atom_site_fract_x
_atom_site_fract_y
_atom_site_fract_z
_atom_type_partial_charge
C0 C 0.00894 0.52383 0.97424 0.0
N1 N 0.09755 0.53143 0.90729 0.0
C2 C 0.08555 0.53066 0.83296 0.0
C3 C 0.10448 0.53582 0.76488 0.0
C4 C 0.13559 0.54058 0.77302 0.0
C5 C 0.14823 0.54281 0.84985 0.0
C6 C 0.1287 0.53864 0.91713 0.0
Zn7 Zn 0.06612 0.51685 1.0017 0.0
C8 C 0.081 0.56258 0.11753 0.0
N9 N -0.00086 0.48426 0.19845 0.0
C10 C 0.00271 0.5059 0.24649 0.0
C11 C -0.00067 0.46114 0.23131 0.0
C12 C 0.01623 0.46477 0.30226 0.0
C13 C 0.02996 0.49151 0.34024 0.0
C14 C 0.01958 0.51068 0.31794 0.0
Zn15 Zn 0.03003 0.49995 0.10084 0.0
O16 O 0.03666 0.53151 0.94597 0.0
C17 C 0.0141 0.45674 0.97521 0.0
O18 O -0.00025 0.51006 1.04064 0.0
H19 H -0.00589 0.44296 0.19411 0.0
H20 H 0.06073 0.52435 0.82572 0.0
H21 H -0.00028 0.52299 0.22151 0.0
O22 O 0.03909 0.47748 0.94345 0.0
O23 O 0.00557 0.45931 1.04585 0.0
H24 H 0.13796 0.53962 0.97688 0.0
O25 O 0.06079 0.48883 0.16165 0.0
O26 O 0.09368 0.50067 0.05874 0.0
O27 O 0.05541 0.54278 0.15038 0.0
O28 O 0.09249 0.55679 0.05639 0.0
C29 C 0.08513 0.49004 0.12921 0.0
H30 H 0.09405 0.53374 0.70583 0.0
H31 H 0.17212 0.5463 0.8576 0.0
H32 H 0.02258 0.44884 0.31893 0.0
H33 H 0.02797 0.5308 0.34886 0.0
C34 C 0.42365 0.48363 0.1429 0.0
N35 N 0.507 0.48573 0.21142 0.0
C36 C 0.48237 0.46143 0.24499 0.0
C37 C 0.47137 0.4629 0.32168 0.0
C38 C 0.48776 0.4889 0.3631 0.0
C39 C 0.51873 0.50947 0.33652 0.0
C40 C 0.52828 0.50718 0.25886 0.0
Zn41 Zn 0.49207 0.50048 0.11672 0.0
C42 C 0.46654 0.4595 0.98304 0.0
N43 N 0.457 0.53 0.92614 0.0
C44 C 0.43036 0.53227 0.93638 0.0
C45 C 0.47076 0.53332 0.85221 0.0
C46 C 0.45661 0.53718 0.78461 0.0
C47 C 0.42726 0.53627 0.79264 0.0
C48 C 0.41444 0.53471 0.8694 0.0
Zn49 Zn 0.47376 0.51634 1.01845 0.0
O50 O 0.44735 0.48369 0.17441 0.0
C51 C 0.49987 0.55864 0.1464 0.0
O52 O 0.42669 0.49492 0.07354 0.0
H53 H 0.49145 0.53097 0.8444 0.0
H54 H 0.46652 0.44393 0.20666 0.0
H55 H 0.42016 0.53034 0.99583 0.0
O56 O 0.5067 0.54065 0.17652 0.0
O57 O 0.48536 0.55351 0.08002 0.0
H58 H 0.54874 0.5257 0.23162 0.0
O59 O 0.52149 0.53676 0.96623 0.0
O60 O 0.53609 0.51695 0.06055 0.0
O61 O 0.46251 0.47928 0.95411 0.0
O62 O 0.4772 0.46174 0.05416 0.0
C63 C 0.54232 0.53161 0.99587 0.0
H64 H 0.44781 0.44608 0.34106 0.0
H65 H 0.53284 0.52923 0.36904 0.0
H66 H 0.46675 0.53789 0.72554 0.0
H67 H 0.39167 0.5337 0.87707 0.0
C68 C 0.52351 0.01687 0.88571 0.0
N69 N 0.43228 0.94694 0.81923 0.0
C70 C 0.40635 0.94955 0.80238 0.0
C71 C 0.40856 0.96765 0.73876 0.0
C72 C 0.43647 0.98037 0.69126 0.0
C73 C 0.45738 0.96951 0.69594 0.0
C74 C 0.45392 0.95138 0.76031 0.0
Zn75 Zn 0.45497 0.96992 0.92 0.0
C76 C 0.48821 0.94526 1.01248 0.0
N77 N 0.50122 0.02119 0.12292 0.0
C78 C 0.51544 0.05023 0.11269 0.0
C79 C 0.49515 0.00883 0.19747 0.0
C80 C 0.50025 0.02556 0.2652 0.0
C81 C 0.5112 0.05498 0.25526 0.0
C82 C 0.52034 0.06772 0.17881 0.0
Zn83 Zn 0.48009 -0.00363 1.02602 0.0
O84 O 0.49895 -0.00322 0.85207 0.0
C85 C 0.44835 0.02196 0.93104 0.0
O86 O 0.52227 0.02098 0.96036 0.0
H87 H 0.48373 0.98574 0.20396 0.0
H88 H 0.3881 0.94413 0.84817 0.0
H89 H 0.52019 0.05961 0.05266 0.0
O90 O 0.43954 -0.00043 0.8901 0.0
O91 O 0.4652 0.02583 0.99285 0.0
H92 H 0.47319 0.94729 0.77273 0.0
O93 O 0.43707 0.97124 0.09343 0.0
O94 O 0.41247 0.94455 0.98928 0.0
O95 O 0.49519 0.96662 0.05754 0.0
O96 O 0.47146 0.94134 0.94984 0.0
C97 C 0.41214 0.95048 0.06313 0.0
H98 H 0.39133 0.97478 0.73465 0.0
H99 H 0.47845 0.97796 0.65738 0.0
H100 H 0.49281 0.01522 0.32406 0.0
H101 H 0.52862 0.09032 0.16964 0.0
C102 C 0.57456 0.83068 0.24506 0.0
N103 N 0.65461 0.81981 0.21765 0.0
C104 C 0.66255 0.84008 0.15912 0.0
C105 C 0.67202 0.83602 0.08344 0.0
C106 C 0.67223 0.81038 0.06861 0.0
C107 C 0.67159 0.79387 0.13534 0.0
C108 C 0.66179 0.79858 0.20997 0.0
Zn109 Zn 0.62217 0.81501 0.30269 0.0
C110 C 0.64424 0.86489 0.40344 0.0
N111 N 0.5527 0.79952 0.48347 0.0
C112 C 0.55471 0.82211 0.52439 0.0
C113 C 0.53591 0.77237 0.51466 0.0
C114 C 0.52661 0.76805 0.59523 0.0
C115 C 0.53657 0.79212 0.64402 0.0
C116 C 0.54614 0.81872 0.60603 0.0
Zn117 Zn 0.58544 0.80663 0.39485 0.0
O118 O 0.59733 0.82743 0.21914 0.0
C119 C 0.56626 0.75516 0.29795 0.0
O120 O 0.56494 0.8239 0.31772 0.0
H121 H 0.53393 0.75437 0.48208 0.0
H122 H 0.65742 0.85722 0.16752 0.0
H123 H 0.56702 0.84342 0.49768 0.0
O124 O 0.59396 0.77157 0.26861 0.0
O125 O 0.55508 0.76504 0.34957 0.0
H126 H 0.65585 0.78296 0.25809 0.0
O127 O 0.60729 0.7905 0.47535 0.0
O128 O 0.64644 0.8044 0.38717 0.0
O129 O 0.61783 0.84821 0.43929 0.0
O130 O 0.65095 0.85726 0.33754 0.0
C131 C 0.63484 0.79477 0.45682 0.0
H132 H 0.67336 0.85019 1.035 0.0
H133 H 0.673 0.77464 0.12729 0.0
H134 H 0.51801 0.74684 0.62098 0.0
H135 H 0.55269 0.83767 0.64135 0.0
C136 C 0.08622 0.77664 0.48539 0.0
N137 N 0.17246 0.77959 0.54162 0.0
C138 C 0.15395 0.75405 0.58027 0.0
C139 C 0.16477 0.74773 0.65069 0.0
C140 C 0.19471 0.76824 0.68129 0.0
C141 C 0.21573 0.79108 0.63042 0.0
C142 C 0.20354 0.79718 0.56217 0.0
Zn143 Zn 0.15274 0.79219 0.45519 0.0
C144 C 0.12739 0.74966 0.32411 0.0
N145 N 0.11592 0.8194 0.26553 0.0
C146 C 0.0862 0.79987 0.2395 0.0
C147 C 0.13585 0.84262 0.21923 0.0
C148 C 0.13004 0.8423 0.13709 0.0
C149 C 0.10413 0.81731 0.10515 0.0
C150 C 0.07895 0.79961 0.15829 0.0
Zn151 Zn 0.13545 0.80752 0.35472 0.0
O152 O 0.10781 0.77358 0.51934 0.0
C153 C 0.15877 0.84878 0.48753 0.0
O154 O 0.09145 0.7879 0.41546 0.0
H155 H 0.15858 0.85893 0.24255 0.0
H156 H 0.12975 0.73978 0.56067 0.0
H157 H 0.07001 0.78195 0.27765 0.0
O158 O 0.16628 0.83118 0.51722 0.0
O159 O 0.1464 0.84447 0.41807 0.0
H160 H 0.21818 0.81721 0.53008 0.0
O161 O 0.18119 0.82882 0.29488 0.0
O162 O 0.1973 0.81199 0.39281 0.0
O163 O 0.1238 0.76918 0.29096 0.0
O164 O 0.13845 0.75329 0.39488 0.0
C165 C 0.20344 0.82674 0.32829 0.0
H166 H 0.14783 0.72927 0.68636 0.0
H167 H 0.23938 0.80688 0.65061 0.0
H168 H 0.14918 0.8582 0.09915 0.0
H169 H 0.05719 0.78148 0.13611 0.0
C170 C 0.22163 0.36315 0.43351 0.0
N171 N 0.14306 0.28821 0.34225 0.0
C172 C 0.14941 0.29866 0.26556 0.0
C173 C 0.13617 0.2799 0.20166 0.0
C174 C 0.11576 0.25041 0.21753 0.0
C175 C 0.11116 0.23991 0.2964 0.0
C176 C 0.12553 0.25939 0.35851 0.0
Zn177 Zn 0.15549 0.31484 0.43674 0.0
C178 C 0.17872 0.2917 0.5676 0.0
N179 N 0.17566 0.36429 0.64864 0.0
C180 C 0.19691 0.36217 0.69691 0.0
C181 C 0.14876 0.36244 0.68053 0.0
C182 C 0.13616 0.34673 0.75184 0.0
C183 C 0.1536 0.33599 0.79145 0.0
C184 C 0.18605 0.34754 0.77032 0.0
Zn185 Zn 0.16536 0.33973 0.54807 0.0
O186 O 0.20195 0.34271 0.38949 0.0
C187 C 0.14333 0.36357 0.41688 0.0
O188 O 0.21294 0.36588 0.50396 0.0
H189 H 0.13305 0.36597 0.64208 0.0
H190 H 0.16348 0.32156 0.25431 0.0
H191 H 0.21917 0.36543 0.67164 0.0
O192 O 0.13943 0.34169 0.37832 0.0
O193 O 0.15343 0.36711 0.48868 0.0
H194 H 0.12119 0.25148 0.42012 0.0
O195 O 0.11688 0.31296 0.59073 0.0
O196 O 0.10906 0.28695 0.48424 0.0
O197 O 0.1774 0.31087 0.60842 0.0
O198 O 0.17221 0.28954 0.49322 0.0
C199 C 0.09875 0.29098 0.55015 0.0
H200 H 0.14025 0.28845 0.14055 0.0
H201 H 0.09557 0.21728 0.30998 0.0
H202 H 0.11144 0.33938 0.76736 0.0
H203 H 0.20113 0.34145 0.80275 0.0
C204 C 0.30799 0.15085 0.92056 0.0
N205 N 0.36408 0.21726 0.73876 0.0
C206 C 0.35806 0.23156 0.79691 0.0
C207 C 0.37838 0.26074 0.80678 0.0
C208 C 0.40497 0.27566 0.75545 0.0
C209 C 0.41056 0.26077 0.69455 0.0
C210 C 0.3897 0.23112 0.68767 0.0
Zn211 Zn 0.33125 0.17483 0.7344 0.0
C212 C 0.3572 0.13733 0.74546 0.0
N213 N 0.25797 0.08793 0.73472 0.0
C214 C 0.23125 0.07449 0.78239 0.0
C215 C 0.26615 0.07288 0.68427 0.0
C216 C 0.24786 0.04318 0.68181 0.0
C217 C 0.22045 0.02864 0.73069 0.0
C218 C 0.21171 0.04452 0.78057 0.0
Zn219 Zn 0.2905 0.1307 0.73814 0.0
O220 O 0.32858 0.17316 0.87981 0.0
C221 C 0.26542 0.1693 0.72656 0.0
O222 O 0.28847 0.12957 0.87726 0.0
H223 H 0.28734 0.08389 0.64649 0.0
H224 H 0.33708 0.2204 0.83523 0.0
H225 H 0.22534 0.08692 0.82231 0.0
O226 O 0.29548 0.18604 0.72644 0.0
O227 O 0.25409 0.14235 0.73381 0.0
H228 H 0.39377 0.21926 0.64142 0.0
O229 O 0.29244 0.13194 0.59823 0.0
O230 O 0.33317 0.17525 0.59002 0.0
O231 O 0.32731 0.11971 0.74358 0.0
O232 O 0.36725 0.16404 0.74131 0.0
C233 C 0.31219 0.15287 0.55219 0.0
H234 H 0.3729 0.27174 0.85304 0.0
H235 H 0.43076 0.27186 0.65342 0.0
H236 H 0.25489 0.03167 0.64111 0.0
H237 H 0.19041 0.03387 0.81833 0.0
C238 C 0.81123 0.15659 0.54715 0.0
N239 N 0.79505 0.09079 0.7257 0.0
C240 C 0.77056 0.07511 0.6748 0.0
C241 C 0.75986 0.04631 0.66355 0.0
C242 C 0.77493 0.03349 0.7034 0.0
C243 C 0.80052 0.04995 0.75482 0.0
C244 C 0.81007 0.0789 0.76603 0.0
Zn245 Zn 0.80751 0.13262 0.73175 0.0
C246 C 0.8755 0.17259 0.72493 0.0
N247 N 0.82804 0.21836 0.73689 0.0
C248 C 0.82013 0.23292 0.68295 0.0
C249 C 0.849 0.23221 0.79722 0.0
C250 C 0.86263 0.26153 0.80605 0.0
C251 C 0.85547 0.27722 0.7511 0.0
C252 C 0.83403 0.26282 0.6885 0.0
Zn253 Zn 0.81429 0.17603 0.73064 0.0
O254 O 0.80771 0.13456 0.58729 0.0
C255 C 0.7464 0.13595 0.73305 0.0
O256 O 0.81461 0.17753 0.59095 0.0
H257 H 0.85641 0.22079 0.83707 0.0
H258 H 0.75951 0.08504 0.64145 0.0
H259 H 0.80389 0.22154 0.63448 0.0
O260 O 0.75835 0.11977 0.73416 0.0
O261 O 0.76473 0.16304 0.73264 0.0
H262 H 0.82972 0.09195 0.80556 0.0
O263 O 0.81315 0.17364 0.87027 0.0
O264 O 0.80759 0.13126 0.87675 0.0
O265 O 0.86401 0.18915 0.72719 0.0
O266 O 0.85652 0.14564 0.72751 0.0
C267 C 0.81043 0.15305 0.91554 0.0
H268 H 0.74059 0.03432 0.62174 0.0
H269 H 0.81291 0.04061 0.78524 0.0
H270 H 0.87989 0.27206 0.85345 0.0
H271 H 0.8285 0.27453 0.64429 0.0
C272 C 0.82104 0.6703 0.94819 0.0
N273 N 0.84325 0.62373 0.76813 0.0
C274 C 0.86775 0.63081 0.81978 0.0
C275 C 0.88328 0.61512 0.82166 0.0
C276 C 0.87338 0.59169 0.77038 0.0
C277 C 0.8475 0.58428 0.71886 0.0
C278 C 0.83279 0.6009 0.71824 0.0
Zn279 Zn 0.826 0.65098 0.76468 0.0
C280 C 0.75773 0.62448 0.77385 0.0
N281 N 0.79683 0.71264 0.75945 0.0
C282 C 0.8071 0.73623 0.80628 0.0
C283 C 0.77173 0.70422 0.70885 0.0
C284 C 0.75551 0.71926 0.70467 0.0
C285 C 0.76527 0.74353 0.75232 0.0
C286 C 0.7917 0.75234 0.80299 0.0
Zn287 Zn 0.8147 0.68561 0.76376 0.0
O288 O 0.8263 0.65244 0.90933 0.0
C289 C 0.88319 0.71165 0.75396 0.0
O290 O 0.81594 0.68714 0.90317 0.0
H291 H 0.7639 0.68549 0.67194 0.0
H292 H 0.8757 0.64906 0.85883 0.0
H293 H 0.827 0.74241 0.84643 0.0
O294 O 0.87344 0.68503 0.75862 0.0
O295 O 0.86288 0.71999 0.75538 0.0
H296 H 0.81337 0.59586 0.67736 0.0
O297 O 0.81376 0.68405 0.62437 0.0
O298 O 0.8253 0.65015 0.61986 0.0
O299 O 0.7669 0.65104 0.77184 0.0
O300 O 0.77846 0.61673 0.77043 0.0
C301 C 0.8193 0.66755 0.58011 0.0
H302 H 0.90268 0.6211 0.86353 0.0
H303 H 0.83916 0.5662 0.67877 0.0
H304 H 0.73581 0.71221 0.66316 0.0
H305 H 0.80008 0.7712 0.83993 0.0
H306 H 0.12454 0.49156 0.71109 0.0
H307 H 0.17656 0.58303 0.66975 0.0
H308 H 0.16691 0.57578 0.5246 0.0
H309 H 0.12672 0.46696 0.48304 0.0
H310 H 0.08542 0.4394 0.49563 0.0
H311 H 0.11281 0.44823 0.57834 0.0
H312 H 0.07498 0.45704 0.66809 0.0
H313 H 0.04797 0.44931 0.58679 0.0
H314 H 0.06449 0.48334 0.63668 0.0
H315 H 0.1326 0.56253 0.40997 0.0
H316 H 0.08363 0.5445 0.33139 0.0
H317 H 0.04387 0.46158 0.45201 0.0
C318 C 0.13615 0.50967 0.66955 0.0
C319 C 0.15093 0.53769 0.70015 0.0
C320 C 0.16542 0.5614 0.64667 0.0
C321 C 0.15952 0.55732 0.56395 0.0
C322 C 0.13878 0.5295 0.53707 0.0
C323 C 0.12776 0.50574 0.58826 0.0
C324 C 0.09824 0.47991 0.55452 0.0
C325 C 0.10625 0.45724 0.52621 0.0
C326 C 0.06981 0.46673 0.61511 0.0
C327 C 0.09185 0.49387 0.48335 0.0
C328 C 0.1164 0.52191 0.47166 0.0
C329 C 0.11374 0.54038 0.41721 0.0
C330 C 0.08538 0.53013 0.37437 0.0
C331 C 0.05955 0.50179 0.38733 0.0
C332 C 0.06329 0.48328 0.44084 0.0
H333 H 0.3885 0.4845 0.73685 0.0
H334 H 0.42779 0.57446 0.68308 0.0
H335 H 0.43232 0.56587 0.54003 0.0
H336 H 0.44528 0.4834 0.66813 0.0
H337 H 0.42867 0.44858 0.62293 0.0
H338 H 0.407 0.45406 0.7015 0.0
H339 H 0.35746 0.43815 0.611 0.0
H340 H 0.37823 0.43019 0.53393 0.0
H341 H 0.36284 0.45356 0.51121 0.0
H342 H 0.45721 0.55491 0.43229 0.0
H343 H 0.48978 0.54008 0.35614 0.0
H344 H 0.44328 0.45786 0.48222 0.0
C345 C 0.3952 0.50164 0.69285 0.0
C346 C 0.40812 0.53002 0.71964 0.0
C347 C 0.41761 0.55254 0.66293 0.0
C348 C 0.42072 0.54776 0.58149 0.0
C349 C 0.41448 0.5205 0.55922 0.0
C350 C 0.40097 0.49734 0.61297 0.0
C351 C 0.406 0.47319 0.58423 0.0
C352 C 0.42275 0.46438 0.64796 0.0
C353 C 0.37422 0.44721 0.5586 0.0
C354 C 0.42751 0.48765 0.51192 0.0
C355 C 0.43105 0.51438 0.49682 0.0
C356 C 0.45364 0.53361 0.44161 0.0
C357 C 0.47264 0.52523 0.40005 0.0
C358 C 0.46932 0.4979 0.41414 0.0
C359 C 0.4461 0.47876 0.46997 0.0
H360 H 0.40571 -0.00589 0.57801 0.0
H361 H 0.49223 0.02926 0.71708 0.0
H362 H 0.51726 0.0722 0.63029 0.0
H363 H 0.43041 0.00113 0.41034 0.0
H364 H 0.40879 0.01442 0.35326 0.0
H365 H 0.39261 -0.00396 0.44658 0.0
H366 H 0.3897 0.03958 0.4986 0.0
H367 H 0.40664 0.05853 0.40457 0.0
H368 H 0.42504 0.0747 0.49871 0.0
H369 H 0.54005 0.09394 0.50453 0.0
H370 H 0.55469 0.0905 0.36476 0.0
H371 H 0.45564 0.04938 0.29749 0.0
C372 C 0.42929 0.01174 0.59158 0.0
C373 C 0.44754 0.00834 0.6514 0.0
C374 C 0.4783 0.03135 0.66937 0.0
C375 C 0.49246 0.0561 0.62122 0.0
C376 C 0.47543 0.05773 0.55589 0.0
C377 C 0.44379 0.03666 0.54296 0.0
C378 C 0.43325 0.04008 0.45991 0.0
C379 C 0.41535 0.01123 0.41499 0.0
C380 C 0.41245 0.05407 0.46584 0.0
C381 C 0.46557 0.06094 0.42221 0.0
C382 C 0.48927 0.07274 0.48018 0.0
C383 C 0.52176 0.086 0.45891 0.0
C384 C 0.5301 0.08407 0.37922 0.0
C385 C 0.50602 0.06981 0.32201 0.0
C386 C 0.47405 0.06097 0.34154 0.0
H387 H 0.59516 0.83181 0.69929 0.0
H388 H 0.51122 0.7499 0.76293 0.0
H389 H 0.54363 0.74052 0.85989 0.0
H390 H 0.65135 0.81053 0.70341 0.0
H391 H 0.68267 0.84243 0.74936 0.0
H392 H 0.65314 0.84442 0.68841 0.0
H393 H 0.63468 0.86498 0.80704 0.0
H394 H 0.66764 0.86686 0.86166 0.0
H395 H 0.62787 0.84823 0.90504 0.0
H396 H 0.58558 0.73956 0.94459 0.0
H397 H 0.62754 0.75367 1.04413 0.0
H398 H 0.68549 0.83482 0.91663 0.0
C399 C 0.58295 0.8123 0.73543 0.0
C400 C 0.55056 0.79141 0.7226 0.0
C401 C 0.53605 0.76612 0.77127 0.0
C402 C 0.5544 0.76038 0.82523 0.0
C403 C 0.58698 0.7803 0.83006 0.0
C404 C 0.60077 0.80621 0.78896 0.0
C405 C 0.63576 0.82486 0.80825 0.0
C406 C 0.65699 0.83093 0.73284 0.0
C407 C 0.64188 0.85288 0.84786 0.0
C408 C 0.63963 0.80546 0.86761 0.0
C409 C 0.61131 0.77963 0.87821 0.0
C410 C 0.60783 0.75969 0.93692 0.0
C411 C 0.63235 0.76787 0.99276 0.0
C412 C 0.65945 0.7961 0.99028 0.0
C413 C 0.6648 0.8134 0.92099 0.0
H414 H 0.21432 0.81877 0.75561 0.0
H415 H 0.17655 0.72808 0.8052 0.0
H416 H 0.14907 0.73164 0.92642 0.0
H417 H 0.21454 0.84344 0.9739 0.0
H418 H 0.20231 0.8676 0.93448 0.0
H419 H 0.22854 0.86001 0.87576 0.0
H420 H 0.18792 0.84584 0.75896 0.0
H421 H 0.16017 0.85044 0.82009 0.0
H422 H 0.14765 0.81633 0.77385 0.0
H423 H 0.1139 0.74139 1.01321 0.0
H424 H 0.08567 0.76 0.09083 0.0
H425 H 0.14116 0.84297 0.96873 0.0
C426 C 0.2022 0.79996 0.79446 0.0
C427 C 0.19669 0.77284 0.76945 0.0
C428 C 0.18061 0.74894 0.82266 0.0
C429 C 0.16458 0.75072 0.89101 0.0
C430 C 0.16586 0.77671 0.90541 0.0
C431 C 0.18529 0.80126 0.86055 0.0
C432 C 0.17858 0.82518 0.87897 0.0
C433 C 0.20773 0.85055 0.91813 0.0
C434 C 0.16796 0.83498 0.80347 0.0
C435 C 0.15131 0.80979 0.93846 0.0
C436 C 0.14457 0.78204 0.95336 0.0
C437 C 0.11958 0.76336 1.00384 0.0
C438 C 0.10304 0.77416 1.04627 0.0
C439 C 0.11152 0.8035 1.0377 0.0
C440 C 0.13452 0.82077 0.97857 0.0
H441 H 0.10176 0.31694 0.89388 0.0
H442 H 0.16614 0.2921 0.78847 0.0
H443 H 0.13924 0.24681 0.86365 0.0
H444 H 0.1037 0.30202 0.07292 0.0
H445 H 0.0622 0.28595 0.10314 0.0
H446 H 0.07668 0.30941 1.01759 0.0
H447 H 0.03287 0.27016 0.93363 0.0
H448 H 0.01868 0.24479 1.01672 0.0
H449 H 0.03008 0.23572 0.92265 0.0
H450 H 0.12307 0.21701 0.97931 0.0
H451 H 0.1278 0.2153 0.12576 0.0
H452 H 0.06409 0.24822 0.15817 0.0
C453 C 0.10933 0.30142 0.88485 0.0
C454 C 0.13644 0.3084 0.83676 0.0
C455 C 0.14602 0.28778 0.82687 0.0
C456 C 0.13021 0.26147 0.86776 0.0
C457 C 0.10439 0.2556 0.91789 0.0
C458 C 0.09359 0.27488 0.9256 0.0
C459 C 0.07035 0.26658 0.99564 0.0
C460 C 0.07885 0.29248 1.05058 0.0
C461 C 0.03595 0.25348 0.96523 0.0
C462 C 0.07522 0.24366 1.03565 0.0
C463 C 0.09289 0.23591 0.9862 0.0
C464 C 0.10845 0.22207 1.01754 0.0
C465 C 0.11081 0.22074 0.10123 0.0
C466 C 0.09672 0.23233 0.1511 0.0
C467 C 0.07466 0.23924 0.11889 0.0
H468 H 0.3477 0.19237 0.41499 0.0
H469 H 0.26956 0.106 0.46522 0.0
H470 H 0.26121 0.09754 0.31972 0.0
H471 H 0.31108 0.2055 0.23515 0.0
H472 H 0.34783 0.22495 0.17777 0.0
H473 H 0.34866 0.22519 0.28656 0.0
H474 H 0.38824 0.20651 0.28438 0.0
H475 H 0.38753 0.20624 0.17558 0.0
H476 H 0.37791 0.17398 0.23141 0.0
H477 H 0.25989 0.09707 0.16251 0.0
H478 H 0.26607 0.10461 1.01545 0.0
H479 H 0.34503 0.19113 1.05067 0.0
C480 C 0.32879 0.17158 0.39591 0.0
C481 C 0.30937 0.1499 0.45667 0.0
C482 C 0.28513 0.12334 0.42438 0.0
C483 C 0.28006 0.11819 0.33994 0.0
C484 C 0.2992 0.13959 0.28294 0.0
C485 C 0.32324 0.1659 0.3095 0.0
C486 C 0.34017 0.18497 0.23336 0.0
C487 C 0.33675 0.21176 0.23322 0.0
C488 C 0.37558 0.19345 0.23106 0.0
C489 C 0.32207 0.16541 0.1607 0.0
C490 C 0.29847 0.13929 0.19187 0.0
C491 C 0.27843 0.11757 0.13864 0.0
C492 C 0.28221 0.12218 0.05331 0.0
C493 C 0.30602 0.14848 1.01646 0.0
C494 C 0.32633 0.17051 0.07339 0.0
H495 H 0.80499 0.11689 0.41713 0.0
H496 H 0.81825 0.20175 0.45242 0.0
H497 H 0.81927 0.20867 0.3053 0.0
H498 H 0.85671 0.13593 0.23365 0.0
H499 H 0.83174 0.10273 0.18235 0.0
H500 H 0.8318 0.10349 0.29113 0.0
H501 H 0.77068 0.0819 0.29298 0.0
H502 H 0.77043 0.08107 0.1842 0.0
H503 H 0.75349 0.09947 0.23676 0.0
H504 H 0.81902 0.20763 0.14822 0.0
H505 H 0.81761 0.19894 1.00281 0.0
H506 H 0.80456 0.11457 0.05274 0.0
C507 C 0.80813 0.13702 0.3944 0.0
C508 C 0.81154 0.15879 0.45132 0.0
C509 C 0.81553 0.18444 0.41452 0.0
C510 C 0.81616 0.18867 0.32917 0.0
C511 C 0.8128 0.16721 0.27595 0.0
C512 C 0.80884 0.14174 0.30709 0.0
C513 C 0.80582 0.12237 0.2344 0.0
C514 C 0.83313 0.11572 0.23547 0.0
C515 C 0.77316 0.09453 0.23728 0.0
C516 C 0.80865 0.14078 0.15828 0.0
C517 C 0.81267 0.16661 0.1849 0.0
C518 C 0.81586 0.18736 0.12796 0.0
C519 C 0.81499 0.18206 1.04355 0.0
C520 C 0.81093 0.15599 1.01113 0.0
C521 C 0.80772 0.13496 0.07184 0.0
H522 H 0.83043 0.63729 0.44604 0.0
H523 H 0.80665 0.70355 0.48939 0.0
H524 H 0.805 0.71044 0.34318 0.0
H525 H 0.88106 0.67194 0.26365 0.0
H526 H 0.86775 0.63912 0.20924 0.0
H527 H 0.86727 0.63858 0.3181 0.0
H528 H 0.80728 0.60043 0.31863 0.0
H529 H 0.80759 0.60086 0.20978 0.0
H530 H 0.77976 0.60753 0.2645 0.0
H531 H 0.8058 0.71144 0.18588 0.0
H532 H 0.80848 0.70602 1.03939 0.0
H533 H 0.83142 0.63901 0.08155 0.0
C534 C 0.82482 0.6533 0.4253 0.0
C535 C 0.81866 0.66982 0.48435 0.0
C536 C 0.81155 0.69031 0.44992 0.0
C537 C 0.81053 0.6945 0.36506 0.0
C538 C 0.81662 0.67822 0.30975 0.0
C539 C 0.82363 0.65788 0.33842 0.0
C540 C 0.82912 0.6434 0.26377 0.0
C541 C 0.86333 0.64855 0.26371 0.0
C542 C 0.80448 0.61113 0.26421 0.0
C543 C 0.82412 0.65865 0.18954 0.0
C544 C 0.81696 0.67872 0.21863 0.0
C545 C 0.8114 0.69567 0.16365 0.0
C546 C 0.81303 0.69235 0.07866 0.0
C547 C 0.82019 0.67209 1.0439 0.0
C548 C 0.82583 0.65491 0.10261 0.0
H549 H 0.11198 0.36223 0.27473 0.0
H550 H 0.16629 0.41749 0.47221 0.0
H551 H 0.16161 0.45685 0.41265 0.0
H552 H 0.14408 0.41888 0.11865 0.0
H553 H 0.10656 0.40489 0.06706 0.0
H554 H 0.11561 0.38088 0.12177 0.0
H555 H 0.06334 0.36179 0.20571 0.0
H556 H 0.05401 0.38557 0.15094 0.0
H557 H 0.0559 0.38678 0.25951 0.0
H558 H 0.1457 0.4887 0.34333 0.0
H559 H 0.12357 0.51232 0.25823 0.0
H560 H 0.08115 0.43862 0.10189 0.0
C561 C 0.1227 0.38258 0.30546 0.0
C562 C 0.13917 0.38651 0.37881 0.0
C563 C 0.15305 0.4136 0.4168 0.0
C564 C 0.15049 0.43623 0.38355 0.0
C565 C 0.13353 0.43156 0.31265 0.0
C566 C 0.12 0.40555 0.27348 0.0
C567 C 0.10268 0.40643 0.19836 0.0
C568 C 0.11817 0.40254 0.12193 0.0
C569 C 0.06686 0.3838 0.20401 0.0
C570 C 0.10815 0.43673 0.20274 0.0
C571 C 0.12604 0.4508 0.26935 0.0
C572 C 0.1323 0.47818 0.28994 0.0
C573 C 0.1198 0.4915 0.24136 0.0
C574 C 0.10175 0.47762 0.17256 0.0
C575 C 0.09598 0.45 0.15271 0.0
H576 H 0.547 0.61241 0.10635 0.0
H577 H 0.46788 0.56416 0.27277 0.0
H578 H 0.47525 0.6096 0.32827 0.0
H579 H 0.59642 0.67148 0.24254 0.0
H580 H 0.61046 0.69808 0.1625 0.0
H581 H 0.59995 0.66172 0.14085 0.0
H582 H 0.56051 0.6596 1.0323 0.0
H583 H 0.57046 0.69573 0.05502 0.0
H584 H 0.52939 0.667 0.06042 0.0
H585 H 0.48918 0.66019 0.35845 0.0
H586 H 0.51239 0.71247 0.37297 0.0
H587 H 0.58265 0.72764 0.18593 0.0
C588 C 0.53189 0.61161 0.15595 0.0
C589 C 0.50762 0.58513 0.18776 0.0
C590 C 0.4874 0.58446 0.25048 0.0
C591 C 0.49114 0.61009 0.28129 0.0
C592 C 0.51506 0.636 0.24791 0.0
C593 C 0.53538 0.63697 0.18736 0.0
C594 C 0.55887 0.66757 0.16123 0.0
C595 C 0.59347 0.67516 0.17782 0.0
C596 C 0.55452 0.67276 0.07195 0.0
C597 C 0.5485 0.68367 0.21627 0.0
C598 C 0.52304 0.66508 0.26528 0.0
C599 C 0.50923 0.67497 0.32074 0.0
C600 C 0.52245 0.70471 0.32812 0.0
C601 C 0.54934 0.72414 0.28064 0.0
C602 C 0.56206 0.71335 0.22301 0.0
H603 H 0.34911 0.91812 1.0174 0.0
H604 H 0.41107 0.94293 0.22557 0.0
H605 H 0.36451 0.91239 0.31323 0.0
H606 H 0.28351 0.91894 0.1198 0.0
H607 H 0.25275 0.88848 0.06725 0.0
H608 H 0.29099 0.91122 1.01904 0.0
H609 H 0.29709 0.86709 0.99499 0.0
H610 H 0.25933 0.84383 1.04481 0.0
H611 H 0.29506 0.84489 0.07943 0.0
H612 H 0.31258 0.87814 0.37738 0.0
H613 H 0.25652 0.84648 0.41912 0.0
H614 H 0.22613 0.84623 0.17299 0.0
C615 C 0.35278 0.91701 0.08143 0.0
C616 C 0.38372 0.93271 0.11476 0.0
C617 C 0.3876 0.9311 0.19886 0.0
C618 C 0.36134 0.91371 0.24906 0.0
C619 C 0.33124 0.8984 0.21447 0.0
C620 C 0.32662 0.90018 0.13294 0.0
C621 C 0.29135 0.88238 0.11245 0.0
C622 C 0.27892 0.9014 0.07759 0.0
C623 C 0.28537 0.85812 0.05446 0.0
C624 C 0.27699 0.87051 0.19539 0.0
C625 C 0.30064 0.87965 0.25277 0.0
C626 C 0.29379 0.87099 0.33323 0.0
C627 C 0.26184 0.85285 0.35621 0.0
C628 C 0.23695 0.84393 0.29939 0.0
C629 C 0.24467 0.85285 0.21775 0.0
H630 H 0.40058 0.01562 0.82982 0.0
H631 H 0.47964 0.07844 0.97176 0.0
H632 H 0.46866 0.11613 0.92479 0.0
H633 H 0.40985 0.06373 0.66047 0.0
H634 H 0.36736 0.04822 0.64786 0.0
H635 H 0.38309 0.02646 0.68579 0.0
H636 H 0.34672 0.01295 0.81289 0.0
H637 H 0.33041 0.03419 0.77516 0.0
H638 H 0.34807 0.04105 0.87381 0.0
H639 H 0.44844 0.14669 0.866 0.0
H640 H 0.41587 0.16671 0.81486 0.0
H641 H 0.34782 0.08357 0.71796 0.0
C642 C 0.41574 0.03737 0.85035 0.0
C643 C 0.44102 0.04416 0.90418 0.0
C644 C 0.46006 0.07276 0.93073 0.0
C645 C 0.45421 0.09436 0.90379 0.0
C646 C 0.42912 0.08699 0.85071 0.0
C647 C 0.4099 0.05913 0.82506 0.0
C648 C 0.38283 0.05648 0.77351 0.0
C649 C 0.38598 0.04824 0.68677 0.0
C650 C 0.35008 0.0349 0.81113 0.0
C651 C 0.38917 0.087 0.77674 0.0
C652 C 0.41655 0.10442 0.8195 0.0
C653 C 0.42701 0.13332 0.83214 0.0
C654 C 0.40844 0.14454 0.80256 0.0
C655 C 0.37936 0.12669 0.76255 0.0
C656 C 0.37002 0.09772 0.74813 0.0
H657 H 0.85851 0.30824 0.8813 0.0
H658 H 0.89522 0.31593 0.63794 0.0
H659 H 0.93892 0.36524 0.66633 0.0
H660 H 0.88378 0.38683 0.90836 0.0
H661 H 0.89356 0.38512 1.01226 0.0
H662 H 0.86141 0.35388 0.96575 0.0
H663 H 0.88863 0.32492 1.00685 0.0
H664 H 0.92148 0.3562 1.05053 0.0
H665 H 0.92898 0.33706 0.97295 0.0
H666 H -0.0161 0.40905 0.72982 0.0
H667 H 0.02271 0.44756 0.81709 0.0
H668 H 0.95677 0.41009 1.02046 0.0
C669 C 0.87482 0.32097 0.83289 0.0
C670 C 0.87345 0.30871 0.75721 0.0
C671 C 0.8956 0.32537 0.69562 0.0
C672 C 0.92063 0.35322 0.7116 0.0
C673 C 0.92272 0.36392 0.78903 0.0
C674 C 0.89991 0.34858 0.84809 0.0
C675 C 0.90928 0.36338 0.92867 0.0
C676 C 0.88561 0.37288 0.9553 0.0
C677 C 0.91227 0.34424 0.9935 0.0
C678 C 0.94153 0.38885 0.90666 0.0
C679 C 0.94881 0.38894 0.82584 0.0
C680 C 0.97816 0.40952 0.79279 0.0
C681 C 0.00019 0.4311 0.84314 0.0
C682 C -0.00724 0.43182 0.92569 0.0
C683 C 0.96317 0.41016 0.95769 0.0
H684 H 0.70792 0.63471 0.77426 0.0
H685 H 0.73066 0.56716 0.80961 0.0
H686 H 0.67527 0.53434 0.85646 0.0
H687 H 0.66333 0.62181 0.94593 0.0
H688 H 0.63367 0.62889 0.9042 0.0
H689 H 0.67315 0.64573 0.86011 0.0
H690 H 0.64942 0.6248 0.72079 0.0
H691 H 0.60968 0.60815 0.76403 0.0
H692 H 0.62269 0.58668 0.71136 0.0
H693 H 0.62168 0.5121 0.9205 0.0
H694 H 0.57075 0.49976 0.98763 0.0
H695 H 0.58113 0.5808 0.90696 0.0
C696 C 0.70102 0.61276 0.78968 0.0
C697 C 0.72358 0.60344 0.78833 0.0
C698 C 0.71373 0.57468 0.80972 0.0
C699 C 0.68233 0.55591 0.83641 0.0
C700 C 0.66106 0.56614 0.84004 0.0
C701 C 0.66976 0.59373 0.81595 0.0
C702 C 0.64307 0.60007 0.83181 0.0
C703 C 0.65397 0.62563 0.88891 0.0
C704 C 0.63047 0.60522 0.75225 0.0
C705 C 0.61852 0.57215 0.87208 0.0
C706 C 0.62941 0.55286 0.87558 0.0
C707 C 0.61255 0.5267 0.91652 0.0
C708 C 0.58383 0.52003 0.95504 0.0
C709 C 0.57212 0.53934 0.95197 0.0
C710 C 0.5894 0.56552 0.90886 0.0
H711 H 0.93759 0.61187 0.77071 0.0
H712 H 0.8453 0.53346 0.78353 0.0
H713 H 0.87197 0.50607 0.81814 0.0
H714 H -0.0151 0.57782 0.69473 0.0
H715 H 0.01875 0.60148 0.75512 0.0
H716 H -0.00681 0.61373 0.71448 0.0
H717 H -0.0158 0.62683 0.85835 0.0
H718 H 0.00921 0.61426 0.89969 0.0
H719 H 0.96878 0.59957 0.93673 0.0
H720 H 0.90639 0.4896 0.87912 0.0
H721 H 0.94737 0.48378 0.95035 0.0
H722 H 0.01835 0.57226 0.89409 0.0
C723 C 0.92317 0.58877 0.77834 0.0
C724 C 0.88946 0.57465 0.77443 0.0
C725 C 0.87118 0.54452 0.78522 0.0
C726 C 0.88613 0.52886 0.80506 0.0
C727 C 0.91933 0.54364 0.81228 0.0
C728 C 0.93774 0.57285 0.79765 0.0
C729 C 0.97256 0.58406 0.8175 0.0
C730 C -0.00641 0.59491 0.74088 0.0
C731 C -0.01565 0.60755 0.88189 0.0
C732 C 0.97051 0.5569 0.85026 0.0
C733 C 0.93961 0.5338 0.84581 0.0
C734 C 0.93082 0.50726 0.88082 0.0
C735 C 0.95413 0.50424 0.92172 0.0
C736 C -0.01416 0.52756 0.92673 0.0
C737 C -0.00565 0.55403 0.88925 0.0
H738 H 0.46534 0.41012 1.02914 0.0
H739 H 0.45558 0.45437 0.82074 0.0
H740 H 0.44817 0.41469 0.73379 0.0
H741 H 0.50639 0.37744 0.92543 0.0
H742 H 0.4848 0.34436 0.98263 0.0
H743 H 0.49318 0.37778 1.02713 0.0
H744 H 0.43271 0.35693 0.05718 0.0
H745 H 0.42435 0.32341 1.01428 0.0
H746 H 0.40459 0.34175 0.97603 0.0
H747 H 0.43762 0.36864 0.67142 0.0
H748 H 0.41785 0.31741 0.64296 0.0
H749 H 0.43447 0.30353 0.8914 0.0
C750 C 0.46202 0.41161 0.96508 0.0
C751 C 0.46116 0.43533 0.93171 0.0
C752 C 0.45628 0.43633 0.84773 0.0
C753 C 0.4524 0.41406 0.79763 0.0
C754 C 0.45356 0.39101 0.83239 0.0
C755 C 0.45793 0.38952 0.91434 0.0
C756 C 0.45491 0.36116 0.93813 0.0
C757 C 0.48672 0.36546 0.97021 0.0
C758 C 0.42751 0.34486 0.99999 0.0
C759 C 0.44709 0.34654 0.85727 0.0
C760 C 0.44717 0.36432 0.79656 0.0
C761 C 0.43802 0.35465 0.71805 0.0
C762 C 0.42709 0.32566 0.70217 0.0
C763 C 0.42509 0.3069 0.76492 0.0
C764 C 0.43641 0.31774 0.8423 0.0
H765 H 0.70639 0.1383 0.84536 0.0
H766 H 0.7083 0.10089 0.61705 0.0
H767 H 0.64939 0.07008 0.62241 0.0
H768 H 0.65207 0.07476 0.93612 0.0
H769 H 0.6313 0.08842 0.99474 0.0
H770 H 0.67234 0.11192 0.96515 0.0
H771 H 0.65724 0.14674 0.89646 0.0
H772 H 0.61608 0.12344 0.92672 0.0
H773 H 0.62619 0.13331 0.82193 0.0
H774 H 0.5913 0.0392 0.66066 0.0
H775 H 0.53919 0.00985 0.73104 0.0
H776 H 0.57586 0.06574 0.93777 0.0
C777 C 0.6941 0.12453 0.79504 0.0
C778 C 0.71145 0.12245 0.72958 0.0
C779 C 0.69506 0.10314 0.66659 0.0
C780 C 0.66168 0.08559 0.6692 0.0
C781 C 0.64513 0.0874 0.73578 0.0
C782 C 0.66077 0.10644 0.79757 0.0
C783 C 0.63807 0.10151 0.86711 0.0
C784 C 0.64911 0.09368 0.94535 0.0
C785 C 0.63416 0.12782 0.87871 0.0
C786 C 0.60762 0.0762 0.83599 0.0
C787 C 0.61194 0.06872 0.7595 0.0
C788 C 0.58753 0.04507 0.72024 0.0
C789 C 0.55805 0.02847 0.76068 0.0
C790 C 0.55351 0.03538 0.83998 0.0
C791 C 0.57855 0.05984 0.87719 0.0
H792 H 0.50196 0.93193 0.16113 0.0
H793 H 0.50132 0.91402 0.90639 0.0
H794 H 0.52306 0.88221 0.93707 0.0
H795 H 0.5738 0.93262 0.21235 0.0
H796 H 0.55883 0.91481 0.30863 0.0
H797 H 0.54365 0.93635 0.26609 0.0
H798 H 0.48586 0.89294 0.27677 0.0
H799 H 0.50087 0.87126 0.31939 0.0
H800 H 0.47651 0.85952 0.23046 0.0
H801 H 0.54845 0.85476 0.99597 0.0
H802 H 0.57022 0.83032 0.07967 0.0
H803 H 0.54947 0.86305 0.29567 0.0
C804 C 0.50641 0.92131 0.11188 0.0
C805 C 0.50019 0.92554 1.03138 0.0
C806 C 0.5059 0.91099 0.96856 0.0
C807 C 0.51833 0.89297 0.98536 0.0
C808 C 0.52433 0.88931 0.06544 0.0
C809 C 0.5181 0.90275 0.12775 0.0
C810 C 0.52571 0.8946 0.20875 0.0
C811 C 0.55206 0.92118 0.25144 0.0
C812 C 0.49543 0.87863 0.26196 0.0
C813 C 0.53759 0.87479 0.18231 0.0
C814 C 0.537 0.87223 0.09939 0.0
C815 C 0.54855 0.85627 0.06105 0.0
C816 C 0.5609 0.84251 0.10888 0.0
C817 C 0.56098 0.84441 0.194 0.0
C818 C 0.54904 0.86069 0.23077 0.0
H819 H 0.10224 0.69464 0.38236 0.0
H820 H 0.1392 0.747 0.16485 0.0
H821 H 0.13421 0.70523 0.09151 0.0
H822 H 0.13794 0.65121 0.35642 0.0
H823 H 0.10353 0.61832 0.3916 0.0
H824 H 0.1105 0.65233 0.42826 0.0
H825 H 0.0542 0.64043 0.38166 0.0
H826 H 0.04687 0.60621 0.34604 0.0
H827 H 0.04286 0.63052 0.27836 0.0
H828 H 0.1292 0.65915 1.04554 0.0
H829 H 0.11466 0.60919 1.01988 0.0
H830 H 0.07528 0.58463 0.26279 0.0
C831 C 0.10909 0.69715 0.31916 0.0
C832 C 0.12126 0.72397 0.27902 0.0
C833 C 0.12967 0.72655 0.19625 0.0
C834 C 0.12718 0.70304 0.15446 0.0
C835 C 0.11561 0.67699 0.19606 0.0
C836 C 0.10587 0.67365 0.27591 0.0
C837 C 0.09247 0.64283 0.30479 0.0
C838 C 0.1123 0.64109 0.3744 0.0
C839 C 0.05699 0.62919 0.32912 0.0
C840 C 0.09658 0.62946 0.22895 0.0
C841 C 0.1106 0.64976 0.16765 0.0
C842 C 0.1179 0.64299 0.09272 0.0
C843 C 0.10978 0.61455 0.07907 0.0
C844 C 0.09386 0.59298 0.13938 0.0
C845 C 0.08746 0.60065 0.21564 0.0
H846 H 0.36512 0.43718 0.10941 0.0
H847 H 0.4167 0.50305 0.28602 0.0
H848 H 0.36958 0.48052 0.37759 0.0
H849 H 0.28437 0.42618 0.15079 0.0
H850 H 0.26516 0.38785 0.13903 0.0
H851 H 0.3014 0.41128 0.08341 0.0
H852 H 0.32772 0.38365 0.14257 0.0
H853 H 0.29175 0.36041 0.19921 0.0
H854 H 0.32933 0.38024 0.25052 0.0
H855 H 0.31767 0.45011 0.45103 0.0
H856 H 0.26625 0.41208 0.50713 0.0
H857 H 0.2486 0.3641 0.28575 0.0
C858 C 0.36592 0.4472 0.16636 0.0
C859 C 0.39396 0.47216 0.19044 0.0
C860 C 0.39502 0.48418 0.26656 0.0
C861 C 0.36845 0.47152 0.31879 0.0
C862 C 0.34121 0.44658 0.29423 0.0
C863 C 0.33972 0.43445 0.22 0.0
C864 C 0.30857 0.40624 0.21154 0.0
C865 C 0.2887 0.40801 0.14207 0.0
C866 C 0.31473 0.38116 0.20032 0.0
C867 C 0.29299 0.40432 0.29278 0.0
C868 C 0.31209 0.42799 0.33902 0.0
C869 C 0.30284 0.43119 0.4161 0.0
C870 C 0.2735 0.40945 0.44737 0.0
C871 C 0.25348 0.38491 0.40129 0.0
C872 C 0.26346 0.38244 0.32285 0.0
H873 H 0.70105 0.72319 0.75297 0.0
H874 H 0.79301 0.80105 0.72365 0.0
H875 H 0.76631 0.82588 0.66726 0.0
H876 H 0.67161 0.724 0.57865 0.0
H877 H 0.63067 0.71184 0.6069 0.0
H878 H 0.65443 0.70259 0.66906 0.0
H879 H 0.64337 0.72521 0.79277 0.0
H880 H 0.61919 0.73468 0.73199 0.0
H881 H 0.65241 0.76192 0.78739 0.0
H882 H 0.73326 0.83746 0.58131 0.0
H883 H 0.69484 0.83711 0.48397 0.0
H884 H 0.62284 0.75231 0.56876 0.0
C885 C 0.71528 0.74586 0.73811 0.0
C886 C 0.74901 0.76032 0.74261 0.0
C887 C 0.76713 0.78979 0.72178 0.0
C888 C 0.75212 0.80401 0.68952 0.0
C889 C 0.719 0.78856 0.68024 0.0
C890 C 0.70058 0.76032 0.7061 0.0
C891 C 0.66616 0.74744 0.67924 0.0
C892 C 0.65511 0.71986 0.63056 0.0
C893 C 0.64395 0.74197 0.75217 0.0
C894 C 0.66894 0.77172 0.62679 0.0
C895 C 0.69942 0.79552 0.6303 0.0
C896 C 0.7091 0.81934 0.57993 0.0
C897 C 0.68728 0.81878 0.52418 0.0
C898 C 0.65612 0.79462 0.51923 0.0
C899 C 0.64648 0.7711 0.57249 0.0
H900 H 0.23993 0.98957 0.74636 0.0
H901 H 0.15738 -0.00226 0.69364 0.0
H902 H 0.12885 0.94798 0.64413 0.0
H903 H 0.24079 0.95729 0.58009 0.0
H904 H 0.25164 0.93234 0.62102 0.0
H905 H 0.26257 0.965 0.67315 0.0
H906 H 0.2334 0.93632 0.80286 0.0
H907 H 0.22305 0.90341 0.75189 0.0
H908 H 0.19219 0.90802 0.79806 0.0
H909 H 0.11569 0.9043 0.5691 0.0
H910 H 0.11492 0.86556 0.48991 0.0
H911 H 0.20468 0.8834 0.59579 0.0
C912 C 0.21527 0.98026 0.72794 0.0
C913 C 0.20061 -0.00283 0.72408 0.0
C914 C 0.16867 0.98484 0.6982 0.0
C915 C 0.1524 0.95666 0.66978 0.0
C916 C 0.16824 0.94107 0.66961 0.0
C917 C 0.19863 0.95205 0.70033 0.0
C918 C 0.21169 0.93219 0.68461 0.0
C919 C 0.24353 0.94764 0.63686 0.0
C920 C 0.21528 0.91921 0.76408 0.0
C921 C 0.18503 0.90957 0.63441 0.0
C922 C 0.16002 0.91493 0.62759 0.0
C923 C 0.13458 0.89932 0.57605 0.0
C924 C 0.13459 0.87766 0.53051 0.0
C925 C 0.15978 0.87167 0.53704 0.0
C926 C 0.18498 0.8874 0.59084 0.0
H927 H 0.92316 0.229 0.73486 0.0
H928 H 0.9062 0.14392 0.68007 0.0
H929 H 0.96266 0.16508 0.63731 0.0
H930 H 0.97328 0.26542 0.57122 0.0
H931 H 0.0001 0.29747 0.62511 0.0
H932 H 0.95922 0.27561 0.65875 0.0
H933 H 0.97843 0.27093 0.80017 0.0
H934 H 0.01963 0.29251 0.76778 0.0
H935 H 0.00518 0.25705 0.8097 0.0
H936 H 0.01823 0.19569 0.5832 0.0
H937 H 0.07157 0.23349 0.53517 0.0
H938 H 0.05439 0.29878 0.63344 0.0
C939 C 0.93147 0.21475 0.71538 0.0
C940 C 0.91023 0.18477 0.71077 0.0
C941 C 0.92203 0.16689 0.68462 0.0
C942 C 0.95404 0.17873 0.65994 0.0
C943 C 0.97407 0.20843 0.663 0.0
C944 C 0.96345 0.22618 0.6914 0.0
C945 C -0.01027 0.25747 0.68644 0.0
C946 C 0.97999 0.27501 0.63214 0.0
C947 C -0.00121 0.27029 0.77109 0.0
C948 C 0.01648 0.2546 0.64826 0.0
C949 C 0.00683 0.22609 0.63508 0.0
C950 C 0.02629 0.21803 0.59469 0.0
C951 C 0.05642 0.23963 0.5672 0.0
C952 C 0.06703 0.26892 0.5812 0.0
C953 C 0.04696 0.27648 0.62318 0.0
H954 H 0.27719 0.21131 0.6188 0.0
H955 H 0.20822 0.1561 0.8005 0.0
H956 H 0.17826 0.18201 0.78176 0.0
H957 H 0.28012 0.27587 0.66701 0.0
H958 H 0.28275 0.28777 0.56379 0.0
H959 H 0.29783 0.26444 0.59071 0.0
H960 H 0.26155 0.22771 0.48416 0.0
H961 H 0.24665 0.25111 0.45609 0.0
H962 H 0.21913 0.2145 0.48656 0.0
H963 H 0.15832 0.21702 0.74741 0.0
H964 H 0.14671 0.25344 0.68996 0.0
H965 H 0.22776 0.28333 0.52679 0.0
C966 C 0.25562 0.20453 0.65428 0.0
C967 C 0.245 0.18189 0.71146 0.0
C968 C 0.21655 0.17334 0.75616 0.0
C969 C 0.19959 0.18805 0.74615 0.0
C970 C 0.21116 0.21076 0.69009 0.0
C971 C 0.2382 0.21847 0.64378 0.0
C972 C 0.24551 0.24302 0.58621 0.0
C973 C 0.27851 0.26933 0.60299 0.0
C974 C 0.24305 0.23351 0.49805 0.0
C975 C 0.21881 0.24856 0.60831 0.0
C976 C 0.19929 0.22993 0.66874 0.0
C977 C 0.17345 0.23159 0.70004 0.0
C978 C 0.16727 0.25254 0.66801 0.0
C979 C 0.1868 0.27141 0.60551 0.0
C980 C 0.21269 0.26923 0.57512 0.0
H981 H 0.63749 0.8913 0.53618 0.0
H982 H 0.70804 0.89445 0.36698 0.0
H983 H 0.7512 0.93207 0.44738 0.0
H984 H 0.6754 0.96612 0.56275 0.0
H985 H 0.6642 0.96321 0.66784 0.0
H986 H 0.63983 0.93468 0.60041 0.0
H987 H 0.64551 0.89906 0.69494 0.0
H988 H 0.671 0.92776 0.76138 0.0
H989 H 0.68475 0.90521 0.71878 0.0
H990 H 0.78637 0.97107 0.54026 0.0
H991 H 0.80965 0.01499 0.62215 0.0
H992 H 0.71674 0.98684 0.73038 0.0
C993 C 0.66202 0.89996 0.51601 0.0
C994 C 0.6694 0.89001 0.4454 0.0
C995 C 0.70178 0.90194 0.42063 0.0
C996 C 0.72652 0.92297 0.4666 0.0
C997 C 0.71849 0.93184 0.53702 0.0
C998 C 0.68701 0.92117 0.56066 0.0
C999 C 0.68463 0.93653 0.63371 0.0
C1000 C 0.66488 0.95101 0.61501 0.0
C1001 C 0.67066 0.91591 0.70655 0.0
C1002 C 0.71963 0.95831 0.64551 0.0
C1003 C 0.73888 0.95465 0.59069 0.0
C1004 C 0.77171 0.9739 0.58452 0.0
C1005 C 0.78483 -0.00141 0.6318 0.0
C1006 C 0.76494 0.00375 0.68307 0.0
C1007 C 0.73242 0.98271 0.6932 0.0
H1008 H 0.93229 0.70116 0.7716 0.0
H1009 H 0.91045 0.7656 0.68655 0.0
H1010 H 0.96367 0.79209 0.6207 0.0
H1011 H 0.02182 0.75191 0.79769 0.0
H1012 H 0.03036 0.72482 0.76367 0.0
H1013 H -0.00622 0.71451 0.81858 0.0
H1014 H 0.96151 0.68107 0.70186 0.0
H1015 H -0.00228 0.69174 0.64551 0.0
H1016 H 0.96633 0.69586 0.60128 0.0
H1017 H 0.01265 0.80532 0.54151 0.0
H1018 H 0.05863 0.80893 0.46744 0.0
H1019 H 0.05067 0.73683 0.60575 0.0
C1020 C 0.9392 0.72146 0.74181 0.0
C1021 C 0.91728 0.73141 0.7342 0.0
C1022 C 0.92697 0.7578 0.69391 0.0
C1023 C 0.95711 0.7729 0.65604 0.0
C1024 C 0.97735 0.76154 0.66052 0.0
C1025 C 0.9692 0.73681 0.70414 0.0
C1026 C -0.00601 0.72773 0.6932 0.0
C1027 C 0.011 0.72988 0.77304 0.0
C1028 C 0.97898 0.69731 0.65838 0.0
C1029 C 0.01642 0.75028 0.63277 0.0
C1030 C 0.0064 0.76965 0.61547 0.0
C1031 C 0.02118 0.79076 0.55598 0.0
C1032 C 0.04703 0.79235 0.51352 0.0
C1033 C 0.0581 0.77306 0.53077 0.0
C1034 C 0.04284 0.75197 0.59198 0.0
loop_
_geom_bond_atom_site_label_1
_geom_bond_atom_site_label_2
_geom_bond_distance
_geom_bond_site_symmetry_2
_ccdc_geom_bond_type
C0 O16 1.251 1_554 S
C0 O18 1.254 . S
N1 C2 1.333 . S
N1 C6 1.307 . S
N1 Zn7 2.020 . S
C2 N1 1.333 . S
C2 C3 1.379 . S
C2 H20 0.952 . S
C3 C2 1.379 . S
C3 C4 1.390 . S
C3 H30 0.949 . S
C4 C3 1.390 . S
C4 C5 1.357 . S
C5 C4 1.357 . S
C5 C6 1.370 . S
C5 H31 0.950 . S
C6 N1 1.307 . S
C6 C5 1.370 . S
C6 H24 0.948 . S
Zn7 N1 2.020 . S
Zn7 O16 2.039 . S
Zn7 O22 2.034 . S
Zn7 O26 2.025 1_556 S
Zn7 O28 2.024 1_556 S
C8 O27 1.246 . S
C8 O28 1.249 . S
N9 C10 1.307 1_455 S
N9 C11 1.333 . S
N9 Zn15 2.020 . S
C10 N9 1.307 1_655 S
C10 C14 1.370 . S
C10 H21 0.948 . S
C11 N9 1.333 . S
C11 C12 1.379 . S
C11 H19 0.952 . S
C12 C11 1.379 . S
C12 C13 1.390 1_455 S
C12 H32 0.949 . S
C13 C12 1.390 1_655 S
C13 C14 1.357 . S
C14 C10 1.370 . S
C14 C13 1.357 . S
C14 H33 0.950 . S
Zn15 N9 2.020 . S
Zn15 O18 2.025 . S
Zn15 O23 2.027 . S
Zn15 O25 2.039 . S
Zn15 O27 2.034 . S
O16 C0 1.251 1_556 S
O16 Zn7 2.039 . S
C17 O22 1.246 1_554 S
C17 O23 1.252 . S
O18 C0 1.254 . S
O18 Zn15 2.025 . S
H19 C11 0.952 . S
H20 C2 0.952 . S
H21 C10 0.948 . S
O22 Zn7 2.034 . S
O22 C17 1.246 1_556 S
O23 Zn15 2.027 . S
O23 C17 1.252 . S
H24 C6 0.948 . S
O25 Zn15 2.039 . S
O25 C29 1.251 . S
O26 Zn7 2.025 1_554 S
O26 C29 1.254 . S
O27 C8 1.246 . S
O27 Zn15 2.034 . S
O28 Zn7 2.024 1_554 S
O28 C8 1.249 . S
C29 O25 1.251 . S
C29 O26 1.254 . S
H30 C3 0.949 . S
H31 C5 0.950 . S
H32 C12 0.949 . S
H33 C14 0.950 . S
C34 O50 1.251 . S
C34 O52 1.239 1_554 S
N35 C36 1.333 . S
N35 C40 1.307 . S
N35 Zn41 2.020 . S
C36 N35 1.333 . S
C36 C37 1.379 . S
C36 H54 0.952 . S
C37 C36 1.379 . S
C37 C38 1.390 . S
C37 H64 0.949 . S
C38 C37 1.390 . S
C38 C39 1.357 . S
C39 C38 1.357 . S
C39 C40 1.370 . S
C39 H65 0.950 . S
C40 N35 1.307 . S
C40 C39 1.370 . S
C40 H58 0.948 . S
Zn41 N35 2.020 . S
Zn41 O50 2.039 . S
Zn41 O56 2.034 . S
Zn41 O60 2.025 . S
Zn41 O62 2.024 . S
C42 O61 1.234 1_554 S
C42 O62 1.264 . S
N43 C44 1.307 . S
N43 C45 1.333 . S
N43 Zn49 2.020 . S
C44 N43 1.307 . S
C44 C48 1.370 . S
C44 H55 0.948 . S
C45 N43 1.333 . S
C45 C46 1.379 . S
C45 H53 0.952 . S
C46 C45 1.379 . S
C46 C47 1.390 . S
C46 H66 0.949 . S
C47 C46 1.390 . S
C47 C48 1.357 . S
C48 C44 1.370 . S
C48 C47 1.357 . S
C48 H67 0.950 . S
Zn49 N43 2.020 . S
Zn49 O52 2.032 . S
Zn49 O57 2.024 . S
Zn49 O59 2.039 . S
Zn49 O61 2.034 . S
O50 C34 1.251 . S
O50 Zn41 2.039 . S
C51 O56 1.246 . S
C51 O57 1.249 1_554 S
O52 C34 1.239 1_556 S
O52 Zn49 2.032 . S
H53 C45 0.952 . S
H54 C36 0.952 . S
H55 C44 0.948 . S
O56 Zn41 2.034 . S
O56 C51 1.246 . S
O57 Zn49 2.024 . S
O57 C51 1.249 1_556 S
H58 C40 0.948 . S
O59 Zn49 2.039 . S
O59 C63 1.251 . S
O60 Zn41 2.025 . S
O60 C63 1.254 1_554 S
O61 C42 1.234 1_556 S
O61 Zn49 2.034 . S
O62 Zn41 2.024 . S
O62 C42 1.264 . S
C63 O59 1.251 . S
C63 O60 1.254 1_556 S
H64 C37 0.949 . S
H65 C39 0.950 . S
H66 C46 0.949 . S
H67 C48 0.950 . S
C68 O84 1.251 . S
C68 O86 1.254 1_556 S
N69 C70 1.333 1_565 S
N69 C74 1.307 . S
N69 Zn75 2.012 1_565 S
C70 N69 1.333 1_545 S
C70 C71 1.379 . S
C70 H88 0.952 . S
C71 C70 1.379 . S
C71 C72 1.390 1_545 S
C71 H98 0.949 . S
C72 C71 1.390 1_565 S
C72 C73 1.357 . S
C73 C72 1.357 . S
C73 C74 1.370 . S
C73 H99 0.950 . S
C74 N69 1.307 . S
C74 C73 1.370 . S
C74 H92 0.948 . S
Zn75 N69 2.012 1_545 S
Zn75 O84 2.048 . S
Zn75 O90 2.069 . S
Zn75 O94 2.020 1_545 S
Zn75 O96 1.993 1_545 S
C76 O95 1.246 . S
C76 O96 1.249 1_554 S
N77 C78 1.307 . S
N77 C79 1.333 . S
N77 Zn83 2.020 . S
C78 N77 1.307 . S
C78 C82 1.370 . S
C78 H89 0.948 . S
C79 N77 1.333 . S
C79 C80 1.379 . S
C79 H87 0.952 1_545 S
C80 C79 1.379 . S
C80 C81 1.390 . S
C80 H100 0.949 . S
C81 C80 1.390 . S
C81 C82 1.357 . S
C82 C78 1.370 . S
C82 C81 1.357 . S
C82 H101 0.950 . S
Zn83 N77 2.020 . S
Zn83 O86 2.025 . S
Zn83 O91 2.024 . S
Zn83 O93 2.039 1_545 S
Zn83 O95 2.034 1_545 S
O84 C68 1.251 . S
O84 Zn75 2.048 . S
C85 O90 1.246 . S
C85 O91 1.249 1_556 S
O86 C68 1.254 1_554 S
O86 Zn83 2.025 . S
H87 C79 0.952 1_565 S
H88 C70 0.952 . S
H89 C78 0.948 . S
O90 Zn75 2.069 . S
O90 C85 1.246 . S
O91 Zn83 2.024 . S
O91 C85 1.249 1_554 S
H92 C74 0.948 . S
O93 Zn83 2.039 1_565 S
O93 C97 1.251 . S
O94 Zn75 2.020 1_565 S
O94 C97 1.254 1_556 S
O95 C76 1.246 . S
O95 Zn83 2.034 1_565 S
O96 Zn75 1.993 1_565 S
O96 C76 1.249 1_556 S
C97 O93 1.251 . S
C97 O94 1.254 1_554 S
H98 C71 0.949 . S
H99 C73 0.950 . S
H100 C80 0.949 . S
H101 C82 0.950 . S
C102 O118 1.251 . S
C102 O120 1.254 . S
N103 C104 1.333 . S
N103 C108 1.307 . S
N103 Zn109 2.020 . S
C104 N103 1.333 . S
C104 C105 1.379 1_554 S
C104 H122 0.952 . S
C105 C104 1.379 1_556 S
C105 C106 1.390 . S
C105 H132 0.949 . S
C106 C105 1.390 . S
C106 C107 1.357 1_556 S
C107 C106 1.357 1_554 S
C107 C108 1.370 . S
C107 H133 0.950 . S
C108 N103 1.307 . S
C108 C107 1.370 . S
C108 H126 0.948 . S
Zn109 N103 2.020 . S
Zn109 O118 2.039 . S
Zn109 O124 2.034 . S
Zn109 O128 2.025 . S
Zn109 O130 2.024 . S
C110 O129 1.246 . S
C110 O130 1.249 . S
N111 C112 1.307 . S
N111 C113 1.333 . S
N111 Zn117 2.020 . S
C112 N111 1.307 . S
C112 C116 1.370 . S
C112 H123 0.948 . S
C113 N111 1.333 . S
C113 C114 1.379 . S
C113 H121 0.952 . S
C114 C113 1.379 . S
C114 C115 1.390 . S
C114 H134 0.949 . S
C115 C114 1.390 . S
C115 C116 1.357 . S
C116 C112 1.370 . S
C116 C115 1.357 . S
C116 H135 0.950 . S
Zn117 N111 2.020 . S
Zn117 O120 2.025 . S
Zn117 O125 2.024 . S
Zn117 O127 2.039 . S
Zn117 O129 2.034 . S
O118 C102 1.251 . S
O118 Zn109 2.039 . S
C119 O124 1.246 . S
C119 O125 1.249 . S
O120 C102 1.254 . S
O120 Zn117 2.025 . S
H121 C113 0.952 . S
H122 C104 0.952 . S
H123 C112 0.948 . S
O124 Zn109 2.034 . S
O124 C119 1.246 . S
O125 Zn117 2.024 . S
O125 C119 1.249 . S
H126 C108 0.948 . S
O127 Zn117 2.039 . S
O127 C131 1.251 . S
O128 Zn109 2.025 . S
O128 C131 1.254 . S
O129 C110 1.246 . S
O129 Zn117 2.034 . S
O130 Zn109 2.024 . S
O130 C110 1.249 . S
C131 O127 1.251 . S
C131 O128 1.254 . S
H132 C105 0.949 . S
H133 C107 0.950 . S
H134 C114 0.949 . S
H135 C116 0.950 . S
C136 O152 1.251 . S
C136 O154 1.254 . S
N137 C138 1.333 . S
N137 C142 1.307 . S
N137 Zn143 2.020 . S
C138 N137 1.333 . S
C138 C139 1.379 . S
C138 H156 0.952 . S
C139 C138 1.379 . S
C139 C140 1.390 . S
C139 H166 0.949 . S
C140 C139 1.390 . S
C140 C141 1.357 . S
C141 C140 1.357 . S
C141 C142 1.370 . S
C141 H167 0.950 . S
C142 N137 1.307 . S
C142 C141 1.370 . S
C142 H160 0.948 . S
Zn143 N137 2.020 . S
Zn143 O152 2.039 . S
Zn143 O158 2.034 . S
Zn143 O162 2.025 . S
Zn143 O164 2.024 . S
C144 O163 1.246 . S
C144 O164 1.249 . S
N145 C146 1.307 . S
N145 C147 1.333 . S
N145 Zn151 2.020 . S
C146 N145 1.307 . S
C146 C150 1.370 . S
C146 H157 0.948 . S
C147 N145 1.333 . S
C147 C148 1.379 . S
C147 H155 0.952 . S
C148 C147 1.379 . S
C148 C149 1.386 1_554 S
C148 H168 0.949 1_554 S
C149 C148 1.386 1_556 S
C149 C150 1.347 1_556 S
C150 C146 1.370 . S
C150 C149 1.347 1_554 S
C150 H169 0.950 . S
Zn151 N145 2.020 . S
Zn151 O154 2.025 . S
Zn151 O159 2.024 . S
Zn151 O161 2.039 . S
Zn151 O163 2.034 . S
O152 C136 1.251 . S
O152 Zn143 2.039 . S
C153 O158 1.246 . S
C153 O159 1.249 . S
O154 C136 1.254 . S
O154 Zn151 2.025 . S
H155 C147 0.952 . S
H156 C138 0.952 . S
H157 C146 0.948 . S
O158 Zn143 2.034 . S
O158 C153 1.246 . S
O159 Zn151 2.024 . S
O159 C153 1.249 . S
H160 C142 0.948 . S
O161 Zn151 2.039 . S
O161 C165 1.251 . S
O162 Zn143 2.025 . S
O162 C165 1.254 . S
O163 C144 1.246 . S
O163 Zn151 2.034 . S
O164 Zn143 2.024 . S
O164 C144 1.249 . S
C165 O161 1.251 . S
C165 O162 1.254 . S
H166 C139 0.949 . S
H167 C141 0.950 . S
H168 C148 0.949 1_556 S
H169 C150 0.950 . S
C170 O186 1.251 . S
C170 O188 1.254 . S
N171 C172 1.333 . S
N171 C176 1.307 . S
N171 Zn177 2.020 . S
C172 N171 1.333 . S
C172 C173 1.379 . S
C172 H190 0.952 . S
C173 C172 1.379 . S
C173 C174 1.390 . S
C173 H200 0.949 . S
C174 C173 1.390 . S
C174 C175 1.357 . S
C175 C174 1.357 . S
C175 C176 1.370 . S
C175 H201 0.950 . S
C176 N171 1.307 . S
C176 C175 1.370 . S
C176 H194 0.948 . S
Zn177 N171 2.020 . S
Zn177 O186 2.039 . S
Zn177 O192 2.034 . S
Zn177 O196 2.025 . S
Zn177 O198 2.024 . S
C178 O197 1.246 . S
C178 O198 1.249 . S
N179 C180 1.307 . S
N179 C181 1.333 . S
N179 Zn185 2.020 . S
C180 N179 1.307 . S
C180 C184 1.370 . S
C180 H191 0.948 . S
C181 N179 1.333 . S
C181 C182 1.379 . S
C181 H189 0.952 . S
C182 C181 1.379 . S
C182 C183 1.390 . S
C182 H202 0.949 . S
C183 C182 1.390 . S
C183 C184 1.357 . S
C184 C180 1.370 . S
C184 C183 1.357 . S
C184 H203 0.950 . S
Zn185 N179 2.020 . S
Zn185 O188 2.025 . S
Zn185 O193 2.024 . S
Zn185 O195 2.039 . S
Zn185 O197 2.034 . S
O186 C170 1.251 . S
O186 Zn177 2.039 . S
C187 O192 1.246 . S
C187 O193 1.249 . S
O188 C170 1.254 . S
O188 Zn185 2.025 . S
H189 C181 0.952 . S
H190 C172 0.952 . S
H191 C180 0.948 . S
O192 Zn177 2.034 . S
O192 C187 1.246 . S
O193 Zn185 2.024 . S
O193 C187 1.249 . S
H194 C176 0.948 . S
O195 Zn185 2.039 . S
O195 C199 1.251 . S
O196 Zn177 2.025 . S
O196 C199 1.254 . S
O197 C178 1.246 . S
O197 Zn185 2.034 . S
O198 Zn177 2.024 . S
O198 C178 1.249 . S
C199 O195 1.251 . S
C199 O196 1.254 . S
H200 C173 0.949 . S
H201 C175 0.950 . S
H202 C182 0.949 . S
H203 C184 0.950 . S
C204 O220 1.251 . S
C204 O222 1.254 . S
N205 C206 1.333 . S
N205 C210 1.307 . S
N205 Zn211 2.020 . S
C206 N205 1.333 . S
C206 C207 1.379 . S
C206 H224 0.952 . S
C207 C206 1.379 . S
C207 C208 1.390 . S
C207 H234 0.949 . S
C208 C207 1.390 . S
C208 C209 1.357 . S
C209 C208 1.357 . S
C209 C210 1.370 . S
C209 H235 0.950 . S
C210 N205 1.307 . S
C210 C209 1.370 . S
C210 H228 0.948 . S
Zn211 N205 2.020 . S
Zn211 O220 2.039 . S
Zn211 O226 2.034 . S
Zn211 O230 2.025 . S
Zn211 O232 2.024 . S
C212 O231 1.246 . S
C212 O232 1.249 . S
N213 C214 1.307 . S
N213 C215 1.333 . S
N213 Zn219 2.020 . S
C214 N213 1.307 . S
C214 C218 1.370 . S
C214 H225 0.948 . S
C215 N213 1.333 . S
C215 C216 1.379 . S
C215 H223 0.952 . S
C216 C215 1.379 . S
C216 C217 1.390 . S
C216 H236 0.949 . S
C217 C216 1.390 . S
C217 C218 1.357 . S
C218 C214 1.370 . S
C218 C217 1.357 . S
C218 H237 0.950 . S
Zn219 N213 2.020 . S
Zn219 O222 2.025 . S
Zn219 O227 2.024 . S
Zn219 O229 2.039 . S
Zn219 O231 2.034 . S
O220 C204 1.251 . S
O220 Zn211 2.039 . S
C221 O226 1.246 . S
C221 O227 1.249 . S
O222 C204 1.254 . S
O222 Zn219 2.025 . S
H223 C215 0.952 . S
H224 C206 0.952 . S
H225 C214 0.948 . S
O226 Zn211 2.034 . S
O226 C221 1.246 . S
O227 Zn219 2.024 . S
O227 C221 1.249 . S
H228 C210 0.948 . S
O229 Zn219 2.039 . S
O229 C233 1.251 . S
O230 Zn211 2.025 . S
O230 C233 1.254 . S
O231 C212 1.246 . S
O231 Zn219 2.034 . S
O232 Zn211 2.024 . S
O232 C212 1.249 . S
C233 O229 1.251 . S
C233 O230 1.254 . S
H234 C207 0.949 . S
H235 C209 0.950 . S
H236 C216 0.949 . S
H237 C218 0.950 . S
C238 O254 1.251 . S
C238 O256 1.254 . S
N239 C240 1.333 . S
N239 C244 1.307 . S
N239 Zn245 2.020 . S
C240 N239 1.333 . S
C240 C241 1.379 . S
C240 H258 0.952 . S
C241 C240 1.379 . S
C241 C242 1.390 . S
C241 H268 0.949 . S
C242 C241 1.390 . S
C242 C243 1.357 . S
C243 C242 1.357 . S
C243 C244 1.370 . S
C243 H269 0.950 . S
C244 N239 1.307 . S
C244 C243 1.370 . S
C244 H262 0.948 . S
Zn245 N239 2.020 . S
Zn245 O254 2.039 . S
Zn245 O260 2.034 . S
Zn245 O264 2.025 . S
Zn245 O266 2.024 . S
C246 O265 1.246 . S
C246 O266 1.249 . S
N247 C248 1.307 . S
N247 C249 1.333 . S
N247 Zn253 2.020 . S
C248 N247 1.307 . S
C248 C252 1.370 . S
C248 H259 0.948 . S
C249 N247 1.333 . S
C249 C250 1.379 . S
C249 H257 0.952 . S
C250 C249 1.379 . S
C250 C251 1.390 . S
C250 H270 0.949 . S
C251 C250 1.390 . S
C251 C252 1.357 . S
C252 C248 1.370 . S
C252 C251 1.357 . S
C252 H271 0.950 . S
Zn253 N247 2.020 . S
Zn253 O256 2.025 . S
Zn253 O261 2.024 . S
Zn253 O263 2.039 . S
Zn253 O265 2.034 . S
O254 C238 1.251 . S
O254 Zn245 2.039 . S
C255 O260 1.246 . S
C255 O261 1.249 . S
O256 C238 1.254 . S
O256 Zn253 2.025 . S
H257 C249 0.952 . S
H258 C240 0.952 . S
H259 C248 0.948 . S
O260 Zn245 2.034 . S
O260 C255 1.246 . S
O261 Zn253 2.024 . S
O261 C255 1.249 . S
H262 C244 0.948 . S
O263 Zn253 2.039 . S
O263 C267 1.251 . S
O264 Zn245 2.025 . S
O264 C267 1.254 . S
O265 C246 1.246 . S
O265 Zn253 2.034 . S
O266 Zn245 2.024 . S
O266 C246 1.249 . S
C267 O263 1.251 . S
C267 O264 1.254 . S
H268 C241 0.949 . S
H269 C243 0.950 . S
H270 C250 0.949 . S
H271 C252 0.950 . S
C272 O288 1.251 . S
C272 O290 1.254 . S
N273 C274 1.333 . S
N273 C278 1.307 . S
N273 Zn279 2.020 . S
C274 N273 1.333 . S
C274 C275 1.379 . S
C274 H292 0.952 . S
C275 C274 1.379 . S
C275 C276 1.390 . S
C275 H302 0.949 . S
C276 C275 1.390 . S
C276 C277 1.357 . S
C277 C276 1.357 . S
C277 C278 1.370 . S
C277 H303 0.950 . S
C278 N273 1.307 . S
C278 C277 1.370 . S
C278 H296 0.948 . S
Zn279 N273 2.020 . S
Zn279 O288 2.039 . S
Zn279 O294 2.034 . S
Zn279 O298 2.025 . S
Zn279 O300 2.024 . S
C280 O299 1.246 . S
C280 O300 1.249 . S
N281 C282 1.307 . S
N281 C283 1.333 . S
N281 Zn287 2.020 . S
C282 N281 1.307 . S
C282 C286 1.370 . S
C282 H293 0.948 . S
C283 N281 1.333 . S
C283 C284 1.379 . S
C283 H291 0.952 . S
C284 C283 1.379 . S
C284 C285 1.390 . S
C284 H304 0.949 . S
C285 C284 1.390 . S
C285 C286 1.357 . S
C286 C282 1.370 . S
C286 C285 1.357 . S
C286 H305 0.950 . S
Zn287 N281 2.020 . S
Zn287 O290 2.025 . S
Zn287 O295 2.024 . S
Zn287 O297 2.039 . S
Zn287 O299 2.034 . S
O288 C272 1.251 . S
O288 Zn279 2.039 . S
C289 O294 1.246 . S
C289 O295 1.249 . S
O290 C272 1.254 . S
O290 Zn287 2.025 . S
H291 C283 0.952 . S
H292 C274 0.952 . S
H293 C282 0.948 . S
O294 Zn279 2.034 . S
O294 C289 1.246 . S
O295 Zn287 2.024 . S
O295 C289 1.249 . S
H296 C278 0.948 . S
O297 Zn287 2.039 . S
O297 C301 1.251 . S
O298 Zn279 2.025 . S
O298 C301 1.254 . S
O299 C280 1.246 . S
O299 Zn287 2.034 . S
O300 Zn279 2.024 . S
O300 C280 1.249 . S
C301 O297 1.251 . S
C301 O298 1.254 . S
H302 C275 0.949 . S
H303 C277 0.950 . S
H304 C284 0.949 . S
H305 C286 0.950 . S
H306 C318 0.930 . S
H307 C320 0.930 . S
H308 C321 0.930 . S
H309 C325 0.959 . S
H310 C325 0.959 . S
H311 C325 0.961 . S
H312 C326 0.964 . S
H313 C326 0.959 1_655 S
H314 C326 0.953 1_655 S
H315 C329 0.929 . S
H316 C330 0.931 . S
H317 C332 0.930 . S
C318 H306 0.930 . S
C318 C319 1.399 . S
C318 C323 1.399 . S
C319 C318 1.399 . S
C319 C320 1.376 . S
C320 H307 0.930 . S
C320 C319 1.376 . S
C320 C321 1.388 . S
C321 H308 0.930 . S
C321 C320 1.388 . S
C321 C322 1.390 . S
C322 C321 1.390 . S
C322 C323 1.394 . S
C322 C328 1.465 . S
C323 C318 1.399 . S
C323 C322 1.394 . S
C323 C324 1.516 . S
C324 C323 1.516 . S
C324 C325 1.502 . S
C324 C326 1.566 . S
C324 C327 1.526 . S
C325 H309 0.959 . S
C325 H310 0.959 . S
C325 H311 0.961 . S
C325 C324 1.502 . S
C326 H312 0.964 . S
C326 H313 0.959 1_455 S
C326 H314 0.953 1_455 S
C326 C324 1.566 . S
C327 C324 1.526 . S
C327 C328 1.396 . S
C327 C332 1.390 1_455 S
C328 C322 1.465 . S
C328 C327 1.396 . S
C328 C329 1.399 . S
C329 H315 0.929 . S
C329 C328 1.399 . S
C329 C330 1.385 . S
C330 H316 0.931 . S
C330 C329 1.385 . S
C330 C331 1.389 1_455 S
C331 C330 1.389 1_655 S
C331 C332 1.387 . S
C332 H317 0.930 . S
C332 C327 1.390 1_655 S
C332 C331 1.387 . S
H333 C345 0.930 . S
H334 C347 0.930 . S
H335 C348 0.930 . S
H336 C352 0.959 . S
H337 C352 0.959 . S
H338 C352 0.961 . S
H339 C353 0.960 . S
H340 C353 0.961 . S
H341 C353 0.959 . S
H342 C356 0.929 . S
H343 C357 0.931 . S
H344 C359 0.930 . S
C345 H333 0.930 . S
C345 C346 1.399 . S
C345 C350 1.399 . S
C346 C345 1.399 . S
C346 C347 1.376 . S
C347 H334 0.930 . S
C347 C346 1.376 . S
C347 C348 1.388 . S
C348 H335 0.930 . S
C348 C347 1.388 . S
C348 C349 1.390 . S
C349 C348 1.390 . S
C349 C350 1.394 . S
C349 C355 1.465 . S
C350 C345 1.399 . S
C350 C349 1.394 . S
C350 C351 1.516 . S
C351 C350 1.516 . S
C351 C352 1.502 . S
C351 C353 1.561 . S
C351 C354 1.526 . S
C352 H336 0.959 . S
C352 H337 0.959 . S
C352 H338 0.961 . S
C352 C351 1.502 . S
C353 H339 0.960 . S
C353 H340 0.961 . S
C353 H341 0.959 . S
C353 C351 1.561 . S
C354 C351 1.526 . S
C354 C355 1.396 . S
C354 C359 1.390 . S
C355 C349 1.465 . S
C355 C354 1.396 . S
C355 C356 1.399 . S
C356 H342 0.929 . S
C356 C355 1.399 . S
C356 C357 1.385 . S
C357 H343 0.931 . S
C357 C356 1.385 . S
C357 C358 1.389 . S
C358 C357 1.389 . S
C358 C359 1.387 . S
C359 H344 0.930 . S
C359 C354 1.390 . S
C359 C358 1.387 . S
H360 C372 0.930 . S
H361 C374 0.930 . S
H362 C375 0.933 1_545 S
H363 C379 0.959 . S
H364 C379 0.959 . S
H365 C379 0.961 . S
H366 C380 0.960 . S
H367 C380 0.961 . S
H368 C380 0.959 . S
H369 C383 0.929 . S
H370 C384 0.931 . S
H371 C386 0.930 . S
C372 H360 0.930 . S
C372 C373 1.399 . S
C372 C377 1.399 . S
C373 C372 1.399 . S
C373 C374 1.376 . S
C374 H361 0.930 . S
C374 C373 1.376 . S
C374 C375 1.397 . S
C375 H362 0.933 1_565 S
C375 C374 1.397 . S
C375 C376 1.379 1_565 S
C376 C375 1.379 1_545 S
C376 C377 1.394 1_545 S
C376 C382 1.465 . S
C377 C372 1.399 . S
C377 C376 1.394 1_565 S
C377 C378 1.516 1_565 S
C378 C377 1.516 1_545 S
C378 C379 1.502 1_545 S
C378 C380 1.561 . S
C378 C381 1.526 . S
C379 H363 0.959 . S
C379 H364 0.959 . S
C379 H365 0.961 . S
C379 C378 1.502 1_565 S
C380 H366 0.960 . S
C380 H367 0.961 . S
C380 H368 0.959 . S
C380 C378 1.561 . S
C381 C378 1.526 . S
C381 C382 1.396 . S
C381 C386 1.390 . S
C382 C376 1.465 . S
C382 C381 1.396 . S
C382 C383 1.399 . S
C383 H369 0.929 . S
C383 C382 1.399 . S
C383 C384 1.385 . S
C384 H370 0.931 . S
C384 C383 1.385 . S
C384 C385 1.389 . S
C385 C384 1.389 . S
C385 C386 1.387 . S
C386 H371 0.930 . S
C386 C381 1.390 . S
C386 C385 1.387 . S
H387 C399 0.930 . S
H388 C401 0.930 . S
H389 C402 0.930 . S
H390 C406 0.959 . S
H391 C406 0.959 . S
H392 C406 0.961 . S
H393 C407 0.960 . S
H394 C407 0.961 . S
H395 C407 0.959 . S
H396 C410 0.929 . S
H397 C411 0.931 1_554 S
H398 C413 0.930 . S
C399 H387 0.930 . S
C399 C400 1.399 . S
C399 C404 1.399 . S
C400 C399 1.399 . S
C400 C401 1.376 . S
C401 H388 0.930 . S
C401 C400 1.376 . S
C401 C402 1.388 . S
C402 H389 0.930 . S
C402 C401 1.388 . S
C402 C403 1.390 . S
C403 C402 1.390 . S
C403 C404 1.394 . S
C403 C409 1.465 . S
C404 C399 1.399 . S
C404 C403 1.394 . S
C404 C405 1.516 . S
C405 C404 1.516 . S
C405 C406 1.502 . S
C405 C407 1.561 . S
C405 C408 1.526 . S
C406 H390 0.959 . S
C406 H391 0.959 . S
C406 H392 0.961 . S
C406 C405 1.502 . S
C407 H393 0.960 . S
C407 H394 0.961 . S
C407 H395 0.959 . S
C407 C405 1.561 . S
C408 C405 1.526 . S
C408 C409 1.396 . S
C408 C413 1.390 . S
C409 C403 1.465 . S
C409 C408 1.396 . S
C409 C410 1.399 . S
C410 H396 0.929 . S
C410 C409 1.399 . S
C410 C411 1.385 . S
C411 H397 0.931 1_556 S
C411 C410 1.385 . S
C411 C412 1.389 . S
C412 C411 1.389 . S
C412 C413 1.387 . S
C413 H398 0.930 . S
C413 C408 1.390 . S
C413 C412 1.387 . S
H414 C426 0.930 . S
H415 C428 0.930 . S
H416 C429 0.930 . S
H417 C433 0.959 . S
H418 C433 0.959 . S
H419 C433 0.961 . S
H420 C434 0.960 . S
H421 C434 0.961 . S
H422 C434 0.959 . S
H423 C437 0.929 . S
H424 C438 0.931 . S
H425 C440 0.930 . S
C426 H414 0.930 . S
C426 C427 1.399 . S
C426 C431 1.399 . S
C427 C426 1.399 . S
C427 C428 1.376 . S
C428 H415 0.930 . S
C428 C427 1.376 . S
C428 C429 1.388 . S
C429 H416 0.930 . S
C429 C428 1.388 . S
C429 C430 1.390 . S
C430 C429 1.390 . S
C430 C431 1.394 . S
C430 C436 1.465 . S
C431 C426 1.399 . S
C431 C430 1.394 . S
C431 C432 1.516 . S
C432 C431 1.516 . S
C432 C433 1.502 . S
C432 C434 1.561 . S
C432 C435 1.526 . S
C433 H417 0.959 . S
C433 H418 0.959 . S
C433 H419 0.961 . S
C433 C432 1.502 . S
C434 H420 0.960 . S
C434 H421 0.961 . S
C434 H422 0.959 . S
C434 C432 1.561 . S
C435 C432 1.526 . S
C435 C436 1.396 . S
C435 C440 1.390 . S
C436 C430 1.465 . S
C436 C435 1.396 . S
C436 C437 1.399 . S
C437 H423 0.929 . S
C437 C436 1.399 . S
C437 C438 1.385 1_556 S
C438 H424 0.931 . S
C438 C437 1.385 1_554 S
C438 C439 1.389 1_554 S
C439 C438 1.389 1_556 S
C439 C440 1.387 . S
C440 H425 0.930 . S
C440 C435 1.390 . S
C440 C439 1.387 . S
H441 C453 0.930 . S
H442 C455 0.930 . S
H443 C456 0.930 . S
H444 C460 0.959 . S
H445 C460 0.959 . S
H446 C460 0.961 . S
H447 C461 0.960 . S
H448 C461 0.961 . S
H449 C461 0.959 . S
H450 C464 0.929 . S
H451 C465 0.931 . S
H452 C467 0.930 . S
C453 H441 0.930 . S
C453 C454 1.399 . S
C453 C458 1.399 . S
C454 C453 1.399 . S
C454 C455 1.376 . S
C455 H442 0.930 . S
C455 C454 1.376 . S
C455 C456 1.388 . S
C456 H443 0.930 . S
C456 C455 1.388 . S
C456 C457 1.390 . S
C457 C456 1.390 . S
C457 C458 1.394 . S
C457 C463 1.465 . S
C458 C453 1.399 . S
C458 C457 1.394 . S
C458 C459 1.516 . S
C459 C458 1.516 . S
C459 C460 1.502 . S
C459 C461 1.561 . S
C459 C462 1.526 . S
C460 H444 0.959 . S
C460 H445 0.959 . S
C460 H446 0.961 . S
C460 C459 1.502 . S
C461 H447 0.960 . S
C461 H448 0.961 . S
C461 H449 0.959 . S
C461 C459 1.561 . S
C462 C459 1.526 . S
C462 C463 1.396 . S
C462 C467 1.390 . S
C463 C457 1.465 . S
C463 C462 1.396 . S
C463 C464 1.399 . S
C464 H450 0.929 . S
C464 C463 1.399 . S
C464 C465 1.385 1_556 S
C465 H451 0.931 . S
C465 C464 1.385 1_554 S
C465 C466 1.389 . S
C466 C465 1.389 . S
C466 C467 1.387 1_554 S
C467 H452 0.930 . S
C467 C462 1.390 . S
C467 C466 1.387 1_556 S
H468 C480 0.930 . S
H469 C482 0.930 . S
H470 C483 0.930 . S
H471 C487 0.959 . S
H472 C487 0.959 . S
H473 C487 0.961 . S
H474 C488 0.960 . S
H475 C488 0.961 . S
H476 C488 0.959 . S
H477 C491 0.929 . S
H478 C492 0.931 1_556 S
H479 C494 0.930 . S
C480 H468 0.930 . S
C480 C481 1.399 . S
C480 C485 1.399 . S
C481 C480 1.399 . S
C481 C482 1.376 . S
C482 H469 0.930 . S
C482 C481 1.376 . S
C482 C483 1.388 . S
C483 H470 0.930 . S
C483 C482 1.388 . S
C483 C484 1.390 . S
C484 C483 1.390 . S
C484 C485 1.394 . S
C484 C490 1.465 . S
C485 C480 1.399 . S
C485 C484 1.394 . S
C485 C486 1.516 . S
C486 C485 1.516 . S
C486 C487 1.502 . S
C486 C488 1.561 . S
C486 C489 1.526 . S
C487 H471 0.959 . S
C487 H472 0.959 . S
C487 H473 0.961 . S
C487 C486 1.502 . S
C488 H474 0.960 . S
C488 H475 0.961 . S
C488 H476 0.959 . S
C488 C486 1.561 . S
C489 C486 1.526 . S
C489 C490 1.396 . S
C489 C494 1.390 . S
C490 C484 1.465 . S
C490 C489 1.396 . S
C490 C491 1.399 . S
C491 H477 0.929 . S
C491 C490 1.399 . S
C491 C492 1.385 . S
C492 H478 0.931 1_554 S
C492 C491 1.385 . S
C492 C493 1.389 1_554 S
C493 C492 1.389 1_556 S
C493 C494 1.387 1_556 S
C494 H479 0.930 . S
C494 C489 1.390 . S
C494 C493 1.387 1_554 S
H495 C507 0.930 . S
H496 C509 0.930 . S
H497 C510 0.930 . S
H498 C514 0.959 . S
H499 C514 0.959 . S
H500 C514 0.961 . S
H501 C515 0.960 . S
H502 C515 0.961 . S
H503 C515 0.959 . S
H504 C518 0.929 . S
H505 C519 0.931 1_556 S
H506 C521 0.930 . S
C507 H495 0.930 . S
C507 C508 1.399 . S
C507 C512 1.399 . S
C508 C507 1.399 . S
C508 C509 1.376 . S
C509 H496 0.930 . S
C509 C508 1.376 . S
C509 C510 1.388 . S
C510 H497 0.930 . S
C510 C509 1.388 . S
C510 C511 1.390 . S
C511 C510 1.390 . S
C511 C512 1.394 . S
C511 C517 1.465 . S
C512 C507 1.399 . S
C512 C511 1.394 . S
C512 C513 1.516 . S
C513 C512 1.516 . S
C513 C514 1.502 . S
C513 C515 1.561 . S
C513 C516 1.526 . S
C514 H498 0.959 . S
C514 H499 0.959 . S
C514 H500 0.961 . S
C514 C513 1.502 . S
C515 H501 0.960 . S
C515 H502 0.961 . S
C515 H503 0.959 . S
C515 C513 1.561 . S
C516 C513 1.526 . S
C516 C517 1.396 . S
C516 C521 1.390 . S
C517 C511 1.465 . S
C517 C516 1.396 . S
C517 C518 1.399 . S
C518 H504 0.929 . S
C518 C517 1.399 . S
C518 C519 1.385 . S
C519 H505 0.931 1_554 S
C519 C518 1.385 . S
C519 C520 1.389 1_554 S
C520 C519 1.389 1_556 S
C520 C521 1.387 1_556 S
C521 H506 0.930 . S
C521 C516 1.390 . S
C521 C520 1.387 1_554 S
H522 C534 0.930 . S
H523 C536 0.930 . S
H524 C537 0.930 . S
H525 C541 0.959 . S
H526 C541 0.959 . S
H527 C541 0.961 . S
H528 C542 0.960 . S
H529 C542 0.961 . S
H530 C542 0.959 . S
H531 C545 0.929 . S
H532 C546 0.931 1_556 S
H533 C548 0.930 . S
C534 H522 0.930 . S
C534 C535 1.399 . S
C534 C539 1.399 . S
C535 C534 1.399 . S
C535 C536 1.376 . S
C536 H523 0.930 . S
C536 C535 1.376 . S
C536 C537 1.388 . S
C537 H524 0.930 . S
C537 C536 1.388 . S
C537 C538 1.390 . S
C538 C537 1.390 . S
C538 C539 1.394 . S
C538 C544 1.465 . S
C539 C534 1.399 . S
C539 C538 1.394 . S
C539 C540 1.516 . S
C540 C539 1.516 . S
C540 C541 1.502 . S
C540 C542 1.561 . S
C540 C543 1.526 . S
C541 H525 0.959 . S
C541 H526 0.959 . S
C541 H527 0.961 . S
C541 C540 1.502 . S
C542 H528 0.960 . S
C542 H529 0.961 . S
C542 H530 0.959 . S
C542 C540 1.561 . S
C543 C540 1.526 . S
C543 C544 1.396 . S
C543 C548 1.390 . S
C544 C538 1.465 . S
C544 C543 1.396 . S
C544 C545 1.399 . S
C545 H531 0.929 . S
C545 C544 1.399 . S
C545 C546 1.385 . S
C546 H532 0.931 1_554 S
C546 C545 1.385 . S
C546 C547 1.389 1_554 S
C547 C546 1.389 1_556 S
C547 C548 1.387 1_556 S
C548 H533 0.930 . S
C548 C543 1.390 . S
C548 C547 1.387 1_554 S
H549 C561 0.930 . S
H550 C563 0.930 . S
H551 C564 0.930 . S
H552 C568 0.959 . S
H553 C568 0.959 . S
H554 C568 0.961 . S
H555 C569 0.960 . S
H556 C569 0.961 . S
H557 C569 0.959 . S
H558 C572 0.929 . S
H559 C573 0.931 . S
H560 C575 0.930 . S
C561 H549 0.930 . S
C561 C562 1.399 . S
C561 C566 1.399 . S
C562 C561 1.399 . S
C562 C563 1.376 . S
C563 H550 0.930 . S
C563 C562 1.376 . S
C563 C564 1.388 . S
C564 H551 0.930 . S
C564 C563 1.388 . S
C564 C565 1.390 . S
C565 C564 1.390 . S
C565 C566 1.394 . S
C565 C571 1.465 . S
C566 C561 1.399 . S
C566 C565 1.394 . S
C566 C567 1.516 . S
C567 C566 1.516 . S
C567 C568 1.502 . S
C567 C569 1.561 . S
C567 C570 1.526 . S
C568 H552 0.959 . S
C568 H553 0.959 . S
C568 H554 0.961 . S
C568 C567 1.502 . S
C569 H555 0.960 . S
C569 H556 0.961 . S
C569 H557 0.959 . S
C569 C567 1.561 . S
C570 C567 1.526 . S
C570 C571 1.396 . S
C570 C575 1.390 . S
C571 C565 1.465 . S
C571 C570 1.396 . S
C571 C572 1.399 . S
C572 H558 0.929 . S
C572 C571 1.399 . S
C572 C573 1.385 . S
C573 H559 0.931 . S
C573 C572 1.385 . S
C573 C574 1.389 . S
C574 C573 1.389 . S
C574 C575 1.387 . S
C575 H560 0.930 . S
C575 C570 1.390 . S
C575 C574 1.387 . S
H576 C588 0.930 . S
H577 C590 0.930 . S
H578 C591 0.930 . S
H579 C595 0.959 . S
H580 C595 0.959 . S
H581 C595 0.961 . S
H582 C596 0.960 1_556 S
H583 C596 0.961 . S
H584 C596 0.959 . S
H585 C599 0.929 . S
H586 C600 0.931 . S
H587 C602 0.930 . S
C588 H576 0.930 . S
C588 C589 1.399 . S
C588 C593 1.399 . S
C589 C588 1.399 . S
C589 C590 1.376 . S
C590 H577 0.930 . S
C590 C589 1.376 . S
C590 C591 1.388 . S
C591 H578 0.930 . S
C591 C590 1.388 . S
C591 C592 1.390 . S
C592 C591 1.390 . S
C592 C593 1.394 . S
C592 C598 1.465 . S
C593 C588 1.399 . S
C593 C592 1.394 . S
C593 C594 1.516 . S
C594 C593 1.516 . S
C594 C595 1.502 . S
C594 C596 1.561 . S
C594 C597 1.526 . S
C595 H579 0.959 . S
C595 H580 0.959 . S
C595 H581 0.961 . S
C595 C594 1.502 . S
C596 H582 0.960 1_554 S
C596 H583 0.961 . S
C596 H584 0.959 . S
C596 C594 1.561 . S
C597 C594 1.526 . S
C597 C598 1.396 . S
C597 C602 1.390 . S
C598 C592 1.465 . S
C598 C597 1.396 . S
C598 C599 1.399 . S
C599 H585 0.929 . S
C599 C598 1.399 . S
C599 C600 1.385 . S
C600 H586 0.931 . S
C600 C599 1.385 . S
C600 C601 1.389 . S
C601 C600 1.389 . S
C601 C602 1.387 . S
C602 H587 0.930 . S
C602 C597 1.390 . S
C602 C601 1.387 . S
H603 C615 0.930 . S
H604 C617 0.930 . S
H605 C618 0.930 . S
H606 C622 0.959 . S
H607 C622 0.959 . S
H608 C622 0.961 . S
H609 C623 0.960 . S
H610 C623 0.961 . S
H611 C623 0.959 . S
H612 C626 0.929 . S
H613 C627 0.931 . S
H614 C629 0.930 . S
C615 H603 0.930 . S
C615 C616 1.399 . S
C615 C620 1.399 . S
C616 C615 1.399 . S
C616 C617 1.376 . S
C617 H604 0.930 . S
C617 C616 1.376 . S
C617 C618 1.388 . S
C618 H605 0.930 . S
C618 C617 1.388 . S
C618 C619 1.390 . S
C619 C618 1.390 . S
C619 C620 1.394 . S
C619 C625 1.465 . S
C620 C615 1.399 . S
C620 C619 1.394 . S
C620 C621 1.516 . S
C621 C620 1.516 . S
C621 C622 1.502 . S
C621 C623 1.561 . S
C621 C624 1.526 . S
C622 H606 0.959 . S
C622 H607 0.959 . S
C622 H608 0.961 . S
C622 C621 1.502 . S
C623 H609 0.960 . S
C623 H610 0.961 . S
C623 H611 0.959 . S
C623 C621 1.561 . S
C624 C621 1.526 . S
C624 C625 1.396 . S
C624 C629 1.390 . S
C625 C619 1.465 . S
C625 C624 1.396 . S
C625 C626 1.399 . S
C626 H612 0.929 . S
C626 C625 1.399 . S
C626 C627 1.385 . S
C627 H613 0.931 . S
C627 C626 1.385 . S
C627 C628 1.389 . S
C628 C627 1.389 . S
C628 C629 1.387 . S
C629 H614 0.930 . S
C629 C624 1.390 . S
C629 C628 1.387 . S
H630 C642 0.930 . S
H631 C644 0.930 1_554 S
H632 C645 0.930 . S
H633 C649 0.959 . S
H634 C649 0.959 . S
H635 C649 0.961 . S
H636 C650 0.960 . S
H637 C650 0.961 . S
H638 C650 0.959 . S
H639 C653 0.929 . S
H640 C654 0.931 . S
H641 C656 0.930 . S
C642 H630 0.930 . S
C642 C643 1.399 . S
C642 C647 1.399 . S
C643 C642 1.399 . S
C643 C644 1.376 . S
C644 H631 0.930 1_556 S
C644 C643 1.376 . S
C644 C645 1.388 . S
C645 H632 0.930 . S
C645 C644 1.388 . S
C645 C646 1.390 . S
C646 C645 1.390 . S
C646 C647 1.394 . S
C646 C652 1.465 . S
C647 C642 1.399 . S
C647 C646 1.394 . S
C647 C648 1.516 . S
C648 C647 1.516 . S
C648 C649 1.502 . S
C648 C650 1.561 . S
C648 C651 1.526 . S
C649 H633 0.959 . S
C649 H634 0.959 . S
C649 H635 0.961 . S
C649 C648 1.502 . S
C650 H636 0.960 . S
C650 H637 0.961 . S
C650 H638 0.959 . S
C650 C648 1.561 . S
C651 C648 1.526 . S
C651 C652 1.396 . S
C651 C656 1.390 . S
C652 C646 1.465 . S
C652 C651 1.396 . S
C652 C653 1.399 . S
C653 H639 0.929 . S
C653 C652 1.399 . S
C653 C654 1.385 . S
C654 H640 0.931 . S
C654 C653 1.385 . S
C654 C655 1.389 . S
C655 C654 1.389 . S
C655 C656 1.387 . S
C656 H641 0.930 . S
C656 C651 1.390 . S
C656 C655 1.387 . S
H657 C669 0.930 . S
H658 C671 0.930 . S
H659 C672 0.930 . S
H660 C676 0.955 1_556 S
H661 C676 0.968 . S
H662 C676 0.960 1_556 S
H663 C677 0.960 . S
H664 C677 0.961 . S
H665 C677 0.959 1_556 S
H666 C680 0.942 . S
H667 C681 0.931 . S
H668 C683 0.930 . S
C669 H657 0.930 . S
C669 C670 1.399 . S
C669 C674 1.399 . S
C670 C669 1.399 . S
C670 C671 1.376 . S
C671 H658 0.930 . S
C671 C670 1.376 . S
C671 C672 1.388 . S
C672 H659 0.930 . S
C672 C671 1.388 . S
C672 C673 1.390 . S
C673 C672 1.390 . S
C673 C674 1.394 . S
C673 C679 1.465 . S
C674 C669 1.399 . S
C674 C673 1.394 . S
C674 C675 1.516 . S
C675 C674 1.516 . S
C675 C676 1.498 1_556 S
C675 C677 1.561 1_556 S
C675 C678 1.526 . S
C676 H660 0.955 1_554 S
C676 H661 0.968 . S
C676 H662 0.960 1_554 S
C676 C675 1.498 1_554 S
C677 H663 0.960 . S
C677 H664 0.961 . S
C677 H665 0.959 1_554 S
C677 C675 1.561 1_554 S
C678 C675 1.526 . S
C678 C679 1.396 . S
C678 C683 1.390 1_556 S
C679 C673 1.465 . S
C679 C678 1.396 . S
C679 C680 1.399 . S
C680 H666 0.942 . S
C680 C679 1.399 . S
C680 C681 1.385 1_655 S
C681 H667 0.931 . S
C681 C680 1.385 1_455 S
C681 C682 1.404 1_455 S
C682 C681 1.404 1_655 S
C682 C683 1.384 1_556 S
C683 H668 0.930 . S
C683 C678 1.390 1_554 S
C683 C682 1.384 1_554 S
H684 C696 0.930 . S
H685 C698 0.930 . S
H686 C699 0.930 . S
H687 C703 0.959 . S
H688 C703 0.959 . S
H689 C703 0.961 . S
H690 C704 0.960 . S
H691 C704 0.961 . S
H692 C704 0.959 . S
H693 C707 0.929 . S
H694 C708 0.931 . S
H695 C710 0.930 . S
C696 H684 0.930 . S
C696 C697 1.399 . S
C696 C701 1.399 . S
C697 C696 1.399 . S
C697 C698 1.376 . S
C698 H685 0.930 . S
C698 C697 1.376 . S
C698 C699 1.388 . S
C699 H686 0.930 . S
C699 C698 1.388 . S
C699 C700 1.390 . S
C700 C699 1.390 . S
C700 C701 1.394 . S
C700 C706 1.465 . S
C701 C696 1.399 . S
C701 C700 1.394 . S
C701 C702 1.516 . S
C702 C701 1.516 . S
C702 C703 1.502 . S
C702 C704 1.561 . S
C702 C705 1.526 . S
C703 H687 0.959 . S
C703 H688 0.959 . S
C703 H689 0.961 . S
C703 C702 1.502 . S
C704 H690 0.960 . S
C704 H691 0.961 . S
C704 H692 0.959 . S
C704 C702 1.561 . S
C705 C702 1.526 . S
C705 C706 1.396 . S
C705 C710 1.390 . S
C706 C700 1.465 . S
C706 C705 1.396 . S
C706 C707 1.399 . S
C707 H693 0.929 . S
C707 C706 1.399 . S
C707 C708 1.385 . S
C708 H694 0.931 . S
C708 C707 1.385 . S
C708 C709 1.389 . S
C709 C708 1.389 . S
C709 C710 1.387 . S
C710 H695 0.930 . S
C710 C705 1.390 . S
C710 C709 1.387 . S
H711 C723 0.930 . S
H712 C725 0.930 . S
H713 C726 0.930 . S
H714 C730 0.959 . S
H715 C730 0.959 1_455 S
H716 C730 0.961 . S
H717 C731 0.960 . S
H718 C731 0.961 . S
H719 C731 0.959 1_554 S
H720 C734 0.929 . S
H721 C735 0.931 1_554 S
H722 C737 0.930 1_455 S
C723 H711 0.930 . S
C723 C724 1.399 . S
C723 C728 1.399 . S
C724 C723 1.399 . S
C724 C725 1.376 . S
C725 H712 0.930 . S
C725 C724 1.376 . S
C725 C726 1.388 . S
C726 H713 0.930 . S
C726 C725 1.388 . S
C726 C727 1.390 . S
C727 C726 1.390 . S
C727 C728 1.394 . S
C727 C733 1.465 . S
C728 C723 1.399 . S
C728 C727 1.394 . S
C728 C729 1.516 . S
C729 C728 1.516 . S
C729 C730 1.502 . S
C729 C731 1.561 . S
C729 C732 1.526 . S
C730 H714 0.959 . S
C730 H715 0.959 1_655 S
C730 H716 0.961 . S
C730 C729 1.502 . S
C731 H717 0.960 . S
C731 H718 0.961 . S
C731 H719 0.959 1_556 S
C731 C729 1.561 . S
C732 C729 1.526 . S
C732 C733 1.396 . S
C732 C737 1.390 . S
C733 C727 1.465 . S
C733 C732 1.396 . S
C733 C734 1.399 . S
C734 H720 0.929 . S
C734 C733 1.399 . S
C734 C735 1.385 . S
C735 H721 0.931 1_556 S
C735 C734 1.385 . S
C735 C736 1.389 1_556 S
C736 C735 1.389 1_554 S
C736 C737 1.387 1_554 S
C737 H722 0.930 1_655 S
C737 C732 1.390 . S
C737 C736 1.387 1_556 S
H738 C750 0.930 1_554 S
H739 C752 0.930 . S
H740 C753 0.930 . S
H741 C757 0.959 . S
H742 C757 0.959 . S
H743 C757 0.961 1_554 S
H744 C758 0.960 . S
H745 C758 0.961 . S
H746 C758 0.959 1_556 S
H747 C761 0.929 . S
H748 C762 0.931 . S
H749 C764 0.930 . S
C750 H738 0.930 1_556 S
C750 C751 1.399 . S
C750 C755 1.399 . S
C751 C750 1.399 . S
C751 C752 1.376 . S
C752 H739 0.930 . S
C752 C751 1.376 . S
C752 C753 1.388 . S
C753 H740 0.930 . S
C753 C752 1.388 . S
C753 C754 1.390 . S
C754 C753 1.390 . S
C754 C755 1.394 . S
C754 C760 1.465 . S
C755 C750 1.399 . S
C755 C754 1.394 . S
C755 C756 1.516 . S
C756 C755 1.516 . S
C756 C757 1.502 . S
C756 C758 1.561 1_556 S
C756 C759 1.526 . S
C757 H741 0.959 . S
C757 H742 0.959 . S
C757 H743 0.961 1_556 S
C757 C756 1.502 . S
C758 H744 0.960 . S
C758 H745 0.961 . S
C758 H746 0.959 1_554 S
C758 C756 1.561 1_554 S
C759 C756 1.526 . S
C759 C760 1.396 . S
C759 C764 1.390 . S
C760 C754 1.465 . S
C760 C759 1.396 . S
C760 C761 1.399 . S
C761 H747 0.929 . S
C761 C760 1.399 . S
C761 C762 1.385 . S
C762 H748 0.931 . S
C762 C761 1.385 . S
C762 C763 1.389 . S
C763 C762 1.389 . S
C763 C764 1.387 . S
C764 H749 0.930 . S
C764 C759 1.390 . S
C764 C763 1.387 . S
H765 C777 0.930 . S
H766 C779 0.930 . S
H767 C780 0.930 . S
H768 C784 0.959 . S
H769 C784 0.959 1_554 S
H770 C784 0.961 . S
H771 C785 0.960 . S
H772 C785 0.961 . S
H773 C785 0.959 . S
H774 C788 0.929 . S
H775 C789 0.931 . S
H776 C791 0.930 . S
C777 H765 0.930 . S
C777 C778 1.399 . S
C777 C782 1.399 . S
C778 C777 1.399 . S
C778 C779 1.376 . S
C779 H766 0.930 . S
C779 C778 1.376 . S
C779 C780 1.388 . S
C780 H767 0.930 . S
C780 C779 1.388 . S
C780 C781 1.390 . S
C781 C780 1.390 . S
C781 C782 1.394 . S
C781 C787 1.465 . S
C782 C777 1.399 . S
C782 C781 1.394 . S
C782 C783 1.516 . S
C783 C782 1.516 . S
C783 C784 1.502 . S
C783 C785 1.561 . S
C783 C786 1.526 . S
C784 H768 0.959 . S
C784 H769 0.959 1_556 S
C784 H770 0.961 . S
C784 C783 1.502 . S
C785 H771 0.960 . S
C785 H772 0.961 . S
C785 H773 0.959 . S
C785 C783 1.561 . S
C786 C783 1.526 . S
C786 C787 1.396 . S
C786 C791 1.390 . S
C787 C781 1.465 . S
C787 C786 1.396 . S
C787 C788 1.399 . S
C788 H774 0.929 . S
C788 C787 1.399 . S
C788 C789 1.385 . S
C789 H775 0.931 . S
C789 C788 1.385 . S
C789 C790 1.389 . S
C790 C789 1.389 . S
C790 C791 1.387 . S
C791 H776 0.930 . S
C791 C786 1.390 . S
C791 C790 1.387 . S
H792 C804 0.930 . S
H793 C806 0.930 1_556 S
H794 C807 0.930 1_556 S
H795 C811 0.959 . S
H796 C811 0.959 . S
H797 C811 0.961 . S
H798 C812 0.960 . S
H799 C812 0.961 . S
H800 C812 0.959 . S
H801 C815 0.929 . S
H802 C816 0.931 . S
H803 C818 0.930 . S
C804 H792 0.930 . S
C804 C805 1.399 . S
C804 C809 1.399 . S
C805 C804 1.399 . S
C805 C806 1.376 . S
C806 H793 0.930 1_554 S
C806 C805 1.376 . S
C806 C807 1.388 . S
C807 H794 0.930 1_554 S
C807 C806 1.388 . S
C807 C808 1.390 . S
C808 C807 1.390 . S
C808 C809 1.394 . S
C808 C814 1.465 . S
C809 C804 1.399 . S
C809 C808 1.394 . S
C809 C810 1.516 . S
C810 C809 1.516 . S
C810 C811 1.502 . S
C810 C812 1.561 . S
C810 C813 1.526 . S
C811 H795 0.959 . S
C811 H796 0.959 . S
C811 H797 0.961 . S
C811 C810 1.502 . S
C812 H798 0.960 . S
C812 H799 0.961 . S
C812 H800 0.959 . S
C812 C810 1.561 . S
C813 C810 1.526 . S
C813 C814 1.396 . S
C813 C818 1.390 . S
C814 C808 1.465 . S
C814 C813 1.396 . S
C814 C815 1.399 . S
C815 H801 0.929 . S
C815 C814 1.399 . S
C815 C816 1.385 . S
C816 H802 0.931 . S
C816 C815 1.385 . S
C816 C817 1.389 . S
C817 C816 1.389 . S
C817 C818 1.387 . S
C818 H803 0.930 . S
C818 C813 1.390 . S
C818 C817 1.387 . S
H819 C831 0.930 . S
H820 C833 0.930 . S
H821 C834 0.930 . S
H822 C838 0.959 . S
H823 C838 0.959 . S
H824 C838 0.961 . S
H825 C839 0.960 . S
H826 C839 0.961 . S
H827 C839 0.959 . S
H828 C842 0.929 . S
H829 C843 0.931 . S
H830 C845 0.930 . S
C831 H819 0.930 . S
C831 C832 1.399 . S
C831 C836 1.399 . S
C832 C831 1.399 . S
C832 C833 1.376 . S
C833 H820 0.930 . S
C833 C832 1.376 . S
C833 C834 1.388 . S
C834 H821 0.930 . S
C834 C833 1.388 . S
C834 C835 1.390 . S
C835 C834 1.390 . S
C835 C836 1.394 . S
C835 C841 1.465 . S
C836 C831 1.399 . S
C836 C835 1.394 . S
C836 C837 1.516 . S
C837 C836 1.516 . S
C837 C838 1.502 . S
C837 C839 1.561 . S
C837 C840 1.526 . S
C838 H822 0.959 . S
C838 H823 0.959 . S
C838 H824 0.961 . S
C838 C837 1.502 . S
C839 H825 0.960 . S
C839 H826 0.961 . S
C839 H827 0.959 . S
C839 C837 1.561 . S
C840 C837 1.526 . S
C840 C841 1.396 . S
C840 C845 1.390 . S
C841 C835 1.465 . S
C841 C840 1.396 . S
C841 C842 1.399 . S
C842 H828 0.929 . S
C842 C841 1.399 . S
C842 C843 1.385 . S
C843 H829 0.931 . S
C843 C842 1.385 . S
C843 C844 1.389 . S
C844 C843 1.389 . S
C844 C845 1.387 . S
C845 H830 0.930 . S
C845 C840 1.390 . S
C845 C844 1.387 . S
H846 C858 0.930 . S
H847 C860 0.930 . S
H848 C861 0.930 . S
H849 C865 0.959 . S
H850 C865 0.959 . S
H851 C865 0.961 . S
H852 C866 0.960 . S
H853 C866 0.961 . S
H854 C866 0.959 . S
H855 C869 0.929 . S
H856 C870 0.931 . S
H857 C872 0.930 . S
C858 H846 0.930 . S
C858 C859 1.399 . S
C858 C863 1.399 . S
C859 C858 1.399 . S
C859 C860 1.376 . S
C860 H847 0.930 . S
C860 C859 1.376 . S
C860 C861 1.388 . S
C861 H848 0.930 . S
C861 C860 1.388 . S
C861 C862 1.390 . S
C862 C861 1.390 . S
C862 C863 1.394 . S
C862 C868 1.465 . S
C863 C858 1.399 . S
C863 C862 1.394 . S
C863 C864 1.516 . S
C864 C863 1.516 . S
C864 C865 1.502 . S
C864 C866 1.561 . S
C864 C867 1.526 . S
C865 H849 0.959 . S
C865 H850 0.959 . S
C865 H851 0.961 . S
C865 C864 1.502 . S
C866 H852 0.960 . S
C866 H853 0.961 . S
C866 H854 0.959 . S
C866 C864 1.561 . S
C867 C864 1.526 . S
C867 C868 1.396 . S
C867 C872 1.390 . S
C868 C862 1.465 . S
C868 C867 1.396 . S
C868 C869 1.399 . S
C869 H855 0.929 . S
C869 C868 1.399 . S
C869 C870 1.385 . S
C870 H856 0.931 . S
C870 C869 1.385 . S
C870 C871 1.389 . S
C871 C870 1.389 . S
C871 C872 1.387 . S
C872 H857 0.930 . S
C872 C867 1.390 . S
C872 C871 1.387 . S
H873 C885 0.930 . S
H874 C887 0.930 . S
H875 C888 0.930 . S
H876 C892 0.959 . S
H877 C892 0.959 . S
H878 C892 0.961 . S
H879 C893 0.960 . S
H880 C893 0.961 . S
H881 C893 0.959 . S
H882 C896 0.929 . S
H883 C897 0.931 . S
H884 C899 0.930 . S
C885 H873 0.930 . S
C885 C886 1.399 . S
C885 C890 1.399 . S
C886 C885 1.399 . S
C886 C887 1.376 . S
C887 H874 0.930 . S
C887 C886 1.376 . S
C887 C888 1.388 . S
C888 H875 0.930 . S
C888 C887 1.388 . S
C888 C889 1.390 . S
C889 C888 1.390 . S
C889 C890 1.394 . S
C889 C895 1.465 . S
C890 C885 1.399 . S
C890 C889 1.394 . S
C890 C891 1.516 . S
C891 C890 1.516 . S
C891 C892 1.502 . S
C891 C893 1.561 . S
C891 C894 1.526 . S
C892 H876 0.959 . S
C892 H877 0.959 . S
C892 H878 0.961 . S
C892 C891 1.502 . S
C893 H879 0.960 . S
C893 H880 0.961 . S
C893 H881 0.959 . S
C893 C891 1.561 . S
C894 C891 1.526 . S
C894 C895 1.396 . S
C894 C899 1.390 . S
C895 C889 1.465 . S
C895 C894 1.396 . S
C895 C896 1.399 . S
C896 H882 0.929 . S
C896 C895 1.399 . S
C896 C897 1.385 . S
C897 H883 0.931 . S
C897 C896 1.385 . S
C897 C898 1.389 . S
C898 C897 1.389 . S
C898 C899 1.387 . S
C899 H884 0.930 . S
C899 C894 1.390 . S
C899 C898 1.387 . S
H900 C912 0.930 . S
H901 C914 0.930 . S
H902 C915 0.930 1_545 S
H903 C919 0.959 . S
H904 C919 0.959 . S
H905 C919 0.961 . S
H906 C920 0.960 . S
H907 C920 0.961 . S
H908 C920 0.959 . S
H909 C923 0.929 . S
H910 C924 0.931 . S
H911 C926 0.930 . S
C912 H900 0.930 . S
C912 C913 1.399 1_565 S
C912 C917 1.399 . S
C913 C912 1.399 1_545 S
C913 C914 1.376 . S
C914 H901 0.930 . S
C914 C913 1.376 . S
C914 C915 1.388 1_545 S
C915 H902 0.930 1_565 S
C915 C914 1.388 1_565 S
C915 C916 1.390 . S
C916 C915 1.390 . S
C916 C917 1.394 . S
C916 C922 1.465 . S
C917 C912 1.399 . S
C917 C916 1.394 . S
C917 C918 1.516 . S
C918 C917 1.516 . S
C918 C919 1.502 . S
C918 C920 1.561 . S
C918 C921 1.526 . S
C919 H903 0.959 . S
C919 H904 0.959 . S
C919 H905 0.961 . S
C919 C918 1.502 . S
C920 H906 0.960 . S
C920 H907 0.961 . S
C920 H908 0.959 . S
C920 C918 1.561 . S
C921 C918 1.526 . S
C921 C922 1.396 . S
C921 C926 1.390 . S
C922 C916 1.465 . S
C922 C921 1.396 . S
C922 C923 1.399 . S
C923 H909 0.929 . S
C923 C922 1.399 . S
C923 C924 1.385 . S
C924 H910 0.931 . S
C924 C923 1.385 . S
C924 C925 1.389 . S
C925 C924 1.389 . S
C925 C926 1.387 . S
C926 H911 0.930 . S
C926 C921 1.390 . S
C926 C925 1.387 . S
H927 C939 0.930 . S
H928 C941 0.930 . S
H929 C942 0.930 . S
H930 C946 0.959 . S
H931 C946 0.959 1_455 S
H932 C946 0.961 . S
H933 C947 0.960 . S
H934 C947 0.961 . S
H935 C947 0.959 . S
H936 C950 0.929 . S
H937 C951 0.931 . S
H938 C953 0.930 . S
C939 H927 0.930 . S
C939 C940 1.399 . S
C939 C944 1.399 . S
C940 C939 1.399 . S
C940 C941 1.376 . S
C941 H928 0.930 . S
C941 C940 1.376 . S
C941 C942 1.388 . S
C942 H929 0.930 . S
C942 C941 1.388 . S
C942 C943 1.390 . S
C943 C942 1.390 . S
C943 C944 1.394 . S
C943 C949 1.465 1_655 S
C944 C939 1.399 . S
C944 C943 1.394 . S
C944 C945 1.516 1_655 S
C945 C944 1.516 1_455 S
C945 C946 1.502 1_455 S
C945 C947 1.561 . S
C945 C948 1.526 . S
C946 H930 0.959 . S
C946 H931 0.959 1_655 S
C946 H932 0.961 . S
C946 C945 1.502 1_655 S
C947 H933 0.960 . S
C947 H934 0.961 . S
C947 H935 0.959 . S
C947 C945 1.561 . S
C948 C945 1.526 . S
C948 C949 1.396 . S
C948 C953 1.390 . S
C949 C943 1.465 1_455 S
C949 C948 1.396 . S
C949 C950 1.399 . S
C950 H936 0.929 . S
C950 C949 1.399 . S
C950 C951 1.385 . S
C951 H937 0.931 . S
C951 C950 1.385 . S
C951 C952 1.389 . S
C952 C951 1.389 . S
C952 C953 1.387 . S
C953 H938 0.930 . S
C953 C948 1.390 . S
C953 C952 1.387 . S
H954 C966 0.930 . S
H955 C968 0.930 . S
H956 C969 0.930 . S
H957 C973 0.959 . S
H958 C973 0.959 . S
H959 C973 0.961 . S
H960 C974 0.960 . S
H961 C974 0.961 . S
H962 C974 0.959 . S
H963 C977 0.929 . S
H964 C978 0.931 . S
H965 C980 0.930 . S
C966 H954 0.930 . S
C966 C967 1.399 . S
C966 C971 1.399 . S
C967 C966 1.399 . S
C967 C968 1.376 . S
C968 H955 0.930 . S
C968 C967 1.376 . S
C968 C969 1.388 . S
C969 H956 0.930 . S
C969 C968 1.388 . S
C969 C970 1.390 . S
C970 C969 1.390 . S
C970 C971 1.394 . S
C970 C976 1.465 . S
C971 C966 1.399 . S
C971 C970 1.394 . S
C971 C972 1.516 . S
C972 C971 1.516 . S
C972 C973 1.502 . S
C972 C974 1.561 . S
C972 C975 1.526 . S
C973 H957 0.959 . S
C973 H958 0.959 . S
C973 H959 0.961 . S
C973 C972 1.502 . S
C974 H960 0.960 . S
C974 H961 0.961 . S
C974 H962 0.959 . S
C974 C972 1.561 . S
C975 C972 1.526 . S
C975 C976 1.396 . S
C975 C980 1.390 . S
C976 C970 1.465 . S
C976 C975 1.396 . S
C976 C977 1.399 . S
C977 H963 0.929 . S
C977 C976 1.399 . S
C977 C978 1.385 . S
C978 H964 0.931 . S
C978 C977 1.385 . S
C978 C979 1.389 . S
C979 C978 1.389 . S
C979 C980 1.387 . S
C980 H965 0.930 . S
C980 C975 1.390 . S
C980 C979 1.387 . S
H981 C993 0.930 . S
H982 C995 0.930 . S
H983 C996 0.930 . S
H984 C1000 0.959 . S
H985 C1000 0.959 . S
H986 C1000 0.961 . S
H987 C1001 0.960 . S
H988 C1001 0.961 . S
H989 C1001 0.959 . S
H990 C1004 0.929 . S
H991 C1005 0.931 . S
H992 C1007 0.930 . S
C993 H981 0.930 . S
C993 C994 1.399 . S
C993 C998 1.399 . S
C994 C993 1.399 . S
C994 C995 1.376 . S
C995 H982 0.930 . S
C995 C994 1.376 . S
C995 C996 1.388 . S
C996 H983 0.930 . S
C996 C995 1.388 . S
C996 C997 1.390 . S
C997 C996 1.390 . S
C997 C998 1.394 . S
C997 C1003 1.465 . S
C998 C993 1.399 . S
C998 C997 1.394 . S
C998 C999 1.516 . S
C999 C998 1.516 . S
C999 C1000 1.502 . S
C999 C1001 1.561 . S
C999 C1002 1.526 . S
C1000 H984 0.959 . S
C1000 H985 0.959 . S
C1000 H986 0.961 . S
C1000 C999 1.502 . S
C1001 H987 0.960 . S
C1001 H988 0.961 . S
C1001 H989 0.959 . S
C1001 C999 1.561 . S
C1002 C999 1.526 . S
C1002 C1003 1.396 . S
C1002 C1007 1.390 . S
C1003 C997 1.465 . S
C1003 C1002 1.396 . S
C1003 C1004 1.399 1_565 S
C1004 H990 0.929 . S
C1004 C1003 1.399 1_545 S
C1004 C1005 1.385 . S
C1005 H991 0.931 . S
C1005 C1004 1.385 . S
C1005 C1006 1.389 . S
C1006 C1005 1.389 . S
C1006 C1007 1.387 1_545 S
C1007 H992 0.930 . S
C1007 C1002 1.390 . S
C1007 C1006 1.387 1_565 S
H1008 C1020 0.930 . S
H1009 C1022 0.930 . S
H1010 C1023 0.930 . S
H1011 C1027 0.959 . S
H1012 C1027 0.959 . S
H1013 C1027 0.961 . S
H1014 C1028 0.960 . S
H1015 C1028 0.961 . S
H1016 C1028 0.959 . S
H1017 C1031 0.929 1_655 S
H1018 C1032 0.931 . S
H1019 C1034 0.930 . S
C1020 H1008 0.930 . S
C1020 C1021 1.399 . S
C1020 C1025 1.399 . S
C1021 C1020 1.399 . S
C1021 C1022 1.376 . S
C1022 H1009 0.930 . S
C1022 C1021 1.376 . S
C1022 C1023 1.388 . S
C1023 H1010 0.930 . S
C1023 C1022 1.388 . S
C1023 C1024 1.390 . S
C1024 C1023 1.390 . S
C1024 C1025 1.394 . S
C1024 C1030 1.465 1_655 S
C1025 C1020 1.399 . S
C1025 C1024 1.394 . S
C1025 C1026 1.516 1_655 S
C1026 C1025 1.516 1_455 S
C1026 C1027 1.502 . S
C1026 C1028 1.561 . S
C1026 C1029 1.526 . S
C1027 H1011 0.959 . S
C1027 H1012 0.959 . S
C1027 H1013 0.961 . S
C1027 C1026 1.502 . S
C1028 H1014 0.960 . S
C1028 H1015 0.961 . S
C1028 H1016 0.959 . S
C1028 C1026 1.561 . S
C1029 C1026 1.526 . S
C1029 C1030 1.396 . S
C1029 C1034 1.390 . S
C1030 C1024 1.465 1_455 S
C1030 C1029 1.396 . S
C1030 C1031 1.399 . S
C1031 H1017 0.929 1_455 S
C1031 C1030 1.399 . S
C1031 C1032 1.385 . S
C1032 H1018 0.931 . S
C1032 C1031 1.385 . S
C1032 C1033 1.389 . S
C1033 C1032 1.389 . S
C1033 C1034 1.387 . S
C1034 H1019 0.930 . S
C1034 C1029 1.390 . S
C1034 C1033 1.387 . S
C319 C4 0.663 . S
C331 C13 0.588 . S
C346 C47 0.719 . S
C358 C38 0.506 . S
C373 C72 0.517 . S
C385 C81 0.602 . S
C400 C115 0.762 . S
C412 C106 0.496 . S
C427 C140 0.718 . S
C439 C149 0.465 . S
C454 C183 0.660 . S
C466 C174 0.458 . S
C481 C233 3.287 . S
C493 C204 3.288 . S
C508 C238 3.305 . S
C520 C267 3.279 . S
C535 C301 3.293 . S
C547 C272 3.311 . S
C562 C187 1.679 . S
C574 C29 1.630 . S
C589 C51 1.657 . S
C601 C119 1.676 . S
C616 C97 1.671 . S
C628 C165 1.669 . S
C643 C85 1.657 . S
C655 C212 1.646 . S
C670 C251 1.085 . S
C682 C17 1.065 1_656 S
C697 C280 1.418 . S
C709 C63 1.394 . S
C724 C276 1.064 . S
C736 C0 1.038 1_655 S
C751 C42 1.170 1_556 S
C763 C208 1.188 . S
C778 C255 1.588 . S
C790 C68 1.552 . S
C805 C76 1.664 . S
C817 C102 1.639 . S
C832 C144 1.659 . S
C844 C8 1.660 . S
C859 C34 1.645 . S
C871 C170 1.702 . S
C886 C285 1.002 . S
C898 C131 1.072 . S
C913 C217 1.193 . S
C925 C153 1.224 . S
C940 C246 1.592 . S
C952 C199 1.583 . S
C967 C221 1.658 . S
C979 C178 1.619 . S
C994 C110 1.122 . S
C1006 C242 1.081 . S
C1021 C289 1.378 . S
C1033 C136 1.412 . S
