# Generated by pormake.
# Topology nbo, (4)-cn, num edge types: 1
# Building blocks:
#     Node 0, Type 0, BuildingBlock: NAWXER_clean_sbu_0, # of connection points: 4
#     Node 1, Type 0, BuildingBlock: NAWXER_clean_sbu_0, # of connection points: 4
#     Node 2, Type 0, BuildingBlock: NAWXER_clean_sbu_0, # of connection points: 4
#     Node 3, Type 0, BuildingBlock: NAWXER_clean_sbu_0, # of connection points: 4
#     Node 4, Type 0, BuildingBlock: NAWXER_clean_sbu_0, # of connection points: 4
#     Node 5, Type 0, BuildingBlock: NAWXER_clean_sbu_0, # of connection points: 4
#     Edge 6, Type (0, 0), BuildingBlock: FUNLAD_clean_linker_1, # of connection points: 2
#     Edge 7, Type (0, 0), BuildingBlock: FUNLAD_clean_linker_1, # of connection points: 2
#     Edge 8, Type (0, 0), BuildingBlock: FUNLAD_clean_linker_1, # of connection points: 2
#     Edge 9, Type (0, 0), BuildingBlock: FUNLAD_clean_linker_1, # of connection points: 2
#     Edge 10, Type (0, 0), BuildingBlock: FUNLAD_clean_linker_1, # of connection points: 2
#     Edge 11, Type (0, 0), BuildingBlock: FUNLAD_clean_linker_1, # of connection points: 2
#     Edge 12, Type (0, 0), BuildingBlock: FUNLAD_clean_linker_1, # of connection points: 2
#     Edge 13, Type (0, 0), BuildingBlock: FUNLAD_clean_linker_1, # of connection points: 2
#     Edge 14, Type (0, 0), BuildingBlock: FUNLAD_clean_linker_1, # of connection points: 2
#     Edge 15, Type (0, 0), BuildingBlock: FUNLAD_clean_linker_1, # of connection points: 2
#     Edge 16, Type (0, 0), BuildingBlock: FUNLAD_clean_linker_1, # of connection points: 2
#     Edge 17, Type (0, 0), BuildingBlock: FUNLAD_clean_linker_1, # of connection points: 2
# Relax obj value: 0.000
# Max RMSD: 0.000
# Mean RMSD: 0.000
data_MOF--net-nbo--node1-NAWXER_clean_sbu_0--edge1-FUNLAD_clean_linker_1
_symmetry_space_group_name_H-M    P1
_symmetry_Int_Tables_number       1
_symmetry_cell_setting            triclinic
loop_
_symmetry_equiv_pos_as_xyz
'x, y, z'
_cell_length_a     30.320255
_cell_length_b     30.42136
_cell_length_c     30.381622
_cell_angle_alpha  97.471154
_cell_angle_beta   97.987356
_cell_angle_gamma 97.010455
loop_
_atom_site_label
_atom_site_type_symbol
_atom_site_fract_x
_atom_site_fract_y
_atom_site_fract_z
_atom_type_partial_charge
C0 C 0.03499 0.12755 0.55716 0.0
C1 C 0.02574 0.96652 0.55945 0.0
O2 O 0.02434 0.10416 0.51803 0.0
Zn3 Zn 1.01431 0.03556 0.48819 0.0
O4 O 0.04424 0.10833 0.59133 0.0
Zn5 Zn 0.03333 0.04732 0.55973 0.0
O6 O 0.0881 0.04427 0.52285 0.0
O7 O 0.06087 0.03192 0.45044 0.0
O8 O 0.03789 0.99744 0.5929 0.0
O9 O 1.0164 0.97659 0.51982 0.0
O10 O 0.9517 0.02934 0.4612 0.0
O11 O 0.96252 0.03908 0.53564 0.0
C12 C 0.0944 0.03813 0.48178 0.0
C13 C 0.93601 0.03314 0.49804 0.0
C14 C 0.47247 0.06359 0.01721 0.0
C15 C 0.47345 0.90168 1.00261 0.0
O16 O 0.5119 0.05238 0.01708 0.0
Zn17 Zn 0.5426 0.9923 1.01057 0.0
O18 O 0.43839 0.03343 1.01144 0.0
Zn19 Zn 0.47089 0.98237 1.00647 0.0
O20 O 0.50893 0.98994 0.07253 0.0
O21 O 0.5816 1.00037 0.06821 0.0
O22 O 0.43909 0.92188 1.00013 0.0
O23 O 0.51274 0.92408 1.00607 0.0
O24 O 0.56806 0.99336 0.95523 0.0
O25 O 0.49382 0.9851 0.94365 0.0
C26 C 0.5501 0.99644 0.09169 0.0
C27 C 0.53116 0.98916 0.92844 0.0
C28 C 0.08328 0.47873 1.01246 0.0
C29 C 0.92841 0.50791 1.00817 0.0
O30 O 0.04762 0.4505 1.00489 0.0
Zn31 Zn 1.00678 0.49337 1.01342 0.0
O32 O 0.08103 0.52054 0.02354 0.0
Zn33 Zn 0.02846 0.56225 0.0318 0.0
O34 O 0.04147 0.58883 0.09391 0.0
O35 O 0.02143 0.51568 0.08556 0.0
O36 O 0.9563 0.54412 0.0201 0.0
O37 O 0.94319 0.47082 1.00089 0.0
O38 O 1.01745 0.53048 0.95845 0.0
O39 O 0.03869 0.6014 0.98813 0.0
C40 C 0.03437 0.55342 0.11122 0.0
C41 C 0.03024 0.57125 0.95388 0.0
C42 C 0.51953 0.5739 0.04852 0.0
C43 C 0.51231 0.41401 0.05886 0.0
O44 O 0.50756 0.54872 1.01038 0.0
Zn45 Zn 0.49792 0.47871 0.98393 0.0
O46 O 0.53031 0.55653 0.08363 0.0
Zn47 Zn 0.51872 0.49447 0.05517 0.0
O48 O 0.57259 0.48975 0.01729 0.0
O49 O 0.54397 0.47342 0.94537 0.0
O50 O 0.52465 0.44628 0.09099 0.0
O51 O 0.50205 0.42223 0.01867 0.0
O52 O 0.4344 0.46896 0.95845 0.0
O53 O 0.44748 0.48601 0.03259 0.0
C54 C 0.57812 0.4815 0.97613 0.0
C55 C 0.41981 0.47641 0.99566 0.0
C56 C 0.98434 0.61668 0.52264 0.0
C57 C 0.98723 0.45587 0.51724 0.0
O58 O 0.02402 0.60649 0.53204 0.0
Zn59 Zn 0.05591 0.54792 0.53662 0.0
O60 O 0.9508 0.58585 0.51171 0.0
Zn61 Zn 0.98418 0.53586 0.51731 0.0
O62 O 1.00795 0.54522 0.58821 0.0
O63 O 0.08237 0.55807 0.59999 0.0
O64 O 0.95296 0.47488 0.5069 0.0
O65 O 0.02623 0.47936 0.5283 0.0
O66 O 0.09356 0.54831 0.48944 0.0
O67 O 0.02106 0.53714 0.46246 0.0
C68 C 0.0453 0.55342 0.61529 0.0
C69 C 0.06212 0.54207 0.45595 0.0
C70 C 0.60476 0.05983 0.5186 0.0
C71 C 0.44264 0.05 0.5117 0.0
O72 O 0.58516 0.01913 0.51177 0.0
Zn73 Zn 0.51748 0.98433 0.5059 0.0
O74 O 0.58202 0.09178 0.52534 0.0
Zn75 Zn 0.52452 0.05482 0.51848 0.0
O76 O 0.5298 0.02313 0.57806 0.0
O77 O 0.52159 0.95035 0.55513 0.0
O78 O 0.47213 0.08455 0.52055 0.0
O79 O 0.4549 1.01103 0.50582 0.0
O80 O 0.50972 0.95166 0.44606 0.0
O81 O 0.51849 0.02528 0.44875 0.0
C82 C 0.52824 0.98293 0.58698 0.0
C83 C 0.51365 0.98581 0.42616 0.0
H84 H 0.04692 0.19656 0.59485 0.0
C85 C 0.03458 0.17643 0.56222 0.0
H86 H 1.00608 0.17595 0.49453 0.0
H87 H 0.95912 0.37036 0.58807 0.0
H88 H 0.9099 0.32649 0.62756 0.0
H89 H 0.90809 0.24462 0.62173 0.0
H90 H 0.95629 0.20631 0.57724 0.0
C91 C 1.01795 0.19587 0.52736 0.0
C92 C 1.01782 0.24502 0.53051 0.0
C93 C 0.98825 0.26661 0.55546 0.0
C94 C 0.9878 0.31355 0.55716 0.0
C95 C 0.95968 0.33462 0.58422 0.0
C96 C 0.93139 0.30984 0.60728 0.0
C97 C 0.93048 0.26377 0.60412 0.0
C98 C 0.95851 0.24222 0.5786 0.0
H99 H 0.95076 0.38649 0.50226 0.0
C100 C 0.98259 0.40695 0.51707 0.0
H101 H 0.04917 0.40813 0.54935 0.0
H102 H 0.07818 0.21382 0.47926 0.0
H103 H 0.12478 0.25695 0.4368 0.0
H104 H 0.12163 0.33762 0.43704 0.0
H105 H 0.07203 0.37568 0.47988 0.0
C106 C 1.01716 0.38771 0.53506 0.0
C107 C 1.01559 0.33836 0.53238 0.0
C108 C 0.04444 0.3165 0.50672 0.0
C109 C 0.0457 0.26987 0.50595 0.0
C110 C 0.07535 0.24907 0.48054 0.0
C111 C 0.10241 0.27344 0.45609 0.0
C112 C 0.10069 0.31886 0.45628 0.0
C113 C 0.07214 0.34032 0.4812 0.0
H114 H 0.8757 0.02367 0.5297 0.0
C115 C 0.88771 0.03211 0.4993 0.0
H116 H 0.87082 0.05551 0.43747 0.0
H117 H 0.66174 0.99014 0.43121 0.0
H118 H 0.67699 0.94741 0.36337 0.0
H119 H 0.75412 0.95059 0.34569 0.0
H120 H 0.81664 0.99698 0.39575 0.0
C121 C 0.85951 0.04627 0.46785 0.0
C122 C 0.81225 0.04961 0.47475 0.0
C123 C 0.77622 0.02228 0.44525 0.0
C124 C 0.73188 0.01971 0.45599 0.0
C125 C 0.69632 0.9926 0.42544 0.0
C126 C 0.70451 0.96805 0.38616 0.0
C127 C 0.74796 0.96986 0.37621 0.0
C128 C 0.78355 0.99658 0.40528 0.0
H129 H 0.6666 0.10375 0.51248 0.0
C130 C 0.65269 0.0695 0.51433 0.0
H131 H 0.66374 1.00214 0.51019 0.0
H132 H 0.87118 0.11516 0.53116 0.0
H133 H 0.85707 0.15721 0.60012 0.0
H134 H 0.78266 0.14539 0.62432 0.0
H135 H 0.7217 0.09291 0.57903 0.0
C136 C 0.67818 0.03652 0.50954 0.0
C137 C 0.72389 0.04376 0.49676 0.0
C138 C 0.75973 0.07273 0.52531 0.0
C139 C 0.8035 0.07708 0.51316 0.0
C140 C 0.83798 0.10875 0.54026 0.0
C141 C 0.83024 0.13334 0.5797 0.0
C142 C 0.78829 0.12687 0.59317 0.0
C143 C 0.75339 0.09686 0.56655 0.0
H144 H 0.9454 0.67239 0.51106 0.0
C145 C 0.97813 0.66421 0.52411 0.0
H146 H 0.0455 0.68899 0.55291 0.0
H147 H 0.06259 0.87135 0.4795 0.0
H148 H 0.10761 0.82961 0.43409 0.0
H149 H 0.10766 0.74865 0.435 0.0
H150 H 0.06297 0.70906 0.48162 0.0
C151 C 1.01254 0.69715 0.54058 0.0
C152 C 1.00923 0.74514 0.53801 0.0
C153 C 0.03504 0.76766 0.51001 0.0
C154 C 0.03428 0.8141 0.50877 0.0
C155 C 0.06118 0.8359 0.48118 0.0
C156 C 0.08735 0.81238 0.455 0.0
C157 C 0.08745 0.76684 0.45559 0.0
C158 C 0.0617 0.74456 0.48266 0.0
H159 H 0.0364 0.91088 0.59834 0.0
C160 C 0.02309 0.91901 0.56575 0.0
H161 H 0.99294 0.89405 0.49882 0.0
H162 H 0.95906 0.71321 0.59848 0.0
H163 H 0.912 0.75433 0.642 0.0
H164 H 0.90654 0.83361 0.63584 0.0
H165 H 0.94882 0.87249 0.58681 0.0
C166 C 1.00549 0.88599 0.53167 0.0
C167 C 1.00729 0.8379 0.53513 0.0
C168 C 0.98102 0.8153 0.56275 0.0
C169 C 0.98267 0.76903 0.56486 0.0
C170 C 0.95789 0.74784 0.5944 0.0
C171 C 0.93089 0.77113 0.61975 0.0
C172 C 0.92792 0.8158 0.61639 0.0
C173 C 0.95257 0.83779 0.58826 0.0
H174 H 0.38588 0.08739 0.5214 0.0
C175 C 0.39456 0.05501 0.50869 0.0
H176 H 0.37018 0.98859 0.47805 0.0
H177 H 0.182 0.97663 0.54368 0.0
H178 H 0.21702 0.92102 0.58092 0.0
H179 H 0.29658 0.91297 0.57808 0.0
H180 H 0.34143 0.96009 0.53763 0.0
C181 C 0.36168 0.02112 0.49053 0.0
C182 C 0.31322 0.02548 0.49074 0.0
C183 C 0.28759 0.99788 0.51497 0.0
C184 C 0.24203 1.00325 0.51753 0.0
C185 C 0.21703 0.9747 0.5414 0.0
C186 C 0.23665 0.94248 0.56282 0.0
C187 C 0.2814 0.93789 0.56115 0.0
C188 C 0.30675 0.96516 0.53764 0.0
H189 H 0.1447 0.02555 0.43685 0.0
C190 C 0.14037 0.03609 0.47137 0.0
H191 H 0.17181 0.05441 0.53884 0.0
H192 H 0.34968 0.0777 0.43412 0.0
H193 H 0.31517 0.13446 0.39819 0.0
H194 H 0.23854 0.14851 0.40837 0.0
H195 H 0.19556 0.10517 0.45359 0.0
C196 C 0.17636 0.04502 0.50417 0.0
C197 C 0.22229 0.03671 0.49654 0.0
C198 C 0.24752 0.06362 0.47137 0.0
C199 C 0.29264 0.05716 0.46748 0.0
C200 C 0.31615 0.08266 0.44 0.0
C201 C 0.29659 0.11511 0.41887 0.0
C202 C 0.25338 0.1229 0.42446 0.0
C203 C 0.22898 0.09759 0.45037 0.0
H204 H 0.50046 0.94837 0.35715 0.0
C205 C 0.51492 0.98026 0.37753 0.0
H206 H 0.55052 0.04471 0.37933 0.0
H207 H 0.57227 0.92779 0.18227 0.0
H208 H 0.61095 0.87888 0.22615 0.0
H209 H 0.61824 0.89032 0.30884 0.0
H210 H 0.58636 0.95037 0.3481 0.0
C211 C 0.53565 1.01302 0.35876 0.0
C212 C 0.53642 1.00889 0.30955 0.0
C213 C 0.55771 0.97523 0.28746 0.0
C214 C 0.55538 0.96993 0.23993 0.0
C215 C 0.57429 0.93428 0.21838 0.0
C216 C 0.59649 0.90584 0.24316 0.0
C217 C 0.60048 0.9122 0.28971 0.0
C218 C 0.58161 0.94656 0.31181 0.0
H219 H 0.59468 1.00963 0.15786 0.0
C220 C 0.56015 0.99992 0.14105 0.0
H221 H 0.49208 0.98331 0.1484 0.0
H222 H 0.49406 0.07841 0.34155 0.0
H223 H 0.45949 0.12998 0.29802 0.0
H224 H 0.45919 0.12323 0.21617 0.0
H225 H 0.49318 0.06455 0.17737 0.0
C226 C 0.52674 0.99206 0.16514 0.0
C227 C 0.53374 0.99968 0.21499 0.0
C228 C 0.51471 0.03483 0.23736 0.0
C229 C 0.51575 0.03927 0.28463 0.0
C230 C 0.49509 0.07386 0.30582 0.0
C231 C 0.47495 0.10369 0.28121 0.0
C232 C 0.47469 0.09984 0.23513 0.0
C233 C 0.49422 0.06588 0.21328 0.0
H234 H 0.03813 0.58892 0.17995 0.0
C235 C 0.03966 0.55659 0.16067 0.0
H236 H 0.04864 0.48937 0.16307 0.0
H237 H 0.10508 0.60752 0.37277 0.0
H238 H 0.16168 0.6529 0.34288 0.0
H239 H 0.16976 0.63812 0.26283 0.0
H240 H 0.1201 0.5788 0.21193 0.0
C241 C 0.04691 0.52164 0.18234 0.0
C242 C 0.04886 0.52482 0.23224 0.0
C243 C 0.08047 0.55735 0.26232 0.0
C244 C 0.07803 0.56367 0.30923 0.0
C245 C 0.10702 0.59941 0.33748 0.0
C246 C 0.13952 0.62602 0.32066 0.0
C247 C 0.14391 0.61786 0.27556 0.0
C248 C 0.11487 0.58397 0.2466 0.0
H249 H 0.10585 0.53416 0.40336 0.0
C250 C 0.07228 0.53944 0.40944 0.0
H251 H 1.00679 0.54766 0.38144 0.0
H252 H 0.98473 0.45741 0.18487 0.0
H253 H 0.93314 0.4073 0.21573 0.0
H254 H 0.93361 0.41376 0.29754 0.0
H255 H 0.98528 0.47089 0.34893 0.0
C256 C 0.04034 0.54277 0.37488 0.0
C257 C 0.04636 0.535 0.32659 0.0
C258 C 1.01712 0.50027 0.2969 0.0
C259 C 1.01786 0.49561 0.24976 0.0
C260 C 0.9866 0.46195 0.22099 0.0
C261 C 0.95659 0.43292 0.23825 0.0
C262 C 0.95677 0.43663 0.28428 0.0
C263 C 0.98653 0.46979 0.31339 0.0
H264 H 0.54123 0.94087 0.64002 0.0
C265 C 0.53531 0.97426 0.63394 0.0
H266 H 0.52897 0.03955 0.66283 0.0
H267 H 0.50936 0.91127 0.82538 0.0
H268 H 0.44698 0.86548 0.77459 0.0
H269 H 0.42562 0.8821 0.69778 0.0
H270 H 0.46753 0.94324 0.67083 0.0
C271 C 0.53422 1.00599 0.66884 0.0
C272 C 0.54353 0.99799 0.71652 0.0
C273 C 0.51639 0.96402 0.73262 0.0
C274 C 0.52619 0.95684 0.77809 0.0
C275 C 0.50142 0.92002 0.79209 0.0
C276 C 0.46581 0.89321 0.76316 0.0
C277 C 0.45397 0.90239 0.71985 0.0
C278 C 0.47873 0.93738 0.70462 0.0
H279 H 0.49768 0.99433 0.86098 0.0
C280 C 0.52966 0.99005 0.87991 0.0
H281 H 0.59698 0.98071 0.87636 0.0
H282 H 0.60439 0.06376 0.6963 0.0
H283 H 0.6639 0.11188 0.74845 0.0
H284 H 0.67615 0.10388 0.8288 0.0
H285 H 0.62943 0.04721 0.85737 0.0
C286 C 0.56462 0.98458 0.85802 0.0
C287 C 0.56006 0.98641 0.80866 0.0
C288 C 0.58738 0.02007 0.79257 0.0
C289 C 0.5795 0.02547 0.7464 0.0
C290 C 0.60806 0.05876 0.73116 0.0
C291 C 0.64252 0.08657 0.76071 0.0
C292 C 0.64946 0.08202 0.80594 0.0
C293 C 0.62235 0.04927 0.82188 0.0
H294 H 1.0104 0.54734 0.67306 0.0
C295 C 0.04332 0.55638 0.66375 0.0
H296 H 0.11222 0.57851 0.68823 0.0
H297 H 0.98132 0.60997 0.84982 0.0
H298 H 0.95141 0.66455 0.80716 0.0
H299 H 0.97859 0.67916 0.73684 0.0
H300 H 0.03504 0.63814 0.70822 0.0
C301 C 0.07878 0.5701 0.69646 0.0
C302 C 0.07256 0.57105 0.74452 0.0
C303 C 0.04207 0.59762 0.7626 0.0
C304 C 0.02857 0.59125 0.80463 0.0
C305 C 0.99475 0.61511 0.81947 0.0
C306 C 0.97695 0.64635 0.79507 0.0
C307 C 0.99208 0.65442 0.75538 0.0
C308 C 0.02421 0.63041 0.73916 0.0
H309 H 0.0532 0.61673 0.90789 0.0
C310 C 0.039 0.58256 0.90976 0.0
H311 H 0.02029 0.51673 0.87527 0.0
H312 H 0.13599 0.51899 0.72225 0.0
H313 H 0.17102 0.46902 0.76776 0.0
H314 H 0.15101 0.46102 0.84256 0.0
H315 H 0.09585 0.50281 0.87231 0.0
C316 C 0.0328 0.55127 0.87301 0.0
C317 C 0.04809 0.56056 0.83009 0.0
C318 C 0.0814 0.53677 0.81364 0.0
C319 C 0.09348 0.54187 0.77076 0.0
C320 C 0.1258 0.51665 0.75469 0.0
C321 C 0.14619 0.48784 0.78048 0.0
C322 C 0.13486 0.48326 0.82255 0.0
C323 C 0.10298 0.50739 0.83915 0.0
H324 H 0.12653 0.4287 0.99206 0.0
C325 C 0.12642 0.46385 1.00446 0.0
H326 H 0.16391 0.52849 0.01946 0.0
H327 H 0.32463 0.3972 1.01177 0.0
H328 H 0.29521 0.36261 0.07137 0.0
H329 H 0.22605 0.38309 0.09781 0.0
H330 H 0.18532 0.43716 0.06411 0.0
C331 C 0.16439 0.49304 1.00888 0.0
C332 C 0.20629 0.47991 0.99376 0.0
C333 C 0.23059 0.44956 0.01535 0.0
C334 C 0.27197 0.43981 1.00209 0.0
C335 C 0.29426 0.40743 0.02221 0.0
C336 C 0.27755 0.38708 0.05617 0.0
C337 C 0.23852 0.39846 0.0709 0.0
C338 C 0.21523 0.42937 0.05096 0.0
H339 H 0.36283 0.48719 0.03076 0.0
C340 C 0.37155 0.47545 0.99813 0.0
H341 H 0.3461 0.44963 0.93017 0.0
H342 H 0.16581 0.53547 0.94181 0.0
H343 H 0.19619 0.57064 0.88321 0.0
H344 H 0.26994 0.55683 0.8633 0.0
H345 H 0.31379 0.50773 0.90189 0.0
C346 C 0.33836 0.46074 0.96332 0.0
C347 C 0.29059 0.46271 0.96958 0.0
C348 C 0.26531 0.4913 0.94651 0.0
C349 C 0.22305 0.49976 0.95848 0.0
C350 C 0.19849 0.52849 0.9348 0.0
C351 C 0.21546 0.54881 0.90094 0.0
C352 C 0.25694 0.54098 0.88967 0.0
C353 C 0.28178 0.5127 0.91213 0.0
H354 H 0.5276 0.36011 0.09889 0.0
C355 C 0.51103 0.36702 0.06696 0.0
H356 H 0.47525 0.34015 1.00258 0.0
H357 H 0.54602 0.15763 0.97261 0.0
H358 H 0.58375 0.19863 0.92204 0.0
H359 H 0.58256 0.27981 0.92429 0.0
H360 H 0.54327 0.32036 0.97685 0.0
C361 C 0.49125 0.333 0.03466 0.0
C362 C 0.4957 0.28524 0.03771 0.0
C363 C 0.51963 0.26213 1.00737 0.0
C364 C 0.52123 0.21556 1.0068 0.0
C365 C 0.5444 0.19319 0.97522 0.0
C366 C 0.56614 0.21628 0.94583 0.0
C367 C 0.56538 0.26195 0.94702 0.0
C368 C 0.54249 0.28477 0.97731 0.0
H369 H 0.43348 0.12066 0.01605 0.0
C370 C 0.46699 0.11151 0.02332 0.0
H371 H 0.53634 0.13446 0.04339 0.0
H372 H 0.44461 0.31851 0.09836 0.0
H373 H 0.41025 0.27838 0.15175 0.0
H374 H 0.41786 0.19893 0.15461 0.0
H375 H 0.45901 0.15886 0.1034 0.0
C376 C 0.50278 0.14365 0.03664 0.0
C377 C 0.4995 0.19216 0.0371 0.0
C378 C 0.4767 0.2155 0.06842 0.0
C379 C 0.47401 0.26192 0.06811 0.0
C380 C 0.44904 0.28376 0.09813 0.0
C381 C 0.42896 0.26105 0.12884 0.0
C382 C 0.43312 0.21628 0.13035 0.0
C383 C 0.45666 0.1936 0.10059 0.0
H384 H 0.86888 0.5414 0.01668 0.0
C385 C 0.87955 0.50998 1.00395 0.0
H386 H 0.85865 0.4431 0.97296 0.0
H387 H 0.66901 0.42143 0.03612 0.0
H388 H 0.70671 0.36767 0.07385 0.0
H389 H 0.78714 0.36344 0.07182 0.0
H390 H 0.83023 0.41258 0.03176 0.0
C391 C 0.84827 0.47479 0.98523 0.0
C392 C 0.79911 0.47657 0.98466 0.0
C393 C 0.77441 0.44769 1.00851 0.0
C394 C 0.72825 0.4508 1.01054 0.0
C395 C 0.70436 0.42117 0.03423 0.0
C396 C 0.72553 0.39 0.05591 0.0
C397 C 0.77077 0.38756 0.05469 0.0
C398 C 0.7951 0.41598 0.03141 0.0
H399 H 0.62794 0.46868 0.93054 0.0
C400 C 0.62402 0.47972 0.96508 0.0
H401 H 0.65637 0.49974 0.03206 0.0
H402 H 0.83363 0.53072 0.92868 0.0
H403 H 0.79627 0.58539 0.89202 0.0
H404 H 0.71823 0.59516 0.9008 0.0
H405 H 0.67674 0.54965 0.9454 0.0
C406 C 0.66051 0.48994 0.99734 0.0
C407 C 0.70684 0.48319 0.9893 0.0
C408 C 0.73109 0.51117 0.96429 0.0
C409 C 0.77693 0.50709 0.96107 0.0
C410 C 0.79954 0.53381 0.93396 0.0
C411 C 0.77836 0.56509 0.91243 0.0
C412 C 0.73437 0.57048 0.91724 0.0
C413 C 0.71085 0.54397 0.94283 0.0
H414 H 0.53561 0.64432 0.0824 0.0
C415 C 0.51973 0.62282 0.05145 0.0
H416 H 0.48432 0.61927 0.98587 0.0
H417 H 0.46142 0.82363 0.0818 0.0
H418 H 0.42172 0.78667 0.13379 0.0
H419 H 0.41584 0.70483 0.13177 0.0
H420 H 0.45063 0.65965 0.07853 0.0
C421 C 0.49986 0.64078 0.01694 0.0
C422 C 0.50123 0.69002 0.01754 0.0
C423 C 0.47879 0.71562 0.04753 0.0
C424 C 0.48008 0.76254 0.04706 0.0
C425 C 0.45989 0.7877 0.0793 0.0
C426 C 0.43718 0.76693 0.10957 0.0
C427 C 0.43403 0.72087 0.10855 0.0
C428 C 0.45445 0.69535 0.07796 0.0
H429 H 0.43524 0.83346 0.99564 0.0
C430 C 0.46865 0.85284 1.00333 0.0
H431 H 0.53822 0.85182 0.02206 0.0
H432 H 0.5482 0.65111 0.95587 0.0
H433 H 0.58495 0.68751 0.90162 0.0
H434 H 0.58353 0.76787 0.89802 0.0
H435 H 0.54562 0.81237 0.94888 0.0
C436 C 0.50475 0.83254 1.0148 0.0
C437 C 0.50178 0.78332 0.01503 0.0
C438 C 0.52346 0.75753 0.98455 0.0
C439 C 0.52346 0.71099 0.98601 0.0
C440 C 0.54633 0.68639 0.95576 0.0
C441 C 0.56775 0.70689 0.9245 0.0
C442 C 0.56702 0.75214 0.92253 0.0
C443 C 0.54522 0.77732 0.95208 0.0
loop_
_geom_bond_atom_site_label_1
_geom_bond_atom_site_label_2
_geom_bond_distance
_geom_bond_site_symmetry_2
_ccdc_geom_bond_type
C0 O2 1.247 1_455 S
C0 O4 1.258 . S
C1 O8 1.247 1_655 S
C1 O9 1.258 . S
O2 C0 1.247 1_655 S
O2 Zn3 2.028 1_545 S
Zn3 O2 2.028 1_565 S
Zn3 O7 2.035 1_655 S
Zn3 O9 2.035 . S
Zn3 O10 2.028 . S
O4 C0 1.258 . S
O4 Zn5 2.035 . S
Zn5 O4 2.035 . S
Zn5 O6 2.028 . S
Zn5 O8 2.028 1_545 S
Zn5 O11 2.035 1_455 S
O6 Zn5 2.028 . S
O6 C12 1.247 . S
O7 Zn3 2.035 1_455 S
O7 C12 1.258 1_565 S
O8 C1 1.247 1_455 S
O8 Zn5 2.028 1_565 S
O9 C1 1.258 . S
O9 Zn3 2.035 . S
O10 Zn3 2.028 . S
O10 C13 1.247 . S
O11 Zn5 2.035 1_655 S
O11 C13 1.258 1_545 S
C12 O6 1.247 . S
C12 O7 1.258 1_545 S
C13 O10 1.247 . S
C13 O11 1.258 1_565 S
C14 O16 1.247 . S
C14 O18 1.258 1_554 S
C15 O22 1.247 . S
C15 O23 1.258 1_556 S
O16 C14 1.247 . S
O16 Zn17 2.028 . S
Zn17 O16 2.028 . S
Zn17 O21 2.035 . S
Zn17 O23 2.035 1_545 S
Zn17 O24 2.028 1_554 S
O18 C14 1.258 1_556 S
O18 Zn19 2.035 1_545 S
Zn19 O18 2.035 1_565 S
Zn19 O20 2.028 1_556 S
Zn19 O22 2.028 . S
Zn19 O25 2.035 . S
O20 Zn19 2.028 1_554 S
O20 C26 1.247 1_565 S
O21 Zn17 2.035 . S
O21 C26 1.258 . S
O22 C15 1.247 . S
O22 Zn19 2.028 . S
O23 C15 1.258 1_554 S
O23 Zn17 2.035 1_565 S
O24 Zn17 2.028 1_556 S
O24 C27 1.247 1_545 S
O25 Zn19 2.035 . S
O25 C27 1.258 . S
C26 O20 1.247 1_545 S
C26 O21 1.258 . S
C27 O24 1.247 1_565 S
C27 O25 1.258 . S
C28 O30 1.247 1_554 S
C28 O32 1.258 . S
C29 O36 1.247 1_556 S
C29 O37 1.258 . S
O30 C28 1.247 1_556 S
O30 Zn31 2.028 1_455 S
Zn31 O30 2.028 1_655 S
Zn31 O35 2.035 1_556 S
Zn31 O37 2.035 . S
Zn31 O38 2.028 . S
O32 C28 1.258 . S
O32 Zn33 2.035 . S
Zn33 O32 2.035 . S
Zn33 O34 2.028 . S
Zn33 O36 2.028 1_455 S
Zn33 O39 2.035 1_554 S
O34 Zn33 2.028 . S
O34 C40 1.247 . S
O35 Zn31 2.035 1_554 S
O35 C40 1.258 1_655 S
O36 C29 1.247 1_554 S
O36 Zn33 2.028 1_655 S
O37 C29 1.258 . S
O37 Zn31 2.035 . S
O38 Zn31 2.028 . S
O38 C41 1.247 . S
O39 Zn33 2.035 1_556 S
O39 C41 1.258 1_455 S
C40 O34 1.247 . S
C40 O35 1.258 1_455 S
C41 O38 1.247 . S
C41 O39 1.258 1_655 S
C42 O44 1.246 . S
C42 O46 1.259 1_556 S
C43 O50 1.251 . S
C43 O51 1.254 1_554 S
O44 C42 1.246 . S
O44 Zn45 2.028 . S
Zn45 O44 2.028 . S
Zn45 O49 2.035 . S
Zn45 O51 2.035 . S
Zn45 O52 2.028 . S
O46 C42 1.259 1_554 S
O46 Zn47 2.035 . S
Zn47 O46 2.035 . S
Zn47 O48 2.028 . S
Zn47 O50 2.028 . S
Zn47 O53 2.035 . S
O48 Zn47 2.028 . S
O48 C54 1.251 . S
O49 Zn45 2.035 . S
O49 C54 1.254 1_556 S
O50 C43 1.251 . S
O50 Zn47 2.028 . S
O51 C43 1.254 1_556 S
O51 Zn45 2.035 . S
O52 Zn45 2.028 . S
O52 C55 1.245 . S
O53 Zn47 2.035 . S
O53 C55 1.259 1_554 S
C54 O48 1.251 . S
C54 O49 1.254 1_554 S
C55 O52 1.245 . S
C55 O53 1.259 1_556 S
C56 O58 1.251 . S
C56 O60 1.254 1_455 S
C57 O64 1.245 . S
C57 O65 1.259 1_655 S
O58 C56 1.251 . S
O58 Zn59 2.028 . S
Zn59 O58 2.028 . S
Zn59 O63 2.035 . S
Zn59 O65 2.035 . S
Zn59 O66 2.028 . S
O60 C56 1.254 1_655 S
O60 Zn61 2.035 . S
Zn61 O60 2.035 . S
Zn61 O62 2.028 . S
Zn61 O64 2.028 . S
Zn61 O67 2.035 . S
O62 Zn61 2.028 . S
O62 C68 1.246 . S
O63 Zn59 2.035 . S
O63 C68 1.259 1_455 S
O64 C57 1.245 . S
O64 Zn61 2.028 . S
O65 C57 1.259 1_455 S
O65 Zn59 2.035 . S
O66 Zn59 2.028 . S
O66 C69 1.251 . S
O67 Zn61 2.035 . S
O67 C69 1.254 1_655 S
C68 O62 1.246 . S
C68 O63 1.259 1_655 S
C69 O66 1.251 . S
C69 O67 1.254 1_455 S
C70 O72 1.246 . S
C70 O74 1.259 1_565 S
C71 O78 1.251 . S
C71 O79 1.254 1_545 S
O72 C70 1.246 . S
O72 Zn73 2.028 . S
Zn73 O72 2.028 . S
Zn73 O77 2.035 . S
Zn73 O79 2.035 . S
Zn73 O80 2.028 . S
O74 C70 1.259 1_545 S
O74 Zn75 2.035 . S
Zn75 O74 2.035 . S
Zn75 O76 2.028 . S
Zn75 O78 2.028 . S
Zn75 O81 2.035 . S
O76 Zn75 2.028 . S
O76 C82 1.251 . S
O77 Zn73 2.035 . S
O77 C82 1.254 1_565 S
O78 C71 1.251 . S
O78 Zn75 2.028 . S
O79 C71 1.254 1_565 S
O79 Zn73 2.035 . S
O80 Zn73 2.028 . S
O80 C83 1.245 . S
O81 Zn75 2.035 . S
O81 C83 1.259 1_545 S
C82 O76 1.251 . S
C82 O77 1.254 1_545 S
C83 O80 1.245 . S
C83 O81 1.259 1_565 S
H84 C85 0.951 . S
C85 H84 0.951 . S
C85 C91 1.265 1_455 S
H86 C91 0.950 . S
H87 C95 0.949 . S
H88 C96 0.950 . S
H89 C97 0.951 . S
H90 C98 0.951 . S
C91 C85 1.265 1_655 S
C91 H86 0.950 . S
C91 C92 1.478 . S
C92 C91 1.478 . S
C92 C93 1.397 . S
C92 C109 1.394 1_655 S
C93 C92 1.397 . S
C93 C94 1.438 . S
C93 C98 1.429 . S
C94 C93 1.438 . S
C94 C95 1.428 . S
C94 C107 1.394 1_655 S
C95 H87 0.949 . S
C95 C94 1.428 . S
C95 C96 1.345 . S
C96 H88 0.950 . S
C96 C95 1.345 . S
C96 C97 1.424 . S
C97 H89 0.951 . S
C97 C96 1.424 . S
C97 C98 1.347 . S
C98 H90 0.951 . S
C98 C93 1.429 . S
C98 C97 1.347 . S
H99 C100 0.951 . S
C100 H99 0.951 . S
C100 C106 1.265 1_655 S
H101 C106 0.950 . S
H102 C110 0.949 . S
H103 C111 0.950 . S
H104 C112 0.951 . S
H105 C113 0.951 . S
C106 C100 1.265 1_455 S
C106 H101 0.950 . S
C106 C107 1.478 . S
C107 C94 1.394 1_455 S
C107 C106 1.478 . S
C107 C108 1.397 . S
C108 C107 1.397 . S
C108 C109 1.438 . S
C108 C113 1.429 . S
C109 C92 1.394 1_455 S
C109 C108 1.438 . S
C109 C110 1.428 . S
C110 H102 0.949 . S
C110 C109 1.428 . S
C110 C111 1.345 . S
C111 H103 0.950 . S
C111 C110 1.345 . S
C111 C112 1.424 . S
C112 H104 0.951 . S
C112 C111 1.424 . S
C112 C113 1.347 . S
C113 H105 0.951 . S
C113 C108 1.429 . S
C113 C112 1.347 . S
H114 C115 0.951 . S
C115 H114 0.951 . S
C115 C121 1.265 1_545 S
H116 C121 0.950 . S
H117 C125 0.949 . S
H118 C126 0.950 . S
H119 C127 0.951 . S
H120 C128 0.951 . S
C121 C115 1.265 1_565 S
C121 H116 0.950 . S
C121 C122 1.478 . S
C122 C121 1.478 . S
C122 C123 1.397 . S
C122 C139 1.394 1_565 S
C123 C122 1.397 . S
C123 C124 1.438 . S
C123 C128 1.429 . S
C124 C123 1.438 . S
C124 C125 1.428 . S
C124 C137 1.394 1_565 S
C125 H117 0.949 . S
C125 C124 1.428 . S
C125 C126 1.345 . S
C126 H118 0.950 . S
C126 C125 1.345 . S
C126 C127 1.424 . S
C127 H119 0.951 . S
C127 C126 1.424 . S
C127 C128 1.347 . S
C128 H120 0.951 . S
C128 C123 1.429 . S
C128 C127 1.347 . S
H129 C130 0.954 . S
C130 H129 0.954 . S
C130 C136 1.266 1_565 S
H131 C136 0.950 . S
H132 C140 0.949 . S
H133 C141 0.950 . S
H134 C142 0.951 . S
H135 C143 0.951 . S
C136 C130 1.266 1_545 S
C136 H131 0.950 . S
C136 C137 1.478 . S
C137 C124 1.394 1_545 S
C137 C136 1.478 . S
C137 C138 1.397 . S
C138 C137 1.397 . S
C138 C139 1.438 . S
C138 C143 1.429 . S
C139 C122 1.394 1_545 S
C139 C138 1.438 . S
C139 C140 1.428 . S
C140 H132 0.949 . S
C140 C139 1.428 . S
C140 C141 1.345 . S
C141 H133 0.950 . S
C141 C140 1.345 . S
C141 C142 1.424 . S
C142 H134 0.951 . S
C142 C141 1.424 . S
C142 C143 1.347 . S
C143 H135 0.951 . S
C143 C138 1.429 . S
C143 C142 1.347 . S
H144 C145 0.951 . S
C145 H144 0.951 . S
C145 C151 1.265 1_655 S
H146 C151 0.950 . S
H147 C155 0.949 . S
H148 C156 0.950 . S
H149 C157 0.951 . S
H150 C158 0.951 . S
C151 C145 1.265 1_455 S
C151 H146 0.950 . S
C151 C152 1.478 . S
C152 C151 1.478 . S
C152 C153 1.397 . S
C152 C169 1.394 1_455 S
C153 C152 1.397 . S
C153 C154 1.438 . S
C153 C158 1.429 . S
C154 C153 1.438 . S
C154 C155 1.428 . S
C154 C167 1.394 1_455 S
C155 H147 0.949 . S
C155 C154 1.428 . S
C155 C156 1.345 . S
C156 H148 0.950 . S
C156 C155 1.345 . S
C156 C157 1.424 . S
C157 H149 0.951 . S
C157 C156 1.424 . S
C157 C158 1.347 . S
C158 H150 0.951 . S
C158 C153 1.429 . S
C158 C157 1.347 . S
H159 C160 0.951 . S
C160 H159 0.951 . S
C160 C166 1.265 1_455 S
H161 C166 0.950 . S
H162 C170 0.949 . S
H163 C171 0.950 . S
H164 C172 0.951 . S
H165 C173 0.951 . S
C166 C160 1.265 1_655 S
C166 H161 0.950 . S
C166 C167 1.478 . S
C167 C154 1.394 1_655 S
C167 C166 1.478 . S
C167 C168 1.397 . S
C168 C167 1.397 . S
C168 C169 1.438 . S
C168 C173 1.429 . S
C169 C152 1.394 1_655 S
C169 C168 1.438 . S
C169 C170 1.428 . S
C170 H162 0.949 . S
C170 C169 1.428 . S
C170 C171 1.345 . S
C171 H163 0.950 . S
C171 C170 1.345 . S
C171 C172 1.424 . S
C172 H164 0.951 . S
C172 C171 1.424 . S
C172 C173 1.347 . S
C173 H165 0.951 . S
C173 C168 1.429 . S
C173 C172 1.347 . S
H174 C175 0.951 . S
C175 H174 0.951 . S
C175 C181 1.265 1_545 S
H176 C181 0.950 . S
H177 C185 0.949 . S
H178 C186 0.950 . S
H179 C187 0.951 . S
H180 C188 0.951 . S
C181 C175 1.265 1_565 S
C181 H176 0.950 . S
C181 C182 1.478 . S
C182 C181 1.478 . S
C182 C183 1.397 . S
C182 C199 1.394 1_565 S
C183 C182 1.397 . S
C183 C184 1.438 . S
C183 C188 1.429 . S
C184 C183 1.438 . S
C184 C185 1.428 . S
C184 C197 1.394 1_565 S
C185 H177 0.949 . S
C185 C184 1.428 . S
C185 C186 1.345 . S
C186 H178 0.950 . S
C186 C185 1.345 . S
C186 C187 1.424 . S
C187 H179 0.951 . S
C187 C186 1.424 . S
C187 C188 1.347 . S
C188 H180 0.951 . S
C188 C183 1.429 . S
C188 C187 1.347 . S
H189 C190 0.951 . S
C190 H189 0.951 . S
C190 C196 1.265 1_565 S
H191 C196 0.950 . S
H192 C200 0.949 . S
H193 C201 0.950 . S
H194 C202 0.951 . S
H195 C203 0.951 . S
C196 C190 1.265 1_545 S
C196 H191 0.950 . S
C196 C197 1.478 . S
C197 C184 1.394 1_545 S
C197 C196 1.478 . S
C197 C198 1.397 . S
C198 C197 1.397 . S
C198 C199 1.438 . S
C198 C203 1.429 . S
C199 C182 1.394 1_545 S
C199 C198 1.438 . S
C199 C200 1.428 . S
C200 H192 0.949 . S
C200 C199 1.428 . S
C200 C201 1.345 . S
C201 H193 0.950 . S
C201 C200 1.345 . S
C201 C202 1.424 . S
C202 H194 0.951 . S
C202 C201 1.424 . S
C202 C203 1.347 . S
C203 H195 0.951 . S
C203 C198 1.429 . S
C203 C202 1.347 . S
H204 C205 0.958 . S
C205 H204 0.958 . S
C205 C211 1.263 1_545 S
H206 C211 0.950 . S
H207 C215 0.949 . S
H208 C216 0.950 . S
H209 C217 0.951 . S
H210 C218 0.951 . S
C211 C205 1.263 1_565 S
C211 H206 0.950 . S
C211 C212 1.478 . S
C212 C211 1.478 . S
C212 C213 1.397 . S
C212 C229 1.394 1_565 S
C213 C212 1.397 . S
C213 C214 1.438 . S
C213 C218 1.429 . S
C214 C213 1.438 . S
C214 C215 1.428 . S
C214 C227 1.394 1_565 S
C215 H207 0.949 . S
C215 C214 1.428 . S
C215 C216 1.345 . S
C216 H208 0.950 . S
C216 C215 1.345 . S
C216 C217 1.424 . S
C217 H209 0.951 . S
C217 C216 1.424 . S
C217 C218 1.347 . S
C218 H210 0.951 . S
C218 C213 1.429 . S
C218 C217 1.347 . S
H219 C220 0.956 . S
C220 H219 0.956 . S
C220 C226 1.263 1_565 S
H221 C226 0.950 . S
H222 C230 0.949 . S
H223 C231 0.950 . S
H224 C232 0.951 . S
H225 C233 0.951 . S
C226 C220 1.263 1_545 S
C226 H221 0.950 . S
C226 C227 1.478 . S
C227 C214 1.394 1_545 S
C227 C226 1.478 . S
C227 C228 1.397 . S
C228 C227 1.397 . S
C228 C229 1.438 . S
C228 C233 1.429 . S
C229 C212 1.394 1_545 S
C229 C228 1.438 . S
C229 C230 1.428 . S
C230 H222 0.949 . S
C230 C229 1.428 . S
C230 C231 1.345 . S
C231 H223 0.950 . S
C231 C230 1.345 . S
C231 C232 1.424 . S
C232 H224 0.951 . S
C232 C231 1.424 . S
C232 C233 1.347 . S
C233 H225 0.951 . S
C233 C228 1.429 . S
C233 C232 1.347 . S
H234 C235 0.951 . S
C235 H234 0.951 . S
C235 C241 1.265 1_655 S
H236 C241 0.950 . S
H237 C245 0.949 . S
H238 C246 0.950 . S
H239 C247 0.951 . S
H240 C248 0.951 . S
C241 C235 1.265 1_455 S
C241 H236 0.950 . S
C241 C242 1.478 . S
C242 C241 1.478 . S
C242 C243 1.397 . S
C242 C259 1.394 1_455 S
C243 C242 1.397 . S
C243 C244 1.438 . S
C243 C248 1.429 . S
C244 C243 1.438 . S
C244 C245 1.428 . S
C244 C257 1.394 1_455 S
C245 H237 0.949 . S
C245 C244 1.428 . S
C245 C246 1.345 . S
C246 H238 0.950 . S
C246 C245 1.345 . S
C246 C247 1.424 . S
C247 H239 0.951 . S
C247 C246 1.424 . S
C247 C248 1.347 . S
C248 H240 0.951 . S
C248 C243 1.429 . S
C248 C247 1.347 . S
H249 C250 0.951 . S
C250 H249 0.951 . S
C250 C256 1.265 1_455 S
H251 C256 0.950 . S
H252 C260 0.949 . S
H253 C261 0.950 . S
H254 C262 0.951 . S
H255 C263 0.951 . S
C256 C250 1.265 1_655 S
C256 H251 0.950 . S
C256 C257 1.478 . S
C257 C244 1.394 1_655 S
C257 C256 1.478 . S
C257 C258 1.397 . S
C258 C257 1.397 . S
C258 C259 1.438 . S
C258 C263 1.429 . S
C259 C242 1.394 1_655 S
C259 C258 1.438 . S
C259 C260 1.428 . S
C260 H252 0.949 . S
C260 C259 1.428 . S
C260 C261 1.345 . S
C261 H253 0.950 . S
C261 C260 1.345 . S
C261 C262 1.424 . S
C262 H254 0.951 . S
C262 C261 1.424 . S
C262 C263 1.347 . S
C263 H255 0.951 . S
C263 C258 1.429 . S
C263 C262 1.347 . S
H264 C265 0.950 . S
C265 H264 0.950 . S
C265 C271 1.263 1_545 S
H266 C271 0.950 . S
H267 C275 0.949 . S
H268 C276 0.950 . S
H269 C277 0.951 . S
H270 C278 0.951 . S
C271 C265 1.263 1_565 S
C271 H266 0.950 . S
C271 C272 1.478 . S
C272 C271 1.478 . S
C272 C273 1.397 . S
C272 C289 1.394 1_565 S
C273 C272 1.397 . S
C273 C274 1.438 . S
C273 C278 1.429 . S
C274 C273 1.438 . S
C274 C275 1.428 . S
C274 C287 1.394 1_565 S
C275 H267 0.949 . S
C275 C274 1.428 . S
C275 C276 1.345 . S
C276 H268 0.950 . S
C276 C275 1.345 . S
C276 C277 1.424 . S
C277 H269 0.951 . S
C277 C276 1.424 . S
C277 C278 1.347 . S
C278 H270 0.951 . S
C278 C273 1.429 . S
C278 C277 1.347 . S
H279 C280 0.950 . S
C280 H279 0.950 . S
C280 C286 1.264 1_565 S
H281 C286 0.950 . S
H282 C290 0.949 . S
H283 C291 0.950 . S
H284 C292 0.951 . S
H285 C293 0.951 . S
C286 C280 1.264 1_545 S
C286 H281 0.950 . S
C286 C287 1.478 . S
C287 C274 1.394 1_545 S
C287 C286 1.478 . S
C287 C288 1.397 . S
C288 C287 1.397 . S
C288 C289 1.438 . S
C288 C293 1.429 . S
C289 C272 1.394 1_545 S
C289 C288 1.438 . S
C289 C290 1.428 . S
C290 H282 0.949 . S
C290 C289 1.428 . S
C290 C291 1.345 . S
C291 H283 0.950 . S
C291 C290 1.345 . S
C291 C292 1.424 . S
C292 H284 0.951 . S
C292 C291 1.424 . S
C292 C293 1.347 . S
C293 H285 0.951 . S
C293 C288 1.429 . S
C293 C292 1.347 . S
H294 C295 0.951 . S
C295 H294 0.951 . S
C295 C301 1.265 1_655 S
H296 C301 0.950 . S
H297 C305 0.949 . S
H298 C306 0.950 . S
H299 C307 0.951 . S
H300 C308 0.951 . S
C301 C295 1.265 1_455 S
C301 H296 0.950 . S
C301 C302 1.478 . S
C302 C301 1.478 . S
C302 C303 1.397 . S
C302 C319 1.394 1_455 S
C303 C302 1.397 . S
C303 C304 1.438 . S
C303 C308 1.429 . S
C304 C303 1.438 . S
C304 C305 1.428 . S
C304 C317 1.394 1_455 S
C305 H297 0.949 . S
C305 C304 1.428 . S
C305 C306 1.345 . S
C306 H298 0.950 . S
C306 C305 1.345 . S
C306 C307 1.424 . S
C307 H299 0.951 . S
C307 C306 1.424 . S
C307 C308 1.347 . S
C308 H300 0.951 . S
C308 C303 1.429 . S
C308 C307 1.347 . S
H309 C310 0.951 . S
C310 H309 0.951 . S
C310 C316 1.265 1_455 S
H311 C316 0.950 . S
H312 C320 0.949 . S
H313 C321 0.950 . S
H314 C322 0.951 . S
H315 C323 0.951 . S
C316 C310 1.265 1_655 S
C316 H311 0.950 . S
C316 C317 1.478 . S
C317 C304 1.394 1_655 S
C317 C316 1.478 . S
C317 C318 1.397 . S
C318 C317 1.397 . S
C318 C319 1.438 . S
C318 C323 1.429 . S
C319 C302 1.394 1_655 S
C319 C318 1.438 . S
C319 C320 1.428 . S
C320 H312 0.949 . S
C320 C319 1.428 . S
C320 C321 1.345 . S
C321 H313 0.950 . S
C321 C320 1.345 . S
C321 C322 1.424 . S
C322 H314 0.951 . S
C322 C321 1.424 . S
C322 C323 1.347 . S
C323 H315 0.951 . S
C323 C318 1.429 . S
C323 C322 1.347 . S
H324 C325 0.951 . S
C325 H324 0.951 . S
C325 C331 1.265 1_556 S
H326 C331 0.950 . S
H327 C335 0.949 . S
H328 C336 0.950 . S
H329 C337 0.951 . S
H330 C338 0.951 . S
C331 C325 1.265 1_554 S
C331 H326 0.950 . S
C331 C332 1.478 . S
C332 C331 1.478 . S
C332 C333 1.397 . S
C332 C349 1.394 1_554 S
C333 C332 1.397 . S
C333 C334 1.438 . S
C333 C338 1.429 . S
C334 C333 1.438 . S
C334 C335 1.428 . S
C334 C347 1.394 1_554 S
C335 H327 0.949 . S
C335 C334 1.428 . S
C335 C336 1.345 . S
C336 H328 0.950 . S
C336 C335 1.345 . S
C336 C337 1.424 . S
C337 H329 0.951 . S
C337 C336 1.424 . S
C337 C338 1.347 . S
C338 H330 0.951 . S
C338 C333 1.429 . S
C338 C337 1.347 . S
H339 C340 0.951 . S
C340 H339 0.951 . S
C340 C346 1.265 1_554 S
H341 C346 0.950 . S
H342 C350 0.949 . S
H343 C351 0.950 . S
H344 C352 0.951 . S
H345 C353 0.951 . S
C346 C340 1.265 1_556 S
C346 H341 0.950 . S
C346 C347 1.478 . S
C347 C334 1.394 1_556 S
C347 C346 1.478 . S
C347 C348 1.397 . S
C348 C347 1.397 . S
C348 C349 1.438 . S
C348 C353 1.429 . S
C349 C332 1.394 1_556 S
C349 C348 1.438 . S
C349 C350 1.428 . S
C350 H342 0.949 . S
C350 C349 1.428 . S
C350 C351 1.345 . S
C351 H343 0.950 . S
C351 C350 1.345 . S
C351 C352 1.424 . S
C352 H344 0.951 . S
C352 C351 1.424 . S
C352 C353 1.347 . S
C353 H345 0.951 . S
C353 C348 1.429 . S
C353 C352 1.347 . S
H354 C355 0.952 . S
C355 H354 0.952 . S
C355 C361 1.267 1_554 S
H356 C361 0.950 . S
H357 C365 0.949 . S
H358 C366 0.950 . S
H359 C367 0.951 . S
H360 C368 0.951 . S
C361 C355 1.267 1_556 S
C361 H356 0.950 . S
C361 C362 1.478 . S
C362 C361 1.478 . S
C362 C363 1.397 . S
C362 C379 1.394 1_556 S
C363 C362 1.397 . S
C363 C364 1.438 . S
C363 C368 1.429 . S
C364 C363 1.438 . S
C364 C365 1.428 . S
C364 C377 1.394 1_556 S
C365 H357 0.949 . S
C365 C364 1.428 . S
C365 C366 1.345 . S
C366 H358 0.950 . S
C366 C365 1.345 . S
C366 C367 1.424 . S
C367 H359 0.951 . S
C367 C366 1.424 . S
C367 C368 1.347 . S
C368 H360 0.951 . S
C368 C363 1.429 . S
C368 C367 1.347 . S
H369 C370 0.951 . S
C370 H369 0.951 . S
C370 C376 1.266 1_556 S
H371 C376 0.950 . S
H372 C380 0.949 . S
H373 C381 0.950 . S
H374 C382 0.951 . S
H375 C383 0.951 . S
C376 C370 1.266 1_554 S
C376 H371 0.950 . S
C376 C377 1.478 . S
C377 C364 1.394 1_554 S
C377 C376 1.478 . S
C377 C378 1.397 . S
C378 C377 1.397 . S
C378 C379 1.438 . S
C378 C383 1.429 . S
C379 C362 1.394 1_554 S
C379 C378 1.438 . S
C379 C380 1.428 . S
C380 H372 0.949 . S
C380 C379 1.428 . S
C380 C381 1.345 . S
C381 H373 0.950 . S
C381 C380 1.345 . S
C381 C382 1.424 . S
C382 H374 0.951 . S
C382 C381 1.424 . S
C382 C383 1.347 . S
C383 H375 0.951 . S
C383 C378 1.429 . S
C383 C382 1.347 . S
H384 C385 0.951 . S
C385 H384 0.951 . S
C385 C391 1.265 1_554 S
H386 C391 0.950 . S
H387 C395 0.949 . S
H388 C396 0.950 . S
H389 C397 0.951 . S
H390 C398 0.951 . S
C391 C385 1.265 1_556 S
C391 H386 0.950 . S
C391 C392 1.478 . S
C392 C391 1.478 . S
C392 C393 1.397 1_556 S
C392 C409 1.394 . S
C393 C392 1.397 1_554 S
C393 C394 1.438 . S
C393 C398 1.429 . S
C394 C393 1.438 . S
C394 C395 1.428 . S
C394 C407 1.394 . S
C395 H387 0.949 . S
C395 C394 1.428 . S
C395 C396 1.345 . S
C396 H388 0.950 . S
C396 C395 1.345 . S
C396 C397 1.424 . S
C397 H389 0.951 . S
C397 C396 1.424 . S
C397 C398 1.347 . S
C398 H390 0.951 . S
C398 C393 1.429 . S
C398 C397 1.347 . S
H399 C400 0.951 . S
C400 H399 0.951 . S
C400 C406 1.265 1_556 S
H401 C406 0.950 . S
H402 C410 0.949 . S
H403 C411 0.950 . S
H404 C412 0.951 . S
H405 C413 0.951 . S
C406 C400 1.265 1_554 S
C406 H401 0.950 . S
C406 C407 1.478 . S
C407 C394 1.394 . S
C407 C406 1.478 . S
C407 C408 1.397 1_554 S
C408 C407 1.397 1_556 S
C408 C409 1.438 . S
C408 C413 1.429 . S
C409 C392 1.394 . S
C409 C408 1.438 . S
C409 C410 1.428 . S
C410 H402 0.949 . S
C410 C409 1.428 . S
C410 C411 1.345 . S
C411 H403 0.950 . S
C411 C410 1.345 . S
C411 C412 1.424 . S
C412 H404 0.951 . S
C412 C411 1.424 . S
C412 C413 1.347 . S
C413 H405 0.951 . S
C413 C408 1.429 . S
C413 C412 1.347 . S
H414 C415 0.953 . S
C415 H414 0.953 . S
C415 C421 1.265 . S
H416 C421 0.953 . S
H417 C425 0.949 . S
H418 C426 0.950 . S
H419 C427 0.951 . S
H420 C428 0.951 . S
C421 C415 1.265 . S
C421 H416 0.953 . S
C421 C422 1.476 . S
C422 C421 1.476 . S
C422 C423 1.399 . S
C422 C439 1.391 1_554 S
C423 C422 1.399 . S
C423 C424 1.438 . S
C423 C428 1.429 . S
C424 C423 1.438 . S
C424 C425 1.428 . S
C424 C437 1.397 1_554 S
C425 H417 0.949 . S
C425 C424 1.428 . S
C425 C426 1.345 . S
C426 H418 0.950 . S
C426 C425 1.345 . S
C426 C427 1.424 . S
C427 H419 0.951 . S
C427 C426 1.424 . S
C427 C428 1.347 . S
C428 H420 0.951 . S
C428 C423 1.429 . S
C428 C427 1.347 . S
H429 C430 0.953 . S
C430 H429 0.953 . S
C430 C436 1.265 . S
H431 C436 0.947 . S
H432 C440 0.949 . S
H433 C441 0.950 . S
H434 C442 0.951 . S
H435 C443 0.951 . S
C436 C430 1.265 . S
C436 H431 0.947 . S
C436 C437 1.476 . S
C437 C424 1.397 1_556 S
C437 C436 1.476 . S
C437 C438 1.395 . S
C438 C437 1.395 . S
C438 C439 1.438 . S
C438 C443 1.429 . S
C439 C422 1.391 1_556 S
C439 C438 1.438 . S
C439 C440 1.428 . S
C440 H432 0.949 . S
C440 C439 1.428 . S
C440 C441 1.345 . S
C441 H433 0.950 . S
C441 C440 1.345 . S
C441 C442 1.424 . S
C442 H434 0.951 . S
C442 C441 1.424 . S
C442 C443 1.347 . S
C443 H435 0.951 . S
C443 C438 1.429 . S
C443 C442 1.347 . S
C85 C0 1.480 . S
C100 C57 1.485 . S
C115 C13 1.489 1_545 S
C130 C70 1.496 . S
C145 C56 1.486 1_655 S
C160 C1 1.499 1_455 S
C175 C71 1.495 . S
C190 C12 1.489 1_565 S
C205 C83 1.477 1_545 S
C220 C26 1.485 1_565 S
C235 C40 1.496 1_655 S
C250 C69 1.486 . S
C265 C82 1.482 . S
C280 C27 1.494 . S
C295 C68 1.488 . S
C310 C41 1.499 1_455 S
C325 C28 1.490 1_556 S
C340 C55 1.492 1_554 S
C355 C43 1.494 . S
C370 C14 1.483 1_556 S
C385 C29 1.492 1_554 S
C400 C54 1.496 1_556 S
C415 C42 1.481 1_554 S
C430 C15 1.492 . S
