# Generated by pormake.
# Topology fcu, (12)-cn, num edge types: 1
# Building blocks:
#     Node 0, Type 0, BuildingBlock: QEWDON_clean_sbu_0, # of connection points: 12
#     Node 1, Type 0, BuildingBlock: QEWDON_clean_sbu_0, # of connection points: 12
#     Node 2, Type 0, BuildingBlock: QEWDON_clean_sbu_0, # of connection points: 12
#     Node 3, Type 0, BuildingBlock: QEWDON_clean_sbu_0, # of connection points: 12
#     Edge 4, Type (0, 0), BuildingBlock: UVAHIK_clean_linker_0, # of connection points: 2
#     Edge 5, Type (0, 0), BuildingBlock: UVAHIK_clean_linker_0, # of connection points: 2
#     Edge 6, Type (0, 0), BuildingBlock: UVAHIK_clean_linker_0, # of connection points: 2
#     Edge 7, Type (0, 0), BuildingBlock: UVAHIK_clean_linker_0, # of connection points: 2
#     Edge 8, Type (0, 0), BuildingBlock: UVAHIK_clean_linker_0, # of connection points: 2
#     Edge 9, Type (0, 0), BuildingBlock: UVAHIK_clean_linker_0, # of connection points: 2
#     Edge 10, Type (0, 0), BuildingBlock: UVAHIK_clean_linker_0, # of connection points: 2
#     Edge 11, Type (0, 0), BuildingBlock: UVAHIK_clean_linker_0, # of connection points: 2
#     Edge 12, Type (0, 0), BuildingBlock: UVAHIK_clean_linker_0, # of connection points: 2
#     Edge 13, Type (0, 0), BuildingBlock: UVAHIK_clean_linker_0, # of connection points: 2
#     Edge 14, Type (0, 0), BuildingBlock: UVAHIK_clean_linker_0, # of connection points: 2
#     Edge 15, Type (0, 0), BuildingBlock: UVAHIK_clean_linker_0, # of connection points: 2
#     Edge 16, Type (0, 0), BuildingBlock: UVAHIK_clean_linker_0, # of connection points: 2
#     Edge 17, Type (0, 0), BuildingBlock: UVAHIK_clean_linker_0, # of connection points: 2
#     Edge 18, Type (0, 0), BuildingBlock: UVAHIK_clean_linker_0, # of connection points: 2
#     Edge 19, Type (0, 0), BuildingBlock: UVAHIK_clean_linker_0, # of connection points: 2
#     Edge 20, Type (0, 0), BuildingBlock: UVAHIK_clean_linker_0, # of connection points: 2
#     Edge 21, Type (0, 0), BuildingBlock: UVAHIK_clean_linker_0, # of connection points: 2
#     Edge 22, Type (0, 0), BuildingBlock: UVAHIK_clean_linker_0, # of connection points: 2
#     Edge 23, Type (0, 0), BuildingBlock: UVAHIK_clean_linker_0, # of connection points: 2
#     Edge 24, Type (0, 0), BuildingBlock: UVAHIK_clean_linker_0, # of connection points: 2
#     Edge 25, Type (0, 0), BuildingBlock: UVAHIK_clean_linker_0, # of connection points: 2
#     Edge 26, Type (0, 0), BuildingBlock: UVAHIK_clean_linker_0, # of connection points: 2
#     Edge 27, Type (0, 0), BuildingBlock: UVAHIK_clean_linker_0, # of connection points: 2
# Relax obj value: 0.040
# Max RMSD: 0.121
# Mean RMSD: 0.108
data_MOF--net-fcu--node1-QEWDON_clean_sbu_0--edge1-UVAHIK_clean_linker_0
_symmetry_space_group_name_H-M    P1
_symmetry_Int_Tables_number       1
_symmetry_cell_setting            triclinic
loop_
_symmetry_equiv_pos_as_xyz
'x, y, z'
_cell_length_a     33.425144
_cell_length_b     33.648731
_cell_length_c     34.40075
_cell_angle_alpha  90.277135
_cell_angle_beta   89.918965
_cell_angle_gamma 89.970246
loop_
_atom_site_label
_atom_site_type_symbol
_atom_site_fract_x
_atom_site_fract_y
_atom_site_fract_z
_atom_type_partial_charge
Zn0 Zn 0.91451 0.89262 0.97777 0.0
Zn1 Zn 0.92302 0.89979 0.0705 0.0
O2 O 0.90302 0.92926 0.02365 0.0
H3 H 0.88463 0.95142 0.02328 0.0
C4 C 0.00194 0.88326 0.91634 0.0
O5 O -0.00893 0.87021 0.95069 0.0
Zn6 Zn 0.03112 0.08748 0.05323 0.0
Zn7 Zn 0.04192 0.09015 0.95926 0.0
O8 O 0.04002 0.05375 0.00564 0.0
H9 H 0.03556 0.02548 0.00364 0.0
Zn10 Zn 0.04775 0.9441 0.96254 0.0
O11 O 0.01651 0.95057 0.01307 0.0
Zn12 Zn 0.05678 0.95567 0.05673 0.0
H13 H -0.01224 0.95279 0.01466 0.0
Zn14 Zn 0.92391 0.03549 0.97907 0.0
O15 O 0.94641 0.0167 0.03066 0.0
H16 H 0.93874 0.02462 0.00478 0.0
Zn17 Zn 0.90443 0.0261 0.07161 0.0
C18 C 0.96612 0.06966 0.91163 0.0
O19 O 0.96184 0.03336 0.89802 0.0
O20 O 0.92133 0.83441 0.99561 0.0
O21 O 0.922 0.84067 0.06014 0.0
O22 O 0.03329 0.14842 0.97486 0.0
O23 O 0.03243 0.14624 0.03961 0.0
O24 O 0.10766 0.93459 0.97256 0.0
O25 O 0.11131 0.94028 0.03699 0.0
C26 C 0.8796 0.94944 0.12023 0.0
O27 O 0.86393 0.048 0.98285 0.0
O28 O 0.85316 0.04553 0.04672 0.0
O29 O 0.08614 0.08039 0.91769 0.0
C30 C 0.92254 0.81915 0.02948 0.0
O31 O 0.88293 0.90193 0.92604 0.0
C32 C 0.08008 0.03612 0.0959 0.0
O33 O 0.02404 0.91398 0.91427 0.0
C34 C 0.03164 0.16577 0.00783 0.0
O35 O 0.95445 0.07744 0.94601 0.0
C36 C 0.00672 0.90459 0.10269 0.0
O37 O 0.88757 0.9128 0.11626 0.0
O38 O 0.89476 0.97299 0.09556 0.0
C39 C 0.12762 0.93348 0.00408 0.0
O40 O 0.07319 0.07316 0.093 0.0
O41 O 0.05938 0.01283 0.07462 0.0
C42 C 0.95793 0.08297 0.10411 0.0
O43 O 0.04208 0.91791 0.09945 0.0
O44 O 0.97979 0.91758 0.07999 0.0
C45 C 0.84093 0.05195 0.01215 0.0
O46 O 0.92444 0.06652 0.11089 0.0
O47 O 0.97739 0.07238 0.07413 0.0
C48 C 0.08548 0.0514 0.89389 0.0
O49 O 0.0559 0.02577 0.89555 0.0
C50 C 0.87042 0.93627 0.91666 0.0
O51 O 0.8784 0.96657 0.93959 0.0
Zn52 Zn 0.91115 0.45698 0.4248 0.0
Zn53 Zn 0.91407 0.55213 0.43872 0.0
O54 O 0.94869 0.50437 0.43038 0.0
H55 H 0.93387 0.47993 0.42744 0.0
C56 C 0.9128 0.40874 0.5318 0.0
O57 O 0.91978 0.4375 0.50702 0.0
Zn58 Zn 0.06908 0.53384 0.58178 0.0
Zn59 Zn 0.05763 0.43968 0.58541 0.0
O60 O 0.02721 0.49206 0.59097 0.0
H61 H 0.00366 0.49541 0.60694 0.0
Zn62 Zn 0.93672 0.46931 0.58871 0.0
O63 O 0.94136 0.51252 0.54856 0.0
Zn64 Zn 0.93859 0.56166 0.58089 0.0
H65 H 0.95544 0.50951 0.52424 0.0
Zn66 Zn 0.03171 0.4603 0.42585 0.0
O67 O 0.02185 0.50667 0.4627 0.0
H68 H 0.01443 0.50448 0.48971 0.0
Zn69 Zn 0.0445 0.554 0.43586 0.0
C70 C 0.05411 0.39976 0.48281 0.0
O71 O 0.0628 0.43153 0.50348 0.0
O72 O 0.85399 0.47505 0.41115 0.0
O73 O 0.85715 0.54072 0.4193 0.0
O74 O 0.11733 0.44694 0.59816 0.0
O75 O 0.12282 0.51276 0.59941 0.0
O76 O 0.90069 0.48818 0.63372 0.0
O77 O 0.90092 0.55387 0.62679 0.0
C78 C 0.97057 0.60684 0.39796 0.0
O79 O 0.07218 0.47308 0.38219 0.0
O80 O 0.08464 0.53699 0.39395 0.0
O81 O 0.03424 0.38946 0.61226 0.0
C82 C 0.83791 0.50937 0.40955 0.0
O83 O 0.92994 0.40497 0.39648 0.0
C84 C 0.01971 0.59291 0.61489 0.0
O85 O 0.92051 0.4143 0.56758 0.0
C86 C 0.13783 0.47825 0.60418 0.0
O87 O 0.03878 0.40409 0.44931 0.0
C88 C 0.91171 0.60221 0.51151 0.0
O89 O 0.93503 0.59671 0.40666 0.0
O90 O 0.00059 0.58792 0.41137 0.0
C91 C 0.88876 0.52262 0.64408 0.0
O92 O 0.05641 0.58341 0.61331 0.0
O93 O -0.00478 0.57097 0.59664 0.0
C94 C 0.08119 0.57962 0.51005 0.0
O95 O 0.919 0.6063 0.54759 0.0
O96 O 0.91694 0.56848 0.49536 0.0
C97 C 0.09146 0.50488 0.37508 0.0
O98 O 0.0748 0.58764 0.47449 0.0
O99 O 0.06731 0.54787 0.52467 0.0
C100 C 0.01723 0.39368 0.64509 0.0
O101 O 0.01201 0.42975 0.659 0.0
C102 C 0.96045 0.40298 0.37441 0.0
O103 O 0.98282 0.43468 0.36979 0.0
Zn104 Zn 0.40328 0.91677 0.4696 0.0
Zn105 Zn 0.4301 0.92575 0.56162 0.0
O106 O 0.42336 0.95592 0.51115 0.0
H107 H 0.42977 0.9836 0.50711 0.0
C108 C 0.50292 0.90054 0.40951 0.0
O109 O 0.48484 0.93499 0.41348 0.0
Zn110 Zn 0.54634 0.08451 0.57296 0.0
Zn111 Zn 0.54753 0.07938 0.4784 0.0
O112 O 0.53798 0.04747 0.52773 0.0
H113 H 0.51808 0.02678 0.52923 0.0
Zn114 Zn 0.5652 0.93455 0.46302 0.0
O115 O 0.53722 0.95332 0.51162 0.0
Zn116 Zn 0.57496 0.94756 0.55663 0.0
H117 H 0.50908 0.95974 0.51272 0.0
Zn118 Zn 0.40581 0.07628 0.48261 0.0
O119 O 0.44359 0.08099 0.52814 0.0
H120 H 0.46988 0.09274 0.52702 0.0
Zn121 Zn 0.4095 0.07262 0.57502 0.0
C122 C 0.45764 0.12031 0.42861 0.0
O123 O 0.478 0.12672 0.46064 0.0
O124 O 0.38942 0.86297 0.49446 0.0
O125 O 0.40676 0.87021 0.55662 0.0
O126 O 0.57142 0.13409 0.49019 0.0
O127 O 0.5725 0.13577 0.55488 0.0
O128 O 0.62354 0.91939 0.47347 0.0
O129 O 0.6292 0.92569 0.53776 0.0
C130 C 0.39145 0.99019 0.60602 0.0
O131 O 0.34792 0.09021 0.49895 0.0
O132 O 0.35256 0.09107 0.5636 0.0
O133 O 0.57341 0.05358 0.42915 0.0
C134 C 0.39181 0.84957 0.529 0.0
O135 O 0.36428 0.93307 0.42391 0.0
C136 C 0.59321 0.02267 0.60986 0.0
O137 O 0.53561 0.89438 0.42731 0.0
C138 C 0.58044 0.15139 0.52197 0.0
O139 O 0.42606 0.09926 0.43006 0.0
C140 C 0.51257 0.90234 0.59556 0.0
O141 O 0.39663 0.95292 0.60259 0.0
O142 O 0.41206 0.01353 0.58506 0.0
C143 C 0.64394 0.91636 0.50456 0.0
O144 O 0.58287 0.059 0.61195 0.0
O145 O 0.57871 0.0018 0.58228 0.0
C146 C 0.46967 0.1123 0.61994 0.0
O147 O 0.55013 0.9083 0.59338 0.0
O148 O 0.48928 0.92403 0.57538 0.0
C149 C 0.33244 0.09606 0.53242 0.0
O150 O 0.43212 0.10658 0.61847 0.0
O151 O 0.49152 0.09321 0.59603 0.0
C152 C 0.60253 0.0294 0.43166 0.0
O153 O 0.61409 0.01752 0.46621 0.0
C154 C 0.37068 0.95871 0.39752 0.0
O155 O 0.4041 0.97923 0.39826 0.0
Zn156 Zn 0.44666 0.55405 0.03224 0.0
Zn157 Zn 0.44673 0.56772 0.93919 0.0
O158 O 0.46711 0.53075 0.98074 0.0
H159 H 0.45927 0.53849 0.00673 0.0
C160 C 0.49222 0.64118 0.08982 0.0
O161 O 0.48216 0.6545 0.05536 0.0
Zn162 Zn 0.52934 0.43317 0.95137 0.0
Zn163 Zn 0.5234 0.42985 0.04329 0.0
O164 O 0.52585 0.46881 0.99851 0.0
H165 H 0.5365 0.4953 0.00153 0.0
Zn166 Zn 0.54137 0.58497 0.04327 0.0
O167 O 0.51669 0.59353 0.98992 0.0
Zn168 Zn 0.55859 0.57701 0.95158 0.0
H169 H 0.52515 0.5906 0.01656 0.0
Zn170 Zn 0.40217 0.42015 0.05308 0.0
O171 O 0.43684 0.425 0.00523 0.0
H172 H 0.42315 0.42237 0.02979 0.0
Zn173 Zn 0.39988 0.43324 0.9603 0.0
C174 C 0.45215 0.36471 0.09733 0.0
O175 O 0.46619 0.35691 0.06243 0.0
O176 O 0.41614 0.60651 0.02545 0.0
O177 O 0.41005 0.60926 0.96119 0.0
O178 O 0.54717 0.37559 0.02771 0.0
O179 O 0.56014 0.38362 0.96477 0.0
O180 O 0.60308 0.58066 0.04149 0.0
O181 O 0.61286 0.58051 0.97742 0.0
C182 C 0.40555 0.50155 0.90726 0.0
O183 O 0.34195 0.41579 0.04044 0.0
O184 O 0.34208 0.42549 0.97644 0.0
O185 O 0.54129 0.44892 0.09824 0.0
C186 C 0.40236 0.62284 0.995 0.0
O187 O 0.42216 0.5207 0.07734 0.0
C188 C 0.56265 0.49868 0.90681 0.0
O189 O 0.51617 0.61192 0.0922 0.0
C190 C 0.56215 0.36315 0.99581 0.0
O191 O 0.42478 0.39068 0.10125 0.0
C192 C 0.51745 0.61729 0.89399 0.0
O193 O 0.41803 0.53609 0.89918 0.0
O194 O 0.40968 0.48858 0.94163 0.0
C195 C 0.62634 0.58009 0.01209 0.0
O196 O 0.55548 0.46155 0.90685 0.0
O197 O 0.55056 0.51963 0.93546 0.0
C198 C 0.45363 0.39555 0.91308 0.0
O199 O 0.55331 0.61294 0.9053 0.0
O200 O 0.49003 0.59818 0.91139 0.0
C201 C 0.32344 0.41915 0.00823 0.0
O202 O 0.41587 0.39617 0.91686 0.0
O203 O 0.47385 0.41674 0.93663 0.0
C204 C 0.55292 0.48392 0.1066 0.0
O205 O 0.55196 0.51147 0.07971 0.0
C206 C 0.38622 0.50899 0.07337 0.0
O207 O 0.36883 0.51322 0.0394 0.0
C208 C 0.9818 0.10683 0.16862 0.0
C209 C 0.97227 0.11489 0.12977 0.0
C210 C -0.01133 0.13802 0.19483 0.0
C211 C 0.95118 0.23537 0.21429 0.0
H212 H 0.03962 0.2495 0.286 0.0
C213 C 0.93866 0.33691 0.34813 0.0
C214 C 0.96798 0.36675 0.35081 0.0
C215 C 0.94352 0.30498 0.32244 0.0
C216 C 0.01481 0.24582 0.26608 0.0
H217 H 0.96323 0.16114 0.08721 0.0
H218 H 0.97403 0.21592 0.13335 0.0
H219 H 0.04256 0.19658 0.23637 0.0
H220 H 0.02652 0.38511 0.33032 0.0
H221 H 0.0352 0.32869 0.2858 0.0
H222 H 0.92281 0.28356 0.2444 0.0
C223 C 0.97702 0.18558 0.14336 0.0
C224 C 0.01648 0.21566 0.23785 0.0
C225 C 0.97108 0.15438 0.117 0.0
C226 C 0.00325 0.36276 0.32873 0.0
C227 C 0.00834 0.33043 0.30339 0.0
C228 C 0.94915 0.26484 0.2429 0.0
C229 C -0.01505 0.17765 0.18268 0.0
C230 C -0.01532 0.21033 0.21166 0.0
C231 C 0.97802 0.30184 0.29929 0.0
C232 C 0.98086 0.27034 0.26912 0.0
H233 H 0.98254 0.07647 0.17897 0.0
H234 H -0.00551 0.13122 0.22505 0.0
H235 H 0.92611 0.23155 0.1947 0.0
H236 H 0.91123 0.33891 0.36483 0.0
H237 H 0.9199 0.28306 0.32012 0.0
C238 C 0.82776 -0.00408 0.14833 0.0
C239 C 0.85278 0.9626 0.15202 0.0
C240 C 0.79899 0.00446 0.17702 0.0
C241 C 0.74476 0.95442 0.25828 0.0
H242 H 0.7147 0.06152 0.2882 0.0
C243 C 0.65724 0.99072 0.39884 0.0
C244 C 0.62641 0.01903 0.39666 0.0
C245 C 0.6822 0.98355 0.36689 0.0
C246 C 0.72251 0.03143 0.27983 0.0
H247 H 0.86929 0.91377 0.18958 0.0
H248 H 0.82098 0.92951 0.23998 0.0
H249 H 0.76476 0.05134 0.23724 0.0
H250 H 0.59717 0.06149 0.3588 0.0
H251 H 0.64111 0.04919 0.30317 0.0
H252 H 0.70339 0.93459 0.30165 0.0
C253 C 0.8219 0.94815 0.21442 0.0
C254 C 0.75118 0.02557 0.25056 0.0
C255 C 0.84997 0.93931 0.18565 0.0
C256 C 0.62059 0.03941 0.36148 0.0
C257 C 0.64592 0.03262 0.32968 0.0
C258 C 0.71656 0.96029 0.28776 0.0
C259 C 0.79517 0.98011 0.2101 0.0
C260 C 0.76313 0.98693 0.23976 0.0
C261 C 0.67723 0.00488 0.33217 0.0
C262 C 0.70541 -0.00117 0.29918 0.0
H263 H 0.82923 0.01428 0.12259 0.0
H264 H 0.77892 0.02928 0.17257 0.0
H265 H 0.75215 0.92419 0.25007 0.0
H266 H 0.66268 0.97466 0.4255 0.0
H267 H 0.70624 0.96217 0.3698 0.0
C268 C 0.02596 0.84069 0.13288 0.0
C269 C -0.00108 0.87247 0.13047 0.0
C270 C 0.02163 0.81198 0.16167 0.0
C271 C 0.95123 0.76844 0.23148 0.0
H272 H 0.04775 0.74139 0.28806 0.0
C273 C 0.94569 0.66879 0.36674 0.0
C274 C 0.97621 0.64041 0.37103 0.0
C275 C 0.94877 0.69849 0.33875 0.0
C276 C 0.0206 0.74816 0.27229 0.0
H277 H 0.94724 0.90015 0.15685 0.0
H278 H 0.93857 0.84913 0.20673 0.0
H279 H 0.05102 0.78901 0.23508 0.0
H280 H 0.03433 0.6214 0.35012 0.0
H281 H 0.03937 0.67266 0.30039 0.0
H282 H 0.92085 0.72708 0.26807 0.0
C283 C 0.96262 0.84598 0.1858 0.0
C284 C 0.02247 0.77552 0.24197 0.0
C285 C 0.96713 0.87486 0.15697 0.0
C286 C 0.01048 0.64304 0.34758 0.0
C287 C 0.01334 0.6725 0.31915 0.0
C288 C 0.94939 0.74077 0.26161 0.0
C289 C -0.0097 0.81465 0.18881 0.0
C290 C -0.01214 0.78583 0.22117 0.0
C291 C 0.98222 0.70025 0.31401 0.0
C292 C 0.98408 0.73023 0.28238 0.0
H293 H 0.05086 0.8384 0.11279 0.0
H294 H 0.0431 0.7879 0.16299 0.0
H295 H 0.92416 0.77561 0.21572 0.0
H296 H 0.91913 0.66783 0.38482 0.0
H297 H 0.92473 0.71992 0.33636 0.0
C298 C 0.34669 -0.0052 0.338 0.0
C299 C 0.3412 0.96455 0.36557 0.0
C300 C 0.31916 0.00021 0.3078 0.0
C301 C 0.23912 0.94977 0.2515 0.0
H302 H 0.20733 0.05742 0.22671 0.0
C303 C 0.10974 0.98684 0.143 0.0
C304 C 0.11281 0.02222 0.12169 0.0
C305 C 0.13847 0.97731 0.17133 0.0
C306 C 0.21627 0.02712 0.23259 0.0
H307 H 0.30236 0.91596 0.38252 0.0
H308 H 0.25436 0.92547 0.32984 0.0
H309 H 0.25527 0.046 0.27838 0.0
H310 H 0.14958 0.07416 0.11177 0.0
H311 H 0.2002 0.05699 0.15942 0.0
H312 H 0.20031 0.93093 0.20533 0.0
C313 C 0.28013 0.9449 0.33151 0.0
C314 C 0.24379 0.02059 0.2625 0.0
C315 C 0.30755 0.93964 0.36191 0.0
C316 C 0.14612 0.04685 0.12798 0.0
C317 C 0.17501 0.03713 0.1557 0.0
C318 C 0.21174 0.95632 0.22124 0.0
C319 C 0.28546 0.97539 0.30415 0.0
C320 C 0.25575 0.98189 0.27232 0.0
C321 C 0.1711 0.00286 0.17871 0.0
C322 C 0.20006 -0.00483 0.21115 0.0
H323 H 0.37229 0.01445 0.33973 0.0
H324 H 0.32452 0.0237 0.28701 0.0
H325 H 0.24788 0.91956 0.25809 0.0
H326 H 0.08408 0.96767 0.13931 0.0
H327 H 0.1341 0.9508 0.18852 0.0
C328 C 0.96905 0.82533 0.88255 0.0
C329 C -0.00684 0.85958 0.88079 0.0
C330 C 0.96505 0.80034 0.85004 0.0
C331 C 0.0231 0.7696 0.76552 0.0
H332 H 0.92582 0.7192 0.72895 0.0
C333 C 0.03098 0.66251 0.63651 0.0
C334 C 0.00725 0.6282 0.63754 0.0
C335 C 0.02376 0.69397 0.66218 0.0
C336 C 0.95336 0.73266 0.739 0.0
H337 H 0.02996 0.89557 0.84268 0.0
H338 H 0.02324 0.85189 0.78637 0.0
H339 H 0.92263 0.76806 0.78189 0.0
H340 H 0.95656 0.60015 0.66524 0.0
H341 H 0.94485 0.65432 0.71158 0.0
H342 H 0.05439 0.73342 0.72468 0.0
C343 C 0.00771 0.8442 0.81296 0.0
C344 C 0.95143 0.7608 0.76925 0.0
C345 C 0.01143 0.86931 0.84524 0.0
C346 C 0.97499 0.62654 0.66364 0.0
C347 C 0.96835 0.6577 0.69018 0.0
C348 C 0.02514 0.74121 0.73589 0.0
C349 C -0.01465 0.80892 0.81526 0.0
C350 C -0.01367 0.7797 0.78266 0.0
C351 C -0.00654 0.69141 0.69058 0.0
C352 C -0.00966 0.72239 0.72189 0.0
H353 H 0.95433 0.81709 0.9094 0.0
H354 H 0.94769 0.77331 0.85273 0.0
H355 H 0.05066 0.78293 0.77578 0.0
H356 H 0.05583 0.66464 0.61634 0.0
H357 H 0.04284 0.71989 0.66036 0.0
C358 C 0.11436 0.01823 0.83477 0.0
C359 C 0.11739 0.04711 0.86423 0.0
C360 C 0.14424 0.01458 0.80649 0.0
C361 C 0.22838 0.06896 0.76071 0.0
H362 H 0.2599 0.9634 0.72714 0.0
C363 C 0.36383 0.03593 0.65757 0.0
C364 C 0.35872 0.00434 0.63128 0.0
C365 C 0.33414 0.04435 0.68535 0.0
C366 C 0.25114 -0.00684 0.73579 0.0
H367 H 0.15442 0.09464 0.88726 0.0
H368 H 0.20682 0.0878 0.83831 0.0
H369 H 0.20911 0.97093 0.77717 0.0
H370 H 0.31795 0.95858 0.61139 0.0
H371 H 0.26595 0.97394 0.65852 0.0
H372 H 0.27069 0.09104 0.7191 0.0
C373 C 0.18101 0.06844 0.83664 0.0
C374 C 0.22197 -0.00255 0.76454 0.0
C375 C 0.15105 0.07218 0.86484 0.0
C376 C 0.32279 0.98283 0.6317 0.0
C377 C 0.29314 0.99144 0.65892 0.0
C378 C 0.25766 0.06465 0.7318 0.0
C379 C 0.17797 0.03961 0.80709 0.0
C380 C 0.2099 0.03537 0.77714 0.0
C381 C 0.29892 0.02136 0.68695 0.0
C382 C 0.26901 0.02666 0.71867 0.0
H383 H 0.08872 -0.0014 0.8333 0.0
H384 H 0.14063 0.99242 0.78382 0.0
H385 H 0.21956 0.09863 0.76955 0.0
H386 H 0.39154 0.05252 0.65811 0.0
H387 H 0.33956 0.06755 0.70661 0.0
C388 C 0.01991 0.32023 0.65775 0.0
C389 C 0.00866 0.35868 0.66974 0.0
C390 C 0.01612 0.28799 0.68307 0.0
C391 C 0.01252 0.26596 0.78764 0.0
H392 H 0.97344 0.16271 0.75486 0.0
C393 C 0.97353 0.14211 0.89676 0.0
C394 C 0.97887 0.10223 0.88554 0.0
C395 C 0.98053 0.17283 0.87043 0.0
C396 C -0.01488 0.19114 0.76439 0.0
H397 H 0.98271 0.39298 0.71704 0.0
H398 H 0.97591 0.33679 0.76095 0.0
H399 H 0.97655 0.21691 0.70813 0.0
H400 H -0.00182 0.06351 0.83857 0.0
H401 H 0.01142 0.11716 0.7929 0.0
H402 H 0.02144 0.24036 0.84375 0.0
C403 C -0.01165 0.33169 0.73226 0.0
C404 C -0.01332 0.22225 0.73759 0.0
C405 C -0.008 0.36385 0.70696 0.0
C406 C -0.00666 0.09389 0.848 0.0
C407 C 0.00063 0.12467 0.82171 0.0
C408 C 0.01124 0.23481 0.81435 0.0
C409 C 0.00111 0.29356 0.72092 0.0
C410 C 2e-05 0.26013 0.74902 0.0
C411 C -0.00664 0.1645 0.83227 0.0
C412 C -0.00284 0.19705 0.80321 0.0
H413 H 0.03287 0.3152 0.62926 0.0
H414 H 0.02632 0.25899 0.6735 0.0
H415 H 0.0237 0.2946 0.79717 0.0
H416 H 0.96234 0.14963 0.92544 0.0
H417 H 0.97424 0.20302 0.87961 0.0
C418 C 0.63907 0.96904 0.63655 0.0
C419 C 0.62174 0.00709 0.63921 0.0
C420 C 0.66835 0.95713 0.66351 0.0
C421 C 0.74262 0.00094 0.73057 0.0
H422 H 0.73903 0.90115 0.78619 0.0
C423 C 0.82862 0.9791 0.87322 0.0
C424 C 0.84568 0.94186 0.88128 0.0
C425 C 0.80411 0.98424 0.84073 0.0
C426 C 0.74089 0.9289 0.77048 0.0
H427 H 0.6204 0.06155 0.6735 0.0
H428 H 0.6705 0.04089 0.71968 0.0
H429 H 0.69079 0.91386 0.73416 0.0
H430 H 0.85081 0.88093 0.86098 0.0
H431 H 0.8084 0.89008 0.80392 0.0
H432 H 0.79219 0.0164 0.76674 0.0
C433 C 0.66237 0.0205 0.69653 0.0
C434 C 0.71323 0.93612 0.74068 0.0
C435 C 0.63335 0.03222 0.67001 0.0
C436 C 0.83801 0.90998 0.85573 0.0
C437 C 0.81351 0.91516 0.82311 0.0
C438 C 0.77025 -0.00629 0.76009 0.0
C439 C 0.68083 0.9832 0.6933 0.0
C440 C 0.71315 0.97269 0.72114 0.0
C441 C 0.79612 0.95235 0.81525 0.0
C442 C 0.76915 0.95804 0.78118 0.0
H443 H 0.63067 0.9489 0.61337 0.0
H444 H 0.68197 0.92807 0.66044 0.0
H445 H 0.74385 0.02911 0.71551 0.0
H446 H 0.83369 0.00428 0.89233 0.0
H447 H 0.79074 0.01314 0.83608 0.0
C448 C 0.25884 0.40176 0.04088 0.0
C449 C 0.27956 0.41364 0.00732 0.0
C450 C 0.21844 0.3915 0.03887 0.0
C451 C 0.1506 0.34844 0.96787 0.0
H452 H 0.07664 0.35105 0.05479 0.0
C453 C 0.03156 0.2314 0.97426 0.0
C454 C 0.03509 0.20952 0.00882 0.0
C455 C 0.0458 0.27031 0.97242 0.0
C456 C 0.09674 0.35039 0.03008 0.0
H457 H 0.27315 0.42764 0.94609 0.0
H458 H 0.20257 0.41009 0.94273 0.0
H459 H 0.13421 0.39587 0.05423 0.0
H460 H 0.05093 0.21304 0.06986 0.0
H461 H 0.07681 0.28028 0.06641 0.0
H462 H 0.11515 0.30146 0.94479 0.0
C463 C 0.2178 0.40786 0.97041 0.0
C464 C 0.12972 0.37597 0.02979 0.0
C465 C 0.25827 0.41791 0.97236 0.0
C466 C 0.04837 0.22891 0.04265 0.0
C467 C 0.06297 0.26772 0.0407 0.0
C468 C 0.11777 0.32298 0.96815 0.0
C469 C 0.19781 0.39312 0.0033 0.0
C470 C 0.15801 0.37391 0.99953 0.0
C471 C 0.06418 0.28787 0.00496 0.0
C472 C 0.0915 0.3223 1.00012 0.0
H473 H 0.27421 0.39856 0.06839 0.0
H474 H 0.20415 0.37991 0.06471 0.0
H475 H 0.17191 0.34566 0.94427 0.0
H476 H 0.0205 0.21757 0.94788 0.0
H477 H 0.04526 0.28549 0.94472 0.0
C478 C 0.37371 0.67822 0.03497 0.0
C479 C 0.37869 0.65961 0.99863 0.0
C480 C 0.35357 0.71442 0.03786 0.0
C481 C 0.32115 0.79994 0.97872 0.0
H482 H 0.24238 0.81448 0.06034 0.0
C483 C 0.18477 0.90191 0.9688 0.0
C484 C 0.16903 0.91835 0.00319 0.0
C485 C 0.21938 0.87884 0.96992 0.0
C486 C 0.26498 0.81137 0.03792 0.0
H487 H 0.36519 0.6636 0.93702 0.0
H488 H 0.3291 0.72607 0.94229 0.0
H489 H 0.28347 0.7549 0.05958 0.0
H490 H 0.17998 0.92789 0.06477 0.0
H491 H 0.24059 0.88774 0.06654 0.0
H492 H 0.30124 0.85574 0.95615 0.0
C493 C 0.34188 0.71336 0.96835 0.0
C494 C 0.28841 0.77713 0.03742 0.0
C495 C 0.36221 0.67735 0.96541 0.0
C496 C 0.19092 0.91493 0.03789 0.0
C497 C 0.22556 0.8919 0.03897 0.0
C498 C 0.29761 0.83417 0.97916 0.0
C499 C 0.33776 0.73248 0.00451 0.0
C500 C 0.31603 0.77064 0.00731 0.0
C501 C 0.2389 0.87203 0.0054 0.0
C502 C 0.26869 0.83975 0.00829 0.0
H503 H 0.38589 0.66516 0.06112 0.0
H504 H 0.3509 0.72854 0.06611 0.0
H505 H 0.34281 0.79601 0.95556 0.0
H506 H 0.16885 0.90432 0.9415 0.0
H507 H 0.22892 0.86382 0.94357 0.0
C508 C 0.58273 0.30018 0.02826 0.0
C509 C 0.58281 0.32437 0.99509 0.0
C510 C 0.60369 0.2644 0.0284 0.0
C511 C 0.65281 0.1895 0.96548 0.0
H512 H 0.71802 0.17211 0.05696 0.0
C513 C 0.79113 0.08738 0.9708 0.0
C514 C 0.80089 0.06943 0.00639 0.0
C515 C 0.75728 0.11142 0.96779 0.0
C516 C 0.69933 0.17593 0.03155 0.0
H517 H 0.60398 0.3294 0.93561 0.0
H518 H 0.64139 0.26717 0.93624 0.0
H519 H 0.67358 0.22898 0.05476 0.0
H520 H 0.78044 0.05877 0.06532 0.0
H521 H 0.72087 0.10009 0.05975 0.0
H522 H 0.67978 0.13682 0.9419 0.0
C523 C 0.6246 0.27569 0.96191 0.0
C524 C 0.67393 0.20866 0.03025 0.0
C525 C 0.60343 0.31148 0.96168 0.0
C526 C 0.77412 0.07282 0.03773 0.0
C527 C 0.74011 0.0966 0.03459 0.0
C528 C 0.67835 0.15661 0.96678 0.0
C529 C 0.62538 0.25209 0.99549 0.0
C530 C 0.65062 0.21599 0.99713 0.0
C531 C 0.73243 0.11764 1.0002 0.0
C532 C 0.70209 0.1497 0.99976 0.0
H533 H 0.56683 0.30902 0.05435 0.0
H534 H 0.60322 0.2465 0.0545 0.0
H535 H 0.63491 0.19427 0.9397 0.0
H536 H 0.81099 0.08512 0.94597 0.0
H537 H 0.75225 0.12728 0.94091 0.0
C538 C 0.92474 0.75085 1.0008 0.0
C539 C 0.91819 0.77569 0.0331 0.0
C540 C 0.91042 0.71189 1.00073 0.0
C541 C 0.85087 0.63862 0.05945 0.0
H542 H 0.78839 0.63463 0.96473 0.0
C543 C 0.6863 0.59474 0.0531 0.0
C544 C 0.67003 0.58105 0.0179 0.0
C545 C 0.72732 0.60201 0.05616 0.0
C546 C 0.80615 0.63417 0.99103 0.0
H547 H 0.89624 0.77778 0.09246 0.0
H548 H 0.86971 0.71084 0.09176 0.0
H549 H 0.84578 0.67747 0.96812 0.0
H550 H 0.68427 0.55967 0.95989 0.0
H551 H 0.75587 0.57157 0.96552 0.0
H552 H 0.80874 0.59713 0.08304 0.0
C553 C 0.88634 0.72079 0.0666 0.0
C554 C 0.83943 0.6589 0.99299 0.0
C555 C 0.90132 0.75949 0.06692 0.0
C556 C 0.69588 0.57117 0.98711 0.0
C557 C 0.7369 0.57792 0.99034 0.0
C558 C 0.8173 0.61384 0.05751 0.0
C559 C 0.88848 0.69743 0.03261 0.0
C560 C 0.8611 0.66295 0.02779 0.0
C561 C 0.7528 0.59529 0.02419 0.0
C562 C 0.79355 0.61281 0.02381 0.0
H563 H 0.93855 0.76229 0.97462 0.0
H564 H 0.91376 0.69421 0.97453 0.0
H565 H 0.86738 0.64043 0.08646 0.0
H566 H 0.66711 0.60228 0.07745 0.0
H567 H 0.73844 0.61565 0.08259 0.0
C568 C 0.59127 0.49356 0.84028 0.0
C569 C 0.58839 0.51468 0.87553 0.0
C570 C 0.6218 0.50189 0.81391 0.0
C571 C 0.69718 0.5673 0.77739 0.0
H572 H 0.76635 0.47468 0.77758 0.0
C573 C 0.84765 0.56205 0.69206 0.0
C574 C 0.85701 0.52566 0.67396 0.0
C575 C 0.81552 0.56472 0.71819 0.0
C576 C 0.74723 0.50064 0.77663 0.0
H577 H 0.61366 0.56307 0.90896 0.0
H578 H 0.66654 0.57832 0.86243 0.0
H579 H 0.70546 0.47467 0.81621 0.0
H580 H 0.83962 0.46372 0.66868 0.0
H581 H 0.78342 0.46858 0.71261 0.0
H582 H 0.73806 0.59272 0.7364 0.0
C583 C 0.645 0.55531 0.8555 0.0
C584 C 0.7125 0.50064 0.79898 0.0
C585 C 0.61458 0.54664 0.88214 0.0
C586 C 0.83375 0.49209 0.68259 0.0
C587 C 0.80146 0.49487 0.70806 0.0
C588 C 0.73176 0.56707 0.75426 0.0
C589 C 0.64976 0.5318 0.82206 0.0
C590 C 0.68698 0.53366 0.79915 0.0
C591 C 0.79187 0.53113 0.72633 0.0
C592 C 0.75689 0.53339 0.75314 0.0
H593 H 0.57135 0.46894 0.83408 0.0
H594 H 0.62495 0.48349 0.78815 0.0
H595 H 0.67784 0.59315 0.77739 0.0
H596 H 0.86504 0.58846 0.68594 0.0
H597 H 0.80933 0.59302 0.73204 0.0
C598 C 0.19323 0.43661 0.63121 0.0
C599 C 0.17694 0.47444 0.62387 0.0
C600 C 0.2241 0.43209 0.65818 0.0
C601 C 0.25329 0.47779 0.74809 0.0
H602 H 0.35145 0.41649 0.74205 0.0
C603 C 0.34856 0.46144 0.88256 0.0
C604 C 0.38648 0.47799 0.87651 0.0
C605 C 0.32558 0.44915 0.85084 0.0
C606 C 0.32386 0.43327 0.74411 0.0
H607 H 0.18323 0.53755 0.63597 0.0
H608 H 0.23679 0.52942 0.6832 0.0
H609 H 0.30871 0.42276 0.68424 0.0
H610 H 0.43203 0.49127 0.83372 0.0
H611 H 0.39206 0.4696 0.77824 0.0
H612 H 0.26817 0.48889 0.80744 0.0
C613 C 0.22527 0.50335 0.6684 0.0
C614 C 0.29962 0.43696 0.71116 0.0
C615 C 0.19474 0.50796 0.6412 0.0
C616 C 0.40272 0.47858 0.83889 0.0
C617 C 0.37996 0.46597 0.80723 0.0
C618 C 0.27705 0.47363 0.78098 0.0
C619 C 0.23892 0.46526 0.67832 0.0
C620 C 0.26461 0.46 0.71278 0.0
C621 C 0.3404 0.45323 0.81277 0.0
C622 C 0.31285 0.45186 0.77923 0.0
H623 H 0.18044 0.41021 0.61807 0.0
H624 H 0.2343 0.40244 0.66531 0.0
H625 H 0.22604 0.49513 0.75021 0.0
H626 H 0.33522 0.46153 0.91121 0.0
H627 H 0.29518 0.43922 0.85583 0.0
C628 C 0.12259 0.47589 0.3151 0.0
C629 C 0.12378 0.50372 0.34561 0.0
C630 C 0.15389 0.47348 0.28817 0.0
C631 C 0.24386 0.52912 0.25271 0.0
H632 H 0.26617 0.42863 0.20134 0.0
C633 C 0.376 0.50618 0.14565 0.0
C634 C 0.36195 0.49818 0.10786 0.0
C635 C 0.35047 0.50251 0.17774 0.0
C636 C 0.26036 0.45676 0.21573 0.0
H637 H 0.15906 0.55038 0.37232 0.0
H638 H 0.21453 0.54502 0.3267 0.0
H639 H 0.21509 0.43181 0.25202 0.0
H640 H 0.3105 0.47848 0.07456 0.0
H641 H 0.26691 0.46984 0.13078 0.0
H642 H 0.2902 0.5535 0.21683 0.0
C643 C 0.18884 0.52596 0.32238 0.0
C644 C 0.23073 0.45884 0.24447 0.0
C645 C 0.15704 0.529 0.34876 0.0
C646 C 0.32259 0.48419 0.1032 0.0
C647 C 0.2975 0.47943 0.13537 0.0
C648 C 0.27411 0.52675 0.22468 0.0
C649 C 0.18776 0.49817 0.29157 0.0
C650 C 0.22138 0.49527 0.26285 0.0
C651 C 0.31083 0.48972 0.17272 0.0
C652 C 0.28212 0.49074 0.20549 0.0
H653 H 0.09723 0.45612 0.31182 0.0
H654 H 0.15113 0.45241 0.26447 0.0
H655 H 0.23737 0.55789 0.26541 0.0
H656 H 0.40604 0.51726 0.15028 0.0
H657 H 0.36133 0.51062 0.20635 0.0
C658 C 0.59097 0.5284 0.1524 0.0
C659 C 0.57214 0.49182 0.14466 0.0
C660 C 0.61354 0.5337 0.18632 0.0
C661 C 0.6716 0.47379 0.25468 0.0
H662 H 0.6769 0.56989 0.31714 0.0
C663 C 0.77389 0.47902 0.38676 0.0
C664 C 0.79831 0.51278 0.39057 0.0
C665 C 0.74091 0.47932 0.36194 0.0
C666 C 0.67589 0.54294 0.29984 0.0
H667 H 0.56001 0.43312 0.16776 0.0
H668 H 0.59898 0.44248 0.22672 0.0
H669 H 0.62901 0.56546 0.26337 0.0
H670 H 0.80555 0.57428 0.37337 0.0
H671 H 0.74833 0.57456 0.32931 0.0
H672 H 0.7189 0.45147 0.28988 0.0
C673 C 0.59701 0.4668 0.20629 0.0
C674 C 0.64847 0.54042 0.26909 0.0
C675 C 0.57451 0.46152 0.17253 0.0
C676 C 0.78727 0.54779 0.37114 0.0
C677 C 0.75443 0.54795 0.34586 0.0
C678 C 0.69895 0.47635 0.28512 0.0
C679 C 0.61773 0.5025 0.21306 0.0
C680 C 0.64596 0.50569 0.24629 0.0
C681 C 0.7318 0.5132 0.33984 0.0
C682 C 0.70141 0.51082 0.30827 0.0
H683 H 0.58959 0.55243 0.1316 0.0
H684 H 0.62923 0.56152 0.19067 0.0
H685 H 0.67121 0.44702 0.23708 0.0
H686 H 0.78128 0.45171 0.4017 0.0
H687 H 0.72344 0.45238 0.35892 0.0
C688 C 0.35527 0.80574 0.57581 0.0
C689 C 0.37008 0.81249 0.53807 0.0
C690 C 0.32539 0.7773 0.58204 0.0
C691 C 0.24228 0.73702 0.52694 0.0
H692 H 0.22778 0.66166 0.61069 0.0
C693 C 0.1424 0.59218 0.54882 0.0
C694 C 0.10671 0.6065 0.53277 0.0
C695 C 0.17213 0.61864 0.56096 0.0
C696 C 0.23139 0.68282 0.58733 0.0
H697 H 0.36906 0.79137 0.47842 0.0
H698 H 0.31764 0.74151 0.48945 0.0
H699 H 0.28945 0.7013 0.60732 0.0
H700 H 0.07229 0.65912 0.51946 0.0
H701 H 0.12381 0.70562 0.5414 0.0
H702 H 0.18529 0.71842 0.50612 0.0
C703 C 0.32813 0.75898 0.51393 0.0
C704 C 0.26658 0.70543 0.58543 0.0
C705 C 0.35774 0.78737 0.50767 0.0
C706 C 0.09968 0.64753 0.53186 0.0
C707 C 0.12922 0.67402 0.54423 0.0
C708 C 0.20724 0.71484 0.52898 0.0
C709 C 0.31014 0.75518 0.55067 0.0
C710 C 0.27267 0.73203 0.55462 0.0
C711 C 0.16661 0.65984 0.55686 0.0
C712 C 0.20156 0.687 0.55878 0.0
H713 H 0.36431 0.82453 0.5999 0.0
H714 H 0.3122 0.77479 0.61069 0.0
H715 H 0.24575 0.75794 0.50333 0.0
H716 H 0.14897 0.5607 0.54843 0.0
H717 H 0.20068 0.60673 0.57013 0.0
C718 C 0.06293 0.32681 0.47095 0.0
C719 C 0.06809 0.36006 0.49533 0.0
C720 C 0.08199 0.29092 0.4793 0.0
C721 C 0.13831 0.23449 0.55371 0.0
H722 H 0.19988 0.19826 0.46479 0.0
C723 C 0.28094 0.13794 0.56619 0.0
C724 C 0.29192 0.11369 0.53455 0.0
C725 C 0.24623 0.16116 0.56456 0.0
C726 C 0.18228 0.20709 0.48982 0.0
H727 H 0.0947 0.38068 0.54926 0.0
H728 H 0.12798 0.31798 0.56379 0.0
H729 H 0.15144 0.25107 0.45684 0.0
H730 H 0.27319 0.09166 0.47815 0.0
H731 H 0.2119 0.13067 0.47598 0.0
H732 H 0.16982 0.19072 0.58685 0.0
C733 C 0.10921 0.31971 0.53821 0.0
C734 C 0.15448 0.23759 0.48522 0.0
C735 C 0.09027 0.35573 0.52976 0.0
C736 C 0.26583 0.11055 0.50273 0.0
C737 C 0.23084 0.13319 0.50139 0.0
C738 C 0.16597 0.20355 0.55829 0.0
C739 C 0.10647 0.28741 0.5123 0.0
C740 C 0.1326 0.25208 0.51716 0.0
C741 C 0.22149 0.16015 0.53148 0.0
C742 C 0.1888 0.18987 0.52647 0.0
H743 H 0.04567 0.32896 0.44441 0.0
H744 H 0.07879 0.2663 0.45914 0.0
H745 H 0.12167 0.24492 0.57881 0.0
H746 H 0.30048 0.14105 0.59112 0.0
H747 H 0.24025 0.18164 0.58823 0.0
C748 C 0.9114 0.67425 0.49708 0.0
C749 C 0.89515 0.63635 0.49049 0.0
C750 C 0.88927 0.70829 0.48845 0.0
C751 C 0.83339 0.7763 0.46017 0.0
H752 H 0.73589 0.76595 0.52064 0.0
C753 C 0.70127 0.88946 0.4656 0.0
C754 C 0.68303 0.89572 0.50207 0.0
C755 C 0.7327 0.86235 0.46146 0.0
C756 C 0.76308 0.76936 0.50381 0.0
H757 H 0.84464 0.60396 0.46722 0.0
H758 H 0.80543 0.66359 0.45269 0.0
H759 H 0.77895 0.70826 0.51094 0.0
H760 H 0.6859 0.88096 0.56331 0.0
H761 H 0.74065 0.83336 0.55593 0.0
H762 H 0.81708 0.83763 0.45298 0.0
C763 C 0.83547 0.66695 0.46401 0.0
C764 C 0.78738 0.73622 0.49774 0.0
C765 C 0.858 0.63289 0.47193 0.0
C766 C 0.69912 0.87674 0.53481 0.0
C767 C 0.73026 0.84927 0.53056 0.0
C768 C 0.80856 0.80946 0.46564 0.0
C769 C 0.85021 0.70481 0.47395 0.0
C770 C 0.82287 0.73937 0.4761 0.0
C771 C 0.74626 0.84073 0.49362 0.0
C772 C 0.77344 0.80635 0.48799 0.0
H773 H 0.93996 0.67749 0.51163 0.0
H774 H 0.90123 0.73708 0.49652 0.0
H775 H 0.86082 0.77947 0.44366 0.0
H776 H 0.68979 0.90381 0.43979 0.0
H777 H 0.7445 0.85637 0.43268 0.0
C778 C 0.62728 0.19938 0.55361 0.0
C779 C 0.6067 0.18668 0.52025 0.0
C780 C 0.65883 0.22631 0.55057 0.0
C781 C 0.73387 0.25956 0.47919 0.0
H782 H 0.76233 0.33208 0.56254 0.0
C783 C 0.86546 0.37568 0.48549 0.0
C784 C 0.88676 0.37512 0.52075 0.0
C785 C 0.83283 0.35026 0.47992 0.0
C786 C 0.75473 0.31179 0.53913 0.0
H787 H 0.60065 0.19513 0.45797 0.0
H788 H 0.65507 0.24301 0.45292 0.0
H789 H 0.69772 0.29877 0.56399 0.0
H790 H 0.894 0.34415 0.5755 0.0
H791 H 0.83697 0.30022 0.56578 0.0
H792 H 0.79117 0.27355 0.45424 0.0
C793 C 0.64766 0.23112 0.48123 0.0
C794 C 0.7178 0.2927 0.53995 0.0
C795 C 0.61622 0.20397 0.48423 0.0
C796 C 0.87771 0.34582 0.54836 0.0
C797 C 0.84507 0.32072 0.54288 0.0
C798 C 0.77075 0.27923 0.47812 0.0
C799 C 0.67023 0.24151 0.51416 0.0
C800 C 0.70726 0.26561 0.51052 0.0
C801 C 0.82124 0.32416 0.50955 0.0
C802 C 0.78175 0.30469 0.50863 0.0
H803 H 0.62082 0.18664 0.58179 0.0
H804 H 0.6757 0.23335 0.57655 0.0
H805 H 0.72692 0.23855 0.45624 0.0
H806 H 0.87192 0.39772 0.46352 0.0
H807 H 0.81489 0.35316 0.45388 0.0
C808 C 0.5047 0.34639 0.88835 0.0
C809 C 0.47196 0.37162 0.8816 0.0
C810 C 0.51828 0.3204 0.85907 0.0
C811 C 0.51212 0.30163 0.75261 0.0
H812 H 0.51832 0.18983 0.77885 0.0
C813 C 0.46299 0.17901 0.64978 0.0
C814 C 0.48528 0.14387 0.6458 0.0
C815 C 0.47401 0.20805 0.67666 0.0
C816 C 0.51771 0.221 0.77114 0.0
H817 H 0.42816 0.39004 0.83907 0.0
H818 H 0.45195 0.34561 0.78804 0.0
H819 H 0.51455 0.23984 0.83079 0.0
H820 H 0.53705 0.11162 0.66647 0.0
H821 H 0.55588 0.16252 0.71515 0.0
H822 H 0.51284 0.28278 0.69308 0.0
C823 C 0.46755 0.34584 0.81562 0.0
C824 C 0.5155 0.24966 0.80087 0.0
C825 C 0.45374 0.3712 0.84491 0.0
C826 C 0.51958 0.13865 0.66882 0.0
C827 C 0.53017 0.16757 0.6967 0.0
C828 C 0.51421 0.2731 0.72304 0.0
C829 C 0.49961 0.31969 0.8224 0.0
C830 C 0.51091 0.29018 0.79184 0.0
C831 C 0.50725 0.2025 0.70093 0.0
C832 C 0.51531 0.2324 0.73194 0.0
H833 H 0.5184 0.34521 0.91672 0.0
H834 H 0.5429 0.30048 0.86528 0.0
H835 H 0.50946 0.33264 0.7447 0.0
H836 H 0.43642 0.1838 0.63239 0.0
H837 H 0.45543 0.23431 0.67952 0.0
C838 C 0.52306 0.83533 0.62303 0.0
C839 C 0.49828 0.86879 0.61948 0.0
C840 C 0.51425 0.80555 0.64961 0.0
C841 C 0.46519 0.7903 0.74335 0.0
H842 H 0.4969 0.68122 0.72291 0.0
C843 C 0.46953 0.66204 0.85887 0.0
C844 C 0.50767 0.64449 0.86163 0.0
C845 C 0.46069 0.68839 0.8286 0.0
C846 C 0.48771 0.71151 0.72899 0.0
H847 H 0.44381 0.89667 0.64004 0.0
H848 H 0.42812 0.84408 0.68729 0.0
H849 H 0.49132 0.72787 0.66914 0.0
H850 H 0.56618 0.64041 0.83473 0.0
H851 H 0.55028 0.68529 0.78119 0.0
H852 H 0.46213 0.77352 0.80353 0.0
C853 C 0.45454 0.84114 0.66925 0.0
C854 C 0.48455 0.73828 0.69825 0.0
C855 C 0.46325 0.87103 0.64203 0.0
C856 C 0.5366 0.6535 0.83338 0.0
C857 C 0.52745 0.67903 0.8027 0.0
C858 C 0.46783 0.76322 0.77416 0.0
C859 C 0.48041 0.80834 0.67375 0.0
C860 C 0.47488 0.77842 0.70517 0.0
C861 C 0.48949 0.6968 0.80004 0.0
C862 C 0.48054 0.72397 0.76733 0.0
H863 H 0.55023 0.83272 0.60596 0.0
H864 H 0.53524 0.78123 0.65251 0.0
H865 H 0.45792 0.821 0.7498 0.0
H866 H 0.44672 0.65584 0.88041 0.0
H867 H 0.43123 0.70174 0.82717 0.0
C868 C 0.49513 0.65219 0.16179 0.0
C869 C 0.47911 0.6624 0.12544 0.0
C870 C 0.4863 0.67492 0.19479 0.0
C871 C 0.45559 0.77671 0.22113 0.0
H872 H 0.45615 0.73354 0.32542 0.0
C873 C 0.45666 0.87902 0.35589 0.0
C874 C 0.48761 0.87013 0.38208 0.0
C875 C 0.4456 0.85153 0.32718 0.0
C876 C 0.45577 0.746 0.29645 0.0
H877 H 0.43937 0.70312 0.09569 0.0
H878 H 0.42293 0.74198 0.15347 0.0
H879 H 0.45413 0.68853 0.2696 0.0
H880 H 0.52949 0.82451 0.40018 0.0
H881 H 0.51032 0.77688 0.35028 0.0
H882 H 0.45816 0.83411 0.24797 0.0
C883 C 0.44321 0.71706 0.15631 0.0
C884 C 0.45477 0.72024 0.26446 0.0
C885 C 0.4524 0.69457 0.1232 0.0
C886 C 0.50572 0.83244 0.3803 0.0
C887 C 0.49449 0.80495 0.35187 0.0
C888 C 0.45629 0.80243 0.2531 0.0
C889 C 0.4609 0.70817 0.19234 0.0
C890 C 0.45586 0.73526 0.22636 0.0
C891 C 0.46499 0.81451 0.32442 0.0
C892 C 0.45754 0.78735 0.29108 0.0
H893 H 0.51578 0.62755 0.16458 0.0
H894 H 0.50093 0.6674 0.22184 0.0
H895 H 0.45703 0.78944 0.19232 0.0
H896 H 0.44195 0.9077 0.35664 0.0
H897 H 0.42249 0.85955 0.30662 0.0
C898 C 0.50194 0.16672 0.39148 0.0
C899 C 0.46924 0.14042 0.39216 0.0
C900 C 0.51034 0.18888 0.35819 0.0
C901 C 0.48773 0.19736 0.25295 0.0
H902 H 0.50157 0.31037 0.27112 0.0
C903 C 0.45118 0.35037 0.16861 0.0
C904 C 0.4657 0.34144 0.13123 0.0
C905 C 0.46096 0.32629 0.20012 0.0
C906 C 0.49792 0.27886 0.26557 0.0
H907 H 0.42108 0.11521 0.35778 0.0
H908 H 0.43551 0.15403 0.29996 0.0
H909 H 0.50124 0.26486 0.32606 0.0
H910 H 0.50353 0.30133 0.09796 0.0
H911 H 0.52063 0.25924 0.15314 0.0
H912 H 0.48242 0.2116 0.19265 0.0
C913 C 0.45482 0.15741 0.32501 0.0
C914 C 0.49815 0.25273 0.297 0.0
C915 C 0.44636 0.13534 0.35829 0.0
C916 C 0.49162 0.30886 0.12635 0.0
C917 C 0.5013 0.28465 0.15789 0.0
C918 C 0.4876 0.22349 0.22152 0.0
C919 C 0.48636 0.18504 0.32486 0.0
C920 C 0.49196 0.21181 0.29112 0.0
C921 C 0.48545 0.29269 0.19498 0.0
C922 C 0.49159 0.26464 0.2276 0.0
H923 H 0.52041 0.17106 0.417 0.0
H924 H 0.53516 0.20955 0.35877 0.0
H925 H 0.48341 0.16593 0.24747 0.0
H926 H 0.43132 0.37538 0.17341 0.0
H927 H 0.4479 0.33307 0.22821 0.0
loop_
_geom_bond_atom_site_label_1
_geom_bond_atom_site_label_2
_geom_bond_distance
_geom_bond_site_symmetry_2
_ccdc_geom_bond_type
Zn0 O2 1.933 1_556 S
Zn0 O20 1.985 . S
Zn0 O31 1.955 . S
Zn1 O2 1.911 . S
Zn1 O21 1.970 . S
Zn1 O37 1.945 . S
Zn1 O44 1.981 . S
O2 Zn0 1.933 1_554 S
O2 Zn1 1.911 . S
O2 H3 0.841 . S
H3 O2 0.841 . S
C4 O5 1.246 . S
C4 O33 1.276 1_655 S
O5 C4 1.246 . S
Zn6 O8 1.911 . S
Zn6 O23 1.970 . S
Zn6 O40 1.945 . S
Zn6 O47 1.981 . S
Zn7 O8 1.933 1_556 S
Zn7 O22 1.985 . S
Zn7 O29 1.955 . S
O8 Zn6 1.911 . S
O8 Zn7 1.933 1_554 S
O8 H9 0.841 . S
H9 O8 0.841 . S
Zn10 O11 1.933 1_556 S
Zn10 O24 1.985 . S
Zn10 O33 1.955 . S
O11 Zn10 1.933 1_554 S
O11 Zn12 1.911 . S
O11 H13 0.841 . S
Zn12 O11 1.911 . S
Zn12 O25 1.970 . S
Zn12 O41 1.981 . S
Zn12 O43 1.945 . S
H13 O11 0.841 . S
Zn14 O15 1.933 1_556 S
Zn14 O27 1.985 . S
Zn14 O35 1.955 . S
O15 Zn14 1.933 1_554 S
O15 H16 0.841 . S
O15 Zn17 1.911 . S
H16 O15 0.841 . S
Zn17 O15 1.911 . S
Zn17 O28 1.970 . S
Zn17 O38 1.981 . S
Zn17 O46 1.945 . S
C18 O19 1.246 . S
C18 O35 1.276 1_455 S
O19 C18 1.246 . S
O20 Zn0 1.985 . S
O20 C30 1.245 1_556 S
O21 Zn1 1.970 . S
O21 C30 1.263 . S
O22 Zn7 1.985 . S
O22 C34 1.245 1_556 S
O23 Zn6 1.970 . S
O23 C34 1.263 . S
O24 Zn10 1.985 . S
O24 C39 1.245 1_556 S
O25 Zn12 1.970 . S
O25 C39 1.263 . S
C26 O37 1.262 1_545 S
C26 O38 1.245 . S
O27 Zn14 1.985 . S
O27 C45 1.245 1_556 S
O28 Zn17 1.970 . S
O28 C45 1.263 . S
O29 Zn7 1.955 . S
O29 C48 1.276 . S
C30 O20 1.245 1_554 S
C30 O21 1.263 . S
O31 Zn0 1.955 . S
O31 C50 1.276 1_565 S
C32 O40 1.262 . S
C32 O41 1.245 1_545 S
O33 C4 1.276 1_455 S
O33 Zn10 1.955 . S
C34 O22 1.245 1_554 S
C34 O23 1.263 . S
O35 Zn14 1.955 . S
O35 C18 1.276 1_655 S
C36 O43 1.265 . S
C36 O44 1.243 1_455 S
O37 Zn1 1.945 . S
O37 C26 1.262 1_565 S
O38 Zn17 1.981 . S
O38 C26 1.245 . S
C39 O24 1.245 1_554 S
C39 O25 1.263 . S
O40 Zn6 1.945 . S
O40 C32 1.262 . S
O41 Zn12 1.981 . S
O41 C32 1.245 1_565 S
C42 O46 1.262 1_455 S
C42 O47 1.245 . S
O43 Zn12 1.945 . S
O43 C36 1.265 . S
O44 Zn1 1.981 . S
O44 C36 1.243 1_655 S
C45 O27 1.245 1_554 S
C45 O28 1.263 . S
O46 Zn17 1.945 . S
O46 C42 1.262 1_655 S
O47 Zn6 1.981 . S
O47 C42 1.245 . S
C48 O29 1.276 . S
C48 O49 1.246 1_545 S
O49 C48 1.246 1_565 S
C50 O31 1.276 1_545 S
C50 O51 1.246 . S
O51 C50 1.246 . S
Zn52 O54 1.933 . S
Zn52 O72 1.985 . S
Zn52 O83 1.955 . S
Zn53 O54 1.911 . S
Zn53 O73 1.970 . S
Zn53 O89 1.945 . S
Zn53 O96 1.981 . S
O54 Zn52 1.933 . S
O54 Zn53 1.911 . S
O54 H55 0.841 . S
H55 O54 0.841 . S
C56 O57 1.246 . S
C56 O85 1.276 . S
O57 C56 1.246 . S
Zn58 O60 1.911 . S
Zn58 O75 1.970 . S
Zn58 O92 1.945 . S
Zn58 O99 1.981 . S
Zn59 O60 1.933 . S
Zn59 O74 1.985 . S
Zn59 O81 1.955 . S
O60 Zn58 1.911 . S
O60 Zn59 1.933 . S
O60 H61 0.841 . S
H61 O60 0.841 . S
Zn62 O63 1.933 . S
Zn62 O76 1.985 . S
Zn62 O85 1.955 . S
O63 Zn62 1.933 . S
O63 Zn64 1.911 . S
O63 H65 0.841 . S
Zn64 O63 1.911 . S
Zn64 O77 1.970 . S
Zn64 O93 1.981 . S
Zn64 O95 1.945 . S
H65 O63 0.841 . S
Zn66 O67 1.933 . S
Zn66 O79 1.985 . S
Zn66 O87 1.955 . S
O67 Zn66 1.933 . S
O67 H68 0.841 . S
O67 Zn69 1.911 . S
H68 O67 0.841 . S
Zn69 O67 1.911 . S
Zn69 O80 1.970 . S
Zn69 O90 1.981 . S
Zn69 O98 1.945 . S
C70 O71 1.246 . S
C70 O87 1.276 . S
O71 C70 1.246 . S
O72 Zn52 1.985 . S
O72 C82 1.245 . S
O73 Zn53 1.970 . S
O73 C82 1.263 . S
O74 Zn59 1.985 . S
O74 C86 1.245 . S
O75 Zn58 1.970 . S
O75 C86 1.263 . S
O76 Zn62 1.985 . S
O76 C91 1.245 . S
O77 Zn64 1.970 . S
O77 C91 1.263 . S
C78 O89 1.261 . S
C78 O90 1.245 1_655 S
O79 Zn66 1.985 . S
O79 C97 1.245 . S
O80 Zn69 1.970 . S
O80 C97 1.263 . S
O81 Zn59 1.955 . S
O81 C100 1.276 1_455 S
C82 O72 1.245 . S
C82 O73 1.263 . S
O83 Zn52 1.955 . S
O83 C102 1.276 1_655 S
C84 O92 1.267 . S
C84 O93 1.242 1_455 S
O85 C56 1.276 . S
O85 Zn62 1.955 . S
C86 O74 1.245 . S
C86 O75 1.263 . S
O87 Zn66 1.955 . S
O87 C70 1.276 . S
C88 O95 1.262 . S
C88 O96 1.245 . S
O89 Zn53 1.945 . S
O89 C78 1.261 . S
O90 Zn69 1.981 . S
O90 C78 1.245 1_455 S
C91 O76 1.245 . S
C91 O77 1.263 . S
O92 Zn58 1.945 . S
O92 C84 1.267 . S
O93 Zn64 1.981 . S
O93 C84 1.242 1_655 S
C94 O98 1.262 . S
C94 O99 1.245 . S
O95 Zn64 1.945 . S
O95 C88 1.262 . S
O96 Zn53 1.981 . S
O96 C88 1.245 . S
C97 O79 1.245 . S
C97 O80 1.263 . S
O98 Zn69 1.945 . S
O98 C94 1.262 . S
O99 Zn58 1.981 . S
O99 C94 1.245 . S
C100 O81 1.276 1_655 S
C100 O101 1.246 . S
O101 C100 1.246 . S
C102 O83 1.276 1_455 S
C102 O103 1.246 . S
O103 C102 1.246 . S
Zn104 O106 1.933 . S
Zn104 O124 1.985 . S
Zn104 O135 1.955 . S
Zn105 O106 1.911 . S
Zn105 O125 1.970 . S
Zn105 O141 1.945 . S
Zn105 O148 1.981 . S
O106 Zn104 1.933 . S
O106 Zn105 1.911 . S
O106 H107 0.841 . S
H107 O106 0.841 . S
C108 O109 1.246 . S
C108 O137 1.276 . S
O109 C108 1.246 . S
Zn110 O112 1.911 . S
Zn110 O127 1.970 . S
Zn110 O144 1.945 . S
Zn110 O151 1.981 . S
Zn111 O112 1.933 . S
Zn111 O126 1.985 . S
Zn111 O133 1.955 . S
O112 Zn110 1.911 . S
O112 Zn111 1.933 . S
O112 H113 0.841 . S
H113 O112 0.841 . S
Zn114 O115 1.933 . S
Zn114 O128 1.985 . S
Zn114 O137 1.955 . S
O115 Zn114 1.933 . S
O115 Zn116 1.911 . S
O115 H117 0.841 . S
Zn116 O115 1.911 . S
Zn116 O129 1.970 . S
Zn116 O145 1.981 . S
Zn116 O147 1.945 . S
H117 O115 0.841 . S
Zn118 O119 1.933 . S
Zn118 O131 1.985 . S
Zn118 O139 1.955 . S
O119 Zn118 1.933 . S
O119 H120 0.841 . S
O119 Zn121 1.911 . S
H120 O119 0.841 . S
Zn121 O119 1.911 . S
Zn121 O132 1.970 . S
Zn121 O142 1.981 . S
Zn121 O150 1.945 . S
C122 O123 1.246 . S
C122 O139 1.276 . S
O123 C122 1.246 . S
O124 Zn104 1.985 . S
O124 C134 1.245 . S
O125 Zn105 1.970 . S
O125 C134 1.263 . S
O126 Zn111 1.985 . S
O126 C138 1.245 . S
O127 Zn110 1.970 . S
O127 C138 1.263 . S
O128 Zn114 1.985 . S
O128 C143 1.245 . S
O129 Zn116 1.970 . S
O129 C143 1.263 . S
C130 O141 1.262 1_545 S
C130 O142 1.245 . S
O131 Zn118 1.985 . S
O131 C149 1.245 . S
O132 Zn121 1.970 . S
O132 C149 1.263 . S
O133 Zn111 1.955 . S
O133 C152 1.276 . S
C134 O124 1.245 . S
C134 O125 1.263 . S
O135 Zn104 1.955 . S
O135 C154 1.276 1_565 S
C136 O144 1.262 . S
C136 O145 1.245 1_545 S
O137 C108 1.276 . S
O137 Zn114 1.955 . S
C138 O126 1.245 . S
C138 O127 1.263 . S
O139 Zn118 1.955 . S
O139 C122 1.276 . S
C140 O147 1.262 . S
C140 O148 1.245 . S
O141 Zn105 1.945 . S
O141 C130 1.262 1_565 S
O142 Zn121 1.981 . S
O142 C130 1.245 . S
C143 O128 1.245 . S
C143 O129 1.263 . S
O144 Zn110 1.945 . S
O144 C136 1.262 . S
O145 Zn116 1.981 . S
O145 C136 1.245 1_565 S
C146 O150 1.262 . S
C146 O151 1.245 . S
O147 Zn116 1.945 . S
O147 C140 1.262 . S
O148 Zn105 1.981 . S
O148 C140 1.245 . S
C149 O131 1.245 . S
C149 O132 1.263 . S
O150 Zn121 1.945 . S
O150 C146 1.262 . S
O151 Zn110 1.981 . S
O151 C146 1.245 . S
C152 O133 1.276 . S
C152 O153 1.246 1_545 S
O153 C152 1.246 1_565 S
C154 O135 1.276 1_545 S
C154 O155 1.246 . S
O155 C154 1.246 . S
Zn156 O158 1.933 . S
Zn156 O176 1.985 . S
Zn156 O187 1.955 . S
Zn157 O158 1.911 1_556 S
Zn157 O177 1.970 . S
Zn157 O193 1.945 . S
Zn157 O200 1.981 . S
O158 Zn156 1.933 . S
O158 Zn157 1.911 1_554 S
O158 H159 0.841 . S
H159 O158 0.841 . S
C160 O161 1.246 . S
C160 O189 1.276 . S
O161 C160 1.246 . S
Zn162 O164 1.911 1_556 S
Zn162 O179 1.970 . S
Zn162 O196 1.945 . S
Zn162 O203 1.981 . S
Zn163 O164 1.933 . S
Zn163 O178 1.985 . S
Zn163 O185 1.955 . S
O164 Zn162 1.911 1_554 S
O164 Zn163 1.933 . S
O164 H165 0.841 . S
H165 O164 0.841 . S
Zn166 O167 1.933 . S
Zn166 O180 1.985 . S
Zn166 O189 1.955 . S
O167 Zn166 1.933 . S
O167 Zn168 1.911 1_554 S
O167 H169 0.841 . S
Zn168 O167 1.911 1_556 S
Zn168 O181 1.970 . S
Zn168 O197 1.981 . S
Zn168 O199 1.945 . S
H169 O167 0.841 . S
Zn170 O171 1.933 . S
Zn170 O183 1.985 . S
Zn170 O191 1.955 . S
O171 Zn170 1.933 . S
O171 H172 0.841 . S
O171 Zn173 1.911 1_554 S
H172 O171 0.841 . S
Zn173 O171 1.911 1_556 S
Zn173 O184 1.970 . S
Zn173 O194 1.981 . S
Zn173 O202 1.945 . S
C174 O175 1.246 . S
C174 O191 1.276 . S
O175 C174 1.246 . S
O176 Zn156 1.985 . S
O176 C186 1.245 . S
O177 Zn157 1.970 . S
O177 C186 1.263 1_556 S
O178 Zn163 1.985 . S
O178 C190 1.245 . S
O179 Zn162 1.970 . S
O179 C190 1.263 1_556 S
O180 Zn166 1.985 . S
O180 C195 1.245 . S
O181 Zn168 1.970 . S
O181 C195 1.263 1_556 S
C182 O193 1.262 . S
C182 O194 1.245 . S
O183 Zn170 1.985 . S
O183 C201 1.245 . S
O184 Zn173 1.970 . S
O184 C201 1.263 1_556 S
O185 Zn163 1.955 . S
O185 C204 1.276 . S
C186 O176 1.245 . S
C186 O177 1.263 1_554 S
O187 Zn156 1.955 . S
O187 C206 1.276 . S
C188 O196 1.262 . S
C188 O197 1.245 . S
O189 C160 1.276 . S
O189 Zn166 1.955 . S
C190 O178 1.245 . S
C190 O179 1.263 1_554 S
O191 Zn170 1.955 . S
O191 C174 1.276 . S
C192 O199 1.262 . S
C192 O200 1.245 . S
O193 Zn157 1.945 . S
O193 C182 1.262 . S
O194 Zn173 1.981 . S
O194 C182 1.245 . S
C195 O180 1.245 . S
C195 O181 1.263 1_554 S
O196 Zn162 1.945 . S
O196 C188 1.262 . S
O197 Zn168 1.981 . S
O197 C188 1.245 . S
C198 O202 1.262 . S
C198 O203 1.245 . S
O199 Zn168 1.945 . S
O199 C192 1.262 . S
O200 Zn157 1.981 . S
O200 C192 1.245 . S
C201 O183 1.245 . S
C201 O184 1.263 1_554 S
O202 Zn173 1.945 . S
O202 C198 1.262 . S
O203 Zn162 1.981 . S
O203 C198 1.245 . S
C204 O185 1.276 . S
C204 O205 1.246 . S
O205 C204 1.246 . S
C206 O187 1.276 . S
C206 O207 1.246 . S
O207 C206 1.246 . S
C208 C209 1.349 . S
C208 C210 1.327 . S
C208 H233 0.950 . S
C209 C208 1.349 . S
C209 C225 1.349 1_455 S
C210 C208 1.327 . S
C210 C229 1.429 . S
C210 H234 0.950 . S
C211 C228 1.574 . S
C211 C230 1.368 1_655 S
C211 H235 0.949 . S
H212 C216 0.949 . S
C213 C214 1.349 1_655 S
C213 C215 1.327 . S
C213 H236 0.950 . S
C214 C213 1.349 1_455 S
C214 C226 1.349 . S
C215 C213 1.327 . S
C215 C231 1.429 1_655 S
C215 H237 0.950 . S
C216 H212 0.949 . S
C216 C224 1.574 . S
C216 C232 1.368 . S
H217 C225 0.950 . S
H218 C223 0.950 . S
H219 C224 0.949 . S
H220 C226 0.950 . S
H221 C227 0.950 . S
H222 C228 0.949 . S
C223 H218 0.950 . S
C223 C225 1.327 . S
C223 C229 1.429 1_655 S
C224 C216 1.574 . S
C224 H219 0.949 . S
C224 C230 1.368 . S
C225 C209 1.349 1_655 S
C225 H217 0.950 . S
C225 C223 1.327 . S
C226 C214 1.349 . S
C226 H220 0.950 . S
C226 C227 1.327 . S
C227 H221 0.950 . S
C227 C226 1.327 . S
C227 C231 1.429 . S
C228 C211 1.574 . S
C228 H222 0.949 . S
C228 C232 1.368 1_655 S
C229 C210 1.429 . S
C229 C223 1.429 1_455 S
C229 C230 1.523 . S
C230 C211 1.368 1_455 S
C230 C224 1.368 . S
C230 C229 1.523 . S
C231 C215 1.429 1_455 S
C231 C227 1.429 . S
C231 C232 1.523 . S
C232 C216 1.368 . S
C232 C228 1.368 1_455 S
C232 C231 1.523 . S
H233 C208 0.950 . S
H234 C210 0.950 . S
H235 C211 0.949 . S
H236 C213 0.950 . S
H237 C215 0.950 . S
C238 C239 1.349 . S
C238 C240 1.327 . S
C238 H263 0.950 . S
C239 C238 1.349 . S
C239 C255 1.349 1_545 S
C240 C238 1.327 . S
C240 C259 1.429 . S
C240 H264 0.950 . S
C241 C258 1.574 . S
C241 C260 1.368 1_565 S
C241 H265 0.949 . S
H242 C246 0.949 . S
C243 C244 1.349 . S
C243 C245 1.327 . S
C243 H266 0.950 . S
C244 C243 1.349 . S
C244 C256 1.349 1_565 S
C245 C243 1.327 . S
C245 C261 1.429 . S
C245 H267 0.950 . S
C246 H242 0.949 . S
C246 C254 1.574 . S
C246 C262 1.374 . S
H247 C255 0.950 . S
H248 C253 0.950 . S
H249 C254 0.949 . S
H250 C256 0.950 . S
H251 C257 0.950 . S
H252 C258 0.949 . S
C253 H248 0.950 . S
C253 C255 1.327 . S
C253 C259 1.429 1_565 S
C254 C246 1.574 . S
C254 H249 0.949 . S
C254 C260 1.368 . S
C255 C239 1.349 1_565 S
C255 H247 0.950 . S
C255 C253 1.327 . S
C256 C244 1.349 1_545 S
C256 H250 0.950 . S
C256 C257 1.327 . S
C257 H251 0.950 . S
C257 C256 1.327 . S
C257 C261 1.429 1_545 S
C258 C241 1.574 . S
C258 H252 0.949 . S
C258 C262 1.363 1_565 S
C259 C240 1.429 . S
C259 C253 1.429 1_545 S
C259 C260 1.523 . S
C260 C241 1.368 1_545 S
C260 C254 1.368 . S
C260 C259 1.523 . S
C261 C245 1.429 . S
C261 C257 1.429 1_565 S
C261 C262 1.523 1_565 S
C262 C246 1.374 . S
C262 C258 1.363 1_545 S
C262 C261 1.523 1_545 S
H263 C238 0.950 . S
H264 C240 0.950 . S
H265 C241 0.949 . S
H266 C243 0.950 . S
H267 C245 0.950 . S
C268 C269 1.349 1_455 S
C268 C270 1.327 . S
C268 H293 0.950 . S
C269 C268 1.349 1_655 S
C269 C285 1.349 . S
C270 C268 1.327 . S
C270 C289 1.429 1_455 S
C270 H294 0.950 . S
C271 C288 1.574 . S
C271 C290 1.368 . S
C271 H295 0.949 . S
H272 C276 0.949 . S
C273 C274 1.349 1_655 S
C273 C275 1.327 . S
C273 H296 0.950 . S
C274 C273 1.349 1_455 S
C274 C286 1.349 . S
C275 C273 1.327 . S
C275 C291 1.429 1_655 S
C275 H297 0.950 . S
C276 H272 0.949 . S
C276 C284 1.574 . S
C276 C292 1.368 . S
H277 C285 0.950 . S
H278 C283 0.950 . S
H279 C284 0.949 . S
H280 C286 0.950 . S
H281 C287 0.950 . S
H282 C288 0.949 . S
C283 H278 0.950 . S
C283 C285 1.327 . S
C283 C289 1.429 . S
C284 C276 1.574 . S
C284 H279 0.949 . S
C284 C290 1.368 1_455 S
C285 C269 1.349 . S
C285 H277 0.950 . S
C285 C283 1.327 . S
C286 C274 1.349 . S
C286 H280 0.950 . S
C286 C287 1.327 . S
C287 H281 0.950 . S
C287 C286 1.327 . S
C287 C291 1.429 . S
C288 C271 1.574 . S
C288 H282 0.949 . S
C288 C292 1.368 1_655 S
C289 C270 1.429 1_655 S
C289 C283 1.429 . S
C289 C290 1.523 . S
C290 C271 1.368 . S
C290 C284 1.368 1_655 S
C290 C289 1.523 . S
C291 C275 1.429 1_455 S
C291 C287 1.429 . S
C291 C292 1.523 . S
C292 C276 1.368 . S
C292 C288 1.368 1_455 S
C292 C291 1.523 . S
H293 C268 0.950 . S
H294 C270 0.950 . S
H295 C271 0.949 . S
H296 C273 0.950 . S
H297 C275 0.950 . S
C298 C299 1.349 . S
C298 C300 1.327 . S
C298 H323 0.950 . S
C299 C298 1.349 . S
C299 C315 1.349 1_545 S
C300 C298 1.327 . S
C300 C319 1.429 . S
C300 H324 0.950 . S
C301 C318 1.574 . S
C301 C320 1.368 1_565 S
C301 H325 0.949 . S
H302 C306 0.949 . S
C303 C304 1.349 . S
C303 C305 1.327 . S
C303 H326 0.950 . S
C304 C303 1.349 . S
C304 C316 1.349 1_565 S
C305 C303 1.327 . S
C305 C321 1.429 1_565 S
C305 H327 0.950 . S
C306 H302 0.949 . S
C306 C314 1.574 . S
C306 C322 1.368 . S
H307 C315 0.950 . S
H308 C313 0.950 . S
H309 C314 0.949 . S
H310 C316 0.950 . S
H311 C317 0.950 . S
H312 C318 0.949 . S
C313 H308 0.950 . S
C313 C315 1.327 . S
C313 C319 1.429 1_565 S
C314 C306 1.574 . S
C314 H309 0.949 . S
C314 C320 1.368 . S
C315 C299 1.349 1_565 S
C315 H307 0.950 . S
C315 C313 1.327 . S
C316 C304 1.349 1_545 S
C316 H310 0.950 . S
C316 C317 1.327 . S
C317 H311 0.950 . S
C317 C316 1.327 . S
C317 C321 1.429 . S
C318 C301 1.574 . S
C318 H312 0.949 . S
C318 C322 1.368 1_565 S
C319 C300 1.429 . S
C319 C313 1.429 1_545 S
C319 C320 1.523 . S
C320 C301 1.368 1_545 S
C320 C314 1.368 . S
C320 C319 1.523 . S
C321 C305 1.429 1_545 S
C321 C317 1.429 . S
C321 C322 1.523 . S
C322 C306 1.368 . S
C322 C318 1.368 1_545 S
C322 C321 1.523 . S
H323 C298 0.950 . S
H324 C300 0.950 . S
H325 C301 0.949 . S
H326 C303 0.950 . S
H327 C305 0.950 . S
C328 C329 1.349 . S
C328 C330 1.327 . S
C328 H353 0.950 . S
C329 C328 1.349 . S
C329 C345 1.349 1_655 S
C330 C328 1.327 . S
C330 C349 1.429 . S
C330 H354 0.950 . S
C331 C348 1.574 . S
C331 C350 1.368 1_455 S
C331 H355 0.949 . S
H332 C336 0.949 . S
C333 C334 1.349 1_455 S
C333 C335 1.327 . S
C333 H356 0.950 . S
C334 C333 1.349 1_655 S
C334 C346 1.349 . S
C335 C333 1.327 . S
C335 C351 1.429 1_455 S
C335 H357 0.950 . S
C336 H332 0.949 . S
C336 C344 1.574 . S
C336 C352 1.368 . S
H337 C345 0.950 . S
H338 C343 0.950 . S
H339 C344 0.949 . S
H340 C346 0.950 . S
H341 C347 0.950 . S
H342 C348 0.949 . S
C343 H338 0.950 . S
C343 C345 1.327 . S
C343 C349 1.429 1_455 S
C344 C336 1.574 . S
C344 H339 0.949 . S
C344 C350 1.368 . S
C345 C329 1.349 1_455 S
C345 H337 0.950 . S
C345 C343 1.327 . S
C346 C334 1.349 . S
C346 H340 0.950 . S
C346 C347 1.327 . S
C347 H341 0.950 . S
C347 C346 1.327 . S
C347 C351 1.429 . S
C348 C331 1.574 . S
C348 H342 0.949 . S
C348 C352 1.368 1_455 S
C349 C330 1.429 . S
C349 C343 1.429 1_655 S
C349 C350 1.523 . S
C350 C331 1.368 1_655 S
C350 C344 1.368 . S
C350 C349 1.523 . S
C351 C335 1.429 1_655 S
C351 C347 1.429 . S
C351 C352 1.523 . S
C352 C336 1.368 . S
C352 C348 1.368 1_655 S
C352 C351 1.523 . S
H353 C328 0.950 . S
H354 C330 0.950 . S
H355 C331 0.949 . S
H356 C333 0.950 . S
H357 C335 0.950 . S
C358 C359 1.349 . S
C358 C360 1.327 . S
C358 H383 0.950 . S
C359 C358 1.349 . S
C359 C375 1.349 1_565 S
C360 C358 1.327 . S
C360 C379 1.429 . S
C360 H384 0.950 . S
C361 C378 1.574 . S
C361 C380 1.373 . S
C361 H385 0.949 . S
H362 C366 0.949 . S
C363 C364 1.349 . S
C363 C365 1.327 . S
C363 H386 0.950 . S
C364 C363 1.349 . S
C364 C376 1.349 1_545 S
C365 C363 1.327 . S
C365 C381 1.429 . S
C365 H387 0.950 . S
C366 H362 0.949 . S
C366 C374 1.574 . S
C366 C382 1.368 1_565 S
H367 C375 0.950 . S
H368 C373 0.950 . S
H369 C374 0.949 . S
H370 C376 0.950 . S
H371 C377 0.950 . S
H372 C378 0.949 . S
C373 H368 0.950 . S
C373 C375 1.327 . S
C373 C379 1.429 1_545 S
C374 C366 1.574 . S
C374 H369 0.949 . S
C374 C380 1.364 1_565 S
C375 C359 1.349 1_545 S
C375 H367 0.950 . S
C375 C373 1.327 . S
C376 C364 1.349 1_565 S
C376 H370 0.950 . S
C376 C377 1.327 . S
C377 H371 0.950 . S
C377 C376 1.327 . S
C377 C381 1.429 1_565 S
C378 C361 1.574 . S
C378 H372 0.949 . S
C378 C382 1.368 . S
C379 C360 1.429 . S
C379 C373 1.429 1_565 S
C379 C380 1.523 1_565 S
C380 C361 1.373 . S
C380 C374 1.364 1_545 S
C380 C379 1.523 1_545 S
C381 C365 1.429 . S
C381 C377 1.429 1_545 S
C381 C382 1.523 . S
C382 C366 1.368 1_545 S
C382 C378 1.368 . S
C382 C381 1.523 . S
H383 C358 0.950 . S
H384 C360 0.950 . S
H385 C361 0.949 . S
H386 C363 0.950 . S
H387 C365 0.950 . S
C388 C389 1.349 1_455 S
C388 C390 1.327 . S
C388 H413 0.950 . S
C389 C388 1.349 1_655 S
C389 C405 1.349 . S
C390 C388 1.327 . S
C390 C409 1.429 1_455 S
C390 H414 0.950 . S
C391 C408 1.574 . S
C391 C410 1.368 . S
C391 H415 0.949 . S
H392 C396 0.949 . S
C393 C394 1.349 1_655 S
C393 C395 1.327 . S
C393 H416 0.950 . S
C394 C393 1.349 1_455 S
C394 C406 1.349 . S
C395 C393 1.327 . S
C395 C411 1.429 1_655 S
C395 H417 0.950 . S
C396 H392 0.949 . S
C396 C404 1.574 . S
C396 C412 1.368 . S
H397 C405 0.950 . S
H398 C403 0.950 . S
H399 C404 0.949 . S
H400 C406 0.950 . S
H401 C407 0.950 . S
H402 C408 0.949 . S
C403 H398 0.950 . S
C403 C405 1.327 . S
C403 C409 1.429 . S
C404 C396 1.574 . S
C404 H399 0.949 . S
C404 C410 1.368 1_455 S
C405 C389 1.349 . S
C405 H397 0.950 . S
C405 C403 1.327 . S
C406 C394 1.349 . S
C406 H400 0.950 . S
C406 C407 1.327 . S
C407 H401 0.950 . S
C407 C406 1.327 . S
C407 C411 1.429 . S
C408 C391 1.574 . S
C408 H402 0.949 . S
C408 C412 1.368 1_655 S
C409 C390 1.429 1_655 S
C409 C403 1.429 . S
C409 C410 1.523 . S
C410 C391 1.368 . S
C410 C404 1.368 1_655 S
C410 C409 1.523 . S
C411 C395 1.429 1_455 S
C411 C407 1.429 . S
C411 C412 1.523 . S
C412 C396 1.368 . S
C412 C408 1.368 1_455 S
C412 C411 1.523 . S
H413 C388 0.950 . S
H414 C390 0.950 . S
H415 C391 0.949 . S
H416 C393 0.950 . S
H417 C395 0.950 . S
C418 C419 1.349 . S
C418 C420 1.327 . S
C418 H443 0.950 . S
C419 C418 1.349 . S
C419 C435 1.349 1_565 S
C420 C418 1.327 . S
C420 C439 1.429 1_565 S
C420 H444 0.950 . S
C421 C438 1.574 . S
C421 C440 1.368 . S
C421 H445 0.949 . S
H422 C426 0.949 . S
C423 C424 1.349 . S
C423 C425 1.327 . S
C423 H446 0.950 . S
C424 C423 1.349 . S
C424 C436 1.349 1_545 S
C425 C423 1.327 . S
C425 C441 1.429 . S
C425 H447 0.950 . S
C426 H422 0.949 . S
C426 C434 1.574 . S
C426 C442 1.368 1_565 S
H427 C435 0.950 . S
H428 C433 0.950 . S
H429 C434 0.949 . S
H430 C436 0.950 . S
H431 C437 0.950 . S
H432 C438 0.949 . S
C433 H428 0.950 . S
C433 C435 1.327 . S
C433 C439 1.429 . S
C434 C426 1.574 . S
C434 H429 0.949 . S
C434 C440 1.368 1_565 S
C435 C419 1.349 1_545 S
C435 H427 0.950 . S
C435 C433 1.327 . S
C436 C424 1.349 1_565 S
C436 H430 0.950 . S
C436 C437 1.327 . S
C437 H431 0.950 . S
C437 C436 1.327 . S
C437 C441 1.429 1_565 S
C438 C421 1.574 . S
C438 H432 0.949 . S
C438 C442 1.368 . S
C439 C420 1.429 1_545 S
C439 C433 1.429 . S
C439 C440 1.523 . S
C440 C421 1.368 . S
C440 C434 1.368 1_545 S
C440 C439 1.523 . S
C441 C425 1.429 . S
C441 C437 1.429 1_545 S
C441 C442 1.523 . S
C442 C426 1.368 1_545 S
C442 C438 1.368 . S
C442 C441 1.523 . S
H443 C418 0.950 . S
H444 C420 0.950 . S
H445 C421 0.949 . S
H446 C423 0.950 . S
H447 C425 0.950 . S
C448 C449 1.349 . S
C448 C450 1.327 . S
C448 H473 0.950 . S
C449 C448 1.349 . S
C449 C465 1.349 1_554 S
C450 C448 1.327 . S
C450 C469 1.429 . S
C450 H474 0.950 . S
C451 C468 1.574 . S
C451 C470 1.368 1_556 S
C451 H475 0.949 . S
H452 C456 0.949 . S
C453 C454 1.349 1_556 S
C453 C455 1.327 . S
C453 H476 0.950 . S
C454 C453 1.349 1_554 S
C454 C466 1.349 . S
C455 C453 1.327 . S
C455 C471 1.429 1_556 S
C455 H477 0.950 . S
C456 H452 0.949 . S
C456 C464 1.574 . S
C456 C472 1.368 . S
H457 C465 0.950 . S
H458 C463 0.950 . S
H459 C464 0.949 . S
H460 C466 0.950 . S
H461 C467 0.950 . S
H462 C468 0.949 . S
C463 H458 0.950 . S
C463 C465 1.327 . S
C463 C469 1.429 1_556 S
C464 C456 1.574 . S
C464 H459 0.949 . S
C464 C470 1.368 . S
C465 C449 1.349 1_556 S
C465 H457 0.950 . S
C465 C463 1.327 . S
C466 C454 1.349 . S
C466 H460 0.950 . S
C466 C467 1.327 . S
C467 H461 0.950 . S
C467 C466 1.327 . S
C467 C471 1.429 . S
C468 C451 1.574 . S
C468 H462 0.949 . S
C468 C472 1.368 1_556 S
C469 C450 1.429 . S
C469 C463 1.429 1_554 S
C469 C470 1.523 . S
C470 C451 1.368 1_554 S
C470 C464 1.368 . S
C470 C469 1.523 . S
C471 C455 1.429 1_554 S
C471 C467 1.429 . S
C471 C472 1.523 . S
C472 C456 1.368 . S
C472 C468 1.368 1_554 S
C472 C471 1.523 . S
H473 C448 0.950 . S
H474 C450 0.950 . S
H475 C451 0.949 . S
H476 C453 0.950 . S
H477 C455 0.950 . S
C478 C479 1.349 . S
C478 C480 1.327 . S
C478 H503 0.950 . S
C479 C478 1.349 . S
C479 C495 1.349 1_554 S
C480 C478 1.327 . S
C480 C499 1.429 . S
C480 H504 0.950 . S
C481 C498 1.574 . S
C481 C500 1.368 1_556 S
C481 H505 0.949 . S
H482 C486 0.949 . S
C483 C484 1.349 1_556 S
C483 C485 1.327 . S
C483 H506 0.950 . S
C484 C483 1.349 1_554 S
C484 C496 1.349 . S
C485 C483 1.327 . S
C485 C501 1.429 1_556 S
C485 H507 0.950 . S
C486 H482 0.949 . S
C486 C494 1.574 . S
C486 C502 1.368 . S
H487 C495 0.950 . S
H488 C493 0.950 . S
H489 C494 0.949 . S
H490 C496 0.950 . S
H491 C497 0.950 . S
H492 C498 0.949 . S
C493 H488 0.950 . S
C493 C495 1.327 . S
C493 C499 1.429 1_556 S
C494 C486 1.574 . S
C494 H489 0.949 . S
C494 C500 1.368 . S
C495 C479 1.349 1_556 S
C495 H487 0.950 . S
C495 C493 1.327 . S
C496 C484 1.349 . S
C496 H490 0.950 . S
C496 C497 1.327 . S
C497 H491 0.950 . S
C497 C496 1.327 . S
C497 C501 1.429 . S
C498 C481 1.574 . S
C498 H492 0.949 . S
C498 C502 1.368 1_556 S
C499 C480 1.429 . S
C499 C493 1.429 1_554 S
C499 C500 1.523 . S
C500 C481 1.368 1_554 S
C500 C494 1.368 . S
C500 C499 1.523 . S
C501 C485 1.429 1_554 S
C501 C497 1.429 . S
C501 C502 1.523 . S
C502 C486 1.368 . S
C502 C498 1.368 1_554 S
C502 C501 1.523 . S
H503 C478 0.950 . S
H504 C480 0.950 . S
H505 C481 0.949 . S
H506 C483 0.950 . S
H507 C485 0.950 . S
C508 C509 1.349 . S
C508 C510 1.327 . S
C508 H533 0.950 . S
C509 C508 1.349 . S
C509 C525 1.349 1_554 S
C510 C508 1.327 . S
C510 C529 1.429 . S
C510 H534 0.950 . S
C511 C528 1.574 . S
C511 C530 1.368 1_556 S
C511 H535 0.949 . S
H512 C516 0.949 . S
C513 C514 1.349 1_556 S
C513 C515 1.327 . S
C513 H536 0.950 . S
C514 C513 1.349 1_554 S
C514 C526 1.349 . S
C515 C513 1.327 . S
C515 C531 1.429 1_556 S
C515 H537 0.950 . S
C516 H512 0.949 . S
C516 C524 1.574 . S
C516 C532 1.368 . S
H517 C525 0.950 . S
H518 C523 0.950 . S
H519 C524 0.949 . S
H520 C526 0.950 . S
H521 C527 0.950 . S
H522 C528 0.949 . S
C523 H518 0.950 . S
C523 C525 1.327 . S
C523 C529 1.429 1_556 S
C524 C516 1.574 . S
C524 H519 0.949 . S
C524 C530 1.368 . S
C525 C509 1.349 1_556 S
C525 H517 0.950 . S
C525 C523 1.327 . S
C526 C514 1.349 . S
C526 H520 0.950 . S
C526 C527 1.327 . S
C527 H521 0.950 . S
C527 C526 1.327 . S
C527 C531 1.429 . S
C528 C511 1.574 . S
C528 H522 0.949 . S
C528 C532 1.368 1_556 S
C529 C510 1.429 . S
C529 C523 1.429 1_554 S
C529 C530 1.523 . S
C530 C511 1.368 1_554 S
C530 C524 1.368 . S
C530 C529 1.523 . S
C531 C515 1.429 1_554 S
C531 C527 1.429 . S
C531 C532 1.523 . S
C532 C516 1.368 . S
C532 C528 1.368 1_554 S
C532 C531 1.523 . S
H533 C508 0.950 . S
H534 C510 0.950 . S
H535 C511 0.949 . S
H536 C513 0.950 . S
H537 C515 0.950 . S
C538 C539 1.349 1_556 S
C538 C540 1.327 . S
C538 H563 0.950 . S
C539 C538 1.349 1_554 S
C539 C555 1.349 . S
C540 C538 1.327 . S
C540 C559 1.429 1_556 S
C540 H564 0.950 . S
C541 C558 1.574 . S
C541 C560 1.368 . S
C541 H565 0.949 . S
H542 C546 0.949 . S
C543 C544 1.349 . S
C543 C545 1.327 . S
C543 H566 0.950 . S
C544 C543 1.349 . S
C544 C556 1.349 1_554 S
C545 C543 1.327 . S
C545 C561 1.429 . S
C545 H567 0.950 . S
C546 H542 0.949 . S
C546 C554 1.574 . S
C546 C562 1.368 1_556 S
H547 C555 0.950 . S
H548 C553 0.950 . S
H549 C554 0.949 . S
H550 C556 0.950 . S
H551 C557 0.950 . S
H552 C558 0.949 . S
C553 H548 0.950 . S
C553 C555 1.327 . S
C553 C559 1.429 . S
C554 C546 1.574 . S
C554 H549 0.949 . S
C554 C560 1.368 1_556 S
C555 C539 1.349 . S
C555 H547 0.950 . S
C555 C553 1.327 . S
C556 C544 1.349 1_556 S
C556 H550 0.950 . S
C556 C557 1.327 . S
C557 H551 0.950 . S
C557 C556 1.327 . S
C557 C561 1.429 1_556 S
C558 C541 1.574 . S
C558 H552 0.949 . S
C558 C562 1.368 . S
C559 C540 1.429 1_554 S
C559 C553 1.429 . S
C559 C560 1.523 . S
C560 C541 1.368 . S
C560 C554 1.368 1_554 S
C560 C559 1.523 . S
C561 C545 1.429 . S
C561 C557 1.429 1_554 S
C561 C562 1.523 . S
C562 C546 1.368 1_554 S
C562 C558 1.368 . S
C562 C561 1.523 . S
H563 C538 0.950 . S
H564 C540 0.950 . S
H565 C541 0.949 . S
H566 C543 0.950 . S
H567 C545 0.950 . S
C568 C569 1.349 . S
C568 C570 1.327 . S
C568 H593 0.950 . S
C569 C568 1.349 . S
C569 C585 1.349 . S
C570 C568 1.327 . S
C570 C589 1.429 . S
C570 H594 0.950 . S
C571 C588 1.574 . S
C571 C590 1.368 . S
C571 H595 0.949 . S
H572 C576 0.949 . S
C573 C574 1.349 . S
C573 C575 1.327 . S
C573 H596 0.950 . S
C574 C573 1.349 . S
C574 C586 1.349 . S
C575 C573 1.327 . S
C575 C591 1.429 . S
C575 H597 0.950 . S
C576 H572 0.949 . S
C576 C584 1.574 . S
C576 C592 1.368 . S
H577 C585 0.950 . S
H578 C583 0.950 . S
H579 C584 0.949 . S
H580 C586 0.950 . S
H581 C587 0.950 . S
H582 C588 0.949 . S
C583 H578 0.950 . S
C583 C585 1.327 . S
C583 C589 1.429 . S
C584 C576 1.574 . S
C584 H579 0.949 . S
C584 C590 1.368 . S
C585 C569 1.349 . S
C585 H577 0.950 . S
C585 C583 1.327 . S
C586 C574 1.349 . S
C586 H580 0.950 . S
C586 C587 1.327 . S
C587 H581 0.950 . S
C587 C586 1.327 . S
C587 C591 1.429 . S
C588 C571 1.574 . S
C588 H582 0.949 . S
C588 C592 1.368 . S
C589 C570 1.429 . S
C589 C583 1.429 . S
C589 C590 1.523 . S
C590 C571 1.368 . S
C590 C584 1.368 . S
C590 C589 1.523 . S
C591 C575 1.429 . S
C591 C587 1.429 . S
C591 C592 1.523 . S
C592 C576 1.368 . S
C592 C588 1.368 . S
C592 C591 1.523 . S
H593 C568 0.950 . S
H594 C570 0.950 . S
H595 C571 0.949 . S
H596 C573 0.950 . S
H597 C575 0.950 . S
C598 C599 1.349 . S
C598 C600 1.327 . S
C598 H623 0.950 . S
C599 C598 1.349 . S
C599 C615 1.349 . S
C600 C598 1.327 . S
C600 C619 1.429 . S
C600 H624 0.950 . S
C601 C618 1.574 . S
C601 C620 1.368 . S
C601 H625 0.949 . S
H602 C606 0.949 . S
C603 C604 1.349 . S
C603 C605 1.327 . S
C603 H626 0.950 . S
C604 C603 1.349 . S
C604 C616 1.349 . S
C605 C603 1.327 . S
C605 C621 1.429 . S
C605 H627 0.950 . S
C606 H602 0.949 . S
C606 C614 1.574 . S
C606 C622 1.368 . S
H607 C615 0.950 . S
H608 C613 0.950 . S
H609 C614 0.949 . S
H610 C616 0.950 . S
H611 C617 0.950 . S
H612 C618 0.949 . S
C613 H608 0.950 . S
C613 C615 1.327 . S
C613 C619 1.429 . S
C614 C606 1.574 . S
C614 H609 0.949 . S
C614 C620 1.368 . S
C615 C599 1.349 . S
C615 H607 0.950 . S
C615 C613 1.327 . S
C616 C604 1.349 . S
C616 H610 0.950 . S
C616 C617 1.327 . S
C617 H611 0.950 . S
C617 C616 1.327 . S
C617 C621 1.429 . S
C618 C601 1.574 . S
C618 H612 0.949 . S
C618 C622 1.368 . S
C619 C600 1.429 . S
C619 C613 1.429 . S
C619 C620 1.523 . S
C620 C601 1.368 . S
C620 C614 1.368 . S
C620 C619 1.523 . S
C621 C605 1.429 . S
C621 C617 1.429 . S
C621 C622 1.523 . S
C622 C606 1.368 . S
C622 C618 1.368 . S
C622 C621 1.523 . S
H623 C598 0.950 . S
H624 C600 0.950 . S
H625 C601 0.949 . S
H626 C603 0.950 . S
H627 C605 0.950 . S
C628 C629 1.349 . S
C628 C630 1.327 . S
C628 H653 0.950 . S
C629 C628 1.349 . S
C629 C645 1.349 . S
C630 C628 1.327 . S
C630 C649 1.429 . S
C630 H654 0.950 . S
C631 C648 1.574 . S
C631 C650 1.368 . S
C631 H655 0.949 . S
H632 C636 0.949 . S
C633 C634 1.349 . S
C633 C635 1.327 . S
C633 H656 0.950 . S
C634 C633 1.349 . S
C634 C646 1.349 . S
C635 C633 1.327 . S
C635 C651 1.429 . S
C635 H657 0.950 . S
C636 H632 0.949 . S
C636 C644 1.574 . S
C636 C652 1.368 . S
H637 C645 0.950 . S
H638 C643 0.950 . S
H639 C644 0.949 . S
H640 C646 0.950 . S
H641 C647 0.950 . S
H642 C648 0.949 . S
C643 H638 0.950 . S
C643 C645 1.327 . S
C643 C649 1.429 . S
C644 C636 1.574 . S
C644 H639 0.949 . S
C644 C650 1.368 . S
C645 C629 1.349 . S
C645 H637 0.950 . S
C645 C643 1.327 . S
C646 C634 1.349 . S
C646 H640 0.950 . S
C646 C647 1.327 . S
C647 H641 0.950 . S
C647 C646 1.327 . S
C647 C651 1.429 . S
C648 C631 1.574 . S
C648 H642 0.949 . S
C648 C652 1.368 . S
C649 C630 1.429 . S
C649 C643 1.429 . S
C649 C650 1.523 . S
C650 C631 1.368 . S
C650 C644 1.368 . S
C650 C649 1.523 . S
C651 C635 1.429 . S
C651 C647 1.429 . S
C651 C652 1.523 . S
C652 C636 1.368 . S
C652 C648 1.368 . S
C652 C651 1.523 . S
H653 C628 0.950 . S
H654 C630 0.950 . S
H655 C631 0.949 . S
H656 C633 0.950 . S
H657 C635 0.950 . S
C658 C659 1.349 . S
C658 C660 1.327 . S
C658 H683 0.950 . S
C659 C658 1.349 . S
C659 C675 1.349 . S
C660 C658 1.327 . S
C660 C679 1.429 . S
C660 H684 0.950 . S
C661 C678 1.574 . S
C661 C680 1.368 . S
C661 H685 0.949 . S
H662 C666 0.949 . S
C663 C664 1.349 . S
C663 C665 1.327 . S
C663 H686 0.950 . S
C664 C663 1.349 . S
C664 C676 1.349 . S
C665 C663 1.327 . S
C665 C681 1.429 . S
C665 H687 0.950 . S
C666 H662 0.949 . S
C666 C674 1.574 . S
C666 C682 1.368 . S
H667 C675 0.950 . S
H668 C673 0.950 . S
H669 C674 0.949 . S
H670 C676 0.950 . S
H671 C677 0.950 . S
H672 C678 0.949 . S
C673 H668 0.950 . S
C673 C675 1.327 . S
C673 C679 1.429 . S
C674 C666 1.574 . S
C674 H669 0.949 . S
C674 C680 1.368 . S
C675 C659 1.349 . S
C675 H667 0.950 . S
C675 C673 1.327 . S
C676 C664 1.349 . S
C676 H670 0.950 . S
C676 C677 1.327 . S
C677 H671 0.950 . S
C677 C676 1.327 . S
C677 C681 1.429 . S
C678 C661 1.574 . S
C678 H672 0.949 . S
C678 C682 1.368 . S
C679 C660 1.429 . S
C679 C673 1.429 . S
C679 C680 1.523 . S
C680 C661 1.368 . S
C680 C674 1.368 . S
C680 C679 1.523 . S
C681 C665 1.429 . S
C681 C677 1.429 . S
C681 C682 1.523 . S
C682 C666 1.368 . S
C682 C678 1.368 . S
C682 C681 1.523 . S
H683 C658 0.950 . S
H684 C660 0.950 . S
H685 C661 0.949 . S
H686 C663 0.950 . S
H687 C665 0.950 . S
C688 C689 1.349 . S
C688 C690 1.327 . S
C688 H713 0.950 . S
C689 C688 1.349 . S
C689 C705 1.349 . S
C690 C688 1.327 . S
C690 C709 1.429 . S
C690 H714 0.950 . S
C691 C708 1.574 . S
C691 C710 1.368 . S
C691 H715 0.949 . S
H692 C696 0.949 . S
C693 C694 1.349 . S
C693 C695 1.327 . S
C693 H716 0.950 . S
C694 C693 1.349 . S
C694 C706 1.349 . S
C695 C693 1.327 . S
C695 C711 1.429 . S
C695 H717 0.950 . S
C696 H692 0.949 . S
C696 C704 1.574 . S
C696 C712 1.368 . S
H697 C705 0.950 . S
H698 C703 0.950 . S
H699 C704 0.949 . S
H700 C706 0.950 . S
H701 C707 0.950 . S
H702 C708 0.949 . S
C703 H698 0.950 . S
C703 C705 1.327 . S
C703 C709 1.429 . S
C704 C696 1.574 . S
C704 H699 0.949 . S
C704 C710 1.368 . S
C705 C689 1.349 . S
C705 H697 0.950 . S
C705 C703 1.327 . S
C706 C694 1.349 . S
C706 H700 0.950 . S
C706 C707 1.327 . S
C707 H701 0.950 . S
C707 C706 1.327 . S
C707 C711 1.429 . S
C708 C691 1.574 . S
C708 H702 0.949 . S
C708 C712 1.368 . S
C709 C690 1.429 . S
C709 C703 1.429 . S
C709 C710 1.523 . S
C710 C691 1.368 . S
C710 C704 1.368 . S
C710 C709 1.523 . S
C711 C695 1.429 . S
C711 C707 1.429 . S
C711 C712 1.523 . S
C712 C696 1.368 . S
C712 C708 1.368 . S
C712 C711 1.523 . S
H713 C688 0.950 . S
H714 C690 0.950 . S
H715 C691 0.949 . S
H716 C693 0.950 . S
H717 C695 0.950 . S
C718 C719 1.349 . S
C718 C720 1.327 . S
C718 H743 0.950 . S
C719 C718 1.349 . S
C719 C735 1.349 . S
C720 C718 1.327 . S
C720 C739 1.429 . S
C720 H744 0.950 . S
C721 C738 1.574 . S
C721 C740 1.368 . S
C721 H745 0.949 . S
H722 C726 0.949 . S
C723 C724 1.349 . S
C723 C725 1.327 . S
C723 H746 0.950 . S
C724 C723 1.349 . S
C724 C736 1.349 . S
C725 C723 1.327 . S
C725 C741 1.429 . S
C725 H747 0.950 . S
C726 H722 0.949 . S
C726 C734 1.574 . S
C726 C742 1.368 . S
H727 C735 0.950 . S
H728 C733 0.950 . S
H729 C734 0.949 . S
H730 C736 0.950 . S
H731 C737 0.950 . S
H732 C738 0.949 . S
C733 H728 0.950 . S
C733 C735 1.327 . S
C733 C739 1.429 . S
C734 C726 1.574 . S
C734 H729 0.949 . S
C734 C740 1.368 . S
C735 C719 1.349 . S
C735 H727 0.950 . S
C735 C733 1.327 . S
C736 C724 1.349 . S
C736 H730 0.950 . S
C736 C737 1.327 . S
C737 H731 0.950 . S
C737 C736 1.327 . S
C737 C741 1.429 . S
C738 C721 1.574 . S
C738 H732 0.949 . S
C738 C742 1.368 . S
C739 C720 1.429 . S
C739 C733 1.429 . S
C739 C740 1.523 . S
C740 C721 1.368 . S
C740 C734 1.368 . S
C740 C739 1.523 . S
C741 C725 1.429 . S
C741 C737 1.429 . S
C741 C742 1.523 . S
C742 C726 1.368 . S
C742 C738 1.368 . S
C742 C741 1.523 . S
H743 C718 0.950 . S
H744 C720 0.950 . S
H745 C721 0.949 . S
H746 C723 0.950 . S
H747 C725 0.950 . S
C748 C749 1.349 . S
C748 C750 1.327 . S
C748 H773 0.950 . S
C749 C748 1.349 . S
C749 C765 1.349 . S
C750 C748 1.327 . S
C750 C769 1.429 . S
C750 H774 0.950 . S
C751 C768 1.574 . S
C751 C770 1.368 . S
C751 H775 0.949 . S
H752 C756 0.949 . S
C753 C754 1.349 . S
C753 C755 1.327 . S
C753 H776 0.950 . S
C754 C753 1.349 . S
C754 C766 1.349 . S
C755 C753 1.327 . S
C755 C771 1.429 . S
C755 H777 0.950 . S
C756 H752 0.949 . S
C756 C764 1.574 . S
C756 C772 1.368 . S
H757 C765 0.950 . S
H758 C763 0.950 . S
H759 C764 0.949 . S
H760 C766 0.950 . S
H761 C767 0.950 . S
H762 C768 0.949 . S
C763 H758 0.950 . S
C763 C765 1.327 . S
C763 C769 1.429 . S
C764 C756 1.574 . S
C764 H759 0.949 . S
C764 C770 1.368 . S
C765 C749 1.349 . S
C765 H757 0.950 . S
C765 C763 1.327 . S
C766 C754 1.349 . S
C766 H760 0.950 . S
C766 C767 1.327 . S
C767 H761 0.950 . S
C767 C766 1.327 . S
C767 C771 1.429 . S
C768 C751 1.574 . S
C768 H762 0.949 . S
C768 C772 1.368 . S
C769 C750 1.429 . S
C769 C763 1.429 . S
C769 C770 1.523 . S
C770 C751 1.368 . S
C770 C764 1.368 . S
C770 C769 1.523 . S
C771 C755 1.429 . S
C771 C767 1.429 . S
C771 C772 1.523 . S
C772 C756 1.368 . S
C772 C768 1.368 . S
C772 C771 1.523 . S
H773 C748 0.950 . S
H774 C750 0.950 . S
H775 C751 0.949 . S
H776 C753 0.950 . S
H777 C755 0.950 . S
C778 C779 1.349 . S
C778 C780 1.327 . S
C778 H803 0.950 . S
C779 C778 1.349 . S
C779 C795 1.349 . S
C780 C778 1.327 . S
C780 C799 1.429 . S
C780 H804 0.950 . S
C781 C798 1.574 . S
C781 C800 1.368 . S
C781 H805 0.949 . S
H782 C786 0.949 . S
C783 C784 1.349 . S
C783 C785 1.327 . S
C783 H806 0.950 . S
C784 C783 1.349 . S
C784 C796 1.349 . S
C785 C783 1.327 . S
C785 C801 1.429 . S
C785 H807 0.950 . S
C786 H782 0.949 . S
C786 C794 1.574 . S
C786 C802 1.368 . S
H787 C795 0.950 . S
H788 C793 0.950 . S
H789 C794 0.949 . S
H790 C796 0.950 . S
H791 C797 0.950 . S
H792 C798 0.949 . S
C793 H788 0.950 . S
C793 C795 1.327 . S
C793 C799 1.429 . S
C794 C786 1.574 . S
C794 H789 0.949 . S
C794 C800 1.368 . S
C795 C779 1.349 . S
C795 H787 0.950 . S
C795 C793 1.327 . S
C796 C784 1.349 . S
C796 H790 0.950 . S
C796 C797 1.327 . S
C797 H791 0.950 . S
C797 C796 1.327 . S
C797 C801 1.429 . S
C798 C781 1.574 . S
C798 H792 0.949 . S
C798 C802 1.368 . S
C799 C780 1.429 . S
C799 C793 1.429 . S
C799 C800 1.523 . S
C800 C781 1.368 . S
C800 C794 1.368 . S
C800 C799 1.523 . S
C801 C785 1.429 . S
C801 C797 1.429 . S
C801 C802 1.523 . S
C802 C786 1.368 . S
C802 C798 1.368 . S
C802 C801 1.523 . S
H803 C778 0.950 . S
H804 C780 0.950 . S
H805 C781 0.949 . S
H806 C783 0.950 . S
H807 C785 0.950 . S
C808 C809 1.349 . S
C808 C810 1.327 . S
C808 H833 0.950 . S
C809 C808 1.349 . S
C809 C825 1.349 . S
C810 C808 1.327 . S
C810 C829 1.429 . S
C810 H834 0.950 . S
C811 C828 1.574 . S
C811 C830 1.368 . S
C811 H835 0.949 . S
H812 C816 0.949 . S
C813 C814 1.349 . S
C813 C815 1.327 . S
C813 H836 0.950 . S
C814 C813 1.349 . S
C814 C826 1.349 . S
C815 C813 1.327 . S
C815 C831 1.429 . S
C815 H837 0.950 . S
C816 H812 0.949 . S
C816 C824 1.574 . S
C816 C832 1.368 . S
H817 C825 0.950 . S
H818 C823 0.950 . S
H819 C824 0.949 . S
H820 C826 0.950 . S
H821 C827 0.950 . S
H822 C828 0.949 . S
C823 H818 0.950 . S
C823 C825 1.327 . S
C823 C829 1.429 . S
C824 C816 1.574 . S
C824 H819 0.949 . S
C824 C830 1.368 . S
C825 C809 1.349 . S
C825 H817 0.950 . S
C825 C823 1.327 . S
C826 C814 1.349 . S
C826 H820 0.950 . S
C826 C827 1.327 . S
C827 H821 0.950 . S
C827 C826 1.327 . S
C827 C831 1.429 . S
C828 C811 1.574 . S
C828 H822 0.949 . S
C828 C832 1.368 . S
C829 C810 1.429 . S
C829 C823 1.429 . S
C829 C830 1.523 . S
C830 C811 1.368 . S
C830 C824 1.368 . S
C830 C829 1.523 . S
C831 C815 1.429 . S
C831 C827 1.429 . S
C831 C832 1.523 . S
C832 C816 1.368 . S
C832 C828 1.368 . S
C832 C831 1.523 . S
H833 C808 0.950 . S
H834 C810 0.950 . S
H835 C811 0.949 . S
H836 C813 0.950 . S
H837 C815 0.950 . S
C838 C839 1.349 . S
C838 C840 1.327 . S
C838 H863 0.950 . S
C839 C838 1.349 . S
C839 C855 1.349 . S
C840 C838 1.327 . S
C840 C859 1.429 . S
C840 H864 0.950 . S
C841 C858 1.574 . S
C841 C860 1.368 . S
C841 H865 0.949 . S
H842 C846 0.949 . S
C843 C844 1.349 . S
C843 C845 1.327 . S
C843 H866 0.950 . S
C844 C843 1.349 . S
C844 C856 1.349 . S
C845 C843 1.327 . S
C845 C861 1.429 . S
C845 H867 0.950 . S
C846 H842 0.949 . S
C846 C854 1.574 . S
C846 C862 1.368 . S
H847 C855 0.950 . S
H848 C853 0.950 . S
H849 C854 0.949 . S
H850 C856 0.950 . S
H851 C857 0.950 . S
H852 C858 0.949 . S
C853 H848 0.950 . S
C853 C855 1.327 . S
C853 C859 1.429 . S
C854 C846 1.574 . S
C854 H849 0.949 . S
C854 C860 1.368 . S
C855 C839 1.349 . S
C855 H847 0.950 . S
C855 C853 1.327 . S
C856 C844 1.349 . S
C856 H850 0.950 . S
C856 C857 1.327 . S
C857 H851 0.950 . S
C857 C856 1.327 . S
C857 C861 1.429 . S
C858 C841 1.574 . S
C858 H852 0.949 . S
C858 C862 1.368 . S
C859 C840 1.429 . S
C859 C853 1.429 . S
C859 C860 1.523 . S
C860 C841 1.368 . S
C860 C854 1.368 . S
C860 C859 1.523 . S
C861 C845 1.429 . S
C861 C857 1.429 . S
C861 C862 1.523 . S
C862 C846 1.368 . S
C862 C858 1.368 . S
C862 C861 1.523 . S
H863 C838 0.950 . S
H864 C840 0.950 . S
H865 C841 0.949 . S
H866 C843 0.950 . S
H867 C845 0.950 . S
C868 C869 1.349 . S
C868 C870 1.327 . S
C868 H893 0.950 . S
C869 C868 1.349 . S
C869 C885 1.349 . S
C870 C868 1.327 . S
C870 C889 1.429 . S
C870 H894 0.950 . S
C871 C888 1.574 . S
C871 C890 1.368 . S
C871 H895 0.949 . S
H872 C876 0.949 . S
C873 C874 1.349 . S
C873 C875 1.327 . S
C873 H896 0.950 . S
C874 C873 1.349 . S
C874 C886 1.349 . S
C875 C873 1.327 . S
C875 C891 1.429 . S
C875 H897 0.950 . S
C876 H872 0.949 . S
C876 C884 1.574 . S
C876 C892 1.368 . S
H877 C885 0.950 . S
H878 C883 0.950 . S
H879 C884 0.949 . S
H880 C886 0.950 . S
H881 C887 0.950 . S
H882 C888 0.949 . S
C883 H878 0.950 . S
C883 C885 1.327 . S
C883 C889 1.429 . S
C884 C876 1.574 . S
C884 H879 0.949 . S
C884 C890 1.368 . S
C885 C869 1.349 . S
C885 H877 0.950 . S
C885 C883 1.327 . S
C886 C874 1.349 . S
C886 H880 0.950 . S
C886 C887 1.327 . S
C887 H881 0.950 . S
C887 C886 1.327 . S
C887 C891 1.429 . S
C888 C871 1.574 . S
C888 H882 0.949 . S
C888 C892 1.368 . S
C889 C870 1.429 . S
C889 C883 1.429 . S
C889 C890 1.523 . S
C890 C871 1.368 . S
C890 C884 1.368 . S
C890 C889 1.523 . S
C891 C875 1.429 . S
C891 C887 1.429 . S
C891 C892 1.523 . S
C892 C876 1.368 . S
C892 C888 1.368 . S
C892 C891 1.523 . S
H893 C868 0.950 . S
H894 C870 0.950 . S
H895 C871 0.949 . S
H896 C873 0.950 . S
H897 C875 0.950 . S
C898 C899 1.349 . S
C898 C900 1.327 . S
C898 H923 0.950 . S
C899 C898 1.349 . S
C899 C915 1.349 . S
C900 C898 1.327 . S
C900 C919 1.429 . S
C900 H924 0.950 . S
C901 C918 1.574 . S
C901 C920 1.368 . S
C901 H925 0.949 . S
H902 C906 0.949 . S
C903 C904 1.349 . S
C903 C905 1.327 . S
C903 H926 0.950 . S
C904 C903 1.349 . S
C904 C916 1.349 . S
C905 C903 1.327 . S
C905 C921 1.429 . S
C905 H927 0.950 . S
C906 H902 0.949 . S
C906 C914 1.574 . S
C906 C922 1.368 . S
H907 C915 0.950 . S
H908 C913 0.950 . S
H909 C914 0.949 . S
H910 C916 0.950 . S
H911 C917 0.950 . S
H912 C918 0.949 . S
C913 H908 0.950 . S
C913 C915 1.327 . S
C913 C919 1.429 . S
C914 C906 1.574 . S
C914 H909 0.949 . S
C914 C920 1.368 . S
C915 C899 1.349 . S
C915 H907 0.950 . S
C915 C913 1.327 . S
C916 C904 1.349 . S
C916 H910 0.950 . S
C916 C917 1.327 . S
C917 H911 0.950 . S
C917 C916 1.327 . S
C917 C921 1.429 . S
C918 C901 1.574 . S
C918 H912 0.949 . S
C918 C922 1.368 . S
C919 C900 1.429 . S
C919 C913 1.429 . S
C919 C920 1.523 . S
C920 C901 1.368 . S
C920 C914 1.368 . S
C920 C919 1.523 . S
C921 C905 1.429 . S
C921 C917 1.429 . S
C921 C922 1.523 . S
C922 C906 1.368 . S
C922 C918 1.368 . S
C922 C921 1.523 . S
H923 C898 0.950 . S
H924 C900 0.950 . S
H925 C901 0.949 . S
H926 C903 0.950 . S
H927 C905 0.950 . S
C209 C42 1.920 . S
C214 C102 1.882 . S
C239 C26 1.752 . S
C244 C152 1.738 1_565 S
C269 C36 1.812 1_655 S
C274 C78 1.797 1_455 S
C299 C154 1.743 . S
C304 C32 1.756 1_565 S
C329 C4 1.854 . S
C334 C84 1.861 1_655 S
C359 C48 1.721 1_565 S
C364 C130 1.735 . S
C389 C100 1.942 . S
C394 C18 1.956 . S
C419 C136 1.741 1_565 S
C424 C50 1.727 . S
C449 C201 0.661 . S
C454 C34 0.659 . S
C479 C186 0.637 . S
C484 C39 0.639 . S
C509 C190 0.655 . S
C514 C45 0.657 . S
C539 C30 0.642 . S
C544 C195 0.644 . S
C569 C188 1.240 . S
C574 C91 1.284 . S
C599 C86 1.300 . S
C604 C182 1.276 . S
C629 C97 1.383 . S
C634 C206 1.321 . S
C659 C204 1.351 . S
C664 C82 1.392 . S
C689 C134 1.061 . S
C694 C94 1.029 . S
C719 C70 1.109 . S
C724 C149 1.148 . S
C749 C88 1.028 . S
C754 C143 1.051 . S
C779 C138 1.163 . S
C784 C56 1.113 . S
C809 C198 1.803 . S
C814 C146 1.803 . S
C839 C140 1.784 . S
C844 C192 1.784 . S
C869 C160 1.941 . S
C874 C108 1.941 . S
C899 C122 1.960 . S
C904 C174 1.960 . S
