# Generated by pormake.
# Topology unf, (4)-cn, num edge types: 1
# Building blocks:
#     Node 0, Type 0, BuildingBlock: TATPOV_clean_sbu_0, # of connection points: 4
#     Node 1, Type 0, BuildingBlock: TATPOV_clean_sbu_0, # of connection points: 4
#     Node 2, Type 0, BuildingBlock: TATPOV_clean_sbu_0, # of connection points: 4
#     Node 3, Type 0, BuildingBlock: TATPOV_clean_sbu_0, # of connection points: 4
#     Node 4, Type 0, BuildingBlock: TATPOV_clean_sbu_0, # of connection points: 4
#     Node 5, Type 0, BuildingBlock: TATPOV_clean_sbu_0, # of connection points: 4
#     Node 6, Type 0, BuildingBlock: TATPOV_clean_sbu_0, # of connection points: 4
#     Node 7, Type 0, BuildingBlock: TATPOV_clean_sbu_0, # of connection points: 4
#     Node 8, Type 0, BuildingBlock: TATPOV_clean_sbu_0, # of connection points: 4
#     Node 9, Type 0, BuildingBlock: TATPOV_clean_sbu_0, # of connection points: 4
#     Node 10, Type 0, BuildingBlock: TATPOV_clean_sbu_0, # of connection points: 4
#     Node 11, Type 0, BuildingBlock: TATPOV_clean_sbu_0, # of connection points: 4
#     Edge 12, Type (0, 0), BuildingBlock: AJUNOK_clean_linker_0, # of connection points: 2
#     Edge 13, Type (0, 0), BuildingBlock: AJUNOK_clean_linker_0, # of connection points: 2
#     Edge 14, Type (0, 0), BuildingBlock: AJUNOK_clean_linker_0, # of connection points: 2
#     Edge 15, Type (0, 0), BuildingBlock: AJUNOK_clean_linker_0, # of connection points: 2
#     Edge 16, Type (0, 0), BuildingBlock: AJUNOK_clean_linker_0, # of connection points: 2
#     Edge 17, Type (0, 0), BuildingBlock: AJUNOK_clean_linker_0, # of connection points: 2
#     Edge 18, Type (0, 0), BuildingBlock: AJUNOK_clean_linker_0, # of connection points: 2
#     Edge 19, Type (0, 0), BuildingBlock: AJUNOK_clean_linker_0, # of connection points: 2
#     Edge 20, Type (0, 0), BuildingBlock: AJUNOK_clean_linker_0, # of connection points: 2
#     Edge 21, Type (0, 0), BuildingBlock: AJUNOK_clean_linker_0, # of connection points: 2
#     Edge 22, Type (0, 0), BuildingBlock: AJUNOK_clean_linker_0, # of connection points: 2
#     Edge 23, Type (0, 0), BuildingBlock: AJUNOK_clean_linker_0, # of connection points: 2
#     Edge 24, Type (0, 0), BuildingBlock: AJUNOK_clean_linker_0, # of connection points: 2
#     Edge 25, Type (0, 0), BuildingBlock: AJUNOK_clean_linker_0, # of connection points: 2
#     Edge 26, Type (0, 0), BuildingBlock: AJUNOK_clean_linker_0, # of connection points: 2
#     Edge 27, Type (0, 0), BuildingBlock: AJUNOK_clean_linker_0, # of connection points: 2
#     Edge 28, Type (0, 0), BuildingBlock: AJUNOK_clean_linker_0, # of connection points: 2
#     Edge 29, Type (0, 0), BuildingBlock: AJUNOK_clean_linker_0, # of connection points: 2
#     Edge 30, Type (0, 0), BuildingBlock: AJUNOK_clean_linker_0, # of connection points: 2
#     Edge 31, Type (0, 0), BuildingBlock: AJUNOK_clean_linker_0, # of connection points: 2
#     Edge 32, Type (0, 0), BuildingBlock: AJUNOK_clean_linker_0, # of connection points: 2
#     Edge 33, Type (0, 0), BuildingBlock: AJUNOK_clean_linker_0, # of connection points: 2
#     Edge 34, Type (0, 0), BuildingBlock: AJUNOK_clean_linker_0, # of connection points: 2
#     Edge 35, Type (0, 0), BuildingBlock: AJUNOK_clean_linker_0, # of connection points: 2
# Relax obj value: 0.207
# Max RMSD: 0.176
# Mean RMSD: 0.176
data_MOF--net-unf--node1-TATPOV_clean_sbu_0--edge1-AJUNOK_clean_linker_0
_symmetry_space_group_name_H-M    P1
_symmetry_Int_Tables_number       1
_symmetry_cell_setting            triclinic
loop_
_symmetry_equiv_pos_as_xyz
'x, y, z'
_cell_length_a     27.9929
_cell_length_b     28.110686
_cell_length_c     28.855879
_cell_angle_alpha  90.054687
_cell_angle_beta   90.160812
_cell_angle_gamma 119.77605
loop_
_atom_site_label
_atom_site_type_symbol
_atom_site_fract_x
_atom_site_fract_y
_atom_site_fract_z
_atom_type_partial_charge
Zn0 Zn 0.0761 0.3873 0.92679 0.0
Zn1 Zn 0.09634 0.3708 0.05042 0.0
O2 O 0.05282 0.40976 0.06255 0.0
O3 O 0.0489 0.40343 0.98714 0.0
O4 O 0.13851 0.37 0.10803 0.0
O5 O 0.15441 0.39817 0.92168 0.0
O6 O 0.14283 0.40507 0.99455 0.0
C7 C 0.03202 0.41343 0.02442 0.0
C8 C 0.00309 0.28471 0.99686 0.0
O9 O 0.03462 0.29641 0.03228 0.0
O10 O 0.01608 0.31607 0.9614 0.0
C11 C 0.11899 0.36758 0.14826 0.0
O12 O 0.07124 0.36555 0.15181 0.0
C13 C 0.15672 0.38336 0.96253 0.0
Zn14 Zn 0.61911 0.68826 0.01265 0.0
Zn15 Zn 0.57359 0.68324 0.08997 0.0
O16 O 0.51062 0.61235 0.06006 0.0
O17 O 0.56724 0.60716 0.01004 0.0
O18 O 0.5563 0.70192 0.15421 0.0
O19 O 0.59839 0.73676 0.97987 0.0
O20 O 0.59533 0.75516 0.05348 0.0
C21 C 0.52055 0.5854 0.02932 0.0
C22 C 0.67928 0.68562 0.08008 0.0
O23 O 0.63332 0.66277 0.10061 0.0
O24 O 0.68823 0.72389 0.05253 0.0
C25 C 0.598 0.74536 0.16948 0.0
O26 O 0.64271 0.76747 0.14405 0.0
C27 C 0.5993 0.76882 0.01087 0.0
Zn28 Zn 0.24632 0.90653 0.00457 0.0
Zn29 Zn 0.25628 0.86053 0.07209 0.0
O30 O 0.32711 0.872 0.03856 0.0
O31 O 0.32304 0.92811 0.98767 0.0
O32 O 0.24038 0.81466 0.13104 0.0
O33 O 0.18429 0.85004 0.96913 0.0
O34 O 0.17932 0.81654 0.03868 0.0
C35 C 0.34951 0.90741 0.00618 0.0
C36 C 0.26411 0.97107 0.07938 0.0
O37 O 0.28069 0.93904 0.09366 0.0
O38 O 0.23381 0.95814 0.04383 0.0
C39 C 0.21915 0.82706 0.16468 0.0
O40 O 0.21422 0.87102 0.16152 0.0
C41 C 0.1571 0.81453 0.99937 0.0
Zn42 Zn 0.62333 0.92108 0.50197 0.0
Zn43 Zn 0.58069 0.87963 0.43276 0.0
O44 O 0.52094 0.89537 0.46108 0.0
O45 O 0.58492 0.96462 0.50095 0.0
O46 O 0.55971 0.84124 0.36925 0.0
O47 O 0.59504 0.85542 0.54289 0.0
O48 O 0.60139 0.83023 0.47241 0.0
C49 C 0.53664 0.9393 0.4848 0.0
C50 C 0.69379 -0.02326 0.43822 0.0
O51 O 0.64661 0.9562 0.41913 0.0
O52 O 0.69908 0.95319 0.47345 0.0
C53 C 0.60093 0.84199 0.34976 0.0
O54 O 0.64808 0.86455 0.37218 0.0
C55 C 0.60006 0.82276 0.51616 0.0
Zn56 Zn 0.04398 0.70821 0.51034 0.0
Zn57 Zn 0.07414 0.69937 0.4257 0.0
O58 O 0.04435 0.61879 0.44643 0.0
O59 O -0.00264 0.62695 0.5042 0.0
O60 O 0.11352 0.71879 0.36399 0.0
O61 O 0.11862 0.74336 0.53957 0.0
O62 O 0.13079 0.76332 0.46579 0.0
C63 C 0.00606 0.59698 0.47676 0.0
C64 C -0.01102 0.72813 0.44373 0.0
O65 O 0.00372 0.70197 0.41698 0.0
O66 O 0.02223 0.75723 0.47517 0.0
C67 C 0.10389 0.69483 0.32494 0.0
O68 O 0.06132 0.64535 0.32028 0.0
C69 C 0.14685 0.77585 0.50766 0.0
Zn70 Zn 0.24391 0.30706 0.4976 0.0
Zn71 Zn 0.24884 0.34735 0.41376 0.0
O72 O 0.32612 0.40357 0.43705 0.0
O73 O 0.32635 0.34572 0.48881 0.0
O74 O 0.22932 0.36755 0.35154 0.0
O75 O 0.20983 0.34644 0.52817 0.0
O76 O 0.18626 0.34267 0.45495 0.0
C77 C 0.35204 0.38915 0.46518 0.0
C78 C 0.22736 0.23782 0.43337 0.0
O79 O 0.25397 0.27762 0.40609 0.0
O80 O 0.19227 0.24093 0.45842 0.0
C81 C 0.23363 0.35061 0.31174 0.0
O82 O 0.25878 0.32186 0.30787 0.0
C83 C 0.17781 0.34743 0.49777 0.0
Zn84 Zn 0.86229 0.58383 0.00838 0.0
Zn85 Zn 0.84186 0.55856 0.93259 0.0
O86 O 0.86413 0.50103 0.95563 0.0
O87 O 0.91524 0.55796 0.01039 0.0
O88 O 0.81699 0.54962 0.86449 0.0
O89 O 0.7899 0.53717 0.03794 0.0
O90 O 0.77906 0.56158 0.96877 0.0
C91 C 0.90103 0.51482 0.9873 0.0
C92 C 0.9247 0.67144 0.96371 0.0
O93 O 0.9144 0.63246 0.93568 0.0
O94 O 0.88989 0.66353 0.99483 0.0
C95 C 0.81714 0.59181 0.84798 0.0
O96 O 0.83262 0.63454 0.87517 0.0
C97 C 0.76275 0.54974 0.01069 0.0
Zn98 Zn 0.29705 0.25011 0.02943 0.0
Zn99 Zn 0.32527 0.24112 0.95388 0.0
O100 O 0.3799 0.32441 0.96594 0.0
O101 O 0.32867 0.33062 0.02046 0.0
O102 O 0.33822 0.21872 0.88867 0.0
O103 O 0.33813 0.2247 0.068 0.0
O104 O 0.33421 0.18836 0.99976 0.0
C105 C 0.36914 0.35388 0.99322 0.0
C106 C 0.20843 0.21526 0.98171 0.0
O107 O 0.24785 0.23399 0.95266 0.0
O108 O 0.21585 0.19954 0.02063 0.0
C109 C 0.30356 0.2087 0.8561 0.0
O110 O 0.26173 0.21627 0.86423 0.0
C111 C 0.3424 0.18986 0.04351 0.0
Zn112 Zn 0.66991 0.04622 0.04895 0.0
Zn113 Zn 0.67761 0.08113 0.9155 0.0
O114 O 0.59971 0.06688 0.93048 0.0
O115 O 0.61924 0.04751 0.99789 0.0
O116 O 0.70315 0.12046 0.85372 0.0
O117 O 0.74633 0.11325 0.04261 0.0
O118 O 0.74084 0.1223 0.96565 0.0
C119 C 0.58301 0.04436 0.96975 0.0
C120 C 0.66066 -0.0121 0.95237 0.0
O121 O 0.66498 0.00261 0.91044 0.0
O122 O 0.6655 0.02283 0.98218 0.0
C123 C 0.71536 0.09767 0.8214 0.0
O124 O 0.70995 0.04913 0.82855 0.0
C125 C 0.76771 0.13706 0.0042 0.0
Zn126 Zn 0.34898 0.03379 0.49968 0.0
Zn127 Zn 0.36313 0.09114 0.59879 0.0
O128 O 0.4253 0.07284 0.5844 0.0
O129 O 0.36146 -0.00411 0.55538 0.0
O130 O 0.36463 0.11736 0.66564 0.0
O131 O 0.34448 0.10554 0.49291 0.0
O132 O 0.36711 0.15197 0.55856 0.0
C133 C 0.40972 0.02413 0.57046 0.0
C134 C 0.26216 0.008 0.55037 0.0
O135 O 0.28808 0.02134 0.58889 0.0
O136 O 0.28259 0.04145 0.51717 0.0
C137 C 0.32232 0.1209 0.67641 0.0
O138 O 0.28291 0.10542 0.64541 0.0
C139 C 0.35422 0.14811 0.51589 0.0
Zn140 Zn 0.93288 0.31676 0.44637 0.0
Zn141 Zn 0.85821 0.27645 0.57039 0.0
O142 O 0.85629 0.34898 0.55621 0.0
O143 O 0.89335 0.33219 0.49867 0.0
O144 O 0.81022 0.23779 0.62634 0.0
O145 O 0.87549 0.23614 0.44074 0.0
O146 O 0.8353 0.22085 0.51184 0.0
C147 C 0.88125 0.36522 0.51793 0.0
C148 C 0.96249 0.31084 0.54869 0.0
O149 O 0.93958 0.29844 0.58795 0.0
O150 O 0.93302 0.31142 0.5159 0.0
C151 C 0.82413 0.20916 0.65104 0.0
O152 O 0.86673 0.20475 0.63808 0.0
C153 C 0.83924 0.20523 0.4704 0.0
Zn154 Zn 0.68165 0.61696 0.50868 0.0
Zn155 Zn 0.67916 0.57958 0.57954 0.0
O156 O 0.60499 0.51846 0.55085 0.0
O157 O 0.60028 0.57859 0.50525 0.0
O158 O 0.6957 0.56038 0.64397 0.0
O159 O 0.72316 0.59159 0.47033 0.0
O160 O 0.75124 0.60103 0.54225 0.0
C161 C 0.57732 0.53155 0.52337 0.0
C162 C 0.69311 0.69068 0.56897 0.0
O163 O 0.66671 0.64541 0.59043 0.0
O164 O 0.72311 0.69292 0.53555 0.0
C165 C 0.73929 0.60011 0.66125 0.0
O166 O 0.76628 0.64471 0.63629 0.0
C167 C 0.76106 0.60131 0.49897 0.0
C168 C 0.16767 0.31761 0.01283 0.0
C169 C 0.15428 0.33008 0.96944 0.0
C170 C 0.17583 0.2728 0.01846 0.0
C171 C 0.17306 0.24019 0.98029 0.0
H172 H 0.17679 0.34529 0.04166 0.0
H173 H 0.19126 0.26824 0.05168 0.0
S174 S 0.1254 0.24678 0.86212 0.0
N175 N 0.12639 0.29867 0.88989 0.0
N176 N 0.14575 0.21654 0.9001 0.0
C177 C 0.15348 0.24822 0.93805 0.0
C178 C 0.14357 0.293 0.93257 0.0
C179 C 0.59766 0.83413 0.95367 0.0
C180 C 0.61327 0.82468 0.99757 0.0
C181 C 0.61474 0.88743 0.93839 0.0
C182 C 0.64808 0.93281 0.96652 0.0
H183 H 0.57196 0.80007 0.93101 0.0
H184 H 0.60076 0.89305 0.90486 0.0
S185 S 0.7058 0.93045 0.08177 0.0
N186 N 0.66736 0.86526 0.06741 0.0
N187 N 0.6999 0.96549 0.03843 0.0
C188 C 0.6652 0.92403 0.00991 0.0
C189 C 0.64755 0.86988 0.02559 0.0
C190 C 0.07597 0.77138 0.94579 0.0
C191 C 0.09803 0.77582 0.99068 0.0
C192 C 0.01937 0.73902 0.93716 0.0
C193 C -0.01722 0.71114 0.97333 0.0
H194 H 0.1026 0.79305 0.91694 0.0
H195 H 0.00417 0.73563 0.90205 0.0
S196 S 0.01923 0.70526 0.09625 0.0
N197 N 0.07853 0.7465 0.07111 0.0
N198 N -0.02767 0.6868 0.05506 0.0
C199 C 0.00418 0.7146 0.01821 0.0
C200 C 0.06176 0.74655 0.02684 0.0
C201 C 0.70365 0.77895 0.54255 0.0
C202 C 0.67363 0.73087 0.56877 0.0
C203 C 0.67881 0.80788 0.52561 0.0
C204 C 0.62364 0.79085 0.53541 0.0
H205 H 0.7455 0.79206 0.53199 0.0
H206 H 0.70269 0.84334 0.50387 0.0
S207 S 0.52995 0.67502 0.60998 0.0
N208 N 0.58742 0.67201 0.60891 0.0
N209 N 0.54172 0.7286 0.57818 0.0
C210 C 0.59465 0.74661 0.56543 0.0
C211 C 0.6196 0.71625 0.58218 0.0
C212 C 0.18577 0.85332 0.56454 0.0
C213 C 0.18482 0.83414 0.51921 0.0
C214 C 0.20956 0.90947 0.57409 0.0
C215 C 0.23298 0.94869 0.53869 0.0
H216 H 0.16593 0.82478 0.59269 0.0
H217 H 0.20899 0.9222 0.60943 0.0
S218 S 0.24653 0.91994 0.41481 0.0
N219 N 0.21474 0.85913 0.43952 0.0
N220 N 0.25634 0.96403 0.45649 0.0
C221 C 0.23376 0.93001 0.49335 0.0
C222 C 0.21096 0.87303 0.48399 0.0
C223 C 0.02785 0.30612 0.49452 0.0
C224 C 0.01795 0.31992 0.53888 0.0
C225 C 0.0802 0.31749 0.48122 0.0
C226 C 0.12497 0.34247 0.51197 0.0
H227 H -0.00534 0.28571 0.4697 0.0
H228 H 0.08505 0.30499 0.44683 0.0
S229 S 0.12142 0.38795 0.63205 0.0
N230 N 0.05716 0.36084 0.61359 0.0
N231 N 0.1565 0.38172 0.58879 0.0
C232 C 0.1159 0.35651 0.55668 0.0
C233 C 0.06211 0.3451 0.57019 0.0
C234 C 0.69611 0.63617 0.01733 0.0
C235 C 0.6987 0.64823 0.06493 0.0
C236 C 0.71052 0.59859 1.00062 0.0
C237 C 0.72991 0.57265 0.03062 0.0
H238 H 0.68292 0.6561 0.99239 0.0
H239 H 0.70963 0.59254 0.96347 0.0
S240 S 0.73904 0.58592 0.15908 0.0
N241 N 0.7166 0.62764 0.14248 0.0
N242 N 0.74604 0.55778 0.11118 0.0
C243 C 0.72961 0.5818 0.0788 0.0
C244 C 0.71386 0.61971 0.09589 0.0
C245 C 0.2907 0.11246 0.09613 0.0
C246 C 0.33629 0.14084 0.06667 0.0
C247 C 0.27048 0.05714 0.10636 0.0
C248 C 0.29681 0.02964 0.08907 0.0
H249 H 0.26668 0.13114 0.10687 0.0
H250 H 0.23129 0.03461 0.1239 0.0
S251 S 0.42429 0.08884 0.01899 0.0
N252 N 0.41134 0.13979 0.02561 0.0
N253 N 0.37564 0.03654 0.04785 0.0
C254 C 0.34675 0.05967 0.06509 0.0
C255 C 0.36595 0.11529 0.05291 0.0
C256 C 0.91559 0.21124 0.96257 0.0
C257 C 0.94471 0.24246 1.00137 0.0
C258 C 0.85815 0.17823 0.96346 0.0
C259 C 0.82769 0.17569 1.00307 0.0
H260 H 0.93734 0.21305 0.93103 0.0
H261 H 0.83757 0.15415 0.93296 0.0
S262 S 0.88404 0.25398 0.11213 0.0
N263 N 0.93868 0.27143 0.07957 0.0
N264 N 0.83073 0.20947 0.08118 0.0
C265 C 0.85631 0.20711 0.04199 0.0
C266 C 0.91481 0.24043 0.04119 0.0
C267 C 0.33229 0.19039 0.44906 0.0
C268 C 0.33065 0.18087 0.49707 0.0
C269 C 0.29805 0.20778 0.42843 0.0
C270 C 0.25952 0.21442 0.45481 0.0
H271 H 0.35912 0.18276 0.4271 0.0
H272 H 0.30115 0.21527 0.39145 0.0
S273 S 0.23938 0.19476 0.5824 0.0
N274 N 0.28927 0.18159 0.57072 0.0
N275 N 0.22231 0.21003 0.53216 0.0
C276 C 0.25777 0.20508 0.50306 0.0
C277 C 0.29422 0.18977 0.52414 0.0
C278 C 0.7456 0.12572 0.45856 0.0
C279 C 0.80278 0.14797 0.45696 0.0
C280 C 0.71029 0.0707 0.44716 0.0
C281 C 0.73118 0.03595 0.43522 0.0
H282 H 0.72812 0.15078 0.4693 0.0
H283 H 0.66636 0.0544 0.45078 0.0
S284 S 0.87798 0.07538 0.42432 0.0
N285 N 0.87909 0.13257 0.43976 0.0
N286 N 0.81229 0.02791 0.42096 0.0
C287 C 0.78827 0.0581 0.43229 0.0
C288 C 0.82426 0.11456 0.44253 0.0
C289 C 0.91593 0.68303 0.50269 0.0
C290 C 0.93031 0.69874 0.4562 0.0
C291 C 0.86142 0.64819 0.51556 0.0
C292 C 0.8187 0.62818 0.48266 0.0
H293 H 0.94721 0.69662 0.52948 0.0
H294 H 0.85274 0.63803 0.55191 0.0
S295 S 0.83493 0.65686 0.35615 0.0
N296 N 0.89824 0.69096 0.37701 0.0
N297 N 0.79485 0.6262 0.401 0.0
C298 C 0.83262 0.64298 0.4358 0.0
C299 C 0.88854 0.6782 0.42268 0.0
C300 C 0.22238 0.35409 0.22571 0.0
C301 C 0.20581 0.35851 0.27077 0.0
C302 C 0.19485 0.35806 0.18637 0.0
C303 C 0.14901 0.36583 0.19042 0.0
H304 H 0.25685 0.34726 0.2207 0.0
H305 H 0.20913 0.35402 0.15253 0.0
S306 S 0.08853 0.3798 0.30052 0.0
N307 N 0.14044 0.37149 0.31703 0.0
N308 N 0.08864 0.37834 0.24338 0.0
C309 C 0.13222 0.37073 0.23529 0.0
C310 C 0.16061 0.3673 0.27534 0.0
C311 C 0.5507 0.74833 0.24333 0.0
C312 C 0.59752 0.77146 0.21451 0.0
C313 C 0.55085 0.77219 0.28643 0.0
C314 C 0.59801 0.81968 0.30244 0.0
H315 H 0.5139 0.71117 0.23283 0.0
H316 H 0.51447 0.75239 0.30795 0.0
S317 S 0.72953 0.89951 0.23896 0.0
N318 N 0.69115 0.84738 0.20446 0.0
N319 N 0.6912 0.89106 0.28488 0.0
C320 C 0.64435 0.84401 0.27346 0.0
C321 C 0.64418 0.82025 0.2297 0.0
C322 C 0.19928 0.81526 0.24908 0.0
C323 C 0.19565 0.79111 0.20562 0.0
C324 C 0.17126 0.78349 0.28764 0.0
C325 C 0.13727 0.72613 0.28421 0.0
H326 H 0.22318 0.85938 0.25316 0.0
H327 H 0.17485 0.80457 0.32002 0.0
S328 S 0.11443 0.64266 0.17813 0.0
N329 N 0.15674 0.70623 0.16141 0.0
N330 N 0.10305 0.64641 0.23378 0.0
C331 C 0.13425 0.70125 0.24111 0.0
C332 C 0.1637 0.73371 0.20188 0.0
C333 C 0.76159 0.54545 0.77604 0.0
C334 C 0.79933 0.59364 0.7996 0.0
C335 C 0.74173 0.54754 0.73154 0.0
C336 C 0.75959 0.59784 0.70862 0.0
H337 H 0.74635 0.50592 0.79249 0.0
H338 H 0.71244 0.50946 0.71491 0.0
S339 S 0.85964 0.73586 0.75473 0.0
N340 N 0.85463 0.69309 0.79602 0.0
N341 N 0.81802 0.69704 0.71308 0.0
C342 C 0.79798 0.64621 0.73167 0.0
C343 C 0.81765 0.64411 0.7769 0.0
C344 C 0.35438 0.18098 0.79932 0.0
C345 C 0.3084 0.18678 0.81011 0.0
C346 C 0.35874 0.1597 0.75624 0.0
C347 C 0.3172 0.14306 0.72219 0.0
H348 H 0.38738 0.19301 0.82429 0.0
H349 H 0.39498 0.15627 0.74965 0.0
S350 S 0.18782 0.14923 0.73322 0.0
N351 N 0.22025 0.17365 0.78282 0.0
N352 N 0.22819 0.13397 0.70276 0.0
C353 C 0.27094 0.1486 0.73268 0.0
C354 C 0.26662 0.17033 0.7763 0.0
C355 C 0.78163 0.11846 0.75742 0.0
C356 C 0.7413 0.12718 0.77813 0.0
C357 C 0.80778 0.14527 0.71659 0.0
C358 C 0.79422 0.18146 0.69412 0.0
H359 H 0.79379 0.09113 0.77325 0.0
H360 H 0.8389 0.1372 0.70254 0.0
S361 S 0.68931 0.21684 0.73359 0.0
N362 N 0.68798 0.17383 0.77326 0.0
N363 N 0.73642 0.2238 0.69559 0.0
C364 C 0.75333 0.19025 0.71426 0.0
C365 C 0.72714 0.16332 0.75652 0.0
C366 C -0.00061 0.47766 0.04563 0.0
C367 C -0.00906 0.4312 0.02136 0.0
C368 C -0.03123 0.50302 0.03478 0.0
C369 C 0.92812 0.4826 0.99944 0.0
H370 H 0.03217 0.49659 0.07107 0.0
H371 H -0.02124 0.54028 0.05346 0.0
S372 S 0.8828 0.35411 0.93308 0.0
N373 N 0.93401 0.36008 0.96581 0.0
N374 N 0.876 0.40793 0.94522 0.0
C375 C 0.91622 0.43326 0.97763 0.0
C376 C 0.94772 0.40747 0.98872 0.0
C377 C 0.43225 0.49788 0.0433 0.0
C378 C 0.4794 0.52813 0.01628 0.0
C379 C 0.39607 0.44227 0.03419 0.0
C380 C 0.40549 0.41427 0.99776 0.0
H381 H 0.42399 0.51672 0.07266 0.0
H382 H 0.36122 0.42075 0.0571 0.0
S383 S 0.5191 0.47679 0.91256 0.0
N384 N 0.53063 0.52737 0.94819 0.0
N385 N 0.46279 0.42277 0.93172 0.0
C386 C 0.45092 0.44471 0.96891 0.0
C387 C 0.48777 0.50155 0.97802 0.0
C388 C 0.42787 0.9672 0.9549 0.0
C389 C 0.40885 0.93311 0.99431 0.0
C390 C 0.4839 0.0034 0.94762 0.0
C391 C 0.5237 0.00691 0.9792 0.0
H392 H 0.39898 0.96771 0.93011 0.0
H393 H 0.49592 0.02935 0.91723 0.0
S394 S 0.49689 0.92115 0.08455 0.0
N395 N 0.43506 0.90157 0.06311 0.0
N396 N 0.54073 0.96887 0.04915 0.0
C397 C 0.50573 0.97078 0.01743 0.0
C398 C 0.44833 0.93385 0.0249 0.0
C399 C 0.46414 0.93042 0.53852 0.0
C400 C 0.49898 0.95782 0.50115 0.0
C401 C 0.43877 0.95457 0.56354 0.0
C402 C 0.44823 0.00736 0.55263 0.0
H403 H 0.45783 0.89081 0.54937 0.0
H404 H 0.4107 0.9314 0.5912 0.0
S405 S 0.53272 0.09422 0.45558 0.0
N406 N 0.5401 0.03945 0.45316 0.0
N407 N 0.49156 0.08443 0.49985 0.0
C408 C 0.48236 0.0348 0.51492 0.0
C409 C 0.50799 0.01013 0.48931 0.0
C410 C 0.95902 0.44512 0.4793 0.0
C411 C 0.90807 0.42283 0.50255 0.0
C412 C -0.0102 0.50115 0.46908 0.0
C413 C -0.02942 0.53686 0.48157 0.0
H414 H -0.02331 0.41958 0.47078 0.0
H415 H 0.02982 0.51684 0.45316 0.0
S416 S 0.83504 0.49729 0.53523 0.0
N417 N 0.83697 0.43955 0.53288 0.0
N418 N 0.89365 0.54461 0.51262 0.0
C419 C 0.91782 0.51434 0.50195 0.0
C420 C 0.88689 0.45741 0.51281 0.0
C421 C 0.43251 0.48153 0.47975 0.0
C422 C 0.41094 0.42485 0.47552 0.0
C423 C 0.48588 0.51511 0.49673 0.0
C424 C 0.51975 0.49332 0.50986 0.0
H425 H 0.40739 0.49982 0.47146 0.0
H426 H 0.50065 0.55867 0.49986 0.0
S427 S 0.484 0.34781 0.50083 0.0
N428 N 0.42818 0.34838 0.4829 0.0
N429 N 0.52893 0.41193 0.51453 0.0
C430 C 0.49906 0.4368 0.50481 0.0
C431 C 0.4446 0.40251 0.48752 0.0
loop_
_geom_bond_atom_site_label_1
_geom_bond_atom_site_label_2
_geom_bond_distance
_geom_bond_site_symmetry_2
_ccdc_geom_bond_type
Zn0 O3 2.031 1_556 S
Zn0 O5 2.049 . S
Zn0 O10 2.071 . S
Zn1 O2 1.962 . S
Zn1 O4 1.986 . S
Zn1 O6 1.996 . S
Zn1 O9 1.943 . S
O2 Zn1 1.962 . S
O2 C7 1.254 . S
O3 Zn0 2.031 1_554 S
O3 C7 1.269 . S
O4 Zn1 1.986 . S
O4 C11 1.262 . S
O5 Zn0 2.049 . S
O5 C13 1.260 1_556 S
O6 Zn1 1.996 . S
O6 C13 1.257 . S
C7 O2 1.254 . S
C7 O3 1.269 . S
C8 O9 1.249 1_655 S
C8 O10 1.260 1_654 S
O9 Zn1 1.943 . S
O9 C8 1.249 1_455 S
O10 Zn0 2.071 . S
O10 C8 1.260 1_456 S
C11 O4 1.262 . S
C11 O12 1.232 . S
O12 C11 1.232 . S
C13 O5 1.260 1_554 S
C13 O6 1.257 . S
Zn14 O17 2.031 1_556 S
Zn14 O19 2.049 . S
Zn14 O24 2.071 . S
Zn15 O16 1.962 . S
Zn15 O18 1.986 . S
Zn15 O20 1.996 . S
Zn15 O23 1.943 . S
O16 Zn15 1.962 . S
O16 C21 1.254 . S
O17 Zn14 2.031 1_554 S
O17 C21 1.269 . S
O18 Zn15 1.986 . S
O18 C25 1.262 . S
O19 Zn14 2.049 . S
O19 C27 1.260 1_556 S
O20 Zn15 1.996 . S
O20 C27 1.257 . S
C21 O16 1.254 . S
C21 O17 1.269 . S
C22 O23 1.249 . S
C22 O24 1.260 1_554 S
O23 Zn15 1.943 . S
O23 C22 1.249 . S
O24 Zn14 2.071 . S
O24 C22 1.260 1_556 S
C25 O18 1.262 . S
C25 O26 1.232 . S
O26 C25 1.232 . S
C27 O19 1.260 1_554 S
C27 O20 1.257 . S
Zn28 O31 2.031 1_556 S
Zn28 O33 2.049 . S
Zn28 O38 2.071 . S
Zn29 O30 1.962 . S
Zn29 O32 1.986 . S
Zn29 O34 1.996 . S
Zn29 O37 1.943 . S
O30 Zn29 1.962 . S
O30 C35 1.254 . S
O31 Zn28 2.031 1_554 S
O31 C35 1.269 . S
O32 Zn29 1.986 . S
O32 C39 1.262 . S
O33 Zn28 2.049 . S
O33 C41 1.260 1_556 S
O34 Zn29 1.996 . S
O34 C41 1.257 . S
C35 O30 1.254 . S
C35 O31 1.269 . S
C36 O37 1.249 1_545 S
C36 O38 1.261 1_544 S
O37 Zn29 1.943 . S
O37 C36 1.249 1_565 S
O38 Zn28 2.071 . S
O38 C36 1.261 1_566 S
C39 O32 1.262 . S
C39 O40 1.232 . S
O40 C39 1.232 . S
C41 O33 1.260 1_554 S
C41 O34 1.257 . S
Zn42 O45 2.031 . S
Zn42 O47 2.049 . S
Zn42 O52 2.067 . S
Zn43 O44 1.962 . S
Zn43 O46 1.986 . S
Zn43 O48 1.996 . S
Zn43 O51 1.943 . S
O44 Zn43 1.962 . S
O44 C49 1.254 . S
O45 Zn42 2.031 . S
O45 C49 1.269 . S
O46 Zn43 1.986 . S
O46 C53 1.262 . S
O47 Zn42 2.049 . S
O47 C55 1.260 . S
O48 Zn43 1.996 . S
O48 C55 1.257 . S
C49 O44 1.254 . S
C49 O45 1.269 . S
C50 O51 1.249 1_545 S
C50 O52 1.270 1_545 S
O51 Zn43 1.943 . S
O51 C50 1.249 1_565 S
O52 Zn42 2.067 . S
O52 C50 1.270 1_565 S
C53 O46 1.262 . S
C53 O54 1.232 . S
O54 C53 1.232 . S
C55 O47 1.260 . S
C55 O48 1.257 . S
Zn56 O59 2.031 . S
Zn56 O61 2.049 . S
Zn56 O66 2.067 . S
Zn57 O58 1.962 . S
Zn57 O60 1.986 . S
Zn57 O62 1.996 . S
Zn57 O65 1.943 . S
O58 Zn57 1.962 . S
O58 C63 1.254 . S
O59 Zn56 2.031 . S
O59 C63 1.269 . S
O60 Zn57 1.986 . S
O60 C67 1.262 . S
O61 Zn56 2.049 . S
O61 C69 1.260 . S
O62 Zn57 1.996 . S
O62 C69 1.257 . S
C63 O58 1.254 . S
C63 O59 1.269 . S
C64 O65 1.249 1_655 S
C64 O66 1.270 1_655 S
O65 Zn57 1.943 . S
O65 C64 1.249 1_455 S
O66 Zn56 2.067 . S
O66 C64 1.270 1_455 S
C67 O60 1.262 . S
C67 O68 1.232 . S
O68 C67 1.232 . S
C69 O61 1.260 . S
C69 O62 1.257 . S
Zn70 O73 2.031 . S
Zn70 O75 2.049 . S
Zn70 O80 2.067 . S
Zn71 O72 1.962 . S
Zn71 O74 1.986 . S
Zn71 O76 1.996 . S
Zn71 O79 1.943 . S
O72 Zn71 1.962 . S
O72 C77 1.254 . S
O73 Zn70 2.031 . S
O73 C77 1.269 . S
O74 Zn71 1.986 . S
O74 C81 1.262 . S
O75 Zn70 2.049 . S
O75 C83 1.260 . S
O76 Zn71 1.996 . S
O76 C83 1.257 . S
C77 O72 1.254 . S
C77 O73 1.269 . S
C78 O79 1.249 . S
C78 O80 1.270 . S
O79 Zn71 1.943 . S
O79 C78 1.249 . S
O80 Zn70 2.067 . S
O80 C78 1.270 . S
C81 O74 1.262 . S
C81 O82 1.232 . S
O82 C81 1.232 . S
C83 O75 1.260 . S
C83 O76 1.257 . S
Zn84 O87 2.031 1_554 S
Zn84 O89 2.049 . S
Zn84 O94 2.071 . S
Zn85 O86 1.962 . S
Zn85 O88 1.986 . S
Zn85 O90 1.996 . S
Zn85 O93 1.943 . S
O86 Zn85 1.962 . S
O86 C91 1.254 . S
O87 Zn84 2.031 1_556 S
O87 C91 1.269 . S
O88 Zn85 1.986 . S
O88 C95 1.262 . S
O89 Zn84 2.049 . S
O89 C97 1.260 1_554 S
O90 Zn85 1.996 . S
O90 C97 1.257 . S
C91 O86 1.254 . S
C91 O87 1.269 . S
C92 O93 1.249 1_455 S
C92 O94 1.260 1_456 S
O93 Zn85 1.943 . S
O93 C92 1.249 1_655 S
O94 Zn84 2.071 . S
O94 C92 1.260 1_654 S
C95 O88 1.262 . S
C95 O96 1.232 . S
O96 C95 1.232 . S
C97 O89 1.260 1_556 S
C97 O90 1.257 . S
Zn98 O101 2.031 1_554 S
Zn98 O103 2.049 . S
Zn98 O108 2.071 . S
Zn99 O100 1.962 . S
Zn99 O102 1.986 . S
Zn99 O104 1.996 . S
Zn99 O107 1.943 . S
O100 Zn99 1.962 . S
O100 C105 1.254 . S
O101 Zn98 2.031 1_556 S
O101 C105 1.269 . S
O102 Zn99 1.986 . S
O102 C109 1.262 . S
O103 Zn98 2.049 . S
O103 C111 1.260 1_554 S
O104 Zn99 1.996 . S
O104 C111 1.257 . S
C105 O100 1.254 . S
C105 O101 1.269 . S
C106 O107 1.249 . S
C106 O108 1.260 1_556 S
O107 Zn99 1.943 . S
O107 C106 1.249 . S
O108 Zn98 2.071 . S
O108 C106 1.260 1_554 S
C109 O102 1.262 . S
C109 O110 1.232 . S
O110 C109 1.232 . S
C111 O103 1.260 1_556 S
C111 O104 1.257 . S
Zn112 O115 2.031 1_554 S
Zn112 O117 2.049 . S
Zn112 O122 2.071 . S
Zn113 O114 1.962 . S
Zn113 O116 1.986 . S
Zn113 O118 1.996 . S
Zn113 O121 1.943 . S
O114 Zn113 1.962 . S
O114 C119 1.254 . S
O115 Zn112 2.031 1_556 S
O115 C119 1.269 . S
O116 Zn113 1.986 . S
O116 C123 1.262 . S
O117 Zn112 2.049 . S
O117 C125 1.260 1_554 S
O118 Zn113 1.996 . S
O118 C125 1.257 . S
C119 O114 1.254 . S
C119 O115 1.269 . S
C120 O121 1.249 1_565 S
C120 O122 1.261 1_566 S
O121 Zn113 1.943 . S
O121 C120 1.249 1_545 S
O122 Zn112 2.071 . S
O122 C120 1.261 1_544 S
C123 O116 1.262 . S
C123 O124 1.232 . S
O124 C123 1.232 . S
C125 O117 1.260 1_556 S
C125 O118 1.257 . S
Zn126 O129 2.031 . S
Zn126 O131 2.049 . S
Zn126 O136 2.067 . S
Zn127 O128 1.962 . S
Zn127 O130 1.986 . S
Zn127 O132 1.996 . S
Zn127 O135 1.943 . S
O128 Zn127 1.962 . S
O128 C133 1.254 . S
O129 Zn126 2.031 . S
O129 C133 1.269 . S
O130 Zn127 1.986 . S
O130 C137 1.262 . S
O131 Zn126 2.049 . S
O131 C139 1.260 . S
O132 Zn127 1.996 . S
O132 C139 1.257 . S
C133 O128 1.254 . S
C133 O129 1.269 . S
C134 O135 1.249 1_565 S
C134 O136 1.270 1_565 S
O135 Zn127 1.943 . S
O135 C134 1.249 1_545 S
O136 Zn126 2.067 . S
O136 C134 1.270 1_545 S
C137 O130 1.262 . S
C137 O138 1.232 . S
O138 C137 1.232 . S
C139 O131 1.260 . S
C139 O132 1.257 . S
Zn140 O143 2.031 . S
Zn140 O145 2.049 . S
Zn140 O150 2.067 . S
Zn141 O142 1.962 . S
Zn141 O144 1.986 . S
Zn141 O146 1.996 . S
Zn141 O149 1.943 . S
O142 Zn141 1.962 . S
O142 C147 1.254 . S
O143 Zn140 2.031 . S
O143 C147 1.269 . S
O144 Zn141 1.986 . S
O144 C151 1.262 . S
O145 Zn140 2.049 . S
O145 C153 1.260 . S
O146 Zn141 1.996 . S
O146 C153 1.257 . S
C147 O142 1.254 . S
C147 O143 1.269 . S
C148 O149 1.249 1_455 S
C148 O150 1.270 1_455 S
O149 Zn141 1.943 . S
O149 C148 1.249 1_655 S
O150 Zn140 2.067 . S
O150 C148 1.270 1_655 S
C151 O144 1.262 . S
C151 O152 1.232 . S
O152 C151 1.232 . S
C153 O145 1.260 . S
C153 O146 1.257 . S
Zn154 O157 2.031 . S
Zn154 O159 2.049 . S
Zn154 O164 2.067 . S
Zn155 O156 1.962 . S
Zn155 O158 1.986 . S
Zn155 O160 1.996 . S
Zn155 O163 1.943 . S
O156 Zn155 1.962 . S
O156 C161 1.254 . S
O157 Zn154 2.031 . S
O157 C161 1.269 . S
O158 Zn155 1.986 . S
O158 C165 1.262 . S
O159 Zn154 2.049 . S
O159 C167 1.260 . S
O160 Zn155 1.996 . S
O160 C167 1.257 . S
C161 O156 1.254 . S
C161 O157 1.269 . S
C162 O163 1.249 . S
C162 O164 1.270 . S
O163 Zn155 1.943 . S
O163 C162 1.249 . S
O164 Zn154 2.067 . S
O164 C162 1.270 . S
C165 O158 1.262 . S
C165 O166 1.232 . S
O166 C165 1.232 . S
C167 O159 1.260 . S
C167 O160 1.257 . S
C168 C169 1.369 . S
C168 C170 1.411 1_554 S
C168 H172 0.930 . S
C169 C168 1.369 . S
C169 C178 1.429 1_554 S
C170 C168 1.411 1_556 S
C170 C171 1.377 . S
C170 H173 0.922 1_556 S
C171 C170 1.377 . S
C171 C177 1.428 . S
H172 C168 0.930 . S
H173 C170 0.922 1_554 S
S174 N175 1.613 . S
S174 N176 1.610 . S
N175 S174 1.613 . S
N175 C178 1.350 . S
N176 S174 1.610 . S
N176 C177 1.351 . S
C177 C171 1.428 . S
C177 N176 1.351 . S
C177 C178 1.434 . S
C178 C169 1.429 1_556 S
C178 N175 1.350 . S
C178 C177 1.434 . S
C179 C180 1.369 1_556 S
C179 C181 1.419 . S
C179 H183 0.930 . S
C180 C179 1.369 1_554 S
C180 C189 1.429 . S
C181 C179 1.419 . S
C181 C182 1.363 . S
C181 H184 0.929 . S
C182 C181 1.363 . S
C182 C188 1.428 . S
H183 C179 0.930 . S
H184 C181 0.929 . S
S185 N186 1.613 . S
S185 N187 1.601 1_554 S
N186 S185 1.613 . S
N186 C189 1.350 . S
N187 S185 1.601 1_556 S
N187 C188 1.354 . S
C188 C182 1.428 . S
C188 N187 1.354 . S
C188 C189 1.434 1_556 S
C189 C180 1.429 . S
C189 N186 1.350 . S
C189 C188 1.434 1_554 S
C190 C191 1.369 1_556 S
C190 C192 1.419 . S
C190 H194 0.930 . S
C191 C190 1.369 1_554 S
C191 C200 1.429 . S
C192 C190 1.419 . S
C192 C193 1.363 . S
C192 H195 0.929 . S
C193 C192 1.363 . S
C193 C199 1.428 1_556 S
H194 C190 0.930 . S
H195 C192 0.929 . S
S196 N197 1.613 . S
S196 N198 1.610 . S
N197 S196 1.613 . S
N197 C200 1.350 . S
N198 S196 1.610 . S
N198 C199 1.351 . S
C199 C193 1.428 1_554 S
C199 N198 1.351 . S
C199 C200 1.434 . S
C200 C191 1.429 . S
C200 N197 1.350 . S
C200 C199 1.434 . S
C201 C202 1.369 . S
C201 C203 1.419 . S
C201 H205 0.930 . S
C202 C201 1.369 . S
C202 C211 1.429 . S
C203 C201 1.419 . S
C203 C204 1.363 . S
C203 H206 0.929 . S
C204 C203 1.363 . S
C204 C210 1.428 . S
H205 C201 0.930 . S
H206 C203 0.929 . S
S207 N208 1.613 . S
S207 N209 1.610 . S
N208 S207 1.613 . S
N208 C211 1.350 . S
N209 S207 1.610 . S
N209 C210 1.351 . S
C210 C204 1.428 . S
C210 N209 1.351 . S
C210 C211 1.434 . S
C211 C202 1.429 . S
C211 N208 1.350 . S
C211 C210 1.434 . S
C212 C213 1.369 . S
C212 C214 1.419 . S
C212 H216 0.930 . S
C213 C212 1.369 . S
C213 C222 1.429 . S
C214 C212 1.419 . S
C214 C215 1.363 . S
C214 H217 0.929 . S
C215 C214 1.363 . S
C215 C221 1.428 . S
H216 C212 0.930 . S
H217 C214 0.929 . S
S218 N219 1.613 . S
S218 N220 1.610 . S
N219 S218 1.613 . S
N219 C222 1.350 . S
N220 S218 1.610 . S
N220 C221 1.351 . S
C221 C215 1.428 . S
C221 N220 1.351 . S
C221 C222 1.434 . S
C222 C213 1.429 . S
C222 N219 1.350 . S
C222 C221 1.434 . S
C223 C224 1.369 . S
C223 C225 1.419 . S
C223 H227 0.930 . S
C224 C223 1.369 . S
C224 C233 1.429 . S
C225 C223 1.419 . S
C225 C226 1.363 . S
C225 H228 0.929 . S
C226 C225 1.363 . S
C226 C232 1.428 . S
H227 C223 0.930 . S
H228 C225 0.929 . S
S229 N230 1.613 . S
S229 N231 1.610 . S
N230 S229 1.613 . S
N230 C233 1.350 . S
N231 S229 1.610 . S
N231 C232 1.351 . S
C232 C226 1.428 . S
C232 N231 1.351 . S
C232 C233 1.434 . S
C233 C224 1.429 . S
C233 N230 1.350 . S
C233 C232 1.434 . S
C234 C235 1.369 1_556 S
C234 C236 1.419 . S
C234 H238 0.930 . S
C235 C234 1.369 1_554 S
C235 C244 1.429 . S
C236 C234 1.419 . S
C236 C237 1.363 . S
C236 H239 0.929 . S
C237 C236 1.363 . S
C237 C243 1.428 1_556 S
H238 C234 0.930 . S
H239 C236 0.929 . S
S240 N241 1.613 . S
S240 N242 1.610 . S
N241 S240 1.613 . S
N241 C244 1.350 . S
N242 S240 1.610 . S
N242 C243 1.351 . S
C243 C237 1.428 1_554 S
C243 N242 1.351 . S
C243 C244 1.434 . S
C244 C235 1.429 . S
C244 N241 1.350 . S
C244 C243 1.434 . S
C245 C246 1.369 1_554 S
C245 C247 1.419 . S
C245 H249 0.930 . S
C246 C245 1.369 1_556 S
C246 C255 1.429 . S
C247 C245 1.419 . S
C247 C248 1.363 . S
C247 H250 0.929 . S
C248 C247 1.363 . S
C248 C254 1.428 . S
H249 C245 0.930 . S
H250 C247 0.929 . S
S251 N252 1.613 . S
S251 N253 1.610 1_556 S
N252 S251 1.613 . S
N252 C255 1.350 . S
N253 S251 1.610 1_554 S
N253 C254 1.351 . S
C254 C248 1.428 . S
C254 N253 1.351 . S
C254 C255 1.434 1_554 S
C255 C246 1.429 . S
C255 N252 1.350 . S
C255 C254 1.434 1_556 S
C256 C257 1.369 . S
C256 C258 1.419 1_554 S
C256 H260 0.930 . S
C257 C256 1.369 . S
C257 C266 1.429 . S
C258 C256 1.419 1_556 S
C258 C259 1.363 . S
C258 H261 0.929 . S
C259 C258 1.363 . S
C259 C265 1.428 1_556 S
H260 C256 0.930 . S
H261 C258 0.929 . S
S262 N263 1.613 . S
S262 N264 1.610 . S
N263 S262 1.613 . S
N263 C266 1.350 . S
N264 S262 1.610 . S
N264 C265 1.351 . S
C265 C259 1.428 1_554 S
C265 N264 1.351 . S
C265 C266 1.434 . S
C266 C257 1.429 . S
C266 N263 1.350 . S
C266 C265 1.434 . S
C267 C268 1.369 . S
C267 C269 1.419 . S
C267 H271 0.930 . S
C268 C267 1.369 . S
C268 C277 1.429 . S
C269 C267 1.419 . S
C269 C270 1.363 . S
C269 H272 0.929 . S
C270 C269 1.363 . S
C270 C276 1.428 . S
H271 C267 0.930 . S
H272 C269 0.929 . S
S273 N274 1.613 . S
S273 N275 1.610 . S
N274 S273 1.613 . S
N274 C277 1.350 . S
N275 S273 1.610 . S
N275 C276 1.351 . S
C276 C270 1.428 . S
C276 N275 1.351 . S
C276 C277 1.434 . S
C277 C268 1.429 . S
C277 N274 1.350 . S
C277 C276 1.434 . S
C278 C279 1.369 . S
C278 C280 1.419 . S
C278 H282 0.930 . S
C279 C278 1.369 . S
C279 C288 1.429 . S
C280 C278 1.419 . S
C280 C281 1.363 . S
C280 H283 0.929 . S
C281 C280 1.363 . S
C281 C287 1.428 . S
H282 C278 0.930 . S
H283 C280 0.929 . S
S284 N285 1.613 . S
S284 N286 1.610 . S
N285 S284 1.613 . S
N285 C288 1.350 . S
N286 S284 1.610 . S
N286 C287 1.351 . S
C287 C281 1.428 . S
C287 N286 1.351 . S
C287 C288 1.434 . S
C288 C279 1.429 . S
C288 N285 1.350 . S
C288 C287 1.434 . S
C289 C290 1.369 . S
C289 C291 1.419 . S
C289 H293 0.930 . S
C290 C289 1.369 . S
C290 C299 1.429 . S
C291 C289 1.419 . S
C291 C292 1.363 . S
C291 H294 0.929 . S
C292 C291 1.363 . S
C292 C298 1.428 . S
H293 C289 0.930 . S
H294 C291 0.929 . S
S295 N296 1.613 . S
S295 N297 1.610 . S
N296 S295 1.613 . S
N296 C299 1.350 . S
N297 S295 1.610 . S
N297 C298 1.351 . S
C298 C292 1.428 . S
C298 N297 1.351 . S
C298 C299 1.434 . S
C299 C290 1.429 . S
C299 N296 1.350 . S
C299 C298 1.434 . S
C300 C301 1.369 . S
C300 C302 1.419 . S
C300 H304 0.930 . S
C301 C300 1.369 . S
C301 C310 1.429 . S
C302 C300 1.419 . S
C302 C303 1.363 . S
C302 H305 0.929 . S
C303 C302 1.363 . S
C303 C309 1.428 . S
H304 C300 0.930 . S
H305 C302 0.929 . S
S306 N307 1.613 . S
S306 N308 1.610 . S
N307 S306 1.613 . S
N307 C310 1.350 . S
N308 S306 1.610 . S
N308 C309 1.351 . S
C309 C303 1.428 . S
C309 N308 1.351 . S
C309 C310 1.434 . S
C310 C301 1.429 . S
C310 N307 1.350 . S
C310 C309 1.434 . S
C311 C312 1.369 . S
C311 C313 1.419 . S
C311 H315 0.930 . S
C312 C311 1.369 . S
C312 C321 1.429 . S
C313 C311 1.419 . S
C313 C314 1.363 . S
C313 H316 0.929 . S
C314 C313 1.363 . S
C314 C320 1.428 . S
H315 C311 0.930 . S
H316 C313 0.929 . S
S317 N318 1.613 . S
S317 N319 1.610 . S
N318 S317 1.613 . S
N318 C321 1.350 . S
N319 S317 1.610 . S
N319 C320 1.351 . S
C320 C314 1.428 . S
C320 N319 1.351 . S
C320 C321 1.434 . S
C321 C312 1.429 . S
C321 N318 1.350 . S
C321 C320 1.434 . S
C322 C323 1.369 . S
C322 C324 1.419 . S
C322 H326 0.930 . S
C323 C322 1.369 . S
C323 C332 1.429 . S
C324 C322 1.419 . S
C324 C325 1.363 . S
C324 H327 0.929 . S
C325 C324 1.363 . S
C325 C331 1.428 . S
H326 C322 0.930 . S
H327 C324 0.929 . S
S328 N329 1.613 . S
S328 N330 1.610 . S
N329 S328 1.613 . S
N329 C332 1.350 . S
N330 S328 1.610 . S
N330 C331 1.351 . S
C331 C325 1.428 . S
C331 N330 1.351 . S
C331 C332 1.434 . S
C332 C323 1.429 . S
C332 N329 1.350 . S
C332 C331 1.434 . S
C333 C334 1.369 . S
C333 C335 1.419 . S
C333 H337 0.930 . S
C334 C333 1.369 . S
C334 C343 1.429 . S
C335 C333 1.419 . S
C335 C336 1.363 . S
C335 H338 0.929 . S
C336 C335 1.363 . S
C336 C342 1.428 . S
H337 C333 0.930 . S
H338 C335 0.929 . S
S339 N340 1.613 . S
S339 N341 1.610 . S
N340 S339 1.613 . S
N340 C343 1.350 . S
N341 S339 1.610 . S
N341 C342 1.351 . S
C342 C336 1.428 . S
C342 N341 1.351 . S
C342 C343 1.434 . S
C343 C334 1.429 . S
C343 N340 1.350 . S
C343 C342 1.434 . S
C344 C345 1.369 . S
C344 C346 1.419 . S
C344 H348 0.930 . S
C345 C344 1.369 . S
C345 C354 1.429 . S
C346 C344 1.419 . S
C346 C347 1.363 . S
C346 H349 0.929 . S
C347 C346 1.363 . S
C347 C353 1.428 . S
H348 C344 0.930 . S
H349 C346 0.929 . S
S350 N351 1.613 . S
S350 N352 1.610 . S
N351 S350 1.613 . S
N351 C354 1.350 . S
N352 S350 1.610 . S
N352 C353 1.351 . S
C353 C347 1.428 . S
C353 N352 1.351 . S
C353 C354 1.434 . S
C354 C345 1.429 . S
C354 N351 1.350 . S
C354 C353 1.434 . S
C355 C356 1.369 . S
C355 C357 1.419 . S
C355 H359 0.930 . S
C356 C355 1.369 . S
C356 C365 1.429 . S
C357 C355 1.419 . S
C357 C358 1.363 . S
C357 H360 0.929 . S
C358 C357 1.363 . S
C358 C364 1.428 . S
H359 C355 0.930 . S
H360 C357 0.929 . S
S361 N362 1.613 . S
S361 N363 1.610 . S
N362 S361 1.613 . S
N362 C365 1.350 . S
N363 S361 1.610 . S
N363 C364 1.351 . S
C364 C358 1.428 . S
C364 N363 1.351 . S
C364 C365 1.434 . S
C365 C356 1.429 . S
C365 N362 1.350 . S
C365 C364 1.434 . S
C366 C367 1.369 . S
C366 C368 1.419 . S
C366 H370 0.930 . S
C367 C366 1.369 . S
C367 C376 1.429 1_454 S
C368 C366 1.419 . S
C368 C369 1.363 1_454 S
C368 H371 0.929 . S
C369 C368 1.363 1_656 S
C369 C375 1.428 . S
H370 C366 0.930 . S
H371 C368 0.929 . S
S372 N373 1.613 . S
S372 N374 1.610 . S
N373 S372 1.613 . S
N373 C376 1.350 . S
N374 S372 1.610 . S
N374 C375 1.351 . S
C375 C369 1.428 . S
C375 N374 1.351 . S
C375 C376 1.434 . S
C376 C367 1.429 1_656 S
C376 N373 1.350 . S
C376 C375 1.434 . S
C377 C378 1.369 . S
C377 C379 1.419 . S
C377 H381 0.930 . S
C378 C377 1.369 . S
C378 C387 1.429 1_554 S
C379 C377 1.419 . S
C379 C380 1.363 1_554 S
C379 H382 0.929 . S
C380 C379 1.363 1_556 S
C380 C386 1.428 . S
H381 C377 0.930 . S
H382 C379 0.929 . S
S383 N384 1.613 . S
S383 N385 1.610 . S
N384 S383 1.613 . S
N384 C387 1.350 . S
N385 S383 1.610 . S
N385 C386 1.351 . S
C386 C380 1.428 . S
C386 N385 1.351 . S
C386 C387 1.434 . S
C387 C378 1.429 1_556 S
C387 N384 1.350 . S
C387 C386 1.434 . S
C388 C389 1.369 1_546 S
C388 C390 1.419 . S
C388 H392 0.930 . S
C389 C388 1.369 1_564 S
C389 C398 1.429 . S
C390 C388 1.419 . S
C390 C391 1.363 . S
C390 H393 0.929 . S
C391 C390 1.363 . S
C391 C397 1.428 1_546 S
H392 C388 0.930 . S
H393 C390 0.929 . S
S394 N395 1.613 . S
S394 N396 1.610 . S
N395 S394 1.613 . S
N395 C398 1.350 . S
N396 S394 1.610 . S
N396 C397 1.351 . S
C397 C391 1.428 1_564 S
C397 N396 1.351 . S
C397 C398 1.434 . S
C398 C389 1.429 . S
C398 N395 1.350 . S
C398 C397 1.434 . S
C399 C400 1.369 . S
C399 C401 1.419 . S
C399 H403 0.930 . S
C400 C399 1.369 . S
C400 C409 1.429 1_565 S
C401 C399 1.419 . S
C401 C402 1.363 1_565 S
C401 H404 0.929 . S
C402 C401 1.363 1_545 S
C402 C408 1.428 . S
H403 C399 0.930 . S
H404 C401 0.929 . S
S405 N406 1.613 . S
S405 N407 1.610 . S
N406 S405 1.613 . S
N406 C409 1.350 . S
N407 S405 1.610 . S
N407 C408 1.351 . S
C408 C402 1.428 . S
C408 N407 1.351 . S
C408 C409 1.434 . S
C409 C400 1.429 1_545 S
C409 N406 1.350 . S
C409 C408 1.434 . S
C410 C411 1.369 1_455 S
C410 C412 1.419 . S
C410 H414 0.930 . S
C411 C410 1.369 1_655 S
C411 C420 1.429 . S
C412 C410 1.419 . S
C412 C413 1.363 . S
C412 H415 0.929 . S
C413 C412 1.363 . S
C413 C419 1.428 1_455 S
H414 C410 0.930 . S
H415 C412 0.929 . S
S416 N417 1.613 . S
S416 N418 1.610 . S
N417 S416 1.613 . S
N417 C420 1.350 . S
N418 S416 1.610 . S
N418 C419 1.351 . S
C419 C413 1.428 1_655 S
C419 N418 1.351 . S
C419 C420 1.434 . S
C420 C411 1.429 . S
C420 N417 1.350 . S
C420 C419 1.434 . S
C421 C422 1.369 . S
C421 C423 1.419 . S
C421 H425 0.930 . S
C422 C421 1.369 . S
C422 C431 1.429 . S
C423 C421 1.419 . S
C423 C424 1.363 . S
C423 H426 0.929 . S
C424 C423 1.363 . S
C424 C430 1.428 . S
H425 C421 0.930 . S
H426 C423 0.929 . S
S427 N428 1.613 . S
S427 N429 1.610 . S
N428 S427 1.613 . S
N428 C431 1.350 . S
N429 S427 1.610 . S
N429 C430 1.351 . S
C430 C424 1.428 . S
C430 N429 1.351 . S
C430 C431 1.434 . S
C431 C422 1.429 . S
C431 N428 1.350 . S
C431 C430 1.434 . S
C169 C13 0.873 . S
C171 C106 0.889 . S
C180 C27 0.886 . S
C182 C120 0.881 . S
C191 C41 0.887 . S
C193 C92 0.881 . S
C202 C162 0.887 . S
C204 C55 0.880 . S
C213 C69 0.888 . S
C215 C134 0.881 . S
C224 C148 0.890 . S
C226 C83 0.878 . S
C235 C22 0.893 . S
C237 C97 0.873 . S
C246 C111 0.888 . S
C248 C36 0.881 . S
C257 C8 0.890 . S
C259 C125 0.878 . S
C268 C139 0.888 . S
C270 C78 0.879 . S
C279 C153 0.872 . S
C281 C50 0.891 . S
C290 C64 0.889 . S
C292 C167 0.876 . S
C301 C81 1.681 . S
C303 C11 1.687 . S
C312 C25 1.685 . S
C314 C53 1.685 . S
C323 C39 1.680 . S
C325 C67 1.686 . S
C334 C95 1.684 . S
C336 C165 1.685 . S
C345 C109 1.685 . S
C347 C137 1.684 . S
C356 C123 1.686 . S
C358 C151 1.682 . S
C367 C7 1.546 . S
C369 C91 1.555 . S
C378 C21 1.547 . S
C380 C105 1.554 . S
C389 C35 1.556 . S
C391 C119 1.547 . S
C400 C49 1.551 . S
C402 C133 1.550 . S
C411 C147 1.554 . S
C413 C63 1.548 . S
C422 C77 1.548 . S
C424 C161 1.552 . S
