# Generated by pormake.
# Topology wkx, (5)-cn, num edge types: 1
# Building blocks:
#     Node 0, Type 0, BuildingBlock: BEQFEK_clean_sbu_0, # of connection points: 5
#     Node 1, Type 0, BuildingBlock: BEQFEK_clean_sbu_0, # of connection points: 5
#     Node 2, Type 0, BuildingBlock: BEQFEK_clean_sbu_0, # of connection points: 5
#     Node 3, Type 0, BuildingBlock: BEQFEK_clean_sbu_0, # of connection points: 5
#     Node 4, Type 0, BuildingBlock: BEQFEK_clean_sbu_0, # of connection points: 5
#     Node 5, Type 0, BuildingBlock: BEQFEK_clean_sbu_0, # of connection points: 5
#     Node 6, Type 0, BuildingBlock: BEQFEK_clean_sbu_0, # of connection points: 5
#     Node 7, Type 0, BuildingBlock: BEQFEK_clean_sbu_0, # of connection points: 5
#     Node 8, Type 0, BuildingBlock: BEQFEK_clean_sbu_0, # of connection points: 5
#     Node 9, Type 0, BuildingBlock: BEQFEK_clean_sbu_0, # of connection points: 5
#     Node 10, Type 0, BuildingBlock: BEQFEK_clean_sbu_0, # of connection points: 5
#     Node 11, Type 0, BuildingBlock: BEQFEK_clean_sbu_0, # of connection points: 5
#     Edge 12, Type (0, 0), BuildingBlock: OJICUG_clean_linker_0, # of connection points: 2
#     Edge 13, Type (0, 0), BuildingBlock: OJICUG_clean_linker_0, # of connection points: 2
#     Edge 14, Type (0, 0), BuildingBlock: OJICUG_clean_linker_0, # of connection points: 2
#     Edge 15, Type (0, 0), BuildingBlock: OJICUG_clean_linker_0, # of connection points: 2
#     Edge 16, Type (0, 0), BuildingBlock: OJICUG_clean_linker_0, # of connection points: 2
#     Edge 17, Type (0, 0), BuildingBlock: OJICUG_clean_linker_0, # of connection points: 2
#     Edge 18, Type (0, 0), BuildingBlock: OJICUG_clean_linker_0, # of connection points: 2
#     Edge 19, Type (0, 0), BuildingBlock: OJICUG_clean_linker_0, # of connection points: 2
#     Edge 20, Type (0, 0), BuildingBlock: OJICUG_clean_linker_0, # of connection points: 2
#     Edge 21, Type (0, 0), BuildingBlock: OJICUG_clean_linker_0, # of connection points: 2
#     Edge 22, Type (0, 0), BuildingBlock: OJICUG_clean_linker_0, # of connection points: 2
#     Edge 23, Type (0, 0), BuildingBlock: OJICUG_clean_linker_0, # of connection points: 2
#     Edge 24, Type (0, 0), BuildingBlock: OJICUG_clean_linker_0, # of connection points: 2
#     Edge 25, Type (0, 0), BuildingBlock: OJICUG_clean_linker_0, # of connection points: 2
#     Edge 26, Type (0, 0), BuildingBlock: OJICUG_clean_linker_0, # of connection points: 2
#     Edge 27, Type (0, 0), BuildingBlock: OJICUG_clean_linker_0, # of connection points: 2
#     Edge 28, Type (0, 0), BuildingBlock: OJICUG_clean_linker_0, # of connection points: 2
#     Edge 29, Type (0, 0), BuildingBlock: OJICUG_clean_linker_0, # of connection points: 2
#     Edge 30, Type (0, 0), BuildingBlock: OJICUG_clean_linker_0, # of connection points: 2
#     Edge 31, Type (0, 0), BuildingBlock: OJICUG_clean_linker_0, # of connection points: 2
#     Edge 32, Type (0, 0), BuildingBlock: OJICUG_clean_linker_0, # of connection points: 2
#     Edge 33, Type (0, 0), BuildingBlock: OJICUG_clean_linker_0, # of connection points: 2
#     Edge 34, Type (0, 0), BuildingBlock: OJICUG_clean_linker_0, # of connection points: 2
#     Edge 35, Type (0, 0), BuildingBlock: OJICUG_clean_linker_0, # of connection points: 2
#     Edge 36, Type (0, 0), BuildingBlock: OJICUG_clean_linker_0, # of connection points: 2
#     Edge 37, Type (0, 0), BuildingBlock: OJICUG_clean_linker_0, # of connection points: 2
#     Edge 38, Type (0, 0), BuildingBlock: OJICUG_clean_linker_0, # of connection points: 2
#     Edge 39, Type (0, 0), BuildingBlock: OJICUG_clean_linker_0, # of connection points: 2
#     Edge 40, Type (0, 0), BuildingBlock: OJICUG_clean_linker_0, # of connection points: 2
#     Edge 41, Type (0, 0), BuildingBlock: OJICUG_clean_linker_0, # of connection points: 2
# Relax obj value: 0.450
# Max RMSD: 0.259
# Mean RMSD: 0.259
data_MOF--net-wkx--node1-BEQFEK_clean_sbu_0--edge1-OJICUG_clean_linker_0
_symmetry_space_group_name_H-M    P1
_symmetry_Int_Tables_number       1
_symmetry_cell_setting            triclinic
loop_
_symmetry_equiv_pos_as_xyz
'x, y, z'
_cell_length_a     27.856928
_cell_length_b     27.819972
_cell_length_c     54.943988
_cell_angle_alpha  90.023272
_cell_angle_beta   89.963904
_cell_angle_gamma 120.0351
loop_
_atom_site_label
_atom_site_type_symbol
_atom_site_fract_x
_atom_site_fract_y
_atom_site_fract_z
_atom_type_partial_charge
Co0 Co 0.20953 0.15077 0.4509 0.0
Co1 Co 0.33148 0.19807 0.46594 0.0
C2 C 0.25757 0.24711 0.48169 0.0
O3 O 0.22028 0.21833 0.46626 0.0
O4 O 0.30066 0.24216 0.48357 0.0
C5 C 0.09363 0.10004 0.45374 0.0
O6 O 0.10499 0.12051 0.4759 0.0
C7 C 0.44033 0.29161 0.45553 0.0
C8 C 0.49808 0.26816 0.47181 0.0
C9 C 0.49653 0.30958 0.45828 0.0
N10 N 0.41066 0.24246 0.46685 0.0
N11 N 0.44537 0.22875 0.47672 0.0
C12 C 0.41428 0.31753 0.44064 0.0
H13 H 0.37033 0.28699 0.43662 0.0
H14 H 0.43739 0.33428 0.42336 0.0
H15 H 0.41512 0.35206 0.45109 0.0
C16 C 0.24972 0.13895 0.40341 0.0
N17 N 0.2593 0.16135 0.42586 0.0
N18 N 0.31036 0.17708 0.4324 0.0
C19 C 0.33468 0.16364 0.41436 0.0
C20 C 0.29714 0.13927 0.39524 0.0
C21 C 0.19318 0.1081 0.39222 0.0
H22 H 0.16846 0.0679 0.40181 0.0
H23 H 0.17183 0.13245 0.39445 0.0
H24 H 0.19508 0.09971 0.37262 0.0
O25 O 0.21505 0.1025 0.47599 0.0
O26 O 0.30249 0.12807 0.48505 0.0
H27 H 0.39325 0.15103 0.43448 0.0
H28 H 0.39791 0.14598 0.40167 0.0
C29 C 0.39025 0.16809 0.41665 0.0
H30 H 0.42284 0.21254 0.41614 0.0
H31 H 0.43311 0.19192 0.4862 0.0
O32 O 0.13319 0.11009 0.4393 0.0
C33 C 0.25045 0.09497 0.48756 0.0
Co34 Co 0.06757 0.20973 0.62151 0.0
Co35 Co 0.13675 0.33459 0.6332 0.0
C36 C 0.01447 0.25734 0.6493 0.0
O37 O 0.0082 0.21882 0.63502 0.0
O38 O 0.06132 0.30227 0.65068 0.0
C39 C 0.99138 0.0989 0.60248 0.0
O40 O 0.96103 0.11786 0.59277 0.0
C41 C 0.14944 0.44181 0.62001 0.0
C42 C 0.22858 0.502 0.63726 0.0
C43 C 0.18636 0.49856 0.62258 0.0
N44 N 0.16906 0.41371 0.6325 0.0
N45 N 0.21623 0.44991 0.64291 0.0
C46 C 0.09861 0.41378 0.60444 0.0
H47 H 0.08676 0.36996 0.60096 0.0
H48 H 0.10557 0.43605 0.58688 0.0
H49 H 0.06362 0.41376 0.61409 0.0
C50 C 0.11826 0.24589 0.57305 0.0
N51 N 0.10534 0.25668 0.59526 0.0
N52 N 0.1374 0.30958 0.60035 0.0
C53 C 0.17293 0.33401 0.58155 0.0
C54 C 0.16158 0.29456 0.56347 0.0
C55 C 0.09596 0.18852 0.56305 0.0
H56 H 0.05025 0.16828 0.56144 0.0
H57 H 0.11368 0.18874 0.54494 0.0
H58 H 0.10565 0.16366 0.57581 0.0
O59 O 0.1213 0.22218 0.64765 0.0
O60 O 0.18089 0.31187 0.65385 0.0
H61 H 0.24127 0.40118 0.60005 0.0
H62 H 0.25101 0.39958 0.56743 0.0
C63 C 0.22056 0.39228 0.58204 0.0
H64 H 0.20463 0.42132 0.5794 0.0
H65 H 0.24057 0.43907 0.65341 0.0
O66 O 0.03606 0.13138 0.61352 0.0
C67 C 0.16363 0.2608 0.65835 0.0
Co68 Co 0.85558 0.06535 0.78814 0.0
Co69 Co 0.80279 0.13682 0.79989 0.0
C70 C 0.75469 0.01361 0.81561 0.0
O71 O 0.78623 0.00641 0.80128 0.0
O72 O 0.75823 0.06119 0.81715 0.0
C73 C 0.89022 0.98851 0.76955 0.0
O74 O 0.84119 0.95762 0.75966 0.0
C75 C 0.70882 0.14993 0.7868 0.0
C76 C 0.72835 0.22966 0.80368 0.0
C77 C 0.68915 0.18695 0.78928 0.0
N78 N 0.75679 0.1699 0.7991 0.0
N79 N 0.76815 0.21745 0.80928 0.0
C80 C 0.68556 0.09859 0.77149 0.0
H81 H 0.71749 0.08684 0.76785 0.0
H82 H 0.66955 0.10493 0.75401 0.0
H83 H 0.65102 0.06374 0.78144 0.0
C84 C 0.87214 0.11705 0.73977 0.0
N85 N 0.84813 0.10429 0.76193 0.0
N86 N 0.8285 0.13732 0.76706 0.0
C87 C 0.84066 0.17329 0.74834 0.0
C88 C 0.86828 0.1613 0.73026 0.0
C89 C 0.90624 0.09364 0.72985 0.0
H90 H 0.88006 0.0479 0.72841 0.0
H91 H 0.92385 0.11091 0.7117 0.0
H92 H 0.9407 0.10299 0.7426 0.0
O93 O 0.89719 0.11845 0.81445 0.0
O94 O 0.86968 0.17992 0.82075 0.0
H95 H 0.84396 0.24268 0.76682 0.0
H96 H 0.85407 0.25165 0.73411 0.0
C97 C 0.83114 0.22162 0.74889 0.0
H98 H 0.7862 0.20627 0.74663 0.0
H99 H 0.80356 0.24207 0.81962 0.0
O100 O 0.90189 0.0333 0.7804 0.0
C101 C 0.90222 0.1612 0.82529 0.0
Co102 Co 0.7894 0.86848 0.95491 0.0
Co103 Co 0.66406 0.80037 0.96575 0.0
C104 C 0.74688 0.76536 0.98314 0.0
O105 O 0.78562 0.80488 0.97139 0.0
O106 O 0.69796 0.75856 0.98293 0.0
C107 C 0.89837 0.8992 0.93718 0.0
O108 O 0.87795 0.84776 0.92972 0.0
C109 C 0.55686 0.70767 0.95091 0.0
C110 C 0.49793 0.71613 0.97493 0.0
C111 C 0.50094 0.68408 0.95632 0.0
N112 N 0.58554 0.75201 0.96539 0.0
N113 N 0.55009 0.75687 0.97973 0.0
C114 C 0.58323 0.68634 0.93352 0.0
H115 H 0.62789 0.70412 0.93782 0.0
H116 H 0.57949 0.69846 0.91471 0.0
H117 H 0.56172 0.6403 0.93427 0.0
C118 C 0.75239 0.87483 0.90592 0.0
N119 N 0.74203 0.85094 0.92807 0.0
N120 N 0.68865 0.82678 0.93277 0.0
C121 C 0.66357 0.83674 0.91384 0.0
C122 C 0.70306 0.86667 0.89599 0.0
C123 C 0.80954 0.91368 0.89657 0.0
H124 H 0.83363 0.89185 0.89601 0.0
H125 H 0.80886 0.92936 0.87809 0.0
H126 H 0.83079 0.94949 0.90915 0.0
O127 O 0.77313 0.91309 0.97802 0.0
O128 O 0.68275 0.86628 0.98635 0.0
H129 H 0.59335 0.82969 0.93327 0.0
H130 H 0.60015 0.85488 0.9023 0.0
C131 C 0.60524 0.82582 0.91441 0.0
H132 H 0.57686 0.78298 0.90795 0.0
H133 H 0.5615 0.78788 0.99284 0.0
O134 O 0.86708 0.91521 0.94652 0.0
C135 C 0.73072 0.90893 0.98877 0.0
Co136 Co 0.94973 0.79953 0.1145 0.0
Co137 Co 0.87599 0.6777 0.12967 0.0
C138 C 0.99751 0.7519 0.14646 0.0
O139 O 0.00535 0.78945 0.13133 0.0
O140 O 0.94996 0.708 0.14809 0.0
C141 C 0.01794 0.91464 0.11765 0.0
O142 O 0.02662 0.90177 0.13959 0.0
C143 C 0.85989 0.56828 0.12037 0.0
C144 C 0.77812 0.51149 0.13652 0.0
C145 C 0.82125 0.51223 0.12348 0.0
N146 N 0.84047 0.59862 0.13104 0.0
N147 N 0.79173 0.56453 0.14084 0.0
C148 C 0.91227 0.59356 0.10573 0.0
H149 H 0.90623 0.56972 0.0887 0.0
H150 H 0.94554 0.593 0.11659 0.0
H151 H 0.92608 0.63744 0.10127 0.0
C152 C 0.89997 0.75913 0.06688 0.0
N153 N 0.91304 0.74941 0.08924 0.0
N154 N 0.87776 0.69823 0.09581 0.0
C155 C 0.83984 0.67393 0.07783 0.0
C156 C 0.85266 0.71164 0.05875 0.0
C157 C 0.92479 0.81614 0.05615 0.0
H158 H 0.90876 0.83991 0.06612 0.0
H159 H 0.97051 0.83814 0.05831 0.0
H160 H 0.91451 0.81501 0.03661 0.0
O161 O 0.89253 0.79409 0.13768 0.0
O162 O 0.83327 0.70636 0.14751 0.0
H163 H 0.76719 0.61694 0.09762 0.0
H164 H 0.75977 0.60952 0.06477 0.0
C165 C 0.78845 0.61846 0.08031 0.0
H166 H 0.80015 0.58582 0.08113 0.0
H167 H 0.76717 0.57744 0.14991 0.0
O168 O 0.9873 0.876 0.103 0.0
C169 C 0.84915 0.75802 0.14884 0.0
Co170 Co 0.15126 0.94147 0.28301 0.0
Co171 Co 0.20289 0.86977 0.29718 0.0
C172 C 0.24673 0.98962 0.31546 0.0
O173 O 0.21533 0.99651 0.30099 0.0
O174 O 0.2454 0.94303 0.31629 0.0
C175 C 0.10289 0.00822 0.28706 0.0
O176 O 0.12378 0.01562 0.30908 0.0
C177 C 0.29721 0.85544 0.28685 0.0
C178 C 0.27294 0.77308 0.30219 0.0
C179 C 0.31496 0.81691 0.28927 0.0
N180 N 0.24758 0.83525 0.29776 0.0
N181 N 0.23339 0.78615 0.30707 0.0
C182 C 0.3239 0.90848 0.27264 0.0
H183 H 0.29372 0.92238 0.26874 0.0
H184 H 0.34128 0.90319 0.25532 0.0
H185 H 0.35801 0.94139 0.28356 0.0
C186 C 0.14612 0.89643 0.23472 0.0
N187 N 0.16768 0.90817 0.25732 0.0
N188 N 0.18456 0.8734 0.2634 0.0
C189 C 0.1726 0.83703 0.24486 0.0
C190 C 0.14808 0.85057 0.22594 0.0
C191 C 0.11358 0.92084 0.22408 0.0
H192 H 0.13605 0.9664 0.22706 0.0
H193 H 0.10625 0.91212 0.20432 0.0
H194 H 0.07289 0.90282 0.23345 0.0
O195 O 0.09929 0.88121 0.30492 0.0
O196 O 0.13107 0.82462 0.31467 0.0
H197 H 0.1596 0.76462 0.26416 0.0
H198 H 0.1563 0.75712 0.23126 0.0
C199 C 0.17744 0.78597 0.24663 0.0
H200 H 0.22193 0.7982 0.24642 0.0
H201 H 0.19614 0.76096 0.31616 0.0
O202 O 0.11139 0.97856 0.27201 0.0
C203 C 0.09337 0.83793 0.31567 0.0
Co204 Co 0.86046 0.78926 0.41504 0.0
Co205 Co 0.80247 0.66394 0.40393 0.0
C206 C 0.75907 0.74225 0.38757 0.0
O207 O 0.79243 0.78094 0.40149 0.0
O208 O 0.75976 0.69664 0.38637 0.0
C209 C 0.89476 0.89962 0.43408 0.0
O210 O 0.84521 0.88011 0.44364 0.0
C211 C 0.70771 0.55695 0.41746 0.0
C212 C 0.72649 0.4965 0.40031 0.0
C213 C 0.6879 0.50016 0.41506 0.0
N214 N 0.75528 0.58486 0.40483 0.0
N215 N 0.76612 0.5485 0.39447 0.0
C216 C 0.68509 0.58518 0.43304 0.0
H217 H 0.67011 0.56321 0.45068 0.0
H218 H 0.6499 0.58493 0.42348 0.0
H219 H 0.71707 0.62909 0.43633 0.0
C220 C 0.87407 0.75347 0.46373 0.0
N221 N 0.85047 0.74255 0.4415 0.0
N222 N 0.82848 0.68937 0.43671 0.0
C223 C 0.83875 0.66487 0.45575 0.0
C224 C 0.86743 0.7046 0.47364 0.0
C225 C 0.91003 0.8109 0.47351 0.0
H226 H 0.88508 0.83165 0.47533 0.0
H227 H 0.92799 0.8107 0.49149 0.0
H228 H 0.94425 0.83526 0.46051 0.0
O229 O 0.90145 0.77581 0.38904 0.0
O230 O 0.86911 0.68554 0.38323 0.0
H231 H 0.83776 0.59607 0.43771 0.0
H232 H 0.84983 0.59877 0.47029 0.0
C233 C 0.82677 0.60612 0.45567 0.0
H234 H 0.78174 0.57798 0.45862 0.0
H235 H 0.80118 0.55918 0.3839 0.0
O236 O 0.9075 0.86757 0.42298 0.0
C237 C 0.90398 0.73626 0.3786 0.0
Co238 Co 0.05539 0.84747 0.58779 0.0
Co239 Co 0.13049 0.80046 0.57279 0.0
C240 C 0.00828 0.75189 0.55627 0.0
O241 O 0.99942 0.78068 0.57157 0.0
O242 O 0.05625 0.75656 0.55473 0.0
C243 C 0.99015 0.89785 0.58456 0.0
O244 O 0.98181 0.87731 0.56242 0.0
C245 C 0.14629 0.70707 0.58293 0.0
C246 C 0.22799 0.73146 0.56693 0.0
C247 C 0.18489 0.68954 0.58021 0.0
N248 N 0.16572 0.75646 0.57183 0.0
N249 N 0.21443 0.77072 0.56213 0.0
C250 C 0.09396 0.6805 0.5976 0.0
H251 H 0.08011 0.71069 0.60165 0.0
H252 H 0.10008 0.66353 0.61486 0.0
H253 H 0.06069 0.64604 0.58696 0.0
C254 C 0.10588 0.85778 0.63548 0.0
N255 N 0.09348 0.83572 0.61296 0.0
N256 N 0.12908 0.82028 0.60643 0.0
C257 C 0.16656 0.83357 0.62456 0.0
C258 C 0.15299 0.85758 0.64371 0.0
C259 C 0.08004 0.88857 0.64661 0.0
H260 H 0.09609 0.92909 0.63723 0.0
H261 H 0.03442 0.86451 0.64408 0.0
H262 H 0.08963 0.89634 0.66629 0.0
O263 O 0.1106 0.8971 0.56347 0.0
O264 O 0.17205 0.87116 0.55418 0.0
H265 H 0.23843 0.84748 0.6046 0.0
H266 H 0.24729 0.85123 0.63744 0.0
C267 C 0.21797 0.82962 0.62228 0.0
H268 H 0.20641 0.78524 0.62246 0.0
H269 H 0.23905 0.80785 0.55282 0.0
O270 O 0.01916 0.88779 0.59929 0.0
C271 C 0.15382 0.90493 0.55204 0.0
Co272 Co 0.20743 0.0576 0.75551 0.0
Co273 Co 0.33014 0.12928 0.74032 0.0
C274 C 0.25355 0.00844 0.72309 0.0
O275 O 0.21588 0.00169 0.73793 0.0
O276 O 0.29854 0.0552 0.72177 0.0
C277 C 0.09197 0.9914 0.7525 0.0
O278 O 0.10434 0.98247 0.7305 0.0
C279 C 0.43942 0.14473 0.75027 0.0
C280 C 0.49655 0.22623 0.73395 0.0
C281 C 0.49554 0.18341 0.74737 0.0
N282 N 0.40934 0.16392 0.73916 0.0
N283 N 0.4437 0.21249 0.72925 0.0
C284 C 0.41386 0.0926 0.76511 0.0
H285 H 0.36976 0.07847 0.7691 0.0
H286 H 0.43694 0.09923 0.7824 0.0
H287 H 0.41528 0.05924 0.75464 0.0
C288 C 0.24906 0.10518 0.80329 0.0
N289 N 0.25811 0.0924 0.78074 0.0
N290 N 0.30941 0.12716 0.77417 0.0
C291 C 0.33434 0.16456 0.7923 0.0
C292 C 0.297 0.15173 0.81148 0.0
C293 C 0.19252 0.08092 0.81438 0.0
H294 H 0.16935 0.0985 0.80511 0.0
H295 H 0.16949 0.03526 0.8117 0.0
H296 H 0.19469 0.0903 0.8341 0.0
O297 O 0.2148 0.11648 0.73297 0.0
O298 O 0.3027 0.17351 0.72268 0.0
H299 H 0.39254 0.23602 0.77211 0.0
H300 H 0.39788 0.24553 0.80491 0.0
C301 C 0.38989 0.21583 0.78986 0.0
H302 H 0.42247 0.20402 0.79014 0.0
H303 H 0.43109 0.23694 0.7199 0.0
O304 O 0.13092 0.02149 0.76713 0.0
C305 C 0.2515 0.15945 0.72179 0.0
Co306 Co 0.15221 0.20823 0.92241 0.0
Co307 Co 0.20079 0.32958 0.90673 0.0
C308 C 0.24666 0.25381 0.8901 0.0
O309 O 0.21699 0.2167 0.90539 0.0
O310 O 0.24337 0.2979 0.88832 0.0
C311 C 0.1032 0.09273 0.91991 0.0
O312 O 0.12426 0.10433 0.89786 0.0
C313 C 0.29059 0.43895 0.919 0.0
C314 C 0.2796 0.49524 0.89431 0.0
C315 C 0.31294 0.49432 0.91283 0.0
N316 N 0.24573 0.40849 0.90511 0.0
N317 N 0.23932 0.44229 0.8903 0.0
C318 C 0.31338 0.41467 0.93675 0.0
H319 H 0.2992 0.37074 0.93208 0.0
H320 H 0.29831 0.41594 0.9553 0.0
H321 H 0.35939 0.4391 0.93694 0.0
C322 C 0.14501 0.24967 0.97 0.0
N323 N 0.16723 0.25904 0.94753 0.0
N324 N 0.1822 0.30984 0.9407 0.0
C325 C 0.16784 0.33399 0.95851 0.0
C326 C 0.14413 0.29678 0.97787 0.0
C327 C 0.11407 0.193 0.98115 0.0
H328 H 0.0732 0.16893 0.97206 0.0
H329 H 0.13757 0.17095 0.97834 0.0
H330 H 0.10707 0.19486 1.0009 0.0
O331 O 0.10023 0.21415 0.89946 0.0
O332 O 0.12936 0.30173 0.88912 0.0
H333 H 0.15739 0.39209 0.93673 0.0
H334 H 0.14234 0.39311 0.96885 0.0
C335 C 0.16961 0.38834 0.95554 0.0
H336 H 0.21266 0.42261 0.95849 0.0
H337 H 0.20766 0.42926 0.87744 0.0
O338 O 0.11242 0.13219 0.93429 0.0
C339 C 0.09306 0.25019 0.88818 0.0
Co340 Co 0.9297 0.13901 0.08441 0.0
Co341 Co 0.86922 0.20394 0.0732 0.0
C342 C 0.98625 0.2405 0.05452 0.0
O343 O 0.98717 0.20207 0.06649 0.0
O344 O 0.94353 0.24624 0.0551 0.0
C345 C 0.01015 0.1102 0.10192 0.0
O346 O 0.04125 0.16163 0.10936 0.0
C347 C 0.85713 0.29917 0.08568 0.0
C348 C 0.77748 0.27895 0.06861 0.0
C349 C 0.81999 0.31858 0.08292 0.0
N350 N 0.83727 0.25081 0.07366 0.0
N351 N 0.78984 0.23909 0.06334 0.0
C352 C 0.9084 0.32299 0.101 0.0
H353 H 0.9206 0.29138 0.10466 0.0
H354 H 0.90178 0.33889 0.11847 0.0
H355 H 0.94302 0.35776 0.09105 0.0
C356 C 0.88807 0.13434 0.13361 0.0
N357 N 0.90077 0.15743 0.11128 0.0
N358 N 0.87054 0.18044 0.10646 0.0
C359 C 0.83625 0.17116 0.12561 0.0
C360 C 0.84665 0.14214 0.14359 0.0
C361 C 0.907 0.09604 0.143 0.0
H362 H 0.89235 0.05993 0.13058 0.0
H363 H 0.95294 0.11814 0.14329 0.0
H364 H 0.89121 0.08078 0.16159 0.0
O365 O 0.86683 0.09114 0.06293 0.0
O366 O 0.82158 0.13579 0.05375 0.0
H367 H 0.76761 0.17009 0.10752 0.0
H368 H 0.7595 0.16094 0.14026 0.0
C369 C 0.78934 0.18281 0.12529 0.0
H370 H 0.80617 0.22809 0.12744 0.0
H371 H 0.76533 0.20332 0.05315 0.0
O372 O 0.96266 0.09405 0.09281 0.0
C373 C 0.82734 0.0932 0.05226 0.0
Co374 Co 0.79572 0.94021 0.25078 0.0
Co375 Co 0.67207 0.86954 0.23804 0.0
C376 C 0.74818 0.99338 0.22336 0.0
O377 O 0.78607 0.99988 0.23804 0.0
O378 O 0.70414 0.94593 0.22132 0.0
C379 C 0.90663 0.0158 0.27029 0.0
O380 O 0.88846 0.04634 0.28053 0.0
C381 C 0.56416 0.85518 0.25068 0.0
C382 C 0.50515 0.77655 0.23266 0.0
C383 C 0.50768 0.81809 0.24759 0.0
N384 N 0.59299 0.83635 0.23821 0.0
N385 N 0.55751 0.78947 0.22735 0.0
C386 C 0.59122 0.90543 0.26669 0.0
H387 H 0.63483 0.91726 0.27053 0.0
H388 H 0.56808 0.89767 0.28405 0.0
H389 H 0.5916 0.94081 0.2572 0.0
C390 C 0.75873 0.88618 0.2986 0.0
N391 N 0.74831 0.90012 0.27654 0.0
N392 N 0.69589 0.86736 0.27097 0.0
C393 C 0.6714 0.83036 0.28929 0.0
C394 C 0.71029 0.8414 0.30758 0.0
C395 C 0.81586 0.90903 0.30885 0.0
H396 H 0.84141 0.90029 0.29609 0.0
H397 H 0.83538 0.9547 0.31074 0.0
H398 H 0.81553 0.89084 0.32685 0.0
O399 O 0.78518 0.8883 0.22407 0.0
O400 O 0.69647 0.82724 0.21702 0.0
H401 H 0.60612 0.76203 0.26997 0.0
H402 H 0.60607 0.75111 0.30257 0.0
C403 C 0.61364 0.78199 0.28813 0.0
H404 H 0.58388 0.7971 0.29053 0.0
H405 H 0.56901 0.76574 0.21675 0.0
O406 O 0.8737 0.9717 0.25897 0.0
C407 C 0.74787 0.84609 0.21279 0.0
C408 C 0.99476 0.03355 0.46487 0.0
C409 C 0.03697 0.05668 0.4472 0.0
H410 H 0.91504 0.9647 0.47439 0.0
C411 C 0.02694 0.0327 0.42393 0.0
H412 H 0.00123 0.05142 0.48292 0.0
C413 C 0.97823 0.98331 0.41923 0.0
C414 C 0.93835 0.95746 0.43756 0.0
H415 H 0.05821 0.05 0.40978 0.0
H416 H 0.9731 0.96369 0.40163 0.0
C417 C 0.94544 0.98412 0.46002 0.0
C418 C 0.95758 0.96383 0.57278 0.0
C419 C 0.97684 0.94144 0.5907 0.0
H420 H 0.94645 0.03219 0.56262 0.0
C421 C 0.99096 0.96636 0.61378 0.0
H422 H 0.94602 0.94523 0.55487 0.0
C423 C 0.99159 0.0159 0.61803 0.0
C424 C 0.97733 0.04098 0.59944 0.0
H425 H 0.00511 0.94969 0.62811 0.0
H426 H 0.00619 0.03622 0.63549 0.0
C427 C 0.95762 0.0134 0.57718 0.0
C428 C 0.97398 0.99075 0.78552 0.0
C429 C 0.93459 0.97518 0.76687 0.0
H430 H 0.05433 0.00656 0.7958 0.0
C431 C 0.94302 0.95524 0.74479 0.0
H432 H 0.96783 0.00555 0.80285 0.0
C433 C 0.9931 0.95632 0.7406 0.0
C434 C 0.03478 0.97703 0.75853 0.0
H435 H 0.91304 0.94306 0.73019 0.0
H436 H 1.00053 0.94454 0.7228 0.0
C437 C 0.02349 0.99132 0.78146 0.0
C438 C 0.98459 0.94663 0.91232 0.0
C439 C 0.95713 0.94012 0.93449 0.0
H440 H 0.05401 0.00127 0.89017 0.0
C441 C 0.98343 0.97868 0.95324 0.0
H442 H 0.96473 0.91708 0.89767 0.0
C443 C 0.03428 0.02611 0.94917 0.0
C444 C 0.05909 0.03619 0.92608 0.0
H445 H 0.96303 0.97377 0.97062 0.0
H446 H 0.05194 0.05675 0.96356 0.0
C447 C 0.03548 0.99475 0.90807 0.0
C448 C 0.01884 0.98361 0.08884 0.0
C449 C 0.03186 0.97185 0.11194 0.0
H450 H 0.00211 0.0379 0.0677 0.0
C451 C 0.04932 0.01236 0.13037 0.0
H452 H 0.0062 0.9537 0.07415 0.0
C453 C 0.04759 0.06116 0.12649 0.0
C454 C 0.02815 0.06932 0.10425 0.0
H455 H 0.06004 0.00454 0.1483 0.0
H456 H 0.05666 0.08986 0.14144 0.0
C457 C 0.01654 0.03177 0.08511 0.0
C458 C 0.03666 0.01247 0.25816 0.0
C459 C 0.06106 0.02411 0.28133 0.0
H460 H 0.96824 0.00146 0.23657 0.0
C461 C 0.03975 0.04362 0.29967 0.0
H462 H 0.05262 0.99826 0.24354 0.0
C463 C 0.99141 0.04597 0.29553 0.0
C464 C 0.96408 0.02853 0.27311 0.0
H465 H 0.05806 0.05336 0.31766 0.0
H466 H 0.97317 0.057 0.31038 0.0
C467 C 0.98841 0.01435 0.25415 0.0
C468 C 0.5908 0.45435 0.43249 0.0
C469 C 0.63878 0.4522 0.42653 0.0
H470 H 0.51003 0.41312 0.44827 0.0
C471 C 0.63937 0.40279 0.43123 0.0
H472 H 0.58761 0.49063 0.42852 0.0
C473 C 0.59344 0.357 0.44172 0.0
C474 C 0.54545 0.35917 0.44763 0.0
H475 H 0.67553 0.39947 0.42689 0.0
H476 H 0.59532 0.31955 0.4449 0.0
C477 C 0.54515 0.4088 0.44324 0.0
C478 C 0.13486 0.54442 0.60547 0.0
C479 C 0.18505 0.54667 0.61136 0.0
H480 H 0.09511 0.58559 0.58989 0.0
C481 C 0.23494 0.59631 0.60683 0.0
H482 H 0.09544 0.50798 0.60933 0.0
C483 C 0.23464 0.6422 0.59655 0.0
C484 C 0.1844 0.63989 0.59067 0.0
H485 H 0.27448 0.59973 0.61114 0.0
H486 H 0.27389 0.67981 0.5935 0.0
C487 C 0.13459 0.59004 0.5949 0.0
C488 C 0.54505 0.13376 0.76238 0.0
C489 C 0.54491 0.1834 0.75781 0.0
H490 H 0.58838 0.0953 0.77696 0.0
C491 C 0.593 0.23399 0.76327 0.0
H492 H 0.5099 0.09399 0.7577 0.0
C493 C 0.6395 0.23482 0.77343 0.0
C494 C 0.63938 0.18511 0.77826 0.0
H495 H 0.59458 0.27313 0.75996 0.0
H496 H 0.67574 0.2746 0.7774 0.0
C497 C 0.59124 0.13457 0.77283 0.0
C498 C 0.40247 0.58398 0.90911 0.0
C499 C 0.36128 0.5428 0.92386 0.0
H500 H 0.47965 0.66092 0.90789 0.0
C501 C 0.36617 0.54852 0.94928 0.0
H502 H 0.3993 0.5806 0.88946 0.0
C503 C 0.41157 0.59463 0.95978 0.0
C504 C 0.45347 0.63516 0.94506 0.0
H505 H 0.33436 0.51787 0.96103 0.0
H506 H 0.41421 0.59837 0.97943 0.0
C507 C 0.44856 0.62952 0.91963 0.0
C508 C 0.77131 0.36794 0.09806 0.0
C509 C 0.82126 0.3683 0.09372 0.0
H510 H 0.73228 0.41278 0.11081 0.0
C511 C 0.87142 0.41659 0.09938 0.0
H512 H 0.73179 0.33154 0.09393 0.0
C513 C 0.87162 0.46275 0.10956 0.0
C514 C 0.82177 0.46272 0.11355 0.0
H515 H 0.91087 0.41964 0.09562 0.0
H516 H 0.91108 0.49806 0.11445 0.0
C517 C 0.77155 0.41445 0.10791 0.0
C518 C 0.36318 0.76814 0.27276 0.0
C519 C 0.36498 0.81809 0.27888 0.0
H520 H 0.40649 0.72912 0.25817 0.0
C521 C 0.4147 0.86827 0.27503 0.0
H522 H 0.32568 0.72862 0.27551 0.0
C523 C 0.46074 0.86863 0.26464 0.0
C524 C 0.45903 0.81871 0.25855 0.0
H525 H 0.41875 0.90755 0.28023 0.0
H526 H 0.49712 0.90832 0.26108 0.0
C527 C 0.40949 0.76845 0.26265 0.0
C528 C 0.28638 0.01961 0.35774 0.0
C529 C 0.27589 0.03324 0.33442 0.0
H530 H 0.3017 0.0431 0.39553 0.0
C531 C 0.28249 0.08643 0.33088 0.0
H532 H 0.28112 0.97894 0.36124 0.0
C533 C 0.294 0.12279 0.35046 0.0
C534 C 0.29966 0.10722 0.37406 0.0
H535 H 0.27485 0.09853 0.3132 0.0
H536 H 0.29485 0.1617 0.34743 0.0
C537 C 0.29802 0.05628 0.37742 0.0
C538 C 0.26957 0.28814 0.52382 0.0
C539 C 0.24321 0.27578 0.50094 0.0
H540 H 0.26426 0.30436 0.56176 0.0
C541 C 0.19505 0.27998 0.49834 0.0
H542 H 0.30634 0.28491 0.52662 0.0
C543 C 0.17095 0.29064 0.51847 0.0
C544 C 0.19476 0.29827 0.54162 0.0
H545 H 0.17349 0.27089 0.48108 0.0
H546 H 0.13168 0.28935 0.51624 0.0
C547 C 0.24546 0.29918 0.54399 0.0
C548 C 0.94767 0.24565 0.7109 0.0
C549 C 0.89838 0.19437 0.70845 0.0
H550 H 0.02308 0.30705 0.69382 0.0
C551 C 0.88325 0.17009 0.68532 0.0
H552 H 0.96049 0.26488 0.72865 0.0
C553 C 0.91865 0.19423 0.66537 0.0
C554 C 0.97055 0.24298 0.66812 0.0
H555 H 0.84564 0.13043 0.683 0.0
H556 H 0.90708 0.1723 0.64816 0.0
C557 C 0.98342 0.26985 0.6909 0.0
C558 C 0.71168 0.98328 0.8573 0.0
C559 C 0.72404 0.96969 0.83431 0.0
H560 H 0.69475 0.96054 0.89509 0.0
C561 C 0.7183 0.91671 0.83125 0.0
H562 H 0.71619 0.02377 0.86046 0.0
C563 C 0.70621 0.88081 0.85109 0.0
C564 C 0.69885 0.89656 0.8744 0.0
H565 H 0.72742 0.90464 0.81388 0.0
H566 H 0.7066 0.84238 0.84854 0.0
C567 C 0.69944 0.9471 0.87718 0.0
C568 C 0.73919 0.71949 0.0237 0.0
C569 C 0.76332 0.7348 1.00042 0.0
H570 H 0.74894 0.70015 0.06067 0.0
C571 C 0.81181 0.73235 0.99577 0.0
H572 H 0.70239 0.72167 0.02803 0.0
C573 C 0.83819 0.71992 1.01438 0.0
C574 C 0.81695 0.70976 0.03814 0.0
H575 H 0.83161 0.74395 0.97808 0.0
H576 H 0.87741 0.7221 1.01058 0.0
C577 C 0.76595 0.70733 0.04243 0.0
C578 C 0.09452 0.81278 0.16166 0.0
C579 C 0.04131 0.7663 0.1653 0.0
H580 H 0.17002 0.87553 0.17808 0.0
C581 C 0.02793 0.74213 0.18864 0.0
H582 H 0.1065 0.8326 0.14399 0.0
C583 C 0.06485 0.76696 0.20821 0.0
C584 C 0.11584 0.81615 0.20478 0.0
H585 H 0.98729 0.70678 0.19222 0.0
H586 H 0.05187 0.75004 0.22634 0.0
C587 C 0.13113 0.83751 0.18117 0.0
C588 C 0.91351 0.71946 0.53903 0.0
C589 C 0.96579 0.7233 0.53682 0.0
H590 H 0.84144 0.71033 0.52063 0.0
C591 C 0.98029 0.71054 0.51414 0.0
H592 H 0.90067 0.72887 0.55615 0.0
C593 C 0.94572 0.69943 0.49376 0.0
C594 C 0.89603 0.70066 0.49574 0.0
H595 H 0.02024 0.71348 0.51163 0.0
H596 H 0.95975 0.69397 0.47613 0.0
C597 C 0.87933 0.70872 0.5187 0.0
C598 C 0.16643 0.87491 0.68846 0.0
C599 C 0.18757 0.88999 0.66481 0.0
H600 H 0.17199 0.89977 0.72565 0.0
C601 C 0.23705 0.94068 0.6613 0.0
H602 H 0.12827 0.83619 0.69161 0.0
C603 C 0.2624 0.97758 0.68086 0.0
C604 C 0.23846 0.96446 0.70424 0.0
H605 H 0.25387 0.95348 0.64315 0.0
H606 H 0.29801 0.01805 0.67723 0.0
C607 C 0.19163 0.91151 0.70794 0.0
C608 C 0.28558 0.26164 0.84777 0.0
C609 C 0.27571 0.23873 0.87134 0.0
H610 H 0.30048 0.25184 0.81012 0.0
C611 C 0.283 0.19273 0.87541 0.0
H612 H 0.27983 0.29659 0.84387 0.0
C613 C 0.29453 0.16717 0.85611 0.0
C614 C 0.29964 0.1872 0.83231 0.0
H615 H 0.27587 0.1739 0.89328 0.0
H616 H 0.29585 0.1295 0.85956 0.0
C617 C 0.29729 0.23596 0.82841 0.0
C618 C 0.08434 0.27645 0.0412 0.0
C619 C 0.03218 0.27135 0.03677 0.0
H620 H 0.16109 0.28978 0.02603 0.0
C621 C 0.02155 0.28473 1.01343 0.0
H622 H 0.09391 0.26633 0.05892 0.0
C623 C 0.06013 0.29766 0.99446 0.0
C624 C 0.11027 0.29821 0.99859 0.0
H625 H 0.98158 0.28043 1.00928 0.0
H626 H 0.04895 0.30311 0.97621 0.0
C627 C 0.12291 0.28987 0.02237 0.0
C628 C 0.81075 0.09026 0.20812 0.0
C629 C 0.76271 0.03798 0.20485 0.0
H630 H 0.87473 0.16431 0.19116 0.0
C631 C 0.73696 0.02556 0.18183 0.0
H632 H 0.83183 0.10149 0.22552 0.0
C633 C 0.76171 0.06212 0.16213 0.0
C634 C 0.81238 0.11182 0.16511 0.0
H635 H 0.70035 0.98565 0.1785 0.0
H636 H 0.74351 0.04958 0.14419 0.0
C637 C 0.83545 0.12649 0.18846 0.0
C638 C 0.72595 0.80544 0.37215 0.0
C639 C 0.72944 0.75697 0.36897 0.0
H640 H 0.71685 0.86985 0.35511 0.0
C641 C 0.71605 0.73111 0.34597 0.0
H642 H 0.73588 0.82659 0.38956 0.0
C643 C 0.70486 0.75613 0.32618 0.0
C644 C 0.70658 0.8072 0.32909 0.0
H645 H 0.71886 0.69419 0.34272 0.0
H646 H 0.69904 0.73777 0.30826 0.0
C647 C 0.715 0.83036 0.35243 0.0
C648 C 0.25924 0.02188 0.51152 0.0
C649 C 0.22867 0.04743 0.50461 0.0
H650 H 0.25928 0.95555 0.53177 0.0
C651 C 0.17457 0.02603 0.5136 0.0
H652 H 0.301 0.03744 0.50478 0.0
C653 C 0.15123 0.98022 0.52892 0.0
C654 C 0.18094 0.95376 0.53566 0.0
H655 H 0.14988 0.04481 0.50884 0.0
H656 H 0.10926 0.96522 0.53528 0.0
C657 C 0.2353 0.97494 0.5268 0.0
C658 C 0.24692 0.26256 0.6773 0.0
C659 C 0.18974 0.2436 0.67709 0.0
H660 H 0.31197 0.25026 0.69157 0.0
C661 C 0.15482 0.20104 0.69302 0.0
H662 H 0.2745 0.29509 0.66495 0.0
C663 C 0.17575 0.17577 0.70805 0.0
C664 C 0.23232 0.19185 0.70741 0.0
H665 H 0.11059 0.18587 0.69325 0.0
H666 H 0.14681 0.14213 0.71961 0.0
C667 C 0.26814 0.23663 0.69236 0.0
C668 C 0.95667 0.15149 0.85827 0.0
C669 C 0.94637 0.1868 0.84377 0.0
H670 H 0.00994 0.14355 0.88354 0.0
C671 C 0.98247 0.24444 0.84521 0.0
H672 H 0.9293 0.10688 0.85762 0.0
C673 C 0.02999 0.26597 0.86004 0.0
C674 C 0.04146 0.23001 0.87371 0.0
H675 H 0.97552 0.27242 0.83401 0.0
H676 H 0.05837 0.31035 0.86026 0.0
C677 C 0.00325 0.1727 0.87309 0.0
C678 C 0.77865 0.05199 1.01305 0.0
C679 C 0.78942 0.04504 0.03735 0.0
H680 H 0.75114 0.01284 0.97813 0.0
C681 C 0.77142 0.99129 0.04623 0.0
H682 H 0.79285 0.09314 1.00578 0.0
C683 C 0.74637 0.94553 0.03068 0.0
C684 C 0.73996 0.95305 1.00595 0.0
H685 H 0.77956 0.98508 0.06491 0.0
H686 H 0.73619 0.90499 0.03754 0.0
C687 C 0.75482 0.00623 0.99731 0.0
C688 C 0.76958 0.74212 0.17655 0.0
C689 C 0.81835 0.77829 0.16371 0.0
H690 H 0.70762 0.73522 0.20212 0.0
C691 C 0.83931 0.83582 0.1655 0.0
H692 H 0.75214 0.69758 0.17541 0.0
C693 C 0.8142 0.85686 0.18059 0.0
C694 C 0.76702 0.8212 0.1942 0.0
H695 H 0.87632 0.86518 0.15575 0.0
H696 H 0.83272 0.90154 0.18207 0.0
C697 C 0.74383 0.76351 0.19164 0.0
C698 C 0.98769 0.7365 0.36118 0.0
C699 C 0.94682 0.75191 0.35977 0.0
H700 H 0.06726 0.75213 0.34829 0.0
C701 C 0.95191 0.79078 0.34229 0.0
H702 H 0.98475 0.707 0.3748 0.0
C703 C 0.99831 0.8163 0.32734 0.0
C704 C 0.04144 0.80418 0.32965 0.0
H705 H 0.92084 0.80324 0.34088 0.0
H706 H 0.00114 0.84726 0.31455 0.0
C707 C 0.03493 0.76261 0.34618 0.0
loop_
_geom_bond_atom_site_label_1
_geom_bond_atom_site_label_2
_geom_bond_distance
_geom_bond_site_symmetry_2
_ccdc_geom_bond_type
Co0 O3 1.970 . S
Co0 N17 1.989 . S
Co0 O25 1.967 . S
Co0 O32 1.920 . S
Co1 O4 1.966 . S
Co1 N10 2.022 . S
Co1 N18 1.993 . S
Co1 O26 1.941 . S
C2 O3 1.258 . S
C2 O4 1.263 . S
O3 Co0 1.970 . S
O3 C2 1.258 . S
O4 Co1 1.966 . S
O4 C2 1.263 . S
C5 O6 1.235 . S
C5 O32 1.289 . S
O6 C5 1.235 . S
C7 C9 1.400 . S
C7 N10 1.351 . S
C7 C12 1.501 . S
C8 C9 1.387 . S
C8 N11 1.341 . S
C9 C7 1.400 . S
C9 C8 1.387 . S
N10 Co1 2.022 . S
N10 C7 1.351 . S
N10 N11 1.365 . S
N11 C8 1.341 . S
N11 N10 1.365 . S
N11 H31 0.862 . S
C12 C7 1.501 . S
C12 H13 0.961 . S
C12 H14 0.961 . S
C12 H15 0.960 . S
H13 C12 0.961 . S
H14 C12 0.961 . S
H15 C12 0.960 . S
C16 N17 1.342 . S
C16 C20 1.401 . S
C16 C21 1.499 . S
N17 Co0 1.989 . S
N17 C16 1.342 . S
N17 N18 1.388 . S
N18 Co1 1.993 . S
N18 N17 1.388 . S
N18 C19 1.346 . S
C19 N18 1.346 . S
C19 C20 1.396 . S
C19 C29 1.510 . S
C20 C16 1.401 . S
C20 C19 1.396 . S
C21 C16 1.499 . S
C21 H22 0.959 . S
C21 H23 0.960 . S
C21 H24 0.961 . S
H22 C21 0.959 . S
H23 C21 0.960 . S
H24 C21 0.961 . S
O25 Co0 1.967 . S
O25 C33 1.258 . S
O26 Co1 1.941 . S
O26 C33 1.266 . S
H27 C29 0.959 . S
H28 C29 0.961 . S
C29 C19 1.510 . S
C29 H27 0.959 . S
C29 H28 0.961 . S
C29 H30 0.960 . S
H30 C29 0.960 . S
H31 N11 0.862 . S
O32 Co0 1.920 . S
O32 C5 1.289 . S
C33 O25 1.258 . S
C33 O26 1.266 . S
Co34 O37 1.970 . S
Co34 N51 1.989 . S
Co34 O59 1.967 . S
Co34 O66 1.920 . S
Co35 O38 1.966 . S
Co35 N44 2.022 . S
Co35 N52 1.993 . S
Co35 O60 1.941 . S
C36 O37 1.258 . S
C36 O38 1.263 . S
O37 Co34 1.970 . S
O37 C36 1.258 . S
O38 Co35 1.966 . S
O38 C36 1.263 . S
C39 O40 1.235 . S
C39 O66 1.289 . S
O40 C39 1.235 . S
C41 C43 1.400 . S
C41 N44 1.351 . S
C41 C46 1.501 . S
C42 C43 1.387 . S
C42 N45 1.341 . S
C43 C41 1.400 . S
C43 C42 1.387 . S
N44 Co35 2.022 . S
N44 C41 1.351 . S
N44 N45 1.365 . S
N45 C42 1.341 . S
N45 N44 1.365 . S
N45 H65 0.862 . S
C46 C41 1.501 . S
C46 H47 0.961 . S
C46 H48 0.961 . S
C46 H49 0.960 . S
H47 C46 0.961 . S
H48 C46 0.961 . S
H49 C46 0.960 . S
C50 N51 1.342 . S
C50 C54 1.401 . S
C50 C55 1.499 . S
N51 Co34 1.989 . S
N51 C50 1.342 . S
N51 N52 1.388 . S
N52 Co35 1.993 . S
N52 N51 1.388 . S
N52 C53 1.346 . S
C53 N52 1.346 . S
C53 C54 1.396 . S
C53 C63 1.510 . S
C54 C50 1.401 . S
C54 C53 1.396 . S
C55 C50 1.499 . S
C55 H56 0.959 . S
C55 H57 0.960 . S
C55 H58 0.961 . S
H56 C55 0.959 . S
H57 C55 0.960 . S
H58 C55 0.961 . S
O59 Co34 1.967 . S
O59 C67 1.258 . S
O60 Co35 1.941 . S
O60 C67 1.266 . S
H61 C63 0.959 . S
H62 C63 0.961 . S
C63 C53 1.510 . S
C63 H61 0.959 . S
C63 H62 0.961 . S
C63 H64 0.960 . S
H64 C63 0.960 . S
H65 N45 0.862 . S
O66 Co34 1.920 . S
O66 C39 1.289 . S
C67 O59 1.258 . S
C67 O60 1.266 . S
Co68 O71 1.970 . S
Co68 N85 1.989 . S
Co68 O93 1.967 . S
Co68 O100 1.920 . S
Co69 O72 1.966 . S
Co69 N78 2.022 . S
Co69 N86 1.993 . S
Co69 O94 1.941 . S
C70 O71 1.258 . S
C70 O72 1.263 . S
O71 Co68 1.970 . S
O71 C70 1.258 . S
O72 Co69 1.966 . S
O72 C70 1.263 . S
C73 O74 1.235 . S
C73 O100 1.289 . S
O74 C73 1.235 . S
C75 C77 1.400 . S
C75 N78 1.351 . S
C75 C80 1.501 . S
C76 C77 1.387 . S
C76 N79 1.341 . S
C77 C75 1.400 . S
C77 C76 1.387 . S
N78 Co69 2.022 . S
N78 C75 1.351 . S
N78 N79 1.365 . S
N79 C76 1.341 . S
N79 N78 1.365 . S
N79 H99 0.862 . S
C80 C75 1.501 . S
C80 H81 0.961 . S
C80 H82 0.961 . S
C80 H83 0.960 . S
H81 C80 0.961 . S
H82 C80 0.961 . S
H83 C80 0.960 . S
C84 N85 1.342 . S
C84 C88 1.401 . S
C84 C89 1.499 . S
N85 Co68 1.989 . S
N85 C84 1.342 . S
N85 N86 1.388 . S
N86 Co69 1.993 . S
N86 N85 1.388 . S
N86 C87 1.346 . S
C87 N86 1.346 . S
C87 C88 1.396 . S
C87 C97 1.510 . S
C88 C84 1.401 . S
C88 C87 1.396 . S
C89 C84 1.499 . S
C89 H90 0.959 . S
C89 H91 0.960 . S
C89 H92 0.961 . S
H90 C89 0.959 . S
H91 C89 0.960 . S
H92 C89 0.961 . S
O93 Co68 1.967 . S
O93 C101 1.258 . S
O94 Co69 1.941 . S
O94 C101 1.266 . S
H95 C97 0.959 . S
H96 C97 0.961 . S
C97 C87 1.510 . S
C97 H95 0.959 . S
C97 H96 0.961 . S
C97 H98 0.960 . S
H98 C97 0.960 . S
H99 N79 0.862 . S
O100 Co68 1.920 . S
O100 C73 1.289 . S
C101 O93 1.258 . S
C101 O94 1.266 . S
Co102 O105 1.970 . S
Co102 N119 1.989 . S
Co102 O127 1.967 . S
Co102 O134 1.920 . S
Co103 O106 1.966 . S
Co103 N112 2.022 . S
Co103 N120 1.993 . S
Co103 O128 1.941 . S
C104 O105 1.258 . S
C104 O106 1.263 . S
O105 Co102 1.970 . S
O105 C104 1.258 . S
O106 Co103 1.966 . S
O106 C104 1.263 . S
C107 O108 1.235 . S
C107 O134 1.289 . S
O108 C107 1.235 . S
C109 C111 1.400 . S
C109 N112 1.351 . S
C109 C114 1.501 . S
C110 C111 1.387 . S
C110 N113 1.341 . S
C111 C109 1.400 . S
C111 C110 1.387 . S
N112 Co103 2.022 . S
N112 C109 1.351 . S
N112 N113 1.365 . S
N113 C110 1.341 . S
N113 N112 1.365 . S
N113 H133 0.862 . S
C114 C109 1.501 . S
C114 H115 0.961 . S
C114 H116 0.961 . S
C114 H117 0.960 . S
H115 C114 0.961 . S
H116 C114 0.961 . S
H117 C114 0.960 . S
C118 N119 1.342 . S
C118 C122 1.401 . S
C118 C123 1.499 . S
N119 Co102 1.989 . S
N119 C118 1.342 . S
N119 N120 1.388 . S
N120 Co103 1.993 . S
N120 N119 1.388 . S
N120 C121 1.346 . S
C121 N120 1.346 . S
C121 C122 1.396 . S
C121 C131 1.510 . S
C122 C118 1.401 . S
C122 C121 1.396 . S
C123 C118 1.499 . S
C123 H124 0.959 . S
C123 H125 0.960 . S
C123 H126 0.961 . S
H124 C123 0.959 . S
H125 C123 0.960 . S
H126 C123 0.961 . S
O127 Co102 1.967 . S
O127 C135 1.258 . S
O128 Co103 1.941 . S
O128 C135 1.266 . S
H129 C131 0.959 . S
H130 C131 0.961 . S
C131 C121 1.510 . S
C131 H129 0.959 . S
C131 H130 0.961 . S
C131 H132 0.960 . S
H132 C131 0.960 . S
H133 N113 0.862 . S
O134 Co102 1.920 . S
O134 C107 1.289 . S
C135 O127 1.258 . S
C135 O128 1.266 . S
Co136 O139 1.970 . S
Co136 N153 1.989 . S
Co136 O161 1.967 . S
Co136 O168 1.920 . S
Co137 O140 1.966 . S
Co137 N146 2.022 . S
Co137 N154 1.993 . S
Co137 O162 1.941 . S
C138 O139 1.258 . S
C138 O140 1.263 . S
O139 Co136 1.970 . S
O139 C138 1.258 . S
O140 Co137 1.966 . S
O140 C138 1.263 . S
C141 O142 1.235 . S
C141 O168 1.289 . S
O142 C141 1.235 . S
C143 C145 1.400 . S
C143 N146 1.351 . S
C143 C148 1.501 . S
C144 C145 1.387 . S
C144 N147 1.341 . S
C145 C143 1.400 . S
C145 C144 1.387 . S
N146 Co137 2.022 . S
N146 C143 1.351 . S
N146 N147 1.365 . S
N147 C144 1.341 . S
N147 N146 1.365 . S
N147 H167 0.862 . S
C148 C143 1.501 . S
C148 H149 0.961 . S
C148 H150 0.961 . S
C148 H151 0.960 . S
H149 C148 0.961 . S
H150 C148 0.961 . S
H151 C148 0.960 . S
C152 N153 1.342 . S
C152 C156 1.401 . S
C152 C157 1.499 . S
N153 Co136 1.989 . S
N153 C152 1.342 . S
N153 N154 1.388 . S
N154 Co137 1.993 . S
N154 N153 1.388 . S
N154 C155 1.346 . S
C155 N154 1.346 . S
C155 C156 1.396 . S
C155 C165 1.510 . S
C156 C152 1.401 . S
C156 C155 1.396 . S
C157 C152 1.499 . S
C157 H158 0.959 . S
C157 H159 0.960 . S
C157 H160 0.961 . S
H158 C157 0.959 . S
H159 C157 0.960 . S
H160 C157 0.961 . S
O161 Co136 1.967 . S
O161 C169 1.258 . S
O162 Co137 1.941 . S
O162 C169 1.266 . S
H163 C165 0.959 . S
H164 C165 0.961 . S
C165 C155 1.510 . S
C165 H163 0.959 . S
C165 H164 0.961 . S
C165 H166 0.960 . S
H166 C165 0.960 . S
H167 N147 0.862 . S
O168 Co136 1.920 . S
O168 C141 1.289 . S
C169 O161 1.258 . S
C169 O162 1.266 . S
Co170 O173 1.970 . S
Co170 N187 1.989 . S
Co170 O195 1.967 . S
Co170 O202 1.920 . S
Co171 O174 1.966 . S
Co171 N180 2.022 . S
Co171 N188 1.993 . S
Co171 O196 1.941 . S
C172 O173 1.258 . S
C172 O174 1.263 . S
O173 Co170 1.970 . S
O173 C172 1.258 . S
O174 Co171 1.966 . S
O174 C172 1.263 . S
C175 O176 1.235 . S
C175 O202 1.289 . S
O176 C175 1.235 . S
C177 C179 1.400 . S
C177 N180 1.351 . S
C177 C182 1.501 . S
C178 C179 1.387 . S
C178 N181 1.341 . S
C179 C177 1.400 . S
C179 C178 1.387 . S
N180 Co171 2.022 . S
N180 C177 1.351 . S
N180 N181 1.365 . S
N181 C178 1.341 . S
N181 N180 1.365 . S
N181 H201 0.862 . S
C182 C177 1.501 . S
C182 H183 0.961 . S
C182 H184 0.961 . S
C182 H185 0.960 . S
H183 C182 0.961 . S
H184 C182 0.961 . S
H185 C182 0.960 . S
C186 N187 1.342 . S
C186 C190 1.401 . S
C186 C191 1.499 . S
N187 Co170 1.989 . S
N187 C186 1.342 . S
N187 N188 1.388 . S
N188 Co171 1.993 . S
N188 N187 1.388 . S
N188 C189 1.346 . S
C189 N188 1.346 . S
C189 C190 1.396 . S
C189 C199 1.510 . S
C190 C186 1.401 . S
C190 C189 1.396 . S
C191 C186 1.499 . S
C191 H192 0.959 . S
C191 H193 0.960 . S
C191 H194 0.961 . S
H192 C191 0.959 . S
H193 C191 0.960 . S
H194 C191 0.961 . S
O195 Co170 1.967 . S
O195 C203 1.258 . S
O196 Co171 1.941 . S
O196 C203 1.266 . S
H197 C199 0.959 . S
H198 C199 0.961 . S
C199 C189 1.510 . S
C199 H197 0.959 . S
C199 H198 0.961 . S
C199 H200 0.960 . S
H200 C199 0.960 . S
H201 N181 0.862 . S
O202 Co170 1.920 . S
O202 C175 1.289 . S
C203 O195 1.258 . S
C203 O196 1.266 . S
Co204 O207 1.970 . S
Co204 N221 1.989 . S
Co204 O229 1.967 . S
Co204 O236 1.920 . S
Co205 O208 1.966 . S
Co205 N214 2.022 . S
Co205 N222 1.993 . S
Co205 O230 1.941 . S
C206 O207 1.258 . S
C206 O208 1.263 . S
O207 Co204 1.970 . S
O207 C206 1.258 . S
O208 Co205 1.966 . S
O208 C206 1.263 . S
C209 O210 1.235 . S
C209 O236 1.289 . S
O210 C209 1.235 . S
C211 C213 1.400 . S
C211 N214 1.351 . S
C211 C216 1.501 . S
C212 C213 1.387 . S
C212 N215 1.341 . S
C213 C211 1.400 . S
C213 C212 1.387 . S
N214 Co205 2.022 . S
N214 C211 1.351 . S
N214 N215 1.365 . S
N215 C212 1.341 . S
N215 N214 1.365 . S
N215 H235 0.862 . S
C216 C211 1.501 . S
C216 H217 0.961 . S
C216 H218 0.961 . S
C216 H219 0.960 . S
H217 C216 0.961 . S
H218 C216 0.961 . S
H219 C216 0.960 . S
C220 N221 1.342 . S
C220 C224 1.401 . S
C220 C225 1.499 . S
N221 Co204 1.989 . S
N221 C220 1.342 . S
N221 N222 1.388 . S
N222 Co205 1.993 . S
N222 N221 1.388 . S
N222 C223 1.346 . S
C223 N222 1.346 . S
C223 C224 1.396 . S
C223 C233 1.510 . S
C224 C220 1.401 . S
C224 C223 1.396 . S
C225 C220 1.499 . S
C225 H226 0.959 . S
C225 H227 0.960 . S
C225 H228 0.961 . S
H226 C225 0.959 . S
H227 C225 0.960 . S
H228 C225 0.961 . S
O229 Co204 1.967 . S
O229 C237 1.258 . S
O230 Co205 1.941 . S
O230 C237 1.266 . S
H231 C233 0.959 . S
H232 C233 0.961 . S
C233 C223 1.510 . S
C233 H231 0.959 . S
C233 H232 0.961 . S
C233 H234 0.960 . S
H234 C233 0.960 . S
H235 N215 0.862 . S
O236 Co204 1.920 . S
O236 C209 1.289 . S
C237 O229 1.258 . S
C237 O230 1.266 . S
Co238 O241 1.970 . S
Co238 N255 1.989 . S
Co238 O263 1.967 . S
Co238 O270 1.920 . S
Co239 O242 1.966 . S
Co239 N248 2.022 . S
Co239 N256 1.993 . S
Co239 O264 1.941 . S
C240 O241 1.258 . S
C240 O242 1.263 . S
O241 Co238 1.970 . S
O241 C240 1.258 . S
O242 Co239 1.966 . S
O242 C240 1.263 . S
C243 O244 1.235 . S
C243 O270 1.289 . S
O244 C243 1.235 . S
C245 C247 1.400 . S
C245 N248 1.351 . S
C245 C250 1.501 . S
C246 C247 1.387 . S
C246 N249 1.341 . S
C247 C245 1.400 . S
C247 C246 1.387 . S
N248 Co239 2.022 . S
N248 C245 1.351 . S
N248 N249 1.365 . S
N249 C246 1.341 . S
N249 N248 1.365 . S
N249 H269 0.862 . S
C250 C245 1.501 . S
C250 H251 0.961 . S
C250 H252 0.961 . S
C250 H253 0.960 . S
H251 C250 0.961 . S
H252 C250 0.961 . S
H253 C250 0.960 . S
C254 N255 1.342 . S
C254 C258 1.401 . S
C254 C259 1.499 . S
N255 Co238 1.989 . S
N255 C254 1.342 . S
N255 N256 1.388 . S
N256 Co239 1.993 . S
N256 N255 1.388 . S
N256 C257 1.346 . S
C257 N256 1.346 . S
C257 C258 1.396 . S
C257 C267 1.510 . S
C258 C254 1.401 . S
C258 C257 1.396 . S
C259 C254 1.499 . S
C259 H260 0.959 . S
C259 H261 0.960 . S
C259 H262 0.961 . S
H260 C259 0.959 . S
H261 C259 0.960 . S
H262 C259 0.961 . S
O263 Co238 1.967 . S
O263 C271 1.258 . S
O264 Co239 1.941 . S
O264 C271 1.266 . S
H265 C267 0.959 . S
H266 C267 0.961 . S
C267 C257 1.510 . S
C267 H265 0.959 . S
C267 H266 0.961 . S
C267 H268 0.960 . S
H268 C267 0.960 . S
H269 N249 0.862 . S
O270 Co238 1.920 . S
O270 C243 1.289 . S
C271 O263 1.258 . S
C271 O264 1.266 . S
Co272 O275 1.970 . S
Co272 N289 1.989 . S
Co272 O297 1.967 . S
Co272 O304 1.920 . S
Co273 O276 1.966 . S
Co273 N282 2.022 . S
Co273 N290 1.993 . S
Co273 O298 1.941 . S
C274 O275 1.258 . S
C274 O276 1.263 . S
O275 Co272 1.970 . S
O275 C274 1.258 . S
O276 Co273 1.966 . S
O276 C274 1.263 . S
C277 O278 1.235 . S
C277 O304 1.289 . S
O278 C277 1.235 . S
C279 C281 1.400 . S
C279 N282 1.351 . S
C279 C284 1.501 . S
C280 C281 1.387 . S
C280 N283 1.341 . S
C281 C279 1.400 . S
C281 C280 1.387 . S
N282 Co273 2.022 . S
N282 C279 1.351 . S
N282 N283 1.365 . S
N283 C280 1.341 . S
N283 N282 1.365 . S
N283 H303 0.862 . S
C284 C279 1.501 . S
C284 H285 0.961 . S
C284 H286 0.961 . S
C284 H287 0.960 . S
H285 C284 0.961 . S
H286 C284 0.961 . S
H287 C284 0.960 . S
C288 N289 1.342 . S
C288 C292 1.401 . S
C288 C293 1.499 . S
N289 Co272 1.989 . S
N289 C288 1.342 . S
N289 N290 1.388 . S
N290 Co273 1.993 . S
N290 N289 1.388 . S
N290 C291 1.346 . S
C291 N290 1.346 . S
C291 C292 1.396 . S
C291 C301 1.510 . S
C292 C288 1.401 . S
C292 C291 1.396 . S
C293 C288 1.499 . S
C293 H294 0.959 . S
C293 H295 0.960 . S
C293 H296 0.961 . S
H294 C293 0.959 . S
H295 C293 0.960 . S
H296 C293 0.961 . S
O297 Co272 1.967 . S
O297 C305 1.258 . S
O298 Co273 1.941 . S
O298 C305 1.266 . S
H299 C301 0.959 . S
H300 C301 0.961 . S
C301 C291 1.510 . S
C301 H299 0.959 . S
C301 H300 0.961 . S
C301 H302 0.960 . S
H302 C301 0.960 . S
H303 N283 0.862 . S
O304 Co272 1.920 . S
O304 C277 1.289 . S
C305 O297 1.258 . S
C305 O298 1.266 . S
Co306 O309 1.970 . S
Co306 N323 1.989 . S
Co306 O331 1.967 . S
Co306 O338 1.920 . S
Co307 O310 1.966 . S
Co307 N316 2.022 . S
Co307 N324 1.993 . S
Co307 O332 1.941 . S
C308 O309 1.258 . S
C308 O310 1.263 . S
O309 Co306 1.970 . S
O309 C308 1.258 . S
O310 Co307 1.966 . S
O310 C308 1.263 . S
C311 O312 1.235 . S
C311 O338 1.289 . S
O312 C311 1.235 . S
C313 C315 1.400 . S
C313 N316 1.351 . S
C313 C318 1.501 . S
C314 C315 1.387 . S
C314 N317 1.341 . S
C315 C313 1.400 . S
C315 C314 1.387 . S
N316 Co307 2.022 . S
N316 C313 1.351 . S
N316 N317 1.365 . S
N317 C314 1.341 . S
N317 N316 1.365 . S
N317 H337 0.862 . S
C318 C313 1.501 . S
C318 H319 0.961 . S
C318 H320 0.961 . S
C318 H321 0.960 . S
H319 C318 0.961 . S
H320 C318 0.961 . S
H321 C318 0.960 . S
C322 N323 1.342 . S
C322 C326 1.401 . S
C322 C327 1.499 . S
N323 Co306 1.989 . S
N323 C322 1.342 . S
N323 N324 1.388 . S
N324 Co307 1.993 . S
N324 N323 1.388 . S
N324 C325 1.346 . S
C325 N324 1.346 . S
C325 C326 1.396 . S
C325 C335 1.510 . S
C326 C322 1.401 . S
C326 C325 1.396 . S
C327 C322 1.499 . S
C327 H328 0.959 . S
C327 H329 0.960 . S
C327 H330 0.961 . S
H328 C327 0.959 . S
H329 C327 0.960 . S
H330 C327 0.961 . S
O331 Co306 1.967 . S
O331 C339 1.258 . S
O332 Co307 1.941 . S
O332 C339 1.266 . S
H333 C335 0.959 . S
H334 C335 0.961 . S
C335 C325 1.510 . S
C335 H333 0.959 . S
C335 H334 0.961 . S
C335 H336 0.960 . S
H336 C335 0.960 . S
H337 N317 0.862 . S
O338 Co306 1.920 . S
O338 C311 1.289 . S
C339 O331 1.258 . S
C339 O332 1.266 . S
Co340 O343 1.970 . S
Co340 N357 1.989 . S
Co340 O365 1.967 . S
Co340 O372 1.920 . S
Co341 O344 1.966 . S
Co341 N350 2.022 . S
Co341 N358 1.993 . S
Co341 O366 1.941 . S
C342 O343 1.258 . S
C342 O344 1.263 . S
O343 Co340 1.970 . S
O343 C342 1.258 . S
O344 Co341 1.966 . S
O344 C342 1.263 . S
C345 O346 1.235 . S
C345 O372 1.289 . S
O346 C345 1.235 . S
C347 C349 1.400 . S
C347 N350 1.351 . S
C347 C352 1.501 . S
C348 C349 1.387 . S
C348 N351 1.341 . S
C349 C347 1.400 . S
C349 C348 1.387 . S
N350 Co341 2.022 . S
N350 C347 1.351 . S
N350 N351 1.365 . S
N351 C348 1.341 . S
N351 N350 1.365 . S
N351 H371 0.862 . S
C352 C347 1.501 . S
C352 H353 0.961 . S
C352 H354 0.961 . S
C352 H355 0.960 . S
H353 C352 0.961 . S
H354 C352 0.961 . S
H355 C352 0.960 . S
C356 N357 1.342 . S
C356 C360 1.401 . S
C356 C361 1.499 . S
N357 Co340 1.989 . S
N357 C356 1.342 . S
N357 N358 1.388 . S
N358 Co341 1.993 . S
N358 N357 1.388 . S
N358 C359 1.346 . S
C359 N358 1.346 . S
C359 C360 1.396 . S
C359 C369 1.510 . S
C360 C356 1.401 . S
C360 C359 1.396 . S
C361 C356 1.499 . S
C361 H362 0.959 . S
C361 H363 0.960 . S
C361 H364 0.961 . S
H362 C361 0.959 . S
H363 C361 0.960 . S
H364 C361 0.961 . S
O365 Co340 1.967 . S
O365 C373 1.258 . S
O366 Co341 1.941 . S
O366 C373 1.266 . S
H367 C369 0.959 . S
H368 C369 0.961 . S
C369 C359 1.510 . S
C369 H367 0.959 . S
C369 H368 0.961 . S
C369 H370 0.960 . S
H370 C369 0.960 . S
H371 N351 0.862 . S
O372 Co340 1.920 . S
O372 C345 1.289 . S
C373 O365 1.258 . S
C373 O366 1.266 . S
Co374 O377 1.970 . S
Co374 N391 1.989 . S
Co374 O399 1.967 . S
Co374 O406 1.920 . S
Co375 O378 1.966 . S
Co375 N384 2.022 . S
Co375 N392 1.993 . S
Co375 O400 1.941 . S
C376 O377 1.258 . S
C376 O378 1.263 . S
O377 Co374 1.970 . S
O377 C376 1.258 . S
O378 Co375 1.966 . S
O378 C376 1.263 . S
C379 O380 1.235 . S
C379 O406 1.289 . S
O380 C379 1.235 . S
C381 C383 1.400 . S
C381 N384 1.351 . S
C381 C386 1.501 . S
C382 C383 1.387 . S
C382 N385 1.341 . S
C383 C381 1.400 . S
C383 C382 1.387 . S
N384 Co375 2.022 . S
N384 C381 1.351 . S
N384 N385 1.365 . S
N385 C382 1.341 . S
N385 N384 1.365 . S
N385 H405 0.862 . S
C386 C381 1.501 . S
C386 H387 0.961 . S
C386 H388 0.961 . S
C386 H389 0.960 . S
H387 C386 0.961 . S
H388 C386 0.961 . S
H389 C386 0.960 . S
C390 N391 1.342 . S
C390 C394 1.401 . S
C390 C395 1.499 . S
N391 Co374 1.989 . S
N391 C390 1.342 . S
N391 N392 1.388 . S
N392 Co375 1.993 . S
N392 N391 1.388 . S
N392 C393 1.346 . S
C393 N392 1.346 . S
C393 C394 1.396 . S
C393 C403 1.510 . S
C394 C390 1.401 . S
C394 C393 1.396 . S
C395 C390 1.499 . S
C395 H396 0.959 . S
C395 H397 0.960 . S
C395 H398 0.961 . S
H396 C395 0.959 . S
H397 C395 0.960 . S
H398 C395 0.961 . S
O399 Co374 1.967 . S
O399 C407 1.258 . S
O400 Co375 1.941 . S
O400 C407 1.266 . S
H401 C403 0.959 . S
H402 C403 0.961 . S
C403 C393 1.510 . S
C403 H401 0.959 . S
C403 H402 0.961 . S
C403 H404 0.960 . S
H404 C403 0.960 . S
H405 N385 0.862 . S
O406 Co374 1.920 . S
O406 C379 1.289 . S
C407 O399 1.258 . S
C407 O400 1.266 . S
C408 C409 1.387 1_565 S
C408 H412 0.950 1_565 S
C408 C417 1.390 1_455 S
C409 C408 1.387 1_545 S
C409 C411 1.391 . S
H410 C417 0.950 . S
C411 C409 1.391 . S
C411 C413 1.382 1_545 S
C411 H415 0.954 . S
H412 C408 0.950 1_545 S
C413 C411 1.382 1_565 S
C413 C414 1.387 1_455 S
C413 H416 0.950 1_455 S
C414 C413 1.387 1_655 S
C414 C417 1.387 . S
H415 C411 0.954 . S
H416 C413 0.950 1_655 S
C417 C408 1.390 1_655 S
C417 H410 0.950 . S
C417 C414 1.387 . S
C418 C419 1.387 . S
C418 H422 0.950 1_455 S
C418 C427 1.390 1_565 S
C419 C418 1.387 . S
C419 C421 1.387 1_565 S
H420 C427 0.950 1_655 S
C421 C419 1.387 1_545 S
C421 C423 1.390 . S
C421 H425 0.950 . S
H422 C418 0.950 1_655 S
C423 C421 1.390 . S
C423 C424 1.387 . S
C423 H426 0.950 . S
C424 C423 1.387 . S
C424 C427 1.387 . S
H425 C421 0.950 . S
H426 C423 0.950 . S
C427 C418 1.390 1_545 S
C427 H420 0.950 1_455 S
C427 C424 1.387 . S
C428 C429 1.387 1_455 S
C428 H432 0.950 . S
C428 C437 1.390 . S
C429 C428 1.387 1_655 S
C429 C431 1.387 . S
H430 C437 0.950 . S
C431 C429 1.387 . S
C431 C433 1.390 1_655 S
C431 H435 0.950 1_545 S
H432 C428 0.950 . S
C433 C431 1.390 1_455 S
C433 C434 1.387 . S
C433 H436 0.950 1_545 S
C434 C433 1.387 . S
C434 C437 1.387 . S
H435 C431 0.950 1_565 S
H436 C433 0.950 1_565 S
C437 C428 1.390 . S
C437 H430 0.950 . S
C437 C434 1.387 . S
C438 C439 1.387 1_545 S
C438 H442 0.948 . S
C438 C447 1.390 . S
C439 C438 1.387 1_565 S
C439 C441 1.387 . S
H440 C447 0.950 . S
C441 C439 1.387 . S
C441 C443 1.390 1_665 S
C441 H445 0.950 . S
H442 C438 0.948 . S
C443 C441 1.390 1_445 S
C443 C444 1.387 . S
C443 H446 0.950 . S
C444 C443 1.387 . S
C444 C447 1.387 1_455 S
H445 C441 0.950 . S
H446 C443 0.950 . S
C447 C438 1.390 . S
C447 H440 0.950 . S
C447 C444 1.387 1_655 S
C448 C449 1.387 . S
C448 H452 0.950 . S
C448 C457 1.390 . S
C449 C448 1.387 . S
C449 C451 1.387 . S
H450 C457 0.950 . S
C451 C449 1.387 . S
C451 C453 1.390 1_565 S
C451 H455 0.950 1_655 S
H452 C448 0.950 . S
C453 C451 1.390 1_545 S
C453 C454 1.387 . S
C453 H456 0.950 1_655 S
C454 C453 1.387 . S
C454 C457 1.387 1_545 S
H455 C451 0.950 1_455 S
H456 C453 0.950 1_455 S
C457 C448 1.390 . S
C457 H450 0.950 . S
C457 C454 1.387 1_565 S
C458 C459 1.387 1_655 S
C458 H462 0.950 . S
C458 C467 1.390 . S
C459 C458 1.387 1_455 S
C459 C461 1.387 . S
H460 C467 0.950 . S
C461 C459 1.387 . S
C461 C463 1.390 1_455 S
C461 H465 0.950 1_565 S
H462 C458 0.950 . S
C463 C461 1.390 1_655 S
C463 C464 1.387 . S
C463 H466 0.950 1_565 S
C464 C463 1.387 . S
C464 C467 1.387 . S
H465 C461 0.950 1_545 S
H466 C463 0.950 1_545 S
C467 C458 1.390 . S
C467 H460 0.950 . S
C467 C464 1.387 . S
C468 C469 1.387 . S
C468 H472 0.950 . S
C468 C477 1.390 . S
C469 C468 1.387 . S
C469 C471 1.387 . S
H470 C477 0.950 . S
C471 C469 1.387 . S
C471 C473 1.390 . S
C471 H475 0.950 . S
H472 C468 0.950 . S
C473 C471 1.390 . S
C473 C474 1.387 . S
C473 H476 0.950 . S
C474 C473 1.387 . S
C474 C477 1.387 . S
H475 C471 0.950 . S
H476 C473 0.950 . S
C477 C468 1.390 . S
C477 H470 0.950 . S
C477 C474 1.387 . S
C478 C479 1.387 . S
C478 H482 0.950 . S
C478 C487 1.390 . S
C479 C478 1.387 . S
C479 C481 1.387 . S
H480 C487 0.950 . S
C481 C479 1.387 . S
C481 C483 1.390 . S
C481 H485 0.950 . S
H482 C478 0.950 . S
C483 C481 1.390 . S
C483 C484 1.387 . S
C483 H486 0.950 . S
C484 C483 1.387 . S
C484 C487 1.387 . S
H485 C481 0.950 . S
H486 C483 0.950 . S
C487 C478 1.390 . S
C487 H480 0.950 . S
C487 C484 1.387 . S
C488 C489 1.387 . S
C488 H492 0.950 . S
C488 C497 1.390 . S
C489 C488 1.387 . S
C489 C491 1.387 . S
H490 C497 0.950 . S
C491 C489 1.387 . S
C491 C493 1.390 . S
C491 H495 0.950 . S
H492 C488 0.950 . S
C493 C491 1.390 . S
C493 C494 1.387 . S
C493 H496 0.950 . S
C494 C493 1.387 . S
C494 C497 1.387 . S
H495 C491 0.950 . S
H496 C493 0.950 . S
C497 C488 1.390 . S
C497 H490 0.950 . S
C497 C494 1.387 . S
C498 C499 1.387 . S
C498 H502 0.950 . S
C498 C507 1.390 . S
C499 C498 1.387 . S
C499 C501 1.387 . S
H500 C507 0.950 . S
C501 C499 1.387 . S
C501 C503 1.390 . S
C501 H505 0.950 . S
H502 C498 0.950 . S
C503 C501 1.390 . S
C503 C504 1.387 . S
C503 H506 0.950 . S
C504 C503 1.387 . S
C504 C507 1.387 . S
H505 C501 0.950 . S
H506 C503 0.950 . S
C507 C498 1.390 . S
C507 H500 0.950 . S
C507 C504 1.387 . S
C508 C509 1.387 . S
C508 H512 0.950 . S
C508 C517 1.390 . S
C509 C508 1.387 . S
C509 C511 1.387 . S
H510 C517 0.950 . S
C511 C509 1.387 . S
C511 C513 1.390 . S
C511 H515 0.950 . S
H512 C508 0.950 . S
C513 C511 1.390 . S
C513 C514 1.387 . S
C513 H516 0.950 . S
C514 C513 1.387 . S
C514 C517 1.387 . S
H515 C511 0.950 . S
H516 C513 0.950 . S
C517 C508 1.390 . S
C517 H510 0.950 . S
C517 C514 1.387 . S
C518 C519 1.387 . S
C518 H522 0.950 . S
C518 C527 1.390 . S
C519 C518 1.387 . S
C519 C521 1.387 . S
H520 C527 0.950 . S
C521 C519 1.387 . S
C521 C523 1.390 . S
C521 H525 0.950 . S
H522 C518 0.950 . S
C523 C521 1.390 . S
C523 C524 1.387 . S
C523 H526 0.950 . S
C524 C523 1.387 . S
C524 C527 1.387 . S
H525 C521 0.950 . S
H526 C523 0.950 . S
C527 C518 1.390 . S
C527 H520 0.950 . S
C527 C524 1.387 . S
C528 C529 1.387 . S
C528 H532 0.950 1_545 S
C528 C537 1.390 . S
C529 C528 1.387 . S
C529 C531 1.387 . S
H530 C537 0.950 . S
C531 C529 1.387 . S
C531 C533 1.390 . S
C531 H535 0.950 . S
H532 C528 0.950 1_565 S
C533 C531 1.390 . S
C533 C534 1.387 . S
C533 H536 0.950 . S
C534 C533 1.387 . S
C534 C537 1.387 . S
H535 C531 0.950 . S
H536 C533 0.950 . S
C537 C528 1.390 . S
C537 H530 0.950 . S
C537 C534 1.387 . S
C538 C539 1.387 . S
C538 H542 0.950 . S
C538 C547 1.390 . S
C539 C538 1.387 . S
C539 C541 1.387 . S
H540 C547 0.950 . S
C541 C539 1.387 . S
C541 C543 1.390 . S
C541 H545 0.950 . S
H542 C538 0.950 . S
C543 C541 1.390 . S
C543 C544 1.387 . S
C543 H546 0.950 . S
C544 C543 1.387 . S
C544 C547 1.387 . S
H545 C541 0.950 . S
H546 C543 0.950 . S
C547 C538 1.390 . S
C547 H540 0.950 . S
C547 C544 1.387 . S
C548 C549 1.387 . S
C548 H552 0.950 . S
C548 C557 1.387 1_655 S
C549 C548 1.387 . S
C549 C551 1.387 . S
H550 C557 0.954 . S
C551 C549 1.387 . S
C551 C553 1.390 . S
C551 H555 0.950 . S
H552 C548 0.950 . S
C553 C551 1.390 . S
C553 C554 1.387 . S
C553 H556 0.950 . S
C554 C553 1.387 . S
C554 C557 1.386 1_655 S
H555 C551 0.950 . S
H556 C553 0.950 . S
C557 C548 1.387 1_455 S
C557 H550 0.954 . S
C557 C554 1.386 1_455 S
C558 C559 1.387 . S
C558 H562 0.950 1_565 S
C558 C567 1.390 . S
C559 C558 1.387 . S
C559 C561 1.387 . S
H560 C567 0.950 . S
C561 C559 1.387 . S
C561 C563 1.390 . S
C561 H565 0.950 . S
H562 C558 0.950 1_545 S
C563 C561 1.390 . S
C563 C564 1.387 . S
C563 H566 0.950 . S
C564 C563 1.387 . S
C564 C567 1.387 . S
H565 C561 0.950 . S
H566 C563 0.950 . S
C567 C558 1.390 . S
C567 H560 0.950 . S
C567 C564 1.387 . S
C568 C569 1.387 . S
C568 H572 0.950 . S
C568 C577 1.390 . S
C569 C568 1.387 . S
C569 C571 1.387 . S
H570 C577 0.950 . S
C571 C569 1.387 . S
C571 C573 1.390 1_556 S
C571 H575 0.950 . S
H572 C568 0.950 . S
C573 C571 1.390 1_554 S
C573 C574 1.387 . S
C573 H576 0.950 . S
C574 C573 1.387 . S
C574 C577 1.387 1_554 S
H575 C571 0.950 . S
H576 C573 0.950 . S
C577 C568 1.390 . S
C577 H570 0.950 . S
C577 C574 1.387 1_556 S
C578 C579 1.387 . S
C578 H582 0.950 . S
C578 C587 1.390 . S
C579 C578 1.387 . S
C579 C581 1.387 1_455 S
H580 C587 0.950 . S
C581 C579 1.387 1_655 S
C581 C583 1.390 1_655 S
C581 H585 0.950 . S
H582 C578 0.950 . S
C583 C581 1.390 1_455 S
C583 C584 1.387 . S
C583 H586 0.950 . S
C584 C583 1.387 . S
C584 C587 1.387 . S
H585 C581 0.950 . S
H586 C583 0.950 . S
C587 C578 1.390 . S
C587 H580 0.950 . S
C587 C584 1.387 . S
C588 C589 1.387 . S
C588 H592 0.950 . S
C588 C597 1.390 . S
C589 C588 1.387 . S
C589 C591 1.387 . S
H590 C597 0.950 . S
C591 C589 1.387 . S
C591 C593 1.390 . S
C591 H595 0.950 1_655 S
H592 C588 0.950 . S
C593 C591 1.390 . S
C593 C594 1.387 . S
C593 H596 0.950 . S
C594 C593 1.387 . S
C594 C597 1.387 . S
H595 C591 0.950 1_455 S
H596 C593 0.950 . S
C597 C588 1.390 . S
C597 H590 0.950 . S
C597 C594 1.387 . S
C598 C599 1.387 . S
C598 H602 0.950 . S
C598 C607 1.390 . S
C599 C598 1.387 . S
C599 C601 1.387 . S
H600 C607 0.950 . S
C601 C599 1.387 . S
C601 C603 1.390 . S
C601 H605 0.950 . S
H602 C598 0.950 . S
C603 C601 1.390 . S
C603 C604 1.387 . S
C603 H606 0.950 . S
C604 C603 1.387 . S
C604 C607 1.387 . S
H605 C601 0.950 . S
H606 C603 0.950 . S
C607 C598 1.390 . S
C607 H600 0.950 . S
C607 C604 1.387 . S
C608 C609 1.387 . S
C608 H612 0.950 . S
C608 C617 1.390 . S
C609 C608 1.387 . S
C609 C611 1.387 . S
H610 C617 0.950 . S
C611 C609 1.387 . S
C611 C613 1.390 . S
C611 H615 0.950 . S
H612 C608 0.950 . S
C613 C611 1.390 . S
C613 C614 1.387 . S
C613 H616 0.950 . S
C614 C613 1.387 . S
C614 C617 1.387 . S
H615 C611 0.950 . S
H616 C613 0.950 . S
C617 C608 1.390 . S
C617 H610 0.950 . S
C617 C614 1.387 . S
C618 C619 1.387 . S
C618 H622 0.950 1_455 S
C618 C627 1.390 1_554 S
C619 C618 1.387 . S
C619 C621 1.387 . S
H620 C627 0.950 . S
C621 C619 1.387 . S
C621 C623 1.390 . S
C621 H625 0.950 . S
H622 C618 0.950 1_655 S
C623 C621 1.390 . S
C623 C624 1.387 1_554 S
C623 H626 0.950 . S
C624 C623 1.387 1_556 S
C624 C627 1.387 . S
H625 C621 0.950 . S
H626 C623 0.950 . S
C627 C618 1.390 1_556 S
C627 H620 0.950 . S
C627 C624 1.387 . S
C628 C629 1.387 . S
C628 H632 0.950 . S
C628 C637 1.390 . S
C629 C628 1.387 . S
C629 C631 1.387 1_545 S
H630 C637 0.950 . S
C631 C629 1.387 1_565 S
C631 C633 1.390 1_565 S
C631 H635 0.950 . S
H632 C628 0.950 . S
C633 C631 1.390 1_545 S
C633 C634 1.387 . S
C633 H636 0.950 . S
C634 C633 1.387 . S
C634 C637 1.387 . S
H635 C631 0.950 . S
H636 C633 0.950 . S
C637 C628 1.390 . S
C637 H630 0.950 . S
C637 C634 1.387 . S
C638 C639 1.387 . S
C638 H642 0.950 . S
C638 C647 1.390 . S
C639 C638 1.387 . S
C639 C641 1.387 . S
H640 C647 0.950 . S
C641 C639 1.387 . S
C641 C643 1.390 . S
C641 H645 0.950 . S
H642 C638 0.950 . S
C643 C641 1.390 . S
C643 C644 1.387 . S
C643 H646 0.950 . S
C644 C643 1.387 . S
C644 C647 1.387 . S
H645 C641 0.950 . S
H646 C643 0.950 . S
C647 C638 1.390 . S
C647 H640 0.950 . S
C647 C644 1.387 . S
C648 C649 1.387 . S
C648 H652 0.950 . S
C648 C657 1.390 1_545 S
C649 C648 1.387 . S
C649 C651 1.387 . S
H650 C657 0.950 . S
C651 C649 1.387 . S
C651 C653 1.390 1_545 S
C651 H655 0.950 . S
H652 C648 0.950 . S
C653 C651 1.390 1_565 S
C653 C654 1.387 . S
C653 H656 0.950 . S
C654 C653 1.387 . S
C654 C657 1.387 . S
H655 C651 0.950 . S
H656 C653 0.950 . S
C657 C648 1.390 1_565 S
C657 H650 0.950 . S
C657 C654 1.387 . S
C658 C659 1.387 . S
C658 H662 0.950 . S
C658 C667 1.390 . S
C659 C658 1.387 . S
C659 C661 1.387 . S
H660 C667 0.950 . S
C661 C659 1.387 . S
C661 C663 1.390 . S
C661 H665 0.950 . S
H662 C658 0.950 . S
C663 C661 1.390 . S
C663 C664 1.387 . S
C663 H666 0.950 . S
C664 C663 1.387 . S
C664 C667 1.387 . S
H665 C661 0.950 . S
H666 C663 0.950 . S
C667 C658 1.390 . S
C667 H660 0.950 . S
C667 C664 1.387 . S
C668 C669 1.387 . S
C668 H672 0.950 . S
C668 C677 1.390 . S
C669 C668 1.387 . S
C669 C671 1.387 1_655 S
H670 C677 0.950 . S
C671 C669 1.387 1_455 S
C671 C673 1.390 . S
C671 H675 0.950 . S
H672 C668 0.950 . S
C673 C671 1.390 . S
C673 C674 1.387 . S
C673 H676 0.950 . S
C674 C673 1.387 . S
C674 C677 1.387 1_455 S
H675 C671 0.950 . S
H676 C673 0.950 . S
C677 C668 1.390 . S
C677 H670 0.950 . S
C677 C674 1.387 1_655 S
C678 C679 1.387 . S
C678 H682 0.950 . S
C678 C687 1.390 1_544 S
C679 C678 1.387 . S
C679 C681 1.387 . S
H680 C687 0.950 . S
C681 C679 1.387 . S
C681 C683 1.390 1_544 S
C681 H685 0.950 . S
H682 C678 0.950 . S
C683 C681 1.390 1_566 S
C683 C684 1.387 . S
C683 H686 0.950 . S
C684 C683 1.387 . S
C684 C687 1.387 . S
H685 C681 0.950 . S
H686 C683 0.950 . S
C687 C678 1.390 1_566 S
C687 H680 0.950 . S
C687 C684 1.387 . S
C688 C689 1.387 . S
C688 H692 0.950 . S
C688 C697 1.390 . S
C689 C688 1.387 . S
C689 C691 1.387 . S
H690 C697 0.950 . S
C691 C689 1.387 . S
C691 C693 1.390 . S
C691 H695 0.950 . S
H692 C688 0.950 . S
C693 C691 1.390 . S
C693 C694 1.387 . S
C693 H696 0.950 . S
C694 C693 1.387 . S
C694 C697 1.387 . S
H695 C691 0.950 . S
H696 C693 0.950 . S
C697 C688 1.390 . S
C697 H690 0.950 . S
C697 C694 1.387 . S
C698 C699 1.387 1_455 S
C698 H702 0.950 . S
C698 C707 1.390 . S
C699 C698 1.387 1_655 S
C699 C701 1.387 . S
H700 C707 0.950 . S
C701 C699 1.387 . S
C701 C703 1.390 . S
C701 H705 0.950 . S
H702 C698 0.950 . S
C703 C701 1.390 . S
C703 C704 1.387 1_655 S
C703 H706 0.950 . S
C704 C703 1.387 1_455 S
C704 C707 1.387 . S
H705 C701 0.950 . S
H706 C703 0.950 . S
C707 C698 1.390 . S
C707 H700 0.950 . S
C707 C704 1.387 . S
C409 C5 0.300 . S
C414 C209 0.301 . S
C419 C243 0.301 . S
C424 C39 0.302 . S
C429 C73 0.298 . S
C434 C277 0.298 . S
C439 C107 0.299 . S
C444 C311 0.298 . S
C449 C141 0.299 . S
C454 C345 0.298 . S
C459 C175 0.298 . S
C464 C379 0.298 . S
C469 C213 1.324 . S
C474 C9 1.327 . S
C479 C43 1.324 . S
C484 C247 1.327 . S
C489 C281 1.326 . S
C494 C77 1.326 . S
C499 C315 1.327 . S
C504 C111 1.324 . S
C509 C349 1.324 . S
C514 C145 1.327 . S
C519 C179 1.325 . S
C524 C383 1.325 . S
C529 C172 1.656 1_545 S
C534 C20 1.584 . S
C539 C2 1.656 . S
C544 C54 1.583 . S
C549 C88 1.583 . S
C554 C36 1.656 1_655 S
C559 C70 1.657 1_565 S
C564 C122 1.582 . S
C569 C104 1.656 . S
C574 C156 1.582 . S
C579 C138 1.657 1_455 S
C584 C190 1.581 . S
C589 C240 1.656 1_655 S
C594 C224 1.582 . S
C599 C258 1.581 . S
C604 C274 1.657 1_565 S
C609 C308 1.656 . S
C614 C292 1.584 . S
C619 C342 1.657 1_455 S
C624 C326 1.582 . S
C629 C376 1.657 1_545 S
C634 C360 1.581 . S
C639 C206 1.657 . S
C644 C394 1.580 . S
C649 C33 1.590 . S
C654 C271 1.590 . S
C659 C67 1.589 . S
C664 C305 1.591 . S
C669 C101 1.591 . S
C674 C339 1.589 . S
C679 C373 1.590 . S
C684 C135 1.590 . S
C689 C169 1.591 . S
C694 C407 1.589 . S
C699 C237 1.589 . S
C704 C203 1.591 . S
