# Generated by pormake.
# Topology uov, (4)-cn, num edge types: 1
# Building blocks:
#     Node 0, Type 0, BuildingBlock: ICAMEG_clean_sbu_1, # of connection points: 4
#     Node 1, Type 0, BuildingBlock: ICAMEG_clean_sbu_1, # of connection points: 4
#     Node 2, Type 0, BuildingBlock: ICAMEG_clean_sbu_1, # of connection points: 4
#     Node 3, Type 0, BuildingBlock: ICAMEG_clean_sbu_1, # of connection points: 4
#     Node 4, Type 0, BuildingBlock: ICAMEG_clean_sbu_1, # of connection points: 4
#     Node 5, Type 0, BuildingBlock: ICAMEG_clean_sbu_1, # of connection points: 4
#     Node 6, Type 0, BuildingBlock: ICAMEG_clean_sbu_1, # of connection points: 4
#     Node 7, Type 0, BuildingBlock: ICAMEG_clean_sbu_1, # of connection points: 4
#     Edge 8, Type (0, 0), None
#     Edge 9, Type (0, 0), None
#     Edge 10, Type (0, 0), None
#     Edge 11, Type (0, 0), None
#     Edge 12, Type (0, 0), None
#     Edge 13, Type (0, 0), None
#     Edge 14, Type (0, 0), None
#     Edge 15, Type (0, 0), None
#     Edge 16, Type (0, 0), None
#     Edge 17, Type (0, 0), None
#     Edge 18, Type (0, 0), None
#     Edge 19, Type (0, 0), None
#     Edge 20, Type (0, 0), None
#     Edge 21, Type (0, 0), None
#     Edge 22, Type (0, 0), None
#     Edge 23, Type (0, 0), None
# Relax obj value: 0.040
# Max RMSD: 0.056
# Mean RMSD: 0.056
data_MOF--net-uov--node1-ICAMEG_clean_sbu_1--edge1-none
_symmetry_space_group_name_H-M    P1
_symmetry_Int_Tables_number       1
_symmetry_cell_setting            triclinic
loop_
_symmetry_equiv_pos_as_xyz
'x, y, z'
_cell_length_a     15.381264
_cell_length_b     15.388289
_cell_length_c     23.628444
_cell_angle_alpha  89.97036
_cell_angle_beta   90.059192
_cell_angle_gamma 89.994314
loop_
_atom_site_label
_atom_site_type_symbol
_atom_site_fract_x
_atom_site_fract_y
_atom_site_fract_z
_atom_type_partial_charge
Co0 Co 0.10985 0.1917 0.60175 0.0
Co1 Co 0.14345 0.3093 0.48328 0.0
O2 O 0.12728 0.30015 0.56497 0.0
C3 C 0.21016 0.2752 0.7094 0.0
O4 O 0.18037 0.35475 0.70388 0.0
C5 C 0.01183 0.45615 0.49371 0.0
O6 O 0.94782 0.40029 0.4911 0.0
O7 O 0.02491 0.26406 0.46695 0.0
O8 O 0.01218 0.16778 0.53906 0.0
H9 H 0.33663 0.31604 0.31433 0.0
H10 H 0.06731 0.22285 0.72717 0.0
O11 O 0.20435 0.22198 0.6661 0.0
H12 H 0.86425 0.40446 0.62041 0.0
H13 H 0.23094 0.95845 0.72581 0.0
H14 H 0.06704 0.02062 0.55565 0.0
H15 H 0.95869 0.30478 0.57292 0.0
H16 H 0.17895 0.10236 0.70889 0.0
O17 O 0.09213 0.43162 0.49148 0.0
H18 H 0.28847 0.26436 0.40778 0.0
H19 H 0.04857 0.39779 0.38884 0.0
H20 H 0.10994 0.87055 0.58159 0.0
H21 H 0.98047 0.3301 0.77761 0.0
H22 H 0.18792 0.839 0.66583 0.0
H23 H 0.87931 0.42495 0.72276 0.0
O24 O 0.1988 0.1297 0.55519 0.0
H25 H 0.36082 0.54246 0.53012 0.0
H26 H 0.30925 0.22796 0.52758 0.0
H27 H 0.43414 0.28457 0.57869 0.0
H28 H 0.4606 0.44255 0.5813 0.0
H29 H 0.23369 0.48303 0.48021 0.0
H30 H 0.09665 0.45674 0.29761 0.0
H31 H 0.24288 0.41619 0.25973 0.0
O32 O 0.18107 0.18156 0.47023 0.0
C33 C 0.98024 0.20775 0.49416 0.0
C34 C 0.27327 0.33425 0.33032 0.0
C35 C 0.13833 0.41251 0.32057 0.0
N36 N 0.16614 0.329 0.40403 0.0
C37 C 0.24516 0.30441 0.38292 0.0
C38 C 0.11152 0.37957 0.37269 0.0
C39 C 0.22011 0.39009 0.29953 0.0
C40 C 0.02237 0.26018 0.70345 0.0
N41 N 0.01843 0.25141 0.64626 0.0
C42 C 0.97276 0.32197 0.73241 0.0
C43 C 0.91544 0.37417 0.70237 0.0
C44 C 0.90748 0.36316 0.64466 0.0
C45 C 0.96033 0.30285 0.61754 0.0
C46 C 0.19067 0.97198 0.69008 0.0
C47 C 0.09095 0.00739 0.59752 0.0
C48 C 0.15906 0.05543 0.67896 0.0
N49 N 0.10432 0.07418 0.63471 0.0
C50 C 0.11859 0.92253 0.60941 0.0
C51 C 0.16705 0.90446 0.65636 0.0
C52 C 0.18978 0.11525 0.5026 0.0
C53 C 0.34948 0.47309 0.52942 0.0
C54 C 0.31829 0.29665 0.52793 0.0
C55 C 0.39041 0.32861 0.55702 0.0
C56 C 0.40543 0.41749 0.55828 0.0
N57 N 0.26001 0.35149 0.50258 0.0
C58 C 0.27719 0.43871 0.50122 0.0
Co59 Co 0.19063 0.89341 0.37104 0.0
Co60 Co 0.3081 0.86021 0.48954 0.0
O61 O 0.29964 0.87874 0.40781 0.0
C62 C 0.27783 0.78789 0.26569 0.0
O63 O 0.35881 0.81251 0.27309 0.0
C64 C 0.45448 0.98965 0.47529 0.0
O65 O 0.39773 0.05188 0.46765 0.0
O66 O 0.26429 0.97875 0.50618 0.0
O67 O 0.16578 0.99 0.43478 0.0
H68 H 0.31143 0.66647 0.65872 0.0
H69 H 0.23083 0.93007 0.24492 0.0
O70 O 0.22214 0.79959 0.30696 0.0
H71 H 0.39373 0.14809 0.35097 0.0
H72 H 0.95368 0.76409 0.25082 0.0
H73 H 0.01966 0.93698 0.41608 0.0
H74 H 0.2815 0.06685 0.39573 0.0
H75 H 0.09831 0.80905 0.26775 0.0
O76 O 0.43058 0.91005 0.48233 0.0
H77 H 0.26116 0.71499 0.56495 0.0
H78 H 0.39769 0.95305 0.58378 0.0
H79 H 0.8683 0.89725 0.39043 0.0
H80 H 0.34916 0.00544 0.19853 0.0
H81 H 0.83465 0.81798 0.30746 0.0
H82 H 0.43711 0.11217 0.25369 0.0
O83 O 0.13018 0.80363 0.41774 0.0
H84 H 0.5378 0.64163 0.43716 0.0
H85 H 0.2237 0.69195 0.45056 0.0
H86 H 0.27645 0.56753 0.39759 0.0
H87 H 0.43411 0.54115 0.38986 0.0
H88 H 0.48245 0.76947 0.48742 0.0
H89 H 0.4547 0.9048 0.67564 0.0
H90 H 0.41175 0.75939 0.71376 0.0
O91 O 0.17972 0.82466 0.50272 0.0
C92 C 0.20625 0.02226 0.47965 0.0
C93 C 0.33061 0.7295 0.64266 0.0
C94 C 0.41024 0.86356 0.65255 0.0
N95 N 0.32731 0.83644 0.56872 0.0
C96 C 0.30164 0.75778 0.58984 0.0
C97 C 0.37832 0.89049 0.60015 0.0
C98 C 0.38655 0.7822 0.6737 0.0
C99 C 0.26691 0.97478 0.26947 0.0
N100 N 0.24861 0.98607 0.32539 0.0
C101 C 0.33394 0.01954 0.24225 0.0
C102 C 0.38175 0.08037 0.27225 0.0
C103 C 0.35827 0.09944 0.32721 0.0
C104 C 0.292 0.05188 0.35282 0.0
C105 C 0.96796 0.80719 0.28498 0.0
C106 C 0.00581 0.91211 0.37461 0.0
C107 C 0.05252 0.83511 0.29652 0.0
N108 N 0.0724 0.89483 0.33809 0.0
C109 C 0.92013 0.88657 0.36292 0.0
C110 C 0.9008 0.83657 0.31695 0.0
C111 C 0.11424 0.81415 0.46999 0.0
C112 C 0.4685 0.65306 0.43983 0.0
C113 C 0.29233 0.68402 0.44712 0.0
C114 C 0.32209 0.61164 0.41739 0.0
C115 C 0.41079 0.59667 0.41326 0.0
N116 N 0.34896 0.74315 0.46979 0.0
C117 C 0.43628 0.72595 0.46832 0.0
Co118 Co 0.89222 0.81182 0.60052 0.0
Co119 Co 0.85831 0.69593 0.48159 0.0
O120 O 0.87455 0.704 0.56332 0.0
C121 C 0.79499 0.72704 0.70889 0.0
O122 O 0.82644 0.64813 0.70346 0.0
C123 C 0.9897 0.54886 0.4925 0.0
O124 O 0.05377 0.60437 0.48803 0.0
O125 O 0.97684 0.74099 0.4654 0.0
O126 O 0.9889 0.8373 0.53742 0.0
H127 H 0.66595 0.69099 0.31179 0.0
H128 H 0.93793 0.78035 0.72548 0.0
O129 O 0.79899 0.78016 0.66538 0.0
H130 H 0.1412 0.6022 0.61677 0.0
H131 H 0.77192 0.04244 0.7263 0.0
H132 H 0.9339 0.98376 0.55512 0.0
H133 H 0.04142 0.69816 0.57014 0.0
H134 H 0.82554 0.89917 0.70876 0.0
O135 O 0.9094 0.57344 0.49002 0.0
H136 H 0.71398 0.7425 0.40537 0.0
H137 H 0.9526 0.60657 0.38769 0.0
H138 H 0.89073 0.13313 0.5822 0.0
H139 H 0.02987 0.67629 0.77528 0.0
H140 H 0.81341 0.163 0.66684 0.0
H141 H 0.13272 0.58474 0.7197 0.0
O142 O 0.80191 0.87328 0.55462 0.0
H143 H 0.64026 0.46477 0.53206 0.0
H144 H 0.68981 0.77904 0.52051 0.0
H145 H 0.56383 0.72523 0.5714 0.0
H146 H 0.53781 0.56751 0.57809 0.0
H147 H 0.76856 0.52116 0.48244 0.0
H148 H 0.90436 0.54725 0.29674 0.0
H149 H 0.75928 0.58978 0.25772 0.0
O150 O 0.82171 0.82435 0.46896 0.0
C151 C 0.02098 0.79788 0.49243 0.0
C152 C 0.72895 0.67207 0.32814 0.0
C153 C 0.86307 0.59228 0.31922 0.0
N154 N 0.83568 0.67665 0.40227 0.0
C155 C 0.75697 0.7018 0.38083 0.0
C156 C 0.88992 0.62533 0.37129 0.0
C157 C 0.78181 0.61563 0.29767 0.0
C158 C 0.98306 0.74396 0.70137 0.0
N159 N 0.9848 0.75224 0.64412 0.0
C160 C 0.03549 0.68395 0.72993 0.0
C161 C 0.09343 0.63327 0.69941 0.0
C162 C 0.09801 0.64285 0.64143 0.0
C163 C 0.04224 0.70108 0.61476 0.0
C164 C 0.8119 0.02967 0.69041 0.0
C165 C 0.91026 0.99617 0.59711 0.0
C166 C 0.84416 0.94664 0.67884 0.0
N167 N 0.8979 0.92882 0.63403 0.0
C168 C 0.88251 0.0807 0.60969 0.0
C169 C 0.83458 0.0978 0.65694 0.0
C170 C 0.81116 0.88938 0.50221 0.0
C171 C 0.65125 0.53409 0.5294 0.0
C172 C 0.68162 0.71036 0.52308 0.0
C173 C 0.60853 0.68001 0.55179 0.0
C174 C 0.59382 0.59128 0.55541 0.0
N175 N 0.74129 0.65422 0.50053 0.0
C176 C 0.72447 0.56686 0.5015 0.0
Co177 Co 0.80964 0.11182 0.37308 0.0
Co178 Co 0.69278 0.14558 0.4916 0.0
O179 O 0.70177 0.13076 0.40989 0.0
C180 C 0.7273 0.2068 0.26391 0.0
O181 O 0.64879 0.17407 0.2687 0.0
C182 C 0.54648 0.01326 0.48102 0.0
O183 O 0.60164 0.95001 0.49021 0.0
O184 O 0.73837 0.02709 0.50769 0.0
O185 O 0.83429 0.01529 0.4358 0.0
H186 H 0.68834 0.33602 0.66197 0.0
H187 H 0.78269 0.06293 0.24837 0.0
O188 O 0.77929 0.20474 0.30802 0.0
H189 H 0.59677 0.86616 0.35702 0.0
H190 H 0.04141 0.23022 0.24826 0.0
H191 H 0.97998 0.06886 0.41937 0.0
H192 H 0.69014 0.96849 0.40382 0.0
H193 H 0.89782 0.17409 0.26408 0.0
O194 O 0.57048 0.09381 0.48194 0.0
H195 H 0.73885 0.28899 0.56805 0.0
H196 H 0.60304 0.05031 0.58549 0.0
H197 H 0.12863 0.11305 0.39394 0.0
H198 H 0.68133 0.9681 0.19799 0.0
H199 H 0.16043 0.1911 0.3095 0.0
H200 H 0.58653 0.86828 0.25364 0.0
O201 O 0.87155 0.20154 0.4192 0.0
H202 H 0.45927 0.36239 0.44459 0.0
H203 H 0.77411 0.31236 0.44913 0.0
H204 H 0.71758 0.43798 0.39875 0.0
H205 H 0.55943 0.46388 0.3954 0.0
H206 H 0.51859 0.23513 0.49443 0.0
H207 H 0.54519 0.09735 0.6771 0.0
H208 H 0.58764 0.24234 0.71611 0.0
O209 O 0.82092 0.183 0.50463 0.0
C210 C 0.79466 0.98279 0.48036 0.0
C211 C 0.66927 0.2732 0.64551 0.0
C212 C 0.58968 0.13899 0.65438 0.0
N213 N 0.67298 0.16732 0.57097 0.0
C214 C 0.69846 0.2457 0.59263 0.0
C215 C 0.62196 0.11278 0.60199 0.0
C216 C 0.61313 0.22008 0.67603 0.0
C217 C 0.74523 0.01842 0.27238 0.0
N218 N 0.74977 0.01961 0.3298 0.0
C219 C 0.68654 0.9648 0.24359 0.0
C220 C 0.63379 0.90871 0.27418 0.0
C221 C 0.63932 0.90762 0.33245 0.0
C222 C 0.69604 0.96463 0.35925 0.0
C223 C 0.02781 0.19078 0.28426 0.0
C224 C 0.99297 0.09266 0.37747 0.0
C225 C 0.94484 0.15737 0.2948 0.0
N226 N 0.92639 0.1046 0.33996 0.0
C227 C 0.07733 0.12113 0.36575 0.0
C228 C 0.09522 0.16922 0.31868 0.0
C229 C 0.88669 0.19242 0.47179 0.0
C230 C 0.52871 0.35151 0.44591 0.0
C231 C 0.70534 0.32116 0.44843 0.0
C232 C 0.67344 0.3937 0.41978 0.0
C233 C 0.58448 0.40834 0.41804 0.0
N234 N 0.6504 0.26224 0.47295 0.0
C235 C 0.56304 0.27903 0.47389 0.0
Co236 Co 0.90095 0.18309 0.10177 0.0
Co237 Co 0.86076 0.31344 -0.00862 0.0
O238 O 0.86841 0.29217 0.07208 0.0
C239 C 0.75807 0.23354 0.20363 0.0
O240 O 0.72423 0.30373 0.18093 0.0
C241 C 0.98684 0.4551 0.0243 0.0
O242 O 0.04432 0.39505 0.03614 0.0
O243 O 0.98351 0.2747 0.97479 0.0
O244 O 0.99634 0.16928 0.0393 0.0
H245 H 0.67547 0.35783 0.82211 0.0
H246 H 0.88311 0.32698 0.18185 0.0
O247 O 0.81441 0.18791 0.17425 0.0
H248 H 0.19269 0.32514 0.14068 0.0
H249 H 0.91576 0.98072 0.25559 0.0
H250 H 0.90878 1.00026 0.05037 0.0
H251 H 0.09938 0.21348 0.10241 0.0
H252 H 0.9721 0.11 0.20193 0.0
O253 O 0.90888 0.43479 0.00896 0.0
H254 H 0.72261 0.28131 0.90858 0.0
H255 H 0.96173 0.41852 0.90769 0.0
H256 H 0.81639 0.89057 0.097 0.0
H257 H 0.97266 0.43461 0.22431 0.0
H258 H 0.82979 0.87055 0.20081 0.0
H259 H 0.12921 0.44259 0.19776 0.0
O260 O 0.81055 0.12232 0.05483 0.0
H261 H 0.63203 0.53835 0.0319 0.0
H262 H 0.6986 0.2268 0.03583 0.0
H263 H 0.56534 0.27799 0.07902 0.0
H264 H 0.53138 0.43406 0.0791 0.0
H265 H 0.76581 0.48354 0.98699 0.0
H266 H 0.91557 0.49998 0.82278 0.0
H267 H 0.76902 0.4731 0.78167 0.0
O268 O 0.82345 0.18577 0.9712 0.0
C269 C 0.02924 0.21597 -0.001 0.0
C270 C 0.73882 0.37085 0.8402 0.0
C271 C 0.87351 0.45084 0.84078 0.0
N272 N 0.84437 0.34593 0.91319 0.0
C273 C 0.76652 0.32652 0.88844 0.0
C274 C 0.89962 0.40405 0.88852 0.0
C275 C 0.79159 0.43535 0.81745 0.0
C276 C 0.95119 0.31823 0.17737 0.0
N277 N 0.98529 0.25138 0.14603 0.0
C278 C 0.00243 0.38468 0.19893 0.0
C279 C 0.08983 0.38781 0.18518 0.0
C280 C 0.12531 0.32181 0.15286 0.0
C281 C 0.07182 0.25515 0.13289 0.0
C282 C 0.90578 0.98726 0.21068 0.0
C283 C 0.90324 0.9995 0.09574 0.0
C284 C 0.93633 0.06084 0.18271 0.0
N285 N 0.93054 0.06887 0.12696 0.0
C286 C 0.85516 0.93438 0.1217 0.0
C287 C 0.86012 0.92529 0.17997 0.0
C288 C 0.80962 0.11677 0.00115 0.0
C289 C 0.64612 0.46948 0.03194 0.0
C290 C 0.68512 0.29459 0.03336 0.0
C291 C 0.60878 0.3236 0.05868 0.0
C292 C 0.58979 0.41165 0.05858 0.0
N293 N 0.74248 0.35144 0.00913 0.0
C294 C 0.7221 0.43789 0.0067 0.0
Co295 Co 0.18497 0.10244 0.87266 0.0
Co296 Co 0.31514 0.1416 0.98341 0.0
O297 O 0.29426 0.13392 0.90257 0.0
C298 C 0.23655 0.24493 0.77005 0.0
O299 O 0.30667 0.279 0.79271 0.0
C300 C 0.45617 0.01507 0.95051 0.0
O301 O 0.39577 0.95791 0.93882 0.0
O302 O 0.2758 0.01923 0.00012 0.0
O303 O 0.17025 0.00701 0.93551 0.0
H304 H 0.35739 0.32474 0.15411 0.0
H305 H 0.32834 0.11902 0.79174 0.0
O306 O 0.19094 0.18881 0.79973 0.0
H307 H 0.32704 0.81008 0.83449 0.0
H308 H 0.98109 0.09238 0.71892 0.0
H309 H 0.00197 0.09457 0.92414 0.0
H310 H 0.21699 0.9039 0.8736 0.0
H311 H 0.11172 0.03645 0.77199 0.0
O312 O 0.43631 0.093 0.96599 0.0
H313 H 0.28349 0.2798 0.06614 0.0
H314 H 0.41963 0.04014 0.06716 0.0
H315 H 0.89193 0.18808 0.87852 0.0
H316 H 0.43501 0.02901 0.74877 0.0
H317 H 0.87172 0.17779 0.7745 0.0
H318 H 0.44293 0.87265 0.77558 0.0
O319 O 0.12467 0.19331 0.91953 0.0
H320 H 0.54126 0.3691 0.94277 0.0
H321 H 0.22913 0.30465 0.93948 0.0
H322 H 0.28092 0.43771 0.8964 0.0
H323 H 0.43728 0.47062 0.89595 0.0
H324 H 0.48587 0.23556 -0.01233 0.0
H325 H 0.49895 0.08436 0.15329 0.0
H326 H 0.4704 0.22961 0.19571 0.0
O327 O 0.18736 0.17917 0.00339 0.0
C328 C 0.21656 0.97397 0.97613 0.0
C329 C 0.37072 0.26175 0.13569 0.0
C330 C 0.45035 0.1269 0.13508 0.0
N331 N 0.34745 0.15774 0.06164 0.0
C332 C 0.32795 0.23535 0.08655 0.0
C333 C 0.40488 0.10194 0.08656 0.0
C334 C 0.43401 0.20809 0.1591 0.0
C335 C 0.31924 0.05107 0.79642 0.0
N336 N 0.25287 0.01743 0.82845 0.0
C337 C 0.38531 0.99956 0.77457 0.0
C338 C 0.38858 0.91229 0.78861 0.0
C339 C 0.32344 0.87732 0.8219 0.0
C340 C 0.2574 0.93116 0.84231 0.0
C341 C 0.98807 0.10152 0.7639 0.0
C342 C 1.00106 0.10134 0.87884 0.0
C343 C 0.0622 0.07106 0.79146 0.0
N344 N 0.07025 0.0745 0.84729 0.0
C345 C 0.93582 0.15019 0.85339 0.0
C346 C 0.92646 0.14682 0.79507 0.0
C347 C 0.11861 0.19373 0.97322 0.0
C348 C 0.47228 0.35543 0.94284 0.0
C349 C 0.29707 0.31755 0.94172 0.0
C350 C 0.32641 0.39384 0.91649 0.0
C351 C 0.41462 0.41226 0.91641 0.0
N352 N 0.35372 0.25969 0.9657 0.0
C353 C 0.44035 0.27955 0.96804 0.0
Co354 Co 0.10425 0.81762 0.10328 0.0
Co355 Co 0.14219 0.68805 -0.00801 0.0
O356 O 0.13495 0.70851 0.0728 0.0
C357 C 0.24878 0.76442 0.20428 0.0
O358 O 0.28458 0.69653 0.18007 0.0
C359 C 0.01538 0.54652 0.02421 0.0
O360 O 0.95765 0.6066 0.03536 0.0
O361 O 0.02001 0.72779 0.97586 0.0
O362 O 0.00833 0.83324 0.04061 0.0
H363 H 0.32625 0.64136 0.82278 0.0
H364 H 0.12114 0.67409 0.1845 0.0
O365 O 0.19098 0.8097 0.17581 0.0
H366 H 0.81265 0.67354 0.13946 0.0
H367 H 0.09881 0.0201 0.25851 0.0
H368 H 0.09697 0.0013 0.05308 0.0
H369 H 0.90568 0.78565 0.10243 0.0
H370 H 0.04261 0.88983 0.20572 0.0
O371 O 0.09352 0.56676 0.0093 0.0
H372 H 0.28027 0.71903 0.90897 0.0
H373 H 0.03904 0.58558 0.90803 0.0
H374 H 0.19139 0.11057 0.09827 0.0
H375 H 0.0317 0.56539 0.22528 0.0
H376 H 0.1839 0.12937 0.20263 0.0
H377 H 0.8757 0.5563 0.19705 0.0
O378 O 0.19466 0.87825 0.05592 0.0
H379 H 0.37021 0.46164 0.03153 0.0
H380 H 0.3056 0.7736 0.03544 0.0
H381 H 0.4393 0.72166 0.07776 0.0
H382 H 0.47237 0.56541 0.07784 0.0
H383 H 0.23604 0.51717 -0.0127 0.0
H384 H 0.08364 0.50357 0.82305 0.0
H385 H 0.23099 0.5272 0.7826 0.0
O386 O 0.17979 0.81583 0.97209 0.0
C387 C 0.975 0.78693 4e-05 0.0
C388 C 0.26266 0.62948 0.84077 0.0
C389 C 0.12655 0.55192 0.84112 0.0
N390 N 0.15764 0.65612 0.91365 0.0
C391 C 0.23567 0.67442 0.88887 0.0
C392 C 0.10133 0.59907 0.88887 0.0
C393 C 0.20887 0.56572 0.81808 0.0
C394 C 0.05314 0.6827 0.17923 0.0
N395 N 0.01935 0.74947 0.14752 0.0
C396 C 0.00205 0.61534 0.19977 0.0
C397 C 0.91504 0.61139 0.18495 0.0
C398 C 0.87976 0.67733 0.15245 0.0
C399 C 0.93316 0.74459 0.13328 0.0
C400 C 0.1068 0.01358 0.21341 0.0
C401 C 0.10441 0.00167 0.09835 0.0
C402 C 0.07591 0.93967 0.18585 0.0
N403 N 0.07765 0.93226 0.12982 0.0
C404 C 0.154 0.0665 0.12367 0.0
C405 C 0.15201 0.07519 0.18209 0.0
C406 C 0.19425 0.88459 0.00217 0.0
C407 C 0.35649 0.53059 0.03159 0.0
C408 C 0.31853 0.7057 0.03307 0.0
C409 C 0.39519 0.67627 0.05785 0.0
C410 C 0.41367 0.58812 0.05775 0.0
N411 N 0.26039 0.64918 0.00932 0.0
C412 C 0.28024 0.56259 0.00681 0.0
Co413 Co 0.81912 0.89891 0.87256 0.0
Co414 Co 0.68897 0.86006 0.98329 0.0
O415 O 0.70996 0.86705 0.90246 0.0
C416 C 0.7681 0.7568 0.7695 0.0
O417 O 0.69759 0.72278 0.79161 0.0
C418 C 0.54747 0.98617 0.95024 0.0
O419 O 0.60764 0.04345 0.93836 0.0
O420 O 0.72799 0.98253 -0.00052 0.0
O421 O 0.83348 0.9945 0.93497 0.0
H422 H 0.64244 0.67553 0.1523 0.0
H423 H 0.67503 0.88135 0.79229 0.0
O424 O 0.81367 0.81243 0.79966 0.0
H425 H 0.67616 0.19052 0.83406 0.0
H426 H 0.0223 0.91112 0.71891 0.0
H427 H 0.0023 0.90708 0.92406 0.0
H428 H 0.7878 0.09741 0.87228 0.0
H429 H 0.89189 0.96617 0.772 0.0
O430 O 0.56761 0.90823 0.96561 0.0
H431 H 0.72065 0.72248 0.06653 0.0
H432 H 0.58485 0.96233 0.06681 0.0
H433 H 0.11242 0.81434 0.87828 0.0
H434 H 0.5669 0.97067 0.75007 0.0
H435 H 0.13255 0.826 0.77429 0.0
H436 H 0.55871 0.12698 0.77681 0.0
O437 O 0.87984 0.80885 0.92008 0.0
H438 H 0.4637 0.63169 0.94253 0.0
H439 H 0.77565 0.69723 0.94016 0.0
H440 H 0.72444 0.56409 0.89687 0.0
H441 H 0.56821 0.53059 0.89603 0.0
H442 H 0.51845 0.76551 -0.01258 0.0
H443 H 0.50207 0.91662 0.15124 0.0
H444 H 0.52659 0.76943 0.19176 0.0
O445 O 0.81672 0.82306 0.00369 0.0
C446 C 0.78696 0.02774 0.97525 0.0
C447 C 0.63011 0.73901 0.13425 0.0
C448 C 0.55111 0.87427 0.13344 0.0
N449 N 0.65662 0.84446 0.06155 0.0
C450 C 0.67544 0.7666 0.08643 0.0
C451 C 0.5987 0.90013 0.08602 0.0
C452 C 0.56537 0.79201 0.15651 0.0
C453 C 0.68394 0.94936 0.79667 0.0
N454 N 0.75079 0.98339 0.82815 0.0
C455 C 0.61712 1.00047 0.7753 0.0
C456 C 0.61371 0.08774 0.78926 0.0
C457 C 0.67968 0.12322 0.82168 0.0
C458 C 0.7465 0.0698 0.84159 0.0
C459 C 0.01554 0.9014 0.76384 0.0
C460 C 0.003 0.90059 0.87876 0.0
C461 C 0.94146 0.93144 0.79145 0.0
N462 N 0.93361 0.9274 0.84726 0.0
C463 C 0.06842 0.85234 0.85321 0.0
C464 C 0.0776 0.85632 0.79491 0.0
C465 C 0.88579 0.80925 0.97385 0.0
C466 C 0.53264 0.64562 0.94279 0.0
C467 C 0.70773 0.68407 0.94218 0.0
C468 C 0.67873 0.60775 0.91686 0.0
C469 C 0.59059 0.58902 0.91653 0.0
N470 N 0.65078 0.74175 0.96591 0.0
C471 C 0.5642 0.72162 0.968 0.0
loop_
_geom_bond_atom_site_label_1
_geom_bond_atom_site_label_2
_geom_bond_distance
_geom_bond_site_symmetry_2
_ccdc_geom_bond_type
Co0 O2 2.143 . S
Co0 O8 2.074 1_455 S
Co0 O11 2.093 . S
Co0 O24 2.097 . S
Co0 N41 2.151 1_455 S
Co0 N49 2.214 1_545 S
Co1 O2 2.160 . S
Co1 O7 2.058 1_455 S
Co1 O17 2.057 . S
Co1 O32 2.037 . S
Co1 N36 2.145 . S
Co1 N57 2.257 . S
O2 Co0 2.143 . S
O2 Co1 2.160 . S
C3 O4 1.278 . S
C3 O11 1.224 . S
O4 C3 1.278 . S
C5 O6 1.245 . S
C5 O17 1.232 . S
O6 C5 1.245 . S
O7 Co1 2.058 1_655 S
O7 C33 1.269 . S
O8 Co0 2.074 1_655 S
O8 C33 1.257 . S
H9 C34 0.930 . S
H10 C40 0.930 1_455 S
O11 Co0 2.093 . S
O11 C3 1.224 . S
H12 C44 0.929 . S
H13 C46 0.930 . S
H14 C47 0.930 . S
H15 C45 0.929 . S
H16 C48 0.928 . S
O17 Co1 2.057 . S
O17 C5 1.232 . S
H18 C37 0.929 . S
H19 C38 0.929 . S
H20 C50 0.931 . S
H21 C42 0.929 . S
H22 C51 0.930 . S
H23 C43 0.931 . S
O24 Co0 2.097 . S
O24 C52 1.214 . S
H25 C53 0.929 . S
H26 C54 0.929 . S
H27 C55 0.930 . S
H28 C56 0.929 . S
H29 C58 0.930 . S
H30 C35 0.930 . S
H31 C39 0.930 . S
O32 Co1 2.037 . S
O32 C52 1.234 . S
C33 O7 1.269 . S
C33 O8 1.257 . S
C34 H9 0.930 . S
C34 C37 1.388 . S
C34 C39 1.418 . S
C35 H30 0.930 . S
C35 C38 1.404 . S
C35 C39 1.353 . S
N36 Co1 2.145 . S
N36 C37 1.397 . S
N36 C38 1.334 . S
C37 H18 0.929 . S
C37 C34 1.388 . S
C37 N36 1.397 . S
C38 H19 0.929 . S
C38 C35 1.404 . S
C38 N36 1.334 . S
C39 H31 0.930 . S
C39 C34 1.418 . S
C39 C35 1.353 . S
C40 H10 0.930 1_655 S
C40 N41 1.330 . S
C40 C42 1.446 . S
N41 Co0 2.151 1_655 S
N41 C40 1.330 . S
N41 C45 1.418 . S
C42 H21 0.929 . S
C42 C40 1.446 . S
C42 C43 1.332 . S
C43 H23 0.931 . S
C43 C42 1.332 . S
C43 C44 1.267 . S
C44 H12 0.929 . S
C44 C43 1.267 . S
C44 C45 1.251 . S
C45 H15 0.929 . S
C45 N41 1.418 . S
C45 C44 1.251 . S
C46 H13 0.930 . S
C46 C48 1.406 1_655 S
C46 C51 1.261 . S
C47 H14 0.930 . S
C47 N49 1.325 . S
C47 C50 1.357 . S
C48 H16 0.928 . S
C48 C46 1.406 1_455 S
C48 N49 1.261 . S
N49 Co0 2.214 1_565 S
N49 C47 1.325 . S
N49 C48 1.261 . S
C50 H20 0.931 . S
C50 C47 1.357 . S
C50 C51 1.312 1_455 S
C51 H22 0.930 . S
C51 C46 1.261 . S
C51 C50 1.312 1_655 S
C52 O24 1.214 . S
C52 O32 1.234 . S
C53 H25 0.929 . S
C53 C56 1.391 . S
C53 C58 1.391 . S
C54 H26 0.929 . S
C54 C55 1.390 . S
C54 N57 1.391 . S
C55 H27 0.930 . S
C55 C54 1.390 . S
C55 C56 1.392 . S
C56 H28 0.929 . S
C56 C53 1.391 . S
C56 C55 1.392 . S
N57 Co1 2.257 . S
N57 C54 1.391 . S
N57 C58 1.388 . S
C58 H29 0.930 . S
C58 C53 1.391 . S
C58 N57 1.388 . S
Co59 O61 2.143 . S
Co59 O67 2.074 1_565 S
Co59 O70 2.093 . S
Co59 O83 2.097 . S
Co59 N100 2.151 1_565 S
Co59 N108 2.214 1_455 S
Co60 O61 2.160 . S
Co60 O66 2.058 1_565 S
Co60 O76 2.057 . S
Co60 O91 2.037 . S
Co60 N95 2.145 . S
Co60 N116 2.257 . S
O61 Co59 2.143 . S
O61 Co60 2.160 . S
C62 O63 1.278 . S
C62 O70 1.224 . S
O63 C62 1.278 . S
C64 O65 1.245 . S
C64 O76 1.232 . S
O65 C64 1.245 . S
O66 Co60 2.058 1_545 S
O66 C92 1.269 . S
O67 Co59 2.074 1_545 S
O67 C92 1.257 . S
H68 C93 0.930 . S
H69 C99 0.930 1_565 S
O70 Co59 2.093 . S
O70 C62 1.224 . S
H71 C103 0.929 . S
H72 C105 0.930 . S
H73 C106 0.930 . S
H74 C104 0.929 . S
H75 C107 0.928 . S
O76 Co60 2.057 . S
O76 C64 1.232 . S
H77 C96 0.929 . S
H78 C97 0.929 . S
H79 C109 0.931 . S
H80 C101 0.929 . S
H81 C110 0.930 . S
H82 C102 0.931 . S
O83 Co59 2.097 . S
O83 C111 1.214 . S
H84 C112 0.929 . S
H85 C113 0.929 . S
H86 C114 0.930 . S
H87 C115 0.929 . S
H88 C117 0.930 . S
H89 C94 0.930 . S
H90 C98 0.930 . S
O91 Co60 2.037 . S
O91 C111 1.234 . S
C92 O66 1.269 . S
C92 O67 1.257 . S
C93 H68 0.930 . S
C93 C96 1.388 . S
C93 C98 1.418 . S
C94 H89 0.930 . S
C94 C97 1.404 . S
C94 C98 1.353 . S
N95 Co60 2.145 . S
N95 C96 1.397 . S
N95 C97 1.334 . S
C96 H77 0.929 . S
C96 C93 1.388 . S
C96 N95 1.397 . S
C97 H78 0.929 . S
C97 C94 1.404 . S
C97 N95 1.334 . S
C98 H90 0.930 . S
C98 C93 1.418 . S
C98 C94 1.353 . S
C99 H69 0.930 1_545 S
C99 N100 1.330 . S
C99 C101 1.446 . S
N100 Co59 2.151 1_545 S
N100 C99 1.330 . S
N100 C104 1.418 . S
C101 H80 0.929 . S
C101 C99 1.446 . S
C101 C102 1.332 . S
C102 H82 0.931 . S
C102 C101 1.332 . S
C102 C103 1.267 . S
C103 H71 0.929 . S
C103 C102 1.267 . S
C103 C104 1.251 . S
C104 H74 0.929 . S
C104 N100 1.418 . S
C104 C103 1.251 . S
C105 H72 0.930 . S
C105 C107 1.406 1_545 S
C105 C110 1.261 . S
C106 H73 0.930 . S
C106 N108 1.325 . S
C106 C109 1.357 . S
C107 H75 0.928 . S
C107 C105 1.406 1_565 S
C107 N108 1.261 . S
N108 Co59 2.214 1_655 S
N108 C106 1.325 . S
N108 C107 1.261 . S
C109 H79 0.931 . S
C109 C106 1.357 . S
C109 C110 1.312 1_565 S
C110 H81 0.930 . S
C110 C105 1.261 . S
C110 C109 1.312 1_545 S
C111 O83 1.214 . S
C111 O91 1.234 . S
C112 H84 0.929 . S
C112 C115 1.391 . S
C112 C117 1.391 . S
C113 H85 0.929 . S
C113 C114 1.390 . S
C113 N116 1.391 . S
C114 H86 0.930 . S
C114 C113 1.390 . S
C114 C115 1.392 . S
C115 H87 0.929 . S
C115 C112 1.391 . S
C115 C114 1.392 . S
N116 Co60 2.257 . S
N116 C113 1.391 . S
N116 C117 1.388 . S
C117 H88 0.930 . S
C117 C112 1.391 . S
C117 N116 1.388 . S
Co118 O120 2.143 . S
Co118 O126 2.074 1_655 S
Co118 O129 2.093 . S
Co118 O142 2.097 . S
Co118 N159 2.151 1_655 S
Co118 N167 2.214 1_565 S
Co119 O120 2.160 . S
Co119 O125 2.058 1_655 S
Co119 O135 2.057 . S
Co119 O150 2.037 . S
Co119 N154 2.145 . S
Co119 N175 2.257 . S
O120 Co118 2.143 . S
O120 Co119 2.160 . S
C121 O122 1.278 . S
C121 O129 1.224 . S
O122 C121 1.278 . S
C123 O124 1.245 . S
C123 O135 1.232 . S
O124 C123 1.245 . S
O125 Co119 2.058 1_455 S
O125 C151 1.269 . S
O126 Co118 2.074 1_455 S
O126 C151 1.257 . S
H127 C152 0.930 . S
H128 C158 0.930 1_655 S
O129 Co118 2.093 . S
O129 C121 1.224 . S
H130 C162 0.929 . S
H131 C164 0.930 . S
H132 C165 0.930 . S
H133 C163 0.929 . S
H134 C166 0.928 . S
O135 Co119 2.057 . S
O135 C123 1.232 . S
H136 C155 0.929 . S
H137 C156 0.929 . S
H138 C168 0.931 . S
H139 C160 0.929 . S
H140 C169 0.930 . S
H141 C161 0.931 . S
O142 Co118 2.097 . S
O142 C170 1.214 . S
H143 C171 0.929 . S
H144 C172 0.929 . S
H145 C173 0.930 . S
H146 C174 0.929 . S
H147 C176 0.930 . S
H148 C153 0.930 . S
H149 C157 0.930 . S
O150 Co119 2.037 . S
O150 C170 1.234 . S
C151 O125 1.269 . S
C151 O126 1.257 . S
C152 H127 0.930 . S
C152 C155 1.388 . S
C152 C157 1.418 . S
C153 H148 0.930 . S
C153 C156 1.404 . S
C153 C157 1.353 . S
N154 Co119 2.145 . S
N154 C155 1.397 . S
N154 C156 1.334 . S
C155 H136 0.929 . S
C155 C152 1.388 . S
C155 N154 1.397 . S
C156 H137 0.929 . S
C156 C153 1.404 . S
C156 N154 1.334 . S
C157 H149 0.930 . S
C157 C152 1.418 . S
C157 C153 1.353 . S
C158 H128 0.930 1_455 S
C158 N159 1.330 . S
C158 C160 1.446 . S
N159 Co118 2.151 1_455 S
N159 C158 1.330 . S
N159 C163 1.418 . S
C160 H139 0.929 . S
C160 C158 1.446 . S
C160 C161 1.332 . S
C161 H141 0.931 . S
C161 C160 1.332 . S
C161 C162 1.267 . S
C162 H130 0.929 . S
C162 C161 1.267 . S
C162 C163 1.251 . S
C163 H133 0.929 . S
C163 N159 1.418 . S
C163 C162 1.251 . S
C164 H131 0.930 . S
C164 C166 1.406 1_455 S
C164 C169 1.261 . S
C165 H132 0.930 . S
C165 N167 1.325 . S
C165 C168 1.357 . S
C166 H134 0.928 . S
C166 C164 1.406 1_655 S
C166 N167 1.261 . S
N167 Co118 2.214 1_545 S
N167 C165 1.325 . S
N167 C166 1.261 . S
C168 H138 0.931 . S
C168 C165 1.357 . S
C168 C169 1.312 1_655 S
C169 H140 0.930 . S
C169 C164 1.261 . S
C169 C168 1.312 1_455 S
C170 O142 1.214 . S
C170 O150 1.234 . S
C171 H143 0.929 . S
C171 C174 1.391 . S
C171 C176 1.391 . S
C172 H144 0.929 . S
C172 C173 1.390 . S
C172 N175 1.391 . S
C173 H145 0.930 . S
C173 C172 1.390 . S
C173 C174 1.392 . S
C174 H146 0.929 . S
C174 C171 1.391 . S
C174 C173 1.392 . S
N175 Co119 2.257 . S
N175 C172 1.391 . S
N175 C176 1.388 . S
C176 H147 0.930 . S
C176 C171 1.391 . S
C176 N175 1.388 . S
Co177 O179 2.143 . S
Co177 O185 2.074 1_545 S
Co177 O188 2.093 . S
Co177 O201 2.097 . S
Co177 N218 2.151 1_545 S
Co177 N226 2.214 1_655 S
Co178 O179 2.160 . S
Co178 O184 2.058 1_545 S
Co178 O194 2.057 . S
Co178 O209 2.037 . S
Co178 N213 2.145 . S
Co178 N234 2.257 . S
O179 Co177 2.143 . S
O179 Co178 2.160 . S
C180 O181 1.278 . S
C180 O188 1.224 . S
O181 C180 1.278 . S
C182 O183 1.245 . S
C182 O194 1.232 . S
O183 C182 1.245 . S
O184 Co178 2.058 1_565 S
O184 C210 1.269 . S
O185 Co177 2.074 1_565 S
O185 C210 1.257 . S
H186 C211 0.930 . S
H187 C217 0.930 1_545 S
O188 Co177 2.093 . S
O188 C180 1.224 . S
H189 C221 0.929 . S
H190 C223 0.930 . S
H191 C224 0.930 . S
H192 C222 0.929 . S
H193 C225 0.928 . S
O194 Co178 2.057 . S
O194 C182 1.232 . S
H195 C214 0.929 . S
H196 C215 0.929 . S
H197 C227 0.931 . S
H198 C219 0.929 . S
H199 C228 0.930 . S
H200 C220 0.931 . S
O201 Co177 2.097 . S
O201 C229 1.214 . S
H202 C230 0.929 . S
H203 C231 0.929 . S
H204 C232 0.930 . S
H205 C233 0.929 . S
H206 C235 0.930 . S
H207 C212 0.930 . S
H208 C216 0.930 . S
O209 Co178 2.037 . S
O209 C229 1.234 . S
C210 O184 1.269 . S
C210 O185 1.257 . S
C211 H186 0.930 . S
C211 C214 1.388 . S
C211 C216 1.418 . S
C212 H207 0.930 . S
C212 C215 1.404 . S
C212 C216 1.353 . S
N213 Co178 2.145 . S
N213 C214 1.397 . S
N213 C215 1.334 . S
C214 H195 0.929 . S
C214 C211 1.388 . S
C214 N213 1.397 . S
C215 H196 0.929 . S
C215 C212 1.404 . S
C215 N213 1.334 . S
C216 H208 0.930 . S
C216 C211 1.418 . S
C216 C212 1.353 . S
C217 H187 0.930 1_565 S
C217 N218 1.330 . S
C217 C219 1.446 . S
N218 Co177 2.151 1_565 S
N218 C217 1.330 . S
N218 C222 1.418 . S
C219 H198 0.929 . S
C219 C217 1.446 . S
C219 C220 1.332 . S
C220 H200 0.931 . S
C220 C219 1.332 . S
C220 C221 1.267 . S
C221 H189 0.929 . S
C221 C220 1.267 . S
C221 C222 1.251 . S
C222 H192 0.929 . S
C222 N218 1.418 . S
C222 C221 1.251 . S
C223 H190 0.930 . S
C223 C225 1.406 1_565 S
C223 C228 1.261 . S
C224 H191 0.930 . S
C224 N226 1.325 . S
C224 C227 1.357 . S
C225 H193 0.928 . S
C225 C223 1.406 1_545 S
C225 N226 1.261 . S
N226 Co177 2.214 1_455 S
N226 C224 1.325 . S
N226 C225 1.261 . S
C227 H197 0.931 . S
C227 C224 1.357 . S
C227 C228 1.312 1_545 S
C228 H199 0.930 . S
C228 C223 1.261 . S
C228 C227 1.312 1_565 S
C229 O201 1.214 . S
C229 O209 1.234 . S
C230 H202 0.929 . S
C230 C233 1.391 . S
C230 C235 1.391 . S
C231 H203 0.929 . S
C231 C232 1.390 . S
C231 N234 1.391 . S
C232 H204 0.930 . S
C232 C231 1.390 . S
C232 C233 1.392 . S
C233 H205 0.929 . S
C233 C230 1.391 . S
C233 C232 1.392 . S
N234 Co178 2.257 . S
N234 C231 1.391 . S
N234 C235 1.388 . S
C235 H206 0.930 . S
C235 C230 1.391 . S
C235 N234 1.388 . S
Co236 O238 2.143 . S
Co236 O244 2.074 1_655 S
Co236 O247 2.093 . S
Co236 O260 2.097 . S
Co236 N277 2.151 1_655 S
Co236 N285 2.214 1_545 S
Co237 O238 2.160 . S
Co237 O243 2.060 1_655 S
Co237 O253 2.057 . S
Co237 O268 2.037 1_554 S
Co237 N272 2.145 1_554 S
Co237 N293 2.257 . S
O238 Co236 2.143 . S
O238 Co237 2.160 . S
C239 O240 1.278 . S
C239 O247 1.224 . S
O240 C239 1.278 . S
C241 O242 1.245 . S
C241 O253 1.232 . S
O242 C241 1.245 . S
O243 Co237 2.060 1_455 S
O243 C269 1.271 . S
O244 Co236 2.074 1_455 S
O244 C269 1.257 . S
H245 C270 0.930 . S
H246 C276 0.930 1_655 S
O247 Co236 2.093 . S
O247 C239 1.224 . S
H248 C280 0.929 . S
H249 C282 0.930 . S
H250 C283 0.930 . S
H251 C281 0.929 . S
H252 C284 0.928 . S
O253 Co237 2.057 . S
O253 C241 1.232 . S
H254 C273 0.929 . S
H255 C274 0.929 . S
H256 C286 0.931 . S
H257 C278 0.929 . S
H258 C287 0.930 . S
H259 C279 0.931 . S
O260 Co236 2.097 . S
O260 C288 1.214 . S
H261 C289 0.929 . S
H262 C290 0.929 1_556 S
H263 C291 0.930 . S
H264 C292 0.929 . S
H265 C294 0.930 . S
H266 C271 0.930 . S
H267 C275 0.930 . S
O268 Co237 2.037 1_556 S
O268 C288 1.234 1_556 S
C269 O243 1.271 . S
C269 O244 1.257 . S
C270 H245 0.930 . S
C270 C273 1.388 . S
C270 C275 1.418 . S
C271 H266 0.930 . S
C271 C274 1.404 . S
C271 C275 1.353 . S
N272 Co237 2.145 1_556 S
N272 C273 1.397 . S
N272 C274 1.334 . S
C273 H254 0.929 . S
C273 C270 1.388 . S
C273 N272 1.397 . S
C274 H255 0.929 . S
C274 C271 1.404 . S
C274 N272 1.334 . S
C275 H267 0.930 . S
C275 C270 1.418 . S
C275 C271 1.353 . S
C276 H246 0.930 1_455 S
C276 N277 1.330 . S
C276 C278 1.446 . S
N277 Co236 2.151 1_455 S
N277 C276 1.330 . S
N277 C281 1.418 . S
C278 H257 0.929 . S
C278 C276 1.446 . S
C278 C279 1.332 . S
C279 H259 0.931 . S
C279 C278 1.332 . S
C279 C280 1.267 . S
C280 H248 0.929 . S
C280 C279 1.267 . S
C280 C281 1.251 . S
C281 H251 0.929 . S
C281 N277 1.418 . S
C281 C280 1.251 . S
C282 H249 0.930 . S
C282 C284 1.406 1_455 S
C282 C287 1.261 . S
C283 H250 0.930 . S
C283 N285 1.325 . S
C283 C286 1.357 . S
C284 H252 0.928 . S
C284 C282 1.406 1_655 S
C284 N285 1.261 . S
N285 Co236 2.214 1_565 S
N285 C283 1.325 . S
N285 C284 1.261 . S
C286 H256 0.931 . S
C286 C283 1.357 . S
C286 C287 1.312 1_655 S
C287 H258 0.930 . S
C287 C282 1.261 . S
C287 C286 1.312 1_455 S
C288 O260 1.214 . S
C288 O268 1.234 1_554 S
C289 H261 0.929 . S
C289 C292 1.391 . S
C289 C294 1.391 . S
C290 H262 0.929 1_554 S
C290 C291 1.390 . S
C290 N293 1.391 . S
C291 H263 0.930 . S
C291 C290 1.390 . S
C291 C292 1.392 . S
C292 H264 0.929 . S
C292 C289 1.391 . S
C292 C291 1.392 . S
N293 Co237 2.257 . S
N293 C290 1.391 . S
N293 C294 1.388 . S
C294 H265 0.930 . S
C294 C289 1.391 . S
C294 N293 1.388 . S
Co295 O297 2.143 . S
Co295 O303 2.074 1_545 S
Co295 O306 2.093 . S
Co295 O319 2.097 . S
Co295 N336 2.151 1_545 S
Co295 N344 2.214 1_455 S
Co296 O297 2.160 . S
Co296 O302 2.060 1_545 S
Co296 O312 2.057 . S
Co296 O327 2.037 1_556 S
Co296 N331 2.145 1_556 S
Co296 N352 2.257 . S
O297 Co295 2.143 . S
O297 Co296 2.160 . S
C298 O299 1.278 . S
C298 O306 1.224 . S
O299 C298 1.278 . S
C300 O301 1.245 . S
C300 O312 1.232 . S
O301 C300 1.245 . S
O302 Co296 2.060 1_565 S
O302 C328 1.271 . S
O303 Co295 2.074 1_565 S
O303 C328 1.257 . S
H304 C329 0.930 . S
H305 C335 0.930 1_545 S
O306 Co295 2.093 . S
O306 C298 1.224 . S
H307 C339 0.929 . S
H308 C341 0.930 . S
H309 C342 0.930 . S
H310 C340 0.929 . S
H311 C343 0.928 . S
O312 Co296 2.057 . S
O312 C300 1.232 . S
H313 C332 0.929 . S
H314 C333 0.929 . S
H315 C345 0.931 . S
H316 C337 0.929 . S
H317 C346 0.930 . S
H318 C338 0.931 . S
O319 Co295 2.097 . S
O319 C347 1.214 . S
H320 C348 0.929 . S
H321 C349 0.929 1_554 S
H322 C350 0.930 . S
H323 C351 0.929 . S
H324 C353 0.930 . S
H325 C330 0.930 . S
H326 C334 0.930 . S
O327 Co296 2.037 1_554 S
O327 C347 1.234 1_554 S
C328 O302 1.271 . S
C328 O303 1.257 . S
C329 H304 0.930 . S
C329 C332 1.388 . S
C329 C334 1.418 . S
C330 H325 0.930 . S
C330 C333 1.404 . S
C330 C334 1.353 . S
N331 Co296 2.145 1_554 S
N331 C332 1.397 . S
N331 C333 1.334 . S
C332 H313 0.929 . S
C332 C329 1.388 . S
C332 N331 1.397 . S
C333 H314 0.929 . S
C333 C330 1.404 . S
C333 N331 1.334 . S
C334 H326 0.930 . S
C334 C329 1.418 . S
C334 C330 1.353 . S
C335 H305 0.930 1_565 S
C335 N336 1.330 . S
C335 C337 1.446 . S
N336 Co295 2.151 1_565 S
N336 C335 1.330 . S
N336 C340 1.418 . S
C337 H316 0.929 . S
C337 C335 1.446 . S
C337 C338 1.332 . S
C338 H318 0.931 . S
C338 C337 1.332 . S
C338 C339 1.267 . S
C339 H307 0.929 . S
C339 C338 1.267 . S
C339 C340 1.251 . S
C340 H310 0.929 . S
C340 N336 1.418 . S
C340 C339 1.251 . S
C341 H308 0.930 . S
C341 C343 1.406 1_565 S
C341 C346 1.261 . S
C342 H309 0.930 . S
C342 N344 1.325 . S
C342 C345 1.357 . S
C343 H311 0.928 . S
C343 C341 1.406 1_545 S
C343 N344 1.261 . S
N344 Co295 2.214 1_655 S
N344 C342 1.325 . S
N344 C343 1.261 . S
C345 H315 0.931 . S
C345 C342 1.357 . S
C345 C346 1.312 1_545 S
C346 H317 0.930 . S
C346 C341 1.261 . S
C346 C345 1.312 1_565 S
C347 O319 1.214 . S
C347 O327 1.234 1_556 S
C348 H320 0.929 . S
C348 C351 1.391 . S
C348 C353 1.391 . S
C349 H321 0.929 1_556 S
C349 C350 1.390 . S
C349 N352 1.391 . S
C350 H322 0.930 . S
C350 C349 1.390 . S
C350 C351 1.392 . S
C351 H323 0.929 . S
C351 C348 1.391 . S
C351 C350 1.392 . S
N352 Co296 2.257 . S
N352 C349 1.391 . S
N352 C353 1.388 . S
C353 H324 0.930 . S
C353 C348 1.391 . S
C353 N352 1.388 . S
Co354 O356 2.143 . S
Co354 O362 2.074 1_455 S
Co354 O365 2.093 . S
Co354 O378 2.097 . S
Co354 N395 2.151 1_455 S
Co354 N403 2.214 1_565 S
Co355 O356 2.160 . S
Co355 O361 2.060 1_455 S
Co355 O371 2.057 . S
Co355 O386 2.037 1_554 S
Co355 N390 2.145 1_554 S
Co355 N411 2.257 . S
O356 Co354 2.143 . S
O356 Co355 2.160 . S
C357 O358 1.278 . S
C357 O365 1.224 . S
O358 C357 1.278 . S
C359 O360 1.245 . S
C359 O371 1.232 . S
O360 C359 1.245 . S
O361 Co355 2.060 1_655 S
O361 C387 1.271 . S
O362 Co354 2.074 1_655 S
O362 C387 1.257 . S
H363 C388 0.930 . S
H364 C394 0.930 1_455 S
O365 Co354 2.093 . S
O365 C357 1.224 . S
H366 C398 0.929 . S
H367 C400 0.930 . S
H368 C401 0.930 . S
H369 C399 0.929 . S
H370 C402 0.928 . S
O371 Co355 2.057 . S
O371 C359 1.232 . S
H372 C391 0.929 . S
H373 C392 0.929 . S
H374 C404 0.931 . S
H375 C396 0.929 . S
H376 C405 0.930 . S
H377 C397 0.931 . S
O378 Co354 2.097 . S
O378 C406 1.214 . S
H379 C407 0.929 . S
H380 C408 0.929 1_556 S
H381 C409 0.930 . S
H382 C410 0.929 . S
H383 C412 0.930 . S
H384 C389 0.930 . S
H385 C393 0.930 . S
O386 Co355 2.037 1_556 S
O386 C406 1.234 1_556 S
C387 O361 1.271 . S
C387 O362 1.257 . S
C388 H363 0.930 . S
C388 C391 1.388 . S
C388 C393 1.418 . S
C389 H384 0.930 . S
C389 C392 1.404 . S
C389 C393 1.353 . S
N390 Co355 2.145 1_556 S
N390 C391 1.397 . S
N390 C392 1.334 . S
C391 H372 0.929 . S
C391 C388 1.388 . S
C391 N390 1.397 . S
C392 H373 0.929 . S
C392 C389 1.404 . S
C392 N390 1.334 . S
C393 H385 0.930 . S
C393 C388 1.418 . S
C393 C389 1.353 . S
C394 H364 0.930 1_655 S
C394 N395 1.330 . S
C394 C396 1.446 . S
N395 Co354 2.151 1_655 S
N395 C394 1.330 . S
N395 C399 1.418 . S
C396 H375 0.929 . S
C396 C394 1.446 . S
C396 C397 1.332 . S
C397 H377 0.931 . S
C397 C396 1.332 . S
C397 C398 1.267 . S
C398 H366 0.929 . S
C398 C397 1.267 . S
C398 C399 1.251 . S
C399 H369 0.929 . S
C399 N395 1.418 . S
C399 C398 1.251 . S
C400 H367 0.930 . S
C400 C402 1.406 1_655 S
C400 C405 1.261 . S
C401 H368 0.930 . S
C401 N403 1.325 . S
C401 C404 1.357 . S
C402 H370 0.928 . S
C402 C400 1.406 1_455 S
C402 N403 1.261 . S
N403 Co354 2.214 1_545 S
N403 C401 1.325 . S
N403 C402 1.261 . S
C404 H374 0.931 . S
C404 C401 1.357 . S
C404 C405 1.312 1_455 S
C405 H376 0.930 . S
C405 C400 1.261 . S
C405 C404 1.312 1_655 S
C406 O378 1.214 . S
C406 O386 1.234 1_554 S
C407 H379 0.929 . S
C407 C410 1.391 . S
C407 C412 1.391 . S
C408 H380 0.929 1_554 S
C408 C409 1.390 . S
C408 N411 1.391 . S
C409 H381 0.930 . S
C409 C408 1.390 . S
C409 C410 1.392 . S
C410 H382 0.929 . S
C410 C407 1.391 . S
C410 C409 1.392 . S
N411 Co355 2.257 . S
N411 C408 1.391 . S
N411 C412 1.388 . S
C412 H383 0.930 . S
C412 C407 1.391 . S
C412 N411 1.388 . S
Co413 O415 2.143 . S
Co413 O421 2.074 1_565 S
Co413 O424 2.093 . S
Co413 O437 2.097 . S
Co413 N454 2.151 1_565 S
Co413 N462 2.214 1_655 S
Co414 O415 2.160 . S
Co414 O420 2.060 1_565 S
Co414 O430 2.057 . S
Co414 O445 2.037 1_556 S
Co414 N449 2.145 1_556 S
Co414 N470 2.257 . S
O415 Co413 2.143 . S
O415 Co414 2.160 . S
C416 O417 1.278 . S
C416 O424 1.224 . S
O417 C416 1.278 . S
C418 O419 1.245 . S
C418 O430 1.232 . S
O419 C418 1.245 . S
O420 Co414 2.060 1_545 S
O420 C446 1.271 . S
O421 Co413 2.074 1_545 S
O421 C446 1.257 . S
H422 C447 0.930 . S
H423 C453 0.930 1_565 S
O424 Co413 2.093 . S
O424 C416 1.224 . S
H425 C457 0.929 . S
H426 C459 0.930 . S
H427 C460 0.930 . S
H428 C458 0.929 . S
H429 C461 0.928 . S
O430 Co414 2.057 . S
O430 C418 1.232 . S
H431 C450 0.929 . S
H432 C451 0.929 . S
H433 C463 0.931 . S
H434 C455 0.929 . S
H435 C464 0.930 . S
H436 C456 0.931 . S
O437 Co413 2.097 . S
O437 C465 1.214 . S
H438 C466 0.929 . S
H439 C467 0.929 1_554 S
H440 C468 0.930 . S
H441 C469 0.929 . S
H442 C471 0.930 . S
H443 C448 0.930 . S
H444 C452 0.930 . S
O445 Co414 2.037 1_554 S
O445 C465 1.234 1_554 S
C446 O420 1.271 . S
C446 O421 1.257 . S
C447 H422 0.930 . S
C447 C450 1.388 . S
C447 C452 1.418 . S
C448 H443 0.930 . S
C448 C451 1.404 . S
C448 C452 1.353 . S
N449 Co414 2.145 1_554 S
N449 C450 1.397 . S
N449 C451 1.334 . S
C450 H431 0.929 . S
C450 C447 1.388 . S
C450 N449 1.397 . S
C451 H432 0.929 . S
C451 C448 1.404 . S
C451 N449 1.334 . S
C452 H444 0.930 . S
C452 C447 1.418 . S
C452 C448 1.353 . S
C453 H423 0.930 1_545 S
C453 N454 1.330 . S
C453 C455 1.446 . S
N454 Co413 2.151 1_545 S
N454 C453 1.330 . S
N454 C458 1.418 . S
C455 H434 0.929 . S
C455 C453 1.446 . S
C455 C456 1.332 . S
C456 H436 0.931 . S
C456 C455 1.332 . S
C456 C457 1.267 . S
C457 H425 0.929 . S
C457 C456 1.267 . S
C457 C458 1.251 . S
C458 H428 0.929 . S
C458 N454 1.418 . S
C458 C457 1.251 . S
C459 H426 0.930 . S
C459 C461 1.406 1_545 S
C459 C464 1.261 . S
C460 H427 0.930 . S
C460 N462 1.325 . S
C460 C463 1.357 . S
C461 H429 0.928 . S
C461 C459 1.406 1_565 S
C461 N462 1.261 . S
N462 Co413 2.214 1_455 S
N462 C460 1.325 . S
N462 C461 1.261 . S
C463 H433 0.931 . S
C463 C460 1.357 . S
C463 C464 1.312 1_565 S
C464 H435 0.930 . S
C464 C459 1.261 . S
C464 C463 1.312 1_545 S
C465 O437 1.214 . S
C465 O445 1.234 1_556 S
C466 H438 0.929 . S
C466 C469 1.391 . S
C466 C471 1.391 . S
C467 H439 0.929 1_556 S
C467 C468 1.390 . S
C467 N470 1.391 . S
C468 H440 0.930 . S
C468 C467 1.390 . S
C468 C469 1.392 . S
C469 H441 0.929 . S
C469 C466 1.391 . S
C469 C468 1.392 . S
N470 Co414 2.257 . S
N470 C467 1.391 . S
N470 C471 1.388 . S
C471 H442 0.930 . S
C471 C466 1.391 . S
C471 N470 1.388 . S
C123 C5 1.695 1_655 S
C182 C64 1.695 1_545 S
C241 C359 1.695 1_655 S
C300 C418 1.695 1_545 S
C92 C52 1.503 . S
C111 C151 1.503 . S
C210 C170 1.503 . S
C229 C33 1.503 . S
C446 C288 1.503 1_556 S
C347 C269 1.503 1_556 S
C406 C328 1.503 1_554 S
C465 C387 1.503 1_556 S
C3 C298 1.641 . S
C357 C62 1.641 . S
C121 C416 1.641 . S
C180 C239 1.641 . S
