# Generated by pormake.
# Topology bsn, (6)-cn, num edge types: 1
# Building blocks:
#     Node 0, Type 0, BuildingBlock: BETDEL_clean_sbu_0, # of connection points: 6
#     Node 1, Type 0, BuildingBlock: BETDEL_clean_sbu_0, # of connection points: 6
#     Node 2, Type 0, BuildingBlock: BETDEL_clean_sbu_0, # of connection points: 6
#     Node 3, Type 0, BuildingBlock: BETDEL_clean_sbu_0, # of connection points: 6
#     Edge 4, Type (0, 0), BuildingBlock: MIFKUJ_clean_linker_0, # of connection points: 2
#     Edge 5, Type (0, 0), BuildingBlock: MIFKUJ_clean_linker_0, # of connection points: 2
#     Edge 6, Type (0, 0), BuildingBlock: MIFKUJ_clean_linker_0, # of connection points: 2
#     Edge 7, Type (0, 0), BuildingBlock: MIFKUJ_clean_linker_0, # of connection points: 2
#     Edge 8, Type (0, 0), BuildingBlock: MIFKUJ_clean_linker_0, # of connection points: 2
#     Edge 9, Type (0, 0), BuildingBlock: MIFKUJ_clean_linker_0, # of connection points: 2
#     Edge 10, Type (0, 0), BuildingBlock: MIFKUJ_clean_linker_0, # of connection points: 2
#     Edge 11, Type (0, 0), BuildingBlock: MIFKUJ_clean_linker_0, # of connection points: 2
#     Edge 12, Type (0, 0), BuildingBlock: MIFKUJ_clean_linker_0, # of connection points: 2
#     Edge 13, Type (0, 0), BuildingBlock: MIFKUJ_clean_linker_0, # of connection points: 2
#     Edge 14, Type (0, 0), BuildingBlock: MIFKUJ_clean_linker_0, # of connection points: 2
#     Edge 15, Type (0, 0), BuildingBlock: MIFKUJ_clean_linker_0, # of connection points: 2
# Relax obj value: 0.363
# Max RMSD: 0.270
# Mean RMSD: 0.270
data_MOF--net-bsn--node1-BETDEL_clean_sbu_0--edge1-MIFKUJ_clean_linker_0
_symmetry_space_group_name_H-M    P1
_symmetry_Int_Tables_number       1
_symmetry_cell_setting            triclinic
loop_
_symmetry_equiv_pos_as_xyz
'x, y, z'
_cell_length_a     41.416257
_cell_length_b     41.413846
_cell_length_c     18.490691
_cell_angle_alpha  93.648977
_cell_angle_beta   90.912858
_cell_angle_gamma 89.770097
loop_
_atom_site_label
_atom_site_type_symbol
_atom_site_fract_x
_atom_site_fract_y
_atom_site_fract_z
_atom_type_partial_charge
Dy0 Dy 0.05211 0.25191 0.34966 0.0
C1 C 0.91243 0.25077 0.37137 0.0
C2 C 0.11416 0.25713 0.3037 0.0
Dy3 Dy 0.97802 0.2559 0.36389 0.0
O4 O 0.10335 0.26957 0.36491 0.0
O5 O 0.09112 0.24184 0.26771 0.0
O6 O 0.0579 0.22583 0.45125 0.0
O7 O 0.019 0.25786 0.43945 0.0
C8 C 0.03089 0.23682 0.47838 0.0
C9 C 1.00209 0.27299 0.23842 0.0
O10 O 0.99112 0.3039 0.41597 0.0
O11 O 0.04184 0.30582 0.36432 0.0
O12 O 0.93051 0.23584 0.32332 0.0
O13 O 0.93036 0.26799 0.41756 0.0
O14 O 0.97676 0.28628 0.26777 0.0
O15 O 1.01156 0.25004 0.27452 0.0
O16 O 0.03943 0.19976 0.32571 0.0
O17 O 0.9875 0.20297 0.37203 0.0
C18 C 0.01746 0.31997 0.40041 0.0
C19 C 1.01261 0.18597 0.34702 0.0
Dy20 Dy 0.01846 0.79617 0.58992 0.0
C21 C 0.02537 0.65763 0.61404 0.0
C22 C 0.0142 0.8565 0.53874 0.0
Dy23 Dy 0.01484 0.72221 0.60425 0.0
O24 O 0.02228 0.85033 0.60456 0.0
O25 O 1.00819 0.82968 0.50071 0.0
O26 O 0.04 0.80457 0.70072 0.0
O27 O 1.00861 0.76508 0.67697 0.0
C28 C 0.02789 0.77815 0.72328 0.0
C29 C 1.00413 0.74288 0.47279 0.0
O30 O 0.96363 0.7337 0.62959 0.0
O31 O 0.96459 0.78757 0.5982 0.0
O32 O 0.03907 0.67578 0.56901 0.0
O33 O 1.00588 0.67492 0.65564 0.0
O34 O 0.98963 0.71815 0.49659 0.0
O35 O 0.02512 0.75366 0.51772 0.0
O36 O 0.07066 0.7824 0.57856 0.0
O37 O 0.06589 0.73441 0.63571 0.0
C38 C 0.94893 0.76142 0.61735 0.0
C39 C 0.08367 0.75801 0.61227 0.0
Dy40 Dy 0.55139 0.77111 0.85183 0.0
C41 C 0.41315 0.77359 0.86097 0.0
C42 C 0.61403 0.76843 0.80777 0.0
Dy43 Dy 0.47849 0.76482 0.86079 0.0
O44 O 0.60335 0.78615 0.86266 0.0
O45 O 0.59049 0.75179 0.77687 0.0
O46 O 0.55545 0.79758 0.96016 0.0
O47 O 0.51818 0.76376 0.93972 0.0
C48 C 0.52908 0.78554 -0.01584 0.0
C49 C 0.50396 0.74891 0.7316 0.0
O50 O 0.48729 0.81749 0.88737 0.0
O51 O 0.53528 0.82085 0.82664 0.0
O52 O 0.43334 0.78781 0.82089 0.0
O53 O 0.42872 0.75464 0.90324 0.0
O54 O 0.47955 0.73422 0.75712 0.0
O55 O 0.51212 0.77251 0.7739 0.0
O56 O 0.5456 0.7176 0.8679 0.0
O57 O 0.49086 0.71573 0.89544 0.0
C58 C 0.51014 0.83485 0.85928 0.0
C59 C 0.51956 0.70169 0.88749 0.0
Dy60 Dy 0.5138 0.30854 0.11555 0.0
C61 C 0.50624 0.16945 0.10697 0.0
C62 C 0.52048 0.37122 0.08029 0.0
Dy63 Dy 0.51514 0.23495 0.11205 0.0
O64 O 0.53113 0.35977 0.14002 0.0
O65 O 0.5064 0.34847 0.04003 0.0
O66 O 0.4853 0.31321 0.21758 0.0
O67 O 0.51625 0.27333 0.1983 0.0
C68 C 0.49435 0.28514 0.23873 0.0
C69 C 0.53374 0.26065 -0.01107 0.0
O70 O 0.46222 0.24541 0.12363 0.0
O71 O 0.46163 0.29866 0.09089 0.0
O72 O 0.49026 0.18957 0.06914 0.0
O73 O 0.52683 0.18521 0.14958 0.0
O74 O 0.54629 0.23486 0.01387 0.0
O75 O 0.51115 0.27031 0.0295 0.0
O76 O 0.56704 0.29709 0.12902 0.0
O77 O 0.56251 0.2451 0.1674 0.0
C78 C 0.44653 0.27175 0.10555 0.0
C79 C 0.57971 0.27148 0.15913 0.0
H80 H 0.98206 0.35068 0.50685 0.0
H81 H 0.98618 0.40662 0.55478 0.0
H82 H 0.06275 0.42299 0.40598 0.0
H83 H 0.05947 0.36631 0.35902 0.0
H84 H 0.07632 0.45181 0.53509 0.0
H85 H 0.98379 0.44836 0.3749 0.0
H86 H 0.93135 0.42809 0.32644 0.0
H87 H 0.8875 0.45259 0.53163 0.0
H88 H 0.93981 0.47263 0.58163 0.0
H89 H 0.06625 0.62177 0.52936 0.0
H90 H 0.0672 0.56325 0.50708 0.0
H91 H 0.9928 0.55426 0.6653 0.0
H92 H 0.99127 0.61347 0.68675 0.0
H93 H 0.97809 0.52086 0.54066 0.0
H94 H 0.07146 0.52885 0.69673 0.0
H95 H 0.12409 0.55073 0.74002 0.0
H96 H 0.16677 0.51928 0.53736 0.0
H97 H 0.1143 0.4976 0.49243 0.0
C98 C 0.99973 0.36614 0.48392 0.0
C99 C 0.02019 0.35414 0.42838 0.0
C100 C 1.00202 0.3982 0.51145 0.0
C101 C 0.02433 0.41924 0.48309 0.0
C102 C 0.04525 0.40722 0.42853 0.0
C103 C 0.04328 0.37489 0.40152 0.0
C104 C 0.02542 0.45382 0.50994 0.0
C105 C 0.05493 0.46701 0.53562 0.0
C106 C 0.99733 0.47347 0.51235 0.0
C107 C 0.96579 0.4617 0.48219 0.0
C108 C 0.96301 0.44923 0.40982 0.0
C109 C 0.93331 0.43781 0.38206 0.0
C110 C 0.90613 0.43897 0.42598 0.0
C111 C 0.90859 0.45167 0.4977 0.0
C112 C 0.93825 0.46308 0.52576 0.0
C113 C 0.05045 0.60734 0.5604 0.0
C114 C 0.02865 0.62211 0.60978 0.0
C115 C 0.05115 0.57382 0.54785 0.0
C116 C 0.03033 0.55427 0.58503 0.0
C117 C 1.00917 0.5689 0.6362 0.0
C118 C 1.00841 0.60264 0.6487 0.0
C119 C 0.02901 0.51894 0.56561 0.0
C120 C 0.99944 0.50559 0.541 0.0
C121 C 0.05709 0.49929 0.56364 0.0
C122 C 0.08886 0.51176 0.59106 0.0
C123 C 0.09203 0.52674 0.66124 0.0
C124 C 0.12184 0.5391 0.68609 0.0
C125 C 0.14874 0.53645 0.64142 0.0
C126 C 0.14591 0.52132 0.5719 0.0
C127 C 0.11615 0.50894 0.54677 0.0
H128 H 0.17179 0.5461 0.66071 0.0
H129 H 0.88316 0.4301 0.4044 0.0
H130 H 0.64245 0.72612 0.70845 0.0
H131 H 0.69921 0.72543 0.67151 0.0
H132 H 0.71799 0.80961 0.81527 0.0
H133 H 0.66163 0.81004 0.85335 0.0
H134 H 0.74343 0.81197 0.67 0.0
H135 H 0.74141 0.7433 0.87195 0.0
H136 H 0.72177 0.69757 0.93805 0.0
H137 H 0.74912 0.63119 0.76157 0.0
H138 H 0.7685 0.67663 0.69394 0.0
H139 H 0.91489 0.81306 0.67519 0.0
H140 H 0.85746 0.81485 0.70441 0.0
H141 H 0.84662 0.71661 0.61426 0.0
H142 H 0.90439 0.71422 0.58941 0.0
H143 H 0.81576 0.72141 0.7301 0.0
H144 H 0.81863 0.78788 0.52695 0.0
H145 H 0.83725 0.83263 0.45638 0.0
H146 H 0.80712 0.90159 0.62537 0.0
H147 H 0.78867 0.85722 0.69737 0.0
C148 C 0.65874 0.74443 0.73205 0.0
C149 C 0.64781 0.76803 0.78395 0.0
C150 C 0.69106 0.74402 0.71098 0.0
C151 C 0.71269 0.76746 0.74087 0.0
C152 C 0.70161 0.79139 0.79158 0.0
C153 C 0.6695 0.79151 0.81345 0.0
C154 C 0.74711 0.76671 0.72055 0.0
C155 C 0.75942 0.79235 0.68348 0.0
C156 C 0.76759 0.74071 0.73685 0.0
C157 C 0.75606 0.71339 0.77756 0.0
C158 C 0.74295 0.71899 0.84695 0.0
C159 C 0.73193 0.69311 0.88475 0.0
C160 C 0.7341 0.6615 0.85393 0.0
C161 C 0.7474 0.6557 0.78532 0.0
C162 C 0.75842 0.68149 0.74726 0.0
C163 C 0.90009 0.79202 0.66106 0.0
C164 C 0.91391 0.76357 0.62973 0.0
C165 C 0.86723 0.79306 0.67745 0.0
C166 C 0.84739 0.76604 0.66041 0.0
C167 C 0.86129 0.73778 0.62809 0.0
C168 C 0.89426 0.73645 0.61361 0.0
C169 C 0.81246 0.76665 0.67849 0.0
C170 C 0.79994 0.74101 0.71566 0.0
C171 C 0.79169 0.79247 0.66124 0.0
C172 C 0.80253 0.8192 0.61781 0.0
C173 C 0.81615 0.81258 0.54924 0.0
C174 C 0.82665 0.83787 0.50896 0.0
C175 C 0.82344 0.86992 0.53645 0.0
C176 C 0.80962 0.87675 0.60418 0.0
C177 C 0.79911 0.85154 0.64471 0.0
H178 H 0.8316 0.88947 0.50521 0.0
H179 H 0.72557 0.6415 0.88329 0.0
H180 H 0.48325 0.40177 -0.01611 0.0
H181 H 0.48659 0.45796 0.95242 0.0
H182 H 0.56809 0.47294 0.09923 0.0
H183 H 0.56321 0.41705 0.13443 0.0
H184 H 0.53405 0.52339 0.11091 0.0
H185 H 0.57462 0.46321 0.90449 0.0
H186 H 0.57571 0.42075 0.80481 0.0
H187 H 0.48959 0.46009 0.71202 0.0
H188 H 0.48771 0.50254 0.81169 0.0
H189 H 0.57347 0.67051 0.93547 0.0
H190 H 0.57754 0.61416 0.96912 0.0
H191 H 0.47731 0.59926 0.91042 0.0
H192 H 0.47279 0.65561 0.87866 0.0
H193 H 0.5272 0.54974 0.85303 0.0
H194 H 0.48818 0.60889 0.07181 0.0
H195 H 0.49249 0.65215 0.16947 0.0
H196 H 0.58444 0.61468 0.23534 0.0
H197 H 0.58091 0.5715 0.13716 0.0
C198 C 0.50187 0.41709 0.00939 0.0
C199 C 0.52311 0.40512 0.06118 0.0
C200 C 0.50397 0.44918 -0.00905 0.0
C201 C 0.52818 0.46968 0.02183 0.0
C202 C 0.54928 0.4577 0.07426 0.0
C203 C 0.54659 0.42576 0.09421 0.0
C204 C 0.53096 0.50363 0.0001 0.0
C205 C 0.53311 0.52896 0.05439 0.0
C206 C 0.52975 0.51128 0.92635 0.0
C207 C 0.5309 0.48593 0.86591 0.0
C208 C 0.5558 0.4627 0.86306 0.0
C209 C 0.55657 0.43864 0.80653 0.0
C210 C 0.5327 0.43768 0.7522 0.0
C211 C 0.50805 0.46085 0.75417 0.0
C212 C 0.50715 0.48494 0.81062 0.0
C213 C 0.55237 0.65515 0.92944 0.0
C214 C 0.52279 0.66743 0.90458 0.0
C215 C 0.55472 0.62308 0.94885 0.0
C216 C 0.5277 0.60271 0.94227 0.0
C217 C 0.4984 0.61468 0.91582 0.0
C218 C 0.49585 0.64686 0.89796 0.0
C219 C 0.52965 0.56894 0.96372 0.0
C220 C 0.52846 0.54382 0.90934 0.0
C221 C 0.53258 0.5615 0.03706 0.0
C222 C 0.53447 0.58722 0.09657 0.0
C223 C 0.50947 0.61007 0.10664 0.0
C224 C 0.51174 0.63453 0.16219 0.0
C225 C 0.53877 0.63623 0.20844 0.0
C226 C 0.56354 0.61338 0.19938 0.0
C227 C 0.56141 0.5889 0.14381 0.0
H228 H 0.54049 0.65519 0.25141 0.0
H229 H 0.53332 0.41902 0.7085 0.0
H230 H 0.87431 0.21639 0.27446 0.0
H231 H 0.81689 0.22442 0.24958 0.0
H232 H 0.81284 0.29779 0.42562 0.0
H233 H 0.87063 0.28961 0.45123 0.0
H234 H 0.7591 0.26066 0.42018 0.0
H235 H 0.81732 0.32116 0.25849 0.0
H236 H 0.85876 0.33202 0.16905 0.0
H237 H 0.81595 0.2613 0.01732 0.0
H238 H 0.77444 0.24965 0.10635 0.0
H239 H 0.62391 0.32048 0.15192 0.0
H240 H 0.67888 0.32277 0.20278 0.0
H241 H 0.66634 0.22857 0.28501 0.0
H242 H 0.61161 0.22602 0.23453 0.0
H243 H 0.72877 0.28571 0.16905 0.0
H244 H 0.70586 0.22031 0.43063 0.0
H245 H 0.66965 0.22189 0.53568 0.0
H246 H 0.64551 0.32079 0.502 0.0
H247 H 0.68091 0.31947 0.39566 0.0
C248 C 0.86111 0.23389 0.30867 0.0
C249 C 0.87691 0.25249 0.36462 0.0
C250 C 0.82833 0.2386 0.29407 0.0
C251 C 0.81072 0.26214 0.33482 0.0
C252 C 0.82603 0.27961 0.39327 0.0
C253 C 0.85897 0.27489 0.40796 0.0
C254 C 0.77671 0.26909 0.31419 0.0
C255 C 0.75244 0.2661 0.36526 0.0
C256 C 0.7681 0.2775 0.24336 0.0
C257 C 0.79291 0.28436 0.18935 0.0
C258 C 0.81687 0.30773 0.20626 0.0
C259 C 0.84034 0.31406 0.15562 0.0
C260 C 0.83999 0.29735 0.0876 0.0
C261 C 0.81615 0.27424 0.07006 0.0
C262 C 0.79263 0.26778 0.12058 0.0
C263 C 0.63282 0.30025 0.18087 0.0
C264 C 0.61333 0.27297 0.18855 0.0
C265 C 0.66422 0.30167 0.21025 0.0
C266 C 0.67666 0.27604 0.24863 0.0
C267 C 0.65715 0.24893 0.25687 0.0
C268 C 0.62591 0.24736 0.22705 0.0
C269 C 0.7109 0.27613 0.27441 0.0
C270 C 0.73532 0.28034 0.22404 0.0
C271 C 0.71971 0.27001 0.34658 0.0
C272 C 0.69575 0.26968 0.405 0.0
C273 C 0.69248 0.24223 0.44519 0.0
C274 C 0.67216 0.2431 0.50497 0.0
C275 C 0.65543 0.27148 0.52573 0.0
C276 C 0.65857 0.29887 0.486 0.0
C277 C 0.6784 0.29793 0.42539 0.0
H278 H 0.63986 0.27219 0.57227 0.0
H279 H 0.85814 0.30239 0.04847 0.0
H280 H 0.40748 0.32336 0.14036 0.0
H281 H 0.34951 0.32228 0.16498 0.0
H282 H 0.3473 0.21997 0.1055 0.0
H283 H 0.40552 0.22061 0.08287 0.0
H284 H 0.29141 0.26732 0.05203 0.0
H285 H 0.3517 0.22837 0.26057 0.0
H286 H 0.3954 0.2346 0.35259 0.0
H287 H 0.35524 0.3256 0.43173 0.0
H288 H 0.31169 0.32022 0.33902 0.0
H289 H 0.14365 0.21994 0.19749 0.0
H290 H 0.19937 0.22366 0.1573 0.0
H291 H 0.21528 0.30527 0.31086 0.0
H292 H 0.16006 0.3002 0.35406 0.0
H293 H 0.26511 0.2707 0.31339 0.0
H294 H 0.20398 0.31146 0.11886 0.0
H295 H 0.16135 0.31196 0.0243 0.0
H296 H 0.20238 0.22705 0.91595 0.0
H297 H 0.24503 0.22574 0.0105 0.0
C298 C 0.39453 0.30076 0.13115 0.0
C299 C 0.41096 0.27203 0.10992 0.0
C300 C 0.36148 0.30019 0.14534 0.0
C301 C 0.3443 0.27105 0.13703 0.0
C302 C 0.36023 0.24268 0.1119 0.0
C303 C 0.39343 0.24308 0.09933 0.0
C304 C 0.31048 0.26963 0.16102 0.0
C305 C 0.28548 0.26767 0.10901 0.0
C306 C 0.303 0.27129 0.23542 0.0
C307 C 0.32866 0.27406 0.29237 0.0
C308 C 0.35236 0.24985 0.29715 0.0
C309 C 0.37708 0.2532 0.34948 0.0
C310 C 0.37813 0.28051 0.39787 0.0
C311 C 0.35442 0.30448 0.39414 0.0
C312 C 0.32972 0.30129 0.34172 0.0
C313 C 0.1591 0.23865 0.22256 0.0
C314 C 0.14762 0.25984 0.27868 0.0
C315 C 0.1909 0.24096 0.19919 0.0
C316 C 0.21155 0.26521 0.22983 0.0
C317 C 0.19996 0.28636 0.28615 0.0
C318 C 0.16838 0.28354 0.31071 0.0
C319 C 0.24536 0.26804 0.20435 0.0
C320 C 0.27061 0.27036 0.25619 0.0
C321 C 0.25295 0.2675 0.12964 0.0
C322 C 0.22753 0.26833 0.07221 0.0
C323 C 0.2038 0.29277 0.07514 0.0
C324 C 0.17965 0.2932 0.02152 0.0
C325 C 0.17911 0.26949 0.96429 0.0
C326 C 0.20281 0.24536 0.9604 0.0
C327 C 0.227 0.24478 0.01396 0.0
H328 H 0.16036 0.26986 0.92293 0.0
H329 H 0.39725 0.28305 0.43841 0.0
H330 H 0.38078 0.81439 0.7774 0.0
H331 H 0.324 0.81254 0.74155 0.0
H332 H 0.3087 0.73454 0.8811 0.0
H333 H 0.36624 0.73592 0.91634 0.0
H334 H 0.28419 0.72052 0.74734 0.0
H335 H 0.27749 0.81091 0.92146 0.0
H336 H 0.29306 0.86387 -0.02014 0.0
H337 H 0.27192 0.90942 0.78226 0.0
H338 H 0.25664 0.85665 0.72234 0.0
H339 H 0.11498 0.71827 0.70205 0.0
H340 H 0.17021 0.72204 0.74713 0.0
H341 H 0.18694 0.80272 0.61609 0.0
H342 H 0.13075 0.79984 0.57212 0.0
H343 H 0.21039 0.8152 0.74843 0.0
H344 H 0.21862 0.72529 0.57298 0.0
H345 H 0.20313 0.67258 0.51315 0.0
H346 H 0.22187 0.62636 0.71097 0.0
H347 H 0.23708 0.67887 0.77228 0.0
C348 C 0.36524 0.7972 0.80155 0.0
C349 C 0.37787 0.77529 0.8497 0.0
C350 C 0.33271 0.79626 0.78115 0.0
C351 C 0.31197 0.77358 0.809 0.0
C352 C 0.32429 0.75229 0.85906 0.0
C353 C 0.35703 0.75322 0.87953 0.0
C354 C 0.27813 0.77084 0.78155 0.0
C355 C 0.26783 0.74107 0.74879 0.0
C356 C 0.25718 0.79794 0.78117 0.0
C357 C 0.26615 0.82976 0.81726 0.0
C358 C 0.27637 0.83218 0.8903 0.0
C359 C 0.28511 0.86218 0.92371 0.0
C360 C 0.28354 0.88998 0.88476 0.0
C361 C 0.27314 0.88786 0.81236 0.0
C362 C 0.2644 0.85792 0.77868 0.0
C363 C 0.13037 0.73664 0.68182 0.0
C364 C 0.11838 0.75869 0.63301 0.0
C365 C 0.16212 0.73867 0.70767 0.0
C366 C 0.18296 0.76234 0.6843 0.0
C367 C 0.17129 0.78418 0.63476 0.0
C368 C 0.13925 0.78241 0.60937 0.0
C369 C 0.21647 0.7649 0.71406 0.0
C370 C 0.22671 0.79463 0.74715 0.0
C371 C 0.23744 0.73779 0.71445 0.0
C372 C 0.22875 0.70608 0.67737 0.0
C373 C 0.21927 0.70392 0.60384 0.0
C374 C 0.21056 0.67407 0.56965 0.0
C375 C 0.21145 0.64615 0.60828 0.0
C376 C 0.22117 0.64801 0.68113 0.0
C377 C 0.22989 0.6778 0.7156 0.0
H378 H 0.20466 0.62307 0.58174 0.0
H379 H 0.29033 0.91318 0.91071 0.0
H380 H 0.55655 0.87924 0.82963 0.0
H381 H 0.55803 0.93663 0.87149 0.0
H382 H 0.46404 0.92798 0.96516 0.0
H383 H 0.46223 0.871 0.92382 0.0
H384 H 0.51778 0.99027 0.85158 0.0
H385 H 0.46662 0.96536 0.13199 0.0
H386 H 0.46563 0.92057 0.21393 0.0
H387 H 0.55494 0.88392 0.12654 0.0
H388 H 0.55658 0.92853 0.04456 0.0
H389 H 0.46334 0.13554 0.02039 0.0
H390 H 0.46584 0.07827 -0.01968 0.0
H391 H 0.54948 0.06617 0.11813 0.0
H392 H 0.54681 0.12371 0.15931 0.0
H393 H 0.50884 0.01397 0.11729 0.0
H394 H 0.56007 0.07629 0.94292 0.0
H395 H 0.56411 0.12054 0.86041 0.0
H396 H 0.48291 0.08229 0.73608 0.0
H397 H 0.47808 0.03805 0.81854 0.0
C398 C 0.53596 0.88969 0.85804 0.0
C399 C 0.50942 0.87042 0.87398 0.0
C400 C 0.53687 0.92247 0.88194 0.0
C401 C 0.51139 0.93632 0.92249 0.0
C402 C 0.48417 0.91758 0.93496 0.0
C403 C 0.48318 0.88499 0.91101 0.0
C404 C 0.51364 0.96986 0.95517 0.0
C405 C 0.51591 0.9955 0.9096 0.0
C406 C 0.51193 0.97655 0.03109 0.0
C407 C 0.51158 0.95018 0.08183 0.0
C408 C 0.48613 0.94784 0.13058 0.0
C409 C 0.48541 0.92242 0.17688 0.0
C410 C 0.51014 0.89934 0.17521 0.0
C411 C 0.53571 0.90169 0.12748 0.0
C412 C 0.53652 0.92701 0.08105 0.0
C413 C 0.48194 0.12057 0.04314 0.0
C414 C 0.50502 0.13404 0.09258 0.0
C415 C 0.48345 0.0879 0.0199 0.0
C416 C 0.50825 0.06813 0.0451 0.0
C417 C 0.53026 0.08108 0.09771 0.0
C418 C 0.5287 0.11387 0.12125 0.0
C419 C 0.51196 0.03451 0.01348 0.0
C420 C 0.51086 1.00882 0.05928 0.0
C421 C 0.51536 0.02777 0.93782 0.0
C422 C 0.51857 0.05398 0.88725 0.0
C423 C 0.54297 0.07741 0.89822 0.0
C424 C 0.5454 0.10248 0.85144 0.0
C425 C 0.52373 0.10427 0.79313 0.0
C426 C 0.49966 0.08089 0.78131 0.0
C427 C 0.49709 0.05579 0.828 0.0
H428 H 0.52563 0.12373 0.75704 0.0
H429 H 0.50958 0.87971 0.21104 0.0
H430 H 0.03018 0.91327 0.61192 0.0
H431 H 0.02793 0.96758 0.5676 0.0
H432 H 0.99214 0.928 0.36022 0.0
H433 H 0.99513 0.87334 0.40406 0.0
H434 H 0.03594 0.97319 0.34144 0.0
H435 H 0.94113 0.96613 0.48254 0.0
H436 H 0.90926 0.95534 0.58987 0.0
H437 H 0.96167 0.02889 0.71627 0.0
H438 H 0.99417 0.03981 0.60993 0.0
H439 H 0.95916 0.14834 0.35608 0.0
H440 H 0.95711 0.09052 0.37378 0.0
H441 H 0.06109 0.08534 0.36518 0.0
H442 H 0.06323 0.1431 0.34528 0.0
H443 H 0.97809 0.06074 0.48241 0.0
H444 H 0.08571 1.00945 0.31239 0.0
H445 H 0.11284 0.01926 0.19806 0.0
H446 H 0.02571 0.06085 0.11538 0.0
H447 H 0.99793 0.0509 0.22877 0.0
C448 C 0.02182 0.91616 0.55689 0.0
C449 C 1.01264 0.88919 0.5115 0.0
C450 C 0.02044 0.94721 0.53168 0.0
C451 C 1.00942 0.95195 0.46089 0.0
C452 C 1.00065 0.92494 0.41507 0.0
C453 C 1.00223 0.89378 0.4402 0.0
C454 C 1.007 0.98517 0.4352 0.0
C455 C 0.02322 0.99235 0.37208 0.0
C456 C 0.98982 1.01003 0.47427 0.0
C457 C 0.97026 1.0036 0.53837 0.0
C458 C 0.94602 0.97984 0.53335 0.0
C459 C 0.92781 0.97373 0.594 0.0
C460 C 0.93348 0.99137 0.65988 0.0
C461 C 0.95732 0.01522 0.66522 0.0
C462 C 0.97562 0.02141 0.60475 0.0
C463 C 0.98159 0.13482 0.35686 0.0
C464 C 1.01137 0.15034 0.34942 0.0
C465 C 0.98038 0.10174 0.36717 0.0
C466 C 1.00891 0.08345 0.37072 0.0
C467 C 0.03868 0.09873 0.36142 0.0
C468 C 0.03988 0.13182 0.35021 0.0
C469 C 1.00754 0.04905 0.38921 0.0
C470 C 0.99067 0.04163 0.4513 0.0
C471 C 0.02345 0.02389 0.34814 0.0
C472 C 0.03985 0.02968 0.2794 0.0
C473 C 0.0723 0.02056 0.2697 0.0
C474 C 0.0878 0.02617 0.20507 0.0
C475 C 0.07104 0.04076 0.14958 0.0
C476 C 0.0387 0.04967 0.15851 0.0
C477 C 0.02309 0.04409 0.22299 0.0
H478 H 0.08309 0.0451 0.09962 0.0
H479 H 0.91936 0.98661 0.70677 0.0
H480 H 0.97495 0.31328 0.14412 0.0
H481 H 0.98127 0.30997 0.01243 0.0
H482 H 0.05388 0.23579 0.03093 0.0
H483 H 0.04744 0.2387 0.16206 0.0
H484 H 0.06671 0.27871 0.92387 0.0
H485 H 0.9799 0.21372 0.00715 0.0
H486 H 0.92959 0.20437 0.07204 0.0
H487 H 0.87857 0.26884 0.93726 0.0
H488 H 0.92883 0.27933 0.87297 0.0
H489 H 0.06113 0.20105 0.57742 0.0
H490 H 0.05546 0.20743 0.70906 0.0
H491 H 0.97842 0.27646 0.68301 0.0
H492 H 0.98356 0.26975 0.55151 0.0
H493 H 0.96766 0.23807 0.79374 0.0
H494 H 0.05384 0.30267 0.70912 0.0
H495 H 0.10406 0.3125 0.64427 0.0
H496 H 0.1559 0.24913 0.78025 0.0
H497 H 0.10585 0.23853 0.84523 0.0
C498 C 0.99278 0.29685 0.12011 0.0
C499 C 1.01046 0.27594 0.16265 0.0
C500 C 0.99633 0.29499 0.04521 0.0
C501 C 0.01761 0.27226 0.01259 0.0
C502 C 0.03729 0.25339 0.05557 0.0
C503 C 0.0336 0.25509 0.13031 0.0
C504 C 0.01685 0.26543 0.93379 0.0
C505 C 0.04518 0.26964 0.89529 0.0
C506 C 0.9885 0.25396 0.89716 0.0
C507 C 0.95825 0.24767 0.93591 0.0
C508 C 0.95806 0.22623 -0.00805 0.0
C509 C 0.92954 0.22072 0.02863 0.0
C510 C 0.90093 0.23614 0.00908 0.0
C511 C 0.90078 0.25706 0.95268 0.0
C512 C 0.92929 0.26284 0.91618 0.0
C513 C 0.04253 0.21701 0.59987 0.0
C514 C 0.0232 0.23542 0.55496 0.0
C515 C 0.03942 0.22073 0.67478 0.0
C516 C 0.01712 0.24303 0.70521 0.0
C517 C 0.99596 0.25937 0.66019 0.0
C518 C 0.99896 0.25555 0.5853 0.0
C519 C 0.01754 0.2513 0.78365 0.0
C520 C 0.98916 0.24731 0.82216 0.0
C521 C 0.04582 0.26304 0.82026 0.0
C522 C 0.076 0.26951 0.78149 0.0
C523 C 0.07588 0.29061 0.7248 0.0
C524 C 0.10433 0.29636 0.68808 0.0
C525 C 0.13313 0.28138 0.70799 0.0
C526 C 0.13356 0.26067 0.76479 0.0
C527 C 0.10516 0.25479 0.8016 0.0
H528 H 0.15514 0.28587 0.67952 0.0
H529 H 0.87886 0.23177 0.03742 0.0
H530 H 0.99615 0.72969 0.78373 0.0
H531 H 0.99413 0.72057 0.91301 0.0
H532 H 0.06408 0.79644 0.95866 0.0
H533 H 0.06638 0.80555 0.82951 0.0
H534 H 0.07075 0.74296 0.0467 0.0
H535 H 0.98908 0.81717 0.96245 0.0
H536 H 0.94474 0.83123 0.87943 0.0
H537 H 0.88846 0.75226 0.94834 0.0
H538 H 0.93274 0.73741 0.03096 0.0
H539 H 0.04086 0.78663 0.40817 0.0
H540 H 0.0435 0.79383 0.27824 0.0
H541 H 0.96685 0.72431 0.23828 0.0
H542 H 0.96338 0.71778 0.3683 0.0
H543 H 0.96319 0.77292 0.1463 0.0
H544 H 0.04258 0.69881 0.2317 0.0
H545 H 0.08695 0.68193 0.31156 0.0
H546 H 0.14708 0.75721 0.23873 0.0
H547 H 0.10285 0.77487 0.15922 0.0
C548 C 1.01157 0.74391 0.8213 0.0
C549 C 0.03083 0.76882 0.7977 0.0
C550 C 1.01045 0.73864 0.89471 0.0
C551 C 0.02853 0.7583 0.94464 0.0
C552 C 0.04989 0.78124 0.92042 0.0
C553 C 0.051 0.78654 0.84705 0.0
C554 C 0.02218 0.75793 0.02217 0.0
C555 C 0.04738 0.74972 0.06879 0.0
C556 C 0.99144 0.76633 0.04989 0.0
C557 C 0.96432 0.77602 0.00239 0.0
C558 C 0.9673 0.80273 0.95968 0.0
C559 C 0.94219 0.81083 0.91267 0.0
C560 C 0.91383 0.7926 0.90845 0.0
C561 C 0.91046 0.76634 0.95159 0.0
C562 C 0.93554 0.75808 -0.00144 0.0
C563 C 0.02403 0.77358 0.37176 0.0
C564 C 1.00226 0.75131 0.39748 0.0
C565 C 0.02564 0.7776 0.29783 0.0
C566 C 1.00586 0.759 0.24921 0.0
C567 C 0.9824 0.73866 0.27533 0.0
C568 C 0.98059 0.73483 0.34929 0.0
C569 C 1.01187 0.75815 0.1712 0.0
C570 C 0.98658 0.76611 0.12438 0.0
C571 C 0.04247 0.74924 0.14322 0.0
C572 C 0.06931 0.73835 0.19005 0.0
C573 C 0.0652 0.71189 0.23307 0.0
C574 C 0.09032 0.70218 0.27823 0.0
C575 C 0.11979 0.71854 0.28035 0.0
C576 C 0.12423 0.74459 0.2371 0.0
C577 C 0.09914 0.75445 0.19194 0.0
H578 H 0.13921 0.711 0.31539 0.0
H579 H 0.89446 0.79884 0.87184 0.0
H580 H 0.48267 0.75228 0.04993 0.0
H581 H 0.47752 0.74751 0.18038 0.0
H582 H 0.55301 0.81819 0.22141 0.0
H583 H 0.55842 0.82294 0.09106 0.0
H584 H 0.56543 0.75919 0.28072 0.0
H585 H 0.48109 0.83795 0.27451 0.0
H586 H 0.43099 0.8625 0.22915 0.0
H587 H 0.37733 0.77892 0.28213 0.0
H588 H 0.42728 0.75365 0.32667 0.0
H589 H 0.54977 0.78251 0.66494 0.0
H590 H 0.55561 0.78565 0.53412 0.0
H591 H 0.48203 0.7128 0.49548 0.0
H592 H 0.47624 0.70934 0.62611 0.0
H593 H 0.46862 0.77201 0.43461 0.0
H594 H 0.55388 0.69382 0.44333 0.0
H595 H 0.60436 0.67058 0.49017 0.0
H596 H 0.65662 0.7546 0.4346 0.0
H597 H 0.60634 0.77856 0.38825 0.0
C598 C 0.49761 0.76732 0.08694 0.0
C599 C 0.5213 0.78755 0.06104 0.0
C600 C 0.49461 0.76463 0.16116 0.0
C601 C 0.51515 0.7823 0.20983 0.0
C602 C 0.53722 0.80422 0.18418 0.0
C603 C 0.54017 0.80697 0.11003 0.0
C604 C 0.51589 0.77529 0.28656 0.0
C605 C 0.54446 0.76244 0.3149 0.0
C606 C 0.48815 0.7787 0.32966 0.0
C607 C 0.458 0.79377 0.30311 0.0
C608 C 0.45866 0.82468 0.27574 0.0
C609 C 0.43028 0.83875 0.25035 0.0
C610 C 0.401 0.82224 0.25256 0.0
C611 C 0.40004 0.79166 0.28035 0.0
C612 C 0.42839 0.77746 0.30572 0.0
C613 C 0.53548 0.76661 0.62842 0.0
C614 C 0.51222 0.74608 0.65498 0.0
C615 C 0.53887 0.76836 0.55401 0.0
C616 C 0.51902 0.7496 0.50587 0.0
C617 C 0.49737 0.72749 0.53232 0.0
C618 C 0.49416 0.72554 0.60666 0.0
C619 C 0.51817 0.75596 0.4288 0.0
C620 C 0.48957 0.76868 0.40037 0.0
C621 C 0.54592 0.75256 0.38574 0.0
C622 C 0.57627 0.73812 0.41295 0.0
C623 C 0.57609 0.70746 0.44163 0.0
C624 C 0.60467 0.69413 0.46797 0.0
C625 C 0.63366 0.71115 0.46557 0.0
C626 C 0.63414 0.74147 0.43652 0.0
C627 C 0.60561 0.75492 0.41009 0.0
H628 H 0.65576 0.7008 0.48608 0.0
H629 H 0.37903 0.83317 0.23291 0.0
H630 H 0.45988 0.31655 0.34595 0.0
H631 H 0.46093 0.30503 0.47413 0.0
H632 H 0.51525 0.21773 0.42318 0.0
H633 H 0.51512 0.22954 0.29514 0.0
H634 H 0.45084 0.24619 0.56817 0.0
H635 H 0.57528 0.22924 0.49109 0.0
H636 H 0.60958 0.24243 0.38895 0.0
H637 H 0.57183 0.33931 0.39943 0.0
H638 H 0.53682 0.32636 0.50052 0.0
H639 H 0.57102 0.23045 0.88469 0.0
H640 H 0.56257 0.23091 0.75336 0.0
H641 H 0.48812 0.30327 0.78618 0.0
H642 H 0.4962 0.30271 0.91734 0.0
H643 H 0.56258 0.2763 0.64804 0.0
H644 H 0.42348 0.27928 0.68103 0.0
H645 H 0.38322 0.26397 0.76958 0.0
H646 H 0.44785 0.19147 0.84442 0.0
H647 H 0.48823 0.20598 0.7556 0.0
C648 C 0.47132 0.29447 0.36187 0.0
C649 C 0.48828 0.27439 0.31143 0.0
C650 C 0.47159 0.28777 0.43488 0.0
C651 C 0.48851 0.26079 0.45777 0.0
C652 C 0.50224 0.23877 0.40621 0.0
C653 C 0.50233 0.24564 0.33336 0.0
C654 C 0.49806 0.25986 0.5347 0.0
C655 C 0.47516 0.25271 0.586 0.0
C656 C 0.52992 0.268 0.55715 0.0
C657 C 0.55394 0.27702 0.50376 0.0
C658 C 0.57474 0.25347 0.4722 0.0
C659 C 0.59386 0.26074 0.41377 0.0
C660 C 0.59279 0.29167 0.3876 0.0
C661 C 0.57264 0.31539 0.41981 0.0
C662 C 0.55314 0.3081 0.47754 0.0
C663 C 0.55337 0.24699 0.86377 0.0
C664 C 0.5339 0.26619 0.91105 0.0
C665 C 0.5486 0.24722 0.78883 0.0
C666 C 0.52425 0.26658 0.76041 0.0
C667 C 0.50665 0.28774 0.80733 0.0
C668 C 0.5114 0.28752 0.88215 0.0
C669 C 0.51525 0.2627 0.68265 0.0
C670 C 0.53831 0.26924 0.63083 0.0
C671 C 0.48353 0.25349 0.65991 0.0
C672 C 0.459 0.24398 0.71214 0.0
C673 C 0.42901 0.25996 0.71611 0.0
C674 C 0.40618 0.25143 0.7664 0.0
C675 C 0.41302 0.22685 0.81278 0.0
C676 C 0.44262 0.21059 0.80868 0.0
C677 C 0.4655 0.21898 0.75841 0.0
H678 H 0.39535 0.22035 0.8518 0.0
H679 H 0.60782 0.2974 0.34291 0.0
loop_
_geom_bond_atom_site_label_1
_geom_bond_atom_site_label_2
_geom_bond_distance
_geom_bond_site_symmetry_2
_ccdc_geom_bond_type
Dy0 O4 2.398 . S
Dy0 O5 2.491 . S
Dy0 O6 2.403 . S
Dy0 O7 2.664 1_455 S
Dy0 O11 2.326 . S
Dy0 O15 2.310 . S
Dy0 O16 2.351 . S
C1 O12 1.185 . S
C1 O13 1.355 . S
C2 O4 1.185 . S
C2 O5 1.355 . S
Dy3 O7 2.310 . S
Dy3 O10 2.351 . S
Dy3 O12 2.398 . S
Dy3 O13 2.491 . S
Dy3 O14 2.403 . S
Dy3 O15 2.664 1_655 S
Dy3 O17 2.326 . S
O4 Dy0 2.398 . S
O4 C2 1.185 . S
O5 Dy0 2.491 . S
O5 C2 1.355 . S
O6 Dy0 2.403 . S
O6 C8 1.254 . S
O7 Dy0 2.664 1_655 S
O7 Dy3 2.310 . S
O7 C8 1.268 1_655 S
C8 O6 1.254 . S
C8 O7 1.268 1_455 S
C9 O14 1.254 . S
C9 O15 1.268 1_655 S
O10 Dy3 2.351 . S
O10 C18 1.249 1_655 S
O11 Dy0 2.326 . S
O11 C18 1.267 . S
O12 C1 1.185 . S
O12 Dy3 2.398 . S
O13 C1 1.355 . S
O13 Dy3 2.491 . S
O14 Dy3 2.403 . S
O14 C9 1.254 . S
O15 Dy0 2.310 . S
O15 Dy3 2.664 1_455 S
O15 C9 1.268 1_455 S
O16 Dy0 2.351 . S
O16 C19 1.249 1_455 S
O17 Dy3 2.326 . S
O17 C19 1.267 . S
C18 O10 1.249 1_455 S
C18 O11 1.267 . S
C19 O16 1.249 1_655 S
C19 O17 1.267 . S
Dy20 O24 2.398 1_455 S
Dy20 O25 2.491 1_455 S
Dy20 O26 2.403 . S
Dy20 O27 2.664 . S
Dy20 O31 2.326 1_455 S
Dy20 O35 2.310 1_455 S
Dy20 O36 2.351 . S
C21 O32 1.185 . S
C21 O33 1.355 . S
C22 O24 1.185 . S
C22 O25 1.355 . S
Dy23 O27 2.310 1_655 S
Dy23 O30 2.351 . S
Dy23 O32 2.398 1_655 S
Dy23 O33 2.491 1_655 S
Dy23 O34 2.403 . S
Dy23 O35 2.664 . S
Dy23 O37 2.326 1_655 S
O24 Dy20 2.398 1_655 S
O24 C22 1.185 . S
O25 Dy20 2.491 1_655 S
O25 C22 1.355 . S
O26 Dy20 2.403 . S
O26 C28 1.254 . S
O27 Dy20 2.664 . S
O27 Dy23 2.310 1_455 S
O27 C28 1.268 . S
C28 O26 1.254 . S
C28 O27 1.268 . S
C29 O34 1.254 . S
C29 O35 1.268 . S
O30 Dy23 2.351 . S
O30 C38 1.249 . S
O31 Dy20 2.326 1_655 S
O31 C38 1.267 . S
O32 C21 1.185 . S
O32 Dy23 2.398 1_455 S
O33 C21 1.355 . S
O33 Dy23 2.491 1_455 S
O34 Dy23 2.403 . S
O34 C29 1.254 . S
O35 Dy20 2.310 1_655 S
O35 Dy23 2.664 . S
O35 C29 1.268 . S
O36 Dy20 2.351 . S
O36 C39 1.249 . S
O37 Dy23 2.326 1_455 S
O37 C39 1.267 . S
C38 O30 1.249 . S
C38 O31 1.267 . S
C39 O36 1.249 . S
C39 O37 1.267 . S
Dy40 O44 2.398 . S
Dy40 O45 2.491 . S
Dy40 O46 2.403 1_556 S
Dy40 O47 2.664 . S
Dy40 O51 2.326 . S
Dy40 O55 2.310 . S
Dy40 O56 2.351 . S
C41 O52 1.185 . S
C41 O53 1.355 . S
C42 O44 1.185 . S
C42 O45 1.355 . S
Dy43 O47 2.310 . S
Dy43 O50 2.351 . S
Dy43 O52 2.398 . S
Dy43 O53 2.491 . S
Dy43 O54 2.403 . S
Dy43 O55 2.664 . S
Dy43 O57 2.326 . S
O44 Dy40 2.398 . S
O44 C42 1.185 . S
O45 Dy40 2.491 . S
O45 C42 1.355 . S
O46 Dy40 2.403 1_554 S
O46 C48 1.254 . S
O47 Dy40 2.664 . S
O47 Dy43 2.310 . S
O47 C48 1.268 1_556 S
C48 O46 1.254 . S
C48 O47 1.268 1_554 S
C49 O54 1.254 . S
C49 O55 1.268 . S
O50 Dy43 2.351 . S
O50 C58 1.249 . S
O51 Dy40 2.326 . S
O51 C58 1.267 . S
O52 C41 1.185 . S
O52 Dy43 2.398 . S
O53 C41 1.355 . S
O53 Dy43 2.491 . S
O54 Dy43 2.403 . S
O54 C49 1.254 . S
O55 Dy40 2.310 . S
O55 Dy43 2.664 . S
O55 C49 1.268 . S
O56 Dy40 2.351 . S
O56 C59 1.249 . S
O57 Dy43 2.326 . S
O57 C59 1.267 . S
C58 O50 1.249 . S
C58 O51 1.267 . S
C59 O56 1.249 . S
C59 O57 1.267 . S
Dy60 O64 2.398 . S
Dy60 O65 2.491 . S
Dy60 O66 2.403 . S
Dy60 O67 2.664 . S
Dy60 O71 2.326 . S
Dy60 O75 2.310 . S
Dy60 O76 2.351 . S
C61 O72 1.185 . S
C61 O73 1.355 . S
C62 O64 1.185 . S
C62 O65 1.355 . S
Dy63 O67 2.310 . S
Dy63 O70 2.351 . S
Dy63 O72 2.398 . S
Dy63 O73 2.491 . S
Dy63 O74 2.403 1_554 S
Dy63 O75 2.664 . S
Dy63 O77 2.326 . S
O64 Dy60 2.398 . S
O64 C62 1.185 . S
O65 Dy60 2.491 . S
O65 C62 1.355 . S
O66 Dy60 2.403 . S
O66 C68 1.254 . S
O67 Dy60 2.664 . S
O67 Dy63 2.310 . S
O67 C68 1.268 . S
C68 O66 1.254 . S
C68 O67 1.268 . S
C69 O74 1.254 . S
C69 O75 1.268 1_556 S
O70 Dy63 2.351 . S
O70 C78 1.249 . S
O71 Dy60 2.326 . S
O71 C78 1.267 . S
O72 C61 1.185 . S
O72 Dy63 2.398 . S
O73 C61 1.355 . S
O73 Dy63 2.491 . S
O74 Dy63 2.403 1_556 S
O74 C69 1.254 . S
O75 Dy60 2.310 . S
O75 Dy63 2.664 . S
O75 C69 1.268 1_554 S
O76 Dy60 2.351 . S
O76 C79 1.249 . S
O77 Dy63 2.326 . S
O77 C79 1.267 . S
C78 O70 1.249 . S
C78 O71 1.267 . S
C79 O76 1.249 . S
C79 O77 1.267 . S
H80 C98 0.951 . S
H81 C100 0.951 . S
H82 C102 0.950 . S
H83 C103 0.950 . S
H84 C105 0.950 . S
H85 C108 0.950 . S
H86 C109 0.950 . S
H87 C111 0.950 . S
H88 C112 0.950 . S
H89 C113 0.951 . S
H90 C115 0.951 . S
H91 C117 0.950 . S
H92 C118 0.950 . S
H93 C120 0.950 1_655 S
H94 C123 0.950 . S
H95 C124 0.950 . S
H96 C126 0.950 . S
H97 C127 0.950 . S
C98 H80 0.951 . S
C98 C99 1.366 . S
C98 C100 1.388 . S
C99 C98 1.366 . S
C99 C103 1.385 . S
C100 H81 0.951 . S
C100 C98 1.388 . S
C100 C101 1.366 . S
C101 C100 1.366 . S
C101 C102 1.414 . S
C101 C104 1.499 . S
C102 H82 0.950 . S
C102 C101 1.414 . S
C102 C103 1.374 . S
C103 H83 0.950 . S
C103 C99 1.385 . S
C103 C102 1.374 . S
C104 C101 1.499 . S
C104 C105 1.373 . S
C104 C106 1.389 . S
C105 H84 0.950 . S
C105 C104 1.373 . S
C105 C121 1.377 . S
C106 C104 1.389 . S
C106 C107 1.524 1_455 S
C106 C120 1.377 . S
C107 C106 1.524 1_655 S
C107 C108 1.397 . S
C107 C112 1.363 . S
C108 H85 0.950 . S
C108 C107 1.397 . S
C108 C109 1.334 . S
C109 H86 0.950 . S
C109 C108 1.334 . S
C109 C110 1.287 . S
C110 C109 1.287 . S
C110 C111 1.524 . S
C110 H129 0.913 . S
C111 H87 0.950 . S
C111 C110 1.524 . S
C111 C112 1.415 . S
C112 H88 0.950 . S
C112 C107 1.363 . S
C112 C111 1.415 . S
C113 H89 0.951 . S
C113 C114 1.366 . S
C113 C115 1.388 . S
C114 C113 1.366 . S
C114 C118 1.385 . S
C115 H90 0.951 . S
C115 C113 1.388 . S
C115 C116 1.366 . S
C116 C115 1.366 . S
C116 C117 1.414 . S
C116 C119 1.499 . S
C117 H91 0.950 . S
C117 C116 1.414 . S
C117 C118 1.374 . S
C118 H92 0.950 . S
C118 C114 1.385 . S
C118 C117 1.374 . S
C119 C116 1.499 . S
C119 C120 1.373 . S
C119 C121 1.389 . S
C120 H93 0.950 1_455 S
C120 C106 1.377 . S
C120 C119 1.373 . S
C121 C105 1.377 . S
C121 C119 1.389 . S
C121 C122 1.524 . S
C122 C121 1.524 . S
C122 C123 1.397 . S
C122 C127 1.363 . S
C123 H94 0.950 . S
C123 C122 1.397 . S
C123 C124 1.334 . S
C124 H95 0.950 . S
C124 C123 1.334 . S
C124 C125 1.287 . S
C125 C124 1.287 . S
C125 C126 1.524 . S
C125 H128 0.999 . S
C126 H96 0.950 . S
C126 C125 1.524 . S
C126 C127 1.415 . S
C127 H97 0.950 . S
C127 C122 1.363 . S
C127 C126 1.415 . S
H128 C125 0.999 . S
H129 C110 0.913 . S
H130 C148 0.951 . S
H131 C150 0.951 . S
H132 C152 0.950 . S
H133 C153 0.950 . S
H134 C155 0.950 . S
H135 C158 0.950 . S
H136 C159 0.950 . S
H137 C161 0.950 . S
H138 C162 0.950 . S
H139 C163 0.951 . S
H140 C165 0.951 . S
H141 C167 0.950 . S
H142 C168 0.950 . S
H143 C170 0.950 . S
H144 C173 0.950 . S
H145 C174 0.950 . S
H146 C176 0.950 . S
H147 C177 0.950 . S
C148 H130 0.951 . S
C148 C149 1.366 . S
C148 C150 1.388 . S
C149 C148 1.366 . S
C149 C153 1.385 . S
C150 H131 0.951 . S
C150 C148 1.388 . S
C150 C151 1.366 . S
C151 C150 1.366 . S
C151 C152 1.414 . S
C151 C154 1.499 . S
C152 H132 0.950 . S
C152 C151 1.414 . S
C152 C153 1.374 . S
C153 H133 0.950 . S
C153 C149 1.385 . S
C153 C152 1.374 . S
C154 C151 1.499 . S
C154 C155 1.373 . S
C154 C156 1.389 . S
C155 H134 0.950 . S
C155 C154 1.373 . S
C155 C171 1.377 . S
C156 C154 1.389 . S
C156 C157 1.524 . S
C156 C170 1.377 . S
C157 C156 1.524 . S
C157 C158 1.397 . S
C157 C162 1.363 . S
C158 H135 0.950 . S
C158 C157 1.397 . S
C158 C159 1.334 . S
C159 H136 0.950 . S
C159 C158 1.334 . S
C159 C160 1.287 . S
C160 C159 1.287 . S
C160 C161 1.524 . S
C160 H179 0.913 . S
C161 H137 0.950 . S
C161 C160 1.524 . S
C161 C162 1.415 . S
C162 H138 0.950 . S
C162 C157 1.363 . S
C162 C161 1.415 . S
C163 H139 0.951 . S
C163 C164 1.366 . S
C163 C165 1.388 . S
C164 C163 1.366 . S
C164 C168 1.385 . S
C165 H140 0.951 . S
C165 C163 1.388 . S
C165 C166 1.366 . S
C166 C165 1.366 . S
C166 C167 1.414 . S
C166 C169 1.499 . S
C167 H141 0.950 . S
C167 C166 1.414 . S
C167 C168 1.374 . S
C168 H142 0.950 . S
C168 C164 1.385 . S
C168 C167 1.374 . S
C169 C166 1.499 . S
C169 C170 1.373 . S
C169 C171 1.389 . S
C170 H143 0.950 . S
C170 C156 1.377 . S
C170 C169 1.373 . S
C171 C155 1.377 . S
C171 C169 1.389 . S
C171 C172 1.524 . S
C172 C171 1.524 . S
C172 C173 1.397 . S
C172 C177 1.363 . S
C173 H144 0.950 . S
C173 C172 1.397 . S
C173 C174 1.334 . S
C174 H145 0.950 . S
C174 C173 1.334 . S
C174 C175 1.287 . S
C175 C174 1.287 . S
C175 C176 1.524 . S
C175 H178 0.999 . S
C176 H146 0.950 . S
C176 C175 1.524 . S
C176 C177 1.415 . S
C177 H147 0.950 . S
C177 C172 1.363 . S
C177 C176 1.415 . S
H178 C175 0.999 . S
H179 C160 0.913 . S
H180 C198 0.951 . S
H181 C200 0.951 . S
H182 C202 0.950 . S
H183 C203 0.950 . S
H184 C205 0.950 . S
H185 C208 0.950 . S
H186 C209 0.950 . S
H187 C211 0.950 . S
H188 C212 0.950 . S
H189 C213 0.951 . S
H190 C215 0.951 . S
H191 C217 0.950 . S
H192 C218 0.950 . S
H193 C220 0.950 . S
H194 C223 0.950 . S
H195 C224 0.950 . S
H196 C226 0.950 . S
H197 C227 0.950 . S
C198 H180 0.951 . S
C198 C199 1.366 . S
C198 C200 1.388 . S
C199 C198 1.366 . S
C199 C203 1.385 . S
C200 H181 0.951 . S
C200 C198 1.388 . S
C200 C201 1.366 . S
C201 C200 1.366 . S
C201 C202 1.414 . S
C201 C204 1.499 . S
C202 H182 0.950 . S
C202 C201 1.414 . S
C202 C203 1.374 . S
C203 H183 0.950 . S
C203 C199 1.385 . S
C203 C202 1.374 . S
C204 C201 1.499 . S
C204 C205 1.373 . S
C204 C206 1.389 1_554 S
C205 H184 0.950 . S
C205 C204 1.373 . S
C205 C221 1.377 . S
C206 C204 1.389 1_556 S
C206 C207 1.524 . S
C206 C220 1.377 . S
C207 C206 1.524 . S
C207 C208 1.397 . S
C207 C212 1.363 . S
C208 H185 0.950 . S
C208 C207 1.397 . S
C208 C209 1.334 . S
C209 H186 0.950 . S
C209 C208 1.334 . S
C209 C210 1.287 . S
C210 C209 1.287 . S
C210 C211 1.524 . S
C210 H229 0.913 . S
C211 H187 0.950 . S
C211 C210 1.524 . S
C211 C212 1.415 . S
C212 H188 0.950 . S
C212 C207 1.363 . S
C212 C211 1.415 . S
C213 H189 0.951 . S
C213 C214 1.366 . S
C213 C215 1.388 . S
C214 C213 1.366 . S
C214 C218 1.385 . S
C215 H190 0.951 . S
C215 C213 1.388 . S
C215 C216 1.366 . S
C216 C215 1.366 . S
C216 C217 1.414 . S
C216 C219 1.499 . S
C217 H191 0.950 . S
C217 C216 1.414 . S
C217 C218 1.374 . S
C218 H192 0.950 . S
C218 C214 1.385 . S
C218 C217 1.374 . S
C219 C216 1.499 . S
C219 C220 1.373 . S
C219 C221 1.389 1_556 S
C220 H193 0.950 . S
C220 C206 1.377 . S
C220 C219 1.373 . S
C221 C205 1.377 . S
C221 C219 1.389 1_554 S
C221 C222 1.524 . S
C222 C221 1.524 . S
C222 C223 1.397 . S
C222 C227 1.363 . S
C223 H194 0.950 . S
C223 C222 1.397 . S
C223 C224 1.334 . S
C224 H195 0.950 . S
C224 C223 1.334 . S
C224 C225 1.287 . S
C225 C224 1.287 . S
C225 C226 1.524 . S
C225 H228 0.999 . S
C226 H196 0.950 . S
C226 C225 1.524 . S
C226 C227 1.415 . S
C227 H197 0.950 . S
C227 C222 1.363 . S
C227 C226 1.415 . S
H228 C225 0.999 . S
H229 C210 0.913 . S
H230 C248 0.951 . S
H231 C250 0.951 . S
H232 C252 0.950 . S
H233 C253 0.950 . S
H234 C255 0.950 . S
H235 C258 0.950 . S
H236 C259 0.950 . S
H237 C261 0.950 1_556 S
H238 C262 0.950 . S
H239 C263 0.951 . S
H240 C265 0.951 . S
H241 C267 0.950 . S
H242 C268 0.950 . S
H243 C270 0.950 . S
H244 C273 0.950 . S
H245 C274 0.950 . S
H246 C276 0.950 . S
H247 C277 0.950 . S
C248 H230 0.951 . S
C248 C249 1.366 . S
C248 C250 1.388 . S
C249 C248 1.366 . S
C249 C253 1.385 . S
C250 H231 0.951 . S
C250 C248 1.388 . S
C250 C251 1.366 . S
C251 C250 1.366 . S
C251 C252 1.414 . S
C251 C254 1.499 . S
C252 H232 0.950 . S
C252 C251 1.414 . S
C252 C253 1.374 . S
C253 H233 0.950 . S
C253 C249 1.385 . S
C253 C252 1.374 . S
C254 C251 1.499 . S
C254 C255 1.373 . S
C254 C256 1.389 . S
C255 H234 0.950 . S
C255 C254 1.373 . S
C255 C271 1.377 . S
C256 C254 1.389 . S
C256 C257 1.524 . S
C256 C270 1.377 . S
C257 C256 1.524 . S
C257 C258 1.397 . S
C257 C262 1.363 . S
C258 H235 0.950 . S
C258 C257 1.397 . S
C258 C259 1.334 . S
C259 H236 0.950 . S
C259 C258 1.334 . S
C259 C260 1.287 . S
C260 C259 1.287 . S
C260 C261 1.524 . S
C260 H279 0.913 . S
C261 H237 0.950 1_554 S
C261 C260 1.524 . S
C261 C262 1.415 . S
C262 H238 0.950 . S
C262 C257 1.363 . S
C262 C261 1.415 . S
C263 H239 0.951 . S
C263 C264 1.366 . S
C263 C265 1.388 . S
C264 C263 1.366 . S
C264 C268 1.385 . S
C265 H240 0.951 . S
C265 C263 1.388 . S
C265 C266 1.366 . S
C266 C265 1.366 . S
C266 C267 1.414 . S
C266 C269 1.499 . S
C267 H241 0.950 . S
C267 C266 1.414 . S
C267 C268 1.374 . S
C268 H242 0.950 . S
C268 C264 1.385 . S
C268 C267 1.374 . S
C269 C266 1.499 . S
C269 C270 1.373 . S
C269 C271 1.389 . S
C270 H243 0.950 . S
C270 C256 1.377 . S
C270 C269 1.373 . S
C271 C255 1.377 . S
C271 C269 1.389 . S
C271 C272 1.524 . S
C272 C271 1.524 . S
C272 C273 1.397 . S
C272 C277 1.363 . S
C273 H244 0.950 . S
C273 C272 1.397 . S
C273 C274 1.334 . S
C274 H245 0.950 . S
C274 C273 1.334 . S
C274 C275 1.287 . S
C275 C274 1.287 . S
C275 C276 1.524 . S
C275 H278 0.999 . S
C276 H246 0.950 . S
C276 C275 1.524 . S
C276 C277 1.415 . S
C277 H247 0.950 . S
C277 C272 1.363 . S
C277 C276 1.415 . S
H278 C275 0.999 . S
H279 C260 0.913 . S
H280 C298 0.951 . S
H281 C300 0.951 . S
H282 C302 0.950 . S
H283 C303 0.950 . S
H284 C305 0.950 . S
H285 C308 0.950 . S
H286 C309 0.950 . S
H287 C311 0.950 . S
H288 C312 0.950 . S
H289 C313 0.951 . S
H290 C315 0.951 . S
H291 C317 0.950 . S
H292 C318 0.950 . S
H293 C320 0.950 . S
H294 C323 0.950 . S
H295 C324 0.950 . S
H296 C326 0.950 1_556 S
H297 C327 0.950 . S
C298 H280 0.951 . S
C298 C299 1.366 . S
C298 C300 1.388 . S
C299 C298 1.366 . S
C299 C303 1.385 . S
C300 H281 0.951 . S
C300 C298 1.388 . S
C300 C301 1.366 . S
C301 C300 1.366 . S
C301 C302 1.414 . S
C301 C304 1.499 . S
C302 H282 0.950 . S
C302 C301 1.414 . S
C302 C303 1.374 . S
C303 H283 0.950 . S
C303 C299 1.385 . S
C303 C302 1.374 . S
C304 C301 1.499 . S
C304 C305 1.373 . S
C304 C306 1.389 . S
C305 H284 0.950 . S
C305 C304 1.373 . S
C305 C321 1.377 . S
C306 C304 1.389 . S
C306 C307 1.524 . S
C306 C320 1.377 . S
C307 C306 1.524 . S
C307 C308 1.397 . S
C307 C312 1.363 . S
C308 H285 0.950 . S
C308 C307 1.397 . S
C308 C309 1.334 . S
C309 H286 0.950 . S
C309 C308 1.334 . S
C309 C310 1.287 . S
C310 C309 1.287 . S
C310 C311 1.524 . S
C310 H329 0.913 . S
C311 H287 0.950 . S
C311 C310 1.524 . S
C311 C312 1.415 . S
C312 H288 0.950 . S
C312 C307 1.363 . S
C312 C311 1.415 . S
C313 H289 0.951 . S
C313 C314 1.366 . S
C313 C315 1.388 . S
C314 C313 1.366 . S
C314 C318 1.385 . S
C315 H290 0.951 . S
C315 C313 1.388 . S
C315 C316 1.366 . S
C316 C315 1.366 . S
C316 C317 1.414 . S
C316 C319 1.499 . S
C317 H291 0.950 . S
C317 C316 1.414 . S
C317 C318 1.374 . S
C318 H292 0.950 . S
C318 C314 1.385 . S
C318 C317 1.374 . S
C319 C316 1.499 . S
C319 C320 1.373 . S
C319 C321 1.389 . S
C320 H293 0.950 . S
C320 C306 1.377 . S
C320 C319 1.373 . S
C321 C305 1.377 . S
C321 C319 1.389 . S
C321 C322 1.524 . S
C322 C321 1.524 . S
C322 C323 1.397 . S
C322 C327 1.363 . S
C323 H294 0.950 . S
C323 C322 1.397 . S
C323 C324 1.334 . S
C324 H295 0.950 . S
C324 C323 1.334 . S
C324 C325 1.287 . S
C325 C324 1.287 . S
C325 C326 1.524 . S
C325 H328 0.999 1_554 S
C326 H296 0.950 1_554 S
C326 C325 1.524 . S
C326 C327 1.415 . S
C327 H297 0.950 . S
C327 C322 1.363 . S
C327 C326 1.415 . S
H328 C325 0.999 1_556 S
H329 C310 0.913 . S
H330 C348 0.951 . S
H331 C350 0.951 . S
H332 C352 0.950 . S
H333 C353 0.950 . S
H334 C355 0.950 . S
H335 C358 0.950 . S
H336 C359 0.950 . S
H337 C361 0.950 . S
H338 C362 0.950 . S
H339 C363 0.951 . S
H340 C365 0.951 . S
H341 C367 0.950 . S
H342 C368 0.950 . S
H343 C370 0.950 . S
H344 C373 0.950 . S
H345 C374 0.950 . S
H346 C376 0.950 . S
H347 C377 0.950 . S
C348 H330 0.951 . S
C348 C349 1.366 . S
C348 C350 1.388 . S
C349 C348 1.366 . S
C349 C353 1.385 . S
C350 H331 0.951 . S
C350 C348 1.388 . S
C350 C351 1.366 . S
C351 C350 1.366 . S
C351 C352 1.414 . S
C351 C354 1.499 . S
C352 H332 0.950 . S
C352 C351 1.414 . S
C352 C353 1.374 . S
C353 H333 0.950 . S
C353 C349 1.385 . S
C353 C352 1.374 . S
C354 C351 1.499 . S
C354 C355 1.373 . S
C354 C356 1.389 . S
C355 H334 0.950 . S
C355 C354 1.373 . S
C355 C371 1.377 . S
C356 C354 1.389 . S
C356 C357 1.524 . S
C356 C370 1.377 . S
C357 C356 1.524 . S
C357 C358 1.397 . S
C357 C362 1.363 . S
C358 H335 0.950 . S
C358 C357 1.397 . S
C358 C359 1.334 . S
C359 H336 0.950 . S
C359 C358 1.334 . S
C359 C360 1.287 . S
C360 C359 1.287 . S
C360 C361 1.524 . S
C360 H379 0.913 . S
C361 H337 0.950 . S
C361 C360 1.524 . S
C361 C362 1.415 . S
C362 H338 0.950 . S
C362 C357 1.363 . S
C362 C361 1.415 . S
C363 H339 0.951 . S
C363 C364 1.366 . S
C363 C365 1.388 . S
C364 C363 1.366 . S
C364 C368 1.385 . S
C365 H340 0.951 . S
C365 C363 1.388 . S
C365 C366 1.366 . S
C366 C365 1.366 . S
C366 C367 1.414 . S
C366 C369 1.499 . S
C367 H341 0.950 . S
C367 C366 1.414 . S
C367 C368 1.374 . S
C368 H342 0.950 . S
C368 C364 1.385 . S
C368 C367 1.374 . S
C369 C366 1.499 . S
C369 C370 1.373 . S
C369 C371 1.389 . S
C370 H343 0.950 . S
C370 C356 1.377 . S
C370 C369 1.373 . S
C371 C355 1.377 . S
C371 C369 1.389 . S
C371 C372 1.524 . S
C372 C371 1.524 . S
C372 C373 1.397 . S
C372 C377 1.363 . S
C373 H344 0.950 . S
C373 C372 1.397 . S
C373 C374 1.334 . S
C374 H345 0.950 . S
C374 C373 1.334 . S
C374 C375 1.287 . S
C375 C374 1.287 . S
C375 C376 1.524 . S
C375 H378 0.999 . S
C376 H346 0.950 . S
C376 C375 1.524 . S
C376 C377 1.415 . S
C377 H347 0.950 . S
C377 C372 1.363 . S
C377 C376 1.415 . S
H378 C375 0.999 . S
H379 C360 0.913 . S
H380 C398 0.951 . S
H381 C400 0.954 . S
H382 C402 0.950 . S
H383 C403 0.950 . S
H384 C405 0.950 . S
H385 C408 0.950 . S
H386 C409 0.950 . S
H387 C411 0.950 . S
H388 C412 0.950 . S
H389 C413 0.951 . S
H390 C415 0.951 . S
H391 C417 0.950 . S
H392 C418 0.950 . S
H393 C420 0.950 . S
H394 C423 0.950 . S
H395 C424 0.950 . S
H396 C426 0.950 . S
H397 C427 0.950 . S
C398 H380 0.951 . S
C398 C399 1.366 . S
C398 C400 1.388 . S
C399 C398 1.366 . S
C399 C403 1.385 . S
C400 H381 0.954 . S
C400 C398 1.388 . S
C400 C401 1.366 . S
C401 C400 1.366 . S
C401 C402 1.414 . S
C401 C404 1.499 . S
C402 H382 0.950 . S
C402 C401 1.414 . S
C402 C403 1.374 . S
C403 H383 0.950 . S
C403 C399 1.385 . S
C403 C402 1.374 . S
C404 C401 1.499 . S
C404 C405 1.373 . S
C404 C406 1.389 1_556 S
C405 H384 0.950 . S
C405 C404 1.373 . S
C405 C421 1.377 1_565 S
C406 C404 1.389 1_554 S
C406 C407 1.524 . S
C406 C420 1.377 . S
C407 C406 1.524 . S
C407 C408 1.397 . S
C407 C412 1.363 . S
C408 H385 0.950 . S
C408 C407 1.397 . S
C408 C409 1.334 . S
C409 H386 0.950 . S
C409 C408 1.334 . S
C409 C410 1.287 . S
C410 C409 1.287 . S
C410 C411 1.524 . S
C410 H429 0.913 . S
C411 H387 0.950 . S
C411 C410 1.524 . S
C411 C412 1.415 . S
C412 H388 0.950 . S
C412 C407 1.363 . S
C412 C411 1.415 . S
C413 H389 0.951 . S
C413 C414 1.366 . S
C413 C415 1.388 . S
C414 C413 1.366 . S
C414 C418 1.385 . S
C415 H390 0.951 . S
C415 C413 1.388 . S
C415 C416 1.366 . S
C416 C415 1.366 . S
C416 C417 1.414 . S
C416 C419 1.499 . S
C417 H391 0.950 . S
C417 C416 1.414 . S
C417 C418 1.374 . S
C418 H392 0.950 . S
C418 C414 1.385 . S
C418 C417 1.374 . S
C419 C416 1.499 . S
C419 C420 1.373 1_545 S
C419 C421 1.389 1_554 S
C420 H393 0.950 . S
C420 C406 1.377 . S
C420 C419 1.373 1_565 S
C421 C405 1.377 1_545 S
C421 C419 1.389 1_556 S
C421 C422 1.524 . S
C422 C421 1.524 . S
C422 C423 1.397 . S
C422 C427 1.363 . S
C423 H394 0.950 . S
C423 C422 1.397 . S
C423 C424 1.334 . S
C424 H395 0.950 . S
C424 C423 1.334 . S
C424 C425 1.287 . S
C425 C424 1.287 . S
C425 C426 1.524 . S
C425 H428 0.999 . S
C426 H396 0.950 . S
C426 C425 1.524 . S
C426 C427 1.415 . S
C427 H397 0.950 . S
C427 C422 1.363 . S
C427 C426 1.415 . S
H428 C425 0.999 . S
H429 C410 0.913 . S
H430 C448 0.951 . S
H431 C450 0.951 . S
H432 C452 0.950 . S
H433 C453 0.950 . S
H434 C455 0.950 . S
H435 C458 0.950 . S
H436 C459 0.950 . S
H437 C461 0.950 . S
H438 C462 0.950 . S
H439 C463 0.951 . S
H440 C465 0.951 . S
H441 C467 0.950 . S
H442 C468 0.951 . S
H443 C470 0.950 . S
H444 C473 0.950 . S
H445 C474 0.950 . S
H446 C476 0.950 1_565 S
H447 C477 0.950 1_565 S
C448 H430 0.951 . S
C448 C449 1.366 . S
C448 C450 1.388 . S
C449 C448 1.366 . S
C449 C453 1.385 . S
C450 H431 0.951 . S
C450 C448 1.388 . S
C450 C451 1.366 . S
C451 C450 1.366 . S
C451 C452 1.414 . S
C451 C454 1.499 . S
C452 H432 0.950 . S
C452 C451 1.414 . S
C452 C453 1.374 . S
C453 H433 0.950 . S
C453 C449 1.385 . S
C453 C452 1.374 . S
C454 C451 1.499 . S
C454 C455 1.373 . S
C454 C456 1.389 1_565 S
C455 H434 0.950 . S
C455 C454 1.373 . S
C455 C471 1.377 1_565 S
C456 C454 1.389 1_545 S
C456 C457 1.524 . S
C456 C470 1.377 . S
C457 C456 1.524 . S
C457 C458 1.397 1_545 S
C457 C462 1.363 . S
C458 H435 0.950 . S
C458 C457 1.397 1_565 S
C458 C459 1.334 . S
C459 H436 0.950 . S
C459 C458 1.334 . S
C459 C460 1.287 1_565 S
C460 C459 1.287 1_545 S
C460 C461 1.524 . S
C460 H479 0.913 . S
C461 H437 0.950 . S
C461 C460 1.524 . S
C461 C462 1.415 . S
C462 H438 0.950 . S
C462 C457 1.363 . S
C462 C461 1.415 . S
C463 H439 0.951 . S
C463 C464 1.366 . S
C463 C465 1.388 . S
C464 C463 1.366 . S
C464 C468 1.385 . S
C465 H440 0.951 . S
C465 C463 1.388 . S
C465 C466 1.366 . S
C466 C465 1.366 . S
C466 C467 1.414 . S
C466 C469 1.499 . S
C467 H441 0.950 . S
C467 C466 1.414 . S
C467 C468 1.374 . S
C468 H442 0.951 . S
C468 C464 1.385 . S
C468 C467 1.374 . S
C469 C466 1.499 . S
C469 C470 1.373 . S
C469 C471 1.389 . S
C470 H443 0.950 . S
C470 C456 1.377 . S
C470 C469 1.373 . S
C471 C455 1.377 1_545 S
C471 C469 1.389 . S
C471 C472 1.524 1_655 S
C472 C471 1.524 1_455 S
C472 C473 1.397 . S
C472 C477 1.363 1_455 S
C473 H444 0.950 . S
C473 C472 1.397 . S
C473 C474 1.334 . S
C474 H445 0.950 . S
C474 C473 1.334 . S
C474 C475 1.287 . S
C475 C474 1.287 . S
C475 C476 1.524 . S
C475 H478 0.999 . S
C476 H446 0.950 1_545 S
C476 C475 1.524 . S
C476 C477 1.415 1_455 S
C477 H447 0.950 1_545 S
C477 C472 1.363 1_655 S
C477 C476 1.415 1_655 S
H478 C475 0.999 . S
H479 C460 0.913 . S
H480 C498 0.951 . S
H481 C500 0.951 . S
H482 C502 0.950 . S
H483 C503 0.950 . S
H484 C505 0.950 . S
H485 C508 0.948 1_554 S
H486 C509 0.950 . S
H487 C511 0.950 . S
H488 C512 0.950 . S
H489 C513 0.951 . S
H490 C515 0.951 . S
H491 C517 0.950 . S
H492 C518 0.950 . S
H493 C520 0.950 . S
H494 C523 0.950 . S
H495 C524 0.950 . S
H496 C526 0.950 . S
H497 C527 0.950 . S
C498 H480 0.951 . S
C498 C499 1.366 . S
C498 C500 1.388 . S
C499 C498 1.366 . S
C499 C503 1.385 1_455 S
C500 H481 0.951 . S
C500 C498 1.388 . S
C500 C501 1.375 . S
C501 C500 1.375 . S
C501 C502 1.406 1_455 S
C501 C504 1.498 1_454 S
C502 H482 0.950 . S
C502 C501 1.406 1_655 S
C502 C503 1.374 . S
C503 H483 0.950 . S
C503 C499 1.385 1_655 S
C503 C502 1.374 . S
C504 C501 1.498 1_656 S
C504 C505 1.371 1_655 S
C504 C506 1.391 . S
C505 H484 0.950 . S
C505 C504 1.371 1_455 S
C505 C521 1.377 . S
C506 C504 1.391 . S
C506 C507 1.524 . S
C506 C520 1.377 . S
C507 C506 1.524 . S
C507 C508 1.403 . S
C507 C512 1.363 . S
C508 H485 0.948 1_556 S
C508 C507 1.403 . S
C508 C509 1.330 1_556 S
C509 H486 0.950 . S
C509 C508 1.330 1_554 S
C509 C510 1.287 . S
C510 C509 1.287 . S
C510 C511 1.524 1_554 S
C510 H529 0.913 . S
C511 H487 0.950 . S
C511 C510 1.524 1_556 S
C511 C512 1.415 . S
C512 H488 0.950 . S
C512 C507 1.363 . S
C512 C511 1.415 . S
C513 H489 0.951 . S
C513 C514 1.373 . S
C513 C515 1.388 . S
C514 C513 1.373 . S
C514 C518 1.377 1_655 S
C515 H490 0.951 . S
C515 C513 1.388 . S
C515 C516 1.366 1_655 S
C516 C515 1.366 1_455 S
C516 C517 1.414 . S
C516 C519 1.499 . S
C517 H491 0.950 . S
C517 C516 1.414 . S
C517 C518 1.374 . S
C518 H492 0.950 . S
C518 C514 1.377 1_455 S
C518 C517 1.374 . S
C519 C516 1.499 . S
C519 C520 1.373 1_455 S
C519 C521 1.389 . S
C520 H493 0.950 . S
C520 C506 1.377 . S
C520 C519 1.373 1_655 S
C521 C505 1.377 . S
C521 C519 1.389 . S
C521 C522 1.524 . S
C522 C521 1.524 . S
C522 C523 1.397 . S
C522 C527 1.363 . S
C523 H494 0.950 . S
C523 C522 1.397 . S
C523 C524 1.334 . S
C524 H495 0.950 . S
C524 C523 1.334 . S
C524 C525 1.287 . S
C525 C524 1.287 . S
C525 C526 1.524 . S
C525 H528 0.999 . S
C526 H496 0.950 . S
C526 C525 1.524 . S
C526 C527 1.415 . S
C527 H497 0.950 . S
C527 C522 1.363 . S
C527 C526 1.415 . S
H528 C525 0.999 . S
H529 C510 0.913 . S
H530 C548 0.951 . S
H531 C550 0.951 . S
H532 C552 0.950 . S
H533 C553 0.950 . S
H534 C555 0.950 . S
H535 C558 0.950 . S
H536 C559 0.950 . S
H537 C561 0.950 . S
H538 C562 0.950 . S
H539 C563 0.951 . S
H540 C565 0.951 . S
H541 C567 0.950 . S
H542 C568 0.950 . S
H543 C570 0.950 . S
H544 C573 0.950 . S
H545 C574 0.950 . S
H546 C576 0.950 . S
H547 C577 0.950 . S
C548 H530 0.951 . S
C548 C549 1.366 1_655 S
C548 C550 1.388 . S
C549 C548 1.366 1_455 S
C549 C553 1.385 . S
C550 H531 0.951 . S
C550 C548 1.388 . S
C550 C551 1.366 1_655 S
C551 C550 1.366 1_455 S
C551 C552 1.414 . S
C551 C554 1.499 1_556 S
C552 H532 0.950 . S
C552 C551 1.414 . S
C552 C553 1.374 . S
C553 H533 0.950 . S
C553 C549 1.385 . S
C553 C552 1.374 . S
C554 C551 1.499 1_554 S
C554 C555 1.373 . S
C554 C556 1.389 1_455 S
C555 H534 0.950 . S
C555 C554 1.373 . S
C555 C571 1.377 . S
C556 C554 1.389 1_655 S
C556 C557 1.524 . S
C556 C570 1.377 . S
C557 C556 1.524 . S
C557 C558 1.397 1_655 S
C557 C562 1.363 . S
C558 H535 0.950 . S
C558 C557 1.397 1_455 S
C558 C559 1.334 1_554 S
C559 H536 0.950 . S
C559 C558 1.334 1_556 S
C559 C560 1.287 1_456 S
C560 C559 1.287 1_654 S
C560 C561 1.524 . S
C560 H579 0.913 1_554 S
C561 H537 0.950 . S
C561 C560 1.524 . S
C561 C562 1.415 . S
C562 H538 0.950 . S
C562 C557 1.363 . S
C562 C561 1.415 . S
C563 H539 0.951 . S
C563 C564 1.345 1_455 S
C563 C565 1.388 . S
C564 C563 1.345 1_655 S
C564 C568 1.405 . S
C565 H540 0.951 . S
C565 C563 1.388 . S
C565 C566 1.350 1_455 S
C566 C565 1.350 1_655 S
C566 C567 1.429 . S
C566 C569 1.499 . S
C567 H541 0.950 . S
C567 C566 1.429 . S
C567 C568 1.374 . S
C568 H542 0.950 . S
C568 C564 1.405 . S
C568 C567 1.374 . S
C569 C566 1.499 . S
C569 C570 1.373 . S
C569 C571 1.389 1_655 S
C570 H543 0.950 . S
C570 C556 1.377 . S
C570 C569 1.373 . S
C571 C555 1.377 . S
C571 C569 1.389 1_455 S
C571 C572 1.524 . S
C572 C571 1.524 . S
C572 C573 1.397 1_455 S
C572 C577 1.363 . S
C573 H544 0.950 . S
C573 C572 1.397 1_655 S
C573 C574 1.334 . S
C574 H545 0.950 . S
C574 C573 1.334 . S
C574 C575 1.287 1_655 S
C575 C574 1.287 1_455 S
C575 C576 1.524 . S
C575 H578 0.999 . S
C576 H546 0.950 . S
C576 C575 1.524 . S
C576 C577 1.415 . S
C577 H547 0.950 . S
C577 C572 1.363 . S
C577 C576 1.415 . S
H578 C575 0.999 . S
H579 C560 0.913 1_556 S
H580 C598 0.951 . S
H581 C600 0.951 . S
H582 C602 0.950 . S
H583 C603 0.950 . S
H584 C605 0.950 . S
H585 C608 0.950 . S
H586 C609 0.950 . S
H587 C611 0.950 . S
H588 C612 0.950 . S
H589 C613 0.951 . S
H590 C615 0.951 . S
H591 C617 0.950 . S
H592 C618 0.950 . S
H593 C620 0.950 . S
H594 C623 0.950 . S
H595 C624 0.950 . S
H596 C626 0.950 . S
H597 C627 0.950 . S
C598 H580 0.951 . S
C598 C599 1.366 . S
C598 C600 1.388 . S
C599 C598 1.366 . S
C599 C603 1.385 . S
C600 H581 0.951 . S
C600 C598 1.388 . S
C600 C601 1.366 . S
C601 C600 1.366 . S
C601 C602 1.414 . S
C601 C604 1.499 . S
C602 H582 0.950 . S
C602 C601 1.414 . S
C602 C603 1.374 . S
C603 H583 0.950 . S
C603 C599 1.385 . S
C603 C602 1.374 . S
C604 C601 1.499 . S
C604 C605 1.373 . S
C604 C606 1.389 . S
C605 H584 0.950 . S
C605 C604 1.373 . S
C605 C621 1.377 . S
C606 C604 1.389 . S
C606 C607 1.524 . S
C606 C620 1.377 . S
C607 C606 1.524 . S
C607 C608 1.397 . S
C607 C612 1.363 . S
C608 H585 0.950 . S
C608 C607 1.397 . S
C608 C609 1.334 . S
C609 H586 0.950 . S
C609 C608 1.334 . S
C609 C610 1.287 . S
C610 C609 1.287 . S
C610 C611 1.524 . S
C610 H629 0.913 . S
C611 H587 0.950 . S
C611 C610 1.524 . S
C611 C612 1.415 . S
C612 H588 0.950 . S
C612 C607 1.363 . S
C612 C611 1.415 . S
C613 H589 0.951 . S
C613 C614 1.366 . S
C613 C615 1.388 . S
C614 C613 1.366 . S
C614 C618 1.385 . S
C615 H590 0.951 . S
C615 C613 1.388 . S
C615 C616 1.366 . S
C616 C615 1.366 . S
C616 C617 1.414 . S
C616 C619 1.499 . S
C617 H591 0.950 . S
C617 C616 1.414 . S
C617 C618 1.374 . S
C618 H592 0.950 . S
C618 C614 1.385 . S
C618 C617 1.374 . S
C619 C616 1.499 . S
C619 C620 1.373 . S
C619 C621 1.389 . S
C620 H593 0.950 . S
C620 C606 1.377 . S
C620 C619 1.373 . S
C621 C605 1.377 . S
C621 C619 1.389 . S
C621 C622 1.524 . S
C622 C621 1.524 . S
C622 C623 1.397 . S
C622 C627 1.363 . S
C623 H594 0.950 . S
C623 C622 1.397 . S
C623 C624 1.334 . S
C624 H595 0.950 . S
C624 C623 1.334 . S
C624 C625 1.287 . S
C625 C624 1.287 . S
C625 C626 1.524 . S
C625 H628 0.999 . S
C626 H596 0.950 . S
C626 C625 1.524 . S
C626 C627 1.415 . S
C627 H597 0.950 . S
C627 C622 1.363 . S
C627 C626 1.415 . S
H628 C625 0.999 . S
H629 C610 0.913 . S
H630 C648 0.951 . S
H631 C650 0.951 . S
H632 C652 0.950 . S
H633 C653 0.950 . S
H634 C655 0.950 . S
H635 C658 0.950 . S
H636 C659 0.950 . S
H637 C661 0.950 . S
H638 C662 0.950 . S
H639 C663 0.951 . S
H640 C665 0.951 . S
H641 C667 0.950 . S
H642 C668 0.950 . S
H643 C670 0.950 . S
H644 C673 0.950 . S
H645 C674 0.950 . S
H646 C676 0.950 . S
H647 C677 0.950 . S
C648 H630 0.951 . S
C648 C649 1.366 . S
C648 C650 1.388 . S
C649 C648 1.366 . S
C649 C653 1.385 . S
C650 H631 0.951 . S
C650 C648 1.388 . S
C650 C651 1.366 . S
C651 C650 1.366 . S
C651 C652 1.414 . S
C651 C654 1.499 . S
C652 H632 0.950 . S
C652 C651 1.414 . S
C652 C653 1.374 . S
C653 H633 0.950 . S
C653 C649 1.385 . S
C653 C652 1.374 . S
C654 C651 1.499 . S
C654 C655 1.373 . S
C654 C656 1.389 . S
C655 H634 0.950 . S
C655 C654 1.373 . S
C655 C671 1.377 . S
C656 C654 1.389 . S
C656 C657 1.524 . S
C656 C670 1.377 . S
C657 C656 1.524 . S
C657 C658 1.397 . S
C657 C662 1.363 . S
C658 H635 0.950 . S
C658 C657 1.397 . S
C658 C659 1.334 . S
C659 H636 0.950 . S
C659 C658 1.334 . S
C659 C660 1.287 . S
C660 C659 1.287 . S
C660 C661 1.524 . S
C660 H679 0.913 . S
C661 H637 0.950 . S
C661 C660 1.524 . S
C661 C662 1.415 . S
C662 H638 0.950 . S
C662 C657 1.363 . S
C662 C661 1.415 . S
C663 H639 0.951 . S
C663 C664 1.366 . S
C663 C665 1.388 . S
C664 C663 1.366 . S
C664 C668 1.385 . S
C665 H640 0.951 . S
C665 C663 1.388 . S
C665 C666 1.366 . S
C666 C665 1.366 . S
C666 C667 1.414 . S
C666 C669 1.499 . S
C667 H641 0.950 . S
C667 C666 1.414 . S
C667 C668 1.374 . S
C668 H642 0.950 . S
C668 C664 1.385 . S
C668 C667 1.374 . S
C669 C666 1.499 . S
C669 C670 1.373 . S
C669 C671 1.389 . S
C670 H643 0.950 . S
C670 C656 1.377 . S
C670 C669 1.373 . S
C671 C655 1.377 . S
C671 C669 1.389 . S
C671 C672 1.524 . S
C672 C671 1.524 . S
C672 C673 1.397 . S
C672 C677 1.363 . S
C673 H644 0.950 . S
C673 C672 1.397 . S
C673 C674 1.334 . S
C674 H645 0.950 . S
C674 C673 1.334 . S
C674 C675 1.287 . S
C675 C674 1.287 . S
C675 C676 1.524 . S
C675 H678 0.999 . S
C676 H646 0.950 . S
C676 C675 1.524 . S
C676 C677 1.415 . S
C677 H647 0.950 . S
C677 C672 1.363 . S
C677 C676 1.415 . S
H678 C675 0.999 . S
H679 C660 0.913 . S
C99 C18 1.774 . S
C114 C21 1.741 . S
C149 C42 1.861 . S
C164 C38 1.849 . S
C199 C62 1.933 . S
C214 C59 2.002 . S
C249 C1 1.816 . S
C264 C79 1.924 . S
C299 C78 1.850 . S
C314 C2 1.861 . S
C349 C41 1.816 . S
C364 C39 1.924 . S
C399 C58 1.774 . S
C414 C61 1.742 . S
C449 C22 1.932 . S
C464 C19 2.002 . S
C499 C9 0.744 1_455 S
C514 C8 0.733 1_655 S
C549 C28 0.743 . S
C564 C29 0.747 . S
C599 C48 0.743 . S
C614 C49 0.743 . S
C649 C68 0.742 . S
C664 C69 0.742 . S
