# Generated by pormake.
# Topology qtz-e, (6)-cn, num edge types: 1
# Building blocks:
#     Node 0, Type 0, BuildingBlock: CIFDUS_clean_sbu_1, # of connection points: 6
#     Node 1, Type 0, BuildingBlock: CIFDUS_clean_sbu_1, # of connection points: 6
#     Node 2, Type 0, BuildingBlock: CIFDUS_clean_sbu_1, # of connection points: 6
#     Node 3, Type 0, BuildingBlock: CIFDUS_clean_sbu_1, # of connection points: 6
#     Node 4, Type 0, BuildingBlock: CIFDUS_clean_sbu_1, # of connection points: 6
#     Node 5, Type 0, BuildingBlock: CIFDUS_clean_sbu_1, # of connection points: 6
#     Edge 6, Type (0, 0), BuildingBlock: TEMPAE_clean_linker_10, # of connection points: 2
#     Edge 7, Type (0, 0), BuildingBlock: TEMPAE_clean_linker_10, # of connection points: 2
#     Edge 8, Type (0, 0), BuildingBlock: TEMPAE_clean_linker_10, # of connection points: 2
#     Edge 9, Type (0, 0), BuildingBlock: TEMPAE_clean_linker_10, # of connection points: 2
#     Edge 10, Type (0, 0), BuildingBlock: TEMPAE_clean_linker_10, # of connection points: 2
#     Edge 11, Type (0, 0), BuildingBlock: TEMPAE_clean_linker_10, # of connection points: 2
#     Edge 12, Type (0, 0), BuildingBlock: TEMPAE_clean_linker_10, # of connection points: 2
#     Edge 13, Type (0, 0), BuildingBlock: TEMPAE_clean_linker_10, # of connection points: 2
#     Edge 14, Type (0, 0), BuildingBlock: TEMPAE_clean_linker_10, # of connection points: 2
#     Edge 15, Type (0, 0), BuildingBlock: TEMPAE_clean_linker_10, # of connection points: 2
#     Edge 16, Type (0, 0), BuildingBlock: TEMPAE_clean_linker_10, # of connection points: 2
#     Edge 17, Type (0, 0), BuildingBlock: TEMPAE_clean_linker_10, # of connection points: 2
#     Edge 18, Type (0, 0), BuildingBlock: TEMPAE_clean_linker_10, # of connection points: 2
#     Edge 19, Type (0, 0), BuildingBlock: TEMPAE_clean_linker_10, # of connection points: 2
#     Edge 20, Type (0, 0), BuildingBlock: TEMPAE_clean_linker_10, # of connection points: 2
#     Edge 21, Type (0, 0), BuildingBlock: TEMPAE_clean_linker_10, # of connection points: 2
#     Edge 22, Type (0, 0), BuildingBlock: TEMPAE_clean_linker_10, # of connection points: 2
#     Edge 23, Type (0, 0), BuildingBlock: TEMPAE_clean_linker_10, # of connection points: 2
# Relax obj value: 0.337
# Max RMSD: 0.227
# Mean RMSD: 0.227
data_MOF--net-qtz-e--node1-CIFDUS_clean_sbu_1--edge1-TEMPAE_clean_linker_10
_symmetry_space_group_name_H-M    P1
_symmetry_Int_Tables_number       1
_symmetry_cell_setting            triclinic
loop_
_symmetry_equiv_pos_as_xyz
'x, y, z'
_cell_length_a     28.345389
_cell_length_b     28.322654
_cell_length_c     31.240174
_cell_angle_alpha  89.948953
_cell_angle_beta   89.966142
_cell_angle_gamma 120.15658
loop_
_atom_site_label
_atom_site_type_symbol
_atom_site_fract_x
_atom_site_fract_y
_atom_site_fract_z
_atom_type_partial_charge
O0 O 0.26761 0.39742 0.02154 0.0
Mn1 Mn 0.19974 0.4033 0.00288 0.0
O2 O 0.32057 0.47539 0.0562 0.0
Mn3 Mn 0.30071 0.51723 0.02336 0.0
O4 O 0.13603 0.41366 0.98283 0.0
O5 O 0.16664 0.32771 0.97731 0.0
Mn6 Mn 0.09487 0.29687 0.98232 0.0
O7 O 0.15845 0.36964 0.06066 0.0
O8 O 0.07185 0.33772 0.95157 0.0
O9 O 0.24148 0.43756 0.94547 0.0
O10 O 0.31244 0.52006 0.96435 0.0
O11 O 0.1067 0.24568 0.95652 0.0
O12 O 0.08163 0.29337 0.04061 0.0
C13 C 0.22919 0.51898 0.04381 0.0
C14 C 0.31144 0.42938 0.04222 0.0
C15 C 0.09239 0.38788 0.96085 0.0
C16 C 0.15781 0.28242 0.95999 0.0
C17 C 0.11187 0.32729 0.06926 0.0
C18 C 0.28451 0.48346 0.93641 0.0
O19 O 0.23007 0.47777 0.02773 0.0
O20 O 0.2771 0.56155 0.04776 0.0
O21 O 0.83931 0.28071 0.35438 0.0
Mn22 Mn 0.77327 0.21475 0.32397 0.0
O23 O 0.81194 0.34201 0.36701 0.0
Mn24 Mn 0.75291 0.31357 0.33057 0.0
O25 O 0.70611 0.15062 0.29447 0.0
O26 O 0.82098 0.18289 0.30963 0.0
Mn27 Mn 0.78319 0.11124 0.31901 0.0
O28 O 0.75141 0.17199 0.38215 0.0
O29 O 0.72103 0.08076 0.28482 0.0
O30 O 0.7934 0.25761 0.26512 0.0
O31 O 0.7685 0.32155 0.2731 0.0
O32 O 0.8509 0.12655 0.30005 0.0
O33 O 0.76775 0.10226 0.37696 0.0
C34 C 0.68129 0.24183 0.35329 0.0
C35 C 0.84539 0.3247 0.37167 0.0
C36 C 0.69151 0.10269 0.28061 0.0
C37 C 0.86176 0.17677 0.29905 0.0
C38 C 0.75242 0.13063 0.39801 0.0
C39 C 0.78621 0.29622 0.25047 0.0
O40 O 0.72448 0.24382 0.33867 0.0
O41 O 0.68287 0.28819 0.35158 0.0
O42 O 0.56411 0.85301 0.69977 0.0
Mn43 Mn 0.57544 0.78986 0.67521 0.0
O44 O 0.49388 0.8025 0.74037 0.0
Mn45 Mn 0.45844 0.75689 0.69527 0.0
O46 O 0.58471 0.72871 0.64922 0.0
O47 O 0.64933 0.84511 0.65351 0.0
Mn48 Mn 0.69809 0.82531 0.66477 0.0
O49 O 0.60902 0.78432 0.73413 0.0
O50 O 0.67334 0.75609 0.64078 0.0
O51 O 0.54263 0.79783 0.61874 0.0
O52 O 0.46231 0.78739 0.64099 0.0
O53 O 0.73211 0.88728 0.63056 0.0
O54 O 0.70013 0.82769 0.7237 0.0
C55 C 0.45711 0.68232 0.70307 0.0
C56 C 0.52874 0.8491 0.72727 0.0
C57 C 0.6229 0.72036 0.63715 0.0
C58 C 0.68504 0.88425 0.63017 0.0
C59 C 0.65839 0.80524 0.74819 0.0
C60 C 0.49921 0.80029 0.61228 0.0
O61 O 0.50014 0.72783 0.69224 0.0
O62 O 0.41279 0.68458 0.7064 0.0
O63 O 0.73599 0.61092 0.01352 0.0
Mn64 Mn 0.79458 0.59092 0.99467 0.0
O65 O 0.68017 0.54263 0.05588 0.0
Mn66 Mn 0.68422 0.4908 0.02228 0.0
O67 O 0.85138 0.57132 0.97314 0.0
O68 O 0.8357 0.66318 0.96761 0.0
Mn69 Mn 0.9067 0.69594 0.97353 0.0
O70 O 0.83891 0.62293 0.0511 0.0
O71 O 0.92425 0.64726 0.94741 0.0
O72 O 0.74883 0.55825 0.93927 0.0
O73 O 0.66795 0.4897 0.96422 0.0
O74 O 0.88964 0.7435 0.94414 0.0
O75 O 0.91538 0.70127 0.03279 0.0
C76 C 0.74728 0.47096 0.03433 0.0
C77 C 0.69441 0.58841 0.03841 0.0
C78 C 0.89728 0.59552 0.9534 0.0
C79 C 0.83967 0.70502 0.94911 0.0
C80 C 0.88395 0.66645 0.06067 0.0
C81 C 0.69927 0.51947 0.93389 0.0
O82 O 0.75472 0.51716 0.02132 0.0
O83 O 0.69676 0.43636 0.04273 0.0
O84 O 0.15317 0.71284 0.37202 0.0
Mn85 Mn 0.21786 0.77891 0.33881 0.0
O86 O 0.1912 0.66841 0.39996 0.0
Mn87 Mn 0.23346 0.68611 0.35232 0.0
O88 O 0.28008 0.84429 0.30635 0.0
O89 O 0.16516 0.80356 0.32173 0.0
Mn90 Mn 0.19365 0.87391 0.33195 0.0
O91 O 0.23816 0.82511 0.3965 0.0
O92 O 0.25901 0.91084 0.30138 0.0
O93 O 0.1964 0.73312 0.2822 0.0
O94 O 0.19893 0.65827 0.30088 0.0
O95 O 0.12629 0.85107 0.30757 0.0
O96 O 0.20114 0.87905 0.39034 0.0
C97 C 0.31365 0.7444 0.36047 0.0
C98 C 0.15223 0.67771 0.39859 0.0
C99 C 0.29074 0.89188 0.29433 0.0
C100 C 0.12315 0.80392 0.30615 0.0
C101 C 0.22432 0.85862 0.41235 0.0
C102 C 0.18771 0.68497 0.27427 0.0
O103 O 0.27658 0.75802 0.35209 0.0
O104 O 0.29859 0.69288 0.35962 0.0
O105 O 0.40327 0.1443 0.68822 0.0
Mn106 Mn 0.42188 0.22069 0.66518 0.0
O107 O 0.47294 0.1606 0.73159 0.0
Mn108 Mn 0.52399 0.21715 0.69836 0.0
O109 O 0.44198 0.29673 0.64239 0.0
O110 O 0.35291 0.18687 0.63306 0.0
Mn111 Mn 0.31751 0.22302 0.63469 0.0
O112 O 0.38329 0.23154 0.71744 0.0
O113 O 0.36698 0.29298 0.61431 0.0
O114 O 0.45925 0.20844 0.61358 0.0
O115 O 0.52732 0.1983 0.64152 0.0
O116 O 0.27971 0.16221 0.59819 0.0
O117 O 0.30383 0.22226 0.69319 0.0
C118 C 0.53501 0.29765 0.71005 0.0
C119 C 0.42546 0.12887 0.71663 0.0
C120 C 0.41795 0.31838 0.62286 0.0
C121 C 0.31798 0.15181 0.60739 0.0
C122 C 0.33739 0.22941 0.72343 0.0
C123 C 0.4975 0.19712 0.61035 0.0
O124 O 0.49219 0.25618 0.69562 0.0
O125 O 0.57312 0.28695 0.71906 0.0
C126 C 0.21536 0.6603 0.20805 0.0
C127 C 0.17415 0.66217 0.23099 0.0
C128 C 0.20351 0.62763 0.17172 0.0
C129 C 0.14878 0.59692 0.15709 0.0
C130 C 0.10691 0.60021 0.17929 0.0
C131 C 0.12004 0.63227 0.21671 0.0
C132 C 0.24972 0.62438 0.15031 0.0
C133 C 0.04852 0.56923 0.16405 0.0
C134 C 0.17579 0.56516 0.04917 0.0
C135 C 0.18086 0.5198 0.05951 0.0
C136 C 0.15303 0.58547 0.07858 0.0
C137 C 0.13729 0.5607 0.11936 0.0
C138 C 0.13148 0.50845 0.12575 0.0
C139 C 0.15357 0.4884 0.09537 0.0
C140 C 0.15546 0.63881 0.06902 0.0
C141 C 0.11176 0.47827 0.16759 0.0
H142 H 0.25686 0.6823 0.22009 0.0
H143 H 0.08801 0.6326 0.23545 0.0
H144 H 0.24025 0.58135 0.14891 0.0
H145 H 0.25524 0.64 0.11705 0.0
H146 H 0.28911 0.64854 0.16742 0.0
H147 H 0.04501 0.58709 0.13343 0.0
H148 H 0.03551 0.5259 0.15754 0.0
H149 H 0.02002 0.57074 0.18765 0.0
H150 H 0.19583 0.58877 0.02071 0.0
H151 H 0.15684 0.4529 0.10304 0.0
H152 H 0.19473 0.67302 0.08088 0.0
H153 H 0.12181 0.641 0.08529 0.0
H154 H 0.15313 0.64435 0.03403 0.0
H155 H 0.14749 0.48456 0.18663 0.0
H156 H 0.08574 0.43385 0.16148 0.0
H157 H 0.08818 0.49208 0.18688 0.0
C158 C 0.54199 0.23026 0.54095 0.0
C159 C 0.51061 0.18626 0.56788 0.0
C160 C 0.55947 0.22201 0.50139 0.0
C161 C 0.5443 0.16814 0.48858 0.0
C162 C 0.51029 0.12322 0.51504 0.0
C163 C 0.49376 0.13286 0.55483 0.0
C164 C 0.59657 0.27133 0.47442 0.0
C165 C 0.49127 0.06532 0.50155 0.0
C166 C 0.58566 0.18199 0.37426 0.0
C167 C 0.64066 0.19792 0.37995 0.0
C168 C 0.54973 0.16338 0.40918 0.0
C169 C 0.57007 0.16113 0.44992 0.0
C170 C 0.62291 0.16827 0.45402 0.0
C171 C 0.65816 0.18789 0.41895 0.0
C172 C 0.49273 0.15395 0.40398 0.0
C173 C 0.64506 0.16435 0.49704 0.0
H174 H 0.55441 0.27135 0.55158 0.0
H175 H 0.46841 0.09894 0.57587 0.0
H176 H 0.637 0.27443 0.47093 0.0
H177 H 0.57928 0.26717 0.44188 0.0
H178 H 0.60283 0.31001 0.48862 0.0
H179 H 0.48471 0.03878 0.52975 0.0
H180 H 0.45208 0.04953 0.4842 0.0
H181 H 0.52018 0.06236 0.47942 0.0
H182 H 0.57247 0.19024 0.344 0.0
H183 H 0.70111 0.20319 0.42425 0.0
H184 H 0.48963 0.18738 0.41975 0.0
H185 H 0.46296 0.11517 0.41989 0.0
H186 H 0.48142 0.15258 0.36979 0.0
H187 H 0.64994 0.19819 0.51795 0.0
H188 H 0.68536 0.16696 0.49428 0.0
H189 H 0.61604 0.12534 0.51301 0.0
C190 C 0.32302 0.46063 0.87259 0.0
C191 C 0.30678 0.4946 0.89245 0.0
C192 C 0.35589 0.47779 0.83546 0.0
C193 C 0.37092 0.52922 0.8171 0.0
C194 C 0.35152 0.56197 0.83587 0.0
C195 C 0.32079 0.54473 0.87367 0.0
C196 C 0.37648 0.44186 0.81788 0.0
C197 C 0.36448 0.6163 0.81684 0.0
C198 C 0.48585 0.63351 0.75221 0.0
C199 C 0.45573 0.63177 0.71618 0.0
C200 C 0.46177 0.59231 0.78355 0.0
C201 C 0.40675 0.55051 0.77852 0.0
C202 C 0.38234 0.54206 0.73774 0.0
C203 C 0.40776 0.58285 0.70652 0.0
C204 C 0.49185 0.59798 0.82458 0.0
C205 C 0.32564 0.49516 0.72954 0.0
H206 H 0.31258 0.42204 0.88735 0.0
H207 H 0.30855 0.57113 0.88924 0.0
H208 H 0.34253 0.39895 0.81606 0.0
H209 H 0.39535 0.45446 0.78574 0.0
H210 H 0.40763 0.4431 0.84011 0.0
H211 H 0.34233 0.63421 0.83323 0.0
H212 H 0.40889 0.64565 0.81941 0.0
H213 H 0.35349 0.61152 0.7824 0.0
H214 H 0.52403 0.67038 0.75911 0.0
H215 H 0.38541 0.58057 0.67768 0.0
H216 H 0.48065 0.55725 0.83781 0.0
H217 H 0.48056 0.61954 0.84852 0.0
H218 H 0.53662 0.62174 0.81932 0.0
H219 H 0.32005 0.45708 0.74438 0.0
H220 H 0.31699 0.48821 0.69471 0.0
H221 H 0.29546 0.50441 0.74412 0.0
C222 C 0.84055 0.32082 0.18134 0.0
C223 C 0.79476 0.31223 0.20486 0.0
C224 C 0.85282 0.34825 0.14145 0.0
C225 C 0.81866 0.36768 0.1256 0.0
C226 C 0.77069 0.35583 0.14859 0.0
C227 C 0.75909 0.32742 0.18706 0.0
C228 C 0.90336 0.35812 0.11779 0.0
C229 C 0.73199 0.37485 0.13398 0.0
C230 C 0.834 0.48534 0.06578 0.0
C231 C 0.78938 0.45546 0.03882 0.0
C232 C 0.8554 0.45813 0.08956 0.0
C233 C 0.83087 0.40067 0.08564 0.0
C234 C 0.79737 0.37479 0.04985 0.0
C235 C 0.77553 0.40221 0.02736 0.0
C236 C 0.89668 0.48862 0.12406 0.0
C237 C 0.77556 0.31507 0.0412 0.0
H238 H 0.86775 0.3083 0.19477 0.0
H239 H 0.7228 0.31944 0.2047 0.0
H240 H 0.90146 0.36546 0.08311 0.0
H241 H 0.93933 0.39444 0.13162 0.0
H242 H 0.90989 0.32283 0.12181 0.0
H243 H 0.69887 0.36509 0.15748 0.0
H244 H 0.75438 0.41967 0.12908 0.0
H245 H 0.71249 0.35486 0.10337 0.0
H246 H 0.8467 0.52742 0.07278 0.0
H247 H 0.74266 0.37971 0.00478 0.0
H248 H 0.92661 0.47437 0.12601 0.0
H249 H 0.87556 0.48045 0.15543 0.0
H250 H 0.91886 0.53337 0.11815 0.0
H251 H 0.8057 0.30283 0.05056 0.0
H252 H 0.76517 0.30557 0.00682 0.0
H253 H 0.73781 0.2905 0.06023 0.0
C254 C 0.4392 0.81039 0.55919 0.0
C255 C 0.49024 0.81704 0.56946 0.0
C256 C 0.42696 0.81852 0.5174 0.0
C257 C 0.46756 0.83558 0.48494 0.0
C258 C 0.52094 0.84753 0.4962 0.0
C259 C 0.53147 0.83769 0.53824 0.0
C260 C 0.36894 0.80431 0.50776 0.0
C261 C 0.56641 0.86668 0.46381 0.0
C262 C 0.40283 0.76039 0.38447 0.0
C263 C 0.36935 0.7826 0.37602 0.0
C264 C 0.44033 0.78038 0.41791 0.0
C265 C 0.44973 0.82843 0.43936 0.0
C266 C 0.42739 0.85938 0.42194 0.0
C267 C 0.3849 0.83472 0.39164 0.0
C268 C 0.46404 0.74571 0.43277 0.0
C269 C 0.44594 0.91664 0.43706 0.0
H270 H 0.40746 0.79575 0.58335 0.0
H271 H 0.57162 0.84441 0.54608 0.0
H272 H 0.36824 0.84162 0.49815 0.0
H273 H 0.35199 0.77461 0.48101 0.0
H274 H 0.34144 0.78639 0.53581 0.0
H275 H 0.60326 0.90282 0.47639 0.0
H276 H 0.57775 0.83477 0.45943 0.0
H277 H 0.55604 0.87731 0.43237 0.0
H278 H 0.39408 0.72233 0.36944 0.0
H279 H 0.36178 0.85423 0.38279 0.0
H280 H 0.46374 0.74226 0.46814 0.0
H281 H 0.50666 0.76424 0.42125 0.0
H282 H 0.44135 0.70358 0.41967 0.0
H283 H 0.45515 0.92161 0.4718 0.0
H284 H 0.41544 0.92914 0.42964 0.0
H285 H 0.48432 0.94509 0.42009 0.0
C286 C 0.66532 0.45418 0.87481 0.0
C287 C 0.67672 0.5048 0.89059 0.0
C288 C 0.63501 0.43299 0.83741 0.0
C289 C 0.61491 0.46317 0.81532 0.0
C290 C 0.62649 0.51477 0.8311 0.0
C291 C 0.65799 0.5354 0.86858 0.0
C292 C 0.62372 0.37753 0.82227 0.0
C293 C 0.60545 0.54796 0.80901 0.0
C294 C 0.59096 0.39743 0.71051 0.0
C295 C 0.54085 0.3509 0.71978 0.0
C296 C 0.61239 0.44255 0.73794 0.0
C297 C 0.5831 0.4395 0.77546 0.0
C298 C 0.52748 0.39833 0.77897 0.0
C299 C 0.50672 0.35377 0.75075 0.0
C300 C 0.67044 0.48783 0.73147 0.0
C301 C 0.49341 0.39572 0.81697 0.0
H302 H 0.67911 0.43041 0.89256 0.0
H303 H 0.66574 0.57407 0.88167 0.0
H304 H 0.5791 0.34898 0.8202 0.0
H305 H 0.64134 0.38101 0.78993 0.0
H306 H 0.6413 0.35924 0.84394 0.0
H307 H 0.59946 0.57416 0.83224 0.0
H308 H 0.63577 0.57481 0.7848 0.0
H309 H 0.56634 0.52194 0.79214 0.0
H310 H 0.61664 0.39557 0.68559 0.0
H311 H 0.4674 0.31806 0.75737 0.0
H312 H 0.6981 0.4792 0.75082 0.0
H313 H 0.67558 0.52749 0.74219 0.0
H314 H 0.68292 0.49119 0.69737 0.0
H315 H 0.50158 0.37535 0.84399 0.0
H316 H 0.44914 0.37173 0.80944 0.0
H317 H 0.50375 0.4372 0.82757 0.0
C318 C 0.39662 0.42756 0.05748 0.0
C319 C 0.36164 0.43132 0.02809 0.0
C320 C 0.45324 0.45608 0.05018 0.0
C321 C 0.47503 0.49527 0.01641 0.0
C322 C 0.43898 0.49595 0.98535 0.0
C323 C 0.38317 0.45969 0.98982 0.0
C324 C 0.48891 0.44592 0.08022 0.0
C325 C 0.45696 0.53674 0.94898 0.0
C326 C 0.61463 0.59765 0.05781 0.0
C327 C 0.64779 0.59451 0.02623 0.0
C328 C 0.55805 0.57245 0.05148 0.0
C329 C 0.53422 0.53696 0.01583 0.0
C330 C 0.56858 0.53876 0.98207 0.0
C331 C 0.625 0.57265 0.98629 0.0
C332 C 0.52446 0.58116 0.08466 0.0
C333 C 0.548 0.50209 0.94317 0.0
H334 H 0.38023 0.40473 0.0869 0.0
H335 H 0.3559 0.46023 0.96615 0.0
H336 H 0.53049 0.46087 0.06719 0.0
H337 H 0.49193 0.46592 0.11139 0.0
H338 H 0.46996 0.40148 0.08673 0.0
H339 H 0.42751 0.5514 0.94464 0.0
H340 H 0.49797 0.57291 0.95385 0.0
H341 H 0.45664 0.51615 0.91868 0.0
H342 H 0.6322 0.61643 0.08834 0.0
H343 H 0.65123 0.57365 0.96081 0.0
H344 H 0.52329 0.55968 0.11468 0.0
H345 H 0.48217 0.56707 0.07377 0.0
H346 H 0.54416 0.62527 0.09259 0.0
H347 H 0.57531 0.48572 0.93564 0.0
H348 H 0.54892 0.52647 0.91502 0.0
H349 H 0.50633 0.46666 0.94715 0.0
C350 C 0.10381 0.59959 0.4477 0.0
C351 C 0.10071 0.63394 0.41668 0.0
C352 C 0.0635 0.54452 0.45041 0.0
C353 C 0.01767 0.52456 0.42328 0.0
C354 C 0.01017 0.56126 0.3971 0.0
C355 C 0.05217 0.61582 0.39389 0.0
C356 C 0.07343 0.50679 0.47831 0.0
C357 C 0.96043 0.54174 0.36907 0.0
C358 C 0.94528 0.38504 0.3726 0.0
C359 C 0.89556 0.36198 0.39444 0.0
C360 C 0.98814 0.43669 0.38438 0.0
C361 C 0.98035 0.46503 0.41861 0.0
C362 C 0.93285 0.4384 0.44411 0.0
C363 C 0.89092 0.38683 0.43172 0.0
C364 C 0.03912 0.46323 0.35721 0.0
C365 C 0.92311 0.46683 0.48101 0.0
H366 H 0.1411 0.61394 0.46597 0.0
H367 H 0.04932 0.64226 0.37017 0.0
H368 H 0.03561 0.47674 0.49504 0.0
H369 H 0.08661 0.48348 0.45785 0.0
H370 H 0.10576 0.52964 0.50248 0.0
H371 H 0.96286 0.51764 0.34204 0.0
H372 H 0.92276 0.51473 0.3874 0.0
H373 H 0.95706 0.57628 0.35566 0.0
H374 H 0.94854 0.36578 0.34361 0.0
H375 H 0.85217 0.36854 0.44852 0.0
H376 H 0.07602 0.48475 0.37757 0.0
H377 H 0.03807 0.49402 0.33585 0.0
H378 H 0.04275 0.43297 0.33695 0.0
H379 H 0.96087 0.4916 0.4998 0.0
H380 H 0.89071 0.43723 0.5028 0.0
H381 H 0.90995 0.49497 0.46823 0.0
C382 C 0.41 0.04678 0.67994 0.0
C383 C 0.40913 0.0713 0.71862 0.0
C384 C 0.42577 0.00731 0.67908 0.0
C385 C 0.4388 0.99112 0.71801 0.0
C386 C 0.43035 0.01018 0.75751 0.0
C387 C 0.41569 0.0505 0.75733 0.0
C388 C 0.43373 0.98725 0.63642 0.0
C389 C 0.44198 0.99206 0.79972 0.0
C390 C 0.45106 0.86565 0.72399 0.0
C391 C 0.50808 0.88752 0.72439 0.0
C392 C 0.42818 0.89883 0.72035 0.0
C393 C 0.46296 0.95563 0.71764 0.0
C394 C 0.52049 0.97842 0.71663 0.0
C395 C 0.54258 0.94378 0.7196 0.0
C396 C 0.36671 0.87302 0.72025 0.0
C397 C 0.55846 0.03927 0.71305 0.0
H398 H 0.40582 0.06364 0.64994 0.0
H399 H 0.41533 0.07001 0.7871 0.0
H400 H 0.47775 0.00231 0.63113 0.0
H401 H 0.4123 0.942 0.63583 0.0
H402 H 0.41863 0.00164 0.60957 0.0
H403 H 0.42853 0.00694 0.82743 0.0
H404 H 0.42123 0.94687 0.8013 0.0
H405 H 0.48648 0.00794 0.80263 0.0
H406 H 0.42357 0.82194 0.72604 0.0
H407 H 0.58638 0.96055 0.7189 0.0
H408 H 0.35327 0.88741 0.69229 0.0
H409 H 0.35337 0.88541 0.74943 0.0
H410 H 0.34553 0.8277 0.7193 0.0
H411 H 0.54853 0.05519 0.68404 0.0
H412 H 0.60198 0.05031 0.7114 0.0
H413 H 0.55283 0.05996 0.74111 0.0
C414 C 0.55677 0.63772 0.59807 0.0
C415 C 0.60564 0.66521 0.62116 0.0
C416 C 0.53025 0.58118 0.59241 0.0
C417 C 0.5532 0.55144 0.61038 0.0
C418 C 0.60492 0.57953 0.63059 0.0
C419 C 0.63083 0.6365 0.63563 0.0
C420 C 0.47511 0.55288 0.57087 0.0
C421 C 0.63039 0.54905 0.65037 0.0
C422 C 0.44893 0.4107 0.64995 0.0
C423 C 0.44946 0.37753 0.61709 0.0
C424 C 0.48356 0.46736 0.64858 0.0
C425 C 0.51934 0.49112 0.61328 0.0
C426 C 0.52018 0.45748 0.58009 0.0
C427 C 0.48532 0.40067 0.58259 0.0
C428 C 0.48201 0.50165 0.68504 0.0
C429 C 0.55788 0.48153 0.54215 0.0
H430 H 0.53742 0.66011 0.58677 0.0
H431 H 0.66834 0.65771 0.65387 0.0
H432 H 0.47223 0.5217 0.54791 0.0
H433 H 0.44285 0.53154 0.59542 0.0
H434 H 0.46662 0.5821 0.55355 0.0
H435 H 0.67407 0.57669 0.65832 0.0
H436 H 0.60825 0.52903 0.6803 0.0
H437 H 0.62695 0.51651 0.62864 0.0
H438 H 0.42215 0.39204 0.67724 0.0
H439 H 0.4864 0.37432 0.55793 0.0
H440 H 0.47297 0.53297 0.67265 0.0
H441 H 0.52247 0.52353 0.70086 0.0
H442 H 0.45087 0.47679 0.70955 0.0
H443 H 0.5484 0.50987 0.52464 0.0
H444 H 0.55444 0.44967 0.51957 0.0
H445 H 0.60077 0.50571 0.55322 0.0
C446 C 0.03406 0.40855 0.9131 0.0
C447 C 0.06185 0.41598 0.95176 0.0
C448 C 0.00587 0.43669 0.90506 0.0
C449 C 0.0045 0.47148 0.93701 0.0
C450 C 0.03156 0.4779 0.97646 0.0
C451 C 0.06049 0.45065 0.98303 0.0
C452 C 0.97716 0.4289 0.86279 0.0
C453 C 0.02967 0.51313 0.01203 0.0
C454 C 0.97409 0.58582 0.92316 0.0
C455 C 0.92135 0.56184 0.94046 0.0
C456 C 0.00015 0.55518 0.91784 0.0
C457 C 0.97303 0.49974 0.93073 0.0
C458 C 0.91825 0.47427 0.94477 0.0
C459 C 0.89294 0.50551 0.94901 0.0
C460 C 0.05809 0.58316 0.90149 0.0
C461 C 0.88793 0.41558 0.95973 0.0
H462 H 0.03513 0.38154 0.88904 0.0
H463 H 0.081 0.45533 0.01331 0.0
H464 H 0.93257 0.40975 0.86816 0.0
H465 H 0.99104 0.4691 0.84737 0.0
H466 H 0.9846 0.40279 0.84049 0.0
H467 H 0.04685 0.50795 0.04243 0.0
H468 H 0.05333 0.55672 0.00243 0.0
H469 H 0.98708 0.50312 0.01823 0.0
H470 H 0.99605 0.62904 0.91563 0.0
H471 H 0.85166 0.48609 0.96132 0.0
H472 H 0.06382 0.55649 0.87862 0.0
H473 H 0.08633 0.5915 0.92871 0.0
H474 H 0.06959 0.62253 0.88544 0.0
H475 H 0.89942 0.38957 0.94114 0.0
H476 H 0.84308 0.39793 0.95731 0.0
H477 H 0.89818 0.41401 0.9938 0.0
C478 C 0.36833 0.91331 0.24524 0.0
C479 C 0.34622 0.92897 0.27866 0.0
C480 C 0.42449 0.94321 0.23621 0.0
C481 C 0.45929 0.98774 0.26281 0.0
C482 C 0.43656 0.00454 0.29575 0.0
C483 C 0.38003 0.97566 0.30256 0.0
C484 C 0.44689 0.92536 0.1998 0.0
C485 C 0.47214 0.05037 0.32595 0.0
C486 C 0.60259 0.01702 0.28617 0.0
C487 C 0.63417 0.06851 0.26732 0.0
C488 C 0.54548 0.98929 0.28359 0.0
C489 C 0.51957 0.01265 0.25999 0.0
C490 C 0.55159 0.06263 0.238 0.0
C491 C 0.6086 0.09068 0.24278 0.0
C492 C 0.51288 0.93734 0.30914 0.0
C493 C 0.52561 0.08795 0.21142 0.0
H494 H 0.34195 0.87682 0.22702 0.0
H495 H 0.36276 0.98694 0.32892 0.0
H496 H 0.47722 0.96127 0.18117 0.0
H497 H 0.46809 0.90451 0.21276 0.0
H498 H 0.41413 0.89673 0.17787 0.0
H499 H 0.4479 0.05576 0.35138 0.0
H500 H 0.50244 0.04207 0.34152 0.0
H501 H 0.49512 0.08921 0.30796 0.0
H502 H 0.62228 0.0005 0.30599 0.0
H503 H 0.63308 0.13075 0.22849 0.0
H504 H 0.48377 0.90385 0.28808 0.0
H505 H 0.48853 0.94363 0.33395 0.0
H506 H 0.53925 0.9241 0.32527 0.0
H507 H 0.49201 0.0565 0.19163 0.0
H508 H 0.55572 0.1206 0.19005 0.0
H509 H 0.5078 0.10617 0.23281 0.0
C510 C 0.28694 0.2568 0.77292 0.0
C511 C 0.32312 0.23735 0.76722 0.0
C512 C 0.27157 0.26378 0.81383 0.0
C513 C 0.29223 0.25009 0.85022 0.0
C514 C 0.33022 0.23203 0.84483 0.0
C515 C 0.34547 0.22611 0.80323 0.0
C516 C 0.23195 0.2846 0.81789 0.0
C517 C 0.35339 0.21668 0.88226 0.0
C518 C 0.25485 0.31228 0.93869 0.0
C519 C 0.20026 0.27115 0.94397 0.0
C520 C 0.29058 0.30229 0.91411 0.0
C521 C 0.26989 0.2517 0.89279 0.0
C522 C 0.21821 0.20782 0.9042 0.0
C523 C 0.18393 0.21804 0.92981 0.0
C524 C 0.34937 0.34618 0.90857 0.0
C525 C 0.19642 0.15186 0.88489 0.0
H526 H 0.27051 0.26671 0.74522 0.0
H527 H 0.37378 0.21129 0.79897 0.0
H528 H 0.1932 0.25258 0.83236 0.0
H529 H 0.24901 0.32081 0.83917 0.0
H530 H 0.2224 0.29628 0.7865 0.0
H531 H 0.39691 0.22968 0.87637 0.0
H532 H 0.35022 0.23471 0.91285 0.0
H533 H 0.33084 0.17156 0.8857 0.0
H534 H 0.26867 0.35274 0.95114 0.0
H535 H 0.14266 0.18509 0.93571 0.0
H536 H 0.36 0.35401 0.8742 0.0
H537 H 0.37599 0.33189 0.92255 0.0
H538 H 0.35877 0.38484 0.92447 0.0
H539 H 0.18177 0.1518 0.85192 0.0
H540 H 0.1618 0.12 0.90379 0.0
H541 H 0.22899 0.14112 0.88282 0.0
C542 C 0.92553 0.27095 0.26983 0.0
C543 C 0.91655 0.22094 0.28591 0.0
C544 C 0.97285 0.30459 0.24574 0.0
C545 C 0.01049 0.28666 0.23709 0.0
C546 C 0.00627 0.24176 0.26017 0.0
C547 C 0.95916 0.2093 0.28424 0.0
C548 C 0.97917 0.35548 0.22496 0.0
C549 C 0.04645 0.22221 0.2538 0.0
C550 C 0.03422 0.27695 0.1194 0.0
C551 C 0.08884 0.31775 0.11334 0.0
C552 C 0.00889 0.26756 0.15925 0.0
C553 C 0.03864 0.29974 0.1948 0.0
C554 C 0.09404 0.34089 0.18947 0.0
C555 C 0.11865 0.34934 0.14867 0.0
C556 C 0.9498 0.22267 0.16298 0.0
C557 C 0.1273 0.37581 0.22655 0.0
H558 H 0.89401 0.28161 0.27285 0.0
H559 H 0.9537 0.17195 0.29851 0.0
H560 H 0.02165 0.38964 0.22861 0.0
H561 H 0.97088 0.3483 0.19017 0.0
H562 H 0.95095 0.36783 0.23897 0.0
H563 H 0.04637 0.1976 0.28155 0.0
H564 H 0.03482 0.19603 0.22485 0.0
H565 H 0.0884 0.25683 0.24899 0.0
H566 H 0.01039 0.25214 0.09264 0.0
H567 H 0.16096 0.38072 0.14448 0.0
H568 H 0.92438 0.23996 0.17395 0.0
H569 H 0.94577 0.19183 0.18684 0.0
H570 H 0.93288 0.20133 0.13214 0.0
H571 H 0.10366 0.38995 0.24552 0.0
H572 H 0.16594 0.41192 0.21572 0.0
H573 H 0.13781 0.35146 0.24822 0.0
C574 C 0.69389 0.9209 0.55755 0.0
C575 C 0.67378 0.91651 0.59911 0.0
C576 C 0.69585 0.95967 0.52883 0.0
C577 C 0.6783 0.99617 0.54226 0.0
C578 C 0.65439 0.98955 0.58339 0.0
C579 C 0.65205 0.94927 0.61146 0.0
C580 C 0.72026 0.96355 0.48498 0.0
C581 C 0.63464 0.02713 0.59861 0.0
C582 C 0.76516 0.11948 0.47514 0.0
C583 C 0.73 0.11057 0.4409 0.0
C584 C 0.74605 0.08734 0.5123 0.0
C585 C 0.69117 0.04391 0.51424 0.0
C586 C 0.65418 0.03962 0.48186 0.0
C587 C 0.67424 0.07296 0.44533 0.0
C588 C 0.7861 0.0961 0.54745 0.0
C589 C 0.59413 0.99813 0.48367 0.0
H590 H 0.71035 0.89522 0.54798 0.0
H591 H 0.63676 0.94596 0.64379 0.0
H592 H 0.69833 0.97279 0.45994 0.0
H593 H 0.76344 0.99702 0.4849 0.0
H594 H 0.71939 0.92512 0.47615 0.0
H595 H 0.61265 0.01363 0.62966 0.0
H596 H 0.67005 0.06898 0.60247 0.0
H597 H 0.6071 0.02939 0.57451 0.0
H598 H 0.80827 0.14893 0.4717 0.0
H599 H 0.64688 0.0668 0.41893 0.0
H600 H 0.80112 0.06696 0.54339 0.0
H601 H 0.76629 0.08866 0.57934 0.0
H602 H 0.82186 0.13818 0.54662 0.0
H603 H 0.58061 0.97584 0.45282 0.0
H604 H 0.57118 0.01991 0.48788 0.0
H605 H 0.58283 0.96853 0.5103 0.0
C606 C 0.72346 0.8305 0.80853 0.0
C607 C 0.66954 0.79944 0.79374 0.0
C608 C 0.74062 0.8154 0.8453 0.0
C609 C 0.70245 0.76911 0.86871 0.0
C610 C 0.64631 0.74408 0.85862 0.0
C611 C 0.63028 0.7588 0.82049 0.0
C612 C 0.80076 0.84507 0.85595 0.0
C613 C 0.60418 0.69885 0.8862 0.0
C614 C 0.76949 0.68717 0.89517 0.0
C615 C 0.79323 0.70971 0.93449 0.0
C616 C 0.7351 0.70249 0.87503 0.0
C617 C 0.72337 0.7402 0.89547 0.0
C618 C 0.74248 0.75802 0.93757 0.0
C619 C 0.77834 0.74338 0.95631 0.0
C620 C 0.71698 0.68346 0.82973 0.0
C621 C 0.72926 0.79607 0.96164 0.0
H622 H 0.75367 0.86397 0.78929 0.0
H623 H 0.58805 0.73613 0.81044 0.0
H624 H 0.80705 0.85698 0.89015 0.0
H625 H 0.81754 0.8176 0.85044 0.0
H626 H 0.82444 0.88242 0.83623 0.0
H627 H 0.56315 0.69391 0.88137 0.0
H628 H 0.6025 0.6599 0.87808 0.0
H629 H 0.61512 0.70715 0.92058 0.0
H630 H 0.78137 0.6611 0.8786 0.0
H631 H 0.7967 0.76034 0.98709 0.0
H632 H 0.74005 0.71805 0.80732 0.0
H633 H 0.67308 0.66957 0.82576 0.0
H634 H 0.72413 0.64972 0.82042 0.0
H635 H 0.76442 0.83832 0.95956 0.0
H636 H 0.72264 0.7848 0.9961 0.0
H637 H 0.69254 0.79565 0.94888 0.0
C638 C 0.08876 0.74134 0.2442 0.0
C639 C 0.07805 0.75881 0.28293 0.0
C640 C 0.04768 0.71595 0.2132 0.0
C641 C 0.99482 0.70763 0.22153 0.0
C642 C 0.98259 0.72013 0.26242 0.0
C643 C 0.02463 0.74607 0.29256 0.0
C644 C 0.06254 0.70429 0.16962 0.0
C645 C 0.92713 0.71245 0.27268 0.0
C646 C 0.93775 0.73 0.11943 0.0
C647 C 0.90286 0.67636 0.10566 0.0
C648 C 0.96424 0.74061 0.15902 0.0
C649 C 0.95694 0.69643 0.18502 0.0
C650 C 0.91837 0.64232 0.17297 0.0
C651 C 0.89114 0.63294 0.13354 0.0
C652 C 0.00276 0.7992 0.1717 0.0
C653 C 0.90863 0.59411 0.20003 0.0
H654 H 0.13037 0.7529 0.23614 0.0
H655 H 0.01671 0.76056 0.32233 0.0
H656 H 0.06418 0.73453 0.14617 0.0
H657 H 0.10292 0.70687 0.16952 0.0
H658 H 0.0309 0.66329 0.15844 0.0
H659 H 0.92027 0.71114 0.30779 0.0
H660 H 0.9243 0.74725 0.25931 0.0
H661 H 0.89404 0.67448 0.25817 0.0
H662 H 0.94581 0.76384 0.09852 0.0
H663 H 0.8632 0.59149 0.12362 0.0
H664 H 0.0455 0.80795 0.16969 0.0
H665 H 0.99518 0.80629 0.20529 0.0
H666 H -0.0014 0.82858 0.15071 0.0
H667 H 0.94147 0.58463 0.19364 0.0
H668 H 0.86884 0.55731 0.19245 0.0
H669 H 0.9097 0.60311 0.23467 0.0
C670 C 0.30791 0.05917 0.61301 0.0
C671 C 0.32098 0.10569 0.58858 0.0
C672 C 0.29907 0.01067 0.5932 0.0
C673 C 0.30322 0.00904 0.54809 0.0
C674 C 0.32236 0.05795 0.5242 0.0
C675 C 0.33002 0.10542 0.54464 0.0
C676 C 0.28218 0.96042 0.62004 0.0
C677 C 0.33092 0.05915 0.47642 0.0
C678 C 0.28993 0.89633 0.47425 0.0
C679 C 0.2385 0.87983 0.45666 0.0
C680 C 0.30991 0.93402 0.50845 0.0
C681 C 0.278 0.95589 0.52451 0.0
C682 C 0.22331 0.9331 0.51072 0.0
C683 C 0.2042 0.89512 0.4773 0.0
C684 C 0.36563 0.95152 0.5261 0.0
C685 C 0.18666 0.95323 0.52778 0.0
H686 H 0.30147 0.05972 0.64718 0.0
H687 H 0.3409 0.14177 0.52593 0.0
H688 H 0.23869 0.93012 0.61387 0.0
H689 H 0.30659 0.9412 0.6111 0.0
H690 H 0.28739 0.96989 0.65481 0.0
H691 H 0.35233 0.10144 0.4635 0.0
H692 H 0.35518 0.03945 0.46839 0.0
H693 H 0.29082 0.0358 0.4602 0.0
H694 H 0.31609 0.88344 0.45924 0.0
H695 H 0.16368 0.88112 0.46461 0.0
H696 H 0.36148 0.92332 0.55241 0.0
H697 H 0.38542 0.99343 0.53926 0.0
H698 H 0.39244 0.94928 0.50136 0.0
H699 H 0.18878 0.95586 0.56321 0.0
H700 H 0.14342 0.92629 0.51824 0.0
H701 H 0.20054 0.99484 0.51515 0.0
loop_
_geom_bond_atom_site_label_1
_geom_bond_atom_site_label_2
_geom_bond_distance
_geom_bond_site_symmetry_2
_ccdc_geom_bond_type
O0 Mn1 2.163 1_554 S
O0 C14 1.244 . S
Mn1 O0 2.163 1_556 S
Mn1 O4 2.160 . S
Mn1 O5 2.221 . S
Mn1 O7 2.163 1_556 S
Mn1 O9 2.160 . S
Mn1 O19 2.221 1_556 S
O2 Mn3 2.087 . S
O2 C14 1.256 . S
Mn3 O2 2.087 . S
Mn3 O10 2.089 1_554 S
Mn3 O19 2.290 . S
Mn3 O20 2.251 . S
O4 Mn1 2.160 . S
O4 C15 1.239 . S
O5 Mn1 2.221 . S
O5 Mn6 2.290 . S
O5 C16 1.278 . S
Mn6 O5 2.290 . S
Mn6 O8 2.089 . S
Mn6 O11 2.251 . S
Mn6 O12 2.087 1_556 S
O7 Mn1 2.163 1_554 S
O7 C17 1.244 . S
O8 Mn6 2.089 . S
O8 C15 1.256 . S
O9 Mn1 2.160 . S
O9 C18 1.239 . S
O10 Mn3 2.089 1_556 S
O10 C18 1.256 . S
O11 Mn6 2.251 . S
O11 C16 1.241 . S
O12 Mn6 2.087 1_554 S
O12 C17 1.256 . S
C13 O19 1.278 . S
C13 O20 1.241 . S
C14 O0 1.244 . S
C14 O2 1.256 . S
C15 O4 1.239 . S
C15 O8 1.256 . S
C16 O5 1.278 . S
C16 O11 1.241 . S
C17 O7 1.244 . S
C17 O12 1.256 . S
C18 O9 1.239 . S
C18 O10 1.256 . S
O19 Mn1 2.221 1_554 S
O19 Mn3 2.290 . S
O19 C13 1.278 . S
O20 Mn3 2.251 . S
O20 C13 1.241 . S
O21 Mn22 2.163 . S
O21 C35 1.244 . S
Mn22 O21 2.163 . S
Mn22 O25 2.160 . S
Mn22 O26 2.221 . S
Mn22 O28 2.163 . S
Mn22 O30 2.160 . S
Mn22 O40 2.221 . S
O23 Mn24 2.087 . S
O23 C35 1.256 . S
Mn24 O23 2.087 . S
Mn24 O31 2.089 . S
Mn24 O40 2.290 . S
Mn24 O41 2.251 . S
O25 Mn22 2.160 . S
O25 C36 1.239 . S
O26 Mn22 2.221 . S
O26 Mn27 2.290 . S
O26 C37 1.278 . S
Mn27 O26 2.290 . S
Mn27 O29 2.089 . S
Mn27 O32 2.251 . S
Mn27 O33 2.087 . S
O28 Mn22 2.163 . S
O28 C38 1.244 . S
O29 Mn27 2.089 . S
O29 C36 1.256 . S
O30 Mn22 2.160 . S
O30 C39 1.239 . S
O31 Mn24 2.089 . S
O31 C39 1.256 . S
O32 Mn27 2.251 . S
O32 C37 1.241 . S
O33 Mn27 2.087 . S
O33 C38 1.256 . S
C34 O40 1.278 . S
C34 O41 1.241 . S
C35 O21 1.244 . S
C35 O23 1.256 . S
C36 O25 1.239 . S
C36 O29 1.256 . S
C37 O26 1.278 . S
C37 O32 1.241 . S
C38 O28 1.244 . S
C38 O33 1.256 . S
C39 O30 1.239 . S
C39 O31 1.256 . S
O40 Mn22 2.221 . S
O40 Mn24 2.290 . S
O40 C34 1.278 . S
O41 Mn24 2.251 . S
O41 C34 1.241 . S
O42 Mn43 2.163 . S
O42 C56 1.244 . S
Mn43 O42 2.163 . S
Mn43 O46 2.160 . S
Mn43 O47 2.221 . S
Mn43 O49 2.163 . S
Mn43 O51 2.160 . S
Mn43 O61 2.221 . S
O44 Mn45 2.087 . S
O44 C56 1.256 . S
Mn45 O44 2.087 . S
Mn45 O52 2.089 . S
Mn45 O61 2.290 . S
Mn45 O62 2.251 . S
O46 Mn43 2.160 . S
O46 C57 1.239 . S
O47 Mn43 2.221 . S
O47 Mn48 2.290 . S
O47 C58 1.278 . S
Mn48 O47 2.290 . S
Mn48 O50 2.089 . S
Mn48 O53 2.251 . S
Mn48 O54 2.087 . S
O49 Mn43 2.163 . S
O49 C59 1.244 . S
O50 Mn48 2.089 . S
O50 C57 1.256 . S
O51 Mn43 2.160 . S
O51 C60 1.239 . S
O52 Mn45 2.089 . S
O52 C60 1.256 . S
O53 Mn48 2.251 . S
O53 C58 1.241 . S
O54 Mn48 2.087 . S
O54 C59 1.256 . S
C55 O61 1.278 . S
C55 O62 1.241 . S
C56 O42 1.244 . S
C56 O44 1.256 . S
C57 O46 1.239 . S
C57 O50 1.256 . S
C58 O47 1.278 . S
C58 O53 1.241 . S
C59 O49 1.244 . S
C59 O54 1.256 . S
C60 O51 1.239 . S
C60 O52 1.256 . S
O61 Mn43 2.221 . S
O61 Mn45 2.290 . S
O61 C55 1.278 . S
O62 Mn45 2.251 . S
O62 C55 1.241 . S
O63 Mn64 2.163 1_554 S
O63 C77 1.244 . S
Mn64 O63 2.163 1_556 S
Mn64 O67 2.160 . S
Mn64 O68 2.221 . S
Mn64 O70 2.163 1_556 S
Mn64 O72 2.160 . S
Mn64 O82 2.221 1_556 S
O65 Mn66 2.087 . S
O65 C77 1.256 . S
Mn66 O65 2.087 . S
Mn66 O73 2.089 1_554 S
Mn66 O82 2.290 . S
Mn66 O83 2.251 . S
O67 Mn64 2.160 . S
O67 C78 1.239 . S
O68 Mn64 2.221 . S
O68 Mn69 2.290 . S
O68 C79 1.278 . S
Mn69 O68 2.290 . S
Mn69 O71 2.089 . S
Mn69 O74 2.251 . S
Mn69 O75 2.087 1_556 S
O70 Mn64 2.163 1_554 S
O70 C80 1.244 . S
O71 Mn69 2.089 . S
O71 C78 1.256 . S
O72 Mn64 2.160 . S
O72 C81 1.239 . S
O73 Mn66 2.089 1_556 S
O73 C81 1.256 . S
O74 Mn69 2.251 . S
O74 C79 1.241 . S
O75 Mn69 2.087 1_554 S
O75 C80 1.256 . S
C76 O82 1.278 . S
C76 O83 1.241 . S
C77 O63 1.244 . S
C77 O65 1.256 . S
C78 O67 1.239 . S
C78 O71 1.256 . S
C79 O68 1.278 . S
C79 O74 1.241 . S
C80 O70 1.244 . S
C80 O75 1.256 . S
C81 O72 1.239 . S
C81 O73 1.256 . S
O82 Mn64 2.221 1_554 S
O82 Mn66 2.290 . S
O82 C76 1.278 . S
O83 Mn66 2.251 . S
O83 C76 1.241 . S
O84 Mn85 2.163 . S
O84 C98 1.244 . S
Mn85 O84 2.163 . S
Mn85 O88 2.160 . S
Mn85 O89 2.221 . S
Mn85 O91 2.163 . S
Mn85 O93 2.160 . S
Mn85 O103 2.221 . S
O86 Mn87 2.087 . S
O86 C98 1.256 . S
Mn87 O86 2.087 . S
Mn87 O94 2.089 . S
Mn87 O103 2.290 . S
Mn87 O104 2.251 . S
O88 Mn85 2.160 . S
O88 C99 1.239 . S
O89 Mn85 2.221 . S
O89 Mn90 2.290 . S
O89 C100 1.278 . S
Mn90 O89 2.290 . S
Mn90 O92 2.089 . S
Mn90 O95 2.251 . S
Mn90 O96 2.087 . S
O91 Mn85 2.163 . S
O91 C101 1.244 . S
O92 Mn90 2.089 . S
O92 C99 1.256 . S
O93 Mn85 2.160 . S
O93 C102 1.239 . S
O94 Mn87 2.089 . S
O94 C102 1.256 . S
O95 Mn90 2.251 . S
O95 C100 1.241 . S
O96 Mn90 2.087 . S
O96 C101 1.256 . S
C97 O103 1.278 . S
C97 O104 1.241 . S
C98 O84 1.244 . S
C98 O86 1.256 . S
C99 O88 1.239 . S
C99 O92 1.256 . S
C100 O89 1.278 . S
C100 O95 1.241 . S
C101 O91 1.244 . S
C101 O96 1.256 . S
C102 O93 1.239 . S
C102 O94 1.256 . S
O103 Mn85 2.221 . S
O103 Mn87 2.290 . S
O103 C97 1.278 . S
O104 Mn87 2.251 . S
O104 C97 1.241 . S
O105 Mn106 2.163 . S
O105 C119 1.244 . S
Mn106 O105 2.163 . S
Mn106 O109 2.160 . S
Mn106 O110 2.221 . S
Mn106 O112 2.163 . S
Mn106 O114 2.160 . S
Mn106 O124 2.221 . S
O107 Mn108 2.087 . S
O107 C119 1.256 . S
Mn108 O107 2.087 . S
Mn108 O115 2.089 . S
Mn108 O124 2.290 . S
Mn108 O125 2.251 . S
O109 Mn106 2.160 . S
O109 C120 1.239 . S
O110 Mn106 2.221 . S
O110 Mn111 2.290 . S
O110 C121 1.278 . S
Mn111 O110 2.290 . S
Mn111 O113 2.089 . S
Mn111 O116 2.251 . S
Mn111 O117 2.087 . S
O112 Mn106 2.163 . S
O112 C122 1.244 . S
O113 Mn111 2.089 . S
O113 C120 1.256 . S
O114 Mn106 2.160 . S
O114 C123 1.239 . S
O115 Mn108 2.089 . S
O115 C123 1.256 . S
O116 Mn111 2.251 . S
O116 C121 1.241 . S
O117 Mn111 2.087 . S
O117 C122 1.256 . S
C118 O124 1.278 . S
C118 O125 1.241 . S
C119 O105 1.244 . S
C119 O107 1.256 . S
C120 O109 1.239 . S
C120 O113 1.256 . S
C121 O110 1.278 . S
C121 O116 1.241 . S
C122 O112 1.244 . S
C122 O117 1.256 . S
C123 O114 1.239 . S
C123 O115 1.256 . S
O124 Mn106 2.221 . S
O124 Mn108 2.290 . S
O124 C118 1.278 . S
O125 Mn108 2.251 . S
O125 C118 1.241 . S
C126 C127 1.391 . S
C126 C128 1.394 . S
C126 H142 0.931 . S
C127 C126 1.391 . S
C127 C131 1.376 . S
C128 C126 1.394 . S
C128 C129 1.369 . S
C128 C132 1.531 . S
C129 C128 1.369 . S
C129 C130 1.410 . S
C129 C137 1.503 . S
C130 C129 1.410 . S
C130 C131 1.392 . S
C130 C133 1.511 . S
C131 C127 1.376 . S
C131 C130 1.392 . S
C131 H143 0.929 . S
C132 C128 1.531 . S
C132 H144 0.960 . S
C132 H145 0.962 . S
C132 H146 0.960 . S
C133 C130 1.511 . S
C133 H147 0.961 . S
C133 H148 0.961 . S
C133 H149 0.961 . S
C134 C135 1.370 . S
C134 C136 1.363 . S
C134 H150 0.931 . S
C135 C134 1.370 . S
C135 C139 1.408 . S
C136 C134 1.363 . S
C136 C137 1.370 . S
C136 C140 1.524 . S
C137 C129 1.503 . S
C137 C136 1.370 . S
C137 C138 1.403 . S
C138 C137 1.403 . S
C138 C139 1.404 . S
C138 C141 1.539 . S
C139 C135 1.408 . S
C139 C138 1.404 . S
C139 H151 0.930 . S
C140 C136 1.524 . S
C140 H152 0.956 . S
C140 H153 0.961 . S
C140 H154 0.961 . S
C141 C138 1.539 . S
C141 H155 0.958 . S
C141 H156 0.961 . S
C141 H157 0.960 . S
H142 C126 0.931 . S
H143 C131 0.929 . S
H144 C132 0.960 . S
H145 C132 0.962 . S
H146 C132 0.960 . S
H147 C133 0.961 . S
H148 C133 0.961 . S
H149 C133 0.961 . S
H150 C134 0.931 . S
H151 C139 0.930 . S
H152 C140 0.956 . S
H153 C140 0.961 . S
H154 C140 0.961 . S
H155 C141 0.958 . S
H156 C141 0.961 . S
H157 C141 0.960 . S
C158 C159 1.391 . S
C158 C160 1.394 . S
C158 H174 0.931 . S
C159 C158 1.391 . S
C159 C163 1.376 . S
C160 C158 1.394 . S
C160 C161 1.369 . S
C160 C164 1.531 . S
C161 C160 1.369 . S
C161 C162 1.410 . S
C161 C169 1.503 . S
C162 C161 1.410 . S
C162 C163 1.392 . S
C162 C165 1.511 . S
C163 C159 1.376 . S
C163 C162 1.392 . S
C163 H175 0.929 . S
C164 C160 1.531 . S
C164 H176 0.960 . S
C164 H177 0.962 . S
C164 H178 0.960 . S
C165 C162 1.511 . S
C165 H179 0.961 . S
C165 H180 0.961 . S
C165 H181 0.961 . S
C166 C167 1.370 . S
C166 C168 1.363 . S
C166 H182 0.931 . S
C167 C166 1.370 . S
C167 C171 1.408 . S
C168 C166 1.363 . S
C168 C169 1.370 . S
C168 C172 1.524 . S
C169 C161 1.503 . S
C169 C168 1.370 . S
C169 C170 1.403 . S
C170 C169 1.403 . S
C170 C171 1.404 . S
C170 C173 1.539 . S
C171 C167 1.408 . S
C171 C170 1.404 . S
C171 H183 0.930 . S
C172 C168 1.524 . S
C172 H184 0.956 . S
C172 H185 0.961 . S
C172 H186 0.961 . S
C173 C170 1.539 . S
C173 H187 0.958 . S
C173 H188 0.961 . S
C173 H189 0.960 . S
H174 C158 0.931 . S
H175 C163 0.929 . S
H176 C164 0.960 . S
H177 C164 0.962 . S
H178 C164 0.960 . S
H179 C165 0.961 . S
H180 C165 0.961 . S
H181 C165 0.961 . S
H182 C166 0.931 . S
H183 C171 0.930 . S
H184 C172 0.956 . S
H185 C172 0.961 . S
H186 C172 0.961 . S
H187 C173 0.958 . S
H188 C173 0.961 . S
H189 C173 0.960 . S
C190 C191 1.391 . S
C190 C192 1.394 . S
C190 H206 0.931 . S
C191 C190 1.391 . S
C191 C195 1.376 . S
C192 C190 1.394 . S
C192 C193 1.369 . S
C192 C196 1.531 . S
C193 C192 1.369 . S
C193 C194 1.410 . S
C193 C201 1.503 . S
C194 C193 1.410 . S
C194 C195 1.392 . S
C194 C197 1.511 . S
C195 C191 1.376 . S
C195 C194 1.392 . S
C195 H207 0.929 . S
C196 C192 1.531 . S
C196 H208 0.960 . S
C196 H209 0.962 . S
C196 H210 0.960 . S
C197 C194 1.511 . S
C197 H211 0.961 . S
C197 H212 0.961 . S
C197 H213 0.961 . S
C198 C199 1.370 . S
C198 C200 1.363 . S
C198 H214 0.931 . S
C199 C198 1.370 . S
C199 C203 1.408 . S
C200 C198 1.363 . S
C200 C201 1.370 . S
C200 C204 1.524 . S
C201 C193 1.503 . S
C201 C200 1.370 . S
C201 C202 1.403 . S
C202 C201 1.403 . S
C202 C203 1.404 . S
C202 C205 1.539 . S
C203 C199 1.408 . S
C203 C202 1.404 . S
C203 H215 0.930 . S
C204 C200 1.524 . S
C204 H216 0.956 . S
C204 H217 0.961 . S
C204 H218 0.961 . S
C205 C202 1.539 . S
C205 H219 0.958 . S
C205 H220 0.961 . S
C205 H221 0.960 . S
H206 C190 0.931 . S
H207 C195 0.929 . S
H208 C196 0.960 . S
H209 C196 0.962 . S
H210 C196 0.960 . S
H211 C197 0.961 . S
H212 C197 0.961 . S
H213 C197 0.961 . S
H214 C198 0.931 . S
H215 C203 0.930 . S
H216 C204 0.956 . S
H217 C204 0.961 . S
H218 C204 0.961 . S
H219 C205 0.958 . S
H220 C205 0.961 . S
H221 C205 0.960 . S
C222 C223 1.391 . S
C222 C224 1.394 . S
C222 H238 0.931 . S
C223 C222 1.391 . S
C223 C227 1.376 . S
C224 C222 1.394 . S
C224 C225 1.369 . S
C224 C228 1.531 . S
C225 C224 1.369 . S
C225 C226 1.410 . S
C225 C233 1.503 . S
C226 C225 1.410 . S
C226 C227 1.392 . S
C226 C229 1.511 . S
C227 C223 1.376 . S
C227 C226 1.392 . S
C227 H239 0.929 . S
C228 C224 1.531 . S
C228 H240 0.960 . S
C228 H241 0.962 . S
C228 H242 0.960 . S
C229 C226 1.511 . S
C229 H243 0.961 . S
C229 H244 0.961 . S
C229 H245 0.961 . S
C230 C231 1.370 . S
C230 C232 1.363 . S
C230 H246 0.931 . S
C231 C230 1.370 . S
C231 C235 1.408 . S
C232 C230 1.363 . S
C232 C233 1.370 . S
C232 C236 1.524 . S
C233 C225 1.503 . S
C233 C232 1.370 . S
C233 C234 1.403 . S
C234 C233 1.403 . S
C234 C235 1.404 . S
C234 C237 1.539 . S
C235 C231 1.408 . S
C235 C234 1.404 . S
C235 H247 0.930 . S
C236 C232 1.524 . S
C236 H248 0.956 . S
C236 H249 0.961 . S
C236 H250 0.961 . S
C237 C234 1.539 . S
C237 H251 0.958 . S
C237 H252 0.961 . S
C237 H253 0.960 . S
H238 C222 0.931 . S
H239 C227 0.929 . S
H240 C228 0.960 . S
H241 C228 0.962 . S
H242 C228 0.960 . S
H243 C229 0.961 . S
H244 C229 0.961 . S
H245 C229 0.961 . S
H246 C230 0.931 . S
H247 C235 0.930 . S
H248 C236 0.956 . S
H249 C236 0.961 . S
H250 C236 0.961 . S
H251 C237 0.958 . S
H252 C237 0.961 . S
H253 C237 0.960 . S
C254 C255 1.391 . S
C254 C256 1.394 . S
C254 H270 0.931 . S
C255 C254 1.391 . S
C255 C259 1.376 . S
C256 C254 1.394 . S
C256 C257 1.369 . S
C256 C260 1.531 . S
C257 C256 1.369 . S
C257 C258 1.410 . S
C257 C265 1.503 . S
C258 C257 1.410 . S
C258 C259 1.392 . S
C258 C261 1.511 . S
C259 C255 1.376 . S
C259 C258 1.392 . S
C259 H271 0.929 . S
C260 C256 1.531 . S
C260 H272 0.960 . S
C260 H273 0.962 . S
C260 H274 0.960 . S
C261 C258 1.511 . S
C261 H275 0.961 . S
C261 H276 0.961 . S
C261 H277 0.961 . S
C262 C263 1.370 . S
C262 C264 1.363 . S
C262 H278 0.931 . S
C263 C262 1.370 . S
C263 C267 1.408 . S
C264 C262 1.363 . S
C264 C265 1.370 . S
C264 C268 1.524 . S
C265 C257 1.503 . S
C265 C264 1.370 . S
C265 C266 1.403 . S
C266 C265 1.403 . S
C266 C267 1.404 . S
C266 C269 1.539 . S
C267 C263 1.408 . S
C267 C266 1.404 . S
C267 H279 0.930 . S
C268 C264 1.524 . S
C268 H280 0.956 . S
C268 H281 0.961 . S
C268 H282 0.961 . S
C269 C266 1.539 . S
C269 H283 0.958 . S
C269 H284 0.961 . S
C269 H285 0.960 . S
H270 C254 0.931 . S
H271 C259 0.929 . S
H272 C260 0.960 . S
H273 C260 0.962 . S
H274 C260 0.960 . S
H275 C261 0.961 . S
H276 C261 0.961 . S
H277 C261 0.961 . S
H278 C262 0.931 . S
H279 C267 0.930 . S
H280 C268 0.956 . S
H281 C268 0.961 . S
H282 C268 0.961 . S
H283 C269 0.958 . S
H284 C269 0.961 . S
H285 C269 0.960 . S
C286 C287 1.391 . S
C286 C288 1.394 . S
C286 H302 0.931 . S
C287 C286 1.391 . S
C287 C291 1.376 . S
C288 C286 1.394 . S
C288 C289 1.369 . S
C288 C292 1.531 . S
C289 C288 1.369 . S
C289 C290 1.410 . S
C289 C297 1.503 . S
C290 C289 1.410 . S
C290 C291 1.392 . S
C290 C293 1.511 . S
C291 C287 1.376 . S
C291 C290 1.392 . S
C291 H303 0.929 . S
C292 C288 1.531 . S
C292 H304 0.960 . S
C292 H305 0.962 . S
C292 H306 0.960 . S
C293 C290 1.511 . S
C293 H307 0.961 . S
C293 H308 0.961 . S
C293 H309 0.961 . S
C294 C295 1.370 . S
C294 C296 1.363 . S
C294 H310 0.931 . S
C295 C294 1.370 . S
C295 C299 1.408 . S
C296 C294 1.363 . S
C296 C297 1.370 . S
C296 C300 1.524 . S
C297 C289 1.503 . S
C297 C296 1.370 . S
C297 C298 1.403 . S
C298 C297 1.403 . S
C298 C299 1.404 . S
C298 C301 1.539 . S
C299 C295 1.408 . S
C299 C298 1.404 . S
C299 H311 0.930 . S
C300 C296 1.524 . S
C300 H312 0.956 . S
C300 H313 0.961 . S
C300 H314 0.961 . S
C301 C298 1.539 . S
C301 H315 0.958 . S
C301 H316 0.961 . S
C301 H317 0.960 . S
H302 C286 0.931 . S
H303 C291 0.929 . S
H304 C292 0.960 . S
H305 C292 0.962 . S
H306 C292 0.960 . S
H307 C293 0.961 . S
H308 C293 0.961 . S
H309 C293 0.961 . S
H310 C294 0.931 . S
H311 C299 0.930 . S
H312 C300 0.956 . S
H313 C300 0.961 . S
H314 C300 0.961 . S
H315 C301 0.958 . S
H316 C301 0.961 . S
H317 C301 0.960 . S
C318 C319 1.391 . S
C318 C320 1.394 . S
C318 H334 0.931 . S
C319 C318 1.391 . S
C319 C323 1.376 1_554 S
C320 C318 1.394 . S
C320 C321 1.369 . S
C320 C324 1.531 . S
C321 C320 1.369 . S
C321 C322 1.410 1_554 S
C321 C329 1.503 . S
C322 C321 1.410 1_556 S
C322 C323 1.392 . S
C322 C325 1.511 . S
C323 C319 1.376 1_556 S
C323 C322 1.392 . S
C323 H335 0.929 . S
C324 C320 1.531 . S
C324 H336 0.960 . S
C324 H337 0.962 . S
C324 H338 0.960 . S
C325 C322 1.511 . S
C325 H339 0.961 . S
C325 H340 0.961 . S
C325 H341 0.961 . S
C326 C327 1.370 . S
C326 C328 1.363 . S
C326 H342 0.931 . S
C327 C326 1.370 . S
C327 C331 1.408 1_554 S
C328 C326 1.363 . S
C328 C329 1.370 . S
C328 C332 1.524 . S
C329 C321 1.503 . S
C329 C328 1.370 . S
C329 C330 1.403 1_554 S
C330 C329 1.403 1_556 S
C330 C331 1.404 . S
C330 C333 1.539 . S
C331 C327 1.408 1_556 S
C331 C330 1.404 . S
C331 H343 0.930 . S
C332 C328 1.524 . S
C332 H344 0.956 . S
C332 H345 0.961 . S
C332 H346 0.961 . S
C333 C330 1.539 . S
C333 H347 0.958 . S
C333 H348 0.961 . S
C333 H349 0.960 . S
H334 C318 0.931 . S
H335 C323 0.929 . S
H336 C324 0.960 . S
H337 C324 0.962 . S
H338 C324 0.960 . S
H339 C325 0.961 . S
H340 C325 0.961 . S
H341 C325 0.961 . S
H342 C326 0.931 . S
H343 C331 0.930 . S
H344 C332 0.956 . S
H345 C332 0.961 . S
H346 C332 0.961 . S
H347 C333 0.958 . S
H348 C333 0.961 . S
H349 C333 0.960 . S
C350 C351 1.391 . S
C350 C352 1.394 . S
C350 H366 0.931 . S
C351 C350 1.391 . S
C351 C355 1.376 . S
C352 C350 1.394 . S
C352 C353 1.369 . S
C352 C356 1.531 . S
C353 C352 1.369 . S
C353 C354 1.410 1_455 S
C353 C361 1.503 1_455 S
C354 C353 1.410 1_655 S
C354 C355 1.392 1_655 S
C354 C357 1.511 . S
C355 C351 1.376 . S
C355 C354 1.392 1_455 S
C355 H367 0.929 1_455 S
C356 C352 1.531 . S
C356 H368 0.960 . S
C356 H369 0.962 . S
C356 H370 0.960 . S
C357 C354 1.511 . S
C357 H371 0.961 . S
C357 H372 0.961 . S
C357 H373 0.961 . S
C358 C359 1.370 . S
C358 C360 1.363 . S
C358 H374 0.931 . S
C359 C358 1.370 . S
C359 C363 1.408 . S
C360 C358 1.363 . S
C360 C361 1.370 . S
C360 C364 1.524 1_655 S
C361 C353 1.503 1_655 S
C361 C360 1.370 . S
C361 C362 1.403 . S
C362 C361 1.403 . S
C362 C363 1.404 . S
C362 C365 1.539 . S
C363 C359 1.408 . S
C363 C362 1.404 . S
C363 H375 0.930 . S
C364 C360 1.524 1_455 S
C364 H376 0.956 . S
C364 H377 0.961 . S
C364 H378 0.961 . S
C365 C362 1.539 . S
C365 H379 0.958 . S
C365 H380 0.961 . S
C365 H381 0.960 . S
H366 C350 0.931 . S
H367 C355 0.929 1_655 S
H368 C356 0.960 . S
H369 C356 0.962 . S
H370 C356 0.960 . S
H371 C357 0.961 . S
H372 C357 0.961 . S
H373 C357 0.961 . S
H374 C358 0.931 . S
H375 C363 0.930 . S
H376 C364 0.956 . S
H377 C364 0.961 . S
H378 C364 0.961 . S
H379 C365 0.958 . S
H380 C365 0.961 . S
H381 C365 0.960 . S
C382 C383 1.391 . S
C382 C384 1.394 . S
C382 H398 0.931 . S
C383 C382 1.391 . S
C383 C387 1.376 . S
C384 C382 1.394 . S
C384 C385 1.369 . S
C384 C388 1.531 . S
C385 C384 1.369 . S
C385 C386 1.410 . S
C385 C393 1.503 1_545 S
C386 C385 1.410 . S
C386 C387 1.392 . S
C386 C389 1.511 . S
C387 C383 1.376 . S
C387 C386 1.392 . S
C387 H399 0.929 . S
C388 C384 1.531 . S
C388 H400 0.960 . S
C388 H401 0.962 1_545 S
C388 H402 0.960 . S
C389 C386 1.511 . S
C389 H403 0.961 . S
C389 H404 0.961 . S
C389 H405 0.961 . S
C390 C391 1.370 . S
C390 C392 1.363 . S
C390 H406 0.931 . S
C391 C390 1.370 . S
C391 C395 1.408 . S
C392 C390 1.363 . S
C392 C393 1.370 . S
C392 C396 1.524 . S
C393 C385 1.503 1_565 S
C393 C392 1.370 . S
C393 C394 1.403 1_565 S
C394 C393 1.403 1_545 S
C394 C395 1.404 1_545 S
C394 C397 1.539 . S
C395 C391 1.408 . S
C395 C394 1.404 1_565 S
C395 H407 0.930 1_565 S
C396 C392 1.524 . S
C396 H408 0.956 . S
C396 H409 0.961 . S
C396 H410 0.961 . S
C397 C394 1.539 . S
C397 H411 0.958 . S
C397 H412 0.961 . S
C397 H413 0.960 . S
H398 C382 0.931 . S
H399 C387 0.929 . S
H400 C388 0.960 . S
H401 C388 0.962 1_565 S
H402 C388 0.960 . S
H403 C389 0.961 . S
H404 C389 0.961 . S
H405 C389 0.961 . S
H406 C390 0.931 . S
H407 C395 0.930 1_545 S
H408 C396 0.956 . S
H409 C396 0.961 . S
H410 C396 0.961 . S
H411 C397 0.958 . S
H412 C397 0.961 . S
H413 C397 0.960 . S
C414 C415 1.391 . S
C414 C416 1.394 . S
C414 H430 0.931 . S
C415 C414 1.391 . S
C415 C419 1.376 . S
C416 C414 1.394 . S
C416 C417 1.369 . S
C416 C420 1.531 . S
C417 C416 1.369 . S
C417 C418 1.410 . S
C417 C425 1.503 . S
C418 C417 1.410 . S
C418 C419 1.392 . S
C418 C421 1.511 . S
C419 C415 1.376 . S
C419 C418 1.392 . S
C419 H431 0.929 . S
C420 C416 1.531 . S
C420 H432 0.960 . S
C420 H433 0.962 . S
C420 H434 0.960 . S
C421 C418 1.511 . S
C421 H435 0.961 . S
C421 H436 0.961 . S
C421 H437 0.961 . S
C422 C423 1.370 . S
C422 C424 1.363 . S
C422 H438 0.931 . S
C423 C422 1.370 . S
C423 C427 1.408 . S
C424 C422 1.363 . S
C424 C425 1.370 . S
C424 C428 1.524 . S
C425 C417 1.503 . S
C425 C424 1.370 . S
C425 C426 1.403 . S
C426 C425 1.403 . S
C426 C427 1.404 . S
C426 C429 1.539 . S
C427 C423 1.408 . S
C427 C426 1.404 . S
C427 H439 0.930 . S
C428 C424 1.524 . S
C428 H440 0.956 . S
C428 H441 0.961 . S
C428 H442 0.961 . S
C429 C426 1.539 . S
C429 H443 0.958 . S
C429 H444 0.961 . S
C429 H445 0.960 . S
H430 C414 0.931 . S
H431 C419 0.929 . S
H432 C420 0.960 . S
H433 C420 0.962 . S
H434 C420 0.960 . S
H435 C421 0.961 . S
H436 C421 0.961 . S
H437 C421 0.961 . S
H438 C422 0.931 . S
H439 C427 0.930 . S
H440 C428 0.956 . S
H441 C428 0.961 . S
H442 C428 0.961 . S
H443 C429 0.958 . S
H444 C429 0.961 . S
H445 C429 0.960 . S
C446 C447 1.391 . S
C446 C448 1.394 1_455 S
C446 H462 0.931 . S
C447 C446 1.391 . S
C447 C451 1.376 1_556 S
C448 C446 1.394 1_655 S
C448 C449 1.369 1_655 S
C448 C452 1.531 . S
C449 C448 1.369 1_455 S
C449 C450 1.410 1_556 S
C449 C457 1.503 1_455 S
C450 C449 1.410 1_554 S
C450 C451 1.392 . S
C450 C453 1.511 . S
C451 C447 1.376 1_554 S
C451 C450 1.392 . S
C451 H463 0.929 . S
C452 C448 1.531 . S
C452 H464 0.960 . S
C452 H465 0.962 . S
C452 H466 0.960 . S
C453 C450 1.511 . S
C453 H467 0.961 . S
C453 H468 0.961 . S
C453 H469 0.961 . S
C454 C455 1.370 . S
C454 C456 1.354 1_655 S
C454 H470 0.931 . S
C455 C454 1.370 . S
C455 C459 1.408 1_556 S
C456 C454 1.354 1_455 S
C456 C457 1.371 1_455 S
C456 C460 1.533 . S
C457 C449 1.503 1_655 S
C457 C456 1.371 1_655 S
C457 C458 1.403 1_556 S
C458 C457 1.403 1_554 S
C458 C459 1.404 . S
C458 C461 1.539 . S
C459 C455 1.408 1_554 S
C459 C458 1.404 . S
C459 H471 0.930 . S
C460 C456 1.533 . S
C460 H472 0.956 . S
C460 H473 0.961 . S
C460 H474 0.961 . S
C461 C458 1.539 . S
C461 H475 0.958 . S
C461 H476 0.961 . S
C461 H477 0.960 . S
H462 C446 0.931 . S
H463 C451 0.929 . S
H464 C452 0.960 . S
H465 C452 0.962 . S
H466 C452 0.960 . S
H467 C453 0.961 . S
H468 C453 0.961 . S
H469 C453 0.961 . S
H470 C454 0.931 . S
H471 C459 0.930 . S
H472 C460 0.956 . S
H473 C460 0.961 . S
H474 C460 0.961 . S
H475 C461 0.958 . S
H476 C461 0.961 . S
H477 C461 0.960 . S
C478 C479 1.391 . S
C478 C480 1.394 . S
C478 H494 0.931 . S
C479 C478 1.391 . S
C479 C483 1.376 . S
C480 C478 1.394 . S
C480 C481 1.369 . S
C480 C484 1.531 . S
C481 C480 1.369 . S
C481 C482 1.410 1_565 S
C481 C489 1.503 1_565 S
C482 C481 1.410 1_545 S
C482 C483 1.392 1_545 S
C482 C485 1.511 . S
C483 C479 1.376 . S
C483 C482 1.392 1_565 S
C483 H495 0.929 . S
C484 C480 1.531 . S
C484 H496 0.960 . S
C484 H497 0.962 . S
C484 H498 0.960 . S
C485 C482 1.511 . S
C485 H499 0.961 . S
C485 H500 0.961 . S
C485 H501 0.961 . S
C486 C487 1.370 . S
C486 C488 1.363 1_545 S
C486 H502 0.931 . S
C487 C486 1.370 . S
C487 C491 1.408 . S
C488 C486 1.363 1_565 S
C488 C489 1.370 1_565 S
C488 C492 1.524 . S
C489 C481 1.503 1_545 S
C489 C488 1.370 1_545 S
C489 C490 1.403 . S
C490 C489 1.403 . S
C490 C491 1.404 . S
C490 C493 1.539 . S
C491 C487 1.408 . S
C491 C490 1.404 . S
C491 H503 0.930 . S
C492 C488 1.524 . S
C492 H504 0.956 . S
C492 H505 0.961 . S
C492 H506 0.961 . S
C493 C490 1.539 . S
C493 H507 0.958 . S
C493 H508 0.961 . S
C493 H509 0.960 . S
H494 C478 0.931 . S
H495 C483 0.929 . S
H496 C484 0.960 . S
H497 C484 0.962 . S
H498 C484 0.960 . S
H499 C485 0.961 . S
H500 C485 0.961 . S
H501 C485 0.961 . S
H502 C486 0.931 . S
H503 C491 0.930 . S
H504 C492 0.956 . S
H505 C492 0.961 . S
H506 C492 0.961 . S
H507 C493 0.958 . S
H508 C493 0.961 . S
H509 C493 0.960 . S
C510 C511 1.391 . S
C510 C512 1.394 . S
C510 H526 0.931 . S
C511 C510 1.391 . S
C511 C515 1.376 . S
C512 C510 1.394 . S
C512 C513 1.369 . S
C512 C516 1.531 . S
C513 C512 1.369 . S
C513 C514 1.410 . S
C513 C521 1.503 . S
C514 C513 1.410 . S
C514 C515 1.392 . S
C514 C517 1.511 . S
C515 C511 1.376 . S
C515 C514 1.392 . S
C515 H527 0.929 . S
C516 C512 1.531 . S
C516 H528 0.960 . S
C516 H529 0.962 . S
C516 H530 0.960 . S
C517 C514 1.511 . S
C517 H531 0.961 . S
C517 H532 0.961 . S
C517 H533 0.961 . S
C518 C519 1.370 . S
C518 C520 1.363 . S
C518 H534 0.931 . S
C519 C518 1.370 . S
C519 C523 1.408 . S
C520 C518 1.363 . S
C520 C521 1.370 . S
C520 C524 1.524 . S
C521 C513 1.503 . S
C521 C520 1.370 . S
C521 C522 1.403 . S
C522 C521 1.403 . S
C522 C523 1.404 . S
C522 C525 1.539 . S
C523 C519 1.408 . S
C523 C522 1.404 . S
C523 H535 0.930 . S
C524 C520 1.524 . S
C524 H536 0.956 . S
C524 H537 0.961 . S
C524 H538 0.961 . S
C525 C522 1.539 . S
C525 H539 0.958 . S
C525 H540 0.961 . S
C525 H541 0.960 . S
H526 C510 0.931 . S
H527 C515 0.929 . S
H528 C516 0.960 . S
H529 C516 0.962 . S
H530 C516 0.960 . S
H531 C517 0.961 . S
H532 C517 0.961 . S
H533 C517 0.961 . S
H534 C518 0.931 . S
H535 C523 0.930 . S
H536 C524 0.956 . S
H537 C524 0.961 . S
H538 C524 0.961 . S
H539 C525 0.958 . S
H540 C525 0.961 . S
H541 C525 0.960 . S
C542 C543 1.391 . S
C542 C544 1.394 . S
C542 H558 0.931 . S
C543 C542 1.391 . S
C543 C547 1.376 . S
C544 C542 1.394 . S
C544 C545 1.369 . S
C544 C548 1.531 . S
C545 C544 1.369 . S
C545 C546 1.410 . S
C545 C553 1.503 1_655 S
C546 C545 1.410 . S
C546 C547 1.392 . S
C546 C549 1.511 1_655 S
C547 C543 1.376 . S
C547 C546 1.392 . S
C547 H559 0.929 . S
C548 C544 1.531 . S
C548 H560 0.960 . S
C548 H561 0.962 . S
C548 H562 0.960 . S
C549 C546 1.511 1_455 S
C549 H563 0.961 . S
C549 H564 0.961 . S
C549 H565 0.961 . S
C550 C551 1.370 . S
C550 C552 1.363 . S
C550 H566 0.931 . S
C551 C550 1.370 . S
C551 C555 1.408 . S
C552 C550 1.363 . S
C552 C553 1.370 . S
C552 C556 1.524 1_455 S
C553 C545 1.503 1_455 S
C553 C552 1.370 . S
C553 C554 1.403 . S
C554 C553 1.403 . S
C554 C555 1.404 . S
C554 C557 1.539 . S
C555 C551 1.408 . S
C555 C554 1.404 . S
C555 H567 0.930 . S
C556 C552 1.524 1_655 S
C556 H568 0.956 . S
C556 H569 0.961 . S
C556 H570 0.961 . S
C557 C554 1.539 . S
C557 H571 0.958 . S
C557 H572 0.961 . S
C557 H573 0.960 . S
H558 C542 0.931 . S
H559 C547 0.929 . S
H560 C548 0.960 . S
H561 C548 0.962 . S
H562 C548 0.960 . S
H563 C549 0.961 . S
H564 C549 0.961 . S
H565 C549 0.961 . S
H566 C550 0.931 . S
H567 C555 0.930 . S
H568 C556 0.956 . S
H569 C556 0.961 . S
H570 C556 0.961 . S
H571 C557 0.958 . S
H572 C557 0.961 . S
H573 C557 0.960 . S
C574 C575 1.391 . S
C574 C576 1.394 . S
C574 H590 0.931 . S
C575 C574 1.391 . S
C575 C579 1.376 . S
C576 C574 1.394 . S
C576 C577 1.369 . S
C576 C580 1.531 . S
C577 C576 1.369 . S
C577 C578 1.410 . S
C577 C585 1.503 1_565 S
C578 C577 1.410 . S
C578 C579 1.392 . S
C578 C581 1.511 1_565 S
C579 C575 1.376 . S
C579 C578 1.392 . S
C579 H591 0.929 . S
C580 C576 1.531 . S
C580 H592 0.960 . S
C580 H593 0.962 . S
C580 H594 0.960 . S
C581 C578 1.511 1_545 S
C581 H595 0.961 . S
C581 H596 0.961 . S
C581 H597 0.961 1_545 S
C582 C583 1.370 . S
C582 C584 1.363 . S
C582 H598 0.931 . S
C583 C582 1.370 . S
C583 C587 1.408 . S
C584 C582 1.363 . S
C584 C585 1.370 . S
C584 C588 1.524 . S
C585 C577 1.503 1_545 S
C585 C584 1.370 . S
C585 C586 1.403 . S
C586 C585 1.403 . S
C586 C587 1.404 . S
C586 C589 1.539 1_545 S
C587 C583 1.408 . S
C587 C586 1.404 . S
C587 H599 0.930 . S
C588 C584 1.524 . S
C588 H600 0.956 . S
C588 H601 0.961 . S
C588 H602 0.961 . S
C589 C586 1.539 1_565 S
C589 H603 0.958 . S
C589 H604 0.961 . S
C589 H605 0.960 . S
H590 C574 0.931 . S
H591 C579 0.929 . S
H592 C580 0.960 . S
H593 C580 0.962 . S
H594 C580 0.960 . S
H595 C581 0.961 . S
H596 C581 0.961 . S
H597 C581 0.961 1_565 S
H598 C582 0.931 . S
H599 C587 0.930 . S
H600 C588 0.956 . S
H601 C588 0.961 . S
H602 C588 0.961 . S
H603 C589 0.958 . S
H604 C589 0.961 . S
H605 C589 0.960 . S
C606 C607 1.391 . S
C606 C608 1.394 . S
C606 H622 0.931 . S
C607 C606 1.391 . S
C607 C611 1.376 . S
C608 C606 1.394 . S
C608 C609 1.369 . S
C608 C612 1.531 . S
C609 C608 1.369 . S
C609 C610 1.410 . S
C609 C617 1.503 . S
C610 C609 1.410 . S
C610 C611 1.392 . S
C610 C613 1.511 . S
C611 C607 1.376 . S
C611 C610 1.392 . S
C611 H623 0.929 . S
C612 C608 1.531 . S
C612 H624 0.960 . S
C612 H625 0.962 . S
C612 H626 0.960 . S
C613 C610 1.511 . S
C613 H627 0.961 . S
C613 H628 0.961 . S
C613 H629 0.961 . S
C614 C615 1.370 . S
C614 C616 1.363 . S
C614 H630 0.931 . S
C615 C614 1.370 . S
C615 C619 1.408 . S
C616 C614 1.363 . S
C616 C617 1.370 . S
C616 C620 1.524 . S
C617 C609 1.503 . S
C617 C616 1.370 . S
C617 C618 1.403 . S
C618 C617 1.403 . S
C618 C619 1.404 . S
C618 C621 1.539 . S
C619 C615 1.408 . S
C619 C618 1.404 . S
C619 H631 0.930 . S
C620 C616 1.524 . S
C620 H632 0.956 . S
C620 H633 0.961 . S
C620 H634 0.961 . S
C621 C618 1.539 . S
C621 H635 0.958 . S
C621 H636 0.961 . S
C621 H637 0.960 . S
H622 C606 0.931 . S
H623 C611 0.929 . S
H624 C612 0.960 . S
H625 C612 0.962 . S
H626 C612 0.960 . S
H627 C613 0.961 . S
H628 C613 0.961 . S
H629 C613 0.961 . S
H630 C614 0.931 . S
H631 C619 0.930 . S
H632 C620 0.956 . S
H633 C620 0.961 . S
H634 C620 0.961 . S
H635 C621 0.958 . S
H636 C621 0.961 . S
H637 C621 0.960 . S
C638 C639 1.391 . S
C638 C640 1.394 . S
C638 H654 0.931 . S
C639 C638 1.391 . S
C639 C643 1.376 . S
C640 C638 1.394 . S
C640 C641 1.369 . S
C640 C644 1.531 . S
C641 C640 1.369 . S
C641 C642 1.410 . S
C641 C649 1.503 1_455 S
C642 C641 1.410 . S
C642 C643 1.392 . S
C642 C645 1.511 1_455 S
C643 C639 1.376 . S
C643 C642 1.392 . S
C643 H655 0.929 . S
C644 C640 1.531 . S
C644 H656 0.960 . S
C644 H657 0.962 . S
C644 H658 0.960 . S
C645 C642 1.511 1_655 S
C645 H659 0.961 . S
C645 H660 0.961 . S
C645 H661 0.961 . S
C646 C647 1.370 . S
C646 C648 1.363 . S
C646 H662 0.931 . S
C647 C646 1.370 . S
C647 C651 1.408 . S
C648 C646 1.363 . S
C648 C649 1.370 . S
C648 C652 1.524 1_655 S
C649 C641 1.503 1_655 S
C649 C648 1.370 . S
C649 C650 1.403 . S
C650 C649 1.403 . S
C650 C651 1.404 . S
C650 C653 1.539 . S
C651 C647 1.408 . S
C651 C650 1.404 . S
C651 H663 0.930 . S
C652 C648 1.524 1_455 S
C652 H664 0.956 . S
C652 H665 0.961 . S
C652 H666 0.961 . S
C653 C650 1.539 . S
C653 H667 0.958 . S
C653 H668 0.961 . S
C653 H669 0.960 . S
H654 C638 0.931 . S
H655 C643 0.929 . S
H656 C644 0.960 . S
H657 C644 0.962 . S
H658 C644 0.960 . S
H659 C645 0.961 . S
H660 C645 0.961 . S
H661 C645 0.961 . S
H662 C646 0.931 . S
H663 C651 0.930 . S
H664 C652 0.956 . S
H665 C652 0.961 . S
H666 C652 0.961 . S
H667 C653 0.958 . S
H668 C653 0.961 . S
H669 C653 0.960 . S
C670 C671 1.391 . S
C670 C672 1.394 . S
C670 H686 0.931 . S
C671 C670 1.391 . S
C671 C675 1.376 . S
C672 C670 1.394 . S
C672 C673 1.369 . S
C672 C676 1.531 1_545 S
C673 C672 1.369 . S
C673 C674 1.410 . S
C673 C681 1.503 1_545 S
C674 C673 1.410 . S
C674 C675 1.392 . S
C674 C677 1.511 . S
C675 C671 1.376 . S
C675 C674 1.392 . S
C675 H687 0.929 . S
C676 C672 1.531 1_565 S
C676 H688 0.960 . S
C676 H689 0.962 . S
C676 H690 0.960 . S
C677 C674 1.511 . S
C677 H691 0.961 . S
C677 H692 0.961 . S
C677 H693 0.961 . S
C678 C679 1.370 . S
C678 C680 1.363 . S
C678 H694 0.931 . S
C679 C678 1.370 . S
C679 C683 1.408 . S
C680 C678 1.363 . S
C680 C681 1.370 . S
C680 C684 1.524 . S
C681 C673 1.503 1_565 S
C681 C680 1.370 . S
C681 C682 1.403 . S
C682 C681 1.403 . S
C682 C683 1.404 . S
C682 C685 1.539 . S
C683 C679 1.408 . S
C683 C682 1.404 . S
C683 H695 0.930 . S
C684 C680 1.524 . S
C684 H696 0.956 . S
C684 H697 0.961 1_565 S
C684 H698 0.961 . S
C685 C682 1.539 . S
C685 H699 0.958 . S
C685 H700 0.961 . S
C685 H701 0.960 . S
H686 C670 0.931 . S
H687 C675 0.929 . S
H688 C676 0.960 . S
H689 C676 0.962 . S
H690 C676 0.960 . S
H691 C677 0.961 . S
H692 C677 0.961 . S
H693 C677 0.961 . S
H694 C678 0.931 . S
H695 C683 0.930 . S
H696 C684 0.956 . S
H697 C684 0.961 1_545 S
H698 C684 0.961 . S
H699 C685 0.958 . S
H700 C685 0.961 . S
H701 C685 0.960 . S
C127 C102 0.858 . S
C135 C13 0.889 . S
C159 C123 0.854 . S
C167 C34 0.886 . S
C191 C18 0.948 . S
C199 C55 0.857 . S
C223 C39 0.925 . S
C231 C76 0.823 . S
C255 C60 0.881 . S
C263 C97 0.895 . S
C287 C81 0.851 . S
C295 C118 0.875 . S
C319 C14 1.093 . S
C327 C77 1.036 . S
C351 C98 1.068 . S
C359 C35 1.031 . S
C383 C119 0.977 . S
C391 C56 1.077 . S
C415 C57 1.141 . S
C423 C120 1.134 . S
C447 C15 1.130 . S
C455 C78 1.128 . S
C479 C99 1.141 . S
C487 C36 1.132 . S
C511 C122 1.113 . S
C519 C16 1.069 . S
C543 C37 1.115 . S
C551 C17 1.120 . S
C575 C58 1.098 . S
C583 C38 1.096 . S
C607 C59 1.134 . S
C615 C79 1.081 . S
C639 C100 1.118 . S
C647 C80 1.119 . S
C671 C121 1.040 . S
C679 C101 1.109 . S
