# Generated by pormake.
# Topology ukd, (4)-cn, num edge types: 1
# Building blocks:
#     Node 0, Type 0, BuildingBlock: NAHDIM_clean_sbu_0, # of connection points: 4
#     Node 1, Type 0, BuildingBlock: NAHDIM_clean_sbu_0, # of connection points: 4
#     Node 2, Type 0, BuildingBlock: NAHDIM_clean_sbu_0, # of connection points: 4
#     Node 3, Type 0, BuildingBlock: NAHDIM_clean_sbu_0, # of connection points: 4
#     Node 4, Type 0, BuildingBlock: NAHDIM_clean_sbu_0, # of connection points: 4
#     Node 5, Type 0, BuildingBlock: NAHDIM_clean_sbu_0, # of connection points: 4
#     Node 6, Type 0, BuildingBlock: NAHDIM_clean_sbu_0, # of connection points: 4
#     Node 7, Type 0, BuildingBlock: NAHDIM_clean_sbu_0, # of connection points: 4
#     Node 8, Type 0, BuildingBlock: NAHDIM_clean_sbu_0, # of connection points: 4
#     Node 9, Type 0, BuildingBlock: NAHDIM_clean_sbu_0, # of connection points: 4
#     Node 10, Type 0, BuildingBlock: NAHDIM_clean_sbu_0, # of connection points: 4
#     Node 11, Type 0, BuildingBlock: NAHDIM_clean_sbu_0, # of connection points: 4
#     Node 12, Type 0, BuildingBlock: NAHDIM_clean_sbu_0, # of connection points: 4
#     Node 13, Type 0, BuildingBlock: NAHDIM_clean_sbu_0, # of connection points: 4
#     Node 14, Type 0, BuildingBlock: NAHDIM_clean_sbu_0, # of connection points: 4
#     Node 15, Type 0, BuildingBlock: NAHDIM_clean_sbu_0, # of connection points: 4
#     Node 16, Type 0, BuildingBlock: NAHDIM_clean_sbu_0, # of connection points: 4
#     Node 17, Type 0, BuildingBlock: NAHDIM_clean_sbu_0, # of connection points: 4
#     Node 18, Type 0, BuildingBlock: NAHDIM_clean_sbu_0, # of connection points: 4
#     Node 19, Type 0, BuildingBlock: NAHDIM_clean_sbu_0, # of connection points: 4
#     Node 20, Type 0, BuildingBlock: NAHDIM_clean_sbu_0, # of connection points: 4
#     Node 21, Type 0, BuildingBlock: NAHDIM_clean_sbu_0, # of connection points: 4
#     Node 22, Type 0, BuildingBlock: NAHDIM_clean_sbu_0, # of connection points: 4
#     Node 23, Type 0, BuildingBlock: NAHDIM_clean_sbu_0, # of connection points: 4
#     Node 24, Type 0, BuildingBlock: NAHDIM_clean_sbu_0, # of connection points: 4
#     Node 25, Type 0, BuildingBlock: NAHDIM_clean_sbu_0, # of connection points: 4
#     Node 26, Type 0, BuildingBlock: NAHDIM_clean_sbu_0, # of connection points: 4
#     Node 27, Type 0, BuildingBlock: NAHDIM_clean_sbu_0, # of connection points: 4
#     Node 28, Type 0, BuildingBlock: NAHDIM_clean_sbu_0, # of connection points: 4
#     Node 29, Type 0, BuildingBlock: NAHDIM_clean_sbu_0, # of connection points: 4
#     Node 30, Type 0, BuildingBlock: NAHDIM_clean_sbu_0, # of connection points: 4
#     Node 31, Type 0, BuildingBlock: NAHDIM_clean_sbu_0, # of connection points: 4
#     Edge 32, Type (0, 0), BuildingBlock: EZIPEK_clean_linker_0, # of connection points: 2
#     Edge 33, Type (0, 0), BuildingBlock: EZIPEK_clean_linker_0, # of connection points: 2
#     Edge 34, Type (0, 0), BuildingBlock: EZIPEK_clean_linker_0, # of connection points: 2
#     Edge 35, Type (0, 0), BuildingBlock: EZIPEK_clean_linker_0, # of connection points: 2
#     Edge 36, Type (0, 0), BuildingBlock: EZIPEK_clean_linker_0, # of connection points: 2
#     Edge 37, Type (0, 0), BuildingBlock: EZIPEK_clean_linker_0, # of connection points: 2
#     Edge 38, Type (0, 0), BuildingBlock: EZIPEK_clean_linker_0, # of connection points: 2
#     Edge 39, Type (0, 0), BuildingBlock: EZIPEK_clean_linker_0, # of connection points: 2
#     Edge 40, Type (0, 0), BuildingBlock: EZIPEK_clean_linker_0, # of connection points: 2
#     Edge 41, Type (0, 0), BuildingBlock: EZIPEK_clean_linker_0, # of connection points: 2
#     Edge 42, Type (0, 0), BuildingBlock: EZIPEK_clean_linker_0, # of connection points: 2
#     Edge 43, Type (0, 0), BuildingBlock: EZIPEK_clean_linker_0, # of connection points: 2
#     Edge 44, Type (0, 0), BuildingBlock: EZIPEK_clean_linker_0, # of connection points: 2
#     Edge 45, Type (0, 0), BuildingBlock: EZIPEK_clean_linker_0, # of connection points: 2
#     Edge 46, Type (0, 0), BuildingBlock: EZIPEK_clean_linker_0, # of connection points: 2
#     Edge 47, Type (0, 0), BuildingBlock: EZIPEK_clean_linker_0, # of connection points: 2
#     Edge 48, Type (0, 0), BuildingBlock: EZIPEK_clean_linker_0, # of connection points: 2
#     Edge 49, Type (0, 0), BuildingBlock: EZIPEK_clean_linker_0, # of connection points: 2
#     Edge 50, Type (0, 0), BuildingBlock: EZIPEK_clean_linker_0, # of connection points: 2
#     Edge 51, Type (0, 0), BuildingBlock: EZIPEK_clean_linker_0, # of connection points: 2
#     Edge 52, Type (0, 0), BuildingBlock: EZIPEK_clean_linker_0, # of connection points: 2
#     Edge 53, Type (0, 0), BuildingBlock: EZIPEK_clean_linker_0, # of connection points: 2
#     Edge 54, Type (0, 0), BuildingBlock: EZIPEK_clean_linker_0, # of connection points: 2
#     Edge 55, Type (0, 0), BuildingBlock: EZIPEK_clean_linker_0, # of connection points: 2
#     Edge 56, Type (0, 0), BuildingBlock: EZIPEK_clean_linker_0, # of connection points: 2
#     Edge 57, Type (0, 0), BuildingBlock: EZIPEK_clean_linker_0, # of connection points: 2
#     Edge 58, Type (0, 0), BuildingBlock: EZIPEK_clean_linker_0, # of connection points: 2
#     Edge 59, Type (0, 0), BuildingBlock: EZIPEK_clean_linker_0, # of connection points: 2
#     Edge 60, Type (0, 0), BuildingBlock: EZIPEK_clean_linker_0, # of connection points: 2
#     Edge 61, Type (0, 0), BuildingBlock: EZIPEK_clean_linker_0, # of connection points: 2
#     Edge 62, Type (0, 0), BuildingBlock: EZIPEK_clean_linker_0, # of connection points: 2
#     Edge 63, Type (0, 0), BuildingBlock: EZIPEK_clean_linker_0, # of connection points: 2
#     Edge 64, Type (0, 0), BuildingBlock: EZIPEK_clean_linker_0, # of connection points: 2
#     Edge 65, Type (0, 0), BuildingBlock: EZIPEK_clean_linker_0, # of connection points: 2
#     Edge 66, Type (0, 0), BuildingBlock: EZIPEK_clean_linker_0, # of connection points: 2
#     Edge 67, Type (0, 0), BuildingBlock: EZIPEK_clean_linker_0, # of connection points: 2
#     Edge 68, Type (0, 0), BuildingBlock: EZIPEK_clean_linker_0, # of connection points: 2
#     Edge 69, Type (0, 0), BuildingBlock: EZIPEK_clean_linker_0, # of connection points: 2
#     Edge 70, Type (0, 0), BuildingBlock: EZIPEK_clean_linker_0, # of connection points: 2
#     Edge 71, Type (0, 0), BuildingBlock: EZIPEK_clean_linker_0, # of connection points: 2
#     Edge 72, Type (0, 0), BuildingBlock: EZIPEK_clean_linker_0, # of connection points: 2
#     Edge 73, Type (0, 0), BuildingBlock: EZIPEK_clean_linker_0, # of connection points: 2
#     Edge 74, Type (0, 0), BuildingBlock: EZIPEK_clean_linker_0, # of connection points: 2
#     Edge 75, Type (0, 0), BuildingBlock: EZIPEK_clean_linker_0, # of connection points: 2
#     Edge 76, Type (0, 0), BuildingBlock: EZIPEK_clean_linker_0, # of connection points: 2
#     Edge 77, Type (0, 0), BuildingBlock: EZIPEK_clean_linker_0, # of connection points: 2
#     Edge 78, Type (0, 0), BuildingBlock: EZIPEK_clean_linker_0, # of connection points: 2
#     Edge 79, Type (0, 0), BuildingBlock: EZIPEK_clean_linker_0, # of connection points: 2
#     Edge 80, Type (0, 0), BuildingBlock: EZIPEK_clean_linker_0, # of connection points: 2
#     Edge 81, Type (0, 0), BuildingBlock: EZIPEK_clean_linker_0, # of connection points: 2
#     Edge 82, Type (0, 0), BuildingBlock: EZIPEK_clean_linker_0, # of connection points: 2
#     Edge 83, Type (0, 0), BuildingBlock: EZIPEK_clean_linker_0, # of connection points: 2
#     Edge 84, Type (0, 0), BuildingBlock: EZIPEK_clean_linker_0, # of connection points: 2
#     Edge 85, Type (0, 0), BuildingBlock: EZIPEK_clean_linker_0, # of connection points: 2
#     Edge 86, Type (0, 0), BuildingBlock: EZIPEK_clean_linker_0, # of connection points: 2
#     Edge 87, Type (0, 0), BuildingBlock: EZIPEK_clean_linker_0, # of connection points: 2
#     Edge 88, Type (0, 0), BuildingBlock: EZIPEK_clean_linker_0, # of connection points: 2
#     Edge 89, Type (0, 0), BuildingBlock: EZIPEK_clean_linker_0, # of connection points: 2
#     Edge 90, Type (0, 0), BuildingBlock: EZIPEK_clean_linker_0, # of connection points: 2
#     Edge 91, Type (0, 0), BuildingBlock: EZIPEK_clean_linker_0, # of connection points: 2
#     Edge 92, Type (0, 0), BuildingBlock: EZIPEK_clean_linker_0, # of connection points: 2
#     Edge 93, Type (0, 0), BuildingBlock: EZIPEK_clean_linker_0, # of connection points: 2
#     Edge 94, Type (0, 0), BuildingBlock: EZIPEK_clean_linker_0, # of connection points: 2
#     Edge 95, Type (0, 0), BuildingBlock: EZIPEK_clean_linker_0, # of connection points: 2
# Relax obj value: 0.152
# Max RMSD: 0.186
# Mean RMSD: 0.186
data_MOF--net-ukd--node1-NAHDIM_clean_sbu_0--edge1-EZIPEK_clean_linker_0
_symmetry_space_group_name_H-M    P1
_symmetry_Int_Tables_number       1
_symmetry_cell_setting            triclinic
loop_
_symmetry_equiv_pos_as_xyz
'x, y, z'
_cell_length_a     32.034324
_cell_length_b     31.976618
_cell_length_c     54.098669
_cell_angle_alpha  90.047417
_cell_angle_beta   90.006517
_cell_angle_gamma 90.021062
loop_
_atom_site_label
_atom_site_type_symbol
_atom_site_fract_x
_atom_site_fract_y
_atom_site_fract_z
_atom_type_partial_charge
C0 C 0.31361 0.18533 0.35289 0.0
O1 O 0.31915 0.21518 0.33655 0.0
O2 O 0.23853 0.22463 0.31265 0.0
Zn3 Zn 0.22552 0.2026 0.34639 0.0
O4 O 0.18298 0.15624 0.34344 0.0
C5 C 0.21093 0.28731 0.36333 0.0
O6 O 0.2398 0.29703 0.34709 0.0
O7 O 0.27718 0.17702 0.36074 0.0
C8 C 0.14565 0.16105 0.35085 0.0
O9 O 0.13372 0.19735 0.35969 0.0
C10 C 0.20994 0.22927 0.29666 0.0
O11 O 0.17126 0.21943 0.30217 0.0
O12 O 0.20177 0.24919 0.36708 0.0
C13 C 0.07042 0.06123 0.60486 0.0
O14 O 0.08013 0.04306 0.58385 0.0
O15 O 0.0028 0.00571 0.56702 0.0
Zn16 Zn 0.01625 0.99445 0.60279 0.0
O17 O 0.06366 0.95262 0.60546 0.0
C18 C 0.94411 0.94503 0.60955 0.0
O19 O 0.9561 0.93318 0.58742 0.0
O20 O 0.04012 0.04699 0.61749 0.0
C21 C 0.06003 0.91439 0.61143 0.0
O22 O 0.02296 0.89825 0.61522 0.0
C23 C 0.01601 0.98171 0.55003 0.0
O24 O 0.03802 0.94847 0.55573 0.0
O25 O 0.96463 0.97346 0.62064 0.0
C26 C 0.17413 0.79489 0.85535 0.0
O27 O 0.16957 0.7678 0.83729 0.0
O28 O 0.24977 0.77601 0.81042 0.0
Zn29 Zn 0.26276 0.78656 0.84597 0.0
O30 O 0.30206 0.83511 0.84912 0.0
C31 C 0.27371 0.70329 0.86954 0.0
O32 O 0.2329 0.69956 0.87013 0.0
O33 O 0.2104 0.80428 0.86298 0.0
C34 C 0.34129 0.82974 0.84915 0.0
O35 O 0.35672 0.79207 0.84601 0.0
C36 C 0.2762 0.75906 0.79615 0.0
O37 O 0.31326 0.74868 0.80446 0.0
O38 O 0.29044 0.73602 0.86072 0.0
C39 C 0.43165 0.94564 0.10425 0.0
O40 O 0.4169 0.96196 0.08377 0.0
O41 O 0.49676 0.00204 0.0634 0.0
Zn42 Zn 0.48151 0.01592 0.09853 0.0
O43 O 0.43499 0.05834 0.09938 0.0
C44 C 0.54517 0.0739 0.10421 0.0
O45 O 0.52782 0.08588 0.08341 0.0
O46 O 0.46207 0.96331 0.11512 0.0
C47 C 0.42172 0.07101 0.12019 0.0
O48 O 0.43712 0.0548 0.14054 0.0
C49 C 0.47759 0.01807 0.04519 0.0
O50 O 0.4471 0.04472 0.049 0.0
O51 O 0.53118 0.04178 0.11526 0.0
C52 C 0.32572 0.8114 0.13381 0.0
O53 O 0.32952 0.7819 0.15054 0.0
O54 O 0.24566 0.78104 0.17333 0.0
Zn55 Zn 0.23676 0.79586 0.13772 0.0
O56 O 0.19401 0.84139 0.13397 0.0
C57 C 0.23176 0.7091 0.12125 0.0
O58 O 0.26092 0.70392 0.13803 0.0
O59 O 0.2901 0.82005 0.1249 0.0
C60 C 0.16381 0.84929 0.14844 0.0
O61 O 0.15803 0.82663 0.16836 0.0
C62 C 0.22178 0.75705 0.18554 0.0
O63 O 0.18839 0.74117 0.175 0.0
O64 O 0.21712 0.74569 0.11838 0.0
C65 C 0.41676 0.04962 0.38262 0.0
O66 O 0.3917 0.02199 0.39267 0.0
O67 O 0.48382 0.99112 0.43062 0.0
Zn68 Zn 0.47383 0.98571 0.39402 0.0
O69 O 0.43071 0.94169 0.38546 0.0
C70 C 0.54305 0.93458 0.38927 0.0
O71 O 0.52389 0.91861 0.40851 0.0
O72 O 0.45545 0.04159 0.38076 0.0
C73 C 0.42078 0.91101 0.39916 0.0
O74 O 0.4372 0.90742 0.42128 0.0
C75 C 0.45628 0.99633 0.44721 0.0
O76 O 0.41661 0.99819 0.44127 0.0
O77 O 0.52774 0.96649 0.37865 0.0
C78 C 0.19194 0.17586 0.64482 0.0
O79 O 0.2091 0.16509 0.66593 0.0
O80 O 0.24751 0.24153 0.68314 0.0
Zn81 Zn 0.26077 0.22704 0.64782 0.0
O82 O 0.3008 0.17797 0.64548 0.0
C83 C 0.31116 0.29953 0.64174 0.0
O84 O 0.31978 0.29019 0.66479 0.0
O85 O 0.208 0.20546 0.63235 0.0
C86 C 0.34019 0.18075 0.64346 0.0
O87 O 0.35824 0.21755 0.64369 0.0
C88 C 0.27239 0.23387 0.70082 0.0
O89 O 0.30845 0.21591 0.69637 0.0
O90 O 0.28461 0.27756 0.63001 0.0
C91 C 0.07126 0.92674 0.8916 0.0
O92 O 0.08469 0.93898 0.91338 0.0
O93 O 0.01383 0.98811 0.93208 0.0
Zn94 Zn 0.02939 0.00241 0.89706 0.0
O95 O 0.08098 0.03918 0.89525 0.0
C96 C 0.95863 0.05592 0.89203 0.0
O97 O 0.96729 0.06312 0.91533 0.0
O98 O 0.04444 0.94875 0.88023 0.0
C99 C 0.07944 0.07889 0.8956 0.0
O100 O 0.0437 0.09769 0.89961 0.0
C101 C 0.02329 0.01109 0.95037 0.0
O102 O 0.04434 0.04579 0.94682 0.0
O103 O 0.98079 0.03028 0.87977 0.0
C104 C 0.66759 0.82161 0.63933 0.0
O105 O 0.6797 0.83247 0.66162 0.0
O106 O 0.73051 0.76223 0.67782 0.0
Zn107 Zn 0.74348 0.77886 0.64268 0.0
O108 O 0.7817 0.82944 0.64078 0.0
C109 C 0.79418 0.70625 0.63557 0.0
O110 O 0.80216 0.713 0.659 0.0
O111 O 0.68963 0.79617 0.62687 0.0
C112 C 0.8213 0.82683 0.64091 0.0
O113 O 0.83922 0.7905 0.64459 0.0
C114 C 0.75563 0.7678 0.69566 0.0
O115 O 0.79184 0.78583 0.69175 0.0
O116 O 0.7691 0.73016 0.62411 0.0
C117 C 0.91623 0.92902 0.38821 0.0
O118 O 0.89463 0.94643 0.4061 0.0
O119 O 0.96922 0.9909 0.4341 0.0
Zn120 Zn 0.96182 0.00029 0.39789 0.0
O121 O 0.91259 0.0381 0.39226 0.0
C122 C 0.01935 0.03497 0.36172 0.0
O123 O 0.99355 0.01969 0.34513 0.0
O124 O 0.94996 0.94597 0.38108 0.0
C125 C 0.91796 0.07736 0.39078 0.0
O126 O 0.95528 0.09316 0.39451 0.0
C127 C 0.98929 0.01751 0.44683 0.0
O128 O 0.00463 0.05108 0.43621 0.0
O129 O 0.01299 0.0282 0.38452 0.0
C130 C 0.81889 0.19077 0.13698 0.0
O131 O 0.80271 0.17798 0.15796 0.0
O132 O 0.75867 0.25277 0.17569 0.0
Zn133 Zn 0.74702 0.23882 0.13995 0.0
O134 O 0.70674 0.18997 0.13643 0.0
C135 C 0.69698 0.31084 0.13345 0.0
O136 O 0.68922 0.30248 0.15674 0.0
O137 O 0.80092 0.21976 0.12497 0.0
C138 C 0.66725 0.19402 0.13569 0.0
O139 O 0.65032 0.23087 0.13916 0.0
C140 C 0.73424 0.24221 0.19307 0.0
O141 O 0.69957 0.22212 0.18799 0.0
O142 O 0.72355 0.28884 0.12186 0.0
C143 C 0.5791 0.06228 0.88905 0.0
O144 O 0.59395 0.04788 0.91002 0.0
O145 O 0.52028 0.99878 0.92897 0.0
Zn146 Zn 0.53616 0.98725 0.89367 0.0
O147 O 0.58677 0.94975 0.8921 0.0
C148 C 0.45145 0.96135 0.88177 0.0
O149 O 0.4406 0.98744 0.89937 0.0
O150 O 0.55111 0.04165 0.87772 0.0
C151 C 0.58146 0.91046 0.89043 0.0
O152 O 0.5436 0.89488 0.89154 0.0
C153 C 0.51934 0.97059 0.94544 0.0
O154 O 0.52912 0.9319 0.9399 0.0
O155 O 0.48956 0.95781 0.87579 0.0
C156 C 0.67598 0.2006 0.85521 0.0
O157 O 0.66826 0.23123 0.83972 0.0
O158 O 0.75043 0.2336 0.81059 0.0
Zn159 Zn 0.76357 0.21824 0.84567 0.0
O160 O 0.80894 0.17482 0.84619 0.0
C161 C 0.81848 0.2831 0.8558 0.0
O162 O 0.83586 0.26457 0.83673 0.0
O163 O 0.71334 0.19168 0.86094 0.0
C164 C 0.825 0.16584 0.86695 0.0
O165 O 0.81092 0.18424 0.88699 0.0
C166 C 0.75957 0.20932 0.7928 0.0
O167 O 0.77828 0.17358 0.79725 0.0
O168 O 0.78387 0.26937 0.8639 0.0
C169 C 0.53656 0.9293 0.60735 0.0
O170 O 0.50397 0.92388 0.59299 0.0
O171 O 0.50431 0.00987 0.56427 0.0
Zn172 Zn 0.52773 0.01935 0.59827 0.0
O173 O 0.57738 0.05752 0.5968 0.0
C174 C 0.44577 0.04366 0.6139 0.0
O175 O 0.43435 0.01676 0.59683 0.0
O176 O 0.54925 0.96591 0.6124 0.0
C177 C 0.57348 0.0966 0.59345 0.0
O178 O 0.53634 0.1125 0.58929 0.0
C179 C 0.52521 0.01694 0.5448 0.0
O180 O 0.56388 0.03026 0.54646 0.0
O181 O 0.48421 0.04791 0.61901 0.0
C182 C 0.81978 0.79566 0.34746 0.0
O183 O 0.82382 0.77616 0.32623 0.0
O184 O 0.74461 0.74812 0.31047 0.0
Zn185 Zn 0.7342 0.7669 0.34533 0.0
O186 O 0.68856 0.80998 0.34616 0.0
C187 C 0.68023 0.70303 0.35694 0.0
O188 O 0.66323 0.71994 0.33729 0.0
O189 O 0.78556 0.79381 0.35924 0.0
C190 C 0.68237 0.82936 0.36632 0.0
O191 O 0.7065 0.82174 0.38543 0.0
C192 C 0.7188 0.75477 0.29312 0.0
O193 O 0.68399 0.77514 0.29748 0.0
O194 O 0.71446 0.71757 0.36511 0.0
C195 C 0.948 0.07876 0.1071 0.0
O196 O 0.97782 0.08198 0.09056 0.0
O197 O 0.97648 0.99889 0.06598 0.0
Zn198 Zn 0.95864 0.98932 0.10107 0.0
O199 O 0.91066 0.94868 0.10192 0.0
C200 C 0.04394 0.97343 0.1175 0.0
O201 O 0.05423 0.00424 0.10268 0.0
O202 O 0.93707 0.04304 0.115 0.0
C203 C 0.91747 0.91004 0.10551 0.0
O204 O 0.956 0.89628 0.10694 0.0
C205 C 0.9781 0.9692 0.05044 0.0
O206 O 0.96816 0.93107 0.05712 0.0
O207 O 0.00578 0.96409 0.12051 0.0
C208 C 0.82674 0.695 0.85245 0.0
O209 O 0.83135 0.72679 0.83734 0.0
O210 O 0.74546 0.72809 0.8125 0.0
Zn211 Zn 0.73798 0.71131 0.84801 0.0
O212 O 0.69212 0.66858 0.85084 0.0
C213 C 0.68795 0.77858 0.86001 0.0
O214 O 0.66852 0.76187 0.84106 0.0
O215 O 0.79066 0.68474 0.86002 0.0
C216 C 0.67952 0.65803 0.87217 0.0
O217 O 0.69641 0.67506 0.89187 0.0
C218 C 0.72079 0.71582 0.79561 0.0
O219 O 0.6892 0.69133 0.80107 0.0
O220 O 0.7217 0.76223 0.86763 0.0
C221 C 0.55539 0.56927 0.10561 0.0
O222 O 0.57073 0.55571 0.08458 0.0
O223 O 0.50138 0.50582 0.06352 0.0
Zn224 Zn 0.51577 0.49458 0.09875 0.0
O225 O 0.56946 0.46195 0.10014 0.0
C226 C 0.43586 0.47113 0.12255 0.0
O227 O 0.42398 0.51031 0.12069 0.0
O228 O 0.5266 0.54861 0.11613 0.0
C229 C 0.56867 0.42244 0.10242 0.0
O230 O 0.53276 0.40265 0.10205 0.0
C231 C 0.49383 0.47599 0.04871 0.0
O232 O 0.49385 0.43725 0.05675 0.0
O233 O 0.47153 0.45997 0.11486 0.0
C234 C 0.6747 0.29702 0.35528 0.0
O235 O 0.66853 0.26871 0.33807 0.0
O236 O 0.75065 0.26868 0.31205 0.0
Zn237 Zn 0.76272 0.2791 0.34811 0.0
O238 O 0.80819 0.32246 0.35265 0.0
C239 C 0.80453 0.20124 0.35446 0.0
O240 O 0.81396 0.20863 0.33128 0.0
O241 O 0.71139 0.30455 0.36296 0.0
C242 C 0.84705 0.31444 0.35297 0.0
O243 O 0.86029 0.27635 0.34859 0.0
C244 C 0.77777 0.27257 0.29511 0.0
O245 O 0.81604 0.28374 0.30069 0.0
O246 O 0.77993 0.22595 0.36571 0.0
C247 C 0.93226 0.42962 0.59161 0.0
O248 O 0.94957 0.42725 0.56966 0.0
O249 O 0.98433 0.5053 0.5568 0.0
Zn250 Zn 0.96124 0.51527 0.59075 0.0
O251 O 0.91531 0.55813 0.58932 0.0
C252 C 0.02066 0.57319 0.6054 0.0
O253 O 0.00286 0.59158 0.58647 0.0
O254 O 0.93547 0.46294 0.60426 0.0
C255 C 0.90438 0.57451 0.60968 0.0
O256 O 0.92208 0.56183 0.63025 0.0
C257 C 0.9796 0.53139 0.53935 0.0
O258 O 0.958 0.56573 0.54295 0.0
O259 O 0.00807 0.53724 0.61202 0.0
C260 C 0.80163 0.32996 0.63281 0.0
O261 O 0.788 0.34811 0.65304 0.0
O262 O 0.74607 0.27281 0.67856 0.0
Zn263 Zn 0.73075 0.28456 0.64337 0.0
O264 O 0.69129 0.33299 0.64019 0.0
C265 C 0.7052 0.21598 0.60991 0.0
O266 O 0.73567 0.22706 0.59504 0.0
O267 O 0.7824 0.29835 0.62431 0.0
C268 C 0.68277 0.36067 0.65623 0.0
O269 O 0.70103 0.36028 0.67792 0.0
C270 C 0.71784 0.26185 0.69367 0.0
O271 O 0.67882 0.25996 0.68626 0.0
O272 O 0.69986 0.23493 0.63027 0.0
C273 C 0.9282 0.56112 0.88511 0.0
O274 O 0.90709 0.54316 0.90297 0.0
O275 O 0.98363 0.49887 0.92962 0.0
Zn276 Zn 0.97281 0.48876 0.8935 0.0
O277 O 0.92262 0.45199 0.88842 0.0
C278 C 0.05614 0.45483 0.89013 0.0
O279 O 0.06178 0.47564 0.9108 0.0
O280 O 0.9612 0.5438 0.87707 0.0
C281 C 0.92633 0.41292 0.89194 0.0
O282 O 0.96135 0.39804 0.90097 0.0
C283 C 0.95714 0.49474 0.94691 0.0
O284 O 0.91907 0.48196 0.94201 0.0
O285 O 0.02171 0.45799 0.87864 0.0
C286 C 0.67128 0.69165 0.13915 0.0
O287 O 0.66911 0.71734 0.15805 0.0
O288 O 0.7534 0.72205 0.17748 0.0
Zn289 Zn 0.75995 0.70829 0.14142 0.0
O290 O 0.80453 0.66515 0.13536 0.0
C291 C 0.80579 0.78068 0.13473 0.0
O292 O 0.81798 0.76853 0.15673 0.0
O293 O 0.70615 0.68481 0.12873 0.0
C294 C 0.83716 0.66051 0.14838 0.0
O295 O 0.84332 0.68394 0.16795 0.0
C296 C 0.75319 0.69509 0.19466 0.0
O297 O 0.7585 0.65532 0.1895 0.0
O298 O 0.77766 0.76016 0.12346 0.0
C299 C 0.56885 0.4278 0.39108 0.0
O300 O 0.58325 0.44292 0.412 0.0
O301 O 0.50843 0.48773 0.43186 0.0
Zn302 Zn 0.52168 0.50029 0.39613 0.0
O303 O 0.57079 0.5397 0.39236 0.0
C304 C 0.44903 0.55101 0.39049 0.0
O305 O 0.45666 0.55833 0.41391 0.0
O306 O 0.53926 0.44661 0.38009 0.0
C307 C 0.56772 0.57924 0.39401 0.0
O308 O 0.53227 0.59623 0.4008 0.0
C309 C 0.51998 0.51134 0.44945 0.0
O310 O 0.54136 0.54537 0.44466 0.0
O311 O 0.47191 0.52551 0.37862 0.0
C312 C 0.17567 0.30896 0.14078 0.0
O313 O 0.1709 0.29504 0.16342 0.0
O314 O 0.24885 0.26366 0.18136 0.0
Zn315 Zn 0.26041 0.27755 0.14569 0.0
O316 O 0.30284 0.32364 0.14223 0.0
C317 C 0.31464 0.21038 0.13967 0.0
O318 O 0.32931 0.22849 0.15962 0.0
O319 O 0.20933 0.30143 0.1292 0.0
C320 C 0.33271 0.33465 0.15625 0.0
O321 O 0.34052 0.314 0.1767 0.0
C322 C 0.2491 0.29002 0.19893 0.0
O323 O 0.25757 0.32945 0.19448 0.0
O324 O 0.28281 0.2257 0.12897 0.0
C325 C 0.42006 0.43988 0.8839 0.0
O326 O 0.39738 0.45505 0.90204 0.0
O327 O 0.46059 0.50123 0.93025 0.0
Zn328 Zn 0.457 0.51536 0.89402 0.0
O329 O 0.4054 0.5494 0.88736 0.0
C330 C 0.5435 0.54348 0.89019 0.0
O331 O 0.55137 0.51229 0.90525 0.0
O332 O 0.45109 0.46076 0.87606 0.0
C333 C 0.39855 0.58354 0.89867 0.0
O334 O 0.42463 0.59632 0.91579 0.0
C335 C 0.47795 0.52365 0.94663 0.0
O336 O 0.49492 0.55958 0.94069 0.0
O337 O 0.50655 0.54912 0.88237 0.0
C338 C 0.31944 0.70811 0.6316 0.0
O339 O 0.32578 0.73799 0.64784 0.0
O340 O 0.24811 0.73207 0.67775 0.0
Zn341 Zn 0.23193 0.72103 0.64237 0.0
O342 O 0.18869 0.67528 0.63949 0.0
C343 C 0.18604 0.79669 0.63821 0.0
O344 O 0.1814 0.78962 0.66193 0.0
O345 O 0.28248 0.6981 0.62559 0.0
C346 C 0.14959 0.68084 0.6417 0.0
O347 O 0.13505 0.71745 0.64842 0.0
C348 C 0.22406 0.72608 0.69605 0.0
O349 O 0.18602 0.71214 0.69239 0.0
O350 O 0.20947 0.77281 0.62555 0.0
C351 C 0.09049 0.55377 0.37899 0.0
O352 O 0.11629 0.5332 0.39336 0.0
O353 O 0.02731 0.4936 0.42632 0.0
Zn354 Zn 0.04089 0.48391 0.39048 0.0
O355 O 0.08824 0.44313 0.38502 0.0
C356 C 0.9757 0.4268 0.38604 0.0
O357 O 0.99272 0.41498 0.40698 0.0
O358 O 0.05456 0.53886 0.37453 0.0
C359 C 0.10109 0.41596 0.40037 0.0
O360 O 0.084 0.41316 0.42232 0.0
C361 C 0.05297 0.49936 0.44388 0.0
O362 O 0.09332 0.49845 0.43966 0.0
O363 O 0.99038 0.4583 0.37471 0.0
C364 C 0.17807 0.69667 0.34388 0.0
O365 O 0.17236 0.71963 0.32405 0.0
O366 O 0.2521 0.73662 0.304 0.0
Zn367 Zn 0.26463 0.72103 0.33916 0.0
O368 O 0.30771 0.67545 0.34038 0.0
C369 C 0.32222 0.78383 0.35088 0.0
O370 O 0.34011 0.76637 0.33162 0.0
O371 O 0.21356 0.69575 0.3543 0.0
C372 C 0.32254 0.66667 0.3615 0.0
O373 O 0.30906 0.6871 0.381 0.0
C374 C 0.27014 0.71891 0.28591 0.0
O375 O 0.2992 0.6908 0.28998 0.0
O376 O 0.28694 0.77042 0.35813 0.0
C377 C 0.08916 0.45115 0.10055 0.0
O378 O 0.10356 0.46258 0.07885 0.0
O379 O 0.02343 0.51074 0.06036 0.0
Zn380 Zn 0.04575 0.52622 0.09368 0.0
O381 O 0.09606 0.56359 0.0899 0.0
C382 C 0.9633 0.55055 0.10885 0.0
O383 O 0.95187 0.52012 0.09401 0.0
O384 O 0.06208 0.47371 0.11133 0.0
C385 C 0.11225 0.57972 0.10912 0.0
O386 O 0.09687 0.5706 0.13097 0.0
C387 C 0.01805 0.53847 0.04391 0.0
O388 O 0.02752 0.57761 0.04871 0.0
O389 O 0.00182 0.55795 0.11227 0.0
C390 C 0.33218 0.29438 0.85501 0.0
O391 O 0.33454 0.26979 0.83561 0.0
O392 O 0.25206 0.26032 0.81857 0.0
Zn393 Zn 0.24396 0.27393 0.85454 0.0
O394 O 0.2029 0.32171 0.8589 0.0
C395 C 0.19688 0.20039 0.86289 0.0
O396 O 0.18433 0.21054 0.84061 0.0
O397 O 0.29815 0.29733 0.86694 0.0
C398 C 0.16404 0.31766 0.86291 0.0
O399 O 0.14733 0.28024 0.8638 0.0
C400 C 0.22527 0.26739 0.80181 0.0
O401 O 0.18916 0.28422 0.80749 0.0
O402 O 0.2248 0.22247 0.87334 0.0
C403 C 0.42782 0.57469 0.602 0.0
O404 O 0.41766 0.55862 0.58048 0.0
O405 O 0.49007 0.50718 0.5675 0.0
Zn406 Zn 0.47514 0.50074 0.60343 0.0
O407 O 0.42714 0.45989 0.60757 0.0
C408 C 0.55041 0.456 0.61499 0.0
O409 O 0.54497 0.44159 0.59251 0.0
O410 O 0.4542 0.55598 0.61558 0.0
C411 C 0.43182 0.42095 0.61139 0.0
O412 O 0.46943 0.40474 0.61166 0.0
C413 C 0.48689 0.47717 0.55225 0.0
O414 O 0.47473 0.44021 0.55987 0.0
O415 O 0.52513 0.48287 0.62365 0.0
C416 C 0.17233 0.38353 0.39813 0.0
C417 C 0.12942 0.38265 0.39171 0.0
C418 C 0.14095 0.32159 0.36533 0.0
C419 C 0.18321 0.3203 0.37321 0.0
N420 N 0.23846 0.34634 0.39924 0.0
N421 N 0.071 0.34693 0.37308 0.0
C422 C 0.19881 0.35034 0.39018 0.0
C423 C 0.11318 0.35051 0.37644 0.0
N424 N 0.18786 0.41661 0.41126 0.0
N425 N 0.12772 0.29649 0.3464 0.0
H426 H 0.04956 0.36761 0.38087 0.0
H427 H 0.05697 0.32144 0.36443 0.0
H428 H 0.14711 0.27513 0.33748 0.0
H429 H 0.09867 0.29947 0.33795 0.0
H430 H 0.21957 0.42155 0.41429 0.0
H431 H 0.16906 0.44087 0.41779 0.0
H432 H 0.25035 0.36456 0.41356 0.0
H433 H 0.25867 0.32258 0.39364 0.0
C434 C 0.91276 0.90153 0.64395 0.0
C435 C 0.9082 0.92331 0.62121 0.0
C436 C 0.84318 0.88559 0.61271 0.0
C437 C 0.84761 0.86385 0.63545 0.0
N438 N 0.87922 0.86005 0.67578 0.0
N439 N 0.86287 0.94605 0.58838 0.0
C440 C 0.88005 0.8748 0.65208 0.0
C441 C 0.87121 0.91864 0.60711 0.0
N442 N 0.94911 0.90407 0.6571 0.0
N443 N 0.8143 0.87298 0.59565 0.0
H444 H 0.8825 0.97115 0.58424 0.0
H445 H 0.83461 0.94661 0.57886 0.0
H446 H 0.79372 0.84822 0.59847 0.0
H447 H 0.81317 0.88475 0.57771 0.0
H448 H 0.95603 0.88448 0.67192 0.0
H449 H 0.9737 0.92375 0.6524 0.0
H450 H 0.89972 0.87017 0.68949 0.0
H451 H 0.85528 0.84098 0.68238 0.0
C452 C 0.36242 0.62598 0.8662 0.0
C453 C 0.36381 0.61097 0.89086 0.0
C454 C 0.30363 0.65482 0.90165 0.0
C455 C 0.30113 0.66807 0.87668 0.0
N456 N 0.32064 0.65777 0.83409 0.0
N457 N 0.33106 0.60409 0.93078 0.0
C458 C 0.32821 0.65092 0.85861 0.0
C459 C 0.33294 0.62327 0.90824 0.0
N460 N 0.39491 0.6186 0.85038 0.0
N461 N 0.27945 0.67366 0.91924 0.0
H462 H 0.35183 0.58064 0.9361 0.0
H463 H 0.30679 0.60867 0.9433 0.0
H464 H 0.25733 0.6965 0.91507 0.0
H465 H 0.28332 0.6688 0.93813 0.0
H466 H 0.39751 0.6328 0.83313 0.0
H467 H 0.42139 0.60159 0.85529 0.0
H468 H 0.33689 0.64274 0.81996 0.0
H469 H 0.29512 0.67503 0.8279 0.0
C470 C 0.57407 0.12128 0.13703 0.0
C471 C 0.57974 0.09886 0.11466 0.0
C472 C 0.64482 0.13669 0.10669 0.0
C473 C 0.64001 0.15806 0.12956 0.0
N474 N 0.60602 0.16312 0.16922 0.0
N475 N 0.62498 0.07717 0.08149 0.0
C476 C 0.60649 0.14788 0.14561 0.0
C477 C 0.61668 0.10396 0.10058 0.0
N478 N 0.53688 0.11916 0.14937 0.0
N479 N 0.67436 0.14934 0.09004 0.0
H480 H 0.6051 0.05257 0.07675 0.0
H481 H 0.65332 0.07671 0.07206 0.0
H482 H 0.69508 0.17385 0.09331 0.0
H483 H 0.67598 0.13796 0.07202 0.0
H484 H 0.52924 0.13872 0.16409 0.0
H485 H 0.5122 0.10018 0.14372 0.0
H486 H 0.58462 0.15348 0.18254 0.0
H487 H 0.62959 0.18225 0.17621 0.0
C488 C 0.21863 0.63092 0.11802 0.0
C489 C 0.20914 0.67223 0.11034 0.0
C490 C 0.14086 0.649 0.09528 0.0
C491 C 0.14725 0.60982 0.10703 0.0
N492 N 0.19296 0.56147 0.12794 0.0
N493 N 0.17294 0.712 0.07926 0.0
C494 C 0.18658 0.60002 0.11771 0.0
C495 C 0.17376 0.67876 0.09508 0.0
N496 N 0.25893 0.62055 0.1235 0.0
N497 N 0.10259 0.65902 0.08578 0.0
H498 H 0.19882 0.73136 0.07675 0.0
H499 H 0.14943 0.71673 0.06626 0.0
H500 H 0.07736 0.63844 0.08566 0.0
H501 H 0.09488 0.68899 0.07977 0.0
H502 H 0.26873 0.5904 0.12779 0.0
H503 H 0.28366 0.64106 0.12028 0.0
H504 H 0.21867 0.55406 0.13886 0.0
H505 H 0.17147 0.53713 0.12632 0.0
C506 C 0.62021 0.92634 0.38323 0.0
C507 C 0.57905 0.91202 0.37878 0.0
C508 C 0.60548 0.84423 0.36507 0.0
C509 C 0.64692 0.85868 0.36886 0.0
N510 N 0.69426 0.91614 0.37595 0.0
N511 N 0.53288 0.86285 0.35911 0.0
C512 C 0.65448 0.90065 0.37622 0.0
C513 C 0.57188 0.87273 0.36754 0.0
N514 N 0.62647 0.96365 0.395 0.0
N515 N 0.59786 0.80277 0.36083 0.0
H516 H 0.50776 0.88353 0.3604 0.0
H517 H 0.52649 0.83619 0.34869 0.0
H518 H 0.62136 0.78034 0.35996 0.0
H519 H 0.56798 0.78991 0.36062 0.0
H520 H 0.65548 0.97351 0.40145 0.0
H521 H 0.60205 0.98379 0.3996 0.0
H522 H 0.70135 0.94753 0.37889 0.0
H523 H 0.71996 0.89831 0.37054 0.0
C524 C 0.33579 0.37332 0.64195 0.0
C525 C 0.33457 0.33404 0.62981 0.0
C526 C 0.38866 0.35805 0.60111 0.0
C527 C 0.39527 0.39374 0.61619 0.0
N528 N 0.37717 0.43405 0.65249 0.0
N529 N 0.36158 0.28768 0.59827 0.0
C530 C 0.36897 0.40148 0.63683 0.0
C531 C 0.36095 0.3262 0.60922 0.0
N532 N 0.30493 0.38368 0.65828 0.0
N533 N 0.40835 0.35496 0.57877 0.0
H534 H 0.34115 0.2637 0.60294 0.0
H535 H 0.38421 0.27856 0.58554 0.0
H536 H 0.42845 0.37797 0.57215 0.0
H537 H 0.40153 0.33186 0.5658 0.0
H538 H 0.30187 0.41334 0.66605 0.0
H539 H 0.27979 0.36387 0.66199 0.0
H540 H 0.36192 0.43819 0.66932 0.0
H541 H 0.40159 0.4551 0.64984 0.0
C542 C 0.88231 0.06868 0.88877 0.0
C543 C 0.9232 0.07812 0.88056 0.0
C544 C 0.89723 0.13916 0.85788 0.0
C545 C 0.8575 0.13313 0.86904 0.0
N546 N 0.81022 0.09096 0.89316 0.0
N547 N 0.97067 0.1203 0.85671 0.0
C548 C 0.8494 0.09727 0.88378 0.0
C549 C 0.93083 0.11228 0.86448 0.0
N550 N 0.87517 0.03185 0.90092 0.0
N551 N 0.90298 0.17089 0.84128 0.0
H552 H 0.99547 0.09996 0.85995 0.0
H553 H 0.97981 0.14763 0.84782 0.0
H554 H 0.88012 0.19286 0.83708 0.0
H555 H 0.92955 0.17426 0.83041 0.0
H556 H 0.84579 0.02102 0.90598 0.0
H557 H 0.89878 0.01012 0.90435 0.0
H558 H 0.80298 0.06857 0.90642 0.0
H559 H 0.78453 0.10901 0.88802 0.0
C560 C 0.8345 0.59721 0.62519 0.0
C561 C 0.87056 0.60601 0.61083 0.0
C562 C 0.84945 0.67944 0.60695 0.0
C563 C 0.81542 0.67124 0.62299 0.0
N564 N 0.76891 0.62232 0.64237 0.0
N565 N 0.90759 0.65221 0.58313 0.0
C566 C 0.80582 0.62994 0.63047 0.0
C567 C 0.87626 0.64602 0.5999 0.0
N568 N 0.82825 0.55762 0.63402 0.0
N569 N 0.85755 0.71963 0.59975 0.0
H570 H 0.92907 0.62923 0.57832 0.0
H571 H 0.91079 0.67918 0.57256 0.0
H572 H 0.83732 0.74439 0.60337 0.0
H573 H 0.88488 0.72902 0.59097 0.0
H574 H 0.80553 0.5497 0.64692 0.0
H575 H 0.84668 0.53225 0.62869 0.0
H576 H 0.75809 0.5927 0.64702 0.0
H577 H 0.7472 0.64588 0.64599 0.0
C578 C 0.07685 0.13115 0.33808 0.0
C579 C 0.1157 0.12581 0.35023 0.0
C580 C 0.09439 0.05557 0.36314 0.0
C581 C 0.05335 0.06391 0.35468 0.0
N582 N 0.00377 0.11253 0.33697 0.0
N583 N 0.15991 0.08476 0.37714 0.0
C584 C 0.0441 0.10225 0.34262 0.0
C585 C 0.12438 0.08828 0.36328 0.0
N586 N 0.07144 0.16354 0.32193 0.0
N587 N 0.10474 0.01622 0.37085 0.0
H588 H 0.18237 0.10824 0.37837 0.0
H589 H 0.16536 0.06003 0.38923 0.0
H590 H 0.08353 0.99144 0.37065 0.0
H591 H 0.13519 0.00722 0.37501 0.0
H592 H 0.04522 0.16653 0.31067 0.0
H593 H 0.09499 0.18502 0.31791 0.0
H594 H 0.99497 0.14214 0.33086 0.0
H595 H 0.97841 0.093 0.3404 0.0
C596 C 0.61677 0.36364 0.09199 0.0
C597 C 0.60745 0.39864 0.10708 0.0
C598 C 0.66819 0.38282 0.13284 0.0
C599 C 0.67189 0.34348 0.12101 0.0
N600 N 0.6473 0.29468 0.08992 0.0
N601 N 0.62184 0.4393 0.14389 0.0
C602 C 0.6461 0.33356 0.10042 0.0
C603 C 0.63291 0.40819 0.12783 0.0
N604 N 0.5978 0.35937 0.06949 0.0
N605 N 0.6984 0.39572 0.14897 0.0
H606 H 0.59514 0.45748 0.14176 0.0
H607 H 0.63697 0.44444 0.16067 0.0
H608 H 0.72495 0.37787 0.15268 0.0
H609 H 0.69931 0.42572 0.1565 0.0
H610 H 0.60631 0.33665 0.05664 0.0
H611 H 0.57656 0.38126 0.06267 0.0
H612 H 0.62536 0.28438 0.07707 0.0
H613 H 0.66816 0.27141 0.09517 0.0
C614 C 0.41802 0.89169 0.88786 0.0
C615 C 0.42192 0.92871 0.8736 0.0
C616 C 0.37453 0.89991 0.84234 0.0
C617 C 0.3687 0.8641 0.85744 0.0
N618 N 0.37745 0.82971 0.89681 0.0
N619 N 0.40049 0.97116 0.83915 0.0
C620 C 0.38839 0.86101 0.88083 0.0
C621 C 0.39909 0.93378 0.85136 0.0
N622 N 0.44347 0.88528 0.90778 0.0
N623 N 0.35778 0.90081 0.81909 0.0
H624 H 0.41884 0.99619 0.8451 0.0
H625 H 0.38138 0.97851 0.82421 0.0
H626 H 0.33948 0.87659 0.81201 0.0
H627 H 0.36433 0.92397 0.80616 0.0
H628 H 0.44565 0.85684 0.91706 0.0
H629 H 0.46504 0.90735 0.91388 0.0
H630 H 0.38721 0.82864 0.91516 0.0
H631 H 0.35541 0.80679 0.89256 0.0
C632 C 0.88093 0.3828 0.85846 0.0
C633 C 0.89328 0.38371 0.88368 0.0
C634 C 0.85228 0.32044 0.89176 0.0
C635 C 0.83904 0.32032 0.8667 0.0
N636 N 0.83069 0.35785 0.82842 0.0
N637 N 0.88264 0.36017 0.9255 0.0
C638 C 0.85011 0.3537 0.85079 0.0
C639 C 0.87633 0.35464 0.90072 0.0
N640 N 0.90046 0.40766 0.84145 0.0
N641 N 0.84404 0.28697 0.90667 0.0
H642 H 0.89971 0.38521 0.93266 0.0
H643 H 0.86766 0.34244 0.93899 0.0
H644 H 0.82621 0.26149 0.90103 0.0
H645 H 0.85736 0.28308 0.92408 0.0
H646 H 0.89585 0.40469 0.82247 0.0
H647 H 0.9242 0.42862 0.84592 0.0
H648 H 0.83458 0.38382 0.81703 0.0
H649 H 0.80725 0.3375 0.82248 0.0
C650 C 0.37747 0.14028 0.61092 0.0
C651 C 0.36455 0.14368 0.63589 0.0
C652 C 0.40002 0.07776 0.64573 0.0
C653 C 0.4166 0.07702 0.62143 0.0
N654 N 0.42656 0.11055 0.58185 0.0
N655 N 0.36473 0.11784 0.67769 0.0
C656 C 0.40672 0.10902 0.60423 0.0
C657 C 0.37593 0.11286 0.65349 0.0
N658 N 0.36065 0.16609 0.5934 0.0
N659 N 0.40671 0.04454 0.66111 0.0
H660 H 0.34613 0.14255 0.68378 0.0
H661 H 0.37571 0.09906 0.69198 0.0
H662 H 0.42468 0.01874 0.65598 0.0
H663 H 0.3922 0.04101 0.6782 0.0
H664 H 0.36551 0.16228 0.5745 0.0
H665 H 0.3384 0.18884 0.59753 0.0
H666 H 0.42437 0.13589 0.56984 0.0
H667 H 0.44811 0.08818 0.57602 0.0
C668 C 0.6503 0.63161 0.3541 0.0
C669 C 0.65909 0.66726 0.36874 0.0
C670 C 0.61709 0.63821 0.40237 0.0
C671 C 0.60252 0.60656 0.38612 0.0
N672 N 0.6012 0.57639 0.34503 0.0
N673 N 0.6481 0.70699 0.40615 0.0
C674 C 0.61844 0.60364 0.36166 0.0
C675 C 0.64226 0.67107 0.39288 0.0
N676 N 0.67257 0.62455 0.33295 0.0
N677 N 0.60734 0.63652 0.42694 0.0
H678 H 0.66636 0.73183 0.39993 0.0
H679 H 0.63234 0.71346 0.42255 0.0
H680 H 0.58948 0.61248 0.43454 0.0
H681 H 0.62033 0.65646 0.44009 0.0
H682 H 0.67029 0.59704 0.3227 0.0
H683 H 0.69649 0.64438 0.32708 0.0
H684 H 0.60856 0.57651 0.32628 0.0
H685 H 0.57669 0.55623 0.34927 0.0
C686 C 0.10824 0.87366 0.1195 0.0
C687 C 0.13251 0.88087 0.14106 0.0
C688 C 0.10105 0.95042 0.14615 0.0
C689 C 0.07586 0.94262 0.12511 0.0
N690 N 0.05407 0.89788 0.09159 0.0
N691 N 0.15086 0.92358 0.17615 0.0
C692 C 0.0792 0.90453 0.11169 0.0
C693 C 0.12852 0.91855 0.15479 0.0
N694 N 0.11318 0.83718 0.10651 0.0
N695 N 0.09915 0.98866 0.15747 0.0
H696 H 0.17264 0.90178 0.18239 0.0
H697 H 0.1467 0.94821 0.18846 0.0
H698 H 0.07874 0.0122 0.15179 0.0
H699 H 0.1191 0.99829 0.17152 0.0
H700 H 0.1005 0.83145 0.08916 0.0
H701 H 0.13112 0.81217 0.11283 0.0
H702 H 0.05091 0.86947 0.08245 0.0
H703 H 0.03495 0.92098 0.08416 0.0
C704 C 0.66909 0.85364 0.85708 0.0
C705 C 0.67058 0.81672 0.87142 0.0
C706 C 0.62486 0.8489 0.90226 0.0
C707 C 0.61692 0.88208 0.88553 0.0
N708 N 0.63 0.91566 0.84623 0.0
N709 N 0.65113 0.77846 0.908 0.0
C710 C 0.63924 0.88491 0.86291 0.0
C711 C 0.64942 0.81437 0.89437 0.0
N712 N 0.69647 0.85866 0.83794 0.0
N713 N 0.60926 0.85081 0.92574 0.0
H714 H 0.67034 0.75338 0.90331 0.0
H715 H 0.63213 0.77267 0.92323 0.0
H716 H 0.59179 0.87618 0.93207 0.0
H717 H 0.61685 0.82949 0.93957 0.0
H718 H 0.69954 0.88637 0.82801 0.0
H719 H 0.71926 0.83641 0.83379 0.0
H720 H 0.64171 0.91617 0.82827 0.0
H721 H 0.60823 0.9392 0.84956 0.0
C722 C 0.39089 0.43878 0.15559 0.0
C723 C 0.40668 0.43837 0.1311 0.0
C724 C 0.37908 0.36788 0.12487 0.0
C725 C 0.35979 0.3697 0.14842 0.0
N726 N 0.34099 0.40984 0.18458 0.0
N727 N 0.4069 0.40714 0.09047 0.0
C728 C 0.36392 0.40597 0.16341 0.0
C729 C 0.39812 0.40424 0.11514 0.0
N730 N 0.40288 0.46949 0.17168 0.0
N731 N 0.38075 0.33092 0.1122 0.0
H732 H 0.41916 0.43413 0.08245 0.0
H733 H 0.39773 0.38466 0.07761 0.0
H734 H 0.36866 0.30308 0.11922 0.0
H735 H 0.39802 0.32691 0.09605 0.0
H736 H 0.39612 0.46875 0.19051 0.0
H737 H 0.42244 0.49411 0.16663 0.0
H738 H 0.33926 0.43746 0.19475 0.0
H739 H 0.32084 0.38661 0.19092 0.0
C740 C 0.87515 0.14123 0.39871 0.0
C741 C 0.88302 0.10538 0.38402 0.0
C742 C 0.82775 0.12705 0.35556 0.0
C743 C 0.82613 0.16659 0.36737 0.0
N744 N 0.85257 0.2132 0.39915 0.0
N745 N 0.87006 0.06653 0.34634 0.0
C746 C 0.85046 0.17415 0.38892 0.0
C747 C 0.8598 0.09847 0.36202 0.0
N748 N 0.89085 0.14361 0.42216 0.0
N749 N 0.79851 0.11682 0.33817 0.0
H750 H 0.89442 0.04569 0.34962 0.0
H751 H 0.85693 0.06312 0.32883 0.0
H752 H 0.77407 0.13687 0.33344 0.0
H753 H 0.79591 0.08701 0.33054 0.0
H754 H 0.88279 0.16725 0.43454 0.0
H755 H 0.90827 0.11955 0.43012 0.0
H756 H 0.87389 0.22111 0.41293 0.0
H757 H 0.83579 0.23879 0.39269 0.0
C758 C 0.08956 0.63294 0.65053 0.0
C759 C 0.12017 0.64786 0.63376 0.0
C760 C 0.09208 0.60227 0.60147 0.0
C761 C 0.05751 0.5931 0.61682 0.0
N762 N 0.02156 0.60081 0.65572 0.0
N763 N 0.14728 0.65109 0.59202 0.0
C764 C 0.05595 0.60823 0.64144 0.0
C765 C 0.12097 0.63334 0.60894 0.0
N766 N 0.09308 0.64179 0.67516 0.0
N767 N 0.09742 0.58087 0.57981 0.0
H768 H 0.1682 0.67498 0.5963 0.0
H769 H 0.14564 0.64487 0.57314 0.0
H770 H 0.07714 0.55715 0.57415 0.0
H771 H 0.12408 0.58347 0.5689 0.0
H772 H 0.07405 0.62851 0.68864 0.0
H773 H 0.11758 0.65948 0.68239 0.0
H774 H 0.01632 0.61531 0.67268 0.0
H775 H 0.99688 0.58197 0.64992 0.0
C776 C 0.62103 0.15244 0.57708 0.0
C777 C 0.61008 0.12444 0.59634 0.0
C778 C 0.66939 0.14936 0.6208 0.0
C779 C 0.67608 0.18176 0.60338 0.0
N780 N 0.65443 0.21774 0.56622 0.0
N781 N 0.61974 0.10108 0.6385 0.0
C782 C 0.65119 0.18412 0.58169 0.0
C783 C 0.63335 0.12387 0.61869 0.0
N784 N 0.60334 0.14819 0.55423 0.0
N785 N 0.69785 0.14259 0.6392 0.0
H786 H 0.59253 0.08321 0.63827 0.0
H787 H 0.63314 0.10326 0.656 0.0
H788 H 0.72517 0.16015 0.64095 0.0
H789 H 0.69658 0.11695 0.65104 0.0
H790 H 0.61321 0.16502 0.53882 0.0
H791 H 0.58168 0.12486 0.55011 0.0
H792 H 0.63368 0.2233 0.55177 0.0
H793 H 0.67556 0.24207 0.56899 0.0
C794 C 0.1317 0.38753 0.85305 0.0
C795 C 0.13878 0.35447 0.87006 0.0
C796 C 0.09034 0.38641 0.89944 0.0
C797 C 0.08543 0.42101 0.88329 0.0
N798 N 0.10581 0.45807 0.84647 0.0
N799 N 0.1334 0.32797 0.91169 0.0
C800 C 0.1074 0.42262 0.86055 0.0
C801 C 0.1206 0.35553 0.89392 0.0
N802 N 0.14686 0.38468 0.82949 0.0
N803 N 0.06471 0.38187 0.91947 0.0
H804 H 0.15663 0.30573 0.90863 0.0
H805 H 0.1243 0.33008 0.93013 0.0
H806 H 0.04127 0.40315 0.92388 0.0
H807 H 0.06388 0.35493 0.93027 0.0
H808 H 0.13888 0.40539 0.81542 0.0
H809 H 0.16522 0.3598 0.82346 0.0
H810 H 0.12452 0.46299 0.83101 0.0
H811 H 0.08808 0.48413 0.85141 0.0
C812 C 0.87884 0.84476 0.09469 0.0
C813 C 0.88257 0.88075 0.10985 0.0
C814 C 0.82495 0.85581 0.13561 0.0
C815 C 0.82667 0.81684 0.12325 0.0
N816 N 0.85688 0.7725 0.09182 0.0
N817 N 0.86163 0.91935 0.1463 0.0
C818 C 0.85355 0.81095 0.10271 0.0
C819 C 0.8558 0.88643 0.13051 0.0
N820 N 0.8991 0.8432 0.07248 0.0
N821 N 0.7937 0.86339 0.15222 0.0
H822 H 0.88435 0.94224 0.1437 0.0
H823 H 0.84621 0.92216 0.16317 0.0
H824 H 0.77052 0.84143 0.15615 0.0
H825 H 0.78835 0.89261 0.16013 0.0
H826 H 0.89446 0.81953 0.05953 0.0
H827 H 0.9174 0.86779 0.06596 0.0
H828 H 0.87986 0.76507 0.07893 0.0
H829 H 0.83856 0.74695 0.09686 0.0
C830 C 0.37362 0.56772 0.38581 0.0
C831 C 0.41531 0.57458 0.37814 0.0
C832 C 0.39353 0.63575 0.35401 0.0
C833 C 0.3531 0.63237 0.36462 0.0
N834 N 0.30275 0.59415 0.38886 0.0
N835 N 0.46602 0.6137 0.3547 0.0
C836 C 0.34252 0.5978 0.37988 0.0
C837 C 0.42543 0.60766 0.36171 0.0
N838 N 0.36395 0.53188 0.39837 0.0
N839 N 0.4016 0.6661 0.33685 0.0
H840 H 0.48981 0.5926 0.35874 0.0
H841 H 0.47681 0.64036 0.34572 0.0
H842 H 0.38006 0.68889 0.33179 0.0
H843 H 0.42875 0.66736 0.32633 0.0
H844 H 0.33377 0.52283 0.40301 0.0
H845 H 0.3862 0.50913 0.40257 0.0
H846 H 0.29387 0.57294 0.40244 0.0
H847 H 0.27829 0.61334 0.38308 0.0
C848 C 0.35304 0.09846 0.13525 0.0
C849 C 0.39044 0.10505 0.12173 0.0
C850 C 0.36897 0.17722 0.11328 0.0
C851 C 0.33572 0.17255 0.13024 0.0
N852 N 0.29599 0.12969 0.15827 0.0
N853 N 0.43678 0.15246 0.10025 0.0
C854 C 0.32749 0.13331 0.14136 0.0
C855 C 0.39895 0.14474 0.11102 0.0
N856 N 0.34147 0.05877 0.14166 0.0
N857 N 0.37196 0.21285 0.09948 0.0
H858 H 0.46038 0.13018 0.09895 0.0
H859 H 0.44633 0.1821 0.09463 0.0
H860 H 0.35003 0.23688 0.10066 0.0
H861 H 0.3934 0.21665 0.08519 0.0
H862 H 0.31274 0.05149 0.14956 0.0
H863 H 0.35897 0.03248 0.13686 0.0
H864 H 0.29163 0.10336 0.16928 0.0
H865 H 0.27541 0.1541 0.16221 0.0
C866 C 0.57225 0.61683 0.88864 0.0
C867 C 0.57715 0.57339 0.88362 0.0
C868 C 0.64972 0.58557 0.87096 0.0
C869 C 0.64397 0.62902 0.87485 0.0
N870 N 0.59777 0.68724 0.88182 0.0
N871 N 0.61715 0.51791 0.86483 0.0
C872 C 0.60459 0.64502 0.88199 0.0
C873 C 0.61497 0.55815 0.8733 0.0
N874 N 0.53777 0.63109 0.90093 0.0
N875 N 0.68863 0.57037 0.86576 0.0
H876 H 0.59197 0.49725 0.86561 0.0
H877 H 0.6424 0.50619 0.85489 0.0
H878 H 0.71463 0.58963 0.86341 0.0
H879 H 0.6958 0.53861 0.86555 0.0
H880 H 0.5351 0.66145 0.90774 0.0
H881 H 0.5131 0.61199 0.90626 0.0
H882 H 0.56843 0.70067 0.8842 0.0
H883 H 0.62074 0.70883 0.87692 0.0
C884 C 0.16169 0.87044 0.63691 0.0
C885 C 0.16047 0.82977 0.62654 0.0
C886 C 0.10098 0.85047 0.60083 0.0
C887 C 0.09745 0.88791 0.6147 0.0
N888 N 0.12257 0.93254 0.64761 0.0
N889 N 0.1269 0.77958 0.59945 0.0
C890 C 0.12769 0.89809 0.63293 0.0
C891 C 0.13005 0.81948 0.60837 0.0
N892 N 0.19554 0.88254 0.65054 0.0
N893 N 0.07686 0.84481 0.58025 0.0
H894 H 0.14763 0.75575 0.60394 0.0
H895 H 0.10184 0.76925 0.5888 0.0
H896 H 0.05549 0.86712 0.57412 0.0
H897 H 0.08099 0.82007 0.56795 0.0
H898 H 0.20013 0.91307 0.6567 0.0
H899 H 0.22113 0.86295 0.65348 0.0
H900 H 0.14116 0.93879 0.66297 0.0
H901 H 0.09763 0.95323 0.64582 0.0
C902 C 0.90423 0.39703 0.39058 0.0
C903 C 0.94038 0.40265 0.37585 0.0
C904 C 0.91053 0.35735 0.3439 0.0
C905 C 0.8774 0.34705 0.36017 0.0
N906 N 0.84596 0.35215 0.40071 0.0
N907 N 0.98088 0.38402 0.33979 0.0
C908 C 0.87482 0.36581 0.38392 0.0
C909 C 0.94425 0.38203 0.35272 0.0
N910 N 0.89764 0.42209 0.41069 0.0
N911 N 0.90934 0.34429 0.31985 0.0
H912 H 0.00653 0.40157 0.34553 0.0
H913 H 0.98712 0.3655 0.32438 0.0
H914 H 0.88489 0.32648 0.31269 0.0
H915 H 0.9304 0.35443 0.30646 0.0
H916 H 0.86984 0.42224 0.42068 0.0
H917 H 0.91831 0.44575 0.4159 0.0
H918 H 0.84589 0.36146 0.41916 0.0
H919 H 0.82439 0.32858 0.39695 0.0
C920 C 0.32963 0.85694 0.3675 0.0
C921 C 0.34529 0.81561 0.36535 0.0
C922 C 0.41025 0.83655 0.38585 0.0
C923 C 0.39384 0.87744 0.38909 0.0
N924 N 0.33498 0.9243 0.38793 0.0
N925 N 0.39584 0.7636 0.37748 0.0
C926 C 0.35259 0.88698 0.38137 0.0
C927 C 0.38423 0.80468 0.37604 0.0
N928 N 0.29383 0.86801 0.3554 0.0
N929 N 0.45128 0.82851 0.39097 0.0
H930 H 0.3774 0.73925 0.37079 0.0
H931 H 0.42171 0.75329 0.38742 0.0
H932 H 0.47163 0.85072 0.39826 0.0
H933 H 0.46619 0.8008 0.38601 0.0
H934 H 0.28342 0.89875 0.35395 0.0
H935 H 0.2761 0.84688 0.34512 0.0
H936 H 0.30368 0.9315 0.38498 0.0
H937 H 0.3507 0.94661 0.39849 0.0
C938 C 0.93227 0.62195 0.11368 0.0
C939 C 0.93155 0.5787 0.11966 0.0
C940 C 0.86768 0.58887 0.1439 0.0
C941 C 0.87046 0.63247 0.13952 0.0
N942 N 0.90834 0.69185 0.12358 0.0
N943 N 0.90302 0.5218 0.14353 0.0
C944 C 0.90382 0.64944 0.12553 0.0
C945 C 0.90039 0.56229 0.13558 0.0
N946 N 0.95846 0.6364 0.09562 0.0
N947 N 0.83351 0.57284 0.15572 0.0
H948 H 0.92682 0.50156 0.13806 0.0
H949 H 0.88379 0.50922 0.15715 0.0
H950 H 0.80979 0.59159 0.16294 0.0
H951 H 0.82724 0.54096 0.15696 0.0
H952 H 0.95712 0.66663 0.08853 0.0
H953 H 0.97902 0.6172 0.08591 0.0
H954 H 0.9346 0.70611 0.11599 0.0
H955 H 0.88734 0.71308 0.1313 0.0
C956 C 0.15403 0.1703 0.89786 0.0
C957 C 0.17634 0.16466 0.87541 0.0
C958 C 0.13946 0.09884 0.8678 0.0
C959 C 0.11697 0.10446 0.8902 0.0
N960 N 0.11233 0.13801 0.93 0.0
N961 N 0.20065 0.11752 0.84388 0.0
C962 C 0.12746 0.13776 0.90638 0.0
C963 C 0.17256 0.12671 0.86209 0.0
N964 N 0.15585 0.20748 0.91027 0.0
N965 N 0.12745 0.06918 0.85102 0.0
H966 H 0.2257 0.13719 0.83971 0.0
H967 H 0.20177 0.08867 0.83494 0.0
H968 H 0.10249 0.04886 0.85374 0.0
H969 H 0.13996 0.0672 0.83328 0.0
H970 H 0.13587 0.21508 0.92479 0.0
H971 H 0.17542 0.23196 0.9052 0.0
H972 H 0.122 0.15936 0.94338 0.0
H973 H 0.09348 0.11413 0.93692 0.0
C974 C 0.57743 0.41381 0.65061 0.0
C975 C 0.58556 0.43982 0.62989 0.0
C976 C 0.66016 0.42313 0.63235 0.0
C977 C 0.65083 0.39227 0.65028 0.0
N978 N 0.60163 0.3571 0.67676 0.0
N979 N 0.63411 0.47209 0.60173 0.0
C980 C 0.60991 0.3879 0.65991 0.0
C981 C 0.62694 0.44566 0.62115 0.0
N982 N 0.53858 0.41324 0.66109 0.0
N983 N 0.70091 0.43092 0.62633 0.0
H984 H 0.61101 0.49149 0.59443 0.0
H985 H 0.66237 0.47413 0.59235 0.0
H986 H 0.72575 0.41489 0.63445 0.0
H987 H 0.71054 0.45518 0.61488 0.0
H988 H 0.53182 0.39842 0.67774 0.0
H989 H 0.51342 0.43028 0.65426 0.0
H990 H 0.57168 0.34842 0.68217 0.0
H991 H 0.6248 0.33829 0.68448 0.0
C992 C 0.26386 0.24283 0.23473 0.0
C993 C 0.24011 0.27592 0.22438 0.0
C994 C 0.20035 0.28192 0.26286 0.0
C995 C 0.22039 0.24542 0.27186 0.0
N996 N 0.26598 0.18651 0.2645 0.0
N997 N 0.18086 0.32253 0.22699 0.0
C998 C 0.25078 0.22457 0.2573 0.0
C999 C 0.20703 0.29439 0.23801 0.0
N1000 N 0.29986 0.22993 0.22351 0.0
N1001 N 0.17627 0.30567 0.2783 0.0
H1002 H 0.18421 0.33227 0.20872 0.0
H1003 H 0.15355 0.33334 0.23526 0.0
H1004 H 0.17153 0.29824 0.29684 0.0
H1005 H 0.16452 0.33489 0.27342 0.0
H1006 H 0.32054 0.20878 0.23154 0.0
H1007 H 0.31141 0.2437 0.20745 0.0
H1008 H 0.28489 0.16802 0.25327 0.0
H1009 H 0.25648 0.17143 0.28063 0.0
C1010 C 0.96764 0.9957 0.5145 0.0
C1011 C 0.00894 0.99254 0.52384 0.0
C1012 C 0.03728 0.00397 0.48236 0.0
C1013 C 0.99615 0.0101 0.4734 0.0
N1014 N 0.92275 0.01991 0.48142 0.0
N1015 N 0.08298 0.00268 0.51797 0.0
C1016 C 0.96143 0.00828 0.48961 0.0
C1017 C 0.04379 0.99923 0.50814 0.0
N1018 N 0.93443 0.98504 0.52906 0.0
N1019 N 0.06995 0.00096 0.46619 0.0
H1020 H 0.08905 0.0002 0.53685 0.0
H1021 H 0.1089 0.01203 0.50775 0.0
H1022 H 0.06652 0.00399 0.4471 0.0
H1023 H 0.09985 0.99179 0.47146 0.0
H1024 H 0.90406 0.9821 0.52241 0.0
H1025 H 0.93759 0.97568 0.54739 0.0
H1026 H 0.8971 0.02357 0.49304 0.0
H1027 H 0.91705 0.02963 0.46332 0.0
C1028 C 0.25655 0.77371 0.7277 0.0
C1029 C 0.23909 0.73418 0.72146 0.0
C1030 C 0.2439 0.7121 0.76467 0.0
C1031 C 0.26456 0.75004 0.7704 0.0
N1032 N 0.29689 0.81426 0.75714 0.0
N1033 N 0.22548 0.66237 0.73279 0.0
C1034 C 0.27302 0.77996 0.7518 0.0
C1035 C 0.23532 0.70237 0.73961 0.0
N1036 N 0.25537 0.806 0.71116 0.0
N1037 N 0.23166 0.68574 0.78319 0.0
H1038 H 0.22067 0.65346 0.71446 0.0
H1039 H 0.22644 0.63714 0.74494 0.0
H1040 H 0.23759 0.69171 0.80181 0.0
H1041 H 0.2125 0.65987 0.78025 0.0
H1042 H 0.26342 0.83662 0.71569 0.0
H1043 H 0.24272 0.80331 0.69351 0.0
H1044 H 0.30801 0.83476 0.74371 0.0
H1045 H 0.30846 0.82044 0.77481 0.0
C1046 C 0.52904 0.01394 0.01039 0.0
C1047 C 0.48851 0.00543 0.01975 0.0
C1048 C 0.46759 0.97599 0.97982 0.0
C1049 C 0.50887 0.98182 0.97109 0.0
N1050 N 0.58073 0.00016 0.97865 0.0
N1051 N 0.42153 0.97165 0.01521 0.0
C1052 C 0.54019 0.99897 0.98657 0.0
C1053 C 0.45833 0.98468 0.00495 0.0
N1054 N 0.55621 0.0379 0.02381 0.0
N1055 N 0.43699 0.9631 0.96392 0.0
H1056 H 0.41367 0.97705 0.03363 0.0
H1057 H 0.40032 0.95231 0.00613 0.0
H1058 H 0.44285 0.95545 0.94553 0.0
H1059 H 0.40537 0.96301 0.96839 0.0
H1060 H 0.58445 0.04901 0.01692 0.0
H1061 H 0.54906 0.04975 0.04124 0.0
H1062 H 0.60575 0.00789 0.99006 0.0
H1063 H 0.5899 0.99021 0.9611 0.0
C1064 C 0.24342 0.69598 0.24452 0.0
C1065 C 0.25702 0.72865 0.26037 0.0
C1066 C 0.24042 0.78013 0.22841 0.0
C1067 C 0.23212 0.74711 0.21153 0.0
N1068 N 0.23365 0.67308 0.20233 0.0
N1069 N 0.27571 0.80123 0.26593 0.0
C1070 C 0.23565 0.70483 0.21924 0.0
C1071 C 0.25747 0.77063 0.25195 0.0
N1072 N 0.23629 0.65683 0.25375 0.0
N1073 N 0.23061 0.82045 0.22235 0.0
H1074 H 0.28955 0.79546 0.28304 0.0
H1075 H 0.28078 0.83151 0.25949 0.0
H1076 H 0.21685 0.82868 0.20558 0.0
H1077 H 0.23208 0.8451 0.23492 0.0
H1078 H 0.22212 0.63312 0.24352 0.0
H1079 H 0.24055 0.64917 0.27231 0.0
H1080 H 0.24059 0.64211 0.20667 0.0
H1081 H 0.22911 0.67798 0.18349 0.0
C1082 C 0.4679 0.96929 0.48999 0.0
C1083 C 0.46974 0.00291 0.47299 0.0
C1084 C 0.50172 0.04749 0.50457 0.0
C1085 C 0.5052 0.01224 0.52034 0.0
N1086 N 0.4967 0.93809 0.52702 0.0
N1087 N 0.49108 0.07325 0.46294 0.0
C1088 C 0.48935 0.97274 0.51288 0.0
C1089 C 0.48747 0.04183 0.47994 0.0
N1090 N 0.44554 0.93417 0.48431 0.0
N1091 N 0.51017 0.08662 0.51349 0.0
H1092 H 0.47906 0.07109 0.44506 0.0
H1093 H 0.50824 0.10041 0.46605 0.0
H1094 H 0.51922 0.09212 0.53172 0.0
H1095 H 0.50424 0.11395 0.50365 0.0
H1096 H 0.43957 0.91035 0.49694 0.0
H1097 H 0.42961 0.93059 0.46765 0.0
H1098 H 0.48989 0.90777 0.52126 0.0
H1099 H 0.51312 0.93915 0.54363 0.0
C1100 C 0.24223 0.21681 0.76793 0.0
C1101 C 0.23595 0.25874 0.77577 0.0
C1102 C 0.25298 0.28455 0.73428 0.0
C1103 C 0.25954 0.24262 0.72651 0.0
N1104 N 0.25329 0.16853 0.73392 0.0
N1105 N 0.24109 0.33287 0.76821 0.0
C1106 C 0.25257 0.20862 0.74284 0.0
C1107 C 0.24238 0.29275 0.75935 0.0
N1108 N 0.2391 0.18487 0.78464 0.0
N1109 N 0.25636 0.31647 0.71756 0.0
H1110 H 0.2338 0.34021 0.78649 0.0
H1111 H 0.25008 0.35905 0.75814 0.0
H1112 H 0.2665 0.31214 0.69946 0.0
H1113 H 0.24701 0.34707 0.72101 0.0
H1114 H 0.24854 0.15431 0.78114 0.0
H1115 H 0.22911 0.1892 0.80277 0.0
H1116 H 0.24394 0.14246 0.74399 0.0
H1117 H 0.26013 0.16121 0.71557 0.0
C1118 C 0.96908 0.99164 0.98189 0.0
C1119 C 0.0117 0.9982 0.97568 0.0
C1120 C 0.03217 0.9863 0.01873 0.0
C1121 C 0.98989 0.97789 0.02464 0.0
N1122 N 0.91879 0.96597 0.01173 0.0
N1123 N 0.08451 0.99267 0.98664 0.0
C1124 C 0.95858 0.97832 0.00614 0.0
C1125 C 0.0435 0.99314 0.99369 0.0
N1126 N 0.93842 0.00021 0.96504 0.0
N1127 N 0.06151 0.98785 0.03707 0.0
H1128 H 0.09405 0.99621 0.96832 0.0
H1129 H 0.10894 0.98479 -0.00157 0.0
H1130 H 0.05495 0.98034 0.0554 0.0
H1131 H 0.09173 0.99897 0.03444 0.0
H1132 H 0.90678 0.00115 0.96938 0.0
H1133 H 0.9445 0.00954 0.94699 0.0
H1134 H 0.89588 0.96057 -0.00154 0.0
H1135 H 0.90922 0.95822 0.02957 0.0
C1136 C 0.74085 0.71116 0.72648 0.0
C1137 C 0.74406 0.75444 0.72088 0.0
C1138 C 0.7261 0.7721 0.76365 0.0
C1139 C 0.72782 0.72902 0.76981 0.0
N1140 N 0.7432 0.65781 0.75821 0.0
N1141 N 0.74243 0.82657 0.73408 0.0
C1142 C 0.73664 0.69854 0.75151 0.0
C1143 C 0.73765 0.78506 0.73949 0.0
N1144 N 0.74164 0.68204 0.70797 0.0
N1145 N 0.71149 0.80034 0.78056 0.0
H1146 H 0.74761 0.83765 0.71621 0.0
H1147 H 0.74346 0.84995 0.74747 0.0
H1148 H 0.7017 0.79173 0.7982 0.0
H1149 H 0.70537 0.83155 0.77648 0.0
H1150 H 0.73469 0.65057 0.71072 0.0
H1151 H 0.74571 0.68963 0.68944 0.0
H1152 H 0.75453 0.63511 0.74614 0.0
H1153 H 0.74099 0.64733 0.77641 0.0
C1154 C 0.75293 0.29183 0.22736 0.0
C1155 C 0.746 0.25025 0.21907 0.0
C1156 C 0.756 0.22389 0.26116 0.0
C1157 C 0.76618 0.26499 0.26907 0.0
N1158 N 0.77852 0.33774 0.25966 0.0
N1159 N 0.74961 0.17599 0.22669 0.0
C1160 C 0.76614 0.29883 0.2521 0.0
C1161 C 0.74971 0.21605 0.23561 0.0
N1162 N 0.74493 0.32478 0.21197 0.0
N1163 N 0.75225 0.19226 0.27801 0.0
H1164 H 0.74646 0.16885 0.20797 0.0
H1165 H 0.75682 0.14996 0.23742 0.0
H1166 H 0.75845 0.19597 0.29677 0.0
H1167 H 0.73995 0.16299 0.27371 0.0
H1168 H 0.74449 0.35583 0.21774 0.0
H1169 H 0.73542 0.32111 0.19371 0.0
H1170 H 0.78448 0.36231 0.24754 0.0
H1171 H 0.7852 0.3451 0.27802 0.0
C1172 C 0.7658 0.26047 0.75801 0.0
C1173 C 0.75014 0.22195 0.76712 0.0
C1174 C 0.71838 0.2073 0.72685 0.0
C1175 C 0.72934 0.24813 0.71887 0.0
N1176 N 0.75854 0.31606 0.72806 0.0
N1177 N 0.70619 0.16123 0.76153 0.0
C1178 C 0.75179 0.27542 0.73475 0.0
C1179 C 0.72502 0.19596 0.7519 0.0
N1180 N 0.79543 0.28195 0.77107 0.0
N1181 N 0.70344 0.17865 0.71027 0.0
H1182 H 0.71026 0.15156 0.77975 0.0
H1183 H 0.68366 0.14402 0.75205 0.0
H1184 H 0.69936 0.18517 0.69155 0.0
H1185 H 0.69916 0.14717 0.71454 0.0
H1186 H 0.81114 0.30794 0.76413 0.0
H1187 H 0.80752 0.27141 0.78784 0.0
H1188 H 0.7704 0.33856 0.7401 0.0
H1189 H 0.74897 0.32835 0.71118 0.0
C1190 C 0.76242 0.75524 0.25486 0.0
C1191 C 0.72784 0.73902 0.26809 0.0
C1192 C 0.7087 0.6953 0.23272 0.0
C1193 C 0.7453 0.7088 0.22029 0.0
N1194 N 0.81094 0.74584 0.22103 0.0
N1195 N 0.67251 0.68814 0.27175 0.0
C1196 C 0.77331 0.73718 0.23179 0.0
C1197 C 0.7022 0.70747 0.25764 0.0
N1198 N 0.78387 0.78893 0.26391 0.0
N1199 N 0.67913 0.67254 0.2204 0.0
H1200 H 0.66672 0.6962 0.2901 0.0
H1201 H 0.6562 0.66169 0.26599 0.0
H1202 H 0.68234 0.66346 0.20201 0.0
H1203 H 0.64977 0.66592 0.22768 0.0
H1204 H 0.80644 0.80502 0.25384 0.0
H1205 H 0.77659 0.80327 0.28069 0.0
H1206 H 0.8345 0.76275 0.22976 0.0
H1207 H 0.8202 0.73289 0.20423 0.0
C1208 C 0.45463 0.51236 0.0151 0.0
C1209 C 0.48741 0.48512 0.02226 0.0
C1210 C 0.50884 0.47756 0.97907 0.0
C1211 C 0.47966 0.50892 0.9724 0.0
N1212 N 0.42633 0.55855 0.98378 0.0
N1213 N 0.54992 0.44668 0.01183 0.0
C1214 C 0.45298 0.52706 0.99035 0.0
C1215 C 0.51546 0.46864 0.00445 0.0
N1216 N 0.42425 0.52286 0.03175 0.0
N1217 N 0.53025 0.45628 0.96118 0.0
H1218 H 0.55669 0.44028 0.03029 0.0
H1219 H 0.57391 0.43806 -0.00011 0.0
H1220 H 0.52715 0.46265 0.94238 0.0
H1221 H 0.54838 0.42996 0.9648 0.0
H1222 H 0.3973 0.5392 0.02707 0.0
H1223 H 0.42402 0.51186 0.04991 0.0
H1224 H 0.4097 0.57642 0.99651 0.0
H1225 H 0.42264 0.56861 0.96557 0.0
C1226 C 0.00911 0.47682 0.47967 0.0
C1227 C 0.03674 0.50655 0.4691 0.0
C1228 C 0.03025 0.55056 0.50599 0.0
C1229 C -0.001 0.52318 0.51512 0.0
N1230 N 0.95329 0.46412 0.50885 0.0
N1231 N 0.0692 0.57475 0.47046 0.0
C1232 C 0.98697 0.48728 0.5015 0.0
C1233 C 0.04635 0.5442 0.48182 0.0
N1234 N 0.00518 0.43799 0.46936 0.0
N1235 N 0.04555 0.58182 0.52068 0.0
H1236 H 0.08179 0.57143 0.45282 0.0
H1237 H 0.07286 0.60473 0.47768 0.0
H1238 H 0.0344 0.58774 0.53844 0.0
H1239 H 0.07169 0.59959 0.51612 0.0
H1240 H 0.98872 0.41365 0.47765 0.0
H1241 H 0.02195 0.42867 0.45381 0.0
H1242 H 0.94036 0.44028 0.49818 0.0
H1243 H 0.93569 0.47125 0.52451 0.0
C1244 C 0.96472 0.54611 0.01023 0.0
C1245 C 0.00132 0.5265 0.01942 0.0
C1246 C 0.00299 0.48064 0.9832 0.0
C1247 C 0.96999 0.50396 0.97255 0.0
N1248 N 0.92307 0.56296 0.97422 0.0
N1249 N 0.05973 0.48002 0.01266 0.0
C1250 C 0.95166 0.53777 0.98561 0.0
C1251 C 0.02165 0.49495 0.00542 0.0
N1252 N 0.94151 0.57141 0.02528 0.0
N1253 N 0.01563 0.44409 0.97245 0.0
H1254 H 0.07528 0.49064 0.02839 0.0
H1255 H 0.0778 0.46017 0.00176 0.0
H1256 H 0.00145 0.43199 0.95663 0.0
H1257 H 0.03689 0.42369 0.98062 0.0
H1258 H 0.91233 0.58307 0.02032 0.0
H1259 H 0.94939 0.57746 0.04364 0.0
H1260 H 0.91231 0.59083 0.9819 0.0
H1261 H 0.91266 0.55793 0.9562 0.0
C1262 C 0.54515 0.49587 0.49216 0.0
C1263 C 0.5113 0.49969 0.47539 0.0
C1264 C 0.4619 0.48342 0.50866 0.0
C1265 C 0.49542 0.48425 0.5258 0.0
N1266 N 0.56843 0.49536 0.53474 0.0
N1267 N 0.43698 0.50157 0.46783 0.0
C1268 C 0.5369 0.49183 0.51782 0.0
C1269 C 0.46952 0.49423 0.4836 0.0
N1270 N 0.58517 0.49393 0.48339 0.0
N1271 N 0.42268 0.47257 0.51635 0.0
H1272 H 0.44093 0.50888 0.44925 0.0
H1273 H 0.40596 0.50342 0.47345 0.0
H1274 H 0.41494 0.46752 0.53483 0.0
H1275 H 0.39821 0.46602 0.50429 0.0
H1276 H 0.61086 0.4868 0.49439 0.0
H1277 H 0.59242 0.49523 0.46461 0.0
H1278 H 0.59825 0.50595 0.53031 0.0
H1279 H 0.56419 0.49045 0.5536 0.0
C1280 C 0.36434 0.12881 0.34147 0.0
C1281 C 0.3481 0.1568 0.35949 0.0
C1282 C 0.3841 0.1186 0.39239 0.0
C1283 C 0.39944 0.09009 0.37445 0.0
N1284 N 0.41347 0.07342 0.33181 0.0
N1285 N 0.35006 0.18505 0.40069 0.0
C1286 C 0.39295 0.09727 0.34891 0.0
C1287 C 0.36052 0.15383 0.38456 0.0
N1288 N 0.35006 0.13026 0.31765 0.0
N1289 N 0.39121 0.11124 0.41693 0.0
H1290 H 0.3331 0.21135 0.39526 0.0
H1291 H 0.36106 0.18686 0.41876 0.0
H1292 H 0.4105 0.08718 0.42316 0.0
H1293 H 0.37679 0.12775 0.43115 0.0
H1294 H 0.35668 0.10748 0.30447 0.0
H1295 H 0.32901 0.15264 0.3113 0.0
H1296 H 0.41347 0.07993 0.31296 0.0
H1297 H 0.43357 0.04913 0.33664 0.0
C1298 C 0.14109 0.07681 0.62154 0.0
C1299 C 0.10027 0.09106 0.61591 0.0
C1300 C 0.11879 0.16155 0.6301 0.0
C1301 C 0.16051 0.14789 0.63362 0.0
N1302 N 0.21353 0.09517 0.62777 0.0
N1303 N 0.05085 0.14742 0.61192 0.0
C1304 C 0.17228 0.10625 0.62795 0.0
C1305 C 0.08916 0.13359 0.61944 0.0
N1306 N 0.14972 0.03491 0.62166 0.0
N1307 N 0.1073 0.2007 0.63764 0.0
H1308 H 0.02827 0.12756 0.60446 0.0
H1309 H 0.04241 0.17885 0.6115 0.0
H1310 H 0.12844 0.2221 0.64509 0.0
H1311 H 0.07649 0.21102 0.63807 0.0
H1312 H 0.17761 0.02249 0.62829 0.0
H1313 H 0.12756 0.01211 0.61744 0.0
H1314 H 0.22423 0.06649 0.62119 0.0
H1315 H 0.23758 0.11608 0.63183 0.0
C1316 C 0.11751 0.81858 0.88399 0.0
C1317 C 0.13991 0.82376 0.86166 0.0
C1318 C 0.11363 0.89519 0.85737 0.0
C1319 C 0.0908 0.89006 0.87966 0.0
N1320 N 0.06287 0.84451 0.91105 0.0
N1321 N 0.15131 0.86206 0.82386 0.0
C1322 C 0.09015 0.85088 0.89199 0.0
C1323 C 0.13494 0.86034 0.84719 0.0
N1324 N 0.12348 0.78339 0.89787 0.0
N1325 N 0.1179 0.93395 0.84695 0.0
H1326 H 0.16819 0.83755 0.816 0.0
H1327 H 0.14489 0.88613 0.81148 0.0
H1328 H 0.10401 0.96085 0.85404 0.0
H1329 H 0.13834 0.94031 0.83247 0.0
H1330 H 0.11199 0.77976 0.91574 0.0
H1331 H 0.14185 0.75843 0.89183 0.0
H1332 H 0.05821 0.81559 0.91942 0.0
H1333 H 0.04203 0.86746 0.91704 0.0
C1334 C 0.36827 0.8735 0.14567 0.0
C1335 C 0.36049 0.84043 0.12878 0.0
C1336 C 0.40966 0.87124 0.09935 0.0
C1337 C 0.41195 0.90752 0.11441 0.0
N1338 N 0.39143 0.94495 0.15127 0.0
N1339 N 0.37286 0.80691 0.08962 0.0
C1340 C 0.39144 0.90888 0.13766 0.0
C1341 C 0.38127 0.83882 0.1057 0.0
N1342 N 0.35286 0.87142 0.16921 0.0
N1343 N 0.43528 0.86762 0.07925 0.0
H1344 H 0.3539 0.78157 0.09431 0.0
H1345 H 0.38296 0.80644 0.07134 0.0
H1346 H 0.45693 0.89061 0.07443 0.0
H1347 H 0.43791 0.8405 0.06871 0.0
H1348 H 0.36123 0.89226 0.18316 0.0
H1349 H 0.33437 0.84681 0.1755 0.0
H1350 H 0.37259 0.94967 0.1667 0.0
H1351 H 0.40799 0.97164 0.14623 0.0
C1352 C 0.5917 0.83996 0.63993 0.0
C1353 C 0.6312 0.84274 0.62812 0.0
C1354 C 0.6023 0.89173 0.59794 0.0
C1355 C 0.56539 0.89437 0.61226 0.0
N1356 N 0.52384 0.87188 0.6468 0.0
N1357 N 0.67576 0.87469 0.59732 0.0
C1358 C 0.55948 0.8683 0.63308 0.0
C1359 C 0.63686 0.86895 0.60721 0.0
N1360 N 0.585 0.80983 0.65739 0.0
N1361 N 0.60428 0.91132 0.57551 0.0
H1362 H 0.70241 0.85959 0.60378 0.0
H1363 H 0.6824 0.89725 0.58402 0.0
H1364 H 0.57949 0.92862 0.56831 0.0
H1365 H 0.62872 0.9071 0.56306 0.0
H1366 H 0.55592 0.80368 0.66517 0.0
H1367 H 0.60794 0.78835 0.66253 0.0
H1368 H 0.51956 0.8574 0.66384 0.0
H1369 H 0.49912 0.89122 0.64159 0.0
C1370 C 0.89622 0.85349 0.38826 0.0
C1371 C 0.89909 0.89207 0.37543 0.0
C1372 C 0.85426 0.86521 0.34241 0.0
C1373 C 0.85116 0.82668 0.35532 0.0
N1374 N 0.87516 0.78047 0.38735 0.0
N1375 N 0.88862 0.93236 0.33821 0.0
C1376 C 0.87414 0.81967 0.37729 0.0
C1377 C 0.88098 0.89699 0.35169 0.0
N1378 N 0.91383 0.84968 0.41118 0.0
N1379 N 0.82941 0.87257 0.3223 0.0
H1380 H 0.90614 0.95745 0.34483 0.0
H1381 H 0.88032 0.93566 0.31971 0.0
H1382 H 0.80939 0.85024 0.31478 0.0
H1383 H 0.82619 0.90176 0.31401 0.0
H1384 H 0.90879 0.82433 0.42286 0.0
H1385 H 0.93238 0.87298 0.41905 0.0
H1386 H 0.8942 0.77207 0.40212 0.0
H1387 H 0.85928 0.75517 0.37956 0.0
C1388 C 0.89278 0.16676 0.14089 0.0
C1389 C 0.8555 0.16865 0.12674 0.0
C1390 C 0.886 0.12149 0.09598 0.0
C1391 C 0.92015 0.11445 0.11212 0.0
N1392 N 0.95673 0.12902 0.15 0.0
N1393 N 0.81439 0.14447 0.09205 0.0
C1394 C 0.92397 0.13702 0.13452 0.0
C1395 C 0.8517 0.14575 0.10435 0.0
N1396 N 0.89848 0.19395 0.16011 0.0
N1397 N 0.88609 0.10443 0.0728 0.0
H1398 H 0.788 0.16098 0.09766 0.0
H1399 H 0.80834 0.12425 0.07739 0.0
H1400 H 0.91015 0.08544 0.06626 0.0
H1401 H 0.86426 0.11208 0.05927 0.0
H1402 H 0.9264 0.19679 0.16982 0.0
H1403 H 0.87636 0.21647 0.16495 0.0
H1404 H 0.95883 0.14067 0.16793 0.0
H1405 H 0.98105 0.10884 0.14524 0.0
C1406 C 0.59786 0.13795 0.89261 0.0
C1407 C 0.59711 0.10074 0.87827 0.0
C1408 C 0.63626 0.13596 0.84549 0.0
C1409 C 0.64312 0.1702 0.86161 0.0
N1410 N 0.63171 0.20456 0.90059 0.0
N1411 N 0.61987 0.0624 0.84211 0.0
C1412 C 0.62395 0.17162 0.88515 0.0
C1413 C 0.61681 0.09934 0.85476 0.0
N1414 N 0.57296 0.14129 0.91304 0.0
N1415 N 0.64887 0.1383 0.8214 0.0
H1416 H 0.60736 0.03431 0.84843 0.0
H1417 H 0.63814 0.05866 0.82634 0.0
H1418 H 0.66361 0.16462 0.81412 0.0
H1419 H 0.64112 0.11601 0.80812 0.0
H1420 H 0.56926 0.16888 0.92303 0.0
H1421 H 0.55286 0.11743 0.91866 0.0
H1422 H 0.62278 0.20518 0.9191 0.0
H1423 H 0.64907 0.23059 0.89513 0.0
C1424 C 0.87825 0.66751 0.883 0.0
C1425 C 0.86225 0.66757 0.8586 0.0
C1426 C 0.89734 0.60125 0.84967 0.0
C1427 C 0.91216 0.60044 0.8744 0.0
N1428 N 0.92668 0.63686 0.91239 0.0
N1429 N 0.86467 0.64123 0.81685 0.0
C1430 C 0.90587 0.63507 0.89035 0.0
C1431 C 0.87492 0.63684 0.84125 0.0
N1432 N 0.86584 0.69772 0.89931 0.0
N1433 N 0.90171 0.56683 0.83487 0.0
H1434 H 0.84707 0.6662 0.81018 0.0
H1435 H 0.87657 0.62221 0.8029 0.0
H1436 H 0.91792 0.54008 0.84021 0.0
H1437 H 0.88692 0.56347 0.81785 0.0
H1438 H 0.87217 0.69679 0.91817 0.0
H1439 H 0.84749 0.72316 0.89403 0.0
H1440 H 0.92627 0.66274 0.92407 0.0
H1441 H 0.94757 0.61367 0.91799 0.0
C1442 C 0.63831 0.62148 0.14358 0.0
C1443 C 0.63645 0.66279 0.13406 0.0
C1444 C 0.57506 0.64466 0.10935 0.0
C1445 C 0.5774 0.60325 0.11862 0.0
N1446 N 0.60393 0.55469 0.14894 0.0
N1447 N 0.59903 0.71667 0.11233 0.0
C1448 C 0.60646 0.59259 0.13733 0.0
C1449 C 0.60327 0.67543 0.11847 0.0
N1450 N 0.67162 0.60927 0.15765 0.0
N1451 N 0.54671 0.65402 0.0913 0.0
H1452 H 0.61978 0.73962 0.11844 0.0
H1453 H 0.57351 0.72868 0.10279 0.0
H1454 H 0.52422 0.63266 0.0853 0.0
H1455 H 0.54636 0.68212 0.08162 0.0
H1456 H 0.67768 0.57835 0.16245 0.0
H1457 H 0.6951 0.62972 0.16321 0.0
H1458 H 0.62143 0.54682 0.16447 0.0
H1459 H 0.58163 0.53221 0.14453 0.0
C1460 C 0.62029 0.3217 0.38513 0.0
C1461 C 0.64106 0.32627 0.36218 0.0
C1462 C 0.61115 0.39612 0.35683 0.0
C1463 C 0.58981 0.39141 0.37967 0.0
N1464 N 0.5662 0.34696 0.41278 0.0
N1465 N 0.6493 0.36284 0.32351 0.0
C1466 C 0.59194 0.35324 0.39297 0.0
C1467 C 0.63388 0.36176 0.34707 0.0
N1468 N 0.62862 0.28778 0.39968 0.0
N1469 N 0.61239 0.43423 0.34536 0.0
H1470 H 0.66729 0.33884 0.31597 0.0
H1471 H 0.64129 0.38577 0.3107 0.0
H1472 H 0.59695 0.46063 0.35198 0.0
H1473 H 0.6316 0.44079 0.33033 0.0
H1474 H 0.61844 0.28494 0.41787 0.0
H1475 H 0.64772 0.26321 0.39389 0.0
H1476 H 0.5634 0.31848 0.42193 0.0
H1477 H 0.54469 0.36932 0.41873 0.0
C1478 C 0.86125 0.39805 0.58803 0.0
C1479 C 0.90129 0.39811 0.5993 0.0
C1480 C 0.87736 0.34838 0.63062 0.0
C1481 C 0.83725 0.34855 0.61947 0.0
N1482 N 0.79256 0.36662 0.58515 0.0
N1483 N 0.9505 0.36818 0.62779 0.0
C1484 C 0.82985 0.37083 0.59723 0.0
C1485 C 0.9103 0.37154 0.61953 0.0
N1486 N 0.85239 0.42604 0.56963 0.0
N1487 N 0.88355 0.32678 0.65213 0.0
H1488 H 0.97514 0.38487 0.61991 0.0
H1489 H 0.96018 0.34668 0.64103 0.0
H1490 H 0.86086 0.30734 0.65985 0.0
H1491 H 0.91036 0.32925 0.66288 0.0
H1492 H 0.82247 0.43142 0.56285 0.0
H1493 H 0.87449 0.44631 0.56211 0.0
H1494 H 0.78708 0.37805 0.56744 0.0
H1495 H 0.76772 0.34904 0.59198 0.0
C1496 C 0.13266 0.41894 0.13383 0.0
C1497 C 0.10669 0.41378 0.11281 0.0
C1498 C 0.12018 0.33812 0.11302 0.0
C1499 C 0.14968 0.34422 0.13218 0.0
N1500 N 0.18868 0.39081 0.1587 0.0
N1501 N 0.07588 0.36948 0.08166 0.0
C1502 C 0.15685 0.38465 0.14222 0.0
C1503 C 0.10039 0.37357 0.10222 0.0
N1504 N 0.13467 0.45672 0.14566 0.0
N1505 N 0.11067 0.29838 0.10556 0.0
H1506 H 0.0587 0.39421 0.07427 0.0
H1507 H 0.0738 0.34218 0.07125 0.0
H1508 H 0.12502 0.272 0.11307 0.0
H1509 H 0.08664 0.29118 0.09334 0.0
H1510 H 0.14888 0.46093 0.1628 0.0
H1511 H 0.11953 0.4835 0.13941 0.0
H1512 H 0.19902 0.42019 0.1643 0.0
H1513 H 0.2074 0.36668 0.16529 0.0
C1514 C 0.40951 0.36293 0.88851 0.0
C1515 C 0.40859 0.39894 0.87319 0.0
C1516 C 0.36479 0.36245 0.84307 0.0
C1517 C 0.36397 0.32711 0.859 0.0
N1518 N 0.39246 0.28923 0.8934 0.0
N1519 N 0.39542 0.42981 0.8333 0.0
C1520 C 0.3888 0.3259 0.88061 0.0
C1521 C 0.38993 0.39743 0.84946 0.0
N1522 N 0.42925 0.36478 0.9109 0.0
N1523 N 0.33916 0.36387 0.82285 0.0
H1524 H 0.41237 0.45662 0.83765 0.0
H1525 H 0.38631 0.42867 0.81484 0.0
H1526 H 0.32048 0.33891 0.81725 0.0
H1527 H 0.33416 0.39073 0.8124 0.0
H1528 H 0.42716 0.34162 0.92434 0.0
H1529 H 0.44707 0.39051 0.91637 0.0
H1530 H 0.41256 0.28493 0.90829 0.0
H1531 H 0.37759 0.26177 0.88776 0.0
C1532 C 0.37928 0.60702 0.63283 0.0
C1533 C 0.40467 0.61129 0.61146 0.0
C1534 C 0.3772 0.68189 0.60446 0.0
C1535 C 0.35288 0.67787 0.62618 0.0
N1536 N 0.33776 0.64152 0.66419 0.0
N1537 N 0.43459 0.65505 0.57982 0.0
C1538 C 0.35645 0.64207 0.64145 0.0
C1539 C 0.40572 0.64951 0.59813 0.0
N1540 N 0.37451 0.56882 0.64386 0.0
N1541 N 0.37208 0.71604 0.5896 0.0
H1542 H 0.45617 0.63203 0.57494 0.0
H1543 H 0.43961 0.68346 0.57092 0.0
H1544 H 0.35268 0.74101 0.59435 0.0
H1545 H 0.3852 0.71869 0.57207 0.0
H1546 H 0.35261 0.56292 0.65765 0.0
H1547 H 0.38954 0.54178 0.63783 0.0
H1548 H 0.34298 0.61816 0.67723 0.0
H1549 H 0.32002 0.66636 0.67097 0.0
C1550 C 0.11932 0.59371 0.34337 0.0
C1551 C 0.10406 0.59362 0.36791 0.0
C1552 C 0.12672 0.66623 0.37349 0.0
C1553 C 0.14763 0.66392 0.35047 0.0
N1554 N 0.16657 0.62506 0.31379 0.0
N1555 N 0.09059 0.62915 0.40632 0.0
C1556 C 0.14403 0.62788 0.33522 0.0
C1557 C 0.10662 0.62993 0.38291 0.0
N1558 N 0.1106 0.56089 0.32799 0.0
N1559 N 0.1259 0.70332 0.38608 0.0
H1560 H 0.07307 0.60405 0.41296 0.0
H1561 H 0.09554 0.65249 0.41941 0.0
H1562 H 0.14029 0.73033 0.37939 0.0
H1563 H 0.1085 0.70841 0.40203 0.0
H1564 H 0.11705 0.56101 0.30913 0.0
H1565 H 0.09357 0.53478 0.33363 0.0
H1566 H 0.16948 0.59768 0.30352 0.0
H1567 H 0.18497 0.64932 0.30696 0.0
loop_
_geom_bond_atom_site_label_1
_geom_bond_atom_site_label_2
_geom_bond_distance
_geom_bond_site_symmetry_2
_ccdc_geom_bond_type
C0 O1 1.160 . S
C0 O7 1.185 . S
O1 C0 1.160 . S
O2 Zn3 1.899 . S
O2 C10 1.284 . S
Zn3 O2 1.899 . S
Zn3 O4 2.032 . S
Zn3 O7 2.086 . S
Zn3 O12 1.977 . S
O4 Zn3 2.032 . S
O4 C8 1.278 . S
C5 O6 1.203 . S
C5 O12 1.267 . S
O6 C5 1.203 . S
O7 C0 1.185 . S
O7 Zn3 2.086 . S
C8 O4 1.278 . S
C8 O9 1.211 . S
O9 C8 1.211 . S
C10 O2 1.284 . S
C10 O11 1.273 . S
O11 C10 1.273 . S
O12 Zn3 1.977 . S
O12 C5 1.267 . S
C13 O14 1.160 . S
C13 O20 1.185 . S
O14 C13 1.160 . S
O15 Zn16 1.899 1_545 S
O15 C23 1.284 1_545 S
Zn16 O15 1.899 1_565 S
Zn16 O17 2.032 . S
Zn16 O20 2.086 1_565 S
Zn16 O25 1.977 1_455 S
O17 Zn16 2.032 . S
O17 C21 1.278 . S
C18 O19 1.203 . S
C18 O25 1.267 . S
O19 C18 1.203 . S
O20 C13 1.185 . S
O20 Zn16 2.086 1_545 S
C21 O17 1.278 . S
C21 O22 1.211 . S
O22 C21 1.211 . S
C23 O15 1.284 1_565 S
C23 O24 1.273 . S
O24 C23 1.273 . S
O25 Zn16 1.977 1_655 S
O25 C18 1.267 . S
C26 O27 1.160 . S
C26 O33 1.185 . S
O27 C26 1.160 . S
O28 Zn29 1.899 . S
O28 C36 1.284 . S
Zn29 O28 1.899 . S
Zn29 O30 2.032 . S
Zn29 O33 2.086 . S
Zn29 O38 1.977 . S
O30 Zn29 2.032 . S
O30 C34 1.278 . S
C31 O32 1.203 . S
C31 O38 1.267 . S
O32 C31 1.203 . S
O33 C26 1.185 . S
O33 Zn29 2.086 . S
C34 O30 1.278 . S
C34 O35 1.211 . S
O35 C34 1.211 . S
C36 O28 1.284 . S
C36 O37 1.273 . S
O37 C36 1.273 . S
O38 Zn29 1.977 . S
O38 C31 1.267 . S
C39 O40 1.160 . S
C39 O46 1.185 . S
O40 C39 1.160 . S
O41 Zn42 1.899 1_565 S
O41 C49 1.284 1_565 S
Zn42 O41 1.899 1_545 S
Zn42 O43 2.032 . S
Zn42 O46 2.086 1_545 S
Zn42 O51 1.977 . S
O43 Zn42 2.032 . S
O43 C47 1.278 . S
C44 O45 1.203 . S
C44 O51 1.267 . S
O45 C44 1.203 . S
O46 C39 1.185 . S
O46 Zn42 2.086 1_565 S
C47 O43 1.278 . S
C47 O48 1.211 . S
O48 C47 1.211 . S
C49 O41 1.284 1_545 S
C49 O50 1.273 . S
O50 C49 1.273 . S
O51 Zn42 1.977 . S
O51 C44 1.267 . S
C52 O53 1.160 . S
C52 O59 1.185 . S
O53 C52 1.160 . S
O54 Zn55 1.899 . S
O54 C62 1.284 . S
Zn55 O54 1.899 . S
Zn55 O56 2.032 . S
Zn55 O59 2.086 . S
Zn55 O64 1.977 . S
O56 Zn55 2.032 . S
O56 C60 1.278 . S
C57 O58 1.203 . S
C57 O64 1.267 . S
O58 C57 1.203 . S
O59 C52 1.185 . S
O59 Zn55 2.086 . S
C60 O56 1.278 . S
C60 O61 1.211 . S
O61 C60 1.211 . S
C62 O54 1.284 . S
C62 O63 1.273 . S
O63 C62 1.273 . S
O64 Zn55 1.977 . S
O64 C57 1.267 . S
C65 O66 1.160 . S
C65 O72 1.185 . S
O66 C65 1.160 . S
O67 Zn68 1.899 1_545 S
O67 C75 1.284 1_545 S
Zn68 O67 1.899 1_565 S
Zn68 O69 2.032 . S
Zn68 O72 2.086 1_565 S
Zn68 O77 1.977 . S
O69 Zn68 2.032 . S
O69 C73 1.278 . S
C70 O71 1.203 . S
C70 O77 1.267 . S
O71 C70 1.203 . S
O72 C65 1.185 . S
O72 Zn68 2.086 1_545 S
C73 O69 1.278 . S
C73 O74 1.211 . S
O74 C73 1.211 . S
C75 O67 1.284 1_565 S
C75 O76 1.273 . S
O76 C75 1.273 . S
O77 Zn68 1.977 . S
O77 C70 1.267 . S
C78 O79 1.160 . S
C78 O85 1.185 . S
O79 C78 1.160 . S
O80 Zn81 1.899 . S
O80 C88 1.284 . S
Zn81 O80 1.899 . S
Zn81 O82 2.032 . S
Zn81 O85 2.086 . S
Zn81 O90 1.977 . S
O82 Zn81 2.032 . S
O82 C86 1.278 . S
C83 O84 1.203 . S
C83 O90 1.267 . S
O84 C83 1.203 . S
O85 C78 1.185 . S
O85 Zn81 2.086 . S
C86 O82 1.278 . S
C86 O87 1.211 . S
O87 C86 1.211 . S
C88 O80 1.284 . S
C88 O89 1.273 . S
O89 C88 1.273 . S
O90 Zn81 1.977 . S
O90 C83 1.267 . S
C91 O92 1.160 . S
C91 O98 1.185 . S
O92 C91 1.160 . S
O93 Zn94 1.899 1_565 S
O93 C101 1.284 1_565 S
Zn94 O93 1.899 1_545 S
Zn94 O95 2.032 . S
Zn94 O98 2.086 1_545 S
Zn94 O103 1.977 1_455 S
O95 Zn94 2.032 . S
O95 C99 1.278 . S
C96 O97 1.203 . S
C96 O103 1.267 . S
O97 C96 1.203 . S
O98 C91 1.185 . S
O98 Zn94 2.086 1_565 S
C99 O95 1.278 . S
C99 O100 1.211 . S
O100 C99 1.211 . S
C101 O93 1.284 1_545 S
C101 O102 1.273 . S
O102 C101 1.273 . S
O103 Zn94 1.977 1_655 S
O103 C96 1.267 . S
C104 O105 1.160 . S
C104 O111 1.185 . S
O105 C104 1.160 . S
O106 Zn107 1.899 . S
O106 C114 1.284 . S
Zn107 O106 1.899 . S
Zn107 O108 2.032 . S
Zn107 O111 2.086 . S
Zn107 O116 1.977 . S
O108 Zn107 2.032 . S
O108 C112 1.278 . S
C109 O110 1.203 . S
C109 O116 1.267 . S
O110 C109 1.203 . S
O111 C104 1.185 . S
O111 Zn107 2.086 . S
C112 O108 1.278 . S
C112 O113 1.211 . S
O113 C112 1.211 . S
C114 O106 1.284 . S
C114 O115 1.273 . S
O115 C114 1.273 . S
O116 Zn107 1.977 . S
O116 C109 1.267 . S
C117 O118 1.160 . S
C117 O124 1.185 . S
O118 C117 1.160 . S
O119 Zn120 1.899 1_565 S
O119 C127 1.284 1_565 S
Zn120 O119 1.899 1_545 S
Zn120 O121 2.032 . S
Zn120 O124 2.086 1_545 S
Zn120 O129 1.977 1_655 S
O121 Zn120 2.032 . S
O121 C125 1.278 . S
C122 O123 1.203 . S
C122 O129 1.267 . S
O123 C122 1.203 . S
O124 C117 1.185 . S
O124 Zn120 2.086 1_565 S
C125 O121 1.278 . S
C125 O126 1.211 . S
O126 C125 1.211 . S
C127 O119 1.284 1_545 S
C127 O128 1.273 . S
O128 C127 1.273 . S
O129 Zn120 1.977 1_455 S
O129 C122 1.267 . S
C130 O131 1.160 . S
C130 O137 1.185 . S
O131 C130 1.160 . S
O132 Zn133 1.899 . S
O132 C140 1.284 . S
Zn133 O132 1.899 . S
Zn133 O134 2.032 . S
Zn133 O137 2.086 . S
Zn133 O142 1.977 . S
O134 Zn133 2.032 . S
O134 C138 1.278 . S
C135 O136 1.203 . S
C135 O142 1.267 . S
O136 C135 1.203 . S
O137 C130 1.185 . S
O137 Zn133 2.086 . S
C138 O134 1.278 . S
C138 O139 1.211 . S
O139 C138 1.211 . S
C140 O132 1.284 . S
C140 O141 1.273 . S
O141 C140 1.273 . S
O142 Zn133 1.977 . S
O142 C135 1.267 . S
C143 O144 1.160 . S
C143 O150 1.185 . S
O144 C143 1.160 . S
O145 Zn146 1.899 1_545 S
O145 C153 1.284 1_545 S
Zn146 O145 1.899 1_565 S
Zn146 O147 2.032 . S
Zn146 O150 2.086 1_565 S
Zn146 O155 1.977 . S
O147 Zn146 2.032 . S
O147 C151 1.278 . S
C148 O149 1.203 . S
C148 O155 1.267 . S
O149 C148 1.203 . S
O150 C143 1.185 . S
O150 Zn146 2.086 1_545 S
C151 O147 1.278 . S
C151 O152 1.211 . S
O152 C151 1.211 . S
C153 O145 1.284 1_565 S
C153 O154 1.273 . S
O154 C153 1.273 . S
O155 Zn146 1.977 . S
O155 C148 1.267 . S
C156 O157 1.160 . S
C156 O163 1.185 . S
O157 C156 1.160 . S
O158 Zn159 1.899 . S
O158 C166 1.284 . S
Zn159 O158 1.899 . S
Zn159 O160 2.032 . S
Zn159 O163 2.086 . S
Zn159 O168 1.977 . S
O160 Zn159 2.032 . S
O160 C164 1.278 . S
C161 O162 1.203 . S
C161 O168 1.267 . S
O162 C161 1.203 . S
O163 C156 1.185 . S
O163 Zn159 2.086 . S
C164 O160 1.278 . S
C164 O165 1.211 . S
O165 C164 1.211 . S
C166 O158 1.284 . S
C166 O167 1.273 . S
O167 C166 1.273 . S
O168 Zn159 1.977 . S
O168 C161 1.267 . S
C169 O170 1.160 . S
C169 O176 1.185 . S
O170 C169 1.160 . S
O171 Zn172 1.899 1_565 S
O171 C179 1.284 1_565 S
Zn172 O171 1.899 1_545 S
Zn172 O173 2.032 . S
Zn172 O176 2.086 1_545 S
Zn172 O181 1.977 . S
O173 Zn172 2.032 . S
O173 C177 1.278 . S
C174 O175 1.203 . S
C174 O181 1.267 . S
O175 C174 1.203 . S
O176 C169 1.185 . S
O176 Zn172 2.086 1_565 S
C177 O173 1.278 . S
C177 O178 1.211 . S
O178 C177 1.211 . S
C179 O171 1.284 1_545 S
C179 O180 1.273 . S
O180 C179 1.273 . S
O181 Zn172 1.977 . S
O181 C174 1.267 . S
C182 O183 1.160 . S
C182 O189 1.185 . S
O183 C182 1.160 . S
O184 Zn185 1.899 . S
O184 C192 1.284 . S
Zn185 O184 1.899 . S
Zn185 O186 2.032 . S
Zn185 O189 2.086 . S
Zn185 O194 1.977 . S
O186 Zn185 2.032 . S
O186 C190 1.278 . S
C187 O188 1.203 . S
C187 O194 1.267 . S
O188 C187 1.203 . S
O189 C182 1.185 . S
O189 Zn185 2.086 . S
C190 O186 1.278 . S
C190 O191 1.211 . S
O191 C190 1.211 . S
C192 O184 1.284 . S
C192 O193 1.273 . S
O193 C192 1.273 . S
O194 Zn185 1.977 . S
O194 C187 1.267 . S
C195 O196 1.160 . S
C195 O202 1.185 . S
O196 C195 1.160 . S
O197 Zn198 1.899 1_545 S
O197 C205 1.284 1_545 S
Zn198 O197 1.899 1_565 S
Zn198 O199 2.032 . S
Zn198 O202 2.086 1_565 S
Zn198 O207 1.977 1_655 S
O199 Zn198 2.032 . S
O199 C203 1.278 . S
C200 O201 1.203 . S
C200 O207 1.267 . S
O201 C200 1.203 . S
O202 C195 1.185 . S
O202 Zn198 2.086 1_545 S
C203 O199 1.278 . S
C203 O204 1.211 . S
O204 C203 1.211 . S
C205 O197 1.284 1_565 S
C205 O206 1.273 . S
O206 C205 1.273 . S
O207 Zn198 1.977 1_455 S
O207 C200 1.267 . S
C208 O209 1.160 . S
C208 O215 1.185 . S
O209 C208 1.160 . S
O210 Zn211 1.899 . S
O210 C218 1.284 . S
Zn211 O210 1.899 . S
Zn211 O212 2.032 . S
Zn211 O215 2.086 . S
Zn211 O220 1.977 . S
O212 Zn211 2.032 . S
O212 C216 1.278 . S
C213 O214 1.203 . S
C213 O220 1.267 . S
O214 C213 1.203 . S
O215 C208 1.185 . S
O215 Zn211 2.086 . S
C216 O212 1.278 . S
C216 O217 1.211 . S
O217 C216 1.211 . S
C218 O210 1.284 . S
C218 O219 1.273 . S
O219 C218 1.273 . S
O220 Zn211 1.977 . S
O220 C213 1.267 . S
C221 O222 1.160 . S
C221 O228 1.185 . S
O222 C221 1.160 . S
O223 Zn224 1.899 . S
O223 C231 1.284 . S
Zn224 O223 1.899 . S
Zn224 O225 2.032 . S
Zn224 O228 2.086 . S
Zn224 O233 1.977 . S
O225 Zn224 2.032 . S
O225 C229 1.278 . S
C226 O227 1.203 . S
C226 O233 1.267 . S
O227 C226 1.203 . S
O228 C221 1.185 . S
O228 Zn224 2.086 . S
C229 O225 1.278 . S
C229 O230 1.211 . S
O230 C229 1.211 . S
C231 O223 1.284 . S
C231 O232 1.273 . S
O232 C231 1.273 . S
O233 Zn224 1.977 . S
O233 C226 1.267 . S
C234 O235 1.160 . S
C234 O241 1.185 . S
O235 C234 1.160 . S
O236 Zn237 1.899 . S
O236 C244 1.284 . S
Zn237 O236 1.899 . S
Zn237 O238 2.032 . S
Zn237 O241 2.086 . S
Zn237 O246 1.977 . S
O238 Zn237 2.032 . S
O238 C242 1.278 . S
C239 O240 1.203 . S
C239 O246 1.267 . S
O240 C239 1.203 . S
O241 C234 1.185 . S
O241 Zn237 2.086 . S
C242 O238 1.278 . S
C242 O243 1.211 . S
O243 C242 1.211 . S
C244 O236 1.284 . S
C244 O245 1.273 . S
O245 C244 1.273 . S
O246 Zn237 1.977 . S
O246 C239 1.267 . S
C247 O248 1.160 . S
C247 O254 1.185 . S
O248 C247 1.160 . S
O249 Zn250 1.899 . S
O249 C257 1.284 . S
Zn250 O249 1.899 . S
Zn250 O251 2.032 . S
Zn250 O254 2.086 . S
Zn250 O259 1.977 1_655 S
O251 Zn250 2.032 . S
O251 C255 1.278 . S
C252 O253 1.203 . S
C252 O259 1.267 . S
O253 C252 1.203 . S
O254 C247 1.185 . S
O254 Zn250 2.086 . S
C255 O251 1.278 . S
C255 O256 1.211 . S
O256 C255 1.211 . S
C257 O249 1.284 . S
C257 O258 1.273 . S
O258 C257 1.273 . S
O259 Zn250 1.977 1_455 S
O259 C252 1.267 . S
C260 O261 1.160 . S
C260 O267 1.185 . S
O261 C260 1.160 . S
O262 Zn263 1.899 . S
O262 C270 1.284 . S
Zn263 O262 1.899 . S
Zn263 O264 2.032 . S
Zn263 O267 2.086 . S
Zn263 O272 1.977 . S
O264 Zn263 2.032 . S
O264 C268 1.278 . S
C265 O266 1.203 . S
C265 O272 1.267 . S
O266 C265 1.203 . S
O267 C260 1.185 . S
O267 Zn263 2.086 . S
C268 O264 1.278 . S
C268 O269 1.211 . S
O269 C268 1.211 . S
C270 O262 1.284 . S
C270 O271 1.273 . S
O271 C270 1.273 . S
O272 Zn263 1.977 . S
O272 C265 1.267 . S
C273 O274 1.160 . S
C273 O280 1.185 . S
O274 C273 1.160 . S
O275 Zn276 1.899 . S
O275 C283 1.284 . S
Zn276 O275 1.899 . S
Zn276 O277 2.032 . S
Zn276 O280 2.086 . S
Zn276 O285 1.977 1_655 S
O277 Zn276 2.032 . S
O277 C281 1.278 . S
C278 O279 1.203 . S
C278 O285 1.267 . S
O279 C278 1.203 . S
O280 C273 1.185 . S
O280 Zn276 2.086 . S
C281 O277 1.278 . S
C281 O282 1.211 . S
O282 C281 1.211 . S
C283 O275 1.284 . S
C283 O284 1.273 . S
O284 C283 1.273 . S
O285 Zn276 1.977 1_455 S
O285 C278 1.267 . S
C286 O287 1.160 . S
C286 O293 1.185 . S
O287 C286 1.160 . S
O288 Zn289 1.899 . S
O288 C296 1.284 . S
Zn289 O288 1.899 . S
Zn289 O290 2.032 . S
Zn289 O293 2.086 . S
Zn289 O298 1.977 . S
O290 Zn289 2.032 . S
O290 C294 1.278 . S
C291 O292 1.203 . S
C291 O298 1.267 . S
O292 C291 1.203 . S
O293 C286 1.185 . S
O293 Zn289 2.086 . S
C294 O290 1.278 . S
C294 O295 1.211 . S
O295 C294 1.211 . S
C296 O288 1.284 . S
C296 O297 1.273 . S
O297 C296 1.273 . S
O298 Zn289 1.977 . S
O298 C291 1.267 . S
C299 O300 1.160 . S
C299 O306 1.185 . S
O300 C299 1.160 . S
O301 Zn302 1.899 . S
O301 C309 1.284 . S
Zn302 O301 1.899 . S
Zn302 O303 2.032 . S
Zn302 O306 2.086 . S
Zn302 O311 1.977 . S
O303 Zn302 2.032 . S
O303 C307 1.278 . S
C304 O305 1.203 . S
C304 O311 1.267 . S
O305 C304 1.203 . S
O306 C299 1.185 . S
O306 Zn302 2.086 . S
C307 O303 1.278 . S
C307 O308 1.211 . S
O308 C307 1.211 . S
C309 O301 1.284 . S
C309 O310 1.273 . S
O310 C309 1.273 . S
O311 Zn302 1.977 . S
O311 C304 1.267 . S
C312 O313 1.160 . S
C312 O319 1.185 . S
O313 C312 1.160 . S
O314 Zn315 1.899 . S
O314 C322 1.284 . S
Zn315 O314 1.899 . S
Zn315 O316 2.032 . S
Zn315 O319 2.086 . S
Zn315 O324 1.977 . S
O316 Zn315 2.032 . S
O316 C320 1.278 . S
C317 O318 1.203 . S
C317 O324 1.267 . S
O318 C317 1.203 . S
O319 C312 1.185 . S
O319 Zn315 2.086 . S
C320 O316 1.278 . S
C320 O321 1.211 . S
O321 C320 1.211 . S
C322 O314 1.284 . S
C322 O323 1.273 . S
O323 C322 1.273 . S
O324 Zn315 1.977 . S
O324 C317 1.267 . S
C325 O326 1.160 . S
C325 O332 1.185 . S
O326 C325 1.160 . S
O327 Zn328 1.899 . S
O327 C335 1.284 . S
Zn328 O327 1.899 . S
Zn328 O329 2.032 . S
Zn328 O332 2.086 . S
Zn328 O337 1.977 . S
O329 Zn328 2.032 . S
O329 C333 1.278 . S
C330 O331 1.203 . S
C330 O337 1.267 . S
O331 C330 1.203 . S
O332 C325 1.185 . S
O332 Zn328 2.086 . S
C333 O329 1.278 . S
C333 O334 1.211 . S
O334 C333 1.211 . S
C335 O327 1.284 . S
C335 O336 1.273 . S
O336 C335 1.273 . S
O337 Zn328 1.977 . S
O337 C330 1.267 . S
C338 O339 1.160 . S
C338 O345 1.185 . S
O339 C338 1.160 . S
O340 Zn341 1.899 . S
O340 C348 1.284 . S
Zn341 O340 1.899 . S
Zn341 O342 2.032 . S
Zn341 O345 2.086 . S
Zn341 O350 1.977 . S
O342 Zn341 2.032 . S
O342 C346 1.278 . S
C343 O344 1.203 . S
C343 O350 1.267 . S
O344 C343 1.203 . S
O345 C338 1.185 . S
O345 Zn341 2.086 . S
C346 O342 1.278 . S
C346 O347 1.211 . S
O347 C346 1.211 . S
C348 O340 1.284 . S
C348 O349 1.273 . S
O349 C348 1.273 . S
O350 Zn341 1.977 . S
O350 C343 1.267 . S
C351 O352 1.160 . S
C351 O358 1.185 . S
O352 C351 1.160 . S
O353 Zn354 1.899 . S
O353 C361 1.284 . S
Zn354 O353 1.899 . S
Zn354 O355 2.032 . S
Zn354 O358 2.086 . S
Zn354 O363 1.977 1_455 S
O355 Zn354 2.032 . S
O355 C359 1.278 . S
C356 O357 1.203 . S
C356 O363 1.267 . S
O357 C356 1.203 . S
O358 C351 1.185 . S
O358 Zn354 2.086 . S
C359 O355 1.278 . S
C359 O360 1.211 . S
O360 C359 1.211 . S
C361 O353 1.284 . S
C361 O362 1.273 . S
O362 C361 1.273 . S
O363 Zn354 1.977 1_655 S
O363 C356 1.267 . S
C364 O365 1.160 . S
C364 O371 1.185 . S
O365 C364 1.160 . S
O366 Zn367 1.899 . S
O366 C374 1.284 . S
Zn367 O366 1.899 . S
Zn367 O368 2.032 . S
Zn367 O371 2.086 . S
Zn367 O376 1.977 . S
O368 Zn367 2.032 . S
O368 C372 1.278 . S
C369 O370 1.203 . S
C369 O376 1.267 . S
O370 C369 1.203 . S
O371 C364 1.185 . S
O371 Zn367 2.086 . S
C372 O368 1.278 . S
C372 O373 1.211 . S
O373 C372 1.211 . S
C374 O366 1.284 . S
C374 O375 1.273 . S
O375 C374 1.273 . S
O376 Zn367 1.977 . S
O376 C369 1.267 . S
C377 O378 1.160 . S
C377 O384 1.185 . S
O378 C377 1.160 . S
O379 Zn380 1.899 . S
O379 C387 1.284 . S
Zn380 O379 1.899 . S
Zn380 O381 2.032 . S
Zn380 O384 2.086 . S
Zn380 O389 1.977 1_455 S
O381 Zn380 2.032 . S
O381 C385 1.278 . S
C382 O383 1.203 . S
C382 O389 1.267 . S
O383 C382 1.203 . S
O384 C377 1.185 . S
O384 Zn380 2.086 . S
C385 O381 1.278 . S
C385 O386 1.211 . S
O386 C385 1.211 . S
C387 O379 1.284 . S
C387 O388 1.273 . S
O388 C387 1.273 . S
O389 Zn380 1.977 1_655 S
O389 C382 1.267 . S
C390 O391 1.160 . S
C390 O397 1.185 . S
O391 C390 1.160 . S
O392 Zn393 1.899 . S
O392 C400 1.284 . S
Zn393 O392 1.899 . S
Zn393 O394 2.032 . S
Zn393 O397 2.086 . S
Zn393 O402 1.977 . S
O394 Zn393 2.032 . S
O394 C398 1.278 . S
C395 O396 1.203 . S
C395 O402 1.267 . S
O396 C395 1.203 . S
O397 C390 1.185 . S
O397 Zn393 2.086 . S
C398 O394 1.278 . S
C398 O399 1.211 . S
O399 C398 1.211 . S
C400 O392 1.284 . S
C400 O401 1.273 . S
O401 C400 1.273 . S
O402 Zn393 1.977 . S
O402 C395 1.267 . S
C403 O404 1.160 . S
C403 O410 1.185 . S
O404 C403 1.160 . S
O405 Zn406 1.899 . S
O405 C413 1.284 . S
Zn406 O405 1.899 . S
Zn406 O407 2.032 . S
Zn406 O410 2.086 . S
Zn406 O415 1.977 . S
O407 Zn406 2.032 . S
O407 C411 1.278 . S
C408 O409 1.203 . S
C408 O415 1.267 . S
O409 C408 1.203 . S
O410 C403 1.185 . S
O410 Zn406 2.086 . S
C411 O407 1.278 . S
C411 O412 1.211 . S
O412 C411 1.211 . S
C413 O405 1.284 . S
C413 O414 1.273 . S
O414 C413 1.273 . S
O415 Zn406 1.977 . S
O415 C408 1.267 . S
C416 C417 1.363 . S
C416 C422 1.379 . S
C416 N424 1.356 . S
C417 C416 1.363 . S
C417 C423 1.363 . S
C418 C419 1.363 . S
C418 C423 1.379 . S
C418 N425 1.356 . S
C419 C418 1.363 . S
C419 C422 1.363 . S
N420 C422 1.356 . S
N420 H432 0.984 . S
N420 H433 0.985 . S
N421 C423 1.356 . S
N421 H426 0.984 . S
N421 H427 0.985 . S
C422 C416 1.379 . S
C422 C419 1.363 . S
C422 N420 1.356 . S
C423 C417 1.363 . S
C423 C418 1.379 . S
C423 N421 1.356 . S
N424 C416 1.356 . S
N424 H430 0.984 . S
N424 H431 0.984 . S
N425 C418 1.356 . S
N425 H428 0.984 . S
N425 H429 0.985 . S
H426 N421 0.984 . S
H427 N421 0.985 . S
H428 N425 0.984 . S
H429 N425 0.985 . S
H430 N424 0.984 . S
H431 N424 0.984 . S
H432 N420 0.984 . S
H433 N420 0.985 . S
C434 C435 1.363 . S
C434 C440 1.379 . S
C434 N442 1.356 . S
C435 C434 1.363 . S
C435 C441 1.363 . S
C436 C437 1.363 . S
C436 C441 1.379 . S
C436 N443 1.356 . S
C437 C436 1.363 . S
C437 C440 1.363 . S
N438 C440 1.356 . S
N438 H450 0.984 . S
N438 H451 0.985 . S
N439 C441 1.356 . S
N439 H444 0.984 . S
N439 H445 0.985 . S
C440 C434 1.379 . S
C440 C437 1.363 . S
C440 N438 1.356 . S
C441 C435 1.363 . S
C441 C436 1.379 . S
C441 N439 1.356 . S
N442 C434 1.356 . S
N442 H448 0.984 . S
N442 H449 0.984 . S
N443 C436 1.356 . S
N443 H446 0.984 . S
N443 H447 0.985 . S
H444 N439 0.984 . S
H445 N439 0.985 . S
H446 N443 0.984 . S
H447 N443 0.985 . S
H448 N442 0.984 . S
H449 N442 0.984 . S
H450 N438 0.984 . S
H451 N438 0.985 . S
C452 C453 1.363 . S
C452 C458 1.379 . S
C452 N460 1.356 . S
C453 C452 1.363 . S
C453 C459 1.363 . S
C454 C455 1.363 . S
C454 C459 1.379 . S
C454 N461 1.356 . S
C455 C454 1.363 . S
C455 C458 1.363 . S
N456 C458 1.356 . S
N456 H468 0.984 . S
N456 H469 0.985 . S
N457 C459 1.356 . S
N457 H462 0.984 . S
N457 H463 0.985 . S
C458 C452 1.379 . S
C458 C455 1.363 . S
C458 N456 1.356 . S
C459 C453 1.363 . S
C459 C454 1.379 . S
C459 N457 1.356 . S
N460 C452 1.356 . S
N460 H466 0.984 . S
N460 H467 0.984 . S
N461 C454 1.356 . S
N461 H464 0.984 . S
N461 H465 0.985 . S
H462 N457 0.984 . S
H463 N457 0.985 . S
H464 N461 0.984 . S
H465 N461 0.985 . S
H466 N460 0.984 . S
H467 N460 0.984 . S
H468 N456 0.984 . S
H469 N456 0.985 . S
C470 C471 1.363 . S
C470 C476 1.379 . S
C470 N478 1.356 . S
C471 C470 1.363 . S
C471 C477 1.363 . S
C472 C473 1.363 . S
C472 C477 1.379 . S
C472 N479 1.356 . S
C473 C472 1.363 . S
C473 C476 1.363 . S
N474 C476 1.356 . S
N474 H486 0.984 . S
N474 H487 0.985 . S
N475 C477 1.356 . S
N475 H480 0.984 . S
N475 H481 0.985 . S
C476 C470 1.379 . S
C476 C473 1.363 . S
C476 N474 1.356 . S
C477 C471 1.363 . S
C477 C472 1.379 . S
C477 N475 1.356 . S
N478 C470 1.356 . S
N478 H484 0.984 . S
N478 H485 0.984 . S
N479 C472 1.356 . S
N479 H482 0.984 . S
N479 H483 0.985 . S
H480 N475 0.984 . S
H481 N475 0.985 . S
H482 N479 0.984 . S
H483 N479 0.985 . S
H484 N478 0.984 . S
H485 N478 0.984 . S
H486 N474 0.984 . S
H487 N474 0.985 . S
C488 C489 1.363 . S
C488 C494 1.379 . S
C488 N496 1.356 . S
C489 C488 1.363 . S
C489 C495 1.363 . S
C490 C491 1.363 . S
C490 C495 1.379 . S
C490 N497 1.356 . S
C491 C490 1.363 . S
C491 C494 1.363 . S
N492 C494 1.356 . S
N492 H504 0.984 . S
N492 H505 0.985 . S
N493 C495 1.356 . S
N493 H498 0.984 . S
N493 H499 0.985 . S
C494 C488 1.379 . S
C494 C491 1.363 . S
C494 N492 1.356 . S
C495 C489 1.363 . S
C495 C490 1.379 . S
C495 N493 1.356 . S
N496 C488 1.356 . S
N496 H502 0.984 . S
N496 H503 0.984 . S
N497 C490 1.356 . S
N497 H500 0.984 . S
N497 H501 0.985 . S
H498 N493 0.984 . S
H499 N493 0.985 . S
H500 N497 0.984 . S
H501 N497 0.985 . S
H502 N496 0.984 . S
H503 N496 0.984 . S
H504 N492 0.984 . S
H505 N492 0.985 . S
C506 C507 1.363 . S
C506 C512 1.379 . S
C506 N514 1.356 . S
C507 C506 1.363 . S
C507 C513 1.363 . S
C508 C509 1.363 . S
C508 C513 1.379 . S
C508 N515 1.356 . S
C509 C508 1.363 . S
C509 C512 1.363 . S
N510 C512 1.356 . S
N510 H522 0.984 . S
N510 H523 0.985 . S
N511 C513 1.356 . S
N511 H516 0.984 . S
N511 H517 0.985 . S
C512 C506 1.379 . S
C512 C509 1.363 . S
C512 N510 1.356 . S
C513 C507 1.363 . S
C513 C508 1.379 . S
C513 N511 1.356 . S
N514 C506 1.356 . S
N514 H520 0.984 . S
N514 H521 0.984 . S
N515 C508 1.356 . S
N515 H518 0.984 . S
N515 H519 0.985 . S
H516 N511 0.984 . S
H517 N511 0.985 . S
H518 N515 0.984 . S
H519 N515 0.985 . S
H520 N514 0.984 . S
H521 N514 0.984 . S
H522 N510 0.984 . S
H523 N510 0.985 . S
C524 C525 1.363 . S
C524 C530 1.379 . S
C524 N532 1.356 . S
C525 C524 1.363 . S
C525 C531 1.363 . S
C526 C527 1.363 . S
C526 C531 1.379 . S
C526 N533 1.356 . S
C527 C526 1.363 . S
C527 C530 1.363 . S
N528 C530 1.356 . S
N528 H540 0.984 . S
N528 H541 0.985 . S
N529 C531 1.356 . S
N529 H534 0.984 . S
N529 H535 0.985 . S
C530 C524 1.379 . S
C530 C527 1.363 . S
C530 N528 1.356 . S
C531 C525 1.363 . S
C531 C526 1.379 . S
C531 N529 1.356 . S
N532 C524 1.356 . S
N532 H538 0.984 . S
N532 H539 0.984 . S
N533 C526 1.356 . S
N533 H536 0.984 . S
N533 H537 0.985 . S
H534 N529 0.984 . S
H535 N529 0.985 . S
H536 N533 0.984 . S
H537 N533 0.985 . S
H538 N532 0.984 . S
H539 N532 0.984 . S
H540 N528 0.984 . S
H541 N528 0.985 . S
C542 C543 1.363 . S
C542 C548 1.379 . S
C542 N550 1.356 . S
C543 C542 1.363 . S
C543 C549 1.363 . S
C544 C545 1.363 . S
C544 C549 1.379 . S
C544 N551 1.356 . S
C545 C544 1.363 . S
C545 C548 1.363 . S
N546 C548 1.356 . S
N546 H558 0.984 . S
N546 H559 0.985 . S
N547 C549 1.356 . S
N547 H552 0.984 . S
N547 H553 0.985 . S
C548 C542 1.379 . S
C548 C545 1.363 . S
C548 N546 1.356 . S
C549 C543 1.363 . S
C549 C544 1.379 . S
C549 N547 1.356 . S
N550 C542 1.356 . S
N550 H556 0.984 . S
N550 H557 0.984 . S
N551 C544 1.356 . S
N551 H554 0.984 . S
N551 H555 0.985 . S
H552 N547 0.984 . S
H553 N547 0.985 . S
H554 N551 0.984 . S
H555 N551 0.985 . S
H556 N550 0.984 . S
H557 N550 0.984 . S
H558 N546 0.984 . S
H559 N546 0.985 . S
C560 C561 1.363 . S
C560 C566 1.379 . S
C560 N568 1.356 . S
C561 C560 1.363 . S
C561 C567 1.363 . S
C562 C563 1.363 . S
C562 C567 1.379 . S
C562 N569 1.356 . S
C563 C562 1.363 . S
C563 C566 1.363 . S
N564 C566 1.356 . S
N564 H576 0.984 . S
N564 H577 0.985 . S
N565 C567 1.356 . S
N565 H570 0.984 . S
N565 H571 0.985 . S
C566 C560 1.379 . S
C566 C563 1.363 . S
C566 N564 1.356 . S
C567 C561 1.363 . S
C567 C562 1.379 . S
C567 N565 1.356 . S
N568 C560 1.356 . S
N568 H574 0.984 . S
N568 H575 0.984 . S
N569 C562 1.356 . S
N569 H572 0.984 . S
N569 H573 0.985 . S
H570 N565 0.984 . S
H571 N565 0.985 . S
H572 N569 0.984 . S
H573 N569 0.985 . S
H574 N568 0.984 . S
H575 N568 0.984 . S
H576 N564 0.984 . S
H577 N564 0.985 . S
C578 C579 1.363 . S
C578 C584 1.379 . S
C578 N586 1.356 . S
C579 C578 1.363 . S
C579 C585 1.363 . S
C580 C581 1.363 . S
C580 C585 1.379 . S
C580 N587 1.356 . S
C581 C580 1.363 . S
C581 C584 1.363 . S
N582 C584 1.356 . S
N582 H594 0.984 . S
N582 H595 0.985 . S
N583 C585 1.356 . S
N583 H588 0.984 . S
N583 H589 0.985 . S
C584 C578 1.379 . S
C584 C581 1.363 . S
C584 N582 1.356 . S
C585 C579 1.363 . S
C585 C580 1.379 . S
C585 N583 1.356 . S
N586 C578 1.356 . S
N586 H592 0.984 . S
N586 H593 0.984 . S
N587 C580 1.356 . S
N587 H590 0.984 . S
N587 H591 0.985 . S
H588 N583 0.984 . S
H589 N583 0.985 . S
H590 N587 0.984 . S
H591 N587 0.985 . S
H592 N586 0.984 . S
H593 N586 0.984 . S
H594 N582 0.984 . S
H595 N582 0.985 . S
C596 C597 1.363 . S
C596 C602 1.379 . S
C596 N604 1.356 . S
C597 C596 1.363 . S
C597 C603 1.363 . S
C598 C599 1.363 . S
C598 C603 1.379 . S
C598 N605 1.356 . S
C599 C598 1.363 . S
C599 C602 1.363 . S
N600 C602 1.356 . S
N600 H612 0.984 . S
N600 H613 0.985 . S
N601 C603 1.356 . S
N601 H606 0.984 . S
N601 H607 0.985 . S
C602 C596 1.379 . S
C602 C599 1.363 . S
C602 N600 1.356 . S
C603 C597 1.363 . S
C603 C598 1.379 . S
C603 N601 1.356 . S
N604 C596 1.356 . S
N604 H610 0.984 . S
N604 H611 0.984 . S
N605 C598 1.356 . S
N605 H608 0.984 . S
N605 H609 0.985 . S
H606 N601 0.984 . S
H607 N601 0.985 . S
H608 N605 0.984 . S
H609 N605 0.985 . S
H610 N604 0.984 . S
H611 N604 0.984 . S
H612 N600 0.984 . S
H613 N600 0.985 . S
C614 C615 1.363 . S
C614 C620 1.379 . S
C614 N622 1.356 . S
C615 C614 1.363 . S
C615 C621 1.363 . S
C616 C617 1.363 . S
C616 C621 1.379 . S
C616 N623 1.356 . S
C617 C616 1.363 . S
C617 C620 1.363 . S
N618 C620 1.356 . S
N618 H630 0.984 . S
N618 H631 0.985 . S
N619 C621 1.356 . S
N619 H624 0.984 . S
N619 H625 0.985 . S
C620 C614 1.379 . S
C620 C617 1.363 . S
C620 N618 1.356 . S
C621 C615 1.363 . S
C621 C616 1.379 . S
C621 N619 1.356 . S
N622 C614 1.356 . S
N622 H628 0.984 . S
N622 H629 0.984 . S
N623 C616 1.356 . S
N623 H626 0.984 . S
N623 H627 0.985 . S
H624 N619 0.984 . S
H625 N619 0.985 . S
H626 N623 0.984 . S
H627 N623 0.985 . S
H628 N622 0.984 . S
H629 N622 0.984 . S
H630 N618 0.984 . S
H631 N618 0.985 . S
C632 C633 1.363 . S
C632 C638 1.379 . S
C632 N640 1.356 . S
C633 C632 1.363 . S
C633 C639 1.363 . S
C634 C635 1.363 . S
C634 C639 1.379 . S
C634 N641 1.356 . S
C635 C634 1.363 . S
C635 C638 1.363 . S
N636 C638 1.356 . S
N636 H648 0.984 . S
N636 H649 0.985 . S
N637 C639 1.356 . S
N637 H642 0.984 . S
N637 H643 0.985 . S
C638 C632 1.379 . S
C638 C635 1.363 . S
C638 N636 1.356 . S
C639 C633 1.363 . S
C639 C634 1.379 . S
C639 N637 1.356 . S
N640 C632 1.356 . S
N640 H646 0.984 . S
N640 H647 0.984 . S
N641 C634 1.356 . S
N641 H644 0.984 . S
N641 H645 0.985 . S
H642 N637 0.984 . S
H643 N637 0.985 . S
H644 N641 0.984 . S
H645 N641 0.985 . S
H646 N640 0.984 . S
H647 N640 0.984 . S
H648 N636 0.984 . S
H649 N636 0.985 . S
C650 C651 1.363 . S
C650 C656 1.379 . S
C650 N658 1.356 . S
C651 C650 1.363 . S
C651 C657 1.363 . S
C652 C653 1.363 . S
C652 C657 1.379 . S
C652 N659 1.356 . S
C653 C652 1.363 . S
C653 C656 1.363 . S
N654 C656 1.356 . S
N654 H666 0.984 . S
N654 H667 0.985 . S
N655 C657 1.356 . S
N655 H660 0.984 . S
N655 H661 0.985 . S
C656 C650 1.379 . S
C656 C653 1.363 . S
C656 N654 1.356 . S
C657 C651 1.363 . S
C657 C652 1.379 . S
C657 N655 1.356 . S
N658 C650 1.356 . S
N658 H664 0.984 . S
N658 H665 0.984 . S
N659 C652 1.356 . S
N659 H662 0.984 . S
N659 H663 0.985 1_545 S
H660 N655 0.984 . S
H661 N655 0.985 . S
H662 N659 0.984 . S
H663 N659 0.985 1_565 S
H664 N658 0.984 . S
H665 N658 0.984 . S
H666 N654 0.984 . S
H667 N654 0.985 . S
C668 C669 1.363 . S
C668 C674 1.379 . S
C668 N676 1.356 . S
C669 C668 1.363 . S
C669 C675 1.363 . S
C670 C671 1.363 . S
C670 C675 1.379 . S
C670 N677 1.356 . S
C671 C670 1.363 . S
C671 C674 1.363 . S
N672 C674 1.356 . S
N672 H684 0.984 . S
N672 H685 0.985 . S
N673 C675 1.356 . S
N673 H678 0.984 . S
N673 H679 0.985 . S
C674 C668 1.379 . S
C674 C671 1.363 . S
C674 N672 1.356 . S
C675 C669 1.363 . S
C675 C670 1.379 . S
C675 N673 1.356 . S
N676 C668 1.356 . S
N676 H682 0.984 . S
N676 H683 0.984 . S
N677 C670 1.356 . S
N677 H680 0.984 . S
N677 H681 0.985 . S
H678 N673 0.984 . S
H679 N673 0.985 . S
H680 N677 0.984 . S
H681 N677 0.985 . S
H682 N676 0.984 . S
H683 N676 0.984 . S
H684 N672 0.984 . S
H685 N672 0.985 . S
C686 C687 1.363 . S
C686 C692 1.379 . S
C686 N694 1.356 . S
C687 C686 1.363 . S
C687 C693 1.363 . S
C688 C689 1.363 . S
C688 C693 1.379 . S
C688 N695 1.356 . S
C689 C688 1.363 . S
C689 C692 1.363 . S
N690 C692 1.356 . S
N690 H702 0.984 . S
N690 H703 0.985 . S
N691 C693 1.356 . S
N691 H696 0.984 . S
N691 H697 0.985 . S
C692 C686 1.379 . S
C692 C689 1.363 . S
C692 N690 1.356 . S
C693 C687 1.363 . S
C693 C688 1.379 . S
C693 N691 1.356 . S
N694 C686 1.356 . S
N694 H700 0.984 . S
N694 H701 0.984 . S
N695 C688 1.356 . S
N695 H698 0.984 . S
N695 H699 0.985 . S
H696 N691 0.984 . S
H697 N691 0.985 . S
H698 N695 0.984 . S
H699 N695 0.985 . S
H700 N694 0.984 . S
H701 N694 0.984 . S
H702 N690 0.984 . S
H703 N690 0.985 . S
C704 C705 1.363 . S
C704 C710 1.379 . S
C704 N712 1.356 . S
C705 C704 1.363 . S
C705 C711 1.363 . S
C706 C707 1.363 . S
C706 C711 1.379 . S
C706 N713 1.356 . S
C707 C706 1.363 . S
C707 C710 1.363 . S
N708 C710 1.356 . S
N708 H720 0.984 . S
N708 H721 0.985 . S
N709 C711 1.356 . S
N709 H714 0.984 . S
N709 H715 0.985 . S
C710 C704 1.379 . S
C710 C707 1.363 . S
C710 N708 1.356 . S
C711 C705 1.363 . S
C711 C706 1.379 . S
C711 N709 1.356 . S
N712 C704 1.356 . S
N712 H718 0.984 . S
N712 H719 0.984 . S
N713 C706 1.356 . S
N713 H716 0.984 . S
N713 H717 0.985 . S
H714 N709 0.984 . S
H715 N709 0.985 . S
H716 N713 0.984 . S
H717 N713 0.985 . S
H718 N712 0.984 . S
H719 N712 0.984 . S
H720 N708 0.984 . S
H721 N708 0.985 . S
C722 C723 1.363 . S
C722 C728 1.379 . S
C722 N730 1.356 . S
C723 C722 1.363 . S
C723 C729 1.363 . S
C724 C725 1.363 . S
C724 C729 1.379 . S
C724 N731 1.356 . S
C725 C724 1.363 . S
C725 C728 1.363 . S
N726 C728 1.356 . S
N726 H738 0.984 . S
N726 H739 0.985 . S
N727 C729 1.356 . S
N727 H732 0.984 . S
N727 H733 0.985 . S
C728 C722 1.379 . S
C728 C725 1.363 . S
C728 N726 1.356 . S
C729 C723 1.363 . S
C729 C724 1.379 . S
C729 N727 1.356 . S
N730 C722 1.356 . S
N730 H736 0.984 . S
N730 H737 0.984 . S
N731 C724 1.356 . S
N731 H734 0.984 . S
N731 H735 0.985 . S
H732 N727 0.984 . S
H733 N727 0.985 . S
H734 N731 0.984 . S
H735 N731 0.985 . S
H736 N730 0.984 . S
H737 N730 0.984 . S
H738 N726 0.984 . S
H739 N726 0.985 . S
C740 C741 1.363 . S
C740 C746 1.379 . S
C740 N748 1.356 . S
C741 C740 1.363 . S
C741 C747 1.363 . S
C742 C743 1.363 . S
C742 C747 1.379 . S
C742 N749 1.356 . S
C743 C742 1.363 . S
C743 C746 1.363 . S
N744 C746 1.356 . S
N744 H756 0.984 . S
N744 H757 0.985 . S
N745 C747 1.356 . S
N745 H750 0.984 . S
N745 H751 0.985 . S
C746 C740 1.379 . S
C746 C743 1.363 . S
C746 N744 1.356 . S
C747 C741 1.363 . S
C747 C742 1.379 . S
C747 N745 1.356 . S
N748 C740 1.356 . S
N748 H754 0.984 . S
N748 H755 0.984 . S
N749 C742 1.356 . S
N749 H752 0.984 . S
N749 H753 0.985 . S
H750 N745 0.984 . S
H751 N745 0.985 . S
H752 N749 0.984 . S
H753 N749 0.985 . S
H754 N748 0.984 . S
H755 N748 0.984 . S
H756 N744 0.984 . S
H757 N744 0.985 . S
C758 C759 1.363 . S
C758 C764 1.379 . S
C758 N766 1.356 . S
C759 C758 1.363 . S
C759 C765 1.363 . S
C760 C761 1.363 . S
C760 C765 1.379 . S
C760 N767 1.356 . S
C761 C760 1.363 . S
C761 C764 1.363 . S
N762 C764 1.356 . S
N762 H774 0.984 . S
N762 H775 0.985 . S
N763 C765 1.356 . S
N763 H768 0.984 . S
N763 H769 0.985 . S
C764 C758 1.379 . S
C764 C761 1.363 . S
C764 N762 1.356 . S
C765 C759 1.363 . S
C765 C760 1.379 . S
C765 N763 1.356 . S
N766 C758 1.356 . S
N766 H772 0.984 . S
N766 H773 0.984 . S
N767 C760 1.356 . S
N767 H770 0.984 . S
N767 H771 0.985 . S
H768 N763 0.984 . S
H769 N763 0.985 . S
H770 N767 0.984 . S
H771 N767 0.985 . S
H772 N766 0.984 . S
H773 N766 0.984 . S
H774 N762 0.984 . S
H775 N762 0.985 . S
C776 C777 1.363 . S
C776 C782 1.379 . S
C776 N784 1.356 . S
C777 C776 1.363 . S
C777 C783 1.363 . S
C778 C779 1.363 . S
C778 C783 1.379 . S
C778 N785 1.356 . S
C779 C778 1.363 . S
C779 C782 1.363 . S
N780 C782 1.356 . S
N780 H792 0.984 . S
N780 H793 0.985 . S
N781 C783 1.356 . S
N781 H786 0.984 . S
N781 H787 0.985 . S
C782 C776 1.379 . S
C782 C779 1.363 . S
C782 N780 1.356 . S
C783 C777 1.363 . S
C783 C778 1.379 . S
C783 N781 1.356 . S
N784 C776 1.356 . S
N784 H790 0.984 . S
N784 H791 0.984 . S
N785 C778 1.356 . S
N785 H788 0.984 . S
N785 H789 0.985 . S
H786 N781 0.984 . S
H787 N781 0.985 . S
H788 N785 0.984 . S
H789 N785 0.985 . S
H790 N784 0.984 . S
H791 N784 0.984 . S
H792 N780 0.984 . S
H793 N780 0.985 . S
C794 C795 1.363 . S
C794 C800 1.379 . S
C794 N802 1.356 . S
C795 C794 1.363 . S
C795 C801 1.363 . S
C796 C797 1.363 . S
C796 C801 1.379 . S
C796 N803 1.356 . S
C797 C796 1.363 . S
C797 C800 1.363 . S
N798 C800 1.356 . S
N798 H810 0.984 . S
N798 H811 0.985 . S
N799 C801 1.356 . S
N799 H804 0.984 . S
N799 H805 0.985 . S
C800 C794 1.379 . S
C800 C797 1.363 . S
C800 N798 1.356 . S
C801 C795 1.363 . S
C801 C796 1.379 . S
C801 N799 1.356 . S
N802 C794 1.356 . S
N802 H808 0.984 . S
N802 H809 0.984 . S
N803 C796 1.356 . S
N803 H806 0.984 . S
N803 H807 0.985 . S
H804 N799 0.984 . S
H805 N799 0.985 . S
H806 N803 0.984 . S
H807 N803 0.985 . S
H808 N802 0.984 . S
H809 N802 0.984 . S
H810 N798 0.984 . S
H811 N798 0.985 . S
C812 C813 1.363 . S
C812 C818 1.379 . S
C812 N820 1.356 . S
C813 C812 1.363 . S
C813 C819 1.363 . S
C814 C815 1.363 . S
C814 C819 1.379 . S
C814 N821 1.356 . S
C815 C814 1.363 . S
C815 C818 1.363 . S
N816 C818 1.356 . S
N816 H828 0.984 . S
N816 H829 0.985 . S
N817 C819 1.356 . S
N817 H822 0.984 . S
N817 H823 0.985 . S
C818 C812 1.379 . S
C818 C815 1.363 . S
C818 N816 1.356 . S
C819 C813 1.363 . S
C819 C814 1.379 . S
C819 N817 1.356 . S
N820 C812 1.356 . S
N820 H826 0.984 . S
N820 H827 0.984 . S
N821 C814 1.356 . S
N821 H824 0.984 . S
N821 H825 0.985 . S
H822 N817 0.984 . S
H823 N817 0.985 . S
H824 N821 0.984 . S
H825 N821 0.985 . S
H826 N820 0.984 . S
H827 N820 0.984 . S
H828 N816 0.984 . S
H829 N816 0.985 . S
C830 C831 1.363 . S
C830 C836 1.379 . S
C830 N838 1.356 . S
C831 C830 1.363 . S
C831 C837 1.363 . S
C832 C833 1.363 . S
C832 C837 1.379 . S
C832 N839 1.356 . S
C833 C832 1.363 . S
C833 C836 1.363 . S
N834 C836 1.356 . S
N834 H846 0.984 . S
N834 H847 0.985 . S
N835 C837 1.356 . S
N835 H840 0.984 . S
N835 H841 0.985 . S
C836 C830 1.379 . S
C836 C833 1.363 . S
C836 N834 1.356 . S
C837 C831 1.363 . S
C837 C832 1.379 . S
C837 N835 1.356 . S
N838 C830 1.356 . S
N838 H844 0.984 . S
N838 H845 0.984 . S
N839 C832 1.356 . S
N839 H842 0.984 . S
N839 H843 0.985 . S
H840 N835 0.984 . S
H841 N835 0.985 . S
H842 N839 0.984 . S
H843 N839 0.985 . S
H844 N838 0.984 . S
H845 N838 0.984 . S
H846 N834 0.984 . S
H847 N834 0.985 . S
C848 C849 1.363 . S
C848 C854 1.379 . S
C848 N856 1.356 . S
C849 C848 1.363 . S
C849 C855 1.363 . S
C850 C851 1.363 . S
C850 C855 1.379 . S
C850 N857 1.356 . S
C851 C850 1.363 . S
C851 C854 1.363 . S
N852 C854 1.356 . S
N852 H864 0.984 . S
N852 H865 0.985 . S
N853 C855 1.356 . S
N853 H858 0.984 . S
N853 H859 0.985 . S
C854 C848 1.379 . S
C854 C851 1.363 . S
C854 N852 1.356 . S
C855 C849 1.363 . S
C855 C850 1.379 . S
C855 N853 1.356 . S
N856 C848 1.356 . S
N856 H862 0.984 . S
N856 H863 0.984 . S
N857 C850 1.356 . S
N857 H860 0.984 . S
N857 H861 0.985 . S
H858 N853 0.984 . S
H859 N853 0.985 . S
H860 N857 0.984 . S
H861 N857 0.985 . S
H862 N856 0.984 . S
H863 N856 0.984 . S
H864 N852 0.984 . S
H865 N852 0.985 . S
C866 C867 1.363 . S
C866 C872 1.379 . S
C866 N874 1.356 . S
C867 C866 1.363 . S
C867 C873 1.363 . S
C868 C869 1.363 . S
C868 C873 1.379 . S
C868 N875 1.356 . S
C869 C868 1.363 . S
C869 C872 1.363 . S
N870 C872 1.356 . S
N870 H882 0.984 . S
N870 H883 0.985 . S
N871 C873 1.356 . S
N871 H876 0.984 . S
N871 H877 0.985 . S
C872 C866 1.379 . S
C872 C869 1.363 . S
C872 N870 1.356 . S
C873 C867 1.363 . S
C873 C868 1.379 . S
C873 N871 1.356 . S
N874 C866 1.356 . S
N874 H880 0.984 . S
N874 H881 0.984 . S
N875 C868 1.356 . S
N875 H878 0.984 . S
N875 H879 0.985 . S
H876 N871 0.984 . S
H877 N871 0.985 . S
H878 N875 0.984 . S
H879 N875 0.985 . S
H880 N874 0.984 . S
H881 N874 0.984 . S
H882 N870 0.984 . S
H883 N870 0.985 . S
C884 C885 1.363 . S
C884 C890 1.379 . S
C884 N892 1.356 . S
C885 C884 1.363 . S
C885 C891 1.363 . S
C886 C887 1.363 . S
C886 C891 1.379 . S
C886 N893 1.356 . S
C887 C886 1.363 . S
C887 C890 1.363 . S
N888 C890 1.356 . S
N888 H900 0.984 . S
N888 H901 0.985 . S
N889 C891 1.356 . S
N889 H894 0.984 . S
N889 H895 0.985 . S
C890 C884 1.379 . S
C890 C887 1.363 . S
C890 N888 1.356 . S
C891 C885 1.363 . S
C891 C886 1.379 . S
C891 N889 1.356 . S
N892 C884 1.356 . S
N892 H898 0.984 . S
N892 H899 0.984 . S
N893 C886 1.356 . S
N893 H896 0.984 . S
N893 H897 0.985 . S
H894 N889 0.984 . S
H895 N889 0.985 . S
H896 N893 0.984 . S
H897 N893 0.985 . S
H898 N892 0.984 . S
H899 N892 0.984 . S
H900 N888 0.984 . S
H901 N888 0.985 . S
C902 C903 1.363 . S
C902 C908 1.379 . S
C902 N910 1.356 . S
C903 C902 1.363 . S
C903 C909 1.363 . S
C904 C905 1.363 . S
C904 C909 1.379 . S
C904 N911 1.356 . S
C905 C904 1.363 . S
C905 C908 1.363 . S
N906 C908 1.356 . S
N906 H918 0.984 . S
N906 H919 0.985 . S
N907 C909 1.356 . S
N907 H912 0.984 . S
N907 H913 0.985 . S
C908 C902 1.379 . S
C908 C905 1.363 . S
C908 N906 1.356 . S
C909 C903 1.363 . S
C909 C904 1.379 . S
C909 N907 1.356 . S
N910 C902 1.356 . S
N910 H916 0.984 . S
N910 H917 0.984 . S
N911 C904 1.356 . S
N911 H914 0.984 . S
N911 H915 0.985 . S
H912 N907 0.984 . S
H913 N907 0.985 . S
H914 N911 0.984 . S
H915 N911 0.985 . S
H916 N910 0.984 . S
H917 N910 0.984 . S
H918 N906 0.984 . S
H919 N906 0.985 . S
C920 C921 1.363 . S
C920 C926 1.379 . S
C920 N928 1.356 . S
C921 C920 1.363 . S
C921 C927 1.363 . S
C922 C923 1.363 . S
C922 C927 1.379 . S
C922 N929 1.356 . S
C923 C922 1.363 . S
C923 C926 1.363 . S
N924 C926 1.356 . S
N924 H936 0.984 . S
N924 H937 0.985 . S
N925 C927 1.356 . S
N925 H930 0.984 . S
N925 H931 0.985 . S
C926 C920 1.379 . S
C926 C923 1.363 . S
C926 N924 1.356 . S
C927 C921 1.363 . S
C927 C922 1.379 . S
C927 N925 1.356 . S
N928 C920 1.356 . S
N928 H934 0.984 . S
N928 H935 0.984 . S
N929 C922 1.356 . S
N929 H932 0.984 . S
N929 H933 0.985 . S
H930 N925 0.984 . S
H931 N925 0.985 . S
H932 N929 0.984 . S
H933 N929 0.985 . S
H934 N928 0.984 . S
H935 N928 0.984 . S
H936 N924 0.984 . S
H937 N924 0.985 . S
C938 C939 1.363 . S
C938 C944 1.379 . S
C938 N946 1.356 . S
C939 C938 1.363 . S
C939 C945 1.363 . S
C940 C941 1.363 . S
C940 C945 1.379 . S
C940 N947 1.356 . S
C941 C940 1.363 . S
C941 C944 1.363 . S
N942 C944 1.356 . S
N942 H954 0.984 . S
N942 H955 0.985 . S
N943 C945 1.356 . S
N943 H948 0.984 . S
N943 H949 0.985 . S
C944 C938 1.379 . S
C944 C941 1.363 . S
C944 N942 1.356 . S
C945 C939 1.363 . S
C945 C940 1.379 . S
C945 N943 1.356 . S
N946 C938 1.356 . S
N946 H952 0.984 . S
N946 H953 0.984 . S
N947 C940 1.356 . S
N947 H950 0.984 . S
N947 H951 0.985 . S
H948 N943 0.984 . S
H949 N943 0.985 . S
H950 N947 0.984 . S
H951 N947 0.985 . S
H952 N946 0.984 . S
H953 N946 0.984 . S
H954 N942 0.984 . S
H955 N942 0.985 . S
C956 C957 1.363 . S
C956 C962 1.379 . S
C956 N964 1.356 . S
C957 C956 1.363 . S
C957 C963 1.363 . S
C958 C959 1.363 . S
C958 C963 1.379 . S
C958 N965 1.356 . S
C959 C958 1.363 . S
C959 C962 1.363 . S
N960 C962 1.356 . S
N960 H972 0.984 . S
N960 H973 0.985 . S
N961 C963 1.356 . S
N961 H966 0.984 . S
N961 H967 0.985 . S
C962 C956 1.379 . S
C962 C959 1.363 . S
C962 N960 1.356 . S
C963 C957 1.363 . S
C963 C958 1.379 . S
C963 N961 1.356 . S
N964 C956 1.356 . S
N964 H970 0.984 . S
N964 H971 0.984 . S
N965 C958 1.356 . S
N965 H968 0.984 . S
N965 H969 0.985 . S
H966 N961 0.984 . S
H967 N961 0.985 . S
H968 N965 0.984 . S
H969 N965 0.985 . S
H970 N964 0.984 . S
H971 N964 0.984 . S
H972 N960 0.984 . S
H973 N960 0.985 . S
C974 C975 1.363 . S
C974 C980 1.379 . S
C974 N982 1.356 . S
C975 C974 1.363 . S
C975 C981 1.363 . S
C976 C977 1.363 . S
C976 C981 1.379 . S
C976 N983 1.356 . S
C977 C976 1.363 . S
C977 C980 1.363 . S
N978 C980 1.356 . S
N978 H990 0.984 . S
N978 H991 0.985 . S
N979 C981 1.356 . S
N979 H984 0.984 . S
N979 H985 0.985 . S
C980 C974 1.379 . S
C980 C977 1.363 . S
C980 N978 1.356 . S
C981 C975 1.363 . S
C981 C976 1.379 . S
C981 N979 1.356 . S
N982 C974 1.356 . S
N982 H988 0.984 . S
N982 H989 0.984 . S
N983 C976 1.356 . S
N983 H986 0.984 . S
N983 H987 0.985 . S
H984 N979 0.984 . S
H985 N979 0.985 . S
H986 N983 0.984 . S
H987 N983 0.985 . S
H988 N982 0.984 . S
H989 N982 0.984 . S
H990 N978 0.984 . S
H991 N978 0.985 . S
C992 C993 1.363 . S
C992 C998 1.379 . S
C992 N1000 1.356 . S
C993 C992 1.363 . S
C993 C999 1.363 . S
C994 C995 1.363 . S
C994 C999 1.379 . S
C994 N1001 1.356 . S
C995 C994 1.363 . S
C995 C998 1.363 . S
N996 C998 1.356 . S
N996 H1008 0.984 . S
N996 H1009 0.985 . S
N997 C999 1.356 . S
N997 H1002 0.984 . S
N997 H1003 0.985 . S
C998 C992 1.379 . S
C998 C995 1.363 . S
C998 N996 1.356 . S
C999 C993 1.363 . S
C999 C994 1.379 . S
C999 N997 1.356 . S
N1000 C992 1.356 . S
N1000 H1006 0.984 . S
N1000 H1007 0.984 . S
N1001 C994 1.356 . S
N1001 H1004 0.984 . S
N1001 H1005 0.985 . S
H1002 N997 0.984 . S
H1003 N997 0.985 . S
H1004 N1001 0.984 . S
H1005 N1001 0.985 . S
H1006 N1000 0.984 . S
H1007 N1000 0.984 . S
H1008 N996 0.984 . S
H1009 N996 0.985 . S
C1010 C1011 1.363 1_645 S
C1010 C1016 1.379 . S
C1010 N1018 1.356 . S
C1011 C1010 1.363 1_465 S
C1011 C1017 1.363 . S
C1012 C1013 1.363 1_465 S
C1012 C1017 1.379 . S
C1012 N1019 1.356 . S
C1013 C1012 1.363 1_645 S
C1013 C1016 1.363 . S
N1014 C1016 1.356 . S
N1014 H1026 0.984 . S
N1014 H1027 0.985 . S
N1015 C1017 1.356 . S
N1015 H1020 0.984 . S
N1015 H1021 0.985 . S
C1016 C1010 1.379 . S
C1016 C1013 1.363 . S
C1016 N1014 1.356 . S
C1017 C1011 1.363 . S
C1017 C1012 1.379 . S
C1017 N1015 1.356 . S
N1018 C1010 1.356 . S
N1018 H1024 0.984 . S
N1018 H1025 0.984 1_655 S
N1019 C1012 1.356 . S
N1019 H1022 0.984 1_455 S
N1019 H1023 0.985 . S
H1020 N1015 0.984 . S
H1021 N1015 0.985 . S
H1022 N1019 0.984 1_655 S
H1023 N1019 0.985 . S
H1024 N1018 0.984 . S
H1025 N1018 0.984 1_455 S
H1026 N1014 0.984 . S
H1027 N1014 0.985 . S
C1028 C1029 1.363 . S
C1028 C1034 1.379 . S
C1028 N1036 1.356 . S
C1029 C1028 1.363 . S
C1029 C1035 1.363 . S
C1030 C1031 1.363 . S
C1030 C1035 1.379 . S
C1030 N1037 1.356 . S
C1031 C1030 1.363 . S
C1031 C1034 1.363 . S
N1032 C1034 1.356 . S
N1032 H1044 0.984 . S
N1032 H1045 0.985 . S
N1033 C1035 1.356 . S
N1033 H1038 0.984 . S
N1033 H1039 0.985 . S
C1034 C1028 1.379 . S
C1034 C1031 1.363 . S
C1034 N1032 1.356 . S
C1035 C1029 1.363 . S
C1035 C1030 1.379 . S
C1035 N1033 1.356 . S
N1036 C1028 1.356 . S
N1036 H1042 0.984 . S
N1036 H1043 0.984 . S
N1037 C1030 1.356 . S
N1037 H1040 0.984 . S
N1037 H1041 0.985 . S
H1038 N1033 0.984 . S
H1039 N1033 0.985 . S
H1040 N1037 0.984 . S
H1041 N1037 0.985 . S
H1042 N1036 0.984 . S
H1043 N1036 0.984 . S
H1044 N1032 0.984 . S
H1045 N1032 0.985 . S
C1046 C1047 1.363 1_565 S
C1046 C1052 1.379 1_554 S
C1046 N1054 1.356 . S
C1047 C1046 1.363 1_545 S
C1047 C1053 1.363 . S
C1048 C1049 1.363 1_545 S
C1048 C1053 1.379 1_556 S
C1048 N1055 1.356 . S
C1049 C1048 1.363 1_565 S
C1049 C1052 1.363 . S
N1050 C1052 1.356 . S
N1050 H1062 0.984 . S
N1050 H1063 0.985 . S
N1051 C1053 1.356 . S
N1051 H1056 0.984 . S
N1051 H1057 0.985 . S
C1052 C1046 1.379 1_556 S
C1052 C1049 1.363 . S
C1052 N1050 1.356 . S
C1053 C1047 1.363 . S
C1053 C1048 1.379 1_554 S
C1053 N1051 1.356 . S
N1054 C1046 1.356 . S
N1054 H1060 0.984 . S
N1054 H1061 0.984 . S
N1055 C1048 1.356 . S
N1055 H1058 0.984 . S
N1055 H1059 0.985 . S
H1056 N1051 0.984 . S
H1057 N1051 0.985 . S
H1058 N1055 0.984 . S
H1059 N1055 0.985 . S
H1060 N1054 0.984 . S
H1061 N1054 0.984 . S
H1062 N1050 0.984 . S
H1063 N1050 0.985 . S
C1064 C1065 1.363 . S
C1064 C1070 1.379 . S
C1064 N1072 1.356 . S
C1065 C1064 1.363 . S
C1065 C1071 1.363 . S
C1066 C1067 1.363 . S
C1066 C1071 1.379 . S
C1066 N1073 1.356 . S
C1067 C1066 1.363 . S
C1067 C1070 1.363 . S
N1068 C1070 1.356 . S
N1068 H1080 0.984 . S
N1068 H1081 0.985 . S
N1069 C1071 1.356 . S
N1069 H1074 0.984 . S
N1069 H1075 0.985 . S
C1070 C1064 1.379 . S
C1070 C1067 1.363 . S
C1070 N1068 1.356 . S
C1071 C1065 1.363 . S
C1071 C1066 1.379 . S
C1071 N1069 1.356 . S
N1072 C1064 1.356 . S
N1072 H1078 0.984 . S
N1072 H1079 0.984 . S
N1073 C1066 1.356 . S
N1073 H1076 0.984 . S
N1073 H1077 0.985 . S
H1074 N1069 0.984 . S
H1075 N1069 0.985 . S
H1076 N1073 0.984 . S
H1077 N1073 0.985 . S
H1078 N1072 0.984 . S
H1079 N1072 0.984 . S
H1080 N1068 0.984 . S
H1081 N1068 0.985 . S
C1082 C1083 1.363 . S
C1082 C1088 1.379 . S
C1082 N1090 1.356 . S
C1083 C1082 1.363 . S
C1083 C1089 1.363 1_565 S
C1084 C1085 1.363 . S
C1084 C1089 1.379 . S
C1084 N1091 1.356 . S
C1085 C1084 1.363 . S
C1085 C1088 1.363 1_545 S
N1086 C1088 1.356 . S
N1086 H1098 0.984 . S
N1086 H1099 0.985 . S
N1087 C1089 1.356 . S
N1087 H1092 0.984 . S
N1087 H1093 0.985 . S
C1088 C1082 1.379 . S
C1088 C1085 1.363 1_565 S
C1088 N1086 1.356 . S
C1089 C1083 1.363 1_545 S
C1089 C1084 1.379 . S
C1089 N1087 1.356 . S
N1090 C1082 1.356 . S
N1090 H1096 0.984 . S
N1090 H1097 0.984 . S
N1091 C1084 1.356 . S
N1091 H1094 0.984 . S
N1091 H1095 0.985 . S
H1092 N1087 0.984 . S
H1093 N1087 0.985 . S
H1094 N1091 0.984 . S
H1095 N1091 0.985 . S
H1096 N1090 0.984 . S
H1097 N1090 0.984 . S
H1098 N1086 0.984 . S
H1099 N1086 0.985 . S
C1100 C1101 1.363 . S
C1100 C1106 1.379 . S
C1100 N1108 1.356 . S
C1101 C1100 1.363 . S
C1101 C1107 1.363 . S
C1102 C1103 1.363 . S
C1102 C1107 1.379 . S
C1102 N1109 1.356 . S
C1103 C1102 1.363 . S
C1103 C1106 1.363 . S
N1104 C1106 1.356 . S
N1104 H1116 0.984 . S
N1104 H1117 0.985 . S
N1105 C1107 1.356 . S
N1105 H1110 0.984 . S
N1105 H1111 0.985 . S
C1106 C1100 1.379 . S
C1106 C1103 1.363 . S
C1106 N1104 1.356 . S
C1107 C1101 1.363 . S
C1107 C1102 1.379 . S
C1107 N1105 1.356 . S
N1108 C1100 1.356 . S
N1108 H1114 0.984 . S
N1108 H1115 0.984 . S
N1109 C1102 1.356 . S
N1109 H1112 0.984 . S
N1109 H1113 0.985 . S
H1110 N1105 0.984 . S
H1111 N1105 0.985 . S
H1112 N1109 0.984 . S
H1113 N1109 0.985 . S
H1114 N1108 0.984 . S
H1115 N1108 0.984 . S
H1116 N1104 0.984 . S
H1117 N1104 0.985 . S
C1118 C1119 1.363 1_665 S
C1118 C1124 1.379 1_556 S
C1118 N1126 1.356 . S
C1119 C1118 1.363 1_445 S
C1119 C1125 1.363 . S
C1120 C1121 1.363 1_445 S
C1120 C1125 1.379 1_554 S
C1120 N1127 1.356 . S
C1121 C1120 1.363 1_665 S
C1121 C1124 1.363 . S
N1122 C1124 1.356 . S
N1122 H1134 0.984 . S
N1122 H1135 0.985 . S
N1123 C1125 1.356 . S
N1123 H1128 0.984 . S
N1123 H1129 0.985 . S
C1124 C1118 1.379 1_554 S
C1124 C1121 1.363 . S
C1124 N1122 1.356 . S
C1125 C1119 1.363 . S
C1125 C1120 1.379 1_556 S
C1125 N1123 1.356 . S
N1126 C1118 1.356 . S
N1126 H1132 0.984 . S
N1126 H1133 0.984 . S
N1127 C1120 1.356 . S
N1127 H1130 0.984 . S
N1127 H1131 0.985 . S
H1128 N1123 0.984 . S
H1129 N1123 0.985 . S
H1130 N1127 0.984 . S
H1131 N1127 0.985 . S
H1132 N1126 0.984 . S
H1133 N1126 0.984 . S
H1134 N1122 0.984 . S
H1135 N1122 0.985 . S
C1136 C1137 1.363 . S
C1136 C1142 1.379 . S
C1136 N1144 1.356 . S
C1137 C1136 1.363 . S
C1137 C1143 1.363 . S
C1138 C1139 1.363 . S
C1138 C1143 1.379 . S
C1138 N1145 1.356 . S
C1139 C1138 1.363 . S
C1139 C1142 1.363 . S
N1140 C1142 1.356 . S
N1140 H1152 0.984 . S
N1140 H1153 0.985 . S
N1141 C1143 1.356 . S
N1141 H1146 0.984 . S
N1141 H1147 0.985 . S
C1142 C1136 1.379 . S
C1142 C1139 1.363 . S
C1142 N1140 1.356 . S
C1143 C1137 1.363 . S
C1143 C1138 1.379 . S
C1143 N1141 1.356 . S
N1144 C1136 1.356 . S
N1144 H1150 0.984 . S
N1144 H1151 0.984 . S
N1145 C1138 1.356 . S
N1145 H1148 0.984 . S
N1145 H1149 0.985 . S
H1146 N1141 0.984 . S
H1147 N1141 0.985 . S
H1148 N1145 0.984 . S
H1149 N1145 0.985 . S
H1150 N1144 0.984 . S
H1151 N1144 0.984 . S
H1152 N1140 0.984 . S
H1153 N1140 0.985 . S
C1154 C1155 1.363 . S
C1154 C1160 1.379 . S
C1154 N1162 1.356 . S
C1155 C1154 1.363 . S
C1155 C1161 1.363 . S
C1156 C1157 1.363 . S
C1156 C1161 1.379 . S
C1156 N1163 1.356 . S
C1157 C1156 1.363 . S
C1157 C1160 1.363 . S
N1158 C1160 1.356 . S
N1158 H1170 0.984 . S
N1158 H1171 0.985 . S
N1159 C1161 1.356 . S
N1159 H1164 0.984 . S
N1159 H1165 0.985 . S
C1160 C1154 1.379 . S
C1160 C1157 1.363 . S
C1160 N1158 1.356 . S
C1161 C1155 1.363 . S
C1161 C1156 1.379 . S
C1161 N1159 1.356 . S
N1162 C1154 1.356 . S
N1162 H1168 0.984 . S
N1162 H1169 0.984 . S
N1163 C1156 1.356 . S
N1163 H1166 0.984 . S
N1163 H1167 0.985 . S
H1164 N1159 0.984 . S
H1165 N1159 0.985 . S
H1166 N1163 0.984 . S
H1167 N1163 0.985 . S
H1168 N1162 0.984 . S
H1169 N1162 0.984 . S
H1170 N1158 0.984 . S
H1171 N1158 0.985 . S
C1172 C1173 1.363 . S
C1172 C1178 1.379 . S
C1172 N1180 1.356 . S
C1173 C1172 1.363 . S
C1173 C1179 1.363 . S
C1174 C1175 1.363 . S
C1174 C1179 1.379 . S
C1174 N1181 1.356 . S
C1175 C1174 1.363 . S
C1175 C1178 1.363 . S
N1176 C1178 1.356 . S
N1176 H1188 0.984 . S
N1176 H1189 0.985 . S
N1177 C1179 1.356 . S
N1177 H1182 0.984 . S
N1177 H1183 0.985 . S
C1178 C1172 1.379 . S
C1178 C1175 1.363 . S
C1178 N1176 1.356 . S
C1179 C1173 1.363 . S
C1179 C1174 1.379 . S
C1179 N1177 1.356 . S
N1180 C1172 1.356 . S
N1180 H1186 0.984 . S
N1180 H1187 0.984 . S
N1181 C1174 1.356 . S
N1181 H1184 0.984 . S
N1181 H1185 0.985 . S
H1182 N1177 0.984 . S
H1183 N1177 0.985 . S
H1184 N1181 0.984 . S
H1185 N1181 0.985 . S
H1186 N1180 0.984 . S
H1187 N1180 0.984 . S
H1188 N1176 0.984 . S
H1189 N1176 0.985 . S
C1190 C1191 1.363 . S
C1190 C1196 1.379 . S
C1190 N1198 1.356 . S
C1191 C1190 1.363 . S
C1191 C1197 1.363 . S
C1192 C1193 1.363 . S
C1192 C1197 1.379 . S
C1192 N1199 1.356 . S
C1193 C1192 1.363 . S
C1193 C1196 1.363 . S
N1194 C1196 1.356 . S
N1194 H1206 0.984 . S
N1194 H1207 0.985 . S
N1195 C1197 1.356 . S
N1195 H1200 0.984 . S
N1195 H1201 0.985 . S
C1196 C1190 1.379 . S
C1196 C1193 1.363 . S
C1196 N1194 1.356 . S
C1197 C1191 1.363 . S
C1197 C1192 1.379 . S
C1197 N1195 1.356 . S
N1198 C1190 1.356 . S
N1198 H1204 0.984 . S
N1198 H1205 0.984 . S
N1199 C1192 1.356 . S
N1199 H1202 0.984 . S
N1199 H1203 0.985 . S
H1200 N1195 0.984 . S
H1201 N1195 0.985 . S
H1202 N1199 0.984 . S
H1203 N1199 0.985 . S
H1204 N1198 0.984 . S
H1205 N1198 0.984 . S
H1206 N1194 0.984 . S
H1207 N1194 0.985 . S
C1208 C1209 1.363 . S
C1208 C1214 1.379 1_554 S
C1208 N1216 1.356 . S
C1209 C1208 1.363 . S
C1209 C1215 1.363 . S
C1210 C1211 1.363 . S
C1210 C1215 1.379 1_556 S
C1210 N1217 1.356 . S
C1211 C1210 1.363 . S
C1211 C1214 1.363 . S
N1212 C1214 1.356 . S
N1212 H1224 0.984 . S
N1212 H1225 0.985 . S
N1213 C1215 1.356 . S
N1213 H1218 0.984 . S
N1213 H1219 0.985 . S
C1214 C1208 1.379 1_556 S
C1214 C1211 1.363 . S
C1214 N1212 1.356 . S
C1215 C1209 1.363 . S
C1215 C1210 1.379 1_554 S
C1215 N1213 1.356 . S
N1216 C1208 1.356 . S
N1216 H1222 0.984 . S
N1216 H1223 0.984 . S
N1217 C1210 1.356 . S
N1217 H1220 0.984 . S
N1217 H1221 0.985 . S
H1218 N1213 0.984 . S
H1219 N1213 0.985 . S
H1220 N1217 0.984 . S
H1221 N1217 0.985 . S
H1222 N1216 0.984 . S
H1223 N1216 0.984 . S
H1224 N1212 0.984 . S
H1225 N1212 0.985 . S
C1226 C1227 1.363 1_655 S
C1226 C1232 1.379 . S
C1226 N1234 1.356 . S
C1227 C1226 1.363 1_455 S
C1227 C1233 1.363 . S
C1228 C1229 1.363 1_455 S
C1228 C1233 1.379 . S
C1228 N1235 1.356 . S
C1229 C1228 1.363 1_655 S
C1229 C1232 1.363 . S
N1230 C1232 1.356 . S
N1230 H1242 0.984 . S
N1230 H1243 0.985 . S
N1231 C1233 1.356 . S
N1231 H1236 0.984 . S
N1231 H1237 0.985 . S
C1232 C1226 1.379 . S
C1232 C1229 1.363 . S
C1232 N1230 1.356 . S
C1233 C1227 1.363 . S
C1233 C1228 1.379 . S
C1233 N1231 1.356 . S
N1234 C1226 1.356 . S
N1234 H1240 0.984 . S
N1234 H1241 0.984 . S
N1235 C1228 1.356 . S
N1235 H1238 0.984 . S
N1235 H1239 0.985 . S
H1236 N1231 0.984 . S
H1237 N1231 0.985 . S
H1238 N1235 0.984 . S
H1239 N1235 0.985 . S
H1240 N1234 0.984 . S
H1241 N1234 0.984 . S
H1242 N1230 0.984 . S
H1243 N1230 0.985 . S
C1244 C1245 1.363 1_655 S
C1244 C1250 1.379 1_554 S
C1244 N1252 1.356 . S
C1245 C1244 1.363 1_455 S
C1245 C1251 1.363 . S
C1246 C1247 1.363 1_455 S
C1246 C1251 1.379 1_556 S
C1246 N1253 1.356 . S
C1247 C1246 1.363 1_655 S
C1247 C1250 1.363 . S
N1248 C1250 1.356 . S
N1248 H1260 0.984 . S
N1248 H1261 0.985 . S
N1249 C1251 1.356 . S
N1249 H1254 0.984 . S
N1249 H1255 0.985 . S
C1250 C1244 1.379 1_556 S
C1250 C1247 1.363 . S
C1250 N1248 1.356 . S
C1251 C1245 1.363 . S
C1251 C1246 1.379 1_554 S
C1251 N1249 1.356 . S
N1252 C1244 1.356 . S
N1252 H1258 0.984 . S
N1252 H1259 0.984 . S
N1253 C1246 1.356 . S
N1253 H1256 0.984 . S
N1253 H1257 0.985 . S
H1254 N1249 0.984 . S
H1255 N1249 0.985 . S
H1256 N1253 0.984 . S
H1257 N1253 0.985 . S
H1258 N1252 0.984 . S
H1259 N1252 0.984 . S
H1260 N1248 0.984 . S
H1261 N1248 0.985 . S
C1262 C1263 1.363 . S
C1262 C1268 1.379 . S
C1262 N1270 1.356 . S
C1263 C1262 1.363 . S
C1263 C1269 1.363 . S
C1264 C1265 1.363 . S
C1264 C1269 1.379 . S
C1264 N1271 1.356 . S
C1265 C1264 1.363 . S
C1265 C1268 1.363 . S
N1266 C1268 1.356 . S
N1266 H1278 0.984 . S
N1266 H1279 0.985 . S
N1267 C1269 1.356 . S
N1267 H1272 0.984 . S
N1267 H1273 0.985 . S
C1268 C1262 1.379 . S
C1268 C1265 1.363 . S
C1268 N1266 1.356 . S
C1269 C1263 1.363 . S
C1269 C1264 1.379 . S
C1269 N1267 1.356 . S
N1270 C1262 1.356 . S
N1270 H1276 0.984 . S
N1270 H1277 0.984 . S
N1271 C1264 1.356 . S
N1271 H1274 0.984 . S
N1271 H1275 0.985 . S
H1272 N1267 0.984 . S
H1273 N1267 0.985 . S
H1274 N1271 0.984 . S
H1275 N1271 0.985 . S
H1276 N1270 0.984 . S
H1277 N1270 0.984 . S
H1278 N1266 0.984 . S
H1279 N1266 0.985 . S
C1280 C1281 1.363 . S
C1280 C1286 1.379 . S
C1280 N1288 1.356 . S
C1281 C1280 1.363 . S
C1281 C1287 1.363 . S
C1282 C1283 1.363 . S
C1282 C1287 1.379 . S
C1282 N1289 1.356 . S
C1283 C1282 1.363 . S
C1283 C1286 1.363 . S
N1284 C1286 1.356 . S
N1284 H1296 0.984 . S
N1284 H1297 0.985 . S
N1285 C1287 1.356 . S
N1285 H1290 0.984 . S
N1285 H1291 0.985 . S
C1286 C1280 1.379 . S
C1286 C1283 1.363 . S
C1286 N1284 1.356 . S
C1287 C1281 1.363 . S
C1287 C1282 1.379 . S
C1287 N1285 1.356 . S
N1288 C1280 1.356 . S
N1288 H1294 0.984 . S
N1288 H1295 0.984 . S
N1289 C1282 1.356 . S
N1289 H1292 0.984 . S
N1289 H1293 0.985 . S
H1290 N1285 0.984 . S
H1291 N1285 0.985 . S
H1292 N1289 0.984 . S
H1293 N1289 0.985 . S
H1294 N1288 0.984 . S
H1295 N1288 0.984 . S
H1296 N1284 0.984 . S
H1297 N1284 0.985 . S
C1298 C1299 1.363 . S
C1298 C1304 1.379 . S
C1298 N1306 1.356 . S
C1299 C1298 1.363 . S
C1299 C1305 1.363 . S
C1300 C1301 1.363 . S
C1300 C1305 1.379 . S
C1300 N1307 1.356 . S
C1301 C1300 1.363 . S
C1301 C1304 1.363 . S
N1302 C1304 1.356 . S
N1302 H1314 0.984 . S
N1302 H1315 0.985 . S
N1303 C1305 1.356 . S
N1303 H1308 0.984 . S
N1303 H1309 0.985 . S
C1304 C1298 1.379 . S
C1304 C1301 1.363 . S
C1304 N1302 1.356 . S
C1305 C1299 1.363 . S
C1305 C1300 1.379 . S
C1305 N1303 1.356 . S
N1306 C1298 1.356 . S
N1306 H1312 0.984 . S
N1306 H1313 0.984 . S
N1307 C1300 1.356 . S
N1307 H1310 0.984 . S
N1307 H1311 0.985 . S
H1308 N1303 0.984 . S
H1309 N1303 0.985 . S
H1310 N1307 0.984 . S
H1311 N1307 0.985 . S
H1312 N1306 0.984 . S
H1313 N1306 0.984 . S
H1314 N1302 0.984 . S
H1315 N1302 0.985 . S
C1316 C1317 1.363 . S
C1316 C1322 1.379 . S
C1316 N1324 1.356 . S
C1317 C1316 1.363 . S
C1317 C1323 1.363 . S
C1318 C1319 1.363 . S
C1318 C1323 1.379 . S
C1318 N1325 1.356 . S
C1319 C1318 1.363 . S
C1319 C1322 1.363 . S
N1320 C1322 1.356 . S
N1320 H1332 0.984 . S
N1320 H1333 0.985 . S
N1321 C1323 1.356 . S
N1321 H1326 0.984 . S
N1321 H1327 0.985 . S
C1322 C1316 1.379 . S
C1322 C1319 1.363 . S
C1322 N1320 1.356 . S
C1323 C1317 1.363 . S
C1323 C1318 1.379 . S
C1323 N1321 1.356 . S
N1324 C1316 1.356 . S
N1324 H1330 0.984 . S
N1324 H1331 0.984 . S
N1325 C1318 1.356 . S
N1325 H1328 0.984 . S
N1325 H1329 0.985 . S
H1326 N1321 0.984 . S
H1327 N1321 0.985 . S
H1328 N1325 0.984 . S
H1329 N1325 0.985 . S
H1330 N1324 0.984 . S
H1331 N1324 0.984 . S
H1332 N1320 0.984 . S
H1333 N1320 0.985 . S
C1334 C1335 1.363 . S
C1334 C1340 1.379 . S
C1334 N1342 1.356 . S
C1335 C1334 1.363 . S
C1335 C1341 1.363 . S
C1336 C1337 1.363 . S
C1336 C1341 1.379 . S
C1336 N1343 1.356 . S
C1337 C1336 1.363 . S
C1337 C1340 1.363 . S
N1338 C1340 1.356 . S
N1338 H1350 0.984 . S
N1338 H1351 0.985 . S
N1339 C1341 1.356 . S
N1339 H1344 0.984 . S
N1339 H1345 0.985 . S
C1340 C1334 1.379 . S
C1340 C1337 1.363 . S
C1340 N1338 1.356 . S
C1341 C1335 1.363 . S
C1341 C1336 1.379 . S
C1341 N1339 1.356 . S
N1342 C1334 1.356 . S
N1342 H1348 0.984 . S
N1342 H1349 0.984 . S
N1343 C1336 1.356 . S
N1343 H1346 0.984 . S
N1343 H1347 0.985 . S
H1344 N1339 0.984 . S
H1345 N1339 0.985 . S
H1346 N1343 0.984 . S
H1347 N1343 0.985 . S
H1348 N1342 0.984 . S
H1349 N1342 0.984 . S
H1350 N1338 0.984 . S
H1351 N1338 0.985 . S
C1352 C1353 1.363 . S
C1352 C1358 1.379 . S
C1352 N1360 1.356 . S
C1353 C1352 1.363 . S
C1353 C1359 1.363 . S
C1354 C1355 1.363 . S
C1354 C1359 1.379 . S
C1354 N1361 1.356 . S
C1355 C1354 1.363 . S
C1355 C1358 1.363 . S
N1356 C1358 1.356 . S
N1356 H1368 0.984 . S
N1356 H1369 0.985 . S
N1357 C1359 1.356 . S
N1357 H1362 0.984 . S
N1357 H1363 0.985 . S
C1358 C1352 1.379 . S
C1358 C1355 1.363 . S
C1358 N1356 1.356 . S
C1359 C1353 1.363 . S
C1359 C1354 1.379 . S
C1359 N1357 1.356 . S
N1360 C1352 1.356 . S
N1360 H1366 0.984 . S
N1360 H1367 0.984 . S
N1361 C1354 1.356 . S
N1361 H1364 0.984 . S
N1361 H1365 0.985 . S
H1362 N1357 0.984 . S
H1363 N1357 0.985 . S
H1364 N1361 0.984 . S
H1365 N1361 0.985 . S
H1366 N1360 0.984 . S
H1367 N1360 0.984 . S
H1368 N1356 0.984 . S
H1369 N1356 0.985 . S
C1370 C1371 1.363 . S
C1370 C1376 1.379 . S
C1370 N1378 1.356 . S
C1371 C1370 1.363 . S
C1371 C1377 1.363 . S
C1372 C1373 1.363 . S
C1372 C1377 1.379 . S
C1372 N1379 1.356 . S
C1373 C1372 1.363 . S
C1373 C1376 1.363 . S
N1374 C1376 1.356 . S
N1374 H1386 0.984 . S
N1374 H1387 0.985 . S
N1375 C1377 1.356 . S
N1375 H1380 0.984 . S
N1375 H1381 0.985 . S
C1376 C1370 1.379 . S
C1376 C1373 1.363 . S
C1376 N1374 1.356 . S
C1377 C1371 1.363 . S
C1377 C1372 1.379 . S
C1377 N1375 1.356 . S
N1378 C1370 1.356 . S
N1378 H1384 0.984 . S
N1378 H1385 0.984 . S
N1379 C1372 1.356 . S
N1379 H1382 0.984 . S
N1379 H1383 0.985 . S
H1380 N1375 0.984 . S
H1381 N1375 0.985 . S
H1382 N1379 0.984 . S
H1383 N1379 0.985 . S
H1384 N1378 0.984 . S
H1385 N1378 0.984 . S
H1386 N1374 0.984 . S
H1387 N1374 0.985 . S
C1388 C1389 1.363 . S
C1388 C1394 1.379 . S
C1388 N1396 1.356 . S
C1389 C1388 1.363 . S
C1389 C1395 1.363 . S
C1390 C1391 1.363 . S
C1390 C1395 1.379 . S
C1390 N1397 1.356 . S
C1391 C1390 1.363 . S
C1391 C1394 1.363 . S
N1392 C1394 1.356 . S
N1392 H1404 0.984 . S
N1392 H1405 0.985 . S
N1393 C1395 1.356 . S
N1393 H1398 0.984 . S
N1393 H1399 0.985 . S
C1394 C1388 1.379 . S
C1394 C1391 1.363 . S
C1394 N1392 1.356 . S
C1395 C1389 1.363 . S
C1395 C1390 1.379 . S
C1395 N1393 1.356 . S
N1396 C1388 1.356 . S
N1396 H1402 0.984 . S
N1396 H1403 0.984 . S
N1397 C1390 1.356 . S
N1397 H1400 0.984 . S
N1397 H1401 0.985 . S
H1398 N1393 0.984 . S
H1399 N1393 0.985 . S
H1400 N1397 0.984 . S
H1401 N1397 0.985 . S
H1402 N1396 0.984 . S
H1403 N1396 0.984 . S
H1404 N1392 0.984 . S
H1405 N1392 0.985 . S
C1406 C1407 1.363 . S
C1406 C1412 1.379 . S
C1406 N1414 1.356 . S
C1407 C1406 1.363 . S
C1407 C1413 1.363 . S
C1408 C1409 1.363 . S
C1408 C1413 1.379 . S
C1408 N1415 1.356 . S
C1409 C1408 1.363 . S
C1409 C1412 1.363 . S
N1410 C1412 1.356 . S
N1410 H1422 0.984 . S
N1410 H1423 0.985 . S
N1411 C1413 1.356 . S
N1411 H1416 0.984 . S
N1411 H1417 0.985 . S
C1412 C1406 1.379 . S
C1412 C1409 1.363 . S
C1412 N1410 1.356 . S
C1413 C1407 1.363 . S
C1413 C1408 1.379 . S
C1413 N1411 1.356 . S
N1414 C1406 1.356 . S
N1414 H1420 0.984 . S
N1414 H1421 0.984 . S
N1415 C1408 1.356 . S
N1415 H1418 0.984 . S
N1415 H1419 0.985 . S
H1416 N1411 0.984 . S
H1417 N1411 0.985 . S
H1418 N1415 0.984 . S
H1419 N1415 0.985 . S
H1420 N1414 0.984 . S
H1421 N1414 0.984 . S
H1422 N1410 0.984 . S
H1423 N1410 0.985 . S
C1424 C1425 1.363 . S
C1424 C1430 1.379 . S
C1424 N1432 1.356 . S
C1425 C1424 1.363 . S
C1425 C1431 1.363 . S
C1426 C1427 1.363 . S
C1426 C1431 1.379 . S
C1426 N1433 1.356 . S
C1427 C1426 1.363 . S
C1427 C1430 1.363 . S
N1428 C1430 1.356 . S
N1428 H1440 0.984 . S
N1428 H1441 0.985 . S
N1429 C1431 1.356 . S
N1429 H1434 0.984 . S
N1429 H1435 0.985 . S
C1430 C1424 1.379 . S
C1430 C1427 1.363 . S
C1430 N1428 1.356 . S
C1431 C1425 1.363 . S
C1431 C1426 1.379 . S
C1431 N1429 1.356 . S
N1432 C1424 1.356 . S
N1432 H1438 0.984 . S
N1432 H1439 0.984 . S
N1433 C1426 1.356 . S
N1433 H1436 0.984 . S
N1433 H1437 0.985 . S
H1434 N1429 0.984 . S
H1435 N1429 0.985 . S
H1436 N1433 0.984 . S
H1437 N1433 0.985 . S
H1438 N1432 0.984 . S
H1439 N1432 0.984 . S
H1440 N1428 0.984 . S
H1441 N1428 0.985 . S
C1442 C1443 1.363 . S
C1442 C1448 1.379 . S
C1442 N1450 1.356 . S
C1443 C1442 1.363 . S
C1443 C1449 1.363 . S
C1444 C1445 1.363 . S
C1444 C1449 1.379 . S
C1444 N1451 1.356 . S
C1445 C1444 1.363 . S
C1445 C1448 1.363 . S
N1446 C1448 1.356 . S
N1446 H1458 0.984 . S
N1446 H1459 0.985 . S
N1447 C1449 1.356 . S
N1447 H1452 0.984 . S
N1447 H1453 0.985 . S
C1448 C1442 1.379 . S
C1448 C1445 1.363 . S
C1448 N1446 1.356 . S
C1449 C1443 1.363 . S
C1449 C1444 1.379 . S
C1449 N1447 1.356 . S
N1450 C1442 1.356 . S
N1450 H1456 0.984 . S
N1450 H1457 0.984 . S
N1451 C1444 1.356 . S
N1451 H1454 0.984 . S
N1451 H1455 0.985 . S
H1452 N1447 0.984 . S
H1453 N1447 0.985 . S
H1454 N1451 0.984 . S
H1455 N1451 0.985 . S
H1456 N1450 0.984 . S
H1457 N1450 0.984 . S
H1458 N1446 0.984 . S
H1459 N1446 0.985 . S
C1460 C1461 1.363 . S
C1460 C1466 1.379 . S
C1460 N1468 1.356 . S
C1461 C1460 1.363 . S
C1461 C1467 1.363 . S
C1462 C1463 1.363 . S
C1462 C1467 1.379 . S
C1462 N1469 1.356 . S
C1463 C1462 1.363 . S
C1463 C1466 1.363 . S
N1464 C1466 1.356 . S
N1464 H1476 0.984 . S
N1464 H1477 0.985 . S
N1465 C1467 1.356 . S
N1465 H1470 0.984 . S
N1465 H1471 0.985 . S
C1466 C1460 1.379 . S
C1466 C1463 1.363 . S
C1466 N1464 1.356 . S
C1467 C1461 1.363 . S
C1467 C1462 1.379 . S
C1467 N1465 1.356 . S
N1468 C1460 1.356 . S
N1468 H1474 0.984 . S
N1468 H1475 0.984 . S
N1469 C1462 1.356 . S
N1469 H1472 0.984 . S
N1469 H1473 0.985 . S
H1470 N1465 0.984 . S
H1471 N1465 0.985 . S
H1472 N1469 0.984 . S
H1473 N1469 0.985 . S
H1474 N1468 0.984 . S
H1475 N1468 0.984 . S
H1476 N1464 0.984 . S
H1477 N1464 0.985 . S
C1478 C1479 1.363 . S
C1478 C1484 1.379 . S
C1478 N1486 1.356 . S
C1479 C1478 1.363 . S
C1479 C1485 1.363 . S
C1480 C1481 1.363 . S
C1480 C1485 1.379 . S
C1480 N1487 1.356 . S
C1481 C1480 1.363 . S
C1481 C1484 1.363 . S
N1482 C1484 1.356 . S
N1482 H1494 0.984 . S
N1482 H1495 0.985 . S
N1483 C1485 1.356 . S
N1483 H1488 0.984 . S
N1483 H1489 0.985 . S
C1484 C1478 1.379 . S
C1484 C1481 1.363 . S
C1484 N1482 1.356 . S
C1485 C1479 1.363 . S
C1485 C1480 1.379 . S
C1485 N1483 1.356 . S
N1486 C1478 1.356 . S
N1486 H1492 0.984 . S
N1486 H1493 0.984 . S
N1487 C1480 1.356 . S
N1487 H1490 0.984 . S
N1487 H1491 0.985 . S
H1488 N1483 0.984 . S
H1489 N1483 0.985 . S
H1490 N1487 0.984 . S
H1491 N1487 0.985 . S
H1492 N1486 0.984 . S
H1493 N1486 0.984 . S
H1494 N1482 0.984 . S
H1495 N1482 0.985 . S
C1496 C1497 1.363 . S
C1496 C1502 1.379 . S
C1496 N1504 1.356 . S
C1497 C1496 1.363 . S
C1497 C1503 1.363 . S
C1498 C1499 1.363 . S
C1498 C1503 1.379 . S
C1498 N1505 1.356 . S
C1499 C1498 1.363 . S
C1499 C1502 1.363 . S
N1500 C1502 1.356 . S
N1500 H1512 0.984 . S
N1500 H1513 0.985 . S
N1501 C1503 1.356 . S
N1501 H1506 0.984 . S
N1501 H1507 0.985 . S
C1502 C1496 1.379 . S
C1502 C1499 1.363 . S
C1502 N1500 1.356 . S
C1503 C1497 1.363 . S
C1503 C1498 1.379 . S
C1503 N1501 1.356 . S
N1504 C1496 1.356 . S
N1504 H1510 0.984 . S
N1504 H1511 0.984 . S
N1505 C1498 1.356 . S
N1505 H1508 0.984 . S
N1505 H1509 0.985 . S
H1506 N1501 0.984 . S
H1507 N1501 0.985 . S
H1508 N1505 0.984 . S
H1509 N1505 0.985 . S
H1510 N1504 0.984 . S
H1511 N1504 0.984 . S
H1512 N1500 0.984 . S
H1513 N1500 0.985 . S
C1514 C1515 1.363 . S
C1514 C1520 1.379 . S
C1514 N1522 1.356 . S
C1515 C1514 1.363 . S
C1515 C1521 1.363 . S
C1516 C1517 1.363 . S
C1516 C1521 1.379 . S
C1516 N1523 1.356 . S
C1517 C1516 1.363 . S
C1517 C1520 1.363 . S
N1518 C1520 1.356 . S
N1518 H1530 0.984 . S
N1518 H1531 0.985 . S
N1519 C1521 1.356 . S
N1519 H1524 0.984 . S
N1519 H1525 0.985 . S
C1520 C1514 1.379 . S
C1520 C1517 1.363 . S
C1520 N1518 1.356 . S
C1521 C1515 1.363 . S
C1521 C1516 1.379 . S
C1521 N1519 1.356 . S
N1522 C1514 1.356 . S
N1522 H1528 0.984 . S
N1522 H1529 0.984 . S
N1523 C1516 1.356 . S
N1523 H1526 0.984 . S
N1523 H1527 0.985 . S
H1524 N1519 0.984 . S
H1525 N1519 0.985 . S
H1526 N1523 0.984 . S
H1527 N1523 0.985 . S
H1528 N1522 0.984 . S
H1529 N1522 0.984 . S
H1530 N1518 0.984 . S
H1531 N1518 0.985 . S
C1532 C1533 1.363 . S
C1532 C1538 1.379 . S
C1532 N1540 1.356 . S
C1533 C1532 1.363 . S
C1533 C1539 1.363 . S
C1534 C1535 1.363 . S
C1534 C1539 1.379 . S
C1534 N1541 1.356 . S
C1535 C1534 1.363 . S
C1535 C1538 1.363 . S
N1536 C1538 1.356 . S
N1536 H1548 0.984 . S
N1536 H1549 0.985 . S
N1537 C1539 1.356 . S
N1537 H1542 0.984 . S
N1537 H1543 0.985 . S
C1538 C1532 1.379 . S
C1538 C1535 1.363 . S
C1538 N1536 1.356 . S
C1539 C1533 1.363 . S
C1539 C1534 1.379 . S
C1539 N1537 1.356 . S
N1540 C1532 1.356 . S
N1540 H1546 0.984 . S
N1540 H1547 0.984 . S
N1541 C1534 1.356 . S
N1541 H1544 0.984 . S
N1541 H1545 0.985 . S
H1542 N1537 0.984 . S
H1543 N1537 0.985 . S
H1544 N1541 0.984 . S
H1545 N1541 0.985 . S
H1546 N1540 0.984 . S
H1547 N1540 0.984 . S
H1548 N1536 0.984 . S
H1549 N1536 0.985 . S
C1550 C1551 1.363 . S
C1550 C1556 1.379 . S
C1550 N1558 1.356 . S
C1551 C1550 1.363 . S
C1551 C1557 1.363 . S
C1552 C1553 1.363 . S
C1552 C1557 1.379 . S
C1552 N1559 1.356 . S
C1553 C1552 1.363 . S
C1553 C1556 1.363 . S
N1554 C1556 1.356 . S
N1554 H1566 0.984 . S
N1554 H1567 0.985 . S
N1555 C1557 1.356 . S
N1555 H1560 0.984 . S
N1555 H1561 0.985 . S
C1556 C1550 1.379 . S
C1556 C1553 1.363 . S
C1556 N1554 1.356 . S
C1557 C1551 1.363 . S
C1557 C1552 1.379 . S
C1557 N1555 1.356 . S
N1558 C1550 1.356 . S
N1558 H1564 0.984 . S
N1558 H1565 0.984 . S
N1559 C1552 1.356 . S
N1559 H1562 0.984 . S
N1559 H1563 0.985 . S
H1560 N1555 0.984 . S
H1561 N1555 0.985 . S
H1562 N1559 0.984 . S
H1563 N1559 0.985 . S
H1564 N1558 0.984 . S
H1565 N1558 0.984 . S
H1566 N1554 0.984 . S
H1567 N1554 0.985 . S
C417 C359 1.444 . S
C419 C5 1.369 . S
C435 C18 1.369 . S
C437 C112 1.445 . S
C453 C333 1.444 . S
C455 C31 1.369 . S
C471 C44 1.369 . S
C473 C138 1.445 . S
C489 C57 1.369 . S
C491 C385 1.445 . S
C507 C70 1.369 . S
C509 C190 1.444 . S
C525 C83 1.369 . S
C527 C411 1.445 . S
C543 C96 1.369 . S
C545 C164 1.444 . S
C561 C255 1.444 . S
C563 C109 1.369 . S
C579 C8 1.445 . S
C581 C122 1.369 . S
C597 C229 1.444 . S
C599 C135 1.369 . S
C615 C148 1.369 . S
C617 C34 1.445 . S
C633 C281 1.445 . S
C635 C161 1.369 . S
C651 C86 1.444 . S
C653 C174 1.369 . S
C669 C187 1.369 . S
C671 C307 1.445 . S
C687 C60 1.444 . S
C689 C200 1.369 . S
C705 C213 1.369 . S
C707 C151 1.445 . S
C723 C226 1.369 . S
C725 C320 1.445 . S
C741 C125 1.444 . S
C743 C239 1.369 . S
C759 C346 1.445 . S
C761 C252 1.369 . S
C777 C177 1.445 . S
C779 C265 1.369 . S
C795 C398 1.444 . S
C797 C278 1.369 . S
C813 C203 1.445 . S
C815 C291 1.369 . S
C831 C304 1.369 . S
C833 C372 1.444 . S
C849 C47 1.445 . S
C851 C317 1.369 . S
C867 C330 1.369 . S
C869 C216 1.445 . S
C885 C343 1.369 . S
C887 C21 1.444 . S
C903 C356 1.369 . S
C905 C242 1.445 . S
C921 C369 1.369 . S
C923 C73 1.445 . S
C939 C382 1.369 . S
C941 C294 1.444 . S
C957 C395 1.369 . S
C959 C99 1.445 . S
C975 C408 1.369 . S
C977 C268 1.444 . S
C993 C322 1.505 . S
C995 C10 1.505 . S
C1011 C23 1.505 . S
C1013 C127 1.505 . S
C1029 C348 1.505 . S
C1031 C36 1.505 . S
C1047 C49 1.505 . S
C1049 C153 1.505 . S
C1065 C374 1.505 . S
C1067 C62 1.505 . S
C1083 C75 1.505 . S
C1085 C179 1.505 . S
C1101 C400 1.505 . S
C1103 C88 1.505 . S
C1119 C101 1.505 . S
C1121 C205 1.505 . S
C1137 C114 1.505 . S
C1139 C218 1.505 . S
C1155 C140 1.505 . S
C1157 C244 1.505 . S
C1173 C166 1.505 . S
C1175 C270 1.505 . S
C1191 C192 1.505 . S
C1193 C296 1.505 . S
C1209 C231 1.505 . S
C1211 C335 1.505 . S
C1227 C361 1.505 . S
C1229 C257 1.505 . S
C1245 C387 1.505 . S
C1247 C283 1.505 . S
C1263 C309 1.505 . S
C1265 C413 1.505 . S
C1281 C0 1.171 . S
C1283 C65 1.171 . S
C1299 C13 1.171 . S
C1301 C78 1.171 . S
C1317 C26 1.171 . S
C1319 C91 1.171 . S
C1335 C52 1.171 . S
C1337 C39 1.171 . S
C1353 C104 1.171 . S
C1355 C169 1.171 . S
C1371 C117 1.171 . S
C1373 C182 1.171 . S
C1389 C130 1.171 . S
C1391 C195 1.171 . S
C1407 C143 1.171 . S
C1409 C156 1.171 . S
C1425 C208 1.171 . S
C1427 C273 1.171 . S
C1443 C286 1.171 . S
C1445 C221 1.171 . S
C1461 C234 1.171 . S
C1463 C299 1.171 . S
C1479 C247 1.171 . S
C1481 C260 1.171 . S
C1497 C377 1.171 . S
C1499 C312 1.171 . S
C1515 C325 1.171 . S
C1517 C390 1.171 . S
C1533 C403 1.171 . S
C1535 C338 1.171 . S
C1551 C351 1.171 . S
C1553 C364 1.171 . S
