# Generated by pormake.
# Topology wjd, (6)-cn, num edge types: 1
# Building blocks:
#     Node 0, Type 0, BuildingBlock: VOLQOD_clean_sbu_1, # of connection points: 6
#     Node 1, Type 0, BuildingBlock: VOLQOD_clean_sbu_1, # of connection points: 6
#     Node 2, Type 0, BuildingBlock: VOLQOD_clean_sbu_1, # of connection points: 6
#     Node 3, Type 0, BuildingBlock: VOLQOD_clean_sbu_1, # of connection points: 6
#     Node 4, Type 0, BuildingBlock: VOLQOD_clean_sbu_1, # of connection points: 6
#     Node 5, Type 0, BuildingBlock: VOLQOD_clean_sbu_1, # of connection points: 6
#     Node 6, Type 0, BuildingBlock: VOLQOD_clean_sbu_1, # of connection points: 6
#     Node 7, Type 0, BuildingBlock: VOLQOD_clean_sbu_1, # of connection points: 6
#     Node 8, Type 0, BuildingBlock: VOLQOD_clean_sbu_1, # of connection points: 6
#     Node 9, Type 0, BuildingBlock: VOLQOD_clean_sbu_1, # of connection points: 6
#     Node 10, Type 0, BuildingBlock: VOLQOD_clean_sbu_1, # of connection points: 6
#     Node 11, Type 0, BuildingBlock: VOLQOD_clean_sbu_1, # of connection points: 6
#     Edge 12, Type (0, 0), BuildingBlock: MIFKUJ_clean_linker_0, # of connection points: 2
#     Edge 13, Type (0, 0), BuildingBlock: MIFKUJ_clean_linker_0, # of connection points: 2
#     Edge 14, Type (0, 0), BuildingBlock: MIFKUJ_clean_linker_0, # of connection points: 2
#     Edge 15, Type (0, 0), BuildingBlock: MIFKUJ_clean_linker_0, # of connection points: 2
#     Edge 16, Type (0, 0), BuildingBlock: MIFKUJ_clean_linker_0, # of connection points: 2
#     Edge 17, Type (0, 0), BuildingBlock: MIFKUJ_clean_linker_0, # of connection points: 2
#     Edge 18, Type (0, 0), BuildingBlock: MIFKUJ_clean_linker_0, # of connection points: 2
#     Edge 19, Type (0, 0), BuildingBlock: MIFKUJ_clean_linker_0, # of connection points: 2
#     Edge 20, Type (0, 0), BuildingBlock: MIFKUJ_clean_linker_0, # of connection points: 2
#     Edge 21, Type (0, 0), BuildingBlock: MIFKUJ_clean_linker_0, # of connection points: 2
#     Edge 22, Type (0, 0), BuildingBlock: MIFKUJ_clean_linker_0, # of connection points: 2
#     Edge 23, Type (0, 0), BuildingBlock: MIFKUJ_clean_linker_0, # of connection points: 2
#     Edge 24, Type (0, 0), BuildingBlock: MIFKUJ_clean_linker_0, # of connection points: 2
#     Edge 25, Type (0, 0), BuildingBlock: MIFKUJ_clean_linker_0, # of connection points: 2
#     Edge 26, Type (0, 0), BuildingBlock: MIFKUJ_clean_linker_0, # of connection points: 2
#     Edge 27, Type (0, 0), BuildingBlock: MIFKUJ_clean_linker_0, # of connection points: 2
#     Edge 28, Type (0, 0), BuildingBlock: MIFKUJ_clean_linker_0, # of connection points: 2
#     Edge 29, Type (0, 0), BuildingBlock: MIFKUJ_clean_linker_0, # of connection points: 2
#     Edge 30, Type (0, 0), BuildingBlock: MIFKUJ_clean_linker_0, # of connection points: 2
#     Edge 31, Type (0, 0), BuildingBlock: MIFKUJ_clean_linker_0, # of connection points: 2
#     Edge 32, Type (0, 0), BuildingBlock: MIFKUJ_clean_linker_0, # of connection points: 2
#     Edge 33, Type (0, 0), BuildingBlock: MIFKUJ_clean_linker_0, # of connection points: 2
#     Edge 34, Type (0, 0), BuildingBlock: MIFKUJ_clean_linker_0, # of connection points: 2
#     Edge 35, Type (0, 0), BuildingBlock: MIFKUJ_clean_linker_0, # of connection points: 2
#     Edge 36, Type (0, 0), BuildingBlock: MIFKUJ_clean_linker_0, # of connection points: 2
#     Edge 37, Type (0, 0), BuildingBlock: MIFKUJ_clean_linker_0, # of connection points: 2
#     Edge 38, Type (0, 0), BuildingBlock: MIFKUJ_clean_linker_0, # of connection points: 2
#     Edge 39, Type (0, 0), BuildingBlock: MIFKUJ_clean_linker_0, # of connection points: 2
#     Edge 40, Type (0, 0), BuildingBlock: MIFKUJ_clean_linker_0, # of connection points: 2
#     Edge 41, Type (0, 0), BuildingBlock: MIFKUJ_clean_linker_0, # of connection points: 2
#     Edge 42, Type (0, 0), BuildingBlock: MIFKUJ_clean_linker_0, # of connection points: 2
#     Edge 43, Type (0, 0), BuildingBlock: MIFKUJ_clean_linker_0, # of connection points: 2
#     Edge 44, Type (0, 0), BuildingBlock: MIFKUJ_clean_linker_0, # of connection points: 2
#     Edge 45, Type (0, 0), BuildingBlock: MIFKUJ_clean_linker_0, # of connection points: 2
#     Edge 46, Type (0, 0), BuildingBlock: MIFKUJ_clean_linker_0, # of connection points: 2
#     Edge 47, Type (0, 0), BuildingBlock: MIFKUJ_clean_linker_0, # of connection points: 2
# Relax obj value: 0.307
# Max RMSD: 0.232
# Mean RMSD: 0.231
data_MOF--net-wjd--node1-VOLQOD_clean_sbu_1--edge1-MIFKUJ_clean_linker_0
_symmetry_space_group_name_H-M    P1
_symmetry_Int_Tables_number       1
_symmetry_cell_setting            triclinic
loop_
_symmetry_equiv_pos_as_xyz
'x, y, z'
_cell_length_a     39.156203
_cell_length_b     39.261802
_cell_length_c     83.4778
_cell_angle_alpha  90.036951
_cell_angle_beta   89.987591
_cell_angle_gamma 120.12843
loop_
_atom_site_label
_atom_site_type_symbol
_atom_site_fract_x
_atom_site_fract_y
_atom_site_fract_z
_atom_type_partial_charge
O0 O 0.36649 0.15544 0.10417 0.0
Zn1 Zn 0.32435 0.09899 0.10296 0.0
O2 O 0.33396 0.06881 0.11891 0.0
Zn3 Zn 0.3316 0.02298 0.10846 0.0
Zn4 Zn 0.38469 0.10112 0.12914 0.0
Zn5 Zn 0.29396 0.05364 0.13529 0.0
O6 O 0.28243 0.97308 0.11577 0.0
O7 O 0.2553 0.99627 0.13288 0.0
O8 O 0.32231 0.07937 0.08065 0.0
O9 O 0.32665 0.02579 0.08448 0.0
O10 O 0.38271 0.02221 0.11188 0.0
O11 O 0.42027 0.08075 0.12336 0.0
O12 O 0.38085 0.09786 0.15323 0.0
O13 O 0.27478 0.10027 0.10728 0.0
O14 O 0.31639 0.06268 0.15752 0.0
O15 O 0.26537 0.08417 0.13305 0.0
C16 C 0.39758 0.17491 0.1125 0.0
C17 C 0.25447 0.96783 0.12518 0.0
C18 C 0.41585 0.04895 0.11739 0.0
C19 C 0.3234 0.04969 0.07517 0.0
C20 C 0.35164 0.08113 0.16276 0.0
C21 C 0.25805 0.0981 0.12059 0.0
O22 O 0.40873 0.1581 0.12259 0.0
O23 O 0.79224 0.62219 0.37387 0.0
Zn24 Zn 0.78812 0.66615 0.3641 0.0
O25 O 0.76231 0.68517 0.37836 0.0
Zn26 Zn 0.7151 0.67906 0.3676 0.0
Zn27 Zn 0.74862 0.65483 0.39812 0.0
Zn28 Zn 0.79823 0.7401 0.38355 0.0
O29 O 0.71561 0.73063 0.36684 0.0
O30 O 0.77653 0.773 0.37512 0.0
O31 O 0.76168 0.64959 0.34286 0.0
O32 O 0.71208 0.66139 0.34462 0.0
O33 O 0.66621 0.63742 0.37868 0.0
O34 O 0.69011 0.62061 0.39947 0.0
O35 O 0.76709 0.68963 0.41752 0.0
O36 O 0.84386 0.70748 0.36008 0.0
O37 O 0.80342 0.7495 0.40737 0.0
O38 O 0.85261 0.75856 0.37462 0.0
C39 C 0.78726 0.60845 0.38801 0.0
C40 C 0.74319 0.76571 0.36961 0.0
C41 C 0.66111 0.61671 0.39116 0.0
C42 C 0.73233 0.6501 0.33664 0.0
C43 C 0.78901 0.72663 0.41936 0.0
C44 C 0.8659 0.74221 0.3653 0.0
O45 O 0.77232 0.61956 0.39894 0.0
O46 O 0.84158 0.2091 0.10474 0.0
Zn47 Zn 0.89632 0.21827 0.10734 0.0
O48 O 0.92382 0.25561 0.12451 0.0
Zn49 Zn 0.97125 0.30065 0.11565 0.0
Zn50 Zn 0.88895 0.27093 0.13449 0.0
Zn51 Zn 0.93803 0.23069 0.14102 0.0
O52 O 0.02048 0.30047 0.12312 0.0
O53 O 0.99487 0.24854 0.13935 0.0
O54 O 0.92403 0.23606 0.08611 0.0
O55 O 0.9721 0.29667 0.09166 0.0
O56 O 0.97178 0.35145 0.12039 0.0
O57 O 0.91154 0.32818 0.13074 0.0
O58 O 0.88638 0.26511 0.15855 0.0
O59 O 0.88749 0.16503 0.11304 0.0
O60 O 0.92838 0.244 0.16309 0.0
O61 O 0.90789 0.172 0.13828 0.0
C62 C 0.81998 0.21771 0.11322 0.0
C63 C 0.02429 0.27655 0.13226 0.0
C64 C 0.94442 0.35666 0.12595 0.0
C65 C 0.95291 0.269 0.08167 0.0
C66 C 0.90573 0.2561 0.16819 0.0
C67 C 0.89089 0.15042 0.12613 0.0
O68 O 0.83378 0.24015 0.12541 0.0
O69 O 0.38643 0.20279 0.3664 0.0
Zn70 Zn 0.34481 0.1506 0.35782 0.0
O71 O 0.32925 0.10881 0.37351 0.0
Zn72 Zn 0.33876 0.06784 0.36472 0.0
Zn73 Zn 0.35989 0.13122 0.39278 0.0
Zn74 Zn 0.27407 0.08716 0.37914 0.0
O75 O 0.28862 0.01478 0.36481 0.0
O76 O 0.24425 0.03115 0.37246 0.0
O77 O 0.36224 0.13801 0.33715 0.0
O78 O 0.35648 0.07963 0.34162 0.0
O79 O 0.38158 0.06505 0.37729 0.0
O80 O 0.39831 0.11278 0.39521 0.0
O81 O 0.32653 0.11439 0.41257 0.0
O82 O 0.29981 0.15909 0.35287 0.0
O83 O 0.2655 0.08495 0.40306 0.0
O84 O 0.25098 0.11736 0.36863 0.0
C85 C 0.39931 0.21433 0.38052 0.0
C86 C 0.25313 0.00571 0.36778 0.0
C87 C 0.40318 0.08607 0.38885 0.0
C88 C 0.36473 0.10854 0.33236 0.0
C89 C 0.28941 0.09635 0.41482 0.0
C90 C 0.2649 0.14486 0.35824 0.0
O91 O 0.38998 0.19006 0.39204 0.0
O92 O 0.77112 0.6066 0.10384 0.0
Zn93 Zn 0.76899 0.65603 0.10504 0.0
O94 O 0.73656 0.65487 0.12286 0.0
Zn95 Zn 0.6937 0.66241 0.11471 0.0
Zn96 Zn 0.71575 0.60503 0.13382 0.0
Zn97 Zn 0.76943 0.69526 0.13816 0.0
O98 O 0.6984 0.71239 0.12403 0.0
O99 O 0.75416 0.73638 0.13811 0.0
O100 O 0.74977 0.66422 0.08402 0.0
O101 O 0.69799 0.66997 0.0907 0.0
O102 O 0.63998 0.61367 0.11891 0.0
O103 O 0.65841 0.57396 0.13016 0.0
O104 O 0.72155 0.61096 0.15762 0.0
O105 O 0.82569 0.69714 0.10822 0.0
O106 O 0.76092 0.67515 0.16076 0.0
O107 O 0.8272 0.71953 0.13277 0.0
C108 C 0.76133 0.57824 0.11353 0.0
C109 C 0.72524 0.73918 0.13274 0.0
C110 C 0.6318 0.58052 0.12489 0.0
C111 C 0.72133 0.6695 0.08018 0.0
C112 C 0.74046 0.6408 0.16662 0.0
C113 C 0.84485 0.71824 0.12016 0.0
O114 O 0.74135 0.57467 0.1261 0.0
O115 O 0.80128 0.22105 0.37563 0.0
Zn116 Zn 0.84833 0.22461 0.36458 0.0
O117 O 0.89392 0.24501 0.37867 0.0
Zn118 Zn 0.9366 0.29365 0.36965 0.0
Zn119 Zn 0.87809 0.25398 0.39932 0.0
Zn120 Zn 0.9104 0.2068 0.38171 0.0
O121 O 0.98814 0.29268 0.36904 0.0
O122 O 0.96467 0.22876 0.37338 0.0
O123 O 0.86053 0.25475 0.34394 0.0
O124 O 0.92432 0.29851 0.34655 0.0
O125 O 0.94045 0.34028 0.38186 0.0
O126 O 0.89782 0.31128 0.40186 0.0
O127 O 0.89863 0.23585 0.4173 0.0
O128 O 0.83057 0.16867 0.35861 0.0
O129 O 0.9145 0.19572 0.40501 0.0
O130 O 0.8738 0.1562 0.37053 0.0
C131 C 0.79275 0.2162 0.39048 0.0
C132 C 0.99293 0.26287 0.36982 0.0
C133 C 0.92242 0.34211 0.3943 0.0
C134 C 0.89285 0.2821 0.3382 0.0
C135 C 0.91056 0.21114 0.41777 0.0
C136 C 0.8433 0.14536 0.36185 0.0
O137 O 0.81905 0.22437 0.40111 0.0
O138 O 0.1689 0.36512 0.61638 0.0
Zn139 Zn 0.11899 0.32389 0.6263 0.0
O140 O 0.0736 0.30918 0.61264 0.0
Zn141 Zn 0.03729 0.32207 0.62376 0.0
Zn142 Zn 0.09223 0.33822 0.5926 0.0
Zn143 Zn 0.04737 0.25299 0.60796 0.0
O144 O 0.98306 0.27384 0.62641 0.0
O145 O 0.99246 0.22658 0.61639 0.0
O146 O 0.11266 0.34154 0.64801 0.0
O147 O 0.05576 0.34069 0.6463 0.0
O148 O 0.03478 0.3659 0.61212 0.0
O149 O 0.0728 0.37636 0.59077 0.0
O150 O 0.07273 0.30216 0.57357 0.0
O151 O 0.12724 0.2785 0.62955 0.0
O152 O 0.04294 0.24236 0.58423 0.0
O153 O 0.07594 0.2275 0.61793 0.0
C154 C 0.17813 0.37893 0.60228 0.0
C155 C 0.97061 0.23782 0.62308 0.0
C156 C 0.05068 0.38443 0.59919 0.0
C157 C 0.08598 0.34665 0.65428 0.0
C158 C 0.05401 0.26486 0.57205 0.0
C159 C 0.10785 0.24223 0.62595 0.0
O160 O 0.1519 0.3699 0.59151 0.0
O161 O 0.23015 0.84678 0.88394 0.0
Zn162 Zn 0.23239 0.89843 0.88191 0.0
O163 O 0.26628 0.92899 0.86423 0.0
Zn164 Zn 0.30854 0.97934 0.87268 0.0
Zn165 Zn 0.28775 0.89952 0.85411 0.0
Zn166 Zn 0.23511 0.93674 0.84808 0.0
O167 O 0.3032 0.0245 0.86372 0.0
O168 O 0.24935 0.99297 0.84853 0.0
O169 O 0.24958 0.92642 0.90304 0.0
O170 O 0.30381 0.98209 0.89664 0.0
O171 O 0.36251 0.98498 0.86903 0.0
O172 O 0.34513 0.92638 0.8584 0.0
O173 O 0.28253 0.89769 0.83021 0.0
O174 O 0.1763 0.88304 0.87759 0.0
O175 O 0.24604 0.92518 0.82568 0.0
O176 O 0.1767 0.90288 0.85266 0.0
C177 C 0.24094 0.828 0.87481 0.0
C178 C 0.27694 0.02454 0.85467 0.0
C179 C 0.37124 0.9599 0.86364 0.0
C180 C 0.27905 0.9594 0.90704 0.0
C181 C 0.2655 0.90941 0.82055 0.0
C182 C 0.15809 0.8845 0.86523 0.0
O183 O 0.26182 0.84398 0.86239 0.0
O184 O 0.59363 0.77938 0.61854 0.0
Zn185 Zn 0.63651 0.77392 0.62905 0.0
O186 O 0.65711 0.749 0.61514 0.0
Zn187 Zn 0.64513 0.69877 0.62465 0.0
Zn188 Zn 0.63173 0.74101 0.59459 0.0
Zn189 Zn 0.71344 0.78288 0.612 0.0
O190 O 0.69385 0.69363 0.6254 0.0
O191 O 0.74088 0.75578 0.62071 0.0
O192 O 0.6184 0.74643 0.65005 0.0
O193 O 0.62882 0.69612 0.64777 0.0
O194 O 0.60027 0.65383 0.61262 0.0
O195 O 0.59127 0.6842 0.59195 0.0
O196 O 0.67013 0.75739 0.57655 0.0
O197 O 0.67906 0.8287 0.6343 0.0
O198 O 0.72818 0.79209 0.58852 0.0
O199 O 0.73336 0.83537 0.62295 0.0
C200 C 0.58794 0.78215 0.60372 0.0
C201 C 0.73002 0.72044 0.6246 0.0
C202 C 0.58198 0.653 0.59984 0.0
C203 C 0.61856 0.71676 0.65605 0.0
C204 C 0.70752 0.77871 0.57585 0.0
C205 C 0.71581 0.84915 0.63132 0.0
O206 O 0.60419 0.77232 0.59289 0.0
O207 O 0.15566 0.37156 0.8853 0.0
Zn208 Zn 0.10003 0.32666 0.8862 0.0
O209 O 0.06736 0.33247 0.87004 0.0
Zn210 Zn 0.0243 0.33506 0.88085 0.0
Zn211 Zn 0.09919 0.37985 0.8578 0.0
Zn212 Zn 0.04738 0.28872 0.85504 0.0
O213 O 0.97176 0.28788 0.87486 0.0
O214 O 0.98947 0.25471 0.85836 0.0
O215 O 0.07909 0.32217 0.9086 0.0
O216 O 0.02816 0.33117 0.90469 0.0
O217 O 0.027 0.38737 0.87696 0.0
O218 O 0.08224 0.41843 0.8626 0.0
O219 O 0.09283 0.37101 0.83408 0.0
O220 O 0.10563 0.2799 0.88148 0.0
O221 O 0.05569 0.30622 0.83202 0.0
O222 O 0.0741 0.25674 0.85843 0.0
C223 C 0.17437 0.39838 0.87496 0.0
C224 C 0.96328 0.25816 0.86603 0.0
C225 C 0.05325 0.41792 0.8697 0.0
C226 C 0.05046 0.32541 0.91401 0.0
C227 C 0.07451 0.34011 0.82559 0.0
C228 C 0.09566 0.25615 0.86973 0.0
O229 O 0.1566 0.40381 0.86332 0.0
O230 O 0.19427 0.80152 0.61434 0.0
Zn231 Zn 0.20138 0.85099 0.6239 0.0
O232 O 0.2296 0.89485 0.60954 0.0
Zn233 Zn 0.27955 0.9333 0.61968 0.0
Zn234 Zn 0.23816 0.87543 0.58948 0.0
Zn235 Zn 0.19751 0.91837 0.60507 0.0
O236 O 0.28117 0.98491 0.62373 0.0
O237 O 0.21932 0.96816 0.61743 0.0
O238 O 0.22768 0.85987 0.64516 0.0
O239 O 0.28447 0.91549 0.64195 0.0
O240 O 0.32578 0.93995 0.6065 0.0
O241 O 0.29577 0.89532 0.58729 0.0
O242 O 0.2229 0.89655 0.57057 0.0
O243 O 0.14684 0.84046 0.62766 0.0
O244 O 0.19871 0.93144 0.58159 0.0
O245 O 0.1412 0.88335 0.61224 0.0
C246 C 0.196 0.79095 0.60011 0.0
C247 C 0.25288 0.99209 0.62338 0.0
C248 C 0.32709 0.92126 0.59422 0.0
C249 C 0.2608 0.88637 0.65059 0.0
C250 C 0.20891 0.91952 0.56928 0.0
C251 C 0.12627 0.85423 0.62186 0.0
O252 O 0.20981 0.81585 0.58871 0.0
O253 O 0.62311 0.78642 0.88772 0.0
Zn254 Zn 0.66909 0.77744 0.8878 0.0
O255 O 0.66744 0.74397 0.87029 0.0
Zn256 Zn 0.66905 0.69839 0.87905 0.0
Zn257 Zn 0.6195 0.72814 0.85847 0.0
Zn258 Zn 0.71104 0.77344 0.85558 0.0
O259 O 0.71837 0.69812 0.8713 0.0
O260 O 0.74878 0.75391 0.85732 0.0
O261 O 0.67306 0.75704 0.90929 0.0
O262 O 0.67385 0.70241 0.90313 0.0
O263 O 0.61741 0.64756 0.87423 0.0
O264 O 0.58299 0.67144 0.8622 0.0
O265 O 0.62842 0.73356 0.83488 0.0
O266 O 0.71369 0.83182 0.88462 0.0
O267 O 0.69348 0.76573 0.83245 0.0
O268 O 0.73897 0.83141 0.86079 0.0
C269 C 0.59778 0.78055 0.87696 0.0
C270 C 0.74789 0.72361 0.86322 0.0
C271 C 0.58567 0.64276 0.86782 0.0
C272 C 0.67484 0.7268 0.91345 0.0
C273 C 0.65921 0.74893 0.8262 0.0
C274 C 0.73728 0.8496 0.87313 0.0
O275 O 0.59404 0.75982 0.86464 0.0
H276 H 0.07891 0.29776 0.1084 0.0
H277 H 0.12611 0.2744 0.1058 0.0
H278 H 0.09966 0.22926 0.15405 0.0
H279 H 0.05224 0.25197 0.15665 0.0
H280 H 0.19096 0.2777 0.12176 0.0
H281 H 0.07509 0.13379 0.15233 0.0
H282 H 0.00332 0.09762 0.15746 0.0
H283 H 0.98397 0.14815 0.11527 0.0
H284 H 0.05557 0.18429 0.10979 0.0
H285 H 0.25593 0.14193 0.14531 0.0
H286 H 0.22217 0.18033 0.14594 0.0
H287 H 0.17158 0.13455 0.09952 0.0
H288 H 0.20671 0.09745 0.09849 0.0
H289 H 0.1185 0.13212 0.12731 0.0
H290 H 0.2352 0.21183 0.09694 0.0
H291 H 0.30574 0.25137 0.09019 0.0
H292 H 0.32237 0.33247 0.12796 0.0
H293 H 0.25293 0.29162 0.13591 0.0
C294 C 0.08445 0.28438 0.11867 0.0
C295 C 0.06156 0.27604 0.13263 0.0
C296 C 0.11122 0.27087 0.11714 0.0
C297 C 0.11533 0.24918 0.12958 0.0
C298 C 0.09617 0.24526 0.14422 0.0
C299 C 0.06928 0.25842 0.14571 0.0
C300 C 0.13507 0.22614 0.12667 0.0
C301 C 0.17539 0.24591 0.12303 0.0
C302 C 0.114 0.18455 0.12783 0.0
C303 C 0.07074 0.16199 0.13074 0.0
C304 C 0.0555 0.13703 0.1441 0.0
C305 C 0.01488 0.11664 0.1471 0.0
C306 C 0.98915 0.12072 0.13673 0.0
C307 C 0.00396 0.14512 0.12332 0.0
C308 C 0.04457 0.16562 0.12028 0.0
C309 C 0.23723 0.13975 0.13534 0.0
C310 C 0.23362 0.11667 0.12188 0.0
C311 C 0.21838 0.16193 0.13565 0.0
C312 C 0.19499 0.16053 0.12268 0.0
C313 C 0.18991 0.13616 0.10954 0.0
C314 C 0.20974 0.11494 0.109 0.0
C315 C 0.17501 0.18383 0.12305 0.0
C316 C 0.13437 0.16394 0.12612 0.0
C317 C 0.19587 0.22529 0.1212 0.0
C318 C 0.2387 0.24796 0.11727 0.0
C319 C 0.25412 0.23716 0.10425 0.0
C320 C 0.29407 0.25989 0.1002 0.0
C321 C 0.31874 0.29413 0.1088 0.0
C322 C 0.30357 0.30549 0.12154 0.0
C323 C 0.26396 0.28236 0.12591 0.0
H324 H 0.34945 0.31217 0.10546 0.0
H325 H 0.95772 0.1048 0.13905 0.0
H326 H 0.1888 0.96992 0.38652 0.0
H327 H 0.13065 0.90578 0.38268 0.0
H328 H 0.1855 0.8844 0.34201 0.0
H329 H 0.24482 0.94961 0.34595 0.0
H330 H 0.11269 0.87499 0.33503 0.0
H331 H 0.16007 0.82094 0.37267 0.0
H332 H 0.19384 0.81697 0.3969 0.0
H333 H 0.10755 0.82333 0.42651 0.0
H334 H 0.07357 0.82798 0.4025 0.0
H335 H 0.90307 0.72237 0.34246 0.0
H336 H 0.9744 0.75016 0.33905 0.0
H337 H -0.0039 0.83294 0.37711 0.0
H338 H 0.92522 0.80585 0.38052 0.0
H339 H 0.03582 0.78634 0.37975 0.0
H340 H 0.0079 0.86503 0.34114 0.0
H341 H 0.97538 0.87092 0.31684 0.0
H342 H 0.02677 0.81608 0.28895 0.0
H343 H 0.05921 0.80947 0.31316 0.0
C344 C 0.18885 0.95132 0.37693 0.0
C345 C 0.22098 0.9647 0.36642 0.0
C346 C 0.15577 0.91443 0.37485 0.0
C347 C 0.15397 0.89009 0.36218 0.0
C348 C 0.18662 0.90266 0.35196 0.0
C349 C 0.2203 0.93972 0.35421 0.0
C350 C 0.11555 0.85467 0.35872 0.0
C351 C 0.09617 0.85444 0.34455 0.0
C352 C 0.09409 0.82774 0.3711 0.0
C353 C 0.11413 0.82465 0.38571 0.0
C354 C 0.14833 0.82164 0.38434 0.0
C355 C 0.16753 0.81927 0.39805 0.0
C356 C 0.15281 0.81984 0.41323 0.0
C357 C 0.11885 0.82276 0.41474 0.0
C358 C 0.09952 0.82514 0.40107 0.0
C359 C 0.92308 0.7468 0.34998 0.0
C360 C 0.90856 0.76191 0.3618 0.0
C361 C 0.96369 0.76245 0.34803 0.0
C362 C 0.99018 0.7931 0.35797 0.0
C363 C 0.97586 0.80892 0.36946 0.0
C364 C 0.93541 0.79367 0.37129 0.0
C365 C 0.0331 0.80928 0.35669 0.0
C366 C 0.05288 0.80545 0.36994 0.0
C367 C 0.05493 0.83218 0.34345 0.0
C368 C 0.03547 0.83624 0.32896 0.0
C369 C 0.01193 0.85389 0.32985 0.0
C370 C 0.9936 0.85744 0.31609 0.0
C371 C -0.00112 0.84374 0.30137 0.0
C372 C 0.02262 0.82658 0.30037 0.0
C373 C 0.04098 0.82293 0.3141 0.0
H374 H 0.98467 0.84652 0.29073 0.0
H375 H 0.16775 0.81804 0.42383 0.0
H376 H 0.89401 0.10799 0.15151 0.0
H377 H 0.85842 0.03642 0.15451 0.0
H378 H 0.8082 0.02363 0.10738 0.0
H379 H 0.84355 0.09506 0.10423 0.0
H380 H 0.75262 0.97699 0.12995 0.0
H381 H 0.88096 0.00601 0.11207 0.0
H382 H 0.95365 0.03877 0.11241 0.0
H383 H 0.95007 0.99332 0.15952 0.0
H384 H 0.87732 0.9607 0.15956 0.0
H385 H 0.69969 0.77687 0.11277 0.0
H386 H 0.71855 0.84645 0.11441 0.0
H387 H 0.7718 0.8551 0.16062 0.0
H388 H 0.75384 0.78606 0.15886 0.0
H389 H 0.82408 0.90449 0.13966 0.0
H390 H 0.69375 0.87044 0.15627 0.0
H391 H 0.6211 0.83656 0.15491 0.0
H392 H 0.62789 0.89028 0.10934 0.0
H393 H 0.70061 0.92403 0.1103 0.0
C394 C 0.8756 0.08998 0.14174 0.0
C395 C 0.87177 0.10722 0.1276 0.0
C396 C 0.85527 0.04913 0.14348 0.0
C397 C 0.83076 0.02492 0.13115 0.0
C398 C 0.82689 0.04195 0.11704 0.0
C399 C 0.84738 0.08275 0.11523 0.0
C400 C 0.80951 0.98171 0.13289 0.0
C401 C 0.76811 0.96093 0.13194 0.0
C402 C 0.82991 0.96118 0.13578 0.0
C403 C 0.8737 0.98121 0.13588 0.0
C404 C 0.89568 0.0033 0.12257 0.0
C405 C 0.93687 0.02171 0.12266 0.0
C406 C 0.95644 0.01804 0.13596 0.0
C407 C 0.93486 0.99607 0.14922 0.0
C408 C 0.89364 0.97759 0.14919 0.0
C409 C 0.71412 0.79331 0.12352 0.0
C410 C 0.7259 0.77646 0.13558 0.0
C411 C 0.72487 0.83302 0.12446 0.0
C412 C 0.74691 0.85596 0.13758 0.0
C413 C 0.75511 0.83797 0.15033 0.0
C414 C 0.74482 0.79857 0.14932 0.0
C415 C 0.76692 0.89941 0.13688 0.0
C416 C 0.80832 0.92036 0.13789 0.0
C417 C 0.74644 0.91991 0.13395 0.0
C418 C 0.70268 0.89948 0.1333 0.0
C419 C 0.67977 0.87474 0.14588 0.0
C420 C 0.63856 0.85562 0.1452 0.0
C421 C 0.61989 0.86118 0.13203 0.0
C422 C 0.64239 0.88595 0.11953 0.0
C423 C 0.68361 0.90512 0.12015 0.0
H424 H 0.58798 0.84637 0.13153 0.0
H425 H 0.98833 0.03224 0.136 0.0
H426 H 0.18694 0.11837 0.36422 0.0
H427 H 0.15024 0.15189 0.35831 0.0
H428 H 0.25272 0.24593 0.33513 0.0
H429 H 0.28988 0.21261 0.34103 0.0
H430 H 0.22118 0.27343 0.35726 0.0
H431 H 0.17475 0.18989 0.31224 0.0
H432 H 0.14919 0.12834 0.29678 0.0
H433 H 0.04333 0.07531 0.32507 0.0
H434 H 0.06845 0.13629 0.34088 0.0
H435 H 0.05254 0.31615 0.35014 0.0
H436 H 0.1107 0.31232 0.34122 0.0
H437 H 0.07691 0.21317 0.37257 0.0
H438 H 0.01989 0.21688 0.38153 0.0
H439 H 0.0848 0.20576 0.33561 0.0
H440 H 0.14561 0.28366 0.38518 0.0
H441 H 0.17251 0.34495 0.40094 0.0
H442 H 0.25228 0.40921 0.36263 0.0
H443 H 0.22534 0.34829 0.34655 0.0
C444 C 0.20156 0.14587 0.35766 0.0
C445 C 0.24134 0.16284 0.35315 0.0
C446 C 0.18048 0.1649 0.35419 0.0
C447 C 0.19872 0.2012 0.34613 0.0
C448 C 0.23812 0.21783 0.34127 0.0
C449 C 0.2592 0.19866 0.34463 0.0
C450 C 0.17715 0.22287 0.34422 0.0
C451 C 0.1918 0.25924 0.35207 0.0
C452 C 0.1391 0.20463 0.33728 0.0
C453 C 0.12356 0.16778 0.32776 0.0
C454 C 0.1461 0.16505 0.31523 0.0
C455 C 0.13168 0.13025 0.3064 0.0
C456 C 0.09466 0.09794 0.30994 0.0
C457 C 0.07197 0.10039 0.32232 0.0
C458 C 0.08626 0.13512 0.3312 0.0
C459 C 0.05825 0.29425 0.35536 0.0
C460 C 0.03149 0.26644 0.36633 0.0
C461 C 0.09123 0.29203 0.35023 0.0
C462 C 0.09753 0.26218 0.35616 0.0
C463 C 0.07219 0.23617 0.3678 0.0
C464 C 0.03962 0.23833 0.37288 0.0
C465 C 0.12791 0.25458 0.34956 0.0
C466 C 0.11489 0.2208 0.34007 0.0
C467 C 0.16735 0.27517 0.35496 0.0
C468 C 0.18295 0.31166 0.36456 0.0
C469 C 0.16845 0.31097 0.38003 0.0
C470 C 0.18382 0.3456 0.38904 0.0
C471 C 0.21394 0.381 0.38276 0.0
C472 C 0.22883 0.38181 0.36746 0.0
C473 C 0.21351 0.34726 0.35839 0.0
H474 H 0.22585 0.40777 0.38976 0.0
H475 H 0.08355 0.07102 0.30309 0.0
H476 H 0.19876 0.9408 0.1486 0.0
H477 H 0.13203 0.88477 0.14701 0.0
H478 H 0.15954 0.85149 0.10163 0.0
H479 H 0.22675 0.90813 0.10309 0.0
H480 H 0.0969 0.86145 0.09942 0.0
H481 H 0.13381 0.78919 0.13357 0.0
H482 H 0.16491 0.77671 0.15677 0.0
H483 H 0.0897 0.7951 0.18871 0.0
H484 H 0.05851 0.80827 0.16573 0.0
H485 H 0.8922 0.71535 0.09673 0.0
H486 H 0.96401 0.7463 0.09689 0.0
H487 H 0.96834 0.79856 0.14287 0.0
H488 H 0.89641 0.76727 0.14295 0.0
H489 H 0.01627 0.76724 0.14206 0.0
H490 H 0.98989 0.85208 0.1083 0.0
H491 H 0.95952 0.8664 0.08532 0.0
H492 H 0.01619 0.82526 0.05291 0.0
H493 H 0.04653 0.81026 0.07574 0.0
C494 C 0.191 0.921 0.13847 0.0
C495 C 0.21785 0.92911 0.12589 0.0
C496 C 0.15285 0.88876 0.13763 0.0
C497 C 0.14079 0.86388 0.12421 0.0
C498 C 0.16833 0.87032 0.11211 0.0
C499 C 0.20674 0.90256 0.113 0.0
C500 C 0.09825 0.83522 0.12193 0.0
C501 C 0.07939 0.84004 0.10854 0.0
C502 C 0.07535 0.80792 0.13398 0.0
C503 C 0.09392 0.7999 0.14789 0.0
C504 C 0.12407 0.79085 0.14554 0.0
C505 C 0.14169 0.7836 0.15866 0.0
C506 C 0.12932 0.78515 0.17421 0.0
C507 C 0.09924 0.79389 0.17666 0.0
C508 C 0.08152 0.80117 0.16359 0.0
C509 C 0.90838 0.73367 0.10684 0.0
C510 C 0.88852 0.73908 0.11979 0.0
C511 C 0.94945 0.75128 0.10691 0.0
C512 C 0.97148 0.77484 0.11986 0.0
C513 C 0.95182 0.7803 0.13279 0.0
C514 C 0.91074 0.76264 0.13276 0.0
C515 C 0.01514 0.79458 0.11987 0.0
C516 C 0.03401 0.78801 0.1328 0.0
C517 C 0.03813 0.82041 0.10744 0.0
C518 C 0.02007 0.82961 0.09372 0.0
C519 C -0.00438 0.84581 0.09628 0.0
C520 C 0.97847 0.8541 0.08328 0.0
C521 C 0.98581 0.84662 0.06767 0.0
C522 C 0.01046 0.83096 0.06501 0.0
C523 C 0.02765 0.82258 0.07797 0.0
H524 H 0.97249 0.85304 0.05762 0.0
H525 H 0.143 0.77954 0.18435 0.0
H526 H 0.68626 0.76743 0.35088 0.0
H527 H 0.67877 0.8249 0.34533 0.0
H528 H 0.77784 0.89592 0.37624 0.0
H529 H 0.78557 0.83946 0.38175 0.0
H530 H 0.7148 0.9086 0.38099 0.0
H531 H 0.79181 0.8952 0.3368 0.0
H532 H 0.79806 0.85945 0.3137 0.0
H533 H 0.69894 0.85809 0.29102 0.0
H534 H 0.69191 0.8935 0.3141 0.0
H535 H 0.86596 0.09029 0.36304 0.0
H536 H 0.82468 0.01969 0.35873 0.0
H537 H 0.7274 0.03521 0.34472 0.0
H538 H 0.76853 0.10642 0.34911 0.0
H539 H 0.75808 0.9713 0.32758 0.0
H540 H 0.6937 0.00097 0.37175 0.0
H541 H 0.69763 0.04133 0.39514 0.0
H542 H 0.77872 0.01354 0.41806 0.0
H543 H 0.7757 0.97348 0.39472 0.0
C544 C 0.70614 0.79528 0.35658 0.0
C545 C 0.73669 0.79907 0.36666 0.0
C546 C 0.70179 0.82794 0.35341 0.0
C547 C 0.72767 0.86447 0.36044 0.0
C548 C 0.75737 0.86786 0.37081 0.0
C549 C 0.76196 0.83561 0.37383 0.0
C550 C 0.72653 0.9005 0.35648 0.0
C551 C 0.72295 0.92187 0.36918 0.0
C552 C 0.73665 0.91756 0.34105 0.0
C553 C 0.74101 0.89645 0.32722 0.0
C554 C 0.77119 0.88699 0.32693 0.0
C555 C 0.77491 0.86686 0.31384 0.0
C556 C 0.74882 0.85637 0.30092 0.0
C557 C 0.71905 0.86613 0.30105 0.0
C558 C 0.71518 0.88621 0.31413 0.0
C559 C 0.83606 0.07896 0.35876 0.0
C560 C 0.82038 0.10389 0.35663 0.0
C561 C 0.81262 0.03866 0.3562 0.0
C562 C 0.77316 0.02255 0.35148 0.0
C563 C 0.75792 0.04737 0.34831 0.0
C564 C 0.78146 0.08794 0.35087 0.0
C565 C 0.74759 0.97953 0.35222 0.0
C566 C 0.74684 0.95702 0.33905 0.0
C567 C 0.73355 0.96134 0.36724 0.0
C568 C 0.73455 0.9844 0.38149 0.0
C569 C 0.71249 0.00365 0.38175 0.0
C570 C 0.71455 0.02645 0.39499 0.0
C571 C 0.73843 0.03004 0.40806 0.0
C572 C 0.76021 0.01072 0.40794 0.0
C573 C 0.75829 0.98791 0.39472 0.0
H574 H 0.74002 0.04775 0.41828 0.0
H575 H 0.75175 0.84079 0.2908 0.0
H576 H 0.28743 0.06689 0.61205 0.0
H577 H 0.27224 0.11706 0.62137 0.0
H578 H 0.20809 0.04323 0.66149 0.0
H579 H 0.22323 0.9932 0.65213 0.0
H580 H 0.16202 0.05556 0.64051 0.0
H581 H 0.28131 0.13344 0.66916 0.0
H582 H 0.35321 0.16962 0.67372 0.0
H583 H 0.36858 0.24838 0.63516 0.0
H584 H 0.29683 0.21234 0.63018 0.0
H585 H 0.07886 0.18006 0.64649 0.0
H586 H 0.11077 0.14224 0.65416 0.0
H587 H 0.20663 0.21195 0.62152 0.0
H588 H 0.17612 0.25121 0.61487 0.0
H589 H 0.23628 0.20079 0.64636 0.0
H590 H 0.12281 0.11451 0.61325 0.0
H591 H 0.0521 0.07647 0.60624 0.0
H592 H 0.02747 0.01195 0.65031 0.0
H593 H 0.09801 0.04998 0.65767 0.0
C594 C 0.27191 0.06249 0.62329 0.0
C595 C 0.25657 0.02668 0.63149 0.0
C596 C 0.26321 0.09103 0.62862 0.0
C597 C 0.23896 0.0837 0.6421 0.0
C598 C 0.22698 0.04944 0.65112 0.0
C599 C 0.23569 0.02102 0.64581 0.0
C600 C 0.21914 0.10685 0.64448 0.0
C601 C 0.17809 0.08725 0.64223 0.0
C602 C 0.24036 0.14814 0.6463 0.0
C603 C 0.28361 0.17 0.64925 0.0
C604 C 0.30002 0.15828 0.66156 0.0
C605 C 0.34077 0.17881 0.66424 0.0
C606 C 0.36545 0.21125 0.65473 0.0
C607 C 0.34942 0.22326 0.64252 0.0
C608 C 0.30869 0.20281 0.63978 0.0
C609 C 0.10672 0.187 0.64103 0.0
C610 C 0.12508 0.21792 0.63001 0.0
C611 C 0.12491 0.1655 0.64536 0.0
C612 C 0.16089 0.17385 0.63825 0.0
C613 C 0.17905 0.20502 0.62725 0.0
C614 C 0.16151 0.22716 0.62333 0.0
C615 C 0.17938 0.14967 0.64164 0.0
C616 C 0.22007 0.16901 0.64502 0.0
C617 C 0.158 0.10808 0.64048 0.0
C618 C 0.11556 0.08551 0.63612 0.0
C619 C 0.10225 0.09246 0.6215 0.0
C620 C 0.06222 0.07086 0.61746 0.0
C621 C 0.03529 0.04193 0.62786 0.0
C622 C 0.04835 0.03446 0.6423 0.0
C623 C 0.08833 0.05604 0.64642 0.0
H624 H 0.00432 0.02522 0.6247 0.0
H625 H 0.39699 0.2271 0.65682 0.0
H626 H 0.10761 0.88321 0.84213 0.0
H627 H 0.03544 0.84343 0.84194 0.0
H628 H 0.03784 0.79404 0.88778 0.0
H629 H 0.10963 0.83375 0.8882 0.0
H630 H 0.98542 0.76319 0.84291 0.0
H631 H 0.95822 0.78113 0.90945 0.0
H632 H 0.99004 0.82866 0.93152 0.0
H633 H 0.04622 0.92306 0.89756 0.0
H634 H 0.0143 0.87622 0.87532 0.0
H635 H 0.77759 0.69235 0.88466 0.0
H636 H 0.84538 0.70407 0.88505 0.0
H637 H 0.86768 0.76253 0.83929 0.0
H638 H 0.8005 0.75083 0.83883 0.0
H639 H 0.90704 0.77853 0.88608 0.0
H640 H 0.94093 0.76025 0.81963 0.0
H641 H 0.90861 0.7144 0.79713 0.0
H642 H 0.83714 0.62194 0.83019 0.0
H643 H 0.8694 0.66703 0.8529 0.0
C644 C 0.09278 0.86399 0.8522 0.0
C645 C 0.11441 0.86193 0.86523 0.0
C646 C 0.05159 0.84111 0.85202 0.0
C647 C 0.03137 0.81592 0.86487 0.0
C648 C 0.05287 0.81358 0.87782 0.0
C649 C 0.09394 0.83646 0.87804 0.0
C650 C 0.98769 0.79284 0.86493 0.0
C651 C 0.96816 0.76664 0.85227 0.0
C652 C 0.96538 0.79649 0.87745 0.0
C653 C 0.98424 0.82506 0.89073 0.0
C654 C 0.97726 0.81205 0.90671 0.0
C655 C -0.00468 0.83887 0.91924 0.0
C656 C 0.02025 0.87883 0.91594 0.0
C657 C 0.02703 0.89209 0.9001 0.0
C658 C 0.00899 0.8654 0.88753 0.0
C659 C 0.79658 0.70637 0.87444 0.0
C660 C 0.78402 0.72099 0.86178 0.0
C661 C 0.8353 0.71325 0.87471 0.0
C662 C 0.86156 0.73416 0.8622 0.0
C663 C 0.84788 0.74588 0.84897 0.0
C664 C 0.8095 0.73938 0.84877 0.0
C665 C 0.90447 0.74927 0.86387 0.0
C666 C 0.92408 0.77425 0.87686 0.0
C667 C 0.92675 0.74467 0.85159 0.0
C668 C 0.90747 0.71717 0.83798 0.0
C669 C 0.91849 0.73008 0.82211 0.0
C670 C 0.90013 0.70423 0.80932 0.0
C671 C 0.87078 0.66531 0.81223 0.0
C672 C 0.85979 0.65214 0.82795 0.0
C673 C 0.87805 0.67786 0.84079 0.0
H674 H 0.8566 0.64535 0.8023 0.0
H675 H 0.03424 0.89953 0.92566 0.0
H676 H 0.79321 0.90397 0.62573 0.0
H677 H 0.8271 0.9737 0.63265 0.0
H678 H 0.72248 0.95776 0.65665 0.0
H679 H 0.68807 0.88792 0.64964 0.0
H680 H 0.74951 0.01723 0.63594 0.0
H681 H 0.80433 0.98069 0.6785 0.0
H682 H 0.83566 0.94686 0.69144 0.0
H683 H 0.93907 0.01212 0.66237 0.0
H684 H 0.90816 0.04593 0.64906 0.0
H685 H 0.93983 0.22503 0.65311 0.0
H686 H 0.88346 0.16309 0.66279 0.0
H687 H 0.85815 0.11938 0.61426 0.0
H688 H 0.91482 0.18039 0.60472 0.0
H689 H 0.8856 0.09344 0.65757 0.0
H690 H 0.76054 0.05629 0.61074 0.0
H691 H 0.72912 0.08988 0.59767 0.0
H692 H 0.76514 0.17241 0.63657 0.0
H693 H 0.79626 0.13899 0.65001 0.0
C694 C 0.77753 0.91509 0.63269 0.0
C695 C 0.73782 0.8904 0.637 0.0
C696 C 0.79704 0.95495 0.63673 0.0
C697 C 0.77737 0.97083 0.64528 0.0
C698 C 0.73818 0.94605 0.65008 0.0
C699 C 0.71861 0.90614 0.64604 0.0
C700 C 0.79674 0.01394 0.64771 0.0
C701 C 0.77902 0.03397 0.6409 0.0
C702 C 0.83474 0.03565 0.65462 0.0
C703 C 0.85384 0.01586 0.66277 0.0
C704 C 0.83369 0.98774 0.67481 0.0
C705 C 0.85139 0.96856 0.68222 0.0
C706 C 0.88934 0.97735 0.67774 0.0
C707 C 0.9097 0.00539 0.66585 0.0
C708 C 0.89212 0.02465 0.6584 0.0
C709 C 0.92113 0.20272 0.64451 0.0
C710 C 0.93124 0.20718 0.6282 0.0
C711 C 0.8892 0.1674 0.65004 0.0
C712 C 0.86664 0.13682 0.63922 0.0
C713 C 0.87485 0.14282 0.62277 0.0
C714 C 0.90717 0.17759 0.61732 0.0
C715 C 0.83926 0.09645 0.64491 0.0
C716 C 0.85552 0.0768 0.65316 0.0
C717 C 0.7999 0.0751 0.63937 0.0
C718 C 0.78086 0.09512 0.63138 0.0
C719 C 0.76153 0.08141 0.61658 0.0
C720 C 0.74382 0.10048 0.60908 0.0
C721 C 0.74517 0.13328 0.61627 0.0
C722 C 0.76419 0.14706 0.63099 0.0
C723 C 0.78193 0.12809 0.63854 0.0
H724 H 0.73145 0.148 0.61045 0.0
H725 H 0.90297 0.96243 0.68347 0.0
H726 H 0.1458 0.25031 0.89084 0.0
H727 H 0.18211 0.21552 0.88699 0.0
H728 H 0.12332 0.17049 0.84174 0.0
H729 H 0.08654 0.20511 0.84548 0.0
H730 H 0.1286 0.11464 0.85976 0.0
H731 H 0.21457 0.24819 0.84249 0.0
H732 H 0.25073 0.32043 0.8455 0.0
H733 H 0.31587 0.3115 0.88505 0.0
H734 H 0.27958 0.2391 0.88247 0.0
H735 H 0.24417 0.04344 0.83009 0.0
H736 H 0.22102 0.09065 0.83114 0.0
H737 H 0.27785 0.13241 0.87696 0.0
H738 H 0.30174 0.08552 0.87588 0.0
H739 H 0.2752 0.1915 0.8585 0.0
H740 H 0.18825 0.06009 0.87741 0.0
H741 H 0.15231 0.9876 0.87558 0.0
H742 H 0.08895 0.99251 0.83451 0.0
H743 H 0.12504 0.06512 0.83592 0.0
C744 C 0.14015 0.23267 0.88013 0.0
C745 C 0.11342 0.23074 0.86839 0.0
C746 C 0.16117 0.21303 0.87792 0.0
C747 C 0.15595 0.19118 0.86394 0.0
C748 C 0.12795 0.18754 0.85256 0.0
C749 C 0.10691 0.20727 0.85473 0.0
C750 C 0.18008 0.17248 0.86111 0.0
C751 C 0.16061 0.1315 0.85924 0.0
C752 C 0.22191 0.19453 0.86091 0.0
C753 C 0.24404 0.23814 0.86238 0.0
C754 C 0.23636 0.26158 0.85192 0.0
C755 C 0.25692 0.30258 0.85354 0.0
C756 C 0.2855 0.32054 0.86549 0.0
C757 C 0.29367 0.29754 0.87582 0.0
C758 C 0.27312 0.25652 0.87428 0.0
C759 C 0.25291 0.06363 0.84013 0.0
C760 C 0.2741 0.06039 0.85305 0.0
C761 C 0.23963 0.09052 0.84072 0.0
C762 C 0.24688 0.11414 0.85432 0.0
C763 C 0.27179 0.11416 0.86641 0.0
C764 C 0.28546 0.08742 0.86576 0.0
C765 C 0.22362 0.13382 0.85697 0.0
C766 C 0.2432 0.17479 0.85891 0.0
C767 C 0.18183 0.11179 0.85743 0.0
C768 C 0.15965 0.06808 0.85667 0.0
C769 C 0.16687 0.04573 0.86791 0.0
C770 C 0.14645 0.00462 0.86696 0.0
C771 C 0.11843 0.98546 0.85492 0.0
C772 C 0.1107 0.00739 0.84382 0.0
C773 C 0.13112 0.04853 0.84469 0.0
H774 H 0.10265 0.95362 0.8542 0.0
H775 H 0.30138 0.35228 0.86672 0.0
H776 H 0.07162 0.87348 0.61166 0.0
H777 H 0.0012 0.83943 0.61796 0.0
H778 H 0.01491 0.75763 0.64795 0.0
H779 H 0.08518 0.79108 0.64162 0.0
H780 H 0.95271 0.72017 0.62799 0.0
H781 H 0.00079 0.82675 0.6652 0.0
H782 H 0.03893 0.89615 0.67378 0.0
H783 H 0.97044 0.92538 0.64248 0.0
H784 H 0.9322 0.85623 0.63354 0.0
H785 H 0.75688 0.71874 0.65415 0.0
H786 H 0.82163 0.72615 0.66019 0.0
H787 H 0.83876 0.71354 0.60992 0.0
H788 H 0.77435 0.70643 0.60395 0.0
H789 H 0.88515 0.79029 0.64776 0.0
H790 H 0.90479 0.68309 0.60532 0.0
H791 H 0.86683 0.61361 0.59687 0.0
H792 H 0.79923 0.584 0.64033 0.0
H793 H 0.83714 0.65318 0.64917 0.0
C794 C 0.05974 0.84842 0.61967 0.0
C795 C 0.08402 0.83502 0.62612 0.0
C796 C 0.01955 0.8291 0.62331 0.0
C797 C 0.00306 0.79629 0.63354 0.0
C798 C 0.02718 0.78296 0.64006 0.0
C799 C 0.06734 0.80221 0.63643 0.0
C800 C 0.96026 0.77508 0.63689 0.0
C801 C 0.93784 0.73528 0.63247 0.0
C802 C 0.94122 0.79471 0.64312 0.0
C803 C 0.96372 0.83627 0.64865 0.0
C804 C 0.99397 0.848 0.66009 0.0
C805 C 0.0156 0.8873 0.66502 0.0
C806 C 0.00715 0.91516 0.65866 0.0
C807 C 0.97694 0.90376 0.6474 0.0
C808 C 0.95523 0.86449 0.64242 0.0
C809 C 0.77383 0.7157 0.64456 0.0
C810 C 0.76096 0.71163 0.62865 0.0
C811 C 0.81074 0.72012 0.64799 0.0
C812 C 0.83486 0.72031 0.63551 0.0
C813 C 0.82034 0.71282 0.61975 0.0
C814 C 0.78364 0.70876 0.61633 0.0
C815 C 0.87738 0.73578 0.63824 0.0
C816 C 0.89993 0.77473 0.64371 0.0
C817 C 0.89646 0.71529 0.63305 0.0
C818 C 0.87376 0.67346 0.62788 0.0
C819 C 0.88202 0.66175 0.61313 0.0
C820 C 0.86045 0.6224 0.60826 0.0
C821 C 0.8306 0.59442 0.61804 0.0
C822 C 0.82229 0.60572 0.63274 0.0
C823 C 0.84377 0.64503 0.63767 0.0
H824 H 0.81393 0.56398 0.61425 0.0
H825 H 0.02397 0.94558 0.66248 0.0
H826 H 0.91281 0.22023 0.84148 0.0
H827 H 0.85841 0.15198 0.84204 0.0
H828 H 0.87677 0.14744 0.8929 0.0
H829 H 0.92807 0.21634 0.89245 0.0
H830 H 0.86782 0.0966 0.84556 0.0
H831 H 0.80866 0.07132 0.91197 0.0
H832 H 0.78412 0.10177 0.93119 0.0
H833 H 0.75867 0.15766 0.89252 0.0
H834 H 0.7825 0.12711 0.87304 0.0
H835 H 0.81445 0.90316 0.86611 0.0
H836 H 0.84415 0.97504 0.86493 0.0
H837 H 0.73109 0.9629 0.87657 0.0
H838 H 0.7027 0.89222 0.87912 0.0
H839 H 0.77725 0.02132 0.88995 0.0
H840 H 0.77476 0.98144 0.83624 0.0
H841 H 0.78634 0.94867 0.81339 0.0
H842 H 0.9116 0.02042 0.82012 0.0
H843 H 0.90077 0.05329 0.84315 0.0
C844 C 0.90348 0.20504 0.85287 0.0
C845 C 0.92398 0.22325 0.86695 0.0
C846 C 0.8728 0.16595 0.85319 0.0
C847 C 0.86341 0.1441 0.86749 0.0
C848 C 0.88235 0.16347 0.88176 0.0
C849 C 0.9119 0.20297 0.88152 0.0
C850 C 0.83929 0.10038 0.86711 0.0
C851 C 0.84742 0.08021 0.85514 0.0
C852 C 0.81193 0.07849 0.87932 0.0
C853 C 0.79769 0.09711 0.89103 0.0
C854 C 0.79766 0.08995 0.90755 0.0
C855 C 0.78391 0.10727 0.9185 0.0
C856 C 0.76994 0.13171 0.91308 0.0
C857 C 0.76964 0.13884 0.89671 0.0
C858 C 0.78335 0.12159 0.8857 0.0
C859 C 0.79635 0.91624 0.86857 0.0
C860 C 0.75656 0.89259 0.87279 0.0
C861 C 0.81305 0.95715 0.86771 0.0
C862 C 0.7896 0.97459 0.87025 0.0
C863 C 0.74988 0.95052 0.87456 0.0
C864 C 0.73366 0.91007 0.87602 0.0
C865 C 0.80601 0.01773 0.86849 0.0
C866 C 0.79675 0.03771 0.88014 0.0
C867 C 0.83017 0.03917 0.85537 0.0
C868 C 0.83692 0.0196 0.8415 0.0
C869 C 0.80477 0.99007 0.8329 0.0
C870 C 0.8112 0.97149 0.81992 0.0
C871 C 0.84968 0.9824 0.81533 0.0
C872 C 0.88181 0.01198 0.8237 0.0
C873 C 0.87555 0.03063 0.83671 0.0
H874 H 0.8546 0.96798 0.80527 0.0
H875 H 0.7593 0.14508 0.92158 0.0
H876 H 0.3743 0.05147 0.31751 0.0
H877 H 0.38347 0.04541 0.28888 0.0
H878 H 0.38433 0.15411 0.28003 0.0
H879 H 0.37626 0.16093 0.30853 0.0
H880 H 0.3358 0.035 0.26563 0.0
H881 H 0.43614 0.20044 0.24766 0.0
H882 H 0.49299 0.26043 0.25867 0.0
H883 H 0.52477 0.18975 0.28729 0.0
H884 H 0.46848 0.12934 0.2763 0.0
H885 H 0.29853 0.06552 0.18679 0.0
H886 H 0.30992 0.06803 0.21558 0.0
H887 H 0.43159 0.10158 0.20715 0.0
H888 H 0.42073 0.10055 0.17824 0.0
H889 H 0.42926 0.14338 0.23023 0.0
H890 H 0.3615 0.00652 0.21963 0.0
H891 H 0.30965 0.94319 0.20861 0.0
H892 H 0.22244 0.95047 0.23725 0.0
H893 H 0.27366 0.01413 0.24828 0.0
C894 C 0.37712 0.07443 0.3095 0.0
C895 C 0.37443 0.10664 0.31534 0.0
C896 C 0.38227 0.07086 0.29313 0.0
C897 C 0.38488 0.09942 0.28229 0.0
C898 C 0.38321 0.13207 0.28816 0.0
C899 C 0.37834 0.1358 0.3045 0.0
C900 C 0.38605 0.09377 0.26475 0.0
C901 C 0.35647 0.05858 0.2579 0.0
C902 C 0.4137 0.12404 0.25465 0.0
C903 C 0.44787 0.16033 0.26122 0.0
C904 C 0.45537 0.19768 0.25624 0.0
C905 C 0.48748 0.23177 0.26249 0.0
C906 C 0.51242 0.2289 0.2737 0.0
C907 C 0.50535 0.19194 0.27865 0.0
C908 C 0.47331 0.15776 0.27243 0.0
C909 C 0.32771 0.07336 0.19105 0.0
C910 C 0.3587 0.08272 0.18023 0.0
C911 C 0.33414 0.07454 0.20753 0.0
C912 C 0.37143 0.08421 0.21356 0.0
C913 C 0.40253 0.09389 0.20279 0.0
C914 C 0.39627 0.09327 0.18627 0.0
C915 C 0.37798 0.08527 0.23113 0.0
C916 C 0.40898 0.11958 0.23797 0.0
C917 C 0.3524 0.05369 0.24123 0.0
C918 C 0.32144 0.01525 0.23471 0.0
C919 C 0.33123 0.99474 0.22351 0.0
C920 C 0.30195 0.95876 0.21727 0.0
C921 C 0.26276 0.94285 0.22221 0.0
C922 C 0.2528 0.96284 0.23343 0.0
C923 C 0.28196 -0.00115 0.2397 0.0
H924 H 0.24014 0.915 0.21736 0.0
H925 H 0.53725 0.25533 0.27853 0.0
H926 H 0.67261 0.64789 0.31859 0.0
H927 H 0.6623 0.6363 0.28971 0.0
H928 H 0.76266 0.61903 0.28711 0.0
H929 H 0.77253 0.62948 0.31581 0.0
H930 H 0.70859 0.67833 0.2665 0.0
H931 H 0.75457 0.55899 0.25756 0.0
H932 H 0.74665 0.50014 0.27154 0.0
H933 H 0.6433 0.48633 0.29541 0.0
H934 H 0.65023 0.54473 0.28141 0.0
H935 H 0.78543 0.69378 0.18972 0.0
H936 H 0.77465 0.68745 0.21864 0.0
H937 H 0.67378 0.57121 0.21209 0.0
H938 H 0.68518 0.57678 0.18321 0.0
H939 H 0.7127 0.57074 0.23695 0.0
H940 H 0.66265 0.652 0.2192 0.0
H941 H 0.66303 0.70722 0.20499 0.0
H942 H 0.75941 0.78984 0.23425 0.0
H943 H 0.76002 0.73512 0.24849 0.0
C944 C 0.69208 0.641 0.31189 0.0
C945 C 0.72345 0.63971 0.31951 0.0
C946 C 0.68619 0.63446 0.2954 0.0
C947 C 0.71147 0.62644 0.28627 0.0
C948 C 0.74224 0.62434 0.29393 0.0
C949 C 0.748 0.63061 0.31037 0.0
C950 C 0.70803 0.62335 0.26859 0.0
C951 C 0.70911 0.65462 0.26004 0.0
C952 C 0.70772 0.59193 0.26015 0.0
C953 C 0.70311 0.55645 0.26849 0.0
C954 C 0.73002 0.54328 0.26571 0.0
C955 C 0.72573 0.51002 0.27366 0.0
C956 C 0.69455 0.48956 0.28438 0.0
C957 C 0.66752 0.50227 0.28714 0.0
C958 C 0.67165 0.53549 0.27922 0.0
C959 C 0.76114 0.66675 0.19445 0.0
C960 C 0.73605 0.63587 0.18418 0.0
C961 C 0.75483 0.66327 0.21096 0.0
C962 C 0.72285 0.62921 0.21749 0.0
C963 C 0.69851 0.59784 0.20731 0.0
C964 C 0.70511 0.60108 0.1908 0.0
C965 C 0.71484 0.62649 0.23493 0.0
C966 C 0.71161 0.59415 0.24342 0.0
C967 C 0.71196 0.65634 0.24329 0.0
C968 C 0.71154 0.68942 0.23484 0.0
C969 C 0.68409 0.68194 0.22254 0.0
C970 C 0.68411 0.71316 0.21449 0.0
C971 C 0.71127 0.75201 0.21869 0.0
C972 C 0.7384 0.75973 0.231 0.0
C973 C 0.73855 0.72862 0.23908 0.0
H974 H 0.71125 0.77614 0.21244 0.0
H975 H 0.6913 0.46384 0.29053 0.0
H976 H 0.95986 0.26634 0.19092 0.0
H977 H 0.95712 0.27657 0.21956 0.0
H978 H 0.84305 0.26694 0.21366 0.0
H979 H 0.84661 0.25862 0.18473 0.0
H980 H 0.88324 0.32238 0.23395 0.0
H981 H 0.85471 0.18977 0.22912 0.0
H982 H 0.86406 0.13505 0.22029 0.0
H983 H 0.97453 0.1858 0.24545 0.0
H984 H 0.96611 0.24114 0.25425 0.0
H985 H 0.83178 0.26632 0.31786 0.0
H986 H 0.83434 0.2697 0.28854 0.0
H987 H 0.96053 0.31902 0.29003 0.0
H988 H 0.95852 0.31661 0.3193 0.0
H989 H 0.91154 0.24325 0.27233 0.0
H990 H 0.93563 0.37619 0.27741 0.0
H991 H 0.9205 0.42677 0.28672 0.0
H992 H 0.80969 0.36851 0.26175 0.0
H993 H 0.8239 0.31721 0.25248 0.0
C994 C 0.9341 0.26623 0.19572 0.0
C995 C 0.90325 0.26127 0.18561 0.0
C996 C 0.9325 0.27198 0.21212 0.0
C997 C 0.89948 0.27167 0.21887 0.0
C998 C 0.86878 0.26716 0.20876 0.0
C999 C 0.87075 0.26223 0.19225 0.0
C1000 C 0.89717 0.27599 0.23646 0.0
C1001 C 0.8889 0.30467 0.24233 0.0
C1002 C 0.90479 0.25311 0.24745 0.0
C1003 C 0.90993 0.21979 0.24223 0.0
C1004 C 0.88113 0.18941 0.23268 0.0
C1005 C 0.88625 0.15826 0.22769 0.0
C1006 C 0.91991 0.157 0.23227 0.0
C1007 C 0.94849 0.18684 0.24189 0.0
C1008 C 0.94354 0.21809 0.2469 0.0
C1009 C 0.8602 0.2788 0.31196 0.0
C1010 C 0.89492 0.29096 0.32089 0.0
C1011 C 0.86158 0.28076 0.29523 0.0
C1012 C 0.89759 0.29446 0.28721 0.0
C1013 C 0.9325 0.30843 0.29608 0.0
C1014 C 0.93127 0.30715 0.31279 0.0
C1015 C 0.89828 0.28989 0.26968 0.0
C1016 C 0.90595 0.2609 0.26388 0.0
C1017 C 0.8892 0.31179 0.25884 0.0
C1018 C 0.88064 0.3426 0.26441 0.0
C1019 C 0.90784 0.37391 0.27405 0.0
C1020 C 0.89948 0.40278 0.27928 0.0
C1021 C 0.8641 0.40079 0.27487 0.0
C1022 C 0.83705 0.36998 0.26518 0.0
C1023 C 0.84527 0.34102 0.25992 0.0
H1024 H 0.85769 0.42318 0.27893 0.0
H1025 H 0.92382 0.13286 0.2284 0.0
H1026 H 0.1414 0.35264 0.67573 0.0
H1027 H 0.13978 0.35772 0.70476 0.0
H1028 H 0.03493 0.36719 0.70121 0.0
H1029 H 0.03568 0.36109 0.67208 0.0
H1030 H 0.14263 0.40833 0.72614 0.0
H1031 H 0.97295 0.31505 0.73172 0.0
H1032 H 0.91604 0.26478 0.71632 0.0
H1033 H 0.99045 0.2274 0.69388 0.0
H1034 H 0.04761 0.27703 0.7093 0.0
H1035 H 0.09421 0.40611 0.80802 0.0
H1036 H 0.09552 0.41224 0.77889 0.0
H1037 H 0.05848 0.28898 0.77418 0.0
H1038 H 0.05568 0.28232 0.80331 0.0
H1039 H 0.02118 0.30674 0.7533 0.0
H1040 H 0.1569 0.36405 0.76927 0.0
H1041 H 0.21711 0.40912 0.78436 0.0
H1042 H 0.21645 0.50868 0.76344 0.0
H1043 H 0.15592 0.46417 0.74839 0.0
C1044 C 0.11824 0.35633 0.68106 0.0
C1045 C 0.08832 0.35588 0.67158 0.0
C1046 C 0.11746 0.35936 0.69769 0.0
C1047 C 0.08687 0.36213 0.70516 0.0
C1048 C 0.0584 0.36431 0.69568 0.0
C1049 C 0.05896 0.36096 0.67903 0.0
C1050 C 0.08343 0.3599 0.72285 0.0
C1051 C 0.11599 0.38632 0.73209 0.0
C1052 C 0.04897 0.3306 0.7306 0.0
C1053 C 0.01461 0.30007 0.72152 0.0
C1054 C 0.9771 0.29599 0.72354 0.0
C1055 C 0.94481 0.26762 0.71481 0.0
C1056 C 0.94966 0.24302 0.70408 0.0
C1057 C 0.98676 0.24657 0.70214 0.0
C1058 C 0.01911 0.27483 0.71087 0.0
C1059 C 0.08632 0.3803 0.80078 0.0
C1060 C 0.07507 0.34376 0.80796 0.0
C1061 C 0.08719 0.38388 0.78412 0.0
C1062 C 0.07769 0.35121 0.77433 0.0
C1063 C 0.06592 0.31459 0.78148 0.0
C1064 C 0.06446 0.31085 0.79814 0.0
C1065 C 0.08044 0.35517 0.75663 0.0
C1066 C 0.0477 0.32907 0.74738 0.0
C1067 C 0.11519 0.38398 0.74886 0.0
C1068 C 0.15168 0.41079 0.75784 0.0
C1069 C 0.16945 0.39556 0.76798 0.0
C1070 C 0.20365 0.421 0.77651 0.0
C1071 C 0.22053 0.46174 0.77489 0.0
C1072 C 0.20331 0.47712 0.7647 0.0
C1073 C 0.16908 0.4518 0.75616 0.0
H1074 H 0.247 0.48139 0.78151 0.0
H1075 H 0.92466 0.22114 0.6973 0.0
H1076 H 0.30741 0.88024 0.80538 0.0
H1077 H 0.31641 0.87672 0.77661 0.0
H1078 H 0.2418 0.9262 0.76735 0.0
H1079 H 0.23314 0.93049 0.79611 0.0
H1080 H 0.26706 0.83799 0.75317 0.0
H1081 H 0.27391 0.98453 0.73479 0.0
H1082 H 0.29751 0.05081 0.746 0.0
H1083 H 0.37944 0.03815 0.77605 0.0
H1084 H 0.35677 0.97207 0.76485 0.0
H1085 H 0.21143 0.83655 0.6735 0.0
H1086 H 0.22241 0.83982 0.70221 0.0
H1087 H 0.34141 0.9361 0.69558 0.0
H1088 H 0.33013 0.93391 0.66664 0.0
H1089 H 0.30822 0.95411 0.71806 0.0
H1090 H 0.32123 0.8424 0.70819 0.0
H1091 H 0.30423 0.77758 0.69706 0.0
H1092 H 0.19573 0.72323 0.72366 0.0
H1093 H 0.21177 0.78779 0.73478 0.0
C1094 C 0.29286 0.89038 0.79724 0.0
C1095 C 0.26964 0.90581 0.80308 0.0
C1096 C 0.29803 0.88828 0.78078 0.0
C1097 C 0.28024 0.90168 0.76983 0.0
C1098 C 0.25645 0.91639 0.77559 0.0
C1099 C 0.25133 0.91861 0.79205 0.0
C1100 C 0.28601 0.8998 0.75235 0.0
C1101 C 0.27624 0.86339 0.74548 0.0
C1102 C 0.29927 0.93324 0.74238 0.0
C1103 C 0.31337 0.97318 0.74906 0.0
C1104 C 0.29708 0.99596 0.74373 0.0
C1105 C 0.31028 0.03348 0.7501 0.0
C1106 C 0.33987 0.04863 0.76176 0.0
C1107 C 0.35642 0.02633 0.76705 0.0
C1108 C 0.34337 0.98881 0.76072 0.0
C1109 C 0.24023 0.85807 0.67805 0.0
C1110 C 0.26986 0.88511 0.66774 0.0
C1111 C 0.24654 0.85974 0.69453 0.0
C1112 C 0.28289 0.88793 0.7011 0.0
C1113 C 0.31311 0.91409 0.69079 0.0
C1114 C 0.30666 0.91273 0.67425 0.0
C1115 C 0.2878 0.89191 0.71877 0.0
C1116 C 0.29955 0.92876 0.72572 0.0
C1117 C 0.27736 0.85906 0.72883 0.0
C1118 C 0.26765 0.82003 0.72226 0.0
C1119 C 0.29363 0.81667 0.7116 0.0
C1120 C 0.28417 0.77996 0.7053 0.0
C1121 C 0.2489 0.74632 0.70964 0.0
C1122 C 0.22305 0.74931 0.72031 0.0
C1123 C 0.23234 0.78596 0.72664 0.0
H1124 H 0.24163 0.71793 0.70474 0.0
H1125 H 0.35003 0.07768 0.76668 0.0
H1126 H 0.59153 0.75147 0.6769 0.0
H1127 H 0.5951 0.75154 0.70606 0.0
H1128 H 0.6362 0.66824 0.70405 0.0
H1129 H 0.63246 0.66766 0.67479 0.0
H1130 H 0.58691 0.65522 0.72991 0.0
H1131 H 0.70245 0.76181 0.70612 0.0
H1132 H 0.73882 0.81907 0.68831 0.0
H1133 H 0.69226 0.8817 0.71393 0.0
H1134 H 0.65508 0.82453 0.73174 0.0
H1135 H 0.71711 0.77074 0.80345 0.0
H1136 H 0.70831 0.7607 0.77447 0.0
H1137 H 0.58247 0.70972 0.78014 0.0
H1138 H 0.5908 0.71901 0.80903 0.0
H1139 H 0.67897 0.7877 0.75215 0.0
H1140 H 0.53474 0.63557 0.75347 0.0
H1141 H 0.50213 0.57706 0.77092 0.0
H1142 H 0.61466 0.60346 0.78997 0.0
H1143 H 0.64799 0.66178 0.77249 0.0
C1144 C 0.60052 0.73247 0.68263 0.0
C1145 C 0.61235 0.71005 0.6735 0.0
C1146 C 0.60263 0.73265 0.6993 0.0
C1147 C 0.61678 0.71061 0.70713 0.0
C1148 C 0.62546 0.68566 0.69818 0.0
C1149 C 0.62328 0.68537 0.68146 0.0
C1150 C 0.62586 0.71643 0.72445 0.0
C1151 C 0.60694 0.68413 0.73481 0.0
C1152 C 0.6529 0.75405 0.73071 0.0
C1153 C 0.67571 0.78874 0.72018 0.0
C1154 C 0.69976 0.78769 0.70789 0.0
C1155 C 0.72054 0.82014 0.6978 0.0
C1156 C 0.71778 0.85398 0.69996 0.0
C1157 C 0.69433 0.85546 0.71225 0.0
C1158 C 0.67342 0.82305 0.72236 0.0
C1159 C 0.68759 0.75753 0.79853 0.0
C1160 C 0.65465 0.74545 0.80858 0.0
C1161 C 0.68262 0.75184 0.78197 0.0
C1162 C 0.64469 0.73389 0.7752 0.0
C1163 C 0.61193 0.72289 0.78515 0.0
C1164 C 0.61681 0.72843 0.80167 0.0
C1165 C 0.63918 0.72665 0.75773 0.0
C1166 C 0.65889 0.75874 0.7473 0.0
C1167 C 0.61351 0.68868 0.75139 0.0
C1168 C 0.5938 0.65326 0.76177 0.0
C1169 C 0.55254 0.62878 0.76133 0.0
C1170 C 0.53393 0.59567 0.77123 0.0
C1171 C 0.5563 0.58662 0.78158 0.0
C1172 C 0.59735 0.61058 0.782 0.0
C1173 C 0.61611 0.6437 0.7721 0.0
H1174 H 0.54183 0.561 0.78925 0.0
H1175 H 0.73388 0.87906 0.69213 0.0
H1176 H 0.23158 0.91955 0.93246 0.0
H1177 H 0.24178 0.93883 0.96063 0.0
H1178 H 0.34976 0.04518 0.94859 0.0
H1179 H 0.34008 0.026 0.92035 0.0
H1180 H 0.35916 0.01015 0.9748 0.0
H1181 H 0.2684 0.04969 0.95674 0.0
H1182 H 0.20818 0.04127 0.94366 0.0
H1183 H 0.13639 0.95129 0.97757 0.0
H1184 H 0.19621 0.95878 0.99072 0.0
H1185 H 0.31305 0.09256 0.05182 0.0
H1186 H 0.30855 0.08127 0.02294 0.0
H1187 H 0.32267 0.98017 0.02989 0.0
H1188 H 0.32761 0.99138 0.0588 0.0
H1189 H 0.25575 0.01951 0.00561 0.0
H1190 H 0.37492 0.97418 -0.00177 0.0
H1191 H 0.4372 0.98759 0.01109 0.0
H1192 H 0.4569 0.09981 0.02736 0.0
H1193 H 0.39509 0.08736 0.0144 0.0
C1194 C 0.2575 0.94709 0.93576 0.0
C1195 C 0.28494 0.9713 0.92411 0.0
C1196 C 0.26322 0.95809 0.95188 0.0
C1197 C 0.29635 0.99359 0.95667 0.0
C1198 C 0.324 0.01766 0.94513 0.0
C1199 C 0.3183 0.00671 0.92899 0.0
C1200 C 0.30199 0.00553 0.97374 0.0
C1201 C 0.3366 0.01225 0.98154 0.0
C1202 C 0.27286 0.00899 0.98244 0.0
C1203 C 0.2368 0.00457 0.97463 0.0
C1204 C 0.23977 0.0279 0.96133 0.0
C1205 C 0.20571 0.02333 0.95392 0.0
C1206 C 0.16848 0.9957 0.95976 0.0
C1207 C 0.16524 0.97266 0.97305 0.0
C1208 C 0.19922 0.97708 0.9805 0.0
C1209 C 0.31532 0.06796 0.04723 0.0
C1210 C 0.32076 0.0429 0.05765 0.0
C1211 C 0.31262 0.06151 0.03072 0.0
C1212 C 0.31558 0.0301 0.02428 0.0
C1213 C 0.32084 0.00492 0.03461 0.0
C1214 C 0.3235 0.01129 0.05114 0.0
C1215 C 0.31251 0.0233 0.00675 0.0
C1216 C 0.27836 0.0175 -0.00114 0.0
C1217 C 0.34241 0.02145 -0.00207 0.0
C1218 C 0.38014 0.02962 0.00547 0.0
C1219 C 0.39264 0.0018 0.00448 0.0
C1220 C 0.42785 0.00923 0.0118 0.0
C1221 C 0.45092 0.04447 0.02009 0.0
C1222 C 0.43893 0.07246 0.021 0.0
C1223 C 0.40379 0.06521 0.01368 0.0
H1224 H 0.47812 0.05012 0.02577 0.0
H1225 H 0.14214 0.9922 0.954 0.0
H1226 H 0.82343 0.80436 0.42804 0.0
H1227 H 0.82911 0.83095 0.45508 0.0
H1228 H 0.77579 0.71347 0.47454 0.0
H1229 H 0.7703 0.68676 0.44773 0.0
H1230 H 0.76957 0.81672 0.47439 0.0
H1231 H 0.80857 0.71369 0.51122 0.0
H1232 H 0.8522 0.68557 0.50862 0.0
H1233 H 0.92677 0.77818 0.47617 0.0
H1234 H 0.88397 0.80723 0.47875 0.0
H1235 H 0.67201 0.75578 0.54667 0.0
H1236 H 0.70325 0.76533 0.52066 0.0
H1237 H 0.81821 0.82991 0.54269 0.0
H1238 H 0.78698 0.81982 0.56907 0.0
H1239 H 0.81567 0.77682 0.5224 0.0
H1240 H 0.78538 0.87849 0.51896 0.0
H1241 H 0.74545 0.91069 0.52166 0.0
H1242 H 0.66221 0.83032 0.48739 0.0
H1243 H 0.70128 0.79723 0.48465 0.0
C1244 C 0.81352 0.78425 0.43811 0.0
C1245 C 0.79618 0.74338 0.43572 0.0
C1246 C 0.81678 0.79952 0.45354 0.0
C1247 C 0.80321 0.77425 0.46682 0.0
C1248 C 0.78712 0.73363 0.46449 0.0
C1249 C 0.78369 0.71834 0.44912 0.0
C1250 C 0.80183 0.78925 0.48295 0.0
C1251 C 0.78014 0.80855 0.48489 0.0
C1252 C 0.81678 0.77974 0.49661 0.0
C1253 C 0.84289 0.76256 0.49514 0.0
C1254 C 0.83441 0.72824 0.50361 0.0
C1255 C 0.85898 0.71208 0.50212 0.0
C1256 C 0.8922 0.73004 0.49221 0.0
C1257 C 0.90097 0.76423 0.4838 0.0
C1258 C 0.87652 0.78052 0.48526 0.0
C1259 C 0.70395 0.77235 0.54606 0.0
C1260 C 0.72698 0.78698 0.55999 0.0
C1261 C 0.7218 0.77807 0.53111 0.0
C1262 C 0.76307 0.79889 0.52969 0.0
C1263 C 0.78629 0.81398 0.54353 0.0
C1264 C 0.76839 0.80821 0.55857 0.0
C1265 C 0.78127 0.80196 0.5138 0.0
C1266 C 0.80608 0.78605 0.5119 0.0
C1267 C 0.76985 0.8153 0.50018 0.0
C1268 C 0.74631 0.83532 0.50163 0.0
C1269 C 0.75846 0.86754 0.51206 0.0
C1270 C 0.73597 0.88597 0.51359 0.0
C1271 C 0.70131 0.87255 0.5047 0.0
C1272 C 0.6891 0.84071 0.49425 0.0
C1273 C 0.71146 0.82216 0.49267 0.0
H1274 H 0.68392 0.88684 0.50592 0.0
H1275 H 0.91116 0.71748 0.49107 0.0
H1276 H 0.00111 0.34346 0.93028 0.0
H1277 H 0.98672 0.33657 0.9589 0.0
H1278 H 0.06576 0.29116 0.96574 0.0
H1279 H 0.08123 0.29905 0.93714 0.0
H1280 H 0.95306 0.27541 0.97722 0.0
H1281 H 0.10663 0.3148 0.00272 0.0
H1282 H 0.17708 0.35738 -0.00398 0.0
H1283 H 0.14976 0.43434 0.96948 0.0
H1284 H 0.07926 0.39254 0.9762 0.0
H1285 H 0.93006 0.21387 0.05785 0.0
H1286 H 0.94841 0.22507 0.02957 0.0
H1287 H 0.01872 0.35001 0.03842 0.0
H1288 H 0.00156 0.33893 0.06679 0.0
H1289 H 0.05686 0.32924 0.01915 0.0
H1290 H 0.92559 0.30787 0.02108 0.0
H1291 H 0.85472 0.27292 0.02785 0.0
H1292 H 0.83675 0.17385 -0.00043 0.0
H1293 H 0.90766 0.20802 0.9928 0.0
C1294 C 0.01562 0.33218 0.93787 0.0
C1295 C 0.0424 0.32188 0.93143 0.0
C1296 C 0.00726 0.32816 0.95424 0.0
C1297 C 0.02535 0.31362 0.9645 0.0
C1298 C 0.05197 0.30312 0.9581 0.0
C1299 C 0.06068 0.30752 0.94174 0.0
C1300 C 0.01564 0.30872 0.98183 0.0
C1301 C 0.97578 0.28719 0.98638 0.0
C1302 C 0.0452 0.32472 0.99381 0.0
C1303 C 0.08761 0.35027 0.98983 0.0
C1304 C 0.11568 0.34088 -0.0045 0.0
C1305 C 0.15562 0.36487 0.9917 0.0
C1306 C 0.16787 0.39847 0.98229 0.0
C1307 C 0.14022 0.40823 0.97671 0.0
C1308 C 0.10026 0.38436 0.9805 0.0
C1309 C 0.94946 0.24373 0.05378 0.0
C1310 C 0.96421 0.27552 0.06456 0.0
C1311 C 0.95982 0.25011 0.0376 0.0
C1312 C 0.9845 0.28845 0.03182 0.0
C1313 C -0.00033 0.32016 0.0426 0.0
C1314 C 0.98972 0.31377 0.05881 0.0
C1315 C 0.99431 0.2956 0.01453 0.0
C1316 C 0.03417 0.31744 0.00998 0.0
C1317 C 0.96469 0.28097 0.00256 0.0
C1318 C 0.922 0.26036 0.00656 0.0
C1319 C 0.90658 0.27852 0.0164 0.0
C1320 C 0.86639 0.25886 0.02022 0.0
C1321 C 0.84126 0.22114 0.01417 0.0
C1322 C 0.85626 0.20305 0.00426 0.0
C1323 C 0.89644 0.22256 0.00042 0.0
H1324 H 0.81016 0.20598 0.01715 0.0
H1325 H 0.19879 0.41699 0.97935 0.0
H1326 H 0.32869 0.12676 0.44294 0.0
H1327 H 0.30791 0.09886 0.4697 0.0
H1328 H 0.19582 0.00964 0.4507 0.0
H1329 H 0.21594 0.0381 0.42395 0.0
H1330 H 0.18641 0.02979 0.48029 0.0
H1331 H 0.27224 0.99213 0.4545 0.0
H1332 H 0.33278 0.00381 0.4406 0.0
H1333 H 0.40246 0.06789 0.48133 0.0
H1334 H 0.34234 0.05709 0.49539 0.0
H1335 H 0.21614 0.89194 0.54019 0.0
H1336 H 0.2216 0.92162 0.51397 0.0
H1337 H 0.2061 0.01263 0.53579 0.0
H1338 H 0.19955 0.98246 0.56206 0.0
H1339 H 0.27683 0.98967 0.50425 0.0
H1340 H 0.16884 0.05001 0.50832 0.0
H1341 H 0.10485 0.03231 0.52074 0.0
H1342 H 0.07283 0.91047 0.5212 0.0
H1343 H 0.13637 0.92736 0.50859 0.0
C1344 C 0.29929 0.10172 0.4445 0.0
C1345 C 0.27417 0.08429 0.43129 0.0
C1346 C 0.28749 0.08574 0.45981 0.0
C1347 C 0.25071 0.05158 0.46212 0.0
C1348 C 0.22442 0.03588 0.44917 0.0
C1349 C 0.236 0.05218 0.43388 0.0
C1350 C 0.2413 0.03015 0.47759 0.0
C1351 C 0.2062 0.02112 0.48559 0.0
C1352 C 0.26666 0.01796 0.48429 0.0
C1353 C 0.30283 0.02412 0.47593 0.0
C1354 C 0.3005 0.00892 0.46045 0.0
C1355 C 0.33473 0.01537 0.45255 0.0
C1356 C 0.37146 0.03666 0.46006 0.0
C1357 C 0.37399 0.05145 0.47552 0.0
C1358 C 0.33985 0.04516 0.48346 0.0
C1359 C 0.21329 0.91794 0.53941 0.0
C1360 C 0.20758 0.93492 0.55324 0.0
C1361 C 0.21652 0.93494 0.5244 0.0
C1362 C 0.21429 0.96938 0.52288 0.0
C1363 C 0.20737 0.98576 0.5366 0.0
C1364 C 0.20374 0.96852 0.55164 0.0
C1365 C 0.22201 0.98948 0.50712 0.0
C1366 C 0.25697 -0.00163 0.49904 0.0
C1367 C 0.19601 0.00058 0.5002 0.0
C1368 C 0.15756 0.99005 0.50766 0.0
C1369 C 0.14809 0.01943 0.51102 0.0
C1370 C 0.1119 0.00954 0.5181 0.0
C1371 C 0.08485 0.97031 0.5218 0.0
C1372 C 0.09387 0.94086 0.51838 0.0
C1373 C 0.13 0.95059 0.5113 0.0
H1374 H 0.05687 0.96272 0.52729 0.0
H1375 H 0.39793 0.04164 0.45392 0.0
H1376 H 0.74906 0.64888 0.05419 0.0
H1377 H 0.73963 0.65808 0.02599 0.0
H1378 H 0.67161 0.71262 0.03931 0.0
H1379 H 0.67964 0.70202 0.06762 0.0
H1380 H 0.63792 0.66607 0.01517 0.0
H1381 H 0.77005 0.76723 0.0265 0.0
H1382 H 0.8383 0.79549 0.03641 0.0
H1383 H 0.85963 0.72607 0.00245 0.0
H1384 H 0.7913 0.69697 0.99248 0.0
H1385 H 0.6577 0.75883 0.9391 0.0
H1386 H 0.66405 0.74789 0.96754 0.0
H1387 H 0.70677 0.66924 0.9551 0.0
H1388 H 0.70002 0.67952 0.92661 0.0
H1389 H 0.75322 0.7294 0.97858 0.0
H1390 H 0.6186 0.62896 0.96757 0.0
H1391 H 0.55082 0.60433 0.95772 0.0
H1392 H 0.5355 0.67837 0.99137 0.0
H1393 H 0.60346 0.70389 0.00126 0.0
C1394 C 0.73213 0.66289 0.05112 0.0
C1395 C 0.71532 0.67499 0.06312 0.0
C1396 C 0.7269 0.66829 0.03499 0.0
C1397 C 0.7056 0.68679 0.03052 0.0
C1398 C 0.68828 0.6984 0.04247 0.0
C1399 C 0.69295 0.6924 0.05864 0.0
C1400 C 0.70128 0.69378 0.01337 0.0
C1401 C 0.66323 0.68045 0.00724 0.0
C1402 C 0.73423 0.71206 0.00293 0.0
C1403 C 0.77543 0.72966 0.00884 0.0
C1404 C 0.78921 0.75779 0.02122 0.0
C1405 C 0.82792 0.77398 0.02683 0.0
C1406 C 0.85326 0.76251 0.02009 0.0
C1407 C 0.83996 0.73489 0.00767 0.0
C1408 C 0.80125 0.71857 0.00202 0.0
C1409 C 0.66841 0.73917 0.94241 0.0
C1410 C 0.67835 0.72 0.93063 0.0
C1411 C 0.67188 0.73288 0.95864 0.0
C1412 C 0.68573 0.7077 0.96334 0.0
C1413 C 0.69599 0.68876 0.95165 0.0
C1414 C 0.69197 0.69455 0.93541 0.0
C1415 C 0.69002 0.70153 0.9805 0.0
C1416 C 0.72805 0.71511 0.98658 0.0
C1417 C 0.65718 0.68409 0.99093 0.0
C1418 C 0.61627 0.66865 0.98504 0.0
C1419 C 0.60092 0.64027 0.97277 0.0
C1420 C 0.56243 0.62609 0.9672 0.0
C1421 C 0.5389 0.63986 0.97389 0.0
C1422 C 0.55378 0.66777 0.98619 0.0
C1423 C 0.59227 0.68208 0.99179 0.0
H1424 H 0.50911 0.62884 0.96956 0.0
H1425 H 0.88322 0.77508 0.02446 0.0
H1426 H 0.00988 0.18676 0.56387 0.0
H1427 H 0.98709 0.15916 0.5371 0.0
H1428 H 0.04978 0.27603 0.51693 0.0
H1429 H 0.07315 0.30368 0.54343 0.0
H1430 H 0.9402 0.17061 0.51842 0.0
H1431 H 0.07854 0.27654 0.47986 0.0
H1432 H 0.1509 0.30696 0.48145 0.0
H1433 H 0.13822 0.21607 0.51364 0.0
H1434 H 0.06577 0.18472 0.51207 0.0
H1435 H 0.89812 0.23194 0.44741 0.0
H1436 H 0.92077 0.22132 0.47304 0.0
H1437 H 0.97033 0.15816 0.44945 0.0
H1438 H 0.948 0.16907 0.42353 0.0
H1439 H 0.02258 0.21255 0.46928 0.0
H1440 H 0.89217 0.10815 0.47401 0.0
H1441 H 0.81953 0.07331 0.47229 0.0
H1442 H 0.81603 0.15125 0.5075 0.0
H1443 H 0.88868 0.18699 0.50926 0.0
C1444 C 0.01935 0.20652 0.55369 0.0
C1445 C 0.04318 0.24748 0.55581 0.0
C1446 C 0.00627 0.19067 0.53842 0.0
C1447 C 0.01704 0.21545 0.525 0.0
C1448 C 0.04175 0.2562 0.52705 0.0
C1449 C 0.05484 0.27203 0.54226 0.0
C1450 C -0.00051 0.19981 0.50905 0.0
C1451 C 0.95819 0.17925 0.50767 0.0
C1452 C 0.02296 0.20983 0.49505 0.0
C1453 C 0.06662 0.22833 0.49588 0.0
C1454 C 0.09114 0.26284 0.48719 0.0
C1455 C 0.1322 0.28031 0.48811 0.0
C1456 C 0.14915 0.26349 0.49766 0.0
C1457 C 0.12506 0.22913 0.50628 0.0
C1458 C 0.08399 0.21153 0.50539 0.0
C1459 C 0.91345 0.2154 0.44763 0.0
C1460 C 0.9214 0.20151 0.4334 0.0
C1461 C 0.92611 0.20906 0.46233 0.0
C1462 C 0.94683 0.18853 0.46317 0.0
C1463 C 0.95418 0.17388 0.44905 0.0
C1464 C 0.94136 0.1801 0.43427 0.0
C1465 C 0.96349 0.18578 0.47872 0.0
C1466 C 0.00459 0.20288 0.48002 0.0
C1467 C 0.93981 0.17181 0.49264 0.0
C1468 C 0.89598 0.15033 0.49174 0.0
C1469 C 0.87595 0.11803 0.48132 0.0
C1470 C 0.83475 0.0981 0.48035 0.0
C1471 C 0.81318 0.11007 0.48978 0.0
C1472 C 0.83278 0.14198 0.50022 0.0
C1473 C 0.87398 0.16204 0.50123 0.0
H1474 H 0.78128 0.0946 0.489 0.0
H1475 H 0.18095 0.27708 0.49837 0.0
H1476 H 0.7614 0.21163 0.13286 0.0
H1477 H 0.69041 0.16805 0.12945 0.0
H1478 H 0.71003 0.13253 0.08308 0.0
H1479 H 0.78137 0.17588 0.0864 0.0
H1480 H 0.64392 0.14642 0.08489 0.0
H1481 H 0.69234 0.07039 0.10952 0.0
H1482 H 0.73177 0.05615 0.12851 0.0
H1483 H 0.66802 0.06789 0.16796 0.0
H1484 H 0.62859 0.0828 0.14922 0.0
H1485 H 0.43764 0.01786 0.0927 0.0
H1486 H 0.50443 0.02866 0.0881 0.0
H1487 H 0.54047 0.08392 0.13451 0.0
H1488 H 0.47442 0.07321 0.13909 0.0
H1489 H 0.57856 0.04367 0.12671 0.0
H1490 H 0.54598 0.13817 0.10142 0.0
H1491 H 0.50658 0.15289 0.08254 0.0
H1492 H 0.54066 0.10405 0.04386 0.0
H1493 H 0.57997 0.08873 0.06257 0.0
C1494 C 0.75069 0.19513 0.12181 0.0
C1495 C 0.77707 0.19695 0.10997 0.0
C1496 C 0.71015 0.17005 0.11993 0.0
C1497 C 0.69524 0.14663 0.10615 0.0
C1498 C 0.72114 0.15018 0.09385 0.0
C1499 C 0.76182 0.17497 0.09578 0.0
C1500 C 0.65265 0.11753 0.10509 0.0
C1501 C 0.62963 0.12323 0.09375 0.0
C1502 C 0.63421 0.08714 0.11657 0.0
C1503 C 0.65763 0.07793 0.12795 0.0
C1504 C 0.68691 0.07022 0.12225 0.0
C1505 C 0.70924 0.06198 0.13297 0.0
C1506 C 0.70244 0.06116 0.14943 0.0
C1507 C 0.67324 0.06852 0.15521 0.0
C1508 C 0.65085 0.07681 0.14453 0.0
C1509 C 0.45953 0.03094 0.10211 0.0
C1510 C 0.45126 0.04518 0.11616 0.0
C1511 C 0.49763 0.03727 0.09945 0.0
C1512 C 0.52749 0.05765 0.11087 0.0
C1513 C 0.51793 0.0682 0.12553 0.0
C1514 C 0.48023 0.06224 0.12811 0.0
C1515 C 0.56973 0.07378 0.10701 0.0
C1516 C 0.59288 0.06579 0.11746 0.0
C1517 C 0.5883 0.1019 0.09465 0.0
C1518 C 0.56553 0.112 0.08338 0.0
C1519 C 0.54496 0.13051 0.08889 0.0
C1520 C 0.52265 0.13893 0.07823 0.0
C1521 C 0.52103 0.12931 0.06202 0.0
C1522 C 0.54188 0.11141 0.05642 0.0
C1523 C 0.56419 0.10288 0.06704 0.0
H1524 H 0.50369 0.13578 0.05378 0.0
H1525 H 0.71975 0.05477 0.15772 0.0
H1526 H 0.63534 0.57566 0.41912 0.0
H1527 H 0.57952 0.50885 0.42191 0.0
H1528 H 0.5431 0.51354 0.37358 0.0
H1529 H 0.59823 0.58064 0.37081 0.0
H1530 H 0.48013 0.46416 0.39248 0.0
H1531 H 0.61046 0.48693 0.37943 0.0
H1532 H 0.68196 0.51528 0.38393 0.0
H1533 H 0.65854 0.45483 0.42897 0.0
H1534 H 0.58687 0.42655 0.42483 0.0
H1535 H 0.41495 0.27503 0.36024 0.0
H1536 H 0.45108 0.34534 0.36627 0.0
H1537 H 0.47328 0.32057 0.41426 0.0
H1538 H 0.43726 0.25002 0.40836 0.0
H1539 H 0.5395 0.37916 0.39933 0.0
H1540 H 0.40597 0.34702 0.40882 0.0
H1541 H 0.33538 0.31854 0.40236 0.0
H1542 H 0.36531 0.39572 0.36185 0.0
H1543 H 0.43615 0.42426 0.36792 0.0
C1544 C 0.61461 0.563 0.4093 0.0
C1545 C 0.6217 0.58288 0.39459 0.0
C1546 C 0.58275 0.52486 0.41092 0.0
C1547 C 0.55808 0.50601 0.39777 0.0
C1548 C 0.5621 0.52756 0.38381 0.0
C1549 C 0.59372 0.56591 0.38224 0.0
C1550 C 0.53332 0.46269 0.39744 0.0
C1551 C 0.49296 0.44548 0.39398 0.0
C1552 C 0.55028 0.43849 0.39951 0.0
C1553 C 0.59335 0.45504 0.40192 0.0
C1554 C 0.62058 0.4799 0.39034 0.0
C1555 C 0.66113 0.49593 0.39282 0.0
C1556 C 0.67479 0.48698 0.40675 0.0
C1557 C 0.64791 0.46184 0.4182 0.0
C1558 C 0.60733 0.44579 0.4158 0.0
C1559 C 0.42765 0.28446 0.37206 0.0
C1560 C 0.42323 0.25693 0.38383 0.0
C1561 C 0.44795 0.32462 0.37552 0.0
C1562 C 0.46417 0.33793 0.39078 0.0
C1563 C 0.4606 0.3107 0.40245 0.0
C1564 C 0.44011 0.27047 0.39904 0.0
C1565 C 0.48625 0.3805 0.39429 0.0
C1566 C 0.52632 0.39764 0.39821 0.0
C1567 C 0.46908 0.40452 0.39239 0.0
C1568 C 0.42644 0.3876 0.38877 0.0
C1569 C 0.39754 0.35773 0.39846 0.0
C1570 C 0.35746 0.3416 0.39488 0.0
C1571 C 0.34587 0.35526 0.38169 0.0
C1572 C 0.37434 0.38515 0.37207 0.0
C1573 C 0.41446 0.40135 0.37559 0.0
H1574 H 0.31482 0.34273 0.37893 0.0
H1575 H 0.70618 0.49941 0.40865 0.0
H1576 H 0.92196 0.3895 0.14893 0.0
H1577 H 0.90354 0.43949 0.14434 0.0
H1578 H 0.95359 0.45979 0.0969 0.0
H1579 H 0.97269 0.40984 0.10155 0.0
H1580 H 0.94958 0.52912 0.11661 0.0
H1581 H 0.87343 0.39664 0.09356 0.0
H1582 H 0.84471 0.32463 0.09541 0.0
H1583 H 0.77724 0.32136 0.13653 0.0
H1584 H 0.80623 0.3935 0.13511 0.0
H1585 H 0.81066 0.58202 0.08956 0.0
H1586 H 0.85018 0.54989 0.08902 0.0
H1587 H 0.7925 0.48611 0.13205 0.0
H1588 H 0.75263 0.51793 0.13272 0.0
H1589 H 0.80468 0.44094 0.11062 0.0
H1590 H 0.87826 0.57011 0.13443 0.0
H1591 H 0.90873 0.6424 0.13524 0.0
H1592 H 0.9814 0.65305 0.09487 0.0
H1593 H 0.95085 0.58072 0.09364 0.0
C1594 C 0.93085 0.40608 0.13784 0.0
C1595 C 0.9481 0.39564 0.12548 0.0
C1596 C 0.92044 0.43465 0.13525 0.0
C1597 C 0.92668 0.45259 0.12021 0.0
C1598 C 0.94873 0.44616 0.10859 0.0
C1599 C 0.95958 0.41768 0.11125 0.0
C1600 C 0.90178 0.46919 0.11561 0.0
C1601 C 0.91806 0.51005 0.1149 0.0
C1602 C 0.86062 0.44396 0.11372 0.0
C1603 C 0.84222 0.40046 0.11429 0.0
C1604 C 0.85268 0.38058 0.10306 0.0
C1605 C 0.83635 0.33976 0.10402 0.0
C1606 C 0.80921 0.31845 0.11609 0.0
C1607 C 0.79828 0.33791 0.12719 0.0
C1608 C 0.81463 0.37876 0.12631 0.0
C1609 C 0.80574 0.56057 0.09876 0.0
C1610 C 0.77887 0.55293 0.11134 0.0
C1611 C 0.82854 0.54245 0.09845 0.0
C1612 C 0.82478 0.51641 0.11068 0.0
C1613 C 0.79596 0.50644 0.12257 0.0
C1614 C 0.77319 0.52461 0.12292 0.0
C1615 C 0.85225 0.50111 0.11169 0.0
C1616 C 0.83633 0.46025 0.11185 0.0
C1617 C 0.89364 0.52647 0.11312 0.0
C1618 C 0.91191 0.56996 0.11382 0.0
C1619 C 0.90044 0.58783 0.12562 0.0
C1620 C 0.91777 0.62881 0.12617 0.0
C1621 C 0.94691 0.65229 0.1151 0.0
C1622 C 0.95876 0.63482 0.10343 0.0
C1623 C 0.94145 0.59383 0.10279 0.0
H1624 H 0.96045 0.684 0.1156 0.0
H1625 H 0.79655 0.28686 0.11681 0.0
H1626 H 0.41787 0.02555 0.38302 0.0
H1627 H 0.47766 0.02367 0.39022 0.0
H1628 H 0.52437 0.13706 0.41323 0.0
H1629 H 0.46475 0.1379 0.40702 0.0
H1630 H 0.54505 0.06485 0.37998 0.0
H1631 H 0.59031 0.16064 0.43956 0.0
H1632 H 0.55805 0.16006 0.46496 0.0
H1633 H 0.47048 0.03877 0.45752 0.0
H1634 H 0.50262 0.03824 0.43222 0.0
H1635 H 0.73188 0.21504 0.37444 0.0
H1636 H 0.66162 0.17281 0.37976 0.0
H1637 H 0.68845 0.12619 0.42168 0.0
H1638 H 0.75915 0.16977 0.41673 0.0
H1639 H 0.62703 0.13229 0.42767 0.0
H1640 H 0.65797 0.07098 0.38797 0.0
H1641 H 0.68955 0.06337 0.36374 0.0
H1642 H 0.62161 0.09731 0.33438 0.0
H1643 H 0.59029 0.10601 0.35844 0.0
C1644 C 0.44061 0.04951 0.38997 0.0
C1645 C 0.43668 0.08193 0.39439 0.0
C1646 C 0.4747 0.0484 0.3941 0.0
C1647 C 0.50545 0.07989 0.40253 0.0
C1648 C 0.50074 0.11159 0.40729 0.0
C1649 C 0.46662 0.11232 0.4035 0.0
C1650 C 0.54484 0.08348 0.40429 0.0
C1651 C 0.56272 0.07882 0.39054 0.0
C1652 C 0.56769 0.09946 0.41837 0.0
C1653 C 0.54903 0.0994 0.43393 0.0
C1654 C 0.56452 0.13364 0.44341 0.0
C1655 C 0.54613 0.13355 0.45779 0.0
C1656 C 0.51224 0.0994 0.46285 0.0
C1657 C 0.49672 0.06521 0.45358 0.0
C1658 C 0.51502 0.0651 0.43921 0.0
C1659 C 0.72281 0.19625 0.38492 0.0
C1660 C 0.75085 0.19551 0.39512 0.0
C1661 C 0.6827 0.17181 0.38787 0.0
C1662 C 0.66986 0.14539 0.40082 0.0
C1663 C 0.69776 0.14602 0.41153 0.0
C1664 C 0.73806 0.17107 0.40873 0.0
C1665 C 0.62714 0.1174 0.40286 0.0
C1666 C 0.60892 0.11705 0.41736 0.0
C1667 C 0.6037 0.09492 0.38976 0.0
C1668 C 0.62175 0.08911 0.37507 0.0
C1669 C 0.64986 0.07694 0.37635 0.0
C1670 C 0.66775 0.07246 0.36264 0.0
C1671 C 0.65754 0.07977 0.34753 0.0
C1672 C 0.62942 0.09156 0.3461 0.0
C1673 C 0.61153 0.09622 0.35978 0.0
H1674 H 0.67145 0.07632 0.33693 0.0
H1675 H 0.49798 0.09945 0.47396 0.0
H1676 H 0.47475 0.22676 0.12002 0.0
H1677 H 0.50709 0.29891 0.12072 0.0
H1678 H 0.39964 0.29252 0.10435 0.0
H1679 H 0.3674 0.22079 0.10321 0.0
H1680 H 0.51509 0.35572 0.09566 0.0
H1681 H 0.39288 0.36049 0.13432 0.0
H1682 H 0.34305 0.3197 0.15463 0.0
H1683 H 0.40967 0.26359 0.16645 0.0
H1684 H 0.46046 0.30493 0.14675 0.0
H1685 H 0.57913 0.5548 0.10016 0.0
H1686 H 0.52536 0.48652 0.09691 0.0
H1687 H 0.54229 0.46158 0.14568 0.0
H1688 H 0.59525 0.5294 0.14895 0.0
H1689 H 0.46812 0.41372 0.137 0.0
H1690 H 0.59877 0.45678 0.11659 0.0
H1691 H 0.65759 0.49863 0.10017 0.0
H1692 H 0.58717 0.45828 0.05743 0.0
H1693 H 0.5278 0.41661 0.07367 0.0
C1694 C 0.45826 0.24082 0.11636 0.0
C1695 C 0.41863 0.21823 0.11157 0.0
C1696 C 0.47674 0.28189 0.11671 0.0
C1697 C 0.45547 0.3007 0.11272 0.0
C1698 C 0.41629 0.27833 0.10756 0.0
C1699 C 0.39807 0.23742 0.10685 0.0
C1700 C 0.47352 0.34362 0.11472 0.0
C1701 C 0.50455 0.36845 0.10455 0.0
C1702 C 0.46023 0.35993 0.12663 0.0
C1703 C 0.42985 0.33499 0.13864 0.0
C1704 C 0.39678 0.33933 0.14121 0.0
C1705 C 0.36846 0.31624 0.15267 0.0
C1706 C 0.3729 0.2887 0.16164 0.0
C1707 C 0.40598 0.28458 0.15935 0.0
C1708 C 0.43453 0.30783 0.14802 0.0
C1709 C 0.56982 0.53521 0.11039 0.0
C1710 C 0.59141 0.54689 0.12473 0.0
C1711 C 0.5394 0.49618 0.1085 0.0
C1712 C 0.53067 0.46882 0.12093 0.0
C1713 C 0.54868 0.48208 0.13591 0.0
C1714 C 0.57898 0.52084 0.13777 0.0
C1715 C 0.50922 0.42596 0.11771 0.0
C1716 C 0.47777 0.401 0.12775 0.0
C1717 C 0.52317 0.40942 0.10613 0.0
C1718 C 0.55883 0.43399 0.09633 0.0
C1719 C 0.59582 0.45703 0.1037 0.0
C1720 C 0.62924 0.4807 0.09443 0.0
C1721 C 0.62609 0.4812 0.07777 0.0
C1722 C 0.58953 0.45793 0.07034 0.0
C1723 C 0.55599 0.43429 0.07957 0.0
H1724 H 0.65199 0.49955 0.07061 0.0
H1725 H 0.3509 0.2708 0.17047 0.0
H1726 H 0.82731 0.5855 0.36825 0.0
H1727 H 0.85788 0.5467 0.37502 0.0
H1728 H 0.81382 0.53288 0.42335 0.0
H1729 H 0.78279 0.57198 0.41668 0.0
H1730 H 0.91531 0.56227 0.39792 0.0
H1731 H 0.79371 0.43863 0.43509 0.0
H1732 H 0.72146 0.40525 0.43886 0.0
H1733 H 0.707 0.43024 0.39007 0.0
H1734 H 0.77905 0.46324 0.38595 0.0
H1735 H 0.90293 0.36095 0.42299 0.0
H1736 H 0.89079 0.41517 0.42816 0.0
H1737 H 0.93335 0.46105 0.38082 0.0
H1738 H 0.94642 0.40752 0.37573 0.0
H1739 H 0.83674 0.42097 0.41245 0.0
H1740 H 0.96035 0.55568 0.37755 0.0
H1741 H 0.03245 0.58865 0.37376 0.0
H1742 H 0.04433 0.54121 0.41837 0.0
H1743 H 0.97239 0.50841 0.42257 0.0
C1744 C 0.82377 0.57409 0.38032 0.0
C1745 C 0.80262 0.58193 0.39194 0.0
C1746 C 0.8416 0.55218 0.38419 0.0
C1747 C 0.83838 0.5373 0.39969 0.0
C1748 C 0.81665 0.54425 0.41131 0.0
C1749 C 0.79888 0.56646 0.40746 0.0
C1750 C 0.85737 0.51388 0.40336 0.0
C1751 C 0.89829 0.53134 0.4011 0.0
C1752 C 0.83519 0.47404 0.40807 0.0
C1753 C 0.79178 0.45382 0.4103 0.0
C1754 C 0.77507 0.43689 0.42516 0.0
C1755 C 0.73417 0.41804 0.42735 0.0
C1756 C 0.70968 0.4157 0.41472 0.0
C1757 C 0.72602 0.43214 0.39985 0.0
C1758 C 0.76688 0.45098 0.39759 0.0
C1759 C 0.91088 0.38332 0.41387 0.0
C1760 C 0.92514 0.37973 0.39886 0.0
C1761 C 0.90386 0.41424 0.41684 0.0
C1762 C 0.91091 0.44204 0.40487 0.0
C1763 C 0.92817 0.44029 0.39035 0.0
C1764 C 0.93557 0.40956 0.38742 0.0
C1765 C 0.89481 0.46891 0.40648 0.0
C1766 C 0.85426 0.45214 0.40971 0.0
C1767 C 0.91742 0.50941 0.40269 0.0
C1768 C 0.96085 0.52937 0.40032 0.0
C1769 C 0.97834 0.55245 0.38661 0.0
C1770 C 0.0192 0.57108 0.38437 0.0
C1771 C 0.04294 0.56696 0.3958 0.0
C1772 C 0.02589 0.54427 0.4095 0.0
C1773 C 0.98505 0.5256 0.4118 0.0
H1774 H 0.07457 0.5814 0.39404 0.0
H1775 H 0.67804 0.40109 0.41644 0.0
H1776 H 0.16813 0.73189 0.62203 0.0
H1777 H 0.13911 0.66183 0.61726 0.0
H1778 H 0.15771 0.68273 0.56644 0.0
H1779 H 0.1867 0.7538 0.57108 0.0
H1780 H 0.08303 0.61935 0.57385 0.0
H1781 H 0.21644 0.66016 0.58551 0.0
H1782 H 0.28004 0.69499 0.59981 0.0
H1783 H 0.22506 0.62886 0.64243 0.0
H1784 H 0.16095 0.59402 0.62847 0.0
H1785 H 0.06776 0.42293 0.57048 0.0
H1786 H 0.08398 0.49112 0.56628 0.0
H1787 H 0.04888 0.49611 0.61476 0.0
H1788 H 0.032 0.42789 0.61905 0.0
H1789 H 0.13551 0.54672 0.60409 0.0
H1790 H 0.0001 0.50921 0.59133 0.0
H1791 H 0.93855 0.4743 0.57568 0.0
H1792 H 0.00131 0.53353 0.53295 0.0
H1793 H 0.0634 0.56838 0.54833 0.0
C1794 C 0.16629 0.72187 0.6098 0.0
C1795 C 0.17996 0.74855 0.59693 0.0
C1796 C 0.14969 0.68171 0.60711 0.0
C1797 C 0.14667 0.66722 0.59152 0.0
C1798 C 0.15992 0.6935 0.57856 0.0
C1799 C 0.17666 0.73401 0.58125 0.0
C1800 C 0.12973 0.62444 0.58915 0.0
C1801 C 0.09487 0.60343 0.58019 0.0
C1802 C 0.14525 0.60383 0.59747 0.0
C1803 C 0.18379 0.62464 0.60596 0.0
C1804 C 0.21782 0.65324 0.59797 0.0
C1805 C 0.25399 0.67296 0.60601 0.0
C1806 C 0.25657 0.66419 0.62203 0.0
C1807 C 0.223 0.63563 0.63003 0.0
C1808 C 0.18675 0.61584 0.62205 0.0
C1809 C 0.06214 0.43808 0.58006 0.0
C1810 C 0.04925 0.42031 0.59519 0.0
C1811 C 0.07129 0.47694 0.57761 0.0
C1812 C 0.0678 0.49843 0.59025 0.0
C1813 C 0.05157 0.47971 0.60487 0.0
C1814 C 0.0419 0.44072 0.60728 0.0
C1815 C 0.08808 0.54168 0.58936 0.0
C1816 C 0.1239 0.56269 0.59762 0.0
C1817 C 0.07377 0.56205 0.58018 0.0
C1818 C 0.0365 0.54099 0.57094 0.0
C1819 C 0.00089 0.51442 0.57856 0.0
C1820 C 0.96587 0.49475 0.56975 0.0
C1821 C 0.96604 0.50158 0.55332 0.0
C1822 C 0.00123 0.5282 0.54567 0.0
C1823 C 0.03633 0.54794 0.55444 0.0
H1824 H 0.9389 0.48633 0.54652 0.0
H1825 H 0.2846 0.67948 0.62823 0.0
H1826 H 0.41299 0.94962 0.84045 0.0
H1827 H 0.46409 0.93261 0.84522 0.0
H1828 H 0.46858 0.96377 0.89503 0.0
H1829 H 0.41767 0.98162 0.89019 0.0
H1830 H 0.54447 0.97195 0.87909 0.0
H1831 H 0.40525 0.87987 0.88991 0.0
H1832 H 0.33481 0.84805 0.8825 0.0
H1833 H 0.35787 0.80259 0.8396 0.0
H1834 H 0.42857 0.83477 0.84661 0.0
H1835 H 0.59977 0.82921 0.90099 0.0
H1836 H 0.56959 0.87067 0.90092 0.0
H1837 H 0.51844 0.82439 0.85457 0.0
H1838 H 0.54763 0.78233 0.85469 0.0
H1839 H 0.46637 0.82664 0.8728 0.0
H1840 H 0.60245 0.91944 0.85948 0.0
H1841 H 0.67469 0.95942 0.86254 0.0
H1842 H 0.66021 0.00572 0.90704 0.0
H1843 H 0.58777 0.9661 0.90417 0.0
C1844 C 0.42652 0.95498 0.8522 0.0
C1845 C 0.41144 0.96659 0.86499 0.0
C1846 C 0.45558 0.94517 0.85492 0.0
C1847 C 0.46932 0.94623 0.87052 0.0
C1848 C 0.45821 0.96284 0.88291 0.0
C1849 C 0.42929 0.97314 0.88014 0.0
C1850 C 0.48731 0.92197 0.87424 0.0
C1851 C 0.52745 0.94012 0.87806 0.0
C1852 C 0.46494 0.88056 0.87261 0.0
C1853 C 0.4222 0.85994 0.86873 0.0
C1854 C 0.39531 0.86325 0.87887 0.0
C1855 C 0.35536 0.84516 0.87474 0.0
C1856 C 0.34196 0.82341 0.86058 0.0
C1857 C 0.36836 0.81949 0.85056 0.0
C1858 C 0.40834 0.83761 0.85461 0.0
C1859 C 0.58171 0.82751 0.89085 0.0
C1860 C 0.57604 0.80233 0.87784 0.0
C1861 C 0.56488 0.85161 0.89076 0.0
C1862 C 0.54232 0.85114 0.87763 0.0
C1863 C 0.53585 0.82534 0.86483 0.0
C1864 C 0.55245 0.80115 0.86494 0.0
C1865 C 0.52426 0.87648 0.87724 0.0
C1866 C 0.48364 0.85839 0.87415 0.0
C1867 C 0.54643 0.9179 0.8794 0.0
C1868 C 0.58977 0.93943 0.88172 0.0
C1869 C 0.61469 0.93768 0.87004 0.0
C1870 C 0.65568 0.96046 0.8717 0.0
C1871 C 0.67206 0.985 0.88502 0.0
C1872 C 0.64748 0.98665 0.89675 0.0
C1873 C 0.60648 0.96411 0.89509 0.0
H1874 H 0.70378 0.00298 0.88623 0.0
H1875 H 0.31113 0.80957 0.85735 0.0
H1876 H 0.54237 0.63716 0.57141 0.0
H1877 H 0.47568 0.58327 0.56594 0.0
H1878 H 0.47279 0.53265 0.61212 0.0
H1879 H 0.53976 0.58602 0.6176 0.0
H1880 H 0.43114 0.47587 0.58982 0.0
H1881 H 0.44143 0.59785 0.60824 0.0
H1882 H 0.46572 0.66917 0.60678 0.0
H1883 H 0.41277 0.65416 0.56036 0.0
H1884 H 0.38867 0.58278 0.56145 0.0
H1885 H 0.24113 0.39485 0.62113 0.0
H1886 H 0.31086 0.43517 0.61476 0.0
H1887 H 0.28151 0.46094 0.56823 0.0
H1888 H 0.21095 0.4203 0.57452 0.0
H1889 H 0.33877 0.52722 0.58462 0.0
H1890 H 0.31679 0.40059 0.56982 0.0
H1891 H 0.29171 0.32952 0.57316 0.0
H1892 H 0.36536 0.353 0.61455 0.0
H1893 H 0.39048 0.42419 0.61161 0.0
C1894 C 0.52794 0.61404 0.58025 0.0
C1895 C 0.54601 0.61626 0.59509 0.0
C1896 C 0.48984 0.58329 0.57709 0.0
C1897 C 0.46905 0.55458 0.58878 0.0
C1898 C 0.48832 0.55469 0.60297 0.0
C1899 C 0.52659 0.58528 0.6061 0.0
C1900 C 0.426 0.52766 0.58724 0.0
C1901 C 0.41089 0.48699 0.58866 0.0
C1902 C 0.39969 0.54229 0.58541 0.0
C1903 C 0.41369 0.58509 0.58483 0.0
C1904 C 0.4352 0.60982 0.59767 0.0
C1905 C 0.44892 0.65023 0.59692 0.0
C1906 C 0.44091 0.66621 0.58346 0.0
C1907 C 0.41903 0.64176 0.57076 0.0
C1908 C 0.40535 0.60132 0.57143 0.0
C1909 C 0.24929 0.40901 0.60952 0.0
C1910 C 0.2204 0.40434 0.59832 0.0
C1911 C 0.28924 0.43181 0.60586 0.0
C1912 C 0.30125 0.45043 0.59094 0.0
C1913 C 0.27268 0.44643 0.57977 0.0
C1914 C 0.23248 0.42329 0.58338 0.0
C1915 C 0.34385 0.47545 0.58754 0.0
C1916 C 0.35894 0.51588 0.5853 0.0
C1917 C 0.37005 0.4606 0.58881 0.0
C1918 C 0.3554 0.41778 0.59052 0.0
C1919 C 0.32748 0.39061 0.57969 0.0
C1920 C 0.31327 0.35029 0.58151 0.0
C1921 C 0.32689 0.33675 0.59407 0.0
C1922 C 0.35484 0.36353 0.60482 0.0
C1923 C 0.36913 0.40389 0.60306 0.0
H1924 H 0.31583 0.30552 0.59547 0.0
H1925 H 0.45157 0.69751 0.5829 0.0
H1926 H 0.24063 0.77369 0.85427 0.0
H1927 H 0.204 0.70233 0.85723 0.0
H1928 H 0.16524 0.71418 0.90421 0.0
H1929 H 0.2023 0.78584 0.90147 0.0
H1930 H 0.2042 0.6498 0.87885 0.0
H1931 H 0.0654 0.64066 0.90662 0.0
H1932 H 0.03326 0.68082 0.90879 0.0
H1933 H 0.08545 0.73754 0.86419 0.0
H1934 H 0.11734 0.69726 0.86163 0.0
H1935 H 0.03518 0.44808 0.89572 0.0
H1936 H 0.05968 0.5185 0.90021 0.0
H1937 H 0.09919 0.54284 0.85115 0.0
H1938 H 0.07522 0.47308 0.84666 0.0
H1939 H 0.0583 0.58764 0.88256 0.0
H1940 H 0.19914 0.601 0.85508 0.0
H1941 H 0.23049 0.56047 0.85144 0.0
H1942 H 0.17387 0.49552 0.89409 0.0
H1943 H 0.14273 0.53608 0.89814 0.0
C1944 C 0.22537 0.76129 0.86544 0.0
C1945 C 0.22444 0.78548 0.87764 0.0
C1946 C 0.20424 0.72046 0.86707 0.0
C1947 C 0.18155 0.70314 0.88083 0.0
C1948 C 0.18222 0.72712 0.89341 0.0
C1949 C 0.2035 0.76801 0.89183 0.0
C1950 C 0.15535 0.66003 0.88143 0.0
C1951 C 0.17235 0.63623 0.87971 0.0
C1952 C 0.11381 0.64245 0.88284 0.0
C1953 C 0.09417 0.66631 0.88406 0.0
C1954 C 0.0699 0.66161 0.89726 0.0
C1955 C 0.05172 0.68439 0.89855 0.0
C1956 C 0.05744 0.71182 0.88667 0.0
C1957 C 0.08118 0.71639 0.87342 0.0
C1958 C 0.09933 0.69361 0.87205 0.0
C1959 C 0.04737 0.46829 0.88573 0.0
C1960 C 0.05391 0.45552 0.87091 0.0
C1961 C 0.06142 0.50841 0.88832 0.0
C1962 C 0.08181 0.53561 0.87607 0.0
C1963 C 0.0838 0.52214 0.86075 0.0
C1964 C 0.0701 0.48236 0.8582 0.0
C1965 C 0.10727 0.57776 0.8797 0.0
C1966 C 0.0902 0.60128 0.88214 0.0
C1967 C 0.14884 0.59526 0.87891 0.0
C1968 C 0.16828 0.57135 0.87682 0.0
C1969 C 0.19352 0.57819 0.86372 0.0
C1970 C 0.2112 0.55517 0.86157 0.0
C1971 C 0.20403 0.52534 0.87249 0.0
C1972 C 0.17927 0.51854 0.88561 0.0
C1973 C 0.16154 0.5415 0.88782 0.0
H1974 H 0.21783 0.50764 0.87083 0.0
H1975 H 0.04338 0.72944 0.88771 0.0
H1976 H 0.33877 0.87809 0.57164 0.0
H1977 H 0.39618 0.87053 0.56913 0.0
H1978 H 0.46008 0.96659 0.60222 0.0
H1979 H 0.40151 0.97306 0.6055 0.0
H1980 H 0.46982 0.90243 0.56255 0.0
H1981 H 0.50575 0.9402 0.62908 0.0
H1982 H 0.47479 0.94764 0.65361 0.0
H1983 H 0.36001 0.86437 0.6354 0.0
H1984 H 0.39037 0.85611 0.61088 0.0
H1985 H 0.60928 0.84198 0.58274 0.0
H1986 H 0.57549 0.87921 0.57794 0.0
H1987 H 0.48078 0.80002 0.60926 0.0
H1988 H 0.51618 0.76484 0.61495 0.0
H1989 H 0.49758 0.8683 0.61633 0.0
H1990 H 0.47536 0.80057 0.56588 0.0
H1991 H 0.49458 0.7806 0.541 0.0
H1992 H 0.56227 0.9016 0.52641 0.0
H1993 H 0.54379 0.92231 0.55131 0.0
C1994 C 0.36524 0.89833 0.57814 0.0
C1995 C 0.3651 0.92519 0.58925 0.0
C1996 C 0.39831 0.89417 0.57656 0.0
C1997 C 0.43198 0.91714 0.58589 0.0
C1998 C 0.43392 0.94782 0.59525 0.0
C1999 C 0.40044 0.9515 0.59711 0.0
C2000 C 0.46098 0.90379 0.58796 0.0
C2001 C 0.47643 0.89545 0.5743 0.0
C2002 C 0.46873 0.89374 0.60328 0.0
C2003 C 0.45029 0.898 0.61809 0.0
C2004 C 0.47393 0.92344 0.63035 0.0
C2005 C 0.45649 0.92778 0.64424 0.0
C2006 C 0.41545 0.90661 0.64603 0.0
C2007 C 0.39178 0.88084 0.63398 0.0
C2008 C 0.40908 0.87631 0.62009 0.0
C2009 C 0.58098 0.83241 0.58839 0.0
C2010 C 0.56502 0.80069 0.59915 0.0
C2011 C 0.56167 0.85359 0.58563 0.0
C2012 C 0.52542 0.84234 0.59314 0.0
C2013 C 0.50889 0.80956 0.60344 0.0
C2014 C 0.52884 0.78927 0.60661 0.0
C2015 C 0.50512 0.86526 0.59086 0.0
C2016 C 0.49174 0.87587 0.60454 0.0
C2017 C 0.49756 0.87541 0.57552 0.0
C2018 C 0.50859 0.86301 0.56053 0.0
C2019 C 0.49457 0.82293 0.55742 0.0
C2020 C 0.50529 0.81148 0.54331 0.0
C2021 C 0.52974 0.83983 0.53216 0.0
C2022 C 0.5434 0.87968 0.53507 0.0
C2023 C 0.5328 0.89129 0.54918 0.0
H2024 H 0.53801 0.83091 0.52124 0.0
H2025 H 0.402 0.9101 0.65677 0.0
H2026 H 0.55555 0.5879 0.89182 0.0
H2027 H 0.48595 0.53569 0.89412 0.0
H2028 H 0.46462 0.56005 0.84594 0.0
H2029 H 0.53349 0.61188 0.84362 0.0
H2030 H 0.42401 0.57537 0.87108 0.0
H2031 H 0.45237 0.47551 0.85249 0.0
H2032 H 0.48435 0.43517 0.85336 0.0
H2033 H 0.43396 0.39127 0.89972 0.0
H2034 H 0.40219 0.4319 0.89926 0.0
H2035 H 0.22498 0.45115 0.85303 0.0
H2036 H 0.29686 0.48574 0.85344 0.0
H2037 H 0.29458 0.43252 0.89893 0.0
H2038 H 0.22238 0.39707 0.89851 0.0
H2039 H 0.34785 0.43063 0.87884 0.0
H2040 H 0.31755 0.52708 0.89755 0.0
H2041 H 0.28474 0.56672 0.89738 0.0
H2042 H 0.33926 0.61775 0.85232 0.0
H2043 H 0.37193 0.57794 0.85208 0.0
C2044 C 0.53633 0.58077 0.88152 0.0
C2045 C 0.5495 0.60401 0.86762 0.0
C2046 C 0.49665 0.55114 0.88286 0.0
C2047 C 0.47026 0.54455 0.87025 0.0
C2048 C 0.48458 0.56495 0.8558 0.0
C2049 C 0.52388 0.59445 0.85449 0.0
C2050 C 0.42718 0.52227 0.87288 0.0
C2051 C 0.40728 0.54365 0.87265 0.0
C2052 C 0.40585 0.48124 0.87559 0.0
C2053 C 0.4254 0.45725 0.87595 0.0
C2054 C 0.44855 0.4577 0.86298 0.0
C2055 C 0.46653 0.43466 0.86337 0.0
C2056 C 0.46133 0.4108 0.87661 0.0
C2057 C 0.43806 0.40986 0.88949 0.0
C2058 C 0.42006 0.43289 0.88917 0.0
C2059 C 0.23966 0.44697 0.8632 0.0
C2060 C 0.21791 0.42155 0.87579 0.0
C2061 C 0.28078 0.46677 0.86341 0.0
C2062 C 0.30099 0.46194 0.8763 0.0
C2063 C 0.27948 0.4366 0.88889 0.0
C2064 C 0.23825 0.41661 0.88866 0.0
C2065 C 0.34463 0.48364 0.87651 0.0
C2066 C 0.36465 0.46237 0.87742 0.0
C2067 C 0.36634 0.52498 0.87459 0.0
C2068 C 0.34705 0.54933 0.87476 0.0
C2069 C 0.32238 0.54658 0.88756 0.0
C2070 C 0.30386 0.56913 0.88755 0.0
C2071 C 0.30998 0.59478 0.87486 0.0
C2072 C 0.33462 0.59792 0.86215 0.0
C2073 C 0.35319 0.5754 0.86209 0.0
H2074 H 0.2956 0.61221 0.87488 0.0
H2075 H 0.47523 0.39294 0.87688 0.0
loop_
_geom_bond_atom_site_label_1
_geom_bond_atom_site_label_2
_geom_bond_distance
_geom_bond_site_symmetry_2
_ccdc_geom_bond_type
O0 Zn1 1.953 . S
O0 C16 1.225 . S
Zn1 O0 1.953 . S
Zn1 O2 1.949 . S
Zn1 O8 1.919 . S
Zn1 O13 1.924 . S
O2 Zn1 1.949 . S
O2 Zn3 1.923 . S
O2 Zn4 1.950 . S
O2 Zn5 1.945 . S
Zn3 O2 1.923 . S
Zn3 O6 1.933 . S
Zn3 O9 1.941 . S
Zn3 O10 1.965 . S
Zn4 O2 1.950 . S
Zn4 O11 1.938 . S
Zn4 O12 1.906 . S
Zn4 O22 1.953 . S
Zn5 O2 1.945 . S
Zn5 O7 1.932 . S
Zn5 O14 1.977 . S
Zn5 O15 1.910 . S
O6 Zn3 1.933 . S
O6 C17 1.226 . S
O7 Zn5 1.932 . S
O7 C17 1.307 . S
O8 Zn1 1.919 . S
O8 C19 1.253 . S
O9 Zn3 1.941 . S
O9 C19 1.283 . S
O10 Zn3 1.965 . S
O10 C18 1.303 . S
O11 Zn4 1.938 . S
O11 C18 1.247 . S
O12 Zn4 1.906 . S
O12 C20 1.304 . S
O13 Zn1 1.924 . S
O13 C21 1.311 . S
O14 Zn5 1.977 . S
O14 C20 1.272 . S
O15 Zn5 1.910 . S
O15 C21 1.231 . S
C16 O0 1.225 . S
C16 O22 1.298 . S
C17 O6 1.226 . S
C17 O7 1.307 . S
C18 O10 1.303 . S
C18 O11 1.247 . S
C19 O8 1.253 . S
C19 O9 1.283 . S
C20 O12 1.304 . S
C20 O14 1.272 . S
C21 O13 1.311 . S
C21 O15 1.231 . S
O22 Zn4 1.953 . S
O22 C16 1.298 . S
O23 Zn24 1.953 . S
O23 C39 1.225 . S
Zn24 O23 1.953 . S
Zn24 O25 1.949 . S
Zn24 O31 1.919 . S
Zn24 O36 1.924 . S
O25 Zn24 1.949 . S
O25 Zn26 1.923 . S
O25 Zn27 1.950 . S
O25 Zn28 1.945 . S
Zn26 O25 1.923 . S
Zn26 O29 1.933 . S
Zn26 O32 1.941 . S
Zn26 O33 1.965 . S
Zn27 O25 1.950 . S
Zn27 O34 1.938 . S
Zn27 O35 1.906 . S
Zn27 O45 1.953 . S
Zn28 O25 1.945 . S
Zn28 O30 1.932 . S
Zn28 O37 1.977 . S
Zn28 O38 1.910 . S
O29 Zn26 1.933 . S
O29 C40 1.226 . S
O30 Zn28 1.932 . S
O30 C40 1.307 . S
O31 Zn24 1.919 . S
O31 C42 1.253 . S
O32 Zn26 1.941 . S
O32 C42 1.283 . S
O33 Zn26 1.965 . S
O33 C41 1.303 . S
O34 Zn27 1.938 . S
O34 C41 1.247 . S
O35 Zn27 1.906 . S
O35 C43 1.304 . S
O36 Zn24 1.924 . S
O36 C44 1.311 . S
O37 Zn28 1.977 . S
O37 C43 1.272 . S
O38 Zn28 1.910 . S
O38 C44 1.231 . S
C39 O23 1.225 . S
C39 O45 1.298 . S
C40 O29 1.226 . S
C40 O30 1.307 . S
C41 O33 1.303 . S
C41 O34 1.247 . S
C42 O31 1.253 . S
C42 O32 1.283 . S
C43 O35 1.304 . S
C43 O37 1.272 . S
C44 O36 1.311 . S
C44 O38 1.231 . S
O45 Zn27 1.953 . S
O45 C39 1.298 . S
O46 Zn47 1.953 . S
O46 C62 1.225 . S
Zn47 O46 1.953 . S
Zn47 O48 1.949 . S
Zn47 O54 1.919 . S
Zn47 O59 1.924 . S
O48 Zn47 1.949 . S
O48 Zn49 1.923 . S
O48 Zn50 1.950 . S
O48 Zn51 1.945 . S
Zn49 O48 1.923 . S
Zn49 O52 1.933 . S
Zn49 O55 1.941 . S
Zn49 O56 1.965 . S
Zn50 O48 1.950 . S
Zn50 O57 1.938 . S
Zn50 O58 1.906 . S
Zn50 O68 1.953 . S
Zn51 O48 1.945 . S
Zn51 O53 1.932 . S
Zn51 O60 1.977 . S
Zn51 O61 1.910 . S
O52 Zn49 1.933 . S
O52 C63 1.226 . S
O53 Zn51 1.932 . S
O53 C63 1.307 . S
O54 Zn47 1.919 . S
O54 C65 1.253 . S
O55 Zn49 1.941 . S
O55 C65 1.283 . S
O56 Zn49 1.965 . S
O56 C64 1.303 . S
O57 Zn50 1.938 . S
O57 C64 1.247 . S
O58 Zn50 1.906 . S
O58 C66 1.304 . S
O59 Zn47 1.924 . S
O59 C67 1.311 . S
O60 Zn51 1.977 . S
O60 C66 1.272 . S
O61 Zn51 1.910 . S
O61 C67 1.231 . S
C62 O46 1.225 . S
C62 O68 1.298 . S
C63 O52 1.226 . S
C63 O53 1.307 . S
C64 O56 1.303 . S
C64 O57 1.247 . S
C65 O54 1.253 . S
C65 O55 1.283 . S
C66 O58 1.304 . S
C66 O60 1.272 . S
C67 O59 1.311 . S
C67 O61 1.231 . S
O68 Zn50 1.953 . S
O68 C62 1.298 . S
O69 Zn70 1.953 . S
O69 C85 1.225 . S
Zn70 O69 1.953 . S
Zn70 O71 1.949 . S
Zn70 O77 1.919 . S
Zn70 O82 1.924 . S
O71 Zn70 1.949 . S
O71 Zn72 1.923 . S
O71 Zn73 1.950 . S
O71 Zn74 1.945 . S
Zn72 O71 1.923 . S
Zn72 O75 1.933 . S
Zn72 O78 1.941 . S
Zn72 O79 1.965 . S
Zn73 O71 1.950 . S
Zn73 O80 1.938 . S
Zn73 O81 1.906 . S
Zn73 O91 1.953 . S
Zn74 O71 1.945 . S
Zn74 O76 1.932 . S
Zn74 O83 1.977 . S
Zn74 O84 1.910 . S
O75 Zn72 1.933 . S
O75 C86 1.226 . S
O76 Zn74 1.932 . S
O76 C86 1.307 . S
O77 Zn70 1.919 . S
O77 C88 1.253 . S
O78 Zn72 1.941 . S
O78 C88 1.283 . S
O79 Zn72 1.965 . S
O79 C87 1.303 . S
O80 Zn73 1.938 . S
O80 C87 1.247 . S
O81 Zn73 1.906 . S
O81 C89 1.304 . S
O82 Zn70 1.924 . S
O82 C90 1.311 . S
O83 Zn74 1.977 . S
O83 C89 1.272 . S
O84 Zn74 1.910 . S
O84 C90 1.231 . S
C85 O69 1.225 . S
C85 O91 1.298 . S
C86 O75 1.226 . S
C86 O76 1.307 . S
C87 O79 1.303 . S
C87 O80 1.247 . S
C88 O77 1.253 . S
C88 O78 1.283 . S
C89 O81 1.304 . S
C89 O83 1.272 . S
C90 O82 1.311 . S
C90 O84 1.231 . S
O91 Zn73 1.953 . S
O91 C85 1.298 . S
O92 Zn93 1.953 . S
O92 C108 1.225 . S
Zn93 O92 1.953 . S
Zn93 O94 1.949 . S
Zn93 O100 1.919 . S
Zn93 O105 1.924 . S
O94 Zn93 1.949 . S
O94 Zn95 1.923 . S
O94 Zn96 1.950 . S
O94 Zn97 1.945 . S
Zn95 O94 1.923 . S
Zn95 O98 1.933 . S
Zn95 O101 1.941 . S
Zn95 O102 1.965 . S
Zn96 O94 1.950 . S
Zn96 O103 1.938 . S
Zn96 O104 1.906 . S
Zn96 O114 1.953 . S
Zn97 O94 1.945 . S
Zn97 O99 1.932 . S
Zn97 O106 1.977 . S
Zn97 O107 1.910 . S
O98 Zn95 1.933 . S
O98 C109 1.226 . S
O99 Zn97 1.932 . S
O99 C109 1.307 . S
O100 Zn93 1.919 . S
O100 C111 1.253 . S
O101 Zn95 1.941 . S
O101 C111 1.283 . S
O102 Zn95 1.965 . S
O102 C110 1.303 . S
O103 Zn96 1.938 . S
O103 C110 1.247 . S
O104 Zn96 1.906 . S
O104 C112 1.304 . S
O105 Zn93 1.924 . S
O105 C113 1.311 . S
O106 Zn97 1.977 . S
O106 C112 1.272 . S
O107 Zn97 1.910 . S
O107 C113 1.231 . S
C108 O92 1.225 . S
C108 O114 1.298 . S
C109 O98 1.226 . S
C109 O99 1.307 . S
C110 O102 1.303 . S
C110 O103 1.247 . S
C111 O100 1.253 . S
C111 O101 1.283 . S
C112 O104 1.304 . S
C112 O106 1.272 . S
C113 O105 1.311 . S
C113 O107 1.231 . S
O114 Zn96 1.953 . S
O114 C108 1.298 . S
O115 Zn116 1.953 . S
O115 C131 1.225 . S
Zn116 O115 1.953 . S
Zn116 O117 1.949 . S
Zn116 O123 1.919 . S
Zn116 O128 1.924 . S
O117 Zn116 1.949 . S
O117 Zn118 1.923 . S
O117 Zn119 1.950 . S
O117 Zn120 1.945 . S
Zn118 O117 1.923 . S
Zn118 O121 1.933 . S
Zn118 O124 1.941 . S
Zn118 O125 1.965 . S
Zn119 O117 1.950 . S
Zn119 O126 1.938 . S
Zn119 O127 1.906 . S
Zn119 O137 1.953 . S
Zn120 O117 1.945 . S
Zn120 O122 1.932 . S
Zn120 O129 1.977 . S
Zn120 O130 1.910 . S
O121 Zn118 1.933 . S
O121 C132 1.226 . S
O122 Zn120 1.932 . S
O122 C132 1.307 . S
O123 Zn116 1.919 . S
O123 C134 1.253 . S
O124 Zn118 1.941 . S
O124 C134 1.283 . S
O125 Zn118 1.965 . S
O125 C133 1.303 . S
O126 Zn119 1.938 . S
O126 C133 1.247 . S
O127 Zn119 1.906 . S
O127 C135 1.304 . S
O128 Zn116 1.924 . S
O128 C136 1.311 . S
O129 Zn120 1.977 . S
O129 C135 1.272 . S
O130 Zn120 1.910 . S
O130 C136 1.231 . S
C131 O115 1.225 . S
C131 O137 1.298 . S
C132 O121 1.226 . S
C132 O122 1.307 . S
C133 O125 1.303 . S
C133 O126 1.247 . S
C134 O123 1.253 . S
C134 O124 1.283 . S
C135 O127 1.304 . S
C135 O129 1.272 . S
C136 O128 1.311 . S
C136 O130 1.231 . S
O137 Zn119 1.953 . S
O137 C131 1.298 . S
O138 Zn139 1.953 . S
O138 C154 1.225 . S
Zn139 O138 1.953 . S
Zn139 O140 1.949 . S
Zn139 O146 1.919 . S
Zn139 O151 1.924 . S
O140 Zn139 1.949 . S
O140 Zn141 1.923 . S
O140 Zn142 1.950 . S
O140 Zn143 1.945 . S
Zn141 O140 1.923 . S
Zn141 O144 1.933 . S
Zn141 O147 1.941 . S
Zn141 O148 1.965 . S
Zn142 O140 1.950 . S
Zn142 O149 1.938 . S
Zn142 O150 1.906 . S
Zn142 O160 1.953 . S
Zn143 O140 1.945 . S
Zn143 O145 1.932 . S
Zn143 O152 1.977 . S
Zn143 O153 1.910 . S
O144 Zn141 1.933 . S
O144 C155 1.226 . S
O145 Zn143 1.932 . S
O145 C155 1.307 . S
O146 Zn139 1.919 . S
O146 C157 1.253 . S
O147 Zn141 1.941 . S
O147 C157 1.283 . S
O148 Zn141 1.965 . S
O148 C156 1.303 . S
O149 Zn142 1.938 . S
O149 C156 1.247 . S
O150 Zn142 1.906 . S
O150 C158 1.304 . S
O151 Zn139 1.924 . S
O151 C159 1.311 . S
O152 Zn143 1.977 . S
O152 C158 1.272 . S
O153 Zn143 1.910 . S
O153 C159 1.231 . S
C154 O138 1.225 . S
C154 O160 1.298 . S
C155 O144 1.226 . S
C155 O145 1.307 . S
C156 O148 1.303 . S
C156 O149 1.247 . S
C157 O146 1.253 . S
C157 O147 1.283 . S
C158 O150 1.304 . S
C158 O152 1.272 . S
C159 O151 1.311 . S
C159 O153 1.231 . S
O160 Zn142 1.953 . S
O160 C154 1.298 . S
O161 Zn162 1.953 . S
O161 C177 1.225 . S
Zn162 O161 1.953 . S
Zn162 O163 1.949 . S
Zn162 O169 1.919 . S
Zn162 O174 1.924 . S
O163 Zn162 1.949 . S
O163 Zn164 1.923 . S
O163 Zn165 1.950 . S
O163 Zn166 1.945 . S
Zn164 O163 1.923 . S
Zn164 O167 1.933 . S
Zn164 O170 1.941 . S
Zn164 O171 1.965 . S
Zn165 O163 1.950 . S
Zn165 O172 1.938 . S
Zn165 O173 1.906 . S
Zn165 O183 1.953 . S
Zn166 O163 1.945 . S
Zn166 O168 1.932 . S
Zn166 O175 1.977 . S
Zn166 O176 1.910 . S
O167 Zn164 1.933 . S
O167 C178 1.226 . S
O168 Zn166 1.932 . S
O168 C178 1.307 . S
O169 Zn162 1.919 . S
O169 C180 1.253 . S
O170 Zn164 1.941 . S
O170 C180 1.283 . S
O171 Zn164 1.965 . S
O171 C179 1.303 . S
O172 Zn165 1.938 . S
O172 C179 1.247 . S
O173 Zn165 1.906 . S
O173 C181 1.304 . S
O174 Zn162 1.924 . S
O174 C182 1.311 . S
O175 Zn166 1.977 . S
O175 C181 1.272 . S
O176 Zn166 1.910 . S
O176 C182 1.231 . S
C177 O161 1.225 . S
C177 O183 1.298 . S
C178 O167 1.226 . S
C178 O168 1.307 . S
C179 O171 1.303 . S
C179 O172 1.247 . S
C180 O169 1.253 . S
C180 O170 1.283 . S
C181 O173 1.304 . S
C181 O175 1.272 . S
C182 O174 1.311 . S
C182 O176 1.231 . S
O183 Zn165 1.953 . S
O183 C177 1.298 . S
O184 Zn185 1.953 . S
O184 C200 1.225 . S
Zn185 O184 1.953 . S
Zn185 O186 1.949 . S
Zn185 O192 1.919 . S
Zn185 O197 1.924 . S
O186 Zn185 1.949 . S
O186 Zn187 1.923 . S
O186 Zn188 1.950 . S
O186 Zn189 1.945 . S
Zn187 O186 1.923 . S
Zn187 O190 1.933 . S
Zn187 O193 1.941 . S
Zn187 O194 1.965 . S
Zn188 O186 1.950 . S
Zn188 O195 1.938 . S
Zn188 O196 1.906 . S
Zn188 O206 1.953 . S
Zn189 O186 1.945 . S
Zn189 O191 1.932 . S
Zn189 O198 1.977 . S
Zn189 O199 1.910 . S
O190 Zn187 1.933 . S
O190 C201 1.226 . S
O191 Zn189 1.932 . S
O191 C201 1.307 . S
O192 Zn185 1.919 . S
O192 C203 1.253 . S
O193 Zn187 1.941 . S
O193 C203 1.283 . S
O194 Zn187 1.965 . S
O194 C202 1.303 . S
O195 Zn188 1.938 . S
O195 C202 1.247 . S
O196 Zn188 1.906 . S
O196 C204 1.304 . S
O197 Zn185 1.924 . S
O197 C205 1.311 . S
O198 Zn189 1.977 . S
O198 C204 1.272 . S
O199 Zn189 1.910 . S
O199 C205 1.231 . S
C200 O184 1.225 . S
C200 O206 1.298 . S
C201 O190 1.226 . S
C201 O191 1.307 . S
C202 O194 1.303 . S
C202 O195 1.247 . S
C203 O192 1.253 . S
C203 O193 1.283 . S
C204 O196 1.304 . S
C204 O198 1.272 . S
C205 O197 1.311 . S
C205 O199 1.231 . S
O206 Zn188 1.953 . S
O206 C200 1.298 . S
O207 Zn208 1.953 . S
O207 C223 1.225 . S
Zn208 O207 1.953 . S
Zn208 O209 1.949 . S
Zn208 O215 1.919 . S
Zn208 O220 1.924 . S
O209 Zn208 1.949 . S
O209 Zn210 1.923 . S
O209 Zn211 1.950 . S
O209 Zn212 1.945 . S
Zn210 O209 1.923 . S
Zn210 O213 1.933 . S
Zn210 O216 1.941 . S
Zn210 O217 1.965 . S
Zn211 O209 1.950 . S
Zn211 O218 1.938 . S
Zn211 O219 1.906 . S
Zn211 O229 1.953 . S
Zn212 O209 1.945 . S
Zn212 O214 1.932 . S
Zn212 O221 1.977 . S
Zn212 O222 1.910 . S
O213 Zn210 1.933 . S
O213 C224 1.226 . S
O214 Zn212 1.932 . S
O214 C224 1.307 . S
O215 Zn208 1.919 . S
O215 C226 1.253 . S
O216 Zn210 1.941 . S
O216 C226 1.283 . S
O217 Zn210 1.965 . S
O217 C225 1.303 . S
O218 Zn211 1.938 . S
O218 C225 1.247 . S
O219 Zn211 1.906 . S
O219 C227 1.304 . S
O220 Zn208 1.924 . S
O220 C228 1.311 . S
O221 Zn212 1.977 . S
O221 C227 1.272 . S
O222 Zn212 1.910 . S
O222 C228 1.231 . S
C223 O207 1.225 . S
C223 O229 1.298 . S
C224 O213 1.226 . S
C224 O214 1.307 . S
C225 O217 1.303 . S
C225 O218 1.247 . S
C226 O215 1.253 . S
C226 O216 1.283 . S
C227 O219 1.304 . S
C227 O221 1.272 . S
C228 O220 1.311 . S
C228 O222 1.231 . S
O229 Zn211 1.953 . S
O229 C223 1.298 . S
O230 Zn231 1.953 . S
O230 C246 1.225 . S
Zn231 O230 1.953 . S
Zn231 O232 1.949 . S
Zn231 O238 1.919 . S
Zn231 O243 1.924 . S
O232 Zn231 1.949 . S
O232 Zn233 1.923 . S
O232 Zn234 1.950 . S
O232 Zn235 1.945 . S
Zn233 O232 1.923 . S
Zn233 O236 1.933 . S
Zn233 O239 1.941 . S
Zn233 O240 1.965 . S
Zn234 O232 1.950 . S
Zn234 O241 1.938 . S
Zn234 O242 1.906 . S
Zn234 O252 1.953 . S
Zn235 O232 1.945 . S
Zn235 O237 1.932 . S
Zn235 O244 1.977 . S
Zn235 O245 1.910 . S
O236 Zn233 1.933 . S
O236 C247 1.226 . S
O237 Zn235 1.932 . S
O237 C247 1.307 . S
O238 Zn231 1.919 . S
O238 C249 1.253 . S
O239 Zn233 1.941 . S
O239 C249 1.283 . S
O240 Zn233 1.965 . S
O240 C248 1.303 . S
O241 Zn234 1.938 . S
O241 C248 1.247 . S
O242 Zn234 1.906 . S
O242 C250 1.304 . S
O243 Zn231 1.924 . S
O243 C251 1.311 . S
O244 Zn235 1.977 . S
O244 C250 1.272 . S
O245 Zn235 1.910 . S
O245 C251 1.231 . S
C246 O230 1.225 . S
C246 O252 1.298 . S
C247 O236 1.226 . S
C247 O237 1.307 . S
C248 O240 1.303 . S
C248 O241 1.247 . S
C249 O238 1.253 . S
C249 O239 1.283 . S
C250 O242 1.304 . S
C250 O244 1.272 . S
C251 O243 1.311 . S
C251 O245 1.231 . S
O252 Zn234 1.953 . S
O252 C246 1.298 . S
O253 Zn254 1.953 . S
O253 C269 1.225 . S
Zn254 O253 1.953 . S
Zn254 O255 1.949 . S
Zn254 O261 1.919 . S
Zn254 O266 1.924 . S
O255 Zn254 1.949 . S
O255 Zn256 1.923 . S
O255 Zn257 1.950 . S
O255 Zn258 1.945 . S
Zn256 O255 1.923 . S
Zn256 O259 1.933 . S
Zn256 O262 1.941 . S
Zn256 O263 1.965 . S
Zn257 O255 1.950 . S
Zn257 O264 1.938 . S
Zn257 O265 1.906 . S
Zn257 O275 1.953 . S
Zn258 O255 1.945 . S
Zn258 O260 1.932 . S
Zn258 O267 1.977 . S
Zn258 O268 1.910 . S
O259 Zn256 1.933 . S
O259 C270 1.226 . S
O260 Zn258 1.932 . S
O260 C270 1.307 . S
O261 Zn254 1.919 . S
O261 C272 1.253 . S
O262 Zn256 1.941 . S
O262 C272 1.283 . S
O263 Zn256 1.965 . S
O263 C271 1.303 . S
O264 Zn257 1.938 . S
O264 C271 1.247 . S
O265 Zn257 1.906 . S
O265 C273 1.304 . S
O266 Zn254 1.924 . S
O266 C274 1.311 . S
O267 Zn258 1.977 . S
O267 C273 1.272 . S
O268 Zn258 1.910 . S
O268 C274 1.231 . S
C269 O253 1.225 . S
C269 O275 1.298 . S
C270 O259 1.226 . S
C270 O260 1.307 . S
C271 O263 1.303 . S
C271 O264 1.247 . S
C272 O261 1.253 . S
C272 O262 1.283 . S
C273 O265 1.304 . S
C273 O267 1.272 . S
C274 O266 1.311 . S
C274 O268 1.231 . S
O275 Zn257 1.953 . S
O275 C269 1.298 . S
H276 C294 0.951 1_655 S
H277 C296 0.951 . S
H278 C298 0.950 . S
H279 C299 0.950 . S
H280 C301 0.950 . S
H281 C304 0.950 . S
H282 C305 0.950 . S
H283 C307 0.949 1_655 S
H284 C308 0.950 . S
H285 C309 0.951 . S
H286 C311 0.951 . S
H287 C313 0.950 . S
H288 C314 0.950 . S
H289 C316 0.950 . S
H290 C319 0.950 . S
H291 C320 0.950 . S
H292 C322 0.950 . S
H293 C323 0.950 . S
C294 H276 0.951 1_455 S
C294 C295 1.366 . S
C294 C296 1.388 . S
C295 C294 1.366 . S
C295 C299 1.385 . S
C296 H277 0.951 . S
C296 C294 1.388 . S
C296 C297 1.366 . S
C297 C296 1.366 . S
C297 C298 1.414 . S
C297 C300 1.499 . S
C298 H278 0.950 . S
C298 C297 1.414 . S
C298 C299 1.374 . S
C299 H279 0.950 . S
C299 C295 1.385 . S
C299 C298 1.374 . S
C300 C297 1.499 . S
C300 C301 1.373 . S
C300 C302 1.389 . S
C301 H280 0.950 . S
C301 C300 1.373 . S
C301 C317 1.377 . S
C302 C300 1.389 . S
C302 C303 1.524 . S
C302 C316 1.377 . S
C303 C302 1.524 . S
C303 C304 1.397 . S
C303 C308 1.363 . S
C304 H281 0.950 . S
C304 C303 1.397 . S
C304 C305 1.334 1_455 S
C305 H282 0.950 . S
C305 C304 1.334 1_655 S
C305 C306 1.287 . S
C306 C305 1.287 . S
C306 C307 1.523 1_655 S
C306 H325 0.913 . S
C307 H283 0.949 1_455 S
C307 C306 1.523 1_455 S
C307 C308 1.416 . S
C308 H284 0.950 . S
C308 C303 1.363 . S
C308 C307 1.416 . S
C309 H285 0.951 . S
C309 C310 1.366 . S
C309 C311 1.388 . S
C310 C309 1.366 . S
C310 C314 1.385 . S
C311 H286 0.951 . S
C311 C309 1.388 . S
C311 C312 1.366 . S
C312 C311 1.366 . S
C312 C313 1.414 . S
C312 C315 1.499 . S
C313 H287 0.950 . S
C313 C312 1.414 . S
C313 C314 1.374 . S
C314 H288 0.950 . S
C314 C310 1.385 . S
C314 C313 1.374 . S
C315 C312 1.499 . S
C315 C316 1.373 . S
C315 C317 1.389 . S
C316 H289 0.950 . S
C316 C302 1.377 . S
C316 C315 1.373 . S
C317 C301 1.377 . S
C317 C315 1.389 . S
C317 C318 1.524 . S
C318 C317 1.524 . S
C318 C319 1.397 . S
C318 C323 1.363 . S
C319 H290 0.950 . S
C319 C318 1.397 . S
C319 C320 1.334 . S
C320 H291 0.950 . S
C320 C319 1.334 . S
C320 C321 1.287 . S
C321 C320 1.287 . S
C321 C322 1.524 . S
C321 H324 0.999 . S
C322 H292 0.950 . S
C322 C321 1.524 . S
C322 C323 1.415 . S
C323 H293 0.950 . S
C323 C318 1.363 . S
C323 C322 1.415 . S
H324 C321 0.999 . S
H325 C306 0.913 . S
H326 C344 0.951 1_545 S
H327 C346 0.951 . S
H328 C348 0.950 . S
H329 C349 0.950 . S
H330 C351 0.950 . S
H331 C354 0.950 . S
H332 C355 0.950 . S
H333 C357 0.950 . S
H334 C358 0.950 . S
H335 C359 0.951 . S
H336 C361 0.951 . S
H337 C363 0.950 . S
H338 C364 0.950 . S
H339 C366 0.950 . S
H340 C369 0.950 . S
H341 C370 0.950 . S
H342 C372 0.950 . S
H343 C373 0.950 . S
C344 H326 0.951 1_565 S
C344 C345 1.366 . S
C344 C346 1.388 . S
C345 C344 1.366 . S
C345 C349 1.385 . S
C346 H327 0.951 . S
C346 C344 1.388 . S
C346 C347 1.366 . S
C347 C346 1.366 . S
C347 C348 1.414 . S
C347 C350 1.499 . S
C348 H328 0.950 . S
C348 C347 1.414 . S
C348 C349 1.374 . S
C349 H329 0.950 . S
C349 C345 1.385 . S
C349 C348 1.374 . S
C350 C347 1.499 . S
C350 C351 1.373 . S
C350 C352 1.389 . S
C351 H330 0.950 . S
C351 C350 1.373 . S
C351 C367 1.377 . S
C352 C350 1.389 . S
C352 C353 1.524 . S
C352 C366 1.377 . S
C353 C352 1.524 . S
C353 C354 1.397 . S
C353 C358 1.363 . S
C354 H331 0.950 . S
C354 C353 1.397 . S
C354 C355 1.334 . S
C355 H332 0.950 . S
C355 C354 1.334 . S
C355 C356 1.287 . S
C356 C355 1.287 . S
C356 C357 1.524 . S
C356 H375 0.913 . S
C357 H333 0.950 . S
C357 C356 1.524 . S
C357 C358 1.415 . S
C358 H334 0.950 . S
C358 C353 1.363 . S
C358 C357 1.415 . S
C359 H335 0.951 . S
C359 C360 1.366 . S
C359 C361 1.388 . S
C360 C359 1.366 . S
C360 C364 1.385 . S
C361 H336 0.951 . S
C361 C359 1.388 . S
C361 C362 1.366 . S
C362 C361 1.366 . S
C362 C363 1.414 . S
C362 C365 1.499 1_655 S
C363 H337 0.950 . S
C363 C362 1.414 . S
C363 C364 1.374 . S
C364 H338 0.950 . S
C364 C360 1.385 . S
C364 C363 1.374 . S
C365 C362 1.499 1_455 S
C365 C366 1.373 . S
C365 C367 1.389 . S
C366 H339 0.950 . S
C366 C352 1.377 . S
C366 C365 1.373 . S
C367 C351 1.377 . S
C367 C365 1.389 . S
C367 C368 1.524 . S
C368 C367 1.524 . S
C368 C369 1.397 1_455 S
C368 C373 1.363 . S
C369 H340 0.950 . S
C369 C368 1.397 1_655 S
C369 C370 1.334 . S
C370 H341 0.950 . S
C370 C369 1.334 . S
C370 C371 1.287 . S
C371 C370 1.287 . S
C371 C372 1.524 1_655 S
C371 H374 0.999 . S
C372 H342 0.950 . S
C372 C371 1.524 1_455 S
C372 C373 1.415 . S
C373 H343 0.950 . S
C373 C368 1.363 . S
C373 C372 1.415 . S
H374 C371 0.999 . S
H375 C356 0.913 . S
H376 C394 0.951 . S
H377 C396 0.951 . S
H378 C398 0.950 . S
H379 C399 0.950 . S
H380 C401 0.950 . S
H381 C404 0.950 . S
H382 C405 0.950 . S
H383 C407 0.950 . S
H384 C408 0.950 . S
H385 C409 0.951 . S
H386 C411 0.951 . S
H387 C413 0.950 . S
H388 C414 0.950 . S
H389 C416 0.950 . S
H390 C419 0.950 . S
H391 C420 0.950 . S
H392 C422 0.950 . S
H393 C423 0.950 . S
C394 H376 0.951 . S
C394 C395 1.366 . S
C394 C396 1.388 . S
C395 C394 1.366 . S
C395 C399 1.385 . S
C396 H377 0.951 . S
C396 C394 1.388 . S
C396 C397 1.366 . S
C397 C396 1.366 . S
C397 C398 1.414 . S
C397 C400 1.499 1_545 S
C398 H378 0.950 . S
C398 C397 1.414 . S
C398 C399 1.374 . S
C399 H379 0.950 . S
C399 C395 1.385 . S
C399 C398 1.374 . S
C400 C397 1.499 1_565 S
C400 C401 1.373 . S
C400 C402 1.389 . S
C401 H380 0.950 . S
C401 C400 1.373 . S
C401 C417 1.377 . S
C402 C400 1.389 . S
C402 C403 1.524 . S
C402 C416 1.377 . S
C403 C402 1.524 . S
C403 C404 1.397 1_565 S
C403 C408 1.363 . S
C404 H381 0.950 . S
C404 C403 1.397 1_545 S
C404 C405 1.334 . S
C405 H382 0.950 . S
C405 C404 1.334 . S
C405 C406 1.287 . S
C406 C405 1.287 . S
C406 C407 1.524 . S
C406 H425 0.913 . S
C407 H383 0.950 . S
C407 C406 1.524 . S
C407 C408 1.415 1_545 S
C408 H384 0.950 . S
C408 C403 1.363 . S
C408 C407 1.415 1_565 S
C409 H385 0.951 . S
C409 C410 1.366 . S
C409 C411 1.388 . S
C410 C409 1.366 . S
C410 C414 1.385 . S
C411 H386 0.951 . S
C411 C409 1.388 . S
C411 C412 1.366 . S
C412 C411 1.366 . S
C412 C413 1.414 . S
C412 C415 1.499 . S
C413 H387 0.950 . S
C413 C412 1.414 . S
C413 C414 1.374 . S
C414 H388 0.950 . S
C414 C410 1.385 . S
C414 C413 1.374 . S
C415 C412 1.499 . S
C415 C416 1.373 . S
C415 C417 1.389 . S
C416 H389 0.950 . S
C416 C402 1.377 . S
C416 C415 1.373 . S
C417 C401 1.377 . S
C417 C415 1.389 . S
C417 C418 1.524 . S
C418 C417 1.524 . S
C418 C419 1.397 . S
C418 C423 1.363 . S
C419 H390 0.950 . S
C419 C418 1.397 . S
C419 C420 1.334 . S
C420 H391 0.950 . S
C420 C419 1.334 . S
C420 C421 1.287 . S
C421 C420 1.287 . S
C421 C422 1.524 . S
C421 H424 0.999 . S
C422 H392 0.950 . S
C422 C421 1.524 . S
C422 C423 1.415 . S
C423 H393 0.950 . S
C423 C418 1.363 . S
C423 C422 1.415 . S
H424 C421 0.999 . S
H425 C406 0.913 . S
H426 C444 0.951 . S
H427 C446 0.951 . S
H428 C448 0.950 . S
H429 C449 0.950 . S
H430 C451 0.950 . S
H431 C454 0.950 . S
H432 C455 0.950 . S
H433 C457 0.950 . S
H434 C458 0.950 . S
H435 C459 0.951 . S
H436 C461 0.951 . S
H437 C463 0.950 . S
H438 C464 0.950 1_655 S
H439 C466 0.950 . S
H440 C469 0.950 . S
H441 C470 0.950 . S
H442 C472 0.950 . S
H443 C473 0.950 . S
C444 H426 0.951 . S
C444 C445 1.366 . S
C444 C446 1.388 . S
C445 C444 1.366 . S
C445 C449 1.385 . S
C446 H427 0.951 . S
C446 C444 1.388 . S
C446 C447 1.366 . S
C447 C446 1.366 . S
C447 C448 1.414 . S
C447 C450 1.499 . S
C448 H428 0.950 . S
C448 C447 1.414 . S
C448 C449 1.374 . S
C449 H429 0.950 . S
C449 C445 1.385 . S
C449 C448 1.374 . S
C450 C447 1.499 . S
C450 C451 1.373 . S
C450 C452 1.389 . S
C451 H430 0.950 . S
C451 C450 1.373 . S
C451 C467 1.377 . S
C452 C450 1.389 . S
C452 C453 1.524 . S
C452 C466 1.377 . S
C453 C452 1.524 . S
C453 C454 1.397 . S
C453 C458 1.363 . S
C454 H431 0.950 . S
C454 C453 1.397 . S
C454 C455 1.334 . S
C455 H432 0.950 . S
C455 C454 1.334 . S
C455 C456 1.287 . S
C456 C455 1.287 . S
C456 C457 1.524 . S
C456 H475 0.913 . S
C457 H433 0.950 . S
C457 C456 1.524 . S
C457 C458 1.415 . S
C458 H434 0.950 . S
C458 C453 1.363 . S
C458 C457 1.415 . S
C459 H435 0.951 . S
C459 C460 1.366 . S
C459 C461 1.388 . S
C460 C459 1.366 . S
C460 C464 1.385 . S
C461 H436 0.951 . S
C461 C459 1.388 . S
C461 C462 1.366 . S
C462 C461 1.366 . S
C462 C463 1.414 . S
C462 C465 1.499 . S
C463 H437 0.950 . S
C463 C462 1.414 . S
C463 C464 1.374 . S
C464 H438 0.950 1_455 S
C464 C460 1.385 . S
C464 C463 1.374 . S
C465 C462 1.499 . S
C465 C466 1.373 . S
C465 C467 1.389 . S
C466 H439 0.950 . S
C466 C452 1.377 . S
C466 C465 1.373 . S
C467 C451 1.377 . S
C467 C465 1.389 . S
C467 C468 1.524 . S
C468 C467 1.524 . S
C468 C469 1.397 . S
C468 C473 1.363 . S
C469 H440 0.950 . S
C469 C468 1.397 . S
C469 C470 1.334 . S
C470 H441 0.950 . S
C470 C469 1.334 . S
C470 C471 1.287 . S
C471 C470 1.287 . S
C471 C472 1.524 . S
C471 H474 0.999 . S
C472 H442 0.950 . S
C472 C471 1.524 . S
C472 C473 1.415 . S
C473 H443 0.950 . S
C473 C468 1.363 . S
C473 C472 1.415 . S
H474 C471 0.999 . S
H475 C456 0.913 . S
H476 C494 0.951 1_545 S
H477 C496 0.951 . S
H478 C498 0.950 . S
H479 C499 0.950 . S
H480 C501 0.950 . S
H481 C504 0.950 . S
H482 C505 0.950 . S
H483 C507 0.950 . S
H484 C508 0.950 . S
H485 C509 0.951 . S
H486 C511 0.951 . S
H487 C513 0.950 . S
H488 C514 0.950 . S
H489 C516 0.950 . S
H490 C519 0.950 1_655 S
H491 C520 0.950 . S
H492 C522 0.950 . S
H493 C523 0.950 . S
C494 H476 0.951 1_565 S
C494 C495 1.366 . S
C494 C496 1.388 . S
C495 C494 1.366 . S
C495 C499 1.385 . S
C496 H477 0.951 . S
C496 C494 1.388 . S
C496 C497 1.366 . S
C497 C496 1.366 . S
C497 C498 1.414 . S
C497 C500 1.499 . S
C498 H478 0.950 . S
C498 C497 1.414 . S
C498 C499 1.374 . S
C499 H479 0.950 . S
C499 C495 1.385 . S
C499 C498 1.374 . S
C500 C497 1.499 . S
C500 C501 1.373 . S
C500 C502 1.389 . S
C501 H480 0.950 . S
C501 C500 1.373 . S
C501 C517 1.377 . S
C502 C500 1.389 . S
C502 C503 1.524 . S
C502 C516 1.377 . S
C503 C502 1.524 . S
C503 C504 1.397 . S
C503 C508 1.363 . S
C504 H481 0.950 . S
C504 C503 1.397 . S
C504 C505 1.334 . S
C505 H482 0.950 . S
C505 C504 1.334 . S
C505 C506 1.287 . S
C506 C505 1.287 . S
C506 C507 1.524 . S
C506 H525 0.913 . S
C507 H483 0.950 . S
C507 C506 1.524 . S
C507 C508 1.415 . S
C508 H484 0.950 . S
C508 C503 1.363 . S
C508 C507 1.415 . S
C509 H485 0.951 . S
C509 C510 1.366 . S
C509 C511 1.388 . S
C510 C509 1.366 . S
C510 C514 1.385 . S
C511 H486 0.951 . S
C511 C509 1.388 . S
C511 C512 1.366 . S
C512 C511 1.366 . S
C512 C513 1.414 . S
C512 C515 1.499 1_655 S
C513 H487 0.950 . S
C513 C512 1.414 . S
C513 C514 1.374 . S
C514 H488 0.950 . S
C514 C510 1.385 . S
C514 C513 1.374 . S
C515 C512 1.499 1_455 S
C515 C516 1.373 . S
C515 C517 1.389 . S
C516 H489 0.950 . S
C516 C502 1.377 . S
C516 C515 1.373 . S
C517 C501 1.377 . S
C517 C515 1.389 . S
C517 C518 1.524 . S
C518 C517 1.524 . S
C518 C519 1.397 . S
C518 C523 1.363 . S
C519 H490 0.950 1_455 S
C519 C518 1.397 . S
C519 C520 1.334 1_455 S
C520 H491 0.950 . S
C520 C519 1.334 1_655 S
C520 C521 1.287 1_655 S
C521 C520 1.287 1_455 S
C521 C522 1.524 . S
C521 H524 0.999 1_455 S
C522 H492 0.950 . S
C522 C521 1.524 . S
C522 C523 1.415 . S
C523 H493 0.950 . S
C523 C518 1.363 . S
C523 C522 1.415 . S
H524 C521 0.999 1_655 S
H525 C506 0.913 . S
H526 C544 0.951 . S
H527 C546 0.951 . S
H528 C548 0.950 . S
H529 C549 0.950 . S
H530 C551 0.950 . S
H531 C554 0.950 . S
H532 C555 0.950 . S
H533 C557 0.950 . S
H534 C558 0.950 . S
H535 C559 0.951 . S
H536 C561 0.951 . S
H537 C563 0.950 . S
H538 C564 0.950 . S
H539 C566 0.950 . S
H540 C569 0.950 . S
H541 C570 0.950 . S
H542 C572 0.950 . S
H543 C573 0.950 . S
C544 H526 0.951 . S
C544 C545 1.366 . S
C544 C546 1.388 . S
C545 C544 1.366 . S
C545 C549 1.385 . S
C546 H527 0.951 . S
C546 C544 1.388 . S
C546 C547 1.366 . S
C547 C546 1.366 . S
C547 C548 1.414 . S
C547 C550 1.499 . S
C548 H528 0.950 . S
C548 C547 1.414 . S
C548 C549 1.374 . S
C549 H529 0.950 . S
C549 C545 1.385 . S
C549 C548 1.374 . S
C550 C547 1.499 . S
C550 C551 1.373 . S
C550 C552 1.389 . S
C551 H530 0.950 . S
C551 C550 1.373 . S
C551 C567 1.377 . S
C552 C550 1.389 . S
C552 C553 1.524 . S
C552 C566 1.377 . S
C553 C552 1.524 . S
C553 C554 1.397 . S
C553 C558 1.363 . S
C554 H531 0.950 . S
C554 C553 1.397 . S
C554 C555 1.334 . S
C555 H532 0.950 . S
C555 C554 1.334 . S
C555 C556 1.287 . S
C556 C555 1.287 . S
C556 C557 1.524 . S
C556 H575 0.913 . S
C557 H533 0.950 . S
C557 C556 1.524 . S
C557 C558 1.415 . S
C558 H534 0.950 . S
C558 C553 1.363 . S
C558 C557 1.415 . S
C559 H535 0.951 . S
C559 C560 1.366 . S
C559 C561 1.388 . S
C560 C559 1.366 . S
C560 C564 1.385 . S
C561 H536 0.951 . S
C561 C559 1.388 . S
C561 C562 1.366 . S
C562 C561 1.366 . S
C562 C563 1.414 . S
C562 C565 1.499 1_545 S
C563 H537 0.950 . S
C563 C562 1.414 . S
C563 C564 1.374 . S
C564 H538 0.950 . S
C564 C560 1.385 . S
C564 C563 1.374 . S
C565 C562 1.499 1_565 S
C565 C566 1.373 . S
C565 C567 1.389 . S
C566 H539 0.950 . S
C566 C552 1.377 . S
C566 C565 1.373 . S
C567 C551 1.377 . S
C567 C565 1.389 . S
C567 C568 1.524 . S
C568 C567 1.524 . S
C568 C569 1.397 1_565 S
C568 C573 1.363 . S
C569 H540 0.950 . S
C569 C568 1.397 1_545 S
C569 C570 1.334 . S
C570 H541 0.950 . S
C570 C569 1.334 . S
C570 C571 1.287 . S
C571 C570 1.287 . S
C571 C572 1.524 . S
C571 H574 0.999 . S
C572 H542 0.950 . S
C572 C571 1.524 . S
C572 C573 1.415 1_545 S
C573 H543 0.950 . S
C573 C568 1.363 . S
C573 C572 1.415 1_565 S
H574 C571 0.999 . S
H575 C556 0.913 . S
H576 C594 0.951 . S
H577 C596 0.951 . S
H578 C598 0.950 . S
H579 C599 0.950 1_565 S
H580 C601 0.950 . S
H581 C604 0.950 . S
H582 C605 0.950 . S
H583 C607 0.950 . S
H584 C608 0.950 . S
H585 C609 0.951 . S
H586 C611 0.951 . S
H587 C613 0.950 . S
H588 C614 0.950 . S
H589 C616 0.950 . S
H590 C619 0.950 . S
H591 C620 0.950 . S
H592 C622 0.950 . S
H593 C623 0.950 . S
C594 H576 0.951 . S
C594 C595 1.366 . S
C594 C596 1.388 . S
C595 C594 1.366 . S
C595 C599 1.385 . S
C596 H577 0.951 . S
C596 C594 1.388 . S
C596 C597 1.366 . S
C597 C596 1.366 . S
C597 C598 1.414 . S
C597 C600 1.499 . S
C598 H578 0.950 . S
C598 C597 1.414 . S
C598 C599 1.374 . S
C599 H579 0.950 1_545 S
C599 C595 1.385 . S
C599 C598 1.374 . S
C600 C597 1.499 . S
C600 C601 1.373 . S
C600 C602 1.389 . S
C601 H580 0.950 . S
C601 C600 1.373 . S
C601 C617 1.377 . S
C602 C600 1.389 . S
C602 C603 1.524 . S
C602 C616 1.377 . S
C603 C602 1.524 . S
C603 C604 1.397 . S
C603 C608 1.363 . S
C604 H581 0.950 . S
C604 C603 1.397 . S
C604 C605 1.334 . S
C605 H582 0.950 . S
C605 C604 1.334 . S
C605 C606 1.287 . S
C606 C605 1.287 . S
C606 C607 1.524 . S
C606 H625 0.913 . S
C607 H583 0.950 . S
C607 C606 1.524 . S
C607 C608 1.415 . S
C608 H584 0.950 . S
C608 C603 1.363 . S
C608 C607 1.415 . S
C609 H585 0.951 . S
C609 C610 1.366 . S
C609 C611 1.388 . S
C610 C609 1.366 . S
C610 C614 1.385 . S
C611 H586 0.951 . S
C611 C609 1.388 . S
C611 C612 1.366 . S
C612 C611 1.366 . S
C612 C613 1.414 . S
C612 C615 1.499 . S
C613 H587 0.950 . S
C613 C612 1.414 . S
C613 C614 1.374 . S
C614 H588 0.950 . S
C614 C610 1.385 . S
C614 C613 1.374 . S
C615 C612 1.499 . S
C615 C616 1.373 . S
C615 C617 1.389 . S
C616 H589 0.950 . S
C616 C602 1.377 . S
C616 C615 1.373 . S
C617 C601 1.377 . S
C617 C615 1.389 . S
C617 C618 1.524 . S
C618 C617 1.524 . S
C618 C619 1.397 . S
C618 C623 1.363 . S
C619 H590 0.950 . S
C619 C618 1.397 . S
C619 C620 1.334 . S
C620 H591 0.950 . S
C620 C619 1.334 . S
C620 C621 1.287 . S
C621 C620 1.287 . S
C621 C622 1.524 . S
C621 H624 0.999 . S
C622 H592 0.950 . S
C622 C621 1.524 . S
C622 C623 1.415 . S
C623 H593 0.950 . S
C623 C618 1.363 . S
C623 C622 1.415 . S
H624 C621 0.999 . S
H625 C606 0.913 . S
H626 C644 0.951 . S
H627 C646 0.951 . S
H628 C648 0.950 . S
H629 C649 0.950 . S
H630 C651 0.950 . S
H631 C654 0.950 . S
H632 C655 0.950 . S
H633 C657 0.950 . S
H634 C658 0.950 . S
H635 C659 0.951 . S
H636 C661 0.951 . S
H637 C663 0.950 . S
H638 C664 0.950 . S
H639 C666 0.950 . S
H640 C669 0.950 . S
H641 C670 0.950 . S
H642 C672 0.950 . S
H643 C673 0.950 . S
C644 H626 0.951 . S
C644 C645 1.366 . S
C644 C646 1.388 . S
C645 C644 1.366 . S
C645 C649 1.385 . S
C646 H627 0.951 . S
C646 C644 1.388 . S
C646 C647 1.366 . S
C647 C646 1.366 . S
C647 C648 1.414 . S
C647 C650 1.499 1_455 S
C648 H628 0.950 . S
C648 C647 1.414 . S
C648 C649 1.374 . S
C649 H629 0.950 . S
C649 C645 1.385 . S
C649 C648 1.374 . S
C650 C647 1.499 1_655 S
C650 C651 1.373 . S
C650 C652 1.389 . S
C651 H630 0.950 . S
C651 C650 1.373 . S
C651 C667 1.377 . S
C652 C650 1.389 . S
C652 C653 1.524 . S
C652 C666 1.377 . S
C653 C652 1.524 . S
C653 C654 1.397 . S
C653 C658 1.363 . S
C654 H631 0.950 . S
C654 C653 1.397 . S
C654 C655 1.334 1_655 S
C655 H632 0.950 . S
C655 C654 1.334 1_455 S
C655 C656 1.287 . S
C656 C655 1.287 . S
C656 C657 1.524 1_455 S
C656 H675 0.913 . S
C657 H633 0.950 . S
C657 C656 1.524 1_655 S
C657 C658 1.415 . S
C658 H634 0.950 . S
C658 C653 1.363 . S
C658 C657 1.415 . S
C659 H635 0.951 . S
C659 C660 1.366 . S
C659 C661 1.388 . S
C660 C659 1.366 . S
C660 C664 1.385 . S
C661 H636 0.951 . S
C661 C659 1.388 . S
C661 C662 1.366 . S
C662 C661 1.366 . S
C662 C663 1.414 . S
C662 C665 1.499 . S
C663 H637 0.950 . S
C663 C662 1.414 . S
C663 C664 1.374 . S
C664 H638 0.950 . S
C664 C660 1.385 . S
C664 C663 1.374 . S
C665 C662 1.499 . S
C665 C666 1.373 . S
C665 C667 1.389 . S
C666 H639 0.950 . S
C666 C652 1.377 . S
C666 C665 1.373 . S
C667 C651 1.377 . S
C667 C665 1.389 . S
C667 C668 1.524 . S
C668 C667 1.524 . S
C668 C669 1.397 . S
C668 C673 1.363 . S
C669 H640 0.950 . S
C669 C668 1.397 . S
C669 C670 1.334 . S
C670 H641 0.950 . S
C670 C669 1.334 . S
C670 C671 1.287 . S
C671 C670 1.287 . S
C671 C672 1.524 . S
C671 H674 0.999 . S
C672 H642 0.950 . S
C672 C671 1.524 . S
C672 C673 1.415 . S
C673 H643 0.950 . S
C673 C668 1.363 . S
C673 C672 1.415 . S
H674 C671 0.999 . S
H675 C656 0.913 . S
H676 C694 0.951 . S
H677 C696 0.951 . S
H678 C698 0.950 . S
H679 C699 0.950 . S
H680 C701 0.950 . S
H681 C704 0.950 . S
H682 C705 0.950 . S
H683 C707 0.950 . S
H684 C708 0.950 . S
H685 C709 0.951 . S
H686 C711 0.951 . S
H687 C713 0.950 . S
H688 C714 0.950 . S
H689 C716 0.950 . S
H690 C719 0.950 . S
H691 C720 0.950 . S
H692 C722 0.950 . S
H693 C723 0.950 . S
C694 H676 0.951 . S
C694 C695 1.366 . S
C694 C696 1.388 . S
C695 C694 1.366 . S
C695 C699 1.385 . S
C696 H677 0.951 . S
C696 C694 1.388 . S
C696 C697 1.366 . S
C697 C696 1.366 . S
C697 C698 1.414 . S
C697 C700 1.499 1_565 S
C698 H678 0.950 . S
C698 C697 1.414 . S
C698 C699 1.374 . S
C699 H679 0.950 . S
C699 C695 1.385 . S
C699 C698 1.374 . S
C700 C697 1.499 1_545 S
C700 C701 1.373 . S
C700 C702 1.389 . S
C701 H680 0.950 . S
C701 C700 1.373 . S
C701 C717 1.377 . S
C702 C700 1.389 . S
C702 C703 1.524 . S
C702 C716 1.377 . S
C703 C702 1.524 . S
C703 C704 1.397 1_545 S
C703 C708 1.363 . S
C704 H681 0.950 . S
C704 C703 1.397 1_565 S
C704 C705 1.334 . S
C705 H682 0.950 . S
C705 C704 1.334 . S
C705 C706 1.287 . S
C706 C705 1.287 . S
C706 C707 1.524 1_565 S
C706 H725 0.913 . S
C707 H683 0.950 . S
C707 C706 1.524 1_545 S
C707 C708 1.415 . S
C708 H684 0.950 . S
C708 C703 1.363 . S
C708 C707 1.415 . S
C709 H685 0.951 . S
C709 C710 1.366 . S
C709 C711 1.388 . S
C710 C709 1.366 . S
C710 C714 1.385 . S
C711 H686 0.951 . S
C711 C709 1.388 . S
C711 C712 1.366 . S
C712 C711 1.366 . S
C712 C713 1.414 . S
C712 C715 1.499 . S
C713 H687 0.950 . S
C713 C712 1.414 . S
C713 C714 1.374 . S
C714 H688 0.950 . S
C714 C710 1.385 . S
C714 C713 1.374 . S
C715 C712 1.499 . S
C715 C716 1.373 . S
C715 C717 1.389 . S
C716 H689 0.950 . S
C716 C702 1.377 . S
C716 C715 1.373 . S
C717 C701 1.377 . S
C717 C715 1.389 . S
C717 C718 1.524 . S
C718 C717 1.524 . S
C718 C719 1.397 . S
C718 C723 1.363 . S
C719 H690 0.950 . S
C719 C718 1.397 . S
C719 C720 1.334 . S
C720 H691 0.950 . S
C720 C719 1.334 . S
C720 C721 1.287 . S
C721 C720 1.287 . S
C721 C722 1.524 . S
C721 H724 0.999 . S
C722 H692 0.950 . S
C722 C721 1.524 . S
C722 C723 1.415 . S
C723 H693 0.950 . S
C723 C718 1.363 . S
C723 C722 1.415 . S
H724 C721 0.999 . S
H725 C706 0.913 . S
H726 C744 0.951 . S
H727 C746 0.951 . S
H728 C748 0.950 . S
H729 C749 0.950 . S
H730 C751 0.950 . S
H731 C754 0.950 . S
H732 C755 0.950 . S
H733 C757 0.950 . S
H734 C758 0.950 . S
H735 C759 0.951 . S
H736 C761 0.951 . S
H737 C763 0.950 . S
H738 C764 0.950 . S
H739 C766 0.950 . S
H740 C769 0.950 . S
H741 C770 0.950 . S
H742 C772 0.950 . S
H743 C773 0.950 . S
C744 H726 0.951 . S
C744 C745 1.366 . S
C744 C746 1.388 . S
C745 C744 1.366 . S
C745 C749 1.385 . S
C746 H727 0.951 . S
C746 C744 1.388 . S
C746 C747 1.366 . S
C747 C746 1.366 . S
C747 C748 1.414 . S
C747 C750 1.499 . S
C748 H728 0.950 . S
C748 C747 1.414 . S
C748 C749 1.374 . S
C749 H729 0.950 . S
C749 C745 1.385 . S
C749 C748 1.374 . S
C750 C747 1.499 . S
C750 C751 1.373 . S
C750 C752 1.389 . S
C751 H730 0.950 . S
C751 C750 1.373 . S
C751 C767 1.377 . S
C752 C750 1.389 . S
C752 C753 1.524 . S
C752 C766 1.377 . S
C753 C752 1.524 . S
C753 C754 1.397 . S
C753 C758 1.363 . S
C754 H731 0.950 . S
C754 C753 1.397 . S
C754 C755 1.334 . S
C755 H732 0.950 . S
C755 C754 1.334 . S
C755 C756 1.287 . S
C756 C755 1.287 . S
C756 C757 1.524 . S
C756 H775 0.913 . S
C757 H733 0.950 . S
C757 C756 1.524 . S
C757 C758 1.415 . S
C758 H734 0.950 . S
C758 C753 1.363 . S
C758 C757 1.415 . S
C759 H735 0.951 . S
C759 C760 1.366 . S
C759 C761 1.388 . S
C760 C759 1.366 . S
C760 C764 1.385 . S
C761 H736 0.951 . S
C761 C759 1.388 . S
C761 C762 1.366 . S
C762 C761 1.366 . S
C762 C763 1.414 . S
C762 C765 1.499 . S
C763 H737 0.950 . S
C763 C762 1.414 . S
C763 C764 1.374 . S
C764 H738 0.950 . S
C764 C760 1.385 . S
C764 C763 1.374 . S
C765 C762 1.499 . S
C765 C766 1.373 . S
C765 C767 1.389 . S
C766 H739 0.950 . S
C766 C752 1.377 . S
C766 C765 1.373 . S
C767 C751 1.377 . S
C767 C765 1.389 . S
C767 C768 1.524 . S
C768 C767 1.524 . S
C768 C769 1.397 . S
C768 C773 1.363 . S
C769 H740 0.950 . S
C769 C768 1.397 . S
C769 C770 1.334 1_545 S
C770 H741 0.950 . S
C770 C769 1.334 1_565 S
C770 C771 1.287 . S
C771 C770 1.287 . S
C771 C772 1.524 1_565 S
C771 H774 0.999 . S
C772 H742 0.950 . S
C772 C771 1.524 1_545 S
C772 C773 1.415 . S
C773 H743 0.950 . S
C773 C768 1.363 . S
C773 C772 1.415 . S
H774 C771 0.999 . S
H775 C756 0.913 . S
H776 C794 0.951 . S
H777 C796 0.951 . S
H778 C798 0.950 . S
H779 C799 0.950 . S
H780 C801 0.950 . S
H781 C804 0.950 . S
H782 C805 0.950 . S
H783 C807 0.950 . S
H784 C808 0.950 . S
H785 C809 0.951 . S
H786 C811 0.951 . S
H787 C813 0.950 . S
H788 C814 0.950 . S
H789 C816 0.950 . S
H790 C819 0.950 . S
H791 C820 0.950 . S
H792 C822 0.950 . S
H793 C823 0.950 . S
C794 H776 0.951 . S
C794 C795 1.366 . S
C794 C796 1.388 . S
C795 C794 1.366 . S
C795 C799 1.385 . S
C796 H777 0.951 . S
C796 C794 1.388 . S
C796 C797 1.366 . S
C797 C796 1.366 . S
C797 C798 1.414 . S
C797 C800 1.499 1_455 S
C798 H778 0.950 . S
C798 C797 1.414 . S
C798 C799 1.374 . S
C799 H779 0.950 . S
C799 C795 1.385 . S
C799 C798 1.374 . S
C800 C797 1.499 1_655 S
C800 C801 1.373 . S
C800 C802 1.389 . S
C801 H780 0.950 . S
C801 C800 1.373 . S
C801 C817 1.377 . S
C802 C800 1.389 . S
C802 C803 1.524 . S
C802 C816 1.377 . S
C803 C802 1.524 . S
C803 C804 1.397 1_655 S
C803 C808 1.363 . S
C804 H781 0.950 . S
C804 C803 1.397 1_455 S
C804 C805 1.334 . S
C805 H782 0.950 . S
C805 C804 1.334 . S
C805 C806 1.287 . S
C806 C805 1.287 . S
C806 C807 1.524 . S
C806 H825 0.913 . S
C807 H783 0.950 . S
C807 C806 1.524 . S
C807 C808 1.415 1_455 S
C808 H784 0.950 . S
C808 C803 1.363 . S
C808 C807 1.415 1_655 S
C809 H785 0.951 . S
C809 C810 1.366 . S
C809 C811 1.388 . S
C810 C809 1.366 . S
C810 C814 1.385 . S
C811 H786 0.951 . S
C811 C809 1.388 . S
C811 C812 1.366 . S
C812 C811 1.366 . S
C812 C813 1.414 . S
C812 C815 1.499 . S
C813 H787 0.950 . S
C813 C812 1.414 . S
C813 C814 1.374 . S
C814 H788 0.950 . S
C814 C810 1.385 . S
C814 C813 1.374 . S
C815 C812 1.499 . S
C815 C816 1.373 . S
C815 C817 1.389 . S
C816 H789 0.950 . S
C816 C802 1.377 . S
C816 C815 1.373 . S
C817 C801 1.377 . S
C817 C815 1.389 . S
C817 C818 1.524 . S
C818 C817 1.524 . S
C818 C819 1.397 . S
C818 C823 1.363 . S
C819 H790 0.950 . S
C819 C818 1.397 . S
C819 C820 1.334 . S
C820 H791 0.950 . S
C820 C819 1.334 . S
C820 C821 1.287 . S
C821 C820 1.287 . S
C821 C822 1.524 . S
C821 H824 0.999 . S
C822 H792 0.950 . S
C822 C821 1.524 . S
C822 C823 1.415 . S
C823 H793 0.950 . S
C823 C818 1.363 . S
C823 C822 1.415 . S
H824 C821 0.999 . S
H825 C806 0.913 . S
H826 C844 0.951 . S
H827 C846 0.951 . S
H828 C848 0.950 . S
H829 C849 0.950 1_455 S
H830 C851 0.950 . S
H831 C854 0.950 . S
H832 C855 0.950 . S
H833 C857 0.950 . S
H834 C858 0.950 . S
H835 C859 0.951 . S
H836 C861 0.951 . S
H837 C863 0.950 . S
H838 C864 0.950 . S
H839 C866 0.950 . S
H840 C869 0.950 . S
H841 C870 0.950 . S
H842 C872 0.950 . S
H843 C873 0.950 . S
C844 H826 0.951 . S
C844 C845 1.366 . S
C844 C846 1.388 . S
C845 C844 1.366 . S
C845 C849 1.385 . S
C846 H827 0.951 . S
C846 C844 1.388 . S
C846 C847 1.366 . S
C847 C846 1.366 . S
C847 C848 1.414 . S
C847 C850 1.499 . S
C848 H828 0.950 . S
C848 C847 1.414 . S
C848 C849 1.374 . S
C849 H829 0.950 1_655 S
C849 C845 1.385 . S
C849 C848 1.374 . S
C850 C847 1.499 . S
C850 C851 1.373 . S
C850 C852 1.389 . S
C851 H830 0.950 . S
C851 C850 1.373 . S
C851 C867 1.377 . S
C852 C850 1.389 . S
C852 C853 1.524 . S
C852 C866 1.377 . S
C853 C852 1.524 . S
C853 C854 1.397 . S
C853 C858 1.363 . S
C854 H831 0.950 . S
C854 C853 1.397 . S
C854 C855 1.334 . S
C855 H832 0.950 . S
C855 C854 1.334 . S
C855 C856 1.287 . S
C856 C855 1.287 . S
C856 C857 1.524 . S
C856 H875 0.913 . S
C857 H833 0.950 . S
C857 C856 1.524 . S
C857 C858 1.415 . S
C858 H834 0.950 . S
C858 C853 1.363 . S
C858 C857 1.415 . S
C859 H835 0.951 . S
C859 C860 1.366 . S
C859 C861 1.388 . S
C860 C859 1.366 . S
C860 C864 1.385 . S
C861 H836 0.951 . S
C861 C859 1.388 . S
C861 C862 1.366 . S
C862 C861 1.366 . S
C862 C863 1.414 . S
C862 C865 1.499 1_565 S
C863 H837 0.950 . S
C863 C862 1.414 . S
C863 C864 1.374 . S
C864 H838 0.950 . S
C864 C860 1.385 . S
C864 C863 1.374 . S
C865 C862 1.499 1_545 S
C865 C866 1.373 . S
C865 C867 1.389 . S
C866 H839 0.950 . S
C866 C852 1.377 . S
C866 C865 1.373 . S
C867 C851 1.377 . S
C867 C865 1.389 . S
C867 C868 1.524 . S
C868 C867 1.524 . S
C868 C869 1.397 1_545 S
C868 C873 1.363 . S
C869 H840 0.950 . S
C869 C868 1.397 1_565 S
C869 C870 1.334 . S
C870 H841 0.950 . S
C870 C869 1.334 . S
C870 C871 1.287 . S
C871 C870 1.287 . S
C871 C872 1.524 . S
C871 H874 0.999 . S
C872 H842 0.950 . S
C872 C871 1.524 . S
C872 C873 1.415 1_565 S
C873 H843 0.950 . S
C873 C868 1.363 . S
C873 C872 1.415 1_545 S
H874 C871 0.999 . S
H875 C856 0.913 . S
H876 C894 0.951 . S
H877 C896 0.951 . S
H878 C898 0.950 . S
H879 C899 0.950 . S
H880 C901 0.950 . S
H881 C904 0.950 . S
H882 C905 0.950 . S
H883 C907 0.950 . S
H884 C908 0.950 . S
H885 C909 0.951 . S
H886 C911 0.951 . S
H887 C913 0.950 . S
H888 C914 0.950 . S
H889 C916 0.950 . S
H890 C919 0.950 . S
H891 C920 0.950 . S
H892 C922 0.950 . S
H893 C923 0.950 . S
C894 H876 0.951 . S
C894 C895 1.366 . S
C894 C896 1.388 . S
C895 C894 1.366 . S
C895 C899 1.385 . S
C896 H877 0.951 . S
C896 C894 1.388 . S
C896 C897 1.366 . S
C897 C896 1.366 . S
C897 C898 1.414 . S
C897 C900 1.499 . S
C898 H878 0.950 . S
C898 C897 1.414 . S
C898 C899 1.374 . S
C899 H879 0.950 . S
C899 C895 1.385 . S
C899 C898 1.374 . S
C900 C897 1.499 . S
C900 C901 1.373 . S
C900 C902 1.389 . S
C901 H880 0.950 . S
C901 C900 1.373 . S
C901 C917 1.377 . S
C902 C900 1.389 . S
C902 C903 1.524 . S
C902 C916 1.377 . S
C903 C902 1.524 . S
C903 C904 1.397 . S
C903 C908 1.363 . S
C904 H881 0.950 . S
C904 C903 1.397 . S
C904 C905 1.334 . S
C905 H882 0.950 . S
C905 C904 1.334 . S
C905 C906 1.287 . S
C906 C905 1.287 . S
C906 C907 1.524 . S
C906 H925 0.913 . S
C907 H883 0.950 . S
C907 C906 1.524 . S
C907 C908 1.415 . S
C908 H884 0.950 . S
C908 C903 1.363 . S
C908 C907 1.415 . S
C909 H885 0.951 . S
C909 C910 1.366 . S
C909 C911 1.388 . S
C910 C909 1.366 . S
C910 C914 1.385 . S
C911 H886 0.951 . S
C911 C909 1.388 . S
C911 C912 1.366 . S
C912 C911 1.366 . S
C912 C913 1.414 . S
C912 C915 1.499 . S
C913 H887 0.950 . S
C913 C912 1.414 . S
C913 C914 1.374 . S
C914 H888 0.950 . S
C914 C910 1.385 . S
C914 C913 1.374 . S
C915 C912 1.499 . S
C915 C916 1.373 . S
C915 C917 1.389 . S
C916 H889 0.950 . S
C916 C902 1.377 . S
C916 C915 1.373 . S
C917 C901 1.377 . S
C917 C915 1.389 . S
C917 C918 1.524 . S
C918 C917 1.524 . S
C918 C919 1.397 . S
C918 C923 1.363 . S
C919 H890 0.950 . S
C919 C918 1.397 . S
C919 C920 1.334 . S
C920 H891 0.950 . S
C920 C919 1.334 . S
C920 C921 1.287 . S
C921 C920 1.287 . S
C921 C922 1.524 . S
C921 H924 0.999 . S
C922 H892 0.950 . S
C922 C921 1.524 . S
C922 C923 1.415 . S
C923 H893 0.950 . S
C923 C918 1.363 . S
C923 C922 1.415 . S
H924 C921 0.999 . S
H925 C906 0.913 . S
H926 C944 0.951 . S
H927 C946 0.951 . S
H928 C948 0.950 . S
H929 C949 0.950 . S
H930 C951 0.950 . S
H931 C954 0.950 . S
H932 C955 0.950 . S
H933 C957 0.950 . S
H934 C958 0.950 . S
H935 C959 0.951 . S
H936 C961 0.951 . S
H937 C963 0.950 . S
H938 C964 0.950 . S
H939 C966 0.950 . S
H940 C969 0.950 . S
H941 C970 0.950 . S
H942 C972 0.950 . S
H943 C973 0.950 . S
C944 H926 0.951 . S
C944 C945 1.366 . S
C944 C946 1.388 . S
C945 C944 1.366 . S
C945 C949 1.385 . S
C946 H927 0.951 . S
C946 C944 1.388 . S
C946 C947 1.366 . S
C947 C946 1.366 . S
C947 C948 1.414 . S
C947 C950 1.499 . S
C948 H928 0.950 . S
C948 C947 1.414 . S
C948 C949 1.374 . S
C949 H929 0.950 . S
C949 C945 1.385 . S
C949 C948 1.374 . S
C950 C947 1.499 . S
C950 C951 1.373 . S
C950 C952 1.389 . S
C951 H930 0.950 . S
C951 C950 1.373 . S
C951 C967 1.377 . S
C952 C950 1.389 . S
C952 C953 1.524 . S
C952 C966 1.377 . S
C953 C952 1.524 . S
C953 C954 1.397 . S
C953 C958 1.363 . S
C954 H931 0.950 . S
C954 C953 1.397 . S
C954 C955 1.334 . S
C955 H932 0.950 . S
C955 C954 1.334 . S
C955 C956 1.287 . S
C956 C955 1.287 . S
C956 C957 1.524 . S
C956 H975 0.913 . S
C957 H933 0.950 . S
C957 C956 1.524 . S
C957 C958 1.415 . S
C958 H934 0.950 . S
C958 C953 1.363 . S
C958 C957 1.415 . S
C959 H935 0.951 . S
C959 C960 1.366 . S
C959 C961 1.388 . S
C960 C959 1.366 . S
C960 C964 1.385 . S
C961 H936 0.951 . S
C961 C959 1.388 . S
C961 C962 1.366 . S
C962 C961 1.366 . S
C962 C963 1.414 . S
C962 C965 1.499 . S
C963 H937 0.950 . S
C963 C962 1.414 . S
C963 C964 1.374 . S
C964 H938 0.950 . S
C964 C960 1.385 . S
C964 C963 1.374 . S
C965 C962 1.499 . S
C965 C966 1.373 . S
C965 C967 1.389 . S
C966 H939 0.950 . S
C966 C952 1.377 . S
C966 C965 1.373 . S
C967 C951 1.377 . S
C967 C965 1.389 . S
C967 C968 1.524 . S
C968 C967 1.524 . S
C968 C969 1.397 . S
C968 C973 1.363 . S
C969 H940 0.950 . S
C969 C968 1.397 . S
C969 C970 1.334 . S
C970 H941 0.950 . S
C970 C969 1.334 . S
C970 C971 1.287 . S
C971 C970 1.287 . S
C971 C972 1.524 . S
C971 H974 0.999 . S
C972 H942 0.950 . S
C972 C971 1.524 . S
C972 C973 1.415 . S
C973 H943 0.950 . S
C973 C968 1.363 . S
C973 C972 1.415 . S
H974 C971 0.999 . S
H975 C956 0.913 . S
H976 C994 0.951 . S
H977 C996 0.951 . S
H978 C998 0.950 . S
H979 C999 0.950 . S
H980 C1001 0.950 . S
H981 C1004 0.950 . S
H982 C1005 0.950 . S
H983 C1007 0.950 . S
H984 C1008 0.950 . S
H985 C1009 0.951 . S
H986 C1011 0.951 . S
H987 C1013 0.950 . S
H988 C1014 0.950 . S
H989 C1016 0.950 . S
H990 C1019 0.950 . S
H991 C1020 0.950 . S
H992 C1022 0.950 . S
H993 C1023 0.950 . S
C994 H976 0.951 . S
C994 C995 1.366 . S
C994 C996 1.388 . S
C995 C994 1.366 . S
C995 C999 1.385 . S
C996 H977 0.951 . S
C996 C994 1.388 . S
C996 C997 1.366 . S
C997 C996 1.366 . S
C997 C998 1.414 . S
C997 C1000 1.499 . S
C998 H978 0.950 . S
C998 C997 1.414 . S
C998 C999 1.374 . S
C999 H979 0.950 . S
C999 C995 1.385 . S
C999 C998 1.374 . S
C1000 C997 1.499 . S
C1000 C1001 1.373 . S
C1000 C1002 1.389 . S
C1001 H980 0.950 . S
C1001 C1000 1.373 . S
C1001 C1017 1.377 . S
C1002 C1000 1.389 . S
C1002 C1003 1.524 . S
C1002 C1016 1.377 . S
C1003 C1002 1.524 . S
C1003 C1004 1.397 . S
C1003 C1008 1.363 . S
C1004 H981 0.950 . S
C1004 C1003 1.397 . S
C1004 C1005 1.334 . S
C1005 H982 0.950 . S
C1005 C1004 1.334 . S
C1005 C1006 1.287 . S
C1006 C1005 1.287 . S
C1006 C1007 1.524 1_655 S
C1006 H1025 0.913 . S
C1007 H983 0.950 . S
C1007 C1006 1.524 1_455 S
C1007 C1008 1.415 1_455 S
C1008 H984 0.950 . S
C1008 C1003 1.363 . S
C1008 C1007 1.415 1_655 S
C1009 H985 0.951 . S
C1009 C1010 1.366 . S
C1009 C1011 1.388 . S
C1010 C1009 1.366 . S
C1010 C1014 1.385 . S
C1011 H986 0.951 . S
C1011 C1009 1.388 . S
C1011 C1012 1.366 . S
C1012 C1011 1.366 . S
C1012 C1013 1.414 . S
C1012 C1015 1.499 . S
C1013 H987 0.950 . S
C1013 C1012 1.414 . S
C1013 C1014 1.374 . S
C1014 H988 0.950 . S
C1014 C1010 1.385 . S
C1014 C1013 1.374 . S
C1015 C1012 1.499 . S
C1015 C1016 1.373 . S
C1015 C1017 1.389 . S
C1016 H989 0.950 . S
C1016 C1002 1.377 . S
C1016 C1015 1.373 . S
C1017 C1001 1.377 . S
C1017 C1015 1.389 . S
C1017 C1018 1.524 . S
C1018 C1017 1.524 . S
C1018 C1019 1.397 . S
C1018 C1023 1.363 . S
C1019 H990 0.950 . S
C1019 C1018 1.397 . S
C1019 C1020 1.334 . S
C1020 H991 0.950 . S
C1020 C1019 1.334 . S
C1020 C1021 1.287 . S
C1021 C1020 1.287 . S
C1021 C1022 1.524 . S
C1021 H1024 0.999 . S
C1022 H992 0.950 . S
C1022 C1021 1.524 . S
C1022 C1023 1.415 . S
C1023 H993 0.950 . S
C1023 C1018 1.363 . S
C1023 C1022 1.415 . S
H1024 C1021 0.999 . S
H1025 C1006 0.913 . S
H1026 C1044 0.951 . S
H1027 C1046 0.951 . S
H1028 C1048 0.950 . S
H1029 C1049 0.950 . S
H1030 C1051 0.950 . S
H1031 C1054 0.950 . S
H1032 C1055 0.950 1_655 S
H1033 C1057 0.950 . S
H1034 C1058 0.950 . S
H1035 C1059 0.951 . S
H1036 C1061 0.951 . S
H1037 C1063 0.950 . S
H1038 C1064 0.950 . S
H1039 C1066 0.950 . S
H1040 C1069 0.950 . S
H1041 C1070 0.950 . S
H1042 C1072 0.950 . S
H1043 C1073 0.950 . S
C1044 H1026 0.951 . S
C1044 C1045 1.366 . S
C1044 C1046 1.388 . S
C1045 C1044 1.366 . S
C1045 C1049 1.385 . S
C1046 H1027 0.951 . S
C1046 C1044 1.388 . S
C1046 C1047 1.366 . S
C1047 C1046 1.366 . S
C1047 C1048 1.414 . S
C1047 C1050 1.499 . S
C1048 H1028 0.950 . S
C1048 C1047 1.414 . S
C1048 C1049 1.374 . S
C1049 H1029 0.950 . S
C1049 C1045 1.385 . S
C1049 C1048 1.374 . S
C1050 C1047 1.499 . S
C1050 C1051 1.373 . S
C1050 C1052 1.389 . S
C1051 H1030 0.950 . S
C1051 C1050 1.373 . S
C1051 C1067 1.377 . S
C1052 C1050 1.389 . S
C1052 C1053 1.524 . S
C1052 C1066 1.377 . S
C1053 C1052 1.524 . S
C1053 C1054 1.397 . S
C1053 C1058 1.363 . S
C1054 H1031 0.950 . S
C1054 C1053 1.397 . S
C1054 C1055 1.334 . S
C1055 H1032 0.950 1_455 S
C1055 C1054 1.334 . S
C1055 C1056 1.287 . S
C1056 C1055 1.287 . S
C1056 C1057 1.524 . S
C1056 H1075 0.913 . S
C1057 H1033 0.950 . S
C1057 C1056 1.524 . S
C1057 C1058 1.415 . S
C1058 H1034 0.950 . S
C1058 C1053 1.363 . S
C1058 C1057 1.415 . S
C1059 H1035 0.951 . S
C1059 C1060 1.366 . S
C1059 C1061 1.388 . S
C1060 C1059 1.366 . S
C1060 C1064 1.385 . S
C1061 H1036 0.951 . S
C1061 C1059 1.388 . S
C1061 C1062 1.366 . S
C1062 C1061 1.366 . S
C1062 C1063 1.414 . S
C1062 C1065 1.499 . S
C1063 H1037 0.950 . S
C1063 C1062 1.414 . S
C1063 C1064 1.374 . S
C1064 H1038 0.950 . S
C1064 C1060 1.385 . S
C1064 C1063 1.374 . S
C1065 C1062 1.499 . S
C1065 C1066 1.373 . S
C1065 C1067 1.389 . S
C1066 H1039 0.950 . S
C1066 C1052 1.377 . S
C1066 C1065 1.373 . S
C1067 C1051 1.377 . S
C1067 C1065 1.389 . S
C1067 C1068 1.524 . S
C1068 C1067 1.524 . S
C1068 C1069 1.397 . S
C1068 C1073 1.363 . S
C1069 H1040 0.950 . S
C1069 C1068 1.397 . S
C1069 C1070 1.334 . S
C1070 H1041 0.950 . S
C1070 C1069 1.334 . S
C1070 C1071 1.287 . S
C1071 C1070 1.287 . S
C1071 C1072 1.524 . S
C1071 H1074 0.999 . S
C1072 H1042 0.950 . S
C1072 C1071 1.524 . S
C1072 C1073 1.415 . S
C1073 H1043 0.950 . S
C1073 C1068 1.363 . S
C1073 C1072 1.415 . S
H1074 C1071 0.999 . S
H1075 C1056 0.913 . S
H1076 C1094 0.951 . S
H1077 C1096 0.951 . S
H1078 C1098 0.950 . S
H1079 C1099 0.950 . S
H1080 C1101 0.950 . S
H1081 C1104 0.950 . S
H1082 C1105 0.950 . S
H1083 C1107 0.950 . S
H1084 C1108 0.950 . S
H1085 C1109 0.951 . S
H1086 C1111 0.951 . S
H1087 C1113 0.950 . S
H1088 C1114 0.950 . S
H1089 C1116 0.950 . S
H1090 C1119 0.950 . S
H1091 C1120 0.950 . S
H1092 C1122 0.950 . S
H1093 C1123 0.950 . S
C1094 H1076 0.951 . S
C1094 C1095 1.366 . S
C1094 C1096 1.388 . S
C1095 C1094 1.366 . S
C1095 C1099 1.385 . S
C1096 H1077 0.951 . S
C1096 C1094 1.388 . S
C1096 C1097 1.366 . S
C1097 C1096 1.366 . S
C1097 C1098 1.414 . S
C1097 C1100 1.499 . S
C1098 H1078 0.950 . S
C1098 C1097 1.414 . S
C1098 C1099 1.374 . S
C1099 H1079 0.950 . S
C1099 C1095 1.385 . S
C1099 C1098 1.374 . S
C1100 C1097 1.499 . S
C1100 C1101 1.373 . S
C1100 C1102 1.389 . S
C1101 H1080 0.950 . S
C1101 C1100 1.373 . S
C1101 C1117 1.377 . S
C1102 C1100 1.389 . S
C1102 C1103 1.524 . S
C1102 C1116 1.377 . S
C1103 C1102 1.524 . S
C1103 C1104 1.397 . S
C1103 C1108 1.363 . S
C1104 H1081 0.950 . S
C1104 C1103 1.397 . S
C1104 C1105 1.334 1_565 S
C1105 H1082 0.950 . S
C1105 C1104 1.334 1_545 S
C1105 C1106 1.287 . S
C1106 C1105 1.287 . S
C1106 C1107 1.524 . S
C1106 H1125 0.913 . S
C1107 H1083 0.950 . S
C1107 C1106 1.524 . S
C1107 C1108 1.415 1_545 S
C1108 H1084 0.950 . S
C1108 C1103 1.363 . S
C1108 C1107 1.415 1_565 S
C1109 H1085 0.951 . S
C1109 C1110 1.366 . S
C1109 C1111 1.388 . S
C1110 C1109 1.366 . S
C1110 C1114 1.385 . S
C1111 H1086 0.951 . S
C1111 C1109 1.388 . S
C1111 C1112 1.366 . S
C1112 C1111 1.366 . S
C1112 C1113 1.414 . S
C1112 C1115 1.499 . S
C1113 H1087 0.950 . S
C1113 C1112 1.414 . S
C1113 C1114 1.374 . S
C1114 H1088 0.950 . S
C1114 C1110 1.385 . S
C1114 C1113 1.374 . S
C1115 C1112 1.499 . S
C1115 C1116 1.373 . S
C1115 C1117 1.389 . S
C1116 H1089 0.950 . S
C1116 C1102 1.377 . S
C1116 C1115 1.373 . S
C1117 C1101 1.377 . S
C1117 C1115 1.389 . S
C1117 C1118 1.524 . S
C1118 C1117 1.524 . S
C1118 C1119 1.397 . S
C1118 C1123 1.363 . S
C1119 H1090 0.950 . S
C1119 C1118 1.397 . S
C1119 C1120 1.334 . S
C1120 H1091 0.950 . S
C1120 C1119 1.334 . S
C1120 C1121 1.287 . S
C1121 C1120 1.287 . S
C1121 C1122 1.524 . S
C1121 H1124 0.999 . S
C1122 H1092 0.950 . S
C1122 C1121 1.524 . S
C1122 C1123 1.415 . S
C1123 H1093 0.950 . S
C1123 C1118 1.363 . S
C1123 C1122 1.415 . S
H1124 C1121 0.999 . S
H1125 C1106 0.913 . S
H1126 C1144 0.951 . S
H1127 C1146 0.951 . S
H1128 C1148 0.950 . S
H1129 C1149 0.950 . S
H1130 C1151 0.950 . S
H1131 C1154 0.950 . S
H1132 C1155 0.950 . S
H1133 C1157 0.950 . S
H1134 C1158 0.950 . S
H1135 C1159 0.951 . S
H1136 C1161 0.951 . S
H1137 C1163 0.950 . S
H1138 C1164 0.950 . S
H1139 C1166 0.950 . S
H1140 C1169 0.950 . S
H1141 C1170 0.950 . S
H1142 C1172 0.950 . S
H1143 C1173 0.950 . S
C1144 H1126 0.951 . S
C1144 C1145 1.366 . S
C1144 C1146 1.388 . S
C1145 C1144 1.366 . S
C1145 C1149 1.385 . S
C1146 H1127 0.951 . S
C1146 C1144 1.388 . S
C1146 C1147 1.366 . S
C1147 C1146 1.366 . S
C1147 C1148 1.414 . S
C1147 C1150 1.499 . S
C1148 H1128 0.950 . S
C1148 C1147 1.414 . S
C1148 C1149 1.374 . S
C1149 H1129 0.950 . S
C1149 C1145 1.385 . S
C1149 C1148 1.374 . S
C1150 C1147 1.499 . S
C1150 C1151 1.373 . S
C1150 C1152 1.389 . S
C1151 H1130 0.950 . S
C1151 C1150 1.373 . S
C1151 C1167 1.377 . S
C1152 C1150 1.389 . S
C1152 C1153 1.524 . S
C1152 C1166 1.377 . S
C1153 C1152 1.524 . S
C1153 C1154 1.397 . S
C1153 C1158 1.363 . S
C1154 H1131 0.950 . S
C1154 C1153 1.397 . S
C1154 C1155 1.334 . S
C1155 H1132 0.950 . S
C1155 C1154 1.334 . S
C1155 C1156 1.287 . S
C1156 C1155 1.287 . S
C1156 C1157 1.524 . S
C1156 H1175 0.913 . S
C1157 H1133 0.950 . S
C1157 C1156 1.524 . S
C1157 C1158 1.415 . S
C1158 H1134 0.950 . S
C1158 C1153 1.363 . S
C1158 C1157 1.415 . S
C1159 H1135 0.951 . S
C1159 C1160 1.366 . S
C1159 C1161 1.388 . S
C1160 C1159 1.366 . S
C1160 C1164 1.385 . S
C1161 H1136 0.951 . S
C1161 C1159 1.388 . S
C1161 C1162 1.366 . S
C1162 C1161 1.366 . S
C1162 C1163 1.414 . S
C1162 C1165 1.499 . S
C1163 H1137 0.950 . S
C1163 C1162 1.414 . S
C1163 C1164 1.374 . S
C1164 H1138 0.950 . S
C1164 C1160 1.385 . S
C1164 C1163 1.374 . S
C1165 C1162 1.499 . S
C1165 C1166 1.373 . S
C1165 C1167 1.389 . S
C1166 H1139 0.950 . S
C1166 C1152 1.377 . S
C1166 C1165 1.373 . S
C1167 C1151 1.377 . S
C1167 C1165 1.389 . S
C1167 C1168 1.524 . S
C1168 C1167 1.524 . S
C1168 C1169 1.397 . S
C1168 C1173 1.363 . S
C1169 H1140 0.950 . S
C1169 C1168 1.397 . S
C1169 C1170 1.334 . S
C1170 H1141 0.950 . S
C1170 C1169 1.334 . S
C1170 C1171 1.287 . S
C1171 C1170 1.287 . S
C1171 C1172 1.524 . S
C1171 H1174 0.999 . S
C1172 H1142 0.950 . S
C1172 C1171 1.524 . S
C1172 C1173 1.415 . S
C1173 H1143 0.950 . S
C1173 C1168 1.363 . S
C1173 C1172 1.415 . S
H1174 C1171 0.999 . S
H1175 C1156 0.913 . S
H1176 C1194 0.951 . S
H1177 C1196 0.951 . S
H1178 C1198 0.950 . S
H1179 C1199 0.950 . S
H1180 C1201 0.950 . S
H1181 C1204 0.950 . S
H1182 C1205 0.950 . S
H1183 C1207 0.950 . S
H1184 C1208 0.950 . S
H1185 C1209 0.951 . S
H1186 C1211 0.951 . S
H1187 C1213 0.950 . S
H1188 C1214 0.950 . S
H1189 C1216 0.950 . S
H1190 C1219 0.950 . S
H1191 C1220 0.950 . S
H1192 C1222 0.950 . S
H1193 C1223 0.950 . S
C1194 H1176 0.951 . S
C1194 C1195 1.366 . S
C1194 C1196 1.388 . S
C1195 C1194 1.366 . S
C1195 C1199 1.385 . S
C1196 H1177 0.951 . S
C1196 C1194 1.388 . S
C1196 C1197 1.366 . S
C1197 C1196 1.366 . S
C1197 C1198 1.414 . S
C1197 C1200 1.499 . S
C1198 H1178 0.950 . S
C1198 C1197 1.414 . S
C1198 C1199 1.374 . S
C1199 H1179 0.950 . S
C1199 C1195 1.385 . S
C1199 C1198 1.374 . S
C1200 C1197 1.499 . S
C1200 C1201 1.373 . S
C1200 C1202 1.389 1_565 S
C1201 H1180 0.950 . S
C1201 C1200 1.373 . S
C1201 C1217 1.377 1_556 S
C1202 C1200 1.389 1_545 S
C1202 C1203 1.524 . S
C1202 C1216 1.377 1_556 S
C1203 C1202 1.524 . S
C1203 C1204 1.397 . S
C1203 C1208 1.363 . S
C1204 H1181 0.950 . S
C1204 C1203 1.397 . S
C1204 C1205 1.334 . S
C1205 H1182 0.950 . S
C1205 C1204 1.334 . S
C1205 C1206 1.287 . S
C1206 C1205 1.287 . S
C1206 C1207 1.524 . S
C1206 H1225 0.913 . S
C1207 H1183 0.950 . S
C1207 C1206 1.524 . S
C1207 C1208 1.415 . S
C1208 H1184 0.950 . S
C1208 C1203 1.363 . S
C1208 C1207 1.415 . S
C1209 H1185 0.951 . S
C1209 C1210 1.366 . S
C1209 C1211 1.388 . S
C1210 C1209 1.366 . S
C1210 C1214 1.385 . S
C1211 H1186 0.951 . S
C1211 C1209 1.388 . S
C1211 C1212 1.366 . S
C1212 C1211 1.366 . S
C1212 C1213 1.414 . S
C1212 C1215 1.499 . S
C1213 H1187 0.950 . S
C1213 C1212 1.414 . S
C1213 C1214 1.374 . S
C1214 H1188 0.950 . S
C1214 C1210 1.385 . S
C1214 C1213 1.374 . S
C1215 C1212 1.499 . S
C1215 C1216 1.373 . S
C1215 C1217 1.389 1_545 S
C1216 H1189 0.950 . S
C1216 C1202 1.377 1_554 S
C1216 C1215 1.373 . S
C1217 C1201 1.377 1_554 S
C1217 C1215 1.389 1_565 S
C1217 C1218 1.524 . S
C1218 C1217 1.524 . S
C1218 C1219 1.397 . S
C1218 C1223 1.363 . S
C1219 H1190 0.950 . S
C1219 C1218 1.397 . S
C1219 C1220 1.334 . S
C1220 H1191 0.950 . S
C1220 C1219 1.334 . S
C1220 C1221 1.287 . S
C1221 C1220 1.287 . S
C1221 C1222 1.524 . S
C1221 H1224 0.999 . S
C1222 H1192 0.950 . S
C1222 C1221 1.524 . S
C1222 C1223 1.415 . S
C1223 H1193 0.950 . S
C1223 C1218 1.363 . S
C1223 C1222 1.415 . S
H1224 C1221 0.999 . S
H1225 C1206 0.913 . S
H1226 C1244 0.951 . S
H1227 C1246 0.951 . S
H1228 C1248 0.950 . S
H1229 C1249 0.950 . S
H1230 C1251 0.950 . S
H1231 C1254 0.950 . S
H1232 C1255 0.950 . S
H1233 C1257 0.950 . S
H1234 C1258 0.950 . S
H1235 C1259 0.951 . S
H1236 C1261 0.951 . S
H1237 C1263 0.950 . S
H1238 C1264 0.950 . S
H1239 C1266 0.950 . S
H1240 C1269 0.950 . S
H1241 C1270 0.950 . S
H1242 C1272 0.950 . S
H1243 C1273 0.950 . S
C1244 H1226 0.951 . S
C1244 C1245 1.366 . S
C1244 C1246 1.388 . S
C1245 C1244 1.366 . S
C1245 C1249 1.385 . S
C1246 H1227 0.951 . S
C1246 C1244 1.388 . S
C1246 C1247 1.366 . S
C1247 C1246 1.366 . S
C1247 C1248 1.414 . S
C1247 C1250 1.499 . S
C1248 H1228 0.950 . S
C1248 C1247 1.414 . S
C1248 C1249 1.374 . S
C1249 H1229 0.950 . S
C1249 C1245 1.385 . S
C1249 C1248 1.374 . S
C1250 C1247 1.499 . S
C1250 C1251 1.373 . S
C1250 C1252 1.389 . S
C1251 H1230 0.950 . S
C1251 C1250 1.373 . S
C1251 C1267 1.377 . S
C1252 C1250 1.389 . S
C1252 C1253 1.524 . S
C1252 C1266 1.377 . S
C1253 C1252 1.524 . S
C1253 C1254 1.397 . S
C1253 C1258 1.363 . S
C1254 H1231 0.950 . S
C1254 C1253 1.397 . S
C1254 C1255 1.334 . S
C1255 H1232 0.950 . S
C1255 C1254 1.334 . S
C1255 C1256 1.287 . S
C1256 C1255 1.287 . S
C1256 C1257 1.524 . S
C1256 H1275 0.913 . S
C1257 H1233 0.950 . S
C1257 C1256 1.524 . S
C1257 C1258 1.415 . S
C1258 H1234 0.950 . S
C1258 C1253 1.363 . S
C1258 C1257 1.415 . S
C1259 H1235 0.951 . S
C1259 C1260 1.366 . S
C1259 C1261 1.388 . S
C1260 C1259 1.366 . S
C1260 C1264 1.385 . S
C1261 H1236 0.951 . S
C1261 C1259 1.388 . S
C1261 C1262 1.366 . S
C1262 C1261 1.366 . S
C1262 C1263 1.414 . S
C1262 C1265 1.499 . S
C1263 H1237 0.950 . S
C1263 C1262 1.414 . S
C1263 C1264 1.374 . S
C1264 H1238 0.950 . S
C1264 C1260 1.385 . S
C1264 C1263 1.374 . S
C1265 C1262 1.499 . S
C1265 C1266 1.373 . S
C1265 C1267 1.389 . S
C1266 H1239 0.950 . S
C1266 C1252 1.377 . S
C1266 C1265 1.373 . S
C1267 C1251 1.377 . S
C1267 C1265 1.389 . S
C1267 C1268 1.524 . S
C1268 C1267 1.524 . S
C1268 C1269 1.397 . S
C1268 C1273 1.363 . S
C1269 H1240 0.950 . S
C1269 C1268 1.397 . S
C1269 C1270 1.334 . S
C1270 H1241 0.950 . S
C1270 C1269 1.334 . S
C1270 C1271 1.287 . S
C1271 C1270 1.287 . S
C1271 C1272 1.524 . S
C1271 H1274 0.999 . S
C1272 H1242 0.950 . S
C1272 C1271 1.524 . S
C1272 C1273 1.415 . S
C1273 H1243 0.950 . S
C1273 C1268 1.363 . S
C1273 C1272 1.415 . S
H1274 C1271 0.999 . S
H1275 C1256 0.913 . S
H1276 C1294 0.951 . S
H1277 C1296 0.951 . S
H1278 C1298 0.950 . S
H1279 C1299 0.950 . S
H1280 C1301 0.950 . S
H1281 C1304 0.950 . S
H1282 C1305 0.950 . S
H1283 C1307 0.939 1_554 S
H1284 C1308 0.942 1_554 S
H1285 C1309 0.951 . S
H1286 C1311 0.951 . S
H1287 C1313 0.950 . S
H1288 C1314 0.950 . S
H1289 C1316 0.950 . S
H1290 C1319 0.950 . S
H1291 C1320 0.950 . S
H1292 C1322 0.939 1_556 S
H1293 C1323 0.942 1_556 S
C1294 H1276 0.951 . S
C1294 C1295 1.366 . S
C1294 C1296 1.388 . S
C1295 C1294 1.366 . S
C1295 C1299 1.385 . S
C1296 H1277 0.951 . S
C1296 C1294 1.388 . S
C1296 C1297 1.366 . S
C1297 C1296 1.366 . S
C1297 C1298 1.414 . S
C1297 C1300 1.499 . S
C1298 H1278 0.950 . S
C1298 C1297 1.414 . S
C1298 C1299 1.374 . S
C1299 H1279 0.950 . S
C1299 C1295 1.385 . S
C1299 C1298 1.374 . S
C1300 C1297 1.499 . S
C1300 C1301 1.373 1_455 S
C1300 C1302 1.389 . S
C1301 H1280 0.950 . S
C1301 C1300 1.373 1_655 S
C1301 C1317 1.377 1_556 S
C1302 C1300 1.389 . S
C1302 C1303 1.524 . S
C1302 C1316 1.377 1_556 S
C1303 C1302 1.524 . S
C1303 C1304 1.397 . S
C1303 C1308 1.370 . S
C1304 H1281 0.950 . S
C1304 C1303 1.397 . S
C1304 C1305 1.334 . S
C1305 H1282 0.950 . S
C1305 C1304 1.334 . S
C1305 C1306 1.287 . S
C1306 C1305 1.287 . S
C1306 C1307 1.524 . S
C1306 H1325 0.913 . S
C1307 H1283 0.939 1_556 S
C1307 C1306 1.524 . S
C1307 C1308 1.416 . S
C1308 H1284 0.942 1_556 S
C1308 C1303 1.370 . S
C1308 C1307 1.416 . S
C1309 H1285 0.951 . S
C1309 C1310 1.366 . S
C1309 C1311 1.388 . S
C1310 C1309 1.366 . S
C1310 C1314 1.385 . S
C1311 H1286 0.951 . S
C1311 C1309 1.388 . S
C1311 C1312 1.366 . S
C1312 C1311 1.366 . S
C1312 C1313 1.414 . S
C1312 C1315 1.499 . S
C1313 H1287 0.950 . S
C1313 C1312 1.414 . S
C1313 C1314 1.374 . S
C1314 H1288 0.950 . S
C1314 C1310 1.385 . S
C1314 C1313 1.374 . S
C1315 C1312 1.499 . S
C1315 C1316 1.373 1_655 S
C1315 C1317 1.389 . S
C1316 H1289 0.950 . S
C1316 C1302 1.377 1_554 S
C1316 C1315 1.373 1_455 S
C1317 C1301 1.377 1_554 S
C1317 C1315 1.389 . S
C1317 C1318 1.524 . S
C1318 C1317 1.524 . S
C1318 C1319 1.397 . S
C1318 C1323 1.370 . S
C1319 H1290 0.950 . S
C1319 C1318 1.397 . S
C1319 C1320 1.334 . S
C1320 H1291 0.950 . S
C1320 C1319 1.334 . S
C1320 C1321 1.287 . S
C1321 C1320 1.287 . S
C1321 C1322 1.524 . S
C1321 H1324 0.999 . S
C1322 H1292 0.939 1_554 S
C1322 C1321 1.524 . S
C1322 C1323 1.416 . S
C1323 H1293 0.942 1_554 S
C1323 C1318 1.370 . S
C1323 C1322 1.416 . S
H1324 C1321 0.999 . S
H1325 C1306 0.913 . S
H1326 C1344 0.951 . S
H1327 C1346 0.951 . S
H1328 C1348 0.950 1_565 S
H1329 C1349 0.950 . S
H1330 C1351 0.950 . S
H1331 C1354 0.950 . S
H1332 C1355 0.950 . S
H1333 C1357 0.950 . S
H1334 C1358 0.950 . S
H1335 C1359 0.951 . S
H1336 C1361 0.951 . S
H1337 C1363 0.950 1_545 S
H1338 C1364 0.950 . S
H1339 C1366 0.950 . S
H1340 C1369 0.950 . S
H1341 C1370 0.950 . S
H1342 C1372 0.950 . S
H1343 C1373 0.950 . S
C1344 H1326 0.951 . S
C1344 C1345 1.366 . S
C1344 C1346 1.388 . S
C1345 C1344 1.366 . S
C1345 C1349 1.385 . S
C1346 H1327 0.951 . S
C1346 C1344 1.388 . S
C1346 C1347 1.366 . S
C1347 C1346 1.366 . S
C1347 C1348 1.414 . S
C1347 C1350 1.499 . S
C1348 H1328 0.950 1_545 S
C1348 C1347 1.414 . S
C1348 C1349 1.374 . S
C1349 H1329 0.950 . S
C1349 C1345 1.385 . S
C1349 C1348 1.374 . S
C1350 C1347 1.499 . S
C1350 C1351 1.373 1_545 S
C1350 C1352 1.389 . S
C1351 H1330 0.950 . S
C1351 C1350 1.373 1_565 S
C1351 C1367 1.377 . S
C1352 C1350 1.389 . S
C1352 C1353 1.524 . S
C1352 C1366 1.377 . S
C1353 C1352 1.524 . S
C1353 C1354 1.397 . S
C1353 C1358 1.363 . S
C1354 H1331 0.950 . S
C1354 C1353 1.397 . S
C1354 C1355 1.334 . S
C1355 H1332 0.950 . S
C1355 C1354 1.334 . S
C1355 C1356 1.287 . S
C1356 C1355 1.287 . S
C1356 C1357 1.524 . S
C1356 H1375 0.913 . S
C1357 H1333 0.950 . S
C1357 C1356 1.524 . S
C1357 C1358 1.415 . S
C1358 H1334 0.950 . S
C1358 C1353 1.363 . S
C1358 C1357 1.415 . S
C1359 H1335 0.951 . S
C1359 C1360 1.366 . S
C1359 C1361 1.388 . S
C1360 C1359 1.366 . S
C1360 C1364 1.385 . S
C1361 H1336 0.951 . S
C1361 C1359 1.388 . S
C1361 C1362 1.366 . S
C1362 C1361 1.366 . S
C1362 C1363 1.414 . S
C1362 C1365 1.499 . S
C1363 H1337 0.950 1_565 S
C1363 C1362 1.414 . S
C1363 C1364 1.374 . S
C1364 H1338 0.950 . S
C1364 C1360 1.385 . S
C1364 C1363 1.374 . S
C1365 C1362 1.499 . S
C1365 C1366 1.373 1_565 S
C1365 C1367 1.389 . S
C1366 H1339 0.950 . S
C1366 C1352 1.377 . S
C1366 C1365 1.373 1_545 S
C1367 C1351 1.377 . S
C1367 C1365 1.389 . S
C1367 C1368 1.524 . S
C1368 C1367 1.524 . S
C1368 C1369 1.397 . S
C1368 C1373 1.363 . S
C1369 H1340 0.950 . S
C1369 C1368 1.397 . S
C1369 C1370 1.334 . S
C1370 H1341 0.950 . S
C1370 C1369 1.334 . S
C1370 C1371 1.287 . S
C1371 C1370 1.287 . S
C1371 C1372 1.524 . S
C1371 H1374 0.999 . S
C1372 H1342 0.950 . S
C1372 C1371 1.524 . S
C1372 C1373 1.415 . S
C1373 H1343 0.950 . S
C1373 C1368 1.363 . S
C1373 C1372 1.415 . S
H1374 C1371 0.999 . S
H1375 C1356 0.913 . S
H1376 C1394 0.951 . S
H1377 C1396 0.951 . S
H1378 C1398 0.950 . S
H1379 C1399 0.950 . S
H1380 C1401 0.950 . S
H1381 C1404 0.950 . S
H1382 C1405 0.950 . S
H1383 C1407 0.950 . S
H1384 C1408 0.950 . S
H1385 C1409 0.951 . S
H1386 C1411 0.951 . S
H1387 C1413 0.950 . S
H1388 C1414 0.950 . S
H1389 C1416 0.950 . S
H1390 C1419 0.950 . S
H1391 C1420 0.950 . S
H1392 C1422 0.950 . S
H1393 C1423 0.950 . S
C1394 H1376 0.951 . S
C1394 C1395 1.366 . S
C1394 C1396 1.388 . S
C1395 C1394 1.366 . S
C1395 C1399 1.385 . S
C1396 H1377 0.951 . S
C1396 C1394 1.388 . S
C1396 C1397 1.366 . S
C1397 C1396 1.366 . S
C1397 C1398 1.414 . S
C1397 C1400 1.499 . S
C1398 H1378 0.950 . S
C1398 C1397 1.414 . S
C1398 C1399 1.374 . S
C1399 H1379 0.950 . S
C1399 C1395 1.385 . S
C1399 C1398 1.374 . S
C1400 C1397 1.499 . S
C1400 C1401 1.373 . S
C1400 C1402 1.389 . S
C1401 H1380 0.950 . S
C1401 C1400 1.373 . S
C1401 C1417 1.377 1_554 S
C1402 C1400 1.389 . S
C1402 C1403 1.524 . S
C1402 C1416 1.377 1_554 S
C1403 C1402 1.524 . S
C1403 C1404 1.397 . S
C1403 C1408 1.363 1_554 S
C1404 H1381 0.950 . S
C1404 C1403 1.397 . S
C1404 C1405 1.334 . S
C1405 H1382 0.950 . S
C1405 C1404 1.334 . S
C1405 C1406 1.287 . S
C1406 C1405 1.287 . S
C1406 C1407 1.524 1_554 S
C1406 H1425 0.913 . S
C1407 H1383 0.950 . S
C1407 C1406 1.524 1_556 S
C1407 C1408 1.415 . S
C1408 H1384 0.950 . S
C1408 C1403 1.363 1_556 S
C1408 C1407 1.415 . S
C1409 H1385 0.951 . S
C1409 C1410 1.366 . S
C1409 C1411 1.388 . S
C1410 C1409 1.366 . S
C1410 C1414 1.385 . S
C1411 H1386 0.951 . S
C1411 C1409 1.388 . S
C1411 C1412 1.366 . S
C1412 C1411 1.366 . S
C1412 C1413 1.414 . S
C1412 C1415 1.499 . S
C1413 H1387 0.950 . S
C1413 C1412 1.414 . S
C1413 C1414 1.374 . S
C1414 H1388 0.950 . S
C1414 C1410 1.385 . S
C1414 C1413 1.374 . S
C1415 C1412 1.499 . S
C1415 C1416 1.373 . S
C1415 C1417 1.389 . S
C1416 H1389 0.950 . S
C1416 C1402 1.377 1_556 S
C1416 C1415 1.373 . S
C1417 C1401 1.377 1_556 S
C1417 C1415 1.389 . S
C1417 C1418 1.524 . S
C1418 C1417 1.524 . S
C1418 C1419 1.397 . S
C1418 C1423 1.363 1_556 S
C1419 H1390 0.950 . S
C1419 C1418 1.397 . S
C1419 C1420 1.334 . S
C1420 H1391 0.950 . S
C1420 C1419 1.334 . S
C1420 C1421 1.287 . S
C1421 C1420 1.287 . S
C1421 C1422 1.524 1_556 S
C1421 H1424 0.999 . S
C1422 H1392 0.950 . S
C1422 C1421 1.524 1_554 S
C1422 C1423 1.415 . S
C1423 H1393 0.950 . S
C1423 C1418 1.363 1_554 S
C1423 C1422 1.415 . S
H1424 C1421 0.999 . S
H1425 C1406 0.913 . S
H1426 C1444 0.951 . S
H1427 C1446 0.951 . S
H1428 C1448 0.950 . S
H1429 C1449 0.950 . S
H1430 C1451 0.950 . S
H1431 C1454 0.950 . S
H1432 C1455 0.950 . S
H1433 C1457 0.950 . S
H1434 C1458 0.950 . S
H1435 C1459 0.951 . S
H1436 C1461 0.951 . S
H1437 C1463 0.950 . S
H1438 C1464 0.950 . S
H1439 C1466 0.950 . S
H1440 C1469 0.950 . S
H1441 C1470 0.950 . S
H1442 C1472 0.950 . S
H1443 C1473 0.950 . S
C1444 H1426 0.951 . S
C1444 C1445 1.366 . S
C1444 C1446 1.388 . S
C1445 C1444 1.366 . S
C1445 C1449 1.385 . S
C1446 H1427 0.951 . S
C1446 C1444 1.388 . S
C1446 C1447 1.366 . S
C1447 C1446 1.366 . S
C1447 C1448 1.414 . S
C1447 C1450 1.499 . S
C1448 H1428 0.950 . S
C1448 C1447 1.414 . S
C1448 C1449 1.374 . S
C1449 H1429 0.950 . S
C1449 C1445 1.385 . S
C1449 C1448 1.374 . S
C1450 C1447 1.499 . S
C1450 C1451 1.373 1_455 S
C1450 C1452 1.389 . S
C1451 H1430 0.950 . S
C1451 C1450 1.373 1_655 S
C1451 C1467 1.377 . S
C1452 C1450 1.389 . S
C1452 C1453 1.524 . S
C1452 C1466 1.377 . S
C1453 C1452 1.524 . S
C1453 C1454 1.397 . S
C1453 C1458 1.363 . S
C1454 H1431 0.950 . S
C1454 C1453 1.397 . S
C1454 C1455 1.334 . S
C1455 H1432 0.950 . S
C1455 C1454 1.334 . S
C1455 C1456 1.287 . S
C1456 C1455 1.287 . S
C1456 C1457 1.524 . S
C1456 H1475 0.913 . S
C1457 H1433 0.950 . S
C1457 C1456 1.524 . S
C1457 C1458 1.415 . S
C1458 H1434 0.950 . S
C1458 C1453 1.363 . S
C1458 C1457 1.415 . S
C1459 H1435 0.951 . S
C1459 C1460 1.366 . S
C1459 C1461 1.388 . S
C1460 C1459 1.366 . S
C1460 C1464 1.385 . S
C1461 H1436 0.951 . S
C1461 C1459 1.388 . S
C1461 C1462 1.366 . S
C1462 C1461 1.366 . S
C1462 C1463 1.414 . S
C1462 C1465 1.499 . S
C1463 H1437 0.950 . S
C1463 C1462 1.414 . S
C1463 C1464 1.374 . S
C1464 H1438 0.950 . S
C1464 C1460 1.385 . S
C1464 C1463 1.374 . S
C1465 C1462 1.499 . S
C1465 C1466 1.373 1_655 S
C1465 C1467 1.389 . S
C1466 H1439 0.950 . S
C1466 C1452 1.377 . S
C1466 C1465 1.373 1_455 S
C1467 C1451 1.377 . S
C1467 C1465 1.389 . S
C1467 C1468 1.524 . S
C1468 C1467 1.524 . S
C1468 C1469 1.397 . S
C1468 C1473 1.363 . S
C1469 H1440 0.950 . S
C1469 C1468 1.397 . S
C1469 C1470 1.334 . S
C1470 H1441 0.950 . S
C1470 C1469 1.334 . S
C1470 C1471 1.287 . S
C1471 C1470 1.287 . S
C1471 C1472 1.524 . S
C1471 H1474 0.999 . S
C1472 H1442 0.950 . S
C1472 C1471 1.524 . S
C1472 C1473 1.415 . S
C1473 H1443 0.950 . S
C1473 C1468 1.363 . S
C1473 C1472 1.415 . S
H1474 C1471 0.999 . S
H1475 C1456 0.913 . S
H1476 C1494 0.951 . S
H1477 C1496 0.951 . S
H1478 C1498 0.950 . S
H1479 C1499 0.950 . S
H1480 C1501 0.950 . S
H1481 C1504 0.950 . S
H1482 C1505 0.950 . S
H1483 C1507 0.950 . S
H1484 C1508 0.950 . S
H1485 C1509 0.951 . S
H1486 C1511 0.951 . S
H1487 C1513 0.950 . S
H1488 C1514 0.950 . S
H1489 C1516 0.950 . S
H1490 C1519 0.950 . S
H1491 C1520 0.950 . S
H1492 C1522 0.950 1_565 S
H1493 C1523 0.950 . S
C1494 H1476 0.951 . S
C1494 C1495 1.366 . S
C1494 C1496 1.388 . S
C1495 C1494 1.366 . S
C1495 C1499 1.385 . S
C1496 H1477 0.951 . S
C1496 C1494 1.388 . S
C1496 C1497 1.366 . S
C1497 C1496 1.366 . S
C1497 C1498 1.414 . S
C1497 C1500 1.499 . S
C1498 H1478 0.950 . S
C1498 C1497 1.414 . S
C1498 C1499 1.374 . S
C1499 H1479 0.950 . S
C1499 C1495 1.385 . S
C1499 C1498 1.374 . S
C1500 C1497 1.499 . S
C1500 C1501 1.373 . S
C1500 C1502 1.389 . S
C1501 H1480 0.950 . S
C1501 C1500 1.373 . S
C1501 C1517 1.377 . S
C1502 C1500 1.389 . S
C1502 C1503 1.524 . S
C1502 C1516 1.377 . S
C1503 C1502 1.524 . S
C1503 C1504 1.397 . S
C1503 C1508 1.363 . S
C1504 H1481 0.950 . S
C1504 C1503 1.397 . S
C1504 C1505 1.334 . S
C1505 H1482 0.950 . S
C1505 C1504 1.334 . S
C1505 C1506 1.287 . S
C1506 C1505 1.287 . S
C1506 C1507 1.524 . S
C1506 H1525 0.913 . S
C1507 H1483 0.950 . S
C1507 C1506 1.524 . S
C1507 C1508 1.415 . S
C1508 H1484 0.950 . S
C1508 C1503 1.363 . S
C1508 C1507 1.415 . S
C1509 H1485 0.951 . S
C1509 C1510 1.366 . S
C1509 C1511 1.388 . S
C1510 C1509 1.366 . S
C1510 C1514 1.385 . S
C1511 H1486 0.951 . S
C1511 C1509 1.388 . S
C1511 C1512 1.366 . S
C1512 C1511 1.366 . S
C1512 C1513 1.414 . S
C1512 C1515 1.499 . S
C1513 H1487 0.950 . S
C1513 C1512 1.414 . S
C1513 C1514 1.374 . S
C1514 H1488 0.950 . S
C1514 C1510 1.385 . S
C1514 C1513 1.374 . S
C1515 C1512 1.499 . S
C1515 C1516 1.373 . S
C1515 C1517 1.389 . S
C1516 H1489 0.950 . S
C1516 C1502 1.377 . S
C1516 C1515 1.373 . S
C1517 C1501 1.377 . S
C1517 C1515 1.389 . S
C1517 C1518 1.524 . S
C1518 C1517 1.524 . S
C1518 C1519 1.397 . S
C1518 C1523 1.363 . S
C1519 H1490 0.950 . S
C1519 C1518 1.397 . S
C1519 C1520 1.334 . S
C1520 H1491 0.950 . S
C1520 C1519 1.334 . S
C1520 C1521 1.287 . S
C1521 C1520 1.287 . S
C1521 C1522 1.524 . S
C1521 H1524 0.999 . S
C1522 H1492 0.950 1_545 S
C1522 C1521 1.524 . S
C1522 C1523 1.415 . S
C1523 H1493 0.950 . S
C1523 C1518 1.363 . S
C1523 C1522 1.415 . S
H1524 C1521 0.999 . S
H1525 C1506 0.913 . S
H1526 C1544 0.951 . S
H1527 C1546 0.951 . S
H1528 C1548 0.950 . S
H1529 C1549 0.950 . S
H1530 C1551 0.950 . S
H1531 C1554 0.950 . S
H1532 C1555 0.950 . S
H1533 C1557 0.950 . S
H1534 C1558 0.950 . S
H1535 C1559 0.951 . S
H1536 C1561 0.951 . S
H1537 C1563 0.950 . S
H1538 C1564 0.950 . S
H1539 C1566 0.950 . S
H1540 C1569 0.950 . S
H1541 C1570 0.950 . S
H1542 C1572 0.950 . S
H1543 C1573 0.950 . S
C1544 H1526 0.951 . S
C1544 C1545 1.366 . S
C1544 C1546 1.388 . S
C1545 C1544 1.366 . S
C1545 C1549 1.385 . S
C1546 H1527 0.951 . S
C1546 C1544 1.388 . S
C1546 C1547 1.366 . S
C1547 C1546 1.366 . S
C1547 C1548 1.414 . S
C1547 C1550 1.499 . S
C1548 H1528 0.950 . S
C1548 C1547 1.414 . S
C1548 C1549 1.374 . S
C1549 H1529 0.950 . S
C1549 C1545 1.385 . S
C1549 C1548 1.374 . S
C1550 C1547 1.499 . S
C1550 C1551 1.373 . S
C1550 C1552 1.389 . S
C1551 H1530 0.950 . S
C1551 C1550 1.373 . S
C1551 C1567 1.377 . S
C1552 C1550 1.389 . S
C1552 C1553 1.524 . S
C1552 C1566 1.377 . S
C1553 C1552 1.524 . S
C1553 C1554 1.397 . S
C1553 C1558 1.363 . S
C1554 H1531 0.950 . S
C1554 C1553 1.397 . S
C1554 C1555 1.334 . S
C1555 H1532 0.950 . S
C1555 C1554 1.334 . S
C1555 C1556 1.287 . S
C1556 C1555 1.287 . S
C1556 C1557 1.524 . S
C1556 H1575 0.913 . S
C1557 H1533 0.950 . S
C1557 C1556 1.524 . S
C1557 C1558 1.415 . S
C1558 H1534 0.950 . S
C1558 C1553 1.363 . S
C1558 C1557 1.415 . S
C1559 H1535 0.951 . S
C1559 C1560 1.366 . S
C1559 C1561 1.388 . S
C1560 C1559 1.366 . S
C1560 C1564 1.385 . S
C1561 H1536 0.951 . S
C1561 C1559 1.388 . S
C1561 C1562 1.366 . S
C1562 C1561 1.366 . S
C1562 C1563 1.414 . S
C1562 C1565 1.499 . S
C1563 H1537 0.950 . S
C1563 C1562 1.414 . S
C1563 C1564 1.374 . S
C1564 H1538 0.950 . S
C1564 C1560 1.385 . S
C1564 C1563 1.374 . S
C1565 C1562 1.499 . S
C1565 C1566 1.373 . S
C1565 C1567 1.389 . S
C1566 H1539 0.950 . S
C1566 C1552 1.377 . S
C1566 C1565 1.373 . S
C1567 C1551 1.377 . S
C1567 C1565 1.389 . S
C1567 C1568 1.524 . S
C1568 C1567 1.524 . S
C1568 C1569 1.397 . S
C1568 C1573 1.363 . S
C1569 H1540 0.950 . S
C1569 C1568 1.397 . S
C1569 C1570 1.334 . S
C1570 H1541 0.950 . S
C1570 C1569 1.334 . S
C1570 C1571 1.287 . S
C1571 C1570 1.287 . S
C1571 C1572 1.524 . S
C1571 H1574 0.999 . S
C1572 H1542 0.950 . S
C1572 C1571 1.524 . S
C1572 C1573 1.415 . S
C1573 H1543 0.950 . S
C1573 C1568 1.363 . S
C1573 C1572 1.415 . S
H1574 C1571 0.999 . S
H1575 C1556 0.913 . S
H1576 C1594 0.951 . S
H1577 C1596 0.951 . S
H1578 C1598 0.950 . S
H1579 C1599 0.950 . S
H1580 C1601 0.950 . S
H1581 C1604 0.950 . S
H1582 C1605 0.950 . S
H1583 C1607 0.950 . S
H1584 C1608 0.950 . S
H1585 C1609 0.951 . S
H1586 C1611 0.951 . S
H1587 C1613 0.950 . S
H1588 C1614 0.950 . S
H1589 C1616 0.950 . S
H1590 C1619 0.950 . S
H1591 C1620 0.950 . S
H1592 C1622 0.950 1_455 S
H1593 C1623 0.950 . S
C1594 H1576 0.951 . S
C1594 C1595 1.366 . S
C1594 C1596 1.388 . S
C1595 C1594 1.366 . S
C1595 C1599 1.385 . S
C1596 H1577 0.951 . S
C1596 C1594 1.388 . S
C1596 C1597 1.366 . S
C1597 C1596 1.366 . S
C1597 C1598 1.414 . S
C1597 C1600 1.499 . S
C1598 H1578 0.950 . S
C1598 C1597 1.414 . S
C1598 C1599 1.374 . S
C1599 H1579 0.950 . S
C1599 C1595 1.385 . S
C1599 C1598 1.374 . S
C1600 C1597 1.499 . S
C1600 C1601 1.373 . S
C1600 C1602 1.389 . S
C1601 H1580 0.950 . S
C1601 C1600 1.373 . S
C1601 C1617 1.377 . S
C1602 C1600 1.389 . S
C1602 C1603 1.524 . S
C1602 C1616 1.377 . S
C1603 C1602 1.524 . S
C1603 C1604 1.397 . S
C1603 C1608 1.363 . S
C1604 H1581 0.950 . S
C1604 C1603 1.397 . S
C1604 C1605 1.334 . S
C1605 H1582 0.950 . S
C1605 C1604 1.334 . S
C1605 C1606 1.287 . S
C1606 C1605 1.287 . S
C1606 C1607 1.524 . S
C1606 H1625 0.913 . S
C1607 H1583 0.950 . S
C1607 C1606 1.524 . S
C1607 C1608 1.415 . S
C1608 H1584 0.950 . S
C1608 C1603 1.363 . S
C1608 C1607 1.415 . S
C1609 H1585 0.951 . S
C1609 C1610 1.366 . S
C1609 C1611 1.388 . S
C1610 C1609 1.366 . S
C1610 C1614 1.385 . S
C1611 H1586 0.951 . S
C1611 C1609 1.388 . S
C1611 C1612 1.366 . S
C1612 C1611 1.366 . S
C1612 C1613 1.414 . S
C1612 C1615 1.499 . S
C1613 H1587 0.950 . S
C1613 C1612 1.414 . S
C1613 C1614 1.374 . S
C1614 H1588 0.950 . S
C1614 C1610 1.385 . S
C1614 C1613 1.374 . S
C1615 C1612 1.499 . S
C1615 C1616 1.373 . S
C1615 C1617 1.389 . S
C1616 H1589 0.950 . S
C1616 C1602 1.377 . S
C1616 C1615 1.373 . S
C1617 C1601 1.377 . S
C1617 C1615 1.389 . S
C1617 C1618 1.524 . S
C1618 C1617 1.524 . S
C1618 C1619 1.397 . S
C1618 C1623 1.363 . S
C1619 H1590 0.950 . S
C1619 C1618 1.397 . S
C1619 C1620 1.334 . S
C1620 H1591 0.950 . S
C1620 C1619 1.334 . S
C1620 C1621 1.287 . S
C1621 C1620 1.287 . S
C1621 C1622 1.524 . S
C1621 H1624 0.999 1_655 S
C1622 H1592 0.950 1_655 S
C1622 C1621 1.524 . S
C1622 C1623 1.415 . S
C1623 H1593 0.950 . S
C1623 C1618 1.363 . S
C1623 C1622 1.415 . S
H1624 C1621 0.999 1_455 S
H1625 C1606 0.913 . S
H1626 C1644 0.951 . S
H1627 C1646 0.951 . S
H1628 C1648 0.950 . S
H1629 C1649 0.950 . S
H1630 C1651 0.950 . S
H1631 C1654 0.950 . S
H1632 C1655 0.950 . S
H1633 C1657 0.950 1_565 S
H1634 C1658 0.950 . S
H1635 C1659 0.951 . S
H1636 C1661 0.951 . S
H1637 C1663 0.950 . S
H1638 C1664 0.950 . S
H1639 C1666 0.950 . S
H1640 C1669 0.950 . S
H1641 C1670 0.950 . S
H1642 C1672 0.950 . S
H1643 C1673 0.950 . S
C1644 H1626 0.951 . S
C1644 C1645 1.366 . S
C1644 C1646 1.388 . S
C1645 C1644 1.366 . S
C1645 C1649 1.385 . S
C1646 H1627 0.951 . S
C1646 C1644 1.388 . S
C1646 C1647 1.366 . S
C1647 C1646 1.366 . S
C1647 C1648 1.414 . S
C1647 C1650 1.499 . S
C1648 H1628 0.950 . S
C1648 C1647 1.414 . S
C1648 C1649 1.374 . S
C1649 H1629 0.950 . S
C1649 C1645 1.385 . S
C1649 C1648 1.374 . S
C1650 C1647 1.499 . S
C1650 C1651 1.373 . S
C1650 C1652 1.389 . S
C1651 H1630 0.950 . S
C1651 C1650 1.373 . S
C1651 C1667 1.377 . S
C1652 C1650 1.389 . S
C1652 C1653 1.524 . S
C1652 C1666 1.377 . S
C1653 C1652 1.524 . S
C1653 C1654 1.397 . S
C1653 C1658 1.363 . S
C1654 H1631 0.950 . S
C1654 C1653 1.397 . S
C1654 C1655 1.334 . S
C1655 H1632 0.950 . S
C1655 C1654 1.334 . S
C1655 C1656 1.287 . S
C1656 C1655 1.287 . S
C1656 C1657 1.524 . S
C1656 H1675 0.913 . S
C1657 H1633 0.950 1_545 S
C1657 C1656 1.524 . S
C1657 C1658 1.415 . S
C1658 H1634 0.950 . S
C1658 C1653 1.363 . S
C1658 C1657 1.415 . S
C1659 H1635 0.951 . S
C1659 C1660 1.366 . S
C1659 C1661 1.388 . S
C1660 C1659 1.366 . S
C1660 C1664 1.385 . S
C1661 H1636 0.951 . S
C1661 C1659 1.388 . S
C1661 C1662 1.366 . S
C1662 C1661 1.366 . S
C1662 C1663 1.414 . S
C1662 C1665 1.499 . S
C1663 H1637 0.950 . S
C1663 C1662 1.414 . S
C1663 C1664 1.374 . S
C1664 H1638 0.950 . S
C1664 C1660 1.385 . S
C1664 C1663 1.374 . S
C1665 C1662 1.499 . S
C1665 C1666 1.373 . S
C1665 C1667 1.389 . S
C1666 H1639 0.950 . S
C1666 C1652 1.377 . S
C1666 C1665 1.373 . S
C1667 C1651 1.377 . S
C1667 C1665 1.389 . S
C1667 C1668 1.524 . S
C1668 C1667 1.524 . S
C1668 C1669 1.397 . S
C1668 C1673 1.363 . S
C1669 H1640 0.950 . S
C1669 C1668 1.397 . S
C1669 C1670 1.334 . S
C1670 H1641 0.950 . S
C1670 C1669 1.334 . S
C1670 C1671 1.287 . S
C1671 C1670 1.287 . S
C1671 C1672 1.524 . S
C1671 H1674 0.999 . S
C1672 H1642 0.950 . S
C1672 C1671 1.524 . S
C1672 C1673 1.415 . S
C1673 H1643 0.950 . S
C1673 C1668 1.363 . S
C1673 C1672 1.415 . S
H1674 C1671 0.999 . S
H1675 C1656 0.913 . S
H1676 C1694 0.951 . S
H1677 C1696 0.951 . S
H1678 C1698 0.950 . S
H1679 C1699 0.950 . S
H1680 C1701 0.950 . S
H1681 C1704 0.950 . S
H1682 C1705 0.950 . S
H1683 C1707 0.950 . S
H1684 C1708 0.950 . S
H1685 C1709 0.951 . S
H1686 C1711 0.951 . S
H1687 C1713 0.950 . S
H1688 C1714 0.950 . S
H1689 C1716 0.950 . S
H1690 C1719 0.950 . S
H1691 C1720 0.950 . S
H1692 C1722 0.950 . S
H1693 C1723 0.950 . S
C1694 H1676 0.951 . S
C1694 C1695 1.366 . S
C1694 C1696 1.388 . S
C1695 C1694 1.366 . S
C1695 C1699 1.385 . S
C1696 H1677 0.951 . S
C1696 C1694 1.388 . S
C1696 C1697 1.366 . S
C1697 C1696 1.366 . S
C1697 C1698 1.414 . S
C1697 C1700 1.499 . S
C1698 H1678 0.950 . S
C1698 C1697 1.414 . S
C1698 C1699 1.374 . S
C1699 H1679 0.950 . S
C1699 C1695 1.385 . S
C1699 C1698 1.374 . S
C1700 C1697 1.499 . S
C1700 C1701 1.373 . S
C1700 C1702 1.389 . S
C1701 H1680 0.950 . S
C1701 C1700 1.373 . S
C1701 C1717 1.377 . S
C1702 C1700 1.389 . S
C1702 C1703 1.524 . S
C1702 C1716 1.377 . S
C1703 C1702 1.524 . S
C1703 C1704 1.397 . S
C1703 C1708 1.363 . S
C1704 H1681 0.950 . S
C1704 C1703 1.397 . S
C1704 C1705 1.334 . S
C1705 H1682 0.950 . S
C1705 C1704 1.334 . S
C1705 C1706 1.287 . S
C1706 C1705 1.287 . S
C1706 C1707 1.524 . S
C1706 H1725 0.913 . S
C1707 H1683 0.950 . S
C1707 C1706 1.524 . S
C1707 C1708 1.415 . S
C1708 H1684 0.950 . S
C1708 C1703 1.363 . S
C1708 C1707 1.415 . S
C1709 H1685 0.951 . S
C1709 C1710 1.366 . S
C1709 C1711 1.388 . S
C1710 C1709 1.366 . S
C1710 C1714 1.385 . S
C1711 H1686 0.951 . S
C1711 C1709 1.388 . S
C1711 C1712 1.366 . S
C1712 C1711 1.366 . S
C1712 C1713 1.414 . S
C1712 C1715 1.499 . S
C1713 H1687 0.950 . S
C1713 C1712 1.414 . S
C1713 C1714 1.374 . S
C1714 H1688 0.950 . S
C1714 C1710 1.385 . S
C1714 C1713 1.374 . S
C1715 C1712 1.499 . S
C1715 C1716 1.373 . S
C1715 C1717 1.389 . S
C1716 H1689 0.950 . S
C1716 C1702 1.377 . S
C1716 C1715 1.373 . S
C1717 C1701 1.377 . S
C1717 C1715 1.389 . S
C1717 C1718 1.524 . S
C1718 C1717 1.524 . S
C1718 C1719 1.397 . S
C1718 C1723 1.363 . S
C1719 H1690 0.950 . S
C1719 C1718 1.397 . S
C1719 C1720 1.334 . S
C1720 H1691 0.950 . S
C1720 C1719 1.334 . S
C1720 C1721 1.287 . S
C1721 C1720 1.287 . S
C1721 C1722 1.524 . S
C1721 H1724 0.999 . S
C1722 H1692 0.950 . S
C1722 C1721 1.524 . S
C1722 C1723 1.415 . S
C1723 H1693 0.950 . S
C1723 C1718 1.363 . S
C1723 C1722 1.415 . S
H1724 C1721 0.999 . S
H1725 C1706 0.913 . S
H1726 C1744 0.951 . S
H1727 C1746 0.951 . S
H1728 C1748 0.950 . S
H1729 C1749 0.950 . S
H1730 C1751 0.950 . S
H1731 C1754 0.950 . S
H1732 C1755 0.950 . S
H1733 C1757 0.950 . S
H1734 C1758 0.950 . S
H1735 C1759 0.951 . S
H1736 C1761 0.951 . S
H1737 C1763 0.950 . S
H1738 C1764 0.950 . S
H1739 C1766 0.950 . S
H1740 C1769 0.950 . S
H1741 C1770 0.950 . S
H1742 C1772 0.950 . S
H1743 C1773 0.950 . S
C1744 H1726 0.951 . S
C1744 C1745 1.366 . S
C1744 C1746 1.388 . S
C1745 C1744 1.366 . S
C1745 C1749 1.385 . S
C1746 H1727 0.951 . S
C1746 C1744 1.388 . S
C1746 C1747 1.366 . S
C1747 C1746 1.366 . S
C1747 C1748 1.414 . S
C1747 C1750 1.499 . S
C1748 H1728 0.950 . S
C1748 C1747 1.414 . S
C1748 C1749 1.374 . S
C1749 H1729 0.950 . S
C1749 C1745 1.385 . S
C1749 C1748 1.374 . S
C1750 C1747 1.499 . S
C1750 C1751 1.373 . S
C1750 C1752 1.389 . S
C1751 H1730 0.950 . S
C1751 C1750 1.373 . S
C1751 C1767 1.377 . S
C1752 C1750 1.389 . S
C1752 C1753 1.524 . S
C1752 C1766 1.377 . S
C1753 C1752 1.524 . S
C1753 C1754 1.397 . S
C1753 C1758 1.363 . S
C1754 H1731 0.950 . S
C1754 C1753 1.397 . S
C1754 C1755 1.334 . S
C1755 H1732 0.950 . S
C1755 C1754 1.334 . S
C1755 C1756 1.287 . S
C1756 C1755 1.287 . S
C1756 C1757 1.524 . S
C1756 H1775 0.913 . S
C1757 H1733 0.950 . S
C1757 C1756 1.524 . S
C1757 C1758 1.415 . S
C1758 H1734 0.950 . S
C1758 C1753 1.363 . S
C1758 C1757 1.415 . S
C1759 H1735 0.951 . S
C1759 C1760 1.366 . S
C1759 C1761 1.388 . S
C1760 C1759 1.366 . S
C1760 C1764 1.385 . S
C1761 H1736 0.951 . S
C1761 C1759 1.388 . S
C1761 C1762 1.366 . S
C1762 C1761 1.366 . S
C1762 C1763 1.414 . S
C1762 C1765 1.499 . S
C1763 H1737 0.950 . S
C1763 C1762 1.414 . S
C1763 C1764 1.374 . S
C1764 H1738 0.950 . S
C1764 C1760 1.385 . S
C1764 C1763 1.374 . S
C1765 C1762 1.499 . S
C1765 C1766 1.373 . S
C1765 C1767 1.389 . S
C1766 H1739 0.950 . S
C1766 C1752 1.377 . S
C1766 C1765 1.373 . S
C1767 C1751 1.377 . S
C1767 C1765 1.389 . S
C1767 C1768 1.524 . S
C1768 C1767 1.524 . S
C1768 C1769 1.397 . S
C1768 C1773 1.363 . S
C1769 H1740 0.950 . S
C1769 C1768 1.397 . S
C1769 C1770 1.334 . S
C1770 H1741 0.950 . S
C1770 C1769 1.334 . S
C1770 C1771 1.287 . S
C1771 C1770 1.287 . S
C1771 C1772 1.524 1_655 S
C1771 H1774 0.999 1_655 S
C1772 H1742 0.950 . S
C1772 C1771 1.524 1_455 S
C1772 C1773 1.415 1_455 S
C1773 H1743 0.950 . S
C1773 C1768 1.363 . S
C1773 C1772 1.415 1_655 S
H1774 C1771 0.999 1_455 S
H1775 C1756 0.913 . S
H1776 C1794 0.951 . S
H1777 C1796 0.951 . S
H1778 C1798 0.950 . S
H1779 C1799 0.950 . S
H1780 C1801 0.950 . S
H1781 C1804 0.950 . S
H1782 C1805 0.950 . S
H1783 C1807 0.950 . S
H1784 C1808 0.950 . S
H1785 C1809 0.951 . S
H1786 C1811 0.951 . S
H1787 C1813 0.950 . S
H1788 C1814 0.950 . S
H1789 C1816 0.950 . S
H1790 C1819 0.950 . S
H1791 C1820 0.950 1_655 S
H1792 C1822 0.950 . S
H1793 C1823 0.950 . S
C1794 H1776 0.951 . S
C1794 C1795 1.366 . S
C1794 C1796 1.388 . S
C1795 C1794 1.366 . S
C1795 C1799 1.385 . S
C1796 H1777 0.951 . S
C1796 C1794 1.388 . S
C1796 C1797 1.366 . S
C1797 C1796 1.366 . S
C1797 C1798 1.414 . S
C1797 C1800 1.499 . S
C1798 H1778 0.950 . S
C1798 C1797 1.414 . S
C1798 C1799 1.374 . S
C1799 H1779 0.950 . S
C1799 C1795 1.385 . S
C1799 C1798 1.374 . S
C1800 C1797 1.499 . S
C1800 C1801 1.373 . S
C1800 C1802 1.389 . S
C1801 H1780 0.950 . S
C1801 C1800 1.373 . S
C1801 C1817 1.377 . S
C1802 C1800 1.389 . S
C1802 C1803 1.524 . S
C1802 C1816 1.377 . S
C1803 C1802 1.524 . S
C1803 C1804 1.397 . S
C1803 C1808 1.363 . S
C1804 H1781 0.950 . S
C1804 C1803 1.397 . S
C1804 C1805 1.334 . S
C1805 H1782 0.950 . S
C1805 C1804 1.334 . S
C1805 C1806 1.287 . S
C1806 C1805 1.287 . S
C1806 C1807 1.524 . S
C1806 H1825 0.913 . S
C1807 H1783 0.950 . S
C1807 C1806 1.524 . S
C1807 C1808 1.415 . S
C1808 H1784 0.950 . S
C1808 C1803 1.363 . S
C1808 C1807 1.415 . S
C1809 H1785 0.951 . S
C1809 C1810 1.366 . S
C1809 C1811 1.388 . S
C1810 C1809 1.366 . S
C1810 C1814 1.385 . S
C1811 H1786 0.951 . S
C1811 C1809 1.388 . S
C1811 C1812 1.366 . S
C1812 C1811 1.366 . S
C1812 C1813 1.414 . S
C1812 C1815 1.499 . S
C1813 H1787 0.950 . S
C1813 C1812 1.414 . S
C1813 C1814 1.374 . S
C1814 H1788 0.950 . S
C1814 C1810 1.385 . S
C1814 C1813 1.374 . S
C1815 C1812 1.499 . S
C1815 C1816 1.373 . S
C1815 C1817 1.389 . S
C1816 H1789 0.950 . S
C1816 C1802 1.377 . S
C1816 C1815 1.373 . S
C1817 C1801 1.377 . S
C1817 C1815 1.389 . S
C1817 C1818 1.524 . S
C1818 C1817 1.524 . S
C1818 C1819 1.397 . S
C1818 C1823 1.363 . S
C1819 H1790 0.950 . S
C1819 C1818 1.397 . S
C1819 C1820 1.334 . S
C1820 H1791 0.950 1_455 S
C1820 C1819 1.334 . S
C1820 C1821 1.287 1_455 S
C1821 C1820 1.287 1_655 S
C1821 C1822 1.524 1_655 S
C1821 H1824 0.999 . S
C1822 H1792 0.950 . S
C1822 C1821 1.524 1_455 S
C1822 C1823 1.415 . S
C1823 H1793 0.950 . S
C1823 C1818 1.363 . S
C1823 C1822 1.415 . S
H1824 C1821 0.999 . S
H1825 C1806 0.913 . S
H1826 C1844 0.951 . S
H1827 C1846 0.951 . S
H1828 C1848 0.950 . S
H1829 C1849 0.950 . S
H1830 C1851 0.950 . S
H1831 C1854 0.950 . S
H1832 C1855 0.950 . S
H1833 C1857 0.950 . S
H1834 C1858 0.950 . S
H1835 C1859 0.951 . S
H1836 C1861 0.951 . S
H1837 C1863 0.950 . S
H1838 C1864 0.950 . S
H1839 C1866 0.950 . S
H1840 C1869 0.950 . S
H1841 C1870 0.950 . S
H1842 C1872 0.950 . S
H1843 C1873 0.950 . S
C1844 H1826 0.951 . S
C1844 C1845 1.366 . S
C1844 C1846 1.388 . S
C1845 C1844 1.366 . S
C1845 C1849 1.385 . S
C1846 H1827 0.951 . S
C1846 C1844 1.388 . S
C1846 C1847 1.366 . S
C1847 C1846 1.366 . S
C1847 C1848 1.414 . S
C1847 C1850 1.499 . S
C1848 H1828 0.950 . S
C1848 C1847 1.414 . S
C1848 C1849 1.374 . S
C1849 H1829 0.950 . S
C1849 C1845 1.385 . S
C1849 C1848 1.374 . S
C1850 C1847 1.499 . S
C1850 C1851 1.373 . S
C1850 C1852 1.389 . S
C1851 H1830 0.950 . S
C1851 C1850 1.373 . S
C1851 C1867 1.377 . S
C1852 C1850 1.389 . S
C1852 C1853 1.524 . S
C1852 C1866 1.377 . S
C1853 C1852 1.524 . S
C1853 C1854 1.397 . S
C1853 C1858 1.363 . S
C1854 H1831 0.950 . S
C1854 C1853 1.397 . S
C1854 C1855 1.334 . S
C1855 H1832 0.950 . S
C1855 C1854 1.334 . S
C1855 C1856 1.287 . S
C1856 C1855 1.287 . S
C1856 C1857 1.524 . S
C1856 H1875 0.913 . S
C1857 H1833 0.950 . S
C1857 C1856 1.524 . S
C1857 C1858 1.415 . S
C1858 H1834 0.950 . S
C1858 C1853 1.363 . S
C1858 C1857 1.415 . S
C1859 H1835 0.951 . S
C1859 C1860 1.366 . S
C1859 C1861 1.388 . S
C1860 C1859 1.366 . S
C1860 C1864 1.385 . S
C1861 H1836 0.951 . S
C1861 C1859 1.388 . S
C1861 C1862 1.366 . S
C1862 C1861 1.366 . S
C1862 C1863 1.414 . S
C1862 C1865 1.499 . S
C1863 H1837 0.950 . S
C1863 C1862 1.414 . S
C1863 C1864 1.374 . S
C1864 H1838 0.950 . S
C1864 C1860 1.385 . S
C1864 C1863 1.374 . S
C1865 C1862 1.499 . S
C1865 C1866 1.373 . S
C1865 C1867 1.389 . S
C1866 H1839 0.950 . S
C1866 C1852 1.377 . S
C1866 C1865 1.373 . S
C1867 C1851 1.377 . S
C1867 C1865 1.389 . S
C1867 C1868 1.524 . S
C1868 C1867 1.524 . S
C1868 C1869 1.397 . S
C1868 C1873 1.363 . S
C1869 H1840 0.950 . S
C1869 C1868 1.397 . S
C1869 C1870 1.334 . S
C1870 H1841 0.950 . S
C1870 C1869 1.334 . S
C1870 C1871 1.287 . S
C1871 C1870 1.287 . S
C1871 C1872 1.524 . S
C1871 H1874 0.999 . S
C1872 H1842 0.950 . S
C1872 C1871 1.524 . S
C1872 C1873 1.415 . S
C1873 H1843 0.950 . S
C1873 C1868 1.363 . S
C1873 C1872 1.415 . S
H1874 C1871 0.999 . S
H1875 C1856 0.913 . S
H1876 C1894 0.951 . S
H1877 C1896 0.951 . S
H1878 C1898 0.950 . S
H1879 C1899 0.950 . S
H1880 C1901 0.950 . S
H1881 C1904 0.950 . S
H1882 C1905 0.950 . S
H1883 C1907 0.950 . S
H1884 C1908 0.950 . S
H1885 C1909 0.951 . S
H1886 C1911 0.951 . S
H1887 C1913 0.950 . S
H1888 C1914 0.950 . S
H1889 C1916 0.950 . S
H1890 C1919 0.950 . S
H1891 C1920 0.950 . S
H1892 C1922 0.950 . S
H1893 C1923 0.950 . S
C1894 H1876 0.951 . S
C1894 C1895 1.366 . S
C1894 C1896 1.388 . S
C1895 C1894 1.366 . S
C1895 C1899 1.385 . S
C1896 H1877 0.951 . S
C1896 C1894 1.388 . S
C1896 C1897 1.366 . S
C1897 C1896 1.366 . S
C1897 C1898 1.414 . S
C1897 C1900 1.499 . S
C1898 H1878 0.950 . S
C1898 C1897 1.414 . S
C1898 C1899 1.374 . S
C1899 H1879 0.950 . S
C1899 C1895 1.385 . S
C1899 C1898 1.374 . S
C1900 C1897 1.499 . S
C1900 C1901 1.373 . S
C1900 C1902 1.389 . S
C1901 H1880 0.950 . S
C1901 C1900 1.373 . S
C1901 C1917 1.377 . S
C1902 C1900 1.389 . S
C1902 C1903 1.524 . S
C1902 C1916 1.377 . S
C1903 C1902 1.524 . S
C1903 C1904 1.397 . S
C1903 C1908 1.363 . S
C1904 H1881 0.950 . S
C1904 C1903 1.397 . S
C1904 C1905 1.334 . S
C1905 H1882 0.950 . S
C1905 C1904 1.334 . S
C1905 C1906 1.287 . S
C1906 C1905 1.287 . S
C1906 C1907 1.524 . S
C1906 H1925 0.913 . S
C1907 H1883 0.950 . S
C1907 C1906 1.524 . S
C1907 C1908 1.415 . S
C1908 H1884 0.950 . S
C1908 C1903 1.363 . S
C1908 C1907 1.415 . S
C1909 H1885 0.951 . S
C1909 C1910 1.366 . S
C1909 C1911 1.388 . S
C1910 C1909 1.366 . S
C1910 C1914 1.385 . S
C1911 H1886 0.951 . S
C1911 C1909 1.388 . S
C1911 C1912 1.366 . S
C1912 C1911 1.366 . S
C1912 C1913 1.414 . S
C1912 C1915 1.499 . S
C1913 H1887 0.950 . S
C1913 C1912 1.414 . S
C1913 C1914 1.374 . S
C1914 H1888 0.950 . S
C1914 C1910 1.385 . S
C1914 C1913 1.374 . S
C1915 C1912 1.499 . S
C1915 C1916 1.373 . S
C1915 C1917 1.389 . S
C1916 H1889 0.950 . S
C1916 C1902 1.377 . S
C1916 C1915 1.373 . S
C1917 C1901 1.377 . S
C1917 C1915 1.389 . S
C1917 C1918 1.524 . S
C1918 C1917 1.524 . S
C1918 C1919 1.397 . S
C1918 C1923 1.363 . S
C1919 H1890 0.950 . S
C1919 C1918 1.397 . S
C1919 C1920 1.334 . S
C1920 H1891 0.950 . S
C1920 C1919 1.334 . S
C1920 C1921 1.287 . S
C1921 C1920 1.287 . S
C1921 C1922 1.524 . S
C1921 H1924 0.999 . S
C1922 H1892 0.950 . S
C1922 C1921 1.524 . S
C1922 C1923 1.415 . S
C1923 H1893 0.950 . S
C1923 C1918 1.363 . S
C1923 C1922 1.415 . S
H1924 C1921 0.999 . S
H1925 C1906 0.913 . S
H1926 C1944 0.951 . S
H1927 C1946 0.951 . S
H1928 C1948 0.950 . S
H1929 C1949 0.950 . S
H1930 C1951 0.950 . S
H1931 C1954 0.950 . S
H1932 C1955 0.950 . S
H1933 C1957 0.950 1_655 S
H1934 C1958 0.950 . S
H1935 C1959 0.951 . S
H1936 C1961 0.951 . S
H1937 C1963 0.950 . S
H1938 C1964 0.950 . S
H1939 C1966 0.950 . S
H1940 C1969 0.950 . S
H1941 C1970 0.950 . S
H1942 C1972 0.950 . S
H1943 C1973 0.950 . S
C1944 H1926 0.951 . S
C1944 C1945 1.366 . S
C1944 C1946 1.388 . S
C1945 C1944 1.366 . S
C1945 C1949 1.385 . S
C1946 H1927 0.951 . S
C1946 C1944 1.388 . S
C1946 C1947 1.366 . S
C1947 C1946 1.366 . S
C1947 C1948 1.414 . S
C1947 C1950 1.499 . S
C1948 H1928 0.950 . S
C1948 C1947 1.414 . S
C1948 C1949 1.374 . S
C1949 H1929 0.950 . S
C1949 C1945 1.385 . S
C1949 C1948 1.374 . S
C1950 C1947 1.499 . S
C1950 C1951 1.373 . S
C1950 C1952 1.389 . S
C1951 H1930 0.950 . S
C1951 C1950 1.373 . S
C1951 C1967 1.377 . S
C1952 C1950 1.389 . S
C1952 C1953 1.524 . S
C1952 C1966 1.377 . S
C1953 C1952 1.524 . S
C1953 C1954 1.397 . S
C1953 C1958 1.363 . S
C1954 H1931 0.950 . S
C1954 C1953 1.397 . S
C1954 C1955 1.334 . S
C1955 H1932 0.950 . S
C1955 C1954 1.334 . S
C1955 C1956 1.287 . S
C1956 C1955 1.287 . S
C1956 C1957 1.524 . S
C1956 H1975 0.913 . S
C1957 H1933 0.950 1_455 S
C1957 C1956 1.524 . S
C1957 C1958 1.415 . S
C1958 H1934 0.950 . S
C1958 C1953 1.363 . S
C1958 C1957 1.415 . S
C1959 H1935 0.951 . S
C1959 C1960 1.366 . S
C1959 C1961 1.388 . S
C1960 C1959 1.366 . S
C1960 C1964 1.385 . S
C1961 H1936 0.951 . S
C1961 C1959 1.388 . S
C1961 C1962 1.366 . S
C1962 C1961 1.366 . S
C1962 C1963 1.414 . S
C1962 C1965 1.499 . S
C1963 H1937 0.950 . S
C1963 C1962 1.414 . S
C1963 C1964 1.374 . S
C1964 H1938 0.950 . S
C1964 C1960 1.385 . S
C1964 C1963 1.374 . S
C1965 C1962 1.499 . S
C1965 C1966 1.373 . S
C1965 C1967 1.389 . S
C1966 H1939 0.950 . S
C1966 C1952 1.377 . S
C1966 C1965 1.373 . S
C1967 C1951 1.377 . S
C1967 C1965 1.389 . S
C1967 C1968 1.524 . S
C1968 C1967 1.524 . S
C1968 C1969 1.397 . S
C1968 C1973 1.363 . S
C1969 H1940 0.950 . S
C1969 C1968 1.397 . S
C1969 C1970 1.334 . S
C1970 H1941 0.950 . S
C1970 C1969 1.334 . S
C1970 C1971 1.287 . S
C1971 C1970 1.287 . S
C1971 C1972 1.524 . S
C1971 H1974 0.999 . S
C1972 H1942 0.950 . S
C1972 C1971 1.524 . S
C1972 C1973 1.415 . S
C1973 H1943 0.950 . S
C1973 C1968 1.363 . S
C1973 C1972 1.415 . S
H1974 C1971 0.999 . S
H1975 C1956 0.913 . S
H1976 C1994 0.951 . S
H1977 C1996 0.951 . S
H1978 C1998 0.950 . S
H1979 C1999 0.950 . S
H1980 C2001 0.950 . S
H1981 C2004 0.950 . S
H1982 C2005 0.950 . S
H1983 C2007 0.950 . S
H1984 C2008 0.950 . S
H1985 C2009 0.951 . S
H1986 C2011 0.951 . S
H1987 C2013 0.950 . S
H1988 C2014 0.950 . S
H1989 C2016 0.950 . S
H1990 C2019 0.950 . S
H1991 C2020 0.950 . S
H1992 C2022 0.950 . S
H1993 C2023 0.950 . S
C1994 H1976 0.951 . S
C1994 C1995 1.366 . S
C1994 C1996 1.388 . S
C1995 C1994 1.366 . S
C1995 C1999 1.385 . S
C1996 H1977 0.951 . S
C1996 C1994 1.388 . S
C1996 C1997 1.366 . S
C1997 C1996 1.366 . S
C1997 C1998 1.414 . S
C1997 C2000 1.499 . S
C1998 H1978 0.950 . S
C1998 C1997 1.414 . S
C1998 C1999 1.374 . S
C1999 H1979 0.950 . S
C1999 C1995 1.385 . S
C1999 C1998 1.374 . S
C2000 C1997 1.499 . S
C2000 C2001 1.373 . S
C2000 C2002 1.389 . S
C2001 H1980 0.950 . S
C2001 C2000 1.373 . S
C2001 C2017 1.377 . S
C2002 C2000 1.389 . S
C2002 C2003 1.524 . S
C2002 C2016 1.377 . S
C2003 C2002 1.524 . S
C2003 C2004 1.397 . S
C2003 C2008 1.363 . S
C2004 H1981 0.950 . S
C2004 C2003 1.397 . S
C2004 C2005 1.334 . S
C2005 H1982 0.950 . S
C2005 C2004 1.334 . S
C2005 C2006 1.287 . S
C2006 C2005 1.287 . S
C2006 C2007 1.524 . S
C2006 H2025 0.913 . S
C2007 H1983 0.950 . S
C2007 C2006 1.524 . S
C2007 C2008 1.415 . S
C2008 H1984 0.950 . S
C2008 C2003 1.363 . S
C2008 C2007 1.415 . S
C2009 H1985 0.951 . S
C2009 C2010 1.366 . S
C2009 C2011 1.388 . S
C2010 C2009 1.366 . S
C2010 C2014 1.385 . S
C2011 H1986 0.951 . S
C2011 C2009 1.388 . S
C2011 C2012 1.366 . S
C2012 C2011 1.366 . S
C2012 C2013 1.414 . S
C2012 C2015 1.499 . S
C2013 H1987 0.950 . S
C2013 C2012 1.414 . S
C2013 C2014 1.374 . S
C2014 H1988 0.950 . S
C2014 C2010 1.385 . S
C2014 C2013 1.374 . S
C2015 C2012 1.499 . S
C2015 C2016 1.373 . S
C2015 C2017 1.389 . S
C2016 H1989 0.950 . S
C2016 C2002 1.377 . S
C2016 C2015 1.373 . S
C2017 C2001 1.377 . S
C2017 C2015 1.389 . S
C2017 C2018 1.524 . S
C2018 C2017 1.524 . S
C2018 C2019 1.397 . S
C2018 C2023 1.363 . S
C2019 H1990 0.950 . S
C2019 C2018 1.397 . S
C2019 C2020 1.334 . S
C2020 H1991 0.950 . S
C2020 C2019 1.334 . S
C2020 C2021 1.287 . S
C2021 C2020 1.287 . S
C2021 C2022 1.524 . S
C2021 H2024 0.999 . S
C2022 H1992 0.950 . S
C2022 C2021 1.524 . S
C2022 C2023 1.415 . S
C2023 H1993 0.950 . S
C2023 C2018 1.363 . S
C2023 C2022 1.415 . S
H2024 C2021 0.999 . S
H2025 C2006 0.913 . S
H2026 C2044 0.951 . S
H2027 C2046 0.951 . S
H2028 C2048 0.950 . S
H2029 C2049 0.950 . S
H2030 C2051 0.950 . S
H2031 C2054 0.950 . S
H2032 C2055 0.950 . S
H2033 C2057 0.950 . S
H2034 C2058 0.950 . S
H2035 C2059 0.951 . S
H2036 C2061 0.951 . S
H2037 C2063 0.950 . S
H2038 C2064 0.950 . S
H2039 C2066 0.950 . S
H2040 C2069 0.950 . S
H2041 C2070 0.950 . S
H2042 C2072 0.950 . S
H2043 C2073 0.950 . S
C2044 H2026 0.951 . S
C2044 C2045 1.366 . S
C2044 C2046 1.388 . S
C2045 C2044 1.366 . S
C2045 C2049 1.385 . S
C2046 H2027 0.951 . S
C2046 C2044 1.388 . S
C2046 C2047 1.366 . S
C2047 C2046 1.366 . S
C2047 C2048 1.414 . S
C2047 C2050 1.499 . S
C2048 H2028 0.950 . S
C2048 C2047 1.414 . S
C2048 C2049 1.374 . S
C2049 H2029 0.950 . S
C2049 C2045 1.385 . S
C2049 C2048 1.374 . S
C2050 C2047 1.499 . S
C2050 C2051 1.373 . S
C2050 C2052 1.389 . S
C2051 H2030 0.950 . S
C2051 C2050 1.373 . S
C2051 C2067 1.377 . S
C2052 C2050 1.389 . S
C2052 C2053 1.524 . S
C2052 C2066 1.377 . S
C2053 C2052 1.524 . S
C2053 C2054 1.397 . S
C2053 C2058 1.363 . S
C2054 H2031 0.950 . S
C2054 C2053 1.397 . S
C2054 C2055 1.334 . S
C2055 H2032 0.950 . S
C2055 C2054 1.334 . S
C2055 C2056 1.287 . S
C2056 C2055 1.287 . S
C2056 C2057 1.524 . S
C2056 H2075 0.913 . S
C2057 H2033 0.950 . S
C2057 C2056 1.524 . S
C2057 C2058 1.415 . S
C2058 H2034 0.950 . S
C2058 C2053 1.363 . S
C2058 C2057 1.415 . S
C2059 H2035 0.951 . S
C2059 C2060 1.366 . S
C2059 C2061 1.388 . S
C2060 C2059 1.366 . S
C2060 C2064 1.385 . S
C2061 H2036 0.951 . S
C2061 C2059 1.388 . S
C2061 C2062 1.366 . S
C2062 C2061 1.366 . S
C2062 C2063 1.414 . S
C2062 C2065 1.499 . S
C2063 H2037 0.950 . S
C2063 C2062 1.414 . S
C2063 C2064 1.374 . S
C2064 H2038 0.950 . S
C2064 C2060 1.385 . S
C2064 C2063 1.374 . S
C2065 C2062 1.499 . S
C2065 C2066 1.373 . S
C2065 C2067 1.389 . S
C2066 H2039 0.950 . S
C2066 C2052 1.377 . S
C2066 C2065 1.373 . S
C2067 C2051 1.377 . S
C2067 C2065 1.389 . S
C2067 C2068 1.524 . S
C2068 C2067 1.524 . S
C2068 C2069 1.397 . S
C2068 C2073 1.363 . S
C2069 H2040 0.950 . S
C2069 C2068 1.397 . S
C2069 C2070 1.334 . S
C2070 H2041 0.950 . S
C2070 C2069 1.334 . S
C2070 C2071 1.287 . S
C2071 C2070 1.287 . S
C2071 C2072 1.524 . S
C2071 H2074 0.999 . S
C2072 H2042 0.950 . S
C2072 C2071 1.524 . S
C2072 C2073 1.415 . S
C2073 H2043 0.950 . S
C2073 C2068 1.363 . S
C2073 C2072 1.415 . S
H2074 C2071 0.999 . S
H2075 C2056 0.913 . S
C295 C63 0.736 1_455 S
C310 C21 0.734 . S
C345 C86 0.668 1_565 S
C360 C44 0.671 . S
C395 C67 0.736 . S
C410 C109 0.734 . S
C445 C90 0.671 . S
C460 C132 0.668 1_455 S
C495 C17 0.735 1_565 S
C510 C113 0.735 . S
C545 C40 0.667 . S
C560 C136 0.670 . S
C595 C247 0.667 1_545 S
C610 C159 0.670 . S
C645 C182 0.735 . S
C660 C270 0.735 . S
C695 C205 0.671 . S
C710 C155 0.668 1_655 S
C745 C228 0.734 . S
C760 C178 0.736 1_545 S
C795 C251 0.671 . S
C810 C201 0.668 . S
C845 C224 0.735 1_655 S
C860 C274 0.735 . S
C895 C88 1.493 . S
C910 C20 1.504 . S
C945 C42 1.493 . S
C960 C112 1.503 . S
C995 C66 1.504 . S
C1010 C134 1.493 . S
C1045 C157 1.492 . S
C1060 C227 1.504 . S
C1095 C181 1.503 . S
C1110 C249 1.493 . S
C1145 C203 1.492 . S
C1160 C273 1.503 . S
C1195 C180 1.523 . S
C1210 C19 1.523 . S
C1245 C43 1.540 . S
C1260 C204 1.540 . S
C1295 C226 1.523 . S
C1310 C65 1.523 . S
C1345 C89 1.540 . S
C1360 C250 1.540 . S
C1395 C111 1.523 . S
C1410 C272 1.523 . S
C1445 C158 1.540 . S
C1460 C135 1.541 . S
C1495 C62 1.043 . S
C1510 C18 1.033 . S
C1545 C41 1.079 . S
C1560 C85 1.090 . S
C1595 C64 1.034 . S
C1610 C108 1.043 . S
C1645 C87 1.079 . S
C1660 C131 1.091 . S
C1695 C16 1.044 . S
C1710 C110 1.033 . S
C1745 C39 1.090 . S
C1760 C133 1.078 . S
C1795 C246 1.090 . S
C1810 C156 1.079 . S
C1845 C179 1.034 . S
C1860 C269 1.043 . S
C1895 C202 1.079 . S
C1910 C154 1.090 . S
C1945 C177 1.043 . S
C1960 C225 1.034 . S
C1995 C248 1.078 . S
C2010 C200 1.090 . S
C2045 C271 1.034 . S
C2060 C223 1.043 . S
