# Generated by pormake.
# Topology xfk, (7)-cn, num edge types: 1
# Building blocks:
#     Node 0, Type 0, BuildingBlock: HICVOG_clean_sbu_0, # of connection points: 7
#     Node 1, Type 0, BuildingBlock: HICVOG_clean_sbu_0, # of connection points: 7
#     Node 2, Type 0, BuildingBlock: HICVOG_clean_sbu_0, # of connection points: 7
#     Node 3, Type 0, BuildingBlock: HICVOG_clean_sbu_0, # of connection points: 7
#     Node 4, Type 0, BuildingBlock: HICVOG_clean_sbu_0, # of connection points: 7
#     Node 5, Type 0, BuildingBlock: HICVOG_clean_sbu_0, # of connection points: 7
#     Node 6, Type 0, BuildingBlock: HICVOG_clean_sbu_0, # of connection points: 7
#     Node 7, Type 0, BuildingBlock: HICVOG_clean_sbu_0, # of connection points: 7
#     Node 8, Type 0, BuildingBlock: HICVOG_clean_sbu_0, # of connection points: 7
#     Node 9, Type 0, BuildingBlock: HICVOG_clean_sbu_0, # of connection points: 7
#     Node 10, Type 0, BuildingBlock: HICVOG_clean_sbu_0, # of connection points: 7
#     Node 11, Type 0, BuildingBlock: HICVOG_clean_sbu_0, # of connection points: 7
#     Node 12, Type 0, BuildingBlock: HICVOG_clean_sbu_0, # of connection points: 7
#     Node 13, Type 0, BuildingBlock: HICVOG_clean_sbu_0, # of connection points: 7
#     Node 14, Type 0, BuildingBlock: HICVOG_clean_sbu_0, # of connection points: 7
#     Node 15, Type 0, BuildingBlock: HICVOG_clean_sbu_0, # of connection points: 7
#     Edge 16, Type (0, 0), BuildingBlock: XIVTED_clean_linker_0, # of connection points: 2
#     Edge 17, Type (0, 0), BuildingBlock: XIVTED_clean_linker_0, # of connection points: 2
#     Edge 18, Type (0, 0), BuildingBlock: XIVTED_clean_linker_0, # of connection points: 2
#     Edge 19, Type (0, 0), BuildingBlock: XIVTED_clean_linker_0, # of connection points: 2
#     Edge 20, Type (0, 0), BuildingBlock: XIVTED_clean_linker_0, # of connection points: 2
#     Edge 21, Type (0, 0), BuildingBlock: XIVTED_clean_linker_0, # of connection points: 2
#     Edge 22, Type (0, 0), BuildingBlock: XIVTED_clean_linker_0, # of connection points: 2
#     Edge 23, Type (0, 0), BuildingBlock: XIVTED_clean_linker_0, # of connection points: 2
#     Edge 24, Type (0, 0), BuildingBlock: XIVTED_clean_linker_0, # of connection points: 2
#     Edge 25, Type (0, 0), BuildingBlock: XIVTED_clean_linker_0, # of connection points: 2
#     Edge 26, Type (0, 0), BuildingBlock: XIVTED_clean_linker_0, # of connection points: 2
#     Edge 27, Type (0, 0), BuildingBlock: XIVTED_clean_linker_0, # of connection points: 2
#     Edge 28, Type (0, 0), BuildingBlock: XIVTED_clean_linker_0, # of connection points: 2
#     Edge 29, Type (0, 0), BuildingBlock: XIVTED_clean_linker_0, # of connection points: 2
#     Edge 30, Type (0, 0), BuildingBlock: XIVTED_clean_linker_0, # of connection points: 2
#     Edge 31, Type (0, 0), BuildingBlock: XIVTED_clean_linker_0, # of connection points: 2
#     Edge 32, Type (0, 0), BuildingBlock: XIVTED_clean_linker_0, # of connection points: 2
#     Edge 33, Type (0, 0), BuildingBlock: XIVTED_clean_linker_0, # of connection points: 2
#     Edge 34, Type (0, 0), BuildingBlock: XIVTED_clean_linker_0, # of connection points: 2
#     Edge 35, Type (0, 0), BuildingBlock: XIVTED_clean_linker_0, # of connection points: 2
#     Edge 36, Type (0, 0), BuildingBlock: XIVTED_clean_linker_0, # of connection points: 2
#     Edge 37, Type (0, 0), BuildingBlock: XIVTED_clean_linker_0, # of connection points: 2
#     Edge 38, Type (0, 0), BuildingBlock: XIVTED_clean_linker_0, # of connection points: 2
#     Edge 39, Type (0, 0), BuildingBlock: XIVTED_clean_linker_0, # of connection points: 2
#     Edge 40, Type (0, 0), BuildingBlock: XIVTED_clean_linker_0, # of connection points: 2
#     Edge 41, Type (0, 0), BuildingBlock: XIVTED_clean_linker_0, # of connection points: 2
#     Edge 42, Type (0, 0), BuildingBlock: XIVTED_clean_linker_0, # of connection points: 2
#     Edge 43, Type (0, 0), BuildingBlock: XIVTED_clean_linker_0, # of connection points: 2
#     Edge 44, Type (0, 0), BuildingBlock: XIVTED_clean_linker_0, # of connection points: 2
#     Edge 45, Type (0, 0), BuildingBlock: XIVTED_clean_linker_0, # of connection points: 2
#     Edge 46, Type (0, 0), BuildingBlock: XIVTED_clean_linker_0, # of connection points: 2
#     Edge 47, Type (0, 0), BuildingBlock: XIVTED_clean_linker_0, # of connection points: 2
#     Edge 48, Type (0, 0), BuildingBlock: XIVTED_clean_linker_0, # of connection points: 2
#     Edge 49, Type (0, 0), BuildingBlock: XIVTED_clean_linker_0, # of connection points: 2
#     Edge 50, Type (0, 0), BuildingBlock: XIVTED_clean_linker_0, # of connection points: 2
#     Edge 51, Type (0, 0), BuildingBlock: XIVTED_clean_linker_0, # of connection points: 2
#     Edge 52, Type (0, 0), BuildingBlock: XIVTED_clean_linker_0, # of connection points: 2
#     Edge 53, Type (0, 0), BuildingBlock: XIVTED_clean_linker_0, # of connection points: 2
#     Edge 54, Type (0, 0), BuildingBlock: XIVTED_clean_linker_0, # of connection points: 2
#     Edge 55, Type (0, 0), BuildingBlock: XIVTED_clean_linker_0, # of connection points: 2
#     Edge 56, Type (0, 0), BuildingBlock: XIVTED_clean_linker_0, # of connection points: 2
#     Edge 57, Type (0, 0), BuildingBlock: XIVTED_clean_linker_0, # of connection points: 2
#     Edge 58, Type (0, 0), BuildingBlock: XIVTED_clean_linker_0, # of connection points: 2
#     Edge 59, Type (0, 0), BuildingBlock: XIVTED_clean_linker_0, # of connection points: 2
#     Edge 60, Type (0, 0), BuildingBlock: XIVTED_clean_linker_0, # of connection points: 2
#     Edge 61, Type (0, 0), BuildingBlock: XIVTED_clean_linker_0, # of connection points: 2
#     Edge 62, Type (0, 0), BuildingBlock: XIVTED_clean_linker_0, # of connection points: 2
#     Edge 63, Type (0, 0), BuildingBlock: XIVTED_clean_linker_0, # of connection points: 2
#     Edge 64, Type (0, 0), BuildingBlock: XIVTED_clean_linker_0, # of connection points: 2
#     Edge 65, Type (0, 0), BuildingBlock: XIVTED_clean_linker_0, # of connection points: 2
#     Edge 66, Type (0, 0), BuildingBlock: XIVTED_clean_linker_0, # of connection points: 2
#     Edge 67, Type (0, 0), BuildingBlock: XIVTED_clean_linker_0, # of connection points: 2
#     Edge 68, Type (0, 0), BuildingBlock: XIVTED_clean_linker_0, # of connection points: 2
#     Edge 69, Type (0, 0), BuildingBlock: XIVTED_clean_linker_0, # of connection points: 2
#     Edge 70, Type (0, 0), BuildingBlock: XIVTED_clean_linker_0, # of connection points: 2
#     Edge 71, Type (0, 0), BuildingBlock: XIVTED_clean_linker_0, # of connection points: 2
# Relax obj value: 0.476
# Max RMSD: 0.280
# Mean RMSD: 0.280
data_MOF--net-xfk--node1-HICVOG_clean_sbu_0--edge1-XIVTED_clean_linker_0
_symmetry_space_group_name_H-M    P1
_symmetry_Int_Tables_number       1
_symmetry_cell_setting            triclinic
loop_
_symmetry_equiv_pos_as_xyz
'x, y, z'
_cell_length_a     37.945362
_cell_length_b     38.042354
_cell_length_c     37.432648
_cell_angle_alpha  89.847224
_cell_angle_beta   90.0855
_cell_angle_gamma 90.025125
loop_
_atom_site_label
_atom_site_type_symbol
_atom_site_fract_x
_atom_site_fract_y
_atom_site_fract_z
_atom_type_partial_charge
Zn0 Zn 0.34299 0.09539 0.15066 0.0
C1 C 0.32676 0.09301 1.04501 0.0
N2 N 0.35381 0.11382 1.03652 0.0
C3 C 0.36718 0.12398 0.06803 0.0
N4 N 0.34822 0.10777 0.09619 0.0
N5 N 0.32261 0.0896 0.08064 0.0
C6 C 0.25898 0.02413 1.05757 0.0
O7 O 0.29009 1.01222 0.06723 0.0
O8 O 0.36558 0.13713 0.17273 0.0
Zn9 Zn 0.28071 0.07212 0.10739 0.0
N10 N 0.37262 0.05577 0.15779 0.0
C11 C 0.39114 0.99852 0.14135 0.0
C12 C 0.37397 0.02981 0.13301 0.0
C13 C 0.38697 0.05173 0.1907 0.0
N14 N 0.40656 0.99484 0.17389 0.0
C15 C 0.40514 1.02067 0.19905 0.0
O16 O 0.28261 0.03299 0.14666 0.0
C17 C 0.28075 0.04477 0.17842 0.0
O18 O 0.29641 0.07468 0.18376 0.0
H19 H 0.36088 0.03297 0.10753 0.0
H20 H 0.38354 0.07249 0.21001 0.0
C21 C 0.22486 0.10933 0.14085 0.0
C22 C 0.2089 0.1372 0.1594 0.0
C23 C 0.26295 0.16868 0.15722 0.0
C24 C 0.27811 0.14159 0.13775 0.0
N25 N 0.25893 0.11231 0.13018 0.0
N26 N 0.22878 0.16601 0.16724 0.0
H27 H 0.21073 0.08537 0.13489 0.0
C28 C 0.35519 0.15739 0.19733 0.0
O29 O 0.32745 0.14884 0.21643 0.0
O30 O 0.24732 0.05198 0.07188 0.0
H31 H 0.30513 0.14389 0.12951 0.0
H32 H 0.39239 0.97738 0.12212 0.0
H33 H 0.27803 0.19191 0.16388 0.0
Zn34 Zn 0.08482 0.69096 0.97473 0.0
C35 C 0.09798 0.7159 0.07822 0.0
N36 N 0.11724 0.68765 0.08613 0.0
C37 C 0.12201 0.67148 1.05475 0.0
N38 N 0.10392 0.69001 1.0274 0.0
N39 N 0.09027 0.71817 1.04312 0.0
C40 C 0.03024 0.78504 0.06959 0.0
O41 O 1.01776 0.75372 1.06186 0.0
O42 O 0.12219 0.66458 0.94928 0.0
Zn43 Zn 0.07399 0.76116 1.01717 0.0
N44 N 0.04333 0.66285 0.97528 0.0
C45 C 0.99023 0.64349 1.00226 0.0
C46 C 1.02252 0.66073 1.00466 0.0
C47 C 0.03316 0.64921 0.94348 0.0
N48 N 0.98049 0.62881 0.97071 0.0
C49 C 1.00108 0.631 0.94094 0.0
O50 O 0.03292 0.76344 0.9808 0.0
C51 C 0.03914 0.75868 0.94778 0.0
O52 O 0.06365 0.73606 0.9403 0.0
H53 H 0.03054 0.67303 1.02939 0.0
H54 H 0.05008 0.65321 0.92067 0.0
C55 C 0.1157 0.81433 0.9846 0.0
C56 C 0.14419 0.82797 0.96482 0.0
C57 C 0.16644 0.76988 0.95819 0.0
C58 C 0.13883 0.75689 0.97867 0.0
N59 N 0.11403 0.77932 0.99141 0.0
N60 N 0.16861 0.80492 0.95208 0.0
H61 H 0.09495 0.83076 0.99493 0.0
C62 C 0.14195 0.67694 0.92507 0.0
O63 O 0.13281 0.70616 0.90873 0.0
O64 O 0.05745 0.79603 1.05332 0.0
H65 H 0.13706 0.72912 0.98387 0.0
H66 H 0.97312 0.64156 1.02527 0.0
H67 H 0.18629 0.75235 0.94762 0.0
Zn68 Zn 0.758 0.97091 0.1056 0.0
C69 C 0.66185 0.92914 0.0762 0.0
N70 N 0.67158 0.94068 1.04386 0.0
C71 C 0.70108 0.95903 1.04949 0.0
N72 N 0.71049 0.95949 0.0843 0.0
N73 N 0.68552 0.94241 0.10217 0.0
C74 C 0.69671 0.89899 0.20772 0.0
O75 O 0.72625 0.91421 0.2175 0.0
O76 O 0.79059 0.98682 0.06668 0.0
Zn77 Zn 0.69246 0.95526 0.15624 0.0
N78 N 0.77689 0.92813 0.12605 0.0
C79 C 0.77014 0.87085 0.15081 0.0
C80 C 0.75573 0.9005 0.1346 0.0
C81 C 0.81206 0.92713 0.13284 0.0
N82 N 0.80526 0.86972 0.15727 0.0
C83 C 0.82689 0.89698 0.14856 0.0
O84 O 0.73769 0.98175 0.18566 0.0
C85 C 0.76172 1.00458 0.17738 0.0
O86 O 0.76748 1.00925 0.1442 0.0
H87 H 0.72792 0.90125 0.12928 0.0
H88 H 0.82808 0.94967 0.12598 0.0
C89 C 0.63985 0.98921 0.19584 0.0
C90 C 0.61797 1.01739 0.20499 0.0
C91 C 0.63619 0.04755 0.15243 0.0
C92 C 0.65734 1.01912 0.14318 0.0
N93 N 0.65845 0.99058 0.165 0.0
N94 N 0.61687 0.04592 0.18288 0.0
H95 H 0.64274 0.96659 0.21313 0.0
C96 C 0.78207 1.01531 1.05121 0.0
O97 O 0.75293 0.03138 1.06076 0.0
O98 O 0.67815 0.91275 0.18323 0.0
H99 H 0.67354 1.0201 0.11944 0.0
H100 H 0.75364 0.84868 0.15772 0.0
H101 H 0.63503 0.07066 0.13558 0.0
Zn102 Zn 0.96287 0.33293 0.9592 0.0
C103 C 0.971 0.32838 0.06693 0.0
N104 N 0.95258 0.35775 0.0724 0.0
C105 C 0.94122 0.36768 1.04001 0.0
N106 N 0.95478 0.34439 1.0139 0.0
N107 N 0.97191 0.31954 1.03196 0.0
C108 C 1.02359 0.24724 0.06669 0.0
O109 O 0.04159 0.27506 1.05657 0.0
O110 O 0.91715 0.34227 0.93579 0.0
Zn111 Zn 0.98199 0.27221 1.0108 0.0
N112 N 0.99421 0.36844 0.94236 0.0
C113 C 0.05261 0.39032 0.9384 0.0
C114 C 0.0283 0.36715 0.95326 0.0
C115 C 0.98327 0.39157 0.91701 0.0
N116 N 0.04156 0.41412 0.91375 0.0
C117 C 1.00738 0.41568 0.90248 0.0
O118 O 1.02197 0.26354 0.97276 0.0
C119 C 1.01457 0.26557 0.93958 0.0
O120 O 0.98871 0.28626 0.93117 0.0
H121 H 0.03653 0.34773 0.97273 0.0
H122 H 0.95619 0.39063 0.90831 0.0
C123 C 0.93689 0.22035 0.97992 0.0
C124 C 0.90494 0.20638 0.96714 0.0
C125 C 0.87761 0.26177 0.97603 0.0
C126 C 0.90886 0.275 0.98991 0.0
N127 N 0.93812 0.25435 0.99106 0.0
N128 N 0.87631 0.22787 0.96524 0.0
H129 H 0.9604 0.20439 0.98188 0.0
C130 C 0.9016 0.32276 0.91338 0.0
O131 O 0.91565 0.29262 0.90401 0.0
O132 O 0.99521 0.2397 1.05055 0.0
H133 H 0.90931 0.30146 0.99976 0.0
H134 H 0.07996 0.38964 0.94655 0.0
H135 H 0.85427 0.27804 0.97466 0.0
Zn136 Zn 0.28586 0.47716 0.27092 0.0
C137 C 0.3754 0.4245 0.30452 0.0
N138 N 0.35949 0.4279 0.33619 0.0
C139 C 0.33128 0.4477 0.32951 0.0
N140 N 0.32874 0.45709 0.29485 0.0
N141 N 0.35662 0.44375 0.27819 0.0
C142 C 0.37188 0.41273 0.17567 0.0
O143 O 0.34175 0.42211 0.16121 0.0
O144 O 0.25342 0.49659 0.30815 0.0
Zn145 Zn 0.35574 0.4657 0.22699 0.0
N146 N 0.26334 0.43842 0.24733 0.0
C147 C 0.26758 0.38701 0.21175 0.0
C148 C 0.28361 0.41403 0.23071 0.0
C149 C 0.22762 0.43706 0.2458 0.0
N150 N 0.23191 0.38514 0.21082 0.0
C151 C 0.21115 0.4093 0.22749 0.0
O152 O 0.31006 0.48463 0.19259 0.0
C153 C 0.28814 0.50974 0.19994 0.0
O154 O 0.28434 0.517 0.2329 0.0
H155 H 0.31197 0.41583 0.23169 0.0
H156 H 0.21267 0.45763 0.25857 0.0
C157 C 0.39447 0.52296 0.20164 0.0
C158 C 0.40603 0.55806 0.20083 0.0
C159 C 0.3853 0.56527 0.26025 0.0
C160 C 0.37387 0.53046 0.26072 0.0
N161 N 0.37895 0.51005 0.23145 0.0
N162 N 0.40128 0.57816 0.23052 0.0
H163 H 0.3977 0.50556 0.17913 0.0
C164 C 0.26559 0.52165 0.32682 0.0
O165 O 0.29818 0.53213 0.32161 0.0
O166 O 0.3853 0.43194 0.19974 0.0
H167 H 0.36016 0.52015 0.28373 0.0
H168 H 0.28331 0.36749 0.19813 0.0
H169 H 0.38144 0.58197 0.28326 0.0
Zn170 Zn 0.4595 0.68903 0.90754 0.0
C171 C 0.45961 0.70173 0.80131 0.0
N172 N 0.43891 0.67417 0.7944 0.0
C173 C 0.42938 0.66193 0.82657 0.0
N174 N 0.44574 0.68222 0.85356 0.0
N175 N 0.46308 0.70759 0.83668 0.0
C176 C 0.52198 0.77712 0.80988 0.0
O177 O 0.53687 0.7472 0.81891 0.0
O178 O 0.42016 0.66437 0.93176 0.0
Zn179 Zn 0.4771 0.75167 0.86166 0.0
N180 N 0.50178 0.66252 0.91378 0.0
C181 C 0.55888 0.64642 0.89392 0.0
C182 C 0.52571 0.66043 0.88693 0.0
C183 C 0.5097 0.65184 0.94746 0.0
N184 N 0.56648 0.63473 0.92733 0.0
C185 C 0.54284 0.63686 0.95465 0.0
O186 O 0.51728 0.75394 0.90022 0.0
C187 C 0.50662 0.75472 0.93248 0.0
O188 O 0.47796 0.73716 0.93895 0.0
H189 H 0.51953 0.67061 0.86069 0.0
H190 H 0.4903 0.65578 0.96813 0.0
C191 C 0.43519 0.80531 0.89332 0.0
C192 C 0.40555 0.81984 0.91038 0.0
C193 C 0.37844 0.76355 0.91038 0.0
C194 C 0.40724 0.74971 0.8924 0.0
N195 N 0.4352 0.77069 0.88439 0.0
N196 N 0.37814 0.79817 0.91862 0.0
H197 H 0.45807 0.821 0.88691 0.0
C198 C 0.39868 0.67804 0.95351 0.0
O199 O 0.40684 0.70777 0.96925 0.0
O200 O 0.49335 0.78598 0.82479 0.0
H201 H 0.4071 0.72236 0.88548 0.0
H202 H 0.57841 0.6447 0.87298 0.0
H203 H 0.3562 0.74706 0.91725 0.0
Zn204 Zn 0.7074 0.57992 0.20824 0.0
C205 C 0.71945 0.57594 0.31589 0.0
N206 N 0.69124 0.59561 0.32274 0.0
C207 C 0.67889 0.60511 0.29066 0.0
N208 N 0.69966 0.58948 0.26343 0.0
N209 N 0.72536 0.5724 0.28043 0.0
C210 C 0.78536 0.50763 0.30874 0.0
O211 O 0.75458 0.49709 0.29667 0.0
O212 O 0.6981 0.62686 0.18652 0.0
Zn213 Zn 0.76991 0.55566 0.25681 0.0
N214 N 0.67083 0.54845 0.19428 0.0
C215 C 0.64314 0.49278 0.19953 0.0
C216 C 0.66893 0.5165 0.21038 0.0
C217 C 0.64884 0.55743 0.16718 0.0
N218 N 0.61962 0.50266 0.17406 0.0
C219 C 0.62134 0.53469 0.15765 0.0
O220 O 0.77168 0.51658 0.21747 0.0
C221 C 0.77134 0.52643 0.18497 0.0
O222 O 0.7534 0.55469 0.17812 0.0
H223 H 0.68752 0.50955 0.23117 0.0
H224 H 0.65262 0.58232 0.15388 0.0
C225 C 0.82919 0.59745 0.23234 0.0
C226 C 0.84497 0.6277 0.21756 0.0
C227 C 0.78878 0.65472 0.21364 0.0
C228 C 0.77346 0.6252 0.22898 0.0
N229 N 0.79366 0.59688 0.23755 0.0
N230 N 0.82401 0.65532 0.20843 0.0
H231 H 0.84477 0.57478 0.23983 0.0
C232 C 0.66977 0.64234 0.19536 0.0
O233 O 0.64523 0.62451 0.21224 0.0
O234 O 0.79975 0.5344 0.29471 0.0
H235 H 0.74568 0.62517 0.23407 0.0
H236 H 0.64117 0.46712 0.21189 0.0
H237 H 0.77303 0.67739 0.20674 0.0
Zn238 Zn 0.58014 0.35774 0.89958 0.0
C239 C 0.57457 0.34768 0.79251 0.0
N240 N 0.59258 0.37719 0.78612 0.0
C241 C 0.60302 0.38842 0.81834 0.0
N242 N 0.58926 0.36574 0.84501 0.0
N243 N 0.57335 0.33973 0.82761 0.0
C244 C 0.51938 0.2677 0.79549 0.0
O245 O 0.50356 0.29581 0.808 0.0
O246 O 0.62777 0.35615 0.92071 0.0
Zn247 Zn 0.56761 0.29049 0.84691 0.0
N248 N 0.55536 0.39805 0.91535 0.0
C249 C 0.50325 0.43211 0.90999 0.0
C250 C 0.52623 0.40708 0.89633 0.0
C251 C 0.56272 0.41282 0.94747 0.0
N252 N 0.51061 0.44711 0.94197 0.0
C253 C 0.53981 0.43822 0.96122 0.0
O254 O 0.53381 0.27596 0.88845 0.0
C255 C 0.53055 0.28757 0.92012 0.0
O256 O 0.5471 0.31639 0.92753 0.0
H257 H 0.52036 0.39393 0.87143 0.0
H258 H 0.58561 0.40419 0.96237 0.0
C259 C 0.61775 0.24074 0.87226 0.0
C260 C 0.65149 0.22799 0.88088 0.0
C261 C 0.67588 0.28342 0.86524 0.0
C262 C 0.64255 0.29562 0.85603 0.0
N263 N 0.6141 0.27418 0.85992 0.0
N264 N 0.67958 0.25 0.87726 0.0
H265 H 0.59456 0.22439 0.87486 0.0
C266 C 0.64812 0.38175 0.91395 0.0
O267 O 0.63512 0.41013 0.89884 0.0
O268 O 0.54942 0.25931 0.80776 0.0
H269 H 0.6397 0.32186 0.84557 0.0
H270 H 0.47972 0.43948 0.89545 0.0
H271 H 0.69877 0.30009 0.86211 0.0
Zn272 Zn 0.84234 0.59857 0.65337 0.0
C273 C 0.83753 0.58825 0.54604 0.0
N274 N 0.86493 0.60931 0.53969 0.0
C275 C 0.87463 0.62124 0.57187 0.0
N276 N 0.85305 0.60587 0.5986 0.0
N277 N 0.8297 0.5862 0.58121 0.0
C278 C 0.76859 0.51814 0.55171 0.0
O279 O 0.80006 0.50681 0.56087 0.0
O280 O 0.8516 0.64674 0.67179 0.0
Zn281 Zn 0.78591 0.56761 0.60421 0.0
N282 N 0.87756 0.56652 0.66965 0.0
C283 C 0.89956 0.50823 0.66644 0.0
C284 C 0.87844 0.53496 0.65284 0.0
C285 C 0.8968 0.57264 0.69961 0.0
N286 N 0.91921 0.51441 0.69606 0.0
C287 C 0.91863 0.54597 0.71324 0.0
O288 O 0.78562 0.53023 0.64525 0.0
C289 C 0.78085 0.54286 0.67636 0.0
O290 O 0.79493 0.5735 0.68205 0.0
H291 H 0.86199 0.53039 0.62968 0.0
H292 H 0.89448 0.59768 0.71274 0.0
C293 C 0.72559 0.60239 0.63141 0.0
C294 C 0.7066 0.62996 0.64716 0.0
C295 C 0.75809 0.66545 0.64578 0.0
C296 C 0.77637 0.63849 0.62903 0.0
N297 N 0.76001 0.60731 0.62272 0.0
N298 N 0.7237 0.66067 0.65417 0.0
H299 H 0.71342 0.57722 0.62612 0.0
C300 C 0.85661 0.66483 0.69972 0.0
O301 O 0.85596 0.64997 0.73142 0.0
O302 O 0.75604 0.54504 0.56705 0.0
H303 H 0.80343 0.64247 0.6216 0.0
H304 H 0.90042 0.48281 0.6536 0.0
H305 H 0.77093 0.69021 0.65152 0.0
Zn306 Zn 0.59548 0.19564 0.46857 0.0
C307 C 0.58658 0.20419 0.57508 0.0
N308 N 0.60631 0.17597 0.58231 0.0
C309 C 0.61839 0.16534 0.55045 0.0
N310 N 0.60425 0.18712 0.52328 0.0
N311 N 0.58614 0.21198 0.53997 0.0
C312 C 0.53059 0.28523 0.56758 0.0
O313 O 0.51481 0.25683 0.55561 0.0
O314 O 0.64173 0.18462 0.44601 0.0
Zn315 Zn 0.57728 0.25922 0.51821 0.0
N316 N 0.56222 0.16058 0.4558 0.0
C317 C 0.50575 0.13527 0.46465 0.0
C318 C 0.53265 0.15749 0.47594 0.0
C319 C 0.56593 0.14309 0.42454 0.0
N320 N 0.51 0.11664 0.4341 0.0
C321 C 0.53955 0.11971 0.41363 0.0
O322 O 0.53909 0.26839 0.47974 0.0
C323 C 0.54441 0.26336 0.44663 0.0
O324 O 0.56837 0.24043 0.43845 0.0
H325 H 0.52972 0.17289 0.50001 0.0
H326 H 0.58918 0.14761 0.40852 0.0
C327 C 0.62218 0.3091 0.48462 0.0
C328 C 0.65371 0.32225 0.47 0.0
C329 C 0.68111 0.2672 0.48122 0.0
C330 C 0.65036 0.25494 0.49704 0.0
N331 N 0.62132 0.2759 0.4981 0.0
N332 N 0.68216 0.3005 0.46847 0.0
H333 H 0.59859 0.32496 0.48593 0.0
C334 C 0.65463 0.15416 0.45105 0.0
O335 O 0.63568 0.13018 0.46748 0.0
O336 O 0.56117 0.29273 0.55613 0.0
H337 H 0.65015 0.22902 0.5084 0.0
H338 H 0.48186 0.13253 0.48015 0.0
H339 H 0.70435 0.2508 0.48009 0.0
Zn340 Zn 0.25524 0.4742 0.61456 0.0
C341 C 0.16674 0.42151 0.57988 0.0
N342 N 0.18059 0.42903 0.54792 0.0
C343 C 0.20795 0.44978 0.55502 0.0
N344 N 0.21206 0.45567 0.59028 0.0
N345 N 0.18583 0.43934 0.607 0.0
C346 C 0.18287 0.40124 0.71118 0.0
O347 O 0.21128 0.4146 0.72595 0.0
O348 O 0.28674 0.49345 0.5768 0.0
Zn349 Zn 0.19052 0.45669 0.66021 0.0
N350 N 0.27812 0.43418 0.63696 0.0
C351 C 0.27311 0.37984 0.66813 0.0
C352 C 0.2576 0.40816 0.6507 0.0
C353 C 0.31386 0.43266 0.63941 0.0
N354 N 0.30869 0.37805 0.67017 0.0
C355 C 0.32986 0.40347 0.65607 0.0
O356 O 0.23816 0.47641 0.69179 0.0
C357 C 0.25596 0.5047 0.68477 0.0
O358 O 0.25549 0.51464 0.6523 0.0
H359 H 0.22939 0.4094 0.64856 0.0
H360 H 0.32928 0.45399 0.62843 0.0
C361 C 0.14767 0.50557 0.69544 0.0
C362 C 0.13059 0.53793 0.70032 0.0
C363 C 0.14607 0.5541 0.64092 0.0
C364 C 0.16229 0.52165 0.63611 0.0
N365 N 0.16246 0.49807 0.66339 0.0
N366 N 0.13044 0.56133 0.67265 0.0
H367 H 0.14999 0.48655 0.71681 0.0
C368 C 0.27433 0.52034 0.56112 0.0
O369 O 0.2435 0.5326 0.57111 0.0
O370 O 0.16712 0.41852 0.68704 0.0
H371 H 0.17551 0.5157 0.61129 0.0
H372 H 0.25707 0.35914 0.6795 0.0
H373 H 0.14579 0.57338 0.61962 0.0
Zn374 Zn 0.47233 0.76425 0.50605 0.0
C375 C 0.43195 0.85748 0.54371 0.0
N376 N 0.4352 0.84031 0.57476 0.0
C377 C 0.45335 0.81143 0.56689 0.0
N378 N 0.46164 0.80941 0.53188 0.0
N379 N 0.44985 0.83875 0.51642 0.0
C380 C 0.41645 0.88683 0.443 0.0
O381 O 0.43259 0.90677 0.46651 0.0
O382 O 0.48284 0.72765 0.54325 0.0
Zn383 Zn 0.46967 0.83863 0.46389 0.0
N384 N 0.43065 0.75123 0.47958 0.0
C385 C 0.38181 0.7673 0.44328 0.0
C386 C 0.41016 0.77664 0.46477 0.0
C387 C 0.42361 0.71665 0.47425 0.0
N388 N 0.37455 0.73282 0.43816 0.0
C389 C 0.39444 0.70683 0.45311 0.0
O390 O 0.4968 0.79565 0.43148 0.0
C391 C 0.51487 0.76743 0.43821 0.0
O392 O 0.51333 0.75561 0.47002 0.0
H393 H 0.41579 0.80388 0.4695 0.0
H394 H 0.44039 0.69759 0.48717 0.0
C395 C 0.51494 0.88616 0.43152 0.0
C396 C 0.54459 0.90785 0.42825 0.0
C397 C 0.55814 0.89716 0.48941 0.0
C398 C 0.52809 0.87635 0.49261 0.0
N399 N 0.5071 0.87165 0.46362 0.0
N400 N 0.56547 0.91263 0.45753 0.0
H401 H 0.49821 0.88026 0.40893 0.0
C402 C 0.51281 0.73375 0.55699 0.0
O403 O 0.53046 0.76162 0.54638 0.0
O404 O 0.43013 0.85757 0.4345 0.0
H405 H 0.52201 0.86331 0.51757 0.0
H406 H 0.36525 0.78719 0.43124 0.0
H407 H 0.57538 0.90119 0.51207 0.0
Zn408 Zn 0.78752 0.97712 0.76545 0.0
C409 C 0.87354 0.92055 0.80166 0.0
N410 N 0.85514 0.92201 0.83215 0.0
C411 C 0.82767 0.9426 0.82466 0.0
N412 N 0.82812 0.95439 0.79073 0.0
N413 N 0.85695 0.9417 0.7753 0.0
C414 C 0.87991 0.92181 0.6714 0.0
O415 O 0.85175 0.93391 0.65505 0.0
O416 O 0.75372 0.99517 0.80223 0.0
Zn417 Zn 0.8584 0.96801 0.72617 0.0
N418 N 0.76593 0.93966 0.73859 0.0
C419 C 0.7727 0.89041 0.70032 0.0
C420 C 0.78734 0.91721 0.72062 0.0
C421 C 0.73034 0.93617 0.73752 0.0
N422 N 0.73722 0.88636 0.69987 0.0
C423 C 0.71525 0.90821 0.71815 0.0
O424 O 0.81317 0.98571 0.69 0.0
C425 C 0.79267 1.01204 0.697 0.0
O426 O 0.78974 1.01976 0.72993 0.0
H427 H 0.81557 0.92029 0.72174 0.0
H428 H 0.71454 0.95494 0.75193 0.0
C429 C 0.89041 0.03305 0.70909 0.0
C430 C 0.89963 0.06851 0.71468 0.0
C431 C 0.88327 0.06242 0.7757 0.0
C432 C 0.87469 0.02734 0.76997 0.0
N433 N 0.87832 1.0134 0.73678 0.0
N434 N 0.89568 0.08201 0.74813 0.0
H435 H 0.89282 1.0206 0.68333 0.0
C436 C 0.76595 1.01997 0.82122 0.0
O437 O 0.79864 0.03022 0.81618 0.0
O438 O 0.89167 0.93842 0.69821 0.0
H439 H 0.86439 1.01175 0.79166 0.0
H440 H 0.78937 0.87255 0.68555 0.0
H441 H 0.88025 0.07402 0.80187 0.0
Zn442 Zn 0.96491 0.18584 0.40306 0.0
C443 C 0.94724 0.21406 0.30043 0.0
N444 N 0.92804 0.1858 0.29256 0.0
C445 C 0.92509 0.16827 0.32348 0.0
N446 N 0.94402 0.18611 0.35068 0.0
N447 N 0.95645 0.21519 0.33528 0.0
C448 C 1.01071 0.28867 0.31207 0.0
O449 O 0.02642 0.25942 0.32195 0.0
O450 O 0.92748 0.16391 0.4328 0.0
Zn451 Zn 0.96903 0.25917 0.36186 0.0
N452 N 1.00505 0.15585 0.40199 0.0
C453 C 0.05356 0.12969 0.37235 0.0
C454 C 1.02136 0.14722 0.37099 0.0
C455 C 1.01955 0.14826 0.43424 0.0
N456 N 0.06774 0.12137 0.40462 0.0
C457 C 0.05167 0.1301 0.43595 0.0
O458 O 1.01092 0.26538 0.39714 0.0
C459 C 1.00883 0.25636 0.42982 0.0
O460 O 0.98827 0.23002 0.43695 0.0
H461 H 1.00999 0.15473 0.34559 0.0
H462 H 1.00615 0.1571 0.45801 0.0
C463 C 0.92224 0.30703 0.39626 0.0
C464 C 0.89444 0.31682 0.41909 0.0
C465 C 0.88127 0.25648 0.4285 0.0
C466 C 0.90826 0.24713 0.40533 0.0
N467 N 0.92842 0.27248 0.38991 0.0
N468 N 0.87485 0.29096 0.4346 0.0
H469 H 0.93843 0.32625 0.38275 0.0
C470 C 0.91288 0.13525 0.42376 0.0
O471 O 0.92706 0.11639 0.39819 0.0
O472 O 0.98099 0.2962 0.32561 0.0
H473 H 0.91313 0.21988 0.39998 0.0
H474 H 0.06716 0.12267 0.34802 0.0
H475 H 0.86515 0.23656 0.44111 0.0
Zn476 Zn 0.20301 0.07575 0.711 0.0
C477 C 0.20414 0.05952 0.8182 0.0
N478 N 0.17413 0.07714 0.82321 0.0
C479 C 0.16582 0.09065 0.79121 0.0
N480 N 0.19028 0.07843 0.76551 0.0
N481 N 0.21474 0.06073 0.7837 0.0
C482 C 0.2869 1.00876 0.81989 0.0
O483 O 0.25891 0.99193 0.80825 0.0
O484 O 0.20917 0.12601 0.69979 0.0
Zn485 Zn 0.2648 0.05559 0.766 0.0
N486 N 0.16225 0.05891 0.68593 0.0
C487 C 0.1369 1.01092 0.65467 0.0
C488 C 0.1628 0.02432 0.67709 0.0
C489 C 0.1365 0.08071 0.67385 0.0
N490 N 0.1113 0.03264 0.64234 0.0
C491 C 0.11007 0.06738 0.65115 0.0
O492 O 0.28024 1.02231 0.72431 0.0
C493 C 0.27151 0.02309 0.69145 0.0
O494 O 0.24495 0.0429 0.68313 0.0
H495 H 0.18376 1.00753 0.68672 0.0
H496 H 0.1374 0.10797 0.68154 0.0
C497 C 0.3128 0.10714 0.7382 0.0
C498 C 0.3247 0.14144 0.73104 0.0
C499 C 0.27248 0.16434 0.75684 0.0
C500 C 0.2611 0.13043 0.76449 0.0
N501 N 0.28113 0.10245 0.75457 0.0
N502 N 0.30388 0.16903 0.74044 0.0
H503 H 0.32866 0.08446 0.73153 0.0
C504 C 0.20233 0.14471 0.67262 0.0
O505 O 0.19355 0.12982 0.64226 0.0
O506 O 0.29526 0.03791 0.80577 0.0
H507 H 0.23666 0.12668 0.77859 0.0
H508 H 0.13709 0.98351 0.64704 0.0
H509 H 0.25703 0.18687 0.76478 0.0
Zn510 Zn 0.07371 0.79193 0.35671 0.0
C511 C 0.10935 0.88946 0.32653 0.0
N512 N 0.09771 0.87881 0.29452 0.0
C513 C 0.08032 0.84894 0.30094 0.0
N514 N 0.08045 0.84036 0.33597 0.0
N515 N 0.09677 0.86622 0.35326 0.0
C516 C 0.15568 0.88888 0.42262 0.0
O517 O 0.13906 0.91534 0.40755 0.0
O518 O 0.05891 0.75794 0.31875 0.0
Zn519 Zn 0.09019 0.85751 0.40839 0.0
N520 N 0.11902 0.77585 0.37368 0.0
C521 C 0.18032 0.7839 0.38403 0.0
C522 C 0.14797 0.7969 0.37256 0.0
C523 C 0.12126 0.74203 0.38524 0.0
N524 N 0.18268 0.75001 0.39502 0.0
C525 C 0.15411 0.72833 0.39568 0.0
O526 O 0.05857 0.81487 0.43709 0.0
C527 C 0.03824 0.78864 0.42903 0.0
O528 O 0.03737 0.77959 0.39636 0.0
H529 H 0.14633 0.82338 0.36247 0.0
H530 H 0.09769 0.72605 0.38545 0.0
C531 C 0.07405 0.91233 0.45711 0.0
C532 C 0.05261 0.93852 0.47183 0.0
C533 C 1.01126 0.92977 0.42485 0.0
C534 C 0.03327 0.90462 0.40976 0.0
N535 N 0.06423 0.89667 0.42608 0.0
N536 N 1.02159 0.94633 0.45518 0.0
H537 H 0.09816 0.90426 0.47014 0.0
C538 C 0.02964 0.76292 0.30315 0.0
O539 O 1.01101 0.79098 0.3109 0.0
O540 O 0.13918 0.86025 0.42808 0.0
H541 H 0.02542 0.89079 0.38582 0.0
H542 H 0.20364 0.80024 0.38318 0.0
H543 H 0.98635 0.93634 0.41244 0.0
H544 H 0.5903 0.07157 0.24336 0.0
H545 H 0.42913 0.96025 0.23058 0.0
H546 H 0.58817 0.95831 0.23589 0.0
H547 H 0.43122 0.07305 0.24365 0.0
H548 H 0.48343 0.95628 0.26493 0.0
H549 H 0.53415 0.06971 0.27448 0.0
C550 C 0.57858 0.04622 0.24917 0.0
C551 C 0.59301 1.01529 0.23519 0.0
C552 C 0.47138 0.98185 0.26126 0.0
C553 C 0.52841 1.01295 0.2699 0.0
C554 C 0.44032 0.98413 0.24148 0.0
C555 C 0.42688 1.01718 0.23181 0.0
C556 C 0.48944 1.0129 0.27002 0.0
C557 C 0.44138 0.04696 0.24846 0.0
C558 C 0.54647 0.04512 0.26702 0.0
C559 C 0.57754 0.98309 0.24492 0.0
N560 N 0.47266 0.04422 0.2657 0.0
N561 N 0.54542 0.98283 0.26068 0.0
H562 H 0.93961 0.44167 0.88828 0.0
H563 H 0.93623 0.60457 0.92357 0.0
H564 H 0.04915 0.45786 0.86113 0.0
H565 H 0.04261 0.61065 0.88291 0.0
H566 H 0.92558 0.55471 0.88531 0.0
H567 H 0.92664 0.50026 0.8683 0.0
C568 C 0.96112 0.45707 0.87767 0.0
C569 C 0.99627 0.44528 0.87899 0.0
C570 C 0.95113 0.56714 0.88397 0.0
C571 C 0.9815 0.51406 0.85813 0.0
C572 C 0.95723 0.59593 0.9061 0.0
C573 C 0.99111 0.61054 0.90866 0.0
C574 C 0.97951 0.55235 0.86508 0.0
C575 C 1.01648 0.59948 0.88375 0.0
C576 C 0.95356 0.49124 0.86651 0.0
C577 C 1.02203 0.46649 0.86291 0.0
N578 N 1.01047 0.57037 0.86388 0.0
N579 N 1.01438 0.50026 0.8543 0.0
H580 H 0.40783 0.53661 0.12954 0.0
H581 H 0.5717 0.49386 0.12537 0.0
H582 H 0.45323 0.61222 0.20214 0.0
H583 H 0.60096 0.60289 0.13912 0.0
H584 H 0.51226 0.51236 0.11186 0.0
H585 H 0.46008 0.54159 0.09197 0.0
C586 C 0.42849 0.55458 0.1375 0.0
C587 C 0.42783 0.57146 0.1709 0.0
C588 C 0.53208 0.53245 0.11581 0.0
C589 C 0.48676 0.5777 0.12771 0.0
C590 C 0.56616 0.52177 0.12412 0.0
C591 C 0.59124 0.54651 0.13525 0.0
C592 C 0.5231 0.56818 0.11831 0.0
C593 C 0.58262 0.58241 0.1319 0.0
C594 C 0.45808 0.5577 0.1157 0.0
C595 C 0.45363 0.59695 0.17778 0.0
N596 N 0.5489 0.59208 0.12493 0.0
N597 N 0.48276 0.59846 0.15696 0.0
H598 H 0.49403 0.46293 1.01095 0.0
H599 H 0.60731 0.6153 0.97967 0.0
H600 H 0.60468 0.46044 0.98513 0.0
H601 H 0.4976 0.61701 1.01033 0.0
H602 H 0.61571 0.56376 1.01715 0.0
H603 H 0.50358 0.51631 1.04482 0.0
C604 C 0.52066 0.4729 1.01364 0.0
C605 C 0.5482 0.45854 0.99359 0.0
C606 C 0.58999 0.57608 1.01656 0.0
C607 C 0.55925 0.5202 1.03132 0.0
C608 C 0.58509 0.60556 0.9949 0.0
C609 C 0.55096 0.61868 0.98893 0.0
C610 C 0.56028 0.55915 1.03091 0.0
C611 C 0.52397 0.60646 1.01147 0.0
C612 C 0.52625 0.50342 1.03319 0.0
C613 C 0.58236 0.47155 0.99906 0.0
N614 N 0.5289 0.57649 1.03046 0.0
N615 N 0.58678 0.50251 1.01644 0.0
H616 H 0.94596 0.60914 0.739 0.0
H617 H 0.10995 0.60221 0.72527 0.0
H618 H 0.94945 0.49693 0.75653 0.0
H619 H 0.1023 0.49161 0.75039 0.0
H620 H 0.05825 0.61288 0.76125 0.0
H621 H 1.00171 0.61486 0.76921 0.0
C622 C 0.95791 0.5856 0.74979 0.0
C623 C 0.94399 0.55204 0.74281 0.0
C624 C 0.06797 0.58626 0.75967 0.0
C625 C 1.00972 0.55835 0.77519 0.0
C626 C 0.09784 0.58018 0.73895 0.0
C627 C 0.1092 0.54567 0.73254 0.0
C628 C 0.04873 0.55737 0.77287 0.0
C629 C 0.09377 0.51858 0.75276 0.0
C630 C 0.99047 0.58889 0.76681 0.0
C631 C 0.96032 0.52312 0.75915 0.0
N632 N 0.06367 0.52489 0.7711 0.0
N633 N 0.99295 0.52675 0.7734 0.0
H634 H 0.6069 0.93605 0.40535 0.0
H635 H 0.4894 0.08754 0.37309 0.0
H636 H 0.49696 0.92895 0.37607 0.0
H637 H 0.60229 0.09404 0.38641 0.0
H638 H 0.4966 0.03038 0.34564 0.0
H639 H 0.61188 0.98889 0.36901 0.0
C640 C 0.58404 0.94493 0.3905 0.0
C641 C 0.55098 0.92927 0.39579 0.0
C642 C 0.52002 0.04482 0.35324 0.0
C643 C 0.55616 0.99028 0.35529 0.0
C644 C 0.51584 0.07755 0.36909 0.0
C645 C 0.545 0.0947 0.384 0.0
C646 C 0.55354 0.02903 0.35302 0.0
C647 C 0.57873 0.08129 0.37665 0.0
C648 C 0.5869 0.97512 0.36955 0.0
C649 C 0.52275 0.94085 0.37442 0.0
N650 N 0.582 0.04861 0.3627 0.0
N651 N 0.52569 0.97143 0.35606 0.0
H652 H 0.90478 0.05807 0.64059 0.0
H653 H 0.08751 0.13414 0.67346 0.0
H654 H 0.93568 0.13007 0.72408 0.0
H655 H 0.06127 0.05007 0.6005 0.0
H656 H 0.0282 0.15619 0.6678 0.0
H657 H 0.95336 0.07934 0.60435 0.0
C658 C 0.92144 0.07848 0.65144 0.0
C659 C 0.91823 0.08973 0.68708 0.0
C660 C 0.03573 0.13347 0.65219 0.0
C661 C 0.97326 0.11478 0.64508 0.0
C662 C 0.06994 0.12052 0.65551 0.0
C663 C 0.07918 0.08851 0.63925 0.0
C664 C 1.01047 0.11377 0.63349 0.0
C665 C 0.05493 0.07367 0.6152 0.0
C666 C 0.94891 0.09112 0.63028 0.0
C667 C 0.93853 0.11876 0.69774 0.0
N668 N 1.02134 0.08569 0.61395 0.0
N669 N 0.966 0.12946 0.67735 0.0
H670 H 0.12101 0.95658 0.49067 0.0
H671 H 0.11922 0.10894 0.44994 0.0
H672 H 1.01271 0.97324 0.52116 0.0
H673 H 1.01831 0.12037 0.50178 0.0
H674 H 0.13547 0.06542 0.49399 0.0
H675 H 0.13646 1.01244 0.51716 0.0
C676 C 0.10047 0.97141 0.50382 0.0
C677 C 0.06487 0.96148 0.50121 0.0
C678 C 0.11 0.07782 0.49659 0.0
C679 C 0.08207 0.02695 0.52856 0.0
C680 C 0.10066 0.10289 0.47105 0.0
C681 C 0.06625 0.11632 0.47012 0.0
C682 C 0.08405 0.06509 0.52019 0.0
C683 C 0.0444 0.10929 0.49961 0.0
C684 C 0.10931 1.00391 0.51854 0.0
C685 C 0.04012 0.98114 0.52036 0.0
N686 N 0.05326 0.08328 0.52278 0.0
N687 N 0.04893 1.01362 0.53219 0.0
H688 H 0.34858 0.208 0.24927 0.0
H689 H 0.35785 0.36438 0.1235 0.0
H690 H 0.39135 0.18996 0.14402 0.0
H691 H 0.40826 0.37601 0.22625 0.0
H692 H 0.36312 0.3003 0.12965 0.0
H693 H 0.36313 0.27078 0.24279 0.0
C694 C 0.36147 0.21709 0.22515 0.0
C695 C 0.36855 0.19382 0.1971 0.0
C696 C 0.37359 0.31711 0.15044 0.0
C697 C 0.38414 0.26498 0.18925 0.0
C698 C 0.37069 0.35351 0.14691 0.0
C699 C 0.38238 0.37545 0.17451 0.0
C700 C 0.38712 0.30283 0.18221 0.0
C701 C 0.39872 0.36002 0.20443 0.0
C702 C 0.36979 0.25271 0.22152 0.0
C703 C 0.38528 0.20697 0.1663 0.0
N704 N 0.39972 0.32453 0.20801 0.0
N705 N 0.39173 0.24185 0.16282 0.0
H706 H 0.17534 0.63656 0.97496 0.0
H707 H 0.36667 0.64887 0.89589 0.0
H708 H 0.19348 0.69246 0.87605 0.0
H709 H 0.34592 0.68488 1.00311 0.0
H710 H 0.30346 0.64097 0.88649 0.0
H711 H 0.23892 0.63008 0.9826 0.0
C712 C 0.19258 0.64671 0.95434 0.0
C713 C 0.1791 0.6656 0.92498 0.0
C714 C 0.31295 0.64989 0.91224 0.0
C715 C 0.25149 0.65736 0.93343 0.0
C716 C 0.34891 0.65418 0.91784 0.0
C717 C 0.36148 0.66751 0.95047 0.0
C718 C 0.28957 0.65799 0.93978 0.0
C719 C 0.33722 0.67454 0.97767 0.0
C720 C 0.22876 0.64309 0.95894 0.0
C721 C 0.20278 0.67797 0.89914 0.0
N722 N 0.3022 0.66959 0.97175 0.0
N723 N 0.23803 0.67371 0.90401 0.0
H724 H 0.74375 0.8497 0.23055 0.0
H725 H 0.6167 0.68531 0.21895 0.0
H726 H 0.63368 0.86475 0.20537 0.0
H727 H 0.721 0.68735 0.17291 0.0
H728 H 0.62113 0.74883 0.2296 0.0
H729 H 0.7344 0.78607 0.22951 0.0
C730 C 0.71742 0.83966 0.22592 0.0
C731 C 0.68956 0.86229 0.21735 0.0
C732 C 0.64288 0.73512 0.21713 0.0
C733 C 0.67888 0.79016 0.21613 0.0
C734 C 0.64032 0.69911 0.21072 0.0
C735 C 0.66881 0.68098 0.19553 0.0
C736 C 0.67432 0.75262 0.20886 0.0
C737 C 0.69875 0.70013 0.18536 0.0
C738 C 0.71224 0.80347 0.22493 0.0
C739 C 0.65593 0.84796 0.21153 0.0
N740 N 0.70095 0.73487 0.19272 0.0
N741 N 0.65151 0.81258 0.21069 0.0
H742 H 0.7001 0.42605 0.89058 0.0
H743 H 0.84735 0.27771 0.89929 0.0
H744 H 0.6831 0.32392 0.93841 0.0
H745 H 0.87335 0.38788 0.90734 0.0
H746 H 0.78467 0.29338 0.89768 0.0
H747 H 0.76267 0.41171 0.88401 0.0
C748 C 0.70957 0.40086 0.90013 0.0
C749 C 0.68641 0.37609 0.915 0.0
C750 C 0.80425 0.31405 0.89929 0.0
C751 C 0.75721 0.35933 0.90646 0.0
C752 C 0.83986 0.30519 0.89977 0.0
C753 C 0.86523 0.33159 0.90392 0.0
C754 C 0.79435 0.34947 0.90229 0.0
C755 C 0.85434 0.36681 0.90458 0.0
C756 C 0.74511 0.39264 0.89606 0.0
C757 C 0.70003 0.34377 0.92673 0.0
N758 N 0.81956 0.3748 0.90401 0.0
N759 N 0.73455 0.33615 0.92185 0.0
H760 H 0.88447 0.71145 0.74852 0.0
H761 H 0.85876 0.87579 0.61975 0.0
H762 H 0.84712 0.70387 0.63976 0.0
H763 H 0.91813 0.88131 0.7181 0.0
H764 H 0.85807 0.81192 0.62495 0.0
H765 H 0.89856 0.77363 0.73783 0.0
C766 C 0.87921 0.72283 0.7225 0.0
C767 C 0.86453 0.70252 0.69506 0.0
C768 C 0.87177 0.82706 0.64511 0.0
C769 C 0.88082 0.7731 0.68253 0.0
C770 C 0.87237 0.86355 0.64198 0.0
C771 C 0.88799 0.88396 0.66878 0.0
C772 C 0.88646 0.81095 0.67551 0.0
C773 C 0.90542 0.86664 0.69696 0.0
C774 C 0.88755 0.75815 0.71629 0.0
C775 C 0.85852 0.71847 0.66171 0.0
N776 N 0.90355 0.83112 0.69999 0.0
N777 N 0.86652 0.75277 0.65647 0.0
H778 H 0.8671 0.08398 0.40055 0.0
H779 H 0.70513 0.20273 0.43594 0.0
H780 H 0.87389 0.17446 0.4698 0.0
H781 H 0.68982 0.09117 0.45105 0.0
H782 H 0.76862 0.19303 0.43329 0.0
H783 H 0.80265 0.08485 0.40741 0.0
C784 C 0.85522 0.10346 0.41781 0.0
C785 C 0.87586 0.12954 0.43419 0.0
C786 C 0.75122 0.17072 0.43702 0.0
C787 C 0.80286 0.13113 0.44104 0.0
C788 C 0.71506 0.17616 0.43832 0.0
C789 C 0.69227 0.14777 0.44421 0.0
C790 C 0.76461 0.1366 0.44073 0.0
C791 C 0.70663 0.11379 0.44677 0.0
C792 C 0.81857 0.10398 0.42151 0.0
C793 C 0.85906 0.15418 0.45621 0.0
N794 N 0.74211 0.10904 0.44489 0.0
N795 N 0.82346 0.15487 0.45832 0.0
H796 H 0.18973 0.19664 0.62277 0.0
H797 H 0.21061 0.35327 0.75798 0.0
H798 H 0.20071 0.17863 0.73624 0.0
H799 H 0.14407 0.36201 0.66455 0.0
H800 H 0.21257 0.28954 0.74927 0.0
H801 H 0.17911 0.2592 0.63516 0.0
C802 C 0.19036 0.20584 0.65012 0.0
C803 C 0.1973 0.18264 0.67838 0.0
C804 C 0.19712 0.30552 0.73108 0.0
C805 C 0.18508 0.25338 0.69263 0.0
C806 C 0.19582 0.34175 0.73618 0.0
C807 C 0.17741 0.36296 0.71188 0.0
C808 C 0.1805 0.29074 0.70113 0.0
C809 C 0.15875 0.34669 0.68392 0.0
C810 C 0.18405 0.24133 0.65718 0.0
C811 C 0.19707 0.19578 0.71346 0.0
N812 N 0.16135 0.31155 0.67888 0.0
N813 N 0.19144 0.23033 0.71957 0.0
H814 H 0.20074 0.83536 0.43916 0.0
H815 H 0.37484 0.94245 0.46307 0.0
H816 H 0.19777 0.94726 0.41967 0.0
H817 H 0.37262 0.84507 0.40399 0.0
H818 H 0.3103 0.94538 0.45858 0.0
H819 H 0.2651 0.83807 0.44057 0.0
C820 C 0.21358 0.8605 0.4354 0.0
C821 C 0.19398 0.891 0.42857 0.0
C822 C 0.32423 0.9237 0.44631 0.0
C823 C 0.26721 0.89431 0.43096 0.0
C824 C 0.36093 0.92205 0.44866 0.0
C825 C 0.37908 0.89318 0.43431 0.0
C826 C 0.30586 0.89594 0.43024 0.0
C827 C 0.3597 0.86747 0.41597 0.0
C828 C 0.2502 0.86198 0.43609 0.0
C829 C 0.21199 0.92306 0.42461 0.0
N830 N 0.32405 0.86909 0.41508 0.0
N831 N 0.24777 0.92395 0.42596 0.0
H832 H 0.2718 0.97229 0.18596 0.0
H833 H 0.10959 0.96351 0.32613 0.0
H834 H 0.23702 0.06724 0.23686 0.0
H835 H 0.17909 0.87622 0.30966 0.0
H836 H 0.15159 1.00188 0.29377 0.0
H837 H 0.23518 0.93784 0.22758 0.0
C838 C 0.25675 0.98628 0.20594 0.0
C839 C 0.2589 0.02357 0.20718 0.0
C840 C 0.15842 0.97457 0.29803 0.0
C841 C 0.2141 0.98258 0.25616 0.0
C842 C 0.13447 0.95241 0.31767 0.0
C843 C 0.14069 0.91592 0.32365 0.0
C844 C 0.18919 0.9607 0.28179 0.0
C845 C 0.17299 0.90399 0.30835 0.0
C846 C 0.23546 0.96618 0.23008 0.0
C847 C 0.23753 0.03892 0.23433 0.0
N848 N 0.19496 0.92557 0.28829 0.0
N849 N 0.21622 1.0188 0.25686 0.0
H850 H 1.01601 0.82752 0.95516 0.0
H851 H 0.88994 0.85086 0.78201 0.0
H852 H 1.01463 0.74609 0.87575 0.0
H853 H 0.9334 0.93836 0.83914 0.0
H854 H 0.93133 0.81133 0.81392 0.0
H855 H 0.98243 0.86577 0.91452 0.0
C856 C 1.00888 0.81732 0.92915 0.0
C857 C 1.0193 0.78266 0.91983 0.0
C858 C 0.93277 0.83932 0.81883 0.0
C859 C 0.97824 0.82798 0.87151 0.0
C860 C 0.9094 0.86248 0.79957 0.0
C861 C 0.90858 0.89951 0.80526 0.0
C862 C 0.95542 0.85216 0.84608 0.0
C863 C 0.93341 0.91094 0.83145 0.0
C864 C 0.98938 0.83964 0.90557 0.0
C865 C 1.00822 0.77224 0.88497 0.0
N866 N 0.95465 0.88798 0.85063 0.0
N867 N 0.98834 0.79422 0.86282 0.0
H868 H 0.9436 0.10693 0.28995 0.0
H869 H 0.74685 0.02912 0.24826 0.0
H870 H 0.8535 0.1541 0.33956 0.0
H871 H 0.83116 0.02864 0.17168 0.0
H872 H 0.78476 0.06408 0.28922 0.0
H873 H 0.90428 0.06748 0.25662 0.0
C874 C 0.91568 0.10786 0.29584 0.0
C875 C 0.9032 0.13379 0.32007 0.0
C876 C 0.79518 0.05624 0.26354 0.0
C877 C 0.85573 0.08777 0.27879 0.0
C878 C 0.77329 0.03584 0.23983 0.0
C879 C 0.78493 0.02511 0.20542 0.0
C880 C 0.83019 0.06577 0.25411 0.0
C881 C 0.82004 0.03573 0.19727 0.0
C882 C 0.8928 0.08556 0.27562 0.0
C883 C 0.86565 0.13407 0.32321 0.0
N884 N 0.84086 0.05458 0.22096 0.0
N885 N 0.84387 0.11193 0.30337 0.0
H886 H 0.09194 0.09824 0.78566 0.0
H887 H 0.08565 0.24544 0.94088 0.0
H888 H 0.18391 0.15704 0.81505 0.0
H889 H 0.9946 0.23198 0.87389 0.0
H890 H 0.12008 0.20866 0.89946 0.0
H891 H 0.05509 0.14119 0.81836 0.0
C892 C 0.10465 0.12108 0.7971 0.0
C893 C 0.14202 0.12404 0.79457 0.0
C894 C 0.09261 0.21364 0.89346 0.0
C895 C 0.09861 0.17327 0.83693 0.0
C896 C 0.07253 0.23501 0.91749 0.0
C897 C 0.03638 0.24319 0.91174 0.0
C898 C 0.07709 0.19814 0.86284 0.0
C899 C 1.02209 0.22761 0.8802 0.0
C900 C 0.08325 0.14552 0.81692 0.0
C901 C 0.15562 0.15365 0.81359 0.0
N902 N 0.04192 0.206 0.85784 0.0
N903 N 0.13462 0.17593 0.8338 0.0
H904 H 0.194 0.66152 1.03855 0.0
H905 H 0.21796 0.52953 0.20618 0.0
H906 H 0.10664 0.60854 0.08745 0.0
H907 H 0.3016 0.53663 0.12918 0.0
H908 H 0.17933 0.56265 0.16537 0.0
H909 H 0.23471 0.62098 0.07007 0.0
C910 C 0.18285 0.6402 1.05407 0.0
C911 C 0.14551 0.63805 1.05755 0.0
C912 C 0.20604 0.55704 0.157 0.0
C913 C 0.19388 0.59222 0.09821 0.0
C914 C 0.22854 0.5378 0.18065 0.0
C915 C 0.26389 0.52908 0.17195 0.0
C916 C 0.21826 0.56969 0.12365 0.0
C917 C 0.27487 0.54164 0.13779 0.0
C918 C 0.20659 0.61731 0.07319 0.0
C919 C 0.13444 0.61094 0.08146 0.0
N920 N 0.25272 0.56128 0.11563 0.0
N921 N 0.15783 0.59023 0.10068 0.0
H922 H 0.67704 0.85944 0.06249 0.0
H923 H 0.4829 0.79641 0.99128 0.0
H924 H 0.58758 0.92721 0.07445 0.0
H925 H 0.5792 0.76744 0.93876 0.0
H926 H 0.51735 0.8354 1.03151 0.0
H927 H 0.63982 0.81733 1.0297 0.0
C928 C 0.64909 0.86485 1.06048 0.0
C929 C 0.63609 0.89722 0.07421 0.0
C930 C 0.53116 0.82033 1.01144 0.0
C931 C 0.59171 0.84773 1.0333 0.0
C932 C 0.51124 0.79752 0.98824 0.0
C933 C 0.52739 0.77746 0.96074 0.0
C934 C 0.56843 0.82317 1.00873 0.0
C935 C 0.5647 0.78162 0.95899 0.0
C936 C 0.62772 0.84077 1.04046 0.0
C937 C 0.59945 0.90245 0.06695 0.0
N938 N 0.58337 0.80308 0.98228 0.0
N939 N 0.57913 0.87853 1.04771 0.0
H940 H 0.81104 0.54862 0.12395 0.0
H941 H 0.87142 0.35371 1.05515 0.0
H942 H 0.78411 0.45384 0.18037 0.0
H943 H 0.94036 0.44191 1.04047 0.0
H944 H 0.83039 0.39168 0.08831 0.0
H945 H 0.8489 0.5134 0.08342 0.0
C946 C 0.81234 0.52044 0.12781 0.0
C947 C 0.7932 0.50499 0.1565 0.0
C948 C 0.85384 0.40335 0.07687 0.0
C949 C 0.83758 0.46299 0.10813 0.0
C950 C 0.87727 0.38154 1.05663 0.0
C951 C 0.90966 0.39391 1.04203 0.0
C952 C 0.86143 0.43923 0.08335 0.0
C953 C 0.91553 0.43046 1.04865 0.0
C954 C 0.83451 0.50008 0.10442 0.0
C955 C 0.79758 0.46784 0.15921 0.0
N956 N 0.89219 0.45124 0.06809 0.0
N957 N 0.81837 0.44871 0.13572 0.0
H958 H 0.37009 0.19786 0.07655 0.0
H959 H 0.5169 0.2157 0.92059 0.0
H960 H 0.43347 0.11124 1.04154 0.0
H961 H 0.49275 0.30645 0.98425 0.0
H962 H 0.48252 0.17902 0.96191 0.0
H963 H 0.4099 0.23855 1.04402 0.0
C964 C 0.39338 0.18715 0.06393 0.0
C965 C 0.39868 0.15007 0.06465 0.0
C966 C 0.48453 0.20691 0.96719 0.0
C967 C 0.444 0.19791 1.02285 0.0
C968 C 0.50445 0.22835 0.94316 0.0
C969 C 0.50877 0.26516 0.94792 0.0
C970 C 0.46691 0.22146 0.99698 0.0
C971 C 0.49111 0.27861 0.97863 0.0
C972 C 0.41593 0.21075 1.04422 0.0
C973 C 0.42844 0.13912 1.04426 0.0
N974 N 0.47107 0.25726 1.00119 0.0
N975 N 0.44891 0.16218 1.02443 0.0
H976 H 0.6031 0.46246 0.81667 0.0
H977 H 0.77191 0.4703 0.68436 0.0
H978 H 0.67353 0.37521 0.80459 0.0
H979 H 0.7338 0.56565 0.73194 0.0
H980 H 0.73348 0.43611 0.72452 0.0
H981 H 0.64637 0.50055 0.7857 0.0
C982 C 0.62835 0.45133 0.80948 0.0
C983 C 0.63441 0.41494 0.81626 0.0
C984 C 0.7334 0.46449 0.72659 0.0
C985 C 0.68461 0.45936 0.77601 0.0
C986 C 0.75573 0.48445 0.70328 0.0
C987 C 0.75753 0.52178 0.70406 0.0
C988 C 0.71061 0.48107 0.75131 0.0
C989 C 0.73465 0.5373 0.72983 0.0
C990 C 0.65309 0.47332 0.79064 0.0
C991 C 0.66739 0.40293 0.80258 0.0
N992 N 0.71241 0.51731 0.75154 0.0
N993 N 0.69019 0.42433 0.78326 0.0
H994 H 0.38673 0.3531 0.28857 0.0
H995 H 0.5235 0.33306 0.45276 0.0
H996 H 0.43905 0.44176 0.33528 0.0
H997 H 0.5157 0.24886 0.37678 0.0
H998 H 0.48867 0.37072 0.41254 0.0
H999 H 0.42892 0.31364 0.31937 0.0
C1000 C 0.40825 0.36482 0.30338 0.0
C1001 C 0.40969 0.40214 0.30641 0.0
C1002 C 0.49448 0.3441 0.40427 0.0
C1003 C 0.45754 0.35517 0.34636 0.0
C1004 C 0.51469 0.32214 0.42759 0.0
C1005 C 0.52374 0.28692 0.41901 0.0
C1006 C 0.48116 0.33145 0.3714 0.0
C1007 C 0.51046 0.2755 0.3853 0.0
C1008 C 0.4321 0.34178 0.32211 0.0
C1009 C 0.43715 0.41395 0.32955 0.0
N1010 N 0.4899 0.29713 0.36349 0.0
N1011 N 0.45884 0.39119 0.34847 0.0
H1012 H 0.26631 0.57711 0.68986 0.0
H1013 H 0.43116 0.58775 0.82591 0.0
H1014 H 0.29941 0.48276 0.74363 0.0
H1015 H 0.35898 0.67356 0.81293 0.0
H1016 H 0.38858 0.54876 0.7951 0.0
H1017 H 0.30388 0.61181 0.73034 0.0
C1018 C 0.2812 0.56334 0.71024 0.0
C1019 C 0.27829 0.52617 0.71271 0.0
C1020 C 0.38135 0.57587 0.79985 0.0
C1021 C 0.32424 0.56731 0.76014 0.0
C1022 C 0.40566 0.59834 0.81861 0.0
C1023 C 0.39883 0.6346 0.82502 0.0
C1024 C 0.34965 0.58928 0.78496 0.0
C1025 C 0.36566 0.64596 0.81117 0.0
C1026 C 0.30302 0.58355 0.73368 0.0
C1027 C 0.2995 0.51101 0.74023 0.0
N1028 N 0.34336 0.62417 0.79187 0.0
N1029 N 0.32142 0.5312 0.762 0.0
H1030 H 0.61059 0.59185 0.31104 0.0
H1031 H 0.55326 0.78919 0.37559 0.0
H1032 H 0.67744 0.67955 0.2865 0.0
H1033 H 0.52817 0.69526 0.43438 0.0
H1034 H 0.58959 0.75317 0.33421 0.0
H1035 H 0.57145 0.63122 0.34456 0.0
C1036 C 0.61627 0.61975 0.31053 0.0
C1037 C 0.64748 0.63147 0.29309 0.0
C1038 C 0.57603 0.74026 0.35602 0.0
C1039 C 0.60159 0.67864 0.33494 0.0
C1040 C 0.5548 0.76109 0.37994 0.0
C1041 C 0.5367 0.74611 0.4096 0.0
C1042 C 0.57909 0.70319 0.3602 0.0
C1043 C 0.54104 0.70898 0.41265 0.0
C1044 C 0.59397 0.64244 0.33094 0.0
C1045 C 0.65336 0.66841 0.29708 0.0
N1046 N 0.56088 0.68945 0.38873 0.0
N1047 N 0.63113 0.69007 0.31693 0.0
H1048 H 0.77812 0.08391 0.69439 0.0
H1049 H 0.62166 0.09118 0.548 0.0
H1050 H 0.7546 0.99065 0.63437 0.0
H1051 H 0.68677 0.18075 0.56994 0.0
H1052 H 0.66475 0.05346 0.5799 0.0
H1053 H 0.74092 0.1183 0.65309 0.0
C1054 C 0.76546 0.07034 0.67245 0.0
C1055 C 0.77094 0.03361 0.66851 0.0
C1056 C 0.67038 0.08121 0.57694 0.0
C1057 C 0.72536 0.07424 0.62003 0.0
C1058 C 0.64582 0.10303 0.5576 0.0
C1059 C 0.65055 0.13995 0.55333 0.0
C1060 C 0.70008 0.09584 0.59459 0.0
C1061 C 0.6819 0.15271 0.56997 0.0
C1062 C 0.74383 0.09036 0.64854 0.0
C1063 C 0.75248 1.01863 0.639 0.0
N1064 N 0.70437 0.13141 0.58975 0.0
N1065 N 0.73066 0.03852 0.61675 0.0
H1066 H 0.16207 0.34824 0.59198 0.0
H1067 H 1.02381 0.32791 0.4286 0.0
H1068 H 0.10109 0.43466 0.55178 0.0
H1069 H 0.04125 0.23903 0.49756 0.0
H1070 H 0.0563 0.36528 0.47081 0.0
H1071 H 0.12314 0.30724 0.55892 0.0
C1072 C 0.1394 0.35892 0.57811 0.0
C1073 C 0.13463 0.39609 0.57746 0.0
C1074 C 0.05317 0.33767 0.4771 0.0
C1075 C 0.0904 0.34771 0.53504 0.0
C1076 C 0.03433 0.31584 0.45258 0.0
C1077 C 0.02869 0.27935 0.45854 0.0
C1078 C 0.06847 0.32379 0.50864 0.0
C1079 C 0.04391 0.26662 0.49099 0.0
C1080 C 0.11739 0.3351 0.55808 0.0
C1081 C 0.10566 0.40681 0.5556 0.0
N1082 N 0.06305 0.28828 0.514 0.0
N1083 N 0.08579 0.38351 0.53546 0.0
H1084 H 0.34143 1.00123 0.69672 0.0
H1085 H 0.36079 0.8718 0.52572 0.0
H1086 H 0.2559 0.99458 0.62156 0.0
H1087 H 0.44933 0.91841 0.57895 0.0
H1088 H 0.32123 0.91248 0.55834 0.0
H1089 H 0.37866 0.96745 0.65559 0.0
C1090 C 0.33003 0.99279 0.67163 0.0
C1091 C 0.2945 1.00183 0.66369 0.0
C1092 C 0.3494 0.9147 0.56228 0.0
C1093 C 0.33883 0.96065 0.61462 0.0
C1094 C 0.37254 0.89172 0.54258 0.0
C1095 C 0.40987 0.89191 0.54704 0.0
C1096 C 0.36265 0.93804 0.58869 0.0
C1097 C 0.42158 0.91748 0.57228 0.0
C1098 C 0.35181 0.9732 0.64771 0.0
C1099 C 0.2827 0.98917 0.62982 0.0
N1100 N 0.39872 0.93833 0.59187 0.0
N1101 N 0.30424 0.96935 0.60731 0.0
H1102 H 0.02573 0.71664 0.42943 0.0
H1103 H 0.87283 0.69562 0.57778 0.0
H1104 H 0.99959 0.80697 0.49284 0.0
H1105 H 0.94335 0.61156 0.55137 0.0
H1106 H 0.91284 0.73733 0.54685 0.0
H1107 H 0.99076 0.67953 0.46997 0.0
C1108 C 1.0128 0.72907 0.45186 0.0
C1109 C 1.01683 0.76588 0.45686 0.0
C1110 C 0.92033 0.70993 0.54867 0.0
C1111 C 0.974 0.72176 0.50474 0.0
C1112 C 0.89759 0.6858 0.56755 0.0
C1113 C 0.90478 0.6491 0.57016 0.0
C1114 C 0.95057 0.69795 0.52995 0.0
C1115 C 0.93661 0.63918 0.55257 0.0
C1116 C 0.9925 0.70741 0.47539 0.0
C1117 C 0.99837 0.77912 0.48719 0.0
N1118 N 0.95723 0.66262 0.53335 0.0
N1119 N 0.97785 0.75758 0.50915 0.0
H1120 H 0.26222 0.097 0.83573 0.0
H1121 H 0.3466 0.04167 1.00015 0.0
H1122 H 0.19412 1.01417 0.8733 0.0
H1123 H 0.26067 0.11182 1.02366 0.0
H1124 H 0.31776 0.02608 0.94338 0.0
H1125 H 0.29159 0.09765 0.89427 0.0
C1126 C 0.2544 0.0781 0.85589 0.0
C1127 C 0.22701 0.05427 0.84933 0.0
C1128 C 0.30483 0.04397 0.96164 0.0
C1129 C 0.25875 0.05642 0.91631 0.0
C1130 C 0.321 0.05269 0.99389 0.0
C1131 C 0.30526 0.07716 1.01684 0.0
C1132 C 0.27299 0.06009 0.95245 0.0
C1133 C 0.2729 0.09202 1.00706 0.0
C1134 C 0.27078 0.07878 0.88919 0.0
C1135 C 0.21617 0.03186 0.87709 0.0
N1136 N 0.2578 0.0834 0.97529 0.0
N1137 N 0.23196 0.03358 0.9097 0.0
H1138 H 0.12212 0.78182 0.0932 0.0
H1139 H 0.11694 0.79013 0.28482 0.0
H1140 H 0.0509 0.70104 0.12946 0.0
H1141 H 0.03286 0.85699 0.24758 0.0
H1142 H 0.11514 0.75853 0.2275 0.0
H1143 H 0.1112 0.81436 0.14913 0.0
C1144 C 0.10338 0.77165 0.11244 0.0
C1145 C 0.08641 0.73951 0.10659 0.0
C1146 C 0.0966 0.77961 0.23243 0.0
C1147 C 0.07521 0.77524 0.17016 0.0
C1148 C 0.09732 0.79723 0.26501 0.0
C1149 C 0.07389 0.82496 0.2712 0.0
C1150 C 0.07326 0.79081 0.20573 0.0
C1151 C 0.05034 0.83479 0.24402 0.0
C1152 C 0.09736 0.78994 0.14414 0.0
C1153 C 0.06361 0.72632 0.13288 0.0
N1154 N 0.05072 0.81782 0.21211 0.0
N1155 N 0.05891 0.74407 0.1639 0.0
H1156 H 0.84862 0.98718 0.87559 0.0
H1157 H 0.68577 1.00535 0.99706 0.0
H1158 H 0.75929 0.92615 0.84075 0.0
H1159 H 0.76323 0.92935 1.03077 0.0
H1160 H 0.71511 1.00917 0.93839 0.0
H1161 H 0.81799 0.99962 0.93199 0.0
C1162 C 0.82205 0.97743 0.87948 0.0
C1163 C 0.80591 0.95627 0.85356 0.0
C1164 C 0.72602 0.9925 0.95915 0.0
C1165 C 0.77145 0.97013 0.91724 0.0
C1166 C 0.70974 0.99056 0.99247 0.0
C1167 C 0.72321 0.96815 1.01898 0.0
C1168 C 0.75571 0.97176 0.9527 0.0
C1169 C 0.75312 0.94802 1.01142 0.0
C1170 C 0.80485 0.98443 0.91145 0.0
C1171 C 0.77204 0.94319 0.85995 0.0
N1172 N 0.7686 0.95041 0.97884 0.0
N1173 N 0.7558 0.95025 0.89149 0.0
H1174 H 0.92993 0.27386 0.08689 0.0
H1175 H 1.00931 0.21235 0.26521 0.0
H1176 H 1.02146 0.33339 0.11811 0.0
H1177 H 0.90834 0.26386 0.26701 0.0
H1178 H 1.0205 0.23782 0.20564 0.0
H1179 H 0.9279 0.24782 0.14714 0.0
C1180 C 0.95046 0.28019 0.10599 0.0
C1181 C 0.97661 0.30479 0.09741 0.0
C1182 C 0.9964 0.24425 0.21967 0.0
C1183 C 0.97383 0.27615 0.16594 0.0
C1184 C 0.99024 0.23031 0.25369 0.0
C1185 C 0.95866 0.23765 0.27166 0.0
C1186 C 0.97016 0.26441 0.2032 0.0
C1187 C 0.93365 0.259 0.25464 0.0
C1188 C 0.94896 0.26585 0.1403 0.0
C1189 C 1.0016 0.31366 0.12357 0.0
N1190 N 0.93974 0.27136 0.2211 0.0
N1191 N 0.99972 0.29923 0.15684 0.0
H1192 H 0.26238 0.4318 0.34359 0.0
H1193 H 0.18736 0.49511 0.50424 0.0
H1194 H 0.35279 0.48786 0.38382 0.0
H1195 H 0.275 0.43088 0.53765 0.0
H1196 H 0.21578 0.50361 0.44582 0.0
H1197 H 0.23174 0.44338 0.40049 0.0
C1198 C 0.27519 0.44745 0.36398 0.0
C1199 C 0.30946 0.46001 0.35898 0.0
C1200 C 0.22911 0.48863 0.46646 0.0
C1201 C 0.27594 0.47142 0.42371 0.0
C1202 C 0.21327 0.48404 0.49966 0.0
C1203 C 0.22954 0.46311 0.5258 0.0
C1204 C 0.26131 0.47215 0.45973 0.0
C1205 C 0.26232 0.44804 0.5184 0.0
C1206 C 0.25793 0.4539 0.39621 0.0
C1207 C 0.32591 0.47866 0.38666 0.0
N1208 N 0.27731 0.4529 0.48583 0.0
N1209 N 0.30923 0.48327 0.41829 0.0
H1210 H 0.51444 0.81233 0.60368 0.0
H1211 H 0.51804 0.69859 0.75989 0.0
H1212 H 0.41296 0.76197 0.59858 0.0
H1213 H 0.42011 0.75395 0.77388 0.0
H1214 H 0.52308 0.72381 0.69936 0.0
H1215 H 0.52285 0.78826 0.66428 0.0
C1216 C 0.49472 0.79481 0.61473 0.0
C1217 C 0.46374 0.78751 0.59564 0.0
C1218 C 0.5011 0.73114 0.7162 0.0
C1219 C 0.47209 0.76227 0.66508 0.0
C1220 C 0.49845 0.71727 0.75071 0.0
C1221 C 0.46932 0.72546 0.77215 0.0
C1222 C 0.47354 0.75188 0.70285 0.0
C1223 C 0.44356 0.74816 0.75851 0.0
C1224 C 0.4993 0.78167 0.64932 0.0
C1225 C 0.43786 0.76673 0.6119 0.0
N1226 N 0.44588 0.76006 0.72436 0.0
N1227 N 0.44237 0.7552 0.64599 0.0
H1228 H 0.78724 0.59558 0.33077 0.0
H1229 H 0.76962 0.60322 0.52723 0.0
H1230 H 0.69978 0.53499 0.37079 0.0
H1231 H 0.86189 0.54603 0.49415 0.0
H1232 H 0.74195 0.58984 0.46921 0.0
H1233 H 0.81679 0.58869 0.3891 0.0
C1234 C 0.77502 0.57966 0.35135 0.0
C1235 C 0.74182 0.56455 0.34574 0.0
C1236 C 0.76788 0.57949 0.47523 0.0
C1237 C 0.77383 0.559 0.41251 0.0
C1238 C 0.78342 0.58678 0.50825 0.0
C1239 C 0.81728 0.5742 0.51587 0.0
C1240 C 0.78727 0.56139 0.44922 0.0
C1241 C 0.83518 0.55501 0.48954 0.0
C1242 C 0.7916 0.57605 0.38454 0.0
C1243 C 0.72591 0.54603 0.37393 0.0
N1244 N 0.82021 0.54965 0.45701 0.0
N1245 N 0.74173 0.54436 0.40645 0.0
H1246 H 0.53068 0.2004 0.62002 0.0
H1247 H 0.61764 0.29391 0.77624 0.0
H1248 H 0.62481 0.25965 0.59707 0.0
H1249 H 0.52352 0.34756 0.74162 0.0
H1250 H 0.6164 0.25902 0.721 0.0
H1251 H 0.52305 0.23468 0.67546 0.0
C1252 C 0.54909 0.22127 0.6263 0.0
C1253 C 0.57768 0.22838 0.60377 0.0
C1254 C 0.59566 0.27792 0.72609 0.0
C1255 C 0.57004 0.26582 0.66671 0.0
C1256 C 0.59619 0.29746 0.75743 0.0
C1257 C 0.56998 0.32255 0.76359 0.0
C1258 C 0.56883 0.28374 0.70107 0.0
C1259 C 0.54352 0.32761 0.73791 0.0
C1260 C 0.54485 0.24046 0.65773 0.0
C1261 C 0.60187 0.25444 0.61343 0.0
N1262 N 0.54343 0.30811 0.70754 0.0
N1263 N 0.59769 0.27215 0.64452 0.0
H1264 H 0.10797 0.88557 0.99425 0.0
H1265 H 0.28421 0.98021 1.00654 0.0
H1266 H 0.19625 0.85972 0.92599 0.0
H1267 H 0.18805 0.02722 1.04492 0.0
H1268 H 0.24991 0.94347 0.96639 0.0
H1269 H 0.13163 0.94384 1.00152 0.0
C1270 C 0.13195 0.89182 0.98015 0.0
C1271 C 0.15115 0.86635 0.96109 0.0
C1272 C 0.23619 0.96224 0.98305 0.0
C1273 C 0.17847 0.93391 0.96981 0.0
C1274 C 0.2558 0.983 1.00621 0.0
C1275 C 0.23876 1.0059 1.02976 0.0
C1276 C 0.19922 0.96335 0.98458 0.0
C1277 C 0.20205 1.00924 1.02764 0.0
C1278 C 0.14541 0.92565 0.98426 0.0
C1279 C 0.18128 0.87765 0.94245 0.0
N1280 N 0.18332 0.98738 1.00615 0.0
N1281 N 0.1946 0.91022 0.94817 0.0
H1282 H 0.99036 0.76269 0.12524 0.0
H1283 H 0.86175 0.8585 0.19897 0.0
H1284 H 0.02855 0.85679 0.0738 0.0
H1285 H 0.87991 0.92397 0.10638 0.0
H1286 H 0.92256 0.83787 0.19532 0.0
H1287 H 0.95 0.79789 0.16025 0.0
C1288 C 0.99077 0.791 0.12201 0.0
C1289 C 1.01204 0.80688 0.09605 0.0
C1290 C 0.91332 0.857 0.17602 0.0
C1291 C 0.96581 0.84767 0.13603 0.0
C1292 C 0.87869 0.86899 0.17824 0.0
C1293 C 0.86538 0.89223 0.15237 0.0
C1294 C 0.93435 0.86766 0.14711 0.0
C1295 C 0.88875 0.90576 0.12673 0.0
C1296 C 0.96795 0.81129 0.14239 0.0
C1297 C 1.01208 0.8436 0.09326 0.0
N1298 N 0.92189 0.89263 0.12427 0.0
N1299 N 0.98841 0.86275 0.11223 0.0
H1300 H 0.76196 0.05595 0.99496 0.0
H1301 H 0.93901 0.15004 0.99878 0.0
H1302 H 0.85356 1.00988 1.04469 0.0
H1303 H 0.85744 0.17564 0.92245 0.0
H1304 H 0.91498 0.09113 1.00392 0.0
H1305 H 0.8003 0.09125 0.95703 0.0
C1306 C 0.79024 0.05292 0.99744 0.0
C1307 C 0.80475 0.0309 1.02361 0.0
C1308 C 0.90297 0.10921 0.98512 0.0
C1309 C 0.84884 0.07184 0.98109 0.0
C1310 C 0.91691 0.14303 0.98195 0.0
C1311 C 0.89953 0.16832 0.96094 0.0
C1312 C 0.87113 0.10104 0.96781 0.0
C1313 C 0.87097 0.15731 0.93988 0.0
C1314 C 0.8122 0.07292 0.97564 0.0
C1315 C 0.84146 0.02718 1.02522 0.0
N1316 N 0.85702 0.1248 0.94462 0.0
N1317 N 0.86236 0.04832 1.00499 0.0
H1318 H 1.01172 0.17723 0.07814 0.0
H1319 H 0.17454 0.17785 0.20816 0.0
H1320 H 0.0643 0.26767 0.12265 0.0
H1321 H 0.15465 0.10068 0.12597 0.0
H1322 H 0.11373 0.19776 0.20249 0.0
H1323 H 0.04418 0.13947 0.12012 0.0
C1324 C 0.02927 0.18919 0.09746 0.0
C1325 C 0.03642 0.22534 0.0963 0.0
C1326 C 0.12246 0.17554 0.18675 0.0
C1327 C 0.07249 0.18279 0.14451 0.0
C1328 C 0.15722 0.16422 0.18979 0.0
C1329 C 0.17044 0.13875 0.16624 0.0
C1330 C 0.10102 0.16137 0.15989 0.0
C1331 C 0.14632 0.12117 0.144 0.0
C1332 C 0.04753 0.16771 0.12145 0.0
C1333 C 0.05889 0.23974 0.12208 0.0
N1334 N 0.11296 0.13357 0.1406 0.0
N1335 N 0.07654 0.21834 0.14486 0.0
H1336 H 0.28605 0.55809 0.3859 0.0
H1337 H 0.11598 0.67128 0.37069 0.0
H1338 H 0.19388 0.52745 0.32601 0.0
H1339 H 0.20582 0.69837 0.43616 0.0
H1340 H 0.136 0.61079 0.36955 0.0
H1341 H 0.25005 0.59958 0.41955 0.0
C1342 C 0.2581 0.55984 0.38019 0.0
C1343 C 0.24304 0.54041 0.35233 0.0
C1344 C 0.15087 0.62974 0.38499 0.0
C1345 C 0.20208 0.58843 0.38987 0.0
C1346 C 0.13927 0.66451 0.38591 0.0
C1347 C 0.15971 0.69039 0.4029 0.0
C1348 C 0.18341 0.62094 0.40055 0.0
C1349 C 0.18974 0.67954 0.42188 0.0
C1350 C 0.23755 0.58345 0.39944 0.0
C1351 C 0.20659 0.54267 0.34677 0.0
N1352 N 0.20113 0.64583 0.4195 0.0
N1353 N 0.18747 0.5671 0.36467 0.0
H1354 H 0.66293 0.93372 0.76406 0.0
H1355 H 0.56631 0.75875 0.75619 0.0
H1356 H 0.67935 0.86166 0.67628 0.0
H1357 H 0.51793 0.84873 0.80597 0.0
H1358 H 0.6035 0.79806 0.72126 0.0
H1359 H 0.60592 0.90746 0.77433 0.0
C1360 C 0.65462 0.91308 0.74619 0.0
C1361 C 0.67708 0.89929 0.7198 0.0
C1362 C 0.5842 0.80934 0.73918 0.0
C1363 C 0.61136 0.86856 0.73237 0.0
C1364 C 0.56311 0.78687 0.75925 0.0
C1365 C 0.53957 0.80062 0.78435 0.0
C1366 C 0.58262 0.8457 0.7453 0.0
C1367 C 0.53613 0.83719 0.78708 0.0
C1368 C 0.62166 0.89803 0.75223 0.0
C1369 C 0.66371 0.87252 0.69774 0.0
N1370 N 0.55821 0.85858 0.76849 0.0
N1371 N 0.63217 0.8574 0.70513 0.0
H1372 H 0.75309 0.46534 0.35725 0.0
H1373 H 0.93205 0.37894 0.40738 0.0
H1374 H 0.85402 0.51077 0.33102 0.0
H1375 H 0.82999 0.34024 0.44039 0.0
H1376 H 0.90572 0.43605 0.39546 0.0
H1377 H 0.78142 0.42899 0.4023 0.0
C1378 C 0.78126 0.46785 0.36126 0.0
C1379 C 0.80156 0.4899 0.33949 0.0
C1380 C 0.88925 0.41521 0.40598 0.0
C1381 C 0.83424 0.44849 0.39112 0.0
C1382 C 0.90419 0.3823 0.41235 0.0
C1383 C 0.88269 0.35384 0.42242 0.0
C1384 C 0.85269 0.41949 0.40962 0.0
C1385 C 0.84741 0.36085 0.43109 0.0
C1386 C 0.79741 0.44741 0.38735 0.0
C1387 C 0.83766 0.49323 0.34666 0.0
N1388 N 0.83329 0.3927 0.42353 0.0
N1389 N 0.85309 0.47199 0.37134 0.0
H1390 H 0.47246 0.28913 0.74506 0.0
H1391 H 0.38627 0.10689 0.74778 0.0
H1392 H 0.52621 0.19698 0.78443 0.0
H1393 H 0.3455 0.1948 0.68758 0.0
H1394 H 0.44466 0.1335 0.74606 0.0
H1395 H 0.43428 0.25175 0.70928 0.0
C1396 C 0.47651 0.26094 0.74571 0.0
C1397 C 0.50167 0.24594 0.76848 0.0
C1398 C 0.42324 0.14644 0.73212 0.0
C1399 C 0.45736 0.2028 0.72855 0.0
C1400 C 0.38982 0.13105 0.73285 0.0
C1401 C 0.36081 0.14923 0.71867 0.0
C1402 C 0.42728 0.18036 0.71766 0.0
C1403 C 0.36707 0.18045 0.69974 0.0
C1404 C 0.4548 0.23953 0.72514 0.0
C1405 C 0.50653 0.20943 0.76768 0.0
N1406 N 0.39944 0.19552 0.70059 0.0
N1407 N 0.48378 0.18893 0.74888 0.0
H1408 H 0.61691 0.38027 0.49502 0.0
H1409 H 0.79331 0.47355 0.50073 0.0
H1410 H 0.70337 0.351 0.42617 0.0
H1411 H 0.69788 0.52246 0.53857 0.0
H1412 H 0.75817 0.43592 0.46211 0.0
H1413 H 0.64021 0.43933 0.49793 0.0
C1414 C 0.64006 0.3863 0.47935 0.0
C1415 C 0.659 0.35995 0.46145 0.0
C1416 C 0.74484 0.45551 0.47804 0.0
C1417 C 0.68652 0.42767 0.46595 0.0
C1418 C 0.76492 0.47665 0.5005 0.0
C1419 C 0.74828 0.50003 0.52383 0.0
C1420 C 0.70788 0.45726 0.4796 0.0
C1421 C 0.7116 0.50397 0.52163 0.0
C1422 C 0.65355 0.42032 0.48124 0.0
C1423 C 0.68867 0.37009 0.44152 0.0
N1424 N 0.69247 0.48206 0.5006 0.0
N1425 N 0.70221 0.40287 0.44524 0.0
H1426 H 0.36742 0.36091 0.70068 0.0
H1427 H 0.53502 0.35681 0.57332 0.0
H1428 H 0.38096 0.43121 0.61075 0.0
H1429 H 0.48317 0.26587 0.61799 0.0
H1430 H 0.49425 0.39476 0.60682 0.0
H1431 H 0.42663 0.3382 0.69047 0.0
C1432 C 0.38301 0.37229 0.67937 0.0
C1433 C 0.36852 0.39739 0.65597 0.0
C1434 C 0.49271 0.3665 0.61002 0.0
C1435 C 0.43645 0.37171 0.64464 0.0
C1436 C 0.51585 0.34491 0.59105 0.0
C1437 C 0.51198 0.30828 0.59267 0.0
C1438 C 0.46643 0.35109 0.63126 0.0
C1439 C 0.48674 0.29403 0.6158 0.0
C1440 C 0.41685 0.35936 0.67374 0.0
C1441 C 0.39051 0.41168 0.62939 0.0
N1442 N 0.46477 0.31547 0.63407 0.0
N1443 N 0.42319 0.3981 0.624 0.0
H1444 H 0.34356 0.51204 0.54249 0.0
H1445 H 0.33201 0.68373 0.4253 0.0
H1446 H 0.24792 0.56516 0.51103 0.0
H1447 H 0.42808 0.64386 0.4729 0.0
H1448 H 0.30438 0.62741 0.43618 0.0
H1449 H 0.3762 0.54724 0.49875 0.0
C1450 C 0.32938 0.53073 0.526 0.0
C1451 C 0.29334 0.53687 0.5313 0.0
C1452 C 0.33167 0.63087 0.44379 0.0
C1453 C 0.3302 0.57665 0.48126 0.0
C1454 C 0.34765 0.66321 0.43765 0.0
C1455 C 0.38184 0.66986 0.45051 0.0
C1456 C 0.34984 0.605 0.46311 0.0
C1457 C 0.40089 0.64134 0.4648 0.0
C1458 C 0.34795 0.55065 0.50098 0.0
C1459 C 0.27598 0.56064 0.50871 0.0
N1460 N 0.38428 0.61044 0.47166 0.0
N1461 N 0.2947 0.5801 0.48504 0.0
H1462 H 0.50415 0.66254 0.56559 0.0
H1463 H 0.66761 0.66494 0.69659 0.0
H1464 H 0.55728 0.75272 0.60994 0.0
H1465 H 0.65707 0.59296 0.60818 0.0
H1466 H 0.60569 0.68087 0.68952 0.0
H1467 H 0.54051 0.62421 0.60406 0.0
C1468 C 0.52243 0.67428 0.58434 0.0
C1469 C 0.52812 0.71071 0.58446 0.0
C1470 C 0.61668 0.66051 0.67268 0.0
C1471 C 0.56824 0.66764 0.62889 0.0
C1472 C 0.65202 0.65151 0.67655 0.0
C1473 C 0.66794 0.62867 0.65204 0.0
C1474 C 0.59745 0.64691 0.64383 0.0
C1475 C 0.64623 0.61131 0.62724 0.0
C1476 C 0.54293 0.6525 0.60626 0.0
C1477 C 0.55213 0.72477 0.60898 0.0
N1478 N 0.61222 0.62163 0.62301 0.0
N1479 N 0.57141 0.70321 0.63007 0.0
H1480 H 0.78655 0.05947 0.87812 0.0
H1481 H 0.61402 0.1691 0.86 0.0
H1482 H 0.694 0.0243 0.82149 0.0
H1483 H 0.70504 0.20136 0.92115 0.0
H1484 H 0.63529 0.1089 0.86163 0.0
H1485 H 0.75064 0.10245 0.90965 0.0
C1486 C 0.75849 0.06044 0.87279 0.0
C1487 C 0.74334 0.03931 0.84627 0.0
C1488 C 0.65017 0.12896 0.87553 0.0
C1489 C 0.70225 0.08884 0.88162 0.0
C1490 C 0.63786 0.16351 0.87485 0.0
C1491 C 0.65821 0.19063 0.8898 0.0
C1492 C 0.68325 0.12162 0.89071 0.0
C1493 C 0.68898 0.18144 0.90843 0.0
C1494 C 0.73794 0.08491 0.89088 0.0
C1495 C 0.70679 0.04077 0.84117 0.0
N1496 N 0.70097 0.14786 0.90768 0.0
N1497 N 0.68758 0.0659 0.85796 0.0
H1498 H 0.16123 0.43564 0.27498 0.0
H1499 H 0.05579 0.27006 0.25958 0.0
H1500 H 0.17201 0.36926 0.18196 0.0
H1501 H 1.0077 0.36063 0.3085 0.0
H1502 H 0.09421 0.30856 0.22564 0.0
H1503 H 0.1017 0.41404 0.28287 0.0
C1504 C 0.15103 0.41744 0.25541 0.0
C1505 C 0.17241 0.40364 0.22813 0.0
C1506 C 0.07464 0.32024 0.24298 0.0
C1507 C 0.10408 0.3782 0.23794 0.0
C1508 C 0.05265 0.29821 0.2624 0.0
C1509 C 0.02863 0.31225 0.28685 0.0
C1510 C 0.07391 0.35652 0.24947 0.0
C1511 C 0.02602 0.34888 0.28987 0.0
C1512 C 0.11674 0.40507 0.26007 0.0
C1513 C 0.15704 0.37988 0.20403 0.0
N1514 N 0.04928 0.36987 0.2722 0.0
N1515 N 0.12416 0.36722 0.21004 0.0
H1516 H 0.26478 0.96686 0.87438 0.0
H1517 H 0.43933 0.87535 0.87596 0.0
H1518 H 0.3574 1.01713 0.83138 0.0
H1519 H 0.36019 0.85274 0.95581 0.0
H1520 H 0.41629 0.93429 0.87048 0.0
H1521 H 0.30205 0.93294 0.91475 0.0
C1522 C 0.29302 0.97107 0.87388 0.0
C1523 C 0.30829 0.99375 0.84882 0.0
C1524 C 0.40463 0.91684 0.89008 0.0
C1525 C 0.35116 0.95459 0.89416 0.0
C1526 C 0.41793 0.88284 0.89338 0.0
C1527 C 0.40078 0.85823 0.9154 0.0
C1528 C 0.37353 0.92587 0.90812 0.0
C1529 C 0.37334 0.87031 0.93734 0.0
C1530 C 0.31433 0.95196 0.89714 0.0
C1531 C 0.3448 0.99915 0.84986 0.0
N1532 N 0.35978 0.90292 0.9323 0.0
N1533 N 0.36522 0.9788 0.87139 0.0
H1534 H 0.88105 0.66657 0.16886 0.0
H1535 H 0.03842 0.69183 0.30603 0.0
H1536 H 0.8966 0.60226 0.26276 0.0
H1537 H 0.98857 0.77405 0.24462 0.0
H1538 H 1.00425 0.64801 0.27255 0.0
H1539 H 0.93899 0.69282 0.1784 0.0
C1540 C 0.89714 0.65706 0.19078 0.0
C1541 C 0.88354 0.63292 0.21563 0.0
C1542 C 1.00162 0.6756 0.26581 0.0
C1543 C 0.94956 0.663 0.2267 0.0
C1544 C 1.02102 0.70054 0.2848 0.0
C1545 C 1.01544 0.73647 0.27853 0.0
C1546 C 0.97717 0.68687 0.24007 0.0
C1547 C 0.99287 0.74655 0.25075 0.0
C1548 C 0.93015 0.67211 0.19619 0.0
C1549 C 0.90578 0.62106 0.24313 0.0
N1550 N 0.97422 0.72184 0.23274 0.0
N1551 N 0.93746 0.63692 0.24849 0.0
loop_
_geom_bond_atom_site_label_1
_geom_bond_atom_site_label_2
_geom_bond_distance
_geom_bond_site_symmetry_2
_ccdc_geom_bond_type
Zn0 N4 2.020 . S
Zn0 O8 2.019 . S
Zn0 N10 2.119 . S
Zn0 O18 1.975 . S
C1 N2 1.334 . S
C1 N5 1.336 1_556 S
N2 C1 1.334 . S
N2 C3 1.334 1_556 S
C3 N2 1.334 1_554 S
C3 N4 1.336 . S
N4 Zn0 2.020 . S
N4 C3 1.336 . S
N4 N5 1.354 . S
N5 C1 1.336 1_554 S
N5 N4 1.354 . S
N5 Zn9 2.020 . S
C6 O7 1.244 . S
C6 O30 1.257 . S
O7 C6 1.244 . S
O8 Zn0 2.019 . S
O8 C28 1.257 . S
Zn9 N5 2.020 . S
Zn9 O16 1.975 . S
Zn9 N25 2.119 . S
Zn9 O30 2.019 . S
N10 Zn0 2.119 . S
N10 C12 1.334 . S
N10 C13 1.328 . S
C11 C12 1.391 . S
C11 N14 1.329 . S
C11 H32 0.930 1_545 S
C12 N10 1.334 . S
C12 C11 1.391 . S
C12 H19 0.930 . S
C13 N10 1.328 . S
C13 C15 1.392 . S
C13 H20 0.930 . S
N14 C11 1.329 . S
N14 C15 1.331 . S
C15 C13 1.392 . S
C15 N14 1.331 . S
O16 Zn9 1.975 . S
O16 C17 1.252 . S
C17 O16 1.252 . S
C17 O18 1.252 . S
O18 Zn0 1.975 . S
O18 C17 1.252 . S
H19 C12 0.930 . S
H20 C13 0.930 . S
C21 C22 1.392 . S
C21 N25 1.328 . S
C21 H27 0.930 . S
C22 C21 1.392 . S
C22 N26 1.331 . S
C23 C24 1.391 . S
C23 N26 1.329 . S
C23 H33 0.930 . S
C24 C23 1.391 . S
C24 N25 1.334 . S
C24 H31 0.930 . S
N25 Zn9 2.119 . S
N25 C21 1.328 . S
N25 C24 1.334 . S
N26 C22 1.331 . S
N26 C23 1.329 . S
H27 C21 0.930 . S
C28 O8 1.257 . S
C28 O29 1.244 . S
O29 C28 1.244 . S
O30 C6 1.257 . S
O30 Zn9 2.019 . S
H31 C24 0.930 . S
H32 C11 0.930 1_565 S
H33 C23 0.930 . S
Zn34 N38 2.020 . S
Zn34 O42 2.019 . S
Zn34 N44 2.119 . S
Zn34 O52 1.975 . S
C35 N36 1.334 . S
C35 N39 1.336 1_554 S
N36 C35 1.334 . S
N36 C37 1.334 1_554 S
C37 N36 1.334 1_556 S
C37 N38 1.336 . S
N38 Zn34 2.020 . S
N38 C37 1.336 . S
N38 N39 1.354 . S
N39 C35 1.336 1_556 S
N39 N38 1.354 . S
N39 Zn43 2.020 . S
C40 O41 1.244 . S
C40 O64 1.257 . S
O41 C40 1.244 . S
O42 Zn34 2.019 . S
O42 C62 1.257 . S
Zn43 N39 2.020 . S
Zn43 O50 1.975 . S
Zn43 N59 2.119 . S
Zn43 O64 2.019 . S
N44 Zn34 2.119 . S
N44 C46 1.334 . S
N44 C47 1.328 . S
C45 C46 1.391 . S
C45 N48 1.329 . S
C45 H66 0.930 1_455 S
C46 N44 1.334 . S
C46 C45 1.391 . S
C46 H53 0.930 . S
C47 N44 1.328 . S
C47 C49 1.392 . S
C47 H54 0.930 . S
N48 C45 1.329 . S
N48 C49 1.331 . S
C49 C47 1.392 . S
C49 N48 1.331 . S
O50 Zn43 1.975 . S
O50 C51 1.252 . S
C51 O50 1.252 . S
C51 O52 1.252 . S
O52 Zn34 1.975 . S
O52 C51 1.252 . S
H53 C46 0.930 . S
H54 C47 0.930 . S
C55 C56 1.392 . S
C55 N59 1.328 . S
C55 H61 0.930 . S
C56 C55 1.392 . S
C56 N60 1.331 . S
C57 C58 1.391 . S
C57 N60 1.329 . S
C57 H67 0.930 . S
C58 C57 1.391 . S
C58 N59 1.334 . S
C58 H65 0.930 . S
N59 Zn43 2.119 . S
N59 C55 1.328 . S
N59 C58 1.334 . S
N60 C56 1.331 . S
N60 C57 1.329 . S
H61 C55 0.930 . S
C62 O42 1.257 . S
C62 O63 1.244 . S
O63 C62 1.244 . S
O64 C40 1.257 . S
O64 Zn43 2.019 . S
H65 C58 0.930 . S
H66 C45 0.930 1_655 S
H67 C57 0.930 . S
Zn68 N72 2.020 . S
Zn68 O76 2.019 . S
Zn68 N78 2.119 . S
Zn68 O86 1.975 . S
C69 N70 1.334 1_554 S
C69 N73 1.336 . S
N70 C69 1.334 1_556 S
N70 C71 1.334 . S
C71 N70 1.334 . S
C71 N72 1.336 1_556 S
N72 Zn68 2.020 . S
N72 C71 1.336 1_554 S
N72 N73 1.354 . S
N73 C69 1.336 . S
N73 N72 1.354 . S
N73 Zn77 2.020 . S
C74 O75 1.244 . S
C74 O98 1.257 . S
O75 C74 1.244 . S
O76 Zn68 2.019 . S
O76 C96 1.257 . S
Zn77 N73 2.020 . S
Zn77 O84 1.975 . S
Zn77 N93 2.119 . S
Zn77 O98 2.019 . S
N78 Zn68 2.119 . S
N78 C80 1.334 . S
N78 C81 1.328 . S
C79 C80 1.391 . S
C79 N82 1.329 . S
C79 H100 0.930 . S
C80 N78 1.334 . S
C80 C79 1.391 . S
C80 H87 0.930 . S
C81 N78 1.328 . S
C81 C83 1.392 . S
C81 H88 0.930 . S
N82 C79 1.329 . S
N82 C83 1.331 . S
C83 C81 1.392 . S
C83 N82 1.331 . S
O84 Zn77 1.975 . S
O84 C85 1.252 . S
C85 O84 1.252 . S
C85 O86 1.252 . S
O86 Zn68 1.975 . S
O86 C85 1.252 . S
H87 C80 0.930 . S
H88 C81 0.930 . S
C89 C90 1.392 . S
C89 N93 1.328 . S
C89 H95 0.930 . S
C90 C89 1.392 . S
C90 N94 1.331 . S
C91 C92 1.391 . S
C91 N94 1.329 . S
C91 H101 0.930 1_565 S
C92 C91 1.391 . S
C92 N93 1.334 . S
C92 H99 0.930 . S
N93 Zn77 2.119 . S
N93 C89 1.328 . S
N93 C92 1.334 . S
N94 C90 1.331 . S
N94 C91 1.329 . S
H95 C89 0.930 . S
C96 O76 1.257 . S
C96 O97 1.244 . S
O97 C96 1.244 . S
O98 C74 1.257 . S
O98 Zn77 2.019 . S
H99 C92 0.930 . S
H100 C79 0.930 . S
H101 C91 0.930 1_545 S
Zn102 N106 2.020 . S
Zn102 O110 2.019 . S
Zn102 N112 2.119 . S
Zn102 O120 1.975 . S
C103 N104 1.334 . S
C103 N107 1.336 1_554 S
N104 C103 1.334 . S
N104 C105 1.334 1_554 S
C105 N104 1.334 1_556 S
C105 N106 1.336 . S
N106 Zn102 2.020 . S
N106 C105 1.336 . S
N106 N107 1.354 . S
N107 C103 1.336 1_556 S
N107 N106 1.354 . S
N107 Zn111 2.020 . S
C108 O109 1.244 . S
C108 O132 1.257 . S
O109 C108 1.244 . S
O110 Zn102 2.019 . S
O110 C130 1.257 . S
Zn111 N107 2.020 . S
Zn111 O118 1.975 . S
Zn111 N127 2.119 . S
Zn111 O132 2.019 . S
N112 Zn102 2.119 . S
N112 C114 1.334 . S
N112 C115 1.328 . S
C113 C114 1.391 . S
C113 N116 1.329 . S
C113 H134 0.930 1_655 S
C114 N112 1.334 . S
C114 C113 1.391 . S
C114 H121 0.930 . S
C115 N112 1.328 . S
C115 C117 1.392 . S
C115 H122 0.930 . S
N116 C113 1.329 . S
N116 C117 1.331 . S
C117 C115 1.392 . S
C117 N116 1.331 . S
O118 Zn111 1.975 . S
O118 C119 1.252 . S
C119 O118 1.252 . S
C119 O120 1.252 . S
O120 Zn102 1.975 . S
O120 C119 1.252 . S
H121 C114 0.930 . S
H122 C115 0.930 . S
C123 C124 1.392 . S
C123 N127 1.328 . S
C123 H129 0.930 . S
C124 C123 1.392 . S
C124 N128 1.331 . S
C125 C126 1.391 . S
C125 N128 1.329 . S
C125 H135 0.930 . S
C126 C125 1.391 . S
C126 N127 1.334 . S
C126 H133 0.930 . S
N127 Zn111 2.119 . S
N127 C123 1.328 . S
N127 C126 1.334 . S
N128 C124 1.331 . S
N128 C125 1.329 . S
H129 C123 0.930 . S
C130 O110 1.257 . S
C130 O131 1.244 . S
O131 C130 1.244 . S
O132 C108 1.257 . S
O132 Zn111 2.019 . S
H133 C126 0.930 . S
H134 C113 0.930 1_455 S
H135 C125 0.930 . S
Zn136 N140 2.020 . S
Zn136 O144 2.019 . S
Zn136 N146 2.119 . S
Zn136 O154 1.975 . S
C137 N138 1.334 . S
C137 N141 1.336 . S
N138 C137 1.334 . S
N138 C139 1.334 . S
C139 N138 1.334 . S
C139 N140 1.336 . S
N140 Zn136 2.020 . S
N140 C139 1.336 . S
N140 N141 1.354 . S
N141 C137 1.336 . S
N141 N140 1.354 . S
N141 Zn145 2.020 . S
C142 O143 1.244 . S
C142 O166 1.257 . S
O143 C142 1.244 . S
O144 Zn136 2.019 . S
O144 C164 1.257 . S
Zn145 N141 2.020 . S
Zn145 O152 1.975 . S
Zn145 N161 2.119 . S
Zn145 O166 2.019 . S
N146 Zn136 2.119 . S
N146 C148 1.334 . S
N146 C149 1.328 . S
C147 C148 1.391 . S
C147 N150 1.329 . S
C147 H168 0.930 . S
C148 N146 1.334 . S
C148 C147 1.391 . S
C148 H155 0.930 . S
C149 N146 1.328 . S
C149 C151 1.392 . S
C149 H156 0.930 . S
N150 C147 1.329 . S
N150 C151 1.331 . S
C151 C149 1.392 . S
C151 N150 1.331 . S
O152 Zn145 1.975 . S
O152 C153 1.252 . S
C153 O152 1.252 . S
C153 O154 1.252 . S
O154 Zn136 1.975 . S
O154 C153 1.252 . S
H155 C148 0.930 . S
H156 C149 0.930 . S
C157 C158 1.392 . S
C157 N161 1.328 . S
C157 H163 0.930 . S
C158 C157 1.392 . S
C158 N162 1.331 . S
C159 C160 1.391 . S
C159 N162 1.329 . S
C159 H169 0.930 . S
C160 C159 1.391 . S
C160 N161 1.334 . S
C160 H167 0.930 . S
N161 Zn145 2.119 . S
N161 C157 1.328 . S
N161 C160 1.334 . S
N162 C158 1.331 . S
N162 C159 1.329 . S
H163 C157 0.930 . S
C164 O144 1.257 . S
C164 O165 1.244 . S
O165 C164 1.244 . S
O166 C142 1.257 . S
O166 Zn145 2.019 . S
H167 C160 0.930 . S
H168 C147 0.930 . S
H169 C159 0.930 . S
Zn170 N174 2.020 . S
Zn170 O178 2.019 . S
Zn170 N180 2.119 . S
Zn170 O188 1.975 . S
C171 N172 1.334 . S
C171 N175 1.336 . S
N172 C171 1.334 . S
N172 C173 1.334 . S
C173 N172 1.334 . S
C173 N174 1.336 . S
N174 Zn170 2.020 . S
N174 C173 1.336 . S
N174 N175 1.354 . S
N175 C171 1.336 . S
N175 N174 1.354 . S
N175 Zn179 2.020 . S
C176 O177 1.244 . S
C176 O200 1.257 . S
O177 C176 1.244 . S
O178 Zn170 2.019 . S
O178 C198 1.257 . S
Zn179 N175 2.020 . S
Zn179 O186 1.975 . S
Zn179 N195 2.119 . S
Zn179 O200 2.019 . S
N180 Zn170 2.119 . S
N180 C182 1.334 . S
N180 C183 1.328 . S
C181 C182 1.391 . S
C181 N184 1.329 . S
C181 H202 0.930 . S
C182 N180 1.334 . S
C182 C181 1.391 . S
C182 H189 0.930 . S
C183 N180 1.328 . S
C183 C185 1.392 . S
C183 H190 0.930 . S
N184 C181 1.329 . S
N184 C185 1.331 . S
C185 C183 1.392 . S
C185 N184 1.331 . S
O186 Zn179 1.975 . S
O186 C187 1.252 . S
C187 O186 1.252 . S
C187 O188 1.252 . S
O188 Zn170 1.975 . S
O188 C187 1.252 . S
H189 C182 0.930 . S
H190 C183 0.930 . S
C191 C192 1.392 . S
C191 N195 1.328 . S
C191 H197 0.930 . S
C192 C191 1.392 . S
C192 N196 1.331 . S
C193 C194 1.391 . S
C193 N196 1.329 . S
C193 H203 0.930 . S
C194 C193 1.391 . S
C194 N195 1.334 . S
C194 H201 0.930 . S
N195 Zn179 2.119 . S
N195 C191 1.328 . S
N195 C194 1.334 . S
N196 C192 1.331 . S
N196 C193 1.329 . S
H197 C191 0.930 . S
C198 O178 1.257 . S
C198 O199 1.244 . S
O199 C198 1.244 . S
O200 C176 1.257 . S
O200 Zn179 2.019 . S
H201 C194 0.930 . S
H202 C181 0.930 . S
H203 C193 0.930 . S
Zn204 N208 2.020 . S
Zn204 O212 2.019 . S
Zn204 N214 2.119 . S
Zn204 O222 1.975 . S
C205 N206 1.334 . S
C205 N209 1.336 . S
N206 C205 1.334 . S
N206 C207 1.334 . S
C207 N206 1.334 . S
C207 N208 1.336 . S
N208 Zn204 2.020 . S
N208 C207 1.336 . S
N208 N209 1.354 . S
N209 C205 1.336 . S
N209 N208 1.354 . S
N209 Zn213 2.020 . S
C210 O211 1.244 . S
C210 O234 1.257 . S
O211 C210 1.244 . S
O212 Zn204 2.019 . S
O212 C232 1.257 . S
Zn213 N209 2.020 . S
Zn213 O220 1.975 . S
Zn213 N229 2.119 . S
Zn213 O234 2.019 . S
N214 Zn204 2.119 . S
N214 C216 1.334 . S
N214 C217 1.328 . S
C215 C216 1.391 . S
C215 N218 1.329 . S
C215 H236 0.930 . S
C216 N214 1.334 . S
C216 C215 1.391 . S
C216 H223 0.930 . S
C217 N214 1.328 . S
C217 C219 1.392 . S
C217 H224 0.930 . S
N218 C215 1.329 . S
N218 C219 1.331 . S
C219 C217 1.392 . S
C219 N218 1.331 . S
O220 Zn213 1.975 . S
O220 C221 1.252 . S
C221 O220 1.252 . S
C221 O222 1.252 . S
O222 Zn204 1.975 . S
O222 C221 1.252 . S
H223 C216 0.930 . S
H224 C217 0.930 . S
C225 C226 1.392 . S
C225 N229 1.328 . S
C225 H231 0.930 . S
C226 C225 1.392 . S
C226 N230 1.331 . S
C227 C228 1.391 . S
C227 N230 1.329 . S
C227 H237 0.930 . S
C228 C227 1.391 . S
C228 N229 1.334 . S
C228 H235 0.930 . S
N229 Zn213 2.119 . S
N229 C225 1.328 . S
N229 C228 1.334 . S
N230 C226 1.331 . S
N230 C227 1.329 . S
H231 C225 0.930 . S
C232 O212 1.257 . S
C232 O233 1.244 . S
O233 C232 1.244 . S
O234 C210 1.257 . S
O234 Zn213 2.019 . S
H235 C228 0.930 . S
H236 C215 0.930 . S
H237 C227 0.930 . S
Zn238 N242 2.020 . S
Zn238 O246 2.019 . S
Zn238 N248 2.119 . S
Zn238 O256 1.975 . S
C239 N240 1.334 . S
C239 N243 1.336 . S
N240 C239 1.334 . S
N240 C241 1.334 . S
C241 N240 1.334 . S
C241 N242 1.336 . S
N242 Zn238 2.020 . S
N242 C241 1.336 . S
N242 N243 1.354 . S
N243 C239 1.336 . S
N243 N242 1.354 . S
N243 Zn247 2.020 . S
C244 O245 1.244 . S
C244 O268 1.257 . S
O245 C244 1.244 . S
O246 Zn238 2.019 . S
O246 C266 1.257 . S
Zn247 N243 2.020 . S
Zn247 O254 1.975 . S
Zn247 N263 2.119 . S
Zn247 O268 2.019 . S
N248 Zn238 2.119 . S
N248 C250 1.334 . S
N248 C251 1.328 . S
C249 C250 1.391 . S
C249 N252 1.329 . S
C249 H270 0.930 . S
C250 N248 1.334 . S
C250 C249 1.391 . S
C250 H257 0.930 . S
C251 N248 1.328 . S
C251 C253 1.392 . S
C251 H258 0.930 . S
N252 C249 1.329 . S
N252 C253 1.331 . S
C253 C251 1.392 . S
C253 N252 1.331 . S
O254 Zn247 1.975 . S
O254 C255 1.252 . S
C255 O254 1.252 . S
C255 O256 1.252 . S
O256 Zn238 1.975 . S
O256 C255 1.252 . S
H257 C250 0.930 . S
H258 C251 0.930 . S
C259 C260 1.392 . S
C259 N263 1.328 . S
C259 H265 0.930 . S
C260 C259 1.392 . S
C260 N264 1.331 . S
C261 C262 1.391 . S
C261 N264 1.329 . S
C261 H271 0.930 . S
C262 C261 1.391 . S
C262 N263 1.334 . S
C262 H269 0.930 . S
N263 Zn247 2.119 . S
N263 C259 1.328 . S
N263 C262 1.334 . S
N264 C260 1.331 . S
N264 C261 1.329 . S
H265 C259 0.930 . S
C266 O246 1.257 . S
C266 O267 1.244 . S
O267 C266 1.244 . S
O268 C244 1.257 . S
O268 Zn247 2.019 . S
H269 C262 0.930 . S
H270 C249 0.930 . S
H271 C261 0.930 . S
Zn272 N276 2.020 . S
Zn272 O280 2.019 . S
Zn272 N282 2.119 . S
Zn272 O290 1.975 . S
C273 N274 1.334 . S
C273 N277 1.336 . S
N274 C273 1.334 . S
N274 C275 1.334 . S
C275 N274 1.334 . S
C275 N276 1.336 . S
N276 Zn272 2.020 . S
N276 C275 1.336 . S
N276 N277 1.354 . S
N277 C273 1.336 . S
N277 N276 1.354 . S
N277 Zn281 2.020 . S
C278 O279 1.244 . S
C278 O302 1.257 . S
O279 C278 1.244 . S
O280 Zn272 2.019 . S
O280 C300 1.257 . S
Zn281 N277 2.020 . S
Zn281 O288 1.975 . S
Zn281 N297 2.119 . S
Zn281 O302 2.019 . S
N282 Zn272 2.119 . S
N282 C284 1.334 . S
N282 C285 1.328 . S
C283 C284 1.391 . S
C283 N286 1.329 . S
C283 H304 0.930 . S
C284 N282 1.334 . S
C284 C283 1.391 . S
C284 H291 0.930 . S
C285 N282 1.328 . S
C285 C287 1.392 . S
C285 H292 0.930 . S
N286 C283 1.329 . S
N286 C287 1.331 . S
C287 C285 1.392 . S
C287 N286 1.331 . S
O288 Zn281 1.975 . S
O288 C289 1.252 . S
C289 O288 1.252 . S
C289 O290 1.252 . S
O290 Zn272 1.975 . S
O290 C289 1.252 . S
H291 C284 0.930 . S
H292 C285 0.930 . S
C293 C294 1.392 . S
C293 N297 1.328 . S
C293 H299 0.930 . S
C294 C293 1.392 . S
C294 N298 1.331 . S
C295 C296 1.391 . S
C295 N298 1.329 . S
C295 H305 0.930 . S
C296 C295 1.391 . S
C296 N297 1.334 . S
C296 H303 0.930 . S
N297 Zn281 2.119 . S
N297 C293 1.328 . S
N297 C296 1.334 . S
N298 C294 1.331 . S
N298 C295 1.329 . S
H299 C293 0.930 . S
C300 O280 1.257 . S
C300 O301 1.244 . S
O301 C300 1.244 . S
O302 C278 1.257 . S
O302 Zn281 2.019 . S
H303 C296 0.930 . S
H304 C283 0.930 . S
H305 C295 0.930 . S
Zn306 N310 2.020 . S
Zn306 O314 2.019 . S
Zn306 N316 2.119 . S
Zn306 O324 1.975 . S
C307 N308 1.334 . S
C307 N311 1.336 . S
N308 C307 1.334 . S
N308 C309 1.334 . S
C309 N308 1.334 . S
C309 N310 1.336 . S
N310 Zn306 2.020 . S
N310 C309 1.336 . S
N310 N311 1.354 . S
N311 C307 1.336 . S
N311 N310 1.354 . S
N311 Zn315 2.020 . S
C312 O313 1.244 . S
C312 O336 1.257 . S
O313 C312 1.244 . S
O314 Zn306 2.019 . S
O314 C334 1.257 . S
Zn315 N311 2.020 . S
Zn315 O322 1.975 . S
Zn315 N331 2.119 . S
Zn315 O336 2.019 . S
N316 Zn306 2.119 . S
N316 C318 1.334 . S
N316 C319 1.328 . S
C317 C318 1.391 . S
C317 N320 1.329 . S
C317 H338 0.930 . S
C318 N316 1.334 . S
C318 C317 1.391 . S
C318 H325 0.930 . S
C319 N316 1.328 . S
C319 C321 1.392 . S
C319 H326 0.930 . S
N320 C317 1.329 . S
N320 C321 1.331 . S
C321 C319 1.392 . S
C321 N320 1.331 . S
O322 Zn315 1.975 . S
O322 C323 1.252 . S
C323 O322 1.252 . S
C323 O324 1.252 . S
O324 Zn306 1.975 . S
O324 C323 1.252 . S
H325 C318 0.930 . S
H326 C319 0.930 . S
C327 C328 1.392 . S
C327 N331 1.328 . S
C327 H333 0.930 . S
C328 C327 1.392 . S
C328 N332 1.331 . S
C329 C330 1.391 . S
C329 N332 1.329 . S
C329 H339 0.930 . S
C330 C329 1.391 . S
C330 N331 1.334 . S
C330 H337 0.930 . S
N331 Zn315 2.119 . S
N331 C327 1.328 . S
N331 C330 1.334 . S
N332 C328 1.331 . S
N332 C329 1.329 . S
H333 C327 0.930 . S
C334 O314 1.257 . S
C334 O335 1.244 . S
O335 C334 1.244 . S
O336 C312 1.257 . S
O336 Zn315 2.019 . S
H337 C330 0.930 . S
H338 C317 0.930 . S
H339 C329 0.930 . S
Zn340 N344 2.020 . S
Zn340 O348 2.019 . S
Zn340 N350 2.119 . S
Zn340 O358 1.975 . S
C341 N342 1.334 . S
C341 N345 1.336 . S
N342 C341 1.334 . S
N342 C343 1.334 . S
C343 N342 1.334 . S
C343 N344 1.336 . S
N344 Zn340 2.020 . S
N344 C343 1.336 . S
N344 N345 1.354 . S
N345 C341 1.336 . S
N345 N344 1.354 . S
N345 Zn349 2.020 . S
C346 O347 1.244 . S
C346 O370 1.257 . S
O347 C346 1.244 . S
O348 Zn340 2.019 . S
O348 C368 1.257 . S
Zn349 N345 2.020 . S
Zn349 O356 1.975 . S
Zn349 N365 2.119 . S
Zn349 O370 2.019 . S
N350 Zn340 2.119 . S
N350 C352 1.334 . S
N350 C353 1.328 . S
C351 C352 1.391 . S
C351 N354 1.329 . S
C351 H372 0.930 . S
C352 N350 1.334 . S
C352 C351 1.391 . S
C352 H359 0.930 . S
C353 N350 1.328 . S
C353 C355 1.392 . S
C353 H360 0.930 . S
N354 C351 1.329 . S
N354 C355 1.331 . S
C355 C353 1.392 . S
C355 N354 1.331 . S
O356 Zn349 1.975 . S
O356 C357 1.252 . S
C357 O356 1.252 . S
C357 O358 1.252 . S
O358 Zn340 1.975 . S
O358 C357 1.252 . S
H359 C352 0.930 . S
H360 C353 0.930 . S
C361 C362 1.392 . S
C361 N365 1.328 . S
C361 H367 0.930 . S
C362 C361 1.392 . S
C362 N366 1.331 . S
C363 C364 1.391 . S
C363 N366 1.329 . S
C363 H373 0.930 . S
C364 C363 1.391 . S
C364 N365 1.334 . S
C364 H371 0.930 . S
N365 Zn349 2.119 . S
N365 C361 1.328 . S
N365 C364 1.334 . S
N366 C362 1.331 . S
N366 C363 1.329 . S
H367 C361 0.930 . S
C368 O348 1.257 . S
C368 O369 1.244 . S
O369 C368 1.244 . S
O370 C346 1.257 . S
O370 Zn349 2.019 . S
H371 C364 0.930 . S
H372 C351 0.930 . S
H373 C363 0.930 . S
Zn374 N378 2.020 . S
Zn374 O382 2.019 . S
Zn374 N384 2.119 . S
Zn374 O392 1.975 . S
C375 N376 1.334 . S
C375 N379 1.336 . S
N376 C375 1.334 . S
N376 C377 1.334 . S
C377 N376 1.334 . S
C377 N378 1.336 . S
N378 Zn374 2.020 . S
N378 C377 1.336 . S
N378 N379 1.354 . S
N379 C375 1.336 . S
N379 N378 1.354 . S
N379 Zn383 2.020 . S
C380 O381 1.244 . S
C380 O404 1.257 . S
O381 C380 1.244 . S
O382 Zn374 2.019 . S
O382 C402 1.257 . S
Zn383 N379 2.020 . S
Zn383 O390 1.975 . S
Zn383 N399 2.119 . S
Zn383 O404 2.019 . S
N384 Zn374 2.119 . S
N384 C386 1.334 . S
N384 C387 1.328 . S
C385 C386 1.391 . S
C385 N388 1.329 . S
C385 H406 0.930 . S
C386 N384 1.334 . S
C386 C385 1.391 . S
C386 H393 0.930 . S
C387 N384 1.328 . S
C387 C389 1.392 . S
C387 H394 0.930 . S
N388 C385 1.329 . S
N388 C389 1.331 . S
C389 C387 1.392 . S
C389 N388 1.331 . S
O390 Zn383 1.975 . S
O390 C391 1.252 . S
C391 O390 1.252 . S
C391 O392 1.252 . S
O392 Zn374 1.975 . S
O392 C391 1.252 . S
H393 C386 0.930 . S
H394 C387 0.930 . S
C395 C396 1.392 . S
C395 N399 1.328 . S
C395 H401 0.930 . S
C396 C395 1.392 . S
C396 N400 1.331 . S
C397 C398 1.391 . S
C397 N400 1.329 . S
C397 H407 0.930 . S
C398 C397 1.391 . S
C398 N399 1.334 . S
C398 H405 0.930 . S
N399 Zn383 2.119 . S
N399 C395 1.328 . S
N399 C398 1.334 . S
N400 C396 1.331 . S
N400 C397 1.329 . S
H401 C395 0.930 . S
C402 O382 1.257 . S
C402 O403 1.244 . S
O403 C402 1.244 . S
O404 C380 1.257 . S
O404 Zn383 2.019 . S
H405 C398 0.930 . S
H406 C385 0.930 . S
H407 C397 0.930 . S
Zn408 N412 2.020 . S
Zn408 O416 2.019 . S
Zn408 N418 2.119 . S
Zn408 O426 1.975 . S
C409 N410 1.334 . S
C409 N413 1.336 . S
N410 C409 1.334 . S
N410 C411 1.334 . S
C411 N410 1.334 . S
C411 N412 1.336 . S
N412 Zn408 2.020 . S
N412 C411 1.336 . S
N412 N413 1.354 . S
N413 C409 1.336 . S
N413 N412 1.354 . S
N413 Zn417 2.020 . S
C414 O415 1.244 . S
C414 O438 1.257 . S
O415 C414 1.244 . S
O416 Zn408 2.019 . S
O416 C436 1.257 . S
Zn417 N413 2.020 . S
Zn417 O424 1.975 . S
Zn417 N433 2.119 . S
Zn417 O438 2.019 . S
N418 Zn408 2.119 . S
N418 C420 1.334 . S
N418 C421 1.328 . S
C419 C420 1.391 . S
C419 N422 1.329 . S
C419 H440 0.930 . S
C420 N418 1.334 . S
C420 C419 1.391 . S
C420 H427 0.930 . S
C421 N418 1.328 . S
C421 C423 1.392 . S
C421 H428 0.930 . S
N422 C419 1.329 . S
N422 C423 1.331 . S
C423 C421 1.392 . S
C423 N422 1.331 . S
O424 Zn417 1.975 . S
O424 C425 1.252 . S
C425 O424 1.252 . S
C425 O426 1.252 . S
O426 Zn408 1.975 . S
O426 C425 1.252 . S
H427 C420 0.930 . S
H428 C421 0.930 . S
C429 C430 1.392 . S
C429 N433 1.328 . S
C429 H435 0.930 . S
C430 C429 1.392 . S
C430 N434 1.331 . S
C431 C432 1.391 . S
C431 N434 1.329 . S
C431 H441 0.930 1_565 S
C432 C431 1.391 . S
C432 N433 1.334 . S
C432 H439 0.930 . S
N433 Zn417 2.119 . S
N433 C429 1.328 . S
N433 C432 1.334 . S
N434 C430 1.331 . S
N434 C431 1.329 . S
H435 C429 0.930 . S
C436 O416 1.257 . S
C436 O437 1.244 . S
O437 C436 1.244 . S
O438 C414 1.257 . S
O438 Zn417 2.019 . S
H439 C432 0.930 . S
H440 C419 0.930 . S
H441 C431 0.930 1_545 S
Zn442 N446 2.020 . S
Zn442 O450 2.019 . S
Zn442 N452 2.119 . S
Zn442 O460 1.975 . S
C443 N444 1.334 . S
C443 N447 1.336 . S
N444 C443 1.334 . S
N444 C445 1.334 . S
C445 N444 1.334 . S
C445 N446 1.336 . S
N446 Zn442 2.020 . S
N446 C445 1.336 . S
N446 N447 1.354 . S
N447 C443 1.336 . S
N447 N446 1.354 . S
N447 Zn451 2.020 . S
C448 O449 1.244 . S
C448 O472 1.257 . S
O449 C448 1.244 . S
O450 Zn442 2.019 . S
O450 C470 1.257 . S
Zn451 N447 2.020 . S
Zn451 O458 1.975 . S
Zn451 N467 2.119 . S
Zn451 O472 2.019 . S
N452 Zn442 2.119 . S
N452 C454 1.334 . S
N452 C455 1.328 . S
C453 C454 1.391 . S
C453 N456 1.329 . S
C453 H474 0.930 1_655 S
C454 N452 1.334 . S
C454 C453 1.391 . S
C454 H461 0.930 . S
C455 N452 1.328 . S
C455 C457 1.392 . S
C455 H462 0.930 . S
N456 C453 1.329 . S
N456 C457 1.331 . S
C457 C455 1.392 . S
C457 N456 1.331 . S
O458 Zn451 1.975 . S
O458 C459 1.252 . S
C459 O458 1.252 . S
C459 O460 1.252 . S
O460 Zn442 1.975 . S
O460 C459 1.252 . S
H461 C454 0.930 . S
H462 C455 0.930 . S
C463 C464 1.392 . S
C463 N467 1.328 . S
C463 H469 0.930 . S
C464 C463 1.392 . S
C464 N468 1.331 . S
C465 C466 1.391 . S
C465 N468 1.329 . S
C465 H475 0.930 . S
C466 C465 1.391 . S
C466 N467 1.334 . S
C466 H473 0.930 . S
N467 Zn451 2.119 . S
N467 C463 1.328 . S
N467 C466 1.334 . S
N468 C464 1.331 . S
N468 C465 1.329 . S
H469 C463 0.930 . S
C470 O450 1.257 . S
C470 O471 1.244 . S
O471 C470 1.244 . S
O472 C448 1.257 . S
O472 Zn451 2.019 . S
H473 C466 0.930 . S
H474 C453 0.930 1_455 S
H475 C465 0.930 . S
Zn476 N480 2.020 . S
Zn476 O484 2.019 . S
Zn476 N486 2.119 . S
Zn476 O494 1.975 . S
C477 N478 1.334 . S
C477 N481 1.336 . S
N478 C477 1.334 . S
N478 C479 1.334 . S
C479 N478 1.334 . S
C479 N480 1.336 . S
N480 Zn476 2.020 . S
N480 C479 1.336 . S
N480 N481 1.354 . S
N481 C477 1.336 . S
N481 N480 1.354 . S
N481 Zn485 2.020 . S
C482 O483 1.244 . S
C482 O506 1.257 . S
O483 C482 1.244 . S
O484 Zn476 2.019 . S
O484 C504 1.257 . S
Zn485 N481 2.020 . S
Zn485 O492 1.975 . S
Zn485 N501 2.119 . S
Zn485 O506 2.019 . S
N486 Zn476 2.119 . S
N486 C488 1.334 . S
N486 C489 1.328 . S
C487 C488 1.391 . S
C487 N490 1.329 . S
C487 H508 0.930 1_545 S
C488 N486 1.334 . S
C488 C487 1.391 . S
C488 H495 0.930 . S
C489 N486 1.328 . S
C489 C491 1.392 . S
C489 H496 0.930 . S
N490 C487 1.329 . S
N490 C491 1.331 . S
C491 C489 1.392 . S
C491 N490 1.331 . S
O492 Zn485 1.975 . S
O492 C493 1.252 . S
C493 O492 1.252 . S
C493 O494 1.252 . S
O494 Zn476 1.975 . S
O494 C493 1.252 . S
H495 C488 0.930 . S
H496 C489 0.930 . S
C497 C498 1.392 . S
C497 N501 1.328 . S
C497 H503 0.930 . S
C498 C497 1.392 . S
C498 N502 1.331 . S
C499 C500 1.391 . S
C499 N502 1.329 . S
C499 H509 0.930 . S
C500 C499 1.391 . S
C500 N501 1.334 . S
C500 H507 0.930 . S
N501 Zn485 2.119 . S
N501 C497 1.328 . S
N501 C500 1.334 . S
N502 C498 1.331 . S
N502 C499 1.329 . S
H503 C497 0.930 . S
C504 O484 1.257 . S
C504 O505 1.244 . S
O505 C504 1.244 . S
O506 C482 1.257 . S
O506 Zn485 2.019 . S
H507 C500 0.930 . S
H508 C487 0.930 1_565 S
H509 C499 0.930 . S
Zn510 N514 2.020 . S
Zn510 O518 2.019 . S
Zn510 N520 2.119 . S
Zn510 O528 1.975 . S
C511 N512 1.334 . S
C511 N515 1.336 . S
N512 C511 1.334 . S
N512 C513 1.334 . S
C513 N512 1.334 . S
C513 N514 1.336 . S
N514 Zn510 2.020 . S
N514 C513 1.336 . S
N514 N515 1.354 . S
N515 C511 1.336 . S
N515 N514 1.354 . S
N515 Zn519 2.020 . S
C516 O517 1.244 . S
C516 O540 1.257 . S
O517 C516 1.244 . S
O518 Zn510 2.019 . S
O518 C538 1.257 . S
Zn519 N515 2.020 . S
Zn519 O526 1.975 . S
Zn519 N535 2.119 . S
Zn519 O540 2.019 . S
N520 Zn510 2.119 . S
N520 C522 1.334 . S
N520 C523 1.328 . S
C521 C522 1.391 . S
C521 N524 1.329 . S
C521 H542 0.930 . S
C522 N520 1.334 . S
C522 C521 1.391 . S
C522 H529 0.930 . S
C523 N520 1.328 . S
C523 C525 1.392 . S
C523 H530 0.930 . S
N524 C521 1.329 . S
N524 C525 1.331 . S
C525 C523 1.392 . S
C525 N524 1.331 . S
O526 Zn519 1.975 . S
O526 C527 1.252 . S
C527 O526 1.252 . S
C527 O528 1.252 . S
O528 Zn510 1.975 . S
O528 C527 1.252 . S
H529 C522 0.930 . S
H530 C523 0.930 . S
C531 C532 1.392 . S
C531 N535 1.328 . S
C531 H537 0.930 . S
C532 C531 1.392 . S
C532 N536 1.331 . S
C533 C534 1.391 . S
C533 N536 1.329 . S
C533 H543 0.930 1_455 S
C534 C533 1.391 . S
C534 N535 1.334 . S
C534 H541 0.930 . S
N535 Zn519 2.119 . S
N535 C531 1.328 . S
N535 C534 1.334 . S
N536 C532 1.331 . S
N536 C533 1.329 . S
H537 C531 0.930 . S
C538 O518 1.257 . S
C538 O539 1.244 . S
O539 C538 1.244 . S
O540 C516 1.257 . S
O540 Zn519 2.019 . S
H541 C534 0.930 . S
H542 C521 0.930 . S
H543 C533 0.930 1_655 S
H544 C550 0.930 . S
H545 C554 0.930 . S
H546 C559 0.929 . S
H547 C557 0.929 . S
H548 C552 0.929 . S
H549 C558 0.929 . S
C550 H544 0.930 . S
C550 C551 1.367 . S
C550 C558 1.378 1_565 S
C551 C550 1.367 . S
C551 C559 1.433 . S
C552 H548 0.929 . S
C552 C554 1.378 1_565 S
C552 C556 1.350 1_565 S
C553 C556 1.463 1_565 S
C553 C558 1.350 1_565 S
C553 N561 1.427 . S
C554 H545 0.930 . S
C554 C552 1.378 1_545 S
C554 C555 1.367 . S
C555 C554 1.367 . S
C555 C557 1.433 . S
C556 C552 1.350 1_545 S
C556 C553 1.463 1_545 S
C556 N560 1.427 . S
C557 H547 0.929 . S
C557 C555 1.433 . S
C557 N560 1.384 . S
C558 H549 0.929 . S
C558 C550 1.378 1_545 S
C558 C553 1.350 1_545 S
C559 H546 0.929 . S
C559 C551 1.433 . S
C559 N561 1.384 . S
N560 C556 1.427 . S
N560 C557 1.384 . S
N561 C553 1.427 . S
N561 C559 1.384 . S
H562 C568 0.930 . S
H563 C572 0.930 . S
H564 C577 0.929 . S
H565 C575 0.929 . S
H566 C570 0.929 . S
H567 C576 0.929 . S
C568 H562 0.930 . S
C568 C569 1.367 . S
C568 C576 1.378 . S
C569 C568 1.367 . S
C569 C577 1.433 . S
C570 H566 0.929 . S
C570 C572 1.378 . S
C570 C574 1.350 . S
C571 C574 1.463 1_655 S
C571 C576 1.350 . S
C571 N579 1.427 . S
C572 H563 0.930 . S
C572 C570 1.378 . S
C572 C573 1.367 . S
C573 C572 1.367 . S
C573 C575 1.433 . S
C574 C570 1.350 . S
C574 C571 1.463 1_455 S
C574 N578 1.427 . S
C575 H565 0.929 . S
C575 C573 1.433 . S
C575 N578 1.384 . S
C576 H567 0.929 . S
C576 C568 1.378 . S
C576 C571 1.350 . S
C577 H564 0.929 . S
C577 C569 1.433 . S
C577 N579 1.384 . S
N578 C574 1.427 . S
N578 C575 1.384 . S
N579 C571 1.427 . S
N579 C577 1.384 . S
H580 C586 0.930 . S
H581 C590 0.930 . S
H582 C595 0.929 . S
H583 C593 0.929 . S
H584 C588 0.929 . S
H585 C594 0.929 . S
C586 H580 0.930 . S
C586 C587 1.367 . S
C586 C594 1.378 . S
C587 C586 1.367 . S
C587 C595 1.433 . S
C588 H584 0.929 . S
C588 C590 1.378 . S
C588 C592 1.350 . S
C589 C592 1.463 . S
C589 C594 1.350 . S
C589 N597 1.427 . S
C590 H581 0.930 . S
C590 C588 1.378 . S
C590 C591 1.367 . S
C591 C590 1.367 . S
C591 C593 1.433 . S
C592 C588 1.350 . S
C592 C589 1.463 . S
C592 N596 1.427 . S
C593 H583 0.929 . S
C593 C591 1.433 . S
C593 N596 1.384 . S
C594 H585 0.929 . S
C594 C586 1.378 . S
C594 C589 1.350 . S
C595 H582 0.929 . S
C595 C587 1.433 . S
C595 N597 1.384 . S
N596 C592 1.427 . S
N596 C593 1.384 . S
N597 C589 1.427 . S
N597 C595 1.384 . S
H598 C604 0.930 . S
H599 C608 0.930 . S
H600 C613 0.929 . S
H601 C611 0.929 . S
H602 C606 0.929 . S
H603 C612 0.929 . S
C604 H598 0.930 . S
C604 C605 1.367 . S
C604 C612 1.378 . S
C605 C604 1.367 . S
C605 C613 1.433 . S
C606 H602 0.929 . S
C606 C608 1.378 . S
C606 C610 1.350 . S
C607 C610 1.463 . S
C607 C612 1.350 . S
C607 N615 1.427 . S
C608 H599 0.930 . S
C608 C606 1.378 . S
C608 C609 1.367 . S
C609 C608 1.367 . S
C609 C611 1.433 . S
C610 C606 1.350 . S
C610 C607 1.463 . S
C610 N614 1.427 . S
C611 H601 0.929 . S
C611 C609 1.433 . S
C611 N614 1.384 . S
C612 H603 0.929 . S
C612 C604 1.378 . S
C612 C607 1.350 . S
C613 H600 0.929 . S
C613 C605 1.433 . S
C613 N615 1.384 . S
N614 C610 1.427 . S
N614 C611 1.384 . S
N615 C607 1.427 . S
N615 C613 1.384 . S
H616 C622 0.930 . S
H617 C626 0.930 . S
H618 C631 0.929 . S
H619 C629 0.929 . S
H620 C624 0.929 . S
H621 C630 0.929 . S
C622 H616 0.930 . S
C622 C623 1.367 . S
C622 C630 1.378 . S
C623 C622 1.367 . S
C623 C631 1.433 . S
C624 H620 0.929 . S
C624 C626 1.378 . S
C624 C628 1.350 . S
C625 C628 1.463 1_655 S
C625 C630 1.350 . S
C625 N633 1.427 . S
C626 H617 0.930 . S
C626 C624 1.378 . S
C626 C627 1.367 . S
C627 C626 1.367 . S
C627 C629 1.433 . S
C628 C624 1.350 . S
C628 C625 1.463 1_455 S
C628 N632 1.427 . S
C629 H619 0.929 . S
C629 C627 1.433 . S
C629 N632 1.384 . S
C630 H621 0.929 . S
C630 C622 1.378 . S
C630 C625 1.350 . S
C631 H618 0.929 . S
C631 C623 1.433 . S
C631 N633 1.384 . S
N632 C628 1.427 . S
N632 C629 1.384 . S
N633 C625 1.427 . S
N633 C631 1.384 . S
H634 C640 0.930 . S
H635 C644 0.930 . S
H636 C649 0.929 . S
H637 C647 0.929 . S
H638 C642 0.929 . S
H639 C648 0.929 . S
C640 H634 0.930 . S
C640 C641 1.367 . S
C640 C648 1.378 . S
C641 C640 1.367 . S
C641 C649 1.433 . S
C642 H638 0.929 . S
C642 C644 1.378 . S
C642 C646 1.350 . S
C643 C646 1.463 1_565 S
C643 C648 1.350 . S
C643 N651 1.427 . S
C644 H635 0.930 . S
C644 C642 1.378 . S
C644 C645 1.367 . S
C645 C644 1.367 . S
C645 C647 1.433 . S
C646 C642 1.350 . S
C646 C643 1.463 1_545 S
C646 N650 1.427 . S
C647 H637 0.929 . S
C647 C645 1.433 . S
C647 N650 1.384 . S
C648 H639 0.929 . S
C648 C640 1.378 . S
C648 C643 1.350 . S
C649 H636 0.929 . S
C649 C641 1.433 . S
C649 N651 1.384 . S
N650 C646 1.427 . S
N650 C647 1.384 . S
N651 C643 1.427 . S
N651 C649 1.384 . S
H652 C658 0.930 . S
H653 C662 0.930 . S
H654 C667 0.929 . S
H655 C665 0.929 . S
H656 C660 0.929 1_655 S
H657 C666 0.929 1_455 S
C658 H652 0.930 . S
C658 C659 1.367 . S
C658 C666 1.378 . S
C659 C658 1.367 . S
C659 C667 1.433 . S
C660 H656 0.929 1_455 S
C660 C662 1.378 . S
C660 C664 1.350 . S
C661 C664 1.463 1_665 S
C661 C666 1.350 . S
C661 N669 1.427 1_565 S
C662 H653 0.930 . S
C662 C660 1.378 . S
C662 C663 1.367 . S
C663 C662 1.367 . S
C663 C665 1.433 . S
C664 C660 1.350 . S
C664 C661 1.463 1_445 S
C664 N668 1.427 1_545 S
C665 H655 0.929 . S
C665 C663 1.433 . S
C665 N668 1.384 1_545 S
C666 H657 0.929 1_655 S
C666 C658 1.378 . S
C666 C661 1.350 . S
C667 H654 0.929 . S
C667 C659 1.433 . S
C667 N669 1.384 1_565 S
N668 C664 1.427 1_565 S
N668 C665 1.384 1_565 S
N669 C661 1.427 1_545 S
N669 C667 1.384 1_545 S
H670 C676 0.930 . S
H671 C680 0.930 . S
H672 C685 0.929 . S
H673 C683 0.929 . S
H674 C678 0.929 1_455 S
H675 C684 0.929 1_655 S
C676 H670 0.930 . S
C676 C677 1.367 . S
C676 C684 1.378 . S
C677 C676 1.367 . S
C677 C685 1.433 . S
C678 H674 0.929 1_655 S
C678 C680 1.378 . S
C678 C682 1.350 . S
C679 C682 1.463 1_465 S
C679 C684 1.350 . S
C679 N687 1.427 . S
C680 H671 0.930 . S
C680 C678 1.378 . S
C680 C681 1.367 . S
C681 C680 1.367 . S
C681 C683 1.433 . S
C682 C678 1.350 . S
C682 C679 1.463 1_645 S
C682 N686 1.427 . S
C683 H673 0.929 . S
C683 C681 1.433 . S
C683 N686 1.384 . S
C684 H675 0.929 1_455 S
C684 C676 1.378 . S
C684 C679 1.350 . S
C685 H672 0.929 . S
C685 C677 1.433 . S
C685 N687 1.384 . S
N686 C682 1.427 . S
N686 C683 1.384 . S
N687 C679 1.427 . S
N687 C685 1.384 . S
H688 C694 0.930 . S
H689 C698 0.930 . S
H690 C703 0.929 . S
H691 C701 0.929 . S
H692 C696 0.929 . S
H693 C702 0.929 . S
C694 H688 0.930 . S
C694 C695 1.367 . S
C694 C702 1.378 . S
C695 C694 1.367 . S
C695 C703 1.433 . S
C696 H692 0.929 . S
C696 C698 1.378 . S
C696 C700 1.350 . S
C697 C700 1.463 . S
C697 C702 1.350 . S
C697 N705 1.427 . S
C698 H689 0.930 . S
C698 C696 1.378 . S
C698 C699 1.367 . S
C699 C698 1.367 . S
C699 C701 1.433 . S
C700 C696 1.350 . S
C700 C697 1.463 . S
C700 N704 1.427 . S
C701 H691 0.929 . S
C701 C699 1.433 . S
C701 N704 1.384 . S
C702 H693 0.929 . S
C702 C694 1.378 . S
C702 C697 1.350 . S
C703 H690 0.929 . S
C703 C695 1.433 . S
C703 N705 1.384 . S
N704 C700 1.427 . S
N704 C701 1.384 . S
N705 C697 1.427 . S
N705 C703 1.384 . S
H706 C712 0.930 . S
H707 C716 0.930 . S
H708 C721 0.929 . S
H709 C719 0.929 . S
H710 C714 0.929 . S
H711 C720 0.929 . S
C712 H706 0.930 . S
C712 C713 1.367 . S
C712 C720 1.378 . S
C713 C712 1.367 . S
C713 C721 1.433 . S
C714 H710 0.929 . S
C714 C716 1.378 . S
C714 C718 1.350 . S
C715 C718 1.463 . S
C715 C720 1.350 . S
C715 N723 1.427 . S
C716 H707 0.930 . S
C716 C714 1.378 . S
C716 C717 1.367 . S
C717 C716 1.367 . S
C717 C719 1.433 . S
C718 C714 1.350 . S
C718 C715 1.463 . S
C718 N722 1.427 . S
C719 H709 0.929 . S
C719 C717 1.433 . S
C719 N722 1.384 . S
C720 H711 0.929 . S
C720 C712 1.378 . S
C720 C715 1.350 . S
C721 H708 0.929 . S
C721 C713 1.433 . S
C721 N723 1.384 . S
N722 C718 1.427 . S
N722 C719 1.384 . S
N723 C715 1.427 . S
N723 C721 1.384 . S
H724 C730 0.930 . S
H725 C734 0.930 . S
H726 C739 0.929 . S
H727 C737 0.929 . S
H728 C732 0.929 . S
H729 C738 0.929 . S
C730 H724 0.930 . S
C730 C731 1.367 . S
C730 C738 1.378 . S
C731 C730 1.367 . S
C731 C739 1.433 . S
C732 H728 0.929 . S
C732 C734 1.378 . S
C732 C736 1.350 . S
C733 C736 1.463 . S
C733 C738 1.350 . S
C733 N741 1.427 . S
C734 H725 0.930 . S
C734 C732 1.378 . S
C734 C735 1.367 . S
C735 C734 1.367 . S
C735 C737 1.433 . S
C736 C732 1.350 . S
C736 C733 1.463 . S
C736 N740 1.427 . S
C737 H727 0.929 . S
C737 C735 1.433 . S
C737 N740 1.384 . S
C738 H729 0.929 . S
C738 C730 1.378 . S
C738 C733 1.350 . S
C739 H726 0.929 . S
C739 C731 1.433 . S
C739 N741 1.384 . S
N740 C736 1.427 . S
N740 C737 1.384 . S
N741 C733 1.427 . S
N741 C739 1.384 . S
H742 C748 0.930 . S
H743 C752 0.930 . S
H744 C757 0.929 . S
H745 C755 0.929 . S
H746 C750 0.929 . S
H747 C756 0.929 . S
C748 H742 0.930 . S
C748 C749 1.367 . S
C748 C756 1.378 . S
C749 C748 1.367 . S
C749 C757 1.433 . S
C750 H746 0.929 . S
C750 C752 1.378 . S
C750 C754 1.350 . S
C751 C754 1.463 . S
C751 C756 1.350 . S
C751 N759 1.427 . S
C752 H743 0.930 . S
C752 C750 1.378 . S
C752 C753 1.367 . S
C753 C752 1.367 . S
C753 C755 1.433 . S
C754 C750 1.350 . S
C754 C751 1.463 . S
C754 N758 1.427 . S
C755 H745 0.929 . S
C755 C753 1.433 . S
C755 N758 1.384 . S
C756 H747 0.929 . S
C756 C748 1.378 . S
C756 C751 1.350 . S
C757 H744 0.929 . S
C757 C749 1.433 . S
C757 N759 1.384 . S
N758 C754 1.427 . S
N758 C755 1.384 . S
N759 C751 1.427 . S
N759 C757 1.384 . S
H760 C766 0.930 . S
H761 C770 0.930 . S
H762 C775 0.929 . S
H763 C773 0.929 . S
H764 C768 0.929 . S
H765 C774 0.929 . S
C766 H760 0.930 . S
C766 C767 1.367 . S
C766 C774 1.378 . S
C767 C766 1.367 . S
C767 C775 1.433 . S
C768 H764 0.929 . S
C768 C770 1.378 . S
C768 C772 1.350 . S
C769 C772 1.463 . S
C769 C774 1.350 . S
C769 N777 1.427 . S
C770 H761 0.930 . S
C770 C768 1.378 . S
C770 C771 1.367 . S
C771 C770 1.367 . S
C771 C773 1.433 . S
C772 C768 1.350 . S
C772 C769 1.463 . S
C772 N776 1.427 . S
C773 H763 0.929 . S
C773 C771 1.433 . S
C773 N776 1.384 . S
C774 H765 0.929 . S
C774 C766 1.378 . S
C774 C769 1.350 . S
C775 H762 0.929 . S
C775 C767 1.433 . S
C775 N777 1.384 . S
N776 C772 1.427 . S
N776 C773 1.384 . S
N777 C769 1.427 . S
N777 C775 1.384 . S
H778 C784 0.930 . S
H779 C788 0.930 . S
H780 C793 0.929 . S
H781 C791 0.929 . S
H782 C786 0.929 . S
H783 C792 0.929 . S
C784 H778 0.930 . S
C784 C785 1.367 . S
C784 C792 1.378 . S
C785 C784 1.367 . S
C785 C793 1.433 . S
C786 H782 0.929 . S
C786 C788 1.378 . S
C786 C790 1.350 . S
C787 C790 1.463 . S
C787 C792 1.350 . S
C787 N795 1.427 . S
C788 H779 0.930 . S
C788 C786 1.378 . S
C788 C789 1.367 . S
C789 C788 1.367 . S
C789 C791 1.433 . S
C790 C786 1.350 . S
C790 C787 1.463 . S
C790 N794 1.427 . S
C791 H781 0.929 . S
C791 C789 1.433 . S
C791 N794 1.384 . S
C792 H783 0.929 . S
C792 C784 1.378 . S
C792 C787 1.350 . S
C793 H780 0.929 . S
C793 C785 1.433 . S
C793 N795 1.384 . S
N794 C790 1.427 . S
N794 C791 1.384 . S
N795 C787 1.427 . S
N795 C793 1.384 . S
H796 C802 0.930 . S
H797 C806 0.930 . S
H798 C811 0.929 . S
H799 C809 0.929 . S
H800 C804 0.929 . S
H801 C810 0.929 . S
C802 H796 0.930 . S
C802 C803 1.367 . S
C802 C810 1.378 . S
C803 C802 1.367 . S
C803 C811 1.433 . S
C804 H800 0.929 . S
C804 C806 1.378 . S
C804 C808 1.350 . S
C805 C808 1.463 . S
C805 C810 1.350 . S
C805 N813 1.427 . S
C806 H797 0.930 . S
C806 C804 1.378 . S
C806 C807 1.367 . S
C807 C806 1.367 . S
C807 C809 1.433 . S
C808 C804 1.350 . S
C808 C805 1.463 . S
C808 N812 1.427 . S
C809 H799 0.929 . S
C809 C807 1.433 . S
C809 N812 1.384 . S
C810 H801 0.929 . S
C810 C802 1.378 . S
C810 C805 1.350 . S
C811 H798 0.929 . S
C811 C803 1.433 . S
C811 N813 1.384 . S
N812 C808 1.427 . S
N812 C809 1.384 . S
N813 C805 1.427 . S
N813 C811 1.384 . S
H814 C820 0.930 . S
H815 C824 0.930 . S
H816 C829 0.929 . S
H817 C827 0.929 . S
H818 C822 0.929 . S
H819 C828 0.929 . S
C820 H814 0.930 . S
C820 C821 1.367 . S
C820 C828 1.378 . S
C821 C820 1.367 . S
C821 C829 1.433 . S
C822 H818 0.929 . S
C822 C824 1.378 . S
C822 C826 1.350 . S
C823 C826 1.463 . S
C823 C828 1.350 . S
C823 N831 1.427 . S
C824 H815 0.930 . S
C824 C822 1.378 . S
C824 C825 1.367 . S
C825 C824 1.367 . S
C825 C827 1.433 . S
C826 C822 1.350 . S
C826 C823 1.463 . S
C826 N830 1.427 . S
C827 H817 0.929 . S
C827 C825 1.433 . S
C827 N830 1.384 . S
C828 H819 0.929 . S
C828 C820 1.378 . S
C828 C823 1.350 . S
C829 H816 0.929 . S
C829 C821 1.433 . S
C829 N831 1.384 . S
N830 C826 1.427 . S
N830 C827 1.384 . S
N831 C823 1.427 . S
N831 C829 1.384 . S
H832 C838 0.930 . S
H833 C842 0.930 . S
H834 C847 0.929 . S
H835 C845 0.929 . S
H836 C840 0.929 . S
H837 C846 0.929 . S
C838 H832 0.930 . S
C838 C839 1.367 1_565 S
C838 C846 1.378 . S
C839 C838 1.367 1_545 S
C839 C847 1.433 . S
C840 H836 0.929 . S
C840 C842 1.378 . S
C840 C844 1.350 . S
C841 C844 1.463 . S
C841 C846 1.350 . S
C841 N849 1.427 . S
C842 H833 0.930 . S
C842 C840 1.378 . S
C842 C843 1.367 . S
C843 C842 1.367 . S
C843 C845 1.433 . S
C844 C840 1.350 . S
C844 C841 1.463 . S
C844 N848 1.427 . S
C845 H835 0.929 . S
C845 C843 1.433 . S
C845 N848 1.384 . S
C846 H837 0.929 . S
C846 C838 1.378 . S
C846 C841 1.350 . S
C847 H834 0.929 . S
C847 C839 1.433 . S
C847 N849 1.384 1_545 S
N848 C844 1.427 . S
N848 C845 1.384 . S
N849 C841 1.427 . S
N849 C847 1.384 1_565 S
H850 C856 0.930 . S
H851 C860 0.930 . S
H852 C865 0.927 1_455 S
H853 C863 0.929 . S
H854 C858 0.929 . S
H855 C864 0.929 . S
C856 H850 0.930 . S
C856 C857 1.367 . S
C856 C864 1.378 1_455 S
C857 C856 1.367 . S
C857 C865 1.432 1_455 S
C858 H854 0.929 . S
C858 C860 1.378 . S
C858 C862 1.350 . S
C859 C862 1.463 . S
C859 C864 1.350 . S
C859 N867 1.427 . S
C860 H851 0.930 . S
C860 C858 1.378 . S
C860 C861 1.367 . S
C861 C860 1.367 . S
C861 C863 1.433 . S
C862 C858 1.350 . S
C862 C859 1.463 . S
C862 N866 1.427 . S
C863 H853 0.929 . S
C863 C861 1.433 . S
C863 N866 1.384 . S
C864 H855 0.929 . S
C864 C856 1.378 1_655 S
C864 C859 1.350 . S
C865 H852 0.927 1_655 S
C865 C857 1.432 1_655 S
C865 N867 1.387 . S
N866 C862 1.427 . S
N866 C863 1.384 . S
N867 C859 1.427 . S
N867 C865 1.387 . S
H868 C874 0.930 . S
H869 C878 0.930 . S
H870 C883 0.929 . S
H871 C881 0.929 . S
H872 C876 0.929 . S
H873 C882 0.929 . S
C874 H868 0.930 . S
C874 C875 1.367 . S
C874 C882 1.378 . S
C875 C874 1.367 . S
C875 C883 1.433 . S
C876 H872 0.929 . S
C876 C878 1.378 . S
C876 C880 1.350 . S
C877 C880 1.463 . S
C877 C882 1.350 . S
C877 N885 1.427 . S
C878 H869 0.930 . S
C878 C876 1.378 . S
C878 C879 1.367 1_545 S
C879 C878 1.367 1_565 S
C879 C881 1.433 . S
C880 C876 1.350 . S
C880 C877 1.463 . S
C880 N884 1.427 . S
C881 H871 0.929 . S
C881 C879 1.433 . S
C881 N884 1.384 1_565 S
C882 H873 0.929 . S
C882 C874 1.378 . S
C882 C877 1.350 . S
C883 H870 0.929 . S
C883 C875 1.433 . S
C883 N885 1.384 . S
N884 C880 1.427 . S
N884 C881 1.384 1_545 S
N885 C877 1.427 . S
N885 C883 1.384 . S
H886 C892 0.930 . S
H887 C896 0.930 . S
H888 C901 0.929 . S
H889 C899 0.929 . S
H890 C894 0.929 . S
H891 C900 0.929 . S
C892 H886 0.930 . S
C892 C893 1.367 . S
C892 C900 1.378 . S
C893 C892 1.367 . S
C893 C901 1.433 . S
C894 H890 0.929 . S
C894 C896 1.378 . S
C894 C898 1.350 . S
C895 C898 1.463 . S
C895 C900 1.350 . S
C895 N903 1.427 . S
C896 H887 0.930 . S
C896 C894 1.378 . S
C896 C897 1.367 1_455 S
C897 C896 1.367 1_655 S
C897 C899 1.433 . S
C898 C894 1.350 . S
C898 C895 1.463 . S
C898 N902 1.427 . S
C899 H889 0.929 . S
C899 C897 1.433 . S
C899 N902 1.384 1_655 S
C900 H891 0.929 . S
C900 C892 1.378 . S
C900 C895 1.350 . S
C901 H888 0.929 . S
C901 C893 1.433 . S
C901 N903 1.384 . S
N902 C898 1.427 . S
N902 C899 1.384 1_455 S
N903 C895 1.427 . S
N903 C901 1.384 . S
H904 C910 0.930 . S
H905 C914 0.930 . S
H906 C919 0.929 . S
H907 C917 0.929 . S
H908 C912 0.929 . S
H909 C918 0.929 . S
C910 H904 0.930 . S
C910 C911 1.367 . S
C910 C918 1.378 . S
C911 C910 1.367 . S
C911 C919 1.433 . S
C912 H908 0.929 . S
C912 C914 1.378 . S
C912 C916 1.350 . S
C913 C916 1.463 . S
C913 C918 1.350 . S
C913 N921 1.427 . S
C914 H905 0.930 . S
C914 C912 1.378 . S
C914 C915 1.367 . S
C915 C914 1.367 . S
C915 C917 1.433 . S
C916 C912 1.350 . S
C916 C913 1.463 . S
C916 N920 1.427 . S
C917 H907 0.929 . S
C917 C915 1.433 . S
C917 N920 1.384 . S
C918 H909 0.929 . S
C918 C910 1.378 . S
C918 C913 1.350 . S
C919 H906 0.929 . S
C919 C911 1.433 . S
C919 N921 1.384 . S
N920 C916 1.427 . S
N920 C917 1.384 . S
N921 C913 1.427 . S
N921 C919 1.384 . S
H922 C928 0.930 . S
H923 C932 0.930 . S
H924 C937 0.925 1_554 S
H925 C935 0.929 . S
H926 C930 0.929 . S
H927 C936 0.929 . S
C928 H922 0.930 . S
C928 C929 1.367 . S
C928 C936 1.378 . S
C929 C928 1.367 . S
C929 C937 1.435 . S
C930 H926 0.929 . S
C930 C932 1.378 . S
C930 C934 1.350 . S
C931 C934 1.463 . S
C931 C936 1.350 . S
C931 N939 1.427 . S
C932 H923 0.930 . S
C932 C930 1.378 . S
C932 C933 1.367 . S
C933 C932 1.367 . S
C933 C935 1.433 . S
C934 C930 1.350 . S
C934 C931 1.463 . S
C934 N938 1.427 . S
C935 H925 0.929 . S
C935 C933 1.433 . S
C935 N938 1.384 . S
C936 H927 0.929 . S
C936 C928 1.378 . S
C936 C931 1.350 . S
C937 H924 0.925 1_556 S
C937 C929 1.435 . S
C937 N939 1.386 . S
N938 C934 1.427 . S
N938 C935 1.384 . S
N939 C931 1.427 . S
N939 C937 1.386 . S
H940 C946 0.930 . S
H941 C950 0.930 . S
H942 C955 0.929 . S
H943 C953 0.933 . S
H944 C948 0.929 . S
H945 C954 0.929 . S
C946 H940 0.930 . S
C946 C947 1.367 . S
C946 C954 1.378 . S
C947 C946 1.367 . S
C947 C955 1.433 . S
C948 H944 0.929 . S
C948 C950 1.378 . S
C948 C952 1.350 . S
C949 C952 1.463 . S
C949 C954 1.350 . S
C949 N957 1.427 . S
C950 H941 0.930 . S
C950 C948 1.378 . S
C950 C951 1.367 . S
C951 C950 1.367 . S
C951 C953 1.433 . S
C952 C948 1.350 . S
C952 C949 1.463 . S
C952 N956 1.427 . S
C953 H943 0.933 . S
C953 C951 1.433 . S
C953 N956 1.384 . S
C954 H945 0.929 . S
C954 C946 1.378 . S
C954 C949 1.350 . S
C955 H942 0.929 . S
C955 C947 1.433 . S
C955 N957 1.384 . S
N956 C952 1.427 . S
N956 C953 1.384 . S
N957 C949 1.427 . S
N957 C955 1.384 . S
H958 C964 0.930 1_554 S
H959 C968 0.930 . S
H960 C973 0.929 . S
H961 C971 0.929 . S
H962 C966 0.929 . S
H963 C972 0.929 . S
C964 H958 0.930 1_556 S
C964 C965 1.367 . S
C964 C972 1.378 . S
C965 C964 1.367 . S
C965 C973 1.433 . S
C966 H962 0.929 . S
C966 C968 1.378 . S
C966 C970 1.350 . S
C967 C970 1.463 . S
C967 C972 1.350 . S
C967 N975 1.427 . S
C968 H959 0.930 . S
C968 C966 1.378 . S
C968 C969 1.367 . S
C969 C968 1.367 . S
C969 C971 1.433 . S
C970 C966 1.350 . S
C970 C967 1.463 . S
C970 N974 1.427 . S
C971 H961 0.929 . S
C971 C969 1.433 . S
C971 N974 1.384 . S
C972 H963 0.929 . S
C972 C964 1.378 . S
C972 C967 1.350 . S
C973 H960 0.929 . S
C973 C965 1.433 . S
C973 N975 1.384 . S
N974 C970 1.427 . S
N974 C971 1.384 . S
N975 C967 1.427 . S
N975 C973 1.384 . S
H976 C982 0.930 . S
H977 C986 0.930 . S
H978 C991 0.929 . S
H979 C989 0.929 . S
H980 C984 0.929 . S
H981 C990 0.929 . S
C982 H976 0.930 . S
C982 C983 1.367 . S
C982 C990 1.378 . S
C983 C982 1.367 . S
C983 C991 1.433 . S
C984 H980 0.929 . S
C984 C986 1.378 . S
C984 C988 1.350 . S
C985 C988 1.463 . S
C985 C990 1.350 . S
C985 N993 1.427 . S
C986 H977 0.930 . S
C986 C984 1.378 . S
C986 C987 1.367 . S
C987 C986 1.367 . S
C987 C989 1.433 . S
C988 C984 1.350 . S
C988 C985 1.463 . S
C988 N992 1.427 . S
C989 H979 0.929 . S
C989 C987 1.433 . S
C989 N992 1.384 . S
C990 H981 0.929 . S
C990 C982 1.378 . S
C990 C985 1.350 . S
C991 H978 0.929 . S
C991 C983 1.433 . S
C991 N993 1.384 . S
N992 C988 1.427 . S
N992 C989 1.384 . S
N993 C985 1.427 . S
N993 C991 1.384 . S
H994 C1000 0.930 . S
H995 C1004 0.930 . S
H996 C1009 0.929 . S
H997 C1007 0.929 . S
H998 C1002 0.929 . S
H999 C1008 0.929 . S
C1000 H994 0.930 . S
C1000 C1001 1.367 . S
C1000 C1008 1.378 . S
C1001 C1000 1.367 . S
C1001 C1009 1.433 . S
C1002 H998 0.929 . S
C1002 C1004 1.378 . S
C1002 C1006 1.350 . S
C1003 C1006 1.463 . S
C1003 C1008 1.350 . S
C1003 N1011 1.427 . S
C1004 H995 0.930 . S
C1004 C1002 1.378 . S
C1004 C1005 1.367 . S
C1005 C1004 1.367 . S
C1005 C1007 1.433 . S
C1006 C1002 1.350 . S
C1006 C1003 1.463 . S
C1006 N1010 1.427 . S
C1007 H997 0.929 . S
C1007 C1005 1.433 . S
C1007 N1010 1.384 . S
C1008 H999 0.929 . S
C1008 C1000 1.378 . S
C1008 C1003 1.350 . S
C1009 H996 0.929 . S
C1009 C1001 1.433 . S
C1009 N1011 1.384 . S
N1010 C1006 1.427 . S
N1010 C1007 1.384 . S
N1011 C1003 1.427 . S
N1011 C1009 1.384 . S
H1012 C1018 0.930 . S
H1013 C1022 0.930 . S
H1014 C1027 0.929 . S
H1015 C1025 0.929 . S
H1016 C1020 0.929 . S
H1017 C1026 0.929 . S
C1018 H1012 0.930 . S
C1018 C1019 1.367 . S
C1018 C1026 1.378 . S
C1019 C1018 1.367 . S
C1019 C1027 1.433 . S
C1020 H1016 0.929 . S
C1020 C1022 1.378 . S
C1020 C1024 1.350 . S
C1021 C1024 1.463 . S
C1021 C1026 1.350 . S
C1021 N1029 1.427 . S
C1022 H1013 0.930 . S
C1022 C1020 1.378 . S
C1022 C1023 1.367 . S
C1023 C1022 1.367 . S
C1023 C1025 1.433 . S
C1024 C1020 1.350 . S
C1024 C1021 1.463 . S
C1024 N1028 1.427 . S
C1025 H1015 0.929 . S
C1025 C1023 1.433 . S
C1025 N1028 1.384 . S
C1026 H1017 0.929 . S
C1026 C1018 1.378 . S
C1026 C1021 1.350 . S
C1027 H1014 0.929 . S
C1027 C1019 1.433 . S
C1027 N1029 1.384 . S
N1028 C1024 1.427 . S
N1028 C1025 1.384 . S
N1029 C1021 1.427 . S
N1029 C1027 1.384 . S
H1030 C1036 0.930 . S
H1031 C1040 0.930 . S
H1032 C1045 0.929 . S
H1033 C1043 0.929 . S
H1034 C1038 0.929 . S
H1035 C1044 0.929 . S
C1036 H1030 0.930 . S
C1036 C1037 1.367 . S
C1036 C1044 1.378 . S
C1037 C1036 1.367 . S
C1037 C1045 1.433 . S
C1038 H1034 0.929 . S
C1038 C1040 1.378 . S
C1038 C1042 1.350 . S
C1039 C1042 1.463 . S
C1039 C1044 1.350 . S
C1039 N1047 1.427 . S
C1040 H1031 0.930 . S
C1040 C1038 1.378 . S
C1040 C1041 1.367 . S
C1041 C1040 1.367 . S
C1041 C1043 1.433 . S
C1042 C1038 1.350 . S
C1042 C1039 1.463 . S
C1042 N1046 1.427 . S
C1043 H1033 0.929 . S
C1043 C1041 1.433 . S
C1043 N1046 1.384 . S
C1044 H1035 0.929 . S
C1044 C1036 1.378 . S
C1044 C1039 1.350 . S
C1045 H1032 0.929 . S
C1045 C1037 1.433 . S
C1045 N1047 1.384 . S
N1046 C1042 1.427 . S
N1046 C1043 1.384 . S
N1047 C1039 1.427 . S
N1047 C1045 1.384 . S
H1048 C1054 0.930 . S
H1049 C1058 0.930 . S
H1050 C1063 0.929 . S
H1051 C1061 0.929 . S
H1052 C1056 0.929 . S
H1053 C1062 0.929 . S
C1054 H1048 0.930 . S
C1054 C1055 1.367 1_545 S
C1054 C1062 1.378 . S
C1055 C1054 1.367 1_565 S
C1055 C1063 1.433 . S
C1056 H1052 0.929 . S
C1056 C1058 1.378 . S
C1056 C1060 1.350 . S
C1057 C1060 1.463 . S
C1057 C1062 1.350 . S
C1057 N1065 1.427 . S
C1058 H1049 0.930 . S
C1058 C1056 1.378 . S
C1058 C1059 1.367 . S
C1059 C1058 1.367 . S
C1059 C1061 1.433 . S
C1060 C1056 1.350 . S
C1060 C1057 1.463 . S
C1060 N1064 1.427 . S
C1061 H1051 0.929 . S
C1061 C1059 1.433 . S
C1061 N1064 1.384 . S
C1062 H1053 0.929 . S
C1062 C1054 1.378 . S
C1062 C1057 1.350 . S
C1063 H1050 0.929 . S
C1063 C1055 1.433 . S
C1063 N1065 1.384 1_565 S
N1064 C1060 1.427 . S
N1064 C1061 1.384 . S
N1065 C1057 1.427 . S
N1065 C1063 1.384 1_545 S
H1066 C1072 0.930 . S
H1067 C1076 0.930 . S
H1068 C1081 0.929 . S
H1069 C1079 0.929 1_655 S
H1070 C1074 0.929 . S
H1071 C1080 0.929 . S
C1072 H1066 0.930 . S
C1072 C1073 1.367 . S
C1072 C1080 1.378 . S
C1073 C1072 1.367 . S
C1073 C1081 1.433 . S
C1074 H1070 0.929 . S
C1074 C1076 1.378 1_455 S
C1074 C1078 1.350 . S
C1075 C1078 1.463 . S
C1075 C1080 1.350 . S
C1075 N1083 1.427 . S
C1076 H1067 0.930 . S
C1076 C1074 1.378 1_655 S
C1076 C1077 1.367 . S
C1077 C1076 1.367 . S
C1077 C1079 1.433 1_655 S
C1078 C1074 1.350 . S
C1078 C1075 1.463 . S
C1078 N1082 1.427 . S
C1079 H1069 0.929 1_455 S
C1079 C1077 1.433 1_455 S
C1079 N1082 1.384 . S
C1080 H1071 0.929 . S
C1080 C1072 1.378 . S
C1080 C1075 1.350 . S
C1081 H1068 0.929 . S
C1081 C1073 1.433 . S
C1081 N1083 1.384 . S
N1082 C1078 1.427 . S
N1082 C1079 1.384 . S
N1083 C1075 1.427 . S
N1083 C1081 1.384 . S
H1084 C1090 0.930 . S
H1085 C1094 0.930 . S
H1086 C1099 0.929 . S
H1087 C1097 0.929 . S
H1088 C1092 0.929 . S
H1089 C1098 0.929 . S
C1090 H1084 0.930 . S
C1090 C1091 1.367 . S
C1090 C1098 1.378 1_545 S
C1091 C1090 1.367 . S
C1091 C1099 1.433 1_545 S
C1092 H1088 0.929 . S
C1092 C1094 1.378 . S
C1092 C1096 1.350 . S
C1093 C1096 1.463 . S
C1093 C1098 1.350 . S
C1093 N1101 1.427 . S
C1094 H1085 0.930 . S
C1094 C1092 1.378 . S
C1094 C1095 1.367 . S
C1095 C1094 1.367 . S
C1095 C1097 1.433 . S
C1096 C1092 1.350 . S
C1096 C1093 1.463 . S
C1096 N1100 1.427 . S
C1097 H1087 0.929 . S
C1097 C1095 1.433 . S
C1097 N1100 1.384 . S
C1098 H1089 0.929 . S
C1098 C1090 1.378 1_565 S
C1098 C1093 1.350 . S
C1099 H1086 0.929 . S
C1099 C1091 1.433 1_565 S
C1099 N1101 1.384 . S
N1100 C1096 1.427 . S
N1100 C1097 1.384 . S
N1101 C1093 1.427 . S
N1101 C1099 1.384 . S
H1102 C1108 0.930 . S
H1103 C1112 0.930 . S
H1104 C1117 0.929 . S
H1105 C1115 0.929 . S
H1106 C1110 0.929 . S
H1107 C1116 0.929 . S
C1108 H1102 0.930 . S
C1108 C1109 1.367 1_655 S
C1108 C1116 1.378 . S
C1109 C1108 1.367 1_455 S
C1109 C1117 1.433 . S
C1110 H1106 0.929 . S
C1110 C1112 1.378 . S
C1110 C1114 1.350 . S
C1111 C1114 1.463 . S
C1111 C1116 1.350 . S
C1111 N1119 1.427 . S
C1112 H1103 0.930 . S
C1112 C1110 1.378 . S
C1112 C1113 1.367 . S
C1113 C1112 1.367 . S
C1113 C1115 1.433 . S
C1114 C1110 1.350 . S
C1114 C1111 1.463 . S
C1114 N1118 1.427 . S
C1115 H1105 0.929 . S
C1115 C1113 1.433 . S
C1115 N1118 1.384 . S
C1116 H1107 0.929 . S
C1116 C1108 1.378 . S
C1116 C1111 1.350 . S
C1117 H1104 0.929 . S
C1117 C1109 1.433 . S
C1117 N1119 1.384 1_455 S
N1118 C1114 1.427 . S
N1118 C1115 1.384 . S
N1119 C1111 1.427 . S
N1119 C1117 1.384 1_655 S
H1120 C1126 0.930 . S
H1121 C1130 0.930 . S
H1122 C1135 0.929 . S
H1123 C1133 0.929 . S
H1124 C1128 0.929 . S
H1125 C1134 0.929 . S
C1126 H1120 0.930 . S
C1126 C1127 1.367 . S
C1126 C1134 1.378 . S
C1127 C1126 1.367 . S
C1127 C1135 1.433 . S
C1128 H1124 0.929 . S
C1128 C1130 1.378 . S
C1128 C1132 1.350 . S
C1129 C1132 1.463 . S
C1129 C1134 1.350 . S
C1129 N1137 1.427 . S
C1130 H1121 0.930 . S
C1130 C1128 1.378 . S
C1130 C1131 1.367 . S
C1131 C1130 1.367 . S
C1131 C1133 1.433 . S
C1132 C1128 1.350 . S
C1132 C1129 1.463 . S
C1132 N1136 1.427 . S
C1133 H1123 0.929 . S
C1133 C1131 1.433 . S
C1133 N1136 1.384 . S
C1134 H1125 0.929 . S
C1134 C1126 1.378 . S
C1134 C1129 1.350 . S
C1135 H1122 0.929 . S
C1135 C1127 1.433 . S
C1135 N1137 1.384 . S
N1136 C1132 1.427 . S
N1136 C1133 1.384 . S
N1137 C1129 1.427 . S
N1137 C1135 1.384 . S
H1138 C1144 0.930 . S
H1139 C1148 0.930 . S
H1140 C1153 0.929 . S
H1141 C1151 0.929 . S
H1142 C1146 0.929 . S
H1143 C1152 0.929 . S
C1144 H1138 0.930 . S
C1144 C1145 1.367 . S
C1144 C1152 1.378 . S
C1145 C1144 1.367 . S
C1145 C1153 1.433 . S
C1146 H1142 0.929 . S
C1146 C1148 1.378 . S
C1146 C1150 1.350 . S
C1147 C1150 1.463 . S
C1147 C1152 1.350 . S
C1147 N1155 1.427 . S
C1148 H1139 0.930 . S
C1148 C1146 1.378 . S
C1148 C1149 1.367 . S
C1149 C1148 1.367 . S
C1149 C1151 1.433 . S
C1150 C1146 1.350 . S
C1150 C1147 1.463 . S
C1150 N1154 1.427 . S
C1151 H1141 0.929 . S
C1151 C1149 1.433 . S
C1151 N1154 1.384 . S
C1152 H1143 0.929 . S
C1152 C1144 1.378 . S
C1152 C1147 1.350 . S
C1153 H1140 0.929 . S
C1153 C1145 1.433 . S
C1153 N1155 1.384 . S
N1154 C1150 1.427 . S
N1154 C1151 1.384 . S
N1155 C1147 1.427 . S
N1155 C1153 1.384 . S
H1156 C1162 0.930 . S
H1157 C1166 0.930 . S
H1158 C1171 0.929 . S
H1159 C1169 0.929 . S
H1160 C1164 0.929 . S
H1161 C1170 0.929 . S
C1162 H1156 0.930 . S
C1162 C1163 1.367 . S
C1162 C1170 1.378 . S
C1163 C1162 1.367 . S
C1163 C1171 1.433 . S
C1164 H1160 0.929 . S
C1164 C1166 1.378 . S
C1164 C1168 1.350 . S
C1165 C1168 1.463 . S
C1165 C1170 1.350 . S
C1165 N1173 1.427 . S
C1166 H1157 0.930 . S
C1166 C1164 1.378 . S
C1166 C1167 1.367 . S
C1167 C1166 1.367 . S
C1167 C1169 1.433 . S
C1168 C1164 1.350 . S
C1168 C1165 1.463 . S
C1168 N1172 1.427 . S
C1169 H1159 0.929 . S
C1169 C1167 1.433 . S
C1169 N1172 1.384 . S
C1170 H1161 0.929 . S
C1170 C1162 1.378 . S
C1170 C1165 1.350 . S
C1171 H1158 0.929 . S
C1171 C1163 1.433 . S
C1171 N1173 1.384 . S
N1172 C1168 1.427 . S
N1172 C1169 1.384 . S
N1173 C1165 1.427 . S
N1173 C1171 1.384 . S
H1174 C1180 0.930 . S
H1175 C1184 0.930 . S
H1176 C1189 0.929 . S
H1177 C1187 0.929 . S
H1178 C1182 0.929 . S
H1179 C1188 0.929 . S
C1180 H1174 0.930 . S
C1180 C1181 1.367 . S
C1180 C1188 1.378 . S
C1181 C1180 1.367 . S
C1181 C1189 1.433 . S
C1182 H1178 0.929 . S
C1182 C1184 1.378 . S
C1182 C1186 1.350 . S
C1183 C1186 1.463 . S
C1183 C1188 1.350 . S
C1183 N1191 1.427 . S
C1184 H1175 0.930 . S
C1184 C1182 1.378 . S
C1184 C1185 1.367 . S
C1185 C1184 1.367 . S
C1185 C1187 1.433 . S
C1186 C1182 1.350 . S
C1186 C1183 1.463 . S
C1186 N1190 1.427 . S
C1187 H1177 0.929 . S
C1187 C1185 1.433 . S
C1187 N1190 1.384 . S
C1188 H1179 0.929 . S
C1188 C1180 1.378 . S
C1188 C1183 1.350 . S
C1189 H1176 0.929 . S
C1189 C1181 1.433 . S
C1189 N1191 1.384 . S
N1190 C1186 1.427 . S
N1190 C1187 1.384 . S
N1191 C1183 1.427 . S
N1191 C1189 1.384 . S
H1192 C1198 0.930 . S
H1193 C1202 0.930 . S
H1194 C1207 0.929 . S
H1195 C1205 0.929 . S
H1196 C1200 0.929 . S
H1197 C1206 0.929 . S
C1198 H1192 0.930 . S
C1198 C1199 1.367 . S
C1198 C1206 1.378 . S
C1199 C1198 1.367 . S
C1199 C1207 1.433 . S
C1200 H1196 0.929 . S
C1200 C1202 1.378 . S
C1200 C1204 1.350 . S
C1201 C1204 1.463 . S
C1201 C1206 1.350 . S
C1201 N1209 1.427 . S
C1202 H1193 0.930 . S
C1202 C1200 1.378 . S
C1202 C1203 1.367 . S
C1203 C1202 1.367 . S
C1203 C1205 1.433 . S
C1204 C1200 1.350 . S
C1204 C1201 1.463 . S
C1204 N1208 1.427 . S
C1205 H1195 0.929 . S
C1205 C1203 1.433 . S
C1205 N1208 1.384 . S
C1206 H1197 0.929 . S
C1206 C1198 1.378 . S
C1206 C1201 1.350 . S
C1207 H1194 0.929 . S
C1207 C1199 1.433 . S
C1207 N1209 1.384 . S
N1208 C1204 1.427 . S
N1208 C1205 1.384 . S
N1209 C1201 1.427 . S
N1209 C1207 1.384 . S
H1210 C1216 0.930 . S
H1211 C1220 0.930 . S
H1212 C1225 0.929 . S
H1213 C1223 0.929 . S
H1214 C1218 0.929 . S
H1215 C1224 0.929 . S
C1216 H1210 0.930 . S
C1216 C1217 1.367 . S
C1216 C1224 1.378 . S
C1217 C1216 1.367 . S
C1217 C1225 1.433 . S
C1218 H1214 0.929 . S
C1218 C1220 1.378 . S
C1218 C1222 1.350 . S
C1219 C1222 1.463 . S
C1219 C1224 1.350 . S
C1219 N1227 1.427 . S
C1220 H1211 0.930 . S
C1220 C1218 1.378 . S
C1220 C1221 1.367 . S
C1221 C1220 1.367 . S
C1221 C1223 1.433 . S
C1222 C1218 1.350 . S
C1222 C1219 1.463 . S
C1222 N1226 1.427 . S
C1223 H1213 0.929 . S
C1223 C1221 1.433 . S
C1223 N1226 1.384 . S
C1224 H1215 0.929 . S
C1224 C1216 1.378 . S
C1224 C1219 1.350 . S
C1225 H1212 0.929 . S
C1225 C1217 1.433 . S
C1225 N1227 1.384 . S
N1226 C1222 1.427 . S
N1226 C1223 1.384 . S
N1227 C1219 1.427 . S
N1227 C1225 1.384 . S
H1228 C1234 0.930 . S
H1229 C1238 0.930 . S
H1230 C1243 0.929 . S
H1231 C1241 0.929 . S
H1232 C1236 0.929 . S
H1233 C1242 0.929 . S
C1234 H1228 0.930 . S
C1234 C1235 1.367 . S
C1234 C1242 1.378 . S
C1235 C1234 1.367 . S
C1235 C1243 1.433 . S
C1236 H1232 0.929 . S
C1236 C1238 1.378 . S
C1236 C1240 1.350 . S
C1237 C1240 1.463 . S
C1237 C1242 1.350 . S
C1237 N1245 1.427 . S
C1238 H1229 0.930 . S
C1238 C1236 1.378 . S
C1238 C1239 1.367 . S
C1239 C1238 1.367 . S
C1239 C1241 1.433 . S
C1240 C1236 1.350 . S
C1240 C1237 1.463 . S
C1240 N1244 1.427 . S
C1241 H1231 0.929 . S
C1241 C1239 1.433 . S
C1241 N1244 1.384 . S
C1242 H1233 0.929 . S
C1242 C1234 1.378 . S
C1242 C1237 1.350 . S
C1243 H1230 0.929 . S
C1243 C1235 1.433 . S
C1243 N1245 1.384 . S
N1244 C1240 1.427 . S
N1244 C1241 1.384 . S
N1245 C1237 1.427 . S
N1245 C1243 1.384 . S
H1246 C1252 0.930 . S
H1247 C1256 0.930 . S
H1248 C1261 0.929 . S
H1249 C1259 0.929 . S
H1250 C1254 0.929 . S
H1251 C1260 0.929 . S
C1252 H1246 0.930 . S
C1252 C1253 1.367 . S
C1252 C1260 1.378 . S
C1253 C1252 1.367 . S
C1253 C1261 1.433 . S
C1254 H1250 0.929 . S
C1254 C1256 1.378 . S
C1254 C1258 1.350 . S
C1255 C1258 1.463 . S
C1255 C1260 1.350 . S
C1255 N1263 1.427 . S
C1256 H1247 0.930 . S
C1256 C1254 1.378 . S
C1256 C1257 1.367 . S
C1257 C1256 1.367 . S
C1257 C1259 1.433 . S
C1258 C1254 1.350 . S
C1258 C1255 1.463 . S
C1258 N1262 1.427 . S
C1259 H1249 0.929 . S
C1259 C1257 1.433 . S
C1259 N1262 1.384 . S
C1260 H1251 0.929 . S
C1260 C1252 1.378 . S
C1260 C1255 1.350 . S
C1261 H1248 0.929 . S
C1261 C1253 1.433 . S
C1261 N1263 1.384 . S
N1262 C1258 1.427 . S
N1262 C1259 1.384 . S
N1263 C1255 1.427 . S
N1263 C1261 1.384 . S
H1264 C1270 0.930 . S
H1265 C1274 0.930 1_545 S
H1266 C1279 0.929 . S
H1267 C1277 0.929 . S
H1268 C1272 0.929 . S
H1269 C1278 0.929 . S
C1270 H1264 0.930 . S
C1270 C1271 1.367 . S
C1270 C1278 1.378 . S
C1271 C1270 1.367 . S
C1271 C1279 1.433 . S
C1272 H1268 0.929 . S
C1272 C1274 1.378 1_556 S
C1272 C1276 1.350 . S
C1273 C1276 1.463 . S
C1273 C1278 1.350 . S
C1273 N1281 1.427 . S
C1274 H1265 0.930 1_565 S
C1274 C1272 1.378 1_554 S
C1274 C1275 1.367 . S
C1275 C1274 1.367 . S
C1275 C1277 1.433 . S
C1276 C1272 1.350 . S
C1276 C1273 1.463 . S
C1276 N1280 1.427 . S
C1277 H1267 0.929 . S
C1277 C1275 1.433 . S
C1277 N1280 1.384 1_554 S
C1278 H1269 0.929 . S
C1278 C1270 1.378 . S
C1278 C1273 1.350 . S
C1279 H1266 0.929 . S
C1279 C1271 1.433 . S
C1279 N1281 1.384 . S
N1280 C1276 1.427 . S
N1280 C1277 1.384 1_556 S
N1281 C1273 1.427 . S
N1281 C1279 1.384 . S
H1282 C1288 0.930 . S
H1283 C1292 0.930 . S
H1284 C1297 0.929 1_455 S
H1285 C1295 0.929 . S
H1286 C1290 0.929 . S
H1287 C1296 0.929 . S
C1288 H1282 0.930 . S
C1288 C1289 1.367 . S
C1288 C1296 1.378 1_556 S
C1289 C1288 1.367 . S
C1289 C1297 1.433 . S
C1290 H1286 0.929 . S
C1290 C1292 1.378 . S
C1290 C1294 1.350 . S
C1291 C1294 1.463 . S
C1291 C1296 1.350 . S
C1291 N1299 1.427 . S
C1292 H1283 0.930 . S
C1292 C1290 1.378 . S
C1292 C1293 1.367 . S
C1293 C1292 1.367 . S
C1293 C1295 1.433 . S
C1294 C1290 1.350 . S
C1294 C1291 1.463 . S
C1294 N1298 1.427 . S
C1295 H1285 0.929 . S
C1295 C1293 1.433 . S
C1295 N1298 1.384 . S
C1296 H1287 0.929 . S
C1296 C1288 1.378 1_554 S
C1296 C1291 1.350 . S
C1297 H1284 0.929 1_655 S
C1297 C1289 1.433 . S
C1297 N1299 1.384 1_556 S
N1298 C1294 1.427 . S
N1298 C1295 1.384 . S
N1299 C1291 1.427 . S
N1299 C1297 1.384 1_554 S
H1300 C1306 0.930 . S
H1301 C1310 0.930 1_554 S
H1302 C1315 0.929 . S
H1303 C1313 0.929 . S
H1304 C1308 0.929 . S
H1305 C1314 0.929 . S
C1306 H1300 0.930 . S
C1306 C1307 1.367 1_556 S
C1306 C1314 1.378 . S
C1307 C1306 1.367 1_554 S
C1307 C1315 1.433 . S
C1308 H1304 0.929 . S
C1308 C1310 1.378 1_554 S
C1308 C1312 1.350 1_554 S
C1309 C1312 1.463 . S
C1309 C1314 1.350 . S
C1309 N1317 1.427 1_556 S
C1310 H1301 0.930 1_556 S
C1310 C1308 1.378 1_556 S
C1310 C1311 1.367 . S
C1311 C1310 1.367 . S
C1311 C1313 1.433 . S
C1312 C1308 1.350 1_556 S
C1312 C1309 1.463 . S
C1312 N1316 1.427 . S
C1313 H1303 0.929 . S
C1313 C1311 1.433 . S
C1313 N1316 1.384 . S
C1314 H1305 0.929 . S
C1314 C1306 1.378 . S
C1314 C1309 1.350 . S
C1315 H1302 0.929 . S
C1315 C1307 1.433 . S
C1315 N1317 1.384 . S
N1316 C1312 1.427 . S
N1316 C1313 1.384 . S
N1317 C1309 1.427 1_554 S
N1317 C1315 1.384 . S
H1318 C1324 0.930 1_655 S
H1319 C1328 0.930 . S
H1320 C1333 0.929 . S
H1321 C1331 0.929 . S
H1322 C1326 0.929 . S
H1323 C1332 0.929 . S
C1324 H1318 0.930 1_455 S
C1324 C1325 1.367 . S
C1324 C1332 1.378 . S
C1325 C1324 1.367 . S
C1325 C1333 1.433 1_556 S
C1326 H1322 0.929 . S
C1326 C1328 1.378 . S
C1326 C1330 1.350 . S
C1327 C1330 1.463 . S
C1327 C1332 1.350 1_554 S
C1327 N1335 1.427 . S
C1328 H1319 0.930 . S
C1328 C1326 1.378 . S
C1328 C1329 1.367 . S
C1329 C1328 1.367 . S
C1329 C1331 1.433 . S
C1330 C1326 1.350 . S
C1330 C1327 1.463 . S
C1330 N1334 1.427 . S
C1331 H1321 0.929 . S
C1331 C1329 1.433 . S
C1331 N1334 1.384 . S
C1332 H1323 0.929 . S
C1332 C1324 1.378 . S
C1332 C1327 1.350 1_556 S
C1333 H1320 0.929 . S
C1333 C1325 1.433 1_554 S
C1333 N1335 1.384 . S
N1334 C1330 1.427 . S
N1334 C1331 1.384 . S
N1335 C1327 1.427 . S
N1335 C1333 1.384 . S
H1336 C1342 0.930 . S
H1337 C1346 0.930 . S
H1338 C1351 0.929 . S
H1339 C1349 0.929 . S
H1340 C1344 0.929 . S
H1341 C1350 0.929 . S
C1342 H1336 0.930 . S
C1342 C1343 1.367 . S
C1342 C1350 1.378 . S
C1343 C1342 1.367 . S
C1343 C1351 1.433 . S
C1344 H1340 0.929 . S
C1344 C1346 1.378 . S
C1344 C1348 1.350 . S
C1345 C1348 1.463 . S
C1345 C1350 1.350 . S
C1345 N1353 1.427 . S
C1346 H1337 0.930 . S
C1346 C1344 1.378 . S
C1346 C1347 1.367 . S
C1347 C1346 1.367 . S
C1347 C1349 1.433 . S
C1348 C1344 1.350 . S
C1348 C1345 1.463 . S
C1348 N1352 1.427 . S
C1349 H1339 0.929 . S
C1349 C1347 1.433 . S
C1349 N1352 1.384 . S
C1350 H1341 0.929 . S
C1350 C1342 1.378 . S
C1350 C1345 1.350 . S
C1351 H1338 0.929 . S
C1351 C1343 1.433 . S
C1351 N1353 1.384 . S
N1352 C1348 1.427 . S
N1352 C1349 1.384 . S
N1353 C1345 1.427 . S
N1353 C1351 1.384 . S
H1354 C1360 0.930 . S
H1355 C1364 0.930 . S
H1356 C1369 0.929 . S
H1357 C1367 0.929 . S
H1358 C1362 0.929 . S
H1359 C1368 0.929 . S
C1360 H1354 0.930 . S
C1360 C1361 1.367 . S
C1360 C1368 1.378 . S
C1361 C1360 1.367 . S
C1361 C1369 1.433 . S
C1362 H1358 0.929 . S
C1362 C1364 1.378 . S
C1362 C1366 1.350 . S
C1363 C1366 1.463 . S
C1363 C1368 1.350 . S
C1363 N1371 1.427 . S
C1364 H1355 0.930 . S
C1364 C1362 1.378 . S
C1364 C1365 1.367 . S
C1365 C1364 1.367 . S
C1365 C1367 1.433 . S
C1366 C1362 1.350 . S
C1366 C1363 1.463 . S
C1366 N1370 1.427 . S
C1367 H1357 0.929 . S
C1367 C1365 1.433 . S
C1367 N1370 1.384 . S
C1368 H1359 0.929 . S
C1368 C1360 1.378 . S
C1368 C1363 1.350 . S
C1369 H1356 0.929 . S
C1369 C1361 1.433 . S
C1369 N1371 1.384 . S
N1370 C1366 1.427 . S
N1370 C1367 1.384 . S
N1371 C1363 1.427 . S
N1371 C1369 1.384 . S
H1372 C1378 0.930 . S
H1373 C1382 0.930 . S
H1374 C1387 0.929 . S
H1375 C1385 0.929 . S
H1376 C1380 0.929 . S
H1377 C1386 0.929 . S
C1378 H1372 0.930 . S
C1378 C1379 1.367 . S
C1378 C1386 1.378 . S
C1379 C1378 1.367 . S
C1379 C1387 1.433 . S
C1380 H1376 0.929 . S
C1380 C1382 1.378 . S
C1380 C1384 1.350 . S
C1381 C1384 1.463 . S
C1381 C1386 1.350 . S
C1381 N1389 1.427 . S
C1382 H1373 0.930 . S
C1382 C1380 1.378 . S
C1382 C1383 1.367 . S
C1383 C1382 1.367 . S
C1383 C1385 1.433 . S
C1384 C1380 1.350 . S
C1384 C1381 1.463 . S
C1384 N1388 1.427 . S
C1385 H1375 0.929 . S
C1385 C1383 1.433 . S
C1385 N1388 1.384 . S
C1386 H1377 0.929 . S
C1386 C1378 1.378 . S
C1386 C1381 1.350 . S
C1387 H1374 0.929 . S
C1387 C1379 1.433 . S
C1387 N1389 1.384 . S
N1388 C1384 1.427 . S
N1388 C1385 1.384 . S
N1389 C1381 1.427 . S
N1389 C1387 1.384 . S
H1390 C1396 0.930 . S
H1391 C1400 0.930 . S
H1392 C1405 0.929 . S
H1393 C1403 0.929 . S
H1394 C1398 0.929 . S
H1395 C1404 0.929 . S
C1396 H1390 0.930 . S
C1396 C1397 1.367 . S
C1396 C1404 1.378 . S
C1397 C1396 1.367 . S
C1397 C1405 1.433 . S
C1398 H1394 0.929 . S
C1398 C1400 1.378 . S
C1398 C1402 1.350 . S
C1399 C1402 1.463 . S
C1399 C1404 1.350 . S
C1399 N1407 1.427 . S
C1400 H1391 0.930 . S
C1400 C1398 1.378 . S
C1400 C1401 1.367 . S
C1401 C1400 1.367 . S
C1401 C1403 1.433 . S
C1402 C1398 1.350 . S
C1402 C1399 1.463 . S
C1402 N1406 1.427 . S
C1403 H1393 0.929 . S
C1403 C1401 1.433 . S
C1403 N1406 1.384 . S
C1404 H1395 0.929 . S
C1404 C1396 1.378 . S
C1404 C1399 1.350 . S
C1405 H1392 0.929 . S
C1405 C1397 1.433 . S
C1405 N1407 1.384 . S
N1406 C1402 1.427 . S
N1406 C1403 1.384 . S
N1407 C1399 1.427 . S
N1407 C1405 1.384 . S
H1408 C1414 0.930 . S
H1409 C1418 0.930 . S
H1410 C1423 0.929 . S
H1411 C1421 0.929 . S
H1412 C1416 0.929 . S
H1413 C1422 0.929 . S
C1414 H1408 0.930 . S
C1414 C1415 1.367 . S
C1414 C1422 1.378 . S
C1415 C1414 1.367 . S
C1415 C1423 1.433 . S
C1416 H1412 0.929 . S
C1416 C1418 1.378 . S
C1416 C1420 1.350 . S
C1417 C1420 1.463 . S
C1417 C1422 1.350 . S
C1417 N1425 1.427 . S
C1418 H1409 0.930 . S
C1418 C1416 1.378 . S
C1418 C1419 1.367 . S
C1419 C1418 1.367 . S
C1419 C1421 1.433 . S
C1420 C1416 1.350 . S
C1420 C1417 1.463 . S
C1420 N1424 1.427 . S
C1421 H1411 0.929 . S
C1421 C1419 1.433 . S
C1421 N1424 1.384 . S
C1422 H1413 0.929 . S
C1422 C1414 1.378 . S
C1422 C1417 1.350 . S
C1423 H1410 0.929 . S
C1423 C1415 1.433 . S
C1423 N1425 1.384 . S
N1424 C1420 1.427 . S
N1424 C1421 1.384 . S
N1425 C1417 1.427 . S
N1425 C1423 1.384 . S
H1426 C1432 0.930 . S
H1427 C1436 0.930 . S
H1428 C1441 0.929 . S
H1429 C1439 0.929 . S
H1430 C1434 0.929 . S
H1431 C1440 0.929 . S
C1432 H1426 0.930 . S
C1432 C1433 1.367 . S
C1432 C1440 1.378 . S
C1433 C1432 1.367 . S
C1433 C1441 1.433 . S
C1434 H1430 0.929 . S
C1434 C1436 1.378 . S
C1434 C1438 1.350 . S
C1435 C1438 1.463 . S
C1435 C1440 1.350 . S
C1435 N1443 1.427 . S
C1436 H1427 0.930 . S
C1436 C1434 1.378 . S
C1436 C1437 1.367 . S
C1437 C1436 1.367 . S
C1437 C1439 1.433 . S
C1438 C1434 1.350 . S
C1438 C1435 1.463 . S
C1438 N1442 1.427 . S
C1439 H1429 0.929 . S
C1439 C1437 1.433 . S
C1439 N1442 1.384 . S
C1440 H1431 0.929 . S
C1440 C1432 1.378 . S
C1440 C1435 1.350 . S
C1441 H1428 0.929 . S
C1441 C1433 1.433 . S
C1441 N1443 1.384 . S
N1442 C1438 1.427 . S
N1442 C1439 1.384 . S
N1443 C1435 1.427 . S
N1443 C1441 1.384 . S
H1444 C1450 0.930 . S
H1445 C1454 0.930 . S
H1446 C1459 0.929 . S
H1447 C1457 0.929 . S
H1448 C1452 0.929 . S
H1449 C1458 0.929 . S
C1450 H1444 0.930 . S
C1450 C1451 1.367 . S
C1450 C1458 1.378 . S
C1451 C1450 1.367 . S
C1451 C1459 1.433 . S
C1452 H1448 0.929 . S
C1452 C1454 1.378 . S
C1452 C1456 1.350 . S
C1453 C1456 1.463 . S
C1453 C1458 1.350 . S
C1453 N1461 1.427 . S
C1454 H1445 0.930 . S
C1454 C1452 1.378 . S
C1454 C1455 1.367 . S
C1455 C1454 1.367 . S
C1455 C1457 1.433 . S
C1456 C1452 1.350 . S
C1456 C1453 1.463 . S
C1456 N1460 1.427 . S
C1457 H1447 0.929 . S
C1457 C1455 1.433 . S
C1457 N1460 1.384 . S
C1458 H1449 0.929 . S
C1458 C1450 1.378 . S
C1458 C1453 1.350 . S
C1459 H1446 0.929 . S
C1459 C1451 1.433 . S
C1459 N1461 1.384 . S
N1460 C1456 1.427 . S
N1460 C1457 1.384 . S
N1461 C1453 1.427 . S
N1461 C1459 1.384 . S
H1462 C1468 0.930 . S
H1463 C1472 0.930 . S
H1464 C1477 0.929 . S
H1465 C1475 0.929 . S
H1466 C1470 0.929 . S
H1467 C1476 0.929 . S
C1468 H1462 0.930 . S
C1468 C1469 1.367 . S
C1468 C1476 1.378 . S
C1469 C1468 1.367 . S
C1469 C1477 1.433 . S
C1470 H1466 0.929 . S
C1470 C1472 1.378 . S
C1470 C1474 1.350 . S
C1471 C1474 1.463 . S
C1471 C1476 1.350 . S
C1471 N1479 1.427 . S
C1472 H1463 0.930 . S
C1472 C1470 1.378 . S
C1472 C1473 1.367 . S
C1473 C1472 1.367 . S
C1473 C1475 1.433 . S
C1474 C1470 1.350 . S
C1474 C1471 1.463 . S
C1474 N1478 1.427 . S
C1475 H1465 0.929 . S
C1475 C1473 1.433 . S
C1475 N1478 1.384 . S
C1476 H1467 0.929 . S
C1476 C1468 1.378 . S
C1476 C1471 1.350 . S
C1477 H1464 0.929 . S
C1477 C1469 1.433 . S
C1477 N1479 1.384 . S
N1478 C1474 1.427 . S
N1478 C1475 1.384 . S
N1479 C1471 1.427 . S
N1479 C1477 1.384 . S
H1480 C1486 0.930 . S
H1481 C1490 0.930 . S
H1482 C1495 0.929 . S
H1483 C1493 0.929 . S
H1484 C1488 0.929 . S
H1485 C1494 0.929 . S
C1486 H1480 0.930 . S
C1486 C1487 1.367 . S
C1486 C1494 1.378 . S
C1487 C1486 1.367 . S
C1487 C1495 1.433 . S
C1488 H1484 0.929 . S
C1488 C1490 1.378 . S
C1488 C1492 1.350 . S
C1489 C1492 1.463 . S
C1489 C1494 1.350 . S
C1489 N1497 1.427 . S
C1490 H1481 0.930 . S
C1490 C1488 1.378 . S
C1490 C1491 1.367 . S
C1491 C1490 1.367 . S
C1491 C1493 1.433 . S
C1492 C1488 1.350 . S
C1492 C1489 1.463 . S
C1492 N1496 1.427 . S
C1493 H1483 0.929 . S
C1493 C1491 1.433 . S
C1493 N1496 1.384 . S
C1494 H1485 0.929 . S
C1494 C1486 1.378 . S
C1494 C1489 1.350 . S
C1495 H1482 0.929 . S
C1495 C1487 1.433 . S
C1495 N1497 1.384 . S
N1496 C1492 1.427 . S
N1496 C1493 1.384 . S
N1497 C1489 1.427 . S
N1497 C1495 1.384 . S
H1498 C1504 0.930 . S
H1499 C1508 0.930 . S
H1500 C1513 0.929 . S
H1501 C1511 0.929 . S
H1502 C1506 0.929 . S
H1503 C1512 0.929 . S
C1504 H1498 0.930 . S
C1504 C1505 1.367 . S
C1504 C1512 1.378 . S
C1505 C1504 1.367 . S
C1505 C1513 1.433 . S
C1506 H1502 0.929 . S
C1506 C1508 1.378 . S
C1506 C1510 1.350 . S
C1507 C1510 1.463 . S
C1507 C1512 1.350 . S
C1507 N1515 1.427 . S
C1508 H1499 0.930 . S
C1508 C1506 1.378 . S
C1508 C1509 1.367 . S
C1509 C1508 1.367 . S
C1509 C1511 1.433 . S
C1510 C1506 1.350 . S
C1510 C1507 1.463 . S
C1510 N1514 1.427 . S
C1511 H1501 0.929 . S
C1511 C1509 1.433 . S
C1511 N1514 1.384 . S
C1512 H1503 0.929 . S
C1512 C1504 1.378 . S
C1512 C1507 1.350 . S
C1513 H1500 0.929 . S
C1513 C1505 1.433 . S
C1513 N1515 1.384 . S
N1514 C1510 1.427 . S
N1514 C1511 1.384 . S
N1515 C1507 1.427 . S
N1515 C1513 1.384 . S
H1516 C1522 0.930 1_545 S
H1517 C1526 0.930 . S
H1518 C1531 0.929 . S
H1519 C1529 0.929 . S
H1520 C1524 0.929 . S
H1521 C1530 0.929 . S
C1522 H1516 0.930 1_565 S
C1522 C1523 1.367 . S
C1522 C1530 1.378 . S
C1523 C1522 1.367 . S
C1523 C1531 1.433 . S
C1524 H1520 0.929 . S
C1524 C1526 1.378 . S
C1524 C1528 1.350 . S
C1525 C1528 1.463 . S
C1525 C1530 1.350 . S
C1525 N1533 1.427 . S
C1526 H1517 0.930 . S
C1526 C1524 1.378 . S
C1526 C1527 1.367 . S
C1527 C1526 1.367 . S
C1527 C1529 1.433 . S
C1528 C1524 1.350 . S
C1528 C1525 1.463 . S
C1528 N1532 1.427 . S
C1529 H1519 0.929 . S
C1529 C1527 1.433 . S
C1529 N1532 1.384 . S
C1530 H1521 0.929 . S
C1530 C1522 1.378 . S
C1530 C1525 1.350 . S
C1531 H1518 0.929 . S
C1531 C1523 1.433 . S
C1531 N1533 1.384 . S
N1532 C1528 1.427 . S
N1532 C1529 1.384 . S
N1533 C1525 1.427 . S
N1533 C1531 1.384 . S
H1534 C1540 0.930 . S
H1535 C1544 0.930 . S
H1536 C1549 0.929 . S
H1537 C1547 0.929 . S
H1538 C1542 0.929 . S
H1539 C1548 0.929 . S
C1540 H1534 0.930 . S
C1540 C1541 1.367 . S
C1540 C1548 1.378 . S
C1541 C1540 1.367 . S
C1541 C1549 1.433 . S
C1542 H1538 0.929 . S
C1542 C1544 1.378 . S
C1542 C1546 1.350 . S
C1543 C1546 1.463 . S
C1543 C1548 1.350 . S
C1543 N1551 1.427 . S
C1544 H1535 0.930 . S
C1544 C1542 1.378 . S
C1544 C1545 1.367 . S
C1545 C1544 1.367 . S
C1545 C1547 1.433 . S
C1546 C1542 1.350 . S
C1546 C1543 1.463 . S
C1546 N1550 1.427 . S
C1547 H1537 0.929 . S
C1547 C1545 1.433 . S
C1547 N1550 1.384 . S
C1548 H1539 0.929 . S
C1548 C1540 1.378 . S
C1548 C1543 1.350 . S
C1549 H1536 0.929 . S
C1549 C1541 1.433 . S
C1549 N1551 1.384 . S
N1550 C1546 1.427 . S
N1550 C1547 1.384 . S
N1551 C1543 1.427 . S
N1551 C1549 1.384 . S
C551 C90 0.645 . S
C555 C15 0.639 . S
C569 C117 0.644 . S
C573 C49 0.672 . S
C587 C158 0.658 . S
C591 C219 0.682 . S
C605 C253 0.637 . S
C609 C185 0.654 . S
C623 C287 0.648 . S
C627 C362 0.676 . S
C641 C396 0.637 . S
C645 C321 0.653 . S
C659 C430 0.684 . S
C663 C491 0.675 . S
C677 C532 0.639 . S
C681 C457 0.662 . S
C695 C28 0.584 . S
C699 C142 0.575 . S
C713 C62 0.541 . S
C717 C198 0.537 . S
C731 C74 0.535 . S
C735 C232 0.555 . S
C749 C266 0.556 . S
C753 C130 0.535 . S
C767 C300 0.583 . S
C771 C414 0.577 . S
C785 C470 0.559 . S
C789 C334 0.536 . S
C803 C504 0.584 . S
C807 C346 0.574 . S
C821 C516 0.536 . S
C825 C380 0.558 . S
C839 C17 3.028 . S
C843 C511 2.950 . S
C857 C51 3.027 . S
C861 C409 2.952 . S
C875 C445 2.949 . S
C879 C85 3.029 . S
C893 C479 2.952 . S
C897 C119 3.027 . S
C911 C37 2.948 1_554 S
C915 C153 3.030 . S
C929 C69 2.944 1_556 S
C933 C187 3.033 . S
C947 C221 3.031 . S
C951 C105 2.946 1_554 S
C965 C3 2.952 1_556 S
C969 C255 3.027 . S
C983 C241 2.953 . S
C987 C289 3.026 . S
C1001 C137 2.950 . S
C1005 C323 3.029 . S
C1019 C357 3.027 . S
C1023 C173 2.952 . S
C1037 C207 2.943 . S
C1041 C391 3.033 . S
C1055 C425 3.026 . S
C1059 C309 2.952 . S
C1073 C341 2.952 . S
C1077 C459 3.028 . S
C1091 C493 3.030 . S
C1095 C375 2.948 . S
C1109 C527 3.026 . S
C1113 C275 2.953 . S
C1127 C477 1.669 . S
C1131 C1 1.678 . S
C1145 C35 1.680 . S
C1149 C513 1.677 . S
C1163 C411 1.667 . S
C1167 C71 1.672 . S
C1181 C103 1.670 . S
C1185 C443 1.678 . S
C1199 C139 1.668 . S
C1203 C343 1.676 . S
C1217 C377 1.668 . S
C1221 C171 1.668 . S
C1235 C205 1.680 . S
C1239 C273 1.677 . S
C1253 C307 1.680 . S
C1257 C239 1.674 . S
C1271 C56 0.777 . S
C1275 C6 0.813 1_565 S
C1289 C40 0.825 1_655 S
C1293 C83 0.816 . S
C1307 C96 0.823 1_545 S
C1311 C124 0.804 . S
C1325 C108 0.812 1_455 S
C1329 C22 0.778 . S
C1343 C164 0.824 . S
C1347 C525 0.808 . S
C1361 C423 0.777 . S
C1365 C176 0.813 . S
C1379 C210 0.821 . S
C1383 C464 0.798 . S
C1397 C244 0.820 . S
C1401 C498 0.794 . S
C1415 C328 0.801 . S
C1419 C278 0.822 . S
C1433 C355 0.779 . S
C1437 C312 0.813 . S
C1451 C368 0.816 . S
C1455 C389 0.790 . S
C1469 C402 0.815 . S
C1473 C294 0.788 . S
C1487 C436 0.825 1_545 S
C1491 C260 0.810 . S
C1505 C151 0.814 . S
C1509 C448 0.826 1_455 S
C1523 C482 0.821 1_565 S
C1527 C192 0.797 . S
C1541 C226 0.784 . S
C1545 C538 0.814 1_655 S
