# Generated by pormake.
# Topology ecn, (8)-cn, num edge types: 1
# Building blocks:
#     Node 0, Type 0, BuildingBlock: EBIMEJ_clean_sbu_0, # of connection points: 8
#     Node 1, Type 0, BuildingBlock: EBIMEJ_clean_sbu_0, # of connection points: 8
#     Node 2, Type 0, BuildingBlock: EBIMEJ_clean_sbu_0, # of connection points: 8
#     Node 3, Type 0, BuildingBlock: EBIMEJ_clean_sbu_0, # of connection points: 8
#     Node 4, Type 0, BuildingBlock: EBIMEJ_clean_sbu_0, # of connection points: 8
#     Node 5, Type 0, BuildingBlock: EBIMEJ_clean_sbu_0, # of connection points: 8
#     Node 6, Type 0, BuildingBlock: EBIMEJ_clean_sbu_0, # of connection points: 8
#     Node 7, Type 0, BuildingBlock: EBIMEJ_clean_sbu_0, # of connection points: 8
#     Node 8, Type 0, BuildingBlock: EBIMEJ_clean_sbu_0, # of connection points: 8
#     Edge 9, Type (0, 0), BuildingBlock: EZIPEK_clean_linker_0, # of connection points: 2
#     Edge 10, Type (0, 0), BuildingBlock: EZIPEK_clean_linker_0, # of connection points: 2
#     Edge 11, Type (0, 0), BuildingBlock: EZIPEK_clean_linker_0, # of connection points: 2
#     Edge 12, Type (0, 0), BuildingBlock: EZIPEK_clean_linker_0, # of connection points: 2
#     Edge 13, Type (0, 0), BuildingBlock: EZIPEK_clean_linker_0, # of connection points: 2
#     Edge 14, Type (0, 0), BuildingBlock: EZIPEK_clean_linker_0, # of connection points: 2
#     Edge 15, Type (0, 0), BuildingBlock: EZIPEK_clean_linker_0, # of connection points: 2
#     Edge 16, Type (0, 0), BuildingBlock: EZIPEK_clean_linker_0, # of connection points: 2
#     Edge 17, Type (0, 0), BuildingBlock: EZIPEK_clean_linker_0, # of connection points: 2
#     Edge 18, Type (0, 0), BuildingBlock: EZIPEK_clean_linker_0, # of connection points: 2
#     Edge 19, Type (0, 0), BuildingBlock: EZIPEK_clean_linker_0, # of connection points: 2
#     Edge 20, Type (0, 0), BuildingBlock: EZIPEK_clean_linker_0, # of connection points: 2
#     Edge 21, Type (0, 0), BuildingBlock: EZIPEK_clean_linker_0, # of connection points: 2
#     Edge 22, Type (0, 0), BuildingBlock: EZIPEK_clean_linker_0, # of connection points: 2
#     Edge 23, Type (0, 0), BuildingBlock: EZIPEK_clean_linker_0, # of connection points: 2
#     Edge 24, Type (0, 0), BuildingBlock: EZIPEK_clean_linker_0, # of connection points: 2
#     Edge 25, Type (0, 0), BuildingBlock: EZIPEK_clean_linker_0, # of connection points: 2
#     Edge 26, Type (0, 0), BuildingBlock: EZIPEK_clean_linker_0, # of connection points: 2
#     Edge 27, Type (0, 0), BuildingBlock: EZIPEK_clean_linker_0, # of connection points: 2
#     Edge 28, Type (0, 0), BuildingBlock: EZIPEK_clean_linker_0, # of connection points: 2
#     Edge 29, Type (0, 0), BuildingBlock: EZIPEK_clean_linker_0, # of connection points: 2
#     Edge 30, Type (0, 0), BuildingBlock: EZIPEK_clean_linker_0, # of connection points: 2
#     Edge 31, Type (0, 0), BuildingBlock: EZIPEK_clean_linker_0, # of connection points: 2
#     Edge 32, Type (0, 0), BuildingBlock: EZIPEK_clean_linker_0, # of connection points: 2
#     Edge 33, Type (0, 0), BuildingBlock: EZIPEK_clean_linker_0, # of connection points: 2
#     Edge 34, Type (0, 0), BuildingBlock: EZIPEK_clean_linker_0, # of connection points: 2
#     Edge 35, Type (0, 0), BuildingBlock: EZIPEK_clean_linker_0, # of connection points: 2
#     Edge 36, Type (0, 0), BuildingBlock: EZIPEK_clean_linker_0, # of connection points: 2
#     Edge 37, Type (0, 0), BuildingBlock: EZIPEK_clean_linker_0, # of connection points: 2
#     Edge 38, Type (0, 0), BuildingBlock: EZIPEK_clean_linker_0, # of connection points: 2
#     Edge 39, Type (0, 0), BuildingBlock: EZIPEK_clean_linker_0, # of connection points: 2
#     Edge 40, Type (0, 0), BuildingBlock: EZIPEK_clean_linker_0, # of connection points: 2
#     Edge 41, Type (0, 0), BuildingBlock: EZIPEK_clean_linker_0, # of connection points: 2
#     Edge 42, Type (0, 0), BuildingBlock: EZIPEK_clean_linker_0, # of connection points: 2
#     Edge 43, Type (0, 0), BuildingBlock: EZIPEK_clean_linker_0, # of connection points: 2
#     Edge 44, Type (0, 0), BuildingBlock: EZIPEK_clean_linker_0, # of connection points: 2
# Relax obj value: 0.176
# Max RMSD: 0.237
# Mean RMSD: 0.237
data_MOF--net-ecn--node1-EBIMEJ_clean_sbu_0--edge1-EZIPEK_clean_linker_0
_symmetry_space_group_name_H-M    P1
_symmetry_Int_Tables_number       1
_symmetry_cell_setting            triclinic
loop_
_symmetry_equiv_pos_as_xyz
'x, y, z'
_cell_length_a     41.772866
_cell_length_b     41.882549
_cell_length_c     11.717094
_cell_angle_alpha  90.009711
_cell_angle_beta   90.012491
_cell_angle_gamma 119.99285
loop_
_atom_site_label
_atom_site_type_symbol
_atom_site_fract_x
_atom_site_fract_y
_atom_site_fract_z
_atom_type_partial_charge
Co0 Co 0.20553 0.31711 0.91886 0.0
Co1 Co 0.16088 0.23826 0.05173 0.0
Co2 Co 0.11817 0.27572 0.98813 0.0
H3 H 0.16249 0.29295 0.97921 0.0
O4 O 0.16999 0.28909 0.04361 0.0
H5 H 0.11749 0.21967 0.04767 0.0
O6 O 0.11028 0.2253 0.98641 0.0
Co7 Co 0.0742 0.18988 0.09602 0.0
O8 O 0.09149 0.15214 0.08632 0.0
O9 O 0.15218 0.18732 0.05653 0.0
O10 O 0.0472 0.21799 0.12746 0.0
O11 O 0.06354 0.25782 0.98069 0.0
O12 O 0.24116 0.35507 0.80028 0.0
O13 O 0.26112 0.34934 0.95588 0.0
O14 O 0.09113 0.21945 0.23904 0.0
O15 O 0.15119 0.23835 0.21904 0.0
C16 C 0.15619 0.35347 0.91079 0.0
C17 C 0.24054 0.27545 0.03861 0.0
C18 C 1.01704 0.12859 0.08134 0.0
C19 C 0.1457 0.27497 0.75049 0.0
C20 C 0.12343 0.15606 0.0708 0.0
C21 C 0.04163 0.23936 0.06314 0.0
C22 C 0.26933 0.36595 0.86189 0.0
C23 C 0.12365 0.23376 0.27842 0.0
O24 O 0.1859 0.35267 0.88918 0.0
O25 O 0.12913 0.32758 0.96639 0.0
O26 O 0.21181 0.2544 0.0951 0.0
O27 O 0.24128 0.29777 0.96233 0.0
O28 O 1.02535 0.14947 0.16644 0.0
O29 O 0.04111 0.14253 0.00447 0.0
O30 O 0.17942 0.28883 0.77868 0.0
O31 O 0.12045 0.27128 0.8193 0.0
Co32 Co 0.73603 0.89762 0.9129 0.0
Co33 Co 0.81321 0.93196 0.05324 0.0
Co34 Co 0.77533 0.85146 0.99518 0.0
H35 H 0.7588 0.87874 0.98087 0.0
O36 O 0.76224 0.89046 0.04426 0.0
H37 H 0.83214 0.90746 0.04997 0.0
O38 O 0.82618 0.89397 0.98995 0.0
Co39 Co 0.86279 0.89514 0.09963 0.0
O40 O 0.90022 0.95016 0.08492 0.0
O41 O 0.8641 0.97462 0.05886 0.0
O42 O 0.83698 0.83993 0.12675 0.0
O43 O 0.79243 0.81407 0.99284 0.0
O44 O 0.70677 0.90053 0.77386 0.0
O45 O 0.6975 0.91455 0.93497 0.0
O46 O 0.83384 0.88304 0.24406 0.0
O47 O 0.81241 0.92202 0.22146 0.0
C48 C 0.69974 0.8118 0.91024 0.0
C49 C 0.77281 0.97198 0.04709 0.0
C50 C 0.92523 0.9013 0.09986 0.0
C51 C 0.78092 0.88136 0.75845 0.0
C52 C 0.89573 0.97782 0.07116 0.0
C53 C 0.81303 0.81186 0.07091 0.0
C54 C 0.68868 0.91142 0.83128 0.0
C55 C 0.81816 0.90007 0.28215 0.0
O56 O 0.70353 0.84236 0.87248 0.0
O57 O 0.72269 0.81093 0.98152 0.0
O58 O 0.79691 0.96662 0.09466 0.0
O59 O 0.74933 0.94945 0.97468 0.0
O60 O 0.91807 0.92488 0.13885 0.0
O61 O 0.89694 0.874 0.0595 0.0
O62 O 0.77253 0.90518 0.79046 0.0
O63 O 0.77797 0.85555 0.82362 0.0
Co64 Co 0.15587 0.84875 0.91769 0.0
Co65 Co 0.12022 0.8932 0.04459 0.0
Co66 Co 0.20088 0.93521 0.98753 0.0
H67 H 0.17392 0.89131 0.97889 0.0
O68 O 0.16186 0.88376 0.0421 0.0
H69 H 0.1452 0.93617 0.04194 0.0
O70 O 0.15866 0.94377 0.98186 0.0
Co71 Co 0.15788 0.97847 0.09461 0.0
O72 O 0.10267 0.95911 0.11614 0.0
O73 O 0.0783 0.90249 0.04298 0.0
O74 O 0.21327 1.00762 0.1192 0.0
O75 O 0.23812 0.98953 0.98046 0.0
O76 O 0.13241 0.80645 0.79914 0.0
O77 O 0.15825 0.80085 0.94231 0.0
O78 O 0.17179 0.96169 0.23499 0.0
O79 O 0.12861 0.90259 0.21463 0.0
C80 C 0.24138 0.89912 0.90913 0.0
C81 C 0.08158 0.81217 0.0533 0.0
C82 C 0.15095 0.03373 0.07682 0.0
C83 C 0.16861 0.90695 0.75453 0.0
C84 C 0.07513 0.92895 0.08264 0.0
C85 C 0.24097 1.01199 0.06052 0.0
C86 C 0.14117 0.78584 0.85175 0.0
C87 C 0.15239 0.92954 0.27501 0.0
O88 O 0.21116 0.87116 0.8741 0.0
O89 O 0.2417 0.92367 0.97545 0.0
O90 O 0.08446 0.84239 0.08529 0.0
O91 O 0.10598 0.81047 0.99151 0.0
O92 O 0.162 0.02529 0.16524 0.0
O93 O 0.1438 1.01078 0.99799 0.0
O94 O 0.14559 0.87519 0.79244 0.0
O95 O 0.19507 0.93109 0.8159 0.0
Co96 Co 0.87123 0.65028 0.24637 0.0
Co97 Co 0.82873 0.57286 0.38351 0.0
Co98 Co 0.7845 0.60822 0.3172 0.0
H99 H 0.82873 0.62625 0.30889 0.0
O100 O 0.83645 0.62306 0.37378 0.0
H101 H 0.7854 0.55303 0.37491 0.0
O102 O 0.77824 0.55843 0.31302 0.0
Co103 Co 0.7423 0.52225 0.42147 0.0
O104 O 0.76155 0.48598 0.42045 0.0
O105 O 0.8219 0.52265 0.38938 0.0
O106 O 0.7136 0.54884 0.45163 0.0
O107 O 0.72957 0.58912 0.30676 0.0
O108 O 0.9072 0.69106 0.13448 0.0
O109 O 0.92678 0.68202 0.28536 0.0
O110 O 0.75642 0.55193 0.56384 0.0
O111 O 0.8169 0.57209 0.55025 0.0
C112 C 0.81958 0.68452 0.24053 0.0
C113 C 0.90787 0.6107 0.3705 0.0
C114 C 0.68715 0.45969 0.40563 0.0
C115 C 0.81282 0.60535 0.08321 0.0
C116 C 0.79395 0.491 0.4057 0.0
C117 C 0.70744 0.57002 0.38807 0.0
C118 C 0.93529 0.70049 0.19506 0.0
C119 C 0.78844 0.56649 0.60696 0.0
O120 O 0.84809 0.6829 0.20671 0.0
O121 O 0.79453 0.65977 0.30437 0.0
O122 O 0.8797 0.59073 0.43085 0.0
O123 O 0.90762 0.63148 0.29021 0.0
O124 O 0.69303 0.48133 0.48731 0.0
O125 O 0.71262 0.47354 0.33292 0.0
O126 O 0.84515 0.61492 0.11819 0.0
O127 O 0.78865 0.60679 0.14646 0.0
Co128 Co 0.40386 0.23001 0.24043 0.0
Co129 Co 0.4827 0.26489 0.37341 0.0
Co130 Co 0.4453 0.18484 0.31207 0.0
H131 H 0.42792 0.21157 0.30313 0.0
O132 O 0.43179 0.22309 0.36715 0.0
H133 H 0.50124 0.24036 0.36775 0.0
O134 O 0.49566 0.22744 0.3066 0.0
Co135 Co 0.53086 0.22725 0.41836 0.0
O136 O 0.56789 0.28245 0.42686 0.0
O137 O 0.53368 0.30725 0.37476 0.0
O138 O 0.50276 0.1722 0.45113 0.0
O139 O 0.46338 0.14817 0.30379 0.0
O140 O 0.37396 0.23534 0.10815 0.0
O141 O 0.36407 0.24475 0.27425 0.0
O142 O 0.5 0.21215 0.55802 0.0
O143 O 0.48367 0.25519 0.54188 0.0
C144 C 0.36873 0.1442 0.23578 0.0
C145 C 0.44251 0.30513 0.37195 0.0
C146 C 0.59339 0.23459 0.40047 0.0
C147 C 0.44834 0.21576 0.07714 0.0
C148 C 0.56442 0.31014 0.40208 0.0
C149 C 0.48188 0.14494 0.38681 0.0
C150 C 0.35521 0.24385 0.17127 0.0
C151 C 0.48717 0.23125 0.59993 0.0
O152 O 0.37076 0.17433 0.20097 0.0
O153 O 0.39327 0.14387 0.30063 0.0
O154 O 0.46667 0.29958 0.41829 0.0
O155 O 0.41857 0.28246 0.30079 0.0
O156 O 0.57288 0.22106 0.48598 0.0
O157 O 0.57844 0.24406 0.32495 0.0
O158 O 0.43902 0.23865 0.11204 0.0
O159 O 0.44679 0.19019 0.14077 0.0
Co160 Co 0.82199 0.18101 0.2529 0.0
Co161 Co 0.78783 0.22576 0.38763 0.0
Co162 Co 0.86821 0.26784 0.32566 0.0
H163 H 0.84088 0.2237 0.31524 0.0
O164 O 0.82931 0.21605 0.37929 0.0
H165 H 0.81296 0.26901 0.38443 0.0
O166 O 0.82592 0.27619 0.32344 0.0
Co167 Co 0.82672 0.31224 0.43326 0.0
O168 O 0.77185 0.29562 0.42321 0.0
O169 O 0.74597 0.23511 0.39173 0.0
O170 O 0.88177 0.33884 0.46596 0.0
O171 O 0.90532 0.32231 0.31963 0.0
O172 O 0.83411 0.14722 0.15309 0.0
O173 O 0.78904 0.12447 0.26121 0.0
O174 O 0.83911 0.295 0.57562 0.0
O175 O 0.79754 0.23522 0.55526 0.0
C176 C 0.90766 0.22997 0.24505 0.0
C177 C 0.74517 0.14617 0.37535 0.0
C178 C 0.82299 0.36954 0.41971 0.0
C179 C 0.83998 0.24144 0.08721 0.0
C180 C 0.74374 0.26395 0.40658 0.0
C181 C 0.90874 0.34425 0.40188 0.0
C182 C 0.807 0.11787 0.1888 0.0
C183 C 0.8206 0.26261 0.61488 0.0
O184 O 0.87712 0.20073 0.22067 0.0
O185 O 0.90892 0.25644 0.30414 0.0
O186 O 0.75238 0.17501 0.43017 0.0
O187 O 0.76725 0.14527 0.30078 0.0
O188 O 0.83397 0.3602 0.50643 0.0
O189 O 0.81419 0.3464 0.34059 0.0
O190 O 0.81998 0.20772 0.11422 0.0
O191 O 0.86166 0.26622 0.15684 0.0
Co192 Co 0.53686 0.98126 0.57078 0.0
Co193 Co 0.49424 0.90476 0.71078 0.0
Co194 Co 0.45142 0.94243 0.65264 0.0
H195 H 0.49527 0.95886 0.63891 0.0
O196 O 0.50354 0.95553 0.70262 0.0
H197 H 0.45093 0.88597 0.70697 0.0
O198 O 0.44323 0.89176 0.64695 0.0
Co199 Co 0.40824 0.85573 0.75831 0.0
O200 O 0.427 0.81897 0.76324 0.0
O201 O 0.48604 0.85407 0.71242 0.0
O202 O 0.37885 0.88161 0.78665 0.0
O203 O 0.39684 0.92534 0.65069 0.0
O204 O 0.58043 0.99665 0.45831 0.0
O205 O 0.58277 0.03372 0.57997 0.0
O206 O 0.42487 0.8887 0.8937 0.0
O207 O 0.48417 0.90425 0.87968 0.0
C208 C 0.4877 1.0181 0.56955 0.0
C209 C 0.57397 0.94263 0.69637 0.0
C210 C 0.35277 0.79308 0.75562 0.0
C211 C 0.47581 0.93801 0.41317 0.0
C212 C 0.45852 0.82311 0.73837 0.0
C213 C 0.3744 0.90521 0.73009 0.0
C214 C 0.5992 0.02859 0.49831 0.0
C215 C 0.45685 0.90187 0.93598 0.0
O216 O 0.5146 1.01435 0.53218 0.0
O217 O 0.46344 0.99492 0.63919 0.0
O218 O 0.5454 0.92105 0.7529 0.0
O219 O 0.57389 0.96425 0.61923 0.0
O220 O 0.37943 0.80326 0.8232 0.0
O221 O 0.35766 0.81838 0.68791 0.0
O222 O 0.50858 0.94745 0.44251 0.0
O223 O 0.4526 0.93955 0.48087 0.0
Co224 Co 0.06851 0.56425 0.58994 0.0
Co225 Co 0.14862 0.59934 0.71921 0.0
Co226 Co 0.1102 0.51881 0.66085 0.0
H227 H 0.09309 0.54588 0.65093 0.0
O228 O 0.0974 0.55786 0.71416 0.0
H229 H 0.16667 0.57412 0.71966 0.0
O230 O 0.161 0.56079 0.65944 0.0
Co231 Co 0.19631 0.56105 0.77225 0.0
O232 O 0.23315 0.61603 0.78501 0.0
O233 O 0.20009 0.641 0.72181 0.0
O234 O 0.1694 0.50543 0.79571 0.0
O235 O 0.12764 0.48184 0.65304 0.0
O236 O 0.05513 0.59258 0.47193 0.0
O237 O 1.01604 0.55798 0.5896 0.0
O238 O 0.17 0.55285 0.91904 0.0
O239 O 0.14739 0.59047 0.88802 0.0
C240 C 1.03211 0.47902 0.58303 0.0
C241 C 0.10698 0.63902 0.72017 0.0
C242 C 0.25806 0.56633 0.75644 0.0
C243 C 0.11256 0.54842 0.42496 0.0
C244 C 0.23025 0.6437 0.75533 0.0
C245 C 0.1471 0.47852 0.73258 0.0
C246 C 1.02253 0.5795 0.50687 0.0
C247 C 0.15419 0.57016 0.95319 0.0
O248 O 0.0327 0.50929 0.56106 0.0
O249 O 0.05805 0.47808 0.63929 0.0
O250 O 0.13351 0.63543 0.75691 0.0
O251 O 0.08114 0.61504 0.65692 0.0
O252 O 0.24133 0.56258 0.84877 0.0
O253 O 0.23962 0.56681 0.67235 0.0
O254 O 0.09975 0.56899 0.45489 0.0
O255 O 0.11474 0.52562 0.49203 0.0
Co256 Co 0.48879 0.51425 0.57563 0.0
Co257 Co 0.45356 0.55938 0.7023 0.0
Co258 Co 0.53458 0.60106 0.64772 0.0
H259 H 0.50711 0.55703 0.63703 0.0
O260 O 0.49484 0.54942 0.69986 0.0
H261 H 0.47882 0.60223 0.70154 0.0
O262 O 0.49264 0.61015 0.64222 0.0
Co263 Co 0.49126 0.64415 0.75669 0.0
O264 O 0.43598 0.62463 0.78138 0.0
O265 O 0.41198 0.56906 0.70105 0.0
O266 O 0.54699 0.67371 0.7802 0.0
O267 O 0.57226 0.65574 0.6422 0.0
O268 O 0.49934 0.48102 0.46723 0.0
O269 O 0.45821 0.45755 0.58868 0.0
O270 O 0.5059 0.62649 0.89373 0.0
O271 O 0.46168 0.56786 0.87273 0.0
C272 C 0.57405 0.56419 0.5665 0.0
C273 C 0.41469 0.47832 0.71396 0.0
C274 C 0.48363 0.69921 0.73799 0.0
C275 C 0.50547 0.57372 0.40907 0.0
C276 C 0.40851 0.59481 0.74507 0.0
C277 C 0.57479 0.67871 0.72033 0.0
C278 C 0.47442 0.45133 0.50923 0.0
C279 C 0.48635 0.59422 0.9327 0.0
O280 O 0.54348 0.53711 0.53026 0.0
O281 O 0.57497 0.58854 0.63531 0.0
O282 O 0.41719 0.5087 0.74129 0.0
O283 O 0.43946 0.47619 0.65483 0.0
O284 O 0.47256 0.67753 0.82144 0.0
O285 O 0.49865 0.68933 0.66411 0.0
O286 O 0.48399 0.5406 0.43961 0.0
O287 O 0.52927 0.59835 0.47594 0.0
C288 C 0.27059 0.23698 0.02234 0.0
C289 C 0.27296 0.27059 0.05723 0.0
C290 C 0.33229 0.28909 0.14985 0.0
C291 C 0.32746 0.25348 0.12863 0.0
N292 N 0.28979 0.19182 0.05499 0.0
N293 N 0.30358 0.32689 0.16598 0.0
C294 C 0.29615 0.22703 0.06663 0.0
C295 C 0.30325 0.29631 0.12368 0.0
N296 N 0.24396 0.21472 0.94589 0.0
N297 N 0.36523 0.31653 0.19068 0.0
H298 H 0.28297 0.33324 0.14778 0.0
H299 H 0.32272 0.3444 0.22599 0.0
H300 H 0.38748 0.31258 0.20622 0.0
H301 H 0.3718 0.34395 0.19731 0.0
H302 H 0.24277 0.19158 0.90861 0.0
H303 H 0.2249 0.22128 0.91153 0.0
H304 H 0.26534 0.1702 0.02235 0.0
H305 H 0.30763 0.18329 0.08675 0.0
C306 C 0.79418 0.07174 0.0308 0.0
C307 C 0.79609 0.07991 0.14925 0.0
C308 C 0.77055 1.0142 0.19244 0.0
C309 C 0.7743 1.00722 0.07633 0.0
N310 N 0.79558 0.03102 0.88674 0.0
N311 N 0.79213 0.05933 0.34426 0.0
C312 C 0.7875 0.03638 0.99561 0.0
C313 C 0.78557 0.05118 0.23065 0.0
N314 N 0.79729 0.09708 0.9516 0.0
N315 N 0.7527 0.98534 0.26636 0.0
H316 H 0.80535 0.08619 0.37579 0.0
H317 H 0.78824 0.03983 0.40604 0.0
H318 H 0.74122 0.95793 0.24031 0.0
H319 H 0.74602 0.9884 0.34979 0.0
H320 H 0.79235 0.09103 0.8649 0.0
H321 H 0.80093 0.12283 0.97328 0.0
H322 H 0.80935 0.05247 0.82861 0.0
H323 H 0.79096 1.0056 0.85696 0.0
C324 C 1.0217 0.75321 0.00975 0.0
C325 C 0.0474 0.77819 0.09054 0.0
C326 C 0.99957 0.75263 0.23907 0.0
C327 C 0.97418 0.72664 0.15971 0.0
N328 N 0.96549 0.69495 0.97983 0.0
N329 N 0.06384 0.79374 0.28792 0.0
C330 C 0.98653 0.7247 0.04803 0.0
C331 C 0.03725 0.77512 0.20727 0.0
N332 N 1.02979 0.75764 0.89586 0.0
N333 N 0.98751 0.7576 0.34243 0.0
H334 H 0.0918 0.80981 0.26721 0.0
H335 H 0.05873 0.79003 0.37535 0.0
H336 H 0.95991 0.74317 0.36766 0.0
H337 H 1.00424 0.77878 0.39838 0.0
H338 H 1.01029 0.74291 0.83291 0.0
H339 H 0.05505 0.77788 0.8633 0.0
H340 H 0.97488 0.69053 0.90229 0.0
H341 H 0.94048 0.67257 0.00608 0.0
C342 C 0.81162 0.75114 0.03313 0.0
C343 C 0.80803 0.77545 0.10942 0.0
C344 C 0.81191 0.74014 0.27246 0.0
C345 C 0.81401 0.71501 0.19623 0.0
N346 N 0.80314 0.69013 0.00542 0.0
N347 N 0.79339 0.78588 0.30009 0.0
C348 C 0.81015 0.71861 0.0768 0.0
C349 C 0.80465 0.76763 0.22871 0.0
N350 N 0.81801 0.75964 0.91986 0.0
N351 N 0.81823 0.73878 0.38633 0.0
H352 H 0.78623 0.80488 0.27007 0.0
H353 H 0.78714 0.7792 0.38594 0.0
H354 H 0.82381 0.71922 0.42167 0.0
H355 H 0.8211 0.75897 0.44404 0.0
H356 H 0.82494 0.74492 0.86301 0.0
H357 H 0.8193 0.78307 0.88436 0.0
H358 H 0.79684 0.68978 0.9192 0.0
H359 H 0.79927 0.66509 0.03561 0.0
C360 C 0.30207 0.07105 0.02526 0.0
C361 C 0.27773 0.0426 0.09979 0.0
C362 C 0.31327 0.08028 0.26493 0.0
C363 C 0.33835 0.1082 0.19015 0.0
N364 N 0.36381 0.12258 8e-05 0.0
N365 N 0.26777 1.01561 0.28771 0.0
C366 C 0.33486 0.10141 0.07039 0.0
C367 C 0.28579 0.04585 0.2189 0.0
N368 N 0.29348 0.07009 0.91242 0.0
N369 N 0.31465 0.08696 0.37947 0.0
H370 H 0.2489 0.98957 0.25593 0.0
H371 H 0.27461 1.01542 0.37313 0.0
H372 H 0.33412 0.11187 0.41634 0.0
H373 H 0.29453 0.069 0.43639 0.0
H374 H 0.30844 0.09225 0.85749 0.0
H375 H 0.26982 0.04843 0.87586 0.0
H376 H 0.364 0.11705 0.91342 0.0
H377 H 0.38928 0.14266 0.03171 0.0
C378 C 1.01009 0.25972 0.20205 0.0
C379 C 1.00943 0.24372 0.09482 0.0
C380 C 0.94351 0.22382 0.07749 0.0
C381 C 0.94281 0.23449 0.19347 0.0
N382 N 0.97573 0.25619 0.37225 0.0
N383 N 0.97429 0.20619 0.93604 0.0
C384 C 0.97628 0.251 0.25727 0.0
C385 C 0.97581 0.22465 0.0339 0.0
N386 N 0.04329 0.28346 0.25102 0.0
N387 N 0.91418 0.21445 0.00634 0.0
H388 H 0.99763 0.20744 0.89923 0.0
H389 H 0.94956 0.18772 0.89605 0.0
H390 H 0.89045 0.21487 0.03013 0.0
H391 H 0.9151 0.21033 0.91897 0.0
H392 H 0.04585 0.29847 0.32478 0.0
H393 H 0.06827 0.29119 0.20988 0.0
H394 H 0.9989 0.26497 0.42415 0.0
H395 H 0.95142 0.24761 0.41822 0.0
C396 C 0.97175 0.63263 0.44912 0.0
C397 C 0.94044 0.60588 0.38837 0.0
C398 C 0.96341 0.56217 0.40224 0.0
C399 C 0.99543 0.58937 0.45976 0.0
N400 N 0.03367 0.65288 0.51775 0.0
N401 N 0.90981 0.5483 0.28612 0.0
C402 C 1.00086 0.62546 0.4759 0.0
C403 C 0.93737 0.57158 0.35845 0.0
N404 N 0.97269 0.66392 0.48746 0.0
N405 N 0.95764 0.52718 0.3907 0.0
H406 H 0.89059 0.55458 0.25152 0.0
H407 H 0.90785 0.52442 0.25211 0.0
H408 H 0.977 0.51975 0.41549 0.0
H409 H 0.93285 0.50493 0.36254 0.0
H410 H 0.99262 0.68251 0.54366 0.0
H411 H 0.95178 0.66992 0.47044 0.0
H412 H 0.04085 0.68054 0.5195 0.0
H413 H 0.05505 0.64852 0.54252 0.0
C414 C 0.46061 0.4041 0.35319 0.0
C415 C 0.46446 0.41338 0.47114 0.0
C416 C 0.44245 0.34846 0.51841 0.0
C417 C 0.44422 0.34057 0.40171 0.0
N418 N 0.4615 0.36314 0.20892 0.0
N419 N 0.46592 0.395 0.66599 0.0
C420 C 0.45492 0.36895 0.31905 0.0
C421 C 0.45697 0.38565 0.55395 0.0
N422 N 0.46085 0.42807 0.27365 0.0
N423 N 0.4268 0.32025 0.59552 0.0
H424 H 0.47899 0.42212 0.69532 0.0
H425 H 0.46434 0.37635 0.72769 0.0
H426 H 0.41557 0.29267 0.57178 0.0
H427 H 0.42155 0.32392 0.68003 0.0
H428 H 0.45443 0.42102 0.18803 0.0
H429 H 0.46352 0.45346 0.29472 0.0
H430 H 0.47345 0.3842 0.14866 0.0
H431 H 0.45761 0.33791 0.17989 0.0
C432 C 0.64068 0.08832 0.3978 0.0
C433 C 0.63641 0.05664 0.4556 0.0
C434 C 0.70382 0.08224 0.45284 0.0
C435 C 0.70796 0.11348 0.39305 0.0
N436 N 0.68063 0.14326 0.28762 0.0
N437 N 0.66286 1.01954 0.51522 0.0
C438 C 0.67639 0.11559 0.35925 0.0
C439 C 0.66765 0.05228 0.47541 0.0
N440 N 0.61056 0.09239 0.38001 0.0
N441 N 0.73439 0.08202 0.49354 0.0
H442 H 0.63705 0.99713 0.53364 0.0
H443 H 0.68409 1.01337 0.52043 0.0
H444 H 0.76124 0.10346 0.47867 0.0
H445 H 0.73322 0.06211 0.54917 0.0
H446 H 0.61226 0.11663 0.35095 0.0
H447 H 0.58363 0.07187 0.39924 0.0
H448 H 0.65871 0.14476 0.25087 0.0
H449 H 0.70629 0.16331 0.25642 0.0
C450 C 0.4481 0.07611 0.43845 0.0
C451 C 0.48129 0.10949 0.41375 0.0
C452 C 0.51665 0.08466 0.50899 0.0
C453 C 0.48423 0.0498 0.52292 0.0
N454 N 0.41985 1.01038 0.47118 0.0
N455 N 0.54743 0.13977 0.39391 0.0
C456 C 0.45006 0.04487 0.47926 0.0
C457 C 0.51562 0.11175 0.43882 0.0
N458 N 0.41472 0.07437 0.42781 0.0
N459 N 0.54817 0.09278 0.56715 0.0
H460 H 0.54713 0.15851 0.33595 0.0
H461 H 0.57313 0.14169 0.40363 0.0
H462 H 0.54934 0.07483 0.62647 0.0
H463 H 0.57164 0.11893 0.56667 0.0
H464 H 0.3901 0.05206 0.45691 0.0
H465 H 0.41196 0.09632 0.39841 0.0
H466 H 0.39561 1.00515 0.42986 0.0
H467 H 0.42016 0.98653 0.49415 0.0
C468 C 0.98645 0.40998 0.59262 0.0
C469 C 1.00153 0.44385 0.53154 0.0
C470 C 0.95749 0.41077 0.37452 0.0
C471 C 0.9451 0.37691 0.4319 0.0
N472 N 0.95439 0.34319 0.58139 0.0
N473 N 1.0066 0.47338 0.34768 0.0
C474 C 0.96195 0.37627 0.53617 0.0
C475 C 0.98856 0.44344 0.4177 0.0
N476 N 0.99333 0.40996 0.70665 0.0
N477 N 0.93891 0.41209 0.28028 0.0
H478 H 1.03044 0.49758 0.37017 0.0
H479 H 1.00036 0.47277 0.26134 0.0
H480 H 0.91729 0.38853 0.243 0.0
H481 H 0.94333 0.4367 0.24411 0.0
H482 H 0.98035 0.38633 0.75703 0.0
H483 H 1.00839 0.43402 0.75405 0.0
H484 H 0.96805 0.3408 0.65245 0.0
H485 H 0.93743 0.31833 0.53947 0.0
C486 C 0.63899 0.60178 0.47996 0.0
C487 C 0.60925 0.56751 0.52014 0.0
C488 C 0.64 0.53637 0.43448 0.0
C489 C 0.67251 0.57065 0.41403 0.0
N490 N 0.7044 0.63689 0.4356 0.0
N491 N 0.58724 0.50298 0.55761 0.0
C492 C 0.67246 0.60371 0.44148 0.0
C493 C 0.61138 0.53499 0.50336 0.0
N494 N 0.63496 0.63212 0.47252 0.0
N495 N 0.63621 0.50497 0.38649 0.0
H496 H 0.56777 0.5013 0.61663 0.0
H497 H 0.58969 0.4794 0.55477 0.0
H498 H 0.65589 0.50549 0.33052 0.0
H499 H 0.61188 0.47957 0.39144 0.0
H500 H 0.65462 0.65662 0.43425 0.0
H501 H 0.61046 0.63172 0.49209 0.0
H502 H 0.7066 0.66123 0.46673 0.0
H503 H 0.72939 0.63965 0.40847 0.0
C504 C 0.60502 0.90516 0.67569 0.0
C505 C 0.60686 0.9383 0.71291 0.0
C506 C 0.66653 0.95712 0.80401 0.0
C507 C 0.66183 0.92154 0.78261 0.0
N508 N 0.62504 0.86048 0.70342 0.0
N509 N 0.6381 0.99537 0.81698 0.0
C510 C 0.63089 0.89537 0.71847 0.0
C511 C 0.63743 0.96432 0.77764 0.0
N512 N 0.57866 0.88325 0.59809 0.0
N513 N 0.6995 0.98455 0.84479 0.0
H514 H 0.61799 1.00214 0.79528 0.0
H515 H 0.65727 1.01321 0.8763 0.0
H516 H 0.72193 0.98072 0.8586 0.0
H517 H 0.706 1.01191 0.85267 0.0
H518 H 0.57795 0.86065 0.55851 0.0
H519 H 0.55942 0.88973 0.56484 0.0
H520 H 0.60073 0.83896 0.66984 0.0
H521 H 0.64329 0.85211 0.73205 0.0
C522 C 0.1264 0.70408 0.66793 0.0
C523 C 0.10887 0.67457 0.74686 0.0
C524 C 0.10836 0.71715 0.8901 0.0
C525 C 0.12977 0.74739 0.81582 0.0
N526 N 0.16358 0.77014 0.63973 0.0
N527 N 0.08577 0.65282 0.93583 0.0
C528 C 0.13956 0.74094 0.70554 0.0
C529 C 0.10042 0.68106 0.85857 0.0
N530 N 0.13104 0.69686 0.55723 0.0
N531 N 0.09442 0.72257 0.98905 0.0
H532 H 0.0776 0.62565 0.9138 0.0
H533 H 0.08359 0.65658 0.02274 0.0
H534 H 0.09981 0.74837 0.01666 0.0
H535 H 0.07501 0.70116 0.0395 0.0
H536 H 0.13983 0.71642 0.49235 0.0
H537 H 0.12302 0.6704 0.52777 0.0
H538 H 0.17492 0.76745 0.56375 0.0
H539 H 0.17517 0.79744 0.66625 0.0
C540 C 0.3327 0.42024 0.9018 0.0
C541 C 0.30799 0.39244 0.82546 0.0
C542 C 0.35541 0.41822 0.67517 0.0
C543 C 0.38071 0.44462 0.75381 0.0
N544 N 0.3965 0.46333 0.9498 0.0
N545 N 0.30046 0.35856 0.65086 0.0
C546 C 0.37029 0.44303 0.86986 0.0
C547 C 0.32071 0.38944 0.71547 0.0
N548 N 0.32001 0.42661 0.00188 0.0
N549 N 0.36331 0.42156 0.56116 0.0
H550 H 0.27586 0.33603 0.67903 0.0
H551 H 0.31024 0.35356 0.57497 0.0
H552 H 0.38801 0.44231 0.52698 0.0
H553 H 0.34397 0.40548 0.49941 0.0
H554 H 0.33619 0.44905 0.05455 0.0
H555 H 0.29236 0.41203 0.02656 0.0
H556 H 0.39115 0.46081 0.03721 0.0
H557 H 0.42446 0.47964 0.92938 0.0
C558 C 0.16656 0.39868 0.74839 0.0
C559 C 0.15187 0.38426 0.85935 0.0
C560 C 0.12304 0.42319 0.85919 0.0
C561 C 0.14333 0.44205 0.76076 0.0
N562 N 0.18874 0.45082 0.61944 0.0
N563 N 0.12217 0.39019 0.02929 0.0
C564 C 0.16639 0.4307 0.7077 0.0
C565 C 0.13145 0.39832 0.91698 0.0
N566 N 0.17879 0.38098 0.67809 0.0
N567 N 0.09558 0.42905 0.89752 0.0
H568 H 0.13076 0.37519 0.07879 0.0
H569 H 0.11 0.40231 0.07697 0.0
H570 H 0.08831 0.44634 0.85456 0.0
H571 H 0.07759 0.41364 0.96306 0.0
H572 H 0.18642 0.38877 0.59352 0.0
H573 H 0.17693 0.35589 0.69742 0.0
H574 H 0.20954 0.44654 0.58697 0.0
H575 H 0.18808 0.47336 0.58406 0.0
C576 C 0.67421 0.74734 0.82125 0.0
C577 C 0.66867 0.77655 0.86096 0.0
C578 C 0.60826 0.74605 0.76613 0.0
C579 C 0.61039 0.71369 0.74709 0.0
N580 N 0.64525 0.68239 0.77263 0.0
N581 N 0.62483 0.79735 0.89281 0.0
C582 C 0.64339 0.71396 0.7788 0.0
C583 C 0.63403 0.77404 0.83961 0.0
N584 N 0.70889 0.75182 0.81784 0.0
N585 N 0.58197 0.75046 0.71121 0.0
H586 H 0.64173 0.81664 0.95363 0.0
H587 H 0.59863 0.79451 0.88616 0.0
H588 H 0.56556 0.73224 0.64751 0.0
H589 H 0.58018 0.77434 0.71755 0.0
H590 H 0.71457 0.73266 0.77998 0.0
H591 H 0.73254 0.77626 0.84044 0.0
H592 H 0.66719 0.68028 0.80653 0.0
H593 H 0.62373 0.65762 0.74161 0.0
C594 C 0.31414 0.90522 0.69619 0.0
C595 C 0.34336 0.91071 0.7699 0.0
C596 C 0.30609 0.90891 0.93592 0.0
C597 C 0.2774 0.90488 0.86204 0.0
N598 N 0.26032 0.9119 0.67079 0.0
N599 N 0.37124 0.92912 0.95626 0.0
C600 C 0.28323 0.90674 0.7417 0.0
C601 C 0.34055 0.91614 0.88874 0.0
N602 N 0.31496 0.89709 0.58374 0.0
N603 N 0.30005 0.90424 0.05087 0.0
H604 H 0.39721 0.93632 0.92348 0.0
H605 H 0.37183 0.93669 0.04129 0.0
H606 H 0.27509 0.89833 0.08868 0.0
H607 H 0.31861 0.90293 0.10743 0.0
H608 H 0.29241 0.88867 0.52933 0.0
H609 H 0.33712 0.89601 0.54692 0.0
H610 H 0.265 0.91667 0.58347 0.0
H611 H 0.23926 0.91591 0.70164 0.0
C612 C 0.11929 0.06628 0.15637 0.0
C613 C 0.14241 0.064 0.07183 0.0
C614 C 0.14646 0.11775 0.9752 0.0
C615 C 0.12789 0.12307 0.06851 0.0
N616 N 0.1029 0.10595 0.25915 0.0
N617 N 0.18293 0.09101 0.91002 0.0
C618 C 0.11584 0.09824 0.16207 0.0
C619 C 0.15728 0.09061 0.98336 0.0
N620 N 0.0994 0.03739 0.22877 0.0
N621 N 0.15268 0.13775 0.87725 0.0
H622 H 0.19201 0.07193 0.9141 0.0
H623 H 0.19771 0.11229 0.85215 0.0
H624 H 0.14395 0.15694 0.86631 0.0
H625 H 0.16301 0.1326 0.80286 0.0
H626 H 0.07913 0.03618 0.28338 0.0
H627 H 0.10015 1.01291 0.22607 0.0
H628 H 0.09782 0.09088 0.33433 0.0
H629 H 0.10033 0.12928 0.26828 0.0
C630 C 0.98343 0.06483 0.16514 0.0
C631 C 0.98616 0.08991 0.07881 0.0
C632 C 0.93397 0.03948 0.97769 0.0
C633 C 0.92839 1.01558 0.07098 0.0
N634 N 0.94463 1.00727 0.26246 0.0
N635 N 0.96072 0.10253 0.91147 0.0
C636 C 0.95234 0.02865 0.167 0.0
C637 C 0.96057 0.07761 0.98713 0.0
N638 N 1.01126 0.07493 0.24291 0.0
N639 N 0.91477 0.02549 0.87839 0.0
H640 H 0.97943 0.13076 0.91654 0.0
H641 H 0.94022 0.09573 0.85027 0.0
H642 H 0.89586 0.99752 0.86704 0.0
H643 H 0.92028 0.04084 0.80369 0.0
H644 H 1.01291 0.05635 0.29829 0.0
H645 H 0.03456 0.10108 0.24537 0.0
H646 H 0.95848 1.01718 0.33969 0.0
H647 H 0.92242 0.9805 0.26819 0.0
C648 C 0.98334 0.91319 0.19897 0.0
C649 C 0.96321 0.90714 0.09564 0.0
C650 C 1.01849 0.92087 0.98484 0.0
C651 C 0.03759 0.92399 0.08804 0.0
N652 N 0.03758 0.91844 0.29271 0.0
N653 N 0.96023 0.90228 0.88988 0.0
C654 C 1.01997 0.9192 0.19511 0.0
C655 C 0.98031 0.90987 0.98843 0.0
N656 N 0.96737 0.91305 0.30104 0.0
N657 N 0.03743 0.93005 0.88372 0.0
H658 H 0.93311 0.89708 0.88704 0.0
H659 H 0.96966 0.89905 0.81089 0.0
H660 H 0.06554 0.93873 0.87819 0.0
H661 H 1.02636 0.93224 0.8065 0.0
H662 H 0.98206 0.92227 0.37716 0.0
H663 H 0.93959 0.90538 0.30937 0.0
H664 H 1.02484 0.91089 0.37222 0.0
H665 H 0.06438 0.92267 0.29325 0.0
C666 C 0.82991 0.42657 0.32619 0.0
C667 C 0.8156 0.40066 0.41666 0.0
C668 C 0.7889 0.43527 0.504 0.0
C669 C 0.79991 0.45894 0.40769 0.0
N670 N 0.824 0.47214 0.21548 0.0
N671 N 0.77395 0.37554 0.57742 0.0
C672 C 0.81851 0.45321 0.31535 0.0
C673 C 0.79295 0.4036 0.50165 0.0
N674 N 0.85541 0.42664 0.25296 0.0
N675 N 0.77627 0.44387 0.60017 0.0
H676 H 0.77546 0.35148 0.57801 0.0
H677 H 0.75381 0.37455 0.63215 0.0
H678 H 0.77415 0.46753 0.60735 0.0
H679 H 0.77148 0.42951 0.67672 0.0
H680 H 0.8698 0.44745 0.19334 0.0
H681 H 0.86484 0.40787 0.25903 0.0
H682 H 0.83422 0.46648 0.14178 0.0
H683 H 0.81487 0.49093 0.20249 0.0
C684 C 0.65055 0.39776 0.49884 0.0
C685 C 0.65675 0.42087 0.40283 0.0
C686 C 0.6071 0.3687 0.29978 0.0
C687 C 0.59749 0.34743 0.40136 0.0
N688 N 0.6064 0.34382 0.60353 0.0
N689 N 0.63779 0.42966 0.21612 0.0
C690 C 0.61828 0.36244 0.50258 0.0
C691 C 0.63428 0.40669 0.30408 0.0
N692 N 0.67622 0.40874 0.58424 0.0
N693 N 0.59113 0.3523 0.19834 0.0
H694 H 0.65725 0.4577 0.21545 0.0
H695 H 0.61926 0.42159 0.14818 0.0
H696 H 0.57178 0.32429 0.19122 0.0
H697 H 0.59979 0.36555 0.11982 0.0
H698 H 0.67481 0.39131 0.64991 0.0
H699 H 0.701 0.43378 0.58312 0.0
H700 H 0.61843 0.3553 0.68193 0.0
H701 H 0.58241 0.31825 0.61052 0.0
C702 C 0.64651 0.2332 0.30486 0.0
C703 C 0.63264 0.24439 0.3978 0.0
C704 C 0.69213 0.2695 0.49623 0.0
C705 C 0.7066 0.26002 0.40093 0.0
N706 N 0.70058 0.24102 0.20393 0.0
N707 N 0.6454 0.28248 0.56581 0.0
C708 C 0.68465 0.24426 0.30195 0.0
C709 C 0.65635 0.26526 0.4889 0.0
N710 N 0.62313 0.21091 0.22144 0.0
N711 N 0.71171 0.28092 0.59579 0.0
H712 H 0.61988 0.28121 0.56191 0.0
H713 H 0.66317 0.30129 0.62612 0.0
H714 H 0.73816 0.28468 0.6051 0.0
H715 H 0.70053 0.28385 0.67189 0.0
H716 H 0.63084 0.19815 0.15973 0.0
H717 H 0.59515 0.20278 0.21862 0.0
H718 H 0.68683 0.2331 0.12591 0.0
H719 H 0.7287 0.24982 0.19763 0.0
C720 C 0.45063 0.76545 0.64793 0.0
C721 C 0.46418 0.79094 0.73965 0.0
C722 C 0.49335 0.75815 0.8246 0.0
C723 C 0.48015 0.73283 0.73184 0.0
N724 N 0.4539 0.7175 0.54215 0.0
N725 N 0.50189 0.81502 0.90821 0.0
C726 C 0.4611 0.73799 0.63949 0.0
C727 C 0.48656 0.78826 0.82603 0.0
N728 N 0.42746 0.76734 0.56916 0.0
N729 N 0.51273 0.75352 0.91096 0.0
H730 H 0.49582 0.83624 0.91608 0.0
H731 H 0.52197 0.81751 0.96575 0.0
H732 H 0.5224 0.73492 0.9064 0.0
H733 H 0.5188 0.76749 0.98842 0.0
H734 H 0.41265 0.74683 0.50911 0.0
H735 H 0.4209 0.7883 0.56849 0.0
H736 H 0.44384 0.72275 0.46748 0.0
H737 H 0.46085 0.69708 0.5314 0.0
C738 C 0.2799 0.69786 0.65028 0.0
C739 C 0.26344 0.68076 0.75546 0.0
C740 C 0.30234 0.73855 0.85687 0.0
C741 C 0.32096 0.75496 0.75328 0.0
N742 N 0.33261 0.74782 0.55541 0.0
N743 N 0.26415 0.68204 0.96108 0.0
C744 C 0.3111 0.73405 0.65071 0.0
C745 C 0.27637 0.70022 0.85958 0.0
N746 N 0.26571 0.67952 0.54984 0.0
N747 N 0.30809 0.75992 0.95141 0.0
H748 H 0.24548 0.65384 0.96607 0.0
H749 H 0.27524 0.69408 0.03978 0.0
H750 H 0.32577 0.78841 0.95186 0.0
H751 H 0.29249 0.75011 0.02574 0.0
H752 H 0.27352 0.69213 0.47017 0.0
H753 H 0.24449 0.65209 0.54616 0.0
H754 H 0.32923 0.73214 0.48267 0.0
H755 H 0.35603 0.77391 0.55195 0.0
C756 C 0.3609 0.61163 0.68816 0.0
C757 C 0.37066 0.58915 0.75262 0.0
C758 C 0.30566 0.54879 0.80454 0.0
C759 C 0.29655 0.57351 0.75036 0.0
N760 N 0.31706 0.63246 0.65875 0.0
N761 N 0.35369 0.53985 0.88806 0.0
C762 C 0.32457 0.60607 0.69706 0.0
C763 C 0.34339 0.55872 0.81555 0.0
N764 N 0.38572 0.63708 0.61381 0.0
N765 N 0.27819 0.51513 0.8411 0.0
H766 H 0.38117 0.54674 0.89986 0.0
H767 H 0.3355 0.51968 0.94436 0.0
H768 H 0.25017 0.50643 0.83167 0.0
H769 H 0.28304 0.49444 0.87027 0.0
H770 H 0.37882 0.65142 0.55539 0.0
H771 H 0.41228 0.64123 0.60272 0.0
H772 H 0.3375 0.65851 0.63207 0.0
H773 H 0.29096 0.62977 0.66278 0.0
C774 C 0.14222 0.23296 0.59475 0.0
C775 C 0.13564 0.26137 0.63285 0.0
C776 C 0.12459 0.2735 0.43727 0.0
C777 C 0.12936 0.24405 0.39958 0.0
N778 N 0.13848 0.19271 0.44031 0.0
N779 N 0.11228 0.30282 0.5954 0.0
C780 C 0.1371 0.22293 0.47772 0.0
C781 C 0.12404 0.2797 0.55581 0.0
N782 N 0.15344 0.21571 0.67078 0.0
N783 N 0.12274 0.29683 0.35939 0.0
H784 H 0.11187 0.30866 0.68158 0.0
H785 H 0.0999 0.31378 0.54356 0.0
H786 H 0.12443 0.29379 0.27157 0.0
H787 H 0.12325 0.32115 0.38164 0.0
H788 H 0.1634 0.19833 0.64704 0.0
H789 H 0.154 0.21972 0.75882 0.0
H790 H 0.13954 0.1735 0.49414 0.0
H791 H 0.13655 0.18556 0.35445 0.0
C792 C 0.77507 0.86334 0.43949 0.0
C793 C 0.80782 0.89532 0.40374 0.0
C794 C 0.82584 0.91362 0.6023 0.0
C795 C 0.79205 0.883 0.63826 0.0
N796 N 0.73283 0.82999 0.59417 0.0
N797 N 0.86137 0.95404 0.44694 0.0
C798 C 0.7663 0.85792 0.55774 0.0
C799 C 0.83241 0.92138 0.48403 0.0
N800 N 0.75231 0.8384 0.3599 0.0
N801 N 0.85193 0.93476 0.68173 0.0
H802 H 0.86654 0.96079 0.36077 0.0
H803 H 0.87827 0.97578 0.50081 0.0
H804 H 0.84796 0.9295 0.76916 0.0
H805 H 0.87861 0.95536 0.66123 0.0
H806 H 0.73035 0.81242 0.37974 0.0
H807 H 0.75646 0.84301 0.27222 0.0
H808 H 0.711 0.81334 0.54019 0.0
H809 H 0.72605 0.82428 0.68004 0.0
C810 C 0.15712 0.94125 0.59821 0.0
C811 C 0.16626 0.9142 0.63157 0.0
C812 C 0.16925 0.89946 0.43007 0.0
C813 C 0.15662 0.92382 0.39755 0.0
N814 N 0.13326 0.96413 0.44994 0.0
N815 N 0.17688 0.86426 0.57979 0.0
C816 C 0.14933 0.94391 0.48139 0.0
C817 C 0.17093 0.89223 0.54763 0.0
N818 N 0.15563 0.96429 0.67804 0.0
N819 N 0.18163 0.88474 0.34883 0.0
H820 H 0.18177 0.85984 0.66377 0.0
H821 H 0.17514 0.84418 0.52358 0.0
H822 H 0.18145 0.88984 0.26185 0.0
H823 H 0.19531 0.87034 0.36785 0.0
H824 H 0.15354 0.98736 0.65755 0.0
H825 H 0.15903 0.96193 0.76509 0.0
H826 H 0.12333 0.97595 0.50791 0.0
H827 H 0.12681 0.96657 0.36562 0.0
C828 C 0.81574 0.61383 0.76001 0.0
C829 C 0.79275 0.57654 0.72861 0.0
C830 C 0.77815 0.55906 0.92966 0.0
C831 C 0.80452 0.59566 0.96136 0.0
N832 N 0.85141 0.65741 0.90719 0.0
N833 N 0.75506 0.51249 0.78135 0.0
C834 C 0.82427 0.62287 0.87664 0.0
C835 C 0.77443 0.5488 0.81273 0.0
N836 N 0.82792 0.64087 0.67872 0.0
N837 N 0.75687 0.53402 0.01112 0.0
H838 H 0.75148 0.50374 0.6967 0.0
H839 H 0.74487 0.49073 0.83917 0.0
H840 H 0.7602 0.53973 0.09819 0.0
H841 H 0.7342 0.50833 0.99233 0.0
H842 H 0.84131 0.6689 0.69778 0.0
H843 H 0.82142 0.63536 0.59238 0.0
H844 H 0.87019 0.6765 0.84949 0.0
H845 H 0.85634 0.66657 0.99117 0.0
C846 C 0.43063 0.21022 0.87046 0.0
C847 C 0.4579 0.21716 0.95487 0.0
C848 C 0.5049 0.23499 0.80567 0.0
C849 C 0.47716 0.2263 0.72179 0.0
N850 N 0.41277 0.19841 0.67159 0.0
N851 N 0.51975 0.23125 0.00356 0.0
C852 C 0.4398 0.21206 0.75336 0.0
C853 C 0.49464 0.22782 0.92259 0.0
N854 N 0.39583 0.20191 0.90195 0.0
N855 N 0.54126 0.25168 0.77392 0.0
H856 H 0.51391 0.22816 0.09057 0.0
H857 H 0.54561 0.23468 0.98443 0.0
H858 H 0.54992 0.25713 0.68919 0.0
H859 H 0.56318 0.26272 0.83146 0.0
H860 H 0.37665 0.2022 0.8458 0.0
H861 H 0.38643 0.1959 0.98551 0.0
H862 H 0.38463 0.18368 0.68997 0.0
H863 H 0.41834 0.19873 0.58475 0.0
C864 C 0.86005 0.26387 0.77517 0.0
C865 C 0.82514 0.25706 0.73618 0.0
C866 C 0.80086 0.24372 0.93086 0.0
C867 C 0.83636 0.25191 0.97007 0.0
N868 N 0.90197 0.27922 0.93421 0.0
N869 N 0.76359 0.24567 0.77534 0.0
C870 C 0.86674 0.26515 0.8939 0.0
C871 C 0.79578 0.24831 0.81354 0.0
N872 N 0.88615 0.26706 0.69841 0.0
N873 N 0.77207 0.2316 0.00624 0.0
H874 H 0.75839 0.24759 0.68943 0.0
H875 H 0.74279 0.24374 0.82872 0.0
H876 H 0.77554 0.23172 0.09447 0.0
H877 H 0.74457 0.22039 0.98179 0.0
H878 H 0.91065 0.268 0.72194 0.0
H879 H 0.88165 0.26496 0.61043 0.0
H880 H 0.92529 0.29282 0.88256 0.0
H881 H 0.90839 0.28032 0.02046 0.0
C882 C 0.46602 0.9523 0.21357 0.0
C883 C 0.46567 0.92661 0.29336 0.0
C884 C 0.45678 0.88357 0.13859 0.0
C885 C 0.46099 0.91082 0.05851 0.0
N886 N 0.47229 0.97181 0.0156 0.0
N887 N 0.46274 0.86883 0.3349 0.0
C888 C 0.46611 0.94533 0.09484 0.0
C889 C 0.46149 0.89244 0.25668 0.0
N890 N 0.4663 0.98331 0.25152 0.0
N891 N 0.44724 0.84893 0.10168 0.0
H892 H 0.46368 0.8733 0.42277 0.0
H893 H 0.46459 0.84572 0.31313 0.0
H894 H 0.44421 0.84161 0.01561 0.0
H895 H 0.43979 0.82664 0.15602 0.0
H896 H 0.46274 1.00128 0.1988 0.0
H897 H 0.46732 0.98979 0.3377 0.0
H898 H 0.48006 0.99891 0.03598 0.0
H899 H 0.47212 0.96739 0.92788 0.0
C900 C 0.15274 0.58787 0.26877 0.0
C901 C 0.12599 0.55223 0.30686 0.0
C902 C 0.11689 0.52856 0.11139 0.0
C903 C 0.14197 0.56486 0.07295 0.0
N904 N 0.17942 0.63014 0.1105 0.0
N905 N 0.08352 0.4878 0.26925 0.0
C906 C 0.15858 0.59488 0.15022 0.0
C907 C 0.10859 0.52214 0.22969 0.0
N908 N 0.17382 0.61449 0.34691 0.0
N909 N 0.10048 0.50056 0.0335 0.0
H910 H 0.07798 0.48147 0.35539 0.0
H911 H 0.06724 0.46509 0.21816 0.0
H912 H 0.10278 0.50503 0.94556 0.0
H913 H 0.08438 0.47285 0.05405 0.0
H914 H 0.19643 0.6399 0.32538 0.0
H915 H 0.17116 0.60978 0.43479 0.0
H916 H 0.1887 0.65341 0.16181 0.0
H917 H 0.18496 0.6366 0.02439 0.0
C918 C 0.47998 0.59658 0.25635 0.0
C919 C 0.50354 0.58276 0.28821 0.0
C920 C 0.51288 0.5732 0.08707 0.0
C921 C 0.49051 0.58833 0.05488 0.0
N922 N 0.45503 0.61735 0.10464 0.0
N923 N 0.54729 0.56367 0.23716 0.0
C924 C 0.47478 0.60097 0.13847 0.0
C925 C 0.52138 0.57268 0.20434 0.0
N926 N 0.46182 0.60442 0.33906 0.0
N927 N 0.52553 0.55889 0.0054 0.0
H928 H 0.55457 0.56369 0.3222 0.0
H929 H 0.56395 0.55933 0.18061 0.0
H930 H 0.52075 0.55984 0.91848 0.0
H931 H 0.53856 0.54382 0.02351 0.0
H932 H 0.44123 0.61087 0.32269 0.0
H933 H 0.46617 0.60285 0.426 0.0
H934 H 0.44618 0.63085 0.15972 0.0
H935 H 0.44871 0.61894 0.01947 0.0
loop_
_geom_bond_atom_site_label_1
_geom_bond_atom_site_label_2
_geom_bond_distance
_geom_bond_site_symmetry_2
_ccdc_geom_bond_type
Co0 H3 2.400 1_556 S
Co0 O4 2.009 1_556 S
Co0 O12 2.115 . S
Co0 O13 2.315 1_556 S
Co0 O24 2.053 . S
Co0 O27 2.094 . S
Co0 O30 2.122 . S
Co1 O4 2.126 . S
Co1 H5 2.388 1_554 S
Co1 O6 2.053 1_554 S
Co1 O9 2.047 . S
Co1 O15 2.113 . S
Co1 O26 2.063 . S
Co2 H3 2.388 1_556 S
Co2 O4 2.053 1_556 S
Co2 O6 2.126 . S
Co2 O11 2.063 . S
Co2 O25 2.047 . S
Co2 O31 2.113 . S
H3 Co0 2.400 1_554 S
H3 Co2 2.388 1_554 S
H3 O4 0.760 . S
O4 Co0 2.009 1_554 S
O4 Co1 2.126 . S
O4 Co2 2.053 1_554 S
O4 H3 0.760 . S
H5 Co1 2.388 1_556 S
H5 O6 0.760 . S
H5 Co7 2.400 1_556 S
O6 Co1 2.053 1_556 S
O6 Co2 2.126 . S
O6 H5 0.760 . S
O6 Co7 2.009 1_556 S
Co7 H5 2.400 1_554 S
Co7 O6 2.009 1_554 S
Co7 O8 2.053 . S
Co7 O10 2.094 . S
Co7 O14 2.122 . S
Co7 O28 2.115 . S
Co7 O29 2.315 1_554 S
O8 Co7 2.053 . S
O8 C20 1.259 . S
O9 Co1 2.047 . S
O9 C20 1.257 . S
O10 Co7 2.094 . S
O10 C21 1.253 . S
O11 Co2 2.063 . S
O11 C21 1.268 1_556 S
O12 Co0 2.115 . S
O12 C22 1.281 . S
O13 Co0 2.315 1_554 S
O13 C22 1.252 1_554 S
O14 Co7 2.122 . S
O14 C23 1.272 . S
O15 Co1 2.113 . S
O15 C23 1.245 . S
C16 O24 1.259 . S
C16 O25 1.257 . S
C17 O26 1.268 1_556 S
C17 O27 1.253 . S
C18 O28 1.281 1_655 S
C18 O29 1.252 1_654 S
C19 O30 1.272 . S
C19 O31 1.245 . S
C20 O8 1.259 . S
C20 O9 1.257 . S
C21 O10 1.253 . S
C21 O11 1.268 1_554 S
C22 O12 1.281 . S
C22 O13 1.252 1_556 S
C23 O14 1.272 . S
C23 O15 1.245 . S
O24 Co0 2.053 . S
O24 C16 1.259 . S
O25 Co2 2.047 . S
O25 C16 1.257 . S
O26 Co1 2.063 . S
O26 C17 1.268 1_554 S
O27 Co0 2.094 . S
O27 C17 1.253 . S
O28 Co7 2.115 . S
O28 C18 1.281 1_455 S
O29 Co7 2.315 1_556 S
O29 C18 1.252 1_456 S
O30 Co0 2.122 . S
O30 C19 1.272 . S
O31 Co2 2.113 . S
O31 C19 1.245 . S
Co32 H35 2.400 1_556 S
Co32 O36 2.009 1_556 S
Co32 O44 2.115 . S
Co32 O45 2.315 1_556 S
Co32 O56 2.053 . S
Co32 O59 2.094 . S
Co32 O62 2.122 . S
Co33 O36 2.126 . S
Co33 H37 2.388 1_554 S
Co33 O38 2.053 1_554 S
Co33 O41 2.047 . S
Co33 O47 2.113 . S
Co33 O58 2.063 . S
Co34 H35 2.388 1_556 S
Co34 O36 2.053 1_556 S
Co34 O38 2.126 . S
Co34 O43 2.063 . S
Co34 O57 2.047 . S
Co34 O63 2.113 . S
H35 Co32 2.400 1_554 S
H35 Co34 2.388 1_554 S
H35 O36 0.760 . S
O36 Co32 2.009 1_554 S
O36 Co33 2.126 . S
O36 Co34 2.053 1_554 S
O36 H35 0.760 . S
H37 Co33 2.388 1_556 S
H37 O38 0.760 . S
H37 Co39 2.400 1_556 S
O38 Co33 2.053 1_556 S
O38 Co34 2.126 . S
O38 H37 0.760 . S
O38 Co39 2.009 1_556 S
Co39 H37 2.400 1_554 S
Co39 O38 2.009 1_554 S
Co39 O40 2.053 . S
Co39 O42 2.094 . S
Co39 O46 2.122 . S
Co39 O60 2.115 . S
Co39 O61 2.315 1_554 S
O40 Co39 2.053 . S
O40 C52 1.259 . S
O41 Co33 2.047 . S
O41 C52 1.257 . S
O42 Co39 2.094 . S
O42 C53 1.253 . S
O43 Co34 2.063 . S
O43 C53 1.268 1_556 S
O44 Co32 2.115 . S
O44 C54 1.281 . S
O45 Co32 2.315 1_554 S
O45 C54 1.252 1_554 S
O46 Co39 2.122 . S
O46 C55 1.272 . S
O47 Co33 2.113 . S
O47 C55 1.245 . S
C48 O56 1.259 . S
C48 O57 1.257 . S
C49 O58 1.268 1_556 S
C49 O59 1.253 . S
C50 O60 1.281 . S
C50 O61 1.252 1_554 S
C51 O62 1.272 . S
C51 O63 1.245 . S
C52 O40 1.259 . S
C52 O41 1.257 . S
C53 O42 1.253 . S
C53 O43 1.268 1_554 S
C54 O44 1.281 . S
C54 O45 1.252 1_556 S
C55 O46 1.272 . S
C55 O47 1.245 . S
O56 Co32 2.053 . S
O56 C48 1.259 . S
O57 Co34 2.047 . S
O57 C48 1.257 . S
O58 Co33 2.063 . S
O58 C49 1.268 1_554 S
O59 Co32 2.094 . S
O59 C49 1.253 . S
O60 Co39 2.115 . S
O60 C50 1.281 . S
O61 Co39 2.315 1_556 S
O61 C50 1.252 1_556 S
O62 Co32 2.122 . S
O62 C51 1.272 . S
O63 Co34 2.113 . S
O63 C51 1.245 . S
Co64 H67 2.400 1_556 S
Co64 O68 2.009 1_556 S
Co64 O76 2.115 . S
Co64 O77 2.315 1_556 S
Co64 O88 2.053 . S
Co64 O91 2.094 . S
Co64 O94 2.122 . S
Co65 O68 2.126 . S
Co65 H69 2.388 1_554 S
Co65 O70 2.053 1_554 S
Co65 O73 2.047 . S
Co65 O79 2.113 . S
Co65 O90 2.063 . S
Co66 H67 2.388 1_556 S
Co66 O68 2.053 1_556 S
Co66 O70 2.126 . S
Co66 O75 2.063 . S
Co66 O89 2.047 . S
Co66 O95 2.113 . S
H67 Co64 2.400 1_554 S
H67 Co66 2.388 1_554 S
H67 O68 0.760 . S
O68 Co64 2.009 1_554 S
O68 Co65 2.126 . S
O68 Co66 2.053 1_554 S
O68 H67 0.760 . S
H69 Co65 2.388 1_556 S
H69 O70 0.760 . S
H69 Co71 2.400 1_556 S
O70 Co65 2.053 1_556 S
O70 Co66 2.126 . S
O70 H69 0.760 . S
O70 Co71 2.009 1_556 S
Co71 H69 2.400 1_554 S
Co71 O70 2.009 1_554 S
Co71 O72 2.053 . S
Co71 O74 2.094 . S
Co71 O78 2.122 . S
Co71 O92 2.115 . S
Co71 O93 2.315 1_554 S
O72 Co71 2.053 . S
O72 C84 1.259 . S
O73 Co65 2.047 . S
O73 C84 1.257 . S
O74 Co71 2.094 . S
O74 C85 1.253 . S
O75 Co66 2.063 . S
O75 C85 1.268 1_556 S
O76 Co64 2.115 . S
O76 C86 1.281 . S
O77 Co64 2.315 1_554 S
O77 C86 1.252 1_554 S
O78 Co71 2.122 . S
O78 C87 1.272 . S
O79 Co65 2.113 . S
O79 C87 1.245 . S
C80 O88 1.259 . S
C80 O89 1.257 . S
C81 O90 1.268 1_556 S
C81 O91 1.253 . S
C82 O92 1.281 1_545 S
C82 O93 1.252 1_544 S
C83 O94 1.272 . S
C83 O95 1.245 . S
C84 O72 1.259 . S
C84 O73 1.257 . S
C85 O74 1.253 . S
C85 O75 1.268 1_554 S
C86 O76 1.281 . S
C86 O77 1.252 1_556 S
C87 O78 1.272 . S
C87 O79 1.245 . S
O88 Co64 2.053 . S
O88 C80 1.259 . S
O89 Co66 2.047 . S
O89 C80 1.257 . S
O90 Co65 2.063 . S
O90 C81 1.268 1_554 S
O91 Co64 2.094 . S
O91 C81 1.253 . S
O92 Co71 2.115 . S
O92 C82 1.281 1_565 S
O93 Co71 2.315 1_556 S
O93 C82 1.252 1_566 S
O94 Co64 2.122 . S
O94 C83 1.272 . S
O95 Co66 2.113 . S
O95 C83 1.245 . S
Co96 H99 2.400 . S
Co96 O100 2.009 . S
Co96 O108 2.115 . S
Co96 O109 2.315 . S
Co96 O120 2.053 . S
Co96 O123 2.094 . S
Co96 O126 2.122 . S
Co97 O100 2.126 . S
Co97 H101 2.388 . S
Co97 O102 2.053 . S
Co97 O105 2.047 . S
Co97 O111 2.113 . S
Co97 O122 2.063 . S
Co98 H99 2.388 . S
Co98 O100 2.053 . S
Co98 O102 2.126 . S
Co98 O107 2.063 . S
Co98 O121 2.047 . S
Co98 O127 2.113 . S
H99 Co96 2.400 . S
H99 Co98 2.388 . S
H99 O100 0.760 . S
O100 Co96 2.009 . S
O100 Co97 2.126 . S
O100 Co98 2.053 . S
O100 H99 0.760 . S
H101 Co97 2.388 . S
H101 O102 0.760 . S
H101 Co103 2.400 . S
O102 Co97 2.053 . S
O102 Co98 2.126 . S
O102 H101 0.760 . S
O102 Co103 2.009 . S
Co103 H101 2.400 . S
Co103 O102 2.009 . S
Co103 O104 2.053 . S
Co103 O106 2.094 . S
Co103 O110 2.122 . S
Co103 O124 2.115 . S
Co103 O125 2.315 . S
O104 Co103 2.053 . S
O104 C116 1.259 . S
O105 Co97 2.047 . S
O105 C116 1.257 . S
O106 Co103 2.094 . S
O106 C117 1.253 . S
O107 Co98 2.063 . S
O107 C117 1.268 . S
O108 Co96 2.115 . S
O108 C118 1.281 . S
O109 Co96 2.315 . S
O109 C118 1.252 . S
O110 Co103 2.122 . S
O110 C119 1.272 . S
O111 Co97 2.113 . S
O111 C119 1.245 . S
C112 O120 1.259 . S
C112 O121 1.257 . S
C113 O122 1.268 . S
C113 O123 1.253 . S
C114 O124 1.281 . S
C114 O125 1.252 . S
C115 O126 1.272 . S
C115 O127 1.245 . S
C116 O104 1.259 . S
C116 O105 1.257 . S
C117 O106 1.253 . S
C117 O107 1.268 . S
C118 O108 1.281 . S
C118 O109 1.252 . S
C119 O110 1.272 . S
C119 O111 1.245 . S
O120 Co96 2.053 . S
O120 C112 1.259 . S
O121 Co98 2.047 . S
O121 C112 1.257 . S
O122 Co97 2.063 . S
O122 C113 1.268 . S
O123 Co96 2.094 . S
O123 C113 1.253 . S
O124 Co103 2.115 . S
O124 C114 1.281 . S
O125 Co103 2.315 . S
O125 C114 1.252 . S
O126 Co96 2.122 . S
O126 C115 1.272 . S
O127 Co98 2.113 . S
O127 C115 1.245 . S
Co128 H131 2.400 . S
Co128 O132 2.009 . S
Co128 O140 2.115 . S
Co128 O141 2.315 . S
Co128 O152 2.053 . S
Co128 O155 2.094 . S
Co128 O158 2.122 . S
Co129 O132 2.126 . S
Co129 H133 2.388 . S
Co129 O134 2.053 . S
Co129 O137 2.047 . S
Co129 O143 2.113 . S
Co129 O154 2.063 . S
Co130 H131 2.388 . S
Co130 O132 2.053 . S
Co130 O134 2.126 . S
Co130 O139 2.063 . S
Co130 O153 2.047 . S
Co130 O159 2.113 . S
H131 Co128 2.400 . S
H131 Co130 2.388 . S
H131 O132 0.760 . S
O132 Co128 2.009 . S
O132 Co129 2.126 . S
O132 Co130 2.053 . S
O132 H131 0.760 . S
H133 Co129 2.388 . S
H133 O134 0.760 . S
H133 Co135 2.400 . S
O134 Co129 2.053 . S
O134 Co130 2.126 . S
O134 H133 0.760 . S
O134 Co135 2.009 . S
Co135 H133 2.400 . S
Co135 O134 2.009 . S
Co135 O136 2.053 . S
Co135 O138 2.094 . S
Co135 O142 2.122 . S
Co135 O156 2.115 . S
Co135 O157 2.315 . S
O136 Co135 2.053 . S
O136 C148 1.259 . S
O137 Co129 2.047 . S
O137 C148 1.257 . S
O138 Co135 2.094 . S
O138 C149 1.253 . S
O139 Co130 2.063 . S
O139 C149 1.268 . S
O140 Co128 2.115 . S
O140 C150 1.281 . S
O141 Co128 2.315 . S
O141 C150 1.252 . S
O142 Co135 2.122 . S
O142 C151 1.272 . S
O143 Co129 2.113 . S
O143 C151 1.245 . S
C144 O152 1.259 . S
C144 O153 1.257 . S
C145 O154 1.268 . S
C145 O155 1.253 . S
C146 O156 1.281 . S
C146 O157 1.252 . S
C147 O158 1.272 . S
C147 O159 1.245 . S
C148 O136 1.259 . S
C148 O137 1.257 . S
C149 O138 1.253 . S
C149 O139 1.268 . S
C150 O140 1.281 . S
C150 O141 1.252 . S
C151 O142 1.272 . S
C151 O143 1.245 . S
O152 Co128 2.053 . S
O152 C144 1.259 . S
O153 Co130 2.047 . S
O153 C144 1.257 . S
O154 Co129 2.063 . S
O154 C145 1.268 . S
O155 Co128 2.094 . S
O155 C145 1.253 . S
O156 Co135 2.115 . S
O156 C146 1.281 . S
O157 Co135 2.315 . S
O157 C146 1.252 . S
O158 Co128 2.122 . S
O158 C147 1.272 . S
O159 Co130 2.113 . S
O159 C147 1.245 . S
Co160 H163 2.400 . S
Co160 O164 2.009 . S
Co160 O172 2.115 . S
Co160 O173 2.315 . S
Co160 O184 2.053 . S
Co160 O187 2.094 . S
Co160 O190 2.122 . S
Co161 O164 2.126 . S
Co161 H165 2.388 . S
Co161 O166 2.053 . S
Co161 O169 2.047 . S
Co161 O175 2.113 . S
Co161 O186 2.063 . S
Co162 H163 2.388 . S
Co162 O164 2.053 . S
Co162 O166 2.126 . S
Co162 O171 2.063 . S
Co162 O185 2.047 . S
Co162 O191 2.113 . S
H163 Co160 2.400 . S
H163 Co162 2.388 . S
H163 O164 0.760 . S
O164 Co160 2.009 . S
O164 Co161 2.126 . S
O164 Co162 2.053 . S
O164 H163 0.760 . S
H165 Co161 2.388 . S
H165 O166 0.760 . S
H165 Co167 2.400 . S
O166 Co161 2.053 . S
O166 Co162 2.126 . S
O166 H165 0.760 . S
O166 Co167 2.009 . S
Co167 H165 2.400 . S
Co167 O166 2.009 . S
Co167 O168 2.053 . S
Co167 O170 2.094 . S
Co167 O174 2.122 . S
Co167 O188 2.115 . S
Co167 O189 2.315 . S
O168 Co167 2.053 . S
O168 C180 1.259 . S
O169 Co161 2.047 . S
O169 C180 1.257 . S
O170 Co167 2.094 . S
O170 C181 1.253 . S
O171 Co162 2.063 . S
O171 C181 1.268 . S
O172 Co160 2.115 . S
O172 C182 1.281 . S
O173 Co160 2.315 . S
O173 C182 1.252 . S
O174 Co167 2.122 . S
O174 C183 1.272 . S
O175 Co161 2.113 . S
O175 C183 1.245 . S
C176 O184 1.259 . S
C176 O185 1.257 . S
C177 O186 1.268 . S
C177 O187 1.253 . S
C178 O188 1.281 . S
C178 O189 1.252 . S
C179 O190 1.272 . S
C179 O191 1.245 . S
C180 O168 1.259 . S
C180 O169 1.257 . S
C181 O170 1.253 . S
C181 O171 1.268 . S
C182 O172 1.281 . S
C182 O173 1.252 . S
C183 O174 1.272 . S
C183 O175 1.245 . S
O184 Co160 2.053 . S
O184 C176 1.259 . S
O185 Co162 2.047 . S
O185 C176 1.257 . S
O186 Co161 2.063 . S
O186 C177 1.268 . S
O187 Co160 2.094 . S
O187 C177 1.253 . S
O188 Co167 2.115 . S
O188 C178 1.281 . S
O189 Co167 2.315 . S
O189 C178 1.252 . S
O190 Co160 2.122 . S
O190 C179 1.272 . S
O191 Co162 2.113 . S
O191 C179 1.245 . S
Co192 H195 2.400 . S
Co192 O196 2.009 . S
Co192 O204 2.112 1_565 S
Co192 O205 2.307 1_565 S
Co192 O216 2.053 . S
Co192 O219 2.094 . S
Co192 O222 2.122 . S
Co193 O196 2.126 . S
Co193 H197 2.388 . S
Co193 O198 2.053 . S
Co193 O201 2.047 . S
Co193 O207 2.113 . S
Co193 O218 2.063 . S
Co194 H195 2.388 . S
Co194 O196 2.053 . S
Co194 O198 2.126 . S
Co194 O203 2.063 . S
Co194 O217 2.047 . S
Co194 O223 2.113 . S
H195 Co192 2.400 . S
H195 Co194 2.388 . S
H195 O196 0.760 . S
O196 Co192 2.009 . S
O196 Co193 2.126 . S
O196 Co194 2.053 . S
O196 H195 0.760 . S
H197 Co193 2.388 . S
H197 O198 0.760 . S
H197 Co199 2.400 . S
O198 Co193 2.053 . S
O198 Co194 2.126 . S
O198 H197 0.760 . S
O198 Co199 2.009 . S
Co199 H197 2.400 . S
Co199 O198 2.009 . S
Co199 O200 2.053 . S
Co199 O202 2.094 . S
Co199 O206 2.122 . S
Co199 O220 2.115 . S
Co199 O221 2.315 . S
O200 Co199 2.053 . S
O200 C212 1.259 . S
O201 Co193 2.047 . S
O201 C212 1.257 . S
O202 Co199 2.094 . S
O202 C213 1.253 . S
O203 Co194 2.063 . S
O203 C213 1.268 . S
O204 Co192 2.112 1_545 S
O204 C214 1.282 . S
O205 Co192 2.307 1_545 S
O205 C214 1.254 . S
O206 Co199 2.122 . S
O206 C215 1.272 . S
O207 Co193 2.113 . S
O207 C215 1.245 . S
C208 O216 1.259 . S
C208 O217 1.257 . S
C209 O218 1.268 . S
C209 O219 1.253 . S
C210 O220 1.281 . S
C210 O221 1.252 . S
C211 O222 1.272 . S
C211 O223 1.245 . S
C212 O200 1.259 . S
C212 O201 1.257 . S
C213 O202 1.253 . S
C213 O203 1.268 . S
C214 O204 1.282 . S
C214 O205 1.254 . S
C215 O206 1.272 . S
C215 O207 1.245 . S
O216 Co192 2.053 . S
O216 C208 1.259 . S
O217 Co194 2.047 . S
O217 C208 1.257 . S
O218 Co193 2.063 . S
O218 C209 1.268 . S
O219 Co192 2.094 . S
O219 C209 1.253 . S
O220 Co199 2.115 . S
O220 C210 1.281 . S
O221 Co199 2.315 . S
O221 C210 1.252 . S
O222 Co192 2.122 . S
O222 C211 1.272 . S
O223 Co194 2.113 . S
O223 C211 1.245 . S
Co224 H227 2.400 . S
Co224 O228 2.009 . S
Co224 O236 2.107 1_455 S
Co224 O237 2.297 1_455 S
Co224 O248 2.053 . S
Co224 O251 2.094 . S
Co224 O254 2.122 . S
Co225 O228 2.126 . S
Co225 H229 2.388 . S
Co225 O230 2.053 . S
Co225 O233 2.047 . S
Co225 O239 2.113 . S
Co225 O250 2.063 . S
Co226 H227 2.388 . S
Co226 O228 2.053 . S
Co226 O230 2.126 . S
Co226 O235 2.063 . S
Co226 O249 2.047 . S
Co226 O255 2.113 . S
H227 Co224 2.400 . S
H227 Co226 2.388 . S
H227 O228 0.760 . S
O228 Co224 2.009 . S
O228 Co225 2.126 . S
O228 Co226 2.053 . S
O228 H227 0.760 . S
H229 Co225 2.388 . S
H229 O230 0.760 . S
H229 Co231 2.400 . S
O230 Co225 2.053 . S
O230 Co226 2.126 . S
O230 H229 0.760 . S
O230 Co231 2.009 . S
Co231 H229 2.400 . S
Co231 O230 2.009 . S
Co231 O232 2.053 . S
Co231 O234 2.094 . S
Co231 O238 2.122 . S
Co231 O252 2.115 . S
Co231 O253 2.315 . S
O232 Co231 2.053 . S
O232 C244 1.259 . S
O233 Co225 2.047 . S
O233 C244 1.257 . S
O234 Co231 2.094 . S
O234 C245 1.253 . S
O235 Co226 2.063 . S
O235 C245 1.268 . S
O236 Co224 2.107 1_655 S
O236 C246 1.285 . S
O237 Co224 2.297 1_655 S
O237 C246 1.262 . S
O238 Co231 2.122 . S
O238 C247 1.272 . S
O239 Co225 2.113 . S
O239 C247 1.245 . S
C240 O248 1.259 . S
C240 O249 1.257 . S
C241 O250 1.268 . S
C241 O251 1.253 . S
C242 O252 1.281 . S
C242 O253 1.252 . S
C243 O254 1.272 . S
C243 O255 1.245 . S
C244 O232 1.259 . S
C244 O233 1.257 . S
C245 O234 1.253 . S
C245 O235 1.268 . S
C246 O236 1.285 . S
C246 O237 1.262 . S
C247 O238 1.272 . S
C247 O239 1.245 . S
O248 Co224 2.053 . S
O248 C240 1.259 . S
O249 Co226 2.047 . S
O249 C240 1.257 . S
O250 Co225 2.063 . S
O250 C241 1.268 . S
O251 Co224 2.094 . S
O251 C241 1.253 . S
O252 Co231 2.115 . S
O252 C242 1.281 . S
O253 Co231 2.315 . S
O253 C242 1.252 . S
O254 Co224 2.122 . S
O254 C243 1.272 . S
O255 Co226 2.113 . S
O255 C243 1.245 . S
Co256 H259 2.400 . S
Co256 O260 2.009 . S
Co256 O268 2.115 . S
Co256 O269 2.315 . S
Co256 O280 2.053 . S
Co256 O283 2.094 . S
Co256 O286 2.122 . S
Co257 O260 2.126 . S
Co257 H261 2.388 . S
Co257 O262 2.053 . S
Co257 O265 2.047 . S
Co257 O271 2.113 . S
Co257 O282 2.063 . S
Co258 H259 2.388 . S
Co258 O260 2.053 . S
Co258 O262 2.126 . S
Co258 O267 2.063 . S
Co258 O281 2.047 . S
Co258 O287 2.113 . S
H259 Co256 2.400 . S
H259 Co258 2.388 . S
H259 O260 0.760 . S
O260 Co256 2.009 . S
O260 Co257 2.126 . S
O260 Co258 2.053 . S
O260 H259 0.760 . S
H261 Co257 2.388 . S
H261 O262 0.760 . S
H261 Co263 2.400 . S
O262 Co257 2.053 . S
O262 Co258 2.126 . S
O262 H261 0.760 . S
O262 Co263 2.009 . S
Co263 H261 2.400 . S
Co263 O262 2.009 . S
Co263 O264 2.053 . S
Co263 O266 2.094 . S
Co263 O270 2.122 . S
Co263 O284 2.115 . S
Co263 O285 2.315 . S
O264 Co263 2.053 . S
O264 C276 1.259 . S
O265 Co257 2.047 . S
O265 C276 1.257 . S
O266 Co263 2.094 . S
O266 C277 1.253 . S
O267 Co258 2.063 . S
O267 C277 1.268 . S
O268 Co256 2.115 . S
O268 C278 1.281 . S
O269 Co256 2.315 . S
O269 C278 1.252 . S
O270 Co263 2.122 . S
O270 C279 1.272 . S
O271 Co257 2.113 . S
O271 C279 1.245 . S
C272 O280 1.259 . S
C272 O281 1.257 . S
C273 O282 1.268 . S
C273 O283 1.253 . S
C274 O284 1.281 . S
C274 O285 1.252 . S
C275 O286 1.272 . S
C275 O287 1.245 . S
C276 O264 1.259 . S
C276 O265 1.257 . S
C277 O266 1.253 . S
C277 O267 1.268 . S
C278 O268 1.281 . S
C278 O269 1.252 . S
C279 O270 1.272 . S
C279 O271 1.245 . S
O280 Co256 2.053 . S
O280 C272 1.259 . S
O281 Co258 2.047 . S
O281 C272 1.257 . S
O282 Co257 2.063 . S
O282 C273 1.268 . S
O283 Co256 2.094 . S
O283 C273 1.253 . S
O284 Co263 2.115 . S
O284 C274 1.281 . S
O285 Co263 2.315 . S
O285 C274 1.252 . S
O286 Co256 2.122 . S
O286 C275 1.272 . S
O287 Co258 2.113 . S
O287 C275 1.245 . S
C288 C289 1.363 . S
C288 C294 1.379 . S
C288 N296 1.356 . S
C289 C288 1.363 . S
C289 C295 1.363 . S
C290 C291 1.363 . S
C290 C295 1.379 . S
C290 N297 1.356 . S
C291 C290 1.363 . S
C291 C294 1.363 . S
N292 C294 1.356 . S
N292 H304 0.984 . S
N292 H305 0.985 . S
N293 C295 1.356 1_556 S
N293 H298 0.984 . S
N293 H299 0.985 . S
C294 C288 1.379 . S
C294 C291 1.363 . S
C294 N292 1.356 . S
C295 C289 1.363 . S
C295 C290 1.379 . S
C295 N293 1.356 1_554 S
N296 C288 1.356 . S
N296 H302 0.984 . S
N296 H303 0.984 . S
N297 C290 1.356 . S
N297 H300 0.984 . S
N297 H301 0.985 . S
H298 N293 0.984 . S
H299 N293 0.985 . S
H300 N297 0.984 . S
H301 N297 0.985 . S
H302 N296 0.984 . S
H303 N296 0.984 . S
H304 N292 0.984 . S
H305 N292 0.985 . S
C306 C307 1.363 . S
C306 C312 1.379 . S
C306 N314 1.356 . S
C307 C306 1.363 . S
C307 C313 1.363 . S
C308 C309 1.366 1_545 S
C308 C313 1.379 . S
C308 N315 1.356 1_545 S
C309 C308 1.366 1_565 S
C309 C312 1.336 1_565 S
N310 C312 1.356 1_556 S
N310 H322 0.984 . S
N310 H323 0.985 1_545 S
N311 C313 1.356 . S
N311 H316 0.984 . S
N311 H317 0.985 . S
C312 C306 1.379 . S
C312 C309 1.336 1_545 S
C312 N310 1.356 1_554 S
C313 C307 1.363 . S
C313 C308 1.379 . S
C313 N311 1.356 . S
N314 C306 1.356 . S
N314 H320 0.984 . S
N314 H321 0.984 . S
N315 C308 1.356 1_565 S
N315 H318 0.984 . S
N315 H319 0.985 . S
H316 N311 0.984 . S
H317 N311 0.985 . S
H318 N315 0.984 . S
H319 N315 0.985 . S
H320 N314 0.984 . S
H321 N314 0.984 . S
H322 N310 0.984 . S
H323 N310 0.985 1_565 S
C324 C325 1.353 1_655 S
C324 C330 1.379 . S
C324 N332 1.356 1_554 S
C325 C324 1.353 1_455 S
C325 C331 1.359 . S
C326 C327 1.363 . S
C326 C331 1.376 1_655 S
C326 N333 1.356 . S
C327 C326 1.363 . S
C327 C330 1.363 . S
N328 C330 1.356 . S
N328 H340 0.984 . S
N328 H341 0.985 . S
N329 C331 1.358 . S
N329 H334 0.984 . S
N329 H335 0.985 . S
C330 C324 1.379 . S
C330 C327 1.363 . S
C330 N328 1.356 . S
C331 C325 1.359 . S
C331 C326 1.376 1_455 S
C331 N329 1.358 . S
N332 C324 1.356 1_556 S
N332 H338 0.984 . S
N332 H339 0.984 1_655 S
N333 C326 1.356 . S
N333 H336 0.984 . S
N333 H337 0.985 . S
H334 N329 0.984 . S
H335 N329 0.985 . S
H336 N333 0.984 . S
H337 N333 0.985 . S
H338 N332 0.984 . S
H339 N332 0.984 1_455 S
H340 N328 0.984 . S
H341 N328 0.985 . S
C342 C343 1.368 . S
C342 C348 1.383 . S
C342 N350 1.347 1_554 S
C343 C342 1.368 . S
C343 C349 1.363 . S
C344 C345 1.363 . S
C344 C349 1.379 . S
C344 N351 1.356 . S
C345 C344 1.363 . S
C345 C348 1.363 . S
N346 C348 1.356 . S
N346 H358 0.984 1_554 S
N346 H359 0.985 . S
N347 C349 1.356 . S
N347 H352 0.984 . S
N347 H353 0.985 . S
C348 C342 1.383 . S
C348 C345 1.363 . S
C348 N346 1.356 . S
C349 C343 1.363 . S
C349 C344 1.379 . S
C349 N347 1.356 . S
N350 C342 1.347 1_556 S
N350 H356 0.984 . S
N350 H357 0.984 . S
N351 C344 1.356 . S
N351 H354 0.984 . S
N351 H355 0.985 . S
H352 N347 0.984 . S
H353 N347 0.985 . S
H354 N351 0.984 . S
H355 N351 0.985 . S
H356 N350 0.984 . S
H357 N350 0.984 . S
H358 N346 0.984 1_556 S
H359 N346 0.985 . S
C360 C361 1.363 1_556 S
C360 C366 1.379 1_556 S
C360 N368 1.356 . S
C361 C360 1.363 1_554 S
C361 C367 1.363 . S
C362 C363 1.363 . S
C362 C367 1.379 . S
C362 N369 1.356 . S
C363 C362 1.363 . S
C363 C366 1.363 . S
N364 C366 1.356 . S
N364 H376 0.984 1_554 S
N364 H377 0.985 . S
N365 C367 1.356 . S
N365 H370 0.984 1_545 S
N365 H371 0.985 . S
C366 C360 1.379 1_554 S
C366 C363 1.363 . S
C366 N364 1.356 . S
C367 C361 1.363 . S
C367 C362 1.379 . S
C367 N365 1.356 . S
N368 C360 1.356 . S
N368 H374 0.984 . S
N368 H375 0.984 . S
N369 C362 1.356 . S
N369 H372 0.984 . S
N369 H373 0.985 . S
H370 N365 0.984 1_565 S
H371 N365 0.985 . S
H372 N369 0.984 . S
H373 N369 0.985 . S
H374 N368 0.984 . S
H375 N368 0.984 . S
H376 N364 0.984 1_556 S
H377 N364 0.985 . S
C378 C379 1.363 . S
C378 C384 1.379 . S
C378 N386 1.356 1_655 S
C379 C378 1.363 . S
C379 C385 1.363 . S
C380 C381 1.363 . S
C380 C385 1.379 . S
C380 N387 1.356 . S
C381 C380 1.363 . S
C381 C384 1.363 . S
N382 C384 1.356 . S
N382 H394 0.984 . S
N382 H395 0.985 . S
N383 C385 1.356 1_556 S
N383 H388 0.984 . S
N383 H389 0.985 . S
C384 C378 1.379 . S
C384 C381 1.363 . S
C384 N382 1.356 . S
C385 C379 1.363 . S
C385 C380 1.379 . S
C385 N383 1.356 1_554 S
N386 C378 1.356 1_455 S
N386 H392 0.984 . S
N386 H393 0.984 . S
N387 C380 1.356 . S
N387 H390 0.984 . S
N387 H391 0.985 . S
H388 N383 0.984 . S
H389 N383 0.985 . S
H390 N387 0.984 . S
H391 N387 0.985 . S
H392 N386 0.984 . S
H393 N386 0.984 . S
H394 N382 0.984 . S
H395 N382 0.985 . S
C396 C397 1.363 . S
C396 C402 1.379 . S
C396 N404 1.356 . S
C397 C396 1.363 . S
C397 C403 1.363 . S
C398 C399 1.363 . S
C398 C403 1.379 . S
C398 N405 1.356 . S
C399 C398 1.363 . S
C399 C402 1.363 . S
N400 C402 1.356 1_455 S
N400 H412 0.984 . S
N400 H413 0.985 . S
N401 C403 1.356 . S
N401 H406 0.984 . S
N401 H407 0.985 . S
C402 C396 1.379 . S
C402 C399 1.363 . S
C402 N400 1.356 1_655 S
C403 C397 1.363 . S
C403 C398 1.379 . S
C403 N401 1.356 . S
N404 C396 1.356 . S
N404 H410 0.984 . S
N404 H411 0.984 . S
N405 C398 1.356 . S
N405 H408 0.984 . S
N405 H409 0.985 . S
H406 N401 0.984 . S
H407 N401 0.985 . S
H408 N405 0.984 . S
H409 N405 0.985 . S
H410 N404 0.984 . S
H411 N404 0.984 . S
H412 N400 0.984 . S
H413 N400 0.985 . S
C414 C415 1.363 . S
C414 C420 1.379 . S
C414 N422 1.356 . S
C415 C414 1.363 . S
C415 C421 1.363 . S
C416 C417 1.363 . S
C416 C421 1.379 . S
C416 N423 1.356 . S
C417 C416 1.363 . S
C417 C420 1.363 . S
N418 C420 1.356 . S
N418 H430 0.984 . S
N418 H431 0.985 . S
N419 C421 1.356 . S
N419 H424 0.984 . S
N419 H425 0.985 . S
C420 C414 1.379 . S
C420 C417 1.363 . S
C420 N418 1.356 . S
C421 C415 1.363 . S
C421 C416 1.379 . S
C421 N419 1.356 . S
N422 C414 1.356 . S
N422 H428 0.984 . S
N422 H429 0.984 . S
N423 C416 1.356 . S
N423 H426 0.984 . S
N423 H427 0.985 . S
H424 N419 0.984 . S
H425 N419 0.985 . S
H426 N423 0.984 . S
H427 N423 0.985 . S
H428 N422 0.984 . S
H429 N422 0.984 . S
H430 N418 0.984 . S
H431 N418 0.985 . S
C432 C433 1.363 . S
C432 C438 1.379 . S
C432 N440 1.356 . S
C433 C432 1.363 . S
C433 C439 1.363 . S
C434 C435 1.363 . S
C434 C439 1.379 . S
C434 N441 1.356 . S
C435 C434 1.363 . S
C435 C438 1.363 . S
N436 C438 1.356 . S
N436 H448 0.984 . S
N436 H449 0.985 . S
N437 C439 1.356 1_565 S
N437 H442 0.984 . S
N437 H443 0.985 . S
C438 C432 1.379 . S
C438 C435 1.363 . S
C438 N436 1.356 . S
C439 C433 1.363 . S
C439 C434 1.379 . S
C439 N437 1.356 1_545 S
N440 C432 1.356 . S
N440 H446 0.984 . S
N440 H447 0.984 . S
N441 C434 1.356 . S
N441 H444 0.984 . S
N441 H445 0.985 . S
H442 N437 0.984 . S
H443 N437 0.985 . S
H444 N441 0.984 . S
H445 N441 0.985 . S
H446 N440 0.984 . S
H447 N440 0.984 . S
H448 N436 0.984 . S
H449 N436 0.985 . S
C450 C451 1.363 . S
C450 C456 1.379 . S
C450 N458 1.356 . S
C451 C450 1.363 . S
C451 C457 1.363 . S
C452 C453 1.363 . S
C452 C457 1.379 . S
C452 N459 1.356 . S
C453 C452 1.363 . S
C453 C456 1.363 . S
N454 C456 1.356 1_565 S
N454 H466 0.984 . S
N454 H467 0.985 . S
N455 C457 1.356 . S
N455 H460 0.984 . S
N455 H461 0.985 . S
C456 C450 1.379 . S
C456 C453 1.363 . S
C456 N454 1.356 1_545 S
C457 C451 1.363 . S
C457 C452 1.379 . S
C457 N455 1.356 . S
N458 C450 1.356 . S
N458 H464 0.984 . S
N458 H465 0.984 . S
N459 C452 1.356 . S
N459 H462 0.984 . S
N459 H463 0.985 . S
H460 N455 0.984 . S
H461 N455 0.985 . S
H462 N459 0.984 . S
H463 N459 0.985 . S
H464 N458 0.984 . S
H465 N458 0.984 . S
H466 N454 0.984 . S
H467 N454 0.985 . S
C468 C469 1.363 . S
C468 C474 1.379 . S
C468 N476 1.356 . S
C469 C468 1.363 . S
C469 C475 1.363 . S
C470 C471 1.363 . S
C470 C475 1.379 . S
C470 N477 1.356 . S
C471 C470 1.363 . S
C471 C474 1.363 . S
N472 C474 1.356 . S
N472 H484 0.984 . S
N472 H485 0.985 . S
N473 C475 1.356 . S
N473 H478 0.984 . S
N473 H479 0.985 . S
C474 C468 1.379 . S
C474 C471 1.363 . S
C474 N472 1.356 . S
C475 C469 1.363 . S
C475 C470 1.379 . S
C475 N473 1.356 . S
N476 C468 1.356 . S
N476 H482 0.984 . S
N476 H483 0.984 . S
N477 C470 1.356 . S
N477 H480 0.984 . S
N477 H481 0.985 . S
H478 N473 0.984 . S
H479 N473 0.985 . S
H480 N477 0.984 . S
H481 N477 0.985 . S
H482 N476 0.984 . S
H483 N476 0.984 . S
H484 N472 0.984 . S
H485 N472 0.985 . S
C486 C487 1.363 . S
C486 C492 1.379 . S
C486 N494 1.356 . S
C487 C486 1.363 . S
C487 C493 1.363 . S
C488 C489 1.363 . S
C488 C493 1.379 . S
C488 N495 1.356 . S
C489 C488 1.363 . S
C489 C492 1.363 . S
N490 C492 1.356 . S
N490 H502 0.984 . S
N490 H503 0.985 . S
N491 C493 1.356 . S
N491 H496 0.984 . S
N491 H497 0.985 . S
C492 C486 1.379 . S
C492 C489 1.363 . S
C492 N490 1.356 . S
C493 C487 1.363 . S
C493 C488 1.379 . S
C493 N491 1.356 . S
N494 C486 1.356 . S
N494 H500 0.984 . S
N494 H501 0.984 . S
N495 C488 1.356 . S
N495 H498 0.984 . S
N495 H499 0.985 . S
H496 N491 0.984 . S
H497 N491 0.985 . S
H498 N495 0.984 . S
H499 N495 0.985 . S
H500 N494 0.984 . S
H501 N494 0.984 . S
H502 N490 0.984 . S
H503 N490 0.985 . S
C504 C505 1.363 . S
C504 C510 1.379 . S
C504 N512 1.356 . S
C505 C504 1.363 . S
C505 C511 1.363 . S
C506 C507 1.363 . S
C506 C511 1.379 . S
C506 N513 1.356 . S
C507 C506 1.363 . S
C507 C510 1.363 . S
N508 C510 1.356 . S
N508 H520 0.984 . S
N508 H521 0.985 . S
N509 C511 1.356 . S
N509 H514 0.984 . S
N509 H515 0.985 . S
C510 C504 1.379 . S
C510 C507 1.363 . S
C510 N508 1.356 . S
C511 C505 1.363 . S
C511 C506 1.379 . S
C511 N509 1.356 . S
N512 C504 1.356 . S
N512 H518 0.984 . S
N512 H519 0.984 . S
N513 C506 1.356 . S
N513 H516 0.984 . S
N513 H517 0.985 . S
H514 N509 0.984 . S
H515 N509 0.985 . S
H516 N513 0.984 . S
H517 N513 0.985 . S
H518 N512 0.984 . S
H519 N512 0.984 . S
H520 N508 0.984 . S
H521 N508 0.985 . S
C522 C523 1.363 . S
C522 C528 1.379 . S
C522 N530 1.356 . S
C523 C522 1.363 . S
C523 C529 1.363 . S
C524 C525 1.363 . S
C524 C529 1.379 . S
C524 N531 1.356 1_556 S
C525 C524 1.363 . S
C525 C528 1.363 . S
N526 C528 1.356 . S
N526 H538 0.984 . S
N526 H539 0.985 . S
N527 C529 1.356 . S
N527 H532 0.984 . S
N527 H533 0.985 . S
C528 C522 1.379 . S
C528 C525 1.363 . S
C528 N526 1.356 . S
C529 C523 1.363 . S
C529 C524 1.379 . S
C529 N527 1.356 . S
N530 C522 1.356 . S
N530 H536 0.984 . S
N530 H537 0.984 . S
N531 C524 1.356 1_554 S
N531 H534 0.984 . S
N531 H535 0.985 . S
H532 N527 0.984 . S
H533 N527 0.985 . S
H534 N531 0.984 . S
H535 N531 0.985 . S
H536 N530 0.984 . S
H537 N530 0.984 . S
H538 N526 0.984 . S
H539 N526 0.985 . S
C540 C541 1.363 . S
C540 C546 1.379 . S
C540 N548 1.361 . S
C541 C540 1.363 . S
C541 C547 1.363 . S
C542 C543 1.363 . S
C542 C547 1.379 . S
C542 N549 1.356 . S
C543 C542 1.363 . S
C543 C546 1.363 . S
N544 C546 1.356 . S
N544 H556 0.984 . S
N544 H557 0.985 . S
N545 C547 1.356 . S
N545 H550 0.984 . S
N545 H551 0.985 . S
C546 C540 1.379 . S
C546 C543 1.363 . S
C546 N544 1.356 . S
C547 C541 1.363 . S
C547 C542 1.379 . S
C547 N545 1.356 . S
N548 C540 1.361 . S
N548 H554 0.982 1_556 S
N548 H555 0.983 1_556 S
N549 C542 1.356 . S
N549 H552 0.984 . S
N549 H553 0.985 . S
H550 N545 0.984 . S
H551 N545 0.985 . S
H552 N549 0.984 . S
H553 N549 0.985 . S
H554 N548 0.982 1_554 S
H555 N548 0.983 1_554 S
H556 N544 0.984 . S
H557 N544 0.985 . S
C558 C559 1.363 . S
C558 C564 1.379 . S
C558 N566 1.356 . S
C559 C558 1.363 . S
C559 C565 1.363 . S
C560 C561 1.363 . S
C560 C565 1.379 . S
C560 N567 1.356 . S
C561 C560 1.363 . S
C561 C564 1.363 . S
N562 C564 1.356 . S
N562 H574 0.984 . S
N562 H575 0.985 . S
N563 C565 1.361 . S
N563 H568 0.984 1_556 S
N563 H569 0.981 1_556 S
C564 C558 1.379 . S
C564 C561 1.363 . S
C564 N562 1.356 . S
C565 C559 1.363 . S
C565 C560 1.379 . S
C565 N563 1.361 . S
N566 C558 1.356 . S
N566 H572 0.984 . S
N566 H573 0.984 . S
N567 C560 1.356 . S
N567 H570 0.984 . S
N567 H571 0.985 . S
H568 N563 0.984 1_554 S
H569 N563 0.981 1_554 S
H570 N567 0.984 . S
H571 N567 0.985 . S
H572 N566 0.984 . S
H573 N566 0.984 . S
H574 N562 0.984 . S
H575 N562 0.985 . S
C576 C577 1.363 . S
C576 C582 1.379 . S
C576 N584 1.356 . S
C577 C576 1.363 . S
C577 C583 1.363 . S
C578 C579 1.363 . S
C578 C583 1.379 . S
C578 N585 1.356 . S
C579 C578 1.363 . S
C579 C582 1.363 . S
N580 C582 1.356 . S
N580 H592 0.984 . S
N580 H593 0.985 . S
N581 C583 1.356 . S
N581 H586 0.984 . S
N581 H587 0.985 . S
C582 C576 1.379 . S
C582 C579 1.363 . S
C582 N580 1.356 . S
C583 C577 1.363 . S
C583 C578 1.379 . S
C583 N581 1.356 . S
N584 C576 1.356 . S
N584 H590 0.984 . S
N584 H591 0.984 . S
N585 C578 1.356 . S
N585 H588 0.984 . S
N585 H589 0.985 . S
H586 N581 0.984 . S
H587 N581 0.985 . S
H588 N585 0.984 . S
H589 N585 0.985 . S
H590 N584 0.984 . S
H591 N584 0.984 . S
H592 N580 0.984 . S
H593 N580 0.985 . S
C594 C595 1.363 . S
C594 C600 1.379 . S
C594 N602 1.356 . S
C595 C594 1.363 . S
C595 C601 1.363 . S
C596 C597 1.363 . S
C596 C601 1.379 . S
C596 N603 1.356 . S
C597 C596 1.363 . S
C597 C600 1.363 . S
N598 C600 1.356 . S
N598 H610 0.984 . S
N598 H611 0.985 . S
N599 C601 1.356 . S
N599 H604 0.984 . S
N599 H605 0.985 . S
C600 C594 1.379 . S
C600 C597 1.363 . S
C600 N598 1.356 . S
C601 C595 1.363 . S
C601 C596 1.379 . S
C601 N599 1.356 . S
N602 C594 1.356 . S
N602 H608 0.984 . S
N602 H609 0.984 . S
N603 C596 1.356 . S
N603 H606 0.984 . S
N603 H607 0.985 . S
H604 N599 0.984 . S
H605 N599 0.985 . S
H606 N603 0.984 . S
H607 N603 0.985 . S
H608 N602 0.984 . S
H609 N602 0.984 . S
H610 N598 0.984 . S
H611 N598 0.985 . S
C612 C613 1.363 . S
C612 C618 1.379 . S
C612 N620 1.356 . S
C613 C612 1.363 . S
C613 C619 1.363 . S
C614 C615 1.363 . S
C614 C619 1.379 . S
C614 N621 1.356 . S
C615 C614 1.363 . S
C615 C618 1.363 . S
N616 C618 1.356 . S
N616 H628 0.984 . S
N616 H629 0.985 . S
N617 C619 1.356 1_556 S
N617 H622 0.984 . S
N617 H623 0.985 . S
C618 C612 1.379 . S
C618 C615 1.363 . S
C618 N616 1.356 . S
C619 C613 1.363 . S
C619 C614 1.379 . S
C619 N617 1.356 1_554 S
N620 C612 1.356 . S
N620 H626 0.984 1_545 S
N620 H627 0.984 1_545 S
N621 C614 1.356 . S
N621 H624 0.984 . S
N621 H625 0.985 1_554 S
H622 N617 0.984 . S
H623 N617 0.985 . S
H624 N621 0.984 . S
H625 N621 0.985 1_556 S
H626 N620 0.984 1_565 S
H627 N620 0.984 1_565 S
H628 N616 0.984 . S
H629 N616 0.985 . S
C630 C631 1.363 . S
C630 C636 1.379 . S
C630 N638 1.356 . S
C631 C630 1.363 . S
C631 C637 1.363 . S
C632 C633 1.363 . S
C632 C637 1.379 . S
C632 N639 1.356 1_554 S
C633 C632 1.363 . S
C633 C636 1.363 . S
N634 C636 1.356 1_565 S
N634 H646 0.984 . S
N634 H647 0.985 . S
N635 C637 1.356 1_556 S
N635 H640 0.984 . S
N635 H641 0.985 . S
C636 C630 1.379 . S
C636 C633 1.363 . S
C636 N634 1.356 1_545 S
C637 C631 1.363 . S
C637 C632 1.379 . S
C637 N635 1.356 1_554 S
N638 C630 1.356 . S
N638 H644 0.984 . S
N638 H645 0.988 . S
N639 C632 1.356 1_556 S
N639 H642 0.984 1_546 S
N639 H643 0.985 . S
H640 N635 0.984 . S
H641 N635 0.985 . S
H642 N639 0.984 1_564 S
H643 N639 0.985 . S
H644 N638 0.984 . S
H645 N638 0.988 . S
H646 N634 0.984 . S
H647 N634 0.985 . S
C648 C649 1.363 . S
C648 C654 1.379 . S
C648 N656 1.356 . S
C649 C648 1.363 . S
C649 C655 1.363 . S
C650 C651 1.363 . S
C650 C655 1.379 . S
C650 N657 1.356 1_654 S
C651 C650 1.363 . S
C651 C654 1.363 . S
N652 C654 1.356 . S
N652 H664 0.984 . S
N652 H665 0.985 1_655 S
N653 C655 1.356 1_556 S
N653 H658 0.984 . S
N653 H659 0.985 . S
C654 C648 1.379 . S
C654 C651 1.363 . S
C654 N652 1.356 . S
C655 C649 1.363 . S
C655 C650 1.379 . S
C655 N653 1.356 1_554 S
N656 C648 1.356 . S
N656 H662 0.984 . S
N656 H663 0.984 . S
N657 C650 1.356 1_456 S
N657 H660 0.984 . S
N657 H661 0.985 . S
H658 N653 0.984 . S
H659 N653 0.985 . S
H660 N657 0.984 . S
H661 N657 0.985 . S
H662 N656 0.984 . S
H663 N656 0.984 . S
H664 N652 0.984 . S
H665 N652 0.985 1_455 S
C666 C667 1.363 . S
C666 C672 1.379 . S
C666 N674 1.356 . S
C667 C666 1.363 . S
C667 C673 1.363 . S
C668 C669 1.363 . S
C668 C673 1.379 . S
C668 N675 1.356 . S
C669 C668 1.363 . S
C669 C672 1.363 . S
N670 C672 1.356 . S
N670 H682 0.984 . S
N670 H683 0.985 . S
N671 C673 1.356 . S
N671 H676 0.984 . S
N671 H677 0.985 . S
C672 C666 1.379 . S
C672 C669 1.363 . S
C672 N670 1.356 . S
C673 C667 1.363 . S
C673 C668 1.379 . S
C673 N671 1.356 . S
N674 C666 1.356 . S
N674 H680 0.984 . S
N674 H681 0.984 . S
N675 C668 1.356 . S
N675 H678 0.984 . S
N675 H679 0.985 . S
H676 N671 0.984 . S
H677 N671 0.985 . S
H678 N675 0.984 . S
H679 N675 0.985 . S
H680 N674 0.984 . S
H681 N674 0.984 . S
H682 N670 0.984 . S
H683 N670 0.985 . S
C684 C685 1.363 . S
C684 C690 1.379 . S
C684 N692 1.356 . S
C685 C684 1.363 . S
C685 C691 1.363 . S
C686 C687 1.363 . S
C686 C691 1.379 . S
C686 N693 1.356 . S
C687 C686 1.363 . S
C687 C690 1.363 . S
N688 C690 1.356 . S
N688 H700 0.984 . S
N688 H701 0.985 . S
N689 C691 1.356 . S
N689 H694 0.984 . S
N689 H695 0.985 . S
C690 C684 1.379 . S
C690 C687 1.363 . S
C690 N688 1.356 . S
C691 C685 1.363 . S
C691 C686 1.379 . S
C691 N689 1.356 . S
N692 C684 1.356 . S
N692 H698 0.984 . S
N692 H699 0.984 . S
N693 C686 1.356 . S
N693 H696 0.984 . S
N693 H697 0.985 . S
H694 N689 0.984 . S
H695 N689 0.985 . S
H696 N693 0.984 . S
H697 N693 0.985 . S
H698 N692 0.984 . S
H699 N692 0.984 . S
H700 N688 0.984 . S
H701 N688 0.985 . S
C702 C703 1.363 . S
C702 C708 1.379 . S
C702 N710 1.356 . S
C703 C702 1.363 . S
C703 C709 1.363 . S
C704 C705 1.363 . S
C704 C709 1.379 . S
C704 N711 1.356 . S
C705 C704 1.363 . S
C705 C708 1.363 . S
N706 C708 1.356 . S
N706 H718 0.984 . S
N706 H719 0.985 . S
N707 C709 1.356 . S
N707 H712 0.984 . S
N707 H713 0.985 . S
C708 C702 1.379 . S
C708 C705 1.363 . S
C708 N706 1.356 . S
C709 C703 1.363 . S
C709 C704 1.379 . S
C709 N707 1.356 . S
N710 C702 1.356 . S
N710 H716 0.984 . S
N710 H717 0.984 . S
N711 C704 1.356 . S
N711 H714 0.984 . S
N711 H715 0.985 . S
H712 N707 0.984 . S
H713 N707 0.985 . S
H714 N711 0.984 . S
H715 N711 0.985 . S
H716 N710 0.984 . S
H717 N710 0.984 . S
H718 N706 0.984 . S
H719 N706 0.985 . S
C720 C721 1.363 . S
C720 C726 1.379 . S
C720 N728 1.356 . S
C721 C720 1.363 . S
C721 C727 1.363 . S
C722 C723 1.363 . S
C722 C727 1.379 . S
C722 N729 1.356 . S
C723 C722 1.363 . S
C723 C726 1.363 . S
N724 C726 1.356 . S
N724 H736 0.984 . S
N724 H737 0.985 . S
N725 C727 1.356 . S
N725 H730 0.984 . S
N725 H731 0.985 1_556 S
C726 C720 1.379 . S
C726 C723 1.363 . S
C726 N724 1.356 . S
C727 C721 1.363 . S
C727 C722 1.379 . S
C727 N725 1.356 . S
N728 C720 1.356 . S
N728 H734 0.984 . S
N728 H735 0.984 . S
N729 C722 1.356 . S
N729 H732 0.984 . S
N729 H733 0.985 . S
H730 N725 0.984 . S
H731 N725 0.985 1_554 S
H732 N729 0.984 . S
H733 N729 0.985 . S
H734 N728 0.984 . S
H735 N728 0.984 . S
H736 N724 0.984 . S
H737 N724 0.985 . S
C738 C739 1.363 . S
C738 C744 1.379 . S
C738 N746 1.356 . S
C739 C738 1.363 . S
C739 C745 1.363 . S
C740 C741 1.363 . S
C740 C745 1.379 . S
C740 N747 1.356 . S
C741 C740 1.363 . S
C741 C744 1.363 . S
N742 C744 1.356 . S
N742 H754 0.984 . S
N742 H755 0.985 . S
N743 C745 1.356 . S
N743 H748 0.984 . S
N743 H749 0.985 . S
C744 C738 1.379 . S
C744 C741 1.363 . S
C744 N742 1.356 . S
C745 C739 1.363 . S
C745 C740 1.379 . S
C745 N743 1.356 . S
N746 C738 1.356 . S
N746 H752 0.984 . S
N746 H753 0.984 . S
N747 C740 1.356 . S
N747 H750 0.984 . S
N747 H751 0.985 . S
H748 N743 0.984 . S
H749 N743 0.985 . S
H750 N747 0.984 . S
H751 N747 0.985 . S
H752 N746 0.984 . S
H753 N746 0.984 . S
H754 N742 0.984 . S
H755 N742 0.985 . S
C756 C757 1.363 . S
C756 C762 1.379 . S
C756 N764 1.356 . S
C757 C756 1.363 . S
C757 C763 1.363 . S
C758 C759 1.363 . S
C758 C763 1.379 . S
C758 N765 1.356 . S
C759 C758 1.363 . S
C759 C762 1.363 . S
N760 C762 1.356 . S
N760 H772 0.984 . S
N760 H773 0.985 . S
N761 C763 1.356 . S
N761 H766 0.984 . S
N761 H767 0.985 . S
C762 C756 1.379 . S
C762 C759 1.363 . S
C762 N760 1.356 . S
C763 C757 1.363 . S
C763 C758 1.379 . S
C763 N761 1.356 . S
N764 C756 1.356 . S
N764 H770 0.984 . S
N764 H771 0.984 . S
N765 C758 1.356 . S
N765 H768 0.984 . S
N765 H769 0.985 . S
H766 N761 0.984 . S
H767 N761 0.985 . S
H768 N765 0.984 . S
H769 N765 0.985 . S
H770 N764 0.984 . S
H771 N764 0.984 . S
H772 N760 0.984 . S
H773 N760 0.985 . S
C774 C775 1.363 . S
C774 C780 1.379 . S
C774 N782 1.356 . S
C775 C774 1.363 . S
C775 C781 1.363 . S
C776 C777 1.363 . S
C776 C781 1.379 . S
C776 N783 1.356 . S
C777 C776 1.363 . S
C777 C780 1.363 . S
N778 C780 1.356 . S
N778 H790 0.984 . S
N778 H791 0.985 . S
N779 C781 1.356 . S
N779 H784 0.984 . S
N779 H785 0.985 . S
C780 C774 1.379 . S
C780 C777 1.363 . S
C780 N778 1.356 . S
C781 C775 1.363 . S
C781 C776 1.379 . S
C781 N779 1.356 . S
N782 C774 1.356 . S
N782 H788 0.984 . S
N782 H789 0.984 . S
N783 C776 1.356 . S
N783 H786 0.984 . S
N783 H787 0.985 . S
H784 N779 0.984 . S
H785 N779 0.985 . S
H786 N783 0.984 . S
H787 N783 0.985 . S
H788 N782 0.984 . S
H789 N782 0.984 . S
H790 N778 0.984 . S
H791 N778 0.985 . S
C792 C793 1.363 . S
C792 C798 1.379 . S
C792 N800 1.356 . S
C793 C792 1.363 . S
C793 C799 1.363 . S
C794 C795 1.363 . S
C794 C799 1.379 . S
C794 N801 1.356 . S
C795 C794 1.363 . S
C795 C798 1.363 . S
N796 C798 1.356 . S
N796 H808 0.984 . S
N796 H809 0.985 . S
N797 C799 1.356 . S
N797 H802 0.984 . S
N797 H803 0.985 . S
C798 C792 1.379 . S
C798 C795 1.363 . S
C798 N796 1.356 . S
C799 C793 1.363 . S
C799 C794 1.379 . S
C799 N797 1.356 . S
N800 C792 1.356 . S
N800 H806 0.984 . S
N800 H807 0.984 . S
N801 C794 1.356 . S
N801 H804 0.984 . S
N801 H805 0.985 . S
H802 N797 0.984 . S
H803 N797 0.985 . S
H804 N801 0.984 . S
H805 N801 0.985 . S
H806 N800 0.984 . S
H807 N800 0.984 . S
H808 N796 0.984 . S
H809 N796 0.985 . S
C810 C811 1.363 . S
C810 C816 1.379 . S
C810 N818 1.356 . S
C811 C810 1.363 . S
C811 C817 1.363 . S
C812 C813 1.363 . S
C812 C817 1.379 . S
C812 N819 1.356 . S
C813 C812 1.363 . S
C813 C816 1.363 . S
N814 C816 1.356 . S
N814 H826 0.984 . S
N814 H827 0.985 . S
N815 C817 1.356 . S
N815 H820 0.984 . S
N815 H821 0.985 . S
C816 C810 1.379 . S
C816 C813 1.363 . S
C816 N814 1.356 . S
C817 C811 1.363 . S
C817 C812 1.379 . S
C817 N815 1.356 . S
N818 C810 1.356 . S
N818 H824 0.984 . S
N818 H825 0.984 . S
N819 C812 1.356 . S
N819 H822 0.984 . S
N819 H823 0.985 . S
H820 N815 0.984 . S
H821 N815 0.985 . S
H822 N819 0.984 . S
H823 N819 0.985 . S
H824 N818 0.984 . S
H825 N818 0.984 . S
H826 N814 0.984 . S
H827 N814 0.985 . S
C828 C829 1.363 . S
C828 C834 1.379 . S
C828 N836 1.356 . S
C829 C828 1.363 . S
C829 C835 1.363 . S
C830 C831 1.363 . S
C830 C835 1.379 . S
C830 N837 1.356 . S
C831 C830 1.363 . S
C831 C834 1.363 . S
N832 C834 1.356 . S
N832 H844 0.984 . S
N832 H845 0.985 1_556 S
N833 C835 1.356 . S
N833 H838 0.984 . S
N833 H839 0.985 . S
C834 C828 1.379 . S
C834 C831 1.363 . S
C834 N832 1.356 . S
C835 C829 1.363 . S
C835 C830 1.379 . S
C835 N833 1.356 . S
N836 C828 1.356 . S
N836 H842 0.984 . S
N836 H843 0.984 . S
N837 C830 1.356 . S
N837 H840 0.984 1_556 S
N837 H841 0.985 . S
H838 N833 0.984 . S
H839 N833 0.985 . S
H840 N837 0.984 1_554 S
H841 N837 0.985 . S
H842 N836 0.984 . S
H843 N836 0.984 . S
H844 N832 0.984 . S
H845 N832 0.985 1_554 S
C846 C847 1.363 . S
C846 C852 1.379 . S
C846 N854 1.356 . S
C847 C846 1.363 . S
C847 C853 1.363 . S
C848 C849 1.363 . S
C848 C853 1.379 . S
C848 N855 1.356 . S
C849 C848 1.363 . S
C849 C852 1.363 . S
N850 C852 1.356 . S
N850 H862 0.984 . S
N850 H863 0.985 . S
N851 C853 1.356 . S
N851 H856 0.984 1_556 S
N851 H857 0.985 . S
C852 C846 1.379 . S
C852 C849 1.363 . S
C852 N850 1.356 . S
C853 C847 1.363 . S
C853 C848 1.379 . S
C853 N851 1.356 . S
N854 C846 1.356 . S
N854 H860 0.984 . S
N854 H861 0.984 1_556 S
N855 C848 1.356 . S
N855 H858 0.984 . S
N855 H859 0.985 . S
H856 N851 0.984 1_554 S
H857 N851 0.985 . S
H858 N855 0.984 . S
H859 N855 0.985 . S
H860 N854 0.984 . S
H861 N854 0.984 1_554 S
H862 N850 0.984 . S
H863 N850 0.985 . S
C864 C865 1.363 . S
C864 C870 1.379 . S
C864 N872 1.356 . S
C865 C864 1.363 . S
C865 C871 1.363 . S
C866 C867 1.363 . S
C866 C871 1.379 . S
C866 N873 1.356 1_556 S
C867 C866 1.363 . S
C867 C870 1.363 . S
N868 C870 1.356 . S
N868 H880 0.984 . S
N868 H881 0.985 1_556 S
N869 C871 1.356 . S
N869 H874 0.984 . S
N869 H875 0.985 . S
C870 C864 1.379 . S
C870 C867 1.363 . S
C870 N868 1.356 . S
C871 C865 1.363 . S
C871 C866 1.379 . S
C871 N869 1.356 . S
N872 C864 1.356 . S
N872 H878 0.984 . S
N872 H879 0.984 . S
N873 C866 1.356 1_554 S
N873 H876 0.984 . S
N873 H877 0.985 1_554 S
H874 N869 0.984 . S
H875 N869 0.985 . S
H876 N873 0.984 . S
H877 N873 0.985 1_556 S
H878 N872 0.984 . S
H879 N872 0.984 . S
H880 N868 0.984 . S
H881 N868 0.985 1_554 S
C882 C883 1.363 . S
C882 C888 1.379 . S
C882 N890 1.356 . S
C883 C882 1.363 . S
C883 C889 1.363 . S
C884 C885 1.363 . S
C884 C889 1.379 . S
C884 N891 1.356 . S
C885 C884 1.363 . S
C885 C888 1.363 . S
N886 C888 1.356 1_556 S
N886 H898 0.984 . S
N886 H899 0.985 . S
N887 C889 1.356 . S
N887 H892 0.984 . S
N887 H893 0.985 . S
C888 C882 1.379 . S
C888 C885 1.363 . S
C888 N886 1.356 1_554 S
C889 C883 1.363 . S
C889 C884 1.379 . S
C889 N887 1.356 . S
N890 C882 1.356 . S
N890 H896 0.984 . S
N890 H897 0.984 . S
N891 C884 1.356 . S
N891 H894 0.984 . S
N891 H895 0.985 . S
H892 N887 0.984 . S
H893 N887 0.985 . S
H894 N891 0.984 . S
H895 N891 0.985 . S
H896 N890 0.984 . S
H897 N890 0.984 . S
H898 N886 0.984 . S
H899 N886 0.985 . S
C900 C901 1.363 . S
C900 C906 1.379 . S
C900 N908 1.356 . S
C901 C900 1.363 . S
C901 C907 1.363 . S
C902 C903 1.363 . S
C902 C907 1.379 . S
C902 N909 1.356 . S
C903 C902 1.363 . S
C903 C906 1.363 . S
N904 C906 1.356 . S
N904 H916 0.984 . S
N904 H917 0.985 1_554 S
N905 C907 1.356 . S
N905 H910 0.984 . S
N905 H911 0.985 . S
C906 C900 1.379 . S
C906 C903 1.363 . S
C906 N904 1.356 . S
C907 C901 1.363 . S
C907 C902 1.379 . S
C907 N905 1.356 . S
N908 C900 1.356 . S
N908 H914 0.984 . S
N908 H915 0.984 . S
N909 C902 1.356 . S
N909 H912 0.984 1_554 S
N909 H913 0.985 . S
H910 N905 0.984 . S
H911 N905 0.985 . S
H912 N909 0.984 1_556 S
H913 N909 0.985 . S
H914 N908 0.984 . S
H915 N908 0.984 . S
H916 N904 0.984 . S
H917 N904 0.985 1_556 S
C918 C919 1.363 . S
C918 C924 1.379 . S
C918 N926 1.356 . S
C919 C918 1.363 . S
C919 C925 1.363 . S
C920 C921 1.363 . S
C920 C925 1.379 . S
C920 N927 1.356 1_554 S
C921 C920 1.363 . S
C921 C924 1.363 . S
N922 C924 1.356 . S
N922 H934 0.984 . S
N922 H935 0.985 . S
N923 C925 1.356 . S
N923 H928 0.984 . S
N923 H929 0.985 . S
C924 C918 1.379 . S
C924 C921 1.363 . S
C924 N922 1.356 . S
C925 C919 1.363 . S
C925 C920 1.379 . S
C925 N923 1.356 . S
N926 C918 1.356 . S
N926 H932 0.984 . S
N926 H933 0.984 . S
N927 C920 1.356 1_556 S
N927 H930 0.984 . S
N927 H931 0.985 . S
H928 N923 0.984 . S
H929 N923 0.985 . S
H930 N927 0.984 . S
H931 N927 0.985 . S
H932 N926 0.984 . S
H933 N926 0.984 . S
H934 N922 0.984 . S
H935 N922 0.985 . S
C289 C17 1.656 1_554 S
C291 C150 1.635 . S
C307 C182 1.635 . S
C309 C49 1.683 1_554 S
C325 C81 1.671 1_554 S
C327 C118 1.635 . S
C343 C53 2.190 . S
C345 C112 2.249 . S
C361 C85 2.189 1_545 S
C363 C144 2.249 . S
C379 C21 2.190 1_655 S
C381 C176 2.249 . S
C397 C113 1.656 . S
C399 C246 1.635 . S
C415 C278 1.635 . S
C417 C145 1.656 . S
C433 C214 1.635 . S
C435 C177 1.656 . S
C451 C149 2.190 . S
C453 C208 2.249 1_545 S
C469 C240 2.249 1_655 S
C471 C181 2.189 . S
C487 C272 2.249 . S
C489 C117 2.190 . S
C505 C209 1.656 . S
C507 C54 1.635 . S
C523 C241 1.656 . S
C525 C86 1.635 . S
C541 C22 1.635 . S
C543 C273 1.656 . S
C559 C16 2.249 . S
C561 C245 2.190 . S
C577 C48 2.249 . S
C579 C277 2.189 . S
C595 C213 2.190 . S
C597 C80 2.249 . S
C613 C82 1.473 . S
C615 C20 1.498 . S
C631 C18 1.473 . S
C633 C52 1.498 1_545 S
C649 C50 1.473 . S
C651 C84 1.498 1_655 S
C667 C178 1.473 . S
C669 C116 1.498 . S
C685 C114 1.473 . S
C687 C148 1.498 . S
C703 C146 1.473 . S
C705 C180 1.498 . S
C721 C212 1.498 . S
C723 C274 1.473 . S
C739 C244 1.498 . S
C741 C210 1.473 . S
C757 C276 1.498 . S
C759 C242 1.473 . S
C775 C19 1.323 . S
C777 C23 1.323 . S
C793 C55 1.323 . S
C795 C51 1.323 . S
C811 C83 1.323 . S
C813 C87 1.323 . S
C829 C119 1.323 . S
C831 C115 1.323 1_556 S
C847 C147 1.323 1_556 S
C849 C151 1.323 . S
C865 C183 1.323 . S
C867 C179 1.323 1_556 S
C883 C211 1.323 . S
C885 C215 1.323 1_554 S
C901 C243 1.323 . S
C903 C247 1.323 1_554 S
C919 C275 1.323 . S
C921 C279 1.323 1_554 S
