# Generated by pormake.
# Topology whz, (6)-cn, num edge types: 1
# Building blocks:
#     Node 0, Type 0, BuildingBlock: IZENUY_clean_sbu_0, # of connection points: 6
#     Node 1, Type 0, BuildingBlock: IZENUY_clean_sbu_0, # of connection points: 6
#     Node 2, Type 0, BuildingBlock: IZENUY_clean_sbu_0, # of connection points: 6
#     Node 3, Type 0, BuildingBlock: IZENUY_clean_sbu_0, # of connection points: 6
#     Node 4, Type 0, BuildingBlock: IZENUY_clean_sbu_0, # of connection points: 6
#     Node 5, Type 0, BuildingBlock: IZENUY_clean_sbu_0, # of connection points: 6
#     Node 6, Type 0, BuildingBlock: IZENUY_clean_sbu_0, # of connection points: 6
#     Node 7, Type 0, BuildingBlock: IZENUY_clean_sbu_0, # of connection points: 6
#     Node 8, Type 0, BuildingBlock: IZENUY_clean_sbu_0, # of connection points: 6
#     Node 9, Type 0, BuildingBlock: IZENUY_clean_sbu_0, # of connection points: 6
#     Node 10, Type 0, BuildingBlock: IZENUY_clean_sbu_0, # of connection points: 6
#     Node 11, Type 0, BuildingBlock: IZENUY_clean_sbu_0, # of connection points: 6
#     Node 12, Type 0, BuildingBlock: IZENUY_clean_sbu_0, # of connection points: 6
#     Node 13, Type 0, BuildingBlock: IZENUY_clean_sbu_0, # of connection points: 6
#     Node 14, Type 0, BuildingBlock: IZENUY_clean_sbu_0, # of connection points: 6
#     Node 15, Type 0, BuildingBlock: IZENUY_clean_sbu_0, # of connection points: 6
#     Edge 16, Type (0, 0), BuildingBlock: UVAHIK_clean_linker_0, # of connection points: 2
#     Edge 17, Type (0, 0), BuildingBlock: UVAHIK_clean_linker_0, # of connection points: 2
#     Edge 18, Type (0, 0), BuildingBlock: UVAHIK_clean_linker_0, # of connection points: 2
#     Edge 19, Type (0, 0), BuildingBlock: UVAHIK_clean_linker_0, # of connection points: 2
#     Edge 20, Type (0, 0), BuildingBlock: UVAHIK_clean_linker_0, # of connection points: 2
#     Edge 21, Type (0, 0), BuildingBlock: UVAHIK_clean_linker_0, # of connection points: 2
#     Edge 22, Type (0, 0), BuildingBlock: UVAHIK_clean_linker_0, # of connection points: 2
#     Edge 23, Type (0, 0), BuildingBlock: UVAHIK_clean_linker_0, # of connection points: 2
#     Edge 24, Type (0, 0), BuildingBlock: UVAHIK_clean_linker_0, # of connection points: 2
#     Edge 25, Type (0, 0), BuildingBlock: UVAHIK_clean_linker_0, # of connection points: 2
#     Edge 26, Type (0, 0), BuildingBlock: UVAHIK_clean_linker_0, # of connection points: 2
#     Edge 27, Type (0, 0), BuildingBlock: UVAHIK_clean_linker_0, # of connection points: 2
#     Edge 28, Type (0, 0), BuildingBlock: UVAHIK_clean_linker_0, # of connection points: 2
#     Edge 29, Type (0, 0), BuildingBlock: UVAHIK_clean_linker_0, # of connection points: 2
#     Edge 30, Type (0, 0), BuildingBlock: UVAHIK_clean_linker_0, # of connection points: 2
#     Edge 31, Type (0, 0), BuildingBlock: UVAHIK_clean_linker_0, # of connection points: 2
#     Edge 32, Type (0, 0), BuildingBlock: UVAHIK_clean_linker_0, # of connection points: 2
#     Edge 33, Type (0, 0), BuildingBlock: UVAHIK_clean_linker_0, # of connection points: 2
#     Edge 34, Type (0, 0), BuildingBlock: UVAHIK_clean_linker_0, # of connection points: 2
#     Edge 35, Type (0, 0), BuildingBlock: UVAHIK_clean_linker_0, # of connection points: 2
#     Edge 36, Type (0, 0), BuildingBlock: UVAHIK_clean_linker_0, # of connection points: 2
#     Edge 37, Type (0, 0), BuildingBlock: UVAHIK_clean_linker_0, # of connection points: 2
#     Edge 38, Type (0, 0), BuildingBlock: UVAHIK_clean_linker_0, # of connection points: 2
#     Edge 39, Type (0, 0), BuildingBlock: UVAHIK_clean_linker_0, # of connection points: 2
#     Edge 40, Type (0, 0), BuildingBlock: UVAHIK_clean_linker_0, # of connection points: 2
#     Edge 41, Type (0, 0), BuildingBlock: UVAHIK_clean_linker_0, # of connection points: 2
#     Edge 42, Type (0, 0), BuildingBlock: UVAHIK_clean_linker_0, # of connection points: 2
#     Edge 43, Type (0, 0), BuildingBlock: UVAHIK_clean_linker_0, # of connection points: 2
#     Edge 44, Type (0, 0), BuildingBlock: UVAHIK_clean_linker_0, # of connection points: 2
#     Edge 45, Type (0, 0), BuildingBlock: UVAHIK_clean_linker_0, # of connection points: 2
#     Edge 46, Type (0, 0), BuildingBlock: UVAHIK_clean_linker_0, # of connection points: 2
#     Edge 47, Type (0, 0), BuildingBlock: UVAHIK_clean_linker_0, # of connection points: 2
#     Edge 48, Type (0, 0), BuildingBlock: UVAHIK_clean_linker_0, # of connection points: 2
#     Edge 49, Type (0, 0), BuildingBlock: UVAHIK_clean_linker_0, # of connection points: 2
#     Edge 50, Type (0, 0), BuildingBlock: UVAHIK_clean_linker_0, # of connection points: 2
#     Edge 51, Type (0, 0), BuildingBlock: UVAHIK_clean_linker_0, # of connection points: 2
#     Edge 52, Type (0, 0), BuildingBlock: UVAHIK_clean_linker_0, # of connection points: 2
#     Edge 53, Type (0, 0), BuildingBlock: UVAHIK_clean_linker_0, # of connection points: 2
#     Edge 54, Type (0, 0), BuildingBlock: UVAHIK_clean_linker_0, # of connection points: 2
#     Edge 55, Type (0, 0), BuildingBlock: UVAHIK_clean_linker_0, # of connection points: 2
#     Edge 56, Type (0, 0), BuildingBlock: UVAHIK_clean_linker_0, # of connection points: 2
#     Edge 57, Type (0, 0), BuildingBlock: UVAHIK_clean_linker_0, # of connection points: 2
#     Edge 58, Type (0, 0), BuildingBlock: UVAHIK_clean_linker_0, # of connection points: 2
#     Edge 59, Type (0, 0), BuildingBlock: UVAHIK_clean_linker_0, # of connection points: 2
#     Edge 60, Type (0, 0), BuildingBlock: UVAHIK_clean_linker_0, # of connection points: 2
#     Edge 61, Type (0, 0), BuildingBlock: UVAHIK_clean_linker_0, # of connection points: 2
#     Edge 62, Type (0, 0), BuildingBlock: UVAHIK_clean_linker_0, # of connection points: 2
#     Edge 63, Type (0, 0), BuildingBlock: UVAHIK_clean_linker_0, # of connection points: 2
# Relax obj value: 0.407
# Max RMSD: 0.252
# Mean RMSD: 0.252
data_MOF--net-whz--node1-IZENUY_clean_sbu_0--edge1-UVAHIK_clean_linker_0
_symmetry_space_group_name_H-M    P1
_symmetry_Int_Tables_number       1
_symmetry_cell_setting            triclinic
loop_
_symmetry_equiv_pos_as_xyz
'x, y, z'
_cell_length_a     43.837176
_cell_length_b     43.818487
_cell_length_c     66.318571
_cell_angle_alpha  90.105457
_cell_angle_beta   89.935754
_cell_angle_gamma 89.972746
loop_
_atom_site_label
_atom_site_type_symbol
_atom_site_fract_x
_atom_site_fract_y
_atom_site_fract_z
_atom_type_partial_charge
Fe0 Fe 0.32609 0.19349 0.1339 0.0
Fe1 Fe 0.26599 0.18422 0.11123 0.0
O2 O 0.30384 0.17268 0.11636 0.0
Fe3 Fe 0.31972 0.1401 0.1043 0.0
O4 O 0.34373 0.12893 0.1261 0.0
O5 O 0.32882 0.1604 0.14997 0.0
O6 O 0.29424 0.20575 0.14948 0.0
C7 C 0.26843 0.19377 0.15202 0.0
C8 C 0.36796 0.17963 0.1033 0.0
O9 O 0.25478 0.18082 0.13765 0.0
C10 C 0.28348 0.16723 0.0733 0.0
O11 O 0.32393 0.22813 0.11895 0.0
O12 O 0.27427 0.225 0.11377 0.0
O13 O 0.34996 0.16335 0.09301 0.0
O14 O 0.36238 0.18494 0.12166 0.0
C15 C 0.262 0.11975 0.11316 0.0
O16 O 0.27393 0.18838 0.08457 0.0
O17 O 0.29813 0.14487 0.08063 0.0
C18 C 0.29903 0.23993 0.11334 0.0
O19 O 0.25162 0.1454 0.10768 0.0
O20 O 0.29038 0.11527 0.1148 0.0
C21 C 0.33951 0.13495 0.14465 0.0
Fe22 Fe 0.55616 0.56264 0.38393 0.0
Fe23 Fe 0.56794 0.50429 0.3596 0.0
O24 O 0.57781 0.54232 0.36582 0.0
Fe25 Fe 0.60951 0.56031 0.35415 0.0
O26 O 0.61961 0.58399 0.37637 0.0
O27 O 0.58918 0.5666 0.4 0.0
O28 O 0.5459 0.52937 0.39888 0.0
C29 C 0.55852 0.50364 0.40037 0.0
C30 C 0.56774 0.60667 0.3542 0.0
O31 O 0.57203 0.49157 0.3856 0.0
C32 C 0.58396 0.52459 0.32223 0.0
O33 O 0.5216 0.55946 0.36906 0.0
O34 O 0.52675 0.51037 0.36253 0.0
O35 O 0.58491 0.58997 0.34352 0.0
O36 O 0.56252 0.59987 0.37238 0.0
C37 C 0.63246 0.50321 0.36159 0.0
O38 O 0.56317 0.51377 0.33323 0.0
O39 O 0.60579 0.53957 0.32998 0.0
C40 C 0.51059 0.53439 0.3631 0.0
O41 O 0.60745 0.49194 0.35558 0.0
O42 O 0.63553 0.53164 0.3641 0.0
C43 C 0.61375 0.57932 0.39487 0.0
Fe44 Fe 0.23298 0.82354 0.61773 0.0
Fe45 Fe 0.18295 0.86853 0.60475 0.0
O46 O 0.1943 0.83451 0.61717 0.0
Fe47 Fe 0.16681 0.8115 0.62927 0.0
O48 O 0.18475 0.81668 0.65341 0.0
O49 O 0.23096 0.80566 0.64292 0.0
O50 O 0.24331 0.85834 0.63051 0.0
C51 C 0.23847 0.88483 0.62394 0.0
C52 C 0.20738 0.76778 0.61223 0.0
O53 O 0.21868 0.88948 0.6103 0.0
C54 C 0.13682 0.82582 0.59478 0.0
O55 O 0.24196 0.83952 0.59271 0.0
O56 O 0.19775 0.85496 0.58076 0.0
O57 O 0.18697 0.77515 0.62488 0.0
O58 O 0.22494 0.78778 0.60506 0.0
C59 C 0.14883 0.8712 0.63933 0.0
O60 O 0.14515 0.85339 0.59705 0.0
O61 O 0.14757 0.80502 0.6057 0.0
C62 C 0.22503 0.84664 0.57792 0.0
O63 O 0.16796 0.88429 0.62807 0.0
O64 O 0.14172 0.84354 0.6363 0.0
C65 C 0.21182 0.80909 0.65713 0.0
Fe66 Fe 0.94292 0.42297 0.87772 0.0
Fe67 Fe 0.93174 0.48818 0.86361 0.0
O68 O 0.92075 0.44948 0.86406 0.0
Fe69 Fe 0.88756 0.43723 0.8511 0.0
O70 O 0.87045 0.42402 0.87436 0.0
O71 O 0.91044 0.39845 0.88475 0.0
O72 O 0.93642 0.44308 0.90109 0.0
C73 C 0.94401 0.47043 0.90398 0.0
C74 C 0.9307 0.39002 0.84395 0.0
O75 O 0.9484 0.48818 0.88917 0.0
C76 C 0.91069 0.4774 0.82362 0.0
O77 O 0.9795 0.44266 0.87345 0.0
O78 O 0.96802 0.47894 0.85203 0.0
O79 O 0.9031 0.39884 0.84494 0.0
O80 O 0.95077 0.40161 0.85511 0.0
C81 C 0.87019 0.49421 0.86819 0.0
O82 O 0.91705 0.4953 0.83807 0.0
O83 O 0.90243 0.45027 0.82702 0.0
C84 C 0.98752 0.46174 0.86012 0.0
O85 O 0.89632 0.49963 0.87521 0.0
O86 O 0.86632 0.4733 0.85513 0.0
C87 C 0.88252 0.40553 0.88651 0.0
Fe88 Fe 0.66889 0.81374 0.87621 0.0
Fe89 Fe 0.73468 0.82388 0.88954 0.0
O90 O 0.69607 0.83528 0.8898 0.0
Fe91 Fe 0.68445 0.86833 0.90332 0.0
O92 O 0.67069 0.88603 0.88039 0.0
O93 O 0.64429 0.84656 0.87016 0.0
O94 O 0.68812 0.82083 0.85261 0.0
C95 C 0.71537 0.8133 0.84919 0.0
C96 C 0.63762 0.82519 0.91083 0.0
O97 O 0.73368 0.80843 0.86365 0.0
C98 C 0.72525 0.84421 0.93 0.0
O99 O 0.68841 0.77686 0.87944 0.0
O100 O 0.72562 0.78705 0.90044 0.0
O101 O 0.64625 0.85285 0.9099 0.0
O102 O 0.64847 0.80538 0.8991 0.0
C103 C 0.74123 0.88567 0.88604 0.0
O104 O 0.74255 0.83738 0.9153 0.0
O105 O 0.69819 0.85304 0.92706 0.0
C106 C 0.70812 0.76801 0.89211 0.0
O107 O 0.74625 0.85971 0.87855 0.0
O108 O 0.72044 0.88942 0.89916 0.0
C109 C 0.65178 0.87434 0.86837 0.0
Fe110 Fe 0.38316 0.43367 0.65038 0.0
Fe111 Fe 0.43842 0.41565 0.62472 0.0
O112 O 0.41667 0.44396 0.63705 0.0
Fe113 Fe 0.42829 0.48239 0.63577 0.0
O114 O 0.39309 0.49314 0.62369 0.0
O115 O 0.36267 0.46977 0.64502 0.0
O116 O 0.36602 0.4187 0.62754 0.0
C117 C 0.37799 0.39889 0.61622 0.0
C118 C 0.40691 0.47591 0.67626 0.0
O119 O 0.40552 0.39097 0.61887 0.0
C120 C 0.48372 0.4558 0.64021 0.0
O121 O 0.3979 0.39566 0.65805 0.0
O122 O 0.44587 0.39692 0.64833 0.0
O123 O 0.41366 0.49235 0.66111 0.0
O124 O 0.39825 0.44864 0.67389 0.0
C125 C 0.44012 0.45979 0.59626 0.0
O126 O 0.47539 0.43527 0.6279 0.0
O127 O 0.46439 0.47383 0.64771 0.0
C128 C 0.4254 0.38681 0.65982 0.0
O129 O 0.43207 0.43305 0.60054 0.0
O130 O 0.44498 0.47924 0.61013 0.0
C131 C 0.36693 0.48917 0.63108 0.0
Fe132 Fe 0.81523 0.13333 0.4033 0.0
Fe133 Fe 0.83267 0.18876 0.37754 0.0
O134 O 0.80477 0.16755 0.39069 0.0
Fe135 Fe 0.76662 0.18049 0.3909 0.0
O136 O 0.75369 0.14571 0.37913 0.0
O137 O 0.7785 0.11379 0.39873 0.0
O138 O 0.82848 0.11629 0.37994 0.0
C139 C 0.84791 0.12796 0.36827 0.0
C140 C 0.77567 0.15797 0.43078 0.0
O141 O 0.85605 0.15547 0.37056 0.0
C142 C 0.79521 0.23517 0.3946 0.0
O143 O 0.85393 0.14713 0.4101 0.0
O144 O 0.85347 0.19521 0.40053 0.0
O145 O 0.75841 0.16623 0.41645 0.0
O146 O 0.80215 0.14779 0.42743 0.0
C147 C 0.7861 0.19206 0.3507 0.0
O148 O 0.81455 0.22612 0.38171 0.0
O149 O 0.77705 0.21644 0.40257 0.0
C150 C 0.86362 0.17437 0.41168 0.0
O151 O 0.8131 0.18355 0.35387 0.0
O152 O 0.76802 0.19701 0.36532 0.0
C153 C 0.75799 0.11912 0.38571 0.0
Fe154 Fe 0.07619 0.51664 0.14026 0.0
Fe155 Fe 0.1201 0.56659 0.15481 0.0
O156 O 0.08763 0.55521 0.1407 0.0
Fe157 Fe 0.06688 0.58239 0.12666 0.0
O158 O 0.07454 0.56277 0.10323 0.0
O159 O 0.06121 0.51759 0.1143 0.0
O160 O 0.11225 0.50536 0.12948 0.0
C161 C 0.138 0.51053 0.13717 0.0
C162 C 0.0205 0.54361 0.14238 0.0
O163 O 0.14111 0.53041 0.15096 0.0
C164 C 0.07722 0.61431 0.16122 0.0
O165 O 0.08909 0.50857 0.1661 0.0
O166 O 0.10347 0.55303 0.17828 0.0
O167 O 0.02976 0.56318 0.1297 0.0
O168 O 0.03918 0.52586 0.15083 0.0
C169 C 0.12797 0.59863 0.11965 0.0
O170 O 0.1047 0.60499 0.16105 0.0
O171 O 0.0579 0.60329 0.14924 0.0
C172 C 0.09463 0.52589 0.18101 0.0
O173 O 0.13893 0.58004 0.13217 0.0
O174 O 0.10021 0.60652 0.12086 0.0
C175 C 0.06663 0.53565 0.09982 0.0
Fe176 Fe 0.83202 0.69067 0.62736 0.0
Fe177 Fe 0.76709 0.68105 0.61226 0.0
O178 O 0.80541 0.66893 0.61345 0.0
Fe179 Fe 0.81727 0.63506 0.601 0.0
O180 O 0.8293 0.61824 0.62462 0.0
O181 O 0.85572 0.65778 0.63478 0.0
O182 O 0.81109 0.68487 0.65045 0.0
C183 C 0.7838 0.69306 0.65292 0.0
C184 C 0.86519 0.6771 0.59391 0.0
O185 O 0.76664 0.69785 0.63784 0.0
C186 C 0.77889 0.65856 0.57259 0.0
O187 O 0.81327 0.72768 0.62287 0.0
O188 O 0.77772 0.71701 0.60077 0.0
O189 O 0.85608 0.64963 0.59523 0.0
O190 O 0.85405 0.69767 0.60494 0.0
C191 C 0.75937 0.61966 0.61724 0.0
O192 O 0.7606 0.66627 0.58656 0.0
O193 O 0.80552 0.64951 0.57664 0.0
C194 C 0.79476 0.7362 0.60934 0.0
O195 O 0.75421 0.64615 0.62378 0.0
O196 O 0.78061 0.61477 0.6046 0.0
C197 C 0.84793 0.63009 0.63676 0.0
Fe198 Fe 0.07049 0.01669 0.86886 0.0
Fe199 Fe 0.11765 0.06436 0.85523 0.0
O200 O 0.08382 0.05467 0.86845 0.0
Fe201 Fe 0.06346 0.08318 0.88169 0.0
O202 O 0.06958 0.0641 0.9054 0.0
O203 O 0.05451 0.01909 0.89471 0.0
O204 O 0.10545 0.00359 0.8803 0.0
C205 C 0.13185 0.00736 0.87321 0.0
C206 C 0.01615 0.04583 0.8657 0.0
O207 O 0.1369 0.02746 0.85985 0.0
C208 C 0.07686 0.11324 0.8471 0.0
O209 O 0.08403 0.00756 0.84317 0.0
O210 O 0.10229 0.05095 0.83146 0.0
O211 O 0.02569 0.06527 0.8784 0.0
O212 O 0.03452 0.02745 0.85754 0.0
C213 C 0.12469 0.09773 0.88983 0.0
O214 O 0.10404 0.10319 0.84829 0.0
O215 O 0.0563 0.10347 0.85863 0.0
C216 C 0.09209 0.02437 0.82851 0.0
O217 O 0.13549 0.07767 0.87824 0.0
O218 O 0.09731 0.10648 0.88778 0.0
C219 C 0.06039 0.03747 0.90903 0.0
Fe220 Fe 0.67305 0.31282 0.12718 0.0
Fe221 Fe 0.73872 0.32283 0.11354 0.0
O222 O 0.70022 0.33451 0.11374 0.0
Fe223 Fe 0.68879 0.36792 0.10072 0.0
O224 O 0.67545 0.38523 0.12396 0.0
O225 O 0.64884 0.34575 0.13399 0.0
O226 O 0.69273 0.319 0.15071 0.0
C227 C 0.7199 0.31098 0.15381 0.0
C228 C 0.64104 0.32557 0.09313 0.0
O229 O 0.73789 0.30626 0.13912 0.0
C230 C 0.72906 0.34408 0.07347 0.0
O231 O 0.69226 0.27584 0.12309 0.0
O232 O 0.72908 0.28669 0.10189 0.0
O233 O 0.65033 0.35304 0.0942 0.0
O234 O 0.65215 0.30536 0.10439 0.0
C235 C 0.74568 0.38431 0.11815 0.0
O236 O 0.74658 0.33735 0.08802 0.0
O237 O 0.70204 0.35284 0.07673 0.0
C238 C 0.71148 0.26746 0.10989 0.0
O239 O 0.75057 0.35809 0.1252 0.0
O240 O 0.72506 0.38853 0.10499 0.0
C241 C 0.65644 0.37351 0.13591 0.0
Fe242 Fe 0.43789 0.91808 0.37949 0.0
Fe243 Fe 0.42731 0.98262 0.36393 0.0
O244 O 0.41588 0.94409 0.36531 0.0
Fe245 Fe 0.38243 0.93144 0.35281 0.0
O246 O 0.36551 0.91953 0.37649 0.0
O247 O 0.40536 0.89399 0.38696 0.0
O248 O 0.43141 0.93929 0.4024 0.0
C249 C 0.43903 0.96676 0.40474 0.0
C250 C 0.42536 0.88374 0.34634 0.0
O251 O 0.44374 0.98377 0.38957 0.0
C252 C 0.40575 0.9698 0.32426 0.0
O253 O 0.47464 0.93737 0.37499 0.0
O254 O 0.46355 0.97241 0.35265 0.0
O255 O 0.39778 0.89275 0.34729 0.0
O256 O 0.44552 0.89575 0.35728 0.0
C257 C 0.36577 0.98954 0.3685 0.0
O258 O 0.41282 0.98843 0.33816 0.0
O259 O 0.39697 0.9431 0.3284 0.0
C260 C 0.48295 0.95583 0.36136 0.0
O261 O 0.39204 0.99517 0.37518 0.0
O262 O 0.36144 0.9678 0.35612 0.0
C263 C 0.37762 0.90154 0.38893 0.0
Fe264 Fe 0.16473 0.31109 0.3761 0.0
Fe265 Fe 0.23142 0.32166 0.38719 0.0
O266 O 0.19278 0.33265 0.3888 0.0
Fe267 Fe 0.18191 0.36539 0.40283 0.0
O268 O 0.16675 0.38338 0.38037 0.0
O269 O 0.13961 0.34394 0.37098 0.0
O270 O 0.182 0.31859 0.35198 0.0
C271 C 0.20882 0.31099 0.34747 0.0
C272 C 0.13577 0.32212 0.41152 0.0
O273 O 0.22851 0.30637 0.36119 0.0
C274 C 0.22451 0.34101 0.42813 0.0
O275 O 0.18473 0.27429 0.37852 0.0
O276 O 0.22357 0.28465 0.39818 0.0
O277 O 0.14416 0.34981 0.41026 0.0
O278 O 0.14615 0.30234 0.3996 0.0
C279 C 0.23705 0.3835 0.38391 0.0
O280 O 0.24105 0.33499 0.41287 0.0
O281 O 0.19714 0.34948 0.42596 0.0
C282 C 0.20554 0.26554 0.39044 0.0
O283 O 0.24172 0.35774 0.37602 0.0
O284 O 0.21749 0.38667 0.39788 0.0
C285 C 0.14717 0.37167 0.36883 0.0
Fe286 Fe 0.93793 0.99265 0.1484 0.0
Fe287 Fe 0.89374 0.93842 0.15025 0.0
O288 O 0.92749 0.95548 0.14073 0.0
Fe289 Fe 0.9505 0.93532 0.12327 0.0
O290 O 0.96363 0.96903 0.10972 0.0
O291 O 0.93672 0.00666 0.12254 0.0
O292 O 0.89866 0.00625 0.15098 0.0
C293 C 0.87413 0.99683 0.14306 0.0
C294 C 0.99444 0.96083 0.14693 0.0
O295 O 0.87011 0.96872 0.13961 0.0
C296 C 0.93368 0.89043 0.15132 0.0
O297 O 0.93957 0.98141 0.1747 0.0
O298 O 0.89537 0.95788 0.17492 0.0
O299 O 0.98345 0.93644 0.13984 0.0
O300 O 0.97904 0.98532 0.14716 0.0
C301 C 0.89375 0.9214 0.10907 0.0
O302 O 0.91584 0.90727 0.16143 0.0
O303 O 0.94146 0.89783 0.13364 0.0
C304 C 0.91696 0.97102 0.18425 0.0
O305 O 0.88553 0.91623 0.12711 0.0
O306 O 0.91932 0.93336 0.10547 0.0
C307 C 0.95153 0.995 0.10817 0.0
Fe308 Fe 0.32035 0.63471 0.90062 0.0
Fe309 Fe 0.32898 0.69275 0.87514 0.0
O310 O 0.30516 0.66853 0.88974 0.0
Fe311 Fe 0.26614 0.67812 0.89307 0.0
O312 O 0.25256 0.63876 0.89353 0.0
O313 O 0.29316 0.61066 0.88735 0.0
O314 O 0.34689 0.62672 0.87944 0.0
C315 C 0.34655 0.6364 0.86136 0.0
C316 C 0.27975 0.65752 0.93099 0.0
O317 O 0.33629 0.66253 0.85729 0.0
C318 C 0.2965 0.73525 0.89615 0.0
O319 O 0.34884 0.6564 0.91475 0.0
O320 O 0.36378 0.68419 0.88905 0.0
O321 O 0.27009 0.67918 0.92023 0.0
O322 O 0.29606 0.63642 0.9234 0.0
C323 C 0.27443 0.69243 0.85334 0.0
O324 O 0.32271 0.72507 0.89191 0.0
O325 O 0.2728 0.71933 0.89323 0.0
C326 C 0.3677 0.67442 0.90673 0.0
O327 O 0.2989 0.7055 0.85827 0.0
O328 O 0.25916 0.67749 0.86603 0.0
C329 C 0.26468 0.61443 0.88719 0.0
Fe330 Fe 0.5603 0.08212 0.62763 0.0
Fe331 Fe 0.57249 0.01656 0.64051 0.0
O332 O 0.58317 0.05535 0.64052 0.0
Fe333 Fe 0.61675 0.06744 0.65317 0.0
O334 O 0.63301 0.08171 0.62986 0.0
O335 O 0.59226 0.10712 0.62056 0.0
O336 O 0.56626 0.06301 0.60386 0.0
C337 C 0.55905 0.03566 0.6006 0.0
C338 C 0.57345 0.11383 0.66177 0.0
O339 O 0.55513 0.01733 0.61516 0.0
C340 C 0.59459 0.02624 0.68037 0.0
O341 O 0.52406 0.06192 0.632 0.0
O342 O 0.53642 0.02497 0.65269 0.0
O343 O 0.6011 0.10542 0.66011 0.0
O344 O 0.55305 0.1025 0.65074 0.0
C345 C 0.63394 0.01144 0.63486 0.0
O346 O 0.588 0.0087 0.66577 0.0
O347 O 0.60273 0.05348 0.67723 0.0
C348 C 0.51653 0.04219 0.64503 0.0
O349 O 0.60761 0.00596 0.62823 0.0
O350 O 0.63815 0.03166 0.64833 0.0
C351 C 0.62012 0.1003 0.61816 0.0
C352 C 0.22505 0.20903 0.17457 0.0
C353 C 0.25449 0.19704 0.17205 0.0
C354 C 0.21522 0.21834 0.19376 0.0
C355 C 0.23335 0.21346 0.24833 0.0
H356 H 0.20739 0.29803 0.25028 0.0
C357 C 0.24009 0.28302 0.32166 0.0
C358 C 0.21477 0.30131 0.32644 0.0
C359 C 0.24281 0.26992 0.3025 0.0
C360 C 0.21424 0.27428 0.25001 0.0
H361 H 0.29594 0.18352 0.18735 0.0
H362 H 0.27865 0.19877 0.22065 0.0
H363 H 0.21206 0.27222 0.21777 0.0
H364 H 0.17342 0.32172 0.31446 0.0
H365 H 0.17815 0.2988 0.28121 0.0
H366 H 0.23606 0.21557 0.28049 0.0
C367 C 0.2631 0.2012 0.20807 0.0
C368 C 0.21671 0.25945 0.2314 0.0
C369 C 0.27304 0.1925 0.189 0.0
C370 C 0.19314 0.30757 0.31133 0.0
C371 C 0.19588 0.29451 0.29221 0.0
C372 C 0.23082 0.22823 0.26692 0.0
C373 C 0.23454 0.21516 0.2106 0.0
C374 C 0.2269 0.22909 0.23035 0.0
C375 C 0.22033 0.27493 0.28772 0.0
C376 C 0.22184 0.259 0.26796 0.0
H377 H 0.21055 0.21302 0.16163 0.0
H378 H 0.19302 0.22894 0.19535 0.0
H379 H 0.241 0.18995 0.24797 0.0
H380 H 0.25716 0.27781 0.33293 0.0
H381 H 0.26229 0.25546 0.29935 0.0
C382 C 0.47293 0.48686 0.57102 0.0
C383 C 0.44984 0.46564 0.5753 0.0
C384 C 0.48571 0.48825 0.5517 0.0
C385 C 0.47312 0.46702 0.49853 0.0
H386 H 0.56146 0.46808 0.49543 0.0
C387 C 0.53303 0.46467 0.4217 0.0
C388 C 0.55505 0.4876 0.41956 0.0
C389 C 0.52275 0.45643 0.44094 0.0
C390 C 0.53678 0.46784 0.49604 0.0
H391 H 0.42072 0.43057 0.56252 0.0
H392 H 0.44271 0.43331 0.52884 0.0
H393 H 0.53644 0.46855 0.52832 0.0
H394 H 0.58494 0.51857 0.43535 0.0
H395 H 0.56739 0.5044 0.46881 0.0
H396 H 0.4733 0.46713 0.46631 0.0
C397 C 0.45112 0.4487 0.54036 0.0
C398 C 0.52246 0.4683 0.51487 0.0
C399 C 0.43858 0.44711 0.55966 0.0
C400 C 0.56826 0.50054 0.43677 0.0
C401 C 0.55813 0.49235 0.45593 0.0
C402 C 0.48741 0.46675 0.4797 0.0
C403 C 0.47535 0.46871 0.5363 0.0
C404 C 0.49048 0.46822 0.5163 0.0
C405 C 0.53432 0.47116 0.45822 0.0
C406 C 0.51942 0.4675 0.47821 0.0
H407 H 0.48216 0.50131 0.5828 0.0
H408 H 0.50407 0.50422 0.54889 0.0
H409 H 0.44842 0.46709 0.49918 0.0
H410 H 0.52218 0.45485 0.40853 0.0
H411 H 0.50468 0.4397 0.44222 0.0
C412 C 0.24672 0.78365 0.68186 0.0
C413 C 0.2192 0.79885 0.67776 0.0
C414 C 0.25193 0.77104 0.70088 0.0
C415 C 0.21091 0.74212 0.74521 0.0
H416 H 0.28926 0.75025 0.77163 0.0
C417 C 0.23443 0.70737 0.82837 0.0
C418 C 0.2638 0.6965 0.8326 0.0
C419 C 0.22726 0.7172 0.80885 0.0
C420 C 0.26738 0.74732 0.76432 0.0
H421 H 0.17621 0.814 0.69072 0.0
H422 H 0.1855 0.79219 0.72383 0.0
H423 H 0.28116 0.77429 0.73907 0.0
H424 H 0.30775 0.68459 0.81991 0.0
H425 H 0.29495 0.70035 0.78582 0.0
H426 H 0.19717 0.71504 0.77052 0.0
C427 C 0.20272 0.78951 0.71224 0.0
C428 C 0.26275 0.76121 0.7457 0.0
C429 C 0.19755 0.80217 0.69329 0.0
C430 C 0.28504 0.69328 0.81694 0.0
C431 C 0.27779 0.70256 0.7975 0.0
C432 C 0.21558 0.72807 0.76385 0.0
C433 C 0.22973 0.7734 0.71613 0.0
C434 C 0.23451 0.75874 0.73595 0.0
C435 C 0.24933 0.71588 0.79341 0.0
C436 C 0.24394 0.73041 0.77356 0.0
H437 H 0.26383 0.78066 0.67023 0.0
H438 H 0.27294 0.75864 0.70347 0.0
H439 H 0.18897 0.7396 0.73789 0.0
H440 H 0.21783 0.71016 0.84035 0.0
H441 H 0.20513 0.72737 0.80616 0.0
C442 C 0.96917 0.50719 0.92773 0.0
C443 C 0.95318 0.47981 0.92453 0.0
C444 C 0.98095 0.51413 0.94677 0.0
C445 C 0.97554 0.49392 1.0008 0.0
H446 H 0.05901 0.52311 0.0028 0.0
C447 C 0.04209 0.49969 0.07533 0.0
C448 C 0.05795 0.52699 0.07904 0.0
C449 C 0.03043 0.49345 0.05617 0.0
C450 C 0.03561 0.5152 0.00248 0.0
H451 H 0.9357 0.43899 0.93903 0.0
H452 H 0.95636 0.45104 0.9721 0.0
H453 H 0.03446 0.51503 0.97023 0.0
H454 H 0.07545 0.56837 0.06525 0.0
H455 H 0.05501 0.55746 0.0319 0.0
H456 H 0.97671 0.49399 0.03304 0.0
C457 C 0.95976 0.46719 0.95996 0.0
C458 C 0.0215 0.51069 0.98384 0.0
C459 C 0.94806 0.46022 0.94095 0.0
C460 C 0.06319 0.54719 0.06294 0.0
C461 C 0.05159 0.54089 0.04379 0.0
C462 C 0.98964 0.49839 0.01943 0.0
C463 C 0.97684 0.49392 0.96299 0.0
C464 C 0.99133 0.49993 0.9828 0.0
C465 C 0.0345 0.51429 0.04031 0.0
C466 C 0.01986 0.509 0.02047 0.0
H467 H 0.97342 0.52282 0.91542 0.0
H468 H 0.9936 0.53515 0.94874 0.0
H469 H 0.95214 0.48598 1.0005 0.0
H470 H 0.03778 0.48357 0.08736 0.0
H471 H 0.01781 0.47248 0.05384 0.0
C472 C 0.75137 0.78886 0.82464 0.0
C473 C 0.72404 0.80467 0.8284 0.0
C474 C 0.75768 0.77739 0.80542 0.0
C475 C 0.7364 0.78339 0.75172 0.0
H476 H 0.76557 0.69988 0.74916 0.0
C477 C 0.74651 0.71839 0.67631 0.0
C478 C 0.77386 0.70222 0.67337 0.0
C479 C 0.73902 0.72991 0.69535 0.0
C480 C 0.75766 0.72329 0.74962 0.0
H481 H 0.68267 0.82225 0.81466 0.0
H482 H 0.69372 0.80217 0.78118 0.0
H483 H 0.75705 0.72388 0.78187 0.0
H484 H 0.81408 0.68424 0.68833 0.0
H485 H 0.80112 0.7045 0.72136 0.0
H486 H 0.73719 0.78285 0.71946 0.0
C487 C 0.71024 0.79864 0.79308 0.0
C488 C 0.75288 0.73707 0.76835 0.0
C489 C 0.70386 0.81001 0.8123 0.0
C490 C 0.79289 0.69673 0.69003 0.0
C491 C 0.78538 0.70819 0.70903 0.0
C492 C 0.74124 0.76962 0.73297 0.0
C493 C 0.73689 0.78164 0.78955 0.0
C494 C 0.74233 0.7673 0.7696 0.0
C495 C 0.75864 0.72536 0.71183 0.0
C496 C 0.75205 0.73946 0.73172 0.0
H497 H 0.76746 0.78446 0.83667 0.0
H498 H 0.77867 0.76483 0.80304 0.0
H499 H 0.7285 0.8068 0.75222 0.0
H500 H 0.73131 0.72292 0.6638 0.0
H501 H 0.71801 0.74265 0.69713 0.0
C502 C 0.75591 0.28562 0.17791 0.0
C503 C 0.72879 0.30192 0.17446 0.0
C504 C 0.76247 0.27417 0.19708 0.0
C505 C 0.7239 0.25129 0.24404 0.0
H506 H 0.80554 0.2521 0.26642 0.0
C507 C 0.7504 0.21751 0.32645 0.0
C508 C 0.77745 0.20117 0.33001 0.0
C509 C 0.74396 0.22884 0.30723 0.0
C510 C 0.78268 0.25136 0.26026 0.0
H511 H 0.68811 0.32038 0.18868 0.0
H512 H 0.69981 0.30078 0.2221 0.0
H513 H 0.79619 0.27538 0.23363 0.0
H514 H 0.81819 0.18255 0.31594 0.0
H515 H 0.80672 0.20199 0.28244 0.0
H516 H 0.71038 0.22728 0.27067 0.0
C517 C 0.71563 0.29623 0.2099 0.0
C518 C 0.77733 0.26475 0.2415 0.0
C519 C 0.70905 0.30762 0.19076 0.0
C520 C 0.79729 0.19535 0.31378 0.0
C521 C 0.79084 0.20664 0.29459 0.0
C522 C 0.72924 0.2379 0.2628 0.0
C523 C 0.7421 0.27887 0.21319 0.0
C524 C 0.74787 0.26491 0.2332 0.0
C525 C 0.7644 0.22399 0.29118 0.0
C526 C 0.7587 0.23778 0.27112 0.0
H527 H 0.77158 0.28079 0.16568 0.0
H528 H 0.78298 0.26074 0.19912 0.0
H529 H 0.70103 0.25055 0.23789 0.0
H530 H 0.73464 0.22242 0.33863 0.0
H531 H 0.72348 0.24228 0.30511 0.0
C532 C 0.93598 0.00349 0.07299 0.0
C533 C 0.95542 0.01097 0.08901 0.0
C534 C 0.94456 0.0099 0.05317 0.0
C535 C 0.99818 0.05202 0.02079 0.0
H536 H 0.99712 0.97854 0.98806 0.0
C537 C 0.06414 0.04603 0.94607 0.0
C538 C 0.05046 0.03073 0.9298 0.0
C539 C 0.05197 0.04366 0.96545 0.0
C540 C 0.99718 0.99943 0.99681 0.0
H541 H 0.99821 0.03197 0.09734 0.0
H542 H 0.01296 0.04418 0.06261 0.0
H543 H 0.97405 0.97809 0.02147 0.0
H544 H 0.01383 1.00029 0.9211 0.0
H545 H 0.99203 0.99666 0.95486 0.0
H546 H 0.02092 0.07357 0.99613 0.0
C547 C 0.99103 0.03355 0.06533 0.0
C548 C 0.98393 0.99916 0.01597 0.0
C549 C 0.98257 0.02679 0.08516 0.0
C550 C 0.02505 0.01204 0.93342 0.0
C551 C 0.01256 0.01002 0.95279 0.0
C552 C 0.01108 0.05244 1.00151 0.0
C553 C 0.97271 0.02395 0.04912 0.0
C554 C 0.98454 0.02536 0.02821 0.0
C555 C 0.0255 0.02633 0.96899 0.0
C556 C 0.01108 0.02603 0.98934 0.0
H557 H 0.91522 0.99073 0.07571 0.0
H558 H 0.92993 0.00249 0.04095 0.0
H559 H 0.99881 0.07256 0.0299 0.0
H560 H 0.0839 0.06045 0.94371 0.0
H561 H 0.06312 0.05582 0.97761 0.0
C562 C 0.4415 0.95847 0.44193 0.0
C563 C 0.44773 0.97706 0.42517 0.0
C564 C 0.45275 0.96609 0.46094 0.0
C565 C 0.51494 0.00891 0.48473 0.0
H566 H 0.46847 0.99506 0.53366 0.0
C567 C 0.55576 0.04658 0.5637 0.0
C568 C 0.54996 0.02684 0.57995 0.0
C569 C 0.54426 0.04014 0.54456 0.0
C570 C 0.48185 0.99867 0.52013 0.0
H571 H 0.46942 0.01901 0.4154 0.0
H572 H 0.4888 0.03251 0.44876 0.0
H573 H 0.44447 0.98678 0.50096 0.0
H574 H 0.5287 0.98413 0.58864 0.0
H575 H 0.50877 0.97277 0.55511 0.0
H576 H 0.55231 0.02082 0.50394 0.0
C577 C 0.47563 0.01176 0.44705 0.0
C578 C 0.46808 0.99404 0.50141 0.0
C579 C 0.46432 0.00416 0.428 0.0
C580 C 0.53347 0.99985 0.57646 0.0
C581 C 0.52185 0.99347 0.55731 0.0
C582 C 0.5287 0.01359 0.50346 0.0
C583 C 0.47043 0.99249 0.46364 0.0
C584 C 0.48451 0.99898 0.48351 0.0
C585 C 0.52665 0.01384 0.54126 0.0
C586 C 0.51233 0.00838 0.52135 0.0
H587 H 0.42865 0.9375 0.4403 0.0
H588 H 0.44853 0.95063 0.47336 0.0
H589 H 0.52837 0.01239 0.47121 0.0
H590 H 0.56855 0.06748 0.56585 0.0
H591 H 0.54822 0.05634 0.53252 0.0
C592 C 0.13381 0.1348 0.91829 0.0
C593 C 0.14401 0.11039 0.90625 0.0
C594 C 0.15098 0.14473 0.93486 0.0
C595 C 0.22805 0.13809 0.95901 0.0
H596 H 0.18351 0.16046 0.00736 0.0
C597 C 0.28156 0.14197 0.03917 0.0
C598 C 0.2725 0.16584 0.05209 0.0
C599 C 0.26806 0.13842 0.02016 0.0
C600 C 0.19633 0.15466 0.99391 0.0
H601 H 0.18058 0.07755 0.90216 0.0
H602 H 0.20996 0.09425 0.93115 0.0
H603 H 0.15566 0.14841 0.97665 0.0
H604 H 0.24301 0.20552 0.0546 0.0
H605 H 0.21951 0.19915 0.02158 0.0
H606 H 0.2687 0.14335 0.97668 0.0
C607 C 0.1891 0.10633 0.92761 0.0
C608 C 0.18034 0.14782 0.97622 0.0
C609 C 0.1721 0.09661 0.91096 0.0
C610 C 0.25053 0.18678 0.04515 0.0
C611 C 0.23686 0.18305 0.02625 0.0
C612 C 0.24403 0.14462 0.97679 0.0
C613 C 0.17866 0.13031 0.93997 0.0
C614 C 0.19592 0.13924 0.95852 0.0
C615 C 0.24501 0.15848 0.01369 0.0
C616 C 0.22834 0.15285 0.99448 0.0
H617 H 0.11233 0.14599 0.91508 0.0
H618 H 0.14241 0.16363 0.94375 0.0
H619 H 0.24096 0.13213 0.94565 0.0
H620 H 0.2984 0.12544 0.04398 0.0
H621 H 0.27476 0.11918 0.01088 0.0
C622 C 0.5655 0.49242 0.2933 0.0
C623 C 0.58586 0.51454 0.3008 0.0
C624 C 0.56977 0.47959 0.27418 0.0
C625 C 0.60843 0.48934 0.22506 0.0
H626 H 0.60646 0.40092 0.22339 0.0
C627 C 0.65686 0.42049 0.15763 0.0
C628 C 0.64365 0.39221 0.15265 0.0
C629 C 0.6471 0.43682 0.17461 0.0
C630 C 0.60654 0.42562 0.22338 0.0
H631 H 0.62575 0.54162 0.29344 0.0
H632 H 0.63291 0.51943 0.25992 0.0
H633 H 0.59389 0.42745 0.25455 0.0
H634 H 0.60894 0.35953 0.16131 0.0
H635 H 0.59117 0.38844 0.19049 0.0
H636 H 0.62086 0.48761 0.19385 0.0
C637 C 0.61374 0.51196 0.26896 0.0
C638 C 0.59942 0.44085 0.24133 0.0
C639 C 0.60966 0.52463 0.2882 0.0
C640 C 0.61972 0.38116 0.16473 0.0
C641 C 0.60972 0.39767 0.18161 0.0
C642 C 0.61523 0.47412 0.20699 0.0
C643 C 0.59428 0.48874 0.26193 0.0
C644 C 0.6005 0.47287 0.24245 0.0
C645 C 0.62363 0.4255 0.18702 0.0
C646 C 0.61468 0.44198 0.20593 0.0
H647 H 0.54683 0.48412 0.30249 0.0
H648 H 0.55412 0.46208 0.26909 0.0
H649 H 0.60917 0.51405 0.22538 0.0
H650 H 0.67555 0.4296 0.1488 0.0
H651 H 0.65878 0.45784 0.17835 0.0
C652 C 0.22163 0.86004 0.54105 0.0
C653 C 0.23853 0.84843 0.55736 0.0
C654 C 0.23499 0.86309 0.52196 0.0
C655 C 0.3003 0.837 0.49056 0.0
H656 H 0.28581 0.91208 0.46128 0.0
C657 C 0.37383 0.87423 0.42216 0.0
C658 C 0.35958 0.89021 0.40638 0.0
C659 C 0.35763 0.86668 0.43967 0.0
C660 C 0.28976 0.89074 0.46905 0.0
H661 H 0.28263 0.83025 0.5661 0.0
H662 H 0.30584 0.83571 0.53293 0.0
H663 H 0.26013 0.90349 0.49333 0.0
H664 H 0.31669 0.90979 0.39644 0.0
H665 H 0.28838 0.8961 0.42673 0.0
H666 H 0.33013 0.82435 0.46633 0.0
C667 C 0.28219 0.84228 0.53485 0.0
C668 C 0.27501 0.88583 0.48749 0.0
C669 C 0.2689 0.83933 0.55394 0.0
C670 C 0.32846 0.89754 0.40829 0.0
C671 C 0.31226 0.88991 0.42576 0.0
C672 C 0.31501 0.84187 0.47208 0.0
C673 C 0.26552 0.85447 0.51864 0.0
C674 C 0.28024 0.859 0.49857 0.0
C675 C 0.32674 0.87487 0.44186 0.0
C676 C 0.3101 0.86891 0.46113 0.0
H677 H 0.19816 0.86716 0.54307 0.0
H678 H 0.22134 0.87219 0.50976 0.0
H679 H 0.30453 0.81588 0.49854 0.0
H680 H 0.39781 0.86842 0.4213 0.0
H681 H 0.36968 0.85541 0.4518 0.0
C682 C 0.87733 0.62536 0.66914 0.0
C683 C 0.86018 0.61162 0.65369 0.0
C684 C 0.88603 0.60863 0.68617 0.0
C685 C 0.86353 0.54033 0.71536 0.0
H686 H 0.94047 0.55379 0.74271 0.0
C687 C 0.89692 0.47257 0.78686 0.0
C688 C 0.90919 0.48984 0.8028 0.0
C689 C 0.89352 0.48537 0.76764 0.0
C690 C 0.91881 0.54988 0.73531 0.0
H691 H 0.83971 0.56909 0.64376 0.0
H692 H 0.85534 0.53988 0.67319 0.0
H693 H 0.93015 0.57987 0.71095 0.0
H694 H 0.92845 0.53388 0.81075 0.0
H695 H 0.92238 0.5561 0.77742 0.0
H696 H 0.85203 0.51064 0.73981 0.0
C697 C 0.86158 0.56375 0.67236 0.0
C698 C 0.91287 0.56488 0.7171 0.0
C699 C 0.85282 0.58048 0.65539 0.0
C700 C 0.91883 0.51989 0.79888 0.0
C701 C 0.91554 0.53261 0.77969 0.0
C702 C 0.86949 0.5253 0.73353 0.0
C703 C 0.87785 0.57772 0.68815 0.0
C704 C 0.88502 0.56053 0.70698 0.0
C705 C 0.90247 0.51568 0.76388 0.0
C706 C 0.89707 0.53012 0.74385 0.0
H707 H 0.88322 0.64933 0.66843 0.0
H708 H 0.89823 0.62027 0.6981 0.0
H709 H 0.84162 0.53678 0.7082 0.0
H710 H 0.88936 0.44933 0.78929 0.0
H711 H 0.88373 0.47156 0.75574 0.0
C712 C 0.88209 0.92029 0.07213 0.0
C713 C 0.87454 0.91133 0.09186 0.0
C714 C 0.86446 0.91087 0.05574 0.0
C715 C 0.78881 0.87887 0.04172 0.0
H716 H 0.83091 0.86156 0.99157 0.0
C717 C 0.76599 0.83094 0.95491 0.0
C718 C 0.73869 0.84631 0.95047 0.0
C719 C 0.78078 0.83556 0.97332 0.0
C720 C 0.81868 0.8658 0.00548 0.0
H721 H 0.84223 0.88551 0.10978 0.0
H722 H 0.81181 0.86836 0.08105 0.0
H723 H 0.86007 0.87532 0.02121 0.0
H724 H 0.70491 0.87781 0.96226 0.0
H725 H 0.73113 0.88664 0.99413 0.0
H726 H 0.74741 0.86847 0.026 0.0
C727 C 0.83114 0.88315 0.0783 0.0
C728 C 0.83547 0.87426 0.02248 0.0
C729 C 0.8487 0.89284 0.09479 0.0
C730 C 0.72586 0.86551 0.96523 0.0
C731 C 0.7409 0.87048 0.98358 0.0
C732 C 0.77197 0.87014 0.0247 0.0
C733 C 0.83892 0.89191 0.05853 0.0
C734 C 0.8208 0.88134 0.04078 0.0
C735 C 0.76893 0.85608 0.9877 0.0
C736 C 0.78667 0.86374 0.00627 0.0
H737 H 0.90163 0.93476 0.06927 0.0
H738 H 0.8708 0.91874 0.04085 0.0
H739 H 0.77666 0.88432 0.05548 0.0
H740 H 0.77628 0.81568 0.94397 0.0
H741 H 0.80185 0.82338 0.97612 0.0
C742 C 0.36145 0.58567 0.84609 0.0
C743 C 0.35885 0.61757 0.84453 0.0
C744 C 0.37017 0.56807 0.8293 0.0
C745 C 0.40803 0.57321 0.77933 0.0
H746 H 0.35821 0.50341 0.76507 0.0
C747 C 0.40967 0.52161 0.6992 0.0
C748 C 0.40552 0.49 0.6967 0.0
C749 C 0.40676 0.53522 0.71822 0.0
C750 C 0.37275 0.52249 0.76894 0.0
H751 H 0.36433 0.65599 0.82421 0.0
H752 H 0.37979 0.62555 0.79531 0.0
H753 H 0.34904 0.53013 0.79683 0.0
H754 H 0.39581 0.44784 0.71256 0.0
H755 H 0.39133 0.47148 0.74577 0.0
H756 H 0.43172 0.5658 0.75152 0.0
C757 C 0.37513 0.61402 0.80941 0.0
C758 C 0.36745 0.53783 0.78719 0.0
C759 C 0.36608 0.63148 0.82602 0.0
C760 C 0.39899 0.47228 0.71385 0.0
C761 C 0.39622 0.48589 0.73292 0.0
C762 C 0.41349 0.55777 0.76118 0.0
C763 C 0.37693 0.58207 0.81072 0.0
C764 C 0.38464 0.56373 0.79243 0.0
C765 C 0.39981 0.51762 0.73537 0.0
C766 C 0.39555 0.53253 0.75551 0.0
H767 H 0.35584 0.57423 0.86007 0.0
H768 H 0.37149 0.5435 0.83083 0.0
H769 H 0.42202 0.59279 0.78305 0.0
H770 H 0.41459 0.53606 0.68636 0.0
H771 H 0.4092 0.55975 0.71934 0.0
C772 C 0.74221 0.17864 0.4582 0.0
C773 C 0.76303 0.15653 0.45145 0.0
C774 C 0.72893 0.17636 0.47735 0.0
C775 C 0.73327 0.13175 0.52595 0.0
H776 H 0.65167 0.16402 0.53274 0.0
C777 C 0.66899 0.11635 0.60146 0.0
C778 C 0.63717 0.11292 0.60078 0.0
C779 C 0.68522 0.12542 0.58428 0.0
C780 C 0.67427 0.15437 0.53114 0.0
H781 H 0.78619 0.11459 0.45931 0.0
H782 H 0.76177 0.10936 0.49201 0.0
H783 H 0.67773 0.17088 0.50103 0.0
H784 H 0.59739 0.11614 0.58158 0.0
H785 H 0.62547 0.13001 0.55147 0.0
H786 H 0.72876 0.11294 0.55544 0.0
C787 C 0.75652 0.12936 0.48314 0.0
C788 C 0.68967 0.15895 0.5129 0.0
C789 C 0.77047 0.13218 0.46424 0.0
C790 C 0.62188 0.11906 0.58266 0.0
C791 C 0.63813 0.12724 0.56534 0.0
C792 C 0.71753 0.12641 0.54398 0.0
C793 C 0.73537 0.15134 0.49002 0.0
C794 C 0.7194 0.14758 0.50991 0.0
C795 C 0.67015 0.13036 0.56577 0.0
C796 C 0.68765 0.13746 0.54687 0.0
H797 H 0.73629 0.19781 0.44867 0.0
H798 H 0.71356 0.19431 0.4821 0.0
H799 H 0.75633 0.12317 0.52465 0.0
H800 H 0.68136 0.11185 0.61527 0.0
H801 H 0.70965 0.12829 0.58557 0.0
C802 C 0.14323 0.42053 0.34921 0.0
C803 C 0.13457 0.38987 0.35186 0.0
C804 C 0.13495 0.43649 0.33179 0.0
C805 C 0.11471 0.42235 0.27868 0.0
H806 H 0.09343 0.50825 0.27838 0.0
C807 C 0.08261 0.48321 0.20486 0.0
C808 C 0.09456 0.51259 0.20163 0.0
C809 C 0.08456 0.46938 0.22379 0.0
C810 C 0.09961 0.48432 0.27818 0.0
H811 H 0.10931 0.35241 0.33849 0.0
H812 H 0.09459 0.38034 0.30825 0.0
H813 H 0.10139 0.48209 0.31046 0.0
H814 H 0.11712 0.55082 0.21611 0.0
H815 H 0.12094 0.52646 0.24912 0.0
H816 H 0.11354 0.42454 0.2465 0.0
C817 C 0.10816 0.39192 0.31955 0.0
C818 C 0.10411 0.4693 0.29659 0.0
C819 C 0.11637 0.37598 0.33701 0.0
C820 C 0.10766 0.52818 0.21804 0.0
C821 C 0.10973 0.51423 0.23701 0.0
C822 C 0.11029 0.43734 0.26032 0.0
C823 C 0.11788 0.42218 0.31652 0.0
C824 C 0.11178 0.43811 0.29706 0.0
C825 C 0.09864 0.48443 0.24005 0.0
C826 C 0.10272 0.46855 0.25978 0.0
H827 H 0.15736 0.43196 0.36029 0.0
H828 H 0.14305 0.45966 0.32991 0.0
H829 H 0.12123 0.39851 0.27842 0.0
H830 H 0.07203 0.47063 0.19266 0.0
H831 H 0.07514 0.44671 0.22563 0.0
C832 C 0.78323 0.63808 0.5373 0.0
C833 C 0.76742 0.65582 0.55161 0.0
C834 C 0.77075 0.63271 0.51822 0.0
C835 C 0.71367 0.65898 0.48126 0.0
H836 H 0.70707 0.57328 0.46717 0.0
C837 C 0.65823 0.61124 0.40693 0.0
C838 C 0.63476 0.59017 0.41092 0.0
C839 C 0.67759 0.62117 0.42248 0.0
C840 C 0.70903 0.59732 0.47081 0.0
H841 H 0.72687 0.6832 0.55661 0.0
H842 H 0.70532 0.67412 0.52315 0.0
H843 H 0.73574 0.58835 0.49714 0.0
H844 H 0.61349 0.56309 0.43439 0.0
H845 H 0.64762 0.57954 0.46108 0.0
H846 H 0.6864 0.66772 0.45497 0.0
C847 C 0.7273 0.66426 0.5268 0.0
C848 C 0.72555 0.60596 0.48789 0.0
C849 C 0.73956 0.66929 0.546 0.0
C850 C 0.63131 0.57917 0.43069 0.0
C851 C 0.65093 0.58853 0.44603 0.0
C852 C 0.69755 0.65033 0.46392 0.0
C853 C 0.74243 0.64533 0.51288 0.0
C854 C 0.72754 0.63682 0.49354 0.0
C855 C 0.67423 0.60962 0.44212 0.0
C856 C 0.69454 0.61935 0.45881 0.0
H857 H 0.80476 0.62738 0.54107 0.0
H858 H 0.78302 0.61821 0.50773 0.0
H859 H 0.71497 0.68294 0.48522 0.0
H860 H 0.66144 0.62025 0.39188 0.0
H861 H 0.69543 0.63749 0.41912 0.0
C862 C 0.11766 0.0188 0.79495 0.0
C863 C 0.09361 0.0111 0.80796 0.0
C864 C 0.12051 0.00473 0.77607 0.0
C865 C 0.09125 0.93776 0.74609 0.0
H866 H 0.13633 0.97806 0.70357 0.0
C867 C 0.1297 0.87182 0.67484 0.0
C868 C 0.1361 0.8877 0.65697 0.0
C869 C 0.1217 0.88753 0.69247 0.0
C870 C 0.12309 0.96647 0.715 0.0
H871 H 0.05302 0.9835 0.81117 0.0
H872 H 0.05653 0.96051 0.77777 0.0
H873 H 0.12635 0.00489 0.73464 0.0
H874 H 0.13767 0.93244 0.64326 0.0
H875 H 0.12141 0.95979 0.67341 0.0
H876 H 0.08606 0.90017 0.7259 0.0
C877 C 0.07422 0.97627 0.78233 0.0
C878 C 0.11793 0.98179 0.73323 0.0
C879 C 0.07193 0.98969 0.80148 0.0
C880 C 0.13299 0.91959 0.65685 0.0
C881 C 0.12404 0.93529 0.67432 0.0
C882 C 0.09563 0.92277 0.72763 0.0
C883 C 0.09884 0.98318 0.76937 0.0
C884 C 0.10246 0.96752 0.74929 0.0
C885 C 0.11897 0.91963 0.69261 0.0
C886 C 0.11217 0.93659 0.71186 0.0
H887 H 0.13498 0.03493 0.79965 0.0
H888 H 0.14028 0.01034 0.76704 0.0
H889 H 0.07956 0.92551 0.75794 0.0
H890 H 0.13232 0.84726 0.67549 0.0
H891 H 0.11879 0.87436 0.70611 0.0
C892 C 0.72463 0.35723 0.03661 0.0
C893 C 0.74181 0.34535 0.0527 0.0
C894 C 0.7376 0.36036 0.01741 0.0
C895 C 0.80266 0.33499 0.98542 0.0
H896 H 0.7887 0.4114 0.95756 0.0
C897 C 0.87794 0.3762 0.91893 0.0
C898 C 0.86405 0.39292 0.90335 0.0
C899 C 0.86121 0.36748 0.93598 0.0
C900 C 0.79249 0.3897 0.96493 0.0
H901 H 0.78589 0.32653 0.06092 0.0
H902 H 0.80841 0.33217 0.02759 0.0
H903 H 0.76257 0.40143 0.98926 0.0
H904 H 0.82126 0.41248 0.8932 0.0
H905 H 0.79207 0.3968 0.92267 0.0
H906 H 0.83291 0.32345 0.96118 0.0
C907 C 0.78486 0.33889 0.02975 0.0
C908 C 0.77747 0.38398 0.98315 0.0
C909 C 0.77195 0.33585 0.04893 0.0
C910 C 0.83277 0.39972 0.90492 0.0
C911 C 0.81604 0.39093 0.92192 0.0
C912 C 0.81766 0.34069 0.96716 0.0
C913 C 0.768 0.35156 0.01379 0.0
C914 C 0.78257 0.35669 0.99375 0.0
C915 C 0.83016 0.37521 0.93786 0.0
C916 C 0.81299 0.36825 0.95675 0.0
H917 H 0.70132 0.36466 0.03891 0.0
H918 H 0.72383 0.36983 0.0054 0.0
H919 H 0.8068 0.31354 0.99303 0.0
H920 H 0.90202 0.37075 0.91832 0.0
H921 H 0.87295 0.35568 0.94803 0.0
C922 C 0.33285 0.11387 0.17921 0.0
C923 C 0.34805 0.11285 0.16054 0.0
C924 C 0.34066 0.09379 0.19465 0.0
C925 C 0.40339 0.05022 0.21532 0.0
H926 H 0.33978 0.00958 0.24587 0.0
C927 C 0.41719 0.00888 0.29769 0.0
C928 C 0.40382 0.98091 0.30316 0.0
C929 C 0.41314 0.02077 0.27831 0.0
C930 C 0.35787 0.02044 0.23737 0.0
H931 H 0.38325 0.08974 0.14337 0.0
H932 H 0.39759 0.05485 0.17082 0.0
H933 H 0.32663 0.03775 0.21535 0.0
H934 H 0.37657 0.94301 0.29223 0.0
H935 H 0.36918 0.96405 0.25849 0.0
H936 H 0.43447 0.0338 0.23782 0.0
C937 C 0.37943 0.07121 0.17329 0.0
C938 C 0.35031 0.03672 0.21998 0.0
C939 C 0.37117 0.09104 0.1576 0.0
C940 C 0.38714 0.96464 0.28856 0.0
C941 C 0.38279 0.97673 0.26925 0.0
C942 C 0.41092 0.03425 0.23292 0.0
C943 C 0.36416 0.0724 0.19196 0.0
C944 C 0.37289 0.0522 0.20896 0.0
C945 C 0.39536 0.00514 0.26401 0.0
C946 C 0.38815 0.01956 0.24429 0.0
H947 H 0.31471 0.13017 0.18188 0.0
H948 H 0.32868 0.09544 0.20891 0.0
H949 H 0.42121 0.06209 0.20718 0.0
H950 H 0.43031 0.02193 0.30852 0.0
H951 H 0.42291 0.04283 0.27479 0.0
C952 C 0.37498 0.37042 0.58331 0.0
C953 C 0.36025 0.38628 0.59901 0.0
C954 C 0.35907 0.36225 0.56579 0.0
C955 C 0.29049 0.38454 0.53652 0.0
H956 H 0.30762 0.31063 0.50634 0.0
C957 C 0.22178 0.35236 0.46532 0.0
C958 C 0.23857 0.34197 0.44856 0.0
C959 C 0.23561 0.35533 0.48424 0.0
C960 C 0.30272 0.33148 0.51453 0.0
H961 H 0.31681 0.40475 0.6089 0.0
H962 H 0.28897 0.38983 0.5787 0.0
H963 H 0.33323 0.31961 0.53851 0.0
H964 H 0.28298 0.32565 0.43885 0.0
H965 H 0.30703 0.3309 0.47183 0.0
H966 H 0.26012 0.39648 0.51255 0.0
C967 C 0.31301 0.38433 0.57966 0.0
C968 C 0.31744 0.33666 0.53298 0.0
C969 C 0.32894 0.39266 0.5971 0.0
C970 C 0.26932 0.33378 0.45138 0.0
C971 C 0.28311 0.33663 0.47034 0.0
C972 C 0.27572 0.3793 0.51815 0.0
C973 C 0.32798 0.36962 0.56356 0.0
C974 C 0.31161 0.36334 0.54421 0.0
C975 C 0.26655 0.34785 0.48696 0.0
C976 C 0.28171 0.35277 0.50685 0.0
H977 H 0.39913 0.36539 0.58417 0.0
H978 H 0.3715 0.35125 0.55368 0.0
H979 H 0.28585 0.40566 0.54446 0.0
H980 H 0.19803 0.35874 0.46379 0.0
H981 H 0.22203 0.36359 0.49677 0.0
C982 C 0.93706 0.99119 0.21721 0.0
C983 C 0.91247 0.98044 0.20557 0.0
C984 C 0.93199 0.0041 0.23629 0.0
C985 C 0.8754 0.04858 0.26277 0.0
H986 H 0.91709 0.02701 0.31232 0.0
C987 C 0.87153 0.12442 0.33396 0.0
C988 C 0.86049 0.10972 0.35133 0.0
C989 C 0.87997 0.10749 0.31694 0.0
C990 C 0.90536 0.03324 0.29856 0.0
H991 H 0.86338 0.97394 0.2052 0.0
H992 H 0.85462 0.99708 0.2382 0.0
H993 H 0.92752 0.9981 0.28121 0.0
H994 H 0.85079 0.06566 0.36471 0.0
H995 H 0.86657 0.03602 0.33508 0.0
H996 H 0.85375 0.08407 0.27986 0.0
C997 C 0.87778 0.99528 0.23261 0.0
C998 C 0.91137 0.01681 0.28082 0.0
C999 C 0.88288 0.98185 0.21376 0.0
C1000 C 0.85925 0.07764 0.35157 0.0
C1001 C 0.86833 0.06067 0.33467 0.0
C1002 C 0.86992 0.06537 0.28034 0.0
C1003 C 0.9022 0.00703 0.24389 0.0
C1004 C 0.89624 0.02421 0.2628 0.0
C1005 C 0.87815 0.07548 0.31705 0.0
C1006 C 0.88472 0.05782 0.29842 0.0
H1007 H 0.96012 0.99042 0.21135 0.0
H1008 H 0.95119 0.01307 0.24468 0.0
H1009 H 0.86361 0.0549 0.24904 0.0
H1010 H 0.8725 0.14909 0.33321 0.0
H1011 H 0.88756 0.11944 0.30356 0.0
C1012 C 0.13626 0.63144 0.08893 0.0
C1013 C 0.14729 0.6097 0.10271 0.0
C1014 C 0.15316 0.63901 0.07168 0.0
C1015 C 0.21013 0.60632 0.03722 0.0
H1016 H 0.21934 0.68916 0.01778 0.0
C1017 C 0.27975 0.63214 0.96507 0.0
C1018 C 0.26845 0.65481 0.95209 0.0
C1019 C 0.26736 0.62827 0.98441 0.0
C1020 C 0.21671 0.66582 0.02282 0.0
H1021 H 0.18524 0.57947 0.10928 0.0
H1022 H 0.21448 0.5926 0.07925 0.0
H1023 H 0.19284 0.67981 0.04957 0.0
H1024 H 0.2355 0.69161 0.94956 0.0
H1025 H 0.21348 0.68436 0.9828 0.0
H1026 H 0.23298 0.59206 0.01031 0.0
C1027 C 0.19272 0.60371 0.08176 0.0
C1028 C 0.20158 0.66052 0.04111 0.0
C1029 C 0.17602 0.59639 0.09908 0.0
C1030 C 0.24493 0.67395 0.95913 0.0
C1031 C 0.23235 0.6699 0.97834 0.0
C1032 C 0.22495 0.61157 0.01884 0.0
C1033 C 0.1813 0.62475 0.06769 0.0
C1034 C 0.19806 0.63069 0.04851 0.0
C1035 C 0.24313 0.64679 0.99122 0.0
C1036 C 0.2284 0.64139 0.0113 0.0
H1037 H 0.11419 0.64205 0.09117 0.0
H1038 H 0.14365 0.65518 0.06107 0.0
H1039 H 0.20741 0.58302 0.04234 0.0
H1040 H 0.29797 0.61712 0.96024 0.0
H1041 H 0.27677 0.61063 0.99397 0.0
C1042 C 0.58666 0.98327 0.70482 0.0
C1043 C 0.59604 0.01345 0.70111 0.0
C1044 C 0.58943 0.9705 0.72405 0.0
C1045 C 0.63327 0.9783 0.77115 0.0
H1046 H 0.57172 0.92381 0.79272 0.0
C1047 C 0.64673 0.92401 0.84982 0.0
C1048 C 0.63948 0.89284 0.85147 0.0
C1049 C 0.63847 0.94061 0.83266 0.0
C1050 C 0.58925 0.93878 0.78686 0.0
H1051 H 0.61502 0.05409 0.71499 0.0
H1052 H 0.61976 0.0318 0.74856 0.0
H1053 H 0.56292 0.94938 0.76058 0.0
H1054 H 0.61704 0.85497 0.83649 0.0
H1055 H 0.60294 0.88378 0.80654 0.0
H1056 H 0.6599 0.9673 0.79715 0.0
C1057 C 0.61056 0.01791 0.73649 0.0
C1058 C 0.58418 0.95347 0.76843 0.0
C1059 C 0.60768 0.03075 0.71725 0.0
C1060 C 0.62281 0.87898 0.83583 0.0
C1061 C 0.61465 0.89557 0.81863 0.0
C1062 C 0.63837 0.96356 0.78954 0.0
C1063 C 0.60171 0.98753 0.74009 0.0
C1064 C 0.60625 0.97322 0.76025 0.0
C1065 C 0.62286 0.92647 0.81665 0.0
C1066 C 0.61654 0.9434 0.79758 0.0
H1067 H 0.57753 0.96925 0.69279 0.0
H1068 H 0.58269 0.94695 0.7262 0.0
H1069 H 0.65097 0.99296 0.76517 0.0
H1070 H 0.65948 0.93549 0.86158 0.0
H1071 H 0.64469 0.96449 0.83185 0.0
C1072 C 0.41854 0.20413 0.10786 0.0
C1073 C 0.39608 0.19304 0.09463 0.0
C1074 C 0.44271 0.22159 0.10075 0.0
C1075 C 0.491 0.24038 0.05866 0.0
H1076 H 0.50582 0.31276 0.09099 0.0
C1077 C 0.60928 0.28661 0.07583 0.0
C1078 C 0.61338 0.31719 0.08164 0.0
C1079 C 0.58081 0.27613 0.06955 0.0
C1080 C 0.5018 0.29319 0.08136 0.0
H1081 H 0.38246 0.19016 0.06327 0.0
H1082 H 0.42576 0.22061 0.05063 0.0
H1083 H 0.45901 0.28405 0.09562 0.0
H1084 H 0.5917 0.36151 0.08347 0.0
H1085 H 0.54164 0.34323 0.07231 0.0
H1086 H 0.53455 0.24884 0.045 0.0
C1087 C 0.42405 0.21586 0.06661 0.0
C1088 C 0.47505 0.27652 0.08421 0.0
C1089 C 0.39946 0.19833 0.07382 0.0
C1090 C 0.58915 0.3378 0.07916 0.0
C1091 C 0.56045 0.32724 0.07292 0.0
C1092 C 0.51793 0.2571 0.05581 0.0
C1093 C 0.44529 0.22844 0.08018 0.0
C1094 C 0.47005 0.24921 0.07358 0.0
C1095 C 0.55563 0.29597 0.06896 0.0
C1096 C 0.52426 0.28295 0.0678 0.0
H1097 H 0.41698 0.20017 0.12395 0.0
H1098 H 0.45921 0.23027 0.11148 0.0
H1099 H 0.4876 0.21949 0.0502 0.0
H1100 H 0.62768 0.27025 0.07739 0.0
H1101 H 0.5781 0.25192 0.06678 0.0
C1102 C 0.54008 0.65545 0.35989 0.0
C1103 C 0.55356 0.6349 0.34621 0.0
C1104 C 0.52295 0.68004 0.35308 0.0
C1105 C 0.50944 0.73235 0.31193 0.0
H1106 H 0.43509 0.74702 0.34224 0.0
C1107 C 0.46486 0.85098 0.33029 0.0
C1108 C 0.43403 0.85572 0.33523 0.0
C1109 C 0.47508 0.82242 0.32391 0.0
C1110 C 0.45526 0.74311 0.33316 0.0
H1111 H 0.56069 0.62502 0.31451 0.0
H1112 H 0.53074 0.66899 0.30247 0.0
H1113 H 0.46217 0.69914 0.3463 0.0
H1114 H 0.38916 0.83506 0.33545 0.0
H1115 H 0.40699 0.78488 0.32408 0.0
H1116 H 0.50302 0.77688 0.29929 0.0
C1117 C 0.53341 0.66548 0.31853 0.0
C1118 C 0.47102 0.71572 0.3357 0.0
C1119 C 0.55063 0.64048 0.32541 0.0
C1120 C 0.41309 0.83202 0.33187 0.0
C1121 C 0.42337 0.80324 0.3255 0.0
C1122 C 0.49358 0.75986 0.30934 0.0
C1123 C 0.51874 0.68497 0.33238 0.0
C1124 C 0.49902 0.71068 0.32589 0.0
C1125 C 0.45473 0.79778 0.3223 0.0
C1126 C 0.46706 0.76614 0.32067 0.0
H1127 H 0.54214 0.65222 0.37602 0.0
H1128 H 0.51272 0.69517 0.36412 0.0
H1129 H 0.53086 0.72898 0.30407 0.0
H1130 H 0.48151 0.86895 0.33248 0.0
H1131 H 0.49936 0.81923 0.32177 0.0
C1132 C 0.9212 0.67379 0.58878 0.0
C1133 C 0.89284 0.68511 0.58262 0.0
C1134 C 0.9481 0.68814 0.58251 0.0
C1135 C 0.97281 0.76486 0.56538 0.0
H1136 H 0.05219 0.72627 0.56706 0.0
C1137 C 0.11133 0.79305 0.56949 0.0
C1138 C 0.10977 0.81783 0.58285 0.0
C1139 C 0.0847 0.779 0.5626 0.0
C1140 C 0.03031 0.7376 0.56604 0.0
H1141 H 0.86996 0.71845 0.564 0.0
H1142 H 0.91679 0.74223 0.55186 0.0
H1143 H 0.0068 0.69489 0.56619 0.0
H1144 H 0.07955 0.84845 0.59883 0.0
H1145 H 0.03298 0.82345 0.58757 0.0
H1146 H 0.99634 0.80756 0.56477 0.0
C1147 C 0.91856 0.72317 0.56215 0.0
C1148 C 0.0041 0.71944 0.56592 0.0
C1149 C 0.89172 0.70927 0.56881 0.0
C1150 C 0.08122 0.82972 0.58819 0.0
C1151 C 0.05452 0.81524 0.58171 0.0
C1152 C 0.99903 0.78301 0.56512 0.0
C1153 C 0.94707 0.71384 0.56972 0.0
C1154 C 0.97494 0.7328 0.56631 0.0
C1155 C 0.05594 0.78884 0.56951 0.0
C1156 C 0.02817 0.7697 0.56617 0.0
H1157 H 0.92248 0.65557 0.59978 0.0
H1158 H 0.96942 0.68036 0.58891 0.0
H1159 H 0.95091 0.77623 0.56586 0.0
H1160 H 0.13323 0.78343 0.5653 0.0
H1161 H 0.0868 0.75941 0.55274 0.0
C1162 C 0.92692 0.33387 0.83909 0.0
C1163 C 0.93936 0.36193 0.83322 0.0
C1164 C 0.94144 0.30655 0.83371 0.0
C1165 C 0.01922 0.2798 0.81962 0.0
H1166 H 0.97899 0.20121 0.81976 0.0
C1167 C 0.04499 0.14045 0.82213 0.0
C1168 C 0.0695 0.14099 0.83569 0.0
C1169 C 0.03138 0.16763 0.81576 0.0
C1170 C 0.99081 0.22286 0.81922 0.0
H1171 H 0.97504 0.38374 0.81596 0.0
H1172 H 0.99915 0.33623 0.80528 0.0
H1173 H 0.94862 0.24731 0.81827 0.0
H1174 H 0.09981 0.17003 0.85277 0.0
H1175 H 0.07564 0.2175 0.84235 0.0
H1176 H 0.06142 0.25536 0.82002 0.0
C1177 C 0.97906 0.335 0.81474 0.0
C1178 C 0.97321 0.2495 0.81874 0.0
C1179 C 0.96497 0.36226 0.82053 0.0
C1180 C 0.08139 0.16914 0.8419 0.0
C1181 C 0.06736 0.19637 0.83591 0.0
C1182 C 0.03683 0.25317 0.81972 0.0
C1183 C 0.96844 0.30679 0.82209 0.0
C1184 C 0.98709 0.2784 0.81955 0.0
C1185 C 0.04135 0.19594 0.82337 0.0
C1186 C 0.02291 0.22428 0.82015 0.0
H1187 H 0.90757 0.33314 0.84926 0.0
H1188 H 0.9326 0.2855 0.83991 0.0
H1189 H 0.031 0.30146 0.8205 0.0
H1190 H 0.03527 0.11889 0.81734 0.0
H1191 H 0.01207 0.16626 0.80564 0.0
C1192 C 0.61317 0.78966 0.93483 0.0
C1193 C 0.61103 0.81597 0.92291 0.0
C1194 C 0.58688 0.77499 0.94168 0.0
C1195 C 0.53283 0.73433 0.93525 0.0
H1196 H 0.45298 0.77053 0.94301 0.0
C1197 C 0.42374 0.68 0.90597 0.0
C1198 C 0.39641 0.68265 0.91682 0.0
C1199 C 0.45038 0.69361 0.91304 0.0
C1200 C 0.47518 0.75997 0.94128 0.0
H1201 H 0.5801 0.84878 0.90974 0.0
H1202 H 0.5339 0.82271 0.92112 0.0
H1203 H 0.49856 0.80255 0.94532 0.0
H1204 H 0.37537 0.70081 0.94382 0.0
H1205 H 0.42235 0.7252 0.95629 0.0
H1206 H 0.50952 0.69202 0.93065 0.0
C1207 C 0.55581 0.81372 0.92573 0.0
C1208 C 0.50129 0.77839 0.94236 0.0
C1209 C 0.58225 0.82876 0.9192 0.0
C1210 C 0.39639 0.69807 0.9354 0.0
C1211 C 0.4231 0.71225 0.94238 0.0
C1212 C 0.50685 0.71602 0.9342 0.0
C1213 C 0.55782 0.78582 0.93623 0.0
C1214 C 0.5304 0.76596 0.93872 0.0
C1215 C 0.45022 0.71067 0.93101 0.0
C1216 C 0.47767 0.72879 0.93648 0.0
H1217 H 0.6352 0.7794 0.93781 0.0
H1218 H 0.58937 0.75407 0.9502 0.0
H1219 H 0.55468 0.72382 0.9321 0.0
H1220 H 0.42417 0.66852 0.89148 0.0
H1221 H 0.4707 0.69228 0.90377 0.0
C1222 C 0.42143 0.3312 0.66631 0.0
C1223 C 0.43337 0.35971 0.67169 0.0
C1224 C 0.43575 0.30441 0.67278 0.0
C1225 C 0.4673 0.24862 0.6894 0.0
H1226 H 0.55545 0.25556 0.6895 0.0
C1227 C 0.54009 0.14044 0.68631 0.0
C1228 C 0.56504 0.14143 0.67309 0.0
C1229 C 0.52612 0.16738 0.69282 0.0
C1230 C 0.53089 0.25307 0.68942 0.0
H1231 H 0.46781 0.38299 0.68922 0.0
H1232 H 0.49151 0.33641 0.70181 0.0
H1233 H 0.52454 0.30124 0.6882 0.0
H1234 H 0.59589 0.17099 0.65687 0.0
H1235 H 0.57098 0.21806 0.6674 0.0
H1236 H 0.47365 0.20043 0.68867 0.0
C1237 C 0.472 0.3344 0.69191 0.0
C1238 C 0.51297 0.27948 0.68906 0.0
C1239 C 0.45813 0.36113 0.68502 0.0
C1240 C 0.57703 0.16977 0.66741 0.0
C1241 C 0.5626 0.19676 0.6735 0.0
C1242 C 0.48522 0.22221 0.68933 0.0
C1243 C 0.46205 0.30565 0.68503 0.0
C1244 C 0.48087 0.27766 0.68853 0.0
C1245 C 0.53616 0.19591 0.68566 0.0
C1246 C 0.51732 0.22401 0.68882 0.0
H1247 H 0.40275 0.32964 0.65567 0.0
H1248 H 0.42745 0.28292 0.6669 0.0
H1249 H 0.44274 0.24614 0.68948 0.0
H1250 H 0.53039 0.11872 0.69076 0.0
H1251 H 0.5065 0.16568 0.70269 0.0
C1252 C 0.11077 0.2876 0.43597 0.0
C1253 C 0.10895 0.31322 0.4234 0.0
C1254 C 0.08426 0.27327 0.44283 0.0
C1255 C 0.0294 0.23245 0.43945 0.0
H1256 H 0.95031 0.27162 0.44136 0.0
C1257 C 0.9195 0.17017 0.41673 0.0
C1258 C 0.89128 0.18158 0.42317 0.0
C1259 C 0.94657 0.18407 0.42309 0.0
C1260 C 0.97213 0.26007 0.44136 0.0
H1261 H 0.07843 0.3449 0.40875 0.0
H1262 H 0.03207 0.31942 0.41988 0.0
H1263 H 0.99597 0.30255 0.44254 0.0
H1264 H 0.86884 0.21461 0.44236 0.0
H1265 H 0.91598 0.23752 0.45471 0.0
H1266 H 0.00559 0.18993 0.43882 0.0
C1267 C 0.05372 0.31074 0.42521 0.0
C1268 C 0.99849 0.27801 0.44166 0.0
C1269 C 0.08031 0.32551 0.41879 0.0
C1270 C 0.89048 0.20532 0.43735 0.0
C1271 C 0.91752 0.21876 0.44411 0.0
C1272 C 0.00306 0.21448 0.43958 0.0
C1273 C 0.05534 0.28365 0.43665 0.0
C1274 C 0.02751 0.26456 0.43996 0.0
C1275 C 0.9459 0.20941 0.43627 0.0
C1276 C 0.97398 0.22804 0.43978 0.0
H1277 H 0.13274 0.27768 0.43959 0.0
H1278 H 0.08656 0.25312 0.45212 0.0
H1279 H 0.05116 0.22099 0.43794 0.0
H1280 H 0.92055 0.1523 0.40542 0.0
H1281 H 0.96775 0.17629 0.41645 0.0
C1282 C 0.03689 0.64585 0.17736 0.0
C1283 C 0.0679 0.64181 0.17263 0.0
C1284 C 0.0259 0.67421 0.18355 0.0
C1285 C 0.04394 0.75359 0.17348 0.0
H1286 H 0.96796 0.76717 0.20224 0.0
C1287 C 0.95857 0.84016 0.14594 0.0
C1288 C 0.94607 0.86151 0.15947 0.0
C1289 C 0.97512 0.81527 0.15291 0.0
C1290 C 0.98945 0.76393 0.19445 0.0
H1291 H 0.11227 0.66348 0.17264 0.0
H1292 H 0.09309 0.71335 0.18366 0.0
H1293 H 0.99661 0.71985 0.20762 0.0
H1294 H 0.9397 0.87241 0.19109 0.0
H1295 H 0.9686 0.82792 0.20344 0.0
H1296 H 0.03626 0.79703 0.15976 0.0
C1297 C 0.07718 0.69457 0.18226 0.0
C1298 C 0.00579 0.73678 0.19741 0.0
C1299 C 0.08824 0.66598 0.1761 0.0
C1300 C 0.949 0.85629 0.18031 0.0
C1301 C 0.96565 0.83101 0.18736 0.0
C1302 C 0.02767 0.78057 0.17054 0.0
C1303 C 0.04564 0.69935 0.18514 0.0
C1304 C 0.03255 0.73072 0.18627 0.0
C1305 C 0.97967 0.81087 0.17363 0.0
C1306 C 0.99958 0.78541 0.18028 0.0
H1307 H 0.02071 0.62749 0.17503 0.0
H1308 H 0.00151 0.67689 0.18547 0.0
H1309 H 0.06426 0.74981 0.16451 0.0
H1310 H 0.95641 0.84316 0.12979 0.0
H1311 H 0.9849 0.79964 0.14199 0.0
C1312 C 0.27895 0.28369 0.09399 0.0
C1313 C 0.2968 0.27298 0.10999 0.0
C1314 C 0.26941 0.31403 0.09354 0.0
C1315 C 0.27407 0.3898 0.11944 0.0
H1316 H 0.18774 0.39067 0.10681 0.0
C1317 C 0.18746 0.48379 0.14479 0.0
C1318 C 0.16357 0.49037 0.13136 0.0
C1319 C 0.20893 0.46114 0.14003 0.0
C1320 C 0.21195 0.3911 0.11006 0.0
H1321 H 0.32047 0.28562 0.13737 0.0
H1322 H 0.30287 0.33863 0.13706 0.0
H1323 H 0.21679 0.3445 0.10162 0.0
H1324 H 0.14505 0.48066 0.10173 0.0
H1325 H 0.18261 0.44185 0.09332 0.0
H1326 H 0.26843 0.43654 0.12864 0.0
C1327 C 0.29684 0.32391 0.12455 0.0
C1328 C 0.22873 0.36454 0.107 0.0
C1329 C 0.30697 0.29357 0.12475 0.0
C1330 C 0.16284 0.47561 0.11256 0.0
C1331 C 0.18433 0.45334 0.10775 0.0
C1332 C 0.25711 0.41656 0.1226 0.0
C1333 C 0.27671 0.33403 0.10944 0.0
C1334 C 0.26001 0.36345 0.11161 0.0
C1335 C 0.20689 0.44497 0.12172 0.0
C1336 C 0.22583 0.41743 0.1179 0.0
H1337 H 0.27095 0.26814 0.08242 0.0
H1338 H 0.25472 0.3213 0.08134 0.0
H1339 H 0.29812 0.38973 0.12315 0.0
H1340 H 0.18861 0.49491 0.15937 0.0
H1341 H 0.22603 0.45515 0.15111 0.0
C1342 C 0.27833 0.40552 0.36239 0.0
C1343 C 0.25754 0.40906 0.37838 0.0
C1344 C 0.2998 0.4281 0.35819 0.0
C1345 C 0.34212 0.48905 0.38354 0.0
H1346 H 0.37477 0.50084 0.32973 0.0
C1347 C 0.45673 0.5503 0.37046 0.0
C1348 C 0.47736 0.5314 0.36004 0.0
C1349 C 0.42546 0.54377 0.37029 0.0
C1350 C 0.36572 0.49802 0.34482 0.0
H1351 H 0.24198 0.43997 0.40182 0.0
H1352 H 0.27955 0.47967 0.39437 0.0
H1353 H 0.3264 0.47407 0.33415 0.0
H1354 H 0.48134 0.49239 0.34007 0.0
H1355 H 0.42692 0.48133 0.33949 0.0
H1356 H 0.38201 0.51213 0.39422 0.0
C1357 C 0.27941 0.45912 0.38527 0.0
C1358 C 0.33811 0.48259 0.34738 0.0
C1359 C 0.25782 0.43643 0.38949 0.0
C1360 C 0.46597 0.50724 0.34833 0.0
C1361 C 0.43478 0.50104 0.34789 0.0
C1362 C 0.36962 0.50471 0.38096 0.0
C1363 C 0.30104 0.45493 0.36981 0.0
C1364 C 0.32664 0.47677 0.36683 0.0
C1365 C 0.4143 0.51862 0.35937 0.0
C1366 C 0.38228 0.50827 0.36164 0.0
H1367 H 0.27867 0.38484 0.35341 0.0
H1368 H 0.31633 0.42379 0.34638 0.0
H1369 H 0.33413 0.48481 0.39874 0.0
H1370 H 0.46488 0.56905 0.37966 0.0
H1371 H 0.41013 0.55775 0.3792 0.0
C1372 C 0.20488 0.71307 0.6231 0.0
C1373 C 0.21519 0.73517 0.60932 0.0
C1374 C 0.21638 0.6833 0.62248 0.0
C1375 C 0.28546 0.64286 0.60537 0.0
H1376 H 0.24142 0.57038 0.62202 0.0
C1377 C 0.34566 0.52767 0.60734 0.0
C1378 C 0.3427 0.51103 0.62533 0.0
C1379 C 0.32597 0.55179 0.60309 0.0
C1380 C 0.25398 0.59047 0.61739 0.0
H1381 H 0.2437 0.74266 0.58307 0.0
H1382 H 0.26299 0.69055 0.58157 0.0
H1383 H 0.21401 0.6187 0.61794 0.0
H1384 H 0.31545 0.50535 0.65236 0.0
H1385 H 0.28104 0.54798 0.645 0.0
H1386 H 0.32539 0.615 0.60504 0.0
C1387 C 0.24683 0.69645 0.59331 0.0
C1388 C 0.23833 0.61815 0.61507 0.0
C1389 C 0.23561 0.72628 0.59406 0.0
C1390 C 0.31831 0.51777 0.63838 0.0
C1391 C 0.29859 0.54215 0.63414 0.0
C1392 C 0.30098 0.6153 0.60757 0.0
C1393 C 0.23822 0.67487 0.60795 0.0
C1394 C 0.25395 0.64475 0.60913 0.0
C1395 C 0.30291 0.56004 0.61676 0.0
C1396 C 0.28552 0.58879 0.61368 0.0
H1397 H 0.1892 0.71916 0.63508 0.0
H1398 H 0.20934 0.66743 0.63408 0.0
H1399 H 0.29848 0.66293 0.60132 0.0
H1400 H 0.36391 0.52271 0.59679 0.0
H1401 H 0.32945 0.56466 0.58934 0.0
C1402 C 0.02965 0.48883 0.84197 0.0
C1403 C 0.02032 0.46848 0.85711 0.0
C1404 C 0.05976 0.49916 0.84119 0.0
C1405 C 0.13799 0.48828 0.86203 0.0
H1406 H 0.14137 0.57624 0.8564 0.0
C1407 C 0.23859 0.56392 0.88977 0.0
C1408 C 0.24444 0.59083 0.87905 0.0
C1409 C 0.21458 0.54476 0.88387 0.0
C1410 C 0.14111 0.55159 0.8576 0.0
H1411 H 0.03589 0.44133 0.88245 0.0
H1412 H 0.08824 0.45982 0.8813 0.0
H1413 H 0.09342 0.55003 0.85142 0.0
H1414 H 0.23175 0.61813 0.85326 0.0
H1415 H 0.19077 0.58427 0.84244 0.0
H1416 H 0.18582 0.49025 0.86879 0.0
C1417 C 0.07238 0.46759 0.86991 0.0
C1418 C 0.11349 0.53651 0.85472 0.0
C1419 C 0.04227 0.4571 0.87061 0.0
C1420 C 0.22748 0.59742 0.86171 0.0
C1421 C 0.20389 0.57817 0.85567 0.0
C1422 C 0.1658 0.50345 0.8649 0.0
C1423 C 0.0812 0.48954 0.85561 0.0
C1424 C 0.11146 0.50472 0.85704 0.0
C1425 C 0.1963 0.55228 0.86714 0.0
C1426 C 0.1676 0.53535 0.86284 0.0
H1427 H 0.01342 0.4977 0.83115 0.0
H1428 H 0.06599 0.51554 0.82968 0.0
H1429 H 0.13721 0.46373 0.86381 0.0
H1430 H 0.2513 0.55873 0.90333 0.0
H1431 H 0.20925 0.52513 0.89312 0.0
C1432 C 0.73815 0.7246 0.90679 0.0
C1433 C 0.71489 0.73495 0.89391 0.0
C1434 C 0.74761 0.69413 0.90625 0.0
C1435 C 0.75219 0.63035 0.87074 0.0
H1436 H 0.78087 0.58575 0.91745 0.0
C1437 C 0.81809 0.51678 0.86216 0.0
C1438 C 0.84507 0.51539 0.87356 0.0
C1439 C 0.79614 0.53928 0.86619 0.0
C1440 C 0.77298 0.59791 0.90424 0.0
H1441 H 0.68206 0.72078 0.87125 0.0
H1442 H 0.6986 0.66767 0.87038 0.0
H1443 H 0.75313 0.63358 0.9221 0.0
H1444 H 0.86928 0.53546 0.89887 0.0
H1445 H 0.83152 0.57453 0.90566 0.0
H1446 H 0.77311 0.59547 0.85283 0.0
C1447 C 0.70976 0.68326 0.88069 0.0
C1448 C 0.75708 0.6253 0.90692 0.0
C1449 C 0.70019 0.71369 0.8813 0.0
C1450 C 0.8489 0.53598 0.88966 0.0
C1451 C 0.82702 0.55828 0.8937 0.0
C1452 C 0.76819 0.60303 0.86805 0.0
C1453 C 0.7341 0.67331 0.89278 0.0
C1454 C 0.74718 0.64223 0.89018 0.0
C1455 C 0.80065 0.56065 0.88179 0.0
C1456 C 0.77952 0.5869 0.88475 0.0
H1457 H 0.7499 0.74029 0.91674 0.0
H1458 H 0.76658 0.68728 0.91566 0.0
H1459 H 0.74519 0.64299 0.8575 0.0
H1460 H 0.81438 0.50118 0.84971 0.0
H1461 H 0.7759 0.54027 0.85687 0.0
C1462 C 0.73166 0.57053 0.60991 0.0
C1463 C 0.73757 0.59532 0.6228 0.0
C1464 C 0.70758 0.55042 0.6141 0.0
C1465 C 0.63414 0.55145 0.64084 0.0
H1466 H 0.63268 0.46432 0.63065 0.0
C1467 C 0.52622 0.48342 0.65751 0.0
C1468 C 0.51649 0.46339 0.64226 0.0
C1469 C 0.55589 0.49501 0.65742 0.0
C1470 C 0.63273 0.48867 0.63349 0.0
H1471 H 0.72478 0.61691 0.65103 0.0
H1472 H 0.68354 0.58169 0.65851 0.0
H1473 H 0.68021 0.49291 0.62593 0.0
H1474 H 0.5309 0.4383 0.61566 0.0
H1475 H 0.58251 0.45904 0.61528 0.0
H1476 H 0.58683 0.54772 0.64789 0.0
C1477 C 0.69668 0.57823 0.64485 0.0
C1478 C 0.65993 0.50501 0.63077 0.0
C1479 C 0.72041 0.59836 0.6406 0.0
C1480 C 0.5377 0.45367 0.62766 0.0
C1481 C 0.56735 0.46551 0.62746 0.0
C1482 C 0.60711 0.53523 0.64351 0.0
C1483 C 0.68923 0.55469 0.63131 0.0
C1484 C 0.66091 0.53662 0.63447 0.0
C1485 C 0.57645 0.48714 0.64195 0.0
C1486 C 0.60599 0.50363 0.63991 0.0
H1487 H 0.74454 0.56763 0.59609 0.0
H1488 H 0.70239 0.53252 0.60335 0.0
H1489 H 0.63382 0.57589 0.64332 0.0
H1490 H 0.51056 0.49104 0.66912 0.0
H1491 H 0.56239 0.511 0.66912 0.0
C1492 C 0.76408 0.27901 0.40781 0.0
C1493 C 0.78929 0.26836 0.3967 0.0
C1494 C 0.75508 0.30958 0.40659 0.0
C1495 C 0.75688 0.37105 0.36971 0.0
H1496 H 0.71618 0.41726 0.4118 0.0
C1497 C 0.68061 0.48854 0.37966 0.0
C1498 C 0.65843 0.48234 0.36492 0.0
C1499 C 0.70287 0.46667 0.38432 0.0
C1500 C 0.72794 0.40489 0.39996 0.0
H1501 H 0.82646 0.28221 0.37708 0.0
H1502 H 0.81081 0.33546 0.37507 0.0
H1503 H 0.74485 0.37115 0.42052 0.0
H1504 H 0.64297 0.44921 0.34286 0.0
H1505 H 0.68196 0.41155 0.35067 0.0
H1506 H 0.73902 0.40403 0.34907 0.0
C1507 C 0.79766 0.32003 0.38441 0.0
C1508 C 0.7441 0.37837 0.40492 0.0
C1509 C 0.80668 0.2895 0.38564 0.0
C1510 C 0.65972 0.45458 0.35434 0.0
C1511 C 0.68217 0.43308 0.35872 0.0
C1512 C 0.74058 0.39736 0.36476 0.0
C1513 C 0.77112 0.33016 0.39426 0.0
C1514 C 0.75809 0.36074 0.38976 0.0
C1515 C 0.70364 0.43861 0.37399 0.0
C1516 C 0.72523 0.41406 0.37974 0.0
H1517 H 0.75026 0.26343 0.41659 0.0
H1518 H 0.73443 0.31658 0.4143 0.0
H1519 H 0.7671 0.35789 0.35762 0.0
H1520 H 0.67997 0.50969 0.38813 0.0
H1521 H 0.71921 0.47148 0.39615 0.0
C1522 C 0.78767 0.40499 0.13962 0.0
C1523 C 0.7671 0.40915 0.1236 0.0
C1524 C 0.81009 0.42667 0.14373 0.0
C1525 C 0.8552 0.48533 0.11824 0.0
H1526 H 0.88553 0.50019 0.1723 0.0
C1527 C 0.9664 0.55216 0.13143 0.0
C1528 C 0.98736 0.53729 0.14412 0.0
C1529 C 0.93587 0.54297 0.13083 0.0
C1530 C 0.87731 0.4963 0.15711 0.0
H1531 H 0.75308 0.44022 0.09995 0.0
H1532 H 0.79239 0.47834 0.10719 0.0
H1533 H 0.83762 0.47271 0.16762 0.0
H1534 H 0.9921 0.50244 0.16711 0.0
H1535 H 0.93898 0.4864 0.166 0.0
H1536 H 0.89532 0.50804 0.1077 0.0
C1537 C 0.79127 0.458 0.11642 0.0
C1538 C 0.84988 0.48055 0.15442 0.0
C1539 C 0.76865 0.43625 0.11233 0.0
C1540 C 0.97665 0.5143 0.15708 0.0
C1541 C 0.9461 0.50521 0.15653 0.0
C1542 C 0.88258 0.50114 0.12093 0.0
C1543 C 0.8126 0.45316 0.13194 0.0
C1544 C 0.83894 0.4741 0.13493 0.0
C1545 C 0.92555 0.51886 0.143 0.0
C1546 C 0.89438 0.50608 0.14038 0.0
H1547 H 0.78701 0.38448 0.14873 0.0
H1548 H 0.82631 0.42196 0.15563 0.0
H1549 H 0.84768 0.48046 0.10302 0.0
H1550 H 0.97378 0.5701 0.12133 0.0
H1551 H 0.92049 0.55424 0.12045 0.0
C1552 C 0.79746 0.79021 0.62172 0.0
C1553 C 0.7879 0.76912 0.60701 0.0
C1554 C 0.78637 0.82015 0.62165 0.0
C1555 C 0.71849 0.86168 0.60426 0.0
H1556 H 0.76116 0.93298 0.62442 0.0
C1557 C 0.65651 0.97543 0.60996 0.0
C1558 C 0.65882 0.99072 0.62854 0.0
C1559 C 0.67681 0.95213 0.60497 0.0
C1560 C 0.74898 0.91322 0.61881 0.0
H1561 H 0.76141 0.7637 0.57966 0.0
H1562 H 0.74278 0.81609 0.57917 0.0
H1563 H 0.78911 0.88518 0.61913 0.0
H1564 H 0.68545 0.995 0.65589 0.0
H1565 H 0.72086 0.95362 0.6473 0.0
H1566 H 0.67835 0.88919 0.60427 0.0
C1567 C 0.75804 0.80925 0.59118 0.0
C1568 C 0.76495 0.88586 0.61578 0.0
C1569 C 0.76887 0.77926 0.59137 0.0
C1570 C 0.68315 0.98358 0.64148 0.0
C1571 C 0.70343 0.95994 0.63653 0.0
C1572 C 0.70265 0.8889 0.60721 0.0
C1573 C 0.76568 0.82973 0.60676 0.0
C1574 C 0.74981 0.85968 0.60857 0.0
C1575 C 0.69977 0.94327 0.61851 0.0
C1576 C 0.7176 0.91499 0.6146 0.0
H1577 H 0.81212 0.78318 0.63401 0.0
H1578 H 0.79265 0.83517 0.63394 0.0
H1579 H 0.70582 0.84187 0.59923 0.0
H1580 H 0.6383 0.98081 0.59951 0.0
H1581 H 0.67385 0.9403 0.59075 0.0
C1582 C 0.76413 0.93732 0.89303 0.0
C1583 C 0.76268 0.91075 0.88115 0.0
C1584 C 0.78678 0.95924 0.88951 0.0
C1585 C 0.8455 0.98383 0.85217 0.0
H1586 H 0.89077 0.00898 0.89953 0.0
C1587 C 0.97208 0.01802 0.85013 0.0
C1588 C 0.98293 0.04007 0.86377 0.0
C1589 C 0.94151 0.009 0.85048 0.0
C1590 C 0.87808 0.00276 0.88614 0.0
H1591 H 0.78286 0.88724 0.85556 0.0
H1592 H 0.82221 0.92508 0.84959 0.0
H1593 H 0.84323 0.98097 0.90353 0.0
H1594 H 0.96961 0.07133 0.88764 0.0
H1595 H 0.91622 0.05563 0.88816 0.0
H1596 H 0.88104 0.00463 0.83478 0.0
C1597 C 0.80587 0.92921 0.86155 0.0
C1598 C 0.85075 0.98668 0.88844 0.0
C1599 C 0.78342 0.90732 0.86511 0.0
C1600 C 0.96208 0.05417 0.87698 0.0
C1601 C 0.9315 0.04504 0.87738 0.0
C1602 C 0.87285 0.99987 0.84986 0.0
C1603 C 0.80826 0.95515 0.87394 0.0
C1604 C 0.83457 0.97628 0.87148 0.0
C1605 C 0.92105 0.02177 0.8645 0.0
C1606 C 0.88987 0.00882 0.86682 0.0
H1607 H 0.74844 0.94071 0.90547 0.0
H1608 H 0.78781 0.97914 0.8992 0.0
H1609 H 0.83329 0.97664 0.83879 0.0
H1610 H 0.98746 0.00678 0.83969 0.0
H1611 H 0.93433 0.99084 0.84046 0.0
C1612 C 0.85419 0.04998 0.14486 0.0
C1613 C 0.85028 0.01972 0.13827 0.0
C1614 C 0.83435 0.07288 0.13868 0.0
C1615 C 0.75912 0.09158 0.11983 0.0
H1616 H 0.80099 0.16398 0.10073 0.0
C1617 C 0.73774 0.22482 0.09159 0.0
C1618 C 0.71811 0.23454 0.10709 0.0
C1619 C 0.74857 0.19483 0.09112 0.0
C1620 C 0.78873 0.14384 0.1056 0.0
H1621 H 0.82134 0.98958 0.12073 0.0
H1622 H 0.78604 0.03015 0.11 0.0
H1623 H 0.83009 0.11846 0.10861 0.0
H1624 H 0.69251 0.21968 0.13332 0.0
H1625 H 0.71198 0.16765 0.13278 0.0
H1626 H 0.71771 0.11749 0.11731 0.0
C1627 C 0.80483 0.03581 0.11991 0.0
C1628 C 0.80551 0.11783 0.11034 0.0
C1629 C 0.82498 0.01267 0.12606 0.0
C1630 C 0.70771 0.21299 0.1212 0.0
C1631 C 0.71877 0.18303 0.12083 0.0
C1632 C 0.7422 0.11782 0.11515 0.0
C1633 C 0.80993 0.06626 0.12576 0.0
C1634 C 0.79105 0.09176 0.11804 0.0
C1635 C 0.74026 0.17394 0.10625 0.0
C1636 C 0.75694 0.1445 0.10842 0.0
H1637 H 0.87314 0.0563 0.15448 0.0
H1638 H 0.83843 0.09603 0.14377 0.0
H1639 H 0.74745 0.07173 0.12573 0.0
H1640 H 0.74581 0.24073 0.0803 0.0
H1641 H 0.76454 0.18838 0.07939 0.0
C1642 C 0.52545 0.98267 0.34342 0.0
C1643 C 0.51574 0.96324 0.35898 0.0
C1644 C 0.55517 0.99415 0.34323 0.0
C1645 C 0.63205 0.98832 0.36705 0.0
H1646 H 0.63304 0.07547 0.35718 0.0
C1647 C 0.72987 0.07001 0.39213 0.0
C1648 C 0.73611 0.09512 0.37963 0.0
C1649 C 0.70598 0.04996 0.3874 0.0
C1650 C 0.63341 0.05104 0.35964 0.0
H1651 H 0.53036 0.9389 0.38576 0.0
H1652 H 0.58199 0.95938 0.38563 0.0
H1653 H 0.58625 0.0471 0.35226 0.0
H1654 H 0.72405 0.11743 0.35158 0.0
H1655 H 0.68313 0.08228 0.34316 0.0
H1656 H 0.67933 0.99274 0.37497 0.0
C1657 C 0.56675 0.96555 0.37345 0.0
C1658 C 0.6065 0.03471 0.35677 0.0
C1659 C 0.53706 0.95387 0.37356 0.0
C1660 C 0.71941 0.09862 0.36172 0.0
C1661 C 0.69587 0.07853 0.35692 0.0
C1662 C 0.65913 0.00476 0.36995 0.0
C1663 C 0.57582 0.98668 0.35868 0.0
C1664 C 0.60537 0.00317 0.3605 0.0
C1665 C 0.68814 0.05459 0.37003 0.0
C1666 C 0.66006 0.03636 0.36631 0.0
H1667 H 0.50972 0.99001 0.3318 0.0
H1668 H 0.56164 0.00978 0.33134 0.0
H1669 H 0.63199 0.964 0.36996 0.0
H1670 H 0.74239 0.06674 0.40603 0.0
H1671 H 0.70057 0.03179 0.39786 0.0
C1672 C 0.23601 0.22229 0.40486 0.0
C1673 C 0.21257 0.23252 0.39209 0.0
C1674 C 0.24547 0.19182 0.40438 0.0
C1675 C 0.24952 0.12734 0.36939 0.0
H1676 H 0.27762 0.0834 0.41653 0.0
C1677 C 0.31397 0.01262 0.36212 0.0
C1678 C 0.34092 0.01122 0.37355 0.0
C1679 C 0.29235 0.03555 0.36583 0.0
C1680 C 0.26989 0.09537 0.40321 0.0
H1681 H 0.17959 0.21824 0.36957 0.0
H1682 H 0.19614 0.1651 0.36878 0.0
H1683 H 0.2504 0.13161 0.42072 0.0
H1684 H 0.36543 0.03174 0.39857 0.0
H1685 H 0.32822 0.07153 0.40482 0.0
H1686 H 0.27007 0.09184 0.35183 0.0
C1687 C 0.20739 0.18077 0.379 0.0
C1688 C 0.2543 0.12297 0.40562 0.0
C1689 C 0.19781 0.21121 0.37956 0.0
C1690 C 0.34505 0.03226 0.38934 0.0
C1691 C 0.3235 0.05498 0.39308 0.0
C1692 C 0.26522 0.09979 0.36697 0.0
C1693 C 0.23178 0.17089 0.39108 0.0
C1694 C 0.24461 0.13966 0.38873 0.0
C1695 C 0.29715 0.05733 0.38115 0.0
C1696 C 0.27633 0.08388 0.38383 0.0
H1697 H 0.24782 0.23804 0.41474 0.0
H1698 H 0.26449 0.18503 0.41376 0.0
H1699 H 0.24265 0.13978 0.35605 0.0
H1700 H 0.31007 0.99669 0.34988 0.0
H1701 H 0.27212 0.03655 0.35649 0.0
C1702 C 0.04855 0.95109 0.13709 0.0
C1703 C 0.02741 0.96322 0.15086 0.0
C1704 C 0.07897 0.96086 0.13742 0.0
C1705 C 0.14435 0.98479 0.14136 0.0
H1706 H 0.14324 0.07272 0.14797 0.0
C1707 C 0.24783 0.06923 0.12886 0.0
C1708 C 0.23987 0.09504 0.1174 0.0
C1709 C 0.22532 0.04833 0.1349 0.0
C1710 C 0.14401 0.04814 0.14618 0.0
H1711 H 0.02184 0.99195 0.17716 0.0
H1712 H 0.07511 0.00774 0.17848 0.0
H1713 H 0.09857 0.04336 0.15691 0.0
H1714 H 0.20251 0.11791 0.10211 0.0
H1715 H 0.1638 0.08178 0.11255 0.0
H1716 H 0.18975 0.99046 0.12955 0.0
C1717 C 0.06818 0.99175 0.16688 0.0
C1718 C 0.11849 0.03115 0.15157 0.0
C1719 C 0.03773 0.98254 0.16627 0.0
C1720 C 0.20943 0.09859 0.11121 0.0
C1721 C 0.18716 0.07792 0.11722 0.0
C1722 C 0.17013 0.00196 0.13596 0.0
C1723 C 0.08871 0.98257 0.15171 0.0
C1724 C 0.11796 0.99932 0.14882 0.0
C1725 C 0.19464 0.05312 0.12961 0.0
C1726 C 0.16973 0.0339 0.13777 0.0
H1727 H 0.04104 0.9363 0.12496 0.0
H1728 H 0.09406 0.95334 0.12546 0.0
H1729 H 0.1448 0.96029 0.13919 0.0
H1730 H 0.27111 0.06588 0.13385 0.0
H1731 H 0.23164 0.02929 0.14442 0.0
C1732 C 0.15197 0.96757 0.89652 0.0
C1733 C 0.15597 0.98545 0.87915 0.0
C1734 C 0.17252 0.94437 0.9012 0.0
C1735 C 0.24842 0.91104 0.89014 0.0
H1736 H 0.20698 0.83566 0.90363 0.0
C1737 C 0.304 0.79017 0.88753 0.0
C1738 C 0.29189 0.76789 0.90045 0.0
C1739 C 0.29225 0.81995 0.88777 0.0
C1740 C 0.21913 0.85658 0.90034 0.0
H1741 H 0.18578 0.99412 0.85368 0.0
H1742 H 0.22165 0.95297 0.86175 0.0
H1743 H 0.17751 0.88158 0.89835 0.0
H1744 H 0.26045 0.75959 0.92498 0.0
H1745 H 0.24118 0.81171 0.92624 0.0
H1746 H 0.29017 0.88549 0.89186 0.0
C1747 C 0.20261 0.95718 0.87179 0.0
C1748 C 0.20212 0.88299 0.89723 0.0
C1749 C 0.18201 0.98066 0.86714 0.0
C1750 C 0.27007 0.77643 0.91485 0.0
C1751 C 0.25879 0.80619 0.91536 0.0
C1752 C 0.2656 0.88444 0.89336 0.0
C1753 C 0.19754 0.93823 0.88858 0.0
C1754 C 0.21647 0.91057 0.89213 0.0
C1755 C 0.26845 0.82786 0.90108 0.0
C1756 C 0.2511 0.85687 0.89856 0.0
H1757 H 0.13248 0.97102 0.90632 0.0
H1758 H 0.16836 0.93067 0.9145 0.0
H1759 H 0.26013 0.93199 0.88627 0.0
H1760 H 0.32056 0.78396 0.8761 0.0
H1761 H 0.30021 0.83599 0.87654 0.0
C1762 C 0.26666 0.9339 0.61759 0.0
C1763 C 0.25974 0.9092 0.63029 0.0
C1764 C 0.2908 0.95363 0.62233 0.0
C1765 C 0.36323 0.95054 0.64966 0.0
H1766 H 0.36745 0.0375 0.63949 0.0
C1767 C 0.47477 0.0147 0.66334 0.0
C1768 C 0.48387 0.03476 0.64797 0.0
C1769 C 0.44479 0.00394 0.66417 0.0
C1770 C 0.36665 0.01319 0.64233 0.0
H1771 H 0.27064 0.88751 0.65876 0.0
H1772 H 0.31214 0.92206 0.66713 0.0
H1773 H 0.31898 0.01052 0.63508 0.0
H1774 H 0.46812 0.06067 0.62214 0.0
H1775 H 0.41618 0.0413 0.62326 0.0
H1776 H 0.41078 0.9526 0.65618 0.0
C1777 C 0.29965 0.92574 0.65326 0.0
C1778 C 0.33889 0.99778 0.63981 0.0
C1779 C 0.2758 0.90601 0.64849 0.0
C1780 C 0.46188 0.04522 0.63418 0.0
C1781 C 0.43198 0.03419 0.63488 0.0
C1782 C 0.39086 0.96581 0.65207 0.0
C1783 C 0.30822 0.94904 0.63989 0.0
C1784 C 0.33695 0.96624 0.6434 0.0
C1785 C 0.4233 0.01268 0.64951 0.0
C1786 C 0.39305 0.9973 0.64835 0.0
H1787 H 0.25466 0.93691 0.60346 0.0
H1788 H 0.29689 0.97136 0.61171 0.0
H1789 H 0.36273 0.9261 0.6521 0.0
H1790 H 0.49105 0.00653 0.67436 0.0
H1791 H 0.43871 0.988 0.67597 0.0
loop_
_geom_bond_atom_site_label_1
_geom_bond_atom_site_label_2
_geom_bond_distance
_geom_bond_site_symmetry_2
_ccdc_geom_bond_type
Fe0 O2 1.918 . S
Fe0 O5 1.997 . S
Fe0 O6 2.002 . S
Fe0 O11 1.976 . S
Fe0 O14 1.996 . S
Fe1 O2 1.918 . S
Fe1 O9 1.997 . S
Fe1 O12 1.996 . S
Fe1 O16 1.976 . S
Fe1 O19 2.002 . S
O2 Fe0 1.918 . S
O2 Fe1 1.918 . S
O2 Fe3 1.918 . S
Fe3 O2 1.918 . S
Fe3 O4 2.002 . S
Fe3 O13 1.976 . S
Fe3 O17 1.996 . S
Fe3 O20 1.997 . S
O4 Fe3 2.002 . S
O4 C21 1.295 . S
O5 Fe0 1.997 . S
O5 C21 1.235 . S
O6 Fe0 2.002 . S
O6 C7 1.295 . S
C7 O6 1.295 . S
C7 O9 1.235 . S
C8 O13 1.287 . S
C8 O14 1.255 . S
O9 Fe1 1.997 . S
O9 C7 1.235 . S
C10 O16 1.287 . S
C10 O17 1.255 . S
O11 Fe0 1.976 . S
O11 C18 1.287 . S
O12 Fe1 1.996 . S
O12 C18 1.255 . S
O13 Fe3 1.976 . S
O13 C8 1.287 . S
O14 Fe0 1.996 . S
O14 C8 1.255 . S
C15 O19 1.295 . S
C15 O20 1.235 . S
O16 Fe1 1.976 . S
O16 C10 1.287 . S
O17 Fe3 1.996 . S
O17 C10 1.255 . S
C18 O11 1.287 . S
C18 O12 1.255 . S
O19 Fe1 2.002 . S
O19 C15 1.295 . S
O20 Fe3 1.997 . S
O20 C15 1.235 . S
C21 O4 1.295 . S
C21 O5 1.235 . S
Fe22 O24 1.918 . S
Fe22 O27 1.997 . S
Fe22 O28 2.002 . S
Fe22 O33 1.976 . S
Fe22 O36 1.996 . S
Fe23 O24 1.918 . S
Fe23 O31 1.997 . S
Fe23 O34 1.996 . S
Fe23 O38 1.976 . S
Fe23 O41 2.002 . S
O24 Fe22 1.918 . S
O24 Fe23 1.918 . S
O24 Fe25 1.918 . S
Fe25 O24 1.918 . S
Fe25 O26 2.002 . S
Fe25 O35 1.976 . S
Fe25 O39 1.996 . S
Fe25 O42 1.997 . S
O26 Fe25 2.002 . S
O26 C43 1.295 . S
O27 Fe22 1.997 . S
O27 C43 1.235 . S
O28 Fe22 2.002 . S
O28 C29 1.295 . S
C29 O28 1.295 . S
C29 O31 1.235 . S
C30 O35 1.287 . S
C30 O36 1.255 . S
O31 Fe23 1.997 . S
O31 C29 1.235 . S
C32 O38 1.287 . S
C32 O39 1.255 . S
O33 Fe22 1.976 . S
O33 C40 1.287 . S
O34 Fe23 1.996 . S
O34 C40 1.255 . S
O35 Fe25 1.976 . S
O35 C30 1.287 . S
O36 Fe22 1.996 . S
O36 C30 1.255 . S
C37 O41 1.295 . S
C37 O42 1.235 . S
O38 Fe23 1.976 . S
O38 C32 1.287 . S
O39 Fe25 1.996 . S
O39 C32 1.255 . S
C40 O33 1.287 . S
C40 O34 1.255 . S
O41 Fe23 2.002 . S
O41 C37 1.295 . S
O42 Fe25 1.997 . S
O42 C37 1.235 . S
C43 O26 1.295 . S
C43 O27 1.235 . S
Fe44 O46 1.918 . S
Fe44 O49 1.997 . S
Fe44 O50 2.002 . S
Fe44 O55 1.976 . S
Fe44 O58 1.996 . S
Fe45 O46 1.918 . S
Fe45 O53 1.997 . S
Fe45 O56 1.996 . S
Fe45 O60 1.976 . S
Fe45 O63 2.002 . S
O46 Fe44 1.918 . S
O46 Fe45 1.918 . S
O46 Fe47 1.918 . S
Fe47 O46 1.918 . S
Fe47 O48 2.002 . S
Fe47 O57 1.976 . S
Fe47 O61 1.996 . S
Fe47 O64 1.997 . S
O48 Fe47 2.002 . S
O48 C65 1.295 . S
O49 Fe44 1.997 . S
O49 C65 1.235 . S
O50 Fe44 2.002 . S
O50 C51 1.295 . S
C51 O50 1.295 . S
C51 O53 1.235 . S
C52 O57 1.287 . S
C52 O58 1.255 . S
O53 Fe45 1.997 . S
O53 C51 1.235 . S
C54 O60 1.287 . S
C54 O61 1.255 . S
O55 Fe44 1.976 . S
O55 C62 1.287 . S
O56 Fe45 1.996 . S
O56 C62 1.255 . S
O57 Fe47 1.976 . S
O57 C52 1.287 . S
O58 Fe44 1.996 . S
O58 C52 1.255 . S
C59 O63 1.295 . S
C59 O64 1.235 . S
O60 Fe45 1.976 . S
O60 C54 1.287 . S
O61 Fe47 1.996 . S
O61 C54 1.255 . S
C62 O55 1.287 . S
C62 O56 1.255 . S
O63 Fe45 2.002 . S
O63 C59 1.295 . S
O64 Fe47 1.997 . S
O64 C59 1.235 . S
C65 O48 1.295 . S
C65 O49 1.235 . S
Fe66 O68 1.918 . S
Fe66 O71 1.997 . S
Fe66 O72 2.002 . S
Fe66 O77 1.976 . S
Fe66 O80 1.996 . S
Fe67 O68 1.918 . S
Fe67 O75 1.997 . S
Fe67 O78 1.996 . S
Fe67 O82 1.976 . S
Fe67 O85 2.002 . S
O68 Fe66 1.918 . S
O68 Fe67 1.918 . S
O68 Fe69 1.918 . S
Fe69 O68 1.918 . S
Fe69 O70 2.002 . S
Fe69 O79 1.976 . S
Fe69 O83 1.996 . S
Fe69 O86 1.997 . S
O70 Fe69 2.002 . S
O70 C87 1.295 . S
O71 Fe66 1.997 . S
O71 C87 1.235 . S
O72 Fe66 2.002 . S
O72 C73 1.295 . S
C73 O72 1.295 . S
C73 O75 1.235 . S
C74 O79 1.287 . S
C74 O80 1.255 . S
O75 Fe67 1.997 . S
O75 C73 1.235 . S
C76 O82 1.287 . S
C76 O83 1.255 . S
O77 Fe66 1.976 . S
O77 C84 1.287 . S
O78 Fe67 1.996 . S
O78 C84 1.255 . S
O79 Fe69 1.976 . S
O79 C74 1.287 . S
O80 Fe66 1.996 . S
O80 C74 1.255 . S
C81 O85 1.295 . S
C81 O86 1.235 . S
O82 Fe67 1.976 . S
O82 C76 1.287 . S
O83 Fe69 1.996 . S
O83 C76 1.255 . S
C84 O77 1.287 . S
C84 O78 1.255 . S
O85 Fe67 2.002 . S
O85 C81 1.295 . S
O86 Fe69 1.997 . S
O86 C81 1.235 . S
C87 O70 1.295 . S
C87 O71 1.235 . S
Fe88 O90 1.918 . S
Fe88 O93 1.997 . S
Fe88 O94 2.002 . S
Fe88 O99 1.976 . S
Fe88 O102 1.996 . S
Fe89 O90 1.918 . S
Fe89 O97 1.997 . S
Fe89 O100 1.996 . S
Fe89 O104 1.976 . S
Fe89 O107 2.002 . S
O90 Fe88 1.918 . S
O90 Fe89 1.918 . S
O90 Fe91 1.918 . S
Fe91 O90 1.918 . S
Fe91 O92 2.002 . S
Fe91 O101 1.976 . S
Fe91 O105 1.996 . S
Fe91 O108 1.997 . S
O92 Fe91 2.002 . S
O92 C109 1.295 . S
O93 Fe88 1.997 . S
O93 C109 1.235 . S
O94 Fe88 2.002 . S
O94 C95 1.295 . S
C95 O94 1.295 . S
C95 O97 1.235 . S
C96 O101 1.287 . S
C96 O102 1.255 . S
O97 Fe89 1.997 . S
O97 C95 1.235 . S
C98 O104 1.287 . S
C98 O105 1.255 . S
O99 Fe88 1.976 . S
O99 C106 1.287 . S
O100 Fe89 1.996 . S
O100 C106 1.255 . S
O101 Fe91 1.976 . S
O101 C96 1.287 . S
O102 Fe88 1.996 . S
O102 C96 1.255 . S
C103 O107 1.295 . S
C103 O108 1.235 . S
O104 Fe89 1.976 . S
O104 C98 1.287 . S
O105 Fe91 1.996 . S
O105 C98 1.255 . S
C106 O99 1.287 . S
C106 O100 1.255 . S
O107 Fe89 2.002 . S
O107 C103 1.295 . S
O108 Fe91 1.997 . S
O108 C103 1.235 . S
C109 O92 1.295 . S
C109 O93 1.235 . S
Fe110 O112 1.918 . S
Fe110 O115 1.997 . S
Fe110 O116 2.002 . S
Fe110 O121 1.976 . S
Fe110 O124 1.996 . S
Fe111 O112 1.918 . S
Fe111 O119 1.997 . S
Fe111 O122 1.996 . S
Fe111 O126 1.976 . S
Fe111 O129 2.002 . S
O112 Fe110 1.918 . S
O112 Fe111 1.918 . S
O112 Fe113 1.918 . S
Fe113 O112 1.918 . S
Fe113 O114 2.002 . S
Fe113 O123 1.976 . S
Fe113 O127 1.996 . S
Fe113 O130 1.997 . S
O114 Fe113 2.002 . S
O114 C131 1.295 . S
O115 Fe110 1.997 . S
O115 C131 1.235 . S
O116 Fe110 2.002 . S
O116 C117 1.295 . S
C117 O116 1.295 . S
C117 O119 1.235 . S
C118 O123 1.287 . S
C118 O124 1.255 . S
O119 Fe111 1.997 . S
O119 C117 1.235 . S
C120 O126 1.287 . S
C120 O127 1.255 . S
O121 Fe110 1.976 . S
O121 C128 1.287 . S
O122 Fe111 1.996 . S
O122 C128 1.255 . S
O123 Fe113 1.976 . S
O123 C118 1.287 . S
O124 Fe110 1.996 . S
O124 C118 1.255 . S
C125 O129 1.295 . S
C125 O130 1.235 . S
O126 Fe111 1.976 . S
O126 C120 1.287 . S
O127 Fe113 1.996 . S
O127 C120 1.255 . S
C128 O121 1.287 . S
C128 O122 1.255 . S
O129 Fe111 2.002 . S
O129 C125 1.295 . S
O130 Fe113 1.997 . S
O130 C125 1.235 . S
C131 O114 1.295 . S
C131 O115 1.235 . S
Fe132 O134 1.918 . S
Fe132 O137 1.997 . S
Fe132 O138 2.002 . S
Fe132 O143 1.976 . S
Fe132 O146 1.996 . S
Fe133 O134 1.918 . S
Fe133 O141 1.997 . S
Fe133 O144 1.996 . S
Fe133 O148 1.976 . S
Fe133 O151 2.002 . S
O134 Fe132 1.918 . S
O134 Fe133 1.918 . S
O134 Fe135 1.918 . S
Fe135 O134 1.918 . S
Fe135 O136 2.002 . S
Fe135 O145 1.976 . S
Fe135 O149 1.996 . S
Fe135 O152 1.997 . S
O136 Fe135 2.002 . S
O136 C153 1.295 . S
O137 Fe132 1.997 . S
O137 C153 1.235 . S
O138 Fe132 2.002 . S
O138 C139 1.295 . S
C139 O138 1.295 . S
C139 O141 1.235 . S
C140 O145 1.287 . S
C140 O146 1.255 . S
O141 Fe133 1.997 . S
O141 C139 1.235 . S
C142 O148 1.287 . S
C142 O149 1.255 . S
O143 Fe132 1.976 . S
O143 C150 1.287 . S
O144 Fe133 1.996 . S
O144 C150 1.255 . S
O145 Fe135 1.976 . S
O145 C140 1.287 . S
O146 Fe132 1.996 . S
O146 C140 1.255 . S
C147 O151 1.295 . S
C147 O152 1.235 . S
O148 Fe133 1.976 . S
O148 C142 1.287 . S
O149 Fe135 1.996 . S
O149 C142 1.255 . S
C150 O143 1.287 . S
C150 O144 1.255 . S
O151 Fe133 2.002 . S
O151 C147 1.295 . S
O152 Fe135 1.997 . S
O152 C147 1.235 . S
C153 O136 1.295 . S
C153 O137 1.235 . S
Fe154 O156 1.918 . S
Fe154 O159 1.997 . S
Fe154 O160 2.002 . S
Fe154 O165 1.976 . S
Fe154 O168 1.996 . S
Fe155 O156 1.918 . S
Fe155 O163 1.997 . S
Fe155 O166 1.996 . S
Fe155 O170 1.976 . S
Fe155 O173 2.002 . S
O156 Fe154 1.918 . S
O156 Fe155 1.918 . S
O156 Fe157 1.918 . S
Fe157 O156 1.918 . S
Fe157 O158 2.002 . S
Fe157 O167 1.976 . S
Fe157 O171 1.996 . S
Fe157 O174 1.997 . S
O158 Fe157 2.002 . S
O158 C175 1.295 . S
O159 Fe154 1.997 . S
O159 C175 1.235 . S
O160 Fe154 2.002 . S
O160 C161 1.295 . S
C161 O160 1.295 . S
C161 O163 1.235 . S
C162 O167 1.287 . S
C162 O168 1.255 . S
O163 Fe155 1.997 . S
O163 C161 1.235 . S
C164 O170 1.287 . S
C164 O171 1.255 . S
O165 Fe154 1.976 . S
O165 C172 1.287 . S
O166 Fe155 1.996 . S
O166 C172 1.255 . S
O167 Fe157 1.976 . S
O167 C162 1.287 . S
O168 Fe154 1.996 . S
O168 C162 1.255 . S
C169 O173 1.295 . S
C169 O174 1.235 . S
O170 Fe155 1.976 . S
O170 C164 1.287 . S
O171 Fe157 1.996 . S
O171 C164 1.255 . S
C172 O165 1.287 . S
C172 O166 1.255 . S
O173 Fe155 2.002 . S
O173 C169 1.295 . S
O174 Fe157 1.997 . S
O174 C169 1.235 . S
C175 O158 1.295 . S
C175 O159 1.235 . S
Fe176 O178 1.918 . S
Fe176 O181 1.997 . S
Fe176 O182 2.002 . S
Fe176 O187 1.976 . S
Fe176 O190 1.996 . S
Fe177 O178 1.918 . S
Fe177 O185 1.997 . S
Fe177 O188 1.996 . S
Fe177 O192 1.976 . S
Fe177 O195 2.002 . S
O178 Fe176 1.918 . S
O178 Fe177 1.918 . S
O178 Fe179 1.918 . S
Fe179 O178 1.918 . S
Fe179 O180 2.002 . S
Fe179 O189 1.976 . S
Fe179 O193 1.996 . S
Fe179 O196 1.997 . S
O180 Fe179 2.002 . S
O180 C197 1.295 . S
O181 Fe176 1.997 . S
O181 C197 1.235 . S
O182 Fe176 2.002 . S
O182 C183 1.295 . S
C183 O182 1.295 . S
C183 O185 1.235 . S
C184 O189 1.287 . S
C184 O190 1.255 . S
O185 Fe177 1.997 . S
O185 C183 1.235 . S
C186 O192 1.287 . S
C186 O193 1.255 . S
O187 Fe176 1.976 . S
O187 C194 1.287 . S
O188 Fe177 1.996 . S
O188 C194 1.255 . S
O189 Fe179 1.976 . S
O189 C184 1.287 . S
O190 Fe176 1.996 . S
O190 C184 1.255 . S
C191 O195 1.295 . S
C191 O196 1.235 . S
O192 Fe177 1.976 . S
O192 C186 1.287 . S
O193 Fe179 1.996 . S
O193 C186 1.255 . S
C194 O187 1.287 . S
C194 O188 1.255 . S
O195 Fe177 2.002 . S
O195 C191 1.295 . S
O196 Fe179 1.997 . S
O196 C191 1.235 . S
C197 O180 1.295 . S
C197 O181 1.235 . S
Fe198 O200 1.918 . S
Fe198 O203 1.997 . S
Fe198 O204 2.002 . S
Fe198 O209 1.976 . S
Fe198 O212 1.996 . S
Fe199 O200 1.918 . S
Fe199 O207 1.997 . S
Fe199 O210 1.996 . S
Fe199 O214 1.976 . S
Fe199 O217 2.002 . S
O200 Fe198 1.918 . S
O200 Fe199 1.918 . S
O200 Fe201 1.918 . S
Fe201 O200 1.918 . S
Fe201 O202 2.002 . S
Fe201 O211 1.976 . S
Fe201 O215 1.996 . S
Fe201 O218 1.997 . S
O202 Fe201 2.002 . S
O202 C219 1.295 . S
O203 Fe198 1.997 . S
O203 C219 1.235 . S
O204 Fe198 2.002 . S
O204 C205 1.295 . S
C205 O204 1.295 . S
C205 O207 1.235 . S
C206 O211 1.287 . S
C206 O212 1.255 . S
O207 Fe199 1.997 . S
O207 C205 1.235 . S
C208 O214 1.287 . S
C208 O215 1.255 . S
O209 Fe198 1.976 . S
O209 C216 1.287 . S
O210 Fe199 1.996 . S
O210 C216 1.255 . S
O211 Fe201 1.976 . S
O211 C206 1.287 . S
O212 Fe198 1.996 . S
O212 C206 1.255 . S
C213 O217 1.295 . S
C213 O218 1.235 . S
O214 Fe199 1.976 . S
O214 C208 1.287 . S
O215 Fe201 1.996 . S
O215 C208 1.255 . S
C216 O209 1.287 . S
C216 O210 1.255 . S
O217 Fe199 2.002 . S
O217 C213 1.295 . S
O218 Fe201 1.997 . S
O218 C213 1.235 . S
C219 O202 1.295 . S
C219 O203 1.235 . S
Fe220 O222 1.918 . S
Fe220 O225 1.997 . S
Fe220 O226 2.002 . S
Fe220 O231 1.976 . S
Fe220 O234 1.996 . S
Fe221 O222 1.918 . S
Fe221 O229 1.997 . S
Fe221 O232 1.996 . S
Fe221 O236 1.976 . S
Fe221 O239 2.002 . S
O222 Fe220 1.918 . S
O222 Fe221 1.918 . S
O222 Fe223 1.918 . S
Fe223 O222 1.918 . S
Fe223 O224 2.002 . S
Fe223 O233 1.976 . S
Fe223 O237 1.996 . S
Fe223 O240 1.997 . S
O224 Fe223 2.002 . S
O224 C241 1.295 . S
O225 Fe220 1.997 . S
O225 C241 1.235 . S
O226 Fe220 2.002 . S
O226 C227 1.295 . S
C227 O226 1.295 . S
C227 O229 1.235 . S
C228 O233 1.287 . S
C228 O234 1.255 . S
O229 Fe221 1.997 . S
O229 C227 1.235 . S
C230 O236 1.287 . S
C230 O237 1.255 . S
O231 Fe220 1.976 . S
O231 C238 1.287 . S
O232 Fe221 1.996 . S
O232 C238 1.255 . S
O233 Fe223 1.976 . S
O233 C228 1.287 . S
O234 Fe220 1.996 . S
O234 C228 1.255 . S
C235 O239 1.295 . S
C235 O240 1.235 . S
O236 Fe221 1.976 . S
O236 C230 1.287 . S
O237 Fe223 1.996 . S
O237 C230 1.255 . S
C238 O231 1.287 . S
C238 O232 1.255 . S
O239 Fe221 2.002 . S
O239 C235 1.295 . S
O240 Fe223 1.997 . S
O240 C235 1.235 . S
C241 O224 1.295 . S
C241 O225 1.235 . S
Fe242 O244 1.918 . S
Fe242 O247 1.997 . S
Fe242 O248 2.002 . S
Fe242 O253 1.976 . S
Fe242 O256 1.996 . S
Fe243 O244 1.918 . S
Fe243 O251 1.997 . S
Fe243 O254 1.996 . S
Fe243 O258 1.976 . S
Fe243 O261 2.002 . S
O244 Fe242 1.918 . S
O244 Fe243 1.918 . S
O244 Fe245 1.918 . S
Fe245 O244 1.918 . S
Fe245 O246 2.002 . S
Fe245 O255 1.976 . S
Fe245 O259 1.996 . S
Fe245 O262 1.997 . S
O246 Fe245 2.002 . S
O246 C263 1.295 . S
O247 Fe242 1.997 . S
O247 C263 1.235 . S
O248 Fe242 2.002 . S
O248 C249 1.295 . S
C249 O248 1.295 . S
C249 O251 1.235 . S
C250 O255 1.287 . S
C250 O256 1.255 . S
O251 Fe243 1.997 . S
O251 C249 1.235 . S
C252 O258 1.287 . S
C252 O259 1.255 . S
O253 Fe242 1.976 . S
O253 C260 1.287 . S
O254 Fe243 1.996 . S
O254 C260 1.255 . S
O255 Fe245 1.976 . S
O255 C250 1.287 . S
O256 Fe242 1.996 . S
O256 C250 1.255 . S
C257 O261 1.295 . S
C257 O262 1.235 . S
O258 Fe243 1.976 . S
O258 C252 1.287 . S
O259 Fe245 1.996 . S
O259 C252 1.255 . S
C260 O253 1.287 . S
C260 O254 1.255 . S
O261 Fe243 2.002 . S
O261 C257 1.295 . S
O262 Fe245 1.997 . S
O262 C257 1.235 . S
C263 O246 1.295 . S
C263 O247 1.235 . S
Fe264 O266 1.918 . S
Fe264 O269 1.997 . S
Fe264 O270 2.002 . S
Fe264 O275 1.976 . S
Fe264 O278 1.996 . S
Fe265 O266 1.918 . S
Fe265 O273 1.997 . S
Fe265 O276 1.996 . S
Fe265 O280 1.976 . S
Fe265 O283 2.002 . S
O266 Fe264 1.918 . S
O266 Fe265 1.918 . S
O266 Fe267 1.918 . S
Fe267 O266 1.918 . S
Fe267 O268 2.002 . S
Fe267 O277 1.976 . S
Fe267 O281 1.996 . S
Fe267 O284 1.997 . S
O268 Fe267 2.002 . S
O268 C285 1.295 . S
O269 Fe264 1.997 . S
O269 C285 1.235 . S
O270 Fe264 2.002 . S
O270 C271 1.295 . S
C271 O270 1.295 . S
C271 O273 1.235 . S
C272 O277 1.287 . S
C272 O278 1.255 . S
O273 Fe265 1.997 . S
O273 C271 1.235 . S
C274 O280 1.287 . S
C274 O281 1.255 . S
O275 Fe264 1.976 . S
O275 C282 1.287 . S
O276 Fe265 1.996 . S
O276 C282 1.255 . S
O277 Fe267 1.976 . S
O277 C272 1.287 . S
O278 Fe264 1.996 . S
O278 C272 1.255 . S
C279 O283 1.295 . S
C279 O284 1.235 . S
O280 Fe265 1.976 . S
O280 C274 1.287 . S
O281 Fe267 1.996 . S
O281 C274 1.255 . S
C282 O275 1.287 . S
C282 O276 1.255 . S
O283 Fe265 2.002 . S
O283 C279 1.295 . S
O284 Fe267 1.997 . S
O284 C279 1.235 . S
C285 O268 1.295 . S
C285 O269 1.235 . S
Fe286 O288 1.918 . S
Fe286 O291 1.997 . S
Fe286 O292 2.002 . S
Fe286 O297 1.976 . S
Fe286 O300 1.996 . S
Fe287 O288 1.918 . S
Fe287 O295 1.997 . S
Fe287 O298 1.996 . S
Fe287 O302 1.976 . S
Fe287 O305 2.002 . S
O288 Fe286 1.918 . S
O288 Fe287 1.918 . S
O288 Fe289 1.918 . S
Fe289 O288 1.918 . S
Fe289 O290 2.002 . S
Fe289 O299 1.976 . S
Fe289 O303 1.996 . S
Fe289 O306 1.997 . S
O290 Fe289 2.002 . S
O290 C307 1.295 . S
O291 Fe286 1.997 . S
O291 C307 1.235 . S
O292 Fe286 2.002 . S
O292 C293 1.295 . S
C293 O292 1.295 . S
C293 O295 1.235 . S
C294 O299 1.287 . S
C294 O300 1.255 . S
O295 Fe287 1.997 . S
O295 C293 1.235 . S
C296 O302 1.287 . S
C296 O303 1.255 . S
O297 Fe286 1.976 . S
O297 C304 1.287 . S
O298 Fe287 1.996 . S
O298 C304 1.255 . S
O299 Fe289 1.976 . S
O299 C294 1.287 . S
O300 Fe286 1.996 . S
O300 C294 1.255 . S
C301 O305 1.295 . S
C301 O306 1.235 . S
O302 Fe287 1.976 . S
O302 C296 1.287 . S
O303 Fe289 1.996 . S
O303 C296 1.255 . S
C304 O297 1.287 . S
C304 O298 1.255 . S
O305 Fe287 2.002 . S
O305 C301 1.295 . S
O306 Fe289 1.997 . S
O306 C301 1.235 . S
C307 O290 1.295 . S
C307 O291 1.235 . S
Fe308 O310 1.918 . S
Fe308 O313 1.997 . S
Fe308 O314 2.002 . S
Fe308 O319 1.976 . S
Fe308 O322 1.996 . S
Fe309 O310 1.918 . S
Fe309 O317 1.997 . S
Fe309 O320 1.996 . S
Fe309 O324 1.976 . S
Fe309 O327 2.002 . S
O310 Fe308 1.918 . S
O310 Fe309 1.918 . S
O310 Fe311 1.918 . S
Fe311 O310 1.918 . S
Fe311 O312 2.002 . S
Fe311 O321 1.976 . S
Fe311 O325 1.996 . S
Fe311 O328 1.997 . S
O312 Fe311 2.002 . S
O312 C329 1.295 . S
O313 Fe308 1.997 . S
O313 C329 1.235 . S
O314 Fe308 2.002 . S
O314 C315 1.295 . S
C315 O314 1.295 . S
C315 O317 1.235 . S
C316 O321 1.287 . S
C316 O322 1.255 . S
O317 Fe309 1.997 . S
O317 C315 1.235 . S
C318 O324 1.287 . S
C318 O325 1.255 . S
O319 Fe308 1.976 . S
O319 C326 1.287 . S
O320 Fe309 1.996 . S
O320 C326 1.255 . S
O321 Fe311 1.976 . S
O321 C316 1.287 . S
O322 Fe308 1.996 . S
O322 C316 1.255 . S
C323 O327 1.295 . S
C323 O328 1.235 . S
O324 Fe309 1.976 . S
O324 C318 1.287 . S
O325 Fe311 1.996 . S
O325 C318 1.255 . S
C326 O319 1.287 . S
C326 O320 1.255 . S
O327 Fe309 2.002 . S
O327 C323 1.295 . S
O328 Fe311 1.997 . S
O328 C323 1.235 . S
C329 O312 1.295 . S
C329 O313 1.235 . S
Fe330 O332 1.918 . S
Fe330 O335 1.997 . S
Fe330 O336 2.002 . S
Fe330 O341 1.976 . S
Fe330 O344 1.996 . S
Fe331 O332 1.918 . S
Fe331 O339 1.997 . S
Fe331 O342 1.996 . S
Fe331 O346 1.976 . S
Fe331 O349 2.002 . S
O332 Fe330 1.918 . S
O332 Fe331 1.918 . S
O332 Fe333 1.918 . S
Fe333 O332 1.918 . S
Fe333 O334 2.002 . S
Fe333 O343 1.976 . S
Fe333 O347 1.996 . S
Fe333 O350 1.997 . S
O334 Fe333 2.002 . S
O334 C351 1.295 . S
O335 Fe330 1.997 . S
O335 C351 1.235 . S
O336 Fe330 2.002 . S
O336 C337 1.295 . S
C337 O336 1.295 . S
C337 O339 1.235 . S
C338 O343 1.287 . S
C338 O344 1.255 . S
O339 Fe331 1.997 . S
O339 C337 1.235 . S
C340 O346 1.287 . S
C340 O347 1.255 . S
O341 Fe330 1.976 . S
O341 C348 1.287 . S
O342 Fe331 1.996 . S
O342 C348 1.255 . S
O343 Fe333 1.976 . S
O343 C338 1.287 . S
O344 Fe330 1.996 . S
O344 C338 1.255 . S
C345 O349 1.295 . S
C345 O350 1.235 . S
O346 Fe331 1.976 . S
O346 C340 1.287 . S
O347 Fe333 1.996 . S
O347 C340 1.255 . S
C348 O341 1.287 . S
C348 O342 1.255 . S
O349 Fe331 2.002 . S
O349 C345 1.295 . S
O350 Fe333 1.997 . S
O350 C345 1.235 . S
C351 O334 1.295 . S
C351 O335 1.235 . S
C352 C353 1.349 . S
C352 C354 1.327 . S
C352 H377 0.950 . S
C353 C352 1.349 . S
C353 C369 1.349 . S
C354 C352 1.327 . S
C354 C373 1.429 . S
C354 H378 0.950 . S
C355 C372 1.574 . S
C355 C374 1.368 . S
C355 H379 0.949 . S
H356 C360 0.949 . S
C357 C358 1.349 . S
C357 C359 1.327 . S
C357 H380 0.950 . S
C358 C357 1.349 . S
C358 C370 1.349 . S
C359 C357 1.327 . S
C359 C375 1.429 . S
C359 H381 0.950 . S
C360 H356 0.949 . S
C360 C368 1.574 . S
C360 C376 1.368 . S
H361 C369 0.950 . S
H362 C367 0.950 . S
H363 C368 0.949 . S
H364 C370 0.950 . S
H365 C371 0.950 . S
H366 C372 0.949 . S
C367 H362 0.950 . S
C367 C369 1.327 . S
C367 C373 1.429 . S
C368 C360 1.574 . S
C368 H363 0.949 . S
C368 C374 1.368 . S
C369 C353 1.349 . S
C369 H361 0.950 . S
C369 C367 1.327 . S
C370 C358 1.349 . S
C370 H364 0.950 . S
C370 C371 1.327 . S
C371 H365 0.950 . S
C371 C370 1.327 . S
C371 C375 1.429 . S
C372 C355 1.574 . S
C372 H366 0.949 . S
C372 C376 1.368 . S
C373 C354 1.429 . S
C373 C367 1.429 . S
C373 C374 1.523 . S
C374 C355 1.368 . S
C374 C368 1.368 . S
C374 C373 1.523 . S
C375 C359 1.429 . S
C375 C371 1.429 . S
C375 C376 1.523 . S
C376 C360 1.368 . S
C376 C372 1.368 . S
C376 C375 1.523 . S
H377 C352 0.950 . S
H378 C354 0.950 . S
H379 C355 0.949 . S
H380 C357 0.950 . S
H381 C359 0.950 . S
C382 C383 1.349 . S
C382 C384 1.327 . S
C382 H407 0.950 . S
C383 C382 1.349 . S
C383 C399 1.349 . S
C384 C382 1.327 . S
C384 C403 1.429 . S
C384 H408 0.950 . S
C385 C402 1.574 . S
C385 C404 1.368 . S
C385 H409 0.949 . S
H386 C390 0.949 . S
C387 C388 1.349 . S
C387 C389 1.327 . S
C387 H410 0.950 . S
C388 C387 1.349 . S
C388 C400 1.349 . S
C389 C387 1.327 . S
C389 C405 1.429 . S
C389 H411 0.950 . S
C390 H386 0.949 . S
C390 C398 1.574 . S
C390 C406 1.368 . S
H391 C399 0.950 . S
H392 C397 0.950 . S
H393 C398 0.949 . S
H394 C400 0.950 . S
H395 C401 0.950 . S
H396 C402 0.949 . S
C397 H392 0.950 . S
C397 C399 1.327 . S
C397 C403 1.429 . S
C398 C390 1.574 . S
C398 H393 0.949 . S
C398 C404 1.368 . S
C399 C383 1.349 . S
C399 H391 0.950 . S
C399 C397 1.327 . S
C400 C388 1.349 . S
C400 H394 0.950 . S
C400 C401 1.327 . S
C401 H395 0.950 . S
C401 C400 1.327 . S
C401 C405 1.429 . S
C402 C385 1.574 . S
C402 H396 0.949 . S
C402 C406 1.368 . S
C403 C384 1.429 . S
C403 C397 1.429 . S
C403 C404 1.523 . S
C404 C385 1.368 . S
C404 C398 1.368 . S
C404 C403 1.523 . S
C405 C389 1.429 . S
C405 C401 1.429 . S
C405 C406 1.523 . S
C406 C390 1.368 . S
C406 C402 1.368 . S
C406 C405 1.523 . S
H407 C382 0.950 . S
H408 C384 0.950 . S
H409 C385 0.949 . S
H410 C387 0.950 . S
H411 C389 0.950 . S
C412 C413 1.349 . S
C412 C414 1.327 . S
C412 H437 0.950 . S
C413 C412 1.349 . S
C413 C429 1.349 . S
C414 C412 1.327 . S
C414 C433 1.429 . S
C414 H438 0.950 . S
C415 C432 1.574 . S
C415 C434 1.368 . S
C415 H439 0.949 . S
H416 C420 0.949 . S
C417 C418 1.349 . S
C417 C419 1.327 . S
C417 H440 0.950 . S
C418 C417 1.349 . S
C418 C430 1.349 . S
C419 C417 1.327 . S
C419 C435 1.429 . S
C419 H441 0.950 . S
C420 H416 0.949 . S
C420 C428 1.574 . S
C420 C436 1.368 . S
H421 C429 0.950 . S
H422 C427 0.950 . S
H423 C428 0.949 . S
H424 C430 0.950 . S
H425 C431 0.950 . S
H426 C432 0.949 . S
C427 H422 0.950 . S
C427 C429 1.327 . S
C427 C433 1.429 . S
C428 C420 1.574 . S
C428 H423 0.949 . S
C428 C434 1.368 . S
C429 C413 1.349 . S
C429 H421 0.950 . S
C429 C427 1.327 . S
C430 C418 1.349 . S
C430 H424 0.950 . S
C430 C431 1.327 . S
C431 H425 0.950 . S
C431 C430 1.327 . S
C431 C435 1.429 . S
C432 C415 1.574 . S
C432 H426 0.949 . S
C432 C436 1.368 . S
C433 C414 1.429 . S
C433 C427 1.429 . S
C433 C434 1.523 . S
C434 C415 1.368 . S
C434 C428 1.368 . S
C434 C433 1.523 . S
C435 C419 1.429 . S
C435 C431 1.429 . S
C435 C436 1.523 . S
C436 C420 1.368 . S
C436 C432 1.368 . S
C436 C435 1.523 . S
H437 C412 0.950 . S
H438 C414 0.950 . S
H439 C415 0.949 . S
H440 C417 0.950 . S
H441 C419 0.950 . S
C442 C443 1.349 . S
C442 C444 1.327 . S
C442 H467 0.950 . S
C443 C442 1.349 . S
C443 C459 1.349 . S
C444 C442 1.327 . S
C444 C463 1.429 . S
C444 H468 0.950 . S
C445 C462 1.574 1_556 S
C445 C464 1.368 1_455 S
C445 H469 0.949 . S
H446 C450 0.949 . S
C447 C448 1.349 . S
C447 C449 1.327 . S
C447 H470 0.950 . S
C448 C447 1.349 . S
C448 C460 1.349 . S
C449 C447 1.327 . S
C449 C465 1.429 . S
C449 H471 0.950 . S
C450 H446 0.949 . S
C450 C458 1.574 1_554 S
C450 C466 1.368 1_655 S
H451 C459 0.950 . S
H452 C457 0.950 . S
H453 C458 0.949 . S
H454 C460 0.950 . S
H455 C461 0.950 . S
H456 C462 0.949 . S
C457 H452 0.950 . S
C457 C459 1.327 . S
C457 C463 1.429 . S
C458 C450 1.574 1_556 S
C458 H453 0.949 . S
C458 C464 1.368 . S
C459 C443 1.349 . S
C459 H451 0.950 . S
C459 C457 1.327 . S
C460 C448 1.349 . S
C460 H454 0.950 . S
C460 C461 1.327 . S
C461 H455 0.950 . S
C461 C460 1.327 . S
C461 C465 1.429 . S
C462 C445 1.574 1_554 S
C462 H456 0.949 . S
C462 C466 1.368 . S
C463 C444 1.429 . S
C463 C457 1.429 . S
C463 C464 1.523 . S
C464 C445 1.368 1_655 S
C464 C458 1.368 . S
C464 C463 1.523 . S
C465 C449 1.429 . S
C465 C461 1.429 . S
C465 C466 1.523 . S
C466 C450 1.368 1_455 S
C466 C462 1.368 . S
C466 C465 1.523 . S
H467 C442 0.950 . S
H468 C444 0.950 . S
H469 C445 0.949 . S
H470 C447 0.950 . S
H471 C449 0.950 . S
C472 C473 1.349 . S
C472 C474 1.327 . S
C472 H497 0.950 . S
C473 C472 1.349 . S
C473 C489 1.349 . S
C474 C472 1.327 . S
C474 C493 1.429 . S
C474 H498 0.950 . S
C475 C492 1.574 . S
C475 C494 1.368 . S
C475 H499 0.949 . S
H476 C480 0.949 . S
C477 C478 1.349 . S
C477 C479 1.327 . S
C477 H500 0.950 . S
C478 C477 1.349 . S
C478 C490 1.349 . S
C479 C477 1.327 . S
C479 C495 1.429 . S
C479 H501 0.950 . S
C480 H476 0.949 . S
C480 C488 1.574 . S
C480 C496 1.368 . S
H481 C489 0.950 . S
H482 C487 0.950 . S
H483 C488 0.949 . S
H484 C490 0.950 . S
H485 C491 0.950 . S
H486 C492 0.949 . S
C487 H482 0.950 . S
C487 C489 1.327 . S
C487 C493 1.429 . S
C488 C480 1.574 . S
C488 H483 0.949 . S
C488 C494 1.368 . S
C489 C473 1.349 . S
C489 H481 0.950 . S
C489 C487 1.327 . S
C490 C478 1.349 . S
C490 H484 0.950 . S
C490 C491 1.327 . S
C491 H485 0.950 . S
C491 C490 1.327 . S
C491 C495 1.429 . S
C492 C475 1.574 . S
C492 H486 0.949 . S
C492 C496 1.368 . S
C493 C474 1.429 . S
C493 C487 1.429 . S
C493 C494 1.523 . S
C494 C475 1.368 . S
C494 C488 1.368 . S
C494 C493 1.523 . S
C495 C479 1.429 . S
C495 C491 1.429 . S
C495 C496 1.523 . S
C496 C480 1.368 . S
C496 C492 1.368 . S
C496 C495 1.523 . S
H497 C472 0.950 . S
H498 C474 0.950 . S
H499 C475 0.949 . S
H500 C477 0.950 . S
H501 C479 0.950 . S
C502 C503 1.349 . S
C502 C504 1.327 . S
C502 H527 0.950 . S
C503 C502 1.349 . S
C503 C519 1.349 . S
C504 C502 1.327 . S
C504 C523 1.429 . S
C504 H528 0.950 . S
C505 C522 1.574 . S
C505 C524 1.368 . S
C505 H529 0.949 . S
H506 C510 0.949 . S
C507 C508 1.349 . S
C507 C509 1.327 . S
C507 H530 0.950 . S
C508 C507 1.349 . S
C508 C520 1.349 . S
C509 C507 1.327 . S
C509 C525 1.429 . S
C509 H531 0.950 . S
C510 H506 0.949 . S
C510 C518 1.574 . S
C510 C526 1.368 . S
H511 C519 0.950 . S
H512 C517 0.950 . S
H513 C518 0.949 . S
H514 C520 0.950 . S
H515 C521 0.950 . S
H516 C522 0.949 . S
C517 H512 0.950 . S
C517 C519 1.327 . S
C517 C523 1.429 . S
C518 C510 1.574 . S
C518 H513 0.949 . S
C518 C524 1.368 . S
C519 C503 1.349 . S
C519 H511 0.950 . S
C519 C517 1.327 . S
C520 C508 1.349 . S
C520 H514 0.950 . S
C520 C521 1.327 . S
C521 H515 0.950 . S
C521 C520 1.327 . S
C521 C525 1.429 . S
C522 C505 1.574 . S
C522 H516 0.949 . S
C522 C526 1.368 . S
C523 C504 1.429 . S
C523 C517 1.429 . S
C523 C524 1.523 . S
C524 C505 1.368 . S
C524 C518 1.368 . S
C524 C523 1.523 . S
C525 C509 1.429 . S
C525 C521 1.429 . S
C525 C526 1.523 . S
C526 C510 1.368 . S
C526 C522 1.368 . S
C526 C525 1.523 . S
H527 C502 0.950 . S
H528 C504 0.950 . S
H529 C505 0.949 . S
H530 C507 0.950 . S
H531 C509 0.950 . S
C532 C533 1.349 . S
C532 C534 1.327 . S
C532 H557 0.950 . S
C533 C532 1.349 . S
C533 C549 1.349 1_565 S
C534 C532 1.327 . S
C534 C553 1.429 . S
C534 H558 0.950 . S
C535 C552 1.574 1_554 S
C535 C554 1.368 1_445 S
C535 H559 0.949 . S
H536 C540 0.949 . S
C537 C538 1.349 . S
C537 C539 1.327 . S
C537 H560 0.950 . S
C538 C537 1.349 . S
C538 C550 1.349 1_545 S
C539 C537 1.327 . S
C539 C555 1.429 . S
C539 H561 0.950 . S
C540 H536 0.949 . S
C540 C548 1.574 1_556 S
C540 C556 1.368 1_665 S
H541 C549 0.950 . S
H542 C547 0.964 . S
H543 C548 0.949 . S
H544 C550 0.950 . S
H545 C551 0.964 . S
H546 C552 0.949 . S
C547 H542 0.964 . S
C547 C549 1.327 . S
C547 C553 1.429 1_545 S
C548 C540 1.574 1_554 S
C548 H543 0.949 . S
C548 C554 1.368 . S
C549 C533 1.349 1_545 S
C549 H541 0.950 . S
C549 C547 1.327 . S
C550 C538 1.349 1_565 S
C550 H544 0.950 . S
C550 C551 1.327 . S
C551 H545 0.964 . S
C551 C550 1.327 . S
C551 C555 1.429 1_565 S
C552 C535 1.574 1_556 S
C552 H546 0.949 . S
C552 C556 1.368 . S
C553 C534 1.429 . S
C553 C547 1.429 1_565 S
C553 C554 1.523 . S
C554 C535 1.368 1_665 S
C554 C548 1.368 . S
C554 C553 1.523 . S
C555 C539 1.429 . S
C555 C551 1.429 1_545 S
C555 C556 1.523 . S
C556 C540 1.368 1_445 S
C556 C552 1.368 . S
C556 C555 1.523 . S
H557 C532 0.950 . S
H558 C534 0.950 . S
H559 C535 0.949 . S
H560 C537 0.950 . S
H561 C539 0.950 . S
C562 C563 1.349 . S
C562 C564 1.327 . S
C562 H587 0.950 . S
C563 C562 1.349 . S
C563 C579 1.349 1_565 S
C564 C562 1.327 . S
C564 C583 1.429 . S
C564 H588 0.950 . S
C565 C582 1.574 . S
C565 C584 1.368 1_545 S
C565 H589 0.949 . S
H566 C570 0.949 . S
C567 C568 1.349 . S
C567 C569 1.327 . S
C567 H590 0.950 . S
C568 C567 1.349 . S
C568 C580 1.349 1_545 S
C569 C567 1.327 . S
C569 C585 1.429 . S
C569 H591 0.950 . S
C570 H566 0.949 . S
C570 C578 1.574 . S
C570 C586 1.368 1_565 S
H571 C579 0.950 . S
H572 C577 0.950 . S
H573 C578 0.949 . S
H574 C580 0.950 . S
H575 C581 0.950 . S
H576 C582 0.949 . S
C577 H572 0.950 . S
C577 C579 1.327 . S
C577 C583 1.429 1_545 S
C578 C570 1.574 . S
C578 H573 0.949 . S
C578 C584 1.368 . S
C579 C563 1.349 1_545 S
C579 H571 0.950 . S
C579 C577 1.327 . S
C580 C568 1.349 1_565 S
C580 H574 0.950 . S
C580 C581 1.327 . S
C581 H575 0.950 . S
C581 C580 1.327 . S
C581 C585 1.429 1_565 S
C582 C565 1.574 . S
C582 H576 0.949 . S
C582 C586 1.368 . S
C583 C564 1.429 . S
C583 C577 1.429 1_565 S
C583 C584 1.523 . S
C584 C565 1.368 1_565 S
C584 C578 1.368 . S
C584 C583 1.523 . S
C585 C569 1.429 . S
C585 C581 1.429 1_545 S
C585 C586 1.523 . S
C586 C570 1.368 1_545 S
C586 C582 1.368 . S
C586 C585 1.523 . S
H587 C562 0.950 . S
H588 C564 0.950 . S
H589 C565 0.949 . S
H590 C567 0.950 . S
H591 C569 0.950 . S
C592 C593 1.349 . S
C592 C594 1.327 . S
C592 H617 0.950 . S
C593 C592 1.349 . S
C593 C609 1.349 . S
C594 C592 1.327 . S
C594 C613 1.429 . S
C594 H618 0.950 . S
C595 C612 1.574 . S
C595 C614 1.368 . S
C595 H619 0.949 . S
H596 C600 0.949 . S
C597 C598 1.349 . S
C597 C599 1.327 . S
C597 H620 0.950 . S
C598 C597 1.349 . S
C598 C610 1.349 . S
C599 C597 1.327 . S
C599 C615 1.429 . S
C599 H621 0.950 . S
C600 H596 0.949 . S
C600 C608 1.574 1_554 S
C600 C616 1.368 . S
H601 C609 0.950 . S
H602 C607 0.950 . S
H603 C608 0.949 . S
H604 C610 0.950 . S
H605 C611 0.950 . S
H606 C612 0.949 . S
C607 H602 0.950 . S
C607 C609 1.327 . S
C607 C613 1.429 . S
C608 C600 1.574 1_556 S
C608 H603 0.949 . S
C608 C614 1.368 . S
C609 C593 1.349 . S
C609 H601 0.950 . S
C609 C607 1.327 . S
C610 C598 1.349 . S
C610 H604 0.950 . S
C610 C611 1.327 . S
C611 H605 0.950 . S
C611 C610 1.327 . S
C611 C615 1.429 . S
C612 C595 1.574 . S
C612 H606 0.949 . S
C612 C616 1.368 1_556 S
C613 C594 1.429 . S
C613 C607 1.429 . S
C613 C614 1.523 . S
C614 C595 1.368 . S
C614 C608 1.368 . S
C614 C613 1.523 . S
C615 C599 1.429 . S
C615 C611 1.429 . S
C615 C616 1.523 . S
C616 C600 1.368 . S
C616 C612 1.368 1_554 S
C616 C615 1.523 . S
H617 C592 0.950 . S
H618 C594 0.950 . S
H619 C595 0.949 . S
H620 C597 0.950 . S
H621 C599 0.950 . S
C622 C623 1.349 . S
C622 C624 1.327 . S
C622 H647 0.950 . S
C623 C622 1.349 . S
C623 C639 1.349 . S
C624 C622 1.327 . S
C624 C643 1.429 . S
C624 H648 0.950 . S
C625 C642 1.574 . S
C625 C644 1.368 . S
C625 H649 0.949 . S
H626 C630 0.949 . S
C627 C628 1.349 . S
C627 C629 1.327 . S
C627 H650 0.950 . S
C628 C627 1.349 . S
C628 C640 1.349 . S
C629 C627 1.327 . S
C629 C645 1.429 . S
C629 H651 0.950 . S
C630 H626 0.949 . S
C630 C638 1.574 . S
C630 C646 1.368 . S
H631 C639 0.950 . S
H632 C637 0.950 . S
H633 C638 0.949 . S
H634 C640 0.950 . S
H635 C641 0.950 . S
H636 C642 0.949 . S
C637 H632 0.950 . S
C637 C639 1.327 . S
C637 C643 1.429 . S
C638 C630 1.574 . S
C638 H633 0.949 . S
C638 C644 1.368 . S
C639 C623 1.349 . S
C639 H631 0.950 . S
C639 C637 1.327 . S
C640 C628 1.349 . S
C640 H634 0.950 . S
C640 C641 1.327 . S
C641 H635 0.950 . S
C641 C640 1.327 . S
C641 C645 1.429 . S
C642 C625 1.574 . S
C642 H636 0.949 . S
C642 C646 1.368 . S
C643 C624 1.429 . S
C643 C637 1.429 . S
C643 C644 1.523 . S
C644 C625 1.368 . S
C644 C638 1.368 . S
C644 C643 1.523 . S
C645 C629 1.429 . S
C645 C641 1.429 . S
C645 C646 1.523 . S
C646 C630 1.368 . S
C646 C642 1.368 . S
C646 C645 1.523 . S
H647 C622 0.950 . S
H648 C624 0.950 . S
H649 C625 0.949 . S
H650 C627 0.950 . S
H651 C629 0.950 . S
C652 C653 1.349 . S
C652 C654 1.327 . S
C652 H677 0.950 . S
C653 C652 1.349 . S
C653 C669 1.349 . S
C654 C652 1.327 . S
C654 C673 1.429 . S
C654 H678 0.950 . S
C655 C672 1.574 . S
C655 C674 1.368 . S
C655 H679 0.949 . S
H656 C660 0.949 . S
C657 C658 1.349 . S
C657 C659 1.327 . S
C657 H680 0.950 . S
C658 C657 1.349 . S
C658 C670 1.349 . S
C659 C657 1.327 . S
C659 C675 1.429 . S
C659 H681 0.950 . S
C660 H656 0.949 . S
C660 C668 1.574 . S
C660 C676 1.368 . S
H661 C669 0.950 . S
H662 C667 0.950 . S
H663 C668 0.949 . S
H664 C670 0.950 . S
H665 C671 0.950 . S
H666 C672 0.949 . S
C667 H662 0.950 . S
C667 C669 1.327 . S
C667 C673 1.429 . S
C668 C660 1.574 . S
C668 H663 0.949 . S
C668 C674 1.368 . S
C669 C653 1.349 . S
C669 H661 0.950 . S
C669 C667 1.327 . S
C670 C658 1.349 . S
C670 H664 0.950 . S
C670 C671 1.327 . S
C671 H665 0.950 . S
C671 C670 1.327 . S
C671 C675 1.429 . S
C672 C655 1.574 . S
C672 H666 0.949 . S
C672 C676 1.368 . S
C673 C654 1.429 . S
C673 C667 1.429 . S
C673 C674 1.523 . S
C674 C655 1.368 . S
C674 C668 1.368 . S
C674 C673 1.523 . S
C675 C659 1.429 . S
C675 C671 1.429 . S
C675 C676 1.523 . S
C676 C660 1.368 . S
C676 C672 1.368 . S
C676 C675 1.523 . S
H677 C652 0.950 . S
H678 C654 0.950 . S
H679 C655 0.949 . S
H680 C657 0.950 . S
H681 C659 0.950 . S
C682 C683 1.349 . S
C682 C684 1.327 . S
C682 H707 0.950 . S
C683 C682 1.349 . S
C683 C699 1.349 . S
C684 C682 1.327 . S
C684 C703 1.429 . S
C684 H708 0.950 . S
C685 C702 1.574 . S
C685 C704 1.368 . S
C685 H709 0.949 . S
H686 C690 0.949 . S
C687 C688 1.349 . S
C687 C689 1.327 . S
C687 H710 0.950 . S
C688 C687 1.349 . S
C688 C700 1.349 . S
C689 C687 1.327 . S
C689 C705 1.429 . S
C689 H711 0.950 . S
C690 H686 0.949 . S
C690 C698 1.574 . S
C690 C706 1.368 . S
H691 C699 0.950 . S
H692 C697 0.950 . S
H693 C698 0.949 . S
H694 C700 0.950 . S
H695 C701 0.950 . S
H696 C702 0.949 . S
C697 H692 0.950 . S
C697 C699 1.327 . S
C697 C703 1.429 . S
C698 C690 1.574 . S
C698 H693 0.949 . S
C698 C704 1.368 . S
C699 C683 1.349 . S
C699 H691 0.950 . S
C699 C697 1.327 . S
C700 C688 1.349 . S
C700 H694 0.950 . S
C700 C701 1.327 . S
C701 H695 0.950 . S
C701 C700 1.327 . S
C701 C705 1.429 . S
C702 C685 1.574 . S
C702 H696 0.949 . S
C702 C706 1.368 . S
C703 C684 1.429 . S
C703 C697 1.429 . S
C703 C704 1.523 . S
C704 C685 1.368 . S
C704 C698 1.368 . S
C704 C703 1.523 . S
C705 C689 1.429 . S
C705 C701 1.429 . S
C705 C706 1.523 . S
C706 C690 1.368 . S
C706 C702 1.368 . S
C706 C705 1.523 . S
H707 C682 0.950 . S
H708 C684 0.950 . S
H709 C685 0.949 . S
H710 C687 0.950 . S
H711 C689 0.950 . S
C712 C713 1.349 . S
C712 C714 1.327 . S
C712 H737 0.950 . S
C713 C712 1.349 . S
C713 C729 1.349 . S
C714 C712 1.327 . S
C714 C733 1.429 . S
C714 H738 0.950 . S
C715 C732 1.574 . S
C715 C734 1.368 . S
C715 H739 0.949 . S
H716 C720 0.949 . S
C717 C718 1.349 . S
C717 C719 1.327 . S
C717 H740 0.950 . S
C718 C717 1.349 . S
C718 C730 1.349 . S
C719 C717 1.327 . S
C719 C735 1.429 . S
C719 H741 0.950 . S
C720 H716 0.949 . S
C720 C728 1.574 1_556 S
C720 C736 1.368 . S
H721 C729 0.950 . S
H722 C727 0.950 . S
H723 C728 0.949 . S
H724 C730 0.950 . S
H725 C731 0.950 . S
H726 C732 0.949 . S
C727 H722 0.950 . S
C727 C729 1.327 . S
C727 C733 1.429 . S
C728 C720 1.574 1_554 S
C728 H723 0.949 . S
C728 C734 1.368 . S
C729 C713 1.349 . S
C729 H721 0.950 . S
C729 C727 1.327 . S
C730 C718 1.349 . S
C730 H724 0.950 . S
C730 C731 1.327 . S
C731 H725 0.950 . S
C731 C730 1.327 . S
C731 C735 1.429 . S
C732 C715 1.574 . S
C732 H726 0.949 . S
C732 C736 1.368 1_554 S
C733 C714 1.429 . S
C733 C727 1.429 . S
C733 C734 1.523 . S
C734 C715 1.368 . S
C734 C728 1.368 . S
C734 C733 1.523 . S
C735 C719 1.429 . S
C735 C731 1.429 . S
C735 C736 1.523 . S
C736 C720 1.368 . S
C736 C732 1.368 1_556 S
C736 C735 1.523 . S
H737 C712 0.950 . S
H738 C714 0.950 . S
H739 C715 0.949 . S
H740 C717 0.950 . S
H741 C719 0.950 . S
C742 C743 1.349 . S
C742 C744 1.327 . S
C742 H767 0.950 . S
C743 C742 1.349 . S
C743 C759 1.349 . S
C744 C742 1.327 . S
C744 C763 1.429 . S
C744 H768 0.950 . S
C745 C762 1.574 . S
C745 C764 1.368 . S
C745 H769 0.949 . S
H746 C750 0.949 . S
C747 C748 1.349 . S
C747 C749 1.327 . S
C747 H770 0.950 . S
C748 C747 1.349 . S
C748 C760 1.349 . S
C749 C747 1.327 . S
C749 C765 1.429 . S
C749 H771 0.950 . S
C750 H746 0.949 . S
C750 C758 1.574 . S
C750 C766 1.368 . S
H751 C759 0.950 . S
H752 C757 0.950 . S
H753 C758 0.949 . S
H754 C760 0.950 . S
H755 C761 0.950 . S
H756 C762 0.949 . S
C757 H752 0.950 . S
C757 C759 1.327 . S
C757 C763 1.429 . S
C758 C750 1.574 . S
C758 H753 0.949 . S
C758 C764 1.368 . S
C759 C743 1.349 . S
C759 H751 0.950 . S
C759 C757 1.327 . S
C760 C748 1.349 . S
C760 H754 0.950 . S
C760 C761 1.327 . S
C761 H755 0.950 . S
C761 C760 1.327 . S
C761 C765 1.429 . S
C762 C745 1.574 . S
C762 H756 0.949 . S
C762 C766 1.368 . S
C763 C744 1.429 . S
C763 C757 1.429 . S
C763 C764 1.523 . S
C764 C745 1.368 . S
C764 C758 1.368 . S
C764 C763 1.523 . S
C765 C749 1.429 . S
C765 C761 1.429 . S
C765 C766 1.523 . S
C766 C750 1.368 . S
C766 C762 1.368 . S
C766 C765 1.523 . S
H767 C742 0.950 . S
H768 C744 0.950 . S
H769 C745 0.949 . S
H770 C747 0.950 . S
H771 C749 0.950 . S
C772 C773 1.349 . S
C772 C774 1.327 . S
C772 H797 0.950 . S
C773 C772 1.349 . S
C773 C789 1.349 . S
C774 C772 1.327 . S
C774 C793 1.429 . S
C774 H798 0.950 . S
C775 C792 1.574 . S
C775 C794 1.368 . S
C775 H799 0.949 . S
H776 C780 0.949 . S
C777 C778 1.349 . S
C777 C779 1.327 . S
C777 H800 0.950 . S
C778 C777 1.349 . S
C778 C790 1.349 . S
C779 C777 1.327 . S
C779 C795 1.429 . S
C779 H801 0.950 . S
C780 H776 0.949 . S
C780 C788 1.574 . S
C780 C796 1.368 . S
H781 C789 0.950 . S
H782 C787 0.950 . S
H783 C788 0.949 . S
H784 C790 0.950 . S
H785 C791 0.950 . S
H786 C792 0.949 . S
C787 H782 0.950 . S
C787 C789 1.327 . S
C787 C793 1.429 . S
C788 C780 1.574 . S
C788 H783 0.949 . S
C788 C794 1.368 . S
C789 C773 1.349 . S
C789 H781 0.950 . S
C789 C787 1.327 . S
C790 C778 1.349 . S
C790 H784 0.950 . S
C790 C791 1.327 . S
C791 H785 0.950 . S
C791 C790 1.327 . S
C791 C795 1.429 . S
C792 C775 1.574 . S
C792 H786 0.949 . S
C792 C796 1.368 . S
C793 C774 1.429 . S
C793 C787 1.429 . S
C793 C794 1.523 . S
C794 C775 1.368 . S
C794 C788 1.368 . S
C794 C793 1.523 . S
C795 C779 1.429 . S
C795 C791 1.429 . S
C795 C796 1.523 . S
C796 C780 1.368 . S
C796 C792 1.368 . S
C796 C795 1.523 . S
H797 C772 0.950 . S
H798 C774 0.950 . S
H799 C775 0.949 . S
H800 C777 0.950 . S
H801 C779 0.950 . S
C802 C803 1.349 . S
C802 C804 1.327 . S
C802 H827 0.950 . S
C803 C802 1.349 . S
C803 C819 1.349 . S
C804 C802 1.327 . S
C804 C823 1.429 . S
C804 H828 0.950 . S
C805 C822 1.574 . S
C805 C824 1.368 . S
C805 H829 0.949 . S
H806 C810 0.949 . S
C807 C808 1.349 . S
C807 C809 1.327 . S
C807 H830 0.950 . S
C808 C807 1.349 . S
C808 C820 1.349 . S
C809 C807 1.327 . S
C809 C825 1.429 . S
C809 H831 0.950 . S
C810 H806 0.949 . S
C810 C818 1.574 . S
C810 C826 1.368 . S
H811 C819 0.950 . S
H812 C817 0.950 . S
H813 C818 0.949 . S
H814 C820 0.950 . S
H815 C821 0.950 . S
H816 C822 0.949 . S
C817 H812 0.950 . S
C817 C819 1.327 . S
C817 C823 1.429 . S
C818 C810 1.574 . S
C818 H813 0.949 . S
C818 C824 1.368 . S
C819 C803 1.349 . S
C819 H811 0.950 . S
C819 C817 1.327 . S
C820 C808 1.349 . S
C820 H814 0.950 . S
C820 C821 1.327 . S
C821 H815 0.950 . S
C821 C820 1.327 . S
C821 C825 1.429 . S
C822 C805 1.574 . S
C822 H816 0.949 . S
C822 C826 1.368 . S
C823 C804 1.429 . S
C823 C817 1.429 . S
C823 C824 1.523 . S
C824 C805 1.368 . S
C824 C818 1.368 . S
C824 C823 1.523 . S
C825 C809 1.429 . S
C825 C821 1.429 . S
C825 C826 1.523 . S
C826 C810 1.368 . S
C826 C822 1.368 . S
C826 C825 1.523 . S
H827 C802 0.950 . S
H828 C804 0.950 . S
H829 C805 0.949 . S
H830 C807 0.950 . S
H831 C809 0.950 . S
C832 C833 1.349 . S
C832 C834 1.327 . S
C832 H857 0.950 . S
C833 C832 1.349 . S
C833 C849 1.349 . S
C834 C832 1.327 . S
C834 C853 1.429 . S
C834 H858 0.950 . S
C835 C852 1.574 . S
C835 C854 1.368 . S
C835 H859 0.949 . S
H836 C840 0.949 . S
C837 C838 1.349 . S
C837 C839 1.327 . S
C837 H860 0.950 . S
C838 C837 1.349 . S
C838 C850 1.349 . S
C839 C837 1.327 . S
C839 C855 1.429 . S
C839 H861 0.950 . S
C840 H836 0.949 . S
C840 C848 1.574 . S
C840 C856 1.368 . S
H841 C849 0.950 . S
H842 C847 0.950 . S
H843 C848 0.949 . S
H844 C850 0.950 . S
H845 C851 0.950 . S
H846 C852 0.949 . S
C847 H842 0.950 . S
C847 C849 1.327 . S
C847 C853 1.429 . S
C848 C840 1.574 . S
C848 H843 0.949 . S
C848 C854 1.368 . S
C849 C833 1.349 . S
C849 H841 0.950 . S
C849 C847 1.327 . S
C850 C838 1.349 . S
C850 H844 0.950 . S
C850 C851 1.327 . S
C851 H845 0.950 . S
C851 C850 1.327 . S
C851 C855 1.429 . S
C852 C835 1.574 . S
C852 H846 0.949 . S
C852 C856 1.368 . S
C853 C834 1.429 . S
C853 C847 1.429 . S
C853 C854 1.523 . S
C854 C835 1.368 . S
C854 C848 1.368 . S
C854 C853 1.523 . S
C855 C839 1.429 . S
C855 C851 1.429 . S
C855 C856 1.523 . S
C856 C840 1.368 . S
C856 C852 1.368 . S
C856 C855 1.523 . S
H857 C832 0.950 . S
H858 C834 0.950 . S
H859 C835 0.949 . S
H860 C837 0.950 . S
H861 C839 0.950 . S
C862 C863 1.349 . S
C862 C864 1.327 . S
C862 H887 0.950 . S
C863 C862 1.349 . S
C863 C879 1.349 . S
C864 C862 1.327 . S
C864 C883 1.429 1_545 S
C864 H888 0.950 . S
C865 C882 1.574 . S
C865 C884 1.368 . S
C865 H889 0.949 . S
H866 C870 0.949 . S
C867 C868 1.349 . S
C867 C869 1.327 . S
C867 H890 0.950 . S
C868 C867 1.349 . S
C868 C880 1.349 . S
C869 C867 1.327 . S
C869 C885 1.429 . S
C869 H891 0.950 . S
C870 H866 0.949 . S
C870 C878 1.574 . S
C870 C886 1.368 . S
H871 C879 0.950 1_565 S
H872 C877 0.950 . S
H873 C878 0.949 1_545 S
H874 C880 0.950 . S
H875 C881 0.950 . S
H876 C882 0.949 . S
C877 H872 0.950 . S
C877 C879 1.327 1_565 S
C877 C883 1.429 . S
C878 C870 1.574 . S
C878 H873 0.949 1_565 S
C878 C884 1.368 . S
C879 C863 1.349 . S
C879 H871 0.950 1_545 S
C879 C877 1.327 1_545 S
C880 C868 1.349 . S
C880 H874 0.950 . S
C880 C881 1.327 . S
C881 H875 0.950 . S
C881 C880 1.327 . S
C881 C885 1.429 . S
C882 C865 1.574 . S
C882 H876 0.949 . S
C882 C886 1.368 . S
C883 C864 1.429 1_565 S
C883 C877 1.429 . S
C883 C884 1.523 . S
C884 C865 1.368 . S
C884 C878 1.368 . S
C884 C883 1.523 . S
C885 C869 1.429 . S
C885 C881 1.429 . S
C885 C886 1.523 . S
C886 C870 1.368 . S
C886 C882 1.368 . S
C886 C885 1.523 . S
H887 C862 0.950 . S
H888 C864 0.950 . S
H889 C865 0.949 . S
H890 C867 0.950 . S
H891 C869 0.950 . S
C892 C893 1.349 . S
C892 C894 1.327 . S
C892 H917 0.950 . S
C893 C892 1.349 . S
C893 C909 1.349 . S
C894 C892 1.327 . S
C894 C913 1.429 . S
C894 H918 0.950 . S
C895 C912 1.574 . S
C895 C914 1.368 1_556 S
C895 H919 0.949 . S
H896 C900 0.949 . S
C897 C898 1.349 . S
C897 C899 1.327 . S
C897 H920 0.950 . S
C898 C897 1.349 . S
C898 C910 1.349 . S
C899 C897 1.327 . S
C899 C915 1.429 . S
C899 H921 0.950 . S
C900 H896 0.949 . S
C900 C908 1.574 1_556 S
C900 C916 1.368 . S
H901 C909 0.950 . S
H902 C907 0.950 . S
H903 C908 0.949 . S
H904 C910 0.950 . S
H905 C911 0.950 . S
H906 C912 0.949 . S
C907 H902 0.950 . S
C907 C909 1.327 . S
C907 C913 1.429 . S
C908 C900 1.574 1_554 S
C908 H903 0.949 . S
C908 C914 1.368 . S
C909 C893 1.349 . S
C909 H901 0.950 . S
C909 C907 1.327 . S
C910 C898 1.349 . S
C910 H904 0.950 . S
C910 C911 1.327 . S
C911 H905 0.950 . S
C911 C910 1.327 . S
C911 C915 1.429 . S
C912 C895 1.574 . S
C912 H906 0.949 . S
C912 C916 1.368 . S
C913 C894 1.429 . S
C913 C907 1.429 . S
C913 C914 1.523 . S
C914 C895 1.368 1_554 S
C914 C908 1.368 . S
C914 C913 1.523 . S
C915 C899 1.429 . S
C915 C911 1.429 . S
C915 C916 1.523 . S
C916 C900 1.368 . S
C916 C912 1.368 . S
C916 C915 1.523 . S
H917 C892 0.950 . S
H918 C894 0.950 . S
H919 C895 0.949 . S
H920 C897 0.950 . S
H921 C899 0.950 . S
C922 C923 1.349 . S
C922 C924 1.327 . S
C922 H947 0.950 . S
C923 C922 1.349 . S
C923 C939 1.349 . S
C924 C922 1.327 . S
C924 C943 1.429 . S
C924 H948 0.950 . S
C925 C942 1.574 . S
C925 C944 1.368 . S
C925 H949 0.949 . S
H926 C930 0.949 . S
C927 C928 1.349 . S
C927 C929 1.327 . S
C927 H950 0.950 . S
C928 C927 1.349 . S
C928 C940 1.349 . S
C929 C927 1.327 . S
C929 C945 1.429 1_565 S
C929 H951 0.950 . S
C930 H926 0.949 . S
C930 C938 1.574 . S
C930 C946 1.368 . S
H931 C939 0.950 . S
H932 C937 0.950 . S
H933 C938 0.949 . S
H934 C940 0.950 1_545 S
H935 C941 0.950 . S
H936 C942 0.949 1_565 S
C937 H932 0.950 . S
C937 C939 1.327 . S
C937 C943 1.429 . S
C938 C930 1.574 . S
C938 H933 0.949 . S
C938 C944 1.368 . S
C939 C923 1.349 . S
C939 H931 0.950 . S
C939 C937 1.327 . S
C940 C928 1.349 . S
C940 H934 0.950 1_565 S
C940 C941 1.327 1_565 S
C941 H935 0.950 . S
C941 C940 1.327 1_545 S
C941 C945 1.429 . S
C942 C925 1.574 . S
C942 H936 0.949 1_545 S
C942 C946 1.368 . S
C943 C924 1.429 . S
C943 C937 1.429 . S
C943 C944 1.523 . S
C944 C925 1.368 . S
C944 C938 1.368 . S
C944 C943 1.523 . S
C945 C929 1.429 1_545 S
C945 C941 1.429 . S
C945 C946 1.523 . S
C946 C930 1.368 . S
C946 C942 1.368 . S
C946 C945 1.523 . S
H947 C922 0.950 . S
H948 C924 0.950 . S
H949 C925 0.949 . S
H950 C927 0.950 . S
H951 C929 0.950 . S
C952 C953 1.349 . S
C952 C954 1.327 . S
C952 H977 0.950 . S
C953 C952 1.349 . S
C953 C969 1.349 . S
C954 C952 1.327 . S
C954 C973 1.429 . S
C954 H978 0.950 . S
C955 C972 1.574 . S
C955 C974 1.368 . S
C955 H979 0.949 . S
H956 C960 0.949 . S
C957 C958 1.349 . S
C957 C959 1.327 . S
C957 H980 0.950 . S
C958 C957 1.349 . S
C958 C970 1.349 . S
C959 C957 1.327 . S
C959 C975 1.429 . S
C959 H981 0.950 . S
C960 H956 0.949 . S
C960 C968 1.574 . S
C960 C976 1.368 . S
H961 C969 0.950 . S
H962 C967 0.950 . S
H963 C968 0.949 . S
H964 C970 0.950 . S
H965 C971 0.950 . S
H966 C972 0.949 . S
C967 H962 0.950 . S
C967 C969 1.327 . S
C967 C973 1.429 . S
C968 C960 1.574 . S
C968 H963 0.949 . S
C968 C974 1.368 . S
C969 C953 1.349 . S
C969 H961 0.950 . S
C969 C967 1.327 . S
C970 C958 1.349 . S
C970 H964 0.950 . S
C970 C971 1.327 . S
C971 H965 0.950 . S
C971 C970 1.327 . S
C971 C975 1.429 . S
C972 C955 1.574 . S
C972 H966 0.949 . S
C972 C976 1.368 . S
C973 C954 1.429 . S
C973 C967 1.429 . S
C973 C974 1.523 . S
C974 C955 1.368 . S
C974 C968 1.368 . S
C974 C973 1.523 . S
C975 C959 1.429 . S
C975 C971 1.429 . S
C975 C976 1.523 . S
C976 C960 1.368 . S
C976 C972 1.368 . S
C976 C975 1.523 . S
H977 C952 0.950 . S
H978 C954 0.950 . S
H979 C955 0.949 . S
H980 C957 0.950 . S
H981 C959 0.950 . S
C982 C983 1.349 . S
C982 C984 1.327 . S
C982 H1007 0.950 . S
C983 C982 1.349 . S
C983 C999 1.349 . S
C984 C982 1.327 . S
C984 C1003 1.429 1_565 S
C984 H1008 0.950 . S
C985 C1002 1.574 . S
C985 C1004 1.368 . S
C985 H1009 0.949 . S
H986 C990 0.949 . S
C987 C988 1.349 . S
C987 C989 1.327 . S
C987 H1010 0.950 . S
C988 C987 1.349 . S
C988 C1000 1.349 . S
C989 C987 1.327 . S
C989 C1005 1.429 . S
C989 H1011 0.950 . S
C990 H986 0.949 . S
C990 C998 1.574 . S
C990 C1006 1.368 . S
H991 C999 0.950 . S
H992 C997 0.950 . S
H993 C998 0.949 . S
H994 C1000 0.950 . S
H995 C1001 0.950 . S
H996 C1002 0.949 . S
C997 H992 0.950 . S
C997 C999 1.327 1_545 S
C997 C1003 1.429 . S
C998 C990 1.574 . S
C998 H993 0.949 . S
C998 C1004 1.368 . S
C999 C983 1.349 . S
C999 H991 0.950 . S
C999 C997 1.327 1_565 S
C1000 C988 1.349 . S
C1000 H994 0.950 . S
C1000 C1001 1.327 . S
C1001 H995 0.950 . S
C1001 C1000 1.327 . S
C1001 C1005 1.429 . S
C1002 C985 1.574 . S
C1002 H996 0.949 . S
C1002 C1006 1.368 . S
C1003 C984 1.429 1_545 S
C1003 C997 1.429 . S
C1003 C1004 1.523 . S
C1004 C985 1.368 . S
C1004 C998 1.368 . S
C1004 C1003 1.523 . S
C1005 C989 1.429 . S
C1005 C1001 1.429 . S
C1005 C1006 1.523 . S
C1006 C990 1.368 . S
C1006 C1002 1.368 . S
C1006 C1005 1.523 . S
H1007 C982 0.950 . S
H1008 C984 0.950 . S
H1009 C985 0.949 . S
H1010 C987 0.950 . S
H1011 C989 0.950 . S
C1012 C1013 1.349 . S
C1012 C1014 1.327 . S
C1012 H1037 0.950 . S
C1013 C1012 1.349 . S
C1013 C1029 1.349 . S
C1014 C1012 1.327 . S
C1014 C1033 1.429 . S
C1014 H1038 0.950 . S
C1015 C1032 1.574 1_554 S
C1015 C1034 1.368 . S
C1015 H1039 0.949 . S
H1016 C1020 0.949 . S
C1017 C1018 1.349 . S
C1017 C1019 1.327 . S
C1017 H1040 0.950 . S
C1018 C1017 1.349 . S
C1018 C1030 1.349 . S
C1019 C1017 1.327 . S
C1019 C1035 1.429 . S
C1019 H1041 0.950 . S
C1020 H1016 0.949 . S
C1020 C1028 1.574 . S
C1020 C1036 1.368 1_554 S
H1021 C1029 0.950 . S
H1022 C1027 0.950 . S
H1023 C1028 0.949 . S
H1024 C1030 0.950 . S
H1025 C1031 0.950 . S
H1026 C1032 0.949 . S
C1027 H1022 0.950 . S
C1027 C1029 1.327 . S
C1027 C1033 1.429 . S
C1028 C1020 1.574 . S
C1028 H1023 0.949 . S
C1028 C1034 1.368 . S
C1029 C1013 1.349 . S
C1029 H1021 0.950 . S
C1029 C1027 1.327 . S
C1030 C1018 1.349 . S
C1030 H1024 0.950 . S
C1030 C1031 1.327 . S
C1031 H1025 0.950 . S
C1031 C1030 1.327 . S
C1031 C1035 1.429 . S
C1032 C1015 1.574 1_556 S
C1032 H1026 0.949 . S
C1032 C1036 1.368 . S
C1033 C1014 1.429 . S
C1033 C1027 1.429 . S
C1033 C1034 1.523 . S
C1034 C1015 1.368 . S
C1034 C1028 1.368 . S
C1034 C1033 1.523 . S
C1035 C1019 1.429 . S
C1035 C1031 1.429 . S
C1035 C1036 1.523 . S
C1036 C1020 1.368 1_556 S
C1036 C1032 1.368 . S
C1036 C1035 1.523 . S
H1037 C1012 0.950 . S
H1038 C1014 0.950 . S
H1039 C1015 0.949 . S
H1040 C1017 0.950 . S
H1041 C1019 0.950 . S
C1042 C1043 1.349 . S
C1042 C1044 1.327 . S
C1042 H1067 0.950 . S
C1043 C1042 1.349 . S
C1043 C1059 1.349 . S
C1044 C1042 1.327 . S
C1044 C1063 1.429 1_545 S
C1044 H1068 0.950 1_545 S
C1045 C1062 1.574 . S
C1045 C1064 1.368 . S
C1045 H1069 0.949 . S
H1046 C1050 0.949 . S
C1047 C1048 1.349 . S
C1047 C1049 1.327 . S
C1047 H1070 0.950 . S
C1048 C1047 1.349 . S
C1048 C1060 1.349 . S
C1049 C1047 1.327 . S
C1049 C1065 1.429 . S
C1049 H1071 0.950 . S
C1050 H1046 0.949 . S
C1050 C1058 1.574 . S
C1050 C1066 1.368 . S
H1051 C1059 0.950 . S
H1052 C1057 0.950 1_565 S
H1053 C1058 0.949 . S
H1054 C1060 0.950 . S
H1055 C1061 0.950 . S
H1056 C1062 0.949 . S
C1057 H1052 0.950 1_545 S
C1057 C1059 1.327 . S
C1057 C1063 1.429 1_545 S
C1058 C1050 1.574 . S
C1058 H1053 0.949 . S
C1058 C1064 1.368 . S
C1059 C1043 1.349 . S
C1059 H1051 0.950 . S
C1059 C1057 1.327 . S
C1060 C1048 1.349 . S
C1060 H1054 0.950 . S
C1060 C1061 1.327 . S
C1061 H1055 0.950 . S
C1061 C1060 1.327 . S
C1061 C1065 1.429 . S
C1062 C1045 1.574 . S
C1062 H1056 0.949 . S
C1062 C1066 1.368 . S
C1063 C1044 1.429 1_565 S
C1063 C1057 1.429 1_565 S
C1063 C1064 1.523 . S
C1064 C1045 1.368 . S
C1064 C1058 1.368 . S
C1064 C1063 1.523 . S
C1065 C1049 1.429 . S
C1065 C1061 1.429 . S
C1065 C1066 1.523 . S
C1066 C1050 1.368 . S
C1066 C1062 1.368 . S
C1066 C1065 1.523 . S
H1067 C1042 0.950 . S
H1068 C1044 0.950 1_565 S
H1069 C1045 0.949 . S
H1070 C1047 0.950 . S
H1071 C1049 0.950 . S
C1072 C1073 1.349 . S
C1072 C1074 1.327 . S
C1072 H1097 0.950 . S
C1073 C1072 1.349 . S
C1073 C1089 1.349 . S
C1074 C1072 1.327 . S
C1074 C1093 1.429 . S
C1074 H1098 0.950 . S
C1075 C1092 1.574 . S
C1075 C1094 1.368 . S
C1075 H1099 0.949 . S
H1076 C1080 0.949 . S
C1077 C1078 1.349 . S
C1077 C1079 1.327 . S
C1077 H1100 0.950 . S
C1078 C1077 1.349 . S
C1078 C1090 1.349 . S
C1079 C1077 1.327 . S
C1079 C1095 1.429 . S
C1079 H1101 0.950 . S
C1080 H1076 0.949 . S
C1080 C1088 1.574 . S
C1080 C1096 1.368 . S
H1081 C1089 0.950 . S
H1082 C1087 0.950 . S
H1083 C1088 0.949 . S
H1084 C1090 0.950 . S
H1085 C1091 0.950 . S
H1086 C1092 0.949 . S
C1087 H1082 0.950 . S
C1087 C1089 1.327 . S
C1087 C1093 1.429 . S
C1088 C1080 1.574 . S
C1088 H1083 0.949 . S
C1088 C1094 1.368 . S
C1089 C1073 1.349 . S
C1089 H1081 0.950 . S
C1089 C1087 1.327 . S
C1090 C1078 1.349 . S
C1090 H1084 0.950 . S
C1090 C1091 1.327 . S
C1091 H1085 0.950 . S
C1091 C1090 1.327 . S
C1091 C1095 1.429 . S
C1092 C1075 1.574 . S
C1092 H1086 0.949 . S
C1092 C1096 1.368 . S
C1093 C1074 1.429 . S
C1093 C1087 1.429 . S
C1093 C1094 1.523 . S
C1094 C1075 1.368 . S
C1094 C1088 1.368 . S
C1094 C1093 1.523 . S
C1095 C1079 1.429 . S
C1095 C1091 1.429 . S
C1095 C1096 1.523 . S
C1096 C1080 1.368 . S
C1096 C1092 1.368 . S
C1096 C1095 1.523 . S
H1097 C1072 0.950 . S
H1098 C1074 0.950 . S
H1099 C1075 0.949 . S
H1100 C1077 0.950 . S
H1101 C1079 0.950 . S
C1102 C1103 1.349 . S
C1102 C1104 1.327 . S
C1102 H1127 0.950 . S
C1103 C1102 1.349 . S
C1103 C1119 1.349 . S
C1104 C1102 1.327 . S
C1104 C1123 1.429 . S
C1104 H1128 0.950 . S
C1105 C1122 1.574 . S
C1105 C1124 1.368 . S
C1105 H1129 0.949 . S
H1106 C1110 0.949 . S
C1107 C1108 1.349 . S
C1107 C1109 1.327 . S
C1107 H1130 0.950 . S
C1108 C1107 1.349 . S
C1108 C1120 1.349 . S
C1109 C1107 1.327 . S
C1109 C1125 1.429 . S
C1109 H1131 0.950 . S
C1110 H1106 0.949 . S
C1110 C1118 1.574 . S
C1110 C1126 1.368 . S
H1111 C1119 0.950 . S
H1112 C1117 0.950 . S
H1113 C1118 0.949 . S
H1114 C1120 0.950 . S
H1115 C1121 0.950 . S
H1116 C1122 0.949 . S
C1117 H1112 0.950 . S
C1117 C1119 1.327 . S
C1117 C1123 1.429 . S
C1118 C1110 1.574 . S
C1118 H1113 0.949 . S
C1118 C1124 1.368 . S
C1119 C1103 1.349 . S
C1119 H1111 0.950 . S
C1119 C1117 1.327 . S
C1120 C1108 1.349 . S
C1120 H1114 0.950 . S
C1120 C1121 1.327 . S
C1121 H1115 0.950 . S
C1121 C1120 1.327 . S
C1121 C1125 1.429 . S
C1122 C1105 1.574 . S
C1122 H1116 0.949 . S
C1122 C1126 1.368 . S
C1123 C1104 1.429 . S
C1123 C1117 1.429 . S
C1123 C1124 1.523 . S
C1124 C1105 1.368 . S
C1124 C1118 1.368 . S
C1124 C1123 1.523 . S
C1125 C1109 1.429 . S
C1125 C1121 1.429 . S
C1125 C1126 1.523 . S
C1126 C1110 1.368 . S
C1126 C1122 1.368 . S
C1126 C1125 1.523 . S
H1127 C1102 0.950 . S
H1128 C1104 0.950 . S
H1129 C1105 0.949 . S
H1130 C1107 0.950 . S
H1131 C1109 0.950 . S
C1132 C1133 1.349 . S
C1132 C1134 1.327 . S
C1132 H1157 0.950 . S
C1133 C1132 1.349 . S
C1133 C1149 1.349 . S
C1134 C1132 1.327 . S
C1134 C1153 1.429 . S
C1134 H1158 0.950 . S
C1135 C1152 1.574 1_655 S
C1135 C1154 1.368 . S
C1135 H1159 0.949 . S
H1136 C1140 0.949 . S
C1137 C1138 1.349 . S
C1137 C1139 1.327 . S
C1137 H1160 0.950 . S
C1138 C1137 1.349 . S
C1138 C1150 1.349 . S
C1139 C1137 1.327 . S
C1139 C1155 1.429 . S
C1139 H1161 0.950 . S
C1140 H1136 0.949 . S
C1140 C1148 1.574 1_455 S
C1140 C1156 1.368 . S
H1141 C1149 0.950 . S
H1142 C1147 0.950 . S
H1143 C1148 0.949 . S
H1144 C1150 0.950 . S
H1145 C1151 0.950 . S
H1146 C1152 0.949 . S
C1147 H1142 0.950 . S
C1147 C1149 1.327 . S
C1147 C1153 1.429 . S
C1148 C1140 1.574 1_655 S
C1148 H1143 0.949 . S
C1148 C1154 1.368 . S
C1149 C1133 1.349 . S
C1149 H1141 0.950 . S
C1149 C1147 1.327 . S
C1150 C1138 1.349 . S
C1150 H1144 0.950 . S
C1150 C1151 1.327 . S
C1151 H1145 0.950 . S
C1151 C1150 1.327 . S
C1151 C1155 1.429 . S
C1152 C1135 1.574 1_455 S
C1152 H1146 0.949 . S
C1152 C1156 1.368 . S
C1153 C1134 1.429 . S
C1153 C1147 1.429 . S
C1153 C1154 1.523 . S
C1154 C1135 1.368 . S
C1154 C1148 1.368 . S
C1154 C1153 1.523 . S
C1155 C1139 1.429 . S
C1155 C1151 1.429 . S
C1155 C1156 1.523 . S
C1156 C1140 1.368 . S
C1156 C1152 1.368 . S
C1156 C1155 1.523 . S
H1157 C1132 0.950 . S
H1158 C1134 0.950 . S
H1159 C1135 0.949 . S
H1160 C1137 0.950 . S
H1161 C1139 0.950 . S
C1162 C1163 1.349 . S
C1162 C1164 1.327 . S
C1162 H1187 0.950 . S
C1163 C1162 1.349 . S
C1163 C1179 1.349 . S
C1164 C1162 1.327 . S
C1164 C1183 1.429 . S
C1164 H1188 0.950 . S
C1165 C1182 1.574 . S
C1165 C1184 1.368 1_455 S
C1165 H1189 0.949 . S
H1166 C1170 0.949 . S
C1167 C1168 1.349 . S
C1167 C1169 1.327 . S
C1167 H1190 0.950 . S
C1168 C1167 1.349 . S
C1168 C1180 1.349 . S
C1169 C1167 1.327 . S
C1169 C1185 1.429 . S
C1169 H1191 0.950 . S
C1170 H1166 0.949 . S
C1170 C1178 1.574 . S
C1170 C1186 1.368 1_655 S
H1171 C1179 0.950 . S
H1172 C1177 0.950 . S
H1173 C1178 0.949 . S
H1174 C1180 0.950 . S
H1175 C1181 0.950 . S
H1176 C1182 0.949 . S
C1177 H1172 0.950 . S
C1177 C1179 1.327 . S
C1177 C1183 1.429 . S
C1178 C1170 1.574 . S
C1178 H1173 0.949 . S
C1178 C1184 1.368 . S
C1179 C1163 1.349 . S
C1179 H1171 0.950 . S
C1179 C1177 1.327 . S
C1180 C1168 1.349 . S
C1180 H1174 0.950 . S
C1180 C1181 1.327 . S
C1181 H1175 0.950 . S
C1181 C1180 1.327 . S
C1181 C1185 1.429 . S
C1182 C1165 1.574 . S
C1182 H1176 0.949 . S
C1182 C1186 1.368 . S
C1183 C1164 1.429 . S
C1183 C1177 1.429 . S
C1183 C1184 1.523 . S
C1184 C1165 1.368 1_655 S
C1184 C1178 1.368 . S
C1184 C1183 1.523 . S
C1185 C1169 1.429 . S
C1185 C1181 1.429 . S
C1185 C1186 1.523 . S
C1186 C1170 1.368 1_455 S
C1186 C1182 1.368 . S
C1186 C1185 1.523 . S
H1187 C1162 0.950 . S
H1188 C1164 0.950 . S
H1189 C1165 0.949 . S
H1190 C1167 0.950 . S
H1191 C1169 0.950 . S
C1192 C1193 1.349 . S
C1192 C1194 1.327 . S
C1192 H1217 0.950 . S
C1193 C1192 1.349 . S
C1193 C1209 1.349 . S
C1194 C1192 1.327 . S
C1194 C1213 1.429 . S
C1194 H1218 0.950 . S
C1195 C1212 1.574 . S
C1195 C1214 1.368 . S
C1195 H1219 0.949 . S
H1196 C1200 0.949 . S
C1197 C1198 1.349 . S
C1197 C1199 1.327 . S
C1197 H1220 0.950 . S
C1198 C1197 1.349 . S
C1198 C1210 1.349 . S
C1199 C1197 1.327 . S
C1199 C1215 1.429 . S
C1199 H1221 0.950 . S
C1200 H1196 0.949 . S
C1200 C1208 1.574 . S
C1200 C1216 1.368 . S
H1201 C1209 0.950 . S
H1202 C1207 0.950 . S
H1203 C1208 0.949 . S
H1204 C1210 0.950 . S
H1205 C1211 0.950 . S
H1206 C1212 0.949 . S
C1207 H1202 0.950 . S
C1207 C1209 1.327 . S
C1207 C1213 1.429 . S
C1208 C1200 1.574 . S
C1208 H1203 0.949 . S
C1208 C1214 1.368 . S
C1209 C1193 1.349 . S
C1209 H1201 0.950 . S
C1209 C1207 1.327 . S
C1210 C1198 1.349 . S
C1210 H1204 0.950 . S
C1210 C1211 1.327 . S
C1211 H1205 0.950 . S
C1211 C1210 1.327 . S
C1211 C1215 1.429 . S
C1212 C1195 1.574 . S
C1212 H1206 0.949 . S
C1212 C1216 1.368 . S
C1213 C1194 1.429 . S
C1213 C1207 1.429 . S
C1213 C1214 1.523 . S
C1214 C1195 1.368 . S
C1214 C1208 1.368 . S
C1214 C1213 1.523 . S
C1215 C1199 1.429 . S
C1215 C1211 1.429 . S
C1215 C1216 1.523 . S
C1216 C1200 1.368 . S
C1216 C1212 1.368 . S
C1216 C1215 1.523 . S
H1217 C1192 0.950 . S
H1218 C1194 0.950 . S
H1219 C1195 0.949 . S
H1220 C1197 0.950 . S
H1221 C1199 0.950 . S
C1222 C1223 1.349 . S
C1222 C1224 1.327 . S
C1222 H1247 0.950 . S
C1223 C1222 1.349 . S
C1223 C1239 1.349 . S
C1224 C1222 1.327 . S
C1224 C1243 1.429 . S
C1224 H1248 0.950 . S
C1225 C1242 1.574 . S
C1225 C1244 1.368 . S
C1225 H1249 0.949 . S
H1226 C1230 0.949 . S
C1227 C1228 1.349 . S
C1227 C1229 1.327 . S
C1227 H1250 0.950 . S
C1228 C1227 1.349 . S
C1228 C1240 1.349 . S
C1229 C1227 1.327 . S
C1229 C1245 1.429 . S
C1229 H1251 0.950 . S
C1230 H1226 0.949 . S
C1230 C1238 1.574 . S
C1230 C1246 1.368 . S
H1231 C1239 0.950 . S
H1232 C1237 0.950 . S
H1233 C1238 0.949 . S
H1234 C1240 0.950 . S
H1235 C1241 0.950 . S
H1236 C1242 0.949 . S
C1237 H1232 0.950 . S
C1237 C1239 1.327 . S
C1237 C1243 1.429 . S
C1238 C1230 1.574 . S
C1238 H1233 0.949 . S
C1238 C1244 1.368 . S
C1239 C1223 1.349 . S
C1239 H1231 0.950 . S
C1239 C1237 1.327 . S
C1240 C1228 1.349 . S
C1240 H1234 0.950 . S
C1240 C1241 1.327 . S
C1241 H1235 0.950 . S
C1241 C1240 1.327 . S
C1241 C1245 1.429 . S
C1242 C1225 1.574 . S
C1242 H1236 0.949 . S
C1242 C1246 1.368 . S
C1243 C1224 1.429 . S
C1243 C1237 1.429 . S
C1243 C1244 1.523 . S
C1244 C1225 1.368 . S
C1244 C1238 1.368 . S
C1244 C1243 1.523 . S
C1245 C1229 1.429 . S
C1245 C1241 1.429 . S
C1245 C1246 1.523 . S
C1246 C1230 1.368 . S
C1246 C1242 1.368 . S
C1246 C1245 1.523 . S
H1247 C1222 0.950 . S
H1248 C1224 0.950 . S
H1249 C1225 0.949 . S
H1250 C1227 0.950 . S
H1251 C1229 0.950 . S
C1252 C1253 1.349 . S
C1252 C1254 1.327 . S
C1252 H1277 0.950 . S
C1253 C1252 1.349 . S
C1253 C1269 1.349 . S
C1254 C1252 1.327 . S
C1254 C1273 1.429 . S
C1254 H1278 0.950 . S
C1255 C1272 1.574 1_455 S
C1255 C1274 1.368 . S
C1255 H1279 0.949 . S
H1256 C1260 0.949 . S
C1257 C1258 1.349 . S
C1257 C1259 1.327 . S
C1257 H1280 0.950 . S
C1258 C1257 1.349 . S
C1258 C1270 1.349 . S
C1259 C1257 1.327 . S
C1259 C1275 1.429 . S
C1259 H1281 0.950 . S
C1260 H1256 0.949 . S
C1260 C1268 1.574 1_655 S
C1260 C1276 1.368 . S
H1261 C1269 0.950 . S
H1262 C1267 0.950 . S
H1263 C1268 0.949 . S
H1264 C1270 0.950 . S
H1265 C1271 0.950 . S
H1266 C1272 0.949 . S
C1267 H1262 0.950 . S
C1267 C1269 1.327 . S
C1267 C1273 1.429 . S
C1268 C1260 1.574 1_455 S
C1268 H1263 0.949 . S
C1268 C1274 1.368 . S
C1269 C1253 1.349 . S
C1269 H1261 0.950 . S
C1269 C1267 1.327 . S
C1270 C1258 1.349 . S
C1270 H1264 0.950 . S
C1270 C1271 1.327 . S
C1271 H1265 0.950 . S
C1271 C1270 1.327 . S
C1271 C1275 1.429 . S
C1272 C1255 1.574 1_655 S
C1272 H1266 0.949 . S
C1272 C1276 1.368 . S
C1273 C1254 1.429 . S
C1273 C1267 1.429 . S
C1273 C1274 1.523 . S
C1274 C1255 1.368 . S
C1274 C1268 1.368 . S
C1274 C1273 1.523 . S
C1275 C1259 1.429 . S
C1275 C1271 1.429 . S
C1275 C1276 1.523 . S
C1276 C1260 1.368 . S
C1276 C1272 1.368 . S
C1276 C1275 1.523 . S
H1277 C1252 0.950 . S
H1278 C1254 0.950 . S
H1279 C1255 0.949 . S
H1280 C1257 0.950 . S
H1281 C1259 0.950 . S
C1282 C1283 1.349 . S
C1282 C1284 1.327 . S
C1282 H1307 0.950 . S
C1283 C1282 1.349 . S
C1283 C1299 1.349 . S
C1284 C1282 1.327 . S
C1284 C1303 1.429 . S
C1284 H1308 0.950 . S
C1285 C1302 1.574 . S
C1285 C1304 1.368 1_655 S
C1285 H1309 0.949 . S
H1286 C1290 0.949 . S
C1287 C1288 1.349 . S
C1287 C1289 1.327 . S
C1287 H1310 0.950 . S
C1288 C1287 1.349 . S
C1288 C1300 1.349 . S
C1289 C1287 1.327 . S
C1289 C1305 1.429 . S
C1289 H1311 0.950 . S
C1290 H1286 0.949 . S
C1290 C1298 1.574 . S
C1290 C1306 1.368 1_455 S
H1291 C1299 0.950 . S
H1292 C1297 0.950 . S
H1293 C1298 0.949 . S
H1294 C1300 0.950 . S
H1295 C1301 0.950 . S
H1296 C1302 0.949 . S
C1297 H1292 0.950 . S
C1297 C1299 1.327 . S
C1297 C1303 1.429 . S
C1298 C1290 1.574 . S
C1298 H1293 0.949 . S
C1298 C1304 1.368 . S
C1299 C1283 1.349 . S
C1299 H1291 0.950 . S
C1299 C1297 1.327 . S
C1300 C1288 1.349 . S
C1300 H1294 0.950 . S
C1300 C1301 1.327 . S
C1301 H1295 0.950 . S
C1301 C1300 1.327 . S
C1301 C1305 1.429 . S
C1302 C1285 1.574 . S
C1302 H1296 0.949 . S
C1302 C1306 1.368 . S
C1303 C1284 1.429 . S
C1303 C1297 1.429 . S
C1303 C1304 1.523 . S
C1304 C1285 1.368 1_455 S
C1304 C1298 1.368 . S
C1304 C1303 1.523 . S
C1305 C1289 1.429 . S
C1305 C1301 1.429 . S
C1305 C1306 1.523 . S
C1306 C1290 1.368 1_655 S
C1306 C1302 1.368 . S
C1306 C1305 1.523 . S
H1307 C1282 0.950 . S
H1308 C1284 0.950 . S
H1309 C1285 0.949 . S
H1310 C1287 0.950 . S
H1311 C1289 0.950 . S
C1312 C1313 1.349 . S
C1312 C1314 1.327 . S
C1312 H1337 0.950 . S
C1313 C1312 1.349 . S
C1313 C1329 1.349 . S
C1314 C1312 1.327 . S
C1314 C1333 1.429 . S
C1314 H1338 0.950 . S
C1315 C1332 1.574 . S
C1315 C1334 1.368 . S
C1315 H1339 0.949 . S
H1316 C1320 0.949 . S
C1317 C1318 1.349 . S
C1317 C1319 1.327 . S
C1317 H1340 0.950 . S
C1318 C1317 1.349 . S
C1318 C1330 1.349 . S
C1319 C1317 1.327 . S
C1319 C1335 1.429 . S
C1319 H1341 0.950 . S
C1320 H1316 0.949 . S
C1320 C1328 1.574 . S
C1320 C1336 1.368 . S
H1321 C1329 0.950 . S
H1322 C1327 0.950 . S
H1323 C1328 0.949 . S
H1324 C1330 0.950 . S
H1325 C1331 0.950 . S
H1326 C1332 0.949 . S
C1327 H1322 0.950 . S
C1327 C1329 1.327 . S
C1327 C1333 1.429 . S
C1328 C1320 1.574 . S
C1328 H1323 0.949 . S
C1328 C1334 1.368 . S
C1329 C1313 1.349 . S
C1329 H1321 0.950 . S
C1329 C1327 1.327 . S
C1330 C1318 1.349 . S
C1330 H1324 0.950 . S
C1330 C1331 1.327 . S
C1331 H1325 0.950 . S
C1331 C1330 1.327 . S
C1331 C1335 1.429 . S
C1332 C1315 1.574 . S
C1332 H1326 0.949 . S
C1332 C1336 1.368 . S
C1333 C1314 1.429 . S
C1333 C1327 1.429 . S
C1333 C1334 1.523 . S
C1334 C1315 1.368 . S
C1334 C1328 1.368 . S
C1334 C1333 1.523 . S
C1335 C1319 1.429 . S
C1335 C1331 1.429 . S
C1335 C1336 1.523 . S
C1336 C1320 1.368 . S
C1336 C1332 1.368 . S
C1336 C1335 1.523 . S
H1337 C1312 0.950 . S
H1338 C1314 0.950 . S
H1339 C1315 0.949 . S
H1340 C1317 0.950 . S
H1341 C1319 0.950 . S
C1342 C1343 1.349 . S
C1342 C1344 1.327 . S
C1342 H1367 0.950 . S
C1343 C1342 1.349 . S
C1343 C1359 1.349 . S
C1344 C1342 1.327 . S
C1344 C1363 1.429 . S
C1344 H1368 0.950 . S
C1345 C1362 1.574 . S
C1345 C1364 1.368 . S
C1345 H1369 0.949 . S
H1346 C1350 0.949 . S
C1347 C1348 1.349 . S
C1347 C1349 1.327 . S
C1347 H1370 0.950 . S
C1348 C1347 1.349 . S
C1348 C1360 1.349 . S
C1349 C1347 1.327 . S
C1349 C1365 1.429 . S
C1349 H1371 0.950 . S
C1350 H1346 0.949 . S
C1350 C1358 1.574 . S
C1350 C1366 1.368 . S
H1351 C1359 0.950 . S
H1352 C1357 0.950 . S
H1353 C1358 0.949 . S
H1354 C1360 0.950 . S
H1355 C1361 0.950 . S
H1356 C1362 0.949 . S
C1357 H1352 0.950 . S
C1357 C1359 1.327 . S
C1357 C1363 1.429 . S
C1358 C1350 1.574 . S
C1358 H1353 0.949 . S
C1358 C1364 1.368 . S
C1359 C1343 1.349 . S
C1359 H1351 0.950 . S
C1359 C1357 1.327 . S
C1360 C1348 1.349 . S
C1360 H1354 0.950 . S
C1360 C1361 1.327 . S
C1361 H1355 0.950 . S
C1361 C1360 1.327 . S
C1361 C1365 1.429 . S
C1362 C1345 1.574 . S
C1362 H1356 0.949 . S
C1362 C1366 1.368 . S
C1363 C1344 1.429 . S
C1363 C1357 1.429 . S
C1363 C1364 1.523 . S
C1364 C1345 1.368 . S
C1364 C1358 1.368 . S
C1364 C1363 1.523 . S
C1365 C1349 1.429 . S
C1365 C1361 1.429 . S
C1365 C1366 1.523 . S
C1366 C1350 1.368 . S
C1366 C1362 1.368 . S
C1366 C1365 1.523 . S
H1367 C1342 0.950 . S
H1368 C1344 0.950 . S
H1369 C1345 0.949 . S
H1370 C1347 0.950 . S
H1371 C1349 0.950 . S
C1372 C1373 1.349 . S
C1372 C1374 1.327 . S
C1372 H1397 0.950 . S
C1373 C1372 1.349 . S
C1373 C1389 1.349 . S
C1374 C1372 1.327 . S
C1374 C1393 1.429 . S
C1374 H1398 0.950 . S
C1375 C1392 1.574 . S
C1375 C1394 1.368 . S
C1375 H1399 0.949 . S
H1376 C1380 0.949 . S
C1377 C1378 1.349 . S
C1377 C1379 1.327 . S
C1377 H1400 0.950 . S
C1378 C1377 1.349 . S
C1378 C1390 1.349 . S
C1379 C1377 1.327 . S
C1379 C1395 1.429 . S
C1379 H1401 0.950 . S
C1380 H1376 0.949 . S
C1380 C1388 1.574 . S
C1380 C1396 1.368 . S
H1381 C1389 0.950 . S
H1382 C1387 0.950 . S
H1383 C1388 0.949 . S
H1384 C1390 0.950 . S
H1385 C1391 0.950 . S
H1386 C1392 0.949 . S
C1387 H1382 0.950 . S
C1387 C1389 1.327 . S
C1387 C1393 1.429 . S
C1388 C1380 1.574 . S
C1388 H1383 0.949 . S
C1388 C1394 1.368 . S
C1389 C1373 1.349 . S
C1389 H1381 0.950 . S
C1389 C1387 1.327 . S
C1390 C1378 1.349 . S
C1390 H1384 0.950 . S
C1390 C1391 1.327 . S
C1391 H1385 0.950 . S
C1391 C1390 1.327 . S
C1391 C1395 1.429 . S
C1392 C1375 1.574 . S
C1392 H1386 0.949 . S
C1392 C1396 1.368 . S
C1393 C1374 1.429 . S
C1393 C1387 1.429 . S
C1393 C1394 1.523 . S
C1394 C1375 1.368 . S
C1394 C1388 1.368 . S
C1394 C1393 1.523 . S
C1395 C1379 1.429 . S
C1395 C1391 1.429 . S
C1395 C1396 1.523 . S
C1396 C1380 1.368 . S
C1396 C1392 1.368 . S
C1396 C1395 1.523 . S
H1397 C1372 0.950 . S
H1398 C1374 0.950 . S
H1399 C1375 0.949 . S
H1400 C1377 0.950 . S
H1401 C1379 0.950 . S
C1402 C1403 1.349 . S
C1402 C1404 1.327 . S
C1402 H1427 0.950 . S
C1403 C1402 1.349 . S
C1403 C1419 1.349 . S
C1404 C1402 1.327 . S
C1404 C1423 1.429 . S
C1404 H1428 0.950 . S
C1405 C1422 1.574 . S
C1405 C1424 1.368 . S
C1405 H1429 0.949 . S
H1406 C1410 0.949 . S
C1407 C1408 1.349 . S
C1407 C1409 1.327 . S
C1407 H1430 0.950 . S
C1408 C1407 1.349 . S
C1408 C1420 1.349 . S
C1409 C1407 1.327 . S
C1409 C1425 1.429 . S
C1409 H1431 0.950 . S
C1410 H1406 0.949 . S
C1410 C1418 1.574 . S
C1410 C1426 1.368 . S
H1411 C1419 0.950 . S
H1412 C1417 0.950 . S
H1413 C1418 0.949 . S
H1414 C1420 0.950 . S
H1415 C1421 0.950 . S
H1416 C1422 0.949 . S
C1417 H1412 0.950 . S
C1417 C1419 1.327 . S
C1417 C1423 1.429 . S
C1418 C1410 1.574 . S
C1418 H1413 0.949 . S
C1418 C1424 1.368 . S
C1419 C1403 1.349 . S
C1419 H1411 0.950 . S
C1419 C1417 1.327 . S
C1420 C1408 1.349 . S
C1420 H1414 0.950 . S
C1420 C1421 1.327 . S
C1421 H1415 0.950 . S
C1421 C1420 1.327 . S
C1421 C1425 1.429 . S
C1422 C1405 1.574 . S
C1422 H1416 0.949 . S
C1422 C1426 1.368 . S
C1423 C1404 1.429 . S
C1423 C1417 1.429 . S
C1423 C1424 1.523 . S
C1424 C1405 1.368 . S
C1424 C1418 1.368 . S
C1424 C1423 1.523 . S
C1425 C1409 1.429 . S
C1425 C1421 1.429 . S
C1425 C1426 1.523 . S
C1426 C1410 1.368 . S
C1426 C1422 1.368 . S
C1426 C1425 1.523 . S
H1427 C1402 0.950 . S
H1428 C1404 0.950 . S
H1429 C1405 0.949 . S
H1430 C1407 0.950 . S
H1431 C1409 0.950 . S
C1432 C1433 1.349 . S
C1432 C1434 1.327 . S
C1432 H1457 0.950 . S
C1433 C1432 1.349 . S
C1433 C1449 1.349 . S
C1434 C1432 1.327 . S
C1434 C1453 1.429 . S
C1434 H1458 0.950 . S
C1435 C1452 1.574 . S
C1435 C1454 1.368 . S
C1435 H1459 0.949 . S
H1436 C1440 0.949 . S
C1437 C1438 1.349 . S
C1437 C1439 1.327 . S
C1437 H1460 0.950 . S
C1438 C1437 1.349 . S
C1438 C1450 1.349 . S
C1439 C1437 1.327 . S
C1439 C1455 1.429 . S
C1439 H1461 0.950 . S
C1440 H1436 0.949 . S
C1440 C1448 1.574 . S
C1440 C1456 1.368 . S
H1441 C1449 0.950 . S
H1442 C1447 0.950 . S
H1443 C1448 0.949 . S
H1444 C1450 0.950 . S
H1445 C1451 0.950 . S
H1446 C1452 0.949 . S
C1447 H1442 0.950 . S
C1447 C1449 1.327 . S
C1447 C1453 1.429 . S
C1448 C1440 1.574 . S
C1448 H1443 0.949 . S
C1448 C1454 1.368 . S
C1449 C1433 1.349 . S
C1449 H1441 0.950 . S
C1449 C1447 1.327 . S
C1450 C1438 1.349 . S
C1450 H1444 0.950 . S
C1450 C1451 1.327 . S
C1451 H1445 0.950 . S
C1451 C1450 1.327 . S
C1451 C1455 1.429 . S
C1452 C1435 1.574 . S
C1452 H1446 0.949 . S
C1452 C1456 1.368 . S
C1453 C1434 1.429 . S
C1453 C1447 1.429 . S
C1453 C1454 1.523 . S
C1454 C1435 1.368 . S
C1454 C1448 1.368 . S
C1454 C1453 1.523 . S
C1455 C1439 1.429 . S
C1455 C1451 1.429 . S
C1455 C1456 1.523 . S
C1456 C1440 1.368 . S
C1456 C1452 1.368 . S
C1456 C1455 1.523 . S
H1457 C1432 0.950 . S
H1458 C1434 0.950 . S
H1459 C1435 0.949 . S
H1460 C1437 0.950 . S
H1461 C1439 0.950 . S
C1462 C1463 1.349 . S
C1462 C1464 1.327 . S
C1462 H1487 0.950 . S
C1463 C1462 1.349 . S
C1463 C1479 1.349 . S
C1464 C1462 1.327 . S
C1464 C1483 1.429 . S
C1464 H1488 0.950 . S
C1465 C1482 1.574 . S
C1465 C1484 1.368 . S
C1465 H1489 0.949 . S
H1466 C1470 0.949 . S
C1467 C1468 1.349 . S
C1467 C1469 1.327 . S
C1467 H1490 0.950 . S
C1468 C1467 1.349 . S
C1468 C1480 1.349 . S
C1469 C1467 1.327 . S
C1469 C1485 1.429 . S
C1469 H1491 0.950 . S
C1470 H1466 0.949 . S
C1470 C1478 1.574 . S
C1470 C1486 1.368 . S
H1471 C1479 0.950 . S
H1472 C1477 0.950 . S
H1473 C1478 0.949 . S
H1474 C1480 0.950 . S
H1475 C1481 0.950 . S
H1476 C1482 0.949 . S
C1477 H1472 0.950 . S
C1477 C1479 1.327 . S
C1477 C1483 1.429 . S
C1478 C1470 1.574 . S
C1478 H1473 0.949 . S
C1478 C1484 1.368 . S
C1479 C1463 1.349 . S
C1479 H1471 0.950 . S
C1479 C1477 1.327 . S
C1480 C1468 1.349 . S
C1480 H1474 0.950 . S
C1480 C1481 1.327 . S
C1481 H1475 0.950 . S
C1481 C1480 1.327 . S
C1481 C1485 1.429 . S
C1482 C1465 1.574 . S
C1482 H1476 0.949 . S
C1482 C1486 1.368 . S
C1483 C1464 1.429 . S
C1483 C1477 1.429 . S
C1483 C1484 1.523 . S
C1484 C1465 1.368 . S
C1484 C1478 1.368 . S
C1484 C1483 1.523 . S
C1485 C1469 1.429 . S
C1485 C1481 1.429 . S
C1485 C1486 1.523 . S
C1486 C1470 1.368 . S
C1486 C1482 1.368 . S
C1486 C1485 1.523 . S
H1487 C1462 0.950 . S
H1488 C1464 0.950 . S
H1489 C1465 0.949 . S
H1490 C1467 0.950 . S
H1491 C1469 0.950 . S
C1492 C1493 1.349 . S
C1492 C1494 1.327 . S
C1492 H1517 0.950 . S
C1493 C1492 1.349 . S
C1493 C1509 1.349 . S
C1494 C1492 1.327 . S
C1494 C1513 1.429 . S
C1494 H1518 0.950 . S
C1495 C1512 1.574 . S
C1495 C1514 1.368 . S
C1495 H1519 0.949 . S
H1496 C1500 0.949 . S
C1497 C1498 1.349 . S
C1497 C1499 1.327 . S
C1497 H1520 0.950 . S
C1498 C1497 1.349 . S
C1498 C1510 1.349 . S
C1499 C1497 1.327 . S
C1499 C1515 1.429 . S
C1499 H1521 0.950 . S
C1500 H1496 0.949 . S
C1500 C1508 1.574 . S
C1500 C1516 1.368 . S
H1501 C1509 0.950 . S
H1502 C1507 0.950 . S
H1503 C1508 0.949 . S
H1504 C1510 0.950 . S
H1505 C1511 0.950 . S
H1506 C1512 0.949 . S
C1507 H1502 0.950 . S
C1507 C1509 1.327 . S
C1507 C1513 1.429 . S
C1508 C1500 1.574 . S
C1508 H1503 0.949 . S
C1508 C1514 1.368 . S
C1509 C1493 1.349 . S
C1509 H1501 0.950 . S
C1509 C1507 1.327 . S
C1510 C1498 1.349 . S
C1510 H1504 0.950 . S
C1510 C1511 1.327 . S
C1511 H1505 0.950 . S
C1511 C1510 1.327 . S
C1511 C1515 1.429 . S
C1512 C1495 1.574 . S
C1512 H1506 0.949 . S
C1512 C1516 1.368 . S
C1513 C1494 1.429 . S
C1513 C1507 1.429 . S
C1513 C1514 1.523 . S
C1514 C1495 1.368 . S
C1514 C1508 1.368 . S
C1514 C1513 1.523 . S
C1515 C1499 1.429 . S
C1515 C1511 1.429 . S
C1515 C1516 1.523 . S
C1516 C1500 1.368 . S
C1516 C1512 1.368 . S
C1516 C1515 1.523 . S
H1517 C1492 0.950 . S
H1518 C1494 0.950 . S
H1519 C1495 0.949 . S
H1520 C1497 0.950 . S
H1521 C1499 0.950 . S
C1522 C1523 1.349 . S
C1522 C1524 1.327 . S
C1522 H1547 0.950 . S
C1523 C1522 1.349 . S
C1523 C1539 1.349 . S
C1524 C1522 1.327 . S
C1524 C1543 1.429 . S
C1524 H1548 0.950 . S
C1525 C1542 1.574 . S
C1525 C1544 1.368 . S
C1525 H1549 0.949 . S
H1526 C1530 0.949 . S
C1527 C1528 1.349 . S
C1527 C1529 1.327 . S
C1527 H1550 0.950 . S
C1528 C1527 1.349 . S
C1528 C1540 1.349 . S
C1529 C1527 1.327 . S
C1529 C1545 1.429 . S
C1529 H1551 0.950 . S
C1530 H1526 0.949 . S
C1530 C1538 1.574 . S
C1530 C1546 1.368 . S
H1531 C1539 0.950 . S
H1532 C1537 0.950 . S
H1533 C1538 0.949 . S
H1534 C1540 0.950 . S
H1535 C1541 0.950 . S
H1536 C1542 0.949 . S
C1537 H1532 0.950 . S
C1537 C1539 1.327 . S
C1537 C1543 1.429 . S
C1538 C1530 1.574 . S
C1538 H1533 0.949 . S
C1538 C1544 1.368 . S
C1539 C1523 1.349 . S
C1539 H1531 0.950 . S
C1539 C1537 1.327 . S
C1540 C1528 1.349 . S
C1540 H1534 0.950 . S
C1540 C1541 1.327 . S
C1541 H1535 0.950 . S
C1541 C1540 1.327 . S
C1541 C1545 1.429 . S
C1542 C1525 1.574 . S
C1542 H1536 0.949 . S
C1542 C1546 1.368 . S
C1543 C1524 1.429 . S
C1543 C1537 1.429 . S
C1543 C1544 1.523 . S
C1544 C1525 1.368 . S
C1544 C1538 1.368 . S
C1544 C1543 1.523 . S
C1545 C1529 1.429 . S
C1545 C1541 1.429 . S
C1545 C1546 1.523 . S
C1546 C1530 1.368 . S
C1546 C1542 1.368 . S
C1546 C1545 1.523 . S
H1547 C1522 0.950 . S
H1548 C1524 0.950 . S
H1549 C1525 0.949 . S
H1550 C1527 0.950 . S
H1551 C1529 0.950 . S
C1552 C1553 1.349 . S
C1552 C1554 1.327 . S
C1552 H1577 0.950 . S
C1553 C1552 1.349 . S
C1553 C1569 1.349 . S
C1554 C1552 1.327 . S
C1554 C1573 1.429 . S
C1554 H1578 0.950 . S
C1555 C1572 1.574 . S
C1555 C1574 1.368 . S
C1555 H1579 0.949 . S
H1556 C1560 0.949 . S
C1557 C1558 1.349 . S
C1557 C1559 1.327 . S
C1557 H1580 0.950 . S
C1558 C1557 1.349 . S
C1558 C1570 1.349 . S
C1559 C1557 1.327 . S
C1559 C1575 1.429 . S
C1559 H1581 0.950 . S
C1560 H1556 0.949 . S
C1560 C1568 1.574 . S
C1560 C1576 1.368 . S
H1561 C1569 0.950 . S
H1562 C1567 0.950 . S
H1563 C1568 0.949 . S
H1564 C1570 0.950 1_545 S
H1565 C1571 0.950 . S
H1566 C1572 0.949 . S
C1567 H1562 0.950 . S
C1567 C1569 1.327 . S
C1567 C1573 1.429 . S
C1568 C1560 1.574 . S
C1568 H1563 0.949 . S
C1568 C1574 1.368 . S
C1569 C1553 1.349 . S
C1569 H1561 0.950 . S
C1569 C1567 1.327 . S
C1570 C1558 1.349 . S
C1570 H1564 0.950 1_565 S
C1570 C1571 1.327 . S
C1571 H1565 0.950 . S
C1571 C1570 1.327 . S
C1571 C1575 1.429 . S
C1572 C1555 1.574 . S
C1572 H1566 0.949 . S
C1572 C1576 1.368 . S
C1573 C1554 1.429 . S
C1573 C1567 1.429 . S
C1573 C1574 1.523 . S
C1574 C1555 1.368 . S
C1574 C1568 1.368 . S
C1574 C1573 1.523 . S
C1575 C1559 1.429 . S
C1575 C1571 1.429 . S
C1575 C1576 1.523 . S
C1576 C1560 1.368 . S
C1576 C1572 1.368 . S
C1576 C1575 1.523 . S
H1577 C1552 0.950 . S
H1578 C1554 0.950 . S
H1579 C1555 0.949 . S
H1580 C1557 0.950 . S
H1581 C1559 0.950 . S
C1582 C1583 1.349 . S
C1582 C1584 1.327 . S
C1582 H1607 0.950 . S
C1583 C1582 1.349 . S
C1583 C1599 1.349 . S
C1584 C1582 1.327 . S
C1584 C1603 1.429 . S
C1584 H1608 0.950 . S
C1585 C1602 1.574 . S
C1585 C1604 1.368 . S
C1585 H1609 0.949 . S
H1586 C1590 0.949 . S
C1587 C1588 1.349 . S
C1587 C1589 1.327 . S
C1587 H1610 0.950 . S
C1588 C1587 1.349 . S
C1588 C1600 1.349 . S
C1589 C1587 1.327 . S
C1589 C1605 1.429 . S
C1589 H1611 0.950 . S
C1590 H1586 0.949 . S
C1590 C1598 1.574 . S
C1590 C1606 1.368 . S
H1591 C1599 0.950 . S
H1592 C1597 0.950 . S
H1593 C1598 0.949 . S
H1594 C1600 0.950 . S
H1595 C1601 0.950 1_565 S
H1596 C1602 0.949 1_545 S
C1597 H1592 0.950 . S
C1597 C1599 1.327 . S
C1597 C1603 1.429 . S
C1598 C1590 1.574 . S
C1598 H1593 0.949 . S
C1598 C1604 1.368 . S
C1599 C1583 1.349 . S
C1599 H1591 0.950 . S
C1599 C1597 1.327 . S
C1600 C1588 1.349 . S
C1600 H1594 0.950 . S
C1600 C1601 1.327 . S
C1601 H1595 0.950 1_545 S
C1601 C1600 1.327 . S
C1601 C1605 1.429 . S
C1602 C1585 1.574 . S
C1602 H1596 0.949 1_565 S
C1602 C1606 1.368 . S
C1603 C1584 1.429 . S
C1603 C1597 1.429 . S
C1603 C1604 1.523 . S
C1604 C1585 1.368 . S
C1604 C1598 1.368 . S
C1604 C1603 1.523 . S
C1605 C1589 1.429 . S
C1605 C1601 1.429 . S
C1605 C1606 1.523 1_545 S
C1606 C1590 1.368 . S
C1606 C1602 1.368 . S
C1606 C1605 1.523 1_565 S
H1607 C1582 0.950 . S
H1608 C1584 0.950 . S
H1609 C1585 0.949 . S
H1610 C1587 0.950 . S
H1611 C1589 0.950 . S
C1612 C1613 1.349 . S
C1612 C1614 1.327 . S
C1612 H1637 0.950 . S
C1613 C1612 1.349 . S
C1613 C1629 1.349 . S
C1614 C1612 1.327 . S
C1614 C1633 1.429 . S
C1614 H1638 0.950 . S
C1615 C1632 1.574 . S
C1615 C1634 1.368 . S
C1615 H1639 0.949 . S
H1616 C1620 0.949 . S
C1617 C1618 1.349 . S
C1617 C1619 1.327 . S
C1617 H1640 0.950 . S
C1618 C1617 1.349 . S
C1618 C1630 1.349 . S
C1619 C1617 1.327 . S
C1619 C1635 1.429 . S
C1619 H1641 0.950 . S
C1620 H1616 0.949 . S
C1620 C1628 1.574 . S
C1620 C1636 1.368 . S
H1621 C1629 0.950 1_565 S
H1622 C1627 0.950 . S
H1623 C1628 0.949 . S
H1624 C1630 0.950 . S
H1625 C1631 0.950 . S
H1626 C1632 0.949 . S
C1627 H1622 0.950 . S
C1627 C1629 1.327 . S
C1627 C1633 1.429 . S
C1628 C1620 1.574 . S
C1628 H1623 0.949 . S
C1628 C1634 1.368 . S
C1629 C1613 1.349 . S
C1629 H1621 0.950 1_545 S
C1629 C1627 1.327 . S
C1630 C1618 1.349 . S
C1630 H1624 0.950 . S
C1630 C1631 1.327 . S
C1631 H1625 0.950 . S
C1631 C1630 1.327 . S
C1631 C1635 1.429 . S
C1632 C1615 1.574 . S
C1632 H1626 0.949 . S
C1632 C1636 1.368 . S
C1633 C1614 1.429 . S
C1633 C1627 1.429 . S
C1633 C1634 1.523 . S
C1634 C1615 1.368 . S
C1634 C1628 1.368 . S
C1634 C1633 1.523 . S
C1635 C1619 1.429 . S
C1635 C1631 1.429 . S
C1635 C1636 1.523 . S
C1636 C1620 1.368 . S
C1636 C1632 1.368 . S
C1636 C1635 1.523 . S
H1637 C1612 0.950 . S
H1638 C1614 0.950 . S
H1639 C1615 0.949 . S
H1640 C1617 0.950 . S
H1641 C1619 0.950 . S
C1642 C1643 1.349 . S
C1642 C1644 1.327 . S
C1642 H1667 0.950 . S
C1643 C1642 1.349 . S
C1643 C1659 1.349 . S
C1644 C1642 1.327 . S
C1644 C1663 1.429 . S
C1644 H1668 0.950 1_565 S
C1645 C1662 1.574 . S
C1645 C1664 1.368 . S
C1645 H1669 0.949 1_545 S
H1646 C1650 0.949 . S
C1647 C1648 1.349 . S
C1647 C1649 1.327 . S
C1647 H1670 0.950 . S
C1648 C1647 1.349 . S
C1648 C1660 1.349 . S
C1649 C1647 1.327 . S
C1649 C1665 1.429 . S
C1649 H1671 0.950 . S
C1650 H1646 0.949 . S
C1650 C1658 1.574 . S
C1650 C1666 1.368 . S
H1651 C1659 0.950 . S
H1652 C1657 0.950 . S
H1653 C1658 0.949 . S
H1654 C1660 0.950 . S
H1655 C1661 0.950 . S
H1656 C1662 0.949 . S
C1657 H1652 0.950 . S
C1657 C1659 1.327 . S
C1657 C1663 1.429 . S
C1658 C1650 1.574 . S
C1658 H1653 0.949 . S
C1658 C1664 1.368 . S
C1659 C1643 1.349 . S
C1659 H1651 0.950 . S
C1659 C1657 1.327 . S
C1660 C1648 1.349 . S
C1660 H1654 0.950 . S
C1660 C1661 1.327 . S
C1661 H1655 0.950 . S
C1661 C1660 1.327 . S
C1661 C1665 1.429 . S
C1662 C1645 1.574 . S
C1662 H1656 0.949 . S
C1662 C1666 1.368 . S
C1663 C1644 1.429 . S
C1663 C1657 1.429 . S
C1663 C1664 1.523 1_565 S
C1664 C1645 1.368 . S
C1664 C1658 1.368 . S
C1664 C1663 1.523 1_545 S
C1665 C1649 1.429 . S
C1665 C1661 1.429 . S
C1665 C1666 1.523 . S
C1666 C1650 1.368 . S
C1666 C1662 1.368 . S
C1666 C1665 1.523 . S
H1667 C1642 0.950 . S
H1668 C1644 0.950 1_545 S
H1669 C1645 0.949 1_565 S
H1670 C1647 0.950 . S
H1671 C1649 0.950 . S
C1672 C1673 1.349 . S
C1672 C1674 1.327 . S
C1672 H1697 0.950 . S
C1673 C1672 1.349 . S
C1673 C1689 1.349 . S
C1674 C1672 1.327 . S
C1674 C1693 1.429 . S
C1674 H1698 0.950 . S
C1675 C1692 1.574 . S
C1675 C1694 1.368 . S
C1675 H1699 0.949 . S
H1676 C1680 0.949 . S
C1677 C1678 1.349 . S
C1677 C1679 1.327 . S
C1677 H1700 0.950 . S
C1678 C1677 1.349 . S
C1678 C1690 1.349 . S
C1679 C1677 1.327 . S
C1679 C1695 1.429 . S
C1679 H1701 0.950 . S
C1680 H1676 0.949 . S
C1680 C1688 1.574 . S
C1680 C1696 1.368 . S
H1681 C1689 0.950 . S
H1682 C1687 0.950 . S
H1683 C1688 0.949 . S
H1684 C1690 0.974 . S
H1685 C1691 0.950 . S
H1686 C1692 0.949 . S
C1687 H1682 0.950 . S
C1687 C1689 1.327 . S
C1687 C1693 1.429 . S
C1688 C1680 1.574 . S
C1688 H1683 0.949 . S
C1688 C1694 1.368 . S
C1689 C1673 1.349 . S
C1689 H1681 0.950 . S
C1689 C1687 1.327 . S
C1690 C1678 1.349 . S
C1690 H1684 0.974 . S
C1690 C1691 1.327 . S
C1691 H1685 0.950 . S
C1691 C1690 1.327 . S
C1691 C1695 1.429 . S
C1692 C1675 1.574 . S
C1692 H1686 0.949 . S
C1692 C1696 1.368 . S
C1693 C1674 1.429 . S
C1693 C1687 1.429 . S
C1693 C1694 1.523 . S
C1694 C1675 1.368 . S
C1694 C1688 1.368 . S
C1694 C1693 1.523 . S
C1695 C1679 1.429 . S
C1695 C1691 1.429 . S
C1695 C1696 1.523 . S
C1696 C1680 1.368 . S
C1696 C1692 1.368 . S
C1696 C1695 1.523 . S
H1697 C1672 0.950 . S
H1698 C1674 0.950 . S
H1699 C1675 0.949 . S
H1700 C1677 0.950 . S
H1701 C1679 0.950 . S
C1702 C1703 1.349 . S
C1702 C1704 1.327 . S
C1702 H1727 0.950 . S
C1703 C1702 1.349 . S
C1703 C1719 1.349 . S
C1704 C1702 1.327 . S
C1704 C1723 1.429 . S
C1704 H1728 0.950 1_565 S
C1705 C1722 1.574 . S
C1705 C1724 1.368 . S
C1705 H1729 0.949 1_545 S
H1706 C1710 0.949 . S
C1707 C1708 1.349 . S
C1707 C1709 1.327 . S
C1707 H1730 0.950 . S
C1708 C1707 1.349 . S
C1708 C1720 1.349 . S
C1709 C1707 1.327 . S
C1709 C1725 1.429 . S
C1709 H1731 0.950 . S
C1710 H1706 0.949 . S
C1710 C1718 1.574 . S
C1710 C1726 1.368 . S
H1711 C1719 0.950 . S
H1712 C1717 0.950 . S
H1713 C1718 0.949 . S
H1714 C1720 0.950 . S
H1715 C1721 0.950 . S
H1716 C1722 0.949 . S
C1717 H1712 0.950 . S
C1717 C1719 1.327 . S
C1717 C1723 1.429 . S
C1718 C1710 1.574 . S
C1718 H1713 0.949 . S
C1718 C1724 1.368 . S
C1719 C1703 1.349 . S
C1719 H1711 0.950 . S
C1719 C1717 1.327 . S
C1720 C1708 1.349 . S
C1720 H1714 0.950 . S
C1720 C1721 1.327 . S
C1721 H1715 0.950 . S
C1721 C1720 1.327 . S
C1721 C1725 1.429 . S
C1722 C1705 1.574 . S
C1722 H1716 0.949 . S
C1722 C1726 1.368 . S
C1723 C1704 1.429 . S
C1723 C1717 1.429 . S
C1723 C1724 1.523 1_565 S
C1724 C1705 1.368 . S
C1724 C1718 1.368 . S
C1724 C1723 1.523 1_545 S
C1725 C1709 1.429 . S
C1725 C1721 1.429 . S
C1725 C1726 1.523 . S
C1726 C1710 1.368 . S
C1726 C1722 1.368 . S
C1726 C1725 1.523 . S
H1727 C1702 0.950 . S
H1728 C1704 0.950 1_545 S
H1729 C1705 0.949 1_565 S
H1730 C1707 0.950 . S
H1731 C1709 0.950 . S
C1732 C1733 1.349 . S
C1732 C1734 1.327 . S
C1732 H1757 0.950 . S
C1733 C1732 1.349 . S
C1733 C1749 1.349 . S
C1734 C1732 1.327 . S
C1734 C1753 1.429 . S
C1734 H1758 0.950 . S
C1735 C1752 1.574 . S
C1735 C1754 1.368 . S
C1735 H1759 0.949 . S
H1736 C1740 0.949 . S
C1737 C1738 1.349 . S
C1737 C1739 1.327 . S
C1737 H1760 0.950 . S
C1738 C1737 1.349 . S
C1738 C1750 1.349 . S
C1739 C1737 1.327 . S
C1739 C1755 1.429 . S
C1739 H1761 0.950 . S
C1740 H1736 0.949 . S
C1740 C1748 1.574 . S
C1740 C1756 1.368 . S
H1741 C1749 0.950 1_545 S
H1742 C1747 0.950 . S
H1743 C1748 0.949 . S
H1744 C1750 0.950 . S
H1745 C1751 0.950 . S
H1746 C1752 0.949 . S
C1747 H1742 0.950 . S
C1747 C1749 1.327 . S
C1747 C1753 1.429 . S
C1748 C1740 1.574 . S
C1748 H1743 0.949 . S
C1748 C1754 1.368 . S
C1749 C1733 1.349 . S
C1749 H1741 0.950 1_565 S
C1749 C1747 1.327 . S
C1750 C1738 1.349 . S
C1750 H1744 0.950 . S
C1750 C1751 1.327 . S
C1751 H1745 0.950 . S
C1751 C1750 1.327 . S
C1751 C1755 1.429 . S
C1752 C1735 1.574 . S
C1752 H1746 0.949 . S
C1752 C1756 1.368 . S
C1753 C1734 1.429 . S
C1753 C1747 1.429 . S
C1753 C1754 1.523 . S
C1754 C1735 1.368 . S
C1754 C1748 1.368 . S
C1754 C1753 1.523 . S
C1755 C1739 1.429 . S
C1755 C1751 1.429 . S
C1755 C1756 1.523 . S
C1756 C1740 1.368 . S
C1756 C1752 1.368 . S
C1756 C1755 1.523 . S
H1757 C1732 0.950 . S
H1758 C1734 0.950 . S
H1759 C1735 0.949 . S
H1760 C1737 0.950 . S
H1761 C1739 0.950 . S
C1762 C1763 1.349 . S
C1762 C1764 1.327 . S
C1762 H1787 0.950 . S
C1763 C1762 1.349 . S
C1763 C1779 1.349 . S
C1764 C1762 1.327 . S
C1764 C1783 1.429 . S
C1764 H1788 0.950 . S
C1765 C1782 1.574 . S
C1765 C1784 1.368 . S
C1765 H1789 0.949 . S
H1766 C1770 0.949 1_545 S
C1767 C1768 1.349 . S
C1767 C1769 1.327 . S
C1767 H1790 0.950 . S
C1768 C1767 1.349 . S
C1768 C1780 1.349 . S
C1769 C1767 1.327 . S
C1769 C1785 1.429 . S
C1769 H1791 0.950 1_545 S
C1770 H1766 0.949 1_565 S
C1770 C1778 1.574 . S
C1770 C1786 1.368 . S
H1771 C1779 0.950 . S
H1772 C1777 0.950 . S
H1773 C1778 0.949 . S
H1774 C1780 0.950 . S
H1775 C1781 0.950 . S
H1776 C1782 0.949 . S
C1777 H1772 0.950 . S
C1777 C1779 1.327 . S
C1777 C1783 1.429 . S
C1778 C1770 1.574 . S
C1778 H1773 0.949 . S
C1778 C1784 1.368 . S
C1779 C1763 1.349 . S
C1779 H1771 0.950 . S
C1779 C1777 1.327 . S
C1780 C1768 1.349 . S
C1780 H1774 0.950 . S
C1780 C1781 1.327 . S
C1781 H1775 0.950 . S
C1781 C1780 1.327 . S
C1781 C1785 1.429 . S
C1782 C1765 1.574 . S
C1782 H1776 0.949 . S
C1782 C1786 1.368 . S
C1783 C1764 1.429 . S
C1783 C1777 1.429 . S
C1783 C1784 1.523 . S
C1784 C1765 1.368 . S
C1784 C1778 1.368 . S
C1784 C1783 1.523 . S
C1785 C1769 1.429 . S
C1785 C1781 1.429 . S
C1785 C1786 1.523 1_545 S
C1786 C1770 1.368 . S
C1786 C1782 1.368 . S
C1786 C1785 1.523 1_565 S
H1787 C1762 0.950 . S
H1788 C1764 0.950 . S
H1789 C1765 0.949 . S
H1790 C1767 0.950 . S
H1791 C1769 0.950 1_565 S
C353 C7 0.845 . S
C358 C271 0.845 . S
C383 C125 0.845 . S
C388 C29 0.845 . S
C413 C65 0.845 . S
C418 C323 0.845 . S
C443 C73 0.845 . S
C448 C175 0.845 . S
C473 C95 0.845 . S
C478 C183 0.845 . S
C503 C227 0.845 . S
C508 C147 0.845 . S
C533 C307 0.845 . S
C538 C219 0.845 . S
C563 C249 0.845 . S
C568 C337 0.845 . S
C593 C213 1.514 . S
C598 C10 1.494 . S
C623 C32 1.494 . S
C628 C241 1.514 . S
C653 C62 1.494 . S
C658 C263 1.514 . S
C683 C197 1.514 . S
C688 C76 1.494 . S
C713 C301 1.514 . S
C718 C98 1.494 . S
C743 C315 1.514 . S
C748 C118 1.494 . S
C773 C140 1.494 . S
C778 C351 1.514 . S
C803 C285 1.514 . S
C808 C172 1.494 . S
C833 C186 1.494 . S
C838 C43 1.514 . S
C863 C216 1.494 . S
C868 C59 1.514 . S
C893 C230 1.494 . S
C898 C87 1.514 . S
C923 C21 1.514 . S
C928 C252 1.494 . S
C953 C117 1.514 . S
C958 C274 1.494 . S
C983 C304 1.494 . S
C988 C139 1.514 . S
C1013 C169 1.514 . S
C1018 C316 1.494 . S
C1043 C340 1.494 . S
C1048 C109 1.514 . S
C1073 C8 0.533 . S
C1078 C228 0.533 . S
C1103 C30 0.533 . S
C1108 C250 0.533 . S
C1133 C184 0.533 . S
C1138 C54 0.533 . S
C1163 C74 0.533 . S
C1168 C208 0.533 . S
C1193 C96 0.533 . S
C1198 C326 0.533 . S
C1223 C128 0.533 . S
C1228 C338 0.533 . S
C1253 C272 0.533 . S
C1258 C150 0.533 . S
C1283 C164 0.533 . S
C1288 C296 0.533 . S
C1313 C18 1.451 . S
C1318 C161 1.478 . S
C1343 C279 1.478 . S
C1348 C40 1.451 . S
C1373 C52 1.451 . S
C1378 C131 1.478 . S
C1403 C84 1.451 1_455 S
C1408 C329 1.478 . S
C1433 C106 1.451 . S
C1438 C81 1.478 . S
C1463 C191 1.478 . S
C1468 C120 1.451 . S
C1493 C142 1.451 . S
C1498 C37 1.478 . S
C1523 C235 1.478 . S
C1528 C162 1.451 1_655 S
C1553 C194 1.451 . S
C1558 C345 1.478 1_565 S
C1583 C103 1.478 . S
C1588 C206 1.451 1_655 S
C1613 C293 1.478 1_545 S
C1618 C238 1.451 . S
C1643 C260 1.451 . S
C1648 C153 1.478 . S
C1673 C282 1.451 . S
C1678 C257 1.478 1_545 S
C1703 C294 1.451 1_455 S
C1708 C15 1.478 . S
C1733 C205 1.478 1_565 S
C1738 C318 1.451 . S
C1763 C51 1.478 . S
C1768 C348 1.451 . S
