# Generated by pormake.
# Topology unb, (4)-cn, num edge types: 1
# Building blocks:
#     Node 0, Type 0, BuildingBlock: CEKHIL_clean_sbu_0, # of connection points: 4
#     Node 1, Type 0, BuildingBlock: CEKHIL_clean_sbu_0, # of connection points: 4
#     Node 2, Type 0, BuildingBlock: CEKHIL_clean_sbu_0, # of connection points: 4
#     Node 3, Type 0, BuildingBlock: CEKHIL_clean_sbu_0, # of connection points: 4
#     Node 4, Type 0, BuildingBlock: CEKHIL_clean_sbu_0, # of connection points: 4
#     Node 5, Type 0, BuildingBlock: CEKHIL_clean_sbu_0, # of connection points: 4
#     Node 6, Type 0, BuildingBlock: CEKHIL_clean_sbu_0, # of connection points: 4
#     Node 7, Type 0, BuildingBlock: CEKHIL_clean_sbu_0, # of connection points: 4
#     Node 8, Type 0, BuildingBlock: CEKHIL_clean_sbu_0, # of connection points: 4
#     Node 9, Type 0, BuildingBlock: CEKHIL_clean_sbu_0, # of connection points: 4
#     Node 10, Type 0, BuildingBlock: CEKHIL_clean_sbu_0, # of connection points: 4
#     Node 11, Type 0, BuildingBlock: CEKHIL_clean_sbu_0, # of connection points: 4
#     Node 12, Type 0, BuildingBlock: CEKHIL_clean_sbu_0, # of connection points: 4
#     Node 13, Type 0, BuildingBlock: CEKHIL_clean_sbu_0, # of connection points: 4
#     Node 14, Type 0, BuildingBlock: CEKHIL_clean_sbu_0, # of connection points: 4
#     Node 15, Type 0, BuildingBlock: CEKHIL_clean_sbu_0, # of connection points: 4
#     Node 16, Type 0, BuildingBlock: CEKHIL_clean_sbu_0, # of connection points: 4
#     Node 17, Type 0, BuildingBlock: CEKHIL_clean_sbu_0, # of connection points: 4
#     Edge 18, Type (0, 0), BuildingBlock: UVAHIK_clean_linker_0, # of connection points: 2
#     Edge 19, Type (0, 0), BuildingBlock: UVAHIK_clean_linker_0, # of connection points: 2
#     Edge 20, Type (0, 0), BuildingBlock: UVAHIK_clean_linker_0, # of connection points: 2
#     Edge 21, Type (0, 0), BuildingBlock: UVAHIK_clean_linker_0, # of connection points: 2
#     Edge 22, Type (0, 0), BuildingBlock: UVAHIK_clean_linker_0, # of connection points: 2
#     Edge 23, Type (0, 0), BuildingBlock: UVAHIK_clean_linker_0, # of connection points: 2
#     Edge 24, Type (0, 0), BuildingBlock: UVAHIK_clean_linker_0, # of connection points: 2
#     Edge 25, Type (0, 0), BuildingBlock: UVAHIK_clean_linker_0, # of connection points: 2
#     Edge 26, Type (0, 0), BuildingBlock: UVAHIK_clean_linker_0, # of connection points: 2
#     Edge 27, Type (0, 0), BuildingBlock: UVAHIK_clean_linker_0, # of connection points: 2
#     Edge 28, Type (0, 0), BuildingBlock: UVAHIK_clean_linker_0, # of connection points: 2
#     Edge 29, Type (0, 0), BuildingBlock: UVAHIK_clean_linker_0, # of connection points: 2
#     Edge 30, Type (0, 0), BuildingBlock: UVAHIK_clean_linker_0, # of connection points: 2
#     Edge 31, Type (0, 0), BuildingBlock: UVAHIK_clean_linker_0, # of connection points: 2
#     Edge 32, Type (0, 0), BuildingBlock: UVAHIK_clean_linker_0, # of connection points: 2
#     Edge 33, Type (0, 0), BuildingBlock: UVAHIK_clean_linker_0, # of connection points: 2
#     Edge 34, Type (0, 0), BuildingBlock: UVAHIK_clean_linker_0, # of connection points: 2
#     Edge 35, Type (0, 0), BuildingBlock: UVAHIK_clean_linker_0, # of connection points: 2
#     Edge 36, Type (0, 0), BuildingBlock: UVAHIK_clean_linker_0, # of connection points: 2
#     Edge 37, Type (0, 0), BuildingBlock: UVAHIK_clean_linker_0, # of connection points: 2
#     Edge 38, Type (0, 0), BuildingBlock: UVAHIK_clean_linker_0, # of connection points: 2
#     Edge 39, Type (0, 0), BuildingBlock: UVAHIK_clean_linker_0, # of connection points: 2
#     Edge 40, Type (0, 0), BuildingBlock: UVAHIK_clean_linker_0, # of connection points: 2
#     Edge 41, Type (0, 0), BuildingBlock: UVAHIK_clean_linker_0, # of connection points: 2
#     Edge 42, Type (0, 0), BuildingBlock: UVAHIK_clean_linker_0, # of connection points: 2
#     Edge 43, Type (0, 0), BuildingBlock: UVAHIK_clean_linker_0, # of connection points: 2
#     Edge 44, Type (0, 0), BuildingBlock: UVAHIK_clean_linker_0, # of connection points: 2
#     Edge 45, Type (0, 0), BuildingBlock: UVAHIK_clean_linker_0, # of connection points: 2
#     Edge 46, Type (0, 0), BuildingBlock: UVAHIK_clean_linker_0, # of connection points: 2
#     Edge 47, Type (0, 0), BuildingBlock: UVAHIK_clean_linker_0, # of connection points: 2
#     Edge 48, Type (0, 0), BuildingBlock: UVAHIK_clean_linker_0, # of connection points: 2
#     Edge 49, Type (0, 0), BuildingBlock: UVAHIK_clean_linker_0, # of connection points: 2
#     Edge 50, Type (0, 0), BuildingBlock: UVAHIK_clean_linker_0, # of connection points: 2
#     Edge 51, Type (0, 0), BuildingBlock: UVAHIK_clean_linker_0, # of connection points: 2
#     Edge 52, Type (0, 0), BuildingBlock: UVAHIK_clean_linker_0, # of connection points: 2
#     Edge 53, Type (0, 0), BuildingBlock: UVAHIK_clean_linker_0, # of connection points: 2
# Relax obj value: 0.115
# Max RMSD: 0.095
# Mean RMSD: 0.095
data_MOF--net-unb--node1-CEKHIL_clean_sbu_0--edge1-UVAHIK_clean_linker_0
_symmetry_space_group_name_H-M    P1
_symmetry_Int_Tables_number       1
_symmetry_cell_setting            triclinic
loop_
_symmetry_equiv_pos_as_xyz
'x, y, z'
_cell_length_a     80.600525
_cell_length_b     80.713533
_cell_length_c     33.08482
_cell_angle_alpha  89.959394
_cell_angle_beta   89.995525
_cell_angle_gamma 119.93053
loop_
_atom_site_label
_atom_site_type_symbol
_atom_site_fract_x
_atom_site_fract_y
_atom_site_fract_z
_atom_type_partial_charge
Co0 Co 0.14231 0.27098 0.08948 0.0
O1 O 0.11865 0.27174 0.09319 0.0
O2 O 0.12115 0.24741 0.06977 0.0
C3 C 0.15363 0.28365 0.15151 0.0
O4 O 0.16311 0.26388 0.08041 0.0
Co5 Co 0.18298 0.30676 0.09409 0.0
O6 O 0.19285 0.28885 0.08682 0.0
C7 C 0.15685 0.30105 0.02627 0.0
C8 C 0.11034 0.25475 0.07715 0.0
C9 C 0.18144 0.27121 0.07973 0.0
O10 O 0.14684 0.28307 0.0343 0.0
O11 O 0.17025 0.313 0.0493 0.0
O12 O 0.14133 0.26545 0.14801 0.0
O13 O 0.15782 0.29324 0.11846 0.0
Co14 Co 0.75127 0.87398 0.08949 0.0
O15 O 0.75041 0.84957 0.09207 0.0
O16 O 0.77509 0.87655 0.07033 0.0
C17 C 0.73796 0.8717 0.15125 0.0
O18 O 0.75835 0.90198 0.08199 0.0
Co19 Co 0.7152 0.87852 0.09401 0.0
O20 O 0.73319 0.90639 0.09058 0.0
C21 C 0.72201 0.85981 0.02416 0.0
C22 C 0.76756 0.85831 0.07675 0.0
C23 C 0.75089 0.91288 0.08316 0.0
O24 O 0.7398 0.8672 0.03371 0.0
O25 O 0.70976 0.86104 0.04674 0.0
O26 O 0.75623 0.87774 0.14832 0.0
O27 O 0.72869 0.86676 0.11778 0.0
Co28 Co 0.14711 0.8793 0.09065 0.0
O29 O 0.17155 0.90279 0.09278 0.0
O30 O 0.14444 0.90052 0.07178 0.0
C31 C 0.14949 0.86819 0.15222 0.0
O32 O 0.11914 0.8583 0.0838 0.0
Co33 Co 0.14351 0.83909 0.09392 0.0
O34 O 0.11551 0.82896 0.09015 0.0
C35 C 0.16132 0.86473 0.02441 0.0
C36 C 0.16274 0.91119 0.07775 0.0
C37 C 0.10861 0.83993 0.084 0.0
O38 O 0.15343 0.87458 0.03449 0.0
O39 O 0.16106 0.85166 0.04677 0.0
O40 O 0.14354 0.88049 0.14949 0.0
O41 O 0.15457 0.86405 0.11867 0.0
Co42 Co 0.27514 0.13618 0.90603 0.0
O43 O 0.27751 0.11339 0.90839 0.0
O44 O 0.25222 0.11508 0.92836 0.0
C45 C 0.28705 0.14508 0.84256 0.0
O46 O 0.26637 0.15603 0.90896 0.0
Co47 Co 0.30918 0.17755 0.89357 0.0
O48 O 0.28967 0.18555 0.89257 0.0
C49 C 0.30332 0.15791 0.97255 0.0
C50 C 0.26042 0.10484 0.92408 0.0
C51 C 0.27249 0.17396 0.90313 0.0
O52 O 0.28708 0.14382 0.96141 0.0
O53 O 0.31446 0.17165 0.94918 0.0
O54 O 0.2692 0.13204 0.84778 0.0
O55 O 0.29705 0.1514 0.87499 0.0
Co56 Co 0.88518 0.14223 0.90913 0.0
O57 O 0.90887 0.16644 0.90592 0.0
O58 O 0.90642 0.13922 0.92646 0.0
C59 C 0.87338 0.1447 0.84841 0.0
O60 O 0.864 0.11445 0.91698 0.0
Co61 Co 0.84521 0.13926 0.90898 0.0
O62 O 0.83471 0.11126 0.91386 0.0
C63 C 0.87195 0.15703 0.97672 0.0
C64 C 0.91723 0.15747 0.92033 0.0
C65 C 0.84561 0.10416 0.91862 0.0
O66 O 0.88138 0.14881 0.96577 0.0
O67 O 0.85867 0.15696 0.95539 0.0
O68 O 0.88549 0.13846 0.85013 0.0
O69 O 0.86979 0.14995 0.88239 0.0
Co70 Co 0.87898 0.74416 0.90904 0.0
O71 O 0.85473 0.74374 0.90582 0.0
O72 O 0.88177 0.76793 0.92868 0.0
C73 C 0.87702 0.73119 0.84704 0.0
O74 O 0.90682 0.75084 0.91749 0.0
Co75 Co 0.88314 0.70794 0.90422 0.0
O76 O 0.91104 0.72556 0.91004 0.0
C77 C 0.86333 0.71424 0.97249 0.0
C78 C 0.86361 0.76075 0.92172 0.0
C79 C 0.9176 0.74325 0.91736 0.0
O80 O 0.87153 0.73223 0.96436 0.0
O81 O 0.86446 0.70211 0.94942 0.0
O82 O 0.88329 0.74947 0.85033 0.0
O83 O 0.87174 0.72176 0.88028 0.0
Co84 Co 0.80999 0.60483 0.42173 0.0
O85 O 0.78632 0.60557 0.42509 0.0
O86 O 0.78877 0.58102 0.40303 0.0
C87 C 0.82141 0.61815 0.48326 0.0
O88 O 0.83085 0.59774 0.41329 0.0
Co89 Co 0.85059 0.64075 0.42511 0.0
O90 O 0.86052 0.62281 0.41981 0.0
C91 C 0.82483 0.63388 0.3557 0.0
C92 C 0.77797 0.58843 0.40985 0.0
C93 C 0.8492 0.60513 0.41298 0.0
O94 O 0.81429 0.61621 0.36591 0.0
O95 O 0.83851 0.64614 0.37775 0.0
O96 O 0.80918 0.5999 0.48048 0.0
O97 O 0.8255 0.62742 0.44979 0.0
Co98 Co 0.41792 0.2077 0.4248 0.0
O99 O 0.41569 0.18262 0.42408 0.0
O100 O 0.44141 0.20954 0.40573 0.0
C101 C 0.40442 0.20464 0.48658 0.0
O102 O 0.42651 0.23625 0.42079 0.0
Co103 Co 0.38323 0.21448 0.43071 0.0
O104 O 0.40244 0.24203 0.43234 0.0
C105 C 0.39158 0.20106 0.35415 0.0
C106 C 0.43308 0.19111 0.40999 0.0
C107 C 0.41995 0.24784 0.42432 0.0
O108 O 0.40748 0.20334 0.36812 0.0
O109 O 0.37964 0.20358 0.37495 0.0
O110 O 0.42242 0.20957 0.48361 0.0
O111 O 0.3952 0.20085 0.45299 0.0
Co112 Co 0.81279 0.21154 0.42368 0.0
O113 O 0.83687 0.23538 0.42705 0.0
O114 O 0.80962 0.23248 0.40518 0.0
C115 C 0.8149 0.20008 0.48507 0.0
O116 O 0.7851 0.19023 0.41537 0.0
Co117 Co 0.81 0.17173 0.4256 0.0
O118 O 0.78198 0.16104 0.41942 0.0
C119 C 0.82833 0.19824 0.35769 0.0
C120 C 0.82781 0.24348 0.41181 0.0
C121 C 0.77487 0.17186 0.41389 0.0
O122 O 0.81988 0.20758 0.36762 0.0
O123 O 0.82815 0.18512 0.37972 0.0
O124 O 0.80856 0.21207 0.48242 0.0
O125 O 0.82047 0.1964 0.45157 0.0
Co126 Co 0.94094 0.46789 0.24024 0.0
O127 O 0.94193 0.44441 0.23965 0.0
O128 O 0.91653 0.4466 0.25641 0.0
C129 C 0.95619 0.4792 0.18023 0.0
O130 O 0.93379 0.48885 0.24491 0.0
Co131 Co 0.97747 0.50815 0.24024 0.0
O132 O 0.9595 0.51822 0.23976 0.0
C133 C 0.96696 0.48317 0.31193 0.0
C134 C 0.92432 0.43596 0.25241 0.0
C135 C 0.94155 0.50721 0.2444 0.0
O136 O 0.95007 0.47222 0.29787 0.0
O137 O 0.9804 0.49692 0.29204 0.0
O138 O 0.93788 0.46699 0.18096 0.0
O139 O 0.9645 0.48326 0.21489 0.0
Co140 Co 0.55254 0.4753 0.24245 0.0
O141 O 0.57614 0.49964 0.24016 0.0
O142 O 0.57383 0.47238 0.25989 0.0
C143 C 0.54105 0.47819 0.18165 0.0
O144 O 0.53153 0.44739 0.24945 0.0
Co145 Co 0.51235 0.47183 0.2415 0.0
O146 O 0.50211 0.44387 0.24653 0.0
C147 C 0.53851 0.48915 0.31038 0.0
C148 C 0.58455 0.49068 0.25436 0.0
C149 C 0.51315 0.43695 0.25118 0.0
O150 O 0.54831 0.48134 0.29924 0.0
O151 O 0.5253 0.48907 0.28881 0.0
O152 O 0.55321 0.47202 0.18331 0.0
O153 O 0.53717 0.48304 0.21577 0.0
Co154 Co 0.54491 0.07716 0.24275 0.0
O155 O 0.52038 0.07618 0.24156 0.0
O156 O 0.54756 0.10093 0.26212 0.0
C157 C 0.54194 0.06372 0.18098 0.0
O158 O 0.57304 0.08441 0.24877 0.0
Co159 Co 0.54979 0.04137 0.23721 0.0
O160 O 0.5777 0.05951 0.23916 0.0
C161 C 0.53203 0.04821 0.30884 0.0
C162 C 0.52924 0.09335 0.25661 0.0
C163 C 0.58409 0.07714 0.24671 0.0
O164 O 0.53881 0.06584 0.29871 0.0
O165 O 0.53324 0.03601 0.28617 0.0
O166 O 0.54804 0.08198 0.18382 0.0
O167 O 0.53745 0.05455 0.2146 0.0
Co168 Co 0.47627 0.93756 0.75613 0.0
O169 O 0.45268 0.93842 0.75928 0.0
O170 O 0.45511 0.91396 0.7365 0.0
C171 C 0.48741 0.95034 0.81808 0.0
O172 O 0.49708 0.93041 0.74788 0.0
Co173 Co 0.51692 0.97338 0.76088 0.0
O174 O 0.52675 0.95535 0.75559 0.0
C175 C 0.49095 0.96745 0.69261 0.0
C176 C 0.44435 0.92138 0.74352 0.0
C177 C 0.51541 0.93771 0.74829 0.0
O178 O 0.48096 0.94949 0.70079 0.0
O179 O 0.50429 0.97948 0.71564 0.0
O180 O 0.47508 0.93215 0.81471 0.0
O181 O 0.4917 0.95987 0.78493 0.0
Co182 Co 0.08513 0.54222 0.7561 0.0
O183 O 0.08302 0.5172 0.75375 0.0
O184 O 0.10856 0.54429 0.73565 0.0
C185 C 0.07176 0.53807 0.81853 0.0
O186 O 0.09363 0.57076 0.75359 0.0
Co187 Co 0.05071 0.54921 0.7666 0.0
O188 O 0.06996 0.57673 0.76843 0.0
C189 C 0.05775 0.53578 0.68816 0.0
C190 C 0.10033 0.52584 0.73927 0.0
C191 C 0.08729 0.58245 0.75885 0.0
O192 O 0.07408 0.53827 0.69993 0.0
O193 O 0.04621 0.53799 0.71114 0.0
O194 O 0.08988 0.54354 0.81502 0.0
O195 O 0.06261 0.53492 0.78506 0.0
Co196 Co 0.48004 0.54558 0.75776 0.0
O197 O 0.50434 0.56923 0.76025 0.0
O198 O 0.47717 0.56668 0.73895 0.0
C199 C 0.48239 0.53439 0.81935 0.0
O200 O 0.45217 0.52445 0.7503 0.0
Co201 Co 0.47671 0.5055 0.76074 0.0
O202 O 0.44872 0.49515 0.7554 0.0
C203 C 0.49456 0.5313 0.69144 0.0
C204 C 0.49543 0.5775 0.7451 0.0
C205 C 0.44175 0.50608 0.7495 0.0
O206 O 0.48661 0.5411 0.70161 0.0
O207 O 0.49431 0.51821 0.71373 0.0
O208 O 0.47626 0.54655 0.81661 0.0
O209 O 0.48761 0.53039 0.7858 0.0
Co210 Co 0.60939 0.80265 0.57517 0.0
O211 O 0.61082 0.77935 0.57564 0.0
O212 O 0.58553 0.78142 0.59388 0.0
C213 C 0.62343 0.81291 0.51369 0.0
O214 O 0.60156 0.82317 0.57943 0.0
Co215 Co 0.64463 0.84372 0.56862 0.0
O216 O 0.6259 0.85274 0.56745 0.0
C217 C 0.63621 0.82158 0.64502 0.0
C218 C 0.59341 0.77088 0.58962 0.0
C219 C 0.60838 0.84134 0.57583 0.0
O220 O 0.61991 0.80833 0.63185 0.0
O221 O 0.64822 0.83573 0.62363 0.0
O222 O 0.60519 0.80055 0.51607 0.0
O223 O 0.63231 0.81797 0.54762 0.0
Co224 Co 0.21929 0.80929 0.57534 0.0
O225 O 0.24294 0.83354 0.57282 0.0
O226 O 0.24047 0.80625 0.59294 0.0
C227 C 0.20784 0.81208 0.5145 0.0
O228 O 0.19819 0.78147 0.58256 0.0
Co229 Co 0.17919 0.80602 0.57419 0.0
O230 O 0.16881 0.77806 0.57942 0.0
C231 C 0.20544 0.82348 0.64291 0.0
C232 C 0.25126 0.82453 0.58718 0.0
C233 C 0.17981 0.77108 0.58423 0.0
O234 O 0.21512 0.81552 0.63198 0.0
O235 O 0.19226 0.82342 0.62123 0.0
O236 O 0.21993 0.80582 0.5163 0.0
O237 O 0.204 0.81707 0.54851 0.0
Co238 Co 0.21191 0.41074 0.57623 0.0
O239 O 0.18744 0.40991 0.57436 0.0
O240 O 0.21463 0.43463 0.59498 0.0
C241 C 0.20911 0.39707 0.51471 0.0
O242 O 0.24001 0.4179 0.58291 0.0
Co243 Co 0.21667 0.37486 0.57189 0.0
O244 O 0.24459 0.39289 0.57447 0.0
C245 C 0.19868 0.38197 0.64274 0.0
C246 C 0.19634 0.42713 0.58916 0.0
C247 C 0.25101 0.41057 0.5816 0.0
O248 O 0.20557 0.39959 0.63236 0.0
O249 O 0.19991 0.36968 0.62043 0.0
O250 O 0.21525 0.41535 0.51723 0.0
O251 O 0.20447 0.38801 0.54846 0.0
C252 C 0.19719 0.36624 0.47832 0.0
C253 C 0.20598 0.38631 0.47643 0.0
C254 C 0.19262 0.35529 0.44326 0.0
C255 C 0.2044 0.35565 0.33699 0.0
H256 H 0.15296 0.31214 0.32923 0.0
C257 C 0.17522 0.31341 0.18915 0.0
C258 C 0.16165 0.29378 0.19026 0.0
C259 C 0.18156 0.32413 0.22453 0.0
C260 C 0.16749 0.32398 0.33113 0.0
H261 H 0.21734 0.41062 0.4359 0.0
H262 H 0.20963 0.39126 0.37384 0.0
H263 H 0.16224 0.33273 0.38857 0.0
H264 H 0.14462 0.26983 0.22985 0.0
H265 H 0.15614 0.28853 0.29241 0.0
H266 H 0.20989 0.34674 0.28014 0.0
C267 C 0.2062 0.38415 0.40293 0.0
C268 C 0.17275 0.3359 0.36502 0.0
C269 C 0.21059 0.39522 0.43834 0.0
C270 C 0.15508 0.28492 0.228 0.0
C271 C 0.16156 0.29571 0.26376 0.0
C272 C 0.19922 0.34359 0.30329 0.0
C273 C 0.19687 0.36403 0.40516 0.0
C274 C 0.19124 0.3519 0.36828 0.0
C275 C 0.17469 0.31556 0.2624 0.0
C276 C 0.18063 0.32764 0.2997 0.0
H277 H 0.19344 0.35882 0.50706 0.0
H278 H 0.18573 0.33988 0.44601 0.0
H279 H 0.21883 0.3677 0.33898 0.0
H280 H 0.18061 0.32079 0.16065 0.0
H281 H 0.19136 0.33935 0.22188 0.0
C282 C 0.62541 0.81558 0.43734 0.0
C283 C 0.63422 0.82057 0.47544 0.0
C284 C 0.63647 0.82241 0.40195 0.0
C285 C 0.68549 0.85906 0.36565 0.0
H286 H 0.67235 0.82526 0.27343 0.0
C287 C 0.73623 0.87189 0.22775 0.0
C288 C 0.72741 0.8689 0.18973 0.0
C289 C 0.72518 0.86718 0.26327 0.0
C290 C 0.67616 0.8349 0.29893 0.0
H291 H 0.66155 0.83672 0.50615 0.0
H292 H 0.68056 0.84797 0.44545 0.0
H293 H 0.65176 0.8148 0.33291 0.0
H294 H 0.70018 0.85929 0.15941 0.0
H295 H 0.68125 0.8511 0.22065 0.0
H296 H 0.7102 0.87892 0.33168 0.0
C297 C 0.66517 0.83928 0.44232 0.0
C298 C 0.66426 0.82896 0.33295 0.0
C299 C 0.65419 0.83264 0.47736 0.0
C300 C 0.70751 0.86169 0.18809 0.0
C301 C 0.69656 0.85686 0.22323 0.0
C302 C 0.69752 0.86488 0.33178 0.0
C303 C 0.65656 0.83426 0.40404 0.0
C304 C 0.66874 0.84094 0.36687 0.0
C305 C 0.70516 0.85923 0.26119 0.0
C306 C 0.69295 0.85289 0.29801 0.0
H307 H 0.61006 0.80632 0.43487 0.0
H308 H 0.62927 0.81841 0.373 0.0
H309 H 0.68929 0.86887 0.3908 0.0
H310 H 0.75151 0.87738 0.23 0.0
H311 H 0.73218 0.86918 0.29225 0.0
C312 C 0.20395 0.81038 0.43838 0.0
C313 C 0.1999 0.81513 0.47657 0.0
C314 C 0.19715 0.81478 0.40314 0.0
C315 C 0.18236 0.84841 0.36572 0.0
H316 H 0.15683 0.81178 0.27979 0.0
C317 C 0.1493 0.86638 0.22856 0.0
C318 C 0.15193 0.86019 0.19069 0.0
C319 C 0.15362 0.85981 0.26419 0.0
C320 C 0.16412 0.82229 0.30327 0.0
H321 H 0.1852 0.82784 0.50761 0.0
H322 H 0.1737 0.83554 0.44677 0.0
H323 H 0.16851 0.80257 0.33892 0.0
H324 H 0.16067 0.84184 0.16066 0.0
H325 H 0.16846 0.83087 0.22185 0.0
H326 H 0.17849 0.86832 0.32998 0.0
C327 C 0.18215 0.82856 0.44383 0.0
C328 C 0.17081 0.81697 0.33713 0.0
C329 C 0.18869 0.824 0.47875 0.0
C330 C 0.15841 0.84693 0.18928 0.0
C331 C 0.16278 0.84047 0.2246 0.0
C332 C 0.17588 0.85382 0.3317 0.0
C333 C 0.18645 0.82422 0.4056 0.0
C334 C 0.17996 0.82995 0.36878 0.0
C335 C 0.16068 0.84695 0.26261 0.0
C336 C 0.16667 0.84085 0.29992 0.0
H337 H 0.21256 0.80357 0.43571 0.0
H338 H 0.2007 0.81129 0.37398 0.0
H339 H 0.18953 0.85881 0.38948 0.0
H340 H 0.14434 0.87659 0.23063 0.0
H341 H 0.15156 0.86492 0.29295 0.0
C342 C 0.37758 0.20347 0.52613 0.0
C343 C 0.39426 0.20205 0.52538 0.0
C344 C 0.36615 0.1985 0.56072 0.0
C345 C 0.35197 0.16699 0.64826 0.0
H346 H 0.33168 0.19834 0.6892 0.0
C347 C 0.29143 0.14004 0.76917 0.0
C348 C 0.29613 0.15224 0.80268 0.0
C349 C 0.30263 0.14629 0.73391 0.0
C350 C 0.33718 0.18941 0.67801 0.0
H351 H 0.41228 0.19465 0.56057 0.0
H352 H 0.392 0.18558 0.62133 0.0
H353 H 0.3543 0.20986 0.63273 0.0
H354 H 0.31553 0.18078 0.82487 0.0
H355 H 0.33454 0.1918 0.76333 0.0
H356 H 0.33472 0.14648 0.69345 0.0
C357 C 0.3879 0.19068 0.59499 0.0
C358 C 0.35012 0.19599 0.64571 0.0
C359 C 0.39959 0.19604 0.56045 0.0
C360 C 0.31154 0.17104 0.79955 0.0
C361 C 0.32243 0.17739 0.76424 0.0
C362 C 0.33879 0.16027 0.68021 0.0
C363 C 0.37092 0.19165 0.59525 0.0
C364 C 0.35774 0.18491 0.6306 0.0
C365 C 0.31842 0.16498 0.73136 0.0
C366 C 0.33132 0.17145 0.69556 0.0
H367 H 0.37308 0.20802 0.49956 0.0
H368 H 0.35314 0.19931 0.55988 0.0
H369 H 0.35744 0.15805 0.63694 0.0
H370 H 0.27976 0.12541 0.77096 0.0
H371 H 0.29915 0.13646 0.70887 0.0
C372 C 0.82482 0.17957 0.52221 0.0
C373 C 0.81735 0.19203 0.52351 0.0
C374 C 0.82908 0.17309 0.55764 0.0
C375 C 0.83972 0.18515 0.66609 0.0
H376 H 0.83517 0.135 0.67107 0.0
C377 C 0.85318 0.15545 0.81275 0.0
C378 C 0.86513 0.14738 0.81051 0.0
C379 C 0.84645 0.15979 0.77781 0.0
C380 C 0.83667 0.1491 0.66997 0.0
H381 H 0.80792 0.20696 0.56336 0.0
H382 H 0.81493 0.19521 0.62581 0.0
H383 H 0.8237 0.14414 0.61154 0.0
H384 H 0.87885 0.13699 0.76954 0.0
H385 H 0.86673 0.1444 0.70786 0.0
H386 H 0.85242 0.18993 0.72488 0.0
C387 C 0.81786 0.19077 0.59709 0.0
C388 C 0.8301 0.15439 0.63583 0.0
C389 C 0.81367 0.19739 0.56135 0.0
C390 C 0.86967 0.14317 0.77226 0.0
C391 C 0.86272 0.1474 0.73703 0.0
C392 C 0.84609 0.17978 0.70035 0.0
C393 C 0.82587 0.17871 0.59567 0.0
C394 C 0.83167 0.17256 0.63324 0.0
C395 C 0.8513 0.15608 0.73951 0.0
C396 C 0.84472 0.16173 0.70264 0.0
H397 H 0.82792 0.17516 0.49362 0.0
H398 H 0.83552 0.16414 0.55502 0.0
H399 H 0.84155 0.19938 0.66503 0.0
H400 H 0.84928 0.15882 0.84165 0.0
H401 H 0.83743 0.16616 0.78081 0.0
C402 C 0.8785 0.72992 0.77054 0.0
C403 C 0.87436 0.7208 0.80841 0.0
C404 C 0.87416 0.71907 0.73479 0.0
C405 C 0.84124 0.67074 0.69674 0.0
H406 H 0.87757 0.68259 0.60963 0.0
C407 C 0.82343 0.61983 0.55965 0.0
C408 C 0.82943 0.62861 0.52168 0.0
C409 C 0.82999 0.63079 0.59518 0.0
C410 C 0.86712 0.67916 0.63342 0.0
H411 H 0.86292 0.69322 0.83826 0.0
H412 H 0.85533 0.67468 0.7767 0.0
H413 H 0.88673 0.70343 0.66874 0.0
H414 H 0.84743 0.65569 0.49137 0.0
H415 H 0.8583 0.67454 0.55228 0.0
H416 H 0.82144 0.64679 0.66142 0.0
C417 C 0.86176 0.69007 0.77437 0.0
C418 C 0.87243 0.69115 0.66727 0.0
C419 C 0.86625 0.7008 0.80972 0.0
C420 C 0.84249 0.64837 0.52007 0.0
C421 C 0.8489 0.65926 0.55524 0.0
C422 C 0.83585 0.65888 0.66274 0.0
C423 C 0.86539 0.69898 0.7365 0.0
C424 C 0.85957 0.68701 0.69937 0.0
C425 C 0.84263 0.65073 0.59336 0.0
C426 C 0.84871 0.66288 0.63055 0.0
H427 H 0.8847 0.74528 0.76853 0.0
H428 H 0.87712 0.72631 0.70588 0.0
H429 H 0.83096 0.66728 0.72093 0.0
H430 H 0.81338 0.60465 0.56189 0.0
H431 H 0.82505 0.62364 0.62402 0.0
C432 C 0.98756 0.49893 0.14563 0.0
C433 C 0.96758 0.48712 0.14274 0.0
C434 C 0.99896 0.50544 0.11104 0.0
C435 C 0.99864 0.4947 0.00187 0.0
H436 H 0.04501 0.5443 0.00016 0.0
C437 C 0.04137 0.52707 0.85637 0.0
C438 C 0.0613 0.53448 0.85742 0.0
C439 C 0.03061 0.52208 0.89182 0.0
C440 C 0.03222 0.53034 0.00041 0.0
H441 H 0.94384 0.47335 0.10099 0.0
H442 H 0.96371 0.4852 0.04012 0.0
H443 H 0.02411 0.53464 0.05935 0.0
H444 H 0.08565 0.54299 0.89696 0.0
H445 H 0.06667 0.53449 0.95976 0.0
H446 H 1.00658 0.49066 0.94248 0.0
C447 C 0.97063 0.48907 0.06937 0.0
C448 C 0.02019 0.52475 0.03432 0.0
C449 C 0.95918 0.48239 0.10422 0.0
C450 C 0.07034 0.53732 0.89516 0.0
C451 C 0.05949 0.53248 0.93101 0.0
C452 C 1.01054 0.50038 0.96787 0.0
C453 C 0.99073 0.50051 0.07234 0.0
C454 C 1.00322 0.50682 0.03558 0.0
C455 C 0.03944 0.52448 0.92953 0.0
C456 C 0.02744 0.51826 0.9667 0.0
H457 H 0.99457 0.50282 0.17481 0.0
H458 H 0.01432 0.5139 0.11482 0.0
H459 H 0.98599 0.48065 0.0019 0.0
H460 H 0.03386 0.52473 0.82794 0.0
H461 H 0.01528 0.51627 0.88967 0.0
C462 C 0.53724 0.47675 0.10547 0.0
C463 C 0.5331 0.48131 0.14376 0.0
C464 C 0.53042 0.48119 0.07031 0.0
C465 C 0.51507 0.51455 0.03338 0.0
H466 H 0.49047 0.47825 0.94648 0.0
C467 C 0.48206 0.53242 0.89574 0.0
C468 C 0.48492 0.52643 0.85783 0.0
C469 C 0.48642 0.52587 0.93139 0.0
C470 C 0.49751 0.48868 0.97022 0.0
H471 H 0.51821 0.49376 0.17503 0.0
H472 H 0.50664 0.50152 0.11433 0.0
H473 H 0.50214 0.46904 0.00562 0.0
H474 H 0.49416 0.50849 0.82778 0.0
H475 H 0.50202 0.49757 0.88897 0.0
H476 H 0.51095 0.53438 0.99789 0.0
C477 C 0.51519 0.49465 0.11124 0.0
C478 C 0.50419 0.48335 0.00412 0.0
C479 C 0.52177 0.49006 0.1461 0.0
C480 C 0.49171 0.51341 0.85642 0.0
C481 C 0.49612 0.50698 0.89174 0.0
C482 C 0.50859 0.51996 0.99933 0.0
C483 C 0.51958 0.49048 0.07291 0.0
C484 C 0.51301 0.49622 0.03613 0.0
C485 C 0.49376 0.51323 0.9298 0.0
C486 C 0.49973 0.50712 0.96717 0.0
H487 H 0.54594 0.47004 0.10267 0.0
H488 H 0.53404 0.47782 0.0411 0.0
H489 H 0.52199 0.52487 0.0574 0.0
H490 H 0.47687 0.54244 0.89784 0.0
H491 H 0.48415 0.53082 0.96015 0.0
C492 C 0.54367 0.06213 0.10463 0.0
C493 C 0.53867 0.05307 0.14255 0.0
C494 C 0.53929 0.05118 0.06907 0.0
C495 C 0.50545 1.00334 0.03004 0.0
H496 H 0.54334 0.01325 0.9474 0.0
C497 C 0.48835 0.95182 0.89448 0.0
C498 C 0.49532 0.96052 0.85677 0.0
C499 C 0.49467 0.96271 0.93012 0.0
C500 C 0.53248 0.01037 0.96992 0.0
H501 H 0.5254 0.02544 0.17272 0.0
H502 H 0.51771 1.00671 0.11141 0.0
H503 H 0.55204 0.0343 0.00607 0.0
H504 H 0.51487 0.98731 0.82707 0.0
H505 H 0.52537 1.00605 0.88813 0.0
H506 H 0.48572 0.97974 0.99382 0.0
C507 C 0.52491 0.02215 0.10891 0.0
C508 C 0.53751 0.02249 0.0035 0.0
C509 C 0.52947 0.03298 0.14412 0.0
C510 C 0.50916 0.98007 0.85557 0.0
C511 C 0.51535 0.99089 0.89084 0.0
C512 C 0.50034 0.99136 0.99628 0.0
C513 C 0.52959 0.03105 0.07099 0.0
C514 C 0.52408 0.01904 0.03399 0.0
C515 C 0.50804 0.98249 0.92864 0.0
C516 C 0.51377 0.99468 0.96572 0.0
H517 H 0.55075 0.07756 0.10246 0.0
H518 H 0.54307 0.0584 0.04009 0.0
H519 H 0.49474 1.00042 0.053 0.0
H520 H 0.47767 0.9368 0.89638 0.0
H521 H 0.48892 0.95567 0.95876 0.0
C522 C 0.15788 0.32794 0.98793 0.0
C523 C 0.15341 0.30874 0.98884 0.0
C524 C 0.15756 0.33652 0.95171 0.0
C525 C 0.14366 0.32793 0.84381 0.0
H526 H 0.1912 0.37575 0.82893 0.0
C527 C 0.17833 0.35543 0.68983 0.0
C528 C 0.1889 0.37519 0.68209 0.0
C529 C 0.17002 0.34861 0.72745 0.0
C530 C 0.17763 0.36269 0.83278 0.0
H531 H 0.14377 0.28304 0.95325 0.0
H532 H 0.14368 0.29824 0.88917 0.0
H533 H 0.18332 0.36067 0.89497 0.0
H534 H 0.19822 0.40328 0.70728 0.0
H535 H 0.18367 0.39126 0.77367 0.0
H536 H 0.13841 0.32968 0.78096 0.0
C537 C 0.14721 0.30657 0.9167 0.0
C538 C 0.17311 0.35399 0.87066 0.0
C539 C 0.14733 0.29788 0.95326 0.0
C540 C 0.19029 0.38799 0.71243 0.0
C541 C 0.182 0.38112 0.75038 0.0
C542 C 0.14817 0.33668 0.80584 0.0
C543 C 0.15297 0.32616 0.91546 0.0
C544 C 0.1563 0.3363 0.87637 0.0
C545 C 0.17205 0.36135 0.7584 0.0
C546 C 0.16547 0.35388 0.79972 0.0
H547 H 0.16223 0.33655 0.01515 0.0
H548 H 0.16162 0.35149 0.95185 0.0
H549 H 0.1305 0.31444 0.84749 0.0
H550 H 0.17674 0.34511 0.66704 0.0
H551 H 0.16273 0.33333 0.73276 0.0
C552 C 0.64016 0.80352 0.70206 0.0
C553 C 0.6422 0.8206 0.6864 0.0
C554 C 0.64961 0.80379 0.73782 0.0
C555 C 0.69093 0.83803 0.79946 0.0
H556 H 0.66786 0.80054 0.88501 0.0
C557 C 0.72749 0.85184 0.95365 0.0
C558 C 0.71496 0.84966 0.98534 0.0
C559 C 0.72021 0.84374 0.91576 0.0
C560 C 0.67455 0.81106 0.86124 0.0
H561 H 0.65419 0.85094 0.69682 0.0
H562 H 0.66985 0.85132 0.75978 0.0
H563 H 0.65061 0.79587 0.82161 0.0
H564 H 0.68504 0.83594 0.00317 0.0
H565 H 0.67252 0.82244 0.93768 0.0
H566 H 0.71417 0.85397 0.83981 0.0
C567 C 0.66178 0.83787 0.74391 0.0
C568 C 0.66472 0.8083 0.82484 0.0
C569 C 0.65261 0.83763 0.70817 0.0
C570 C 0.69513 0.83821 0.97923 0.0
C571 C 0.6879 0.83016 0.94166 0.0
C572 C 0.70065 0.84088 0.83588 0.0
C573 C 0.66102 0.82113 0.75832 0.0
C574 C 0.67248 0.82219 0.79427 0.0
C575 C 0.70029 0.83327 0.90912 0.0
C576 C 0.69222 0.82783 0.8678 0.0
H577 H 0.6323 0.79025 0.68546 0.0
H578 H 0.64868 0.79065 0.74836 0.0
H579 H 0.69754 0.84871 0.77593 0.0
H580 H 0.74285 0.86041 0.9576 0.0
H581 H 0.73013 0.8462 0.89135 0.0
C582 C 0.18784 0.86763 0.98158 0.0
C583 C 0.17051 0.86772 0.98477 0.0
C584 C 0.19515 0.86709 0.94375 0.0
C585 C 0.17844 0.84398 0.85155 0.0
H586 H 0.22771 0.8787 0.8032 0.0
C587 C 0.20869 0.82235 0.71753 0.0
C588 C 0.2086 0.83234 0.68291 0.0
C589 C 0.20751 0.82902 0.7558 0.0
C590 C 0.21401 0.86889 0.81674 0.0
H591 H 0.14758 0.86813 0.95155 0.0
H592 H 0.16007 0.86638 0.88485 0.0
H593 H 0.21817 0.88755 0.86678 0.0
H594 H 0.20879 0.85766 0.66055 0.0
H595 H 0.2075 0.8697 0.72766 0.0
H596 H 0.17442 0.82509 0.80241 0.0
C597 C 0.16812 0.86717 0.91172 0.0
C598 C 0.20854 0.87397 0.85266 0.0
C599 C 0.16104 0.86822 0.94963 0.0
C600 C 0.20887 0.84978 0.687 0.0
C601 C 0.2082 0.85668 0.7252 0.0
C602 C 0.18409 0.83872 0.81632 0.0
C603 C 0.18498 0.86618 0.90872 0.0
C604 C 0.19063 0.86159 0.86995 0.0
C605 C 0.20678 0.84598 0.75969 0.0
C606 C 0.20186 0.85115 0.79864 0.0
H607 H 0.19534 0.86726 0.00843 0.0
H608 H 0.2081 0.86618 0.94195 0.0
H609 H 0.16467 0.83416 0.86484 0.0
H610 H 0.2083 0.80879 0.7149 0.0
H611 H 0.20634 0.82056 0.78222 0.0
C612 C 0.38709 0.17952 0.29591 0.0
C613 C 0.38653 0.19535 0.31188 0.0
C614 C 0.37965 0.17269 0.25734 0.0
C615 C 0.37087 0.18626 0.16045 0.0
H616 H 0.32078 0.14056 0.1555 0.0
C617 C 0.32047 0.17657 0.03288 0.0
C618 C 0.31013 0.1587 0.01408 0.0
C619 C 0.33009 0.17845 0.06891 0.0
C620 C 0.33492 0.1531 0.15617 0.0
H621 H 0.37872 0.21698 0.30024 0.0
H622 H 0.36657 0.2056 0.23226 0.0
H623 H 0.33936 0.14873 0.21841 0.0
H624 H 0.30077 0.12854 0.01899 0.0
H625 H 0.31799 0.13185 0.08254 0.0
H626 H 0.36652 0.19105 0.09895 0.0
C627 C 0.37237 0.19828 0.24968 0.0
C628 C 0.34553 0.15771 0.19203 0.0
C629 C 0.37929 0.20477 0.28838 0.0
C630 C 0.30862 0.14246 0.03315 0.0
C631 C 0.31852 0.14438 0.06929 0.0
C632 C 0.36044 0.18157 0.12465 0.0
C633 C 0.37216 0.18201 0.23424 0.0
C634 C 0.36324 0.17468 0.19466 0.0
C635 C 0.32988 0.16254 0.08671 0.0
C636 C 0.342 0.16541 0.12265 0.0
H637 H 0.39246 0.17198 0.31388 0.0
H638 H 0.37955 0.16008 0.24576 0.0
H639 H 0.38453 0.1994 0.16202 0.0
H640 H 0.3216 0.18927 0.01901 0.0
H641 H 0.33811 0.19252 0.08235 0.0
C642 C 0.87871 0.18513 0.01841 0.0
C643 C 0.87583 0.16655 0.01605 0.0
C644 C 0.87912 0.19323 0.05585 0.0
C645 C 0.8779 0.18482 0.16752 0.0
H646 H 0.85122 0.21365 0.16769 0.0
C647 C 0.8566 0.20411 0.31734 0.0
C648 C 0.8383 0.20207 0.31883 0.0
C649 C 0.86507 0.20463 0.28029 0.0
C650 C 0.85858 0.20552 0.16831 0.0
H651 H 0.87181 0.14197 0.05018 0.0
H652 H 0.87139 0.15554 0.11572 0.0
H653 H 0.85905 0.20448 0.10404 0.0
H654 H 0.81465 0.19969 0.28349 0.0
H655 H 0.82883 0.19946 0.21854 0.0
H656 H 0.87583 0.1843 0.23171 0.0
C657 C 0.87409 0.1643 0.08907 0.0
C658 C 0.86344 0.20054 0.13162 0.0
C659 C 0.87424 0.15643 0.05156 0.0
C660 C 0.82888 0.20144 0.28283 0.0
C661 C 0.83711 0.2014 0.24567 0.0
C662 C 0.87265 0.18942 0.20419 0.0
C663 C 0.87598 0.18262 0.09162 0.0
C664 C 0.87287 0.18981 0.13069 0.0
C665 C 0.8551 0.20246 0.24397 0.0
C666 C 0.8626 0.19954 0.20509 0.0
H667 H 0.88011 0.19318 0.99116 0.0
H668 H 0.88123 0.20756 0.05656 0.0
H669 H 0.88549 0.17691 0.16816 0.0
H670 H 0.86415 0.2048 0.34495 0.0
H671 H 0.87917 0.20609 0.28028 0.0
C672 C 0.85717 0.71766 0.04552 0.0
C673 C 0.85222 0.70673 0.01001 0.0
C674 C 0.84832 0.7091 0.08214 0.0
C675 C 0.82638 0.66174 0.1284 0.0
H676 H 0.81644 0.6864 0.21811 0.0
C677 C 0.80994 0.62792 0.28655 0.0
C678 C 0.82151 0.64071 0.31674 0.0
C679 C 0.80834 0.6348 0.24876 0.0
C680 C 0.81908 0.67931 0.19323 0.0
H681 H 0.83289 0.67898 0.98389 0.0
H682 H 0.81729 0.66427 0.04729 0.0
H683 H 0.82381 0.70158 0.15149 0.0
H684 H 0.83945 0.67077 0.3318 0.0
H685 H 0.83691 0.68258 0.26631 0.0
H686 H 0.82259 0.63996 0.17018 0.0
C687 C 0.82836 0.67919 0.04733 0.0
C688 C 0.82333 0.68802 0.15521 0.0
C689 C 0.83729 0.68763 0.01104 0.0
C690 C 0.83061 0.66047 0.30909 0.0
C691 C 0.82895 0.6673 0.27161 0.0
C692 C 0.82219 0.65308 0.16633 0.0
C693 C 0.83429 0.68958 0.0835 0.0
C694 C 0.82745 0.67951 0.12265 0.0
C695 C 0.81815 0.65457 0.24073 0.0
C696 C 0.81901 0.66202 0.19939 0.0
H697 H 0.8686 0.73242 0.04543 0.0
H698 H 0.85325 0.71745 0.10962 0.0
H699 H 0.82979 0.65495 0.10409 0.0
H700 H 0.80263 0.61262 0.29164 0.0
H701 H 0.79978 0.62466 0.22555 0.0
C702 C 0.9674 0.48963 0.38491 0.0
C703 C 0.97129 0.48052 0.35342 0.0
C704 C 0.97524 0.49083 0.42311 0.0
C705 C 0.01753 0.49286 0.4684 0.0
H706 H 0.99332 0.49529 0.56767 0.0
C707 C 0.05518 0.51649 0.62653 0.0
C708 C 0.05109 0.52937 0.64666 0.0
C709 C 0.0456 0.50778 0.59056 0.0
C710 C 1.00024 0.49459 0.54016 0.0
H711 H 0.98549 0.46483 0.3365 0.0
H712 H 0.99887 0.46642 0.40387 0.0
H713 H 0.97412 0.48271 0.50666 0.0
H714 H 0.03522 0.54453 0.64348 0.0
H715 H 0.01887 0.52965 0.58092 0.0
H716 H 0.04378 0.50528 0.50202 0.0
C717 C 0.99 0.47283 0.39909 0.0
C718 C 0.98926 0.4874 0.50529 0.0
C719 C 0.98224 0.47175 0.3608 0.0
C720 C 0.03838 0.53439 0.62896 0.0
C721 C 0.02892 0.52578 0.59332 0.0
C722 C 0.02852 0.49999 0.50346 0.0
C723 C 0.98709 0.48293 0.43029 0.0
C724 C 0.9979 0.48709 0.4687 0.0
C725 C 0.03189 0.5119 0.57457 0.0
C726 C 0.02007 0.50157 0.5392 0.0
H727 H 0.95928 0.4968 0.37934 0.0
H728 H 0.97297 0.49899 0.44624 0.0
H729 H 0.02465 0.49294 0.44058 0.0
H730 H 0.06489 0.51237 0.6397 0.0
H731 H 0.04822 0.49722 0.57634 0.0
C732 C 0.4946 0.53565 0.61681 0.0
C733 C 0.50373 0.53431 0.65172 0.0
C734 C 0.50153 0.53465 0.57868 0.0
C735 C 0.54207 0.5393 0.52098 0.0
H736 H 0.50507 0.4935 0.46443 0.0
C737 C 0.54354 0.51605 0.35428 0.0
C738 C 0.54159 0.49785 0.35047 0.0
C739 C 0.54259 0.52302 0.39224 0.0
C740 C 0.51551 0.50628 0.48006 0.0
H741 H 0.52793 0.53248 0.67478 0.0
H742 H 0.54041 0.53143 0.60809 0.0
H743 H 0.49569 0.50306 0.52667 0.0
H744 H 0.53787 0.47287 0.38267 0.0
H745 H 0.53545 0.48484 0.44946 0.0
H746 H 0.56176 0.54264 0.4736 0.0
C747 C 0.52783 0.53296 0.61014 0.0
C748 C 0.5101 0.51186 0.51519 0.0
C749 C 0.52065 0.53347 0.64814 0.0
C750 C 0.53964 0.48705 0.38517 0.0
C751 C 0.53818 0.49382 0.42311 0.0
C752 C 0.54736 0.53394 0.48519 0.0
C753 C 0.51794 0.53284 0.57523 0.0
C754 C 0.52336 0.52832 0.53604 0.0
C755 C 0.5392 0.51164 0.42664 0.0
C756 C 0.53415 0.51726 0.4649 0.0
H757 H 0.48146 0.53618 0.61899 0.0
H758 H 0.49371 0.53455 0.55196 0.0
H759 H 0.55252 0.55196 0.5369 0.0
H760 H 0.54496 0.52452 0.3277 0.0
H761 H 0.54325 0.53673 0.39443 0.0
C762 C 0.48149 0.96413 0.61957 0.0
C763 C 0.48746 0.97504 0.6551 0.0
C764 C 0.48125 0.97273 0.58297 0.0
C765 C 0.50662 0.02017 0.53684 0.0
H766 H 0.47219 0.99536 0.44697 0.0
C767 C 0.52346 0.05402 0.3785 0.0
C768 C 0.52237 0.04131 0.34826 0.0
C769 C 0.51519 0.04708 0.41643 0.0
C770 C 0.48187 1.00249 0.47191 0.0
H771 H 0.49592 1.00278 0.68132 0.0
H772 H 0.49508 0.01755 0.61795 0.0
H773 H 0.46438 0.98018 0.51357 0.0
H774 H 0.51083 0.01128 0.33341 0.0
H775 H 0.49686 0.9994 0.39912 0.0
H776 H 0.52454 0.04202 0.49511 0.0
C777 C 0.49122 1.00263 0.61786 0.0
C778 C 0.47742 0.99379 0.50992 0.0
C779 C 0.49168 0.99415 0.65413 0.0
C780 C 0.51216 0.02155 0.3561 0.0
C781 C 0.50388 0.01466 0.39371 0.0
C782 C 0.51107 0.02883 0.49893 0.0
C783 C 0.48677 0.99226 0.58166 0.0
C784 C 0.48998 1.00233 0.54253 0.0
C785 C 0.50558 0.02733 0.42453 0.0
C786 C 0.49902 0.01985 0.46583 0.0
H787 H 0.47812 0.94935 0.61963 0.0
H788 H 0.47783 0.96438 0.55547 0.0
H789 H 0.51677 0.02699 0.56119 0.0
H790 H 0.5311 0.06931 0.37327 0.0
H791 H 0.51661 0.05717 0.43963 0.0
C792 C 0.20897 0.26785 0.05429 0.0
C793 C 0.1896 0.2592 0.06579 0.0
C794 C 0.2162 0.25717 0.03591 0.0
C795 C 0.20937 0.2092 0.02131 0.0
H796 H 0.2378 0.23067 0.92219 0.0
C797 C 0.24148 0.17036 0.92989 0.0
C798 C 0.25998 0.18201 0.91404 0.0
C799 C 0.23095 0.17847 0.94552 0.0
C800 C 0.23011 0.22451 0.95005 0.0
H801 H 0.16292 0.23217 0.06864 0.0
H802 H 0.17578 0.21343 0.03731 0.0
H803 H 0.22398 0.24726 0.95793 0.0
H804 H 0.28151 0.21141 0.90106 0.0
H805 H 0.26354 0.22541 0.92876 0.0
H806 H 0.21609 0.18681 0.01437 0.0
C807 C 0.18524 0.22858 0.04223 0.0
C808 C 0.22213 0.23403 0.97046 0.0
C809 C 0.17789 0.23934 0.06015 0.0
C810 C 0.26731 0.2019 0.91281 0.0
C811 C 0.25688 0.20998 0.92863 0.0
C812 C 0.21761 0.19977 0.00116 0.0
C813 C 0.20436 0.23749 0.029 0.0
C814 C 0.2119 0.22664 0.0066 0.0
C815 C 0.23867 0.19845 0.94584 0.0
C816 C 0.22836 0.20745 0.96551 0.0
H817 H 0.21847 0.28308 0.05807 0.0
H818 H 0.23107 0.26438 0.02658 0.0
H819 H 0.20158 0.20318 0.04915 0.0
H820 H 0.23532 0.15499 0.93134 0.0
H821 H 0.21685 0.16907 0.95782 0.0
C822 C 0.81708 0.07306 0.93987 0.0
C823 C 0.83675 0.08368 0.93083 0.0
C824 C 0.80907 0.05474 0.95661 0.0
C825 C 0.81567 0.01313 0.9715 0.0
H826 H 0.78223 1.00337 0.06355 0.0
C827 C 0.78204 0.9412 0.05982 0.0
C828 C 0.76279 0.93343 0.07169 0.0
C829 C 0.79245 0.95996 0.04487 0.0
C830 C 0.79134 1.0057 0.03762 0.0
H831 H 0.86321 0.08275 0.93074 0.0
H832 H 0.84908 0.05057 0.95945 0.0
H833 H 0.79715 0.03449 0.03069 0.0
H834 H 0.73966 0.9397 0.07791 0.0
H835 H 0.75753 0.97194 0.05151 0.0
H836 H 0.80948 0.98416 0.97778 0.0
C837 C 0.83993 0.05659 0.95373 0.0
C838 C 0.79994 0.02361 0.01879 0.0
C839 C 0.84801 0.07505 0.93729 0.0
C840 C 0.75445 0.94512 0.06929 0.0
C841 C 0.76479 0.96377 0.05425 0.0
C842 C 0.8069 0.99509 0.99013 0.0
C843 C 0.82045 0.04641 0.96449 0.0
C844 C 0.81201 0.02749 0.9852 0.0
C845 C 0.78388 0.97143 0.04134 0.0
C846 C 0.7944 0.99104 0.02318 0.0
H847 H 0.80788 0.07912 0.9353 0.0
H848 H 0.79395 0.04716 0.96387 0.0
H849 H 0.82485 0.01565 0.9456 0.0
H850 H 0.78898 0.93268 0.06123 0.0
H851 H 0.80719 0.96542 0.03587 0.0
C852 C 0.94605 0.77457 0.93924 0.0
C853 C 0.93797 0.75497 0.93033 0.0
C854 C 0.96445 0.78492 0.95609 0.0
C855 C 0.99807 0.77747 0.01803 0.0
H856 H 0.03673 0.82778 0.98156 0.0
C857 C 0.07672 0.81109 0.06849 0.0
C858 C 0.08798 0.83105 0.0728 0.0
C859 C 0.05805 0.80271 0.05346 0.0
C860 C 0.02601 0.81388 0.99267 0.0
H861 H 0.94343 0.7312 0.93091 0.0
H862 H 0.97526 0.74918 0.96024 0.0
H863 H 1.00529 0.81179 0.94907 0.0
H864 H 0.08792 0.85775 0.06584 0.0
H865 H 0.05513 0.84307 0.04057 0.0
H866 H 0.01846 0.77948 0.06188 0.0
C867 C 0.9673 0.75649 0.95457 0.0
C868 C 1.008 0.80469 0.97385 0.0
C869 C 0.94906 0.74622 0.93741 0.0
C870 C 0.07974 0.84234 0.06292 0.0
C871 C 0.06095 0.83392 0.04801 0.0
C872 C 0.01593 0.7867 0.03707 0.0
C873 C 0.97509 0.77586 0.96484 0.0
C874 C 0.99394 0.78623 0.98587 0.0
C875 C 0.04993 0.81399 0.04251 0.0
C876 C 0.03032 0.8049 0.02425 0.0
H877 H 0.93798 0.78182 0.93422 0.0
H878 H 0.97004 0.79983 0.96367 0.0
H879 H 0.9874 0.76343 0.02862 0.0
H880 H 0.08251 0.80187 0.07553 0.0
H881 H 0.05022 0.78737 0.04917 0.0
C882 C 0.86369 0.79024 0.94575 0.0
C883 C 0.85337 0.77091 0.93435 0.0
C884 C 0.85424 0.79953 0.96075 0.0
C885 C 0.80586 0.79505 0.97015 0.0
H886 H 0.83098 0.83285 0.05448 0.0
C887 C 0.76746 0.82783 0.06073 0.0
C888 C 0.77754 0.84786 0.06432 0.0
C889 C 0.77654 0.81814 0.04576 0.0
C890 C 0.82382 0.8224 0.0308 0.0
H891 H 0.82495 0.7462 0.92945 0.0
H892 H 0.80845 0.76217 0.95661 0.0
H893 H 0.84687 0.81659 0.02597 0.0
H894 H 0.80518 0.87336 0.05593 0.0
H895 H 0.8211 0.85642 0.03062 0.0
H896 H 0.78262 0.80068 0.97588 0.0
C897 C 0.82385 0.77038 0.95315 0.0
C898 C 0.83298 0.81312 0.01419 0.0
C899 C 0.83332 0.76116 0.93765 0.0
C900 C 0.79702 0.85793 0.0536 0.0
C901 C 0.80616 0.84821 0.0392 0.0
C902 C 0.79661 0.80418 0.98715 0.0
C903 C 0.83419 0.78967 0.96533 0.0
C904 C 0.82422 0.79939 0.98337 0.0
C905 C 0.79597 0.82823 0.03461 0.0
C906 C 0.80553 0.81805 0.01749 0.0
H907 H 0.87916 0.79821 0.94338 0.0
H908 H 0.86273 0.81448 0.96878 0.0
H909 H 0.79872 0.78482 0.94612 0.0
H910 H 0.75242 0.81967 0.06856 0.0
H911 H 0.76835 0.80272 0.04292 0.0
C912 C 0.19333 0.94158 0.06247 0.0
C913 C 0.17324 0.93156 0.06506 0.0
C914 C 0.20314 0.96028 0.04726 0.0
C915 C 0.19522 0.99447 0.98545 0.0
H916 H 0.24512 0.03182 0.02667 0.0
C917 C 0.23126 0.07504 0.94761 0.0
C918 C 0.25084 0.08463 0.93778 0.0
C919 C 0.22218 0.05623 0.96196 0.0
C920 C 0.23128 0.02148 0.01456 0.0
H921 H 0.14775 0.93357 0.05492 0.0
H922 H 0.16479 0.96631 0.02984 0.0
H923 H 0.22848 0.99972 0.05561 0.0
H924 H 0.27626 0.08194 0.93532 0.0
H925 H 0.26041 0.04904 0.96096 0.0
H926 H 0.19788 0.01645 0.9451 0.0
C927 C 0.17303 0.9596 0.03834 0.0
C928 C 0.22171 1.00303 0.03111 0.0
C929 C 0.16323 0.94085 0.05313 0.0
C930 C 0.26115 0.07492 0.9425 0.0
C931 C 0.2521 0.05614 0.95742 0.0
C932 C 0.20469 0.01296 0.96926 0.0
C933 C 0.19313 0.96953 0.03459 0.0
C934 C 0.20349 0.98924 0.0169 0.0
C935 C 0.23251 0.04658 0.96733 0.0
C936 C 0.2228 0.02671 0.98369 0.0
H937 H 0.20148 0.93478 0.07113 0.0
H938 H 0.21856 0.96726 0.04444 0.0
H939 H 0.18146 0.98421 0.9729 0.0
H940 H 0.2229 0.0821 0.94436 0.0
H941 H 0.20713 0.04935 0.96965 0.0
C942 C 0.94768 0.18779 0.93646 0.0
C943 C 0.93765 0.16778 0.93278 0.0
C944 C 0.96632 0.19738 0.95209 0.0
C945 C 1.00014 0.1886 0.01331 0.0
H946 H 0.03755 0.23932 0.97623 0.0
C947 C 0.08071 0.22529 0.05408 0.0
C948 C 0.0899 0.2447 0.06495 0.0
C949 C 0.0619 0.21604 0.03955 0.0
C950 C 0.02719 0.22523 0.98718 0.0
H951 H 0.93961 0.14219 0.94125 0.0
H952 H 0.97228 0.15886 0.96695 0.0
H953 H 1.00578 0.22292 0.94566 0.0
H954 H 0.08644 0.26961 0.06941 0.0
H955 H 0.05358 0.25347 0.04354 0.0
H956 H 0.02182 0.1908 0.05411 0.0
C957 C 0.96561 0.1672 0.95905 0.0
C958 C 1.00892 0.2158 0.9697 0.0
C959 C 0.9469 0.15762 0.94388 0.0
C960 C 0.07974 0.25461 0.06148 0.0
C961 C 0.06098 0.24542 0.04637 0.0
C962 C 0.01847 0.19794 0.03042 0.0
C963 C 0.97551 0.18721 0.96406 0.0
C964 C 0.9951 0.19731 0.98246 0.0
C965 C 0.05189 0.22605 0.035 0.0
C966 C 0.03222 0.21636 0.01756 0.0
H967 H 0.9409 0.19605 0.92851 0.0
H968 H 0.97327 0.21272 0.95588 0.0
H969 H 0.98985 0.1746 0.02474 0.0
H970 H 0.08814 0.21725 0.05631 0.0
H971 H 0.05536 0.20116 0.03079 0.0
C972 C 0.87722 0.60178 0.39094 0.0
C973 C 0.85754 0.59317 0.39969 0.0
C974 C 0.88479 0.59128 0.37314 0.0
C975 C 0.87704 0.54298 0.35494 0.0
H976 H 0.91063 0.56708 0.26332 0.0
C977 C 0.91021 0.50469 0.26523 0.0
C978 C 0.92959 0.51602 0.25425 0.0
C979 C 0.89982 0.51312 0.27991 0.0
C980 C 0.90146 0.56017 0.28909 0.0
H981 H 0.83061 0.56635 0.39815 0.0
H982 H 0.84401 0.54794 0.36767 0.0
H983 H 0.89613 0.58342 0.29755 0.0
H984 H 0.95292 0.54528 0.24884 0.0
H985 H 0.93507 0.55982 0.27472 0.0
H986 H 0.88279 0.51996 0.34728 0.0
C987 C 0.85348 0.56291 0.37438 0.0
C988 C 0.89311 0.56956 0.30869 0.0
C989 C 0.84582 0.57349 0.39184 0.0
C990 C 0.93804 0.53602 0.25684 0.0
C991 C 0.9277 0.54442 0.2716 0.0
C992 C 0.88557 0.53364 0.33556 0.0
C993 C 0.87298 0.57183 0.36392 0.0
C994 C 0.88101 0.56122 0.34219 0.0
C995 C 0.90853 0.53311 0.28402 0.0
C996 C 0.89813 0.54224 0.30268 0.0
H997 H 0.88675 0.61686 0.39653 0.0
H998 H 0.89994 0.59849 0.3661 0.0
H999 H 0.86782 0.5362 0.38074 0.0
H1000 H 0.90317 0.48924 0.26365 0.0
H1001 H 0.885 0.50394 0.28848 0.0
C1002 C 0.5159 0.40796 0.2692 0.0
C1003 C 0.50453 0.41655 0.26389 0.0
C1004 C 0.50819 0.38971 0.28659 0.0
C1005 C 0.47045 0.35826 0.35723 0.0
H1006 H 0.47709 0.31727 0.31438 0.0
C1007 C 0.42494 0.28085 0.41388 0.0
C1008 C 0.43245 0.26842 0.4136 0.0
C1009 C 0.43541 0.29935 0.39814 0.0
C1010 C 0.47537 0.32865 0.32728 0.0
H1011 H 0.47582 0.41212 0.27139 0.0
H1012 H 0.46257 0.38057 0.30179 0.0
H1013 H 0.49191 0.34821 0.27991 0.0
H1014 H 0.45745 0.26625 0.398 0.0
H1015 H 0.47596 0.29878 0.3716 0.0
H1016 H 0.45425 0.33908 0.40486 0.0
C1017 C 0.47748 0.38801 0.29275 0.0
C1018 C 0.48381 0.34636 0.30731 0.0
C1019 C 0.48509 0.40608 0.27497 0.0
C1020 C 0.45115 0.27537 0.39875 0.0
C1021 C 0.46171 0.294 0.38314 0.0
C1022 C 0.46225 0.34071 0.37743 0.0
C1023 C 0.48901 0.37976 0.29955 0.0
C1024 C 0.48111 0.36124 0.32164 0.0
C1025 C 0.45383 0.30615 0.3819 0.0
C1026 C 0.46424 0.32547 0.36237 0.0
H1027 H 0.53092 0.41555 0.26105 0.0
H1028 H 0.51743 0.38372 0.2914 0.0
H1029 H 0.46846 0.36959 0.36954 0.0
H1030 H 0.4106 0.27609 0.42485 0.0
H1031 H 0.42864 0.30804 0.39731 0.0
C1032 C 0.61664 0.08109 0.2592 0.0
C1033 C 0.60471 0.08918 0.25763 0.0
C1034 C 0.63531 0.0915 0.2742 0.0
C1035 C 0.66603 0.13299 0.34001 0.0
H1036 H 0.70608 0.12429 0.29884 0.0
C1037 C 0.74571 0.17415 0.39481 0.0
C1038 C 0.75446 0.16298 0.40097 0.0
C1039 C 0.72734 0.1661 0.37784 0.0
C1040 C 0.69501 0.12678 0.31089 0.0
H1041 H 0.60359 0.11506 0.26929 0.0
H1042 H 0.63635 0.13339 0.29454 0.0
H1043 H 0.67507 0.10946 0.26533 0.0
H1044 H 0.75024 0.13432 0.39525 0.0
H1045 H 0.71843 0.12046 0.36571 0.0
H1046 H 0.68626 0.15054 0.38535 0.0
C1047 C 0.63106 0.11877 0.28497 0.0
C1048 C 0.67718 0.11824 0.2917 0.0
C1049 C 0.6123 0.1083 0.27008 0.0
C1050 C 0.74407 0.14343 0.39099 0.0
C1051 C 0.72585 0.13548 0.37368 0.0
C1052 C 0.68399 0.1417 0.359 0.0
C1053 C 0.64274 0.11041 0.28787 0.0
C1054 C 0.66228 0.12092 0.30636 0.0
C1055 C 0.7174 0.14677 0.36619 0.0
C1056 C 0.69857 0.13842 0.34507 0.0
H1057 H 0.61137 0.06641 0.25008 0.0
H1058 H 0.64366 0.08439 0.27638 0.0
H1059 H 0.65491 0.13525 0.35255 0.0
H1060 H 0.75324 0.18924 0.4021 0.0
H1061 H 0.72122 0.17518 0.37244 0.0
C1062 C 0.52904 0.12259 0.28151 0.0
C1063 C 0.51886 0.10332 0.26964 0.0
C1064 C 0.51942 0.13171 0.29652 0.0
C1065 C 0.47105 0.12719 0.3042 0.0
H1066 H 0.49529 0.16421 0.39024 0.0
C1067 C 0.43223 0.16038 0.39231 0.0
C1068 C 0.44269 0.18034 0.39723 0.0
C1069 C 0.44117 0.15048 0.37766 0.0
C1070 C 0.48837 0.15399 0.36606 0.0
H1071 H 0.49052 0.07854 0.26395 0.0
H1072 H 0.47373 0.09425 0.29099 0.0
H1073 H 0.51135 0.14801 0.3623 0.0
H1074 H 0.4708 0.20548 0.39138 0.0
H1075 H 0.4864 0.18821 0.3665 0.0
H1076 H 0.44791 0.13305 0.30869 0.0
C1077 C 0.48915 0.10251 0.28796 0.0
C1078 C 0.49763 0.14474 0.34981 0.0
C1079 C 0.49879 0.09345 0.27255 0.0
C1080 C 0.46233 0.19011 0.388 0.0
C1081 C 0.4713 0.1802 0.37387 0.0
C1082 C 0.4617 0.13632 0.32078 0.0
C1083 C 0.49934 0.12174 0.30055 0.0
C1084 C 0.4892 0.13132 0.31836 0.0
C1085 C 0.46081 0.16029 0.36815 0.0
C1086 C 0.47033 0.14995 0.35168 0.0
H1087 H 0.54452 0.13065 0.27946 0.0
H1088 H 0.52779 0.14662 0.30494 0.0
H1089 H 0.46417 0.11717 0.2797 0.0
H1090 H 0.41706 0.15244 0.39901 0.0
H1091 H 0.43272 0.13513 0.37391 0.0
C1092 C 0.82756 0.27274 0.3871 0.0
C1093 C 0.83794 0.26385 0.39918 0.0
C1094 C 0.83698 0.29141 0.37181 0.0
C1095 C 0.8852 0.3353 0.36284 0.0
H1096 H 0.86066 0.34728 0.27581 0.0
C1097 C 0.92427 0.40572 0.27059 0.0
C1098 C 0.91417 0.4156 0.26512 0.0
C1099 C 0.91505 0.38708 0.28611 0.0
C1100 C 0.86765 0.3442 0.30027 0.0
H1101 H 0.86644 0.26772 0.40509 0.0
H1102 H 0.88287 0.30005 0.37756 0.0
H1103 H 0.84466 0.31539 0.30546 0.0
H1104 H 0.88636 0.41344 0.27066 0.0
H1105 H 0.87022 0.38079 0.29703 0.0
H1106 H 0.90838 0.36411 0.35684 0.0
C1107 C 0.86745 0.29282 0.38064 0.0
C1108 C 0.85843 0.32591 0.3175 0.0
C1109 C 0.85801 0.27421 0.39636 0.0
C1110 C 0.89454 0.40622 0.27444 0.0
C1111 C 0.88527 0.38749 0.28945 0.0
C1112 C 0.89451 0.35353 0.34527 0.0
C1113 C 0.85705 0.30164 0.3677 0.0
C1114 C 0.867 0.32119 0.34923 0.0
C1115 C 0.89548 0.37779 0.296 0.0
C1116 C 0.8858 0.35823 0.31391 0.0
H1117 H 0.81208 0.26519 0.38906 0.0
H1118 H 0.82846 0.29779 0.36313 0.0
H1119 H 0.89218 0.3324 0.38757 0.0
H1120 H 0.93942 0.41256 0.26386 0.0
H1121 H 0.92327 0.37992 0.29041 0.0
C1122 C 0.61491 0.52102 0.27097 0.0
C1123 C 0.60494 0.50102 0.26705 0.0
C1124 C 0.63355 0.53062 0.28659 0.0
C1125 C 0.66759 0.52191 0.34724 0.0
H1126 H 0.70482 0.57267 0.30998 0.0
C1127 C 0.7483 0.55883 0.38727 0.0
C1128 C 0.75749 0.57828 0.39788 0.0
C1129 C 0.72943 0.54951 0.37298 0.0
C1130 C 0.69451 0.55857 0.32099 0.0
H1131 H 0.607 0.47547 0.27521 0.0
H1132 H 0.63967 0.49217 0.30094 0.0
H1133 H 0.67297 0.55623 0.27981 0.0
H1134 H 0.75397 0.60315 0.40217 0.0
H1135 H 0.72104 0.58689 0.37677 0.0
H1136 H 0.6894 0.52416 0.3877 0.0
C1137 C 0.63295 0.50049 0.29319 0.0
C1138 C 0.67619 0.54912 0.30374 0.0
C1139 C 0.61424 0.49089 0.27801 0.0
C1140 C 0.74727 0.58814 0.39442 0.0
C1141 C 0.72847 0.57887 0.37958 0.0
C1142 C 0.68597 0.53128 0.36413 0.0
C1143 C 0.64281 0.52048 0.29834 0.0
C1144 C 0.66244 0.53062 0.31656 0.0
C1145 C 0.71938 0.55947 0.36844 0.0
C1146 C 0.69966 0.54972 0.35121 0.0
H1147 H 0.6081 0.52925 0.26313 0.0
H1148 H 0.64046 0.54596 0.29052 0.0
H1149 H 0.65735 0.5079 0.3587 0.0
H1150 H 0.75576 0.55083 0.3895 0.0
H1151 H 0.7229 0.53461 0.3644 0.0
C1152 C 0.60455 0.86968 0.59137 0.0
C1153 C 0.59625 0.84973 0.58744 0.0
C1154 C 0.59437 0.87765 0.60889 0.0
C1155 C 0.54694 0.87019 0.63474 0.0
H1156 H 0.5743 0.90651 0.72034 0.0
C1157 C 0.51197 0.9061 0.72695 0.0
C1158 C 0.52375 0.92562 0.73606 0.0
C1159 C 0.51981 0.89534 0.71131 0.0
C1160 C 0.56648 0.8966 0.69622 0.0
H1161 H 0.57013 0.82265 0.59678 0.0
H1162 H 0.55218 0.83675 0.62664 0.0
H1163 H 0.58943 0.89103 0.68521 0.0
H1164 H 0.55318 0.94892 0.73651 0.0
H1165 H 0.56667 0.93047 0.70873 0.0
H1166 H 0.52421 0.87621 0.64476 0.0
C1167 C 0.56672 0.84611 0.61647 0.0
C1168 C 0.57517 0.88767 0.67616 0.0
C1169 C 0.57702 0.83805 0.59933 0.0
C1170 C 0.54361 0.93393 0.73015 0.0
C1171 C 0.5514 0.92325 0.7143 0.0
C1172 C 0.5383 0.87933 0.65449 0.0
C1173 C 0.57552 0.86596 0.62254 0.0
C1174 C 0.56562 0.87457 0.64484 0.0
C1175 C 0.53963 0.90384 0.7042 0.0
C1176 C 0.54808 0.8929 0.68516 0.0
H1177 H 0.61926 0.8792 0.58252 0.0
H1178 H 0.60141 0.89303 0.61254 0.0
H1179 H 0.53925 0.86016 0.61067 0.0
H1180 H 0.49661 0.89917 0.73116 0.0
H1181 H 0.51029 0.88038 0.70459 0.0
C1182 C 0.18248 0.74206 0.60209 0.0
C1183 C 0.17115 0.75072 0.59704 0.0
C1184 C 0.17478 0.72385 0.61962 0.0
C1185 C 0.13742 0.69272 0.69111 0.0
H1186 H 0.14368 0.65153 0.64798 0.0
C1187 C 0.09226 0.61547 0.74893 0.0
C1188 C 0.09974 0.60301 0.74817 0.0
C1189 C 0.10263 0.63394 0.73305 0.0
C1190 C 0.14208 0.66297 0.66095 0.0
H1191 H 0.14253 0.74645 0.60515 0.0
H1192 H 0.12931 0.71494 0.63581 0.0
H1193 H 0.15831 0.68236 0.61312 0.0
H1194 H 0.12462 0.6008 0.73169 0.0
H1195 H 0.14299 0.63329 0.70511 0.0
H1196 H 0.12153 0.6737 0.73922 0.0
C1197 C 0.14417 0.72231 0.62644 0.0
C1198 C 0.1504 0.68061 0.64076 0.0
C1199 C 0.15176 0.74035 0.60851 0.0
C1200 C 0.11835 0.60994 0.73278 0.0
C1201 C 0.12882 0.62854 0.71708 0.0
C1202 C 0.12934 0.67523 0.71154 0.0
C1203 C 0.15567 0.71401 0.63298 0.0
C1204 C 0.14784 0.69555 0.65522 0.0
C1205 C 0.12094 0.64068 0.71622 0.0
C1206 C 0.1312 0.65993 0.6964 0.0
H1207 H 0.19746 0.74958 0.59363 0.0
H1208 H 0.184 0.71782 0.62423 0.0
H1209 H 0.13554 0.70409 0.7035 0.0
H1210 H 0.07798 0.61072 0.76032 0.0
H1211 H 0.09587 0.64264 0.73253 0.0
C1212 C 0.41068 0.47754 0.72826 0.0
C1213 C 0.42131 0.49723 0.73681 0.0
C1214 C 0.39245 0.4695 0.71097 0.0
C1215 C 0.35091 0.476 0.69378 0.0
H1216 H 0.34176 0.44236 0.60258 0.0
C1217 C 0.27927 0.44185 0.60432 0.0
C1218 C 0.2716 0.4226 0.59285 0.0
C1219 C 0.29801 0.45238 0.61939 0.0
C1220 C 0.34392 0.45152 0.62827 0.0
H1221 H 0.42047 0.52369 0.73545 0.0
H1222 H 0.38842 0.5095 0.70585 0.0
H1223 H 0.37273 0.45743 0.63621 0.0
H1224 H 0.27806 0.39961 0.58735 0.0
H1225 H 0.31028 0.41767 0.61397 0.0
H1226 H 0.32191 0.4697 0.68657 0.0
C1227 C 0.39437 0.50036 0.71235 0.0
C1228 C 0.36174 0.46021 0.64752 0.0
C1229 C 0.41276 0.50849 0.7293 0.0
C1230 C 0.2834 0.41439 0.59566 0.0
C1231 C 0.30203 0.42485 0.61084 0.0
C1232 C 0.33295 0.46714 0.67474 0.0
C1233 C 0.38421 0.48086 0.70207 0.0
C1234 C 0.3654 0.47236 0.68083 0.0
C1235 C 0.30957 0.44393 0.62346 0.0
C1236 C 0.32911 0.45456 0.642 0.0
H1237 H 0.41667 0.46834 0.7336 0.0
H1238 H 0.38486 0.45436 0.70409 0.0
H1239 H 0.35326 0.48525 0.71944 0.0
H1240 H 0.27067 0.44871 0.60258 0.0
H1241 H 0.30337 0.46712 0.62812 0.0
C1242 C 0.16597 0.42752 0.60466 0.0
C1243 C 0.18604 0.43729 0.60151 0.0
C1244 C 0.15643 0.4368 0.61943 0.0
C1245 C 0.16523 0.47983 0.67887 0.0
H1246 H 0.11519 0.46742 0.63843 0.0
C1247 C 0.12957 0.52508 0.71594 0.0
C1248 C 0.10999 0.5152 0.72586 0.0
C1249 C 0.13861 0.51523 0.70177 0.0
C1250 C 0.12909 0.47092 0.65031 0.0
H1251 H 0.21177 0.46468 0.61024 0.0
H1252 H 0.19521 0.48102 0.63453 0.0
H1253 H 0.13139 0.45131 0.61033 0.0
H1254 H 0.08457 0.48718 0.72867 0.0
H1255 H 0.10033 0.46998 0.70349 0.0
H1256 H 0.16304 0.49975 0.71819 0.0
C1257 C 0.18677 0.46602 0.62683 0.0
C1258 C 0.13839 0.46164 0.63426 0.0
C1259 C 0.1963 0.45668 0.61249 0.0
C1260 C 0.09968 0.49521 0.72142 0.0
C1261 C 0.10867 0.48537 0.70673 0.0
C1262 C 0.15601 0.48924 0.69457 0.0
C1263 C 0.1667 0.45616 0.6311 0.0
C1264 C 0.15664 0.46598 0.64822 0.0
C1265 C 0.12825 0.49527 0.69666 0.0
C1266 C 0.13784 0.48493 0.68047 0.0
H1267 H 0.15765 0.41252 0.59676 0.0
H1268 H 0.14102 0.4286 0.62269 0.0
H1269 H 0.17903 0.48331 0.6912 0.0
H1270 H 0.13794 0.54047 0.71895 0.0
H1271 H 0.15366 0.52331 0.69397 0.0
C1272 C 0.52585 0.60802 0.7296 0.0
C1273 C 0.50577 0.59786 0.73231 0.0
C1274 C 0.5355 0.62669 0.71414 0.0
C1275 C 0.52717 0.66053 0.65192 0.0
H1276 H 0.57717 0.69807 0.69232 0.0
C1277 C 0.56374 0.74112 0.6118 0.0
C1278 C 0.58338 0.75054 0.6025 0.0
C1279 C 0.55443 0.7223 0.62628 0.0
C1280 C 0.56329 0.68769 0.68044 0.0
H1281 H 0.48012 0.59958 0.7221 0.0
H1282 H 0.49688 0.63226 0.69661 0.0
H1283 H 0.56062 0.66614 0.72194 0.0
H1284 H 0.60862 0.74749 0.60089 0.0
H1285 H 0.59237 0.71466 0.62661 0.0
H1286 H 0.52973 0.68232 0.61108 0.0
C1287 C 0.50524 0.6257 0.70521 0.0
C1288 C 0.55378 0.66932 0.69737 0.0
C1289 C 0.4956 0.60697 0.72025 0.0
C1290 C 0.59346 0.74062 0.60764 0.0
C1291 C 0.58419 0.72187 0.62264 0.0
C1292 C 0.53659 0.67895 0.63533 0.0
C1293 C 0.52533 0.63576 0.70134 0.0
C1294 C 0.53554 0.65544 0.68342 0.0
C1295 C 0.56458 0.71251 0.63232 0.0
C1296 C 0.55476 0.69277 0.64938 0.0
H1297 H 0.53412 0.60136 0.73832 0.0
H1298 H 0.55092 0.63377 0.71122 0.0
H1299 H 0.51338 0.65021 0.6396 0.0
H1300 H 0.55556 0.74834 0.60825 0.0
H1301 H 0.53936 0.71557 0.63373 0.0
C1302 C 0.28168 0.8548 0.60364 0.0
C1303 C 0.27164 0.83479 0.59982 0.0
C1304 C 0.30031 0.86434 0.61931 0.0
C1305 C 0.33407 0.85545 0.68038 0.0
H1306 H 0.37158 0.90606 0.64289 0.0
C1307 C 0.41468 0.89193 0.72054 0.0
C1308 C 0.42391 0.91136 0.73132 0.0
C1309 C 0.39584 0.88271 0.70615 0.0
C1310 C 0.36119 0.892 0.65395 0.0
H1311 H 0.27355 0.80917 0.60813 0.0
H1312 H 0.3062 0.82576 0.63394 0.0
H1313 H 0.33977 0.88974 0.61253 0.0
H1314 H 0.42054 0.93631 0.73578 0.0
H1315 H 0.38765 0.92023 0.71014 0.0
H1316 H 0.35576 0.85762 0.72107 0.0
C1317 C 0.29955 0.83413 0.62609 0.0
C1318 C 0.3429 0.88262 0.6366 0.0
C1319 C 0.28085 0.82459 0.61087 0.0
C1320 C 0.41379 0.92131 0.72789 0.0
C1321 C 0.39502 0.91215 0.71293 0.0
C1322 C 0.35241 0.86475 0.69736 0.0
C1323 C 0.30946 0.85412 0.63118 0.0
C1324 C 0.32906 0.86418 0.64951 0.0
C1325 C 0.38588 0.89277 0.70166 0.0
C1326 C 0.3662 0.88312 0.68435 0.0
H1327 H 0.27493 0.86308 0.59573 0.0
H1328 H 0.30728 0.87968 0.62319 0.0
H1329 H 0.32374 0.84148 0.69189 0.0
H1330 H 0.42208 0.88387 0.72277 0.0
H1331 H 0.38926 0.86782 0.69745 0.0
loop_
_geom_bond_atom_site_label_1
_geom_bond_atom_site_label_2
_geom_bond_distance
_geom_bond_site_symmetry_2
_ccdc_geom_bond_type
Co0 O1 2.216 . S
Co0 O2 2.091 . S
Co0 O4 2.004 . S
Co0 O10 2.024 1_554 S
Co0 O12 2.137 . S
Co0 O13 2.244 . S
O1 Co0 2.216 . S
O1 C8 1.247 . S
O2 Co0 2.091 . S
O2 C8 1.261 . S
C3 O12 1.247 . S
C3 O13 1.272 . S
O4 Co0 2.004 . S
O4 C9 1.259 . S
Co5 O6 2.061 . S
Co5 O11 2.052 . S
Co5 O13 2.135 . S
O6 Co5 2.061 . S
O6 C9 1.235 . S
C7 O10 1.237 . S
C7 O11 1.241 1_556 S
C8 O1 1.247 . S
C8 O2 1.261 . S
C9 O4 1.259 . S
C9 O6 1.235 . S
O10 Co0 2.024 1_556 S
O10 C7 1.237 . S
O11 Co5 2.052 . S
O11 C7 1.241 1_554 S
O12 Co0 2.137 . S
O12 C3 1.247 . S
O13 Co0 2.244 . S
O13 C3 1.272 . S
O13 Co5 2.135 . S
Co14 O15 2.216 . S
Co14 O16 2.091 . S
Co14 O18 2.004 . S
Co14 O24 2.018 . S
Co14 O26 2.137 . S
Co14 O27 2.244 . S
O15 Co14 2.216 . S
O15 C22 1.247 . S
O16 Co14 2.091 . S
O16 C22 1.261 . S
C17 O26 1.247 . S
C17 O27 1.272 . S
O18 Co14 2.004 . S
O18 C23 1.259 . S
Co19 O20 2.061 . S
Co19 O25 2.052 . S
Co19 O27 2.135 . S
O20 Co19 2.061 . S
O20 C23 1.235 . S
C21 O24 1.238 1_556 S
C21 O25 1.241 1_556 S
C22 O15 1.247 . S
C22 O16 1.261 . S
C23 O18 1.259 . S
C23 O20 1.235 . S
O24 Co14 2.018 . S
O24 C21 1.238 1_554 S
O25 Co19 2.052 . S
O25 C21 1.241 1_554 S
O26 Co14 2.137 . S
O26 C17 1.247 . S
O27 Co14 2.244 . S
O27 C17 1.272 . S
O27 Co19 2.135 . S
Co28 O29 2.216 . S
Co28 O30 2.091 . S
Co28 O32 2.004 . S
Co28 O38 2.023 1_554 S
Co28 O40 2.137 . S
Co28 O41 2.244 . S
O29 Co28 2.216 . S
O29 C36 1.247 . S
O30 Co28 2.091 . S
O30 C36 1.261 . S
C31 O40 1.247 . S
C31 O41 1.272 . S
O32 Co28 2.004 . S
O32 C37 1.259 . S
Co33 O34 2.061 . S
Co33 O39 2.052 . S
Co33 O41 2.135 . S
O34 Co33 2.061 . S
O34 C37 1.235 . S
C35 O38 1.237 . S
C35 O39 1.241 1_556 S
C36 O29 1.247 . S
C36 O30 1.261 . S
C37 O32 1.259 . S
C37 O34 1.235 . S
O38 Co28 2.023 1_556 S
O38 C35 1.237 . S
O39 Co33 2.052 . S
O39 C35 1.241 1_554 S
O40 Co28 2.137 . S
O40 C31 1.247 . S
O41 Co28 2.244 . S
O41 C31 1.272 . S
O41 Co33 2.135 . S
Co42 O43 2.216 . S
Co42 O44 2.091 . S
Co42 O46 2.004 . S
Co42 O52 2.024 1_556 S
Co42 O54 2.137 . S
Co42 O55 2.244 . S
O43 Co42 2.216 . S
O43 C50 1.247 . S
O44 Co42 2.091 . S
O44 C50 1.261 . S
C45 O54 1.247 . S
C45 O55 1.272 . S
O46 Co42 2.004 . S
O46 C51 1.259 . S
Co47 O48 2.061 . S
Co47 O53 2.052 . S
Co47 O55 2.135 . S
O48 Co47 2.061 . S
O48 C51 1.235 . S
C49 O52 1.237 . S
C49 O53 1.241 1_554 S
C50 O43 1.247 . S
C50 O44 1.261 . S
C51 O46 1.259 . S
C51 O48 1.235 . S
O52 Co42 2.024 1_554 S
O52 C49 1.237 . S
O53 Co47 2.052 . S
O53 C49 1.241 1_556 S
O54 Co42 2.137 . S
O54 C45 1.247 . S
O55 Co42 2.244 . S
O55 C45 1.272 . S
O55 Co47 2.135 . S
Co56 O57 2.216 . S
Co56 O58 2.091 . S
Co56 O60 2.004 . S
Co56 O66 2.023 1_556 S
Co56 O68 2.137 . S
Co56 O69 2.244 . S
O57 Co56 2.216 . S
O57 C64 1.247 . S
O58 Co56 2.091 . S
O58 C64 1.261 . S
C59 O68 1.247 . S
C59 O69 1.272 . S
O60 Co56 2.004 . S
O60 C65 1.259 . S
Co61 O62 2.061 . S
Co61 O67 2.052 . S
Co61 O69 2.135 . S
O62 Co61 2.061 . S
O62 C65 1.235 . S
C63 O66 1.237 . S
C63 O67 1.241 1_554 S
C64 O57 1.247 . S
C64 O58 1.261 . S
C65 O60 1.259 . S
C65 O62 1.235 . S
O66 Co56 2.023 1_554 S
O66 C63 1.237 . S
O67 Co61 2.052 . S
O67 C63 1.241 1_556 S
O68 Co56 2.137 . S
O68 C59 1.247 . S
O69 Co56 2.244 . S
O69 C59 1.272 . S
O69 Co61 2.135 . S
Co70 O71 2.216 . S
Co70 O72 2.091 . S
Co70 O74 2.004 . S
Co70 O80 2.018 . S
Co70 O82 2.137 . S
Co70 O83 2.244 . S
O71 Co70 2.216 . S
O71 C78 1.247 . S
O72 Co70 2.091 . S
O72 C78 1.261 . S
C73 O82 1.247 . S
C73 O83 1.272 . S
O74 Co70 2.004 . S
O74 C79 1.259 . S
Co75 O76 2.061 . S
Co75 O81 2.052 . S
Co75 O83 2.135 . S
O76 Co75 2.061 . S
O76 C79 1.235 . S
C77 O80 1.238 1_554 S
C77 O81 1.241 1_554 S
C78 O71 1.247 . S
C78 O72 1.261 . S
C79 O74 1.259 . S
C79 O76 1.235 . S
O80 Co70 2.018 . S
O80 C77 1.238 1_556 S
O81 Co75 2.052 . S
O81 C77 1.241 1_556 S
O82 Co70 2.137 . S
O82 C73 1.247 . S
O83 Co70 2.244 . S
O83 C73 1.272 . S
O83 Co75 2.135 . S
Co84 O85 2.216 . S
Co84 O86 2.091 . S
Co84 O88 2.004 . S
Co84 O94 2.021 . S
Co84 O96 2.137 . S
Co84 O97 2.244 . S
O85 Co84 2.216 . S
O85 C92 1.247 . S
O86 Co84 2.091 . S
O86 C92 1.261 . S
C87 O96 1.247 . S
C87 O97 1.272 . S
O88 Co84 2.004 . S
O88 C93 1.259 . S
Co89 O90 2.061 . S
Co89 O95 2.052 . S
Co89 O97 2.135 . S
O90 Co89 2.061 . S
O90 C93 1.235 . S
C91 O94 1.238 . S
C91 O95 1.241 . S
C92 O85 1.247 . S
C92 O86 1.261 . S
C93 O88 1.259 . S
C93 O90 1.235 . S
O94 Co84 2.021 . S
O94 C91 1.238 . S
O95 Co89 2.052 . S
O95 C91 1.241 . S
O96 Co84 2.137 . S
O96 C87 1.247 . S
O97 Co84 2.244 . S
O97 C87 1.272 . S
O97 Co89 2.135 . S
Co98 O99 2.216 . S
Co98 O100 2.091 . S
Co98 O102 2.004 . S
Co98 O108 2.021 . S
Co98 O110 2.137 . S
Co98 O111 2.244 . S
O99 Co98 2.216 . S
O99 C106 1.247 . S
O100 Co98 2.091 . S
O100 C106 1.261 . S
C101 O110 1.247 . S
C101 O111 1.272 . S
O102 Co98 2.004 . S
O102 C107 1.259 . S
Co103 O104 2.061 . S
Co103 O109 2.052 . S
Co103 O111 2.135 . S
O104 Co103 2.061 . S
O104 C107 1.235 . S
C105 O108 1.238 . S
C105 O109 1.241 . S
C106 O99 1.247 . S
C106 O100 1.261 . S
C107 O102 1.259 . S
C107 O104 1.235 . S
O108 Co98 2.021 . S
O108 C105 1.238 . S
O109 Co103 2.052 . S
O109 C105 1.241 . S
O110 Co98 2.137 . S
O110 C101 1.247 . S
O111 Co98 2.244 . S
O111 C101 1.272 . S
O111 Co103 2.135 . S
Co112 O113 2.216 . S
Co112 O114 2.091 . S
Co112 O116 2.004 . S
Co112 O122 2.021 . S
Co112 O124 2.137 . S
Co112 O125 2.244 . S
O113 Co112 2.216 . S
O113 C120 1.247 . S
O114 Co112 2.091 . S
O114 C120 1.261 . S
C115 O124 1.247 . S
C115 O125 1.272 . S
O116 Co112 2.004 . S
O116 C121 1.259 . S
Co117 O118 2.061 . S
Co117 O123 2.052 . S
Co117 O125 2.135 . S
O118 Co117 2.061 . S
O118 C121 1.235 . S
C119 O122 1.238 . S
C119 O123 1.241 . S
C120 O113 1.247 . S
C120 O114 1.261 . S
C121 O116 1.259 . S
C121 O118 1.235 . S
O122 Co112 2.021 . S
O122 C119 1.238 . S
O123 Co117 2.052 . S
O123 C119 1.241 . S
O124 Co112 2.137 . S
O124 C115 1.247 . S
O125 Co112 2.244 . S
O125 C115 1.272 . S
O125 Co117 2.135 . S
Co126 O127 2.216 . S
Co126 O128 2.091 . S
Co126 O130 2.004 . S
Co126 O136 2.021 . S
Co126 O138 2.137 . S
Co126 O139 2.244 . S
O127 Co126 2.216 . S
O127 C134 1.247 . S
O128 Co126 2.091 . S
O128 C134 1.261 . S
C129 O138 1.247 . S
C129 O139 1.272 . S
O130 Co126 2.004 . S
O130 C135 1.259 . S
Co131 O132 2.061 . S
Co131 O137 2.052 . S
Co131 O139 2.135 . S
O132 Co131 2.061 . S
O132 C135 1.235 . S
C133 O136 1.238 . S
C133 O137 1.241 . S
C134 O127 1.247 . S
C134 O128 1.261 . S
C135 O130 1.259 . S
C135 O132 1.235 . S
O136 Co126 2.021 . S
O136 C133 1.238 . S
O137 Co131 2.052 . S
O137 C133 1.241 . S
O138 Co126 2.137 . S
O138 C129 1.247 . S
O139 Co126 2.244 . S
O139 C129 1.272 . S
O139 Co131 2.135 . S
Co140 O141 2.216 . S
Co140 O142 2.091 . S
Co140 O144 2.004 . S
Co140 O150 2.021 . S
Co140 O152 2.137 . S
Co140 O153 2.244 . S
O141 Co140 2.216 . S
O141 C148 1.247 . S
O142 Co140 2.091 . S
O142 C148 1.261 . S
C143 O152 1.247 . S
C143 O153 1.272 . S
O144 Co140 2.004 . S
O144 C149 1.259 . S
Co145 O146 2.061 . S
Co145 O151 2.052 . S
Co145 O153 2.135 . S
O146 Co145 2.061 . S
O146 C149 1.235 . S
C147 O150 1.238 . S
C147 O151 1.241 . S
C148 O141 1.247 . S
C148 O142 1.261 . S
C149 O144 1.259 . S
C149 O146 1.235 . S
O150 Co140 2.021 . S
O150 C147 1.238 . S
O151 Co145 2.052 . S
O151 C147 1.241 . S
O152 Co140 2.137 . S
O152 C143 1.247 . S
O153 Co140 2.244 . S
O153 C143 1.272 . S
O153 Co145 2.135 . S
Co154 O155 2.216 . S
Co154 O156 2.091 . S
Co154 O158 2.004 . S
Co154 O164 2.021 . S
Co154 O166 2.137 . S
Co154 O167 2.244 . S
O155 Co154 2.216 . S
O155 C162 1.247 . S
O156 Co154 2.091 . S
O156 C162 1.261 . S
C157 O166 1.247 . S
C157 O167 1.272 . S
O158 Co154 2.004 . S
O158 C163 1.259 . S
Co159 O160 2.061 . S
Co159 O165 2.052 . S
Co159 O167 2.135 . S
O160 Co159 2.061 . S
O160 C163 1.235 . S
C161 O164 1.238 . S
C161 O165 1.241 . S
C162 O155 1.247 . S
C162 O156 1.261 . S
C163 O158 1.259 . S
C163 O160 1.235 . S
O164 Co154 2.021 . S
O164 C161 1.238 . S
O165 Co159 2.052 . S
O165 C161 1.241 . S
O166 Co154 2.137 . S
O166 C157 1.247 . S
O167 Co154 2.244 . S
O167 C157 1.272 . S
O167 Co159 2.135 . S
Co168 O169 2.216 . S
Co168 O170 2.091 . S
Co168 O172 2.004 . S
Co168 O178 2.021 . S
Co168 O180 2.137 . S
Co168 O181 2.244 . S
O169 Co168 2.216 . S
O169 C176 1.247 . S
O170 Co168 2.091 . S
O170 C176 1.261 . S
C171 O180 1.247 . S
C171 O181 1.272 . S
O172 Co168 2.004 . S
O172 C177 1.259 . S
Co173 O174 2.061 . S
Co173 O179 2.052 . S
Co173 O181 2.135 . S
O174 Co173 2.061 . S
O174 C177 1.235 . S
C175 O178 1.238 . S
C175 O179 1.241 . S
C176 O169 1.247 . S
C176 O170 1.261 . S
C177 O172 1.259 . S
C177 O174 1.235 . S
O178 Co168 2.021 . S
O178 C175 1.238 . S
O179 Co173 2.052 . S
O179 C175 1.241 . S
O180 Co168 2.137 . S
O180 C171 1.247 . S
O181 Co168 2.244 . S
O181 C171 1.272 . S
O181 Co173 2.135 . S
Co182 O183 2.216 . S
Co182 O184 2.091 . S
Co182 O186 2.004 . S
Co182 O192 2.021 . S
Co182 O194 2.137 . S
Co182 O195 2.244 . S
O183 Co182 2.216 . S
O183 C190 1.247 . S
O184 Co182 2.091 . S
O184 C190 1.261 . S
C185 O194 1.247 . S
C185 O195 1.272 . S
O186 Co182 2.004 . S
O186 C191 1.259 . S
Co187 O188 2.061 . S
Co187 O193 2.052 . S
Co187 O195 2.135 . S
O188 Co187 2.061 . S
O188 C191 1.235 . S
C189 O192 1.238 . S
C189 O193 1.241 . S
C190 O183 1.247 . S
C190 O184 1.261 . S
C191 O186 1.259 . S
C191 O188 1.235 . S
O192 Co182 2.021 . S
O192 C189 1.238 . S
O193 Co187 2.052 . S
O193 C189 1.241 . S
O194 Co182 2.137 . S
O194 C185 1.247 . S
O195 Co182 2.244 . S
O195 C185 1.272 . S
O195 Co187 2.135 . S
Co196 O197 2.216 . S
Co196 O198 2.091 . S
Co196 O200 2.004 . S
Co196 O206 2.021 . S
Co196 O208 2.137 . S
Co196 O209 2.244 . S
O197 Co196 2.216 . S
O197 C204 1.247 . S
O198 Co196 2.091 . S
O198 C204 1.261 . S
C199 O208 1.247 . S
C199 O209 1.272 . S
O200 Co196 2.004 . S
O200 C205 1.259 . S
Co201 O202 2.061 . S
Co201 O207 2.052 . S
Co201 O209 2.135 . S
O202 Co201 2.061 . S
O202 C205 1.235 . S
C203 O206 1.238 . S
C203 O207 1.241 . S
C204 O197 1.247 . S
C204 O198 1.261 . S
C205 O200 1.259 . S
C205 O202 1.235 . S
O206 Co196 2.021 . S
O206 C203 1.238 . S
O207 Co201 2.052 . S
O207 C203 1.241 . S
O208 Co196 2.137 . S
O208 C199 1.247 . S
O209 Co196 2.244 . S
O209 C199 1.272 . S
O209 Co201 2.135 . S
Co210 O211 2.216 . S
Co210 O212 2.091 . S
Co210 O214 2.004 . S
Co210 O220 2.021 . S
Co210 O222 2.137 . S
Co210 O223 2.244 . S
O211 Co210 2.216 . S
O211 C218 1.247 . S
O212 Co210 2.091 . S
O212 C218 1.261 . S
C213 O222 1.247 . S
C213 O223 1.272 . S
O214 Co210 2.004 . S
O214 C219 1.259 . S
Co215 O216 2.061 . S
Co215 O221 2.052 . S
Co215 O223 2.135 . S
O216 Co215 2.061 . S
O216 C219 1.235 . S
C217 O220 1.238 . S
C217 O221 1.241 . S
C218 O211 1.247 . S
C218 O212 1.261 . S
C219 O214 1.259 . S
C219 O216 1.235 . S
O220 Co210 2.021 . S
O220 C217 1.238 . S
O221 Co215 2.052 . S
O221 C217 1.241 . S
O222 Co210 2.137 . S
O222 C213 1.247 . S
O223 Co210 2.244 . S
O223 C213 1.272 . S
O223 Co215 2.135 . S
Co224 O225 2.216 . S
Co224 O226 2.091 . S
Co224 O228 2.004 . S
Co224 O234 2.021 . S
Co224 O236 2.137 . S
Co224 O237 2.244 . S
O225 Co224 2.216 . S
O225 C232 1.247 . S
O226 Co224 2.091 . S
O226 C232 1.261 . S
C227 O236 1.247 . S
C227 O237 1.272 . S
O228 Co224 2.004 . S
O228 C233 1.259 . S
Co229 O230 2.061 . S
Co229 O235 2.052 . S
Co229 O237 2.135 . S
O230 Co229 2.061 . S
O230 C233 1.235 . S
C231 O234 1.238 . S
C231 O235 1.241 . S
C232 O225 1.247 . S
C232 O226 1.261 . S
C233 O228 1.259 . S
C233 O230 1.235 . S
O234 Co224 2.021 . S
O234 C231 1.238 . S
O235 Co229 2.052 . S
O235 C231 1.241 . S
O236 Co224 2.137 . S
O236 C227 1.247 . S
O237 Co224 2.244 . S
O237 C227 1.272 . S
O237 Co229 2.135 . S
Co238 O239 2.216 . S
Co238 O240 2.091 . S
Co238 O242 2.004 . S
Co238 O248 2.021 . S
Co238 O250 2.137 . S
Co238 O251 2.244 . S
O239 Co238 2.216 . S
O239 C246 1.247 . S
O240 Co238 2.091 . S
O240 C246 1.261 . S
C241 O250 1.247 . S
C241 O251 1.272 . S
O242 Co238 2.004 . S
O242 C247 1.259 . S
Co243 O244 2.061 . S
Co243 O249 2.052 . S
Co243 O251 2.135 . S
O244 Co243 2.061 . S
O244 C247 1.235 . S
C245 O248 1.238 . S
C245 O249 1.241 . S
C246 O239 1.247 . S
C246 O240 1.261 . S
C247 O242 1.259 . S
C247 O244 1.235 . S
O248 Co238 2.021 . S
O248 C245 1.238 . S
O249 Co243 2.052 . S
O249 C245 1.241 . S
O250 Co238 2.137 . S
O250 C241 1.247 . S
O251 Co238 2.244 . S
O251 C241 1.272 . S
O251 Co243 2.135 . S
C252 C253 1.349 . S
C252 C254 1.327 . S
C252 H277 0.950 . S
C253 C252 1.349 . S
C253 C269 1.349 . S
C254 C252 1.327 . S
C254 C273 1.429 . S
C254 H278 0.950 . S
C255 C272 1.574 . S
C255 C274 1.368 . S
C255 H279 0.949 . S
H256 C260 0.949 . S
C257 C258 1.349 . S
C257 C259 1.327 . S
C257 H280 0.950 . S
C258 C257 1.349 . S
C258 C270 1.349 . S
C259 C257 1.327 . S
C259 C275 1.429 . S
C259 H281 0.950 . S
C260 H256 0.949 . S
C260 C268 1.574 . S
C260 C276 1.368 . S
H261 C269 0.950 . S
H262 C267 0.950 . S
H263 C268 0.949 . S
H264 C270 0.950 . S
H265 C271 0.950 . S
H266 C272 0.949 . S
C267 H262 0.950 . S
C267 C269 1.327 . S
C267 C273 1.429 . S
C268 C260 1.574 . S
C268 H263 0.949 . S
C268 C274 1.368 . S
C269 C253 1.349 . S
C269 H261 0.950 . S
C269 C267 1.327 . S
C270 C258 1.349 . S
C270 H264 0.950 . S
C270 C271 1.327 . S
C271 H265 0.950 . S
C271 C270 1.327 . S
C271 C275 1.429 . S
C272 C255 1.574 . S
C272 H266 0.949 . S
C272 C276 1.368 . S
C273 C254 1.429 . S
C273 C267 1.429 . S
C273 C274 1.523 . S
C274 C255 1.368 . S
C274 C268 1.368 . S
C274 C273 1.523 . S
C275 C259 1.429 . S
C275 C271 1.429 . S
C275 C276 1.523 . S
C276 C260 1.368 . S
C276 C272 1.368 . S
C276 C275 1.523 . S
H277 C252 0.950 . S
H278 C254 0.950 . S
H279 C255 0.949 . S
H280 C257 0.950 . S
H281 C259 0.950 . S
C282 C283 1.349 . S
C282 C284 1.327 . S
C282 H307 0.950 . S
C283 C282 1.349 . S
C283 C299 1.349 . S
C284 C282 1.327 . S
C284 C303 1.429 . S
C284 H308 0.950 . S
C285 C302 1.574 . S
C285 C304 1.368 . S
C285 H309 0.949 . S
H286 C290 0.949 . S
C287 C288 1.349 . S
C287 C289 1.327 . S
C287 H310 0.950 . S
C288 C287 1.349 . S
C288 C300 1.349 . S
C289 C287 1.327 . S
C289 C305 1.429 . S
C289 H311 0.950 . S
C290 H286 0.949 . S
C290 C298 1.574 . S
C290 C306 1.368 . S
H291 C299 0.950 . S
H292 C297 0.950 . S
H293 C298 0.949 . S
H294 C300 0.950 . S
H295 C301 0.950 . S
H296 C302 0.949 . S
C297 H292 0.950 . S
C297 C299 1.327 . S
C297 C303 1.429 . S
C298 C290 1.574 . S
C298 H293 0.949 . S
C298 C304 1.368 . S
C299 C283 1.349 . S
C299 H291 0.950 . S
C299 C297 1.327 . S
C300 C288 1.349 . S
C300 H294 0.950 . S
C300 C301 1.327 . S
C301 H295 0.950 . S
C301 C300 1.327 . S
C301 C305 1.429 . S
C302 C285 1.574 . S
C302 H296 0.949 . S
C302 C306 1.368 . S
C303 C284 1.429 . S
C303 C297 1.429 . S
C303 C304 1.523 . S
C304 C285 1.368 . S
C304 C298 1.368 . S
C304 C303 1.523 . S
C305 C289 1.429 . S
C305 C301 1.429 . S
C305 C306 1.523 . S
C306 C290 1.368 . S
C306 C302 1.368 . S
C306 C305 1.523 . S
H307 C282 0.950 . S
H308 C284 0.950 . S
H309 C285 0.949 . S
H310 C287 0.950 . S
H311 C289 0.950 . S
C312 C313 1.349 . S
C312 C314 1.327 . S
C312 H337 0.950 . S
C313 C312 1.349 . S
C313 C329 1.349 . S
C314 C312 1.327 . S
C314 C333 1.429 . S
C314 H338 0.950 . S
C315 C332 1.574 . S
C315 C334 1.368 . S
C315 H339 0.949 . S
H316 C320 0.949 . S
C317 C318 1.349 . S
C317 C319 1.327 . S
C317 H340 0.950 . S
C318 C317 1.349 . S
C318 C330 1.349 . S
C319 C317 1.327 . S
C319 C335 1.429 . S
C319 H341 0.950 . S
C320 H316 0.949 . S
C320 C328 1.574 . S
C320 C336 1.368 . S
H321 C329 0.950 . S
H322 C327 0.950 . S
H323 C328 0.949 . S
H324 C330 0.950 . S
H325 C331 0.950 . S
H326 C332 0.949 . S
C327 H322 0.950 . S
C327 C329 1.327 . S
C327 C333 1.429 . S
C328 C320 1.574 . S
C328 H323 0.949 . S
C328 C334 1.368 . S
C329 C313 1.349 . S
C329 H321 0.950 . S
C329 C327 1.327 . S
C330 C318 1.349 . S
C330 H324 0.950 . S
C330 C331 1.327 . S
C331 H325 0.950 . S
C331 C330 1.327 . S
C331 C335 1.429 . S
C332 C315 1.574 . S
C332 H326 0.949 . S
C332 C336 1.368 . S
C333 C314 1.429 . S
C333 C327 1.429 . S
C333 C334 1.523 . S
C334 C315 1.368 . S
C334 C328 1.368 . S
C334 C333 1.523 . S
C335 C319 1.429 . S
C335 C331 1.429 . S
C335 C336 1.523 . S
C336 C320 1.368 . S
C336 C332 1.368 . S
C336 C335 1.523 . S
H337 C312 0.950 . S
H338 C314 0.950 . S
H339 C315 0.949 . S
H340 C317 0.950 . S
H341 C319 0.950 . S
C342 C343 1.349 . S
C342 C344 1.327 . S
C342 H367 0.950 . S
C343 C342 1.349 . S
C343 C359 1.349 . S
C344 C342 1.327 . S
C344 C363 1.429 . S
C344 H368 0.950 . S
C345 C362 1.574 . S
C345 C364 1.368 . S
C345 H369 0.949 . S
H346 C350 0.949 . S
C347 C348 1.349 . S
C347 C349 1.327 . S
C347 H370 0.950 . S
C348 C347 1.349 . S
C348 C360 1.349 . S
C349 C347 1.327 . S
C349 C365 1.429 . S
C349 H371 0.950 . S
C350 H346 0.949 . S
C350 C358 1.574 . S
C350 C366 1.368 . S
H351 C359 0.950 . S
H352 C357 0.950 . S
H353 C358 0.949 . S
H354 C360 0.950 . S
H355 C361 0.950 . S
H356 C362 0.949 . S
C357 H352 0.950 . S
C357 C359 1.327 . S
C357 C363 1.429 . S
C358 C350 1.574 . S
C358 H353 0.949 . S
C358 C364 1.368 . S
C359 C343 1.349 . S
C359 H351 0.950 . S
C359 C357 1.327 . S
C360 C348 1.349 . S
C360 H354 0.950 . S
C360 C361 1.327 . S
C361 H355 0.950 . S
C361 C360 1.327 . S
C361 C365 1.429 . S
C362 C345 1.574 . S
C362 H356 0.949 . S
C362 C366 1.368 . S
C363 C344 1.429 . S
C363 C357 1.429 . S
C363 C364 1.523 . S
C364 C345 1.368 . S
C364 C358 1.368 . S
C364 C363 1.523 . S
C365 C349 1.429 . S
C365 C361 1.429 . S
C365 C366 1.523 . S
C366 C350 1.368 . S
C366 C362 1.368 . S
C366 C365 1.523 . S
H367 C342 0.950 . S
H368 C344 0.950 . S
H369 C345 0.949 . S
H370 C347 0.950 . S
H371 C349 0.950 . S
C372 C373 1.349 . S
C372 C374 1.327 . S
C372 H397 0.950 . S
C373 C372 1.349 . S
C373 C389 1.349 . S
C374 C372 1.327 . S
C374 C393 1.429 . S
C374 H398 0.950 . S
C375 C392 1.574 . S
C375 C394 1.368 . S
C375 H399 0.949 . S
H376 C380 0.949 . S
C377 C378 1.349 . S
C377 C379 1.327 . S
C377 H400 0.950 . S
C378 C377 1.349 . S
C378 C390 1.349 . S
C379 C377 1.327 . S
C379 C395 1.429 . S
C379 H401 0.950 . S
C380 H376 0.949 . S
C380 C388 1.574 . S
C380 C396 1.368 . S
H381 C389 0.950 . S
H382 C387 0.950 . S
H383 C388 0.949 . S
H384 C390 0.950 . S
H385 C391 0.950 . S
H386 C392 0.949 . S
C387 H382 0.950 . S
C387 C389 1.327 . S
C387 C393 1.429 . S
C388 C380 1.574 . S
C388 H383 0.949 . S
C388 C394 1.368 . S
C389 C373 1.349 . S
C389 H381 0.950 . S
C389 C387 1.327 . S
C390 C378 1.349 . S
C390 H384 0.950 . S
C390 C391 1.327 . S
C391 H385 0.950 . S
C391 C390 1.327 . S
C391 C395 1.429 . S
C392 C375 1.574 . S
C392 H386 0.949 . S
C392 C396 1.368 . S
C393 C374 1.429 . S
C393 C387 1.429 . S
C393 C394 1.523 . S
C394 C375 1.368 . S
C394 C388 1.368 . S
C394 C393 1.523 . S
C395 C379 1.429 . S
C395 C391 1.429 . S
C395 C396 1.523 . S
C396 C380 1.368 . S
C396 C392 1.368 . S
C396 C395 1.523 . S
H397 C372 0.950 . S
H398 C374 0.950 . S
H399 C375 0.949 . S
H400 C377 0.950 . S
H401 C379 0.950 . S
C402 C403 1.349 . S
C402 C404 1.327 . S
C402 H427 0.950 . S
C403 C402 1.349 . S
C403 C419 1.349 . S
C404 C402 1.327 . S
C404 C423 1.429 . S
C404 H428 0.950 . S
C405 C422 1.574 . S
C405 C424 1.368 . S
C405 H429 0.949 . S
H406 C410 0.949 . S
C407 C408 1.349 . S
C407 C409 1.327 . S
C407 H430 0.950 . S
C408 C407 1.349 . S
C408 C420 1.349 . S
C409 C407 1.327 . S
C409 C425 1.429 . S
C409 H431 0.950 . S
C410 H406 0.949 . S
C410 C418 1.574 . S
C410 C426 1.368 . S
H411 C419 0.950 . S
H412 C417 0.950 . S
H413 C418 0.949 . S
H414 C420 0.950 . S
H415 C421 0.950 . S
H416 C422 0.949 . S
C417 H412 0.950 . S
C417 C419 1.327 . S
C417 C423 1.429 . S
C418 C410 1.574 . S
C418 H413 0.949 . S
C418 C424 1.368 . S
C419 C403 1.349 . S
C419 H411 0.950 . S
C419 C417 1.327 . S
C420 C408 1.349 . S
C420 H414 0.950 . S
C420 C421 1.327 . S
C421 H415 0.950 . S
C421 C420 1.327 . S
C421 C425 1.429 . S
C422 C405 1.574 . S
C422 H416 0.949 . S
C422 C426 1.368 . S
C423 C404 1.429 . S
C423 C417 1.429 . S
C423 C424 1.523 . S
C424 C405 1.368 . S
C424 C418 1.368 . S
C424 C423 1.523 . S
C425 C409 1.429 . S
C425 C421 1.429 . S
C425 C426 1.523 . S
C426 C410 1.368 . S
C426 C422 1.368 . S
C426 C425 1.523 . S
H427 C402 0.950 . S
H428 C404 0.950 . S
H429 C405 0.949 . S
H430 C407 0.950 . S
H431 C409 0.950 . S
C432 C433 1.349 . S
C432 C434 1.327 . S
C432 H457 0.950 . S
C433 C432 1.349 . S
C433 C449 1.349 . S
C434 C432 1.327 . S
C434 C453 1.429 . S
C434 H458 0.950 1_655 S
C435 C452 1.574 1_554 S
C435 C454 1.368 . S
C435 H459 0.949 . S
H436 C440 0.949 . S
C437 C438 1.349 . S
C437 C439 1.327 . S
C437 H460 0.950 . S
C438 C437 1.349 . S
C438 C450 1.349 . S
C439 C437 1.327 . S
C439 C455 1.429 . S
C439 H461 0.950 1_455 S
C440 H436 0.949 . S
C440 C448 1.574 1_556 S
C440 C456 1.368 . S
H441 C449 0.950 . S
H442 C447 0.950 . S
H443 C448 0.949 . S
H444 C450 0.950 . S
H445 C451 0.950 . S
H446 C452 0.949 . S
C447 H442 0.950 . S
C447 C449 1.327 . S
C447 C453 1.429 . S
C448 C440 1.574 1_554 S
C448 H443 0.949 . S
C448 C454 1.368 1_455 S
C449 C433 1.349 . S
C449 H441 0.950 . S
C449 C447 1.327 . S
C450 C438 1.349 . S
C450 H444 0.950 . S
C450 C451 1.327 . S
C451 H445 0.950 . S
C451 C450 1.327 . S
C451 C455 1.429 . S
C452 C435 1.574 1_556 S
C452 H446 0.949 . S
C452 C456 1.368 1_655 S
C453 C434 1.429 . S
C453 C447 1.429 . S
C453 C454 1.523 . S
C454 C435 1.368 . S
C454 C448 1.368 1_655 S
C454 C453 1.523 . S
C455 C439 1.429 . S
C455 C451 1.429 . S
C455 C456 1.523 . S
C456 C440 1.368 . S
C456 C452 1.368 1_455 S
C456 C455 1.523 . S
H457 C432 0.950 . S
H458 C434 0.950 1_455 S
H459 C435 0.949 . S
H460 C437 0.950 . S
H461 C439 0.950 1_655 S
C462 C463 1.349 . S
C462 C464 1.327 . S
C462 H487 0.950 . S
C463 C462 1.349 . S
C463 C479 1.349 . S
C464 C462 1.327 . S
C464 C483 1.429 . S
C464 H488 0.950 . S
C465 C482 1.574 1_554 S
C465 C484 1.368 . S
C465 H489 0.949 . S
H466 C470 0.949 . S
C467 C468 1.349 . S
C467 C469 1.327 . S
C467 H490 0.950 . S
C468 C467 1.349 . S
C468 C480 1.349 . S
C469 C467 1.327 . S
C469 C485 1.429 . S
C469 H491 0.950 . S
C470 H466 0.949 . S
C470 C478 1.574 1_556 S
C470 C486 1.368 . S
H471 C479 0.950 . S
H472 C477 0.950 . S
H473 C478 0.949 . S
H474 C480 0.950 . S
H475 C481 0.950 . S
H476 C482 0.949 . S
C477 H472 0.950 . S
C477 C479 1.327 . S
C477 C483 1.429 . S
C478 C470 1.574 1_554 S
C478 H473 0.949 . S
C478 C484 1.368 . S
C479 C463 1.349 . S
C479 H471 0.950 . S
C479 C477 1.327 . S
C480 C468 1.349 . S
C480 H474 0.950 . S
C480 C481 1.327 . S
C481 H475 0.950 . S
C481 C480 1.327 . S
C481 C485 1.429 . S
C482 C465 1.574 1_556 S
C482 H476 0.949 . S
C482 C486 1.368 . S
C483 C464 1.429 . S
C483 C477 1.429 . S
C483 C484 1.523 . S
C484 C465 1.368 . S
C484 C478 1.368 . S
C484 C483 1.523 . S
C485 C469 1.429 . S
C485 C481 1.429 . S
C485 C486 1.523 . S
C486 C470 1.368 . S
C486 C482 1.368 . S
C486 C485 1.523 . S
H487 C462 0.950 . S
H488 C464 0.950 . S
H489 C465 0.949 . S
H490 C467 0.950 . S
H491 C469 0.950 . S
C492 C493 1.349 . S
C492 C494 1.327 . S
C492 H517 0.950 . S
C493 C492 1.349 . S
C493 C509 1.349 . S
C494 C492 1.327 . S
C494 C513 1.429 . S
C494 H518 0.950 . S
C495 C512 1.574 1_554 S
C495 C514 1.368 1_565 S
C495 H519 0.949 . S
H496 C500 0.949 . S
C497 C498 1.349 . S
C497 C499 1.327 . S
C497 H520 0.950 . S
C498 C497 1.349 . S
C498 C510 1.349 . S
C499 C497 1.327 . S
C499 C515 1.429 . S
C499 H521 0.950 . S
C500 H496 0.949 . S
C500 C508 1.574 1_556 S
C500 C516 1.368 1_545 S
H501 C509 0.950 . S
H502 C507 0.950 1_565 S
H503 C508 0.949 . S
H504 C510 0.950 . S
H505 C511 0.950 1_545 S
H506 C512 0.949 . S
C507 H502 0.950 1_545 S
C507 C509 1.327 . S
C507 C513 1.429 . S
C508 C500 1.574 1_554 S
C508 H503 0.949 . S
C508 C514 1.368 . S
C509 C493 1.349 . S
C509 H501 0.950 . S
C509 C507 1.327 . S
C510 C498 1.349 . S
C510 H504 0.950 . S
C510 C511 1.327 . S
C511 H505 0.950 1_565 S
C511 C510 1.327 . S
C511 C515 1.429 . S
C512 C495 1.574 1_556 S
C512 H506 0.949 . S
C512 C516 1.368 . S
C513 C494 1.429 . S
C513 C507 1.429 . S
C513 C514 1.523 . S
C514 C495 1.368 1_545 S
C514 C508 1.368 . S
C514 C513 1.523 . S
C515 C499 1.429 . S
C515 C511 1.429 . S
C515 C516 1.523 . S
C516 C500 1.368 1_565 S
C516 C512 1.368 . S
C516 C515 1.523 . S
H517 C492 0.950 . S
H518 C494 0.950 . S
H519 C495 0.949 . S
H520 C497 0.950 . S
H521 C499 0.950 . S
C522 C523 1.349 . S
C522 C524 1.327 . S
C522 H547 0.950 1_556 S
C523 C522 1.349 . S
C523 C539 1.349 . S
C524 C522 1.327 . S
C524 C543 1.429 . S
C524 H548 0.950 . S
C525 C542 1.574 . S
C525 C544 1.368 . S
C525 H549 0.949 . S
H526 C530 0.949 . S
C527 C528 1.349 . S
C527 C529 1.327 . S
C527 H550 0.950 . S
C528 C527 1.349 . S
C528 C540 1.349 . S
C529 C527 1.327 . S
C529 C545 1.429 . S
C529 H551 0.950 . S
C530 H526 0.949 . S
C530 C538 1.574 . S
C530 C546 1.368 . S
H531 C539 0.950 . S
H532 C537 0.950 . S
H533 C538 0.949 . S
H534 C540 0.950 . S
H535 C541 0.950 . S
H536 C542 0.949 . S
C537 H532 0.950 . S
C537 C539 1.327 . S
C537 C543 1.429 . S
C538 C530 1.574 . S
C538 H533 0.949 . S
C538 C544 1.368 . S
C539 C523 1.349 . S
C539 H531 0.950 . S
C539 C537 1.327 . S
C540 C528 1.349 . S
C540 H534 0.950 . S
C540 C541 1.327 . S
C541 H535 0.950 . S
C541 C540 1.327 . S
C541 C545 1.429 . S
C542 C525 1.574 . S
C542 H536 0.949 . S
C542 C546 1.368 . S
C543 C524 1.429 . S
C543 C537 1.429 . S
C543 C544 1.523 . S
C544 C525 1.368 . S
C544 C538 1.368 . S
C544 C543 1.523 . S
C545 C529 1.429 . S
C545 C541 1.429 . S
C545 C546 1.523 . S
C546 C530 1.368 . S
C546 C542 1.368 . S
C546 C545 1.523 . S
H547 C522 0.950 1_554 S
H548 C524 0.950 . S
H549 C525 0.949 . S
H550 C527 0.950 . S
H551 C529 0.950 . S
C552 C553 1.349 . S
C552 C554 1.327 . S
C552 H577 0.950 . S
C553 C552 1.349 . S
C553 C569 1.349 . S
C554 C552 1.327 . S
C554 C573 1.429 . S
C554 H578 0.950 . S
C555 C572 1.574 . S
C555 C574 1.368 . S
C555 H579 0.949 . S
H556 C560 0.949 . S
C557 C558 1.349 . S
C557 C559 1.327 . S
C557 H580 0.950 . S
C558 C557 1.349 . S
C558 C570 1.349 . S
C559 C557 1.327 . S
C559 C575 1.429 . S
C559 H581 0.950 . S
C560 H556 0.949 . S
C560 C568 1.574 . S
C560 C576 1.368 . S
H561 C569 0.950 . S
H562 C567 0.950 . S
H563 C568 0.949 . S
H564 C570 0.950 . S
H565 C571 0.950 . S
H566 C572 0.949 . S
C567 H562 0.950 . S
C567 C569 1.327 . S
C567 C573 1.429 . S
C568 C560 1.574 . S
C568 H563 0.949 . S
C568 C574 1.368 . S
C569 C553 1.349 . S
C569 H561 0.950 . S
C569 C567 1.327 . S
C570 C558 1.349 . S
C570 H564 0.950 . S
C570 C571 1.327 . S
C571 H565 0.950 . S
C571 C570 1.327 . S
C571 C575 1.429 . S
C572 C555 1.574 . S
C572 H566 0.949 . S
C572 C576 1.368 . S
C573 C554 1.429 . S
C573 C567 1.429 . S
C573 C574 1.523 . S
C574 C555 1.368 . S
C574 C568 1.368 . S
C574 C573 1.523 . S
C575 C559 1.429 . S
C575 C571 1.429 . S
C575 C576 1.523 . S
C576 C560 1.368 . S
C576 C572 1.368 . S
C576 C575 1.523 . S
H577 C552 0.950 . S
H578 C554 0.950 . S
H579 C555 0.949 . S
H580 C557 0.950 . S
H581 C559 0.950 . S
C582 C583 1.349 . S
C582 C584 1.327 . S
C582 H607 0.950 . S
C583 C582 1.349 . S
C583 C599 1.349 . S
C584 C582 1.327 . S
C584 C603 1.429 . S
C584 H608 0.950 . S
C585 C602 1.574 . S
C585 C604 1.368 . S
C585 H609 0.949 . S
H586 C590 0.949 . S
C587 C588 1.349 . S
C587 C589 1.327 . S
C587 H610 0.950 . S
C588 C587 1.349 . S
C588 C600 1.349 . S
C589 C587 1.327 . S
C589 C605 1.429 . S
C589 H611 0.950 . S
C590 H586 0.949 . S
C590 C598 1.574 . S
C590 C606 1.368 . S
H591 C599 0.950 . S
H592 C597 0.950 . S
H593 C598 0.949 . S
H594 C600 0.950 . S
H595 C601 0.950 . S
H596 C602 0.949 . S
C597 H592 0.950 . S
C597 C599 1.327 . S
C597 C603 1.429 . S
C598 C590 1.574 . S
C598 H593 0.949 . S
C598 C604 1.368 . S
C599 C583 1.349 . S
C599 H591 0.950 . S
C599 C597 1.327 . S
C600 C588 1.349 . S
C600 H594 0.950 . S
C600 C601 1.327 . S
C601 H595 0.950 . S
C601 C600 1.327 . S
C601 C605 1.429 . S
C602 C585 1.574 . S
C602 H596 0.949 . S
C602 C606 1.368 . S
C603 C584 1.429 . S
C603 C597 1.429 . S
C603 C604 1.523 . S
C604 C585 1.368 . S
C604 C598 1.368 . S
C604 C603 1.523 . S
C605 C589 1.429 . S
C605 C601 1.429 . S
C605 C606 1.523 . S
C606 C590 1.368 . S
C606 C602 1.368 . S
C606 C605 1.523 . S
H607 C582 0.950 . S
H608 C584 0.950 . S
H609 C585 0.949 . S
H610 C587 0.950 . S
H611 C589 0.950 . S
C612 C613 1.349 . S
C612 C614 1.327 . S
C612 H637 0.950 . S
C613 C612 1.349 . S
C613 C629 1.349 . S
C614 C612 1.327 . S
C614 C633 1.429 . S
C614 H638 0.950 . S
C615 C632 1.574 . S
C615 C634 1.368 . S
C615 H639 0.949 . S
H616 C620 0.949 . S
C617 C618 1.349 . S
C617 C619 1.327 . S
C617 H640 0.950 . S
C618 C617 1.349 . S
C618 C630 1.349 . S
C619 C617 1.327 . S
C619 C635 1.429 . S
C619 H641 0.950 . S
C620 H616 0.949 . S
C620 C628 1.574 . S
C620 C636 1.368 . S
H621 C629 0.950 . S
H622 C627 0.950 . S
H623 C628 0.949 . S
H624 C630 0.950 . S
H625 C631 0.950 . S
H626 C632 0.949 . S
C627 H622 0.950 . S
C627 C629 1.327 . S
C627 C633 1.429 . S
C628 C620 1.574 . S
C628 H623 0.949 . S
C628 C634 1.368 . S
C629 C613 1.349 . S
C629 H621 0.950 . S
C629 C627 1.327 . S
C630 C618 1.349 . S
C630 H624 0.950 . S
C630 C631 1.327 . S
C631 H625 0.950 . S
C631 C630 1.327 . S
C631 C635 1.429 . S
C632 C615 1.574 . S
C632 H626 0.949 . S
C632 C636 1.368 . S
C633 C614 1.429 . S
C633 C627 1.429 . S
C633 C634 1.523 . S
C634 C615 1.368 . S
C634 C628 1.368 . S
C634 C633 1.523 . S
C635 C619 1.429 . S
C635 C631 1.429 . S
C635 C636 1.523 . S
C636 C620 1.368 . S
C636 C632 1.368 . S
C636 C635 1.523 . S
H637 C612 0.950 . S
H638 C614 0.950 . S
H639 C615 0.949 . S
H640 C617 0.950 . S
H641 C619 0.950 . S
C642 C643 1.349 . S
C642 C644 1.327 . S
C642 H667 0.950 1_554 S
C643 C642 1.349 . S
C643 C659 1.349 . S
C644 C642 1.327 . S
C644 C663 1.429 . S
C644 H668 0.950 . S
C645 C662 1.574 . S
C645 C664 1.368 . S
C645 H669 0.949 . S
H646 C650 0.949 . S
C647 C648 1.349 . S
C647 C649 1.327 . S
C647 H670 0.950 . S
C648 C647 1.349 . S
C648 C660 1.349 . S
C649 C647 1.327 . S
C649 C665 1.429 . S
C649 H671 0.950 . S
C650 H646 0.949 . S
C650 C658 1.574 . S
C650 C666 1.368 . S
H651 C659 0.950 . S
H652 C657 0.950 . S
H653 C658 0.949 . S
H654 C660 0.950 . S
H655 C661 0.950 . S
H656 C662 0.949 . S
C657 H652 0.950 . S
C657 C659 1.327 . S
C657 C663 1.429 . S
C658 C650 1.574 . S
C658 H653 0.949 . S
C658 C664 1.368 . S
C659 C643 1.349 . S
C659 H651 0.950 . S
C659 C657 1.327 . S
C660 C648 1.349 . S
C660 H654 0.950 . S
C660 C661 1.327 . S
C661 H655 0.950 . S
C661 C660 1.327 . S
C661 C665 1.429 . S
C662 C645 1.574 . S
C662 H656 0.949 . S
C662 C666 1.368 . S
C663 C644 1.429 . S
C663 C657 1.429 . S
C663 C664 1.523 . S
C664 C645 1.368 . S
C664 C658 1.368 . S
C664 C663 1.523 . S
C665 C649 1.429 . S
C665 C661 1.429 . S
C665 C666 1.523 . S
C666 C650 1.368 . S
C666 C662 1.368 . S
C666 C665 1.523 . S
H667 C642 0.950 1_556 S
H668 C644 0.950 . S
H669 C645 0.949 . S
H670 C647 0.950 . S
H671 C649 0.950 . S
C672 C673 1.349 . S
C672 C674 1.327 . S
C672 H697 0.950 . S
C673 C672 1.349 . S
C673 C689 1.349 . S
C674 C672 1.327 . S
C674 C693 1.429 . S
C674 H698 0.950 . S
C675 C692 1.574 . S
C675 C694 1.368 . S
C675 H699 0.949 . S
H676 C680 0.949 . S
C677 C678 1.349 . S
C677 C679 1.327 . S
C677 H700 0.950 . S
C678 C677 1.349 . S
C678 C690 1.349 . S
C679 C677 1.327 . S
C679 C695 1.429 . S
C679 H701 0.950 . S
C680 H676 0.949 . S
C680 C688 1.574 . S
C680 C696 1.368 . S
H681 C689 0.950 1_556 S
H682 C687 0.950 . S
H683 C688 0.949 . S
H684 C690 0.950 . S
H685 C691 0.950 . S
H686 C692 0.949 . S
C687 H682 0.950 . S
C687 C689 1.327 . S
C687 C693 1.429 . S
C688 C680 1.574 . S
C688 H683 0.949 . S
C688 C694 1.368 . S
C689 C673 1.349 . S
C689 H681 0.950 1_554 S
C689 C687 1.327 . S
C690 C678 1.349 . S
C690 H684 0.950 . S
C690 C691 1.327 . S
C691 H685 0.950 . S
C691 C690 1.327 . S
C691 C695 1.429 . S
C692 C675 1.574 . S
C692 H686 0.949 . S
C692 C696 1.368 . S
C693 C674 1.429 . S
C693 C687 1.429 . S
C693 C694 1.523 . S
C694 C675 1.368 . S
C694 C688 1.368 . S
C694 C693 1.523 . S
C695 C679 1.429 . S
C695 C691 1.429 . S
C695 C696 1.523 . S
C696 C680 1.368 . S
C696 C692 1.368 . S
C696 C695 1.523 . S
H697 C672 0.950 . S
H698 C674 0.950 . S
H699 C675 0.949 . S
H700 C677 0.950 . S
H701 C679 0.950 . S
C702 C703 1.349 . S
C702 C704 1.327 . S
C702 H727 0.950 . S
C703 C702 1.349 . S
C703 C719 1.349 . S
C704 C702 1.327 . S
C704 C723 1.429 . S
C704 H728 0.950 . S
C705 C722 1.574 . S
C705 C724 1.368 1_455 S
C705 H729 0.949 . S
H706 C710 0.949 . S
C707 C708 1.349 . S
C707 C709 1.327 . S
C707 H730 0.950 . S
C708 C707 1.349 . S
C708 C720 1.349 . S
C709 C707 1.327 . S
C709 C725 1.429 . S
C709 H731 0.950 . S
C710 H706 0.949 . S
C710 C718 1.574 . S
C710 C726 1.368 1_655 S
H711 C719 0.950 . S
H712 C717 0.950 . S
H713 C718 0.949 . S
H714 C720 0.950 . S
H715 C721 0.950 . S
H716 C722 0.949 . S
C717 H712 0.950 . S
C717 C719 1.327 . S
C717 C723 1.429 . S
C718 C710 1.574 . S
C718 H713 0.949 . S
C718 C724 1.368 . S
C719 C703 1.349 . S
C719 H711 0.950 . S
C719 C717 1.327 . S
C720 C708 1.349 . S
C720 H714 0.950 . S
C720 C721 1.327 . S
C721 H715 0.950 . S
C721 C720 1.327 . S
C721 C725 1.429 . S
C722 C705 1.574 . S
C722 H716 0.949 . S
C722 C726 1.368 . S
C723 C704 1.429 . S
C723 C717 1.429 . S
C723 C724 1.523 . S
C724 C705 1.368 1_655 S
C724 C718 1.368 . S
C724 C723 1.523 . S
C725 C709 1.429 . S
C725 C721 1.429 . S
C725 C726 1.523 . S
C726 C710 1.368 1_455 S
C726 C722 1.368 . S
C726 C725 1.523 . S
H727 C702 0.950 . S
H728 C704 0.950 . S
H729 C705 0.949 . S
H730 C707 0.950 . S
H731 C709 0.950 . S
C732 C733 1.349 . S
C732 C734 1.327 . S
C732 H757 0.950 . S
C733 C732 1.349 . S
C733 C749 1.349 . S
C734 C732 1.327 . S
C734 C753 1.429 . S
C734 H758 0.950 . S
C735 C752 1.574 . S
C735 C754 1.368 . S
C735 H759 0.949 . S
H736 C740 0.949 . S
C737 C738 1.349 . S
C737 C739 1.327 . S
C737 H760 0.950 . S
C738 C737 1.349 . S
C738 C750 1.349 . S
C739 C737 1.327 . S
C739 C755 1.429 . S
C739 H761 0.950 . S
C740 H736 0.949 . S
C740 C748 1.574 . S
C740 C756 1.368 . S
H741 C749 0.950 . S
H742 C747 0.950 . S
H743 C748 0.949 . S
H744 C750 0.950 . S
H745 C751 0.950 . S
H746 C752 0.949 . S
C747 H742 0.950 . S
C747 C749 1.327 . S
C747 C753 1.429 . S
C748 C740 1.574 . S
C748 H743 0.949 . S
C748 C754 1.368 . S
C749 C733 1.349 . S
C749 H741 0.950 . S
C749 C747 1.327 . S
C750 C738 1.349 . S
C750 H744 0.950 . S
C750 C751 1.327 . S
C751 H745 0.950 . S
C751 C750 1.327 . S
C751 C755 1.429 . S
C752 C735 1.574 . S
C752 H746 0.949 . S
C752 C756 1.368 . S
C753 C734 1.429 . S
C753 C747 1.429 . S
C753 C754 1.523 . S
C754 C735 1.368 . S
C754 C748 1.368 . S
C754 C753 1.523 . S
C755 C739 1.429 . S
C755 C751 1.429 . S
C755 C756 1.523 . S
C756 C740 1.368 . S
C756 C752 1.368 . S
C756 C755 1.523 . S
H757 C732 0.950 . S
H758 C734 0.950 . S
H759 C735 0.949 . S
H760 C737 0.950 . S
H761 C739 0.950 . S
C762 C763 1.349 . S
C762 C764 1.327 . S
C762 H787 0.950 . S
C763 C762 1.349 . S
C763 C779 1.349 . S
C764 C762 1.327 . S
C764 C783 1.429 . S
C764 H788 0.950 . S
C765 C782 1.574 . S
C765 C784 1.368 1_545 S
C765 H789 0.949 . S
H766 C770 0.949 . S
C767 C768 1.349 . S
C767 C769 1.327 . S
C767 H790 0.950 . S
C768 C767 1.349 . S
C768 C780 1.349 . S
C769 C767 1.327 . S
C769 C785 1.429 . S
C769 H791 0.950 . S
C770 H766 0.949 . S
C770 C778 1.574 . S
C770 C786 1.368 1_565 S
H771 C779 0.950 . S
H772 C777 0.950 1_545 S
H773 C778 0.949 . S
H774 C780 0.950 . S
H775 C781 0.950 1_565 S
H776 C782 0.949 . S
C777 H772 0.950 1_565 S
C777 C779 1.327 . S
C777 C783 1.429 . S
C778 C770 1.574 . S
C778 H773 0.949 . S
C778 C784 1.368 . S
C779 C763 1.349 . S
C779 H771 0.950 . S
C779 C777 1.327 . S
C780 C768 1.349 . S
C780 H774 0.950 . S
C780 C781 1.327 . S
C781 H775 0.950 1_545 S
C781 C780 1.327 . S
C781 C785 1.429 . S
C782 C765 1.574 . S
C782 H776 0.949 . S
C782 C786 1.368 . S
C783 C764 1.429 . S
C783 C777 1.429 . S
C783 C784 1.523 . S
C784 C765 1.368 1_565 S
C784 C778 1.368 . S
C784 C783 1.523 . S
C785 C769 1.429 . S
C785 C781 1.429 . S
C785 C786 1.523 . S
C786 C770 1.368 1_545 S
C786 C782 1.368 . S
C786 C785 1.523 . S
H787 C762 0.950 . S
H788 C764 0.950 . S
H789 C765 0.949 . S
H790 C767 0.950 . S
H791 C769 0.950 . S
C792 C793 1.349 . S
C792 C794 1.327 . S
C792 H817 0.950 . S
C793 C792 1.349 . S
C793 C809 1.349 . S
C794 C792 1.327 . S
C794 C813 1.429 . S
C794 H818 0.950 1_554 S
C795 C812 1.574 . S
C795 C814 1.368 . S
C795 H819 0.949 . S
H796 C800 0.949 . S
C797 C798 1.349 . S
C797 C799 1.327 . S
C797 H820 0.950 . S
C798 C797 1.349 . S
C798 C810 1.349 . S
C799 C797 1.327 . S
C799 C815 1.429 . S
C799 H821 0.950 1_556 S
C800 H796 0.949 . S
C800 C808 1.574 . S
C800 C816 1.368 . S
H801 C809 0.950 . S
H802 C807 0.950 . S
H803 C808 0.949 . S
H804 C810 0.950 . S
H805 C811 0.950 . S
H806 C812 0.949 . S
C807 H802 0.950 . S
C807 C809 1.327 . S
C807 C813 1.429 . S
C808 C800 1.574 . S
C808 H803 0.949 . S
C808 C814 1.368 1_556 S
C809 C793 1.349 . S
C809 H801 0.950 . S
C809 C807 1.327 . S
C810 C798 1.349 . S
C810 H804 0.950 . S
C810 C811 1.327 . S
C811 H805 0.950 . S
C811 C810 1.327 . S
C811 C815 1.429 . S
C812 C795 1.574 . S
C812 H806 0.949 . S
C812 C816 1.368 1_554 S
C813 C794 1.429 . S
C813 C807 1.429 . S
C813 C814 1.523 . S
C814 C795 1.368 . S
C814 C808 1.368 1_554 S
C814 C813 1.523 . S
C815 C799 1.429 . S
C815 C811 1.429 . S
C815 C816 1.523 . S
C816 C800 1.368 . S
C816 C812 1.368 1_556 S
C816 C815 1.523 . S
H817 C792 0.950 . S
H818 C794 0.950 1_556 S
H819 C795 0.949 . S
H820 C797 0.950 . S
H821 C799 0.950 1_554 S
C822 C823 1.349 . S
C822 C824 1.327 1_556 S
C822 H847 0.950 1_556 S
C823 C822 1.349 . S
C823 C839 1.349 . S
C824 C822 1.327 1_554 S
C824 C843 1.429 1_554 S
C824 H848 0.950 . S
C825 C842 1.574 1_545 S
C825 C844 1.368 . S
C825 H849 0.949 . S
H826 C830 0.949 . S
C827 C828 1.349 . S
C827 C829 1.327 1_554 S
C827 H850 0.950 1_554 S
C828 C827 1.349 . S
C828 C840 1.349 . S
C829 C827 1.327 1_556 S
C829 C845 1.429 1_556 S
C829 H851 0.950 . S
C830 H826 0.949 . S
C830 C838 1.574 1_565 S
C830 C846 1.368 . S
H831 C839 0.950 . S
H832 C837 0.950 . S
H833 C838 0.949 . S
H834 C840 0.950 . S
H835 C841 0.950 . S
H836 C842 0.949 . S
C837 H832 0.950 . S
C837 C839 1.327 . S
C837 C843 1.429 . S
C838 C830 1.574 1_545 S
C838 H833 0.949 . S
C838 C844 1.368 1_554 S
C839 C823 1.349 . S
C839 H831 0.950 . S
C839 C837 1.327 . S
C840 C828 1.349 . S
C840 H834 0.950 . S
C840 C841 1.327 . S
C841 H835 0.950 . S
C841 C840 1.327 . S
C841 C845 1.429 . S
C842 C825 1.574 1_565 S
C842 H836 0.949 . S
C842 C846 1.368 1_556 S
C843 C824 1.429 1_556 S
C843 C837 1.429 . S
C843 C844 1.523 . S
C844 C825 1.368 . S
C844 C838 1.368 1_556 S
C844 C843 1.523 . S
C845 C829 1.429 1_554 S
C845 C841 1.429 . S
C845 C846 1.523 . S
C846 C830 1.368 . S
C846 C842 1.368 1_554 S
C846 C845 1.523 . S
H847 C822 0.950 1_554 S
H848 C824 0.950 . S
H849 C825 0.949 . S
H850 C827 0.950 1_556 S
H851 C829 0.950 . S
C852 C853 1.349 . S
C852 C854 1.327 . S
C852 H877 0.950 . S
C853 C852 1.349 . S
C853 C869 1.349 . S
C854 C852 1.327 . S
C854 C873 1.429 . S
C854 H878 0.950 . S
C855 C872 1.574 1_655 S
C855 C874 1.368 1_554 S
C855 H879 0.949 . S
H856 C860 0.949 . S
C857 C858 1.349 . S
C857 C859 1.327 . S
C857 H880 0.950 . S
C858 C857 1.349 . S
C858 C870 1.349 . S
C859 C857 1.327 . S
C859 C875 1.429 . S
C859 H881 0.950 . S
C860 H856 0.949 . S
C860 C868 1.574 1_455 S
C860 C876 1.368 1_556 S
H861 C869 0.950 . S
H862 C867 0.950 1_554 S
H863 C868 0.949 . S
H864 C870 0.950 . S
H865 C871 0.950 1_556 S
H866 C872 0.949 . S
C867 H862 0.950 1_556 S
C867 C869 1.327 . S
C867 C873 1.429 . S
C868 C860 1.574 1_655 S
C868 H863 0.949 . S
C868 C874 1.368 . S
C869 C853 1.349 . S
C869 H861 0.950 . S
C869 C867 1.327 . S
C870 C858 1.349 . S
C870 H864 0.950 . S
C870 C871 1.327 . S
C871 H865 0.950 1_554 S
C871 C870 1.327 . S
C871 C875 1.429 . S
C872 C855 1.574 1_455 S
C872 H866 0.949 . S
C872 C876 1.368 . S
C873 C854 1.429 . S
C873 C867 1.429 . S
C873 C874 1.523 . S
C874 C855 1.368 1_556 S
C874 C868 1.368 . S
C874 C873 1.523 . S
C875 C859 1.429 . S
C875 C871 1.429 . S
C875 C876 1.523 . S
C876 C860 1.368 1_554 S
C876 C872 1.368 . S
C876 C875 1.523 . S
H877 C852 0.950 . S
H878 C854 0.950 . S
H879 C855 0.949 . S
H880 C857 0.950 . S
H881 C859 0.950 . S
C882 C883 1.349 . S
C882 C884 1.327 1_556 S
C882 H907 0.950 1_556 S
C883 C882 1.349 . S
C883 C899 1.349 . S
C884 C882 1.327 1_554 S
C884 C903 1.429 1_554 S
C884 H908 0.950 . S
C885 C902 1.574 . S
C885 C904 1.368 . S
C885 H909 0.949 . S
H886 C890 0.949 . S
C887 C888 1.349 . S
C887 C889 1.327 1_554 S
C887 H910 0.950 1_554 S
C888 C887 1.349 . S
C888 C900 1.349 . S
C889 C887 1.327 1_556 S
C889 C905 1.429 1_556 S
C889 H911 0.950 . S
C890 H886 0.949 . S
C890 C898 1.574 . S
C890 C906 1.368 . S
H891 C899 0.950 . S
H892 C897 0.950 . S
H893 C898 0.949 . S
H894 C900 0.950 . S
H895 C901 0.950 . S
H896 C902 0.949 . S
C897 H892 0.950 . S
C897 C899 1.327 . S
C897 C903 1.429 . S
C898 C890 1.574 . S
C898 H893 0.949 . S
C898 C904 1.368 1_554 S
C899 C883 1.349 . S
C899 H891 0.950 . S
C899 C897 1.327 . S
C900 C888 1.349 . S
C900 H894 0.950 . S
C900 C901 1.327 . S
C901 H895 0.950 . S
C901 C900 1.327 . S
C901 C905 1.429 . S
C902 C885 1.574 . S
C902 H896 0.949 . S
C902 C906 1.368 1_556 S
C903 C884 1.429 1_556 S
C903 C897 1.429 . S
C903 C904 1.523 . S
C904 C885 1.368 . S
C904 C898 1.368 1_556 S
C904 C903 1.523 . S
C905 C889 1.429 1_554 S
C905 C901 1.429 . S
C905 C906 1.523 . S
C906 C890 1.368 . S
C906 C902 1.368 1_554 S
C906 C905 1.523 . S
H907 C882 0.950 1_554 S
H908 C884 0.950 . S
H909 C885 0.949 . S
H910 C887 0.950 1_556 S
H911 C889 0.950 . S
C912 C913 1.349 . S
C912 C914 1.327 . S
C912 H937 0.950 . S
C913 C912 1.349 . S
C913 C929 1.349 . S
C914 C912 1.327 . S
C914 C933 1.429 . S
C914 H938 0.950 . S
C915 C932 1.574 1_565 S
C915 C934 1.368 1_556 S
C915 H939 0.949 . S
H916 C920 0.949 . S
C917 C918 1.349 . S
C917 C919 1.327 . S
C917 H940 0.950 . S
C918 C917 1.349 . S
C918 C930 1.349 . S
C919 C917 1.327 . S
C919 C935 1.429 . S
C919 H941 0.950 . S
C920 H916 0.949 . S
C920 C928 1.574 1_545 S
C920 C936 1.368 1_554 S
H921 C929 0.950 1_556 S
H922 C927 0.950 . S
H923 C928 0.949 . S
H924 C930 0.950 1_554 S
H925 C931 0.950 . S
H926 C932 0.949 . S
C927 H922 0.950 . S
C927 C929 1.327 1_556 S
C927 C933 1.429 1_556 S
C928 C920 1.574 1_565 S
C928 H923 0.949 . S
C928 C934 1.368 . S
C929 C913 1.349 . S
C929 H921 0.950 1_554 S
C929 C927 1.327 1_554 S
C930 C918 1.349 . S
C930 H924 0.950 1_556 S
C930 C931 1.327 1_556 S
C931 H925 0.950 . S
C931 C930 1.327 1_554 S
C931 C935 1.429 1_554 S
C932 C915 1.574 1_545 S
C932 H926 0.949 . S
C932 C936 1.368 . S
C933 C914 1.429 . S
C933 C927 1.429 1_554 S
C933 C934 1.523 . S
C934 C915 1.368 1_554 S
C934 C928 1.368 . S
C934 C933 1.523 . S
C935 C919 1.429 . S
C935 C931 1.429 1_556 S
C935 C936 1.523 . S
C936 C920 1.368 1_556 S
C936 C932 1.368 . S
C936 C935 1.523 . S
H937 C912 0.950 . S
H938 C914 0.950 . S
H939 C915 0.949 . S
H940 C917 0.950 . S
H941 C919 0.950 . S
C942 C943 1.349 . S
C942 C944 1.327 . S
C942 H967 0.950 . S
C943 C942 1.349 . S
C943 C959 1.349 . S
C944 C942 1.327 . S
C944 C963 1.429 . S
C944 H968 0.950 . S
C945 C962 1.574 1_655 S
C945 C964 1.368 1_554 S
C945 H969 0.949 . S
H946 C950 0.949 . S
C947 C948 1.349 . S
C947 C949 1.327 . S
C947 H970 0.950 . S
C948 C947 1.349 . S
C948 C960 1.349 . S
C949 C947 1.327 . S
C949 C965 1.429 . S
C949 H971 0.950 . S
C950 H946 0.949 . S
C950 C958 1.574 1_455 S
C950 C966 1.368 1_556 S
H951 C959 0.950 1_554 S
H952 C957 0.957 . S
H953 C958 0.949 . S
H954 C960 0.950 1_556 S
H955 C961 0.956 . S
H956 C962 0.949 . S
C957 H952 0.957 . S
C957 C959 1.325 1_554 S
C957 C963 1.424 1_554 S
C958 C950 1.574 1_655 S
C958 H953 0.949 . S
C958 C964 1.368 . S
C959 C943 1.349 . S
C959 H951 0.950 1_556 S
C959 C957 1.325 1_556 S
C960 C948 1.349 . S
C960 H954 0.950 1_554 S
C960 C961 1.325 1_554 S
C961 H955 0.956 . S
C961 C960 1.325 1_556 S
C961 C965 1.424 1_556 S
C962 C945 1.574 1_455 S
C962 H956 0.949 . S
C962 C966 1.368 . S
C963 C944 1.429 . S
C963 C957 1.424 1_556 S
C963 C964 1.523 . S
C964 C945 1.368 1_556 S
C964 C958 1.368 . S
C964 C963 1.523 . S
C965 C949 1.429 . S
C965 C961 1.424 1_554 S
C965 C966 1.523 . S
C966 C950 1.368 1_554 S
C966 C962 1.368 . S
C966 C965 1.523 . S
H967 C942 0.950 . S
H968 C944 0.950 . S
H969 C945 0.949 . S
H970 C947 0.950 . S
H971 C949 0.950 . S
C972 C973 1.349 . S
C972 C974 1.327 . S
C972 H997 0.950 . S
C973 C972 1.349 . S
C973 C989 1.349 . S
C974 C972 1.327 . S
C974 C993 1.429 . S
C974 H998 0.950 . S
C975 C992 1.574 . S
C975 C994 1.368 . S
C975 H999 0.949 . S
H976 C980 0.949 . S
C977 C978 1.349 . S
C977 C979 1.327 . S
C977 H1000 0.950 . S
C978 C977 1.349 . S
C978 C990 1.349 . S
C979 C977 1.327 . S
C979 C995 1.429 . S
C979 H1001 0.950 . S
C980 H976 0.949 . S
C980 C988 1.574 . S
C980 C996 1.368 . S
H981 C989 0.950 . S
H982 C987 0.950 . S
H983 C988 0.949 . S
H984 C990 0.950 . S
H985 C991 0.950 . S
H986 C992 0.949 . S
C987 H982 0.950 . S
C987 C989 1.327 . S
C987 C993 1.429 . S
C988 C980 1.574 . S
C988 H983 0.949 . S
C988 C994 1.368 . S
C989 C973 1.349 . S
C989 H981 0.950 . S
C989 C987 1.327 . S
C990 C978 1.349 . S
C990 H984 0.950 . S
C990 C991 1.327 . S
C991 H985 0.950 . S
C991 C990 1.327 . S
C991 C995 1.429 . S
C992 C975 1.574 . S
C992 H986 0.949 . S
C992 C996 1.368 . S
C993 C974 1.429 . S
C993 C987 1.429 . S
C993 C994 1.523 . S
C994 C975 1.368 . S
C994 C988 1.368 . S
C994 C993 1.523 . S
C995 C979 1.429 . S
C995 C991 1.429 . S
C995 C996 1.523 . S
C996 C980 1.368 . S
C996 C992 1.368 . S
C996 C995 1.523 . S
H997 C972 0.950 . S
H998 C974 0.950 . S
H999 C975 0.949 . S
H1000 C977 0.950 . S
H1001 C979 0.950 . S
C1002 C1003 1.349 . S
C1002 C1004 1.327 . S
C1002 H1027 0.950 . S
C1003 C1002 1.349 . S
C1003 C1019 1.349 . S
C1004 C1002 1.327 . S
C1004 C1023 1.429 . S
C1004 H1028 0.950 . S
C1005 C1022 1.574 . S
C1005 C1024 1.368 . S
C1005 H1029 0.949 . S
H1006 C1010 0.949 . S
C1007 C1008 1.349 . S
C1007 C1009 1.327 . S
C1007 H1030 0.950 . S
C1008 C1007 1.349 . S
C1008 C1020 1.349 . S
C1009 C1007 1.327 . S
C1009 C1025 1.429 . S
C1009 H1031 0.950 . S
C1010 H1006 0.949 . S
C1010 C1018 1.574 . S
C1010 C1026 1.368 . S
H1011 C1019 0.950 . S
H1012 C1017 0.950 . S
H1013 C1018 0.949 . S
H1014 C1020 0.950 . S
H1015 C1021 0.950 . S
H1016 C1022 0.949 . S
C1017 H1012 0.950 . S
C1017 C1019 1.327 . S
C1017 C1023 1.429 . S
C1018 C1010 1.574 . S
C1018 H1013 0.949 . S
C1018 C1024 1.368 . S
C1019 C1003 1.349 . S
C1019 H1011 0.950 . S
C1019 C1017 1.327 . S
C1020 C1008 1.349 . S
C1020 H1014 0.950 . S
C1020 C1021 1.327 . S
C1021 H1015 0.950 . S
C1021 C1020 1.327 . S
C1021 C1025 1.429 . S
C1022 C1005 1.574 . S
C1022 H1016 0.949 . S
C1022 C1026 1.368 . S
C1023 C1004 1.429 . S
C1023 C1017 1.429 . S
C1023 C1024 1.523 . S
C1024 C1005 1.368 . S
C1024 C1018 1.368 . S
C1024 C1023 1.523 . S
C1025 C1009 1.429 . S
C1025 C1021 1.429 . S
C1025 C1026 1.523 . S
C1026 C1010 1.368 . S
C1026 C1022 1.368 . S
C1026 C1025 1.523 . S
H1027 C1002 0.950 . S
H1028 C1004 0.950 . S
H1029 C1005 0.949 . S
H1030 C1007 0.950 . S
H1031 C1009 0.950 . S
C1032 C1033 1.349 . S
C1032 C1034 1.327 . S
C1032 H1057 0.950 . S
C1033 C1032 1.349 . S
C1033 C1049 1.349 . S
C1034 C1032 1.327 . S
C1034 C1053 1.429 . S
C1034 H1058 0.950 . S
C1035 C1052 1.574 . S
C1035 C1054 1.368 . S
C1035 H1059 0.949 . S
H1036 C1040 0.949 . S
C1037 C1038 1.349 . S
C1037 C1039 1.327 . S
C1037 H1060 0.950 . S
C1038 C1037 1.349 . S
C1038 C1050 1.349 . S
C1039 C1037 1.327 . S
C1039 C1055 1.429 . S
C1039 H1061 0.950 . S
C1040 H1036 0.949 . S
C1040 C1048 1.574 . S
C1040 C1056 1.368 . S
H1041 C1049 0.950 . S
H1042 C1047 0.950 . S
H1043 C1048 0.949 . S
H1044 C1050 0.950 . S
H1045 C1051 0.950 . S
H1046 C1052 0.949 . S
C1047 H1042 0.950 . S
C1047 C1049 1.327 . S
C1047 C1053 1.429 . S
C1048 C1040 1.574 . S
C1048 H1043 0.949 . S
C1048 C1054 1.368 . S
C1049 C1033 1.349 . S
C1049 H1041 0.950 . S
C1049 C1047 1.327 . S
C1050 C1038 1.349 . S
C1050 H1044 0.950 . S
C1050 C1051 1.327 . S
C1051 H1045 0.950 . S
C1051 C1050 1.327 . S
C1051 C1055 1.429 . S
C1052 C1035 1.574 . S
C1052 H1046 0.949 . S
C1052 C1056 1.368 . S
C1053 C1034 1.429 . S
C1053 C1047 1.429 . S
C1053 C1054 1.523 . S
C1054 C1035 1.368 . S
C1054 C1048 1.368 . S
C1054 C1053 1.523 . S
C1055 C1039 1.429 . S
C1055 C1051 1.429 . S
C1055 C1056 1.523 . S
C1056 C1040 1.368 . S
C1056 C1052 1.368 . S
C1056 C1055 1.523 . S
H1057 C1032 0.950 . S
H1058 C1034 0.950 . S
H1059 C1035 0.949 . S
H1060 C1037 0.950 . S
H1061 C1039 0.950 . S
C1062 C1063 1.349 . S
C1062 C1064 1.327 . S
C1062 H1087 0.950 . S
C1063 C1062 1.349 . S
C1063 C1079 1.349 . S
C1064 C1062 1.327 . S
C1064 C1083 1.429 . S
C1064 H1088 0.950 . S
C1065 C1082 1.574 . S
C1065 C1084 1.368 . S
C1065 H1089 0.949 . S
H1066 C1070 0.949 . S
C1067 C1068 1.349 . S
C1067 C1069 1.327 . S
C1067 H1090 0.950 . S
C1068 C1067 1.349 . S
C1068 C1080 1.349 . S
C1069 C1067 1.327 . S
C1069 C1085 1.429 . S
C1069 H1091 0.950 . S
C1070 H1066 0.949 . S
C1070 C1078 1.574 . S
C1070 C1086 1.368 . S
H1071 C1079 0.950 . S
H1072 C1077 0.950 . S
H1073 C1078 0.949 . S
H1074 C1080 0.950 . S
H1075 C1081 0.950 . S
H1076 C1082 0.949 . S
C1077 H1072 0.950 . S
C1077 C1079 1.327 . S
C1077 C1083 1.429 . S
C1078 C1070 1.574 . S
C1078 H1073 0.949 . S
C1078 C1084 1.368 . S
C1079 C1063 1.349 . S
C1079 H1071 0.950 . S
C1079 C1077 1.327 . S
C1080 C1068 1.349 . S
C1080 H1074 0.950 . S
C1080 C1081 1.327 . S
C1081 H1075 0.950 . S
C1081 C1080 1.327 . S
C1081 C1085 1.429 . S
C1082 C1065 1.574 . S
C1082 H1076 0.949 . S
C1082 C1086 1.368 . S
C1083 C1064 1.429 . S
C1083 C1077 1.429 . S
C1083 C1084 1.523 . S
C1084 C1065 1.368 . S
C1084 C1078 1.368 . S
C1084 C1083 1.523 . S
C1085 C1069 1.429 . S
C1085 C1081 1.429 . S
C1085 C1086 1.523 . S
C1086 C1070 1.368 . S
C1086 C1082 1.368 . S
C1086 C1085 1.523 . S
H1087 C1062 0.950 . S
H1088 C1064 0.950 . S
H1089 C1065 0.949 . S
H1090 C1067 0.950 . S
H1091 C1069 0.950 . S
C1092 C1093 1.349 . S
C1092 C1094 1.327 . S
C1092 H1117 0.950 . S
C1093 C1092 1.349 . S
C1093 C1109 1.349 . S
C1094 C1092 1.327 . S
C1094 C1113 1.429 . S
C1094 H1118 0.950 . S
C1095 C1112 1.574 . S
C1095 C1114 1.368 . S
C1095 H1119 0.949 . S
H1096 C1100 0.949 . S
C1097 C1098 1.349 . S
C1097 C1099 1.327 . S
C1097 H1120 0.950 . S
C1098 C1097 1.349 . S
C1098 C1110 1.349 . S
C1099 C1097 1.327 . S
C1099 C1115 1.429 . S
C1099 H1121 0.950 . S
C1100 H1096 0.949 . S
C1100 C1108 1.574 . S
C1100 C1116 1.368 . S
H1101 C1109 0.950 . S
H1102 C1107 0.950 . S
H1103 C1108 0.949 . S
H1104 C1110 0.950 . S
H1105 C1111 0.950 . S
H1106 C1112 0.949 . S
C1107 H1102 0.950 . S
C1107 C1109 1.327 . S
C1107 C1113 1.429 . S
C1108 C1100 1.574 . S
C1108 H1103 0.949 . S
C1108 C1114 1.368 . S
C1109 C1093 1.349 . S
C1109 H1101 0.950 . S
C1109 C1107 1.327 . S
C1110 C1098 1.349 . S
C1110 H1104 0.950 . S
C1110 C1111 1.327 . S
C1111 H1105 0.950 . S
C1111 C1110 1.327 . S
C1111 C1115 1.429 . S
C1112 C1095 1.574 . S
C1112 H1106 0.949 . S
C1112 C1116 1.368 . S
C1113 C1094 1.429 . S
C1113 C1107 1.429 . S
C1113 C1114 1.523 . S
C1114 C1095 1.368 . S
C1114 C1108 1.368 . S
C1114 C1113 1.523 . S
C1115 C1099 1.429 . S
C1115 C1111 1.429 . S
C1115 C1116 1.523 . S
C1116 C1100 1.368 . S
C1116 C1112 1.368 . S
C1116 C1115 1.523 . S
H1117 C1092 0.950 . S
H1118 C1094 0.950 . S
H1119 C1095 0.949 . S
H1120 C1097 0.950 . S
H1121 C1099 0.950 . S
C1122 C1123 1.349 . S
C1122 C1124 1.327 . S
C1122 H1147 0.950 . S
C1123 C1122 1.349 . S
C1123 C1139 1.349 . S
C1124 C1122 1.327 . S
C1124 C1143 1.429 . S
C1124 H1148 0.950 . S
C1125 C1142 1.574 . S
C1125 C1144 1.368 . S
C1125 H1149 0.949 . S
H1126 C1130 0.949 . S
C1127 C1128 1.349 . S
C1127 C1129 1.327 . S
C1127 H1150 0.950 . S
C1128 C1127 1.349 . S
C1128 C1140 1.349 . S
C1129 C1127 1.327 . S
C1129 C1145 1.429 . S
C1129 H1151 0.950 . S
C1130 H1126 0.949 . S
C1130 C1138 1.574 . S
C1130 C1146 1.368 . S
H1131 C1139 0.950 . S
H1132 C1137 0.950 . S
H1133 C1138 0.949 . S
H1134 C1140 0.950 . S
H1135 C1141 0.950 . S
H1136 C1142 0.949 . S
C1137 H1132 0.950 . S
C1137 C1139 1.327 . S
C1137 C1143 1.429 . S
C1138 C1130 1.574 . S
C1138 H1133 0.949 . S
C1138 C1144 1.368 . S
C1139 C1123 1.349 . S
C1139 H1131 0.950 . S
C1139 C1137 1.327 . S
C1140 C1128 1.349 . S
C1140 H1134 0.950 . S
C1140 C1141 1.327 . S
C1141 H1135 0.950 . S
C1141 C1140 1.327 . S
C1141 C1145 1.429 . S
C1142 C1125 1.574 . S
C1142 H1136 0.949 . S
C1142 C1146 1.368 . S
C1143 C1124 1.429 . S
C1143 C1137 1.429 . S
C1143 C1144 1.523 . S
C1144 C1125 1.368 . S
C1144 C1138 1.368 . S
C1144 C1143 1.523 . S
C1145 C1129 1.429 . S
C1145 C1141 1.429 . S
C1145 C1146 1.523 . S
C1146 C1130 1.368 . S
C1146 C1142 1.368 . S
C1146 C1145 1.523 . S
H1147 C1122 0.950 . S
H1148 C1124 0.950 . S
H1149 C1125 0.949 . S
H1150 C1127 0.950 . S
H1151 C1129 0.950 . S
C1152 C1153 1.349 . S
C1152 C1154 1.327 . S
C1152 H1177 0.950 . S
C1153 C1152 1.349 . S
C1153 C1169 1.349 . S
C1154 C1152 1.327 . S
C1154 C1173 1.429 . S
C1154 H1178 0.950 . S
C1155 C1172 1.574 . S
C1155 C1174 1.368 . S
C1155 H1179 0.949 . S
H1156 C1160 0.949 . S
C1157 C1158 1.349 . S
C1157 C1159 1.327 . S
C1157 H1180 0.950 . S
C1158 C1157 1.349 . S
C1158 C1170 1.349 . S
C1159 C1157 1.327 . S
C1159 C1175 1.429 . S
C1159 H1181 0.950 . S
C1160 H1156 0.949 . S
C1160 C1168 1.574 . S
C1160 C1176 1.368 . S
H1161 C1169 0.950 . S
H1162 C1167 0.950 . S
H1163 C1168 0.949 . S
H1164 C1170 0.950 . S
H1165 C1171 0.950 . S
H1166 C1172 0.949 . S
C1167 H1162 0.950 . S
C1167 C1169 1.327 . S
C1167 C1173 1.429 . S
C1168 C1160 1.574 . S
C1168 H1163 0.949 . S
C1168 C1174 1.368 . S
C1169 C1153 1.349 . S
C1169 H1161 0.950 . S
C1169 C1167 1.327 . S
C1170 C1158 1.349 . S
C1170 H1164 0.950 . S
C1170 C1171 1.327 . S
C1171 H1165 0.950 . S
C1171 C1170 1.327 . S
C1171 C1175 1.429 . S
C1172 C1155 1.574 . S
C1172 H1166 0.949 . S
C1172 C1176 1.368 . S
C1173 C1154 1.429 . S
C1173 C1167 1.429 . S
C1173 C1174 1.523 . S
C1174 C1155 1.368 . S
C1174 C1168 1.368 . S
C1174 C1173 1.523 . S
C1175 C1159 1.429 . S
C1175 C1171 1.429 . S
C1175 C1176 1.523 . S
C1176 C1160 1.368 . S
C1176 C1172 1.368 . S
C1176 C1175 1.523 . S
H1177 C1152 0.950 . S
H1178 C1154 0.950 . S
H1179 C1155 0.949 . S
H1180 C1157 0.950 . S
H1181 C1159 0.950 . S
C1182 C1183 1.349 . S
C1182 C1184 1.327 . S
C1182 H1207 0.950 . S
C1183 C1182 1.349 . S
C1183 C1199 1.349 . S
C1184 C1182 1.327 . S
C1184 C1203 1.429 . S
C1184 H1208 0.950 . S
C1185 C1202 1.574 . S
C1185 C1204 1.368 . S
C1185 H1209 0.949 . S
H1186 C1190 0.949 . S
C1187 C1188 1.349 . S
C1187 C1189 1.327 . S
C1187 H1210 0.950 . S
C1188 C1187 1.349 . S
C1188 C1200 1.349 . S
C1189 C1187 1.327 . S
C1189 C1205 1.429 . S
C1189 H1211 0.950 . S
C1190 H1186 0.949 . S
C1190 C1198 1.574 . S
C1190 C1206 1.368 . S
H1191 C1199 0.950 . S
H1192 C1197 0.950 . S
H1193 C1198 0.949 . S
H1194 C1200 0.950 . S
H1195 C1201 0.950 . S
H1196 C1202 0.949 . S
C1197 H1192 0.950 . S
C1197 C1199 1.327 . S
C1197 C1203 1.429 . S
C1198 C1190 1.574 . S
C1198 H1193 0.949 . S
C1198 C1204 1.368 . S
C1199 C1183 1.349 . S
C1199 H1191 0.950 . S
C1199 C1197 1.327 . S
C1200 C1188 1.349 . S
C1200 H1194 0.950 . S
C1200 C1201 1.327 . S
C1201 H1195 0.950 . S
C1201 C1200 1.327 . S
C1201 C1205 1.429 . S
C1202 C1185 1.574 . S
C1202 H1196 0.949 . S
C1202 C1206 1.368 . S
C1203 C1184 1.429 . S
C1203 C1197 1.429 . S
C1203 C1204 1.523 . S
C1204 C1185 1.368 . S
C1204 C1198 1.368 . S
C1204 C1203 1.523 . S
C1205 C1189 1.429 . S
C1205 C1201 1.429 . S
C1205 C1206 1.523 . S
C1206 C1190 1.368 . S
C1206 C1202 1.368 . S
C1206 C1205 1.523 . S
H1207 C1182 0.950 . S
H1208 C1184 0.950 . S
H1209 C1185 0.949 . S
H1210 C1187 0.950 . S
H1211 C1189 0.950 . S
C1212 C1213 1.349 . S
C1212 C1214 1.327 . S
C1212 H1237 0.950 . S
C1213 C1212 1.349 . S
C1213 C1229 1.349 . S
C1214 C1212 1.327 . S
C1214 C1233 1.429 . S
C1214 H1238 0.950 . S
C1215 C1232 1.574 . S
C1215 C1234 1.368 . S
C1215 H1239 0.949 . S
H1216 C1220 0.949 . S
C1217 C1218 1.349 . S
C1217 C1219 1.327 . S
C1217 H1240 0.950 . S
C1218 C1217 1.349 . S
C1218 C1230 1.349 . S
C1219 C1217 1.327 . S
C1219 C1235 1.429 . S
C1219 H1241 0.950 . S
C1220 H1216 0.949 . S
C1220 C1228 1.574 . S
C1220 C1236 1.368 . S
H1221 C1229 0.950 . S
H1222 C1227 0.950 . S
H1223 C1228 0.949 . S
H1224 C1230 0.950 . S
H1225 C1231 0.950 . S
H1226 C1232 0.949 . S
C1227 H1222 0.950 . S
C1227 C1229 1.327 . S
C1227 C1233 1.429 . S
C1228 C1220 1.574 . S
C1228 H1223 0.949 . S
C1228 C1234 1.368 . S
C1229 C1213 1.349 . S
C1229 H1221 0.950 . S
C1229 C1227 1.327 . S
C1230 C1218 1.349 . S
C1230 H1224 0.950 . S
C1230 C1231 1.327 . S
C1231 H1225 0.950 . S
C1231 C1230 1.327 . S
C1231 C1235 1.429 . S
C1232 C1215 1.574 . S
C1232 H1226 0.949 . S
C1232 C1236 1.368 . S
C1233 C1214 1.429 . S
C1233 C1227 1.429 . S
C1233 C1234 1.523 . S
C1234 C1215 1.368 . S
C1234 C1228 1.368 . S
C1234 C1233 1.523 . S
C1235 C1219 1.429 . S
C1235 C1231 1.429 . S
C1235 C1236 1.523 . S
C1236 C1220 1.368 . S
C1236 C1232 1.368 . S
C1236 C1235 1.523 . S
H1237 C1212 0.950 . S
H1238 C1214 0.950 . S
H1239 C1215 0.949 . S
H1240 C1217 0.950 . S
H1241 C1219 0.950 . S
C1242 C1243 1.349 . S
C1242 C1244 1.327 . S
C1242 H1267 0.950 . S
C1243 C1242 1.349 . S
C1243 C1259 1.349 . S
C1244 C1242 1.327 . S
C1244 C1263 1.429 . S
C1244 H1268 0.950 . S
C1245 C1262 1.574 . S
C1245 C1264 1.368 . S
C1245 H1269 0.949 . S
H1246 C1250 0.949 . S
C1247 C1248 1.349 . S
C1247 C1249 1.327 . S
C1247 H1270 0.950 . S
C1248 C1247 1.349 . S
C1248 C1260 1.349 . S
C1249 C1247 1.327 . S
C1249 C1265 1.429 . S
C1249 H1271 0.950 . S
C1250 H1246 0.949 . S
C1250 C1258 1.574 . S
C1250 C1266 1.368 . S
H1251 C1259 0.950 . S
H1252 C1257 0.950 . S
H1253 C1258 0.949 . S
H1254 C1260 0.950 . S
H1255 C1261 0.950 . S
H1256 C1262 0.949 . S
C1257 H1252 0.950 . S
C1257 C1259 1.327 . S
C1257 C1263 1.429 . S
C1258 C1250 1.574 . S
C1258 H1253 0.949 . S
C1258 C1264 1.368 . S
C1259 C1243 1.349 . S
C1259 H1251 0.950 . S
C1259 C1257 1.327 . S
C1260 C1248 1.349 . S
C1260 H1254 0.950 . S
C1260 C1261 1.327 . S
C1261 H1255 0.950 . S
C1261 C1260 1.327 . S
C1261 C1265 1.429 . S
C1262 C1245 1.574 . S
C1262 H1256 0.949 . S
C1262 C1266 1.368 . S
C1263 C1244 1.429 . S
C1263 C1257 1.429 . S
C1263 C1264 1.523 . S
C1264 C1245 1.368 . S
C1264 C1258 1.368 . S
C1264 C1263 1.523 . S
C1265 C1249 1.429 . S
C1265 C1261 1.429 . S
C1265 C1266 1.523 . S
C1266 C1250 1.368 . S
C1266 C1262 1.368 . S
C1266 C1265 1.523 . S
H1267 C1242 0.950 . S
H1268 C1244 0.950 . S
H1269 C1245 0.949 . S
H1270 C1247 0.950 . S
H1271 C1249 0.950 . S
C1272 C1273 1.349 . S
C1272 C1274 1.327 . S
C1272 H1297 0.950 . S
C1273 C1272 1.349 . S
C1273 C1289 1.349 . S
C1274 C1272 1.327 . S
C1274 C1293 1.429 . S
C1274 H1298 0.950 . S
C1275 C1292 1.574 . S
C1275 C1294 1.368 . S
C1275 H1299 0.949 . S
H1276 C1280 0.949 . S
C1277 C1278 1.349 . S
C1277 C1279 1.327 . S
C1277 H1300 0.950 . S
C1278 C1277 1.349 . S
C1278 C1290 1.349 . S
C1279 C1277 1.327 . S
C1279 C1295 1.429 . S
C1279 H1301 0.950 . S
C1280 H1276 0.949 . S
C1280 C1288 1.574 . S
C1280 C1296 1.368 . S
H1281 C1289 0.950 . S
H1282 C1287 0.950 . S
H1283 C1288 0.949 . S
H1284 C1290 0.950 . S
H1285 C1291 0.950 . S
H1286 C1292 0.949 . S
C1287 H1282 0.950 . S
C1287 C1289 1.327 . S
C1287 C1293 1.429 . S
C1288 C1280 1.574 . S
C1288 H1283 0.949 . S
C1288 C1294 1.368 . S
C1289 C1273 1.349 . S
C1289 H1281 0.950 . S
C1289 C1287 1.327 . S
C1290 C1278 1.349 . S
C1290 H1284 0.950 . S
C1290 C1291 1.327 . S
C1291 H1285 0.950 . S
C1291 C1290 1.327 . S
C1291 C1295 1.429 . S
C1292 C1275 1.574 . S
C1292 H1286 0.949 . S
C1292 C1296 1.368 . S
C1293 C1274 1.429 . S
C1293 C1287 1.429 . S
C1293 C1294 1.523 . S
C1294 C1275 1.368 . S
C1294 C1288 1.368 . S
C1294 C1293 1.523 . S
C1295 C1279 1.429 . S
C1295 C1291 1.429 . S
C1295 C1296 1.523 . S
C1296 C1280 1.368 . S
C1296 C1292 1.368 . S
C1296 C1295 1.523 . S
H1297 C1272 0.950 . S
H1298 C1274 0.950 . S
H1299 C1275 0.949 . S
H1300 C1277 0.950 . S
H1301 C1279 0.950 . S
C1302 C1303 1.349 . S
C1302 C1304 1.327 . S
C1302 H1327 0.950 . S
C1303 C1302 1.349 . S
C1303 C1319 1.349 . S
C1304 C1302 1.327 . S
C1304 C1323 1.429 . S
C1304 H1328 0.950 . S
C1305 C1322 1.574 . S
C1305 C1324 1.368 . S
C1305 H1329 0.949 . S
H1306 C1310 0.949 . S
C1307 C1308 1.349 . S
C1307 C1309 1.327 . S
C1307 H1330 0.950 . S
C1308 C1307 1.349 . S
C1308 C1320 1.349 . S
C1309 C1307 1.327 . S
C1309 C1325 1.429 . S
C1309 H1331 0.950 . S
C1310 H1306 0.949 . S
C1310 C1318 1.574 . S
C1310 C1326 1.368 . S
H1311 C1319 0.950 . S
H1312 C1317 0.950 . S
H1313 C1318 0.949 . S
H1314 C1320 0.950 . S
H1315 C1321 0.950 . S
H1316 C1322 0.949 . S
C1317 H1312 0.950 . S
C1317 C1319 1.327 . S
C1317 C1323 1.429 . S
C1318 C1310 1.574 . S
C1318 H1313 0.949 . S
C1318 C1324 1.368 . S
C1319 C1303 1.349 . S
C1319 H1311 0.950 . S
C1319 C1317 1.327 . S
C1320 C1308 1.349 . S
C1320 H1314 0.950 . S
C1320 C1321 1.327 . S
C1321 H1315 0.950 . S
C1321 C1320 1.327 . S
C1321 C1325 1.429 . S
C1322 C1305 1.574 . S
C1322 H1316 0.949 . S
C1322 C1326 1.368 . S
C1323 C1304 1.429 . S
C1323 C1317 1.429 . S
C1323 C1324 1.523 . S
C1324 C1305 1.368 . S
C1324 C1318 1.368 . S
C1324 C1323 1.523 . S
C1325 C1309 1.429 . S
C1325 C1321 1.429 . S
C1325 C1326 1.523 . S
C1326 C1310 1.368 . S
C1326 C1322 1.368 . S
C1326 C1325 1.523 . S
H1327 C1302 0.950 . S
H1328 C1304 0.950 . S
H1329 C1305 0.949 . S
H1330 C1307 0.950 . S
H1331 C1309 0.950 . S
C253 C241 1.956 . S
C258 C3 1.956 . S
C283 C213 1.956 . S
C288 C17 1.956 . S
C313 C227 1.956 . S
C318 C31 1.956 . S
C343 C101 1.956 . S
C348 C45 1.956 . S
C373 C115 1.956 . S
C378 C59 1.956 . S
C403 C73 1.956 . S
C408 C87 1.956 . S
C433 C129 1.956 . S
C438 C185 1.956 . S
C463 C143 1.956 . S
C468 C199 1.956 . S
C493 C157 1.956 . S
C498 C171 1.956 . S
C523 C7 0.243 . S
C528 C245 0.243 . S
C553 C217 0.243 . S
C558 C21 0.243 . S
C583 C35 0.243 . S
C588 C231 0.243 . S
C613 C105 0.243 . S
C618 C49 0.243 . S
C643 C63 0.243 . S
C648 C119 0.243 . S
C673 C77 0.243 . S
C678 C91 0.243 . S
C703 C133 0.243 . S
C708 C189 0.243 . S
C733 C203 0.243 . S
C738 C147 0.243 . S
C763 C175 0.243 . S
C768 C161 0.243 . S
C793 C9 1.771 . S
C798 C51 1.771 . S
C823 C65 1.771 . S
C828 C23 1.771 . S
C853 C79 1.771 . S
C858 C37 1.771 . S
C883 C78 1.767 . S
C888 C22 1.767 . S
C913 C36 1.767 . S
C918 C50 1.767 . S
C943 C64 1.767 . S
C948 C8 1.767 . S
C973 C93 1.771 . S
C978 C135 1.771 . S
C1003 C149 1.771 . S
C1008 C107 1.771 . S
C1033 C163 1.771 . S
C1038 C121 1.771 . S
C1063 C162 1.767 . S
C1068 C106 1.767 . S
C1093 C120 1.767 . S
C1098 C134 1.767 . S
C1123 C148 1.767 . S
C1128 C92 1.767 . S
C1153 C219 1.771 . S
C1158 C177 1.771 . S
C1183 C233 1.771 . S
C1188 C191 1.771 . S
C1213 C205 1.771 . S
C1218 C247 1.771 . S
C1243 C246 1.767 . S
C1248 C190 1.767 . S
C1273 C204 1.767 . S
C1278 C218 1.767 . S
C1303 C232 1.767 . S
C1308 C176 1.767 . S
