# Generated by pormake.
# Topology sod, (4)-cn, num edge types: 1
# Building blocks:
#     Node 0, Type 0, BuildingBlock: AZAVOO_clean_sbu_0, # of connection points: 4
#     Node 1, Type 0, BuildingBlock: AZAVOO_clean_sbu_0, # of connection points: 4
#     Node 2, Type 0, BuildingBlock: AZAVOO_clean_sbu_0, # of connection points: 4
#     Node 3, Type 0, BuildingBlock: AZAVOO_clean_sbu_0, # of connection points: 4
#     Node 4, Type 0, BuildingBlock: AZAVOO_clean_sbu_0, # of connection points: 4
#     Node 5, Type 0, BuildingBlock: AZAVOO_clean_sbu_0, # of connection points: 4
#     Node 6, Type 0, BuildingBlock: AZAVOO_clean_sbu_0, # of connection points: 4
#     Node 7, Type 0, BuildingBlock: AZAVOO_clean_sbu_0, # of connection points: 4
#     Node 8, Type 0, BuildingBlock: AZAVOO_clean_sbu_0, # of connection points: 4
#     Node 9, Type 0, BuildingBlock: AZAVOO_clean_sbu_0, # of connection points: 4
#     Node 10, Type 0, BuildingBlock: AZAVOO_clean_sbu_0, # of connection points: 4
#     Node 11, Type 0, BuildingBlock: AZAVOO_clean_sbu_0, # of connection points: 4
#     Edge 12, Type (0, 0), BuildingBlock: MIFKUJ_clean_linker_0, # of connection points: 2
#     Edge 13, Type (0, 0), BuildingBlock: MIFKUJ_clean_linker_0, # of connection points: 2
#     Edge 14, Type (0, 0), BuildingBlock: MIFKUJ_clean_linker_0, # of connection points: 2
#     Edge 15, Type (0, 0), BuildingBlock: MIFKUJ_clean_linker_0, # of connection points: 2
#     Edge 16, Type (0, 0), BuildingBlock: MIFKUJ_clean_linker_0, # of connection points: 2
#     Edge 17, Type (0, 0), BuildingBlock: MIFKUJ_clean_linker_0, # of connection points: 2
#     Edge 18, Type (0, 0), BuildingBlock: MIFKUJ_clean_linker_0, # of connection points: 2
#     Edge 19, Type (0, 0), BuildingBlock: MIFKUJ_clean_linker_0, # of connection points: 2
#     Edge 20, Type (0, 0), BuildingBlock: MIFKUJ_clean_linker_0, # of connection points: 2
#     Edge 21, Type (0, 0), BuildingBlock: MIFKUJ_clean_linker_0, # of connection points: 2
#     Edge 22, Type (0, 0), BuildingBlock: MIFKUJ_clean_linker_0, # of connection points: 2
#     Edge 23, Type (0, 0), BuildingBlock: MIFKUJ_clean_linker_0, # of connection points: 2
#     Edge 24, Type (0, 0), BuildingBlock: MIFKUJ_clean_linker_0, # of connection points: 2
#     Edge 25, Type (0, 0), BuildingBlock: MIFKUJ_clean_linker_0, # of connection points: 2
#     Edge 26, Type (0, 0), BuildingBlock: MIFKUJ_clean_linker_0, # of connection points: 2
#     Edge 27, Type (0, 0), BuildingBlock: MIFKUJ_clean_linker_0, # of connection points: 2
#     Edge 28, Type (0, 0), BuildingBlock: MIFKUJ_clean_linker_0, # of connection points: 2
#     Edge 29, Type (0, 0), BuildingBlock: MIFKUJ_clean_linker_0, # of connection points: 2
#     Edge 30, Type (0, 0), BuildingBlock: MIFKUJ_clean_linker_0, # of connection points: 2
#     Edge 31, Type (0, 0), BuildingBlock: MIFKUJ_clean_linker_0, # of connection points: 2
#     Edge 32, Type (0, 0), BuildingBlock: MIFKUJ_clean_linker_0, # of connection points: 2
#     Edge 33, Type (0, 0), BuildingBlock: MIFKUJ_clean_linker_0, # of connection points: 2
#     Edge 34, Type (0, 0), BuildingBlock: MIFKUJ_clean_linker_0, # of connection points: 2
#     Edge 35, Type (0, 0), BuildingBlock: MIFKUJ_clean_linker_0, # of connection points: 2
# Relax obj value: 0.127
# Max RMSD: 0.162
# Mean RMSD: 0.156
data_MOF--net-sod--node1-AZAVOO_clean_sbu_0--edge1-MIFKUJ_clean_linker_0
_symmetry_space_group_name_H-M    P1
_symmetry_Int_Tables_number       1
_symmetry_cell_setting            triclinic
loop_
_symmetry_equiv_pos_as_xyz
'x, y, z'
_cell_length_a     53.653517
_cell_length_b     54.300813
_cell_length_c     54.80213
_cell_angle_alpha  89.780596
_cell_angle_beta   92.850083
_cell_angle_gamma 95.556737
loop_
_atom_site_label
_atom_site_type_symbol
_atom_site_fract_x
_atom_site_fract_y
_atom_site_fract_z
_atom_type_partial_charge
Mg0 Mg 0.02887 0.24498 0.52867 0.0
O1 O 0.99177 0.21992 0.52329 0.0
O2 O 0.96127 0.24505 0.52569 0.0
Mg3 Mg 0.97771 0.28441 0.53466 0.0
C4 C 0.96856 0.22367 0.52232 0.0
C5 C 0.07419 0.22257 0.51089 0.0
O6 O 0.08066 0.24653 0.51038 0.0
O7 O 0.02318 0.26091 0.49019 0.0
O8 O 0.99401 0.28654 0.49685 0.0
O9 O 0.02983 0.23996 0.56946 0.0
O10 O 0.01122 0.26897 0.54933 0.0
C11 C 0.00917 0.2775 0.48286 0.0
C12 C 0.01629 0.2584 0.56972 0.0
O13 O 0.0519 0.21501 0.51595 0.0
Mg14 Mg 0.73158 0.98773 0.48482 0.0
O15 O 0.75905 0.02169 0.47886 0.0
O16 O 0.73786 0.05434 0.47072 0.0
Mg17 Mg 0.69611 0.04088 0.47078 0.0
C18 C 0.75848 0.04463 0.47416 0.0
C19 C 0.77008 0.94946 0.4869 0.0
O20 O 0.75495 0.94185 0.46829 0.0
O21 O 0.724 0.00266 0.52245 0.0
O22 O 0.70112 0.03377 0.512 0.0
O23 O 0.72868 0.9792 0.44485 0.0
O24 O 0.70377 0.00267 0.46295 0.0
C25 C 0.71132 0.02039 0.52815 0.0
C26 C 0.71034 0.99303 0.44314 0.0
O27 O 0.76489 0.96789 0.49926 0.0
Mg28 Mg 0.01808 0.77969 0.5241 0.0
O29 O 0.05536 0.8045 0.52928 0.0
O30 O 0.0851 0.77904 0.53718 0.0
Mg31 Mg 0.06771 0.73917 0.53827 0.0
C32 C 0.07829 0.80073 0.53379 0.0
C33 C 0.99597 0.83053 0.52182 0.0
O34 O 0.00844 0.83232 0.54309 0.0
O35 O 0.0291 0.76756 0.48626 0.0
O36 O 0.05748 0.74161 0.49742 0.0
O37 O 0.0116 0.78053 0.56431 0.0
O38 O 0.03203 0.75276 0.54664 0.0
C39 C 0.04443 0.75199 0.48096 0.0
C40 C 0.02413 0.76137 0.56635 0.0
O41 O 0.99764 0.81164 0.50857 0.0
Mg42 Mg 0.31469 0.04229 0.54608 0.0
O43 O 0.28744 0.00752 0.53995 0.0
O44 O 0.30927 0.97635 0.53013 0.0
Mg45 Mg 0.35049 0.99148 0.52914 0.0
C46 C 0.28856 0.98488 0.53437 0.0
C47 C 0.28451 0.08446 0.55671 0.0
O48 O 0.30499 0.09491 0.54733 0.0
O49 O 0.32823 0.02741 0.58297 0.0
O50 O 0.35134 0.99809 0.57059 0.0
O51 O 0.31086 0.05169 0.50671 0.0
O52 O 0.33968 0.02905 0.52255 0.0
C53 C 0.34287 0.01056 0.58755 0.0
C54 C 0.32927 0.03851 0.5035 0.0
O55 O 0.28319 0.06147 0.56143 0.0
Mg56 Mg 0.47001 0.00891 0.2312 0.0
O57 O 0.50857 0.00472 0.25019 0.0
O58 O 0.53547 -0.00016 0.22106 0.0
Mg59 Mg 0.51411 9e-05 0.18404 0.0
C60 C 0.53057 0.00175 0.2435 0.0
C61 C 0.43246 0.01476 0.26932 0.0
O62 O 0.41977 0.00158 0.25195 0.0
O63 O 0.48369 0.04808 0.22018 0.0
O64 O 0.50936 0.0412 0.19059 0.0
O65 O 0.46048 0.96834 0.23256 0.0
O66 O 0.47926 0.98788 0.202 0.0
C67 C 0.49864 0.05594 0.20386 0.0
C68 C 0.47132 0.96727 0.21206 0.0
O69 O 0.45532 0.02208 0.26636 0.0
Mg70 Mg 0.06914 0.51308 0.30584 0.0
O71 O 0.03193 0.50719 0.28313 0.0
O72 O 0.00119 0.499 0.30897 0.0
Mg73 Mg 0.01885 0.49802 0.34771 0.0
C74 C 0.00873 0.50248 0.28738 0.0
C75 C 0.11181 0.52317 0.27229 0.0
O76 O 0.12089 0.51049 0.29058 0.0
O77 O 0.05863 0.55091 0.31763 0.0
O78 O 0.02988 0.53988 0.34481 0.0
O79 O 0.07425 0.47304 0.30334 0.0
O80 O 0.05416 0.48933 0.33255 0.0
C81 C 0.04341 0.55644 0.33349 0.0
C82 C 0.06103 0.46985 0.32239 0.0
O83 O 0.08948 0.52902 0.27301 0.0
Mg84 Mg 0.57737 0.01764 0.80232 0.0
O85 O 0.53786 0.01002 0.78454 0.0
O86 O 0.511 -0.00037 0.81359 0.0
Mg87 Mg 0.53365 0.00069 0.85016 0.0
C88 C 0.51567 0.00375 0.79124 0.0
C89 C 0.61556 0.03595 0.7654 0.0
O90 O 0.62962 0.03164 0.78498 0.0
O91 O 0.56691 0.0551 0.8154 0.0
O92 O 0.54184 0.04271 0.84542 0.0
O93 O 0.58313 0.97758 0.79951 0.0
O94 O 0.56758 0.99453 0.83129 0.0
C95 C 0.55312 0.05984 0.83282 0.0
C96 C 0.5733 0.97495 0.82056 0.0
O97 O 0.59187 0.03336 0.76672 0.0
Mg98 Mg 0.97734 0.50432 0.73009 0.0
O99 O 0.01507 0.50136 0.75091 0.0
O100 O 0.04379 0.49591 0.72372 0.0
Mg101 Mg 0.02408 0.4947 0.68579 0.0
C102 C 0.03755 0.49848 0.74568 0.0
C103 C 0.94053 0.52807 0.76245 0.0
O104 O 0.92969 0.53109 0.74076 0.0
O105 O 0.99097 0.54313 0.71829 0.0
O106 O 0.01835 0.53599 0.69036 0.0
O107 O 0.96834 0.46385 0.7327 0.0
O108 O 0.98833 0.48243 0.7023 0.0
C109 C 0.0066 0.55084 0.70253 0.0
C110 C 0.98017 0.46213 0.71285 0.0
O111 O 0.96124 0.51853 0.76405 0.0
Mg112 Mg 0.23262 0.49014 0.99298 0.0
O113 O 0.2608 0.52342 0.98667 0.0
O114 O 0.24024 0.55659 0.97891 0.0
Mg115 Mg 0.19823 0.54401 0.9793 0.0
C116 C 0.26064 0.5464 0.98195 0.0
C117 C 0.26594 0.44787 0.99739 0.0
O118 O 0.24708 0.43899 0.98276 0.0
O119 O 0.22567 0.50522 0.03072 0.0
O120 O 0.20243 0.5361 0.02048 0.0
O121 O 0.22956 0.48146 0.95315 0.0
O122 O 0.20525 0.50571 0.97108 0.0
C123 C 0.21262 0.52261 0.03655 0.0
C124 C 0.21172 0.49588 0.9513 0.0
O125 O 0.26517 0.46908 0.00688 0.0
Mg126 Mg 0.51883 0.28259 0.02539 0.0
O127 O 0.55685 0.30612 0.03102 0.0
O128 O 0.58534 0.27961 0.04009 0.0
Mg129 Mg 0.56642 0.24033 0.04106 0.0
C130 C 0.57946 0.30155 0.03616 0.0
C131 C 0.47916 0.30964 0.99761 0.0
O132 O 0.47239 0.28624 0.99249 0.0
O133 O 0.53027 0.27002 0.98791 0.0
O134 O 0.55756 0.24328 -3e-05 0.0
O135 O 0.51152 0.28424 0.06526 0.0
O136 O 0.5312 0.25534 0.04844 0.0
C137 C 0.54538 0.25406 0.98312 0.0
C138 C 0.52322 0.26457 0.06783 0.0
O139 O 0.49975 0.31518 0.00971 0.0
Mg140 Mg 0.81389 0.5421 0.03428 0.0
O141 O 0.78871 0.50615 0.02855 0.0
O142 O 0.81153 0.47661 0.01648 0.0
Mg143 Mg 0.85153 0.49474 0.01245 0.0
C144 C 0.79069 0.48385 0.02235 0.0
C145 C 0.7834 0.5808 0.05686 0.0
O146 O 0.80419 0.59452 0.05228 0.0
O147 O 0.83137 0.52691 0.06946 0.0
O148 O 0.85607 0.50061 0.05393 0.0
O149 O 0.8066 0.55256 0.99539 0.0
O150 O 0.8379 0.53155 0.00848 0.0
C151 C 0.84807 0.51169 0.0721 0.0
C152 C 0.82567 0.54088 0.99048 0.0
O153 O 0.78228 0.55763 0.05331 0.0
Mg154 Mg 0.52961 0.74941 0.02601 0.0
O155 O 0.49364 0.72336 0.01731 0.0
O156 O 0.46277 0.74799 0.0116 0.0
Mg157 Mg 0.47781 0.78822 0.01693 0.0
C158 C 0.47062 0.72654 0.01229 0.0
C159 C 0.57741 0.72612 0.02837 0.0
O160 O 0.5827 0.74947 0.03457 0.0
O161 O 0.53141 0.76082 0.98593 0.0
O162 O 0.50004 0.78519 0.98258 0.0
O163 O 0.52297 0.74867 0.06586 0.0
O164 O 0.50873 0.77582 0.03993 0.0
C165 C 0.518 0.77503 0.97352 0.0
C166 C 0.51017 0.76742 0.0619 0.0
O167 O 0.5549 0.71869 0.02177 0.0
H168 H 0.98182 0.3123 0.4619 0.0
H169 H 0.98968 0.33533 0.42486 0.0
H170 H 0.04947 0.29068 0.40979 0.0
H171 H 0.04233 0.2679 0.44796 0.0
H172 H 0.06565 0.33621 0.40556 0.0
H173 H 0.99413 0.29026 0.37104 0.0
H174 H 0.95126 0.26925 0.368 0.0
H175 H 0.92081 0.33903 0.37469 0.0
H176 H 0.96347 0.36046 0.37815 0.0
H177 H 0.07834 0.4265 0.30882 0.0
H178 H 0.06856 0.38529 0.32631 0.0
H179 H 0.01774 0.4151 0.37434 0.0
H180 H 0.02776 0.45626 0.35747 0.0
H181 H 0.99952 0.36786 0.35084 0.0
H182 H 0.07342 0.40951 0.39608 0.0
H183 H 0.1168 0.42942 0.3982 0.0
H184 H 0.14278 0.36423 0.36799 0.0
H185 H 0.09945 0.34407 0.36541 0.0
C186 C 0.99642 0.30696 0.45062 0.0
C187 C 0.01162 0.28835 0.45812 0.0
C188 C 0.0007 0.32004 0.42913 0.0
C189 C 0.01993 0.31457 0.41419 0.0
C190 C 0.03443 0.29518 0.42095 0.0
C191 C 0.0303 0.28214 0.44275 0.0
C192 C 0.02656 0.33135 0.39352 0.0
C193 C 0.05128 0.3425 0.39307 0.0
C194 C 0.00792 0.33971 0.3771 0.0
C195 C 0.98209 0.32698 0.37489 0.0
C196 C 0.97831 0.30113 0.372 0.0
C197 C 0.95403 0.28914 0.37019 0.0
C198 C 0.93333 0.30279 0.37115 0.0
C199 C 0.93687 0.32848 0.3739 0.0
C200 C 0.96111 0.34057 0.37573 0.0
C201 C 0.06489 0.42424 0.32294 0.0
C202 C 0.05383 0.44472 0.33177 0.0
C203 C 0.05932 0.40069 0.33285 0.0
C204 C 0.0424 0.39723 0.35152 0.0
C205 C 0.03071 0.41743 0.35978 0.0
C206 C 0.03654 0.44099 0.35016 0.0
C207 C 0.03809 0.37312 0.36397 0.0
C208 C 0.01389 0.36076 0.36278 0.0
C209 C 0.05723 0.36333 0.37854 0.0
C210 C 0.08321 0.37543 0.38026 0.0
C211 C 0.08836 0.39952 0.3897 0.0
C212 C 0.11293 0.41083 0.39102 0.0
C213 C 0.13252 0.39813 0.38315 0.0
C214 C 0.12758 0.37407 0.37402 0.0
C215 C 0.10303 0.36269 0.37263 0.0
H216 H 0.15153 0.40692 0.38419 0.0
H217 H 0.91455 0.29347 0.36977 0.0
H218 H 0.71549 0.97012 0.39959 0.0
H219 H 0.68925 0.97268 0.36195 0.0
H220 H 0.64779 0.02635 0.3958 0.0
H221 H 0.67352 0.02368 0.43345 0.0
H222 H 0.63731 0.96093 0.35839 0.0
H223 H 0.63006 0.0665 0.35064 0.0
H224 H 0.65628 0.10558 0.35956 0.0
H225 H 0.72281 0.06884 0.35185 0.0
H226 H 0.697 0.02963 0.34253 0.0
H227 H 0.52717 0.99244 0.29241 0.0
H228 H 0.5617 0.9913 0.32325 0.0
H229 H 0.61516 0.00869 0.26804 0.0
H230 H 0.58085 0.00954 0.23702 0.0
H231 H 0.62404 0.03759 0.31189 0.0
H232 H 0.60966 0.953 0.28538 0.0
H233 H 0.58396 0.91375 0.27591 0.0
H234 H 0.56293 0.90792 0.35045 0.0
H235 H 0.58821 0.94735 0.36028 0.0
C236 C 0.70104 0.98276 0.3989 0.0
C237 C 0.69665 0.99674 0.41953 0.0
C238 C 0.68603 0.98411 0.37743 0.0
C239 C 0.66668 -0.00024 0.37611 0.0
C240 C 0.66282 0.01436 0.39637 0.0
C241 C 0.67759 0.01281 0.4179 0.0
C242 C 0.64934 -0.00032 0.35426 0.0
C243 C 0.63453 0.97765 0.34811 0.0
C244 C 0.64585 0.02148 0.34083 0.0
C245 C 0.66156 0.04507 0.34609 0.0
C246 C 0.65028 0.06678 0.35073 0.0
C247 C 0.66507 0.08896 0.35588 0.0
C248 C 0.6912 0.08968 0.35634 0.0
C249 C 0.70258 0.06824 0.35158 0.0
C250 C 0.68787 0.04602 0.3464 0.0
C251 C 0.54627 0.99601 0.28683 0.0
C252 C 0.55128 0.00098 0.26226 0.0
C253 C 0.56594 0.9953 0.30444 0.0
C254 C 0.5909 -0.00016 0.29783 0.0
C255 C 0.59599 0.00514 0.27343 0.0
C256 C 0.57636 0.00548 0.25575 0.0
C257 C 0.61171 -0.00101 0.31644 0.0
C258 C 0.62704 0.02085 0.32204 0.0
C259 C 0.61576 0.97702 0.32932 0.0
C260 C 0.60066 0.95323 0.32351 0.0
C261 C 0.59939 0.94345 0.2997 0.0
C262 C 0.58493 0.92115 0.29428 0.0
C263 C 0.57178 0.90837 0.31255 0.0
C264 C 0.57311 0.91785 0.33631 0.0
C265 C 0.58752 0.94016 0.34182 0.0
H266 H 0.56059 0.89111 0.30832 0.0
H267 H 0.70262 0.10686 0.36034 0.0
H268 H 0.02276 0.57443 0.37322 0.0
H269 H 0.0204 0.61724 0.3844 0.0
H270 H 0.05631 0.64133 0.31849 0.0
H271 H 0.05967 0.59802 0.30757 0.0
H272 H 0.07579 0.66859 0.35288 0.0
H273 H 0.99262 0.64982 0.32677 0.0
H274 H 0.95125 0.62614 0.32046 0.0
H275 H 0.94001 0.62923 0.39736 0.0
H276 H 0.98146 0.65258 0.40424 0.0
H277 H 0.01292 0.75986 0.44089 0.0
H278 H 0.01172 0.73893 0.40117 0.0
H279 H 0.0772 0.70306 0.42462 0.0
H280 H 0.07915 0.72448 0.46324 0.0
H281 H 0.00161 0.69379 0.39338 0.0
H282 H 0.10923 0.68253 0.38326 0.0
H283 H 0.14891 0.70952 0.38464 0.0
H284 H 0.10852 0.77302 0.37072 0.0
H285 H 0.06858 0.7464 0.36884 0.0
C286 C 0.02998 0.58875 0.36091 0.0
C287 C 0.04138 0.58275 0.33946 0.0
C288 C 0.02838 0.61334 0.36722 0.0
C289 C 0.03756 0.63266 0.352 0.0
C290 C 0.04888 0.62679 0.33045 0.0
C291 C 0.05083 0.60204 0.32425 0.0
C292 C 0.037 0.65873 0.36008 0.0
C293 C 0.05949 0.6743 0.36143 0.0
C294 C 0.01534 0.667 0.3699 0.0
C295 C 0.99023 0.653 0.36601 0.0
C296 C 0.9814 0.64536 0.34237 0.0
C297 C 0.95791 0.63198 0.33869 0.0
C298 C 0.94301 0.62619 0.35849 0.0
C299 C 0.95155 0.63377 0.38203 0.0
C300 C 0.97503 0.64714 0.38582 0.0
C301 C 0.02751 0.74813 0.43718 0.0
C302 C 0.04593 0.74361 0.45539 0.0
C303 C 0.02676 0.7361 0.4145 0.0
C304 C 0.04446 0.71946 0.40966 0.0
C305 C 0.06366 0.71621 0.42738 0.0
C306 C 0.06455 0.7283 0.44979 0.0
C307 C 0.04106 0.70244 0.38824 0.0
C308 C 0.01774 0.68858 0.38419 0.0
C309 C 0.0617 0.69634 0.37507 0.0
C310 C 0.08582 0.7124 0.3759 0.0
C311 C 0.10877 0.70221 0.38024 0.0
C312 C 0.13133 0.71747 0.38119 0.0
C313 C 0.13124 0.74297 0.37778 0.0
C314 C 0.10857 0.75327 0.3734 0.0
C315 C 0.08595 0.7381 0.37242 0.0
H316 H 0.14873 0.75475 0.37854 0.0
H317 H 0.92484 0.61582 0.35561 0.0
H318 H 0.36906 0.01405 0.49142 0.0
H319 H 0.38555 0.0103 0.45102 0.0
H320 H 0.3263 0.05045 0.4195 0.0
H321 H 0.30972 0.05443 0.45992 0.0
H322 H 0.36621 0.9895 0.4087 0.0
H323 H 0.35098 0.0878 0.37435 0.0
H324 H 0.34756 0.12939 0.39111 0.0
H325 H 0.39291 0.11233 0.45455 0.0
H326 H 0.39687 0.07079 0.43803 0.0
H327 H 0.38535 0.99817 0.28226 0.0
H328 H 0.36702 0.00292 0.32165 0.0
H329 H 0.43459 0.04596 0.34834 0.0
H330 H 0.45313 0.04139 0.30888 0.0
H331 H 0.39171 0.06554 0.36198 0.0
H332 H 0.42626 0.9871 0.36345 0.0
H333 H 0.43243 0.94566 0.34797 0.0
H334 H 0.35389 0.9232 0.353 0.0
H335 H 0.34719 0.96465 0.36819 0.0
C336 C 0.35935 0.02184 0.47588 0.0
C337 C 0.33811 0.03457 0.47887 0.0
C338 C 0.36881 0.01968 0.45281 0.0
C339 C 0.3573 0.03033 0.43236 0.0
C340 C 0.33565 0.0424 0.43514 0.0
C341 C 0.32616 0.04458 0.45823 0.0
C342 C 0.36842 0.02932 0.40826 0.0
C343 C 0.3717 0.00611 0.39844 0.0
C344 C 0.37591 0.05104 0.39509 0.0
C345 C 0.37398 0.07611 0.40505 0.0
C346 C 0.36029 0.09297 0.39183 0.0
C347 C 0.35825 0.11653 0.4013 0.0
C348 C 0.36994 0.12347 0.42392 0.0
C349 C 0.38378 0.1069 0.43708 0.0
C350 C 0.38591 0.08334 0.42768 0.0
C351 C 0.39628 0.00882 0.29641 0.0
C352 C 0.42078 0.01926 0.29252 0.0
C353 C 0.38578 0.01146 0.31892 0.0
C354 C 0.39958 0.02454 0.33793 0.0
C355 C 0.42368 0.03576 0.33386 0.0
C356 C 0.43426 0.03306 0.31135 0.0
C357 C 0.3892 0.02572 0.36233 0.0
C358 C 0.38606 0.04894 0.37219 0.0
C359 C 0.38219 0.00403 0.37572 0.0
C360 C 0.38619 0.97905 0.36672 0.0
C361 C 0.41027 0.97338 0.36107 0.0
C362 C 0.41387 0.94988 0.35238 0.0
C363 C 0.39356 0.93182 0.34944 0.0
C364 C 0.3696 0.93722 0.35525 0.0
C365 C 0.3659 0.9607 0.36392 0.0
H366 H 0.39638 0.91364 0.34271 0.0
H367 H 0.36831 0.1417 0.43122 0.0
H368 H 0.04088 0.57438 0.67301 0.0
H369 H 0.0464 0.61816 0.66298 0.0
H370 H 0.98833 0.63242 0.71126 0.0
H371 H 0.98239 0.58832 0.72128 0.0
H372 H 0.98056 0.65256 0.66754 0.0
H373 H 0.04856 0.65532 0.72541 0.0
H374 H 0.08625 0.64174 0.74699 0.0
H375 H 0.12708 0.65246 0.68176 0.0
H376 H 0.08953 0.66569 0.65963 0.0
H377 H 0.00221 0.76909 0.60948 0.0
H378 H 0.00229 0.74241 0.64573 0.0
H379 H 0.05377 0.69798 0.61244 0.0
H380 H 0.05377 0.7242 0.57659 0.0
H381 H 0.06311 0.70151 0.66206 0.0
H382 H 0.99075 0.68427 0.6035 0.0
H383 H 0.95271 0.69591 0.58091 0.0
H384 H 0.92038 0.7118 0.64855 0.0
H385 H 0.9584 0.70049 0.6715 0.0
C386 C 0.0294 0.58678 0.68174 0.0
C387 C 0.01107 0.57775 0.69783 0.0
C388 C 0.03278 0.61191 0.67616 0.0
C389 C 0.01803 0.62864 0.68665 0.0
C390 C 3e-05 0.61984 0.70311 0.0
C391 C 0.99666 0.59462 0.70877 0.0
C392 C 0.01991 0.65472 0.67827 0.0
C393 C 0.99849 0.66363 0.66707 0.0
C394 C 0.0433 0.66914 0.67756 0.0
C395 C 0.06614 0.66147 0.69082 0.0
C396 C 0.06553 0.65466 0.71561 0.0
C397 C 0.08688 0.64703 0.72795 0.0
C398 C 0.10904 0.64623 0.71575 0.0
C399 C 0.1099 0.65311 0.69119 0.0
C400 C 0.08859 0.66073 0.67875 0.0
C401 C 0.01405 0.75402 0.61019 0.0
C402 C 0.02777 0.74862 0.58998 0.0
C403 C 0.01405 0.7388 0.6309 0.0
C404 C 0.02783 0.71806 0.63164 0.0
C405 C 0.04305 0.71391 0.61231 0.0
C406 C 0.04293 0.72893 0.59167 0.0
C407 C 0.02403 0.69857 0.65044 0.0
C408 C 0.04506 0.69088 0.66352 0.0
C409 C 0.0003 0.68521 0.65293 0.0
C410 C 0.97748 0.69188 0.63916 0.0
C411 C 0.97558 0.69041 0.61352 0.0
C412 C 0.95403 0.69692 0.60066 0.0
C413 C 0.93417 0.70467 0.61329 0.0
C414 C 0.9358 0.70586 0.6388 0.0
C415 C 0.95734 0.69941 0.65173 0.0
H416 H 0.9175 0.7097 0.60331 0.0
H417 H 0.12554 0.64029 0.72534 0.0
H418 H 0.46531 0.99433 0.79825 0.0
H419 H 0.43068 0.99435 0.7675 0.0
H420 H 0.48356 0.00983 0.71136 0.0
H421 H 0.51822 0.0102 0.74188 0.0
H422 H 0.44686 0.03936 0.70686 0.0
H423 H 0.45339 0.95205 0.71861 0.0
H424 H 0.45397 0.91352 0.74252 0.0
H425 H 0.37937 0.92096 0.76456 0.0
H426 H 0.37848 0.95973 0.74102 0.0
H427 H 0.36883 0.97278 0.60465 0.0
H428 H 0.39169 0.97042 0.64391 0.0
H429 H 0.36181 0.0368 0.6676 0.0
H430 H 0.33909 0.03962 0.62795 0.0
H431 H 0.38329 0.96774 0.69171 0.0
H432 H 0.40999 0.07243 0.69724 0.0
H433 H 0.41234 0.10914 0.67043 0.0
H434 H 0.42559 0.06374 0.60931 0.0
H435 H 0.42362 0.02685 0.63583 0.0
C436 C 0.46961 0.9976 0.77934 0.0
C437 C 0.4946 0.00229 0.77257 0.0
C438 C 0.44976 0.99756 0.76179 0.0
C439 C 0.45454 0.00205 0.73714 0.0
C440 C 0.47944 0.00646 0.73031 0.0
C441 C 0.49925 0.00656 0.7478 0.0
C442 C 0.43375 0.00257 0.71833 0.0
C443 C 0.43284 0.02377 0.70372 0.0
C444 C 0.41548 0.98222 0.71416 0.0
C445 C 0.41599 0.95893 0.7283 0.0
C446 C 0.4372 0.94558 0.72873 0.0
C447 C 0.43756 0.92368 0.74218 0.0
C448 C 0.41675 0.91484 0.75512 0.0
C449 C 0.39549 0.92785 0.75457 0.0
C450 C 0.39505 0.94978 0.74117 0.0
C451 C 0.36672 0.98671 0.6183 0.0
C452 C 0.3525 0.00668 0.61295 0.0
C453 C 0.3797 0.98521 0.64084 0.0
C454 C 0.37879 0.00364 0.65852 0.0
C455 C 0.36303 0.02255 0.65404 0.0
C456 C 0.35 0.02409 0.6314 0.0
C457 C 0.39662 0.00442 0.68013 0.0
C458 C 0.39698 0.98352 0.69527 0.0
C459 C 0.41477 0.02482 0.68449 0.0
C460 C 0.41634 0.04689 0.66845 0.0
C461 C 0.41346 0.07033 0.67809 0.0
C462 C 0.41472 0.09115 0.66295 0.0
C463 C 0.41901 0.08876 0.63816 0.0
C464 C 0.42217 0.06555 0.62849 0.0
C465 C 0.42097 0.04469 0.64356 0.0
H466 H 0.41995 0.10489 0.62647 0.0
H467 H 0.41706 0.89788 0.76551 0.0
H468 H 0.04539 0.27184 0.61007 0.0
H469 H 0.03515 0.30026 0.6417 0.0
H470 H 0.95871 0.2961 0.61208 0.0
H471 H 0.96953 0.26895 0.57955 0.0
H472 H 0.9753 0.34036 0.61314 0.0
H473 H 0.97646 0.27721 0.67304 0.0
H474 H 0.99231 0.24255 0.69633 0.0
H475 H 0.05736 0.28964 0.72144 0.0
H476 H 0.0421 0.32451 0.69803 0.0
H477 H 0.96334 0.41672 0.73033 0.0
H478 H 0.96666 0.37639 0.71175 0.0
H479 H 0.00992 0.41178 0.65485 0.0
H480 H 0.00599 0.45215 0.67279 0.0
H481 H 0.00344 0.34903 0.70052 0.0
H482 H 0.99232 0.38572 0.6013 0.0
H483 H 0.97234 0.41886 0.57915 0.0
H484 H 0.91886 0.42047 0.63473 0.0
H485 H 0.93829 0.38712 0.65702 0.0
C486 C 0.02621 0.27633 0.61094 0.0
C487 C 0.00824 0.26851 0.59245 0.0
C488 C 0.02031 0.29253 0.62907 0.0
C489 C 0.99613 0.30049 0.62929 0.0
C490 C 0.97755 0.29048 0.61216 0.0
C491 C 0.98366 0.27491 0.59366 0.0
C492 C 0.99145 0.32211 0.64435 0.0
C493 C 0.98122 0.34199 0.63233 0.0
C494 C 0.99892 0.32438 0.66946 0.0
C495 C 0.00818 0.30346 0.68363 0.0
C496 C 0.99424 0.28014 0.68339 0.0
C497 C 0.0031 0.26046 0.69664 0.0
C498 C 0.02584 0.26388 0.71032 0.0
C499 C 0.03975 0.28701 0.71083 0.0
C500 C 0.03097 0.30676 0.6976 0.0
C501 C 0.97372 0.41591 0.71394 0.0
C502 C 0.98422 0.43768 0.70289 0.0
C503 C 0.97569 0.39282 0.70344 0.0
C504 C 0.9882 0.39113 0.68174 0.0
C505 C -0.00021 0.41273 0.67139 0.0
C506 C 0.99762 0.43581 0.68173 0.0
C507 C 0.98789 0.36708 0.66903 0.0
C508 C 0.99723 0.34698 0.68144 0.0
C509 C 0.97896 0.36423 0.64441 0.0
C510 C 0.9669 0.38406 0.63092 0.0
C511 C 0.97622 0.39306 0.60872 0.0
C512 C 0.965 0.4119 0.59616 0.0
C513 C 0.94439 0.42181 0.60556 0.0
C514 C 0.93488 0.41283 0.62751 0.0
C515 C 0.946 0.39398 0.64012 0.0
H516 H 0.93575 0.4364 0.59582 0.0
H517 H 0.03268 0.24861 0.72057 0.0
H518 H 0.66544 0.0417 0.75644 0.0
H519 H 0.68425 0.04283 0.71672 0.0
H520 H 0.61072 0.04023 0.68067 0.0
H521 H 0.5917 0.0389 0.72033 0.0
H522 H 0.63773 0.0056 0.66304 0.0
H523 H 0.65005 0.09258 0.68 0.0
H524 H 0.66431 0.12991 0.70425 0.0
H525 H 0.7404 0.11177 0.70331 0.0
H526 H 0.72654 0.07412 0.67932 0.0
H527 H 0.69338 0.06101 0.54742 0.0
H528 H 0.68075 0.06657 0.58899 0.0
H529 H 0.70635 0.99614 0.60946 0.0
H530 H 0.71896 0.99027 0.56767 0.0
H531 H 0.70365 0.06817 0.6348 0.0
H532 H 0.66185 0.9673 0.64568 0.0
H533 H 0.64517 0.93162 0.62001 0.0
H534 H 0.62346 0.9809 0.56304 0.0
H535 H 0.63969 0.01683 0.5885 0.0
C536 C 0.65326 0.04174 0.74008 0.0
C537 C 0.62705 0.04006 0.74155 0.0
C538 C 0.66407 0.04245 0.71738 0.0
C539 C 0.64888 0.04159 0.69576 0.0
C540 C 0.62277 0.04082 0.69717 0.0
C541 C 0.61194 0.04017 0.71985 0.0
C542 C 0.66007 0.03987 0.67171 0.0
C543 C 0.65216 0.01929 0.6569 0.0
C544 C 0.67884 0.05776 0.66367 0.0
C545 C 0.68722 0.0804 0.67806 0.0
C546 C 0.6698 0.09643 0.68514 0.0
C547 C 0.67781 0.11767 0.6988 0.0
C548 C 0.70324 0.12317 0.70537 0.0
C549 C 0.72071 0.10747 0.69823 0.0
C550 C 0.71279 0.08619 0.68458 0.0
C551 C 0.69662 0.04678 0.56079 0.0
C552 C 0.70688 0.02502 0.55412 0.0
C553 C 0.68952 0.05009 0.5846 0.0
C554 C 0.69234 0.03166 0.6022 0.0
C555 C 0.70379 0.01048 0.59603 0.0
C556 C 0.71104 0.00719 0.57217 0.0
C557 C 0.68141 0.03383 0.62631 0.0
C558 C 0.68937 0.05443 0.6411 0.0
C559 C 0.66239 0.01616 0.63423 0.0
C560 C 0.65225 0.99471 0.61889 0.0
C561 C 0.65344 0.9705 0.6277 0.0
C562 C 0.64407 0.95024 0.61319 0.0
C563 C 0.63334 0.95399 0.58988 0.0
C564 C 0.63186 0.97801 0.58106 0.0
C565 C 0.64117 0.99833 0.59552 0.0
H566 H 0.62613 0.93828 0.57866 0.0
H567 H 0.7094 0.13963 0.71595 0.0
H568 H 0.48254 0.35729 0.01478 0.0
H569 H 0.44921 0.38509 0.01377 0.0
H570 H 0.40104 0.3316 0.97099 0.0
H571 H 0.43423 0.30384 0.97173 0.0
H572 H 0.39572 0.37872 0.95579 0.0
H573 H 0.39744 0.3337 0.03217 0.0
H574 H 0.4172 0.31995 0.07081 0.0
H575 H 0.4319 0.39545 0.09462 0.0
H576 H 0.41252 0.40966 0.05594 0.0
H577 H 0.27339 0.40305 0.9783 0.0
H578 H 0.31249 0.38365 0.97809 0.0
H579 H 0.35002 0.44382 0.02111 0.0
H580 H 0.31074 0.46342 0.02157 0.0
H581 H 0.36394 0.39846 0.03627 0.0
H582 H 0.35798 0.44316 0.96145 0.0
H583 H 0.33761 0.45655 0.92299 0.0
H584 H 0.33069 0.38187 0.89621 0.0
H585 H 0.35069 0.36795 0.93467 0.0
C586 C 0.46503 0.35164 0.00475 0.0
C587 C 0.46093 0.32822 0.99355 0.0
C588 C 0.44596 0.3675 0.00431 0.0
C589 C 0.42251 0.36021 0.99268 0.0
C590 C 0.41896 0.33755 0.98017 0.0
C591 C 0.43795 0.32167 0.98065 0.0
C592 C 0.40107 0.37526 0.9948 0.0
C593 C 0.38869 0.38294 0.97337 0.0
C594 C 0.39227 0.38127 0.01778 0.0
C595 C 0.40381 0.37275 0.04106 0.0
C596 C 0.40507 0.34737 0.04557 0.0
C597 C 0.41617 0.3395 0.06749 0.0
C598 C 0.42587 0.35682 0.08513 0.0
C599 C 0.42442 0.38205 0.08091 0.0
C600 C 0.41338 0.39003 0.059 0.0
C601 C 0.28986 0.4121 0.98794 0.0
C602 C 0.28897 0.43489 -0.0002 0.0
C603 C 0.31225 0.40103 0.98768 0.0
C604 C 0.33426 0.41255 -0.00084 0.0
C605 C 0.33326 0.43473 0.01199 0.0
C606 C 0.3108 0.44588 0.01224 0.0
C607 C 0.35831 0.40151 0.99725 0.0
C608 C 0.37116 0.39457 0.0187 0.0
C609 C 0.36755 0.39617 0.97428 0.0
C610 C 0.35567 0.40448 0.95103 0.0
C611 C 0.35195 0.42956 0.94743 0.0
C612 C 0.34049 0.43725 0.92562 0.0
C613 C 0.33282 0.42007 0.90719 0.0
C614 C 0.33664 0.39516 0.91051 0.0
C615 C 0.34806 0.38736 0.9323 0.0
H616 H 0.32394 0.42606 0.89031 0.0
H617 H 0.43445 0.35069 0.10209 0.0
H618 H 0.26858 0.59571 0.971 0.0
H619 H 0.3084 0.62163 0.9725 0.0
H620 H 0.34756 0.55831 0.99273 0.0
H621 H 0.30778 0.5322 0.99149 0.0
H622 H 0.362 0.59739 0.02218 0.0
H623 H 0.35345 0.58271 0.9366 0.0
H624 H 0.33224 0.57997 0.89562 0.0
H625 H 0.32382 0.65777 0.89728 0.0
H626 H 0.34466 0.66093 0.93844 0.0
H627 H 0.47712 0.67696 0.01672 0.0
H628 H 0.44558 0.64181 0.00818 0.0
H629 H 0.39107 0.6923 0.98705 0.0
H630 H 0.42214 0.72722 0.99527 0.0
H631 H 0.38958 0.65388 0.9553 0.0
H632 H 0.39193 0.66651 0.04318 0.0
H633 H 0.4125 0.66935 0.08448 0.0
H634 H 0.43245 0.59502 0.07814 0.0
H635 H 0.41225 0.59187 0.03665 0.0
C636 C 0.28564 0.5872 0.97555 0.0
C637 C 0.28492 0.56186 0.98116 0.0
C638 C 0.30843 0.60204 0.97629 0.0
C639 C 0.33096 0.59184 0.98252 0.0
C640 C 0.33039 0.56652 0.98783 0.0
C641 C 0.30761 0.55163 0.98704 0.0
C642 C 0.35486 0.60801 0.98474 0.0
C643 C 0.36836 0.60935 0.00738 0.0
C644 C 0.36299 0.62378 0.96551 0.0
C645 C 0.35049 0.62201 0.9407 0.0
C646 C 0.34691 0.5992 0.92831 0.0
C647 C 0.33498 0.59758 0.90503 0.0
C648 C 0.32665 0.61867 0.89387 0.0
C649 C 0.33028 0.64144 0.90595 0.0
C650 C 0.34218 0.64317 0.92925 0.0
C651 C 0.45844 0.68054 0.01016 0.0
C652 C 0.45215 0.70493 0.00682 0.0
C653 C 0.44046 0.66045 0.00533 0.0
C654 C 0.41598 0.66449 0.99707 0.0
C655 C 0.40986 0.68877 0.99332 0.0
C656 C 0.42768 0.70874 -0.0018 0.0
C657 C 0.3962 0.64374 0.99292 0.0
C658 C 0.38349 0.64153 0.96991 0.0
C659 C 0.38879 0.62719 0.0118 0.0
C660 C 0.40089 0.62907 0.03672 0.0
C661 C 0.4009 0.65086 0.05052 0.0
C662 C 0.41244 0.6525 0.07397 0.0
C663 C 0.42385 0.63241 0.08389 0.0
C664 C 0.42366 0.61059 0.07041 0.0
C665 C 0.41216 0.60886 0.04693 0.0
H666 H 0.43277 0.63371 0.10205 0.0
H667 H 0.31742 0.61738 0.87584 0.0
H668 H 0.62969 0.29797 0.04304 0.0
H669 H 0.66367 0.33082 0.04156 0.0
H670 H 0.6102 0.38448 0.02885 0.0
H671 H 0.57576 0.3514 0.02973 0.0
H672 H 0.64756 0.39209 -0.0013 0.0
H673 H 0.64206 0.38082 0.08445 0.0
H674 H 0.63946 0.35781 0.12326 0.0
H675 H 0.7115 0.33219 0.11322 0.0
H676 H 0.71439 0.35476 0.07416 0.0
H677 H 0.7417 0.49366 0.02235 0.0
H678 H 0.7046 0.46398 0.02475 0.0
H679 H 0.75147 0.40376 0.02603 0.0
H680 H 0.78874 0.4333 0.02336 0.0
H681 H 0.71589 0.40206 0.06336 0.0
H682 H 0.71955 0.41252 0.97614 0.0
H683 H 0.7216 0.43653 0.9379 0.0
H684 H 0.652 0.4654 0.9521 0.0
H685 H 0.64972 0.44182 0.99064 0.0
C686 C 0.625 0.31675 0.0401 0.0
C687 C 0.5999 0.32201 0.03658 0.0
C688 C 0.64454 0.33557 0.03937 0.0
C689 C 0.6395 0.36018 0.03545 0.0
C690 C 0.6145 0.36561 0.03199 0.0
C691 C 0.59485 0.34669 0.03258 0.0
C692 C 0.66054 0.37992 0.03418 0.0
C693 C 0.66225 0.39458 0.01306 0.0
C694 C 0.67995 0.38291 0.05273 0.0
C695 C 0.67834 0.36934 0.07627 0.0
C696 C 0.65727 0.37013 0.09042 0.0
C697 C 0.65576 0.35719 0.11248 0.0
C698 C 0.67528 0.34351 0.12068 0.0
C699 C 0.69638 0.34279 0.10685 0.0
C700 C 0.69798 0.35568 0.08476 0.0
C701 C 0.74414 0.4741 0.02302 0.0
C702 C 0.76819 0.46582 0.02268 0.0
C703 C 0.72291 0.45719 0.02432 0.0
C704 C 0.72536 0.43174 0.02552 0.0
C705 C 0.74927 0.42337 0.02512 0.0
C706 C 0.7705 0.44026 0.02348 0.0
C707 C 0.70298 0.41385 0.0278 0.0
C708 C 0.70106 0.39963 0.04913 0.0
C709 C 0.68329 0.41146 0.00959 0.0
C710 C 0.68462 0.42563 0.98642 0.0
C711 C 0.70481 0.42418 0.97124 0.0
C712 C 0.70598 0.43767 0.94948 0.0
C713 C 0.68698 0.45254 0.94261 0.0
C714 C 0.66673 0.4539 0.95746 0.0
C715 C 0.66548 0.44047 0.97926 0.0
H716 H 0.68792 0.46296 0.92575 0.0
H717 H 0.67407 0.3335 0.13776 0.0
H718 H 0.7792 0.62937 0.06705 0.0
H719 H 0.7407 0.64998 0.06684 0.0
H720 H 0.69678 0.57981 0.05533 0.0
H721 H 0.7352 0.55898 0.05556 0.0
H722 H 0.68519 0.61456 0.02124 0.0
H723 H 0.6933 0.60901 0.10787 0.0
H724 H 0.71471 0.61292 0.14872 0.0
H725 H 0.72787 0.69156 0.13928 0.0
H726 H 0.70686 0.6881 0.09821 0.0
H727 H 0.57212 0.67555 0.02313 0.0
H728 H 0.60431 0.64709 0.03141 0.0
H729 H 0.65878 0.70905 0.04881 0.0
H730 H 0.62686 0.73744 0.04091 0.0
H731 H 0.66101 0.67352 0.0827 0.0
H732 H 0.65809 0.67839 0.99458 0.0
H733 H 0.63785 0.6749 0.95318 0.0
H734 H 0.61588 0.59783 0.9652 0.0
H735 H 0.63573 0.60095 0.00683 0.0
C736 C 0.76135 0.61824 0.06499 0.0
C737 C 0.76028 0.59258 0.06115 0.0
C738 C 0.73935 0.63004 0.06494 0.0
C739 C 0.7159 0.6164 0.06104 0.0
C740 C 0.7147 0.59064 0.05834 0.0
C741 C 0.7367 0.57878 0.05859 0.0
C742 C 0.69298 0.62942 0.05752 0.0
C743 C 0.67953 0.62705 0.03488 0.0
C744 C 0.68599 0.64605 0.07514 0.0
C745 C 0.69865 0.64826 0.09986 0.0
C746 C 0.70094 0.62712 0.11441 0.0
C747 C 0.71297 0.62926 0.13763 0.0
C748 C 0.72268 0.65247 0.14657 0.0
C749 C 0.72034 0.67359 0.13233 0.0
C750 C 0.70834 0.67155 0.10908 0.0
C751 C 0.59101 0.68309 0.02852 0.0
C752 C 0.59693 0.70875 0.03137 0.0
C753 C 0.60937 0.66682 0.03326 0.0
C754 C 0.63394 0.67597 0.04074 0.0
C755 C 0.63991 0.70158 0.04323 0.0
C756 C 0.62163 0.71779 0.03857 0.0
C757 C 0.6536 0.65908 0.04621 0.0
C758 C 0.66642 0.66073 0.06922 0.0
C759 C 0.6601 0.64186 0.02889 0.0
C760 C 0.64811 0.63998 0.00391 0.0
C761 C 0.64874 0.66075 0.98847 0.0
C762 C 0.63738 0.65883 0.96495 0.0
C763 C 0.62551 0.63618 0.9566 0.0
C764 C 0.62503 0.61538 0.97172 0.0
C765 C 0.63634 0.61721 0.99527 0.0
H766 H 0.61674 0.63473 0.93837 0.0
H767 H 0.73199 0.65409 0.16456 0.0
H768 H 0.56476 0.79008 0.95924 0.0
H769 H 0.5743 0.81696 0.92433 0.0
H770 H 0.49705 0.80518 0.89759 0.0
H771 H 0.48722 0.77952 0.93328 0.0
H772 H 0.57187 0.82248 0.87608 0.0
H773 H 0.47566 0.85943 0.88461 0.0
H774 H 0.44233 0.85932 0.91412 0.0
H775 H 0.49658 0.85272 0.9735 0.0
H776 H 0.53024 0.85316 0.94437 0.0
H777 H 0.56937 0.92957 0.79815 0.0
H778 H 0.55952 0.88903 0.81714 0.0
H779 H 0.55635 0.92462 0.8871 0.0
H780 H 0.56502 0.96491 0.8681 0.0
H781 H 0.51927 0.89231 0.88213 0.0
H782 H 0.60769 0.89277 0.86916 0.0
H783 H 0.6452 0.89551 0.84465 0.0
H784 H 0.6139 0.83258 0.80231 0.0
H785 H 0.57606 0.82966 0.82641 0.0
C786 C 0.55006 0.79248 0.9454 0.0
C787 C 0.52521 0.78316 0.94903 0.0
C788 C 0.55552 0.80783 0.92543 0.0
C789 C 0.53621 0.81367 0.90877 0.0
C790 C 0.5121 0.80141 0.91058 0.0
C791 C 0.5065 0.78668 0.93087 0.0
C792 C 0.54019 0.8357 0.8928 0.0
C793 C 0.56023 0.83767 0.87716 0.0
C794 C 0.52537 0.85579 0.89461 0.0
C795 C 0.50536 0.85601 0.9123 0.0
C796 C 0.48045 0.85804 0.90397 0.0
C797 C 0.46152 0.85792 0.92063 0.0
C798 C 0.46732 0.85592 0.94566 0.0
C799 C 0.4921 0.85419 0.95411 0.0
C800 C 0.5111 0.85439 0.93754 0.0
C801 C 0.56654 0.92864 0.81758 0.0
C802 C 0.56784 0.95036 0.83166 0.0
C803 C 0.56105 0.90548 0.82843 0.0
C804 C 0.55735 0.90371 0.85361 0.0
C805 C 0.55892 0.92546 0.86762 0.0
C806 C 0.56392 0.94852 0.85674 0.0
C807 C 0.55131 0.87946 0.86567 0.0
C808 C 0.53071 0.87702 0.88059 0.0
C809 C 0.56622 0.85945 0.86383 0.0
C810 C 0.58894 0.86118 0.84938 0.0
C811 C 0.60874 0.87964 0.8545 0.0
C812 C 0.63007 0.8812 0.84071 0.0
C813 C 0.6319 0.86428 0.82188 0.0
C814 C 0.61243 0.84571 0.81686 0.0
C815 C 0.59105 0.84408 0.83059 0.0
H816 H 0.64842 0.86552 0.81123 0.0
H817 H 0.45263 0.85577 0.95851 0.0
H818 H 0.1766 0.52825 0.94096 0.0
H819 H 0.15072 0.53089 0.90334 0.0
H820 H 0.18982 0.47472 0.87056 0.0
H821 H 0.21619 0.47221 0.90808 0.0
H822 H 0.16056 0.53939 0.8526 0.0
H823 H 0.14218 0.43408 0.84389 0.0
H824 H 0.1435 0.39671 0.86954 0.0
H825 H 0.12724 0.43822 0.93238 0.0
H826 H 0.12547 0.47571 0.90704 0.0
H827 H 0.08846 0.50449 0.74203 0.0
H828 H 0.12071 0.50576 0.7753 0.0
H829 H 0.06338 0.49405 0.82769 0.0
H830 H 0.03096 0.49295 0.79462 0.0
H831 H 0.103 0.46368 0.83489 0.0
H832 H 0.08982 0.5496 0.82168 0.0
H833 H 0.08739 0.58722 0.79666 0.0
H834 H 0.16438 0.58573 0.77927 0.0
H835 H 0.16716 0.54786 0.80391 0.0
C836 C 0.18014 0.51685 0.92562 0.0
C837 C 0.19841 0.49995 0.92757 0.0
C838 C 0.16535 0.51844 0.90409 0.0
C839 C 0.16829 0.5029 0.8843 0.0
C840 C 0.18726 0.48682 0.88572 0.0
C841 C 0.20229 0.48543 0.90716 0.0
C842 C 0.14986 0.50179 0.86327 0.0
C843 C 0.1481 0.52281 0.84857 0.0
C844 C 0.13344 0.48022 0.85828 0.0
C845 C 0.13399 0.45772 0.87362 0.0
C846 C 0.13881 0.43518 0.86317 0.0
C847 C 0.13964 0.41399 0.87765 0.0
C848 C 0.13555 0.41511 0.90259 0.0
C849 C 0.13051 0.4374 0.91308 0.0
C850 C 0.12962 0.45863 0.89867 0.0
C851 C 0.08269 0.50209 0.76062 0.0
C852 C 0.05712 0.49864 0.76569 0.0
C853 C 0.10114 0.50292 0.77958 0.0
C854 C 0.09436 0.5001 0.80388 0.0
C855 C 0.06893 0.49626 0.809 0.0
C856 C 0.05045 0.49572 0.7901 0.0
C857 C 0.11376 0.50123 0.82408 0.0
C858 C 0.11567 0.48018 0.83867 0.0
C859 C 0.13018 0.52282 0.82901 0.0
C860 C 0.12861 0.54575 0.81443 0.0
C861 C 0.10617 0.55717 0.81236 0.0
C862 C 0.10474 0.57857 0.79828 0.0
C863 C 0.12569 0.58882 0.78632 0.0
C864 C 0.14815 0.57775 0.78851 0.0
C865 C 0.14967 0.55633 0.80254 0.0
H866 H 0.12454 0.60537 0.77541 0.0
H867 H 0.13623 0.3987 0.91378 0.0
H868 H 0.56498 0.10225 0.80619 0.0
H869 H 0.56036 0.14505 0.81824 0.0
H870 H 0.53083 0.11857 0.8864 0.0
H871 H 0.5345 0.07631 0.87427 0.0
H872 H 0.50553 0.15381 0.87078 0.0
H873 H 0.59536 0.14132 0.87879 0.0
H874 H 0.63556 0.13284 0.8621 0.0
H875 H 0.63173 0.19432 0.81296 0.0
H876 H 0.59137 0.20299 0.82926 0.0
H877 H 0.58099 0.22704 0.96645 0.0
H878 H 0.58026 0.20561 0.92782 0.0
H879 H 0.51537 0.2414 0.90245 0.0
H880 H 0.51533 0.26236 0.94207 0.0
H881 H 0.58265 0.21161 0.88156 0.0
H882 H 0.47705 0.19958 0.86915 0.0
H883 H 0.43898 0.20391 0.89173 0.0
H884 H 0.47776 0.18517 0.95868 0.0
H885 H 0.51593 0.18055 0.93641 0.0
C886 C 0.55737 0.10564 0.82366 0.0
C887 C 0.5502 0.08585 0.8393 0.0
C888 C 0.55472 0.13009 0.83052 0.0
C889 C 0.54531 0.1351 0.85329 0.0
C890 C 0.53786 0.11527 0.86863 0.0
C891 C 0.54015 0.09101 0.8617 0.0
C892 C 0.54442 0.16073 0.86245 0.0
C893 C 0.52229 0.16669 0.8727 0.0
C894 C 0.56609 0.17779 0.86472 0.0
C895 C 0.59027 0.17258 0.85497 0.0
C896 C 0.60305 0.15291 0.86432 0.0
C897 C 0.62585 0.14809 0.85495 0.0
C898 C 0.63615 0.16298 0.83642 0.0
C899 C 0.6237 0.18277 0.82727 0.0
C900 C 0.60087 0.18764 0.83655 0.0
C901 C 0.5667 0.23073 0.95262 0.0
C902 C 0.54778 0.2459 0.95764 0.0
C903 C 0.56648 0.2186 0.9303 0.0
C904 C 0.54746 0.22143 0.91229 0.0
C905 C 0.52996 0.23853 0.91624 0.0
C906 C 0.53001 0.25058 0.93886 0.0
C907 C 0.54437 0.20359 0.89158 0.0
C908 C 0.56559 0.19929 0.87876 0.0
C909 C 0.52214 0.1875 0.88769 0.0
C910 C 0.49933 0.19007 0.9012 0.0
C911 C 0.47739 0.19639 0.88868 0.0
C912 C 0.45582 0.19888 0.90141 0.0
C913 C 0.45599 0.19492 0.92664 0.0
C914 C 0.47768 0.18832 0.93916 0.0
C915 C 0.49927 0.18576 0.9265 0.0
H916 H 0.43929 0.19689 0.93646 0.0
H917 H 0.65381 0.15922 0.82919 0.0
H918 H 0.89565 0.54764 0.76596 0.0
H919 H 0.87202 0.55082 0.80277 0.0
H920 H 0.93175 0.52158 0.84599 0.0
H921 H 0.95545 0.51836 0.8095 0.0
H922 H 0.88483 0.49699 0.85318 0.0
H923 H 0.9239 0.58113 0.84954 0.0
H924 H 0.93367 0.62166 0.82999 0.0
H925 H 0.85523 0.63164 0.82284 0.0
H926 H 0.84496 0.59099 0.84208 0.0
H927 H 0.86686 0.52064 0.97569 0.0
H928 H 0.88119 0.51854 0.93443 0.0
H929 H 0.81675 0.55352 0.90658 0.0
H930 H 0.80226 0.55593 0.94819 0.0
H931 H 0.85937 0.57441 0.88801 0.0
H932 H 0.82022 0.49275 0.89569 0.0
H933 H 0.80988 0.45232 0.9152 0.0
H934 H 0.88685 0.43709 0.91391 0.0
H935 H 0.89775 0.4776 0.89472 0.0
C936 C 0.90387 0.54217 0.78336 0.0
C937 C 0.92736 0.53263 0.7848 0.0
C938 C 0.89036 0.54401 0.80433 0.0
C939 C 0.90014 0.53633 0.82701 0.0
C940 C 0.92385 0.52746 0.82859 0.0
C941 C 0.93741 0.52575 0.80773 0.0
C942 C 0.88541 0.53649 0.84907 0.0
C943 C 0.87939 0.51391 0.86093 0.0
C944 C 0.87748 0.55847 0.85851 0.0
C945 C 0.88365 0.58289 0.84696 0.0
C946 C 0.90872 0.59186 0.84359 0.0
C947 C 0.91435 0.61488 0.83261 0.0
C948 C 0.89508 0.62918 0.8251 0.0
C949 C 0.87013 0.62052 0.82862 0.0
C950 C 0.8644 0.5975 0.83957 0.0
C951 C 0.85547 0.52757 0.96082 0.0
C952 C 0.83331 0.53827 0.96519 0.0
C953 C 0.8637 0.52633 0.93719 0.0
C954 C 0.84986 0.53556 0.9174 0.0
C955 C 0.82764 0.54619 0.92162 0.0
C956 C 0.81937 0.54747 0.94536 0.0
C957 C 0.85946 0.53497 0.89258 0.0
C958 C 0.86444 0.55741 0.88011 0.0
C959 C 0.8663 0.51281 0.88245 0.0
C960 C 0.85983 0.48832 0.89388 0.0
C961 C 0.83498 0.48087 0.89971 0.0
C962 C 0.82901 0.45792 0.9107 0.0
C963 C 0.8477 0.44216 0.91583 0.0
C964 C 0.87239 0.44931 0.90993 0.0
C965 C 0.87847 0.47226 0.89896 0.0
H966 H 0.84304 0.4244 0.92433 0.0
H967 H 0.89948 0.647 0.81661 0.0
H968 H 0.53334 0.07943 0.17488 0.0
H969 H 0.53978 0.1233 0.16568 0.0
H970 H 0.48206 0.13788 0.21425 0.0
H971 H 0.47521 0.09359 0.22347 0.0
H972 H 0.47486 0.15889 0.1706 0.0
H973 H 0.54249 0.16025 0.22878 0.0
H974 H 0.57974 0.14607 0.25065 0.0
H975 H 0.621 0.15544 0.18558 0.0
H976 H 0.58392 0.16931 0.16317 0.0
H977 H 0.50092 0.27406 0.11031 0.0
H978 H 0.49944 0.24815 0.1471 0.0
H979 H 0.54941 0.20078 0.11564 0.0
H980 H 0.55093 0.22622 0.07924 0.0
H981 H 0.55852 0.20572 0.1652 0.0
H982 H 0.48605 0.1892 0.10636 0.0
H983 H 0.44856 0.20163 0.08338 0.0
H984 H 0.41677 0.22015 0.15053 0.0
H985 H 0.45425 0.20807 0.17386 0.0
C986 C 0.52213 0.0919 0.18386 0.0
C987 C 0.50363 0.08292 0.1998 0.0
C988 C 0.52604 0.11709 0.17877 0.0
C989 C 0.51168 0.13395 0.18957 0.0
C990 C 0.4935 0.12519 0.20588 0.0
C991 C 0.48961 0.09989 0.21109 0.0
C992 C 0.51412 0.16012 0.18152 0.0
C993 C 0.49303 0.16953 0.17017 0.0
C994 C 0.53781 0.174 0.18089 0.0
C995 C 0.56034 0.16582 0.19428 0.0
C996 C 0.55946 0.15917 0.21908 0.0
C997 C 0.58056 0.15119 0.23158 0.0
C998 C 0.60272 0.14986 0.21951 0.0
C999 C 0.60383 0.15652 0.19491 0.0
C1000 C 0.58278 0.1645 0.18232 0.0
C1001 C 0.51208 0.25847 0.11153 0.0
C1002 C 0.52586 0.25207 0.0917 0.0
C1003 C 0.51119 0.24371 0.13255 0.0
C1004 C 0.52413 0.22243 0.13398 0.0
C1005 C 0.53934 0.21716 0.11498 0.0
C1006 C 0.5401 0.23174 0.09403 0.0
C1007 C 0.51956 0.20359 0.15326 0.0
C1008 C 0.54022 0.19557 0.16667 0.0
C1009 C 0.49551 0.19093 0.15579 0.0
C1010 C 0.47302 0.19807 0.14179 0.0
C1011 C 0.47112 0.19608 0.11618 0.0
C1012 C 0.44988 0.20304 0.10311 0.0
C1013 C 0.43034 0.21176 0.11548 0.0
C1014 C 0.43196 0.21346 0.14096 0.0
C1015 C 0.45318 0.20657 0.15412 0.0
H1016 H 0.4139 0.21713 0.10533 0.0
H1017 H 0.61903 0.14367 0.22922 0.0
H1018 H 0.01641 0.49772 0.23877 0.0
H1019 H 0.98556 0.49869 0.20461 0.0
H1020 H 0.92774 0.5079 0.25488 0.0
H1021 H 0.95835 0.50603 0.28923 0.0
H1022 H 0.90935 0.47804 0.22005 0.0
H1023 H 0.95506 0.55747 0.22231 0.0
H1024 H 0.99233 0.58788 0.22415 0.0
H1025 H 0.01459 0.56129 0.15563 0.0
H1026 H 0.97762 0.53046 0.15353 0.0
H1027 H 0.83368 0.52615 0.11705 0.0
H1028 H 0.85718 0.52359 0.15653 0.0
H1029 H 0.91412 0.48782 0.12142 0.0
H1030 H 0.89085 0.48971 0.08232 0.0
H1031 H 0.9292 0.53474 0.15097 0.0
H1032 H 0.88291 0.45276 0.15225 0.0
H1033 H 0.84403 0.4245 0.1515 0.0
H1034 H 0.82054 0.4602 0.21506 0.0
H1035 H 0.85916 0.48893 0.21595 0.0
C1036 C 0.99711 0.49986 0.24258 0.0
C1037 C 0.98987 0.50198 0.2667 0.0
C1038 C 0.9795 0.50053 0.22302 0.0
C1039 C 0.95441 0.50392 0.22715 0.0
C1040 C 0.94699 0.50538 0.25124 0.0
C1041 C 0.96454 0.50434 0.27085 0.0
C1042 C 0.93612 0.50626 0.20623 0.0
C1043 C 0.91355 0.49073 0.20515 0.0
C1044 C 0.94145 0.5229 0.18678 0.0
C1045 C 0.96366 0.54152 0.18786 0.0
C1046 C 0.96798 0.55799 0.20771 0.0
C1047 C 0.98905 0.57532 0.20879 0.0
C1048 C 0.00585 0.57649 0.19004 0.0
C1049 C 0.00158 0.56036 0.17014 0.0
C1050 C 0.98055 0.54297 0.16898 0.0
C1051 C 0.85102 0.51743 0.11783 0.0
C1052 C 0.86041 0.50822 0.09649 0.0
C1053 C 0.86436 0.51598 0.14035 0.0
C1054 C 0.88734 0.5056 0.14171 0.0
C1055 C 0.8964 0.49591 0.12063 0.0
C1056 C 0.88298 0.49697 0.09831 0.0
C1057 C 0.90301 0.5061 0.16463 0.0
C1058 C 0.92501 0.52229 0.16607 0.0
C1059 C 0.8969 0.49046 0.18453 0.0
C1060 C 0.87374 0.47321 0.18396 0.0
C1061 C 0.86932 0.45477 0.16589 0.0
C1062 C 0.84737 0.43862 0.16548 0.0
C1063 C 0.82978 0.44061 0.18316 0.0
C1064 C 0.83415 0.45872 0.20134 0.0
C1065 C 0.85607 0.47493 0.20181 0.0
H1066 H 0.8128 0.42808 0.18283 0.0
H1067 H 0.02215 0.58991 0.19092 0.0
H1068 H 0.4777 0.80317 0.05869 0.0
H1069 H 0.46756 0.83021 0.09128 0.0
H1070 H 0.50928 0.78872 0.14361 0.0
H1071 H 0.51949 0.76131 0.11092 0.0
H1072 H 0.44593 0.82659 0.13665 0.0
H1073 H 0.54594 0.83357 0.178 0.0
H1074 H 0.5884 0.82472 0.16745 0.0
H1075 H 0.57002 0.8381 0.09169 0.0
H1076 H 0.52762 0.84733 0.10187 0.0
H1077 H 0.45647 0.92112 0.22924 0.0
H1078 H 0.46106 0.88129 0.21001 0.0
H1079 H 0.49898 0.91911 0.15102 0.0
H1080 H 0.49428 0.95889 0.16987 0.0
H1081 H 0.52219 0.87822 0.16789 0.0
H1082 H 0.43881 0.90039 0.14337 0.0
H1083 H 0.39633 0.91118 0.15131 0.0
H1084 H 0.38117 0.84251 0.18939 0.0
H1085 H 0.42371 0.83147 0.18193 0.0
C1086 C 0.4842 0.79931 0.07716 0.0
C1087 C 0.49967 0.78028 0.08215 0.0
C1088 C 0.47826 0.81474 0.09583 0.0
C1089 C 0.48791 0.8116 0.11975 0.0
C1090 C 0.50178 0.79148 0.12519 0.0
C1091 C 0.50756 0.77585 0.1065 0.0
C1092 C 0.48629 0.83142 0.13784 0.0
C1093 C 0.46259 0.83762 0.14388 0.0
C1094 C 0.50805 0.84594 0.147 0.0
C1095 C 0.53356 0.84079 0.14067 0.0
C1096 C 0.55102 0.83466 0.15911 0.0
C1097 C 0.57506 0.82959 0.15319 0.0
C1098 C 0.58187 0.83075 0.1289 0.0
C1099 C 0.56469 0.83711 0.11048 0.0
C1100 C 0.54066 0.84224 0.11632 0.0
C1101 C 0.46593 0.92096 0.21224 0.0
C1102 C 0.47507 0.94319 0.20109 0.0
C1103 C 0.46851 0.89819 0.20132 0.0
C1104 C 0.48032 0.89733 0.17913 0.0
C1105 C 0.48994 0.91943 0.16825 0.0
C1106 C 0.48722 0.94217 0.17905 0.0
C1107 C 0.48181 0.87359 0.16646 0.0
C1108 C 0.50553 0.86672 0.16138 0.0
C1109 C 0.46006 0.85865 0.15798 0.0
C1110 C 0.43451 0.86525 0.16236 0.0
C1111 C 0.42648 0.8877 0.15362 0.0
C1112 C 0.40239 0.89384 0.15799 0.0
C1113 C 0.38609 0.87758 0.17092 0.0
C1114 C 0.39383 0.85511 0.17943 0.0
C1115 C 0.41792 0.8489 0.17513 0.0
H1116 H 0.36745 0.88236 0.17428 0.0
H1117 H 0.60047 0.82679 0.12435 0.0
H1118 H 0.23469 0.50256 0.07741 0.0
H1119 H 0.22326 0.50654 0.11983 0.0
H1120 H 0.16691 0.55439 0.09664 0.0
H1121 H 0.17876 0.55128 0.0546 0.0
H1122 H 0.18766 0.57052 0.13794 0.0
H1123 H 0.15311 0.49072 0.10706 0.0
H1124 H 0.15458 0.44954 0.08864 0.0
H1125 H 0.20369 0.42929 0.14807 0.0
H1126 H 0.20275 0.47049 0.16669 0.0
H1127 H 0.09879 0.54815 0.23066 0.0
H1128 H 0.12143 0.552 0.1929 0.0
H1129 H 0.18024 0.51252 0.22625 0.0
H1130 H 0.15785 0.5086 0.26397 0.0
H1131 H 0.16226 0.4929 0.18205 0.0
H1132 H 0.19166 0.57274 0.215 0.0
H1133 H 0.18736 0.61363 0.23287 0.0
H1134 H 0.14451 0.63354 0.16879 0.0
H1135 H 0.14825 0.59262 0.15067 0.0
C1136 C 0.22006 0.51414 0.0814 0.0
C1137 C 0.2075 0.52641 0.06254 0.0
C1138 C 0.21347 0.51633 0.10564 0.0
C1139 C 0.19388 0.5304 0.11139 0.0
C1140 C 0.18206 0.54341 0.09271 0.0
C1141 C 0.18883 0.54152 0.0686 0.0
C1142 C 0.18465 0.53067 0.13651 0.0
C1143 C 0.18198 0.55354 0.14752 0.0
C1144 C 0.17756 0.50854 0.14923 0.0
C1145 C 0.1781 0.48376 0.1381 0.0
C1146 C 0.16437 0.47754 0.1161 0.0
C1147 C 0.16508 0.4542 0.10564 0.0
C1148 C 0.17928 0.43684 0.11713 0.0
C1149 C 0.19274 0.44277 0.13916 0.0
C1150 C 0.19212 0.46611 0.14967 0.0
C1151 C 0.1167 0.5406 0.23007 0.0
C1152 C 0.12645 0.52796 0.25028 0.0
C1153 C 0.12966 0.54288 0.20851 0.0
C1154 C 0.15254 0.53258 0.20682 0.0
C1155 C 0.16261 0.52058 0.22718 0.0
C1156 C 0.14978 0.51841 0.24874 0.0
C1157 C 0.16506 0.53271 0.18331 0.0
C1158 C 0.16826 0.50989 0.1726 0.0
C1159 C 0.17225 0.55486 0.17075 0.0
C1160 C 0.17006 0.57952 0.18157 0.0
C1161 C 0.18115 0.58576 0.2048 0.0
C1162 C 0.17885 0.60896 0.21496 0.0
C1163 C 0.16563 0.62615 0.202 0.0
C1164 C 0.15473 0.6202 0.17882 0.0
C1165 C 0.15696 0.59701 0.16858 0.0
H1166 H 0.16386 0.6441 0.20989 0.0
H1167 H 0.17981 0.41877 0.10901 0.0
H1168 H 0.80711 0.96186 0.52238 0.0
H1169 H 0.84741 0.94441 0.52828 0.0
H1170 H 0.82744 0.89484 0.46757 0.0
H1171 H 0.78711 0.91171 0.46191 0.0
H1172 H 0.8475 0.871 0.50433 0.0
H1173 H 0.86832 0.94797 0.46241 0.0
H1174 H 0.86985 0.99319 0.45677 0.0
H1175 H 0.91297 0.00454 0.52458 0.0
H1176 H 0.91144 0.95939 0.53079 0.0
H1177 H 0.96304 0.82889 0.48194 0.0
H1178 H 0.92688 0.85264 0.4755 0.0
H1179 H 0.94879 0.89447 0.5411 0.0
H1180 H 0.98517 0.8709 0.54767 0.0
H1181 H 0.92862 0.92334 0.50364 0.0
H1182 H 0.90761 0.84664 0.54543 0.0
H1183 H 0.90584 0.80148 0.55135 0.0
H1184 H 0.86256 0.78992 0.48362 0.0
H1185 H 0.8644 0.83504 0.47713 0.0
C1186 C 0.81125 0.94712 0.5104 0.0
C1187 C 0.79389 0.93818 0.49166 0.0
C1188 C 0.83437 0.93731 0.51368 0.0
C1189 C 0.8406 0.91856 0.49814 0.0
C1190 C 0.82308 0.90933 0.47975 0.0
C1191 C 0.8 0.91903 0.47654 0.0
C1192 C 0.86516 0.90815 0.50105 0.0
C1193 C 0.86521 0.88246 0.50386 0.0
C1194 C 0.88831 0.92314 0.50108 0.0
C1195 C 0.88954 0.95029 0.49719 0.0
C1196 C 0.87799 0.96011 0.4762 0.0
C1197 C 0.87887 0.98573 0.47289 0.0
C1198 C 0.89141 0.00172 0.49035 0.0
C1199 C 0.90322 0.99213 0.5111 0.0
C1200 C 0.90237 0.96653 0.51451 0.0
C1201 C 0.9605 0.84346 0.49477 0.0
C1202 C 0.97681 0.84774 0.51553 0.0
C1203 C 0.93978 0.85699 0.49107 0.0
C1204 C 0.93494 0.875 0.50806 0.0
C1205 C 0.95215 0.88057 0.52783 0.0
C1206 C 0.97289 0.86701 0.53158 0.0
C1207 C 0.91079 0.88623 0.50641 0.0
C1208 C 0.91086 0.91198 0.50402 0.0
C1209 C 0.88766 0.87134 0.50673 0.0
C1210 C 0.88635 0.84421 0.51068 0.0
C1211 C 0.89788 0.83446 0.53171 0.0
C1212 C 0.89684 0.80887 0.53518 0.0
C1213 C 0.88415 0.79284 0.51784 0.0
C1214 C 0.87241 0.80236 0.49702 0.0
C1215 C 0.87343 0.82794 0.49344 0.0
H1216 H 0.88336 0.77303 0.52056 0.0
H1217 H 0.89201 0.02154 0.48781 0.0
H1218 H 0.91949 0.22661 0.50871 0.0
H1219 H 0.88709 0.19296 0.50006 0.0
H1220 H 0.94072 0.13978 0.51459 0.0
H1221 H 0.97377 0.1737 0.52274 0.0
H1222 H 0.91021 0.1258 0.47574 0.0
H1223 H 0.89891 0.15022 0.55698 0.0
H1224 H 0.89482 0.17874 0.59113 0.0
H1225 H 0.82804 0.20261 0.55592 0.0
H1226 H 0.83192 0.1745 0.52136 0.0
H1227 H 0.80603 0.03129 0.48367 0.0
H1228 H 0.8445 0.05875 0.49082 0.0
H1229 H 0.80376 0.12196 0.47438 0.0
H1230 H 0.76515 0.09476 0.46744 0.0
H1231 H 0.83059 0.12651 0.51798 0.0
H1232 H 0.8455 0.10231 0.43485 0.0
H1233 H 0.85012 0.07147 0.40285 0.0
H1234 H 0.91082 0.04383 0.44531 0.0
H1235 H 0.9064 0.07436 0.47767 0.0
C1236 C 0.92452 0.20779 0.51014 0.0
C1237 C 0.94921 0.20286 0.51671 0.0
C1238 C 0.9059 0.18853 0.50522 0.0
C1239 C 0.91134 0.16383 0.50718 0.0
C1240 C 0.93609 0.15872 0.51312 0.0
C1241 C 0.95491 0.17811 0.51783 0.0
C1242 C 0.89086 0.14365 0.50323 0.0
C1243 C 0.89295 0.12569 0.48526 0.0
C1244 C 0.86834 0.14345 0.51567 0.0
C1245 C 0.86582 0.16035 0.53648 0.0
C1246 C 0.88345 0.16167 0.55642 0.0
C1247 C 0.88115 0.17775 0.57587 0.0
C1248 C 0.86121 0.19251 0.57567 0.0
C1249 C 0.84348 0.19117 0.55604 0.0
C1250 C 0.84571 0.17514 0.53653 0.0
C1251 C 0.80527 0.05101 0.4812 0.0
C1252 C 0.7824 0.06083 0.47514 0.0
C1253 C 0.82734 0.06667 0.48525 0.0
C1254 C 0.82697 0.09238 0.48316 0.0
C1255 C 0.80441 0.10215 0.47619 0.0
C1256 C 0.78235 0.08655 0.47214 0.0
C1257 C 0.84956 0.10936 0.48982 0.0
C1258 C 0.84791 0.12657 0.50854 0.0
C1259 C 0.87254 0.1085 0.4784 0.0
C1260 C 0.87549 0.09048 0.45874 0.0
C1261 C 0.85975 0.08957 0.4374 0.0
C1262 C 0.86235 0.07216 0.4192 0.0
C1263 C 0.88072 0.05567 0.42207 0.0
C1264 C 0.89661 0.05662 0.44311 0.0
C1265 C 0.89409 0.074 0.46136 0.0
H1266 H 0.88267 0.04217 0.40798 0.0
H1267 H 0.85947 0.20494 0.59074 0.0
H1268 H 0.12893 0.7989 0.53701 0.0
H1269 H 0.16155 0.8332 0.53822 0.0
H1270 H 0.10545 0.88506 0.5341 0.0
H1271 H 0.07231 0.85053 0.53233 0.0
H1272 H 0.14275 0.89878 0.50456 0.0
H1273 H 0.13773 0.87593 0.58804 0.0
H1274 H 0.13569 0.84788 0.62351 0.0
H1275 H 0.20852 0.82619 0.60958 0.0
H1276 H 0.21087 0.85385 0.57379 0.0
H1277 H 0.24007 0.99667 0.5356 0.0
H1278 H 0.20185 0.96815 0.53607 0.0
H1279 H 0.246 0.90613 0.53223 0.0
H1280 H 0.28425 0.93438 0.53167 0.0
H1281 H 0.21146 0.90169 0.56885 0.0
H1282 H 0.21381 0.92257 0.48292 0.0
H1283 H 0.21526 0.95126 0.44792 0.0
H1284 H 0.14644 0.97812 0.46806 0.0
H1285 H 0.14477 0.9498 0.5034 0.0
C1286 C 0.12337 0.81755 0.53646 0.0
C1287 C 0.09793 0.82192 0.53474 0.0
C1288 C 0.14212 0.83719 0.53725 0.0
C1289 C 0.13596 0.86171 0.53672 0.0
C1290 C 0.11061 0.86626 0.53468 0.0
C1291 C 0.09172 0.84652 0.53372 0.0
C1292 C 0.15625 0.88234 0.53792 0.0
C1293 C 0.15751 0.89973 0.51889 0.0
C1294 C 0.17564 0.88345 0.5565 0.0
C1295 C 0.1744 0.86687 0.57812 0.0
C1296 C 0.15325 0.86506 0.59243 0.0
C1297 C 0.15204 0.84924 0.61261 0.0
C1298 C 0.17194 0.83523 0.61877 0.0
C1299 C 0.19312 0.83705 0.60478 0.0
C1300 C 0.19441 0.85282 0.58456 0.0
C1301 C 0.24166 0.97697 0.53474 0.0
C1302 C 0.26525 0.96781 0.53362 0.0
C1303 C 0.21979 0.96072 0.53495 0.0
C1304 C 0.22114 0.93507 0.53415 0.0
C1305 C 0.2446 0.92589 0.5329 0.0
C1306 C 0.26642 0.94208 0.53248 0.0
C1307 C 0.19825 0.91761 0.53518 0.0
C1308 C 0.1965 0.90089 0.55471 0.0
C1309 C 0.17835 0.91731 0.51722 0.0
C1310 C 0.17933 0.93429 0.49596 0.0
C1311 C 0.19911 0.93476 0.48002 0.0
C1312 C 0.19995 0.95092 0.46009 0.0
C1313 C 0.181 0.96657 0.45582 0.0
C1314 C 0.16113 0.96603 0.47142 0.0
C1315 C 0.16023 0.94992 0.49139 0.0
H1316 H 0.18168 0.97906 0.44038 0.0
H1317 H 0.17097 0.82299 0.6344 0.0
H1318 H 0.06905 0.17258 0.51948 0.0
H1319 H 0.10279 0.14562 0.52585 0.0
H1320 H 0.15714 0.20623 0.50872 0.0
H1321 H 0.12362 0.23315 0.50198 0.0
H1322 H 0.16926 0.16324 0.49022 0.0
H1323 H 0.14399 0.19267 0.56767 0.0
H1324 H 0.11366 0.19854 0.59902 0.0
H1325 H 0.09787 0.11981 0.60552 0.0
H1326 H 0.12788 0.11349 0.57394 0.0
H1327 H 0.28127 0.13336 0.54722 0.0
H1328 H 0.24321 0.15385 0.53919 0.0
H1329 H 0.19818 0.08659 0.55677 0.0
H1330 H 0.23628 0.06589 0.56508 0.0
H1331 H 0.17889 0.12849 0.57372 0.0
H1332 H 0.20717 0.09912 0.49875 0.0
H1333 H 0.23802 0.09353 0.46785 0.0
H1334 H 0.24829 0.1721 0.45668 0.0
H1335 H 0.21777 0.17819 0.48781 0.0
C1336 C 0.08813 0.18004 0.51659 0.0
C1337 C 0.09369 0.20511 0.51052 0.0
C1338 C 0.1074 0.16464 0.52038 0.0
C1339 C 0.1325 0.17408 0.51825 0.0
C1340 C 0.13791 0.19861 0.5106 0.0
C1341 C 0.1187 0.214 0.5068 0.0
C1342 C 0.15332 0.15908 0.52546 0.0
C1343 C 0.17144 0.15576 0.50851 0.0
C1344 C 0.15584 0.14883 0.54917 0.0
C1345 C 0.13795 0.15262 0.56826 0.0
C1346 C 0.13391 0.17662 0.57566 0.0
C1347 C 0.1168 0.18003 0.59349 0.0
C1348 C 0.10379 0.15956 0.6042 0.0
C1349 C 0.10793 0.13564 0.59717 0.0
C1350 C 0.12499 0.13213 0.57932 0.0
C1351 C 0.26331 0.123 0.54982 0.0
C1352 C 0.2618 0.0979 0.5565 0.0
C1353 C 0.24157 0.13472 0.5451 0.0
C1354 C 0.21791 0.12154 0.54683 0.0
C1355 C 0.21629 0.097 0.55514 0.0
C1356 C 0.23809 0.08523 0.55992 0.0
C1357 C 0.19504 0.1331 0.53862 0.0
C1358 C 0.17655 0.13573 0.55536 0.0
C1359 C 0.19216 0.14272 0.5147 0.0
C1360 C 0.21033 0.13912 0.49576 0.0
C1361 C 0.21614 0.11522 0.48983 0.0
C1362 C 0.23355 0.11196 0.47226 0.0
C1363 C 0.24515 0.13245 0.46035 0.0
C1364 C 0.2393 0.15624 0.46594 0.0
C1365 C 0.22193 0.15961 0.48353 0.0
H1366 H 0.25863 0.12988 0.44675 0.0
H1367 H 0.09056 0.16224 0.618 0.0
loop_
_geom_bond_atom_site_label_1
_geom_bond_atom_site_label_2
_geom_bond_distance
_geom_bond_site_symmetry_2
_ccdc_geom_bond_type
Mg0 O1 2.028 . S
Mg0 O7 1.986 . S
Mg0 O9 2.114 . S
Mg0 O10 2.251 . S
Mg0 O13 2.010 . S
O1 Mg0 2.028 . S
O1 C4 1.250 1_455 S
O2 Mg3 2.028 . S
O2 C4 1.248 . S
Mg3 O2 2.028 . S
Mg3 O8 2.032 . S
Mg3 O10 2.079 1_655 S
C4 O1 1.250 1_655 S
C4 O2 1.248 . S
C5 O6 1.264 . S
C5 O13 1.249 . S
O6 C5 1.264 . S
O7 Mg0 1.986 . S
O7 C11 1.246 . S
O8 Mg3 2.032 . S
O8 C11 1.259 1_655 S
O9 Mg0 2.114 . S
O9 C12 1.252 . S
O10 Mg0 2.251 . S
O10 Mg3 2.079 1_455 S
O10 C12 1.273 . S
C11 O7 1.246 . S
C11 O8 1.259 1_455 S
C12 O9 1.252 . S
C12 O10 1.273 . S
O13 Mg0 2.010 . S
O13 C5 1.249 . S
Mg14 O15 2.028 . S
Mg14 O21 1.986 . S
Mg14 O23 2.114 . S
Mg14 O24 2.251 . S
Mg14 O27 2.010 1_545 S
O15 Mg14 2.028 . S
O15 C18 1.250 . S
O16 Mg17 2.028 . S
O16 C18 1.248 . S
Mg17 O16 2.028 . S
Mg17 O22 2.032 . S
Mg17 O24 2.079 . S
C18 O15 1.250 . S
C18 O16 1.248 . S
C19 O20 1.264 . S
C19 O27 1.249 . S
O20 C19 1.264 . S
O21 Mg14 1.986 . S
O21 C25 1.246 . S
O22 Mg17 2.032 . S
O22 C25 1.259 . S
O23 Mg14 2.114 . S
O23 C26 1.252 . S
O24 Mg14 2.251 . S
O24 Mg17 2.079 . S
O24 C26 1.273 . S
C25 O21 1.246 . S
C25 O22 1.259 . S
C26 O23 1.252 . S
C26 O24 1.273 . S
O27 Mg14 2.010 1_565 S
O27 C19 1.249 . S
Mg28 O29 2.028 . S
Mg28 O35 1.986 . S
Mg28 O37 2.114 . S
Mg28 O38 2.251 . S
Mg28 O41 2.010 1_455 S
O29 Mg28 2.028 . S
O29 C32 1.250 . S
O30 Mg31 2.028 . S
O30 C32 1.248 . S
Mg31 O30 2.028 . S
Mg31 O36 2.032 . S
Mg31 O38 2.079 . S
C32 O29 1.250 . S
C32 O30 1.248 . S
C33 O34 1.264 . S
C33 O41 1.249 . S
O34 C33 1.264 . S
O35 Mg28 1.986 . S
O35 C39 1.246 . S
O36 Mg31 2.032 . S
O36 C39 1.259 . S
O37 Mg28 2.114 . S
O37 C40 1.252 . S
O38 Mg28 2.251 . S
O38 Mg31 2.079 . S
O38 C40 1.273 . S
C39 O35 1.246 . S
C39 O36 1.259 . S
C40 O37 1.252 . S
C40 O38 1.273 . S
O41 Mg28 2.010 1_655 S
O41 C33 1.249 . S
Mg42 O43 1.999 1_545 S
Mg42 O49 1.986 . S
Mg42 O51 2.114 . S
Mg42 O52 2.251 . S
Mg42 O55 2.010 . S
O43 Mg42 1.999 1_565 S
O43 C46 1.296 . S
O44 Mg45 2.028 . S
O44 C46 1.248 . S
Mg45 O44 2.028 . S
Mg45 O50 2.032 . S
Mg45 O52 2.079 1_565 S
C46 O43 1.296 . S
C46 O44 1.248 . S
C47 O48 1.264 . S
C47 O55 1.249 . S
O48 C47 1.264 . S
O49 Mg42 1.986 . S
O49 C53 1.246 . S
O50 Mg45 2.032 . S
O50 C53 1.259 1_565 S
O51 Mg42 2.114 . S
O51 C54 1.252 . S
O52 Mg42 2.251 . S
O52 Mg45 2.079 1_545 S
O52 C54 1.273 . S
C53 O49 1.246 . S
C53 O50 1.259 1_545 S
C54 O51 1.252 . S
C54 O52 1.273 . S
O55 Mg42 2.010 . S
O55 C47 1.249 . S
Mg56 O57 2.028 . S
Mg56 O63 1.986 . S
Mg56 O65 2.114 1_545 S
Mg56 O66 2.251 1_545 S
Mg56 O69 2.010 . S
O57 Mg56 2.028 . S
O57 C60 1.250 . S
O58 Mg59 2.028 . S
O58 C60 1.248 . S
Mg59 O58 2.028 . S
Mg59 O64 2.032 . S
Mg59 O66 2.079 1_545 S
C60 O57 1.250 . S
C60 O58 1.248 . S
C61 O62 1.264 . S
C61 O69 1.249 . S
O62 C61 1.264 . S
O63 Mg56 1.986 . S
O63 C67 1.246 . S
O64 Mg59 2.032 . S
O64 C67 1.259 . S
O65 Mg56 2.114 1_565 S
O65 C68 1.252 . S
O66 Mg56 2.251 1_565 S
O66 Mg59 2.079 1_565 S
O66 C68 1.273 . S
C67 O63 1.246 . S
C67 O64 1.259 . S
C68 O65 1.252 . S
C68 O66 1.273 . S
O69 Mg56 2.010 . S
O69 C61 1.249 . S
Mg70 O71 2.028 . S
Mg70 O77 1.986 . S
Mg70 O79 2.114 . S
Mg70 O80 2.251 . S
Mg70 O83 2.010 . S
O71 Mg70 2.028 . S
O71 C74 1.250 1_455 S
O72 Mg73 2.028 . S
O72 C74 1.248 . S
Mg73 O72 2.028 . S
Mg73 O78 2.032 1_655 S
Mg73 O80 2.079 1_655 S
C74 O71 1.250 1_655 S
C74 O72 1.248 . S
C75 O76 1.264 . S
C75 O83 1.249 . S
O76 C75 1.264 . S
O77 Mg70 1.986 . S
O77 C81 1.246 . S
O78 Mg73 2.032 1_455 S
O78 C81 1.259 . S
O79 Mg70 2.114 . S
O79 C82 1.252 . S
O80 Mg70 2.251 . S
O80 Mg73 2.079 1_455 S
O80 C82 1.273 . S
C81 O77 1.246 . S
C81 O78 1.259 . S
C82 O79 1.252 . S
C82 O80 1.273 . S
O83 Mg70 2.010 . S
O83 C75 1.249 . S
Mg84 O85 2.028 . S
Mg84 O91 1.986 . S
Mg84 O93 2.114 1_545 S
Mg84 O94 2.251 1_545 S
Mg84 O97 2.010 . S
O85 Mg84 2.028 . S
O85 C88 1.250 . S
O86 Mg87 2.028 . S
O86 C88 1.248 . S
Mg87 O86 2.028 . S
Mg87 O92 2.032 . S
Mg87 O94 2.079 1_545 S
C88 O85 1.250 . S
C88 O86 1.248 . S
C89 O90 1.264 . S
C89 O97 1.249 . S
O90 C89 1.264 . S
O91 Mg84 1.986 . S
O91 C95 1.246 . S
O92 Mg87 2.032 . S
O92 C95 1.259 . S
O93 Mg84 2.114 1_565 S
O93 C96 1.252 . S
O94 Mg84 2.251 1_565 S
O94 Mg87 2.079 1_565 S
O94 C96 1.273 . S
C95 O91 1.246 . S
C95 O92 1.259 . S
C96 O93 1.252 . S
C96 O94 1.273 . S
O97 Mg84 2.010 . S
O97 C89 1.249 . S
Mg98 O99 2.041 . S
Mg98 O105 1.987 . S
Mg98 O107 2.115 1_455 S
Mg98 O108 2.263 . S
Mg98 O111 1.995 1_455 S
O99 Mg98 2.041 . S
O99 C102 1.250 . S
O100 Mg101 2.028 . S
O100 C102 1.248 . S
Mg101 O100 2.028 . S
Mg101 O106 2.032 . S
Mg101 O108 2.079 . S
C102 O99 1.250 . S
C102 O100 1.248 . S
C103 O104 1.264 . S
C103 O111 1.249 . S
O104 C103 1.264 . S
O105 Mg98 1.987 . S
O105 C109 1.246 . S
O106 Mg101 2.032 . S
O106 C109 1.259 . S
O107 Mg98 2.115 1_655 S
O107 C110 1.252 1_655 S
O108 Mg98 2.263 . S
O108 Mg101 2.079 . S
O108 C110 1.273 . S
C109 O105 1.246 . S
C109 O106 1.259 . S
C110 O107 1.252 1_455 S
C110 O108 1.273 . S
O111 Mg98 1.995 1_655 S
O111 C103 1.249 . S
Mg112 O113 2.028 . S
Mg112 O119 1.986 . S
Mg112 O121 2.114 1_554 S
Mg112 O122 2.251 1_554 S
Mg112 O125 2.010 . S
O113 Mg112 2.028 . S
O113 C116 1.250 . S
O114 Mg115 2.028 . S
O114 C116 1.248 . S
Mg115 O114 2.028 . S
Mg115 O120 2.032 . S
Mg115 O122 2.079 1_554 S
C116 O113 1.250 . S
C116 O114 1.248 . S
C117 O118 1.264 . S
C117 O125 1.249 . S
O118 C117 1.264 . S
O119 Mg112 1.986 . S
O119 C123 1.246 . S
O120 Mg115 2.032 . S
O120 C123 1.259 . S
O121 Mg112 2.114 1_556 S
O121 C124 1.252 . S
O122 Mg112 2.251 1_556 S
O122 Mg115 2.079 1_556 S
O122 C124 1.273 . S
C123 O119 1.246 . S
C123 O120 1.259 . S
C124 O121 1.252 . S
C124 O122 1.273 . S
O125 Mg112 2.010 . S
O125 C117 1.249 . S
Mg126 O127 2.028 . S
Mg126 O133 1.986 1_554 S
Mg126 O135 2.114 . S
Mg126 O136 2.251 . S
Mg126 O139 2.010 . S
O127 Mg126 2.028 . S
O127 C130 1.250 . S
O128 Mg129 2.028 . S
O128 C130 1.248 . S
Mg129 O128 2.028 . S
Mg129 O134 2.032 1_554 S
Mg129 O136 2.079 . S
C130 O127 1.250 . S
C130 O128 1.248 . S
C131 O132 1.264 . S
C131 O139 1.249 . S
O132 C131 1.264 . S
O133 Mg126 1.986 1_556 S
O133 C137 1.246 . S
O134 Mg129 2.032 1_556 S
O134 C137 1.259 . S
O135 Mg126 2.114 . S
O135 C138 1.252 . S
O136 Mg126 2.251 . S
O136 Mg129 2.079 . S
O136 C138 1.273 . S
C137 O133 1.246 . S
C137 O134 1.259 . S
C138 O135 1.252 . S
C138 O136 1.273 . S
O139 Mg126 2.010 . S
O139 C131 1.249 . S
Mg140 O141 2.028 . S
Mg140 O147 1.986 . S
Mg140 O149 2.114 1_554 S
Mg140 O150 2.251 . S
Mg140 O153 2.010 . S
O141 Mg140 2.028 . S
O141 C144 1.250 . S
O142 Mg143 2.028 . S
O142 C144 1.248 . S
Mg143 O142 2.028 . S
Mg143 O148 2.032 . S
Mg143 O150 2.079 . S
C144 O141 1.250 . S
C144 O142 1.248 . S
C145 O146 1.264 . S
C145 O153 1.249 . S
O146 C145 1.264 . S
O147 Mg140 1.986 . S
O147 C151 1.246 . S
O148 Mg143 2.032 . S
O148 C151 1.259 . S
O149 Mg140 2.114 1_556 S
O149 C152 1.252 . S
O150 Mg140 2.251 . S
O150 Mg143 2.079 . S
O150 C152 1.273 1_554 S
C151 O147 1.246 . S
C151 O148 1.259 . S
C152 O149 1.252 . S
C152 O150 1.273 1_556 S
O153 Mg140 2.010 . S
O153 C145 1.249 . S
Mg154 O155 2.028 . S
Mg154 O161 1.986 1_554 S
Mg154 O163 2.114 . S
Mg154 O164 2.251 . S
Mg154 O167 2.010 . S
O155 Mg154 2.028 . S
O155 C158 1.250 . S
O156 Mg157 2.028 . S
O156 C158 1.248 . S
Mg157 O156 2.028 . S
Mg157 O162 2.032 1_554 S
Mg157 O164 2.079 . S
C158 O155 1.250 . S
C158 O156 1.248 . S
C159 O160 1.264 . S
C159 O167 1.249 . S
O160 C159 1.264 . S
O161 Mg154 1.986 1_556 S
O161 C165 1.246 . S
O162 Mg157 2.032 1_556 S
O162 C165 1.259 . S
O163 Mg154 2.114 . S
O163 C166 1.252 . S
O164 Mg154 2.251 . S
O164 Mg157 2.079 . S
O164 C166 1.273 . S
C165 O161 1.246 . S
C165 O162 1.259 . S
C166 O163 1.252 . S
C166 O164 1.273 . S
O167 Mg154 2.010 . S
O167 C159 1.249 . S
H168 C186 0.951 . S
H169 C188 0.951 . S
H170 C190 0.950 . S
H171 C191 0.950 . S
H172 C193 0.950 . S
H173 C196 0.950 . S
H174 C197 0.950 . S
H175 C199 0.950 . S
H176 C200 0.950 1_455 S
H177 C201 0.951 . S
H178 C203 0.951 . S
H179 C205 0.950 . S
H180 C206 0.950 . S
H181 C208 0.950 . S
H182 C211 0.950 . S
H183 C212 0.950 . S
H184 C214 0.950 . S
H185 C215 0.950 . S
C186 H168 0.951 . S
C186 C187 1.366 . S
C186 C188 1.388 . S
C187 C186 1.366 . S
C187 C191 1.385 . S
C188 H169 0.951 . S
C188 C186 1.388 . S
C188 C189 1.366 . S
C189 C188 1.366 . S
C189 C190 1.414 . S
C189 C192 1.499 . S
C190 H170 0.950 . S
C190 C189 1.414 . S
C190 C191 1.374 . S
C191 H171 0.950 . S
C191 C187 1.385 . S
C191 C190 1.374 . S
C192 C189 1.499 . S
C192 C193 1.373 . S
C192 C194 1.389 . S
C193 H172 0.950 . S
C193 C192 1.373 . S
C193 C209 1.377 . S
C194 C192 1.389 . S
C194 C195 1.524 1_455 S
C194 C208 1.377 . S
C195 C194 1.524 1_655 S
C195 C196 1.397 . S
C195 C200 1.363 . S
C196 H173 0.950 . S
C196 C195 1.397 . S
C196 C197 1.334 . S
C197 H174 0.950 . S
C197 C196 1.334 . S
C197 C198 1.287 . S
C198 C197 1.287 . S
C198 C199 1.524 . S
C198 H217 0.913 . S
C199 H175 0.950 . S
C199 C198 1.524 . S
C199 C200 1.415 . S
C200 H176 0.950 1_655 S
C200 C195 1.363 . S
C200 C199 1.415 . S
C201 H177 0.951 . S
C201 C202 1.366 . S
C201 C203 1.388 . S
C202 C201 1.366 . S
C202 C206 1.385 . S
C203 H178 0.951 . S
C203 C201 1.388 . S
C203 C204 1.366 . S
C204 C203 1.366 . S
C204 C205 1.414 . S
C204 C207 1.499 . S
C205 H179 0.950 . S
C205 C204 1.414 . S
C205 C206 1.374 . S
C206 H180 0.950 . S
C206 C202 1.385 . S
C206 C205 1.374 . S
C207 C204 1.499 . S
C207 C208 1.373 . S
C207 C209 1.389 . S
C208 H181 0.950 . S
C208 C194 1.377 . S
C208 C207 1.373 . S
C209 C193 1.377 . S
C209 C207 1.389 . S
C209 C210 1.524 . S
C210 C209 1.524 . S
C210 C211 1.397 . S
C210 C215 1.363 . S
C211 H182 0.950 . S
C211 C210 1.397 . S
C211 C212 1.334 . S
C212 H183 0.950 . S
C212 C211 1.334 . S
C212 C213 1.287 . S
C213 C212 1.287 . S
C213 C214 1.524 . S
C213 H216 0.999 . S
C214 H184 0.950 . S
C214 C213 1.524 . S
C214 C215 1.415 . S
C215 H185 0.950 . S
C215 C210 1.363 . S
C215 C214 1.415 . S
H216 C213 0.999 . S
H217 C198 0.913 . S
H218 C236 0.951 . S
H219 C238 0.951 . S
H220 C240 0.950 1_565 S
H221 C241 0.931 1_565 S
H222 C243 0.950 . S
H223 C246 0.950 . S
H224 C247 0.950 . S
H225 C249 0.950 . S
H226 C250 0.950 . S
H227 C251 0.951 1_565 S
H228 C253 0.951 1_565 S
H229 C255 0.950 . S
H230 C256 0.950 . S
H231 C258 0.950 . S
H232 C261 0.950 . S
H233 C262 0.950 . S
H234 C264 0.950 . S
H235 C265 0.950 . S
C236 H218 0.951 . S
C236 C237 1.366 . S
C236 C238 1.388 . S
C237 C236 1.366 . S
C237 C241 1.385 . S
C238 H219 0.951 . S
C238 C236 1.388 . S
C238 C239 1.366 . S
C239 C238 1.366 . S
C239 C240 1.414 . S
C239 C242 1.499 . S
C240 H220 0.950 1_545 S
C240 C239 1.414 . S
C240 C241 1.374 . S
C241 H221 0.931 1_545 S
C241 C237 1.385 . S
C241 C240 1.374 . S
C242 C239 1.499 . S
C242 C243 1.373 1_545 S
C242 C244 1.389 . S
C243 H222 0.950 . S
C243 C242 1.373 1_565 S
C243 C259 1.377 . S
C244 C242 1.389 . S
C244 C245 1.524 . S
C244 C258 1.377 . S
C245 C244 1.524 . S
C245 C246 1.397 . S
C245 C250 1.363 . S
C246 H223 0.950 . S
C246 C245 1.397 . S
C246 C247 1.334 . S
C247 H224 0.950 . S
C247 C246 1.334 . S
C247 C248 1.287 . S
C248 C247 1.287 . S
C248 C249 1.524 . S
C248 H267 0.913 . S
C249 H225 0.950 . S
C249 C248 1.524 . S
C249 C250 1.415 . S
C250 H226 0.950 . S
C250 C245 1.363 . S
C250 C249 1.415 . S
C251 H227 0.951 1_545 S
C251 C252 1.366 . S
C251 C253 1.388 . S
C252 C251 1.366 . S
C252 C256 1.385 . S
C253 H228 0.951 1_545 S
C253 C251 1.388 . S
C253 C254 1.366 . S
C254 C253 1.366 . S
C254 C255 1.414 . S
C254 C257 1.499 . S
C255 H229 0.950 . S
C255 C254 1.414 . S
C255 C256 1.374 . S
C256 H230 0.950 . S
C256 C252 1.385 . S
C256 C255 1.374 . S
C257 C254 1.499 . S
C257 C258 1.373 . S
C257 C259 1.389 1_545 S
C258 H231 0.950 . S
C258 C244 1.377 . S
C258 C257 1.373 . S
C259 C243 1.377 . S
C259 C257 1.389 1_565 S
C259 C260 1.524 . S
C260 C259 1.524 . S
C260 C261 1.397 . S
C260 C265 1.363 . S
C261 H232 0.950 . S
C261 C260 1.397 . S
C261 C262 1.334 . S
C262 H233 0.950 . S
C262 C261 1.334 . S
C262 C263 1.287 . S
C263 C262 1.287 . S
C263 C264 1.524 . S
C263 H266 0.999 . S
C264 H234 0.950 . S
C264 C263 1.524 . S
C264 C265 1.415 . S
C265 H235 0.950 . S
C265 C260 1.363 . S
C265 C264 1.415 . S
H266 C263 0.999 . S
H267 C248 0.913 . S
H268 C286 0.951 . S
H269 C288 0.951 . S
H270 C290 0.950 . S
H271 C291 0.950 . S
H272 C293 0.950 . S
H273 C296 0.950 . S
H274 C297 0.950 . S
H275 C299 0.950 . S
H276 C300 0.950 . S
H277 C301 0.951 . S
H278 C303 0.951 . S
H279 C305 0.950 . S
H280 C306 0.950 . S
H281 C308 0.950 . S
H282 C311 0.950 . S
H283 C312 0.950 . S
H284 C314 0.950 . S
H285 C315 0.950 . S
C286 H268 0.951 . S
C286 C287 1.366 . S
C286 C288 1.388 . S
C287 C286 1.366 . S
C287 C291 1.385 . S
C288 H269 0.951 . S
C288 C286 1.388 . S
C288 C289 1.366 . S
C289 C288 1.366 . S
C289 C290 1.414 . S
C289 C292 1.499 . S
C290 H270 0.950 . S
C290 C289 1.414 . S
C290 C291 1.374 . S
C291 H271 0.950 . S
C291 C287 1.385 . S
C291 C290 1.374 . S
C292 C289 1.499 . S
C292 C293 1.373 . S
C292 C294 1.389 . S
C293 H272 0.950 . S
C293 C292 1.373 . S
C293 C309 1.377 . S
C294 C292 1.389 . S
C294 C295 1.524 . S
C294 C308 1.377 . S
C295 C294 1.524 . S
C295 C296 1.397 1_455 S
C295 C300 1.363 . S
C296 H273 0.950 . S
C296 C295 1.397 1_655 S
C296 C297 1.334 . S
C297 H274 0.950 . S
C297 C296 1.334 . S
C297 C298 1.287 . S
C298 C297 1.287 . S
C298 C299 1.524 . S
C298 H317 0.913 . S
C299 H275 0.950 . S
C299 C298 1.524 . S
C299 C300 1.415 1_655 S
C300 H276 0.950 . S
C300 C295 1.363 . S
C300 C299 1.415 1_455 S
C301 H277 0.951 . S
C301 C302 1.366 . S
C301 C303 1.388 . S
C302 C301 1.366 . S
C302 C306 1.385 . S
C303 H278 0.951 . S
C303 C301 1.388 . S
C303 C304 1.366 . S
C304 C303 1.366 . S
C304 C305 1.414 . S
C304 C307 1.499 . S
C305 H279 0.950 . S
C305 C304 1.414 . S
C305 C306 1.374 . S
C306 H280 0.950 . S
C306 C302 1.385 . S
C306 C305 1.374 . S
C307 C304 1.499 . S
C307 C308 1.373 . S
C307 C309 1.389 . S
C308 H281 0.950 . S
C308 C294 1.377 . S
C308 C307 1.373 . S
C309 C293 1.377 . S
C309 C307 1.389 . S
C309 C310 1.524 . S
C310 C309 1.524 . S
C310 C311 1.397 . S
C310 C315 1.363 . S
C311 H282 0.950 . S
C311 C310 1.397 . S
C311 C312 1.334 . S
C312 H283 0.950 . S
C312 C311 1.334 . S
C312 C313 1.287 . S
C313 C312 1.287 . S
C313 C314 1.524 . S
C313 H316 0.999 . S
C314 H284 0.950 . S
C314 C313 1.524 . S
C314 C315 1.415 . S
C315 H285 0.950 . S
C315 C310 1.363 . S
C315 C314 1.415 . S
H316 C313 0.999 . S
H317 C298 0.913 . S
H318 C336 0.951 . S
H319 C338 0.951 . S
H320 C340 0.950 . S
H321 C341 0.950 . S
H322 C343 0.950 . S
H323 C346 0.950 . S
H324 C347 0.950 . S
H325 C349 0.950 . S
H326 C350 0.950 . S
H327 C351 0.951 . S
H328 C353 0.951 . S
H329 C355 0.950 . S
H330 C356 0.950 . S
H331 C358 0.950 . S
H332 C361 0.950 . S
H333 C362 0.950 . S
H334 C364 0.950 . S
H335 C365 0.950 . S
C336 H318 0.951 . S
C336 C337 1.366 . S
C336 C338 1.388 . S
C337 C336 1.366 . S
C337 C341 1.385 1_545 S
C338 H319 0.951 . S
C338 C336 1.388 . S
C338 C339 1.366 . S
C339 C338 1.366 . S
C339 C340 1.414 1_545 S
C339 C342 1.499 . S
C340 H320 0.950 . S
C340 C339 1.414 1_565 S
C340 C341 1.374 . S
C341 H321 0.950 . S
C341 C337 1.385 1_565 S
C341 C340 1.374 . S
C342 C339 1.499 . S
C342 C343 1.373 1_545 S
C342 C344 1.389 . S
C343 H322 0.950 . S
C343 C342 1.373 1_565 S
C343 C359 1.377 . S
C344 C342 1.389 . S
C344 C345 1.524 . S
C344 C358 1.377 . S
C345 C344 1.524 . S
C345 C346 1.397 . S
C345 C350 1.363 . S
C346 H323 0.950 . S
C346 C345 1.397 . S
C346 C347 1.334 . S
C347 H324 0.950 . S
C347 C346 1.334 . S
C347 C348 1.287 . S
C348 C347 1.287 . S
C348 C349 1.524 . S
C348 H367 0.913 . S
C349 H325 0.950 . S
C349 C348 1.524 . S
C349 C350 1.415 . S
C350 H326 0.950 . S
C350 C345 1.363 . S
C350 C349 1.415 . S
C351 H327 0.951 . S
C351 C352 1.366 1_565 S
C351 C353 1.388 . S
C352 C351 1.366 1_545 S
C352 C356 1.385 . S
C353 H328 0.951 . S
C353 C351 1.388 . S
C353 C354 1.366 1_565 S
C354 C353 1.366 1_545 S
C354 C355 1.414 . S
C354 C357 1.499 . S
C355 H329 0.950 . S
C355 C354 1.414 . S
C355 C356 1.374 . S
C356 H330 0.950 . S
C356 C352 1.385 . S
C356 C355 1.374 . S
C357 C354 1.499 . S
C357 C358 1.373 . S
C357 C359 1.389 1_545 S
C358 H331 0.950 . S
C358 C344 1.377 . S
C358 C357 1.373 . S
C359 C343 1.377 . S
C359 C357 1.389 1_565 S
C359 C360 1.524 . S
C360 C359 1.524 . S
C360 C361 1.397 . S
C360 C365 1.363 . S
C361 H332 0.950 . S
C361 C360 1.397 . S
C361 C362 1.334 . S
C362 H333 0.950 . S
C362 C361 1.334 . S
C362 C363 1.287 . S
C363 C362 1.287 . S
C363 C364 1.524 . S
C363 H366 0.999 . S
C364 H334 0.950 . S
C364 C363 1.524 . S
C364 C365 1.415 . S
C365 H335 0.950 . S
C365 C360 1.363 . S
C365 C364 1.415 . S
H366 C363 0.999 . S
H367 C348 0.913 . S
H368 C386 0.951 . S
H369 C388 0.951 . S
H370 C390 0.950 . S
H371 C391 0.950 . S
H372 C393 0.950 1_655 S
H373 C396 0.950 . S
H374 C397 0.950 . S
H375 C399 0.950 . S
H376 C400 0.950 . S
H377 C401 0.951 . S
H378 C403 0.951 . S
H379 C405 0.950 . S
H380 C406 0.950 . S
H381 C408 0.950 . S
H382 C411 0.950 . S
H383 C412 0.950 . S
H384 C414 0.950 . S
H385 C415 0.950 . S
C386 H368 0.951 . S
C386 C387 1.366 . S
C386 C388 1.388 . S
C387 C386 1.366 . S
C387 C391 1.385 . S
C388 H369 0.951 . S
C388 C386 1.388 . S
C388 C389 1.366 . S
C389 C388 1.366 . S
C389 C390 1.414 . S
C389 C392 1.499 . S
C390 H370 0.950 . S
C390 C389 1.414 . S
C390 C391 1.374 . S
C391 H371 0.950 . S
C391 C387 1.385 . S
C391 C390 1.374 . S
C392 C389 1.499 . S
C392 C393 1.373 . S
C392 C394 1.389 . S
C393 H372 0.950 1_455 S
C393 C392 1.373 . S
C393 C409 1.377 . S
C394 C392 1.389 . S
C394 C395 1.524 . S
C394 C408 1.377 . S
C395 C394 1.524 . S
C395 C396 1.397 . S
C395 C400 1.363 . S
C396 H373 0.950 . S
C396 C395 1.397 . S
C396 C397 1.334 . S
C397 H374 0.950 . S
C397 C396 1.334 . S
C397 C398 1.287 . S
C398 C397 1.287 . S
C398 C399 1.524 . S
C398 H417 0.913 . S
C399 H375 0.950 . S
C399 C398 1.524 . S
C399 C400 1.415 . S
C400 H376 0.950 . S
C400 C395 1.363 . S
C400 C399 1.415 . S
C401 H377 0.951 . S
C401 C402 1.366 . S
C401 C403 1.388 . S
C402 C401 1.366 . S
C402 C406 1.385 . S
C403 H378 0.951 . S
C403 C401 1.388 . S
C403 C404 1.366 . S
C404 C403 1.366 . S
C404 C405 1.414 . S
C404 C407 1.499 . S
C405 H379 0.950 . S
C405 C404 1.414 . S
C405 C406 1.374 . S
C406 H380 0.950 . S
C406 C402 1.385 . S
C406 C405 1.374 . S
C407 C404 1.499 . S
C407 C408 1.373 . S
C407 C409 1.389 . S
C408 H381 0.950 . S
C408 C394 1.377 . S
C408 C407 1.373 . S
C409 C393 1.377 . S
C409 C407 1.389 . S
C409 C410 1.524 1_455 S
C410 C409 1.524 1_655 S
C410 C411 1.397 . S
C410 C415 1.363 . S
C411 H382 0.950 . S
C411 C410 1.397 . S
C411 C412 1.334 . S
C412 H383 0.950 . S
C412 C411 1.334 . S
C412 C413 1.287 . S
C413 C412 1.287 . S
C413 C414 1.524 . S
C413 H416 0.999 . S
C414 H384 0.950 . S
C414 C413 1.524 . S
C414 C415 1.415 . S
C415 H385 0.950 . S
C415 C410 1.363 . S
C415 C414 1.415 . S
H416 C413 0.999 . S
H417 C398 0.913 . S
H418 C436 0.951 . S
H419 C438 0.951 . S
H420 C440 0.950 . S
H421 C441 0.950 . S
H422 C443 0.950 . S
H423 C446 0.950 . S
H424 C447 0.950 . S
H425 C449 0.950 . S
H426 C450 0.950 . S
H427 C451 0.951 . S
H428 C453 0.951 . S
H429 C455 0.950 . S
H430 C456 0.950 . S
H431 C458 0.950 . S
H432 C461 0.950 . S
H433 C462 0.950 . S
H434 C464 0.950 . S
H435 C465 0.950 . S
C436 H418 0.951 . S
C436 C437 1.366 . S
C436 C438 1.388 . S
C437 C436 1.366 . S
C437 C441 1.385 . S
C438 H419 0.951 . S
C438 C436 1.388 . S
C438 C439 1.366 . S
C439 C438 1.366 . S
C439 C440 1.414 . S
C439 C442 1.499 . S
C440 H420 0.950 . S
C440 C439 1.414 . S
C440 C441 1.374 . S
C441 H421 0.950 . S
C441 C437 1.385 . S
C441 C440 1.374 . S
C442 C439 1.499 . S
C442 C443 1.373 . S
C442 C444 1.389 1_545 S
C443 H422 0.950 . S
C443 C442 1.373 . S
C443 C459 1.377 . S
C444 C442 1.389 1_565 S
C444 C445 1.524 . S
C444 C458 1.377 . S
C445 C444 1.524 . S
C445 C446 1.397 . S
C445 C450 1.363 . S
C446 H423 0.950 . S
C446 C445 1.397 . S
C446 C447 1.334 . S
C447 H424 0.950 . S
C447 C446 1.334 . S
C447 C448 1.287 . S
C448 C447 1.287 . S
C448 C449 1.524 . S
C448 H467 0.913 . S
C449 H425 0.950 . S
C449 C448 1.524 . S
C449 C450 1.415 . S
C450 H426 0.950 . S
C450 C445 1.363 . S
C450 C449 1.415 . S
C451 H427 0.951 . S
C451 C452 1.366 . S
C451 C453 1.388 . S
C452 C451 1.366 . S
C452 C456 1.385 . S
C453 H428 0.951 . S
C453 C451 1.388 . S
C453 C454 1.366 . S
C454 C453 1.366 . S
C454 C455 1.414 . S
C454 C457 1.499 . S
C455 H429 0.950 . S
C455 C454 1.414 . S
C455 C456 1.374 . S
C456 H430 0.950 . S
C456 C452 1.385 . S
C456 C455 1.374 . S
C457 C454 1.499 . S
C457 C458 1.373 1_545 S
C457 C459 1.389 . S
C458 H431 0.950 . S
C458 C444 1.377 . S
C458 C457 1.373 1_565 S
C459 C443 1.377 . S
C459 C457 1.389 . S
C459 C460 1.524 . S
C460 C459 1.524 . S
C460 C461 1.397 . S
C460 C465 1.363 . S
C461 H432 0.950 . S
C461 C460 1.397 . S
C461 C462 1.334 . S
C462 H433 0.950 . S
C462 C461 1.334 . S
C462 C463 1.287 . S
C463 C462 1.287 . S
C463 C464 1.524 . S
C463 H466 0.999 . S
C464 H434 0.950 . S
C464 C463 1.524 . S
C464 C465 1.415 . S
C465 H435 0.950 . S
C465 C460 1.363 . S
C465 C464 1.415 . S
H466 C463 0.999 . S
H467 C448 0.913 . S
H468 C486 0.951 . S
H469 C488 0.951 . S
H470 C490 0.950 . S
H471 C491 0.950 . S
H472 C493 0.950 . S
H473 C496 0.950 1_655 S
H474 C497 0.950 1_655 S
H475 C499 0.950 . S
H476 C500 0.950 . S
H477 C501 0.951 . S
H478 C503 0.951 . S
H479 C505 0.950 . S
H480 C506 0.950 . S
H481 C508 0.950 . S
H482 C511 0.950 . S
H483 C512 0.950 . S
H484 C514 0.950 . S
H485 C515 0.950 . S
C486 H468 0.951 . S
C486 C487 1.366 . S
C486 C488 1.388 . S
C487 C486 1.366 . S
C487 C491 1.385 1_455 S
C488 H469 0.951 . S
C488 C486 1.388 . S
C488 C489 1.366 . S
C489 C488 1.366 . S
C489 C490 1.414 1_455 S
C489 C492 1.499 . S
C490 H470 0.950 . S
C490 C489 1.414 1_655 S
C490 C491 1.374 . S
C491 H471 0.950 . S
C491 C487 1.385 1_655 S
C491 C490 1.374 . S
C492 C489 1.499 . S
C492 C493 1.373 . S
C492 C494 1.389 . S
C493 H472 0.950 . S
C493 C492 1.373 . S
C493 C509 1.377 . S
C494 C492 1.389 . S
C494 C495 1.524 . S
C494 C508 1.377 . S
C495 C494 1.524 . S
C495 C496 1.397 . S
C495 C500 1.363 . S
C496 H473 0.950 1_455 S
C496 C495 1.397 . S
C496 C497 1.334 . S
C497 H474 0.950 1_455 S
C497 C496 1.334 . S
C497 C498 1.287 . S
C498 C497 1.287 . S
C498 C499 1.524 . S
C498 H517 0.913 . S
C499 H475 0.950 . S
C499 C498 1.524 . S
C499 C500 1.415 . S
C500 H476 0.950 . S
C500 C495 1.363 . S
C500 C499 1.415 . S
C501 H477 0.951 . S
C501 C502 1.366 1_655 S
C501 C503 1.388 . S
C502 C501 1.366 1_455 S
C502 C506 1.385 . S
C503 H478 0.951 . S
C503 C501 1.388 . S
C503 C504 1.366 1_655 S
C504 C503 1.366 1_455 S
C504 C505 1.414 . S
C504 C507 1.499 . S
C505 H479 0.950 . S
C505 C504 1.414 . S
C505 C506 1.374 . S
C506 H480 0.950 . S
C506 C502 1.385 . S
C506 C505 1.374 . S
C507 C504 1.499 . S
C507 C508 1.373 . S
C507 C509 1.389 . S
C508 H481 0.950 . S
C508 C494 1.377 . S
C508 C507 1.373 . S
C509 C493 1.377 . S
C509 C507 1.389 . S
C509 C510 1.524 . S
C510 C509 1.524 . S
C510 C511 1.397 . S
C510 C515 1.363 1_455 S
C511 H482 0.950 . S
C511 C510 1.397 . S
C511 C512 1.334 . S
C512 H483 0.950 . S
C512 C511 1.334 . S
C512 C513 1.287 . S
C513 C512 1.287 . S
C513 C514 1.524 1_455 S
C513 H516 0.999 . S
C514 H484 0.950 . S
C514 C513 1.524 1_655 S
C514 C515 1.415 . S
C515 H485 0.950 . S
C515 C510 1.363 1_655 S
C515 C514 1.415 . S
H516 C513 0.999 . S
H517 C498 0.913 . S
H518 C536 0.951 . S
H519 C538 0.951 . S
H520 C540 0.950 . S
H521 C541 0.950 . S
H522 C543 0.950 1_565 S
H523 C546 0.950 . S
H524 C547 0.950 . S
H525 C549 0.950 . S
H526 C550 0.950 . S
H527 C551 0.951 . S
H528 C553 0.951 . S
H529 C555 0.950 . S
H530 C556 0.950 . S
H531 C558 0.950 . S
H532 C561 0.950 . S
H533 C562 0.950 . S
H534 C564 0.950 . S
H535 C565 0.950 . S
C536 H518 0.951 . S
C536 C537 1.366 . S
C536 C538 1.388 . S
C537 C536 1.366 . S
C537 C541 1.385 . S
C538 H519 0.951 . S
C538 C536 1.388 . S
C538 C539 1.366 . S
C539 C538 1.366 . S
C539 C540 1.414 . S
C539 C542 1.499 . S
C540 H520 0.950 . S
C540 C539 1.414 . S
C540 C541 1.374 . S
C541 H521 0.950 . S
C541 C537 1.385 . S
C541 C540 1.374 . S
C542 C539 1.499 . S
C542 C543 1.373 . S
C542 C544 1.389 . S
C543 H522 0.950 1_545 S
C543 C542 1.373 . S
C543 C559 1.377 . S
C544 C542 1.389 . S
C544 C545 1.524 . S
C544 C558 1.377 . S
C545 C544 1.524 . S
C545 C546 1.397 . S
C545 C550 1.363 . S
C546 H523 0.950 . S
C546 C545 1.397 . S
C546 C547 1.334 . S
C547 H524 0.950 . S
C547 C546 1.334 . S
C547 C548 1.287 . S
C548 C547 1.287 . S
C548 C549 1.524 . S
C548 H567 0.913 . S
C549 H525 0.950 . S
C549 C548 1.524 . S
C549 C550 1.415 . S
C550 H526 0.950 . S
C550 C545 1.363 . S
C550 C549 1.415 . S
C551 H527 0.951 . S
C551 C552 1.366 . S
C551 C553 1.388 . S
C552 C551 1.366 . S
C552 C556 1.385 . S
C553 H528 0.951 . S
C553 C551 1.388 . S
C553 C554 1.366 . S
C554 C553 1.366 . S
C554 C555 1.414 . S
C554 C557 1.499 . S
C555 H529 0.950 . S
C555 C554 1.414 . S
C555 C556 1.374 . S
C556 H530 0.950 . S
C556 C552 1.385 . S
C556 C555 1.374 . S
C557 C554 1.499 . S
C557 C558 1.373 . S
C557 C559 1.389 . S
C558 H531 0.950 . S
C558 C544 1.377 . S
C558 C557 1.373 . S
C559 C543 1.377 . S
C559 C557 1.389 . S
C559 C560 1.524 1_545 S
C560 C559 1.524 1_565 S
C560 C561 1.397 . S
C560 C565 1.363 . S
C561 H532 0.950 . S
C561 C560 1.397 . S
C561 C562 1.334 . S
C562 H533 0.950 . S
C562 C561 1.334 . S
C562 C563 1.287 . S
C563 C562 1.287 . S
C563 C564 1.524 . S
C563 H566 0.999 . S
C564 H534 0.950 . S
C564 C563 1.524 . S
C564 C565 1.415 . S
C565 H535 0.950 . S
C565 C560 1.363 . S
C565 C564 1.415 . S
H566 C563 0.999 . S
H567 C548 0.913 . S
H568 C586 0.951 . S
H569 C588 0.951 . S
H570 C590 0.950 . S
H571 C591 0.965 . S
H572 C593 0.950 . S
H573 C596 0.950 . S
H574 C597 0.950 . S
H575 C599 0.950 . S
H576 C600 0.950 . S
H577 C601 0.951 . S
H578 C603 0.951 . S
H579 C605 0.950 . S
H580 C606 0.950 . S
H581 C608 0.950 . S
H582 C611 0.950 . S
H583 C612 0.950 . S
H584 C614 0.950 . S
H585 C615 0.950 . S
C586 H568 0.951 . S
C586 C587 1.366 . S
C586 C588 1.388 . S
C587 C586 1.366 . S
C587 C591 1.370 1_554 S
C588 H569 0.951 . S
C588 C586 1.388 . S
C588 C589 1.366 . S
C589 C588 1.366 . S
C589 C590 1.414 1_554 S
C589 C592 1.499 . S
C590 H570 0.950 . S
C590 C589 1.414 1_556 S
C590 C591 1.374 . S
C591 H571 0.965 . S
C591 C587 1.370 1_556 S
C591 C590 1.374 . S
C592 C589 1.499 . S
C592 C593 1.373 1_554 S
C592 C594 1.389 . S
C593 H572 0.950 . S
C593 C592 1.373 1_556 S
C593 C609 1.377 . S
C594 C592 1.389 . S
C594 C595 1.524 . S
C594 C608 1.377 . S
C595 C594 1.524 . S
C595 C596 1.397 . S
C595 C600 1.363 . S
C596 H573 0.950 . S
C596 C595 1.397 . S
C596 C597 1.334 . S
C597 H574 0.950 . S
C597 C596 1.334 . S
C597 C598 1.287 . S
C598 C597 1.287 . S
C598 C599 1.524 . S
C598 H617 0.913 . S
C599 H575 0.950 . S
C599 C598 1.524 . S
C599 C600 1.415 . S
C600 H576 0.950 . S
C600 C595 1.363 . S
C600 C599 1.415 . S
C601 H577 0.951 . S
C601 C602 1.366 1_556 S
C601 C603 1.388 . S
C602 C601 1.366 1_554 S
C602 C606 1.385 . S
C603 H578 0.951 . S
C603 C601 1.388 . S
C603 C604 1.366 1_556 S
C604 C603 1.366 1_554 S
C604 C605 1.414 . S
C604 C607 1.499 . S
C605 H579 0.950 . S
C605 C604 1.414 . S
C605 C606 1.374 . S
C606 H580 0.950 . S
C606 C602 1.385 . S
C606 C605 1.374 . S
C607 C604 1.499 . S
C607 C608 1.373 . S
C607 C609 1.389 1_554 S
C608 H581 0.950 . S
C608 C594 1.377 . S
C608 C607 1.373 . S
C609 C593 1.377 . S
C609 C607 1.389 1_556 S
C609 C610 1.524 . S
C610 C609 1.524 . S
C610 C611 1.397 . S
C610 C615 1.363 . S
C611 H582 0.950 . S
C611 C610 1.397 . S
C611 C612 1.334 . S
C612 H583 0.950 . S
C612 C611 1.334 . S
C612 C613 1.287 . S
C613 C612 1.287 . S
C613 C614 1.524 . S
C613 H616 0.999 . S
C614 H584 0.950 . S
C614 C613 1.524 . S
C614 C615 1.415 . S
C615 H585 0.950 . S
C615 C610 1.363 . S
C615 C614 1.415 . S
H616 C613 0.999 . S
H617 C598 0.913 . S
H618 C636 0.951 . S
H619 C638 0.951 . S
H620 C640 0.950 . S
H621 C641 0.950 . S
H622 C643 0.950 . S
H623 C646 0.950 . S
H624 C647 0.950 . S
H625 C649 0.950 . S
H626 C650 0.950 . S
H627 C651 0.951 . S
H628 C653 0.951 . S
H629 C655 0.950 . S
H630 C656 0.950 . S
H631 C658 0.950 . S
H632 C661 0.950 . S
H633 C662 0.950 . S
H634 C664 0.950 . S
H635 C665 0.950 . S
C636 H618 0.951 . S
C636 C637 1.366 1_556 S
C636 C638 1.388 . S
C637 C636 1.366 1_554 S
C637 C641 1.385 . S
C638 H619 0.951 . S
C638 C636 1.388 . S
C638 C639 1.366 1_556 S
C639 C638 1.366 1_554 S
C639 C640 1.414 . S
C639 C642 1.499 . S
C640 H620 0.950 . S
C640 C639 1.414 . S
C640 C641 1.374 . S
C641 H621 0.950 . S
C641 C637 1.385 . S
C641 C640 1.374 . S
C642 C639 1.499 . S
C642 C643 1.373 . S
C642 C644 1.389 1_554 S
C643 H622 0.950 . S
C643 C642 1.373 . S
C643 C659 1.377 . S
C644 C642 1.389 1_556 S
C644 C645 1.524 . S
C644 C658 1.377 . S
C645 C644 1.524 . S
C645 C646 1.397 . S
C645 C650 1.363 . S
C646 H623 0.950 . S
C646 C645 1.397 . S
C646 C647 1.334 . S
C647 H624 0.950 . S
C647 C646 1.334 . S
C647 C648 1.287 . S
C648 C647 1.287 . S
C648 C649 1.524 . S
C648 H667 0.913 . S
C649 H625 0.950 . S
C649 C648 1.524 . S
C649 C650 1.415 . S
C650 H626 0.950 . S
C650 C645 1.363 . S
C650 C649 1.415 . S
C651 H627 0.951 . S
C651 C652 1.366 . S
C651 C653 1.388 . S
C652 C651 1.366 . S
C652 C656 1.385 1_554 S
C653 H628 0.951 . S
C653 C651 1.388 . S
C653 C654 1.366 . S
C654 C653 1.366 . S
C654 C655 1.414 1_554 S
C654 C657 1.499 . S
C655 H629 0.950 . S
C655 C654 1.414 1_556 S
C655 C656 1.374 . S
C656 H630 0.950 . S
C656 C652 1.385 1_556 S
C656 C655 1.374 . S
C657 C654 1.499 . S
C657 C658 1.373 1_554 S
C657 C659 1.389 . S
C658 H631 0.950 . S
C658 C644 1.377 . S
C658 C657 1.373 1_556 S
C659 C643 1.377 . S
C659 C657 1.389 . S
C659 C660 1.524 . S
C660 C659 1.524 . S
C660 C661 1.397 . S
C660 C665 1.363 . S
C661 H632 0.950 . S
C661 C660 1.397 . S
C661 C662 1.334 . S
C662 H633 0.950 . S
C662 C661 1.334 . S
C662 C663 1.287 . S
C663 C662 1.287 . S
C663 C664 1.524 . S
C663 H666 0.999 . S
C664 H634 0.950 . S
C664 C663 1.524 . S
C664 C665 1.415 . S
C665 H635 0.950 . S
C665 C660 1.363 . S
C665 C664 1.415 . S
H666 C663 0.999 . S
H667 C648 0.913 . S
H668 C686 0.951 . S
H669 C688 0.951 . S
H670 C690 0.950 1_556 S
H671 C691 0.950 1_556 S
H672 C693 0.950 1_556 S
H673 C696 0.950 . S
H674 C697 0.950 . S
H675 C699 0.950 . S
H676 C700 0.950 . S
H677 C701 0.951 . S
H678 C703 0.919 1_556 S
H679 C705 0.950 . S
H680 C706 0.950 . S
H681 C708 0.950 . S
H682 C711 0.950 1_554 S
H683 C712 0.950 . S
H684 C714 0.950 . S
H685 C715 0.950 . S
C686 H668 0.951 . S
C686 C687 1.366 . S
C686 C688 1.388 . S
C687 C686 1.366 . S
C687 C691 1.385 . S
C688 H669 0.951 . S
C688 C686 1.388 . S
C688 C689 1.366 . S
C689 C688 1.366 . S
C689 C690 1.414 . S
C689 C692 1.499 . S
C690 H670 0.950 1_554 S
C690 C689 1.414 . S
C690 C691 1.374 . S
C691 H671 0.950 1_554 S
C691 C687 1.385 . S
C691 C690 1.374 . S
C692 C689 1.499 . S
C692 C693 1.373 . S
C692 C694 1.389 . S
C693 H672 0.950 1_554 S
C693 C692 1.373 . S
C693 C709 1.377 . S
C694 C692 1.389 . S
C694 C695 1.524 . S
C694 C708 1.377 . S
C695 C694 1.524 . S
C695 C696 1.397 . S
C695 C700 1.363 . S
C696 H673 0.950 . S
C696 C695 1.397 . S
C696 C697 1.334 . S
C697 H674 0.950 . S
C697 C696 1.334 . S
C697 C698 1.287 . S
C698 C697 1.287 . S
C698 C699 1.524 . S
C698 H717 0.913 . S
C699 H675 0.950 . S
C699 C698 1.524 . S
C699 C700 1.415 . S
C700 H676 0.950 . S
C700 C695 1.363 . S
C700 C699 1.415 . S
C701 H677 0.951 . S
C701 C702 1.366 . S
C701 C703 1.388 . S
C702 C701 1.366 . S
C702 C706 1.385 . S
C703 H678 0.919 1_554 S
C703 C701 1.388 . S
C703 C704 1.366 . S
C704 C703 1.366 . S
C704 C705 1.414 . S
C704 C707 1.499 . S
C705 H679 0.950 . S
C705 C704 1.414 . S
C705 C706 1.374 . S
C706 H680 0.950 . S
C706 C702 1.385 . S
C706 C705 1.374 . S
C707 C704 1.499 . S
C707 C708 1.373 . S
C707 C709 1.389 . S
C708 H681 0.950 . S
C708 C694 1.377 . S
C708 C707 1.373 . S
C709 C693 1.377 . S
C709 C707 1.389 . S
C709 C710 1.524 1_554 S
C710 C709 1.524 1_556 S
C710 C711 1.397 . S
C710 C715 1.363 . S
C711 H682 0.950 1_556 S
C711 C710 1.397 . S
C711 C712 1.334 . S
C712 H683 0.950 . S
C712 C711 1.334 . S
C712 C713 1.287 . S
C713 C712 1.287 . S
C713 C714 1.524 . S
C713 H716 0.999 . S
C714 H684 0.950 . S
C714 C713 1.524 . S
C714 C715 1.415 . S
C715 H685 0.950 . S
C715 C710 1.363 . S
C715 C714 1.415 . S
H716 C713 0.999 . S
H717 C698 0.913 . S
H718 C736 0.951 . S
H719 C738 0.951 . S
H720 C740 0.950 . S
H721 C741 0.950 . S
H722 C743 0.950 1_556 S
H723 C746 0.950 . S
H724 C747 0.950 . S
H725 C749 0.950 . S
H726 C750 0.950 . S
H727 C751 0.967 . S
H728 C753 0.951 . S
H729 C755 0.950 . S
H730 C756 0.950 . S
H731 C758 0.950 . S
H732 C761 0.950 . S
H733 C762 0.950 . S
H734 C764 0.950 . S
H735 C765 0.950 . S
C736 H718 0.951 . S
C736 C737 1.366 . S
C736 C738 1.388 . S
C737 C736 1.366 . S
C737 C741 1.385 . S
C738 H719 0.951 . S
C738 C736 1.388 . S
C738 C739 1.366 . S
C739 C738 1.366 . S
C739 C740 1.414 . S
C739 C742 1.499 . S
C740 H720 0.950 . S
C740 C739 1.414 . S
C740 C741 1.374 . S
C741 H721 0.950 . S
C741 C737 1.385 . S
C741 C740 1.374 . S
C742 C739 1.499 . S
C742 C743 1.373 . S
C742 C744 1.389 . S
C743 H722 0.950 1_554 S
C743 C742 1.373 . S
C743 C759 1.377 . S
C744 C742 1.389 . S
C744 C745 1.524 . S
C744 C758 1.377 . S
C745 C744 1.524 . S
C745 C746 1.397 . S
C745 C750 1.363 . S
C746 H723 0.950 . S
C746 C745 1.397 . S
C746 C747 1.334 . S
C747 H724 0.950 . S
C747 C746 1.334 . S
C747 C748 1.287 . S
C748 C747 1.287 . S
C748 C749 1.524 . S
C748 H767 0.913 . S
C749 H725 0.950 . S
C749 C748 1.524 . S
C749 C750 1.415 . S
C750 H726 0.950 . S
C750 C745 1.363 . S
C750 C749 1.415 . S
C751 H727 0.967 . S
C751 C752 1.366 . S
C751 C753 1.388 . S
C752 C751 1.366 . S
C752 C756 1.385 . S
C753 H728 0.951 . S
C753 C751 1.388 . S
C753 C754 1.366 . S
C754 C753 1.366 . S
C754 C755 1.414 . S
C754 C757 1.499 . S
C755 H729 0.950 . S
C755 C754 1.414 . S
C755 C756 1.374 . S
C756 H730 0.950 . S
C756 C752 1.385 . S
C756 C755 1.374 . S
C757 C754 1.499 . S
C757 C758 1.373 . S
C757 C759 1.389 . S
C758 H731 0.950 . S
C758 C744 1.377 . S
C758 C757 1.373 . S
C759 C743 1.377 . S
C759 C757 1.389 . S
C759 C760 1.524 1_554 S
C760 C759 1.524 1_556 S
C760 C761 1.397 . S
C760 C765 1.363 . S
C761 H732 0.950 . S
C761 C760 1.397 . S
C761 C762 1.334 . S
C762 H733 0.950 . S
C762 C761 1.334 . S
C762 C763 1.287 . S
C763 C762 1.287 . S
C763 C764 1.524 . S
C763 H766 0.999 . S
C764 H734 0.950 . S
C764 C763 1.524 . S
C764 C765 1.415 . S
C765 H735 0.950 . S
C765 C760 1.363 . S
C765 C764 1.415 . S
H766 C763 0.999 . S
H767 C748 0.913 . S
H768 C786 0.951 . S
H769 C788 0.951 . S
H770 C790 0.950 . S
H771 C791 0.950 . S
H772 C793 0.950 . S
H773 C796 0.950 . S
H774 C797 0.950 . S
H775 C799 0.950 . S
H776 C800 0.950 . S
H777 C801 0.951 . S
H778 C803 0.951 . S
H779 C805 0.950 . S
H780 C806 0.950 . S
H781 C808 0.950 . S
H782 C811 0.950 . S
H783 C812 0.950 . S
H784 C814 0.950 . S
H785 C815 0.950 . S
C786 H768 0.951 . S
C786 C787 1.366 . S
C786 C788 1.388 . S
C787 C786 1.366 . S
C787 C791 1.385 . S
C788 H769 0.951 . S
C788 C786 1.388 . S
C788 C789 1.366 . S
C789 C788 1.366 . S
C789 C790 1.414 . S
C789 C792 1.499 . S
C790 H770 0.950 . S
C790 C789 1.414 . S
C790 C791 1.374 . S
C791 H771 0.950 . S
C791 C787 1.385 . S
C791 C790 1.374 . S
C792 C789 1.499 . S
C792 C793 1.373 . S
C792 C794 1.389 . S
C793 H772 0.950 . S
C793 C792 1.373 . S
C793 C809 1.377 . S
C794 C792 1.389 . S
C794 C795 1.524 . S
C794 C808 1.377 . S
C795 C794 1.524 . S
C795 C796 1.397 . S
C795 C800 1.363 . S
C796 H773 0.950 . S
C796 C795 1.397 . S
C796 C797 1.334 . S
C797 H774 0.950 . S
C797 C796 1.334 . S
C797 C798 1.287 . S
C798 C797 1.287 . S
C798 C799 1.524 . S
C798 H817 0.913 . S
C799 H775 0.950 . S
C799 C798 1.524 . S
C799 C800 1.415 . S
C800 H776 0.950 . S
C800 C795 1.363 . S
C800 C799 1.415 . S
C801 H777 0.951 . S
C801 C802 1.366 . S
C801 C803 1.388 . S
C802 C801 1.366 . S
C802 C806 1.385 . S
C803 H778 0.951 . S
C803 C801 1.388 . S
C803 C804 1.366 . S
C804 C803 1.366 . S
C804 C805 1.414 . S
C804 C807 1.499 . S
C805 H779 0.950 . S
C805 C804 1.414 . S
C805 C806 1.374 . S
C806 H780 0.950 . S
C806 C802 1.385 . S
C806 C805 1.374 . S
C807 C804 1.499 . S
C807 C808 1.373 . S
C807 C809 1.389 . S
C808 H781 0.950 . S
C808 C794 1.377 . S
C808 C807 1.373 . S
C809 C793 1.377 . S
C809 C807 1.389 . S
C809 C810 1.524 . S
C810 C809 1.524 . S
C810 C811 1.397 . S
C810 C815 1.363 . S
C811 H782 0.950 . S
C811 C810 1.397 . S
C811 C812 1.334 . S
C812 H783 0.950 . S
C812 C811 1.334 . S
C812 C813 1.287 . S
C813 C812 1.287 . S
C813 C814 1.524 . S
C813 H816 0.999 . S
C814 H784 0.950 . S
C814 C813 1.524 . S
C814 C815 1.415 . S
C815 H785 0.950 . S
C815 C810 1.363 . S
C815 C814 1.415 . S
H816 C813 0.999 . S
H817 C798 0.913 . S
H818 C836 0.951 . S
H819 C838 0.951 . S
H820 C840 0.950 . S
H821 C841 0.950 . S
H822 C843 0.950 . S
H823 C846 0.950 . S
H824 C847 0.950 . S
H825 C849 0.950 . S
H826 C850 0.950 . S
H827 C851 0.951 . S
H828 C853 0.951 . S
H829 C855 0.950 . S
H830 C856 0.950 . S
H831 C858 0.950 . S
H832 C861 0.950 . S
H833 C862 0.950 . S
H834 C864 0.950 . S
H835 C865 0.950 . S
C836 H818 0.951 . S
C836 C837 1.366 . S
C836 C838 1.388 . S
C837 C836 1.366 . S
C837 C841 1.385 . S
C838 H819 0.951 . S
C838 C836 1.388 . S
C838 C839 1.366 . S
C839 C838 1.366 . S
C839 C840 1.414 . S
C839 C842 1.499 . S
C840 H820 0.950 . S
C840 C839 1.414 . S
C840 C841 1.374 . S
C841 H821 0.950 . S
C841 C837 1.385 . S
C841 C840 1.374 . S
C842 C839 1.499 . S
C842 C843 1.373 . S
C842 C844 1.389 . S
C843 H822 0.950 . S
C843 C842 1.373 . S
C843 C859 1.377 . S
C844 C842 1.389 . S
C844 C845 1.524 . S
C844 C858 1.377 . S
C845 C844 1.524 . S
C845 C846 1.397 . S
C845 C850 1.363 . S
C846 H823 0.950 . S
C846 C845 1.397 . S
C846 C847 1.334 . S
C847 H824 0.950 . S
C847 C846 1.334 . S
C847 C848 1.287 . S
C848 C847 1.287 . S
C848 C849 1.524 . S
C848 H867 0.913 . S
C849 H825 0.950 . S
C849 C848 1.524 . S
C849 C850 1.415 . S
C850 H826 0.950 . S
C850 C845 1.363 . S
C850 C849 1.415 . S
C851 H827 0.951 . S
C851 C852 1.366 . S
C851 C853 1.388 . S
C852 C851 1.366 . S
C852 C856 1.385 . S
C853 H828 0.951 . S
C853 C851 1.388 . S
C853 C854 1.366 . S
C854 C853 1.366 . S
C854 C855 1.414 . S
C854 C857 1.499 . S
C855 H829 0.950 . S
C855 C854 1.414 . S
C855 C856 1.374 . S
C856 H830 0.950 . S
C856 C852 1.385 . S
C856 C855 1.374 . S
C857 C854 1.499 . S
C857 C858 1.373 . S
C857 C859 1.389 . S
C858 H831 0.950 . S
C858 C844 1.377 . S
C858 C857 1.373 . S
C859 C843 1.377 . S
C859 C857 1.389 . S
C859 C860 1.524 . S
C860 C859 1.524 . S
C860 C861 1.397 . S
C860 C865 1.363 . S
C861 H832 0.950 . S
C861 C860 1.397 . S
C861 C862 1.334 . S
C862 H833 0.950 . S
C862 C861 1.334 . S
C862 C863 1.287 . S
C863 C862 1.287 . S
C863 C864 1.524 . S
C863 H866 0.999 . S
C864 H834 0.950 . S
C864 C863 1.524 . S
C864 C865 1.415 . S
C865 H835 0.950 . S
C865 C860 1.363 . S
C865 C864 1.415 . S
H866 C863 0.999 . S
H867 C848 0.913 . S
H868 C886 0.951 . S
H869 C888 0.951 . S
H870 C890 0.950 . S
H871 C891 0.950 . S
H872 C893 0.950 . S
H873 C896 0.950 . S
H874 C897 0.950 . S
H875 C899 0.950 . S
H876 C900 0.950 . S
H877 C901 0.951 . S
H878 C903 0.951 . S
H879 C905 0.950 . S
H880 C906 0.950 . S
H881 C908 0.950 . S
H882 C911 0.950 . S
H883 C912 0.950 . S
H884 C914 0.950 . S
H885 C915 0.950 . S
C886 H868 0.951 . S
C886 C887 1.366 . S
C886 C888 1.388 . S
C887 C886 1.366 . S
C887 C891 1.385 . S
C888 H869 0.951 . S
C888 C886 1.388 . S
C888 C889 1.366 . S
C889 C888 1.366 . S
C889 C890 1.414 . S
C889 C892 1.499 . S
C890 H870 0.950 . S
C890 C889 1.414 . S
C890 C891 1.374 . S
C891 H871 0.950 . S
C891 C887 1.385 . S
C891 C890 1.374 . S
C892 C889 1.499 . S
C892 C893 1.373 . S
C892 C894 1.389 . S
C893 H872 0.950 . S
C893 C892 1.373 . S
C893 C909 1.377 . S
C894 C892 1.389 . S
C894 C895 1.524 . S
C894 C908 1.377 . S
C895 C894 1.524 . S
C895 C896 1.397 . S
C895 C900 1.363 . S
C896 H873 0.950 . S
C896 C895 1.397 . S
C896 C897 1.334 . S
C897 H874 0.950 . S
C897 C896 1.334 . S
C897 C898 1.287 . S
C898 C897 1.287 . S
C898 C899 1.524 . S
C898 H917 0.913 . S
C899 H875 0.950 . S
C899 C898 1.524 . S
C899 C900 1.415 . S
C900 H876 0.950 . S
C900 C895 1.363 . S
C900 C899 1.415 . S
C901 H877 0.951 . S
C901 C902 1.366 . S
C901 C903 1.388 . S
C902 C901 1.366 . S
C902 C906 1.385 . S
C903 H878 0.951 . S
C903 C901 1.388 . S
C903 C904 1.366 . S
C904 C903 1.366 . S
C904 C905 1.414 . S
C904 C907 1.499 . S
C905 H879 0.950 . S
C905 C904 1.414 . S
C905 C906 1.374 . S
C906 H880 0.950 . S
C906 C902 1.385 . S
C906 C905 1.374 . S
C907 C904 1.499 . S
C907 C908 1.373 . S
C907 C909 1.389 . S
C908 H881 0.950 . S
C908 C894 1.377 . S
C908 C907 1.373 . S
C909 C893 1.377 . S
C909 C907 1.389 . S
C909 C910 1.524 . S
C910 C909 1.524 . S
C910 C911 1.397 . S
C910 C915 1.363 . S
C911 H882 0.950 . S
C911 C910 1.397 . S
C911 C912 1.334 . S
C912 H883 0.950 . S
C912 C911 1.334 . S
C912 C913 1.287 . S
C913 C912 1.287 . S
C913 C914 1.524 . S
C913 H916 0.999 . S
C914 H884 0.950 . S
C914 C913 1.524 . S
C914 C915 1.415 . S
C915 H885 0.950 . S
C915 C910 1.363 . S
C915 C914 1.415 . S
H916 C913 0.999 . S
H917 C898 0.913 . S
H918 C936 0.951 . S
H919 C938 0.951 . S
H920 C940 0.950 . S
H921 C941 0.950 . S
H922 C943 0.950 . S
H923 C946 0.950 . S
H924 C947 0.950 . S
H925 C949 0.950 . S
H926 C950 0.950 . S
H927 C951 0.951 . S
H928 C953 0.951 . S
H929 C955 0.950 . S
H930 C956 0.950 . S
H931 C958 0.950 . S
H932 C961 0.950 . S
H933 C962 0.950 . S
H934 C964 0.950 . S
H935 C965 0.950 . S
C936 H918 0.951 . S
C936 C937 1.366 . S
C936 C938 1.388 . S
C937 C936 1.366 . S
C937 C941 1.385 . S
C938 H919 0.951 . S
C938 C936 1.388 . S
C938 C939 1.366 . S
C939 C938 1.366 . S
C939 C940 1.414 . S
C939 C942 1.499 . S
C940 H920 0.950 . S
C940 C939 1.414 . S
C940 C941 1.374 . S
C941 H921 0.950 . S
C941 C937 1.385 . S
C941 C940 1.374 . S
C942 C939 1.499 . S
C942 C943 1.373 . S
C942 C944 1.389 . S
C943 H922 0.950 . S
C943 C942 1.373 . S
C943 C959 1.377 . S
C944 C942 1.389 . S
C944 C945 1.524 . S
C944 C958 1.377 . S
C945 C944 1.524 . S
C945 C946 1.397 . S
C945 C950 1.363 . S
C946 H923 0.950 . S
C946 C945 1.397 . S
C946 C947 1.334 . S
C947 H924 0.950 . S
C947 C946 1.334 . S
C947 C948 1.287 . S
C948 C947 1.287 . S
C948 C949 1.524 . S
C948 H967 0.913 . S
C949 H925 0.950 . S
C949 C948 1.524 . S
C949 C950 1.415 . S
C950 H926 0.950 . S
C950 C945 1.363 . S
C950 C949 1.415 . S
C951 H927 0.951 . S
C951 C952 1.366 . S
C951 C953 1.388 . S
C952 C951 1.366 . S
C952 C956 1.385 . S
C953 H928 0.951 . S
C953 C951 1.388 . S
C953 C954 1.366 . S
C954 C953 1.366 . S
C954 C955 1.414 . S
C954 C957 1.499 . S
C955 H929 0.950 . S
C955 C954 1.414 . S
C955 C956 1.374 . S
C956 H930 0.950 . S
C956 C952 1.385 . S
C956 C955 1.374 . S
C957 C954 1.499 . S
C957 C958 1.373 . S
C957 C959 1.389 . S
C958 H931 0.950 . S
C958 C944 1.377 . S
C958 C957 1.373 . S
C959 C943 1.377 . S
C959 C957 1.389 . S
C959 C960 1.524 . S
C960 C959 1.524 . S
C960 C961 1.397 . S
C960 C965 1.363 . S
C961 H932 0.950 . S
C961 C960 1.397 . S
C961 C962 1.334 . S
C962 H933 0.950 . S
C962 C961 1.334 . S
C962 C963 1.287 . S
C963 C962 1.287 . S
C963 C964 1.524 . S
C963 H966 0.999 . S
C964 H934 0.950 . S
C964 C963 1.524 . S
C964 C965 1.415 . S
C965 H935 0.950 . S
C965 C960 1.363 . S
C965 C964 1.415 . S
H966 C963 0.999 . S
H967 C948 0.913 . S
H968 C986 0.951 . S
H969 C988 0.951 . S
H970 C990 0.950 . S
H971 C991 0.950 . S
H972 C993 0.950 . S
H973 C996 0.950 . S
H974 C997 0.950 . S
H975 C999 0.950 . S
H976 C1000 0.950 . S
H977 C1001 0.951 . S
H978 C1003 0.951 . S
H979 C1005 0.950 . S
H980 C1006 0.950 . S
H981 C1008 0.950 . S
H982 C1011 0.950 . S
H983 C1012 0.950 . S
H984 C1014 0.950 . S
H985 C1015 0.950 . S
C986 H968 0.951 . S
C986 C987 1.366 . S
C986 C988 1.388 . S
C987 C986 1.366 . S
C987 C991 1.385 . S
C988 H969 0.951 . S
C988 C986 1.388 . S
C988 C989 1.366 . S
C989 C988 1.366 . S
C989 C990 1.414 . S
C989 C992 1.499 . S
C990 H970 0.950 . S
C990 C989 1.414 . S
C990 C991 1.374 . S
C991 H971 0.950 . S
C991 C987 1.385 . S
C991 C990 1.374 . S
C992 C989 1.499 . S
C992 C993 1.373 . S
C992 C994 1.389 . S
C993 H972 0.950 . S
C993 C992 1.373 . S
C993 C1009 1.377 . S
C994 C992 1.389 . S
C994 C995 1.524 . S
C994 C1008 1.377 . S
C995 C994 1.524 . S
C995 C996 1.397 . S
C995 C1000 1.363 . S
C996 H973 0.950 . S
C996 C995 1.397 . S
C996 C997 1.334 . S
C997 H974 0.950 . S
C997 C996 1.334 . S
C997 C998 1.287 . S
C998 C997 1.287 . S
C998 C999 1.524 . S
C998 H1017 0.913 . S
C999 H975 0.950 . S
C999 C998 1.524 . S
C999 C1000 1.415 . S
C1000 H976 0.950 . S
C1000 C995 1.363 . S
C1000 C999 1.415 . S
C1001 H977 0.951 . S
C1001 C1002 1.366 . S
C1001 C1003 1.388 . S
C1002 C1001 1.366 . S
C1002 C1006 1.385 . S
C1003 H978 0.951 . S
C1003 C1001 1.388 . S
C1003 C1004 1.366 . S
C1004 C1003 1.366 . S
C1004 C1005 1.414 . S
C1004 C1007 1.499 . S
C1005 H979 0.950 . S
C1005 C1004 1.414 . S
C1005 C1006 1.374 . S
C1006 H980 0.950 . S
C1006 C1002 1.385 . S
C1006 C1005 1.374 . S
C1007 C1004 1.499 . S
C1007 C1008 1.373 . S
C1007 C1009 1.389 . S
C1008 H981 0.950 . S
C1008 C994 1.377 . S
C1008 C1007 1.373 . S
C1009 C993 1.377 . S
C1009 C1007 1.389 . S
C1009 C1010 1.524 . S
C1010 C1009 1.524 . S
C1010 C1011 1.397 . S
C1010 C1015 1.363 . S
C1011 H982 0.950 . S
C1011 C1010 1.397 . S
C1011 C1012 1.334 . S
C1012 H983 0.950 . S
C1012 C1011 1.334 . S
C1012 C1013 1.287 . S
C1013 C1012 1.287 . S
C1013 C1014 1.524 . S
C1013 H1016 0.999 . S
C1014 H984 0.950 . S
C1014 C1013 1.524 . S
C1014 C1015 1.415 . S
C1015 H985 0.950 . S
C1015 C1010 1.363 . S
C1015 C1014 1.415 . S
H1016 C1013 0.999 . S
H1017 C998 0.913 . S
H1018 C1036 0.951 1_455 S
H1019 C1038 0.951 . S
H1020 C1040 0.950 . S
H1021 C1041 0.950 . S
H1022 C1043 0.950 . S
H1023 C1046 0.950 . S
H1024 C1047 0.950 . S
H1025 C1049 0.950 . S
H1026 C1050 0.950 . S
H1027 C1051 0.951 . S
H1028 C1053 0.951 . S
H1029 C1055 0.950 . S
H1030 C1056 0.950 . S
H1031 C1058 0.950 . S
H1032 C1061 0.950 . S
H1033 C1062 0.950 . S
H1034 C1064 0.950 . S
H1035 C1065 0.950 . S
C1036 H1018 0.951 1_655 S
C1036 C1037 1.366 . S
C1036 C1038 1.388 . S
C1037 C1036 1.366 . S
C1037 C1041 1.385 . S
C1038 H1019 0.951 . S
C1038 C1036 1.388 . S
C1038 C1039 1.366 . S
C1039 C1038 1.366 . S
C1039 C1040 1.414 . S
C1039 C1042 1.499 . S
C1040 H1020 0.950 . S
C1040 C1039 1.414 . S
C1040 C1041 1.374 . S
C1041 H1021 0.950 . S
C1041 C1037 1.385 . S
C1041 C1040 1.374 . S
C1042 C1039 1.499 . S
C1042 C1043 1.373 . S
C1042 C1044 1.389 . S
C1043 H1022 0.950 . S
C1043 C1042 1.373 . S
C1043 C1059 1.377 . S
C1044 C1042 1.389 . S
C1044 C1045 1.524 . S
C1044 C1058 1.377 . S
C1045 C1044 1.524 . S
C1045 C1046 1.397 . S
C1045 C1050 1.363 . S
C1046 H1023 0.950 . S
C1046 C1045 1.397 . S
C1046 C1047 1.334 . S
C1047 H1024 0.950 . S
C1047 C1046 1.334 . S
C1047 C1048 1.287 . S
C1048 C1047 1.287 . S
C1048 C1049 1.524 . S
C1048 H1067 0.913 . S
C1049 H1025 0.950 . S
C1049 C1048 1.524 . S
C1049 C1050 1.415 . S
C1050 H1026 0.950 . S
C1050 C1045 1.363 . S
C1050 C1049 1.415 . S
C1051 H1027 0.951 . S
C1051 C1052 1.366 . S
C1051 C1053 1.388 . S
C1052 C1051 1.366 . S
C1052 C1056 1.385 . S
C1053 H1028 0.951 . S
C1053 C1051 1.388 . S
C1053 C1054 1.366 . S
C1054 C1053 1.366 . S
C1054 C1055 1.414 . S
C1054 C1057 1.499 . S
C1055 H1029 0.950 . S
C1055 C1054 1.414 . S
C1055 C1056 1.374 . S
C1056 H1030 0.950 . S
C1056 C1052 1.385 . S
C1056 C1055 1.374 . S
C1057 C1054 1.499 . S
C1057 C1058 1.373 . S
C1057 C1059 1.389 . S
C1058 H1031 0.950 . S
C1058 C1044 1.377 . S
C1058 C1057 1.373 . S
C1059 C1043 1.377 . S
C1059 C1057 1.389 . S
C1059 C1060 1.524 . S
C1060 C1059 1.524 . S
C1060 C1061 1.397 . S
C1060 C1065 1.363 . S
C1061 H1032 0.950 . S
C1061 C1060 1.397 . S
C1061 C1062 1.334 . S
C1062 H1033 0.950 . S
C1062 C1061 1.334 . S
C1062 C1063 1.287 . S
C1063 C1062 1.287 . S
C1063 C1064 1.524 . S
C1063 H1066 0.999 . S
C1064 H1034 0.950 . S
C1064 C1063 1.524 . S
C1064 C1065 1.415 . S
C1065 H1035 0.950 . S
C1065 C1060 1.363 . S
C1065 C1064 1.415 . S
H1066 C1063 0.999 . S
H1067 C1048 0.913 . S
H1068 C1086 0.951 . S
H1069 C1088 0.951 . S
H1070 C1090 0.950 . S
H1071 C1091 0.950 . S
H1072 C1093 0.950 . S
H1073 C1096 0.950 . S
H1074 C1097 0.950 . S
H1075 C1099 0.950 . S
H1076 C1100 0.950 . S
H1077 C1101 0.951 . S
H1078 C1103 0.951 . S
H1079 C1105 0.950 . S
H1080 C1106 0.950 . S
H1081 C1108 0.950 . S
H1082 C1111 0.950 . S
H1083 C1112 0.950 . S
H1084 C1114 0.950 . S
H1085 C1115 0.950 . S
C1086 H1068 0.951 . S
C1086 C1087 1.366 . S
C1086 C1088 1.388 . S
C1087 C1086 1.366 . S
C1087 C1091 1.385 . S
C1088 H1069 0.951 . S
C1088 C1086 1.388 . S
C1088 C1089 1.366 . S
C1089 C1088 1.366 . S
C1089 C1090 1.414 . S
C1089 C1092 1.499 . S
C1090 H1070 0.950 . S
C1090 C1089 1.414 . S
C1090 C1091 1.374 . S
C1091 H1071 0.950 . S
C1091 C1087 1.385 . S
C1091 C1090 1.374 . S
C1092 C1089 1.499 . S
C1092 C1093 1.373 . S
C1092 C1094 1.389 . S
C1093 H1072 0.950 . S
C1093 C1092 1.373 . S
C1093 C1109 1.377 . S
C1094 C1092 1.389 . S
C1094 C1095 1.524 . S
C1094 C1108 1.377 . S
C1095 C1094 1.524 . S
C1095 C1096 1.397 . S
C1095 C1100 1.363 . S
C1096 H1073 0.950 . S
C1096 C1095 1.397 . S
C1096 C1097 1.334 . S
C1097 H1074 0.950 . S
C1097 C1096 1.334 . S
C1097 C1098 1.287 . S
C1098 C1097 1.287 . S
C1098 C1099 1.524 . S
C1098 H1117 0.913 . S
C1099 H1075 0.950 . S
C1099 C1098 1.524 . S
C1099 C1100 1.415 . S
C1100 H1076 0.950 . S
C1100 C1095 1.363 . S
C1100 C1099 1.415 . S
C1101 H1077 0.951 . S
C1101 C1102 1.366 . S
C1101 C1103 1.388 . S
C1102 C1101 1.366 . S
C1102 C1106 1.385 . S
C1103 H1078 0.951 . S
C1103 C1101 1.388 . S
C1103 C1104 1.366 . S
C1104 C1103 1.366 . S
C1104 C1105 1.414 . S
C1104 C1107 1.499 . S
C1105 H1079 0.950 . S
C1105 C1104 1.414 . S
C1105 C1106 1.374 . S
C1106 H1080 0.950 . S
C1106 C1102 1.385 . S
C1106 C1105 1.374 . S
C1107 C1104 1.499 . S
C1107 C1108 1.373 . S
C1107 C1109 1.389 . S
C1108 H1081 0.950 . S
C1108 C1094 1.377 . S
C1108 C1107 1.373 . S
C1109 C1093 1.377 . S
C1109 C1107 1.389 . S
C1109 C1110 1.524 . S
C1110 C1109 1.524 . S
C1110 C1111 1.397 . S
C1110 C1115 1.363 . S
C1111 H1082 0.950 . S
C1111 C1110 1.397 . S
C1111 C1112 1.334 . S
C1112 H1083 0.950 . S
C1112 C1111 1.334 . S
C1112 C1113 1.287 . S
C1113 C1112 1.287 . S
C1113 C1114 1.524 . S
C1113 H1116 0.999 . S
C1114 H1084 0.950 . S
C1114 C1113 1.524 . S
C1114 C1115 1.415 . S
C1115 H1085 0.950 . S
C1115 C1110 1.363 . S
C1115 C1114 1.415 . S
H1116 C1113 0.999 . S
H1117 C1098 0.913 . S
H1118 C1136 0.951 . S
H1119 C1138 0.951 . S
H1120 C1140 0.950 . S
H1121 C1141 0.950 . S
H1122 C1143 0.950 . S
H1123 C1146 0.950 . S
H1124 C1147 0.950 . S
H1125 C1149 0.950 . S
H1126 C1150 0.950 . S
H1127 C1151 0.951 . S
H1128 C1153 0.951 . S
H1129 C1155 0.950 . S
H1130 C1156 0.950 . S
H1131 C1158 0.950 . S
H1132 C1161 0.950 . S
H1133 C1162 0.950 . S
H1134 C1164 0.950 . S
H1135 C1165 0.950 . S
C1136 H1118 0.951 . S
C1136 C1137 1.366 . S
C1136 C1138 1.388 . S
C1137 C1136 1.366 . S
C1137 C1141 1.385 . S
C1138 H1119 0.951 . S
C1138 C1136 1.388 . S
C1138 C1139 1.366 . S
C1139 C1138 1.366 . S
C1139 C1140 1.414 . S
C1139 C1142 1.499 . S
C1140 H1120 0.950 . S
C1140 C1139 1.414 . S
C1140 C1141 1.374 . S
C1141 H1121 0.950 . S
C1141 C1137 1.385 . S
C1141 C1140 1.374 . S
C1142 C1139 1.499 . S
C1142 C1143 1.373 . S
C1142 C1144 1.389 . S
C1143 H1122 0.950 . S
C1143 C1142 1.373 . S
C1143 C1159 1.377 . S
C1144 C1142 1.389 . S
C1144 C1145 1.524 . S
C1144 C1158 1.377 . S
C1145 C1144 1.524 . S
C1145 C1146 1.397 . S
C1145 C1150 1.363 . S
C1146 H1123 0.950 . S
C1146 C1145 1.397 . S
C1146 C1147 1.334 . S
C1147 H1124 0.950 . S
C1147 C1146 1.334 . S
C1147 C1148 1.287 . S
C1148 C1147 1.287 . S
C1148 C1149 1.524 . S
C1148 H1167 0.913 . S
C1149 H1125 0.950 . S
C1149 C1148 1.524 . S
C1149 C1150 1.415 . S
C1150 H1126 0.950 . S
C1150 C1145 1.363 . S
C1150 C1149 1.415 . S
C1151 H1127 0.951 . S
C1151 C1152 1.366 . S
C1151 C1153 1.388 . S
C1152 C1151 1.366 . S
C1152 C1156 1.385 . S
C1153 H1128 0.951 . S
C1153 C1151 1.388 . S
C1153 C1154 1.366 . S
C1154 C1153 1.366 . S
C1154 C1155 1.414 . S
C1154 C1157 1.499 . S
C1155 H1129 0.950 . S
C1155 C1154 1.414 . S
C1155 C1156 1.374 . S
C1156 H1130 0.950 . S
C1156 C1152 1.385 . S
C1156 C1155 1.374 . S
C1157 C1154 1.499 . S
C1157 C1158 1.373 . S
C1157 C1159 1.389 . S
C1158 H1131 0.950 . S
C1158 C1144 1.377 . S
C1158 C1157 1.373 . S
C1159 C1143 1.377 . S
C1159 C1157 1.389 . S
C1159 C1160 1.524 . S
C1160 C1159 1.524 . S
C1160 C1161 1.397 . S
C1160 C1165 1.363 . S
C1161 H1132 0.950 . S
C1161 C1160 1.397 . S
C1161 C1162 1.334 . S
C1162 H1133 0.950 . S
C1162 C1161 1.334 . S
C1162 C1163 1.287 . S
C1163 C1162 1.287 . S
C1163 C1164 1.524 . S
C1163 H1166 0.999 . S
C1164 H1134 0.950 . S
C1164 C1163 1.524 . S
C1164 C1165 1.415 . S
C1165 H1135 0.950 . S
C1165 C1160 1.363 . S
C1165 C1164 1.415 . S
H1166 C1163 0.999 . S
H1167 C1148 0.913 . S
H1168 C1186 0.951 . S
H1169 C1188 0.951 . S
H1170 C1190 0.950 . S
H1171 C1191 0.950 . S
H1172 C1193 0.950 . S
H1173 C1196 0.950 . S
H1174 C1197 0.950 . S
H1175 C1199 0.950 . S
H1176 C1200 0.950 . S
H1177 C1201 0.951 . S
H1178 C1203 0.951 . S
H1179 C1205 0.950 . S
H1180 C1206 0.950 . S
H1181 C1208 0.950 . S
H1182 C1211 0.950 . S
H1183 C1212 0.950 . S
H1184 C1214 0.950 . S
H1185 C1215 0.950 . S
C1186 H1168 0.951 . S
C1186 C1187 1.366 . S
C1186 C1188 1.388 . S
C1187 C1186 1.366 . S
C1187 C1191 1.385 . S
C1188 H1169 0.951 . S
C1188 C1186 1.388 . S
C1188 C1189 1.366 . S
C1189 C1188 1.366 . S
C1189 C1190 1.414 . S
C1189 C1192 1.499 . S
C1190 H1170 0.950 . S
C1190 C1189 1.414 . S
C1190 C1191 1.374 . S
C1191 H1171 0.950 . S
C1191 C1187 1.385 . S
C1191 C1190 1.374 . S
C1192 C1189 1.499 . S
C1192 C1193 1.373 . S
C1192 C1194 1.389 . S
C1193 H1172 0.950 . S
C1193 C1192 1.373 . S
C1193 C1209 1.377 . S
C1194 C1192 1.389 . S
C1194 C1195 1.524 . S
C1194 C1208 1.377 . S
C1195 C1194 1.524 . S
C1195 C1196 1.397 . S
C1195 C1200 1.363 . S
C1196 H1173 0.950 . S
C1196 C1195 1.397 . S
C1196 C1197 1.334 . S
C1197 H1174 0.950 . S
C1197 C1196 1.334 . S
C1197 C1198 1.287 . S
C1198 C1197 1.287 . S
C1198 C1199 1.524 . S
C1198 H1217 0.913 1_565 S
C1199 H1175 0.950 . S
C1199 C1198 1.524 . S
C1199 C1200 1.415 . S
C1200 H1176 0.950 . S
C1200 C1195 1.363 . S
C1200 C1199 1.415 . S
C1201 H1177 0.951 . S
C1201 C1202 1.366 . S
C1201 C1203 1.388 . S
C1202 C1201 1.366 . S
C1202 C1206 1.385 . S
C1203 H1178 0.951 . S
C1203 C1201 1.388 . S
C1203 C1204 1.366 . S
C1204 C1203 1.366 . S
C1204 C1205 1.414 . S
C1204 C1207 1.499 . S
C1205 H1179 0.950 . S
C1205 C1204 1.414 . S
C1205 C1206 1.374 . S
C1206 H1180 0.950 . S
C1206 C1202 1.385 . S
C1206 C1205 1.374 . S
C1207 C1204 1.499 . S
C1207 C1208 1.373 . S
C1207 C1209 1.389 . S
C1208 H1181 0.950 . S
C1208 C1194 1.377 . S
C1208 C1207 1.373 . S
C1209 C1193 1.377 . S
C1209 C1207 1.389 . S
C1209 C1210 1.524 . S
C1210 C1209 1.524 . S
C1210 C1211 1.397 . S
C1210 C1215 1.363 . S
C1211 H1182 0.950 . S
C1211 C1210 1.397 . S
C1211 C1212 1.334 . S
C1212 H1183 0.950 . S
C1212 C1211 1.334 . S
C1212 C1213 1.287 . S
C1213 C1212 1.287 . S
C1213 C1214 1.524 . S
C1213 H1216 0.999 . S
C1214 H1184 0.950 . S
C1214 C1213 1.524 . S
C1214 C1215 1.415 . S
C1215 H1185 0.950 . S
C1215 C1210 1.363 . S
C1215 C1214 1.415 . S
H1216 C1213 0.999 . S
H1217 C1198 0.913 1_545 S
H1218 C1236 0.951 . S
H1219 C1238 0.951 . S
H1220 C1240 0.950 . S
H1221 C1241 0.950 . S
H1222 C1243 0.950 . S
H1223 C1246 0.950 . S
H1224 C1247 0.950 . S
H1225 C1249 0.950 . S
H1226 C1250 0.950 . S
H1227 C1251 0.951 . S
H1228 C1253 0.951 . S
H1229 C1255 0.950 . S
H1230 C1256 0.950 . S
H1231 C1258 0.950 . S
H1232 C1261 0.950 . S
H1233 C1262 0.950 . S
H1234 C1264 0.950 . S
H1235 C1265 0.950 . S
C1236 H1218 0.951 . S
C1236 C1237 1.366 . S
C1236 C1238 1.388 . S
C1237 C1236 1.366 . S
C1237 C1241 1.385 . S
C1238 H1219 0.951 . S
C1238 C1236 1.388 . S
C1238 C1239 1.366 . S
C1239 C1238 1.366 . S
C1239 C1240 1.414 . S
C1239 C1242 1.499 . S
C1240 H1220 0.950 . S
C1240 C1239 1.414 . S
C1240 C1241 1.374 . S
C1241 H1221 0.950 . S
C1241 C1237 1.385 . S
C1241 C1240 1.374 . S
C1242 C1239 1.499 . S
C1242 C1243 1.373 . S
C1242 C1244 1.389 . S
C1243 H1222 0.950 . S
C1243 C1242 1.373 . S
C1243 C1259 1.377 . S
C1244 C1242 1.389 . S
C1244 C1245 1.524 . S
C1244 C1258 1.377 . S
C1245 C1244 1.524 . S
C1245 C1246 1.397 . S
C1245 C1250 1.363 . S
C1246 H1223 0.950 . S
C1246 C1245 1.397 . S
C1246 C1247 1.334 . S
C1247 H1224 0.950 . S
C1247 C1246 1.334 . S
C1247 C1248 1.287 . S
C1248 C1247 1.287 . S
C1248 C1249 1.524 . S
C1248 H1267 0.913 . S
C1249 H1225 0.950 . S
C1249 C1248 1.524 . S
C1249 C1250 1.415 . S
C1250 H1226 0.950 . S
C1250 C1245 1.363 . S
C1250 C1249 1.415 . S
C1251 H1227 0.951 . S
C1251 C1252 1.366 . S
C1251 C1253 1.388 . S
C1252 C1251 1.366 . S
C1252 C1256 1.385 . S
C1253 H1228 0.951 . S
C1253 C1251 1.388 . S
C1253 C1254 1.366 . S
C1254 C1253 1.366 . S
C1254 C1255 1.414 . S
C1254 C1257 1.499 . S
C1255 H1229 0.950 . S
C1255 C1254 1.414 . S
C1255 C1256 1.374 . S
C1256 H1230 0.950 . S
C1256 C1252 1.385 . S
C1256 C1255 1.374 . S
C1257 C1254 1.499 . S
C1257 C1258 1.373 . S
C1257 C1259 1.389 . S
C1258 H1231 0.950 . S
C1258 C1244 1.377 . S
C1258 C1257 1.373 . S
C1259 C1243 1.377 . S
C1259 C1257 1.389 . S
C1259 C1260 1.524 . S
C1260 C1259 1.524 . S
C1260 C1261 1.397 . S
C1260 C1265 1.363 . S
C1261 H1232 0.950 . S
C1261 C1260 1.397 . S
C1261 C1262 1.334 . S
C1262 H1233 0.950 . S
C1262 C1261 1.334 . S
C1262 C1263 1.287 . S
C1263 C1262 1.287 . S
C1263 C1264 1.524 . S
C1263 H1266 0.999 . S
C1264 H1234 0.950 . S
C1264 C1263 1.524 . S
C1264 C1265 1.415 . S
C1265 H1235 0.950 . S
C1265 C1260 1.363 . S
C1265 C1264 1.415 . S
H1266 C1263 0.999 . S
H1267 C1248 0.913 . S
H1268 C1286 0.951 . S
H1269 C1288 0.951 . S
H1270 C1290 0.950 . S
H1271 C1291 0.950 . S
H1272 C1293 0.950 . S
H1273 C1296 0.950 . S
H1274 C1297 0.950 . S
H1275 C1299 0.950 . S
H1276 C1300 0.950 . S
H1277 C1301 0.951 . S
H1278 C1303 0.951 . S
H1279 C1305 0.950 . S
H1280 C1306 0.950 . S
H1281 C1308 0.950 . S
H1282 C1311 0.950 . S
H1283 C1312 0.950 . S
H1284 C1314 0.950 . S
H1285 C1315 0.950 . S
C1286 H1268 0.951 . S
C1286 C1287 1.366 . S
C1286 C1288 1.388 . S
C1287 C1286 1.366 . S
C1287 C1291 1.385 . S
C1288 H1269 0.951 . S
C1288 C1286 1.388 . S
C1288 C1289 1.366 . S
C1289 C1288 1.366 . S
C1289 C1290 1.414 . S
C1289 C1292 1.499 . S
C1290 H1270 0.950 . S
C1290 C1289 1.414 . S
C1290 C1291 1.374 . S
C1291 H1271 0.950 . S
C1291 C1287 1.385 . S
C1291 C1290 1.374 . S
C1292 C1289 1.499 . S
C1292 C1293 1.373 . S
C1292 C1294 1.389 . S
C1293 H1272 0.950 . S
C1293 C1292 1.373 . S
C1293 C1309 1.377 . S
C1294 C1292 1.389 . S
C1294 C1295 1.524 . S
C1294 C1308 1.377 . S
C1295 C1294 1.524 . S
C1295 C1296 1.397 . S
C1295 C1300 1.363 . S
C1296 H1273 0.950 . S
C1296 C1295 1.397 . S
C1296 C1297 1.334 . S
C1297 H1274 0.950 . S
C1297 C1296 1.334 . S
C1297 C1298 1.287 . S
C1298 C1297 1.287 . S
C1298 C1299 1.524 . S
C1298 H1317 0.913 . S
C1299 H1275 0.950 . S
C1299 C1298 1.524 . S
C1299 C1300 1.415 . S
C1300 H1276 0.950 . S
C1300 C1295 1.363 . S
C1300 C1299 1.415 . S
C1301 H1277 0.951 . S
C1301 C1302 1.366 . S
C1301 C1303 1.388 . S
C1302 C1301 1.366 . S
C1302 C1306 1.385 . S
C1303 H1278 0.951 . S
C1303 C1301 1.388 . S
C1303 C1304 1.366 . S
C1304 C1303 1.366 . S
C1304 C1305 1.414 . S
C1304 C1307 1.499 . S
C1305 H1279 0.950 . S
C1305 C1304 1.414 . S
C1305 C1306 1.374 . S
C1306 H1280 0.950 . S
C1306 C1302 1.385 . S
C1306 C1305 1.374 . S
C1307 C1304 1.499 . S
C1307 C1308 1.373 . S
C1307 C1309 1.389 . S
C1308 H1281 0.950 . S
C1308 C1294 1.377 . S
C1308 C1307 1.373 . S
C1309 C1293 1.377 . S
C1309 C1307 1.389 . S
C1309 C1310 1.524 . S
C1310 C1309 1.524 . S
C1310 C1311 1.397 . S
C1310 C1315 1.363 . S
C1311 H1282 0.950 . S
C1311 C1310 1.397 . S
C1311 C1312 1.334 . S
C1312 H1283 0.950 . S
C1312 C1311 1.334 . S
C1312 C1313 1.287 . S
C1313 C1312 1.287 . S
C1313 C1314 1.524 . S
C1313 H1316 0.999 . S
C1314 H1284 0.950 . S
C1314 C1313 1.524 . S
C1314 C1315 1.415 . S
C1315 H1285 0.950 . S
C1315 C1310 1.363 . S
C1315 C1314 1.415 . S
H1316 C1313 0.999 . S
H1317 C1298 0.913 . S
H1318 C1336 0.951 . S
H1319 C1338 0.951 . S
H1320 C1340 0.950 . S
H1321 C1341 0.950 . S
H1322 C1343 0.950 . S
H1323 C1346 0.950 . S
H1324 C1347 0.950 . S
H1325 C1349 0.950 . S
H1326 C1350 0.950 . S
H1327 C1351 0.951 . S
H1328 C1353 0.951 . S
H1329 C1355 0.950 . S
H1330 C1356 0.950 . S
H1331 C1358 0.950 . S
H1332 C1361 0.950 . S
H1333 C1362 0.950 . S
H1334 C1364 0.950 . S
H1335 C1365 0.950 . S
C1336 H1318 0.951 . S
C1336 C1337 1.366 . S
C1336 C1338 1.388 . S
C1337 C1336 1.366 . S
C1337 C1341 1.385 . S
C1338 H1319 0.951 . S
C1338 C1336 1.388 . S
C1338 C1339 1.366 . S
C1339 C1338 1.366 . S
C1339 C1340 1.414 . S
C1339 C1342 1.499 . S
C1340 H1320 0.950 . S
C1340 C1339 1.414 . S
C1340 C1341 1.374 . S
C1341 H1321 0.950 . S
C1341 C1337 1.385 . S
C1341 C1340 1.374 . S
C1342 C1339 1.499 . S
C1342 C1343 1.373 . S
C1342 C1344 1.389 . S
C1343 H1322 0.950 . S
C1343 C1342 1.373 . S
C1343 C1359 1.377 . S
C1344 C1342 1.389 . S
C1344 C1345 1.524 . S
C1344 C1358 1.377 . S
C1345 C1344 1.524 . S
C1345 C1346 1.397 . S
C1345 C1350 1.363 . S
C1346 H1323 0.950 . S
C1346 C1345 1.397 . S
C1346 C1347 1.334 . S
C1347 H1324 0.950 . S
C1347 C1346 1.334 . S
C1347 C1348 1.287 . S
C1348 C1347 1.287 . S
C1348 C1349 1.524 . S
C1348 H1367 0.913 . S
C1349 H1325 0.950 . S
C1349 C1348 1.524 . S
C1349 C1350 1.415 . S
C1350 H1326 0.950 . S
C1350 C1345 1.363 . S
C1350 C1349 1.415 . S
C1351 H1327 0.951 . S
C1351 C1352 1.366 . S
C1351 C1353 1.388 . S
C1352 C1351 1.366 . S
C1352 C1356 1.385 . S
C1353 H1328 0.951 . S
C1353 C1351 1.388 . S
C1353 C1354 1.366 . S
C1354 C1353 1.366 . S
C1354 C1355 1.414 . S
C1354 C1357 1.499 . S
C1355 H1329 0.950 . S
C1355 C1354 1.414 . S
C1355 C1356 1.374 . S
C1356 H1330 0.950 . S
C1356 C1352 1.385 . S
C1356 C1355 1.374 . S
C1357 C1354 1.499 . S
C1357 C1358 1.373 . S
C1357 C1359 1.389 . S
C1358 H1331 0.950 . S
C1358 C1344 1.377 . S
C1358 C1357 1.373 . S
C1359 C1343 1.377 . S
C1359 C1357 1.389 . S
C1359 C1360 1.524 . S
C1360 C1359 1.524 . S
C1360 C1361 1.397 . S
C1360 C1365 1.363 . S
C1361 H1332 0.950 . S
C1361 C1360 1.397 . S
C1361 C1362 1.334 . S
C1362 H1333 0.950 . S
C1362 C1361 1.334 . S
C1362 C1363 1.287 . S
C1363 C1362 1.287 . S
C1363 C1364 1.524 . S
C1363 H1366 0.999 . S
C1364 H1334 0.950 . S
C1364 C1363 1.524 . S
C1364 C1365 1.415 . S
C1365 H1335 0.950 . S
C1365 C1360 1.363 . S
C1365 C1364 1.415 . S
H1366 C1363 0.999 . S
H1367 C1348 0.913 . S
C187 C11 1.219 . S
C202 C82 1.242 . S
C237 C26 1.239 . S
C252 C60 1.231 . S
C287 C81 1.125 . S
C302 C39 1.128 . S
C337 C54 1.352 . S
C352 C61 1.194 . S
C387 C109 1.258 . S
C402 C40 1.284 . S
C437 C88 1.131 . S
C452 C53 1.116 . S
C487 C12 1.323 . S
C502 C110 1.325 . S
C537 C89 1.099 . S
C552 C25 1.216 . S
C587 C131 1.146 . S
C602 C117 1.149 . S
C637 C116 1.127 . S
C652 C158 1.128 . S
C687 C130 1.083 . S
C702 C144 1.084 . S
C737 C145 1.184 . S
C752 C159 1.186 . S
C787 C165 1.219 . S
C802 C96 1.242 . S
C837 C124 1.239 . S
C852 C102 1.231 . S
C887 C95 1.124 . S
C902 C137 1.128 . S
C937 C103 1.194 . S
C952 C152 1.352 . S
C987 C67 1.259 . S
C1002 C138 1.284 . S
C1037 C74 1.130 . S
C1052 C151 1.117 . S
C1087 C166 1.324 . S
C1102 C68 1.325 . S
C1137 C123 1.216 . S
C1152 C75 1.099 . S
C1187 C19 1.149 . S
C1202 C33 1.147 . S
C1237 C4 1.128 . S
C1252 C18 1.127 . S
C1287 C32 1.083 . S
C1302 C46 1.084 . S
C1337 C5 1.185 . S
C1352 C47 1.185 . S
