# Generated by pormake.
# Topology vbp, (6)-cn, num edge types: 1
# Building blocks:
#     Node 0, Type 0, BuildingBlock: OJICUG_clean_sbu_0, # of connection points: 6
#     Node 1, Type 0, BuildingBlock: OJICUG_clean_sbu_0, # of connection points: 6
#     Node 2, Type 0, BuildingBlock: OJICUG_clean_sbu_0, # of connection points: 6
#     Node 3, Type 0, BuildingBlock: OJICUG_clean_sbu_0, # of connection points: 6
#     Node 4, Type 0, BuildingBlock: OJICUG_clean_sbu_0, # of connection points: 6
#     Node 5, Type 0, BuildingBlock: OJICUG_clean_sbu_0, # of connection points: 6
#     Node 6, Type 0, BuildingBlock: OJICUG_clean_sbu_0, # of connection points: 6
#     Node 7, Type 0, BuildingBlock: OJICUG_clean_sbu_0, # of connection points: 6
#     Node 8, Type 0, BuildingBlock: OJICUG_clean_sbu_0, # of connection points: 6
#     Node 9, Type 0, BuildingBlock: OJICUG_clean_sbu_0, # of connection points: 6
#     Node 10, Type 0, BuildingBlock: OJICUG_clean_sbu_0, # of connection points: 6
#     Node 11, Type 0, BuildingBlock: OJICUG_clean_sbu_0, # of connection points: 6
#     Node 12, Type 0, BuildingBlock: OJICUG_clean_sbu_0, # of connection points: 6
#     Node 13, Type 0, BuildingBlock: OJICUG_clean_sbu_0, # of connection points: 6
#     Node 14, Type 0, BuildingBlock: OJICUG_clean_sbu_0, # of connection points: 6
#     Node 15, Type 0, BuildingBlock: OJICUG_clean_sbu_0, # of connection points: 6
#     Edge 16, Type (0, 0), BuildingBlock: EZIPEK_clean_linker_0, # of connection points: 2
#     Edge 17, Type (0, 0), BuildingBlock: EZIPEK_clean_linker_0, # of connection points: 2
#     Edge 18, Type (0, 0), BuildingBlock: EZIPEK_clean_linker_0, # of connection points: 2
#     Edge 19, Type (0, 0), BuildingBlock: EZIPEK_clean_linker_0, # of connection points: 2
#     Edge 20, Type (0, 0), BuildingBlock: EZIPEK_clean_linker_0, # of connection points: 2
#     Edge 21, Type (0, 0), BuildingBlock: EZIPEK_clean_linker_0, # of connection points: 2
#     Edge 22, Type (0, 0), BuildingBlock: EZIPEK_clean_linker_0, # of connection points: 2
#     Edge 23, Type (0, 0), BuildingBlock: EZIPEK_clean_linker_0, # of connection points: 2
#     Edge 24, Type (0, 0), BuildingBlock: EZIPEK_clean_linker_0, # of connection points: 2
#     Edge 25, Type (0, 0), BuildingBlock: EZIPEK_clean_linker_0, # of connection points: 2
#     Edge 26, Type (0, 0), BuildingBlock: EZIPEK_clean_linker_0, # of connection points: 2
#     Edge 27, Type (0, 0), BuildingBlock: EZIPEK_clean_linker_0, # of connection points: 2
#     Edge 28, Type (0, 0), BuildingBlock: EZIPEK_clean_linker_0, # of connection points: 2
#     Edge 29, Type (0, 0), BuildingBlock: EZIPEK_clean_linker_0, # of connection points: 2
#     Edge 30, Type (0, 0), BuildingBlock: EZIPEK_clean_linker_0, # of connection points: 2
#     Edge 31, Type (0, 0), BuildingBlock: EZIPEK_clean_linker_0, # of connection points: 2
#     Edge 32, Type (0, 0), BuildingBlock: EZIPEK_clean_linker_0, # of connection points: 2
#     Edge 33, Type (0, 0), BuildingBlock: EZIPEK_clean_linker_0, # of connection points: 2
#     Edge 34, Type (0, 0), BuildingBlock: EZIPEK_clean_linker_0, # of connection points: 2
#     Edge 35, Type (0, 0), BuildingBlock: EZIPEK_clean_linker_0, # of connection points: 2
#     Edge 36, Type (0, 0), BuildingBlock: EZIPEK_clean_linker_0, # of connection points: 2
#     Edge 37, Type (0, 0), BuildingBlock: EZIPEK_clean_linker_0, # of connection points: 2
#     Edge 38, Type (0, 0), BuildingBlock: EZIPEK_clean_linker_0, # of connection points: 2
#     Edge 39, Type (0, 0), BuildingBlock: EZIPEK_clean_linker_0, # of connection points: 2
#     Edge 40, Type (0, 0), BuildingBlock: EZIPEK_clean_linker_0, # of connection points: 2
#     Edge 41, Type (0, 0), BuildingBlock: EZIPEK_clean_linker_0, # of connection points: 2
#     Edge 42, Type (0, 0), BuildingBlock: EZIPEK_clean_linker_0, # of connection points: 2
#     Edge 43, Type (0, 0), BuildingBlock: EZIPEK_clean_linker_0, # of connection points: 2
#     Edge 44, Type (0, 0), BuildingBlock: EZIPEK_clean_linker_0, # of connection points: 2
#     Edge 45, Type (0, 0), BuildingBlock: EZIPEK_clean_linker_0, # of connection points: 2
#     Edge 46, Type (0, 0), BuildingBlock: EZIPEK_clean_linker_0, # of connection points: 2
#     Edge 47, Type (0, 0), BuildingBlock: EZIPEK_clean_linker_0, # of connection points: 2
#     Edge 48, Type (0, 0), BuildingBlock: EZIPEK_clean_linker_0, # of connection points: 2
#     Edge 49, Type (0, 0), BuildingBlock: EZIPEK_clean_linker_0, # of connection points: 2
#     Edge 50, Type (0, 0), BuildingBlock: EZIPEK_clean_linker_0, # of connection points: 2
#     Edge 51, Type (0, 0), BuildingBlock: EZIPEK_clean_linker_0, # of connection points: 2
#     Edge 52, Type (0, 0), BuildingBlock: EZIPEK_clean_linker_0, # of connection points: 2
#     Edge 53, Type (0, 0), BuildingBlock: EZIPEK_clean_linker_0, # of connection points: 2
#     Edge 54, Type (0, 0), BuildingBlock: EZIPEK_clean_linker_0, # of connection points: 2
#     Edge 55, Type (0, 0), BuildingBlock: EZIPEK_clean_linker_0, # of connection points: 2
#     Edge 56, Type (0, 0), BuildingBlock: EZIPEK_clean_linker_0, # of connection points: 2
#     Edge 57, Type (0, 0), BuildingBlock: EZIPEK_clean_linker_0, # of connection points: 2
#     Edge 58, Type (0, 0), BuildingBlock: EZIPEK_clean_linker_0, # of connection points: 2
#     Edge 59, Type (0, 0), BuildingBlock: EZIPEK_clean_linker_0, # of connection points: 2
#     Edge 60, Type (0, 0), BuildingBlock: EZIPEK_clean_linker_0, # of connection points: 2
#     Edge 61, Type (0, 0), BuildingBlock: EZIPEK_clean_linker_0, # of connection points: 2
#     Edge 62, Type (0, 0), BuildingBlock: EZIPEK_clean_linker_0, # of connection points: 2
#     Edge 63, Type (0, 0), BuildingBlock: EZIPEK_clean_linker_0, # of connection points: 2
# Relax obj value: 0.262
# Max RMSD: 0.268
# Mean RMSD: 0.268
data_MOF--net-vbp--node1-OJICUG_clean_sbu_0--edge1-EZIPEK_clean_linker_0
_symmetry_space_group_name_H-M    P1
_symmetry_Int_Tables_number       1
_symmetry_cell_setting            triclinic
loop_
_symmetry_equiv_pos_as_xyz
'x, y, z'
_cell_length_a     22.446422
_cell_length_b     31.83685
_cell_length_c     41.655771
_cell_angle_alpha  89.958722
_cell_angle_beta   90.067239
_cell_angle_gamma 90.071439
loop_
_atom_site_label
_atom_site_type_symbol
_atom_site_fract_x
_atom_site_fract_y
_atom_site_fract_z
_atom_type_partial_charge
Sc0 Sc 0.30569 0.11658 0.14655 0.0
Sc1 Sc 0.38935 0.02634 0.12761 0.0
Sc2 Sc 0.42852 0.1239 0.09475 0.0
O3 O 0.37466 0.08893 0.12351 0.0
C4 C 0.29878 0.15205 0.07251 0.0
C5 C 0.248 0.02746 0.13012 0.0
C6 C 0.4191 0.0386 0.05569 0.0
C7 C 0.35737 0.05073 0.19971 0.0
C8 C 0.40677 0.18857 0.15082 0.0
C9 C 0.52253 0.06423 0.1254 0.0
O10 O 0.27465 0.14545 0.10016 0.0
O11 O 0.29736 0.00903 0.12624 0.0
O12 O 0.43611 0.07586 0.06053 0.0
O13 O 0.32862 0.08438 0.19233 0.0
O14 O 0.43186 0.17662 0.12539 0.0
O15 O 0.48504 0.0345 0.12857 0.0
O16 O 0.36092 0.17019 0.16232 0.0
O17 O 0.38468 0.02877 0.17888 0.0
O18 O 0.50816 0.1015 0.11769 0.0
O19 O 0.24334 0.06637 0.13645 0.0
O20 O 0.35415 0.14693 0.06775 0.0
O21 O 0.39264 0.01721 0.07692 0.0
Sc22 Sc 0.66534 0.38829 0.15021 0.0
Sc23 Sc 0.59682 0.48369 0.13204 0.0
Sc24 Sc 0.54264 0.39123 0.09889 0.0
O25 O 0.60168 0.42091 0.12759 0.0
C26 C 0.6656 0.35504 0.07545 0.0
C27 C 0.73693 0.47073 0.13511 0.0
C28 C 0.56618 0.47615 0.06188 0.0
C29 C 0.62127 0.45842 0.20288 0.0
C30 C 0.55611 0.32386 0.15378 0.0
C31 C 0.46037 0.45537 0.13014 0.0
O32 O 0.68771 0.35497 0.10414 0.0
O33 O 0.69077 0.49352 0.13579 0.0
O34 O 0.5372 0.44295 0.06748 0.0
O35 O 0.65204 0.42557 0.19536 0.0
O36 O 0.53729 0.33525 0.12655 0.0
O37 O 0.50141 0.48283 0.1294 0.0
O38 O 0.60023 0.34166 0.16759 0.0
O39 O 0.59116 0.47926 0.18265 0.0
O40 O 0.46933 0.41639 0.1256 0.0
O41 O 0.73516 0.43094 0.13645 0.0
O42 O 0.61314 0.3677 0.06961 0.0
O43 O 0.60283 0.49221 0.08142 0.0
Sc44 Sc 0.31029 0.8895 0.37408 0.0
Sc45 Sc 0.38287 0.98523 0.38785 0.0
Sc46 Sc 0.43258 0.89384 0.42567 0.0
O47 O 0.37522 0.9228 0.39543 0.0
C48 C 0.3081 0.86 0.44976 0.0
C49 C 0.24219 0.97446 0.38669 0.0
C50 C 0.41379 0.98213 0.45884 0.0
C51 C 0.35532 0.95479 0.31794 0.0
C52 C 0.418 0.82382 0.37285 0.0
C53 C 0.51864 0.95444 0.39199 0.0
O54 O 0.28598 0.85924 0.42113 0.0
O55 O 0.28908 0.99654 0.38526 0.0
O56 O 0.43869 0.94693 0.45544 0.0
O57 O 0.32519 0.92239 0.32716 0.0
O58 O 0.43724 0.83656 0.39964 0.0
O59 O 0.47839 0.9823 0.38952 0.0
O60 O 0.37383 0.84093 0.35864 0.0
O61 O 0.38525 0.97731 0.33723 0.0
O62 O 0.50809 0.91633 0.39919 0.0
O63 O 0.24247 0.93457 0.38625 0.0
O64 O 0.36077 0.87254 0.45529 0.0
O65 O 0.38041 0.99883 0.43796 0.0
Sc66 Sc 0.54895 0.62331 0.42893 0.0
Sc67 Sc 0.58521 0.52727 0.39264 0.0
Sc68 Sc 0.67042 0.6176 0.37686 0.0
O69 O 0.60173 0.58924 0.39914 0.0
C70 C 0.57205 0.6904 0.37517 0.0
C71 C 0.45425 0.569 0.39438 0.0
C72 C 0.61977 0.55417 0.32168 0.0
C73 C 0.55044 0.53478 0.46324 0.0
C74 C 0.67792 0.64862 0.45244 0.0
C75 C 0.72657 0.52766 0.3921 0.0
O76 O 0.55208 0.6801 0.40233 0.0
O77 O 0.49013 0.5383 0.39122 0.0
O78 O 0.64938 0.5869 0.33027 0.0
O79 O 0.53405 0.57229 0.45973 0.0
O80 O 0.69985 0.6462 0.4238 0.0
O81 O 0.67679 0.50903 0.39384 0.0
O82 O 0.62364 0.64048 0.45828 0.0
O83 O 0.58054 0.51472 0.44279 0.0
O84 O 0.73195 0.567 0.38726 0.0
O85 O 0.47036 0.60574 0.40274 0.0
O86 O 0.61367 0.67014 0.36132 0.0
O87 O 0.59089 0.53202 0.34173 0.0
Sc88 Sc 0.5502 0.89207 0.9282 0.0
Sc89 Sc 0.59723 0.98535 0.89091 0.0
Sc90 Sc 0.66773 0.89035 0.87295 0.0
O91 O 0.60413 0.92253 0.89662 0.0
C92 C 0.67615 0.85657 0.94688 0.0
C93 C 0.57317 0.97527 0.96566 0.0
C94 C 0.73511 0.97616 0.88911 0.0
C95 C 0.46303 0.95925 0.89527 0.0
C96 C 0.55478 0.8262 0.87236 0.0
C97 C 0.62731 0.95582 0.81921 0.0
O98 O 0.61997 0.85477 0.94976 0.0
O99 O 0.58091 0.99677 0.94042 0.0
O100 O 0.7337 0.93932 0.87745 0.0
O101 O 0.47313 0.92691 0.9124 0.0
O102 O 0.60723 0.83682 0.86336 0.0
O103 O 0.61229 0.98221 0.84045 0.0
O104 O 0.52749 0.84504 0.8946 0.0
O105 O 0.50367 0.98158 0.88272 0.0
O106 O 0.64296 0.91792 0.82589 0.0
O107 O 0.56713 0.93582 0.96504 0.0
O108 O 0.70074 0.86816 0.92048 0.0
O109 O 0.68961 0.99559 0.89906 0.0
Sc110 Sc 0.30543 0.61783 0.87779 0.0
Sc111 Sc 0.38758 0.52678 0.8951 0.0
Sc112 Sc 0.42668 0.62279 0.93019 0.0
O113 O 0.37313 0.58906 0.90061 0.0
C114 C 0.40568 0.68915 0.87536 0.0
C115 C 0.3567 0.55248 0.8237 0.0
C116 C 0.52023 0.56615 0.89816 0.0
C117 C 0.24587 0.5296 0.89364 0.0
C118 C 0.29861 0.65119 0.95243 0.0
C119 C 0.4211 0.5347 0.96557 0.0
O120 O 0.36387 0.66899 0.86146 0.0
O121 O 0.38582 0.53101 0.84409 0.0
O122 O 0.50506 0.60362 0.9048 0.0
O123 O 0.24198 0.56918 0.88989 0.0
O124 O 0.35224 0.64156 0.95861 0.0
O125 O 0.38853 0.51558 0.94559 0.0
O126 O 0.27668 0.64873 0.92382 0.0
O127 O 0.29502 0.51007 0.89455 0.0
O128 O 0.43961 0.57173 0.96157 0.0
O129 O 0.32592 0.58487 0.83187 0.0
O130 O 0.42532 0.679 0.90268 0.0
O131 O 0.4833 0.53592 0.89552 0.0
Sc132 Sc 0.54702 0.12183 0.59514 0.0
Sc133 Sc 0.58599 0.02576 0.63041 0.0
Sc134 Sc 0.67032 0.11648 0.64622 0.0
O135 O 0.60114 0.08795 0.62434 0.0
C136 C 0.675 0.14973 0.5715 0.0
C137 C 0.55166 0.03416 0.55963 0.0
C138 C 0.72769 0.02794 0.63002 0.0
C139 C 0.45365 0.06519 0.62826 0.0
C140 C 0.57031 0.188 0.64982 0.0
C141 C 0.62151 0.05136 0.70119 0.0
O142 O 0.62092 0.14062 0.56592 0.0
O143 O 0.58231 0.01407 0.57997 0.0
O144 O 0.73237 0.06753 0.63336 0.0
O145 O 0.46875 0.10253 0.62095 0.0
O146 O 0.61297 0.16801 0.66314 0.0
O147 O 0.59003 0.03045 0.68145 0.0
O148 O 0.54911 0.17767 0.62289 0.0
O149 O 0.49061 0.03509 0.63111 0.0
O150 O 0.65267 0.08335 0.69242 0.0
O151 O 0.53381 0.07127 0.56364 0.0
O152 O 0.69772 0.14718 0.59991 0.0
O153 O 0.67826 0.00865 0.62997 0.0
Sc154 Sc 0.43519 0.39131 0.59792 0.0
Sc155 Sc 0.39034 0.48338 0.63549 0.0
Sc156 Sc 0.31379 0.39001 0.64984 0.0
O157 O 0.37972 0.42142 0.62816 0.0
C158 C 0.30991 0.35933 0.5745 0.0
C159 C 0.41569 0.47943 0.56453 0.0
C160 C 0.24818 0.47507 0.6388 0.0
C161 C 0.52505 0.4503 0.62957 0.0
C162 C 0.41939 0.32288 0.65178 0.0
C163 C 0.36274 0.45594 0.70488 0.0
O164 O 0.36251 0.37149 0.56859 0.0
O165 O 0.38246 0.49595 0.5855 0.0
O166 O 0.24712 0.43534 0.6366 0.0
O167 O 0.51172 0.41216 0.62417 0.0
O168 O 0.37679 0.34151 0.66625 0.0
O169 O 0.39806 0.47454 0.68582 0.0
O170 O 0.43743 0.334 0.62431 0.0
O171 O 0.48651 0.47955 0.63102 0.0
O172 O 0.32838 0.42551 0.69585 0.0
O173 O 0.44193 0.44465 0.56813 0.0
O174 O 0.28876 0.35844 0.60334 0.0
O175 O 0.29639 0.49585 0.64109 0.0
Sc176 Sc 0.81173 0.61715 0.65102 0.0
Sc177 Sc 0.89524 0.5246 0.64161 0.0
Sc178 Sc 0.93419 0.6152 0.59909 0.0
O179 O 0.88042 0.58584 0.63096 0.0
C180 C 0.80689 0.64779 0.57597 0.0
C181 C 0.75668 0.52558 0.63445 0.0
C182 C 0.93446 0.52748 0.56926 0.0
C183 C 0.84819 0.55743 0.70926 0.0
C184 C 0.91977 0.68574 0.65157 0.0
C185 C 0.02506 0.56067 0.6422 0.0
O186 O 0.78126 0.63862 0.60263 0.0
O187 O 0.80603 0.50756 0.6285 0.0
O188 O 0.92509 0.56623 0.56591 0.0
O189 O 0.83163 0.59409 0.70011 0.0
O190 O 0.94837 0.66725 0.62962 0.0
O191 O 0.98497 0.53837 0.65554 0.0
O192 O 0.8683 0.67319 0.66112 0.0
O193 O 0.86826 0.53027 0.69008 0.0
O194 O 0.01287 0.58645 0.61973 0.0
O195 O 0.75236 0.56343 0.64449 0.0
O196 O 0.86298 0.64524 0.57272 0.0
O197 O 0.9277 0.50788 0.59531 0.0
Sc198 Sc 0.16796 0.89592 0.64505 0.0
Sc199 Sc 0.08519 0.98566 0.62611 0.0
Sc200 Sc 0.04636 0.88878 0.59307 0.0
O201 O 0.09997 0.92353 0.62186 0.0
C202 C 0.17425 0.86074 0.57088 0.0
C203 C 0.22729 0.98299 0.62816 0.0
C204 C 0.05297 0.97487 0.55578 0.0
C205 C 0.11952 0.9653 0.69711 0.0
C206 C 0.06704 0.8248 0.6492 0.0
C207 C 0.95326 0.94603 0.62446 0.0
O208 O 0.19536 0.86248 0.59973 0.0
O209 O 0.17787 1.00222 0.62729 0.0
O210 O 0.03219 0.93876 0.56108 0.0
O211 O 0.15201 0.9334 0.68954 0.0
O212 O 0.04975 0.83297 0.62105 0.0
O213 O 0.99001 0.97647 0.62546 0.0
O214 O 0.10767 0.84621 0.66323 0.0
O215 O 0.08438 0.9828 0.6773 0.0
O216 O 0.96828 0.90823 0.61873 0.0
O217 O 0.23172 0.94336 0.63126 0.0
O218 O 0.12083 0.8706 0.56445 0.0
O219 O 0.08578 0.99463 0.57532 0.0
Sc220 Sc 0.80366 0.39595 0.88009 0.0
Sc221 Sc 0.88799 0.4861 0.89815 0.0
Sc222 Sc 0.9273 0.38883 0.93142 0.0
O223 O 0.87289 0.42369 0.90281 0.0
C224 C 0.79883 0.36032 0.95424 0.0
C225 C 0.74667 0.48509 0.8979 0.0
C226 C 0.92509 0.47562 0.9684 0.0
C227 C 0.85153 0.46262 0.82671 0.0
C228 C 0.90376 0.32375 0.87605 0.0
C229 C 0.02028 0.44631 0.89841 0.0
O230 O 0.77547 0.36502 0.92614 0.0
O231 O 0.79633 0.50363 0.90056 0.0
O232 O 0.94133 0.43822 0.964 0.0
O233 O 0.82268 0.42912 0.83428 0.0
O234 O 0.92589 0.33408 0.90271 0.0
O235 O 0.98306 0.47625 0.89564 0.0
O236 O 0.86048 0.34371 0.86322 0.0
O237 O 0.88107 0.48378 0.84712 0.0
O238 O 0.00577 0.40905 0.90624 0.0
O239 O 0.74148 0.44598 0.89192 0.0
O240 O 0.85325 0.36849 0.95986 0.0
O241 O 0.89384 0.49615 0.94866 0.0
Sc242 Sc 0.04777 0.12047 0.92779 0.0
Sc243 Sc 0.09635 0.02944 0.89049 0.0
Sc244 Sc 0.1666 0.1244 0.87354 0.0
O245 O 0.10348 0.09174 0.89672 0.0
C246 C 0.05694 0.18913 0.87307 0.0
C247 C 0.96084 0.05793 0.89725 0.0
C248 C 0.11989 0.05501 0.82026 0.0
C249 C 0.07985 0.03557 0.96283 0.0
C250 C 0.17281 0.15616 0.94889 0.0
C251 C 0.23625 0.04076 0.88551 0.0
O252 O 0.03917 0.17661 0.90026 0.0
O253 O 0.00127 0.03015 0.89615 0.0
O254 O 0.15185 0.08723 0.82826 0.0
O255 O 0.0482 0.06817 0.9593 0.0
O256 O 0.19278 0.1568 0.91975 0.0
O257 O 0.18945 0.01877 0.88488 0.0
O258 O 0.12057 0.14386 0.95547 0.0
O259 O 0.10937 0.01928 0.9403 0.0
O260 O 0.23623 0.08059 0.88495 0.0
O261 O 0.97102 0.09634 0.90328 0.0
O262 O 0.10059 0.17196 0.85833 0.0
O263 O 0.08548 0.03671 0.84002 0.0
Sc264 Sc 0.04933 0.39554 0.42865 0.0
Sc265 Sc 0.0858 0.48905 0.38935 0.0
Sc266 Sc 0.1724 0.3987 0.37759 0.0
O267 O 0.10295 0.42783 0.39838 0.0
C268 C 0.17646 0.36772 0.45309 0.0
C269 C 0.05644 0.4861 0.46048 0.0
C270 C 0.22768 0.48881 0.38948 0.0
C271 C 0.95449 0.44893 0.39454 0.0
C272 C 0.07193 0.32703 0.37583 0.0
C273 C 0.12126 0.45961 0.32042 0.0
O274 O 0.1229 0.3782 0.45847 0.0
O275 O 0.08523 0.50495 0.4388 0.0
O276 O 0.23374 0.44902 0.38947 0.0
O277 O 0.97116 0.41207 0.40188 0.0
O278 O 0.11427 0.34665 0.36181 0.0
O279 O 0.0861 0.47916 0.33899 0.0
O280 O 0.05186 0.33801 0.40286 0.0
O281 O -0.00941 0.47939 0.39084 0.0
O282 O 0.15581 0.43022 0.33059 0.0
O283 O 0.03733 0.44884 0.45811 0.0
O284 O 0.19925 0.36915 0.42465 0.0
O285 O 0.17772 0.50713 0.38757 0.0
Sc286 Sc 0.81005 0.12575 0.37359 0.0
Sc287 Sc 0.88325 0.02997 0.38549 0.0
Sc288 Sc 0.9321 0.12013 0.42536 0.0
O289 O 0.87516 0.09204 0.39435 0.0
C290 C 0.91779 0.19188 0.37374 0.0
C291 C 0.85476 0.06231 0.31622 0.0
C292 C 0.01899 0.06118 0.39093 0.0
C293 C 0.74272 0.03995 0.38503 0.0
C294 C 0.8073 0.15272 0.44978 0.0
C295 C 0.91389 0.0303 0.45648 0.0
O296 O 0.87378 0.17504 0.35909 0.0
O297 O 0.88537 0.03963 0.33509 0.0
O298 O 0.00825 0.09899 0.39883 0.0
O299 O 0.74255 0.07987 0.38504 0.0
O300 O 0.85987 0.13997 0.45519 0.0
O301 O 0.88065 0.0144 0.4352 0.0
O302 O 0.78547 0.15453 0.42111 0.0
O303 O 0.7897 0.0182 0.38286 0.0
O304 O 0.93831 0.06587 0.45403 0.0
O305 O 0.82458 0.09429 0.32608 0.0
O306 O 0.93667 0.1784 0.40042 0.0
O307 O 0.97871 0.03348 0.38736 0.0
Sc308 Sc 0.04441 0.6199 0.09838 0.0
Sc309 Sc 0.09865 0.52958 0.13516 0.0
Sc310 Sc 0.16703 0.62627 0.14972 0.0
O311 O 0.10331 0.59213 0.12829 0.0
C312 C 0.16742 0.65607 0.07415 0.0
C313 C 0.07029 0.53297 0.0644 0.0
C314 C 0.23841 0.54287 0.13752 0.0
C315 C 0.96163 0.55639 0.13049 0.0
C316 C 0.05639 0.68996 0.15164 0.0
C317 C 0.12361 0.55919 0.20494 0.0
O318 O 0.11487 0.6432 0.06881 0.0
O319 O 0.10533 0.51771 0.08509 0.0
O320 O 0.23674 0.58273 0.13725 0.0
O321 O 0.97039 0.59514 0.12481 0.0
O322 O 0.10173 0.67372 0.16546 0.0
O323 O 0.09319 0.5373 0.18545 0.0
O324 O 0.03682 0.67672 0.12503 0.0
O325 O 0.00322 0.52946 0.13188 0.0
O326 O 0.15343 0.592 0.19621 0.0
O327 O 0.04161 0.5667 0.06829 0.0
O328 O 0.18993 0.65707 0.1027 0.0
O329 O 0.19233 0.52015 0.13948 0.0
Sc330 Sc 0.93232 0.88728 0.09671 0.0
Sc331 Sc 0.89393 0.98635 0.12633 0.0
Sc332 Sc 0.80765 0.89786 0.14575 0.0
O333 O 0.87765 0.92407 0.12338 0.0
C334 C 0.8046 0.86418 0.07068 0.0
C335 C 0.94002 0.97287 0.05885 0.0
C336 C 0.75228 0.98666 0.12615 0.0
C337 C 0.02436 0.94309 0.13062 0.0
C338 C 0.90315 0.82333 0.151 0.0
C339 C 0.85525 0.96575 0.19825 0.0
O340 O 0.85973 0.87079 0.06582 0.0
O341 O 0.90334 0.99376 0.07542 0.0
O342 O 0.74692 0.94792 0.13313 0.0
O343 O 0.00814 0.90536 0.12514 0.0
O344 O 0.86303 0.84577 0.16418 0.0
O345 O 0.88456 0.98642 0.17742 0.0
O346 O 0.92279 0.83117 0.12339 0.0
O347 O 0.98874 0.97431 0.13028 0.0
O348 O 0.82677 0.93178 0.19134 0.0
O349 O 0.95519 0.93601 0.06569 0.0
O350 O 0.7807 0.86769 0.09884 0.0
O351 O 0.80211 1.00485 0.12237 0.0
C352 C 0.46927 0.04464 1.00376 0.0
C353 C 0.44757 0.01768 0.02821 0.0
C354 C 0.53184 0.97099 0.02018 0.0
C355 C 0.5512 0.99676 0.99465 0.0
N356 N 0.55631 0.06723 0.9744 0.0
N357 N 0.44654 0.94754 0.05035 0.0
C358 C 0.52542 0.03663 0.99018 0.0
C359 C 0.47547 0.97849 0.03388 0.0
N360 N 0.43576 0.07793 0.99385 0.0
N361 N 0.56765 0.93935 0.03088 0.0
H362 H 0.40168 0.94989 0.05653 0.0
H363 H 0.46403 0.9175 0.05346 0.0
H364 H 0.61006 0.93465 0.02124 0.0
H365 H 0.558 0.92137 0.05114 0.0
H366 H 0.44713 0.09675 0.9743 0.0
H367 H 0.39373 0.08376 1.00346 0.0
H368 H 0.54133 0.09809 0.97237 0.0
H369 H 0.60028 0.06258 0.96702 0.0
C370 C 0.5483 0.4816 1.00475 0.0
C371 C 0.54308 0.50036 0.03529 0.0
C372 C 0.44576 0.52865 0.02191 0.0
C373 C 0.45169 0.51181 0.99081 0.0
N374 N 0.50783 0.47267 0.95139 0.0
N375 N 0.49559 0.54953 0.07083 0.0
C376 C 0.5026 0.48798 0.9819 0.0
C377 C 0.4947 0.52681 0.04303 0.0
N378 N 0.59599 0.45617 0.99858 0.0
N379 N 0.39284 0.54616 0.03092 0.0
H380 H 0.53216 0.54947 0.08627 0.0
H381 H 0.46313 0.57143 0.07695 0.0
H382 H 0.35621 0.54675 0.01548 0.0
H383 H 0.38345 0.55603 0.0542 0.0
H384 H 0.60019 0.43738 0.97829 0.0
H385 H 0.6315 0.45352 0.01468 0.0
H386 H 0.54704 0.46041 0.94197 0.0
H387 H 0.47264 0.47257 0.93511 0.0
C388 C 0.49147 0.02771 0.47854 0.0
C389 C 0.43739 1.00662 0.48513 0.0
C390 C 0.46818 0.99259 0.54002 0.0
C391 C 0.52317 0.01264 0.53312 0.0
N392 N 0.59243 0.04293 0.49602 0.0
N393 N 0.36788 0.97607 0.52167 0.0
C394 C 0.5364 0.02822 0.50224 0.0
C395 C 0.42371 0.9915 0.516 0.0
N396 N 0.49929 0.04671 0.44941 0.0
N397 N 0.45913 0.97479 0.5695 0.0
H398 H 0.33498 0.97696 0.50395 0.0
H399 H 0.3527 0.96541 0.54379 0.0
H400 H 0.49248 0.97325 0.58687 0.0
H401 H 0.42052 0.95909 0.57628 0.0
H402 H 0.53675 0.06409 0.4431 0.0
H403 H 0.46543 0.04782 0.43227 0.0
H404 H 0.60715 0.0527 0.47355 0.0
H405 H 0.62598 0.04184 0.51335 0.0
C406 C 0.46765 0.4917 0.48243 0.0
C407 C 0.52168 0.51308 0.48949 0.0
C408 C 0.48872 0.52775 0.54377 0.0
C409 C 0.43699 0.50374 0.53761 0.0
N410 N 0.37353 0.46452 0.50241 0.0
N411 N 0.5891 0.54518 0.52689 0.0
C412 C 0.42496 0.48678 0.50702 0.0
C413 C 0.53393 0.52902 0.52037 0.0
N414 N 0.45677 0.47742 0.45202 0.0
N415 N 0.4944 0.54872 0.57223 0.0
H416 H 0.62307 0.54547 0.50976 0.0
H417 H 0.60292 0.55468 0.54961 0.0
H418 H 0.46062 0.54899 0.58938 0.0
H419 H 0.52958 0.56883 0.57762 0.0
H420 H 0.41575 0.4662 0.44415 0.0
H421 H 0.48922 0.47705 0.4342 0.0
H422 H 0.36356 0.44725 0.48191 0.0
H423 H 0.34051 0.46324 0.52001 0.0
C424 C 0.02808 0.50433 0.5448 0.0
C425 C 0.96511 0.50782 0.54272 0.0
C426 C 0.96975 0.5158 0.48512 0.0
C427 C 0.03174 0.50962 0.48684 0.0
N428 N 0.12253 0.50961 0.51649 0.0
N429 N 0.87537 0.50598 0.51187 0.0
C430 C 0.06186 0.50733 0.51629 0.0
C431 C 0.93574 0.51022 0.51301 0.0
N432 N 0.0549 0.49708 0.57373 0.0
N433 N 0.94428 0.52712 0.45665 0.0
H434 H 0.85074 0.49903 0.53247 0.0
H435 H 0.85128 0.50494 0.49058 0.0
H436 H 0.97011 0.53289 0.43631 0.0
H437 H 0.8995 0.53507 0.45421 0.0
H438 H 0.10018 0.49115 0.57644 0.0
H439 H 0.03098 0.49295 0.59488 0.0
H440 H 0.14822 0.51166 0.53722 0.0
H441 H 0.14643 0.51385 0.49523 0.0
C442 C 0.0362 0.97932 0.49823 0.0
C443 C 0.02519 0.99623 0.52901 0.0
C444 C 0.92584 0.01841 0.51303 0.0
C445 C 0.93832 1.00444 0.48178 0.0
N446 N 0.00088 0.96869 0.44379 0.0
N447 N 0.96523 0.03779 0.56498 0.0
C448 C -0.008 0.9833 0.47426 0.0
C449 C 0.9717 0.01786 0.53614 0.0
N450 N 0.08863 0.95879 0.49263 0.0
N451 N 0.86991 0.03253 0.51998 0.0
H452 H -0.00059 0.03931 0.58188 0.0
H453 H 0.92848 0.05601 0.57104 0.0
H454 H 0.83608 0.03194 0.50276 0.0
H455 H 0.85566 0.04078 0.54288 0.0
H456 H 0.09876 0.94255 0.4717 0.0
H457 H 0.12271 0.95823 0.50966 0.0
H458 H 0.04111 0.9571 0.43521 0.0
H459 H 0.96675 0.96804 0.4268 0.0
C460 C 0.95069 0.48046 0.02479 0.0
C461 C 0.95744 0.49719 0.99366 0.0
C462 C 0.05574 0.52477 1.00741 0.0
C463 C 0.0487 0.50734 0.03826 0.0
N464 N -0.00084 0.45968 0.07418 0.0
N465 N 0.01541 0.53508 0.95414 0.0
C466 C -0.00061 0.4818 0.04608 0.0
C467 C 0.00963 0.51965 0.98462 0.0
N468 N 0.89709 0.46391 0.03379 0.0
N469 N 0.10577 0.54776 1.00096 0.0
H470 H 0.98016 0.5362 0.93794 0.0
H471 H 0.05487 0.54689 0.94468 0.0
H472 H 0.14089 0.54932 0.01735 0.0
H473 H 0.11265 0.56524 0.98019 0.0
H474 H 0.88722 0.45416 0.05705 0.0
H475 H 0.86051 0.46408 0.01835 0.0
H476 H 0.96589 0.43844 0.08052 0.0
H477 H 0.03559 0.45958 0.08973 0.0
C478 C 0.06287 0.03541 0.02042 0.0
C479 C 0.06896 0.01174 0.99202 0.0
C480 C 0.98573 0.96762 1.00603 0.0
C481 C 0.97661 0.99219 0.03405 0.0
N482 N 0.01687 0.04243 0.0724 0.0
N483 N 0.0574 0.94465 0.96655 0.0
C484 C 0.01816 0.02419 0.04271 0.0
C485 C 0.03762 0.974 0.98787 0.0
N486 N 0.09825 0.06989 0.0248 0.0
N487 N 0.94466 0.93817 0.99696 0.0
H488 H 0.09804 0.94786 0.95469 0.0
H489 H 0.03788 0.91513 0.96401 0.0
H490 H 0.90494 0.93345 1.00944 0.0
H491 H 0.94719 0.92167 0.97542 0.0
H492 H 0.09173 0.09205 0.04283 0.0
H493 H 0.13343 0.07664 1.0092 0.0
H494 H 0.05098 0.06144 0.08116 0.0
H495 H 0.98358 0.03706 0.08922 0.0
C496 C 0.30221 0.02286 0.24907 0.0
C497 C 0.35681 0.03215 0.23315 0.0
C498 C 0.40815 0.98179 0.26905 0.0
C499 C 0.35337 0.97162 0.28412 0.0
N500 N 0.24662 0.97318 0.28152 0.0
N501 N 0.46371 0.02849 0.23382 0.0
C502 C 0.29995 0.9896 0.27216 0.0
C503 C 0.41036 0.01362 0.24483 0.0
N504 N 0.25279 0.04672 0.24335 0.0
N505 N 0.45769 0.95925 0.27712 0.0
H506 H 0.46633 0.05355 0.21771 0.0
H507 H 0.50494 0.01937 0.24286 0.0
H508 H 0.45598 0.9346 0.29366 0.0
H509 H 0.4985 0.96188 0.26547 0.0
H510 H 0.21382 0.04424 0.25677 0.0
H511 H 0.25219 0.07209 0.22767 0.0
H512 H 0.20582 0.98219 0.27181 0.0
H513 H 0.24408 0.94626 0.29557 0.0
C514 C 0.57377 0.48227 0.25388 0.0
C515 C 0.62597 0.47915 0.23506 0.0
C516 C 0.67343 0.53385 0.26898 0.0
C517 C 0.62035 0.53706 0.28769 0.0
N518 N 0.51428 0.52615 0.28871 0.0
N519 N 0.71989 0.5098 0.21975 0.0
C520 C 0.56883 0.51468 0.27727 0.0
C521 C 0.67437 0.50704 0.24136 0.0
N522 N 0.52854 0.45415 0.24931 0.0
N523 N 0.7233 0.55599 0.2772 0.0
H524 H 0.72257 0.49039 0.19978 0.0
H525 H 0.75238 0.53317 0.22011 0.0
H526 H 0.72407 0.57976 0.29421 0.0
H527 H 0.76523 0.54988 0.26762 0.0
H528 H 0.49134 0.45241 0.26419 0.0
H529 H 0.53111 0.42998 0.23243 0.0
H530 H 0.47431 0.51374 0.2802 0.0
H531 H 0.50913 0.55201 0.3038 0.0
C532 C 0.68095 0.99179 0.77418 0.0
C533 C 0.62774 0.97322 0.78585 0.0
C534 C 0.56989 0.01573 0.74745 0.0
C535 C 0.62331 0.03349 0.73492 0.0
N536 N 0.72664 0.0496 0.74542 0.0
N537 N 0.5225 0.96259 0.78092 0.0
C538 C 0.67822 0.02459 0.75069 0.0
C539 C 0.57244 0.98394 0.77165 0.0
N540 N 0.73445 0.97746 0.78532 0.0
N541 N 0.5165 0.03168 0.73749 0.0
H542 H 0.52407 0.93848 0.79791 0.0
H543 H 0.48109 0.96576 0.76995 0.0
H544 H 0.51407 0.0573 0.72191 0.0
H545 H 0.47547 0.02306 0.74705 0.0
H546 H 0.7753 0.98624 0.77557 0.0
H547 H 0.73757 0.95365 0.80247 0.0
H548 H 0.76623 0.04713 0.75833 0.0
H549 H 0.72508 0.07646 0.73125 0.0
C550 C 0.41087 0.51484 0.77946 0.0
C551 C 0.35775 0.53518 0.78976 0.0
C552 C 0.30576 0.50238 0.74375 0.0
C553 C 0.35657 0.47691 0.73709 0.0
N554 N 0.45594 0.45612 0.7515 0.0
N555 N 0.25378 0.54991 0.7793 0.0
C556 C 0.40854 0.48234 0.75597 0.0
C557 C 0.30499 0.52952 0.77117 0.0
N558 N 0.46434 0.52841 0.79116 0.0
N559 N 0.25942 0.50288 0.72257 0.0
H560 H 0.25249 0.5754 0.7948 0.0
H561 H 0.21199 0.54138 0.77056 0.0
H562 H 0.25761 0.48291 0.703 0.0
H563 H 0.22506 0.52481 0.72302 0.0
H564 H 0.50528 0.51764 0.78279 0.0
H565 H 0.4673 0.5544 0.8063 0.0
H566 H 0.49325 0.45595 0.7664 0.0
H567 H 0.45524 0.43174 0.73474 0.0
C568 C 0.79422 0.49314 0.77893 0.0
C569 C 0.84938 0.48177 0.79357 0.0
C570 C 0.90137 0.53134 0.75756 0.0
C571 C 0.8465 0.54292 0.74336 0.0
N572 N 0.74007 0.54361 0.74605 0.0
N573 N 0.95618 0.48175 0.79051 0.0
C574 C 0.79272 0.52635 0.75574 0.0
C575 C 0.90318 0.49886 0.78111 0.0
N576 N 0.74378 0.47082 0.78563 0.0
N577 N 0.9517 0.55263 0.74889 0.0
H578 H 0.95808 0.45589 0.80587 0.0
H579 H -0.00283 0.48976 0.78057 0.0
H580 H 0.95068 0.57706 0.73213 0.0
H581 H -0.00735 0.54912 0.76032 0.0
H582 H 0.70377 0.47489 0.77335 0.0
H583 H 0.74283 0.44551 0.80139 0.0
H584 H 0.69912 0.53638 0.75641 0.0
H585 H 0.73835 0.56814 0.72944 0.0
C586 C 0.13262 0.9881 0.78766 0.0
C587 C 0.12744 0.03299 0.78833 0.0
C588 C 0.13415 0.03217 0.72949 0.0
C589 C 0.1269 0.98747 0.72889 0.0
N590 N 0.11039 0.92382 0.75889 0.0
N591 N 0.11501 0.09702 0.75816 0.0
C592 C 0.12388 0.96565 0.7584 0.0
C593 C 0.1262 0.05489 0.75875 0.0
N594 N 0.14878 0.9667 0.81469 0.0
N595 N 0.15131 0.05299 0.70237 0.0
H596 H 0.10762 0.11464 0.77885 0.0
H597 H 0.10745 0.11357 0.73695 0.0
H598 H 0.16164 0.03754 0.6811 0.0
H599 H 0.16244 0.08479 0.70219 0.0
H600 H 0.15843 0.93468 0.81474 0.0
H601 H 0.16 0.98169 0.83599 0.0
H602 H 0.10138 0.90751 0.78005 0.0
H603 H 0.10254 0.90636 0.73815 0.0
C604 C 0.07027 0.49349 0.2738 0.0
C605 C 0.124 0.47717 0.28672 0.0
C606 C 0.18041 0.52325 0.24986 0.0
C607 C 0.12631 0.54088 0.2382 0.0
N608 N 0.02101 0.54971 0.24486 0.0
N609 N 0.22908 0.46606 0.27828 0.0
C610 C 0.07165 0.52788 0.252 0.0
C611 C 0.17896 0.48902 0.27228 0.0
N612 N 0.01779 0.47408 0.28119 0.0
N613 N 0.2333 0.54046 0.24055 0.0
H614 H 0.22904 0.43917 0.29245 0.0
H615 H 0.26928 0.47054 0.26633 0.0
H616 H 0.23529 0.56736 0.22646 0.0
H617 H 0.27447 0.5317 0.24991 0.0
H618 H 0.97724 0.48161 0.27047 0.0
H619 H 0.01663 0.44691 0.29525 0.0
H620 H 0.98034 0.54457 0.25623 0.0
H621 H 0.0216 0.57603 0.22987 0.0
C622 C 0.90718 0.03339 0.26802 0.0
C623 C 0.85269 0.04626 0.28212 0.0
C624 C 0.79852 0.999 0.24501 0.0
C625 C 0.85339 0.98572 0.23114 0.0
N626 N 0.96011 0.98308 0.23487 0.0
N627 N 0.74649 0.05154 0.27658 0.0
C628 C 0.90776 1.00119 0.24418 0.0
C629 C 0.79827 0.03182 0.26859 0.0
N630 N 0.95834 0.05373 0.27666 0.0
N631 N 0.74657 0.97957 0.23651 0.0
H632 H 0.74593 0.0784 0.29076 0.0
H633 H 0.70563 0.04529 0.26573 0.0
H634 H 0.74411 0.95589 0.2194 0.0
H635 H 0.70638 0.98432 0.24841 0.0
H636 H -0.00071 0.04912 0.26552 0.0
H637 H 0.95809 0.07875 0.29286 0.0
H638 H 0.0012 0.98974 0.2453 0.0
H639 H 0.96129 0.9578 0.21895 0.0
C640 C 0.26732 0.12168 0.0195 0.0
C641 C 0.2618 0.15495 0.04202 0.0
C642 C 0.20124 0.19321 1.00159 0.0
C643 C 0.21306 0.16169 0.978 0.0
N644 N 0.27167 0.10119 0.96383 0.0
N645 N 0.22846 0.22511 0.053 0.0
C646 C 0.25072 0.12777 0.98679 0.0
C647 C 0.23008 0.19161 0.03263 0.0
N648 N 0.28622 0.08312 0.02968 0.0
N649 N 0.16189 0.22448 0.99442 0.0
H650 H 0.2476 0.22409 0.07584 0.0
H651 H 0.2114 0.25434 0.0466 0.0
H652 H 0.14315 0.22775 0.97161 0.0
H653 H 0.14604 0.24579 1.01132 0.0
H654 H 0.28509 0.05647 0.01515 0.0
H655 H 0.29708 0.07685 0.05357 0.0
H656 H 0.30456 0.07893 0.96845 0.0
H657 H 0.26194 0.10496 0.93964 0.0
C658 C 0.73934 0.31776 0.99609 0.0
C659 C 0.76014 0.35686 0.98385 0.0
C660 C 0.73053 0.39084 0.03469 0.0
C661 C 0.70547 0.35269 0.04623 0.0
N662 N 0.67974 0.2806 0.03619 0.0
N663 N 0.76481 0.43194 0.98943 0.0
C664 C 0.70809 0.31629 0.02636 0.0
C665 C 0.75274 0.39361 1.0027 0.0
N666 N 0.7506 0.28199 0.97913 0.0
N667 N 0.73329 0.42496 0.05447 0.0
H668 H 0.78091 0.43567 0.96612 0.0
H669 H 0.75408 0.46022 1.00051 0.0
H670 H 0.71348 0.42573 0.07701 0.0
H671 H 0.75936 0.45122 0.04955 0.0
H672 H 0.74232 0.25192 0.98788 0.0
H673 H 0.77142 0.28258 0.95674 0.0
H674 H 0.67426 0.25421 0.02175 0.0
H675 H 0.65902 0.27834 0.05855 0.0
C676 C 0.26134 0.81908 0.49683 0.0
C677 C 0.26856 0.85708 0.47915 0.0
C678 C 0.22753 0.89618 0.52537 0.0
C679 C 0.21486 0.85816 0.54192 0.0
N680 N 0.21384 0.78272 0.54177 0.0
N681 N 0.24751 0.93097 0.47474 0.0
C682 C 0.23019 0.81932 0.52715 0.0
C683 C 0.24823 0.89528 0.49296 0.0
N684 N 0.28517 0.78291 0.4849 0.0
N685 N 0.22104 0.9336 0.54105 0.0
H686 H 0.26293 0.93192 0.45116 0.0
H687 H 0.2267 0.95858 0.48197 0.0
H688 H 0.20634 0.93571 0.56473 0.0
H689 H 0.2351 0.96221 0.5316 0.0
H690 H 0.28722 0.75492 0.49778 0.0
H691 H 0.3058 0.78171 0.46247 0.0
H692 H 0.21781 0.75334 0.53103 0.0
H693 H 0.19327 0.7822 0.56423 0.0
C694 C 0.71669 0.6884 0.50206 0.0
C695 C 0.71775 0.65221 0.48183 0.0
C696 C 0.76804 0.61326 0.52551 0.0
C697 C 0.77139 0.64996 0.54487 0.0
N698 N 0.7548 0.72414 0.54987 0.0
N699 N 0.75336 0.58191 0.4731 0.0
C700 C 0.74737 0.6881 0.5326 0.0
C701 C 0.74638 0.61537 0.49324 0.0
N702 N 0.68541 0.72286 0.49228 0.0
N703 N 0.78304 0.57539 0.5385 0.0
H704 H 0.73635 0.58112 0.44987 0.0
H705 H 0.7806 0.55645 0.47839 0.0
H706 H 0.80034 0.57206 0.5616 0.0
H707 H 0.77203 0.54704 0.52759 0.0
H708 H 0.67699 0.74865 0.50692 0.0
H709 H 0.66533 0.72463 0.4697 0.0
H710 H 0.74403 0.75385 0.5412 0.0
H711 H 0.77517 0.72436 0.57241 0.0
C712 C 0.72745 0.89633 0.99178 0.0
C713 C 0.71138 0.85697 0.97805 0.0
C714 C 0.7451 0.82232 0.02856 0.0
C715 C 0.7667 0.86139 0.04054 0.0
N716 N 0.78714 0.93467 0.03016 0.0
N717 N 0.70676 0.78188 0.98299 0.0
C718 C 0.76028 0.89798 0.02111 0.0
C719 C 0.72052 0.81975 0.9965 0.0
N720 N 0.70843 0.93277 0.97776 0.0
N721 N 0.74811 0.78777 0.04792 0.0
H722 H 0.6889 0.77937 0.95992 0.0
H723 H 0.71634 0.75303 0.99349 0.0
H724 H 0.76649 0.78892 0.07093 0.0
H725 H 0.72924 0.75884 0.04228 0.0
H726 H 0.71128 0.96197 0.98896 0.0
H727 H 0.68607 0.93373 0.95584 0.0
H728 H 0.79143 0.96046 0.0149 0.0
H729 H 0.80841 0.93874 0.05221 0.0
C730 C 0.24119 0.69384 0.99485 0.0
C731 C 0.2589 0.65457 0.98163 0.0
C732 C 0.22912 0.61988 0.03219 0.0
C733 C 0.20664 0.6583 0.04463 0.0
N734 N 0.18471 0.7313 0.03597 0.0
N735 N 0.2575 0.57918 0.98545 0.0
C736 C 0.21076 0.69519 0.02535 0.0
C737 C 0.24918 0.61739 0.99974 0.0
N738 N 0.25465 0.72985 0.97861 0.0
N739 N 0.23212 0.58542 0.05165 0.0
H740 H 0.27129 0.57596 0.96167 0.0
H741 H 0.24543 0.5508 0.99605 0.0
H742 H 0.2163 0.58529 0.07514 0.0
H743 H 0.25495 0.55821 0.0454 0.0
H744 H 0.24882 0.75978 0.98813 0.0
H745 H 0.27475 0.72946 0.95602 0.0
H746 H 0.18038 0.75821 0.02195 0.0
H747 H 0.16464 0.73342 0.0585 0.0
C748 C 0.74864 0.11635 0.49306 0.0
C749 C 0.76763 0.15491 0.47917 0.0
C750 C 0.72796 0.19198 0.52709 0.0
C751 C 0.7142 0.15287 0.542 0.0
N752 N 0.72265 0.07754 0.54119 0.0
N753 N 0.7813 0.22941 0.48465 0.0
C754 C 0.72796 0.11507 0.52548 0.0
C755 C 0.75893 0.1928 0.49672 0.0
N756 N 0.74904 0.08068 0.47486 0.0
N757 N 0.71041 0.22828 0.54166 0.0
H758 H 0.80179 0.23097 0.4622 0.0
H759 H 0.78231 0.25748 0.49744 0.0
H760 H 0.68996 0.22847 0.56416 0.0
H761 H 0.71321 0.2577 0.53084 0.0
H762 H 0.72931 0.05267 0.48218 0.0
H763 H 0.76411 0.0801 0.45121 0.0
H764 H 0.73789 0.04922 0.53184 0.0
H765 H 0.70779 0.07512 0.56483 0.0
C766 C 0.24623 0.39664 0.53392 0.0
C767 C 0.26943 0.35791 0.5454 0.0
C768 C 0.23424 0.32397 0.495 0.0
C769 C 0.21508 0.36351 0.48283 0.0
N770 N 0.21424 0.4386 0.48863 0.0
N771 N 0.29229 0.28546 0.53504 0.0
C772 C 0.22421 0.4 0.50185 0.0
C773 C 0.26533 0.32173 0.52534 0.0
N774 N 0.24508 0.43071 0.55385 0.0
N775 N 0.22151 0.2885 0.47794 0.0
H776 H 0.31284 0.28263 0.55743 0.0
H777 H 0.29688 0.25915 0.52044 0.0
H778 H 0.20075 0.28954 0.45551 0.0
H779 H 0.22848 0.25824 0.48664 0.0
H780 H 0.22208 0.45824 0.54863 0.0
H781 H 0.26363 0.43054 0.57674 0.0
H782 H 0.22852 0.46639 0.49929 0.0
H783 H 0.19742 0.44265 0.46549 0.0
C784 C 0.61292 0.04135 0.09557 0.0
C785 C 0.58617 0.05269 0.12519 0.0
C786 C 0.67645 0.03148 0.15365 0.0
C787 C 0.69781 0.01267 0.125 0.0
N788 N 0.68783 0.99988 0.06836 0.0
N789 N 0.59157 0.05942 0.18263 0.0
C790 C 0.66665 0.01796 0.09576 0.0
C791 C 0.61786 0.04827 0.15434 0.0
N792 N 0.58757 0.05368 0.06728 0.0
N793 N 0.71295 0.03449 0.17977 0.0
H794 H 0.55015 0.0742 0.18354 0.0
H795 H 0.60946 0.05229 0.20506 0.0
H796 H 0.75667 0.02348 0.17961 0.0
H797 H 0.70209 0.05147 0.2003 0.0
H798 H 0.60834 0.0504 0.0451 0.0
H799 H 0.54869 0.07138 0.06622 0.0
H800 H 0.66402 0.99842 0.04693 0.0
H801 H 0.72857 0.98439 0.06764 0.0
C802 C 0.38603 0.49508 0.1613 0.0
C803 C 0.39956 0.47144 0.13354 0.0
C804 C 0.30605 0.49334 0.10865 0.0
C805 C 0.29598 0.52094 0.13492 0.0
N806 N 0.33198 0.55362 0.18365 0.0
N807 N 0.37798 0.45316 0.07843 0.0
C808 C 0.33765 0.52353 0.1605 0.0
C809 C 0.36089 0.47156 0.10662 0.0
N810 N 0.41921 0.48975 0.18856 0.0
N811 N 0.26346 0.48796 0.08551 0.0
H812 H 0.41725 0.43611 0.07588 0.0
H813 H 0.35531 0.45737 0.05683 0.0
H814 H 0.22445 0.50556 0.08447 0.0
H815 H 0.26536 0.46435 0.06825 0.0
H816 H 0.40815 0.50302 0.2106 0.0
H817 H 0.45452 0.46849 0.18983 0.0
H818 H 0.36431 0.55939 0.20106 0.0
H819 H 0.2978 0.57564 0.18379 0.0
C820 C 0.59651 0.99033 0.36031 0.0
C821 C 0.58041 0.96921 0.38886 0.0
C822 C 0.67395 0.99104 0.41402 0.0
C823 C 0.68581 0.017 0.38701 0.0
N824 N 0.65425 0.0459 0.33609 0.0
N825 N 0.59928 0.95413 0.44489 0.0
C826 C 0.64586 0.01801 0.3606 0.0
C827 C 0.61813 0.97035 0.41622 0.0
N828 N 0.56489 0.98324 0.33279 0.0
N829 N 0.71568 0.98628 0.43768 0.0
H830 H 0.55898 0.93837 0.44776 0.0
H831 H 0.62161 0.95904 0.4665 0.0
H832 H 0.75582 1.00273 0.43812 0.0
H833 H 0.71217 0.96394 0.45586 0.0
H834 H 0.57761 0.9946 0.31036 0.0
H835 H 0.52927 0.96219 0.33197 0.0
H836 H 0.62318 0.05087 0.31789 0.0
H837 H 0.68978 0.06686 0.3354 0.0
C838 C 0.35854 0.55185 0.42174 0.0
C839 C 0.39012 0.55909 0.39269 0.0
C840 C 0.30777 0.52946 0.36162 0.0
C841 C 0.28126 0.51575 0.39069 0.0
N842 N 0.27309 0.51984 0.4481 0.0
N843 N 0.3941 0.55976 0.33514 0.0
C844 C 0.30404 0.52904 0.42074 0.0
C845 C 0.36413 0.54971 0.36261 0.0
N846 N 0.38094 0.56677 0.45009 0.0
N847 N 0.27786 0.52435 0.33332 0.0
H848 H 0.43257 0.57818 0.33547 0.0
H849 H 0.38188 0.54951 0.31236 0.0
H850 H 0.2358 0.51057 0.33218 0.0
H851 H 0.29189 0.53675 0.3115 0.0
H852 H 0.36001 0.56407 0.47222 0.0
H853 H 0.42003 0.58426 0.45153 0.0
H854 H 0.28863 0.52482 0.47129 0.0
H855 H 0.23033 0.50712 0.44751 0.0
C856 C 0.32607 0.00977 0.85963 0.0
C857 C 0.29294 0.0182 0.88782 0.0
C858 C 0.3693 0.9853 0.92096 0.0
C859 C 0.40154 0.97501 0.89267 0.0
N860 N 0.4042 0.96821 0.83511 0.0
N861 N 0.27409 1.00393 0.94384 0.0
C862 C 0.37798 0.98455 0.86193 0.0
C863 C 0.31156 1.00256 0.91801 0.0
N864 N 0.30803 0.02594 0.83081 0.0
N865 N 0.39499 0.98148 0.95061 0.0
H866 H 0.23215 0.01794 0.94309 0.0
H867 H 0.28289 0.98846 0.96539 0.0
H868 H 0.43822 0.97077 0.95435 0.0
H869 H 0.37525 0.99282 0.97149 0.0
H870 H 0.33369 0.0246 0.81003 0.0
H871 H 0.26888 0.04323 0.82808 0.0
H872 H 0.38629 0.97091 0.81214 0.0
H873 H 0.44093 0.94822 0.83632 0.0
C874 C 0.66866 0.52605 0.86876 0.0
C875 C 0.69277 0.51177 0.89828 0.0
C876 C 0.61387 0.54843 0.92753 0.0
C877 C 0.58404 0.55524 0.89786 0.0
N878 N 0.58374 0.55471 0.84023 0.0
N879 N 0.69667 0.51586 0.95581 0.0
C880 C 0.61193 0.54553 0.86843 0.0
C881 C 0.66798 0.52518 0.92778 0.0
N882 N 0.70178 0.52322 0.84142 0.0
N883 N 0.59058 0.5646 0.9552 0.0
H884 H 0.73932 0.50308 0.95613 0.0
H885 H 0.67921 0.52069 0.9786 0.0
H886 H 0.55211 0.58278 0.95558 0.0
H887 H 0.61076 0.5627 0.97762 0.0
H888 H 0.68961 0.53703 0.81973 0.0
H889 H 0.74475 0.5109 0.84138 0.0
H890 H 0.59764 0.54364 0.81796 0.0
H891 H 0.54509 0.57283 0.83948 0.0
C892 C 0.30003 0.03095 0.60089 0.0
C893 C 0.28207 0.00872 0.62877 0.0
C894 C 0.36677 0.03785 0.65864 0.0
C895 C 0.38983 0.05397 0.6296 0.0
N896 N 0.37951 0.06683 0.57269 0.0
N897 N 0.29584 0.99189 0.68489 0.0
C898 C 0.35628 0.0515 0.60068 0.0
C899 C 0.31462 0.01258 0.65794 0.0
N900 N 0.26335 0.03236 0.57466 0.0
N901 N 0.39423 0.04798 0.68689 0.0
H902 H 0.25579 0.97539 0.68603 0.0
H903 H 0.32105 0.98937 0.70578 0.0
H904 H 0.43106 0.06798 0.68767 0.0
H905 H 0.37757 0.04034 0.70945 0.0
H906 H 0.2707 0.05164 0.55487 0.0
H907 H 0.22282 0.01645 0.57348 0.0
H908 H 0.36098 0.06143 0.55016 0.0
H909 H 0.41922 0.08363 0.57156 0.0
C910 C 0.61448 0.47218 0.66099 0.0
C911 C 0.58833 0.46243 0.631 0.0
C912 C 0.67698 0.48837 0.60278 0.0
C913 C 0.70175 0.49987 0.63282 0.0
N914 N 0.70498 0.48879 0.68989 0.0
N915 N 0.59749 0.45307 0.57372 0.0
C916 C 0.67366 0.48769 0.66181 0.0
C917 C 0.62067 0.46779 0.60195 0.0
N918 N 0.58232 0.46746 0.68863 0.0
N919 N 0.70712 0.49768 0.57522 0.0
H920 H 0.55637 0.43803 0.57227 0.0
H921 H 0.62008 0.45308 0.55195 0.0
H922 H 0.75052 0.50919 0.57547 0.0
H923 H 0.68956 0.49473 0.55223 0.0
H924 H 0.59638 0.47889 0.71081 0.0
H925 H 0.53988 0.45405 0.68907 0.0
H926 H 0.6893 0.47593 0.71127 0.0
H927 H 0.74943 0.49824 0.69089 0.0
C928 C 0.18295 0.53452 0.62095 0.0
C929 C 0.19139 0.49876 0.64094 0.0
C930 C 0.10159 0.51753 0.67111 0.0
C931 C 0.08881 0.54907 0.64828 0.0
N932 N 0.13316 0.60138 0.61409 0.0
N933 N 0.15421 0.45382 0.68379 0.0
C934 C 0.13422 0.56186 0.62682 0.0
C935 C 0.14952 0.48952 0.6657 0.0
N936 N 0.21915 0.54084 0.59501 0.0
N937 N 0.07079 0.51685 0.69935 0.0
H938 H 0.18977 0.43299 0.68261 0.0
H939 H 0.12038 0.44339 0.69895 0.0
H940 H 0.04021 0.54033 0.70503 0.0
H941 H 0.08136 0.49724 0.71855 0.0
H942 H 0.21106 0.56373 0.57766 0.0
H943 H 0.25355 0.5204 0.58885 0.0
H944 H 0.16745 0.6137 0.60012 0.0
H945 H 0.10251 0.62392 0.62162 0.0
C946 C 0.79783 0.97991 0.60098 0.0
C947 C 0.78252 1.00235 0.62921 0.0
C948 C 0.87014 0.97393 0.65687 0.0
C949 C 0.88989 0.95704 0.62743 0.0
N950 N 0.87479 0.94386 0.57096 0.0
N951 N 0.80286 0.02104 0.68431 0.0
C952 C 0.85389 0.9593 0.59942 0.0
C953 C 0.81821 0.99924 0.65733 0.0
N954 N 0.75903 0.97856 0.57565 0.0
N955 N 0.90097 0.96505 0.68439 0.0
H956 H 0.76339 0.03794 0.68614 0.0
H957 H 0.83041 0.02427 0.70427 0.0
H958 H 0.93881 0.946 0.6845 0.0
H959 H 0.88646 0.97309 0.70729 0.0
H960 H 0.76458 0.95916 0.55579 0.0
H961 H 0.71882 0.99488 0.57527 0.0
H962 H 0.85442 0.94912 0.54887 0.0
H963 H 0.91449 0.92716 0.56903 0.0
C964 C 0.17462 0.48245 0.92302 0.0
C965 C 0.19059 0.50428 0.89456 0.0
C966 C 0.10487 0.47364 0.86654 0.0
C967 C 0.08387 0.45771 0.89602 0.0
N968 N 0.09732 0.44644 0.95292 0.0
N969 N 0.1706 0.5219 0.8392 0.0
C970 C 0.11883 0.46128 0.92438 0.0
C971 C 0.15568 0.5001 0.86626 0.0
N972 N 0.21251 0.48223 0.94876 0.0
N973 N 0.07682 0.46226 0.83876 0.0
H974 H 0.20904 0.54003 0.83759 0.0
H975 H 0.14309 0.52418 0.81914 0.0
H976 H 0.04101 0.44132 0.83868 0.0
H977 H 0.09264 0.46961 0.81595 0.0
H978 H 0.20669 0.46324 0.96886 0.0
H979 H 0.25233 0.49907 0.9493 0.0
H980 H 0.11679 0.45271 0.97508 0.0
H981 H 0.05795 0.42933 0.95483 0.0
C982 C 0.87871 0.01825 0.92217 0.0
C983 C 0.89923 0.04286 0.89616 0.0
C984 C 0.80762 0.02799 0.86678 0.0
C985 C 0.79232 0.99812 0.89072 0.0
N986 N 0.81993 0.95818 0.93754 0.0
N987 N 0.88753 0.06734 0.84174 0.0
C988 C 0.82969 0.99133 0.91744 0.0
C989 C 0.86477 0.047 0.86787 0.0
N990 N 0.9053 0.02121 0.95155 0.0
N991 N 0.76774 0.03823 0.84326 0.0
H992 H 0.9296 0.08124 0.84183 0.0
H993 H 0.86672 0.06756 0.81937 0.0
H994 H 0.72574 0.02437 0.84153 0.0
H995 H 0.7746 0.06262 0.82699 0.0
H996 H 0.88713 0.00761 0.97209 0.0
H997 H 0.94086 0.04145 0.956 0.0
H998 H 0.84852 0.95036 0.9563 0.0
H999 H 0.78718 0.93574 0.93305 0.0
C1000 C 0.86909 0.47688 0.36318 0.0
C1001 C 0.89023 0.45858 0.39198 0.0
C1002 C 0.79816 0.47893 0.41989 0.0
C1003 C 0.78072 0.50129 0.39194 0.0
N1004 N 0.78713 0.50908 0.3346 0.0
N1005 N 0.87329 0.43645 0.44678 0.0
C1006 C 0.81262 0.49664 0.36283 0.0
C1007 C 0.85357 0.45696 0.4199 0.0
N1008 N 0.90402 0.47608 0.33633 0.0
N1009 N 0.76205 0.4795 0.44636 0.0
H1010 H 0.91423 0.42133 0.44825 0.0
H1011 H 0.84957 0.43356 0.46804 0.0
H1012 H 0.72251 0.49657 0.44741 0.0
H1013 H 0.7697 0.46287 0.46741 0.0
H1014 H 0.89576 0.49385 0.31583 0.0
H1015 H 0.94286 0.45823 0.33507 0.0
H1016 H 0.80501 0.50273 0.31209 0.0
H1017 H 0.74464 0.52211 0.33354 0.0
C1018 C 0.14519 0.99555 0.36193 0.0
C1019 C 0.18491 0.997 0.38843 0.0
C1020 C 0.11733 0.04476 0.41651 0.0
C1021 C 0.08082 0.04625 0.38865 0.0
N1022 N 0.06769 0.03169 0.33249 0.0
N1023 N 0.2137 0.02814 0.43912 0.0
C1024 C 0.09745 0.0244 0.36057 0.0
C1025 C 0.17277 0.02352 0.41505 0.0
N1026 N 0.15174 0.966 0.33848 0.0
N1027 N 0.09761 0.06102 0.44495 0.0
H1028 H 0.25324 0.0111 0.44024 0.0
H1029 H 0.21002 0.05083 0.45702 0.0
H1030 H 0.05762 0.07721 0.44736 0.0
H1031 H 0.11883 0.0556 0.46682 0.0
H1032 H 0.12055 0.96127 0.32029 0.0
H1033 H 0.18492 0.94326 0.33894 0.0
H1034 H 0.0812 0.01958 0.31044 0.0
H1035 H 0.03333 0.05363 0.33088 0.0
C1036 C 0.86296 0.5403 0.10553 0.0
C1037 C 0.90064 0.53996 0.13288 0.0
C1038 C 0.83584 0.48893 0.1593 0.0
C1039 C 0.79498 0.49231 0.13333 0.0
N1040 N 0.76549 0.52592 0.08357 0.0
N1041 N 0.91718 0.52165 0.18817 0.0
C1042 C 0.80706 0.5197 0.10712 0.0
C1043 C 0.88523 0.51655 0.16049 0.0
N1044 N 0.88191 0.55789 0.07735 0.0
N1045 N 0.82827 0.45924 0.18268 0.0
H1046 H 0.95292 0.54252 0.1898 0.0
H1047 H 0.90461 0.50876 0.21014 0.0
H1048 H 0.79194 0.43896 0.18377 0.0
H1049 H 0.86058 0.45252 0.1999 0.0
H1050 H 0.85967 0.55396 0.05559 0.0
H1051 H 0.92234 0.57362 0.07492 0.0
H1052 H 0.76903 0.54955 0.06635 0.0
H1053 H 0.72573 0.50914 0.08208 0.0
C1054 C 0.16789 0.98812 0.101 0.0
C1055 C 0.19394 1.00104 0.13033 0.0
C1056 C 0.11523 0.96537 0.16068 0.0
C1057 C 0.08841 0.95344 0.1314 0.0
N1058 N 0.09799 0.94147 0.07453 0.0
N1059 N 0.20356 0.99139 0.18749 0.0
C1060 C 0.11775 0.96091 0.10176 0.0
C1061 C 0.17097 0.98644 0.16007 0.0
N1062 N 0.19025 1.00264 0.07256 0.0
N1063 N 0.0868 0.95706 0.18894 0.0
H1064 H 0.24529 1.00574 0.18756 0.0
H1065 H 0.19206 0.97787 0.20939 0.0
H1066 H 0.04845 0.93855 0.18995 0.0
H1067 H 0.10002 0.96947 0.21096 0.0
H1068 H 0.1699 0.99773 0.05042 0.0
H1069 H 0.22765 0.02201 0.07127 0.0
H1070 H 0.11951 0.94333 0.05246 0.0
H1071 H 0.06357 0.91953 0.07485 0.0
C1072 C 0.50041 0.21531 0.17512 0.0
C1073 C 0.43916 0.22249 0.16833 0.0
C1074 C 0.4573 0.29809 0.17225 0.0
C1075 C 0.51958 0.29066 0.16973 0.0
N1076 N 0.60163 0.24236 0.17223 0.0
N1077 N 0.35734 0.27064 0.16377 0.0
C1078 C 0.54168 0.24932 0.17321 0.0
C1079 C 0.41663 0.26392 0.16886 0.0
N1080 N 0.51876 0.17547 0.18216 0.0
N1081 N 0.43768 0.33819 0.17694 0.0
H1082 H 0.32679 0.246 0.16221 0.0
H1083 H 0.33892 0.30024 0.16003 0.0
H1084 H 0.46734 0.36322 0.17982 0.0
H1085 H 0.39325 0.34589 0.18099 0.0
H1086 H 0.56192 0.16802 0.18934 0.0
H1087 H 0.4887 0.15046 0.18359 0.0
H1088 H 0.62057 0.21259 0.17074 0.0
H1089 H 0.63253 0.26684 0.1718 0.0
C1090 C 0.55846 0.76531 0.35699 0.0
C1091 C 0.53712 0.7236 0.35841 0.0
C1092 C 0.43365 0.74873 0.3552 0.0
C1093 C 0.45483 0.79048 0.35747 0.0
N1094 N 0.53504 0.83902 0.34815 0.0
N1095 N 0.45803 0.67511 0.34668 0.0
C1096 C 0.51673 0.79879 0.35382 0.0
C1097 C 0.47569 0.71532 0.35298 0.0
N1098 N 0.61788 0.77292 0.36085 0.0
N1099 N 0.37402 0.74089 0.35751 0.0
H1100 H 0.48875 0.65063 0.34471 0.0
H1101 H 0.4146 0.66686 0.34051 0.0
H1102 H 0.3425 0.76491 0.35823 0.0
H1103 H 0.35607 0.71088 0.35989 0.0
H1104 H 0.63583 0.80284 0.36383 0.0
H1105 H 0.64903 0.74867 0.36217 0.0
H1106 H 0.57902 0.84725 0.34329 0.0
H1107 H 0.50462 0.86356 0.3453 0.0
C1108 C 0.5436 0.74904 0.85746 0.0
C1109 C 0.52098 0.79066 0.85737 0.0
C1110 C 0.41834 0.76335 0.85492 0.0
C1111 C 0.44086 0.72224 0.85859 0.0
N1112 N 0.52222 0.67477 0.84991 0.0
N1113 N 0.44014 0.83645 0.84272 0.0
C1114 C 0.50282 0.71486 0.85492 0.0
C1115 C 0.45925 0.79729 0.85121 0.0
N1116 N 0.60282 0.74182 0.86247 0.0
N1117 N 0.3585 0.77022 0.85714 0.0
H1118 H 0.46986 0.8614 0.83954 0.0
H1119 H 0.39651 0.84306 0.83587 0.0
H1120 H 0.3279 0.74563 0.85892 0.0
H1121 H 0.33966 0.80004 0.85848 0.0
H1122 H 0.62028 0.71213 0.86706 0.0
H1123 H 0.6345 0.76567 0.86333 0.0
H1124 H 0.56631 0.6672 0.84473 0.0
H1125 H 0.49247 0.64967 0.8477 0.0
C1126 C 0.51773 0.29705 0.67096 0.0
C1127 C 0.45563 0.28939 0.66748 0.0
C1128 C 0.47483 0.21399 0.67226 0.0
C1129 C 0.53641 0.22157 0.66674 0.0
N1130 N 0.61824 0.27 0.66406 0.0
N1131 N 0.37368 0.24082 0.66808 0.0
C1132 C 0.55869 0.26307 0.66797 0.0
C1133 C 0.43355 0.24791 0.67006 0.0
N1134 N 0.53694 0.33716 0.67626 0.0
N1135 N 0.45628 0.17396 0.67852 0.0
H1136 H 0.34282 0.26528 0.66742 0.0
H1137 H 0.35486 0.21105 0.66597 0.0
H1138 H 0.48639 0.14907 0.68034 0.0
H1139 H 0.41273 0.16617 0.68474 0.0
H1140 H 0.58114 0.345 0.68097 0.0
H1141 H 0.50706 0.36203 0.67896 0.0
H1142 H 0.63685 0.29969 0.66093 0.0
H1143 H 0.64887 0.24542 0.66286 0.0
C1144 C 0.96885 0.79835 0.66815 0.0
C1145 C 0.03131 0.79172 0.66597 0.0
C1146 C 0.01382 0.71643 0.67355 0.0
C1147 C 0.95223 0.72221 0.66635 0.0
N1148 N 0.86995 0.76988 0.6589 0.0
N1149 N 0.11435 0.74454 0.66928 0.0
C1150 C 0.92895 0.76358 0.6652 0.0
C1151 C 0.05427 0.75082 0.67035 0.0
N1152 N 0.94818 0.83829 0.67221 0.0
N1153 N 0.03335 0.67758 0.68263 0.0
H1154 H 0.14453 0.76944 0.66799 0.0
H1155 H 0.13389 0.71491 0.66838 0.0
H1156 H 0.00412 0.6523 0.68548 0.0
H1157 H 0.07673 0.67154 0.69022 0.0
H1158 H 0.90354 0.84546 0.67619 0.0
H1159 H 0.97722 0.86371 0.67488 0.0
H1160 H 0.85193 0.79925 0.65374 0.0
H1161 H 0.83926 0.7454 0.65745 0.0
C1162 C 0.91584 0.24853 0.85832 0.0
C1163 C 0.93751 0.2902 0.85889 0.0
C1164 C 0.04074 0.26435 0.85508 0.0
C1165 C 0.01935 0.22269 0.8581 0.0
N1166 N 0.93822 0.1745 0.85048 0.0
N1167 N 0.01683 0.33807 0.84623 0.0
C1168 C 0.95717 0.21474 0.85531 0.0
C1169 C -0.00109 0.298 0.85289 0.0
N1170 N 0.85652 0.24127 0.86287 0.0
N1171 N 0.10053 0.27194 0.85667 0.0
H1172 H 0.98639 0.36278 0.84453 0.0
H1173 H 0.06009 0.34603 0.83959 0.0
H1174 H 0.13186 0.2478 0.85738 0.0
H1175 H 0.1189 0.30189 0.85848 0.0
H1176 H 0.83844 0.21153 0.86656 0.0
H1177 H 0.8256 0.26568 0.86405 0.0
H1178 H 0.89398 0.16636 0.84619 0.0
H1179 H 0.9684 0.14986 0.84769 0.0
C1180 C 0.93351 0.26749 0.35669 0.0
C1181 C 0.95489 0.2258 0.359 0.0
C1182 C 0.05843 0.2516 0.3586 0.0
C1183 C 0.03689 0.29326 0.35963 0.0
N1184 N 0.95734 0.34115 0.34759 0.0
N1185 N 0.03562 0.17777 0.34982 0.0
C1186 C 0.97534 0.30112 0.35423 0.0
C1187 C 0.01692 0.21787 0.35549 0.0
N1188 N 0.87385 0.27509 0.3591 0.0
N1189 N 0.11783 0.24424 0.36272 0.0
H1190 H 0.00546 0.15306 0.34684 0.0
H1191 H 0.0797 0.16986 0.34498 0.0
H1192 H 0.14891 0.26859 0.364 0.0
H1193 H 0.1358 0.21442 0.36605 0.0
H1194 H 0.85582 0.30505 0.36147 0.0
H1195 H 0.84243 0.25097 0.36004 0.0
H1196 H 0.91383 0.34904 0.34136 0.0
H1197 H 0.98782 0.3658 0.34535 0.0
C1198 C 0.91539 0.74834 0.1686 0.0
C1199 C 0.9367 0.79008 0.16854 0.0
C1200 C 0.04018 0.76467 0.17099 0.0
C1201 C 0.01903 0.72302 0.16729 0.0
N1202 N 0.93853 0.6742 0.17514 0.0
N1203 N 0.01569 0.83785 0.18174 0.0
C1204 C 0.95704 0.71464 0.17066 0.0
C1205 C -0.00191 0.79797 0.17433 0.0
N1206 N 0.85595 0.74109 0.16449 0.0
N1207 N 0.09979 0.77273 0.16891 0.0
H1208 H 0.9849 0.86222 0.18424 0.0
H1209 H 0.05906 0.84583 0.18822 0.0
H1210 H 0.13143 0.74888 0.16724 0.0
H1211 H 0.11765 0.80287 0.1676 0.0
H1212 H 0.83786 0.71142 0.16049 0.0
H1213 H 0.82499 0.76553 0.16408 0.0
H1214 H 0.89449 0.66587 0.17974 0.0
H1215 H 0.96878 0.64945 0.17733 0.0
loop_
_geom_bond_atom_site_label_1
_geom_bond_atom_site_label_2
_geom_bond_distance
_geom_bond_site_symmetry_2
_ccdc_geom_bond_type
Sc0 O3 2.025 . S
Sc0 O10 2.105 . S
Sc0 O13 2.105 . S
Sc0 O16 2.105 . S
Sc0 O19 2.105 . S
Sc1 O3 2.025 . S
Sc1 O11 2.105 1_545 S
Sc1 O15 2.105 . S
Sc1 O17 2.105 . S
Sc1 O21 2.105 1_545 S
Sc2 O3 2.025 . S
Sc2 O12 2.105 . S
Sc2 O14 2.105 . S
Sc2 O18 2.105 . S
Sc2 O20 2.105 . S
O3 Sc0 2.025 . S
O3 Sc1 2.025 . S
O3 Sc2 2.025 . S
C4 O10 1.268 . S
C4 O20 1.268 . S
C5 O11 1.268 1_545 S
C5 O19 1.268 . S
C6 O12 1.268 . S
C6 O21 1.268 1_545 S
C7 O13 1.268 . S
C7 O17 1.268 . S
C8 O14 1.268 . S
C8 O16 1.268 . S
C9 O15 1.268 . S
C9 O18 1.268 . S
O10 Sc0 2.105 . S
O10 C4 1.268 . S
O11 Sc1 2.105 1_565 S
O11 C5 1.268 1_565 S
O12 Sc2 2.105 . S
O12 C6 1.268 . S
O13 Sc0 2.105 . S
O13 C7 1.268 . S
O14 Sc2 2.105 . S
O14 C8 1.268 . S
O15 Sc1 2.105 . S
O15 C9 1.268 . S
O16 Sc0 2.105 . S
O16 C8 1.268 . S
O17 Sc1 2.105 . S
O17 C7 1.268 . S
O18 Sc2 2.105 . S
O18 C9 1.268 . S
O19 Sc0 2.105 . S
O19 C5 1.268 . S
O20 Sc2 2.105 . S
O20 C4 1.268 . S
O21 Sc1 2.105 1_565 S
O21 C6 1.268 1_565 S
Sc22 O25 2.025 . S
Sc22 O32 2.105 . S
Sc22 O35 2.105 . S
Sc22 O38 2.105 . S
Sc22 O41 2.105 . S
Sc23 O25 2.025 . S
Sc23 O33 2.105 . S
Sc23 O37 2.105 . S
Sc23 O39 2.105 . S
Sc23 O43 2.105 . S
Sc24 O25 2.025 . S
Sc24 O34 2.105 . S
Sc24 O36 2.105 . S
Sc24 O40 2.105 . S
Sc24 O42 2.105 . S
O25 Sc22 2.025 . S
O25 Sc23 2.025 . S
O25 Sc24 2.025 . S
C26 O32 1.268 . S
C26 O42 1.268 . S
C27 O33 1.268 . S
C27 O41 1.268 . S
C28 O34 1.268 . S
C28 O43 1.268 . S
C29 O35 1.268 . S
C29 O39 1.268 . S
C30 O36 1.268 . S
C30 O38 1.268 . S
C31 O37 1.268 . S
C31 O40 1.268 . S
O32 Sc22 2.105 . S
O32 C26 1.268 . S
O33 Sc23 2.105 . S
O33 C27 1.268 . S
O34 Sc24 2.105 . S
O34 C28 1.268 . S
O35 Sc22 2.105 . S
O35 C29 1.268 . S
O36 Sc24 2.105 . S
O36 C30 1.268 . S
O37 Sc23 2.105 . S
O37 C31 1.268 . S
O38 Sc22 2.105 . S
O38 C30 1.268 . S
O39 Sc23 2.105 . S
O39 C29 1.268 . S
O40 Sc24 2.105 . S
O40 C31 1.268 . S
O41 Sc22 2.105 . S
O41 C27 1.268 . S
O42 Sc24 2.105 . S
O42 C26 1.268 . S
O43 Sc23 2.105 . S
O43 C28 1.268 . S
Sc44 O47 2.025 . S
Sc44 O54 2.105 . S
Sc44 O57 2.105 . S
Sc44 O60 2.105 . S
Sc44 O63 2.105 . S
Sc45 O47 2.025 . S
Sc45 O55 2.105 1_565 S
Sc45 O59 2.105 . S
Sc45 O61 2.105 . S
Sc45 O65 2.105 1_565 S
Sc46 O47 2.025 . S
Sc46 O56 2.105 . S
Sc46 O58 2.105 . S
Sc46 O62 2.105 . S
Sc46 O64 2.105 . S
O47 Sc44 2.025 . S
O47 Sc45 2.025 . S
O47 Sc46 2.025 . S
C48 O54 1.268 . S
C48 O64 1.268 . S
C49 O55 1.268 1_565 S
C49 O63 1.268 . S
C50 O56 1.268 . S
C50 O65 1.268 1_565 S
C51 O57 1.268 . S
C51 O61 1.268 . S
C52 O58 1.268 . S
C52 O60 1.268 . S
C53 O59 1.268 . S
C53 O62 1.268 . S
O54 Sc44 2.105 . S
O54 C48 1.268 . S
O55 Sc45 2.105 1_545 S
O55 C49 1.268 1_545 S
O56 Sc46 2.105 . S
O56 C50 1.268 . S
O57 Sc44 2.105 . S
O57 C51 1.268 . S
O58 Sc46 2.105 . S
O58 C52 1.268 . S
O59 Sc45 2.105 . S
O59 C53 1.268 . S
O60 Sc44 2.105 . S
O60 C52 1.268 . S
O61 Sc45 2.105 . S
O61 C51 1.268 . S
O62 Sc46 2.105 . S
O62 C53 1.268 . S
O63 Sc44 2.105 . S
O63 C49 1.268 . S
O64 Sc46 2.105 . S
O64 C48 1.268 . S
O65 Sc45 2.105 1_545 S
O65 C50 1.268 1_545 S
Sc66 O69 2.025 . S
Sc66 O76 2.105 . S
Sc66 O79 2.105 . S
Sc66 O82 2.105 . S
Sc66 O85 2.105 . S
Sc67 O69 2.025 . S
Sc67 O77 2.105 . S
Sc67 O81 2.105 . S
Sc67 O83 2.105 . S
Sc67 O87 2.105 . S
Sc68 O69 2.025 . S
Sc68 O78 2.105 . S
Sc68 O80 2.105 . S
Sc68 O84 2.105 . S
Sc68 O86 2.105 . S
O69 Sc66 2.025 . S
O69 Sc67 2.025 . S
O69 Sc68 2.025 . S
C70 O76 1.268 . S
C70 O86 1.268 . S
C71 O77 1.268 . S
C71 O85 1.268 . S
C72 O78 1.268 . S
C72 O87 1.268 . S
C73 O79 1.268 . S
C73 O83 1.268 . S
C74 O80 1.268 . S
C74 O82 1.268 . S
C75 O81 1.268 . S
C75 O84 1.268 . S
O76 Sc66 2.105 . S
O76 C70 1.268 . S
O77 Sc67 2.105 . S
O77 C71 1.268 . S
O78 Sc68 2.105 . S
O78 C72 1.268 . S
O79 Sc66 2.105 . S
O79 C73 1.268 . S
O80 Sc68 2.105 . S
O80 C74 1.268 . S
O81 Sc67 2.105 . S
O81 C75 1.268 . S
O82 Sc66 2.105 . S
O82 C74 1.268 . S
O83 Sc67 2.105 . S
O83 C73 1.268 . S
O84 Sc68 2.105 . S
O84 C75 1.268 . S
O85 Sc66 2.105 . S
O85 C71 1.268 . S
O86 Sc68 2.105 . S
O86 C70 1.268 . S
O87 Sc67 2.105 . S
O87 C72 1.268 . S
Sc88 O91 2.025 . S
Sc88 O98 2.105 . S
Sc88 O101 2.105 . S
Sc88 O104 2.105 . S
Sc88 O107 2.105 . S
Sc89 O91 2.025 . S
Sc89 O99 2.105 1_565 S
Sc89 O103 2.105 . S
Sc89 O105 2.105 . S
Sc89 O109 2.105 1_565 S
Sc90 O91 2.025 . S
Sc90 O100 2.105 . S
Sc90 O102 2.105 . S
Sc90 O106 2.105 . S
Sc90 O108 2.105 . S
O91 Sc88 2.025 . S
O91 Sc89 2.025 . S
O91 Sc90 2.025 . S
C92 O98 1.268 . S
C92 O108 1.268 . S
C93 O99 1.268 1_565 S
C93 O107 1.268 . S
C94 O100 1.268 . S
C94 O109 1.268 1_565 S
C95 O101 1.268 . S
C95 O105 1.268 . S
C96 O102 1.268 . S
C96 O104 1.268 . S
C97 O103 1.268 . S
C97 O106 1.268 . S
O98 Sc88 2.105 . S
O98 C92 1.268 . S
O99 Sc89 2.105 1_545 S
O99 C93 1.268 1_545 S
O100 Sc90 2.105 . S
O100 C94 1.268 . S
O101 Sc88 2.105 . S
O101 C95 1.268 . S
O102 Sc90 2.105 . S
O102 C96 1.268 . S
O103 Sc89 2.105 . S
O103 C97 1.268 . S
O104 Sc88 2.105 . S
O104 C96 1.268 . S
O105 Sc89 2.105 . S
O105 C95 1.268 . S
O106 Sc90 2.105 . S
O106 C97 1.268 . S
O107 Sc88 2.105 . S
O107 C93 1.268 . S
O108 Sc90 2.105 . S
O108 C92 1.268 . S
O109 Sc89 2.105 1_545 S
O109 C94 1.268 1_545 S
Sc110 O113 2.025 . S
Sc110 O120 2.105 . S
Sc110 O123 2.105 . S
Sc110 O126 2.105 . S
Sc110 O129 2.105 . S
Sc111 O113 2.025 . S
Sc111 O121 2.105 . S
Sc111 O125 2.105 . S
Sc111 O127 2.105 . S
Sc111 O131 2.105 . S
Sc112 O113 2.025 . S
Sc112 O122 2.105 . S
Sc112 O124 2.105 . S
Sc112 O128 2.105 . S
Sc112 O130 2.105 . S
O113 Sc110 2.025 . S
O113 Sc111 2.025 . S
O113 Sc112 2.025 . S
C114 O120 1.268 . S
C114 O130 1.268 . S
C115 O121 1.268 . S
C115 O129 1.268 . S
C116 O122 1.268 . S
C116 O131 1.268 . S
C117 O123 1.268 . S
C117 O127 1.268 . S
C118 O124 1.268 . S
C118 O126 1.268 . S
C119 O125 1.268 . S
C119 O128 1.268 . S
O120 Sc110 2.105 . S
O120 C114 1.268 . S
O121 Sc111 2.105 . S
O121 C115 1.268 . S
O122 Sc112 2.105 . S
O122 C116 1.268 . S
O123 Sc110 2.105 . S
O123 C117 1.268 . S
O124 Sc112 2.105 . S
O124 C118 1.268 . S
O125 Sc111 2.105 . S
O125 C119 1.268 . S
O126 Sc110 2.105 . S
O126 C118 1.268 . S
O127 Sc111 2.105 . S
O127 C117 1.268 . S
O128 Sc112 2.105 . S
O128 C119 1.268 . S
O129 Sc110 2.105 . S
O129 C115 1.268 . S
O130 Sc112 2.105 . S
O130 C114 1.268 . S
O131 Sc111 2.105 . S
O131 C116 1.268 . S
Sc132 O135 2.025 . S
Sc132 O142 2.105 . S
Sc132 O145 2.105 . S
Sc132 O148 2.105 . S
Sc132 O151 2.105 . S
Sc133 O135 2.025 . S
Sc133 O143 2.105 1_545 S
Sc133 O147 2.105 . S
Sc133 O149 2.105 . S
Sc133 O153 2.105 1_545 S
Sc134 O135 2.025 . S
Sc134 O144 2.105 . S
Sc134 O146 2.105 . S
Sc134 O150 2.105 . S
Sc134 O152 2.105 . S
O135 Sc132 2.025 . S
O135 Sc133 2.025 . S
O135 Sc134 2.025 . S
C136 O142 1.268 . S
C136 O152 1.268 . S
C137 O143 1.268 1_545 S
C137 O151 1.268 . S
C138 O144 1.268 . S
C138 O153 1.268 1_545 S
C139 O145 1.268 . S
C139 O149 1.268 . S
C140 O146 1.268 . S
C140 O148 1.268 . S
C141 O147 1.268 . S
C141 O150 1.268 . S
O142 Sc132 2.105 . S
O142 C136 1.268 . S
O143 Sc133 2.105 1_565 S
O143 C137 1.268 1_565 S
O144 Sc134 2.105 . S
O144 C138 1.268 . S
O145 Sc132 2.105 . S
O145 C139 1.268 . S
O146 Sc134 2.105 . S
O146 C140 1.268 . S
O147 Sc133 2.105 . S
O147 C141 1.268 . S
O148 Sc132 2.105 . S
O148 C140 1.268 . S
O149 Sc133 2.105 . S
O149 C139 1.268 . S
O150 Sc134 2.105 . S
O150 C141 1.268 . S
O151 Sc132 2.105 . S
O151 C137 1.268 . S
O152 Sc134 2.105 . S
O152 C136 1.268 . S
O153 Sc133 2.105 1_565 S
O153 C138 1.268 1_565 S
Sc154 O157 2.025 . S
Sc154 O164 2.105 . S
Sc154 O167 2.105 . S
Sc154 O170 2.105 . S
Sc154 O173 2.105 . S
Sc155 O157 2.025 . S
Sc155 O165 2.105 . S
Sc155 O169 2.105 . S
Sc155 O171 2.105 . S
Sc155 O175 2.105 . S
Sc156 O157 2.025 . S
Sc156 O166 2.105 . S
Sc156 O168 2.105 . S
Sc156 O172 2.105 . S
Sc156 O174 2.105 . S
O157 Sc154 2.025 . S
O157 Sc155 2.025 . S
O157 Sc156 2.025 . S
C158 O164 1.268 . S
C158 O174 1.268 . S
C159 O165 1.268 . S
C159 O173 1.268 . S
C160 O166 1.268 . S
C160 O175 1.268 . S
C161 O167 1.268 . S
C161 O171 1.268 . S
C162 O168 1.268 . S
C162 O170 1.268 . S
C163 O169 1.268 . S
C163 O172 1.268 . S
O164 Sc154 2.105 . S
O164 C158 1.268 . S
O165 Sc155 2.105 . S
O165 C159 1.268 . S
O166 Sc156 2.105 . S
O166 C160 1.268 . S
O167 Sc154 2.105 . S
O167 C161 1.268 . S
O168 Sc156 2.105 . S
O168 C162 1.268 . S
O169 Sc155 2.105 . S
O169 C163 1.268 . S
O170 Sc154 2.105 . S
O170 C162 1.268 . S
O171 Sc155 2.105 . S
O171 C161 1.268 . S
O172 Sc156 2.105 . S
O172 C163 1.268 . S
O173 Sc154 2.105 . S
O173 C159 1.268 . S
O174 Sc156 2.105 . S
O174 C158 1.268 . S
O175 Sc155 2.105 . S
O175 C160 1.268 . S
Sc176 O179 2.025 . S
Sc176 O186 2.105 . S
Sc176 O189 2.105 . S
Sc176 O192 2.105 . S
Sc176 O195 2.105 . S
Sc177 O179 2.025 . S
Sc177 O187 2.105 . S
Sc177 O191 2.105 1_655 S
Sc177 O193 2.105 . S
Sc177 O197 2.105 . S
Sc178 O179 2.025 . S
Sc178 O188 2.105 . S
Sc178 O190 2.105 . S
Sc178 O194 2.105 1_655 S
Sc178 O196 2.105 . S
O179 Sc176 2.025 . S
O179 Sc177 2.025 . S
O179 Sc178 2.025 . S
C180 O186 1.268 . S
C180 O196 1.268 . S
C181 O187 1.268 . S
C181 O195 1.268 . S
C182 O188 1.268 . S
C182 O197 1.268 . S
C183 O189 1.268 . S
C183 O193 1.268 . S
C184 O190 1.268 . S
C184 O192 1.268 . S
C185 O191 1.268 . S
C185 O194 1.268 . S
O186 Sc176 2.105 . S
O186 C180 1.268 . S
O187 Sc177 2.105 . S
O187 C181 1.268 . S
O188 Sc178 2.105 . S
O188 C182 1.268 . S
O189 Sc176 2.105 . S
O189 C183 1.268 . S
O190 Sc178 2.105 . S
O190 C184 1.268 . S
O191 Sc177 2.105 1_455 S
O191 C185 1.268 . S
O192 Sc176 2.105 . S
O192 C184 1.268 . S
O193 Sc177 2.105 . S
O193 C183 1.268 . S
O194 Sc178 2.105 1_455 S
O194 C185 1.268 . S
O195 Sc176 2.105 . S
O195 C181 1.268 . S
O196 Sc178 2.105 . S
O196 C180 1.268 . S
O197 Sc177 2.105 . S
O197 C182 1.268 . S
Sc198 O201 2.025 . S
Sc198 O208 2.105 . S
Sc198 O211 2.105 . S
Sc198 O214 2.105 . S
Sc198 O217 2.105 . S
Sc199 O201 2.025 . S
Sc199 O209 2.105 1_565 S
Sc199 O213 2.105 1_455 S
Sc199 O215 2.105 . S
Sc199 O219 2.105 1_565 S
Sc200 O201 2.025 . S
Sc200 O210 2.105 . S
Sc200 O212 2.105 . S
Sc200 O216 2.105 1_455 S
Sc200 O218 2.105 . S
O201 Sc198 2.025 . S
O201 Sc199 2.025 . S
O201 Sc200 2.025 . S
C202 O208 1.268 . S
C202 O218 1.268 . S
C203 O209 1.268 1_565 S
C203 O217 1.268 . S
C204 O210 1.268 . S
C204 O219 1.268 1_565 S
C205 O211 1.268 . S
C205 O215 1.268 . S
C206 O212 1.268 . S
C206 O214 1.268 . S
C207 O213 1.268 . S
C207 O216 1.268 . S
O208 Sc198 2.105 . S
O208 C202 1.268 . S
O209 Sc199 2.105 1_545 S
O209 C203 1.268 1_545 S
O210 Sc200 2.105 . S
O210 C204 1.268 . S
O211 Sc198 2.105 . S
O211 C205 1.268 . S
O212 Sc200 2.105 . S
O212 C206 1.268 . S
O213 Sc199 2.105 1_655 S
O213 C207 1.268 . S
O214 Sc198 2.105 . S
O214 C206 1.268 . S
O215 Sc199 2.105 . S
O215 C205 1.268 . S
O216 Sc200 2.105 1_655 S
O216 C207 1.268 . S
O217 Sc198 2.105 . S
O217 C203 1.268 . S
O218 Sc200 2.105 . S
O218 C202 1.268 . S
O219 Sc199 2.105 1_545 S
O219 C204 1.268 1_545 S
Sc220 O223 2.025 . S
Sc220 O230 2.105 . S
Sc220 O233 2.105 . S
Sc220 O236 2.105 . S
Sc220 O239 2.105 . S
Sc221 O223 2.025 . S
Sc221 O231 2.105 . S
Sc221 O235 2.105 1_655 S
Sc221 O237 2.105 . S
Sc221 O241 2.105 . S
Sc222 O223 2.025 . S
Sc222 O232 2.105 . S
Sc222 O234 2.105 . S
Sc222 O238 2.105 1_655 S
Sc222 O240 2.105 . S
O223 Sc220 2.025 . S
O223 Sc221 2.025 . S
O223 Sc222 2.025 . S
C224 O230 1.268 . S
C224 O240 1.268 . S
C225 O231 1.268 . S
C225 O239 1.268 . S
C226 O232 1.268 . S
C226 O241 1.268 . S
C227 O233 1.268 . S
C227 O237 1.268 . S
C228 O234 1.268 . S
C228 O236 1.268 . S
C229 O235 1.268 . S
C229 O238 1.268 . S
O230 Sc220 2.105 . S
O230 C224 1.268 . S
O231 Sc221 2.105 . S
O231 C225 1.268 . S
O232 Sc222 2.105 . S
O232 C226 1.268 . S
O233 Sc220 2.105 . S
O233 C227 1.268 . S
O234 Sc222 2.105 . S
O234 C228 1.268 . S
O235 Sc221 2.105 1_455 S
O235 C229 1.268 . S
O236 Sc220 2.105 . S
O236 C228 1.268 . S
O237 Sc221 2.105 . S
O237 C227 1.268 . S
O238 Sc222 2.105 1_455 S
O238 C229 1.268 . S
O239 Sc220 2.105 . S
O239 C225 1.268 . S
O240 Sc222 2.105 . S
O240 C224 1.268 . S
O241 Sc221 2.105 . S
O241 C226 1.268 . S
Sc242 O245 2.025 . S
Sc242 O252 2.105 . S
Sc242 O255 2.105 . S
Sc242 O258 2.105 . S
Sc242 O261 2.105 1_455 S
Sc243 O245 2.025 . S
Sc243 O253 2.105 1_455 S
Sc243 O257 2.105 1_545 S
Sc243 O259 2.105 1_545 S
Sc243 O263 2.105 . S
Sc244 O245 2.025 . S
Sc244 O254 2.105 . S
Sc244 O256 2.105 . S
Sc244 O260 2.105 . S
Sc244 O262 2.105 . S
O245 Sc242 2.025 . S
O245 Sc243 2.025 . S
O245 Sc244 2.025 . S
C246 O252 1.268 . S
C246 O262 1.268 . S
C247 O253 1.268 . S
C247 O261 1.268 . S
C248 O254 1.268 . S
C248 O263 1.268 . S
C249 O255 1.268 . S
C249 O259 1.268 1_545 S
C250 O256 1.268 . S
C250 O258 1.268 . S
C251 O257 1.268 1_545 S
C251 O260 1.268 . S
O252 Sc242 2.105 . S
O252 C246 1.268 . S
O253 Sc243 2.105 1_655 S
O253 C247 1.268 . S
O254 Sc244 2.105 . S
O254 C248 1.268 . S
O255 Sc242 2.105 . S
O255 C249 1.268 . S
O256 Sc244 2.105 . S
O256 C250 1.268 . S
O257 Sc243 2.105 1_565 S
O257 C251 1.268 1_565 S
O258 Sc242 2.105 . S
O258 C250 1.268 . S
O259 Sc243 2.105 1_565 S
O259 C249 1.268 1_565 S
O260 Sc244 2.105 . S
O260 C251 1.268 . S
O261 Sc242 2.105 1_655 S
O261 C247 1.268 . S
O262 Sc244 2.105 . S
O262 C246 1.268 . S
O263 Sc243 2.105 . S
O263 C248 1.268 . S
Sc264 O267 2.025 . S
Sc264 O274 2.105 . S
Sc264 O277 2.105 1_455 S
Sc264 O280 2.105 . S
Sc264 O283 2.105 . S
Sc265 O267 2.025 . S
Sc265 O275 2.105 . S
Sc265 O279 2.105 . S
Sc265 O281 2.105 1_455 S
Sc265 O285 2.105 . S
Sc266 O267 2.025 . S
Sc266 O276 2.105 . S
Sc266 O278 2.105 . S
Sc266 O282 2.105 . S
Sc266 O284 2.105 . S
O267 Sc264 2.025 . S
O267 Sc265 2.025 . S
O267 Sc266 2.025 . S
C268 O274 1.268 . S
C268 O284 1.268 . S
C269 O275 1.268 . S
C269 O283 1.268 . S
C270 O276 1.268 . S
C270 O285 1.268 . S
C271 O277 1.268 . S
C271 O281 1.268 . S
C272 O278 1.268 . S
C272 O280 1.268 . S
C273 O279 1.268 . S
C273 O282 1.268 . S
O274 Sc264 2.105 . S
O274 C268 1.268 . S
O275 Sc265 2.105 . S
O275 C269 1.268 . S
O276 Sc266 2.105 . S
O276 C270 1.268 . S
O277 Sc264 2.105 1_655 S
O277 C271 1.268 . S
O278 Sc266 2.105 . S
O278 C272 1.268 . S
O279 Sc265 2.105 . S
O279 C273 1.268 . S
O280 Sc264 2.105 . S
O280 C272 1.268 . S
O281 Sc265 2.105 1_655 S
O281 C271 1.268 . S
O282 Sc266 2.105 . S
O282 C273 1.268 . S
O283 Sc264 2.105 . S
O283 C269 1.268 . S
O284 Sc266 2.105 . S
O284 C268 1.268 . S
O285 Sc265 2.105 . S
O285 C270 1.268 . S
Sc286 O289 2.025 . S
Sc286 O296 2.105 . S
Sc286 O299 2.105 . S
Sc286 O302 2.105 . S
Sc286 O305 2.105 . S
Sc287 O289 2.025 . S
Sc287 O297 2.105 . S
Sc287 O301 2.105 1_545 S
Sc287 O303 2.105 1_545 S
Sc287 O307 2.105 1_655 S
Sc288 O289 2.025 . S
Sc288 O298 2.105 1_655 S
Sc288 O300 2.105 . S
Sc288 O304 2.105 . S
Sc288 O306 2.105 . S
O289 Sc286 2.025 . S
O289 Sc287 2.025 . S
O289 Sc288 2.025 . S
C290 O296 1.268 . S
C290 O306 1.268 . S
C291 O297 1.268 . S
C291 O305 1.268 . S
C292 O298 1.268 . S
C292 O307 1.268 . S
C293 O299 1.268 . S
C293 O303 1.268 1_545 S
C294 O300 1.268 . S
C294 O302 1.268 . S
C295 O301 1.268 1_545 S
C295 O304 1.268 . S
O296 Sc286 2.105 . S
O296 C290 1.268 . S
O297 Sc287 2.105 . S
O297 C291 1.268 . S
O298 Sc288 2.105 1_455 S
O298 C292 1.268 . S
O299 Sc286 2.105 . S
O299 C293 1.268 . S
O300 Sc288 2.105 . S
O300 C294 1.268 . S
O301 Sc287 2.105 1_565 S
O301 C295 1.268 1_565 S
O302 Sc286 2.105 . S
O302 C294 1.268 . S
O303 Sc287 2.105 1_565 S
O303 C293 1.268 1_565 S
O304 Sc288 2.105 . S
O304 C295 1.268 . S
O305 Sc286 2.105 . S
O305 C291 1.268 . S
O306 Sc288 2.105 . S
O306 C290 1.268 . S
O307 Sc287 2.105 1_455 S
O307 C292 1.268 . S
Sc308 O311 2.025 . S
Sc308 O318 2.105 . S
Sc308 O321 2.105 1_455 S
Sc308 O324 2.105 . S
Sc308 O327 2.105 . S
Sc309 O311 2.025 . S
Sc309 O319 2.105 . S
Sc309 O323 2.105 . S
Sc309 O325 2.105 1_455 S
Sc309 O329 2.105 . S
Sc310 O311 2.025 . S
Sc310 O320 2.105 . S
Sc310 O322 2.105 . S
Sc310 O326 2.105 . S
Sc310 O328 2.105 . S
O311 Sc308 2.025 . S
O311 Sc309 2.025 . S
O311 Sc310 2.025 . S
C312 O318 1.268 . S
C312 O328 1.268 . S
C313 O319 1.268 . S
C313 O327 1.268 . S
C314 O320 1.268 . S
C314 O329 1.268 . S
C315 O321 1.268 . S
C315 O325 1.268 . S
C316 O322 1.268 . S
C316 O324 1.268 . S
C317 O323 1.268 . S
C317 O326 1.268 . S
O318 Sc308 2.105 . S
O318 C312 1.268 . S
O319 Sc309 2.105 . S
O319 C313 1.268 . S
O320 Sc310 2.105 . S
O320 C314 1.268 . S
O321 Sc308 2.105 1_655 S
O321 C315 1.268 . S
O322 Sc310 2.105 . S
O322 C316 1.268 . S
O323 Sc309 2.105 . S
O323 C317 1.268 . S
O324 Sc308 2.105 . S
O324 C316 1.268 . S
O325 Sc309 2.105 1_655 S
O325 C315 1.268 . S
O326 Sc310 2.105 . S
O326 C317 1.268 . S
O327 Sc308 2.105 . S
O327 C313 1.268 . S
O328 Sc310 2.105 . S
O328 C312 1.268 . S
O329 Sc309 2.105 . S
O329 C314 1.268 . S
Sc330 O333 2.025 . S
Sc330 O340 2.105 . S
Sc330 O343 2.105 1_655 S
Sc330 O346 2.105 . S
Sc330 O349 2.105 . S
Sc331 O333 2.025 . S
Sc331 O341 2.105 1_565 S
Sc331 O345 2.105 . S
Sc331 O347 2.105 1_655 S
Sc331 O351 2.105 1_565 S
Sc332 O333 2.025 . S
Sc332 O342 2.105 . S
Sc332 O344 2.105 . S
Sc332 O348 2.105 . S
Sc332 O350 2.105 . S
O333 Sc330 2.025 . S
O333 Sc331 2.025 . S
O333 Sc332 2.025 . S
C334 O340 1.268 . S
C334 O350 1.268 . S
C335 O341 1.268 1_565 S
C335 O349 1.268 . S
C336 O342 1.268 . S
C336 O351 1.268 1_565 S
C337 O343 1.268 . S
C337 O347 1.268 . S
C338 O344 1.268 . S
C338 O346 1.268 . S
C339 O345 1.268 . S
C339 O348 1.268 . S
O340 Sc330 2.105 . S
O340 C334 1.268 . S
O341 Sc331 2.105 1_545 S
O341 C335 1.268 1_545 S
O342 Sc332 2.105 . S
O342 C336 1.268 . S
O343 Sc330 2.105 1_455 S
O343 C337 1.268 . S
O344 Sc332 2.105 . S
O344 C338 1.268 . S
O345 Sc331 2.105 . S
O345 C339 1.268 . S
O346 Sc330 2.105 . S
O346 C338 1.268 . S
O347 Sc331 2.105 1_455 S
O347 C337 1.268 . S
O348 Sc332 2.105 . S
O348 C339 1.268 . S
O349 Sc330 2.105 . S
O349 C335 1.268 . S
O350 Sc332 2.105 . S
O350 C334 1.268 . S
O351 Sc331 2.105 1_545 S
O351 C336 1.268 1_545 S
C352 C353 1.363 1_545 S
C352 C358 1.379 1_554 S
C352 N360 1.356 . S
C353 C352 1.363 1_565 S
C353 C359 1.363 . S
C354 C355 1.363 1_565 S
C354 C359 1.379 1_556 S
C354 N361 1.356 . S
C355 C354 1.363 1_545 S
C355 C358 1.363 . S
N356 C358 1.356 . S
N356 H368 0.984 . S
N356 H369 0.985 . S
N357 C359 1.356 . S
N357 H362 0.984 . S
N357 H363 0.985 . S
C358 C352 1.379 1_556 S
C358 C355 1.363 . S
C358 N356 1.356 . S
C359 C353 1.363 . S
C359 C354 1.379 1_554 S
C359 N357 1.356 . S
N360 C352 1.356 . S
N360 H366 0.984 . S
N360 H367 0.984 . S
N361 C354 1.356 . S
N361 H364 0.984 . S
N361 H365 0.985 . S
H362 N357 0.984 . S
H363 N357 0.985 . S
H364 N361 0.984 . S
H365 N361 0.985 . S
H366 N360 0.984 . S
H367 N360 0.984 . S
H368 N356 0.984 . S
H369 N356 0.985 . S
C370 C371 1.363 . S
C370 C376 1.379 1_554 S
C370 N378 1.356 . S
C371 C370 1.363 . S
C371 C377 1.363 . S
C372 C373 1.363 . S
C372 C377 1.379 1_556 S
C372 N379 1.356 . S
C373 C372 1.363 . S
C373 C376 1.363 . S
N374 C376 1.356 . S
N374 H386 0.984 . S
N374 H387 0.985 . S
N375 C377 1.356 . S
N375 H380 0.984 . S
N375 H381 0.985 . S
C376 C370 1.379 1_556 S
C376 C373 1.363 . S
C376 N374 1.356 . S
C377 C371 1.363 . S
C377 C372 1.379 1_554 S
C377 N375 1.356 . S
N378 C370 1.356 . S
N378 H384 0.984 . S
N378 H385 0.984 . S
N379 C372 1.356 . S
N379 H382 0.984 . S
N379 H383 0.985 . S
H380 N375 0.984 . S
H381 N375 0.985 . S
H382 N379 0.984 . S
H383 N379 0.985 . S
H384 N378 0.984 . S
H385 N378 0.984 . S
H386 N374 0.984 . S
H387 N374 0.985 . S
C388 C389 1.363 . S
C388 C394 1.379 . S
C388 N396 1.356 . S
C389 C388 1.363 . S
C389 C395 1.363 1_545 S
C390 C391 1.363 . S
C390 C395 1.379 . S
C390 N397 1.356 . S
C391 C390 1.363 . S
C391 C394 1.363 1_565 S
N392 C394 1.356 . S
N392 H404 0.984 . S
N392 H405 0.985 . S
N393 C395 1.356 . S
N393 H398 0.984 . S
N393 H399 0.985 . S
C394 C388 1.379 . S
C394 C391 1.363 1_545 S
C394 N392 1.356 . S
C395 C389 1.363 1_565 S
C395 C390 1.379 . S
C395 N393 1.356 . S
N396 C388 1.356 . S
N396 H402 0.984 . S
N396 H403 0.984 . S
N397 C390 1.356 . S
N397 H400 0.984 . S
N397 H401 0.985 . S
H398 N393 0.984 . S
H399 N393 0.985 . S
H400 N397 0.984 . S
H401 N397 0.985 . S
H402 N396 0.984 . S
H403 N396 0.984 . S
H404 N392 0.984 . S
H405 N392 0.985 . S
C406 C407 1.363 . S
C406 C412 1.379 . S
C406 N414 1.356 . S
C407 C406 1.363 . S
C407 C413 1.363 . S
C408 C409 1.363 . S
C408 C413 1.379 . S
C408 N415 1.356 . S
C409 C408 1.363 . S
C409 C412 1.363 . S
N410 C412 1.356 . S
N410 H422 0.984 . S
N410 H423 0.985 . S
N411 C413 1.356 . S
N411 H416 0.984 . S
N411 H417 0.985 . S
C412 C406 1.379 . S
C412 C409 1.363 . S
C412 N410 1.356 . S
C413 C407 1.363 . S
C413 C408 1.379 . S
C413 N411 1.356 . S
N414 C406 1.356 . S
N414 H420 0.984 . S
N414 H421 0.984 . S
N415 C408 1.356 . S
N415 H418 0.984 . S
N415 H419 0.985 . S
H416 N411 0.984 . S
H417 N411 0.985 . S
H418 N415 0.984 . S
H419 N415 0.985 . S
H420 N414 0.984 . S
H421 N414 0.984 . S
H422 N410 0.984 . S
H423 N410 0.985 . S
C424 C425 1.363 1_455 S
C424 C430 1.379 . S
C424 N432 1.356 1_455 S
C425 C424 1.363 1_655 S
C425 C431 1.363 . S
C426 C427 1.363 1_655 S
C426 C431 1.379 . S
C426 N433 1.356 1_655 S
C427 C426 1.363 1_455 S
C427 C430 1.363 . S
N428 C430 1.356 . S
N428 H440 0.984 . S
N428 H441 0.985 . S
N429 C431 1.356 . S
N429 H434 0.984 . S
N429 H435 0.985 . S
C430 C424 1.379 . S
C430 C427 1.363 . S
C430 N428 1.356 . S
C431 C425 1.363 . S
C431 C426 1.379 . S
C431 N429 1.356 . S
N432 C424 1.356 1_655 S
N432 H438 0.984 1_655 S
N432 H439 0.984 . S
N433 C426 1.356 1_455 S
N433 H436 0.984 . S
N433 H437 0.985 1_455 S
H434 N429 0.984 . S
H435 N429 0.985 . S
H436 N433 0.984 . S
H437 N433 0.985 1_655 S
H438 N432 0.984 1_455 S
H439 N432 0.984 . S
H440 N428 0.984 . S
H441 N428 0.985 . S
C442 C443 1.363 1_565 S
C442 C448 1.379 . S
C442 N450 1.356 . S
C443 C442 1.363 1_545 S
C443 C449 1.363 1_455 S
C444 C445 1.363 1_545 S
C444 C449 1.379 . S
C444 N451 1.356 . S
C445 C444 1.363 1_565 S
C445 C448 1.363 1_655 S
N446 C448 1.356 . S
N446 H458 0.984 . S
N446 H459 0.985 1_455 S
N447 C449 1.356 . S
N447 H452 0.984 1_655 S
N447 H453 0.985 . S
C448 C442 1.379 . S
C448 C445 1.363 1_455 S
C448 N446 1.356 . S
C449 C443 1.363 1_655 S
C449 C444 1.379 . S
C449 N447 1.356 . S
N450 C442 1.356 . S
N450 H456 0.984 . S
N450 H457 0.984 . S
N451 C444 1.356 . S
N451 H454 0.984 . S
N451 H455 0.985 . S
H452 N447 0.984 1_455 S
H453 N447 0.985 . S
H454 N451 0.984 . S
H455 N451 0.985 . S
H456 N450 0.984 . S
H457 N450 0.984 . S
H458 N446 0.984 . S
H459 N446 0.985 1_655 S
C460 C461 1.363 . S
C460 C466 1.379 1_556 S
C460 N468 1.356 . S
C461 C460 1.363 . S
C461 C467 1.363 1_655 S
C462 C463 1.363 . S
C462 C467 1.379 1_554 S
C462 N469 1.356 . S
C463 C462 1.363 . S
C463 C466 1.363 1_455 S
N464 C466 1.356 . S
N464 H476 0.984 . S
N464 H477 0.985 1_655 S
N465 C467 1.356 . S
N465 H470 0.984 1_455 S
N465 H471 0.985 . S
C466 C460 1.379 1_554 S
C466 C463 1.363 1_655 S
C466 N464 1.356 . S
C467 C461 1.363 1_455 S
C467 C462 1.379 1_556 S
C467 N465 1.356 . S
N468 C460 1.356 . S
N468 H474 0.984 . S
N468 H475 0.984 . S
N469 C462 1.356 . S
N469 H472 0.984 . S
N469 H473 0.985 . S
H470 N465 0.984 1_655 S
H471 N465 0.985 . S
H472 N469 0.984 . S
H473 N469 0.985 . S
H474 N468 0.984 . S
H475 N468 0.984 . S
H476 N464 0.984 . S
H477 N464 0.985 1_455 S
C478 C479 1.363 1_545 S
C478 C484 1.379 1_556 S
C478 N486 1.356 . S
C479 C478 1.363 1_565 S
C479 C485 1.363 1_455 S
C480 C481 1.363 1_565 S
C480 C485 1.379 1_554 S
C480 N487 1.356 . S
C481 C480 1.363 1_545 S
C481 C484 1.363 1_655 S
N482 C484 1.356 . S
N482 H494 0.984 . S
N482 H495 0.985 1_455 S
N483 C485 1.356 . S
N483 H488 0.984 1_655 S
N483 H489 0.985 . S
C484 C478 1.379 1_554 S
C484 C481 1.363 1_455 S
C484 N482 1.356 . S
C485 C479 1.363 1_655 S
C485 C480 1.379 1_556 S
C485 N483 1.356 . S
N486 C478 1.356 . S
N486 H492 0.984 . S
N486 H493 0.984 . S
N487 C480 1.356 . S
N487 H490 0.984 . S
N487 H491 0.985 . S
H488 N483 0.984 1_455 S
H489 N483 0.985 . S
H490 N487 0.984 . S
H491 N487 0.985 . S
H492 N486 0.984 . S
H493 N486 0.984 . S
H494 N482 0.984 . S
H495 N482 0.985 1_655 S
C496 C497 1.363 1_565 S
C496 C502 1.379 . S
C496 N504 1.356 1_565 S
C497 C496 1.363 1_545 S
C497 C503 1.363 . S
C498 C499 1.363 1_545 S
C498 C503 1.379 . S
C498 N505 1.356 1_545 S
C499 C498 1.363 1_565 S
C499 C502 1.363 . S
N500 C502 1.356 . S
N500 H512 0.984 . S
N500 H513 0.985 . S
N501 C503 1.356 . S
N501 H506 0.984 . S
N501 H507 0.985 . S
C502 C496 1.379 . S
C502 C499 1.363 . S
C502 N500 1.356 . S
C503 C497 1.363 . S
C503 C498 1.379 . S
C503 N501 1.356 . S
N504 C496 1.356 1_545 S
N504 H510 0.984 1_545 S
N504 H511 0.984 . S
N505 C498 1.356 1_565 S
N505 H508 0.984 . S
N505 H509 0.985 1_565 S
H506 N501 0.984 . S
H507 N501 0.985 . S
H508 N505 0.984 . S
H509 N505 0.985 1_545 S
H510 N504 0.984 1_565 S
H511 N504 0.984 . S
H512 N500 0.984 . S
H513 N500 0.985 . S
C514 C515 1.363 . S
C514 C520 1.379 . S
C514 N522 1.356 . S
C515 C514 1.363 . S
C515 C521 1.363 . S
C516 C517 1.363 . S
C516 C521 1.379 . S
C516 N523 1.356 . S
C517 C516 1.363 . S
C517 C520 1.363 . S
N518 C520 1.356 . S
N518 H530 0.984 . S
N518 H531 0.985 . S
N519 C521 1.356 . S
N519 H524 0.984 . S
N519 H525 0.985 . S
C520 C514 1.379 . S
C520 C517 1.363 . S
C520 N518 1.356 . S
C521 C515 1.363 . S
C521 C516 1.379 . S
C521 N519 1.356 . S
N522 C514 1.356 . S
N522 H528 0.984 . S
N522 H529 0.984 . S
N523 C516 1.356 . S
N523 H526 0.984 . S
N523 H527 0.985 . S
H524 N519 0.984 . S
H525 N519 0.985 . S
H526 N523 0.984 . S
H527 N523 0.985 . S
H528 N522 0.984 . S
H529 N522 0.984 . S
H530 N518 0.984 . S
H531 N518 0.985 . S
C532 C533 1.363 . S
C532 C538 1.379 1_565 S
C532 N540 1.356 . S
C533 C532 1.363 . S
C533 C539 1.363 . S
C534 C535 1.363 . S
C534 C539 1.379 1_545 S
C534 N541 1.356 . S
C535 C534 1.363 . S
C535 C538 1.363 . S
N536 C538 1.356 . S
N536 H548 0.984 . S
N536 H549 0.985 . S
N537 C539 1.356 . S
N537 H542 0.984 . S
N537 H543 0.985 . S
C538 C532 1.379 1_545 S
C538 C535 1.363 . S
C538 N536 1.356 . S
C539 C533 1.363 . S
C539 C534 1.379 1_565 S
C539 N537 1.356 . S
N540 C532 1.356 . S
N540 H546 0.984 . S
N540 H547 0.984 . S
N541 C534 1.356 . S
N541 H544 0.984 . S
N541 H545 0.985 . S
H542 N537 0.984 . S
H543 N537 0.985 . S
H544 N541 0.984 . S
H545 N541 0.985 . S
H546 N540 0.984 . S
H547 N540 0.984 . S
H548 N536 0.984 . S
H549 N536 0.985 . S
C550 C551 1.363 . S
C550 C556 1.379 . S
C550 N558 1.356 . S
C551 C550 1.363 . S
C551 C557 1.363 . S
C552 C553 1.363 . S
C552 C557 1.379 . S
C552 N559 1.356 . S
C553 C552 1.363 . S
C553 C556 1.363 . S
N554 C556 1.356 . S
N554 H566 0.984 . S
N554 H567 0.985 . S
N555 C557 1.356 . S
N555 H560 0.984 . S
N555 H561 0.985 . S
C556 C550 1.379 . S
C556 C553 1.363 . S
C556 N554 1.356 . S
C557 C551 1.363 . S
C557 C552 1.379 . S
C557 N555 1.356 . S
N558 C550 1.356 . S
N558 H564 0.984 . S
N558 H565 0.984 . S
N559 C552 1.356 . S
N559 H562 0.984 . S
N559 H563 0.985 . S
H560 N555 0.984 . S
H561 N555 0.985 . S
H562 N559 0.984 . S
H563 N559 0.985 . S
H564 N558 0.984 . S
H565 N558 0.984 . S
H566 N554 0.984 . S
H567 N554 0.985 . S
C568 C569 1.363 . S
C568 C574 1.379 . S
C568 N576 1.356 . S
C569 C568 1.363 . S
C569 C575 1.363 . S
C570 C571 1.363 . S
C570 C575 1.379 . S
C570 N577 1.356 . S
C571 C570 1.363 . S
C571 C574 1.363 . S
N572 C574 1.356 . S
N572 H584 0.984 . S
N572 H585 0.985 . S
N573 C575 1.356 . S
N573 H578 0.984 . S
N573 H579 0.985 1_655 S
C574 C568 1.379 . S
C574 C571 1.363 . S
C574 N572 1.356 . S
C575 C569 1.363 . S
C575 C570 1.379 . S
C575 N573 1.356 . S
N576 C568 1.356 . S
N576 H582 0.984 . S
N576 H583 0.984 . S
N577 C570 1.356 . S
N577 H580 0.984 . S
N577 H581 0.985 1_655 S
H578 N573 0.984 . S
H579 N573 0.985 1_455 S
H580 N577 0.984 . S
H581 N577 0.985 1_455 S
H582 N576 0.984 . S
H583 N576 0.984 . S
H584 N572 0.984 . S
H585 N572 0.985 . S
C586 C587 1.363 1_565 S
C586 C592 1.379 . S
C586 N594 1.356 . S
C587 C586 1.363 1_545 S
C587 C593 1.363 . S
C588 C589 1.363 1_545 S
C588 C593 1.379 . S
C588 N595 1.356 . S
C589 C588 1.363 1_565 S
C589 C592 1.363 . S
N590 C592 1.356 . S
N590 H602 0.984 . S
N590 H603 0.985 . S
N591 C593 1.356 . S
N591 H596 0.984 . S
N591 H597 0.985 . S
C592 C586 1.379 . S
C592 C589 1.363 . S
C592 N590 1.356 . S
C593 C587 1.363 . S
C593 C588 1.379 . S
C593 N591 1.356 . S
N594 C586 1.356 . S
N594 H600 0.984 . S
N594 H601 0.984 1_565 S
N595 C588 1.356 . S
N595 H598 0.984 1_545 S
N595 H599 0.985 . S
H596 N591 0.984 . S
H597 N591 0.985 . S
H598 N595 0.984 1_565 S
H599 N595 0.985 . S
H600 N594 0.984 . S
H601 N594 0.984 1_545 S
H602 N590 0.984 . S
H603 N590 0.985 . S
C604 C605 1.363 . S
C604 C610 1.379 . S
C604 N612 1.356 . S
C605 C604 1.363 . S
C605 C611 1.363 . S
C606 C607 1.363 . S
C606 C611 1.379 . S
C606 N613 1.356 . S
C607 C606 1.363 . S
C607 C610 1.363 . S
N608 C610 1.356 . S
N608 H620 0.984 1_455 S
N608 H621 0.985 . S
N609 C611 1.356 . S
N609 H614 0.984 . S
N609 H615 0.985 . S
C610 C604 1.379 . S
C610 C607 1.363 . S
C610 N608 1.356 . S
C611 C605 1.363 . S
C611 C606 1.379 . S
C611 N609 1.356 . S
N612 C604 1.356 . S
N612 H618 0.984 1_455 S
N612 H619 0.984 . S
N613 C606 1.356 . S
N613 H616 0.984 . S
N613 H617 0.985 . S
H614 N609 0.984 . S
H615 N609 0.985 . S
H616 N613 0.984 . S
H617 N613 0.985 . S
H618 N612 0.984 1_655 S
H619 N612 0.984 . S
H620 N608 0.984 1_655 S
H621 N608 0.985 . S
C622 C623 1.363 1_565 S
C622 C628 1.379 . S
C622 N630 1.356 1_565 S
C623 C622 1.363 1_545 S
C623 C629 1.363 . S
C624 C625 1.363 1_545 S
C624 C629 1.379 . S
C624 N631 1.356 1_545 S
C625 C624 1.363 1_565 S
C625 C628 1.363 . S
N626 C628 1.356 . S
N626 H638 0.984 1_655 S
N626 H639 0.985 . S
N627 C629 1.356 . S
N627 H632 0.984 . S
N627 H633 0.985 . S
C628 C622 1.379 . S
C628 C625 1.363 . S
C628 N626 1.356 . S
C629 C623 1.363 . S
C629 C624 1.379 . S
C629 N627 1.356 . S
N630 C622 1.356 1_545 S
N630 H636 0.984 1_645 S
N630 H637 0.984 . S
N631 C624 1.356 1_565 S
N631 H634 0.984 . S
N631 H635 0.985 1_565 S
H632 N627 0.984 . S
H633 N627 0.985 . S
H634 N631 0.984 . S
H635 N631 0.985 1_545 S
H636 N630 0.984 1_465 S
H637 N630 0.984 . S
H638 N626 0.984 1_455 S
H639 N626 0.985 . S
C640 C641 1.363 . S
C640 C646 1.379 1_554 S
C640 N648 1.356 . S
C641 C640 1.363 . S
C641 C647 1.363 . S
C642 C643 1.363 . S
C642 C647 1.379 1_556 S
C642 N649 1.356 . S
C643 C642 1.363 . S
C643 C646 1.363 . S
N644 C646 1.356 . S
N644 H656 0.984 . S
N644 H657 0.985 . S
N645 C647 1.356 . S
N645 H650 0.984 . S
N645 H651 0.985 . S
C646 C640 1.379 1_556 S
C646 C643 1.363 . S
C646 N644 1.356 . S
C647 C641 1.363 . S
C647 C642 1.379 1_554 S
C647 N645 1.356 . S
N648 C640 1.356 . S
N648 H654 0.984 . S
N648 H655 0.984 . S
N649 C642 1.356 . S
N649 H652 0.984 . S
N649 H653 0.985 . S
H650 N645 0.984 . S
H651 N645 0.985 . S
H652 N649 0.984 . S
H653 N649 0.985 . S
H654 N648 0.984 . S
H655 N648 0.984 . S
H656 N644 0.984 . S
H657 N644 0.985 . S
C658 C659 1.363 . S
C658 C664 1.379 1_556 S
C658 N666 1.356 . S
C659 C658 1.363 . S
C659 C665 1.363 . S
C660 C661 1.363 . S
C660 C665 1.379 1_554 S
C660 N667 1.356 . S
C661 C660 1.363 . S
C661 C664 1.363 . S
N662 C664 1.356 . S
N662 H674 0.984 . S
N662 H675 0.985 . S
N663 C665 1.356 . S
N663 H668 0.984 . S
N663 H669 0.985 . S
C664 C658 1.379 1_554 S
C664 C661 1.363 . S
C664 N662 1.356 . S
C665 C659 1.363 . S
C665 C660 1.379 1_556 S
C665 N663 1.356 . S
N666 C658 1.356 . S
N666 H672 0.984 . S
N666 H673 0.984 . S
N667 C660 1.356 . S
N667 H670 0.984 . S
N667 H671 0.985 . S
H668 N663 0.984 . S
H669 N663 0.985 . S
H670 N667 0.984 . S
H671 N667 0.985 . S
H672 N666 0.984 . S
H673 N666 0.984 . S
H674 N662 0.984 . S
H675 N662 0.985 . S
C676 C677 1.363 . S
C676 C682 1.379 . S
C676 N684 1.356 . S
C677 C676 1.363 . S
C677 C683 1.363 . S
C678 C679 1.363 . S
C678 C683 1.379 . S
C678 N685 1.356 . S
C679 C678 1.363 . S
C679 C682 1.363 . S
N680 C682 1.356 . S
N680 H692 0.984 . S
N680 H693 0.985 . S
N681 C683 1.356 . S
N681 H686 0.984 . S
N681 H687 0.985 . S
C682 C676 1.379 . S
C682 C679 1.363 . S
C682 N680 1.356 . S
C683 C677 1.363 . S
C683 C678 1.379 . S
C683 N681 1.356 . S
N684 C676 1.356 . S
N684 H690 0.984 . S
N684 H691 0.984 . S
N685 C678 1.356 . S
N685 H688 0.984 . S
N685 H689 0.985 . S
H686 N681 0.984 . S
H687 N681 0.985 . S
H688 N685 0.984 . S
H689 N685 0.985 . S
H690 N684 0.984 . S
H691 N684 0.984 . S
H692 N680 0.984 . S
H693 N680 0.985 . S
C694 C695 1.363 . S
C694 C700 1.379 . S
C694 N702 1.356 . S
C695 C694 1.363 . S
C695 C701 1.363 . S
C696 C697 1.363 . S
C696 C701 1.379 . S
C696 N703 1.356 . S
C697 C696 1.363 . S
C697 C700 1.363 . S
N698 C700 1.356 . S
N698 H710 0.984 . S
N698 H711 0.985 . S
N699 C701 1.356 . S
N699 H704 0.984 . S
N699 H705 0.985 . S
C700 C694 1.379 . S
C700 C697 1.363 . S
C700 N698 1.356 . S
C701 C695 1.363 . S
C701 C696 1.379 . S
C701 N699 1.356 . S
N702 C694 1.356 . S
N702 H708 0.984 . S
N702 H709 0.984 . S
N703 C696 1.356 . S
N703 H706 0.984 . S
N703 H707 0.985 . S
H704 N699 0.984 . S
H705 N699 0.985 . S
H706 N703 0.984 . S
H707 N703 0.985 . S
H708 N702 0.984 . S
H709 N702 0.984 . S
H710 N698 0.984 . S
H711 N698 0.985 . S
C712 C713 1.363 . S
C712 C718 1.379 1_556 S
C712 N720 1.356 . S
C713 C712 1.363 . S
C713 C719 1.363 . S
C714 C715 1.363 . S
C714 C719 1.379 1_554 S
C714 N721 1.356 . S
C715 C714 1.363 . S
C715 C718 1.363 . S
N716 C718 1.356 . S
N716 H728 0.984 . S
N716 H729 0.985 . S
N717 C719 1.356 . S
N717 H722 0.984 . S
N717 H723 0.985 . S
C718 C712 1.379 1_554 S
C718 C715 1.363 . S
C718 N716 1.356 . S
C719 C713 1.363 . S
C719 C714 1.379 1_556 S
C719 N717 1.356 . S
N720 C712 1.356 . S
N720 H726 0.984 . S
N720 H727 0.984 . S
N721 C714 1.356 . S
N721 H724 0.984 . S
N721 H725 0.985 . S
H722 N717 0.984 . S
H723 N717 0.985 . S
H724 N721 0.984 . S
H725 N721 0.985 . S
H726 N720 0.984 . S
H727 N720 0.984 . S
H728 N716 0.984 . S
H729 N716 0.985 . S
C730 C731 1.363 . S
C730 C736 1.379 1_556 S
C730 N738 1.356 . S
C731 C730 1.363 . S
C731 C737 1.363 . S
C732 C733 1.363 . S
C732 C737 1.379 1_554 S
C732 N739 1.356 . S
C733 C732 1.363 . S
C733 C736 1.363 . S
N734 C736 1.356 . S
N734 H746 0.984 . S
N734 H747 0.985 . S
N735 C737 1.356 . S
N735 H740 0.984 . S
N735 H741 0.985 . S
C736 C730 1.379 1_554 S
C736 C733 1.363 . S
C736 N734 1.356 . S
C737 C731 1.363 . S
C737 C732 1.379 1_556 S
C737 N735 1.356 . S
N738 C730 1.356 . S
N738 H744 0.984 . S
N738 H745 0.984 . S
N739 C732 1.356 . S
N739 H742 0.984 . S
N739 H743 0.985 . S
H740 N735 0.984 . S
H741 N735 0.985 . S
H742 N739 0.984 . S
H743 N739 0.985 . S
H744 N738 0.984 . S
H745 N738 0.984 . S
H746 N734 0.984 . S
H747 N734 0.985 . S
C748 C749 1.363 . S
C748 C754 1.379 . S
C748 N756 1.356 . S
C749 C748 1.363 . S
C749 C755 1.363 . S
C750 C751 1.363 . S
C750 C755 1.379 . S
C750 N757 1.356 . S
C751 C750 1.363 . S
C751 C754 1.363 . S
N752 C754 1.356 . S
N752 H764 0.984 . S
N752 H765 0.985 . S
N753 C755 1.356 . S
N753 H758 0.984 . S
N753 H759 0.985 . S
C754 C748 1.379 . S
C754 C751 1.363 . S
C754 N752 1.356 . S
C755 C749 1.363 . S
C755 C750 1.379 . S
C755 N753 1.356 . S
N756 C748 1.356 . S
N756 H762 0.984 . S
N756 H763 0.984 . S
N757 C750 1.356 . S
N757 H760 0.984 . S
N757 H761 0.985 . S
H758 N753 0.984 . S
H759 N753 0.985 . S
H760 N757 0.984 . S
H761 N757 0.985 . S
H762 N756 0.984 . S
H763 N756 0.984 . S
H764 N752 0.984 . S
H765 N752 0.985 . S
C766 C767 1.363 . S
C766 C772 1.379 . S
C766 N774 1.356 . S
C767 C766 1.363 . S
C767 C773 1.363 . S
C768 C769 1.363 . S
C768 C773 1.379 . S
C768 N775 1.356 . S
C769 C768 1.363 . S
C769 C772 1.363 . S
N770 C772 1.356 . S
N770 H782 0.984 . S
N770 H783 0.985 . S
N771 C773 1.356 . S
N771 H776 0.984 . S
N771 H777 0.985 . S
C772 C766 1.379 . S
C772 C769 1.363 . S
C772 N770 1.356 . S
C773 C767 1.363 . S
C773 C768 1.379 . S
C773 N771 1.356 . S
N774 C766 1.356 . S
N774 H780 0.984 . S
N774 H781 0.984 . S
N775 C768 1.356 . S
N775 H778 0.984 . S
N775 H779 0.985 . S
H776 N771 0.984 . S
H777 N771 0.985 . S
H778 N775 0.984 . S
H779 N775 0.985 . S
H780 N774 0.984 . S
H781 N774 0.984 . S
H782 N770 0.984 . S
H783 N770 0.985 . S
C784 C785 1.363 . S
C784 C790 1.379 . S
C784 N792 1.356 . S
C785 C784 1.363 . S
C785 C791 1.363 . S
C786 C787 1.363 . S
C786 C791 1.379 . S
C786 N793 1.356 . S
C787 C786 1.363 . S
C787 C790 1.363 . S
N788 C790 1.356 1_565 S
N788 H800 0.984 . S
N788 H801 0.985 . S
N789 C791 1.356 . S
N789 H794 0.984 . S
N789 H795 0.985 . S
C790 C784 1.379 . S
C790 C787 1.363 . S
C790 N788 1.356 1_545 S
C791 C785 1.363 . S
C791 C786 1.379 . S
C791 N789 1.356 . S
N792 C784 1.356 . S
N792 H798 0.984 . S
N792 H799 0.984 . S
N793 C786 1.356 . S
N793 H796 0.984 . S
N793 H797 0.985 . S
H794 N789 0.984 . S
H795 N789 0.985 . S
H796 N793 0.984 . S
H797 N793 0.985 . S
H798 N792 0.984 . S
H799 N792 0.984 . S
H800 N788 0.984 . S
H801 N788 0.985 . S
C802 C803 1.363 . S
C802 C808 1.379 . S
C802 N810 1.356 . S
C803 C802 1.363 . S
C803 C809 1.363 . S
C804 C805 1.363 . S
C804 C809 1.379 . S
C804 N811 1.356 . S
C805 C804 1.363 . S
C805 C808 1.363 . S
N806 C808 1.356 . S
N806 H818 0.984 . S
N806 H819 0.985 . S
N807 C809 1.356 . S
N807 H812 0.984 . S
N807 H813 0.985 . S
C808 C802 1.379 . S
C808 C805 1.363 . S
C808 N806 1.356 . S
C809 C803 1.363 . S
C809 C804 1.379 . S
C809 N807 1.356 . S
N810 C802 1.356 . S
N810 H816 0.984 . S
N810 H817 0.984 . S
N811 C804 1.356 . S
N811 H814 0.984 . S
N811 H815 0.985 . S
H812 N807 0.984 . S
H813 N807 0.985 . S
H814 N811 0.984 . S
H815 N811 0.985 . S
H816 N810 0.984 . S
H817 N810 0.984 . S
H818 N806 0.984 . S
H819 N806 0.985 . S
C820 C821 1.363 . S
C820 C826 1.379 . S
C820 N828 1.356 . S
C821 C820 1.363 . S
C821 C827 1.363 . S
C822 C823 1.363 1_545 S
C822 C827 1.379 1_545 S
C822 N829 1.356 . S
C823 C822 1.363 1_565 S
C823 C826 1.363 . S
N824 C826 1.356 . S
N824 H836 0.984 . S
N824 H837 0.985 . S
N825 C827 1.356 . S
N825 H830 0.984 . S
N825 H831 0.985 1_565 S
C826 C820 1.379 . S
C826 C823 1.363 . S
C826 N824 1.356 . S
C827 C821 1.363 . S
C827 C822 1.379 1_565 S
C827 N825 1.356 . S
N828 C820 1.356 . S
N828 H834 0.984 . S
N828 H835 0.984 . S
N829 C822 1.356 . S
N829 H832 0.984 . S
N829 H833 0.985 . S
H830 N825 0.984 . S
H831 N825 0.985 1_545 S
H832 N829 0.984 . S
H833 N829 0.985 . S
H834 N828 0.984 . S
H835 N828 0.984 . S
H836 N824 0.984 . S
H837 N824 0.985 . S
C838 C839 1.363 . S
C838 C844 1.379 . S
C838 N846 1.356 . S
C839 C838 1.363 . S
C839 C845 1.363 . S
C840 C841 1.363 . S
C840 C845 1.379 . S
C840 N847 1.356 . S
C841 C840 1.363 . S
C841 C844 1.363 . S
N842 C844 1.356 . S
N842 H854 0.984 . S
N842 H855 0.985 . S
N843 C845 1.356 . S
N843 H848 0.984 . S
N843 H849 0.985 . S
C844 C838 1.379 . S
C844 C841 1.363 . S
C844 N842 1.356 . S
C845 C839 1.363 . S
C845 C840 1.379 . S
C845 N843 1.356 . S
N846 C838 1.356 . S
N846 H852 0.984 . S
N846 H853 0.984 . S
N847 C840 1.356 . S
N847 H850 0.984 . S
N847 H851 0.985 . S
H848 N843 0.984 . S
H849 N843 0.985 . S
H850 N847 0.984 . S
H851 N847 0.985 . S
H852 N846 0.984 . S
H853 N846 0.984 . S
H854 N842 0.984 . S
H855 N842 0.985 . S
C856 C857 1.363 . S
C856 C862 1.379 . S
C856 N864 1.356 . S
C857 C856 1.363 . S
C857 C863 1.363 . S
C858 C859 1.363 . S
C858 C863 1.379 . S
C858 N865 1.356 . S
C859 C858 1.363 . S
C859 C862 1.363 . S
N860 C862 1.356 . S
N860 H872 0.984 . S
N860 H873 0.985 . S
N861 C863 1.356 1_545 S
N861 H866 0.984 . S
N861 H867 0.985 . S
C862 C856 1.379 . S
C862 C859 1.363 . S
C862 N860 1.356 . S
C863 C857 1.363 . S
C863 C858 1.379 . S
C863 N861 1.356 1_565 S
N864 C856 1.356 . S
N864 H870 0.984 . S
N864 H871 0.984 . S
N865 C858 1.356 . S
N865 H868 0.984 . S
N865 H869 0.985 . S
H866 N861 0.984 . S
H867 N861 0.985 . S
H868 N865 0.984 . S
H869 N865 0.985 . S
H870 N864 0.984 . S
H871 N864 0.984 . S
H872 N860 0.984 . S
H873 N860 0.985 . S
C874 C875 1.363 . S
C874 C880 1.379 . S
C874 N882 1.356 . S
C875 C874 1.363 . S
C875 C881 1.363 . S
C876 C877 1.363 . S
C876 C881 1.379 . S
C876 N883 1.356 . S
C877 C876 1.363 . S
C877 C880 1.363 . S
N878 C880 1.356 . S
N878 H890 0.984 . S
N878 H891 0.985 . S
N879 C881 1.356 . S
N879 H884 0.984 . S
N879 H885 0.985 . S
C880 C874 1.379 . S
C880 C877 1.363 . S
C880 N878 1.356 . S
C881 C875 1.363 . S
C881 C876 1.379 . S
C881 N879 1.356 . S
N882 C874 1.356 . S
N882 H888 0.984 . S
N882 H889 0.984 . S
N883 C876 1.356 . S
N883 H886 0.984 . S
N883 H887 0.985 . S
H884 N879 0.984 . S
H885 N879 0.985 . S
H886 N883 0.984 . S
H887 N883 0.985 . S
H888 N882 0.984 . S
H889 N882 0.984 . S
H890 N878 0.984 . S
H891 N878 0.985 . S
C892 C893 1.363 . S
C892 C898 1.379 . S
C892 N900 1.356 . S
C893 C892 1.363 . S
C893 C899 1.363 . S
C894 C895 1.363 . S
C894 C899 1.379 . S
C894 N901 1.356 . S
C895 C894 1.363 . S
C895 C898 1.363 . S
N896 C898 1.356 . S
N896 H908 0.984 . S
N896 H909 0.985 . S
N897 C899 1.356 1_565 S
N897 H902 0.984 . S
N897 H903 0.985 . S
C898 C892 1.379 . S
C898 C895 1.363 . S
C898 N896 1.356 . S
C899 C893 1.363 . S
C899 C894 1.379 . S
C899 N897 1.356 1_545 S
N900 C892 1.356 . S
N900 H906 0.984 . S
N900 H907 0.994 . S
N901 C894 1.356 . S
N901 H904 0.984 . S
N901 H905 0.985 . S
H902 N897 0.984 . S
H903 N897 0.985 . S
H904 N901 0.984 . S
H905 N901 0.985 . S
H906 N900 0.984 . S
H907 N900 0.994 . S
H908 N896 0.984 . S
H909 N896 0.985 . S
C910 C911 1.363 . S
C910 C916 1.379 . S
C910 N918 1.356 . S
C911 C910 1.363 . S
C911 C917 1.363 . S
C912 C913 1.363 . S
C912 C917 1.379 . S
C912 N919 1.356 . S
C913 C912 1.363 . S
C913 C916 1.363 . S
N914 C916 1.356 . S
N914 H926 0.984 . S
N914 H927 0.985 . S
N915 C917 1.356 . S
N915 H920 0.984 . S
N915 H921 0.985 . S
C916 C910 1.379 . S
C916 C913 1.363 . S
C916 N914 1.356 . S
C917 C911 1.363 . S
C917 C912 1.379 . S
C917 N915 1.356 . S
N918 C910 1.356 . S
N918 H924 0.984 . S
N918 H925 0.984 . S
N919 C912 1.356 . S
N919 H922 0.984 . S
N919 H923 0.985 . S
H920 N915 0.984 . S
H921 N915 0.985 . S
H922 N919 0.984 . S
H923 N919 0.985 . S
H924 N918 0.984 . S
H925 N918 0.984 . S
H926 N914 0.984 . S
H927 N914 0.985 . S
C928 C929 1.363 . S
C928 C934 1.379 . S
C928 N936 1.356 . S
C929 C928 1.363 . S
C929 C935 1.363 . S
C930 C931 1.363 . S
C930 C935 1.379 . S
C930 N937 1.356 . S
C931 C930 1.363 . S
C931 C934 1.363 . S
N932 C934 1.356 . S
N932 H944 0.984 . S
N932 H945 0.985 . S
N933 C935 1.356 . S
N933 H938 0.984 . S
N933 H939 0.985 . S
C934 C928 1.379 . S
C934 C931 1.363 . S
C934 N932 1.356 . S
C935 C929 1.363 . S
C935 C930 1.379 . S
C935 N933 1.356 . S
N936 C928 1.356 . S
N936 H942 0.984 . S
N936 H943 0.984 . S
N937 C930 1.356 . S
N937 H940 0.984 . S
N937 H941 0.985 . S
H938 N933 0.984 . S
H939 N933 0.985 . S
H940 N937 0.984 . S
H941 N937 0.985 . S
H942 N936 0.984 . S
H943 N936 0.984 . S
H944 N932 0.984 . S
H945 N932 0.985 . S
C946 C947 1.363 . S
C946 C952 1.379 . S
C946 N954 1.356 . S
C947 C946 1.363 . S
C947 C953 1.363 1_565 S
C948 C949 1.363 . S
C948 C953 1.379 1_565 S
C948 N955 1.356 . S
C949 C948 1.363 . S
C949 C952 1.363 . S
N950 C952 1.356 . S
N950 H962 0.984 . S
N950 H963 0.985 . S
N951 C953 1.356 . S
N951 H956 0.984 . S
N951 H957 0.985 . S
C952 C946 1.379 . S
C952 C949 1.363 . S
C952 N950 1.356 . S
C953 C947 1.363 1_545 S
C953 C948 1.379 1_545 S
C953 N951 1.356 . S
N954 C946 1.356 . S
N954 H960 0.984 . S
N954 H961 0.984 . S
N955 C948 1.356 . S
N955 H958 0.984 . S
N955 H959 0.985 1_565 S
H956 N951 0.984 . S
H957 N951 0.985 . S
H958 N955 0.984 . S
H959 N955 0.985 1_545 S
H960 N954 0.984 . S
H961 N954 0.984 . S
H962 N950 0.984 . S
H963 N950 0.985 . S
C964 C965 1.363 . S
C964 C970 1.379 . S
C964 N972 1.356 . S
C965 C964 1.363 . S
C965 C971 1.363 . S
C966 C967 1.363 . S
C966 C971 1.379 . S
C966 N973 1.356 . S
C967 C966 1.363 . S
C967 C970 1.363 . S
N968 C970 1.356 . S
N968 H980 0.984 . S
N968 H981 0.985 . S
N969 C971 1.356 . S
N969 H974 0.984 . S
N969 H975 0.985 . S
C970 C964 1.379 . S
C970 C967 1.363 . S
C970 N968 1.356 . S
C971 C965 1.363 . S
C971 C966 1.379 . S
C971 N969 1.356 . S
N972 C964 1.356 . S
N972 H978 0.984 . S
N972 H979 0.984 . S
N973 C966 1.356 . S
N973 H976 0.984 . S
N973 H977 0.985 . S
H974 N969 0.984 . S
H975 N969 0.985 . S
H976 N973 0.984 . S
H977 N973 0.985 . S
H978 N972 0.984 . S
H979 N972 0.984 . S
H980 N968 0.984 . S
H981 N968 0.985 . S
C982 C983 1.363 . S
C982 C988 1.379 1_545 S
C982 N990 1.356 1_545 S
C983 C982 1.363 . S
C983 C989 1.363 . S
C984 C985 1.363 . S
C984 C989 1.379 . S
C984 N991 1.356 . S
C985 C984 1.363 . S
C985 C988 1.363 1_545 S
N986 C988 1.356 . S
N986 H998 0.984 . S
N986 H999 0.985 . S
N987 C989 1.356 . S
N987 H992 0.984 . S
N987 H993 0.985 . S
C988 C982 1.379 1_565 S
C988 C985 1.363 1_565 S
C988 N986 1.356 . S
C989 C983 1.363 . S
C989 C984 1.379 . S
C989 N987 1.356 . S
N990 C982 1.356 1_565 S
N990 H996 0.984 . S
N990 H997 0.984 1_565 S
N991 C984 1.356 . S
N991 H994 0.984 . S
N991 H995 0.985 . S
H992 N987 0.984 . S
H993 N987 0.985 . S
H994 N991 0.984 . S
H995 N991 0.985 . S
H996 N990 0.984 . S
H997 N990 0.984 1_545 S
H998 N986 0.984 . S
H999 N986 0.985 . S
C1000 C1001 1.363 . S
C1000 C1006 1.379 . S
C1000 N1008 1.356 . S
C1001 C1000 1.363 . S
C1001 C1007 1.363 . S
C1002 C1003 1.363 . S
C1002 C1007 1.379 . S
C1002 N1009 1.356 . S
C1003 C1002 1.363 . S
C1003 C1006 1.363 . S
N1004 C1006 1.356 . S
N1004 H1016 0.984 . S
N1004 H1017 0.985 . S
N1005 C1007 1.356 . S
N1005 H1010 0.984 . S
N1005 H1011 0.985 . S
C1006 C1000 1.379 . S
C1006 C1003 1.363 . S
C1006 N1004 1.356 . S
C1007 C1001 1.363 . S
C1007 C1002 1.379 . S
C1007 N1005 1.356 . S
N1008 C1000 1.356 . S
N1008 H1014 0.984 . S
N1008 H1015 0.984 . S
N1009 C1002 1.356 . S
N1009 H1012 0.984 . S
N1009 H1013 0.985 . S
H1010 N1005 0.984 . S
H1011 N1005 0.985 . S
H1012 N1009 0.984 . S
H1013 N1009 0.985 . S
H1014 N1008 0.984 . S
H1015 N1008 0.984 . S
H1016 N1004 0.984 . S
H1017 N1004 0.985 . S
C1018 C1019 1.363 . S
C1018 C1024 1.379 . S
C1018 N1026 1.356 . S
C1019 C1018 1.363 . S
C1019 C1025 1.363 . S
C1020 C1021 1.363 . S
C1020 C1025 1.379 . S
C1020 N1027 1.356 . S
C1021 C1020 1.363 . S
C1021 C1024 1.363 . S
N1022 C1024 1.356 . S
N1022 H1034 0.984 . S
N1022 H1035 0.985 . S
N1023 C1025 1.356 1_565 S
N1023 H1028 0.984 . S
N1023 H1029 0.985 . S
C1024 C1018 1.379 . S
C1024 C1021 1.363 . S
C1024 N1022 1.356 . S
C1025 C1019 1.363 . S
C1025 C1020 1.379 . S
C1025 N1023 1.356 1_545 S
N1026 C1018 1.356 . S
N1026 H1032 0.984 . S
N1026 H1033 0.984 . S
N1027 C1020 1.356 . S
N1027 H1030 0.984 . S
N1027 H1031 0.985 . S
H1028 N1023 0.984 . S
H1029 N1023 0.985 . S
H1030 N1027 0.984 . S
H1031 N1027 0.985 . S
H1032 N1026 0.984 . S
H1033 N1026 0.984 . S
H1034 N1022 0.984 . S
H1035 N1022 0.985 . S
C1036 C1037 1.363 . S
C1036 C1042 1.379 . S
C1036 N1044 1.356 . S
C1037 C1036 1.363 . S
C1037 C1043 1.363 . S
C1038 C1039 1.363 . S
C1038 C1043 1.379 . S
C1038 N1045 1.356 . S
C1039 C1038 1.363 . S
C1039 C1042 1.363 . S
N1040 C1042 1.356 . S
N1040 H1052 0.984 . S
N1040 H1053 0.985 . S
N1041 C1043 1.356 . S
N1041 H1046 0.984 . S
N1041 H1047 0.985 . S
C1042 C1036 1.379 . S
C1042 C1039 1.363 . S
C1042 N1040 1.356 . S
C1043 C1037 1.363 . S
C1043 C1038 1.379 . S
C1043 N1041 1.356 . S
N1044 C1036 1.356 . S
N1044 H1050 0.984 . S
N1044 H1051 0.984 . S
N1045 C1038 1.356 . S
N1045 H1048 0.984 . S
N1045 H1049 0.985 . S
H1046 N1041 0.984 . S
H1047 N1041 0.985 . S
H1048 N1045 0.984 . S
H1049 N1045 0.985 . S
H1050 N1044 0.984 . S
H1051 N1044 0.984 . S
H1052 N1040 0.984 . S
H1053 N1040 0.985 . S
C1054 C1055 1.363 . S
C1054 C1060 1.379 . S
C1054 N1062 1.356 1_565 S
C1055 C1054 1.363 . S
C1055 C1061 1.363 . S
C1056 C1057 1.363 . S
C1056 C1061 1.379 . S
C1056 N1063 1.356 . S
C1057 C1056 1.363 . S
C1057 C1060 1.363 . S
N1058 C1060 1.356 . S
N1058 H1070 0.984 . S
N1058 H1071 0.985 . S
N1059 C1061 1.356 . S
N1059 H1064 0.984 . S
N1059 H1065 0.985 . S
C1060 C1054 1.379 . S
C1060 C1057 1.363 . S
C1060 N1058 1.356 . S
C1061 C1055 1.363 . S
C1061 C1056 1.379 . S
C1061 N1059 1.356 . S
N1062 C1054 1.356 1_545 S
N1062 H1068 0.984 . S
N1062 H1069 0.984 . S
N1063 C1056 1.356 . S
N1063 H1066 0.984 . S
N1063 H1067 0.985 . S
H1064 N1059 0.984 . S
H1065 N1059 0.985 . S
H1066 N1063 0.984 . S
H1067 N1063 0.985 . S
H1068 N1062 0.984 . S
H1069 N1062 0.984 . S
H1070 N1058 0.984 . S
H1071 N1058 0.985 . S
C1072 C1073 1.363 . S
C1072 C1078 1.379 . S
C1072 N1080 1.356 . S
C1073 C1072 1.363 . S
C1073 C1079 1.363 . S
C1074 C1075 1.363 . S
C1074 C1079 1.379 . S
C1074 N1081 1.356 . S
C1075 C1074 1.363 . S
C1075 C1078 1.363 . S
N1076 C1078 1.356 . S
N1076 H1088 0.984 . S
N1076 H1089 0.985 . S
N1077 C1079 1.356 . S
N1077 H1082 0.984 . S
N1077 H1083 0.985 . S
C1078 C1072 1.379 . S
C1078 C1075 1.363 . S
C1078 N1076 1.356 . S
C1079 C1073 1.363 . S
C1079 C1074 1.379 . S
C1079 N1077 1.356 . S
N1080 C1072 1.356 . S
N1080 H1086 0.984 . S
N1080 H1087 0.984 . S
N1081 C1074 1.356 . S
N1081 H1084 0.984 . S
N1081 H1085 0.985 . S
H1082 N1077 0.984 . S
H1083 N1077 0.985 . S
H1084 N1081 0.984 . S
H1085 N1081 0.985 . S
H1086 N1080 0.984 . S
H1087 N1080 0.984 . S
H1088 N1076 0.984 . S
H1089 N1076 0.985 . S
C1090 C1091 1.363 . S
C1090 C1096 1.379 . S
C1090 N1098 1.356 . S
C1091 C1090 1.363 . S
C1091 C1097 1.363 . S
C1092 C1093 1.363 . S
C1092 C1097 1.379 . S
C1092 N1099 1.356 . S
C1093 C1092 1.363 . S
C1093 C1096 1.363 . S
N1094 C1096 1.356 . S
N1094 H1106 0.984 . S
N1094 H1107 0.985 . S
N1095 C1097 1.356 . S
N1095 H1100 0.984 . S
N1095 H1101 0.985 . S
C1096 C1090 1.379 . S
C1096 C1093 1.363 . S
C1096 N1094 1.356 . S
C1097 C1091 1.363 . S
C1097 C1092 1.379 . S
C1097 N1095 1.356 . S
N1098 C1090 1.356 . S
N1098 H1104 0.984 . S
N1098 H1105 0.984 . S
N1099 C1092 1.356 . S
N1099 H1102 0.984 . S
N1099 H1103 0.985 . S
H1100 N1095 0.984 . S
H1101 N1095 0.985 . S
H1102 N1099 0.984 . S
H1103 N1099 0.985 . S
H1104 N1098 0.984 . S
H1105 N1098 0.984 . S
H1106 N1094 0.984 . S
H1107 N1094 0.985 . S
C1108 C1109 1.363 . S
C1108 C1114 1.379 . S
C1108 N1116 1.356 . S
C1109 C1108 1.363 . S
C1109 C1115 1.363 . S
C1110 C1111 1.363 . S
C1110 C1115 1.379 . S
C1110 N1117 1.356 . S
C1111 C1110 1.363 . S
C1111 C1114 1.363 . S
N1112 C1114 1.356 . S
N1112 H1124 0.984 . S
N1112 H1125 0.985 . S
N1113 C1115 1.356 . S
N1113 H1118 0.984 . S
N1113 H1119 0.985 . S
C1114 C1108 1.379 . S
C1114 C1111 1.363 . S
C1114 N1112 1.356 . S
C1115 C1109 1.363 . S
C1115 C1110 1.379 . S
C1115 N1113 1.356 . S
N1116 C1108 1.356 . S
N1116 H1122 0.984 . S
N1116 H1123 0.984 . S
N1117 C1110 1.356 . S
N1117 H1120 0.984 . S
N1117 H1121 0.985 . S
H1118 N1113 0.984 . S
H1119 N1113 0.985 . S
H1120 N1117 0.984 . S
H1121 N1117 0.985 . S
H1122 N1116 0.984 . S
H1123 N1116 0.984 . S
H1124 N1112 0.984 . S
H1125 N1112 0.985 . S
C1126 C1127 1.363 . S
C1126 C1132 1.379 . S
C1126 N1134 1.356 . S
C1127 C1126 1.363 . S
C1127 C1133 1.363 . S
C1128 C1129 1.363 . S
C1128 C1133 1.379 . S
C1128 N1135 1.356 . S
C1129 C1128 1.363 . S
C1129 C1132 1.363 . S
N1130 C1132 1.356 . S
N1130 H1142 0.984 . S
N1130 H1143 0.985 . S
N1131 C1133 1.356 . S
N1131 H1136 0.984 . S
N1131 H1137 0.985 . S
C1132 C1126 1.379 . S
C1132 C1129 1.363 . S
C1132 N1130 1.356 . S
C1133 C1127 1.363 . S
C1133 C1128 1.379 . S
C1133 N1131 1.356 . S
N1134 C1126 1.356 . S
N1134 H1140 0.984 . S
N1134 H1141 0.984 . S
N1135 C1128 1.356 . S
N1135 H1138 0.984 . S
N1135 H1139 0.985 . S
H1136 N1131 0.984 . S
H1137 N1131 0.985 . S
H1138 N1135 0.984 . S
H1139 N1135 0.985 . S
H1140 N1134 0.984 . S
H1141 N1134 0.984 . S
H1142 N1130 0.984 . S
H1143 N1130 0.985 . S
C1144 C1145 1.363 1_655 S
C1144 C1150 1.379 . S
C1144 N1152 1.356 . S
C1145 C1144 1.363 1_455 S
C1145 C1151 1.363 . S
C1146 C1147 1.363 1_455 S
C1146 C1151 1.379 . S
C1146 N1153 1.356 . S
C1147 C1146 1.363 1_655 S
C1147 C1150 1.363 . S
N1148 C1150 1.356 . S
N1148 H1160 0.984 . S
N1148 H1161 0.985 . S
N1149 C1151 1.356 . S
N1149 H1154 0.984 . S
N1149 H1155 0.985 . S
C1150 C1144 1.379 . S
C1150 C1147 1.363 . S
C1150 N1148 1.356 . S
C1151 C1145 1.363 . S
C1151 C1146 1.379 . S
C1151 N1149 1.356 . S
N1152 C1144 1.356 . S
N1152 H1158 0.984 . S
N1152 H1159 0.984 . S
N1153 C1146 1.356 . S
N1153 H1156 0.984 . S
N1153 H1157 0.985 . S
H1154 N1149 0.984 . S
H1155 N1149 0.985 . S
H1156 N1153 0.984 . S
H1157 N1153 0.985 . S
H1158 N1152 0.984 . S
H1159 N1152 0.984 . S
H1160 N1148 0.984 . S
H1161 N1148 0.985 . S
C1162 C1163 1.363 . S
C1162 C1168 1.379 . S
C1162 N1170 1.356 . S
C1163 C1162 1.363 . S
C1163 C1169 1.363 1_655 S
C1164 C1165 1.363 . S
C1164 C1169 1.379 . S
C1164 N1171 1.356 . S
C1165 C1164 1.363 . S
C1165 C1168 1.363 1_455 S
N1166 C1168 1.356 . S
N1166 H1178 0.984 . S
N1166 H1179 0.985 . S
N1167 C1169 1.356 . S
N1167 H1172 0.984 . S
N1167 H1173 0.985 . S
C1168 C1162 1.379 . S
C1168 C1165 1.363 1_655 S
C1168 N1166 1.356 . S
C1169 C1163 1.363 1_455 S
C1169 C1164 1.379 . S
C1169 N1167 1.356 . S
N1170 C1162 1.356 . S
N1170 H1176 0.984 . S
N1170 H1177 0.984 . S
N1171 C1164 1.356 . S
N1171 H1174 0.984 . S
N1171 H1175 0.985 . S
H1172 N1167 0.984 . S
H1173 N1167 0.985 . S
H1174 N1171 0.984 . S
H1175 N1171 0.985 . S
H1176 N1170 0.984 . S
H1177 N1170 0.984 . S
H1178 N1166 0.984 . S
H1179 N1166 0.985 . S
C1180 C1181 1.363 . S
C1180 C1186 1.379 . S
C1180 N1188 1.356 . S
C1181 C1180 1.363 . S
C1181 C1187 1.363 1_655 S
C1182 C1183 1.363 . S
C1182 C1187 1.379 . S
C1182 N1189 1.356 . S
C1183 C1182 1.363 . S
C1183 C1186 1.363 1_455 S
N1184 C1186 1.356 . S
N1184 H1196 0.984 . S
N1184 H1197 0.985 . S
N1185 C1187 1.356 . S
N1185 H1190 0.984 . S
N1185 H1191 0.985 . S
C1186 C1180 1.379 . S
C1186 C1183 1.363 1_655 S
C1186 N1184 1.356 . S
C1187 C1181 1.363 1_455 S
C1187 C1182 1.379 . S
C1187 N1185 1.356 . S
N1188 C1180 1.356 . S
N1188 H1194 0.984 . S
N1188 H1195 0.984 . S
N1189 C1182 1.356 . S
N1189 H1192 0.984 . S
N1189 H1193 0.985 . S
H1190 N1185 0.984 . S
H1191 N1185 0.985 . S
H1192 N1189 0.984 . S
H1193 N1189 0.985 . S
H1194 N1188 0.984 . S
H1195 N1188 0.984 . S
H1196 N1184 0.984 . S
H1197 N1184 0.985 . S
C1198 C1199 1.363 . S
C1198 C1204 1.379 . S
C1198 N1206 1.356 . S
C1199 C1198 1.363 . S
C1199 C1205 1.363 1_655 S
C1200 C1201 1.363 . S
C1200 C1205 1.379 . S
C1200 N1207 1.356 . S
C1201 C1200 1.363 . S
C1201 C1204 1.363 1_455 S
N1202 C1204 1.356 . S
N1202 H1214 0.984 . S
N1202 H1215 0.985 . S
N1203 C1205 1.356 . S
N1203 H1208 0.984 . S
N1203 H1209 0.985 . S
C1204 C1198 1.379 . S
C1204 C1201 1.363 1_655 S
C1204 N1202 1.356 . S
C1205 C1199 1.363 1_455 S
C1205 C1200 1.379 . S
C1205 N1203 1.356 . S
N1206 C1198 1.356 . S
N1206 H1212 0.984 . S
N1206 H1213 0.984 . S
N1207 C1200 1.356 . S
N1207 H1210 0.984 . S
N1207 H1211 0.985 . S
H1208 N1203 0.984 . S
H1209 N1203 0.985 . S
H1210 N1207 0.984 . S
H1211 N1207 0.985 . S
H1212 N1206 0.984 . S
H1213 N1206 0.984 . S
H1214 N1202 0.984 . S
H1215 N1202 0.985 . S
C353 C6 1.145 1_565 S
C355 C93 1.145 1_545 S
C371 C28 1.145 . S
C373 C119 1.145 . S
C389 C50 1.145 1_545 S
C391 C137 1.145 1_565 S
C407 C73 1.145 . S
C409 C159 1.145 . S
C425 C182 1.145 . S
C427 C269 1.145 . S
C443 C204 1.145 1_545 S
C445 C295 1.145 1_565 S
C461 C226 1.145 . S
C463 C313 1.145 . S
C479 C249 1.145 1_565 S
C481 C335 1.145 1_545 S
C497 C7 1.808 . S
C499 C51 1.808 . S
C515 C29 1.808 . S
C517 C72 1.808 . S
C533 C97 1.808 . S
C535 C141 1.808 . S
C551 C115 1.808 . S
C553 C163 1.808 . S
C569 C227 1.808 . S
C571 C183 1.808 . S
C587 C248 1.808 . S
C589 C205 1.808 . S
C605 C273 1.808 . S
C607 C317 1.808 . S
C623 C291 1.808 . S
C625 C339 1.808 . S
C641 C4 1.917 . S
C643 C250 1.917 . S
C659 C224 1.917 . S
C661 C26 1.917 . S
C677 C48 1.917 . S
C679 C202 1.917 . S
C695 C74 1.917 . S
C697 C180 1.917 . S
C713 C92 1.917 . S
C715 C334 1.917 . S
C731 C118 1.917 . S
C733 C312 1.917 . S
C749 C294 1.917 . S
C751 C136 1.917 . S
C767 C158 1.917 . S
C769 C268 1.917 . S
C785 C9 1.309 . S
C787 C336 1.361 1_545 S
C803 C31 1.309 . S
C805 C314 1.361 . S
C821 C53 1.309 . S
C823 C293 1.361 1_565 S
C839 C71 1.309 . S
C841 C270 1.361 . S
C857 C251 1.361 1_565 S
C859 C95 1.309 . S
C875 C225 1.361 . S
C877 C116 1.309 . S
C893 C203 1.361 1_545 S
C895 C139 1.309 . S
C911 C161 1.309 . S
C913 C181 1.361 . S
C929 C160 1.361 . S
C931 C185 1.309 . S
C947 C138 1.361 1_565 S
C949 C207 1.309 . S
C965 C117 1.361 . S
C967 C229 1.309 . S
C983 C247 1.309 . S
C985 C94 1.361 1_545 S
C1001 C271 1.309 . S
C1003 C75 1.361 . S
C1019 C49 1.361 1_545 S
C1021 C292 1.309 . S
C1037 C315 1.309 . S
C1039 C27 1.361 . S
C1055 C5 1.361 1_565 S
C1057 C337 1.309 . S
C1073 C8 1.466 . S
C1075 C30 1.466 . S
C1091 C70 1.466 . S
C1093 C52 1.466 . S
C1109 C96 1.466 . S
C1111 C114 1.466 . S
C1127 C162 1.466 . S
C1129 C140 1.466 . S
C1145 C206 1.466 . S
C1147 C184 1.466 . S
C1163 C228 1.466 . S
C1165 C246 1.466 . S
C1181 C290 1.466 . S
C1183 C272 1.466 . S
C1199 C338 1.466 . S
C1201 C316 1.466 . S
