# Generated by pormake.
# Topology lcy-a, (4)-cn, num edge types: 1
# Building blocks:
#     Node 0, Type 0, BuildingBlock: NAHDIM_clean_sbu_0, # of connection points: 4
#     Node 1, Type 0, BuildingBlock: NAHDIM_clean_sbu_0, # of connection points: 4
#     Node 2, Type 0, BuildingBlock: NAHDIM_clean_sbu_0, # of connection points: 4
#     Node 3, Type 0, BuildingBlock: NAHDIM_clean_sbu_0, # of connection points: 4
#     Node 4, Type 0, BuildingBlock: NAHDIM_clean_sbu_0, # of connection points: 4
#     Node 5, Type 0, BuildingBlock: NAHDIM_clean_sbu_0, # of connection points: 4
#     Node 6, Type 0, BuildingBlock: NAHDIM_clean_sbu_0, # of connection points: 4
#     Node 7, Type 0, BuildingBlock: NAHDIM_clean_sbu_0, # of connection points: 4
#     Node 8, Type 0, BuildingBlock: NAHDIM_clean_sbu_0, # of connection points: 4
#     Node 9, Type 0, BuildingBlock: NAHDIM_clean_sbu_0, # of connection points: 4
#     Node 10, Type 0, BuildingBlock: NAHDIM_clean_sbu_0, # of connection points: 4
#     Node 11, Type 0, BuildingBlock: NAHDIM_clean_sbu_0, # of connection points: 4
#     Node 12, Type 0, BuildingBlock: NAHDIM_clean_sbu_0, # of connection points: 4
#     Node 13, Type 0, BuildingBlock: NAHDIM_clean_sbu_0, # of connection points: 4
#     Node 14, Type 0, BuildingBlock: NAHDIM_clean_sbu_0, # of connection points: 4
#     Node 15, Type 0, BuildingBlock: NAHDIM_clean_sbu_0, # of connection points: 4
#     Node 16, Type 0, BuildingBlock: NAHDIM_clean_sbu_0, # of connection points: 4
#     Node 17, Type 0, BuildingBlock: NAHDIM_clean_sbu_0, # of connection points: 4
#     Node 18, Type 0, BuildingBlock: NAHDIM_clean_sbu_0, # of connection points: 4
#     Node 19, Type 0, BuildingBlock: NAHDIM_clean_sbu_0, # of connection points: 4
#     Node 20, Type 0, BuildingBlock: NAHDIM_clean_sbu_0, # of connection points: 4
#     Node 21, Type 0, BuildingBlock: NAHDIM_clean_sbu_0, # of connection points: 4
#     Node 22, Type 0, BuildingBlock: NAHDIM_clean_sbu_0, # of connection points: 4
#     Node 23, Type 0, BuildingBlock: NAHDIM_clean_sbu_0, # of connection points: 4
#     Edge 24, Type (0, 0), BuildingBlock: KIFKEQ_clean_linker_1, # of connection points: 2
#     Edge 25, Type (0, 0), BuildingBlock: KIFKEQ_clean_linker_1, # of connection points: 2
#     Edge 26, Type (0, 0), BuildingBlock: KIFKEQ_clean_linker_1, # of connection points: 2
#     Edge 27, Type (0, 0), BuildingBlock: KIFKEQ_clean_linker_1, # of connection points: 2
#     Edge 28, Type (0, 0), BuildingBlock: KIFKEQ_clean_linker_1, # of connection points: 2
#     Edge 29, Type (0, 0), BuildingBlock: KIFKEQ_clean_linker_1, # of connection points: 2
#     Edge 30, Type (0, 0), BuildingBlock: KIFKEQ_clean_linker_1, # of connection points: 2
#     Edge 31, Type (0, 0), BuildingBlock: KIFKEQ_clean_linker_1, # of connection points: 2
#     Edge 32, Type (0, 0), BuildingBlock: KIFKEQ_clean_linker_1, # of connection points: 2
#     Edge 33, Type (0, 0), BuildingBlock: KIFKEQ_clean_linker_1, # of connection points: 2
#     Edge 34, Type (0, 0), BuildingBlock: KIFKEQ_clean_linker_1, # of connection points: 2
#     Edge 35, Type (0, 0), BuildingBlock: KIFKEQ_clean_linker_1, # of connection points: 2
#     Edge 36, Type (0, 0), BuildingBlock: KIFKEQ_clean_linker_1, # of connection points: 2
#     Edge 37, Type (0, 0), BuildingBlock: KIFKEQ_clean_linker_1, # of connection points: 2
#     Edge 38, Type (0, 0), BuildingBlock: KIFKEQ_clean_linker_1, # of connection points: 2
#     Edge 39, Type (0, 0), BuildingBlock: KIFKEQ_clean_linker_1, # of connection points: 2
#     Edge 40, Type (0, 0), BuildingBlock: KIFKEQ_clean_linker_1, # of connection points: 2
#     Edge 41, Type (0, 0), BuildingBlock: KIFKEQ_clean_linker_1, # of connection points: 2
#     Edge 42, Type (0, 0), BuildingBlock: KIFKEQ_clean_linker_1, # of connection points: 2
#     Edge 43, Type (0, 0), BuildingBlock: KIFKEQ_clean_linker_1, # of connection points: 2
#     Edge 44, Type (0, 0), BuildingBlock: KIFKEQ_clean_linker_1, # of connection points: 2
#     Edge 45, Type (0, 0), BuildingBlock: KIFKEQ_clean_linker_1, # of connection points: 2
#     Edge 46, Type (0, 0), BuildingBlock: KIFKEQ_clean_linker_1, # of connection points: 2
#     Edge 47, Type (0, 0), BuildingBlock: KIFKEQ_clean_linker_1, # of connection points: 2
#     Edge 48, Type (0, 0), BuildingBlock: KIFKEQ_clean_linker_1, # of connection points: 2
#     Edge 49, Type (0, 0), BuildingBlock: KIFKEQ_clean_linker_1, # of connection points: 2
#     Edge 50, Type (0, 0), BuildingBlock: KIFKEQ_clean_linker_1, # of connection points: 2
#     Edge 51, Type (0, 0), BuildingBlock: KIFKEQ_clean_linker_1, # of connection points: 2
#     Edge 52, Type (0, 0), BuildingBlock: KIFKEQ_clean_linker_1, # of connection points: 2
#     Edge 53, Type (0, 0), BuildingBlock: KIFKEQ_clean_linker_1, # of connection points: 2
#     Edge 54, Type (0, 0), BuildingBlock: KIFKEQ_clean_linker_1, # of connection points: 2
#     Edge 55, Type (0, 0), BuildingBlock: KIFKEQ_clean_linker_1, # of connection points: 2
#     Edge 56, Type (0, 0), BuildingBlock: KIFKEQ_clean_linker_1, # of connection points: 2
#     Edge 57, Type (0, 0), BuildingBlock: KIFKEQ_clean_linker_1, # of connection points: 2
#     Edge 58, Type (0, 0), BuildingBlock: KIFKEQ_clean_linker_1, # of connection points: 2
#     Edge 59, Type (0, 0), BuildingBlock: KIFKEQ_clean_linker_1, # of connection points: 2
#     Edge 60, Type (0, 0), BuildingBlock: KIFKEQ_clean_linker_1, # of connection points: 2
#     Edge 61, Type (0, 0), BuildingBlock: KIFKEQ_clean_linker_1, # of connection points: 2
#     Edge 62, Type (0, 0), BuildingBlock: KIFKEQ_clean_linker_1, # of connection points: 2
#     Edge 63, Type (0, 0), BuildingBlock: KIFKEQ_clean_linker_1, # of connection points: 2
#     Edge 64, Type (0, 0), BuildingBlock: KIFKEQ_clean_linker_1, # of connection points: 2
#     Edge 65, Type (0, 0), BuildingBlock: KIFKEQ_clean_linker_1, # of connection points: 2
#     Edge 66, Type (0, 0), BuildingBlock: KIFKEQ_clean_linker_1, # of connection points: 2
#     Edge 67, Type (0, 0), BuildingBlock: KIFKEQ_clean_linker_1, # of connection points: 2
#     Edge 68, Type (0, 0), BuildingBlock: KIFKEQ_clean_linker_1, # of connection points: 2
#     Edge 69, Type (0, 0), BuildingBlock: KIFKEQ_clean_linker_1, # of connection points: 2
#     Edge 70, Type (0, 0), BuildingBlock: KIFKEQ_clean_linker_1, # of connection points: 2
#     Edge 71, Type (0, 0), BuildingBlock: KIFKEQ_clean_linker_1, # of connection points: 2
# Relax obj value: 0.396
# Max RMSD: 0.213
# Mean RMSD: 0.213
data_MOF--net-lcy-a--node1-NAHDIM_clean_sbu_0--edge1-KIFKEQ_clean_linker_1
_symmetry_space_group_name_H-M    P1
_symmetry_Int_Tables_number       1
_symmetry_cell_setting            triclinic
loop_
_symmetry_equiv_pos_as_xyz
'x, y, z'
_cell_length_a     57.270099
_cell_length_b     57.240218
_cell_length_c     57.216062
_cell_angle_alpha  90.033849
_cell_angle_beta   89.975899
_cell_angle_gamma 90.00578
loop_
_atom_site_label
_atom_site_type_symbol
_atom_site_fract_x
_atom_site_fract_y
_atom_site_fract_z
_atom_type_partial_charge
C0 C 0.18626 0.28742 0.45257 0.0
O1 O 0.20744 0.29161 0.46029 0.0
O2 O 0.22496 0.27631 0.39623 0.0
Zn3 Zn 0.2073 0.30309 0.41066 0.0
O4 O 0.22884 0.32264 0.43014 0.0
C5 C 0.18444 0.31474 0.3673 0.0
O6 O 0.17933 0.29236 0.3671 0.0
O7 O 0.18157 0.29118 0.43118 0.0
C8 C 0.25056 0.32479 0.42623 0.0
O9 O 0.25993 0.31397 0.40827 0.0
C10 C 0.23024 0.2574 0.40662 0.0
O11 O 0.2239 0.25436 0.42846 0.0
O12 O 0.19525 0.32319 0.38474 0.0
C13 C 0.97388 0.8908 0.58229 0.0
O14 O 0.9872 0.90186 0.56722 0.0
O15 O 0.97094 0.94903 0.56764 0.0
Zn16 Zn 0.94292 0.92834 0.57176 0.0
O17 O 0.92163 0.94455 0.59455 0.0
C18 C 0.9047 0.92477 0.53904 0.0
O19 O 0.89263 0.91939 0.5578 0.0
O20 O 0.9531 0.89785 0.58548 0.0
C21 C 0.90749 0.93374 0.60781 0.0
O22 O 0.9064 0.91083 0.60684 0.0
C23 C 0.97949 0.96 0.58494 0.0
O24 O 0.97023 0.95712 0.60575 0.0
O25 O 0.92675 0.92666 0.54063 0.0
C26 C 0.2907 0.75075 0.91211 0.0
O27 O 0.26793 0.75003 0.91484 0.0
O28 O 0.25866 0.74196 0.85437 0.0
Zn29 Zn 0.27725 0.72112 0.87577 0.0
O30 O 0.25533 0.70427 0.89777 0.0
C31 C 0.2981 0.67654 0.86147 0.0
O32 O 0.29907 0.67195 0.88391 0.0
O33 O 0.29988 0.73974 0.8951 0.0
C34 C 0.26317 0.69575 0.91674 0.0
O35 O 0.28538 0.69835 0.92185 0.0
C36 C 0.2566 0.76409 0.85464 0.0
O37 O 0.26714 0.7764 0.87088 0.0
O38 O 0.29187 0.6968 0.85482 0.0
C39 C 0.5123 0.06605 0.15214 0.0
O40 O 0.50157 0.0554 0.13487 0.0
O41 O 0.52099 0.0092 0.13431 0.0
Zn42 Zn 0.54677 0.03147 0.14258 0.0
O43 O 0.56777 0.01543 0.16544 0.0
C44 C 0.55353 0.04053 0.09414 0.0
O45 O 0.53072 0.03803 0.09427 0.0
O46 O 0.5327 0.05953 0.15788 0.0
C47 C 0.57825 -0.00324 0.15962 0.0
O48 O 0.57567 0.98864 0.13829 0.0
C49 C 0.50702 0.00113 0.14956 0.0
O50 O 0.50974 0.00704 0.17159 0.0
O51 O 0.56456 0.03952 0.11337 0.0
C52 C 0.7127 0.27342 0.5802 0.0
O53 O 0.73486 0.27057 0.57501 0.0
O54 O 0.74522 0.26183 0.63992 0.0
Zn55 Zn 0.72616 0.24345 0.61686 0.0
O56 O 0.74708 0.2268 0.59412 0.0
C57 C 0.70908 0.21613 0.65586 0.0
O58 O 0.71769 0.23337 0.66832 0.0
O59 O 0.70454 0.26389 0.59853 0.0
C60 C 0.73722 0.2123 0.5805 0.0
O61 O 0.71452 0.20931 0.58204 0.0
C62 C 0.76623 0.26773 0.63598 0.0
O63 O 0.77546 0.26324 0.61544 0.0
O64 O 0.70911 0.21774 0.63372 0.0
C65 C 0.01923 0.39745 0.89384 0.0
O66 O 0.04213 0.39799 0.89523 0.0
O67 O 0.0015 0.4729 0.90482 0.0
Zn68 Zn 0.02443 0.44665 0.90059 0.0
O69 O 0.04527 0.45368 0.87322 0.0
C70 C 0.03609 0.44933 0.94918 0.0
O71 O 0.01327 0.45011 0.95145 0.0
O72 O 0.00783 0.41634 0.89601 0.0
C73 C 0.03786 0.45693 0.85256 0.0
O74 O 0.01542 0.45499 0.84825 0.0
C75 C 0.98196 0.47528 0.89456 0.0
O76 O 0.97506 0.45945 0.87944 0.0
O77 O 0.04479 0.44632 0.92899 0.0
C78 C 0.85782 0.8136 0.08716 0.0
O79 O 0.85958 0.80541 0.10853 0.0
O80 O 0.79795 0.80527 0.11118 0.0
Zn81 Zn 0.81534 0.83487 0.10404 0.0
O82 O 0.79281 0.85559 0.0872 0.0
C83 C 0.82684 0.83764 0.15241 0.0
O84 O 0.82594 0.8148 0.15034 0.0
O85 O 0.84129 0.82746 0.08217 0.0
C86 C 0.77185 0.8569 0.09437 0.0
O87 O 0.76589 0.84585 0.1136 0.0
C88 C 0.78677 0.79471 0.09517 0.0
O89 O 0.78791 0.80263 0.07365 0.0
O90 O 0.82482 0.85015 0.13418 0.0
C91 C 0.50242 0.56168 0.31184 0.0
O92 O 0.5105 0.55018 0.32996 0.0
O93 O 0.47971 0.51349 0.33804 0.0
Zn94 Zn 0.46005 0.53985 0.32604 0.0
O95 O 0.43537 0.52627 0.30537 0.0
C96 C 0.45661 0.5572 0.37251 0.0
O97 O 0.479 0.55219 0.37214 0.0
O98 O 0.48068 0.56111 0.30742 0.0
C99 C 0.42356 0.50916 0.31311 0.0
O100 O 0.42762 0.50152 0.33437 0.0
C101 C 0.49006 0.49918 0.32459 0.0
O102 O 0.48725 0.50097 0.30188 0.0
O103 O 0.4449 0.55513 0.35376 0.0
C104 C 0.42145 0.17158 0.25913 0.0
O105 O 0.42728 0.1937 0.26108 0.0
O106 O 0.37321 0.21117 0.25906 0.0
Zn107 Zn 0.38488 0.19002 0.28457 0.0
O108 O 0.40584 0.20816 0.30629 0.0
C109 C 0.35658 0.17556 0.32413 0.0
O110 O 0.37665 0.17505 0.33521 0.0
O111 O 0.40286 0.16447 0.26896 0.0
C112 C 0.42227 0.19892 0.31801 0.0
O113 O 0.42605 0.17635 0.31625 0.0
C114 C 0.38185 0.23114 0.25468 0.0
O115 O 0.39945 0.23881 0.26724 0.0
O116 O 0.35642 0.17943 0.30226 0.0
C117 C 0.06733 0.19889 0.5449 0.0
O118 O 0.04595 0.20666 0.54789 0.0
O119 O 0.02301 0.15765 0.52697 0.0
Zn120 Zn 0.04375 0.15759 0.55543 0.0
O121 O 0.02718 0.17005 0.5837 0.0
C122 C 0.05351 0.10959 0.54551 0.0
O123 O 0.05156 0.11703 0.52388 0.0
O124 O 0.07149 0.17734 0.54817 0.0
C125 C 0.00691 0.16276 0.58897 0.0
O126 O -0.00348 0.14754 0.57527 0.0
C127 C 0.00556 0.17076 0.52301 0.0
O128 O -0.00078 0.18632 0.53865 0.0
O129 O 0.05239 0.12428 0.56212 0.0
C130 C 0.0521 0.81278 0.71781 0.0
O131 O 0.04372 0.81645 0.73887 0.0
O132 O 0.10094 0.7548 0.72971 0.0
Zn133 Zn 0.08594 0.78397 0.74192 0.0
O134 O 0.06345 0.7752 0.76734 0.0
C135 C 0.13109 0.80445 0.74586 0.0
O136 O 0.13258 0.79691 0.72421 0.0
O137 O 0.07022 0.80026 0.71533 0.0
C138 C 0.04424 0.76467 0.76385 0.0
O139 O 0.03788 0.75966 0.74236 0.0
C140 C 0.0927 0.74205 0.71351 0.0
O141 O 0.07262 0.74755 0.70387 0.0
O142 O 0.11166 0.80277 0.75643 0.0
C143 C 0.39401 0.8261 0.03237 0.0
O144 O 0.40732 0.84372 0.02619 0.0
O145 O 0.4483 0.84074 0.04818 0.0
Zn146 Zn 0.42489 0.82776 0.0709 0.0
O147 O 0.44081 0.80192 0.0886 0.0
C148 C 0.41095 0.87378 0.08566 0.0
O149 O 0.40537 0.87598 0.06351 0.0
O150 O 0.39736 0.81639 0.05209 0.0
C151 C 0.45624 0.80867 0.10308 0.0
O152 O 0.4595 0.83119 0.10609 0.0
C153 C 0.46587 0.8297 0.04035 0.0
O154 O 0.47021 0.80844 0.0478 0.0
O155 O 0.41732 0.85389 0.09315 0.0
C156 C 0.93172 0.26553 0.82079 0.0
O157 O 0.91064 0.25931 0.82737 0.0
O158 O 0.90339 0.21367 0.79564 0.0
Zn159 Zn 0.9193 0.24041 0.77923 0.0
O160 O 0.93847 0.22816 0.75252 0.0
C161 C 0.87346 0.25953 0.76926 0.0
O162 O 0.8668 0.24594 0.78651 0.0
O163 O 0.93921 0.25909 0.80092 0.0
C164 C 0.92843 0.21449 0.73817 0.0
O165 O 0.90667 0.2083 0.74199 0.0
C166 C 0.91204 0.19325 0.79631 0.0
O167 O 0.93301 0.18965 0.78771 0.0
O168 O 0.89502 0.26081 0.7642 0.0
C169 C 0.93759 0.71851 0.96453 0.0
O170 O 0.96007 0.71995 0.96019 0.0
O171 O 0.97027 0.66921 0.97041 0.0
Zn172 Zn 0.94793 0.67635 0.94429 0.0
O173 O 0.965 0.68966 0.91661 0.0
C174 C 0.9309 0.6378 0.91562 0.0
O175 O 0.93652 0.6514 0.89802 0.0
O176 O 0.92649 0.70053 0.95768 0.0
C177 C 0.95434 0.70231 0.90181 0.0
O178 O 0.93193 0.70634 0.90464 0.0
C179 C 0.99155 0.67536 0.97136 0.0
O180 O 0.00087 0.68664 0.95367 0.0
O181 O 0.93256 0.64568 0.93633 0.0
C182 C 0.60401 0.65187 0.20288 0.0
O183 O 0.59687 0.65584 0.18145 0.0
O184 O 0.6318 0.71891 0.22771 0.0
Zn185 Zn 0.62232 0.69894 0.20033 0.0
O186 O 0.5922 0.71141 0.18692 0.0
C187 C 0.6494 0.71841 0.16427 0.0
O188 O 0.63319 0.73447 0.16674 0.0
O189 O 0.61645 0.66707 0.21316 0.0
C190 C 0.58518 0.7085 0.16605 0.0
O191 O 0.59802 0.69636 0.15139 0.0
C192 C 0.62224 0.73843 0.23223 0.0
O193 O 0.60562 0.74624 0.21848 0.0
O194 O 0.64838 0.7001 0.17677 0.0
C195 C 0.59421 0.33615 0.468 0.0
O196 O 0.5819 0.35483 0.47309 0.0
O197 O 0.53622 0.34609 0.46029 0.0
Zn198 Zn 0.55669 0.33063 0.4363 0.0
O199 O 0.53997 0.30241 0.42367 0.0
C200 C 0.57084 0.37245 0.41065 0.0
O201 O 0.58313 0.37739 0.42938 0.0
O202 O 0.58735 0.32278 0.45161 0.0
C203 C 0.5184 0.30562 0.41951 0.0
O204 O 0.50909 0.32599 0.42452 0.0
C205 C 0.53062 0.33685 0.47969 0.0
O206 O 0.53806 0.31573 0.48469 0.0
O207 O 0.5598 0.35323 0.40967 0.0
C208 C 0.24094 0.42111 0.16421 0.0
O209 O 0.22544 0.40575 0.17131 0.0
O210 O 0.24637 0.38275 0.21304 0.0
Zn211 Zn 0.27286 0.39567 0.19408 0.0
O212 O 0.2936 0.41324 0.21601 0.0
C213 C 0.28334 0.34894 0.17927 0.0
O214 O 0.26078 0.34614 0.18234 0.0
O215 O 0.26209 0.41885 0.17039 0.0
C216 C 0.31198 0.42263 0.2079 0.0
O217 O 0.31675 0.42033 0.18554 0.0
C218 C 0.2333 0.39565 0.2255 0.0
O219 O 0.23631 0.4184 0.22504 0.0
O220 O 0.29197 0.3693 0.18112 0.0
C221 C 0.73387 0.0065 0.76571 0.0
O222 O 0.72732 0.01133 0.74425 0.0
O223 O 0.75082 0.05944 0.73793 0.0
Zn224 Zn 0.77198 0.03579 0.75308 0.0
O225 O 0.78942 0.01668 0.72945 0.0
C226 C 0.78957 0.07262 0.78192 0.0
O227 O 0.76775 0.07955 0.78049 0.0
O228 O 0.75288 0.01494 0.77343 0.0
C229 C 0.80192 0.02673 0.71412 0.0
O230 O 0.80252 0.04967 0.71343 0.0
C231 C 0.74364 0.05951 0.71694 0.0
O232 O 0.74981 0.04255 0.70274 0.0
O233 O 0.7955 0.05354 0.77224 0.0
C234 C 0.18288 0.57211 0.09669 0.0
O235 O 0.19318 0.58034 0.07792 0.0
O236 O 0.12664 0.56664 0.05753 0.0
Zn237 Zn 0.14383 0.59233 0.07422 0.0
O238 O 0.16509 0.60825 0.05136 0.0
C239 C 0.09911 0.60885 0.0874 0.0
O240 O 0.09559 0.58646 0.09103 0.0
O241 O 0.16158 0.57721 0.10035 0.0
C242 C 0.1587 0.61071 0.03025 0.0
O243 O 0.13829 0.60253 0.02369 0.0
C244 C 0.13514 0.54659 0.05325 0.0
O245 O 0.15676 0.54196 0.05934 0.0
O246 O 0.11983 0.61588 0.08375 0.0
C247 C 0.73737 0.92602 0.34836 0.0
O248 O 0.74956 0.90699 0.34434 0.0
O249 O 0.73382 0.89412 0.29818 0.0
Zn250 Zn 0.70595 0.90401 0.31706 0.0
O251 O 0.68444 0.9206 0.29507 0.0
C252 C 0.69997 0.85619 0.32971 0.0
O253 O 0.72284 0.8562 0.32783 0.0
O254 O 0.71661 0.92728 0.34071 0.0
C255 C 0.67485 0.90954 0.27839 0.0
O256 O 0.67867 0.887 0.27622 0.0
C257 C 0.74297 0.90846 0.28394 0.0
O258 O 0.73407 0.92951 0.28195 0.0
O259 O 0.6892 0.87558 0.32891 0.0
C260 C 0.33842 0.48008 0.56958 0.0
O261 O 0.33079 0.48019 0.54793 0.0
O262 O 0.38616 0.49203 0.52601 0.0
Zn263 Zn 0.37811 0.46395 0.54569 0.0
O264 O 0.3596 0.44144 0.52589 0.0
C265 C 0.40881 0.4271 0.56157 0.0
O266 O 0.38915 0.41654 0.56685 0.0
O267 O 0.35928 0.47367 0.57359 0.0
C268 C 0.34486 0.42708 0.53421 0.0
O269 O 0.3411 0.42663 0.55686 0.0
C270 C 0.37393 0.49749 0.5083 0.0
O271 O 0.3551 0.48527 0.50353 0.0
O272 O 0.40819 0.448 0.55409 0.0
C273 C 0.23207 0.54226 0.69454 0.0
O274 O 0.23908 0.56093 0.70588 0.0
O275 O 0.20993 0.56857 0.74432 0.0
Zn276 Zn 0.19049 0.55146 0.72062 0.0
O277 O 0.16849 0.52953 0.73725 0.0
C278 C 0.18173 0.59429 0.69609 0.0
O279 O 0.20461 0.59558 0.69678 0.0
O280 O 0.21149 0.5346 0.69791 0.0
C281 C 0.14916 0.53789 0.74432 0.0
O282 O 0.14452 0.56002 0.74043 0.0
C283 C 0.22599 0.55983 0.7569 0.0
O284 O 0.2303 0.53731 0.7557 0.0
O285 O 0.17174 0.57612 0.70399 0.0
C286 C 0.63268 0.94218 0.89111 0.0
O287 O 0.61277 0.95264 0.89567 0.0
O288 O 0.62277 0.9621 0.95115 0.0
Zn289 Zn 0.63013 0.92971 0.93954 0.0
O290 O 0.65408 0.91613 0.96111 0.0
C291 C 0.5815 0.91914 0.94491 0.0
O292 O 0.57963 0.94199 0.94384 0.0
O293 O 0.64284 0.93079 0.90718 0.0
C294 C 0.64955 0.916 0.98286 0.0
O295 O 0.62935 0.92413 0.99011 0.0
C296 C 0.63768 0.97441 0.96204 0.0
O297 O 0.65926 0.96685 0.96389 0.0
O298 O 0.60139 0.90976 0.94202 0.0
C299 C 0.83222 0.06933 0.38153 0.0
O300 O 0.85462 0.06487 0.38358 0.0
O301 O 0.85244 0.06712 0.43768 0.0
Zn302 Zn 0.84202 0.09639 0.42127 0.0
O303 O 0.82162 0.11433 0.44326 0.0
C304 C 0.89031 0.10657 0.41401 0.0
O305 O 0.89157 0.08367 0.41305 0.0
O306 O 0.8235 0.08572 0.39368 0.0
C307 C 0.83029 0.11959 0.463 0.0
O308 O 0.85169 0.11291 0.46788 0.0
C309 C 0.8389 0.04972 0.44028 0.0
O310 O 0.81718 0.05121 0.43306 0.0
O311 O 0.8703 0.11615 0.41469 0.0
H312 H 0.11374 0.18945 0.53932 0.0
H313 H 0.06179 0.24308 0.52802 0.0
H314 H 0.14262 0.21325 0.51895 0.0
H315 H 0.09075 0.26682 0.5077 0.0
H316 H 0.13987 0.28062 0.44382 0.0
H317 H 0.11136 0.26135 0.46897 0.0
H318 H 0.16429 0.25161 0.52182 0.0
H319 H 0.19287 0.27083 0.49673 0.0
C320 C 0.10857 0.20643 0.53278 0.0
C321 C 0.08547 0.21432 0.53511 0.0
C322 C 0.12513 0.22009 0.52122 0.0
C323 C 0.11882 0.24177 0.51165 0.0
C324 C 0.09595 0.25004 0.51471 0.0
C325 C 0.07945 0.23649 0.52645 0.0
C326 C 0.14538 0.27453 0.46087 0.0
C327 C 0.16863 0.27711 0.46825 0.0
C328 C 0.12904 0.26365 0.47531 0.0
C329 C 0.13569 0.255 0.49729 0.0
C330 C 0.15879 0.25799 0.50487 0.0
C331 C 0.17509 0.26905 0.49053 0.0
H332 H 0.01962 0.87778 0.5857 0.0
H333 H 0.95188 0.8667 0.61718 0.0
H334 H 0.03792 0.85683 0.61779 0.0
H335 H 0.9702 0.84522 0.64903 0.0
H336 H 0.01397 0.84147 0.71649 0.0
H337 H 0.99429 0.85684 0.68203 0.0
H338 H 0.04287 0.81986 0.63758 0.0
H339 H 0.06289 0.80494 0.672 0.0
C340 C 0.00856 0.87039 0.59917 0.0
C341 C 0.98432 0.87416 0.59903 0.0
C342 C 0.01907 0.85832 0.61756 0.0
C343 C 0.00553 0.84967 0.63615 0.0
C344 C 0.98114 0.85214 0.63523 0.0
C345 C 0.97063 0.86426 0.61686 0.0
C346 C 0.02044 0.83662 0.69937 0.0
C347 C 0.04007 0.82213 0.69699 0.0
C348 C 0.00903 0.84524 0.67961 0.0
C349 C 0.01696 0.83948 0.65705 0.0
C350 C 0.03647 0.82481 0.6547 0.0
C351 C 0.04792 0.81624 0.67444 0.0
H352 H 0.33714 0.76139 0.9091 0.0
H353 H 0.27719 0.76707 0.95471 0.0
H354 H 0.36129 0.78039 0.93877 0.0
H355 H 0.30137 0.78595 0.98428 0.0
H356 H 0.36147 0.79169 0.0395 0.0
H357 H 0.33582 0.77398 0.01022 0.0
H358 H 0.36332 0.82066 0.95774 0.0
H359 H 0.38881 0.8384 0.98677 0.0
C360 C 0.32913 0.76675 0.9254 0.0
C361 C 0.30529 0.76281 0.92956 0.0
C362 C 0.3429 0.77767 0.94231 0.0
C363 C 0.33313 0.78458 0.96377 0.0
C364 C 0.30933 0.78062 0.96794 0.0
C365 C 0.2955 0.76996 0.95094 0.0
C366 C 0.36188 0.79827 0.02176 0.0
C367 C 0.37719 0.81638 0.01543 0.0
C368 C 0.3472 0.78819 0.00505 0.0
C369 C 0.34779 0.79589 0.98174 0.0
C370 C 0.36277 0.81424 0.97554 0.0
C371 C 0.37723 0.82447 0.99223 0.0
H372 H 0.52982 0.09261 0.18771 0.0
H373 H 0.46622 0.0779 0.14973 0.0
H374 H 0.50813 0.11806 0.21415 0.0
H375 H 0.44465 0.10348 0.17612 0.0
H376 H 0.41078 0.1272 0.24498 0.0
H377 H 0.43329 0.10236 0.21855 0.0
H378 H 0.48627 0.15582 0.21334 0.0
H379 H 0.46395 0.18059 0.23982 0.0
C380 C 0.51127 0.09499 0.18486 0.0
C381 C 0.49971 0.08321 0.16668 0.0
C382 C 0.49889 0.10958 0.19997 0.0
C383 C 0.4747 0.11254 0.19727 0.0
C384 C 0.46324 0.1012 0.17878 0.0
C385 C 0.47564 0.08674 0.16357 0.0
C386 C 0.42731 0.13357 0.23832 0.0
C387 C 0.43558 0.15585 0.24441 0.0
C388 C 0.44008 0.11944 0.22307 0.0
C389 C 0.46142 0.12728 0.21381 0.0
C390 C 0.46993 0.14932 0.22032 0.0
C391 C 0.4571 0.16351 0.23542 0.0
H392 H 0.6683 0.28872 0.58824 0.0
H393 H 0.72166 0.28516 0.53489 0.0
H394 H 0.64144 0.30609 0.56006 0.0
H395 H 0.69466 0.30242 0.50672 0.0
H396 H 0.62578 0.30089 0.46108 0.0
H397 H 0.65627 0.28796 0.48805 0.0
H398 H 0.63779 0.34344 0.53574 0.0
H399 H 0.60747 0.35648 0.50891 0.0
C400 C 0.67434 0.29182 0.57057 0.0
C401 C 0.69704 0.28556 0.56376 0.0
C402 C 0.65902 0.30185 0.5545 0.0
C403 C 0.66603 0.30552 0.53126 0.0
C404 C 0.68883 0.29961 0.52451 0.0
C405 C 0.70427 0.28987 0.54067 0.0
C406 C 0.62842 0.31048 0.47718 0.0
C407 C 0.61414 0.32959 0.48294 0.0
C408 C 0.64591 0.30315 0.49254 0.0
C409 C 0.6492 0.31465 0.51399 0.0
C410 C 0.63541 0.33416 0.5194 0.0
C411 C 0.61814 0.34165 0.50397 0.0
H412 H 0.97587 0.28112 0.81207 0.0
H413 H 0.9196 0.28617 0.86222 0.0
H414 H -0.00239 0.31065 0.83349 0.0
H415 H 0.94166 0.31553 0.88393 0.0
H416 H 0.97224 0.39078 0.88999 0.0
H417 H 0.95206 0.35621 0.87579 0.0
H418 H 0.01798 0.31997 0.8699 0.0
H419 H 0.03832 0.3548 0.88376 0.0
C420 C 0.96828 0.28828 0.82787 0.0
C421 C 0.94589 0.2815 0.8353 0.0
C422 C 0.98085 0.30508 0.84026 0.0
C423 C 0.97131 0.31549 0.86035 0.0
C424 C 0.94933 0.30801 0.86834 0.0
C425 C 0.93675 0.29115 0.85595 0.0
C426 C 0.98244 0.37537 0.88593 0.0
C427 C 0.00691 0.37561 0.88775 0.0
C428 C 0.97084 0.35548 0.87796 0.0
C429 C 0.98344 0.3354 0.87163 0.0
C430 C 0.00784 0.3353 0.87438 0.0
C431 C 0.01946 0.35521 0.8824 0.0
H432 H 0.89737 0.78706 0.09086 0.0
H433 H 0.85013 0.8174 0.04033 0.0
H434 H 0.9177 0.76664 0.05924 0.0
H435 H 0.87027 0.79674 0.009 0.0
H436 H 0.89094 0.72532 0.97225 0.0
H437 H 0.87313 0.75156 0.00097 0.0
H438 H 0.94143 0.77637 0.02098 0.0
H439 H 0.95928 0.75052 0.99215 0.0
C440 C 0.89154 0.78962 0.07303 0.0
C441 C 0.87211 0.80373 0.0681 0.0
C442 C 0.90319 0.778 0.05498 0.0
C443 C 0.89535 0.78006 0.03181 0.0
C444 C 0.87646 0.79477 0.02678 0.0
C445 C 0.86507 0.80667 0.04473 0.0
C446 C 0.9021 0.73661 0.98256 0.0
C447 C 0.92647 0.73584 0.98001 0.0
C448 C 0.89193 0.75163 -0.00111 0.0
C449 C 0.906 0.76582 0.01316 0.0
C450 C 0.93029 0.76546 0.01025 0.0
C451 C 0.94043 0.75076 0.99367 0.0
H452 H 0.61358 0.6404 0.24812 0.0
H453 H 0.56982 0.62122 0.1896 0.0
H454 H 0.59009 0.61614 0.27374 0.0
H455 H 0.54662 0.59634 0.21527 0.0
H456 H 0.49166 0.58808 0.27359 0.0
H457 H 0.51862 0.60573 0.24584 0.0
H458 H 0.57697 0.57765 0.2846 0.0
H459 H 0.55003 0.5605 0.31271 0.0
C460 C 0.5993 0.63053 0.24059 0.0
C461 C 0.5933 0.63306 0.2169 0.0
C462 C 0.58587 0.61653 0.2553 0.0
C463 C 0.56624 0.60466 0.24661 0.0
C464 C 0.56134 0.60573 0.22255 0.0
C465 C 0.57477 0.6198 0.20781 0.0
C466 C 0.51024 0.58572 0.27622 0.0
C467 C 0.51872 0.57305 0.29543 0.0
C468 C 0.52569 0.59559 0.26016 0.0
C469 C 0.54993 0.59292 0.26292 0.0
C470 C 0.5584 0.58016 0.28209 0.0
C471 C 0.54295 0.57037 0.29821 0.0
H472 H 0.26805 0.45854 0.1526 0.0
H473 H 0.19685 0.43347 0.15063 0.0
H474 H 0.25519 0.49644 0.1385 0.0
H475 H 0.18408 0.47129 0.13581 0.0
H476 H 0.16469 0.5475 0.13343 0.0
H477 H 0.17959 0.51112 0.14976 0.0
H478 H 0.23986 0.51555 0.1045 0.0
H479 H 0.22537 0.55216 0.08869 0.0
C480 C 0.24968 0.46098 0.14881 0.0
C481 C 0.23344 0.44299 0.15281 0.0
C482 C 0.24233 0.48274 0.14071 0.0
C483 C 0.21858 0.48697 0.13629 0.0
C484 C 0.20243 0.46874 0.13957 0.0
C485 C 0.20978 0.44698 0.14778 0.0
C486 C 0.18134 0.54094 0.12731 0.0
C487 C 0.19375 0.55263 0.10964 0.0
C488 C 0.18974 0.51996 0.13645 0.0
C489 C 0.21069 0.51023 0.1281 0.0
C490 C 0.2237 0.5226 0.11136 0.0
C491 C 0.21536 0.54361 0.10229 0.0
H492 H 0.62015 0.97181 0.85576 0.0
H493 H 0.67316 0.92207 0.87616 0.0
H494 H 0.64407 0.98353 0.82248 0.0
H495 H 0.69683 0.93357 0.84275 0.0
H496 H 0.74426 0.99002 0.8091 0.0
H497 H 0.71827 0.97033 0.83627 0.0
H498 H 0.66301 0.97198 0.78492 0.0
H499 H 0.68906 0.99201 0.75761 0.0
C500 C 0.63665 0.96302 0.85286 0.0
C501 C 0.64497 0.94634 0.86882 0.0
C502 C 0.65029 0.96965 0.83373 0.0
C503 C 0.67245 0.95968 0.83025 0.0
C504 C 0.68 0.94184 0.84528 0.0
C505 C 0.6664 0.93523 0.86437 0.0
C506 C 0.72665 0.986 0.80347 0.0
C507 C 0.71865 0.99272 0.78129 0.0
C508 C 0.71181 0.97453 0.81898 0.0
C509 C 0.68862 0.96959 0.81268 0.0
C510 C 0.68077 0.97572 0.79026 0.0
C511 C 0.6957 0.98709 0.77463 0.0
H512 H 0.78149 0.93025 0.36594 0.0
H513 H 0.72063 0.97068 0.34702 0.0
H514 H 0.80337 0.96622 0.37209 0.0
H515 H 0.74271 0.00655 0.35229 0.0
H516 H 0.78487 0.06596 0.38665 0.0
H517 H 0.76103 0.03152 0.37994 0.0
H518 H 0.82021 -0.00342 0.34863 0.0
H519 H 0.84434 0.0308 0.35616 0.0
C520 C 0.77272 0.94681 0.3633 0.0
C521 C 0.74937 0.94759 0.35591 0.0
C522 C 0.78535 0.96743 0.3665 0.0
C523 C 0.77494 0.98927 0.36219 0.0
C524 C 0.75126 0.99005 0.35583 0.0
C525 C 0.73858 0.96945 0.35283 0.0
C526 C 0.79271 0.05113 0.37788 0.0
C527 C 0.8166 0.05103 0.37216 0.0
C528 C 0.77901 0.03132 0.37408 0.0
C529 C 0.78883 0.01109 0.36422 0.0
C530 C 0.81228 0.01163 0.35693 0.0
C531 C 0.82604 0.03137 0.36092 0.0
H532 H 0.22193 0.50678 0.66407 0.0
H533 H 0.27789 0.55216 0.68671 0.0
H534 H 0.24785 0.48953 0.63484 0.0
H535 H 0.30357 0.53511 0.65744 0.0
H536 H 0.34932 0.48521 0.61584 0.0
H537 H 0.32348 0.49796 0.64733 0.0
H538 H 0.26651 0.50366 0.59821 0.0
H539 H 0.29215 0.49073 0.56682 0.0
C540 C 0.23976 0.51298 0.66289 0.0
C541 C 0.24783 0.5309 0.67759 0.0
C542 C 0.25455 0.50318 0.64612 0.0
C543 C 0.2777 0.51102 0.64387 0.0
C544 C 0.28589 0.52854 0.65895 0.0
C545 C 0.27111 0.53841 0.6756 0.0
C546 C 0.33125 0.48908 0.6118 0.0
C547 C 0.3228 0.48711 0.58884 0.0
C548 C 0.3165 0.49643 0.6298 0.0
C549 C 0.29301 0.50181 0.62519 0.0
C550 C 0.28446 0.49937 0.60232 0.0
C551 C 0.29922 0.49215 0.58432 0.0
H552 H 0.31242 0.3942 0.54615 0.0
H553 H 0.34793 0.42422 0.48662 0.0
H554 H 0.29051 0.36863 0.5201 0.0
H555 H 0.32569 0.39893 0.46057 0.0
H556 H 0.29744 0.33383 0.42319 0.0
H557 H 0.32101 0.35772 0.44957 0.0
H558 H 0.25969 0.3726 0.49099 0.0
H559 H 0.23628 0.3485 0.46502 0.0
C560 C 0.31554 0.39537 0.52752 0.0
C561 C 0.33186 0.41129 0.51846 0.0
C562 C 0.30291 0.38079 0.51259 0.0
C563 C 0.30631 0.38183 0.48827 0.0
C564 C 0.32286 0.39754 0.47924 0.0
C565 C 0.33549 0.41213 0.49417 0.0
C566 C 0.28902 0.34218 0.43795 0.0
C567 C 0.265 0.33927 0.442 0.0
C568 C 0.3025 0.35594 0.45299 0.0
C569 C 0.29221 0.36699 0.47238 0.0
C570 C 0.2682 0.36403 0.47641 0.0
C571 C 0.25475 0.35034 0.4614 0.0
H572 H 0.91143 0.97934 0.62095 0.0
H573 H 0.86821 0.91815 0.62996 0.0
H574 H 0.88563 0.00143 0.64649 0.0
H575 H 0.84176 0.94049 0.65474 0.0
H576 H 0.81298 0.98048 0.71744 0.0
H577 H 0.83848 0.95794 0.69196 0.0
H578 H 0.8483 0.01871 0.64815 0.0
H579 H 0.8236 0.04147 0.67428 0.0
C580 C 0.89629 0.97066 0.62827 0.0
C581 C 0.89185 0.947 0.62348 0.0
C582 C 0.88138 0.98338 0.64278 0.0
C583 C 0.86149 0.97282 0.65262 0.0
C584 C 0.85708 0.94912 0.64778 0.0
C585 C 0.87218 0.93631 0.63348 0.0
C586 C 0.82053 0.98899 0.70232 0.0
C587 C 0.81637 0.01277 0.69791 0.0
C588 C 0.83507 0.97603 0.68761 0.0
C589 C 0.84555 0.98648 0.66799 0.0
C590 C 0.84095 0.01018 0.66336 0.0
C591 C 0.82664 0.02321 0.67824 0.0
H592 H 0.27587 0.66972 0.95444 0.0
H593 H 0.21548 0.69288 0.91556 0.0
H594 H 0.25061 0.64865 0.98129 0.0
H595 H 0.19006 0.67241 0.94297 0.0
H596 H 0.15316 0.61401 0.98294 0.0
H597 H 0.17841 0.63407 0.95514 0.0
H598 H 0.22333 0.65582 0.01183 0.0
H599 H 0.19857 0.6351 0.03945 0.0
C600 C 0.25716 0.67044 0.95172 0.0
C601 C 0.24765 0.683 0.93292 0.0
C602 C 0.24266 0.65846 0.96721 0.0
C603 C 0.21829 0.65893 0.96438 0.0
C604 C 0.20878 0.67143 0.94548 0.0
C605 C 0.22332 0.68327 0.92986 0.0
C606 C 0.16846 0.62305 0.98944 0.0
C607 C 0.17391 0.62293 0.01338 0.0
C608 C 0.18285 0.63467 0.97352 0.0
C609 C 0.20291 0.64656 0.98123 0.0
C610 C 0.20825 0.64651 0.00522 0.0
C611 C 0.19398 0.63474 0.02109 0.0
H612 H 0.60591 0.95853 0.1522 0.0
H613 H 0.58273 0.006 0.20621 0.0
H614 H 0.62924 0.9374 0.18088 0.0
H615 H 0.60546 0.98452 0.23494 0.0
H616 H 0.66817 0.95659 0.27487 0.0
H617 H 0.6452 0.97751 0.24592 0.0
H618 H 0.62528 0.91191 0.21423 0.0
H619 H 0.64886 0.89097 0.24286 0.0
C620 C 0.60572 0.9644 0.1702 0.0
C621 C 0.59254 0.98399 0.17691 0.0
C622 C 0.61897 0.95219 0.18667 0.0
C623 C 0.61922 0.95925 0.21022 0.0
C624 C 0.60596 0.97882 0.21689 0.0
C625 C 0.59283 0.99108 0.20042 0.0
C626 C 0.65885 0.94661 0.26177 0.0
C627 C 0.66032 0.92211 0.26117 0.0
C628 C 0.64558 0.95861 0.24522 0.0
C629 C 0.63336 0.94639 0.22776 0.0
C630 C 0.63475 0.92187 0.22724 0.0
C631 C 0.64814 0.90985 0.24374 0.0
H632 H 0.7839 0.21596 0.57101 0.0
H633 H 0.72158 0.17839 0.5509 0.0
H634 H 0.80639 0.19386 0.54233 0.0
H635 H 0.74415 0.15596 0.52267 0.0
H636 H 0.78657 0.13796 0.45761 0.0
H637 H 0.76432 0.16083 0.48581 0.0
H638 H 0.82071 0.15451 0.53557 0.0
H639 H 0.84319 0.13212 0.5072 0.0
C640 C 0.77502 0.20293 0.56054 0.0
C641 C 0.75096 0.19894 0.56321 0.0
C642 C 0.78793 0.19017 0.5442 0.0
C643 C 0.77705 0.17314 0.53023 0.0
C644 C 0.75299 0.16918 0.53292 0.0
C645 C 0.74008 0.18196 0.54921 0.0
C646 C 0.79422 0.14146 0.47457 0.0
C647 C 0.81664 0.13323 0.48017 0.0
C648 C 0.78142 0.15446 0.49077 0.0
C649 C 0.79074 0.15948 0.51294 0.0
C650 C 0.81316 0.15123 0.51853 0.0
C651 C 0.82599 0.13826 0.50231 0.0
H652 H 0.15575 0.49391 0.7621 0.0
H653 H 0.10457 0.5491 0.75641 0.0
H654 H 0.12849 0.47124 0.78596 0.0
H655 H 0.07755 0.52658 0.78026 0.0
H656 H 0.02715 0.47324 0.80893 0.0
H657 H 0.05387 0.49014 0.78028 0.0
H658 H 0.11203 0.47594 0.82614 0.0
H659 H 0.08545 0.45892 0.85469 0.0
C660 C 0.13865 0.50111 0.76577 0.0
C661 C 0.13237 0.52335 0.7575 0.0
C662 C 0.1231 0.48817 0.77949 0.0
C663 C 0.1009 0.49714 0.78496 0.0
C664 C 0.09442 0.51907 0.7761 0.0
C665 C 0.10999 0.53206 0.76259 0.0
C666 C 0.04567 0.47344 0.81277 0.0
C667 C 0.05415 0.46493 0.83417 0.0
C668 C 0.06094 0.48321 0.79641 0.0
C669 C 0.08501 0.48448 0.80104 0.0
C670 C 0.0936 0.47504 0.82199 0.0
C671 C 0.07833 0.46543 0.83841 0.0
H672 H 0.69169 0.89572 0.97359 0.0
H673 H 0.64749 0.9184 0.0305 0.0
H674 H 0.72107 0.883 0.00153 0.0
H675 H 0.67719 0.90621 0.05846 0.0
H676 H 0.72453 0.85602 0.10033 0.0
H677 H 0.69486 0.87106 0.07382 0.0
H678 H 0.74892 0.89873 0.02895 0.0
H679 H 0.77859 0.88315 0.05512 0.0
C680 C 0.68829 0.89808 0.99206 0.0
C681 C 0.66725 0.90801 -0.00017 0.0
C682 C 0.70521 0.89096 0.00808 0.0
C683 C 0.70154 0.89372 0.03222 0.0
C684 C 0.68046 0.90362 0.03999 0.0
C685 C 0.66347 0.91067 0.02396 0.0
C686 C 0.73009 0.86552 0.08493 0.0
C687 C 0.75391 0.86825 0.07973 0.0
C688 C 0.71307 0.87421 0.06978 0.0
C689 C 0.71953 0.88591 0.04916 0.0
C690 C 0.74337 0.88938 0.04444 0.0
C691 C 0.76037 0.8806 0.05953 0.0
H692 H 0.30614 0.43226 0.25432 0.0
H693 H 0.35354 0.44305 0.19651 0.0
H694 H 0.33226 0.45413 0.27985 0.0
H695 H 0.37989 0.46444 0.22217 0.0
H696 H 0.41033 0.52116 0.26882 0.0
H697 H 0.38261 0.50096 0.24359 0.0
H698 H 0.37037 0.44997 0.2979 0.0
H699 H 0.39766 0.47044 0.32332 0.0
C700 C 0.32217 0.43923 0.24707 0.0
C701 C 0.32779 0.43591 0.22339 0.0
C702 C 0.33719 0.45166 0.26174 0.0
C703 C 0.35816 0.461 0.25305 0.0
C704 C 0.36371 0.45775 0.22933 0.0
C705 C 0.34868 0.44535 0.21466 0.0
C706 C 0.40164 0.5057 0.27541 0.0
C707 C 0.40621 0.49738 0.29806 0.0
C708 C 0.38586 0.49405 0.26091 0.0
C709 C 0.37436 0.47381 0.26871 0.0
C710 C 0.37873 0.46567 0.29146 0.0
C711 C 0.39447 0.47734 0.30599 0.0
H712 H 0.53352 0.2656 0.39787 0.0
H713 H 0.47133 0.30539 0.41352 0.0
H714 H 0.51031 0.23875 0.37412 0.0
H715 H 0.44816 0.27835 0.3904 0.0
H716 H 0.42049 0.24619 0.32342 0.0
H717 H 0.44383 0.27038 0.34931 0.0
H718 H 0.47971 0.20899 0.37458 0.0
H719 H 0.45661 0.18469 0.34815 0.0
C720 C 0.51487 0.26839 0.39654 0.0
C721 C 0.50429 0.28775 0.40734 0.0
C722 C 0.50156 0.25298 0.383 0.0
C723 C 0.47744 0.2566 0.38011 0.0
C724 C 0.46678 0.27538 0.39181 0.0
C725 C 0.48006 0.29081 0.40519 0.0
C726 C 0.43333 0.2378 0.33449 0.0
C727 C 0.43665 0.2135 0.33376 0.0
C728 C 0.44662 0.25167 0.34947 0.0
C729 C 0.4635 0.24159 0.36418 0.0
C730 C 0.46696 0.21729 0.36335 0.0
C731 C 0.45366 0.20337 0.34828 0.0
H732 H 0.02753 0.18259 0.62703 0.0
H733 H 0.96061 0.16079 0.59994 0.0
H734 H 0.0091 0.19428 0.6635 0.0
H735 H 0.94185 0.17363 0.63592 0.0
H736 H 0.9177 0.17691 0.71104 0.0
H737 H 0.93702 0.16418 0.67535 0.0
H738 H 0.9851 0.22222 0.6809 0.0
H739 H 0.96648 0.2341 0.71726 0.0
C740 C 0.0088 0.18058 0.62878 0.0
C741 C 0.9955 0.17073 0.61068 0.0
C742 C -0.00182 0.18741 0.64967 0.0
C743 C 0.97393 0.18492 0.65278 0.0
C744 C 0.96061 0.17537 0.63442 0.0
C745 C 0.97132 0.16816 0.61369 0.0
C746 C 0.93249 0.18684 0.70466 0.0
C747 C 0.94062 0.20646 0.71692 0.0
C748 C 0.94347 0.17967 0.68407 0.0
C749 C 0.96259 0.19222 0.67505 0.0
C750 C 0.97072 0.21185 0.68746 0.0
C751 C 0.95998 0.21876 0.70827 0.0
H752 H 0.93614 0.72626 0.86469 0.0
H753 H 0.00115 0.70043 0.89305 0.0
H754 H 0.95718 0.74237 0.83124 0.0
H755 H 0.02205 0.71636 0.85957 0.0
H756 H 0.05438 0.7695 0.81019 0.0
H757 H 0.03202 0.75522 0.84342 0.0
H758 H 0.97954 0.72805 0.79653 0.0
H759 H 0.00183 0.74254 0.76312 0.0
C760 C 0.95489 0.72401 0.86379 0.0
C761 C 0.96698 0.71209 0.88153 0.0
C762 C 0.9669 0.73313 0.84458 0.0
C763 C 0.99125 0.73067 0.84283 0.0
C764 C 0.00332 0.71878 0.86059 0.0
C765 C 0.99132 0.70954 0.8797 0.0
C766 C 0.03802 0.76059 0.80691 0.0
C767 C 0.02994 0.75705 0.78398 0.0
C768 C 0.02529 0.7523 0.82597 0.0
C769 C 0.00413 0.74037 0.82256 0.0
C770 C 0.99572 0.73732 0.79969 0.0
C771 C 0.00854 0.74552 0.78056 0.0
H772 H 0.56634 0.70856 0.12207 0.0
H773 H 0.55512 0.73488 0.19202 0.0
H774 H 0.53262 0.73074 0.1084 0.0
H775 H 0.52127 0.75668 0.1784 0.0
H776 H 0.48782 0.81759 0.13741 0.0
H777 H 0.51675 0.79114 0.15362 0.0
H778 H 0.48962 0.73503 0.111 0.0
H779 H 0.46068 0.76174 0.09442 0.0
C780 C 0.55652 0.71882 0.13458 0.0
C781 C 0.56357 0.72016 0.15807 0.0
C782 C 0.5371 0.7314 0.12677 0.0
C783 C 0.52439 0.74558 0.1423 0.0
C784 C 0.53093 0.74619 0.16595 0.0
C785 C 0.55029 0.73363 0.17375 0.0
C786 C 0.48783 0.79956 0.13164 0.0
C787 C 0.47203 0.79179 0.11455 0.0
C788 C 0.50433 0.78435 0.14105 0.0
C789 C 0.50549 0.761 0.13357 0.0
C790 C 0.48927 0.753 0.11694 0.0
C791 C 0.47262 0.76824 0.10758 0.0
H792 H 0.19568 0.36066 0.36145 0.0
H793 H 0.16779 0.30096 0.32455 0.0
H794 H 0.19995 0.38141 0.3248 0.0
H795 H 0.17143 0.32212 0.28771 0.0
H796 H 0.22562 0.3492 0.23275 0.0
H797 H 0.20587 0.33133 0.26567 0.0
H798 H 0.18475 0.39955 0.29027 0.0
H799 H 0.20524 0.41758 0.2575 0.0
C800 C 0.18985 0.35218 0.34557 0.0
C801 C 0.18191 0.32895 0.34587 0.0
C802 C 0.19211 0.3642 0.32449 0.0
C803 C 0.18636 0.3533 0.30323 0.0
C804 C 0.17646 0.33082 0.30375 0.0
C805 C 0.17426 0.31874 0.32488 0.0
C806 C 0.21641 0.36041 0.24491 0.0
C807 C 0.21744 0.38485 0.2428 0.0
C808 C 0.20485 0.35012 0.26373 0.0
C809 C 0.19394 0.36402 0.28081 0.0
C810 C 0.19336 0.38838 0.27764 0.0
C811 C 0.20503 0.39871 0.25883 0.0
H812 H 0.88293 0.04097 0.45602 0.0
H813 H 0.81491 0.0091 0.44847 0.0
H814 H 0.8973 0.00588 0.47495 0.0
H815 H 0.82952 0.97361 0.46719 0.0
H816 H 0.85843 0.93569 0.5347 0.0
H817 H 0.84154 0.96278 0.50669 0.0
H818 H 0.90697 0.96497 0.46916 0.0
H819 H 0.9241 0.93828 0.49753 0.0
C820 C 0.87108 0.02638 0.45821 0.0
C821 C 0.84771 0.02792 0.45095 0.0
C822 C 0.87941 0.00611 0.46883 0.0
C823 C 0.86459 0.98686 0.47246 0.0
C824 C 0.84132 0.9882 0.46476 0.0
C825 C 0.83297 0.00852 0.45406 0.0
C826 C 0.86905 0.9414 0.52011 0.0
C827 C 0.89278 0.93528 0.51866 0.0
C828 C 0.85932 0.95693 0.50399 0.0
C829 C 0.87311 0.96648 0.48605 0.0
C830 C 0.8961 0.95839 0.48319 0.0
C831 C 0.90586 0.94296 0.49935 0.0
H832 H 0.26252 0.54805 0.78574 0.0
H833 H 0.22308 0.60714 0.76014 0.0
H834 H 0.28688 0.57456 0.80888 0.0
H835 H 0.24696 0.63327 0.7833 0.0
H836 H 0.29857 0.67948 0.81384 0.0
H837 H 0.28607 0.64927 0.78657 0.0
H838 H 0.28186 0.59974 0.84336 0.0
H839 H 0.29496 0.62973 0.87052 0.0
C840 C 0.25905 0.56664 0.78503 0.0
C841 C 0.24079 0.57547 0.77119 0.0
C842 C 0.27301 0.58179 0.79825 0.0
C843 C 0.26904 0.60604 0.79772 0.0
C844 C 0.25089 0.61476 0.7837 0.0
C845 C 0.23696 0.5997 0.77062 0.0
C846 C 0.29565 0.66197 0.82039 0.0
C847 C 0.29724 0.65714 0.84441 0.0
C848 C 0.28834 0.6447 0.8048 0.0
C849 C 0.28232 0.62232 0.81294 0.0
C850 C 0.28628 0.61682 0.83654 0.0
C851 C 0.29377 0.63407 0.85213 0.0
H852 H 0.53699 0.02753 0.05156 0.0
H853 H 0.59929 0.05199 0.0863 0.0
H854 H 0.55947 0.01885 0.0169 0.0
H855 H 0.62186 0.04467 0.05089 0.0
H856 H 0.65594 0.98825 0.00361 0.0
H857 H 0.63661 0.01154 0.03319 0.0
H858 H 0.58125 0.02755 0.98427 0.0
H859 H 0.60004 0.00272 0.95519 0.0
C860 C 0.55542 0.03177 0.05152 0.0
C861 C 0.56645 0.04002 0.0718 0.0
C862 C 0.5684 0.02697 0.03146 0.0
C863 C 0.5927 0.03073 0.03101 0.0
C864 C 0.60334 0.04092 0.05073 0.0
C865 C 0.59039 0.04529 0.071 0.0
C866 C 0.63995 -0.00275 -0.00101 0.0
C867 C 0.62927 0.99339 0.97727 0.0
C868 C 0.62883 0.01078 0.01598 0.0
C869 C 0.60698 0.02113 0.01142 0.0
C870 C 0.59762 0.01923 0.98874 0.0
C871 C 0.60848 0.0052 0.97195 0.0
H872 H 0.71828 0.20322 0.70079 0.0
H873 H 0.69086 0.1768 0.63557 0.0
H874 H 0.72037 0.16378 0.71594 0.0
H875 H 0.69205 0.13718 0.65113 0.0
H876 H 0.73853 0.07365 0.67166 0.0
H877 H 0.72316 0.11083 0.65804 0.0
H878 H 0.70345 0.12865 0.72882 0.0
H879 H 0.71983 0.09186 0.7425 0.0
C880 C 0.71199 0.18905 0.68993 0.0
C881 C 0.70483 0.19312 0.66682 0.0
C882 C 0.71307 0.16633 0.69868 0.0
C883 C 0.70674 0.14716 0.68463 0.0
C884 C 0.69761 0.15147 0.66222 0.0
C885 C 0.69676 0.17421 0.65337 0.0
C886 C 0.73054 0.08534 0.68423 0.0
C887 C 0.73074 0.08004 0.70817 0.0
C888 C 0.72155 0.10665 0.67642 0.0
C889 C 0.71229 0.12296 0.69237 0.0
C890 C 0.71095 0.11679 0.71612 0.0
C891 C 0.72024 0.09565 0.72395 0.0
H892 H 0.14829 0.50296 0.03851 0.0
H893 H 0.08928 0.55 0.0411 0.0
H894 H 0.12458 0.4745 0.01725 0.0
H895 H 0.06588 0.52184 0.01967 0.0
H896 H 0.02307 0.46356 0.99293 0.0
H897 H 0.04745 0.48336 0.02171 0.0
H898 H 0.10789 0.47266 0.97779 0.0
H899 H 0.0837 0.45249 0.94927 0.0
C900 C 0.13026 0.50718 0.03467 0.0
C901 C 0.12072 0.52881 0.04132 0.0
C902 C 0.11671 0.49089 0.02247 0.0
C903 C 0.09335 0.49589 0.01684 0.0
C904 C 0.08369 0.51727 0.02407 0.0
C905 C 0.09721 0.53354 0.03615 0.0
C906 C 0.04165 0.46494 0.98966 0.0
C907 C 0.05137 0.45682 0.96862 0.0
C908 C 0.05558 0.47641 0.00609 0.0
C909 C 0.0795 0.47994 0.00181 0.0
C910 C 0.08954 0.47017 0.98165 0.0
C911 C 0.07562 0.45871 0.96522 0.0
H912 H 0.7555 0.92751 0.24225 0.0
H913 H 0.7729 0.87189 0.2901 0.0
H914 H 0.78242 0.91156 0.21369 0.0
H915 H 0.80103 0.85652 0.26205 0.0
H916 H 0.81328 0.81652 0.19278 0.0
H917 H 0.79853 0.8355 0.22754 0.0
H918 H 0.81955 0.90264 0.19989 0.0
H919 H 0.8331 0.88352 0.1643 0.0
C920 C 0.76559 0.91219 0.24688 0.0
C921 C 0.76183 0.90071 0.2682 0.0
C922 C 0.78126 0.9031 0.23056 0.0
C923 C 0.79387 0.88254 0.23537 0.0
C924 C 0.79124 0.87203 0.25745 0.0
C925 C 0.7752 0.88088 0.27359 0.0
C926 C 0.81527 0.83528 0.19432 0.0
C927 C 0.8239 0.84858 0.1756 0.0
C928 C 0.80689 0.84625 0.21442 0.0
C929 C 0.80733 0.87075 0.21644 0.0
C930 C 0.81821 0.88381 0.19865 0.0
C931 C 0.8262 0.87285 0.17833 0.0
H932 H 0.35788 0.50564 0.46425 0.0
H933 H 0.41008 0.52834 0.5138 0.0
H934 H 0.37673 0.52821 0.43386 0.0
H935 H 0.42851 0.55196 0.48349 0.0
H936 H 0.47415 0.54917 0.41603 0.0
H937 H 0.45197 0.54203 0.45132 0.0
H938 H 0.38869 0.56311 0.41589 0.0
H939 H 0.41094 0.5692 0.38007 0.0
C940 C 0.37303 0.516 0.46882 0.0
C941 C 0.38277 0.5148 0.4913 0.0
C942 C 0.38379 0.52919 0.45138 0.0
C943 C 0.4044 0.54175 0.45607 0.0
C944 C 0.41299 0.54208 0.47911 0.0
C945 C 0.40237 0.52862 0.49651 0.0
C946 C 0.4556 0.55285 0.41588 0.0
C947 C 0.44422 0.55918 0.39509 0.0
C948 C 0.44281 0.54888 0.43626 0.0
C949 C 0.41838 0.55148 0.43639 0.0
C950 C 0.40738 0.56027 0.41624 0.0
C951 C 0.42015 0.56393 0.39574 0.0
H952 H 0.24973 0.21765 0.42492 0.0
H953 H 0.24364 0.2573 0.36094 0.0
H954 H 0.27667 0.19074 0.40554 0.0
H955 H 0.27066 0.23082 0.34185 0.0
H956 H 0.31208 0.17741 0.30693 0.0
H957 H 0.27757 0.19152 0.32747 0.0
H958 H 0.31694 0.1944 0.39179 0.0
H959 H 0.35125 0.1798 0.37144 0.0
C960 C 0.25392 0.22048 0.40668 0.0
C961 C 0.24475 0.23976 0.39453 0.0
C962 C 0.26938 0.2051 0.39561 0.0
C963 C 0.27582 0.20862 0.37216 0.0
C964 C 0.26581 0.22734 0.35981 0.0
C965 C 0.25048 0.24271 0.37085 0.0
C966 C 0.3132 0.18043 0.32559 0.0
C967 C 0.33456 0.17799 0.33745 0.0
C968 C 0.29346 0.18864 0.33732 0.0
C969 C 0.29468 0.19463 0.36112 0.0
C970 C 0.31539 0.18996 0.37346 0.0
C971 C 0.33513 0.18165 0.36174 0.0
H972 H 0.99061 -0.00354 0.61343 0.0
H973 H 0.00875 0.96445 0.54752 0.0
H974 H 0.01507 0.02977 0.6041 0.0
H975 H 0.03434 -0.00272 0.53858 0.0
H976 H 0.04003 0.0748 0.51595 0.0
H977 H 0.02799 0.03568 0.52657 0.0
H978 H 0.05113 0.04774 0.59753 0.0
H979 H 0.06208 0.08753 0.58702 0.0
C980 C 0.00037 -0.00374 0.59721 0.0
C981 C -0.00255 0.97807 0.58102 0.0
C982 C 0.01461 0.01532 0.59189 0.0
C983 C 0.02656 0.01645 0.5704 0.0
C984 C 0.02497 -0.00267 0.55501 0.0
C985 C 0.0104 0.97844 0.56017 0.0
C986 C 0.04304 0.06896 0.5337 0.0
C987 C 0.05159 0.08439 0.55075 0.0
C988 C 0.03623 0.04637 0.53982 0.0
C989 C 0.03816 0.03856 0.56307 0.0
C990 C 0.04875 0.05336 0.57962 0.0
C991 C 0.05521 0.07611 0.57357 0.0
H992 H 0.24272 0.74617 0.81296 0.0
H993 H 0.23723 0.8079 0.85612 0.0
H994 H 0.21585 0.76324 0.78493 0.0
H995 H 0.21002 0.82508 0.82784 0.0
H996 H 0.13451 0.81778 0.79168 0.0
H997 H 0.16872 0.81367 0.81662 0.0
H998 H 0.21055 0.79597 0.75638 0.0
H999 H 0.17634 0.79989 0.73135 0.0
C1000 C 0.23596 0.76352 0.81633 0.0
C1001 C 0.2419 0.7756 0.83685 0.0
C1002 C 0.22076 0.77342 0.80012 0.0
C1003 C 0.21093 0.79555 0.80414 0.0
C1004 C 0.21737 0.80799 0.82433 0.0
C1005 C 0.23292 0.79818 0.84046 0.0
C1006 C 0.15114 0.81369 0.78362 0.0
C1007 C 0.15258 0.80858 0.75961 0.0
C1008 C 0.17077 0.81146 0.79793 0.0
C1009 C 0.19216 0.80404 0.78848 0.0
C1010 C 0.19414 0.80131 0.76415 0.0
C1011 C 0.17455 0.80365 0.74982 0.0
H1012 H 0.47693 0.97661 0.17764 0.0
H1013 H 0.49408 0.98971 0.10524 0.0
H1014 H 0.44708 0.94859 0.16538 0.0
H1015 H 0.46466 0.9617 0.09312 0.0
H1016 H 0.42999 0.87578 0.12947 0.0
H1017 H 0.4486 0.90953 0.14733 0.0
H1018 H 0.42276 0.95335 0.09161 0.0
H1019 H 0.40448 0.91947 0.07342 0.0
C1020 C 0.47421 0.97367 0.15914 0.0
C1021 C 0.48801 0.9852 0.14241 0.0
C1022 C 0.45714 0.95763 0.15214 0.0
C1023 C 0.45344 0.953 0.12829 0.0
C1024 C 0.46675 0.96515 0.11162 0.0
C1025 C 0.48384 0.98103 0.11859 0.0
C1026 C 0.4277 0.89271 0.12133 0.0
C1027 C 0.41624 0.89483 0.0997 0.0
C1028 C 0.43832 0.91211 0.13165 0.0
C1029 C 0.43759 0.934 0.12058 0.0
C1030 C 0.42407 0.93656 0.10024 0.0
C1031 C 0.41348 0.91717 0.0899 0.0
H1032 H 0.8137 0.27196 0.63663 0.0
H1033 H 0.75243 0.28078 0.67984 0.0
H1034 H 0.83843 0.27692 0.67071 0.0
H1035 H 0.77725 0.2866 0.71394 0.0
H1036 H 0.82659 0.251 0.76811 0.0
H1037 H 0.79982 0.26006 0.73654 0.0
H1038 H 0.85389 0.29975 0.70184 0.0
H1039 H 0.881 0.28993 0.73316 0.0
C1040 C 0.80551 0.27562 0.6533 0.0
C1041 C 0.78111 0.27554 0.6556 0.0
C1042 C 0.81973 0.27863 0.6729 0.0
C1043 C 0.80984 0.28185 0.6952 0.0
C1044 C 0.78543 0.28364 0.69713 0.0
C1045 C 0.77121 0.28042 0.67756 0.0
C1046 C 0.83265 0.26208 0.75402 0.0
C1047 C 0.85604 0.26936 0.75292 0.0
C1048 C 0.81722 0.26743 0.73591 0.0
C1049 C 0.82478 0.28036 0.71641 0.0
C1050 C 0.84765 0.28929 0.71633 0.0
C1051 C 0.86315 0.28378 0.73435 0.0
H1052 H 0.94622 0.49298 0.86801 0.0
H1053 H 0.98632 0.50579 0.93068 0.0
H1054 H 0.92629 0.53051 0.87328 0.0
H1055 H 0.96664 0.543 0.93583 0.0
H1056 H 0.92294 0.60412 0.94857 0.0
H1057 H 0.92892 0.56222 0.94401 0.0
H1058 H 0.94022 0.57178 0.87001 0.0
H1059 H 0.93396 0.61364 0.87444 0.0
C1060 C 0.95051 0.50361 0.88308 0.0
C1061 C 0.96799 0.49657 0.89881 0.0
C1062 C 0.93916 0.52509 0.88604 0.0
C1063 C 0.94486 0.53968 0.90498 0.0
C1064 C 0.96158 0.53204 0.92125 0.0
C1065 C 0.97305 0.5108 0.91816 0.0
C1066 C 0.92608 0.59724 0.93121 0.0
C1067 C 0.92851 0.6123 0.91195 0.0
C1068 C 0.92959 0.57324 0.92863 0.0
C1069 C 0.93552 0.5638 0.90674 0.0
C1070 C 0.93566 0.57853 0.8871 0.0
C1071 C 0.93217 0.60256 0.88968 0.0
H1072 H 0.65266 0.75046 0.12943 0.0
H1073 H 0.69234 0.69737 0.16549 0.0
H1074 H 0.68778 0.76299 0.10906 0.0
H1075 H 0.72767 0.71 0.14499 0.0
H1076 H 0.78258 0.77196 0.13686 0.0
H1077 H 0.75015 0.7476 0.14966 0.0
H1078 H 0.7195 0.75207 0.08086 0.0
H1079 H 0.75196 0.77657 0.06798 0.0
C1080 C 0.66882 0.74117 0.13266 0.0
C1081 C 0.66982 0.72314 0.14926 0.0
C1082 C 0.68891 0.74822 0.12084 0.0
C1083 C 0.71048 0.73753 0.12553 0.0
C1084 C 0.71127 0.71863 0.14117 0.0
C1085 C 0.69106 0.71136 0.15282 0.0
C1086 C 0.7692 0.76734 0.1243 0.0
C1087 C 0.76964 0.77648 0.10152 0.0
C1088 C 0.7507 0.75323 0.1316 0.0
C1089 C 0.73221 0.74812 0.1163 0.0
C1090 C 0.73344 0.75595 0.09306 0.0
C1091 C 0.75206 0.7699 0.08569 0.0
H1092 H 0.51153 0.46279 0.30203 0.0
H1093 H 0.50404 0.49525 0.36986 0.0
H1094 H 0.53644 0.43266 0.31933 0.0
H1095 H 0.52859 0.46524 0.38701 0.0
H1096 H 0.5844 0.41825 0.41151 0.0
H1097 H 0.5689 0.44988 0.38756 0.0
H1098 H 0.52951 0.39992 0.34697 0.0
H1099 H 0.5452 0.36828 0.37061 0.0
C1100 C 0.51529 0.46357 0.32056 0.0
C1101 C 0.50568 0.48128 0.33461 0.0
C1102 C 0.52953 0.44634 0.33044 0.0
C1103 C 0.53457 0.44668 0.35448 0.0
C1104 C 0.52538 0.46472 0.36836 0.0
C1105 C 0.51107 0.48179 0.35856 0.0
C1106 C 0.57289 0.41394 0.39712 0.0
C1107 C 0.56569 0.3908 0.39324 0.0
C1108 C 0.56392 0.43208 0.3835 0.0
C1109 C 0.54768 0.42739 0.36568 0.0
C1110 C 0.54203 0.40408 0.36054 0.0
C1111 C 0.55094 0.38595 0.37419 0.0
H1112 H 0.38939 0.27763 0.24738 0.0
H1113 H 0.3493 0.21895 0.22193 0.0
H1114 H 0.36752 0.30362 0.22201 0.0
H1115 H 0.32792 0.24486 0.19579 0.0
H1116 H 0.27188 0.30375 0.18918 0.0
H1117 H 0.29839 0.27322 0.20167 0.0
H1118 H 0.35732 0.31706 0.1841 0.0
H1119 H 0.33062 0.34808 0.17242 0.0
C1120 C 0.37625 0.2702 0.23597 0.0
C1121 C 0.3708 0.24631 0.23696 0.0
C1122 C 0.36381 0.28509 0.22121 0.0
C1123 C 0.34579 0.27639 0.20691 0.0
C1124 C 0.34137 0.25222 0.20687 0.0
C1125 C 0.35366 0.23736 0.22182 0.0
C1126 C 0.29048 0.3067 0.18738 0.0
C1127 C 0.29914 0.32854 0.18033 0.0
C1128 C 0.30576 0.28908 0.19448 0.0
C1129 C 0.33005 0.29285 0.19441 0.0
C1130 C 0.3387 0.31383 0.18501 0.0
C1131 C 0.3234 0.33155 0.17813 0.0
H1132 H 0.83466 0.06206 0.79374 0.0
H1133 H 0.78531 0.11906 0.79128 0.0
H1134 H 0.8656 0.08936 0.80433 0.0
H1135 H 0.81621 0.14642 0.80056 0.0
H1136 H 0.87228 0.19366 0.8226 0.0
H1137 H 0.84347 0.1625 0.82604 0.0
H1138 H 0.88778 0.11732 0.78467 0.0
H1139 H 0.91693 0.14799 0.78244 0.0
C1140 C 0.8304 0.08041 0.79565 0.0
C1141 C 0.80761 0.08845 0.79145 0.0
C1142 C 0.84816 0.09609 0.80157 0.0
C1143 C 0.84359 0.12022 0.80303 0.0
C1144 C 0.82047 0.128 0.79997 0.0
C1145 C 0.80268 0.11229 0.79444 0.0
C1146 C 0.87604 0.17684 0.81476 0.0
C1147 C 0.89672 0.17331 0.80206 0.0
C1148 C 0.85945 0.15902 0.81654 0.0
C1149 C 0.86299 0.13746 0.80524 0.0
C1150 C 0.88442 0.13353 0.79383 0.0
C1151 C 0.90118 0.1512 0.79243 0.0
H1152 H 0.97598 0.65787 0.01294 0.0
H1153 H 0.0386 0.68051 0.97738 0.0
H1154 H -0.00086 0.64678 0.04686 0.0
H1155 H 0.06183 0.66879 0.01098 0.0
H1156 H 0.10031 0.65515 0.07551 0.0
H1157 H 0.07189 0.67554 0.05128 0.0
H1158 H 0.02586 0.61584 0.05534 0.0
H1159 H 0.05384 0.59582 0.08002 0.0
C1160 C 0.9947 0.66052 0.01237 0.0
C1161 C 0.00552 0.66981 0.99235 0.0
C1162 C 0.00796 0.65416 0.03183 0.0
C1163 C 0.03235 0.65682 0.03167 0.0
C1164 C 0.04305 0.66685 0.01191 0.0
C1165 C 0.02976 0.67335 0.9925 0.0
C1166 C 0.0838 0.64668 0.07184 0.0
C1167 C 0.07957 0.62364 0.07925 0.0
C1168 C 0.06761 0.65828 0.05777 0.0
C1169 C 0.0469 0.64707 0.05082 0.0
C1170 C 0.04162 0.62503 0.0603 0.0
C1171 C 0.05775 0.61348 0.07448 0.0
H1172 H 0.71743 0.81363 0.31709 0.0
H1173 H 0.65263 0.84969 0.33114 0.0
H1174 H 0.69602 0.7823 0.29829 0.0
H1175 H 0.63103 0.81778 0.31305 0.0
H1176 H 0.61036 0.78337 0.24269 0.0
H1177 H 0.62695 0.80827 0.27274 0.0
H1178 H 0.66915 0.75068 0.29731 0.0
H1179 H 0.65304 0.72591 0.26658 0.0
C1180 C 0.69853 0.8145 0.31693 0.0
C1181 C 0.68678 0.83444 0.3251 0.0
C1182 C 0.68619 0.79641 0.30617 0.0
C1183 C 0.6618 0.79777 0.30361 0.0
C1184 C 0.64987 0.81652 0.31411 0.0
C1185 C 0.66224 0.83472 0.32468 0.0
C1186 C 0.62299 0.77593 0.25465 0.0
C1187 C 0.63063 0.75277 0.25203 0.0
C1188 C 0.63236 0.79016 0.2721 0.0
C1189 C 0.64946 0.78152 0.2875 0.0
C1190 C 0.65627 0.758 0.28556 0.0
C1191 C 0.64701 0.74379 0.26796 0.0
H1192 H 0.41358 0.37959 0.56177 0.0
H1193 H 0.45289 0.44356 0.55388 0.0
H1194 H 0.44647 0.35746 0.54643 0.0
H1195 H 0.48604 0.42131 0.53915 0.0
H1196 H 0.51533 0.38162 0.47535 0.0
H1197 H 0.4895 0.40296 0.50121 0.0
H1198 H 0.48694 0.34376 0.54799 0.0
H1199 H 0.51271 0.32203 0.52166 0.0
C1200 C 0.42951 0.38886 0.5575 0.0
C1201 C 0.43045 0.41338 0.55851 0.0
C1202 C 0.44842 0.37614 0.54876 0.0
C1203 C 0.46866 0.38771 0.54105 0.0
C1204 C 0.47043 0.41198 0.54437 0.0
C1205 C 0.45149 0.42471 0.55293 0.0
C1206 C 0.50944 0.37314 0.49121 0.0
C1207 C 0.51592 0.35004 0.49634 0.0
C1208 C 0.49481 0.3855 0.50622 0.0
C1209 C 0.48627 0.37512 0.52677 0.0
C1210 C 0.49316 0.35218 0.53223 0.0
C1211 C 0.50792 0.33977 0.51717 0.0
H1212 H 0.1977 0.63709 0.68237 0.0
H1213 H 0.13424 0.59935 0.6982 0.0
H1214 H 0.17575 0.67353 0.6814 0.0
H1215 H 0.11241 0.63588 0.69751 0.0
H1216 H 0.07751 0.70636 0.68534 0.0
H1217 H 0.09872 0.67067 0.67499 0.0
H1218 H 0.15823 0.69482 0.71459 0.0
H1219 H 0.1373 0.73029 0.72474 0.0
C1220 C 0.17901 0.63648 0.68521 0.0
C1221 C 0.16779 0.61538 0.69078 0.0
C1222 C 0.16647 0.65738 0.68474 0.0
C1223 C 0.14245 0.65759 0.68978 0.0
C1224 C 0.13089 0.63627 0.6935 0.0
C1225 C 0.14344 0.61534 0.694 0.0
C1226 C 0.0952 0.7041 0.69161 0.0
C1227 C 0.10567 0.72105 0.70599 0.0
C1228 C 0.1073 0.68368 0.68573 0.0
C1229 C 0.13015 0.68001 0.6939 0.0
C1230 C 0.14078 0.69729 0.70771 0.0
C1231 C 0.12868 0.71753 0.71372 0.0
H1232 H 0.51103 0.81865 0.02984 0.0
H1233 H 0.45524 0.866 0.01161 0.0
H1234 H 0.53715 0.83919 0.00325 0.0
H1235 H 0.48088 0.88583 0.98413 0.0
H1236 H 0.54145 0.93474 0.96524 0.0
H1237 H 0.51234 0.91175 0.98564 0.0
H1238 H 0.54748 0.84829 0.96442 0.0
H1239 H 0.57735 0.87154 0.94487 0.0
C1240 C 0.50427 0.83321 0.01984 0.0
C1241 C 0.48124 0.84093 0.023 0.0
C1242 C 0.51916 0.8449 0.00442 0.0
C1243 C 0.5112 0.8643 0.99157 0.0
C1244 C 0.4878 0.87132 0.9941 0.0
C1245 C 0.47306 0.8599 0.00979 0.0
C1246 C 0.54278 0.91587 0.96459 0.0
C1247 C 0.56182 0.90496 0.95365 0.0
C1248 C 0.52598 0.90262 0.97623 0.0
C1249 C 0.52762 0.8781 0.97691 0.0
C1250 C 0.54595 0.86714 0.96473 0.0
C1251 C 0.56296 0.88045 0.95335 0.0
H1252 H 0.93393 0.09004 0.42341 0.0
H1253 H 0.89355 0.15379 0.4215 0.0
H1254 H 0.96419 0.10981 0.44531 0.0
H1255 H 0.92445 0.17399 0.44273 0.0
H1256 H 0.96055 0.1843 0.51499 0.0
H1257 H 0.93562 0.17267 0.48261 0.0
H1258 H 0.99406 0.13747 0.45013 0.0
H1259 H 0.01866 0.14825 0.48312 0.0
C1260 C 0.93184 0.10851 0.42698 0.0
C1261 C 0.91107 0.12018 0.42117 0.0
C1262 C 0.94934 0.11996 0.4395 0.0
C1263 C 0.9466 0.14344 0.44626 0.0
C1264 C 0.92684 0.15573 0.43837 0.0
C1265 C 0.90922 0.1442 0.426 0.0
C1266 C 0.96814 0.17439 0.50076 0.0
C1267 C 0.99142 0.16683 0.50179 0.0
C1268 C 0.95389 0.16786 0.48203 0.0
C1269 C 0.96273 0.15388 0.46378 0.0
C1270 C 0.98651 0.14777 0.4641 0.0
C1271 C 0.00064 0.15401 0.48298 0.0
loop_
_geom_bond_atom_site_label_1
_geom_bond_atom_site_label_2
_geom_bond_distance
_geom_bond_site_symmetry_2
_ccdc_geom_bond_type
C0 O1 1.160 . S
C0 O7 1.185 . S
O1 C0 1.160 . S
O2 Zn3 1.899 . S
O2 C10 1.284 . S
Zn3 O2 1.899 . S
Zn3 O4 2.032 . S
Zn3 O7 2.086 . S
Zn3 O12 1.977 . S
O4 Zn3 2.032 . S
O4 C8 1.278 . S
C5 O6 1.203 . S
C5 O12 1.267 . S
O6 C5 1.203 . S
O7 C0 1.185 . S
O7 Zn3 2.086 . S
C8 O4 1.278 . S
C8 O9 1.211 . S
O9 C8 1.211 . S
C10 O2 1.284 . S
C10 O11 1.273 . S
O11 C10 1.273 . S
O12 Zn3 1.977 . S
O12 C5 1.267 . S
C13 O14 1.160 . S
C13 O20 1.185 . S
O14 C13 1.160 . S
O15 Zn16 1.899 . S
O15 C23 1.284 . S
Zn16 O15 1.899 . S
Zn16 O17 2.032 . S
Zn16 O20 2.086 . S
Zn16 O25 1.977 . S
O17 Zn16 2.032 . S
O17 C21 1.278 . S
C18 O19 1.203 . S
C18 O25 1.267 . S
O19 C18 1.203 . S
O20 C13 1.185 . S
O20 Zn16 2.086 . S
C21 O17 1.278 . S
C21 O22 1.211 . S
O22 C21 1.211 . S
C23 O15 1.284 . S
C23 O24 1.273 . S
O24 C23 1.273 . S
O25 Zn16 1.977 . S
O25 C18 1.267 . S
C26 O27 1.160 . S
C26 O33 1.185 . S
O27 C26 1.160 . S
O28 Zn29 1.899 . S
O28 C36 1.284 . S
Zn29 O28 1.899 . S
Zn29 O30 2.032 . S
Zn29 O33 2.086 . S
Zn29 O38 1.977 . S
O30 Zn29 2.032 . S
O30 C34 1.278 . S
C31 O32 1.203 . S
C31 O38 1.267 . S
O32 C31 1.203 . S
O33 C26 1.185 . S
O33 Zn29 2.086 . S
C34 O30 1.278 . S
C34 O35 1.211 . S
O35 C34 1.211 . S
C36 O28 1.284 . S
C36 O37 1.273 . S
O37 C36 1.273 . S
O38 Zn29 1.977 . S
O38 C31 1.267 . S
C39 O40 1.160 . S
C39 O46 1.185 . S
O40 C39 1.160 . S
O41 Zn42 1.899 . S
O41 C49 1.284 . S
Zn42 O41 1.899 . S
Zn42 O43 2.032 . S
Zn42 O46 2.086 . S
Zn42 O51 1.977 . S
O43 Zn42 2.032 . S
O43 C47 1.278 . S
C44 O45 1.203 . S
C44 O51 1.267 . S
O45 C44 1.203 . S
O46 C39 1.185 . S
O46 Zn42 2.086 . S
C47 O43 1.278 . S
C47 O48 1.211 . S
O48 C47 1.211 . S
C49 O41 1.284 . S
C49 O50 1.273 . S
O50 C49 1.273 . S
O51 Zn42 1.977 . S
O51 C44 1.267 . S
C52 O53 1.160 . S
C52 O59 1.185 . S
O53 C52 1.160 . S
O54 Zn55 1.899 . S
O54 C62 1.284 . S
Zn55 O54 1.899 . S
Zn55 O56 2.032 . S
Zn55 O59 2.086 . S
Zn55 O64 1.977 . S
O56 Zn55 2.032 . S
O56 C60 1.278 . S
C57 O58 1.203 . S
C57 O64 1.267 . S
O58 C57 1.203 . S
O59 C52 1.185 . S
O59 Zn55 2.086 . S
C60 O56 1.278 . S
C60 O61 1.211 . S
O61 C60 1.211 . S
C62 O54 1.284 . S
C62 O63 1.273 . S
O63 C62 1.273 . S
O64 Zn55 1.977 . S
O64 C57 1.267 . S
C65 O66 1.160 . S
C65 O72 1.185 . S
O66 C65 1.160 . S
O67 Zn68 1.899 . S
O67 C75 1.284 . S
Zn68 O67 1.899 . S
Zn68 O69 2.032 . S
Zn68 O72 2.086 . S
Zn68 O77 1.977 . S
O69 Zn68 2.032 . S
O69 C73 1.278 . S
C70 O71 1.203 . S
C70 O77 1.267 . S
O71 C70 1.203 . S
O72 C65 1.185 . S
O72 Zn68 2.086 . S
C73 O69 1.278 . S
C73 O74 1.211 . S
O74 C73 1.211 . S
C75 O67 1.284 . S
C75 O76 1.273 . S
O76 C75 1.273 . S
O77 Zn68 1.977 . S
O77 C70 1.267 . S
C78 O79 1.160 . S
C78 O85 1.185 . S
O79 C78 1.160 . S
O80 Zn81 1.899 . S
O80 C88 1.284 . S
Zn81 O80 1.899 . S
Zn81 O82 2.032 . S
Zn81 O85 2.086 . S
Zn81 O90 1.977 . S
O82 Zn81 2.032 . S
O82 C86 1.278 . S
C83 O84 1.203 . S
C83 O90 1.267 . S
O84 C83 1.203 . S
O85 C78 1.185 . S
O85 Zn81 2.086 . S
C86 O82 1.278 . S
C86 O87 1.211 . S
O87 C86 1.211 . S
C88 O80 1.284 . S
C88 O89 1.273 . S
O89 C88 1.273 . S
O90 Zn81 1.977 . S
O90 C83 1.267 . S
C91 O92 1.160 . S
C91 O98 1.185 . S
O92 C91 1.160 . S
O93 Zn94 1.899 . S
O93 C101 1.284 . S
Zn94 O93 1.899 . S
Zn94 O95 2.032 . S
Zn94 O98 2.086 . S
Zn94 O103 1.977 . S
O95 Zn94 2.032 . S
O95 C99 1.278 . S
C96 O97 1.203 . S
C96 O103 1.267 . S
O97 C96 1.203 . S
O98 C91 1.185 . S
O98 Zn94 2.086 . S
C99 O95 1.278 . S
C99 O100 1.211 . S
O100 C99 1.211 . S
C101 O93 1.284 . S
C101 O102 1.273 . S
O102 C101 1.273 . S
O103 Zn94 1.977 . S
O103 C96 1.267 . S
C104 O105 1.160 . S
C104 O111 1.185 . S
O105 C104 1.160 . S
O106 Zn107 1.899 . S
O106 C114 1.284 . S
Zn107 O106 1.899 . S
Zn107 O108 2.032 . S
Zn107 O111 2.086 . S
Zn107 O116 1.977 . S
O108 Zn107 2.032 . S
O108 C112 1.278 . S
C109 O110 1.203 . S
C109 O116 1.267 . S
O110 C109 1.203 . S
O111 C104 1.185 . S
O111 Zn107 2.086 . S
C112 O108 1.278 . S
C112 O113 1.211 . S
O113 C112 1.211 . S
C114 O106 1.284 . S
C114 O115 1.273 . S
O115 C114 1.273 . S
O116 Zn107 1.977 . S
O116 C109 1.267 . S
C117 O118 1.160 . S
C117 O124 1.185 . S
O118 C117 1.160 . S
O119 Zn120 1.899 . S
O119 C127 1.284 . S
Zn120 O119 1.899 . S
Zn120 O121 2.032 . S
Zn120 O124 2.086 . S
Zn120 O129 1.977 . S
O121 Zn120 2.032 . S
O121 C125 1.278 . S
C122 O123 1.203 . S
C122 O129 1.267 . S
O123 C122 1.203 . S
O124 C117 1.185 . S
O124 Zn120 2.086 . S
C125 O121 1.278 . S
C125 O126 1.211 . S
O126 C125 1.211 . S
C127 O119 1.284 . S
C127 O128 1.273 . S
O128 C127 1.273 . S
O129 Zn120 1.977 . S
O129 C122 1.267 . S
C130 O131 1.160 . S
C130 O137 1.185 . S
O131 C130 1.160 . S
O132 Zn133 1.899 . S
O132 C140 1.284 . S
Zn133 O132 1.899 . S
Zn133 O134 2.032 . S
Zn133 O137 2.086 . S
Zn133 O142 1.977 . S
O134 Zn133 2.032 . S
O134 C138 1.278 . S
C135 O136 1.203 . S
C135 O142 1.267 . S
O136 C135 1.203 . S
O137 C130 1.185 . S
O137 Zn133 2.086 . S
C138 O134 1.278 . S
C138 O139 1.211 . S
O139 C138 1.211 . S
C140 O132 1.284 . S
C140 O141 1.273 . S
O141 C140 1.273 . S
O142 Zn133 1.977 . S
O142 C135 1.267 . S
C143 O144 1.160 . S
C143 O150 1.185 . S
O144 C143 1.160 . S
O145 Zn146 1.899 . S
O145 C153 1.284 . S
Zn146 O145 1.899 . S
Zn146 O147 2.032 . S
Zn146 O150 2.086 . S
Zn146 O155 1.977 . S
O147 Zn146 2.032 . S
O147 C151 1.278 . S
C148 O149 1.203 . S
C148 O155 1.267 . S
O149 C148 1.203 . S
O150 C143 1.185 . S
O150 Zn146 2.086 . S
C151 O147 1.278 . S
C151 O152 1.211 . S
O152 C151 1.211 . S
C153 O145 1.284 . S
C153 O154 1.273 . S
O154 C153 1.273 . S
O155 Zn146 1.977 . S
O155 C148 1.267 . S
C156 O157 1.160 . S
C156 O163 1.185 . S
O157 C156 1.160 . S
O158 Zn159 1.899 . S
O158 C166 1.284 . S
Zn159 O158 1.899 . S
Zn159 O160 2.032 . S
Zn159 O163 2.086 . S
Zn159 O168 1.977 . S
O160 Zn159 2.032 . S
O160 C164 1.278 . S
C161 O162 1.203 . S
C161 O168 1.267 . S
O162 C161 1.203 . S
O163 C156 1.185 . S
O163 Zn159 2.086 . S
C164 O160 1.278 . S
C164 O165 1.211 . S
O165 C164 1.211 . S
C166 O158 1.284 . S
C166 O167 1.273 . S
O167 C166 1.273 . S
O168 Zn159 1.977 . S
O168 C161 1.267 . S
C169 O170 1.160 . S
C169 O176 1.185 . S
O170 C169 1.160 . S
O171 Zn172 1.899 . S
O171 C179 1.284 . S
Zn172 O171 1.899 . S
Zn172 O173 2.032 . S
Zn172 O176 2.086 . S
Zn172 O181 1.977 . S
O173 Zn172 2.032 . S
O173 C177 1.278 . S
C174 O175 1.203 . S
C174 O181 1.267 . S
O175 C174 1.203 . S
O176 C169 1.185 . S
O176 Zn172 2.086 . S
C177 O173 1.278 . S
C177 O178 1.211 . S
O178 C177 1.211 . S
C179 O171 1.284 . S
C179 O180 1.273 . S
O180 C179 1.273 . S
O181 Zn172 1.977 . S
O181 C174 1.267 . S
C182 O183 1.160 . S
C182 O189 1.185 . S
O183 C182 1.160 . S
O184 Zn185 1.899 . S
O184 C192 1.284 . S
Zn185 O184 1.899 . S
Zn185 O186 2.032 . S
Zn185 O189 2.086 . S
Zn185 O194 1.977 . S
O186 Zn185 2.032 . S
O186 C190 1.278 . S
C187 O188 1.203 . S
C187 O194 1.267 . S
O188 C187 1.203 . S
O189 C182 1.185 . S
O189 Zn185 2.086 . S
C190 O186 1.278 . S
C190 O191 1.211 . S
O191 C190 1.211 . S
C192 O184 1.284 . S
C192 O193 1.273 . S
O193 C192 1.273 . S
O194 Zn185 1.977 . S
O194 C187 1.267 . S
C195 O196 1.160 . S
C195 O202 1.185 . S
O196 C195 1.160 . S
O197 Zn198 1.899 . S
O197 C205 1.284 . S
Zn198 O197 1.899 . S
Zn198 O199 2.032 . S
Zn198 O202 2.086 . S
Zn198 O207 1.977 . S
O199 Zn198 2.032 . S
O199 C203 1.278 . S
C200 O201 1.203 . S
C200 O207 1.267 . S
O201 C200 1.203 . S
O202 C195 1.185 . S
O202 Zn198 2.086 . S
C203 O199 1.278 . S
C203 O204 1.211 . S
O204 C203 1.211 . S
C205 O197 1.284 . S
C205 O206 1.273 . S
O206 C205 1.273 . S
O207 Zn198 1.977 . S
O207 C200 1.267 . S
C208 O209 1.160 . S
C208 O215 1.185 . S
O209 C208 1.160 . S
O210 Zn211 1.899 . S
O210 C218 1.284 . S
Zn211 O210 1.899 . S
Zn211 O212 2.032 . S
Zn211 O215 2.086 . S
Zn211 O220 1.977 . S
O212 Zn211 2.032 . S
O212 C216 1.278 . S
C213 O214 1.203 . S
C213 O220 1.267 . S
O214 C213 1.203 . S
O215 C208 1.185 . S
O215 Zn211 2.086 . S
C216 O212 1.278 . S
C216 O217 1.211 . S
O217 C216 1.211 . S
C218 O210 1.284 . S
C218 O219 1.273 . S
O219 C218 1.273 . S
O220 Zn211 1.977 . S
O220 C213 1.267 . S
C221 O222 1.160 . S
C221 O228 1.185 . S
O222 C221 1.160 . S
O223 Zn224 1.899 . S
O223 C231 1.284 . S
Zn224 O223 1.899 . S
Zn224 O225 2.032 . S
Zn224 O228 2.086 . S
Zn224 O233 1.977 . S
O225 Zn224 2.032 . S
O225 C229 1.278 . S
C226 O227 1.203 . S
C226 O233 1.267 . S
O227 C226 1.203 . S
O228 C221 1.185 . S
O228 Zn224 2.086 . S
C229 O225 1.278 . S
C229 O230 1.211 . S
O230 C229 1.211 . S
C231 O223 1.284 . S
C231 O232 1.273 . S
O232 C231 1.273 . S
O233 Zn224 1.977 . S
O233 C226 1.267 . S
C234 O235 1.160 . S
C234 O241 1.185 . S
O235 C234 1.160 . S
O236 Zn237 1.899 . S
O236 C244 1.284 . S
Zn237 O236 1.899 . S
Zn237 O238 2.032 . S
Zn237 O241 2.086 . S
Zn237 O246 1.977 . S
O238 Zn237 2.032 . S
O238 C242 1.278 . S
C239 O240 1.203 . S
C239 O246 1.267 . S
O240 C239 1.203 . S
O241 C234 1.185 . S
O241 Zn237 2.086 . S
C242 O238 1.278 . S
C242 O243 1.211 . S
O243 C242 1.211 . S
C244 O236 1.284 . S
C244 O245 1.273 . S
O245 C244 1.273 . S
O246 Zn237 1.977 . S
O246 C239 1.267 . S
C247 O248 1.160 . S
C247 O254 1.185 . S
O248 C247 1.160 . S
O249 Zn250 1.899 . S
O249 C257 1.284 . S
Zn250 O249 1.899 . S
Zn250 O251 2.032 . S
Zn250 O254 2.086 . S
Zn250 O259 1.977 . S
O251 Zn250 2.032 . S
O251 C255 1.278 . S
C252 O253 1.203 . S
C252 O259 1.267 . S
O253 C252 1.203 . S
O254 C247 1.185 . S
O254 Zn250 2.086 . S
C255 O251 1.278 . S
C255 O256 1.211 . S
O256 C255 1.211 . S
C257 O249 1.284 . S
C257 O258 1.273 . S
O258 C257 1.273 . S
O259 Zn250 1.977 . S
O259 C252 1.267 . S
C260 O261 1.160 . S
C260 O267 1.185 . S
O261 C260 1.160 . S
O262 Zn263 1.899 . S
O262 C270 1.284 . S
Zn263 O262 1.899 . S
Zn263 O264 2.032 . S
Zn263 O267 2.086 . S
Zn263 O272 1.977 . S
O264 Zn263 2.032 . S
O264 C268 1.278 . S
C265 O266 1.203 . S
C265 O272 1.267 . S
O266 C265 1.203 . S
O267 C260 1.185 . S
O267 Zn263 2.086 . S
C268 O264 1.278 . S
C268 O269 1.211 . S
O269 C268 1.211 . S
C270 O262 1.284 . S
C270 O271 1.273 . S
O271 C270 1.273 . S
O272 Zn263 1.977 . S
O272 C265 1.267 . S
C273 O274 1.160 . S
C273 O280 1.185 . S
O274 C273 1.160 . S
O275 Zn276 1.899 . S
O275 C283 1.284 . S
Zn276 O275 1.899 . S
Zn276 O277 2.032 . S
Zn276 O280 2.086 . S
Zn276 O285 1.977 . S
O277 Zn276 2.032 . S
O277 C281 1.278 . S
C278 O279 1.203 . S
C278 O285 1.267 . S
O279 C278 1.203 . S
O280 C273 1.185 . S
O280 Zn276 2.086 . S
C281 O277 1.278 . S
C281 O282 1.211 . S
O282 C281 1.211 . S
C283 O275 1.284 . S
C283 O284 1.273 . S
O284 C283 1.273 . S
O285 Zn276 1.977 . S
O285 C278 1.267 . S
C286 O287 1.160 . S
C286 O293 1.185 . S
O287 C286 1.160 . S
O288 Zn289 1.899 . S
O288 C296 1.284 . S
Zn289 O288 1.899 . S
Zn289 O290 2.032 . S
Zn289 O293 2.086 . S
Zn289 O298 1.977 . S
O290 Zn289 2.032 . S
O290 C294 1.278 . S
C291 O292 1.203 . S
C291 O298 1.267 . S
O292 C291 1.203 . S
O293 C286 1.185 . S
O293 Zn289 2.086 . S
C294 O290 1.278 . S
C294 O295 1.211 . S
O295 C294 1.211 . S
C296 O288 1.284 . S
C296 O297 1.273 . S
O297 C296 1.273 . S
O298 Zn289 1.977 . S
O298 C291 1.267 . S
C299 O300 1.160 . S
C299 O306 1.185 . S
O300 C299 1.160 . S
O301 Zn302 1.899 . S
O301 C309 1.284 . S
Zn302 O301 1.899 . S
Zn302 O303 2.032 . S
Zn302 O306 2.086 . S
Zn302 O311 1.977 . S
O303 Zn302 2.032 . S
O303 C307 1.278 . S
C304 O305 1.203 . S
C304 O311 1.267 . S
O305 C304 1.203 . S
O306 C299 1.185 . S
O306 Zn302 2.086 . S
C307 O303 1.278 . S
C307 O308 1.211 . S
O308 C307 1.211 . S
C309 O301 1.284 . S
C309 O310 1.273 . S
O310 C309 1.273 . S
O311 Zn302 1.977 . S
O311 C304 1.267 . S
H312 C320 0.950 . S
H313 C325 0.950 . S
H314 C322 0.950 . S
H315 C324 0.950 . S
H316 C326 0.950 . S
H317 C328 0.950 . S
H318 C330 0.950 . S
H319 C331 0.950 . S
C320 H312 0.950 . S
C320 C321 1.386 . S
C320 C322 1.391 . S
C321 C320 1.386 . S
C321 C325 1.393 . S
C322 H314 0.950 . S
C322 C320 1.391 . S
C322 C323 1.400 . S
C323 C322 1.400 . S
C323 C324 1.398 . S
C323 C329 1.491 . S
C324 H315 0.950 . S
C324 C323 1.398 . S
C324 C325 1.391 . S
C325 H313 0.950 . S
C325 C321 1.393 . S
C325 C324 1.391 . S
C326 H316 0.950 . S
C326 C327 1.386 . S
C326 C328 1.391 . S
C327 C326 1.386 . S
C327 C331 1.393 . S
C328 H317 0.950 . S
C328 C326 1.391 . S
C328 C329 1.400 . S
C329 C323 1.491 . S
C329 C328 1.400 . S
C329 C330 1.398 . S
C330 H318 0.950 . S
C330 C329 1.398 . S
C330 C331 1.391 . S
C331 H319 0.950 . S
C331 C327 1.393 . S
C331 C330 1.391 . S
H332 C340 0.950 . S
H333 C345 0.950 . S
H334 C342 0.950 . S
H335 C344 0.950 . S
H336 C346 0.950 . S
H337 C348 0.950 . S
H338 C350 0.950 . S
H339 C351 0.950 . S
C340 H332 0.950 . S
C340 C341 1.386 1_455 S
C340 C342 1.391 . S
C341 C340 1.386 1_655 S
C341 C345 1.393 . S
C342 H334 0.950 . S
C342 C340 1.391 . S
C342 C343 1.400 . S
C343 C342 1.400 . S
C343 C344 1.398 1_455 S
C343 C349 1.491 . S
C344 H335 0.950 . S
C344 C343 1.398 1_655 S
C344 C345 1.391 . S
C345 H333 0.950 . S
C345 C341 1.393 . S
C345 C344 1.391 . S
C346 H336 0.950 . S
C346 C347 1.386 . S
C346 C348 1.391 . S
C347 C346 1.386 . S
C347 C351 1.393 . S
C348 H337 0.950 . S
C348 C346 1.391 . S
C348 C349 1.400 . S
C349 C343 1.491 . S
C349 C348 1.400 . S
C349 C350 1.398 . S
C350 H338 0.950 . S
C350 C349 1.398 . S
C350 C351 1.391 . S
C351 H339 0.950 . S
C351 C347 1.393 . S
C351 C350 1.391 . S
H352 C360 0.950 . S
H353 C365 0.950 . S
H354 C362 0.950 . S
H355 C364 0.950 . S
H356 C366 0.950 . S
H357 C368 0.950 . S
H358 C370 0.950 . S
H359 C371 0.950 . S
C360 H352 0.950 . S
C360 C361 1.386 . S
C360 C362 1.391 . S
C361 C360 1.386 . S
C361 C365 1.393 . S
C362 H354 0.950 . S
C362 C360 1.391 . S
C362 C363 1.400 . S
C363 C362 1.400 . S
C363 C364 1.398 . S
C363 C369 1.491 . S
C364 H355 0.950 . S
C364 C363 1.398 . S
C364 C365 1.391 . S
C365 H353 0.950 . S
C365 C361 1.393 . S
C365 C364 1.391 . S
C366 H356 0.950 . S
C366 C367 1.386 . S
C366 C368 1.391 . S
C367 C366 1.386 . S
C367 C371 1.393 1_554 S
C368 H357 0.950 . S
C368 C366 1.391 . S
C368 C369 1.400 1_554 S
C369 C363 1.491 . S
C369 C368 1.400 1_556 S
C369 C370 1.398 . S
C370 H358 0.950 . S
C370 C369 1.398 . S
C370 C371 1.391 . S
C371 H359 0.950 . S
C371 C367 1.393 1_556 S
C371 C370 1.391 . S
H372 C380 0.950 . S
H373 C385 0.950 . S
H374 C382 0.950 . S
H375 C384 0.950 . S
H376 C386 0.950 . S
H377 C388 0.950 . S
H378 C390 0.950 . S
H379 C391 0.950 . S
C380 H372 0.950 . S
C380 C381 1.386 . S
C380 C382 1.391 . S
C381 C380 1.386 . S
C381 C385 1.393 . S
C382 H374 0.950 . S
C382 C380 1.391 . S
C382 C383 1.400 . S
C383 C382 1.400 . S
C383 C384 1.398 . S
C383 C389 1.491 . S
C384 H375 0.950 . S
C384 C383 1.398 . S
C384 C385 1.391 . S
C385 H373 0.950 . S
C385 C381 1.393 . S
C385 C384 1.391 . S
C386 H376 0.950 . S
C386 C387 1.386 . S
C386 C388 1.391 . S
C387 C386 1.386 . S
C387 C391 1.393 . S
C388 H377 0.950 . S
C388 C386 1.391 . S
C388 C389 1.400 . S
C389 C383 1.491 . S
C389 C388 1.400 . S
C389 C390 1.398 . S
C390 H378 0.950 . S
C390 C389 1.398 . S
C390 C391 1.391 . S
C391 H379 0.950 . S
C391 C387 1.393 . S
C391 C390 1.391 . S
H392 C400 0.950 . S
H393 C405 0.950 . S
H394 C402 0.950 . S
H395 C404 0.950 . S
H396 C406 0.950 . S
H397 C408 0.950 . S
H398 C410 0.950 . S
H399 C411 0.950 . S
C400 H392 0.950 . S
C400 C401 1.386 . S
C400 C402 1.391 . S
C401 C400 1.386 . S
C401 C405 1.393 . S
C402 H394 0.950 . S
C402 C400 1.391 . S
C402 C403 1.400 . S
C403 C402 1.400 . S
C403 C404 1.398 . S
C403 C409 1.491 . S
C404 H395 0.950 . S
C404 C403 1.398 . S
C404 C405 1.391 . S
C405 H393 0.950 . S
C405 C401 1.393 . S
C405 C404 1.391 . S
C406 H396 0.950 . S
C406 C407 1.386 . S
C406 C408 1.391 . S
C407 C406 1.386 . S
C407 C411 1.393 . S
C408 H397 0.950 . S
C408 C406 1.391 . S
C408 C409 1.400 . S
C409 C403 1.491 . S
C409 C408 1.400 . S
C409 C410 1.398 . S
C410 H398 0.950 . S
C410 C409 1.398 . S
C410 C411 1.391 . S
C411 H399 0.950 . S
C411 C407 1.393 . S
C411 C410 1.391 . S
H412 C420 0.950 . S
H413 C425 0.950 . S
H414 C422 0.950 . S
H415 C424 0.950 . S
H416 C426 0.950 . S
H417 C428 0.950 . S
H418 C430 0.950 . S
H419 C431 0.950 . S
C420 H412 0.950 . S
C420 C421 1.386 . S
C420 C422 1.391 . S
C421 C420 1.386 . S
C421 C425 1.393 . S
C422 H414 0.950 . S
C422 C420 1.391 . S
C422 C423 1.400 . S
C423 C422 1.400 . S
C423 C424 1.398 . S
C423 C429 1.491 . S
C424 H415 0.950 . S
C424 C423 1.398 . S
C424 C425 1.391 . S
C425 H413 0.950 . S
C425 C421 1.393 . S
C425 C424 1.391 . S
C426 H416 0.950 . S
C426 C427 1.386 1_655 S
C426 C428 1.391 . S
C427 C426 1.386 1_455 S
C427 C431 1.393 . S
C428 H417 0.950 . S
C428 C426 1.391 . S
C428 C429 1.400 . S
C429 C423 1.491 . S
C429 C428 1.400 . S
C429 C430 1.398 1_655 S
C430 H418 0.950 . S
C430 C429 1.398 1_455 S
C430 C431 1.391 . S
C431 H419 0.950 . S
C431 C427 1.393 . S
C431 C430 1.391 . S
H432 C440 0.950 . S
H433 C445 0.950 . S
H434 C442 0.950 . S
H435 C444 0.950 . S
H436 C446 0.950 . S
H437 C448 0.950 . S
H438 C450 0.950 . S
H439 C451 0.950 . S
C440 H432 0.950 . S
C440 C441 1.386 . S
C440 C442 1.391 . S
C441 C440 1.386 . S
C441 C445 1.393 . S
C442 H434 0.950 . S
C442 C440 1.391 . S
C442 C443 1.400 . S
C443 C442 1.400 . S
C443 C444 1.398 . S
C443 C449 1.491 . S
C444 H435 0.950 . S
C444 C443 1.398 . S
C444 C445 1.391 . S
C445 H433 0.950 . S
C445 C441 1.393 . S
C445 C444 1.391 . S
C446 H436 0.950 . S
C446 C447 1.386 . S
C446 C448 1.391 . S
C447 C446 1.386 . S
C447 C451 1.393 1_556 S
C448 H437 0.950 . S
C448 C446 1.391 . S
C448 C449 1.400 1_556 S
C449 C443 1.491 . S
C449 C448 1.400 1_554 S
C449 C450 1.398 . S
C450 H438 0.950 . S
C450 C449 1.398 . S
C450 C451 1.391 . S
C451 H439 0.950 . S
C451 C447 1.393 1_554 S
C451 C450 1.391 . S
H452 C460 0.950 . S
H453 C465 0.950 . S
H454 C462 0.950 . S
H455 C464 0.950 . S
H456 C466 0.950 . S
H457 C468 0.950 . S
H458 C470 0.950 . S
H459 C471 0.950 . S
C460 H452 0.950 . S
C460 C461 1.386 . S
C460 C462 1.391 . S
C461 C460 1.386 . S
C461 C465 1.393 . S
C462 H454 0.950 . S
C462 C460 1.391 . S
C462 C463 1.400 . S
C463 C462 1.400 . S
C463 C464 1.398 . S
C463 C469 1.491 . S
C464 H455 0.950 . S
C464 C463 1.398 . S
C464 C465 1.391 . S
C465 H453 0.950 . S
C465 C461 1.393 . S
C465 C464 1.391 . S
C466 H456 0.950 . S
C466 C467 1.386 . S
C466 C468 1.391 . S
C467 C466 1.386 . S
C467 C471 1.393 . S
C468 H457 0.950 . S
C468 C466 1.391 . S
C468 C469 1.400 . S
C469 C463 1.491 . S
C469 C468 1.400 . S
C469 C470 1.398 . S
C470 H458 0.950 . S
C470 C469 1.398 . S
C470 C471 1.391 . S
C471 H459 0.950 . S
C471 C467 1.393 . S
C471 C470 1.391 . S
H472 C480 0.950 . S
H473 C485 0.950 . S
H474 C482 0.950 . S
H475 C484 0.950 . S
H476 C486 0.950 . S
H477 C488 0.950 . S
H478 C490 0.950 . S
H479 C491 0.950 . S
C480 H472 0.950 . S
C480 C481 1.386 . S
C480 C482 1.391 . S
C481 C480 1.386 . S
C481 C485 1.393 . S
C482 H474 0.950 . S
C482 C480 1.391 . S
C482 C483 1.400 . S
C483 C482 1.400 . S
C483 C484 1.398 . S
C483 C489 1.491 . S
C484 H475 0.950 . S
C484 C483 1.398 . S
C484 C485 1.391 . S
C485 H473 0.950 . S
C485 C481 1.393 . S
C485 C484 1.391 . S
C486 H476 0.950 . S
C486 C487 1.386 . S
C486 C488 1.391 . S
C487 C486 1.386 . S
C487 C491 1.393 . S
C488 H477 0.950 . S
C488 C486 1.391 . S
C488 C489 1.400 . S
C489 C483 1.491 . S
C489 C488 1.400 . S
C489 C490 1.398 . S
C490 H478 0.950 . S
C490 C489 1.398 . S
C490 C491 1.391 . S
C491 H479 0.950 . S
C491 C487 1.393 . S
C491 C490 1.391 . S
H492 C500 0.950 . S
H493 C505 0.950 . S
H494 C502 0.950 . S
H495 C504 0.950 . S
H496 C506 0.950 . S
H497 C508 0.950 . S
H498 C510 0.950 . S
H499 C511 0.950 . S
C500 H492 0.950 . S
C500 C501 1.386 . S
C500 C502 1.391 1_565 S
C501 C500 1.386 . S
C501 C505 1.393 . S
C502 H494 0.950 . S
C502 C500 1.391 1_545 S
C502 C503 1.400 . S
C503 C502 1.400 . S
C503 C504 1.398 . S
C503 C509 1.491 . S
C504 H495 0.950 . S
C504 C503 1.398 . S
C504 C505 1.391 1_545 S
C505 H493 0.950 . S
C505 C501 1.393 . S
C505 C504 1.391 1_565 S
C506 H496 0.950 . S
C506 C507 1.386 . S
C506 C508 1.391 . S
C507 C506 1.386 . S
C507 C511 1.393 . S
C508 H497 0.950 . S
C508 C506 1.391 . S
C508 C509 1.400 . S
C509 C503 1.491 . S
C509 C508 1.400 . S
C509 C510 1.398 . S
C510 H498 0.950 . S
C510 C509 1.398 . S
C510 C511 1.391 . S
C511 H499 0.950 . S
C511 C507 1.393 . S
C511 C510 1.391 . S
H512 C520 0.950 . S
H513 C525 0.950 . S
H514 C522 0.950 . S
H515 C524 0.950 . S
H516 C526 0.950 . S
H517 C528 0.950 . S
H518 C530 0.950 . S
H519 C531 0.950 . S
C520 H512 0.950 . S
C520 C521 1.386 . S
C520 C522 1.391 . S
C521 C520 1.386 . S
C521 C525 1.393 . S
C522 H514 0.950 . S
C522 C520 1.391 . S
C522 C523 1.400 . S
C523 C522 1.400 . S
C523 C524 1.398 . S
C523 C529 1.491 . S
C524 H515 0.950 . S
C524 C523 1.398 . S
C524 C525 1.391 . S
C525 H513 0.950 . S
C525 C521 1.393 . S
C525 C524 1.391 . S
C526 H516 0.950 . S
C526 C527 1.386 . S
C526 C528 1.391 . S
C527 C526 1.386 . S
C527 C531 1.393 1_545 S
C528 H517 0.950 . S
C528 C526 1.391 . S
C528 C529 1.400 1_545 S
C529 C523 1.491 . S
C529 C528 1.400 1_565 S
C529 C530 1.398 . S
C530 H518 0.950 . S
C530 C529 1.398 . S
C530 C531 1.391 . S
C531 H519 0.950 . S
C531 C527 1.393 1_565 S
C531 C530 1.391 . S
H532 C540 0.950 . S
H533 C545 0.950 . S
H534 C542 0.950 . S
H535 C544 0.950 . S
H536 C546 0.950 . S
H537 C548 0.950 . S
H538 C550 0.950 . S
H539 C551 0.950 . S
C540 H532 0.950 . S
C540 C541 1.386 . S
C540 C542 1.391 . S
C541 C540 1.386 . S
C541 C545 1.393 . S
C542 H534 0.950 . S
C542 C540 1.391 . S
C542 C543 1.400 . S
C543 C542 1.400 . S
C543 C544 1.398 . S
C543 C549 1.491 . S
C544 H535 0.950 . S
C544 C543 1.398 . S
C544 C545 1.391 . S
C545 H533 0.950 . S
C545 C541 1.393 . S
C545 C544 1.391 . S
C546 H536 0.950 . S
C546 C547 1.386 . S
C546 C548 1.391 . S
C547 C546 1.386 . S
C547 C551 1.393 . S
C548 H537 0.950 . S
C548 C546 1.391 . S
C548 C549 1.400 . S
C549 C543 1.491 . S
C549 C548 1.400 . S
C549 C550 1.398 . S
C550 H538 0.950 . S
C550 C549 1.398 . S
C550 C551 1.391 . S
C551 H539 0.950 . S
C551 C547 1.393 . S
C551 C550 1.391 . S
H552 C560 0.950 . S
H553 C565 0.950 . S
H554 C562 0.950 . S
H555 C564 0.950 . S
H556 C566 0.950 . S
H557 C568 0.950 . S
H558 C570 0.950 . S
H559 C571 0.950 . S
C560 H552 0.950 . S
C560 C561 1.386 . S
C560 C562 1.391 . S
C561 C560 1.386 . S
C561 C565 1.393 . S
C562 H554 0.950 . S
C562 C560 1.391 . S
C562 C563 1.400 . S
C563 C562 1.400 . S
C563 C564 1.398 . S
C563 C569 1.491 . S
C564 H555 0.950 . S
C564 C563 1.398 . S
C564 C565 1.391 . S
C565 H553 0.950 . S
C565 C561 1.393 . S
C565 C564 1.391 . S
C566 H556 0.950 . S
C566 C567 1.386 . S
C566 C568 1.391 . S
C567 C566 1.386 . S
C567 C571 1.393 . S
C568 H557 0.950 . S
C568 C566 1.391 . S
C568 C569 1.400 . S
C569 C563 1.491 . S
C569 C568 1.400 . S
C569 C570 1.398 . S
C570 H558 0.950 . S
C570 C569 1.398 . S
C570 C571 1.391 . S
C571 H559 0.950 . S
C571 C567 1.393 . S
C571 C570 1.391 . S
H572 C580 0.950 . S
H573 C585 0.950 . S
H574 C582 0.950 . S
H575 C584 0.950 . S
H576 C586 0.950 . S
H577 C588 0.950 . S
H578 C590 0.950 . S
H579 C591 0.950 . S
C580 H572 0.950 . S
C580 C581 1.386 1_545 S
C580 C582 1.391 . S
C581 C580 1.386 1_565 S
C581 C585 1.393 . S
C582 H574 0.950 . S
C582 C580 1.391 . S
C582 C583 1.400 . S
C583 C582 1.400 . S
C583 C584 1.398 1_545 S
C583 C589 1.491 . S
C584 H575 0.950 . S
C584 C583 1.398 1_565 S
C584 C585 1.391 . S
C585 H573 0.950 . S
C585 C581 1.393 . S
C585 C584 1.391 . S
C586 H576 0.950 . S
C586 C587 1.386 . S
C586 C588 1.391 . S
C587 C586 1.386 . S
C587 C591 1.393 . S
C588 H577 0.950 . S
C588 C586 1.391 . S
C588 C589 1.400 . S
C589 C583 1.491 . S
C589 C588 1.400 . S
C589 C590 1.398 . S
C590 H578 0.950 . S
C590 C589 1.398 . S
C590 C591 1.391 . S
C591 H579 0.950 . S
C591 C587 1.393 . S
C591 C590 1.391 . S
H592 C600 0.950 . S
H593 C605 0.950 . S
H594 C602 0.950 . S
H595 C604 0.950 . S
H596 C606 0.950 . S
H597 C608 0.950 . S
H598 C610 0.950 . S
H599 C611 0.950 . S
C600 H592 0.950 . S
C600 C601 1.386 . S
C600 C602 1.391 . S
C601 C600 1.386 . S
C601 C605 1.393 . S
C602 H594 0.950 . S
C602 C600 1.391 . S
C602 C603 1.400 . S
C603 C602 1.400 . S
C603 C604 1.398 . S
C603 C609 1.491 . S
C604 H595 0.950 . S
C604 C603 1.398 . S
C604 C605 1.391 . S
C605 H593 0.950 . S
C605 C601 1.393 . S
C605 C604 1.391 . S
C606 H596 0.950 . S
C606 C607 1.386 1_556 S
C606 C608 1.391 . S
C607 C606 1.386 1_554 S
C607 C611 1.393 . S
C608 H597 0.950 . S
C608 C606 1.391 . S
C608 C609 1.400 . S
C609 C603 1.491 . S
C609 C608 1.400 . S
C609 C610 1.398 1_556 S
C610 H598 0.950 . S
C610 C609 1.398 1_554 S
C610 C611 1.391 . S
C611 H599 0.950 . S
C611 C607 1.393 . S
C611 C610 1.391 . S
H612 C620 0.950 . S
H613 C625 0.950 . S
H614 C622 0.950 . S
H615 C624 0.950 . S
H616 C626 0.950 . S
H617 C628 0.950 . S
H618 C630 0.950 . S
H619 C631 0.950 . S
C620 H612 0.950 . S
C620 C621 1.386 1_565 S
C620 C622 1.391 . S
C621 C620 1.386 1_545 S
C621 C625 1.393 . S
C622 H614 0.950 . S
C622 C620 1.391 . S
C622 C623 1.400 . S
C623 C622 1.400 . S
C623 C624 1.398 1_565 S
C623 C629 1.491 . S
C624 H615 0.950 . S
C624 C623 1.398 1_545 S
C624 C625 1.391 . S
C625 H613 0.950 . S
C625 C621 1.393 . S
C625 C624 1.391 . S
C626 H616 0.950 . S
C626 C627 1.386 . S
C626 C628 1.391 . S
C627 C626 1.386 . S
C627 C631 1.393 . S
C628 H617 0.950 . S
C628 C626 1.391 . S
C628 C629 1.400 . S
C629 C623 1.491 . S
C629 C628 1.400 . S
C629 C630 1.398 . S
C630 H618 0.950 . S
C630 C629 1.398 . S
C630 C631 1.391 . S
C631 H619 0.950 . S
C631 C627 1.393 . S
C631 C630 1.391 . S
H632 C640 0.950 . S
H633 C645 0.950 . S
H634 C642 0.950 . S
H635 C644 0.950 . S
H636 C646 0.950 . S
H637 C648 0.950 . S
H638 C650 0.950 . S
H639 C651 0.950 . S
C640 H632 0.950 . S
C640 C641 1.386 . S
C640 C642 1.391 . S
C641 C640 1.386 . S
C641 C645 1.393 . S
C642 H634 0.950 . S
C642 C640 1.391 . S
C642 C643 1.400 . S
C643 C642 1.400 . S
C643 C644 1.398 . S
C643 C649 1.491 . S
C644 H635 0.950 . S
C644 C643 1.398 . S
C644 C645 1.391 . S
C645 H633 0.950 . S
C645 C641 1.393 . S
C645 C644 1.391 . S
C646 H636 0.950 . S
C646 C647 1.386 . S
C646 C648 1.391 . S
C647 C646 1.386 . S
C647 C651 1.393 . S
C648 H637 0.950 . S
C648 C646 1.391 . S
C648 C649 1.400 . S
C649 C643 1.491 . S
C649 C648 1.400 . S
C649 C650 1.398 . S
C650 H638 0.950 . S
C650 C649 1.398 . S
C650 C651 1.391 . S
C651 H639 0.950 . S
C651 C647 1.393 . S
C651 C650 1.391 . S
H652 C660 0.950 . S
H653 C665 0.950 . S
H654 C662 0.950 . S
H655 C664 0.950 . S
H656 C666 0.950 . S
H657 C668 0.950 . S
H658 C670 0.950 . S
H659 C671 0.950 . S
C660 H652 0.950 . S
C660 C661 1.386 . S
C660 C662 1.391 . S
C661 C660 1.386 . S
C661 C665 1.393 . S
C662 H654 0.950 . S
C662 C660 1.391 . S
C662 C663 1.400 . S
C663 C662 1.400 . S
C663 C664 1.398 . S
C663 C669 1.491 . S
C664 H655 0.950 . S
C664 C663 1.398 . S
C664 C665 1.391 . S
C665 H653 0.950 . S
C665 C661 1.393 . S
C665 C664 1.391 . S
C666 H656 0.950 . S
C666 C667 1.386 . S
C666 C668 1.391 . S
C667 C666 1.386 . S
C667 C671 1.393 . S
C668 H657 0.950 . S
C668 C666 1.391 . S
C668 C669 1.400 . S
C669 C663 1.491 . S
C669 C668 1.400 . S
C669 C670 1.398 . S
C670 H658 0.950 . S
C670 C669 1.398 . S
C670 C671 1.391 . S
C671 H659 0.950 . S
C671 C667 1.393 . S
C671 C670 1.391 . S
H672 C680 0.950 . S
H673 C685 0.952 . S
H674 C682 0.950 . S
H675 C684 0.950 . S
H676 C686 0.950 . S
H677 C688 0.950 . S
H678 C690 0.950 . S
H679 C691 0.950 . S
C680 H672 0.950 . S
C680 C681 1.386 . S
C680 C682 1.391 . S
C681 C680 1.386 . S
C681 C685 1.383 1_556 S
C682 H674 0.950 . S
C682 C680 1.391 . S
C682 C683 1.400 1_556 S
C683 C682 1.400 1_554 S
C683 C684 1.398 . S
C683 C689 1.491 . S
C684 H675 0.950 . S
C684 C683 1.398 . S
C684 C685 1.398 . S
C685 H673 0.952 . S
C685 C681 1.383 1_554 S
C685 C684 1.398 . S
C686 H676 0.950 . S
C686 C687 1.386 . S
C686 C688 1.391 . S
C687 C686 1.386 . S
C687 C691 1.393 . S
C688 H677 0.950 . S
C688 C686 1.391 . S
C688 C689 1.400 . S
C689 C683 1.491 . S
C689 C688 1.400 . S
C689 C690 1.398 . S
C690 H678 0.950 . S
C690 C689 1.398 . S
C690 C691 1.391 . S
C691 H679 0.950 . S
C691 C687 1.393 . S
C691 C690 1.391 . S
H692 C700 0.950 . S
H693 C705 0.950 . S
H694 C702 0.950 . S
H695 C704 0.950 . S
H696 C706 0.950 . S
H697 C708 0.950 . S
H698 C710 0.950 . S
H699 C711 0.950 . S
C700 H692 0.950 . S
C700 C701 1.386 . S
C700 C702 1.391 . S
C701 C700 1.386 . S
C701 C705 1.393 . S
C702 H694 0.950 . S
C702 C700 1.391 . S
C702 C703 1.400 . S
C703 C702 1.400 . S
C703 C704 1.398 . S
C703 C709 1.491 . S
C704 H695 0.950 . S
C704 C703 1.398 . S
C704 C705 1.391 . S
C705 H693 0.950 . S
C705 C701 1.393 . S
C705 C704 1.391 . S
C706 H696 0.950 . S
C706 C707 1.386 . S
C706 C708 1.391 . S
C707 C706 1.386 . S
C707 C711 1.393 . S
C708 H697 0.950 . S
C708 C706 1.391 . S
C708 C709 1.400 . S
C709 C703 1.491 . S
C709 C708 1.400 . S
C709 C710 1.398 . S
C710 H698 0.950 . S
C710 C709 1.398 . S
C710 C711 1.391 . S
C711 H699 0.950 . S
C711 C707 1.393 . S
C711 C710 1.391 . S
H712 C720 0.950 . S
H713 C725 0.950 . S
H714 C722 0.950 . S
H715 C724 0.950 . S
H716 C726 0.950 . S
H717 C728 0.950 . S
H718 C730 0.950 . S
H719 C731 0.950 . S
C720 H712 0.950 . S
C720 C721 1.386 . S
C720 C722 1.391 . S
C721 C720 1.386 . S
C721 C725 1.393 . S
C722 H714 0.950 . S
C722 C720 1.391 . S
C722 C723 1.400 . S
C723 C722 1.400 . S
C723 C724 1.398 . S
C723 C729 1.491 . S
C724 H715 0.950 . S
C724 C723 1.398 . S
C724 C725 1.391 . S
C725 H713 0.950 . S
C725 C721 1.393 . S
C725 C724 1.391 . S
C726 H716 0.950 . S
C726 C727 1.386 . S
C726 C728 1.391 . S
C727 C726 1.386 . S
C727 C731 1.393 . S
C728 H717 0.950 . S
C728 C726 1.391 . S
C728 C729 1.400 . S
C729 C723 1.491 . S
C729 C728 1.400 . S
C729 C730 1.398 . S
C730 H718 0.950 . S
C730 C729 1.398 . S
C730 C731 1.391 . S
C731 H719 0.950 . S
C731 C727 1.393 . S
C731 C730 1.391 . S
H732 C740 0.950 . S
H733 C745 0.950 . S
H734 C742 0.950 . S
H735 C744 0.950 . S
H736 C746 0.950 . S
H737 C748 0.950 . S
H738 C750 0.959 . S
H739 C751 0.950 . S
C740 H732 0.950 . S
C740 C741 1.386 . S
C740 C742 1.391 . S
C741 C740 1.386 . S
C741 C745 1.393 1_455 S
C742 H734 0.950 . S
C742 C740 1.391 . S
C742 C743 1.400 1_455 S
C743 C742 1.400 1_655 S
C743 C744 1.398 . S
C743 C749 1.491 . S
C744 H735 0.950 . S
C744 C743 1.398 . S
C744 C745 1.391 . S
C745 H733 0.950 . S
C745 C741 1.393 1_655 S
C745 C744 1.391 . S
C746 H736 0.950 . S
C746 C747 1.386 . S
C746 C748 1.391 . S
C747 C746 1.386 . S
C747 C751 1.393 . S
C748 H737 0.950 . S
C748 C746 1.391 . S
C748 C749 1.400 . S
C749 C743 1.491 . S
C749 C748 1.400 . S
C749 C750 1.398 . S
C750 H738 0.959 . S
C750 C749 1.398 . S
C750 C751 1.391 . S
C751 H739 0.950 . S
C751 C747 1.393 . S
C751 C750 1.391 . S
H752 C760 0.950 1_455 S
H753 C765 0.950 . S
H754 C762 0.950 . S
H755 C764 0.950 . S
H756 C766 0.950 . S
H757 C768 0.950 . S
H758 C770 0.950 . S
H759 C771 0.950 . S
C760 H752 0.950 1_655 S
C760 C761 1.386 . S
C760 C762 1.391 1_655 S
C761 C760 1.386 . S
C761 C765 1.393 . S
C762 H754 0.950 . S
C762 C760 1.391 1_455 S
C762 C763 1.400 . S
C763 C762 1.400 . S
C763 C764 1.398 1_455 S
C763 C769 1.491 . S
C764 H755 0.950 . S
C764 C763 1.398 1_655 S
C764 C765 1.391 . S
C765 H753 0.950 . S
C765 C761 1.393 . S
C765 C764 1.391 . S
C766 H756 0.950 . S
C766 C767 1.386 . S
C766 C768 1.391 . S
C767 C766 1.386 . S
C767 C771 1.393 . S
C768 H757 0.950 . S
C768 C766 1.391 . S
C768 C769 1.400 . S
C769 C763 1.491 . S
C769 C768 1.400 . S
C769 C770 1.398 . S
C770 H758 0.950 . S
C770 C769 1.398 . S
C770 C771 1.391 . S
C771 H759 0.950 . S
C771 C767 1.393 . S
C771 C770 1.391 . S
H772 C780 0.950 . S
H773 C785 0.950 . S
H774 C782 0.950 . S
H775 C784 0.950 . S
H776 C786 0.950 . S
H777 C788 0.950 . S
H778 C790 0.950 . S
H779 C791 0.950 . S
C780 H772 0.950 . S
C780 C781 1.386 . S
C780 C782 1.391 . S
C781 C780 1.386 . S
C781 C785 1.393 . S
C782 H774 0.950 . S
C782 C780 1.391 . S
C782 C783 1.400 . S
C783 C782 1.400 . S
C783 C784 1.398 . S
C783 C789 1.491 . S
C784 H775 0.950 . S
C784 C783 1.398 . S
C784 C785 1.391 . S
C785 H773 0.950 . S
C785 C781 1.393 . S
C785 C784 1.391 . S
C786 H776 0.950 . S
C786 C787 1.386 . S
C786 C788 1.391 . S
C787 C786 1.386 . S
C787 C791 1.393 . S
C788 H777 0.950 . S
C788 C786 1.391 . S
C788 C789 1.400 . S
C789 C783 1.491 . S
C789 C788 1.400 . S
C789 C790 1.398 . S
C790 H778 0.950 . S
C790 C789 1.398 . S
C790 C791 1.391 . S
C791 H779 0.950 . S
C791 C787 1.393 . S
C791 C790 1.391 . S
H792 C800 0.950 . S
H793 C805 0.950 . S
H794 C802 0.950 . S
H795 C804 0.950 . S
H796 C806 0.950 . S
H797 C808 0.950 . S
H798 C810 0.950 . S
H799 C811 0.950 . S
C800 H792 0.950 . S
C800 C801 1.386 . S
C800 C802 1.391 . S
C801 C800 1.386 . S
C801 C805 1.393 . S
C802 H794 0.950 . S
C802 C800 1.391 . S
C802 C803 1.400 . S
C803 C802 1.400 . S
C803 C804 1.398 . S
C803 C809 1.491 . S
C804 H795 0.950 . S
C804 C803 1.398 . S
C804 C805 1.391 . S
C805 H793 0.950 . S
C805 C801 1.393 . S
C805 C804 1.391 . S
C806 H796 0.950 . S
C806 C807 1.386 . S
C806 C808 1.391 . S
C807 C806 1.386 . S
C807 C811 1.393 . S
C808 H797 0.950 . S
C808 C806 1.391 . S
C808 C809 1.400 . S
C809 C803 1.491 . S
C809 C808 1.400 . S
C809 C810 1.398 . S
C810 H798 0.950 . S
C810 C809 1.398 . S
C810 C811 1.391 . S
C811 H799 0.950 . S
C811 C807 1.393 . S
C811 C810 1.391 . S
H812 C820 0.950 . S
H813 C825 0.950 . S
H814 C822 0.950 . S
H815 C824 0.950 . S
H816 C826 0.950 . S
H817 C828 0.950 . S
H818 C830 0.950 . S
H819 C831 0.950 . S
C820 H812 0.950 . S
C820 C821 1.386 . S
C820 C822 1.391 . S
C821 C820 1.386 . S
C821 C825 1.393 1_545 S
C822 H814 0.950 . S
C822 C820 1.391 . S
C822 C823 1.400 1_545 S
C823 C822 1.400 1_565 S
C823 C824 1.398 . S
C823 C829 1.491 . S
C824 H815 0.950 . S
C824 C823 1.398 . S
C824 C825 1.391 . S
C825 H813 0.950 . S
C825 C821 1.393 1_565 S
C825 C824 1.391 . S
C826 H816 0.950 . S
C826 C827 1.386 . S
C826 C828 1.391 . S
C827 C826 1.386 . S
C827 C831 1.393 . S
C828 H817 0.950 . S
C828 C826 1.391 . S
C828 C829 1.400 . S
C829 C823 1.491 . S
C829 C828 1.400 . S
C829 C830 1.398 . S
C830 H818 0.950 . S
C830 C829 1.398 . S
C830 C831 1.391 . S
C831 H819 0.950 . S
C831 C827 1.393 . S
C831 C830 1.391 . S
H832 C840 0.950 . S
H833 C845 0.950 . S
H834 C842 0.950 . S
H835 C844 0.950 . S
H836 C846 0.950 . S
H837 C848 0.950 . S
H838 C850 0.950 . S
H839 C851 0.950 . S
C840 H832 0.950 . S
C840 C841 1.386 . S
C840 C842 1.391 . S
C841 C840 1.386 . S
C841 C845 1.393 . S
C842 H834 0.950 . S
C842 C840 1.391 . S
C842 C843 1.400 . S
C843 C842 1.400 . S
C843 C844 1.398 . S
C843 C849 1.491 . S
C844 H835 0.950 . S
C844 C843 1.398 . S
C844 C845 1.391 . S
C845 H833 0.950 . S
C845 C841 1.393 . S
C845 C844 1.391 . S
C846 H836 0.950 . S
C846 C847 1.386 . S
C846 C848 1.391 . S
C847 C846 1.386 . S
C847 C851 1.393 . S
C848 H837 0.950 . S
C848 C846 1.391 . S
C848 C849 1.400 . S
C849 C843 1.491 . S
C849 C848 1.400 . S
C849 C850 1.398 . S
C850 H838 0.950 . S
C850 C849 1.398 . S
C850 C851 1.391 . S
C851 H839 0.950 . S
C851 C847 1.393 . S
C851 C850 1.391 . S
H852 C860 0.950 . S
H853 C865 0.950 . S
H854 C862 0.950 . S
H855 C864 0.950 . S
H856 C866 0.950 . S
H857 C868 0.950 . S
H858 C870 0.950 . S
H859 C871 0.950 . S
C860 H852 0.950 . S
C860 C861 1.386 . S
C860 C862 1.391 . S
C861 C860 1.386 . S
C861 C865 1.393 . S
C862 H854 0.950 . S
C862 C860 1.391 . S
C862 C863 1.400 . S
C863 C862 1.400 . S
C863 C864 1.398 . S
C863 C869 1.491 . S
C864 H855 0.950 . S
C864 C863 1.398 . S
C864 C865 1.391 . S
C865 H853 0.950 . S
C865 C861 1.393 . S
C865 C864 1.391 . S
C866 H856 0.950 . S
C866 C867 1.386 1_554 S
C866 C868 1.391 . S
C867 C866 1.386 1_556 S
C867 C871 1.393 1_565 S
C868 H857 0.950 . S
C868 C866 1.391 . S
C868 C869 1.400 1_565 S
C869 C863 1.491 . S
C869 C868 1.400 1_545 S
C869 C870 1.398 . S
C870 H858 0.950 . S
C870 C869 1.398 . S
C870 C871 1.391 1_554 S
C871 H859 0.950 . S
C871 C867 1.393 1_545 S
C871 C870 1.391 1_556 S
H872 C880 0.950 . S
H873 C885 0.950 . S
H874 C882 0.950 . S
H875 C884 0.950 . S
H876 C886 0.950 . S
H877 C888 0.950 . S
H878 C890 0.950 . S
H879 C891 0.950 . S
C880 H872 0.950 . S
C880 C881 1.386 . S
C880 C882 1.391 . S
C881 C880 1.386 . S
C881 C885 1.393 . S
C882 H874 0.950 . S
C882 C880 1.391 . S
C882 C883 1.400 . S
C883 C882 1.400 . S
C883 C884 1.398 . S
C883 C889 1.491 . S
C884 H875 0.950 . S
C884 C883 1.398 . S
C884 C885 1.391 . S
C885 H873 0.950 . S
C885 C881 1.393 . S
C885 C884 1.391 . S
C886 H876 0.950 . S
C886 C887 1.386 . S
C886 C888 1.391 . S
C887 C886 1.386 . S
C887 C891 1.393 . S
C888 H877 0.950 . S
C888 C886 1.391 . S
C888 C889 1.400 . S
C889 C883 1.491 . S
C889 C888 1.400 . S
C889 C890 1.398 . S
C890 H878 0.950 . S
C890 C889 1.398 . S
C890 C891 1.391 . S
C891 H879 0.950 . S
C891 C887 1.393 . S
C891 C890 1.391 . S
H892 C900 0.950 . S
H893 C905 0.950 . S
H894 C902 0.950 . S
H895 C904 0.950 . S
H896 C906 0.950 . S
H897 C908 0.950 . S
H898 C910 0.950 . S
H899 C911 0.950 . S
C900 H892 0.950 . S
C900 C901 1.386 1_556 S
C900 C902 1.391 . S
C901 C900 1.386 1_554 S
C901 C905 1.393 . S
C902 H894 0.950 . S
C902 C900 1.391 . S
C902 C903 1.400 . S
C903 C902 1.400 . S
C903 C904 1.398 . S
C903 C909 1.491 . S
C904 H895 0.950 . S
C904 C903 1.398 . S
C904 C905 1.391 1_556 S
C905 H893 0.950 . S
C905 C901 1.393 . S
C905 C904 1.391 1_554 S
C906 H896 0.950 . S
C906 C907 1.386 . S
C906 C908 1.391 . S
C907 C906 1.386 . S
C907 C911 1.393 . S
C908 H897 0.950 . S
C908 C906 1.391 . S
C908 C909 1.400 . S
C909 C903 1.491 . S
C909 C908 1.400 . S
C909 C910 1.398 . S
C910 H898 0.950 . S
C910 C909 1.398 . S
C910 C911 1.391 . S
C911 H899 0.950 . S
C911 C907 1.393 . S
C911 C910 1.391 . S
H912 C920 0.950 . S
H913 C925 0.950 . S
H914 C922 0.950 . S
H915 C924 0.950 . S
H916 C926 0.950 . S
H917 C928 0.950 . S
H918 C930 0.950 . S
H919 C931 0.950 . S
C920 H912 0.950 . S
C920 C921 1.386 . S
C920 C922 1.391 . S
C921 C920 1.386 . S
C921 C925 1.393 . S
C922 H914 0.950 . S
C922 C920 1.391 . S
C922 C923 1.400 . S
C923 C922 1.400 . S
C923 C924 1.398 . S
C923 C929 1.491 . S
C924 H915 0.950 . S
C924 C923 1.398 . S
C924 C925 1.391 . S
C925 H913 0.950 . S
C925 C921 1.393 . S
C925 C924 1.391 . S
C926 H916 0.950 . S
C926 C927 1.386 . S
C926 C928 1.391 . S
C927 C926 1.386 . S
C927 C931 1.393 . S
C928 H917 0.950 . S
C928 C926 1.391 . S
C928 C929 1.400 . S
C929 C923 1.491 . S
C929 C928 1.400 . S
C929 C930 1.398 . S
C930 H918 0.950 . S
C930 C929 1.398 . S
C930 C931 1.391 . S
C931 H919 0.950 . S
C931 C927 1.393 . S
C931 C930 1.391 . S
H932 C940 0.950 . S
H933 C945 0.950 . S
H934 C942 0.950 . S
H935 C944 0.950 . S
H936 C946 0.950 . S
H937 C948 0.950 . S
H938 C950 0.950 . S
H939 C951 0.950 . S
C940 H932 0.950 . S
C940 C941 1.386 . S
C940 C942 1.391 . S
C941 C940 1.386 . S
C941 C945 1.393 . S
C942 H934 0.950 . S
C942 C940 1.391 . S
C942 C943 1.400 . S
C943 C942 1.400 . S
C943 C944 1.398 . S
C943 C949 1.491 . S
C944 H935 0.950 . S
C944 C943 1.398 . S
C944 C945 1.391 . S
C945 H933 0.950 . S
C945 C941 1.393 . S
C945 C944 1.391 . S
C946 H936 0.950 . S
C946 C947 1.386 . S
C946 C948 1.391 . S
C947 C946 1.386 . S
C947 C951 1.393 . S
C948 H937 0.950 . S
C948 C946 1.391 . S
C948 C949 1.400 . S
C949 C943 1.491 . S
C949 C948 1.400 . S
C949 C950 1.398 . S
C950 H938 0.950 . S
C950 C949 1.398 . S
C950 C951 1.391 . S
C951 H939 0.950 . S
C951 C947 1.393 . S
C951 C950 1.391 . S
H952 C960 0.950 . S
H953 C965 0.950 . S
H954 C962 0.950 . S
H955 C964 0.950 . S
H956 C966 0.950 . S
H957 C968 0.950 . S
H958 C970 0.950 . S
H959 C971 0.950 . S
C960 H952 0.950 . S
C960 C961 1.386 . S
C960 C962 1.391 . S
C961 C960 1.386 . S
C961 C965 1.393 . S
C962 H954 0.950 . S
C962 C960 1.391 . S
C962 C963 1.400 . S
C963 C962 1.400 . S
C963 C964 1.398 . S
C963 C969 1.491 . S
C964 H955 0.950 . S
C964 C963 1.398 . S
C964 C965 1.391 . S
C965 H953 0.950 . S
C965 C961 1.393 . S
C965 C964 1.391 . S
C966 H956 0.950 . S
C966 C967 1.386 . S
C966 C968 1.391 . S
C967 C966 1.386 . S
C967 C971 1.393 . S
C968 H957 0.950 . S
C968 C966 1.391 . S
C968 C969 1.400 . S
C969 C963 1.491 . S
C969 C968 1.400 . S
C969 C970 1.398 . S
C970 H958 0.950 . S
C970 C969 1.398 . S
C970 C971 1.391 . S
C971 H959 0.950 . S
C971 C967 1.393 . S
C971 C970 1.391 . S
H972 C980 0.950 . S
H973 C985 0.950 . S
H974 C982 0.950 . S
H975 C984 0.950 . S
H976 C986 0.950 . S
H977 C988 0.950 . S
H978 C990 0.950 . S
H979 C991 0.950 . S
C980 H972 0.950 . S
C980 C981 1.386 1_455 S
C980 C982 1.391 1_565 S
C981 C980 1.386 1_655 S
C981 C985 1.393 1_565 S
C982 H974 0.950 . S
C982 C980 1.391 1_545 S
C982 C983 1.400 . S
C983 C982 1.400 . S
C983 C984 1.398 1_455 S
C983 C989 1.491 . S
C984 H975 0.950 . S
C984 C983 1.398 1_655 S
C984 C985 1.391 . S
C985 H973 0.950 . S
C985 C981 1.393 1_545 S
C985 C984 1.391 . S
C986 H976 0.950 . S
C986 C987 1.386 . S
C986 C988 1.391 . S
C987 C986 1.386 . S
C987 C991 1.393 . S
C988 H977 0.950 . S
C988 C986 1.391 . S
C988 C989 1.400 . S
C989 C983 1.491 . S
C989 C988 1.400 . S
C989 C990 1.398 . S
C990 H978 0.950 . S
C990 C989 1.398 . S
C990 C991 1.391 . S
C991 H979 0.950 . S
C991 C987 1.393 . S
C991 C990 1.391 . S
H992 C1000 0.950 . S
H993 C1005 0.950 . S
H994 C1002 0.950 . S
H995 C1004 0.950 . S
H996 C1006 0.950 . S
H997 C1008 0.950 . S
H998 C1010 0.950 . S
H999 C1011 0.950 . S
C1000 H992 0.950 . S
C1000 C1001 1.386 . S
C1000 C1002 1.391 . S
C1001 C1000 1.386 . S
C1001 C1005 1.393 . S
C1002 H994 0.950 . S
C1002 C1000 1.391 . S
C1002 C1003 1.400 . S
C1003 C1002 1.400 . S
C1003 C1004 1.398 . S
C1003 C1009 1.491 . S
C1004 H995 0.950 . S
C1004 C1003 1.398 . S
C1004 C1005 1.391 . S
C1005 H993 0.950 . S
C1005 C1001 1.393 . S
C1005 C1004 1.391 . S
C1006 H996 0.950 . S
C1006 C1007 1.386 . S
C1006 C1008 1.391 . S
C1007 C1006 1.386 . S
C1007 C1011 1.393 . S
C1008 H997 0.950 . S
C1008 C1006 1.391 . S
C1008 C1009 1.400 . S
C1009 C1003 1.491 . S
C1009 C1008 1.400 . S
C1009 C1010 1.398 . S
C1010 H998 0.950 . S
C1010 C1009 1.398 . S
C1010 C1011 1.391 . S
C1011 H999 0.950 . S
C1011 C1007 1.393 . S
C1011 C1010 1.391 . S
H1012 C1020 0.950 . S
H1013 C1025 0.950 . S
H1014 C1022 0.950 . S
H1015 C1024 0.950 . S
H1016 C1026 0.950 . S
H1017 C1028 0.950 . S
H1018 C1030 0.950 . S
H1019 C1031 0.950 . S
C1020 H1012 0.950 . S
C1020 C1021 1.386 . S
C1020 C1022 1.391 1_545 S
C1021 C1020 1.386 . S
C1021 C1025 1.393 1_545 S
C1022 H1014 0.950 . S
C1022 C1020 1.391 1_565 S
C1022 C1023 1.400 . S
C1023 C1022 1.400 . S
C1023 C1024 1.398 . S
C1023 C1029 1.491 . S
C1024 H1015 0.950 . S
C1024 C1023 1.398 . S
C1024 C1025 1.391 . S
C1025 H1013 0.950 . S
C1025 C1021 1.393 1_565 S
C1025 C1024 1.391 . S
C1026 H1016 0.950 . S
C1026 C1027 1.386 . S
C1026 C1028 1.391 . S
C1027 C1026 1.386 . S
C1027 C1031 1.393 . S
C1028 H1017 0.950 . S
C1028 C1026 1.391 . S
C1028 C1029 1.400 . S
C1029 C1023 1.491 . S
C1029 C1028 1.400 . S
C1029 C1030 1.398 . S
C1030 H1018 0.950 . S
C1030 C1029 1.398 . S
C1030 C1031 1.391 . S
C1031 H1019 0.950 . S
C1031 C1027 1.393 . S
C1031 C1030 1.391 . S
H1032 C1040 0.950 . S
H1033 C1045 0.950 . S
H1034 C1042 0.950 . S
H1035 C1044 0.950 . S
H1036 C1046 0.950 . S
H1037 C1048 0.950 . S
H1038 C1050 0.950 . S
H1039 C1051 0.950 . S
C1040 H1032 0.950 . S
C1040 C1041 1.386 . S
C1040 C1042 1.391 . S
C1041 C1040 1.386 . S
C1041 C1045 1.393 . S
C1042 H1034 0.950 . S
C1042 C1040 1.391 . S
C1042 C1043 1.400 . S
C1043 C1042 1.400 . S
C1043 C1044 1.398 . S
C1043 C1049 1.491 . S
C1044 H1035 0.950 . S
C1044 C1043 1.398 . S
C1044 C1045 1.391 . S
C1045 H1033 0.950 . S
C1045 C1041 1.393 . S
C1045 C1044 1.391 . S
C1046 H1036 0.950 . S
C1046 C1047 1.386 . S
C1046 C1048 1.391 . S
C1047 C1046 1.386 . S
C1047 C1051 1.393 . S
C1048 H1037 0.950 . S
C1048 C1046 1.391 . S
C1048 C1049 1.400 . S
C1049 C1043 1.491 . S
C1049 C1048 1.400 . S
C1049 C1050 1.398 . S
C1050 H1038 0.950 . S
C1050 C1049 1.398 . S
C1050 C1051 1.391 . S
C1051 H1039 0.950 . S
C1051 C1047 1.393 . S
C1051 C1050 1.391 . S
H1052 C1060 0.950 . S
H1053 C1065 0.950 . S
H1054 C1062 0.950 . S
H1055 C1064 0.950 . S
H1056 C1066 0.950 . S
H1057 C1068 0.950 . S
H1058 C1070 0.950 . S
H1059 C1071 0.950 . S
C1060 H1052 0.950 . S
C1060 C1061 1.386 1_655 S
C1060 C1062 1.391 . S
C1061 C1060 1.386 1_455 S
C1061 C1065 1.393 . S
C1062 H1054 0.950 . S
C1062 C1060 1.391 . S
C1062 C1063 1.400 . S
C1063 C1062 1.400 . S
C1063 C1064 1.398 1_655 S
C1063 C1069 1.491 . S
C1064 H1055 0.950 . S
C1064 C1063 1.398 1_455 S
C1064 C1065 1.391 . S
C1065 H1053 0.950 . S
C1065 C1061 1.393 . S
C1065 C1064 1.391 . S
C1066 H1056 0.950 . S
C1066 C1067 1.386 . S
C1066 C1068 1.391 . S
C1067 C1066 1.386 . S
C1067 C1071 1.393 . S
C1068 H1057 0.950 . S
C1068 C1066 1.391 . S
C1068 C1069 1.400 . S
C1069 C1063 1.491 . S
C1069 C1068 1.400 . S
C1069 C1070 1.398 . S
C1070 H1058 0.950 . S
C1070 C1069 1.398 . S
C1070 C1071 1.391 . S
C1071 H1059 0.950 . S
C1071 C1067 1.393 . S
C1071 C1070 1.391 . S
H1072 C1080 0.950 . S
H1073 C1085 0.950 . S
H1074 C1082 0.950 . S
H1075 C1084 0.950 . S
H1076 C1086 0.950 . S
H1077 C1088 0.950 . S
H1078 C1090 0.950 . S
H1079 C1091 0.950 . S
C1080 H1072 0.950 . S
C1080 C1081 1.386 . S
C1080 C1082 1.391 . S
C1081 C1080 1.386 . S
C1081 C1085 1.393 . S
C1082 H1074 0.950 . S
C1082 C1080 1.391 . S
C1082 C1083 1.400 . S
C1083 C1082 1.400 . S
C1083 C1084 1.398 . S
C1083 C1089 1.491 . S
C1084 H1075 0.950 . S
C1084 C1083 1.398 . S
C1084 C1085 1.391 . S
C1085 H1073 0.950 . S
C1085 C1081 1.393 . S
C1085 C1084 1.391 . S
C1086 H1076 0.950 . S
C1086 C1087 1.386 . S
C1086 C1088 1.391 . S
C1087 C1086 1.386 . S
C1087 C1091 1.393 . S
C1088 H1077 0.950 . S
C1088 C1086 1.391 . S
C1088 C1089 1.400 . S
C1089 C1083 1.491 . S
C1089 C1088 1.400 . S
C1089 C1090 1.398 . S
C1090 H1078 0.950 . S
C1090 C1089 1.398 . S
C1090 C1091 1.391 . S
C1091 H1079 0.950 . S
C1091 C1087 1.393 . S
C1091 C1090 1.391 . S
H1092 C1100 0.950 . S
H1093 C1105 0.950 . S
H1094 C1102 0.950 . S
H1095 C1104 0.950 . S
H1096 C1106 0.950 . S
H1097 C1108 0.950 . S
H1098 C1110 0.950 . S
H1099 C1111 0.950 . S
C1100 H1092 0.950 . S
C1100 C1101 1.386 . S
C1100 C1102 1.391 . S
C1101 C1100 1.386 . S
C1101 C1105 1.393 . S
C1102 H1094 0.950 . S
C1102 C1100 1.391 . S
C1102 C1103 1.400 . S
C1103 C1102 1.400 . S
C1103 C1104 1.398 . S
C1103 C1109 1.491 . S
C1104 H1095 0.950 . S
C1104 C1103 1.398 . S
C1104 C1105 1.391 . S
C1105 H1093 0.950 . S
C1105 C1101 1.393 . S
C1105 C1104 1.391 . S
C1106 H1096 0.950 . S
C1106 C1107 1.386 . S
C1106 C1108 1.391 . S
C1107 C1106 1.386 . S
C1107 C1111 1.393 . S
C1108 H1097 0.950 . S
C1108 C1106 1.391 . S
C1108 C1109 1.400 . S
C1109 C1103 1.491 . S
C1109 C1108 1.400 . S
C1109 C1110 1.398 . S
C1110 H1098 0.950 . S
C1110 C1109 1.398 . S
C1110 C1111 1.391 . S
C1111 H1099 0.950 . S
C1111 C1107 1.393 . S
C1111 C1110 1.391 . S
H1112 C1120 0.950 . S
H1113 C1125 0.950 . S
H1114 C1122 0.950 . S
H1115 C1124 0.950 . S
H1116 C1126 0.950 . S
H1117 C1128 0.950 . S
H1118 C1130 0.950 . S
H1119 C1131 0.950 . S
C1120 H1112 0.950 . S
C1120 C1121 1.386 . S
C1120 C1122 1.391 . S
C1121 C1120 1.386 . S
C1121 C1125 1.393 . S
C1122 H1114 0.950 . S
C1122 C1120 1.391 . S
C1122 C1123 1.400 . S
C1123 C1122 1.400 . S
C1123 C1124 1.398 . S
C1123 C1129 1.491 . S
C1124 H1115 0.950 . S
C1124 C1123 1.398 . S
C1124 C1125 1.391 . S
C1125 H1113 0.950 . S
C1125 C1121 1.393 . S
C1125 C1124 1.391 . S
C1126 H1116 0.950 . S
C1126 C1127 1.386 . S
C1126 C1128 1.391 . S
C1127 C1126 1.386 . S
C1127 C1131 1.393 . S
C1128 H1117 0.950 . S
C1128 C1126 1.391 . S
C1128 C1129 1.400 . S
C1129 C1123 1.491 . S
C1129 C1128 1.400 . S
C1129 C1130 1.398 . S
C1130 H1118 0.950 . S
C1130 C1129 1.398 . S
C1130 C1131 1.391 . S
C1131 H1119 0.950 . S
C1131 C1127 1.393 . S
C1131 C1130 1.391 . S
H1132 C1140 0.950 . S
H1133 C1145 0.950 . S
H1134 C1142 0.950 . S
H1135 C1144 0.950 . S
H1136 C1146 0.950 . S
H1137 C1148 0.950 . S
H1138 C1150 0.950 . S
H1139 C1151 0.950 . S
C1140 H1132 0.950 . S
C1140 C1141 1.386 . S
C1140 C1142 1.391 . S
C1141 C1140 1.386 . S
C1141 C1145 1.393 . S
C1142 H1134 0.950 . S
C1142 C1140 1.391 . S
C1142 C1143 1.400 . S
C1143 C1142 1.400 . S
C1143 C1144 1.398 . S
C1143 C1149 1.491 . S
C1144 H1135 0.950 . S
C1144 C1143 1.398 . S
C1144 C1145 1.391 . S
C1145 H1133 0.950 . S
C1145 C1141 1.393 . S
C1145 C1144 1.391 . S
C1146 H1136 0.950 . S
C1146 C1147 1.386 . S
C1146 C1148 1.391 . S
C1147 C1146 1.386 . S
C1147 C1151 1.393 . S
C1148 H1137 0.950 . S
C1148 C1146 1.391 . S
C1148 C1149 1.400 . S
C1149 C1143 1.491 . S
C1149 C1148 1.400 . S
C1149 C1150 1.398 . S
C1150 H1138 0.950 . S
C1150 C1149 1.398 . S
C1150 C1151 1.391 . S
C1151 H1139 0.950 . S
C1151 C1147 1.393 . S
C1151 C1150 1.391 . S
H1152 C1160 0.950 . S
H1153 C1165 0.950 . S
H1154 C1162 0.950 . S
H1155 C1164 0.951 1_556 S
H1156 C1166 0.950 . S
H1157 C1168 0.950 . S
H1158 C1170 0.950 . S
H1159 C1171 0.950 . S
C1160 H1152 0.950 . S
C1160 C1161 1.386 1_554 S
C1160 C1162 1.391 1_655 S
C1161 C1160 1.386 1_556 S
C1161 C1165 1.393 1_655 S
C1162 H1154 0.950 . S
C1162 C1160 1.391 1_455 S
C1162 C1163 1.400 . S
C1163 C1162 1.400 . S
C1163 C1164 1.394 . S
C1163 C1169 1.491 . S
C1164 H1155 0.951 1_554 S
C1164 C1163 1.394 . S
C1164 C1165 1.394 1_554 S
C1165 H1153 0.950 . S
C1165 C1161 1.393 1_455 S
C1165 C1164 1.394 1_556 S
C1166 H1156 0.950 . S
C1166 C1167 1.386 . S
C1166 C1168 1.391 . S
C1167 C1166 1.386 . S
C1167 C1171 1.393 . S
C1168 H1157 0.950 . S
C1168 C1166 1.391 . S
C1168 C1169 1.400 . S
C1169 C1163 1.491 . S
C1169 C1168 1.400 . S
C1169 C1170 1.398 . S
C1170 H1158 0.950 . S
C1170 C1169 1.398 . S
C1170 C1171 1.391 . S
C1171 H1159 0.950 . S
C1171 C1167 1.393 . S
C1171 C1170 1.391 . S
H1172 C1180 0.950 . S
H1173 C1185 0.950 . S
H1174 C1182 0.950 . S
H1175 C1184 0.950 . S
H1176 C1186 0.950 . S
H1177 C1188 0.950 . S
H1178 C1190 0.950 . S
H1179 C1191 0.950 . S
C1180 H1172 0.950 . S
C1180 C1181 1.386 . S
C1180 C1182 1.391 . S
C1181 C1180 1.386 . S
C1181 C1185 1.393 . S
C1182 H1174 0.950 . S
C1182 C1180 1.391 . S
C1182 C1183 1.400 . S
C1183 C1182 1.400 . S
C1183 C1184 1.398 . S
C1183 C1189 1.491 . S
C1184 H1175 0.950 . S
C1184 C1183 1.398 . S
C1184 C1185 1.391 . S
C1185 H1173 0.950 . S
C1185 C1181 1.393 . S
C1185 C1184 1.391 . S
C1186 H1176 0.950 . S
C1186 C1187 1.386 . S
C1186 C1188 1.391 . S
C1187 C1186 1.386 . S
C1187 C1191 1.393 . S
C1188 H1177 0.950 . S
C1188 C1186 1.391 . S
C1188 C1189 1.400 . S
C1189 C1183 1.491 . S
C1189 C1188 1.400 . S
C1189 C1190 1.398 . S
C1190 H1178 0.950 . S
C1190 C1189 1.398 . S
C1190 C1191 1.391 . S
C1191 H1179 0.950 . S
C1191 C1187 1.393 . S
C1191 C1190 1.391 . S
H1192 C1200 0.950 . S
H1193 C1205 0.950 . S
H1194 C1202 0.950 . S
H1195 C1204 0.950 . S
H1196 C1206 0.950 . S
H1197 C1208 0.950 . S
H1198 C1210 0.950 . S
H1199 C1211 0.950 . S
C1200 H1192 0.950 . S
C1200 C1201 1.386 . S
C1200 C1202 1.391 . S
C1201 C1200 1.386 . S
C1201 C1205 1.393 . S
C1202 H1194 0.950 . S
C1202 C1200 1.391 . S
C1202 C1203 1.400 . S
C1203 C1202 1.400 . S
C1203 C1204 1.398 . S
C1203 C1209 1.491 . S
C1204 H1195 0.950 . S
C1204 C1203 1.398 . S
C1204 C1205 1.391 . S
C1205 H1193 0.950 . S
C1205 C1201 1.393 . S
C1205 C1204 1.391 . S
C1206 H1196 0.950 . S
C1206 C1207 1.386 . S
C1206 C1208 1.391 . S
C1207 C1206 1.386 . S
C1207 C1211 1.393 . S
C1208 H1197 0.950 . S
C1208 C1206 1.391 . S
C1208 C1209 1.400 . S
C1209 C1203 1.491 . S
C1209 C1208 1.400 . S
C1209 C1210 1.398 . S
C1210 H1198 0.950 . S
C1210 C1209 1.398 . S
C1210 C1211 1.391 . S
C1211 H1199 0.950 . S
C1211 C1207 1.393 . S
C1211 C1210 1.391 . S
H1212 C1220 0.950 . S
H1213 C1225 0.950 . S
H1214 C1222 0.950 . S
H1215 C1224 0.950 . S
H1216 C1226 0.950 . S
H1217 C1228 0.950 . S
H1218 C1230 0.950 . S
H1219 C1231 0.950 . S
C1220 H1212 0.950 . S
C1220 C1221 1.386 . S
C1220 C1222 1.391 . S
C1221 C1220 1.386 . S
C1221 C1225 1.393 . S
C1222 H1214 0.950 . S
C1222 C1220 1.391 . S
C1222 C1223 1.400 . S
C1223 C1222 1.400 . S
C1223 C1224 1.398 . S
C1223 C1229 1.491 . S
C1224 H1215 0.950 . S
C1224 C1223 1.398 . S
C1224 C1225 1.391 . S
C1225 H1213 0.950 . S
C1225 C1221 1.393 . S
C1225 C1224 1.391 . S
C1226 H1216 0.950 . S
C1226 C1227 1.386 . S
C1226 C1228 1.391 . S
C1227 C1226 1.386 . S
C1227 C1231 1.393 . S
C1228 H1217 0.950 . S
C1228 C1226 1.391 . S
C1228 C1229 1.400 . S
C1229 C1223 1.491 . S
C1229 C1228 1.400 . S
C1229 C1230 1.398 . S
C1230 H1218 0.950 . S
C1230 C1229 1.398 . S
C1230 C1231 1.391 . S
C1231 H1219 0.950 . S
C1231 C1227 1.393 . S
C1231 C1230 1.391 . S
H1232 C1240 0.950 . S
H1233 C1245 0.949 1_554 S
H1234 C1242 0.950 . S
H1235 C1244 0.950 . S
H1236 C1246 0.950 . S
H1237 C1248 0.950 . S
H1238 C1250 0.950 . S
H1239 C1251 0.950 . S
C1240 H1232 0.950 . S
C1240 C1241 1.386 . S
C1240 C1242 1.391 1_554 S
C1241 C1240 1.386 . S
C1241 C1245 1.393 1_554 S
C1242 H1234 0.950 . S
C1242 C1240 1.391 1_556 S
C1242 C1243 1.400 . S
C1243 C1242 1.400 . S
C1243 C1244 1.398 . S
C1243 C1249 1.491 . S
C1244 H1235 0.950 . S
C1244 C1243 1.398 . S
C1244 C1245 1.391 . S
C1245 H1233 0.949 1_556 S
C1245 C1241 1.393 1_556 S
C1245 C1244 1.391 . S
C1246 H1236 0.950 . S
C1246 C1247 1.386 . S
C1246 C1248 1.391 . S
C1247 C1246 1.386 . S
C1247 C1251 1.393 . S
C1248 H1237 0.950 . S
C1248 C1246 1.391 . S
C1248 C1249 1.400 . S
C1249 C1243 1.491 . S
C1249 C1248 1.400 . S
C1249 C1250 1.398 . S
C1250 H1238 0.950 . S
C1250 C1249 1.398 . S
C1250 C1251 1.391 . S
C1251 H1239 0.950 . S
C1251 C1247 1.393 . S
C1251 C1250 1.391 . S
H1252 C1260 0.950 . S
H1253 C1265 0.950 . S
H1254 C1262 0.950 . S
H1255 C1264 0.950 . S
H1256 C1266 0.950 . S
H1257 C1268 0.950 . S
H1258 C1270 0.950 . S
H1259 C1271 0.950 . S
C1260 H1252 0.950 . S
C1260 C1261 1.386 . S
C1260 C1262 1.391 . S
C1261 C1260 1.386 . S
C1261 C1265 1.393 . S
C1262 H1254 0.950 . S
C1262 C1260 1.391 . S
C1262 C1263 1.400 . S
C1263 C1262 1.400 . S
C1263 C1264 1.398 . S
C1263 C1269 1.491 . S
C1264 H1255 0.950 . S
C1264 C1263 1.398 . S
C1264 C1265 1.391 . S
C1265 H1253 0.950 . S
C1265 C1261 1.393 . S
C1265 C1264 1.391 . S
C1266 H1256 0.950 . S
C1266 C1267 1.386 1_655 S
C1266 C1268 1.391 . S
C1267 C1266 1.386 1_455 S
C1267 C1271 1.393 . S
C1268 H1257 0.950 . S
C1268 C1266 1.391 . S
C1268 C1269 1.400 . S
C1269 C1263 1.491 . S
C1269 C1268 1.400 . S
C1269 C1270 1.398 . S
C1270 H1258 0.950 . S
C1270 C1269 1.398 . S
C1270 C1271 1.391 1_655 S
C1271 H1259 0.950 . S
C1271 C1267 1.393 . S
C1271 C1270 1.391 1_455 S
C321 C117 1.108 . S
C327 C0 1.119 . S
C341 C13 1.109 . S
C347 C130 1.109 . S
C361 C26 1.109 . S
C367 C143 1.120 . S
C381 C39 1.133 . S
C387 C104 1.148 . S
C401 C52 1.128 . S
C407 C195 1.144 . S
C421 C156 1.152 . S
C427 C65 1.154 . S
C441 C78 1.110 . S
C447 C169 1.123 . S
C461 C182 1.109 . S
C467 C91 1.109 . S
C481 C208 1.150 . S
C487 C234 1.155 . S
C501 C286 1.115 . S
C507 C221 1.131 . S
C521 C247 1.114 . S
C527 C299 1.108 . S
C541 C273 1.135 . S
C547 C260 1.149 . S
C561 C268 1.534 . S
C567 C8 1.523 . S
C581 C21 1.514 . S
C587 C229 1.527 . S
C601 C34 1.528 . S
C607 C242 1.530 . S
C621 C47 1.521 . S
C627 C255 1.518 . S
C641 C60 1.513 . S
C647 C307 1.529 . S
C661 C281 1.520 . S
C667 C73 1.535 . S
C681 C294 1.524 . S
C687 C86 1.533 . S
C701 C216 1.518 . S
C707 C99 1.535 . S
C721 C203 1.524 . S
C727 C112 1.533 . S
C741 C125 1.533 . S
C747 C164 1.524 . S
C761 C177 1.525 . S
C767 C138 1.515 . S
C781 C190 1.535 . S
C787 C151 1.521 . S
C801 C5 0.836 . S
C807 C218 0.961 . S
C821 C309 0.934 . S
C827 C18 0.877 . S
C841 C283 0.961 . S
C847 C31 0.848 . S
C861 C44 0.888 . S
C867 C296 0.949 . S
C881 C57 0.863 . S
C887 C231 0.958 . S
C901 C244 0.960 . S
C907 C70 0.828 . S
C921 C257 0.954 . S
C927 C83 0.824 . S
C941 C270 0.940 . S
C947 C96 0.851 . S
C961 C10 0.960 . S
C967 C109 0.853 . S
C981 C23 0.957 . S
C987 C122 0.865 . S
C1001 C36 0.933 . S
C1007 C135 0.882 . S
C1021 C49 0.953 . S
C1027 C148 0.880 . S
C1041 C62 0.949 . S
C1047 C161 0.829 . S
C1061 C75 0.958 . S
C1067 C174 0.861 . S
C1081 C187 0.825 . S
C1087 C88 0.959 . S
C1101 C101 0.960 . S
C1107 C200 0.849 . S
C1121 C114 0.940 . S
C1127 C213 0.849 . S
C1141 C226 0.825 . S
C1147 C166 0.952 . S
C1161 C179 0.940 . S
C1167 C239 0.899 . S
C1181 C252 0.868 . S
C1187 C192 0.957 . S
C1201 C265 0.831 . S
C1207 C205 0.961 . S
C1221 C278 0.870 . S
C1227 C140 0.935 . S
C1241 C153 0.958 . S
C1247 C291 0.824 . S
C1261 C304 0.874 . S
C1267 C127 0.955 . S
