# Generated by pormake.
# Topology smc, (6)-cn, num edge types: 1
# Building blocks:
#     Node 0, Type 0, BuildingBlock: MIDCAF_clean_sbu_0, # of connection points: 6
#     Node 1, Type 0, BuildingBlock: MIDCAF_clean_sbu_0, # of connection points: 6
#     Node 2, Type 0, BuildingBlock: MIDCAF_clean_sbu_0, # of connection points: 6
#     Node 3, Type 0, BuildingBlock: MIDCAF_clean_sbu_0, # of connection points: 6
#     Node 4, Type 0, BuildingBlock: MIDCAF_clean_sbu_0, # of connection points: 6
#     Node 5, Type 0, BuildingBlock: MIDCAF_clean_sbu_0, # of connection points: 6
#     Node 6, Type 0, BuildingBlock: MIDCAF_clean_sbu_0, # of connection points: 6
#     Node 7, Type 0, BuildingBlock: MIDCAF_clean_sbu_0, # of connection points: 6
#     Node 8, Type 0, BuildingBlock: MIDCAF_clean_sbu_0, # of connection points: 6
#     Edge 9, Type (0, 0), BuildingBlock: TEMPAE_clean_linker_10, # of connection points: 2
#     Edge 10, Type (0, 0), BuildingBlock: TEMPAE_clean_linker_10, # of connection points: 2
#     Edge 11, Type (0, 0), BuildingBlock: TEMPAE_clean_linker_10, # of connection points: 2
#     Edge 12, Type (0, 0), BuildingBlock: TEMPAE_clean_linker_10, # of connection points: 2
#     Edge 13, Type (0, 0), BuildingBlock: TEMPAE_clean_linker_10, # of connection points: 2
#     Edge 14, Type (0, 0), BuildingBlock: TEMPAE_clean_linker_10, # of connection points: 2
#     Edge 15, Type (0, 0), BuildingBlock: TEMPAE_clean_linker_10, # of connection points: 2
#     Edge 16, Type (0, 0), BuildingBlock: TEMPAE_clean_linker_10, # of connection points: 2
#     Edge 17, Type (0, 0), BuildingBlock: TEMPAE_clean_linker_10, # of connection points: 2
#     Edge 18, Type (0, 0), BuildingBlock: TEMPAE_clean_linker_10, # of connection points: 2
#     Edge 19, Type (0, 0), BuildingBlock: TEMPAE_clean_linker_10, # of connection points: 2
#     Edge 20, Type (0, 0), BuildingBlock: TEMPAE_clean_linker_10, # of connection points: 2
#     Edge 21, Type (0, 0), BuildingBlock: TEMPAE_clean_linker_10, # of connection points: 2
#     Edge 22, Type (0, 0), BuildingBlock: TEMPAE_clean_linker_10, # of connection points: 2
#     Edge 23, Type (0, 0), BuildingBlock: TEMPAE_clean_linker_10, # of connection points: 2
#     Edge 24, Type (0, 0), BuildingBlock: TEMPAE_clean_linker_10, # of connection points: 2
#     Edge 25, Type (0, 0), BuildingBlock: TEMPAE_clean_linker_10, # of connection points: 2
#     Edge 26, Type (0, 0), BuildingBlock: TEMPAE_clean_linker_10, # of connection points: 2
#     Edge 27, Type (0, 0), BuildingBlock: TEMPAE_clean_linker_10, # of connection points: 2
#     Edge 28, Type (0, 0), BuildingBlock: TEMPAE_clean_linker_10, # of connection points: 2
#     Edge 29, Type (0, 0), BuildingBlock: TEMPAE_clean_linker_10, # of connection points: 2
#     Edge 30, Type (0, 0), BuildingBlock: TEMPAE_clean_linker_10, # of connection points: 2
#     Edge 31, Type (0, 0), BuildingBlock: TEMPAE_clean_linker_10, # of connection points: 2
#     Edge 32, Type (0, 0), BuildingBlock: TEMPAE_clean_linker_10, # of connection points: 2
#     Edge 33, Type (0, 0), BuildingBlock: TEMPAE_clean_linker_10, # of connection points: 2
#     Edge 34, Type (0, 0), BuildingBlock: TEMPAE_clean_linker_10, # of connection points: 2
#     Edge 35, Type (0, 0), BuildingBlock: TEMPAE_clean_linker_10, # of connection points: 2
# Relax obj value: 0.332
# Max RMSD: 0.258
# Mean RMSD: 0.258
data_MOF--net-smc--node1-MIDCAF_clean_sbu_0--edge1-TEMPAE_clean_linker_10
_symmetry_space_group_name_H-M    P1
_symmetry_Int_Tables_number       1
_symmetry_cell_setting            triclinic
loop_
_symmetry_equiv_pos_as_xyz
'x, y, z'
_cell_length_a     28.107084
_cell_length_b     28.149989
_cell_length_c     45.179886
_cell_angle_alpha  90.333419
_cell_angle_beta   89.745403
_cell_angle_gamma 119.97708
loop_
_atom_site_label
_atom_site_type_symbol
_atom_site_fract_x
_atom_site_fract_y
_atom_site_fract_z
_atom_type_partial_charge
Zn0 Zn 0.13102 0.51476 0.94741 0.0
Zn1 Zn 0.96871 0.42125 0.0132 0.0
Zn2 Zn 0.04784 0.46983 0.98411 0.0
C3 C 0.96045 0.34645 0.97399 0.0
C4 C 0.04973 0.45528 0.05343 0.0
O5 O 0.06302 0.55312 0.97901 0.0
O6 O 0.13684 0.58798 0.95051 0.0
C7 C 0.05169 0.43277 0.91466 0.0
O8 O 0.99134 0.3929 0.96152 0.0
O9 O 0.94992 0.34523 1.00122 0.0
O10 O 0.00176 0.44804 0.05245 0.0
O11 O 0.07412 0.45617 0.02894 0.0
O12 O 0.10056 0.47067 0.91088 0.0
O13 O 0.02819 0.42625 0.94015 0.0
O14 O 0.11651 0.47 0.00795 0.0
O15 O 0.1803 0.50133 0.97288 0.0
C16 C 0.16482 0.48263 0.99864 0.0
O17 O 0.00871 0.52152 0.98866 0.0
O18 O 0.92515 0.45413 0.99793 0.0
C19 C 0.1024 0.59424 0.96564 0.0
C20 C 0.95688 0.50393 0.99154 0.0
Zn21 Zn 0.57661 0.65816 0.06337 0.0
Zn22 Zn 0.68272 0.5869 0.08883 0.0
Zn23 Zn 0.63337 0.62406 0.06586 0.0
C24 C 0.7465 0.65885 0.0406 0.0
C25 C 0.66573 0.64659 0.13308 0.0
O26 O 0.54653 0.55956 0.06188 0.0
O27 O 0.52077 0.60383 0.09188 0.0
C28 C 0.60798 0.64348 0.00492 0.0
O29 O 0.70231 0.65993 0.03465 0.0
O30 O 0.74848 0.634 0.06343 0.0
O31 O 0.68287 0.61288 0.13047 0.0
O32 O 0.64542 0.65727 0.11055 0.0
O33 O 0.56548 0.63865 0.01772 0.0
O34 O 0.65051 0.65514 0.02092 0.0
O35 O 0.6772 0.7047 0.04272 0.0
O36 O 0.63891 0.73301 0.07515 0.0
C37 C 0.67403 0.74462 0.05476 0.0
O38 O 0.58417 0.53829 0.05361 0.0
O39 O 0.63466 0.50829 0.07456 0.0
C40 C 0.50927 0.55995 0.07832 0.0
C41 C 0.59461 0.49948 0.05813 0.0
Zn42 Zn 0.51824 0.09824 0.02223 0.0
Zn43 Zn 0.44016 0.96395 0.95117 0.0
Zn44 Zn 0.47747 0.03623 0.98417 0.0
C45 C 0.35652 0.94652 0.98755 0.0
C46 C 0.47077 0.05395 0.91742 0.0
O47 O 0.56371 0.05683 0.98422 0.0
O48 O 0.59517 0.13515 0.00813 0.0
C49 C 0.44955 0.01552 0.0542 0.0
O50 O 0.39955 0.9747 1.00345 0.0
O51 O 0.36184 0.94187 0.96013 0.0
O52 O 0.4746 0.01116 0.91604 0.0
O53 O 0.46266 0.06973 0.94285 0.0
O54 O 0.4984 0.05323 0.05835 0.0
O55 O 0.4304 0.00555 0.0275 0.0
O56 O 0.4766 0.1094 0.96778 0.0
O57 O 0.47506 0.13509 0.01365 0.0
C58 C 0.46924 0.13993 0.98635 0.0
O59 O 0.53449 0.00236 0.97907 0.0
O60 O 0.47169 0.91861 0.96655 0.0
C61 C 0.60418 0.1036 0.99213 0.0
C62 C 0.51983 0.95133 0.9754 0.0
Zn63 Zn 0.74231 0.84324 0.39634 0.0
Zn64 Zn 0.56662 0.72824 0.43021 0.0
Zn65 Zn 0.65281 0.78511 0.40412 0.0
C66 C 0.58011 0.66537 0.38343 0.0
C67 C 0.65488 0.76685 0.4712 0.0
O68 O 0.66778 0.86772 0.39427 0.0
O69 O 0.74255 0.90256 0.42108 0.0
C70 C 0.69715 0.79418 0.34104 0.0
O71 O 0.62351 0.71101 0.37705 0.0
O72 O 0.55104 0.66234 0.4056 0.0
O73 O 0.60306 0.73816 0.46996 0.0
O74 O 0.6826 0.78877 0.44787 0.0
O75 O 0.73193 0.84211 0.34982 0.0
O76 O 0.66833 0.75832 0.36099 0.0
O77 O 0.69132 0.73794 0.38554 0.0
O78 O 0.7624 0.78936 0.41336 0.0
C79 C 0.73649 0.74663 0.39766 0.0
O80 O 0.60711 0.82711 0.39432 0.0
O81 O 0.5305 0.77252 0.41833 0.0
C82 C 0.706 0.90865 0.40844 0.0
C83 C 0.5583 0.81436 0.40236 0.0
Zn84 Zn 0.24848 0.84703 0.31649 0.0
Zn85 Zn 0.17804 0.95477 0.28633 0.0
Zn86 Zn 0.21245 0.90238 0.31016 0.0
C87 C 0.25099 0.01716 0.33475 0.0
C88 C 0.23662 0.9312 0.24328 0.0
O89 O 0.14699 0.81702 0.31541 0.0
O90 O 0.1943 0.78931 0.2891 0.0
C91 C 0.24067 0.88646 0.37363 0.0
O92 O 0.25349 0.97353 0.33983 0.0
O93 O 0.22329 0.0187 0.31315 0.0
O94 O 0.20756 0.9538 0.2457 0.0
O95 O 0.24426 0.90888 0.2659 0.0
O96 O 0.2339 0.84167 0.36289 0.0
O97 O 0.24789 0.92451 0.35516 0.0
O98 O 0.29474 0.9493 0.33197 0.0
O99 O 0.32203 0.90707 0.30162 0.0
C100 C 0.33447 0.94551 0.32003 0.0
O101 O 0.12365 0.85408 0.31945 0.0
O102 O 0.09792 0.90671 0.29689 0.0
C103 C 0.14873 0.77998 0.2995 0.0
C104 C 0.08572 0.86464 0.31222 0.0
Zn105 Zn 0.12939 0.40915 0.35865 0.0
Zn106 Zn 0.07101 0.25545 0.28969 0.0
Zn107 Zn 0.10547 0.33702 0.32555 0.0
C108 C 0.9921 0.22492 0.33393 0.0
C109 C 0.08233 0.34075 0.25506 0.0
O110 O 0.19324 0.37062 0.33507 0.0
O111 O 0.20726 0.45283 0.34616 0.0
C112 C 0.07394 0.32533 0.39402 0.0
O113 O 0.02905 0.27117 0.34471 0.0
O114 O -0.00057 0.20807 0.30932 0.0
O115 O 0.07158 0.29174 0.25229 0.0
O116 O 0.09326 0.36377 0.28084 0.0
O117 O 0.11676 0.3713 0.39704 0.0
O118 O 0.05581 0.30741 0.36771 0.0
O119 O 0.09325 0.39873 0.303 0.0
O120 O 0.07401 0.42846 0.34394 0.0
C121 C 0.07301 0.42541 0.31606 0.0
O122 O 0.17225 0.31709 0.32519 0.0
O123 O 0.13229 0.24172 0.29803 0.0
C124 C 0.2265 0.42184 0.34009 0.0
C125 C 0.17225 0.27503 0.31384 0.0
Zn126 Zn 0.37569 0.07111 0.63692 0.0
Zn127 Zn 0.21729 0.99074 0.68771 0.0
Zn128 Zn 0.28903 0.02659 0.65307 0.0
C129 C 0.19401 0.90551 0.64714 0.0
C130 C 0.30857 0.03096 0.72262 0.0
O131 O 0.31293 0.11285 0.64029 0.0
O132 O 0.40046 0.14561 0.65009 0.0
C133 C 0.31308 0.00601 0.58876 0.0
O134 O 0.23484 0.94442 0.63318 0.0
O135 O 0.18202 0.9142 0.67283 0.0
O136 O 0.25724 0.00865 0.72604 0.0
O137 O 0.32869 0.04005 0.69647 0.0
O138 O 0.35518 0.05269 0.59284 0.0
O139 O 0.28481 0.97977 0.61183 0.0
O140 O 0.31448 0.96586 0.63876 0.0
O141 O 0.39181 0.02161 0.6608 0.0
C142 C 0.35951 0.97428 0.65081 0.0
O143 O 0.25214 0.07571 0.64077 0.0
O144 O 0.18463 0.03554 0.67295 0.0
C145 C 0.3613 0.15409 0.64488 0.0
C146 C 0.20718 0.06921 0.65197 0.0
Zn147 Zn 0.89486 0.15551 0.68778 0.0
Zn148 Zn 0.81451 0.24451 0.62662 0.0
Zn149 Zn 0.8545 0.1951 0.65851 0.0
C150 C 0.86045 0.30771 0.6776 0.0
C151 C 0.89065 0.23729 0.59061 0.0
O152 O 0.79104 0.10936 0.66585 0.0
O153 O 0.8481 0.07879 0.67438 0.0
C154 C 0.88801 0.21909 0.72805 0.0
O155 O 0.86579 0.26634 0.68451 0.0
O156 O 0.84154 0.30979 0.65265 0.0
O157 O 0.85574 0.25294 0.58953 0.0
O158 O 0.89699 0.21633 0.61458 0.0
O159 O 0.88446 0.17269 0.72892 0.0
O160 O 0.88305 0.23792 0.7029 0.0
O161 O 0.92647 0.20173 0.63369 0.0
O162 O 0.97091 0.1971 0.67251 0.0
C163 C 0.97066 0.20715 0.64539 0.0
O164 O 0.76539 0.1348 0.65181 0.0
O165 O 0.73583 0.18489 0.62954 0.0
C166 C 0.79994 0.06923 0.66951 0.0
C167 C 0.72589 0.13977 0.64075 0.0
Zn168 Zn 0.78286 0.69034 0.75546 0.0
Zn169 Zn 0.70691 0.58732 0.67387 0.0
Zn170 Zn 0.70563 0.62562 0.72225 0.0
C171 C 0.60235 0.53239 0.68765 0.0
C172 C 0.75092 0.69272 0.66123 0.0
O173 O 0.79356 0.65699 0.70423 0.0
O174 O 0.85233 0.70155 0.73983 0.0
C175 C 0.7006 0.63795 0.79183 0.0
O176 O 0.62881 0.54995 0.71192 0.0
O177 O 0.6271 0.55236 0.66362 0.0
O178 O 0.75626 0.65386 0.6508 0.0
O179 O 0.72954 0.6879 0.68699 0.0
O180 O 0.74959 0.64755 0.79196 0.0
O181 O 0.67783 0.63649 0.76695 0.0
O182 O 0.68468 0.68505 0.73896 0.0
O183 O 0.76772 0.75248 0.74812 0.0
C184 C 0.71753 0.73613 0.74348 0.0
O185 O 0.75452 0.59126 0.73634 0.0
O186 O 0.73138 0.54062 0.6959 0.0
C187 C 0.84361 0.68509 0.71333 0.0
C188 C 0.75132 0.55073 0.72183 0.0
C189 C 0.41245 0.5155 0.09587 0.0
C190 C 0.45076 0.51784 0.07506 0.0
C191 C 0.35699 0.4933 0.08822 0.0
C192 C 0.34011 0.47404 0.05901 0.0
C193 C 0.37682 0.4684 0.03965 0.0
C194 C 0.43192 0.49024 0.04801 0.0
C195 C 0.31848 0.49754 0.11003 0.0
C196 C 0.36038 0.44695 0.0085 0.0
C197 C 0.19658 0.43073 0.03006 0.0
C198 C 0.20541 0.48025 0.01804 0.0
C199 C 0.2394 0.42786 0.04453 0.0
C200 C 0.29202 0.47548 0.04639 0.0
C201 C 0.30024 0.52581 0.03488 0.0
C202 C 0.25685 0.52741 0.02086 0.0
C203 C 0.22885 0.37355 0.05653 0.0
C204 C 0.35553 0.57781 0.03629 0.0
H205 H 0.42667 0.53572 0.11713 0.0
H206 H 0.46117 0.49144 0.03191 0.0
H207 H 0.315 0.53417 0.1048 0.0
H208 H 0.27681 0.46105 0.10851 0.0
H209 H 0.33352 0.50169 0.13313 0.0
H210 H 0.38838 0.43373 0.99887 0.0
H211 H 0.31774 0.41193 0.00783 0.0
H212 H 0.36219 0.47998 0.9944 0.0
H213 H 0.15698 0.39397 0.02716 0.0
H214 H 0.26356 0.5655 0.01123 0.0
H215 H 0.24998 0.37895 0.07802 0.0
H216 H 0.24517 0.35482 0.04078 0.0
H217 H 0.18423 0.34451 0.05954 0.0
H218 H 0.36913 0.58797 0.05962 0.0
H219 H 0.35468 0.61344 0.02642 0.0
H220 H 0.38671 0.57185 0.02429 0.0
C221 C 0.5353 0.87534 0.9913 0.0
C222 C 0.55731 0.93003 0.98251 0.0
C223 C 0.56944 0.85458 0.99964 0.0
C224 C 0.62738 0.88875 0.99817 0.0
C225 C 0.64986 0.94331 0.98793 0.0
C226 C 0.6145 0.96351 0.98095 0.0
C227 C 0.54324 0.79654 0.01116 0.0
C228 C 0.71099 0.98126 0.98487 0.0
C229 C 0.69059 0.8394 0.05447 0.0
C230 C 0.69046 0.79626 0.03869 0.0
C231 C 0.67614 0.87486 0.04065 0.0
C232 C 0.66289 0.86786 0.01016 0.0
C233 C 0.67296 0.83125 0.99319 0.0
C234 C 0.68652 0.79548 0.00772 0.0
C235 C 0.66761 0.91439 0.05954 0.0
C236 C 0.66343 0.82562 0.96022 0.0
H237 H 0.4911 0.84914 0.99271 0.0
H238 H 0.63179 0.00541 0.97406 0.0
H239 H 0.55522 0.7718 0.99709 0.0
H240 H 0.55795 0.79665 0.03394 0.0
H241 H 0.49768 0.77595 0.01163 0.0
H242 H 0.7202 0.00895 0.96562 0.0
H243 H 0.72662 0.00758 0.00489 0.0
H244 H 0.73365 0.95861 0.98215 0.0
H245 H 0.69483 0.84086 0.07836 0.0
H246 H 0.68756 0.76308 0.99518 0.0
H247 H 0.68461 0.9186 0.08217 0.0
H248 H 0.62297 0.89966 0.06144 0.0
H249 H 0.68727 0.95545 0.04914 0.0
H250 H 0.61871 0.80135 0.95571 0.0
H251 H 0.68345 0.80442 0.94954 0.0
H252 H 0.67925 0.86655 0.94996 0.0
C253 C 0.25609 0.90943 0.99019 0.0
C254 C 0.30298 0.90978 1.00084 0.0
C255 C 0.20443 0.8619 0.99237 0.0
C256 C 0.20123 0.81361 1.00353 0.0
C257 C 0.24669 0.81711 0.01901 0.0
C258 C 0.29741 0.86567 0.0175 0.0
C259 C 0.15521 0.86114 0.97875 0.0
C260 C 0.24443 0.76728 0.03274 0.0
C261 C 0.09431 0.66395 0.99674 0.0
C262 C 0.1132 0.6505 0.97097 0.0
C263 C 0.11767 0.7188 0.00606 0.0
C264 C 0.16207 0.76015 0.98979 0.0
C265 C 0.17646 0.7471 0.96197 0.0
C266 C 0.15098 0.6925 0.95273 0.0
C267 C 0.09738 0.73122 0.03437 0.0
C268 C 0.223 0.78958 0.94328 0.0
H269 H 0.26046 0.94427 0.97779 0.0
H270 H 0.33388 0.86658 0.02605 0.0
H271 H 0.15356 0.8519 0.95476 0.0
H272 H 0.11644 0.82932 0.9891 0.0
H273 H 0.1581 0.9018 0.98116 0.0
H274 H 0.28128 0.77822 0.04643 0.0
H275 H 0.20747 0.74547 0.04689 0.0
H276 H 0.24182 0.73856 0.01503 0.0
H277 H 0.06416 0.63168 0.01072 0.0
H278 H 0.16433 0.68224 0.93233 0.0
H279 H 0.10932 0.77513 0.03621 0.0
H280 H 0.11436 0.72021 0.05356 0.0
H281 H 0.05194 0.70576 0.03576 0.0
H282 H 0.21502 0.82311 0.93742 0.0
H283 H 0.22879 0.77206 0.92239 0.0
H284 H 0.26207 0.80781 0.95587 0.0
C285 C 0.42728 0.19767 0.99277 0.0
C286 C 0.46553 0.18826 0.97772 0.0
C287 C 0.43923 0.25118 0.99967 0.0
C288 C 0.49082 0.29593 0.99146 0.0
C289 C 0.52522 0.28681 0.972 0.0
C290 C 0.51197 0.23271 0.96521 0.0
C291 C 0.40034 0.25898 0.01952 0.0
C292 C 0.57982 0.33347 0.96193 0.0
C293 C 0.53371 0.4417 0.01662 0.0
C294 C 0.56306 0.44613 0.04256 0.0
C295 C 0.50902 0.39295 0.99979 0.0
C296 C 0.51426 0.34781 0.00905 0.0
C297 C 0.54279 0.35181 0.03563 0.0
C298 C 0.56681 0.40082 0.05196 0.0
C299 C 0.47931 0.39075 0.97164 0.0
C300 C 0.549 0.30457 0.04663 0.0
H301 H 0.39127 0.16319 1.00245 0.0
H302 H 0.54174 0.22553 0.95367 0.0
H303 H 0.41486 0.2639 0.04274 0.0
H304 H 0.39905 0.29645 0.01345 0.0
H305 H 0.35806 0.22313 0.01847 0.0
H306 H 0.59594 0.32169 0.94243 0.0
H307 H 0.57638 0.36991 0.95624 0.0
H308 H 0.61 0.34535 0.9802 0.0
H309 H 0.53174 0.477 0.0088 0.0
H310 H 0.58948 0.40396 0.07192 0.0
H311 H 0.4409 0.35073 0.96925 0.0
H312 H 0.50592 0.3954 0.9524 0.0
H313 H 0.4691 0.4241 0.97079 0.0
H314 H 0.50796 0.26776 0.04986 0.0
H315 H 0.57176 0.31414 0.06788 0.0
H316 H 0.57129 0.29394 0.02994 0.0
C317 C 0.67131 0.10525 0.95483 0.0
C318 C 0.66063 0.12224 0.98207 0.0
C319 C 0.72528 0.1279 0.94408 0.0
C320 C 0.76879 0.17071 0.96021 0.0
C321 C 0.75787 0.18727 0.98802 0.0
C322 C 0.70417 0.16205 0.99872 0.0
C323 C 0.73449 0.10669 0.91516 0.0
C324 C 0.80217 0.23361 0.00611 0.0
C325 C 0.91794 0.24643 0.96626 0.0
C326 C 0.92616 0.2971 0.95645 0.0
C327 C 0.86764 0.19853 0.9611 0.0
C328 C 0.82487 0.20316 0.94766 0.0
C329 C 0.83758 0.25156 0.93208 0.0
C330 C 0.88868 0.29859 0.93678 0.0
C331 C 0.85695 0.14544 0.97485 0.0
C332 C 0.79413 0.25669 0.9153 0.0
H333 H 0.63746 0.07503 0.94161 0.0
H334 H 0.6959 0.17514 0.0198 0.0
H335 H 0.71024 0.06116 0.91476 0.0
H336 H 0.71928 0.12139 0.89672 0.0
H337 H 0.7783 0.11977 0.91112 0.0
H338 H 0.78555 0.24334 0.02615 0.0
H339 H 0.83292 0.22252 0.01348 0.0
H340 H 0.82364 0.27137 0.99261 0.0
H341 H 0.94778 0.24514 0.98087 0.0
H342 H 0.8952 0.33777 0.9291 0.0
H343 H 0.82532 0.10972 0.96217 0.0
H344 H 0.84163 0.14283 0.99781 0.0
H345 H 0.89526 0.14319 0.97584 0.0
H346 H 0.77144 0.22088 0.90042 0.0
H347 H 0.81202 0.29467 0.90184 0.0
H348 H 0.76422 0.25753 0.93113 0.0
C349 C 0.95981 0.59056 0.97408 0.0
C350 C 0.93393 0.54126 0.98996 0.0
C351 C 0.93823 0.62631 0.97396 0.0
C352 C 0.88973 0.61234 0.99026 0.0
C353 C 0.8629 0.56178 0.0057 0.0
C354 C 0.8851 0.52702 0.00516 0.0
C355 C 0.9685 0.67912 0.95687 0.0
C356 C 0.81135 0.54474 0.02371 0.0
C357 C 0.84536 0.69801 0.03142 0.0
C358 C 0.79248 0.67647 0.01952 0.0
C359 C 0.88328 0.68528 0.01872 0.0
C360 C 0.86761 0.65056 0.99358 0.0
C361 C 0.81954 0.63968 0.97797 0.0
C362 C 0.78193 0.65249 0.99131 0.0
C363 C 0.93601 0.7013 0.03493 0.0
C364 C 0.80372 0.60725 0.94954 0.0
H365 H 0.99666 0.60111 0.96155 0.0
H366 H 0.86473 0.48897 0.01747 0.0
H367 H 0.94232 0.69722 0.95182 0.0
H368 H 0.00436 0.70917 0.97003 0.0
H369 H 0.98472 0.67229 0.93578 0.0
H370 H 0.79667 0.50488 0.03506 0.0
H371 H 0.81898 0.5763 0.04075 0.0
H372 H 0.77794 0.54092 0.00915 0.0
H373 H 0.85412 0.71789 0.05293 0.0
H374 H 0.74164 0.63681 0.9816 0.0
H375 H 0.97066 0.71602 0.01905 0.0
H376 H 0.93251 0.66492 0.04642 0.0
H377 H 0.9456 0.73397 0.05164 0.0
H378 H 0.84038 0.61228 0.93739 0.0
H379 H 0.78059 0.62032 0.93505 0.0
H380 H 0.77666 0.5631 0.95459 0.0
C381 C 0.81386 0.72919 0.40285 0.0
C382 C 0.76924 0.72272 0.38592 0.0
C383 C 0.86173 0.73596 0.38917 0.0
C384 C 0.8642 0.73462 0.3579 0.0
C385 C 0.81544 0.71715 0.34134 0.0
C386 C 0.76829 0.71165 0.35558 0.0
C387 C 0.91199 0.75276 0.40796 0.0
C388 C 0.81483 0.71092 0.30817 0.0
C389 C 0.99472 0.85268 0.32628 0.0
C390 C 0.02812 0.82933 0.32216 0.0
C391 C 0.94099 0.82169 0.33711 0.0
C392 C 0.91899 0.76507 0.34309 0.0
C393 C 0.95159 0.74048 0.33751 0.0
C394 C 0.00626 0.77324 0.32778 0.0
C395 C 0.90858 0.85039 0.34323 0.0
C396 C 0.92983 0.68007 0.34224 0.0
H397 H 0.81416 0.73635 0.42648 0.0
H398 H 0.73348 0.70514 0.3424 0.0
H399 H 0.93256 0.72947 0.40138 0.0
H400 H 0.94167 0.79698 0.40452 0.0
H401 H 0.90182 0.74599 0.43191 0.0
H402 H 0.77288 0.68118 0.30021 0.0
H403 H 0.82746 0.75104 0.29765 0.0
H404 H 0.84371 0.69704 0.3009 0.0
H405 H 0.01139 0.89603 0.32204 0.0
H406 H 0.03157 0.75473 0.32437 0.0
H407 H 0.89582 0.84529 0.36682 0.0
H408 H 0.87076 0.8319 0.3296 0.0
H409 H 0.93245 0.89496 0.33832 0.0
H410 H 0.94237 0.67381 0.36446 0.0
H411 H 0.94764 0.6639 0.32571 0.0
H412 H 0.88438 0.65584 0.34073 0.0
C413 C 0.21651 0.21945 0.30468 0.0
C414 C 0.2147 0.26055 0.32134 0.0
C415 C 0.24288 0.19212 0.31526 0.0
C416 C 0.2705 0.20776 0.34291 0.0
C417 C 0.27534 0.25443 0.35789 0.0
C418 C 0.24651 0.27987 0.34716 0.0
C419 C 0.23556 0.14262 0.2981 0.0
C420 C 0.30789 0.27596 0.38604 0.0
C421 C 0.24028 0.07344 0.37212 0.0
C422 C 0.27637 0.06576 0.35398 0.0
C423 C 0.24374 0.12489 0.37369 0.0
C424 C 0.28513 0.16912 0.35728 0.0
C425 C 0.32949 0.16435 0.34583 0.0
C426 C 0.32406 0.11197 0.34366 0.0
C427 C 0.19747 0.12894 0.3882 0.0
C428 C 0.37769 0.21233 0.33123 0.0
H429 H 0.19335 0.20542 0.28424 0.0
H430 H 0.24633 0.31248 0.35994 0.0
H431 H 0.27578 0.14582 0.29348 0.0
H432 H 0.21054 0.10516 0.31137 0.0
H433 H 0.21443 0.13742 0.27659 0.0
H434 H 0.3325 0.32146 0.38534 0.0
H435 H 0.27926 0.26497 0.40508 0.0
H436 H 0.33596 0.25957 0.38988 0.0
H437 H 0.20394 0.03774 0.38066 0.0
H438 H 0.35286 0.10638 0.33012 0.0
H439 H 0.16969 0.12926 0.37089 0.0
H440 H 0.2138 0.1676 0.40105 0.0
H441 H 0.173 0.0939 0.40325 0.0
H442 H 0.36812 0.21419 0.30761 0.0
H443 H 0.41481 0.20796 0.33214 0.0
H444 H 0.3867 0.25152 0.34201 0.0
C445 C 0.92828 0.13509 0.3553 0.0
C446 C 0.94199 0.18934 0.35056 0.0
C447 C 0.8782 0.09786 0.36822 0.0
C448 C 0.84023 0.11523 0.37605 0.0
C449 C 0.85452 0.17064 0.37194 0.0
C450 C 0.90564 0.20729 0.35917 0.0
C451 C 0.86574 0.03954 0.37285 0.0
C452 C 0.81533 0.19081 0.37954 0.0
C453 C 0.7119 0.98199 0.37606 0.0
C454 C 0.71699 0.96492 0.40431 0.0
C455 C 0.74599 0.03671 0.3676 0.0
C456 C 0.78584 0.07366 0.38782 0.0
C457 C 0.78206 0.05898 0.41797 0.0
C458 C 0.7474 0.00423 0.42594 0.0
C459 C 0.74605 0.05208 0.3357 0.0
C460 C 0.81993 0.099 0.44088 0.0
H461 H 0.95676 0.12164 0.34851 0.0
H462 H 0.91633 0.24937 0.35495 0.0
H463 H 0.8558 0.02797 0.39644 0.0
H464 H 0.82962 0.0109 0.35943 0.0
H465 H 0.90074 0.03372 0.36652 0.0
H466 H 0.83759 0.23579 0.38358 0.0
H467 H 0.78698 0.18214 0.36068 0.0
H468 H 0.79015 0.16983 0.3993 0.0
H469 H 0.68705 0.95172 0.3595 0.0
H470 H 0.74932 0.99101 0.44818 0.0
H471 H 0.77727 0.04676 0.3233 0.0
H472 H 0.75677 0.09559 0.3338 0.0
H473 H 0.7054 0.02556 0.32523 0.0
H474 H 0.86353 0.11552 0.43439 0.0
H475 H 0.81353 0.08025 0.46316 0.0
H476 H 0.81215 0.13383 0.44233 0.0
C477 C 0.07849 0.69751 0.27303 0.0
C478 C 0.10427 0.72303 0.29959 0.0
C479 C 0.05305 0.6403 0.26993 0.0
C480 C 0.05692 0.60919 0.29333 0.0
C481 C 0.07811 0.63465 0.32116 0.0
C482 C 0.10042 0.69134 0.32405 0.0
C483 C 0.02662 0.61454 0.24076 0.0
C484 C 0.08377 0.6036 0.34683 0.0
C485 C 0.01017 0.46149 0.30665 0.0
C486 C 0.05856 0.4611 0.29966 0.0
C487 C 0.00477 0.50712 0.29986 0.0
C488 C 0.05025 0.55414 0.28773 0.0
C489 C 0.09615 0.55079 0.27716 0.0
C490 C 0.09923 0.50355 0.28287 0.0
C491 C 0.95278 0.50694 0.30844 0.0
C492 C 0.14519 0.59944 0.26335 0.0
H493 H 0.08155 0.72242 0.25411 0.0
H494 H 0.12094 0.7117 0.34444 0.0
H495 H 0.00287 0.63347 0.23235 0.0
H496 H 0.05893 0.62261 0.22413 0.0
H497 H -0.00125 0.56957 0.24254 0.0
H498 H 0.10186 0.62993 0.36671 0.0
H499 H 0.0431 0.56882 0.35305 0.0
H500 H 0.11038 0.58648 0.34037 0.0
H501 H 0.97822 0.42791 0.31923 0.0
H502 H 0.13648 0.5028 0.27745 0.0
H503 H 0.94583 0.53494 0.29422 0.0
H504 H 0.95563 0.52064 0.33175 0.0
H505 H 0.91671 0.46491 0.30674 0.0
H506 H 0.13206 0.61434 0.24415 0.0
H507 H 0.17674 0.58937 0.25566 0.0
H508 H 0.16442 0.63349 0.27968 0.0
C509 C 0.31312 0.42292 0.324 0.0
C510 C 0.28663 0.44528 0.34055 0.0
C511 C 0.37093 0.4487 0.32349 0.0
C512 C 0.40233 0.49709 0.34042 0.0
C513 C 0.37515 0.51843 0.35789 0.0
C514 C 0.318 0.4925 0.35751 0.0
C515 C 0.39757 0.42362 0.30499 0.0
C516 C 0.40614 0.56926 0.37694 0.0
C517 C 0.53782 0.56576 0.37599 0.0
C518 C 0.55748 0.61772 0.36347 0.0
C519 C 0.49083 0.52008 0.36451 0.0
C520 C 0.46344 0.52752 0.34036 0.0
C521 C 0.49066 0.57663 0.32383 0.0
C522 C 0.53698 0.62202 0.33605 0.0
C523 C 0.46497 0.46714 0.38159 0.0
C524 C 0.46502 0.5846 0.29648 0.0
H525 H 0.2889 0.3863 0.31085 0.0
H526 H 0.29766 0.50945 0.37071 0.0
H527 H 0.37225 0.40248 0.28522 0.0
H528 H 0.43947 0.45452 0.2976 0.0
H529 H 0.40068 0.39235 0.31838 0.0
H530 H 0.37831 0.57867 0.39006 0.0
H531 H 0.43343 0.56402 0.39259 0.0
H532 H 0.43207 0.60526 0.36282 0.0
H533 H 0.55419 0.56234 0.39706 0.0
H534 H 0.55158 0.66212 0.32637 0.0
H535 H 0.44435 0.43141 0.36641 0.0
H536 H 0.43346 0.46612 0.39689 0.0
H537 H 0.49597 0.46327 0.39493 0.0
H538 H 0.44279 0.5458 0.28366 0.0
H539 H 0.4966 0.61698 0.28208 0.0
H540 H 0.43506 0.5975 0.30309 0.0
C541 C 0.39018 0.96625 0.36582 0.0
C542 C 0.38815 0.9666 0.33483 0.0
C543 C 0.42809 0.95551 0.38022 0.0
C544 C 0.46464 0.94557 0.3631 0.0
C545 C 0.46899 0.9559 0.3323 0.0
C546 C 0.43092 0.96691 0.31856 0.0
C547 C 0.42413 0.94805 0.41333 0.0
C548 C 0.50826 0.94733 0.31318 0.0
C549 C 0.56545 0.90579 0.3947 0.0
C550 C 0.53435 0.84845 0.3935 0.0
C551 C 0.54301 0.93846 0.38616 0.0
C552 C 0.48831 0.91292 0.37561 0.0
C553 C 0.45636 0.85477 0.375 0.0
C554 C 0.47961 0.82335 0.3843 0.0
C555 C 0.57847 4e-05 0.38798 0.0
C556 C 0.39795 0.82555 0.36371 0.0
H557 H 0.35816 0.96742 0.37868 0.0
H558 H 0.43012 0.96832 0.29458 0.0
H559 H 0.39816 0.90382 0.41853 0.0
H560 H 0.46528 0.96272 0.42319 0.0
H561 H 0.40501 0.97027 0.42379 0.0
H562 H 0.5122 0.96455 0.29065 0.0
H563 H 0.54954 0.96653 0.32344 0.0
H564 H 0.49309 0.90271 0.31102 0.0
H565 H 0.60696 0.92513 0.40295 0.0
H566 H 0.45537 0.77895 0.3836 0.0
H567 H 0.61105 0.01241 0.40499 0.0
H568 H 0.55381 0.01989 0.39319 0.0
H569 H 0.59906 0.01587 0.36636 0.0
H570 H 0.37243 0.83759 0.37707 0.0
H571 H 0.37891 0.78022 0.36455 0.0
H572 H 0.39704 0.83763 0.34047 0.0
C573 C 0.62642 0.1073 0.64616 0.0
C574 C 0.66804 0.09441 0.642 0.0
C575 C 0.57092 0.06652 0.64614 0.0
C576 C 0.55602 0.01084 0.64154 0.0
C577 C 0.59799 0.99726 0.63774 0.0
C578 C 0.6536 0.03937 0.63784 0.0
C579 C 0.52824 0.0835 0.65109 0.0
C580 C 0.58471 0.93893 0.63257 0.0
C581 C 0.41193 0.93356 0.66945 0.0
C582 C 0.38562 0.941 0.64505 0.0
C583 C 0.46759 0.94814 0.66773 0.0
C584 C 0.49621 0.96855 0.64072 0.0
C585 C 0.46566 0.96238 0.61466 0.0
C586 C 0.41002 0.94786 0.6171 0.0
C587 C 0.49758 0.95097 0.69586 0.0
C588 C 0.49368 0.9802 0.58501 0.0
H589 H 0.63738 0.14975 0.64952 0.0
H590 H 0.68557 0.02938 0.63374 0.0
H591 H 0.50019 0.07131 0.63181 0.0
H592 H 0.50323 0.06249 0.67091 0.0
H593 H 0.5468 0.12843 0.65444 0.0
H594 H 0.61931 0.93295 0.63937 0.0
H595 H 0.54714 0.90921 0.64466 0.0
H596 H 0.57738 0.9294 0.6086 0.0
H597 H 0.39267 0.92678 0.69106 0.0
H598 H 0.38945 0.95227 0.59793 0.0
H599 H 0.51704 0.99331 0.70494 0.0
H600 H 0.53054 0.94101 0.6916 0.0
H601 H 0.46909 0.92249 0.71287 0.0
H602 H 0.51339 0.02547 0.58323 0.0
H603 H 0.46388 0.96146 0.56655 0.0
H604 H 0.52619 0.96903 0.58263 0.0
C605 C 0.85045 0.33881 0.72786 0.0
C606 C 0.87163 0.35147 0.69906 0.0
C607 C 0.84573 0.37793 0.74507 0.0
C608 C 0.85844 0.42853 0.73208 0.0
C609 C 0.88787 0.44421 0.705 0.0
C610 C 0.89413 0.40523 0.68878 0.0
C611 C 0.82038 0.36246 0.77544 0.0
C612 C 0.90509 0.499 0.6909 0.0
C613 C 0.74609 0.4614 0.72368 0.0
C614 C 0.77217 0.51589 0.73332 0.0
C615 C 0.77157 0.43005 0.72612 0.0
C616 C 0.8242 0.45353 0.73946 0.0
C617 C 0.84697 0.50579 0.75324 0.0
C618 C 0.82084 0.53702 0.74967 0.0
C619 C 0.74458 0.37436 0.71114 0.0
C620 C 0.90053 0.53072 0.76985 0.0
H621 H 0.83317 0.29724 0.73596 0.0
H622 H 0.91178 0.41521 0.66673 0.0
H623 H 0.83553 0.39926 0.78986 0.0
H624 H 0.77511 0.34308 0.77377 0.0
H625 H 0.82973 0.33241 0.78588 0.0
H626 H 0.93128 0.50631 0.67104 0.0
H627 H 0.86814 0.50088 0.68413 0.0
H628 H 0.92825 0.5326 0.70698 0.0
H629 H 0.70733 0.4446 0.71197 0.0
H630 H 0.84042 0.57891 0.75779 0.0
H631 H 0.73865 0.3422 0.72714 0.0
H632 H 0.77104 0.37409 0.69292 0.0
H633 H 0.7038 0.36289 0.70166 0.0
H634 H 0.89665 0.54889 0.79098 0.0
H635 H 0.93304 0.56468 0.75669 0.0
H636 H 0.91362 0.50039 0.77483 0.0
C637 C 0.53352 0.43881 0.70516 0.0
C638 C 0.54689 0.48328 0.68649 0.0
C639 C 0.48859 0.38669 0.69875 0.0
C640 C 0.45574 0.37942 0.67348 0.0
C641 C 0.46473 0.42591 0.65712 0.0
C642 C 0.51094 0.47715 0.66342 0.0
C643 C 0.48033 0.33839 0.717 0.0
C644 C 0.42885 0.42065 0.63116 0.0
C645 C 0.42517 0.25021 0.63256 0.0
C646 C 0.37435 0.21174 0.64453 0.0
C647 C 0.45025 0.30563 0.64034 0.0
C648 C 0.4232 0.32353 0.66016 0.0
C649 C 0.36875 0.28596 0.66945 0.0
C650 C 0.34496 0.22997 0.66172 0.0
C651 C 0.50808 0.34377 0.62951 0.0
C652 C 0.33709 0.30362 0.68927 0.0
H653 H 0.5611 0.44345 0.72307 0.0
H654 H 0.52062 0.5118 0.64924 0.0
H655 H 0.43631 0.31187 0.72262 0.0
H656 H 0.49331 0.31328 0.70392 0.0
H657 H 0.5045 0.35144 0.73783 0.0
H658 H 0.43165 0.46048 0.62591 0.0
H659 H 0.44229 0.40694 0.61135 0.0
H660 H 0.38529 0.38969 0.63561 0.0
H661 H 0.44759 0.23603 0.61899 0.0
H662 H 0.30558 0.20025 0.67102 0.0
H663 H 0.53678 0.35857 0.64857 0.0
H664 H 0.51053 0.38015 0.61868 0.0
H665 H 0.52241 0.32352 0.61346 0.0
H666 H 0.34564 0.29911 0.71272 0.0
H667 H 0.29216 0.27743 0.68565 0.0
H668 H 0.349 0.34711 0.68555 0.0
C669 C 0.73271 0.83021 0.7499 0.0
C670 C 0.69927 0.77658 0.73963 0.0
C671 C 0.7267 0.87328 0.73897 0.0
C672 C 0.6865 0.86226 0.71704 0.0
C673 C 0.64735 0.80727 0.71004 0.0
C674 C 0.65419 0.76471 0.7215 0.0
C675 C 0.76835 0.93121 0.74797 0.0
C676 C 0.60144 0.79387 0.68847 0.0
C677 C 0.71125 -0.00057 0.69162 0.0
C678 C 0.75509 0.0125 0.6722 0.0
C679 C 0.68132 0.94645 0.70361 0.0
C680 C 0.69699 0.90724 0.6963 0.0
C681 C 0.73531 0.9184 0.67313 0.0
C682 C 0.76385 0.97104 0.66131 0.0
C683 C 0.63759 0.93459 0.72644 0.0
C684 C 0.75242 0.87761 0.66382 0.0
H685 H 0.76656 0.83924 0.76466 0.0
H686 H 0.62728 0.72293 0.71412 0.0
H687 H 0.79815 0.95136 0.72966 0.0
H688 H 0.74798 0.95557 0.75242 0.0
H689 H 0.79157 0.93227 0.76804 0.0
H690 H 0.57172 0.80403 0.69878 0.0
H691 H 0.61726 0.81894 0.66813 0.0
H692 H 0.57921 0.74981 0.68213 0.0
H693 H 0.70399 0.03163 0.69967 0.0
H694 H 0.79721 0.98125 0.64583 0.0
H695 H 0.65542 0.94021 0.74891 0.0
H696 H 0.60353 0.89159 0.72453 0.0
H697 H 0.62079 0.96269 0.72412 0.0
H698 H 0.78176 0.87778 0.68024 0.0
H699 H 0.77259 0.88741 0.64173 0.0
H700 H 0.71633 0.83592 0.66309 0.0
C701 C 0.94066 0.75245 0.70169 0.0
C702 C 0.89221 0.70474 0.69335 0.0
C703 C 0.98808 0.77458 0.68423 0.0
C704 C 0.98842 0.74798 0.65757 0.0
C705 C 0.93968 0.69955 0.64877 0.0
C706 C 0.89173 0.67895 0.66656 0.0
C707 C 0.0381 0.82681 0.69466 0.0
C708 C 0.93758 0.66963 0.62061 0.0
C709 C 0.11046 0.8572 0.61734 0.0
C710 C 0.15192 0.85426 0.63298 0.0
C711 C 0.05486 0.81668 0.62103 0.0
C712 C 0.04108 0.77198 0.64024 0.0
C713 C 0.08364 0.76313 0.65041 0.0
C714 C 0.13874 0.80482 0.64698 0.0
C715 C 0.01105 0.82673 0.60854 0.0
C716 C 0.07102 0.71423 0.66929 0.0
H717 H 0.9415 0.77354 0.722 0.0
H718 H 0.85442 0.64235 0.65977 0.0
H719 H 0.07216 0.8188 0.69937 0.0
H720 H 0.05227 0.85857 0.67719 0.0
H721 H 0.02995 0.84383 0.71507 0.0
H722 H 0.90591 0.6255 0.62197 0.0
H723 H 0.92643 0.68772 0.602 0.0
H724 H 0.97785 0.67316 0.61542 0.0
H725 H 0.1203 0.89518 0.60632 0.0
H726 H 0.17057 0.80198 0.65897 0.0
H727 H -0.00258 0.84536 0.62594 0.0
H728 H 0.97476 0.78766 0.60147 0.0
H729 H 0.02661 0.85515 0.58939 0.0
H730 H 0.06432 0.72268 0.69251 0.0
H731 H 0.10554 0.70564 0.66902 0.0
H732 H 0.03308 0.67722 0.66158 0.0
C733 C 0.13225 0.0915 0.65477 0.0
C734 C 0.18133 0.10088 0.64148 0.0
C735 C 0.10591 0.11996 0.64593 0.0
C736 C 0.12898 0.15925 0.62296 0.0
C737 C 0.17831 0.16877 0.60907 0.0
C738 C 0.20393 0.13927 0.61847 0.0
C739 C 0.05358 0.10828 0.66175 0.0
C740 C 0.20361 0.2091 0.58404 0.0
C741 C 0.01168 0.17949 0.6049 0.0
C742 C 0.01862 0.21614 0.62778 0.0
C743 C 0.05347 0.16733 0.59845 0.0
C744 C 0.10198 0.19178 0.61576 0.0
C745 C 0.11301 0.23678 0.63432 0.0
C746 C 0.07082 0.24831 0.64025 0.0
C747 C 0.04185 0.12189 0.57683 0.0
C748 C 0.16522 0.26595 0.65218 0.0
H749 H 0.11413 0.06176 0.67243 0.0
H750 H 0.24157 0.14637 0.60785 0.0
H751 H 0.05895 0.14621 0.67247 0.0
H752 H 0.01937 0.09411 0.64569 0.0
H753 H 0.04129 0.07638 0.67908 0.0
H754 H 0.24784 0.22254 0.5812 0.0
H755 H 0.18208 0.18907 0.56318 0.0
H756 H 0.19927 0.2458 0.58751 0.0
H757 H 0.9715 0.15485 0.59501 0.0
H758 H 0.07646 0.27752 0.65757 0.0
H759 H 0.02455 0.08248 0.58895 0.0
H760 H 0.08011 0.12918 0.56561 0.0
H761 H 0.01151 0.11793 0.55989 0.0
H762 H 0.16137 0.24106 0.67197 0.0
H763 H 0.17316 0.30685 0.65984 0.0
H764 H 0.20103 0.27119 0.63912 0.0
C765 C 0.12453 0.42414 0.22263 0.0
C766 C 0.08253 0.37031 0.2281 0.0
C767 C 0.12923 0.44861 0.1948 0.0
C768 C 0.09049 0.41864 0.17229 0.0
C769 C 0.04667 0.36517 0.17839 0.0
C770 C 0.04368 0.34156 0.20603 0.0
C771 C 0.17697 0.50531 0.18914 0.0
C772 C 0.00328 0.33226 0.15552 0.0
C773 C 0.05543 0.47821 0.10695 0.0
C774 C 0.07364 0.45899 0.08315 0.0
C775 C 0.06514 0.46998 0.13637 0.0
C776 C 0.09425 0.44216 0.14226 0.0
C777 C 0.11774 0.42788 0.11838 0.0
C778 C 0.10676 0.43608 0.08901 0.0
C779 C 0.03938 0.48611 0.16098 0.0
C780 C 0.15048 0.39967 0.1238 0.0
H781 H 0.15519 0.446 0.23953 0.0
H782 H 0.01113 0.29994 0.21029 0.0
H783 H 0.2071 0.50215 0.17451 0.0
H784 H 0.16333 0.53109 0.17759 0.0
H785 H 0.19808 0.52629 0.20997 0.0
H786 H 0.97058 0.29235 0.16429 0.0
H787 H 0.98388 0.35587 0.14765 0.0
H788 H 0.02243 0.32413 0.13607 0.0
H789 H 0.03037 0.49674 0.10258 0.0
H790 H 0.12039 0.42069 0.07086 0.0
H791 H 0.06852 0.50562 0.17958 0.0
H792 H 0.00305 0.44877 0.16973 0.0
H793 H 0.02575 0.51479 0.15323 0.0
H794 H 0.18025 0.42023 0.14205 0.0
H795 H 0.17312 0.39937 0.10369 0.0
H796 H 0.1224 0.3566 0.13053 0.0
C797 C 0.66421 0.72135 0.30197 0.0
C798 C 0.69414 0.77715 0.30952 0.0
C799 C 0.65895 0.70355 0.27249 0.0
C800 C 0.68574 0.74238 0.24974 0.0
C801 C 0.71712 0.79887 0.25715 0.0
C802 C 0.72066 0.81565 0.28693 0.0
C803 C 0.62494 0.64295 0.26577 0.0
C804 C 0.74778 0.84139 0.23368 0.0
C805 C 0.71429 0.68168 0.18122 0.0
C806 C 0.67218 0.67467 0.16196 0.0
C807 C 0.72082 0.70627 0.20914 0.0
C808 C 0.68333 0.723 0.21859 0.0
C809 C 0.64125 0.71701 0.19906 0.0
C810 C 0.63662 0.69358 0.17077 0.0
C811 C 0.76675 0.71233 0.22892 0.0
C812 C 0.59984 0.73336 0.20848 0.0
H813 H 0.64547 0.69115 0.31925 0.0
H814 H 0.74434 0.85884 0.29253 0.0
H815 H 0.59212 0.63551 0.24972 0.0
H816 H 0.65102 0.62815 0.25541 0.0
H817 H 0.60555 0.61819 0.2859 0.0
H818 H 0.76919 0.88373 0.24286 0.0
H819 H 0.77864 0.83327 0.22297 0.0
H820 H 0.71902 0.83879 0.21617 0.0
H821 H 0.74242 0.66783 0.17443 0.0
H822 H 0.60404 0.68829 0.15598 0.0
H823 H 0.74944 0.68094 0.24657 0.0
H824 H 0.7876 0.75319 0.23981 0.0
H825 H 0.79787 0.7068 0.21652 0.0
H826 H 0.575 0.7072 0.22718 0.0
H827 H 0.57167 0.72916 0.1902 0.0
H828 H 0.62109 0.77643 0.21647 0.0
C829 C 0.43958 0.99673 0.10848 0.0
C830 C 0.41482 0.98787 0.08051 0.0
C831 C 0.40806 0.97953 0.13446 0.0
C832 C 0.35006 0.95127 0.13256 0.0
C833 C 0.3247 0.93834 0.10432 0.0
C834 C 0.35739 0.95782 0.07867 0.0
C835 C 0.43705 0.99543 0.164 0.0
C836 C 0.26302 0.90675 0.10118 0.0
C837 C 0.27542 0.89318 0.20573 0.0
C838 C 0.2636 0.93401 0.21459 0.0
C839 C 0.30105 0.89659 0.17831 0.0
C840 C 0.31695 0.94287 0.15996 0.0
C841 C 0.3049 0.98402 0.16891 0.0
C842 C 0.2777 0.97863 0.19583 0.0
C843 C 0.31146 0.85099 0.16905 0.0
C844 C 0.32238 0.03484 0.15055 0.0
H845 H 0.48396 0.01969 0.11026 0.0
H846 H 0.33782 0.95194 0.05741 0.0
H847 H 0.42898 0.02606 0.17502 0.0
H848 H 0.42113 0.95934 0.17876 0.0
H849 H 0.4822 0.01343 0.16173 0.0
H850 H 0.25027 0.89024 0.07839 0.0
H851 H 0.24438 0.87223 0.11709 0.0
H852 H 0.24627 0.93421 0.10615 0.0
H853 H 0.26402 0.85833 0.22005 0.0
H854 H 0.26893 0.01047 0.20265 0.0
H855 H 0.35625 0.8662 0.16875 0.0
H856 H 0.29599 0.83707 0.14626 0.0
H857 H 0.29151 0.81529 0.1842 0.0
H858 H 0.36771 0.05742 0.14787 0.0
H859 H 0.30986 0.06299 0.16068 0.0
H860 H 0.3042 0.0233 0.12811 0.0
C861 C 0.49043 0.06794 0.86365 0.0
C862 C 0.46757 0.07813 0.88893 0.0
C863 C 0.47348 0.07209 0.83513 0.0
C864 C 0.43334 0.08791 0.83169 0.0
C865 C 0.41569 0.1054 0.85691 0.0
C866 C 0.43279 0.09998 0.88539 0.0
C867 C 0.49352 0.05282 0.80914 0.0
C868 C 0.37456 0.12462 0.8541 0.0
C869 C 0.39143 0.09649 0.75225 0.0
C870 C 0.34349 0.04537 0.74927 0.0
C871 C 0.42059 0.11201 0.77923 0.0
C872 C 0.40209 0.07482 0.8033 0.0
C873 C 0.35438 0.02264 0.79991 0.0
C874 C 0.32535 0.00904 0.77317 0.0
C875 C 0.47015 0.16855 0.78223 0.0
C876 C 0.33392 0.98082 0.82451 0.0
H877 H 0.51818 0.05195 0.86623 0.0
H878 H 0.41526 0.10833 0.90479 0.0
H879 H 0.46071 0.01129 0.80233 0.0
H880 H 0.50288 0.08031 0.78987 0.0
H881 H 0.53079 0.05054 0.8147 0.0
H882 H 0.37459 0.14805 0.87398 0.0
H883 H 0.38326 0.15071 0.83423 0.0
H884 H 0.3328 0.08854 0.85155 0.0
H885 H 0.40484 0.12502 0.73392 0.0
H886 H 0.28822 0.96954 0.77087 0.0
H887 H 0.50632 0.16589 0.78961 0.0
H888 H 0.46208 0.19195 0.79944 0.0
H889 H 0.48053 0.1918 0.76116 0.0
H890 H 0.36669 0.97199 0.83113 0.0
H891 H 0.29707 0.94163 0.81797 0.0
H892 H 0.32336 -0.00266 0.84424 0.0
C893 C 0.96984 0.39146 0.88165 0.0
C894 C 0.02111 0.39818 0.88918 0.0
C895 C 0.94266 0.36325 0.85573 0.0
C896 C 0.96747 0.34118 0.83703 0.0
C897 C 0.01903 0.3473 0.8449 0.0
C898 C 0.04553 0.37635 0.8707 0.0
C899 C 0.88867 0.35917 0.84782 0.0
C900 C 0.04649 0.32354 0.82592 0.0
C901 C 0.88567 0.2248 0.78309 0.0
C902 C 0.9016 0.25174 0.75573 0.0
C903 C 0.90449 0.25384 0.80984 0.0
C904 C 0.93999 0.31133 0.80925 0.0
C905 C 0.95367 0.33915 0.78175 0.0
C906 C 0.93519 0.30886 0.75528 0.0
C907 C 0.88863 0.22261 0.83866 0.0
C908 C 0.98983 0.40062 0.78018 0.0
H909 H 0.95201 0.41017 0.89547 0.0
H910 H 0.08551 0.38214 0.87645 0.0
H911 H 0.89501 0.38615 0.82866 0.0
H912 H 0.85799 0.31668 0.84122 0.0
H913 H 0.87163 0.37211 0.8664 0.0
H914 H 0.08568 0.33041 0.83564 0.0
H915 H 0.01863 0.27877 0.823 0.0
H916 H 0.05512 0.34235 0.80361 0.0
H917 H 0.85974 0.18056 0.78357 0.0
H918 H 0.94857 0.32973 0.73422 0.0
H919 H 0.87212 0.24114 0.85445 0.0
H920 H 0.9256 0.22516 0.84898 0.0
H921 H 0.85742 0.17868 0.83551 0.0
H922 H 0.97569 0.42094 0.79623 0.0
H923 H 0.9902 0.41657 0.75769 0.0
H924 H 0.03252 0.41218 0.78621 0.0
C925 C 0.71075 0.67796 0.8419 0.0
C926 C 0.67628 0.63993 0.82063 0.0
C927 C 0.69233 0.67817 0.8707 0.0
C928 C 0.63807 0.63869 0.8788 0.0
C929 C 0.60209 0.60156 0.85708 0.0
C930 C 0.62154 0.60294 0.82803 0.0
C931 C 0.73208 0.71892 0.89289 0.0
C932 C 0.54406 0.55875 0.86491 0.0
C933 C 0.63027 0.60625 0.96056 0.0
C934 C 0.61031 0.63885 0.97251 0.0
C935 C 0.63577 0.60284 0.92987 0.0
C936 C 0.62192 0.6337 0.91066 0.0
C937 C 0.59978 0.66524 0.92268 0.0
C938 C 0.5936 0.66691 0.95356 0.0
C939 C 0.65804 0.56748 0.91805 0.0
C940 C 0.58551 0.69959 0.90315 0.0
H941 H 0.75294 0.70722 0.83611 0.0
H942 H 0.59487 0.57354 0.81161 0.0
H943 H 0.71314 0.74014 0.9046 0.0
H944 H 0.74232 0.69699 0.90979 0.0
H945 H 0.77088 0.7503 0.88235 0.0
H946 H 0.51932 0.53769 0.84497 0.0
H947 H 0.54482 0.52756 0.8795 0.0
H948 H 0.52344 0.57752 0.87735 0.0
H949 H 0.64168 0.58338 0.97534 0.0
H950 H 0.57794 0.69196 0.96295 0.0
H951 H 0.69646 0.59292 0.90543 0.0
H952 H 0.62804 0.53639 0.90251 0.0
H953 H 0.66675 0.546 0.93595 0.0
H954 H 0.62391 0.73541 0.89497 0.0
H955 H 0.5613 0.71496 0.91519 0.0
H956 H 0.56187 0.67573 0.88353 0.0
C957 C 0.66815 0.72315 0.51503 0.0
C958 C 0.6823 0.77116 0.49949 0.0
C959 C 0.69038 0.72515 0.54292 0.0
C960 C 0.72617 0.77673 0.55612 0.0
C961 C 0.74082 0.82562 0.54044 0.0
C962 C 0.71946 0.82219 0.51185 0.0
C963 C 0.67434 0.67182 0.55853 0.0
C964 C 0.77793 0.88123 0.554 0.0
C965 C 0.71671 0.74867 0.63753 0.0
C966 C 0.75876 0.73624 0.6406 0.0
C967 C 0.70988 0.76974 0.61079 0.0
C968 C 0.74572 0.7778 0.58678 0.0
C969 C 0.79261 0.77245 0.59132 0.0
C970 C 0.79863 0.75177 0.61833 0.0
C971 C 0.66049 0.77688 0.60703 0.0
C972 C 0.83188 0.78046 0.56644 0.0
H973 H 0.6395 0.6838 0.50524 0.0
H974 H 0.72996 0.85928 0.4997 0.0
H975 H 0.71156 0.6708 0.56562 0.0
H976 H 0.65013 0.66833 0.57869 0.0
H977 H 0.64933 0.63546 0.54426 0.0
H978 H 0.77958 0.91493 0.54055 0.0
H979 H 0.76384 0.88352 0.57667 0.0
H980 H 0.82017 0.88793 0.55593 0.0
H981 H 0.68571 0.73643 0.6547 0.0
H982 H 0.83126 0.74211 0.62079 0.0
H983 H 0.63084 0.74526 0.59157 0.0
H984 H 0.67316 0.81761 0.5973 0.0
H985 H 0.63906 0.77305 0.62832 0.0
H986 H 0.81337 0.7434 0.55209 0.0
H987 H 0.87165 0.78667 0.57493 0.0
H988 H 0.83981 0.81597 0.55252 0.0
C989 C 0.24328 0.94216 0.41769 0.0
C990 C 0.24794 0.89834 0.40602 0.0
C991 C 0.25137 0.95552 0.448 0.0
C992 C 0.26533 0.92488 0.46733 0.0
C993 C 0.26995 0.88041 0.4557 0.0
C994 C 0.26082 0.86743 0.42527 0.0
C995 C 0.24601 0.00326 0.45921 0.0
C996 C 0.28589 0.84736 0.47525 0.0
C997 C 0.34255 0.00152 0.53692 0.0
C998 C 0.30102 0.98116 0.55854 0.0
C999 C 0.33185 0.98217 0.50756 0.0
C1000 C 0.27802 0.94166 0.49925 0.0
C1001 C 0.23611 0.91983 0.52117 0.0
C1002 C 0.2482 0.9395 0.55059 0.0
C1003 C 0.37829 0.00558 0.48537 0.0
C1004 C 0.17808 0.87696 0.51332 0.0
H1005 H 0.23318 0.96619 0.40305 0.0
H1006 H 0.26507 0.83386 0.41643 0.0
H1007 H 0.21639 0.99002 0.47789 0.0
H1008 H 0.28623 0.03588 0.46772 0.0
H1009 H 0.23207 0.0211 0.44171 0.0
H1010 H 0.28412 0.81186 0.46337 0.0
H1011 H 0.32832 0.8739 0.48353 0.0
H1012 H 0.25844 0.83207 0.49485 0.0
H1013 H 0.38373 0.03311 0.5429 0.0
H1014 H 0.21587 0.92359 0.56712 0.0
H1015 H 0.36729 0.02197 0.46591 0.0
H1016 H 0.38573 0.97257 0.47731 0.0
H1017 H 0.41712 0.03889 0.49494 0.0
H1018 H 0.1609 0.89439 0.49745 0.0
H1019 H 0.15087 0.86202 0.53306 0.0
H1020 H 0.17771 0.84151 0.50223 0.0
C1021 C 0.92424 0.19946 0.55066 0.0
C1022 C 0.92398 0.24434 0.56401 0.0
C1023 C 0.94836 0.20455 0.5226 0.0
C1024 C 0.97348 0.25595 0.50803 0.0
C1025 C 0.97539 0.30186 0.52225 0.0
C1026 C 0.94991 0.29524 0.54985 0.0
C1027 C 0.94468 0.15453 0.50796 0.0
C1028 C 0.00301 0.35778 0.50797 0.0
C1029 C 0.07621 0.29577 0.44535 0.0
C1030 C 0.04512 0.29549 0.42108 0.0
C1031 C 0.05244 0.27895 0.47348 0.0
C1032 C 0.99629 0.26217 0.47751 0.0
C1033 C 0.96399 0.25879 0.45266 0.0
C1034 C 0.98881 0.2753 0.42465 0.0
C1035 C 0.08855 0.28365 0.49928 0.0
C1036 C 0.9044 0.24261 0.45606 0.0
H1037 H 0.90307 0.15984 0.56142 0.0
H1038 H 0.94938 0.32982 0.56023 0.0
H1039 H 0.91921 0.14439 0.48768 0.0
H1040 H 0.98606 0.16292 0.50101 0.0
H1041 H 0.92632 0.11829 0.52278 0.0
H1042 H 0.004 0.38985 0.52283 0.0
H1043 H 0.04578 0.36995 0.50164 0.0
H1044 H 0.98091 0.35647 0.48744 0.0
H1045 H 0.11996 0.31169 0.4426 0.0
H1046 H 0.96515 0.27663 0.40616 0.0
H1047 H 0.06823 0.24646 0.5133 0.0
H1048 H 0.09572 0.31908 0.51334 0.0
H1049 H 0.12901 0.28981 0.49191 0.0
H1050 H 0.88332 0.20848 0.47203 0.0
H1051 H 0.88252 0.23042 0.43455 0.0
H1052 H 0.9016 0.27802 0.46483 0.0
loop_
_geom_bond_atom_site_label_1
_geom_bond_atom_site_label_2
_geom_bond_distance
_geom_bond_site_symmetry_2
_ccdc_geom_bond_type
Zn0 O6 1.920 . S
Zn0 O12 1.898 . S
Zn0 O15 1.905 . S
Zn1 O9 1.905 . S
Zn1 O10 1.898 . S
Zn1 O18 1.920 . S
Zn2 O5 2.080 . S
Zn2 O8 2.114 1_455 S
Zn2 O11 2.120 . S
Zn2 O13 2.120 1_454 S
Zn2 O14 2.114 . S
Zn2 O17 2.080 1_455 S
C3 O8 1.166 . S
C3 O9 1.182 . S
C4 O10 1.167 . S
C4 O11 1.299 1_655 S
O5 Zn2 2.080 . S
O5 C19 1.305 1_554 S
O6 Zn0 1.920 . S
O6 C19 1.234 . S
C7 O12 1.167 . S
C7 O13 1.299 1_455 S
O8 Zn2 2.114 1_655 S
O8 C3 1.166 . S
O9 Zn1 1.905 . S
O9 C3 1.182 . S
O10 Zn1 1.898 . S
O10 C4 1.167 . S
O11 Zn2 2.120 . S
O11 C4 1.299 1_455 S
O12 Zn0 1.898 . S
O12 C7 1.167 . S
O13 Zn2 2.120 1_656 S
O13 C7 1.299 1_655 S
O14 Zn2 2.114 . S
O14 C16 1.168 . S
O15 Zn0 1.905 . S
O15 C16 1.169 1_556 S
C16 O14 1.168 . S
C16 O15 1.169 1_554 S
O17 Zn2 2.080 1_655 S
O17 C20 1.305 . S
O18 Zn1 1.920 . S
O18 C20 1.234 . S
C19 O5 1.305 1_556 S
C19 O6 1.234 . S
C20 O17 1.305 . S
C20 O18 1.234 . S
Zn21 O27 1.920 . S
Zn21 O33 1.898 . S
Zn21 O36 1.905 . S
Zn22 O30 1.905 . S
Zn22 O31 1.898 . S
Zn22 O39 1.920 . S
Zn23 O26 2.080 . S
Zn23 O29 2.114 . S
Zn23 O32 2.120 . S
Zn23 O34 2.120 1_554 S
Zn23 O35 2.114 . S
Zn23 O38 2.080 . S
C24 O29 1.166 . S
C24 O30 1.182 . S
C25 O31 1.167 . S
C25 O32 1.299 . S
O26 Zn23 2.080 . S
O26 C40 1.305 1_554 S
O27 Zn21 1.920 . S
O27 C40 1.234 . S
C28 O33 1.167 . S
C28 O34 1.299 . S
O29 Zn23 2.114 . S
O29 C24 1.166 . S
O30 Zn22 1.905 . S
O30 C24 1.182 . S
O31 Zn22 1.898 . S
O31 C25 1.167 . S
O32 Zn23 2.120 . S
O32 C25 1.299 . S
O33 Zn21 1.898 . S
O33 C28 1.167 . S
O34 Zn23 2.120 1_556 S
O34 C28 1.299 . S
O35 Zn23 2.114 . S
O35 C37 1.168 . S
O36 Zn21 1.905 . S
O36 C37 1.169 1_556 S
C37 O35 1.168 . S
C37 O36 1.169 1_554 S
O38 Zn23 2.080 . S
O38 C41 1.305 . S
O39 Zn22 1.920 . S
O39 C41 1.234 . S
C40 O26 1.305 1_556 S
C40 O27 1.234 . S
C41 O38 1.305 . S
C41 O39 1.234 . S
Zn42 O48 1.920 . S
Zn42 O54 1.898 . S
Zn42 O57 1.905 . S
Zn43 O51 1.905 . S
Zn43 O52 1.898 . S
Zn43 O60 1.920 . S
Zn44 O47 2.080 . S
Zn44 O50 2.114 1_545 S
Zn44 O53 2.120 1_554 S
Zn44 O55 2.120 1_545 S
Zn44 O56 2.114 . S
Zn44 O59 2.080 1_545 S
C45 O50 1.168 . S
C45 O51 1.169 1_554 S
C46 O52 1.167 . S
C46 O53 1.299 1_565 S
O47 Zn44 2.080 . S
O47 C61 1.305 . S
O48 Zn42 1.920 . S
O48 C61 1.234 . S
C49 O54 1.167 . S
C49 O55 1.299 1_545 S
O50 Zn44 2.114 1_565 S
O50 C45 1.168 . S
O51 Zn43 1.905 . S
O51 C45 1.169 1_556 S
O52 Zn43 1.898 . S
O52 C46 1.167 . S
O53 Zn44 2.120 1_556 S
O53 C46 1.299 1_545 S
O54 Zn42 1.898 . S
O54 C49 1.167 . S
O55 Zn44 2.120 1_565 S
O55 C49 1.299 1_565 S
O56 Zn44 2.114 . S
O56 C58 1.166 . S
O57 Zn42 1.905 . S
O57 C58 1.182 . S
C58 O56 1.166 . S
C58 O57 1.182 . S
O59 Zn44 2.080 1_565 S
O59 C62 1.305 1_554 S
O60 Zn43 1.920 . S
O60 C62 1.234 . S
C61 O47 1.305 . S
C61 O48 1.234 . S
C62 O59 1.305 1_556 S
C62 O60 1.234 . S
Zn63 O69 1.920 . S
Zn63 O75 1.898 . S
Zn63 O78 1.905 . S
Zn64 O72 1.905 . S
Zn64 O73 1.898 . S
Zn64 O81 1.920 . S
Zn65 O68 2.080 . S
Zn65 O71 2.114 . S
Zn65 O74 2.120 . S
Zn65 O76 2.120 . S
Zn65 O77 2.114 . S
Zn65 O80 2.080 . S
C66 O71 1.166 . S
C66 O72 1.182 . S
C67 O73 1.167 . S
C67 O74 1.299 . S
O68 Zn65 2.080 . S
O68 C82 1.305 . S
O69 Zn63 1.920 . S
O69 C82 1.234 . S
C70 O75 1.167 . S
C70 O76 1.299 . S
O71 Zn65 2.114 . S
O71 C66 1.166 . S
O72 Zn64 1.905 . S
O72 C66 1.182 . S
O73 Zn64 1.898 . S
O73 C67 1.167 . S
O74 Zn65 2.120 . S
O74 C67 1.299 . S
O75 Zn63 1.898 . S
O75 C70 1.167 . S
O76 Zn65 2.120 . S
O76 C70 1.299 . S
O77 Zn65 2.114 . S
O77 C79 1.166 . S
O78 Zn63 1.905 . S
O78 C79 1.182 . S
C79 O77 1.166 . S
C79 O78 1.182 . S
O80 Zn65 2.080 . S
O80 C83 1.305 . S
O81 Zn64 1.920 . S
O81 C83 1.234 . S
C82 O68 1.305 . S
C82 O69 1.234 . S
C83 O80 1.305 . S
C83 O81 1.234 . S
Zn84 O90 1.920 . S
Zn84 O96 1.898 . S
Zn84 O99 1.905 . S
Zn85 O93 1.905 1_565 S
Zn85 O94 1.898 . S
Zn85 O102 1.920 . S
Zn86 O89 2.080 . S
Zn86 O92 2.114 . S
Zn86 O95 2.120 . S
Zn86 O97 2.120 . S
Zn86 O98 2.114 . S
Zn86 O101 2.080 . S
C87 O92 1.166 1_545 S
C87 O93 1.182 . S
C88 O94 1.167 . S
C88 O95 1.299 . S
O89 Zn86 2.080 . S
O89 C103 1.305 . S
O90 Zn84 1.920 . S
O90 C103 1.234 . S
C91 O96 1.167 . S
C91 O97 1.299 . S
O92 Zn86 2.114 . S
O92 C87 1.166 1_565 S
O93 Zn85 1.905 1_545 S
O93 C87 1.182 . S
O94 Zn85 1.898 . S
O94 C88 1.167 . S
O95 Zn86 2.120 . S
O95 C88 1.299 . S
O96 Zn84 1.898 . S
O96 C91 1.167 . S
O97 Zn86 2.120 . S
O97 C91 1.299 . S
O98 Zn86 2.114 . S
O98 C100 1.166 . S
O99 Zn84 1.905 . S
O99 C100 1.182 . S
C100 O98 1.166 . S
C100 O99 1.182 . S
O101 Zn86 2.080 . S
O101 C104 1.305 . S
O102 Zn85 1.920 . S
O102 C104 1.234 . S
C103 O89 1.305 . S
C103 O90 1.234 . S
C104 O101 1.305 . S
C104 O102 1.234 . S
Zn105 O111 1.920 . S
Zn105 O117 1.898 . S
Zn105 O120 1.905 . S
Zn106 O114 1.905 1_455 S
Zn106 O115 1.898 . S
Zn106 O123 1.920 . S
Zn107 O110 2.080 . S
Zn107 O113 2.114 . S
Zn107 O116 2.120 . S
Zn107 O118 2.120 . S
Zn107 O119 2.114 . S
Zn107 O122 2.080 . S
C108 O113 1.166 1_655 S
C108 O114 1.182 . S
C109 O115 1.167 . S
C109 O116 1.299 . S
O110 Zn107 2.080 . S
O110 C124 1.305 . S
O111 Zn105 1.920 . S
O111 C124 1.234 . S
C112 O117 1.167 . S
C112 O118 1.299 . S
O113 Zn107 2.114 . S
O113 C108 1.166 1_455 S
O114 Zn106 1.905 1_655 S
O114 C108 1.182 . S
O115 Zn106 1.898 . S
O115 C109 1.167 . S
O116 Zn107 2.120 . S
O116 C109 1.299 . S
O117 Zn105 1.898 . S
O117 C112 1.167 . S
O118 Zn107 2.120 . S
O118 C112 1.299 . S
O119 Zn107 2.114 . S
O119 C121 1.166 . S
O120 Zn105 1.905 . S
O120 C121 1.182 . S
C121 O119 1.166 . S
C121 O120 1.182 . S
O122 Zn107 2.080 . S
O122 C125 1.305 . S
O123 Zn106 1.920 . S
O123 C125 1.234 . S
C124 O110 1.305 . S
C124 O111 1.234 . S
C125 O122 1.305 . S
C125 O123 1.234 . S
Zn126 O132 1.920 . S
Zn126 O138 1.898 . S
Zn126 O141 1.905 . S
Zn127 O135 1.905 1_545 S
Zn127 O136 1.898 . S
Zn127 O144 1.920 . S
Zn128 O131 2.080 . S
Zn128 O134 2.114 . S
Zn128 O137 2.120 . S
Zn128 O139 2.120 . S
Zn128 O140 2.114 . S
Zn128 O143 2.080 . S
C129 O134 1.166 1_565 S
C129 O135 1.182 . S
C130 O136 1.167 . S
C130 O137 1.299 . S
O131 Zn128 2.080 . S
O131 C145 1.305 . S
O132 Zn126 1.920 . S
O132 C145 1.234 . S
C133 O138 1.167 . S
C133 O139 1.299 . S
O134 Zn128 2.114 . S
O134 C129 1.166 1_545 S
O135 Zn127 1.905 1_565 S
O135 C129 1.182 . S
O136 Zn127 1.898 . S
O136 C130 1.167 . S
O137 Zn128 2.120 . S
O137 C130 1.299 . S
O138 Zn126 1.898 . S
O138 C133 1.167 . S
O139 Zn128 2.120 . S
O139 C133 1.299 . S
O140 Zn128 2.114 . S
O140 C142 1.166 . S
O141 Zn126 1.905 . S
O141 C142 1.182 . S
C142 O140 1.166 . S
C142 O141 1.182 . S
O143 Zn128 2.080 . S
O143 C146 1.305 . S
O144 Zn127 1.920 . S
O144 C146 1.234 . S
C145 O131 1.305 . S
C145 O132 1.234 . S
C146 O143 1.305 . S
C146 O144 1.234 . S
Zn147 O153 1.920 . S
Zn147 O159 1.898 . S
Zn147 O162 1.905 1_655 S
Zn148 O156 1.905 . S
Zn148 O157 1.898 . S
Zn148 O165 1.920 . S
Zn149 O152 2.080 . S
Zn149 O155 2.114 . S
Zn149 O158 2.120 . S
Zn149 O160 2.120 . S
Zn149 O161 2.114 . S
Zn149 O164 2.080 . S
C150 O155 1.166 . S
C150 O156 1.182 . S
C151 O157 1.167 . S
C151 O158 1.299 . S
O152 Zn149 2.080 . S
O152 C166 1.305 . S
O153 Zn147 1.920 . S
O153 C166 1.234 . S
C154 O159 1.167 . S
C154 O160 1.299 . S
O155 Zn149 2.114 . S
O155 C150 1.166 . S
O156 Zn148 1.905 . S
O156 C150 1.182 . S
O157 Zn148 1.898 . S
O157 C151 1.167 . S
O158 Zn149 2.120 . S
O158 C151 1.299 . S
O159 Zn147 1.898 . S
O159 C154 1.167 . S
O160 Zn149 2.120 . S
O160 C154 1.299 . S
O161 Zn149 2.114 . S
O161 C163 1.166 1_655 S
O162 Zn147 1.905 1_455 S
O162 C163 1.182 . S
C163 O161 1.166 1_455 S
C163 O162 1.182 . S
O164 Zn149 2.080 . S
O164 C167 1.305 . S
O165 Zn148 1.920 . S
O165 C167 1.234 . S
C166 O152 1.305 . S
C166 O153 1.234 . S
C167 O164 1.305 . S
C167 O165 1.234 . S
Zn168 O174 1.920 . S
Zn168 O180 1.898 . S
Zn168 O183 1.905 . S
Zn169 O177 1.905 . S
Zn169 O178 1.898 . S
Zn169 O186 1.920 . S
Zn170 O173 2.080 . S
Zn170 O176 2.114 . S
Zn170 O179 2.120 . S
Zn170 O181 2.120 . S
Zn170 O182 2.114 . S
Zn170 O185 2.080 . S
C171 O176 1.166 . S
C171 O177 1.182 . S
C172 O178 1.167 . S
C172 O179 1.299 . S
O173 Zn170 2.080 . S
O173 C187 1.305 . S
O174 Zn168 1.920 . S
O174 C187 1.234 . S
C175 O180 1.167 . S
C175 O181 1.299 . S
O176 Zn170 2.114 . S
O176 C171 1.166 . S
O177 Zn169 1.905 . S
O177 C171 1.182 . S
O178 Zn169 1.898 . S
O178 C172 1.167 . S
O179 Zn170 2.120 . S
O179 C172 1.299 . S
O180 Zn168 1.898 . S
O180 C175 1.167 . S
O181 Zn170 2.120 . S
O181 C175 1.299 . S
O182 Zn170 2.114 . S
O182 C184 1.166 . S
O183 Zn168 1.905 . S
O183 C184 1.182 . S
C184 O182 1.166 . S
C184 O183 1.182 . S
O185 Zn170 2.080 . S
O185 C188 1.305 . S
O186 Zn169 1.920 . S
O186 C188 1.234 . S
C187 O173 1.305 . S
C187 O174 1.234 . S
C188 O185 1.305 . S
C188 O186 1.234 . S
C189 C190 1.391 1_554 S
C189 C191 1.394 . S
C189 H205 0.931 . S
C190 C189 1.391 1_556 S
C190 C194 1.376 . S
C191 C189 1.394 . S
C191 C192 1.369 . S
C191 C195 1.531 . S
C192 C191 1.369 . S
C192 C193 1.410 1_554 S
C192 C200 1.503 . S
C193 C192 1.410 1_556 S
C193 C194 1.392 . S
C193 C196 1.511 . S
C194 C190 1.376 . S
C194 C193 1.392 . S
C194 H206 0.929 . S
C195 C191 1.531 . S
C195 H207 0.960 . S
C195 H208 0.962 . S
C195 H209 0.960 . S
C196 C193 1.511 . S
C196 H210 0.961 . S
C196 H211 0.961 . S
C196 H212 0.961 . S
C197 C198 1.370 . S
C197 C199 1.363 1_554 S
C197 H213 0.931 1_554 S
C198 C197 1.370 . S
C198 C202 1.408 . S
C199 C197 1.363 1_556 S
C199 C200 1.370 1_556 S
C199 C203 1.524 . S
C200 C192 1.503 . S
C200 C199 1.370 1_554 S
C200 C201 1.403 . S
C201 C200 1.403 . S
C201 C202 1.404 . S
C201 C204 1.539 . S
C202 C198 1.408 . S
C202 C201 1.404 . S
C202 H214 0.930 . S
C203 C199 1.524 . S
C203 H215 0.956 1_556 S
C203 H216 0.961 . S
C203 H217 0.961 . S
C204 C201 1.539 . S
C204 H218 0.958 . S
C204 H219 0.961 . S
C204 H220 0.960 . S
H205 C189 0.931 . S
H206 C194 0.929 . S
H207 C195 0.960 . S
H208 C195 0.962 . S
H209 C195 0.960 . S
H210 C196 0.961 . S
H211 C196 0.961 . S
H212 C196 0.961 . S
H213 C197 0.931 1_556 S
H214 C202 0.930 . S
H215 C203 0.956 1_554 S
H216 C203 0.961 . S
H217 C203 0.961 . S
H218 C204 0.958 . S
H219 C204 0.961 . S
H220 C204 0.960 . S
C221 C222 1.391 1_554 S
C221 C223 1.394 . S
C221 H237 0.931 . S
C222 C221 1.391 1_556 S
C222 C226 1.376 . S
C223 C221 1.394 . S
C223 C224 1.369 1_554 S
C223 C227 1.531 . S
C224 C223 1.369 1_556 S
C224 C225 1.410 . S
C224 C232 1.504 1_556 S
C225 C224 1.410 . S
C225 C226 1.392 . S
C225 C228 1.511 . S
C226 C222 1.376 . S
C226 C225 1.392 . S
C226 H238 0.929 . S
C227 C223 1.531 . S
C227 H239 0.960 . S
C227 H240 0.962 . S
C227 H241 0.960 . S
C228 C225 1.511 . S
C228 H242 0.961 . S
C228 H243 0.961 . S
C228 H244 0.961 . S
C229 C230 1.370 . S
C229 C231 1.363 . S
C229 H245 0.931 . S
C230 C229 1.370 . S
C230 C234 1.408 1_554 S
C231 C229 1.363 . S
C231 C232 1.369 . S
C231 C235 1.524 . S
C232 C224 1.504 1_554 S
C232 C231 1.369 . S
C232 C233 1.404 1_554 S
C233 C232 1.404 1_556 S
C233 C234 1.404 . S
C233 C236 1.539 . S
C234 C230 1.408 1_556 S
C234 C233 1.404 . S
C234 H246 0.930 . S
C235 C231 1.524 . S
C235 H247 0.956 . S
C235 H248 0.961 . S
C235 H249 0.961 . S
C236 C233 1.539 . S
C236 H250 0.958 . S
C236 H251 0.961 . S
C236 H252 0.960 . S
H237 C221 0.931 . S
H238 C226 0.929 . S
H239 C227 0.960 . S
H240 C227 0.962 . S
H241 C227 0.960 . S
H242 C228 0.961 . S
H243 C228 0.961 . S
H244 C228 0.961 . S
H245 C229 0.931 . S
H246 C234 0.930 . S
H247 C235 0.956 . S
H248 C235 0.961 . S
H249 C235 0.961 . S
H250 C236 0.958 . S
H251 C236 0.961 . S
H252 C236 0.960 . S
C253 C254 1.391 . S
C253 C255 1.394 . S
C253 H269 0.931 . S
C254 C253 1.391 . S
C254 C258 1.376 1_554 S
C255 C253 1.394 . S
C255 C256 1.369 1_554 S
C255 C259 1.531 . S
C256 C255 1.369 1_556 S
C256 C257 1.410 . S
C256 C264 1.503 . S
C257 C256 1.410 . S
C257 C258 1.392 . S
C257 C260 1.511 . S
C258 C254 1.376 1_556 S
C258 C257 1.392 . S
C258 H270 0.929 . S
C259 C255 1.531 . S
C259 H271 0.960 . S
C259 H272 0.962 . S
C259 H273 0.960 . S
C260 C257 1.511 . S
C260 H274 0.961 . S
C260 H275 0.961 . S
C260 H276 0.961 . S
C261 C262 1.370 1_554 S
C261 C263 1.363 . S
C261 H277 0.931 . S
C262 C261 1.370 1_556 S
C262 C266 1.408 . S
C263 C261 1.363 . S
C263 C264 1.370 1_554 S
C263 C267 1.524 . S
C264 C256 1.503 . S
C264 C263 1.370 1_556 S
C264 C265 1.403 . S
C265 C264 1.403 . S
C265 C266 1.404 . S
C265 C268 1.539 . S
C266 C262 1.408 . S
C266 C265 1.404 . S
C266 H278 0.930 . S
C267 C263 1.524 . S
C267 H279 0.956 . S
C267 H280 0.961 . S
C267 H281 0.961 . S
C268 C265 1.539 . S
C268 H282 0.958 . S
C268 H283 0.961 . S
C268 H284 0.960 . S
H269 C253 0.931 . S
H270 C258 0.929 . S
H271 C259 0.960 . S
H272 C259 0.962 . S
H273 C259 0.960 . S
H274 C260 0.961 . S
H275 C260 0.961 . S
H276 C260 0.961 . S
H277 C261 0.931 . S
H278 C266 0.930 . S
H279 C267 0.956 . S
H280 C267 0.961 . S
H281 C267 0.961 . S
H282 C268 0.958 . S
H283 C268 0.961 . S
H284 C268 0.960 . S
C285 C286 1.391 . S
C285 C287 1.394 . S
C285 H301 0.931 . S
C286 C285 1.391 . S
C286 C290 1.376 1_554 S
C287 C285 1.394 . S
C287 C288 1.369 . S
C287 C291 1.531 . S
C288 C287 1.369 . S
C288 C289 1.410 1_554 S
C288 C296 1.503 . S
C289 C288 1.410 1_556 S
C289 C290 1.392 . S
C289 C292 1.511 . S
C290 C286 1.376 1_556 S
C290 C289 1.392 . S
C290 H302 0.929 . S
C291 C287 1.531 . S
C291 H303 0.960 . S
C291 H304 0.962 . S
C291 H305 0.960 . S
C292 C289 1.511 . S
C292 H306 0.961 . S
C292 H307 0.961 . S
C292 H308 0.961 . S
C293 C294 1.370 1_556 S
C293 C295 1.363 . S
C293 H309 0.931 . S
C294 C293 1.370 1_554 S
C294 C298 1.408 . S
C295 C293 1.363 . S
C295 C296 1.370 1_556 S
C295 C299 1.524 . S
C296 C288 1.503 . S
C296 C295 1.370 1_554 S
C296 C297 1.403 . S
C297 C296 1.403 . S
C297 C298 1.404 . S
C297 C300 1.539 . S
C298 C294 1.408 . S
C298 C297 1.404 . S
C298 H310 0.930 . S
C299 C295 1.524 . S
C299 H311 0.956 . S
C299 H312 0.961 . S
C299 H313 0.961 . S
C300 C297 1.539 . S
C300 H314 0.958 . S
C300 H315 0.961 . S
C300 H316 0.960 . S
H301 C285 0.931 . S
H302 C290 0.929 . S
H303 C291 0.960 . S
H304 C291 0.962 . S
H305 C291 0.960 . S
H306 C292 0.961 . S
H307 C292 0.961 . S
H308 C292 0.961 . S
H309 C293 0.931 . S
H310 C298 0.930 . S
H311 C299 0.956 . S
H312 C299 0.961 . S
H313 C299 0.961 . S
H314 C300 0.958 . S
H315 C300 0.961 . S
H316 C300 0.960 . S
C317 C318 1.391 . S
C317 C319 1.394 . S
C317 H333 0.931 . S
C318 C317 1.391 . S
C318 C322 1.376 . S
C319 C317 1.394 . S
C319 C320 1.369 . S
C319 C323 1.531 1_554 S
C320 C319 1.369 . S
C320 C321 1.410 . S
C320 C328 1.503 . S
C321 C320 1.410 . S
C321 C322 1.392 . S
C321 C324 1.511 . S
C322 C318 1.376 . S
C322 C321 1.392 . S
C322 H334 0.929 . S
C323 C319 1.531 1_556 S
C323 H335 0.960 . S
C323 H336 0.962 1_556 S
C323 H337 0.960 . S
C324 C321 1.511 . S
C324 H338 0.961 . S
C324 H339 0.961 . S
C324 H340 0.961 1_554 S
C325 C326 1.370 1_554 S
C325 C327 1.363 . S
C325 H341 0.931 . S
C326 C325 1.370 1_556 S
C326 C330 1.408 . S
C327 C325 1.363 . S
C327 C328 1.370 . S
C327 C331 1.524 . S
C328 C320 1.503 . S
C328 C327 1.370 . S
C328 C329 1.403 1_554 S
C329 C328 1.403 1_556 S
C329 C330 1.404 . S
C329 C332 1.539 . S
C330 C326 1.408 . S
C330 C329 1.404 . S
C330 H342 0.930 . S
C331 C327 1.524 . S
C331 H343 0.956 . S
C331 H344 0.961 . S
C331 H345 0.961 . S
C332 C329 1.539 . S
C332 H346 0.958 . S
C332 H347 0.961 . S
C332 H348 0.960 . S
H333 C317 0.931 . S
H334 C322 0.929 . S
H335 C323 0.960 . S
H336 C323 0.962 1_554 S
H337 C323 0.960 . S
H338 C324 0.961 . S
H339 C324 0.961 . S
H340 C324 0.961 1_556 S
H341 C325 0.931 . S
H342 C330 0.930 . S
H343 C331 0.956 . S
H344 C331 0.961 . S
H345 C331 0.961 . S
H346 C332 0.958 . S
H347 C332 0.961 . S
H348 C332 0.960 . S
C349 C350 1.391 . S
C349 C351 1.394 . S
C349 H365 0.931 . S
C350 C349 1.391 . S
C350 C354 1.376 . S
C351 C349 1.394 . S
C351 C352 1.369 . S
C351 C355 1.531 1_554 S
C352 C351 1.369 . S
C352 C353 1.410 . S
C352 C360 1.503 . S
C353 C352 1.410 . S
C353 C354 1.392 . S
C353 C356 1.511 . S
C354 C350 1.376 . S
C354 C353 1.392 . S
C354 H366 0.929 . S
C355 C351 1.531 1_556 S
C355 H367 0.960 . S
C355 H368 0.962 1_556 S
C355 H369 0.960 . S
C356 C353 1.511 . S
C356 H370 0.961 . S
C356 H371 0.961 . S
C356 H372 0.961 1_554 S
C357 C358 1.370 1_554 S
C357 C359 1.363 . S
C357 H373 0.931 . S
C358 C357 1.370 1_556 S
C358 C362 1.408 . S
C359 C357 1.363 . S
C359 C360 1.370 . S
C359 C363 1.524 . S
C360 C352 1.503 . S
C360 C359 1.370 . S
C360 C361 1.403 1_554 S
C361 C360 1.403 1_556 S
C361 C362 1.404 . S
C361 C364 1.539 . S
C362 C358 1.408 . S
C362 C361 1.404 . S
C362 H374 0.930 . S
C363 C359 1.524 . S
C363 H375 0.956 . S
C363 H376 0.961 . S
C363 H377 0.961 . S
C364 C361 1.539 . S
C364 H378 0.958 . S
C364 H379 0.961 . S
C364 H380 0.960 . S
H365 C349 0.931 . S
H366 C354 0.929 . S
H367 C355 0.960 . S
H368 C355 0.962 1_554 S
H369 C355 0.960 . S
H370 C356 0.961 . S
H371 C356 0.961 . S
H372 C356 0.961 1_556 S
H373 C357 0.931 . S
H374 C362 0.930 . S
H375 C363 0.956 . S
H376 C363 0.961 . S
H377 C363 0.961 . S
H378 C364 0.958 . S
H379 C364 0.961 . S
H380 C364 0.960 . S
C381 C382 1.391 . S
C381 C383 1.394 . S
C381 H397 0.931 . S
C382 C381 1.391 . S
C382 C386 1.376 . S
C383 C381 1.394 . S
C383 C384 1.369 . S
C383 C387 1.531 . S
C384 C383 1.369 . S
C384 C385 1.410 . S
C384 C392 1.503 . S
C385 C384 1.410 . S
C385 C386 1.392 . S
C385 C388 1.511 . S
C386 C382 1.376 . S
C386 C385 1.392 . S
C386 H398 0.929 . S
C387 C383 1.531 . S
C387 H399 0.960 . S
C387 H400 0.962 . S
C387 H401 0.960 . S
C388 C385 1.511 . S
C388 H402 0.961 . S
C388 H403 0.961 . S
C388 H404 0.961 . S
C389 C390 1.370 . S
C389 C391 1.363 . S
C389 H405 0.931 . S
C390 C389 1.370 . S
C390 C394 1.408 . S
C391 C389 1.363 . S
C391 C392 1.370 1_455 S
C391 C395 1.524 1_455 S
C392 C384 1.503 . S
C392 C391 1.370 1_655 S
C392 C393 1.403 . S
C393 C392 1.403 . S
C393 C394 1.404 1_655 S
C393 C396 1.539 . S
C394 C390 1.408 . S
C394 C393 1.404 1_455 S
C394 H406 0.930 . S
C395 C391 1.524 1_655 S
C395 H407 0.956 . S
C395 H408 0.961 . S
C395 H409 0.961 1_655 S
C396 C393 1.539 . S
C396 H410 0.958 . S
C396 H411 0.961 . S
C396 H412 0.960 . S
H397 C381 0.931 . S
H398 C386 0.929 . S
H399 C387 0.960 . S
H400 C387 0.962 . S
H401 C387 0.960 . S
H402 C388 0.961 . S
H403 C388 0.961 . S
H404 C388 0.961 . S
H405 C389 0.931 . S
H406 C394 0.930 . S
H407 C395 0.956 . S
H408 C395 0.961 . S
H409 C395 0.961 1_455 S
H410 C396 0.958 . S
H411 C396 0.961 . S
H412 C396 0.960 . S
C413 C414 1.391 . S
C413 C415 1.394 . S
C413 H429 0.931 . S
C414 C413 1.391 . S
C414 C418 1.376 . S
C415 C413 1.394 . S
C415 C416 1.369 . S
C415 C419 1.531 . S
C416 C415 1.369 . S
C416 C417 1.410 . S
C416 C424 1.503 . S
C417 C416 1.410 . S
C417 C418 1.392 . S
C417 C420 1.511 . S
C418 C414 1.376 . S
C418 C417 1.392 . S
C418 H430 0.929 . S
C419 C415 1.531 . S
C419 H431 0.960 . S
C419 H432 0.962 . S
C419 H433 0.960 . S
C420 C417 1.511 . S
C420 H434 0.961 . S
C420 H435 0.961 . S
C420 H436 0.961 . S
C421 C422 1.370 . S
C421 C423 1.363 . S
C421 H437 0.931 . S
C422 C421 1.370 . S
C422 C426 1.408 . S
C423 C421 1.363 . S
C423 C424 1.370 . S
C423 C427 1.524 . S
C424 C416 1.503 . S
C424 C423 1.370 . S
C424 C425 1.403 . S
C425 C424 1.403 . S
C425 C426 1.404 . S
C425 C428 1.539 . S
C426 C422 1.408 . S
C426 C425 1.404 . S
C426 H438 0.930 . S
C427 C423 1.524 . S
C427 H439 0.956 . S
C427 H440 0.961 . S
C427 H441 0.961 . S
C428 C425 1.539 . S
C428 H442 0.958 . S
C428 H443 0.961 . S
C428 H444 0.960 . S
H429 C413 0.931 . S
H430 C418 0.929 . S
H431 C419 0.960 . S
H432 C419 0.962 . S
H433 C419 0.960 . S
H434 C420 0.961 . S
H435 C420 0.961 . S
H436 C420 0.961 . S
H437 C421 0.931 . S
H438 C426 0.930 . S
H439 C427 0.956 . S
H440 C427 0.961 . S
H441 C427 0.961 . S
H442 C428 0.958 . S
H443 C428 0.961 . S
H444 C428 0.960 . S
C445 C446 1.391 . S
C445 C447 1.394 . S
C445 H461 0.931 1_655 S
C446 C445 1.391 . S
C446 C450 1.376 . S
C447 C445 1.394 . S
C447 C448 1.369 . S
C447 C451 1.531 . S
C448 C447 1.369 . S
C448 C449 1.410 . S
C448 C456 1.503 . S
C449 C448 1.410 . S
C449 C450 1.392 . S
C449 C452 1.511 . S
C450 C446 1.376 . S
C450 C449 1.392 . S
C450 H462 0.929 . S
C451 C447 1.531 . S
C451 H463 0.960 . S
C451 H464 0.962 . S
C451 H465 0.960 . S
C452 C449 1.511 . S
C452 H466 0.961 . S
C452 H467 0.961 . S
C452 H468 0.961 . S
C453 C454 1.370 . S
C453 C455 1.363 1_565 S
C453 H469 0.931 . S
C454 C453 1.370 . S
C454 C458 1.408 . S
C455 C453 1.363 1_545 S
C455 C456 1.370 . S
C455 C459 1.524 . S
C456 C448 1.503 . S
C456 C455 1.370 . S
C456 C457 1.403 1_545 S
C457 C456 1.403 1_565 S
C457 C458 1.404 . S
C457 C460 1.539 1_565 S
C458 C454 1.408 . S
C458 C457 1.404 . S
C458 H470 0.930 . S
C459 C455 1.524 . S
C459 H471 0.956 . S
C459 H472 0.961 . S
C459 H473 0.961 . S
C460 C457 1.539 1_545 S
C460 H474 0.958 . S
C460 H475 0.961 1_545 S
C460 H476 0.960 . S
H461 C445 0.931 1_455 S
H462 C450 0.929 . S
H463 C451 0.960 . S
H464 C451 0.962 . S
H465 C451 0.960 . S
H466 C452 0.961 . S
H467 C452 0.961 . S
H468 C452 0.961 . S
H469 C453 0.931 . S
H470 C458 0.930 . S
H471 C459 0.956 . S
H472 C459 0.961 . S
H473 C459 0.961 . S
H474 C460 0.958 . S
H475 C460 0.961 1_565 S
H476 C460 0.960 . S
C477 C478 1.391 . S
C477 C479 1.394 . S
C477 H493 0.931 . S
C478 C477 1.391 . S
C478 C482 1.376 . S
C479 C477 1.394 . S
C479 C480 1.369 . S
C479 C483 1.531 . S
C480 C479 1.369 . S
C480 C481 1.410 . S
C480 C488 1.503 . S
C481 C480 1.410 . S
C481 C482 1.392 . S
C481 C484 1.511 . S
C482 C478 1.376 . S
C482 C481 1.392 . S
C482 H494 0.929 . S
C483 C479 1.531 . S
C483 H495 0.960 . S
C483 H496 0.962 . S
C483 H497 0.960 . S
C484 C481 1.511 . S
C484 H498 0.961 . S
C484 H499 0.961 . S
C484 H500 0.961 . S
C485 C486 1.370 . S
C485 C487 1.363 . S
C485 H501 0.931 . S
C486 C485 1.370 . S
C486 C490 1.408 . S
C487 C485 1.363 . S
C487 C488 1.370 . S
C487 C491 1.524 . S
C488 C480 1.503 . S
C488 C487 1.370 . S
C488 C489 1.403 . S
C489 C488 1.403 . S
C489 C490 1.404 . S
C489 C492 1.539 . S
C490 C486 1.408 . S
C490 C489 1.404 . S
C490 H502 0.930 . S
C491 C487 1.524 . S
C491 H503 0.956 . S
C491 H504 0.961 . S
C491 H505 0.961 . S
C492 C489 1.539 . S
C492 H506 0.958 . S
C492 H507 0.961 . S
C492 H508 0.960 . S
H493 C477 0.931 . S
H494 C482 0.929 . S
H495 C483 0.960 . S
H496 C483 0.962 . S
H497 C483 0.960 . S
H498 C484 0.961 . S
H499 C484 0.961 . S
H500 C484 0.961 . S
H501 C485 0.931 . S
H502 C490 0.930 . S
H503 C491 0.956 . S
H504 C491 0.961 . S
H505 C491 0.961 . S
H506 C492 0.958 . S
H507 C492 0.961 . S
H508 C492 0.960 . S
C509 C510 1.391 . S
C509 C511 1.394 . S
C509 H525 0.931 . S
C510 C509 1.391 . S
C510 C514 1.376 . S
C511 C509 1.394 . S
C511 C512 1.369 . S
C511 C515 1.531 . S
C512 C511 1.369 . S
C512 C513 1.410 . S
C512 C520 1.503 . S
C513 C512 1.410 . S
C513 C514 1.392 . S
C513 C516 1.511 . S
C514 C510 1.376 . S
C514 C513 1.392 . S
C514 H526 0.929 . S
C515 C511 1.531 . S
C515 H527 0.960 . S
C515 H528 0.962 . S
C515 H529 0.960 . S
C516 C513 1.511 . S
C516 H530 0.961 . S
C516 H531 0.961 . S
C516 H532 0.961 . S
C517 C518 1.370 . S
C517 C519 1.363 . S
C517 H533 0.931 . S
C518 C517 1.370 . S
C518 C522 1.408 . S
C519 C517 1.363 . S
C519 C520 1.370 . S
C519 C523 1.524 . S
C520 C512 1.503 . S
C520 C519 1.370 . S
C520 C521 1.403 . S
C521 C520 1.403 . S
C521 C522 1.404 . S
C521 C524 1.539 . S
C522 C518 1.408 . S
C522 C521 1.404 . S
C522 H534 0.930 . S
C523 C519 1.524 . S
C523 H535 0.956 . S
C523 H536 0.961 . S
C523 H537 0.961 . S
C524 C521 1.539 . S
C524 H538 0.958 . S
C524 H539 0.961 . S
C524 H540 0.960 . S
H525 C509 0.931 . S
H526 C514 0.929 . S
H527 C515 0.960 . S
H528 C515 0.962 . S
H529 C515 0.960 . S
H530 C516 0.961 . S
H531 C516 0.961 . S
H532 C516 0.961 . S
H533 C517 0.931 . S
H534 C522 0.930 . S
H535 C523 0.956 . S
H536 C523 0.961 . S
H537 C523 0.961 . S
H538 C524 0.958 . S
H539 C524 0.961 . S
H540 C524 0.960 . S
C541 C542 1.391 . S
C541 C543 1.394 . S
C541 H557 0.931 . S
C542 C541 1.391 . S
C542 C546 1.376 . S
C543 C541 1.394 . S
C543 C544 1.369 . S
C543 C547 1.531 . S
C544 C543 1.369 . S
C544 C545 1.410 . S
C544 C552 1.503 . S
C545 C544 1.410 . S
C545 C546 1.392 . S
C545 C548 1.511 . S
C546 C542 1.376 . S
C546 C545 1.392 . S
C546 H558 0.929 . S
C547 C543 1.531 . S
C547 H559 0.960 . S
C547 H560 0.962 . S
C547 H561 0.960 . S
C548 C545 1.511 . S
C548 H562 0.961 . S
C548 H563 0.961 . S
C548 H564 0.961 . S
C549 C550 1.370 . S
C549 C551 1.363 . S
C549 H565 0.931 . S
C550 C549 1.370 . S
C550 C554 1.408 . S
C551 C549 1.363 . S
C551 C552 1.370 . S
C551 C555 1.524 . S
C552 C544 1.503 . S
C552 C551 1.370 . S
C552 C553 1.403 . S
C553 C552 1.403 . S
C553 C554 1.404 . S
C553 C556 1.539 . S
C554 C550 1.408 . S
C554 C553 1.404 . S
C554 H566 0.930 . S
C555 C551 1.524 . S
C555 H567 0.956 . S
C555 H568 0.961 . S
C555 H569 0.961 . S
C556 C553 1.539 . S
C556 H570 0.958 . S
C556 H571 0.961 . S
C556 H572 0.960 . S
H557 C541 0.931 . S
H558 C546 0.929 . S
H559 C547 0.960 . S
H560 C547 0.962 . S
H561 C547 0.960 . S
H562 C548 0.961 . S
H563 C548 0.961 . S
H564 C548 0.961 . S
H565 C549 0.931 . S
H566 C554 0.930 . S
H567 C555 0.956 . S
H568 C555 0.961 . S
H569 C555 0.961 . S
H570 C556 0.958 . S
H571 C556 0.961 . S
H572 C556 0.960 . S
C573 C574 1.391 . S
C573 C575 1.394 . S
C573 H589 0.931 . S
C574 C573 1.391 . S
C574 C578 1.376 . S
C575 C573 1.394 . S
C575 C576 1.369 . S
C575 C579 1.531 . S
C576 C575 1.369 . S
C576 C577 1.410 . S
C576 C584 1.503 . S
C577 C576 1.410 . S
C577 C578 1.392 . S
C577 C580 1.511 . S
C578 C574 1.376 . S
C578 C577 1.392 . S
C578 H590 0.929 . S
C579 C575 1.531 . S
C579 H591 0.960 . S
C579 H592 0.962 . S
C579 H593 0.960 . S
C580 C577 1.511 . S
C580 H594 0.961 . S
C580 H595 0.961 . S
C580 H596 0.961 . S
C581 C582 1.370 . S
C581 C583 1.363 . S
C581 H597 0.931 . S
C582 C581 1.370 . S
C582 C586 1.408 . S
C583 C581 1.363 . S
C583 C584 1.370 . S
C583 C587 1.524 . S
C584 C576 1.503 . S
C584 C583 1.370 . S
C584 C585 1.403 . S
C585 C584 1.403 . S
C585 C586 1.404 . S
C585 C588 1.539 . S
C586 C582 1.408 . S
C586 C585 1.404 . S
C586 H598 0.930 . S
C587 C583 1.524 . S
C587 H599 0.956 . S
C587 H600 0.961 . S
C587 H601 0.961 . S
C588 C585 1.539 . S
C588 H602 0.958 . S
C588 H603 0.961 . S
C588 H604 0.960 . S
H589 C573 0.931 . S
H590 C578 0.929 . S
H591 C579 0.960 . S
H592 C579 0.962 . S
H593 C579 0.960 . S
H594 C580 0.961 . S
H595 C580 0.961 . S
H596 C580 0.961 . S
H597 C581 0.931 . S
H598 C586 0.930 . S
H599 C587 0.956 . S
H600 C587 0.961 . S
H601 C587 0.961 . S
H602 C588 0.958 . S
H603 C588 0.961 . S
H604 C588 0.960 . S
C605 C606 1.391 . S
C605 C607 1.394 . S
C605 H621 0.931 . S
C606 C605 1.391 . S
C606 C610 1.376 . S
C607 C605 1.394 . S
C607 C608 1.369 . S
C607 C611 1.531 . S
C608 C607 1.369 . S
C608 C609 1.410 . S
C608 C616 1.503 . S
C609 C608 1.410 . S
C609 C610 1.392 . S
C609 C612 1.511 . S
C610 C606 1.376 . S
C610 C609 1.392 . S
C610 H622 0.913 1_655 S
C611 C607 1.531 . S
C611 H623 0.960 . S
C611 H624 0.962 . S
C611 H625 0.960 . S
C612 C609 1.511 . S
C612 H626 0.961 1_655 S
C612 H627 0.961 . S
C612 H628 0.961 1_655 S
C613 C614 1.370 . S
C613 C615 1.363 . S
C613 H629 0.931 . S
C614 C613 1.370 . S
C614 C618 1.408 . S
C615 C613 1.363 . S
C615 C616 1.370 . S
C615 C619 1.524 . S
C616 C608 1.503 . S
C616 C615 1.370 . S
C616 C617 1.403 . S
C617 C616 1.403 . S
C617 C618 1.404 . S
C617 C620 1.539 . S
C618 C614 1.408 . S
C618 C617 1.404 . S
C618 H630 0.930 . S
C619 C615 1.524 . S
C619 H631 0.956 . S
C619 H632 0.961 . S
C619 H633 0.961 . S
C620 C617 1.539 . S
C620 H634 0.958 . S
C620 H635 0.961 . S
C620 H636 0.960 . S
H621 C605 0.931 . S
H622 C610 0.913 1_455 S
H623 C611 0.960 . S
H624 C611 0.962 . S
H625 C611 0.960 . S
H626 C612 0.961 1_455 S
H627 C612 0.961 . S
H628 C612 0.961 1_455 S
H629 C613 0.931 . S
H630 C618 0.930 . S
H631 C619 0.956 . S
H632 C619 0.961 . S
H633 C619 0.961 . S
H634 C620 0.958 . S
H635 C620 0.961 . S
H636 C620 0.960 . S
C637 C638 1.391 . S
C637 C639 1.394 . S
C637 H653 0.931 . S
C638 C637 1.391 . S
C638 C642 1.376 . S
C639 C637 1.394 . S
C639 C640 1.369 . S
C639 C643 1.531 . S
C640 C639 1.369 . S
C640 C641 1.410 . S
C640 C648 1.503 . S
C641 C640 1.410 . S
C641 C642 1.392 . S
C641 C644 1.511 . S
C642 C638 1.376 . S
C642 C641 1.392 . S
C642 H654 0.929 . S
C643 C639 1.531 . S
C643 H655 0.960 . S
C643 H656 0.962 . S
C643 H657 0.960 . S
C644 C641 1.511 . S
C644 H658 0.961 . S
C644 H659 0.961 . S
C644 H660 0.961 . S
C645 C646 1.370 . S
C645 C647 1.363 . S
C645 H661 0.931 . S
C646 C645 1.370 . S
C646 C650 1.408 . S
C647 C645 1.363 . S
C647 C648 1.370 . S
C647 C651 1.524 . S
C648 C640 1.503 . S
C648 C647 1.370 . S
C648 C649 1.403 . S
C649 C648 1.403 . S
C649 C650 1.404 . S
C649 C652 1.539 . S
C650 C646 1.408 . S
C650 C649 1.404 . S
C650 H662 0.930 . S
C651 C647 1.524 . S
C651 H663 0.956 . S
C651 H664 0.961 . S
C651 H665 0.961 . S
C652 C649 1.539 . S
C652 H666 0.958 . S
C652 H667 0.961 . S
C652 H668 0.960 . S
H653 C637 0.931 . S
H654 C642 0.929 . S
H655 C643 0.960 . S
H656 C643 0.962 . S
H657 C643 0.960 . S
H658 C644 0.961 . S
H659 C644 0.961 . S
H660 C644 0.961 . S
H661 C645 0.931 . S
H662 C650 0.930 . S
H663 C651 0.956 . S
H664 C651 0.961 . S
H665 C651 0.961 . S
H666 C652 0.958 . S
H667 C652 0.961 . S
H668 C652 0.960 . S
C669 C670 1.391 . S
C669 C671 1.394 . S
C669 H685 0.931 . S
C670 C669 1.391 . S
C670 C674 1.376 . S
C671 C669 1.394 . S
C671 C672 1.369 . S
C671 C675 1.531 . S
C672 C671 1.369 . S
C672 C673 1.410 . S
C672 C680 1.503 . S
C673 C672 1.410 . S
C673 C674 1.392 . S
C673 C676 1.511 . S
C674 C670 1.376 . S
C674 C673 1.392 . S
C674 H686 0.929 . S
C675 C671 1.531 . S
C675 H687 0.960 . S
C675 H688 0.962 . S
C675 H689 0.960 . S
C676 C673 1.511 . S
C676 H690 0.961 . S
C676 H691 0.961 . S
C676 H692 0.961 . S
C677 C678 1.370 . S
C677 C679 1.363 1_545 S
C677 H693 0.931 . S
C678 C677 1.370 . S
C678 C682 1.408 . S
C679 C677 1.363 1_565 S
C679 C680 1.370 . S
C679 C683 1.524 . S
C680 C672 1.503 . S
C680 C679 1.370 . S
C680 C681 1.403 1_565 S
C681 C680 1.403 1_545 S
C681 C682 1.404 . S
C681 C684 1.539 . S
C682 C678 1.408 . S
C682 C681 1.404 . S
C682 H694 0.930 . S
C683 C679 1.524 . S
C683 H695 0.956 . S
C683 H696 0.961 . S
C683 H697 0.961 . S
C684 C681 1.539 . S
C684 H698 0.953 1_545 S
C684 H699 0.961 . S
C684 H700 0.960 1_545 S
H685 C669 0.931 . S
H686 C674 0.929 . S
H687 C675 0.960 . S
H688 C675 0.962 . S
H689 C675 0.960 . S
H690 C676 0.961 . S
H691 C676 0.961 . S
H692 C676 0.961 . S
H693 C677 0.931 . S
H694 C682 0.930 . S
H695 C683 0.956 . S
H696 C683 0.961 . S
H697 C683 0.961 . S
H698 C684 0.953 1_565 S
H699 C684 0.961 . S
H700 C684 0.960 1_565 S
C701 C702 1.391 . S
C701 C703 1.394 1_655 S
C701 H717 0.931 . S
C702 C701 1.391 . S
C702 C706 1.376 . S
C703 C701 1.394 1_455 S
C703 C704 1.369 . S
C703 C707 1.531 . S
C704 C703 1.369 . S
C704 C705 1.410 . S
C704 C712 1.503 . S
C705 C704 1.410 . S
C705 C706 1.392 1_455 S
C705 C708 1.511 . S
C706 C702 1.376 . S
C706 C705 1.392 1_655 S
C706 H718 0.929 . S
C707 C703 1.531 . S
C707 H719 0.960 . S
C707 H720 0.962 . S
C707 H721 0.960 . S
C708 C705 1.511 . S
C708 H722 0.961 1_455 S
C708 H723 0.961 . S
C708 H724 0.961 . S
C709 C710 1.370 . S
C709 C711 1.363 . S
C709 H725 0.931 1_565 S
C710 C709 1.370 . S
C710 C714 1.408 . S
C711 C709 1.363 . S
C711 C712 1.370 . S
C711 C715 1.524 . S
C712 C704 1.503 . S
C712 C711 1.370 . S
C712 C713 1.403 . S
C713 C712 1.403 . S
C713 C714 1.404 . S
C713 C716 1.539 . S
C714 C710 1.408 . S
C714 C713 1.404 . S
C714 H726 0.930 . S
C715 C711 1.524 . S
C715 H727 0.956 . S
C715 H728 0.961 . S
C715 H729 0.961 . S
C716 C713 1.539 . S
C716 H730 0.958 . S
C716 H731 0.961 . S
C716 H732 0.960 . S
H717 C701 0.931 . S
H718 C706 0.929 . S
H719 C707 0.960 . S
H720 C707 0.962 . S
H721 C707 0.960 . S
H722 C708 0.961 1_655 S
H723 C708 0.961 . S
H724 C708 0.961 . S
H725 C709 0.931 1_545 S
H726 C714 0.930 . S
H727 C715 0.956 . S
H728 C715 0.961 . S
H729 C715 0.961 . S
H730 C716 0.958 . S
H731 C716 0.961 . S
H732 C716 0.960 . S
C733 C734 1.391 . S
C733 C735 1.394 . S
C733 H749 0.931 . S
C734 C733 1.391 . S
C734 C738 1.376 . S
C735 C733 1.394 . S
C735 C736 1.369 . S
C735 C739 1.531 . S
C736 C735 1.369 . S
C736 C737 1.410 . S
C736 C744 1.503 . S
C737 C736 1.410 . S
C737 C738 1.392 . S
C737 C740 1.511 . S
C738 C734 1.376 . S
C738 C737 1.392 . S
C738 H750 0.929 . S
C739 C735 1.531 . S
C739 H751 0.960 . S
C739 H752 0.962 . S
C739 H753 0.960 . S
C740 C737 1.511 . S
C740 H754 0.961 . S
C740 H755 0.961 . S
C740 H756 0.961 . S
C741 C742 1.370 . S
C741 C743 1.363 . S
C741 H757 0.931 . S
C742 C741 1.370 . S
C742 C746 1.408 . S
C743 C741 1.363 . S
C743 C744 1.370 . S
C743 C747 1.524 . S
C744 C736 1.503 . S
C744 C743 1.370 . S
C744 C745 1.403 . S
C745 C744 1.403 . S
C745 C746 1.404 . S
C745 C748 1.539 . S
C746 C742 1.408 . S
C746 C745 1.404 . S
C746 H758 0.930 . S
C747 C743 1.524 . S
C747 H759 0.956 . S
C747 H760 0.961 . S
C747 H761 0.961 . S
C748 C745 1.539 . S
C748 H762 0.958 . S
C748 H763 0.961 . S
C748 H764 0.960 . S
H749 C733 0.931 . S
H750 C738 0.929 . S
H751 C739 0.960 . S
H752 C739 0.962 . S
H753 C739 0.960 . S
H754 C740 0.961 . S
H755 C740 0.961 . S
H756 C740 0.961 . S
H757 C741 0.931 . S
H758 C746 0.930 . S
H759 C747 0.956 . S
H760 C747 0.961 . S
H761 C747 0.961 . S
H762 C748 0.958 . S
H763 C748 0.961 . S
H764 C748 0.960 . S
C765 C766 1.391 . S
C765 C767 1.394 . S
C765 H781 0.931 . S
C766 C765 1.391 . S
C766 C770 1.376 . S
C767 C765 1.394 . S
C767 C768 1.369 . S
C767 C771 1.531 . S
C768 C767 1.369 . S
C768 C769 1.410 . S
C768 C776 1.503 . S
C769 C768 1.410 . S
C769 C770 1.392 . S
C769 C772 1.511 1_455 S
C770 C766 1.376 . S
C770 C769 1.392 . S
C770 H782 0.929 . S
C771 C767 1.531 . S
C771 H783 0.960 . S
C771 H784 0.962 . S
C771 H785 0.960 . S
C772 C769 1.511 1_655 S
C772 H786 0.961 . S
C772 H787 0.961 . S
C772 H788 0.961 . S
C773 C774 1.370 . S
C773 C775 1.363 . S
C773 H789 0.931 . S
C774 C773 1.370 . S
C774 C778 1.408 1_455 S
C775 C773 1.363 . S
C775 C776 1.370 . S
C775 C779 1.524 . S
C776 C768 1.503 . S
C776 C775 1.370 . S
C776 C777 1.408 . S
C777 C776 1.408 . S
C777 C778 1.399 1_455 S
C777 C780 1.537 1_455 S
C778 C774 1.408 1_655 S
C778 C777 1.399 1_655 S
C778 H790 0.930 . S
C779 C775 1.524 . S
C779 H791 0.956 . S
C779 H792 0.961 . S
C779 H793 0.961 . S
C780 C777 1.537 1_655 S
C780 H794 0.958 . S
C780 H795 0.961 . S
C780 H796 0.960 . S
H781 C765 0.931 . S
H782 C770 0.929 . S
H783 C771 0.960 . S
H784 C771 0.962 . S
H785 C771 0.960 . S
H786 C772 0.961 . S
H787 C772 0.961 . S
H788 C772 0.961 . S
H789 C773 0.931 . S
H790 C778 0.930 . S
H791 C779 0.956 . S
H792 C779 0.961 . S
H793 C779 0.961 . S
H794 C780 0.958 . S
H795 C780 0.961 . S
H796 C780 0.960 . S
C797 C798 1.391 . S
C797 C799 1.394 . S
C797 H813 0.931 . S
C798 C797 1.391 . S
C798 C802 1.376 . S
C799 C797 1.394 . S
C799 C800 1.369 . S
C799 C803 1.531 . S
C800 C799 1.369 . S
C800 C801 1.410 . S
C800 C808 1.503 . S
C801 C800 1.410 . S
C801 C802 1.392 . S
C801 C804 1.511 . S
C802 C798 1.376 . S
C802 C801 1.392 . S
C802 H814 0.929 . S
C803 C799 1.531 . S
C803 H815 0.960 . S
C803 H816 0.962 . S
C803 H817 0.960 . S
C804 C801 1.511 . S
C804 H818 0.961 . S
C804 H819 0.961 . S
C804 H820 0.961 . S
C805 C806 1.370 . S
C805 C807 1.363 . S
C805 H821 0.931 . S
C806 C805 1.370 . S
C806 C810 1.408 . S
C807 C805 1.363 . S
C807 C808 1.370 . S
C807 C811 1.524 . S
C808 C800 1.503 . S
C808 C807 1.370 . S
C808 C809 1.403 . S
C809 C808 1.403 . S
C809 C810 1.404 . S
C809 C812 1.539 . S
C810 C806 1.408 . S
C810 C809 1.404 . S
C810 H822 0.930 . S
C811 C807 1.524 . S
C811 H823 0.956 . S
C811 H824 0.961 . S
C811 H825 0.961 . S
C812 C809 1.539 . S
C812 H826 0.958 . S
C812 H827 0.961 . S
C812 H828 0.960 . S
H813 C797 0.931 . S
H814 C802 0.929 . S
H815 C803 0.960 . S
H816 C803 0.962 . S
H817 C803 0.960 . S
H818 C804 0.961 . S
H819 C804 0.961 . S
H820 C804 0.961 . S
H821 C805 0.931 . S
H822 C810 0.930 . S
H823 C811 0.956 . S
H824 C811 0.961 . S
H825 C811 0.961 . S
H826 C812 0.958 . S
H827 C812 0.961 . S
H828 C812 0.960 . S
C829 C830 1.391 1_545 S
C829 C831 1.394 . S
C829 H845 0.931 . S
C830 C829 1.391 1_565 S
C830 C834 1.376 . S
C831 C829 1.394 . S
C831 C832 1.369 1_545 S
C831 C835 1.531 . S
C832 C831 1.369 1_565 S
C832 C833 1.410 . S
C832 C840 1.503 . S
C833 C832 1.410 . S
C833 C834 1.392 . S
C833 C836 1.511 . S
C834 C830 1.376 . S
C834 C833 1.392 . S
C834 H846 0.929 . S
C835 C831 1.531 . S
C835 H847 0.960 . S
C835 H848 0.962 . S
C835 H849 0.960 . S
C836 C833 1.511 . S
C836 H850 0.961 . S
C836 H851 0.961 . S
C836 H852 0.961 . S
C837 C838 1.370 . S
C837 C839 1.363 . S
C837 H853 0.931 . S
C838 C837 1.370 . S
C838 C842 1.408 . S
C839 C837 1.363 . S
C839 C840 1.370 . S
C839 C843 1.524 . S
C840 C832 1.503 . S
C840 C839 1.370 . S
C840 C841 1.403 . S
C841 C840 1.403 . S
C841 C842 1.404 . S
C841 C844 1.539 . S
C842 C838 1.408 . S
C842 C841 1.404 . S
C842 H854 0.930 . S
C843 C839 1.524 . S
C843 H855 0.956 . S
C843 H856 0.961 . S
C843 H857 0.961 . S
C844 C841 1.539 . S
C844 H858 0.958 . S
C844 H859 0.961 . S
C844 H860 0.960 . S
H845 C829 0.931 . S
H846 C834 0.929 . S
H847 C835 0.960 . S
H848 C835 0.962 . S
H849 C835 0.960 . S
H850 C836 0.961 . S
H851 C836 0.961 . S
H852 C836 0.961 . S
H853 C837 0.931 . S
H854 C842 0.930 . S
H855 C843 0.956 . S
H856 C843 0.961 . S
H857 C843 0.961 . S
H858 C844 0.958 . S
H859 C844 0.961 . S
H860 C844 0.960 . S
C861 C862 1.391 1_565 S
C861 C863 1.394 . S
C861 H877 0.931 . S
C862 C861 1.391 1_545 S
C862 C866 1.376 . S
C863 C861 1.394 . S
C863 C864 1.369 1_565 S
C863 C867 1.531 . S
C864 C863 1.369 1_545 S
C864 C865 1.410 . S
C864 C872 1.503 . S
C865 C864 1.410 . S
C865 C866 1.392 . S
C865 C868 1.511 . S
C866 C862 1.376 . S
C866 C865 1.392 . S
C866 H878 0.929 . S
C867 C863 1.531 . S
C867 H879 0.960 . S
C867 H880 0.962 . S
C867 H881 0.960 . S
C868 C865 1.511 . S
C868 H882 0.961 . S
C868 H883 0.961 . S
C868 H884 0.961 . S
C869 C870 1.370 . S
C869 C871 1.363 . S
C869 H885 0.931 . S
C870 C869 1.370 . S
C870 C874 1.408 . S
C871 C869 1.363 . S
C871 C872 1.370 . S
C871 C875 1.524 . S
C872 C864 1.503 . S
C872 C871 1.370 . S
C872 C873 1.403 . S
C873 C872 1.403 . S
C873 C874 1.404 . S
C873 C876 1.539 1_545 S
C874 C870 1.408 . S
C874 C873 1.404 . S
C874 H886 0.930 . S
C875 C871 1.524 . S
C875 H887 0.956 . S
C875 H888 0.961 . S
C875 H889 0.961 . S
C876 C873 1.539 1_565 S
C876 H890 0.958 . S
C876 H891 0.961 . S
C876 H892 0.960 . S
H877 C861 0.931 . S
H878 C866 0.929 . S
H879 C867 0.960 . S
H880 C867 0.962 . S
H881 C867 0.960 . S
H882 C868 0.961 . S
H883 C868 0.961 . S
H884 C868 0.961 . S
H885 C869 0.931 . S
H886 C874 0.930 . S
H887 C875 0.956 . S
H888 C875 0.961 . S
H889 C875 0.961 . S
H890 C876 0.958 . S
H891 C876 0.961 . S
H892 C876 0.960 . S
C893 C894 1.391 . S
C893 C895 1.394 . S
C893 H909 0.931 . S
C894 C893 1.391 . S
C894 C898 1.376 1_655 S
C895 C893 1.394 . S
C895 C896 1.369 . S
C895 C899 1.531 . S
C896 C895 1.369 . S
C896 C897 1.412 . S
C896 C904 1.503 . S
C897 C896 1.412 . S
C897 C898 1.392 1_655 S
C897 C900 1.509 1_655 S
C898 C894 1.376 1_455 S
C898 C897 1.392 1_455 S
C898 H910 0.929 . S
C899 C895 1.531 . S
C899 H911 0.960 . S
C899 H912 0.962 . S
C899 H913 0.960 . S
C900 C897 1.509 1_455 S
C900 H914 0.961 . S
C900 H915 0.961 1_455 S
C900 H916 0.961 . S
C901 C902 1.370 . S
C901 C903 1.363 . S
C901 H917 0.931 . S
C902 C901 1.370 . S
C902 C906 1.408 . S
C903 C901 1.363 . S
C903 C904 1.370 . S
C903 C907 1.524 . S
C904 C896 1.503 . S
C904 C903 1.370 . S
C904 C905 1.403 1_655 S
C905 C904 1.403 1_455 S
C905 C906 1.404 1_455 S
C905 C908 1.539 . S
C906 C902 1.408 . S
C906 C905 1.404 1_655 S
C906 H918 0.930 1_655 S
C907 C903 1.524 . S
C907 H919 0.956 . S
C907 H920 0.961 . S
C907 H921 0.961 . S
C908 C905 1.539 . S
C908 H922 0.958 . S
C908 H923 0.961 . S
C908 H924 0.960 . S
H909 C893 0.931 . S
H910 C898 0.929 . S
H911 C899 0.960 . S
H912 C899 0.962 . S
H913 C899 0.960 . S
H914 C900 0.961 . S
H915 C900 0.961 1_655 S
H916 C900 0.961 . S
H917 C901 0.931 . S
H918 C906 0.930 1_455 S
H919 C907 0.956 . S
H920 C907 0.961 . S
H921 C907 0.961 . S
H922 C908 0.958 . S
H923 C908 0.961 . S
H924 C908 0.960 . S
C925 C926 1.391 . S
C925 C927 1.394 . S
C925 H941 0.931 . S
C926 C925 1.391 . S
C926 C930 1.376 . S
C927 C925 1.394 . S
C927 C928 1.369 . S
C927 C931 1.531 . S
C928 C927 1.369 . S
C928 C929 1.410 . S
C928 C936 1.503 . S
C929 C928 1.410 . S
C929 C930 1.392 . S
C929 C932 1.511 . S
C930 C926 1.376 . S
C930 C929 1.392 . S
C930 H942 0.929 . S
C931 C927 1.531 . S
C931 H943 0.960 . S
C931 H944 0.962 . S
C931 H945 0.960 . S
C932 C929 1.511 . S
C932 H946 0.961 . S
C932 H947 0.961 . S
C932 H948 0.961 . S
C933 C934 1.370 . S
C933 C935 1.363 . S
C933 H949 0.931 . S
C934 C933 1.370 . S
C934 C938 1.408 . S
C935 C933 1.363 . S
C935 C936 1.370 . S
C935 C939 1.524 . S
C936 C928 1.503 . S
C936 C935 1.370 . S
C936 C937 1.403 . S
C937 C936 1.403 . S
C937 C938 1.404 . S
C937 C940 1.539 . S
C938 C934 1.408 . S
C938 C937 1.404 . S
C938 H950 0.930 . S
C939 C935 1.524 . S
C939 H951 0.956 . S
C939 H952 0.961 . S
C939 H953 0.961 . S
C940 C937 1.539 . S
C940 H954 0.958 . S
C940 H955 0.961 . S
C940 H956 0.960 . S
H941 C925 0.931 . S
H942 C930 0.929 . S
H943 C931 0.960 . S
H944 C931 0.962 . S
H945 C931 0.960 . S
H946 C932 0.961 . S
H947 C932 0.961 . S
H948 C932 0.961 . S
H949 C933 0.931 . S
H950 C938 0.930 . S
H951 C939 0.956 . S
H952 C939 0.961 . S
H953 C939 0.961 . S
H954 C940 0.958 . S
H955 C940 0.961 . S
H956 C940 0.960 . S
C957 C958 1.391 . S
C957 C959 1.394 . S
C957 H973 0.931 . S
C958 C957 1.391 . S
C958 C962 1.376 . S
C959 C957 1.394 . S
C959 C960 1.369 . S
C959 C963 1.531 . S
C960 C959 1.369 . S
C960 C961 1.410 . S
C960 C968 1.503 . S
C961 C960 1.410 . S
C961 C962 1.392 . S
C961 C964 1.511 . S
C962 C958 1.376 . S
C962 C961 1.392 . S
C962 H974 0.929 . S
C963 C959 1.531 . S
C963 H975 0.960 . S
C963 H976 0.962 . S
C963 H977 0.960 . S
C964 C961 1.511 . S
C964 H978 0.961 . S
C964 H979 0.961 . S
C964 H980 0.961 . S
C965 C966 1.370 . S
C965 C967 1.363 . S
C965 H981 0.931 . S
C966 C965 1.370 . S
C966 C970 1.408 . S
C967 C965 1.363 . S
C967 C968 1.370 . S
C967 C971 1.524 . S
C968 C960 1.503 . S
C968 C967 1.370 . S
C968 C969 1.403 . S
C969 C968 1.403 . S
C969 C970 1.404 . S
C969 C972 1.539 . S
C970 C966 1.408 . S
C970 C969 1.404 . S
C970 H982 0.930 . S
C971 C967 1.524 . S
C971 H983 0.956 . S
C971 H984 0.961 . S
C971 H985 0.961 . S
C972 C969 1.539 . S
C972 H986 0.958 . S
C972 H987 0.961 . S
C972 H988 0.960 . S
H973 C957 0.931 . S
H974 C962 0.929 . S
H975 C963 0.960 . S
H976 C963 0.962 . S
H977 C963 0.960 . S
H978 C964 0.961 . S
H979 C964 0.961 . S
H980 C964 0.961 . S
H981 C965 0.931 . S
H982 C970 0.930 . S
H983 C971 0.956 . S
H984 C971 0.961 . S
H985 C971 0.961 . S
H986 C972 0.958 . S
H987 C972 0.961 . S
H988 C972 0.960 . S
C989 C990 1.391 1_545 S
C989 C991 1.394 . S
C989 H1005 0.931 . S
C990 C989 1.391 1_565 S
C990 C994 1.376 . S
C991 C989 1.394 . S
C991 C992 1.369 1_545 S
C991 C995 1.531 . S
C992 C991 1.369 1_565 S
C992 C993 1.410 . S
C992 C1000 1.503 1_565 S
C993 C992 1.410 . S
C993 C994 1.392 . S
C993 C996 1.511 . S
C994 C990 1.376 . S
C994 C993 1.392 . S
C994 H1006 0.929 . S
C995 C991 1.531 . S
C995 H1007 0.960 . S
C995 H1008 0.962 . S
C995 H1009 0.960 . S
C996 C993 1.511 . S
C996 H1010 0.961 . S
C996 H1011 0.961 . S
C996 H1012 0.961 . S
C997 C998 1.370 . S
C997 C999 1.363 . S
C997 H1013 0.931 . S
C998 C997 1.370 . S
C998 C1002 1.408 . S
C999 C997 1.363 . S
C999 C1000 1.370 . S
C999 C1003 1.524 . S
C1000 C992 1.503 1_545 S
C1000 C999 1.370 . S
C1000 C1001 1.403 . S
C1001 C1000 1.403 . S
C1001 C1002 1.404 . S
C1001 C1004 1.539 . S
C1002 C998 1.408 . S
C1002 C1001 1.404 . S
C1002 H1014 0.930 . S
C1003 C999 1.524 . S
C1003 H1015 0.956 . S
C1003 H1016 0.961 1_545 S
C1003 H1017 0.961 . S
C1004 C1001 1.539 . S
C1004 H1018 0.958 . S
C1004 H1019 0.961 1_545 S
C1004 H1020 0.960 1_545 S
H1005 C989 0.931 . S
H1006 C994 0.929 . S
H1007 C995 0.960 . S
H1008 C995 0.962 . S
H1009 C995 0.960 . S
H1010 C996 0.961 . S
H1011 C996 0.961 . S
H1012 C996 0.961 . S
H1013 C997 0.931 . S
H1014 C1002 0.930 . S
H1015 C1003 0.956 . S
H1016 C1003 0.961 1_565 S
H1017 C1003 0.961 . S
H1018 C1004 0.958 . S
H1019 C1004 0.961 1_565 S
H1020 C1004 0.960 1_565 S
C1021 C1022 1.391 . S
C1021 C1023 1.394 . S
C1021 H1037 0.931 . S
C1022 C1021 1.391 . S
C1022 C1026 1.376 . S
C1023 C1021 1.394 . S
C1023 C1024 1.369 . S
C1023 C1027 1.531 1_655 S
C1024 C1023 1.369 . S
C1024 C1025 1.410 . S
C1024 C1032 1.503 1_655 S
C1025 C1024 1.410 . S
C1025 C1026 1.392 . S
C1025 C1028 1.511 . S
C1026 C1022 1.376 . S
C1026 C1025 1.392 . S
C1026 H1038 0.929 . S
C1027 C1023 1.531 1_455 S
C1027 H1039 0.960 1_455 S
C1027 H1040 0.962 . S
C1027 H1041 0.960 1_455 S
C1028 C1025 1.511 . S
C1028 H1042 0.961 . S
C1028 H1043 0.961 . S
C1028 H1044 0.961 . S
C1029 C1030 1.370 . S
C1029 C1031 1.363 . S
C1029 H1045 0.931 . S
C1030 C1029 1.370 . S
C1030 C1034 1.408 1_455 S
C1031 C1029 1.363 . S
C1031 C1032 1.370 . S
C1031 C1035 1.524 . S
C1032 C1024 1.503 1_455 S
C1032 C1031 1.370 . S
C1032 C1033 1.403 1_455 S
C1033 C1032 1.403 1_655 S
C1033 C1034 1.404 . S
C1033 C1036 1.539 . S
C1034 C1030 1.408 1_655 S
C1034 C1033 1.404 . S
C1034 H1046 0.930 . S
C1035 C1031 1.524 . S
C1035 H1047 0.956 . S
C1035 H1048 0.961 . S
C1035 H1049 0.961 . S
C1036 C1033 1.539 . S
C1036 H1050 0.958 . S
C1036 H1051 0.961 . S
C1036 H1052 0.960 . S
H1037 C1021 0.931 . S
H1038 C1026 0.929 . S
H1039 C1027 0.960 1_655 S
H1040 C1027 0.962 . S
H1041 C1027 0.960 1_655 S
H1042 C1028 0.961 . S
H1043 C1028 0.961 . S
H1044 C1028 0.961 . S
H1045 C1029 0.931 . S
H1046 C1034 0.930 . S
H1047 C1035 0.956 . S
H1048 C1035 0.961 . S
H1049 C1035 0.961 . S
H1050 C1036 0.958 . S
H1051 C1036 0.961 . S
H1052 C1036 0.960 . S
C190 C40 0.995 . S
C198 C16 0.921 . S
C222 C62 0.990 . S
C230 C37 0.901 . S
C254 C45 0.901 . S
C262 C19 1.040 . S
C286 C58 0.833 . S
C294 C41 1.019 . S
C318 C61 1.054 . S
C326 C3 0.948 1_556 S
C350 C20 1.054 . S
C358 C24 0.948 1_556 S
C382 C79 0.921 . S
C390 C104 1.048 . S
C414 C125 1.027 . S
C422 C87 0.907 . S
C446 C108 0.947 . S
C454 C82 1.039 . S
C478 C103 1.059 . S
C486 C121 0.950 . S
C510 C124 1.029 . S
C518 C66 0.933 . S
C542 C100 0.910 . S
C550 C83 1.029 . S
C574 C167 0.996 . S
C582 C142 0.892 . S
C606 C150 1.010 . S
C614 C188 1.060 . S
C638 C171 1.015 . S
C646 C145 1.066 . S
C670 C184 0.900 . S
C678 C166 1.027 . S
C702 C187 1.097 . S
C710 C129 0.959 . S
C734 C146 1.064 . S
C742 C163 0.931 . S
C766 C109 1.396 . S
C774 C4 1.428 1_455 S
C798 C70 1.478 . S
C806 C25 1.443 . S
C830 C49 1.444 1_565 S
C838 C88 1.424 . S
C862 C46 1.411 1_545 S
C870 C130 1.422 . S
C894 C7 1.393 1_655 S
C902 C154 1.436 . S
C926 C175 1.417 . S
C934 C28 1.421 . S
C958 C67 1.400 . S
C966 C172 1.425 . S
C990 C91 1.467 . S
C998 C133 1.456 . S
C1022 C151 1.417 . S
C1030 C112 1.451 . S
