# Generated by pormake.
# Topology uov, (4)-cn, num edge types: 1
# Building blocks:
#     Node 0, Type 0, BuildingBlock: AZAVOO_clean_sbu_0, # of connection points: 4
#     Node 1, Type 0, BuildingBlock: AZAVOO_clean_sbu_0, # of connection points: 4
#     Node 2, Type 0, BuildingBlock: AZAVOO_clean_sbu_0, # of connection points: 4
#     Node 3, Type 0, BuildingBlock: AZAVOO_clean_sbu_0, # of connection points: 4
#     Node 4, Type 0, BuildingBlock: AZAVOO_clean_sbu_0, # of connection points: 4
#     Node 5, Type 0, BuildingBlock: AZAVOO_clean_sbu_0, # of connection points: 4
#     Node 6, Type 0, BuildingBlock: AZAVOO_clean_sbu_0, # of connection points: 4
#     Node 7, Type 0, BuildingBlock: AZAVOO_clean_sbu_0, # of connection points: 4
#     Edge 8, Type (0, 0), BuildingBlock: FUNLAD_clean_linker_0, # of connection points: 2
#     Edge 9, Type (0, 0), BuildingBlock: FUNLAD_clean_linker_0, # of connection points: 2
#     Edge 10, Type (0, 0), BuildingBlock: FUNLAD_clean_linker_0, # of connection points: 2
#     Edge 11, Type (0, 0), BuildingBlock: FUNLAD_clean_linker_0, # of connection points: 2
#     Edge 12, Type (0, 0), BuildingBlock: FUNLAD_clean_linker_0, # of connection points: 2
#     Edge 13, Type (0, 0), BuildingBlock: FUNLAD_clean_linker_0, # of connection points: 2
#     Edge 14, Type (0, 0), BuildingBlock: FUNLAD_clean_linker_0, # of connection points: 2
#     Edge 15, Type (0, 0), BuildingBlock: FUNLAD_clean_linker_0, # of connection points: 2
#     Edge 16, Type (0, 0), BuildingBlock: FUNLAD_clean_linker_0, # of connection points: 2
#     Edge 17, Type (0, 0), BuildingBlock: FUNLAD_clean_linker_0, # of connection points: 2
#     Edge 18, Type (0, 0), BuildingBlock: FUNLAD_clean_linker_0, # of connection points: 2
#     Edge 19, Type (0, 0), BuildingBlock: FUNLAD_clean_linker_0, # of connection points: 2
#     Edge 20, Type (0, 0), BuildingBlock: FUNLAD_clean_linker_0, # of connection points: 2
#     Edge 21, Type (0, 0), BuildingBlock: FUNLAD_clean_linker_0, # of connection points: 2
#     Edge 22, Type (0, 0), BuildingBlock: FUNLAD_clean_linker_0, # of connection points: 2
#     Edge 23, Type (0, 0), BuildingBlock: FUNLAD_clean_linker_0, # of connection points: 2
# Relax obj value: 0.242
# Max RMSD: 0.250
# Mean RMSD: 0.233
data_MOF--net-uov--node1-AZAVOO_clean_sbu_0--edge1-FUNLAD_clean_linker_0
_symmetry_space_group_name_H-M    P1
_symmetry_Int_Tables_number       1
_symmetry_cell_setting            triclinic
loop_
_symmetry_equiv_pos_as_xyz
'x, y, z'
_cell_length_a     34.717194
_cell_length_b     33.793374
_cell_length_c     49.21595
_cell_angle_alpha  89.92518
_cell_angle_beta   90.002551
_cell_angle_gamma 92.873503
loop_
_atom_site_label
_atom_site_type_symbol
_atom_site_fract_x
_atom_site_fract_y
_atom_site_fract_z
_atom_type_partial_charge
Mg0 Mg 0.95163 0.2377 0.61604 0.0
O1 O 0.98548 0.23381 0.57578 0.0
O2 O 0.94549 0.25034 0.54243 0.0
Mg3 Mg 0.88812 0.26639 0.56069 0.0
C4 C 0.97822 0.23939 0.5506 0.0
C5 C 0.00706 0.24488 0.66487 0.0
O6 O 0.97863 0.2665 0.67265 0.0
O7 O 0.96009 0.30516 0.61477 0.0
O8 O 0.91997 0.31963 0.58109 0.0
O9 O 0.92968 0.17551 0.6105 0.0
O10 O 0.89995 0.22711 0.59481 0.0
C11 C 0.94441 0.33026 0.59942 0.0
C12 C 0.9025 0.1892 0.59575 0.0
O13 O 0.00623 0.23055 0.64101 0.0
Mg14 Mg 0.25672 0.06523 0.36774 0.0
O15 O 0.24917 0.02944 0.40745 0.0
O16 O 0.27118 0.06733 0.44187 0.0
Mg17 Mg 0.29524 0.12568 0.42406 0.0
C18 C 0.25561 0.03496 0.43277 0.0
C19 C 0.21388 0.98765 0.34851 0.0
O20 O 0.1914 -0.00164 0.36839 0.0
O21 O 0.32029 0.05416 0.36806 0.0
O22 O 0.34251 0.09118 0.40276 0.0
O23 O 0.19954 0.08899 0.37421 0.0
O24 O 0.25359 0.11742 0.39036 0.0
C25 C 0.34779 0.06695 0.38335 0.0
C26 C 0.21632 0.11545 0.38979 0.0
O27 O 0.244 0.0091 0.34301 0.0
Mg28 Mg 0.04319 0.77773 0.62645 0.0
O29 O 0.01078 0.78178 0.58598 0.0
O30 O 0.04859 0.76158 0.55247 0.0
Mg31 Mg 0.10569 0.74537 0.57159 0.0
C32 C 0.01686 0.77464 0.56091 0.0
C33 C 0.96911 0.81745 0.64374 0.0
O34 O 0.98274 0.84125 0.62451 0.0
O35 O 0.03325 0.71049 0.62627 0.0
O36 O 0.07375 0.69337 0.59355 0.0
O37 O 0.06712 0.83906 0.62054 0.0
O38 O 0.09548 0.78632 0.60539 0.0
C39 C 0.04899 0.6842 0.612 0.0
C40 C 0.09415 0.8244 0.60617 0.0
O41 O 0.98709 0.78659 0.64942 0.0
Mg42 Mg 0.75539 0.92914 0.36554 0.0
O43 O 0.76453 0.95602 0.40814 0.0
O44 O 0.74821 0.90971 0.43913 0.0
Mg45 Mg 0.72505 0.85489 0.41631 0.0
C46 C 0.76104 0.9446 0.43283 0.0
C47 C 0.74317 0.00412 0.32827 0.0
O48 O 0.7141 0.98191 0.31876 0.0
O49 O 0.69142 0.9361 0.36989 0.0
O50 O 0.67421 0.89099 0.40137 0.0
O51 O 0.81431 0.90838 0.36755 0.0
O52 O 0.76286 0.87297 0.38199 0.0
C53 C 0.666 0.91877 0.38502 0.0
C54 C 0.79997 0.87806 0.38091 0.0
O55 O 0.76395 0.99073 0.3471 0.0
Mg56 Mg 0.98808 0.21439 0.14331 0.0
O57 O 0.96271 0.20029 0.10089 0.0
O58 O 0.0094 0.2096 0.07003 0.0
Mg59 Mg 0.06338 0.23375 0.09225 0.0
C60 C 0.97466 0.19936 0.07635 0.0
C61 C 0.91889 0.22522 0.18318 0.0
O62 O 0.94488 0.24855 0.19538 0.0
O63 O 0.98564 0.28097 0.13559 0.0
O64 O 0.03186 0.28911 0.104 0.0
O65 O 0.00774 0.15247 0.14499 0.0
O66 O 0.04322 0.20396 0.12965 0.0
C67 C 0.00574 0.30275 0.11912 0.0
C68 C 0.03898 0.16631 0.13327 0.0
O69 O 0.92753 0.20899 0.16087 0.0
Mg70 Mg 0.24638 0.07388 0.89464 0.0
O71 O 0.21504 0.01266 0.90283 0.0
O72 O 0.15465 0.02595 0.91452 0.0
Mg73 Mg 0.14741 0.09231 0.91496 0.0
C74 C 0.18078 0.00149 0.91012 0.0
C75 C 0.32833 0.06778 0.87663 0.0
O76 O 0.32627 0.10291 0.88781 0.0
O77 O 0.21502 0.08173 0.8539 0.0
O78 O 0.15656 0.0953 0.86907 0.0
O79 O 0.26329 0.07535 0.93823 0.0
O80 O 0.20968 0.09944 0.92243 0.0
C81 C 0.18028 0.09098 0.84962 0.0
C82 C 0.2303 0.0901 0.94304 0.0
O83 O 0.29758 0.04587 0.87468 0.0
Mg84 Mg 0.01859 0.75645 0.13131 0.0
O85 O 0.05101 0.77106 0.09127 0.0
O86 O 0.01454 0.74778 0.0569 0.0
Mg87 Mg 0.95977 0.71765 0.07456 0.0
C88 C 0.04512 0.76583 0.06585 0.0
C89 C 0.07653 0.76156 0.17948 0.0
O90 O 0.05107 0.73498 0.18899 0.0
O91 O 0.03382 0.69136 0.12913 0.0
O92 O 0.99571 0.67094 0.09466 0.0
O93 O 0.98744 0.81262 0.12705 0.0
O94 O 0.96615 0.75449 0.11109 0.0
C95 C 0.02041 0.66426 0.11313 0.0
C96 C 0.96186 0.7919 0.11328 0.0
O97 O 0.07234 0.7747 0.15552 0.0
Mg98 Mg 0.74098 0.93245 0.88515 0.0
O99 O 0.77887 0.98657 0.90041 0.0
O100 O 0.83852 0.965 0.90507 0.0
Mg101 Mg 0.8394 0.89996 0.89355 0.0
C102 C 0.81452 0.9923 0.90668 0.0
C103 C 0.65898 0.95004 0.87404 0.0
O104 O 0.65948 0.91188 0.87914 0.0
O105 O 0.76642 0.93733 0.84225 0.0
O106 O 0.82579 0.91652 0.84961 0.0
O107 O 0.73017 0.91596 0.92844 0.0
O108 O 0.77794 0.89443 0.90362 0.0
C109 C 0.79993 0.92922 0.83385 0.0
C110 C 0.76138 0.89664 0.92692 0.0
O111 O 0.69077 0.97046 0.87437 0.0
C112 C 0.05213 0.61299 0.5988 0.0
C113 C 0.03789 0.6417 0.61631 0.0
C114 C 0.04087 0.57307 0.60189 0.0
C115 C 0.015 0.56077 0.62254 0.0
C116 C 0.00185 0.58907 0.64073 0.0
C117 C 0.01292 0.62925 0.63753 0.0
C118 C 0.00124 0.51863 0.62509 0.0
C119 C 0.9945 0.49595 0.60297 0.0
C120 C 0.98011 0.45394 0.60387 0.0
C121 C 0.95896 0.43884 0.58162 0.0
C122 C 0.94672 0.39898 0.58062 0.0
C123 C 0.95596 0.37294 0.60167 0.0
H124 H 0.00592 0.43881 0.64247 0.0
C125 C 0.9771 0.388 0.6241 0.0
C126 C 0.98893 0.42824 0.62527 0.0
H127 H 0.98475 0.36868 0.64061 0.0
H128 H 0.07174 0.62131 0.58242 0.0
H129 H 0.05254 0.55185 0.58804 0.0
H130 H 0.9822 0.58022 0.65698 0.0
H131 H 0.00169 0.65053 0.65154 0.0
H132 H 0.99426 0.50701 0.64518 0.0
H133 H 0.99782 0.50934 0.58295 0.0
H134 H 0.95202 0.45796 0.5648 0.0
H135 H 0.9307 0.38846 0.56294 0.0
C136 C 0.61569 0.96124 0.36548 0.0
C137 C 0.62638 0.93311 0.38481 0.0
C138 C 0.5794 0.97723 0.36657 0.0
C139 C 0.55297 0.96541 0.38703 0.0
C140 C 0.56345 0.93699 0.40611 0.0
C141 C 0.59963 0.92076 0.40492 0.0
C142 C 0.51532 0.98382 0.39007 0.0
C143 C 0.49624 -0.00043 0.36919 0.0
C144 C 0.45883 0.01815 0.37285 0.0
C145 C 0.43131 0.0152 0.35201 0.0
C146 C 0.39537 0.03144 0.35526 0.0
C147 C 0.38658 0.05171 0.37924 0.0
H148 H 0.47154 0.0431 0.41269 0.0
C149 C 0.41474 0.05594 0.39969 0.0
C150 C 0.45046 0.03924 0.39657 0.0
H151 H 0.40897 0.0715 0.41836 0.0
H152 H 0.63563 0.97157 0.34979 0.0
H153 H 0.57277 -0.0002 0.35191 0.0
H154 H 0.5437 0.92757 0.42218 0.0
H155 H 0.60697 0.89934 0.42023 0.0
H156 H 0.50224 0.98306 0.41014 0.0
H157 H 0.50705 0.99685 0.34861 0.0
H158 H 0.4373 -0.00048 0.33341 0.0
H159 H 0.37443 0.02793 0.33901 0.0
C160 C 0.99749 0.36814 0.14163 0.0
C161 C 0.00053 0.34562 0.11783 0.0
C162 C 0.99887 0.40961 0.14023 0.0
C163 C 0.00249 0.42885 0.11491 0.0
C164 C 0.00331 0.4061 0.09115 0.0
C165 C 0.00296 0.36493 0.0926 0.0
C166 C 0.00538 0.47248 0.11222 0.0
C167 C 0.02484 0.49663 0.1298 0.0
C168 C 0.02974 0.54007 0.12515 0.0
C169 C 0.03362 0.56593 0.14744 0.0
C170 C 0.03376 0.60704 0.14355 0.0
C171 C 0.03 0.6227 0.11728 0.0
H172 H 0.02909 0.53742 0.08096 0.0
C173 C 0.02942 0.59698 0.09493 0.0
C174 C 0.02975 0.55617 0.09876 0.0
H175 H 0.02725 0.60838 0.07442 0.0
H176 H 0.99581 0.35379 0.16133 0.0
H177 H 0.99724 0.42648 0.15884 0.0
H178 H 0.00567 0.42029 0.07141 0.0
H179 H 0.00527 0.34812 0.07398 0.0
H180 H 0.99278 0.48465 0.09404 0.0
H181 H 0.03698 0.48448 0.14818 0.0
H182 H 0.03456 0.5543 0.16794 0.0
H183 H 0.03423 0.6263 0.16114 0.0
C184 C 0.40015 0.07653 0.87435 0.0
C185 C 0.3664 0.05301 0.86925 0.0
C186 C 0.43648 0.0617 0.87005 0.0
C187 C 0.44003 0.02291 0.86023 0.0
C188 C 0.40616 -8e-05 0.85426 0.0
C189 C 0.36976 0.01474 0.85872 0.0
C190 C 0.47792 0.00414 0.85787 0.0
C191 C 0.51263 0.02346 0.86125 0.0
C192 C 0.54984 0.00335 0.86266 0.0
C193 C 0.58463 0.02622 0.86 0.0
C194 C 0.62021 0.00902 0.86325 0.0
C195 C 0.62175 0.9685 0.86931 0.0
H196 H 0.52576 0.94401 0.87175 0.0
C197 C 0.58702 0.94553 0.87167 0.0
C198 C 0.55155 0.96269 0.86858 0.0
H199 H 0.5871 0.91427 0.87654 0.0
H200 H 0.39864 0.10616 0.88251 0.0
H201 H 0.46131 0.08059 0.87539 0.0
H202 H 0.40782 0.96993 0.84674 0.0
H203 H 0.34433 0.99585 0.85455 0.0
H204 H 0.47675 0.97262 0.85365 0.0
H205 H 0.51443 0.0554 0.86336 0.0
H206 H 0.5843 0.05766 0.85573 0.0
H207 H 0.64645 0.02755 0.86133 0.0
C208 C 0.15284 0.13129 0.40963 0.0
C209 C 0.19309 0.13807 0.409 0.0
C210 C 0.13063 0.14957 0.42909 0.0
C211 C 0.14808 0.17545 0.44835 0.0
C212 C 0.18825 0.18269 0.44755 0.0
C213 C 0.21055 0.16445 0.42791 0.0
C214 C 0.12522 0.19304 0.4704 0.0
C215 C 0.08767 0.2003 0.46736 0.0
C216 C 0.06229 0.2135 0.48955 0.0
C217 C 0.02723 0.22958 0.48239 0.0
C218 C 0.00052 0.23882 0.50226 0.0
C219 C 0.00805 0.23196 0.5299 0.0
H220 H 0.09667 0.19422 0.52362 0.0
C221 C 0.04356 0.21668 0.53722 0.0
C222 C 0.0704 0.20743 0.51725 0.0
H223 H 0.05025 0.21092 0.5583 0.0
H224 H 0.1384 0.11095 0.39551 0.0
H225 H 0.09996 0.14213 0.42952 0.0
H226 H 0.20245 0.2023 0.46224 0.0
H227 H 0.24142 0.17058 0.42788 0.0
H228 H 0.13989 0.20035 0.48936 0.0
H229 H 0.07449 0.19645 0.44745 0.0
H230 H 0.02011 0.23439 0.46125 0.0
H231 H 0.97359 0.25069 0.4958 0.0
C232 C 0.2497 0.00923 0.48042 0.0
C233 C 0.24325 0.00359 0.45244 0.0
C234 C 0.23582 0.98108 0.49924 0.0
C235 C 0.2149 0.94669 0.49055 0.0
C236 C 0.20995 0.94015 0.46258 0.0
C237 C 0.2238 0.96837 0.44369 0.0
C238 C 0.19731 0.9176 0.51014 0.0
C239 C 0.1849 0.92834 0.53487 0.0
C240 C 0.16344 0.90085 0.55365 0.0
C241 C 0.13726 0.91655 0.57192 0.0
C242 C 0.11529 0.89172 0.58924 0.0
C243 C 0.11939 0.85056 0.58893 0.0
H244 H 0.18942 0.84682 0.5407 0.0
C245 C 0.14678 0.83493 0.57144 0.0
C246 C 0.16853 0.8598 0.55388 0.0
H247 H 0.1513 0.80351 0.57111 0.0
H248 H 0.26506 0.03569 0.4879 0.0
H249 H 0.24148 0.98646 0.52058 0.0
H250 H 0.19433 0.91367 0.45533 0.0
H251 H 0.21859 0.96288 0.42229 0.0
H252 H 0.19132 0.8875 0.50304 0.0
H253 H 0.18746 0.95932 0.54077 0.0
H254 H 0.13309 0.94811 0.57238 0.0
H255 H 0.09471 0.90483 0.60262 0.0
C256 C 0.8616 0.87186 0.40605 0.0
C257 C 0.82506 0.85546 0.39878 0.0
C258 C 0.88382 0.85346 0.42546 0.0
C259 C 0.87023 0.81795 0.43776 0.0
C260 C 0.8347 0.8003 0.42951 0.0
C261 C 0.81197 0.81922 0.41042 0.0
C262 C 0.8929 0.79969 0.45947 0.0
C263 C 0.90884 0.82193 0.47957 0.0
C264 C 0.9338 0.80614 0.50097 0.0
C265 C 0.93417 0.82379 0.52675 0.0
C266 C 0.96012 0.81236 0.54661 0.0
C267 C 0.98697 0.78379 0.54079 0.0
H268 H 0.96061 0.76297 0.47549 0.0
C269 C 0.98624 0.76568 0.51507 0.0
C270 C 0.95969 0.77653 0.49539 0.0
H271 H 0.00657 0.74354 0.51002 0.0
H272 H 0.87255 0.89975 0.39748 0.0
H273 H 0.91155 0.86722 0.43106 0.0
H274 H 0.82392 0.77269 0.43858 0.0
H275 H 0.784 0.80584 0.40508 0.0
H276 H 0.89518 0.76775 0.45951 0.0
H277 H 0.90285 0.85318 0.48069 0.0
H278 H 0.91468 0.8469 0.53142 0.0
H279 H 0.9601 0.82701 0.56618 0.0
C280 C 0.7866 0.01129 0.44904 0.0
C281 C 0.77331 0.97223 0.45492 0.0
C282 C 0.79976 0.0367 0.46982 0.0
C283 C 0.79976 0.0236 0.49699 0.0
C284 C 0.78624 0.98471 0.50284 0.0
C285 C 0.77297 0.95937 0.48211 0.0
C286 C 0.81616 0.04851 0.51943 0.0
C287 C 0.81918 0.08839 0.51861 0.0
C288 C 0.8387 0.11281 0.54014 0.0
C289 C 0.82951 0.15256 0.54308 0.0
C290 C 0.84926 0.17714 0.56181 0.0
C291 C 0.87903 0.16257 0.57774 0.0
H292 H 0.87681 0.06795 0.55435 0.0
C293 C 0.88776 0.12261 0.57516 0.0
C294 C 0.86798 0.09803 0.55651 0.0
H295 H 0.91071 0.11049 0.58698 0.0
H296 H 0.78746 0.02214 0.42832 0.0
H297 H 0.81099 0.06606 0.46432 0.0
H298 H 0.78624 0.97372 0.52354 0.0
H299 H 0.76306 0.92945 0.48742 0.0
H300 H 0.82547 0.03315 0.53749 0.0
H301 H 0.80648 0.104 0.50181 0.0
H302 H 0.8072 0.16475 0.53066 0.0
H303 H 0.84151 0.20765 0.56351 0.0
C304 C 0.80616 0.05025 0.93751 0.0
C305 C 0.82862 0.0304 0.91864 0.0
C306 C 0.82266 0.08156 0.95296 0.0
C307 C 0.86171 0.09382 0.94942 0.0
C308 C 0.88308 0.0759 0.92906 0.0
C309 C 0.86691 0.04418 0.9141 0.0
C310 C 0.882 0.12342 0.96738 0.0
C311 C 0.87456 0.12597 0.99422 0.0
C312 C 0.89959 0.14878 0.01404 0.0
C313 C 0.88622 0.15315 0.04078 0.0
C314 C 0.91006 0.17057 0.06085 0.0
C315 C 0.94807 0.18398 0.0547 0.0
H316 H 0.94957 0.15999 0.98775 0.0
C317 C 0.96114 0.18066 0.0278 0.0
C318 C 0.93735 0.16321 0.00775 0.0
H319 H 0.99024 0.19055 0.02227 0.0
H320 H 0.77659 0.0401 0.94146 0.0
H321 H 0.8051 0.09549 0.96802 0.0
H322 H 0.91308 0.08502 0.92572 0.0
H323 H 0.88481 0.0295 0.89959 0.0
H324 H 0.90629 0.14024 0.95857 0.0
H325 H 0.85029 0.10841 0.00258 0.0
H326 H 0.85742 0.14222 0.04636 0.0
H327 H 0.89893 0.17265 0.08134 0.0
C328 C 0.17806 0.1055 0.97572 0.0
C329 C 0.21491 0.09164 0.97101 0.0
C330 C 0.16248 0.10499 0.0018 0.0
C331 C 0.18368 0.09123 0.0239 0.0
C332 C 0.22102 0.07864 0.01949 0.0
C333 C 0.23637 0.07835 0.99319 0.0
C334 C 0.16824 0.09363 0.05183 0.0
C335 C 0.13044 0.08688 0.05707 0.0
C336 C 0.11129 0.10127 0.08182 0.0
C337 C 0.07415 0.08571 0.0884 0.0
C338 C 0.05144 0.10486 0.10728 0.0
C339 C 0.06539 0.1403 0.1194 0.0
H340 H 0.15443 0.14829 0.09108 0.0
C341 C 0.10346 0.15421 0.11437 0.0
C342 C 0.12631 0.13484 0.09586 0.0
H343 H 0.11481 0.18153 0.12352 0.0
H344 H 0.16117 0.11708 0.95936 0.0
H345 H 0.13421 0.11649 0.00473 0.0
H346 H 0.23818 0.06873 0.03634 0.0
H347 H 0.26501 0.06776 0.99027 0.0
H348 H 0.188 0.10336 0.06786 0.0
H349 H 0.11193 0.07356 0.04138 0.0
H350 H 0.06183 0.06006 0.07772 0.0
H351 H 0.02203 0.09373 0.11068 0.0
C352 C 0.06959 0.77441 0.0181 0.0
C353 C 0.07323 0.78339 0.04592 0.0
C354 C 0.09324 0.79408 0.99887 0.0
C355 C 0.12083 0.82369 0.00698 0.0
C356 C 0.126 0.83093 0.03489 0.0
C357 C 0.10249 0.81107 0.05416 0.0
C358 C 0.14307 0.84921 0.98711 0.0
C359 C 0.13057 0.85615 0.96165 0.0
C360 C 0.14685 0.88914 0.94446 0.0
C361 C 0.12169 0.90864 0.92728 0.0
C362 C 0.13375 0.94384 0.91429 0.0
C363 C 0.17157 0.95978 0.91765 0.0
H364 H 0.20608 0.8884 0.95862 0.0
C365 C 0.19791 0.93838 0.93272 0.0
C366 C 0.18561 0.90339 0.94619 0.0
H367 H 0.22721 0.95013 0.93574 0.0
H368 H 0.04788 0.75267 0.01105 0.0
H369 H 0.08929 0.7863 0.97772 0.0
H370 H 0.1473 0.85321 0.04181 0.0
H371 H 0.10634 0.81855 0.07542 0.0
H372 H 0.16775 0.86668 0.99489 0.0
H373 H 0.104 0.84136 0.95456 0.0
H374 H 0.09183 0.89808 0.92529 0.0
H375 H 0.11289 0.95972 0.90273 0.0
C376 C 0.77199 0.89568 0.97726 0.0
C377 C 0.77976 0.88079 0.9513 0.0
C378 C 0.79145 0.88188 2e-05 0.0
C379 C 0.81855 0.85261 0.99708 0.0
C380 C 0.82534 0.83702 0.97124 0.0
C381 C 0.80648 0.85125 0.94853 0.0
C382 C 0.83985 0.83689 0.02041 0.0
C383 C 0.85081 0.85872 0.04219 0.0
C384 C 0.87616 0.8426 0.06329 0.0
C385 C 0.90515 0.86726 0.07528 0.0
C386 C 0.93249 0.85125 0.0925 0.0
C387 C 0.93095 0.8104 0.09801 0.0
H388 H 0.8502 0.7828 0.06239 0.0
C389 C 0.90034 0.78638 0.08749 0.0
C390 C 0.87313 0.8023 0.07043 0.0
H391 H 0.8978 0.75496 0.09197 0.0
H392 H 0.75148 0.91849 0.97991 0.0
H393 H 0.785 0.89381 0.01981 0.0
H394 H 0.84585 0.8142 0.96852 0.0
H395 H 0.8128 0.83904 0.92877 0.0
H396 H 0.84994 0.80711 0.01828 0.0
H397 H 0.84451 0.88985 0.04315 0.0
H398 H 0.90772 0.89852 0.07032 0.0
H399 H 0.9556 0.87051 0.10057 0.0
C400 C 0.06056 0.20166 0.67895 0.0
C401 C 0.03559 0.23199 0.68504 0.0
C402 C 0.08297 0.18526 0.69939 0.0
C403 C 0.08094 0.19913 0.72629 0.0
C404 C 0.05755 0.23084 0.73192 0.0
C405 C 0.03523 0.24713 0.71158 0.0
C406 C 0.09915 0.17916 0.74961 0.0
C407 C 0.12729 0.15314 0.74782 0.0
C408 C 0.14085 0.13244 0.77244 0.0
C409 C 0.18022 0.1263 0.77623 0.0
C410 C 0.19333 0.11067 0.80083 0.0
C411 C 0.16708 0.10063 0.82183 0.0
H412 H 0.08381 0.12241 0.78991 0.0
C413 C 0.12746 0.104 0.81701 0.0
C414 C 0.11452 0.11961 0.79265 0.0
H415 H 0.10631 0.09579 0.83246 0.0
H416 H 0.06146 0.18926 0.65869 0.0
H417 H 0.1002 0.16058 0.69422 0.0
H418 H 0.05543 0.24221 0.75241 0.0
H419 H 0.01652 0.2706 0.71698 0.0
H420 H 0.08831 0.18622 0.76967 0.0
H421 H 0.14149 0.148 0.7286 0.0
H422 H 0.201 0.13531 0.76072 0.0
H423 H 0.22402 0.10826 0.80385 0.0
C424 C 0.10823 0.76877 0.22507 0.0
C425 C 0.10588 0.78053 0.19775 0.0
C426 C 0.13176 0.79049 0.24333 0.0
C427 C 0.15319 0.82467 0.23464 0.0
C428 C 0.15296 0.83462 0.20695 0.0
C429 C 0.1295 0.8129 0.18869 0.0
C430 C 0.1743 0.85187 0.25389 0.0
C431 C 0.16374 0.85573 0.28009 0.0
C432 C 0.17923 0.88788 0.29828 0.0
C433 C 0.15705 0.89809 0.32083 0.0
C434 C 0.16871 0.92996 0.33742 0.0
C435 C 0.20304 0.9523 0.33194 0.0
H436 H 0.23316 0.90154 0.27688 0.0
C437 C 0.22616 0.94117 0.31006 0.0
C438 C 0.21449 0.9092 0.29344 0.0
H439 H 0.25306 0.95745 0.30552 0.0
H440 H 0.09092 0.74355 0.23262 0.0
H441 H 0.13242 0.78078 0.26428 0.0
H442 H 0.16962 0.86043 0.19959 0.0
H443 H 0.12872 0.82252 0.1677 0.0
H444 H 0.19599 0.87243 0.24526 0.0
H445 H 0.13978 0.83724 0.28792 0.0
H446 H 0.12997 0.88202 0.32525 0.0
H447 H 0.15037 0.93748 0.35425 0.0
C448 C 0.92036 0.80351 0.68063 0.0
C449 C 0.93581 0.82883 0.66028 0.0
C450 C 0.89162 0.81619 0.69803 0.0
C451 C 0.87822 0.85458 0.69571 0.0
C452 C 0.89214 0.87911 0.67443 0.0
C453 C 0.92059 0.86632 0.65688 0.0
C454 C 0.85174 0.86891 0.71682 0.0
C455 C 0.854 0.90661 0.7258 0.0
C456 C 0.83595 0.91811 0.75169 0.0
C457 C 0.79913 0.90306 0.75961 0.0
C458 C 0.78558 0.90983 0.78593 0.0
C459 C 0.80904 0.93098 0.80469 0.0
H460 H 0.88613 0.95423 0.76406 0.0
C461 C 0.84474 0.94795 0.79623 0.0
C462 C 0.85777 0.94215 0.76978 0.0
H463 H 0.86332 0.96423 0.81046 0.0
H464 H 0.93116 0.7743 0.6836 0.0
H465 H 0.88109 0.79658 0.71412 0.0
H466 H 0.88161 0.90845 0.67159 0.0
H467 H 0.9315 0.8864 0.64119 0.0
H468 H 0.83417 0.84681 0.72793 0.0
H469 H 0.8747 0.92784 0.71667 0.0
H470 H 0.78146 0.88496 0.74584 0.0
H471 H 0.75808 0.89619 0.79216 0.0
C472 C 0.73451 0.05616 0.29261 0.0
C473 C 0.75417 0.04279 0.31557 0.0
C474 C 0.74783 0.09051 0.2789 0.0
C475 C 0.78129 0.11199 0.28784 0.0
C476 C 0.7993 0.09992 0.31179 0.0
C477 C 0.78603 0.0657 0.32544 0.0
C478 C 0.80014 0.14527 0.27212 0.0
C479 C 0.79542 0.15023 0.24514 0.0
C480 C 0.82252 0.17547 0.22833 0.0
C481 C 0.82776 0.16505 0.20103 0.0
C482 C 0.85767 0.18303 0.18575 0.0
C483 C 0.88293 0.21204 0.19743 0.0
H484 H 0.84134 0.21731 0.2598 0.0
C485 C 0.87556 0.22507 0.22395 0.0
C486 C 0.84553 0.20711 0.23924 0.0
H487 H 0.89402 0.24793 0.23336 0.0
H488 H 0.70947 0.03953 0.28475 0.0
H489 H 0.73217 0.09954 0.26114 0.0
H490 H 0.82483 0.11606 0.31938 0.0
H491 H 0.80157 0.05657 0.34329 0.0
H492 H 0.8227 0.16268 0.28254 0.0
H493 H 0.77488 0.1309 0.23425 0.0
H494 H 0.8101 0.14125 0.19193 0.0
H495 H 0.86214 0.17268 0.16522 0.0
loop_
_geom_bond_atom_site_label_1
_geom_bond_atom_site_label_2
_geom_bond_distance
_geom_bond_site_symmetry_2
_ccdc_geom_bond_type
Mg0 O1 2.028 . S
Mg0 O7 1.986 . S
Mg0 O9 2.114 1_455 S
Mg0 O10 2.251 1_455 S
Mg0 O13 2.010 . S
O1 Mg0 2.028 . S
O1 C4 1.250 . S
O2 Mg3 2.028 . S
O2 C4 1.248 . S
Mg3 O2 2.028 . S
Mg3 O8 2.032 . S
Mg3 O10 2.079 1_455 S
C4 O1 1.250 . S
C4 O2 1.248 . S
C5 O6 1.264 . S
C5 O13 1.249 . S
O6 C5 1.264 . S
O7 Mg0 1.986 . S
O7 C11 1.246 . S
O8 Mg3 2.032 . S
O8 C11 1.259 . S
O9 Mg0 2.114 1_655 S
O9 C12 1.252 . S
O10 Mg0 2.251 1_655 S
O10 Mg3 2.079 1_655 S
O10 C12 1.273 . S
C11 O7 1.246 . S
C11 O8 1.259 . S
C12 O9 1.252 . S
C12 O10 1.273 . S
O13 Mg0 2.010 . S
O13 C5 1.249 . S
Mg14 O15 2.041 . S
Mg14 O21 1.991 . S
Mg14 O23 2.104 1_565 S
Mg14 O24 2.243 1_565 S
Mg14 O27 2.014 . S
O15 Mg14 2.041 . S
O15 C18 1.250 . S
O16 Mg17 2.028 1_565 S
O16 C18 1.248 . S
Mg17 O16 2.028 1_545 S
Mg17 O22 2.032 1_545 S
Mg17 O24 2.079 . S
C18 O15 1.250 . S
C18 O16 1.248 . S
C19 O20 1.264 . S
C19 O27 1.249 . S
O20 C19 1.264 . S
O21 Mg14 1.991 . S
O21 C25 1.246 . S
O22 Mg17 2.032 1_565 S
O22 C25 1.259 . S
O23 Mg14 2.104 1_545 S
O23 C26 1.252 . S
O24 Mg14 2.243 1_545 S
O24 Mg17 2.079 . S
O24 C26 1.273 . S
C25 O21 1.246 . S
C25 O22 1.259 . S
C26 O23 1.252 . S
C26 O24 1.273 . S
O27 Mg14 2.014 . S
O27 C19 1.249 . S
Mg28 O29 2.028 . S
Mg28 O35 1.986 . S
Mg28 O37 2.114 1_655 S
Mg28 O38 2.251 1_655 S
Mg28 O41 2.010 . S
O29 Mg28 2.028 . S
O29 C32 1.250 . S
O30 Mg31 2.028 . S
O30 C32 1.248 . S
Mg31 O30 2.028 . S
Mg31 O36 2.032 . S
Mg31 O38 2.079 1_655 S
C32 O29 1.250 . S
C32 O30 1.248 . S
C33 O34 1.264 . S
C33 O41 1.249 . S
O34 C33 1.264 . S
O35 Mg28 1.986 . S
O35 C39 1.246 . S
O36 Mg31 2.032 . S
O36 C39 1.259 . S
O37 Mg28 2.114 1_455 S
O37 C40 1.252 . S
O38 Mg28 2.251 1_455 S
O38 Mg31 2.079 1_455 S
O38 C40 1.273 . S
C39 O35 1.246 . S
C39 O36 1.259 . S
C40 O37 1.252 . S
C40 O38 1.273 . S
O41 Mg28 2.010 . S
O41 C33 1.249 . S
Mg42 O43 2.041 . S
Mg42 O49 1.991 . S
Mg42 O51 2.104 1_545 S
Mg42 O52 2.243 1_545 S
Mg42 O55 2.014 . S
O43 Mg42 2.041 . S
O43 C46 1.250 . S
O44 Mg45 2.028 1_545 S
O44 C46 1.248 . S
Mg45 O44 2.028 1_565 S
Mg45 O50 2.032 1_565 S
Mg45 O52 2.079 . S
C46 O43 1.250 . S
C46 O44 1.248 . S
C47 O48 1.264 . S
C47 O55 1.249 . S
O48 C47 1.264 . S
O49 Mg42 1.991 . S
O49 C53 1.246 . S
O50 Mg45 2.032 1_545 S
O50 C53 1.259 . S
O51 Mg42 2.104 1_565 S
O51 C54 1.252 . S
O52 Mg42 2.243 1_565 S
O52 Mg45 2.079 . S
O52 C54 1.273 . S
C53 O49 1.246 . S
C53 O50 1.259 . S
C54 O51 1.252 . S
C54 O52 1.273 . S
O55 Mg42 2.014 . S
O55 C47 1.249 . S
Mg56 O57 2.028 . S
Mg56 O63 1.986 . S
Mg56 O65 2.114 1_655 S
Mg56 O66 2.251 1_655 S
Mg56 O69 2.010 . S
O57 Mg56 2.028 . S
O57 C60 1.250 . S
O58 Mg59 2.028 . S
O58 C60 1.248 . S
Mg59 O58 2.028 . S
Mg59 O64 2.032 . S
Mg59 O66 2.079 1_655 S
C60 O57 1.250 . S
C60 O58 1.248 . S
C61 O62 1.264 . S
C61 O69 1.249 . S
O62 C61 1.264 . S
O63 Mg56 1.986 . S
O63 C67 1.246 . S
O64 Mg59 2.032 . S
O64 C67 1.259 . S
O65 Mg56 2.114 1_455 S
O65 C68 1.252 . S
O66 Mg56 2.251 1_455 S
O66 Mg59 2.079 1_455 S
O66 C68 1.273 . S
C67 O63 1.246 . S
C67 O64 1.259 . S
C68 O65 1.252 . S
C68 O66 1.273 . S
O69 Mg56 2.010 . S
O69 C61 1.249 . S
Mg70 O71 2.028 1_545 S
Mg70 O77 1.986 . S
Mg70 O79 2.114 . S
Mg70 O80 2.251 . S
Mg70 O83 2.010 . S
O71 Mg70 2.028 1_565 S
O71 C74 1.250 . S
O72 Mg73 2.028 1_565 S
O72 C74 1.248 . S
Mg73 O72 2.028 1_545 S
Mg73 O78 2.032 . S
Mg73 O80 2.079 . S
C74 O71 1.250 . S
C74 O72 1.248 . S
C75 O76 1.264 . S
C75 O83 1.249 . S
O76 C75 1.264 . S
O77 Mg70 1.986 . S
O77 C81 1.246 . S
O78 Mg73 2.032 . S
O78 C81 1.259 . S
O79 Mg70 2.114 . S
O79 C82 1.252 . S
O80 Mg70 2.251 . S
O80 Mg73 2.079 . S
O80 C82 1.273 . S
C81 O77 1.246 . S
C81 O78 1.259 . S
C82 O79 1.252 . S
C82 O80 1.273 . S
O83 Mg70 2.010 . S
O83 C75 1.249 . S
Mg84 O85 2.028 . S
Mg84 O91 1.986 . S
Mg84 O93 2.114 1_455 S
Mg84 O94 2.251 1_455 S
Mg84 O97 2.010 . S
O85 Mg84 2.028 . S
O85 C88 1.250 . S
O86 Mg87 2.028 . S
O86 C88 1.248 . S
Mg87 O86 2.028 . S
Mg87 O92 2.032 . S
Mg87 O94 2.079 1_455 S
C88 O85 1.250 . S
C88 O86 1.248 . S
C89 O90 1.264 . S
C89 O97 1.249 . S
O90 C89 1.264 . S
O91 Mg84 1.986 . S
O91 C95 1.246 . S
O92 Mg87 2.032 . S
O92 C95 1.259 . S
O93 Mg84 2.114 1_655 S
O93 C96 1.252 . S
O94 Mg84 2.251 1_655 S
O94 Mg87 2.079 1_655 S
O94 C96 1.273 . S
C95 O91 1.246 . S
C95 O92 1.259 . S
C96 O93 1.252 . S
C96 O94 1.273 . S
O97 Mg84 2.010 . S
O97 C89 1.249 . S
Mg98 O99 2.028 1_565 S
Mg98 O105 1.986 . S
Mg98 O107 2.114 . S
Mg98 O108 2.251 . S
Mg98 O111 2.010 . S
O99 Mg98 2.028 1_545 S
O99 C102 1.250 . S
O100 Mg101 2.028 1_545 S
O100 C102 1.248 . S
Mg101 O100 2.028 1_565 S
Mg101 O106 2.032 . S
Mg101 O108 2.079 . S
C102 O99 1.250 . S
C102 O100 1.248 . S
C103 O104 1.264 . S
C103 O111 1.249 . S
O104 C103 1.264 . S
O105 Mg98 1.986 . S
O105 C109 1.246 . S
O106 Mg101 2.032 . S
O106 C109 1.259 . S
O107 Mg98 2.114 . S
O107 C110 1.252 . S
O108 Mg98 2.251 . S
O108 Mg101 2.079 . S
O108 C110 1.273 . S
C109 O105 1.246 . S
C109 O106 1.259 . S
C110 O107 1.252 . S
C110 O108 1.273 . S
O111 Mg98 2.010 . S
O111 C103 1.249 . S
C112 C113 1.386 1_455 S
C112 C114 1.383 . S
C112 H128 0.951 . S
C113 C112 1.386 1_655 S
C113 C117 1.383 . S
C114 C112 1.383 . S
C114 C115 1.402 1_455 S
C114 H129 0.951 . S
C115 C114 1.402 1_655 S
C115 C116 1.375 . S
C115 C118 1.481 . S
C116 C115 1.375 . S
C116 C117 1.367 . S
C116 H130 0.951 . S
C117 C113 1.383 . S
C117 C116 1.367 . S
C117 H131 0.950 . S
C118 C115 1.481 . S
C118 C119 1.297 1_655 S
C118 H132 0.950 . S
C119 C118 1.297 1_455 S
C119 C120 1.479 . S
C119 H133 0.950 . S
C120 C119 1.479 . S
C120 C121 1.375 . S
C120 C126 1.404 1_455 S
C121 C120 1.375 . S
C121 C122 1.369 . S
C121 H134 0.950 . S
C122 C121 1.369 . S
C122 C123 1.392 . S
C122 H135 0.951 . S
C123 C122 1.392 . S
C123 C125 1.384 1_455 S
H124 C126 0.949 . S
C125 C123 1.384 1_655 S
C125 C126 1.385 . S
C125 H127 0.950 . S
C126 C120 1.404 1_655 S
C126 H124 0.949 . S
C126 C125 1.385 . S
H127 C125 0.950 . S
H128 C112 0.951 . S
H129 C114 0.951 . S
H130 C116 0.951 . S
H131 C117 0.950 . S
H132 C118 0.950 . S
H133 C119 0.950 . S
H134 C121 0.950 . S
H135 C122 0.951 . S
C136 C137 1.386 . S
C136 C138 1.383 . S
C136 H152 0.951 . S
C137 C136 1.386 . S
C137 C141 1.383 1_545 S
C138 C136 1.383 . S
C138 C139 1.402 1_545 S
C138 H153 0.951 . S
C139 C138 1.402 1_565 S
C139 C140 1.375 . S
C139 C142 1.481 . S
C140 C139 1.375 . S
C140 C141 1.367 . S
C140 H154 0.951 . S
C141 C137 1.383 1_565 S
C141 C140 1.367 . S
C141 H155 0.950 . S
C142 C139 1.481 . S
C142 C143 1.297 . S
C142 H156 0.950 . S
C143 C142 1.297 . S
C143 C144 1.479 . S
C143 H157 0.950 . S
C144 C143 1.479 . S
C144 C145 1.375 . S
C144 C150 1.404 . S
C145 C144 1.375 . S
C145 C146 1.369 . S
C145 H158 0.945 1_565 S
C146 C145 1.369 . S
C146 C147 1.392 . S
C146 H159 0.951 1_565 S
C147 C146 1.392 . S
C147 C149 1.384 . S
H148 C150 0.949 . S
C149 C147 1.384 . S
C149 C150 1.385 . S
C149 H151 0.950 . S
C150 C144 1.404 . S
C150 H148 0.949 . S
C150 C149 1.385 . S
H151 C149 0.950 . S
H152 C136 0.951 . S
H153 C138 0.951 . S
H154 C140 0.951 . S
H155 C141 0.950 . S
H156 C142 0.950 . S
H157 C143 0.950 . S
H158 C145 0.945 1_545 S
H159 C146 0.951 1_545 S
C160 C161 1.386 . S
C160 C162 1.387 . S
C160 H176 0.951 . S
C161 C160 1.386 . S
C161 C165 1.383 . S
C162 C160 1.387 . S
C162 C163 1.406 . S
C162 H177 0.942 1_655 S
C163 C162 1.406 . S
C163 C164 1.375 . S
C163 C166 1.481 1_655 S
C164 C163 1.375 . S
C164 C165 1.367 . S
C164 H178 0.951 . S
C165 C161 1.383 . S
C165 C164 1.367 . S
C165 H179 0.950 . S
C166 C163 1.481 1_455 S
C166 C167 1.297 . S
C166 H180 0.950 1_455 S
C167 C166 1.297 . S
C167 C168 1.479 . S
C167 H181 0.950 . S
C168 C167 1.479 . S
C168 C169 1.375 . S
C168 C174 1.404 . S
C169 C168 1.375 . S
C169 C170 1.369 . S
C169 H182 0.950 . S
C170 C169 1.369 . S
C170 C171 1.392 . S
C170 H183 0.951 . S
C171 C170 1.392 . S
C171 C173 1.384 . S
H172 C174 0.949 . S
C173 C171 1.384 . S
C173 C174 1.385 . S
C173 H175 0.950 . S
C174 C168 1.404 . S
C174 H172 0.949 . S
C174 C173 1.385 . S
H175 C173 0.950 . S
H176 C160 0.951 . S
H177 C162 0.942 1_455 S
H178 C164 0.951 . S
H179 C165 0.950 . S
H180 C166 0.950 1_655 S
H181 C167 0.950 . S
H182 C169 0.950 . S
H183 C170 0.951 . S
C184 C185 1.386 . S
C184 C186 1.383 . S
C184 H200 0.951 . S
C185 C184 1.386 . S
C185 C189 1.383 . S
C186 C184 1.383 . S
C186 C187 1.402 . S
C186 H201 0.951 . S
C187 C186 1.402 . S
C187 C188 1.375 1_545 S
C187 C190 1.481 . S
C188 C187 1.375 1_565 S
C188 C189 1.367 1_565 S
C188 H202 0.951 . S
C189 C185 1.383 . S
C189 C188 1.367 1_545 S
C189 H203 0.950 1_545 S
C190 C187 1.481 . S
C190 C191 1.297 . S
C190 H204 0.950 1_545 S
C191 C190 1.297 . S
C191 C192 1.479 . S
C191 H205 0.950 . S
C192 C191 1.479 . S
C192 C193 1.375 . S
C192 C198 1.404 1_545 S
C193 C192 1.375 . S
C193 C194 1.369 . S
C193 H206 0.950 . S
C194 C193 1.369 . S
C194 C195 1.392 1_545 S
C194 H207 0.951 . S
C195 C194 1.392 1_565 S
C195 C197 1.384 . S
H196 C198 0.949 . S
C197 C195 1.384 . S
C197 C198 1.385 . S
C197 H199 0.950 . S
C198 C192 1.404 1_565 S
C198 H196 0.949 . S
C198 C197 1.385 . S
H199 C197 0.950 . S
H200 C184 0.951 . S
H201 C186 0.951 . S
H202 C188 0.951 . S
H203 C189 0.950 1_565 S
H204 C190 0.950 1_565 S
H205 C191 0.950 . S
H206 C193 0.950 . S
H207 C194 0.951 . S
C208 C209 1.386 . S
C208 C210 1.383 . S
C208 H224 0.951 . S
C209 C208 1.386 . S
C209 C213 1.383 . S
C210 C208 1.383 . S
C210 C211 1.402 . S
C210 H225 0.951 . S
C211 C210 1.402 . S
C211 C212 1.375 . S
C211 C214 1.481 . S
C212 C211 1.375 . S
C212 C213 1.367 . S
C212 H226 0.951 . S
C213 C209 1.383 . S
C213 C212 1.367 . S
C213 H227 0.950 . S
C214 C211 1.481 . S
C214 C215 1.297 . S
C214 H228 0.950 . S
C215 C214 1.297 . S
C215 C216 1.479 . S
C215 H229 0.950 . S
C216 C215 1.479 . S
C216 C217 1.375 . S
C216 C222 1.404 . S
C217 C216 1.375 . S
C217 C218 1.369 . S
C217 H230 0.950 . S
C218 C217 1.369 . S
C218 C219 1.392 . S
C218 H231 0.951 . S
C219 C218 1.392 . S
C219 C221 1.384 . S
H220 C222 0.949 . S
C221 C219 1.384 . S
C221 C222 1.385 . S
C221 H223 0.950 . S
C222 C216 1.404 . S
C222 H220 0.949 . S
C222 C221 1.385 . S
H223 C221 0.950 . S
H224 C208 0.951 . S
H225 C210 0.951 . S
H226 C212 0.951 . S
H227 C213 0.950 . S
H228 C214 0.950 . S
H229 C215 0.950 . S
H230 C217 0.950 . S
H231 C218 0.951 . S
C232 C233 1.386 . S
C232 C234 1.383 . S
C232 H248 0.951 . S
C233 C232 1.386 . S
C233 C237 1.383 . S
C234 C232 1.383 . S
C234 C235 1.402 . S
C234 H249 0.951 . S
C235 C234 1.402 . S
C235 C236 1.375 . S
C235 C238 1.481 . S
C236 C235 1.375 . S
C236 C237 1.367 . S
C236 H250 0.951 . S
C237 C233 1.383 . S
C237 C236 1.367 . S
C237 H251 0.950 . S
C238 C235 1.481 . S
C238 C239 1.297 . S
C238 H252 0.950 . S
C239 C238 1.297 . S
C239 C240 1.479 . S
C239 H253 0.950 . S
C240 C239 1.479 . S
C240 C241 1.375 . S
C240 C246 1.404 . S
C241 C240 1.375 . S
C241 C242 1.369 . S
C241 H254 0.950 . S
C242 C241 1.369 . S
C242 C243 1.392 . S
C242 H255 0.951 . S
C243 C242 1.392 . S
C243 C245 1.384 . S
H244 C246 0.949 . S
C245 C243 1.384 . S
C245 C246 1.385 . S
C245 H247 0.950 . S
C246 C240 1.404 . S
C246 H244 0.949 . S
C246 C245 1.385 . S
H247 C245 0.950 . S
H248 C232 0.951 . S
H249 C234 0.951 . S
H250 C236 0.951 . S
H251 C237 0.950 . S
H252 C238 0.950 . S
H253 C239 0.950 . S
H254 C241 0.950 . S
H255 C242 0.951 . S
C256 C257 1.386 . S
C256 C258 1.383 . S
C256 H272 0.951 . S
C257 C256 1.386 . S
C257 C261 1.383 . S
C258 C256 1.383 . S
C258 C259 1.402 . S
C258 H273 0.951 . S
C259 C258 1.402 . S
C259 C260 1.375 . S
C259 C262 1.481 . S
C260 C259 1.375 . S
C260 C261 1.367 . S
C260 H274 0.951 . S
C261 C257 1.383 . S
C261 C260 1.367 . S
C261 H275 0.950 . S
C262 C259 1.481 . S
C262 C263 1.297 . S
C262 H276 0.950 . S
C263 C262 1.297 . S
C263 C264 1.479 . S
C263 H277 0.950 . S
C264 C263 1.479 . S
C264 C265 1.375 . S
C264 C270 1.404 . S
C265 C264 1.375 . S
C265 C266 1.369 . S
C265 H278 0.950 . S
C266 C265 1.369 . S
C266 C267 1.392 . S
C266 H279 0.951 . S
C267 C266 1.392 . S
C267 C269 1.384 . S
H268 C270 0.949 . S
C269 C267 1.384 . S
C269 C270 1.385 . S
C269 H271 0.950 . S
C270 C264 1.404 . S
C270 H268 0.949 . S
C270 C269 1.385 . S
H271 C269 0.950 . S
H272 C256 0.951 . S
H273 C258 0.951 . S
H274 C260 0.951 . S
H275 C261 0.950 . S
H276 C262 0.950 . S
H277 C263 0.950 . S
H278 C265 0.950 . S
H279 C266 0.951 . S
C280 C281 1.386 . S
C280 C282 1.383 . S
C280 H296 0.951 . S
C281 C280 1.386 . S
C281 C285 1.383 . S
C282 C280 1.383 . S
C282 C283 1.402 . S
C282 H297 0.951 . S
C283 C282 1.402 . S
C283 C284 1.375 . S
C283 C286 1.481 . S
C284 C283 1.375 . S
C284 C285 1.367 . S
C284 H298 0.951 . S
C285 C281 1.383 . S
C285 C284 1.367 . S
C285 H299 0.950 . S
C286 C283 1.481 . S
C286 C287 1.297 . S
C286 H300 0.950 . S
C287 C286 1.297 . S
C287 C288 1.479 . S
C287 H301 0.950 . S
C288 C287 1.479 . S
C288 C289 1.375 . S
C288 C294 1.404 . S
C289 C288 1.375 . S
C289 C290 1.369 . S
C289 H302 0.950 . S
C290 C289 1.369 . S
C290 C291 1.392 . S
C290 H303 0.951 . S
C291 C290 1.392 . S
C291 C293 1.384 . S
H292 C294 0.949 . S
C293 C291 1.384 . S
C293 C294 1.385 . S
C293 H295 0.950 . S
C294 C288 1.404 . S
C294 H292 0.949 . S
C294 C293 1.385 . S
H295 C293 0.950 . S
H296 C280 0.951 . S
H297 C282 0.951 . S
H298 C284 0.951 . S
H299 C285 0.950 . S
H300 C286 0.950 . S
H301 C287 0.950 . S
H302 C289 0.950 . S
H303 C290 0.951 . S
C304 C305 1.386 . S
C304 C306 1.383 . S
C304 H320 0.951 . S
C305 C304 1.386 . S
C305 C309 1.383 . S
C306 C304 1.383 . S
C306 C307 1.402 . S
C306 H321 0.951 . S
C307 C306 1.402 . S
C307 C308 1.375 . S
C307 C310 1.481 . S
C308 C307 1.375 . S
C308 C309 1.367 . S
C308 H322 0.951 . S
C309 C305 1.383 . S
C309 C308 1.367 . S
C309 H323 0.950 . S
C310 C307 1.481 . S
C310 C311 1.297 . S
C310 H324 0.950 . S
C311 C310 1.297 . S
C311 C312 1.479 1_556 S
C311 H325 0.950 1_556 S
C312 C311 1.479 1_554 S
C312 C313 1.375 . S
C312 C318 1.404 . S
C313 C312 1.375 . S
C313 C314 1.369 . S
C313 H326 0.950 . S
C314 C313 1.369 . S
C314 C315 1.392 . S
C314 H327 0.951 . S
C315 C314 1.392 . S
C315 C317 1.384 . S
H316 C318 0.949 1_556 S
C317 C315 1.384 . S
C317 C318 1.385 . S
C317 H319 0.950 . S
C318 C312 1.404 . S
C318 H316 0.949 1_554 S
C318 C317 1.385 . S
H319 C317 0.950 . S
H320 C304 0.951 . S
H321 C306 0.951 . S
H322 C308 0.951 . S
H323 C309 0.950 . S
H324 C310 0.950 . S
H325 C311 0.950 1_554 S
H326 C313 0.950 . S
H327 C314 0.951 . S
C328 C329 1.386 . S
C328 C330 1.383 . S
C328 H344 0.951 . S
C329 C328 1.386 . S
C329 C333 1.383 . S
C330 C328 1.383 . S
C330 C331 1.402 . S
C330 H345 0.951 . S
C331 C330 1.402 . S
C331 C332 1.375 . S
C331 C334 1.481 1_556 S
C332 C331 1.375 . S
C332 C333 1.367 . S
C332 H346 0.951 1_556 S
C333 C329 1.383 . S
C333 C332 1.367 . S
C333 H347 0.950 . S
C334 C331 1.481 1_554 S
C334 C335 1.297 . S
C334 H348 0.950 . S
C335 C334 1.297 . S
C335 C336 1.479 . S
C335 H349 0.950 . S
C336 C335 1.479 . S
C336 C337 1.375 . S
C336 C342 1.404 . S
C337 C336 1.375 . S
C337 C338 1.369 . S
C337 H350 0.950 . S
C338 C337 1.369 . S
C338 C339 1.392 . S
C338 H351 0.977 . S
C339 C338 1.392 . S
C339 C341 1.384 . S
H340 C342 0.949 . S
C341 C339 1.384 . S
C341 C342 1.385 . S
C341 H343 0.950 . S
C342 C336 1.404 . S
C342 H340 0.949 . S
C342 C341 1.385 . S
H343 C341 0.950 . S
H344 C328 0.951 . S
H345 C330 0.951 . S
H346 C332 0.951 1_554 S
H347 C333 0.950 . S
H348 C334 0.950 . S
H349 C335 0.950 . S
H350 C337 0.950 . S
H351 C338 0.977 . S
C352 C353 1.386 . S
C352 C354 1.383 . S
C352 H368 0.951 . S
C353 C352 1.386 . S
C353 C357 1.383 . S
C354 C352 1.383 . S
C354 C355 1.402 . S
C354 H369 0.951 1_554 S
C355 C354 1.402 . S
C355 C356 1.375 . S
C355 C358 1.481 . S
C356 C355 1.375 . S
C356 C357 1.367 . S
C356 H370 0.951 . S
C357 C353 1.383 . S
C357 C356 1.367 . S
C357 H371 0.950 . S
C358 C355 1.481 . S
C358 C359 1.297 1_554 S
C358 H372 0.950 . S
C359 C358 1.297 1_556 S
C359 C360 1.479 . S
C359 H373 0.950 . S
C360 C359 1.479 . S
C360 C361 1.375 . S
C360 C366 1.404 . S
C361 C360 1.375 . S
C361 C362 1.369 . S
C361 H374 0.950 . S
C362 C361 1.369 . S
C362 C363 1.392 . S
C362 H375 0.951 . S
C363 C362 1.392 . S
C363 C365 1.384 . S
H364 C366 0.949 . S
C365 C363 1.384 . S
C365 C366 1.385 . S
C365 H367 0.950 . S
C366 C360 1.404 . S
C366 H364 0.949 . S
C366 C365 1.385 . S
H367 C365 0.950 . S
H368 C352 0.951 . S
H369 C354 0.951 1_556 S
H370 C356 0.951 . S
H371 C357 0.950 . S
H372 C358 0.950 . S
H373 C359 0.950 . S
H374 C361 0.950 . S
H375 C362 0.951 . S
C376 C377 1.386 . S
C376 C378 1.383 . S
C376 H392 0.951 . S
C377 C376 1.386 . S
C377 C381 1.383 . S
C378 C376 1.383 . S
C378 C379 1.402 . S
C378 H393 0.951 1_556 S
C379 C378 1.402 . S
C379 C380 1.375 . S
C379 C382 1.481 . S
C380 C379 1.375 . S
C380 C381 1.367 . S
C380 H394 0.951 . S
C381 C377 1.383 . S
C381 C380 1.367 . S
C381 H395 0.950 . S
C382 C379 1.481 . S
C382 C383 1.297 1_556 S
C382 H396 0.950 . S
C383 C382 1.297 1_554 S
C383 C384 1.479 . S
C383 H397 0.950 . S
C384 C383 1.479 . S
C384 C385 1.375 . S
C384 C390 1.404 . S
C385 C384 1.375 . S
C385 C386 1.369 . S
C385 H398 0.950 . S
C386 C385 1.369 . S
C386 C387 1.392 . S
C386 H399 0.951 . S
C387 C386 1.392 . S
C387 C389 1.384 . S
H388 C390 0.949 . S
C389 C387 1.384 . S
C389 C390 1.385 . S
C389 H391 0.950 . S
C390 C384 1.404 . S
C390 H388 0.949 . S
C390 C389 1.385 . S
H391 C389 0.950 . S
H392 C376 0.951 . S
H393 C378 0.951 1_554 S
H394 C380 0.951 . S
H395 C381 0.950 . S
H396 C382 0.950 . S
H397 C383 0.950 . S
H398 C385 0.950 . S
H399 C386 0.951 . S
C400 C401 1.386 . S
C400 C402 1.383 . S
C400 H416 0.951 . S
C401 C400 1.386 . S
C401 C405 1.383 . S
C402 C400 1.383 . S
C402 C403 1.402 . S
C402 H417 0.951 . S
C403 C402 1.402 . S
C403 C404 1.375 . S
C403 C406 1.481 . S
C404 C403 1.375 . S
C404 C405 1.367 . S
C404 H418 0.951 . S
C405 C401 1.383 . S
C405 C404 1.367 . S
C405 H419 0.950 . S
C406 C403 1.481 . S
C406 C407 1.297 . S
C406 H420 0.950 . S
C407 C406 1.297 . S
C407 C408 1.479 . S
C407 H421 0.950 . S
C408 C407 1.479 . S
C408 C409 1.375 . S
C408 C414 1.404 . S
C409 C408 1.375 . S
C409 C410 1.369 . S
C409 H422 0.950 . S
C410 C409 1.369 . S
C410 C411 1.392 . S
C410 H423 0.951 . S
C411 C410 1.392 . S
C411 C413 1.384 . S
H412 C414 0.949 . S
C413 C411 1.384 . S
C413 C414 1.385 . S
C413 H415 0.950 . S
C414 C408 1.404 . S
C414 H412 0.949 . S
C414 C413 1.385 . S
H415 C413 0.950 . S
H416 C400 0.951 . S
H417 C402 0.951 . S
H418 C404 0.951 . S
H419 C405 0.950 . S
H420 C406 0.950 . S
H421 C407 0.950 . S
H422 C409 0.950 . S
H423 C410 0.951 . S
C424 C425 1.386 . S
C424 C426 1.383 . S
C424 H440 0.951 . S
C425 C424 1.386 . S
C425 C429 1.383 . S
C426 C424 1.383 . S
C426 C427 1.402 . S
C426 H441 0.951 . S
C427 C426 1.402 . S
C427 C428 1.375 . S
C427 C430 1.481 . S
C428 C427 1.375 . S
C428 C429 1.367 . S
C428 H442 0.951 . S
C429 C425 1.383 . S
C429 C428 1.367 . S
C429 H443 0.950 . S
C430 C427 1.481 . S
C430 C431 1.297 . S
C430 H444 0.950 . S
C431 C430 1.297 . S
C431 C432 1.479 . S
C431 H445 0.950 . S
C432 C431 1.479 . S
C432 C433 1.375 . S
C432 C438 1.404 . S
C433 C432 1.375 . S
C433 C434 1.369 . S
C433 H446 0.950 . S
C434 C433 1.369 . S
C434 C435 1.392 . S
C434 H447 0.951 . S
C435 C434 1.392 . S
C435 C437 1.384 . S
H436 C438 0.949 . S
C437 C435 1.384 . S
C437 C438 1.385 . S
C437 H439 0.950 . S
C438 C432 1.404 . S
C438 H436 0.949 . S
C438 C437 1.385 . S
H439 C437 0.950 . S
H440 C424 0.951 . S
H441 C426 0.951 . S
H442 C428 0.951 . S
H443 C429 0.950 . S
H444 C430 0.950 . S
H445 C431 0.950 . S
H446 C433 0.950 . S
H447 C434 0.951 . S
C448 C449 1.386 . S
C448 C450 1.383 . S
C448 H464 0.951 . S
C449 C448 1.386 . S
C449 C453 1.383 . S
C450 C448 1.383 . S
C450 C451 1.402 . S
C450 H465 0.951 . S
C451 C450 1.402 . S
C451 C452 1.375 . S
C451 C454 1.481 . S
C452 C451 1.375 . S
C452 C453 1.367 . S
C452 H466 0.951 . S
C453 C449 1.383 . S
C453 C452 1.367 . S
C453 H467 0.950 . S
C454 C451 1.481 . S
C454 C455 1.297 . S
C454 H468 0.950 . S
C455 C454 1.297 . S
C455 C456 1.479 . S
C455 H469 0.950 . S
C456 C455 1.479 . S
C456 C457 1.375 . S
C456 C462 1.404 . S
C457 C456 1.375 . S
C457 C458 1.369 . S
C457 H470 0.950 . S
C458 C457 1.369 . S
C458 C459 1.392 . S
C458 H471 0.951 . S
C459 C458 1.392 . S
C459 C461 1.384 . S
H460 C462 0.949 . S
C461 C459 1.384 . S
C461 C462 1.385 . S
C461 H463 0.950 . S
C462 C456 1.404 . S
C462 H460 0.949 . S
C462 C461 1.385 . S
H463 C461 0.950 . S
H464 C448 0.951 . S
H465 C450 0.951 . S
H466 C452 0.951 . S
H467 C453 0.950 . S
H468 C454 0.950 . S
H469 C455 0.950 . S
H470 C457 0.950 . S
H471 C458 0.951 . S
C472 C473 1.386 . S
C472 C474 1.383 . S
C472 H488 0.951 . S
C473 C472 1.386 . S
C473 C477 1.383 . S
C474 C472 1.383 . S
C474 C475 1.402 . S
C474 H489 0.951 . S
C475 C474 1.402 . S
C475 C476 1.375 . S
C475 C478 1.481 . S
C476 C475 1.375 . S
C476 C477 1.367 . S
C476 H490 0.951 . S
C477 C473 1.383 . S
C477 C476 1.367 . S
C477 H491 0.950 . S
C478 C475 1.481 . S
C478 C479 1.297 . S
C478 H492 0.950 . S
C479 C478 1.297 . S
C479 C480 1.479 . S
C479 H493 0.950 . S
C480 C479 1.479 . S
C480 C481 1.375 . S
C480 C486 1.404 . S
C481 C480 1.375 . S
C481 C482 1.369 . S
C481 H494 0.950 . S
C482 C481 1.369 . S
C482 C483 1.392 . S
C482 H495 0.951 . S
C483 C482 1.392 . S
C483 C485 1.384 . S
H484 C486 0.949 . S
C485 C483 1.384 . S
C485 C486 1.385 . S
C485 H487 0.950 . S
C486 C480 1.404 . S
C486 H484 0.949 . S
C486 C485 1.385 . S
H487 C485 0.950 . S
H488 C472 0.951 . S
H489 C474 0.951 . S
H490 C476 0.951 . S
H491 C477 0.950 . S
H492 C478 0.950 . S
H493 C479 0.950 . S
H494 C481 0.950 . S
H495 C482 0.951 . S
C113 C39 1.212 . S
C123 C11 1.212 . S
C137 C53 1.148 . S
C147 C25 1.190 . S
C161 C67 1.161 . S
C171 C95 1.199 . S
C185 C75 1.032 . S
C195 C103 1.126 . S
C209 C26 0.640 . S
C219 C4 0.635 . S
C233 C18 0.837 . S
C243 C40 0.722 . S
C257 C54 0.723 . S
C267 C32 0.806 . S
C281 C46 0.790 . S
C291 C12 0.795 . S
C305 C102 0.814 . S
C315 C60 0.717 . S
C329 C82 0.644 . S
C339 C68 0.654 . S
C353 C88 0.851 . S
C363 C74 0.688 . S
C377 C110 0.666 . S
C387 C96 0.687 . S
C401 C5 1.567 . S
C411 C81 1.674 . S
C425 C89 1.579 . S
C435 C19 1.594 . S
C449 C33 1.602 . S
C459 C109 1.644 . S
C473 C47 1.583 . S
C483 C61 1.594 . S
