# Generated by pormake.
# Topology umy, (4)-cn, num edge types: 1
# Building blocks:
#     Node 0, Type 0, BuildingBlock: NAHDIM_clean_sbu_0, # of connection points: 4
#     Node 1, Type 0, BuildingBlock: NAHDIM_clean_sbu_0, # of connection points: 4
#     Node 2, Type 0, BuildingBlock: NAHDIM_clean_sbu_0, # of connection points: 4
#     Node 3, Type 0, BuildingBlock: NAHDIM_clean_sbu_0, # of connection points: 4
#     Node 4, Type 0, BuildingBlock: NAHDIM_clean_sbu_0, # of connection points: 4
#     Node 5, Type 0, BuildingBlock: NAHDIM_clean_sbu_0, # of connection points: 4
#     Node 6, Type 0, BuildingBlock: NAHDIM_clean_sbu_0, # of connection points: 4
#     Node 7, Type 0, BuildingBlock: NAHDIM_clean_sbu_0, # of connection points: 4
#     Node 8, Type 0, BuildingBlock: NAHDIM_clean_sbu_0, # of connection points: 4
#     Node 9, Type 0, BuildingBlock: NAHDIM_clean_sbu_0, # of connection points: 4
#     Node 10, Type 0, BuildingBlock: NAHDIM_clean_sbu_0, # of connection points: 4
#     Node 11, Type 0, BuildingBlock: NAHDIM_clean_sbu_0, # of connection points: 4
#     Edge 12, Type (0, 0), BuildingBlock: UVAHIK_clean_linker_0, # of connection points: 2
#     Edge 13, Type (0, 0), BuildingBlock: UVAHIK_clean_linker_0, # of connection points: 2
#     Edge 14, Type (0, 0), BuildingBlock: UVAHIK_clean_linker_0, # of connection points: 2
#     Edge 15, Type (0, 0), BuildingBlock: UVAHIK_clean_linker_0, # of connection points: 2
#     Edge 16, Type (0, 0), BuildingBlock: UVAHIK_clean_linker_0, # of connection points: 2
#     Edge 17, Type (0, 0), BuildingBlock: UVAHIK_clean_linker_0, # of connection points: 2
#     Edge 18, Type (0, 0), BuildingBlock: UVAHIK_clean_linker_0, # of connection points: 2
#     Edge 19, Type (0, 0), BuildingBlock: UVAHIK_clean_linker_0, # of connection points: 2
#     Edge 20, Type (0, 0), BuildingBlock: UVAHIK_clean_linker_0, # of connection points: 2
#     Edge 21, Type (0, 0), BuildingBlock: UVAHIK_clean_linker_0, # of connection points: 2
#     Edge 22, Type (0, 0), BuildingBlock: UVAHIK_clean_linker_0, # of connection points: 2
#     Edge 23, Type (0, 0), BuildingBlock: UVAHIK_clean_linker_0, # of connection points: 2
#     Edge 24, Type (0, 0), BuildingBlock: UVAHIK_clean_linker_0, # of connection points: 2
#     Edge 25, Type (0, 0), BuildingBlock: UVAHIK_clean_linker_0, # of connection points: 2
#     Edge 26, Type (0, 0), BuildingBlock: UVAHIK_clean_linker_0, # of connection points: 2
#     Edge 27, Type (0, 0), BuildingBlock: UVAHIK_clean_linker_0, # of connection points: 2
#     Edge 28, Type (0, 0), BuildingBlock: UVAHIK_clean_linker_0, # of connection points: 2
#     Edge 29, Type (0, 0), BuildingBlock: UVAHIK_clean_linker_0, # of connection points: 2
#     Edge 30, Type (0, 0), BuildingBlock: UVAHIK_clean_linker_0, # of connection points: 2
#     Edge 31, Type (0, 0), BuildingBlock: UVAHIK_clean_linker_0, # of connection points: 2
#     Edge 32, Type (0, 0), BuildingBlock: UVAHIK_clean_linker_0, # of connection points: 2
#     Edge 33, Type (0, 0), BuildingBlock: UVAHIK_clean_linker_0, # of connection points: 2
#     Edge 34, Type (0, 0), BuildingBlock: UVAHIK_clean_linker_0, # of connection points: 2
#     Edge 35, Type (0, 0), BuildingBlock: UVAHIK_clean_linker_0, # of connection points: 2
# Relax obj value: 0.158
# Max RMSD: 0.142
# Mean RMSD: 0.142
data_MOF--net-umy--node1-NAHDIM_clean_sbu_0--edge1-UVAHIK_clean_linker_0
_symmetry_space_group_name_H-M    P1
_symmetry_Int_Tables_number       1
_symmetry_cell_setting            triclinic
loop_
_symmetry_equiv_pos_as_xyz
'x, y, z'
_cell_length_a     50.227112
_cell_length_b     50.211282
_cell_length_c     62.404702
_cell_angle_alpha  90.020961
_cell_angle_beta   89.95777
_cell_angle_gamma 120.02336
loop_
_atom_site_label
_atom_site_type_symbol
_atom_site_fract_x
_atom_site_fract_y
_atom_site_fract_z
_atom_type_partial_charge
C0 C 0.05878 0.38668 0.09303 0.0
O1 O 0.05981 0.37229 0.07575 0.0
O2 O 0.02306 0.30096 0.11848 0.0
Zn3 Zn 0.06429 0.33887 0.11431 0.0
O4 O 0.08529 0.33437 0.08835 0.0
C5 C 0.08962 0.32012 0.14789 0.0
O6 O 0.07278 0.29343 0.13841 0.0
O7 O 0.06009 0.37637 0.11134 0.0
C8 C 0.07172 0.31308 0.0746 0.0
O9 O 0.04251 0.29263 0.07722 0.0
C10 C -0.00235 0.3007 0.11848 0.0
O11 O -0.00255 0.32643 0.11516 0.0
O12 O 0.09006 0.34377 0.14024 0.0
C13 C 0.64684 0.03322 0.28069 0.0
O14 O 0.65013 0.01788 0.29653 0.0
O15 O 0.71419 0.02351 0.28447 0.0
Zn16 Zn 0.71329 0.06178 0.27669 0.0
O17 O 0.73992 0.08221 0.251 0.0
C18 C 0.72326 0.08002 0.32077 0.0
O19 O 0.70483 0.05034 0.32346 0.0
O20 O 0.67037 0.05251 0.27023 0.0
C21 C 0.756 0.0725 0.24176 0.0
O22 O 0.75551 0.04774 0.24906 0.0
C23 C 0.69832 -0.00278 0.27587 0.0
O24 O 0.67933 0.99357 0.2602 0.0
O25 O 0.73004 0.09071 0.30184 0.0
C26 C 0.60557 0.66119 0.45347 0.0
O27 O 0.61999 0.66641 0.47189 0.0
O28 O 0.69013 0.70619 0.44754 0.0
Zn29 Zn 0.65843 0.71877 0.44256 0.0
O30 O 0.66756 0.74511 0.41631 0.0
C31 C 0.68005 0.7566 0.48041 0.0
O32 O 0.70592 0.75782 0.47502 0.0
O33 O 0.6177 0.68071 0.43845 0.0
C34 C 0.68804 0.77339 0.41617 0.0
O35 O 0.70437 0.78581 0.43353 0.0
C36 C 0.71607 0.71724 0.43828 0.0
O37 O 0.72361 0.73817 0.4233 0.0
O38 O 0.65638 0.74137 0.46876 0.0
C39 C 0.92382 0.5997 0.5989 0.0
O40 O 0.93498 0.62044 0.5836 0.0
O41 O 0.96307 0.67769 0.625 0.0
Zn42 Zn 0.91859 0.64736 0.61929 0.0
O43 O 0.90407 0.65728 0.59198 0.0
C44 C 0.9013 0.67108 0.65547 0.0
O45 O 0.92626 0.69662 0.64994 0.0
O46 O 0.9147 0.6059 0.6162 0.0
C47 C 0.89576 0.67733 0.59103 0.0
O48 O 0.89673 0.69252 0.60843 0.0
C49 C 0.97839 0.70438 0.61685 0.0
O50 O 0.96517 0.7138 0.60303 0.0
O51 O 0.89314 0.64682 0.64455 0.0
C52 C 0.32104 0.93269 0.7619 0.0
O53 O 0.30633 0.93586 0.7456 0.0
O54 O 0.27346 0.96764 0.78506 0.0
Zn55 Zn 0.26827 0.92531 0.7844 0.0
O56 O 0.24008 0.9003 0.76058 0.0
C57 C 0.22422 0.90309 0.81776 0.0
O58 O 0.2121 0.915 0.80499 0.0
O59 O 0.30905 0.9278 0.78045 0.0
C60 C 0.23277 0.91173 0.74507 0.0
O61 O 0.24393 0.94161 0.7442 0.0
C62 C 0.29891 0.99072 0.79055 0.0
O63 O 0.32226 0.98677 0.79504 0.0
O64 O 0.2493 0.90455 0.81231 0.0
C65 C 0.37771 0.31339 0.93249 0.0
O66 O 0.35971 0.29993 0.91598 0.0
O67 O 0.29543 0.26395 0.95608 0.0
Zn68 Zn 0.33251 0.25881 0.95345 0.0
O69 O 0.329 0.23364 0.92748 0.0
C70 C 0.32136 0.20866 0.98138 0.0
O71 O 0.30502 0.19219 0.96498 0.0
O72 O 0.37075 0.29997 0.95057 0.0
C73 C 0.30852 0.22648 0.91318 0.0
O74 O 0.28801 0.23522 0.91534 0.0
C75 C 0.29799 0.28981 0.96057 0.0
O76 O 0.32549 0.31382 0.96334 0.0
O77 O 0.33546 0.23783 0.98006 0.0
C78 C 0.60775 0.93926 0.73007 0.0
O79 O 0.62731 0.94581 0.74589 0.0
O80 O 0.6877 0.97418 0.70699 0.0
Zn81 Zn 0.65267 0.93055 0.70903 0.0
O82 O 0.65659 0.9087 0.73475 0.0
C83 C 0.67591 0.91448 0.67208 0.0
O84 O 0.70219 0.93665 0.67949 0.0
O85 O 0.61366 0.93179 0.71198 0.0
C86 C 0.67851 0.90327 0.73731 0.0
O87 O 0.69997 0.91208 0.72257 0.0
C88 C 0.7107 0.98744 0.71948 0.0
O89 O 0.71295 0.97264 0.73607 0.0
O90 O 0.65123 0.90763 0.68208 0.0
C91 C 0.65248 0.60666 0.90608 0.0
O92 O 0.66684 0.62454 0.92249 0.0
O93 O 0.69343 0.68877 0.88217 0.0
Zn94 Zn 0.70318 0.65452 0.88329 0.0
O95 O 0.73161 0.66022 0.90778 0.0
C96 C 0.73756 0.67614 0.84354 0.0
O97 O 0.74056 0.70251 0.84968 0.0
O98 O 0.66385 0.61485 0.88744 0.0
C99 C 0.76061 0.67567 0.90554 0.0
O100 O 0.77223 0.68863 0.88698 0.0
C101 C 0.71206 0.71621 0.88796 0.0
O102 O 0.73885 0.72295 0.89603 0.0
O103 O 0.72245 0.65248 0.85524 0.0
C104 C 0.05018 0.66755 0.07352 0.0
O105 O 0.03907 0.67704 0.08892 0.0
O106 O 0.00704 0.70127 0.04451 0.0
Zn107 Zn 0.05172 0.71797 0.05119 0.0
O108 O 0.06561 0.74518 0.07719 0.0
C109 C 0.06662 0.75496 0.01307 0.0
O110 O 0.04017 0.75315 0.0174 0.0
O111 O 0.05785 0.68205 0.05586 0.0
C112 C 0.06329 0.76918 0.07849 0.0
O113 O 0.05088 0.77627 0.06257 0.0
C114 C 0.98694 0.70415 0.05502 0.0
O115 O -0.00565 0.71926 0.07323 0.0
O116 O 0.07663 0.74187 0.0255 0.0
C117 C 0.36118 0.02443 0.23985 0.0
O118 O 0.3374 0.00994 0.25268 0.0
O119 O 0.28557 0.00742 0.21962 0.0
Zn120 Zn 0.32459 0.04827 0.22223 0.0
O121 O 0.32279 0.07159 0.24789 0.0
C122 C 0.32271 0.05779 0.17736 0.0
O123 O 0.31336 0.02822 0.17728 0.0
O124 O 0.36063 0.0419 0.22536 0.0
C125 C 0.31261 0.09011 0.24619 0.0
O126 O 0.30346 0.09424 0.22739 0.0
C127 C 0.2602 0.00692 0.21721 0.0
O128 O 0.25997 0.03293 0.21797 0.0
O129 O 0.3296 0.07212 0.19511 0.0
C130 C 0.3201 0.38348 0.41159 0.0
O131 O 0.30479 0.36358 0.42681 0.0
O132 O 0.27465 0.3037 0.38057 0.0
Zn133 Zn 0.26947 0.34038 0.38504 0.0
O134 O 0.23725 0.33098 0.40737 0.0
C135 C 0.2318 0.32324 0.34843 0.0
O136 O 0.22087 0.29664 0.35826 0.0
O137 O 0.30946 0.37819 0.39263 0.0
C138 C 0.23345 0.31494 0.42405 0.0
O139 O 0.25175 0.30378 0.42766 0.0
C140 C 0.29594 0.29896 0.38691 0.0
O141 O 0.31844 0.31974 0.39868 0.0
O142 O 0.25365 0.34708 0.35712 0.0
C143 C 0.9159 0.31136 0.57175 0.0
O144 O 0.91225 0.2935 0.58818 0.0
O145 O 0.95291 0.26641 0.53715 0.0
Zn146 Zn 0.91266 0.26088 0.54734 0.0
O147 O 0.89726 0.2346 0.57379 0.0
C148 C 0.88779 0.25417 0.50556 0.0
O149 O 0.91221 0.28163 0.50366 0.0
O150 O 0.91697 0.30222 0.55295 0.0
C151 C 0.90928 0.22036 0.58266 0.0
O152 O 0.93375 0.22154 0.57412 0.0
C153 C 0.97804 0.27829 0.54749 0.0
O154 O 0.97911 0.28791 0.56722 0.0
O155 O 0.88243 0.24032 0.52344 0.0
C156 C 0.06005 0.62703 0.05873 0.0
C157 C 0.0524 0.63951 0.07624 0.0
C158 C 0.06106 0.59991 0.061 0.0
C159 C 0.03286 0.53124 0.09549 0.0
H160 H 0.09547 0.52166 0.06586 0.0
C161 C 0.05254 0.42862 0.1096 0.0
C162 C 0.05697 0.41506 0.09124 0.0
C163 C 0.05164 0.45589 0.10799 0.0
C164 C 0.0777 0.52394 0.07407 0.0
H165 H 0.04034 0.63364 0.10997 0.0
H166 H 0.04275 0.58659 0.11406 0.0
H167 H 0.09554 0.57011 0.06312 0.0
H168 H 0.06363 0.41928 0.05678 0.0
H169 H 0.06216 0.467 0.05402 0.0
H170 H 0.01529 0.48508 0.10661 0.0
C171 C 0.04736 0.59746 0.09846 0.0
C172 C 0.07769 0.55166 0.07249 0.0
C173 C 0.04618 0.62452 0.09615 0.0
C174 C 0.06023 0.42918 0.07123 0.0
C175 C 0.05957 0.45658 0.06965 0.0
C176 C 0.033 0.50358 0.09718 0.0
C177 C 0.05465 0.58475 0.08087 0.0
C178 C 0.05517 0.55558 0.08309 0.0
C179 C 0.05539 0.47025 0.08802 0.0
C180 C 0.05532 0.49962 0.0864 0.0
H181 H 0.06481 0.63793 0.04313 0.0
H182 H 0.06627 0.59052 0.04704 0.0
H183 H 0.01489 0.53332 0.10357 0.0
H184 H 0.0499 0.41827 0.12525 0.0
H185 H 0.04862 0.46607 0.12243 0.0
C186 C 0.59045 0.01 0.28808 0.0
C187 C 0.6163 0.02908 0.27549 0.0
C188 C 0.56195 0.00741 0.28368 0.0
C189 C 0.5286 0.04956 0.25729 0.0
H190 H 0.45205 0.97182 0.26061 0.0
C191 C 0.41459 0.03809 0.2294 0.0
C192 C 0.389 0.02186 0.24288 0.0
C193 C 0.44154 0.03718 0.23291 0.0
C194 C 0.47324 -0.00628 0.25981 0.0
H195 H 0.6323 0.05964 0.24798 0.0
H196 H 0.58266 0.05484 0.24019 0.0
H197 H 0.50074 0.97343 0.26762 0.0
H198 H 0.37135 0.99123 0.27027 0.0
H199 H 0.41863 0.98984 0.27648 0.0
H200 H 0.50128 0.06992 0.24956 0.0
C201 C 0.58449 0.04232 0.25371 0.0
C202 C 0.50108 -0.00535 0.26383 0.0
C203 C 0.61291 0.04494 0.25812 0.0
C204 C 0.39068 0.00403 0.25962 0.0
C205 C 0.4177 0.0031 0.26312 0.0
C206 C 0.50085 0.04863 0.25326 0.0
C207 C 0.55878 0.02385 0.26659 0.0
C208 C 0.52907 0.02258 0.26251 0.0
C209 C 0.44354 0.02002 0.24997 0.0
C210 C 0.47288 0.0207 0.25438 0.0
H211 H 0.59231 -0.00253 0.30158 0.0
H212 H 0.54262 0.99318 0.29399 0.0
H213 H 0.54969 0.07156 0.2566 0.0
H214 H 0.414 0.05188 0.21626 0.0
H215 H 0.4609 0.05004 0.22228 0.0
C216 C 0.56119 0.62683 0.42998 0.0
C217 C 0.57577 0.63279 0.45004 0.0
C218 C 0.5332 0.59994 0.42656 0.0
C219 C 0.48431 0.52145 0.44742 0.0
H220 H 0.42118 0.52474 0.41369 0.0
C221 C 0.36184 0.41713 0.43721 0.0
C222 C 0.34932 0.41183 0.41647 0.0
C223 C 0.38932 0.44408 0.44187 0.0
C224 C 0.4387 0.52342 0.42298 0.0
H225 H 0.57232 0.61524 0.4823 0.0
H226 H 0.52318 0.56836 0.47638 0.0
H227 H 0.46924 0.57199 0.42108 0.0
H228 H 0.3559 0.43055 0.38431 0.0
H229 H 0.40387 0.47749 0.39244 0.0
H230 H 0.45366 0.47281 0.44929 0.0
C231 C 0.53364 0.58436 0.46322 0.0
C232 C 0.46622 0.55047 0.42721 0.0
C233 C 0.56171 0.61129 0.46664 0.0
C234 C 0.36489 0.43398 0.40047 0.0
C235 C 0.39228 0.46095 0.40515 0.0
C236 C 0.45672 0.49438 0.44323 0.0
C237 C 0.5191 0.5784 0.44314 0.0
C238 C 0.48943 0.54976 0.43934 0.0
C239 C 0.40474 0.46631 0.4259 0.0
C240 C 0.43372 0.49507 0.43084 0.0
H241 H 0.57147 0.64286 0.41681 0.0
H242 H 0.52284 0.59582 0.41081 0.0
H243 H 0.5019 0.52008 0.45657 0.0
H244 H 0.35041 0.40053 0.44991 0.0
H245 H 0.39824 0.44772 0.45806 0.0
C246 C 0.91425 0.54922 0.61349 0.0
C247 C 0.92261 0.56988 0.59625 0.0
C248 C 0.91379 0.52135 0.6111 0.0
C249 C 0.94437 0.48263 0.57691 0.0
H250 H 0.87935 0.4085 0.60319 0.0
C251 C 0.9241 0.36155 0.55762 0.0
C252 C 0.91786 0.34144 0.57499 0.0
C253 C 0.92531 0.38969 0.56056 0.0
C254 C 0.89782 0.42909 0.59596 0.0
H255 H 0.93661 0.57731 0.56287 0.0
H256 H 0.93522 0.52842 0.55858 0.0
H257 H 0.87969 0.45696 0.60743 0.0
H258 H 0.90818 0.33517 0.60908 0.0
H259 H 0.91026 0.38438 0.61418 0.0
H260 H 0.96223 0.45459 0.56522 0.0
C261 C 0.92962 0.53402 0.57408 0.0
C262 C 0.89805 0.45685 0.59839 0.0
C263 C 0.93023 0.56196 0.57651 0.0
C264 C 0.91302 0.35014 0.59538 0.0
C265 C 0.91403 0.37822 0.59828 0.0
C266 C 0.94404 0.45485 0.57439 0.0
C267 C 0.92153 0.51345 0.59138 0.0
C268 C 0.92131 0.48394 0.58887 0.0
C269 C 0.92013 0.39823 0.58089 0.0
C270 C 0.92075 0.4278 0.58386 0.0
H271 H 0.90839 0.55472 0.62895 0.0
H272 H 0.90786 0.50622 0.62482 0.0
H273 H 0.96293 0.50317 0.5697 0.0
H274 H 0.92793 0.35552 0.5417 0.0
H275 H 0.92975 0.40453 0.54682 0.0
C276 C 0.55995 0.93681 0.71594 0.0
C277 C 0.57909 0.94015 0.73336 0.0
C278 C 0.53268 0.93731 0.71913 0.0
C279 C 0.47474 0.92301 0.75993 0.0
H280 H 0.45266 0.97062 0.72257 0.0
C281 C 0.36891 0.93584 0.77645 0.0
C282 C 0.35115 0.93475 0.75874 0.0
C283 C 0.39729 0.93757 0.77347 0.0
C284 C 0.4583 0.95691 0.73299 0.0
H285 H 0.58473 0.94675 0.76778 0.0
H286 H 0.53698 0.94741 0.77333 0.0
H287 H 0.5012 0.97153 0.71703 0.0
H288 H 0.34916 0.93463 0.72402 0.0
H289 H 0.39832 0.93693 0.71881 0.0
H290 H 0.43171 0.90788 0.77567 0.0
C291 C 0.54307 0.94432 0.75723 0.0
C292 C 0.48613 0.95751 0.72983 0.0
C293 C 0.57047 0.94409 0.75403 0.0
C294 C 0.36237 0.93555 0.73799 0.0
C295 C 0.39065 0.93706 0.73501 0.0
C296 C 0.44683 0.92222 0.76299 0.0
C297 C 0.5239 0.94088 0.73982 0.0
C298 C 0.49459 0.94056 0.74328 0.0
C299 C 0.40842 0.93803 0.75271 0.0
C300 C 0.43827 0.93915 0.74956 0.0
H301 H 0.56599 0.93377 0.69981 0.0
H302 H 0.51818 0.93433 0.70545 0.0
H303 H 0.48052 0.9094 0.77035 0.0
H304 H 0.361 0.93551 0.79265 0.0
H305 H 0.41061 0.93881 0.78746 0.0
C306 C 0.42257 0.3601 0.94825 0.0
C307 C 0.40551 0.34393 0.93015 0.0
C308 C 0.44881 0.38901 0.94603 0.0
C309 C 0.48764 0.45427 0.90829 0.0
H310 H 0.55948 0.47476 0.94293 0.0
C311 C 0.60684 0.55956 0.89149 0.0
C312 C 0.62361 0.57722 0.90924 0.0
C313 C 0.57971 0.5316 0.89443 0.0
C314 C 0.53947 0.46947 0.93332 0.0
H315 H 0.40264 0.34529 0.89552 0.0
H316 H 0.44876 0.39545 0.8916 0.0
H317 H 0.51314 0.42475 0.94722 0.0
H318 H 0.62505 0.57945 0.94397 0.0
H319 H 0.57763 0.53047 0.94907 0.0
H320 H 0.51425 0.49887 0.89417 0.0
C321 C 0.44155 0.38608 0.90756 0.0
C322 C 0.51292 0.44086 0.93579 0.0
C323 C 0.41522 0.35724 0.90979 0.0
C324 C 0.61266 0.56637 0.92998 0.0
C325 C 0.58561 0.53827 0.93291 0.0
C326 C 0.51425 0.4828 0.90575 0.0
C327 C 0.45864 0.40231 0.92565 0.0
C328 C 0.48672 0.4329 0.92326 0.0
C329 C 0.5689 0.52062 0.91516 0.0
C330 C 0.54045 0.49064 0.9182 0.0
H331 H 0.41557 0.35054 0.96418 0.0
H332 H 0.46118 0.4011 0.96032 0.0
H333 H 0.46769 0.44908 0.89866 0.0
H334 H 0.61466 0.56729 0.8753 0.0
H335 H 0.56746 0.5183 0.88046 0.0
C336 C 0.11908 0.33488 0.05204 0.0
C337 C 0.08917 0.31079 0.05634 0.0
C338 C 0.13661 0.332 0.03585 0.0
C339 C 0.14638 0.27333 0.00921 0.0
H340 H 0.20376 0.34161 0.97383 0.0
C341 C 0.24076 0.26659 0.96178 0.0
C342 C 0.27028 0.29226 0.96447 0.0
C343 C 0.21468 0.26812 0.96757 0.0
C344 C 0.18785 0.32232 0.98359 0.0
H345 H 0.05368 0.26525 0.04646 0.0
H346 H 0.08459 0.2601 0.01822 0.0
H347 H 0.16438 0.34572 0.99413 0.0
H348 H 0.29553 0.34011 0.97428 0.0
H349 H 0.25025 0.3426 0.98478 0.0
H350 H 0.17067 0.25049 -0.00034 0.0
C351 C 0.09439 0.28117 0.02746 0.0
C352 C 0.16529 0.32466 0.99515 0.0
C353 C 0.07672 0.28416 0.04359 0.0
C354 C 0.27313 0.31989 0.97209 0.0
C355 C 0.24709 0.32139 0.97794 0.0
C356 C 0.16901 0.27104 0.99774 0.0
C357 C 0.12468 0.30489 0.02367 0.0
C358 C 0.14494 0.30054 0.00858 0.0
C359 C 0.21762 0.29533 0.97621 0.0
C360 C 0.1906 0.29588 0.98533 0.0
H361 H 0.12926 0.35578 0.06149 0.0
H362 H 0.16 0.35051 0.03349 0.0
H363 H 0.13123 0.25449 0.01959 0.0
H364 H 0.23778 0.24505 0.95573 0.0
H365 H 0.19226 0.24779 0.96574 0.0
C366 C 0.79672 0.08144 0.21489 0.0
C367 C 0.77643 0.09007 0.22378 0.0
C368 C 0.81769 0.09949 0.19905 0.0
C369 C 0.83669 0.16251 0.16027 0.0
H370 H 0.92082 0.18321 0.17141 0.0
C371 C 0.94211 0.27292 0.12907 0.0
C372 C 0.9691 0.27222 0.12434 0.0
C373 C 0.91629 0.24678 0.1371 0.0
C374 C 0.89741 0.17724 0.16772 0.0
H375 H 0.76129 0.12365 0.22234 0.0
H376 H 0.79802 0.15522 0.1949 0.0
H377 H 0.87947 0.14398 0.1929 0.0
H378 H 0.9895 0.24302 0.12287 0.0
H379 H 0.94431 0.19734 0.13653 0.0
H380 H 0.85487 0.19647 0.13542 0.0
C381 C 0.79759 0.1344 0.20003 0.0
C382 C 0.87368 0.15473 0.18008 0.0
C383 C 0.77671 0.11642 0.2159 0.0
C384 C 0.96918 0.24442 0.12664 0.0
C385 C 0.94332 0.21826 0.13455 0.0
C386 C 0.86047 0.18502 0.14784 0.0
C387 C 0.81869 0.12644 0.19172 0.0
C388 C 0.84315 0.14757 0.17679 0.0
C389 C 0.91689 0.21938 0.14043 0.0
C390 C 0.89116 0.19307 0.15173 0.0
H391 H 0.79695 0.06115 0.22051 0.0
H392 H 0.83345 0.09261 0.19276 0.0
H393 H 0.81331 0.15715 0.15719 0.0
H394 H 0.94131 0.29398 0.12743 0.0
H395 H 0.8964 0.24852 0.14165 0.0
C396 C 0.67289 0.77987 0.37915 0.0
C397 C 0.69239 0.79238 0.39698 0.0
C398 C 0.67556 0.79843 0.36167 0.0
C399 C 0.72704 0.87369 0.33621 0.0
H400 H 0.65098 0.86922 0.31829 0.0
C401 C 0.72249 0.97584 0.30007 0.0
C402 C 0.70039 0.97088 0.28441 0.0
C403 C 0.72323 0.95111 0.30954 0.0
C404 C 0.67238 0.87037 0.32271 0.0
H405 H 0.73074 0.83387 0.4101 0.0
H406 H 0.73524 0.86626 0.37971 0.0
H407 H 0.64932 0.83084 0.34294 0.0
H408 H 0.66247 0.93609 0.26578 0.0
H409 H 0.66377 0.89264 0.28243 0.0
H410 H 0.75014 0.91384 0.31652 0.0
C411 C 0.71805 0.84206 0.37915 0.0
C412 C 0.67143 0.84838 0.33687 0.0
C413 C 0.71531 0.82355 0.39665 0.0
C414 C 0.67969 0.94063 0.27787 0.0
C415 C 0.68036 0.91577 0.28744 0.0
C416 C 0.72798 0.89563 0.32201 0.0
C417 C 0.69788 0.82982 0.36164 0.0
C418 C 0.69879 0.85036 0.34425 0.0
C419 C 0.70187 0.92078 0.30361 0.0
C420 C 0.70071 0.89474 0.31563 0.0
H421 H 0.65509 0.75588 0.37886 0.0
H422 H 0.6599 0.78831 0.34831 0.0
H423 H 0.74846 0.87545 0.34133 0.0
H424 H 0.73886 -0.00113 0.30544 0.0
H425 H 0.73979 0.95577 0.32217 0.0
C426 C 0.72981 0.68531 0.4613 0.0
C427 C 0.7389 0.70948 0.44656 0.0
C428 C 0.75169 0.68056 0.47161 0.0
C429 C 0.83058 0.72467 0.49013 0.0
H430 H 0.81544 0.64451 0.50855 0.0
C431 C 0.8755 0.70532 0.56952 0.0
C432 C 0.88441 0.68295 0.57066 0.0
C433 C 0.86318 0.7095 0.55063 0.0
C434 C 0.82038 0.66708 0.50328 0.0
H435 H 0.77794 0.74645 0.43006 0.0
H436 H 0.81631 0.73812 0.4482 0.0
H437 H 0.78355 0.64809 0.48055 0.0
H438 H 0.88842 0.64812 0.55263 0.0
H439 H 0.86684 0.65547 0.51963 0.0
H440 H 0.86689 0.74364 0.51325 0.0
C441 C 0.7922 0.72305 0.45186 0.0
C442 C 0.80195 0.66911 0.48737 0.0
C443 C 0.77023 0.7277 0.44141 0.0
C444 C 0.88158 0.66544 0.55231 0.0
C445 C 0.86917 0.66957 0.53342 0.0
C446 C 0.84899 0.72264 0.50605 0.0
C447 C 0.78317 0.69992 0.46746 0.0
C448 C 0.80621 0.69788 0.48114 0.0
C449 C 0.85948 0.69139 0.53247 0.0
C450 C 0.84343 0.6938 0.51328 0.0
H451 H 0.70582 0.67074 0.46552 0.0
H452 H 0.74397 0.66275 0.48371 0.0
H453 H 0.83433 0.74717 0.48577 0.0
H454 H 0.87744 0.71924 0.58334 0.0
H455 H 0.85552 0.7262 0.55052 0.0
C456 C 0.02472 0.71451 0.63789 0.0
C457 C 0.00955 0.7257 0.62501 0.0
C458 C 0.05234 0.7348 0.64794 0.0
C459 C 0.11592 0.81573 0.65012 0.0
H460 H 0.11745 0.7962 0.71007 0.0
C461 C 0.19946 0.90273 0.71286 0.0
C462 C 0.21112 0.89125 0.72857 0.0
C463 C 0.1775 0.88279 0.69817 0.0
C464 C 0.11767 0.80179 0.69328 0.0
H465 H 0.01226 0.76683 0.61158 0.0
H466 H 0.06034 0.80238 0.62952 0.0
H467 H 0.07492 0.76081 0.68765 0.0
H468 H 0.21003 0.85013 0.74054 0.0
H469 H 0.1721 0.81556 0.71484 0.0
H470 H 0.15861 0.85716 0.65606 0.0
C471 C 0.05101 0.77789 0.63166 0.0
C472 C 0.09328 0.78146 0.6804 0.0
C473 C 0.0234 0.75753 0.62145 0.0
C474 C 0.20123 0.85967 0.72881 0.0
C475 C 0.17941 0.83982 0.71413 0.0
C476 C 0.14043 0.83617 0.66307 0.0
C477 C 0.06529 0.76673 0.64549 0.0
C478 C 0.09209 0.78815 0.65869 0.0
C479 C 0.16686 0.85105 0.69892 0.0
C480 C 0.14151 0.82937 0.6848 0.0
H481 H 0.01485 0.69007 0.64069 0.0
H482 H 0.06317 0.72547 0.65811 0.0
H483 H 0.11571 0.82141 0.6334 0.0
H484 H 0.2067 0.92698 0.71224 0.0
H485 H 0.16808 0.89209 0.68672 0.0
C486 C 0.32777 0.04504 0.80352 0.0
C487 C 0.30104 0.02075 0.79447 0.0
C488 C 0.32838 0.07192 0.81004 0.0
C489 C 0.27518 0.09626 0.82934 0.0
H490 H 0.34936 0.17613 0.83165 0.0
C491 C 0.28243 0.19532 0.88047 0.0
C492 C 0.30777 0.20816 0.89444 0.0
C493 C 0.28116 0.17657 0.86347 0.0
C494 C 0.32843 0.15399 0.83102 0.0
H495 H 0.25474 0.00647 0.78365 0.0
H496 H 0.25597 0.05362 0.79482 0.0
H497 H 0.34802 0.13567 0.80914 0.0
H498 H 0.35219 0.21249 0.90104 0.0
H499 H 0.34989 0.17979 0.87151 0.0
H500 H 0.25596 0.11423 0.85175 0.0
C501 C 0.27623 0.05161 0.79728 0.0
C502 C 0.32766 0.13083 0.81818 0.0
C503 C 0.27559 0.02465 0.79082 0.0
C504 C 0.33225 0.20279 0.89064 0.0
C505 C 0.3311 0.18431 0.87358 0.0
C506 C 0.2759 0.11946 0.84207 0.0
C507 C 0.30232 0.07516 0.80755 0.0
C508 C 0.30138 0.10137 0.81779 0.0
C509 C 0.30535 0.17062 0.86002 0.0
C510 C 0.30288 0.1482 0.84361 0.0
H511 H 0.34783 0.04283 0.80647 0.0
H512 H 0.34875 0.08942 0.8181 0.0
H513 H 0.25468 0.07376 0.82963 0.0
H514 H 0.26326 0.19915 0.88294 0.0
H515 H 0.2611 0.1664 0.85319 0.0
C516 C 0.67599 0.73457 0.87773 0.0
C517 C 0.7062 0.7409 0.88119 0.0
C518 C 0.67052 0.75606 0.86745 0.0
C519 C 0.70969 0.83592 0.84444 0.0
H520 H 0.64515 0.7972 0.80189 0.0
C521 C 0.70795 0.88977 0.7631 0.0
C522 C 0.6802 0.888 0.75702 0.0
C523 C 0.70942 0.87505 0.78167 0.0
C524 C 0.66295 0.80837 0.81389 0.0
H525 H 0.75437 0.77522 0.87786 0.0
H526 H 0.74504 0.81207 0.85908 0.0
H527 H 0.65034 0.76585 0.8293 0.0
H528 H 0.6323 0.86977 0.76566 0.0
H529 H 0.63474 0.84323 0.7978 0.0
H530 H 0.72339 0.87821 0.82776 0.0
C531 C 0.72539 0.79103 0.86475 0.0
C532 C 0.66587 0.79046 0.82976 0.0
C533 C 0.73082 0.76981 0.87547 0.0
C534 C 0.65401 0.87149 0.76995 0.0
C535 C 0.65536 0.85633 0.78831 0.0
C536 C 0.70709 0.85375 0.82828 0.0
C537 C 0.69517 0.78398 0.85992 0.0
C538 C 0.68964 0.80387 0.84503 0.0
C539 C 0.68304 0.85791 0.79427 0.0
C540 C 0.68401 0.83998 0.81269 0.0
H541 H 0.65659 0.71254 0.88225 0.0
H542 H 0.64693 0.75019 0.86463 0.0
H543 H 0.72788 0.84718 0.85616 0.0
H544 H 0.72854 0.90251 0.75352 0.0
H545 H 0.73094 0.87629 0.78585 0.0
C546 C 0.76896 0.66171 0.9425 0.0
C547 C 0.78108 0.67818 0.92335 0.0
C548 C 0.78854 0.66282 0.95881 0.0
C549 C 0.83612 0.68146 0.99477 0.0
H550 H 0.90822 0.67837 0.97625 0.0
C551 C 0.94054 0.7095 0.04924 0.0
C552 C 0.95691 0.69418 0.04491 0.0
C553 C 0.91527 0.70391 0.03659 0.0
C554 C 0.88798 0.67878 0.98178 0.0
H555 H 0.82316 0.7097 0.90666 0.0
H556 H 0.85721 0.71195 0.93517 0.0
H557 H 0.87221 0.67681 0.94977 0.0
H558 H 0.95807 0.65898 0.0255 0.0
H559 H 0.91351 0.64849 0.00396 0.0
H560 H 0.85196 0.68306 0.02691 0.0
C561 C 0.83262 0.69766 0.93741 0.0
C562 C 0.86758 0.67841 0.96653 0.0
C563 C 0.81309 0.69648 0.92111 0.0
C564 C 0.94615 0.67147 0.02894 0.0
C565 C 0.92074 0.66561 0.01653 0.0
C566 C 0.85661 0.6818 0.01011 0.0
C567 C 0.82059 0.68044 0.95629 0.0
C568 C 0.8416 0.68006 0.9728 0.0
C569 C 0.90584 0.68269 0.01959 0.0
C570 C 0.88284 0.68058 0.00374 0.0
H571 H 0.74435 0.64742 0.94472 0.0
H572 H 0.77861 0.64916 0.97311 0.0
H573 H 0.81634 0.68289 7e-05 0.0
H574 H 0.94841 0.72716 0.06145 0.0
H575 H 0.90434 0.71753 0.03932 0.0
C576 C 0.20592 0.97925 0.20413 0.0
C577 C 0.23246 0.97845 0.2102 0.0
C578 C 0.18148 0.95385 0.19425 0.0
C579 C 0.14803 0.87121 0.18188 0.0
H580 H 0.12707 0.89365 0.12763 0.0
C581 C 0.0954 0.78629 0.11168 0.0
C582 C 0.07583 0.78967 0.09727 0.0
C583 C 0.10927 0.80713 0.12846 0.0
C584 C 0.13197 0.88684 0.14291 0.0
H585 H 0.25321 0.94961 0.21215 0.0
H586 H 0.21047 0.90525 0.19487 0.0
H587 H 0.16007 0.93364 0.15263 0.0
H588 H 0.05402 0.81646 0.08982 0.0
H589 H 0.07755 0.85238 0.11947 0.0
H590 H 0.12022 0.82434 0.172 0.0
C591 C 0.20861 0.92553 0.19776 0.0
C592 C 0.15099 0.90984 0.15725 0.0
C593 C 0.23316 0.95101 0.20754 0.0
C594 C 0.06933 0.8135 0.10052 0.0
C595 C 0.08292 0.83416 0.11746 0.0
C596 C 0.1287 0.84811 0.16761 0.0
C597 C 0.183 0.92709 0.19038 0.0
C598 C 0.15972 0.90231 0.17667 0.0
C599 C 0.1036 0.83164 0.13136 0.0
C600 C 0.121 0.8557 0.14773 0.0
H601 H 0.20453 -5e-05 0.20612 0.0
H602 H 0.16182 0.9555 0.18896 0.0
H603 H 0.1542 0.86479 0.19685 0.0
H604 H 0.10089 0.76815 0.10959 0.0
H605 H 0.12539 0.80469 0.13862 0.0
C606 C 0.32907 0.11108 0.28326 0.0
C607 C 0.31058 0.10649 0.26517 0.0
C608 C 0.32758 0.12741 0.30095 0.0
C609 C 0.27775 0.14965 0.32846 0.0
H610 H 0.3516 0.22554 0.34365 0.0
C611 C 0.27282 0.25048 0.36564 0.0
C612 C 0.29639 0.27134 0.37919 0.0
C613 C 0.27434 0.22605 0.35639 0.0
C614 C 0.33089 0.20405 0.34009 0.0
H615 H 0.2755 0.11454 0.25158 0.0
H616 H 0.2724 0.14238 0.28267 0.0
H617 H 0.35478 0.19002 0.31845 0.0
H618 H 0.3393 0.28195 0.39456 0.0
H619 H 0.34171 0.2387 0.37859 0.0
H620 H 0.25367 0.16354 0.34979 0.0
C621 C 0.28818 0.13357 0.28307 0.0
C622 C 0.33275 0.18382 0.32559 0.0
C623 C 0.29012 0.11787 0.26525 0.0
C624 C 0.32088 0.26638 0.38407 0.0
C625 C 0.32233 0.2417 0.37484 0.0
C626 C 0.27594 0.16958 0.3432 0.0
C627 C 0.30704 0.13868 0.30098 0.0
C628 C 0.30601 0.15706 0.31908 0.0
C629 C 0.29933 0.22159 0.36056 0.0
C630 C 0.30228 0.19765 0.3485 0.0
H631 H 0.3451 0.10259 0.28357 0.0
H632 H 0.34237 0.13119 0.3146 0.0
H633 H 0.25689 0.12888 0.32386 0.0
H634 H 0.25357 0.25354 0.36154 0.0
H635 H 0.25647 0.21147 0.34519 0.0
C636 C 0.20899 0.30041 0.46038 0.0
C637 C 0.20815 0.30855 0.43894 0.0
C638 C 0.18497 0.29482 0.4744 0.0
C639 C 0.10367 0.26877 0.47545 0.0
H640 H 0.11835 0.31955 0.52583 0.0
C641 C 0.00613 0.27774 0.5148 0.0
C642 C 0.00555 0.28059 0.53715 0.0
C643 C 0.0315 0.27909 0.50472 0.0
C644 C 0.11387 0.30472 0.51209 0.0
H645 H 0.1815 0.31682 0.41526 0.0
H646 H 0.13929 0.30622 0.43957 0.0
H647 H 0.16194 0.3248 0.50487 0.0
H648 H 0.03114 0.28719 0.56652 0.0
H649 H 0.07546 0.28878 0.54888 0.0
H650 H 0.05584 0.24844 0.48247 0.0
C651 C 0.15862 0.3045 0.44555 0.0
C652 C 0.13881 0.30782 0.5001 0.0
C653 C 0.18282 0.31069 0.43171 0.0
C654 C 0.03103 0.28504 0.54924 0.0
C655 C 0.05642 0.28603 0.53913 0.0
C656 C 0.07882 0.26531 0.48756 0.0
C657 C 0.15953 0.2966 0.46699 0.0
C658 C 0.13378 0.29047 0.48137 0.0
C659 C 0.05683 0.28287 0.51674 0.0
C660 C 0.08354 0.28394 0.50564 0.0
H661 H 0.22834 0.29874 0.46637 0.0
H662 H 0.18604 0.28874 0.4909 0.0
H663 H 0.09934 0.25489 0.46118 0.0
H664 H 0.98701 0.27468 0.50499 0.0
H665 H 0.03133 0.27749 0.48741 0.0
C666 C 0.90972 0.18881 0.61368 0.0
C667 C 0.89532 0.20227 0.60231 0.0
C668 C 0.89579 0.17094 0.63189 0.0
C669 C 0.83182 0.15033 0.67086 0.0
H670 H 0.8302 0.0724 0.67368 0.0
C671 C 0.73049 0.03784 0.70112 0.0
C672 C 0.73621 0.01812 0.71374 0.0
C673 C 0.75483 0.0652 0.69325 0.0
C674 C 0.83098 0.09435 0.67342 0.0
H675 H 0.85532 0.20807 0.60135 0.0
H676 H 0.83068 0.17632 0.63245 0.0
H677 H 0.86449 0.11151 0.64839 0.0
H678 H 0.77165 0.01193 0.72877 0.0
H679 H 0.81448 0.05962 0.71433 0.0
H680 H 0.79651 0.13198 0.69483 0.0
C681 C 0.85307 0.18006 0.62778 0.0
C682 C 0.85066 0.11683 0.65894 0.0
C683 C 0.86707 0.19805 0.60974 0.0
C684 C 0.76665 0.02684 0.71913 0.0
C685 C 0.7911 0.05398 0.71086 0.0
C686 C 0.81185 0.12768 0.68511 0.0
C687 C 0.86709 0.16606 0.639 0.0
C688 C 0.8505 0.14466 0.65695 0.0
C689 C 0.78534 0.07307 0.69754 0.0
C690 C 0.81059 0.09917 0.686 0.0
H691 H 0.93166 0.19188 0.60845 0.0
H692 H 0.90739 0.16078 0.64028 0.0
H693 H 0.83171 0.17182 0.67014 0.0
H694 H 0.7072 0.03168 0.69682 0.0
H695 H 0.7498 0.07938 0.68283 0.0
C696 C 0.19825 0.29785 0.31671 0.0
C697 C 0.21926 0.32498 0.32738 0.0
C698 C 0.18658 0.29914 0.2967 0.0
C699 C 0.17157 0.3489 0.262 0.0
H700 H 0.16606 0.2926 0.21735 0.0
C701 C 0.1267 0.35103 0.17703 0.0
C702 C 0.10705 0.32234 0.16756 0.0
C703 C 0.14257 0.35292 0.19589 0.0
C704 C 0.16715 0.30827 0.2297 0.0
H705 H 0.24435 0.37481 0.32547 0.0
H706 H 0.22366 0.37703 0.29044 0.0
H707 H 0.18955 0.29307 0.25161 0.0
H708 H 0.0887 0.27314 0.17045 0.0
H709 H 0.11582 0.27636 0.20347 0.0
H710 H 0.14852 0.36363 0.24031 0.0
C711 C 0.21628 0.35479 0.29765 0.0
C712 C 0.18068 0.30858 0.2493 0.0
C713 C 0.2282 0.3535 0.31764 0.0
C714 C 0.10377 0.29562 0.17727 0.0
C715 C 0.1195 0.2975 0.19615 0.0
C716 C 0.15784 0.34847 0.24242 0.0
C717 C 0.19547 0.32759 0.28694 0.0
C718 C 0.18273 0.32865 0.26574 0.0
C719 C 0.13905 0.32615 0.20573 0.0
C720 C 0.15516 0.32789 0.22612 0.0
H721 H 0.19087 0.27551 0.32375 0.0
H722 H 0.17026 0.27782 0.28896 0.0
H723 H 0.17259 0.36441 0.27446 0.0
H724 H 0.12983 0.37208 0.16989 0.0
H725 H 0.15774 0.37539 0.20268 0.0
C726 C 0.84313 0.20864 0.48834 0.0
C727 C 0.86801 0.23885 0.48677 0.0
C728 C 0.82564 0.19354 0.47027 0.0
C729 C 0.83085 0.19445 0.41142 0.0
H730 H 0.7426 0.13989 0.41462 0.0
C731 C 0.75885 0.13169 0.33684 0.0
C732 C 0.73724 0.10032 0.33954 0.0
C733 C 0.77327 0.15037 0.35461 0.0
C734 C 0.76727 0.15492 0.41351 0.0
H735 H 0.89346 0.27723 0.46511 0.0
H736 H 0.86275 0.25098 0.43365 0.0
H737 H 0.77054 0.16946 0.44614 0.0
H738 H 0.71331 0.06416 0.36306 0.0
H739 H 0.73862 0.09666 0.39397 0.0
H740 H 0.82769 0.17964 0.37892 0.0
C741 C 0.85706 0.2388 0.44879 0.0
C742 C 0.78326 0.17183 0.43156 0.0
C743 C 0.87455 0.25389 0.46685 0.0
C744 C 0.72985 0.08823 0.3604 0.0
C745 C 0.74422 0.10691 0.37815 0.0
C746 C 0.81486 0.17757 0.39339 0.0
C747 C 0.83263 0.20832 0.45023 0.0
C748 C 0.81528 0.19158 0.43078 0.0
C749 C 0.76634 0.13811 0.37545 0.0
C750 C 0.78294 0.15739 0.39428 0.0
H751 H 0.8375 0.19638 0.50345 0.0
H752 H 0.8072 0.16995 0.47189 0.0
H753 H 0.85557 0.20908 0.41037 0.0
H754 H 0.76498 0.14175 0.32099 0.0
H755 H 0.78994 0.17442 0.35202 0.0
C756 C 0.64711 0.8762 0.64299 0.0
C757 C 0.67521 0.89763 0.65243 0.0
C758 C 0.64665 0.86036 0.62442 0.0
C759 C 0.6934 0.83603 0.59382 0.0
H760 H 0.64049 0.8285 0.54621 0.0
C761 C 0.70551 0.79198 0.51137 0.0
C762 C 0.67857 0.77256 0.49992 0.0
C763 C 0.70427 0.80676 0.52998 0.0
C764 C 0.65509 0.83001 0.55947 0.0
H765 H 0.72482 0.91921 0.64977 0.0
H766 H 0.72396 0.89153 0.61747 0.0
H767 H 0.63958 0.85481 0.57888 0.0
H768 H 0.62913 0.75345 0.49902 0.0
H769 H 0.62688 0.77883 0.53176 0.0
H770 H 0.70878 0.81108 0.57463 0.0
C771 C 0.70231 0.88686 0.62449 0.0
C772 C 0.65459 0.84514 0.57815 0.0
C773 C 0.70279 0.90284 0.64293 0.0
C774 C 0.65033 0.76836 0.50744 0.0
C775 C 0.64906 0.78304 0.52615 0.0
C776 C 0.69377 0.82076 0.57522 0.0
C777 C 0.67425 0.86545 0.61503 0.0
C778 C 0.67394 0.84852 0.59545 0.0
C779 C 0.67602 0.80234 0.53769 0.0
C780 C 0.67483 0.81779 0.55773 0.0
H781 H 0.62546 0.87167 0.64992 0.0
H782 H 0.62468 0.84382 0.61758 0.0
H783 H 0.7082 0.83784 0.60703 0.0
H784 H 0.72767 0.79589 0.50594 0.0
H785 H 0.72556 0.82191 0.53822 0.0
C786 C 0.88985 0.6983 0.68444 0.0
C787 C 0.88321 0.67066 0.67431 0.0
C788 C 0.8733 0.69807 0.70248 0.0
C789 C 0.80108 0.64945 0.73257 0.0
H790 H 0.845 0.7074 0.77826 0.0
C791 C 0.74752 0.64603 0.81572 0.0
C792 C 0.75293 0.67448 0.82376 0.0
C793 C 0.76269 0.64477 0.79727 0.0
C794 C 0.83239 0.69125 0.76556 0.0
H795 H 0.85389 0.62106 0.67515 0.0
H796 H 0.82543 0.62058 0.70697 0.0
H797 H 0.8729 0.70648 0.7466 0.0
H798 H 0.77833 0.72386 0.81866 0.0
H799 H 0.80485 0.72159 0.78662 0.0
H800 H 0.76063 0.634 0.75185 0.0
C801 C 0.84306 0.64251 0.70073 0.0
C802 C 0.84834 0.69076 0.74737 0.0
C803 C 0.85949 0.64277 0.68254 0.0
C804 C 0.77365 0.70157 0.81292 0.0
C805 C 0.789 0.70032 0.79462 0.0
C806 C 0.78517 0.64978 0.75088 0.0
C807 C 0.84986 0.67017 0.71098 0.0
C808 C 0.83286 0.67005 0.73055 0.0
C809 C 0.78377 0.67193 0.78665 0.0
C810 C 0.80064 0.67086 0.76747 0.0
H811 H 0.90782 0.72021 0.6784 0.0
H812 H 0.87877 0.71985 0.70968 0.0
H813 H 0.78835 0.63347 0.71982 0.0
H814 H 0.73166 0.62475 0.8237 0.0
H815 H 0.75838 0.62259 0.79155 0.0
C816 C 0.181 0.88664 0.84392 0.0
C817 C 0.20876 0.88818 0.83809 0.0
C818 C 0.16621 0.87244 0.86302 0.0
C819 C 0.1795 0.84844 0.91597 0.0
H820 H 0.0908 0.79612 0.91603 0.0
C821 C 0.11192 0.77264 0.98846 0.0
C822 C 0.08395 0.77118 0.99358 0.0
C823 C 0.12771 0.78723 0.96969 0.0
C824 C 0.11554 0.81093 0.91634 0.0
H825 H 0.24283 0.87606 0.84778 0.0
H826 H 0.21683 0.85101 0.88106 0.0
H827 H 0.11725 0.8208 0.88287 0.0
H828 H 0.05091 0.78432 0.98317 0.0
H829 H 0.07858 0.80995 0.9506 0.0
H830 H 0.17773 0.83852 0.94948 0.0
C831 C 0.20668 0.8611 0.87096 0.0
C832 C 0.1307 0.82507 0.89733 0.0
C833 C 0.22149 0.8753 0.85183 0.0
C834 C 0.07232 0.78491 0.97967 0.0
C835 C 0.08808 0.79945 0.96092 0.0
C836 C 0.16432 0.83428 0.935 0.0
C837 C 0.17883 0.85943 0.87674 0.0
C838 C 0.16284 0.84408 0.89693 0.0
C839 C 0.11586 0.80062 0.95564 0.0
C840 C 0.13215 0.81546 0.93541 0.0
H841 H 0.17063 0.89644 0.83375 0.0
H842 H 0.14502 0.87194 0.86715 0.0
H843 H 0.20424 0.86327 0.91625 0.0
H844 H 0.12149 0.76226 0.99882 0.0
H845 H 0.14891 0.78749 0.96597 0.0
C846 C 0.33604 0.10579 0.15676 0.0
C847 C 0.32409 0.07379 0.15713 0.0
C848 C 0.33665 0.12066 0.13767 0.0
C849 C 0.29895 0.10638 0.08513 0.0
H850 H 0.37122 0.183 0.06881 0.0
C851 C 0.30933 0.16131 0.00222 0.0
C852 C 0.32278 0.19346 0.00131 0.0
C853 C 0.31018 0.14688 0.02114 0.0
C854 C 0.35071 0.16181 0.07325 0.0
H855 H 0.30357 0.03237 0.13772 0.0
H856 H 0.30462 0.05835 0.10448 0.0
H857 H 0.37138 0.1577 0.10215 0.0
H858 H 0.34772 0.2357 0.01958 0.0
H859 H 0.34869 0.2105 0.05268 0.0
H860 H 0.27807 0.11058 0.05646 0.0
C861 C 0.31334 0.07188 0.11897 0.0
C862 C 0.35085 0.14731 0.09234 0.0
C863 C 0.31292 0.05704 0.138 0.0
C864 C 0.33724 0.21088 0.01971 0.0
C865 C 0.33795 0.19644 0.03867 0.0
C866 C 0.29874 0.12095 0.06612 0.0
C867 C 0.32511 0.10382 0.11861 0.0
C868 C 0.325 0.1194 0.09844 0.0
C869 C 0.32435 0.16425 0.03964 0.0
C870 C 0.32464 0.14881 0.05991 0.0
H871 H 0.34481 0.11935 0.17123 0.0
H872 H 0.34563 0.14528 0.13792 0.0
H873 H 0.27851 0.08513 0.08958 0.0
H874 H 0.29816 0.14722 0.9883 0.0
H875 H 0.29992 0.1221 0.02121 0.0
loop_
_geom_bond_atom_site_label_1
_geom_bond_atom_site_label_2
_geom_bond_distance
_geom_bond_site_symmetry_2
_ccdc_geom_bond_type
C0 O1 1.160 . S
C0 O7 1.185 . S
O1 C0 1.160 . S
O2 Zn3 1.899 . S
O2 C10 1.284 . S
Zn3 O2 1.899 . S
Zn3 O4 2.032 . S
Zn3 O7 2.086 . S
Zn3 O12 1.977 . S
O4 Zn3 2.032 . S
O4 C8 1.278 . S
C5 O6 1.203 . S
C5 O12 1.267 . S
O6 C5 1.203 . S
O7 C0 1.185 . S
O7 Zn3 2.086 . S
C8 O4 1.278 . S
C8 O9 1.211 . S
O9 C8 1.211 . S
C10 O2 1.284 . S
C10 O11 1.273 . S
O11 C10 1.273 . S
O12 Zn3 1.977 . S
O12 C5 1.267 . S
C13 O14 1.160 . S
C13 O20 1.185 . S
O14 C13 1.160 . S
O15 Zn16 1.899 . S
O15 C23 1.284 . S
Zn16 O15 1.899 . S
Zn16 O17 2.032 . S
Zn16 O20 2.086 . S
Zn16 O25 1.977 . S
O17 Zn16 2.032 . S
O17 C21 1.278 . S
C18 O19 1.203 . S
C18 O25 1.267 . S
O19 C18 1.203 . S
O20 C13 1.185 . S
O20 Zn16 2.086 . S
C21 O17 1.278 . S
C21 O22 1.211 . S
O22 C21 1.211 . S
C23 O15 1.284 . S
C23 O24 1.273 . S
O24 C23 1.273 . S
O25 Zn16 1.977 . S
O25 C18 1.267 . S
C26 O27 1.160 . S
C26 O33 1.185 . S
O27 C26 1.160 . S
O28 Zn29 1.899 . S
O28 C36 1.284 . S
Zn29 O28 1.899 . S
Zn29 O30 2.032 . S
Zn29 O33 2.086 . S
Zn29 O38 1.977 . S
O30 Zn29 2.032 . S
O30 C34 1.278 . S
C31 O32 1.203 . S
C31 O38 1.267 . S
O32 C31 1.203 . S
O33 C26 1.185 . S
O33 Zn29 2.086 . S
C34 O30 1.278 . S
C34 O35 1.211 . S
O35 C34 1.211 . S
C36 O28 1.284 . S
C36 O37 1.273 . S
O37 C36 1.273 . S
O38 Zn29 1.977 . S
O38 C31 1.267 . S
C39 O40 1.160 . S
C39 O46 1.185 . S
O40 C39 1.160 . S
O41 Zn42 1.899 . S
O41 C49 1.284 . S
Zn42 O41 1.899 . S
Zn42 O43 2.032 . S
Zn42 O46 2.086 . S
Zn42 O51 1.977 . S
O43 Zn42 2.032 . S
O43 C47 1.278 . S
C44 O45 1.203 . S
C44 O51 1.267 . S
O45 C44 1.203 . S
O46 C39 1.185 . S
O46 Zn42 2.086 . S
C47 O43 1.278 . S
C47 O48 1.211 . S
O48 C47 1.211 . S
C49 O41 1.284 . S
C49 O50 1.273 . S
O50 C49 1.273 . S
O51 Zn42 1.977 . S
O51 C44 1.267 . S
C52 O53 1.160 . S
C52 O59 1.185 . S
O53 C52 1.160 . S
O54 Zn55 1.899 . S
O54 C62 1.284 . S
Zn55 O54 1.899 . S
Zn55 O56 2.032 . S
Zn55 O59 2.086 . S
Zn55 O64 1.977 . S
O56 Zn55 2.032 . S
O56 C60 1.278 . S
C57 O58 1.203 . S
C57 O64 1.267 . S
O58 C57 1.203 . S
O59 C52 1.185 . S
O59 Zn55 2.086 . S
C60 O56 1.278 . S
C60 O61 1.211 . S
O61 C60 1.211 . S
C62 O54 1.284 . S
C62 O63 1.273 . S
O63 C62 1.273 . S
O64 Zn55 1.977 . S
O64 C57 1.267 . S
C65 O66 1.160 . S
C65 O72 1.185 . S
O66 C65 1.160 . S
O67 Zn68 1.899 . S
O67 C75 1.284 . S
Zn68 O67 1.899 . S
Zn68 O69 2.032 . S
Zn68 O72 2.086 . S
Zn68 O77 1.977 . S
O69 Zn68 2.032 . S
O69 C73 1.278 . S
C70 O71 1.203 . S
C70 O77 1.267 . S
O71 C70 1.203 . S
O72 C65 1.185 . S
O72 Zn68 2.086 . S
C73 O69 1.278 . S
C73 O74 1.211 . S
O74 C73 1.211 . S
C75 O67 1.284 . S
C75 O76 1.273 . S
O76 C75 1.273 . S
O77 Zn68 1.977 . S
O77 C70 1.267 . S
C78 O79 1.160 . S
C78 O85 1.185 . S
O79 C78 1.160 . S
O80 Zn81 1.899 . S
O80 C88 1.284 . S
Zn81 O80 1.899 . S
Zn81 O82 2.032 . S
Zn81 O85 2.086 . S
Zn81 O90 1.977 . S
O82 Zn81 2.032 . S
O82 C86 1.278 . S
C83 O84 1.203 . S
C83 O90 1.267 . S
O84 C83 1.203 . S
O85 C78 1.185 . S
O85 Zn81 2.086 . S
C86 O82 1.278 . S
C86 O87 1.211 . S
O87 C86 1.211 . S
C88 O80 1.284 . S
C88 O89 1.273 . S
O89 C88 1.273 . S
O90 Zn81 1.977 . S
O90 C83 1.267 . S
C91 O92 1.160 . S
C91 O98 1.185 . S
O92 C91 1.160 . S
O93 Zn94 1.899 . S
O93 C101 1.284 . S
Zn94 O93 1.899 . S
Zn94 O95 2.032 . S
Zn94 O98 2.086 . S
Zn94 O103 1.977 . S
O95 Zn94 2.032 . S
O95 C99 1.278 . S
C96 O97 1.203 . S
C96 O103 1.267 . S
O97 C96 1.203 . S
O98 C91 1.185 . S
O98 Zn94 2.086 . S
C99 O95 1.278 . S
C99 O100 1.211 . S
O100 C99 1.211 . S
C101 O93 1.284 . S
C101 O102 1.273 . S
O102 C101 1.273 . S
O103 Zn94 1.977 . S
O103 C96 1.267 . S
C104 O105 1.160 . S
C104 O111 1.185 . S
O105 C104 1.160 . S
O106 Zn107 1.899 . S
O106 C114 1.284 . S
Zn107 O106 1.899 . S
Zn107 O108 2.032 . S
Zn107 O111 2.086 . S
Zn107 O116 1.977 . S
O108 Zn107 2.032 . S
O108 C112 1.278 . S
C109 O110 1.203 . S
C109 O116 1.267 . S
O110 C109 1.203 . S
O111 C104 1.185 . S
O111 Zn107 2.086 . S
C112 O108 1.278 . S
C112 O113 1.211 . S
O113 C112 1.211 . S
C114 O106 1.284 . S
C114 O115 1.273 . S
O115 C114 1.273 . S
O116 Zn107 1.977 . S
O116 C109 1.267 . S
C117 O118 1.160 . S
C117 O124 1.185 . S
O118 C117 1.160 . S
O119 Zn120 1.899 . S
O119 C127 1.284 . S
Zn120 O119 1.899 . S
Zn120 O121 2.032 . S
Zn120 O124 2.086 . S
Zn120 O129 1.977 . S
O121 Zn120 2.032 . S
O121 C125 1.278 . S
C122 O123 1.203 . S
C122 O129 1.267 . S
O123 C122 1.203 . S
O124 C117 1.185 . S
O124 Zn120 2.086 . S
C125 O121 1.278 . S
C125 O126 1.211 . S
O126 C125 1.211 . S
C127 O119 1.284 . S
C127 O128 1.273 . S
O128 C127 1.273 . S
O129 Zn120 1.977 . S
O129 C122 1.267 . S
C130 O131 1.160 . S
C130 O137 1.185 . S
O131 C130 1.160 . S
O132 Zn133 1.899 . S
O132 C140 1.284 . S
Zn133 O132 1.899 . S
Zn133 O134 2.032 . S
Zn133 O137 2.086 . S
Zn133 O142 1.977 . S
O134 Zn133 2.032 . S
O134 C138 1.278 . S
C135 O136 1.203 . S
C135 O142 1.267 . S
O136 C135 1.203 . S
O137 C130 1.185 . S
O137 Zn133 2.086 . S
C138 O134 1.278 . S
C138 O139 1.211 . S
O139 C138 1.211 . S
C140 O132 1.284 . S
C140 O141 1.273 . S
O141 C140 1.273 . S
O142 Zn133 1.977 . S
O142 C135 1.267 . S
C143 O144 1.160 . S
C143 O150 1.185 . S
O144 C143 1.160 . S
O145 Zn146 1.899 . S
O145 C153 1.284 . S
Zn146 O145 1.899 . S
Zn146 O147 2.032 . S
Zn146 O150 2.086 . S
Zn146 O155 1.977 . S
O147 Zn146 2.032 . S
O147 C151 1.278 . S
C148 O149 1.203 . S
C148 O155 1.267 . S
O149 C148 1.203 . S
O150 C143 1.185 . S
O150 Zn146 2.086 . S
C151 O147 1.278 . S
C151 O152 1.211 . S
O152 C151 1.211 . S
C153 O145 1.284 . S
C153 O154 1.273 . S
O154 C153 1.273 . S
O155 Zn146 1.977 . S
O155 C148 1.267 . S
C156 C157 1.349 . S
C156 C158 1.327 . S
C156 H181 0.950 . S
C157 C156 1.349 . S
C157 C173 1.349 . S
C158 C156 1.327 . S
C158 C177 1.429 . S
C158 H182 0.950 . S
C159 C176 1.574 . S
C159 C178 1.368 . S
C159 H183 0.949 . S
H160 C164 0.949 . S
C161 C162 1.349 . S
C161 C163 1.327 . S
C161 H184 0.950 . S
C162 C161 1.349 . S
C162 C174 1.349 . S
C163 C161 1.327 . S
C163 C179 1.429 . S
C163 H185 0.950 . S
C164 H160 0.949 . S
C164 C172 1.574 . S
C164 C180 1.368 . S
H165 C173 0.950 . S
H166 C171 0.950 . S
H167 C172 0.949 . S
H168 C174 0.950 . S
H169 C175 0.950 . S
H170 C176 0.949 . S
C171 H166 0.950 . S
C171 C173 1.327 . S
C171 C177 1.429 . S
C172 C164 1.574 . S
C172 H167 0.949 . S
C172 C178 1.368 . S
C173 C157 1.349 . S
C173 H165 0.950 . S
C173 C171 1.327 . S
C174 C162 1.349 . S
C174 H168 0.950 . S
C174 C175 1.327 . S
C175 H169 0.950 . S
C175 C174 1.327 . S
C175 C179 1.429 . S
C176 C159 1.574 . S
C176 H170 0.949 . S
C176 C180 1.368 . S
C177 C158 1.429 . S
C177 C171 1.429 . S
C177 C178 1.523 . S
C178 C159 1.368 . S
C178 C172 1.368 . S
C178 C177 1.523 . S
C179 C163 1.429 . S
C179 C175 1.429 . S
C179 C180 1.523 . S
C180 C164 1.368 . S
C180 C176 1.368 . S
C180 C179 1.523 . S
H181 C156 0.950 . S
H182 C158 0.950 . S
H183 C159 0.949 . S
H184 C161 0.950 . S
H185 C163 0.950 . S
C186 C187 1.349 . S
C186 C188 1.327 . S
C186 H211 0.950 . S
C187 C186 1.349 . S
C187 C203 1.349 . S
C188 C186 1.327 . S
C188 C207 1.429 . S
C188 H212 0.950 . S
C189 C206 1.574 . S
C189 C208 1.368 . S
C189 H213 0.949 . S
H190 C194 0.949 . S
C191 C192 1.349 . S
C191 C193 1.327 . S
C191 H214 0.950 . S
C192 C191 1.349 . S
C192 C204 1.349 . S
C193 C191 1.327 . S
C193 C209 1.429 . S
C193 H215 0.950 . S
C194 H190 0.949 . S
C194 C202 1.574 . S
C194 C210 1.368 . S
H195 C203 0.950 . S
H196 C201 0.950 . S
H197 C202 0.949 . S
H198 C204 0.950 . S
H199 C205 0.950 . S
H200 C206 0.949 . S
C201 H196 0.950 . S
C201 C203 1.327 . S
C201 C207 1.429 . S
C202 C194 1.574 . S
C202 H197 0.949 . S
C202 C208 1.368 . S
C203 C187 1.349 . S
C203 H195 0.950 . S
C203 C201 1.327 . S
C204 C192 1.349 . S
C204 H198 0.950 . S
C204 C205 1.327 . S
C205 H199 0.950 . S
C205 C204 1.327 . S
C205 C209 1.429 . S
C206 C189 1.574 . S
C206 H200 0.949 . S
C206 C210 1.368 . S
C207 C188 1.429 . S
C207 C201 1.429 . S
C207 C208 1.523 . S
C208 C189 1.368 . S
C208 C202 1.368 . S
C208 C207 1.523 . S
C209 C193 1.429 . S
C209 C205 1.429 . S
C209 C210 1.523 . S
C210 C194 1.368 . S
C210 C206 1.368 . S
C210 C209 1.523 . S
H211 C186 0.950 . S
H212 C188 0.950 . S
H213 C189 0.949 . S
H214 C191 0.950 . S
H215 C193 0.950 . S
C216 C217 1.349 . S
C216 C218 1.327 . S
C216 H241 0.950 . S
C217 C216 1.349 . S
C217 C233 1.349 . S
C218 C216 1.327 . S
C218 C237 1.429 . S
C218 H242 0.950 . S
C219 C236 1.574 . S
C219 C238 1.368 . S
C219 H243 0.949 . S
H220 C224 0.949 . S
C221 C222 1.349 . S
C221 C223 1.327 . S
C221 H244 0.950 . S
C222 C221 1.349 . S
C222 C234 1.349 . S
C223 C221 1.327 . S
C223 C239 1.429 . S
C223 H245 0.950 . S
C224 H220 0.949 . S
C224 C232 1.574 . S
C224 C240 1.368 . S
H225 C233 0.950 . S
H226 C231 0.950 . S
H227 C232 0.949 . S
H228 C234 0.950 . S
H229 C235 0.950 . S
H230 C236 0.949 . S
C231 H226 0.950 . S
C231 C233 1.327 . S
C231 C237 1.429 . S
C232 C224 1.574 . S
C232 H227 0.949 . S
C232 C238 1.368 . S
C233 C217 1.349 . S
C233 H225 0.950 . S
C233 C231 1.327 . S
C234 C222 1.349 . S
C234 H228 0.950 . S
C234 C235 1.327 . S
C235 H229 0.950 . S
C235 C234 1.327 . S
C235 C239 1.429 . S
C236 C219 1.574 . S
C236 H230 0.949 . S
C236 C240 1.368 . S
C237 C218 1.429 . S
C237 C231 1.429 . S
C237 C238 1.523 . S
C238 C219 1.368 . S
C238 C232 1.368 . S
C238 C237 1.523 . S
C239 C223 1.429 . S
C239 C235 1.429 . S
C239 C240 1.523 . S
C240 C224 1.368 . S
C240 C236 1.368 . S
C240 C239 1.523 . S
H241 C216 0.950 . S
H242 C218 0.950 . S
H243 C219 0.949 . S
H244 C221 0.950 . S
H245 C223 0.950 . S
C246 C247 1.349 . S
C246 C248 1.327 . S
C246 H271 0.950 . S
C247 C246 1.349 . S
C247 C263 1.349 . S
C248 C246 1.327 . S
C248 C267 1.429 . S
C248 H272 0.950 . S
C249 C266 1.574 . S
C249 C268 1.368 . S
C249 H273 0.949 . S
H250 C254 0.949 . S
C251 C252 1.349 . S
C251 C253 1.327 . S
C251 H274 0.950 . S
C252 C251 1.349 . S
C252 C264 1.349 . S
C253 C251 1.327 . S
C253 C269 1.429 . S
C253 H275 0.950 . S
C254 H250 0.949 . S
C254 C262 1.574 . S
C254 C270 1.368 . S
H255 C263 0.950 . S
H256 C261 0.950 . S
H257 C262 0.949 . S
H258 C264 0.950 . S
H259 C265 0.950 . S
H260 C266 0.949 . S
C261 H256 0.950 . S
C261 C263 1.327 . S
C261 C267 1.429 . S
C262 C254 1.574 . S
C262 H257 0.949 . S
C262 C268 1.368 . S
C263 C247 1.349 . S
C263 H255 0.950 . S
C263 C261 1.327 . S
C264 C252 1.349 . S
C264 H258 0.950 . S
C264 C265 1.327 . S
C265 H259 0.950 . S
C265 C264 1.327 . S
C265 C269 1.429 . S
C266 C249 1.574 . S
C266 H260 0.949 . S
C266 C270 1.368 . S
C267 C248 1.429 . S
C267 C261 1.429 . S
C267 C268 1.523 . S
C268 C249 1.368 . S
C268 C262 1.368 . S
C268 C267 1.523 . S
C269 C253 1.429 . S
C269 C265 1.429 . S
C269 C270 1.523 . S
C270 C254 1.368 . S
C270 C266 1.368 . S
C270 C269 1.523 . S
H271 C246 0.950 . S
H272 C248 0.950 . S
H273 C249 0.949 . S
H274 C251 0.950 . S
H275 C253 0.950 . S
C276 C277 1.349 . S
C276 C278 1.327 . S
C276 H301 0.950 . S
C277 C276 1.349 . S
C277 C293 1.349 . S
C278 C276 1.327 . S
C278 C297 1.429 . S
C278 H302 0.950 . S
C279 C296 1.574 . S
C279 C298 1.368 . S
C279 H303 0.949 . S
H280 C284 0.949 . S
C281 C282 1.349 . S
C281 C283 1.327 . S
C281 H304 0.950 . S
C282 C281 1.349 . S
C282 C294 1.349 . S
C283 C281 1.327 . S
C283 C299 1.429 . S
C283 H305 0.950 . S
C284 H280 0.949 . S
C284 C292 1.574 . S
C284 C300 1.368 . S
H285 C293 0.950 . S
H286 C291 0.950 . S
H287 C292 0.949 . S
H288 C294 0.950 . S
H289 C295 0.950 . S
H290 C296 0.949 . S
C291 H286 0.950 . S
C291 C293 1.327 . S
C291 C297 1.429 . S
C292 C284 1.574 . S
C292 H287 0.949 . S
C292 C298 1.368 . S
C293 C277 1.349 . S
C293 H285 0.950 . S
C293 C291 1.327 . S
C294 C282 1.349 . S
C294 H288 0.950 . S
C294 C295 1.327 . S
C295 H289 0.950 . S
C295 C294 1.327 . S
C295 C299 1.429 . S
C296 C279 1.574 . S
C296 H290 0.949 . S
C296 C300 1.368 . S
C297 C278 1.429 . S
C297 C291 1.429 . S
C297 C298 1.523 . S
C298 C279 1.368 . S
C298 C292 1.368 . S
C298 C297 1.523 . S
C299 C283 1.429 . S
C299 C295 1.429 . S
C299 C300 1.523 . S
C300 C284 1.368 . S
C300 C296 1.368 . S
C300 C299 1.523 . S
H301 C276 0.950 . S
H302 C278 0.950 . S
H303 C279 0.949 . S
H304 C281 0.950 . S
H305 C283 0.950 . S
C306 C307 1.349 . S
C306 C308 1.327 . S
C306 H331 0.950 . S
C307 C306 1.349 . S
C307 C323 1.349 . S
C308 C306 1.327 . S
C308 C327 1.429 . S
C308 H332 0.950 . S
C309 C326 1.574 . S
C309 C328 1.368 . S
C309 H333 0.949 . S
H310 C314 0.949 . S
C311 C312 1.349 . S
C311 C313 1.327 . S
C311 H334 0.950 . S
C312 C311 1.349 . S
C312 C324 1.349 . S
C313 C311 1.327 . S
C313 C329 1.429 . S
C313 H335 0.950 . S
C314 H310 0.949 . S
C314 C322 1.574 . S
C314 C330 1.368 . S
H315 C323 0.950 . S
H316 C321 0.950 . S
H317 C322 0.949 . S
H318 C324 0.950 . S
H319 C325 0.950 . S
H320 C326 0.949 . S
C321 H316 0.950 . S
C321 C323 1.327 . S
C321 C327 1.429 . S
C322 C314 1.574 . S
C322 H317 0.949 . S
C322 C328 1.368 . S
C323 C307 1.349 . S
C323 H315 0.950 . S
C323 C321 1.327 . S
C324 C312 1.349 . S
C324 H318 0.950 . S
C324 C325 1.327 . S
C325 H319 0.950 . S
C325 C324 1.327 . S
C325 C329 1.429 . S
C326 C309 1.574 . S
C326 H320 0.949 . S
C326 C330 1.368 . S
C327 C308 1.429 . S
C327 C321 1.429 . S
C327 C328 1.523 . S
C328 C309 1.368 . S
C328 C322 1.368 . S
C328 C327 1.523 . S
C329 C313 1.429 . S
C329 C325 1.429 . S
C329 C330 1.523 . S
C330 C314 1.368 . S
C330 C326 1.368 . S
C330 C329 1.523 . S
H331 C306 0.950 . S
H332 C308 0.950 . S
H333 C309 0.949 . S
H334 C311 0.950 . S
H335 C313 0.950 . S
C336 C337 1.349 . S
C336 C338 1.327 . S
C336 H361 0.950 . S
C337 C336 1.349 . S
C337 C353 1.349 . S
C338 C336 1.327 . S
C338 C357 1.429 . S
C338 H362 0.950 . S
C339 C356 1.574 . S
C339 C358 1.368 . S
C339 H363 0.949 . S
H340 C344 0.949 1_556 S
C341 C342 1.349 . S
C341 C343 1.327 1_556 S
C341 H364 0.950 . S
C342 C341 1.349 . S
C342 C354 1.349 . S
C343 C341 1.327 1_554 S
C343 C359 1.423 1_554 S
C343 H365 0.950 . S
C344 H340 0.949 1_554 S
C344 C352 1.574 . S
C344 C360 1.368 . S
H345 C353 0.950 . S
H346 C351 0.950 . S
H347 C352 0.949 . S
H348 C354 0.950 . S
H349 C355 0.950 . S
H350 C356 0.949 . S
C351 H346 0.950 . S
C351 C353 1.327 . S
C351 C357 1.429 . S
C352 C344 1.574 . S
C352 H347 0.949 . S
C352 C358 1.368 . S
C353 C337 1.349 . S
C353 H345 0.950 . S
C353 C351 1.327 . S
C354 C342 1.349 . S
C354 H348 0.950 . S
C354 C355 1.327 . S
C355 H349 0.950 . S
C355 C354 1.327 . S
C355 C359 1.451 . S
C356 C339 1.574 . S
C356 H350 0.949 . S
C356 C360 1.368 . S
C357 C338 1.429 . S
C357 C351 1.429 . S
C357 C358 1.523 . S
C358 C339 1.368 . S
C358 C352 1.368 . S
C358 C357 1.523 . S
C359 C343 1.423 1_556 S
C359 C355 1.451 . S
C359 C360 1.507 1_556 S
C360 C344 1.368 . S
C360 C356 1.368 . S
C360 C359 1.507 1_554 S
H361 C336 0.950 . S
H362 C338 0.950 . S
H363 C339 0.949 . S
H364 C341 0.950 . S
H365 C343 0.950 . S
C366 C367 1.349 . S
C366 C368 1.327 . S
C366 H391 0.950 . S
C367 C366 1.349 . S
C367 C383 1.349 . S
C368 C366 1.327 . S
C368 C387 1.429 . S
C368 H392 0.950 . S
C369 C386 1.574 . S
C369 C388 1.368 . S
C369 H393 0.949 . S
H370 C374 0.949 . S
C371 C372 1.349 . S
C371 C373 1.327 . S
C371 H394 0.950 . S
C372 C371 1.349 . S
C372 C384 1.349 . S
C373 C371 1.327 . S
C373 C389 1.429 . S
C373 H395 0.950 . S
C374 H370 0.949 . S
C374 C382 1.574 . S
C374 C390 1.368 . S
H375 C383 0.950 . S
H376 C381 0.950 . S
H377 C382 0.949 . S
H378 C384 0.950 1_455 S
H379 C385 0.950 . S
H380 C386 0.949 . S
C381 H376 0.950 . S
C381 C383 1.327 . S
C381 C387 1.429 . S
C382 C374 1.574 . S
C382 H377 0.949 . S
C382 C388 1.368 . S
C383 C367 1.349 . S
C383 H375 0.950 . S
C383 C381 1.327 . S
C384 C372 1.349 . S
C384 H378 0.950 1_655 S
C384 C385 1.327 . S
C385 H379 0.950 . S
C385 C384 1.327 . S
C385 C389 1.429 . S
C386 C369 1.574 . S
C386 H380 0.949 . S
C386 C390 1.368 . S
C387 C368 1.429 . S
C387 C381 1.429 . S
C387 C388 1.523 . S
C388 C369 1.368 . S
C388 C382 1.368 . S
C388 C387 1.523 . S
C389 C373 1.429 . S
C389 C385 1.429 . S
C389 C390 1.523 . S
C390 C374 1.368 . S
C390 C386 1.368 . S
C390 C389 1.523 . S
H391 C366 0.950 . S
H392 C368 0.950 . S
H393 C369 0.949 . S
H394 C371 0.950 . S
H395 C373 0.950 . S
C396 C397 1.349 . S
C396 C398 1.327 . S
C396 H421 0.950 . S
C397 C396 1.349 . S
C397 C413 1.349 . S
C398 C396 1.327 . S
C398 C417 1.429 . S
C398 H422 0.950 . S
C399 C416 1.574 . S
C399 C418 1.368 . S
C399 H423 0.949 . S
H400 C404 0.949 . S
C401 C402 1.349 . S
C401 C403 1.327 . S
C401 H424 0.950 1_565 S
C402 C401 1.349 . S
C402 C414 1.349 . S
C403 C401 1.327 . S
C403 C419 1.429 . S
C403 H425 0.950 . S
C404 H400 0.949 . S
C404 C412 1.574 . S
C404 C420 1.368 . S
H405 C413 0.950 . S
H406 C411 0.950 . S
H407 C412 0.949 . S
H408 C414 0.950 . S
H409 C415 0.950 . S
H410 C416 0.949 . S
C411 H406 0.950 . S
C411 C413 1.327 . S
C411 C417 1.429 . S
C412 C404 1.574 . S
C412 H407 0.949 . S
C412 C418 1.368 . S
C413 C397 1.349 . S
C413 H405 0.950 . S
C413 C411 1.327 . S
C414 C402 1.349 . S
C414 H408 0.950 . S
C414 C415 1.327 . S
C415 H409 0.950 . S
C415 C414 1.327 . S
C415 C419 1.429 . S
C416 C399 1.574 . S
C416 H410 0.949 . S
C416 C420 1.368 . S
C417 C398 1.429 . S
C417 C411 1.429 . S
C417 C418 1.523 . S
C418 C399 1.368 . S
C418 C412 1.368 . S
C418 C417 1.523 . S
C419 C403 1.429 . S
C419 C415 1.429 . S
C419 C420 1.523 . S
C420 C404 1.368 . S
C420 C416 1.368 . S
C420 C419 1.523 . S
H421 C396 0.950 . S
H422 C398 0.950 . S
H423 C399 0.949 . S
H424 C401 0.950 1_545 S
H425 C403 0.950 . S
C426 C427 1.349 . S
C426 C428 1.327 . S
C426 H451 0.950 . S
C427 C426 1.349 . S
C427 C443 1.349 . S
C428 C426 1.327 . S
C428 C447 1.429 . S
C428 H452 0.950 . S
C429 C446 1.574 . S
C429 C448 1.368 . S
C429 H453 0.949 . S
H430 C434 0.949 . S
C431 C432 1.349 . S
C431 C433 1.327 . S
C431 H454 0.950 . S
C432 C431 1.349 . S
C432 C444 1.349 . S
C433 C431 1.327 . S
C433 C449 1.429 . S
C433 H455 0.950 . S
C434 H430 0.949 . S
C434 C442 1.574 . S
C434 C450 1.368 . S
H435 C443 0.950 . S
H436 C441 0.950 . S
H437 C442 0.949 . S
H438 C444 0.950 . S
H439 C445 0.950 . S
H440 C446 0.949 . S
C441 H436 0.950 . S
C441 C443 1.327 . S
C441 C447 1.429 . S
C442 C434 1.574 . S
C442 H437 0.949 . S
C442 C448 1.368 . S
C443 C427 1.349 . S
C443 H435 0.950 . S
C443 C441 1.327 . S
C444 C432 1.349 . S
C444 H438 0.950 . S
C444 C445 1.327 . S
C445 H439 0.950 . S
C445 C444 1.327 . S
C445 C449 1.429 . S
C446 C429 1.574 . S
C446 H440 0.949 . S
C446 C450 1.368 . S
C447 C428 1.429 . S
C447 C441 1.429 . S
C447 C448 1.523 . S
C448 C429 1.368 . S
C448 C442 1.368 . S
C448 C447 1.523 . S
C449 C433 1.429 . S
C449 C445 1.429 . S
C449 C450 1.523 . S
C450 C434 1.368 . S
C450 C446 1.368 . S
C450 C449 1.523 . S
H451 C426 0.950 . S
H452 C428 0.950 . S
H453 C429 0.949 . S
H454 C431 0.950 . S
H455 C433 0.950 . S
C456 C457 1.349 . S
C456 C458 1.327 . S
C456 H481 0.950 . S
C457 C456 1.349 . S
C457 C473 1.349 . S
C458 C456 1.327 . S
C458 C477 1.429 . S
C458 H482 0.950 . S
C459 C476 1.574 . S
C459 C478 1.368 . S
C459 H483 0.949 . S
H460 C464 0.949 . S
C461 C462 1.349 . S
C461 C463 1.327 . S
C461 H484 0.950 . S
C462 C461 1.349 . S
C462 C474 1.349 . S
C463 C461 1.327 . S
C463 C479 1.429 . S
C463 H485 0.950 . S
C464 H460 0.949 . S
C464 C472 1.574 . S
C464 C480 1.368 . S
H465 C473 0.950 . S
H466 C471 0.950 . S
H467 C472 0.949 . S
H468 C474 0.950 . S
H469 C475 0.950 . S
H470 C476 0.949 . S
C471 H466 0.950 . S
C471 C473 1.327 . S
C471 C477 1.429 . S
C472 C464 1.574 . S
C472 H467 0.949 . S
C472 C478 1.368 . S
C473 C457 1.349 . S
C473 H465 0.950 . S
C473 C471 1.327 . S
C474 C462 1.349 . S
C474 H468 0.950 . S
C474 C475 1.327 . S
C475 H469 0.950 . S
C475 C474 1.327 . S
C475 C479 1.429 . S
C476 C459 1.574 . S
C476 H470 0.949 . S
C476 C480 1.368 . S
C477 C458 1.429 . S
C477 C471 1.429 . S
C477 C478 1.523 . S
C478 C459 1.368 . S
C478 C472 1.368 . S
C478 C477 1.523 . S
C479 C463 1.429 . S
C479 C475 1.429 . S
C479 C480 1.523 . S
C480 C464 1.368 . S
C480 C476 1.368 . S
C480 C479 1.523 . S
H481 C456 0.950 . S
H482 C458 0.950 . S
H483 C459 0.949 . S
H484 C461 0.950 . S
H485 C463 0.950 . S
C486 C487 1.349 . S
C486 C488 1.327 . S
C486 H511 0.950 . S
C487 C486 1.349 . S
C487 C503 1.349 . S
C488 C486 1.327 . S
C488 C507 1.429 . S
C488 H512 0.950 . S
C489 C506 1.574 . S
C489 C508 1.368 . S
C489 H513 0.949 . S
H490 C494 0.949 . S
C491 C492 1.349 . S
C491 C493 1.327 . S
C491 H514 0.950 . S
C492 C491 1.349 . S
C492 C504 1.349 . S
C493 C491 1.327 . S
C493 C509 1.429 . S
C493 H515 0.950 . S
C494 H490 0.949 . S
C494 C502 1.574 . S
C494 C510 1.368 . S
H495 C503 0.950 1_565 S
H496 C501 0.950 . S
H497 C502 0.949 . S
H498 C504 0.950 . S
H499 C505 0.950 . S
H500 C506 0.949 . S
C501 H496 0.950 . S
C501 C503 1.327 . S
C501 C507 1.429 . S
C502 C494 1.574 . S
C502 H497 0.949 . S
C502 C508 1.368 . S
C503 C487 1.349 . S
C503 H495 0.950 1_545 S
C503 C501 1.327 . S
C504 C492 1.349 . S
C504 H498 0.950 . S
C504 C505 1.327 . S
C505 H499 0.950 . S
C505 C504 1.327 . S
C505 C509 1.429 . S
C506 C489 1.574 . S
C506 H500 0.949 . S
C506 C510 1.368 . S
C507 C488 1.429 . S
C507 C501 1.429 . S
C507 C508 1.523 . S
C508 C489 1.368 . S
C508 C502 1.368 . S
C508 C507 1.523 . S
C509 C493 1.429 . S
C509 C505 1.429 . S
C509 C510 1.523 . S
C510 C494 1.368 . S
C510 C506 1.368 . S
C510 C509 1.523 . S
H511 C486 0.950 . S
H512 C488 0.950 . S
H513 C489 0.949 . S
H514 C491 0.950 . S
H515 C493 0.950 . S
C516 C517 1.349 . S
C516 C518 1.327 . S
C516 H541 0.950 . S
C517 C516 1.349 . S
C517 C533 1.349 . S
C518 C516 1.327 . S
C518 C537 1.429 . S
C518 H542 0.950 . S
C519 C536 1.574 . S
C519 C538 1.368 . S
C519 H543 0.949 . S
H520 C524 0.949 . S
C521 C522 1.349 . S
C521 C523 1.327 . S
C521 H544 0.950 . S
C522 C521 1.349 . S
C522 C534 1.349 . S
C523 C521 1.327 . S
C523 C539 1.429 . S
C523 H545 0.950 . S
C524 H520 0.949 . S
C524 C532 1.574 . S
C524 C540 1.368 . S
H525 C533 0.950 . S
H526 C531 0.950 . S
H527 C532 0.949 . S
H528 C534 0.950 . S
H529 C535 0.950 . S
H530 C536 0.949 . S
C531 H526 0.950 . S
C531 C533 1.327 . S
C531 C537 1.429 . S
C532 C524 1.574 . S
C532 H527 0.949 . S
C532 C538 1.368 . S
C533 C517 1.349 . S
C533 H525 0.950 . S
C533 C531 1.327 . S
C534 C522 1.349 . S
C534 H528 0.950 . S
C534 C535 1.327 . S
C535 H529 0.950 . S
C535 C534 1.327 . S
C535 C539 1.429 . S
C536 C519 1.574 . S
C536 H530 0.949 . S
C536 C540 1.368 . S
C537 C518 1.429 . S
C537 C531 1.429 . S
C537 C538 1.523 . S
C538 C519 1.368 . S
C538 C532 1.368 . S
C538 C537 1.523 . S
C539 C523 1.429 . S
C539 C535 1.429 . S
C539 C540 1.523 . S
C540 C524 1.368 . S
C540 C536 1.368 . S
C540 C539 1.523 . S
H541 C516 0.950 . S
H542 C518 0.950 . S
H543 C519 0.949 . S
H544 C521 0.950 . S
H545 C523 0.950 . S
C546 C547 1.349 . S
C546 C548 1.327 . S
C546 H571 0.950 . S
C547 C546 1.349 . S
C547 C563 1.349 . S
C548 C546 1.327 . S
C548 C567 1.429 . S
C548 H572 0.950 . S
C549 C566 1.574 . S
C549 C568 1.368 . S
C549 H573 0.949 . S
H550 C554 0.949 . S
C551 C552 1.349 . S
C551 C553 1.327 . S
C551 H574 0.950 . S
C552 C551 1.349 . S
C552 C564 1.349 . S
C553 C551 1.327 . S
C553 C569 1.443 . S
C553 H575 0.950 . S
C554 H550 0.949 . S
C554 C562 1.574 . S
C554 C570 1.368 . S
H555 C563 0.950 . S
H556 C561 0.950 . S
H557 C562 0.949 . S
H558 C564 0.950 . S
H559 C565 0.950 1_556 S
H560 C566 0.949 . S
C561 H556 0.950 . S
C561 C563 1.327 . S
C561 C567 1.429 . S
C562 C554 1.574 . S
C562 H557 0.949 . S
C562 C568 1.368 . S
C563 C547 1.349 . S
C563 H555 0.950 . S
C563 C561 1.327 . S
C564 C552 1.349 . S
C564 H558 0.950 . S
C564 C565 1.327 . S
C565 H559 0.950 1_554 S
C565 C564 1.327 . S
C565 C569 1.431 . S
C566 C549 1.574 . S
C566 H560 0.949 . S
C566 C570 1.368 . S
C567 C548 1.429 . S
C567 C561 1.429 . S
C567 C568 1.523 . S
C568 C549 1.368 . S
C568 C562 1.368 . S
C568 C567 1.523 . S
C569 C553 1.443 . S
C569 C565 1.431 . S
C569 C570 1.508 1_554 S
C570 C554 1.368 . S
C570 C566 1.368 . S
C570 C569 1.508 1_556 S
H571 C546 0.950 . S
H572 C548 0.950 . S
H573 C549 0.949 . S
H574 C551 0.950 . S
H575 C553 0.950 . S
C576 C577 1.349 . S
C576 C578 1.327 . S
C576 H601 0.950 1_565 S
C577 C576 1.349 . S
C577 C593 1.349 . S
C578 C576 1.327 . S
C578 C597 1.429 . S
C578 H602 0.950 . S
C579 C596 1.574 . S
C579 C598 1.368 . S
C579 H603 0.949 . S
H580 C584 0.949 . S
C581 C582 1.349 . S
C581 C583 1.327 . S
C581 H604 0.950 . S
C582 C581 1.349 . S
C582 C594 1.349 . S
C583 C581 1.327 . S
C583 C599 1.429 . S
C583 H605 0.950 . S
C584 H580 0.949 . S
C584 C592 1.574 . S
C584 C600 1.368 . S
H585 C593 0.950 . S
H586 C591 0.950 . S
H587 C592 0.949 . S
H588 C594 0.950 . S
H589 C595 0.950 . S
H590 C596 0.949 . S
C591 H586 0.950 . S
C591 C593 1.327 . S
C591 C597 1.429 . S
C592 C584 1.574 . S
C592 H587 0.949 . S
C592 C598 1.368 . S
C593 C577 1.349 . S
C593 H585 0.950 . S
C593 C591 1.327 . S
C594 C582 1.349 . S
C594 H588 0.950 . S
C594 C595 1.327 . S
C595 H589 0.950 . S
C595 C594 1.327 . S
C595 C599 1.429 . S
C596 C579 1.574 . S
C596 H590 0.949 . S
C596 C600 1.368 . S
C597 C578 1.429 . S
C597 C591 1.429 . S
C597 C598 1.523 . S
C598 C579 1.368 . S
C598 C592 1.368 . S
C598 C597 1.523 . S
C599 C583 1.429 . S
C599 C595 1.429 . S
C599 C600 1.523 . S
C600 C584 1.368 . S
C600 C596 1.368 . S
C600 C599 1.523 . S
H601 C576 0.950 1_545 S
H602 C578 0.950 . S
H603 C579 0.949 . S
H604 C581 0.950 . S
H605 C583 0.950 . S
C606 C607 1.349 . S
C606 C608 1.327 . S
C606 H631 0.950 . S
C607 C606 1.349 . S
C607 C623 1.349 . S
C608 C606 1.327 . S
C608 C627 1.429 . S
C608 H632 0.950 . S
C609 C626 1.574 . S
C609 C628 1.368 . S
C609 H633 0.949 . S
H610 C614 0.949 . S
C611 C612 1.349 . S
C611 C613 1.327 . S
C611 H634 0.950 . S
C612 C611 1.349 . S
C612 C624 1.349 . S
C613 C611 1.327 . S
C613 C629 1.429 . S
C613 H635 0.950 . S
C614 H610 0.949 . S
C614 C622 1.574 . S
C614 C630 1.368 . S
H615 C623 0.950 . S
H616 C621 0.950 . S
H617 C622 0.949 . S
H618 C624 0.950 . S
H619 C625 0.950 . S
H620 C626 0.949 . S
C621 H616 0.950 . S
C621 C623 1.327 . S
C621 C627 1.429 . S
C622 C614 1.574 . S
C622 H617 0.949 . S
C622 C628 1.368 . S
C623 C607 1.349 . S
C623 H615 0.950 . S
C623 C621 1.327 . S
C624 C612 1.349 . S
C624 H618 0.950 . S
C624 C625 1.327 . S
C625 H619 0.950 . S
C625 C624 1.327 . S
C625 C629 1.429 . S
C626 C609 1.574 . S
C626 H620 0.949 . S
C626 C630 1.368 . S
C627 C608 1.429 . S
C627 C621 1.429 . S
C627 C628 1.523 . S
C628 C609 1.368 . S
C628 C622 1.368 . S
C628 C627 1.523 . S
C629 C613 1.429 . S
C629 C625 1.429 . S
C629 C630 1.523 . S
C630 C614 1.368 . S
C630 C626 1.368 . S
C630 C629 1.523 . S
H631 C606 0.950 . S
H632 C608 0.950 . S
H633 C609 0.949 . S
H634 C611 0.950 . S
H635 C613 0.950 . S
C636 C637 1.349 . S
C636 C638 1.327 . S
C636 H661 0.950 . S
C637 C636 1.349 . S
C637 C653 1.349 . S
C638 C636 1.327 . S
C638 C657 1.429 . S
C638 H662 0.950 . S
C639 C656 1.574 . S
C639 C658 1.368 . S
C639 H663 0.949 . S
H640 C644 0.949 . S
C641 C642 1.349 . S
C641 C643 1.327 . S
C641 H664 0.950 . S
C642 C641 1.349 . S
C642 C654 1.349 . S
C643 C641 1.327 . S
C643 C659 1.429 . S
C643 H665 0.950 . S
C644 H640 0.949 . S
C644 C652 1.574 . S
C644 C660 1.368 . S
H645 C653 0.950 . S
H646 C651 0.950 . S
H647 C652 0.949 . S
H648 C654 0.950 . S
H649 C655 0.950 . S
H650 C656 0.949 . S
C651 H646 0.950 . S
C651 C653 1.327 . S
C651 C657 1.429 . S
C652 C644 1.574 . S
C652 H647 0.949 . S
C652 C658 1.368 . S
C653 C637 1.349 . S
C653 H645 0.950 . S
C653 C651 1.327 . S
C654 C642 1.349 . S
C654 H648 0.950 . S
C654 C655 1.327 . S
C655 H649 0.950 . S
C655 C654 1.327 . S
C655 C659 1.429 . S
C656 C639 1.574 . S
C656 H650 0.949 . S
C656 C660 1.368 . S
C657 C638 1.429 . S
C657 C651 1.429 . S
C657 C658 1.523 . S
C658 C639 1.368 . S
C658 C652 1.368 . S
C658 C657 1.523 . S
C659 C643 1.429 . S
C659 C655 1.429 . S
C659 C660 1.523 . S
C660 C644 1.368 . S
C660 C656 1.368 . S
C660 C659 1.523 . S
H661 C636 0.950 . S
H662 C638 0.950 . S
H663 C639 0.949 . S
H664 C641 0.950 . S
H665 C643 0.950 . S
C666 C667 1.349 . S
C666 C668 1.327 . S
C666 H691 0.950 . S
C667 C666 1.349 . S
C667 C683 1.349 . S
C668 C666 1.327 . S
C668 C687 1.429 . S
C668 H692 0.950 . S
C669 C686 1.574 . S
C669 C688 1.368 . S
C669 H693 0.949 . S
H670 C674 0.949 . S
C671 C672 1.349 . S
C671 C673 1.327 . S
C671 H694 0.950 . S
C672 C671 1.349 . S
C672 C684 1.349 . S
C673 C671 1.327 . S
C673 C689 1.429 . S
C673 H695 0.950 . S
C674 H670 0.949 . S
C674 C682 1.574 . S
C674 C690 1.368 . S
H675 C683 0.950 . S
H676 C681 0.950 . S
H677 C682 0.949 . S
H678 C684 0.950 1_565 S
H679 C685 0.950 . S
H680 C686 0.949 . S
C681 H676 0.950 . S
C681 C683 1.327 . S
C681 C687 1.429 . S
C682 C674 1.574 . S
C682 H677 0.949 . S
C682 C688 1.368 . S
C683 C667 1.349 . S
C683 H675 0.950 . S
C683 C681 1.327 . S
C684 C672 1.349 . S
C684 H678 0.950 1_545 S
C684 C685 1.327 . S
C685 H679 0.950 . S
C685 C684 1.327 . S
C685 C689 1.429 . S
C686 C669 1.574 . S
C686 H680 0.949 . S
C686 C690 1.368 . S
C687 C668 1.429 . S
C687 C681 1.429 . S
C687 C688 1.523 . S
C688 C669 1.368 . S
C688 C682 1.368 . S
C688 C687 1.523 . S
C689 C673 1.429 . S
C689 C685 1.429 . S
C689 C690 1.523 . S
C690 C674 1.368 . S
C690 C686 1.368 . S
C690 C689 1.523 . S
H691 C666 0.950 . S
H692 C668 0.950 . S
H693 C669 0.949 . S
H694 C671 0.950 . S
H695 C673 0.950 . S
C696 C697 1.349 . S
C696 C698 1.327 . S
C696 H721 0.950 . S
C697 C696 1.349 . S
C697 C713 1.349 . S
C698 C696 1.327 . S
C698 C717 1.429 . S
C698 H722 0.950 . S
C699 C716 1.574 . S
C699 C718 1.368 . S
C699 H723 0.949 . S
H700 C704 0.949 . S
C701 C702 1.349 . S
C701 C703 1.327 . S
C701 H724 0.950 . S
C702 C701 1.349 . S
C702 C714 1.349 . S
C703 C701 1.327 . S
C703 C719 1.429 . S
C703 H725 0.950 . S
C704 H700 0.949 . S
C704 C712 1.574 . S
C704 C720 1.368 . S
H705 C713 0.950 . S
H706 C711 0.950 . S
H707 C712 0.949 . S
H708 C714 0.950 . S
H709 C715 0.950 . S
H710 C716 0.949 . S
C711 H706 0.950 . S
C711 C713 1.327 . S
C711 C717 1.429 . S
C712 C704 1.574 . S
C712 H707 0.949 . S
C712 C718 1.368 . S
C713 C697 1.349 . S
C713 H705 0.950 . S
C713 C711 1.327 . S
C714 C702 1.349 . S
C714 H708 0.950 . S
C714 C715 1.327 . S
C715 H709 0.950 . S
C715 C714 1.327 . S
C715 C719 1.429 . S
C716 C699 1.574 . S
C716 H710 0.949 . S
C716 C720 1.368 . S
C717 C698 1.429 . S
C717 C711 1.429 . S
C717 C718 1.523 . S
C718 C699 1.368 . S
C718 C712 1.368 . S
C718 C717 1.523 . S
C719 C703 1.429 . S
C719 C715 1.429 . S
C719 C720 1.523 . S
C720 C704 1.368 . S
C720 C716 1.368 . S
C720 C719 1.523 . S
H721 C696 0.950 . S
H722 C698 0.950 . S
H723 C699 0.949 . S
H724 C701 0.950 . S
H725 C703 0.950 . S
C726 C727 1.349 . S
C726 C728 1.327 . S
C726 H751 0.950 . S
C727 C726 1.349 . S
C727 C743 1.349 . S
C728 C726 1.327 . S
C728 C747 1.429 . S
C728 H752 0.950 . S
C729 C746 1.574 . S
C729 C748 1.368 . S
C729 H753 0.949 . S
H730 C734 0.949 . S
C731 C732 1.349 . S
C731 C733 1.327 . S
C731 H754 0.950 . S
C732 C731 1.349 . S
C732 C744 1.349 . S
C733 C731 1.327 . S
C733 C749 1.429 . S
C733 H755 0.950 . S
C734 H730 0.949 . S
C734 C742 1.574 . S
C734 C750 1.368 . S
H735 C743 0.950 . S
H736 C741 0.950 . S
H737 C742 0.949 . S
H738 C744 0.950 . S
H739 C745 0.950 . S
H740 C746 0.949 . S
C741 H736 0.950 . S
C741 C743 1.327 . S
C741 C747 1.429 . S
C742 C734 1.574 . S
C742 H737 0.949 . S
C742 C748 1.368 . S
C743 C727 1.349 . S
C743 H735 0.950 . S
C743 C741 1.327 . S
C744 C732 1.349 . S
C744 H738 0.950 . S
C744 C745 1.327 . S
C745 H739 0.950 . S
C745 C744 1.327 . S
C745 C749 1.429 . S
C746 C729 1.574 . S
C746 H740 0.949 . S
C746 C750 1.368 . S
C747 C728 1.429 . S
C747 C741 1.429 . S
C747 C748 1.523 . S
C748 C729 1.368 . S
C748 C742 1.368 . S
C748 C747 1.523 . S
C749 C733 1.429 . S
C749 C745 1.429 . S
C749 C750 1.523 . S
C750 C734 1.368 . S
C750 C746 1.368 . S
C750 C749 1.523 . S
H751 C726 0.950 . S
H752 C728 0.950 . S
H753 C729 0.949 . S
H754 C731 0.950 . S
H755 C733 0.950 . S
C756 C757 1.349 . S
C756 C758 1.327 . S
C756 H781 0.950 . S
C757 C756 1.349 . S
C757 C773 1.349 . S
C758 C756 1.327 . S
C758 C777 1.429 . S
C758 H782 0.950 . S
C759 C776 1.574 . S
C759 C778 1.368 . S
C759 H783 0.949 . S
H760 C764 0.949 . S
C761 C762 1.349 . S
C761 C763 1.327 . S
C761 H784 0.950 . S
C762 C761 1.349 . S
C762 C774 1.349 . S
C763 C761 1.327 . S
C763 C779 1.429 . S
C763 H785 0.950 . S
C764 H760 0.949 . S
C764 C772 1.574 . S
C764 C780 1.368 . S
H765 C773 0.950 . S
H766 C771 0.950 . S
H767 C772 0.949 . S
H768 C774 0.950 . S
H769 C775 0.950 . S
H770 C776 0.949 . S
C771 H766 0.950 . S
C771 C773 1.327 . S
C771 C777 1.429 . S
C772 C764 1.574 . S
C772 H767 0.949 . S
C772 C778 1.368 . S
C773 C757 1.349 . S
C773 H765 0.950 . S
C773 C771 1.327 . S
C774 C762 1.349 . S
C774 H768 0.950 . S
C774 C775 1.327 . S
C775 H769 0.950 . S
C775 C774 1.327 . S
C775 C779 1.429 . S
C776 C759 1.574 . S
C776 H770 0.949 . S
C776 C780 1.368 . S
C777 C758 1.429 . S
C777 C771 1.429 . S
C777 C778 1.523 . S
C778 C759 1.368 . S
C778 C772 1.368 . S
C778 C777 1.523 . S
C779 C763 1.429 . S
C779 C775 1.429 . S
C779 C780 1.523 . S
C780 C764 1.368 . S
C780 C776 1.368 . S
C780 C779 1.523 . S
H781 C756 0.950 . S
H782 C758 0.950 . S
H783 C759 0.949 . S
H784 C761 0.950 . S
H785 C763 0.950 . S
C786 C787 1.349 . S
C786 C788 1.327 . S
C786 H811 0.950 . S
C787 C786 1.349 . S
C787 C803 1.349 . S
C788 C786 1.327 . S
C788 C807 1.429 . S
C788 H812 0.950 . S
C789 C806 1.574 . S
C789 C808 1.368 . S
C789 H813 0.949 . S
H790 C794 0.949 . S
C791 C792 1.349 . S
C791 C793 1.327 . S
C791 H814 0.950 . S
C792 C791 1.349 . S
C792 C804 1.349 . S
C793 C791 1.327 . S
C793 C809 1.429 . S
C793 H815 0.950 . S
C794 H790 0.949 . S
C794 C802 1.574 . S
C794 C810 1.368 . S
H795 C803 0.950 . S
H796 C801 0.950 . S
H797 C802 0.949 . S
H798 C804 0.950 . S
H799 C805 0.950 . S
H800 C806 0.949 . S
C801 H796 0.950 . S
C801 C803 1.327 . S
C801 C807 1.429 . S
C802 C794 1.574 . S
C802 H797 0.949 . S
C802 C808 1.368 . S
C803 C787 1.349 . S
C803 H795 0.950 . S
C803 C801 1.327 . S
C804 C792 1.349 . S
C804 H798 0.950 . S
C804 C805 1.327 . S
C805 H799 0.950 . S
C805 C804 1.327 . S
C805 C809 1.429 . S
C806 C789 1.574 . S
C806 H800 0.949 . S
C806 C810 1.368 . S
C807 C788 1.429 . S
C807 C801 1.429 . S
C807 C808 1.523 . S
C808 C789 1.368 . S
C808 C802 1.368 . S
C808 C807 1.523 . S
C809 C793 1.429 . S
C809 C805 1.429 . S
C809 C810 1.523 . S
C810 C794 1.368 . S
C810 C806 1.368 . S
C810 C809 1.523 . S
H811 C786 0.950 . S
H812 C788 0.950 . S
H813 C789 0.949 . S
H814 C791 0.950 . S
H815 C793 0.950 . S
C816 C817 1.349 . S
C816 C818 1.327 . S
C816 H841 0.950 . S
C817 C816 1.349 . S
C817 C833 1.349 . S
C818 C816 1.327 . S
C818 C837 1.429 . S
C818 H842 0.950 . S
C819 C836 1.574 . S
C819 C838 1.368 . S
C819 H843 0.949 . S
H820 C824 0.949 . S
C821 C822 1.349 . S
C821 C823 1.327 . S
C821 H844 0.950 . S
C822 C821 1.349 . S
C822 C834 1.349 . S
C823 C821 1.327 . S
C823 C839 1.429 . S
C823 H845 0.950 . S
C824 H820 0.949 . S
C824 C832 1.574 . S
C824 C840 1.368 . S
H825 C833 0.950 . S
H826 C831 0.950 . S
H827 C832 0.949 . S
H828 C834 0.950 . S
H829 C835 0.950 . S
H830 C836 0.949 . S
C831 H826 0.950 . S
C831 C833 1.327 . S
C831 C837 1.429 . S
C832 C824 1.574 . S
C832 H827 0.949 . S
C832 C838 1.368 . S
C833 C817 1.349 . S
C833 H825 0.950 . S
C833 C831 1.327 . S
C834 C822 1.349 . S
C834 H828 0.950 . S
C834 C835 1.327 . S
C835 H829 0.950 . S
C835 C834 1.327 . S
C835 C839 1.429 . S
C836 C819 1.574 . S
C836 H830 0.949 . S
C836 C840 1.368 . S
C837 C818 1.429 . S
C837 C831 1.429 . S
C837 C838 1.523 . S
C838 C819 1.368 . S
C838 C832 1.368 . S
C838 C837 1.523 . S
C839 C823 1.429 . S
C839 C835 1.429 . S
C839 C840 1.523 . S
C840 C824 1.368 . S
C840 C836 1.368 . S
C840 C839 1.523 . S
H841 C816 0.950 . S
H842 C818 0.950 . S
H843 C819 0.949 . S
H844 C821 0.950 . S
H845 C823 0.950 . S
C846 C847 1.349 . S
C846 C848 1.327 . S
C846 H871 0.950 . S
C847 C846 1.349 . S
C847 C863 1.349 . S
C848 C846 1.327 . S
C848 C867 1.429 . S
C848 H872 0.950 . S
C849 C866 1.574 . S
C849 C868 1.368 . S
C849 H873 0.949 . S
H850 C854 0.949 . S
C851 C852 1.349 . S
C851 C853 1.327 . S
C851 H874 0.950 . S
C852 C851 1.349 . S
C852 C864 1.349 . S
C853 C851 1.327 . S
C853 C869 1.429 . S
C853 H875 0.950 . S
C854 H850 0.949 . S
C854 C862 1.574 . S
C854 C870 1.368 . S
H855 C863 0.950 . S
H856 C861 0.950 . S
H857 C862 0.949 . S
H858 C864 0.950 . S
H859 C865 0.950 . S
H860 C866 0.949 . S
C861 H856 0.950 . S
C861 C863 1.327 . S
C861 C867 1.429 . S
C862 C854 1.574 . S
C862 H857 0.949 . S
C862 C868 1.368 . S
C863 C847 1.349 . S
C863 H855 0.950 . S
C863 C861 1.327 . S
C864 C852 1.349 . S
C864 H858 0.950 . S
C864 C865 1.327 . S
C865 H859 0.950 . S
C865 C864 1.327 . S
C865 C869 1.429 . S
C866 C849 1.574 . S
C866 H860 0.949 . S
C866 C870 1.368 . S
C867 C848 1.429 . S
C867 C861 1.429 . S
C867 C868 1.523 . S
C868 C849 1.368 . S
C868 C862 1.368 . S
C868 C867 1.523 . S
C869 C853 1.429 . S
C869 C865 1.429 . S
C869 C870 1.523 . S
C870 C854 1.368 . S
C870 C866 1.368 . S
C870 C869 1.523 . S
H871 C846 0.950 . S
H872 C848 0.950 . S
H873 C849 0.949 . S
H874 C851 0.950 . S
H875 C853 0.950 . S
C157 C104 1.386 . S
C162 C0 1.386 . S
C187 C13 1.386 . S
C192 C117 1.386 . S
C217 C26 1.386 . S
C222 C130 1.386 . S
C247 C39 1.386 . S
C252 C143 1.386 . S
C277 C78 1.386 . S
C282 C52 1.386 . S
C307 C65 1.386 . S
C312 C91 1.386 . S
C337 C8 1.241 . S
C342 C75 1.294 . S
C367 C21 1.241 . S
C372 C10 1.294 1_655 S
C397 C34 1.241 . S
C402 C23 1.294 1_565 S
C427 C36 1.294 . S
C432 C47 1.241 . S
C457 C49 1.294 1_455 S
C462 C60 1.241 . S
C487 C62 1.294 1_545 S
C492 C73 1.241 . S
C517 C101 1.294 . S
C522 C86 1.241 . S
C547 C99 1.241 . S
C552 C114 1.294 1_655 S
C577 C127 1.294 1_565 S
C582 C112 1.241 . S
C607 C125 1.241 . S
C612 C140 1.294 . S
C637 C138 1.241 . S
C642 C153 1.294 1_455 S
C667 C151 1.241 . S
C672 C88 1.294 1_545 S
C697 C135 1.115 . S
C702 C5 1.115 . S
C727 C148 1.115 . S
C732 C18 1.115 . S
C757 C83 1.115 . S
C762 C31 1.115 . S
C787 C44 1.115 . S
C792 C96 1.115 . S
C817 C57 1.115 . S
C822 C109 1.115 1_556 S
C847 C122 1.115 . S
C852 C70 1.115 1_554 S
