# Generated by pormake.
# Topology wiu, (6)-cn, num edge types: 1
# Building blocks:
#     Node 0, Type 0, BuildingBlock: UKALOJ_clean_sbu_0, # of connection points: 6
#     Node 1, Type 0, BuildingBlock: UKALOJ_clean_sbu_0, # of connection points: 6
#     Node 2, Type 0, BuildingBlock: UKALOJ_clean_sbu_0, # of connection points: 6
#     Node 3, Type 0, BuildingBlock: UKALOJ_clean_sbu_0, # of connection points: 6
#     Node 4, Type 0, BuildingBlock: UKALOJ_clean_sbu_0, # of connection points: 6
#     Node 5, Type 0, BuildingBlock: UKALOJ_clean_sbu_0, # of connection points: 6
#     Node 6, Type 0, BuildingBlock: UKALOJ_clean_sbu_0, # of connection points: 6
#     Node 7, Type 0, BuildingBlock: UKALOJ_clean_sbu_0, # of connection points: 6
#     Node 8, Type 0, BuildingBlock: UKALOJ_clean_sbu_0, # of connection points: 6
#     Node 9, Type 0, BuildingBlock: UKALOJ_clean_sbu_0, # of connection points: 6
#     Node 10, Type 0, BuildingBlock: UKALOJ_clean_sbu_0, # of connection points: 6
#     Node 11, Type 0, BuildingBlock: UKALOJ_clean_sbu_0, # of connection points: 6
#     Node 12, Type 0, BuildingBlock: UKALOJ_clean_sbu_0, # of connection points: 6
#     Node 13, Type 0, BuildingBlock: UKALOJ_clean_sbu_0, # of connection points: 6
#     Node 14, Type 0, BuildingBlock: UKALOJ_clean_sbu_0, # of connection points: 6
#     Node 15, Type 0, BuildingBlock: UKALOJ_clean_sbu_0, # of connection points: 6
#     Edge 16, Type (0, 0), BuildingBlock: XUDNAN_clean_linker_2, # of connection points: 2
#     Edge 17, Type (0, 0), BuildingBlock: XUDNAN_clean_linker_2, # of connection points: 2
#     Edge 18, Type (0, 0), BuildingBlock: XUDNAN_clean_linker_2, # of connection points: 2
#     Edge 19, Type (0, 0), BuildingBlock: XUDNAN_clean_linker_2, # of connection points: 2
#     Edge 20, Type (0, 0), BuildingBlock: XUDNAN_clean_linker_2, # of connection points: 2
#     Edge 21, Type (0, 0), BuildingBlock: XUDNAN_clean_linker_2, # of connection points: 2
#     Edge 22, Type (0, 0), BuildingBlock: XUDNAN_clean_linker_2, # of connection points: 2
#     Edge 23, Type (0, 0), BuildingBlock: XUDNAN_clean_linker_2, # of connection points: 2
#     Edge 24, Type (0, 0), BuildingBlock: XUDNAN_clean_linker_2, # of connection points: 2
#     Edge 25, Type (0, 0), BuildingBlock: XUDNAN_clean_linker_2, # of connection points: 2
#     Edge 26, Type (0, 0), BuildingBlock: XUDNAN_clean_linker_2, # of connection points: 2
#     Edge 27, Type (0, 0), BuildingBlock: XUDNAN_clean_linker_2, # of connection points: 2
#     Edge 28, Type (0, 0), BuildingBlock: XUDNAN_clean_linker_2, # of connection points: 2
#     Edge 29, Type (0, 0), BuildingBlock: XUDNAN_clean_linker_2, # of connection points: 2
#     Edge 30, Type (0, 0), BuildingBlock: XUDNAN_clean_linker_2, # of connection points: 2
#     Edge 31, Type (0, 0), BuildingBlock: XUDNAN_clean_linker_2, # of connection points: 2
#     Edge 32, Type (0, 0), BuildingBlock: XUDNAN_clean_linker_2, # of connection points: 2
#     Edge 33, Type (0, 0), BuildingBlock: XUDNAN_clean_linker_2, # of connection points: 2
#     Edge 34, Type (0, 0), BuildingBlock: XUDNAN_clean_linker_2, # of connection points: 2
#     Edge 35, Type (0, 0), BuildingBlock: XUDNAN_clean_linker_2, # of connection points: 2
#     Edge 36, Type (0, 0), BuildingBlock: XUDNAN_clean_linker_2, # of connection points: 2
#     Edge 37, Type (0, 0), BuildingBlock: XUDNAN_clean_linker_2, # of connection points: 2
#     Edge 38, Type (0, 0), BuildingBlock: XUDNAN_clean_linker_2, # of connection points: 2
#     Edge 39, Type (0, 0), BuildingBlock: XUDNAN_clean_linker_2, # of connection points: 2
#     Edge 40, Type (0, 0), BuildingBlock: XUDNAN_clean_linker_2, # of connection points: 2
#     Edge 41, Type (0, 0), BuildingBlock: XUDNAN_clean_linker_2, # of connection points: 2
#     Edge 42, Type (0, 0), BuildingBlock: XUDNAN_clean_linker_2, # of connection points: 2
#     Edge 43, Type (0, 0), BuildingBlock: XUDNAN_clean_linker_2, # of connection points: 2
#     Edge 44, Type (0, 0), BuildingBlock: XUDNAN_clean_linker_2, # of connection points: 2
#     Edge 45, Type (0, 0), BuildingBlock: XUDNAN_clean_linker_2, # of connection points: 2
#     Edge 46, Type (0, 0), BuildingBlock: XUDNAN_clean_linker_2, # of connection points: 2
#     Edge 47, Type (0, 0), BuildingBlock: XUDNAN_clean_linker_2, # of connection points: 2
#     Edge 48, Type (0, 0), BuildingBlock: XUDNAN_clean_linker_2, # of connection points: 2
#     Edge 49, Type (0, 0), BuildingBlock: XUDNAN_clean_linker_2, # of connection points: 2
#     Edge 50, Type (0, 0), BuildingBlock: XUDNAN_clean_linker_2, # of connection points: 2
#     Edge 51, Type (0, 0), BuildingBlock: XUDNAN_clean_linker_2, # of connection points: 2
#     Edge 52, Type (0, 0), BuildingBlock: XUDNAN_clean_linker_2, # of connection points: 2
#     Edge 53, Type (0, 0), BuildingBlock: XUDNAN_clean_linker_2, # of connection points: 2
#     Edge 54, Type (0, 0), BuildingBlock: XUDNAN_clean_linker_2, # of connection points: 2
#     Edge 55, Type (0, 0), BuildingBlock: XUDNAN_clean_linker_2, # of connection points: 2
#     Edge 56, Type (0, 0), BuildingBlock: XUDNAN_clean_linker_2, # of connection points: 2
#     Edge 57, Type (0, 0), BuildingBlock: XUDNAN_clean_linker_2, # of connection points: 2
#     Edge 58, Type (0, 0), BuildingBlock: XUDNAN_clean_linker_2, # of connection points: 2
#     Edge 59, Type (0, 0), BuildingBlock: XUDNAN_clean_linker_2, # of connection points: 2
#     Edge 60, Type (0, 0), BuildingBlock: XUDNAN_clean_linker_2, # of connection points: 2
#     Edge 61, Type (0, 0), BuildingBlock: XUDNAN_clean_linker_2, # of connection points: 2
#     Edge 62, Type (0, 0), BuildingBlock: XUDNAN_clean_linker_2, # of connection points: 2
#     Edge 63, Type (0, 0), BuildingBlock: XUDNAN_clean_linker_2, # of connection points: 2
# Relax obj value: 0.327
# Max RMSD: 0.198
# Mean RMSD: 0.198
data_MOF--net-wiu--node1-UKALOJ_clean_sbu_0--edge1-XUDNAN_clean_linker_2
_symmetry_space_group_name_H-M    P1
_symmetry_Int_Tables_number       1
_symmetry_cell_setting            triclinic
loop_
_symmetry_equiv_pos_as_xyz
'x, y, z'
_cell_length_a     27.806233
_cell_length_b     27.825601
_cell_length_c     70.944323
_cell_angle_alpha  90.012631
_cell_angle_beta   89.870799
_cell_angle_gamma 90.265764
loop_
_atom_site_label
_atom_site_type_symbol
_atom_site_fract_x
_atom_site_fract_y
_atom_site_fract_z
_atom_type_partial_charge
Zn0 Zn 0.34963 0.12254 0.09158 0.0
O1 O 0.31963 0.18546 0.10635 0.0
C2 C 0.25179 0.07418 0.09428 0.0
Zn3 Zn 0.30621 0.14005 0.06684 0.0
C4 C 0.28734 0.2114 0.09884 0.0
O5 O 0.27194 0.19893 0.0826 0.0
C6 C 0.38334 0.06147 0.05755 0.0
O7 O 0.35556 0.18849 0.05735 0.0
O8 O 0.40488 0.16381 0.07941 0.0
N9 N 0.26285 0.15457 0.04456 0.0
C10 C 0.27216 0.16727 0.02658 0.0
C11 C 0.1959 0.1679 0.03023 0.0
N12 N 0.21553 0.15494 0.04678 0.0
N13 N 0.23066 0.17582 0.01737 0.0
C14 C 0.4085 0.1369 0.12793 0.0
C15 C 0.41404 0.06522 0.13815 0.0
N16 N 0.39028 0.10757 0.1146 0.0
N17 N 0.39431 0.063 0.12086 0.0
N18 N 0.42299 0.11125 0.14303 0.0
H19 H 0.42081 0.19998 0.11085 0.0
H20 H 0.44489 0.20348 0.13444 0.0
H21 H 0.38132 0.20887 0.13048 0.0
C22 C 0.41438 0.1903 0.12576 0.0
C23 C 0.32174 0.17663 0.01888 0.0
H24 H 0.33398 0.21259 0.02368 0.0
H25 H 0.32295 0.17693 1.00332 0.0
H26 H 0.34737 0.14945 0.02415 0.0
O27 O 0.34912 0.08507 0.04982 0.0
O28 O 0.38529 0.06302 0.07564 0.0
C29 C 0.39698 0.18775 0.0645 0.0
O30 O 0.29015 0.07979 0.10387 0.0
O31 O 0.25149 0.09041 0.07746 0.0
Zn32 Zn 0.63163 0.55007 0.31106 0.0
O33 O 0.58295 0.59648 0.30019 0.0
C34 C 0.70955 0.62827 0.30172 0.0
Zn35 Zn 0.64743 0.59593 0.3353 0.0
C36 C 0.58312 0.63859 0.30669 0.0
O37 O 0.60576 0.64819 0.32178 0.0
C38 C 0.69723 0.50023 0.34 0.0
O39 O 0.58402 0.56778 0.34983 0.0
O40 O 0.57229 0.5161 0.3271 0.0
N41 N 0.66068 0.64197 0.35678 0.0
C42 C 0.65698 0.63549 0.37549 0.0
C43 C 0.69392 0.70179 0.37113 0.0
N44 N 0.68306 0.68354 0.35405 0.0
N45 N 0.67724 0.67254 0.38477 0.0
C46 C 0.60766 0.51035 0.27116 0.0
C47 C 0.60923 0.43463 0.276 0.0
N48 N 0.6196 0.50354 0.28937 0.0
N49 N 0.62059 0.45655 0.29233 0.0
N50 N 0.60097 0.46759 0.26253 0.0
H51 H 0.56055 0.56981 0.26713 0.0
H52 H 0.59711 0.55837 0.2471 0.0
H53 H 0.62331 0.58584 0.26763 0.0
C54 C 0.59706 0.55864 0.26266 0.0
C55 C 0.63455 0.59236 0.38485 0.0
H56 H 0.59491 0.59633 0.38446 0.0
H57 H 0.64512 0.58919 0.39985 0.0
H58 H 0.64409 0.55882 0.37742 0.0
O59 O 0.6908 0.53936 0.349 0.0
O60 O 0.68171 0.49804 0.3231 0.0
C61 C 0.55906 0.53367 0.34294 0.0
O62 O 0.68681 0.5934 0.29386 0.0
O63 O 0.70734 0.63021 0.31973 0.0
Zn64 Zn 0.17849 0.90774 0.58826 0.0
O65 O 0.21075 0.84708 0.60382 0.0
C66 C 0.27054 0.9661 0.59822 0.0
Zn67 Zn 0.23637 0.9009 0.56686 0.0
C68 C 0.24899 0.82638 0.59819 0.0
O69 O 0.26954 0.84278 0.58334 0.0
C70 C 0.15339 0.97167 0.55396 0.0
O71 O 0.19577 0.84977 0.5536 0.0
O72 O 0.13524 0.85948 0.57306 0.0
N73 N 0.28764 0.89372 0.54603 0.0
C74 C 0.28324 0.88296 0.52754 0.0
C75 C 0.35828 0.8867 0.53364 0.0
N76 N 0.33426 0.89621 0.54975 0.0
N77 N 0.32711 0.87846 0.51949 0.0
C78 C 0.12594 0.91023 0.62726 0.0
C79 C 0.05441 0.92742 0.61899 0.0
N80 N 0.1257 0.9136 0.60829 0.0
N81 N 0.08114 0.92394 0.60321 0.0
N82 N 0.08151 0.91855 0.63431 0.0
H83 H 0.16984 0.86349 0.64374 0.0
H84 H 0.17046 0.9251 0.65142 0.0
H85 H 0.20327 0.90716 0.63062 0.0
C86 C 0.17007 0.90135 0.63885 0.0
C87 C 0.23624 0.87079 0.51811 0.0
H88 H 0.22725 0.83265 0.52109 0.0
H89 H 0.23706 0.87448 0.50266 0.0
H90 H 0.20702 0.89384 0.52353 0.0
O91 O 0.19503 0.9554 0.54928 0.0
O92 O 0.1403 0.96433 0.57103 0.0
C93 C 0.15325 0.84039 0.55842 0.0
O94 O 0.22755 0.95686 0.60378 0.0
O95 O 0.28254 0.95232 0.58173 0.0
Zn96 Zn 0.88391 0.43324 0.83958 0.0
O97 O 0.9451 0.4664 0.85356 0.0
C98 C 0.82676 0.52512 0.84871 0.0
Zn99 Zn 0.88727 0.48653 0.81673 0.0
C100 C 0.96586 0.50349 0.84696 0.0
O101 O 0.94826 0.52221 0.832 0.0
C102 C 0.8157 0.40154 0.80755 0.0
O103 O 0.93509 0.44385 0.80288 0.0
O104 O 0.92937 0.3872 0.82435 0.0
N105 N 0.89175 0.53399 0.79491 0.0
C106 C 0.92898 0.54467 0.78342 0.0
C107 C 0.8664 0.57645 0.77159 0.0
N108 N 0.85297 0.55419 0.78765 0.0
N109 N 0.91389 0.57072 0.76853 0.0
C110 C 0.90934 0.36936 0.87378 0.0
C111 C 0.83955 0.35268 0.88433 0.0
N112 N 0.87713 0.38619 0.86128 0.0
N113 N 0.83381 0.37517 0.86773 0.0
N114 N 0.88662 0.34883 0.88864 0.0
H115 H 0.97118 0.36708 0.85545 0.0
H116 H 0.98003 0.34003 0.87836 0.0
H117 H 0.97822 0.40438 0.87582 0.0
C118 C 0.96275 0.37006 0.87067 0.0
C119 C 0.98033 0.53086 0.787 0.0
H120 H 0.9881 0.52988 0.8022 0.0
H121 H 1.00536 0.55673 0.78016 0.0
H122 H 0.98735 0.49455 0.78121 0.0
O123 O 0.83088 0.44126 0.80033 0.0
O124 O 0.82555 0.39476 0.82494 0.0
C125 C 0.94557 0.40249 0.80867 0.0
O126 O 0.83815 0.48361 0.85495 0.0
O127 O 0.83756 0.53497 0.83166 0.0
Zn128 Zn 0.6884 0.90694 0.93456 0.0
O129 O 0.71741 0.84597 0.91808 0.0
C130 C 0.7824 0.96096 0.92728 0.0
Zn131 Zn 0.74138 0.89222 0.95703 0.0
C132 C 0.75232 0.82112 0.92423 0.0
O133 O 0.77134 0.834 0.93979 0.0
C134 C 0.6623 0.96597 0.97018 0.0
O135 O 0.69846 0.84306 0.97012 0.0
O136 O 0.6424 0.86007 0.94936 0.0
N137 N 0.79351 0.87783 0.97648 0.0
C138 C 0.79393 0.87682 0.99546 0.0
C139 C 0.85968 0.84581 0.98598 0.0
N140 N 0.83451 0.85881 0.97065 0.0
N141 N 0.83483 0.85618 1.00175 0.0
C142 C 0.63877 0.913 0.89536 0.0
C143 C 0.56625 0.92837 0.90295 0.0
N144 N 0.63697 0.91614 0.91432 0.0
N145 N 0.59186 0.92548 0.919 0.0
N146 N 0.59465 0.9202 0.88787 0.0
H147 H 0.68583 0.86643 0.88004 0.0
H148 H 0.68462 0.92738 0.87138 0.0
H149 H 0.71654 0.91259 0.89258 0.0
C150 C 0.68407 0.90476 0.88426 0.0
C151 C 0.75642 0.90024 1.0075 0.0
H152 H 0.7212 0.88223 1.00528 0.0
H153 H 0.76565 0.90021 0.02266 0.0
H154 H 0.75325 0.93835 1.00323 0.0
O155 O 0.70214 0.9463 0.97515 0.0
O156 O 0.65167 0.96336 0.95263 0.0
C157 C 0.65579 0.83908 0.96438 0.0
O158 O 0.74079 0.95548 0.91991 0.0
O159 O 0.78962 0.94279 0.9435 0.0
Zn160 Zn 0.39408 0.48726 0.70429 0.0
O161 O 0.4403 0.44153 0.71798 0.0
C162 C 0.31144 0.41233 0.71578 0.0
Zn163 Zn 0.37545 0.43399 0.68287 0.0
C164 C 0.43657 0.39759 0.71371 0.0
O165 O 0.41337 0.38485 0.69911 0.0
C166 C 0.33097 0.53047 0.67294 0.0
O167 O 0.44032 0.45464 0.66842 0.0
O168 O 0.45635 0.51537 0.68674 0.0
N169 N 0.36307 0.38286 0.66287 0.0
C170 C 0.36153 0.38703 0.64401 0.0
C171 C 0.33719 0.31637 0.65072 0.0
N172 N 0.34853 0.33865 0.66705 0.0
N173 N 0.34581 0.34597 0.63611 0.0
C174 C 0.4181 0.53864 0.74247 0.0
C175 C 0.42934 0.61021 0.73265 0.0
N176 N 0.40873 0.539 0.72382 0.0
N177 N 0.4158 0.58347 0.7178 0.0
N178 N 0.43163 0.58307 0.74835 0.0
H179 H 0.448 0.47769 0.75653 0.0
H180 H 0.39811 0.50514 0.7688 0.0
H181 H 0.38809 0.4684 0.74833 0.0
C182 C 0.41248 0.49508 0.75475 0.0
C183 C 0.36995 0.43254 0.63311 0.0
H184 H 0.38793 0.42435 0.6195 0.0
H185 H 0.33471 0.44905 0.62985 0.0
H186 H 0.39182 0.45881 0.64094 0.0
O187 O 0.33626 0.4878 0.66669 0.0
O188 O 0.34599 0.53927 0.68958 0.0
C189 C 0.46739 0.49019 0.67228 0.0
O190 O 0.33565 0.44791 0.7226 0.0
O191 O 0.31331 0.407 0.69793 0.0
Zn192 Zn 0.84829 0.1274 0.42988 0.0
O193 O 0.8193 0.18573 0.41342 0.0
C194 C 0.75519 0.07518 0.42509 0.0
Zn195 Zn 0.79989 0.14826 0.45311 0.0
C196 C 0.78503 0.21295 0.41849 0.0
O197 O 0.76606 0.20527 0.43467 0.0
C198 C 0.87968 0.07185 0.46503 0.0
O199 O 0.84289 0.19935 0.46439 0.0
O200 O 0.89641 0.17416 0.44381 0.0
N201 N 0.7495 0.16194 0.47332 0.0
C202 C 0.74996 0.1626 0.49232 0.0
C203 C 0.67874 0.17995 0.48356 0.0
N204 N 0.70532 0.17295 0.46794 0.0
N205 N 0.70592 0.17403 0.49904 0.0
C206 C 0.89608 0.11802 0.39016 0.0
C207 C 0.96908 0.10399 0.39729 0.0
N208 N 0.89864 0.11621 0.40914 0.0
N209 N 0.94406 0.10758 0.41351 0.0
N210 N 0.93997 0.11096 0.38238 0.0
H211 H 0.84851 0.16261 0.37449 0.0
H212 H 0.84968 0.10101 0.36676 0.0
H213 H 0.81822 0.11771 0.38795 0.0
C214 C 0.85039 0.12483 0.3793 0.0
C215 C 0.79219 0.14748 0.50398 0.0
H216 H 0.78855 0.15807 0.51894 0.0
H217 H 0.79514 0.10777 0.50343 0.0
H218 H 0.82583 0.16303 0.49812 0.0
O219 O 0.84399 0.09543 0.47197 0.0
O220 O 0.88317 0.07166 0.44703 0.0
C221 C 0.88557 0.1986 0.45838 0.0
O222 O 0.79535 0.07952 0.41652 0.0
O223 O 0.75077 0.09497 0.44121 0.0
Zn224 Zn 0.1598 0.60648 0.1809 0.0
O225 O 0.09707 0.58232 0.16594 0.0
C226 C 0.20802 0.5108 0.17197 0.0
Zn227 Zn 0.14088 0.55267 0.20238 0.0
C228 C 0.07014 0.54658 0.1697 0.0
O229 O 0.08034 0.52211 0.18442 0.0
C230 C 0.2202 0.63192 0.21431 0.0
O231 O 0.09252 0.59673 0.21538 0.0
O232 O 0.11779 0.65452 0.1966 0.0
N233 N 0.12638 0.5015 0.22236 0.0
C234 C 0.1292 0.5001 0.24134 0.0
C235 C 0.09702 0.43427 0.23235 0.0
N236 N 0.10646 0.46055 0.21686 0.0
N237 N 0.11054 0.45831 0.24794 0.0
C238 C 0.17401 0.65246 0.14147 0.0
C239 C 0.18115 0.72716 0.14762 0.0
N240 N 0.1706 0.65724 0.16033 0.0
N241 N 0.17493 0.70373 0.16412 0.0
N242 N 0.18115 0.69558 0.13324 0.0
H243 H 0.14653 0.61228 0.11785 0.0
H244 H 0.20361 0.59289 0.12661 0.0
H245 H 0.14993 0.5781 0.13931 0.0
C246 C 0.16775 0.6062 0.13086 0.0
C247 C 0.15417 0.53775 0.25291 0.0
H248 H 0.13704 0.57317 0.25052 0.0
H249 H 0.1544 0.52935 0.26814 0.0
H250 H 0.1922 0.54024 0.24831 0.0
O251 O 0.19674 0.59546 0.22091 0.0
O252 O 0.21936 0.63714 0.19644 0.0
C253 C 0.09389 0.64064 0.21093 0.0
O254 O 0.2029 0.55346 0.16563 0.0
O255 O 0.19113 0.50178 0.18835 0.0
Zn256 Zn 0.85574 0.63144 0.59199 0.0
O257 O 0.8246 0.69324 0.60662 0.0
C258 C 0.76447 0.57558 0.59861 0.0
Zn259 Zn 0.8069 0.64305 0.56831 0.0
C260 C 0.78876 0.71577 0.59991 0.0
O261 O 0.77093 0.70088 0.58432 0.0
C262 C 0.88811 0.56896 0.5583 0.0
O263 O 0.84855 0.69444 0.55599 0.0
O264 O 0.903 0.67626 0.577 0.0
N265 N 0.75849 0.64826 0.547 0.0
C266 C 0.76582 0.65482 0.52842 0.0
C267 C 0.69139 0.63833 0.5322 0.0
N268 N 0.71217 0.63839 0.54937 0.0
N269 N 0.72446 0.64858 0.51892 0.0
C270 C 0.90629 0.63102 0.63105 0.0
C271 C 0.97846 0.61534 0.62294 0.0
N272 N 0.90683 0.62575 0.61219 0.0
N273 N 0.95172 0.61637 0.60718 0.0
N274 N 0.95099 0.62502 0.63811 0.0
H275 H 0.86051 0.67825 0.64661 0.0
H276 H 0.862 0.61771 0.65551 0.0
H277 H 0.82879 0.6317 0.63442 0.0
C278 C 0.86172 0.63981 0.64249 0.0
C279 C 0.81283 0.66981 0.51957 0.0
H280 H 0.82048 0.70767 0.52344 0.0
H281 H 0.81206 0.66852 0.50399 0.0
H282 H 0.84266 0.6471 0.52465 0.0
O283 O 0.85116 0.58921 0.55109 0.0
O284 O 0.8928 0.573 0.5762 0.0
C285 C 0.89106 0.69743 0.5619 0.0
O286 O 0.80383 0.58487 0.60714 0.0
O287 O 0.7599 0.5903 0.58169 0.0
Zn288 Zn 0.13582 0.05179 0.81468 0.0
O289 O 0.08725 0.09695 0.80317 0.0
C290 C 0.2159 0.12945 0.80085 0.0
Zn291 Zn 0.16292 0.10296 0.83578 0.0
C292 C 0.09085 0.14034 0.80804 0.0
O293 O 0.118 0.15231 0.82168 0.0
C294 C 0.20877 1.00638 0.84227 0.0
O295 O 0.10163 0.07612 0.85206 0.0
O296 O 0.07762 0.02 0.83265 0.0
N297 N 0.17628 0.1527 0.85606 0.0
C298 C 0.18336 0.14826 0.87473 0.0
C299 C 0.1868 0.22307 0.8682 0.0
N300 N 0.17846 0.19914 0.85201 0.0
N301 N 0.19045 0.19187 0.88261 0.0
C302 C 0.08754 0.99659 0.78145 0.0
C303 C 0.14749 0.95891 0.77015 0.0
N304 N 0.12504 1.00433 0.79309 0.0
N305 N 0.16209 0.98045 0.78614 0.0
N306 N 0.10087 0.96867 0.76672 0.0
H307 H 0.03072 1.01644 0.80054 0.0
H308 H 1.01058 0.99001 0.77858 0.0
H309 H 0.03338 0.05073 0.77916 0.0
C310 C 0.03756 1.01423 0.78517 0.0
C311 C 0.18053 0.10163 0.88537 0.0
H312 H 0.16463 0.10715 0.89956 0.0
H313 H 0.21731 0.08703 0.88709 0.0
H314 H 0.15889 0.07452 0.8778 0.0
O315 O 0.20898 0.048 0.84991 0.0
O316 O 0.18609 1.00143 0.82681 0.0
C317 C 0.07186 0.0425 0.84822 0.0
O318 O 0.18977 0.09304 0.79611 0.0
O319 O 0.22027 0.13718 0.8185 0.0
Zn320 Zn 0.68939 0.40337 0.08311 0.0
O321 O 0.71697 0.34148 0.09919 0.0
C322 C 0.78 0.45861 0.09275 0.0
Zn323 Zn 0.74478 0.39003 0.06155 0.0
C324 C 0.7534 0.3176 0.0938 0.0
O325 O 0.77482 0.33137 0.07878 0.0
C326 C 0.6659 0.46417 0.04814 0.0
O327 O 0.70613 0.33972 0.04718 0.0
O328 O 0.64682 0.35673 0.06666 0.0
N329 N 0.80086 0.38165 0.04342 0.0
C330 C 0.8048 0.37161 0.02491 0.0
C331 C 0.87582 0.37406 0.03621 0.0
N332 N 0.84499 0.383 0.05038 0.0
N333 N 0.85158 0.36628 0.02009 0.0
C334 C 0.63684 0.41653 0.12103 0.0
C335 C 0.56287 0.41632 0.11306 0.0
N336 N 0.63525 0.41054 0.10222 0.0
N337 N 0.58931 0.4103 0.09727 0.0
N338 N 0.59198 0.42077 0.1281 0.0
H339 H 0.675 0.39987 0.14674 0.0
H340 H 0.69542 0.45293 0.13455 0.0
H341 H 0.71074 0.39475 0.12575 0.0
C342 C 0.68203 0.41564 0.13263 0.0
C343 C 0.76304 0.36919 0.0116 0.0
H344 H 0.75133 0.33121 0.0101 0.0
H345 H 0.77335 0.38311 0.9975 0.0
H346 H 0.73224 0.39004 0.01704 0.0
O347 O 0.70593 0.44455 0.04323 0.0
O348 O 0.65433 0.46074 0.06557 0.0
C349 C 0.66271 0.33546 0.05204 0.0
O350 O 0.73817 0.45131 0.09968 0.0
O351 O 0.78882 0.44171 0.07646 0.0
Zn352 Zn 0.3732 0.92695 0.33826 0.0
O353 O 0.43427 0.95364 0.35424 0.0
C354 C 0.32078 0.02013 0.34907 0.0
Zn355 Zn 0.39081 0.98637 0.31878 0.0
C356 C 0.45994 0.99076 0.35116 0.0
O357 O 0.44939 1.01646 0.33687 0.0
C358 C 0.31437 0.90675 0.30379 0.0
O359 O 0.44124 0.94652 0.30498 0.0
O360 O 0.41976 0.88379 0.32202 0.0
N361 N 0.40191 0.04114 0.30025 0.0
C362 C 0.41173 0.04311 0.28166 0.0
C363 C 0.41206 0.11509 0.29201 0.0
N364 N 0.40235 0.08586 0.30664 0.0
N365 N 0.41865 0.0892 0.27619 0.0
C366 C 0.36067 0.87781 0.37704 0.0
C367 C 0.3587 0.803 0.3706 0.0
N368 N 0.3648 0.8738 0.35817 0.0
N369 N 0.36371 0.82725 0.35418 0.0
N370 N 0.35618 0.83413 0.38509 0.0
H371 H 0.38446 0.91906 0.40105 0.0
H372 H 0.32662 0.93494 0.39189 0.0
H373 H 0.37982 0.95358 0.3798 0.0
C374 C 0.36349 0.92407 0.3879 0.0
C375 C 0.41254 1.00015 0.26887 0.0
H376 H 0.45028 0.98847 0.26684 0.0
H377 H 0.39707 1.00912 0.25491 0.0
H378 H 0.39232 0.96969 0.27497 0.0
O379 O 0.33572 0.94683 0.29972 0.0
O380 O 0.31603 0.89343 0.321 0.0
C381 C 0.44377 0.90224 0.30852 0.0
O382 O 0.32564 0.97639 0.35429 0.0
O383 O 0.33943 0.03231 0.3334 0.0
Zn384 Zn 0.17552 0.40245 0.43155 0.0
O385 O 0.20867 0.33991 0.41727 0.0
C386 C 0.26845 0.45917 0.42154 0.0
Zn387 Zn 0.23394 0.39415 0.45248 0.0
C388 C 0.24655 0.31845 0.42276 0.0
O389 O 0.26816 0.33494 0.43729 0.0
C390 C 0.1511 0.46682 0.46504 0.0
O391 O 0.19153 0.34405 0.46531 0.0
O392 O 0.13041 0.35561 0.44638 0.0
N393 N 0.28241 0.39 0.47426 0.0
C394 C 0.2742 0.38168 0.49272 0.0
C395 C 0.34755 0.40344 0.49006 0.0
N396 N 0.32811 0.40326 0.47262 0.0
N397 N 0.31422 0.39019 0.50284 0.0
C398 C 0.13199 0.39879 0.39147 0.0
C399 C 0.06005 0.423 0.39543 0.0
N400 N 0.12655 0.40805 0.41002 0.0
N401 N 0.08181 0.42319 0.41245 0.0
N402 N 0.09081 0.40729 0.38214 0.0
H403 H 0.20992 0.39522 0.39026 0.0
H404 H 0.1784 0.34424 0.38068 0.0
H405 H 0.18087 0.39964 0.36777 0.0
C406 C 0.1781 0.38393 0.38211 0.0
C407 C 0.22761 0.36321 0.50092 0.0
H408 H 0.22173 0.32576 0.49609 0.0
H409 H 0.22761 0.36143 0.51647 0.0
H410 H 0.19718 0.38594 0.49636 0.0
O411 O 0.19245 0.44952 0.46931 0.0
O412 O 0.1369 0.45998 0.44808 0.0
C413 C 0.14859 0.33582 0.4608 0.0
O414 O 0.22529 0.45048 0.41629 0.0
O415 O 0.28114 0.44459 0.43779 0.0
Zn416 Zn 0.88665 0.98541 0.20156 0.0
O417 O 0.93591 0.94127 0.21408 0.0
C418 C 0.80825 0.90707 0.21554 0.0
Zn419 Zn 0.86764 0.92795 0.18121 0.0
C420 C 0.93686 0.89731 0.20993 0.0
O421 O 0.91239 0.88126 0.19621 0.0
C422 C 0.81843 0.02331 0.17152 0.0
O423 O 0.9293 0.95599 0.16515 0.0
O424 O 0.94592 1.01573 0.18409 0.0
N425 N 0.85719 0.87591 0.16119 0.0
C426 C 0.86447 0.87682 0.14244 0.0
C427 C 0.84535 0.80483 0.14963 0.0
N428 N 0.84504 0.83114 0.16564 0.0
N429 N 0.85775 0.8329 0.13497 0.0
C430 C 0.91427 0.02915 0.24035 0.0
C431 C 0.91682 0.1044 0.23479 0.0
N432 N 0.90032 0.03539 0.2223 0.0
N433 N 0.90179 0.08222 0.2189 0.0
N434 N 0.9255 0.07172 0.24834 0.0
H435 H 0.95162 0.96611 0.2495 0.0
H436 H 0.90641 0.98677 0.26569 0.0
H437 H 0.88926 0.95599 0.2445 0.0
C438 C 0.91512 0.98181 0.25054 0.0
C439 C 0.87805 0.9203 0.13115 0.0
H440 H 0.87032 0.95394 0.13879 0.0
H441 H 0.91699 0.91856 0.12787 0.0
H442 H 0.85837 0.92034 0.11756 0.0
O443 O 0.82199 0.97947 0.16619 0.0
O444 O 0.83689 0.0349 0.18735 0.0
C445 C 0.95568 0.99221 0.16911 0.0
O446 O 0.8303 0.94636 0.21995 0.0
O447 O 0.80993 0.89463 0.19824 0.0
Zn448 Zn 0.30828 0.64295 0.9502 0.0
O449 O 0.35067 0.69384 0.96277 0.0
C450 C 0.39015 0.56573 0.96075 0.0
Zn451 Zn 0.36234 0.62961 0.92822 0.0
C452 C 0.39448 0.69551 0.95832 0.0
O453 O 0.40979 0.67233 0.94412 0.0
C454 C 0.2684 0.57791 0.91895 0.0
O455 O 0.33368 0.69267 0.91417 0.0
O456 O 0.2734 0.70226 0.93358 0.0
N457 N 0.41354 0.62308 0.90754 0.0
C458 C 0.41192 0.63373 0.88905 0.0
C459 C 0.48316 0.61006 0.89489 0.0
N460 N 0.45785 0.60827 0.91115 0.0
N461 N 0.45508 0.62657 0.88093 0.0
C462 C 0.26393 0.66094 0.98995 0.0
C463 C 0.18864 0.6585 0.98422 0.0
N464 N 0.25873 0.65068 0.97146 0.0
N465 N 0.21196 0.64903 0.96797 0.0
N466 N 0.22042 0.66596 0.99822 0.0
H467 H 0.32125 0.70978 0.99625 0.0
H468 H 0.31043 0.66782 0.01467 0.0
H469 H 0.33995 0.64828 0.99357 0.0
C470 C 0.31138 0.67184 0.9992 0.0
C471 C 0.3678 0.64905 0.87861 0.0
H472 H 0.33473 0.63788 0.88604 0.0
H473 H 0.3682 0.68875 0.87724 0.0
H474 H 0.36747 0.63348 0.8642 0.0
O475 O 0.31062 0.58604 0.91249 0.0
O476 O 0.25941 0.59128 0.93583 0.0
C477 C 0.29624 0.71601 0.91883 0.0
O478 O 0.35332 0.58727 0.96782 0.0
O479 O 0.39564 0.56966 0.94293 0.0
Zn480 Zn 0.65222 0.10359 0.68427 0.0
O481 O 0.59178 0.07181 0.66835 0.0
C482 C 0.70585 1.00794 0.67607 0.0
Zn483 Zn 0.64143 0.0478 0.70616 0.0
C484 C 0.5669 0.03675 0.67464 0.0
O485 O 0.58032 1.01748 0.69011 0.0
C486 C 0.7156 0.1278 0.71871 0.0
O487 O 0.59418 0.09411 0.71862 0.0
O488 O 0.6056 0.15136 0.69765 0.0
N489 N 0.62835 0.99935 0.72742 0.0
C490 C 0.61528 1.00622 0.74555 0.0
C491 C 0.61308 0.93073 0.74044 0.0
N492 N 0.62708 0.95239 0.72431 0.0
N493 N 0.60487 0.96385 0.75389 0.0
C494 C 0.63844 0.16386 0.64804 0.0
C495 C 0.71124 0.17675 0.64016 0.0
N496 N 0.66628 0.14934 0.66247 0.0
N497 N 0.71146 0.158 0.65764 0.0
N498 N 0.66589 0.18037 0.63362 0.0
H499 H 0.57219 0.1709 0.66356 0.0
H500 H 0.57089 0.19516 0.63985 0.0
H501 H 0.56898 0.13133 0.64367 0.0
C502 C 0.58454 0.16558 0.64883 0.0
C503 C 0.61475 0.05401 0.75541 0.0
H504 H 0.64059 0.07942 0.749 0.0
H505 H 0.57827 0.06977 0.75439 0.0
H506 H 0.62377 0.0498 0.77054 0.0
O507 O 0.69867 0.0863 0.72335 0.0
O508 O 0.70864 0.14107 0.70167 0.0
C509 C 0.58649 0.13615 0.71282 0.0
O510 O 0.69932 0.05104 0.67041 0.0
O511 O 0.68953 0.99653 0.69227 0.0
H512 H 0.4107 0.27466 0.04863 0.0
H513 H 0.47011 0.13216 0.05335 0.0
H514 H 0.53792 0.15523 0.03318 0.0
H515 H 0.48381 0.30913 1.00005 0.0
H516 H 0.49181 0.36897 1.00929 0.0
H517 H 0.4359 0.33722 0.0131 0.0
H518 H 0.44403 0.35077 0.04893 0.0
H519 H 0.49899 0.38243 0.04517 0.0
H520 H 0.49787 0.33126 0.06082 0.0
H521 H 0.609 0.19573 0.02505 0.0
H522 H 0.6745 0.24647 0.03721 0.0
H523 H 0.57857 0.36771 0.03983 0.0
C524 C 0.43785 0.24863 0.04481 0.0
C525 C 0.4367 0.20247 0.05262 0.0
C526 C 0.47163 0.16825 0.04768 0.0
C527 C 0.5095 0.18083 0.03581 0.0
C528 C 0.5126 0.22818 0.02943 0.0
C529 C 0.47726 0.2618 0.0337 0.0
C530 C 0.49542 0.31244 0.03067 0.0
C531 C 0.47558 0.33311 0.01217 0.0
C532 C 0.48348 0.34603 0.04742 0.0
C533 C 0.54855 0.30207 0.02874 0.0
C534 C 0.55694 0.2535 0.02561 0.0
C535 C 0.60295 0.23375 0.02712 0.0
C536 C 0.63987 0.26246 0.03425 0.0
C537 C 0.6298 0.30974 0.03988 0.0
C538 C 0.58549 0.33093 0.03568 0.0
H539 H 0.62455 0.7247 0.30255 0.0
H540 H 0.5064 0.63674 0.28303 0.0
H541 H 0.47411 0.70532 0.26544 0.0
H542 H 0.57962 0.80815 0.3179 0.0
H543 H 0.61179 0.86025 0.30925 0.0
H544 H 0.64075 0.80336 0.3094 0.0
H545 H 0.65796 0.81016 0.27387 0.0
H546 H 0.62926 0.86817 0.27368 0.0
H547 H 0.60982 0.82196 0.25759 0.0
H548 H 0.43559 0.77955 0.26579 0.0
H549 H 0.39875 0.84366 0.28439 0.0
H550 H 0.53848 0.89315 0.30224 0.0
C551 C 0.59251 0.72032 0.29406 0.0
C552 C 0.56628 0.67716 0.29466 0.0
C553 C 0.52587 0.67055 0.28306 0.0
C554 C 0.50811 0.70907 0.27269 0.0
C555 C 0.53168 0.75348 0.27392 0.0
C556 C 0.57469 0.75876 0.28367 0.0
C557 C 0.58661 0.81112 0.28697 0.0
C558 C 0.6056 0.82119 0.30709 0.0
C559 C 0.62302 0.82888 0.27214 0.0
C560 C 0.53755 0.83225 0.28327 0.0
C561 C 0.50822 0.79967 0.27366 0.0
C562 C 0.45844 0.80561 0.27276 0.0
C563 C 0.43758 0.84148 0.28363 0.0
C564 C 0.4666 0.87156 0.29476 0.0
C565 C 0.51674 0.86974 0.29351 0.0
H566 H 0.14414 0.74534 0.55321 0.0
H567 H 0.09465 0.88327 0.53392 0.0
H568 H 0.02823 0.84487 0.51696 0.0
H569 H 0.06789 0.67077 0.50992 0.0
H570 H 0.05809 0.62352 0.52684 0.0
H571 H 0.11617 0.65237 0.52515 0.0
H572 H 0.11307 0.67144 0.56069 0.0
H573 H 0.05598 0.64259 0.56233 0.0
H574 H 0.0624 0.70406 0.57017 0.0
H575 H 0.95318 0.80655 0.51907 0.0
H576 H 0.88626 0.77377 0.53792 0.0
H577 H 0.97659 0.65715 0.55639 0.0
C578 C 0.1203 0.76621 0.54441 0.0
C579 C 0.12259 0.81637 0.54495 0.0
C580 C 0.09207 0.8444 0.53373 0.0
C581 C 0.05487 0.82264 0.52377 0.0
C582 C 0.04857 0.77303 0.5255 0.0
C583 C 0.08218 0.7444 0.53477 0.0
C584 C 0.06116 0.69548 0.53928 0.0
C585 C 0.07674 0.6584 0.5244 0.0
C586 C 0.0738 0.67757 0.55932 0.0
C587 C 1.00859 0.70718 0.53692 0.0
C588 C 1.00222 0.74957 0.52693 0.0
C589 C 0.95768 0.77278 0.5264 0.0
C590 C 0.92015 0.75476 0.53746 0.0
C591 C 0.92802 0.71464 0.54907 0.0
C592 C 0.97121 0.68895 0.54787 0.0
H593 H 0.12945 0.22644 0.80049 0.0
H594 H 1.00869 0.13414 0.78748 0.0
H595 H 0.9709 0.19947 0.76978 0.0
H596 H 0.0869 0.31129 0.81575 0.0
H597 H 0.11555 0.36255 0.80476 0.0
H598 H 0.14562 0.3062 0.80499 0.0
H599 H 0.15259 0.30672 0.76835 0.0
H600 H 0.12487 0.36529 0.76886 0.0
H601 H 0.10013 0.3182 0.75435 0.0
H602 H 0.93132 0.27328 0.76931 0.0
H603 H 0.89719 0.33997 0.78734 0.0
H604 H 0.03933 0.39267 0.80032 0.0
C605 C 0.0956 0.22031 0.79335 0.0
C606 C 0.07064 0.17683 0.7958 0.0
C607 C 0.02757 0.16806 0.786 0.0
C608 C 1.00649 0.20475 0.77557 0.0
C609 C 0.02933 0.24959 0.77497 0.0
C610 C 0.07436 0.25695 0.78296 0.0
C611 C 0.08584 0.30986 0.7847 0.0
C612 C 0.10969 0.32314 0.80371 0.0
C613 C 0.1177 0.32601 0.76809 0.0
C614 C 0.03558 0.32951 0.78255 0.0
C615 C 1.00495 0.29528 0.77459 0.0
C616 C 0.95506 0.30049 0.77505 0.0
C617 C 0.93583 0.33781 0.78563 0.0
C618 C 0.96649 0.36954 0.79531 0.0
C619 C 1.01631 0.36786 0.79275 0.0
H620 H 0.57107 0.87674 0.9733 0.0
H621 H 0.66337 0.75565 0.98402 0.0
H622 H 0.59712 0.71402 1.0003 0.0
H623 H 0.47701 0.83832 0.01817 0.0
H624 H 0.42996 0.86428 1.00409 0.0
H625 H 0.48782 0.89367 1.00572 0.0
H626 H 0.49167 0.89388 0.96922 0.0
H627 H 0.43542 0.86327 0.96797 0.0
H628 H 0.48753 0.83757 0.95663 0.0
H629 H 0.52415 0.67318 0.99698 0.0
H630 H 0.45898 0.64322 0.97706 0.0
H631 H 0.40399 0.7868 0.97044 0.0
C632 C 0.57692 0.84206 0.97981 0.0
C633 C 0.62036 0.81779 0.97687 0.0
C634 C 0.62922 0.7737 0.98581 0.0
C635 C 0.59201 0.75046 0.9954 0.0
C636 C 0.54685 0.77243 0.9961 0.0
C637 C 0.53982 0.81887 0.98946 0.0
C638 C 0.4869 0.83007 0.98755 0.0
C639 C 0.46937 0.8582 1.00491 0.0
C640 C 0.47479 0.85764 0.96923 0.0
C641 C 0.46727 0.77936 0.9879 0.0
C642 C 0.50135 0.74735 0.99489 0.0
C643 C 0.49688 0.69787 0.99214 0.0
C644 C 0.46043 0.6811 0.98047 0.0
C645 C 0.42817 0.71352 0.97217 0.0
C646 C 0.42908 0.76227 0.97696 0.0
H647 H 0.49164 0.14529 0.71779 0.0
H648 H 0.62969 0.19874 0.73598 0.0
H649 H 0.59059 0.26349 0.75371 0.0
H650 H 0.45001 0.23312 0.70186 0.0
H651 H 0.38809 0.2336 0.7096 0.0
H652 H 0.42003 0.17842 0.70911 0.0
H653 H 0.40128 0.16479 0.7443 0.0
H654 H 0.3685 0.22051 0.7447 0.0
H655 H 0.41625 0.21018 0.76141 0.0
H656 H 0.54818 0.33599 0.75506 0.0
H657 H 0.51187 0.40377 0.73821 0.0
H658 H 0.39653 0.3113 0.71922 0.0
C659 C 0.51259 0.16992 0.72631 0.0
C660 C 0.56274 0.16891 0.72547 0.0
C661 C 0.59077 0.20041 0.7364 0.0
C662 C 0.56867 0.23653 0.74681 0.0
C663 C 0.51869 0.24069 0.74586 0.0
C664 C 0.49059 0.2071 0.73627 0.0
C665 C 0.44072 0.22614 0.7326 0.0
C666 C 0.42395 0.21742 0.71207 0.0
C667 C 0.40457 0.20418 0.74661 0.0
C668 C 0.44959 0.27862 0.73699 0.0
C669 C 0.49277 0.2855 0.74647 0.0
C670 C 0.51391 0.33104 0.74811 0.0
C671 C 0.49367 0.36926 0.73824 0.0
C672 C 0.45307 0.3612 0.72688 0.0
C673 C 0.42865 0.31696 0.72754 0.0
H674 H 0.13877 0.2411 0.46635 0.0
H675 H 0.09154 0.37989 0.48564 0.0
H676 H 0.02568 0.34253 0.50337 0.0
H677 H 0.05747 0.20009 0.45001 0.0
H678 H 0.04976 0.13902 0.45815 0.0
H679 H 0.1074 0.16682 0.45966 0.0
H680 H 0.10971 0.14862 0.49519 0.0
H681 H 0.05096 0.12117 0.49375 0.0
H682 H 0.06195 0.16872 0.51042 0.0
H683 H 0.95011 0.30589 0.50127 0.0
H684 H 0.88294 0.27529 0.48221 0.0
H685 H 0.97061 0.15658 0.46357 0.0
C686 C 0.11548 0.26236 0.47527 0.0
C687 C 0.11807 0.31246 0.47451 0.0
C688 C 0.08851 0.34105 0.48595 0.0
C689 C 0.0517 0.31987 0.49636 0.0
C690 C 0.04466 0.27032 0.49475 0.0
C691 C 0.0776 0.24113 0.48529 0.0
C692 C 0.05571 0.19254 0.48094 0.0
C693 C 0.06824 0.17375 0.46099 0.0
C694 C 0.07044 0.15563 0.49598 0.0
C695 C 1.00337 0.2054 0.48327 0.0
C696 C 0.99787 0.24781 0.49336 0.0
C697 C 0.95397 0.27217 0.49383 0.0
C698 C 0.91635 0.25543 0.48261 0.0
C699 C 0.92339 0.21529 0.47089 0.0
C700 C 0.96586 0.18845 0.47212 0.0
H701 H 0.12907 0.72831 0.21815 0.0
H702 H 1.0145 0.63 0.23302 0.0
H703 H 0.97305 0.6945 0.25005 0.0
H704 H 0.0986 0.82064 0.26295 0.0
H705 H 0.11601 0.86979 0.24784 0.0
H706 H 0.15001 0.81474 0.24762 0.0
H707 H 0.13896 0.80815 0.21183 0.0
H708 H 0.10557 0.86253 0.2117 0.0
H709 H 0.07909 0.80861 0.20197 0.0
H710 H 0.92847 0.76537 0.24844 0.0
H711 H 0.89113 0.83033 0.23044 0.0
H712 H 0.03056 0.89184 0.21855 0.0
C713 C 0.09593 0.72073 0.22563 0.0
C714 C 0.07338 0.67577 0.22376 0.0
C715 C 0.03133 0.66511 0.234 0.0
C716 C 1.00817 0.70139 0.24401 0.0
C717 C 0.02809 0.74762 0.24378 0.0
C718 C 0.07264 0.75697 0.23561 0.0
C719 C 0.08088 0.81032 0.23302 0.0
C720 C 0.11324 0.83001 0.24881 0.0
C721 C 0.10219 0.82301 0.21345 0.0
C722 C 0.02979 0.82743 0.23559 0.0
C723 C 1.00094 0.79171 0.24358 0.0
C724 C 0.95081 0.79398 0.24286 0.0
C725 C 0.9298 0.83034 0.23229 0.0
C726 C 0.9589 0.86443 0.22306 0.0
C727 C 1.00867 0.86543 0.22582 0.0
H728 H 0.40543 0.06328 0.01768 0.0
H729 H 0.46171 1.01236 0.071 0.0
H730 H 0.53595 0.98683 0.055 0.0
H731 H 0.45732 0.96534 0.98859 0.0
H732 H 0.47226 1.00301 0.96875 0.0
H733 H 0.4223 1.01822 0.98383 0.0
H734 H 0.45863 0.10189 0.99005 0.0
H735 H 0.50861 0.08781 0.97481 0.0
H736 H 0.51932 0.10697 0.99872 0.0
H737 H 0.60886 0.97061 0.0336 0.0
H738 H 0.66851 0.95657 1.00869 0.0
H739 H 0.56848 1.01069 0.96706 0.0
C740 C 0.43284 0.0458 0.026 0.0
C741 C 0.42583 0.03974 0.04604 0.0
C742 C 0.46431 1.01747 0.0559 0.0
C743 C 0.50743 1.0029 0.04682 0.0
C744 C 0.51331 1.00991 0.02739 0.0
C745 C 0.47674 0.03017 0.01695 0.0
C746 C 0.49305 0.03293 0.9961 0.0
C747 C 0.45923 1.00311 0.98357 0.0
C748 C 0.495 0.08553 0.98952 0.0
C749 C 0.54411 1.01099 0.99647 0.0
C750 C 0.55496 0.9988 0.01485 0.0
C751 C 0.60012 0.97976 0.01919 0.0
C752 C 0.6345 0.97207 1.00469 0.0
C753 C 0.62509 0.98232 0.98538 0.0
C754 C 0.57833 1.00241 0.98144 0.0
H755 H 0.71298 0.64949 0.26181 0.0
H756 H 0.75111 0.70996 0.31616 0.0
H757 H 0.77501 0.78544 0.3007 0.0
H758 H 0.81373 0.70779 0.23552 0.0
H759 H 0.77868 0.71834 0.21459 0.0
H760 H 0.76439 0.66822 0.22974 0.0
H761 H 0.67725 0.69894 0.23282 0.0
H762 H 0.69141 0.74957 0.21791 0.0
H763 H 0.66669 0.75919 0.2411 0.0
H764 H 0.79285 0.85863 0.27937 0.0
H765 H 0.81019 0.91766 0.25429 0.0
H766 H 0.76647 0.8131 0.21229 0.0
C767 C 0.72723 0.67816 0.27049 0.0
C768 C 0.73027 0.6719 0.29061 0.0
C769 C 0.74847 0.71195 0.30095 0.0
C770 C 0.76207 0.75581 0.2922 0.0
C771 C 0.75827 0.76085 0.27263 0.0
C772 C 0.74196 0.72282 0.2618 0.0
C773 C 0.7425 0.73821 0.24089 0.0
C774 C 0.77686 0.70622 0.22951 0.0
C775 C 0.69142 0.73635 0.23269 0.0
C776 C 0.76138 0.79048 0.2417 0.0
C777 C 0.76969 0.80274 0.26028 0.0
C778 C 0.78656 0.8489 0.26481 0.0
C779 C 0.79619 0.88279 0.25028 0.0
C780 C 0.78971 0.87165 0.23087 0.0
C781 C 0.77154 0.82415 0.22677 0.0
H782 H 0.05682 1.00943 0.55696 0.0
H783 H 0.16619 0.97499 0.51547 0.0
H784 H 0.10906 0.99347 0.49006 0.0
H785 H 0.95403 0.96316 0.53123 0.0
H786 H 0.91327 1.01086 0.53741 0.0
H787 H 0.96224 0.99588 0.55293 0.0
H788 H 0.99259 0.08367 0.55179 0.0
H789 H 0.94338 0.099 0.53643 0.0
H790 H 1.00438 0.11147 0.52929 0.0
H791 H 0.03796 1.01102 0.46812 0.0
H792 H 0.96412 0.03452 0.45182 0.0
H793 H 0.89661 0.06577 0.50564 0.0
C794 C 0.06923 1.00652 0.54254 0.0
C795 C 0.11771 0.99056 0.53874 0.0
C796 C 0.1306 0.98717 0.51935 0.0
C797 C 0.09778 0.99747 0.50458 0.0
C798 C 0.0508 1.01221 0.50878 0.0
C799 C 0.03662 1.01779 0.52732 0.0
C800 C 0.98385 0.03554 0.5276 0.0
C801 C 0.95142 0.9992 0.53792 0.0
C802 C 0.98087 0.08538 0.53684 0.0
C803 C 0.97052 0.03838 0.50646 0.0
C804 C 1.00999 0.0241 0.496 0.0
C805 C 1.00719 0.02236 0.47633 0.0
C806 C 0.96415 0.0358 0.46707 0.0
C807 C 0.92251 0.05207 0.47693 0.0
C808 C 0.92653 0.05321 0.49723 0.0
H809 H 0.80364 0.38646 0.76723 0.0
H810 H 0.78086 0.31609 0.82111 0.0
H811 H 0.7577 0.24182 0.80475 0.0
H812 H 0.70065 0.3251 0.74296 0.0
H813 H 0.73172 0.31959 0.72074 0.0
H814 H 0.74607 0.36853 0.73645 0.0
H815 H 0.83533 0.34323 0.73595 0.0
H816 H 0.82113 0.29383 0.72044 0.0
H817 H 0.85124 0.28278 0.74249 0.0
H818 H 0.74072 0.17063 0.7826 0.0
H819 H 0.72265 0.11345 0.75706 0.0
H820 H 0.74944 0.22569 0.71588 0.0
C821 C 0.79279 0.35585 0.77565 0.0
C822 C 0.79419 0.35898 0.79596 0.0
C823 C 0.78031 0.31651 0.80585 0.0
C824 C 0.76713 0.2733 0.79656 0.0
C825 C 0.76698 0.2712 0.77685 0.0
C826 C 0.77861 0.31161 0.76642 0.0
C827 C 0.77452 0.29882 0.74526 0.0
C828 C 0.73596 0.32988 0.73579 0.0
C829 C 0.82347 0.30506 0.73545 0.0
C830 C 0.75911 0.24531 0.7455 0.0
C831 C 0.7556 0.23029 0.76401 0.0
C832 C 0.74311 0.18253 0.76811 0.0
C833 C 0.73302 0.14973 0.75327 0.0
C834 C 0.73448 0.16344 0.73395 0.0
C835 C 0.74819 0.21268 0.73025 0.0
H836 H 0.3182 0.38757 0.75562 0.0
H837 H 0.25503 0.33872 0.70306 0.0
H838 H 0.22882 0.26421 0.71845 0.0
H839 H 0.35935 0.2728 0.77217 0.0
H840 H 0.34291 0.27991 0.79656 0.0
H841 H 0.35637 0.33193 0.78229 0.0
H842 H 0.2748 0.3685 0.79038 0.0
H843 H 0.26001 0.31722 0.80486 0.0
H844 H 0.22047 0.33498 0.78607 0.0
H845 H 0.21271 0.19018 0.73858 0.0
H846 H 0.19942 0.12794 0.76267 0.0
H847 H 0.26588 0.22034 0.80454 0.0
C848 C 0.29782 0.36184 0.74742 0.0
C849 C 0.28885 0.37095 0.72769 0.0
C850 C 0.26274 0.33449 0.71792 0.0
C851 C 0.24765 0.29117 0.72663 0.0
C852 C 0.25774 0.28299 0.74565 0.0
C853 C 0.28133 0.31767 0.75615 0.0
C854 C 0.28616 0.299 0.77662 0.0
C855 C 0.33935 0.29571 0.78225 0.0
C856 C 0.25873 0.33186 0.79029 0.0
C857 C 0.26259 0.24844 0.77576 0.0
C858 C 0.24687 0.24031 0.75758 0.0
C859 C 0.22477 0.19659 0.75286 0.0
C860 C 0.21759 0.16076 0.76682 0.0
C861 C 0.23174 0.16735 0.78591 0.0
C862 C 0.25491 0.21265 0.79023 0.0
H863 H 0.27068 0.81296 0.30616 0.0
H864 H 0.32037 0.91763 0.26514 0.0
H865 H 0.30493 0.8593 0.23968 0.0
H866 H 0.31815 0.70713 0.28324 0.0
H867 H 0.2675 0.66842 0.28817 0.0
H868 H 0.28098 0.71809 0.30364 0.0
H869 H 0.19513 0.75102 0.29917 0.0
H870 H 0.18122 0.70112 0.28386 0.0
H871 H 0.173 0.76181 0.2757 0.0
H872 H 0.28941 0.78694 0.21797 0.0
H873 H 0.26623 0.71277 0.20168 0.0
H874 H 0.21886 0.65116 0.25482 0.0
C875 C 0.27745 0.82419 0.2918 0.0
C876 C 0.29677 0.8716 0.28813 0.0
C877 C 0.30536 0.88293 0.26886 0.0
C878 C 0.29689 0.8494 0.2541 0.0
C879 C 0.27882 0.80339 0.25821 0.0
C880 C 0.2682 0.7909 0.27659 0.0
C881 C 0.24816 0.73886 0.27683 0.0
C882 C 0.28062 0.70618 0.28868 0.0
C883 C 0.1963 0.73816 0.28434 0.0
C884 C 0.24961 0.72394 0.25583 0.0
C885 C 0.26807 0.762 0.24551 0.0
C886 C 0.27456 0.7574 0.22605 0.0
C887 C 0.26128 0.71417 0.21681 0.0
C888 C 0.24053 0.67411 0.22648 0.0
C889 C 0.23496 0.67978 0.2466 0.0
H890 H 0.05336 0.50174 0.46384 0.0
H891 H 0.16978 0.47463 0.50298 0.0
H892 H 0.11622 0.49439 0.52949 0.0
H893 H 1.00221 0.60502 0.49129 0.0
H894 H 0.94068 0.59003 0.48582 0.0
H895 H 0.98805 0.57472 0.46951 0.0
H896 H 0.96036 0.48596 0.47036 0.0
H897 H 0.91332 0.50096 0.48684 0.0
H898 H 0.95645 0.45516 0.49266 0.0
H899 H 0.04808 0.51307 0.55297 0.0
H900 H 0.97562 0.5363 0.57062 0.0
H901 H 0.89973 0.55796 0.51796 0.0
C902 C 0.06804 0.50076 0.47794 0.0
C903 C 0.11734 0.48648 0.48076 0.0
C904 C 0.13332 0.48546 0.49982 0.0
C905 C 0.10263 0.49653 0.51523 0.0
C906 C 0.05474 0.50957 0.512 0.0
C907 C 0.03757 0.51267 0.49378 0.0
C908 C 0.9844 0.52871 0.49452 0.0
C909 C 0.97848 0.57751 0.48469 0.0
C910 C 0.95169 0.49042 0.48555 0.0
C911 C 0.97424 0.53324 0.51588 0.0
C912 C 1.01562 0.52163 0.52559 0.0
C913 C 1.01576 0.52226 0.54533 0.0
C914 C 0.97363 0.53542 0.55538 0.0
C915 C 0.9302 0.54879 0.54619 0.0
C916 C 0.93124 0.54748 0.52586 0.0
H917 H 0.5708 0.50497 0.05162 0.0
H918 H 0.67534 0.46168 1.00951 0.0
H919 H 0.61655 0.47852 0.98451 0.0
H920 H 0.46415 0.45822 0.02769 0.0
H921 H 0.42559 0.50774 0.03381 0.0
H922 H 0.47543 0.49234 0.04884 0.0
H923 H 0.50771 0.57938 0.04609 0.0
H924 H 0.45809 0.59478 0.03095 0.0
H925 H 0.51902 0.60457 0.02308 0.0
H926 H 0.54443 0.49582 0.96318 0.0
H927 H 0.47064 0.52119 0.94728 0.0
H928 H 0.40864 0.56108 1.00124 0.0
C929 C 0.58183 0.49978 0.03713 0.0
C930 C 0.62948 0.48197 0.03302 0.0
C931 C 0.64049 0.47545 0.01359 0.0
C932 C 0.6067 0.48475 0.99907 0.0
C933 C 0.56059 0.50149 1.00357 0.0
C934 C 0.54818 0.50986 0.02214 0.0
C935 C 0.49602 0.52922 0.02274 0.0
C936 C 0.46336 0.49485 0.03395 0.0
C937 C 0.49515 0.58001 0.03123 0.0
C938 C 0.48117 0.53028 1.00173 0.0
C939 C 0.51923 0.51334 0.99109 0.0
C940 C 0.51485 0.50946 0.97152 0.0
C941 C 0.47186 0.52399 0.9625 0.0
C942 C 0.43187 0.54342 0.97251 0.0
C943 C 0.43722 0.54606 0.99274 0.0
H944 H 0.28194 0.23951 0.13712 0.0
H945 H 0.26074 0.29254 0.08026 0.0
H946 H 0.24375 0.37325 0.09287 0.0
H947 H 0.18293 0.31052 0.15761 0.0
H948 H 0.21331 0.32134 0.17963 0.0
H949 H 0.22589 0.26763 0.16633 0.0
H950 H 0.31637 0.28935 0.1662 0.0
H951 H 0.30402 0.34336 0.17937 0.0
H952 H 0.33553 0.34691 0.15717 0.0
H953 H 0.23443 0.45013 0.11117 0.0
H954 H 0.21875 0.51472 0.13378 0.0
H955 H 0.23502 0.41441 0.18007 0.0
C956 C 0.27339 0.26808 0.12734 0.0
C957 C 0.27288 0.25905 0.1075 0.0
C958 C 0.26119 0.29778 0.09538 0.0
C959 C 0.25178 0.34415 0.10246 0.0
C960 C 0.25294 0.35195 0.12191 0.0
C961 C 0.26222 0.31483 0.13428 0.0
C962 C 0.25816 0.33313 0.15464 0.0
C963 C 0.21766 0.30657 0.16518 0.0
C964 C 0.30639 0.32786 0.16496 0.0
C965 C 0.24563 0.38627 0.15171 0.0
C966 C 0.24392 0.39613 0.13263 0.0
C967 C 0.23505 0.4425 0.12612 0.0
C968 C 0.22638 0.47944 0.13924 0.0
C969 C 0.22525 0.47079 0.15896 0.0
C970 C 0.23551 0.423 0.1652 0.0
H971 H 0.53444 0.52925 0.38125 0.0
H972 H 0.4761 0.50609 0.32535 0.0
H973 H 0.39595 0.4905 0.33928 0.0
H974 H 0.46377 0.43276 0.4035 0.0
H975 H 0.45614 0.46466 0.42541 0.0
H976 H 0.50863 0.47554 0.41107 0.0
H977 H 0.48897 0.56628 0.41056 0.0
H978 H 0.43609 0.55559 0.42471 0.0
H979 H 0.43094 0.58575 0.40233 0.0
H980 H 0.31996 0.48292 0.35919 0.0
H981 H 0.25775 0.46889 0.38333 0.0
H982 H 0.36472 0.48758 0.42722 0.0
C983 C 0.50483 0.52067 0.37195 0.0
C984 C 0.512 0.51918 0.35205 0.0
C985 C 0.47208 0.50723 0.34054 0.0
C986 C 0.42611 0.49869 0.34836 0.0
C987 C 0.42011 0.50108 0.36791 0.0
C988 C 0.45864 0.51055 0.37962 0.0
C989 C 0.44263 0.50809 0.40025 0.0
C990 C 0.46938 0.46787 0.41068 0.0
C991 C 0.45011 0.55683 0.41004 0.0
C992 C 0.38908 0.49625 0.3983 0.0
C993 C 0.37685 0.49338 0.37946 0.0
C994 C 0.32946 0.48449 0.37396 0.0
C995 C 0.29403 0.4768 0.38791 0.0
C996 C 0.30557 0.47681 0.40741 0.0
C997 C 0.35411 0.48736 0.41255 0.0
H998 H 0.23655 0.79289 0.63552 0.0
H999 H 0.30025 0.75428 0.58175 0.0
H1000 H 0.32385 0.67582 0.59482 0.0
H1001 H 0.33131 0.73602 0.66412 0.0
H1002 H 0.2907 0.71623 0.68241 0.0
H1003 H 0.2772 0.76936 0.66892 0.0
H1004 H 0.19481 0.73295 0.65985 0.0
H1005 H 0.20817 0.67952 0.67318 0.0
H1006 H 0.19238 0.67486 0.64861 0.0
H1007 H 0.33632 0.59901 0.6127 0.0
H1008 H 0.34843 0.5337 0.63533 0.0
H1009 H 0.28531 0.62049 0.67965 0.0
C1010 C 0.25574 0.76801 0.62653 0.0
C1011 C 0.2663 0.7804 0.6074 0.0
C1012 C 0.29178 0.74646 0.59634 0.0
C1013 C 0.30515 0.70137 0.60366 0.0
C1014 C 0.29391 0.69015 0.62235 0.0
C1015 C 0.27075 0.72279 0.63385 0.0
C1016 C 0.26537 0.70177 0.65376 0.0
C1017 C 0.29278 0.73269 0.66816 0.0
C1018 C 0.212 0.697 0.65917 0.0
C1019 C 0.28866 0.65218 0.65155 0.0
C1020 C 0.30393 0.64634 0.63314 0.0
C1021 C 0.32477 0.60349 0.62717 0.0
C1022 C 0.33106 0.566 0.64023 0.0
C1023 C 0.31757 0.57074 0.65945 0.0
C1024 C 0.29603 0.61504 0.66513 0.0
H1025 H 0.99821 0.4995 0.88442 0.0
H1026 H 0.04247 0.54426 0.82845 0.0
H1027 H 0.12369 0.56269 0.84053 0.0
H1028 H 0.06609 0.59539 0.90897 0.0
H1029 H 0.08082 0.55811 0.92889 0.0
H1030 H 0.02632 0.5471 0.91585 0.0
H1031 H 0.05238 0.45914 0.91041 0.0
H1032 H 0.10722 0.47 0.92325 0.0
H1033 H 0.10969 0.44708 0.8995 0.0
H1034 H 0.203 0.56999 0.85812 0.0
H1035 H 0.26948 0.58101 0.88048 0.0
H1036 H 0.17451 0.54229 0.92673 0.0
C1037 C 0.02486 0.5137 0.87474 0.0
C1038 C 1.01327 0.52028 0.85529 0.0
C1039 C 0.04961 0.5391 0.8433 0.0
C1040 C 0.09628 0.54935 0.85006 0.0
C1041 C 0.10666 0.54187 0.86912 0.0
C1042 C 0.07161 0.52576 0.88145 0.0
C1043 C 0.09196 0.52357 0.9015 0.0
C1044 C 0.06467 0.5581 0.91458 0.0
C1045 C 0.09019 0.47187 0.90912 0.0
C1046 C 0.144 0.54038 0.89848 0.0
C1047 C 0.15167 0.54967 0.87957 0.0
C1048 C 0.19699 0.56348 0.87298 0.0
C1049 C 0.23498 0.56938 0.88592 0.0
C1050 C 0.22819 0.56282 0.90562 0.0
C1051 C 0.18158 0.54768 0.91187 0.0
H1052 H 0.79227 0.61922 0.84172 0.0
H1053 H 0.8258 0.52035 0.88713 0.0
H1054 H 0.81215 0.58461 0.91025 0.0
H1055 H 0.84513 0.72488 0.86183 0.0
H1056 H 0.79854 0.76581 0.85469 0.0
H1057 H 0.80976 0.71221 0.84114 0.0
H1058 H 0.72081 0.68644 0.84492 0.0
H1059 H 0.70924 0.74027 0.8583 0.0
H1060 H 0.69496 0.68226 0.86819 0.0
H1061 H 0.80342 0.66129 0.92874 0.0
H1062 H 0.7864 0.74149 0.94181 0.0
H1063 H 0.74904 0.7925 0.88597 0.0
C1064 C 0.79584 0.61081 0.85654 0.0
C1065 C 0.81019 0.56381 0.86236 0.0
C1066 C 0.81462 0.55522 0.88202 0.0
C1067 C 0.80723 0.59188 0.8954 0.0
C1068 C 0.79429 0.63764 0.88924 0.0
C1069 C 0.7873 0.64713 0.87032 0.0
C1070 C 0.77191 0.69962 0.86781 0.0
C1071 C 0.80852 0.72725 0.85564 0.0
C1072 C 0.72121 0.7023 0.8593 0.0
C1073 C 0.7722 0.71806 0.88818 0.0
C1074 C 0.78607 0.68159 0.90019 0.0
C1075 C 0.7918 0.68983 0.91947 0.0
C1076 C 0.78234 0.73591 0.92678 0.0
C1077 C 0.76613 0.7739 0.91511 0.0
C1078 C 0.76101 0.76447 0.89542 0.0
H1079 H 0.55355 0.5446 0.67826 0.0
H1080 H 0.47906 0.45791 0.6365 0.0
H1081 H 0.54667 0.46771 0.61471 0.0
H1082 H 0.61027 0.62814 0.64468 0.0
H1083 H 0.66658 0.63186 0.65714 0.0
H1084 H 0.6117 0.61959 0.66986 0.0
H1085 H 0.64941 0.54233 0.68351 0.0
H1086 H 0.70425 0.5542 0.67069 0.0
H1087 H 0.67329 0.49767 0.66768 0.0
H1088 H 0.62113 0.4869 0.59648 0.0
H1089 H 0.69805 0.51547 0.5831 0.0
H1090 H 0.73103 0.58736 0.63577 0.0
C1091 C 0.55132 0.52807 0.66448 0.0
C1092 C 0.50985 0.50053 0.65932 0.0
C1093 C 0.50949 0.47923 0.64109 0.0
C1094 C 0.54813 0.4845 0.62846 0.0
C1095 C 0.5883 0.51099 0.63396 0.0
C1096 C 0.59052 0.53255 0.65151 0.0
C1097 C 0.639 0.55858 0.65359 0.0
C1098 C 0.63143 0.61277 0.65649 0.0
C1099 C 0.66821 0.5369 0.66984 0.0
C1100 C 0.66306 0.54841 0.63451 0.0
C1101 C 0.63274 0.52089 0.62348 0.0
C1102 C 0.64534 0.50808 0.60509 0.0
C1103 C 0.68944 0.52434 0.59758 0.0
C1104 C 0.72165 0.55278 0.60835 0.0
C1105 C 0.70818 0.56447 0.62726 0.0
H1106 H 0.75434 0.30912 0.425 0.0
H1107 H 0.77779 0.20463 0.38064 0.0
H1108 H 0.76226 0.26648 0.35672 0.0
H1109 H 0.65619 0.3738 0.40037 0.0
H1110 H 0.67472 0.43231 0.40859 0.0
H1111 H 0.68678 0.37976 0.42263 0.0
H1112 H 0.77714 0.40201 0.42304 0.0
H1113 H 0.76537 0.45432 0.40882 0.0
H1114 H 0.80868 0.41054 0.40105 0.0
H1115 H 0.74701 0.33953 0.33702 0.0
H1116 H 0.72617 0.41736 0.32283 0.0
H1117 H 0.70959 0.4789 0.37869 0.0
C1118 C 0.75541 0.29914 0.41026 0.0
C1119 C 0.76807 0.25133 0.40485 0.0
C1120 C 0.7694 0.24061 0.38531 0.0
C1121 C 0.76034 0.27572 0.37152 0.0
C1122 C 0.7495 0.32243 0.37718 0.0
C1123 C 0.74628 0.33436 0.39606 0.0
C1124 C 0.73357 0.38779 0.39795 0.0
C1125 C 0.68492 0.39377 0.40798 0.0
C1126 C 0.77358 0.41529 0.40834 0.0
C1127 C 0.73047 0.40369 0.37726 0.0
C1128 C 0.74003 0.36509 0.36562 0.0
C1129 C 0.73935 0.36992 0.34604 0.0
C1130 C 0.72761 0.41471 0.33805 0.0
C1131 C 0.71647 0.45519 0.34941 0.0
C1132 C 0.71856 0.44932 0.36943 0.0
H1133 H 0.81026 0.44572 0.13032 0.0
H1134 H 0.8449 0.52234 0.07882 0.0
H1135 H 0.92006 0.5519 0.09317 0.0
H1136 H 0.86391 0.5352 0.16366 0.0
H1137 H 0.88747 0.48998 0.17927 0.0
H1138 H 0.83382 0.47792 0.16581 0.0
H1139 H 0.87361 0.40203 0.15188 0.0
H1140 H 0.92758 0.41413 0.16512 0.0
H1141 H 0.9306 0.40736 0.13987 0.0
H1142 H 0.99333 0.5704 0.11187 0.0
H1143 H 0.05984 0.57975 0.13405 0.0
H1144 H 0.98444 0.49008 0.17473 0.0
C1145 C 0.833 0.46998 0.12232 0.0
C1146 C 0.82054 0.48267 0.10342 0.0
C1147 C 0.85267 0.51279 0.09329 0.0
C1148 C 0.89582 0.52958 0.10135 0.0
C1149 C 0.90758 0.51572 0.11968 0.0
C1150 C 0.87719 0.4868 0.13018 0.0
C1151 C 0.90048 0.47589 0.14933 0.0
C1152 C 0.86958 0.49594 0.16548 0.0
C1153 C 0.90853 0.42162 0.15169 0.0
C1154 C 0.94861 0.50297 0.14785 0.0
C1155 C 0.9513 0.52567 0.13054 0.0
C1156 C 0.99142 0.55289 0.12547 0.0
C1157 C 0.02944 0.55788 0.13834 0.0
C1158 C 0.02851 0.53575 0.15641 0.0
C1159 C 0.98713 0.50735 0.1611 0.0
H1160 H 0.78745 0.74303 0.63806 0.0
H1161 H 0.75373 0.79504 0.58203 0.0
H1162 H 0.73437 0.87472 0.59531 0.0
H1163 H 0.68845 0.80816 0.66129 0.0
H1164 H 0.72208 0.82002 0.68249 0.0
H1165 H 0.73493 0.76731 0.66863 0.0
H1166 H 0.82401 0.79358 0.66623 0.0
H1167 H 0.81135 0.84668 0.67989 0.0
H1168 H 0.83871 0.85215 0.65693 0.0
H1169 H 0.72414 0.95121 0.61427 0.0
H1170 H 0.70908 1.01452 0.63773 0.0
H1171 H 0.73941 0.91355 0.68275 0.0
C1172 C 0.77562 0.77113 0.62861 0.0
C1173 C 0.77231 0.76228 0.60883 0.0
C1174 C 0.75635 0.80027 0.59713 0.0
C1175 C 0.7456 0.84601 0.60457 0.0
C1176 C 0.74974 0.85371 0.62397 0.0
C1177 C 0.76314 0.81701 0.63594 0.0
C1178 C 0.76181 0.83458 0.65641 0.0
C1179 C 0.7246 0.8058 0.66788 0.0
C1180 C 0.81196 0.83155 0.66539 0.0
C1181 C 0.74618 0.88694 0.65403 0.0
C1182 C 0.74046 0.8972 0.6351 0.0
C1183 C 0.72801 0.94327 0.62912 0.0
C1184 C 0.71988 0.97937 0.64268 0.0
C1185 C 0.723 0.96986 0.66231 0.0
C1186 C 0.73675 0.9226 0.66795 0.0
H1187 H 0.80936 0.95353 0.88906 0.0
H1188 H 0.85389 1.01577 0.9423 0.0
H1189 H 0.93018 0.04223 0.92776 0.0
H1190 H 0.92553 0.908 0.87639 0.0
H1191 H 0.92089 0.92036 0.85153 0.0
H1192 H 0.86733 0.90954 0.86527 0.0
H1193 H 0.83248 0.99093 0.8545 0.0
H1194 H 0.88572 1.0018 0.84056 0.0
H1195 H 0.8671 0.04516 0.85795 0.0
H1196 H 1.00351 0.05945 0.90829 0.0
H1197 H 0.06841 0.06869 0.8851 0.0
H1198 H 0.98215 0.99379 0.84334 0.0
C1199 C 0.83459 0.974 0.89748 0.0
C1200 C 0.82454 0.98348 0.91691 0.0
C1201 C 0.85982 1.00866 0.92746 0.0
C1202 C 0.90362 0.02368 0.91929 0.0
C1203 C 0.91287 1.01298 0.90039 0.0
C1204 C 0.87941 0.98888 0.88951 0.0
C1205 C 0.90008 0.98041 0.86969 0.0
C1206 C 0.90366 0.92636 0.86547 0.0
C1207 C 0.86952 1.0061 0.85479 0.0
C1208 C 0.95023 1.00337 0.8712 0.0
C1209 C 0.95633 0.02197 0.88912 0.0
C1210 C 0.99893 0.04507 0.89423 0.0
C1211 C 0.03596 0.05007 0.88081 0.0
C1212 C 0.03142 0.03197 0.86215 0.0
C1213 C 0.98757 1.00777 0.85742 0.0
H1214 H 0.79445 0.12076 0.1778 0.0
H1215 H 0.80741 1.01437 0.13335 0.0
H1216 H 0.79514 0.0774 0.10958 0.0
H1217 H 0.69756 0.18954 0.1537 0.0
H1218 H 0.71897 0.24693 0.16206 0.0
H1219 H 0.72876 0.19354 0.1759 0.0
H1220 H 0.82005 0.21155 0.17616 0.0
H1221 H 0.81061 0.26465 0.16213 0.0
H1222 H 0.85163 0.21897 0.15412 0.0
H1223 H 0.79042 0.15363 0.09 0.0
H1224 H 0.77762 0.23416 0.0763 0.0
H1225 H 0.75628 0.29263 0.13233 0.0
C1226 C 0.79381 0.11051 0.16308 0.0
C1227 C 0.80219 0.06173 0.1577 0.0
C1228 C 0.8011 0.05072 0.13815 0.0
C1229 C 0.79441 0.08664 0.12439 0.0
C1230 C 0.78747 0.13413 0.1301 0.0
C1231 C 0.78559 0.14607 0.149 0.0
C1232 C 0.77547 0.19993 0.15113 0.0
C1233 C 0.72733 0.20796 0.1613 0.0
C1234 C 0.81691 0.22526 0.1615 0.0
C1235 C 0.77283 0.21634 0.13054 0.0
C1236 C 0.78088 0.17772 0.11871 0.0
C1237 C 0.78328 0.18386 0.09918 0.0
C1238 C 0.77632 0.23006 0.09148 0.0
C1239 C 0.76576 0.27021 0.10306 0.0
C1240 C 0.76397 0.26289 0.12297 0.0
H1241 H 0.72461 0.08063 0.38757 0.0
H1242 H 0.68417 0.02303 0.44214 0.0
H1243 H 0.60635 0.99617 0.42903 0.0
H1244 H 0.60788 0.12689 0.3764 0.0
H1245 H 0.61042 0.11314 0.35159 0.0
H1246 H 0.66513 0.12428 0.36448 0.0
H1247 H 0.69849 0.042 0.35389 0.0
H1248 H 0.64408 0.0308 0.34081 0.0
H1249 H 0.66379 0.98826 0.35828 0.0
H1250 H 0.53189 0.97669 0.4105 0.0
H1251 H 0.46559 0.96586 0.38808 0.0
H1252 H 0.54836 0.03976 0.34491 0.0
C1253 C 0.69988 0.06115 0.3966 0.0
C1254 C 0.71147 0.05291 0.41593 0.0
C1255 C 0.67694 0.02907 0.42734 0.0
C1256 C 0.63235 1.01384 0.41998 0.0
C1257 C 0.62169 0.02322 0.4011 0.0
C1258 C 0.65435 0.04634 0.3895 0.0
C1259 C 0.63225 0.05392 0.36994 0.0
C1260 C 0.62872 0.10777 0.36533 0.0
C1261 C 0.66139 0.02715 0.35483 0.0
C1262 C 0.58221 0.03146 0.37239 0.0
C1263 C 0.5774 1.01376 0.39052 0.0
C1264 C 0.53536 0.99058 0.39631 0.0
C1265 C 0.49756 0.98466 0.38336 0.0
C1266 C 0.50076 1.00221 0.3646 0.0
C1267 C 0.54397 0.02647 0.35916 0.0
H1268 H 0.25029 0.28993 0.38471 0.0
H1269 H 0.27347 0.23769 0.44151 0.0
H1270 H 0.28849 0.15623 0.42897 0.0
H1271 H 0.19376 0.18358 0.36531 0.0
H1272 H 0.22424 0.18656 0.34289 0.0
H1273 H 0.21342 0.2408 0.35611 0.0
H1274 H 0.30425 0.26108 0.35532 0.0
H1275 H 0.31526 0.20719 0.34192 0.0
H1276 H 0.34691 0.21747 0.36371 0.0
H1277 H 0.29566 0.07828 0.41045 0.0
H1278 H 0.31009 1.01385 0.38746 0.0
H1279 H 0.29263 0.11543 0.34171 0.0
C1280 C 0.25875 0.26136 0.39449 0.0
C1281 C 0.26047 0.27065 0.41425 0.0
C1282 C 0.27222 0.23203 0.42641 0.0
C1283 C 0.28043 0.18533 0.41938 0.0
C1284 C 0.27799 0.17721 0.39996 0.0
C1285 C 0.26873 0.2144 0.3876 0.0
C1286 C 0.27146 0.19612 0.36726 0.0
C1287 C 0.22282 0.20214 0.3573 0.0
C1288 C 0.31188 0.22201 0.35641 0.0
C1289 C 0.28323 0.14291 0.37015 0.0
C1290 C 0.28571 0.1328 0.38919 0.0
C1291 C 0.29436 0.08613 0.39552 0.0
C1292 C 0.30223 0.04929 0.38222 0.0
C1293 C 0.30272 0.05853 0.36255 0.0
C1294 C 0.29246 0.10644 0.35655 0.0
H1295 H 0.05127 0.02232 0.17644 0.0
H1296 H 0.95124 0.9947 0.13093 0.0
H1297 H 1.01586 1.00794 0.10772 0.0
H1298 H 0.11914 0.11784 0.15178 0.0
H1299 H 0.17659 0.10012 0.16114 0.0
H1300 H 0.12244 0.08882 0.17445 0.0
H1301 H 0.14397 0.99863 0.17624 0.0
H1302 H 0.19795 1.00961 0.16276 0.0
H1303 H 0.15473 0.96567 0.15477 0.0
H1304 H 0.09131 0.02303 0.08894 0.0
H1305 H 0.17085 0.04392 0.07586 0.0
H1306 H 0.22601 0.06359 0.13253 0.0
C1307 C 0.04291 0.01964 0.16158 0.0
C1308 C 0.99562 1.00648 0.15564 0.0
C1309 C 0.98688 1.0032 0.136 0.0
C1310 C 0.02355 1.01107 0.12262 0.0
C1311 C 0.06975 0.02258 0.12884 0.0
C1312 C 0.07968 0.0274 0.14784 0.0
C1313 C 0.13289 0.04042 0.15046 0.0
C1314 C 0.13806 0.08973 0.16003 0.0
C1315 C 0.15892 1.00125 0.16173 0.0
C1316 C 0.15101 0.04212 0.13003 0.0
C1317 C 0.11371 0.03154 0.11787 0.0
C1318 C 0.12072 0.03133 0.09837 0.0
C1319 C 0.16642 0.04311 0.09103 0.0
C1320 C 0.2056 0.05503 0.10297 0.0
C1321 C 0.19749 0.05388 0.12287 0.0
H1322 H 0.22612 0.98563 0.88091 0.0
H1323 H 0.23507 0.92369 0.82486 0.0
H1324 H 0.25496 0.8453 0.83863 0.0
H1325 H 0.32593 0.91321 0.90144 0.0
H1326 H 0.29671 0.9059 0.92397 0.0
H1327 H 0.2853 0.95866 0.90996 0.0
H1328 H 0.19418 0.94053 0.91133 0.0
H1329 H 0.2053 0.88736 0.92514 0.0
H1330 H 0.17212 0.88296 0.9034 0.0
H1331 H 0.2683 0.7716 0.8578 0.0
H1332 H 0.28345 0.70853 0.88127 0.0
H1333 H 0.27029 0.81319 0.92623 0.0
C1334 C 0.23349 0.95586 0.87153 0.0
C1335 C 0.22925 0.96175 0.85156 0.0
C1336 C 0.23813 0.921 0.84004 0.0
C1337 C 0.24932 0.87588 0.84778 0.0
C1338 C 0.25184 0.87091 0.86731 0.0
C1339 C 0.24497 0.90976 0.87914 0.0
C1340 C 0.24973 0.89334 0.89973 0.0
C1341 C 0.29193 0.91933 0.90935 0.0
C1342 C 0.20252 0.90155 0.91054 0.0
C1343 C 0.25999 0.83941 0.89753 0.0
C1344 C 0.26066 0.8277 0.87859 0.0
C1345 C 0.26853 0.78062 0.87264 0.0
C1346 C 0.27735 0.7448 0.88616 0.0
C1347 C 0.27883 0.75523 0.90571 0.0
C1348 C 0.26911 0.80349 0.91147 0.0
H1349 H 0.53901 0.03843 0.63638 0.0
H1350 H 0.48541 1.00543 0.69236 0.0
H1351 H 0.40464 0.99026 0.67918 0.0
H1352 H 0.43197 0.09485 0.61784 0.0
H1353 H 0.43609 0.0679 0.59479 0.0
H1354 H 0.4898 0.07814 0.60843 0.0
H1355 H 0.51174 0.98825 0.60568 0.0
H1356 H 0.45838 0.97782 0.59188 0.0
H1357 H 0.46867 0.94326 0.61296 0.0
H1358 H 0.32718 0.98348 0.66021 0.0
H1359 H 0.26331 0.9708 0.63674 0.0
H1360 H 0.36597 0.99792 0.59178 0.0
C1361 C 0.51033 0.0277 0.64585 0.0
C1362 C 0.51922 0.02328 0.6656 0.0
C1363 C 0.48028 1.00884 0.67729 0.0
C1364 C 0.43387 1.00048 0.6699 0.0
C1365 C 0.42621 1.0055 0.65053 0.0
C1366 C 0.46362 1.01757 0.63855 0.0
C1367 C 0.44583 1.01739 0.6181 0.0
C1368 C 0.45126 0.06756 0.60927 0.0
C1369 C 0.47276 0.97942 0.60647 0.0
C1370 C 0.39265 1.00377 0.6205 0.0
C1371 C 0.38211 0.99815 0.63941 0.0
C1372 C 0.33538 0.98723 0.64536 0.0
C1373 C 0.29893 0.98034 0.63179 0.0
C1374 C 0.30865 0.9831 0.61215 0.0
C1375 C 0.3566 0.9956 0.60657 0.0
H1376 H 0.26632 0.13209 0.98653 0.0
H1377 H 0.17558 0.24878 1.00517 0.0
H1378 H 0.16023 0.27124 0.97185 0.0
H1379 H 0.32071 0.19651 0.94634 0.0
H1380 H 0.32224 0.14308 0.93198 0.0
H1381 H 0.32747 0.1384 0.95722 0.0
H1382 H 0.25511 0.07924 0.95789 0.0
H1383 H 0.24957 0.08386 0.93271 0.0
H1384 H 0.19875 0.09718 0.94759 0.0
H1385 H 0.15092 0.27655 0.9365 0.0
H1386 H 0.14671 0.26284 0.90198 0.0
H1387 H 0.25 0.14763 0.90705 0.0
C1388 C 0.24453 0.1633 0.98354 0.0
C1389 C 0.22327 0.18984 0.9982 0.0
C1390 C 0.19267 0.22875 0.99393 0.0
C1391 C 0.18404 0.24178 0.97515 0.0
C1392 C 0.20653 0.21545 0.96096 0.0
C1393 C 0.23632 0.17714 0.96496 0.0
C1394 C 0.25455 0.15327 0.94724 0.0
C1395 C 0.3095 0.15813 0.9456 0.0
C1396 C 0.23851 0.10027 0.94631 0.0
C1397 C 0.22931 0.18328 0.93261 0.0
C1398 C 0.2019 0.2191 0.94073 0.0
C1399 C 0.17272 0.24903 0.92997 0.0
C1400 C 0.17062 0.24117 0.91045 0.0
C1401 C 0.1973 0.20361 0.90209 0.0
C1402 C 0.22835 0.17574 0.91323 0.0
H1403 H 0.63013 0.48494 0.15227 0.0
H1404 H 0.5223 0.37309 0.14716 0.0
H1405 H 0.50713 0.37741 0.18165 0.0
H1406 H 0.68292 0.43755 0.19231 0.0
H1407 H 0.69791 0.49476 0.20274 0.0
H1408 H 0.69317 0.48932 0.17755 0.0
H1409 H 0.62994 0.55755 0.17696 0.0
H1410 H 0.63469 0.56347 0.20219 0.0
H1411 H 0.57688 0.55276 0.19151 0.0
H1412 H 0.5108 0.38863 0.21719 0.0
H1413 H 0.53165 0.40687 0.25049 0.0
H1414 H 0.64431 0.50325 0.23153 0.0
C1415 C 0.60315 0.46159 0.15843 0.0
C1416 C 0.57794 0.42806 0.14732 0.0
C1417 C 0.54187 0.39896 0.15562 0.0
C1418 C 0.53325 0.40112 0.17512 0.0
C1419 C 0.56099 0.4327 0.18589 0.0
C1420 C 0.59511 0.46253 0.17777 0.0
C1421 C 0.6238 0.48961 0.19238 0.0
C1422 C 0.67761 0.47703 0.19117 0.0
C1423 C 0.61582 0.54408 0.19065 0.0
C1424 C 0.6011 0.46986 0.21009 0.0
C1425 C 0.56438 0.43774 0.20614 0.0
C1426 C 0.53903 0.41421 0.22042 0.0
C1427 C 0.55118 0.42448 0.23919 0.0
C1428 C 0.58836 0.45763 0.24337 0.0
C1429 C 0.61425 0.47954 0.22862 0.0
H1430 H 0.29315 0.91709 0.48726 0.0
H1431 H 0.38989 0.80931 0.50905 0.0
H1432 H 0.40563 0.78067 0.47641 0.0
H1433 H 0.23716 0.83722 0.45342 0.0
H1434 H 0.22838 0.88425 0.43631 0.0
H1435 H 0.22869 0.89837 0.46109 0.0
H1436 H 0.29677 0.96105 0.45566 0.0
H1437 H 0.29619 0.94752 0.43087 0.0
H1438 H 0.35137 0.94276 0.44398 0.0
H1439 H 0.4122 0.76727 0.44053 0.0
H1440 H 0.40879 0.77104 0.40552 0.0
H1441 H 0.29356 0.87449 0.40925 0.0
C1442 C 0.31669 0.88667 0.48518 0.0
C1443 C 0.33905 0.86419 0.50059 0.0
C1444 C 0.37203 0.82648 0.49732 0.0
C1445 C 0.38082 0.80985 0.47891 0.0
C1446 C 0.3557 0.831 0.46408 0.0
C1447 C 0.324 0.86837 0.46713 0.0
C1448 C 0.29995 0.88406 0.44914 0.0
C1449 C 0.24531 0.87544 0.45005 0.0
C1450 C 0.3118 0.93696 0.44466 0.0
C1451 C 0.32374 0.85042 0.43533 0.0
C1452 C 0.35637 0.82046 0.44404 0.0
C1453 C 0.38614 0.78999 0.43363 0.0
C1454 C 0.38375 0.79194 0.41382 0.0
C1455 C 0.35149 0.82368 0.40485 0.0
C1456 C 0.31933 0.85086 0.41581 0.0
H1457 H 0.92581 0.68237 0.66757 0.0
H1458 H 1.00939 0.5574 0.6521 0.0
H1459 H 0.02358 0.53995 0.68566 0.0
H1460 H 0.99228 0.71116 0.71348 0.0
H1461 H 0.93676 0.72746 0.72492 0.0
H1462 H 0.94465 0.7383 0.70004 0.0
H1463 H 0.86696 0.68975 0.69314 0.0
H1464 H 0.85895 0.67836 0.71786 0.0
H1465 H 0.86186 0.62877 0.70154 0.0
H1466 H 1.01024 0.52345 0.71884 0.0
H1467 H 0.97568 0.51168 0.75014 0.0
H1468 H 0.90179 0.64796 0.746 0.0
C1469 C 0.94769 0.65185 0.67132 0.0
C1470 C 0.96571 0.62054 0.65738 0.0
C1471 C 0.99533 0.5817 0.66266 0.0
C1472 C 1.00362 0.57163 0.68166 0.0
C1473 C 0.98264 0.6013 0.69516 0.0
C1474 C 0.95588 0.64113 0.69028 0.0
C1475 C 0.9316 0.66295 0.70738 0.0
C1476 C 0.95259 0.71293 0.71171 0.0
C1477 C 0.87661 0.66503 0.70482 0.0
C1478 C 0.94577 0.62685 0.72233 0.0
C1479 C 0.97625 0.59238 0.71501 0.0
C1480 C 0.98858 0.55147 0.7251 0.0
C1481 C 0.96913 0.54536 0.74309 0.0
C1482 C 0.93837 0.58038 0.75106 0.0
C1483 C 0.92687 0.62176 0.74052 0.0
H1484 H 0.79172 0.80493 0.10957 0.0
H1485 H 0.94314 0.83367 0.11754 0.0
H1486 H 0.95616 0.83108 0.08306 0.0
H1487 H 0.80613 0.72621 0.06525 0.0
H1488 H 0.75223 0.75108 0.05519 0.0
H1489 H 0.75714 0.74393 0.08037 0.0
H1490 H 0.73792 0.83428 0.08463 0.0
H1491 H 0.73418 0.84212 0.05954 0.0
H1492 H 0.77524 0.87857 0.07308 0.0
H1493 H 0.94931 0.84346 0.04862 0.0
H1494 H 0.92425 0.86231 0.01602 0.0
H1495 H 0.77824 0.81953 0.02965 0.0
C1496 C 0.82781 0.80807 0.10395 0.0
C1497 C 0.86666 0.81888 0.11591 0.0
C1498 C 0.91334 0.82482 0.10835 0.0
C1499 C 0.92094 0.8234 0.08887 0.0
C1500 C 0.88145 0.81524 0.07725 0.0
C1501 C 0.83592 0.80649 0.08447 0.0
C1502 C 0.79882 0.80412 0.06889 0.0
C1503 C 0.77733 0.7533 0.06733 0.0
C1504 C 0.75924 0.84203 0.07172 0.0
C1505 C 0.8301 0.81588 0.05202 0.0
C1506 C 0.8777 0.82167 0.05711 0.0
C1507 C 0.91237 0.83785 0.04435 0.0
C1508 C 0.89786 0.84874 0.02595 0.0
C1509 C 0.84917 0.84373 0.02056 0.0
C1510 C 0.81538 0.82533 0.0336 0.0
H1511 H 0.48901 0.56031 0.8567 0.0
H1512 H 0.44669 0.7091 0.86169 0.0
H1513 H 0.44789 0.71737 0.82701 0.0
H1514 H 0.56631 0.57741 0.81187 0.0
H1515 H 0.54707 0.5198 0.80296 0.0
H1516 H 0.55371 0.52887 0.82799 0.0
H1517 H 0.46581 0.50028 0.8329 0.0
H1518 H 0.45834 0.49233 0.80795 0.0
H1519 H 0.4179 0.53083 0.82078 0.0
H1520 H 0.43489 0.70412 0.79302 0.0
H1521 H 0.41749 0.67296 0.76126 0.0
H1522 H 0.47661 0.5348 0.77729 0.0
C1523 C 0.48241 0.59506 0.85038 0.0
C1524 C 0.46769 0.63412 0.86158 0.0
C1525 C 0.45784 0.67894 0.85311 0.0
C1526 C 0.45861 0.68392 0.83351 0.0
C1527 C 0.47038 0.64391 0.82268 0.0
C1528 C 0.48342 0.60062 0.83077 0.0
C1529 C 0.48954 0.56197 0.81591 0.0
C1530 C 0.5423 0.54609 0.81461 0.0
C1531 C 0.45588 0.51884 0.81962 0.0
C1532 C 0.47462 0.58944 0.79847 0.0
C1533 C 0.46422 0.63672 0.80267 0.0
C1534 C 0.44425 0.66755 0.78941 0.0
C1535 C 0.43428 0.64943 0.77143 0.0
C1536 C 0.4442 0.60091 0.7668 0.0
C1537 C 0.46639 0.57127 0.78039 0.0
H1538 H 0.71375 0.2344 0.60805 0.0
H1539 H 0.59613 0.1326 0.6139 0.0
H1540 H 0.58702 0.1298 0.57975 0.0
H1541 H 0.67139 0.29468 0.56332 0.0
H1542 H 0.7318 0.29764 0.5541 0.0
H1543 H 0.72159 0.30133 0.57916 0.0
H1544 H 0.77968 0.22998 0.58416 0.0
H1545 H 0.78934 0.22536 0.55915 0.0
H1546 H 0.76822 0.17387 0.57223 0.0
H1547 H 0.59829 0.12712 0.54521 0.0
H1548 H 0.62922 0.12632 0.51247 0.0
H1549 H 0.74213 0.22612 0.52816 0.0
C1550 C 0.6848 0.21314 0.60212 0.0
C1551 C 0.65418 0.18568 0.61393 0.0
C1552 C 0.61811 0.1565 0.60556 0.0
C1553 C 0.61312 0.15398 0.58597 0.0
C1554 C 0.64486 0.18028 0.57481 0.0
C1555 C 0.67992 0.20957 0.58253 0.0
C1556 C 0.71342 0.22901 0.56741 0.0
C1557 C 0.70928 0.28393 0.56591 0.0
C1558 C 0.76574 0.21361 0.57096 0.0
C1559 C 0.69284 0.20443 0.55016 0.0
C1560 C 0.65283 0.17713 0.55472 0.0
C1561 C 0.62918 0.14887 0.5414 0.0
C1562 C 0.647 0.14842 0.52293 0.0
C1563 C 0.68839 0.17537 0.51806 0.0
C1564 C 0.71101 0.20443 0.53174 0.0
H1565 H 0.06394 0.47744 0.35816 0.0
H1566 H 0.10205 0.32716 0.36154 0.0
H1567 H 0.10493 0.32236 0.32673 0.0
H1568 H 0.99039 0.46754 0.31352 0.0
H1569 H 1.01171 0.52501 0.30518 0.0
H1570 H 1.00519 0.51437 0.33012 0.0
H1571 H 0.09431 0.53887 0.33494 0.0
H1572 H 0.10149 0.54853 0.31002 0.0
H1573 H 0.14067 0.5075 0.32215 0.0
H1574 H 0.11561 0.33695 0.29238 0.0
H1575 H 0.12701 0.36843 0.26006 0.0
H1576 H 0.07774 0.50841 0.27839 0.0
C1577 C 0.07097 0.44326 0.35143 0.0
C1578 C 0.08261 0.40255 0.36229 0.0
C1579 C 0.09302 0.35851 0.35326 0.0
C1580 C 0.09471 0.35554 0.33357 0.0
C1581 C 0.08525 0.39689 0.32319 0.0
C1582 C 0.07268 0.43975 0.33174 0.0
C1583 C 0.06776 0.47964 0.31733 0.0
C1584 C 1.01566 0.4977 0.31649 0.0
C1585 C 0.10317 0.52106 0.32136 0.0
C1586 C 0.08134 0.45293 0.29951 0.0
C1587 C 0.09105 0.40521 0.3032 0.0
C1588 C 0.1074 0.37407 0.28924 0.0
C1589 C 0.11397 0.39222 0.271 0.0
C1590 C 0.10454 0.44104 0.26691 0.0
C1591 C 0.08689 0.47138 0.28128 0.0
H1592 H 0.64273 0.71874 0.41539 0.0
H1593 H 0.75055 0.61866 0.39586 0.0
H1594 H 0.77191 0.59935 0.4288 0.0
H1595 H 0.71346 0.7627 0.45656 0.0
H1596 H 0.66065 0.76869 0.47114 0.0
H1597 H 0.65627 0.77661 0.446 0.0
H1598 H 0.5895 0.71139 0.44501 0.0
H1599 H 0.5946 0.70225 0.47006 0.0
H1600 H 0.60173 0.65225 0.45415 0.0
H1601 H 0.77413 0.5835 0.46275 0.0
H1602 H 0.771 0.58479 0.49755 0.0
H1603 H 0.6663 0.6994 0.49591 0.0
C1604 C 0.67177 0.69402 0.41824 0.0
C1605 C 0.69549 0.67015 0.40346 0.0
C1606 C 0.73278 0.63732 0.4073 0.0
C1607 C 0.74466 0.62592 0.42583 0.0
C1608 C 0.71928 0.64844 0.44021 0.0
C1609 C 0.68467 0.68285 0.43676 0.0
C1610 C 0.66338 0.70168 0.45497 0.0
C1611 C 0.6741 0.75562 0.4573 0.0
C1612 C 0.60908 0.69125 0.4561 0.0
C1613 C 0.69098 0.67185 0.4691 0.0
C1614 C 0.72237 0.64086 0.46016 0.0
C1615 C 0.75053 0.60825 0.46998 0.0
C1616 C 0.74832 0.60896 0.48961 0.0
C1617 C 0.71924 0.64285 0.49906 0.0
C1618 C 0.68901 0.6736 0.48878 0.0
H1619 H 0.10367 0.86248 0.66456 0.0
H1620 H 0.02595 0.98983 0.64759 0.0
H1621 H 1.00864 1.00828 0.68095 0.0
H1622 H 0.02949 0.83438 0.70787 0.0
H1623 H 0.08191 0.81595 0.72085 0.0
H1624 H 0.07932 0.80702 0.6957 0.0
H1625 H 0.15915 0.85442 0.69171 0.0
H1626 H 0.16207 0.86338 0.71676 0.0
H1627 H 0.16381 0.91444 0.70113 0.0
H1628 H 1.01435 0.02194 0.71524 0.0
H1629 H 0.04105 0.02948 0.74793 0.0
H1630 H 0.1134 0.89225 0.74384 0.0
C1631 C 0.08267 0.89395 0.6679 0.0
C1632 C 0.06681 0.92527 0.65358 0.0
C1633 C 0.03832 0.96544 0.65841 0.0
C1634 C 0.02827 0.9761 0.6773 0.0
C1635 C 0.0463 0.94571 0.69117 0.0
C1636 C 0.07248 0.90512 0.68672 0.0
C1637 C 0.09233 0.88152 0.70429 0.0
C1638 C 0.06938 0.83177 0.70736 0.0
C1639 C 0.1476 0.8783 0.70342 0.0
C1640 C 0.07578 0.9169 0.71918 0.0
C1641 C 0.04835 0.95302 0.71134 0.0
C1642 C 0.03402 0.99289 0.72175 0.0
C1643 C 0.04891 0.99656 0.74053 0.0
C1644 C 0.07752 0.96033 0.74888 0.0
C1645 C 0.09017 0.91962 0.73805 0.0
H1646 H 0.84644 0.2893 0.9141 0.0
H1647 H 0.96143 0.39332 0.9067 0.0
H1648 H 0.97629 0.39317 0.94044 0.0
H1649 H 0.7956 0.34709 0.94915 0.0
H1650 H 0.77582 0.29663 0.96313 0.0
H1651 H 0.78459 0.28957 0.93822 0.0
H1652 H 0.84432 0.21995 0.94387 0.0
H1653 H 0.83488 0.22588 0.96892 0.0
H1654 H 0.89491 0.22892 0.95934 0.0
H1655 H 0.96591 0.39899 0.97458 0.0
H1656 H 0.9316 0.40827 1.00647 0.0
H1657 H 0.82094 0.30371 0.99307 0.0
C1658 C 0.8764 0.31 0.91955 0.0
C1659 C 0.90392 0.33964 0.90743 0.0
C1660 C 0.94146 0.36804 0.91518 0.0
C1661 C 0.94986 0.36872 0.93459 0.0
C1662 C 0.92017 0.3413 0.9462 0.0
C1663 C 0.88438 0.31196 0.93899 0.0
C1664 C 0.85162 0.29344 0.95451 0.0
C1665 C 0.79883 0.30756 0.95103 0.0
C1666 C 0.85677 0.2388 0.9568 0.0
C1667 C 0.87241 0.31988 0.97127 0.0
C1668 C 0.91275 0.34616 0.96626 0.0
C1669 C 0.93511 0.37762 0.9788 0.0
C1670 C 0.91529 0.38289 0.99681 0.0
C1671 C 0.87314 0.35749 1.00201 0.0
C1672 C 0.85248 0.32442 0.98928 0.0
H1673 H 0.47709 0.0542 0.24853 0.0
H1674 H 0.37781 0.16876 0.26207 0.0
H1675 H 0.38264 0.1979 0.22928 0.0
H1676 H 0.5478 0.11986 0.21096 0.0
H1677 H 0.55197 0.06645 0.19667 0.0
H1678 H 0.55026 0.0616 0.22202 0.0
H1679 H 0.47691 1.00406 0.21973 0.0
H1680 H 0.47852 1.00858 0.19448 0.0
H1681 H 0.42415 0.02317 0.2071 0.0
H1682 H 0.3836 0.20355 0.19484 0.0
H1683 H 0.38032 0.18599 0.16117 0.0
H1684 H 0.47981 0.0682 0.16865 0.0
C1685 C 0.4566 0.08551 0.24459 0.0
C1686 C 0.42618 0.10866 0.25766 0.0
C1687 C 0.4012 0.15054 0.25219 0.0
C1688 C 0.4039 0.1674 0.23364 0.0
C1689 C 0.43231 0.14229 0.22082 0.0
C1690 C 0.45853 0.10241 0.22606 0.0
C1691 C 0.48088 0.0781 0.20909 0.0
C1692 C 0.53601 0.08174 0.20973 0.0
C1693 C 0.46408 0.02539 0.20751 0.0
C1694 C 0.46056 0.10877 0.19341 0.0
C1695 C 0.43372 0.14635 0.20055 0.0
C1696 C 0.40621 0.17569 0.18899 0.0
C1697 C 0.40513 0.1658 0.16969 0.0
C1698 C 0.43186 0.12718 0.16201 0.0
C1699 C 0.46058 0.09901 0.17406 0.0
H1700 H 0.38827 0.30602 0.60569 0.0
H1701 H 0.26255 0.38277 0.62497 0.0
H1702 H 0.24354 0.40559 0.5922 0.0
H1703 H 0.42517 0.38317 0.57137 0.0
H1704 H 0.44178 0.33984 0.55364 0.0
H1705 H 0.44324 0.32352 0.57819 0.0
H1706 H 0.38555 0.25178 0.57228 0.0
H1707 H 0.3856 0.26645 0.54754 0.0
H1708 H 0.3295 0.26179 0.56021 0.0
H1709 H 0.24973 0.43526 0.55957 0.0
H1710 H 0.2608 0.44589 0.52527 0.0
H1711 H 0.37511 0.34075 0.52547 0.0
C1712 C 0.35544 0.32533 0.60275 0.0
C1713 C 0.32645 0.34259 0.61756 0.0
C1714 C 0.28437 0.36887 0.61356 0.0
C1715 C 0.27387 0.38254 0.59511 0.0
C1716 C 0.30505 0.36801 0.58089 0.0
C1717 C 0.34351 0.33792 0.58424 0.0
C1718 C 0.37077 0.3274 0.56617 0.0
C1719 C 0.42336 0.34452 0.56744 0.0
C1720 C 0.36764 0.27367 0.56125 0.0
C1721 C 0.34251 0.35768 0.55236 0.0
C1722 C 0.30567 0.38177 0.56138 0.0
C1723 C 0.27715 0.41521 0.55216 0.0
C1724 C 0.28406 0.42149 0.53284 0.0
C1725 C 0.31754 0.39288 0.52292 0.0
C1726 C 0.34871 0.36221 0.53285 0.0
H1727 H 0.90728 0.16497 0.35282 0.0
H1728 H 1.00511 0.05014 0.3675 0.0
H1729 H 0.02274 0.03748 0.3337 0.0
H1730 H 0.85223 0.10191 0.3167 0.0
H1731 H 0.84223 0.15337 0.3018 0.0
H1732 H 0.84594 0.16087 0.32692 0.0
H1733 H 0.91436 0.22346 0.3225 0.0
H1734 H 0.91103 0.21598 0.29729 0.0
H1735 H 0.96739 0.20739 0.30931 0.0
H1736 H 0.02239 0.03085 0.29859 0.0
H1737 H 0.99954 0.02589 0.26503 0.0
H1738 H 0.89386 0.13768 0.2734 0.0
C1739 C 0.93192 0.13676 0.34902 0.0
C1740 C 0.95364 0.10745 0.36282 0.0
C1741 C 0.98789 0.07282 0.35714 0.0
C1742 C 0.99816 0.06548 0.33799 0.0
C1743 C 0.97397 0.09322 0.32472 0.0
C1744 C 0.94142 0.12809 0.32998 0.0
C1745 C 0.91546 0.14856 0.31306 0.0
C1746 C 0.86075 0.14068 0.31472 0.0
C1747 C 0.92782 0.20203 0.31039 0.0
C1748 C 0.93704 0.11829 0.29749 0.0
C1749 C 0.9718 0.08767 0.30447 0.0
C1750 C 0.99528 0.05465 0.29299 0.0
C1751 C 0.98174 0.05169 0.27403 0.0
C1752 C 0.94411 0.0805 0.2669 0.0
C1753 C 0.92275 0.11539 0.2786 0.0
H1754 H 0.24103 0.65104 0.10904 0.0
H1755 H 0.13377 0.76275 0.11299 0.0
H1756 H 0.13432 0.77078 0.07807 0.0
H1757 H 0.30606 0.69423 0.06771 0.0
H1758 H 0.31378 0.6345 0.05838 0.0
H1759 H 0.31003 0.64362 0.08348 0.0
H1760 H 0.23938 0.5826 0.0853 0.0
H1761 H 0.24263 0.57354 0.06022 0.0
H1762 H 0.18684 0.59192 0.07095 0.0
H1763 H 0.14302 0.76121 0.04237 0.0
H1764 H 0.16051 0.73658 1.00939 0.0
H1765 H 0.25284 0.62342 0.02992 0.0
C1766 C 0.21764 0.67713 0.10254 0.0
C1767 C 0.18666 0.70567 0.11351 0.0
C1768 C 0.15776 0.74069 0.10467 0.0
C1769 C 0.1577 0.7452 0.08492 0.0
C1770 C 0.18675 0.7143 0.07441 0.0
C1771 C 0.21627 0.68104 0.08299 0.0
C1772 C 0.24109 0.64923 0.06877 0.0
C1773 C 0.296 0.65582 0.06964 0.0
C1774 C 0.2266 0.5962 0.07147 0.0
C1775 C 0.22079 0.66946 0.05076 0.0
C1776 C 0.19006 0.70743 0.0542 0.0
C1777 C 0.16728 0.73176 0.03955 0.0
C1778 C 0.17711 0.71746 0.02095 0.0
C1779 C 0.2091 0.67918 0.01727 0.0
C1780 C 0.22985 0.65408 0.0324 0.0
H1781 H 0.62639 0.86698 0.85782 0.0
H1782 H 0.52925 0.98157 0.87373 0.0
H1783 H 0.51089 0.99569 0.84016 0.0
H1784 H 0.68069 0.93096 0.82182 0.0
H1785 H 0.68991 0.88021 0.80645 0.0
H1786 H 0.6868 0.87143 0.83153 0.0
H1787 H 0.61779 0.80961 0.82706 0.0
H1788 H 0.62056 0.81826 0.80189 0.0
H1789 H 0.56456 0.82669 0.81428 0.0
H1790 H 0.51077 1.00429 0.80523 0.0
H1791 H 0.53257 1.01051 0.77156 0.0
H1792 H 0.63736 0.89729 0.77845 0.0
C1793 C 0.60161 0.89532 0.85432 0.0
C1794 C 0.58036 0.92421 0.86841 0.0
C1795 C 0.5461 0.95918 0.86315 0.0
C1796 C 0.53541 0.96737 0.84413 0.0
C1797 C 0.55917 0.94012 0.83055 0.0
C1798 C 0.59163 0.90481 0.8354 0.0
C1799 C 0.61702 0.88496 0.81817 0.0
C1800 C 0.67183 0.89236 0.81958 0.0
C1801 C 0.6042 0.83172 0.81518 0.0
C1802 C 0.59528 0.91615 0.80296 0.0
C1803 C 0.56095 0.94669 0.81036 0.0
C1804 C 0.53751 0.98053 0.79928 0.0
C1805 C 0.5505 0.98424 0.78027 0.0
C1806 C 0.58752 0.9553 0.77268 0.0
C1807 C 0.60897 0.91974 0.78401 0.0
loop_
_geom_bond_atom_site_label_1
_geom_bond_atom_site_label_2
_geom_bond_distance
_geom_bond_site_symmetry_2
_ccdc_geom_bond_type
Zn0 O1 2.055 . S
Zn0 O8 2.046 . S
Zn0 N16 2.036 . S
Zn0 O28 2.053 . S
Zn0 O30 2.066 . S
O1 Zn0 2.055 . S
O1 C4 1.259 . S
C2 O30 1.256 . S
C2 O31 1.244 . S
Zn3 O5 2.046 . S
Zn3 O7 2.055 . S
Zn3 N9 2.036 . S
Zn3 O27 2.066 . S
Zn3 O31 2.053 . S
C4 O1 1.259 . S
C4 O5 1.254 . S
O5 Zn3 2.046 . S
O5 C4 1.254 . S
C6 O27 1.256 . S
C6 O28 1.244 . S
O7 Zn3 2.055 . S
O7 C29 1.259 . S
O8 Zn0 2.046 . S
O8 C29 1.254 . S
N9 Zn3 2.036 . S
N9 C10 1.298 . S
N9 N12 1.398 . S
C10 N9 1.298 . S
C10 N13 1.367 . S
C10 C23 1.481 . S
C11 N12 1.299 . S
C11 N13 1.379 . S
N12 N9 1.398 . S
N12 C11 1.299 . S
N13 C10 1.367 . S
N13 C11 1.379 . S
C14 N16 1.298 . S
C14 N18 1.367 . S
C14 C22 1.481 . S
C15 N17 1.299 . S
C15 N18 1.379 . S
N16 Zn0 2.036 . S
N16 C14 1.298 . S
N16 N17 1.398 . S
N17 C15 1.299 . S
N17 N16 1.398 . S
N18 C14 1.367 . S
N18 C15 1.379 . S
H19 C22 0.980 . S
H20 C22 0.981 . S
H21 C22 0.981 . S
C22 C14 1.481 . S
C22 H19 0.980 . S
C22 H20 0.981 . S
C22 H21 0.981 . S
C23 C10 1.481 . S
C23 H24 0.980 . S
C23 H25 0.981 . S
C23 H26 0.981 . S
H24 C23 0.980 . S
H25 C23 0.981 . S
H26 C23 0.981 . S
O27 Zn3 2.066 . S
O27 C6 1.256 . S
O28 Zn0 2.053 . S
O28 C6 1.244 . S
C29 O7 1.259 . S
C29 O8 1.254 . S
O30 Zn0 2.066 . S
O30 C2 1.256 . S
O31 C2 1.244 . S
O31 Zn3 2.053 . S
Zn32 O33 2.055 . S
Zn32 O40 2.046 . S
Zn32 N48 2.036 . S
Zn32 O60 2.053 . S
Zn32 O62 2.066 . S
O33 Zn32 2.055 . S
O33 C36 1.259 . S
C34 O62 1.256 . S
C34 O63 1.244 . S
Zn35 O37 2.046 . S
Zn35 O39 2.055 . S
Zn35 N41 2.036 . S
Zn35 O59 2.066 . S
Zn35 O63 2.053 . S
C36 O33 1.259 . S
C36 O37 1.254 . S
O37 Zn35 2.046 . S
O37 C36 1.254 . S
C38 O59 1.256 . S
C38 O60 1.244 . S
O39 Zn35 2.055 . S
O39 C61 1.259 . S
O40 Zn32 2.046 . S
O40 C61 1.254 . S
N41 Zn35 2.036 . S
N41 C42 1.298 . S
N41 N44 1.398 . S
C42 N41 1.298 . S
C42 N45 1.367 . S
C42 C55 1.481 . S
C43 N44 1.299 . S
C43 N45 1.379 . S
N44 N41 1.398 . S
N44 C43 1.299 . S
N45 C42 1.367 . S
N45 C43 1.379 . S
C46 N48 1.298 . S
C46 N50 1.367 . S
C46 C54 1.481 . S
C47 N49 1.299 . S
C47 N50 1.379 . S
N48 Zn32 2.036 . S
N48 C46 1.298 . S
N48 N49 1.398 . S
N49 C47 1.299 . S
N49 N48 1.398 . S
N50 C46 1.367 . S
N50 C47 1.379 . S
H51 C54 0.980 . S
H52 C54 0.981 . S
H53 C54 0.981 . S
C54 C46 1.481 . S
C54 H51 0.980 . S
C54 H52 0.981 . S
C54 H53 0.981 . S
C55 C42 1.481 . S
C55 H56 0.980 . S
C55 H57 0.981 . S
C55 H58 0.981 . S
H56 C55 0.980 . S
H57 C55 0.981 . S
H58 C55 0.981 . S
O59 Zn35 2.066 . S
O59 C38 1.256 . S
O60 Zn32 2.053 . S
O60 C38 1.244 . S
C61 O39 1.259 . S
C61 O40 1.254 . S
O62 Zn32 2.066 . S
O62 C34 1.256 . S
O63 C34 1.244 . S
O63 Zn35 2.053 . S
Zn64 O65 2.055 . S
Zn64 O72 2.046 . S
Zn64 N80 2.036 . S
Zn64 O92 2.053 . S
Zn64 O94 2.066 . S
O65 Zn64 2.055 . S
O65 C68 1.259 . S
C66 O94 1.256 . S
C66 O95 1.244 . S
Zn67 O69 2.046 . S
Zn67 O71 2.055 . S
Zn67 N73 2.036 . S
Zn67 O91 2.066 . S
Zn67 O95 2.053 . S
C68 O65 1.259 . S
C68 O69 1.254 . S
O69 Zn67 2.046 . S
O69 C68 1.254 . S
C70 O91 1.256 . S
C70 O92 1.244 . S
O71 Zn67 2.055 . S
O71 C93 1.259 . S
O72 Zn64 2.046 . S
O72 C93 1.254 . S
N73 Zn67 2.036 . S
N73 C74 1.298 . S
N73 N76 1.398 . S
C74 N73 1.298 . S
C74 N77 1.367 . S
C74 C87 1.481 . S
C75 N76 1.299 . S
C75 N77 1.379 . S
N76 N73 1.398 . S
N76 C75 1.299 . S
N77 C74 1.367 . S
N77 C75 1.379 . S
C78 N80 1.298 . S
C78 N82 1.367 . S
C78 C86 1.481 . S
C79 N81 1.299 . S
C79 N82 1.379 . S
N80 Zn64 2.036 . S
N80 C78 1.298 . S
N80 N81 1.398 . S
N81 C79 1.299 . S
N81 N80 1.398 . S
N82 C78 1.367 . S
N82 C79 1.379 . S
H83 C86 0.980 . S
H84 C86 0.981 . S
H85 C86 0.981 . S
C86 C78 1.481 . S
C86 H83 0.980 . S
C86 H84 0.981 . S
C86 H85 0.981 . S
C87 C74 1.481 . S
C87 H88 0.980 . S
C87 H89 0.981 . S
C87 H90 0.981 . S
H88 C87 0.980 . S
H89 C87 0.981 . S
H90 C87 0.981 . S
O91 Zn67 2.066 . S
O91 C70 1.256 . S
O92 Zn64 2.053 . S
O92 C70 1.244 . S
C93 O71 1.259 . S
C93 O72 1.254 . S
O94 Zn64 2.066 . S
O94 C66 1.256 . S
O95 C66 1.244 . S
O95 Zn67 2.053 . S
Zn96 O97 2.055 . S
Zn96 O104 2.046 . S
Zn96 N112 2.036 . S
Zn96 O124 2.053 . S
Zn96 O126 2.066 . S
O97 Zn96 2.055 . S
O97 C100 1.259 . S
C98 O126 1.256 . S
C98 O127 1.244 . S
Zn99 O101 2.046 . S
Zn99 O103 2.055 . S
Zn99 N105 2.036 . S
Zn99 O123 2.066 . S
Zn99 O127 2.053 . S
C100 O97 1.259 . S
C100 O101 1.254 . S
O101 Zn99 2.046 . S
O101 C100 1.254 . S
C102 O123 1.256 . S
C102 O124 1.244 . S
O103 Zn99 2.055 . S
O103 C125 1.259 . S
O104 Zn96 2.046 . S
O104 C125 1.254 . S
N105 Zn99 2.036 . S
N105 C106 1.298 . S
N105 N108 1.398 . S
C106 N105 1.298 . S
C106 N109 1.367 . S
C106 C119 1.481 . S
C107 N108 1.299 . S
C107 N109 1.379 . S
N108 N105 1.398 . S
N108 C107 1.299 . S
N109 C106 1.367 . S
N109 C107 1.379 . S
C110 N112 1.298 . S
C110 N114 1.367 . S
C110 C118 1.481 . S
C111 N113 1.299 . S
C111 N114 1.379 . S
N112 Zn96 2.036 . S
N112 C110 1.298 . S
N112 N113 1.398 . S
N113 C111 1.299 . S
N113 N112 1.398 . S
N114 C110 1.367 . S
N114 C111 1.379 . S
H115 C118 0.980 . S
H116 C118 0.981 . S
H117 C118 0.981 . S
C118 C110 1.481 . S
C118 H115 0.980 . S
C118 H116 0.981 . S
C118 H117 0.981 . S
C119 C106 1.481 . S
C119 H120 0.980 . S
C119 H121 0.981 . S
C119 H122 0.981 . S
H120 C119 0.980 . S
H121 C119 0.981 . S
H122 C119 0.981 . S
O123 Zn99 2.066 . S
O123 C102 1.256 . S
O124 Zn96 2.053 . S
O124 C102 1.244 . S
C125 O103 1.259 . S
C125 O104 1.254 . S
O126 Zn96 2.066 . S
O126 C98 1.256 . S
O127 C98 1.244 . S
O127 Zn99 2.053 . S
Zn128 O129 2.055 . S
Zn128 O136 2.046 . S
Zn128 N144 2.036 . S
Zn128 O156 2.053 . S
Zn128 O158 2.066 . S
O129 Zn128 2.055 . S
O129 C132 1.259 . S
C130 O158 1.256 . S
C130 O159 1.244 . S
Zn131 O133 2.046 . S
Zn131 O135 2.055 . S
Zn131 N137 2.036 . S
Zn131 O155 2.066 . S
Zn131 O159 2.053 . S
C132 O129 1.259 . S
C132 O133 1.254 . S
O133 Zn131 2.046 . S
O133 C132 1.254 . S
C134 O155 1.256 . S
C134 O156 1.244 . S
O135 Zn131 2.055 . S
O135 C157 1.259 . S
O136 Zn128 2.046 . S
O136 C157 1.254 . S
N137 Zn131 2.036 . S
N137 C138 1.298 . S
N137 N140 1.398 . S
C138 N137 1.298 . S
C138 N141 1.367 . S
C138 C151 1.481 . S
C139 N140 1.299 . S
C139 N141 1.379 . S
N140 N137 1.398 . S
N140 C139 1.299 . S
N141 C138 1.367 . S
N141 C139 1.379 . S
C142 N144 1.298 . S
C142 N146 1.367 . S
C142 C150 1.481 . S
C143 N145 1.299 . S
C143 N146 1.379 . S
N144 Zn128 2.036 . S
N144 C142 1.298 . S
N144 N145 1.398 . S
N145 C143 1.299 . S
N145 N144 1.398 . S
N146 C142 1.367 . S
N146 C143 1.379 . S
H147 C150 0.980 . S
H148 C150 0.981 . S
H149 C150 0.981 . S
C150 C142 1.481 . S
C150 H147 0.980 . S
C150 H148 0.981 . S
C150 H149 0.981 . S
C151 C138 1.481 . S
C151 H152 0.980 . S
C151 H153 0.981 . S
C151 H154 0.981 . S
H152 C151 0.980 . S
H153 C151 0.981 . S
H154 C151 0.981 . S
O155 Zn131 2.066 . S
O155 C134 1.256 . S
O156 Zn128 2.053 . S
O156 C134 1.244 . S
C157 O135 1.259 . S
C157 O136 1.254 . S
O158 Zn128 2.066 . S
O158 C130 1.256 . S
O159 C130 1.244 . S
O159 Zn131 2.053 . S
Zn160 O161 2.055 . S
Zn160 O168 2.046 . S
Zn160 N176 2.036 . S
Zn160 O188 2.053 . S
Zn160 O190 2.066 . S
O161 Zn160 2.055 . S
O161 C164 1.259 . S
C162 O190 1.256 . S
C162 O191 1.244 . S
Zn163 O165 2.046 . S
Zn163 O167 2.055 . S
Zn163 N169 2.036 . S
Zn163 O187 2.066 . S
Zn163 O191 2.053 . S
C164 O161 1.259 . S
C164 O165 1.254 . S
O165 Zn163 2.046 . S
O165 C164 1.254 . S
C166 O187 1.256 . S
C166 O188 1.244 . S
O167 Zn163 2.055 . S
O167 C189 1.259 . S
O168 Zn160 2.046 . S
O168 C189 1.254 . S
N169 Zn163 2.036 . S
N169 C170 1.298 . S
N169 N172 1.398 . S
C170 N169 1.298 . S
C170 N173 1.367 . S
C170 C183 1.481 . S
C171 N172 1.299 . S
C171 N173 1.379 . S
N172 N169 1.398 . S
N172 C171 1.299 . S
N173 C170 1.367 . S
N173 C171 1.379 . S
C174 N176 1.298 . S
C174 N178 1.367 . S
C174 C182 1.481 . S
C175 N177 1.299 . S
C175 N178 1.379 . S
N176 Zn160 2.036 . S
N176 C174 1.298 . S
N176 N177 1.398 . S
N177 C175 1.299 . S
N177 N176 1.398 . S
N178 C174 1.367 . S
N178 C175 1.379 . S
H179 C182 0.980 . S
H180 C182 0.981 . S
H181 C182 0.981 . S
C182 C174 1.481 . S
C182 H179 0.980 . S
C182 H180 0.981 . S
C182 H181 0.981 . S
C183 C170 1.481 . S
C183 H184 0.980 . S
C183 H185 0.981 . S
C183 H186 0.981 . S
H184 C183 0.980 . S
H185 C183 0.981 . S
H186 C183 0.981 . S
O187 Zn163 2.066 . S
O187 C166 1.256 . S
O188 Zn160 2.053 . S
O188 C166 1.244 . S
C189 O167 1.259 . S
C189 O168 1.254 . S
O190 Zn160 2.066 . S
O190 C162 1.256 . S
O191 C162 1.244 . S
O191 Zn163 2.053 . S
Zn192 O193 2.055 . S
Zn192 O200 2.046 . S
Zn192 N208 2.036 . S
Zn192 O220 2.053 . S
Zn192 O222 2.066 . S
O193 Zn192 2.055 . S
O193 C196 1.259 . S
C194 O222 1.256 . S
C194 O223 1.244 . S
Zn195 O197 2.046 . S
Zn195 O199 2.055 . S
Zn195 N201 2.036 . S
Zn195 O219 2.066 . S
Zn195 O223 2.053 . S
C196 O193 1.259 . S
C196 O197 1.254 . S
O197 Zn195 2.046 . S
O197 C196 1.254 . S
C198 O219 1.256 . S
C198 O220 1.244 . S
O199 Zn195 2.055 . S
O199 C221 1.259 . S
O200 Zn192 2.046 . S
O200 C221 1.254 . S
N201 Zn195 2.036 . S
N201 C202 1.298 . S
N201 N204 1.398 . S
C202 N201 1.298 . S
C202 N205 1.367 . S
C202 C215 1.481 . S
C203 N204 1.299 . S
C203 N205 1.379 . S
N204 N201 1.398 . S
N204 C203 1.299 . S
N205 C202 1.367 . S
N205 C203 1.379 . S
C206 N208 1.298 . S
C206 N210 1.367 . S
C206 C214 1.481 . S
C207 N209 1.299 . S
C207 N210 1.379 . S
N208 Zn192 2.036 . S
N208 C206 1.298 . S
N208 N209 1.398 . S
N209 C207 1.299 . S
N209 N208 1.398 . S
N210 C206 1.367 . S
N210 C207 1.379 . S
H211 C214 0.980 . S
H212 C214 0.981 . S
H213 C214 0.981 . S
C214 C206 1.481 . S
C214 H211 0.980 . S
C214 H212 0.981 . S
C214 H213 0.981 . S
C215 C202 1.481 . S
C215 H216 0.980 . S
C215 H217 0.981 . S
C215 H218 0.981 . S
H216 C215 0.980 . S
H217 C215 0.981 . S
H218 C215 0.981 . S
O219 Zn195 2.066 . S
O219 C198 1.256 . S
O220 Zn192 2.053 . S
O220 C198 1.244 . S
C221 O199 1.259 . S
C221 O200 1.254 . S
O222 Zn192 2.066 . S
O222 C194 1.256 . S
O223 C194 1.244 . S
O223 Zn195 2.053 . S
Zn224 O225 2.055 . S
Zn224 O232 2.046 . S
Zn224 N240 2.036 . S
Zn224 O252 2.053 . S
Zn224 O254 2.066 . S
O225 Zn224 2.055 . S
O225 C228 1.259 . S
C226 O254 1.256 . S
C226 O255 1.244 . S
Zn227 O229 2.046 . S
Zn227 O231 2.055 . S
Zn227 N233 2.036 . S
Zn227 O251 2.066 . S
Zn227 O255 2.053 . S
C228 O225 1.259 . S
C228 O229 1.254 . S
O229 Zn227 2.046 . S
O229 C228 1.254 . S
C230 O251 1.256 . S
C230 O252 1.244 . S
O231 Zn227 2.055 . S
O231 C253 1.259 . S
O232 Zn224 2.046 . S
O232 C253 1.254 . S
N233 Zn227 2.036 . S
N233 C234 1.298 . S
N233 N236 1.398 . S
C234 N233 1.298 . S
C234 N237 1.367 . S
C234 C247 1.481 . S
C235 N236 1.299 . S
C235 N237 1.379 . S
N236 N233 1.398 . S
N236 C235 1.299 . S
N237 C234 1.367 . S
N237 C235 1.379 . S
C238 N240 1.298 . S
C238 N242 1.367 . S
C238 C246 1.481 . S
C239 N241 1.299 . S
C239 N242 1.379 . S
N240 Zn224 2.036 . S
N240 C238 1.298 . S
N240 N241 1.398 . S
N241 C239 1.299 . S
N241 N240 1.398 . S
N242 C238 1.367 . S
N242 C239 1.379 . S
H243 C246 0.980 . S
H244 C246 0.981 . S
H245 C246 0.981 . S
C246 C238 1.481 . S
C246 H243 0.980 . S
C246 H244 0.981 . S
C246 H245 0.981 . S
C247 C234 1.481 . S
C247 H248 0.980 . S
C247 H249 0.981 . S
C247 H250 0.981 . S
H248 C247 0.980 . S
H249 C247 0.981 . S
H250 C247 0.981 . S
O251 Zn227 2.066 . S
O251 C230 1.256 . S
O252 Zn224 2.053 . S
O252 C230 1.244 . S
C253 O231 1.259 . S
C253 O232 1.254 . S
O254 Zn224 2.066 . S
O254 C226 1.256 . S
O255 C226 1.244 . S
O255 Zn227 2.053 . S
Zn256 O257 2.055 . S
Zn256 O264 2.046 . S
Zn256 N272 2.036 . S
Zn256 O284 2.053 . S
Zn256 O286 2.066 . S
O257 Zn256 2.055 . S
O257 C260 1.259 . S
C258 O286 1.256 . S
C258 O287 1.244 . S
Zn259 O261 2.046 . S
Zn259 O263 2.055 . S
Zn259 N265 2.036 . S
Zn259 O283 2.066 . S
Zn259 O287 2.053 . S
C260 O257 1.259 . S
C260 O261 1.254 . S
O261 Zn259 2.046 . S
O261 C260 1.254 . S
C262 O283 1.256 . S
C262 O284 1.244 . S
O263 Zn259 2.055 . S
O263 C285 1.259 . S
O264 Zn256 2.046 . S
O264 C285 1.254 . S
N265 Zn259 2.036 . S
N265 C266 1.298 . S
N265 N268 1.398 . S
C266 N265 1.298 . S
C266 N269 1.367 . S
C266 C279 1.481 . S
C267 N268 1.299 . S
C267 N269 1.379 . S
N268 N265 1.398 . S
N268 C267 1.299 . S
N269 C266 1.367 . S
N269 C267 1.379 . S
C270 N272 1.298 . S
C270 N274 1.367 . S
C270 C278 1.481 . S
C271 N273 1.299 . S
C271 N274 1.379 . S
N272 Zn256 2.036 . S
N272 C270 1.298 . S
N272 N273 1.398 . S
N273 C271 1.299 . S
N273 N272 1.398 . S
N274 C270 1.367 . S
N274 C271 1.379 . S
H275 C278 0.980 . S
H276 C278 0.981 . S
H277 C278 0.981 . S
C278 C270 1.481 . S
C278 H275 0.980 . S
C278 H276 0.981 . S
C278 H277 0.981 . S
C279 C266 1.481 . S
C279 H280 0.980 . S
C279 H281 0.981 . S
C279 H282 0.981 . S
H280 C279 0.980 . S
H281 C279 0.981 . S
H282 C279 0.981 . S
O283 Zn259 2.066 . S
O283 C262 1.256 . S
O284 Zn256 2.053 . S
O284 C262 1.244 . S
C285 O263 1.259 . S
C285 O264 1.254 . S
O286 Zn256 2.066 . S
O286 C258 1.256 . S
O287 C258 1.244 . S
O287 Zn259 2.053 . S
Zn288 O289 2.055 . S
Zn288 O296 2.046 . S
Zn288 N304 2.036 . S
Zn288 O316 2.053 . S
Zn288 O318 2.066 . S
O289 Zn288 2.055 . S
O289 C292 1.259 . S
C290 O318 1.256 . S
C290 O319 1.244 . S
Zn291 O293 2.046 . S
Zn291 O295 2.055 . S
Zn291 N297 2.036 . S
Zn291 O315 2.066 . S
Zn291 O319 2.053 . S
C292 O289 1.259 . S
C292 O293 1.254 . S
O293 Zn291 2.046 . S
O293 C292 1.254 . S
C294 O315 1.256 . S
C294 O316 1.244 . S
O295 Zn291 2.055 . S
O295 C317 1.259 . S
O296 Zn288 2.046 . S
O296 C317 1.254 . S
N297 Zn291 2.036 . S
N297 C298 1.298 . S
N297 N300 1.398 . S
C298 N297 1.298 . S
C298 N301 1.367 . S
C298 C311 1.481 . S
C299 N300 1.299 . S
C299 N301 1.379 . S
N300 N297 1.398 . S
N300 C299 1.299 . S
N301 C298 1.367 . S
N301 C299 1.379 . S
C302 N304 1.298 . S
C302 N306 1.367 . S
C302 C310 1.481 . S
C303 N305 1.299 . S
C303 N306 1.379 1_565 S
N304 Zn288 2.036 . S
N304 C302 1.298 . S
N304 N305 1.398 1_545 S
N305 C303 1.299 . S
N305 N304 1.398 1_565 S
N306 C302 1.367 . S
N306 C303 1.379 1_545 S
H307 C310 0.980 . S
H308 C310 0.981 . S
H309 C310 0.981 . S
C310 C302 1.481 . S
C310 H307 0.980 . S
C310 H308 0.981 . S
C310 H309 0.981 . S
C311 C298 1.481 . S
C311 H312 0.980 . S
C311 H313 0.981 . S
C311 H314 0.981 . S
H312 C311 0.980 . S
H313 C311 0.981 . S
H314 C311 0.981 . S
O315 Zn291 2.066 . S
O315 C294 1.256 . S
O316 Zn288 2.053 . S
O316 C294 1.244 . S
C317 O295 1.259 . S
C317 O296 1.254 . S
O318 Zn288 2.066 . S
O318 C290 1.256 . S
O319 C290 1.244 . S
O319 Zn291 2.053 . S
Zn320 O321 2.055 . S
Zn320 O328 2.046 . S
Zn320 N336 2.036 . S
Zn320 O348 2.053 . S
Zn320 O350 2.066 . S
O321 Zn320 2.055 . S
O321 C324 1.259 . S
C322 O350 1.256 . S
C322 O351 1.244 . S
Zn323 O325 2.046 . S
Zn323 O327 2.055 . S
Zn323 N329 2.036 . S
Zn323 O347 2.066 . S
Zn323 O351 2.053 . S
C324 O321 1.259 . S
C324 O325 1.254 . S
O325 Zn323 2.046 . S
O325 C324 1.254 . S
C326 O347 1.256 . S
C326 O348 1.244 . S
O327 Zn323 2.055 . S
O327 C349 1.259 . S
O328 Zn320 2.046 . S
O328 C349 1.254 . S
N329 Zn323 2.036 . S
N329 C330 1.298 . S
N329 N332 1.398 . S
C330 N329 1.298 . S
C330 N333 1.367 . S
C330 C343 1.481 . S
C331 N332 1.299 . S
C331 N333 1.379 . S
N332 N329 1.398 . S
N332 C331 1.299 . S
N333 C330 1.367 . S
N333 C331 1.379 . S
C334 N336 1.298 . S
C334 N338 1.367 . S
C334 C342 1.481 . S
C335 N337 1.299 . S
C335 N338 1.379 . S
N336 Zn320 2.036 . S
N336 C334 1.298 . S
N336 N337 1.398 . S
N337 C335 1.299 . S
N337 N336 1.398 . S
N338 C334 1.367 . S
N338 C335 1.379 . S
H339 C342 0.980 . S
H340 C342 0.981 . S
H341 C342 0.981 . S
C342 C334 1.481 . S
C342 H339 0.980 . S
C342 H340 0.981 . S
C342 H341 0.981 . S
C343 C330 1.481 . S
C343 H344 0.980 . S
C343 H345 0.981 . S
C343 H346 0.981 . S
H344 C343 0.980 . S
H345 C343 0.981 . S
H346 C343 0.981 . S
O347 Zn323 2.066 . S
O347 C326 1.256 . S
O348 Zn320 2.053 . S
O348 C326 1.244 . S
C349 O327 1.259 . S
C349 O328 1.254 . S
O350 Zn320 2.066 . S
O350 C322 1.256 . S
O351 C322 1.244 . S
O351 Zn323 2.053 . S
Zn352 O353 2.055 . S
Zn352 O360 2.046 . S
Zn352 N368 2.036 . S
Zn352 O380 2.053 . S
Zn352 O382 2.066 . S
O353 Zn352 2.055 . S
O353 C356 1.259 . S
C354 O382 1.256 . S
C354 O383 1.244 . S
Zn355 O357 2.046 . S
Zn355 O359 2.055 . S
Zn355 N361 2.036 . S
Zn355 O379 2.066 . S
Zn355 O383 2.053 . S
C356 O353 1.259 . S
C356 O357 1.254 . S
O357 Zn355 2.046 . S
O357 C356 1.254 . S
C358 O379 1.256 . S
C358 O380 1.244 . S
O359 Zn355 2.055 . S
O359 C381 1.259 . S
O360 Zn352 2.046 . S
O360 C381 1.254 . S
N361 Zn355 2.036 . S
N361 C362 1.298 . S
N361 N364 1.398 1_565 S
C362 N361 1.298 . S
C362 N365 1.367 . S
C362 C375 1.481 . S
C363 N364 1.299 . S
C363 N365 1.379 1_545 S
N364 N361 1.398 1_545 S
N364 C363 1.299 . S
N365 C362 1.367 . S
N365 C363 1.379 1_565 S
C366 N368 1.298 . S
C366 N370 1.367 . S
C366 C374 1.481 . S
C367 N369 1.299 . S
C367 N370 1.379 . S
N368 Zn352 2.036 . S
N368 C366 1.298 . S
N368 N369 1.398 . S
N369 C367 1.299 . S
N369 N368 1.398 . S
N370 C366 1.367 . S
N370 C367 1.379 . S
H371 C374 0.980 . S
H372 C374 0.981 . S
H373 C374 0.981 . S
C374 C366 1.481 . S
C374 H371 0.980 . S
C374 H372 0.981 . S
C374 H373 0.981 . S
C375 C362 1.481 . S
C375 H376 0.980 . S
C375 H377 0.981 . S
C375 H378 0.981 . S
H376 C375 0.980 . S
H377 C375 0.981 . S
H378 C375 0.981 . S
O379 Zn355 2.066 . S
O379 C358 1.256 . S
O380 Zn352 2.053 . S
O380 C358 1.244 . S
C381 O359 1.259 . S
C381 O360 1.254 . S
O382 Zn352 2.066 . S
O382 C354 1.256 . S
O383 C354 1.244 . S
O383 Zn355 2.053 . S
Zn384 O385 2.055 . S
Zn384 O392 2.046 . S
Zn384 N400 2.036 . S
Zn384 O412 2.053 . S
Zn384 O414 2.066 . S
O385 Zn384 2.055 . S
O385 C388 1.259 . S
C386 O414 1.256 . S
C386 O415 1.244 . S
Zn387 O389 2.046 . S
Zn387 O391 2.055 . S
Zn387 N393 2.036 . S
Zn387 O411 2.066 . S
Zn387 O415 2.053 . S
C388 O385 1.259 . S
C388 O389 1.254 . S
O389 Zn387 2.046 . S
O389 C388 1.254 . S
C390 O411 1.256 . S
C390 O412 1.244 . S
O391 Zn387 2.055 . S
O391 C413 1.259 . S
O392 Zn384 2.046 . S
O392 C413 1.254 . S
N393 Zn387 2.036 . S
N393 C394 1.298 . S
N393 N396 1.398 . S
C394 N393 1.298 . S
C394 N397 1.367 . S
C394 C407 1.481 . S
C395 N396 1.299 . S
C395 N397 1.379 . S
N396 N393 1.398 . S
N396 C395 1.299 . S
N397 C394 1.367 . S
N397 C395 1.379 . S
C398 N400 1.298 . S
C398 N402 1.367 . S
C398 C406 1.481 . S
C399 N401 1.299 . S
C399 N402 1.379 . S
N400 Zn384 2.036 . S
N400 C398 1.298 . S
N400 N401 1.398 . S
N401 C399 1.299 . S
N401 N400 1.398 . S
N402 C398 1.367 . S
N402 C399 1.379 . S
H403 C406 0.980 . S
H404 C406 0.981 . S
H405 C406 0.981 . S
C406 C398 1.481 . S
C406 H403 0.980 . S
C406 H404 0.981 . S
C406 H405 0.981 . S
C407 C394 1.481 . S
C407 H408 0.980 . S
C407 H409 0.981 . S
C407 H410 0.981 . S
H408 C407 0.980 . S
H409 C407 0.981 . S
H410 C407 0.981 . S
O411 Zn387 2.066 . S
O411 C390 1.256 . S
O412 Zn384 2.053 . S
O412 C390 1.244 . S
C413 O391 1.259 . S
C413 O392 1.254 . S
O414 Zn384 2.066 . S
O414 C386 1.256 . S
O415 C386 1.244 . S
O415 Zn387 2.053 . S
Zn416 O417 2.055 . S
Zn416 O424 2.046 . S
Zn416 N432 2.036 . S
Zn416 O444 2.053 . S
Zn416 O446 2.066 . S
O417 Zn416 2.055 . S
O417 C420 1.259 . S
C418 O446 1.256 . S
C418 O447 1.244 . S
Zn419 O421 2.046 . S
Zn419 O423 2.055 . S
Zn419 N425 2.036 . S
Zn419 O443 2.066 . S
Zn419 O447 2.053 . S
C420 O417 1.259 . S
C420 O421 1.254 . S
O421 Zn419 2.046 . S
O421 C420 1.254 . S
C422 O443 1.256 . S
C422 O444 1.244 . S
O423 Zn419 2.055 . S
O423 C445 1.259 . S
O424 Zn416 2.046 . S
O424 C445 1.254 . S
N425 Zn419 2.036 . S
N425 C426 1.298 . S
N425 N428 1.398 . S
C426 N425 1.298 . S
C426 N429 1.367 . S
C426 C439 1.481 . S
C427 N428 1.299 . S
C427 N429 1.379 . S
N428 N425 1.398 . S
N428 C427 1.299 . S
N429 C426 1.367 . S
N429 C427 1.379 . S
C430 N432 1.298 . S
C430 N434 1.367 . S
C430 C438 1.481 . S
C431 N433 1.299 . S
C431 N434 1.379 1_545 S
N432 Zn416 2.036 . S
N432 C430 1.298 . S
N432 N433 1.398 1_565 S
N433 C431 1.299 . S
N433 N432 1.398 1_545 S
N434 C430 1.367 . S
N434 C431 1.379 1_565 S
H435 C438 0.980 . S
H436 C438 0.981 . S
H437 C438 0.981 . S
C438 C430 1.481 . S
C438 H435 0.980 . S
C438 H436 0.981 . S
C438 H437 0.981 . S
C439 C426 1.481 . S
C439 H440 0.980 . S
C439 H441 0.981 . S
C439 H442 0.981 . S
H440 C439 0.980 . S
H441 C439 0.981 . S
H442 C439 0.981 . S
O443 Zn419 2.066 . S
O443 C422 1.256 . S
O444 Zn416 2.053 . S
O444 C422 1.244 . S
C445 O423 1.259 . S
C445 O424 1.254 . S
O446 Zn416 2.066 . S
O446 C418 1.256 . S
O447 C418 1.244 . S
O447 Zn419 2.053 . S
Zn448 O449 2.055 . S
Zn448 O456 2.046 . S
Zn448 N464 2.036 . S
Zn448 O476 2.053 . S
Zn448 O478 2.066 . S
O449 Zn448 2.055 . S
O449 C452 1.259 . S
C450 O478 1.256 . S
C450 O479 1.244 . S
Zn451 O453 2.046 . S
Zn451 O455 2.055 . S
Zn451 N457 2.036 . S
Zn451 O475 2.066 . S
Zn451 O479 2.053 . S
C452 O449 1.259 . S
C452 O453 1.254 . S
O453 Zn451 2.046 . S
O453 C452 1.254 . S
C454 O475 1.256 . S
C454 O476 1.244 . S
O455 Zn451 2.055 . S
O455 C477 1.259 . S
O456 Zn448 2.046 . S
O456 C477 1.254 . S
N457 Zn451 2.036 . S
N457 C458 1.298 . S
N457 N460 1.398 . S
C458 N457 1.298 . S
C458 N461 1.367 . S
C458 C471 1.481 . S
C459 N460 1.299 . S
C459 N461 1.379 . S
N460 N457 1.398 . S
N460 C459 1.299 . S
N461 C458 1.367 . S
N461 C459 1.379 . S
C462 N464 1.298 . S
C462 N466 1.367 . S
C462 C470 1.481 . S
C463 N465 1.299 . S
C463 N466 1.379 . S
N464 Zn448 2.036 . S
N464 C462 1.298 . S
N464 N465 1.398 . S
N465 C463 1.299 . S
N465 N464 1.398 . S
N466 C462 1.367 . S
N466 C463 1.379 . S
H467 C470 0.980 . S
H468 C470 0.981 . S
H469 C470 0.981 . S
C470 C462 1.481 . S
C470 H467 0.980 . S
C470 H468 0.981 . S
C470 H469 0.981 . S
C471 C458 1.481 . S
C471 H472 0.980 . S
C471 H473 0.981 . S
C471 H474 0.981 . S
H472 C471 0.980 . S
H473 C471 0.981 . S
H474 C471 0.981 . S
O475 Zn451 2.066 . S
O475 C454 1.256 . S
O476 Zn448 2.053 . S
O476 C454 1.244 . S
C477 O455 1.259 . S
C477 O456 1.254 . S
O478 Zn448 2.066 . S
O478 C450 1.256 . S
O479 C450 1.244 . S
O479 Zn451 2.053 . S
Zn480 O481 2.055 . S
Zn480 O488 2.046 . S
Zn480 N496 2.036 . S
Zn480 O508 2.053 . S
Zn480 O510 2.066 . S
O481 Zn480 2.055 . S
O481 C484 1.259 . S
C482 O510 1.256 . S
C482 O511 1.244 . S
Zn483 O485 2.046 . S
Zn483 O487 2.055 . S
Zn483 N489 2.036 . S
Zn483 O507 2.066 . S
Zn483 O511 2.053 . S
C484 O481 1.259 . S
C484 O485 1.254 . S
O485 Zn483 2.046 . S
O485 C484 1.254 . S
C486 O507 1.256 . S
C486 O508 1.244 . S
O487 Zn483 2.055 . S
O487 C509 1.259 . S
O488 Zn480 2.046 . S
O488 C509 1.254 . S
N489 Zn483 2.036 . S
N489 C490 1.298 . S
N489 N492 1.398 1_545 S
C490 N489 1.298 . S
C490 N493 1.367 . S
C490 C503 1.481 . S
C491 N492 1.299 . S
C491 N493 1.379 1_565 S
N492 N489 1.398 1_565 S
N492 C491 1.299 . S
N493 C490 1.367 . S
N493 C491 1.379 1_545 S
C494 N496 1.298 . S
C494 N498 1.367 . S
C494 C502 1.481 . S
C495 N497 1.299 . S
C495 N498 1.379 . S
N496 Zn480 2.036 . S
N496 C494 1.298 . S
N496 N497 1.398 . S
N497 C495 1.299 . S
N497 N496 1.398 . S
N498 C494 1.367 . S
N498 C495 1.379 . S
H499 C502 0.980 . S
H500 C502 0.981 . S
H501 C502 0.981 . S
C502 C494 1.481 . S
C502 H499 0.980 . S
C502 H500 0.981 . S
C502 H501 0.981 . S
C503 C490 1.481 . S
C503 H504 0.980 . S
C503 H505 0.981 . S
C503 H506 0.981 . S
H504 C503 0.980 . S
H505 C503 0.981 . S
H506 C503 0.981 . S
O507 Zn483 2.066 . S
O507 C486 1.256 . S
O508 Zn480 2.053 . S
O508 C486 1.244 . S
C509 O487 1.259 . S
C509 O488 1.254 . S
O510 Zn480 2.066 . S
O510 C482 1.256 . S
O511 C482 1.244 . S
O511 Zn483 2.053 . S
H512 C524 0.930 . S
H513 C526 0.930 . S
H514 C527 0.930 . S
H515 C531 0.959 . S
H516 C531 0.959 . S
H517 C531 0.961 . S
H518 C532 0.960 . S
H519 C532 0.961 . S
H520 C532 0.959 . S
H521 C535 0.929 . S
H522 C536 0.931 . S
H523 C538 0.930 . S
C524 H512 0.930 . S
C524 C525 1.399 . S
C524 C529 1.399 . S
C525 C524 1.399 . S
C525 C526 1.376 . S
C526 H513 0.930 . S
C526 C525 1.376 . S
C526 C527 1.388 . S
C527 H514 0.930 . S
C527 C526 1.388 . S
C527 C528 1.390 . S
C528 C527 1.390 . S
C528 C529 1.394 . S
C528 C534 1.465 . S
C529 C524 1.399 . S
C529 C528 1.394 . S
C529 C530 1.516 . S
C530 C529 1.516 . S
C530 C531 1.502 . S
C530 C532 1.561 . S
C530 C533 1.526 . S
C531 H515 0.959 . S
C531 H516 0.959 . S
C531 H517 0.961 . S
C531 C530 1.502 . S
C532 H518 0.960 . S
C532 H519 0.961 . S
C532 H520 0.959 . S
C532 C530 1.561 . S
C533 C530 1.526 . S
C533 C534 1.396 . S
C533 C538 1.390 . S
C534 C528 1.465 . S
C534 C533 1.396 . S
C534 C535 1.399 . S
C535 H521 0.929 . S
C535 C534 1.399 . S
C535 C536 1.385 . S
C536 H522 0.931 . S
C536 C535 1.385 . S
C536 C537 1.389 . S
C537 C536 1.389 . S
C537 C538 1.387 . S
C538 H523 0.930 . S
C538 C533 1.390 . S
C538 C537 1.387 . S
H539 C551 0.930 . S
H540 C553 0.930 . S
H541 C554 0.930 . S
H542 C558 0.959 . S
H543 C558 0.959 . S
H544 C558 0.961 . S
H545 C559 0.960 . S
H546 C559 0.961 . S
H547 C559 0.959 . S
H548 C562 0.929 . S
H549 C563 0.931 . S
H550 C565 0.930 . S
C551 H539 0.930 . S
C551 C552 1.399 . S
C551 C556 1.399 . S
C552 C551 1.399 . S
C552 C553 1.376 . S
C553 H540 0.930 . S
C553 C552 1.376 . S
C553 C554 1.388 . S
C554 H541 0.930 . S
C554 C553 1.388 . S
C554 C555 1.390 . S
C555 C554 1.390 . S
C555 C556 1.394 . S
C555 C561 1.465 . S
C556 C551 1.399 . S
C556 C555 1.394 . S
C556 C557 1.516 . S
C557 C556 1.516 . S
C557 C558 1.502 . S
C557 C559 1.561 . S
C557 C560 1.526 . S
C558 H542 0.959 . S
C558 H543 0.959 . S
C558 H544 0.961 . S
C558 C557 1.502 . S
C559 H545 0.960 . S
C559 H546 0.961 . S
C559 H547 0.959 . S
C559 C557 1.561 . S
C560 C557 1.526 . S
C560 C561 1.396 . S
C560 C565 1.390 . S
C561 C555 1.465 . S
C561 C560 1.396 . S
C561 C562 1.399 . S
C562 H548 0.929 . S
C562 C561 1.399 . S
C562 C563 1.385 . S
C563 H549 0.931 . S
C563 C562 1.385 . S
C563 C564 1.389 . S
C564 C563 1.389 . S
C564 C565 1.387 . S
C565 H550 0.930 . S
C565 C560 1.390 . S
C565 C564 1.387 . S
H566 C578 0.930 . S
H567 C580 0.930 . S
H568 C581 0.930 . S
H569 C585 0.959 . S
H570 C585 0.959 1_655 S
H571 C585 0.961 . S
H572 C586 0.960 1_455 S
H573 C586 0.961 . S
H574 C586 0.959 . S
H575 C589 0.929 . S
H576 C590 0.931 . S
H577 C592 0.930 . S
C578 H566 0.930 . S
C578 C579 1.399 . S
C578 C583 1.399 . S
C579 C578 1.399 . S
C579 C580 1.376 . S
C580 H567 0.930 . S
C580 C579 1.376 . S
C580 C581 1.388 . S
C581 H568 0.930 . S
C581 C580 1.388 . S
C581 C582 1.390 . S
C582 C581 1.390 . S
C582 C583 1.394 . S
C582 C588 1.465 1_455 S
C583 C578 1.399 . S
C583 C582 1.394 . S
C583 C584 1.516 1_455 S
C584 C583 1.516 1_655 S
C584 C585 1.502 1_655 S
C584 C586 1.561 . S
C584 C587 1.526 . S
C585 H569 0.959 . S
C585 H570 0.959 1_455 S
C585 H571 0.961 . S
C585 C584 1.502 1_455 S
C586 H572 0.960 1_655 S
C586 H573 0.961 . S
C586 H574 0.959 . S
C586 C584 1.561 . S
C587 C584 1.526 . S
C587 C588 1.396 . S
C587 C592 1.390 . S
C588 C582 1.465 1_655 S
C588 C587 1.396 . S
C588 C589 1.399 . S
C589 H575 0.929 . S
C589 C588 1.399 . S
C589 C590 1.385 . S
C590 H576 0.931 . S
C590 C589 1.385 . S
C590 C591 1.389 . S
C591 C590 1.389 . S
C591 C592 1.387 . S
C592 H577 0.930 . S
C592 C587 1.390 . S
C592 C591 1.387 . S
H593 C605 0.930 . S
H594 C607 0.930 . S
H595 C608 0.930 . S
H596 C612 0.959 . S
H597 C612 0.959 . S
H598 C612 0.961 . S
H599 C613 0.960 . S
H600 C613 0.961 . S
H601 C613 0.959 . S
H602 C616 0.929 . S
H603 C617 0.931 . S
H604 C619 0.930 . S
C605 H593 0.930 . S
C605 C606 1.399 . S
C605 C610 1.399 . S
C606 C605 1.399 . S
C606 C607 1.376 . S
C607 H594 0.930 . S
C607 C606 1.376 . S
C607 C608 1.388 . S
C608 H595 0.930 . S
C608 C607 1.388 . S
C608 C609 1.390 . S
C609 C608 1.390 . S
C609 C610 1.394 . S
C609 C615 1.465 1_455 S
C610 C605 1.399 . S
C610 C609 1.394 . S
C610 C611 1.516 1_455 S
C611 C610 1.516 1_655 S
C611 C612 1.502 . S
C611 C613 1.561 1_655 S
C611 C614 1.526 . S
C612 H596 0.959 . S
C612 H597 0.959 . S
C612 H598 0.961 . S
C612 C611 1.502 . S
C613 H599 0.960 . S
C613 H600 0.961 . S
C613 H601 0.959 . S
C613 C611 1.561 1_455 S
C614 C611 1.526 . S
C614 C615 1.396 . S
C614 C619 1.390 . S
C615 C609 1.465 1_655 S
C615 C614 1.396 . S
C615 C616 1.399 . S
C616 H602 0.929 . S
C616 C615 1.399 . S
C616 C617 1.385 . S
C617 H603 0.931 . S
C617 C616 1.385 . S
C617 C618 1.389 . S
C618 C617 1.389 . S
C618 C619 1.387 . S
C619 H604 0.930 . S
C619 C614 1.390 . S
C619 C618 1.387 . S
H620 C632 0.930 . S
H621 C634 0.930 . S
H622 C635 0.930 . S
H623 C639 0.959 . S
H624 C639 0.959 . S
H625 C639 0.961 . S
H626 C640 0.960 . S
H627 C640 0.961 . S
H628 C640 0.959 . S
H629 C643 0.929 . S
H630 C644 0.931 . S
H631 C646 0.930 . S
C632 H620 0.930 . S
C632 C633 1.399 . S
C632 C637 1.399 . S
C633 C632 1.399 . S
C633 C634 1.376 . S
C634 H621 0.930 . S
C634 C633 1.376 . S
C634 C635 1.388 . S
C635 H622 0.930 . S
C635 C634 1.388 . S
C635 C636 1.390 . S
C636 C635 1.390 . S
C636 C637 1.394 . S
C636 C642 1.465 . S
C637 C632 1.399 . S
C637 C636 1.394 . S
C637 C638 1.516 . S
C638 C637 1.516 . S
C638 C639 1.502 . S
C638 C640 1.561 . S
C638 C641 1.526 . S
C639 H623 0.959 . S
C639 H624 0.959 . S
C639 H625 0.961 . S
C639 C638 1.502 . S
C640 H626 0.960 . S
C640 H627 0.961 . S
C640 H628 0.959 . S
C640 C638 1.561 . S
C641 C638 1.526 . S
C641 C642 1.396 . S
C641 C646 1.390 . S
C642 C636 1.465 . S
C642 C641 1.396 . S
C642 C643 1.399 . S
C643 H629 0.929 . S
C643 C642 1.399 . S
C643 C644 1.385 . S
C644 H630 0.931 . S
C644 C643 1.385 . S
C644 C645 1.389 . S
C645 C644 1.389 . S
C645 C646 1.387 . S
C646 H631 0.930 . S
C646 C641 1.390 . S
C646 C645 1.387 . S
H647 C659 0.930 . S
H648 C661 0.930 . S
H649 C662 0.930 . S
H650 C666 0.959 . S
H651 C666 0.959 . S
H652 C666 0.961 . S
H653 C667 0.960 . S
H654 C667 0.961 . S
H655 C667 0.959 . S
H656 C670 0.929 . S
H657 C671 0.931 . S
H658 C673 0.930 . S
C659 H647 0.930 . S
C659 C660 1.399 . S
C659 C664 1.399 . S
C660 C659 1.399 . S
C660 C661 1.376 . S
C661 H648 0.930 . S
C661 C660 1.376 . S
C661 C662 1.388 . S
C662 H649 0.930 . S
C662 C661 1.388 . S
C662 C663 1.390 . S
C663 C662 1.390 . S
C663 C664 1.394 . S
C663 C669 1.465 . S
C664 C659 1.399 . S
C664 C663 1.394 . S
C664 C665 1.516 . S
C665 C664 1.516 . S
C665 C666 1.502 . S
C665 C667 1.561 . S
C665 C668 1.526 . S
C666 H650 0.959 . S
C666 H651 0.959 . S
C666 H652 0.961 . S
C666 C665 1.502 . S
C667 H653 0.960 . S
C667 H654 0.961 . S
C667 H655 0.959 . S
C667 C665 1.561 . S
C668 C665 1.526 . S
C668 C669 1.396 . S
C668 C673 1.390 . S
C669 C663 1.465 . S
C669 C668 1.396 . S
C669 C670 1.399 . S
C670 H656 0.929 . S
C670 C669 1.399 . S
C670 C671 1.385 . S
C671 H657 0.931 . S
C671 C670 1.385 . S
C671 C672 1.389 . S
C672 C671 1.389 . S
C672 C673 1.387 . S
C673 H658 0.930 . S
C673 C668 1.390 . S
C673 C672 1.387 . S
H674 C686 0.930 . S
H675 C688 0.930 . S
H676 C689 0.930 . S
H677 C693 0.959 . S
H678 C693 0.959 . S
H679 C693 0.961 1_455 S
H680 C694 0.960 . S
H681 C694 0.961 1_655 S
H682 C694 0.959 . S
H683 C697 0.929 . S
H684 C698 0.931 . S
H685 C700 0.930 . S
C686 H674 0.930 . S
C686 C687 1.399 . S
C686 C691 1.399 . S
C687 C686 1.399 . S
C687 C688 1.376 . S
C688 H675 0.930 . S
C688 C687 1.376 . S
C688 C689 1.388 . S
C689 H676 0.930 . S
C689 C688 1.388 . S
C689 C690 1.390 . S
C690 C689 1.390 . S
C690 C691 1.394 . S
C690 C696 1.465 1_455 S
C691 C686 1.399 . S
C691 C690 1.394 . S
C691 C692 1.502 1_455 S
C692 C691 1.502 1_655 S
C692 C693 1.509 . S
C692 C694 1.555 1_655 S
C692 C695 1.540 . S
C693 H677 0.959 . S
C693 H678 0.959 . S
C693 H679 0.961 1_655 S
C693 C692 1.509 . S
C694 H680 0.960 . S
C694 H681 0.961 1_455 S
C694 H682 0.959 . S
C694 C692 1.555 1_455 S
C695 C692 1.540 . S
C695 C696 1.396 . S
C695 C700 1.390 . S
C696 C690 1.465 1_655 S
C696 C695 1.396 . S
C696 C697 1.399 . S
C697 H683 0.929 . S
C697 C696 1.399 . S
C697 C698 1.385 . S
C698 H684 0.931 . S
C698 C697 1.385 . S
C698 C699 1.389 . S
C699 C698 1.389 . S
C699 C700 1.387 . S
C700 H685 0.930 . S
C700 C695 1.390 . S
C700 C699 1.387 . S
H701 C713 0.930 . S
H702 C715 0.930 . S
H703 C716 0.930 . S
H704 C720 0.959 . S
H705 C720 0.959 . S
H706 C720 0.961 . S
H707 C721 0.969 . S
H708 C721 0.961 . S
H709 C721 0.959 . S
H710 C724 0.929 . S
H711 C725 0.931 . S
H712 C727 0.930 . S
C713 H701 0.930 . S
C713 C714 1.399 . S
C713 C718 1.399 . S
C714 C713 1.399 . S
C714 C715 1.376 . S
C715 H702 0.930 . S
C715 C714 1.376 . S
C715 C716 1.388 1_455 S
C716 H703 0.930 . S
C716 C715 1.388 1_655 S
C716 C717 1.390 . S
C717 C716 1.390 . S
C717 C718 1.394 1_655 S
C717 C723 1.465 . S
C718 C713 1.399 . S
C718 C717 1.394 1_455 S
C718 C719 1.516 . S
C719 C718 1.516 . S
C719 C720 1.502 . S
C719 C721 1.561 1_455 S
C719 C722 1.526 1_455 S
C720 H704 0.959 . S
C720 H705 0.959 . S
C720 H706 0.961 . S
C720 C719 1.502 . S
C721 H707 0.969 . S
C721 H708 0.961 . S
C721 H709 0.959 . S
C721 C719 1.561 1_655 S
C722 C719 1.526 1_655 S
C722 C723 1.396 . S
C722 C727 1.390 . S
C723 C717 1.465 . S
C723 C722 1.396 . S
C723 C724 1.399 . S
C724 H710 0.929 . S
C724 C723 1.399 . S
C724 C725 1.385 . S
C725 H711 0.931 . S
C725 C724 1.385 . S
C725 C726 1.389 . S
C726 C725 1.389 . S
C726 C727 1.387 . S
C727 H712 0.930 . S
C727 C722 1.390 . S
C727 C726 1.387 . S
H728 C740 0.930 . S
H729 C742 0.930 . S
H730 C743 0.930 . S
H731 C747 0.959 . S
H732 C747 0.959 . S
H733 C747 0.961 . S
H734 C748 0.960 . S
H735 C748 0.961 . S
H736 C748 0.959 . S
H737 C751 0.931 1_544 S
H738 C752 0.931 . S
H739 C754 0.930 . S
C740 H728 0.930 . S
C740 C741 1.399 . S
C740 C745 1.399 . S
C741 C740 1.399 . S
C741 C742 1.376 . S
C742 H729 0.930 . S
C742 C741 1.376 . S
C742 C743 1.388 . S
C743 H730 0.930 . S
C743 C742 1.388 . S
C743 C744 1.390 . S
C744 C743 1.390 . S
C744 C745 1.394 . S
C744 C750 1.465 1_554 S
C745 C740 1.399 . S
C745 C744 1.394 . S
C745 C746 1.516 1_544 S
C746 C745 1.516 1_566 S
C746 C747 1.502 . S
C746 C748 1.561 1_565 S
C746 C749 1.526 . S
C747 H731 0.959 . S
C747 H732 0.959 . S
C747 H733 0.961 . S
C747 C746 1.502 . S
C748 H734 0.960 . S
C748 H735 0.961 . S
C748 H736 0.959 . S
C748 C746 1.561 1_545 S
C749 C746 1.526 . S
C749 C750 1.396 1_565 S
C749 C754 1.390 . S
C750 C744 1.465 1_556 S
C750 C749 1.396 1_545 S
C750 C751 1.399 1_545 S
C751 H737 0.931 1_566 S
C751 C750 1.399 1_565 S
C751 C752 1.384 . S
C752 H738 0.931 . S
C752 C751 1.384 . S
C752 C753 1.389 . S
C753 C752 1.389 . S
C753 C754 1.387 . S
C754 H739 0.930 . S
C754 C749 1.390 . S
C754 C753 1.387 . S
H755 C767 0.930 . S
H756 C769 0.930 . S
H757 C770 0.930 . S
H758 C774 0.959 . S
H759 C774 0.959 . S
H760 C774 0.961 . S
H761 C775 0.960 . S
H762 C775 0.961 . S
H763 C775 0.959 . S
H764 C778 0.929 . S
H765 C779 0.931 . S
H766 C781 0.930 . S
C767 H755 0.930 . S
C767 C768 1.399 . S
C767 C772 1.399 . S
C768 C767 1.399 . S
C768 C769 1.376 . S
C769 H756 0.930 . S
C769 C768 1.376 . S
C769 C770 1.388 . S
C770 H757 0.930 . S
C770 C769 1.388 . S
C770 C771 1.390 . S
C771 C770 1.390 . S
C771 C772 1.394 . S
C771 C777 1.465 . S
C772 C767 1.399 . S
C772 C771 1.394 . S
C772 C773 1.516 . S
C773 C772 1.516 . S
C773 C774 1.502 . S
C773 C775 1.561 . S
C773 C776 1.526 . S
C774 H758 0.959 . S
C774 H759 0.959 . S
C774 H760 0.961 . S
C774 C773 1.502 . S
C775 H761 0.960 . S
C775 H762 0.961 . S
C775 H763 0.959 . S
C775 C773 1.561 . S
C776 C773 1.526 . S
C776 C777 1.396 . S
C776 C781 1.390 . S
C777 C771 1.465 . S
C777 C776 1.396 . S
C777 C778 1.399 . S
C778 H764 0.929 . S
C778 C777 1.399 . S
C778 C779 1.385 . S
C779 H765 0.931 . S
C779 C778 1.385 . S
C779 C780 1.389 . S
C780 C779 1.389 . S
C780 C781 1.387 . S
C781 H766 0.930 . S
C781 C776 1.390 . S
C781 C780 1.387 . S
H782 C794 0.930 . S
H783 C796 0.930 . S
H784 C797 0.930 . S
H785 C801 0.959 . S
H786 C801 0.959 . S
H787 C801 0.961 . S
H788 C802 0.960 . S
H789 C802 0.961 . S
H790 C802 0.959 1_545 S
H791 C805 0.929 . S
H792 C806 0.931 . S
H793 C808 0.930 . S
C794 H782 0.930 . S
C794 C795 1.399 . S
C794 C799 1.399 . S
C795 C794 1.399 . S
C795 C796 1.376 . S
C796 H783 0.930 . S
C796 C795 1.376 . S
C796 C797 1.388 1_565 S
C797 H784 0.930 . S
C797 C796 1.388 1_545 S
C797 C798 1.390 . S
C798 C797 1.390 . S
C798 C799 1.394 1_545 S
C798 C804 1.465 . S
C799 C794 1.399 . S
C799 C798 1.394 1_565 S
C799 C800 1.516 1_455 S
C800 C799 1.516 1_655 S
C800 C801 1.502 . S
C800 C802 1.561 . S
C800 C803 1.526 1_565 S
C801 H785 0.959 . S
C801 H786 0.959 . S
C801 H787 0.961 . S
C801 C800 1.502 . S
C802 H788 0.960 . S
C802 H789 0.961 . S
C802 H790 0.959 1_565 S
C802 C800 1.561 . S
C803 C800 1.526 1_545 S
C803 C804 1.396 1_655 S
C803 C808 1.390 . S
C804 C798 1.465 . S
C804 C803 1.396 1_455 S
C804 C805 1.399 . S
C805 H791 0.929 . S
C805 C804 1.399 . S
C805 C806 1.385 1_455 S
C806 H792 0.931 . S
C806 C805 1.385 1_655 S
C806 C807 1.389 . S
C807 C806 1.389 . S
C807 C808 1.387 . S
C808 H793 0.930 . S
C808 C803 1.390 . S
C808 C807 1.387 . S
H809 C821 0.930 . S
H810 C823 0.930 . S
H811 C824 0.930 . S
H812 C828 0.959 . S
H813 C828 0.959 . S
H814 C828 0.961 . S
H815 C829 0.960 . S
H816 C829 0.961 . S
H817 C829 0.959 . S
H818 C832 0.929 . S
H819 C833 0.931 . S
H820 C835 0.930 . S
C821 H809 0.930 . S
C821 C822 1.399 . S
C821 C826 1.399 . S
C822 C821 1.399 . S
C822 C823 1.376 . S
C823 H810 0.930 . S
C823 C822 1.376 . S
C823 C824 1.388 . S
C824 H811 0.930 . S
C824 C823 1.388 . S
C824 C825 1.390 . S
C825 C824 1.390 . S
C825 C826 1.394 . S
C825 C831 1.465 . S
C826 C821 1.399 . S
C826 C825 1.394 . S
C826 C827 1.516 . S
C827 C826 1.516 . S
C827 C828 1.502 . S
C827 C829 1.561 . S
C827 C830 1.526 . S
C828 H812 0.959 . S
C828 H813 0.959 . S
C828 H814 0.961 . S
C828 C827 1.502 . S
C829 H815 0.960 . S
C829 H816 0.961 . S
C829 H817 0.959 . S
C829 C827 1.561 . S
C830 C827 1.526 . S
C830 C831 1.396 . S
C830 C835 1.390 . S
C831 C825 1.465 . S
C831 C830 1.396 . S
C831 C832 1.399 . S
C832 H818 0.929 . S
C832 C831 1.399 . S
C832 C833 1.385 . S
C833 H819 0.931 . S
C833 C832 1.385 . S
C833 C834 1.389 . S
C834 C833 1.389 . S
C834 C835 1.387 . S
C835 H820 0.930 . S
C835 C830 1.390 . S
C835 C834 1.387 . S
H836 C848 0.930 . S
H837 C850 0.930 . S
H838 C851 0.930 . S
H839 C855 0.959 . S
H840 C855 0.959 . S
H841 C855 0.961 . S
H842 C856 0.960 . S
H843 C856 0.961 . S
H844 C856 0.959 . S
H845 C859 0.929 . S
H846 C860 0.931 . S
H847 C862 0.930 . S
C848 H836 0.930 . S
C848 C849 1.399 . S
C848 C853 1.399 . S
C849 C848 1.399 . S
C849 C850 1.376 . S
C850 H837 0.930 . S
C850 C849 1.376 . S
C850 C851 1.388 . S
C851 H838 0.930 . S
C851 C850 1.388 . S
C851 C852 1.390 . S
C852 C851 1.390 . S
C852 C853 1.394 . S
C852 C858 1.465 . S
C853 C848 1.399 . S
C853 C852 1.394 . S
C853 C854 1.516 . S
C854 C853 1.516 . S
C854 C855 1.502 . S
C854 C856 1.561 . S
C854 C857 1.526 . S
C855 H839 0.959 . S
C855 H840 0.959 . S
C855 H841 0.961 . S
C855 C854 1.502 . S
C856 H842 0.960 . S
C856 H843 0.961 . S
C856 H844 0.959 . S
C856 C854 1.561 . S
C857 C854 1.526 . S
C857 C858 1.396 . S
C857 C862 1.390 . S
C858 C852 1.465 . S
C858 C857 1.396 . S
C858 C859 1.399 . S
C859 H845 0.929 . S
C859 C858 1.399 . S
C859 C860 1.385 . S
C860 H846 0.931 . S
C860 C859 1.385 . S
C860 C861 1.389 . S
C861 C860 1.389 . S
C861 C862 1.387 . S
C862 H847 0.930 . S
C862 C857 1.390 . S
C862 C861 1.387 . S
H863 C875 0.930 . S
H864 C877 0.930 . S
H865 C878 0.930 . S
H866 C882 0.959 . S
H867 C882 0.959 . S
H868 C882 0.961 . S
H869 C883 0.960 . S
H870 C883 0.961 . S
H871 C883 0.959 . S
H872 C886 0.929 . S
H873 C887 0.931 . S
H874 C889 0.930 . S
C875 H863 0.930 . S
C875 C876 1.399 . S
C875 C880 1.399 . S
C876 C875 1.399 . S
C876 C877 1.376 . S
C877 H864 0.930 . S
C877 C876 1.376 . S
C877 C878 1.388 . S
C878 H865 0.930 . S
C878 C877 1.388 . S
C878 C879 1.390 . S
C879 C878 1.390 . S
C879 C880 1.394 . S
C879 C885 1.465 . S
C880 C875 1.399 . S
C880 C879 1.394 . S
C880 C881 1.516 . S
C881 C880 1.516 . S
C881 C882 1.502 . S
C881 C883 1.561 . S
C881 C884 1.526 . S
C882 H866 0.959 . S
C882 H867 0.959 . S
C882 H868 0.961 . S
C882 C881 1.502 . S
C883 H869 0.960 . S
C883 H870 0.961 . S
C883 H871 0.959 . S
C883 C881 1.561 . S
C884 C881 1.526 . S
C884 C885 1.396 . S
C884 C889 1.390 . S
C885 C879 1.465 . S
C885 C884 1.396 . S
C885 C886 1.399 . S
C886 H872 0.929 . S
C886 C885 1.399 . S
C886 C887 1.385 . S
C887 H873 0.931 . S
C887 C886 1.385 . S
C887 C888 1.389 . S
C888 C887 1.389 . S
C888 C889 1.387 . S
C889 H874 0.930 . S
C889 C884 1.390 . S
C889 C888 1.387 . S
H890 C902 0.930 . S
H891 C904 0.930 . S
H892 C905 0.930 . S
H893 C909 0.959 1_455 S
H894 C909 0.959 . S
H895 C909 0.961 . S
H896 C910 0.960 . S
H897 C910 0.961 . S
H898 C910 0.959 . S
H899 C913 0.929 1_455 S
H900 C914 0.931 . S
H901 C916 0.930 . S
C902 H890 0.930 . S
C902 C903 1.399 . S
C902 C907 1.399 . S
C903 C902 1.399 . S
C903 C904 1.376 . S
C904 H891 0.930 . S
C904 C903 1.376 . S
C904 C905 1.388 . S
C905 H892 0.930 . S
C905 C904 1.388 . S
C905 C906 1.390 . S
C906 C905 1.390 . S
C906 C907 1.394 . S
C906 C912 1.465 1_455 S
C907 C902 1.399 . S
C907 C906 1.394 . S
C907 C908 1.516 1_455 S
C908 C907 1.516 1_655 S
C908 C909 1.502 . S
C908 C910 1.561 . S
C908 C911 1.526 . S
C909 H893 0.959 1_655 S
C909 H894 0.959 . S
C909 H895 0.961 . S
C909 C908 1.502 . S
C910 H896 0.960 . S
C910 H897 0.961 . S
C910 H898 0.959 . S
C910 C908 1.561 . S
C911 C908 1.526 . S
C911 C912 1.396 . S
C911 C916 1.390 . S
C912 C906 1.465 1_655 S
C912 C911 1.396 . S
C912 C913 1.399 . S
C913 H899 0.929 1_655 S
C913 C912 1.399 . S
C913 C914 1.385 . S
C914 H900 0.931 . S
C914 C913 1.385 . S
C914 C915 1.389 . S
C915 C914 1.389 . S
C915 C916 1.387 . S
C916 H901 0.930 . S
C916 C911 1.390 . S
C916 C915 1.387 . S
H917 C929 0.930 . S
H918 C931 0.930 . S
H919 C932 0.930 . S
H920 C936 0.959 . S
H921 C936 0.959 . S
H922 C936 0.934 1_554 S
H923 C937 0.960 . S
H924 C937 0.961 . S
H925 C937 0.959 . S
H926 C940 0.929 . S
H927 C941 0.931 . S
H928 C943 0.930 . S
C929 H917 0.930 . S
C929 C930 1.399 . S
C929 C934 1.399 . S
C930 C929 1.399 . S
C930 C931 1.376 . S
C931 H918 0.930 . S
C931 C930 1.376 . S
C931 C932 1.388 . S
C932 H919 0.930 . S
C932 C931 1.388 . S
C932 C933 1.390 . S
C933 C932 1.390 . S
C933 C934 1.394 . S
C933 C939 1.465 1_554 S
C934 C929 1.399 . S
C934 C933 1.394 . S
C934 C935 1.516 . S
C935 C934 1.516 . S
C935 C936 1.502 1_554 S
C935 C937 1.561 . S
C935 C938 1.526 1_554 S
C936 H920 0.959 . S
C936 H921 0.959 . S
C936 H922 0.934 1_556 S
C936 C935 1.502 1_556 S
C937 H923 0.960 . S
C937 H924 0.961 . S
C937 H925 0.959 . S
C937 C935 1.561 . S
C938 C935 1.526 1_556 S
C938 C939 1.396 . S
C938 C943 1.390 . S
C939 C933 1.465 1_556 S
C939 C938 1.396 . S
C939 C940 1.399 . S
C940 H926 0.929 . S
C940 C939 1.399 . S
C940 C941 1.385 . S
C941 H927 0.931 . S
C941 C940 1.385 . S
C941 C942 1.389 . S
C942 C941 1.389 . S
C942 C943 1.387 . S
C943 H928 0.930 . S
C943 C938 1.390 . S
C943 C942 1.387 . S
H944 C956 0.930 . S
H945 C958 0.930 . S
H946 C959 0.930 . S
H947 C963 0.959 . S
H948 C963 0.959 . S
H949 C963 0.961 . S
H950 C964 0.960 . S
H951 C964 0.961 . S
H952 C964 0.959 . S
H953 C967 0.929 . S
H954 C968 0.931 . S
H955 C970 0.930 . S
C956 H944 0.930 . S
C956 C957 1.399 . S
C956 C961 1.399 . S
C957 C956 1.399 . S
C957 C958 1.376 . S
C958 H945 0.930 . S
C958 C957 1.376 . S
C958 C959 1.388 . S
C959 H946 0.930 . S
C959 C958 1.388 . S
C959 C960 1.390 . S
C960 C959 1.390 . S
C960 C961 1.394 . S
C960 C966 1.465 . S
C961 C956 1.399 . S
C961 C960 1.394 . S
C961 C962 1.516 . S
C962 C961 1.516 . S
C962 C963 1.502 . S
C962 C964 1.561 . S
C962 C965 1.526 . S
C963 H947 0.959 . S
C963 H948 0.959 . S
C963 H949 0.961 . S
C963 C962 1.502 . S
C964 H950 0.960 . S
C964 H951 0.961 . S
C964 H952 0.959 . S
C964 C962 1.561 . S
C965 C962 1.526 . S
C965 C966 1.396 . S
C965 C970 1.390 . S
C966 C960 1.465 . S
C966 C965 1.396 . S
C966 C967 1.399 . S
C967 H953 0.929 . S
C967 C966 1.399 . S
C967 C968 1.385 . S
C968 H954 0.931 . S
C968 C967 1.385 . S
C968 C969 1.389 . S
C969 C968 1.389 . S
C969 C970 1.387 . S
C970 H955 0.930 . S
C970 C965 1.390 . S
C970 C969 1.387 . S
H971 C983 0.930 . S
H972 C985 0.930 . S
H973 C986 0.930 . S
H974 C990 0.959 . S
H975 C990 0.959 . S
H976 C990 0.961 . S
H977 C991 0.960 . S
H978 C991 0.961 . S
H979 C991 0.959 . S
H980 C994 0.929 . S
H981 C995 0.931 . S
H982 C997 0.930 . S
C983 H971 0.930 . S
C983 C984 1.399 . S
C983 C988 1.399 . S
C984 C983 1.399 . S
C984 C985 1.376 . S
C985 H972 0.930 . S
C985 C984 1.376 . S
C985 C986 1.388 . S
C986 H973 0.930 . S
C986 C985 1.388 . S
C986 C987 1.390 . S
C987 C986 1.390 . S
C987 C988 1.394 . S
C987 C993 1.465 . S
C988 C983 1.399 . S
C988 C987 1.394 . S
C988 C989 1.516 . S
C989 C988 1.516 . S
C989 C990 1.502 . S
C989 C991 1.561 . S
C989 C992 1.526 . S
C990 H974 0.959 . S
C990 H975 0.959 . S
C990 H976 0.961 . S
C990 C989 1.502 . S
C991 H977 0.960 . S
C991 H978 0.961 . S
C991 H979 0.959 . S
C991 C989 1.561 . S
C992 C989 1.526 . S
C992 C993 1.396 . S
C992 C997 1.390 . S
C993 C987 1.465 . S
C993 C992 1.396 . S
C993 C994 1.399 . S
C994 H980 0.929 . S
C994 C993 1.399 . S
C994 C995 1.385 . S
C995 H981 0.931 . S
C995 C994 1.385 . S
C995 C996 1.389 . S
C996 C995 1.389 . S
C996 C997 1.387 . S
C997 H982 0.930 . S
C997 C992 1.390 . S
C997 C996 1.387 . S
H998 C1010 0.930 . S
H999 C1012 0.930 . S
H1000 C1013 0.930 . S
H1001 C1017 0.959 . S
H1002 C1017 0.959 . S
H1003 C1017 0.961 . S
H1004 C1018 0.960 . S
H1005 C1018 0.961 . S
H1006 C1018 0.959 . S
H1007 C1021 0.929 . S
H1008 C1022 0.931 . S
H1009 C1024 0.930 . S
C1010 H998 0.930 . S
C1010 C1011 1.399 . S
C1010 C1015 1.399 . S
C1011 C1010 1.399 . S
C1011 C1012 1.376 . S
C1012 H999 0.930 . S
C1012 C1011 1.376 . S
C1012 C1013 1.388 . S
C1013 H1000 0.930 . S
C1013 C1012 1.388 . S
C1013 C1014 1.390 . S
C1014 C1013 1.390 . S
C1014 C1015 1.394 . S
C1014 C1020 1.465 . S
C1015 C1010 1.399 . S
C1015 C1014 1.394 . S
C1015 C1016 1.516 . S
C1016 C1015 1.516 . S
C1016 C1017 1.502 . S
C1016 C1018 1.561 . S
C1016 C1019 1.526 . S
C1017 H1001 0.959 . S
C1017 H1002 0.959 . S
C1017 H1003 0.961 . S
C1017 C1016 1.502 . S
C1018 H1004 0.960 . S
C1018 H1005 0.961 . S
C1018 H1006 0.959 . S
C1018 C1016 1.561 . S
C1019 C1016 1.526 . S
C1019 C1020 1.396 . S
C1019 C1024 1.390 . S
C1020 C1014 1.465 . S
C1020 C1019 1.396 . S
C1020 C1021 1.399 . S
C1021 H1007 0.929 . S
C1021 C1020 1.399 . S
C1021 C1022 1.385 . S
C1022 H1008 0.931 . S
C1022 C1021 1.385 . S
C1022 C1023 1.389 . S
C1023 C1022 1.389 . S
C1023 C1024 1.387 . S
C1024 H1009 0.930 . S
C1024 C1019 1.390 . S
C1024 C1023 1.387 . S
H1025 C1037 0.930 . S
H1026 C1039 0.930 . S
H1027 C1040 0.930 . S
H1028 C1044 0.959 . S
H1029 C1044 0.959 . S
H1030 C1044 0.961 . S
H1031 C1045 0.960 . S
H1032 C1045 0.961 . S
H1033 C1045 0.959 . S
H1034 C1048 0.929 . S
H1035 C1049 0.931 . S
H1036 C1051 0.930 . S
C1037 H1025 0.930 . S
C1037 C1038 1.399 . S
C1037 C1042 1.399 . S
C1038 C1037 1.399 . S
C1038 C1039 1.376 . S
C1039 H1026 0.930 . S
C1039 C1038 1.376 . S
C1039 C1040 1.388 . S
C1040 H1027 0.930 . S
C1040 C1039 1.388 . S
C1040 C1041 1.390 . S
C1041 C1040 1.390 . S
C1041 C1042 1.394 . S
C1041 C1047 1.465 . S
C1042 C1037 1.399 . S
C1042 C1041 1.394 . S
C1042 C1043 1.516 . S
C1043 C1042 1.516 . S
C1043 C1044 1.502 . S
C1043 C1045 1.561 . S
C1043 C1046 1.526 . S
C1044 H1028 0.959 . S
C1044 H1029 0.959 . S
C1044 H1030 0.961 . S
C1044 C1043 1.502 . S
C1045 H1031 0.960 . S
C1045 H1032 0.961 . S
C1045 H1033 0.959 . S
C1045 C1043 1.561 . S
C1046 C1043 1.526 . S
C1046 C1047 1.396 . S
C1046 C1051 1.390 . S
C1047 C1041 1.465 . S
C1047 C1046 1.396 . S
C1047 C1048 1.399 . S
C1048 H1034 0.929 . S
C1048 C1047 1.399 . S
C1048 C1049 1.385 . S
C1049 H1035 0.931 . S
C1049 C1048 1.385 . S
C1049 C1050 1.389 . S
C1050 C1049 1.389 . S
C1050 C1051 1.387 . S
C1051 H1036 0.930 . S
C1051 C1046 1.390 . S
C1051 C1050 1.387 . S
H1052 C1064 0.930 . S
H1053 C1066 0.930 . S
H1054 C1067 0.930 . S
H1055 C1071 0.959 . S
H1056 C1071 0.959 . S
H1057 C1071 0.961 . S
H1058 C1072 0.960 . S
H1059 C1072 0.961 . S
H1060 C1072 0.959 . S
H1061 C1075 0.929 . S
H1062 C1076 0.931 . S
H1063 C1078 0.930 . S
C1064 H1052 0.930 . S
C1064 C1065 1.399 . S
C1064 C1069 1.399 . S
C1065 C1064 1.399 . S
C1065 C1066 1.376 . S
C1066 H1053 0.930 . S
C1066 C1065 1.376 . S
C1066 C1067 1.388 . S
C1067 H1054 0.930 . S
C1067 C1066 1.388 . S
C1067 C1068 1.390 . S
C1068 C1067 1.390 . S
C1068 C1069 1.394 . S
C1068 C1074 1.465 . S
C1069 C1064 1.399 . S
C1069 C1068 1.394 . S
C1069 C1070 1.516 . S
C1070 C1069 1.516 . S
C1070 C1071 1.502 . S
C1070 C1072 1.561 . S
C1070 C1073 1.526 . S
C1071 H1055 0.959 . S
C1071 H1056 0.959 . S
C1071 H1057 0.961 . S
C1071 C1070 1.502 . S
C1072 H1058 0.960 . S
C1072 H1059 0.961 . S
C1072 H1060 0.959 . S
C1072 C1070 1.561 . S
C1073 C1070 1.526 . S
C1073 C1074 1.396 . S
C1073 C1078 1.390 . S
C1074 C1068 1.465 . S
C1074 C1073 1.396 . S
C1074 C1075 1.399 . S
C1075 H1061 0.929 . S
C1075 C1074 1.399 . S
C1075 C1076 1.385 . S
C1076 H1062 0.931 . S
C1076 C1075 1.385 . S
C1076 C1077 1.389 . S
C1077 C1076 1.389 . S
C1077 C1078 1.387 . S
C1078 H1063 0.930 . S
C1078 C1073 1.390 . S
C1078 C1077 1.387 . S
H1079 C1091 0.930 . S
H1080 C1093 0.930 . S
H1081 C1094 0.930 . S
H1082 C1098 0.959 . S
H1083 C1098 0.959 . S
H1084 C1098 0.961 . S
H1085 C1099 0.960 . S
H1086 C1099 0.961 . S
H1087 C1099 0.959 . S
H1088 C1102 0.929 . S
H1089 C1103 0.931 . S
H1090 C1105 0.930 . S
C1091 H1079 0.930 . S
C1091 C1092 1.399 . S
C1091 C1096 1.399 . S
C1092 C1091 1.399 . S
C1092 C1093 1.376 . S
C1093 H1080 0.930 . S
C1093 C1092 1.376 . S
C1093 C1094 1.388 . S
C1094 H1081 0.930 . S
C1094 C1093 1.388 . S
C1094 C1095 1.390 . S
C1095 C1094 1.390 . S
C1095 C1096 1.394 . S
C1095 C1101 1.465 . S
C1096 C1091 1.399 . S
C1096 C1095 1.394 . S
C1096 C1097 1.516 . S
C1097 C1096 1.516 . S
C1097 C1098 1.502 . S
C1097 C1099 1.561 . S
C1097 C1100 1.526 . S
C1098 H1082 0.959 . S
C1098 H1083 0.959 . S
C1098 H1084 0.961 . S
C1098 C1097 1.502 . S
C1099 H1085 0.960 . S
C1099 H1086 0.961 . S
C1099 H1087 0.959 . S
C1099 C1097 1.561 . S
C1100 C1097 1.526 . S
C1100 C1101 1.396 . S
C1100 C1105 1.390 . S
C1101 C1095 1.465 . S
C1101 C1100 1.396 . S
C1101 C1102 1.399 . S
C1102 H1088 0.929 . S
C1102 C1101 1.399 . S
C1102 C1103 1.385 . S
C1103 H1089 0.931 . S
C1103 C1102 1.385 . S
C1103 C1104 1.389 . S
C1104 C1103 1.389 . S
C1104 C1105 1.387 . S
C1105 H1090 0.930 . S
C1105 C1100 1.390 . S
C1105 C1104 1.387 . S
H1106 C1118 0.930 . S
H1107 C1120 0.930 . S
H1108 C1121 0.930 . S
H1109 C1125 0.959 . S
H1110 C1125 0.959 . S
H1111 C1125 0.961 . S
H1112 C1126 0.960 . S
H1113 C1126 0.961 . S
H1114 C1126 0.959 . S
H1115 C1129 0.929 . S
H1116 C1130 0.931 . S
H1117 C1132 0.930 . S
C1118 H1106 0.930 . S
C1118 C1119 1.399 . S
C1118 C1123 1.399 . S
C1119 C1118 1.399 . S
C1119 C1120 1.376 . S
C1120 H1107 0.930 . S
C1120 C1119 1.376 . S
C1120 C1121 1.388 . S
C1121 H1108 0.930 . S
C1121 C1120 1.388 . S
C1121 C1122 1.390 . S
C1122 C1121 1.390 . S
C1122 C1123 1.394 . S
C1122 C1128 1.465 . S
C1123 C1118 1.399 . S
C1123 C1122 1.394 . S
C1123 C1124 1.516 . S
C1124 C1123 1.516 . S
C1124 C1125 1.502 . S
C1124 C1126 1.561 . S
C1124 C1127 1.526 . S
C1125 H1109 0.959 . S
C1125 H1110 0.959 . S
C1125 H1111 0.961 . S
C1125 C1124 1.502 . S
C1126 H1112 0.960 . S
C1126 H1113 0.961 . S
C1126 H1114 0.959 . S
C1126 C1124 1.561 . S
C1127 C1124 1.526 . S
C1127 C1128 1.396 . S
C1127 C1132 1.390 . S
C1128 C1122 1.465 . S
C1128 C1127 1.396 . S
C1128 C1129 1.399 . S
C1129 H1115 0.929 . S
C1129 C1128 1.399 . S
C1129 C1130 1.385 . S
C1130 H1116 0.931 . S
C1130 C1129 1.385 . S
C1130 C1131 1.389 . S
C1131 C1130 1.389 . S
C1131 C1132 1.387 . S
C1132 H1117 0.930 . S
C1132 C1127 1.390 . S
C1132 C1131 1.387 . S
H1133 C1145 0.930 . S
H1134 C1147 0.930 . S
H1135 C1148 0.930 . S
H1136 C1152 0.959 . S
H1137 C1152 0.959 . S
H1138 C1152 0.961 . S
H1139 C1153 0.960 . S
H1140 C1153 0.961 . S
H1141 C1153 0.959 . S
H1142 C1156 0.929 . S
H1143 C1157 0.931 1_455 S
H1144 C1159 0.930 . S
C1145 H1133 0.930 . S
C1145 C1146 1.399 . S
C1145 C1150 1.399 . S
C1146 C1145 1.399 . S
C1146 C1147 1.376 . S
C1147 H1134 0.930 . S
C1147 C1146 1.376 . S
C1147 C1148 1.388 . S
C1148 H1135 0.930 . S
C1148 C1147 1.388 . S
C1148 C1149 1.390 . S
C1149 C1148 1.390 . S
C1149 C1150 1.394 . S
C1149 C1155 1.465 . S
C1150 C1145 1.399 . S
C1150 C1149 1.394 . S
C1150 C1151 1.516 . S
C1151 C1150 1.516 . S
C1151 C1152 1.502 . S
C1151 C1153 1.561 . S
C1151 C1154 1.526 . S
C1152 H1136 0.959 . S
C1152 H1137 0.959 . S
C1152 H1138 0.961 . S
C1152 C1151 1.502 . S
C1153 H1139 0.960 . S
C1153 H1140 0.961 . S
C1153 H1141 0.959 . S
C1153 C1151 1.561 . S
C1154 C1151 1.526 . S
C1154 C1155 1.396 . S
C1154 C1159 1.390 . S
C1155 C1149 1.465 . S
C1155 C1154 1.396 . S
C1155 C1156 1.399 . S
C1156 H1142 0.929 . S
C1156 C1155 1.399 . S
C1156 C1157 1.385 . S
C1157 H1143 0.931 1_655 S
C1157 C1156 1.385 . S
C1157 C1158 1.389 . S
C1158 C1157 1.389 . S
C1158 C1159 1.387 . S
C1159 H1144 0.930 . S
C1159 C1154 1.390 . S
C1159 C1158 1.387 . S
H1160 C1172 0.930 . S
H1161 C1174 0.930 . S
H1162 C1175 0.930 . S
H1163 C1179 0.959 . S
H1164 C1179 0.959 . S
H1165 C1179 0.961 . S
H1166 C1180 0.960 . S
H1167 C1180 0.961 . S
H1168 C1180 0.959 . S
H1169 C1183 0.929 . S
H1170 C1184 0.931 1_545 S
H1171 C1186 0.930 . S
C1172 H1160 0.930 . S
C1172 C1173 1.399 . S
C1172 C1177 1.399 . S
C1173 C1172 1.399 . S
C1173 C1174 1.376 . S
C1174 H1161 0.930 . S
C1174 C1173 1.376 . S
C1174 C1175 1.388 . S
C1175 H1162 0.930 . S
C1175 C1174 1.388 . S
C1175 C1176 1.390 . S
C1176 C1175 1.390 . S
C1176 C1177 1.394 . S
C1176 C1182 1.465 . S
C1177 C1172 1.399 . S
C1177 C1176 1.394 . S
C1177 C1178 1.516 . S
C1178 C1177 1.516 . S
C1178 C1179 1.502 . S
C1178 C1180 1.561 . S
C1178 C1181 1.526 . S
C1179 H1163 0.959 . S
C1179 H1164 0.959 . S
C1179 H1165 0.961 . S
C1179 C1178 1.502 . S
C1180 H1166 0.960 . S
C1180 H1167 0.961 . S
C1180 H1168 0.959 . S
C1180 C1178 1.561 . S
C1181 C1178 1.526 . S
C1181 C1182 1.396 . S
C1181 C1186 1.390 . S
C1182 C1176 1.465 . S
C1182 C1181 1.396 . S
C1182 C1183 1.399 . S
C1183 H1169 0.929 . S
C1183 C1182 1.399 . S
C1183 C1184 1.385 . S
C1184 H1170 0.931 1_565 S
C1184 C1183 1.385 . S
C1184 C1185 1.389 . S
C1185 C1184 1.389 . S
C1185 C1186 1.387 . S
C1186 H1171 0.930 . S
C1186 C1181 1.390 . S
C1186 C1185 1.387 . S
H1187 C1199 0.930 . S
H1188 C1201 0.930 . S
H1189 C1202 0.930 1_545 S
H1190 C1206 0.959 . S
H1191 C1206 0.959 . S
H1192 C1206 0.961 . S
H1193 C1207 0.960 . S
H1194 C1207 0.961 . S
H1195 C1207 0.959 . S
H1196 C1210 0.929 . S
H1197 C1211 0.931 . S
H1198 C1213 0.930 . S
C1199 H1187 0.930 . S
C1199 C1200 1.399 . S
C1199 C1204 1.399 . S
C1200 C1199 1.399 . S
C1200 C1201 1.376 . S
C1201 H1188 0.930 . S
C1201 C1200 1.376 . S
C1201 C1202 1.388 . S
C1202 H1189 0.930 1_565 S
C1202 C1201 1.388 . S
C1202 C1203 1.390 . S
C1203 C1202 1.390 . S
C1203 C1204 1.394 . S
C1203 C1209 1.465 . S
C1204 C1199 1.399 . S
C1204 C1203 1.394 . S
C1204 C1205 1.516 . S
C1205 C1204 1.516 . S
C1205 C1206 1.502 . S
C1205 C1207 1.561 . S
C1205 C1208 1.526 . S
C1206 H1190 0.959 . S
C1206 H1191 0.959 . S
C1206 H1192 0.961 . S
C1206 C1205 1.502 . S
C1207 H1193 0.960 . S
C1207 H1194 0.961 . S
C1207 H1195 0.959 . S
C1207 C1205 1.561 . S
C1208 C1205 1.526 . S
C1208 C1209 1.396 . S
C1208 C1213 1.390 . S
C1209 C1203 1.465 . S
C1209 C1208 1.396 . S
C1209 C1210 1.399 1_565 S
C1210 H1196 0.929 . S
C1210 C1209 1.399 1_545 S
C1210 C1211 1.385 . S
C1211 H1197 0.931 . S
C1211 C1210 1.385 . S
C1211 C1212 1.389 . S
C1212 C1211 1.389 . S
C1212 C1213 1.387 1_545 S
C1213 H1198 0.930 . S
C1213 C1208 1.390 . S
C1213 C1212 1.387 1_565 S
H1214 C1226 0.930 . S
H1215 C1228 0.930 . S
H1216 C1229 0.930 . S
H1217 C1233 0.959 . S
H1218 C1233 0.959 . S
H1219 C1233 0.961 . S
H1220 C1234 0.960 . S
H1221 C1234 0.961 . S
H1222 C1234 0.959 . S
H1223 C1237 0.929 . S
H1224 C1238 0.931 . S
H1225 C1240 0.930 . S
C1226 H1214 0.930 . S
C1226 C1227 1.399 . S
C1226 C1231 1.399 . S
C1227 C1226 1.399 . S
C1227 C1228 1.376 . S
C1228 H1215 0.930 . S
C1228 C1227 1.376 . S
C1228 C1229 1.388 . S
C1229 H1216 0.930 . S
C1229 C1228 1.388 . S
C1229 C1230 1.390 . S
C1230 C1229 1.390 . S
C1230 C1231 1.394 . S
C1230 C1236 1.465 . S
C1231 C1226 1.399 . S
C1231 C1230 1.394 . S
C1231 C1232 1.516 . S
C1232 C1231 1.516 . S
C1232 C1233 1.502 . S
C1232 C1234 1.561 . S
C1232 C1235 1.526 . S
C1233 H1217 0.959 . S
C1233 H1218 0.959 . S
C1233 H1219 0.961 . S
C1233 C1232 1.502 . S
C1234 H1220 0.960 . S
C1234 H1221 0.961 . S
C1234 H1222 0.959 . S
C1234 C1232 1.561 . S
C1235 C1232 1.526 . S
C1235 C1236 1.396 . S
C1235 C1240 1.390 . S
C1236 C1230 1.465 . S
C1236 C1235 1.396 . S
C1236 C1237 1.399 . S
C1237 H1223 0.929 . S
C1237 C1236 1.399 . S
C1237 C1238 1.385 . S
C1238 H1224 0.931 . S
C1238 C1237 1.385 . S
C1238 C1239 1.389 . S
C1239 C1238 1.389 . S
C1239 C1240 1.387 . S
C1240 H1225 0.930 . S
C1240 C1235 1.390 . S
C1240 C1239 1.387 . S
H1241 C1253 0.930 . S
H1242 C1255 0.930 . S
H1243 C1256 0.930 1_565 S
H1244 C1260 0.959 . S
H1245 C1260 0.959 . S
H1246 C1260 0.961 . S
H1247 C1261 0.960 . S
H1248 C1261 0.961 . S
H1249 C1261 0.959 . S
H1250 C1264 0.929 . S
H1251 C1265 0.931 . S
H1252 C1267 0.930 . S
C1253 H1241 0.930 . S
C1253 C1254 1.399 . S
C1253 C1258 1.399 . S
C1254 C1253 1.399 . S
C1254 C1255 1.376 . S
C1255 H1242 0.930 . S
C1255 C1254 1.376 . S
C1255 C1256 1.388 . S
C1256 H1243 0.930 1_545 S
C1256 C1255 1.388 . S
C1256 C1257 1.390 . S
C1257 C1256 1.390 . S
C1257 C1258 1.394 . S
C1257 C1263 1.465 . S
C1258 C1253 1.399 . S
C1258 C1257 1.394 . S
C1258 C1259 1.516 . S
C1259 C1258 1.516 . S
C1259 C1260 1.502 . S
C1259 C1261 1.561 . S
C1259 C1262 1.526 . S
C1260 H1244 0.959 . S
C1260 H1245 0.959 . S
C1260 H1246 0.961 . S
C1260 C1259 1.502 . S
C1261 H1247 0.960 . S
C1261 H1248 0.961 . S
C1261 H1249 0.959 . S
C1261 C1259 1.561 . S
C1262 C1259 1.526 . S
C1262 C1263 1.396 . S
C1262 C1267 1.390 . S
C1263 C1257 1.465 . S
C1263 C1262 1.396 . S
C1263 C1264 1.399 1_545 S
C1264 H1250 0.929 . S
C1264 C1263 1.399 1_565 S
C1264 C1265 1.385 . S
C1265 H1251 0.931 . S
C1265 C1264 1.385 . S
C1265 C1266 1.389 . S
C1266 C1265 1.389 . S
C1266 C1267 1.387 1_565 S
C1267 H1252 0.930 . S
C1267 C1262 1.390 . S
C1267 C1266 1.387 1_545 S
H1268 C1280 0.930 . S
H1269 C1282 0.930 . S
H1270 C1283 0.930 . S
H1271 C1287 0.959 . S
H1272 C1287 0.959 . S
H1273 C1287 0.961 . S
H1274 C1288 0.960 . S
H1275 C1288 0.961 . S
H1276 C1288 0.959 . S
H1277 C1291 0.929 . S
H1278 C1292 0.930 1_565 S
H1279 C1294 0.930 . S
C1280 H1268 0.930 . S
C1280 C1281 1.399 . S
C1280 C1285 1.399 . S
C1281 C1280 1.399 . S
C1281 C1282 1.376 . S
C1282 H1269 0.930 . S
C1282 C1281 1.376 . S
C1282 C1283 1.388 . S
C1283 H1270 0.930 . S
C1283 C1282 1.388 . S
C1283 C1284 1.390 . S
C1284 C1283 1.390 . S
C1284 C1285 1.394 . S
C1284 C1290 1.465 . S
C1285 C1280 1.399 . S
C1285 C1284 1.394 . S
C1285 C1286 1.516 . S
C1286 C1285 1.516 . S
C1286 C1287 1.502 . S
C1286 C1288 1.561 . S
C1286 C1289 1.526 . S
C1287 H1271 0.959 . S
C1287 H1272 0.959 . S
C1287 H1273 0.961 . S
C1287 C1286 1.502 . S
C1288 H1274 0.960 . S
C1288 H1275 0.961 . S
C1288 H1276 0.959 . S
C1288 C1286 1.561 . S
C1289 C1286 1.526 . S
C1289 C1290 1.396 . S
C1289 C1294 1.390 . S
C1290 C1284 1.465 . S
C1290 C1289 1.396 . S
C1290 C1291 1.399 . S
C1291 H1277 0.929 . S
C1291 C1290 1.399 . S
C1291 C1292 1.385 . S
C1292 H1278 0.930 1_545 S
C1292 C1291 1.385 . S
C1292 C1293 1.389 . S
C1293 C1292 1.389 . S
C1293 C1294 1.387 . S
C1294 H1279 0.930 . S
C1294 C1289 1.390 . S
C1294 C1293 1.387 . S
H1295 C1307 0.930 . S
H1296 C1309 0.930 1_655 S
H1297 C1310 0.930 . S
H1298 C1314 0.959 1_545 S
H1299 C1314 0.959 . S
H1300 C1314 0.961 . S
H1301 C1315 0.960 . S
H1302 C1315 0.961 . S
H1303 C1315 0.959 . S
H1304 C1318 0.929 . S
H1305 C1319 0.931 . S
H1306 C1321 0.930 . S
C1307 H1295 0.930 . S
C1307 C1308 1.399 . S
C1307 C1312 1.399 1_565 S
C1308 C1307 1.399 . S
C1308 C1309 1.376 1_565 S
C1309 H1296 0.930 1_455 S
C1309 C1308 1.376 1_545 S
C1309 C1310 1.388 . S
C1310 H1297 0.930 . S
C1310 C1309 1.388 . S
C1310 C1311 1.390 . S
C1311 C1310 1.390 . S
C1311 C1312 1.394 . S
C1311 C1317 1.465 . S
C1312 C1307 1.399 1_545 S
C1312 C1311 1.394 . S
C1312 C1313 1.516 1_545 S
C1313 C1312 1.516 1_565 S
C1313 C1314 1.502 . S
C1313 C1315 1.561 . S
C1313 C1316 1.526 1_565 S
C1314 H1298 0.959 1_565 S
C1314 H1299 0.959 . S
C1314 H1300 0.961 . S
C1314 C1313 1.502 . S
C1315 H1301 0.960 . S
C1315 H1302 0.961 . S
C1315 H1303 0.959 . S
C1315 C1313 1.561 . S
C1316 C1313 1.526 1_545 S
C1316 C1317 1.396 . S
C1316 C1321 1.390 . S
C1317 C1311 1.465 . S
C1317 C1316 1.396 . S
C1317 C1318 1.399 . S
C1318 H1304 0.929 . S
C1318 C1317 1.399 . S
C1318 C1319 1.385 . S
C1319 H1305 0.931 . S
C1319 C1318 1.385 . S
C1319 C1320 1.389 . S
C1320 C1319 1.389 . S
C1320 C1321 1.387 . S
C1321 H1306 0.930 . S
C1321 C1316 1.390 . S
C1321 C1320 1.387 . S
H1322 C1334 0.930 . S
H1323 C1336 0.930 . S
H1324 C1337 0.930 . S
H1325 C1341 0.959 . S
H1326 C1341 0.959 . S
H1327 C1341 0.961 . S
H1328 C1342 0.960 . S
H1329 C1342 0.961 . S
H1330 C1342 0.959 . S
H1331 C1345 0.929 . S
H1332 C1346 0.931 . S
H1333 C1348 0.930 . S
C1334 H1322 0.930 . S
C1334 C1335 1.399 . S
C1334 C1339 1.399 . S
C1335 C1334 1.399 . S
C1335 C1336 1.376 . S
C1336 H1323 0.930 . S
C1336 C1335 1.376 . S
C1336 C1337 1.388 . S
C1337 H1324 0.930 . S
C1337 C1336 1.388 . S
C1337 C1338 1.390 . S
C1338 C1337 1.390 . S
C1338 C1339 1.394 . S
C1338 C1344 1.465 . S
C1339 C1334 1.399 . S
C1339 C1338 1.394 . S
C1339 C1340 1.516 . S
C1340 C1339 1.516 . S
C1340 C1341 1.502 . S
C1340 C1342 1.561 . S
C1340 C1343 1.526 . S
C1341 H1325 0.959 . S
C1341 H1326 0.959 . S
C1341 H1327 0.961 . S
C1341 C1340 1.502 . S
C1342 H1328 0.960 . S
C1342 H1329 0.961 . S
C1342 H1330 0.959 . S
C1342 C1340 1.561 . S
C1343 C1340 1.526 . S
C1343 C1344 1.396 . S
C1343 C1348 1.390 . S
C1344 C1338 1.465 . S
C1344 C1343 1.396 . S
C1344 C1345 1.399 . S
C1345 H1331 0.929 . S
C1345 C1344 1.399 . S
C1345 C1346 1.385 . S
C1346 H1332 0.931 . S
C1346 C1345 1.385 . S
C1346 C1347 1.389 . S
C1347 C1346 1.389 . S
C1347 C1348 1.387 . S
C1348 H1333 0.930 . S
C1348 C1343 1.390 . S
C1348 C1347 1.387 . S
H1349 C1361 0.930 . S
H1350 C1363 0.930 . S
H1351 C1364 0.930 . S
H1352 C1368 0.959 . S
H1353 C1368 0.959 . S
H1354 C1368 0.961 . S
H1355 C1369 0.960 . S
H1356 C1369 0.961 . S
H1357 C1369 0.959 . S
H1358 C1372 0.929 . S
H1359 C1373 0.931 . S
H1360 C1375 0.930 . S
C1361 H1349 0.930 . S
C1361 C1362 1.399 . S
C1361 C1366 1.399 1_545 S
C1362 C1361 1.399 . S
C1362 C1363 1.376 1_545 S
C1363 H1350 0.930 . S
C1363 C1362 1.376 1_565 S
C1363 C1364 1.388 . S
C1364 H1351 0.930 . S
C1364 C1363 1.388 . S
C1364 C1365 1.390 . S
C1365 C1364 1.390 . S
C1365 C1366 1.394 . S
C1365 C1371 1.465 . S
C1366 C1361 1.399 1_565 S
C1366 C1365 1.394 . S
C1366 C1367 1.516 . S
C1367 C1366 1.516 . S
C1367 C1368 1.502 1_565 S
C1367 C1369 1.561 . S
C1367 C1370 1.526 . S
C1368 H1352 0.959 . S
C1368 H1353 0.959 . S
C1368 H1354 0.961 . S
C1368 C1367 1.502 1_545 S
C1369 H1355 0.960 . S
C1369 H1356 0.961 . S
C1369 H1357 0.959 . S
C1369 C1367 1.561 . S
C1370 C1367 1.526 . S
C1370 C1371 1.396 . S
C1370 C1375 1.390 . S
C1371 C1365 1.465 . S
C1371 C1370 1.396 . S
C1371 C1372 1.399 . S
C1372 H1358 0.929 . S
C1372 C1371 1.399 . S
C1372 C1373 1.385 . S
C1373 H1359 0.931 . S
C1373 C1372 1.385 . S
C1373 C1374 1.389 . S
C1374 C1373 1.389 . S
C1374 C1375 1.387 . S
C1375 H1360 0.930 . S
C1375 C1370 1.390 . S
C1375 C1374 1.387 . S
H1376 C1388 0.930 . S
H1377 C1390 0.930 . S
H1378 C1391 0.930 . S
H1379 C1395 0.959 . S
H1380 C1395 0.959 . S
H1381 C1395 0.961 . S
H1382 C1396 0.960 . S
H1383 C1396 0.961 . S
H1384 C1396 0.959 . S
H1385 C1399 0.929 . S
H1386 C1400 0.931 . S
H1387 C1402 0.930 . S
C1388 H1376 0.930 . S
C1388 C1389 1.399 . S
C1388 C1393 1.399 . S
C1389 C1388 1.399 . S
C1389 C1390 1.376 . S
C1390 H1377 0.930 . S
C1390 C1389 1.376 . S
C1390 C1391 1.388 . S
C1391 H1378 0.930 . S
C1391 C1390 1.388 . S
C1391 C1392 1.390 . S
C1392 C1391 1.390 . S
C1392 C1393 1.394 . S
C1392 C1398 1.465 . S
C1393 C1388 1.399 . S
C1393 C1392 1.394 . S
C1393 C1394 1.516 . S
C1394 C1393 1.516 . S
C1394 C1395 1.502 . S
C1394 C1396 1.561 . S
C1394 C1397 1.526 . S
C1395 H1379 0.959 . S
C1395 H1380 0.959 . S
C1395 H1381 0.961 . S
C1395 C1394 1.502 . S
C1396 H1382 0.960 . S
C1396 H1383 0.961 . S
C1396 H1384 0.959 . S
C1396 C1394 1.561 . S
C1397 C1394 1.526 . S
C1397 C1398 1.396 . S
C1397 C1402 1.390 . S
C1398 C1392 1.465 . S
C1398 C1397 1.396 . S
C1398 C1399 1.399 . S
C1399 H1385 0.929 . S
C1399 C1398 1.399 . S
C1399 C1400 1.385 . S
C1400 H1386 0.931 . S
C1400 C1399 1.385 . S
C1400 C1401 1.389 . S
C1401 C1400 1.389 . S
C1401 C1402 1.387 . S
C1402 H1387 0.930 . S
C1402 C1397 1.390 . S
C1402 C1401 1.387 . S
H1403 C1415 0.930 . S
H1404 C1417 0.930 . S
H1405 C1418 0.930 . S
H1406 C1422 0.959 . S
H1407 C1422 0.959 . S
H1408 C1422 0.961 . S
H1409 C1423 0.960 . S
H1410 C1423 0.961 . S
H1411 C1423 0.959 . S
H1412 C1426 0.929 . S
H1413 C1427 0.931 . S
H1414 C1429 0.930 . S
C1415 H1403 0.930 . S
C1415 C1416 1.399 . S
C1415 C1420 1.399 . S
C1416 C1415 1.399 . S
C1416 C1417 1.376 . S
C1417 H1404 0.930 . S
C1417 C1416 1.376 . S
C1417 C1418 1.388 . S
C1418 H1405 0.930 . S
C1418 C1417 1.388 . S
C1418 C1419 1.390 . S
C1419 C1418 1.390 . S
C1419 C1420 1.394 . S
C1419 C1425 1.465 . S
C1420 C1415 1.399 . S
C1420 C1419 1.394 . S
C1420 C1421 1.516 . S
C1421 C1420 1.516 . S
C1421 C1422 1.502 . S
C1421 C1423 1.561 . S
C1421 C1424 1.526 . S
C1422 H1406 0.959 . S
C1422 H1407 0.959 . S
C1422 H1408 0.961 . S
C1422 C1421 1.502 . S
C1423 H1409 0.960 . S
C1423 H1410 0.961 . S
C1423 H1411 0.959 . S
C1423 C1421 1.561 . S
C1424 C1421 1.526 . S
C1424 C1425 1.396 . S
C1424 C1429 1.390 . S
C1425 C1419 1.465 . S
C1425 C1424 1.396 . S
C1425 C1426 1.399 . S
C1426 H1412 0.929 . S
C1426 C1425 1.399 . S
C1426 C1427 1.385 . S
C1427 H1413 0.931 . S
C1427 C1426 1.385 . S
C1427 C1428 1.389 . S
C1428 C1427 1.389 . S
C1428 C1429 1.387 . S
C1429 H1414 0.930 . S
C1429 C1424 1.390 . S
C1429 C1428 1.387 . S
H1430 C1442 0.930 . S
H1431 C1444 0.930 . S
H1432 C1445 0.930 . S
H1433 C1449 0.959 . S
H1434 C1449 0.959 . S
H1435 C1449 0.961 . S
H1436 C1450 0.960 . S
H1437 C1450 0.961 . S
H1438 C1450 0.959 . S
H1439 C1453 0.929 . S
H1440 C1454 0.931 . S
H1441 C1456 0.930 . S
C1442 H1430 0.930 . S
C1442 C1443 1.399 . S
C1442 C1447 1.399 . S
C1443 C1442 1.399 . S
C1443 C1444 1.376 . S
C1444 H1431 0.930 . S
C1444 C1443 1.376 . S
C1444 C1445 1.388 . S
C1445 H1432 0.930 . S
C1445 C1444 1.388 . S
C1445 C1446 1.390 . S
C1446 C1445 1.390 . S
C1446 C1447 1.394 . S
C1446 C1452 1.465 . S
C1447 C1442 1.399 . S
C1447 C1446 1.394 . S
C1447 C1448 1.516 . S
C1448 C1447 1.516 . S
C1448 C1449 1.502 . S
C1448 C1450 1.561 . S
C1448 C1451 1.526 . S
C1449 H1433 0.959 . S
C1449 H1434 0.959 . S
C1449 H1435 0.961 . S
C1449 C1448 1.502 . S
C1450 H1436 0.960 . S
C1450 H1437 0.961 . S
C1450 H1438 0.959 . S
C1450 C1448 1.561 . S
C1451 C1448 1.526 . S
C1451 C1452 1.396 . S
C1451 C1456 1.390 . S
C1452 C1446 1.465 . S
C1452 C1451 1.396 . S
C1452 C1453 1.399 . S
C1453 H1439 0.929 . S
C1453 C1452 1.399 . S
C1453 C1454 1.385 . S
C1454 H1440 0.931 . S
C1454 C1453 1.385 . S
C1454 C1455 1.389 . S
C1455 C1454 1.389 . S
C1455 C1456 1.387 . S
C1456 H1441 0.930 . S
C1456 C1451 1.390 . S
C1456 C1455 1.387 . S
H1457 C1469 0.930 . S
H1458 C1471 0.930 . S
H1459 C1472 0.930 . S
H1460 C1476 0.959 1_455 S
H1461 C1476 0.959 1_455 S
H1462 C1476 0.961 . S
H1463 C1477 0.960 . S
H1464 C1477 0.961 . S
H1465 C1477 0.959 . S
H1466 C1480 0.929 . S
H1467 C1481 0.931 . S
H1468 C1483 0.930 . S
C1469 H1457 0.930 . S
C1469 C1470 1.399 . S
C1469 C1474 1.399 . S
C1470 C1469 1.399 . S
C1470 C1471 1.376 . S
C1471 H1458 0.930 . S
C1471 C1470 1.376 . S
C1471 C1472 1.388 . S
C1472 H1459 0.930 . S
C1472 C1471 1.388 . S
C1472 C1473 1.390 . S
C1473 C1472 1.390 . S
C1473 C1474 1.394 . S
C1473 C1479 1.465 . S
C1474 C1469 1.399 . S
C1474 C1473 1.394 . S
C1474 C1475 1.516 . S
C1475 C1474 1.516 . S
C1475 C1476 1.502 . S
C1475 C1477 1.561 . S
C1475 C1478 1.526 . S
C1476 H1460 0.959 1_655 S
C1476 H1461 0.959 1_655 S
C1476 H1462 0.961 . S
C1476 C1475 1.502 . S
C1477 H1463 0.960 . S
C1477 H1464 0.961 . S
C1477 H1465 0.959 . S
C1477 C1475 1.561 . S
C1478 C1475 1.526 . S
C1478 C1479 1.396 . S
C1478 C1483 1.390 . S
C1479 C1473 1.465 . S
C1479 C1478 1.396 . S
C1479 C1480 1.399 . S
C1480 H1466 0.929 . S
C1480 C1479 1.399 . S
C1480 C1481 1.385 . S
C1481 H1467 0.931 . S
C1481 C1480 1.385 . S
C1481 C1482 1.389 . S
C1482 C1481 1.389 . S
C1482 C1483 1.387 . S
C1483 H1468 0.930 . S
C1483 C1478 1.390 . S
C1483 C1482 1.387 . S
H1484 C1496 0.930 . S
H1485 C1498 0.930 . S
H1486 C1499 0.930 . S
H1487 C1503 0.959 . S
H1488 C1503 0.959 . S
H1489 C1503 0.961 . S
H1490 C1504 0.960 . S
H1491 C1504 0.961 . S
H1492 C1504 0.959 . S
H1493 C1507 0.929 . S
H1494 C1508 0.931 1_556 S
H1495 C1510 0.930 . S
C1496 H1484 0.930 . S
C1496 C1497 1.399 . S
C1496 C1501 1.399 . S
C1497 C1496 1.399 . S
C1497 C1498 1.376 . S
C1498 H1485 0.930 . S
C1498 C1497 1.376 . S
C1498 C1499 1.388 . S
C1499 H1486 0.930 . S
C1499 C1498 1.388 . S
C1499 C1500 1.390 . S
C1500 C1499 1.390 . S
C1500 C1501 1.394 . S
C1500 C1506 1.465 . S
C1501 C1496 1.399 . S
C1501 C1500 1.394 . S
C1501 C1502 1.516 . S
C1502 C1501 1.516 . S
C1502 C1503 1.502 . S
C1502 C1504 1.561 . S
C1502 C1505 1.526 . S
C1503 H1487 0.959 . S
C1503 H1488 0.959 . S
C1503 H1489 0.961 . S
C1503 C1502 1.502 . S
C1504 H1490 0.960 . S
C1504 H1491 0.961 . S
C1504 H1492 0.959 . S
C1504 C1502 1.561 . S
C1505 C1502 1.526 . S
C1505 C1506 1.396 . S
C1505 C1510 1.390 . S
C1506 C1500 1.465 . S
C1506 C1505 1.396 . S
C1506 C1507 1.399 . S
C1507 H1493 0.929 . S
C1507 C1506 1.399 . S
C1507 C1508 1.385 . S
C1508 H1494 0.931 1_554 S
C1508 C1507 1.385 . S
C1508 C1509 1.389 . S
C1509 C1508 1.389 . S
C1509 C1510 1.387 . S
C1510 H1495 0.930 . S
C1510 C1505 1.390 . S
C1510 C1509 1.387 . S
H1511 C1523 0.930 . S
H1512 C1525 0.930 . S
H1513 C1526 0.930 . S
H1514 C1530 0.959 . S
H1515 C1530 0.959 . S
H1516 C1530 0.961 . S
H1517 C1531 0.960 . S
H1518 C1531 0.961 . S
H1519 C1531 0.959 . S
H1520 C1534 0.929 . S
H1521 C1535 0.931 . S
H1522 C1537 0.930 . S
C1523 H1511 0.930 . S
C1523 C1524 1.399 . S
C1523 C1528 1.399 . S
C1524 C1523 1.399 . S
C1524 C1525 1.376 . S
C1525 H1512 0.930 . S
C1525 C1524 1.376 . S
C1525 C1526 1.388 . S
C1526 H1513 0.930 . S
C1526 C1525 1.388 . S
C1526 C1527 1.390 . S
C1527 C1526 1.390 . S
C1527 C1528 1.394 . S
C1527 C1533 1.465 . S
C1528 C1523 1.399 . S
C1528 C1527 1.394 . S
C1528 C1529 1.516 . S
C1529 C1528 1.516 . S
C1529 C1530 1.502 . S
C1529 C1531 1.561 . S
C1529 C1532 1.526 . S
C1530 H1514 0.959 . S
C1530 H1515 0.959 . S
C1530 H1516 0.961 . S
C1530 C1529 1.502 . S
C1531 H1517 0.960 . S
C1531 H1518 0.961 . S
C1531 H1519 0.959 . S
C1531 C1529 1.561 . S
C1532 C1529 1.526 . S
C1532 C1533 1.396 . S
C1532 C1537 1.390 . S
C1533 C1527 1.465 . S
C1533 C1532 1.396 . S
C1533 C1534 1.399 . S
C1534 H1520 0.929 . S
C1534 C1533 1.399 . S
C1534 C1535 1.385 . S
C1535 H1521 0.931 . S
C1535 C1534 1.385 . S
C1535 C1536 1.389 . S
C1536 C1535 1.389 . S
C1536 C1537 1.387 . S
C1537 H1522 0.930 . S
C1537 C1532 1.390 . S
C1537 C1536 1.387 . S
H1538 C1550 0.930 . S
H1539 C1552 0.930 . S
H1540 C1553 0.930 . S
H1541 C1557 0.959 . S
H1542 C1557 0.959 . S
H1543 C1557 0.961 . S
H1544 C1558 0.960 . S
H1545 C1558 0.961 . S
H1546 C1558 0.959 . S
H1547 C1561 0.929 . S
H1548 C1562 0.931 . S
H1549 C1564 0.930 . S
C1550 H1538 0.930 . S
C1550 C1551 1.399 . S
C1550 C1555 1.399 . S
C1551 C1550 1.399 . S
C1551 C1552 1.376 . S
C1552 H1539 0.930 . S
C1552 C1551 1.376 . S
C1552 C1553 1.388 . S
C1553 H1540 0.930 . S
C1553 C1552 1.388 . S
C1553 C1554 1.390 . S
C1554 C1553 1.390 . S
C1554 C1555 1.394 . S
C1554 C1560 1.465 . S
C1555 C1550 1.399 . S
C1555 C1554 1.394 . S
C1555 C1556 1.516 . S
C1556 C1555 1.516 . S
C1556 C1557 1.502 . S
C1556 C1558 1.561 . S
C1556 C1559 1.526 . S
C1557 H1541 0.959 . S
C1557 H1542 0.959 . S
C1557 H1543 0.961 . S
C1557 C1556 1.502 . S
C1558 H1544 0.960 . S
C1558 H1545 0.961 . S
C1558 H1546 0.959 . S
C1558 C1556 1.561 . S
C1559 C1556 1.526 . S
C1559 C1560 1.396 . S
C1559 C1564 1.390 . S
C1560 C1554 1.465 . S
C1560 C1559 1.396 . S
C1560 C1561 1.399 . S
C1561 H1547 0.929 . S
C1561 C1560 1.399 . S
C1561 C1562 1.385 . S
C1562 H1548 0.931 . S
C1562 C1561 1.385 . S
C1562 C1563 1.389 . S
C1563 C1562 1.389 . S
C1563 C1564 1.387 . S
C1564 H1549 0.930 . S
C1564 C1559 1.390 . S
C1564 C1563 1.387 . S
H1565 C1577 0.930 . S
H1566 C1579 0.930 . S
H1567 C1580 0.930 . S
H1568 C1584 0.959 1_655 S
H1569 C1584 0.959 . S
H1570 C1584 0.961 . S
H1571 C1585 0.960 . S
H1572 C1585 0.961 . S
H1573 C1585 0.959 . S
H1574 C1588 0.929 . S
H1575 C1589 0.931 . S
H1576 C1591 0.930 . S
C1577 H1565 0.930 . S
C1577 C1578 1.399 . S
C1577 C1582 1.399 . S
C1578 C1577 1.399 . S
C1578 C1579 1.376 . S
C1579 H1566 0.930 . S
C1579 C1578 1.376 . S
C1579 C1580 1.388 . S
C1580 H1567 0.930 . S
C1580 C1579 1.388 . S
C1580 C1581 1.390 . S
C1581 C1580 1.390 . S
C1581 C1582 1.394 . S
C1581 C1587 1.465 . S
C1582 C1577 1.399 . S
C1582 C1581 1.394 . S
C1582 C1583 1.516 . S
C1583 C1582 1.516 . S
C1583 C1584 1.502 . S
C1583 C1585 1.561 . S
C1583 C1586 1.526 . S
C1584 H1568 0.959 1_455 S
C1584 H1569 0.959 . S
C1584 H1570 0.961 . S
C1584 C1583 1.502 . S
C1585 H1571 0.960 . S
C1585 H1572 0.961 . S
C1585 H1573 0.959 . S
C1585 C1583 1.561 . S
C1586 C1583 1.526 . S
C1586 C1587 1.396 . S
C1586 C1591 1.390 . S
C1587 C1581 1.465 . S
C1587 C1586 1.396 . S
C1587 C1588 1.399 . S
C1588 H1574 0.929 . S
C1588 C1587 1.399 . S
C1588 C1589 1.385 . S
C1589 H1575 0.931 . S
C1589 C1588 1.385 . S
C1589 C1590 1.389 . S
C1590 C1589 1.389 . S
C1590 C1591 1.387 . S
C1591 H1576 0.930 . S
C1591 C1586 1.390 . S
C1591 C1590 1.387 . S
H1592 C1604 0.930 . S
H1593 C1606 0.930 . S
H1594 C1607 0.930 . S
H1595 C1611 0.959 . S
H1596 C1611 0.959 . S
H1597 C1611 0.961 . S
H1598 C1612 0.960 . S
H1599 C1612 0.961 . S
H1600 C1612 0.959 . S
H1601 C1615 0.929 . S
H1602 C1616 0.931 . S
H1603 C1618 0.930 . S
C1604 H1592 0.930 . S
C1604 C1605 1.399 . S
C1604 C1609 1.399 . S
C1605 C1604 1.399 . S
C1605 C1606 1.376 . S
C1606 H1593 0.930 . S
C1606 C1605 1.376 . S
C1606 C1607 1.388 . S
C1607 H1594 0.930 . S
C1607 C1606 1.388 . S
C1607 C1608 1.390 . S
C1608 C1607 1.390 . S
C1608 C1609 1.394 . S
C1608 C1614 1.465 . S
C1609 C1604 1.399 . S
C1609 C1608 1.394 . S
C1609 C1610 1.516 . S
C1610 C1609 1.516 . S
C1610 C1611 1.502 . S
C1610 C1612 1.561 . S
C1610 C1613 1.526 . S
C1611 H1595 0.959 . S
C1611 H1596 0.959 . S
C1611 H1597 0.961 . S
C1611 C1610 1.502 . S
C1612 H1598 0.960 . S
C1612 H1599 0.961 . S
C1612 H1600 0.959 . S
C1612 C1610 1.561 . S
C1613 C1610 1.526 . S
C1613 C1614 1.396 . S
C1613 C1618 1.390 . S
C1614 C1608 1.465 . S
C1614 C1613 1.396 . S
C1614 C1615 1.399 . S
C1615 H1601 0.929 . S
C1615 C1614 1.399 . S
C1615 C1616 1.385 . S
C1616 H1602 0.931 . S
C1616 C1615 1.385 . S
C1616 C1617 1.389 . S
C1617 C1616 1.389 . S
C1617 C1618 1.387 . S
C1618 H1603 0.930 . S
C1618 C1613 1.390 . S
C1618 C1617 1.387 . S
H1619 C1631 0.930 . S
H1620 C1633 0.930 . S
H1621 C1634 0.930 1_545 S
H1622 C1638 0.959 1_655 S
H1623 C1638 0.959 . S
H1624 C1638 0.961 . S
H1625 C1639 0.960 . S
H1626 C1639 0.961 . S
H1627 C1639 0.959 . S
H1628 C1642 0.929 . S
H1629 C1643 0.931 . S
H1630 C1645 0.930 . S
C1631 H1619 0.930 . S
C1631 C1632 1.399 . S
C1631 C1636 1.399 . S
C1632 C1631 1.399 . S
C1632 C1633 1.376 . S
C1633 H1620 0.930 . S
C1633 C1632 1.376 . S
C1633 C1634 1.388 . S
C1634 H1621 0.930 1_565 S
C1634 C1633 1.388 . S
C1634 C1635 1.390 . S
C1635 C1634 1.390 . S
C1635 C1636 1.394 . S
C1635 C1641 1.465 . S
C1636 C1631 1.399 . S
C1636 C1635 1.394 . S
C1636 C1637 1.516 . S
C1637 C1636 1.516 . S
C1637 C1638 1.502 . S
C1637 C1639 1.561 . S
C1637 C1640 1.526 . S
C1638 H1622 0.959 1_455 S
C1638 H1623 0.959 . S
C1638 H1624 0.961 . S
C1638 C1637 1.502 . S
C1639 H1625 0.960 . S
C1639 H1626 0.961 . S
C1639 H1627 0.959 . S
C1639 C1637 1.561 . S
C1640 C1637 1.526 . S
C1640 C1641 1.396 . S
C1640 C1645 1.390 . S
C1641 C1635 1.465 . S
C1641 C1640 1.396 . S
C1641 C1642 1.399 1_565 S
C1642 H1628 0.929 . S
C1642 C1641 1.399 1_545 S
C1642 C1643 1.385 . S
C1643 H1629 0.931 . S
C1643 C1642 1.385 . S
C1643 C1644 1.389 . S
C1644 C1643 1.389 . S
C1644 C1645 1.387 1_545 S
C1645 H1630 0.930 . S
C1645 C1640 1.390 . S
C1645 C1644 1.387 1_565 S
H1646 C1658 0.930 . S
H1647 C1660 0.930 . S
H1648 C1661 0.930 . S
H1649 C1665 0.959 . S
H1650 C1665 0.959 . S
H1651 C1665 0.961 . S
H1652 C1666 0.960 . S
H1653 C1666 0.961 . S
H1654 C1666 0.959 . S
H1655 C1669 0.929 . S
H1656 C1670 0.931 1_554 S
H1657 C1672 0.930 . S
C1658 H1646 0.930 . S
C1658 C1659 1.399 . S
C1658 C1663 1.399 . S
C1659 C1658 1.399 . S
C1659 C1660 1.376 . S
C1660 H1647 0.930 . S
C1660 C1659 1.376 . S
C1660 C1661 1.388 . S
C1661 H1648 0.930 . S
C1661 C1660 1.388 . S
C1661 C1662 1.390 . S
C1662 C1661 1.390 . S
C1662 C1663 1.394 . S
C1662 C1668 1.465 . S
C1663 C1658 1.399 . S
C1663 C1662 1.394 . S
C1663 C1664 1.516 . S
C1664 C1663 1.516 . S
C1664 C1665 1.502 . S
C1664 C1666 1.561 . S
C1664 C1667 1.526 . S
C1665 H1649 0.959 . S
C1665 H1650 0.959 . S
C1665 H1651 0.961 . S
C1665 C1664 1.502 . S
C1666 H1652 0.960 . S
C1666 H1653 0.961 . S
C1666 H1654 0.959 . S
C1666 C1664 1.561 . S
C1667 C1664 1.526 . S
C1667 C1668 1.396 . S
C1667 C1672 1.390 . S
C1668 C1662 1.465 . S
C1668 C1667 1.396 . S
C1668 C1669 1.399 . S
C1669 H1655 0.929 . S
C1669 C1668 1.399 . S
C1669 C1670 1.385 . S
C1670 H1656 0.931 1_556 S
C1670 C1669 1.385 . S
C1670 C1671 1.389 . S
C1671 C1670 1.389 . S
C1671 C1672 1.387 . S
C1672 H1657 0.930 . S
C1672 C1667 1.390 . S
C1672 C1671 1.387 . S
H1673 C1685 0.930 . S
H1674 C1687 0.928 1_565 S
H1675 C1688 0.930 . S
H1676 C1692 0.959 . S
H1677 C1692 0.959 . S
H1678 C1692 0.961 . S
H1679 C1693 0.960 . S
H1680 C1693 0.961 . S
H1681 C1693 0.959 . S
H1682 C1696 0.929 . S
H1683 C1697 0.931 . S
H1684 C1699 0.930 . S
C1685 H1673 0.930 . S
C1685 C1686 1.399 . S
C1685 C1690 1.399 1_565 S
C1686 C1685 1.399 . S
C1686 C1687 1.370 1_565 S
C1687 H1674 0.928 1_545 S
C1687 C1686 1.370 1_545 S
C1687 C1688 1.397 . S
C1688 H1675 0.930 . S
C1688 C1687 1.397 . S
C1688 C1689 1.390 . S
C1689 C1688 1.390 . S
C1689 C1690 1.394 . S
C1689 C1695 1.465 . S
C1690 C1685 1.399 1_545 S
C1690 C1689 1.394 . S
C1690 C1691 1.516 . S
C1691 C1690 1.516 . S
C1691 C1692 1.502 . S
C1691 C1693 1.561 1_545 S
C1691 C1694 1.526 . S
C1692 H1676 0.959 . S
C1692 H1677 0.959 . S
C1692 H1678 0.961 . S
C1692 C1691 1.502 . S
C1693 H1679 0.960 . S
C1693 H1680 0.961 . S
C1693 H1681 0.959 . S
C1693 C1691 1.561 1_565 S
C1694 C1691 1.526 . S
C1694 C1695 1.396 . S
C1694 C1699 1.390 . S
C1695 C1689 1.465 . S
C1695 C1694 1.396 . S
C1695 C1696 1.399 . S
C1696 H1682 0.929 . S
C1696 C1695 1.399 . S
C1696 C1697 1.385 . S
C1697 H1683 0.931 . S
C1697 C1696 1.385 . S
C1697 C1698 1.389 . S
C1698 C1697 1.389 . S
C1698 C1699 1.387 . S
C1699 H1684 0.930 . S
C1699 C1694 1.390 . S
C1699 C1698 1.387 . S
H1700 C1712 0.930 . S
H1701 C1714 0.930 . S
H1702 C1715 0.930 . S
H1703 C1719 0.959 . S
H1704 C1719 0.959 . S
H1705 C1719 0.961 . S
H1706 C1720 0.960 . S
H1707 C1720 0.961 . S
H1708 C1720 0.959 . S
H1709 C1723 0.929 . S
H1710 C1724 0.931 . S
H1711 C1726 0.930 . S
C1712 H1700 0.930 . S
C1712 C1713 1.399 . S
C1712 C1717 1.399 . S
C1713 C1712 1.399 . S
C1713 C1714 1.376 . S
C1714 H1701 0.930 . S
C1714 C1713 1.376 . S
C1714 C1715 1.388 . S
C1715 H1702 0.930 . S
C1715 C1714 1.388 . S
C1715 C1716 1.390 . S
C1716 C1715 1.390 . S
C1716 C1717 1.394 . S
C1716 C1722 1.465 . S
C1717 C1712 1.399 . S
C1717 C1716 1.394 . S
C1717 C1718 1.516 . S
C1718 C1717 1.516 . S
C1718 C1719 1.502 . S
C1718 C1720 1.561 . S
C1718 C1721 1.526 . S
C1719 H1703 0.959 . S
C1719 H1704 0.959 . S
C1719 H1705 0.961 . S
C1719 C1718 1.502 . S
C1720 H1706 0.960 . S
C1720 H1707 0.961 . S
C1720 H1708 0.959 . S
C1720 C1718 1.561 . S
C1721 C1718 1.526 . S
C1721 C1722 1.396 . S
C1721 C1726 1.390 . S
C1722 C1716 1.465 . S
C1722 C1721 1.396 . S
C1722 C1723 1.399 . S
C1723 H1709 0.929 . S
C1723 C1722 1.399 . S
C1723 C1724 1.385 . S
C1724 H1710 0.931 . S
C1724 C1723 1.385 . S
C1724 C1725 1.389 . S
C1725 C1724 1.389 . S
C1725 C1726 1.387 . S
C1726 H1711 0.930 . S
C1726 C1721 1.390 . S
C1726 C1725 1.387 . S
H1727 C1739 0.930 . S
H1728 C1741 0.930 . S
H1729 C1742 0.930 1_565 S
H1730 C1746 0.959 . S
H1731 C1746 0.959 . S
H1732 C1746 0.961 . S
H1733 C1747 0.960 . S
H1734 C1747 0.961 . S
H1735 C1747 0.959 . S
H1736 C1750 0.929 . S
H1737 C1751 0.931 . S
H1738 C1753 0.930 . S
C1739 H1727 0.930 . S
C1739 C1740 1.399 . S
C1739 C1744 1.399 . S
C1740 C1739 1.399 . S
C1740 C1741 1.376 . S
C1741 H1728 0.930 . S
C1741 C1740 1.376 . S
C1741 C1742 1.388 . S
C1742 H1729 0.930 1_545 S
C1742 C1741 1.388 . S
C1742 C1743 1.390 . S
C1743 C1742 1.390 . S
C1743 C1744 1.394 . S
C1743 C1749 1.465 . S
C1744 C1739 1.399 . S
C1744 C1743 1.394 . S
C1744 C1745 1.516 . S
C1745 C1744 1.516 . S
C1745 C1746 1.502 . S
C1745 C1747 1.561 . S
C1745 C1748 1.526 . S
C1746 H1730 0.959 . S
C1746 H1731 0.959 . S
C1746 H1732 0.961 . S
C1746 C1745 1.502 . S
C1747 H1733 0.960 . S
C1747 H1734 0.961 . S
C1747 H1735 0.959 . S
C1747 C1745 1.561 . S
C1748 C1745 1.526 . S
C1748 C1749 1.396 . S
C1748 C1753 1.390 . S
C1749 C1743 1.465 . S
C1749 C1748 1.396 . S
C1749 C1750 1.399 1_545 S
C1750 H1736 0.929 . S
C1750 C1749 1.399 1_565 S
C1750 C1751 1.385 . S
C1751 H1737 0.931 . S
C1751 C1750 1.385 . S
C1751 C1752 1.389 . S
C1752 C1751 1.389 . S
C1752 C1753 1.387 1_565 S
C1753 H1738 0.930 . S
C1753 C1748 1.390 . S
C1753 C1752 1.387 1_545 S
H1754 C1766 0.930 . S
H1755 C1768 0.930 . S
H1756 C1769 0.930 . S
H1757 C1773 0.959 . S
H1758 C1773 0.959 . S
H1759 C1773 0.961 . S
H1760 C1774 0.960 . S
H1761 C1774 0.961 . S
H1762 C1774 0.959 . S
H1763 C1777 0.929 . S
H1764 C1778 0.931 . S
H1765 C1780 0.930 . S
C1766 H1754 0.930 . S
C1766 C1767 1.399 . S
C1766 C1771 1.399 . S
C1767 C1766 1.399 . S
C1767 C1768 1.376 . S
C1768 H1755 0.930 . S
C1768 C1767 1.376 . S
C1768 C1769 1.388 . S
C1769 H1756 0.930 . S
C1769 C1768 1.388 . S
C1769 C1770 1.390 . S
C1770 C1769 1.390 . S
C1770 C1771 1.394 . S
C1770 C1776 1.465 . S
C1771 C1766 1.399 . S
C1771 C1770 1.394 . S
C1771 C1772 1.516 . S
C1772 C1771 1.516 . S
C1772 C1773 1.502 . S
C1772 C1774 1.561 . S
C1772 C1775 1.526 . S
C1773 H1757 0.959 . S
C1773 H1758 0.959 . S
C1773 H1759 0.961 . S
C1773 C1772 1.502 . S
C1774 H1760 0.960 . S
C1774 H1761 0.961 . S
C1774 H1762 0.959 . S
C1774 C1772 1.561 . S
C1775 C1772 1.526 . S
C1775 C1776 1.396 . S
C1775 C1780 1.390 . S
C1776 C1770 1.465 . S
C1776 C1775 1.396 . S
C1776 C1777 1.399 . S
C1777 H1763 0.929 . S
C1777 C1776 1.399 . S
C1777 C1778 1.385 . S
C1778 H1764 0.931 . S
C1778 C1777 1.385 . S
C1778 C1779 1.389 . S
C1779 C1778 1.389 . S
C1779 C1780 1.387 . S
C1780 H1765 0.930 . S
C1780 C1775 1.390 . S
C1780 C1779 1.387 . S
H1781 C1793 0.930 . S
H1782 C1795 0.930 . S
H1783 C1796 0.930 . S
H1784 C1800 0.959 . S
H1785 C1800 0.959 . S
H1786 C1800 0.961 . S
H1787 C1801 0.960 . S
H1788 C1801 0.961 . S
H1789 C1801 0.959 . S
H1790 C1804 0.929 . S
H1791 C1805 0.931 . S
H1792 C1807 0.930 . S
C1793 H1781 0.930 . S
C1793 C1794 1.399 . S
C1793 C1798 1.399 . S
C1794 C1793 1.399 . S
C1794 C1795 1.376 . S
C1795 H1782 0.930 . S
C1795 C1794 1.376 . S
C1795 C1796 1.388 . S
C1796 H1783 0.930 . S
C1796 C1795 1.388 . S
C1796 C1797 1.390 . S
C1797 C1796 1.390 . S
C1797 C1798 1.394 . S
C1797 C1803 1.465 . S
C1798 C1793 1.399 . S
C1798 C1797 1.394 . S
C1798 C1799 1.516 . S
C1799 C1798 1.516 . S
C1799 C1800 1.502 . S
C1799 C1801 1.561 . S
C1799 C1802 1.526 . S
C1800 H1784 0.959 . S
C1800 H1785 0.959 . S
C1800 H1786 0.961 . S
C1800 C1799 1.502 . S
C1801 H1787 0.960 . S
C1801 H1788 0.961 . S
C1801 H1789 0.959 . S
C1801 C1799 1.561 . S
C1802 C1799 1.526 . S
C1802 C1803 1.396 . S
C1802 C1807 1.390 . S
C1803 C1797 1.465 . S
C1803 C1802 1.396 . S
C1803 C1804 1.399 1_565 S
C1804 H1790 0.929 . S
C1804 C1803 1.399 1_545 S
C1804 C1805 1.385 . S
C1805 H1791 0.931 . S
C1805 C1804 1.385 . S
C1805 C1806 1.389 . S
C1806 C1805 1.389 . S
C1806 C1807 1.387 1_545 S
C1807 H1792 0.930 . S
C1807 C1802 1.390 . S
C1807 C1806 1.387 1_565 S
C525 C29 0.609 . S
C537 C349 0.621 . S
C552 C36 0.670 . S
C564 C381 0.673 . S
C579 C93 0.674 . S
C591 C285 0.675 . S
C606 C292 0.669 . S
C618 C125 0.673 . S
C633 C157 0.665 . S
C645 C452 0.673 . S
C660 C509 0.590 . S
C672 C164 0.576 . S
C687 C413 0.669 . S
C699 C221 0.675 . S
C714 C253 0.659 . S
C726 C420 0.669 . S
C741 C6 2.755 . S
C753 C134 2.762 . S
C768 C34 2.757 . S
C780 C418 2.759 . S
C795 C70 2.770 . S
C807 C198 2.755 . S
C822 C102 2.774 . S
C834 C486 2.745 . S
C849 C162 2.771 . S
C861 C290 2.747 . S
C876 C358 2.764 . S
C888 C230 2.761 . S
C903 C390 2.745 . S
C915 C262 2.775 . S
C930 C326 2.774 . S
C942 C450 2.750 . S
C957 C4 1.964 . S
C969 C226 1.953 . S
C984 C61 1.979 . S
C996 C386 1.955 . S
C1011 C68 1.986 . S
C1023 C166 1.965 . S
C1038 C100 1.977 1_455 S
C1050 C454 1.954 . S
C1065 C98 1.972 . S
C1077 C132 1.957 . S
C1092 C189 1.957 . S
C1104 C258 1.982 . S
C1119 C196 1.980 . S
C1131 C38 1.975 . S
C1146 C322 1.965 . S
C1158 C228 1.985 1_655 S
C1173 C260 1.961 . S
C1185 C482 1.955 1_565 S
C1200 C130 1.965 . S
C1212 C317 1.956 1_655 S
C1227 C422 1.955 1_545 S
C1239 C324 1.980 . S
C1254 C194 1.966 . S
C1266 C356 1.956 . S
C1281 C388 1.979 . S
C1293 C354 1.952 1_545 S
C1308 C445 1.981 1_455 S
C1320 C2 1.972 . S
C1335 C294 1.962 1_565 S
C1347 C477 1.986 . S
C1362 C484 1.981 . S
C1374 C66 1.952 . S
C1389 N13 0.847 1_556 S
C1401 N301 0.896 . S
C1416 N338 0.874 . S
C1428 N50 0.879 . S
C1443 N77 0.862 . S
C1455 N370 0.884 . S
C1470 N274 0.930 . S
C1482 N109 0.933 . S
C1497 N429 0.960 . S
C1509 N141 0.824 1_554 S
C1524 N461 0.959 . S
C1536 N178 0.822 . S
C1551 N498 0.938 . S
C1563 N205 0.877 . S
C1578 N402 0.960 . S
C1590 N237 0.825 . S
C1605 N45 0.957 . S
C1617 N269 0.877 . S
C1632 N82 0.925 . S
C1644 N306 0.938 . S
C1659 N114 0.959 . S
C1671 N333 0.843 1_556 S
C1686 N365 0.874 . S
C1698 N18 0.957 . S
C1713 N173 0.940 . S
C1725 N397 0.874 . S
C1740 N210 0.856 . S
C1752 N434 0.965 . S
C1767 N242 0.896 . S
C1779 N466 0.890 1_554 S
C1794 N146 0.855 . S
C1806 N493 0.958 . S
