# Generated by pormake.
# Topology snk, (6)-cn, num edge types: 1
# Building blocks:
#     Node 0, Type 0, BuildingBlock: VOLQOD_clean_sbu_1, # of connection points: 6
#     Node 1, Type 0, BuildingBlock: VOLQOD_clean_sbu_1, # of connection points: 6
#     Node 2, Type 0, BuildingBlock: VOLQOD_clean_sbu_1, # of connection points: 6
#     Node 3, Type 0, BuildingBlock: VOLQOD_clean_sbu_1, # of connection points: 6
#     Node 4, Type 0, BuildingBlock: VOLQOD_clean_sbu_1, # of connection points: 6
#     Node 5, Type 0, BuildingBlock: VOLQOD_clean_sbu_1, # of connection points: 6
#     Node 6, Type 0, BuildingBlock: VOLQOD_clean_sbu_1, # of connection points: 6
#     Node 7, Type 0, BuildingBlock: VOLQOD_clean_sbu_1, # of connection points: 6
#     Edge 8, Type (0, 0), BuildingBlock: CIFDUS_clean_linker_0, # of connection points: 2
#     Edge 9, Type (0, 0), BuildingBlock: CIFDUS_clean_linker_0, # of connection points: 2
#     Edge 10, Type (0, 0), BuildingBlock: CIFDUS_clean_linker_0, # of connection points: 2
#     Edge 11, Type (0, 0), BuildingBlock: CIFDUS_clean_linker_0, # of connection points: 2
#     Edge 12, Type (0, 0), BuildingBlock: CIFDUS_clean_linker_0, # of connection points: 2
#     Edge 13, Type (0, 0), BuildingBlock: CIFDUS_clean_linker_0, # of connection points: 2
#     Edge 14, Type (0, 0), BuildingBlock: CIFDUS_clean_linker_0, # of connection points: 2
#     Edge 15, Type (0, 0), BuildingBlock: CIFDUS_clean_linker_0, # of connection points: 2
#     Edge 16, Type (0, 0), BuildingBlock: CIFDUS_clean_linker_0, # of connection points: 2
#     Edge 17, Type (0, 0), BuildingBlock: CIFDUS_clean_linker_0, # of connection points: 2
#     Edge 18, Type (0, 0), BuildingBlock: CIFDUS_clean_linker_0, # of connection points: 2
#     Edge 19, Type (0, 0), BuildingBlock: CIFDUS_clean_linker_0, # of connection points: 2
#     Edge 20, Type (0, 0), BuildingBlock: CIFDUS_clean_linker_0, # of connection points: 2
#     Edge 21, Type (0, 0), BuildingBlock: CIFDUS_clean_linker_0, # of connection points: 2
#     Edge 22, Type (0, 0), BuildingBlock: CIFDUS_clean_linker_0, # of connection points: 2
#     Edge 23, Type (0, 0), BuildingBlock: CIFDUS_clean_linker_0, # of connection points: 2
#     Edge 24, Type (0, 0), BuildingBlock: CIFDUS_clean_linker_0, # of connection points: 2
#     Edge 25, Type (0, 0), BuildingBlock: CIFDUS_clean_linker_0, # of connection points: 2
#     Edge 26, Type (0, 0), BuildingBlock: CIFDUS_clean_linker_0, # of connection points: 2
#     Edge 27, Type (0, 0), BuildingBlock: CIFDUS_clean_linker_0, # of connection points: 2
#     Edge 28, Type (0, 0), BuildingBlock: CIFDUS_clean_linker_0, # of connection points: 2
#     Edge 29, Type (0, 0), BuildingBlock: CIFDUS_clean_linker_0, # of connection points: 2
#     Edge 30, Type (0, 0), BuildingBlock: CIFDUS_clean_linker_0, # of connection points: 2
#     Edge 31, Type (0, 0), BuildingBlock: CIFDUS_clean_linker_0, # of connection points: 2
# Relax obj value: 0.176
# Max RMSD: 0.167
# Mean RMSD: 0.167
data_MOF--net-snk--node1-VOLQOD_clean_sbu_1--edge1-CIFDUS_clean_linker_0
_symmetry_space_group_name_H-M    P1
_symmetry_Int_Tables_number       1
_symmetry_cell_setting            triclinic
loop_
_symmetry_equiv_pos_as_xyz
'x, y, z'
_cell_length_a     41.691121
_cell_length_b     41.5043
_cell_length_c     14.791658
_cell_angle_alpha  89.575518
_cell_angle_beta   89.86523
_cell_angle_gamma 90.273045
loop_
_atom_site_label
_atom_site_type_symbol
_atom_site_fract_x
_atom_site_fract_y
_atom_site_fract_z
_atom_type_partial_charge
O0 O 0.03051 0.04553 0.55653 0.0
Zn1 Zn 0.99312 0.07175 0.51116 0.0
O2 O 0.99221 0.1148 0.5655 0.0
Zn3 Zn 0.95227 0.12025 0.63215 0.0
Zn4 Zn 0.02977 0.11986 0.64137 0.0
Zn5 Zn 0.99368 0.14894 0.47648 0.0
O6 O 0.92322 0.15343 0.57597 0.0
O7 O 0.95474 0.17706 0.47444 0.0
O8 O 0.95383 0.04631 0.54714 0.0
O9 O 0.92714 0.0789 0.63825 0.0
O10 O 0.9621 0.13174 0.75917 0.0
O11 O 0.01548 0.12919 0.76612 0.0
O12 O 0.06074 0.15364 0.59447 0.0
O13 O -0.00509 0.07509 0.37519 0.0
O14 O 0.03446 0.17482 0.47861 0.0
O15 O 0.99286 0.1284 0.35887 0.0
C16 C 0.05241 0.05149 0.61396 0.0
C17 C 0.92781 0.17457 0.51447 0.0
C18 C 0.98824 0.13323 0.80309 0.0
C19 C 0.9303 0.05178 0.59982 0.0
C20 C 0.0593 0.17335 0.52823 0.0
C21 C 0.99357 0.10032 0.32591 0.0
O22 O 0.05453 0.07888 0.65134 0.0
O23 O 0.28764 0.86863 0.76652 0.0
Zn24 Zn 0.26115 0.83173 0.7168 0.0
O25 O 0.2179 0.83175 0.77008 0.0
Zn26 Zn 0.21207 0.7932 0.84477 0.0
Zn27 Zn 0.21143 0.87133 0.83694 0.0
Zn28 Zn 0.18499 0.8315 0.67968 0.0
O29 O 0.17729 0.76328 0.79722 0.0
O30 O 0.16126 0.79003 0.67552 0.0
O31 O 0.2848 0.79101 0.74968 0.0
O32 O 0.25189 0.76644 0.8462 0.0
O33 O 0.20453 0.80657 -0.02757 0.0
O34 O 0.20032 0.86008 0.96362 0.0
O35 O 0.17705 0.90016 0.78531 0.0
O36 O 0.25873 0.83485 0.58024 0.0
O37 O 0.15388 0.86778 0.68667 0.0
O38 O 0.20579 0.83632 0.56241 0.0
C39 C 0.28071 0.89246 0.81677 0.0
C40 C 0.16021 0.76518 0.72601 0.0
C41 C 0.19992 0.83389 0.00868 0.0
C42 C 0.27844 0.76784 0.80387 0.0
C43 C 0.15508 0.89448 0.7279 0.0
C44 C 0.23399 0.8371 0.53023 0.0
O45 O 0.25229 0.89664 0.84579 0.0
O46 O 0.46885 0.11912 -0.01013 0.0
Zn47 Zn 0.50636 0.09169 0.95488 0.0
O48 O 0.50285 0.04913 0.01201 0.0
Zn49 Zn 0.54023 0.04235 0.08852 0.0
Zn50 Zn 0.46208 0.04518 0.07619 0.0
Zn51 Zn 0.50257 0.01538 0.92452 0.0
O52 O 0.57004 0.00771 0.04186 0.0
O53 O 0.5428 0.99017 0.92366 0.0
O54 O 0.54504 0.11609 -0.00039 0.0
O55 O 0.56677 0.08257 0.09915 0.0
O56 O 0.52485 0.03306 0.21292 0.0
O57 O 0.47138 0.03398 0.20435 0.0
O58 O 0.43207 0.01154 0.02301 0.0
O59 O 0.50757 0.08811 0.81909 0.0
O60 O 0.4652 0.98551 0.93244 0.0
O61 O 0.49969 0.03531 0.80529 0.0
C62 C 0.44463 0.11487 0.04128 0.0
C63 C 0.56761 0.98953 -0.02681 0.0
C64 C 0.4972 0.03075 0.2491 0.0
C65 C 0.56616 0.10977 0.05917 0.0
C66 C 0.43784 0.98842 -0.03075 0.0
C67 C 0.50275 0.06324 0.771 0.0
O68 O 0.43919 0.08778 0.07938 0.0
O69 O 0.20209 0.29382 0.24183 0.0
Zn70 Zn 0.23339 0.32754 0.19738 0.0
O71 O 0.27537 0.32303 0.25501 0.0
Zn72 Zn 0.28533 0.3614 0.32415 0.0
Zn73 Zn 0.27497 0.28414 0.32876 0.0
Zn74 Zn 0.3096 0.31928 0.16871 0.0
O75 O 0.31911 0.38949 0.2659 0.0
O76 O 0.33877 0.35772 0.1603 0.0
O77 O 0.21325 0.36953 0.23294 0.0
O78 O 0.24666 0.38929 0.33538 0.0
O79 O 0.29764 0.34896 0.44906 0.0
O80 O 0.28609 0.29643 0.45375 0.0
O81 O 0.30619 0.2505 0.2836 0.0
O82 O 0.23723 0.32474 0.06188 0.0
O83 O 0.33391 0.27825 0.18095 0.0
O84 O 0.29002 0.31825 0.04989 0.0
C85 C 0.2042 0.27118 0.29999 0.0
C86 C 0.33846 0.38458 0.2009 0.0
C87 C 0.29498 0.32236 0.49168 0.0
C88 C 0.22037 0.3905 0.29219 0.0
C89 C 0.32884 0.25243 0.22571 0.0
C90 C 0.26248 0.32096 0.01471 0.0
O91 O 0.23071 0.26481 0.33848 0.0
O92 O 0.79493 0.37474 0.19456 0.0
Zn93 Zn 0.77117 0.33498 0.15305 0.0
O94 O 0.72817 0.33326 0.20811 0.0
Zn95 Zn 0.7241 0.29409 0.2809 0.0
Zn96 Zn 0.72026 0.37211 0.27747 0.0
Zn97 Zn 0.69507 0.33224 0.11891 0.0
O98 O 0.68986 0.26319 0.23384 0.0
O99 O 0.66746 0.29337 0.12731 0.0
O100 O 0.79868 0.29846 0.19812 0.0
O101 O 0.76629 0.27125 0.29052 0.0
O102 O 0.71454 0.30682 0.40748 0.0
O103 O 0.708 0.3601 0.40287 0.0
O104 O 0.6873 0.40192 0.22272 0.0
O105 O 0.76859 0.33366 0.01614 0.0
O106 O 0.66786 0.37138 0.11397 0.0
O107 O 0.71554 0.33137 0.00113 0.0
C108 C 0.78809 0.39644 0.25195 0.0
C109 C 0.66862 0.26738 0.17298 0.0
C110 C 0.70846 0.33345 0.44575 0.0
C111 C 0.79376 0.27572 0.25477 0.0
C112 C 0.66814 0.39769 0.15704 0.0
C113 C 0.74348 0.33238 -0.03266 0.0
O114 O 0.76063 0.39757 0.28927 0.0
O115 O 0.69931 0.78189 0.67114 0.0
Zn116 Zn 0.72252 0.82247 0.63208 0.0
O117 O 0.76559 0.82411 0.68544 0.0
Zn118 Zn 0.76908 0.86176 0.76255 0.0
Zn119 Zn 0.77422 0.78375 0.74957 0.0
Zn120 Zn 0.79829 0.82847 0.595 0.0
O121 O 0.80347 0.89386 0.72267 0.0
O122 O 0.82296 0.86923 0.6024 0.0
O123 O 0.69502 0.85877 0.67711 0.0
O124 O 0.7272 0.8848 0.77122 0.0
O125 O 0.77721 0.84645 0.88725 0.0
O126 O 0.78392 0.79329 0.87821 0.0
O127 O 0.81014 0.7579 0.69427 0.0
O128 O 0.72488 0.82392 0.49577 0.0
O129 O 0.8295 0.79267 0.59377 0.0
O130 O 0.77783 0.82691 0.47715 0.0
C131 C 0.70711 0.75786 0.72034 0.0
C132 C 0.82286 0.89295 0.65603 0.0
C133 C 0.7827 0.81917 0.92352 0.0
C134 C 0.69995 0.88104 0.73427 0.0
C135 C 0.83057 0.76555 0.63365 0.0
C136 C 0.74968 0.82504 0.44542 0.0
O137 O 0.73507 0.75556 0.75385 0.0
O138 O 0.53209 0.51813 0.85434 0.0
Zn139 Zn 0.49255 0.54221 0.81517 0.0
O140 O 0.49101 0.58523 0.8699 0.0
Zn141 Zn 0.45175 0.58957 0.94006 0.0
Zn142 Zn 0.52958 0.59205 0.94178 0.0
Zn143 Zn 0.48961 0.61879 0.7805 0.0
O144 O 0.42091 0.62318 0.89215 0.0
O145 O 0.45144 0.6471 0.78904 0.0
O146 O 0.45619 0.51421 0.86185 0.0
O147 O 0.42982 0.54673 0.95417 0.0
O148 O 0.46327 0.60185 0.0646 0.0
O149 O 0.5167 0.60094 0.06869 0.0
O150 O 0.5583 0.62777 0.89216 0.0
O151 O 0.49156 0.54541 0.67881 0.0
O152 O 0.52847 0.64667 0.78014 0.0
O153 O 0.48751 0.5986 0.66238 0.0
C154 C 0.55399 0.52451 0.91143 0.0
C155 C 0.42541 0.64536 0.83349 0.0
C156 C 0.4896 0.6044 0.10694 0.0
C157 C 0.4341 0.51905 0.91978 0.0
C158 C 0.55396 0.64747 0.82687 0.0
C159 C 0.48871 0.57051 0.62942 0.0
O160 O 0.55541 0.55173 0.95005 0.0
O161 O 0.95974 0.6267 0.42111 0.0
Zn162 Zn 5e-05 0.60499 0.37738 0.0
O163 O 0.00388 0.56161 0.43066 0.0
Zn164 Zn 0.0441 0.55776 0.49722 0.0
Zn165 Zn 0.96653 0.55208 0.50579 0.0
Zn166 Zn 0.00514 0.5295 0.33909 0.0
O167 O 0.07502 0.52486 0.44556 0.0
O168 O 0.04359 0.50232 0.34352 0.0
O169 O 0.03601 0.63347 0.42159 0.0
O170 O 0.06569 0.60089 0.50652 0.0
O171 O 0.03429 0.54606 0.62463 0.0
O172 O 0.98089 0.5452 0.63276 0.0
O173 O 0.93945 0.51497 0.45967 0.0
O174 O 0.00042 0.60354 0.24009 0.0
O175 O 0.96732 0.50061 0.33899 0.0
O176 O 0.00655 0.55079 0.22186 0.0
C177 C 0.93774 0.61789 0.476 0.0
C178 C 0.07004 0.50363 0.38538 0.0
C179 C 0.00838 0.54334 0.66954 0.0
C180 C 0.0597 0.62872 0.47422 0.0
C181 C 0.94316 0.49727 0.39048 0.0
C182 C 0.0043 0.57907 0.18978 0.0
O183 O 0.93773 0.59003 0.51212 0.0
H184 H 0.06754 0.2111 0.37862 0.0
H185 H 0.11654 0.1774 0.61805 0.0
H186 H 0.16587 0.20373 0.56683 0.0
H187 H 0.19547 0.23517 0.45252 0.0
H188 H 0.14632 0.26915 0.21379 0.0
H189 H 0.09678 0.24343 0.26604 0.0
C190 C 0.08889 0.20974 0.42024 0.0
C191 C 0.08822 0.19225 0.5022 0.0
C192 C 0.1173 0.2246 0.38992 0.0
C193 C 0.11625 0.19071 0.55478 0.0
C194 C 0.14456 0.20562 0.52531 0.0
C195 C 0.17401 0.23672 0.41144 0.0
C196 C 0.17472 0.25385 0.32892 0.0
C197 C 0.14546 0.22229 0.44249 0.0
C198 C 0.14651 0.25602 0.27736 0.0
C199 C 0.11812 0.24142 0.30734 0.0
H200 H 0.04985 0.98789 0.57048 0.0
H201 H 0.10526 0.05716 0.72162 0.0
H202 H 0.14096 0.01455 0.77344 0.0
H203 H 0.15674 0.95773 0.77534 0.0
H204 H 0.10146 0.88852 0.62365 0.0
H205 H 0.06532 0.93101 0.57354 0.0
C206 C 0.06983 0.99374 0.61433 0.0
C207 C 0.07487 0.02574 0.64171 0.0
C208 C 0.09019 0.96909 0.64451 0.0
C209 C 0.10078 0.03277 0.69923 0.0
C210 C 0.12121 0.0084 0.72918 0.0
C211 C 0.13664 0.95186 0.73196 0.0
C212 C 0.13186 0.91995 0.70346 0.0
C213 C 0.1161 0.97647 0.70245 0.0
C214 C 0.10577 0.91287 0.64667 0.0
C215 C 0.0851 0.93717 0.61768 0.0
H216 H 0.34525 0.8843 0.80191 0.0
H217 H 0.27393 0.94976 0.90457 0.0
H218 H 0.31607 0.98424 -0.03446 0.0
H219 H 0.37328 0.99606 -0.01074 0.0
H220 H 0.44438 0.93054 0.88576 0.0
H221 H 0.4022 0.89574 0.82691 0.0
C222 C 0.33888 0.90623 0.83695 0.0
C223 C 0.30644 0.91443 0.84812 0.0
C224 C 0.36321 0.92583 0.87274 0.0
C225 C 0.2987 0.94282 0.8947 0.0
C226 C 0.32279 0.96255 0.92995 0.0
C227 C 0.37953 0.97399 0.95477 0.0
C228 C 0.41195 0.96595 0.94216 0.0
C229 C 0.35513 0.95423 0.91976 0.0
C230 C 0.41962 0.93738 0.89641 0.0
C231 C 0.39552 0.91747 0.86237 0.0
H232 H 0.39875 0.11905 0.1725 0.0
H233 H 0.44425 0.17358 0.95738 0.0
H234 H 0.41301 0.22084 -0.00261 0.0
H235 H 0.37367 0.24692 0.09386 0.0
H236 H 0.32774 0.19314 0.30955 0.0
H237 H 0.3586 0.14536 0.2691 0.0
C238 C 0.40165 0.14118 0.13384 0.0
C239 C 0.42382 0.14268 0.0619 0.0
C240 C 0.38381 0.16847 0.15777 0.0
C241 C 0.42741 0.17168 0.01306 0.0
C242 C 0.40961 0.19878 0.03601 0.0
C243 C 0.37042 0.22485 0.13258 0.0
C244 C 0.34846 0.22373 0.20495 0.0
C245 C 0.38797 0.19751 0.10858 0.0
C246 C 0.34453 0.19476 0.25371 0.0
C247 C 0.3621 0.16739 0.23044 0.0
H248 H 0.92922 0.99164 0.52925 0.0
H249 H 0.87874 0.05316 0.71525 0.0
H250 H 0.8414 0.00934 0.75108 0.0
H251 H 0.82313 0.95326 0.72972 0.0
H252 H 0.87401 0.89268 0.54189 0.0
H253 H 0.9111 0.9364 0.5074 0.0
C254 C 0.91003 0.99559 0.57751 0.0
C255 C 0.90687 0.02569 0.61935 0.0
C256 C 0.88871 0.97036 0.59793 0.0
C257 C 0.88177 0.03025 0.68175 0.0
C258 C 0.86042 0.00518 0.70253 0.0
C259 C 0.84243 0.94962 0.68162 0.0
C260 C 0.8457 0.9197 0.63861 0.0
C261 C 0.86371 0.97506 0.66121 0.0
C262 C 0.87076 0.91546 0.57591 0.0
C263 C 0.89206 0.94046 0.55598 0.0
H264 H 0.92511 0.21118 0.36147 0.0
H265 H 0.86841 0.18043 0.59144 0.0
H266 H 0.82157 0.20755 0.52855 0.0
H267 H 0.79658 0.2393 0.40775 0.0
H268 H 0.85329 0.27039 0.17827 0.0
H269 H 0.9002 0.24326 0.24109 0.0
C270 C 0.90263 0.21068 0.39851 0.0
C271 C 0.90038 0.19387 0.48137 0.0
C272 C 0.87566 0.22592 0.36138 0.0
C273 C 0.8709 0.19325 0.52773 0.0
C274 C 0.84403 0.2086 0.49157 0.0
C275 C 0.81908 0.23984 0.37079 0.0
C276 C 0.82132 0.25667 0.28799 0.0
C277 C 0.84607 0.22472 0.40805 0.0
C278 C 0.85084 0.25751 0.24189 0.0
C279 C 0.87772 0.24214 0.278 0.0
H280 H 0.67098 0.2036 0.22128 0.0
H281 H 0.61482 0.27274 0.0708 0.0
H282 H 0.57911 0.23011 0.02041 0.0
H283 H 0.56405 0.17335 0.01631 0.0
H284 H 0.61922 0.10354 0.16682 0.0
H285 H 0.65511 0.14622 0.21907 0.0
C286 C 0.65076 0.20935 0.1782 0.0
C287 C 0.64571 0.24135 0.14987 0.0
C288 C 0.63027 0.18457 0.14851 0.0
C289 C 0.61945 0.24833 0.0935 0.0
C290 C 0.59897 0.22394 0.06433 0.0
C291 C 0.58404 0.16736 0.06002 0.0
C292 C 0.589 0.13525 0.08704 0.0
C293 C 0.60432 0.19198 0.09064 0.0
C294 C 0.61486 0.12806 0.14465 0.0
C295 C 0.63537 0.15247 0.17484 0.0
H296 H 0.69725 0.9186 0.88378 0.0
H297 H 0.64122 0.88746 0.6549 0.0
H298 H 0.59506 0.91717 0.71149 0.0
H299 H 0.5707 0.95148 0.82541 0.0
H300 H 0.62625 0.98273 0.05511 0.0
H301 H 0.67255 0.95286 -0.00097 0.0
C302 C 0.67505 0.91855 0.8457 0.0
C303 C 0.67277 0.90098 0.76482 0.0
C304 C 0.64847 0.93529 0.87927 0.0
C305 C 0.64367 0.90084 0.71712 0.0
C306 C 0.61723 0.91772 0.7496 0.0
C307 C 0.59283 0.95168 0.86383 0.0
C308 C 0.59494 0.96935 0.94454 0.0
C309 C 0.61934 0.93484 0.83077 0.0
C310 C 0.62389 0.96927 -0.007 0.0
C311 C 0.65042 0.95234 0.96071 0.0
H312 H 0.61718 0.64727 0.87457 0.0
H313 H 0.54715 0.70077 0.72075 0.0
H314 H 0.58843 0.73878 0.67182 0.0
H315 H 0.64419 0.75702 0.67234 0.0
H316 H 0.71475 0.70362 0.82451 0.0
H317 H 0.67355 0.66532 0.87339 0.0
C318 C 0.61094 0.66737 0.83088 0.0
C319 C 0.5791 0.67118 0.8017 0.0
C320 C 0.63492 0.68905 0.80191 0.0
C321 C 0.57148 0.69719 0.74423 0.0
C322 C 0.59507 0.71897 0.71601 0.0
C323 C 0.65068 0.73692 0.71573 0.0
C324 C 0.68257 0.7333 0.74457 0.0
C325 C 0.62687 0.71507 0.74411 0.0
C326 C 0.69041 0.70706 0.80104 0.0
C327 C 0.66683 0.68515 0.8294 0.0
H328 H 0.63137 0.3989 0.00602 0.0
H329 H 0.65958 0.45693 0.23395 0.0
H330 H 0.62822 0.50194 0.17464 0.0
H331 H 0.59262 0.52449 0.059 0.0
H332 H 0.5641 0.4661 0.83213 0.0
H333 H 0.59637 0.42156 0.88986 0.0
C334 C 0.63057 0.42129 0.04327 0.0
C335 C 0.6477 0.42443 0.12471 0.0
C336 C 0.61277 0.44709 0.00849 0.0
C337 C 0.64653 0.45378 0.17139 0.0
C338 C 0.62871 0.47957 0.13732 0.0
C339 C 0.59372 0.50217 0.02147 0.0
C340 C 0.57602 0.4987 0.9411 0.0
C341 C 0.61184 0.4765 0.05581 0.0
C342 C 0.5775 0.46945 0.89403 0.0
C343 C 0.59583 0.44393 0.92719 0.0
H344 H 0.87972 0.49872 0.4328 0.0
H345 H 0.95044 0.44432 0.28577 0.0
H346 H 0.90858 0.40903 0.22714 0.0
H347 H 0.85192 0.39428 0.21496 0.0
H348 H 0.78084 0.44908 0.35983 0.0
H349 H 0.82278 0.48378 0.42078 0.0
C350 C 0.88596 0.47886 0.38897 0.0
C351 C 0.91808 0.47404 0.364 0.0
C352 C 0.86169 0.45903 0.3539 0.0
C353 C 0.92583 0.44851 0.306 0.0
C354 C 0.90192 0.4284 0.27211 0.0
C355 C 0.84552 0.41397 0.2592 0.0
C356 C 0.81326 0.41908 0.28242 0.0
C357 C 0.86974 0.43367 0.29473 0.0
C358 C 0.80549 0.44459 0.34059 0.0
C359 C 0.82946 0.46439 0.3759 0.0
H360 H 0.82909 0.70057 0.65719 0.0
H361 H 0.88517 0.77765 0.5379 0.0
H362 H 0.92226 0.73865 0.47416 0.0
H363 H 0.93868 0.68278 0.4516 0.0
H364 H 0.88264 0.60553 0.57031 0.0
H365 H 0.84538 0.6445 0.63368 0.0
C366 C 0.84963 0.70882 0.61812 0.0
C367 C 0.85444 0.74192 0.6027 0.0
C368 C 0.87063 0.68626 0.58041 0.0
C369 C 0.88093 0.75226 0.55085 0.0
C370 C 0.9021 0.72999 0.51403 0.0
C371 C 0.91812 0.67442 0.49042 0.0
C372 C 0.91344 0.64131 0.50595 0.0
C373 C 0.89704 0.69694 0.52777 0.0
C374 C 0.88682 0.63092 0.55726 0.0
C375 C 0.86556 0.65318 0.59393 0.0
H376 H 0.37167 0.38688 0.04216 0.0
H377 H 0.34744 0.44404 0.27525 0.0
H378 H 0.3733 0.49099 0.20604 0.0
H379 H 0.40174 0.51607 0.07875 0.0
H380 H 0.4268 0.45906 0.84632 0.0
H381 H 0.40105 0.41185 0.91552 0.0
C382 C 0.37238 0.40948 0.0785 0.0
C383 C 0.35767 0.41183 0.16407 0.0
C384 C 0.3869 0.43654 0.03778 0.0
C385 C 0.35861 0.44145 0.20953 0.0
C386 C 0.37323 0.46839 0.16975 0.0
C387 C 0.40126 0.49344 0.04255 0.0
C388 C 0.4159 0.49121 0.95696 0.0
C389 C 0.38708 0.4663 0.08351 0.0
C390 C 0.41554 0.4615 0.91197 0.0
C391 C 0.40099 0.43446 0.95174 0.0
H392 H 0.36688 0.65093 0.91526 0.0
H393 H 0.42793 0.69528 0.71283 0.0
H394 H 0.38793 0.73664 0.68559 0.0
H395 H 0.33606 0.76084 0.71992 0.0
H396 H 0.27461 0.71682 0.92174 0.0
H397 H 0.31432 0.67485 0.94809 0.0
C398 C 0.37141 0.66959 0.86508 0.0
C399 C 0.40045 0.66993 0.8165 0.0
C400 C 0.34826 0.69348 0.84952 0.0
C401 C 0.40586 0.69434 0.75155 0.0
C402 C 0.38298 0.7181 0.73578 0.0
C403 C 0.33128 0.74208 0.76967 0.0
C404 C 0.30239 0.74211 0.81878 0.0
C405 C 0.35418 0.71799 0.78457 0.0
C406 C 0.29664 0.71747 0.88281 0.0
C407 C 0.31935 0.69342 0.89807 0.0
H408 H 0.12313 0.76147 0.57599 0.0
H409 H 0.15534 0.70527 0.80508 0.0
H410 H 0.12838 0.65766 0.7445 0.0
H411 H 0.09643 0.63196 0.62539 0.0
H412 H 0.06392 0.68868 0.39777 0.0
H413 H 0.0909 0.73615 0.45851 0.0
C414 C 0.12415 0.73891 0.61331 0.0
C415 C 0.14128 0.73703 0.69517 0.0
C416 C 0.10897 0.71164 0.57768 0.0
C417 C 0.14224 0.7075 0.74221 0.0
C418 C 0.12701 0.6802 0.70729 0.0
C419 C 0.09556 0.65461 0.58844 0.0
C420 C 0.07841 0.6567 0.50665 0.0
C421 C 0.11059 0.68194 0.62463 0.0
C422 C 0.07706 0.68638 0.46057 0.0
C423 C 0.09235 0.71355 0.49547 0.0
H424 H 0.15948 0.39557 0.231 0.0
H425 H 0.22804 0.44148 0.40711 0.0
H426 H 0.1876 0.4806 0.45258 0.0
H427 H 0.13221 0.50109 0.44432 0.0
H428 H 0.06431 0.45379 0.26847 0.0
H429 H 0.10509 0.41593 0.22169 0.0
C430 C 0.16574 0.41423 0.27887 0.0
C431 C 0.19674 0.41555 0.31545 0.0
C432 C 0.1424 0.43635 0.30546 0.0
C433 C 0.20431 0.43988 0.37779 0.0
C434 C 0.18119 0.46223 0.40407 0.0
C435 C 0.12635 0.48244 0.39603 0.0
C436 C 0.0952 0.48036 0.3603 0.0
C437 C 0.15003 0.46053 0.36887 0.0
C438 C 0.08806 0.45608 0.29735 0.0
C439 C 0.11138 0.43435 0.27023 0.0
H440 H 0.02038 0.09341 0.91147 0.0
H441 H 0.95025 0.16948 0.91122 0.0
H442 H 0.94375 0.16359 0.07532 0.0
H443 H 0.95882 0.1373 0.21675 0.0
H444 H 0.02706 0.05951 0.21716 0.0
H445 H 0.03278 0.06457 0.0524 0.0
C446 C 0.00409 0.10901 0.94794 0.0
C447 C 0.98643 0.13248 0.90123 0.0
C448 C -0.00034 0.10455 0.04062 0.0
C449 C 0.96444 0.15178 0.94728 0.0
C450 C 0.96057 0.14819 0.0403 0.0
C451 C 0.97469 0.12124 0.18036 0.0
C452 C 0.99276 0.09827 0.22772 0.0
C453 C 0.97803 0.12463 0.08724 0.0
C454 C 0.01287 0.07718 0.18102 0.0
C455 C 0.0164 0.08038 0.08754 0.0
H456 H 0.19502 0.86864 0.4182 0.0
H457 H 0.27785 0.80679 0.42316 0.0
H458 H 0.27294 0.79847 0.25967 0.0
H459 H 0.24255 0.80613 0.11862 0.0
H460 H 0.16081 0.86937 0.11464 0.0
H461 H 0.16696 0.87902 0.27687 0.0
C462 C 0.21228 0.85371 0.38306 0.0
C463 C 0.23661 0.83813 0.43172 0.0
C464 C 0.20878 0.84853 0.29074 0.0
C465 C 0.25913 0.81918 0.38625 0.0
C466 C 0.25599 0.81405 0.29345 0.0
C467 C 0.2258 0.82151 0.15408 0.0
C468 C 0.20068 0.83632 0.10676 0.0
C469 C 0.23034 0.82788 0.24579 0.0
C470 C 0.17979 0.85726 0.15128 0.0
C471 C 0.18355 0.86302 0.24322 0.0
H472 H 0.46622 0.02778 0.66228 0.0
H473 H 0.53827 0.10274 0.66113 0.0
H474 H 0.54417 0.09752 0.49685 0.0
H475 H 0.53086 0.06921 0.35679 0.0
H476 H 0.45702 0.99609 0.35757 0.0
H477 H 0.45026 0.00221 0.52129 0.0
C478 C 0.48294 0.04322 0.62567 0.0
C479 C 0.50203 0.0654 0.67261 0.0
C480 C 0.48639 0.03974 0.53268 0.0
C481 C 0.52327 0.08568 0.62544 0.0
C482 C 0.52691 0.08238 0.53219 0.0
C483 C 0.51369 0.0543 0.39344 0.0
C484 C 0.49506 0.03156 0.34716 0.0
C485 C 0.50915 0.05893 0.48582 0.0
C486 C 0.47195 0.01318 0.39334 0.0
C487 C 0.46794 0.01692 0.48615 0.0
H488 H 0.30529 0.34836 0.90523 0.0
H489 H 0.21745 0.29301 0.90611 0.0
H490 H 0.22156 0.28648 0.74154 0.0
H491 H 0.25141 0.29527 0.60032 0.0
H492 H 0.33753 0.35331 0.59973 0.0
H493 H 0.33351 0.35942 0.76407 0.0
C494 C 0.28695 0.33502 0.86907 0.0
C495 C 0.26126 0.32088 0.9164 0.0
C496 C 0.28966 0.33134 0.7761 0.0
C497 C 0.23727 0.30415 0.86993 0.0
C498 C 0.23985 0.30015 0.7766 0.0
C499 C 0.26957 0.30874 0.63677 0.0
C500 C 0.29521 0.32318 0.58984 0.0
C501 C 0.26626 0.31319 0.72959 0.0
C502 C 0.31802 0.34161 0.63591 0.0
C503 C 0.31553 0.34529 0.72909 0.0
H504 H 0.70423 0.36405 0.85777 0.0
H505 H 0.78581 0.30057 0.85816 0.0
H506 H 0.78023 0.2933 0.69412 0.0
H507 H 0.75014 0.30327 0.55371 0.0
H508 H 0.66988 0.36849 0.55477 0.0
H509 H 0.6761 0.3761 0.71783 0.0
C510 C 0.721 0.34888 0.82158 0.0
C511 C 0.74525 0.33265 0.86882 0.0
C512 C 0.71721 0.3445 0.72911 0.0
C513 C 0.76717 0.31342 0.82216 0.0
C514 C 0.76366 0.30896 0.72912 0.0
C515 C 0.73367 0.31862 0.59035 0.0
C516 C 0.70901 0.33467 0.54408 0.0
C517 C 0.73829 0.32382 0.68259 0.0
C518 C 0.68852 0.3555 0.59039 0.0
C519 C 0.69232 0.36007 0.68284 0.0
H520 H 0.78684 0.79025 0.33836 0.0
H521 H 0.70747 0.85648 0.33526 0.0
H522 H 0.71185 0.86132 0.17005 0.0
H523 H 0.74103 0.84942 0.03 0.0
H524 H 0.8191 0.78157 0.03357 0.0
H525 H 0.81309 0.77502 0.1976 0.0
C526 C 0.77025 0.8054 0.30105 0.0
C527 C 0.74708 0.82326 0.34748 0.0
C528 C 0.77328 0.80828 0.2077 0.0
C529 C 0.72532 0.84248 0.29977 0.0
C530 C 0.72812 0.84551 0.20603 0.0
C531 C 0.75696 0.83355 0.06721 0.0
C532 C 0.78109 0.81665 0.02159 0.0
C533 C 0.75259 0.82918 0.15997 0.0
C534 C 0.80086 0.79518 0.06869 0.0
C535 C 0.79723 0.79129 0.16173 0.0
H536 H 0.45649 0.60898 0.51754 0.0
H537 H 0.52141 0.52836 0.52243 0.0
H538 H 0.5295 0.53382 0.35859 0.0
H539 H 0.52003 0.56366 0.2169 0.0
H540 H 0.45342 0.64282 0.21292 0.0
H541 H 0.44484 0.63674 0.37607 0.0
C542 C 0.47215 0.59238 0.4824 0.0
C543 C 0.48857 0.56848 0.53097 0.0
C544 C 0.47706 0.59612 0.3899 0.0
C545 C 0.5084 0.54675 0.48551 0.0
C546 C 0.51336 0.55019 0.39254 0.0
C547 C 0.50419 0.57993 0.25257 0.0
C548 C 0.48804 0.60427 0.20504 0.0
C549 C 0.49841 0.57532 0.34475 0.0
C550 C 0.46653 0.62449 0.24979 0.0
C551 C 0.46139 0.62074 0.34223 0.0
H552 H 0.97404 0.5817 0.77695 0.0
H553 H 0.04951 0.51097 0.77852 0.0
H554 H 0.05753 0.5193 0.94066 0.0
H555 H 0.04214 0.54572 0.0805 0.0
H556 H 0.96771 0.6175 0.08034 0.0
H557 H 0.96104 0.61097 0.9165 0.0
C558 C 0.9918 0.56774 0.81353 0.0
C559 C 0.01057 0.54506 0.76771 0.0
C560 C -0.00298 0.5736 0.90525 0.0
C561 C 0.03443 0.52798 0.81384 0.0
C562 C 0.03921 0.533 0.90576 0.0
C563 C 0.0248 0.5603 0.04412 0.0
C564 C 0.00527 0.58189 0.09134 0.0
C565 C 0.02067 0.55576 0.95174 0.0
C566 C 0.98313 0.60098 0.04444 0.0
C567 C 0.97901 0.59684 0.95148 0.0
loop_
_geom_bond_atom_site_label_1
_geom_bond_atom_site_label_2
_geom_bond_distance
_geom_bond_site_symmetry_2
_ccdc_geom_bond_type
O0 Zn1 1.953 1_465 S
O0 C16 1.225 . S
Zn1 O0 1.953 1_645 S
Zn1 O2 1.949 1_655 S
Zn1 O8 1.919 1_545 S
Zn1 O13 1.924 1_655 S
O2 Zn1 1.949 1_455 S
O2 Zn3 1.923 1_455 S
O2 Zn4 1.950 . S
O2 Zn5 1.945 1_455 S
Zn3 O2 1.923 1_655 S
Zn3 O6 1.933 . S
Zn3 O9 1.941 . S
Zn3 O10 1.965 . S
Zn4 O2 1.950 . S
Zn4 O11 1.938 . S
Zn4 O12 1.906 . S
Zn4 O22 1.953 . S
Zn5 O2 1.945 1_655 S
Zn5 O7 1.932 . S
Zn5 O14 1.977 1_655 S
Zn5 O15 1.910 1_655 S
O6 Zn3 1.933 . S
O6 C17 1.226 . S
O7 Zn5 1.932 . S
O7 C17 1.307 . S
O8 Zn1 1.919 1_565 S
O8 C19 1.253 1_565 S
O9 Zn3 1.941 . S
O9 C19 1.283 . S
O10 Zn3 1.965 . S
O10 C18 1.303 1_655 S
O11 Zn4 1.938 . S
O11 C18 1.247 . S
O12 Zn4 1.906 . S
O12 C20 1.304 . S
O13 Zn1 1.924 1_455 S
O13 C21 1.311 . S
O14 Zn5 1.977 1_455 S
O14 C20 1.272 . S
O15 Zn5 1.910 1_455 S
O15 C21 1.231 . S
C16 O0 1.225 . S
C16 O22 1.298 1_565 S
C17 O6 1.226 . S
C17 O7 1.307 . S
C18 O10 1.303 1_455 S
C18 O11 1.247 . S
C19 O8 1.253 1_545 S
C19 O9 1.283 . S
C20 O12 1.304 . S
C20 O14 1.272 . S
C21 O13 1.311 . S
C21 O15 1.231 . S
O22 Zn4 1.953 . S
O22 C16 1.298 1_545 S
O23 Zn24 1.953 . S
O23 C39 1.225 . S
Zn24 O23 1.953 . S
Zn24 O25 1.949 . S
Zn24 O31 1.919 . S
Zn24 O36 1.924 . S
O25 Zn24 1.949 . S
O25 Zn26 1.923 . S
O25 Zn27 1.950 . S
O25 Zn28 1.945 . S
Zn26 O25 1.923 . S
Zn26 O29 1.933 . S
Zn26 O32 1.941 . S
Zn26 O33 1.965 . S
Zn27 O25 1.950 . S
Zn27 O34 1.938 . S
Zn27 O35 1.906 . S
Zn27 O45 1.953 . S
Zn28 O25 1.945 . S
Zn28 O30 1.932 . S
Zn28 O37 1.977 . S
Zn28 O38 1.910 . S
O29 Zn26 1.933 . S
O29 C40 1.226 . S
O30 Zn28 1.932 . S
O30 C40 1.307 . S
O31 Zn24 1.919 . S
O31 C42 1.253 . S
O32 Zn26 1.941 . S
O32 C42 1.283 . S
O33 Zn26 1.965 . S
O33 C41 1.303 1_556 S
O34 Zn27 1.938 . S
O34 C41 1.247 1_556 S
O35 Zn27 1.906 . S
O35 C43 1.304 . S
O36 Zn24 1.924 . S
O36 C44 1.311 . S
O37 Zn28 1.977 . S
O37 C43 1.272 . S
O38 Zn28 1.910 . S
O38 C44 1.231 . S
C39 O23 1.225 . S
C39 O45 1.298 . S
C40 O29 1.226 . S
C40 O30 1.307 . S
C41 O33 1.303 1_554 S
C41 O34 1.247 1_554 S
C42 O31 1.253 . S
C42 O32 1.283 . S
C43 O35 1.304 . S
C43 O37 1.272 . S
C44 O36 1.311 . S
C44 O38 1.231 . S
O45 Zn27 1.953 . S
O45 C39 1.298 . S
O46 Zn47 1.953 1_554 S
O46 C62 1.225 . S
Zn47 O46 1.953 1_556 S
Zn47 O48 1.949 1_556 S
Zn47 O54 1.917 1_556 S
Zn47 O59 1.924 . S
O48 Zn47 1.949 1_554 S
O48 Zn49 1.923 . S
O48 Zn50 1.950 . S
O48 Zn51 1.945 1_554 S
Zn49 O48 1.923 . S
Zn49 O52 1.933 . S
Zn49 O55 1.941 . S
Zn49 O56 1.965 . S
Zn50 O48 1.950 . S
Zn50 O57 1.938 . S
Zn50 O58 1.906 . S
Zn50 O68 1.953 . S
Zn51 O48 1.945 1_556 S
Zn51 O53 1.932 . S
Zn51 O60 1.977 . S
Zn51 O61 1.910 . S
O52 Zn49 1.933 . S
O52 C63 1.226 1_554 S
O53 Zn51 1.932 . S
O53 C63 1.307 . S
O54 Zn47 1.917 1_554 S
O54 C65 1.258 . S
O55 Zn49 1.941 . S
O55 C65 1.283 . S
O56 Zn49 1.965 . S
O56 C64 1.303 . S
O57 Zn50 1.938 . S
O57 C64 1.247 . S
O58 Zn50 1.906 . S
O58 C66 1.304 1_554 S
O59 Zn47 1.924 . S
O59 C67 1.311 . S
O60 Zn51 1.977 . S
O60 C66 1.272 . S
O61 Zn51 1.910 . S
O61 C67 1.231 . S
C62 O46 1.225 . S
C62 O68 1.298 . S
C63 O52 1.226 1_556 S
C63 O53 1.307 . S
C64 O56 1.303 . S
C64 O57 1.247 . S
C65 O54 1.258 . S
C65 O55 1.283 . S
C66 O58 1.304 1_556 S
C66 O60 1.272 . S
C67 O59 1.311 . S
C67 O61 1.231 . S
O68 Zn50 1.953 . S
O68 C62 1.298 . S
O69 Zn70 1.953 . S
O69 C85 1.225 . S
Zn70 O69 1.953 . S
Zn70 O71 1.949 . S
Zn70 O77 1.919 . S
Zn70 O82 1.924 . S
O71 Zn70 1.949 . S
O71 Zn72 1.923 . S
O71 Zn73 1.950 . S
O71 Zn74 1.945 . S
Zn72 O71 1.923 . S
Zn72 O75 1.933 . S
Zn72 O78 1.941 . S
Zn72 O79 1.965 . S
Zn73 O71 1.950 . S
Zn73 O80 1.938 . S
Zn73 O81 1.906 . S
Zn73 O91 1.953 . S
Zn74 O71 1.945 . S
Zn74 O76 1.932 . S
Zn74 O83 1.977 . S
Zn74 O84 1.910 . S
O75 Zn72 1.933 . S
O75 C86 1.226 . S
O76 Zn74 1.932 . S
O76 C86 1.307 . S
O77 Zn70 1.919 . S
O77 C88 1.253 . S
O78 Zn72 1.941 . S
O78 C88 1.283 . S
O79 Zn72 1.965 . S
O79 C87 1.303 . S
O80 Zn73 1.938 . S
O80 C87 1.247 . S
O81 Zn73 1.906 . S
O81 C89 1.304 . S
O82 Zn70 1.924 . S
O82 C90 1.311 . S
O83 Zn74 1.977 . S
O83 C89 1.272 . S
O84 Zn74 1.910 . S
O84 C90 1.231 . S
C85 O69 1.225 . S
C85 O91 1.298 . S
C86 O75 1.226 . S
C86 O76 1.307 . S
C87 O79 1.303 . S
C87 O80 1.247 . S
C88 O77 1.253 . S
C88 O78 1.283 . S
C89 O81 1.304 . S
C89 O83 1.272 . S
C90 O82 1.311 . S
C90 O84 1.231 . S
O91 Zn73 1.953 . S
O91 C85 1.298 . S
O92 Zn93 1.953 . S
O92 C108 1.225 . S
Zn93 O92 1.953 . S
Zn93 O94 1.949 . S
Zn93 O100 1.919 . S
Zn93 O105 1.924 . S
O94 Zn93 1.949 . S
O94 Zn95 1.923 . S
O94 Zn96 1.950 . S
O94 Zn97 1.945 . S
Zn95 O94 1.923 . S
Zn95 O98 1.933 . S
Zn95 O101 1.941 . S
Zn95 O102 1.965 . S
Zn96 O94 1.950 . S
Zn96 O103 1.938 . S
Zn96 O104 1.906 . S
Zn96 O114 1.953 . S
Zn97 O94 1.945 . S
Zn97 O99 1.932 . S
Zn97 O106 1.977 . S
Zn97 O107 1.910 . S
O98 Zn95 1.933 . S
O98 C109 1.226 . S
O99 Zn97 1.932 . S
O99 C109 1.307 . S
O100 Zn93 1.919 . S
O100 C111 1.253 . S
O101 Zn95 1.941 . S
O101 C111 1.283 . S
O102 Zn95 1.965 . S
O102 C110 1.303 . S
O103 Zn96 1.938 . S
O103 C110 1.247 . S
O104 Zn96 1.906 . S
O104 C112 1.304 . S
O105 Zn93 1.924 . S
O105 C113 1.311 . S
O106 Zn97 1.977 . S
O106 C112 1.272 . S
O107 Zn97 1.910 . S
O107 C113 1.231 . S
C108 O92 1.225 . S
C108 O114 1.298 . S
C109 O98 1.226 . S
C109 O99 1.307 . S
C110 O102 1.303 . S
C110 O103 1.247 . S
C111 O100 1.253 . S
C111 O101 1.283 . S
C112 O104 1.304 . S
C112 O106 1.272 . S
C113 O105 1.311 . S
C113 O107 1.231 . S
O114 Zn96 1.953 . S
O114 C108 1.298 . S
O115 Zn116 1.953 . S
O115 C131 1.225 . S
Zn116 O115 1.953 . S
Zn116 O117 1.949 . S
Zn116 O123 1.919 . S
Zn116 O128 1.924 . S
O117 Zn116 1.949 . S
O117 Zn118 1.923 . S
O117 Zn119 1.950 . S
O117 Zn120 1.945 . S
Zn118 O117 1.923 . S
Zn118 O121 1.933 . S
Zn118 O124 1.941 . S
Zn118 O125 1.965 . S
Zn119 O117 1.950 . S
Zn119 O126 1.938 . S
Zn119 O127 1.906 . S
Zn119 O137 1.953 . S
Zn120 O117 1.945 . S
Zn120 O122 1.932 . S
Zn120 O129 1.977 . S
Zn120 O130 1.910 . S
O121 Zn118 1.933 . S
O121 C132 1.226 . S
O122 Zn120 1.932 . S
O122 C132 1.307 . S
O123 Zn116 1.919 . S
O123 C134 1.253 . S
O124 Zn118 1.941 . S
O124 C134 1.283 . S
O125 Zn118 1.965 . S
O125 C133 1.303 1_556 S
O126 Zn119 1.938 . S
O126 C133 1.247 1_556 S
O127 Zn119 1.906 . S
O127 C135 1.304 . S
O128 Zn116 1.924 . S
O128 C136 1.311 . S
O129 Zn120 1.977 . S
O129 C135 1.272 . S
O130 Zn120 1.910 . S
O130 C136 1.231 . S
C131 O115 1.225 . S
C131 O137 1.298 . S
C132 O121 1.226 . S
C132 O122 1.307 . S
C133 O125 1.303 1_554 S
C133 O126 1.247 1_554 S
C134 O123 1.253 . S
C134 O124 1.283 . S
C135 O127 1.304 . S
C135 O129 1.272 . S
C136 O128 1.311 . S
C136 O130 1.231 . S
O137 Zn119 1.953 . S
O137 C131 1.298 . S
O138 Zn139 1.953 1_554 S
O138 C154 1.225 . S
Zn139 O138 1.953 1_556 S
Zn139 O140 1.949 1_556 S
Zn139 O146 1.917 1_556 S
Zn139 O151 1.924 . S
O140 Zn139 1.949 1_554 S
O140 Zn141 1.923 . S
O140 Zn142 1.950 . S
O140 Zn143 1.945 1_554 S
Zn141 O140 1.923 . S
Zn141 O144 1.933 . S
Zn141 O147 1.941 . S
Zn141 O148 1.965 . S
Zn142 O140 1.950 . S
Zn142 O149 1.938 . S
Zn142 O150 1.906 . S
Zn142 O160 1.953 . S
Zn143 O140 1.945 1_556 S
Zn143 O145 1.932 . S
Zn143 O152 1.977 . S
Zn143 O153 1.910 . S
O144 Zn141 1.933 . S
O144 C155 1.226 1_554 S
O145 Zn143 1.932 . S
O145 C155 1.307 . S
O146 Zn139 1.917 1_554 S
O146 C157 1.258 . S
O147 Zn141 1.941 . S
O147 C157 1.283 . S
O148 Zn141 1.965 . S
O148 C156 1.303 . S
O149 Zn142 1.938 . S
O149 C156 1.247 . S
O150 Zn142 1.906 . S
O150 C158 1.304 1_554 S
O151 Zn139 1.924 . S
O151 C159 1.311 . S
O152 Zn143 1.977 . S
O152 C158 1.272 . S
O153 Zn143 1.910 . S
O153 C159 1.231 . S
C154 O138 1.225 . S
C154 O160 1.298 . S
C155 O144 1.226 1_556 S
C155 O145 1.307 . S
C156 O148 1.303 . S
C156 O149 1.247 . S
C157 O146 1.258 . S
C157 O147 1.283 . S
C158 O150 1.304 1_556 S
C158 O152 1.272 . S
C159 O151 1.311 . S
C159 O153 1.231 . S
O160 Zn142 1.953 . S
O160 C154 1.298 . S
O161 Zn162 1.953 1_655 S
O161 C177 1.225 . S
Zn162 O161 1.953 1_455 S
Zn162 O163 1.949 . S
Zn162 O169 1.919 . S
Zn162 O174 1.924 . S
O163 Zn162 1.949 . S
O163 Zn164 1.923 . S
O163 Zn165 1.950 1_455 S
O163 Zn166 1.945 . S
Zn164 O163 1.923 . S
Zn164 O167 1.933 . S
Zn164 O170 1.941 . S
Zn164 O171 1.965 . S
Zn165 O163 1.950 1_655 S
Zn165 O172 1.938 . S
Zn165 O173 1.906 . S
Zn165 O183 1.953 . S
Zn166 O163 1.945 . S
Zn166 O168 1.932 . S
Zn166 O175 1.977 1_455 S
Zn166 O176 1.910 . S
O167 Zn164 1.933 . S
O167 C178 1.226 . S
O168 Zn166 1.932 . S
O168 C178 1.307 . S
O169 Zn162 1.919 . S
O169 C180 1.253 . S
O170 Zn164 1.941 . S
O170 C180 1.283 . S
O171 Zn164 1.965 . S
O171 C179 1.303 1_455 S
O172 Zn165 1.938 . S
O172 C179 1.247 . S
O173 Zn165 1.906 . S
O173 C181 1.304 . S
O174 Zn162 1.924 . S
O174 C182 1.311 1_455 S
O175 Zn166 1.977 1_655 S
O175 C181 1.272 . S
O176 Zn166 1.910 . S
O176 C182 1.231 1_455 S
C177 O161 1.225 . S
C177 O183 1.298 . S
C178 O167 1.226 . S
C178 O168 1.307 . S
C179 O171 1.303 1_655 S
C179 O172 1.247 . S
C180 O169 1.253 . S
C180 O170 1.283 . S
C181 O173 1.304 . S
C181 O175 1.272 . S
C182 O174 1.311 1_655 S
C182 O176 1.231 1_655 S
O183 Zn165 1.953 . S
O183 C177 1.298 . S
H184 C190 0.930 . S
H185 C193 0.930 . S
H186 C194 0.930 . S
H187 C195 0.930 . S
H188 C198 0.930 . S
H189 C199 0.930 . S
C190 H184 0.930 . S
C190 C191 1.355 . S
C190 C192 1.415 . S
C191 C190 1.355 . S
C191 C193 1.419 . S
C192 C190 1.415 . S
C192 C197 1.425 . S
C192 C199 1.409 . S
C193 H185 0.930 . S
C193 C191 1.419 . S
C193 C194 1.362 . S
C194 H186 0.930 . S
C194 C193 1.362 . S
C194 C197 1.409 . S
C195 H187 0.930 . S
C195 C196 1.355 . S
C195 C197 1.415 . S
C196 C195 1.355 . S
C196 C198 1.419 . S
C197 C192 1.425 . S
C197 C194 1.409 . S
C197 C195 1.415 . S
C198 H188 0.930 . S
C198 C196 1.419 . S
C198 C199 1.362 . S
C199 H189 0.930 . S
C199 C192 1.409 . S
C199 C198 1.362 . S
H200 C206 0.930 . S
H201 C209 0.930 1_545 S
H202 C210 0.930 . S
H203 C211 0.930 . S
H204 C214 0.930 . S
H205 C215 0.930 . S
C206 H200 0.930 . S
C206 C207 1.355 . S
C206 C208 1.415 . S
C207 C206 1.355 . S
C207 C209 1.419 . S
C208 C206 1.415 . S
C208 C213 1.425 . S
C208 C215 1.409 . S
C209 H201 0.930 1_565 S
C209 C207 1.419 . S
C209 C210 1.362 . S
C210 H202 0.930 . S
C210 C209 1.362 . S
C210 C213 1.409 . S
C211 H203 0.930 . S
C211 C212 1.355 . S
C211 C213 1.415 . S
C212 C211 1.355 . S
C212 C214 1.419 . S
C213 C208 1.425 . S
C213 C210 1.409 . S
C213 C211 1.415 . S
C214 H204 0.930 . S
C214 C212 1.419 . S
C214 C215 1.362 . S
C215 H205 0.930 . S
C215 C208 1.409 . S
C215 C214 1.362 . S
H216 C222 0.930 . S
H217 C225 0.930 . S
H218 C226 0.930 . S
H219 C227 0.930 . S
H220 C230 0.930 1_554 S
H221 C231 0.930 . S
C222 H216 0.930 . S
C222 C223 1.355 . S
C222 C224 1.415 . S
C223 C222 1.355 . S
C223 C225 1.419 . S
C224 C222 1.415 . S
C224 C229 1.425 . S
C224 C231 1.409 . S
C225 H217 0.930 . S
C225 C223 1.419 . S
C225 C226 1.362 . S
C226 H218 0.930 . S
C226 C225 1.362 . S
C226 C229 1.409 . S
C227 H219 0.930 . S
C227 C228 1.355 . S
C227 C229 1.415 1_545 S
C228 C227 1.355 . S
C228 C230 1.419 1_545 S
C229 C224 1.425 . S
C229 C226 1.409 . S
C229 C227 1.415 1_565 S
C230 H220 0.930 1_556 S
C230 C228 1.419 1_565 S
C230 C231 1.362 . S
C231 H221 0.930 . S
C231 C224 1.409 . S
C231 C230 1.362 . S
H232 C238 0.930 . S
H233 C241 0.930 . S
H234 C242 0.930 . S
H235 C243 0.930 . S
H236 C246 0.930 . S
H237 C247 0.930 . S
C238 H232 0.930 . S
C238 C239 1.355 . S
C238 C240 1.415 . S
C239 C238 1.355 . S
C239 C241 1.419 . S
C240 C238 1.415 . S
C240 C245 1.425 . S
C240 C247 1.409 . S
C241 H233 0.930 . S
C241 C239 1.419 . S
C241 C242 1.362 . S
C242 H234 0.930 . S
C242 C241 1.362 . S
C242 C245 1.409 . S
C243 H235 0.930 . S
C243 C244 1.355 . S
C243 C245 1.415 . S
C244 C243 1.355 . S
C244 C246 1.419 . S
C245 C240 1.425 . S
C245 C242 1.409 . S
C245 C243 1.415 . S
C246 H236 0.930 . S
C246 C244 1.419 . S
C246 C247 1.362 . S
C247 H237 0.930 . S
C247 C240 1.409 . S
C247 C246 1.362 . S
H248 C254 0.930 . S
H249 C257 0.930 . S
H250 C258 0.930 1_545 S
H251 C259 0.930 . S
H252 C262 0.930 . S
H253 C263 0.930 . S
C254 H248 0.930 . S
C254 C255 1.355 . S
C254 C256 1.415 . S
C255 C254 1.355 . S
C255 C257 1.419 1_565 S
C256 C254 1.415 . S
C256 C261 1.425 . S
C256 C263 1.409 . S
C257 H249 0.930 . S
C257 C255 1.419 1_545 S
C257 C258 1.362 1_545 S
C258 H250 0.930 1_565 S
C258 C257 1.362 1_565 S
C258 C261 1.409 . S
C259 H251 0.930 . S
C259 C260 1.355 . S
C259 C261 1.415 . S
C260 C259 1.355 . S
C260 C262 1.419 . S
C261 C256 1.425 . S
C261 C258 1.409 . S
C261 C259 1.415 . S
C262 H252 0.930 . S
C262 C260 1.419 . S
C262 C263 1.362 . S
C263 H253 0.930 . S
C263 C256 1.409 . S
C263 C262 1.362 . S
H264 C270 0.930 . S
H265 C273 0.930 . S
H266 C274 0.930 . S
H267 C275 0.930 . S
H268 C278 0.930 . S
H269 C279 0.930 . S
C270 H264 0.930 . S
C270 C271 1.355 . S
C270 C272 1.415 . S
C271 C270 1.355 . S
C271 C273 1.419 . S
C272 C270 1.415 . S
C272 C277 1.425 . S
C272 C279 1.409 . S
C273 H265 0.930 . S
C273 C271 1.419 . S
C273 C274 1.362 . S
C274 H266 0.930 . S
C274 C273 1.362 . S
C274 C277 1.409 . S
C275 H267 0.930 . S
C275 C276 1.355 . S
C275 C277 1.415 . S
C276 C275 1.355 . S
C276 C278 1.419 . S
C277 C272 1.425 . S
C277 C274 1.409 . S
C277 C275 1.415 . S
C278 H268 0.930 . S
C278 C276 1.419 . S
C278 C279 1.362 . S
C279 H269 0.930 . S
C279 C272 1.409 . S
C279 C278 1.362 . S
H280 C286 0.930 . S
H281 C289 0.930 . S
H282 C290 0.930 . S
H283 C291 0.930 . S
H284 C294 0.930 . S
H285 C295 0.930 . S
C286 H280 0.930 . S
C286 C287 1.355 . S
C286 C288 1.415 . S
C287 C286 1.355 . S
C287 C289 1.419 . S
C288 C286 1.415 . S
C288 C293 1.425 . S
C288 C295 1.409 . S
C289 H281 0.930 . S
C289 C287 1.419 . S
C289 C290 1.362 . S
C290 H282 0.930 . S
C290 C289 1.362 . S
C290 C293 1.409 . S
C291 H283 0.930 . S
C291 C292 1.355 . S
C291 C293 1.415 . S
C292 C291 1.355 . S
C292 C294 1.419 . S
C293 C288 1.425 . S
C293 C290 1.409 . S
C293 C291 1.415 . S
C294 H284 0.930 . S
C294 C292 1.419 . S
C294 C295 1.362 . S
C295 H285 0.930 . S
C295 C288 1.409 . S
C295 C294 1.362 . S
H296 C302 0.930 . S
H297 C305 0.930 . S
H298 C306 0.930 . S
H299 C307 0.930 . S
H300 C310 0.930 . S
H301 C311 0.930 1_554 S
C302 H296 0.930 . S
C302 C303 1.355 . S
C302 C304 1.415 . S
C303 C302 1.355 . S
C303 C305 1.419 . S
C304 C302 1.415 . S
C304 C309 1.425 . S
C304 C311 1.409 . S
C305 H297 0.930 . S
C305 C303 1.419 . S
C305 C306 1.362 . S
C306 H298 0.930 . S
C306 C305 1.362 . S
C306 C309 1.409 . S
C307 H299 0.930 . S
C307 C308 1.355 1_565 S
C307 C309 1.415 . S
C308 C307 1.355 1_545 S
C308 C310 1.419 1_556 S
C309 C304 1.425 . S
C309 C306 1.409 . S
C309 C307 1.415 . S
C310 H300 0.930 . S
C310 C308 1.419 1_554 S
C310 C311 1.362 1_544 S
C311 H301 0.930 1_556 S
C311 C304 1.409 . S
C311 C310 1.362 1_566 S
H312 C318 0.930 . S
H313 C321 0.930 . S
H314 C322 0.930 . S
H315 C323 0.930 . S
H316 C326 0.930 . S
H317 C327 0.930 . S
C318 H312 0.930 . S
C318 C319 1.355 . S
C318 C320 1.415 . S
C319 C318 1.355 . S
C319 C321 1.419 . S
C320 C318 1.415 . S
C320 C325 1.425 . S
C320 C327 1.409 . S
C321 H313 0.930 . S
C321 C319 1.419 . S
C321 C322 1.362 . S
C322 H314 0.930 . S
C322 C321 1.362 . S
C322 C325 1.409 . S
C323 H315 0.930 . S
C323 C324 1.355 . S
C323 C325 1.415 . S
C324 C323 1.355 . S
C324 C326 1.419 . S
C325 C320 1.425 . S
C325 C322 1.409 . S
C325 C323 1.415 . S
C326 H316 0.930 . S
C326 C324 1.419 . S
C326 C327 1.362 . S
C327 H317 0.930 . S
C327 C320 1.409 . S
C327 C326 1.362 . S
H328 C334 0.930 . S
H329 C337 0.930 . S
H330 C338 0.930 . S
H331 C339 0.930 . S
H332 C342 0.930 . S
H333 C343 0.930 1_556 S
C334 H328 0.930 . S
C334 C335 1.355 . S
C334 C336 1.415 . S
C335 C334 1.355 . S
C335 C337 1.419 . S
C336 C334 1.415 . S
C336 C341 1.425 . S
C336 C343 1.409 . S
C337 H329 0.930 . S
C337 C335 1.419 . S
C337 C338 1.362 . S
C338 H330 0.930 . S
C338 C337 1.362 . S
C338 C341 1.409 . S
C339 H331 0.930 . S
C339 C340 1.355 . S
C339 C341 1.415 . S
C340 C339 1.355 . S
C340 C342 1.419 1_554 S
C341 C336 1.425 . S
C341 C338 1.409 . S
C341 C339 1.415 . S
C342 H332 0.930 . S
C342 C340 1.419 1_556 S
C342 C343 1.362 1_556 S
C343 H333 0.930 1_554 S
C343 C336 1.409 . S
C343 C342 1.362 1_554 S
H344 C350 0.930 . S
H345 C353 0.930 . S
H346 C354 0.930 . S
H347 C355 0.930 . S
H348 C358 0.930 . S
H349 C359 0.930 . S
C350 H344 0.930 . S
C350 C351 1.355 . S
C350 C352 1.415 . S
C351 C350 1.355 . S
C351 C353 1.419 . S
C352 C350 1.415 . S
C352 C357 1.425 . S
C352 C359 1.409 . S
C353 H345 0.930 . S
C353 C351 1.419 . S
C353 C354 1.362 . S
C354 H346 0.930 . S
C354 C353 1.362 . S
C354 C357 1.409 . S
C355 H347 0.930 . S
C355 C356 1.355 . S
C355 C357 1.415 . S
C356 C355 1.355 . S
C356 C358 1.419 . S
C357 C352 1.425 . S
C357 C354 1.409 . S
C357 C355 1.415 . S
C358 H348 0.930 . S
C358 C356 1.419 . S
C358 C359 1.362 . S
C359 H349 0.930 . S
C359 C352 1.409 . S
C359 C358 1.362 . S
H360 C366 0.930 . S
H361 C369 0.930 . S
H362 C370 0.930 . S
H363 C371 0.930 . S
H364 C374 0.930 . S
H365 C375 0.930 . S
C366 H360 0.930 . S
C366 C367 1.355 . S
C366 C368 1.415 . S
C367 C366 1.355 . S
C367 C369 1.419 . S
C368 C366 1.415 . S
C368 C373 1.425 . S
C368 C375 1.409 . S
C369 H361 0.930 . S
C369 C367 1.419 . S
C369 C370 1.362 . S
C370 H362 0.930 . S
C370 C369 1.362 . S
C370 C373 1.409 . S
C371 H363 0.930 . S
C371 C372 1.355 . S
C371 C373 1.415 . S
C372 C371 1.355 . S
C372 C374 1.419 . S
C373 C368 1.425 . S
C373 C370 1.409 . S
C373 C371 1.415 . S
C374 H364 0.930 . S
C374 C372 1.419 . S
C374 C375 1.362 . S
C375 H365 0.930 . S
C375 C368 1.409 . S
C375 C374 1.362 . S
H376 C382 0.930 . S
H377 C385 0.930 . S
H378 C386 0.930 . S
H379 C387 0.930 . S
H380 C390 0.930 . S
H381 C391 0.930 . S
C382 H376 0.930 . S
C382 C383 1.355 . S
C382 C384 1.415 . S
C383 C382 1.355 . S
C383 C385 1.419 . S
C384 C382 1.415 . S
C384 C389 1.425 . S
C384 C391 1.409 . S
C385 H377 0.930 . S
C385 C383 1.419 . S
C385 C386 1.362 . S
C386 H378 0.930 . S
C386 C385 1.362 . S
C386 C389 1.409 . S
C387 H379 0.930 . S
C387 C388 1.355 . S
C387 C389 1.415 . S
C388 C387 1.355 . S
C388 C390 1.419 . S
C389 C384 1.425 . S
C389 C386 1.409 . S
C389 C387 1.415 . S
C390 H380 0.930 . S
C390 C388 1.419 . S
C390 C391 1.362 . S
C391 H381 0.930 . S
C391 C384 1.409 . S
C391 C390 1.362 . S
H392 C398 0.930 . S
H393 C401 0.930 . S
H394 C402 0.930 . S
H395 C403 0.930 . S
H396 C406 0.930 . S
H397 C407 0.930 . S
C398 H392 0.930 . S
C398 C399 1.355 . S
C398 C400 1.415 . S
C399 C398 1.355 . S
C399 C401 1.419 . S
C400 C398 1.415 . S
C400 C405 1.425 . S
C400 C407 1.409 . S
C401 H393 0.930 . S
C401 C399 1.419 . S
C401 C402 1.362 . S
C402 H394 0.930 . S
C402 C401 1.362 . S
C402 C405 1.409 . S
C403 H395 0.930 . S
C403 C404 1.355 . S
C403 C405 1.415 . S
C404 C403 1.355 . S
C404 C406 1.419 . S
C405 C400 1.425 . S
C405 C402 1.409 . S
C405 C403 1.415 . S
C406 H396 0.930 . S
C406 C404 1.419 . S
C406 C407 1.362 . S
C407 H397 0.930 . S
C407 C400 1.409 . S
C407 C406 1.362 . S
H408 C414 0.930 . S
H409 C417 0.930 . S
H410 C418 0.930 . S
H411 C419 0.930 . S
H412 C422 0.930 . S
H413 C423 0.930 . S
C414 H408 0.930 . S
C414 C415 1.355 . S
C414 C416 1.415 . S
C415 C414 1.355 . S
C415 C417 1.419 . S
C416 C414 1.415 . S
C416 C421 1.425 . S
C416 C423 1.409 . S
C417 H409 0.930 . S
C417 C415 1.419 . S
C417 C418 1.362 . S
C418 H410 0.930 . S
C418 C417 1.362 . S
C418 C421 1.409 . S
C419 H411 0.930 . S
C419 C420 1.355 . S
C419 C421 1.415 . S
C420 C419 1.355 . S
C420 C422 1.419 . S
C421 C416 1.425 . S
C421 C418 1.409 . S
C421 C419 1.415 . S
C422 H412 0.930 . S
C422 C420 1.419 . S
C422 C423 1.362 . S
C423 H413 0.930 . S
C423 C416 1.409 . S
C423 C422 1.362 . S
H424 C430 0.930 . S
H425 C433 0.930 . S
H426 C434 0.930 . S
H427 C435 0.930 . S
H428 C438 0.930 . S
H429 C439 0.930 . S
C430 H424 0.930 . S
C430 C431 1.355 . S
C430 C432 1.415 . S
C431 C430 1.355 . S
C431 C433 1.419 . S
C432 C430 1.415 . S
C432 C437 1.425 . S
C432 C439 1.409 . S
C433 H425 0.930 . S
C433 C431 1.419 . S
C433 C434 1.362 . S
C434 H426 0.930 . S
C434 C433 1.362 . S
C434 C437 1.409 . S
C435 H427 0.930 . S
C435 C436 1.355 . S
C435 C437 1.415 . S
C436 C435 1.355 . S
C436 C438 1.419 . S
C437 C432 1.425 . S
C437 C434 1.409 . S
C437 C435 1.415 . S
C438 H428 0.930 . S
C438 C436 1.419 . S
C438 C439 1.362 . S
C439 H429 0.930 . S
C439 C432 1.409 . S
C439 C438 1.362 . S
H440 C446 0.930 . S
H441 C449 0.930 . S
H442 C450 0.930 . S
H443 C451 0.930 . S
H444 C454 0.930 . S
H445 C455 0.930 . S
C446 H440 0.930 . S
C446 C447 1.355 . S
C446 C448 1.415 . S
C447 C446 1.355 . S
C447 C449 1.419 1_455 S
C448 C446 1.415 . S
C448 C453 1.425 1_456 S
C448 C455 1.409 1_556 S
C449 H441 0.930 . S
C449 C447 1.419 1_655 S
C449 C450 1.362 . S
C450 H442 0.930 . S
C450 C449 1.362 . S
C450 C453 1.409 1_556 S
C451 H443 0.930 . S
C451 C452 1.355 1_655 S
C451 C453 1.415 . S
C452 C451 1.355 1_455 S
C452 C454 1.419 . S
C453 C448 1.425 1_654 S
C453 C450 1.409 1_554 S
C453 C451 1.415 . S
C454 H444 0.930 . S
C454 C452 1.419 . S
C454 C455 1.362 . S
C455 H445 0.930 . S
C455 C448 1.409 1_554 S
C455 C454 1.362 . S
H456 C462 0.930 . S
H457 C465 0.930 . S
H458 C466 0.930 . S
H459 C467 0.930 . S
H460 C470 0.930 . S
H461 C471 0.930 . S
C462 H456 0.930 . S
C462 C463 1.355 . S
C462 C464 1.415 . S
C463 C462 1.355 . S
C463 C465 1.419 . S
C464 C462 1.415 . S
C464 C469 1.425 . S
C464 C471 1.409 . S
C465 H457 0.930 . S
C465 C463 1.419 . S
C465 C466 1.362 . S
C466 H458 0.930 . S
C466 C465 1.362 . S
C466 C469 1.409 . S
C467 H459 0.930 . S
C467 C468 1.355 . S
C467 C469 1.415 . S
C468 C467 1.355 . S
C468 C470 1.419 . S
C469 C464 1.425 . S
C469 C466 1.409 . S
C469 C467 1.415 . S
C470 H460 0.930 . S
C470 C468 1.419 . S
C470 C471 1.362 . S
C471 H461 0.930 . S
C471 C464 1.409 . S
C471 C470 1.362 . S
H472 C478 0.930 . S
H473 C481 0.930 . S
H474 C482 0.930 . S
H475 C483 0.930 . S
H476 C486 0.930 . S
H477 C487 0.930 . S
C478 H472 0.930 . S
C478 C479 1.355 . S
C478 C480 1.415 . S
C479 C478 1.355 . S
C479 C481 1.419 . S
C480 C478 1.415 . S
C480 C485 1.425 . S
C480 C487 1.409 . S
C481 H473 0.930 . S
C481 C479 1.419 . S
C481 C482 1.362 . S
C482 H474 0.930 . S
C482 C481 1.362 . S
C482 C485 1.409 . S
C483 H475 0.930 . S
C483 C484 1.355 . S
C483 C485 1.415 . S
C484 C483 1.355 . S
C484 C486 1.419 . S
C485 C480 1.425 . S
C485 C482 1.409 . S
C485 C483 1.415 . S
C486 H476 0.930 . S
C486 C484 1.419 . S
C486 C487 1.362 . S
C487 H477 0.930 . S
C487 C480 1.409 . S
C487 C486 1.362 . S
H488 C494 0.930 . S
H489 C497 0.930 . S
H490 C498 0.930 . S
H491 C499 0.930 . S
H492 C502 0.930 . S
H493 C503 0.930 . S
C494 H488 0.930 . S
C494 C495 1.355 . S
C494 C496 1.415 . S
C495 C494 1.355 . S
C495 C497 1.419 . S
C496 C494 1.415 . S
C496 C501 1.425 . S
C496 C503 1.409 . S
C497 H489 0.930 . S
C497 C495 1.419 . S
C497 C498 1.362 . S
C498 H490 0.930 . S
C498 C497 1.362 . S
C498 C501 1.409 . S
C499 H491 0.930 . S
C499 C500 1.355 . S
C499 C501 1.415 . S
C500 C499 1.355 . S
C500 C502 1.419 . S
C501 C496 1.425 . S
C501 C498 1.409 . S
C501 C499 1.415 . S
C502 H492 0.930 . S
C502 C500 1.419 . S
C502 C503 1.362 . S
C503 H493 0.930 . S
C503 C496 1.409 . S
C503 C502 1.362 . S
H504 C510 0.930 . S
H505 C513 0.930 . S
H506 C514 0.930 . S
H507 C515 0.930 . S
H508 C518 0.930 . S
H509 C519 0.930 . S
C510 H504 0.930 . S
C510 C511 1.355 . S
C510 C512 1.415 . S
C511 C510 1.355 . S
C511 C513 1.419 . S
C512 C510 1.415 . S
C512 C517 1.425 . S
C512 C519 1.409 . S
C513 H505 0.930 . S
C513 C511 1.419 . S
C513 C514 1.362 . S
C514 H506 0.930 . S
C514 C513 1.362 . S
C514 C517 1.409 . S
C515 H507 0.930 . S
C515 C516 1.355 . S
C515 C517 1.415 . S
C516 C515 1.355 . S
C516 C518 1.419 . S
C517 C512 1.425 . S
C517 C514 1.409 . S
C517 C515 1.415 . S
C518 H508 0.930 . S
C518 C516 1.419 . S
C518 C519 1.362 . S
C519 H509 0.930 . S
C519 C512 1.409 . S
C519 C518 1.362 . S
H520 C526 0.930 . S
H521 C529 0.930 . S
H522 C530 0.930 . S
H523 C531 0.930 . S
H524 C534 0.930 . S
H525 C535 0.930 . S
C526 H520 0.930 . S
C526 C527 1.355 . S
C526 C528 1.415 . S
C527 C526 1.355 . S
C527 C529 1.419 . S
C528 C526 1.415 . S
C528 C533 1.425 . S
C528 C535 1.409 . S
C529 H521 0.930 . S
C529 C527 1.419 . S
C529 C530 1.362 . S
C530 H522 0.930 . S
C530 C529 1.362 . S
C530 C533 1.409 . S
C531 H523 0.930 . S
C531 C532 1.355 . S
C531 C533 1.415 . S
C532 C531 1.355 . S
C532 C534 1.419 . S
C533 C528 1.425 . S
C533 C530 1.409 . S
C533 C531 1.415 . S
C534 H524 0.930 . S
C534 C532 1.419 . S
C534 C535 1.362 . S
C535 H525 0.930 . S
C535 C528 1.409 . S
C535 C534 1.362 . S
H536 C542 0.930 . S
H537 C545 0.930 . S
H538 C546 0.930 . S
H539 C547 0.930 . S
H540 C550 0.930 . S
H541 C551 0.930 . S
C542 H536 0.930 . S
C542 C543 1.355 . S
C542 C544 1.415 . S
C543 C542 1.355 . S
C543 C545 1.419 . S
C544 C542 1.415 . S
C544 C549 1.425 . S
C544 C551 1.409 . S
C545 H537 0.930 . S
C545 C543 1.419 . S
C545 C546 1.362 . S
C546 H538 0.930 . S
C546 C545 1.362 . S
C546 C549 1.409 . S
C547 H539 0.930 . S
C547 C548 1.355 . S
C547 C549 1.415 . S
C548 C547 1.355 . S
C548 C550 1.419 . S
C549 C544 1.425 . S
C549 C546 1.409 . S
C549 C547 1.415 . S
C550 H540 0.930 . S
C550 C548 1.419 . S
C550 C551 1.362 . S
C551 H541 0.930 . S
C551 C544 1.409 . S
C551 C550 1.362 . S
H552 C558 0.930 . S
H553 C561 0.930 . S
H554 C562 0.930 1_554 S
H555 C563 0.947 . S
H556 C566 0.930 . S
H557 C567 0.930 . S
C558 H552 0.930 . S
C558 C559 1.355 . S
C558 C560 1.415 . S
C559 C558 1.355 . S
C559 C561 1.419 1_655 S
C560 C558 1.415 . S
C560 C565 1.437 1_556 S
C560 C567 1.409 1_556 S
C561 H553 0.930 . S
C561 C559 1.419 1_455 S
C561 C562 1.362 . S
C562 H554 0.930 1_556 S
C562 C561 1.362 . S
C562 C565 1.399 1_456 S
C563 H555 0.947 . S
C563 C564 1.340 1_455 S
C563 C565 1.413 1_455 S
C564 C563 1.340 1_655 S
C564 C566 1.419 . S
C565 C560 1.437 1_554 S
C565 C562 1.399 1_654 S
C565 C563 1.413 1_655 S
C566 H556 0.930 . S
C566 C564 1.419 . S
C566 C567 1.362 . S
C567 H557 0.930 . S
C567 C560 1.409 1_554 S
C567 C566 1.362 . S
C191 C20 1.486 . S
C196 C85 1.539 . S
C207 C16 1.530 . S
C212 C43 1.518 . S
C223 C39 1.532 . S
C228 C66 1.521 . S
C239 C62 1.534 . S
C244 C89 1.477 . S
C255 C19 1.497 1_565 S
C260 C132 1.522 . S
C271 C17 1.546 . S
C276 C111 1.464 . S
C287 C109 1.541 . S
C292 C65 1.455 . S
C303 C134 1.480 . S
C308 C63 1.550 . S
C319 C158 1.515 . S
C324 C131 1.528 . S
C335 C112 1.526 . S
C340 C154 1.549 . S
C351 C181 1.523 . S
C356 C108 1.534 . S
C367 C135 1.520 . S
C372 C177 1.531 . S
C383 C86 1.543 . S
C388 C157 1.458 . S
C399 C155 1.520 . S
C404 C42 1.484 . S
C415 C40 1.550 . S
C420 C180 1.477 . S
C431 C88 1.521 . S
C436 C178 1.534 . S
C447 C18 1.085 . S
C452 C21 1.050 . S
C463 C44 0.983 . S
C468 C41 1.094 . S
C479 C67 1.034 . S
C484 C64 1.077 . S
C495 C90 1.091 1_556 S
C500 C87 1.072 . S
C511 C113 0.972 1_556 S
C516 C110 1.095 . S
C527 C136 0.964 . S
C532 C133 1.093 . S
C543 C159 1.073 . S
C548 C156 1.080 . S
C559 C179 1.074 . S
C564 C182 1.090 . S
