# Generated by pormake.
# Topology wme, (6)-cn, num edge types: 1
# Building blocks:
#     Node 0, Type 0, BuildingBlock: INOVEN_clean_sbu_0, # of connection points: 6
#     Node 1, Type 0, BuildingBlock: INOVEN_clean_sbu_0, # of connection points: 6
#     Node 2, Type 0, BuildingBlock: INOVEN_clean_sbu_0, # of connection points: 6
#     Node 3, Type 0, BuildingBlock: INOVEN_clean_sbu_0, # of connection points: 6
#     Node 4, Type 0, BuildingBlock: INOVEN_clean_sbu_0, # of connection points: 6
#     Node 5, Type 0, BuildingBlock: INOVEN_clean_sbu_0, # of connection points: 6
#     Node 6, Type 0, BuildingBlock: INOVEN_clean_sbu_0, # of connection points: 6
#     Node 7, Type 0, BuildingBlock: INOVEN_clean_sbu_0, # of connection points: 6
#     Node 8, Type 0, BuildingBlock: INOVEN_clean_sbu_0, # of connection points: 6
#     Node 9, Type 0, BuildingBlock: INOVEN_clean_sbu_0, # of connection points: 6
#     Node 10, Type 0, BuildingBlock: INOVEN_clean_sbu_0, # of connection points: 6
#     Node 11, Type 0, BuildingBlock: INOVEN_clean_sbu_0, # of connection points: 6
#     Edge 12, Type (0, 0), BuildingBlock: OJICUG_clean_linker_0, # of connection points: 2
#     Edge 13, Type (0, 0), BuildingBlock: OJICUG_clean_linker_0, # of connection points: 2
#     Edge 14, Type (0, 0), BuildingBlock: OJICUG_clean_linker_0, # of connection points: 2
#     Edge 15, Type (0, 0), BuildingBlock: OJICUG_clean_linker_0, # of connection points: 2
#     Edge 16, Type (0, 0), BuildingBlock: OJICUG_clean_linker_0, # of connection points: 2
#     Edge 17, Type (0, 0), BuildingBlock: OJICUG_clean_linker_0, # of connection points: 2
#     Edge 18, Type (0, 0), BuildingBlock: OJICUG_clean_linker_0, # of connection points: 2
#     Edge 19, Type (0, 0), BuildingBlock: OJICUG_clean_linker_0, # of connection points: 2
#     Edge 20, Type (0, 0), BuildingBlock: OJICUG_clean_linker_0, # of connection points: 2
#     Edge 21, Type (0, 0), BuildingBlock: OJICUG_clean_linker_0, # of connection points: 2
#     Edge 22, Type (0, 0), BuildingBlock: OJICUG_clean_linker_0, # of connection points: 2
#     Edge 23, Type (0, 0), BuildingBlock: OJICUG_clean_linker_0, # of connection points: 2
#     Edge 24, Type (0, 0), BuildingBlock: OJICUG_clean_linker_0, # of connection points: 2
#     Edge 25, Type (0, 0), BuildingBlock: OJICUG_clean_linker_0, # of connection points: 2
#     Edge 26, Type (0, 0), BuildingBlock: OJICUG_clean_linker_0, # of connection points: 2
#     Edge 27, Type (0, 0), BuildingBlock: OJICUG_clean_linker_0, # of connection points: 2
#     Edge 28, Type (0, 0), BuildingBlock: OJICUG_clean_linker_0, # of connection points: 2
#     Edge 29, Type (0, 0), BuildingBlock: OJICUG_clean_linker_0, # of connection points: 2
#     Edge 30, Type (0, 0), BuildingBlock: OJICUG_clean_linker_0, # of connection points: 2
#     Edge 31, Type (0, 0), BuildingBlock: OJICUG_clean_linker_0, # of connection points: 2
#     Edge 32, Type (0, 0), BuildingBlock: OJICUG_clean_linker_0, # of connection points: 2
#     Edge 33, Type (0, 0), BuildingBlock: OJICUG_clean_linker_0, # of connection points: 2
#     Edge 34, Type (0, 0), BuildingBlock: OJICUG_clean_linker_0, # of connection points: 2
#     Edge 35, Type (0, 0), BuildingBlock: OJICUG_clean_linker_0, # of connection points: 2
#     Edge 36, Type (0, 0), BuildingBlock: OJICUG_clean_linker_0, # of connection points: 2
#     Edge 37, Type (0, 0), BuildingBlock: OJICUG_clean_linker_0, # of connection points: 2
#     Edge 38, Type (0, 0), BuildingBlock: OJICUG_clean_linker_0, # of connection points: 2
#     Edge 39, Type (0, 0), BuildingBlock: OJICUG_clean_linker_0, # of connection points: 2
#     Edge 40, Type (0, 0), BuildingBlock: OJICUG_clean_linker_0, # of connection points: 2
#     Edge 41, Type (0, 0), BuildingBlock: OJICUG_clean_linker_0, # of connection points: 2
#     Edge 42, Type (0, 0), BuildingBlock: OJICUG_clean_linker_0, # of connection points: 2
#     Edge 43, Type (0, 0), BuildingBlock: OJICUG_clean_linker_0, # of connection points: 2
#     Edge 44, Type (0, 0), BuildingBlock: OJICUG_clean_linker_0, # of connection points: 2
#     Edge 45, Type (0, 0), BuildingBlock: OJICUG_clean_linker_0, # of connection points: 2
#     Edge 46, Type (0, 0), BuildingBlock: OJICUG_clean_linker_0, # of connection points: 2
#     Edge 47, Type (0, 0), BuildingBlock: OJICUG_clean_linker_0, # of connection points: 2
# Relax obj value: 0.105
# Max RMSD: 0.228
# Mean RMSD: 0.228
data_MOF--net-wme--node1-INOVEN_clean_sbu_0--edge1-OJICUG_clean_linker_0
_symmetry_space_group_name_H-M    P1
_symmetry_Int_Tables_number       1
_symmetry_cell_setting            triclinic
loop_
_symmetry_equiv_pos_as_xyz
'x, y, z'
_cell_length_a     31.951337
_cell_length_b     31.855792
_cell_length_c     36.007676
_cell_angle_alpha  89.959487
_cell_angle_beta   90.197835
_cell_angle_gamma 120.01514
loop_
_atom_site_label
_atom_site_type_symbol
_atom_site_fract_x
_atom_site_fract_y
_atom_site_fract_z
_atom_type_partial_charge
Gd0 Gd 0.23997 0.38779 0.11233 0.0
Gd1 Gd 0.28012 0.33229 0.15187 0.0
C2 C 0.34828 0.44628 0.1419 0.0
C3 C 0.20867 0.44504 0.09135 0.0
C4 C 0.20533 0.48825 0.10082 0.0
C5 C 0.20766 0.5189 0.07202 0.0
C6 C 0.19513 0.49683 0.13709 0.0
C7 C 0.18877 0.56578 0.11519 0.0
C8 C 0.18672 0.53525 0.14418 0.0
C9 C 0.19959 0.55733 0.0791 0.0
C10 C 0.27868 0.34784 0.06663 0.0
C11 C 0.16526 0.27797 0.12532 0.0
C12 C 0.29791 0.26355 0.16892 0.0
C13 C 0.26799 0.21003 0.16789 0.0
C14 C 0.27856 0.18156 0.19158 0.0
C15 C 0.23148 0.18692 0.14084 0.0
C16 C 0.21978 0.10835 0.15909 0.0
C17 C 0.20787 0.1366 0.13634 0.0
C18 C 0.25445 0.13101 0.18734 0.0
C19 C 0.25461 0.38006 0.19882 0.0
O20 O 0.30702 0.44615 0.13927 0.0
O21 O 0.34918 0.40497 0.14381 0.0
O22 O 0.25061 0.45109 0.08113 0.0
O23 O 0.18389 0.40656 0.11188 0.0
O24 O 0.24236 0.35312 0.05741 0.0
O25 O 0.29405 0.36676 0.09769 0.0
O26 O 0.20136 0.27491 0.14057 0.0
O27 O 0.17104 0.31869 0.11201 0.0
O28 O 0.28766 0.28675 0.19394 0.0
O29 O 0.30639 0.2844 0.13663 0.0
O30 O 0.29327 0.37656 0.20239 0.0
O31 O 0.23062 0.35755 0.16995 0.0
H32 H 0.21475 0.51248 0.04378 0.0
H33 H 0.19293 0.47346 0.15978 0.0
H34 H 0.17906 0.54137 0.17231 0.0
H35 H 0.20105 0.58005 0.05616 0.0
H36 H 0.30673 0.19855 0.2124 0.0
H37 H 0.22267 0.20787 0.122 0.0
H38 H 0.18142 0.11986 0.11429 0.0
H39 H 0.2646 0.10987 0.20487 0.0
Gd40 Gd 0.88338 0.23382 0.61677 0.0
Gd41 Gd 0.97621 0.26395 0.65657 0.0
C42 C 0.94211 0.34158 0.64714 0.0
C43 C 0.79954 0.21628 0.59194 0.0
C44 C 0.74849 0.19738 0.60248 0.0
C45 C 0.71225 0.17401 0.5755 0.0
C46 C 0.73568 0.2058 0.63782 0.0
C47 C 0.65139 0.17035 0.61817 0.0
C48 C 0.68763 0.1925 0.64555 0.0
C49 C 0.6642 0.16052 0.58325 0.0
C50 C 0.96282 0.26699 0.57132 0.0
C51 C 0.905 0.15115 0.63575 0.0
C52 C 0.05875 0.27549 0.6793 0.0
C53 C 0.08495 0.24852 0.67544 0.0
C54 C 0.12786 0.26399 0.69545 0.0
C55 C 0.06963 0.20974 0.65024 0.0
C56 C 0.14164 0.20462 0.66352 0.0
C57 C 0.09764 0.18765 0.64453 0.0
C58 C 0.15608 0.24242 0.68942 0.0
C59 C 0.90469 0.2465 0.70365 0.0
O60 O 0.89875 0.30341 0.64348 0.0
O61 O 0.98134 0.33717 0.64787 0.0
O62 O 0.83161 0.25747 0.6067 0.0
O63 O 0.81499 0.1854 0.58909 0.0
O64 O 0.91986 0.23344 0.56194 0.0
O65 O 0.96045 0.28286 0.60234 0.0
O66 O 0.95045 0.18679 0.63653 0.0
O67 O 0.8698 0.16111 0.6343 0.0
O68 O 1.01984 0.25583 0.69964 0.0
O69 O 0.05303 0.29409 0.64895 0.0
O70 O 0.94875 0.28209 0.70665 0.0
O71 O 0.89971 0.22098 0.67496 0.0
H72 H 0.72137 0.16753 0.54795 0.0
H73 H 0.76297 0.22373 0.65914 0.0
H74 H 0.67894 0.20017 0.67285 0.0
H75 H 0.63745 0.14417 0.56136 0.0
H76 H 0.14046 0.29398 0.71479 0.0
H77 H 1.03708 0.19778 0.63399 0.0
H78 H 0.08628 0.15917 0.62395 0.0
H79 H 0.19018 0.25642 0.70407 0.0
Gd80 Gd 0.69048 0.86646 0.11057 0.0
Gd81 Gd 0.7434 0.96626 0.14225 0.0
C82 C 0.62939 0.9171 0.13254 0.0
C83 C 0.63502 0.77696 0.09023 0.0
C84 C 0.59165 0.73052 0.09991 0.0
C85 C 0.563 0.70007 0.0711 0.0
C86 C 0.58113 0.71387 0.13678 0.0
C87 C 0.51445 0.63636 0.1155 0.0
C88 C 0.5429 0.66708 0.14449 0.0
C89 C 0.52482 0.65359 0.07876 0.0
C90 C 0.73746 0.94131 0.06149 0.0
C91 C 0.79845 0.90298 0.1296 0.0
C92 C 0.80765 0.05651 0.15127 0.0
C93 C 0.86092 0.08417 0.14749 0.0
C94 C 0.88957 0.11561 0.17596 0.0
C95 C 0.8837 0.07924 0.11577 0.0
C96 C 0.9626 0.13859 0.14024 0.0
C97 C 0.93393 0.10647 0.11205 0.0
C98 C 0.93998 0.14241 0.17248 0.0
C99 C 0.69572 0.90033 0.19505 0.0
O100 O 0.63 0.87595 0.13273 0.0
O101 O 0.67023 0.95948 0.13123 0.0
O102 O 0.6293 0.81249 0.07805 0.0
O103 O 0.67253 0.79163 0.112 0.0
O104 O 0.73851 0.90134 0.059 0.0
O105 O 0.7119 0.93855 0.08835 0.0
O106 O 0.80297 0.94652 0.13343 0.0
O107 O 0.75618 0.86423 0.1248 0.0
O108 O 0.79057 1.02574 0.17882 0.0
O109 O 0.78267 0.03931 0.1206 0.0
O110 O 0.70112 0.94358 0.19444 0.0
O111 O 0.71755 0.89411 0.16791 0.0
H112 H 0.57085 0.71187 0.04246 0.0
H113 H 0.60288 0.73668 0.15953 0.0
H114 H 0.53533 0.65509 0.17308 0.0
H115 H 0.50383 0.63074 0.05577 0.0
H116 H 0.8729 0.11977 0.20078 0.0
H117 H 0.86272 0.0546 0.09367 0.0
H118 H 0.95041 0.10248 0.08705 0.0
H119 H 0.96115 0.16719 0.19452 0.0
Gd120 Gd 0.84685 0.66986 0.61216 0.0
Gd121 Gd 0.80816 0.72573 0.65152 0.0
C122 C 0.73997 0.61176 0.64262 0.0
C123 C 0.87792 0.61295 0.58959 0.0
C124 C 0.88573 0.57236 0.59869 0.0
C125 C 0.91428 0.56284 0.57462 0.0
C126 C 0.8688 0.54563 0.63165 0.0
C127 C 0.90982 0.50039 0.61628 0.0
C128 C 0.88057 0.50973 0.64031 0.0
C129 C 0.92638 0.52754 0.58331 0.0
C130 C 0.80614 0.70874 0.56672 0.0
C131 C 0.92353 0.77892 0.62848 0.0
C132 C 0.79122 0.79662 0.65916 0.0
C133 C 0.81671 0.84945 0.66633 0.0
C134 C 0.79185 0.86988 0.68354 0.0
C135 C 0.86171 0.88046 0.64966 0.0
C136 C 0.85259 0.95059 0.66234 0.0
C137 C 0.87933 0.93043 0.64755 0.0
C138 C 0.80972 0.91992 0.68181 0.0
C139 C 0.83473 0.68032 0.69989 0.0
O140 O 0.78147 0.61232 0.64107 0.0
O141 O 0.73904 0.65311 0.64277 0.0
O142 O 0.83377 0.604 0.58368 0.0
O143 O 0.90441 0.65325 0.60778 0.0
O144 O 0.84235 0.70362 0.55718 0.0
O145 O 0.79177 0.68988 0.59787 0.0
O146 O 0.88883 0.78067 0.6471 0.0
O147 O 0.91566 0.73972 0.61087 0.0
O148 O 0.78404 0.76624 0.68637 0.0
O149 O 0.80345 0.78458 0.62816 0.0
O150 O 0.79791 0.68686 0.7045 0.0
O151 O 0.85775 0.7004 0.66999 0.0
H152 H 0.9282 0.58356 0.54926 0.0
H153 H 0.84698 0.55282 0.65073 0.0
H154 H 0.86649 0.48917 0.66565 0.0
H155 H 0.94965 0.52233 0.56438 0.0
H156 H 0.75713 0.84684 0.69645 0.0
H157 H 0.88179 0.86579 0.63602 0.0
H158 H 0.91236 0.95267 0.6323 0.0
H159 H 0.78885 0.93431 0.6945 0.0
Gd160 Gd 0.20891 0.84233 0.11224 0.0
Gd161 Gd 0.11062 0.79269 0.14825 0.0
C162 C 0.16231 0.73088 0.1371 0.0
C163 C 0.29823 0.8775 0.09146 0.0
C164 C 0.34406 0.87781 0.09865 0.0
C165 C 0.37882 0.89346 0.07042 0.0
C166 C 0.35578 0.86766 0.13393 0.0
C167 C 0.43746 0.89145 0.11294 0.0
C168 C 0.40197 0.87419 0.14094 0.0
C169 C 0.42498 0.9003 0.07745 0.0
C170 C 0.13058 0.80701 0.06576 0.0
C171 C 0.16808 0.9108 0.13092 0.0
C172 C 1.02108 0.76745 0.15803 0.0
C173 C 0.99431 0.79423 0.15312 0.0
C174 C 0.97594 0.8067 0.18403 0.0
C175 C 0.98709 0.80792 0.11753 0.0
C176 C 0.94151 0.84349 0.14371 0.0
C177 C 0.96105 0.83215 0.11293 0.0
C178 C 0.94998 0.8312 0.1794 0.0
C179 C 0.18145 0.81815 0.19817 0.0
O180 O 0.20216 0.7735 0.13446 0.0
O181 O 0.11909 0.72702 0.13963 0.0
O182 O 0.26217 0.83893 0.07635 0.0
O183 O 0.28428 0.8971 0.11687 0.0
O184 O 0.16959 0.84834 0.0604 0.0
O185 O 0.13622 0.78755 0.09385 0.0
O186 O 0.12747 0.87103 0.1402 0.0
O187 O 0.20667 0.90958 0.12055 0.0
O188 O 0.05223 0.7812 0.18546 0.0
O189 O 1.0371 0.75756 0.12777 0.0
O190 O 0.13952 0.77859 0.19995 0.0
O191 O 0.1836 0.8436 0.17007 0.0
H192 H 0.37066 0.90165 0.04304 0.0
H193 H 0.32968 0.85586 0.15626 0.0
H194 H 0.41035 0.8671 0.1686 0.0
H195 H 0.451 0.91267 0.05506 0.0
H196 H 0.98109 0.79689 0.21179 0.0
H197 H 1.0011 0.79956 0.09301 0.0
H198 H 0.95573 0.84154 0.08508 0.0
H199 H 0.93504 0.83895 0.20367 0.0
Gd200 Gd 0.39664 0.19252 0.61111 0.0
Gd201 Gd 0.34537 0.09366 0.64329 0.0
C202 C 0.45879 0.14302 0.63345 0.0
C203 C 0.45191 0.28143 0.58918 0.0
C204 C 0.49442 0.32847 0.59948 0.0
C205 C 0.52687 0.3566 0.57158 0.0
C206 C 0.50119 0.34752 0.63568 0.0
C207 C 0.57206 0.42245 0.61552 0.0
C208 C 0.53959 0.39422 0.64358 0.0
C209 C 0.56529 0.40296 0.57949 0.0
C210 C 0.34857 0.11727 0.56246 0.0
C211 C 0.29006 0.15653 0.63322 0.0
C212 C 0.28184 1.00351 0.65367 0.0
C213 C 0.22853 0.97521 0.65015 0.0
C214 C 0.20066 0.94437 0.67904 0.0
C215 C 0.20495 0.97885 0.61829 0.0
C216 C 0.12678 0.91927 0.64345 0.0
C217 C 0.15467 0.95092 0.61487 0.0
C218 C 0.15024 0.91682 0.67582 0.0
C219 C 0.39405 0.161 0.69577 0.0
O220 O 0.45769 0.18392 0.63342 0.0
O221 O 0.41826 0.10046 0.63224 0.0
O222 O 0.45909 0.2459 0.57976 0.0
O223 O 0.41274 0.26692 0.60873 0.0
O224 O 0.34702 0.15699 0.56023 0.0
O225 O 0.37505 0.12037 0.58889 0.0
O226 O 0.2853 0.1127 0.63439 0.0
O227 O 0.33272 0.1952 0.6298 0.0
O228 O 0.29907 0.03517 0.6807 0.0
O229 O 0.30627 1.01994 0.62281 0.0
O230 O 0.38951 0.11814 0.69491 0.0
O231 O 0.37101 0.1659 0.66883 0.0
H232 H 0.52206 0.34296 0.54341 0.0
H233 H 0.47658 0.32656 0.65774 0.0
H234 H 0.54431 0.408 0.67169 0.0
H235 H 0.58948 0.42389 0.5572 0.0
H236 H 0.21797 0.94123 0.70398 0.0
H237 H 0.22533 1.00299 0.59584 0.0
H238 H 0.13758 0.95397 0.58978 0.0
H239 H 0.12974 0.89248 0.69819 0.0
Gd240 Gd 0.67822 0.82441 0.42048 0.0
Gd241 Gd 0.73993 0.79154 0.38669 0.0
C242 C 0.62772 0.71793 0.38906 0.0
C243 C 0.61247 0.84303 0.44424 0.0
C244 C 0.58133 0.86301 0.43356 0.0
C245 C 0.56745 0.88493 0.4609 0.0
C246 C 0.56213 0.85714 0.39758 0.0
C247 C 0.51295 0.89202 0.41721 0.0
C248 C 0.52817 0.87144 0.3895 0.0
C249 C 0.53367 0.8994 0.45283 0.0
C250 C 0.7183 0.78773 0.46928 0.0
C251 C 0.78208 0.90625 0.40177 0.0
C252 C 0.81199 0.77725 0.37605 0.0
C253 C 0.86483 0.80659 0.37148 0.0
C254 C 0.88841 0.78796 0.35028 0.0
C255 C 0.89256 0.84932 0.39226 0.0
C256 C 0.96619 0.84967 0.37508 0.0
C257 C 0.94295 0.87074 0.39402 0.0
C258 C 0.93864 0.80939 0.35193 0.0
C259 C 0.6939 0.812 0.33389 0.0
O260 O 0.62517 0.75784 0.39009 0.0
O261 O 0.66992 0.71981 0.39366 0.0
O262 O 0.60295 0.80195 0.42905 0.0
O263 O 0.65877 0.87329 0.44774 0.0
O264 O 0.71467 0.82558 0.47602 0.0
O265 O 0.70023 0.77149 0.43831 0.0
O266 O 0.79169 0.87051 0.40215 0.0
O267 O 0.73711 0.89673 0.40235 0.0
O268 O 0.78422 0.77628 0.34889 0.0
O269 O 0.79616 0.78053 0.40853 0.0
O270 O 0.70311 0.77671 0.33239 0.0
O271 O 0.71104 0.83695 0.3635 0.0
H272 H 0.58159 0.88945 0.48891 0.0
H273 H 0.5724 0.84036 0.37601 0.0
H274 H 0.5132 0.86566 0.36171 0.0
H275 H 0.52227 0.91445 0.47493 0.0
H276 H 0.8678 0.75518 0.3341 0.0
H277 H 0.87518 0.86445 0.40894 0.0
H278 H 0.96323 0.90162 0.41214 0.0
H279 H 0.95577 0.79284 0.3366 0.0
Gd280 Gd 0.88045 0.67332 0.92768 0.0
Gd281 Gd 0.98254 0.73311 0.89854 0.0
C282 C 0.93429 0.61742 0.90831 0.0
C283 C 0.78894 0.62809 0.94339 0.0
C284 C 0.74175 0.58486 0.9351 0.0
C285 C 0.70677 0.56621 0.96312 0.0
C286 C 0.72988 0.56376 0.89956 0.0
C287 C 0.64805 0.50629 0.9203 0.0
C288 C 0.68335 0.52484 0.89221 0.0
C289 C 0.66049 0.5274 0.95586 0.0
C290 C 0.95277 0.71549 0.97927 0.0
C291 C 0.91683 0.78414 0.90589 0.0
C292 C 0.07424 0.79388 0.89515 0.0
C293 C 0.10475 0.84662 0.89984 0.0
C294 C 0.1453 0.8721 0.87703 0.0
C295 C 0.09138 0.87247 0.92394 0.0
C296 C 0.16024 0.94826 0.90397 0.0
C297 C 0.11952 0.92288 0.92661 0.0
C298 C 0.17268 0.92265 0.87886 0.0
C299 C 0.92866 0.6911 0.83808 0.0
O300 O 0.89254 0.6158 0.90459 0.0
O301 O 0.97492 0.65953 0.91314 0.0
O302 O 0.82065 0.62172 0.96186 0.0
O303 O 0.80841 0.66091 0.91736 0.0
O304 O 0.91758 0.67112 0.9816 0.0
O305 O 0.94778 0.73405 0.95015 0.0
O306 O 0.95881 0.78938 0.89527 0.0
O307 O 0.88231 0.74353 0.92011 0.0
O308 O 0.04539 0.78111 0.86648 0.0
O309 O 0.05348 0.76769 0.92476 0.0
O310 O 0.97513 0.71637 0.83888 0.0
O311 O 0.91101 0.68458 0.8707 0.0
H312 H 0.71504 0.5822 0.99063 0.0
H313 H 0.75638 0.57759 0.87749 0.0
H314 H 0.67515 0.50892 0.8647 0.0
H315 H 0.63416 0.51438 0.97805 0.0
H316 H 0.15538 0.85291 0.85744 0.0
H317 H 0.05879 0.85389 0.94009 0.0
H318 H 0.1091 0.94215 0.94585 0.0
H319 H 0.20399 0.94171 0.86112 0.0
Gd320 Gd 0.23737 0.86743 0.42546 0.0
Gd321 Gd 0.28127 0.96548 0.39389 0.0
C322 C 0.34769 0.91856 0.40198 0.0
C323 C 0.2081 0.7801 0.44993 0.0
C324 C 0.19953 0.7319 0.43871 0.0
C325 C 0.1777 0.69352 0.46407 0.0
C326 C 0.21188 0.72328 0.4033 0.0
C327 C 0.18 0.63785 0.4188 0.0
C328 C 0.20233 0.67665 0.39347 0.0
C329 C 0.16801 0.64701 0.45427 0.0
C330 C 0.26332 0.94208 0.47464 0.0
C331 C 0.16424 0.89892 0.40192 0.0
C332 C 0.30588 0.05541 0.38419 0.0
C333 C 0.28121 0.08398 0.38841 0.0
C334 C 0.28275 0.11418 0.35941 0.0
C335 C 0.25619 0.08165 0.42112 0.0
C336 C 0.23686 0.14117 0.39643 0.0
C337 C 0.23457 0.11022 0.42518 0.0
C338 C 0.26059 0.14234 0.36329 0.0
C339 C 0.26491 0.90074 0.34003 0.0
O340 O 0.30635 0.87725 0.40169 0.0
O341 O 0.34861 0.96055 0.4042 0.0
O342 O 0.2529 0.8153 0.45188 0.0
O343 O 0.17939 0.79397 0.43571 0.0
O344 O 0.22227 0.9023 0.47617 0.0
O345 O 0.28684 0.93972 0.44818 0.0
O346 O 0.20183 0.94352 0.40389 0.0
O347 O 0.17076 0.86149 0.40271 0.0
O348 O 0.29056 1.02371 0.35718 0.0
O349 O 0.31504 0.03904 0.41468 0.0
O350 O 0.30212 0.94419 0.34173 0.0
O351 O 0.23659 0.89294 0.36732 0.0
H352 H 0.16809 0.69953 0.49159 0.0
H353 H 0.22867 0.75248 0.38331 0.0
H354 H 0.21189 0.67085 0.36589 0.0
H355 H 0.15177 0.61837 0.47474 0.0
H356 H 0.30159 0.11639 0.33388 0.0
H357 H 0.25367 0.05812 0.44372 0.0
H358 H 0.21611 0.10819 0.45088 0.0
H359 H 0.26327 0.16613 0.34078 0.0
Gd360 Gd 0.40588 0.22973 0.92551 0.0
Gd361 Gd 0.34759 0.26524 0.88552 0.0
C362 C 0.46045 0.33748 0.89408 0.0
C363 C 0.46326 0.19936 0.94797 0.0
C364 C 0.5057 0.19484 0.9395 0.0
C365 C 0.52203 0.17467 0.96651 0.0
C366 C 0.52713 0.20577 0.90427 0.0
C367 C 0.58013 0.17486 0.92301 0.0
C368 C 0.56432 0.19607 0.89613 0.0
C369 C 0.55886 0.16471 0.95838 0.0
C370 C 0.36573 0.26889 0.9703 0.0
C371 C 0.29691 0.15175 0.91297 0.0
C372 C 0.27509 0.27874 0.87481 0.0
C373 C 0.22228 0.2492 0.86881 0.0
C374 C 0.19857 0.26945 0.84951 0.0
C375 C 0.19442 0.20508 0.88794 0.0
C376 C 0.12087 0.20656 0.87335 0.0
C377 C 0.14408 0.18392 0.89017 0.0
C378 C 0.14834 0.24831 0.85171 0.0
C379 C 0.3943 0.23886 0.83836 0.0
O380 O 0.46268 0.29744 0.89797 0.0
O381 O 0.41819 0.33617 0.89304 0.0
O382 O 0.46983 0.24219 0.95646 0.0
O383 O 0.42517 0.17391 0.92717 0.0
O384 O 0.37217 0.23347 0.98026 0.0
O385 O 0.3839 0.28349 0.93902 0.0
O386 O 0.29412 0.18498 0.893 0.0
O387 O 0.33667 0.16086 0.93017 0.0
O388 O 0.30465 0.28326 0.84787 0.0
O389 O 0.2895 0.2725 0.90715 0.0
O390 O 0.38755 0.27555 0.83329 0.0
O391 O 0.37394 0.21609 0.86814 0.0
H392 H 0.50559 0.16571 0.99378 0.0
H393 H 0.51449 0.22084 0.88296 0.0
H394 H 0.58 0.20418 0.86862 0.0
H395 H 0.57085 0.14927 0.97987 0.0
H396 H 0.21914 0.3034 0.83478 0.0
H397 H 0.21172 0.18869 0.90336 0.0
H398 H 0.12387 0.152 0.90724 0.0
H399 H 0.13117 0.26624 0.83823 0.0
Gd400 Gd 0.20596 0.39149 0.42725 0.0
Gd401 Gd 0.10846 0.33222 0.39343 0.0
C402 C 0.15426 0.44669 0.39553 0.0
C403 C 0.29465 0.44976 0.44752 0.0
C404 C 0.34203 0.4896 0.43613 0.0
C405 C 0.37982 0.50838 0.46213 0.0
C406 C 0.35138 0.50594 0.39931 0.0
C407 C 0.4367 0.55867 0.41448 0.0
C408 C 0.39837 0.54035 0.38858 0.0
C409 C 0.4267 0.54261 0.45147 0.0
C410 C 0.13029 0.35645 0.47578 0.0
C411 C 0.17414 0.28175 0.41301 0.0
C412 C 1.02048 0.26107 0.39422 0.0
C413 C 0.99208 0.20767 0.39018 0.0
C414 C 0.97046 0.18516 0.35637 0.0
C415 C 0.98332 0.17864 0.42198 0.0
C416 C 0.93086 0.10617 0.38683 0.0
C417 C 0.95348 0.12861 0.42024 0.0
C418 C 0.93988 0.13471 0.35475 0.0
C419 C 0.17386 0.37417 0.34074 0.0
O420 O 0.19578 0.44711 0.39665 0.0
O421 O 0.11265 0.40532 0.39952 0.0
O422 O 0.25971 0.45912 0.45316 0.0
O423 O 0.28013 0.40832 0.43086 0.0
O424 O 0.17139 0.35989 0.48374 0.0
O425 O 0.13282 0.37341 0.44427 0.0
O426 O 0.13557 0.27825 0.39642 0.0
O427 O 0.20653 0.32216 0.42873 0.0
O428 O 1.03878 0.28907 0.3649 0.0
O429 O 0.04993 0.27567 0.42262 0.0
O430 O 0.12934 0.36515 0.33834 0.0
O431 O 0.18144 0.35721 0.37072 0.0
H432 H 0.37321 0.49587 0.49066 0.0
H433 H 0.32263 0.49137 0.37879 0.0
H434 H 0.40486 0.55188 0.35985 0.0
H435 H 0.45505 0.55671 0.47229 0.0
H436 H 0.97618 0.20651 0.33152 0.0
H437 H 0.99844 0.19464 0.44876 0.0
H438 H 0.94636 0.10769 0.44553 0.0
H439 H 0.92265 0.11806 0.32864 0.0
Gd440 Gd 0.85365 0.19466 0.92819 0.0
Gd441 Gd 0.8065 0.09569 0.89609 0.0
C442 C 0.74284 0.14547 0.90553 0.0
C443 C 0.88656 0.28289 0.95227 0.0
C444 C 0.89231 0.33085 0.94359 0.0
C445 C 0.90949 0.36643 0.97144 0.0
C446 C 0.88392 0.34278 0.90785 0.0
C447 C 0.91095 0.42595 0.92799 0.0
C448 C 0.89301 0.38985 0.90016 0.0
C449 C 0.91874 0.41341 0.96378 0.0
C450 C 0.82664 0.11907 0.97666 0.0
C451 C 0.92453 0.15976 0.90411 0.0
C452 C 0.78 1.00557 0.88587 0.0
C453 C 0.80586 0.97805 0.8882 0.0
C454 C 0.80201 0.94705 0.85907 0.0
C455 C 0.83521 0.98306 0.91899 0.0
C456 C 0.85399 0.92421 0.8925 0.0
C457 C 0.8587 0.95612 0.92124 0.0
C458 C 0.82605 0.92049 0.86111 0.0
C459 C 0.82204 0.16073 0.84329 0.0
O460 O 0.78466 0.18632 0.9054 0.0
O461 O 0.74078 0.10289 0.90738 0.0
O462 O 0.84324 0.2472 0.95969 0.0
O463 O 0.91167 0.26917 0.93239 0.0
O464 O 0.86828 0.15831 0.9784 0.0
O465 O 0.80327 0.12249 0.95041 0.0
O466 O 0.88593 0.11568 0.90375 0.0
O467 O 0.91993 0.19815 0.90768 0.0
O468 O 0.79272 0.03671 0.85863 0.0
O469 O 0.77342 1.02238 0.91715 0.0
O470 O 0.78459 0.11743 0.84472 0.0
O471 O 0.85134 0.16804 0.86998 0.0
H472 H 0.91628 0.358 0.99919 0.0
H473 H 0.87097 0.31593 0.88587 0.0
H474 H 0.88676 0.3982 0.87224 0.0
H475 H 0.93154 0.43979 0.98608 0.0
H476 H 0.77999 0.94301 0.83491 0.0
H477 H 0.83973 1.00747 0.9415 0.0
H478 H 0.88033 0.95997 0.94561 0.0
H479 H 0.82149 0.89584 0.83871 0.0
C480 C 0.15759 0.97132 0.16803 0.0
C481 C 0.17315 0.95915 0.13541 0.0
H482 H 0.1613 1.02896 0.20167 0.0
C483 C 0.20093 0.99579 0.10973 0.0
H484 H 0.13696 0.94381 0.18857 0.0
C485 C 0.21404 0.0439 0.1169 0.0
C486 C 0.20069 0.05653 0.15033 0.0
H487 H 0.21385 0.98738 0.08459 0.0
H488 H 0.23653 0.07165 0.09707 0.0
C489 C 0.17185 1.01988 0.17569 0.0
C490 C 0.2036 0.12955 0.65186 0.0
C491 C 0.24842 0.16471 0.63726 0.0
H492 H 0.1338 0.11459 0.67174 0.0
C493 C 0.25543 0.21098 0.62883 0.0
H494 H 0.1971 0.09364 0.65861 0.0
C495 C 0.22002 0.22284 0.63664 0.0
C496 C 0.17624 0.18874 0.65269 0.0
H497 H 0.28906 0.2389 0.61699 0.0
H498 H 0.22722 0.25923 0.63071 0.0
C499 C 0.16756 0.14151 0.65944 0.0
C500 C 0.04846 0.17557 0.16328 0.0
C501 C 1.01556 0.17012 0.13503 0.0
H502 H 0.12242 0.2131 0.18176 0.0
C503 C 1.03334 0.19698 0.10215 0.0
H504 H 1.03571 0.15521 0.18888 0.0
C505 C 0.08259 0.23025 0.09828 0.0
C506 C 0.11533 0.23662 0.12684 0.0
H507 H 1.00884 0.19386 0.08005 0.0
H508 H 0.09493 0.25211 0.07333 0.0
C509 C 0.09805 0.20818 0.15904 0.0
C510 C 0.83144 1.01474 0.64717 0.0
C511 C 0.86701 1.00227 0.65498 0.0
H512 H 0.81542 0.07071 0.63463 0.0
C513 C 0.91589 0.03922 0.65447 0.0
H514 H 0.79354 0.98727 0.6462 0.0
C515 C 0.92861 0.08749 0.64724 0.0
C516 C 0.89277 0.09986 0.64031 0.0
H517 H 0.94432 0.03107 0.66035 0.0
H518 H 0.96643 0.11512 0.64781 0.0
C519 C 0.84409 0.06274 0.64003 0.0
C520 C 0.87343 0.84465 0.11011 0.0
C521 C 0.90889 0.86396 0.13808 0.0
H522 H 0.81161 0.84265 0.0854 0.0
C523 C 0.91086 0.90064 0.16124 0.0
H524 H 0.87031 0.816 0.09209 0.0
C525 C 0.87712 0.9165 0.15706 0.0
C526 C 0.84046 0.89527 0.1301 0.0
H527 H 0.93794 0.91642 0.18294 0.0
H528 H 0.87812 0.94332 0.17607 0.0
C529 C 0.83964 0.8599 0.10632 0.0
C530 C 1.00643 0.82639 0.60191 0.0
C531 C 0.97402 0.81938 0.63073 0.0
H532 H 0.07982 0.86368 0.58327 0.0
C533 C 0.99169 0.84759 0.6631 0.0
H534 H 0.99386 0.80502 0.57669 0.0
C535 C 1.04124 0.8807 0.66715 0.0
C536 C 0.07378 0.88687 0.63858 0.0
H537 H 0.96762 0.84248 0.68595 0.0
H538 H 0.0542 0.90105 0.69278 0.0
C539 C 0.05564 0.86005 0.60564 0.0
C540 C 0.07614 0.84053 0.39892 0.0
C541 C 0.11396 0.88897 0.39737 0.0
H542 H 1.00071 0.7908 0.39337 0.0
C543 C 0.10269 0.9256 0.39007 0.0
H544 H 0.08301 0.81124 0.40515 0.0
C545 C 0.05451 0.91346 0.38322 0.0
C546 C 1.01732 0.86459 0.38325 0.0
H547 H 0.13099 0.96325 0.38895 0.0
H548 H 0.04649 0.94198 0.37706 0.0
C549 C 1.02871 0.82858 0.39193 0.0
C550 C 0.21646 1.02124 0.94054 0.0
C551 C 0.19095 1.00123 0.90747 0.0
H552 H 0.2705 0.08515 0.96812 0.0
C553 C 0.19719 0.03168 0.87726 0.0
H554 H 0.21219 0.9982 0.96407 0.0
C555 C 0.22952 0.08154 0.87985 0.0
C556 C 0.25691 0.10123 0.91235 0.0
H557 H 0.17774 1.01673 0.8515 0.0
H558 H 0.23496 0.1042 0.85583 0.0
C559 C 0.24965 0.07079 0.94282 0.0
C560 C 0.17226 0.21237 0.37856 0.0
C561 C 0.18488 0.24173 0.41043 0.0
H562 H 0.17943 0.15785 0.34886 0.0
C563 C 0.2125 0.23599 0.4383 0.0
H564 H 0.15161 0.21654 0.35641 0.0
C565 C 0.22789 0.20219 0.4342 0.0
C566 C 0.21688 0.17404 0.40177 0.0
H567 H 0.22296 0.25831 0.46308 0.0
H568 H 0.24998 0.19936 0.45585 0.0
C569 C 0.18857 0.17918 0.37409 0.0
C570 C 1.0318 0.14386 0.87874 0.0
C571 C 0.07018 0.19182 0.88282 0.0
H572 H 0.95476 0.09552 0.88207 0.0
C573 C 0.06043 0.22708 0.8967 0.0
H574 H 1.0386 0.11586 0.86852 0.0
C575 C 1.0134 0.21557 0.90481 0.0
C576 C 0.97433 0.16839 0.89903 0.0
H577 H 0.08942 0.26396 0.90121 0.0
H578 H 1.00777 0.24432 0.91507 0.0
C579 C 0.98401 0.13223 0.8866 0.0
C580 C 0.84789 0.03794 0.37326 0.0
C581 C 0.8946 0.05383 0.38696 0.0
H582 H 0.77548 0.97884 0.36786 0.0
C583 C 0.90469 1.02033 0.40443 0.0
H584 H 0.83904 0.06313 0.3601 0.0
C585 C 0.86839 0.97195 0.4087 0.0
C586 C 0.82121 0.95664 0.39632 0.0
H587 H 0.94049 0.03181 0.4153 0.0
H588 H 0.87686 0.94695 0.42263 0.0
C589 C 0.81143 0.98991 0.37819 0.0
C590 C 0.88214 0.83161 0.93275 0.0
C591 C 0.90732 0.82479 0.90366 0.0
H592 H 0.84611 0.86868 0.95203 0.0
C593 C 0.91768 0.85304 0.87144 0.0
H594 H 0.87353 0.81005 0.95783 0.0
C595 C 0.90107 0.88614 0.8678 0.0
C596 C 0.87493 0.89212 0.89671 0.0
H597 H 0.93645 0.84786 0.84848 0.0
H598 H 0.90805 0.90657 0.84228 0.0
C599 C 0.86653 0.86521 0.92947 0.0
C600 C 0.20772 0.69251 0.11296 0.0
C601 C 0.16784 0.68772 0.13299 0.0
H602 H 0.24534 0.65806 0.09182 0.0
C603 C 0.13457 0.64225 0.14773 0.0
H604 H 0.23378 0.72689 0.10078 0.0
C605 C 0.14167 0.60247 0.14278 0.0
C606 C 0.18143 0.60752 0.12229 0.0
H607 H 0.10354 0.63758 0.16322 0.0
H608 H 0.11565 0.56762 0.15428 0.0
C609 C 0.21427 0.65297 0.10753 0.0
C610 C 0.56055 0.11771 0.61233 0.0
C611 C 0.60125 0.16057 0.6251 0.0
H612 H 0.48328 0.07789 0.60565 0.0
C613 C 0.5939 0.19556 0.64295 0.0
H614 H 0.56494 0.08992 0.59859 0.0
C615 C 0.54739 0.18873 0.64684 0.0
C616 C 0.50684 0.14649 0.63335 0.0
H617 H 0.62431 0.22924 0.6527 0.0
H618 H 0.54332 0.21717 0.65978 0.0
C619 C 0.51376 0.11057 0.61668 0.0
C620 C 0.4287 0.5723 0.10499 0.0
C621 C 0.4728 0.58717 0.12314 0.0
H622 H 0.35581 0.51657 0.09664 0.0
C623 C 0.47645 0.55462 0.14775 0.0
H624 H 0.42445 0.59643 0.08612 0.0
C625 C 0.43663 0.5079 0.15369 0.0
C626 C 0.39244 0.49374 0.13575 0.0
H627 H 0.51019 0.56507 0.16197 0.0
H628 H 0.44006 0.48343 0.1727 0.0
C629 C 0.38919 0.52647 0.11129 0.0
C630 C 0.92655 0.43465 0.59597 0.0
C631 C 0.92277 0.4623 0.62487 0.0
H632 H 0.93779 0.37608 0.58081 0.0
C633 C 0.93109 0.45278 0.66163 0.0
H634 H 0.91907 0.4396 0.56745 0.0
C635 C 0.94151 0.41569 0.66921 0.0
C636 C 0.94481 0.38826 0.64013 0.0
H637 H 0.92886 0.47346 0.68461 0.0
H638 H 0.94503 0.40717 0.69777 0.0
C639 C 0.93761 0.39833 0.60353 0.0
C640 C 0.54057 0.87297 0.14569 0.0
C641 C 0.58147 0.91408 0.13133 0.0
H642 H 0.46347 0.83371 0.15136 0.0
C643 C 0.57495 0.94899 0.11244 0.0
H644 H 0.54435 0.8453 0.1603 0.0
C645 C 0.52834 0.94195 0.10682 0.0
C646 C 0.48727 0.90023 0.1205 0.0
H647 H 0.60563 0.98072 0.10066 0.0
H648 H 0.5244 0.96905 0.0915 0.0
C649 C 0.49415 0.86633 0.14062 0.0
C650 C 0.65001 0.55293 0.65003 0.0
C651 C 0.69578 0.56388 0.63704 0.0
H652 H 0.57461 0.49879 0.65411 0.0
C653 C 0.70006 0.52808 0.61727 0.0
H654 H 0.6456 0.57979 0.66522 0.0
C655 C 0.65999 0.48266 0.61055 0.0
C656 C 0.61426 0.47119 0.62369 0.0
H657 H 0.73457 0.53527 0.60633 0.0
H658 H 0.66495 0.45623 0.59519 0.0
C659 C 0.60959 0.50662 0.64382 0.0
C660 C 0.39174 0.87479 0.38675 0.0
C661 C 0.39264 0.91603 0.4016 0.0
H662 H 0.42876 0.83501 0.38003 0.0
C663 C 0.43476 0.95127 0.41952 0.0
H664 H 0.35971 0.84689 0.37287 0.0
C665 C 0.47448 0.94423 0.42389 0.0
C666 C 0.47299 0.9022 0.4099 0.0
H667 H 0.4362 0.98309 0.43163 0.0
H668 H 0.50606 0.97128 0.43872 0.0
C669 C 0.43146 0.86807 0.39069 0.0
C670 C 0.57282 0.46061 0.88048 0.0
C671 C 0.59881 0.46422 0.91324 0.0
H672 H 0.50743 0.41784 0.8488 0.0
C673 C 0.57739 0.42702 0.9397 0.0
H674 H 0.58826 0.48885 0.85966 0.0
C675 C 0.53174 0.38699 0.93344 0.0
C676 C 0.50595 0.38317 0.90078 0.0
H677 H 0.59644 0.42819 0.96498 0.0
H678 H 0.51672 0.3584 0.95408 0.0
C679 C 0.52647 0.42046 0.87441 0.0
C680 C 0.20551 0.58226 0.38998 0.0
C681 C 0.1705 0.5883 0.40892 0.0
H682 H 0.22736 0.53277 0.3704 0.0
C683 C 0.12748 0.54659 0.41994 0.0
H684 H 0.23922 0.61343 0.38142 0.0
C685 C 0.12046 0.50009 0.41335 0.0
C686 C 0.15653 0.49434 0.39595 0.0
H687 H 0.09953 0.54991 0.43427 0.0
H688 H 0.08791 0.46886 0.42356 0.0
C689 C 0.19869 0.53592 0.38372 0.0
C690 C 0.70072 0.19179 0.89231 0.0
C691 C 0.69858 0.14914 0.90538 0.0
H692 H 0.66509 0.23328 0.88764 0.0
C693 C 0.65575 0.11317 0.92173 0.0
H694 H 0.73327 0.22017 0.87949 0.0
C695 C 0.61666 0.12091 0.92661 0.0
C696 C 0.61957 0.16447 0.9148 0.0
H697 H 0.65325 0.08014 0.93227 0.0
H698 H 0.58444 0.09318 0.94023 0.0
C699 C 0.66159 0.19928 0.89682 0.0
C700 C 0.52725 0.59452 0.41763 0.0
C701 C 0.48663 0.59566 0.40342 0.0
H702 H 0.60463 0.63213 0.42334 0.0
C703 C 0.49405 0.6341 0.38014 0.0
H704 H 0.52272 0.56503 0.43532 0.0
C705 C 0.54069 0.67179 0.37291 0.0
C706 C 0.58113 0.67208 0.38877 0.0
H707 H 0.46376 0.6365 0.36906 0.0
H708 H 0.54496 0.70219 0.35646 0.0
C709 C 0.57418 0.6324 0.41026 0.0
C710 C 0.967 0.56393 0.93007 0.0
C711 C 0.93303 0.57016 0.90957 0.0
H712 H 0.98675 0.51352 0.95205 0.0
C713 C 0.89363 0.52909 0.89341 0.0
H714 H 0.99741 0.59472 0.94319 0.0
C715 C 0.88736 0.48279 0.89853 0.0
C716 C 0.92014 0.47603 0.9202 0.0
H717 H 0.86668 0.53252 0.87746 0.0
H718 H 0.85569 0.45205 0.88663 0.0
C719 C 0.96048 0.51731 0.93549 0.0
C720 C 0.17409 0.33609 0.28159 0.0
C721 C 0.19752 0.3758 0.30577 0.0
H722 H 0.17302 0.3073 0.22771 0.0
C723 C 0.23786 0.41863 0.29353 0.0
H724 H 0.14243 0.30295 0.29057 0.0
C725 C 0.25519 0.42119 0.25746 0.0
C726 C 0.23136 0.38149 0.23322 0.0
H727 H 0.25547 0.44999 0.3116 0.0
H728 H 0.28741 0.45383 0.24857 0.0
C729 C 0.19074 0.33896 0.24551 0.0
C730 C 0.89067 0.25523 0.77035 0.0
C731 C 0.87621 0.22687 0.73775 0.0
H732 H 0.88529 0.25618 0.82976 0.0
C733 C 0.84001 0.17811 0.73982 0.0
H734 H 0.91841 0.29313 0.76945 0.0
C735 C 0.82072 0.15738 0.77422 0.0
C736 C 0.8378 0.18493 0.80709 0.0
H737 H 0.82854 0.15535 0.71527 0.0
H738 H 0.79436 0.11904 0.77518 0.0
C739 C 0.87203 0.23426 0.80484 0.0
C740 C 0.68672 0.89666 0.26406 0.0
C741 C 0.68652 0.87391 0.23042 0.0
H742 H 0.68958 0.89502 0.32361 0.0
C743 C 0.68234 0.82808 0.23141 0.0
H744 H 0.68967 0.93204 0.26411 0.0
C745 C 0.68129 0.8066 0.26544 0.0
C746 C 0.68545 0.83106 0.29907 0.0
H747 H 0.68169 0.80966 0.20594 0.0
H748 H 0.67975 0.77186 0.26525 0.0
C749 C 0.68663 0.87558 0.29816 0.0
C750 C 0.90825 0.69836 0.73586 0.0
C751 C 0.85788 0.67371 0.73312 0.0
H752 H 0.96944 0.72313 0.77121 0.0
C753 C 0.83003 0.64973 0.76468 0.0
H754 H 0.93061 0.71791 0.71232 0.0
C755 C 0.85234 0.65301 0.79909 0.0
C756 C 0.90278 0.68019 0.80213 0.0
H757 H 0.79092 0.63038 0.76311 0.0
H758 H 0.8303 0.63594 0.82332 0.0
C759 C 0.93037 0.70156 0.76992 0.0
C760 C 0.20266 0.80868 0.2633 0.0
C761 C 0.209 0.83904 0.23279 0.0
H762 H 0.21509 0.80446 0.32165 0.0
C763 C 0.23614 0.88941 0.23751 0.0
H764 H 0.18184 0.76962 0.26033 0.0
C765 C 0.25508 0.90904 0.27235 0.0
C766 C 0.24712 0.87875 0.30318 0.0
H767 H 0.24084 0.91367 0.21477 0.0
H768 H 0.27442 0.94812 0.27546 0.0
C769 C 0.22128 0.8284 0.29835 0.0
C770 C 0.35407 0.17656 0.79 0.0
C771 C 0.397 0.21436 0.80492 0.0
H772 H 0.3196 0.13146 0.74265 0.0
C773 C 0.43935 0.23526 0.78354 0.0
H774 H 0.32066 0.16118 0.8056 0.0
C775 C 0.43876 0.2183 0.74755 0.0
C776 C 0.39541 0.18147 0.73239 0.0
H777 H 0.47247 0.26537 0.79438 0.0
H778 H 0.47176 0.23424 0.73145 0.0
C779 C 0.35324 0.16038 0.7539 0.0
C780 C 0.32825 0.32126 0.97991 0.0
C781 C 0.34895 0.29485 0.99467 0.0
H782 H 0.28439 0.35365 0.99064 0.0
C783 C 0.35439 0.2946 0.03317 0.0
H784 H 0.33116 0.3301 0.95092 0.0
C785 C 0.33606 0.31702 0.05597 0.0
C786 C 0.30572 0.33319 0.04149 0.0
H787 H 0.37429 0.27878 0.0455 0.0
H788 H 0.34622 0.32207 0.08462 0.0
C789 C 0.30352 0.33697 1.0029 0.0
C790 C 0.09274 0.33683 0.53862 0.0
C791 C 0.08752 0.33832 0.50027 0.0
H792 H 0.05756 0.31991 0.59051 0.0
C793 C 1.04089 0.32269 0.48579 0.0
H794 H 0.12828 0.35215 0.55115 0.0
C795 C 0.99976 0.29708 0.50812 0.0
C796 C 1.00509 0.2929 0.54635 0.0
H797 H 1.03595 0.32958 0.45721 0.0
H798 H 0.96415 0.28228 0.49582 0.0
C799 C 0.052 0.31682 0.56133 0.0
C800 C 0.81054 1.0069 0.02773 0.0
C801 C 0.76148 0.98498 0.03771 0.0
H802 H 0.8711 0.06864 1.00199 0.0
C803 C 0.73573 1.00867 0.02887 0.0
H804 H 0.83143 0.98977 0.03492 0.0
C805 C 0.75786 0.05268 1.00989 0.0
C806 C 0.80695 0.07534 1.00041 0.0
H807 H 0.69807 0.99293 0.03662 0.0
H808 H 0.73641 0.06922 1.00264 0.0
C809 C 0.83341 0.05233 1.00968 0.0
C810 C 0.77852 0.71811 0.50355 0.0
C811 C 0.7791 0.72443 0.54204 0.0
H812 H 0.74894 0.72357 0.45182 0.0
C813 C 0.75205 0.74448 0.55658 0.0
H814 H 0.79518 0.69896 0.4914 0.0
C815 C 0.73415 0.76723 0.53331 0.0
C816 C 0.73635 0.76358 0.49473 0.0
H817 H 0.74412 0.7424 0.58568 0.0
H818 H 0.71675 0.78568 0.5454 0.0
C819 C 0.75404 0.73427 0.48055 0.0
C820 C 1.01077 0.71114 0.02452 0.0
C821 C 0.9968 0.73889 1.00311 0.0
H822 H 0.06419 0.71118 0.06077 0.0
C823 C 1.02667 0.78965 1.00316 0.0
H824 H 0.98845 0.67203 0.02528 0.0
C825 C 0.07096 0.81217 0.02243 0.0
C826 C 0.08533 0.78432 0.04331 0.0
H827 H 1.01535 0.81187 0.98842 0.0
H828 H 0.0933 0.85129 0.0217 0.0
C829 C 0.05437 0.73364 0.04454 0.0
C830 C 0.25445 1.00635 0.5093 0.0
C831 C 0.28221 0.98517 0.49899 0.0
H832 H 0.25442 0.06697 0.53618 0.0
C833 C 0.33144 1.0089 0.50835 0.0
H834 H 0.21658 0.98912 0.50176 0.0
C835 C 0.35254 0.0523 0.52818 0.0
C836 C 0.32549 0.07424 0.53799 0.0
H837 H 0.35377 0.99366 0.5004 0.0
H838 H 0.39038 0.06893 0.53582 0.0
C839 C 0.27624 0.05118 0.52822 0.0
loop_
_geom_bond_atom_site_label_1
_geom_bond_atom_site_label_2
_geom_bond_distance
_geom_bond_site_symmetry_2
_ccdc_geom_bond_type
Gd0 C3 2.818 . S
Gd0 O20 2.377 . S
Gd0 O22 2.448 . S
Gd0 O23 2.506 . S
Gd0 O24 2.435 . S
Gd0 O25 2.717 . S
Gd0 O27 2.395 . S
Gd0 O31 2.327 . S
Gd1 C12 2.818 . S
Gd1 O21 2.395 . S
Gd1 O25 2.327 . S
Gd1 O26 2.377 . S
Gd1 O28 2.448 . S
Gd1 O29 2.506 . S
Gd1 O30 2.435 . S
Gd1 O31 2.717 . S
C2 O20 1.240 . S
C2 O21 1.240 . S
C3 Gd0 2.818 . S
C3 C4 1.510 . S
C3 O22 1.249 . S
C3 O23 1.252 . S
C4 C3 1.510 . S
C4 C5 1.404 . S
C4 C6 1.352 . S
C5 C4 1.404 . S
C5 C9 1.389 . S
C5 H32 0.930 . S
C6 C4 1.352 . S
C6 C8 1.374 . S
C6 H33 0.931 . S
C7 C8 1.359 . S
C7 C9 1.364 . S
C8 C6 1.374 . S
C8 C7 1.359 . S
C8 H34 0.931 . S
C9 C5 1.389 . S
C9 C7 1.364 . S
C9 H35 0.931 . S
C10 O24 1.256 . S
C10 O25 1.257 . S
C11 O26 1.240 . S
C11 O27 1.240 . S
C12 Gd1 2.818 . S
C12 C13 1.510 . S
C12 O28 1.249 . S
C12 O29 1.252 . S
C13 C12 1.510 . S
C13 C14 1.404 . S
C13 C15 1.352 . S
C14 C13 1.404 . S
C14 C18 1.389 . S
C14 H36 0.930 . S
C15 C13 1.352 . S
C15 C17 1.374 . S
C15 H37 0.931 . S
C16 C17 1.359 . S
C16 C18 1.364 . S
C17 C15 1.374 . S
C17 C16 1.359 . S
C17 H38 0.931 . S
C18 C14 1.389 . S
C18 C16 1.364 . S
C18 H39 0.931 . S
C19 O30 1.256 . S
C19 O31 1.257 . S
O20 Gd0 2.377 . S
O20 C2 1.240 . S
O21 Gd1 2.395 . S
O21 C2 1.240 . S
O22 Gd0 2.448 . S
O22 C3 1.249 . S
O23 Gd0 2.506 . S
O23 C3 1.252 . S
O24 Gd0 2.435 . S
O24 C10 1.256 . S
O25 Gd0 2.717 . S
O25 Gd1 2.327 . S
O25 C10 1.257 . S
O26 Gd1 2.377 . S
O26 C11 1.240 . S
O27 Gd0 2.395 . S
O27 C11 1.240 . S
O28 Gd1 2.448 . S
O28 C12 1.249 . S
O29 Gd1 2.506 . S
O29 C12 1.252 . S
O30 Gd1 2.435 . S
O30 C19 1.256 . S
O31 Gd0 2.327 . S
O31 Gd1 2.717 . S
O31 C19 1.257 . S
H32 C5 0.930 . S
H33 C6 0.931 . S
H34 C8 0.931 . S
H35 C9 0.931 . S
H36 C14 0.930 . S
H37 C15 0.931 . S
H38 C17 0.931 . S
H39 C18 0.931 . S
Gd40 C43 2.818 . S
Gd40 O60 2.377 . S
Gd40 O62 2.448 . S
Gd40 O63 2.506 . S
Gd40 O64 2.435 . S
Gd40 O65 2.717 . S
Gd40 O67 2.395 . S
Gd40 O71 2.327 . S
Gd41 C52 2.818 . S
Gd41 O61 2.395 . S
Gd41 O65 2.327 . S
Gd41 O66 2.377 . S
Gd41 O68 2.448 . S
Gd41 O69 2.506 . S
Gd41 O70 2.435 . S
Gd41 O71 2.717 . S
C42 O60 1.240 . S
C42 O61 1.240 . S
C43 Gd40 2.818 . S
C43 C44 1.510 . S
C43 O62 1.249 . S
C43 O63 1.252 . S
C44 C43 1.510 . S
C44 C45 1.404 . S
C44 C46 1.352 . S
C45 C44 1.404 . S
C45 C49 1.389 . S
C45 H72 0.930 . S
C46 C44 1.352 . S
C46 C48 1.374 . S
C46 H73 0.931 . S
C47 C48 1.359 . S
C47 C49 1.364 . S
C48 C46 1.374 . S
C48 C47 1.359 . S
C48 H74 0.931 . S
C49 C45 1.389 . S
C49 C47 1.364 . S
C49 H75 0.931 . S
C50 O64 1.256 . S
C50 O65 1.257 . S
C51 O66 1.240 . S
C51 O67 1.240 . S
C52 Gd41 2.818 . S
C52 C53 1.510 1_655 S
C52 O68 1.249 . S
C52 O69 1.252 . S
C53 C52 1.510 1_455 S
C53 C54 1.404 . S
C53 C55 1.352 . S
C54 C53 1.404 . S
C54 C58 1.389 . S
C54 H76 0.930 . S
C55 C53 1.352 . S
C55 C57 1.374 . S
C55 H77 0.931 . S
C56 C57 1.359 . S
C56 C58 1.364 . S
C57 C55 1.374 . S
C57 C56 1.359 . S
C57 H78 0.931 . S
C58 C54 1.389 . S
C58 C56 1.364 . S
C58 H79 0.931 . S
C59 O70 1.256 . S
C59 O71 1.257 . S
O60 Gd40 2.377 . S
O60 C42 1.240 . S
O61 Gd41 2.395 . S
O61 C42 1.240 . S
O62 Gd40 2.448 . S
O62 C43 1.249 . S
O63 Gd40 2.506 . S
O63 C43 1.252 . S
O64 Gd40 2.435 . S
O64 C50 1.256 . S
O65 Gd40 2.717 . S
O65 Gd41 2.327 . S
O65 C50 1.257 . S
O66 Gd41 2.377 . S
O66 C51 1.240 . S
O67 Gd40 2.395 . S
O67 C51 1.240 . S
O68 Gd41 2.448 . S
O68 C52 1.249 . S
O69 Gd41 2.506 . S
O69 C52 1.252 . S
O70 Gd41 2.435 . S
O70 C59 1.256 . S
O71 Gd40 2.327 . S
O71 Gd41 2.717 . S
O71 C59 1.257 . S
H72 C45 0.930 . S
H73 C46 0.931 . S
H74 C48 0.931 . S
H75 C49 0.931 . S
H76 C54 0.930 . S
H77 C55 0.931 . S
H78 C57 0.931 . S
H79 C58 0.931 . S
Gd80 C83 2.818 . S
Gd80 O100 2.377 . S
Gd80 O102 2.448 . S
Gd80 O103 2.506 . S
Gd80 O104 2.435 . S
Gd80 O105 2.717 . S
Gd80 O107 2.395 . S
Gd80 O111 2.327 . S
Gd81 C92 2.818 . S
Gd81 O101 2.395 . S
Gd81 O105 2.327 . S
Gd81 O106 2.377 . S
Gd81 O108 2.448 . S
Gd81 O109 2.506 . S
Gd81 O110 2.435 . S
Gd81 O111 2.717 . S
C82 O100 1.240 . S
C82 O101 1.240 . S
C83 Gd80 2.818 . S
C83 C84 1.510 . S
C83 O102 1.249 . S
C83 O103 1.252 . S
C84 C83 1.510 . S
C84 C85 1.404 . S
C84 C86 1.352 . S
C85 C84 1.404 . S
C85 C89 1.389 . S
C85 H112 0.930 . S
C86 C84 1.352 . S
C86 C88 1.374 . S
C86 H113 0.931 . S
C87 C88 1.359 . S
C87 C89 1.364 . S
C88 C86 1.374 . S
C88 C87 1.359 . S
C88 H114 0.931 . S
C89 C85 1.389 . S
C89 C87 1.364 . S
C89 H115 0.931 . S
C90 O104 1.256 . S
C90 O105 1.257 . S
C91 O106 1.240 . S
C91 O107 1.240 . S
C92 Gd81 2.818 . S
C92 C93 1.510 1_565 S
C92 O108 1.249 . S
C92 O109 1.252 . S
C93 C92 1.510 1_545 S
C93 C94 1.404 . S
C93 C95 1.352 . S
C94 C93 1.404 . S
C94 C98 1.389 . S
C94 H116 0.930 . S
C95 C93 1.352 . S
C95 C97 1.374 . S
C95 H117 0.931 . S
C96 C97 1.359 . S
C96 C98 1.364 . S
C97 C95 1.374 . S
C97 C96 1.359 . S
C97 H118 0.931 . S
C98 C94 1.389 . S
C98 C96 1.364 . S
C98 H119 0.931 . S
C99 O110 1.256 . S
C99 O111 1.257 . S
O100 Gd80 2.377 . S
O100 C82 1.240 . S
O101 Gd81 2.395 . S
O101 C82 1.240 . S
O102 Gd80 2.448 . S
O102 C83 1.249 . S
O103 Gd80 2.506 . S
O103 C83 1.252 . S
O104 Gd80 2.435 . S
O104 C90 1.256 . S
O105 Gd80 2.717 . S
O105 Gd81 2.327 . S
O105 C90 1.257 . S
O106 Gd81 2.377 . S
O106 C91 1.240 . S
O107 Gd80 2.395 . S
O107 C91 1.240 . S
O108 Gd81 2.448 . S
O108 C92 1.249 . S
O109 Gd81 2.506 . S
O109 C92 1.252 . S
O110 Gd81 2.435 . S
O110 C99 1.256 . S
O111 Gd80 2.327 . S
O111 Gd81 2.717 . S
O111 C99 1.257 . S
H112 C85 0.930 . S
H113 C86 0.931 . S
H114 C88 0.931 . S
H115 C89 0.931 . S
H116 C94 0.930 . S
H117 C95 0.931 . S
H118 C97 0.931 . S
H119 C98 0.931 . S
Gd120 C123 2.818 . S
Gd120 O140 2.377 . S
Gd120 O142 2.448 . S
Gd120 O143 2.506 . S
Gd120 O144 2.435 . S
Gd120 O145 2.717 . S
Gd120 O147 2.395 . S
Gd120 O151 2.327 . S
Gd121 C132 2.818 . S
Gd121 O141 2.395 . S
Gd121 O145 2.327 . S
Gd121 O146 2.377 . S
Gd121 O148 2.448 . S
Gd121 O149 2.506 . S
Gd121 O150 2.435 . S
Gd121 O151 2.717 . S
C122 O140 1.240 . S
C122 O141 1.240 . S
C123 Gd120 2.818 . S
C123 C124 1.510 . S
C123 O142 1.249 . S
C123 O143 1.252 . S
C124 C123 1.510 . S
C124 C125 1.404 . S
C124 C126 1.352 . S
C125 C124 1.404 . S
C125 C129 1.389 . S
C125 H152 0.930 . S
C126 C124 1.352 . S
C126 C128 1.374 . S
C126 H153 0.931 . S
C127 C128 1.359 . S
C127 C129 1.364 . S
C128 C126 1.374 . S
C128 C127 1.359 . S
C128 H154 0.931 . S
C129 C125 1.389 . S
C129 C127 1.364 . S
C129 H155 0.931 . S
C130 O144 1.256 . S
C130 O145 1.257 . S
C131 O146 1.240 . S
C131 O147 1.240 . S
C132 Gd121 2.818 . S
C132 C133 1.510 . S
C132 O148 1.249 . S
C132 O149 1.252 . S
C133 C132 1.510 . S
C133 C134 1.404 . S
C133 C135 1.352 . S
C134 C133 1.404 . S
C134 C138 1.389 . S
C134 H156 0.930 . S
C135 C133 1.352 . S
C135 C137 1.374 . S
C135 H157 0.931 . S
C136 C137 1.359 . S
C136 C138 1.364 . S
C137 C135 1.374 . S
C137 C136 1.359 . S
C137 H158 0.931 . S
C138 C134 1.389 . S
C138 C136 1.364 . S
C138 H159 0.931 . S
C139 O150 1.256 . S
C139 O151 1.257 . S
O140 Gd120 2.377 . S
O140 C122 1.240 . S
O141 Gd121 2.395 . S
O141 C122 1.240 . S
O142 Gd120 2.448 . S
O142 C123 1.249 . S
O143 Gd120 2.506 . S
O143 C123 1.252 . S
O144 Gd120 2.435 . S
O144 C130 1.256 . S
O145 Gd120 2.717 . S
O145 Gd121 2.327 . S
O145 C130 1.257 . S
O146 Gd121 2.377 . S
O146 C131 1.240 . S
O147 Gd120 2.395 . S
O147 C131 1.240 . S
O148 Gd121 2.448 . S
O148 C132 1.249 . S
O149 Gd121 2.506 . S
O149 C132 1.252 . S
O150 Gd121 2.435 . S
O150 C139 1.256 . S
O151 Gd120 2.327 . S
O151 Gd121 2.717 . S
O151 C139 1.257 . S
H152 C125 0.930 . S
H153 C126 0.931 . S
H154 C128 0.931 . S
H155 C129 0.931 . S
H156 C134 0.930 . S
H157 C135 0.931 . S
H158 C137 0.931 . S
H159 C138 0.931 . S
Gd160 C163 2.818 . S
Gd160 O180 2.377 . S
Gd160 O182 2.448 . S
Gd160 O183 2.506 . S
Gd160 O184 2.435 . S
Gd160 O185 2.717 . S
Gd160 O187 2.395 . S
Gd160 O191 2.327 . S
Gd161 C172 2.818 . S
Gd161 O181 2.395 . S
Gd161 O185 2.327 . S
Gd161 O186 2.377 . S
Gd161 O188 2.448 . S
Gd161 O189 2.506 . S
Gd161 O190 2.435 . S
Gd161 O191 2.717 . S
C162 O180 1.240 . S
C162 O181 1.240 . S
C163 Gd160 2.818 . S
C163 C164 1.510 . S
C163 O182 1.249 . S
C163 O183 1.252 . S
C164 C163 1.510 . S
C164 C165 1.404 . S
C164 C166 1.352 . S
C165 C164 1.404 . S
C165 C169 1.389 . S
C165 H192 0.930 . S
C166 C164 1.352 . S
C166 C168 1.374 . S
C166 H193 0.931 . S
C167 C168 1.359 . S
C167 C169 1.364 . S
C168 C166 1.374 . S
C168 C167 1.359 . S
C168 H194 0.931 . S
C169 C165 1.389 . S
C169 C167 1.364 . S
C169 H195 0.931 . S
C170 O184 1.256 . S
C170 O185 1.257 . S
C171 O186 1.240 . S
C171 O187 1.240 . S
C172 Gd161 2.818 . S
C172 C173 1.510 1_455 S
C172 O188 1.249 . S
C172 O189 1.252 . S
C173 C172 1.510 1_655 S
C173 C174 1.404 . S
C173 C175 1.352 . S
C174 C173 1.404 . S
C174 C178 1.389 . S
C174 H196 0.930 . S
C175 C173 1.352 . S
C175 C177 1.374 . S
C175 H197 0.931 . S
C176 C177 1.359 . S
C176 C178 1.364 . S
C177 C175 1.374 . S
C177 C176 1.359 . S
C177 H198 0.931 . S
C178 C174 1.389 . S
C178 C176 1.364 . S
C178 H199 0.931 . S
C179 O190 1.256 . S
C179 O191 1.257 . S
O180 Gd160 2.377 . S
O180 C162 1.240 . S
O181 Gd161 2.395 . S
O181 C162 1.240 . S
O182 Gd160 2.448 . S
O182 C163 1.249 . S
O183 Gd160 2.506 . S
O183 C163 1.252 . S
O184 Gd160 2.435 . S
O184 C170 1.256 . S
O185 Gd160 2.717 . S
O185 Gd161 2.327 . S
O185 C170 1.257 . S
O186 Gd161 2.377 . S
O186 C171 1.240 . S
O187 Gd160 2.395 . S
O187 C171 1.240 . S
O188 Gd161 2.448 . S
O188 C172 1.249 . S
O189 Gd161 2.506 . S
O189 C172 1.252 . S
O190 Gd161 2.435 . S
O190 C179 1.256 . S
O191 Gd160 2.327 . S
O191 Gd161 2.717 . S
O191 C179 1.257 . S
H192 C165 0.930 . S
H193 C166 0.931 . S
H194 C168 0.931 . S
H195 C169 0.931 . S
H196 C174 0.930 . S
H197 C175 0.931 . S
H198 C177 0.931 . S
H199 C178 0.931 . S
Gd200 C203 2.818 . S
Gd200 O220 2.377 . S
Gd200 O222 2.448 . S
Gd200 O223 2.506 . S
Gd200 O224 2.435 . S
Gd200 O225 2.717 . S
Gd200 O227 2.395 . S
Gd200 O231 2.327 . S
Gd201 C212 2.818 . S
Gd201 O221 2.395 . S
Gd201 O225 2.327 . S
Gd201 O226 2.377 . S
Gd201 O228 2.448 . S
Gd201 O229 2.506 . S
Gd201 O230 2.435 . S
Gd201 O231 2.717 . S
C202 O220 1.240 . S
C202 O221 1.240 . S
C203 Gd200 2.818 . S
C203 C204 1.510 . S
C203 O222 1.249 . S
C203 O223 1.252 . S
C204 C203 1.510 . S
C204 C205 1.404 . S
C204 C206 1.352 . S
C205 C204 1.404 . S
C205 C209 1.389 . S
C205 H232 0.930 . S
C206 C204 1.352 . S
C206 C208 1.374 . S
C206 H233 0.931 . S
C207 C208 1.359 . S
C207 C209 1.364 . S
C208 C206 1.374 . S
C208 C207 1.359 . S
C208 H234 0.931 . S
C209 C205 1.389 . S
C209 C207 1.364 . S
C209 H235 0.931 . S
C210 O224 1.256 . S
C210 O225 1.257 . S
C211 O226 1.240 . S
C211 O227 1.240 . S
C212 Gd201 2.818 . S
C212 C213 1.510 1_545 S
C212 O228 1.249 . S
C212 O229 1.252 . S
C213 C212 1.510 1_565 S
C213 C214 1.404 . S
C213 C215 1.352 . S
C214 C213 1.404 . S
C214 C218 1.389 . S
C214 H236 0.930 . S
C215 C213 1.352 . S
C215 C217 1.374 . S
C215 H237 0.931 . S
C216 C217 1.359 . S
C216 C218 1.364 . S
C217 C215 1.374 . S
C217 C216 1.359 . S
C217 H238 0.931 . S
C218 C214 1.389 . S
C218 C216 1.364 . S
C218 H239 0.931 . S
C219 O230 1.256 . S
C219 O231 1.257 . S
O220 Gd200 2.377 . S
O220 C202 1.240 . S
O221 Gd201 2.395 . S
O221 C202 1.240 . S
O222 Gd200 2.448 . S
O222 C203 1.249 . S
O223 Gd200 2.506 . S
O223 C203 1.252 . S
O224 Gd200 2.435 . S
O224 C210 1.256 . S
O225 Gd200 2.717 . S
O225 Gd201 2.327 . S
O225 C210 1.257 . S
O226 Gd201 2.377 . S
O226 C211 1.240 . S
O227 Gd200 2.395 . S
O227 C211 1.240 . S
O228 Gd201 2.448 . S
O228 C212 1.249 . S
O229 Gd201 2.506 . S
O229 C212 1.252 . S
O230 Gd201 2.435 . S
O230 C219 1.256 . S
O231 Gd200 2.327 . S
O231 Gd201 2.717 . S
O231 C219 1.257 . S
H232 C205 0.930 . S
H233 C206 0.931 . S
H234 C208 0.931 . S
H235 C209 0.931 . S
H236 C214 0.930 . S
H237 C215 0.931 . S
H238 C217 0.931 . S
H239 C218 0.931 . S
Gd240 C243 2.818 . S
Gd240 O260 2.377 . S
Gd240 O262 2.448 . S
Gd240 O263 2.506 . S
Gd240 O264 2.435 . S
Gd240 O265 2.717 . S
Gd240 O267 2.395 . S
Gd240 O271 2.327 . S
Gd241 C252 2.818 . S
Gd241 O261 2.395 . S
Gd241 O265 2.327 . S
Gd241 O266 2.377 . S
Gd241 O268 2.448 . S
Gd241 O269 2.506 . S
Gd241 O270 2.435 . S
Gd241 O271 2.717 . S
C242 O260 1.240 . S
C242 O261 1.240 . S
C243 Gd240 2.818 . S
C243 C244 1.510 . S
C243 O262 1.249 . S
C243 O263 1.252 . S
C244 C243 1.510 . S
C244 C245 1.404 . S
C244 C246 1.352 . S
C245 C244 1.404 . S
C245 C249 1.389 . S
C245 H272 0.930 . S
C246 C244 1.352 . S
C246 C248 1.374 . S
C246 H273 0.931 . S
C247 C248 1.359 . S
C247 C249 1.364 . S
C248 C246 1.374 . S
C248 C247 1.359 . S
C248 H274 0.931 . S
C249 C245 1.389 . S
C249 C247 1.364 . S
C249 H275 0.931 . S
C250 O264 1.256 . S
C250 O265 1.257 . S
C251 O266 1.240 . S
C251 O267 1.240 . S
C252 Gd241 2.818 . S
C252 C253 1.510 . S
C252 O268 1.249 . S
C252 O269 1.252 . S
C253 C252 1.510 . S
C253 C254 1.404 . S
C253 C255 1.352 . S
C254 C253 1.404 . S
C254 C258 1.389 . S
C254 H276 0.930 . S
C255 C253 1.352 . S
C255 C257 1.374 . S
C255 H277 0.931 . S
C256 C257 1.359 . S
C256 C258 1.364 . S
C257 C255 1.374 . S
C257 C256 1.359 . S
C257 H278 0.931 . S
C258 C254 1.389 . S
C258 C256 1.364 . S
C258 H279 0.931 . S
C259 O270 1.256 . S
C259 O271 1.257 . S
O260 Gd240 2.377 . S
O260 C242 1.240 . S
O261 Gd241 2.395 . S
O261 C242 1.240 . S
O262 Gd240 2.448 . S
O262 C243 1.249 . S
O263 Gd240 2.506 . S
O263 C243 1.252 . S
O264 Gd240 2.435 . S
O264 C250 1.256 . S
O265 Gd240 2.717 . S
O265 Gd241 2.327 . S
O265 C250 1.257 . S
O266 Gd241 2.377 . S
O266 C251 1.240 . S
O267 Gd240 2.395 . S
O267 C251 1.240 . S
O268 Gd241 2.448 . S
O268 C252 1.249 . S
O269 Gd241 2.506 . S
O269 C252 1.252 . S
O270 Gd241 2.435 . S
O270 C259 1.256 . S
O271 Gd240 2.327 . S
O271 Gd241 2.717 . S
O271 C259 1.257 . S
H272 C245 0.930 . S
H273 C246 0.931 . S
H274 C248 0.931 . S
H275 C249 0.931 . S
H276 C254 0.930 . S
H277 C255 0.931 . S
H278 C257 0.931 . S
H279 C258 0.931 . S
Gd280 C283 2.818 . S
Gd280 O300 2.377 . S
Gd280 O302 2.448 . S
Gd280 O303 2.506 . S
Gd280 O304 2.435 . S
Gd280 O305 2.717 . S
Gd280 O307 2.395 . S
Gd280 O311 2.327 . S
Gd281 C292 2.818 . S
Gd281 O301 2.395 . S
Gd281 O305 2.327 . S
Gd281 O306 2.377 . S
Gd281 O308 2.448 . S
Gd281 O309 2.506 . S
Gd281 O310 2.435 . S
Gd281 O311 2.717 . S
C282 O300 1.240 . S
C282 O301 1.240 . S
C283 Gd280 2.818 . S
C283 C284 1.510 . S
C283 O302 1.249 . S
C283 O303 1.252 . S
C284 C283 1.510 . S
C284 C285 1.404 . S
C284 C286 1.352 . S
C285 C284 1.404 . S
C285 C289 1.389 . S
C285 H312 0.930 . S
C286 C284 1.352 . S
C286 C288 1.374 . S
C286 H313 0.931 . S
C287 C288 1.359 . S
C287 C289 1.364 . S
C288 C286 1.374 . S
C288 C287 1.359 . S
C288 H314 0.931 . S
C289 C285 1.389 . S
C289 C287 1.364 . S
C289 H315 0.931 . S
C290 O304 1.256 . S
C290 O305 1.257 . S
C291 O306 1.240 . S
C291 O307 1.240 . S
C292 Gd281 2.818 . S
C292 C293 1.510 1_655 S
C292 O308 1.249 . S
C292 O309 1.252 . S
C293 C292 1.510 1_455 S
C293 C294 1.404 . S
C293 C295 1.352 . S
C294 C293 1.404 . S
C294 C298 1.389 . S
C294 H316 0.930 . S
C295 C293 1.352 . S
C295 C297 1.374 . S
C295 H317 0.931 . S
C296 C297 1.359 . S
C296 C298 1.364 . S
C297 C295 1.374 . S
C297 C296 1.359 . S
C297 H318 0.931 . S
C298 C294 1.389 . S
C298 C296 1.364 . S
C298 H319 0.931 . S
C299 O310 1.256 . S
C299 O311 1.257 . S
O300 Gd280 2.377 . S
O300 C282 1.240 . S
O301 Gd281 2.395 . S
O301 C282 1.240 . S
O302 Gd280 2.448 . S
O302 C283 1.249 . S
O303 Gd280 2.506 . S
O303 C283 1.252 . S
O304 Gd280 2.435 . S
O304 C290 1.256 . S
O305 Gd280 2.717 . S
O305 Gd281 2.327 . S
O305 C290 1.257 . S
O306 Gd281 2.377 . S
O306 C291 1.240 . S
O307 Gd280 2.395 . S
O307 C291 1.240 . S
O308 Gd281 2.448 . S
O308 C292 1.249 . S
O309 Gd281 2.506 . S
O309 C292 1.252 . S
O310 Gd281 2.435 . S
O310 C299 1.256 . S
O311 Gd280 2.327 . S
O311 Gd281 2.717 . S
O311 C299 1.257 . S
H312 C285 0.930 . S
H313 C286 0.931 . S
H314 C288 0.931 . S
H315 C289 0.931 . S
H316 C294 0.930 . S
H317 C295 0.931 . S
H318 C297 0.931 . S
H319 C298 0.931 . S
Gd320 C323 2.818 . S
Gd320 O340 2.377 . S
Gd320 O342 2.448 . S
Gd320 O343 2.506 . S
Gd320 O344 2.435 . S
Gd320 O345 2.717 . S
Gd320 O347 2.395 . S
Gd320 O351 2.327 . S
Gd321 C332 2.818 . S
Gd321 O341 2.395 . S
Gd321 O345 2.327 . S
Gd321 O346 2.377 . S
Gd321 O348 2.448 . S
Gd321 O349 2.506 . S
Gd321 O350 2.435 . S
Gd321 O351 2.717 . S
C322 O340 1.240 . S
C322 O341 1.240 . S
C323 Gd320 2.818 . S
C323 C324 1.510 . S
C323 O342 1.249 . S
C323 O343 1.252 . S
C324 C323 1.510 . S
C324 C325 1.404 . S
C324 C326 1.352 . S
C325 C324 1.404 . S
C325 C329 1.389 . S
C325 H352 0.930 . S
C326 C324 1.352 . S
C326 C328 1.374 . S
C326 H353 0.931 . S
C327 C328 1.359 . S
C327 C329 1.364 . S
C328 C326 1.374 . S
C328 C327 1.359 . S
C328 H354 0.931 . S
C329 C325 1.389 . S
C329 C327 1.364 . S
C329 H355 0.931 . S
C330 O344 1.256 . S
C330 O345 1.257 . S
C331 O346 1.240 . S
C331 O347 1.240 . S
C332 Gd321 2.818 . S
C332 C333 1.510 1_565 S
C332 O348 1.249 . S
C332 O349 1.252 . S
C333 C332 1.510 1_545 S
C333 C334 1.404 . S
C333 C335 1.352 . S
C334 C333 1.404 . S
C334 C338 1.389 . S
C334 H356 0.930 . S
C335 C333 1.352 . S
C335 C337 1.374 . S
C335 H357 0.931 . S
C336 C337 1.359 . S
C336 C338 1.364 . S
C337 C335 1.374 . S
C337 C336 1.359 . S
C337 H358 0.931 . S
C338 C334 1.389 . S
C338 C336 1.364 . S
C338 H359 0.931 . S
C339 O350 1.256 . S
C339 O351 1.257 . S
O340 Gd320 2.377 . S
O340 C322 1.240 . S
O341 Gd321 2.395 . S
O341 C322 1.240 . S
O342 Gd320 2.448 . S
O342 C323 1.249 . S
O343 Gd320 2.506 . S
O343 C323 1.252 . S
O344 Gd320 2.435 . S
O344 C330 1.256 . S
O345 Gd320 2.717 . S
O345 Gd321 2.327 . S
O345 C330 1.257 . S
O346 Gd321 2.377 . S
O346 C331 1.240 . S
O347 Gd320 2.395 . S
O347 C331 1.240 . S
O348 Gd321 2.448 . S
O348 C332 1.249 . S
O349 Gd321 2.506 . S
O349 C332 1.252 . S
O350 Gd321 2.435 . S
O350 C339 1.256 . S
O351 Gd320 2.327 . S
O351 Gd321 2.717 . S
O351 C339 1.257 . S
H352 C325 0.930 . S
H353 C326 0.931 . S
H354 C328 0.931 . S
H355 C329 0.931 . S
H356 C334 0.930 . S
H357 C335 0.931 . S
H358 C337 0.931 . S
H359 C338 0.931 . S
Gd360 C363 2.818 . S
Gd360 O380 2.377 . S
Gd360 O382 2.448 . S
Gd360 O383 2.506 . S
Gd360 O384 2.435 . S
Gd360 O385 2.717 . S
Gd360 O387 2.395 . S
Gd360 O391 2.327 . S
Gd361 C372 2.818 . S
Gd361 O381 2.395 . S
Gd361 O385 2.327 . S
Gd361 O386 2.377 . S
Gd361 O388 2.448 . S
Gd361 O389 2.506 . S
Gd361 O390 2.435 . S
Gd361 O391 2.717 . S
C362 O380 1.240 . S
C362 O381 1.240 . S
C363 Gd360 2.818 . S
C363 C364 1.510 . S
C363 O382 1.249 . S
C363 O383 1.252 . S
C364 C363 1.510 . S
C364 C365 1.404 . S
C364 C366 1.352 . S
C365 C364 1.404 . S
C365 C369 1.389 . S
C365 H392 0.930 . S
C366 C364 1.352 . S
C366 C368 1.374 . S
C366 H393 0.931 . S
C367 C368 1.359 . S
C367 C369 1.364 . S
C368 C366 1.374 . S
C368 C367 1.359 . S
C368 H394 0.931 . S
C369 C365 1.389 . S
C369 C367 1.364 . S
C369 H395 0.931 . S
C370 O384 1.256 . S
C370 O385 1.257 . S
C371 O386 1.240 . S
C371 O387 1.240 . S
C372 Gd361 2.818 . S
C372 C373 1.510 . S
C372 O388 1.249 . S
C372 O389 1.252 . S
C373 C372 1.510 . S
C373 C374 1.404 . S
C373 C375 1.352 . S
C374 C373 1.404 . S
C374 C378 1.389 . S
C374 H396 0.930 . S
C375 C373 1.352 . S
C375 C377 1.374 . S
C375 H397 0.931 . S
C376 C377 1.359 . S
C376 C378 1.364 . S
C377 C375 1.374 . S
C377 C376 1.359 . S
C377 H398 0.931 . S
C378 C374 1.389 . S
C378 C376 1.364 . S
C378 H399 0.931 . S
C379 O390 1.256 . S
C379 O391 1.257 . S
O380 Gd360 2.377 . S
O380 C362 1.240 . S
O381 Gd361 2.395 . S
O381 C362 1.240 . S
O382 Gd360 2.448 . S
O382 C363 1.249 . S
O383 Gd360 2.506 . S
O383 C363 1.252 . S
O384 Gd360 2.435 . S
O384 C370 1.256 . S
O385 Gd360 2.717 . S
O385 Gd361 2.327 . S
O385 C370 1.257 . S
O386 Gd361 2.377 . S
O386 C371 1.240 . S
O387 Gd360 2.395 . S
O387 C371 1.240 . S
O388 Gd361 2.448 . S
O388 C372 1.249 . S
O389 Gd361 2.506 . S
O389 C372 1.252 . S
O390 Gd361 2.435 . S
O390 C379 1.256 . S
O391 Gd360 2.327 . S
O391 Gd361 2.717 . S
O391 C379 1.257 . S
H392 C365 0.930 . S
H393 C366 0.931 . S
H394 C368 0.931 . S
H395 C369 0.931 . S
H396 C374 0.930 . S
H397 C375 0.931 . S
H398 C377 0.931 . S
H399 C378 0.931 . S
Gd400 C403 2.818 . S
Gd400 O420 2.377 . S
Gd400 O422 2.448 . S
Gd400 O423 2.506 . S
Gd400 O424 2.435 . S
Gd400 O425 2.717 . S
Gd400 O427 2.395 . S
Gd400 O431 2.327 . S
Gd401 C412 2.818 . S
Gd401 O421 2.395 . S
Gd401 O425 2.327 . S
Gd401 O426 2.377 . S
Gd401 O428 2.448 . S
Gd401 O429 2.506 . S
Gd401 O430 2.435 . S
Gd401 O431 2.717 . S
C402 O420 1.240 . S
C402 O421 1.240 . S
C403 Gd400 2.818 . S
C403 C404 1.510 . S
C403 O422 1.249 . S
C403 O423 1.252 . S
C404 C403 1.510 . S
C404 C405 1.404 . S
C404 C406 1.352 . S
C405 C404 1.404 . S
C405 C409 1.389 . S
C405 H432 0.930 . S
C406 C404 1.352 . S
C406 C408 1.374 . S
C406 H433 0.931 . S
C407 C408 1.359 . S
C407 C409 1.364 . S
C408 C406 1.374 . S
C408 C407 1.359 . S
C408 H434 0.931 . S
C409 C405 1.389 . S
C409 C407 1.364 . S
C409 H435 0.931 . S
C410 O424 1.256 . S
C410 O425 1.257 . S
C411 O426 1.240 . S
C411 O427 1.240 . S
C412 Gd401 2.818 . S
C412 C413 1.510 1_455 S
C412 O428 1.249 . S
C412 O429 1.252 . S
C413 C412 1.510 1_655 S
C413 C414 1.404 . S
C413 C415 1.352 . S
C414 C413 1.404 . S
C414 C418 1.389 . S
C414 H436 0.930 . S
C415 C413 1.352 . S
C415 C417 1.374 . S
C415 H437 0.931 . S
C416 C417 1.359 . S
C416 C418 1.364 . S
C417 C415 1.374 . S
C417 C416 1.359 . S
C417 H438 0.931 . S
C418 C414 1.389 . S
C418 C416 1.364 . S
C418 H439 0.931 . S
C419 O430 1.256 . S
C419 O431 1.257 . S
O420 Gd400 2.377 . S
O420 C402 1.240 . S
O421 Gd401 2.395 . S
O421 C402 1.240 . S
O422 Gd400 2.448 . S
O422 C403 1.249 . S
O423 Gd400 2.506 . S
O423 C403 1.252 . S
O424 Gd400 2.435 . S
O424 C410 1.256 . S
O425 Gd400 2.717 . S
O425 Gd401 2.327 . S
O425 C410 1.257 . S
O426 Gd401 2.377 . S
O426 C411 1.240 . S
O427 Gd400 2.395 . S
O427 C411 1.240 . S
O428 Gd401 2.448 . S
O428 C412 1.249 . S
O429 Gd401 2.506 . S
O429 C412 1.252 . S
O430 Gd401 2.435 . S
O430 C419 1.256 . S
O431 Gd400 2.327 . S
O431 Gd401 2.717 . S
O431 C419 1.257 . S
H432 C405 0.930 . S
H433 C406 0.931 . S
H434 C408 0.931 . S
H435 C409 0.931 . S
H436 C414 0.930 . S
H437 C415 0.931 . S
H438 C417 0.931 . S
H439 C418 0.931 . S
Gd440 C443 2.818 . S
Gd440 O460 2.377 . S
Gd440 O462 2.448 . S
Gd440 O463 2.506 . S
Gd440 O464 2.435 . S
Gd440 O465 2.717 . S
Gd440 O467 2.395 . S
Gd440 O471 2.327 . S
Gd441 C452 2.818 . S
Gd441 O461 2.395 . S
Gd441 O465 2.327 . S
Gd441 O466 2.377 . S
Gd441 O468 2.448 . S
Gd441 O469 2.506 . S
Gd441 O470 2.435 . S
Gd441 O471 2.717 . S
C442 O460 1.240 . S
C442 O461 1.240 . S
C443 Gd440 2.818 . S
C443 C444 1.510 . S
C443 O462 1.249 . S
C443 O463 1.252 . S
C444 C443 1.510 . S
C444 C445 1.404 . S
C444 C446 1.352 . S
C445 C444 1.404 . S
C445 C449 1.389 . S
C445 H472 0.930 . S
C446 C444 1.352 . S
C446 C448 1.374 . S
C446 H473 0.931 . S
C447 C448 1.359 . S
C447 C449 1.364 . S
C448 C446 1.374 . S
C448 C447 1.359 . S
C448 H474 0.931 . S
C449 C445 1.389 . S
C449 C447 1.364 . S
C449 H475 0.931 . S
C450 O464 1.256 . S
C450 O465 1.257 . S
C451 O466 1.240 . S
C451 O467 1.240 . S
C452 Gd441 2.818 . S
C452 C453 1.510 1_545 S
C452 O468 1.249 . S
C452 O469 1.252 . S
C453 C452 1.510 1_565 S
C453 C454 1.404 . S
C453 C455 1.352 . S
C454 C453 1.404 . S
C454 C458 1.389 . S
C454 H476 0.930 . S
C455 C453 1.352 . S
C455 C457 1.374 . S
C455 H477 0.931 . S
C456 C457 1.359 . S
C456 C458 1.364 . S
C457 C455 1.374 . S
C457 C456 1.359 . S
C457 H478 0.931 . S
C458 C454 1.389 . S
C458 C456 1.364 . S
C458 H479 0.931 . S
C459 O470 1.256 . S
C459 O471 1.257 . S
O460 Gd440 2.377 . S
O460 C442 1.240 . S
O461 Gd441 2.395 . S
O461 C442 1.240 . S
O462 Gd440 2.448 . S
O462 C443 1.249 . S
O463 Gd440 2.506 . S
O463 C443 1.252 . S
O464 Gd440 2.435 . S
O464 C450 1.256 . S
O465 Gd440 2.717 . S
O465 Gd441 2.327 . S
O465 C450 1.257 . S
O466 Gd441 2.377 . S
O466 C451 1.240 . S
O467 Gd440 2.395 . S
O467 C451 1.240 . S
O468 Gd441 2.448 . S
O468 C452 1.249 . S
O469 Gd441 2.506 . S
O469 C452 1.252 . S
O470 Gd441 2.435 . S
O470 C459 1.256 . S
O471 Gd440 2.327 . S
O471 Gd441 2.717 . S
O471 C459 1.257 . S
H472 C445 0.930 . S
H473 C446 0.931 . S
H474 C448 0.931 . S
H475 C449 0.931 . S
H476 C454 0.930 . S
H477 C455 0.931 . S
H478 C457 0.931 . S
H479 C458 0.931 . S
C480 C481 1.387 . S
C480 H484 0.950 . S
C480 C489 1.390 . S
C481 C480 1.387 . S
C481 C483 1.387 . S
H482 C489 0.950 . S
C483 C481 1.387 . S
C483 C485 1.390 1_565 S
C483 H487 0.950 . S
H484 C480 0.950 . S
C485 C483 1.390 1_545 S
C485 C486 1.387 . S
C485 H488 0.950 . S
C486 C485 1.387 . S
C486 C489 1.387 1_545 S
H487 C483 0.950 . S
H488 C485 0.950 . S
C489 C480 1.390 . S
C489 H482 0.950 . S
C489 C486 1.387 1_565 S
C490 C491 1.387 . S
C490 H494 0.950 . S
C490 C499 1.390 . S
C491 C490 1.387 . S
C491 C493 1.387 . S
H492 C499 0.950 . S
C493 C491 1.387 . S
C493 C495 1.390 . S
C493 H497 0.950 . S
H494 C490 0.950 . S
C495 C493 1.390 . S
C495 C496 1.387 . S
C495 H498 0.950 . S
C496 C495 1.387 . S
C496 C499 1.387 . S
H497 C493 0.950 . S
H498 C495 0.950 . S
C499 C490 1.390 . S
C499 H492 0.950 . S
C499 C496 1.387 . S
C500 C501 1.387 1_455 S
C500 H504 0.950 . S
C500 C509 1.390 . S
C501 C500 1.387 1_655 S
C501 C503 1.387 . S
H502 C509 0.950 . S
C503 C501 1.387 . S
C503 C505 1.390 1_655 S
C503 H507 0.950 . S
H504 C500 0.950 . S
C505 C503 1.390 1_455 S
C505 C506 1.387 . S
C505 H508 0.950 . S
C506 C505 1.387 . S
C506 C509 1.387 . S
H507 C503 0.950 . S
H508 C505 0.950 . S
C509 C500 1.390 . S
C509 H502 0.950 . S
C509 C506 1.387 . S
C510 C511 1.387 . S
C510 H514 0.950 . S
C510 C519 1.390 1_565 S
C511 C510 1.387 . S
C511 C513 1.387 1_565 S
H512 C519 0.950 . S
C513 C511 1.387 1_545 S
C513 C515 1.390 . S
C513 H517 0.934 1_545 S
H514 C510 0.950 . S
C515 C513 1.390 . S
C515 C516 1.387 . S
C515 H518 0.950 . S
C516 C515 1.387 . S
C516 C519 1.387 . S
H517 C513 0.934 1_565 S
H518 C515 0.950 . S
C519 C510 1.390 1_545 S
C519 H512 0.950 . S
C519 C516 1.387 . S
C520 C521 1.387 . S
C520 H524 0.950 . S
C520 C529 1.390 . S
C521 C520 1.387 . S
C521 C523 1.387 . S
H522 C529 0.950 . S
C523 C521 1.387 . S
C523 C525 1.390 . S
C523 H527 0.950 . S
H524 C520 0.950 . S
C525 C523 1.390 . S
C525 C526 1.387 . S
C525 H528 0.950 . S
C526 C525 1.387 . S
C526 C529 1.387 . S
H527 C523 0.950 . S
H528 C525 0.950 . S
C529 C520 1.390 . S
C529 H522 0.950 . S
C529 C526 1.387 . S
C530 C531 1.387 . S
C530 H534 0.950 . S
C530 C539 1.390 1_655 S
C531 C530 1.387 . S
C531 C533 1.387 . S
H532 C539 0.950 . S
C533 C531 1.387 . S
C533 C535 1.390 . S
C533 H537 0.950 . S
H534 C530 0.950 . S
C535 C533 1.390 . S
C535 C536 1.387 1_655 S
C535 H538 0.950 . S
C536 C535 1.387 1_455 S
C536 C539 1.387 . S
H537 C533 0.950 . S
H538 C535 0.950 . S
C539 C530 1.390 1_455 S
C539 H532 0.950 . S
C539 C536 1.387 . S
C540 C541 1.387 . S
C540 H544 0.950 . S
C540 C549 1.390 1_455 S
C541 C540 1.387 . S
C541 C543 1.387 . S
H542 C549 0.950 . S
C543 C541 1.387 . S
C543 C545 1.390 . S
C543 H547 0.950 . S
H544 C540 0.950 . S
C545 C543 1.390 . S
C545 C546 1.387 1_455 S
C545 H548 0.950 . S
C546 C545 1.387 1_655 S
C546 C549 1.387 . S
H547 C543 0.950 . S
H548 C545 0.950 . S
C549 C540 1.390 1_655 S
C549 H542 0.950 . S
C549 C546 1.387 . S
C550 C551 1.387 . S
C550 H554 0.950 . S
C550 C559 1.390 1_565 S
C551 C550 1.387 . S
C551 C553 1.387 1_565 S
H552 C559 0.950 . S
C553 C551 1.387 1_545 S
C553 C555 1.390 . S
C553 H557 0.950 . S
H554 C550 0.950 . S
C555 C553 1.390 . S
C555 C556 1.387 . S
C555 H558 0.950 . S
C556 C555 1.387 . S
C556 C559 1.387 . S
H557 C553 0.950 . S
H558 C555 0.950 . S
C559 C550 1.390 1_545 S
C559 H552 0.950 . S
C559 C556 1.387 . S
C560 C561 1.387 . S
C560 H564 0.950 . S
C560 C569 1.390 . S
C561 C560 1.387 . S
C561 C563 1.387 . S
H562 C569 0.950 . S
C563 C561 1.387 . S
C563 C565 1.390 . S
C563 H567 0.950 . S
H564 C560 0.950 . S
C565 C563 1.390 . S
C565 C566 1.387 . S
C565 H568 0.950 . S
C566 C565 1.387 . S
C566 C569 1.387 . S
H567 C563 0.950 . S
H568 C565 0.950 . S
C569 C560 1.390 . S
C569 H562 0.950 . S
C569 C566 1.387 . S
C570 C571 1.387 1_655 S
C570 H574 0.950 . S
C570 C579 1.390 . S
C571 C570 1.387 1_455 S
C571 C573 1.387 . S
H572 C579 0.950 . S
C573 C571 1.387 . S
C573 C575 1.390 1_455 S
C573 H577 0.950 . S
H574 C570 0.950 . S
C575 C573 1.390 1_655 S
C575 C576 1.387 . S
C575 H578 0.950 . S
C576 C575 1.387 . S
C576 C579 1.387 . S
H577 C573 0.950 . S
H578 C575 0.950 . S
C579 C570 1.390 . S
C579 H572 0.950 . S
C579 C576 1.387 . S
C580 C581 1.387 1_565 S
C580 H584 0.950 . S
C580 C589 1.390 . S
C581 C580 1.387 1_545 S
C581 C583 1.387 . S
H582 C589 0.950 . S
C583 C581 1.387 . S
C583 C585 1.390 1_545 S
C583 H587 0.950 . S
H584 C580 0.950 . S
C585 C583 1.390 1_565 S
C585 C586 1.387 . S
C585 H588 0.950 . S
C586 C585 1.387 . S
C586 C589 1.387 . S
H587 C583 0.950 . S
H588 C585 0.950 . S
C589 C580 1.390 . S
C589 H582 0.950 . S
C589 C586 1.387 . S
C590 C591 1.387 . S
C590 H594 0.950 . S
C590 C599 1.390 . S
C591 C590 1.387 . S
C591 C593 1.387 . S
H592 C599 0.950 . S
C593 C591 1.387 . S
C593 C595 1.390 . S
C593 H597 0.950 . S
H594 C590 0.950 . S
C595 C593 1.390 . S
C595 C596 1.387 . S
C595 H598 0.950 . S
C596 C595 1.387 . S
C596 C599 1.387 . S
H597 C593 0.950 . S
H598 C595 0.950 . S
C599 C590 1.390 . S
C599 H592 0.950 . S
C599 C596 1.387 . S
C600 C601 1.387 . S
C600 H604 0.950 . S
C600 C609 1.390 . S
C601 C600 1.387 . S
C601 C603 1.387 . S
H602 C609 0.950 . S
C603 C601 1.387 . S
C603 C605 1.390 . S
C603 H607 0.950 . S
H604 C600 0.950 . S
C605 C603 1.390 . S
C605 C606 1.387 . S
C605 H608 0.950 . S
C606 C605 1.387 . S
C606 C609 1.387 . S
H607 C603 0.950 . S
H608 C605 0.950 . S
C609 C600 1.390 . S
C609 H602 0.950 . S
C609 C606 1.387 . S
C610 C611 1.387 . S
C610 H614 0.950 . S
C610 C619 1.390 . S
C611 C610 1.387 . S
C611 C613 1.387 . S
H612 C619 0.950 . S
C613 C611 1.387 . S
C613 C615 1.390 . S
C613 H617 0.950 . S
H614 C610 0.950 . S
C615 C613 1.390 . S
C615 C616 1.387 . S
C615 H618 0.950 . S
C616 C615 1.387 . S
C616 C619 1.387 . S
H617 C613 0.950 . S
H618 C615 0.950 . S
C619 C610 1.390 . S
C619 H612 0.950 . S
C619 C616 1.387 . S
C620 C621 1.387 . S
C620 H624 0.950 . S
C620 C629 1.390 . S
C621 C620 1.387 . S
C621 C623 1.387 . S
H622 C629 0.950 . S
C623 C621 1.387 . S
C623 C625 1.390 . S
C623 H627 0.950 . S
H624 C620 0.950 . S
C625 C623 1.390 . S
C625 C626 1.387 . S
C625 H628 0.950 . S
C626 C625 1.387 . S
C626 C629 1.387 . S
H627 C623 0.950 . S
H628 C625 0.950 . S
C629 C620 1.390 . S
C629 H622 0.950 . S
C629 C626 1.387 . S
C630 C631 1.387 . S
C630 H634 0.950 . S
C630 C639 1.390 . S
C631 C630 1.387 . S
C631 C633 1.387 . S
H632 C639 0.950 . S
C633 C631 1.387 . S
C633 C635 1.390 . S
C633 H637 0.950 . S
H634 C630 0.950 . S
C635 C633 1.390 . S
C635 C636 1.387 . S
C635 H638 0.950 . S
C636 C635 1.387 . S
C636 C639 1.387 . S
H637 C633 0.950 . S
H638 C635 0.950 . S
C639 C630 1.390 . S
C639 H632 0.950 . S
C639 C636 1.387 . S
C640 C641 1.387 . S
C640 H644 0.950 . S
C640 C649 1.390 . S
C641 C640 1.387 . S
C641 C643 1.387 . S
H642 C649 0.950 . S
C643 C641 1.387 . S
C643 C645 1.390 . S
C643 H647 0.950 . S
H644 C640 0.950 . S
C645 C643 1.390 . S
C645 C646 1.387 . S
C645 H648 0.950 . S
C646 C645 1.387 . S
C646 C649 1.387 . S
H647 C643 0.950 . S
H648 C645 0.950 . S
C649 C640 1.390 . S
C649 H642 0.950 . S
C649 C646 1.387 . S
C650 C651 1.387 . S
C650 H654 0.950 . S
C650 C659 1.390 . S
C651 C650 1.387 . S
C651 C653 1.387 . S
H652 C659 0.950 . S
C653 C651 1.387 . S
C653 C655 1.390 . S
C653 H657 0.950 . S
H654 C650 0.950 . S
C655 C653 1.390 . S
C655 C656 1.387 . S
C655 H658 0.950 . S
C656 C655 1.387 . S
C656 C659 1.387 . S
H657 C653 0.950 . S
H658 C655 0.950 . S
C659 C650 1.390 . S
C659 H652 0.950 . S
C659 C656 1.387 . S
C660 C661 1.387 . S
C660 H664 0.950 . S
C660 C669 1.390 . S
C661 C660 1.387 . S
C661 C663 1.387 . S
H662 C669 0.950 . S
C663 C661 1.387 . S
C663 C665 1.390 . S
C663 H667 0.950 . S
H664 C660 0.950 . S
C665 C663 1.390 . S
C665 C666 1.387 . S
C665 H668 0.950 . S
C666 C665 1.387 . S
C666 C669 1.387 . S
H667 C663 0.950 . S
H668 C665 0.950 . S
C669 C660 1.390 . S
C669 H662 0.950 . S
C669 C666 1.387 . S
C670 C671 1.387 . S
C670 H674 0.950 . S
C670 C679 1.390 . S
C671 C670 1.387 . S
C671 C673 1.387 . S
H672 C679 0.950 . S
C673 C671 1.387 . S
C673 C675 1.390 . S
C673 H677 0.950 . S
H674 C670 0.950 . S
C675 C673 1.390 . S
C675 C676 1.387 . S
C675 H678 0.950 . S
C676 C675 1.387 . S
C676 C679 1.387 . S
H677 C673 0.950 . S
H678 C675 0.950 . S
C679 C670 1.390 . S
C679 H672 0.950 . S
C679 C676 1.387 . S
C680 C681 1.387 . S
C680 H684 0.950 . S
C680 C689 1.390 . S
C681 C680 1.387 . S
C681 C683 1.387 . S
H682 C689 0.950 . S
C683 C681 1.387 . S
C683 C685 1.390 . S
C683 H687 0.950 . S
H684 C680 0.950 . S
C685 C683 1.390 . S
C685 C686 1.387 . S
C685 H688 0.950 . S
C686 C685 1.387 . S
C686 C689 1.387 . S
H687 C683 0.950 . S
H688 C685 0.950 . S
C689 C680 1.390 . S
C689 H682 0.950 . S
C689 C686 1.387 . S
C690 C691 1.387 . S
C690 H694 0.950 . S
C690 C699 1.390 . S
C691 C690 1.387 . S
C691 C693 1.387 . S
H692 C699 0.950 . S
C693 C691 1.387 . S
C693 C695 1.390 . S
C693 H697 0.950 . S
H694 C690 0.950 . S
C695 C693 1.390 . S
C695 C696 1.387 . S
C695 H698 0.950 . S
C696 C695 1.387 . S
C696 C699 1.387 . S
H697 C693 0.950 . S
H698 C695 0.950 . S
C699 C690 1.390 . S
C699 H692 0.950 . S
C699 C696 1.387 . S
C700 C701 1.387 . S
C700 H704 0.950 . S
C700 C709 1.390 . S
C701 C700 1.387 . S
C701 C703 1.387 . S
H702 C709 0.950 . S
C703 C701 1.387 . S
C703 C705 1.390 . S
C703 H707 0.950 . S
H704 C700 0.950 . S
C705 C703 1.390 . S
C705 C706 1.387 . S
C705 H708 0.950 . S
C706 C705 1.387 . S
C706 C709 1.387 . S
H707 C703 0.950 . S
H708 C705 0.950 . S
C709 C700 1.390 . S
C709 H702 0.950 . S
C709 C706 1.387 . S
C710 C711 1.387 . S
C710 H714 0.950 . S
C710 C719 1.390 . S
C711 C710 1.387 . S
C711 C713 1.387 . S
H712 C719 0.950 . S
C713 C711 1.387 . S
C713 C715 1.390 . S
C713 H717 0.950 . S
H714 C710 0.950 . S
C715 C713 1.390 . S
C715 C716 1.387 . S
C715 H718 0.950 . S
C716 C715 1.387 . S
C716 C719 1.387 . S
H717 C713 0.950 . S
H718 C715 0.950 . S
C719 C710 1.390 . S
C719 H712 0.950 . S
C719 C716 1.387 . S
C720 C721 1.387 . S
C720 H724 0.950 . S
C720 C729 1.390 . S
C721 C720 1.387 . S
C721 C723 1.387 . S
H722 C729 0.950 . S
C723 C721 1.387 . S
C723 C725 1.390 . S
C723 H727 0.950 . S
H724 C720 0.950 . S
C725 C723 1.390 . S
C725 C726 1.387 . S
C725 H728 0.950 . S
C726 C725 1.387 . S
C726 C729 1.387 . S
H727 C723 0.950 . S
H728 C725 0.950 . S
C729 C720 1.390 . S
C729 H722 0.950 . S
C729 C726 1.387 . S
C730 C731 1.387 . S
C730 H734 0.950 . S
C730 C739 1.390 . S
C731 C730 1.387 . S
C731 C733 1.387 . S
H732 C739 0.950 . S
C733 C731 1.387 . S
C733 C735 1.390 . S
C733 H737 0.950 . S
H734 C730 0.950 . S
C735 C733 1.390 . S
C735 C736 1.387 . S
C735 H738 0.950 . S
C736 C735 1.387 . S
C736 C739 1.387 . S
H737 C733 0.950 . S
H738 C735 0.950 . S
C739 C730 1.390 . S
C739 H732 0.950 . S
C739 C736 1.387 . S
C740 C741 1.387 . S
C740 H744 0.950 . S
C740 C749 1.390 . S
C741 C740 1.387 . S
C741 C743 1.387 . S
H742 C749 0.950 . S
C743 C741 1.387 . S
C743 C745 1.390 . S
C743 H747 0.950 . S
H744 C740 0.950 . S
C745 C743 1.390 . S
C745 C746 1.387 . S
C745 H748 0.950 . S
C746 C745 1.387 . S
C746 C749 1.387 . S
H747 C743 0.950 . S
H748 C745 0.950 . S
C749 C740 1.390 . S
C749 H742 0.950 . S
C749 C746 1.387 . S
C750 C751 1.387 . S
C750 H754 0.950 . S
C750 C759 1.390 . S
C751 C750 1.387 . S
C751 C753 1.387 . S
H752 C759 0.950 . S
C753 C751 1.387 . S
C753 C755 1.390 . S
C753 H757 0.950 . S
H754 C750 0.950 . S
C755 C753 1.390 . S
C755 C756 1.387 . S
C755 H758 0.950 . S
C756 C755 1.387 . S
C756 C759 1.387 . S
H757 C753 0.950 . S
H758 C755 0.950 . S
C759 C750 1.390 . S
C759 H752 0.950 . S
C759 C756 1.387 . S
C760 C761 1.387 . S
C760 H764 0.950 . S
C760 C769 1.390 . S
C761 C760 1.387 . S
C761 C763 1.387 . S
H762 C769 0.950 . S
C763 C761 1.387 . S
C763 C765 1.390 . S
C763 H767 0.950 . S
H764 C760 0.950 . S
C765 C763 1.390 . S
C765 C766 1.387 . S
C765 H768 0.950 . S
C766 C765 1.387 . S
C766 C769 1.387 . S
H767 C763 0.950 . S
H768 C765 0.950 . S
C769 C760 1.390 . S
C769 H762 0.950 . S
C769 C766 1.387 . S
C770 C771 1.387 . S
C770 H774 0.950 . S
C770 C779 1.390 . S
C771 C770 1.387 . S
C771 C773 1.387 . S
H772 C779 0.950 . S
C773 C771 1.387 . S
C773 C775 1.390 . S
C773 H777 0.950 . S
H774 C770 0.950 . S
C775 C773 1.390 . S
C775 C776 1.387 . S
C775 H778 0.950 . S
C776 C775 1.387 . S
C776 C779 1.387 . S
H777 C773 0.950 . S
H778 C775 0.950 . S
C779 C770 1.390 . S
C779 H772 0.950 . S
C779 C776 1.387 . S
C780 C781 1.387 . S
C780 H784 0.950 . S
C780 C789 1.390 . S
C781 C780 1.387 . S
C781 C783 1.387 1_556 S
H782 C789 0.950 . S
C783 C781 1.387 1_554 S
C783 C785 1.390 . S
C783 H787 0.950 . S
H784 C780 0.950 . S
C785 C783 1.390 . S
C785 C786 1.387 . S
C785 H788 0.950 . S
C786 C785 1.387 . S
C786 C789 1.387 1_554 S
H787 C783 0.950 . S
H788 C785 0.950 . S
C789 C780 1.390 . S
C789 H782 0.950 . S
C789 C786 1.387 1_556 S
C790 C791 1.387 . S
C790 H794 0.950 . S
C790 C799 1.390 1_455 S
C791 C790 1.387 . S
C791 C793 1.387 . S
H792 C799 0.950 . S
C793 C791 1.387 . S
C793 C795 1.390 1_455 S
C793 H797 0.950 . S
H794 C790 0.950 . S
C795 C793 1.390 1_655 S
C795 C796 1.387 . S
C795 H798 0.950 . S
C796 C795 1.387 . S
C796 C799 1.387 . S
H797 C793 0.950 . S
H798 C795 0.950 . S
C799 C790 1.390 1_655 S
C799 H792 0.950 . S
C799 C796 1.387 . S
C800 C801 1.387 . S
C800 H804 0.950 . S
C800 C809 1.390 1_564 S
C801 C800 1.387 . S
C801 C803 1.387 . S
H802 C809 0.950 . S
C803 C801 1.387 . S
C803 C805 1.390 1_564 S
C803 H807 0.950 . S
H804 C800 0.950 . S
C805 C803 1.390 1_546 S
C805 C806 1.387 . S
C805 H808 0.950 . S
C806 C805 1.387 . S
C806 C809 1.387 . S
H807 C803 0.950 . S
H808 C805 0.950 . S
C809 C800 1.390 1_546 S
C809 H802 0.950 . S
C809 C806 1.387 . S
C810 C811 1.387 . S
C810 H814 0.950 . S
C810 C819 1.390 . S
C811 C810 1.387 . S
C811 C813 1.387 . S
H812 C819 0.950 . S
C813 C811 1.387 . S
C813 C815 1.390 . S
C813 H817 0.950 . S
H814 C810 0.950 . S
C815 C813 1.390 . S
C815 C816 1.387 . S
C815 H818 0.950 . S
C816 C815 1.387 . S
C816 C819 1.387 . S
H817 C813 0.950 . S
H818 C815 0.950 . S
C819 C810 1.390 . S
C819 H812 0.950 . S
C819 C816 1.387 . S
C820 C821 1.387 1_554 S
C820 H824 0.950 . S
C820 C829 1.390 1_655 S
C821 C820 1.387 1_556 S
C821 C823 1.387 . S
H822 C829 0.950 . S
C823 C821 1.387 . S
C823 C825 1.390 1_655 S
C823 H827 0.950 . S
H824 C820 0.950 . S
C825 C823 1.390 1_455 S
C825 C826 1.387 1_556 S
C825 H828 0.950 . S
C826 C825 1.387 1_554 S
C826 C829 1.387 . S
H827 C823 0.950 . S
H828 C825 0.950 . S
C829 C820 1.390 1_455 S
C829 H822 0.950 . S
C829 C826 1.387 . S
C830 C831 1.387 . S
C830 H834 0.950 . S
C830 C839 1.390 1_565 S
C831 C830 1.387 . S
C831 C833 1.387 . S
H832 C839 0.950 . S
C833 C831 1.387 . S
C833 C835 1.390 1_565 S
C833 H837 0.950 . S
H834 C830 0.950 . S
C835 C833 1.390 1_545 S
C835 C836 1.387 . S
C835 H838 0.950 . S
C836 C835 1.387 . S
C836 C839 1.387 . S
H837 C833 0.950 . S
H838 C835 0.950 . S
C839 C830 1.390 1_545 S
C839 H832 0.950 . S
C839 C836 1.387 . S
C481 C171 1.426 . S
C486 C16 1.465 . S
C491 C211 1.426 . S
C496 C56 1.466 . S
C501 C96 1.465 . S
C506 C11 1.426 . S
C511 C136 1.463 . S
C516 C51 1.423 . S
C521 C176 1.463 . S
C526 C91 1.422 . S
C531 C131 1.424 . S
C536 C216 1.465 . S
C541 C331 1.423 . S
C546 C256 1.463 . S
C551 C296 1.464 . S
C556 C371 1.423 . S
C561 C411 1.425 . S
C566 C336 1.465 . S
C571 C376 1.466 . S
C576 C451 1.427 . S
C581 C416 1.465 . S
C586 C251 1.426 . S
C591 C291 1.423 . S
C596 C456 1.464 . S
C601 C162 1.859 . S
C606 C7 1.816 . S
C611 C47 1.818 . S
C616 C202 1.860 . S
C621 C87 1.816 . S
C626 C2 1.859 . S
C631 C127 1.817 . S
C636 C42 1.860 . S
C641 C82 1.858 . S
C646 C167 1.814 . S
C651 C122 1.860 . S
C656 C207 1.816 . S
C661 C322 1.858 . S
C666 C247 1.814 . S
C671 C287 1.815 . S
C676 C362 1.859 . S
C681 C327 1.814 . S
C686 C402 1.858 . S
C691 C442 1.858 . S
C696 C367 1.814 . S
C701 C407 1.818 . S
C706 C242 1.861 . S
C711 C282 1.861 . S
C716 C447 1.818 . S
C721 C419 1.618 . S
C726 C19 1.618 . S
C731 C59 1.614 . S
C736 C459 1.615 . S
C741 C99 1.615 . S
C746 C259 1.617 . S
C751 C139 1.618 . S
C756 C299 1.618 . S
C761 C179 1.614 . S
C766 C339 1.615 . S
C771 C379 1.618 . S
C776 C219 1.618 . S
C781 C370 2.433 . S
C786 C10 2.434 . S
C791 C410 2.433 . S
C796 C50 2.433 . S
C801 C90 2.432 . S
C806 C450 2.432 . S
C811 C130 2.433 . S
C816 C250 2.433 . S
C821 C290 2.434 . S
C826 C170 2.434 . S
C831 C330 2.432 . S
C836 C210 2.432 . S
