# Generated by pormake.
# Topology usf, (4)-cn, num edge types: 1
# Building blocks:
#     Node 0, Type 0, BuildingBlock: ESEHIV_clean_sbu_0, # of connection points: 4
#     Node 1, Type 0, BuildingBlock: ESEHIV_clean_sbu_0, # of connection points: 4
#     Node 2, Type 0, BuildingBlock: ESEHIV_clean_sbu_0, # of connection points: 4
#     Node 3, Type 0, BuildingBlock: ESEHIV_clean_sbu_0, # of connection points: 4
#     Node 4, Type 0, BuildingBlock: ESEHIV_clean_sbu_0, # of connection points: 4
#     Node 5, Type 0, BuildingBlock: ESEHIV_clean_sbu_0, # of connection points: 4
#     Node 6, Type 0, BuildingBlock: ESEHIV_clean_sbu_0, # of connection points: 4
#     Node 7, Type 0, BuildingBlock: ESEHIV_clean_sbu_0, # of connection points: 4
#     Node 8, Type 0, BuildingBlock: ESEHIV_clean_sbu_0, # of connection points: 4
#     Node 9, Type 0, BuildingBlock: ESEHIV_clean_sbu_0, # of connection points: 4
#     Node 10, Type 0, BuildingBlock: ESEHIV_clean_sbu_0, # of connection points: 4
#     Node 11, Type 0, BuildingBlock: ESEHIV_clean_sbu_0, # of connection points: 4
#     Node 12, Type 0, BuildingBlock: ESEHIV_clean_sbu_0, # of connection points: 4
#     Node 13, Type 0, BuildingBlock: ESEHIV_clean_sbu_0, # of connection points: 4
#     Node 14, Type 0, BuildingBlock: ESEHIV_clean_sbu_0, # of connection points: 4
#     Node 15, Type 0, BuildingBlock: ESEHIV_clean_sbu_0, # of connection points: 4
#     Node 16, Type 0, BuildingBlock: ESEHIV_clean_sbu_0, # of connection points: 4
#     Node 17, Type 0, BuildingBlock: ESEHIV_clean_sbu_0, # of connection points: 4
#     Edge 18, Type (0, 0), BuildingBlock: UVAHIK_clean_linker_0, # of connection points: 2
#     Edge 19, Type (0, 0), BuildingBlock: UVAHIK_clean_linker_0, # of connection points: 2
#     Edge 20, Type (0, 0), BuildingBlock: UVAHIK_clean_linker_0, # of connection points: 2
#     Edge 21, Type (0, 0), BuildingBlock: UVAHIK_clean_linker_0, # of connection points: 2
#     Edge 22, Type (0, 0), BuildingBlock: UVAHIK_clean_linker_0, # of connection points: 2
#     Edge 23, Type (0, 0), BuildingBlock: UVAHIK_clean_linker_0, # of connection points: 2
#     Edge 24, Type (0, 0), BuildingBlock: UVAHIK_clean_linker_0, # of connection points: 2
#     Edge 25, Type (0, 0), BuildingBlock: UVAHIK_clean_linker_0, # of connection points: 2
#     Edge 26, Type (0, 0), BuildingBlock: UVAHIK_clean_linker_0, # of connection points: 2
#     Edge 27, Type (0, 0), BuildingBlock: UVAHIK_clean_linker_0, # of connection points: 2
#     Edge 28, Type (0, 0), BuildingBlock: UVAHIK_clean_linker_0, # of connection points: 2
#     Edge 29, Type (0, 0), BuildingBlock: UVAHIK_clean_linker_0, # of connection points: 2
#     Edge 30, Type (0, 0), BuildingBlock: UVAHIK_clean_linker_0, # of connection points: 2
#     Edge 31, Type (0, 0), BuildingBlock: UVAHIK_clean_linker_0, # of connection points: 2
#     Edge 32, Type (0, 0), BuildingBlock: UVAHIK_clean_linker_0, # of connection points: 2
#     Edge 33, Type (0, 0), BuildingBlock: UVAHIK_clean_linker_0, # of connection points: 2
#     Edge 34, Type (0, 0), BuildingBlock: UVAHIK_clean_linker_0, # of connection points: 2
#     Edge 35, Type (0, 0), BuildingBlock: UVAHIK_clean_linker_0, # of connection points: 2
#     Edge 36, Type (0, 0), BuildingBlock: UVAHIK_clean_linker_0, # of connection points: 2
#     Edge 37, Type (0, 0), BuildingBlock: UVAHIK_clean_linker_0, # of connection points: 2
#     Edge 38, Type (0, 0), BuildingBlock: UVAHIK_clean_linker_0, # of connection points: 2
#     Edge 39, Type (0, 0), BuildingBlock: UVAHIK_clean_linker_0, # of connection points: 2
#     Edge 40, Type (0, 0), BuildingBlock: UVAHIK_clean_linker_0, # of connection points: 2
#     Edge 41, Type (0, 0), BuildingBlock: UVAHIK_clean_linker_0, # of connection points: 2
#     Edge 42, Type (0, 0), BuildingBlock: UVAHIK_clean_linker_0, # of connection points: 2
#     Edge 43, Type (0, 0), BuildingBlock: UVAHIK_clean_linker_0, # of connection points: 2
#     Edge 44, Type (0, 0), BuildingBlock: UVAHIK_clean_linker_0, # of connection points: 2
#     Edge 45, Type (0, 0), BuildingBlock: UVAHIK_clean_linker_0, # of connection points: 2
#     Edge 46, Type (0, 0), BuildingBlock: UVAHIK_clean_linker_0, # of connection points: 2
#     Edge 47, Type (0, 0), BuildingBlock: UVAHIK_clean_linker_0, # of connection points: 2
#     Edge 48, Type (0, 0), BuildingBlock: UVAHIK_clean_linker_0, # of connection points: 2
#     Edge 49, Type (0, 0), BuildingBlock: UVAHIK_clean_linker_0, # of connection points: 2
#     Edge 50, Type (0, 0), BuildingBlock: UVAHIK_clean_linker_0, # of connection points: 2
#     Edge 51, Type (0, 0), BuildingBlock: UVAHIK_clean_linker_0, # of connection points: 2
#     Edge 52, Type (0, 0), BuildingBlock: UVAHIK_clean_linker_0, # of connection points: 2
#     Edge 53, Type (0, 0), BuildingBlock: UVAHIK_clean_linker_0, # of connection points: 2
# Relax obj value: 0.019
# Max RMSD: 0.174
# Mean RMSD: 0.115
data_MOF--net-usf--node1-ESEHIV_clean_sbu_0--edge1-UVAHIK_clean_linker_0
_symmetry_space_group_name_H-M    P1
_symmetry_Int_Tables_number       1
_symmetry_cell_setting            triclinic
loop_
_symmetry_equiv_pos_as_xyz
'x, y, z'
_cell_length_a     60.378207
_cell_length_b     63.435143
_cell_length_c     42.02086
_cell_angle_alpha  90.218916
_cell_angle_beta   90.236134
_cell_angle_gamma 118.40487
loop_
_atom_site_label
_atom_site_type_symbol
_atom_site_fract_x
_atom_site_fract_y
_atom_site_fract_z
_atom_type_partial_charge
Cu0 Cu 0.0446 0.52997 0.02845 0.0
N1 N 0.02724 0.51708 0.9906 0.0
N2 N 0.0211 0.51128 0.93829 0.0
C3 C 0.03697 0.52469 0.96164 0.0
C4 C 1.00048 0.49455 0.95316 0.0
C5 C 1.00441 0.49806 0.98554 0.0
O6 O 0.07594 0.52829 0.02395 0.0
C7 C 0.03009 0.56564 0.02714 0.0
O8 O 1.01069 0.54836 0.01243 0.0
H9 H 0.05548 0.53971 0.95788 0.0
H10 H 0.9918 0.48713 1.00397 0.0
N11 N 0.02621 0.51163 0.06278 0.0
N12 N 0.01762 0.49564 0.11124 0.0
C13 C 0.03549 0.50641 0.08897 0.0
C14 C 1.0017 0.50405 0.06874 0.0
C15 C 0.99632 0.4941 0.09863 0.0
C16 C 0.07359 0.50721 0.02347 0.0
O17 O 0.05123 0.4889 0.02838 0.0
H18 H 0.05525 0.51173 0.09235 0.0
H19 H 0.98894 0.50661 0.0531 0.0
O20 O 0.04842 0.5621 0.03537 0.0
H21 H 0.98415 0.48034 0.94151 0.0
H22 H 0.97836 0.48704 0.11057 0.0
Cu23 Cu 0.51011 0.49532 0.01435 0.0
N24 N 0.51994 0.47194 0.02204 0.0
N25 N 0.51496 0.43629 0.03788 0.0
C26 C 0.50387 0.44838 0.02489 0.0
C27 C 0.5393 0.45289 0.04229 0.0
C28 C 0.5423 0.47483 0.03251 0.0
O29 O 0.49499 0.49754 0.05603 0.0
C30 C 0.48672 0.49855 0.95269 0.0
O31 O 0.48624 0.5177 0.96384 0.0
H32 H 0.48393 0.44066 0.01993 0.0
H33 H 0.55921 0.49187 0.03484 0.0
N34 N 0.53887 0.52543 1.01078 0.0
N35 N 0.56423 0.56365 0.99714 0.0
C36 C 0.54447 0.54245 0.98841 0.0
C37 C 0.5559 0.5362 0.03419 0.0
C38 C 0.57156 0.55963 0.02586 0.0
C39 C 0.4804 0.48025 0.07413 0.0
O40 O 0.46801 0.4586 0.06196 0.0
H41 H 0.5335 0.53986 0.96702 0.0
H42 H 0.55603 0.52792 0.05659 0.0
O43 O 0.49304 0.4864 0.9715 0.0
H44 H 0.55367 0.44973 0.05333 0.0
H45 H 0.58665 0.57288 0.04037 0.0
Cu46 Cu 0.49058 0.93343 0.02934 0.0
N47 N 0.50194 0.92133 0.99627 0.0
N48 N 0.50794 0.91276 0.94648 0.0
C49 C 0.49366 0.9182 0.96596 0.0
C50 C 0.52582 0.91223 0.96533 0.0
C51 C 0.52198 0.91742 0.99612 0.0
O52 O 0.4578 0.9298 0.01711 0.0
C53 C 0.53587 0.97823 0.02405 0.0
O54 O 0.53729 0.97089 0.99524 0.0
H55 H 0.47843 0.92131 0.95795 0.0
H56 H 0.53374 0.91945 0.01663 0.0
N57 N 0.48603 0.91573 0.06622 0.0
N58 N 0.48066 0.90713 0.11801 0.0
C59 C 0.48074 0.92178 0.09478 0.0
C60 C 0.48937 0.89651 0.07136 0.0
C61 C 0.48613 0.89118 0.10341 0.0
C62 C 0.45402 0.94156 0.99524 0.0
O63 O 0.47345 0.95929 0.98155 0.0
H64 H 0.47805 0.9373 0.0986 0.0
H65 H 0.49441 0.8874 0.05328 0.0
O66 O 0.51622 0.96597 0.04053 0.0
H67 H 0.541 0.90907 0.9573 0.0
H68 H 0.48789 0.87685 0.11507 0.0
Cu69 Cu 0.49674 0.97818 0.53529 0.0
N70 N 0.47676 0.96669 0.4988 0.0
N71 N 0.46479 0.95456 0.4487 0.0
C72 C 0.48366 0.96197 0.47034 0.0
C73 C 0.4453 0.95464 0.46422 0.0
C74 C 0.45274 0.96211 0.49511 0.0
O75 O 0.53092 0.9845 0.52429 0.0
C76 C 0.47496 1.0018 0.56897 0.0
O77 O 0.45874 0.97953 0.57566 0.0
H78 H 0.50234 0.96449 0.46543 0.0
H79 H 0.44148 0.96417 0.51357 0.0
N80 N 0.4846 0.9544 0.56647 0.0
N81 N 0.48026 0.93598 0.61299 0.0
C82 C 0.4942 0.95591 0.59587 0.0
C83 C 0.46401 0.93275 0.56479 0.0
C84 C 0.46123 0.92136 0.59351 0.0
C85 C 0.53402 0.96603 0.5213 0.0
O86 O 0.51464 0.94475 0.5256 0.0
H87 H 0.51065 0.97161 0.60479 0.0
H88 H 0.45173 0.92588 0.54425 0.0
O89 O 0.4938 1.00592 0.55137 0.0
H90 H 0.42692 0.94954 0.45407 0.0
H91 H 0.44638 0.90371 0.59956 0.0
Cu92 Cu 0.04941 0.53018 0.51485 0.0
N93 N 0.06752 0.54142 0.55287 0.0
N94 N 0.07353 0.54591 0.60546 0.0
C95 C 0.05689 0.53487 0.58165 0.0
C96 C 0.0956 0.56003 0.59105 0.0
C97 C 0.09183 0.55729 0.55859 0.0
O98 O 0.02146 0.49853 0.52473 0.0
C99 C 0.05955 0.57476 0.49418 0.0
O100 O 0.08216 0.57684 0.49701 0.0
H101 H 0.03726 0.52205 0.58492 0.0
H102 H 0.10582 0.56665 0.54067 0.0
N103 N 0.06831 0.52558 0.48321 0.0
N104 N 0.07635 0.51428 0.43629 0.0
C105 C 0.0585 0.51398 0.45568 0.0
C106 C 0.09327 0.53327 0.48134 0.0
C107 C 0.09831 0.52651 0.45216 0.0
C108 C 0.02895 0.48382 0.53406 0.0
O109 O 0.05331 0.49117 0.53469 0.0
H110 H 0.03873 0.50629 0.44949 0.0
H111 H 0.10694 0.54341 0.49949 0.0
O112 O 0.04055 0.55453 0.50005 0.0
H113 H 0.11309 0.5719 0.60301 0.0
H114 H 0.11666 0.53049 0.44315 0.0
Cu115 Cu 0.48674 0.49165 0.51421 0.0
N116 N 0.49028 0.47842 0.47451 0.0
N117 N 0.4919 0.47339 0.42115 0.0
C118 C 0.48874 0.48633 0.44489 0.0
C119 C 0.4956 0.45665 0.43658 0.0
C120 C 0.49449 0.4597 0.46912 0.0
O121 O 0.45358 0.48963 0.51181 0.0
C122 C 0.52018 0.53671 0.54227 0.0
O123 O 0.50183 0.53198 0.56236 0.0
H124 H 0.48574 0.50157 0.44073 0.0
H125 H 0.49643 0.44879 0.48747 0.0
N126 N 0.48777 0.4761 0.55284 0.0
N127 N 0.48802 0.47007 0.60613 0.0
C128 C 0.48019 0.47937 0.58211 0.0
C129 C 0.50085 0.46429 0.55869 0.0
C130 C 0.50088 0.46042 0.59108 0.0
C131 C 0.44726 0.50107 0.49217 0.0
O132 O 0.46489 0.51915 0.47662 0.0
H133 H 0.46994 0.48926 0.58576 0.0
H134 H 0.51111 0.46011 0.54096 0.0
O135 O 0.51586 0.52338 0.51782 0.0
H136 H 0.49844 0.4428 0.42521 0.0
H137 H 0.51096 0.45231 0.60268 0.0
Cu138 Cu 0.71847 0.8683 0.35749 0.0
N139 N 0.69831 0.85894 0.32089 0.0
N140 N 0.6887 0.85449 0.26905 0.0
C141 C 0.70712 0.86479 0.29111 0.0
C142 C 0.66734 0.84183 0.28567 0.0
C143 C 0.67331 0.84474 0.31771 0.0
O144 O 0.75241 0.87576 0.34408 0.0
C145 C 0.69412 0.88746 0.39339 0.0
O146 O 0.67795 0.8645 0.39443 0.0
H147 H 0.72688 0.87566 0.28575 0.0
H148 H 0.66041 0.83675 0.33723 0.0
N149 N 0.70845 0.84313 0.38635 0.0
N150 N 0.70671 0.82453 0.43196 0.0
C151 C 0.71832 0.84521 0.41566 0.0
C152 C 0.6901 0.82025 0.38381 0.0
C153 C 0.68886 0.80875 0.41209 0.0
C154 C 0.75307 0.8584 0.32942 0.0
O155 O 0.73204 0.83826 0.32554 0.0
H156 H 0.73317 0.86185 0.4252 0.0
H157 H 0.67827 0.81254 0.36307 0.0
O158 O 0.71453 0.89417 0.37796 0.0
H159 H 0.64877 0.83113 0.27545 0.0
H160 H 0.67585 0.79028 0.41763 0.0
Cu161 Cu 0.1752 0.84571 0.34601 0.0
N162 N 0.18356 0.83521 0.30879 0.0
N163 N 0.18558 0.83063 0.25644 0.0
C164 C 0.17498 0.8371 0.28001 0.0
C165 C 0.20112 0.82384 0.27101 0.0
C166 C 0.19991 0.8268 0.30348 0.0
O167 O 0.17154 0.87385 0.33466 0.0
C168 C 0.15004 0.80202 0.37511 0.0
O169 O 0.17305 0.80492 0.37367 0.0
H170 H 0.16173 0.84387 0.27647 0.0
H171 H 0.2108 0.82387 0.32176 0.0
N172 N 0.20089 0.85602 0.37635 0.0
N173 N 0.21858 0.86515 0.42457 0.0
C174 C 0.19689 0.85466 0.40786 0.0
C175 C 0.22608 0.86784 0.37289 0.0
C176 C 0.2371 0.87365 0.40278 0.0
C177 C 0.18968 0.88939 0.31824 0.0
O178 O 0.20854 0.88549 0.31093 0.0
H179 H 0.17831 0.84682 0.4183 0.0
H180 H 0.23573 0.87236 0.35031 0.0
O181 O 0.14561 0.81828 0.36372 0.0
H182 H 0.21331 0.81824 0.25903 0.0
H183 H 0.25706 0.88342 0.40808 0.0
Cu184 Cu 0.14654 0.36258 0.34869 0.0
N185 N 0.1462 0.37609 0.30956 0.0
N186 N 0.14383 0.37711 0.25655 0.0
C187 C 0.14539 0.36499 0.28201 0.0
C188 C 0.14389 0.39689 0.26874 0.0
C189 C 0.1453 0.39619 0.30155 0.0
O190 O 0.12006 0.3292 0.34457 0.0
C191 C 0.19794 0.38906 0.35482 0.0
O192 O 0.19197 0.40527 0.34461 0.0
H193 H 0.146 0.34824 0.28096 0.0
H194 H 0.14549 0.40928 0.31822 0.0
N195 N 0.13956 0.37713 0.38308 0.0
N196 N 0.1377 0.38558 0.4343 0.0
C197 C 0.1456 0.37465 0.41311 0.0
C198 C 0.12748 0.39029 0.38516 0.0
C199 C 0.12615 0.3954 0.4169 0.0
C200 C 0.09753 0.32591 0.34616 0.0
O201 O 0.09393 0.34426 0.35288 0.0
H202 H 0.15486 0.36421 0.41931 0.0
H203 H 0.11952 0.39518 0.36524 0.0
O204 O 0.1805 0.36743 0.35726 0.0
H205 H 0.14256 0.41068 0.2551 0.0
H206 H 0.1172 0.40532 0.42641 0.0
Cu207 Cu 0.17625 0.33858 0.84782 0.0
N208 N 0.15395 0.3326 0.81386 0.0
N209 N 0.14025 0.33486 0.76516 0.0
C210 C 0.16053 0.3401 0.78379 0.0
C211 C 0.12014 0.32358 0.78434 0.0
C212 C 0.12864 0.32226 0.81435 0.0
O213 O 0.20333 0.33206 0.83376 0.0
C214 C 0.1681 0.3733 0.87556 0.0
O215 O 0.14538 0.35487 0.87459 0.0
H216 H 0.17989 0.35001 0.77613 0.0
H217 H 0.11716 0.31494 0.83522 0.0
N218 N 0.16009 0.31853 0.88215 0.0
N219 N 0.14853 0.30978 0.93279 0.0
C220 C 0.16582 0.32539 0.91271 0.0
C221 C 0.13866 0.29749 0.88291 0.0
C222 C 0.13136 0.29212 0.91423 0.0
C223 C 0.19637 0.31027 0.8263 0.0
O224 O 0.17233 0.29471 0.82806 0.0
H225 H 0.18126 0.34253 0.91988 0.0
H226 H 0.12833 0.28741 0.86218 0.0
O227 O 0.1863 0.37107 0.8636 0.0
H228 H 0.10067 0.31692 0.77732 0.0
H229 H 0.11429 0.27698 0.92259 0.0
Cu230 Cu 0.70802 0.84067 0.84622 0.0
N231 N 0.72502 0.83286 0.8154 0.0
N232 N 0.73508 0.82529 0.76724 0.0
C233 C 0.71957 0.83077 0.78413 0.0
C234 C 0.75124 0.82423 0.78864 0.0
C235 C 0.74489 0.82883 0.81848 0.0
O236 O 0.70334 0.86669 0.82831 0.0
C237 C 0.66673 0.79256 0.84249 0.0
O238 O 0.67306 0.79281 0.8126 0.0
H239 H 0.70457 0.8334 0.77396 0.0
H240 H 0.7541 0.82924 0.84078 0.0
N241 N 0.72762 0.85164 0.88294 0.0
N242 N 0.73651 0.8577 0.93488 0.0
C243 C 0.71859 0.84597 0.91263 0.0
C244 C 0.75218 0.8675 0.88629 0.0
C245 C 0.75774 0.87131 0.91841 0.0
C246 C 0.70573 0.88476 0.84437 0.0
O247 O 0.70727 0.88441 0.87553 0.0
H248 H 0.69893 0.8342 0.91768 0.0
H249 H 0.76495 0.87603 0.8668 0.0
O250 O 0.67765 0.81176 0.859 0.0
H251 H 0.76627 0.82011 0.78316 0.0
H252 H 0.77592 0.88329 0.92874 0.0
Cu253 Cu 0.15981 0.8421 0.83596 0.0
N254 N 0.16797 0.86431 0.8032 0.0
N255 N 0.1789 0.87882 0.75419 0.0
C256 C 0.17218 0.85975 0.77327 0.0
C257 C 0.17901 0.89621 0.7729 0.0
C258 C 0.17209 0.88713 0.80323 0.0
O259 O 0.13095 0.81233 0.82103 0.0
C260 C 0.20942 0.86157 0.85261 0.0
O261 O 0.20597 0.88044 0.8504 0.0
H262 H 0.17097 0.84286 0.76592 0.0
H263 H 0.17067 0.89661 0.8239 0.0
N264 N 0.15041 0.85166 0.87304 0.0
N265 N 0.14595 0.85402 0.9254 0.0
C266 C 0.15482 0.84558 0.90198 0.0
C267 C 0.13827 0.86449 0.87802 0.0
C268 C 0.13558 0.86608 0.91048 0.0
C269 C 0.11339 0.81527 0.80826 0.0
O270 O 0.11591 0.83698 0.807 0.0
H271 H 0.1647 0.83534 0.90566 0.0
H272 H 0.1317 0.87197 0.85946 0.0
O273 O 0.19081 0.8409 0.84692 0.0
H274 H 0.18372 0.91412 0.76523 0.0
H275 H 0.1264 0.87506 0.9221 0.0
Cu276 Cu 0.39757 0.21123 0.69078 0.0
N277 N 0.41579 0.23031 0.65682 0.0
N278 N 0.42899 0.23884 0.60659 0.0
C279 C 0.41893 0.22167 0.6289 0.0
C280 C 0.43242 0.25921 0.62111 0.0
C281 C 0.42428 0.25389 0.6522 0.0
O282 O 0.38812 0.17861 0.67653 0.0
C283 C 0.35132 0.20729 0.71693 0.0
O284 O 0.34715 0.18655 0.72864 0.0
H285 H 0.41229 0.20281 0.62439 0.0
H286 H 0.42337 0.26603 0.66964 0.0
N287 N 0.41802 0.21844 0.72696 0.0
N288 N 0.42902 0.21839 0.77782 0.0
C289 C 0.41014 0.21452 0.75735 0.0
C290 C 0.4428 0.22534 0.72818 0.0
C291 C 0.44965 0.22529 0.75955 0.0
C292 C 0.3903 0.1631 0.69353 0.0
O293 O 0.39348 0.16654 0.72441 0.0
H294 H 0.39063 0.20745 0.76407 0.0
H295 H 0.45477 0.22913 0.7076 0.0
O296 O 0.37051 0.21897 0.69954 0.0
H297 H 0.43948 0.27651 0.60982 0.0
H298 H 0.46822 0.22943 0.76811 0.0
Cu299 Cu 0.8256 0.18547 0.68756 0.0
N300 N 0.82759 0.15688 0.69073 0.0
N301 N 0.81703 0.11886 0.70275 0.0
C302 C 0.81305 0.13774 0.70886 0.0
C303 C 0.83474 0.12647 0.67984 0.0
C304 C 0.84111 0.14983 0.67241 0.0
O305 O 0.81253 0.18927 0.72986 0.0
C306 C 0.80415 0.19636 0.62924 0.0
O307 O 0.80619 0.2158 0.6431 0.0
H308 H 0.79903 0.13734 0.72516 0.0
H309 H 0.85407 0.16065 0.65416 0.0
N310 N 0.8578 0.2117 0.68226 0.0
N311 N 0.88784 0.24807 0.66728 0.0
C312 C 0.863 0.23387 0.67278 0.0
C313 C 0.88016 0.21192 0.6834 0.0
C314 C 0.89865 0.23421 0.67418 0.0
C315 C 0.8253 0.18819 0.75381 0.0
O316 O 0.84537 0.18583 0.74795 0.0
H317 H 0.84871 0.23931 0.66961 0.0
H318 H 0.88278 0.19671 0.68951 0.0
O319 O 0.80835 0.1816 0.64554 0.0
H320 H 0.84233 0.11584 0.66887 0.0
H321 H 0.91837 0.23933 0.6716 0.0
Cu322 Cu 0.82103 0.70228 0.68064 0.0
N323 N 0.81883 0.71912 0.71589 0.0
N324 N 0.82042 0.72962 0.76686 0.0
C325 C 0.82449 0.71581 0.74576 0.0
C326 C 0.81189 0.74221 0.74966 0.0
C327 C 0.81114 0.73584 0.71807 0.0
O328 O 0.84967 0.6965 0.68913 0.0
C329 C 0.76946 0.67714 0.67158 0.0
O330 O 0.77269 0.69886 0.67656 0.0
H331 H 0.8309 0.70304 0.75198 0.0
H332 H 0.80506 0.74267 0.69824 0.0
N333 N 0.82738 0.72023 0.64365 0.0
N334 N 0.8315 0.72785 0.59163 0.0
C335 C 0.82491 0.71096 0.61427 0.0
C336 C 0.83574 0.74386 0.63964 0.0
C337 C 0.83841 0.74864 0.60745 0.0
C338 C 0.87135 0.71492 0.68752 0.0
O339 O 0.87277 0.73549 0.67941 0.0
H340 H 0.8191 0.69224 0.60974 0.0
H341 H 0.84013 0.75676 0.6587 0.0
O342 O 0.78857 0.67363 0.67314 0.0
H343 H 0.80667 0.75509 0.75923 0.0
H344 H 0.84502 0.76604 0.5966 0.0
Cu345 Cu 0.88915 0.7144 0.17778 0.0
N346 N 0.86473 0.70218 0.14566 0.0
N347 N 0.84662 0.69818 0.09814 0.0
C348 C 0.86803 0.70965 0.11534 0.0
C349 C 0.82914 0.68289 0.1184 0.0
C350 C 0.84044 0.6853 0.14775 0.0
O351 O 0.91888 0.71241 0.16301 0.0
C352 C 0.87494 0.74918 0.19037 0.0
O353 O 0.85297 0.73072 0.18391 0.0
H354 H 0.88568 0.72362 0.10629 0.0
H355 H 0.83149 0.67577 0.16923 0.0
N356 N 0.877 0.69603 0.21422 0.0
N357 N 0.86601 0.68743 0.26504 0.0
C358 C 0.87632 0.70484 0.24308 0.0
C359 C 0.8668 0.67217 0.21784 0.0
C360 C 0.8599 0.66677 0.24926 0.0
C361 C 0.9147 0.6936 0.14729 0.0
O362 O 0.89133 0.67695 0.1426 0.0
H363 H 0.88278 0.72368 0.24763 0.0
H364 H 0.86433 0.6596 0.19895 0.0
O365 O 0.89467 0.74666 0.18884 0.0
H366 H 0.80967 0.67082 0.11238 0.0
H367 H 0.85123 0.64908 0.25966 0.0
Cu368 Cu 0.37015 0.15816 0.1951 0.0
N369 N 0.39075 0.16048 0.22974 0.0
N370 N 0.40741 0.16938 0.27872 0.0
C371 C 0.39037 0.16997 0.25832 0.0
C372 C 0.41893 0.15907 0.26226 0.0
C373 C 0.40867 0.15367 0.23203 0.0
O374 O 0.33604 0.13432 0.20686 0.0
C375 C 0.39697 0.2069 0.18656 0.0
O376 O 0.41515 0.2019 0.19374 0.0
H377 H 0.37761 0.17693 0.26405 0.0
H378 H 0.41409 0.14556 0.21304 0.0
N379 N 0.38052 0.1492 0.15789 0.0
N380 N 0.39047 0.14977 0.10658 0.0
C381 C 0.38293 0.15984 0.12952 0.0
C382 C 0.38665 0.13166 0.1528 0.0
C383 C 0.39293 0.13205 0.12114 0.0
C384 C 0.32161 0.11668 0.1892 0.0
O385 O 0.32829 0.11571 0.15975 0.0
H386 H 0.37936 0.17484 0.1259 0.0
H387 H 0.38624 0.11928 0.17069 0.0
O388 O 0.37429 0.19004 0.18667 0.0
H389 H 0.43398 0.15599 0.27123 0.0
H390 H 0.39835 0.11992 0.10963 0.0
Cu391 Cu 0.81252 0.18249 0.18995 0.0
N392 N 0.80561 0.19489 0.22815 0.0
N393 N 0.803 0.20121 0.28074 0.0
C394 C 0.80597 0.18729 0.25831 0.0
C395 C 0.80051 0.21809 0.26394 0.0
C396 C 0.80202 0.21413 0.23181 0.0
O397 O 0.84477 0.18325 0.1988 0.0
C398 C 0.76231 0.1469 0.18652 0.0
O399 O 0.75914 0.16376 0.20066 0.0
H400 H 0.80933 0.17238 0.26372 0.0
H401 H 0.80103 0.22488 0.21253 0.0
N402 N 0.81558 0.19966 0.15149 0.0
N403 N 0.8157 0.207 0.0987 0.0
C404 C 0.81169 0.19039 0.12148 0.0
C405 C 0.82251 0.22301 0.14745 0.0
C406 C 0.8225 0.22752 0.11524 0.0
C407 C 0.86184 0.20346 0.20911 0.0
O408 O 0.857 0.22156 0.21011 0.0
H409 H 0.80589 0.17173 0.11652 0.0
H410 H 0.82766 0.23602 0.1665 0.0
O411 O 0.78465 0.15054 0.18129 0.0
H412 H 0.79784 0.23241 0.27416 0.0
H413 H 0.82771 0.24482 0.10485 0.0
C414 C 0.08921 0.51967 0.38015 0.0
C415 C 0.07261 0.50574 0.40402 0.0
C416 C 0.08362 0.51307 0.34819 0.0
C417 C 0.02828 0.47746 0.29669 0.0
H418 H 0.0794 0.49756 0.23149 0.0
C419 C 1.00833 0.49375 0.16848 0.0
C420 C 0.02154 0.49034 0.14335 0.0
C421 C 0.01374 0.49079 0.19992 0.0
C422 C 0.06478 0.49136 0.2493 0.0
H423 H 0.03829 0.47316 0.4138 0.0
H424 H 0.02893 0.4609 0.35811 0.0
H425 H 0.09159 0.50006 0.28711 0.0
H426 H 0.04986 0.48003 0.13116 0.0
H427 H 0.05892 0.47412 0.18617 0.0
H428 H 1.00142 0.46825 0.25894 0.0
C429 C 0.04577 0.47744 0.36376 0.0
C430 C 0.07184 0.49316 0.28132 0.0
C431 C 0.05115 0.48432 0.39564 0.0
C432 C 0.03964 0.48304 0.15019 0.0
C433 C 0.04485 0.47975 0.18168 0.0
C434 C 0.02119 0.4753 0.26472 0.0
C435 C 0.06149 0.49214 0.33952 0.0
C436 C 0.05377 0.48693 0.30547 0.0
C437 C 0.03228 0.48401 0.20698 0.0
C438 C 0.03942 0.48297 0.24064 0.0
H439 H 0.10576 0.53638 0.38609 0.0
H440 H 0.09602 0.52508 0.33031 0.0
H441 H 0.01377 0.47265 0.31447 0.0
H442 H 0.99457 0.49975 0.16394 0.0
H443 H 1.00403 0.49475 0.21869 0.0
C444 C 0.50473 0.46916 0.3659 0.0
C445 C 0.49123 0.47637 0.38667 0.0
C446 C 0.50377 0.47148 0.33262 0.0
C447 C 0.46455 0.47686 0.26717 0.0
H448 H 0.52451 0.49635 0.2163 0.0
C449 C 0.46111 0.46548 0.12839 0.0
C450 C 0.48019 0.48332 0.10981 0.0
C451 C 0.46221 0.46635 0.16193 0.0
C452 C 0.50755 0.49103 0.23002 0.0
H453 H 0.4659 0.49164 0.38776 0.0
H454 H 0.46398 0.49543 0.32988 0.0
H455 H 0.52711 0.49464 0.27428 0.0
H456 H 0.51552 0.51628 0.11287 0.0
H457 H 0.51757 0.51773 0.17126 0.0
H458 H 0.44492 0.47295 0.22288 0.0
C459 C 0.47545 0.488 0.33942 0.0
C460 C 0.509 0.48981 0.26347 0.0
C461 C 0.47672 0.48602 0.37281 0.0
C462 C 0.50028 0.50233 0.12612 0.0
C463 C 0.50159 0.503 0.15977 0.0
C464 C 0.46303 0.47774 0.23369 0.0
C465 C 0.48897 0.48079 0.31865 0.0
C466 C 0.48752 0.48265 0.28273 0.0
C467 C 0.48267 0.48489 0.17833 0.0
C468 C 0.48449 0.48479 0.21441 0.0
H469 H 0.51629 0.46182 0.3754 0.0
H470 H 0.51432 0.4655 0.31774 0.0
H471 H 0.4475 0.4711 0.28084 0.0
H472 H 0.4454 0.45042 0.11697 0.0
H473 H 0.44735 0.45191 0.17501 0.0
C474 C 0.46199 0.91926 0.16189 0.0
C475 C 0.47723 0.90941 0.15154 0.0
C476 C 0.45979 0.9229 0.19427 0.0
C477 C 0.47079 0.90606 0.27514 0.0
H478 H 0.46992 0.96467 0.29964 0.0
C479 C 0.48166 0.93949 0.40579 0.0
C480 C 0.46556 0.94852 0.41573 0.0
C481 C 0.48261 0.93391 0.37376 0.0
C482 C 0.46989 0.94811 0.29317 0.0
H483 H 0.50191 0.89542 0.16714 0.0
H484 H 0.49838 0.90205 0.22373 0.0
H485 H 0.47235 0.95621 0.24359 0.0
H486 H 0.43797 0.95888 0.39968 0.0
H487 H 0.43951 0.94904 0.34387 0.0
H488 H 0.4687 0.89823 0.32496 0.0
C489 C 0.48776 0.9066 0.20683 0.0
C490 C 0.47122 0.94321 0.26101 0.0
C491 C 0.48981 0.9028 0.17439 0.0
C492 C 0.45039 0.95176 0.3929 0.0
C493 C 0.45146 0.94635 0.36086 0.0
C494 C 0.4696 0.91105 0.30737 0.0
C495 C 0.47293 0.91695 0.21716 0.0
C496 C 0.47158 0.92207 0.25153 0.0
C497 C 0.46762 0.93741 0.35091 0.0
C498 C 0.46904 0.93209 0.31673 0.0
H499 H 0.45171 0.92413 0.1449 0.0
H500 H 0.44774 0.93038 0.20134 0.0
H501 H 0.47071 0.88947 0.26872 0.0
H502 H 0.4934 0.93656 0.42282 0.0
H503 H 0.49538 0.92721 0.3668 0.0
C504 C 0.0439 0.5354 0.65032 0.0
C505 C 0.06846 0.54314 0.63908 0.0
C506 C 0.03872 0.53194 0.68275 0.0
C507 C 0.06344 0.5213 0.75783 0.0
H508 H 0.01701 0.53993 0.79636 0.0
C509 C 0.05059 0.52292 0.89333 0.0
C510 C 0.02588 0.51379 0.90467 0.0
C511 C 0.05543 0.52591 0.8608 0.0
C512 C 0.02979 0.5344 0.78583 0.0
H513 H 0.10688 0.55354 0.6533 0.0
H514 H 0.09796 0.54809 0.71007 0.0
H515 H 0.02676 0.54725 0.73991 0.0
H516 H 0.98686 0.5005 0.89088 0.0
H517 H 0.99531 0.50564 0.83375 0.0
H518 H 0.06664 0.50868 0.80389 0.0
C519 C 0.08263 0.54432 0.69365 0.0
C520 C 0.03539 0.53859 0.75353 0.0
C521 C 0.08781 0.54772 0.66114 0.0
C522 C 1.00605 0.50746 0.88276 0.0
C523 C 1.01092 0.5106 0.85016 0.0
C524 C 0.05792 0.51721 0.79015 0.0
C525 C 0.05799 0.53626 0.70477 0.0
C526 C 0.05228 0.53209 0.73918 0.0
C527 C 0.03568 0.51991 0.8389 0.0
C528 C 0.04106 0.52373 0.80446 0.0
H529 H 0.0286 0.53206 0.63412 0.0
H530 H 0.0195 0.52551 0.69049 0.0
H531 H 0.07618 0.5157 0.74737 0.0
H532 H 0.0662 0.52763 0.9096 0.0
H533 H 0.07472 0.53329 0.85282 0.0
C534 C 0.48043 0.48938 0.65433 0.0
C535 C 0.4856 0.47184 0.64065 0.0
C536 C 0.47931 0.49162 0.68771 0.0
C537 C 0.47373 0.4589 0.7651 0.0
H538 H 0.49796 0.5219 0.80278 0.0
C539 C 0.48744 0.47508 0.90341 0.0
C540 C 0.48346 0.49327 0.9173 0.0
C541 C 0.48666 0.47185 0.87002 0.0
C542 C 0.49076 0.50405 0.79287 0.0
H543 H 0.49299 0.44252 0.65262 0.0
H544 H 0.49151 0.44664 0.70996 0.0
H545 H 0.49837 0.51765 0.7452 0.0
H546 H 0.47501 0.52201 0.90597 0.0
H547 H 0.47324 0.51622 0.84851 0.0
H548 H 0.46624 0.44531 0.81282 0.0
C549 C 0.48807 0.45866 0.69503 0.0
C550 C 0.49099 0.50159 0.75948 0.0
C551 C 0.48922 0.45645 0.66175 0.0
C552 C 0.4782 0.50778 0.89654 0.0
C553 C 0.47744 0.50459 0.86324 0.0
C554 C 0.47352 0.46135 0.7985 0.0
C555 C 0.48322 0.47636 0.70882 0.0
C556 C 0.48253 0.47897 0.74481 0.0
C557 C 0.48194 0.48674 0.84918 0.0
C558 C 0.48204 0.48399 0.81316 0.0
H559 H 0.47765 0.50175 0.63932 0.0
H560 H 0.47518 0.50532 0.69693 0.0
H561 H 0.46659 0.44105 0.75519 0.0
H562 H 0.49176 0.46361 0.91832 0.0
H563 H 0.4905 0.45803 0.86056 0.0
C564 C 0.52804 0.92018 0.89361 0.0
C565 C 0.5062 0.91128 0.91227 0.0
C566 C 0.52641 0.92098 0.86044 0.0
C567 C 0.48283 0.89597 0.79219 0.0
H568 H 0.52615 0.95671 0.75203 0.0
C569 C 0.46363 0.91754 0.66516 0.0
C570 C 0.4842 0.93168 0.64565 0.0
C571 C 0.46735 0.91387 0.69707 0.0
C572 C 0.5142 0.93947 0.76267 0.0
H573 H 0.46554 0.8953 0.91083 0.0
H574 H 0.46264 0.8965 0.85294 0.0
H575 H 0.53105 0.95168 0.80864 0.0
H576 H 0.52484 0.95254 0.64409 0.0
H577 H 0.53146 0.9458 0.69964 0.0
H578 H 0.46599 0.88366 0.74634 0.0
C579 C 0.48101 0.90293 0.86391 0.0
C580 C 0.517 0.93662 0.79516 0.0
C581 C 0.48267 0.90239 0.89704 0.0
C582 C 0.50861 0.94184 0.65867 0.0
C583 C 0.51237 0.93799 0.69053 0.0
C584 C 0.48017 0.89873 0.75963 0.0
C585 C 0.50289 0.9126 0.84529 0.0
C586 C 0.50113 0.91495 0.81035 0.0
C587 C 0.49176 0.92407 0.71023 0.0
C588 C 0.49559 0.92063 0.74451 0.0
H589 H 0.54644 0.92735 0.90469 0.0
H590 H 0.54357 0.92838 0.84666 0.0
H591 H 0.47053 0.87897 0.8032 0.0
H592 H 0.44458 0.90978 0.65597 0.0
H593 H 0.45098 0.90345 0.71159 0.0
C594 C 0.71086 0.81045 0.71739 0.0
C595 C 0.73415 0.82139 0.73342 0.0
C596 C 0.70979 0.80793 0.68433 0.0
C597 C 0.74547 0.83657 0.61369 0.0
H598 H 0.69732 0.77851 0.57045 0.0
C599 C 0.73597 0.83297 0.47716 0.0
C600 C 0.71147 0.82085 0.46451 0.0
C601 C 0.74044 0.83075 0.50931 0.0
C602 C 0.71071 0.79494 0.58213 0.0
H603 H 0.77456 0.83786 0.72762 0.0
H604 H 0.77275 0.83383 0.66941 0.0
H605 H 0.70204 0.77864 0.62818 0.0
H606 H 0.67246 0.7967 0.47537 0.0
H607 H 0.68 0.79331 0.53169 0.0
H608 H 0.75339 0.85331 0.56815 0.0
C609 C 0.75534 0.8271 0.68259 0.0
C610 C 0.71349 0.79495 0.61517 0.0
C611 C 0.75638 0.82928 0.7158 0.0
C612 C 0.69157 0.80602 0.48445 0.0
C613 C 0.69596 0.80405 0.51673 0.0
C614 C 0.74248 0.83667 0.58072 0.0
C615 C 0.73201 0.81659 0.66655 0.0
C616 C 0.7307 0.81584 0.6313 0.0
C617 C 0.72043 0.81662 0.52968 0.0
C618 C 0.72483 0.81594 0.56451 0.0
H619 H 0.69345 0.80396 0.73047 0.0
H620 H 0.69157 0.79993 0.67259 0.0
H621 H 0.75863 0.85303 0.62558 0.0
H622 H 0.75169 0.84421 0.46215 0.0
H623 H 0.7596 0.84027 0.51819 0.0
C624 C 0.20385 0.90145 0.70771 0.0
C625 C 0.18538 0.88003 0.72109 0.0
C626 C 0.21144 0.90184 0.67616 0.0
C627 C 0.21124 0.86085 0.61303 0.0
H628 H 0.22068 0.91187 0.55515 0.0
C629 C 0.20366 0.849 0.47784 0.0
C630 C 0.22075 0.86762 0.45859 0.0
C631 C 0.20388 0.85198 0.51072 0.0
C632 C 0.21855 0.89772 0.57121 0.0
H633 H 0.15937 0.84267 0.71149 0.0
H634 H 0.17226 0.84336 0.65665 0.0
H635 H 0.21159 0.91476 0.6112 0.0
H636 H 0.25184 0.90375 0.45849 0.0
H637 H 0.2521 0.90917 0.51646 0.0
H638 H 0.21727 0.8434 0.57288 0.0
C639 C 0.18152 0.85968 0.67065 0.0
C640 C 0.21332 0.89935 0.60327 0.0
C641 C 0.17405 0.85929 0.70205 0.0
C642 C 0.23861 0.8891 0.47293 0.0
C643 C 0.23861 0.89224 0.50594 0.0
C644 C 0.21631 0.85917 0.58106 0.0
C645 C 0.20061 0.88083 0.65747 0.0
C646 C 0.20894 0.88061 0.62432 0.0
C647 C 0.22105 0.87376 0.52507 0.0
C648 C 0.2194 0.87729 0.55967 0.0
H649 H 0.213 0.91766 0.72193 0.0
H650 H 0.22622 0.91841 0.66669 0.0
H651 H 0.20861 0.84639 0.62882 0.0
H652 H 0.18984 0.83223 0.46731 0.0
H653 H 0.18997 0.8375 0.52481 0.0
C654 C 0.12054 0.38399 0.48816 0.0
C655 C 0.13966 0.38484 0.46839 0.0
C656 C 0.1212 0.38041 0.52094 0.0
C657 C 0.14802 0.35461 0.57809 0.0
H658 H 0.1274 0.38595 0.64188 0.0
C659 C 0.16018 0.34436 0.71216 0.0
C660 C 0.14023 0.3411 0.73219 0.0
C661 C 0.16027 0.35056 0.68028 0.0
C662 C 0.13297 0.37689 0.6243 0.0
H663 H 0.1753 0.38436 0.46769 0.0
H664 H 0.17661 0.3784 0.52472 0.0
H665 H 0.12768 0.39615 0.58579 0.0
H666 H 0.10488 0.34217 0.73439 0.0
H667 H 0.10483 0.35256 0.67862 0.0
H668 H 0.15322 0.33528 0.61639 0.0
C669 C 0.16074 0.37978 0.5149 0.0
C670 C 0.13315 0.38274 0.59219 0.0
C671 C 0.16003 0.38324 0.48224 0.0
C672 C 0.12039 0.34425 0.71957 0.0
C673 C 0.12052 0.35051 0.68768 0.0
C674 C 0.14785 0.34878 0.6101 0.0
C675 C 0.14104 0.37773 0.53454 0.0
C676 C 0.14078 0.37173 0.56874 0.0
C677 C 0.14043 0.35367 0.66765 0.0
C678 C 0.14041 0.35989 0.6336 0.0
H679 H 0.10455 0.385 0.47811 0.0
H680 H 0.10566 0.3788 0.5354 0.0
H681 H 0.15346 0.34539 0.56058 0.0
H682 H 0.17563 0.34187 0.721 0.0
H683 H 0.17603 0.3531 0.66557 0.0
C684 C 0.67586 0.83614 0.21549 0.0
C685 C 0.69195 0.85549 0.23502 0.0
C686 C 0.68029 0.83645 0.1828 0.0
C687 C 0.71376 0.8769 0.11615 0.0
H688 H 0.70933 0.81948 0.07723 0.0
C689 C 0.74835 0.87664 0.98828 0.0
C690 C 0.7329 0.85692 0.96886 0.0
C691 C 0.7437 0.87636 0.02091 0.0
C692 C 0.71041 0.83559 0.08764 0.0
H693 H 0.72469 0.89074 0.23527 0.0
H694 H 0.73255 0.89118 0.17844 0.0
H695 H 0.69936 0.81932 0.13343 0.0
H696 H 0.70106 0.82109 0.96886 0.0
H697 H 0.69267 0.8208 0.02543 0.0
H698 H 0.72473 0.89316 0.07037 0.0
C699 C 0.71649 0.87578 0.18833 0.0
C700 C 0.70465 0.83548 0.11984 0.0
C701 C 0.71213 0.87542 0.22097 0.0
C702 C 0.71311 0.83672 0.98299 0.0
C703 C 0.70847 0.83644 0.01555 0.0
C704 C 0.71947 0.877 0.08393 0.0
C705 C 0.70081 0.85618 0.16891 0.0
C706 C 0.70629 0.85614 0.13448 0.0
C707 C 0.72354 0.85635 0.03487 0.0
C708 C 0.71788 0.85635 0.06929 0.0
H709 H 0.66027 0.82045 0.22558 0.0
H710 H 0.66769 0.82118 0.1684 0.0
H711 H 0.71491 0.89302 0.12663 0.0
H712 H 0.76365 0.89254 0.97819 0.0
H713 H 0.75589 0.89187 0.03519 0.0
C714 C 0.15003 0.831 0.97018 0.0
C715 C 0.14774 0.85077 0.95906 0.0
C716 C 0.15357 0.82854 1.00248 0.0
C717 C 0.17607 0.86392 0.07653 0.0
H718 H 0.14512 0.8014 0.11642 0.0
C719 C 0.1778 0.85136 0.21183 0.0
C720 C 0.18259 0.83303 0.22289 0.0
C721 C 0.17414 0.85351 0.1795 0.0
C722 C 0.15412 0.81893 0.10548 0.0
H723 H 0.14663 0.8831 0.97344 0.0
H724 H 0.1522 0.87851 0.03015 0.0
H725 H 0.1359 0.80499 0.06073 0.0
H726 H 0.18764 0.80275 0.20874 0.0
H727 H 0.18114 0.80645 0.15178 0.0
H728 H 0.19403 0.87785 0.12147 0.0
C729 C 0.15175 0.86515 0.01365 0.0
C730 C 0.14882 0.82101 0.07361 0.0
C731 C 0.14826 0.86764 0.98122 0.0
C732 C 0.18402 0.81705 0.20081 0.0
C733 C 0.18012 0.81907 0.16835 0.0
C734 C 0.18125 0.86184 0.10844 0.0
C735 C 0.15474 0.8457 0.02459 0.0
C736 C 0.15975 0.84354 0.05875 0.0
C737 C 0.17508 0.83731 0.15743 0.0
C738 C 0.17031 0.83933 0.12324 0.0
H739 H 0.14924 0.81741 0.9539 0.0
H740 H 0.156 0.81345 1.00997 0.0
H741 H 0.18519 0.88146 0.06568 0.0
H742 H 0.17697 0.86417 0.22818 0.0
H743 H 0.1701 0.86763 0.17185 0.0
C744 C 0.12362 0.30854 0.97984 0.0
C745 C 0.14686 0.31383 0.96615 0.0
C746 C 0.12248 0.31494 1.01143 0.0
C747 C 0.1556 0.32815 0.08771 0.0
H748 H 0.12081 0.36474 0.10661 0.0
C749 C 0.13492 0.34594 0.2155 0.0
C750 C 0.14228 0.36996 0.22357 0.0
C751 C 0.1348 0.33911 0.18391 0.0
C752 C 0.13063 0.35458 0.10159 0.0
H753 H 0.18693 0.3292 0.97478 0.0
H754 H 0.18491 0.33987 0.03035 0.0
H755 H 0.12173 0.35182 0.05176 0.0
H756 H 0.15448 0.40542 0.20412 0.0
H757 H 0.15361 0.39321 0.14866 0.0
H758 H 0.16434 0.33071 0.13747 0.0
C759 C 0.16764 0.33098 0.01657 0.0
C760 C 0.13098 0.34704 0.07036 0.0
C761 C 0.16882 0.32496 0.98486 0.0
C762 C 0.14861 0.38678 0.19891 0.0
C763 C 0.14817 0.37983 0.16714 0.0
C764 C 0.15492 0.33535 0.11895 0.0
C765 C 0.14452 0.32635 0.03 0.0
C766 C 0.14354 0.33382 0.06315 0.0
C767 C 0.14165 0.356 0.15946 0.0
C768 C 0.14247 0.34867 0.12618 0.0
H769 H 0.10648 0.30026 0.96576 0.0
H770 H 0.1044 0.31105 0.02134 0.0
H771 H 0.16536 0.31792 0.08276 0.0
H772 H 0.12918 0.33225 0.23352 0.0
H773 H 0.12925 0.32053 0.17856 0.0
C774 C 0.41221 0.15303 0.05547 0.0
C775 C 0.3946 0.15649 0.07348 0.0
C776 C 0.4165 0.16005 0.02355 0.0
C777 C 0.38714 0.17302 0.95446 0.0
H778 H 0.45538 0.20749 0.92274 0.0
C779 C 0.40797 0.21493 0.82938 0.0
C780 C 0.42672 0.21332 0.81147 0.0
C781 C 0.40472 0.20868 0.86156 0.0
C782 C 0.43619 0.19762 0.93107 0.0
H783 H 0.36734 0.16957 0.07176 0.0
H784 H 0.37488 0.18185 0.01628 0.0
H785 H 0.4482 0.19452 0.97809 0.0
H786 H 0.45681 0.2039 0.81348 0.0
H787 H 0.45101 0.19274 0.86942 0.0
H788 H 0.37501 0.17577 0.90751 0.0
C789 C 0.38536 0.17372 0.0268 0.0
C790 C 0.43209 0.19021 0.96283 0.0
C791 C 0.38123 0.16689 0.05872 0.0
C792 C 0.44243 0.20568 0.82666 0.0
C793 C 0.43909 0.19928 0.85881 0.0
C794 C 0.39121 0.18028 0.92269 0.0
C795 C 0.40309 0.17045 1.00884 0.0
C796 C 0.40752 0.17791 0.97492 0.0
C797 C 0.42003 0.20049 0.87663 0.0
C798 C 0.41579 0.19278 0.91056 0.0
H799 H 0.42294 0.14525 0.06618 0.0
H800 H 0.43014 0.15712 1.01027 0.0
H801 H 0.36796 0.16325 0.96291 0.0
H802 H 0.39581 0.22109 0.81851 0.0
H803 H 0.39021 0.21035 0.87463 0.0
C804 C 0.82376 0.17422 0.80982 0.0
C805 C 0.81804 0.18785 0.7881 0.0
C806 C 0.82058 0.17546 0.84271 0.0
C807 C 0.81811 0.21518 0.90627 0.0
H808 H 0.79527 0.15834 0.95822 0.0
C809 C 0.80934 0.21969 0.04461 0.0
C810 C 0.81376 0.20398 0.06408 0.0
C811 C 0.8081 0.21732 1.0112 0.0
C812 C 0.80209 0.17456 0.94437 0.0
H813 H 0.8041 0.21349 0.78459 0.0
H814 H 0.79867 0.21592 0.84247 0.0
H815 H 0.79536 0.1549 0.90052 0.0
H816 H 0.82047 0.17336 0.06268 0.0
H817 H 0.81887 0.16948 1.00482 0.0
H818 H 0.82551 0.23498 0.95003 0.0
C819 C 0.80561 0.20409 0.83374 0.0
C820 C 0.80199 0.17254 0.91095 0.0
C821 C 0.80844 0.20252 0.80045 0.0
C822 C 0.81674 0.18568 0.0488 0.0
C823 C 0.81573 0.18343 0.01531 0.0
C824 C 0.81843 0.21726 0.93976 0.0
C825 C 0.81184 0.19068 0.85547 0.0
C826 C 0.81018 0.19281 0.89123 0.0
C827 C 0.81144 0.19924 0.99572 0.0
C828 C 0.81059 0.197 0.95959 0.0
H829 H 0.83126 0.16274 0.80137 0.0
H830 H 0.82588 0.16503 0.85828 0.0
H831 H 0.8249 0.2313 0.89217 0.0
H832 H 0.8065 0.23378 0.05521 0.0
H833 H 0.8042 0.22963 0.99756 0.0
C834 C 0.86284 0.7077 0.04353 0.0
C835 C 0.84324 0.70205 0.06521 0.0
C836 C 0.85992 0.71206 1.01168 0.0
C837 C 0.81143 0.70332 0.95089 0.0
H838 H 0.86939 0.75078 0.90536 0.0
C839 C 0.80633 0.73175 0.82125 0.0
C840 C 0.82363 0.72986 0.80076 0.0
C841 C 0.80848 0.73014 0.85419 0.0
C842 C 0.85307 0.73749 0.91783 0.0
H843 H 0.80529 0.69667 0.07083 0.0
H844 H 0.80029 0.70493 0.0153 0.0
H845 H 0.87323 0.7444 0.96183 0.0
H846 H 0.8572 0.72577 0.79842 0.0
H847 H 0.86126 0.72339 0.85602 0.0
H848 H 0.79128 0.69677 0.90669 0.0
C849 C 0.81774 0.70543 0.02264 0.0
C850 C 0.85527 0.73368 0.95011 0.0
C851 C 0.82057 0.70073 0.05445 0.0
C852 C 0.84354 0.72709 0.81376 0.0
C853 C 0.84595 0.7259 0.84664 0.0
C854 C 0.80916 0.70739 0.91867 0.0
C855 C 0.83743 0.71122 1.00085 0.0
C856 C 0.8346 0.71625 0.96695 0.0
C857 C 0.82826 0.72709 0.86712 0.0
C858 C 0.83007 0.72425 0.90178 0.0
H859 H 0.88035 0.70844 0.05116 0.0
H860 H 0.87526 0.71584 0.9955 0.0
H861 H 0.7952 0.68954 0.96291 0.0
H862 H 0.79073 0.73371 0.81172 0.0
H863 H 0.79467 0.73119 0.86956 0.0
C864 C 0.40756 0.19664 0.32114 0.0
C865 C 0.41214 0.17787 0.31124 0.0
C866 C 0.41167 0.20457 0.3528 0.0
C867 C 0.41534 0.1845 0.43369 0.0
H868 H 0.44686 0.25218 0.45503 0.0
C869 C 0.43678 0.21645 0.56383 0.0
C870 C 0.43169 0.23497 0.57331 0.0
C871 C 0.43677 0.21085 0.53165 0.0
C872 C 0.4378 0.2332 0.4495 0.0
H873 H 0.4247 0.15277 0.32692 0.0
H874 H 0.43199 0.16665 0.38211 0.0
H875 H 0.44194 0.23963 0.39928 0.0
H876 H 0.4232 0.26254 0.55631 0.0
H877 H 0.42283 0.25262 0.50007 0.0
H878 H 0.41066 0.17792 0.48367 0.0
C879 C 0.4251 0.17517 0.36539 0.0
C880 C 0.43502 0.22602 0.41753 0.0
C881 C 0.42115 0.16736 0.33369 0.0
C882 C 0.42746 0.24834 0.54976 0.0
C883 C 0.42725 0.24263 0.5175 0.0
C884 C 0.41798 0.19165 0.46559 0.0
C885 C 0.42031 0.1938 0.37534 0.0
C886 C 0.42374 0.20158 0.40927 0.0
C887 C 0.43145 0.22351 0.50805 0.0
C888 C 0.42924 0.21609 0.47396 0.0
H889 H 0.40091 0.20532 0.30439 0.0
H890 H 0.40762 0.21883 0.35974 0.0
H891 H 0.40618 0.16552 0.42812 0.0
H892 H 0.44051 0.20608 0.58142 0.0
H893 H 0.44071 0.19641 0.52528 0.0
C894 C 0.7929 0.17716 0.33077 0.0
C895 C 0.80341 0.19947 0.31534 0.0
C896 C 0.79216 0.17571 0.36434 0.0
C897 C 0.80131 0.21392 0.43853 0.0
H898 H 0.79799 0.1587 0.48158 0.0
C899 C 0.79078 0.20626 0.5765 0.0
C900 C 0.80062 0.19353 0.59366 0.0
C901 C 0.7898 0.20563 0.54297 0.0
C902 C 0.79925 0.17452 0.47028 0.0
H903 H 0.82245 0.23776 0.32359 0.0
H904 H 0.82242 0.23549 0.38126 0.0
H905 H 0.80044 0.16077 0.424 0.0
H906 H 0.8172 0.17006 0.58826 0.0
H907 H 0.81651 0.16965 0.5303 0.0
H908 H 0.80166 0.22838 0.48464 0.0
C909 C 0.81353 0.21885 0.36794 0.0
C910 C 0.80021 0.17552 0.43671 0.0
C911 C 0.81378 0.22025 0.33451 0.0
C912 C 0.80916 0.17986 0.57608 0.0
C913 C 0.80866 0.17961 0.54248 0.0
C914 C 0.8008 0.21312 0.47202 0.0
C915 C 0.80236 0.19656 0.38375 0.0
C916 C 0.80126 0.19527 0.42 0.0
C917 C 0.7992 0.1927 0.52508 0.0
C918 C 0.79965 0.19337 0.48878 0.0
H919 H 0.78456 0.16076 0.31685 0.0
H920 H 0.78302 0.1581 0.37492 0.0
H921 H 0.80153 0.22934 0.42731 0.0
H922 H 0.78394 0.21694 0.58903 0.0
H923 H 0.78162 0.21545 0.53122 0.0
C924 C 0.81616 0.70204 0.54385 0.0
C925 C 0.83243 0.72429 0.55792 0.0
C926 C 0.81821 0.69787 0.51165 0.0
C927 C 0.84483 0.72833 0.43558 0.0
H928 H 0.84156 0.66762 0.41252 0.0
C929 C 0.8771 0.71252 0.31358 0.0
C930 C 0.86191 0.69057 0.29808 0.0
C931 C 0.87252 0.71614 0.34508 0.0
C932 C 0.84221 0.68453 0.41852 0.0
H933 H 0.86331 0.75973 0.54907 0.0
H934 H 0.86702 0.75246 0.4928 0.0
H935 H 0.83491 0.67524 0.46765 0.0
H936 H 0.83013 0.65511 0.30377 0.0
H937 H 0.82218 0.6614 0.35904 0.0
H938 H 0.85242 0.73771 0.38649 0.0
C939 C 0.85245 0.73832 0.50662 0.0
C940 C 0.83837 0.6889 0.45008 0.0
C941 C 0.85034 0.74251 0.53885 0.0
C942 C 0.84232 0.67213 0.31509 0.0
C943 C 0.83774 0.67575 0.34672 0.0
C944 C 0.84871 0.72397 0.40404 0.0
C945 C 0.83661 0.71584 0.49276 0.0
C946 C 0.83979 0.71091 0.459 0.0
C947 C 0.85266 0.69789 0.36192 0.0
C948 C 0.84763 0.7021 0.39522 0.0
H949 H 0.80184 0.6878 0.55779 0.0
H950 H 0.80539 0.68052 0.50155 0.0
H951 H 0.84564 0.7453 0.44158 0.0
H952 H 0.89269 0.72692 0.30144 0.0
H953 H 0.88468 0.73322 0.35635 0.0
C954 C 0.11237 0.51659 0.99147 0.0
C955 C 0.09441 0.50242 0.01412 0.0
C956 C 0.12895 0.5091 0.97855 0.0
C957 C 0.15422 0.4663 0.99047 0.0
H958 H 0.15295 0.46174 0.89838 0.0
C959 C 0.16047 0.39071 0.92429 0.0
C960 C 0.17183 0.39448 0.89431 0.0
C961 C 0.15904 0.40929 0.94037 0.0
C962 C 0.15409 0.46335 0.92407 0.0
H963 H 0.08065 0.47013 0.04225 0.0
H964 H 0.10965 0.45741 0.02044 0.0
H965 H 0.13577 0.48519 0.9246 0.0
H966 H 0.19137 0.42078 0.85791 0.0
H967 H 0.18872 0.45366 0.88608 0.0
H968 H 0.17154 0.44366 0.99007 0.0
C969 C 0.11105 0.47421 0.01245 0.0
C970 C 0.1442 0.4768 0.93913 0.0
C971 C 0.09432 0.48145 0.02488 0.0
C972 C 0.18281 0.41755 0.88121 0.0
C973 C 0.18104 0.43623 0.89719 0.0
C974 C 0.16415 0.45294 0.97546 0.0
C975 C 0.12816 0.48757 0.98853 0.0
C976 C 0.14326 0.47765 0.97254 0.0
C977 C 0.16864 0.43215 0.9267 0.0
C978 C 0.1633 0.45049 0.94211 0.0
H979 H 0.11268 0.53271 0.98249 0.0
H980 H 0.14196 0.51983 0.96024 0.0
H981 H 0.15422 0.46695 0.01623 0.0
H982 H 0.15172 0.37301 0.93479 0.0
H983 H 0.14905 0.4053 0.96275 0.0
C984 C 0.6395 0.74785 0.84044 0.0
C985 C 0.65081 0.76926 0.85833 0.0
C986 C 0.62781 0.72556 0.85556 0.0
C987 C 0.63036 0.69756 0.93108 0.0
H988 H 0.56939 0.64306 0.89997 0.0
C989 C 0.58423 0.60799 0.99893 0.0
C990 C 0.57338 0.58647 0.98128 0.0
C991 C 0.59257 0.63008 0.98388 0.0
C992 C 0.58661 0.658 0.90875 0.0
H993 H 0.65757 0.7839 0.90629 0.0
H994 H 0.63706 0.74506 0.93258 0.0
H995 H 0.58473 0.68195 0.87423 0.0
H996 H 0.56301 0.5715 0.93375 0.0
H997 H 0.57793 0.6101 0.90732 0.0
H998 H 0.63262 0.67371 0.96516 0.0
C999 C 0.63753 0.74552 0.90682 0.0
C1000 C 0.59535 0.68034 0.89404 0.0
C1001 C 0.6491 0.76782 0.89171 0.0
C1002 C 0.57109 0.58768 0.9481 0.0
C1003 C 0.57958 0.60985 0.93297 0.0
C1004 C 0.62172 0.67524 0.94565 0.0
C1005 C 0.62725 0.7241 0.88896 0.0
C1006 C 0.61733 0.70042 0.90506 0.0
C1007 C 0.59046 0.63138 0.95067 0.0
C1008 C 0.5997 0.65513 0.93476 0.0
H1009 H 0.64045 0.74825 0.8147 0.0
H1010 H 0.62021 0.70946 0.84105 0.0
H1011 H 0.64763 0.71248 0.93979 0.0
H1012 H 0.58582 0.6078 0.02456 0.0
H1013 H 0.60032 0.64615 0.99846 0.0
C1014 C 0.23745 0.84981 0.88424 0.0
C1015 C 0.23452 0.86534 0.86295 0.0
C1016 C 0.26105 0.85651 0.89842 0.0
C1017 C 0.32065 0.91193 0.91717 0.0
H1018 H 0.34715 0.86856 0.93685 0.0
C1019 C 0.4236 0.94577 0.95812 0.0
C1020 C 0.42813 0.93317 0.98251 0.0
C1021 C 0.39958 0.93687 0.94448 0.0
C1022 C 0.33988 0.88085 0.93179 0.0
H1023 H 0.25414 0.89905 0.838 0.0
H1024 H 0.29506 0.9102 0.86147 0.0
H1025 H 0.30624 0.85322 0.91014 0.0
H1026 H 0.41071 0.90136 1.01188 0.0
H1027 H 0.36887 0.88593 0.98812 0.0
H1028 H 0.35425 0.93956 0.93848 0.0
C1029 C 0.27923 0.89334 0.86835 0.0
C1030 C 0.31641 0.87205 0.91648 0.0
C1031 C 0.25578 0.88682 0.8546 0.0
C1032 C 0.40793 0.9116 0.9932 0.0
C1033 C 0.38396 0.90261 0.97939 0.0
C1034 C 0.34407 0.92071 0.93227 0.0
C1035 C 0.28207 0.87875 0.89133 0.0
C1036 C 0.30661 0.88755 0.90863 0.0
C1037 C 0.37951 0.91506 0.95473 0.0
C1038 C 0.35411 0.90536 0.93956 0.0
H1039 H 0.2213 0.83325 0.89132 0.0
H1040 H 0.26253 0.84481 0.91602 0.0
H1041 H 0.31347 0.92433 0.91236 0.0
H1042 H 0.43869 0.96237 0.94919 0.0
H1043 H 0.39689 0.94683 0.92533 0.0
C1044 C 0.45725 0.01749 0.61049 0.0
C1045 C 0.47032 0.02117 0.5817 0.0
C1046 C 0.45013 0.03413 0.62163 0.0
C1047 C 0.43254 0.07862 0.59503 0.0
H1048 H 0.4423 0.0985 0.68359 0.0
C1049 C 0.40223 0.1465 0.64599 0.0
C1050 C 0.39512 0.14452 0.67815 0.0
C1051 C 0.4112 0.13163 0.63303 0.0
C1052 C 0.43896 0.09285 0.65891 0.0
H1053 H 0.48643 0.0454 0.54209 0.0
H1054 H 0.4734 0.07455 0.56139 0.0
H1055 H 0.46003 0.07374 0.66354 0.0
H1056 H 0.39032 0.12419 0.72125 0.0
H1057 H 0.40472 0.09756 0.69841 0.0
H1058 H 0.41069 0.09696 0.59052 0.0
C1059 C 0.46893 0.05874 0.57539 0.0
C1060 C 0.4494 0.07882 0.64736 0.0
C1061 C 0.47656 0.04221 0.56449 0.0
C1062 C 0.39581 0.12635 0.69647 0.0
C1063 C 0.40442 0.11126 0.68341 0.0
C1064 C 0.42176 0.09242 0.60668 0.0
C1065 C 0.45548 0.05475 0.60401 0.0
C1066 C 0.44617 0.07139 0.61537 0.0
C1067 C 0.413 0.11413 0.65176 0.0
C1068 C 0.42461 0.09957 0.63891 0.0
H1069 H 0.45216 1.00145 0.62429 0.0
H1070 H 0.43965 0.03044 0.64362 0.0
H1071 H 0.42947 0.07292 0.57034 0.0
H1072 H 0.40208 0.16035 0.63116 0.0
H1073 H 0.41772 0.13461 0.60868 0.0
C1074 C 0.8858 0.2819 0.63974 0.0
C1075 C 0.89998 0.27212 0.65424 0.0
C1076 C 0.89771 0.30467 0.62582 0.0
C1077 C 0.95776 0.34716 0.58977 0.0
H1078 H 0.93678 0.39539 0.60483 0.0
C1079 C 0.02177 0.4451 0.55763 0.0
C1080 C 1.01154 0.4593 0.54561 0.0
C1081 C 1.00631 0.42215 0.56912 0.0
C1082 C 0.94262 0.38201 0.59993 0.0
H1083 H 0.93809 0.27962 0.66619 0.0
H1084 H 0.95861 0.3188 0.64142 0.0
H1085 H 0.91333 0.35569 0.62889 0.0
H1086 H 0.97672 0.46032 0.5365 0.0
H1087 H 0.94936 0.41966 0.55633 0.0
H1088 H 0.98681 0.37305 0.5607 0.0
C1089 C 0.93825 0.30867 0.64062 0.0
C1090 C 0.92924 0.35929 0.61382 0.0
C1091 C 0.92639 0.28607 0.65483 0.0
C1092 C 0.98521 0.44984 0.5455 0.0
C1093 C 0.96957 0.4266 0.55702 0.0
C1094 C 0.97093 0.36967 0.57569 0.0
C1095 C 0.92409 0.31816 0.62568 0.0
C1096 C 0.93702 0.34179 0.60943 0.0
C1097 C 0.97998 0.41241 0.56882 0.0
C1098 C 0.96397 0.38764 0.58116 0.0
H1099 H 0.8655 0.27186 0.63837 0.0
H1100 H 0.88627 0.31143 0.61434 0.0
H1101 H 0.96388 0.33391 0.58529 0.0
H1102 H 0.04194 0.45174 0.55846 0.0
H1103 H 0.01514 0.41214 0.57872 0.0
C1104 C 0.74091 0.64081 0.6388 0.0
C1105 C 0.74414 0.65823 0.66176 0.0
C1106 C 0.71694 0.62587 0.62578 0.0
C1107 C 0.64872 0.60303 0.63951 0.0
H1108 H 0.64258 0.60038 0.54754 0.0
C1109 C 0.55168 0.56784 0.57922 0.0
C1110 C 0.54661 0.55334 0.55194 0.0
C1111 C 0.57618 0.58048 0.59152 0.0
C1112 C 0.6439 0.60062 0.57325 0.0
H1113 H 0.72478 0.67289 0.69017 0.0
H1114 H 0.68318 0.64659 0.66828 0.0
H1115 H 0.68429 0.62013 0.57239 0.0
H1116 H 0.56372 0.54154 0.51552 0.0
H1117 H 0.60626 0.56321 0.53718 0.0
H1118 H 0.60853 0.58346 0.64064 0.0
C1119 C 0.69899 0.64447 0.66006 0.0
C1120 C 0.66787 0.61192 0.58748 0.0
C1121 C 0.72286 0.65959 0.67256 0.0
C1122 C 0.5669 0.55265 0.53647 0.0
C1123 C 0.59139 0.56513 0.54893 0.0
C1124 C 0.62482 0.59157 0.62534 0.0
C1125 C 0.69576 0.62779 0.636 0.0
C1126 C 0.67053 0.61357 0.6208 0.0
C1127 C 0.5963 0.57879 0.57708 0.0
C1128 C 0.622 0.59051 0.59199 0.0
H1129 H 0.75703 0.63957 0.62977 0.0
H1130 H 0.715 0.61308 0.6074 0.0
H1131 H 0.65013 0.60373 0.66524 0.0
H1132 H 0.53656 0.5689 0.59168 0.0
H1133 H 0.57925 0.59131 0.61272 0.0
C1134 C 0.93058 0.67682 0.10512 0.0
C1135 C 0.93518 0.68993 0.13362 0.0
C1136 C 0.94821 0.67059 0.0932 0.0
C1137 C 0.99597 0.65524 0.11871 0.0
H1138 H 1.00844 0.65631 0.02812 0.0
C1139 C 0.04211 0.60153 0.0631 0.0
C1140 C 0.02865 0.5875 0.03672 0.0
C1141 C 0.03729 0.61977 0.07467 0.0
C1142 C 1.00521 0.65587 0.0535 0.0
H1143 H 0.96212 0.70722 0.17177 0.0
H1144 H 0.99304 0.69566 0.15118 0.0
H1145 H 0.98775 0.67828 0.04926 0.0
H1146 H 1.00065 0.58249 1.00081 0.0
H1147 H 0.99237 0.61396 0.02064 0.0
H1148 H 1.01211 0.63167 0.12271 0.0
C1149 C 0.97577 0.69053 0.13796 0.0
C1150 C 0.99343 0.66854 0.06561 0.0
C1151 C 0.95821 0.69726 0.14962 0.0
C1152 C 1.01133 0.59291 0.02122 0.0
C1153 C 1.0067 0.61115 0.03251 0.0
C1154 C 1.00764 0.64238 0.10654 0.0
C1155 C 0.9708 0.67693 0.10972 0.0
C1156 C 0.98786 0.66769 0.09817 0.0
C1157 C 0.01917 0.62451 0.05979 0.0
C1158 C 1.01153 0.64181 0.07359 0.0
H1159 H 0.91301 0.67095 0.09224 0.0
H1160 H 0.94364 0.65988 0.07163 0.0
H1161 H 0.99179 0.65412 0.14388 0.0
H1162 H 0.05548 0.59771 0.07566 0.0
H1163 H 0.04736 0.62983 0.09559 0.0
C1164 C 0.42701 0.25048 0.18444 0.0
C1165 C 0.40378 0.23124 0.17516 0.0
C1166 C 0.43582 0.27293 0.17048 0.0
C1167 C 0.43202 0.30076 0.09624 0.0
H1168 H 0.46905 0.35966 0.14454 0.0
C1169 C 0.47855 0.39532 0.03842 0.0
C1170 C 0.50214 0.41229 0.05063 0.0
C1171 C 0.46476 0.37304 0.05308 0.0
C1172 C 0.45899 0.34338 0.13064 0.0
H1173 H 0.37115 0.22056 0.1446 0.0
H1174 H 0.3867 0.26009 0.11986 0.0
H1175 H 0.44667 0.32171 0.17242 0.0
H1176 H 0.52993 0.41858 0.0875 0.0
H1177 H 0.50634 0.37969 0.11236 0.0
H1178 H 0.44485 0.32241 0.0544 0.0
C1179 C 0.39804 0.25767 0.13804 0.0
C1180 C 0.44604 0.32164 0.14665 0.0
C1181 C 0.38903 0.23515 0.1524 0.0
C1182 C 0.51198 0.40602 0.07719 0.0
C1183 C 0.49822 0.38378 0.09181 0.0
C1184 C 0.44507 0.32256 0.08017 0.0
C1185 C 0.42175 0.2767 0.14661 0.0
C1186 C 0.43278 0.30002 0.12965 0.0
C1187 C 0.47423 0.36718 0.08033 0.0
C1188 C 0.45911 0.34408 0.09718 0.0
H1189 H 0.4388 0.248 0.20192 0.0
H1190 H 0.45425 0.28708 0.17743 0.0
H1191 H 0.42223 0.28439 0.08244 0.0
H1192 H 0.47051 0.39939 0.0178 0.0
H1193 H 0.44635 0.36071 0.04359 0.0
C1194 C 0.71602 0.11916 0.18529 0.0
C1195 C 0.74002 0.12597 0.17276 0.0
C1196 C 0.69435 0.10199 0.1698 0.0
C1197 C 0.67093 0.07818 0.09029 0.0
H1198 H 0.61416 0.02861 0.1351 0.0
C1199 C 0.58219 1.00695 0.02421 0.0
C1200 C 0.55871 0.99777 0.03934 0.0
C1201 C 0.60435 0.0228 0.04017 0.0
C1202 C 0.62964 0.04259 0.12222 0.0
H1203 H 0.76015 0.11962 0.13454 0.0
H1204 H 0.72211 0.08966 0.10717 0.0
H1205 H 0.65292 0.0542 0.16409 0.0
H1206 H 0.54008 0.99907 0.08273 0.0
H1207 H 0.57856 0.02739 0.11016 0.0
H1208 H 0.64758 0.06716 0.04861 0.0
C1209 C 0.72016 0.09764 0.1291 0.0
C1210 C 0.65195 0.05714 0.13886 0.0
C1211 C 0.74193 0.11459 0.14493 0.0
C1212 C 0.55784 1.00569 0.07037 0.0
C1213 C 0.58 0.02176 0.08625 0.0
C1214 C 0.64852 0.06382 0.07369 0.0
C1215 C 0.69611 0.09146 0.14111 0.0
C1216 C 0.67285 0.07512 0.12311 0.0
C1217 C 0.60365 0.03014 0.07164 0.0
C1218 C 0.6275 0.04581 0.08941 0.0
H1219 H 0.71394 0.12764 0.20667 0.0
H1220 H 0.67614 0.09775 0.17957 0.0
H1221 H 0.68656 0.09215 0.07758 0.0
H1222 H 0.58365 1.00115 1.00039 0.0
H1223 H 0.62211 0.02857 0.02814 0.0
C1224 C 0.56389 0.94947 0.52312 0.0
C1225 C 0.55848 0.96752 0.51259 0.0
C1226 C 0.5852 0.94844 0.51249 0.0
C1227 C 0.62654 0.96259 0.44419 0.0
H1228 H 0.66307 0.94153 0.50055 0.0
C1229 C 0.69393 0.92716 0.3975 0.0
C1230 C 0.68764 0.90446 0.40993 0.0
C1231 C 0.68406 0.94119 0.41122 0.0
C1232 C 0.65319 0.94755 0.48446 0.0
H1233 H 0.57149 0.99901 0.48301 0.0
H1234 H 0.60895 0.99698 0.46371 0.0
H1235 H 0.63484 0.9552 0.52283 0.0
H1236 H 0.66725 0.87922 0.44722 0.0
H1237 H 0.65067 0.90361 0.4713 0.0
H1238 H 0.64407 0.95379 0.40572 0.0
C1239 C 0.59662 0.98375 0.48053 0.0
C1240 C 0.63701 0.95538 0.49724 0.0
C1241 C 0.57534 0.98503 0.49172 0.0
C1242 C 0.67244 0.89663 0.43709 0.0
C1243 C 0.66303 0.91071 0.45103 0.0
C1244 C 0.6428 0.95471 0.43135 0.0
C1245 C 0.60163 0.96527 0.49063 0.0
C1246 C 0.6227 0.96207 0.47725 0.0
C1247 C 0.66826 0.93294 0.43798 0.0
C1248 C 0.65552 0.94618 0.45134 0.0
H1249 H 0.55127 0.93571 0.5392 0.0
H1250 H 0.58822 0.93378 0.52044 0.0
H1251 H 0.61572 0.96753 0.42812 0.0
H1252 H 0.70543 0.93353 0.3764 0.0
H1253 H 0.68845 0.95827 0.40065 0.0
C1254 C 0.03945 0.59616 0.46489 0.0
C1255 C 0.05745 0.59649 0.48649 0.0
C1256 C 0.04077 0.61782 0.45452 0.0
C1257 C 0.07014 0.68298 0.47413 0.0
H1258 H 0.07549 0.69321 0.38297 0.0
C1259 C 0.13739 0.7723 0.4185 0.0
C1260 C 0.1306 0.78044 0.39104 0.0
C1261 C 0.12106 0.75012 0.43158 0.0
C1262 C 0.07347 0.69056 0.40845 0.0
H1263 H 0.08996 0.61938 0.51539 0.0
H1264 H 0.09192 0.65665 0.49811 0.0
H1265 H 0.05931 0.65257 0.40385 0.0
H1266 H 0.10117 0.77206 0.35598 0.0
H1267 H 0.07249 0.73255 0.37861 0.0
H1268 H 0.08565 0.72103 0.47886 0.0
C1269 C 0.07686 0.63998 0.48893 0.0
C1270 C 0.06417 0.66726 0.42043 0.0
C1271 C 0.07583 0.61858 0.49871 0.0
C1272 C 0.10669 0.76626 0.3774 0.0
C1273 C 0.09043 0.74365 0.39018 0.0
C1274 C 0.07944 0.70618 0.46221 0.0
C1275 C 0.05972 0.64 0.46622 0.0
C1276 C 0.06348 0.66337 0.45344 0.0
C1277 C 0.09763 0.73522 0.41721 0.0
C1278 C 0.08225 0.71037 0.42928 0.0
H1279 H 0.02522 0.57935 0.45491 0.0
H1280 H 0.0273 0.61727 0.43699 0.0
H1281 H 0.0694 0.68054 0.49968 0.0
H1282 H 0.15575 0.78286 0.42941 0.0
H1283 H 0.12738 0.74411 0.45211 0.0
C1284 C 0.22944 0.38424 0.38957 0.0
C1285 C 0.22401 0.39705 0.36635 0.0
C1286 C 0.25358 0.39403 0.40338 0.0
C1287 C 0.32003 0.44085 0.39177 0.0
H1288 H 0.32487 0.43997 0.48372 0.0
C1289 C 0.41352 0.50096 0.45681 0.0
C1290 C 0.42045 0.49075 0.48202 0.0
C1291 C 0.38916 0.4892 0.44386 0.0
C1292 C 0.32391 0.44018 0.458 0.0
H1293 H 0.2399 0.42964 0.3385 0.0
H1294 H 0.28167 0.44642 0.36213 0.0
H1295 H 0.28375 0.41835 0.45767 0.0
H1296 H 0.40667 0.46055 0.51427 0.0
H1297 H 0.36439 0.44004 0.4916 0.0
H1298 H 0.36006 0.46263 0.39193 0.0
C1299 C 0.26748 0.42889 0.36981 0.0
C1300 C 0.30031 0.4277 0.44305 0.0
C1301 C 0.24343 0.41928 0.35633 0.0
C1302 C 0.40204 0.46901 0.4949 0.0
C1303 C 0.37769 0.45723 0.48191 0.0
C1304 C 0.34358 0.45324 0.40666 0.0
C1305 C 0.2728 0.41664 0.39391 0.0
C1306 C 0.29804 0.42812 0.40975 0.0
C1307 C 0.37108 0.46687 0.45571 0.0
C1308 C 0.34585 0.45334 0.44001 0.0
H1309 H 0.21482 0.36716 0.39796 0.0
H1310 H 0.25713 0.38403 0.4217 0.0
H1311 H 0.31904 0.44126 0.36605 0.0
H1312 H 0.42714 0.51769 0.44632 0.0
H1313 H 0.38462 0.49746 0.42417 0.0
C1314 C 0.88929 0.78424 0.22811 0.0
C1315 C 0.87541 0.7716 0.20116 0.0
C1316 C 0.88493 0.80211 0.24207 0.0
C1317 C 0.85337 0.83969 0.22814 0.0
H1318 H 0.83601 0.82909 0.31749 0.0
C1319 C 0.77438 0.85246 0.28283 0.0
C1320 C 0.77604 0.86049 0.31433 0.0
C1321 C 0.79382 0.84945 0.26953 0.0
C1322 C 0.84134 0.83277 0.29273 0.0
H1323 H 0.84732 0.76854 0.16663 0.0
H1324 H 0.84016 0.79977 0.19022 0.0
H1325 H 0.85794 0.80947 0.29256 0.0
H1326 H 0.79956 0.87234 0.35653 0.0
H1327 H 0.83381 0.86669 0.33331 0.0
H1328 H 0.83554 0.8619 0.22786 0.0
C1329 C 0.85436 0.79612 0.2008 0.0
C1330 C 0.85394 0.82152 0.27842 0.0
C1331 C 0.85839 0.77812 0.18729 0.0
C1332 C 0.79805 0.86646 0.332 0.0
C1333 C 0.81747 0.86301 0.31882 0.0
C1334 C 0.84078 0.85089 0.2424 0.0
C1335 C 0.86698 0.80788 0.2289 0.0
C1336 C 0.85915 0.82404 0.24562 0.0
C1337 C 0.8153 0.85398 0.28759 0.0
C1338 C 0.83367 0.84677 0.27455 0.0
H1339 H 0.90225 0.77928 0.23951 0.0
H1340 H 0.895 0.81089 0.26367 0.0
H1341 H 0.85753 0.84239 0.20297 0.0
H1342 H 0.75748 0.84754 0.26884 0.0
H1343 H 0.79129 0.84216 0.24563 0.0
C1344 C 0.28633 0.07452 0.18499 0.0
C1345 C 0.29963 0.0956 0.20309 0.0
C1346 C 0.26796 0.05354 0.19901 0.0
C1347 C 0.25002 0.02448 0.27781 0.0
H1348 H 0.19452 0.97554 0.22923 0.0
C1349 C 0.19013 0.92872 0.32698 0.0
C1350 C 0.19022 0.91141 0.30615 0.0
C1351 C 0.19735 0.952 0.31606 0.0
C1352 C 0.20982 0.9891 0.24321 0.0
H1353 H 0.30291 0.1114 0.24989 0.0
H1354 H 0.27043 0.07493 0.2742 0.0
H1355 H 0.21884 0.01559 0.20709 0.0
H1356 H 0.19648 0.90421 0.25759 0.0
H1357 H 0.2081 0.94427 0.23832 0.0
H1358 H 0.24124 0.99773 0.31361 0.0
C1359 C 0.27464 0.07446 0.24927 0.0
C1360 C 0.2239 0.01203 0.23044 0.0
C1361 C 0.29316 0.09546 0.23525 0.0
C1362 C 0.19593 0.91718 0.27398 0.0
C1363 C 0.2026 0.94015 0.26297 0.0
C1364 C 0.23577 1.00159 0.29069 0.0
C1365 C 0.26219 0.05303 0.23152 0.0
C1366 C 0.24475 0.02984 0.2471 0.0
C1367 C 0.20428 0.9581 0.28407 0.0
C1368 C 0.21601 0.98342 0.27311 0.0
H1369 H 0.29081 0.07389 0.16018 0.0
H1370 H 0.25915 0.03742 0.18456 0.0
H1371 H 0.26605 0.03752 0.29129 0.0
H1372 H 0.18625 0.92478 0.35202 0.0
H1373 H 0.19842 0.96546 0.33285 0.0
C1374 C 0.05193 0.29735 0.35027 0.0
C1375 C 0.07535 0.30304 0.33687 0.0
C1376 C 0.02972 0.27891 0.33762 0.0
C1377 C 1.00338 0.24876 0.26159 0.0
H1378 H 0.94424 0.21371 0.3137 0.0
C1379 C 0.90023 0.19724 0.21068 0.0
C1380 C 0.88533 0.20642 0.22427 0.0
C1381 C 0.9238 0.20283 0.22419 0.0
C1382 C 0.96062 0.22313 0.29878 0.0
H1383 H 0.09402 0.2932 0.30039 0.0
H1384 H 0.05491 0.26064 0.27801 0.0
H1385 H 0.98577 0.23399 0.33875 0.0
H1386 H 0.88268 0.22758 0.26322 0.0
H1387 H 0.92299 0.23655 0.28715 0.0
H1388 H 0.97785 0.23843 0.22173 0.0
C1389 C 0.05382 0.27056 0.29843 0.0
C1390 C 0.98442 0.23486 0.31312 0.0
C1391 C 0.07622 0.28899 0.31145 0.0
C1392 C 0.89382 0.22033 0.25217 0.0
C1393 C 0.91685 0.22535 0.26599 0.0
C1394 C 0.97948 0.23679 0.24717 0.0
C1395 C 0.03022 0.26568 0.31095 0.0
C1396 C 1.00601 0.24876 0.29493 0.0
C1397 C 0.93233 0.21703 0.25197 0.0
C1398 C 0.95778 0.22472 0.26582 0.0
H1399 H 0.05065 0.30794 0.36978 0.0
H1400 H 1.01203 0.27603 0.3477 0.0
H1401 H 0.01952 0.25936 0.2468 0.0
H1402 H 0.89415 0.1866 0.18905 0.0
H1403 H 0.93541 0.19623 0.21287 0.0
C1404 C 0.31304 0.20516 0.74367 0.0
C1405 C 0.33531 0.21827 0.7264 0.0
C1406 C 0.29888 0.21603 0.75425 0.0
C1407 C 0.29011 0.27024 0.74321 0.0
H1408 H 0.25678 0.25073 0.82468 0.0
C1409 C 0.23869 0.31753 0.80526 0.0
C1410 C 0.21442 0.30177 0.81632 0.0
C1411 C 0.25476 0.30864 0.79466 0.0
C1412 C 0.26592 0.25635 0.80183 0.0
H1413 H 0.36 0.2532 0.70656 0.0
H1414 H 0.33578 0.27223 0.72559 0.0
H1415 H 0.28163 0.23251 0.805 0.0
H1416 H 0.18829 0.26439 0.82549 0.0
H1417 H 0.21623 0.24916 0.80766 0.0
H1418 H 0.2745 0.29436 0.74049 0.0
C1419 C 0.32884 0.25339 0.73046 0.0
C1420 C 0.28007 0.24576 0.79037 0.0
C1421 C 0.34286 0.24246 0.71962 0.0
C1422 C 0.20682 0.27709 0.81707 0.0
C1423 C 0.22291 0.26831 0.80701 0.0
C1424 C 0.27615 0.28103 0.75487 0.0
C1425 C 0.30672 0.24042 0.74818 0.0
C1426 C 0.29214 0.25229 0.76068 0.0
C1427 C 0.24703 0.2839 0.79551 0.0
C1428 C 0.26361 0.27398 0.78414 0.0
H1429 H 0.30657 0.18648 0.7492 0.0
H1430 H 0.2817 0.20522 0.76718 0.0
H1431 H 0.29882 0.27562 0.7201 0.0
H1432 H 0.24508 0.33662 0.80429 0.0
H1433 H 0.2733 0.32112 0.78604 0.0
C1434 C 0.80067 0.07495 0.69861 0.0
C1435 C 0.80402 0.09513 0.7163 0.0
C1436 C 0.78809 0.05195 0.71161 0.0
C1437 C 0.74517 0.01693 0.77755 0.0
H1438 H 0.76932 0.97176 0.75733 0.0
C1439 C 0.71479 0.92777 0.84564 0.0
C1440 C 0.71145 0.90754 0.828 0.0
C1441 C 0.72371 0.95015 0.83105 0.0
C1442 C 0.76209 0.98402 0.7629 0.0
H1443 H 0.79686 0.10685 0.76177 0.0
H1444 H 0.77534 0.06681 0.78477 0.0
H1445 H 0.7901 0.01171 0.73457 0.0
H1446 H 0.71389 0.89494 0.78074 0.0
H1447 H 0.72935 0.93392 0.75535 0.0
H1448 H 0.71748 0.98922 0.80653 0.0
C1449 C 0.78195 0.06866 0.76051 0.0
C1450 C 0.77403 1.00701 0.7498 0.0
C1451 C 0.79437 0.09168 0.74737 0.0
C1452 C 0.71624 0.91009 0.79511 0.0
C1453 C 0.72533 0.9325 0.78058 0.0
C1454 C 0.73333 0.99395 0.79085 0.0
C1455 C 0.77866 0.04844 0.74283 0.0
C1456 C 0.76576 0.02384 0.75689 0.0
C1457 C 0.72968 0.95293 0.79849 0.0
C1458 C 0.74163 0.97719 0.78367 0.0
H1459 H 0.80741 0.07686 0.67442 0.0
H1460 H 0.78552 0.03687 0.69694 0.0
H1461 H 0.73795 0.02919 0.78322 0.0
H1462 H 0.71132 0.92651 0.87101 0.0
H1463 H 0.72695 0.96549 0.84562 0.0
C1464 C 0.08194 0.79984 0.76453 0.0
C1465 C 0.09076 0.79548 0.79341 0.0
C1466 C 0.05856 0.78331 0.75212 0.0
C1467 C 0.99623 0.73924 0.77741 0.0
H1468 H 0.98477 0.7289 0.68647 0.0
C1469 C 0.8959 0.69999 0.72087 0.0
C1470 C 0.89494 0.71445 0.6962 0.0
C1471 C 0.91925 0.70309 0.73217 0.0
C1472 C 0.98759 0.73149 0.71196 0.0
H1473 H 0.08231 0.77016 0.83174 0.0
H1474 H 0.04071 0.74112 0.81022 0.0
H1475 H 0.02759 0.74665 0.70764 0.0
H1476 H 0.91742 0.7425 0.66299 0.0
H1477 H 0.95766 0.74758 0.68206 0.0
H1478 H 0.95626 0.72525 0.78148 0.0
C1479 C 0.05221 0.75731 0.79704 0.0
C1480 C 1.01214 0.74163 0.72409 0.0
C1481 C 0.07604 0.77377 0.80921 0.0
C1482 C 0.91754 0.73106 0.68201 0.0
C1483 C 0.94066 0.73388 0.69287 0.0
C1484 C 0.97158 0.72912 0.76522 0.0
C1485 C 0.04308 0.76211 0.76854 0.0
C1486 C 0.01687 0.74652 0.75681 0.0
C1487 C 0.94195 0.72036 0.71856 0.0
C1488 C 0.96708 0.72604 0.73219 0.0
H1489 H 0.09287 0.81649 0.75195 0.0
H1490 H 0.05206 0.78779 0.73039 0.0
H1491 H 0.99923 0.74289 0.80271 0.0
H1492 H 0.87878 0.68721 0.73246 0.0
H1493 H 0.91959 0.69234 0.75194 0.0
loop_
_geom_bond_atom_site_label_1
_geom_bond_atom_site_label_2
_geom_bond_distance
_geom_bond_site_symmetry_2
_ccdc_geom_bond_type
Cu0 N1 1.999 1_554 S
Cu0 O6 1.974 1_554 S
Cu0 N11 1.985 . S
Cu0 O20 1.959 . S
N1 Cu0 1.999 1_556 S
N1 C3 1.263 . S
N1 C5 1.389 . S
N2 C3 1.358 . S
N2 C4 1.400 . S
C3 N1 1.263 . S
C3 N2 1.358 . S
C3 H9 0.930 . S
C4 N2 1.400 . S
C4 C5 1.351 . S
C4 H21 0.930 . S
C5 N1 1.389 . S
C5 C4 1.351 . S
C5 H10 0.930 . S
O6 Cu0 1.974 1_556 S
O6 C16 1.282 . S
C7 O8 1.261 . S
C7 O20 1.251 1_655 S
O8 C7 1.261 . S
H9 C3 0.930 . S
H10 C5 0.930 . S
N11 Cu0 1.985 . S
N11 C13 1.335 . S
N11 C14 1.390 . S
N12 C13 1.345 . S
N12 C15 1.336 . S
C13 N11 1.335 . S
C13 N12 1.345 . S
C13 H18 0.930 . S
C14 N11 1.390 . S
C14 C15 1.346 . S
C14 H19 0.930 . S
C15 N12 1.336 . S
C15 C14 1.346 . S
C15 H22 0.929 . S
C16 O6 1.282 . S
C16 O17 1.216 . S
O17 C16 1.216 . S
H18 C13 0.930 . S
H19 C14 0.930 . S
O20 Cu0 1.959 . S
O20 C7 1.251 1_455 S
H21 C4 0.930 . S
H22 C15 0.929 . S
Cu23 N24 1.999 . S
Cu23 O29 1.974 . S
Cu23 N34 1.985 . S
Cu23 O43 1.959 1_554 S
N24 Cu23 1.999 . S
N24 C26 1.263 . S
N24 C28 1.389 1_554 S
N25 C26 1.358 . S
N25 C27 1.400 . S
C26 N24 1.263 . S
C26 N25 1.358 . S
C26 H32 0.930 . S
C27 N25 1.400 . S
C27 C28 1.351 1_554 S
C27 H44 0.930 1_554 S
C28 N24 1.389 1_556 S
C28 C27 1.351 1_556 S
C28 H33 0.930 . S
O29 Cu23 1.974 . S
O29 C39 1.282 . S
C30 O31 1.261 . S
C30 O43 1.251 . S
O31 C30 1.261 . S
H32 C26 0.930 . S
H33 C28 0.930 . S
N34 Cu23 1.985 . S
N34 C36 1.335 1_554 S
N34 C37 1.390 . S
N35 C36 1.345 . S
N35 C38 1.336 1_556 S
C36 N34 1.335 1_556 S
C36 N35 1.345 . S
C36 H41 0.930 . S
C37 N34 1.390 . S
C37 C38 1.346 . S
C37 H42 0.930 . S
C38 N35 1.336 1_554 S
C38 C37 1.346 . S
C38 H45 0.929 . S
C39 O29 1.282 . S
C39 O40 1.216 . S
O40 C39 1.216 . S
H41 C36 0.930 . S
H42 C37 0.930 . S
O43 Cu23 1.959 1_556 S
O43 C30 1.251 . S
H44 C27 0.930 1_556 S
H45 C38 0.929 . S
Cu46 N47 1.999 1_554 S
Cu46 O52 1.974 1_544 S
Cu46 N57 1.985 . S
Cu46 O66 1.959 . S
N47 Cu46 1.999 1_556 S
N47 C49 1.263 . S
N47 C51 1.389 . S
N48 C49 1.358 . S
N48 C50 1.400 . S
C49 N47 1.263 . S
C49 N48 1.358 . S
C49 H55 0.930 . S
C50 N48 1.400 . S
C50 C51 1.351 . S
C50 H67 0.930 . S
C51 N47 1.389 . S
C51 C50 1.351 . S
C51 H56 0.930 . S
O52 Cu46 1.974 1_566 S
O52 C62 1.266 1_565 S
C53 O54 1.261 . S
C53 O66 1.251 . S
O54 C53 1.261 . S
H55 C49 0.930 . S
H56 C51 0.930 . S
N57 Cu46 1.985 . S
N57 C59 1.335 . S
N57 C60 1.390 . S
N58 C59 1.345 . S
N58 C61 1.336 . S
C59 N57 1.335 . S
C59 N58 1.345 . S
C59 H64 0.930 . S
C60 N57 1.390 . S
C60 C61 1.346 . S
C60 H65 0.925 . S
C61 N58 1.336 . S
C61 C60 1.346 . S
C61 H68 0.929 . S
C62 O52 1.266 1_545 S
C62 O63 1.235 . S
O63 C62 1.235 . S
H64 C59 0.930 . S
H65 C60 0.925 . S
O66 Cu46 1.959 . S
O66 C53 1.251 . S
H67 C50 0.930 . S
H68 C61 0.929 . S
Cu69 N70 1.999 . S
Cu69 O75 1.974 . S
Cu69 N80 1.985 . S
Cu69 O89 1.959 . S
N70 Cu69 1.999 . S
N70 C72 1.263 . S
N70 C74 1.389 . S
N71 C72 1.358 . S
N71 C73 1.400 . S
C72 N70 1.263 . S
C72 N71 1.358 . S
C72 H78 0.930 . S
C73 N71 1.400 . S
C73 C74 1.351 . S
C73 H90 0.930 . S
C74 N70 1.389 . S
C74 C73 1.351 . S
C74 H79 0.930 . S
O75 Cu69 1.974 . S
O75 C85 1.282 1_545 S
C76 O77 1.261 . S
C76 O89 1.251 . S
O77 C76 1.261 . S
H78 C72 0.930 . S
H79 C74 0.930 . S
N80 Cu69 1.985 . S
N80 C82 1.335 . S
N80 C83 1.390 1_545 S
N81 C82 1.345 . S
N81 C84 1.336 1_545 S
C82 N80 1.335 . S
C82 N81 1.345 . S
C82 H87 0.930 . S
C83 N80 1.390 1_565 S
C83 C84 1.346 . S
C83 H88 0.930 . S
C84 N81 1.336 1_565 S
C84 C83 1.346 . S
C84 H91 0.929 . S
C85 O75 1.282 1_565 S
C85 O86 1.216 . S
O86 C85 1.216 . S
H87 C82 0.930 . S
H88 C83 0.930 . S
O89 Cu69 1.959 . S
O89 C76 1.251 . S
H90 C73 0.930 . S
H91 C84 0.929 . S
Cu92 N93 1.999 . S
Cu92 O98 1.974 . S
Cu92 N103 1.985 . S
Cu92 O112 1.959 1_655 S
N93 Cu92 1.999 . S
N93 C95 1.263 . S
N93 C97 1.389 . S
N94 C95 1.358 . S
N94 C96 1.400 . S
C95 N93 1.263 . S
C95 N94 1.358 . S
C95 H101 0.930 . S
C96 N94 1.400 . S
C96 C97 1.351 . S
C96 H113 0.930 . S
C97 N93 1.389 . S
C97 C96 1.351 . S
C97 H102 0.930 . S
O98 Cu92 1.974 . S
O98 C108 1.282 . S
C99 O100 1.261 . S
C99 O112 1.251 . S
O100 C99 1.261 . S
H101 C95 0.930 . S
H102 C97 0.930 . S
N103 Cu92 1.985 . S
N103 C105 1.335 . S
N103 C106 1.390 . S
N104 C105 1.345 . S
N104 C107 1.336 . S
C105 N103 1.335 . S
C105 N104 1.345 . S
C105 H110 0.930 . S
C106 N103 1.390 . S
C106 C107 1.346 . S
C106 H111 0.930 . S
C107 N104 1.336 . S
C107 C106 1.346 . S
C107 H114 0.929 . S
C108 O98 1.282 . S
C108 O109 1.216 1_655 S
O109 C108 1.216 1_455 S
H110 C105 0.930 . S
H111 C106 0.930 . S
O112 Cu92 1.959 1_455 S
O112 C99 1.251 . S
H113 C96 0.930 . S
H114 C107 0.929 . S
Cu115 N116 1.999 . S
Cu115 O121 1.974 . S
Cu115 N126 1.985 . S
Cu115 O135 1.959 . S
N116 Cu115 1.999 . S
N116 C118 1.263 . S
N116 C120 1.389 . S
N117 C118 1.358 . S
N117 C119 1.400 . S
C118 N116 1.263 . S
C118 N117 1.358 . S
C118 H124 0.930 . S
C119 N117 1.400 . S
C119 C120 1.351 . S
C119 H136 0.930 . S
C120 N116 1.389 . S
C120 C119 1.351 . S
C120 H125 0.930 . S
O121 Cu115 1.974 . S
O121 C131 1.282 . S
C122 O123 1.261 . S
C122 O135 1.251 . S
O123 C122 1.261 . S
H124 C118 0.930 . S
H125 C120 0.930 . S
N126 Cu115 1.985 . S
N126 C128 1.335 . S
N126 C129 1.390 . S
N127 C128 1.345 . S
N127 C130 1.336 . S
C128 N126 1.335 . S
C128 N127 1.345 . S
C128 H133 0.930 . S
C129 N126 1.390 . S
C129 C130 1.346 . S
C129 H134 0.930 . S
C130 N127 1.336 . S
C130 C129 1.346 . S
C130 H137 0.929 . S
C131 O121 1.282 . S
C131 O132 1.216 . S
O132 C131 1.216 . S
H133 C128 0.930 . S
H134 C129 0.930 . S
O135 Cu115 1.959 . S
O135 C122 1.251 . S
H136 C119 0.930 . S
H137 C130 0.929 . S
Cu138 N139 1.999 . S
Cu138 O144 1.974 . S
Cu138 N149 1.985 . S
Cu138 O158 1.959 . S
N139 Cu138 1.999 . S
N139 C141 1.263 . S
N139 C143 1.389 . S
N140 C141 1.358 . S
N140 C142 1.400 . S
C141 N139 1.263 . S
C141 N140 1.358 . S
C141 H147 0.930 . S
C142 N140 1.400 . S
C142 C143 1.351 . S
C142 H159 0.930 . S
C143 N139 1.389 . S
C143 C142 1.351 . S
C143 H148 0.930 . S
O144 Cu138 1.974 . S
O144 C154 1.282 . S
C145 O146 1.261 . S
C145 O158 1.251 . S
O146 C145 1.261 . S
H147 C141 0.930 . S
H148 C143 0.930 . S
N149 Cu138 1.985 . S
N149 C151 1.335 . S
N149 C152 1.390 . S
N150 C151 1.345 . S
N150 C153 1.336 . S
C151 N149 1.335 . S
C151 N150 1.345 . S
C151 H156 0.930 . S
C152 N149 1.390 . S
C152 C153 1.346 . S
C152 H157 0.930 . S
C153 N150 1.336 . S
C153 C152 1.346 . S
C153 H160 0.929 . S
C154 O144 1.282 . S
C154 O155 1.216 . S
O155 C154 1.216 . S
H156 C151 0.930 . S
H157 C152 0.930 . S
O158 Cu138 1.959 . S
O158 C145 1.251 . S
H159 C142 0.930 . S
H160 C153 0.929 . S
Cu161 N162 1.999 . S
Cu161 O167 1.974 . S
Cu161 N172 1.985 . S
Cu161 O181 1.959 . S
N162 Cu161 1.999 . S
N162 C164 1.263 . S
N162 C166 1.389 . S
N163 C164 1.358 . S
N163 C165 1.400 . S
C164 N162 1.263 . S
C164 N163 1.358 . S
C164 H170 0.930 . S
C165 N163 1.400 . S
C165 C166 1.351 . S
C165 H182 0.930 . S
C166 N162 1.389 . S
C166 C165 1.351 . S
C166 H171 0.930 . S
O167 Cu161 1.974 . S
O167 C177 1.282 . S
C168 O169 1.261 . S
C168 O181 1.251 . S
O169 C168 1.261 . S
H170 C164 0.930 . S
H171 C166 0.930 . S
N172 Cu161 1.985 . S
N172 C174 1.335 . S
N172 C175 1.390 . S
N173 C174 1.345 . S
N173 C176 1.336 . S
C174 N172 1.335 . S
C174 N173 1.345 . S
C174 H179 0.930 . S
C175 N172 1.390 . S
C175 C176 1.346 . S
C175 H180 0.930 . S
C176 N173 1.336 . S
C176 C175 1.346 . S
C176 H183 0.929 . S
C177 O167 1.282 . S
C177 O178 1.216 . S
O178 C177 1.216 . S
H179 C174 0.930 . S
H180 C175 0.930 . S
O181 Cu161 1.959 . S
O181 C168 1.251 . S
H182 C165 0.930 . S
H183 C176 0.929 . S
Cu184 N185 1.999 . S
Cu184 O190 1.974 . S
Cu184 N195 1.985 . S
Cu184 O204 1.959 . S
N185 Cu184 1.999 . S
N185 C187 1.263 . S
N185 C189 1.389 . S
N186 C187 1.358 . S
N186 C188 1.400 . S
C187 N185 1.263 . S
C187 N186 1.358 . S
C187 H193 0.930 . S
C188 N186 1.400 . S
C188 C189 1.351 . S
C188 H205 0.930 . S
C189 N185 1.389 . S
C189 C188 1.351 . S
C189 H194 0.930 . S
O190 Cu184 1.974 . S
O190 C200 1.282 . S
C191 O192 1.261 . S
C191 O204 1.251 . S
O192 C191 1.261 . S
H193 C187 0.930 . S
H194 C189 0.930 . S
N195 Cu184 1.985 . S
N195 C197 1.335 . S
N195 C198 1.390 . S
N196 C197 1.345 . S
N196 C199 1.336 . S
C197 N195 1.335 . S
C197 N196 1.345 . S
C197 H202 0.930 . S
C198 N195 1.390 . S
C198 C199 1.346 . S
C198 H203 0.930 . S
C199 N196 1.336 . S
C199 C198 1.346 . S
C199 H206 0.929 . S
C200 O190 1.282 . S
C200 O201 1.216 . S
O201 C200 1.216 . S
H202 C197 0.930 . S
H203 C198 0.930 . S
O204 Cu184 1.959 . S
O204 C191 1.251 . S
H205 C188 0.930 . S
H206 C199 0.929 . S
Cu207 N208 1.999 . S
Cu207 O213 1.974 . S
Cu207 N218 1.985 . S
Cu207 O227 1.959 . S
N208 Cu207 1.999 . S
N208 C210 1.263 . S
N208 C212 1.389 . S
N209 C210 1.358 . S
N209 C211 1.400 . S
C210 N208 1.263 . S
C210 N209 1.358 . S
C210 H216 0.930 . S
C211 N209 1.400 . S
C211 C212 1.351 . S
C211 H228 0.930 . S
C212 N208 1.389 . S
C212 C211 1.351 . S
C212 H217 0.930 . S
O213 Cu207 1.974 . S
O213 C223 1.282 . S
C214 O215 1.261 . S
C214 O227 1.251 . S
O215 C214 1.261 . S
H216 C210 0.930 . S
H217 C212 0.930 . S
N218 Cu207 1.985 . S
N218 C220 1.335 . S
N218 C221 1.390 . S
N219 C220 1.345 . S
N219 C222 1.336 . S
C220 N218 1.335 . S
C220 N219 1.345 . S
C220 H225 0.930 . S
C221 N218 1.390 . S
C221 C222 1.346 . S
C221 H226 0.930 . S
C222 N219 1.336 . S
C222 C221 1.346 . S
C222 H229 0.929 . S
C223 O213 1.282 . S
C223 O224 1.216 . S
O224 C223 1.216 . S
H225 C220 0.930 . S
H226 C221 0.930 . S
O227 Cu207 1.959 . S
O227 C214 1.251 . S
H228 C211 0.930 . S
H229 C222 0.929 . S
Cu230 N231 1.999 . S
Cu230 O236 1.974 . S
Cu230 N241 1.985 . S
Cu230 O250 1.959 . S
N231 Cu230 1.999 . S
N231 C233 1.263 . S
N231 C235 1.389 . S
N232 C233 1.358 . S
N232 C234 1.400 . S
C233 N231 1.263 . S
C233 N232 1.358 . S
C233 H239 0.930 . S
C234 N232 1.400 . S
C234 C235 1.351 . S
C234 H251 0.930 . S
C235 N231 1.389 . S
C235 C234 1.351 . S
C235 H240 0.930 . S
O236 Cu230 1.974 . S
O236 C246 1.282 . S
C237 O238 1.261 . S
C237 O250 1.251 . S
O238 C237 1.261 . S
H239 C233 0.930 . S
H240 C235 0.930 . S
N241 Cu230 1.985 . S
N241 C243 1.335 . S
N241 C244 1.390 . S
N242 C243 1.345 . S
N242 C245 1.336 . S
C243 N241 1.335 . S
C243 N242 1.345 . S
C243 H248 0.930 . S
C244 N241 1.390 . S
C244 C245 1.346 . S
C244 H249 0.930 . S
C245 N242 1.336 . S
C245 C244 1.346 . S
C245 H252 0.929 . S
C246 O236 1.282 . S
C246 O247 1.216 . S
O247 C246 1.216 . S
H248 C243 0.930 . S
H249 C244 0.930 . S
O250 Cu230 1.959 . S
O250 C237 1.251 . S
H251 C234 0.930 . S
H252 C245 0.929 . S
Cu253 N254 1.999 . S
Cu253 O259 1.974 . S
Cu253 N264 1.985 . S
Cu253 O273 1.959 . S
N254 Cu253 1.999 . S
N254 C256 1.263 . S
N254 C258 1.389 . S
N255 C256 1.358 . S
N255 C257 1.400 . S
C256 N254 1.263 . S
C256 N255 1.358 . S
C256 H262 0.930 . S
C257 N255 1.400 . S
C257 C258 1.351 . S
C257 H274 0.930 . S
C258 N254 1.389 . S
C258 C257 1.351 . S
C258 H263 0.930 . S
O259 Cu253 1.974 . S
O259 C269 1.282 . S
C260 O261 1.261 . S
C260 O273 1.251 . S
O261 C260 1.261 . S
H262 C256 0.930 . S
H263 C258 0.930 . S
N264 Cu253 1.985 . S
N264 C266 1.335 . S
N264 C267 1.390 . S
N265 C266 1.345 . S
N265 C268 1.336 . S
C266 N264 1.335 . S
C266 N265 1.345 . S
C266 H271 0.930 . S
C267 N264 1.390 . S
C267 C268 1.346 . S
C267 H272 0.930 . S
C268 N265 1.336 . S
C268 C267 1.346 . S
C268 H275 0.929 . S
C269 O259 1.282 . S
C269 O270 1.216 . S
O270 C269 1.216 . S
H271 C266 0.930 . S
H272 C267 0.930 . S
O273 Cu253 1.959 . S
O273 C260 1.251 . S
H274 C257 0.930 . S
H275 C268 0.929 . S
Cu276 N277 1.999 . S
Cu276 O282 1.974 . S
Cu276 N287 1.985 . S
Cu276 O296 1.959 . S
N277 Cu276 1.999 . S
N277 C279 1.263 . S
N277 C281 1.389 . S
N278 C279 1.358 . S
N278 C280 1.400 . S
C279 N277 1.263 . S
C279 N278 1.358 . S
C279 H285 0.930 . S
C280 N278 1.400 . S
C280 C281 1.351 . S
C280 H297 0.930 . S
C281 N277 1.389 . S
C281 C280 1.351 . S
C281 H286 0.930 . S
O282 Cu276 1.974 . S
O282 C292 1.282 . S
C283 O284 1.261 . S
C283 O296 1.251 . S
O284 C283 1.261 . S
H285 C279 0.930 . S
H286 C281 0.930 . S
N287 Cu276 1.985 . S
N287 C289 1.335 . S
N287 C290 1.390 . S
N288 C289 1.345 . S
N288 C291 1.336 . S
C289 N287 1.335 . S
C289 N288 1.345 . S
C289 H294 0.930 . S
C290 N287 1.390 . S
C290 C291 1.346 . S
C290 H295 0.930 . S
C291 N288 1.336 . S
C291 C290 1.346 . S
C291 H298 0.929 . S
C292 O282 1.282 . S
C292 O293 1.216 . S
O293 C292 1.216 . S
H294 C289 0.930 . S
H295 C290 0.930 . S
O296 Cu276 1.959 . S
O296 C283 1.251 . S
H297 C280 0.930 . S
H298 C291 0.929 . S
Cu299 N300 1.999 . S
Cu299 O305 1.974 . S
Cu299 N310 1.985 . S
Cu299 O319 1.959 . S
N300 Cu299 1.999 . S
N300 C302 1.263 . S
N300 C304 1.389 . S
N301 C302 1.358 . S
N301 C303 1.400 . S
C302 N300 1.263 . S
C302 N301 1.358 . S
C302 H308 0.930 . S
C303 N301 1.400 . S
C303 C304 1.351 . S
C303 H320 0.930 . S
C304 N300 1.389 . S
C304 C303 1.351 . S
C304 H309 0.930 . S
O305 Cu299 1.974 . S
O305 C315 1.282 . S
C306 O307 1.261 . S
C306 O319 1.251 . S
O307 C306 1.261 . S
H308 C302 0.930 . S
H309 C304 0.930 . S
N310 Cu299 1.985 . S
N310 C312 1.335 . S
N310 C313 1.390 . S
N311 C312 1.345 . S
N311 C314 1.336 . S
C312 N310 1.335 . S
C312 N311 1.345 . S
C312 H317 0.930 . S
C313 N310 1.390 . S
C313 C314 1.346 . S
C313 H318 0.930 . S
C314 N311 1.336 . S
C314 C313 1.346 . S
C314 H321 0.929 . S
C315 O305 1.282 . S
C315 O316 1.216 . S
O316 C315 1.216 . S
H317 C312 0.930 . S
H318 C313 0.930 . S
O319 Cu299 1.959 . S
O319 C306 1.251 . S
H320 C303 0.930 . S
H321 C314 0.929 . S
Cu322 N323 1.999 . S
Cu322 O328 1.974 . S
Cu322 N333 1.985 . S
Cu322 O342 1.959 . S
N323 Cu322 1.999 . S
N323 C325 1.263 . S
N323 C327 1.389 . S
N324 C325 1.358 . S
N324 C326 1.400 . S
C325 N323 1.263 . S
C325 N324 1.358 . S
C325 H331 0.930 . S
C326 N324 1.400 . S
C326 C327 1.351 . S
C326 H343 0.930 . S
C327 N323 1.389 . S
C327 C326 1.351 . S
C327 H332 0.930 . S
O328 Cu322 1.974 . S
O328 C338 1.282 . S
C329 O330 1.261 . S
C329 O342 1.251 . S
O330 C329 1.261 . S
H331 C325 0.930 . S
H332 C327 0.930 . S
N333 Cu322 1.985 . S
N333 C335 1.335 . S
N333 C336 1.390 . S
N334 C335 1.345 . S
N334 C337 1.336 . S
C335 N333 1.335 . S
C335 N334 1.345 . S
C335 H340 0.930 . S
C336 N333 1.390 . S
C336 C337 1.346 . S
C336 H341 0.930 . S
C337 N334 1.336 . S
C337 C336 1.346 . S
C337 H344 0.929 . S
C338 O328 1.282 . S
C338 O339 1.216 . S
O339 C338 1.216 . S
H340 C335 0.930 . S
H341 C336 0.930 . S
O342 Cu322 1.959 . S
O342 C329 1.251 . S
H343 C326 0.930 . S
H344 C337 0.929 . S
Cu345 N346 1.999 . S
Cu345 O351 1.974 . S
Cu345 N356 1.985 . S
Cu345 O365 1.959 . S
N346 Cu345 1.999 . S
N346 C348 1.263 . S
N346 C350 1.389 . S
N347 C348 1.358 . S
N347 C349 1.400 . S
C348 N346 1.263 . S
C348 N347 1.358 . S
C348 H354 0.930 . S
C349 N347 1.400 . S
C349 C350 1.351 . S
C349 H366 0.930 . S
C350 N346 1.389 . S
C350 C349 1.351 . S
C350 H355 0.930 . S
O351 Cu345 1.974 . S
O351 C361 1.282 . S
C352 O353 1.261 . S
C352 O365 1.251 . S
O353 C352 1.261 . S
H354 C348 0.930 . S
H355 C350 0.930 . S
N356 Cu345 1.985 . S
N356 C358 1.335 . S
N356 C359 1.390 . S
N357 C358 1.345 . S
N357 C360 1.336 . S
C358 N356 1.335 . S
C358 N357 1.345 . S
C358 H363 0.930 . S
C359 N356 1.390 . S
C359 C360 1.346 . S
C359 H364 0.930 . S
C360 N357 1.336 . S
C360 C359 1.346 . S
C360 H367 0.929 . S
C361 O351 1.282 . S
C361 O362 1.216 . S
O362 C361 1.216 . S
H363 C358 0.930 . S
H364 C359 0.930 . S
O365 Cu345 1.959 . S
O365 C352 1.251 . S
H366 C349 0.930 . S
H367 C360 0.929 . S
Cu368 N369 1.999 . S
Cu368 O374 1.974 . S
Cu368 N379 1.985 . S
Cu368 O388 1.959 . S
N369 Cu368 1.999 . S
N369 C371 1.263 . S
N369 C373 1.389 . S
N370 C371 1.358 . S
N370 C372 1.400 . S
C371 N369 1.263 . S
C371 N370 1.358 . S
C371 H377 0.930 . S
C372 N370 1.400 . S
C372 C373 1.351 . S
C372 H389 0.930 . S
C373 N369 1.389 . S
C373 C372 1.351 . S
C373 H378 0.930 . S
O374 Cu368 1.974 . S
O374 C384 1.282 . S
C375 O376 1.261 . S
C375 O388 1.251 . S
O376 C375 1.261 . S
H377 C371 0.930 . S
H378 C373 0.930 . S
N379 Cu368 1.985 . S
N379 C381 1.335 . S
N379 C382 1.390 . S
N380 C381 1.345 . S
N380 C383 1.336 . S
C381 N379 1.335 . S
C381 N380 1.345 . S
C381 H386 0.930 . S
C382 N379 1.390 . S
C382 C383 1.346 . S
C382 H387 0.930 . S
C383 N380 1.336 . S
C383 C382 1.346 . S
C383 H390 0.929 . S
C384 O374 1.282 . S
C384 O385 1.216 . S
O385 C384 1.216 . S
H386 C381 0.930 . S
H387 C382 0.930 . S
O388 Cu368 1.959 . S
O388 C375 1.251 . S
H389 C372 0.930 . S
H390 C383 0.929 . S
Cu391 N392 1.999 . S
Cu391 O397 1.974 . S
Cu391 N402 1.985 . S
Cu391 O411 1.959 . S
N392 Cu391 1.999 . S
N392 C394 1.263 . S
N392 C396 1.389 . S
N393 C394 1.358 . S
N393 C395 1.400 . S
C394 N392 1.263 . S
C394 N393 1.358 . S
C394 H400 0.930 . S
C395 N393 1.400 . S
C395 C396 1.351 . S
C395 H412 0.930 . S
C396 N392 1.389 . S
C396 C395 1.351 . S
C396 H401 0.930 . S
O397 Cu391 1.974 . S
O397 C407 1.282 . S
C398 O399 1.261 . S
C398 O411 1.251 . S
O399 C398 1.261 . S
H400 C394 0.930 . S
H401 C396 0.930 . S
N402 Cu391 1.985 . S
N402 C404 1.335 . S
N402 C405 1.390 . S
N403 C404 1.345 . S
N403 C406 1.336 . S
C404 N402 1.335 . S
C404 N403 1.345 . S
C404 H409 0.930 . S
C405 N402 1.390 . S
C405 C406 1.346 . S
C405 H410 0.930 . S
C406 N403 1.336 . S
C406 C405 1.346 . S
C406 H413 0.929 . S
C407 O397 1.282 . S
C407 O408 1.216 . S
O408 C407 1.216 . S
H409 C404 0.930 . S
H410 C405 0.930 . S
O411 Cu391 1.959 . S
O411 C398 1.251 . S
H412 C395 0.930 . S
H413 C406 0.929 . S
C414 C415 1.349 1_455 S
C414 C416 1.327 . S
C414 H439 0.950 . S
C415 C414 1.349 1_655 S
C415 C431 1.349 . S
C416 C414 1.327 . S
C416 C435 1.401 1_455 S
C416 H440 0.950 . S
C417 C434 1.574 . S
C417 C436 1.368 1_655 S
C417 H441 0.949 . S
H418 C422 0.949 . S
C419 C420 1.349 1_655 S
C419 C421 1.327 . S
C419 H442 0.950 . S
C420 C419 1.349 1_455 S
C420 C432 1.349 . S
C421 C419 1.327 . S
C421 C437 1.429 1_655 S
C421 H443 0.950 . S
C422 H418 0.949 . S
C422 C430 1.574 . S
C422 C438 1.368 . S
H423 C431 0.950 . S
H424 C429 0.950 . S
H425 C430 0.949 . S
H426 C432 0.950 . S
H427 C433 0.950 . S
H428 C434 0.949 . S
C429 H424 0.950 . S
C429 C431 1.327 . S
C429 C435 1.462 . S
C430 C422 1.574 . S
C430 H425 0.949 . S
C430 C436 1.368 . S
C431 C415 1.349 . S
C431 H423 0.950 . S
C431 C429 1.327 . S
C432 C420 1.349 . S
C432 H426 0.950 . S
C432 C433 1.327 . S
C433 H427 0.950 . S
C433 C432 1.327 . S
C433 C437 1.429 . S
C434 C417 1.574 . S
C434 H428 0.949 . S
C434 C438 1.368 1_655 S
C435 C416 1.401 1_655 S
C435 C429 1.462 . S
C435 C436 1.518 1_655 S
C436 C417 1.368 1_455 S
C436 C430 1.368 . S
C436 C435 1.518 1_455 S
C437 C421 1.429 1_455 S
C437 C433 1.429 . S
C437 C438 1.523 . S
C438 C422 1.368 . S
C438 C434 1.368 1_455 S
C438 C437 1.523 . S
H439 C414 0.950 . S
H440 C416 0.950 . S
H441 C417 0.949 . S
H442 C419 0.950 . S
H443 C421 0.950 . S
C444 C445 1.349 . S
C444 C446 1.327 . S
C444 H469 0.950 . S
C445 C444 1.349 . S
C445 C461 1.349 . S
C446 C444 1.327 . S
C446 C465 1.429 . S
C446 H470 0.950 . S
C447 C464 1.574 . S
C447 C466 1.368 . S
C447 H471 0.949 . S
H448 C452 0.949 . S
C449 C450 1.349 . S
C449 C451 1.327 . S
C449 H472 0.950 . S
C450 C449 1.349 . S
C450 C462 1.349 . S
C451 C449 1.327 . S
C451 C467 1.429 . S
C451 H473 0.950 . S
C452 H448 0.949 . S
C452 C460 1.574 . S
C452 C468 1.368 . S
H453 C461 0.950 . S
H454 C459 0.950 . S
H455 C460 0.949 . S
H456 C462 0.950 . S
H457 C463 0.950 . S
H458 C464 0.949 . S
C459 H454 0.950 . S
C459 C461 1.327 . S
C459 C465 1.429 . S
C460 C452 1.574 . S
C460 H455 0.949 . S
C460 C466 1.368 . S
C461 C445 1.349 . S
C461 H453 0.950 . S
C461 C459 1.327 . S
C462 C450 1.349 . S
C462 H456 0.950 . S
C462 C463 1.327 . S
C463 H457 0.950 . S
C463 C462 1.327 . S
C463 C467 1.429 . S
C464 C447 1.574 . S
C464 H458 0.949 . S
C464 C468 1.368 . S
C465 C446 1.429 . S
C465 C459 1.429 . S
C465 C466 1.523 . S
C466 C447 1.368 . S
C466 C460 1.368 . S
C466 C465 1.523 . S
C467 C451 1.429 . S
C467 C463 1.429 . S
C467 C468 1.523 . S
C468 C452 1.368 . S
C468 C464 1.368 . S
C468 C467 1.523 . S
H469 C444 0.950 . S
H470 C446 0.950 . S
H471 C447 0.949 . S
H472 C449 0.950 . S
H473 C451 0.950 . S
C474 C475 1.349 . S
C474 C476 1.327 . S
C474 H499 0.950 . S
C475 C474 1.349 . S
C475 C491 1.349 1_545 S
C476 C474 1.327 . S
C476 C495 1.429 . S
C476 H500 0.950 . S
C477 C494 1.574 1_565 S
C477 C496 1.368 1_565 S
C477 H501 0.949 . S
H478 C482 0.949 . S
C479 C480 1.349 . S
C479 C481 1.327 . S
C479 H502 0.950 1_545 S
C480 C479 1.349 . S
C480 C492 1.349 . S
C481 C479 1.327 . S
C481 C497 1.429 . S
C481 H503 0.950 1_545 S
C482 H478 0.949 . S
C482 C490 1.574 . S
C482 C498 1.368 . S
H483 C491 0.950 . S
H484 C489 0.950 . S
H485 C490 0.949 . S
H486 C492 0.950 . S
H487 C493 0.950 . S
H488 C494 0.949 1_565 S
C489 H484 0.950 . S
C489 C491 1.327 . S
C489 C495 1.429 1_565 S
C490 C482 1.574 . S
C490 H485 0.949 . S
C490 C496 1.368 . S
C491 C475 1.349 1_565 S
C491 H483 0.950 . S
C491 C489 1.327 . S
C492 C480 1.349 . S
C492 H486 0.950 . S
C492 C493 1.327 . S
C493 H487 0.950 . S
C493 C492 1.327 . S
C493 C497 1.429 . S
C494 C477 1.574 1_545 S
C494 H488 0.949 1_545 S
C494 C498 1.368 . S
C495 C476 1.429 . S
C495 C489 1.429 1_545 S
C495 C496 1.523 . S
C496 C477 1.368 1_545 S
C496 C490 1.368 . S
C496 C495 1.523 . S
C497 C481 1.429 . S
C497 C493 1.429 . S
C497 C498 1.523 . S
C498 C482 1.368 . S
C498 C494 1.368 . S
C498 C497 1.523 . S
H499 C474 0.950 . S
H500 C476 0.950 . S
H501 C477 0.949 . S
H502 C479 0.950 1_565 S
H503 C481 0.950 1_565 S
C504 C505 1.349 . S
C504 C506 1.327 . S
C504 H529 0.950 . S
C505 C504 1.349 . S
C505 C521 1.323 1_655 S
C506 C504 1.327 . S
C506 C525 1.429 1_655 S
C506 H530 0.950 . S
C507 C524 1.574 . S
C507 C526 1.368 . S
C507 H531 0.949 . S
H508 C512 0.949 . S
C509 C510 1.349 . S
C509 C511 1.327 . S
C509 H532 0.950 . S
C510 C509 1.349 . S
C510 C522 1.349 . S
C511 C509 1.327 . S
C511 C527 1.429 . S
C511 H533 0.950 . S
C512 H508 0.949 . S
C512 C520 1.574 . S
C512 C528 1.368 . S
H513 C521 0.974 . S
H514 C519 0.950 . S
H515 C520 0.931 1_655 S
H516 C522 0.950 . S
H517 C523 0.950 . S
H518 C524 0.949 . S
C519 H514 0.950 . S
C519 C521 1.332 . S
C519 C525 1.429 . S
C520 C512 1.574 . S
C520 H515 0.931 1_455 S
C520 C526 1.368 . S
C521 C505 1.323 1_455 S
C521 H513 0.974 . S
C521 C519 1.332 . S
C522 C510 1.349 . S
C522 H516 0.950 . S
C522 C523 1.327 . S
C523 H517 0.950 . S
C523 C522 1.327 . S
C523 C527 1.429 . S
C524 C507 1.574 . S
C524 H518 0.949 . S
C524 C528 1.368 . S
C525 C506 1.429 1_455 S
C525 C519 1.429 . S
C525 C526 1.523 . S
C526 C507 1.368 . S
C526 C520 1.368 . S
C526 C525 1.523 . S
C527 C511 1.429 . S
C527 C523 1.429 . S
C527 C528 1.523 . S
C528 C512 1.368 . S
C528 C524 1.368 . S
C528 C527 1.523 . S
H529 C504 0.950 . S
H530 C506 0.950 . S
H531 C507 0.949 . S
H532 C509 0.950 . S
H533 C511 0.950 . S
C534 C535 1.349 . S
C534 C536 1.327 . S
C534 H559 0.950 . S
C535 C534 1.349 . S
C535 C551 1.349 . S
C536 C534 1.327 . S
C536 C555 1.429 . S
C536 H560 0.950 . S
C537 C554 1.574 . S
C537 C556 1.368 . S
C537 H561 0.949 . S
H538 C542 0.949 . S
C539 C540 1.349 . S
C539 C541 1.327 . S
C539 H562 0.950 . S
C540 C539 1.349 . S
C540 C552 1.349 . S
C541 C539 1.327 . S
C541 C557 1.429 . S
C541 H563 0.950 . S
C542 H538 0.949 . S
C542 C550 1.574 . S
C542 C558 1.368 . S
H543 C551 0.950 . S
H544 C549 0.950 . S
H545 C550 0.949 . S
H546 C552 0.950 . S
H547 C553 0.950 . S
H548 C554 0.949 . S
C549 H544 0.950 . S
C549 C551 1.327 . S
C549 C555 1.429 . S
C550 C542 1.574 . S
C550 H545 0.949 . S
C550 C556 1.368 . S
C551 C535 1.349 . S
C551 H543 0.950 . S
C551 C549 1.327 . S
C552 C540 1.349 . S
C552 H546 0.950 . S
C552 C553 1.327 . S
C553 H547 0.950 . S
C553 C552 1.327 . S
C553 C557 1.429 . S
C554 C537 1.574 . S
C554 H548 0.949 . S
C554 C558 1.368 . S
C555 C536 1.429 . S
C555 C549 1.429 . S
C555 C556 1.523 . S
C556 C537 1.368 . S
C556 C550 1.368 . S
C556 C555 1.523 . S
C557 C541 1.429 . S
C557 C553 1.429 . S
C557 C558 1.523 . S
C558 C542 1.368 . S
C558 C554 1.368 . S
C558 C557 1.523 . S
H559 C534 0.950 . S
H560 C536 0.950 . S
H561 C537 0.949 . S
H562 C539 0.950 . S
H563 C541 0.950 . S
C564 C565 1.349 . S
C564 C566 1.327 . S
C564 H589 0.950 . S
C565 C564 1.349 . S
C565 C581 1.349 1_545 S
C566 C564 1.327 . S
C566 C585 1.429 . S
C566 H590 0.950 . S
C567 C584 1.573 1_565 S
C567 C586 1.354 1_565 S
C567 H591 0.964 . S
H568 C572 0.949 . S
C569 C570 1.349 . S
C569 C571 1.327 . S
C569 H592 0.950 1_545 S
C570 C569 1.349 . S
C570 C582 1.349 . S
C571 C569 1.327 . S
C571 C587 1.429 . S
C571 H593 0.950 1_545 S
C572 H568 0.949 . S
C572 C580 1.574 . S
C572 C588 1.368 . S
H573 C581 0.950 . S
H574 C579 0.950 . S
H575 C580 0.949 . S
H576 C582 0.950 . S
H577 C583 0.950 . S
H578 C584 0.950 1_565 S
C579 H574 0.950 . S
C579 C581 1.327 . S
C579 C585 1.429 1_565 S
C580 C572 1.574 . S
C580 H575 0.949 . S
C580 C586 1.368 . S
C581 C565 1.349 1_565 S
C581 H573 0.950 . S
C581 C579 1.327 . S
C582 C570 1.349 . S
C582 H576 0.950 . S
C582 C583 1.327 . S
C583 H577 0.950 . S
C583 C582 1.327 . S
C583 C587 1.429 . S
C584 C567 1.573 1_545 S
C584 H578 0.950 1_545 S
C584 C588 1.367 . S
C585 C566 1.429 . S
C585 C579 1.429 1_545 S
C585 C586 1.523 . S
C586 C567 1.354 1_545 S
C586 C580 1.368 . S
C586 C585 1.523 . S
C587 C571 1.429 . S
C587 C583 1.429 . S
C587 C588 1.523 . S
C588 C572 1.368 . S
C588 C584 1.367 . S
C588 C587 1.523 . S
H589 C564 0.950 . S
H590 C566 0.950 . S
H591 C567 0.964 . S
H592 C569 0.950 1_565 S
H593 C571 0.950 1_565 S
C594 C595 1.349 . S
C594 C596 1.327 . S
C594 H619 0.950 . S
C595 C594 1.349 . S
C595 C611 1.349 . S
C596 C594 1.327 . S
C596 C615 1.429 . S
C596 H620 0.950 . S
C597 C614 1.574 . S
C597 C616 1.368 . S
C597 H621 0.949 . S
H598 C602 0.949 . S
C599 C600 1.349 . S
C599 C601 1.327 . S
C599 H622 0.950 . S
C600 C599 1.349 . S
C600 C612 1.349 . S
C601 C599 1.327 . S
C601 C617 1.429 . S
C601 H623 0.950 . S
C602 H598 0.949 . S
C602 C610 1.574 . S
C602 C618 1.368 . S
H603 C611 0.950 . S
H604 C609 0.950 . S
H605 C610 0.949 . S
H606 C612 0.950 . S
H607 C613 0.950 . S
H608 C614 0.949 . S
C609 H604 0.950 . S
C609 C611 1.327 . S
C609 C615 1.429 . S
C610 C602 1.574 . S
C610 H605 0.949 . S
C610 C616 1.368 . S
C611 C595 1.349 . S
C611 H603 0.950 . S
C611 C609 1.327 . S
C612 C600 1.349 . S
C612 H606 0.950 . S
C612 C613 1.327 . S
C613 H607 0.950 . S
C613 C612 1.327 . S
C613 C617 1.429 . S
C614 C597 1.574 . S
C614 H608 0.949 . S
C614 C618 1.368 . S
C615 C596 1.429 . S
C615 C609 1.429 . S
C615 C616 1.523 . S
C616 C597 1.368 . S
C616 C610 1.368 . S
C616 C615 1.523 . S
C617 C601 1.429 . S
C617 C613 1.429 . S
C617 C618 1.523 . S
C618 C602 1.368 . S
C618 C614 1.368 . S
C618 C617 1.523 . S
H619 C594 0.950 . S
H620 C596 0.950 . S
H621 C597 0.949 . S
H622 C599 0.950 . S
H623 C601 0.950 . S
C624 C625 1.349 . S
C624 C626 1.327 . S
C624 H649 0.950 . S
C625 C624 1.349 . S
C625 C641 1.349 . S
C626 C624 1.327 . S
C626 C645 1.429 . S
C626 H650 0.950 . S
C627 C644 1.574 . S
C627 C646 1.368 . S
C627 H651 0.949 . S
H628 C632 0.949 . S
C629 C630 1.349 . S
C629 C631 1.327 . S
C629 H652 0.950 . S
C630 C629 1.349 . S
C630 C642 1.349 . S
C631 C629 1.327 . S
C631 C647 1.429 . S
C631 H653 0.950 . S
C632 H628 0.949 . S
C632 C640 1.574 . S
C632 C648 1.368 . S
H633 C641 0.950 . S
H634 C639 0.950 . S
H635 C640 0.949 . S
H636 C642 0.950 . S
H637 C643 0.950 . S
H638 C644 0.949 . S
C639 H634 0.950 . S
C639 C641 1.327 . S
C639 C645 1.429 . S
C640 C632 1.574 . S
C640 H635 0.949 . S
C640 C646 1.368 . S
C641 C625 1.349 . S
C641 H633 0.950 . S
C641 C639 1.327 . S
C642 C630 1.349 . S
C642 H636 0.950 . S
C642 C643 1.327 . S
C643 H637 0.950 . S
C643 C642 1.327 . S
C643 C647 1.429 . S
C644 C627 1.574 . S
C644 H638 0.949 . S
C644 C648 1.368 . S
C645 C626 1.429 . S
C645 C639 1.429 . S
C645 C646 1.523 . S
C646 C627 1.368 . S
C646 C640 1.368 . S
C646 C645 1.523 . S
C647 C631 1.429 . S
C647 C643 1.429 . S
C647 C648 1.523 . S
C648 C632 1.368 . S
C648 C644 1.368 . S
C648 C647 1.523 . S
H649 C624 0.950 . S
H650 C626 0.950 . S
H651 C627 0.949 . S
H652 C629 0.950 . S
H653 C631 0.950 . S
C654 C655 1.349 . S
C654 C656 1.327 . S
C654 H679 0.950 . S
C655 C654 1.349 . S
C655 C671 1.349 . S
C656 C654 1.327 . S
C656 C675 1.429 . S
C656 H680 0.950 . S
C657 C674 1.574 . S
C657 C676 1.368 . S
C657 H681 0.949 . S
H658 C662 0.949 . S
C659 C660 1.349 . S
C659 C661 1.327 . S
C659 H682 0.950 . S
C660 C659 1.349 . S
C660 C672 1.349 . S
C661 C659 1.327 . S
C661 C677 1.429 . S
C661 H683 0.950 . S
C662 H658 0.949 . S
C662 C670 1.574 . S
C662 C678 1.368 . S
H663 C671 0.950 . S
H664 C669 0.950 . S
H665 C670 0.949 . S
H666 C672 0.950 . S
H667 C673 0.950 . S
H668 C674 0.949 . S
C669 H664 0.950 . S
C669 C671 1.327 . S
C669 C675 1.429 . S
C670 C662 1.574 . S
C670 H665 0.949 . S
C670 C676 1.368 . S
C671 C655 1.349 . S
C671 H663 0.950 . S
C671 C669 1.327 . S
C672 C660 1.349 . S
C672 H666 0.950 . S
C672 C673 1.327 . S
C673 H667 0.950 . S
C673 C672 1.327 . S
C673 C677 1.429 . S
C674 C657 1.574 . S
C674 H668 0.949 . S
C674 C678 1.368 . S
C675 C656 1.429 . S
C675 C669 1.429 . S
C675 C676 1.523 . S
C676 C657 1.368 . S
C676 C670 1.368 . S
C676 C675 1.523 . S
C677 C661 1.429 . S
C677 C673 1.429 . S
C677 C678 1.523 . S
C678 C662 1.368 . S
C678 C674 1.368 . S
C678 C677 1.523 . S
H679 C654 0.950 . S
H680 C656 0.950 . S
H681 C657 0.949 . S
H682 C659 0.950 . S
H683 C661 0.950 . S
C684 C685 1.349 . S
C684 C686 1.327 . S
C684 H709 0.950 . S
C685 C684 1.349 . S
C685 C701 1.349 . S
C686 C684 1.327 . S
C686 C705 1.429 . S
C686 H710 0.950 . S
C687 C704 1.574 . S
C687 C706 1.368 . S
C687 H711 0.949 . S
H688 C692 0.949 . S
C689 C690 1.349 . S
C689 C691 1.327 1_556 S
C689 H712 0.950 . S
C690 C689 1.349 . S
C690 C702 1.349 . S
C691 C689 1.327 1_554 S
C691 C707 1.429 . S
C691 H713 0.950 . S
C692 H688 0.949 . S
C692 C700 1.574 . S
C692 C708 1.368 . S
H693 C701 0.950 . S
H694 C699 0.950 . S
H695 C700 0.949 . S
H696 C702 0.950 . S
H697 C703 0.950 . S
H698 C704 0.949 . S
C699 H694 0.950 . S
C699 C701 1.327 . S
C699 C705 1.429 . S
C700 C692 1.574 . S
C700 H695 0.949 . S
C700 C706 1.368 . S
C701 C685 1.349 . S
C701 H693 0.950 . S
C701 C699 1.327 . S
C702 C690 1.349 . S
C702 H696 0.950 . S
C702 C703 1.327 1_556 S
C703 H697 0.950 . S
C703 C702 1.327 1_554 S
C703 C707 1.429 . S
C704 C687 1.574 . S
C704 H698 0.949 . S
C704 C708 1.368 . S
C705 C686 1.429 . S
C705 C699 1.429 . S
C705 C706 1.523 . S
C706 C687 1.368 . S
C706 C700 1.368 . S
C706 C705 1.523 . S
C707 C691 1.429 . S
C707 C703 1.429 . S
C707 C708 1.523 . S
C708 C692 1.368 . S
C708 C704 1.368 . S
C708 C707 1.523 . S
H709 C684 0.950 . S
H710 C686 0.950 . S
H711 C687 0.949 . S
H712 C689 0.950 . S
H713 C691 0.950 . S
C714 C715 1.349 . S
C714 C716 1.327 1_556 S
C714 H739 0.950 . S
C715 C714 1.349 . S
C715 C731 1.349 . S
C716 C714 1.327 1_554 S
C716 C735 1.429 . S
C716 H740 0.950 . S
C717 C734 1.574 . S
C717 C736 1.368 . S
C717 H741 0.949 . S
H718 C722 0.949 . S
C719 C720 1.349 . S
C719 C721 1.327 . S
C719 H742 0.950 . S
C720 C719 1.349 . S
C720 C732 1.349 . S
C721 C719 1.327 . S
C721 C737 1.429 . S
C721 H743 0.950 . S
C722 H718 0.949 . S
C722 C730 1.574 . S
C722 C738 1.368 . S
H723 C731 0.950 . S
H724 C729 0.950 . S
H725 C730 0.949 . S
H726 C732 0.950 . S
H727 C733 0.950 . S
H728 C734 0.949 . S
C729 H724 0.950 . S
C729 C731 1.327 1_554 S
C729 C735 1.429 . S
C730 C722 1.574 . S
C730 H725 0.949 . S
C730 C736 1.368 . S
C731 C715 1.349 . S
C731 H723 0.950 . S
C731 C729 1.327 1_556 S
C732 C720 1.349 . S
C732 H726 0.950 . S
C732 C733 1.327 . S
C733 H727 0.950 . S
C733 C732 1.327 . S
C733 C737 1.429 . S
C734 C717 1.574 . S
C734 H728 0.949 . S
C734 C738 1.368 . S
C735 C716 1.429 . S
C735 C729 1.429 . S
C735 C736 1.523 . S
C736 C717 1.368 . S
C736 C730 1.368 . S
C736 C735 1.523 . S
C737 C721 1.429 . S
C737 C733 1.429 . S
C737 C738 1.523 . S
C738 C722 1.368 . S
C738 C734 1.368 . S
C738 C737 1.523 . S
H739 C714 0.950 . S
H740 C716 0.950 . S
H741 C717 0.949 . S
H742 C719 0.950 . S
H743 C721 0.950 . S
C744 C745 1.349 . S
C744 C746 1.327 1_556 S
C744 H769 0.950 . S
C745 C744 1.349 . S
C745 C761 1.349 . S
C746 C744 1.327 1_554 S
C746 C765 1.429 . S
C746 H770 0.950 . S
C747 C764 1.574 . S
C747 C766 1.368 . S
C747 H771 0.949 . S
H748 C752 0.949 . S
C749 C750 1.349 . S
C749 C751 1.327 . S
C749 H772 0.950 . S
C750 C749 1.349 . S
C750 C762 1.349 . S
C751 C749 1.327 . S
C751 C767 1.429 . S
C751 H773 0.950 . S
C752 H748 0.949 . S
C752 C760 1.574 . S
C752 C768 1.368 . S
H753 C761 0.950 . S
H754 C759 0.950 . S
H755 C760 0.949 . S
H756 C762 0.950 . S
H757 C763 0.950 . S
H758 C764 0.949 . S
C759 H754 0.950 . S
C759 C761 1.327 1_554 S
C759 C765 1.429 . S
C760 C752 1.574 . S
C760 H755 0.949 . S
C760 C766 1.368 . S
C761 C745 1.349 . S
C761 H753 0.950 . S
C761 C759 1.327 1_556 S
C762 C750 1.349 . S
C762 H756 0.950 . S
C762 C763 1.327 . S
C763 H757 0.950 . S
C763 C762 1.327 . S
C763 C767 1.429 . S
C764 C747 1.574 . S
C764 H758 0.949 . S
C764 C768 1.368 . S
C765 C746 1.429 . S
C765 C759 1.429 . S
C765 C766 1.523 . S
C766 C747 1.368 . S
C766 C760 1.368 . S
C766 C765 1.523 . S
C767 C751 1.429 . S
C767 C763 1.429 . S
C767 C768 1.523 . S
C768 C752 1.368 . S
C768 C764 1.368 . S
C768 C767 1.523 . S
H769 C744 0.950 . S
H770 C746 0.950 . S
H771 C747 0.949 . S
H772 C749 0.950 . S
H773 C751 0.950 . S
C774 C775 1.349 . S
C774 C776 1.327 . S
C774 H799 0.950 . S
C775 C774 1.349 . S
C775 C791 1.349 . S
C776 C774 1.327 . S
C776 C795 1.429 1_554 S
C776 H800 0.950 . S
C777 C794 1.574 . S
C777 C796 1.368 . S
C777 H801 0.949 . S
H778 C782 0.949 . S
C779 C780 1.349 . S
C779 C781 1.327 . S
C779 H802 0.950 . S
C780 C779 1.349 . S
C780 C792 1.349 . S
C781 C779 1.327 . S
C781 C797 1.429 . S
C781 H803 0.950 . S
C782 H778 0.949 . S
C782 C790 1.574 . S
C782 C798 1.368 . S
H783 C791 0.950 . S
H784 C789 0.950 1_556 S
H785 C790 0.949 . S
H786 C792 0.950 . S
H787 C793 0.950 . S
H788 C794 0.949 . S
C789 H784 0.950 1_554 S
C789 C791 1.327 . S
C789 C795 1.429 1_554 S
C790 C782 1.574 . S
C790 H785 0.949 . S
C790 C796 1.368 . S
C791 C775 1.349 . S
C791 H783 0.950 . S
C791 C789 1.327 . S
C792 C780 1.349 . S
C792 H786 0.950 . S
C792 C793 1.327 . S
C793 H787 0.950 . S
C793 C792 1.327 . S
C793 C797 1.429 . S
C794 C777 1.574 . S
C794 H788 0.949 . S
C794 C798 1.368 . S
C795 C776 1.429 1_556 S
C795 C789 1.429 1_556 S
C795 C796 1.523 . S
C796 C777 1.368 . S
C796 C790 1.368 . S
C796 C795 1.523 . S
C797 C781 1.429 . S
C797 C793 1.429 . S
C797 C798 1.523 . S
C798 C782 1.368 . S
C798 C794 1.368 . S
C798 C797 1.523 . S
H799 C774 0.950 . S
H800 C776 0.950 . S
H801 C777 0.949 . S
H802 C779 0.950 . S
H803 C781 0.950 . S
C804 C805 1.349 . S
C804 C806 1.327 . S
C804 H829 0.950 . S
C805 C804 1.349 . S
C805 C821 1.349 . S
C806 C804 1.327 . S
C806 C825 1.429 . S
C806 H830 0.950 . S
C807 C824 1.574 . S
C807 C826 1.368 . S
C807 H831 0.949 . S
H808 C812 0.949 . S
C809 C810 1.349 . S
C809 C811 1.327 1_554 S
C809 H832 0.950 . S
C810 C809 1.349 . S
C810 C822 1.349 . S
C811 C809 1.327 1_556 S
C811 C827 1.429 . S
C811 H833 0.950 . S
C812 H808 0.949 . S
C812 C820 1.574 . S
C812 C828 1.368 . S
H813 C821 0.950 . S
H814 C819 0.950 . S
H815 C820 0.949 . S
H816 C822 0.950 . S
H817 C823 0.950 . S
H818 C824 0.949 . S
C819 H814 0.950 . S
C819 C821 1.327 . S
C819 C825 1.429 . S
C820 C812 1.574 . S
C820 H815 0.949 . S
C820 C826 1.368 . S
C821 C805 1.349 . S
C821 H813 0.950 . S
C821 C819 1.327 . S
C822 C810 1.349 . S
C822 H816 0.950 . S
C822 C823 1.327 1_554 S
C823 H817 0.950 . S
C823 C822 1.327 1_556 S
C823 C827 1.429 . S
C824 C807 1.574 . S
C824 H818 0.949 . S
C824 C828 1.368 . S
C825 C806 1.429 . S
C825 C819 1.429 . S
C825 C826 1.523 . S
C826 C807 1.368 . S
C826 C820 1.368 . S
C826 C825 1.523 . S
C827 C811 1.429 . S
C827 C823 1.429 . S
C827 C828 1.523 . S
C828 C812 1.368 . S
C828 C824 1.368 . S
C828 C827 1.523 . S
H829 C804 0.950 . S
H830 C806 0.950 . S
H831 C807 0.949 . S
H832 C809 0.950 . S
H833 C811 0.950 . S
C834 C835 1.349 . S
C834 C836 1.327 . S
C834 H859 0.950 . S
C835 C834 1.349 . S
C835 C851 1.349 . S
C836 C834 1.327 . S
C836 C855 1.429 1_554 S
C836 H860 0.950 1_554 S
C837 C854 1.574 . S
C837 C856 1.368 . S
C837 H861 0.949 . S
H838 C842 0.949 . S
C839 C840 1.349 . S
C839 C841 1.327 . S
C839 H862 0.950 . S
C840 C839 1.349 . S
C840 C852 1.349 . S
C841 C839 1.327 . S
C841 C857 1.429 . S
C841 H863 0.950 . S
C842 H838 0.949 . S
C842 C850 1.574 . S
C842 C858 1.368 . S
H843 C851 0.950 . S
H844 C849 0.950 1_556 S
H845 C850 0.949 . S
H846 C852 0.950 . S
H847 C853 0.950 . S
H848 C854 0.949 . S
C849 H844 0.950 1_554 S
C849 C851 1.327 . S
C849 C855 1.429 1_554 S
C850 C842 1.574 . S
C850 H845 0.949 . S
C850 C856 1.368 . S
C851 C835 1.349 . S
C851 H843 0.950 . S
C851 C849 1.327 . S
C852 C840 1.349 . S
C852 H846 0.950 . S
C852 C853 1.327 . S
C853 H847 0.950 . S
C853 C852 1.327 . S
C853 C857 1.429 . S
C854 C837 1.574 . S
C854 H848 0.949 . S
C854 C858 1.368 . S
C855 C836 1.429 1_556 S
C855 C849 1.429 1_556 S
C855 C856 1.523 . S
C856 C837 1.368 . S
C856 C850 1.368 . S
C856 C855 1.523 . S
C857 C841 1.429 . S
C857 C853 1.429 . S
C857 C858 1.523 . S
C858 C842 1.368 . S
C858 C854 1.368 . S
C858 C857 1.523 . S
H859 C834 0.950 . S
H860 C836 0.950 1_556 S
H861 C837 0.949 . S
H862 C839 0.950 . S
H863 C841 0.950 . S
C864 C865 1.349 . S
C864 C866 1.327 . S
C864 H889 0.950 . S
C865 C864 1.349 . S
C865 C881 1.349 . S
C866 C864 1.327 . S
C866 C885 1.429 . S
C866 H890 0.950 . S
C867 C884 1.574 . S
C867 C886 1.368 . S
C867 H891 0.949 . S
H868 C872 0.949 . S
C869 C870 1.349 . S
C869 C871 1.327 . S
C869 H892 0.950 . S
C870 C869 1.349 . S
C870 C882 1.349 . S
C871 C869 1.327 . S
C871 C887 1.429 . S
C871 H893 0.950 . S
C872 H868 0.949 . S
C872 C880 1.574 . S
C872 C888 1.368 . S
H873 C881 0.950 . S
H874 C879 0.950 . S
H875 C880 0.949 . S
H876 C882 0.950 . S
H877 C883 0.950 . S
H878 C884 0.949 . S
C879 H874 0.950 . S
C879 C881 1.327 . S
C879 C885 1.429 . S
C880 C872 1.574 . S
C880 H875 0.949 . S
C880 C886 1.368 . S
C881 C865 1.349 . S
C881 H873 0.950 . S
C881 C879 1.327 . S
C882 C870 1.349 . S
C882 H876 0.950 . S
C882 C883 1.327 . S
C883 H877 0.950 . S
C883 C882 1.327 . S
C883 C887 1.429 . S
C884 C867 1.574 . S
C884 H878 0.949 . S
C884 C888 1.368 . S
C885 C866 1.429 . S
C885 C879 1.429 . S
C885 C886 1.523 . S
C886 C867 1.368 . S
C886 C880 1.368 . S
C886 C885 1.523 . S
C887 C871 1.429 . S
C887 C883 1.429 . S
C887 C888 1.523 . S
C888 C872 1.368 . S
C888 C884 1.368 . S
C888 C887 1.523 . S
H889 C864 0.950 . S
H890 C866 0.950 . S
H891 C867 0.949 . S
H892 C869 0.950 . S
H893 C871 0.950 . S
C894 C895 1.349 . S
C894 C896 1.327 . S
C894 H919 0.950 . S
C895 C894 1.349 . S
C895 C911 1.349 . S
C896 C894 1.327 . S
C896 C915 1.429 . S
C896 H920 0.950 . S
C897 C914 1.574 . S
C897 C916 1.368 . S
C897 H921 0.949 . S
H898 C902 0.949 . S
C899 C900 1.349 . S
C899 C901 1.327 . S
C899 H922 0.950 . S
C900 C899 1.349 . S
C900 C912 1.349 . S
C901 C899 1.327 . S
C901 C917 1.429 . S
C901 H923 0.950 . S
C902 H898 0.949 . S
C902 C910 1.574 . S
C902 C918 1.368 . S
H903 C911 0.950 . S
H904 C909 0.950 . S
H905 C910 0.949 . S
H906 C912 0.950 . S
H907 C913 0.950 . S
H908 C914 0.949 . S
C909 H904 0.950 . S
C909 C911 1.327 . S
C909 C915 1.429 . S
C910 C902 1.574 . S
C910 H905 0.949 . S
C910 C916 1.368 . S
C911 C895 1.349 . S
C911 H903 0.950 . S
C911 C909 1.327 . S
C912 C900 1.349 . S
C912 H906 0.950 . S
C912 C913 1.327 . S
C913 H907 0.950 . S
C913 C912 1.327 . S
C913 C917 1.429 . S
C914 C897 1.574 . S
C914 H908 0.949 . S
C914 C918 1.368 . S
C915 C896 1.429 . S
C915 C909 1.429 . S
C915 C916 1.523 . S
C916 C897 1.368 . S
C916 C910 1.368 . S
C916 C915 1.523 . S
C917 C901 1.429 . S
C917 C913 1.429 . S
C917 C918 1.523 . S
C918 C902 1.368 . S
C918 C914 1.368 . S
C918 C917 1.523 . S
H919 C894 0.950 . S
H920 C896 0.950 . S
H921 C897 0.949 . S
H922 C899 0.950 . S
H923 C901 0.950 . S
C924 C925 1.349 . S
C924 C926 1.327 . S
C924 H949 0.950 . S
C925 C924 1.349 . S
C925 C941 1.349 . S
C926 C924 1.327 . S
C926 C945 1.429 . S
C926 H950 0.950 . S
C927 C944 1.574 . S
C927 C946 1.368 . S
C927 H951 0.949 . S
H928 C932 0.949 . S
C929 C930 1.349 . S
C929 C931 1.327 . S
C929 H952 0.950 . S
C930 C929 1.349 . S
C930 C942 1.349 . S
C931 C929 1.327 . S
C931 C947 1.429 . S
C931 H953 0.950 . S
C932 H928 0.949 . S
C932 C940 1.574 . S
C932 C948 1.368 . S
H933 C941 0.950 . S
H934 C939 0.950 . S
H935 C940 0.949 . S
H936 C942 0.950 . S
H937 C943 0.950 . S
H938 C944 0.949 . S
C939 H934 0.950 . S
C939 C941 1.327 . S
C939 C945 1.429 . S
C940 C932 1.574 . S
C940 H935 0.949 . S
C940 C946 1.368 . S
C941 C925 1.349 . S
C941 H933 0.950 . S
C941 C939 1.327 . S
C942 C930 1.349 . S
C942 H936 0.950 . S
C942 C943 1.327 . S
C943 H937 0.950 . S
C943 C942 1.327 . S
C943 C947 1.429 . S
C944 C927 1.574 . S
C944 H938 0.949 . S
C944 C948 1.368 . S
C945 C926 1.429 . S
C945 C939 1.429 . S
C945 C946 1.523 . S
C946 C927 1.368 . S
C946 C940 1.368 . S
C946 C945 1.523 . S
C947 C931 1.429 . S
C947 C943 1.429 . S
C947 C948 1.523 . S
C948 C932 1.368 . S
C948 C944 1.368 . S
C948 C947 1.523 . S
H949 C924 0.950 . S
H950 C926 0.950 . S
H951 C927 0.949 . S
H952 C929 0.950 . S
H953 C931 0.950 . S
C954 C955 1.349 . S
C954 C956 1.327 . S
C954 H979 0.950 . S
C955 C954 1.349 . S
C955 C971 1.349 . S
C956 C954 1.327 . S
C956 C975 1.429 . S
C956 H980 0.950 . S
C957 C974 1.574 . S
C957 C976 1.368 . S
C957 H981 0.949 . S
H958 C962 0.949 . S
C959 C960 1.349 . S
C959 C961 1.327 . S
C959 H982 0.950 . S
C960 C959 1.349 . S
C960 C972 1.349 . S
C961 C959 1.327 . S
C961 C977 1.429 . S
C961 H983 0.950 . S
C962 H958 0.949 . S
C962 C970 1.574 . S
C962 C978 1.368 . S
H963 C971 0.950 . S
H964 C969 0.950 . S
H965 C970 0.949 . S
H966 C972 0.950 . S
H967 C973 0.950 . S
H968 C974 0.949 . S
C969 H964 0.950 . S
C969 C971 1.327 . S
C969 C975 1.429 . S
C970 C962 1.574 . S
C970 H965 0.949 . S
C970 C976 1.368 . S
C971 C955 1.349 . S
C971 H963 0.950 . S
C971 C969 1.327 . S
C972 C960 1.349 . S
C972 H966 0.950 . S
C972 C973 1.327 . S
C973 H967 0.950 . S
C973 C972 1.327 . S
C973 C977 1.429 . S
C974 C957 1.574 . S
C974 H968 0.949 . S
C974 C978 1.368 . S
C975 C956 1.429 . S
C975 C969 1.429 . S
C975 C976 1.523 . S
C976 C957 1.368 . S
C976 C970 1.368 . S
C976 C975 1.523 . S
C977 C961 1.429 . S
C977 C973 1.429 . S
C977 C978 1.523 . S
C978 C962 1.368 . S
C978 C974 1.368 . S
C978 C977 1.523 . S
H979 C954 0.950 . S
H980 C956 0.950 . S
H981 C957 0.949 . S
H982 C959 0.950 . S
H983 C961 0.950 . S
C984 C985 1.349 . S
C984 C986 1.327 . S
C984 H1009 0.950 . S
C985 C984 1.349 . S
C985 C1001 1.349 . S
C986 C984 1.327 . S
C986 C1005 1.429 . S
C986 H1010 0.950 . S
C987 C1004 1.574 . S
C987 C1006 1.368 . S
C987 H1011 0.949 . S
H988 C992 0.949 . S
C989 C990 1.349 . S
C989 C991 1.327 . S
C989 H1012 0.950 1_556 S
C990 C989 1.349 . S
C990 C1002 1.349 . S
C991 C989 1.327 . S
C991 C1007 1.429 . S
C991 H1013 0.950 . S
C992 H988 0.949 . S
C992 C1000 1.574 . S
C992 C1008 1.368 . S
H993 C1001 0.950 . S
H994 C999 0.950 . S
H995 C1000 0.949 . S
H996 C1002 0.950 . S
H997 C1003 0.950 . S
H998 C1004 0.949 . S
C999 H994 0.950 . S
C999 C1001 1.327 . S
C999 C1005 1.429 . S
C1000 C992 1.574 . S
C1000 H995 0.949 . S
C1000 C1006 1.368 . S
C1001 C985 1.349 . S
C1001 H993 0.950 . S
C1001 C999 1.327 . S
C1002 C990 1.349 . S
C1002 H996 0.950 . S
C1002 C1003 1.327 . S
C1003 H997 0.950 . S
C1003 C1002 1.327 . S
C1003 C1007 1.429 . S
C1004 C987 1.574 . S
C1004 H998 0.949 . S
C1004 C1008 1.368 . S
C1005 C986 1.429 . S
C1005 C999 1.429 . S
C1005 C1006 1.523 . S
C1006 C987 1.368 . S
C1006 C1000 1.368 . S
C1006 C1005 1.523 . S
C1007 C991 1.429 . S
C1007 C1003 1.429 . S
C1007 C1008 1.523 . S
C1008 C992 1.368 . S
C1008 C1004 1.368 . S
C1008 C1007 1.523 . S
H1009 C984 0.950 . S
H1010 C986 0.950 . S
H1011 C987 0.949 . S
H1012 C989 0.950 1_554 S
H1013 C991 0.950 . S
C1014 C1015 1.349 . S
C1014 C1016 1.327 . S
C1014 H1039 0.950 . S
C1015 C1014 1.349 . S
C1015 C1031 1.349 . S
C1016 C1014 1.327 . S
C1016 C1035 1.429 . S
C1016 H1040 0.950 . S
C1017 C1034 1.574 . S
C1017 C1036 1.368 . S
C1017 H1041 0.949 . S
H1018 C1022 0.949 . S
C1019 C1020 1.349 . S
C1019 C1021 1.327 . S
C1019 H1042 0.950 1_565 S
C1020 C1019 1.349 . S
C1020 C1032 1.349 . S
C1021 C1019 1.327 . S
C1021 C1037 1.429 . S
C1021 H1043 0.950 . S
C1022 H1018 0.949 . S
C1022 C1030 1.574 . S
C1022 C1038 1.368 . S
H1023 C1031 0.950 . S
H1024 C1029 0.950 . S
H1025 C1030 0.949 . S
H1026 C1032 0.950 . S
H1027 C1033 0.950 . S
H1028 C1034 0.949 . S
C1029 H1024 0.950 . S
C1029 C1031 1.327 . S
C1029 C1035 1.429 . S
C1030 C1022 1.574 . S
C1030 H1025 0.949 . S
C1030 C1036 1.368 . S
C1031 C1015 1.349 . S
C1031 H1023 0.950 . S
C1031 C1029 1.327 . S
C1032 C1020 1.349 . S
C1032 H1026 0.950 . S
C1032 C1033 1.327 . S
C1033 H1027 0.950 . S
C1033 C1032 1.327 . S
C1033 C1037 1.429 . S
C1034 C1017 1.574 . S
C1034 H1028 0.949 . S
C1034 C1038 1.368 . S
C1035 C1016 1.429 . S
C1035 C1029 1.429 . S
C1035 C1036 1.523 . S
C1036 C1017 1.368 . S
C1036 C1030 1.368 . S
C1036 C1035 1.523 . S
C1037 C1021 1.429 . S
C1037 C1033 1.429 . S
C1037 C1038 1.523 . S
C1038 C1022 1.368 . S
C1038 C1034 1.368 . S
C1038 C1037 1.523 . S
H1039 C1014 0.950 . S
H1040 C1016 0.950 . S
H1041 C1017 0.949 . S
H1042 C1019 0.950 1_545 S
H1043 C1021 0.950 . S
C1044 C1045 1.349 . S
C1044 C1046 1.327 . S
C1044 H1069 0.950 . S
C1045 C1044 1.349 . S
C1045 C1061 1.349 . S
C1046 C1044 1.327 . S
C1046 C1065 1.429 . S
C1046 H1070 0.950 . S
C1047 C1064 1.574 . S
C1047 C1066 1.368 . S
C1047 H1071 0.949 . S
H1048 C1052 0.949 . S
C1049 C1050 1.349 . S
C1049 C1051 1.327 . S
C1049 H1072 0.950 . S
C1050 C1049 1.349 . S
C1050 C1062 1.349 . S
C1051 C1049 1.327 . S
C1051 C1067 1.429 . S
C1051 H1073 0.950 . S
C1052 H1048 0.949 . S
C1052 C1060 1.574 . S
C1052 C1068 1.368 . S
H1053 C1061 0.950 . S
H1054 C1059 0.950 . S
H1055 C1060 0.949 . S
H1056 C1062 0.950 . S
H1057 C1063 0.950 . S
H1058 C1064 0.949 . S
C1059 H1054 0.950 . S
C1059 C1061 1.327 . S
C1059 C1065 1.429 . S
C1060 C1052 1.574 . S
C1060 H1055 0.949 . S
C1060 C1066 1.368 . S
C1061 C1045 1.349 . S
C1061 H1053 0.950 . S
C1061 C1059 1.327 . S
C1062 C1050 1.349 . S
C1062 H1056 0.950 . S
C1062 C1063 1.327 . S
C1063 H1057 0.950 . S
C1063 C1062 1.327 . S
C1063 C1067 1.429 . S
C1064 C1047 1.574 . S
C1064 H1058 0.949 . S
C1064 C1068 1.368 . S
C1065 C1046 1.429 . S
C1065 C1059 1.429 . S
C1065 C1066 1.523 . S
C1066 C1047 1.368 . S
C1066 C1060 1.368 . S
C1066 C1065 1.523 . S
C1067 C1051 1.429 . S
C1067 C1063 1.429 . S
C1067 C1068 1.523 . S
C1068 C1052 1.368 . S
C1068 C1064 1.368 . S
C1068 C1067 1.523 . S
H1069 C1044 0.950 . S
H1070 C1046 0.950 . S
H1071 C1047 0.949 . S
H1072 C1049 0.950 . S
H1073 C1051 0.950 . S
C1074 C1075 1.349 . S
C1074 C1076 1.327 . S
C1074 H1099 0.950 . S
C1075 C1074 1.349 . S
C1075 C1091 1.349 . S
C1076 C1074 1.327 . S
C1076 C1095 1.429 . S
C1076 H1100 0.950 . S
C1077 C1094 1.574 . S
C1077 C1096 1.368 . S
C1077 H1101 0.949 . S
H1078 C1082 0.949 . S
C1079 C1080 1.349 . S
C1079 C1081 1.327 . S
C1079 H1102 0.930 1_655 S
C1080 C1079 1.349 . S
C1080 C1092 1.349 . S
C1081 C1079 1.327 . S
C1081 C1097 1.429 . S
C1081 H1103 0.950 . S
C1082 H1078 0.949 . S
C1082 C1090 1.574 . S
C1082 C1098 1.368 . S
H1083 C1091 0.950 . S
H1084 C1089 0.950 . S
H1085 C1090 0.949 . S
H1086 C1092 0.950 . S
H1087 C1093 0.950 . S
H1088 C1094 0.949 . S
C1089 H1084 0.950 . S
C1089 C1091 1.327 . S
C1089 C1095 1.429 . S
C1090 C1082 1.574 . S
C1090 H1085 0.949 . S
C1090 C1096 1.368 . S
C1091 C1075 1.349 . S
C1091 H1083 0.950 . S
C1091 C1089 1.327 . S
C1092 C1080 1.349 . S
C1092 H1086 0.950 . S
C1092 C1093 1.327 . S
C1093 H1087 0.950 . S
C1093 C1092 1.327 . S
C1093 C1097 1.429 . S
C1094 C1077 1.574 . S
C1094 H1088 0.949 . S
C1094 C1098 1.368 . S
C1095 C1076 1.429 . S
C1095 C1089 1.429 . S
C1095 C1096 1.523 . S
C1096 C1077 1.368 . S
C1096 C1090 1.368 . S
C1096 C1095 1.523 . S
C1097 C1081 1.429 . S
C1097 C1093 1.429 . S
C1097 C1098 1.523 . S
C1098 C1082 1.368 . S
C1098 C1094 1.368 . S
C1098 C1097 1.523 . S
H1099 C1074 0.950 . S
H1100 C1076 0.950 . S
H1101 C1077 0.949 . S
H1102 C1079 0.930 1_455 S
H1103 C1081 0.950 . S
C1104 C1105 1.349 . S
C1104 C1106 1.327 . S
C1104 H1129 0.950 . S
C1105 C1104 1.349 . S
C1105 C1121 1.349 . S
C1106 C1104 1.327 . S
C1106 C1125 1.429 . S
C1106 H1130 0.950 . S
C1107 C1124 1.574 . S
C1107 C1126 1.368 . S
C1107 H1131 0.949 . S
H1108 C1112 0.949 . S
C1109 C1110 1.349 . S
C1109 C1111 1.327 . S
C1109 H1132 0.950 . S
C1110 C1109 1.349 . S
C1110 C1122 1.349 . S
C1111 C1109 1.327 . S
C1111 C1127 1.429 . S
C1111 H1133 0.950 . S
C1112 H1108 0.949 . S
C1112 C1120 1.574 . S
C1112 C1128 1.368 . S
H1113 C1121 0.950 . S
H1114 C1119 0.950 . S
H1115 C1120 0.949 . S
H1116 C1122 0.950 . S
H1117 C1123 0.950 . S
H1118 C1124 0.949 . S
C1119 H1114 0.950 . S
C1119 C1121 1.327 . S
C1119 C1125 1.429 . S
C1120 C1112 1.574 . S
C1120 H1115 0.949 . S
C1120 C1126 1.368 . S
C1121 C1105 1.349 . S
C1121 H1113 0.950 . S
C1121 C1119 1.327 . S
C1122 C1110 1.349 . S
C1122 H1116 0.950 . S
C1122 C1123 1.327 . S
C1123 H1117 0.950 . S
C1123 C1122 1.327 . S
C1123 C1127 1.429 . S
C1124 C1107 1.574 . S
C1124 H1118 0.949 . S
C1124 C1128 1.368 . S
C1125 C1106 1.429 . S
C1125 C1119 1.429 . S
C1125 C1126 1.523 . S
C1126 C1107 1.368 . S
C1126 C1120 1.368 . S
C1126 C1125 1.523 . S
C1127 C1111 1.429 . S
C1127 C1123 1.429 . S
C1127 C1128 1.523 . S
C1128 C1112 1.368 . S
C1128 C1124 1.368 . S
C1128 C1127 1.523 . S
H1129 C1104 0.950 . S
H1130 C1106 0.950 . S
H1131 C1107 0.949 . S
H1132 C1109 0.950 . S
H1133 C1111 0.950 . S
C1134 C1135 1.349 . S
C1134 C1136 1.327 . S
C1134 H1159 0.950 . S
C1135 C1134 1.349 . S
C1135 C1151 1.349 . S
C1136 C1134 1.327 . S
C1136 C1155 1.429 . S
C1136 H1160 0.950 . S
C1137 C1154 1.574 . S
C1137 C1156 1.368 . S
C1137 H1161 0.949 . S
H1138 C1142 0.949 . S
C1139 C1140 1.349 . S
C1139 C1141 1.327 . S
C1139 H1162 0.950 . S
C1140 C1139 1.349 . S
C1140 C1152 1.349 . S
C1141 C1139 1.327 . S
C1141 C1157 1.429 . S
C1141 H1163 0.950 . S
C1142 H1138 0.949 . S
C1142 C1150 1.574 . S
C1142 C1158 1.368 . S
H1143 C1151 0.950 . S
H1144 C1149 0.950 . S
H1145 C1150 0.949 . S
H1146 C1152 0.950 1_556 S
H1147 C1153 0.950 . S
H1148 C1154 0.949 . S
C1149 H1144 0.950 . S
C1149 C1151 1.327 . S
C1149 C1155 1.429 . S
C1150 C1142 1.574 . S
C1150 H1145 0.949 . S
C1150 C1156 1.368 . S
C1151 C1135 1.349 . S
C1151 H1143 0.950 . S
C1151 C1149 1.327 . S
C1152 C1140 1.349 . S
C1152 H1146 0.950 1_554 S
C1152 C1153 1.327 . S
C1153 H1147 0.950 . S
C1153 C1152 1.327 . S
C1153 C1157 1.429 . S
C1154 C1137 1.574 . S
C1154 H1148 0.949 . S
C1154 C1158 1.368 . S
C1155 C1136 1.429 . S
C1155 C1149 1.429 . S
C1155 C1156 1.523 . S
C1156 C1137 1.368 . S
C1156 C1150 1.368 . S
C1156 C1155 1.523 . S
C1157 C1141 1.429 . S
C1157 C1153 1.429 . S
C1157 C1158 1.523 . S
C1158 C1142 1.368 . S
C1158 C1154 1.368 . S
C1158 C1157 1.523 . S
H1159 C1134 0.950 . S
H1160 C1136 0.950 . S
H1161 C1137 0.949 . S
H1162 C1139 0.950 . S
H1163 C1141 0.950 . S
C1164 C1165 1.349 . S
C1164 C1166 1.327 . S
C1164 H1189 0.950 . S
C1165 C1164 1.349 . S
C1165 C1181 1.349 . S
C1166 C1164 1.327 . S
C1166 C1185 1.429 . S
C1166 H1190 0.950 . S
C1167 C1184 1.574 . S
C1167 C1186 1.368 . S
C1167 H1191 0.949 . S
H1168 C1172 0.949 . S
C1169 C1170 1.349 . S
C1169 C1171 1.327 . S
C1169 H1192 0.950 . S
C1170 C1169 1.349 . S
C1170 C1182 1.349 . S
C1171 C1169 1.327 . S
C1171 C1187 1.429 . S
C1171 H1193 0.950 . S
C1172 H1168 0.949 . S
C1172 C1180 1.574 . S
C1172 C1188 1.368 . S
H1173 C1181 0.950 . S
H1174 C1179 0.950 . S
H1175 C1180 0.949 . S
H1176 C1182 0.950 . S
H1177 C1183 0.950 . S
H1178 C1184 0.949 . S
C1179 H1174 0.950 . S
C1179 C1181 1.327 . S
C1179 C1185 1.429 . S
C1180 C1172 1.574 . S
C1180 H1175 0.949 . S
C1180 C1186 1.368 . S
C1181 C1165 1.349 . S
C1181 H1173 0.950 . S
C1181 C1179 1.327 . S
C1182 C1170 1.349 . S
C1182 H1176 0.950 . S
C1182 C1183 1.327 . S
C1183 H1177 0.950 . S
C1183 C1182 1.327 . S
C1183 C1187 1.429 . S
C1184 C1167 1.574 . S
C1184 H1178 0.949 . S
C1184 C1188 1.368 . S
C1185 C1166 1.429 . S
C1185 C1179 1.429 . S
C1185 C1186 1.523 . S
C1186 C1167 1.368 . S
C1186 C1180 1.368 . S
C1186 C1185 1.523 . S
C1187 C1171 1.429 . S
C1187 C1183 1.429 . S
C1187 C1188 1.523 . S
C1188 C1172 1.368 . S
C1188 C1184 1.368 . S
C1188 C1187 1.523 . S
H1189 C1164 0.950 . S
H1190 C1166 0.950 . S
H1191 C1167 0.949 . S
H1192 C1169 0.950 . S
H1193 C1171 0.950 . S
C1194 C1195 1.349 . S
C1194 C1196 1.327 . S
C1194 H1219 0.950 . S
C1195 C1194 1.349 . S
C1195 C1211 1.349 . S
C1196 C1194 1.327 . S
C1196 C1215 1.429 . S
C1196 H1220 0.950 . S
C1197 C1214 1.574 . S
C1197 C1216 1.368 . S
C1197 H1221 0.949 . S
H1198 C1202 0.949 . S
C1199 C1200 1.349 . S
C1199 C1201 1.327 . S
C1199 H1222 0.958 . S
C1200 C1199 1.349 . S
C1200 C1212 1.349 . S
C1201 C1199 1.327 . S
C1201 C1217 1.429 . S
C1201 H1223 0.950 . S
C1202 H1198 0.949 . S
C1202 C1210 1.574 . S
C1202 C1218 1.368 . S
H1203 C1211 0.950 . S
H1204 C1209 0.950 . S
H1205 C1210 0.949 . S
H1206 C1212 0.950 . S
H1207 C1213 0.950 . S
H1208 C1214 0.949 . S
C1209 H1204 0.950 . S
C1209 C1211 1.327 . S
C1209 C1215 1.429 . S
C1210 C1202 1.574 . S
C1210 H1205 0.949 . S
C1210 C1216 1.368 . S
C1211 C1195 1.349 . S
C1211 H1203 0.950 . S
C1211 C1209 1.327 . S
C1212 C1200 1.349 . S
C1212 H1206 0.950 . S
C1212 C1213 1.327 . S
C1213 H1207 0.950 . S
C1213 C1212 1.327 . S
C1213 C1217 1.429 . S
C1214 C1197 1.574 . S
C1214 H1208 0.949 . S
C1214 C1218 1.368 . S
C1215 C1196 1.429 . S
C1215 C1209 1.429 . S
C1215 C1216 1.523 . S
C1216 C1197 1.368 . S
C1216 C1210 1.368 . S
C1216 C1215 1.523 . S
C1217 C1201 1.429 . S
C1217 C1213 1.429 . S
C1217 C1218 1.523 . S
C1218 C1202 1.368 . S
C1218 C1214 1.368 . S
C1218 C1217 1.523 . S
H1219 C1194 0.950 . S
H1220 C1196 0.950 . S
H1221 C1197 0.949 . S
H1222 C1199 0.958 . S
H1223 C1201 0.950 . S
C1224 C1225 1.349 . S
C1224 C1226 1.327 . S
C1224 H1249 0.950 . S
C1225 C1224 1.349 . S
C1225 C1241 1.349 . S
C1226 C1224 1.327 . S
C1226 C1245 1.429 . S
C1226 H1250 0.950 . S
C1227 C1244 1.574 . S
C1227 C1246 1.368 . S
C1227 H1251 0.949 . S
H1228 C1232 0.949 . S
C1229 C1230 1.349 . S
C1229 C1231 1.327 . S
C1229 H1252 0.950 . S
C1230 C1229 1.349 . S
C1230 C1242 1.349 . S
C1231 C1229 1.327 . S
C1231 C1247 1.429 . S
C1231 H1253 0.950 . S
C1232 H1228 0.949 . S
C1232 C1240 1.574 . S
C1232 C1248 1.368 . S
H1233 C1241 0.950 . S
H1234 C1239 0.950 . S
H1235 C1240 0.949 . S
H1236 C1242 0.950 . S
H1237 C1243 0.950 . S
H1238 C1244 0.949 . S
C1239 H1234 0.950 . S
C1239 C1241 1.327 . S
C1239 C1245 1.429 . S
C1240 C1232 1.574 . S
C1240 H1235 0.949 . S
C1240 C1246 1.368 . S
C1241 C1225 1.349 . S
C1241 H1233 0.950 . S
C1241 C1239 1.327 . S
C1242 C1230 1.349 . S
C1242 H1236 0.950 . S
C1242 C1243 1.327 . S
C1243 H1237 0.950 . S
C1243 C1242 1.327 . S
C1243 C1247 1.429 . S
C1244 C1227 1.574 . S
C1244 H1238 0.949 . S
C1244 C1248 1.368 . S
C1245 C1226 1.429 . S
C1245 C1239 1.429 . S
C1245 C1246 1.523 . S
C1246 C1227 1.368 . S
C1246 C1240 1.368 . S
C1246 C1245 1.523 . S
C1247 C1231 1.429 . S
C1247 C1243 1.429 . S
C1247 C1248 1.523 . S
C1248 C1232 1.368 . S
C1248 C1244 1.368 . S
C1248 C1247 1.523 . S
H1249 C1224 0.950 . S
H1250 C1226 0.950 . S
H1251 C1227 0.949 . S
H1252 C1229 0.950 . S
H1253 C1231 0.950 . S
C1254 C1255 1.349 . S
C1254 C1256 1.327 . S
C1254 H1279 0.950 . S
C1255 C1254 1.349 . S
C1255 C1271 1.349 . S
C1256 C1254 1.327 . S
C1256 C1275 1.429 . S
C1256 H1280 0.950 . S
C1257 C1274 1.574 . S
C1257 C1276 1.368 . S
C1257 H1281 0.949 . S
H1258 C1262 0.949 . S
C1259 C1260 1.349 . S
C1259 C1261 1.327 . S
C1259 H1282 0.950 . S
C1260 C1259 1.349 . S
C1260 C1272 1.349 . S
C1261 C1259 1.327 . S
C1261 C1277 1.429 . S
C1261 H1283 0.950 . S
C1262 H1258 0.949 . S
C1262 C1270 1.574 . S
C1262 C1278 1.368 . S
H1263 C1271 0.950 . S
H1264 C1269 0.950 . S
H1265 C1270 0.949 . S
H1266 C1272 0.950 . S
H1267 C1273 0.950 . S
H1268 C1274 0.949 . S
C1269 H1264 0.950 . S
C1269 C1271 1.327 . S
C1269 C1275 1.429 . S
C1270 C1262 1.574 . S
C1270 H1265 0.949 . S
C1270 C1276 1.368 . S
C1271 C1255 1.349 . S
C1271 H1263 0.950 . S
C1271 C1269 1.327 . S
C1272 C1260 1.349 . S
C1272 H1266 0.950 . S
C1272 C1273 1.327 . S
C1273 H1267 0.950 . S
C1273 C1272 1.327 . S
C1273 C1277 1.429 . S
C1274 C1257 1.574 . S
C1274 H1268 0.949 . S
C1274 C1278 1.368 . S
C1275 C1256 1.429 . S
C1275 C1269 1.429 . S
C1275 C1276 1.523 . S
C1276 C1257 1.368 . S
C1276 C1270 1.368 . S
C1276 C1275 1.523 . S
C1277 C1261 1.429 . S
C1277 C1273 1.429 . S
C1277 C1278 1.523 . S
C1278 C1262 1.368 . S
C1278 C1274 1.368 . S
C1278 C1277 1.523 . S
H1279 C1254 0.950 . S
H1280 C1256 0.950 . S
H1281 C1257 0.949 . S
H1282 C1259 0.950 . S
H1283 C1261 0.950 . S
C1284 C1285 1.349 . S
C1284 C1286 1.327 . S
C1284 H1309 0.950 . S
C1285 C1284 1.349 . S
C1285 C1301 1.349 . S
C1286 C1284 1.327 . S
C1286 C1305 1.429 . S
C1286 H1310 0.950 . S
C1287 C1304 1.574 . S
C1287 C1306 1.368 . S
C1287 H1311 0.949 . S
H1288 C1292 0.949 . S
C1289 C1290 1.349 . S
C1289 C1291 1.327 . S
C1289 H1312 0.950 . S
C1290 C1289 1.349 . S
C1290 C1302 1.349 . S
C1291 C1289 1.327 . S
C1291 C1307 1.429 . S
C1291 H1313 0.950 . S
C1292 H1288 0.949 . S
C1292 C1300 1.574 . S
C1292 C1308 1.368 . S
H1293 C1301 0.950 . S
H1294 C1299 0.950 . S
H1295 C1300 0.949 . S
H1296 C1302 0.950 . S
H1297 C1303 0.950 . S
H1298 C1304 0.949 . S
C1299 H1294 0.950 . S
C1299 C1301 1.327 . S
C1299 C1305 1.429 . S
C1300 C1292 1.574 . S
C1300 H1295 0.949 . S
C1300 C1306 1.368 . S
C1301 C1285 1.349 . S
C1301 H1293 0.950 . S
C1301 C1299 1.327 . S
C1302 C1290 1.349 . S
C1302 H1296 0.950 . S
C1302 C1303 1.327 . S
C1303 H1297 0.950 . S
C1303 C1302 1.327 . S
C1303 C1307 1.429 . S
C1304 C1287 1.574 . S
C1304 H1298 0.949 . S
C1304 C1308 1.368 . S
C1305 C1286 1.429 . S
C1305 C1299 1.429 . S
C1305 C1306 1.523 . S
C1306 C1287 1.368 . S
C1306 C1300 1.368 . S
C1306 C1305 1.523 . S
C1307 C1291 1.429 . S
C1307 C1303 1.429 . S
C1307 C1308 1.523 . S
C1308 C1292 1.368 . S
C1308 C1304 1.368 . S
C1308 C1307 1.523 . S
H1309 C1284 0.950 . S
H1310 C1286 0.950 . S
H1311 C1287 0.949 . S
H1312 C1289 0.950 . S
H1313 C1291 0.950 . S
C1314 C1315 1.349 . S
C1314 C1316 1.327 . S
C1314 H1339 0.950 . S
C1315 C1314 1.349 . S
C1315 C1331 1.349 . S
C1316 C1314 1.327 . S
C1316 C1335 1.429 . S
C1316 H1340 0.950 . S
C1317 C1334 1.574 . S
C1317 C1336 1.368 . S
C1317 H1341 0.949 . S
H1318 C1322 0.949 . S
C1319 C1320 1.349 . S
C1319 C1321 1.327 . S
C1319 H1342 0.950 . S
C1320 C1319 1.349 . S
C1320 C1332 1.349 . S
C1321 C1319 1.327 . S
C1321 C1337 1.429 . S
C1321 H1343 0.950 . S
C1322 H1318 0.949 . S
C1322 C1330 1.574 . S
C1322 C1338 1.368 . S
H1323 C1331 0.950 . S
H1324 C1329 0.950 . S
H1325 C1330 0.949 . S
H1326 C1332 0.950 . S
H1327 C1333 0.950 . S
H1328 C1334 0.949 . S
C1329 H1324 0.950 . S
C1329 C1331 1.327 . S
C1329 C1335 1.429 . S
C1330 C1322 1.574 . S
C1330 H1325 0.949 . S
C1330 C1336 1.368 . S
C1331 C1315 1.349 . S
C1331 H1323 0.950 . S
C1331 C1329 1.327 . S
C1332 C1320 1.349 . S
C1332 H1326 0.950 . S
C1332 C1333 1.327 . S
C1333 H1327 0.950 . S
C1333 C1332 1.327 . S
C1333 C1337 1.429 . S
C1334 C1317 1.574 . S
C1334 H1328 0.949 . S
C1334 C1338 1.368 . S
C1335 C1316 1.429 . S
C1335 C1329 1.429 . S
C1335 C1336 1.523 . S
C1336 C1317 1.368 . S
C1336 C1330 1.368 . S
C1336 C1335 1.523 . S
C1337 C1321 1.429 . S
C1337 C1333 1.429 . S
C1337 C1338 1.523 . S
C1338 C1322 1.368 . S
C1338 C1334 1.368 . S
C1338 C1337 1.523 . S
H1339 C1314 0.950 . S
H1340 C1316 0.950 . S
H1341 C1317 0.949 . S
H1342 C1319 0.950 . S
H1343 C1321 0.950 . S
C1344 C1345 1.349 . S
C1344 C1346 1.327 . S
C1344 H1369 0.950 . S
C1345 C1344 1.349 . S
C1345 C1361 1.349 . S
C1346 C1344 1.327 . S
C1346 C1365 1.429 . S
C1346 H1370 0.950 . S
C1347 C1364 1.574 . S
C1347 C1366 1.368 1_565 S
C1347 H1371 0.949 1_565 S
H1348 C1352 0.949 . S
C1349 C1350 1.349 . S
C1349 C1351 1.327 . S
C1349 H1372 0.950 . S
C1350 C1349 1.349 . S
C1350 C1362 1.349 . S
C1351 C1349 1.327 . S
C1351 C1367 1.429 . S
C1351 H1373 0.950 . S
C1352 H1348 0.949 . S
C1352 C1360 1.574 . S
C1352 C1368 1.368 . S
H1353 C1361 0.950 . S
H1354 C1359 0.950 . S
H1355 C1360 0.949 1_545 S
H1356 C1362 0.950 . S
H1357 C1363 0.950 . S
H1358 C1364 0.949 . S
C1359 H1354 0.950 . S
C1359 C1361 1.327 . S
C1359 C1365 1.429 . S
C1360 C1352 1.574 . S
C1360 H1355 0.949 1_565 S
C1360 C1366 1.368 1_565 S
C1361 C1345 1.349 . S
C1361 H1353 0.950 . S
C1361 C1359 1.327 . S
C1362 C1350 1.349 . S
C1362 H1356 0.950 . S
C1362 C1363 1.327 . S
C1363 H1357 0.950 . S
C1363 C1362 1.327 . S
C1363 C1367 1.429 . S
C1364 C1347 1.574 . S
C1364 H1358 0.949 . S
C1364 C1368 1.368 . S
C1365 C1346 1.429 . S
C1365 C1359 1.429 . S
C1365 C1366 1.523 . S
C1366 C1347 1.368 1_545 S
C1366 C1360 1.368 1_545 S
C1366 C1365 1.523 . S
C1367 C1351 1.429 . S
C1367 C1363 1.429 . S
C1367 C1368 1.523 . S
C1368 C1352 1.368 . S
C1368 C1364 1.368 . S
C1368 C1367 1.523 . S
H1369 C1344 0.950 . S
H1370 C1346 0.950 . S
H1371 C1347 0.949 1_545 S
H1372 C1349 0.950 . S
H1373 C1351 0.950 . S
C1374 C1375 1.349 . S
C1374 C1376 1.327 . S
C1374 H1399 0.950 . S
C1375 C1374 1.349 . S
C1375 C1391 1.349 . S
C1376 C1374 1.327 . S
C1376 C1395 1.429 . S
C1376 H1400 0.950 . S
C1377 C1394 1.574 . S
C1377 C1396 1.368 . S
C1377 H1401 0.949 . S
H1378 C1382 0.949 . S
C1379 C1380 1.349 . S
C1379 C1381 1.327 . S
C1379 H1402 0.950 . S
C1380 C1379 1.349 . S
C1380 C1392 1.349 . S
C1381 C1379 1.327 . S
C1381 C1397 1.429 . S
C1381 H1403 0.950 . S
C1382 H1378 0.949 . S
C1382 C1390 1.574 1_655 S
C1382 C1398 1.368 . S
H1383 C1391 0.950 . S
H1384 C1389 0.950 . S
H1385 C1390 0.949 . S
H1386 C1392 0.950 . S
H1387 C1393 0.950 . S
H1388 C1394 0.949 . S
C1389 H1384 0.950 . S
C1389 C1391 1.327 . S
C1389 C1395 1.429 . S
C1390 C1382 1.574 1_455 S
C1390 H1385 0.949 . S
C1390 C1396 1.368 . S
C1391 C1375 1.349 . S
C1391 H1383 0.950 . S
C1391 C1389 1.327 . S
C1392 C1380 1.349 . S
C1392 H1386 0.950 . S
C1392 C1393 1.327 . S
C1393 H1387 0.950 . S
C1393 C1392 1.327 . S
C1393 C1397 1.429 . S
C1394 C1377 1.574 . S
C1394 H1388 0.949 . S
C1394 C1398 1.368 1_455 S
C1395 C1376 1.429 . S
C1395 C1389 1.429 . S
C1395 C1396 1.523 . S
C1396 C1377 1.368 . S
C1396 C1390 1.368 . S
C1396 C1395 1.523 . S
C1397 C1381 1.429 . S
C1397 C1393 1.429 . S
C1397 C1398 1.523 . S
C1398 C1382 1.368 . S
C1398 C1394 1.368 1_655 S
C1398 C1397 1.523 . S
H1399 C1374 0.950 . S
H1400 C1376 0.950 . S
H1401 C1377 0.949 . S
H1402 C1379 0.950 . S
H1403 C1381 0.950 . S
C1404 C1405 1.349 . S
C1404 C1406 1.327 . S
C1404 H1429 0.950 . S
C1405 C1404 1.349 . S
C1405 C1421 1.349 . S
C1406 C1404 1.327 . S
C1406 C1425 1.429 . S
C1406 H1430 0.950 . S
C1407 C1424 1.574 . S
C1407 C1426 1.368 . S
C1407 H1431 0.949 . S
H1408 C1412 0.949 . S
C1409 C1410 1.349 . S
C1409 C1411 1.327 . S
C1409 H1432 0.950 . S
C1410 C1409 1.349 . S
C1410 C1422 1.349 . S
C1411 C1409 1.327 . S
C1411 C1427 1.429 . S
C1411 H1433 0.950 . S
C1412 H1408 0.949 . S
C1412 C1420 1.574 . S
C1412 C1428 1.368 . S
H1413 C1421 0.950 . S
H1414 C1419 0.950 . S
H1415 C1420 0.949 . S
H1416 C1422 0.950 . S
H1417 C1423 0.950 . S
H1418 C1424 0.949 . S
C1419 H1414 0.950 . S
C1419 C1421 1.327 . S
C1419 C1425 1.429 . S
C1420 C1412 1.574 . S
C1420 H1415 0.949 . S
C1420 C1426 1.368 . S
C1421 C1405 1.349 . S
C1421 H1413 0.950 . S
C1421 C1419 1.327 . S
C1422 C1410 1.349 . S
C1422 H1416 0.950 . S
C1422 C1423 1.327 . S
C1423 H1417 0.950 . S
C1423 C1422 1.327 . S
C1423 C1427 1.429 . S
C1424 C1407 1.574 . S
C1424 H1418 0.949 . S
C1424 C1428 1.368 . S
C1425 C1406 1.429 . S
C1425 C1419 1.429 . S
C1425 C1426 1.523 . S
C1426 C1407 1.368 . S
C1426 C1420 1.368 . S
C1426 C1425 1.523 . S
C1427 C1411 1.429 . S
C1427 C1423 1.429 . S
C1427 C1428 1.523 . S
C1428 C1412 1.368 . S
C1428 C1424 1.368 . S
C1428 C1427 1.523 . S
H1429 C1404 0.950 . S
H1430 C1406 0.950 . S
H1431 C1407 0.949 . S
H1432 C1409 0.950 . S
H1433 C1411 0.950 . S
C1434 C1435 1.349 . S
C1434 C1436 1.327 . S
C1434 H1459 0.950 . S
C1435 C1434 1.349 . S
C1435 C1451 1.349 . S
C1436 C1434 1.327 . S
C1436 C1455 1.429 . S
C1436 H1460 0.950 . S
C1437 C1454 1.574 1_545 S
C1437 C1456 1.368 . S
C1437 H1461 0.949 . S
H1438 C1442 0.949 . S
C1439 C1440 1.349 . S
C1439 C1441 1.327 . S
C1439 H1462 0.950 . S
C1440 C1439 1.349 . S
C1440 C1452 1.349 . S
C1441 C1439 1.327 . S
C1441 C1457 1.429 . S
C1441 H1463 0.950 . S
C1442 H1438 0.949 . S
C1442 C1450 1.574 . S
C1442 C1458 1.368 . S
H1443 C1451 0.950 . S
H1444 C1449 0.950 . S
H1445 C1450 0.949 . S
H1446 C1452 0.950 . S
H1447 C1453 0.950 . S
H1448 C1454 0.949 . S
C1449 H1444 0.950 . S
C1449 C1451 1.327 . S
C1449 C1455 1.429 . S
C1450 C1442 1.574 . S
C1450 H1445 0.949 . S
C1450 C1456 1.368 1_565 S
C1451 C1435 1.349 . S
C1451 H1443 0.950 . S
C1451 C1449 1.327 . S
C1452 C1440 1.349 . S
C1452 H1446 0.950 . S
C1452 C1453 1.327 . S
C1453 H1447 0.950 . S
C1453 C1452 1.327 . S
C1453 C1457 1.429 . S
C1454 C1437 1.574 1_565 S
C1454 H1448 0.949 . S
C1454 C1458 1.368 . S
C1455 C1436 1.429 . S
C1455 C1449 1.429 . S
C1455 C1456 1.523 . S
C1456 C1437 1.368 . S
C1456 C1450 1.368 1_545 S
C1456 C1455 1.523 . S
C1457 C1441 1.429 . S
C1457 C1453 1.429 . S
C1457 C1458 1.523 . S
C1458 C1442 1.368 . S
C1458 C1454 1.368 . S
C1458 C1457 1.523 . S
H1459 C1434 0.950 . S
H1460 C1436 0.950 . S
H1461 C1437 0.949 . S
H1462 C1439 0.950 . S
H1463 C1441 0.950 . S
C1464 C1465 1.349 . S
C1464 C1466 1.327 . S
C1464 H1489 0.950 . S
C1465 C1464 1.349 . S
C1465 C1481 1.349 . S
C1466 C1464 1.327 . S
C1466 C1485 1.429 . S
C1466 H1490 0.950 . S
C1467 C1484 1.574 1_455 S
C1467 C1486 1.368 . S
C1467 H1491 0.949 . S
H1468 C1472 0.949 . S
C1469 C1470 1.349 . S
C1469 C1471 1.327 . S
C1469 H1492 0.950 . S
C1470 C1469 1.349 . S
C1470 C1482 1.349 . S
C1471 C1469 1.327 . S
C1471 C1487 1.429 . S
C1471 H1493 0.950 . S
C1472 H1468 0.949 . S
C1472 C1480 1.574 . S
C1472 C1488 1.368 1_455 S
H1473 C1481 0.950 . S
H1474 C1479 0.950 . S
H1475 C1480 0.949 . S
H1476 C1482 0.950 . S
H1477 C1483 0.950 . S
H1478 C1484 0.949 . S
C1479 H1474 0.950 . S
C1479 C1481 1.327 . S
C1479 C1485 1.429 . S
C1480 C1472 1.574 . S
C1480 H1475 0.949 . S
C1480 C1486 1.368 . S
C1481 C1465 1.349 . S
C1481 H1473 0.950 . S
C1481 C1479 1.327 . S
C1482 C1470 1.349 . S
C1482 H1476 0.950 . S
C1482 C1483 1.327 . S
C1483 H1477 0.950 . S
C1483 C1482 1.327 . S
C1483 C1487 1.429 . S
C1484 C1467 1.574 1_655 S
C1484 H1478 0.949 . S
C1484 C1488 1.368 . S
C1485 C1466 1.429 . S
C1485 C1479 1.429 . S
C1485 C1486 1.523 . S
C1486 C1467 1.368 . S
C1486 C1480 1.368 . S
C1486 C1485 1.523 . S
C1487 C1471 1.429 . S
C1487 C1483 1.429 . S
C1487 C1488 1.523 . S
C1488 C1472 1.368 1_655 S
C1488 C1484 1.368 . S
C1488 C1487 1.523 . S
H1489 C1464 0.950 . S
H1490 C1466 0.950 . S
H1491 C1467 0.949 . S
H1492 C1469 0.950 . S
H1493 C1471 0.950 . S
C415 N104 1.112 . S
C420 N12 1.112 . S
C445 N117 1.804 . S
C450 C39 1.827 . S
C475 N58 1.097 . S
C480 N71 1.099 . S
C505 N94 1.142 . S
C510 N2 1.142 . S
C535 N127 1.802 . S
C540 C30 1.836 . S
C565 N48 1.119 . S
C570 N81 1.123 . S
C595 N232 1.124 . S
C600 N150 1.123 . S
C625 N255 1.119 . S
C630 N173 1.117 . S
C655 N196 1.099 . S
C660 N209 1.100 . S
C685 N140 1.094 . S
C690 N242 1.095 . S
C715 N265 1.105 . S
C720 N163 1.103 . S
C745 N219 1.123 . S
C750 N186 1.121 . S
C775 N380 1.124 . S
C780 N288 1.123 . S
C805 C315 1.826 . S
C810 N403 1.798 . S
C835 N347 1.121 . S
C840 N324 1.120 . S
C865 N370 1.121 . S
C870 N278 1.122 . S
C895 N393 1.823 . S
C900 C306 1.855 . S
C925 N334 1.086 . S
C930 N357 1.086 . S
C955 C16 1.485 . S
C960 C214 1.489 . S
C985 C237 1.564 . S
C990 N35 1.529 . S
C1015 C260 1.533 . S
C1020 C62 1.532 1_565 S
C1045 C76 1.565 . S
C1050 C292 1.571 . S
C1075 N311 1.482 . S
C1080 C108 1.498 . S
C1105 C329 1.571 . S
C1110 C122 1.571 . S
C1135 C361 1.475 . S
C1140 C7 1.483 . S
C1165 C375 1.590 . S
C1170 N25 1.584 . S
C1195 C398 1.525 . S
C1200 C53 1.524 . S
C1225 C85 1.525 . S
C1230 C145 1.543 . S
C1255 C99 1.536 . S
C1260 C168 1.533 . S
C1285 C191 1.545 . S
C1290 C131 1.525 . S
C1315 C352 1.531 . S
C1320 C154 1.531 . S
C1345 C384 1.544 . S
C1350 C177 1.571 . S
C1375 C200 1.526 . S
C1380 C407 1.510 . S
C1405 C283 1.560 . S
C1410 C223 1.549 . S
C1435 N301 1.495 . S
C1440 C246 1.496 . S
C1465 C269 1.540 . S
C1470 C338 1.561 . S
