# Generated by pormake.
# Topology wiv, (6)-cn, num edge types: 1
# Building blocks:
#     Node 0, Type 0, BuildingBlock: PAMTUU_clean_sbu_0, # of connection points: 6
#     Node 1, Type 0, BuildingBlock: PAMTUU_clean_sbu_0, # of connection points: 6
#     Node 2, Type 0, BuildingBlock: PAMTUU_clean_sbu_0, # of connection points: 6
#     Node 3, Type 0, BuildingBlock: PAMTUU_clean_sbu_0, # of connection points: 6
#     Node 4, Type 0, BuildingBlock: PAMTUU_clean_sbu_0, # of connection points: 6
#     Node 5, Type 0, BuildingBlock: PAMTUU_clean_sbu_0, # of connection points: 6
#     Node 6, Type 0, BuildingBlock: PAMTUU_clean_sbu_0, # of connection points: 6
#     Node 7, Type 0, BuildingBlock: PAMTUU_clean_sbu_0, # of connection points: 6
#     Node 8, Type 0, BuildingBlock: PAMTUU_clean_sbu_0, # of connection points: 6
#     Node 9, Type 0, BuildingBlock: PAMTUU_clean_sbu_0, # of connection points: 6
#     Node 10, Type 0, BuildingBlock: PAMTUU_clean_sbu_0, # of connection points: 6
#     Node 11, Type 0, BuildingBlock: PAMTUU_clean_sbu_0, # of connection points: 6
#     Node 12, Type 0, BuildingBlock: PAMTUU_clean_sbu_0, # of connection points: 6
#     Node 13, Type 0, BuildingBlock: PAMTUU_clean_sbu_0, # of connection points: 6
#     Node 14, Type 0, BuildingBlock: PAMTUU_clean_sbu_0, # of connection points: 6
#     Node 15, Type 0, BuildingBlock: PAMTUU_clean_sbu_0, # of connection points: 6
#     Edge 16, Type (0, 0), BuildingBlock: OJICUG_clean_linker_0, # of connection points: 2
#     Edge 17, Type (0, 0), BuildingBlock: OJICUG_clean_linker_0, # of connection points: 2
#     Edge 18, Type (0, 0), BuildingBlock: OJICUG_clean_linker_0, # of connection points: 2
#     Edge 19, Type (0, 0), BuildingBlock: OJICUG_clean_linker_0, # of connection points: 2
#     Edge 20, Type (0, 0), BuildingBlock: OJICUG_clean_linker_0, # of connection points: 2
#     Edge 21, Type (0, 0), BuildingBlock: OJICUG_clean_linker_0, # of connection points: 2
#     Edge 22, Type (0, 0), BuildingBlock: OJICUG_clean_linker_0, # of connection points: 2
#     Edge 23, Type (0, 0), BuildingBlock: OJICUG_clean_linker_0, # of connection points: 2
#     Edge 24, Type (0, 0), BuildingBlock: OJICUG_clean_linker_0, # of connection points: 2
#     Edge 25, Type (0, 0), BuildingBlock: OJICUG_clean_linker_0, # of connection points: 2
#     Edge 26, Type (0, 0), BuildingBlock: OJICUG_clean_linker_0, # of connection points: 2
#     Edge 27, Type (0, 0), BuildingBlock: OJICUG_clean_linker_0, # of connection points: 2
#     Edge 28, Type (0, 0), BuildingBlock: OJICUG_clean_linker_0, # of connection points: 2
#     Edge 29, Type (0, 0), BuildingBlock: OJICUG_clean_linker_0, # of connection points: 2
#     Edge 30, Type (0, 0), BuildingBlock: OJICUG_clean_linker_0, # of connection points: 2
#     Edge 31, Type (0, 0), BuildingBlock: OJICUG_clean_linker_0, # of connection points: 2
#     Edge 32, Type (0, 0), BuildingBlock: OJICUG_clean_linker_0, # of connection points: 2
#     Edge 33, Type (0, 0), BuildingBlock: OJICUG_clean_linker_0, # of connection points: 2
#     Edge 34, Type (0, 0), BuildingBlock: OJICUG_clean_linker_0, # of connection points: 2
#     Edge 35, Type (0, 0), BuildingBlock: OJICUG_clean_linker_0, # of connection points: 2
#     Edge 36, Type (0, 0), BuildingBlock: OJICUG_clean_linker_0, # of connection points: 2
#     Edge 37, Type (0, 0), BuildingBlock: OJICUG_clean_linker_0, # of connection points: 2
#     Edge 38, Type (0, 0), BuildingBlock: OJICUG_clean_linker_0, # of connection points: 2
#     Edge 39, Type (0, 0), BuildingBlock: OJICUG_clean_linker_0, # of connection points: 2
#     Edge 40, Type (0, 0), BuildingBlock: OJICUG_clean_linker_0, # of connection points: 2
#     Edge 41, Type (0, 0), BuildingBlock: OJICUG_clean_linker_0, # of connection points: 2
#     Edge 42, Type (0, 0), BuildingBlock: OJICUG_clean_linker_0, # of connection points: 2
#     Edge 43, Type (0, 0), BuildingBlock: OJICUG_clean_linker_0, # of connection points: 2
#     Edge 44, Type (0, 0), BuildingBlock: OJICUG_clean_linker_0, # of connection points: 2
#     Edge 45, Type (0, 0), BuildingBlock: OJICUG_clean_linker_0, # of connection points: 2
#     Edge 46, Type (0, 0), BuildingBlock: OJICUG_clean_linker_0, # of connection points: 2
#     Edge 47, Type (0, 0), BuildingBlock: OJICUG_clean_linker_0, # of connection points: 2
#     Edge 48, Type (0, 0), BuildingBlock: OJICUG_clean_linker_0, # of connection points: 2
#     Edge 49, Type (0, 0), BuildingBlock: OJICUG_clean_linker_0, # of connection points: 2
#     Edge 50, Type (0, 0), BuildingBlock: OJICUG_clean_linker_0, # of connection points: 2
#     Edge 51, Type (0, 0), BuildingBlock: OJICUG_clean_linker_0, # of connection points: 2
#     Edge 52, Type (0, 0), BuildingBlock: OJICUG_clean_linker_0, # of connection points: 2
#     Edge 53, Type (0, 0), BuildingBlock: OJICUG_clean_linker_0, # of connection points: 2
#     Edge 54, Type (0, 0), BuildingBlock: OJICUG_clean_linker_0, # of connection points: 2
#     Edge 55, Type (0, 0), BuildingBlock: OJICUG_clean_linker_0, # of connection points: 2
#     Edge 56, Type (0, 0), BuildingBlock: OJICUG_clean_linker_0, # of connection points: 2
#     Edge 57, Type (0, 0), BuildingBlock: OJICUG_clean_linker_0, # of connection points: 2
#     Edge 58, Type (0, 0), BuildingBlock: OJICUG_clean_linker_0, # of connection points: 2
#     Edge 59, Type (0, 0), BuildingBlock: OJICUG_clean_linker_0, # of connection points: 2
#     Edge 60, Type (0, 0), BuildingBlock: OJICUG_clean_linker_0, # of connection points: 2
#     Edge 61, Type (0, 0), BuildingBlock: OJICUG_clean_linker_0, # of connection points: 2
#     Edge 62, Type (0, 0), BuildingBlock: OJICUG_clean_linker_0, # of connection points: 2
#     Edge 63, Type (0, 0), BuildingBlock: OJICUG_clean_linker_0, # of connection points: 2
# Relax obj value: 0.201
# Max RMSD: 0.233
# Mean RMSD: 0.233
data_MOF--net-wiv--node1-PAMTUU_clean_sbu_0--edge1-OJICUG_clean_linker_0
_symmetry_space_group_name_H-M    P1
_symmetry_Int_Tables_number       1
_symmetry_cell_setting            triclinic
loop_
_symmetry_equiv_pos_as_xyz
'x, y, z'
_cell_length_a     34.911687
_cell_length_b     34.790169
_cell_length_c     19.760866
_cell_angle_alpha  90.123737
_cell_angle_beta   90.066046
_cell_angle_gamma 89.963874
loop_
_atom_site_label
_atom_site_type_symbol
_atom_site_fract_x
_atom_site_fract_y
_atom_site_fract_z
_atom_type_partial_charge
Tb0 Tb 0.38411 0.10138 0.08142 0.0
Tb1 Tb 0.31777 0.09343 0.19979 0.0
C2 C 0.36966 0.027 0.16216 0.0
C3 C 0.41382 0.10364 0.90478 0.0
C4 C 0.38185 0.1006 0.77298 0.0
C5 C 0.39955 0.06806 0.8013 0.0
C6 C 0.41554 0.06963 0.86623 0.0
C7 C 0.39727 0.13656 0.8755 0.0
C8 C 0.38156 0.13506 0.81033 0.0
C9 C 0.42547 0.10316 0.97718 0.0
O10 O 0.33234 0.07949 1.03539 0.0
O11 O 0.28622 0.1039 0.10566 0.0
O12 O 0.33675 0.15214 0.20249 0.0
O13 O 0.3559 0.15752 0.09203 0.0
O14 O 0.28951 0.0555 0.26548 0.0
O15 O 0.2753 0.11568 0.26478 0.0
O16 O 0.37272 0.09629 0.25354 0.0
O17 O 0.41446 0.11964 0.17191 0.0
O18 O 0.39666 0.05042 0.14199 0.0
O19 O 0.33409 0.03837 0.15778 0.0
C20 C 0.29752 0.09208 1.04545 0.0
O21 O 0.41754 0.13359 1.01338 0.0
O22 O 0.4173 0.07169 1.0098 0.0
C23 C 0.34599 0.17319 0.15029 0.0
C24 C 0.28341 0.08574 0.37219 0.0
C25 C 0.31075 0.09085 0.50713 0.0
C26 C 0.29656 0.12357 0.47359 0.0
C27 C 0.28309 0.12106 0.40694 0.0
C28 C 0.29615 0.05276 0.4067 0.0
C29 C 0.30974 0.0553 0.47313 0.0
C30 C 0.2738 0.08366 0.29896 0.0
C31 C 0.40579 0.11144 0.23526 0.0
H32 H 0.40081 0.04125 0.7734 0.0
H33 H 0.4282 0.04381 0.88714 0.0
H34 H 0.3953 0.16323 0.90363 0.0
H35 H 0.36798 0.16057 0.79009 0.0
H36 H 0.29605 0.15126 0.4987 0.0
H37 H 0.27308 0.14697 0.38228 0.0
H38 H 0.29649 0.025 0.38179 0.0
H39 H 0.32062 0.0295 0.49698 0.0
Tb40 Tb 0.09027 0.68086 0.91289 0.0
Tb41 Tb 0.09232 0.61016 1.02755 0.0
C42 C 0.16756 0.64667 0.96564 0.0
C43 C 0.08723 0.71241 0.73742 0.0
C44 C 0.08691 0.68247 0.60366 0.0
C45 C 0.12154 0.69201 0.63599 0.0
C46 C 0.1217 0.70691 0.70183 0.0
C47 C 0.05249 0.70425 0.70413 0.0
C48 C 0.05233 0.68951 0.63805 0.0
C49 C 0.08789 0.72367 0.81021 0.0
O50 O 0.09474 0.62659 0.85699 0.0
O51 O 0.10143 0.57768 0.93609 0.0
O52 O 0.03909 0.60474 0.97048 0.0
O53 O 0.03343 0.66841 0.94957 0.0
O54 O 0.12163 0.57551 0.09777 0.0
O55 O 0.05996 0.57695 0.09547 0.0
O56 O 0.08801 0.66431 0.08133 0.0
O57 O 0.08886 0.7148 1.00545 0.0
O58 O 0.14822 0.67777 0.9505 0.0
O59 O 0.1511 0.61601 0.99135 0.0
C60 C 0.10036 0.59028 0.87329 0.0
O61 O 0.05779 0.71511 0.84608 0.0
O62 O 0.11927 0.71587 0.84314 0.0
C63 C 0.01926 0.63373 0.94705 0.0
C64 C 0.08953 0.57952 0.20381 0.0
C65 C 0.08808 0.6106 0.33691 0.0
C66 C 0.05382 0.60177 0.30267 0.0
C67 C 0.05453 0.58631 0.23713 0.0
C68 C 0.12379 0.58707 0.23901 0.0
C69 C 0.12307 0.60246 0.30457 0.0
C70 C 0.09022 0.56808 0.13104 0.0
C71 C 0.08787 0.70116 0.06763 0.0
H72 H 0.14865 0.68779 0.61045 0.0
H73 H 0.14899 0.71337 0.72536 0.0
H74 H 0.02536 0.70857 0.72955 0.0
H75 H 0.02512 0.68249 0.61475 0.0
H76 H 0.02635 0.60693 0.32644 0.0
H77 H 0.02756 0.58058 0.21193 0.0
H78 H 0.15129 0.58216 0.21521 0.0
H79 H 0.15003 0.60909 0.32906 0.0
Tb80 Tb 0.60738 0.90064 0.0873 0.0
Tb81 Tb 0.67374 0.91581 0.20343 0.0
C82 C 0.62236 0.97895 0.15592 0.0
C83 C 0.57642 0.89799 0.91137 0.0
C84 C 0.60672 0.90392 0.77838 0.0
C85 C 0.59878 0.93706 0.81677 0.0
C86 C 0.58376 0.93416 0.8822 0.0
C87 C 0.58306 0.86488 0.87211 0.0
C88 C 0.59803 0.8678 0.80647 0.0
C89 C 0.56538 0.89474 0.98401 0.0
O90 O 0.65776 0.9225 1.03696 0.0
O91 O 0.7062 0.90556 0.11 0.0
O92 O 0.65849 0.85575 0.21129 0.0
O93 O 0.6385 0.8466 0.10188 0.0
O94 O 0.69374 0.9571 0.27253 0.0
O95 O 0.71935 0.90062 0.26807 0.0
O96 O 0.61867 0.91494 0.25532 0.0
O97 O 0.57929 0.88235 0.18028 0.0
O98 O 0.59537 0.95406 0.14166 0.0
O99 O 0.65784 0.96765 0.15047 0.0
C100 C 0.69361 0.91352 1.04847 0.0
O101 O 0.57873 0.86513 1.01691 0.0
O102 O 0.5682 0.92602 1.02012 0.0
C103 C 0.64995 0.83293 0.16067 0.0
C104 C 0.70389 0.92649 0.37696 0.0
C105 C 0.67489 0.9182 0.51034 0.0
C106 C 0.68232 0.88574 0.46976 0.0
C107 C 0.69654 0.88981 0.40389 0.0
C108 C 0.69711 0.95889 0.41788 0.0
C109 C 0.68292 0.95482 0.48375 0.0
C110 C 0.71423 0.93162 0.30458 0.0
C111 C 0.58741 0.89537 0.24144 0.0
H112 H 0.60433 0.96538 0.79635 0.0
H113 H 0.5788 0.9604 0.91046 0.0
H114 H 0.57773 0.83659 0.89287 0.0
H115 H 0.60391 0.84164 0.77854 0.0
H116 H 0.67705 0.85707 0.48885 0.0
H117 H 0.70109 0.86417 0.37377 0.0
H118 H 0.70209 0.98753 0.39835 0.0
H119 H 0.67722 0.9805 0.51314 0.0
Tb120 Tb 0.91775 0.32001 0.90725 0.0
Tb121 Tb 0.9138 0.38783 1.02591 0.0
C122 C 0.83933 0.35314 0.95722 0.0
C123 C 0.92486 0.28569 0.73479 0.0
C124 C 0.9217 0.31442 0.60073 0.0
C125 C 0.8881 0.30294 0.63432 0.0
C126 C 0.88966 0.2887 0.70048 0.0
C127 C 0.95858 0.29595 0.70027 0.0
C128 C 0.95702 0.31011 0.63413 0.0
C129 C 0.9263 0.2756 0.80784 0.0
O130 O 0.91523 0.3747 0.85279 0.0
O131 O 0.89788 0.41909 0.93538 0.0
O132 O 0.96425 0.39823 0.9638 0.0
O133 O 0.97334 0.33488 0.94795 0.0
O134 O 0.88404 0.42248 0.09584 0.0
O135 O 0.94565 0.42012 0.09608 0.0
O136 O 0.93254 0.33442 0.07102 0.0
O137 O 0.90574 0.28923 1.00131 0.0
O138 O 0.85929 0.33915 0.90687 0.0
O139 O 0.85511 0.36662 1.01314 0.0
C140 C 0.9033 0.40914 0.87157 0.0
O141 O 0.95479 0.29008 0.84193 0.0
O142 O 0.89438 0.27821 0.84178 0.0
C143 C 0.98598 0.37007 0.94258 0.0
C144 C 0.91518 0.4178 0.20294 0.0
C145 C 0.91664 0.38604 0.33503 0.0
C146 C 0.95073 0.39736 0.30295 0.0
C147 C 0.95001 0.41322 0.23794 0.0
C148 C 0.88093 0.4078 0.23602 0.0
C149 C 0.88167 0.39211 0.30123 0.0
C150 C 0.91515 0.42939 0.13047 0.0
C151 C 0.91785 0.30026 0.06147 0.0
H152 H 0.8605 0.3052 0.60957 0.0
H153 H 0.86314 0.28083 0.7252 0.0
H154 H 0.98622 0.29382 0.72493 0.0
H155 H 0.98345 0.31882 0.60997 0.0
H156 H 0.9781 0.39373 0.32795 0.0
H157 H 0.97693 0.42088 0.21433 0.0
H158 H 0.85355 0.41097 0.21082 0.0
H159 H 0.85486 0.38356 0.32423 0.0
Tb160 Tb 0.39316 0.40407 0.27226 0.0
Tb161 Tb 0.32782 0.42099 0.15501 0.0
C162 C 0.38115 0.48204 0.20327 0.0
C163 C 0.42301 0.40117 0.44857 0.0
C164 C 0.39227 0.40819 0.581 0.0
C165 C 0.39929 0.44098 0.54142 0.0
C166 C 0.41449 0.43755 0.47621 0.0
C167 C 0.41723 0.36847 0.48895 0.0
C168 C 0.40203 0.37192 0.55433 0.0
C169 C 0.43432 0.39707 0.37626 0.0
O170 O 0.34297 0.42735 0.32149 0.0
O171 O 0.29494 0.41042 0.24777 0.0
O172 O 0.34133 0.36064 0.1455 0.0
O173 O 0.36142 0.35075 0.25479 0.0
O174 O 0.30992 0.46325 0.08626 0.0
O175 O 0.2809 0.40848 0.09153 0.0
O176 O 0.38289 0.41671 0.10297 0.0
O177 O 0.42152 0.38487 0.18028 0.0
O178 O 0.40739 0.45643 0.21737 0.0
O179 O 0.34544 0.47182 0.20955 0.0
C180 C 0.30719 0.41835 0.30954 0.0
O181 O 0.41988 0.36784 0.34359 0.0
O182 O 0.43299 0.42822 0.33976 0.0
C183 C 0.34998 0.33755 0.19551 0.0
C184 C 0.29632 0.43348 0.98236 0.0
C185 C 0.32406 0.42428 0.84847 0.0
C186 C 0.31722 0.39209 0.88975 0.0
C187 C 0.30362 0.39662 0.9559 0.0
C188 C 0.30225 0.46559 0.94064 0.0
C189 C 0.31582 0.46107 0.87444 0.0
C190 C 0.28736 0.43916 1.05508 0.0
C191 C 0.41389 0.39691 0.1184 0.0
H192 H 0.39287 0.46942 0.56072 0.0
H193 H 0.41867 0.4635 0.44697 0.0
H194 H 0.42342 0.34006 0.46924 0.0
H195 H 0.39682 0.34601 0.58317 0.0
H196 H 0.32265 0.36332 0.87107 0.0
H197 H 0.2997 0.37122 0.98672 0.0
H198 H 0.29728 0.49435 0.9599 0.0
H199 H 0.32105 0.48652 0.8444 0.0
Tb200 Tb 0.39887 0.68169 0.9473 0.0
Tb201 Tb 0.40491 0.61062 0.83464 0.0
C202 C 0.32674 0.64659 0.88498 0.0
C203 C 0.39583 0.71042 0.12401 0.0
C204 C 0.39589 0.67856 0.25679 0.0
C205 C 0.36133 0.68828 0.22392 0.0
C206 C 0.36135 0.70434 0.15899 0.0
C207 C 0.43044 0.70131 0.1569 0.0
C208 C 0.43049 0.68607 0.22251 0.0
C209 C 0.39528 0.72298 1.05189 0.0
O210 O 0.39014 0.62737 1.00009 0.0
O211 O 0.40801 0.57809 0.92761 0.0
O212 O 0.45823 0.60891 0.89242 0.0
O213 O 0.45813 0.67229 0.92119 0.0
O214 O 0.37758 0.56971 0.77249 0.0
O215 O 0.4372 0.58345 0.75847 0.0
O216 O 0.40948 0.66495 0.78076 0.0
O217 O 0.40163 0.71565 0.8554 0.0
O218 O 0.34488 0.6789 0.89515 0.0
O219 O 0.34538 0.61496 0.86926 0.0
C220 C 0.39826 0.5911 0.98774 0.0
O221 O 0.42667 0.718 1.01724 0.0
O222 O 0.3653 0.71285 1.01676 0.0
C223 C 0.47456 0.63856 0.92181 0.0
C224 C 0.39961 0.57864 0.66038 0.0
C225 C 0.39487 0.6075 0.52602 0.0
C226 C 0.41337 0.57219 0.53997 0.0
C227 C 0.41604 0.55817 0.60651 0.0
C228 C 0.3795 0.61262 0.64637 0.0
C229 C 0.3775 0.62705 0.58051 0.0
C230 C 0.4069 0.56765 0.73162 0.0
C231 C 0.40655 0.70189 0.79378 0.0
H232 H 0.33392 0.68254 0.24725 0.0
H233 H 0.33413 0.71088 0.13529 0.0
H234 H 0.45764 0.70587 0.13195 0.0
H235 H 0.45785 0.68023 0.24612 0.0
H236 H 0.42625 0.55544 0.4998 0.0
H237 H 0.43169 0.53183 0.61604 0.0
H238 H 0.36663 0.62907 0.68701 0.0
H239 H 0.36362 0.65455 0.57344 0.0
Tb240 Tb 0.60898 0.6003 0.28064 0.0
Tb241 Tb 0.67458 0.58528 0.16385 0.0
C242 C 0.622 0.52304 0.20915 0.0
C243 C 0.57808 0.60032 0.45666 0.0
C244 C 0.60735 0.59274 0.59005 0.0
C245 C 0.6039 0.56047 0.54749 0.0
C246 C 0.58945 0.56418 0.48176 0.0
C247 C 0.5803 0.63235 0.49991 0.0
C248 C 0.59479 0.62864 0.56575 0.0
C249 C 0.5673 0.60527 0.38431 0.0
O250 O 0.65968 0.57742 0.32917 0.0
O251 O 0.7073 0.59631 0.25671 0.0
O252 O 0.66053 0.64567 0.15636 0.0
O253 O 0.6391 0.6548 0.26514 0.0
O254 O 0.69344 0.54306 0.09558 0.0
O255 O 0.72079 0.59871 0.0996 0.0
O256 O 0.61969 0.58945 0.11106 0.0
O257 O 0.58026 0.61967 0.1891 0.0
O258 O 0.59547 0.5483 0.22353 0.0
O259 O 0.65755 0.53365 0.21626 0.0
C260 C 0.69524 0.58757 0.3181 0.0
O261 O 0.58169 0.63511 0.35363 0.0
O262 O 0.56923 0.57469 0.34625 0.0
C263 C 0.65112 0.66843 0.20666 0.0
C264 C 0.70515 0.57251 0.99125 0.0
C265 C 0.67561 0.57928 0.85811 0.0
C266 C 0.67919 0.6118 0.9001 0.0
C267 C 0.69357 0.60845 0.96594 0.0
C268 C 0.70232 0.54011 0.94898 0.0
C269 C 0.68785 0.54344 0.8831 0.0
C270 C 0.71502 0.56759 0.06369 0.0
C271 C 0.58823 0.60841 0.12682 0.0
H272 H 0.61256 0.53226 0.56484 0.0
H273 H 0.58811 0.53873 0.45018 0.0
H274 H 0.57187 0.66055 0.4821 0.0
H275 H 0.59727 0.65418 0.59687 0.0
H276 H 0.67059 0.63992 0.88226 0.0
H277 H 0.69481 0.63395 0.9974 0.0
H278 H 0.71044 0.51197 0.96757 0.0
H279 H 0.68517 0.51772 0.8525 0.0
Tb280 Tb 0.60267 0.32265 0.95218 0.0
Tb281 Tb 0.60184 0.39383 0.83915 0.0
C282 C 0.67807 0.35682 0.89691 0.0
C283 C 0.60416 0.29532 0.12909 0.0
C284 C 0.60719 0.32855 0.26082 0.0
C285 C 0.63947 0.32893 0.21803 0.0
C286 C 0.63802 0.31245 0.15328 0.0
C287 C 0.57203 0.29456 0.17185 0.0
C288 C 0.57359 0.31059 0.23694 0.0
C289 C 0.60067 0.28215 0.05757 0.0
O290 O 0.61233 0.3768 1.00579 0.0
O291 O 0.59849 0.4266 0.93202 0.0
O292 O 0.54735 0.39611 0.8929 0.0
O293 O 0.54513 0.33243 0.91618 0.0
O294 O 0.62987 0.43458 0.77798 0.0
O295 O 0.57023 0.42108 0.76238 0.0
O296 O 0.6004 0.33935 0.78478 0.0
O297 O 0.59855 0.28847 0.86011 0.0
O298 O 0.65943 0.32505 0.90985 0.0
O299 O 0.66056 0.38842 0.87728 0.0
C300 C 0.60618 0.41337 0.99283 0.0
O301 O 0.57017 0.29396 1.02594 0.0
O302 O 0.63095 0.28496 1.01923 0.0
C303 C 0.52917 0.36633 0.91753 0.0
C304 C 0.60773 0.42778 0.66471 0.0
C305 C 0.61138 0.40031 0.52926 0.0
C306 C 0.58826 0.43219 0.54643 0.0
C307 C 0.5863 0.44558 0.61346 0.0
C308 C 0.63228 0.39738 0.64727 0.0
C309 C 0.63399 0.38373 0.58063 0.0
C310 C 0.60065 0.4372 0.73682 0.0
C311 C 0.59877 0.30235 0.79801 0.0
H312 H 0.66569 0.34301 0.23356 0.0
H313 H 0.66321 0.31424 0.1215 0.0
H314 H 0.54542 0.28184 0.15457 0.0
H315 H 0.54832 0.30885 0.26845 0.0
H316 H 0.57112 0.4465 0.50838 0.0
H317 H 0.56711 0.46908 0.62562 0.0
H318 H 0.64893 0.3829 0.68589 0.0
H319 H 0.65179 0.35891 0.57039 0.0
Tb320 Tb 0.88219 0.59734 0.58871 0.0
Tb321 Tb 0.81591 0.58944 0.70688 0.0
C322 C 0.86752 0.52252 0.66824 0.0
C323 C 0.9121 0.60053 0.41172 0.0
C324 C 0.88096 0.59781 0.27929 0.0
C325 C 0.89612 0.56455 0.30948 0.0
C326 C 0.9117 0.56595 0.37468 0.0
C327 C 0.89827 0.63412 0.38049 0.0
C328 C 0.88294 0.63277 0.31499 0.0
C329 C 0.92345 0.60041 0.4843 0.0
O330 O 0.83048 0.57501 0.54332 0.0
O331 O 0.78486 0.60099 0.61244 0.0
O332 O 0.83668 0.64747 0.71323 0.0
O333 O 0.855 0.65379 0.60267 0.0
O334 O 0.78742 0.5518 0.77278 0.0
O335 O 0.77319 0.61199 0.77099 0.0
O336 O 0.87067 0.59097 0.76103 0.0
O337 O 0.91339 0.61285 0.6798 0.0
O338 O 0.89453 0.54562 0.64703 0.0
O339 O 0.83191 0.53406 0.66555 0.0
C340 C 0.79593 0.58851 0.55251 0.0
O341 O 0.91439 0.63058 0.52031 0.0
O342 O 0.91624 0.56875 0.51702 0.0
C343 C 0.84601 0.66899 0.6618 0.0
C344 C 0.78203 0.58277 0.87887 0.0
C345 C 0.81046 0.58828 1.01302 0.0
C346 C 0.79786 0.62124 0.97832 0.0
C347 C 0.78387 0.61854 0.91207 0.0
C348 C 0.79349 0.54968 0.91438 0.0
C349 C 0.80756 0.55239 0.9805 0.0
C350 C 0.77191 0.5802 0.80591 0.0
C351 C 0.90444 0.60468 0.74308 0.0
H352 H 0.89568 0.53731 0.28282 0.0
H353 H 0.92242 0.5396 0.3969 0.0
H354 H 0.89818 0.6613 0.40731 0.0
H355 H 0.87143 0.65888 0.2932 0.0
H356 H 0.79897 0.64924 1.00228 0.0
H357 H 0.77511 0.64461 0.88651 0.0
H358 H 0.7924 0.52164 0.89051 0.0
H359 H 0.81722 0.52642 1.00534 0.0
Tb360 Tb 0.60488 0.18204 0.40767 0.0
Tb361 Tb 0.59475 0.11214 0.51915 0.0
C362 C 0.67454 0.14822 0.47827 0.0
C363 C 0.60961 0.21147 0.23138 0.0
C364 C 0.60717 0.18081 0.09772 0.0
C365 C 0.64231 0.19016 0.12892 0.0
C366 C 0.64345 0.20561 0.19436 0.0
C367 C 0.5744 0.20284 0.20012 0.0
C368 C 0.57318 0.18812 0.13404 0.0
C369 C 0.61169 0.22325 0.30382 0.0
O370 O 0.61504 0.1272 0.35624 0.0
O371 O 0.59173 0.0794 0.42617 0.0
O372 O 0.5421 0.11063 0.45964 0.0
O373 O 0.54433 0.17315 0.42431 0.0
O374 O 0.62141 0.07127 0.58206 0.0
O375 O 0.56179 0.08539 0.59465 0.0
O376 O 0.58715 0.16637 0.57249 0.0
O377 O 0.60201 0.2161 0.49995 0.0
O378 O 0.65705 0.18054 0.46564 0.0
O379 O 0.65509 0.1165 0.48906 0.0
C380 C 0.60428 0.09151 0.36724 0.0
O381 O 0.58018 0.22127 0.33912 0.0
O382 O 0.64073 0.20966 0.33765 0.0
C383 C 0.52688 0.13992 0.42745 0.0
C384 C 0.59888 0.08157 0.69337 0.0
C385 C 0.60419 0.11104 0.82735 0.0
C386 C 0.58716 0.07489 0.81431 0.0
C387 C 0.58421 0.06052 0.74793 0.0
C388 C 0.6173 0.11664 0.70639 0.0
C389 C 0.61951 0.13139 0.77206 0.0
C390 C 0.59186 0.06973 0.62243 0.0
C391 C 0.59335 0.20294 0.56055 0.0
H392 H 0.66926 0.18457 0.10382 0.0
H393 H 0.67107 0.21187 0.21685 0.0
H394 H 0.54766 0.20724 0.22673 0.0
H395 H 0.54544 0.18247 0.11168 0.0
H396 H 0.57579 0.05767 0.85515 0.0
H397 H 0.56988 0.03335 0.73914 0.0
H398 H 0.62895 0.13346 0.66525 0.0
H399 H 0.63216 0.15953 0.7786 0.0
Tb400 Tb 0.11956 0.40658 0.57899 0.0
Tb401 Tb 0.18636 0.41499 0.69703 0.0
C402 C 0.13308 0.48096 0.66088 0.0
C403 C 0.09004 0.39775 0.40348 0.0
C404 C 0.11892 0.39909 0.26948 0.0
C405 C 0.08194 0.41324 0.28428 0.0
C406 C 0.06782 0.41285 0.35073 0.0
C407 C 0.12619 0.38224 0.38863 0.0
C408 C 0.14052 0.38305 0.32265 0.0
C409 C 0.07806 0.40237 0.47465 0.0
O410 O 0.17123 0.42968 0.53416 0.0
O411 O 0.21759 0.40446 0.60271 0.0
O412 O 0.16645 0.35661 0.70204 0.0
O413 O 0.14746 0.35042 0.59162 0.0
O414 O 0.21235 0.45336 0.76529 0.0
O415 O 0.23055 0.39423 0.75988 0.0
O416 O 0.13226 0.41031 0.75182 0.0
O417 O 0.08792 0.39217 0.67015 0.0
O418 O 0.10632 0.45768 0.63897 0.0
O419 O 0.16882 0.47003 0.65652 0.0
C420 C 0.20625 0.41724 0.54322 0.0
O421 O 0.08472 0.37328 0.51461 0.0
O422 O 0.08856 0.43469 0.50244 0.0
C423 C 0.15659 0.33516 0.65054 0.0
C424 C 0.21861 0.42099 0.8692 0.0
C425 C 0.18784 0.41384 1.00155 0.0
C426 C 0.19548 0.38107 0.96178 0.0
C427 C 0.21074 0.38459 0.89665 0.0
C428 C 0.21161 0.45372 0.90917 0.0
C429 C 0.19666 0.45021 0.97457 0.0
C430 C 0.22942 0.42538 0.79693 0.0
C431 C 0.09788 0.39841 0.73376 0.0
H432 H 0.06401 0.42513 0.24479 0.0
H433 H 0.04003 0.42534 0.36123 0.0
H434 H 0.14416 0.37098 0.42871 0.0
H435 H 0.1693 0.37251 0.31422 0.0
H436 H 0.18856 0.35259 0.97994 0.0
H437 H 0.21524 0.35871 0.86714 0.0
H438 H 0.21719 0.4822 0.88942 0.0
H439 H 0.19203 0.47612 1.00386 0.0
Tb440 Tb 0.40856 0.82444 0.40532 0.0
Tb441 Tb 0.40209 0.89249 0.52484 0.0
C442 C 0.3294 0.85708 0.45233 0.0
C443 C 0.4119 0.79267 0.23153 0.0
C444 C 0.40538 0.82441 0.09965 0.0
C445 C 0.37434 0.82558 0.14513 0.0
C446 C 0.37753 0.8099 0.2101 0.0
C447 C 0.44271 0.79089 0.18603 0.0
C448 C 0.43941 0.80618 0.12075 0.0
C449 C 0.41793 0.78212 0.30346 0.0
O450 O 0.41061 0.87964 0.35277 0.0
O451 O 0.38965 0.92376 0.43277 0.0
O452 O 0.45575 0.89889 0.46941 0.0
O453 O 0.46204 0.83509 0.45668 0.0
O454 O 0.37156 0.93102 0.58706 0.0
O455 O 0.43215 0.92237 0.60076 0.0
O456 O 0.41659 0.83908 0.57413 0.0
O457 O 0.39762 0.79211 0.49863 0.0
O458 O 0.35033 0.84446 0.40208 0.0
O459 O 0.34423 0.86971 0.50965 0.0
C460 C 0.39806 0.91405 0.36995 0.0
O461 O 0.44561 0.80078 0.33291 0.0
O462 O 0.38772 0.78002 0.34239 0.0
C463 C 0.47691 0.86936 0.45191 0.0
C464 C 0.39514 0.92597 0.6995 0.0
C465 C 0.39463 0.89741 0.83396 0.0
C466 C 0.4171 0.92959 0.81641 0.0
C467 C 0.41748 0.94355 0.74983 0.0
C468 C 0.37117 0.89527 0.71752 0.0
C469 C 0.37101 0.88109 0.78373 0.0
C470 C 0.4008 0.93594 0.62739 0.0
C471 C 0.40633 0.80367 0.56057 0.0
H472 H 0.3479 0.83993 0.13168 0.0
H473 H 0.3535 0.81269 0.24439 0.0
H474 H 0.46971 0.77827 0.20151 0.0
H475 H 0.46374 0.8039 0.08706 0.0
H476 H 0.43498 0.94366 0.85376 0.0
H477 H 0.43625 0.96725 0.73716 0.0
H478 H 0.35396 0.88081 0.67957 0.0
H479 H 0.35371 0.85601 0.79435 0.0
Tb480 Tb 0.87985 0.90517 0.7767 0.0
Tb481 Tb 0.81301 0.91289 0.65882 0.0
C482 C 0.86526 0.9794 0.69523 0.0
C483 C 0.90955 0.89699 0.95186 0.0
C484 C 0.88044 0.89856 0.08571 0.0
C485 C 0.91748 0.91255 0.07119 0.0
C486 C 0.93178 0.91197 1.00482 0.0
C487 C 0.87331 0.88171 0.96645 0.0
C488 C 0.85888 0.8826 1.03234 0.0
C489 C 0.92163 0.90132 0.88072 0.0
O490 O 0.82811 0.92795 0.82193 0.0
O491 O 0.78199 0.90221 0.75339 0.0
O492 O 0.83351 0.85469 0.65401 0.0
O493 O 0.85146 0.84921 0.76494 0.0
O494 O 0.78508 0.95046 0.59164 0.0
O495 O 0.76994 0.89051 0.59525 0.0
O496 O 0.86761 0.91057 0.60452 0.0
O497 O 0.91046 0.88842 0.68563 0.0
O498 O 0.89238 0.95639 0.71679 0.0
O499 O 0.82966 0.96811 0.69973 0.0
C500 C 0.79324 0.91513 0.81297 0.0
O501 O 0.91487 0.8721 0.84093 0.0
O502 O 0.91122 0.93355 0.85269 0.0
C503 C 0.84289 0.83355 0.70597 0.0
C504 C 0.78093 0.91823 0.48674 0.0
C505 C 0.81182 0.91215 0.35422 0.0
C506 C 0.80414 0.87908 0.39289 0.0
C507 C 0.78883 0.88206 0.45806 0.0
C508 C 0.78807 0.9513 0.44796 0.0
C509 C 0.80309 0.94832 0.38248 0.0
C510 C 0.76965 0.92185 0.55898 0.0
C511 C 0.90113 0.89633 0.62245 0.0
H512 H 0.93538 0.92435 0.11089 0.0
H513 H 0.95976 0.92408 0.99462 0.0
H514 H 0.85536 0.87048 0.92623 0.0
H515 H 0.83008 0.87214 1.04057 0.0
H516 H 0.81101 0.85073 0.37378 0.0
H517 H 0.78417 0.85593 0.48656 0.0
H518 H 0.78243 0.97962 0.46862 0.0
H519 H 0.80776 0.97446 0.35408 0.0
Tb520 Tb 0.91895 0.1778 0.44793 0.0
Tb521 Tb 0.90461 0.1106 0.33057 0.0
C522 C 0.83532 0.14948 0.41165 0.0
C523 C 0.93409 0.20777 0.62044 0.0
C524 C 0.92808 0.17771 0.7532 0.0
C525 C 0.89559 0.1806 0.71134 0.0
C526 C 0.89855 0.19535 0.64573 0.0
C527 C 0.96647 0.20546 0.66254 0.0
C528 C 0.96348 0.19085 0.72835 0.0
C529 C 0.93876 0.21763 0.54798 0.0
O530 O 0.9119 0.12349 0.50183 0.0
O531 O 0.8889 0.08017 0.42194 0.0
O532 O 0.9565 0.09778 0.38731 0.0
O533 O 0.96941 0.16024 0.39286 0.0
O534 O 0.87069 0.0846 0.25505 0.0
O535 O 0.93029 0.07001 0.26593 0.0
O536 O 0.92405 0.16284 0.28194 0.0
O537 O 0.90738 0.21093 0.3562 0.0
O538 O 0.8583 0.16658 0.45494 0.0
O539 O 0.84738 0.13133 0.3569 0.0
C540 C 0.89685 0.09003 0.48497 0.0
O541 O 0.96215 0.19508 0.51533 0.0
O542 O 0.90771 0.2246 0.5129 0.0
C543 C 0.98081 0.12502 0.402 0.0
C544 C 0.90675 0.07973 0.15421 0.0
C545 C 0.91526 0.10893 1.02095 0.0
C546 C 0.94617 0.10936 0.06675 0.0
C547 C 0.94197 0.09507 0.13249 0.0
C548 C 0.87623 0.07812 0.10795 0.0
C549 C 0.88037 0.09261 1.04223 0.0
C550 C 0.90047 0.06905 0.22616 0.0
C551 C 0.91465 0.19865 0.2943 0.0
H552 H 0.86784 0.17112 0.72913 0.0
H553 H 0.87314 0.19603 0.61427 0.0
H554 H 0.99432 0.21414 0.64387 0.0
H555 H 0.98913 0.18871 0.75899 0.0
H556 H 0.97367 0.12103 1.05208 0.0
H557 H 0.96616 0.09694 0.16669 0.0
H558 H 0.84871 0.06673 0.12334 0.0
H559 H 0.85575 0.09211 1.00889 0.0
Tb560 Tb 0.10843 0.1036 0.77693 0.0
Tb561 Tb 0.17462 0.08823 0.65919 0.0
C562 C 0.12069 0.0264 0.70493 0.0
C563 C 0.0787 0.11425 0.9528 0.0
C564 C 0.10752 0.10936 0.08677 0.0
C565 C 0.07152 0.09363 0.06982 0.0
C566 C 0.05738 0.09593 1.00346 0.0
C567 C 0.11381 0.13136 0.97007 0.0
C568 C 0.12804 0.12895 1.03615 0.0
C569 C 0.06718 0.11068 0.88101 0.0
O570 O 0.15982 0.0812 0.82443 0.0
O571 O 0.20738 0.09982 0.75154 0.0
O572 O 0.1593 0.14805 0.64977 0.0
O573 O 0.13831 0.158 0.75863 0.0
O574 O 0.19176 0.04643 0.58873 0.0
O575 O 0.22194 0.10056 0.5968 0.0
O576 O 0.12089 0.09584 0.60498 0.0
O577 O 0.07638 0.11615 0.68511 0.0
O578 O 0.09435 0.05155 0.72095 0.0
O579 O 0.15648 0.03658 0.71068 0.0
C580 C 0.19551 0.09086 0.81289 0.0
O581 O 0.07585 0.13929 0.84113 0.0
O582 O 0.07567 0.07773 0.8534 0.0
C583 C 0.1496 0.17113 0.69929 0.0
C584 C 0.20506 0.07767 0.48678 0.0
C585 C 0.17551 0.088 0.3542 0.0
C586 C 0.17685 0.11885 0.40037 0.0
C587 C 0.19128 0.11373 0.46582 0.0
C588 C 0.20415 0.0469 0.44071 0.0
C589 C 0.18971 0.05201 0.37511 0.0
C590 C 0.21468 0.07055 0.55873 0.0
C591 C 0.08698 0.10921 0.62216 0.0
H592 H 0.05448 0.07898 0.10753 0.0
H593 H 0.03036 0.08226 0.99121 0.0
H594 H 0.13121 0.14506 0.93169 0.0
H595 H 0.15605 0.14094 1.04657 0.0
H596 H 0.16551 0.14677 0.38684 0.0
H597 H 0.19051 0.13781 0.50064 0.0
H598 H 0.21398 0.01865 0.45593 0.0
H599 H 0.18966 0.02768 0.34084 0.0
Tb600 Tb 0.0939 0.82342 0.45524 0.0
Tb601 Tb 0.08978 0.89402 0.34229 0.0
C602 C 0.16772 0.85738 0.39438 0.0
C603 C 0.09424 0.79445 0.63154 0.0
C604 C 0.09452 0.82583 0.76454 0.0
C605 C 0.12861 0.82289 0.72678 0.0
C606 C 0.12852 0.80723 0.66152 0.0
C607 C 0.06022 0.79685 0.66937 0.0
C608 C 0.06038 0.81209 0.73509 0.0
C609 C 0.09329 0.78195 0.55947 0.0
O610 O 0.10452 0.87752 0.50836 0.0
O611 O 0.08864 0.92695 0.43498 0.0
O612 O 0.03668 0.8973 0.39963 0.0
O613 O 0.03535 0.83368 0.42439 0.0
O614 O 0.11748 0.93389 0.27903 0.0
O615 O 0.05726 0.92192 0.26739 0.0
O616 O 0.08397 0.8396 0.28872 0.0
O617 O 0.09186 0.78919 0.3635 0.0
O618 O 0.14977 0.82552 0.40926 0.0
O619 O 0.14937 0.8887 0.37595 0.0
C620 C 0.09807 0.91403 0.49523 0.0
O621 O 0.06252 0.79096 0.52575 0.0
O622 O 0.12399 0.78825 0.52369 0.0
C623 C 0.01928 0.86758 0.42607 0.0
C624 C 0.09355 0.9252 0.16799 0.0
C625 C 0.0961 0.89574 1.034 0.0
C626 C 0.07672 0.93042 1.0487 0.0
C627 C 0.07528 0.94484 0.11512 0.0
C628 C 0.11397 0.89145 0.15319 0.0
C629 C 0.11505 0.87681 0.08734 0.0
C630 C 0.08766 0.93666 0.23934 0.0
C631 C 0.08679 0.80271 0.30191 0.0
H632 H 0.15542 0.83368 0.74671 0.0
H633 H 0.15528 0.80613 0.63394 0.0
H634 H 0.03332 0.78719 0.64791 0.0
H635 H 0.03365 0.81295 0.76275 0.0
H636 H 0.06234 0.94633 1.0091 0.0
H637 H 0.05915 0.97082 0.12541 0.0
H638 H 0.12795 0.87545 0.19319 0.0
H639 H 0.1296 0.84972 0.07912 0.0
C640 C 0.37515 0.97825 0.3316 0.0
C641 C 0.3929 0.94316 0.31608 0.0
H642 H 0.35442 0.03168 0.29535 0.0
C643 C 0.40437 0.93609 0.24868 0.0
H644 H 0.36602 0.9849 0.38268 0.0
C645 C 0.39765 0.96354 0.19798 0.0
C646 C 0.37889 0.99802 0.21393 0.0
H647 H 0.41823 0.90931 0.23498 0.0
H648 H 0.40633 0.95753 0.14641 0.0
C649 C 0.36817 0.00514 0.28117 0.0
C650 C 0.92892 0.59671 0.86235 0.0
C651 C 0.93352 0.6114 0.79635 0.0
H652 H 0.95293 0.59199 0.96255 0.0
C653 C 0.96629 0.63308 0.78146 0.0
H654 H 0.90406 0.57963 0.87531 0.0
C655 C 0.99354 0.64035 0.83126 0.0
C656 C 0.9889 0.62617 0.8971 0.0
H657 H 0.97098 0.64466 0.73129 0.0
H658 H 0.01887 0.65634 0.81767 0.0
C659 C 0.95672 0.60371 0.91226 0.0
C660 C 0.64199 0.04014 0.21232 0.0
C661 C 0.61432 0.01137 0.20239 0.0
H662 H 0.66025 0.0882 0.27219 0.0
C663 C 0.58204 0.01056 0.24491 0.0
H664 H 0.66718 0.04143 0.18045 0.0
C665 C 0.5789 0.0363 0.29923 0.0
C666 C 0.60727 0.06419 0.31029 0.0
H667 H 0.56013 0.98886 0.23827 0.0
H668 H 0.55433 0.03442 0.33251 0.0
C669 C 0.6382 0.06664 0.26514 0.0
C670 C 0.00759 0.36726 0.8233 0.0
C671 C 0.01497 0.37809 0.8905 0.0
H672 H 0.02756 0.36517 0.72134 0.0
C673 C 0.04936 0.39684 0.90611 0.0
H674 H 0.98084 0.3539 0.80946 0.0
C675 C 0.07649 0.40354 0.85518 0.0
C676 C 0.06922 0.39209 0.78778 0.0
H677 H 0.05544 0.4058 0.95755 0.0
H678 H 0.10307 0.41771 0.86866 0.0
C679 C 0.0343 0.37416 0.77251 0.0
C680 C 0.36438 0.54429 0.14903 0.0
C681 C 0.3897 0.51315 0.155 0.0
H682 H 0.34751 0.5935 0.09138 0.0
C683 C 0.41921 0.50881 0.10717 0.0
H684 H 0.34127 0.54814 0.18498 0.0
C685 C 0.42183 0.53383 1.05199 0.0
C686 C 0.39576 0.56429 1.04517 0.0
H687 H 0.43909 0.48499 0.11046 0.0
H688 H 0.44417 0.52938 1.01478 0.0
C689 C 0.36773 0.56996 0.09518 0.0
C690 C 0.53823 0.6501 0.07494 0.0
C691 C 0.56079 0.61687 0.07197 0.0
H692 H 0.49484 0.68388 1.02808 0.0
C693 C 0.55733 0.5922 1.01569 0.0
H694 H 0.54078 0.66993 0.11707 0.0
C695 C 0.53016 0.59966 0.96512 0.0
C696 C 0.50708 0.63265 0.96879 0.0
H697 H 0.57479 0.56655 1.01173 0.0
H698 H 0.52684 0.57938 0.92385 0.0
C699 C 0.51214 0.65821 1.02343 0.0
C700 C 0.63851 0.46019 0.1559 0.0
C701 C 0.61392 0.49203 0.16008 0.0
H702 H 0.65494 0.41005 0.09983 0.0
C703 C 0.58555 0.49696 0.11023 0.0
H704 H 0.66078 0.45591 0.19338 0.0
C705 C 0.58327 0.47169 1.05516 0.0
C706 C 0.60847 0.44037 1.05032 0.0
H707 H 0.56633 0.52137 0.11198 0.0
H708 H 0.56181 0.47661 1.01647 0.0
C709 C 0.63539 0.43422 0.10212 0.0
C710 C 0.44773 0.41475 1.01132 0.0
C711 C 0.44113 0.38821 0.06361 0.0
H712 H 0.48135 0.42893 0.92398 0.0
C713 C 0.46037 0.3529 0.06265 0.0
H714 H 0.43262 0.44193 1.01019 0.0
C715 C 0.48668 0.34469 1.01156 0.0
C716 C 0.49552 0.37226 0.96188 0.0
H717 H 0.45504 0.33158 0.10142 0.0
H718 H 0.5012 0.31727 1.01296 0.0
C719 C 0.47529 0.40717 0.96161 0.0
C720 C 0.87477 0.47135 0.83517 0.0
C721 C 0.89537 0.43804 0.81852 0.0
H722 H 0.85046 0.52375 0.8008 0.0
C723 C 0.90742 0.43264 0.75102 0.0
H724 H 0.86507 0.47661 0.88642 0.0
C725 C 0.89881 0.46016 0.70135 0.0
C726 C 0.8774 0.49289 0.71841 0.0
H727 H 0.92356 0.40731 0.73663 0.0
H728 H 0.90835 0.45567 0.6498 0.0
C729 C 0.86588 0.49829 0.78572 0.0
C730 C 0.46874 0.10202 0.39106 0.0
C731 C 0.49253 0.13439 0.38439 0.0
H732 H 0.42181 0.06968 0.34934 0.0
C733 C 0.48602 0.15985 0.33028 0.0
H734 H 0.47318 0.08178 0.4319 0.0
C735 C 0.45774 0.15229 0.28227 0.0
C736 C 0.43452 0.11967 0.28809 0.0
H737 H 0.50386 0.18496 0.32311 0.0
H738 H 0.45415 0.17196 0.24027 0.0
C739 C 0.43951 0.09504 0.34379 0.0
C740 C 0.09692 0.57059 0.75036 0.0
C741 C 0.10691 0.5623 0.81801 0.0
H742 H 0.09693 0.55081 0.64683 0.0
C743 C 0.12462 0.52713 0.83262 0.0
H744 H 0.08313 0.59752 0.73752 0.0
C745 C 0.13288 0.5012 0.78109 0.0
C746 C 0.12327 0.5093 0.71365 0.0
H747 H 0.13292 0.5198 0.88386 0.0
H748 H 0.14674 0.47467 0.79472 0.0
C749 C 0.10472 0.54401 0.69852 0.0
C750 C 0.55063 0.91838 0.34177 0.0
C751 C 0.56068 0.88841 0.29745 0.0
H752 H 0.51563 0.93608 0.42528 0.0
C753 C 0.54688 0.85133 0.3096 0.0
H754 H 0.56208 0.94697 0.33478 0.0
C755 C 0.52234 0.84455 0.36405 0.0
C756 C 0.50943 0.87514 0.40496 0.0
H757 H 0.55547 0.82752 0.27757 0.0
H758 H 0.51256 0.81548 0.37249 0.0
C759 C 0.52454 0.91202 0.39419 0.0
C760 C 0.89501 0.04167 0.65781 0.0
C761 C 0.87452 0.00807 0.64291 0.0
H762 H 0.91785 0.09454 0.61945 0.0
C763 C 0.86255 1.00134 0.5761 0.0
H764 H 0.90478 0.04733 0.70891 0.0
C765 C 0.87001 0.02776 0.52512 0.0
C766 C 0.88971 0.06186 0.53961 0.0
H767 H 0.84784 0.97528 0.56243 0.0
H768 H 0.86008 0.02138 0.47436 0.0
C769 C 0.90232 0.06858 0.60657 0.0
C770 C 0.02494 0.09359 0.56701 0.0
C771 C 0.05934 0.11422 0.567 0.0
H772 H 0.97468 0.07816 0.51173 0.0
C773 C 0.06906 0.1366 0.51051 0.0
H774 H 0.01716 0.07585 0.60982 0.0
C775 C 0.04389 0.13942 0.45563 0.0
C776 C 0.00968 0.1183 0.45508 0.0
H777 H 0.09584 0.15232 0.50936 0.0
H778 H 0.05108 0.15808 0.4137 0.0
C779 C 0.00082 0.09476 0.51067 0.0
C780 C 0.13073 0.93599 0.60075 0.0
C781 C 0.10215 0.94148 0.55157 0.0
H782 H 0.15915 0.95899 0.68821 0.0
C783 C 0.07737 0.97305 0.55726 0.0
H784 H 0.15009 0.91169 0.59756 0.0
C785 C 0.08162 0.99916 0.61056 0.0
C786 C 0.11145 0.99483 0.65777 0.0
H787 H 0.05476 0.97755 0.5205 0.0
H788 H 0.06271 0.02372 0.61286 0.0
C789 C 0.13575 0.9628 0.65278 0.0
C790 C 0.9637 0.90724 0.46735 0.0
C791 C 0.98551 0.87329 0.47014 0.0
H792 H 0.91902 0.94088 0.51325 0.0
C793 C 0.97776 0.84641 0.52145 0.0
H794 H 0.96909 0.92854 0.4286 0.0
C795 C 0.95042 0.85414 0.57096 0.0
C796 C 0.92928 0.88831 0.56899 0.0
H797 H 0.99388 0.81995 0.52529 0.0
H798 H 0.9458 0.83336 0.61091 0.0
C799 C 0.93528 0.91439 0.51583 0.0
C800 C 0.3467 0.24095 0.10557 0.0
C801 C 0.3468 0.21537 0.16034 0.0
H802 H 0.34706 0.29979 0.07379 0.0
C803 C 0.34774 0.23036 0.22663 0.0
H804 H 0.34602 0.23029 1.05404 0.0
C805 C 0.34867 0.26993 0.23804 0.0
C806 C 0.34819 0.29558 0.18348 0.0
H807 H 0.3482 0.21149 0.27016 0.0
H808 H 0.34962 0.28039 0.28969 0.0
C809 C 0.34709 0.28071 0.11705 0.0
C810 C 0.26691 0.61087 0.91797 0.0
C811 C 0.28541 0.64552 0.9015 0.0
H812 H 0.21522 0.58398 0.95286 0.0
C813 C 0.26511 0.6802 0.90812 0.0
H814 H 0.28197 0.58371 0.91431 0.0
C815 C 0.22736 0.68041 0.93081 0.0
C816 C 0.20877 0.64595 0.94787 0.0
H817 H 0.27851 0.70744 0.89625 0.0
H818 H 0.2127 0.70777 0.93478 0.0
C819 C 0.22892 0.61109 0.94119 0.0
C820 C 0.65205 0.76497 0.11742 0.0
C821 C 0.6515 0.79083 0.17203 0.0
H822 H 0.65292 0.70614 0.08559 0.0
C823 C 0.65154 0.77608 0.23838 0.0
H824 H 0.65203 0.77537 0.06579 0.0
C825 C 0.65157 0.7364 0.24985 0.0
C826 C 0.65221 0.71054 0.19526 0.0
H827 H 0.65083 0.79522 0.28169 0.0
H828 H 0.65112 0.72601 0.30148 0.0
C829 C 0.65274 0.72528 0.12891 0.0
C830 C 0.77634 0.38774 0.95825 0.0
C831 C 0.79753 0.35393 0.94774 0.0
H832 H 0.72168 0.41567 0.94781 0.0
C833 C 0.77947 0.3218 0.91889 0.0
H834 H 0.78997 0.41311 0.97912 0.0
C835 C 0.74081 0.32315 0.90144 0.0
C836 C 0.71961 0.35702 0.91064 0.0
H837 H 0.79542 0.29559 0.9095 0.0
H838 H 0.72754 0.2977 0.88012 0.0
C839 C 0.73764 0.38941 0.93912 0.0
C840 C 0.84682 0.73666 0.61784 0.0
C841 C 0.84639 0.71115 0.67257 0.0
H842 H 0.84582 0.79521 0.58562 0.0
C843 C 0.84583 0.72624 0.73892 0.0
H844 H 0.84737 0.72601 0.56629 0.0
C845 C 0.84524 0.76594 0.75025 0.0
C846 C 0.84469 0.79142 0.69547 0.0
H847 H 0.84588 0.70735 0.78243 0.0
H848 H 0.84462 0.77662 0.80178 0.0
C849 C 0.84574 0.77633 0.62915 0.0
C850 C 0.7715 0.11657 0.41356 0.0
C851 C 0.79408 0.14895 0.42832 0.0
H852 H 0.71598 0.09034 0.42035 0.0
C853 C 0.77757 0.17994 0.46344 0.0
H854 H 0.78372 0.09202 0.38756 0.0
C855 C 0.73891 0.17913 0.48157 0.0
C856 C 0.71628 0.14683 0.46682 0.0
H857 H 0.79441 0.20513 0.47592 0.0
H858 H 0.72659 0.20392 0.50674 0.0
C859 C 0.73299 0.11533 0.43337 0.0
C860 C 0.15401 0.26697 0.60762 0.0
C861 C 0.15456 0.29309 0.66176 0.0
H862 H 0.15243 0.20789 0.5771 0.0
C863 C 0.15303 0.27875 0.72839 0.0
H864 H 0.15504 0.27709 0.55585 0.0
C865 C 0.15112 0.23927 0.74069 0.0
C866 C 0.15124 0.21308 0.68671 0.0
H867 H 0.15299 0.29808 0.77145 0.0
H868 H 0.14994 0.22928 0.79254 0.0
C869 C 0.15267 0.22735 0.61998 0.0
C870 C 0.27056 0.82537 0.40938 0.0
C871 C 0.28765 0.85704 0.4416 0.0
H872 H 0.21907 0.80072 0.36941 0.0
C873 C 0.26534 0.8896 0.45613 0.0
H874 H 0.28733 0.80008 0.39705 0.0
C875 C 0.22651 0.89053 0.43786 0.0
C876 C 0.20939 0.85853 0.40641 0.0
H877 H 0.27814 0.91461 0.47984 0.0
H878 H 0.20966 0.91581 0.44985 0.0
C879 C 0.23169 0.82586 0.39298 0.0
C880 C 0.2075 0.08686 0.93801 0.0
C881 C 0.22219 0.09077 0.8718 0.0
H882 H 0.21927 0.08526 1.04468 0.0
C883 C 0.26186 0.0952 0.86367 0.0
H884 H 0.17718 0.08279 0.94636 0.0
C885 C 0.28611 0.09545 0.9203 0.0
C886 C 0.2712 0.09217 0.98643 0.0
H887 H 0.27424 0.0982 0.8137 0.0
H888 H 0.31664 0.09866 0.91228 0.0
C889 C 0.23159 0.08819 0.99465 0.0
C890 C 0.09286 0.71267 0.19296 0.0
C891 C 0.08681 0.72744 0.12719 0.0
H892 H 0.09763 0.72437 0.29924 0.0
C893 C 0.07942 0.76682 0.12006 0.0
H894 H 0.09861 0.68239 0.20081 0.0
C895 C 0.07831 0.79077 0.1771 0.0
C896 C 0.08527 0.77618 0.24267 0.0
H897 H 0.07426 0.77915 0.07058 0.0
H898 H 0.07207 0.8209 0.1695 0.0
C899 C 0.09222 0.73671 0.24985 0.0
C900 C 0.75837 0.92288 0.99512 0.0
C901 C 0.71957 0.91341 0.989 0.0
H902 H 0.81128 0.93287 0.9441 0.0
C903 C 0.70474 0.90503 0.9241 0.0
H904 H 0.77052 0.9299 1.04409 0.0
C905 C 0.72833 0.90557 0.86673 0.0
C906 C 0.76717 0.91534 0.87266 0.0
H907 H 0.67481 0.89761 0.91766 0.0
H908 H 0.71608 0.8985 0.81787 0.0
C909 C 0.78168 0.9245 0.93752 0.0
C910 C 0.91223 0.23429 0.11263 0.0
C911 C 0.9162 0.27411 0.12079 0.0
H912 H 0.90884 0.17949 0.16087 0.0
C913 C 0.91863 0.28928 0.18705 0.0
H914 H 0.91015 0.22169 0.06258 0.0
C915 C 0.91742 0.26516 0.24375 0.0
C916 C 0.91438 0.22524 0.23548 0.0
H917 H 0.92128 0.31997 0.19528 0.0
H918 H 0.91953 0.27773 0.29384 0.0
C919 C 0.91162 0.21015 0.16922 0.0
C920 C 0.24181 0.42561 0.36171 0.0
C921 C 0.28097 0.41783 0.36864 0.0
H922 H 0.18817 0.43341 0.41164 0.0
C923 C 0.29572 0.41027 0.43384 0.0
H924 H 0.22966 0.43186 0.31247 0.0
C925 C 0.27177 0.41 0.49071 0.0
C926 C 0.23258 0.41811 0.48396 0.0
H927 H 0.32588 0.40405 0.44092 0.0
H928 H 0.28399 0.40362 0.53984 0.0
C929 C 0.21808 0.42639 0.41882 0.0
C930 C 0.4125 0.71326 0.66819 0.0
C931 C 0.40749 0.72816 0.73427 0.0
H932 H 0.41493 0.72477 0.56133 0.0
C933 C 0.40224 0.76784 0.74187 0.0
H934 H 0.41774 0.68299 0.66027 0.0
C935 C 0.40185 0.7918 0.68512 0.0
C936 C 0.40588 0.77685 0.61907 0.0
H937 H 0.39839 0.7805 0.79154 0.0
H938 H 0.39821 0.82226 0.69309 0.0
C939 C 0.41107 0.73719 0.61118 0.0
C940 C 0.7061 0.59033 0.44357 0.0
C941 C 0.72144 0.5884 0.37751 0.0
H942 H 0.71727 0.59242 0.55045 0.0
C943 C 0.76135 0.58735 0.36984 0.0
H944 H 0.67542 0.59164 0.45145 0.0
C945 C 0.78525 0.58732 0.42689 0.0
C946 C 0.76987 0.58902 0.49295 0.0
H947 H 0.7741 0.586 0.31994 0.0
H948 H 0.81595 0.5862 0.41907 0.0
C949 C 0.73001 0.59097 0.50055 0.0
C950 C 0.58155 0.21514 0.68473 0.0
C951 C 0.59261 0.22911 0.62047 0.0
H952 H 0.5755 0.22656 0.7912 0.0
C953 C 0.6054 0.26717 0.61576 0.0
H954 H 0.57104 0.18608 0.69049 0.0
C955 C 0.60754 0.29035 0.67362 0.0
C956 C 0.59716 0.27629 0.738 0.0
H957 H 0.61441 0.27895 0.56764 0.0
H958 H 0.61788 0.31935 0.66785 0.0
C959 C 0.58413 0.23829 0.74283 0.0
C960 C 0.32241 0.06467 0.62435 0.0
C961 C 0.32781 0.09393 0.57623 0.0
H962 H 0.33498 0.04393 0.72401 0.0
C963 C 0.35076 0.12567 0.59392 0.0
H964 H 0.30441 0.04013 0.61304 0.0
C965 C 0.36808 0.12793 0.65771 0.0
C966 C 0.36312 0.09841 0.70533 0.0
H967 H 0.35614 0.14843 0.55788 0.0
H968 H 0.38605 0.15246 0.66924 0.0
C969 C 0.33994 0.06682 0.688 0.0
C970 C 0.06041 0.6752 0.48536 0.0
C971 C 0.08704 0.66423 0.53519 0.0
H972 H 0.04019 0.66746 0.38378 0.0
C973 C 0.11374 0.63526 0.51942 0.0
H974 H 0.03976 0.69773 0.49549 0.0
C975 C 0.11392 0.6178 0.45552 0.0
C976 C 0.08741 0.62881 0.40551 0.0
H977 H 0.13421 0.62558 0.55695 0.0
H978 H 0.13458 0.59525 0.44564 0.0
C979 C 0.06062 0.65776 0.42133 0.0
C980 C 0.62898 0.88684 0.59183 0.0
C981 C 0.65805 0.91395 0.57945 0.0
H982 H 0.58971 0.86276 0.66343 0.0
C983 C 0.67036 0.93739 0.63336 0.0
H984 H 0.61832 0.86872 0.55136 0.0
C985 C 0.65386 0.93402 0.69766 0.0
C986 C 0.62455 0.90713 0.70989 0.0
H987 H 0.69309 0.95815 0.62608 0.0
H988 H 0.66443 0.95222 0.7381 0.0
C989 C 0.61249 0.88345 0.65616 0.0
C990 C 0.89025 0.37656 0.45249 0.0
C991 C 0.91765 0.36734 0.4029 0.0
H992 H 0.87031 0.36752 0.55367 0.0
C993 C 0.94599 0.33995 0.41855 0.0
H994 H 0.86833 0.39785 0.44253 0.0
C995 C 0.9471 0.32251 0.4823 0.0
C996 C 0.91986 0.33195 0.53202 0.0
H997 H 0.96711 0.33161 0.38119 0.0
H998 H 0.96912 0.30134 0.49245 0.0
C999 C 0.89135 0.35909 0.51621 0.0
C1000 C 0.387 0.38912 0.7037 0.0
C1001 C 0.37438 0.41189 0.64933 0.0
H1002 H 0.38153 0.3755 0.80887 0.0
C1003 C 0.34452 0.43833 0.66079 0.0
H1004 H 0.41025 0.36883 0.69704 0.0
C1005 C 0.328 0.44215 0.72502 0.0
C1006 C 0.34083 0.41957 0.77949 0.0
H1007 H 0.33354 0.45584 0.61986 0.0
H1008 H 0.30488 0.46257 0.73182 0.0
C1009 C 0.37047 0.39292 0.76789 0.0
C1010 C 0.366 0.66766 0.37204 0.0
C1011 C 0.39572 0.66021 0.32569 0.0
H1012 H 0.34102 0.65584 0.46803 0.0
C1013 C 0.4249 0.63456 0.34568 0.0
H1014 H 0.34326 0.68764 0.35996 0.0
C1015 C 0.42462 0.61749 0.40996 0.0
C1016 C 0.39468 0.62471 0.4561 0.0
H1017 H 0.44804 0.62723 0.31163 0.0
H1018 H 0.44838 0.59905 0.42345 0.0
C1019 C 0.36517 0.64981 0.43545 0.0
C1020 C 0.6732 0.56197 0.73412 0.0
C1021 C 0.65823 0.58265 0.78933 0.0
H1022 H 0.66942 0.54933 0.62821 0.0
C1023 C 0.62618 0.60644 0.77848 0.0
H1024 H 0.69809 0.54372 0.74037 0.0
C1025 C 0.60967 0.60962 0.71415 0.0
C1026 C 0.62469 0.58905 0.65886 0.0
H1027 H 0.6134 0.6222 0.82004 0.0
H1028 H 0.58472 0.6278 0.70798 0.0
C1029 C 0.65668 0.56515 0.66974 0.0
C1030 C 0.57685 0.38306 0.42043 0.0
C1031 C 0.6107 0.3832 0.45935 0.0
H1032 H 0.54927 0.36683 0.32797 0.0
C1033 C 0.64345 0.3654 0.43177 0.0
H1034 H 0.55076 0.39579 0.43979 0.0
C1035 C 0.64224 0.34756 0.36813 0.0
C1036 C 0.60839 0.34736 0.32929 0.0
H1037 H 0.6703 0.36522 0.45922 0.0
H1038 H 0.66789 0.33348 0.34989 0.0
C1039 C 0.57578 0.36565 0.35637 0.0
C1040 C 0.85255 0.62176 0.09833 0.0
C1041 C 0.82757 0.59136 0.08202 0.0
H1042 H 0.88924 0.64742 0.17282 0.0
C1043 C 0.81994 0.56344 0.1316 0.0
H1044 H 0.8596 0.64343 0.06111 0.0
C1045 C 0.83721 0.56559 0.19544 0.0
C1046 C 0.86243 0.59579 0.21145 0.0
H1047 H 0.80036 0.54001 0.12127 0.0
H1048 H 0.83046 0.54379 0.23262 0.0
C1049 C 0.86968 0.624 0.16231 0.0
C1050 C 0.6346 0.15379 0.91655 0.0
C1051 C 0.60527 0.12813 0.89736 0.0
H1052 H 0.65729 0.19166 0.99158 0.0
C1053 C 0.57644 0.12007 0.94514 0.0
H1054 H 0.6579 0.16046 0.8825 0.0
C1055 C 0.57709 0.1369 1.00972 0.0
C1056 C 0.60615 0.16299 1.02838 0.0
H1057 H 0.55289 0.10112 0.9327 0.0
H1058 H 0.55483 0.12901 1.04512 0.0
C1059 C 0.63472 0.1713 0.98037 0.0
C1060 C 0.12712 0.434 0.15823 0.0
C1061 C 0.13568 0.40234 0.19993 0.0
H1062 H 0.13586 0.46207 0.06334 0.0
C1063 C 0.16154 0.37452 0.17543 0.0
H1064 H 0.10793 0.45645 0.17531 0.0
C1065 C 0.1787 0.37849 0.11187 0.0
C1066 C 0.17006 0.41005 0.07011 0.0
H1067 H 0.16859 0.3494 0.20519 0.0
H1068 H 0.19909 0.35685 0.0959 0.0
C1069 C 0.14383 0.43765 0.09416 0.0
C1070 C 0.43459 0.86136 1.00238 0.0
C1071 C 0.40261 0.84313 1.03155 0.0
H1072 H 0.45753 0.8919 0.91786 0.0
C1073 C 0.36781 0.84361 0.99551 0.0
H1074 H 0.46179 0.86229 1.0287 0.0
C1075 C 0.36502 0.86183 0.93255 0.0
C1076 C 0.39708 0.87971 0.903 0.0
H1077 H 0.3426 0.82956 1.01551 0.0
H1078 H 0.33751 0.86194 0.90723 0.0
C1079 C 0.43193 0.87914 0.93899 0.0
C1080 C 0.85551 0.93656 0.26176 0.0
C1081 C 0.82939 0.90883 0.28537 0.0
H1082 H 0.89134 0.95568 0.18085 0.0
C1083 C 0.82069 0.87749 0.24291 0.0
H1084 H 0.86349 0.96085 0.29307 0.0
C1085 C 0.83779 0.87378 0.17925 0.0
C1086 C 0.86364 0.90167 0.15527 0.0
H1087 H 0.80032 0.85579 0.25844 0.0
H1088 H 0.83074 0.84878 0.14904 0.0
C1089 C 0.87217 0.93317 0.19755 0.0
C1090 C 0.90062 0.1097 0.89572 0.0
C1091 C 0.91912 0.12624 0.95202 0.0
H1092 H 0.88919 0.11266 0.7893 0.0
C1093 C 0.94091 0.15984 0.94199 0.0
H1094 H 0.88419 0.08349 0.90095 0.0
C1095 C 0.94403 0.17639 0.87766 0.0
C1096 C 0.92515 0.16004 0.82171 0.0
H1097 H 0.95506 0.17387 0.98411 0.0
H1098 H 0.96068 0.20244 0.872 0.0
C1099 C 0.90351 0.12642 0.83155 0.0
C1100 C 0.14695 0.13309 0.18575 0.0
C1101 C 0.12442 0.1041 0.15584 0.0
H1102 H 0.18134 0.15053 0.27012 0.0
C1103 C 0.11921 0.06955 0.19168 0.0
H1104 H 0.15144 0.16023 0.16026 0.0
C1105 C 0.13589 0.06424 0.25553 0.0
C1106 C 0.15843 0.09325 0.28535 0.0
H1107 H 0.10265 0.04623 0.17009 0.0
H1108 H 0.13066 0.03748 0.28185 0.0
C1109 C 0.16381 0.1277 0.24938 0.0
C1110 C 0.0633 0.86547 0.85702 0.0
C1111 C 0.09466 0.84366 0.83369 0.0
H1112 H 0.03865 0.89817 0.93784 0.0
C1113 C 0.12656 0.83961 0.87673 0.0
H1114 H 0.03836 0.86984 0.82534 0.0
C1115 C 0.12729 0.85709 0.94054 0.0
C1116 C 0.09583 0.87861 0.96426 0.0
H1117 H 0.15107 0.8226 0.86154 0.0
H1118 H 0.15283 0.85378 0.97108 0.0
C1119 C 0.06377 0.88246 0.92144 0.0
loop_
_geom_bond_atom_site_label_1
_geom_bond_atom_site_label_2
_geom_bond_distance
_geom_bond_site_symmetry_2
_ccdc_geom_bond_type
Tb0 C9 2.764 1_554 S
Tb0 O10 2.325 . S
Tb0 O13 2.303 . S
Tb0 O17 2.322 . S
Tb0 O18 2.349 . S
Tb0 O21 2.415 1_554 S
Tb0 O22 2.399 1_554 S
Tb1 O11 2.322 . S
Tb1 O12 2.349 . S
Tb1 O14 2.415 . S
Tb1 O15 2.399 . S
Tb1 O16 2.325 . S
Tb1 O19 2.303 . S
Tb1 C30 2.764 . S
C2 O18 1.261 . S
C2 O19 1.257 . S
C3 C6 1.358 . S
C3 C7 1.332 . S
C3 C9 1.504 . S
C4 C5 1.373 . S
C4 C8 1.308 . S
C5 C4 1.373 . S
C5 C6 1.429 . S
C5 H32 0.932 . S
C6 C3 1.358 . S
C6 C5 1.429 . S
C6 H33 0.930 . S
C7 C3 1.332 . S
C7 C8 1.394 . S
C7 H34 0.932 . S
C8 C4 1.308 . S
C8 C7 1.394 . S
C8 H35 0.929 . S
C9 Tb0 2.764 1_556 S
C9 C3 1.504 . S
C9 O21 1.239 . S
C9 O22 1.263 . S
O10 Tb0 2.325 . S
O10 C20 1.236 . S
O11 Tb1 2.322 . S
O11 C20 1.257 . S
O12 Tb1 2.349 . S
O12 C23 1.261 . S
O13 Tb0 2.303 . S
O13 C23 1.257 . S
O14 Tb1 2.415 . S
O14 C30 1.239 . S
O15 Tb1 2.399 . S
O15 C30 1.263 . S
O16 Tb1 2.325 . S
O16 C31 1.236 . S
O17 Tb0 2.322 . S
O17 C31 1.257 . S
O18 Tb0 2.349 . S
O18 C2 1.261 . S
O19 Tb1 2.303 . S
O19 C2 1.257 . S
C20 O10 1.236 . S
C20 O11 1.257 . S
O21 Tb0 2.415 1_556 S
O21 C9 1.239 . S
O22 Tb0 2.399 1_556 S
O22 C9 1.263 . S
C23 O12 1.261 . S
C23 O13 1.257 . S
C24 C27 1.358 . S
C24 C28 1.332 . S
C24 C30 1.504 . S
C25 C26 1.373 . S
C25 C29 1.308 . S
C26 C25 1.373 . S
C26 C27 1.429 . S
C26 H36 0.932 . S
C27 C24 1.358 . S
C27 C26 1.429 . S
C27 H37 0.930 . S
C28 C24 1.332 . S
C28 C29 1.394 . S
C28 H38 0.932 . S
C29 C25 1.308 . S
C29 C28 1.394 . S
C29 H39 0.929 . S
C30 Tb1 2.764 . S
C30 O14 1.239 . S
C30 O15 1.263 . S
C30 C24 1.504 . S
C31 O16 1.236 . S
C31 O17 1.257 . S
H32 C5 0.932 . S
H33 C6 0.930 . S
H34 C7 0.932 . S
H35 C8 0.929 . S
H36 C26 0.932 . S
H37 C27 0.930 . S
H38 C28 0.932 . S
H39 C29 0.929 . S
Tb40 C49 2.764 . S
Tb40 O50 2.325 . S
Tb40 O53 2.303 . S
Tb40 O57 2.322 . S
Tb40 O58 2.349 . S
Tb40 O61 2.415 . S
Tb40 O62 2.399 . S
Tb41 O51 2.322 . S
Tb41 O52 2.349 . S
Tb41 O54 2.415 1_556 S
Tb41 O55 2.399 1_556 S
Tb41 O56 2.325 . S
Tb41 O59 2.303 . S
Tb41 C70 2.764 1_556 S
C42 O58 1.261 . S
C42 O59 1.257 . S
C43 C46 1.358 . S
C43 C47 1.332 . S
C43 C49 1.504 . S
C44 C45 1.373 . S
C44 C48 1.308 . S
C45 C44 1.373 . S
C45 C46 1.429 . S
C45 H72 0.932 . S
C46 C43 1.358 . S
C46 C45 1.429 . S
C46 H73 0.930 . S
C47 C43 1.332 . S
C47 C48 1.394 . S
C47 H74 0.932 . S
C48 C44 1.308 . S
C48 C47 1.394 . S
C48 H75 0.929 . S
C49 Tb40 2.764 . S
C49 C43 1.504 . S
C49 O61 1.239 . S
C49 O62 1.263 . S
O50 Tb40 2.325 . S
O50 C60 1.236 . S
O51 Tb41 2.322 . S
O51 C60 1.257 . S
O52 Tb41 2.349 . S
O52 C63 1.261 . S
O53 Tb40 2.303 . S
O53 C63 1.257 . S
O54 Tb41 2.415 1_554 S
O54 C70 1.239 . S
O55 Tb41 2.399 1_554 S
O55 C70 1.263 . S
O56 Tb41 2.325 . S
O56 C71 1.236 . S
O57 Tb40 2.322 . S
O57 C71 1.257 . S
O58 Tb40 2.349 . S
O58 C42 1.261 . S
O59 Tb41 2.303 . S
O59 C42 1.257 . S
C60 O50 1.236 . S
C60 O51 1.257 . S
O61 Tb40 2.415 . S
O61 C49 1.239 . S
O62 Tb40 2.399 . S
O62 C49 1.263 . S
C63 O52 1.261 . S
C63 O53 1.257 . S
C64 C67 1.358 . S
C64 C68 1.332 . S
C64 C70 1.504 . S
C65 C66 1.373 . S
C65 C69 1.308 . S
C66 C65 1.373 . S
C66 C67 1.429 . S
C66 H76 0.932 . S
C67 C64 1.358 . S
C67 C66 1.429 . S
C67 H77 0.930 . S
C68 C64 1.332 . S
C68 C69 1.394 . S
C68 H78 0.932 . S
C69 C65 1.308 . S
C69 C68 1.394 . S
C69 H79 0.929 . S
C70 Tb41 2.764 1_554 S
C70 O54 1.239 . S
C70 O55 1.263 . S
C70 C64 1.504 . S
C71 O56 1.236 . S
C71 O57 1.257 . S
H72 C45 0.932 . S
H73 C46 0.930 . S
H74 C47 0.932 . S
H75 C48 0.929 . S
H76 C66 0.932 . S
H77 C67 0.930 . S
H78 C68 0.932 . S
H79 C69 0.929 . S
Tb80 C89 2.764 1_554 S
Tb80 O90 2.325 . S
Tb80 O93 2.303 . S
Tb80 O97 2.322 . S
Tb80 O98 2.349 . S
Tb80 O101 2.415 1_554 S
Tb80 O102 2.399 1_554 S
Tb81 O91 2.322 . S
Tb81 O92 2.349 . S
Tb81 O94 2.415 . S
Tb81 O95 2.399 . S
Tb81 O96 2.325 . S
Tb81 O99 2.303 . S
Tb81 C110 2.764 . S
C82 O98 1.261 . S
C82 O99 1.257 . S
C83 C86 1.358 . S
C83 C87 1.332 . S
C83 C89 1.504 . S
C84 C85 1.373 . S
C84 C88 1.308 . S
C85 C84 1.373 . S
C85 C86 1.429 . S
C85 H112 0.932 . S
C86 C83 1.358 . S
C86 C85 1.429 . S
C86 H113 0.930 . S
C87 C83 1.332 . S
C87 C88 1.394 . S
C87 H114 0.932 . S
C88 C84 1.308 . S
C88 C87 1.394 . S
C88 H115 0.929 . S
C89 Tb80 2.764 1_556 S
C89 C83 1.504 . S
C89 O101 1.239 . S
C89 O102 1.263 . S
O90 Tb80 2.325 . S
O90 C100 1.236 . S
O91 Tb81 2.322 . S
O91 C100 1.257 . S
O92 Tb81 2.349 . S
O92 C103 1.261 . S
O93 Tb80 2.303 . S
O93 C103 1.257 . S
O94 Tb81 2.415 . S
O94 C110 1.239 . S
O95 Tb81 2.399 . S
O95 C110 1.263 . S
O96 Tb81 2.325 . S
O96 C111 1.236 . S
O97 Tb80 2.322 . S
O97 C111 1.257 . S
O98 Tb80 2.349 . S
O98 C82 1.261 . S
O99 Tb81 2.303 . S
O99 C82 1.257 . S
C100 O90 1.236 . S
C100 O91 1.257 . S
O101 Tb80 2.415 1_556 S
O101 C89 1.239 . S
O102 Tb80 2.399 1_556 S
O102 C89 1.263 . S
C103 O92 1.261 . S
C103 O93 1.257 . S
C104 C107 1.358 . S
C104 C108 1.332 . S
C104 C110 1.504 . S
C105 C106 1.373 . S
C105 C109 1.308 . S
C106 C105 1.373 . S
C106 C107 1.429 . S
C106 H116 0.932 . S
C107 C104 1.358 . S
C107 C106 1.429 . S
C107 H117 0.930 . S
C108 C104 1.332 . S
C108 C109 1.394 . S
C108 H118 0.932 . S
C109 C105 1.308 . S
C109 C108 1.394 . S
C109 H119 0.929 . S
C110 Tb81 2.764 . S
C110 O94 1.239 . S
C110 O95 1.263 . S
C110 C104 1.504 . S
C111 O96 1.236 . S
C111 O97 1.257 . S
H112 C85 0.932 . S
H113 C86 0.930 . S
H114 C87 0.932 . S
H115 C88 0.929 . S
H116 C106 0.932 . S
H117 C107 0.930 . S
H118 C108 0.932 . S
H119 C109 0.929 . S
Tb120 C129 2.764 . S
Tb120 O130 2.325 . S
Tb120 O133 2.303 . S
Tb120 O137 2.322 . S
Tb120 O138 2.349 . S
Tb120 O141 2.415 . S
Tb120 O142 2.399 . S
Tb121 O131 2.322 . S
Tb121 O132 2.349 . S
Tb121 O134 2.415 1_556 S
Tb121 O135 2.399 1_556 S
Tb121 O136 2.325 . S
Tb121 O139 2.303 . S
Tb121 C150 2.764 1_556 S
C122 O138 1.261 . S
C122 O139 1.257 . S
C123 C126 1.358 . S
C123 C127 1.332 . S
C123 C129 1.504 . S
C124 C125 1.373 . S
C124 C128 1.308 . S
C125 C124 1.373 . S
C125 C126 1.429 . S
C125 H152 0.932 . S
C126 C123 1.358 . S
C126 C125 1.429 . S
C126 H153 0.930 . S
C127 C123 1.332 . S
C127 C128 1.394 . S
C127 H154 0.932 . S
C128 C124 1.308 . S
C128 C127 1.394 . S
C128 H155 0.929 . S
C129 Tb120 2.764 . S
C129 C123 1.504 . S
C129 O141 1.239 . S
C129 O142 1.263 . S
O130 Tb120 2.325 . S
O130 C140 1.236 . S
O131 Tb121 2.322 . S
O131 C140 1.257 . S
O132 Tb121 2.349 . S
O132 C143 1.261 . S
O133 Tb120 2.303 . S
O133 C143 1.257 . S
O134 Tb121 2.415 1_554 S
O134 C150 1.239 . S
O135 Tb121 2.399 1_554 S
O135 C150 1.263 . S
O136 Tb121 2.325 . S
O136 C151 1.236 . S
O137 Tb120 2.322 . S
O137 C151 1.257 . S
O138 Tb120 2.349 . S
O138 C122 1.261 . S
O139 Tb121 2.303 . S
O139 C122 1.257 . S
C140 O130 1.236 . S
C140 O131 1.257 . S
O141 Tb120 2.415 . S
O141 C129 1.239 . S
O142 Tb120 2.399 . S
O142 C129 1.263 . S
C143 O132 1.261 . S
C143 O133 1.257 . S
C144 C147 1.358 . S
C144 C148 1.332 . S
C144 C150 1.504 . S
C145 C146 1.373 . S
C145 C149 1.308 . S
C146 C145 1.373 . S
C146 C147 1.429 . S
C146 H156 0.932 . S
C147 C144 1.358 . S
C147 C146 1.429 . S
C147 H157 0.930 . S
C148 C144 1.332 . S
C148 C149 1.394 . S
C148 H158 0.932 . S
C149 C145 1.308 . S
C149 C148 1.394 . S
C149 H159 0.929 . S
C150 Tb121 2.764 1_554 S
C150 O134 1.239 . S
C150 O135 1.263 . S
C150 C144 1.504 . S
C151 O136 1.236 . S
C151 O137 1.257 . S
H152 C125 0.932 . S
H153 C126 0.930 . S
H154 C127 0.932 . S
H155 C128 0.929 . S
H156 C146 0.932 . S
H157 C147 0.930 . S
H158 C148 0.932 . S
H159 C149 0.929 . S
Tb160 C169 2.764 . S
Tb160 O170 2.325 . S
Tb160 O173 2.303 . S
Tb160 O177 2.322 . S
Tb160 O178 2.349 . S
Tb160 O181 2.415 . S
Tb160 O182 2.399 . S
Tb161 O171 2.322 . S
Tb161 O172 2.349 . S
Tb161 O174 2.415 1_554 S
Tb161 O175 2.399 1_554 S
Tb161 O176 2.325 . S
Tb161 O179 2.303 . S
Tb161 C190 2.764 1_554 S
C162 O178 1.261 . S
C162 O179 1.257 . S
C163 C166 1.358 . S
C163 C167 1.332 . S
C163 C169 1.504 . S
C164 C165 1.373 . S
C164 C168 1.308 . S
C165 C164 1.373 . S
C165 C166 1.429 . S
C165 H192 0.932 . S
C166 C163 1.358 . S
C166 C165 1.429 . S
C166 H193 0.930 . S
C167 C163 1.332 . S
C167 C168 1.394 . S
C167 H194 0.932 . S
C168 C164 1.308 . S
C168 C167 1.394 . S
C168 H195 0.929 . S
C169 Tb160 2.764 . S
C169 C163 1.504 . S
C169 O181 1.239 . S
C169 O182 1.263 . S
O170 Tb160 2.325 . S
O170 C180 1.236 . S
O171 Tb161 2.322 . S
O171 C180 1.257 . S
O172 Tb161 2.349 . S
O172 C183 1.261 . S
O173 Tb160 2.303 . S
O173 C183 1.257 . S
O174 Tb161 2.415 1_556 S
O174 C190 1.239 . S
O175 Tb161 2.399 1_556 S
O175 C190 1.263 . S
O176 Tb161 2.325 . S
O176 C191 1.236 . S
O177 Tb160 2.322 . S
O177 C191 1.257 . S
O178 Tb160 2.349 . S
O178 C162 1.261 . S
O179 Tb161 2.303 . S
O179 C162 1.257 . S
C180 O170 1.236 . S
C180 O171 1.257 . S
O181 Tb160 2.415 . S
O181 C169 1.239 . S
O182 Tb160 2.399 . S
O182 C169 1.263 . S
C183 O172 1.261 . S
C183 O173 1.257 . S
C184 C187 1.358 . S
C184 C188 1.332 . S
C184 C190 1.504 . S
C185 C186 1.373 . S
C185 C189 1.308 . S
C186 C185 1.373 . S
C186 C187 1.429 . S
C186 H196 0.932 . S
C187 C184 1.358 . S
C187 C186 1.429 . S
C187 H197 0.930 . S
C188 C184 1.332 . S
C188 C189 1.394 . S
C188 H198 0.932 . S
C189 C185 1.308 . S
C189 C188 1.394 . S
C189 H199 0.929 . S
C190 Tb161 2.764 1_556 S
C190 O174 1.239 . S
C190 O175 1.263 . S
C190 C184 1.504 . S
C191 O176 1.236 . S
C191 O177 1.257 . S
H192 C165 0.932 . S
H193 C166 0.930 . S
H194 C167 0.932 . S
H195 C168 0.929 . S
H196 C186 0.932 . S
H197 C187 0.930 . S
H198 C188 0.932 . S
H199 C189 0.929 . S
Tb200 C209 2.764 1_556 S
Tb200 O210 2.325 . S
Tb200 O213 2.303 . S
Tb200 O217 2.322 . S
Tb200 O218 2.349 . S
Tb200 O221 2.415 1_556 S
Tb200 O222 2.399 1_556 S
Tb201 O211 2.322 . S
Tb201 O212 2.349 . S
Tb201 O214 2.415 . S
Tb201 O215 2.399 . S
Tb201 O216 2.325 . S
Tb201 O219 2.303 . S
Tb201 C230 2.764 . S
C202 O218 1.261 . S
C202 O219 1.257 . S
C203 C206 1.358 . S
C203 C207 1.332 . S
C203 C209 1.504 . S
C204 C205 1.373 . S
C204 C208 1.308 . S
C205 C204 1.373 . S
C205 C206 1.429 . S
C205 H232 0.932 . S
C206 C203 1.358 . S
C206 C205 1.429 . S
C206 H233 0.930 . S
C207 C203 1.332 . S
C207 C208 1.394 . S
C207 H234 0.932 . S
C208 C204 1.308 . S
C208 C207 1.394 . S
C208 H235 0.929 . S
C209 Tb200 2.764 1_554 S
C209 C203 1.504 . S
C209 O221 1.239 . S
C209 O222 1.263 . S
O210 Tb200 2.325 . S
O210 C220 1.236 . S
O211 Tb201 2.322 . S
O211 C220 1.257 . S
O212 Tb201 2.349 . S
O212 C223 1.261 . S
O213 Tb200 2.303 . S
O213 C223 1.257 . S
O214 Tb201 2.415 . S
O214 C230 1.239 . S
O215 Tb201 2.399 . S
O215 C230 1.263 . S
O216 Tb201 2.325 . S
O216 C231 1.236 . S
O217 Tb200 2.322 . S
O217 C231 1.257 . S
O218 Tb200 2.349 . S
O218 C202 1.261 . S
O219 Tb201 2.303 . S
O219 C202 1.257 . S
C220 O210 1.236 . S
C220 O211 1.257 . S
O221 Tb200 2.415 1_554 S
O221 C209 1.239 . S
O222 Tb200 2.399 1_554 S
O222 C209 1.263 . S
C223 O212 1.261 . S
C223 O213 1.257 . S
C224 C227 1.358 . S
C224 C228 1.332 . S
C224 C230 1.504 . S
C225 C226 1.373 . S
C225 C229 1.308 . S
C226 C225 1.373 . S
C226 C227 1.429 . S
C226 H236 0.932 . S
C227 C224 1.358 . S
C227 C226 1.429 . S
C227 H237 0.930 . S
C228 C224 1.332 . S
C228 C229 1.394 . S
C228 H238 0.932 . S
C229 C225 1.308 . S
C229 C228 1.394 . S
C229 H239 0.929 . S
C230 Tb201 2.764 . S
C230 O214 1.239 . S
C230 O215 1.263 . S
C230 C224 1.504 . S
C231 O216 1.236 . S
C231 O217 1.257 . S
H232 C205 0.932 . S
H233 C206 0.930 . S
H234 C207 0.932 . S
H235 C208 0.929 . S
H236 C226 0.932 . S
H237 C227 0.930 . S
H238 C228 0.932 . S
H239 C229 0.929 . S
Tb240 C249 2.764 . S
Tb240 O250 2.325 . S
Tb240 O253 2.303 . S
Tb240 O257 2.322 . S
Tb240 O258 2.349 . S
Tb240 O261 2.415 . S
Tb240 O262 2.399 . S
Tb241 O251 2.322 . S
Tb241 O252 2.349 . S
Tb241 O254 2.415 1_554 S
Tb241 O255 2.399 1_554 S
Tb241 O256 2.325 . S
Tb241 O259 2.303 . S
Tb241 C270 2.764 1_554 S
C242 O258 1.261 . S
C242 O259 1.257 . S
C243 C246 1.358 . S
C243 C247 1.332 . S
C243 C249 1.504 . S
C244 C245 1.373 . S
C244 C248 1.308 . S
C245 C244 1.373 . S
C245 C246 1.429 . S
C245 H272 0.932 . S
C246 C243 1.358 . S
C246 C245 1.429 . S
C246 H273 0.930 . S
C247 C243 1.332 . S
C247 C248 1.394 . S
C247 H274 0.932 . S
C248 C244 1.308 . S
C248 C247 1.394 . S
C248 H275 0.929 . S
C249 Tb240 2.764 . S
C249 C243 1.504 . S
C249 O261 1.239 . S
C249 O262 1.263 . S
O250 Tb240 2.325 . S
O250 C260 1.236 . S
O251 Tb241 2.322 . S
O251 C260 1.257 . S
O252 Tb241 2.349 . S
O252 C263 1.261 . S
O253 Tb240 2.303 . S
O253 C263 1.257 . S
O254 Tb241 2.415 1_556 S
O254 C270 1.239 . S
O255 Tb241 2.399 1_556 S
O255 C270 1.263 . S
O256 Tb241 2.325 . S
O256 C271 1.236 . S
O257 Tb240 2.322 . S
O257 C271 1.257 . S
O258 Tb240 2.349 . S
O258 C242 1.261 . S
O259 Tb241 2.303 . S
O259 C242 1.257 . S
C260 O250 1.236 . S
C260 O251 1.257 . S
O261 Tb240 2.415 . S
O261 C249 1.239 . S
O262 Tb240 2.399 . S
O262 C249 1.263 . S
C263 O252 1.261 . S
C263 O253 1.257 . S
C264 C267 1.358 . S
C264 C268 1.332 . S
C264 C270 1.504 . S
C265 C266 1.373 . S
C265 C269 1.308 . S
C266 C265 1.373 . S
C266 C267 1.429 . S
C266 H276 0.932 . S
C267 C264 1.358 . S
C267 C266 1.429 . S
C267 H277 0.930 . S
C268 C264 1.332 . S
C268 C269 1.394 . S
C268 H278 0.932 . S
C269 C265 1.308 . S
C269 C268 1.394 . S
C269 H279 0.929 . S
C270 Tb241 2.764 1_556 S
C270 O254 1.239 . S
C270 O255 1.263 . S
C270 C264 1.504 . S
C271 O256 1.236 . S
C271 O257 1.257 . S
H272 C245 0.932 . S
H273 C246 0.930 . S
H274 C247 0.932 . S
H275 C248 0.929 . S
H276 C266 0.932 . S
H277 C267 0.930 . S
H278 C268 0.932 . S
H279 C269 0.929 . S
Tb280 C289 2.764 1_556 S
Tb280 O290 2.325 . S
Tb280 O293 2.303 . S
Tb280 O297 2.322 . S
Tb280 O298 2.349 . S
Tb280 O301 2.415 1_556 S
Tb280 O302 2.399 1_556 S
Tb281 O291 2.322 . S
Tb281 O292 2.349 . S
Tb281 O294 2.415 . S
Tb281 O295 2.399 . S
Tb281 O296 2.325 . S
Tb281 O299 2.303 . S
Tb281 C310 2.764 . S
C282 O298 1.261 . S
C282 O299 1.257 . S
C283 C286 1.358 . S
C283 C287 1.332 . S
C283 C289 1.504 . S
C284 C285 1.373 . S
C284 C288 1.308 . S
C285 C284 1.373 . S
C285 C286 1.429 . S
C285 H312 0.932 . S
C286 C283 1.358 . S
C286 C285 1.429 . S
C286 H313 0.930 . S
C287 C283 1.332 . S
C287 C288 1.394 . S
C287 H314 0.932 . S
C288 C284 1.308 . S
C288 C287 1.394 . S
C288 H315 0.929 . S
C289 Tb280 2.764 1_554 S
C289 C283 1.504 . S
C289 O301 1.239 . S
C289 O302 1.263 . S
O290 Tb280 2.325 . S
O290 C300 1.236 . S
O291 Tb281 2.322 . S
O291 C300 1.257 . S
O292 Tb281 2.349 . S
O292 C303 1.261 . S
O293 Tb280 2.303 . S
O293 C303 1.257 . S
O294 Tb281 2.415 . S
O294 C310 1.239 . S
O295 Tb281 2.399 . S
O295 C310 1.263 . S
O296 Tb281 2.325 . S
O296 C311 1.236 . S
O297 Tb280 2.322 . S
O297 C311 1.257 . S
O298 Tb280 2.349 . S
O298 C282 1.261 . S
O299 Tb281 2.303 . S
O299 C282 1.257 . S
C300 O290 1.236 . S
C300 O291 1.257 . S
O301 Tb280 2.415 1_554 S
O301 C289 1.239 . S
O302 Tb280 2.399 1_554 S
O302 C289 1.263 . S
C303 O292 1.261 . S
C303 O293 1.257 . S
C304 C307 1.358 . S
C304 C308 1.332 . S
C304 C310 1.504 . S
C305 C306 1.373 . S
C305 C309 1.308 . S
C306 C305 1.373 . S
C306 C307 1.429 . S
C306 H316 0.932 . S
C307 C304 1.358 . S
C307 C306 1.429 . S
C307 H317 0.930 . S
C308 C304 1.332 . S
C308 C309 1.394 . S
C308 H318 0.932 . S
C309 C305 1.308 . S
C309 C308 1.394 . S
C309 H319 0.929 . S
C310 Tb281 2.764 . S
C310 O294 1.239 . S
C310 O295 1.263 . S
C310 C304 1.504 . S
C311 O296 1.236 . S
C311 O297 1.257 . S
H312 C285 0.932 . S
H313 C286 0.930 . S
H314 C287 0.932 . S
H315 C288 0.929 . S
H316 C306 0.932 . S
H317 C307 0.930 . S
H318 C308 0.932 . S
H319 C309 0.929 . S
Tb320 C329 2.764 . S
Tb320 O330 2.325 . S
Tb320 O333 2.303 . S
Tb320 O337 2.322 . S
Tb320 O338 2.349 . S
Tb320 O341 2.415 . S
Tb320 O342 2.399 . S
Tb321 O331 2.322 . S
Tb321 O332 2.349 . S
Tb321 O334 2.415 . S
Tb321 O335 2.399 . S
Tb321 O336 2.325 . S
Tb321 O339 2.303 . S
Tb321 C350 2.764 . S
C322 O338 1.261 . S
C322 O339 1.257 . S
C323 C326 1.358 . S
C323 C327 1.332 . S
C323 C329 1.504 . S
C324 C325 1.373 . S
C324 C328 1.308 . S
C325 C324 1.373 . S
C325 C326 1.429 . S
C325 H352 0.932 . S
C326 C323 1.358 . S
C326 C325 1.429 . S
C326 H353 0.930 . S
C327 C323 1.332 . S
C327 C328 1.394 . S
C327 H354 0.932 . S
C328 C324 1.308 . S
C328 C327 1.394 . S
C328 H355 0.929 . S
C329 Tb320 2.764 . S
C329 C323 1.504 . S
C329 O341 1.239 . S
C329 O342 1.263 . S
O330 Tb320 2.325 . S
O330 C340 1.236 . S
O331 Tb321 2.322 . S
O331 C340 1.257 . S
O332 Tb321 2.349 . S
O332 C343 1.261 . S
O333 Tb320 2.303 . S
O333 C343 1.257 . S
O334 Tb321 2.415 . S
O334 C350 1.239 . S
O335 Tb321 2.399 . S
O335 C350 1.263 . S
O336 Tb321 2.325 . S
O336 C351 1.236 . S
O337 Tb320 2.322 . S
O337 C351 1.257 . S
O338 Tb320 2.349 . S
O338 C322 1.261 . S
O339 Tb321 2.303 . S
O339 C322 1.257 . S
C340 O330 1.236 . S
C340 O331 1.257 . S
O341 Tb320 2.415 . S
O341 C329 1.239 . S
O342 Tb320 2.399 . S
O342 C329 1.263 . S
C343 O332 1.261 . S
C343 O333 1.257 . S
C344 C347 1.358 . S
C344 C348 1.332 . S
C344 C350 1.504 . S
C345 C346 1.373 1_554 S
C345 C349 1.308 1_554 S
C346 C345 1.373 1_556 S
C346 C347 1.429 . S
C346 H356 0.932 1_556 S
C347 C344 1.358 . S
C347 C346 1.429 . S
C347 H357 0.930 . S
C348 C344 1.332 . S
C348 C349 1.394 . S
C348 H358 0.932 . S
C349 C345 1.308 1_556 S
C349 C348 1.394 . S
C349 H359 0.929 1_556 S
C350 Tb321 2.764 . S
C350 O334 1.239 . S
C350 O335 1.263 . S
C350 C344 1.504 . S
C351 O336 1.236 . S
C351 O337 1.257 . S
H352 C325 0.932 . S
H353 C326 0.930 . S
H354 C327 0.932 . S
H355 C328 0.929 . S
H356 C346 0.932 1_554 S
H357 C347 0.930 . S
H358 C348 0.932 . S
H359 C349 0.929 1_554 S
Tb360 C369 2.764 . S
Tb360 O370 2.325 . S
Tb360 O373 2.303 . S
Tb360 O377 2.322 . S
Tb360 O378 2.349 . S
Tb360 O381 2.415 . S
Tb360 O382 2.399 . S
Tb361 O371 2.322 . S
Tb361 O372 2.349 . S
Tb361 O374 2.415 . S
Tb361 O375 2.399 . S
Tb361 O376 2.325 . S
Tb361 O379 2.303 . S
Tb361 C390 2.764 . S
C362 O378 1.261 . S
C362 O379 1.257 . S
C363 C366 1.358 . S
C363 C367 1.332 . S
C363 C369 1.504 . S
C364 C365 1.373 1_556 S
C364 C368 1.308 1_556 S
C365 C364 1.373 1_554 S
C365 C366 1.429 . S
C365 H392 0.932 1_554 S
C366 C363 1.358 . S
C366 C365 1.429 . S
C366 H393 0.930 . S
C367 C363 1.332 . S
C367 C368 1.394 . S
C367 H394 0.932 . S
C368 C364 1.308 1_554 S
C368 C367 1.394 . S
C368 H395 0.929 1_554 S
C369 Tb360 2.764 . S
C369 C363 1.504 . S
C369 O381 1.239 . S
C369 O382 1.263 . S
O370 Tb360 2.325 . S
O370 C380 1.236 . S
O371 Tb361 2.322 . S
O371 C380 1.257 . S
O372 Tb361 2.349 . S
O372 C383 1.261 . S
O373 Tb360 2.303 . S
O373 C383 1.257 . S
O374 Tb361 2.415 . S
O374 C390 1.239 . S
O375 Tb361 2.399 . S
O375 C390 1.263 . S
O376 Tb361 2.325 . S
O376 C391 1.236 . S
O377 Tb360 2.322 . S
O377 C391 1.257 . S
O378 Tb360 2.349 . S
O378 C362 1.261 . S
O379 Tb361 2.303 . S
O379 C362 1.257 . S
C380 O370 1.236 . S
C380 O371 1.257 . S
O381 Tb360 2.415 . S
O381 C369 1.239 . S
O382 Tb360 2.399 . S
O382 C369 1.263 . S
C383 O372 1.261 . S
C383 O373 1.257 . S
C384 C387 1.358 . S
C384 C388 1.332 . S
C384 C390 1.504 . S
C385 C386 1.373 . S
C385 C389 1.308 . S
C386 C385 1.373 . S
C386 C387 1.429 . S
C386 H396 0.932 . S
C387 C384 1.358 . S
C387 C386 1.429 . S
C387 H397 0.930 . S
C388 C384 1.332 . S
C388 C389 1.394 . S
C388 H398 0.932 . S
C389 C385 1.308 . S
C389 C388 1.394 . S
C389 H399 0.929 . S
C390 Tb361 2.764 . S
C390 O374 1.239 . S
C390 O375 1.263 . S
C390 C384 1.504 . S
C391 O376 1.236 . S
C391 O377 1.257 . S
H392 C365 0.932 1_556 S
H393 C366 0.930 . S
H394 C367 0.932 . S
H395 C368 0.929 1_556 S
H396 C386 0.932 . S
H397 C387 0.930 . S
H398 C388 0.932 . S
H399 C389 0.929 . S
Tb400 C409 2.764 . S
Tb400 O410 2.325 . S
Tb400 O413 2.303 . S
Tb400 O417 2.322 . S
Tb400 O418 2.349 . S
Tb400 O421 2.415 . S
Tb400 O422 2.399 . S
Tb401 O411 2.322 . S
Tb401 O412 2.349 . S
Tb401 O414 2.415 . S
Tb401 O415 2.399 . S
Tb401 O416 2.325 . S
Tb401 O419 2.303 . S
Tb401 C430 2.764 . S
C402 O418 1.261 . S
C402 O419 1.257 . S
C403 C406 1.358 . S
C403 C407 1.332 . S
C403 C409 1.504 . S
C404 C405 1.373 . S
C404 C408 1.308 . S
C405 C404 1.373 . S
C405 C406 1.429 . S
C405 H432 0.932 . S
C406 C403 1.358 . S
C406 C405 1.429 . S
C406 H433 0.930 . S
C407 C403 1.332 . S
C407 C408 1.394 . S
C407 H434 0.932 . S
C408 C404 1.308 . S
C408 C407 1.394 . S
C408 H435 0.929 . S
C409 Tb400 2.764 . S
C409 C403 1.504 . S
C409 O421 1.239 . S
C409 O422 1.263 . S
O410 Tb400 2.325 . S
O410 C420 1.236 . S
O411 Tb401 2.322 . S
O411 C420 1.257 . S
O412 Tb401 2.349 . S
O412 C423 1.261 . S
O413 Tb400 2.303 . S
O413 C423 1.257 . S
O414 Tb401 2.415 . S
O414 C430 1.239 . S
O415 Tb401 2.399 . S
O415 C430 1.263 . S
O416 Tb401 2.325 . S
O416 C431 1.236 . S
O417 Tb400 2.322 . S
O417 C431 1.257 . S
O418 Tb400 2.349 . S
O418 C402 1.261 . S
O419 Tb401 2.303 . S
O419 C402 1.257 . S
C420 O410 1.236 . S
C420 O411 1.257 . S
O421 Tb400 2.415 . S
O421 C409 1.239 . S
O422 Tb400 2.399 . S
O422 C409 1.263 . S
C423 O412 1.261 . S
C423 O413 1.257 . S
C424 C427 1.358 . S
C424 C428 1.332 . S
C424 C430 1.504 . S
C425 C426 1.373 1_554 S
C425 C429 1.308 1_554 S
C426 C425 1.373 1_556 S
C426 C427 1.429 . S
C426 H436 0.932 1_556 S
C427 C424 1.358 . S
C427 C426 1.429 . S
C427 H437 0.930 . S
C428 C424 1.332 . S
C428 C429 1.394 . S
C428 H438 0.932 . S
C429 C425 1.308 1_556 S
C429 C428 1.394 . S
C429 H439 0.929 1_556 S
C430 Tb401 2.764 . S
C430 O414 1.239 . S
C430 O415 1.263 . S
C430 C424 1.504 . S
C431 O416 1.236 . S
C431 O417 1.257 . S
H432 C405 0.932 . S
H433 C406 0.930 . S
H434 C407 0.932 . S
H435 C408 0.929 . S
H436 C426 0.932 1_554 S
H437 C427 0.930 . S
H438 C428 0.932 . S
H439 C429 0.929 1_554 S
Tb440 C449 2.764 . S
Tb440 O450 2.325 . S
Tb440 O453 2.303 . S
Tb440 O457 2.322 . S
Tb440 O458 2.349 . S
Tb440 O461 2.415 . S
Tb440 O462 2.399 . S
Tb441 O451 2.322 . S
Tb441 O452 2.349 . S
Tb441 O454 2.415 . S
Tb441 O455 2.399 . S
Tb441 O456 2.325 . S
Tb441 O459 2.303 . S
Tb441 C470 2.764 . S
C442 O458 1.261 . S
C442 O459 1.257 . S
C443 C446 1.358 . S
C443 C447 1.332 . S
C443 C449 1.504 . S
C444 C445 1.373 1_556 S
C444 C448 1.308 1_556 S
C445 C444 1.373 1_554 S
C445 C446 1.429 . S
C445 H472 0.932 1_554 S
C446 C443 1.358 . S
C446 C445 1.429 . S
C446 H473 0.930 . S
C447 C443 1.332 . S
C447 C448 1.394 . S
C447 H474 0.932 . S
C448 C444 1.308 1_554 S
C448 C447 1.394 . S
C448 H475 0.929 1_554 S
C449 Tb440 2.764 . S
C449 C443 1.504 . S
C449 O461 1.239 . S
C449 O462 1.263 . S
O450 Tb440 2.325 . S
O450 C460 1.236 . S
O451 Tb441 2.322 . S
O451 C460 1.257 . S
O452 Tb441 2.349 . S
O452 C463 1.261 . S
O453 Tb440 2.303 . S
O453 C463 1.257 . S
O454 Tb441 2.415 . S
O454 C470 1.239 . S
O455 Tb441 2.399 . S
O455 C470 1.263 . S
O456 Tb441 2.325 . S
O456 C471 1.236 . S
O457 Tb440 2.322 . S
O457 C471 1.257 . S
O458 Tb440 2.349 . S
O458 C442 1.261 . S
O459 Tb441 2.303 . S
O459 C442 1.257 . S
C460 O450 1.236 . S
C460 O451 1.257 . S
O461 Tb440 2.415 . S
O461 C449 1.239 . S
O462 Tb440 2.399 . S
O462 C449 1.263 . S
C463 O452 1.261 . S
C463 O453 1.257 . S
C464 C467 1.358 . S
C464 C468 1.332 . S
C464 C470 1.504 . S
C465 C466 1.373 . S
C465 C469 1.308 . S
C466 C465 1.373 . S
C466 C467 1.429 . S
C466 H476 0.932 . S
C467 C464 1.358 . S
C467 C466 1.429 . S
C467 H477 0.930 . S
C468 C464 1.332 . S
C468 C469 1.394 . S
C468 H478 0.932 . S
C469 C465 1.308 . S
C469 C468 1.394 . S
C469 H479 0.929 . S
C470 Tb441 2.764 . S
C470 O454 1.239 . S
C470 O455 1.263 . S
C470 C464 1.504 . S
C471 O456 1.236 . S
C471 O457 1.257 . S
H472 C445 0.932 1_556 S
H473 C446 0.930 . S
H474 C447 0.932 . S
H475 C448 0.929 1_556 S
H476 C466 0.932 . S
H477 C467 0.930 . S
H478 C468 0.932 . S
H479 C469 0.929 . S
Tb480 C489 2.764 . S
Tb480 O490 2.325 . S
Tb480 O493 2.303 . S
Tb480 O497 2.322 . S
Tb480 O498 2.349 . S
Tb480 O501 2.415 . S
Tb480 O502 2.399 . S
Tb481 O491 2.322 . S
Tb481 O492 2.349 . S
Tb481 O494 2.415 . S
Tb481 O495 2.399 . S
Tb481 O496 2.325 . S
Tb481 O499 2.303 . S
Tb481 C510 2.764 . S
C482 O498 1.261 . S
C482 O499 1.257 . S
C483 C486 1.358 . S
C483 C487 1.332 . S
C483 C489 1.504 . S
C484 C485 1.373 1_554 S
C484 C488 1.308 1_554 S
C485 C484 1.373 1_556 S
C485 C486 1.429 . S
C485 H512 0.932 1_556 S
C486 C483 1.358 . S
C486 C485 1.429 . S
C486 H513 0.930 . S
C487 C483 1.332 . S
C487 C488 1.394 . S
C487 H514 0.932 . S
C488 C484 1.308 1_556 S
C488 C487 1.394 . S
C488 H515 0.929 1_556 S
C489 Tb480 2.764 . S
C489 C483 1.504 . S
C489 O501 1.239 . S
C489 O502 1.263 . S
O490 Tb480 2.325 . S
O490 C500 1.236 . S
O491 Tb481 2.322 . S
O491 C500 1.257 . S
O492 Tb481 2.349 . S
O492 C503 1.261 . S
O493 Tb480 2.303 . S
O493 C503 1.257 . S
O494 Tb481 2.415 . S
O494 C510 1.239 . S
O495 Tb481 2.399 . S
O495 C510 1.263 . S
O496 Tb481 2.325 . S
O496 C511 1.236 . S
O497 Tb480 2.322 . S
O497 C511 1.257 . S
O498 Tb480 2.349 . S
O498 C482 1.261 . S
O499 Tb481 2.303 . S
O499 C482 1.257 . S
C500 O490 1.236 . S
C500 O491 1.257 . S
O501 Tb480 2.415 . S
O501 C489 1.239 . S
O502 Tb480 2.399 . S
O502 C489 1.263 . S
C503 O492 1.261 . S
C503 O493 1.257 . S
C504 C507 1.358 . S
C504 C508 1.332 . S
C504 C510 1.504 . S
C505 C506 1.373 . S
C505 C509 1.308 . S
C506 C505 1.373 . S
C506 C507 1.429 . S
C506 H516 0.932 . S
C507 C504 1.358 . S
C507 C506 1.429 . S
C507 H517 0.930 . S
C508 C504 1.332 . S
C508 C509 1.394 . S
C508 H518 0.932 . S
C509 C505 1.308 . S
C509 C508 1.394 . S
C509 H519 0.929 . S
C510 Tb481 2.764 . S
C510 O494 1.239 . S
C510 O495 1.263 . S
C510 C504 1.504 . S
C511 O496 1.236 . S
C511 O497 1.257 . S
H512 C485 0.932 1_554 S
H513 C486 0.930 . S
H514 C487 0.932 . S
H515 C488 0.929 1_554 S
H516 C506 0.932 . S
H517 C507 0.930 . S
H518 C508 0.932 . S
H519 C509 0.929 . S
Tb520 C529 2.764 . S
Tb520 O530 2.325 . S
Tb520 O533 2.303 . S
Tb520 O537 2.322 . S
Tb520 O538 2.349 . S
Tb520 O541 2.415 . S
Tb520 O542 2.399 . S
Tb521 O531 2.322 . S
Tb521 O532 2.349 . S
Tb521 O534 2.415 . S
Tb521 O535 2.399 . S
Tb521 O536 2.325 . S
Tb521 O539 2.303 . S
Tb521 C550 2.764 . S
C522 O538 1.261 . S
C522 O539 1.257 . S
C523 C526 1.358 . S
C523 C527 1.332 . S
C523 C529 1.504 . S
C524 C525 1.373 . S
C524 C528 1.308 . S
C525 C524 1.373 . S
C525 C526 1.429 . S
C525 H552 0.932 . S
C526 C523 1.358 . S
C526 C525 1.429 . S
C526 H553 0.930 . S
C527 C523 1.332 . S
C527 C528 1.394 . S
C527 H554 0.932 . S
C528 C524 1.308 . S
C528 C527 1.394 . S
C528 H555 0.929 . S
C529 Tb520 2.764 . S
C529 C523 1.504 . S
C529 O541 1.239 . S
C529 O542 1.263 . S
O530 Tb520 2.325 . S
O530 C540 1.236 . S
O531 Tb521 2.322 . S
O531 C540 1.257 . S
O532 Tb521 2.349 . S
O532 C543 1.261 . S
O533 Tb520 2.303 . S
O533 C543 1.257 . S
O534 Tb521 2.415 . S
O534 C550 1.239 . S
O535 Tb521 2.399 . S
O535 C550 1.263 . S
O536 Tb521 2.325 . S
O536 C551 1.236 . S
O537 Tb520 2.322 . S
O537 C551 1.257 . S
O538 Tb520 2.349 . S
O538 C522 1.261 . S
O539 Tb521 2.303 . S
O539 C522 1.257 . S
C540 O530 1.236 . S
C540 O531 1.257 . S
O541 Tb520 2.415 . S
O541 C529 1.239 . S
O542 Tb520 2.399 . S
O542 C529 1.263 . S
C543 O532 1.261 . S
C543 O533 1.257 . S
C544 C547 1.358 . S
C544 C548 1.332 . S
C544 C550 1.504 . S
C545 C546 1.373 1_556 S
C545 C549 1.308 1_556 S
C546 C545 1.373 1_554 S
C546 C547 1.429 . S
C546 H556 0.932 1_554 S
C547 C544 1.358 . S
C547 C546 1.429 . S
C547 H557 0.930 . S
C548 C544 1.332 . S
C548 C549 1.394 . S
C548 H558 0.932 . S
C549 C545 1.308 1_554 S
C549 C548 1.394 . S
C549 H559 0.929 1_554 S
C550 Tb521 2.764 . S
C550 O534 1.239 . S
C550 O535 1.263 . S
C550 C544 1.504 . S
C551 O536 1.236 . S
C551 O537 1.257 . S
H552 C525 0.932 . S
H553 C526 0.930 . S
H554 C527 0.932 . S
H555 C528 0.929 . S
H556 C546 0.932 1_556 S
H557 C547 0.930 . S
H558 C548 0.932 . S
H559 C549 0.929 1_556 S
Tb560 C569 2.764 . S
Tb560 O570 2.325 . S
Tb560 O573 2.303 . S
Tb560 O577 2.322 . S
Tb560 O578 2.349 . S
Tb560 O581 2.415 . S
Tb560 O582 2.399 . S
Tb561 O571 2.322 . S
Tb561 O572 2.349 . S
Tb561 O574 2.415 . S
Tb561 O575 2.399 . S
Tb561 O576 2.325 . S
Tb561 O579 2.303 . S
Tb561 C590 2.764 . S
C562 O578 1.261 . S
C562 O579 1.257 . S
C563 C566 1.358 . S
C563 C567 1.332 . S
C563 C569 1.504 . S
C564 C565 1.373 1_554 S
C564 C568 1.308 1_554 S
C565 C564 1.373 1_556 S
C565 C566 1.429 . S
C565 H592 0.932 1_556 S
C566 C563 1.358 . S
C566 C565 1.429 . S
C566 H593 0.930 . S
C567 C563 1.332 . S
C567 C568 1.394 . S
C567 H594 0.932 . S
C568 C564 1.308 1_556 S
C568 C567 1.394 . S
C568 H595 0.929 1_556 S
C569 Tb560 2.764 . S
C569 C563 1.504 . S
C569 O581 1.239 . S
C569 O582 1.263 . S
O570 Tb560 2.325 . S
O570 C580 1.236 . S
O571 Tb561 2.322 . S
O571 C580 1.257 . S
O572 Tb561 2.349 . S
O572 C583 1.261 . S
O573 Tb560 2.303 . S
O573 C583 1.257 . S
O574 Tb561 2.415 . S
O574 C590 1.239 . S
O575 Tb561 2.399 . S
O575 C590 1.263 . S
O576 Tb561 2.325 . S
O576 C591 1.236 . S
O577 Tb560 2.322 . S
O577 C591 1.257 . S
O578 Tb560 2.349 . S
O578 C562 1.261 . S
O579 Tb561 2.303 . S
O579 C562 1.257 . S
C580 O570 1.236 . S
C580 O571 1.257 . S
O581 Tb560 2.415 . S
O581 C569 1.239 . S
O582 Tb560 2.399 . S
O582 C569 1.263 . S
C583 O572 1.261 . S
C583 O573 1.257 . S
C584 C587 1.358 . S
C584 C588 1.332 . S
C584 C590 1.504 . S
C585 C586 1.373 . S
C585 C589 1.308 . S
C586 C585 1.373 . S
C586 C587 1.429 . S
C586 H596 0.932 . S
C587 C584 1.358 . S
C587 C586 1.429 . S
C587 H597 0.930 . S
C588 C584 1.332 . S
C588 C589 1.394 . S
C588 H598 0.932 . S
C589 C585 1.308 . S
C589 C588 1.394 . S
C589 H599 0.929 . S
C590 Tb561 2.764 . S
C590 O574 1.239 . S
C590 O575 1.263 . S
C590 C584 1.504 . S
C591 O576 1.236 . S
C591 O577 1.257 . S
H592 C565 0.932 1_554 S
H593 C566 0.930 . S
H594 C567 0.932 . S
H595 C568 0.929 1_554 S
H596 C586 0.932 . S
H597 C587 0.930 . S
H598 C588 0.932 . S
H599 C589 0.929 . S
Tb600 C609 2.764 . S
Tb600 O610 2.325 . S
Tb600 O613 2.303 . S
Tb600 O617 2.322 . S
Tb600 O618 2.349 . S
Tb600 O621 2.415 . S
Tb600 O622 2.399 . S
Tb601 O611 2.322 . S
Tb601 O612 2.349 . S
Tb601 O614 2.415 . S
Tb601 O615 2.399 . S
Tb601 O616 2.325 . S
Tb601 O619 2.303 . S
Tb601 C630 2.764 . S
C602 O618 1.261 . S
C602 O619 1.257 . S
C603 C606 1.358 . S
C603 C607 1.332 . S
C603 C609 1.504 . S
C604 C605 1.373 . S
C604 C608 1.308 . S
C605 C604 1.373 . S
C605 C606 1.429 . S
C605 H632 0.932 . S
C606 C603 1.358 . S
C606 C605 1.429 . S
C606 H633 0.930 . S
C607 C603 1.332 . S
C607 C608 1.394 . S
C607 H634 0.932 . S
C608 C604 1.308 . S
C608 C607 1.394 . S
C608 H635 0.929 . S
C609 Tb600 2.764 . S
C609 C603 1.504 . S
C609 O621 1.239 . S
C609 O622 1.263 . S
O610 Tb600 2.325 . S
O610 C620 1.236 . S
O611 Tb601 2.322 . S
O611 C620 1.257 . S
O612 Tb601 2.349 . S
O612 C623 1.261 . S
O613 Tb600 2.303 . S
O613 C623 1.257 . S
O614 Tb601 2.415 . S
O614 C630 1.239 . S
O615 Tb601 2.399 . S
O615 C630 1.263 . S
O616 Tb601 2.325 . S
O616 C631 1.236 . S
O617 Tb600 2.322 . S
O617 C631 1.257 . S
O618 Tb600 2.349 . S
O618 C602 1.261 . S
O619 Tb601 2.303 . S
O619 C602 1.257 . S
C620 O610 1.236 . S
C620 O611 1.257 . S
O621 Tb600 2.415 . S
O621 C609 1.239 . S
O622 Tb600 2.399 . S
O622 C609 1.263 . S
C623 O612 1.261 . S
C623 O613 1.257 . S
C624 C627 1.358 . S
C624 C628 1.332 . S
C624 C630 1.504 . S
C625 C626 1.373 1_556 S
C625 C629 1.308 1_556 S
C626 C625 1.373 1_554 S
C626 C627 1.429 . S
C626 H636 0.932 1_554 S
C627 C624 1.358 . S
C627 C626 1.429 . S
C627 H637 0.930 . S
C628 C624 1.332 . S
C628 C629 1.394 . S
C628 H638 0.932 . S
C629 C625 1.308 1_554 S
C629 C628 1.394 . S
C629 H639 0.929 1_554 S
C630 Tb601 2.764 . S
C630 O614 1.239 . S
C630 O615 1.263 . S
C630 C624 1.504 . S
C631 O616 1.236 . S
C631 O617 1.257 . S
H632 C605 0.932 . S
H633 C606 0.930 . S
H634 C607 0.932 . S
H635 C608 0.929 . S
H636 C626 0.932 1_556 S
H637 C627 0.930 . S
H638 C628 0.932 . S
H639 C629 0.929 1_556 S
C640 C641 1.387 . S
C640 H644 0.950 . S
C640 C649 1.390 . S
C641 C640 1.387 . S
C641 C643 1.387 . S
H642 C649 0.950 . S
C643 C641 1.387 . S
C643 C645 1.390 . S
C643 H647 0.950 . S
H644 C640 0.950 . S
C645 C643 1.390 . S
C645 C646 1.387 . S
C645 H648 0.950 . S
C646 C645 1.387 . S
C646 C649 1.387 . S
H647 C643 0.950 . S
H648 C645 0.950 . S
C649 C640 1.390 . S
C649 H642 0.950 . S
C649 C646 1.387 . S
C650 C651 1.387 . S
C650 H654 0.950 . S
C650 C659 1.390 . S
C651 C650 1.387 . S
C651 C653 1.387 . S
H652 C659 0.950 . S
C653 C651 1.387 . S
C653 C655 1.390 . S
C653 H657 0.950 . S
H654 C650 0.950 . S
C655 C653 1.390 . S
C655 C656 1.387 . S
C655 H658 0.950 1_655 S
C656 C655 1.387 . S
C656 C659 1.387 . S
H657 C653 0.950 . S
H658 C655 0.950 1_455 S
C659 C650 1.390 . S
C659 H652 0.950 . S
C659 C656 1.387 . S
C660 C661 1.387 . S
C660 H664 0.950 . S
C660 C669 1.390 . S
C661 C660 1.387 . S
C661 C663 1.387 . S
H662 C669 0.950 . S
C663 C661 1.387 . S
C663 C665 1.390 . S
C663 H667 0.950 1_545 S
H664 C660 0.950 . S
C665 C663 1.390 . S
C665 C666 1.387 . S
C665 H668 0.950 . S
C666 C665 1.387 . S
C666 C669 1.387 . S
H667 C663 0.950 1_565 S
H668 C665 0.950 . S
C669 C660 1.390 . S
C669 H662 0.950 . S
C669 C666 1.387 . S
C670 C671 1.387 . S
C670 H674 0.950 1_455 S
C670 C679 1.390 . S
C671 C670 1.387 . S
C671 C673 1.387 . S
H672 C679 0.950 . S
C673 C671 1.387 . S
C673 C675 1.390 . S
C673 H677 0.950 . S
H674 C670 0.950 1_655 S
C675 C673 1.390 . S
C675 C676 1.387 . S
C675 H678 0.950 . S
C676 C675 1.387 . S
C676 C679 1.387 . S
H677 C673 0.950 . S
H678 C675 0.950 . S
C679 C670 1.390 . S
C679 H672 0.950 . S
C679 C676 1.387 . S
C680 C681 1.387 . S
C680 H684 0.950 . S
C680 C689 1.390 . S
C681 C680 1.387 . S
C681 C683 1.387 . S
H682 C689 0.950 . S
C683 C681 1.387 . S
C683 C685 1.390 1_554 S
C683 H687 0.950 . S
H684 C680 0.950 . S
C685 C683 1.390 1_556 S
C685 C686 1.387 . S
C685 H688 0.950 . S
C686 C685 1.387 . S
C686 C689 1.387 1_556 S
H687 C683 0.950 . S
H688 C685 0.950 . S
C689 C680 1.390 . S
C689 H682 0.950 . S
C689 C686 1.387 1_554 S
C690 C691 1.387 . S
C690 H694 0.950 . S
C690 C699 1.390 1_554 S
C691 C690 1.387 . S
C691 C693 1.387 1_554 S
H692 C699 0.950 . S
C693 C691 1.387 1_556 S
C693 C695 1.390 . S
C693 H697 0.950 . S
H694 C690 0.950 . S
C695 C693 1.390 . S
C695 C696 1.387 . S
C695 H698 0.950 . S
C696 C695 1.387 . S
C696 C699 1.387 . S
H697 C693 0.950 . S
H698 C695 0.950 . S
C699 C690 1.390 1_556 S
C699 H692 0.950 . S
C699 C696 1.387 . S
C700 C701 1.387 . S
C700 H704 0.950 . S
C700 C709 1.390 . S
C701 C700 1.387 . S
C701 C703 1.387 . S
H702 C709 0.950 . S
C703 C701 1.387 . S
C703 C705 1.390 1_554 S
C703 H707 0.950 . S
H704 C700 0.950 . S
C705 C703 1.390 1_556 S
C705 C706 1.387 . S
C705 H708 0.950 . S
C706 C705 1.387 . S
C706 C709 1.387 1_556 S
H707 C703 0.950 . S
H708 C705 0.950 . S
C709 C700 1.390 . S
C709 H702 0.950 . S
C709 C706 1.387 1_554 S
C710 C711 1.387 1_556 S
C710 H714 0.950 . S
C710 C719 1.390 . S
C711 C710 1.387 1_554 S
C711 C713 1.387 . S
H712 C719 0.950 . S
C713 C711 1.387 . S
C713 C715 1.390 1_554 S
C713 H717 0.950 . S
H714 C710 0.950 . S
C715 C713 1.390 1_556 S
C715 C716 1.387 . S
C715 H718 0.950 . S
C716 C715 1.387 . S
C716 C719 1.387 . S
H717 C713 0.950 . S
H718 C715 0.950 . S
C719 C710 1.390 . S
C719 H712 0.950 . S
C719 C716 1.387 . S
C720 C721 1.387 . S
C720 H724 0.950 . S
C720 C729 1.390 . S
C721 C720 1.387 . S
C721 C723 1.387 . S
H722 C729 0.950 . S
C723 C721 1.387 . S
C723 C725 1.390 . S
C723 H727 0.950 . S
H724 C720 0.950 . S
C725 C723 1.390 . S
C725 C726 1.387 . S
C725 H728 0.950 . S
C726 C725 1.387 . S
C726 C729 1.387 . S
H727 C723 0.950 . S
H728 C725 0.950 . S
C729 C720 1.390 . S
C729 H722 0.950 . S
C729 C726 1.387 . S
C730 C731 1.387 . S
C730 H734 0.950 . S
C730 C739 1.390 . S
C731 C730 1.387 . S
C731 C733 1.387 . S
H732 C739 0.950 . S
C733 C731 1.387 . S
C733 C735 1.390 . S
C733 H737 0.950 . S
H734 C730 0.950 . S
C735 C733 1.390 . S
C735 C736 1.387 . S
C735 H738 0.950 . S
C736 C735 1.387 . S
C736 C739 1.387 . S
H737 C733 0.950 . S
H738 C735 0.950 . S
C739 C730 1.390 . S
C739 H732 0.950 . S
C739 C736 1.387 . S
C740 C741 1.387 . S
C740 H744 0.950 . S
C740 C749 1.390 . S
C741 C740 1.387 . S
C741 C743 1.387 . S
H742 C749 0.950 . S
C743 C741 1.387 . S
C743 C745 1.390 . S
C743 H747 0.950 . S
H744 C740 0.950 . S
C745 C743 1.390 . S
C745 C746 1.387 . S
C745 H748 0.950 . S
C746 C745 1.387 . S
C746 C749 1.387 . S
H747 C743 0.950 . S
H748 C745 0.950 . S
C749 C740 1.390 . S
C749 H742 0.950 . S
C749 C746 1.387 . S
C750 C751 1.387 . S
C750 H754 0.950 . S
C750 C759 1.390 . S
C751 C750 1.387 . S
C751 C753 1.387 . S
H752 C759 0.950 . S
C753 C751 1.387 . S
C753 C755 1.390 . S
C753 H757 0.950 . S
H754 C750 0.950 . S
C755 C753 1.390 . S
C755 C756 1.387 . S
C755 H758 0.950 . S
C756 C755 1.387 . S
C756 C759 1.387 . S
H757 C753 0.950 . S
H758 C755 0.950 . S
C759 C750 1.390 . S
C759 H752 0.950 . S
C759 C756 1.387 . S
C760 C761 1.387 . S
C760 H764 0.950 . S
C760 C769 1.390 . S
C761 C760 1.387 . S
C761 C763 1.387 . S
H762 C769 0.950 . S
C763 C761 1.387 . S
C763 C765 1.390 . S
C763 H767 0.950 1_545 S
H764 C760 0.950 . S
C765 C763 1.390 . S
C765 C766 1.387 . S
C765 H768 0.950 . S
C766 C765 1.387 . S
C766 C769 1.387 . S
H767 C763 0.950 1_565 S
H768 C765 0.950 . S
C769 C760 1.390 . S
C769 H762 0.950 . S
C769 C766 1.387 . S
C770 C771 1.387 . S
C770 H774 0.950 . S
C770 C779 1.390 . S
C771 C770 1.387 . S
C771 C773 1.387 . S
H772 C779 0.950 1_655 S
C773 C771 1.387 . S
C773 C775 1.390 . S
C773 H777 0.950 . S
H774 C770 0.950 . S
C775 C773 1.390 . S
C775 C776 1.387 . S
C775 H778 0.950 . S
C776 C775 1.387 . S
C776 C779 1.387 . S
H777 C773 0.950 . S
H778 C775 0.950 . S
C779 C770 1.390 . S
C779 H772 0.950 1_455 S
C779 C776 1.387 . S
C780 C781 1.387 . S
C780 H784 0.950 . S
C780 C789 1.390 . S
C781 C780 1.387 . S
C781 C783 1.387 . S
H782 C789 0.950 . S
C783 C781 1.387 . S
C783 C785 1.390 . S
C783 H787 0.950 . S
H784 C780 0.950 . S
C785 C783 1.390 . S
C785 C786 1.387 . S
C785 H788 0.950 1_565 S
C786 C785 1.387 . S
C786 C789 1.387 . S
H787 C783 0.950 . S
H788 C785 0.950 1_545 S
C789 C780 1.390 . S
C789 H782 0.950 . S
C789 C786 1.387 . S
C790 C791 1.387 . S
C790 H794 0.950 . S
C790 C799 1.390 . S
C791 C790 1.387 . S
C791 C793 1.387 . S
H792 C799 0.950 . S
C793 C791 1.387 . S
C793 C795 1.390 . S
C793 H797 0.950 . S
H794 C790 0.950 . S
C795 C793 1.390 . S
C795 C796 1.387 . S
C795 H798 0.950 . S
C796 C795 1.387 . S
C796 C799 1.387 . S
H797 C793 0.950 . S
H798 C795 0.950 . S
C799 C790 1.390 . S
C799 H792 0.950 . S
C799 C796 1.387 . S
C800 C801 1.387 . S
C800 H804 0.950 . S
C800 C809 1.390 . S
C801 C800 1.387 . S
C801 C803 1.387 . S
H802 C809 0.950 . S
C803 C801 1.387 . S
C803 C805 1.390 . S
C803 H807 0.950 . S
H804 C800 0.950 . S
C805 C803 1.390 . S
C805 C806 1.387 . S
C805 H808 0.950 . S
C806 C805 1.387 . S
C806 C809 1.387 . S
H807 C803 0.950 . S
H808 C805 0.950 . S
C809 C800 1.390 . S
C809 H802 0.950 . S
C809 C806 1.387 . S
C810 C811 1.387 . S
C810 H814 0.950 . S
C810 C819 1.390 . S
C811 C810 1.387 . S
C811 C813 1.387 . S
H812 C819 0.950 . S
C813 C811 1.387 . S
C813 C815 1.390 . S
C813 H817 0.950 . S
H814 C810 0.950 . S
C815 C813 1.390 . S
C815 C816 1.387 . S
C815 H818 0.950 . S
C816 C815 1.387 . S
C816 C819 1.387 . S
H817 C813 0.950 . S
H818 C815 0.950 . S
C819 C810 1.390 . S
C819 H812 0.950 . S
C819 C816 1.387 . S
C820 C821 1.387 . S
C820 H824 0.950 . S
C820 C829 1.390 . S
C821 C820 1.387 . S
C821 C823 1.387 . S
H822 C829 0.950 . S
C823 C821 1.387 . S
C823 C825 1.390 . S
C823 H827 0.950 . S
H824 C820 0.950 . S
C825 C823 1.390 . S
C825 C826 1.387 . S
C825 H828 0.950 . S
C826 C825 1.387 . S
C826 C829 1.387 . S
H827 C823 0.950 . S
H828 C825 0.950 . S
C829 C820 1.390 . S
C829 H822 0.950 . S
C829 C826 1.387 . S
C830 C831 1.387 . S
C830 H834 0.950 . S
C830 C839 1.390 . S
C831 C830 1.387 . S
C831 C833 1.387 . S
H832 C839 0.950 . S
C833 C831 1.387 . S
C833 C835 1.390 . S
C833 H837 0.950 . S
H834 C830 0.950 . S
C835 C833 1.390 . S
C835 C836 1.387 . S
C835 H838 0.950 . S
C836 C835 1.387 . S
C836 C839 1.387 . S
H837 C833 0.950 . S
H838 C835 0.950 . S
C839 C830 1.390 . S
C839 H832 0.950 . S
C839 C836 1.387 . S
C840 C841 1.387 . S
C840 H844 0.950 . S
C840 C849 1.390 . S
C841 C840 1.387 . S
C841 C843 1.387 . S
H842 C849 0.950 . S
C843 C841 1.387 . S
C843 C845 1.390 . S
C843 H847 0.950 . S
H844 C840 0.950 . S
C845 C843 1.390 . S
C845 C846 1.387 . S
C845 H848 0.950 . S
C846 C845 1.387 . S
C846 C849 1.387 . S
H847 C843 0.950 . S
H848 C845 0.950 . S
C849 C840 1.390 . S
C849 H842 0.950 . S
C849 C846 1.387 . S
C850 C851 1.387 . S
C850 H854 0.950 . S
C850 C859 1.390 . S
C851 C850 1.387 . S
C851 C853 1.387 . S
H852 C859 0.950 . S
C853 C851 1.387 . S
C853 C855 1.390 . S
C853 H857 0.950 . S
H854 C850 0.950 . S
C855 C853 1.390 . S
C855 C856 1.387 . S
C855 H858 0.950 . S
C856 C855 1.387 . S
C856 C859 1.387 . S
H857 C853 0.950 . S
H858 C855 0.950 . S
C859 C850 1.390 . S
C859 H852 0.950 . S
C859 C856 1.387 . S
C860 C861 1.387 . S
C860 H864 0.950 . S
C860 C869 1.390 . S
C861 C860 1.387 . S
C861 C863 1.387 . S
H862 C869 0.950 . S
C863 C861 1.387 . S
C863 C865 1.390 . S
C863 H867 0.950 . S
H864 C860 0.950 . S
C865 C863 1.390 . S
C865 C866 1.387 . S
C865 H868 0.950 . S
C866 C865 1.387 . S
C866 C869 1.387 . S
H867 C863 0.950 . S
H868 C865 0.950 . S
C869 C860 1.390 . S
C869 H862 0.950 . S
C869 C866 1.387 . S
C870 C871 1.387 . S
C870 H874 0.950 . S
C870 C879 1.390 . S
C871 C870 1.387 . S
C871 C873 1.387 . S
H872 C879 0.950 . S
C873 C871 1.387 . S
C873 C875 1.390 . S
C873 H877 0.950 . S
H874 C870 0.950 . S
C875 C873 1.390 . S
C875 C876 1.387 . S
C875 H878 0.950 . S
C876 C875 1.387 . S
C876 C879 1.387 . S
H877 C873 0.950 . S
H878 C875 0.950 . S
C879 C870 1.390 . S
C879 H872 0.950 . S
C879 C876 1.387 . S
C880 C881 1.387 . S
C880 H884 0.950 . S
C880 C889 1.390 . S
C881 C880 1.387 . S
C881 C883 1.387 . S
H882 C889 0.950 . S
C883 C881 1.387 . S
C883 C885 1.390 . S
C883 H887 0.950 . S
H884 C880 0.950 . S
C885 C883 1.390 . S
C885 C886 1.387 . S
C885 H888 0.950 . S
C886 C885 1.387 . S
C886 C889 1.387 . S
H887 C883 0.950 . S
H888 C885 0.950 . S
C889 C880 1.390 . S
C889 H882 0.950 . S
C889 C886 1.387 . S
C890 C891 1.387 . S
C890 H894 0.950 . S
C890 C899 1.390 . S
C891 C890 1.387 . S
C891 C893 1.387 . S
H892 C899 0.950 . S
C893 C891 1.387 . S
C893 C895 1.390 . S
C893 H897 0.950 . S
H894 C890 0.950 . S
C895 C893 1.390 . S
C895 C896 1.387 . S
C895 H898 0.950 . S
C896 C895 1.387 . S
C896 C899 1.387 . S
H897 C893 0.950 . S
H898 C895 0.950 . S
C899 C890 1.390 . S
C899 H892 0.950 . S
C899 C896 1.387 . S
C900 C901 1.387 . S
C900 H904 0.950 . S
C900 C909 1.390 . S
C901 C900 1.387 . S
C901 C903 1.387 . S
H902 C909 0.950 . S
C903 C901 1.387 . S
C903 C905 1.390 . S
C903 H907 0.950 . S
H904 C900 0.950 . S
C905 C903 1.390 . S
C905 C906 1.387 . S
C905 H908 0.950 . S
C906 C905 1.387 . S
C906 C909 1.387 . S
H907 C903 0.950 . S
H908 C905 0.950 . S
C909 C900 1.390 . S
C909 H902 0.950 . S
C909 C906 1.387 . S
C910 C911 1.387 . S
C910 H914 0.950 . S
C910 C919 1.390 . S
C911 C910 1.387 . S
C911 C913 1.387 . S
H912 C919 0.950 . S
C913 C911 1.387 . S
C913 C915 1.390 . S
C913 H917 0.950 . S
H914 C910 0.950 . S
C915 C913 1.390 . S
C915 C916 1.387 . S
C915 H918 0.950 . S
C916 C915 1.387 . S
C916 C919 1.387 . S
H917 C913 0.950 . S
H918 C915 0.950 . S
C919 C910 1.390 . S
C919 H912 0.950 . S
C919 C916 1.387 . S
C920 C921 1.387 . S
C920 H924 0.950 . S
C920 C929 1.390 . S
C921 C920 1.387 . S
C921 C923 1.387 . S
H922 C929 0.950 . S
C923 C921 1.387 . S
C923 C925 1.390 . S
C923 H927 0.950 . S
H924 C920 0.950 . S
C925 C923 1.390 . S
C925 C926 1.387 . S
C925 H928 0.950 . S
C926 C925 1.387 . S
C926 C929 1.387 . S
H927 C923 0.950 . S
H928 C925 0.950 . S
C929 C920 1.390 . S
C929 H922 0.950 . S
C929 C926 1.387 . S
C930 C931 1.387 . S
C930 H934 0.950 . S
C930 C939 1.390 . S
C931 C930 1.387 . S
C931 C933 1.387 . S
H932 C939 0.950 . S
C933 C931 1.387 . S
C933 C935 1.390 . S
C933 H937 0.950 . S
H934 C930 0.950 . S
C935 C933 1.390 . S
C935 C936 1.387 . S
C935 H938 0.950 . S
C936 C935 1.387 . S
C936 C939 1.387 . S
H937 C933 0.950 . S
H938 C935 0.950 . S
C939 C930 1.390 . S
C939 H932 0.950 . S
C939 C936 1.387 . S
C940 C941 1.387 . S
C940 H944 0.950 . S
C940 C949 1.390 . S
C941 C940 1.387 . S
C941 C943 1.387 . S
H942 C949 0.950 . S
C943 C941 1.387 . S
C943 C945 1.390 . S
C943 H947 0.950 . S
H944 C940 0.950 . S
C945 C943 1.390 . S
C945 C946 1.387 . S
C945 H948 0.950 . S
C946 C945 1.387 . S
C946 C949 1.387 . S
H947 C943 0.950 . S
H948 C945 0.950 . S
C949 C940 1.390 . S
C949 H942 0.950 . S
C949 C946 1.387 . S
C950 C951 1.387 . S
C950 H954 0.950 . S
C950 C959 1.390 . S
C951 C950 1.387 . S
C951 C953 1.387 . S
H952 C959 0.950 . S
C953 C951 1.387 . S
C953 C955 1.390 . S
C953 H957 0.950 . S
H954 C950 0.950 . S
C955 C953 1.390 . S
C955 C956 1.387 . S
C955 H958 0.950 . S
C956 C955 1.387 . S
C956 C959 1.387 . S
H957 C953 0.950 . S
H958 C955 0.950 . S
C959 C950 1.390 . S
C959 H952 0.950 . S
C959 C956 1.387 . S
C960 C961 1.387 . S
C960 H964 0.950 . S
C960 C969 1.390 . S
C961 C960 1.387 . S
C961 C963 1.387 . S
H962 C969 0.950 . S
C963 C961 1.387 . S
C963 C965 1.390 . S
C963 H967 0.950 . S
H964 C960 0.950 . S
C965 C963 1.390 . S
C965 C966 1.387 . S
C965 H968 0.950 . S
C966 C965 1.387 . S
C966 C969 1.387 . S
H967 C963 0.950 . S
H968 C965 0.950 . S
C969 C960 1.390 . S
C969 H962 0.950 . S
C969 C966 1.387 . S
C970 C971 1.387 . S
C970 H974 0.950 . S
C970 C979 1.390 . S
C971 C970 1.387 . S
C971 C973 1.387 . S
H972 C979 0.950 . S
C973 C971 1.387 . S
C973 C975 1.390 . S
C973 H977 0.950 . S
H974 C970 0.950 . S
C975 C973 1.390 . S
C975 C976 1.387 . S
C975 H978 0.950 . S
C976 C975 1.387 . S
C976 C979 1.387 . S
H977 C973 0.950 . S
H978 C975 0.950 . S
C979 C970 1.390 . S
C979 H972 0.950 . S
C979 C976 1.387 . S
C980 C981 1.387 . S
C980 H984 0.950 . S
C980 C989 1.390 . S
C981 C980 1.387 . S
C981 C983 1.387 . S
H982 C989 0.950 . S
C983 C981 1.387 . S
C983 C985 1.390 . S
C983 H987 0.950 . S
H984 C980 0.950 . S
C985 C983 1.390 . S
C985 C986 1.387 . S
C985 H988 0.950 . S
C986 C985 1.387 . S
C986 C989 1.387 . S
H987 C983 0.950 . S
H988 C985 0.950 . S
C989 C980 1.390 . S
C989 H982 0.950 . S
C989 C986 1.387 . S
C990 C991 1.387 . S
C990 H994 0.950 . S
C990 C999 1.390 . S
C991 C990 1.387 . S
C991 C993 1.387 . S
H992 C999 0.950 . S
C993 C991 1.387 . S
C993 C995 1.390 . S
C993 H997 0.950 . S
H994 C990 0.950 . S
C995 C993 1.390 . S
C995 C996 1.387 . S
C995 H998 0.950 . S
C996 C995 1.387 . S
C996 C999 1.387 . S
H997 C993 0.950 . S
H998 C995 0.950 . S
C999 C990 1.390 . S
C999 H992 0.950 . S
C999 C996 1.387 . S
C1000 C1001 1.387 . S
C1000 H1004 0.950 . S
C1000 C1009 1.390 . S
C1001 C1000 1.387 . S
C1001 C1003 1.387 . S
H1002 C1009 0.950 . S
C1003 C1001 1.387 . S
C1003 C1005 1.390 . S
C1003 H1007 0.950 . S
H1004 C1000 0.950 . S
C1005 C1003 1.390 . S
C1005 C1006 1.387 . S
C1005 H1008 0.950 . S
C1006 C1005 1.387 . S
C1006 C1009 1.387 . S
H1007 C1003 0.950 . S
H1008 C1005 0.950 . S
C1009 C1000 1.390 . S
C1009 H1002 0.950 . S
C1009 C1006 1.387 . S
C1010 C1011 1.387 . S
C1010 H1014 0.950 . S
C1010 C1019 1.390 . S
C1011 C1010 1.387 . S
C1011 C1013 1.387 . S
H1012 C1019 0.950 . S
C1013 C1011 1.387 . S
C1013 C1015 1.390 . S
C1013 H1017 0.950 . S
H1014 C1010 0.950 . S
C1015 C1013 1.390 . S
C1015 C1016 1.387 . S
C1015 H1018 0.950 . S
C1016 C1015 1.387 . S
C1016 C1019 1.387 . S
H1017 C1013 0.950 . S
H1018 C1015 0.950 . S
C1019 C1010 1.390 . S
C1019 H1012 0.950 . S
C1019 C1016 1.387 . S
C1020 C1021 1.387 . S
C1020 H1024 0.950 . S
C1020 C1029 1.390 . S
C1021 C1020 1.387 . S
C1021 C1023 1.387 . S
H1022 C1029 0.950 . S
C1023 C1021 1.387 . S
C1023 C1025 1.390 . S
C1023 H1027 0.950 . S
H1024 C1020 0.950 . S
C1025 C1023 1.390 . S
C1025 C1026 1.387 . S
C1025 H1028 0.950 . S
C1026 C1025 1.387 . S
C1026 C1029 1.387 . S
H1027 C1023 0.950 . S
H1028 C1025 0.950 . S
C1029 C1020 1.390 . S
C1029 H1022 0.950 . S
C1029 C1026 1.387 . S
C1030 C1031 1.387 . S
C1030 H1034 0.950 . S
C1030 C1039 1.390 . S
C1031 C1030 1.387 . S
C1031 C1033 1.387 . S
H1032 C1039 0.950 . S
C1033 C1031 1.387 . S
C1033 C1035 1.390 . S
C1033 H1037 0.950 . S
H1034 C1030 0.950 . S
C1035 C1033 1.390 . S
C1035 C1036 1.387 . S
C1035 H1038 0.950 . S
C1036 C1035 1.387 . S
C1036 C1039 1.387 . S
H1037 C1033 0.950 . S
H1038 C1035 0.950 . S
C1039 C1030 1.390 . S
C1039 H1032 0.950 . S
C1039 C1036 1.387 . S
C1040 C1041 1.387 . S
C1040 H1044 0.950 . S
C1040 C1049 1.390 . S
C1041 C1040 1.387 . S
C1041 C1043 1.387 . S
H1042 C1049 0.950 . S
C1043 C1041 1.387 . S
C1043 C1045 1.390 . S
C1043 H1047 0.950 . S
H1044 C1040 0.950 . S
C1045 C1043 1.390 . S
C1045 C1046 1.387 . S
C1045 H1048 0.950 . S
C1046 C1045 1.387 . S
C1046 C1049 1.387 . S
H1047 C1043 0.950 . S
H1048 C1045 0.950 . S
C1049 C1040 1.390 . S
C1049 H1042 0.950 . S
C1049 C1046 1.387 . S
C1050 C1051 1.387 . S
C1050 H1054 0.950 . S
C1050 C1059 1.390 . S
C1051 C1050 1.387 . S
C1051 C1053 1.387 . S
H1052 C1059 0.950 . S
C1053 C1051 1.387 . S
C1053 C1055 1.390 . S
C1053 H1057 0.950 . S
H1054 C1050 0.950 . S
C1055 C1053 1.390 . S
C1055 C1056 1.387 . S
C1055 H1058 0.950 . S
C1056 C1055 1.387 . S
C1056 C1059 1.387 . S
H1057 C1053 0.950 . S
H1058 C1055 0.950 . S
C1059 C1050 1.390 . S
C1059 H1052 0.950 . S
C1059 C1056 1.387 . S
C1060 C1061 1.387 . S
C1060 H1064 0.950 . S
C1060 C1069 1.390 . S
C1061 C1060 1.387 . S
C1061 C1063 1.387 . S
H1062 C1069 0.950 . S
C1063 C1061 1.387 . S
C1063 C1065 1.390 . S
C1063 H1067 0.950 . S
H1064 C1060 0.950 . S
C1065 C1063 1.390 . S
C1065 C1066 1.387 . S
C1065 H1068 0.950 . S
C1066 C1065 1.387 . S
C1066 C1069 1.387 . S
H1067 C1063 0.950 . S
H1068 C1065 0.950 . S
C1069 C1060 1.390 . S
C1069 H1062 0.950 . S
C1069 C1066 1.387 . S
C1070 C1071 1.387 . S
C1070 H1074 0.950 . S
C1070 C1079 1.390 . S
C1071 C1070 1.387 . S
C1071 C1073 1.387 . S
H1072 C1079 0.950 . S
C1073 C1071 1.387 . S
C1073 C1075 1.390 . S
C1073 H1077 0.950 . S
H1074 C1070 0.950 . S
C1075 C1073 1.390 . S
C1075 C1076 1.387 . S
C1075 H1078 0.950 . S
C1076 C1075 1.387 . S
C1076 C1079 1.387 . S
H1077 C1073 0.950 . S
H1078 C1075 0.950 . S
C1079 C1070 1.390 . S
C1079 H1072 0.950 . S
C1079 C1076 1.387 . S
C1080 C1081 1.387 . S
C1080 H1084 0.950 . S
C1080 C1089 1.390 . S
C1081 C1080 1.387 . S
C1081 C1083 1.387 . S
H1082 C1089 0.950 . S
C1083 C1081 1.387 . S
C1083 C1085 1.390 . S
C1083 H1087 0.950 . S
H1084 C1080 0.950 . S
C1085 C1083 1.390 . S
C1085 C1086 1.387 . S
C1085 H1088 0.950 . S
C1086 C1085 1.387 . S
C1086 C1089 1.387 . S
H1087 C1083 0.950 . S
H1088 C1085 0.950 . S
C1089 C1080 1.390 . S
C1089 H1082 0.950 . S
C1089 C1086 1.387 . S
C1090 C1091 1.387 . S
C1090 H1094 0.950 . S
C1090 C1099 1.390 . S
C1091 C1090 1.387 . S
C1091 C1093 1.387 . S
H1092 C1099 0.950 . S
C1093 C1091 1.387 . S
C1093 C1095 1.390 . S
C1093 H1097 0.950 . S
H1094 C1090 0.950 . S
C1095 C1093 1.390 . S
C1095 C1096 1.387 . S
C1095 H1098 0.950 . S
C1096 C1095 1.387 . S
C1096 C1099 1.387 . S
H1097 C1093 0.950 . S
H1098 C1095 0.950 . S
C1099 C1090 1.390 . S
C1099 H1092 0.950 . S
C1099 C1096 1.387 . S
C1100 C1101 1.387 . S
C1100 H1104 0.950 . S
C1100 C1109 1.390 . S
C1101 C1100 1.387 . S
C1101 C1103 1.387 . S
H1102 C1109 0.950 . S
C1103 C1101 1.387 . S
C1103 C1105 1.390 . S
C1103 H1107 0.950 . S
H1104 C1100 0.950 . S
C1105 C1103 1.390 . S
C1105 C1106 1.387 . S
C1105 H1108 0.950 . S
C1106 C1105 1.387 . S
C1106 C1109 1.387 . S
H1107 C1103 0.950 . S
H1108 C1105 0.950 . S
C1109 C1100 1.390 . S
C1109 H1102 0.950 . S
C1109 C1106 1.387 . S
C1110 C1111 1.387 . S
C1110 H1114 0.950 . S
C1110 C1119 1.390 . S
C1111 C1110 1.387 . S
C1111 C1113 1.387 . S
H1112 C1119 0.950 . S
C1113 C1111 1.387 . S
C1113 C1115 1.390 . S
C1113 H1117 0.950 . S
H1114 C1110 0.950 . S
C1115 C1113 1.390 . S
C1115 C1116 1.387 . S
C1115 H1118 0.950 . S
C1116 C1115 1.387 . S
C1116 C1119 1.387 . S
H1117 C1113 0.950 . S
H1118 C1115 0.950 . S
C1119 C1110 1.390 . S
C1119 H1112 0.950 . S
C1119 C1116 1.387 . S
C641 C460 1.751 . S
C646 C2 1.746 1_565 S
C651 C351 1.751 . S
C656 C63 1.745 1_655 S
C661 C82 1.746 1_545 S
C666 C380 1.752 . S
C671 C143 1.747 1_455 S
C676 C431 1.752 . S
C681 C162 1.747 . S
C686 C220 1.752 . S
C691 C271 1.752 . S
C696 C223 1.747 . S
C701 C242 1.747 . S
C706 C300 1.752 . S
C711 C191 1.751 . S
C716 C303 1.746 . S
C721 C140 1.751 . S
C726 C322 1.745 . S
C731 C383 1.746 . S
C736 C31 1.751 . S
C741 C60 1.752 . S
C746 C402 1.747 . S
C751 C111 1.751 . S
C756 C463 1.746 . S
C761 C482 1.747 1_545 S
C766 C540 1.752 . S
C771 C591 1.752 . S
C776 C543 1.747 1_455 S
C781 C620 1.752 . S
C786 C562 1.747 1_565 S
C791 C623 1.746 1_655 S
C796 C511 1.751 . S
C801 C23 1.233 . S
C806 C183 1.233 . S
C811 C202 1.239 . S
C816 C42 1.239 . S
C821 C103 1.233 . S
C826 C263 1.233 . S
C831 C122 1.239 . S
C836 C282 1.239 . S
C841 C343 1.233 . S
C846 C503 1.233 . S
C851 C522 1.239 . S
C856 C362 1.239 . S
C861 C423 1.239 . S
C866 C583 1.239 . S
C871 C442 1.233 . S
C876 C602 1.233 . S
C881 C580 2.622 . S
C886 C20 2.622 1_556 S
C891 C71 2.622 1_554 S
C896 C631 2.622 . S
C901 C100 2.622 1_556 S
C906 C500 2.622 . S
C911 C151 2.625 1_554 S
C916 C551 2.625 . S
C921 C180 2.622 . S
C926 C420 2.622 . S
C931 C231 2.625 . S
C936 C471 2.625 . S
C941 C260 2.622 . S
C946 C340 2.622 . S
C951 C391 2.625 . S
C956 C311 2.625 . S
C961 C25 1.350 . S
C966 C4 1.350 . S
C971 C44 1.345 . S
C976 C65 1.345 . S
C981 C105 1.345 . S
C986 C84 1.345 . S
C991 C145 1.349 . S
C996 C124 1.349 . S
C1001 C164 1.345 . S
C1006 C185 1.345 . S
C1011 C204 1.350 . S
C1016 C225 1.350 . S
C1021 C265 1.350 . S
C1026 C244 1.350 . S
C1031 C305 1.345 . S
C1036 C284 1.345 . S
C1041 C345 1.345 . S
C1046 C324 1.345 . S
C1051 C385 1.350 . S
C1056 C364 1.350 . S
C1061 C404 1.350 . S
C1066 C425 1.350 . S
C1071 C444 1.345 . S
C1076 C465 1.345 . S
C1081 C505 1.350 . S
C1086 C484 1.350 . S
C1091 C545 1.350 . S
C1096 C524 1.350 . S
C1101 C564 1.346 . S
C1106 C585 1.346 . S
C1111 C604 1.345 . S
C1116 C625 1.345 . S
