# Generated by pormake.
# Topology lcx, (8)-cn, num edge types: 1
# Building blocks:
#     Node 0, Type 0, BuildingBlock: OLANAS_clean_sbu_2, # of connection points: 8
#     Node 1, Type 0, BuildingBlock: OLANAS_clean_sbu_2, # of connection points: 8
#     Node 2, Type 0, BuildingBlock: OLANAS_clean_sbu_2, # of connection points: 8
#     Node 3, Type 0, BuildingBlock: OLANAS_clean_sbu_2, # of connection points: 8
#     Node 4, Type 0, BuildingBlock: OLANAS_clean_sbu_2, # of connection points: 8
#     Node 5, Type 0, BuildingBlock: OLANAS_clean_sbu_2, # of connection points: 8
#     Edge 6, Type (0, 0), BuildingBlock: UVAHIK_clean_linker_0, # of connection points: 2
#     Edge 7, Type (0, 0), BuildingBlock: UVAHIK_clean_linker_0, # of connection points: 2
#     Edge 8, Type (0, 0), BuildingBlock: UVAHIK_clean_linker_0, # of connection points: 2
#     Edge 9, Type (0, 0), BuildingBlock: UVAHIK_clean_linker_0, # of connection points: 2
#     Edge 10, Type (0, 0), BuildingBlock: UVAHIK_clean_linker_0, # of connection points: 2
#     Edge 11, Type (0, 0), BuildingBlock: UVAHIK_clean_linker_0, # of connection points: 2
#     Edge 12, Type (0, 0), BuildingBlock: UVAHIK_clean_linker_0, # of connection points: 2
#     Edge 13, Type (0, 0), BuildingBlock: UVAHIK_clean_linker_0, # of connection points: 2
#     Edge 14, Type (0, 0), BuildingBlock: UVAHIK_clean_linker_0, # of connection points: 2
#     Edge 15, Type (0, 0), BuildingBlock: UVAHIK_clean_linker_0, # of connection points: 2
#     Edge 16, Type (0, 0), BuildingBlock: UVAHIK_clean_linker_0, # of connection points: 2
#     Edge 17, Type (0, 0), BuildingBlock: UVAHIK_clean_linker_0, # of connection points: 2
#     Edge 18, Type (0, 0), BuildingBlock: UVAHIK_clean_linker_0, # of connection points: 2
#     Edge 19, Type (0, 0), BuildingBlock: UVAHIK_clean_linker_0, # of connection points: 2
#     Edge 20, Type (0, 0), BuildingBlock: UVAHIK_clean_linker_0, # of connection points: 2
#     Edge 21, Type (0, 0), BuildingBlock: UVAHIK_clean_linker_0, # of connection points: 2
#     Edge 22, Type (0, 0), BuildingBlock: UVAHIK_clean_linker_0, # of connection points: 2
#     Edge 23, Type (0, 0), BuildingBlock: UVAHIK_clean_linker_0, # of connection points: 2
#     Edge 24, Type (0, 0), BuildingBlock: UVAHIK_clean_linker_0, # of connection points: 2
#     Edge 25, Type (0, 0), BuildingBlock: UVAHIK_clean_linker_0, # of connection points: 2
#     Edge 26, Type (0, 0), BuildingBlock: UVAHIK_clean_linker_0, # of connection points: 2
#     Edge 27, Type (0, 0), BuildingBlock: UVAHIK_clean_linker_0, # of connection points: 2
#     Edge 28, Type (0, 0), BuildingBlock: UVAHIK_clean_linker_0, # of connection points: 2
#     Edge 29, Type (0, 0), BuildingBlock: UVAHIK_clean_linker_0, # of connection points: 2
# Relax obj value: 0.048
# Max RMSD: 0.137
# Mean RMSD: 0.137
data_MOF--net-lcx--node1-OLANAS_clean_sbu_2--edge1-UVAHIK_clean_linker_0
_symmetry_space_group_name_H-M    P1
_symmetry_Int_Tables_number       1
_symmetry_cell_setting            triclinic
loop_
_symmetry_equiv_pos_as_xyz
'x, y, z'
_cell_length_a     38.47259
_cell_length_b     38.500408
_cell_length_c     38.496286
_cell_angle_alpha  90.185281
_cell_angle_beta   90.102584
_cell_angle_gamma 90.232188
loop_
_atom_site_label
_atom_site_type_symbol
_atom_site_fract_x
_atom_site_fract_y
_atom_site_fract_z
_atom_type_partial_charge
C0 C 0.9557 0.29499 0.49904 0.0
O1 O 0.92537 0.31049 0.49713 0.0
C2 C 0.98829 0.31427 0.50493 0.0
C3 C 0.99353 0.34997 0.5095 0.0
C4 C 0.02802 0.36197 0.51462 0.0
C5 C 0.05623 0.33844 0.515 0.0
C6 C 0.04889 0.30314 0.51018 0.0
N7 N 0.01589 0.29351 0.50564 0.0
N8 N 0.013 0.24814 0.44996 0.0
Co9 Co 0.00756 0.24686 0.49978 0.0
N10 N -0.00085 0.20028 0.49388 0.0
C11 C 0.99175 0.15328 0.45563 0.0
C12 C 0.98419 0.13239 0.48491 0.0
C13 C 0.98418 0.14679 0.51884 0.0
C14 C 0.99201 0.18214 0.52243 0.0
C15 C -0.00068 0.1884 0.46133 0.0
N16 N 0.00095 0.23803 0.54877 0.0
N17 N 0.95915 0.25978 0.49521 0.0
N18 N 0.05715 0.24163 0.50522 0.0
C19 C 0.00728 0.21587 0.436 0.0
O20 O 0.00846 0.21 0.40236 0.0
C21 C 0.07272 0.27337 0.50976 0.0
O22 O 0.10647 0.27686 0.51402 0.0
C23 C 0.07608 0.20988 0.50491 0.0
C24 C 0.11001 0.16782 0.47272 0.0
C25 C 0.08724 0.19603 0.47321 0.0
C26 C 0.08858 0.19629 0.53625 0.0
C27 C 0.11191 0.16847 0.53603 0.0
C28 C 0.1213 0.15346 0.50417 0.0
C29 C 0.99308 0.20375 0.55405 0.0
O30 O 0.98695 0.19112 0.58513 0.0
C31 C 0.00285 0.26308 0.57617 0.0
C32 C 0.03525 0.27305 0.58989 0.0
C33 C 0.03692 0.29697 0.61727 0.0
C34 C 0.00619 0.31051 0.63103 0.0
C35 C 0.97384 0.29936 0.61861 0.0
C36 C 0.97215 0.27574 0.59105 0.0
C37 C 0.92996 0.23744 0.48903 0.0
C38 C 0.90929 0.22699 0.51714 0.0
C39 C 0.87651 0.21209 0.51132 0.0
C40 C 0.86507 0.20668 0.47718 0.0
C41 C 0.88571 0.21646 0.44899 0.0
C42 C 0.91831 0.23162 0.45489 0.0
C43 C 0.01952 0.27824 0.42942 0.0
C44 C 0.03122 0.33257 0.38304 0.0
C45 C -0.0029 0.32244 0.3907 0.0
C46 C 0.99144 0.29588 0.41469 0.0
C47 C 0.05367 0.2872 0.42021 0.0
C48 C 0.05957 0.31464 0.39708 0.0
H49 H 0.97196 0.36792 0.50915 0.0
H50 H 0.03288 0.38944 0.51829 0.0
H51 H 0.08259 0.34755 0.51898 0.0
H52 H 0.9915 0.14237 0.42968 0.0
H53 H 0.97817 0.10513 0.48131 0.0
H54 H 0.97812 0.13093 0.54119 0.0
H55 H 0.08008 0.20858 0.44912 0.0
H56 H 0.08189 0.20874 0.56056 0.0
H57 H 0.14093 0.13329 0.50366 0.0
H58 H 0.05889 0.26178 0.5799 0.0
H59 H 0.00741 0.32804 0.65315 0.0
H60 H 0.94716 0.26676 0.58175 0.0
H61 H 0.91779 0.2323 0.54339 0.0
H62 H 0.83962 0.19535 0.47245 0.0
H63 H 0.93366 0.24026 0.43309 0.0
H64 H 0.03577 0.35213 0.3633 0.0
H65 H 0.96519 0.28771 0.42041 0.0
H66 H 0.07529 0.2721 0.42991 0.0
C67 C 0.30209 0.48767 0.93893 0.0
O68 O 0.30921 0.4848 0.90566 0.0
C69 C 0.32929 0.48825 0.96589 0.0
C70 C 0.36536 0.48554 0.96235 0.0
C71 C 0.38585 0.4865 0.99296 0.0
C72 C 0.37017 0.49006 0.02605 0.0
C73 C 0.33395 0.49263 0.02747 0.0
N74 N 0.31619 0.49165 -0.00227 0.0
N75 N 0.26214 0.4447 0.00482 0.0
Co76 Co 0.26872 0.49435 0.00104 0.0
N77 N 0.22124 0.49703 0.00439 0.0
C78 C 0.16794 0.46815 0.01138 0.0
C79 C 0.15163 0.50108 0.01089 0.0
C80 C 0.17148 0.53191 0.00711 0.0
C81 C 0.20753 0.52875 0.00384 0.0
C82 C 0.20412 0.46711 0.00795 0.0
N83 N 0.26765 0.54444 -0.00218 0.0
N84 N 0.26877 0.4906 0.95097 0.0
N85 N 0.2763 0.49756 0.05063 0.0
C86 C 0.22755 0.43698 0.00815 0.0
O87 O 0.21618 0.40494 0.01171 0.0
C88 C 0.31109 0.49609 0.05793 0.0
O89 O 0.32315 0.49763 0.08988 0.0
C90 C 0.25021 0.50096 0.07678 0.0
C91 C 0.2145 0.47475 0.12176 0.0
C92 C 0.23804 0.47137 0.09427 0.0
C93 C 0.23933 0.5341 0.08725 0.0
C94 C 0.21584 0.53754 0.11467 0.0
C95 C 0.2031 0.5079 0.13136 0.0
C96 C 0.23413 0.55605 -0.0 0.0
O97 O 0.22632 0.58923 -0.00153 0.0
C98 C 0.2967 0.56721 0.99338 0.0
C99 C 0.31122 0.58386 0.02242 0.0
C100 C 0.33625 0.61 0.01809 0.0
C101 C 0.34713 0.61877 0.9845 0.0
C102 C 0.33174 0.60329 0.95525 0.0
C103 C 0.30675 0.57715 0.95984 0.0
C104 C 0.23904 0.49093 0.92872 0.0
C105 C 0.22617 0.52266 0.9165 0.0
C106 C 0.19908 0.52315 0.89222 0.0
C107 C 0.18462 0.49168 0.88074 0.0
C108 C 0.19826 0.45982 0.89167 0.0
C109 C 0.22546 0.45954 0.91589 0.0
C110 C 0.28872 0.41891 0.0056 0.0
C111 C 0.33528 0.36343 0.00762 0.0
C112 C 0.32294 0.37542 0.97556 0.0
C113 C 0.29961 0.40322 0.97463 0.0
C114 C 0.30047 0.40618 0.03756 0.0
C115 C 0.32334 0.37802 0.03879 0.0
H116 H 0.37729 0.48269 0.93707 0.0
H117 H 0.41382 0.48442 0.99104 0.0
H118 H 0.38579 0.49067 0.04946 0.0
H119 H 0.15284 0.44459 0.01444 0.0
H120 H 0.12369 0.5027 0.01353 0.0
H121 H 0.15907 0.55709 0.00688 0.0
H122 H 0.24728 0.44593 0.08703 0.0
H123 H 0.24993 0.55702 0.07493 0.0
H124 H 0.18586 0.5109 0.15345 0.0
H125 H 0.30181 0.57769 0.04816 0.0
H126 H 0.36497 0.64039 0.98104 0.0
H127 H 0.29393 0.5659 0.93743 0.0
H128 H 0.23806 0.5468 0.92477 0.0
H129 H 0.16488 0.49199 0.86056 0.0
H130 H 0.23683 0.43514 0.92384 0.0
H131 H 0.3518 0.34067 0.00834 0.0
H132 H 0.28898 0.41176 0.95006 0.0
H133 H 0.29081 0.41724 0.06145 0.0
C134 C 0.07108 0.70336 0.48647 0.0
O135 O 0.10284 0.69193 0.48148 0.0
C136 C 0.04083 0.67993 0.48886 0.0
C137 C 0.03937 0.64374 0.48586 0.0
C138 C 0.00637 0.62744 0.48818 0.0
C139 C 0.97586 0.64733 0.49318 0.0
C140 C 0.97943 0.6834 0.49586 0.0
N141 N 0.01123 0.69709 0.49381 0.0
N142 N 0.00813 0.7509 0.44658 0.0
Co143 Co 0.01434 0.74462 0.49604 0.0
N144 N 0.01742 0.79216 0.49817 0.0
C145 C 0.01658 0.84541 0.46876 0.0
C146 C 0.02157 0.862 0.50131 0.0
C147 C 0.02432 0.84234 0.53224 0.0
C148 C 0.022 0.80617 0.52955 0.0
C149 C 0.01455 0.80912 0.46819 0.0
N150 N 0.02094 0.74607 0.54583 0.0
N151 N 0.06374 0.738 0.48943 0.0
N152 N 0.96453 0.74354 0.50216 0.0
C153 C 0.00926 0.78548 0.43849 0.0
O154 O 0.00569 0.79672 0.40647 0.0
C155 C 0.9525 0.71006 0.50058 0.0
O156 O 0.91934 0.70232 0.50371 0.0
C157 C 0.94239 0.77277 0.50721 0.0
C158 C 0.9009 0.8137 0.48343 0.0
C159 C 0.92554 0.78749 0.47857 0.0
C160 C 0.93417 0.78379 0.54097 0.0
C161 C 0.90982 0.81022 0.54602 0.0
C162 C 0.894 0.82562 0.51713 0.0
C163 C 0.02394 0.77974 0.55703 0.0
O164 O 0.02791 0.78782 0.59001 0.0
C165 C 0.021 0.71709 0.56887 0.0
C166 C 0.98937 0.70373 0.58105 0.0
C167 C 0.98903 0.67762 0.6062 0.0
C168 C 0.02061 0.6646 0.61865 0.0
C169 C 0.05234 0.67891 0.60788 0.0
C170 C 0.05249 0.70518 0.58279 0.0
C171 C 0.08961 0.76462 0.48703 0.0
C172 C 0.10369 0.7792 0.51739 0.0
C173 C 0.13027 0.804 0.51521 0.0
C174 C 0.1429 0.81385 0.48258 0.0
C175 C 0.13044 0.79793 0.45223 0.0
C176 C 0.10348 0.77351 0.45454 0.0
C177 C 0.00301 0.72425 0.42113 0.0
C178 C 0.99342 0.67749 0.36632 0.0
C179 C 0.02721 0.68707 0.37624 0.0
C180 C 0.03182 0.71011 0.4041 0.0
C181 C 0.96929 0.71563 0.41007 0.0
C182 C 0.96439 0.69216 0.38259 0.0
H183 H 0.06265 0.6286 0.48171 0.0
H184 H 0.00442 0.59948 0.48592 0.0
H185 H 0.95062 0.63494 0.49473 0.0
H186 H 0.01438 0.8604 0.44514 0.0
H187 H 0.02325 0.89004 0.50257 0.0
H188 H 0.0281 0.85498 0.55712 0.0
H189 H 0.93056 0.77761 0.45274 0.0
H190 H 0.94563 0.77105 0.56319 0.0
H191 H 0.87365 0.84465 0.52118 0.0
H192 H 0.96511 0.71466 0.57223 0.0
H193 H 0.02042 0.64565 0.63947 0.0
H194 H 0.07677 0.71718 0.57504 0.0
H195 H 0.09482 0.77046 0.54255 0.0
H196 H 0.16474 0.83171 0.48108 0.0
H197 H 0.09409 0.76074 0.43128 0.0
H198 H 0.98961 0.66092 0.34377 0.0
H199 H 0.05772 0.71809 0.41159 0.0
H200 H 0.94706 0.72793 0.422 0.0
C201 C 0.7232 0.50687 0.93899 0.0
O202 O 0.71495 0.50874 0.9059 0.0
C203 C 0.69691 0.50392 0.9666 0.0
C204 C 0.66067 0.50252 0.96388 0.0
C205 C 0.64123 0.49861 0.99487 0.0
C206 C 0.65811 0.49604 0.0275 0.0
C207 C 0.69444 0.49751 0.02809 0.0
N208 N 0.71117 0.50154 -0.00193 0.0
N209 N 0.76235 0.55202 0.00415 0.0
Co210 Co 0.75881 0.50207 0.0001 0.0
N211 N 0.80649 0.50242 0.00219 0.0
C212 C 0.85809 0.53468 0.0073 0.0
C213 C 0.87644 0.50286 0.00638 0.0
C214 C 0.85848 0.4708 0.00334 0.0
C215 C 0.82219 0.47163 0.00129 0.0
C216 C 0.82182 0.53338 0.00506 0.0
N217 N 0.76308 0.45219 0.99623 0.0
N218 N 0.75698 0.50621 0.95017 0.0
N219 N 0.75295 0.49794 0.04975 0.0
C220 C 0.79654 0.56196 0.00587 0.0
O221 O 0.80603 0.59467 0.00896 0.0
C222 C 0.71841 0.49547 0.0579 0.0
O223 O 0.70746 0.49347 0.09016 0.0
C224 C 0.77978 0.50114 0.07522 0.0
C225 C 0.81199 0.53665 0.11663 0.0
C226 C 0.7872 0.53366 0.09012 0.0
C227 C 0.79655 0.47136 0.08736 0.0
C228 C 0.82161 0.47426 0.11358 0.0
C229 C 0.82977 0.50694 0.12754 0.0
C230 C 0.79727 0.44267 -0.00198 0.0
O231 O 0.80711 0.41005 0.99625 0.0
C232 C 0.73529 0.42777 0.99262 0.0
C233 C 0.7208 0.41271 0.02233 0.0
C234 C 0.69539 0.38685 0.01901 0.0
C235 C 0.68472 0.376 0.9859 0.0
C236 C 0.70043 0.38956 0.95604 0.0
C237 C 0.72542 0.41592 0.95951 0.0
C238 C 0.78607 0.50678 0.92726 0.0
C239 C 0.80092 0.47545 0.91643 0.0
C240 C 0.82786 0.47542 0.89215 0.0
C241 C 0.84039 0.50711 0.87939 0.0
C242 C 0.82476 0.53851 0.88901 0.0
C243 C 0.79749 0.53829 0.91303 0.0
C244 C 0.73432 0.57623 0.00437 0.0
C245 C 0.6857 0.62965 0.00813 0.0
C246 C 0.7059 0.62595 0.97807 0.0
C247 C 0.72962 0.5985 0.97598 0.0
C248 C 0.71539 0.58154 0.03496 0.0
C249 C 0.69121 0.60838 0.03701 0.0
H250 H 0.64781 0.5042 0.93892 0.0
H251 H 0.61316 0.49744 0.99359 0.0
H252 H 0.64331 0.49294 0.05118 0.0
H253 H 0.87177 0.55919 0.00976 0.0
H254 H 0.90452 0.50304 0.00807 0.0
H255 H 0.87245 0.44647 0.00266 0.0
H256 H 0.77323 0.55644 0.0818 0.0
H257 H 0.78932 0.44606 0.07721 0.0
H258 H 0.84793 0.50876 0.14909 0.0
H259 H 0.73018 0.42024 0.04783 0.0
H260 H 0.6665 0.35452 0.98353 0.0
H261 H 0.738 0.42618 0.93664 0.0
H262 H 0.79067 0.45106 0.92573 0.0
H263 H 0.86011 0.50712 0.85927 0.0
H264 H 0.78458 0.56226 0.91983 0.0
H265 H 0.66772 0.65119 0.01026 0.0
H266 H 0.7461 0.59586 0.95339 0.0
H267 H 0.72074 0.5663 0.05779 0.0
C268 C 0.51634 0.05895 0.29606 0.0
O269 O 0.51625 0.09128 0.30714 0.0
C270 C 0.51971 0.02915 0.31969 0.0
C271 C 0.52327 0.02877 0.35585 0.0
C272 C 0.5252 0.99607 0.37252 0.0
C273 C 0.52334 0.96481 0.35306 0.0
C274 C 0.51963 0.96733 0.31701 0.0
N275 N 0.51838 -0.00115 0.30288 0.0
N276 N 0.56208 0.00194 0.24561 0.0
Co277 Co 0.51266 0.00074 0.25559 0.0
N278 N 0.50679 0.00272 0.20825 0.0
C279 C 0.53216 0.00636 0.15301 0.0
C280 C 0.49816 0.0073 0.13888 0.0
C281 C 0.46863 0.00601 0.16077 0.0
C282 C 0.47419 0.00378 0.19661 0.0
C283 C 0.53556 0.00398 0.18911 0.0
N284 N 0.46249 0.0 0.25765 0.0
N285 N 0.51248 0.05054 0.26171 0.0
N286 N 0.51341 0.95063 0.25722 0.0
C287 C 0.56729 0.00342 0.21044 0.0
O288 O 0.59854 0.00468 0.19672 0.0
C289 C 0.51688 0.93951 0.2908 0.0
O290 O 0.5187 0.90641 0.29884 0.0
C291 C 0.51363 0.92774 0.22803 0.0
C292 C 0.54496 0.88762 0.19101 0.0
C293 C 0.54485 0.91209 0.21789 0.0
C294 C 0.48225 0.918 0.2121 0.0
C295 C 0.48228 0.89363 0.18506 0.0
C296 C 0.51381 0.87941 0.17395 0.0
C297 C 0.44866 0.00213 0.22493 0.0
O298 O 0.41497 0.00119 0.21921 0.0
C299 C 0.44158 0.99418 0.28763 0.0
C300 C 0.43012 0.96043 0.29516 0.0
C301 C 0.40446 0.95493 0.32033 0.0
C302 C 0.39102 0.98353 0.33844 0.0
C303 C 0.4013 0.01748 0.33002 0.0
C304 C 0.42712 0.02262 0.30497 0.0
C305 C 0.5067 0.0756 0.23513 0.0
C306 C 0.47332 0.08913 0.2298 0.0
C307 C 0.46795 0.11451 0.20439 0.0
C308 C 0.49613 0.12614 0.18449 0.0
C309 C 0.52976 0.11396 0.19096 0.0
C310 C 0.53492 0.08844 0.21616 0.0
C311 C 0.59022 0.00328 0.26994 0.0
C312 C 0.65186 0.00297 0.30839 0.0
C313 C 0.64208 0.03334 0.29101 0.0
C314 C 0.61066 0.03357 0.27246 0.0
C315 C 0.60121 0.97273 0.28627 0.0
C316 C 0.632 0.97261 0.30554 0.0
H317 H 0.52441 0.05266 0.37071 0.0
H318 H 0.52798 0.99495 0.40047 0.0
H319 H 0.52467 0.93982 0.36577 0.0
H320 H 0.55475 0.0076 0.13634 0.0
H321 H 0.4947 0.00914 0.11105 0.0
H322 H 0.44263 0.00682 0.15004 0.0
H323 H 0.56867 0.91794 0.23176 0.0
H324 H 0.45787 0.92813 0.22164 0.0
H325 H 0.51358 0.85905 0.15437 0.0
H326 H 0.43958 0.93877 0.27995 0.0
H327 H 0.36951 0.97966 0.35623 0.0
H328 H 0.4342 0.04871 0.29721 0.0
H329 H 0.45189 0.0805 0.24582 0.0
H330 H 0.49236 0.14706 0.16605 0.0
H331 H 0.56089 0.0794 0.22173 0.0
H332 H 0.67604 0.00233 0.32293 0.0
H333 H 0.6032 0.05649 0.25815 0.0
H334 H 0.58708 0.94873 0.28238 0.0
C335 C 0.51116 0.93653 0.71211 0.0
O336 O 0.5097 0.90381 0.7023 0.0
C337 C 0.51254 0.96533 0.68711 0.0
C338 C 0.51176 0.96428 0.65079 0.0
C339 C 0.51271 0.99626 0.63272 0.0
C340 C 0.5143 0.02823 0.65098 0.0
C341 C 0.51494 0.02714 0.6873 0.0
N342 N 0.51419 0.99622 0.70273 0.0
N343 N 0.56415 0.99402 0.75454 0.0
Co344 Co 0.51409 0.99624 0.75043 0.0
N345 N 0.51392 -0.00372 0.79809 0.0
C346 C 0.54575 0.99544 0.85009 0.0
C347 C 0.51368 -0.00353 0.8681 0.0
C348 C 0.48173 -0.00257 0.84977 0.0
C349 C 0.48292 -0.00275 0.81345 0.0
C350 C 0.54481 0.99543 0.81376 0.0
N351 N 0.46407 -0.00156 0.75407 0.0
N352 N 0.51145 0.94618 0.74638 0.0
N353 N 0.51654 0.04627 0.74666 0.0
C354 C 0.57375 0.99423 0.7888 0.0
O355 O 0.60645 0.99281 0.79864 0.0
C356 C 0.51628 0.05596 0.71247 0.0
O357 O 0.51742 0.08869 0.70289 0.0
C358 C 0.51814 0.07076 0.77455 0.0
C359 C 0.55118 0.11344 0.8077 0.0
C360 C 0.55002 0.08616 0.78351 0.0
C361 C 0.48727 0.08322 0.78909 0.0
C362 C 0.48812 0.11053 0.81316 0.0
C363 C 0.52022 0.12479 0.82313 0.0
C364 C 0.45416 -0.00163 0.78818 0.0
O365 O 0.42137 -0.0003 0.79761 0.0
C366 C 0.4401 -0.00017 0.7258 0.0
C367 C 0.42724 0.03197 0.71464 0.0
C368 C 0.40264 0.03324 0.68786 0.0
C369 C 0.39134 0.00229 0.67221 0.0
C370 C 0.40279 0.97008 0.68438 0.0
C371 C 0.42731 0.96892 0.7112 0.0
C372 C 0.5107 0.9216 0.77408 0.0
C373 C 0.47948 0.90483 0.78271 0.0
C374 C 0.4795 0.87712 0.80629 0.0
C375 C 0.51099 0.86657 0.82129 0.0
C376 C 0.54238 0.88232 0.81161 0.0
C377 C 0.542 0.91017 0.78845 0.0
C378 C 0.58854 0.99177 0.72669 0.0
C379 C 0.64002 0.9883 0.67589 0.0
C380 C 0.63007 0.95805 0.6934 0.0
C381 C 0.60417 0.95984 0.71877 0.0
C382 C 0.59957 0.02211 0.70989 0.0
C383 C 0.62548 0.02057 0.68441 0.0
H384 H 0.51031 0.93984 0.63688 0.0
H385 H 0.5121 -0.00373 0.60461 0.0
H386 H 0.5149 0.05269 0.63722 0.0
H387 H 0.57017 0.99466 0.86407 0.0
H388 H 0.51359 -0.00346 0.89621 0.0
H389 H 0.45722 -0.00171 0.86349 0.0
H390 H 0.57359 0.07791 0.7706 0.0
H391 H 0.46255 0.07289 0.78037 0.0
H392 H 0.52077 0.14713 0.84038 0.0
H393 H 0.43561 0.0557 0.72733 0.0
H394 H 0.37103 0.00314 0.65262 0.0
H395 H 0.43566 0.94413 0.72131 0.0
H396 H 0.45553 0.91237 0.77007 0.0
H397 H 0.51146 0.84392 0.83799 0.0
H398 H 0.56626 0.92161 0.78022 0.0
H399 H 0.66136 0.98709 0.65755 0.0
H400 H 0.59692 0.93669 0.73281 0.0
H401 H 0.58888 0.04694 0.71747 0.0
C402 C 0.10901 0.35417 0.38471 0.0
C403 C 0.09396 0.32111 0.38162 0.0
C404 C 0.13301 0.36561 0.36007 0.0
C405 C 0.18002 0.34204 0.27817 0.0
H406 H 0.14425 0.43134 0.24898 0.0
C407 C 0.16953 0.43978 0.15226 0.0
C408 C 0.20458 0.44494 0.14375 0.0
C409 C 0.16043 0.41878 0.18025 0.0
C410 C 0.1544 0.40629 0.25662 0.0
H411 H 0.09442 0.27274 0.35291 0.0
H412 H 0.13575 0.29286 0.30932 0.0
H413 H 0.12577 0.40719 0.30381 0.0
H414 H 0.25748 0.42989 0.15557 0.0
H415 H 0.24151 0.39308 0.20494 0.0
H416 H 0.2079 0.34121 0.22978 0.0
C417 C 0.12972 0.30985 0.33093 0.0
C418 C 0.14435 0.39269 0.28849 0.0
C419 C 0.1061 0.29824 0.35595 0.0
C420 C 0.23022 0.42613 0.16159 0.0
C421 C 0.2211 0.40518 0.18987 0.0
C422 C 0.19029 0.35587 0.24607 0.0
C423 C 0.14159 0.34446 0.33146 0.0
C424 C 0.15664 0.36023 0.2996 0.0
C425 C 0.18624 0.40281 0.2005 0.0
C426 C 0.17692 0.38782 0.23472 0.0
H427 H 0.09981 0.37223 0.40426 0.0
H428 H 0.14244 0.39211 0.36174 0.0
H429 H 0.18996 0.31698 0.286 0.0
H430 H 0.14932 0.45384 0.13867 0.0
H431 H 0.13326 0.4167 0.18732 0.0
C432 C 0.15459 0.56395 0.86948 0.0
C433 C 0.18969 0.5552 0.87354 0.0
C434 C 0.1444 0.58627 0.84291 0.0
C435 C 0.17457 0.64245 0.77004 0.0
H436 H 0.09922 0.59541 0.72189 0.0
C437 C 0.09785 0.69508 0.65086 0.0
C438 C 0.0837 0.67021 0.62807 0.0
C439 C 0.11829 0.68464 0.67904 0.0
C440 C 0.12062 0.60865 0.73468 0.0
H441 H 0.24207 0.56551 0.85571 0.0
H442 H 0.22425 0.60409 0.80874 0.0
H443 H 0.11742 0.57497 0.7783 0.0
H444 H 0.08278 0.61579 0.61408 0.0
H445 H 0.11966 0.59758 0.66231 0.0
H446 H 0.17776 0.67588 0.72552 0.0
C447 C 0.20458 0.5941 0.82619 0.0
C448 C 0.13058 0.59738 0.76749 0.0
C449 C 0.21482 0.57206 0.85313 0.0
C450 C 0.09351 0.63536 0.63137 0.0
C451 C 0.11422 0.62498 0.6592 0.0
C452 C 0.16441 0.65393 0.73699 0.0
C453 C 0.1691 0.59969 0.81954 0.0
C454 C 0.1576 0.61409 0.78567 0.0
C455 C 0.12489 0.64919 0.68457 0.0
C456 C 0.13748 0.63688 0.71887 0.0
H457 H 0.13483 0.55136 0.88508 0.0
H458 H 0.11692 0.59091 0.83904 0.0
H459 H 0.19556 0.65578 0.78339 0.0
H460 H 0.09024 0.72208 0.64897 0.0
H461 H 0.12614 0.70391 0.69808 0.0
C462 C 0.78725 0.5833 0.15419 0.0
C463 C 0.81603 0.56911 0.13684 0.0
C464 C 0.7921 0.60813 0.18039 0.0
C465 C 0.85605 0.66731 0.22171 0.0
H466 H 0.82263 0.62924 0.30874 0.0
C467 C 0.91342 0.7147 0.34994 0.0
C468 C 0.92997 0.68677 0.36641 0.0
C469 C 0.88743 0.70848 0.3252 0.0
C470 C 0.83157 0.64064 0.28464 0.0
H471 H 0.87188 0.57166 0.13087 0.0
H472 H 0.88038 0.61564 0.17597 0.0
H473 H 0.80074 0.60589 0.25374 0.0
H474 H 0.93037 0.631 0.37281 0.0
H475 H 0.88443 0.62005 0.33035 0.0
H476 H 0.8885 0.70054 0.25252 0.0
C477 C 0.85413 0.60754 0.16959 0.0
C478 C 0.81892 0.62744 0.25317 0.0
C479 C 0.84934 0.58233 0.14387 0.0
C480 C 0.91774 0.65289 0.36055 0.0
C481 C 0.89144 0.6467 0.33627 0.0
C482 C 0.86836 0.68081 0.25316 0.0
C483 C 0.82574 0.61956 0.18912 0.0
C484 C 0.83224 0.63959 0.22144 0.0
C485 C 0.87734 0.67428 0.31703 0.0
C486 C 0.8574 0.66652 0.28491 0.0
H487 H 0.76132 0.57328 0.14936 0.0
H488 H 0.76981 0.61709 0.19499 0.0
H489 H 0.86663 0.67718 0.19761 0.0
H490 H 0.92272 0.74103 0.35385 0.0
H491 H 0.87685 0.73018 0.31086 0.0
C492 C 0.81383 0.42286 0.85709 0.0
C493 C 0.83871 0.44303 0.87482 0.0
C494 C 0.82422 0.39927 0.83153 0.0
C495 C 0.89559 0.395 0.76994 0.0
H496 H 0.85125 0.31037 0.7372 0.0
C497 C 0.93206 0.3441 0.63796 0.0
C498 C 0.94277 0.30942 0.63819 0.0
C499 C 0.91118 0.35677 0.66469 0.0
C500 C 0.86379 0.33403 0.74607 0.0
H501 H 0.89368 0.45141 0.88338 0.0
H502 H 0.91203 0.40921 0.83973 0.0
H503 H 0.8348 0.33496 0.79369 0.0
H504 H 0.93824 0.25992 0.66423 0.0
H505 H 0.90234 0.28214 0.71155 0.0
H506 H 0.92507 0.39408 0.72326 0.0
C507 C 0.8845 0.41245 0.84454 0.0
C508 C 0.85439 0.34807 0.77834 0.0
C509 C 0.87411 0.43633 0.86971 0.0
C510 C 0.92977 0.28672 0.6635 0.0
C511 C 0.90929 0.29949 0.69058 0.0
C512 C 0.90488 0.3811 0.73795 0.0
C513 C 0.85965 0.39542 0.82363 0.0
C514 C 0.87042 0.37863 0.79066 0.0
C515 C 0.90154 0.3351 0.69247 0.0
C516 C 0.88908 0.35055 0.7255 0.0
H517 H 0.78632 0.42772 0.86056 0.0
H518 H 0.80445 0.3865 0.81597 0.0
H519 H 0.90786 0.41903 0.77816 0.0
H520 H 0.94207 0.36196 0.61867 0.0
H521 H 0.90485 0.38416 0.665 0.0
C522 C 0.3704 0.04992 0.37671 0.0
C523 C 0.37917 0.0465 0.34156 0.0
C524 C 0.34184 0.06988 0.38646 0.0
C525 C 0.27235 0.12938 0.35464 0.0
H526 H 0.21782 0.07771 0.4216 0.0
C527 C 0.15258 0.18252 0.42696 0.0
C528 C 0.12907 0.1584 0.44096 0.0
C529 C 0.18019 0.17118 0.40639 0.0
C530 C 0.23226 0.09219 0.40231 0.0
H531 H 0.36711 0.06338 0.28928 0.0
H532 H 0.31676 0.09764 0.30615 0.0
H533 H 0.27485 0.05726 0.40587 0.0
H534 H 0.1128 0.10461 0.44109 0.0
H535 H 0.15976 0.08489 0.40338 0.0
H536 H 0.2289 0.16388 0.35065 0.0
C537 C 0.33207 0.08547 0.32632 0.0
C538 C 0.26549 0.08089 0.39393 0.0
C539 C 0.36098 0.0659 0.31664 0.0
C540 C 0.13077 0.12356 0.43054 0.0
C541 C 0.15794 0.11232 0.40941 0.0
C542 C 0.23878 0.14066 0.36293 0.0
C543 C 0.32112 0.08614 0.36112 0.0
C544 C 0.28617 0.09951 0.37036 0.0
C545 C 0.18435 0.13559 0.39927 0.0
C546 C 0.21841 0.12223 0.38703 0.0
H547 H 0.38421 0.03529 0.39633 0.0
H548 H 0.33472 0.0708 0.41365 0.0
H549 H 0.28759 0.14426 0.33628 0.0
H550 H 0.15187 0.20951 0.43498 0.0
H551 H 0.19993 0.18987 0.39904 0.0
C552 C 0.43724 0.84663 0.84477 0.0
C553 C 0.44834 0.85515 0.81117 0.0
C554 C 0.41319 0.81987 0.84979 0.0
C555 C 0.3937 0.7367 0.81312 0.0
H556 H 0.32197 0.73436 0.88367 0.0
C557 C 0.37082 0.62666 0.90926 0.0
C558 C 0.33701 0.61997 0.92114 0.0
C559 C 0.3766 0.65159 0.88363 0.0
C560 C 0.34134 0.73458 0.86328 0.0
H561 H 0.44195 0.84386 0.75636 0.0
H562 H 0.40026 0.79637 0.76523 0.0
H563 H 0.34411 0.79021 0.86325 0.0
H564 H 0.28247 0.63164 0.91366 0.0
H565 H 0.29264 0.67571 0.86907 0.0
H566 H 0.39283 0.68103 0.81516 0.0
C567 C 0.40985 0.8107 0.78756 0.0
C568 C 0.35414 0.76654 0.85181 0.0
C569 C 0.43344 0.83794 0.78251 0.0
C570 C 0.30879 0.63617 0.9047 0.0
C571 C 0.3146 0.66155 0.87943 0.0
C572 C 0.38126 0.70471 0.82498 0.0
C573 C 0.40034 0.80076 0.82132 0.0
C574 C 0.38129 0.76787 0.82753 0.0
C575 C 0.34867 0.6706 0.86988 0.0
C576 C 0.35582 0.70337 0.85106 0.0
H577 H 0.44858 0.85944 0.8672 0.0
H578 H 0.40657 0.81252 0.87611 0.0
H579 H 0.41484 0.73699 0.79456 0.0
H580 H 0.39294 0.61458 0.92173 0.0
H581 H 0.40316 0.65818 0.87696 0.0
C582 C 0.64288 0.93115 0.35354 0.0
C583 C 0.64714 0.94027 0.31865 0.0
C584 C 0.6659 0.90785 0.36906 0.0
C585 C 0.74346 0.85131 0.3525 0.0
H586 H 0.77491 0.89287 0.4389 0.0
C587 C 0.87031 0.85998 0.45034 0.0
C588 C 0.87774 0.82467 0.4549 0.0
C589 C 0.8421 0.87007 0.43002 0.0
C590 C 0.7667 0.88113 0.41462 0.0
H591 H 0.67641 0.93086 0.27171 0.0
H592 H 0.71704 0.8908 0.29866 0.0
H593 H 0.72189 0.91328 0.41221 0.0
H594 H 0.86324 0.77226 0.43998 0.0
H595 H 0.8136 0.78985 0.40463 0.0
H596 H 0.78959 0.82026 0.35445 0.0
C597 C 0.69579 0.9007 0.31415 0.0
C598 C 0.73576 0.89231 0.39965 0.0
C599 C 0.67255 0.92366 0.29863 0.0
C600 C 0.85819 0.7997 0.43659 0.0
C601 C 0.82969 0.80978 0.41647 0.0
C602 C 0.77467 0.84018 0.3675 0.0
C603 C 0.69391 0.89403 0.34999 0.0
C604 C 0.72396 0.87798 0.36811 0.0
C605 C 0.82047 0.845 0.41425 0.0
C606 C 0.78696 0.85555 0.39836 0.0
H607 H 0.62351 0.944 0.36938 0.0
H608 H 0.66323 0.90259 0.39654 0.0
H609 H 0.73499 0.83953 0.32833 0.0
H610 H 0.88521 0.87968 0.46404 0.0
H611 H 0.83629 0.89749 0.42793 0.0
C612 C 0.66103 0.36421 0.91104 0.0
C613 C 0.69492 0.37125 0.92267 0.0
C614 C 0.65507 0.33854 0.886 0.0
C615 C 0.69005 0.25502 0.86622 0.0
H616 H 0.61682 0.2522 0.79696 0.0
C617 C 0.59442 0.14267 0.84642 0.0
C618 C 0.58301 0.13448 0.81274 0.0
C619 C 0.61866 0.16926 0.85173 0.0
C620 C 0.63788 0.25258 0.81567 0.0
H621 H 0.74938 0.3592 0.91545 0.0
H622 H 0.73891 0.31382 0.87191 0.0
H623 H 0.63867 0.30826 0.8178 0.0
H624 H 0.58928 0.14599 0.75806 0.0
H625 H 0.63135 0.19309 0.76744 0.0
H626 H 0.6874 0.19938 0.86602 0.0
C627 C 0.71703 0.32829 0.88201 0.0
C628 C 0.65022 0.28465 0.8277 0.0
C629 C 0.72302 0.3544 0.90667 0.0
C630 C 0.59799 0.15164 0.78427 0.0
C631 C 0.6218 0.1787 0.78962 0.0
C632 C 0.67735 0.22297 0.85458 0.0
C633 C 0.68289 0.31912 0.87259 0.0
C634 C 0.67559 0.28615 0.85393 0.0
C635 C 0.63143 0.1885 0.82348 0.0
C636 C 0.65033 0.22149 0.83006 0.0
H637 H 0.63899 0.3768 0.92317 0.0
H638 H 0.62847 0.33188 0.87943 0.0
H639 H 0.70938 0.25537 0.88672 0.0
H640 H 0.58303 0.12989 0.86873 0.0
H641 H 0.62538 0.17647 0.87814 0.0
C642 C 0.17061 0.7928 0.56426 0.0
C643 C 0.1492 0.81607 0.54626 0.0
C644 C 0.19697 0.80532 0.58606 0.0
C645 C 0.25184 0.88304 0.59013 0.0
H646 H 0.2932 0.83907 0.6706 0.0
C647 C 0.36156 0.92169 0.69554 0.0
C648 C 0.3842 0.93868 0.67258 0.0
C649 C 0.33525 0.90003 0.68266 0.0
C650 C 0.2819 0.85162 0.64814 0.0
H651 H 0.13573 0.87004 0.53929 0.0
H652 H 0.18056 0.89204 0.57869 0.0
H653 H 0.23758 0.81755 0.64784 0.0
H654 H 0.39999 0.94373 0.61898 0.0
H655 H 0.35524 0.90451 0.59646 0.0
H656 H 0.29512 0.91763 0.59065 0.0
C657 C 0.17798 0.86422 0.57516 0.0
C658 C 0.25012 0.83925 0.63507 0.0
C659 C 0.15205 0.85173 0.553 0.0
C660 C 0.38271 0.93083 0.63706 0.0
C661 C 0.35681 0.90878 0.62424 0.0
C662 C 0.28331 0.89537 0.60315 0.0
C663 C 0.20204 0.84129 0.59027 0.0
C664 C 0.23468 0.85498 0.60596 0.0
C665 C 0.33147 0.8949 0.64666 0.0
C666 C 0.29889 0.87978 0.63219 0.0
H667 H 0.169 0.76516 0.55904 0.0
H668 H 0.21501 0.78694 0.59723 0.0
H669 H 0.24123 0.89532 0.56719 0.0
H670 H 0.36211 0.92775 0.72305 0.0
H671 H 0.31622 0.88979 0.70066 0.0
C672 C 0.58503 0.8415 0.21078 0.0
C673 C 0.57515 0.8651 0.18487 0.0
C674 C 0.60387 0.81178 0.20202 0.0
C675 C 0.64692 0.74996 0.17538 0.0
H676 H 0.6059 0.71348 0.09069 0.0
C677 C 0.70063 0.63666 0.09389 0.0
C678 C 0.67763 0.62025 0.07067 0.0
C679 C 0.68819 0.66106 0.11769 0.0
C680 C 0.61715 0.72277 0.11481 0.0
H681 H 0.58049 0.87891 0.13077 0.0
H682 H 0.6149 0.82794 0.11563 0.0
H683 H 0.58995 0.77058 0.11068 0.0
H684 H 0.62366 0.61192 0.05732 0.0
H685 H 0.60153 0.65287 0.10039 0.0
H686 H 0.67383 0.70138 0.17942 0.0
C687 C 0.60713 0.83158 0.14242 0.0
C688 C 0.60864 0.75605 0.12582 0.0
C689 C 0.58787 0.86094 0.15107 0.0
C690 C 0.64176 0.62446 0.07499 0.0
C691 C 0.62926 0.64825 0.09929 0.0
C692 C 0.65549 0.71634 0.1643 0.0
C693 C 0.61321 0.80556 0.16729 0.0
C694 C 0.62375 0.77031 0.15589 0.0
C695 C 0.65255 0.66892 0.11873 0.0
C696 C 0.64078 0.70247 0.13372 0.0
H697 H 0.57514 0.84414 0.23699 0.0
H698 H 0.60821 0.7923 0.22177 0.0
H699 H 0.65876 0.76018 0.19884 0.0
H700 H 0.72847 0.63382 0.0908 0.0
H701 H 0.70687 0.67629 0.13236 0.0
C702 C 0.65345 0.07894 0.69209 0.0
C703 C 0.64145 0.05237 0.66986 0.0
C704 C 0.67707 0.10382 0.67992 0.0
C705 C 0.74836 0.10498 0.62075 0.0
H706 H 0.74767 0.20566 0.62316 0.0
C707 C 0.8185 0.21575 0.53963 0.0
C708 C 0.85293 0.20377 0.54036 0.0
C709 C 0.79424 0.20346 0.5635 0.0
C710 C 0.7483 0.17753 0.62276 0.0
H711 H 0.64132 0.03335 0.61684 0.0
H712 H 0.68275 0.07653 0.59576 0.0
H713 H 0.69811 0.17292 0.64691 0.0
H714 H 0.88988 0.17184 0.56802 0.0
H715 H 0.84714 0.1498 0.60984 0.0
H716 H 0.79782 0.1091 0.59606 0.0
C717 C 0.67432 0.07781 0.62257 0.0
C718 C 0.72005 0.15894 0.63627 0.0
C719 C 0.65062 0.05323 0.63459 0.0
C720 C 0.8634 0.18127 0.56693 0.0
C721 C 0.83898 0.16866 0.59069 0.0
C722 C 0.77667 0.12343 0.60778 0.0
C723 C 0.68895 0.10222 0.64551 0.0
C724 C 0.71953 0.12255 0.63438 0.0
C725 C 0.80392 0.17874 0.58839 0.0
C726 C 0.77661 0.15988 0.60786 0.0
H727 H 0.6469 0.07881 0.71945 0.0
H728 H 0.688 0.12256 0.69798 0.0
H729 H 0.74868 0.07686 0.6195 0.0
H730 H 0.81 0.23348 0.51955 0.0
H731 H 0.76742 0.21151 0.56091 0.0
C732 C 0.41846 0.13642 0.16925 0.0
C733 C 0.43485 0.13346 0.20166 0.0
C734 C 0.39426 0.16269 0.16348 0.0
C735 C 0.38638 0.2515 0.18861 0.0
H736 H 0.30829 0.25039 0.12483 0.0
C737 C 0.36447 0.34989 0.08026 0.0
C738 C 0.33049 0.35995 0.07186 0.0
C739 C 0.37039 0.32653 0.10727 0.0
C740 C 0.32958 0.25125 0.14328 0.0
H741 H 0.43706 0.15341 0.25424 0.0
H742 H 0.39494 0.19987 0.24402 0.0
H743 H 0.32692 0.19635 0.15225 0.0
H744 H 0.27621 0.35518 0.08616 0.0
H745 H 0.28658 0.31371 0.13313 0.0
H746 H 0.39072 0.30587 0.17755 0.0
C747 C 0.40058 0.18174 0.22322 0.0
C748 C 0.3403 0.22031 0.15881 0.0
C749 C 0.42441 0.15506 0.22914 0.0
C750 C 0.30271 0.34801 0.09234 0.0
C751 C 0.30857 0.32416 0.11901 0.0
C752 C 0.37596 0.28232 0.17271 0.0
C753 C 0.38655 0.18676 0.18989 0.0
C754 C 0.3696 0.21995 0.18061 0.0
C755 C 0.34237 0.31242 0.12599 0.0
C756 C 0.34829 0.2822 0.14891 0.0
H757 H 0.42643 0.12017 0.14768 0.0
H758 H 0.3841 0.16608 0.13745 0.0
H759 H 0.40929 0.25196 0.20502 0.0
H760 H 0.38625 0.35875 0.06479 0.0
H761 H 0.39669 0.31767 0.11188 0.0
C762 C 0.94885 0.63315 0.6305 0.0
C763 C 0.95682 0.66821 0.62474 0.0
C764 C 0.92589 0.62382 0.6569 0.0
C765 C 0.86604 0.6561 0.7257 0.0
H766 H 0.9132 0.58561 0.77966 0.0
C767 C 0.80953 0.58227 0.84442 0.0
C768 C 0.83354 0.56974 0.86882 0.0
C769 C 0.82092 0.60243 0.81647 0.0
C770 C 0.89991 0.60572 0.76525 0.0
H771 H 0.94458 0.72116 0.63926 0.0
H772 H 0.90485 0.70488 0.68592 0.0
H773 H 0.93575 0.60159 0.72341 0.0
H774 H 0.88704 0.57158 0.88597 0.0
H775 H 0.9068 0.60808 0.83811 0.0
H776 H 0.83035 0.66021 0.7684 0.0
C777 C 0.91596 0.68457 0.66993 0.0
C778 C 0.91243 0.61435 0.73255 0.0
C779 C 0.93866 0.69391 0.64318 0.0
C780 C 0.86816 0.58103 0.86738 0.0
C781 C 0.87944 0.60153 0.83978 0.0
C782 C 0.85332 0.64728 0.75866 0.0
C783 C 0.91102 0.64941 0.67836 0.0
C784 C 0.89564 0.63948 0.71225 0.0
C785 C 0.85641 0.6104 0.81281 0.0
C786 C 0.87032 0.62209 0.77884 0.0
H787 H 0.96242 0.61294 0.61639 0.0
H788 H 0.9218 0.59649 0.66218 0.0
H789 H 0.85266 0.67569 0.71068 0.0
H790 H 0.78274 0.57351 0.84494 0.0
H791 H 0.80254 0.60888 0.79617 0.0
C792 C 0.96496 0.37012 0.36103 0.0
C793 C 0.96859 0.33466 0.36822 0.0
C794 C 0.94407 0.38091 0.33348 0.0
C795 C 0.88071 0.35102 0.26594 0.0
H796 H 0.92514 0.42446 0.21341 0.0
C797 C 0.81421 0.42659 0.15564 0.0
C798 C 0.83527 0.44349 0.13126 0.0
C799 C 0.82918 0.40586 0.18125 0.0
C800 C 0.91267 0.40339 0.22723 0.0
H801 H 0.95168 0.28276 0.35397 0.0
H802 H 0.91593 0.30142 0.30535 0.0
H803 H 0.95081 0.40559 0.26733 0.0
H804 H 0.88754 0.44957 0.11172 0.0
H805 H 0.91375 0.41152 0.15508 0.0
H806 H 0.84314 0.3482 0.22489 0.0
C807 C 0.92855 0.32106 0.3212 0.0
C808 C 0.92698 0.39314 0.25877 0.0
C809 C 0.94901 0.31033 0.34911 0.0
C810 C 0.87094 0.43656 0.13034 0.0
C811 C 0.88587 0.41525 0.15549 0.0
C812 C 0.86652 0.36105 0.23403 0.0
C813 C 0.92705 0.35636 0.31215 0.0
C814 C 0.91096 0.36721 0.27882 0.0
C815 C 0.86546 0.40151 0.18256 0.0
C816 C 0.88219 0.38762 0.21443 0.0
H817 H 0.97966 0.38931 0.37562 0.0
H818 H 0.94257 0.40841 0.32791 0.0
H819 H 0.8677 0.33093 0.2807 0.0
H820 H 0.78663 0.43211 0.15694 0.0
H821 H 0.81261 0.39589 0.20164 0.0
C822 C 0.08178 0.33972 0.63523 0.0
C823 C 0.06972 0.30536 0.63518 0.0
C824 C 0.10452 0.35115 0.66117 0.0
C825 C 0.1561 0.32559 0.73907 0.0
H826 H 0.11512 0.4095 0.7767 0.0
C827 C 0.21196 0.41044 0.85212 0.0
C828 C 0.18759 0.42812 0.87269 0.0
C829 C 0.20077 0.38842 0.8253 0.0
C830 C 0.12665 0.38583 0.76682 0.0
H831 H 0.07388 0.25513 0.65979 0.0
H832 H 0.11334 0.27514 0.70561 0.0
H833 H 0.09443 0.38666 0.72182 0.0
H834 H 0.13294 0.43378 0.88437 0.0
H835 H 0.11332 0.3945 0.83839 0.0
H836 H 0.18805 0.32489 0.78496 0.0
C837 C 0.10581 0.2932 0.68547 0.0
C838 C 0.11528 0.3731 0.73491 0.0
C839 C 0.08332 0.28168 0.65922 0.0
C840 C 0.15214 0.42049 0.86869 0.0
C841 C 0.14099 0.39832 0.84218 0.0
C842 C 0.16773 0.33856 0.77119 0.0
C843 C 0.11494 0.32853 0.68785 0.0
C844 C 0.12976 0.34285 0.72058 0.0
C845 C 0.16507 0.38377 0.8189 0.0
C846 C 0.15278 0.36864 0.78552 0.0
H847 H 0.07138 0.35836 0.61696 0.0
H848 H 0.11179 0.37836 0.66186 0.0
H849 H 0.16768 0.30216 0.72872 0.0
H850 H 0.23945 0.41619 0.85457 0.0
H851 H 0.21993 0.37755 0.80784 0.0
C852 C 0.07888 0.70259 0.34006 0.0
C853 C 0.05668 0.67698 0.35378 0.0
C854 C 0.10121 0.69461 0.31255 0.0
C855 C 0.10422 0.63318 0.23989 0.0
H856 H 0.19871 0.66559 0.22619 0.0
C857 C 0.17552 0.58716 0.12106 0.0
C858 C 0.20713 0.57148 0.12968 0.0
C859 C 0.16062 0.61129 0.1437 0.0
C860 C 0.17224 0.65656 0.22957 0.0
H861 H 0.04273 0.62248 0.35202 0.0
H862 H 0.08218 0.60832 0.30458 0.0
H863 H 0.16741 0.68169 0.2792 0.0
H864 H 0.24966 0.57046 0.1664 0.0
H865 H 0.2236 0.61195 0.20631 0.0
H866 H 0.10909 0.60674 0.19155 0.0
C867 C 0.08163 0.63476 0.31426 0.0
C868 C 0.15434 0.66584 0.25986 0.0
C869 C 0.05928 0.64274 0.34157 0.0
C870 C 0.22541 0.58274 0.15919 0.0
C871 C 0.21038 0.60652 0.18203 0.0
C872 C 0.12198 0.62394 0.20982 0.0
C873 C 0.10166 0.66092 0.29844 0.0
C874 C 0.12046 0.65339 0.26569 0.0
C875 C 0.17681 0.61935 0.17561 0.0
C876 C 0.15648 0.63485 0.20454 0.0
H877 H 0.07721 0.72928 0.34887 0.0
H878 H 0.1164 0.71527 0.30095 0.0
H879 H 0.07781 0.6239 0.24321 0.0
H880 H 0.16098 0.5785 0.09848 0.0
H881 H 0.1351 0.62139 0.13759 0.0
C882 C 0.67243 0.91439 0.71501 0.0
C883 C 0.65098 0.92645 0.68807 0.0
C884 C 0.70111 0.89342 0.70741 0.0
C885 C 0.76008 0.84456 0.68019 0.0
H886 H 0.80649 0.89239 0.60473 0.0
C887 C 0.87376 0.79281 0.59637 0.0
C888 C 0.89515 0.81778 0.58055 0.0
C889 C 0.84834 0.80307 0.62018 0.0
C890 C 0.79429 0.87903 0.62625 0.0
H891 H 0.63967 0.92286 0.63313 0.0
H892 H 0.68909 0.88555 0.61992 0.0
H893 H 0.74943 0.9111 0.62288 0.0
H894 H 0.91049 0.87185 0.58046 0.0
H895 H 0.86717 0.88968 0.62313 0.0
H896 H 0.80543 0.81213 0.68296 0.0
C897 C 0.68437 0.89283 0.64671 0.0
C898 C 0.7612 0.88935 0.63619 0.0
C899 C 0.65598 0.9139 0.65424 0.0
C900 C 0.89419 0.85222 0.59237 0.0
C901 C 0.86916 0.86239 0.61649 0.0
C902 C 0.79339 0.83387 0.66991 0.0
C903 C 0.70845 0.88433 0.67283 0.0
C904 C 0.7435 0.87203 0.6629 0.0
C905 C 0.84428 0.8384 0.6285 0.0
C906 C 0.81079 0.85107 0.64275 0.0
H907 H 0.66913 0.924 0.74128 0.0
H908 H 0.71922 0.88717 0.72802 0.0
H909 H 0.74706 0.831 0.70109 0.0
H910 H 0.87396 0.76611 0.58737 0.0
H911 H 0.82965 0.78396 0.62904 0.0
C912 C 0.6487 0.36503 0.05773 0.0
C913 C 0.684 0.36639 0.04908 0.0
C914 C 0.6362 0.3386 0.07909 0.0
C915 C 0.61345 0.26579 0.09301 0.0
H916 H 0.66312 0.21721 0.16571 0.0
C917 C 0.56139 0.1363 0.13933 0.0
C918 C 0.55931 0.13264 0.17544 0.0
C919 C 0.58299 0.16161 0.12495 0.0
C920 C 0.64888 0.23055 0.14551 0.0
H921 H 0.73441 0.3431 0.0572 0.0
H922 H 0.71259 0.29616 0.09365 0.0
H923 H 0.68575 0.27239 0.14401 0.0
H924 H 0.57969 0.1503 0.2249 0.0
H925 H 0.61659 0.19537 0.20001 0.0
H926 H 0.5759 0.22516 0.09522 0.0
C927 C 0.69454 0.31577 0.08488 0.0
C928 C 0.66195 0.26209 0.13294 0.0
C929 C 0.7071 0.34265 0.06405 0.0
C930 C 0.5812 0.15258 0.19689 0.0
C931 C 0.60232 0.1784 0.18257 0.0
C932 C 0.60029 0.23464 0.10573 0.0
C933 C 0.65868 0.31252 0.09127 0.0
C934 C 0.6443 0.28011 0.10655 0.0
C935 C 0.60211 0.18433 0.14653 0.0
C936 C 0.61785 0.21647 0.13201 0.0
H937 H 0.63054 0.38315 0.04627 0.0
H938 H 0.60859 0.33749 0.08439 0.0
H939 H 0.59954 0.27836 0.07209 0.0
H940 H 0.54475 0.12101 0.1224 0.0
H941 H 0.5831 0.16471 0.097 0.0
C942 C 0.36018 0.07856 0.70446 0.0
C943 C 0.38347 0.06527 0.67978 0.0
C944 C 0.33222 0.09908 0.69385 0.0
C945 C 0.27833 0.10137 0.61653 0.0
H946 H 0.22492 0.17102 0.66582 0.0
C947 C 0.13989 0.12524 0.57516 0.0
C948 C 0.13288 0.16002 0.56709 0.0
C949 C 0.16813 0.11692 0.59629 0.0
C950 C 0.23962 0.15154 0.65186 0.0
H951 H 0.39893 0.06638 0.62584 0.0
H952 H 0.35108 0.10352 0.60741 0.0
H953 H 0.28384 0.15664 0.68572 0.0
H954 H 0.14749 0.21348 0.57756 0.0
H955 H 0.19701 0.19892 0.61431 0.0
H956 H 0.23481 0.09617 0.5826 0.0
C957 C 0.35357 0.09726 0.63472 0.0
C958 C 0.27327 0.14335 0.6632 0.0
C959 C 0.38119 0.07639 0.64524 0.0
C960 C 0.1522 0.18643 0.58358 0.0
C961 C 0.18066 0.17809 0.60454 0.0
C962 C 0.24491 0.10937 0.6054 0.0
C963 C 0.32744 0.10666 0.65846 0.0
C964 C 0.29299 0.11818 0.64554 0.0
C965 C 0.19006 0.14322 0.6094 0.0
C966 C 0.225 0.13429 0.62302 0.0
H967 H 0.36136 0.06999 0.73122 0.0
H968 H 0.31262 0.10597 0.71279 0.0
H969 H 0.29237 0.08128 0.60275 0.0
H970 H 0.1252 0.10446 0.56294 0.0
H971 H 0.17424 0.08979 0.60037 0.0
C972 C 0.38151 0.64126 0.05257 0.0
C973 C 0.34638 0.63308 0.04712 0.0
C974 C 0.39081 0.6699 0.07288 0.0
C975 C 0.40053 0.74584 0.08612 0.0
H976 H 0.35406 0.78186 0.16784 0.0
C977 C 0.44212 0.87685 0.13729 0.0
C978 C 0.45 0.87695 0.17282 0.0
C979 C 0.42037 0.85121 0.12341 0.0
C980 C 0.36726 0.77215 0.14499 0.0
H981 H 0.29347 0.64664 0.06044 0.0
H982 H 0.30962 0.69716 0.0955 0.0
H983 H 0.33781 0.72468 0.1449 0.0
H984 H 0.4391 0.85288 0.22234 0.0
H985 H 0.40198 0.80743 0.19817 0.0
H986 H 0.43097 0.79206 0.08669 0.0
C987 C 0.33006 0.68127 0.08458 0.0
C988 C 0.35786 0.73945 0.13178 0.0
C989 C 0.32078 0.65227 0.06459 0.0
C990 C 0.433 0.85343 0.19484 0.0
C991 C 0.41179 0.82732 0.1809 0.0
C992 C 0.40999 0.77821 0.09933 0.0
C993 C 0.36512 0.69133 0.08758 0.0
C994 C 0.37476 0.72575 0.10242 0.0
C995 C 0.40703 0.82466 0.14473 0.0
C996 C 0.39368 0.79181 0.12904 0.0
H997 H 0.40165 0.62671 0.03941 0.0
H998 H 0.41812 0.67631 0.07556 0.0
H999 H 0.4135 0.7366 0.06294 0.0
H1000 H 0.45509 0.89478 0.11991 0.0
H1001 H 0.41628 0.85062 0.09558 0.0
C1002 C 0.84525 0.237 0.40354 0.0
C1003 C 0.87078 0.2133 0.41394 0.0
C1004 C 0.82276 0.22882 0.37619 0.0
C1005 C 0.80201 0.16393 0.30734 0.0
H1006 H 0.70992 0.16674 0.34802 0.0
C1007 C 0.70222 0.05716 0.28539 0.0
C1008 C 0.66654 0.06323 0.29004 0.0
C1009 C 0.72626 0.08407 0.28879 0.0
C1010 C 0.73508 0.1665 0.33547 0.0
H1011 H 0.89498 0.16398 0.40279 0.0
H1012 H 0.85579 0.1495 0.35471 0.0
H1013 H 0.75661 0.20014 0.37416 0.0
H1014 H 0.62775 0.10293 0.29864 0.0
H1015 H 0.6699 0.15053 0.30395 0.0
H1016 H 0.78064 0.12925 0.26931 0.0
C1017 C 0.85326 0.17458 0.36726 0.0
C1018 C 0.76201 0.1857 0.35059 0.0
C1019 C 0.87571 0.18277 0.39473 0.0
C1020 C 0.65514 0.09743 0.29538 0.0
C1021 C 0.67932 0.1246 0.29861 0.0
C1022 C 0.77493 0.14504 0.2919 0.0
C1023 C 0.82542 0.1967 0.35897 0.0
C1024 C 0.79607 0.18338 0.33764 0.0
C1025 C 0.71529 0.118 0.29653 0.0
C1026 C 0.74151 0.1447 0.30686 0.0
H1027 H 0.84092 0.26056 0.41838 0.0
H1028 H 0.80177 0.24648 0.37014 0.0
H1029 H 0.82792 0.16204 0.29656 0.0
H1030 H 0.71176 0.03121 0.28024 0.0
H1031 H 0.75359 0.07769 0.2873 0.0
C1032 C 0.36484 0.34949 0.9338 0.0
C1033 C 0.33037 0.35482 0.94417 0.0
C1034 C 0.37268 0.32365 0.90957 0.0
C1035 C 0.34529 0.23784 0.89017 0.0
H1036 H 0.41203 0.2428 0.81496 0.0
C1037 C 0.44934 0.13638 0.85814 0.0
C1038 C 0.45598 0.12879 0.82313 0.0
C1039 C 0.42381 0.16047 0.86705 0.0
C1040 C 0.39283 0.24102 0.83544 0.0
H1041 H 0.27686 0.33885 0.93661 0.0
H1042 H 0.29073 0.29277 0.89475 0.0
H1043 H 0.38719 0.29636 0.83855 0.0
H1044 H 0.4402 0.13872 0.77003 0.0
H1045 H 0.39601 0.18165 0.78567 0.0
H1046 H 0.35311 0.1827 0.88896 0.0
C1047 C 0.3115 0.30899 0.90487 0.0
C1048 C 0.3788 0.2716 0.84897 0.0
C1049 C 0.30359 0.33538 0.92855 0.0
C1050 C 0.43524 0.14394 0.79725 0.0
C1051 C 0.41018 0.16857 0.80612 0.0
C1052 C 0.35986 0.2073 0.87711 0.0
C1053 C 0.34621 0.30228 0.89601 0.0
C1054 C 0.35562 0.27028 0.87703 0.0
C1055 C 0.40507 0.17781 0.84103 0.0
C1056 C 0.38442 0.20875 0.85026 0.0
H1057 H 0.38583 0.36403 0.94587 0.0
H1058 H 0.39968 0.3187 0.90339 0.0
H1059 H 0.32773 0.23622 0.91209 0.0
H1060 H 0.46521 0.12511 0.87844 0.0
H1061 H 0.42054 0.16741 0.89414 0.0
C1062 C 0.15699 0.83685 0.40796 0.0
C1063 C 0.14998 0.80309 0.41967 0.0
C1064 C 0.18341 0.84272 0.38386 0.0
C1065 C 0.26801 0.80846 0.3675 0.0
H1066 H 0.27205 0.88209 0.29918 0.0
C1067 C 0.37785 0.90741 0.35554 0.0
C1068 C 0.38609 0.9212 0.32287 0.0
C1069 C 0.35259 0.88146 0.35857 0.0
C1070 C 0.27142 0.86086 0.31758 0.0
H1071 H 0.16295 0.74873 0.41364 0.0
H1072 H 0.20967 0.75906 0.37171 0.0
H1073 H 0.21572 0.85894 0.31714 0.0
H1074 H 0.37652 0.9169 0.2675 0.0
H1075 H 0.33204 0.87168 0.27287 0.0
H1076 H 0.32358 0.8122 0.36985 0.0
C1077 C 0.19459 0.78089 0.38099 0.0
C1078 C 0.23915 0.8478 0.32798 0.0
C1079 C 0.16773 0.77497 0.40472 0.0
C1080 C 0.37083 0.90652 0.293 0.0
C1081 C 0.3452 0.88087 0.29606 0.0
C1082 C 0.30026 0.82182 0.35741 0.0
C1083 C 0.20361 0.81496 0.3715 0.0
C1084 C 0.2371 0.82244 0.35402 0.0
C1085 C 0.33482 0.86918 0.32899 0.0
C1086 C 0.30218 0.84909 0.33335 0.0
H1087 H 0.14371 0.85889 0.41933 0.0
H1088 H 0.18994 0.86929 0.37726 0.0
H1089 H 0.26723 0.78911 0.38785 0.0
H1090 H 0.38924 0.91838 0.37891 0.0
H1091 H 0.34497 0.87315 0.38432 0.0
C1092 C 0.70559 0.68859 0.96259 0.0
C1093 C 0.70541 0.65379 0.95162 0.0
C1094 C 0.70177 0.71534 0.93877 0.0
C1095 C 0.66204 0.73076 0.85392 0.0
H1096 H 0.68957 0.82513 0.87709 0.0
C1097 C 0.59589 0.85069 0.79441 0.0
C1098 C 0.57541 0.86543 0.82078 0.0
C1099 C 0.62316 0.8284 0.80284 0.0
C1100 C 0.68226 0.79887 0.86986 0.0
H1101 H 0.70423 0.61971 0.90677 0.0
H1102 H 0.69808 0.66688 0.86451 0.0
H1103 H 0.71983 0.77636 0.90383 0.0
H1104 H 0.56837 0.8706 0.87627 0.0
H1105 H 0.61709 0.83254 0.89115 0.0
H1106 H 0.62402 0.75362 0.82043 0.0
C1107 C 0.70027 0.67334 0.89182 0.0
C1108 C 0.69927 0.77093 0.88532 0.0
C1109 C 0.70392 0.64634 0.91591 0.0
C1110 C 0.58405 0.85963 0.85564 0.0
C1111 C 0.61186 0.83805 0.86406 0.0
C1112 C 0.64562 0.75872 0.83784 0.0
C1113 C 0.69818 0.70814 0.90313 0.0
C1114 C 0.68788 0.7366 0.87921 0.0
C1115 C 0.63079 0.82136 0.83772 0.0
C1116 C 0.65444 0.7929 0.84708 0.0
H1117 H 0.70774 0.69521 0.98989 0.0
H1118 H 0.6998 0.74157 0.94877 0.0
H1119 H 0.65236 0.70483 0.84862 0.0
H1120 H 0.58934 0.85459 0.76731 0.0
H1121 H 0.63732 0.81553 0.78221 0.0
loop_
_geom_bond_atom_site_label_1
_geom_bond_atom_site_label_2
_geom_bond_distance
_geom_bond_site_symmetry_2
_ccdc_geom_bond_type
C0 O1 1.201 . S
C0 C2 1.493 . S
C0 N17 1.318 . S
O1 C0 1.201 . S
C2 C0 1.493 . S
C2 C3 1.381 . S
C2 N7 1.335 1_655 S
C3 C2 1.381 . S
C3 C4 1.411 1_655 S
C3 H49 0.931 . S
C4 C3 1.411 1_455 S
C4 C5 1.384 . S
C4 H50 0.930 . S
C5 C4 1.384 . S
C5 C6 1.376 . S
C5 H51 0.929 . S
C6 C5 1.376 . S
C6 N7 1.330 . S
C6 C21 1.484 . S
N7 C2 1.335 1_455 S
N7 C6 1.330 . S
N7 Co9 1.859 . S
N8 Co9 1.962 . S
N8 C19 1.318 . S
N8 C43 1.421 . S
Co9 N7 1.859 . S
Co9 N8 1.962 . S
Co9 N10 1.859 . S
Co9 N16 1.958 . S
Co9 N17 1.962 1_455 S
Co9 N18 1.958 . S
N10 Co9 1.859 . S
N10 C14 1.330 . S
N10 C15 1.335 . S
C11 C12 1.411 . S
C11 C15 1.381 . S
C11 H52 0.931 . S
C12 C11 1.411 . S
C12 C13 1.384 . S
C12 H53 0.930 . S
C13 C12 1.384 . S
C13 C14 1.376 . S
C13 H54 0.929 . S
C14 N10 1.330 . S
C14 C13 1.376 . S
C14 C29 1.484 . S
C15 N10 1.335 . S
C15 C11 1.381 . S
C15 C19 1.493 . S
N16 Co9 1.958 . S
N16 C29 1.344 . S
N16 C31 1.425 . S
N17 C0 1.318 . S
N17 Co9 1.962 1_655 S
N17 C37 1.421 . S
N18 Co9 1.958 . S
N18 C21 1.344 . S
N18 C23 1.425 . S
C19 N8 1.318 . S
C19 C15 1.493 . S
C19 O20 1.201 . S
O20 C19 1.201 . S
C21 C6 1.484 . S
C21 N18 1.344 . S
C21 O22 1.268 . S
O22 C21 1.268 . S
C23 N18 1.425 . S
C23 C25 1.392 . S
C23 C26 1.368 . S
C24 C25 1.382 . S
C24 C28 1.386 . S
C25 C23 1.392 . S
C25 C24 1.382 . S
C25 H55 0.928 . S
C26 C23 1.368 . S
C26 C27 1.367 . S
C26 H56 0.930 . S
C27 C26 1.367 . S
C27 C28 1.369 . S
C28 C24 1.386 . S
C28 C27 1.369 . S
C28 H57 0.930 . S
C29 C14 1.484 . S
C29 N16 1.344 . S
C29 O30 1.268 . S
O30 C29 1.268 . S
C31 N16 1.425 . S
C31 C32 1.368 . S
C31 C36 1.392 1_455 S
C32 C31 1.368 . S
C32 C33 1.367 . S
C32 H58 0.930 . S
C33 C32 1.367 . S
C33 C34 1.369 . S
C34 C33 1.369 . S
C34 C35 1.386 1_455 S
C34 H59 0.930 . S
C35 C34 1.386 1_655 S
C35 C36 1.382 . S
C36 C31 1.392 1_655 S
C36 C35 1.382 . S
C36 H60 0.928 . S
C37 N17 1.421 . S
C37 C38 1.371 . S
C37 C42 1.385 . S
C38 C37 1.371 . S
C38 C39 1.367 . S
C38 H61 0.931 . S
C39 C38 1.367 . S
C39 C40 1.401 . S
C40 C39 1.401 . S
C40 C41 1.385 . S
C40 H62 0.930 . S
C41 C40 1.385 . S
C41 C42 1.402 . S
C42 C37 1.385 . S
C42 C41 1.402 . S
C42 H63 0.929 . S
C43 N8 1.421 . S
C43 C46 1.385 1_455 S
C43 C47 1.371 . S
C44 C45 1.385 1_455 S
C44 C48 1.401 . S
C44 H64 0.930 . S
C45 C44 1.385 1_655 S
C45 C46 1.402 . S
C46 C43 1.385 1_655 S
C46 C45 1.402 . S
C46 H65 0.929 . S
C47 C43 1.371 . S
C47 C48 1.367 . S
C47 H66 0.931 . S
C48 C44 1.401 . S
C48 C47 1.367 . S
H49 C3 0.931 . S
H50 C4 0.930 . S
H51 C5 0.929 . S
H52 C11 0.931 . S
H53 C12 0.930 . S
H54 C13 0.929 . S
H55 C25 0.928 . S
H56 C26 0.930 . S
H57 C28 0.930 . S
H58 C32 0.930 . S
H59 C34 0.930 . S
H60 C36 0.928 . S
H61 C38 0.931 . S
H62 C40 0.930 . S
H63 C42 0.929 . S
H64 C44 0.930 . S
H65 C46 0.929 . S
H66 C47 0.931 . S
C67 O68 1.201 . S
C67 C69 1.493 . S
C67 N84 1.318 . S
O68 C67 1.201 . S
C69 C67 1.493 . S
C69 C70 1.381 . S
C69 N74 1.335 1_556 S
C70 C69 1.381 . S
C70 C71 1.411 1_556 S
C70 H116 0.931 . S
C71 C70 1.411 1_554 S
C71 C72 1.384 . S
C71 H117 0.930 . S
C72 C71 1.384 . S
C72 C73 1.376 . S
C72 H118 0.929 . S
C73 C72 1.376 . S
C73 N74 1.330 . S
C73 C88 1.484 . S
N74 C69 1.335 1_554 S
N74 C73 1.330 . S
N74 Co76 1.859 . S
N75 Co76 1.962 . S
N75 C86 1.318 . S
N75 C110 1.421 . S
Co76 N74 1.859 . S
Co76 N75 1.962 . S
Co76 N77 1.859 . S
Co76 N83 1.958 . S
Co76 N84 1.962 1_554 S
Co76 N85 1.958 . S
N77 Co76 1.859 . S
N77 C81 1.330 . S
N77 C82 1.335 . S
C78 C79 1.411 . S
C78 C82 1.381 . S
C78 H119 0.931 . S
C79 C78 1.411 . S
C79 C80 1.384 . S
C79 H120 0.930 . S
C80 C79 1.384 . S
C80 C81 1.376 . S
C80 H121 0.929 . S
C81 N77 1.330 . S
C81 C80 1.376 . S
C81 C96 1.484 . S
C82 N77 1.335 . S
C82 C78 1.381 . S
C82 C86 1.493 . S
N83 Co76 1.958 . S
N83 C96 1.344 . S
N83 C98 1.425 . S
N84 C67 1.318 . S
N84 Co76 1.962 1_556 S
N84 C104 1.421 . S
N85 Co76 1.958 . S
N85 C88 1.344 . S
N85 C90 1.425 . S
C86 N75 1.318 . S
C86 C82 1.493 . S
C86 O87 1.201 . S
O87 C86 1.201 . S
C88 C73 1.484 . S
C88 N85 1.344 . S
C88 O89 1.268 . S
O89 C88 1.268 . S
C90 N85 1.425 . S
C90 C92 1.392 . S
C90 C93 1.368 . S
C91 C92 1.382 . S
C91 C95 1.386 . S
C92 C90 1.392 . S
C92 C91 1.382 . S
C92 H122 0.928 . S
C93 C90 1.368 . S
C93 C94 1.367 . S
C93 H123 0.930 . S
C94 C93 1.367 . S
C94 C95 1.369 . S
C95 C91 1.386 . S
C95 C94 1.369 . S
C95 H124 0.930 . S
C96 C81 1.484 . S
C96 N83 1.344 . S
C96 O97 1.268 . S
O97 C96 1.268 . S
C98 N83 1.425 . S
C98 C99 1.368 . S
C98 C103 1.392 1_554 S
C99 C98 1.368 . S
C99 C100 1.367 . S
C99 H125 0.930 . S
C100 C99 1.367 . S
C100 C101 1.369 1_554 S
C101 C100 1.369 1_556 S
C101 C102 1.386 . S
C101 H126 0.930 . S
C102 C101 1.386 . S
C102 C103 1.382 . S
C103 C98 1.392 1_556 S
C103 C102 1.382 . S
C103 H127 0.928 . S
C104 N84 1.421 . S
C104 C105 1.371 . S
C104 C109 1.385 . S
C105 C104 1.371 . S
C105 C106 1.367 . S
C105 H128 0.931 . S
C106 C105 1.367 . S
C106 C107 1.401 . S
C107 C106 1.401 . S
C107 C108 1.385 . S
C107 H129 0.930 . S
C108 C107 1.385 . S
C108 C109 1.402 . S
C109 C104 1.385 . S
C109 C108 1.402 . S
C109 H130 0.929 . S
C110 N75 1.421 . S
C110 C113 1.385 1_554 S
C110 C114 1.371 . S
C111 C112 1.385 1_554 S
C111 C115 1.401 . S
C111 H131 0.930 . S
C112 C111 1.385 1_556 S
C112 C113 1.402 . S
C113 C110 1.385 1_556 S
C113 C112 1.402 . S
C113 H132 0.929 . S
C114 C110 1.371 . S
C114 C115 1.367 . S
C114 H133 0.931 . S
C115 C111 1.401 . S
C115 C114 1.367 . S
H116 C70 0.931 . S
H117 C71 0.930 . S
H118 C72 0.929 . S
H119 C78 0.931 . S
H120 C79 0.930 . S
H121 C80 0.929 . S
H122 C92 0.928 . S
H123 C93 0.930 . S
H124 C95 0.930 . S
H125 C99 0.930 . S
H126 C101 0.930 . S
H127 C103 0.928 . S
H128 C105 0.931 . S
H129 C107 0.930 . S
H130 C109 0.929 . S
H131 C111 0.930 . S
H132 C113 0.929 . S
H133 C114 0.931 . S
C134 O135 1.201 . S
C134 C136 1.493 . S
C134 N151 1.318 . S
O135 C134 1.201 . S
C136 C134 1.493 . S
C136 C137 1.381 . S
C136 N141 1.335 . S
C137 C136 1.381 . S
C137 C138 1.411 . S
C137 H183 0.931 . S
C138 C137 1.411 . S
C138 C139 1.384 1_455 S
C138 H184 0.930 . S
C139 C138 1.384 1_655 S
C139 C140 1.376 . S
C139 H185 0.929 . S
C140 C139 1.376 . S
C140 N141 1.330 1_655 S
C140 C155 1.484 . S
N141 C136 1.335 . S
N141 C140 1.330 1_455 S
N141 Co143 1.859 . S
N142 Co143 1.962 . S
N142 C153 1.318 . S
N142 C177 1.421 . S
Co143 N141 1.859 . S
Co143 N142 1.962 . S
Co143 N144 1.859 . S
Co143 N150 1.958 . S
Co143 N151 1.962 . S
Co143 N152 1.958 1_455 S
N144 Co143 1.859 . S
N144 C148 1.332 . S
N144 C149 1.333 1_455 S
C145 C146 1.411 . S
C145 C149 1.385 . S
C145 H186 0.931 . S
C146 C145 1.411 . S
C146 C147 1.384 . S
C146 H187 0.930 . S
C147 C146 1.384 . S
C147 C148 1.372 1_655 S
C147 H188 0.929 . S
C148 N144 1.332 . S
C148 C147 1.372 1_455 S
C148 C163 1.487 . S
C149 N144 1.333 1_655 S
C149 C145 1.385 . S
C149 C153 1.492 1_655 S
N150 Co143 1.958 . S
N150 C163 1.344 . S
N150 C165 1.425 . S
N151 C134 1.318 . S
N151 Co143 1.962 . S
N151 C171 1.421 . S
N152 Co143 1.958 1_655 S
N152 C155 1.344 . S
N152 C157 1.425 . S
C153 N142 1.318 . S
C153 C149 1.492 1_455 S
C153 O154 1.201 1_455 S
O154 C153 1.201 1_655 S
C155 C140 1.484 . S
C155 N152 1.344 . S
C155 O156 1.268 . S
O156 C155 1.268 . S
C157 N152 1.425 . S
C157 C159 1.392 . S
C157 C160 1.368 . S
C158 C159 1.382 . S
C158 C162 1.386 . S
C159 C157 1.392 . S
C159 C158 1.382 . S
C159 H189 0.928 . S
C160 C157 1.368 . S
C160 C161 1.367 . S
C160 H190 0.930 . S
C161 C160 1.367 . S
C161 C162 1.369 . S
C162 C158 1.386 . S
C162 C161 1.369 . S
C162 H191 0.930 . S
C163 C148 1.487 . S
C163 N150 1.344 . S
C163 O164 1.268 . S
O164 C163 1.268 . S
C165 N150 1.425 . S
C165 C166 1.368 1_455 S
C165 C170 1.392 . S
C166 C165 1.368 1_655 S
C166 C167 1.367 . S
C166 H192 0.930 . S
C167 C166 1.367 . S
C167 C168 1.369 1_655 S
C168 C167 1.369 1_455 S
C168 C169 1.386 . S
C168 H193 0.930 . S
C169 C168 1.386 . S
C169 C170 1.382 . S
C170 C165 1.392 . S
C170 C169 1.382 . S
C170 H194 0.928 . S
C171 N151 1.421 . S
C171 C172 1.371 . S
C171 C176 1.385 . S
C172 C171 1.371 . S
C172 C173 1.367 . S
C172 H195 0.931 . S
C173 C172 1.367 . S
C173 C174 1.401 . S
C174 C173 1.401 . S
C174 C175 1.385 . S
C174 H196 0.930 . S
C175 C174 1.385 . S
C175 C176 1.402 . S
C176 C171 1.385 . S
C176 C175 1.402 . S
C176 H197 0.929 . S
C177 N142 1.421 . S
C177 C180 1.385 . S
C177 C181 1.371 1_455 S
C178 C179 1.385 . S
C178 C182 1.401 1_455 S
C178 H198 0.930 . S
C179 C178 1.385 . S
C179 C180 1.402 . S
C180 C177 1.385 . S
C180 C179 1.402 . S
C180 H199 0.929 . S
C181 C177 1.371 1_655 S
C181 C182 1.367 . S
C181 H200 0.931 . S
C182 C178 1.401 1_655 S
C182 C181 1.367 . S
H183 C137 0.931 . S
H184 C138 0.930 . S
H185 C139 0.929 . S
H186 C145 0.931 . S
H187 C146 0.930 . S
H188 C147 0.929 . S
H189 C159 0.928 . S
H190 C160 0.930 . S
H191 C162 0.930 . S
H192 C166 0.930 . S
H193 C168 0.930 . S
H194 C170 0.928 . S
H195 C172 0.931 . S
H196 C174 0.930 . S
H197 C176 0.929 . S
H198 C178 0.930 . S
H199 C180 0.929 . S
H200 C181 0.931 . S
C201 O202 1.201 . S
C201 C203 1.493 . S
C201 N218 1.318 . S
O202 C201 1.201 . S
C203 C201 1.493 . S
C203 C204 1.381 . S
C203 N208 1.335 1_556 S
C204 C203 1.381 . S
C204 C205 1.411 1_556 S
C204 H250 0.931 . S
C205 C204 1.411 1_554 S
C205 C206 1.384 . S
C205 H251 0.930 . S
C206 C205 1.384 . S
C206 C207 1.376 . S
C206 H252 0.929 . S
C207 C206 1.376 . S
C207 N208 1.330 . S
C207 C222 1.484 . S
N208 C203 1.335 1_554 S
N208 C207 1.330 . S
N208 Co210 1.859 . S
N209 Co210 1.962 . S
N209 C220 1.318 . S
N209 C244 1.421 . S
Co210 N208 1.859 . S
Co210 N209 1.962 . S
Co210 N211 1.859 . S
Co210 N217 1.958 . S
Co210 N218 1.962 1_554 S
Co210 N219 1.958 . S
N211 Co210 1.859 . S
N211 C215 1.330 . S
N211 C216 1.335 . S
C212 C213 1.411 . S
C212 C216 1.381 . S
C212 H253 0.931 . S
C213 C212 1.411 . S
C213 C214 1.384 . S
C213 H254 0.930 . S
C214 C213 1.384 . S
C214 C215 1.376 . S
C214 H255 0.929 . S
C215 N211 1.330 . S
C215 C214 1.376 . S
C215 C230 1.484 . S
C216 N211 1.335 . S
C216 C212 1.381 . S
C216 C220 1.493 . S
N217 Co210 1.958 . S
N217 C230 1.344 . S
N217 C232 1.425 . S
N218 C201 1.318 . S
N218 Co210 1.962 1_556 S
N218 C238 1.421 . S
N219 Co210 1.958 . S
N219 C222 1.344 . S
N219 C224 1.425 . S
C220 N209 1.318 . S
C220 C216 1.493 . S
C220 O221 1.201 . S
O221 C220 1.201 . S
C222 C207 1.484 . S
C222 N219 1.344 . S
C222 O223 1.268 . S
O223 C222 1.268 . S
C224 N219 1.425 . S
C224 C226 1.392 . S
C224 C227 1.368 . S
C225 C226 1.382 . S
C225 C229 1.386 . S
C226 C224 1.392 . S
C226 C225 1.382 . S
C226 H256 0.928 . S
C227 C224 1.368 . S
C227 C228 1.367 . S
C227 H257 0.930 . S
C228 C227 1.367 . S
C228 C229 1.369 . S
C229 C225 1.386 . S
C229 C228 1.369 . S
C229 H258 0.930 . S
C230 C215 1.484 . S
C230 N217 1.344 . S
C230 O231 1.268 . S
O231 C230 1.268 . S
C232 N217 1.425 . S
C232 C233 1.368 . S
C232 C237 1.392 1_554 S
C233 C232 1.368 . S
C233 C234 1.367 . S
C233 H259 0.930 . S
C234 C233 1.367 . S
C234 C235 1.369 1_554 S
C235 C234 1.369 1_556 S
C235 C236 1.386 . S
C235 H260 0.930 . S
C236 C235 1.386 . S
C236 C237 1.382 . S
C237 C232 1.392 1_556 S
C237 C236 1.382 . S
C237 H261 0.928 . S
C238 N218 1.421 . S
C238 C239 1.371 . S
C238 C243 1.385 . S
C239 C238 1.371 . S
C239 C240 1.367 . S
C239 H262 0.931 . S
C240 C239 1.367 . S
C240 C241 1.401 . S
C241 C240 1.401 . S
C241 C242 1.385 . S
C241 H263 0.930 . S
C242 C241 1.385 . S
C242 C243 1.402 . S
C243 C238 1.385 . S
C243 C242 1.402 . S
C243 H264 0.929 . S
C244 N209 1.421 . S
C244 C247 1.385 1_554 S
C244 C248 1.371 . S
C245 C246 1.385 1_554 S
C245 C249 1.401 . S
C245 H265 0.930 . S
C246 C245 1.385 1_556 S
C246 C247 1.402 . S
C247 C244 1.385 1_556 S
C247 C246 1.402 . S
C247 H266 0.929 . S
C248 C244 1.371 . S
C248 C249 1.367 . S
C248 H267 0.931 . S
C249 C245 1.401 . S
C249 C248 1.367 . S
H250 C204 0.931 . S
H251 C205 0.930 . S
H252 C206 0.929 . S
H253 C212 0.931 . S
H254 C213 0.930 . S
H255 C214 0.929 . S
H256 C226 0.928 . S
H257 C227 0.930 . S
H258 C229 0.930 . S
H259 C233 0.930 . S
H260 C235 0.930 . S
H261 C237 0.928 . S
H262 C239 0.931 . S
H263 C241 0.930 . S
H264 C243 0.929 . S
H265 C245 0.930 . S
H266 C247 0.929 . S
H267 C248 0.931 . S
C268 O269 1.201 . S
C268 C270 1.493 . S
C268 N285 1.318 . S
O269 C268 1.201 . S
C270 C268 1.493 . S
C270 C271 1.381 . S
C270 N275 1.335 1_545 S
C271 C270 1.381 . S
C271 C272 1.411 1_545 S
C271 H317 0.931 . S
C272 C271 1.411 1_565 S
C272 C273 1.384 . S
C272 H318 0.930 . S
C273 C272 1.384 . S
C273 C274 1.376 . S
C273 H319 0.929 . S
C274 C273 1.376 . S
C274 N275 1.330 . S
C274 C289 1.484 . S
N275 C270 1.335 1_565 S
N275 C274 1.330 . S
N275 Co277 1.859 . S
N276 Co277 1.962 . S
N276 C287 1.318 . S
N276 C311 1.421 . S
Co277 N275 1.859 . S
Co277 N276 1.962 . S
Co277 N278 1.859 . S
Co277 N284 1.958 . S
Co277 N285 1.962 1_565 S
Co277 N286 1.958 . S
N278 Co277 1.859 . S
N278 C282 1.330 . S
N278 C283 1.335 . S
C279 C280 1.411 . S
C279 C283 1.381 . S
C279 H320 0.931 . S
C280 C279 1.411 . S
C280 C281 1.384 . S
C280 H321 0.930 . S
C281 C280 1.384 . S
C281 C282 1.376 . S
C281 H322 0.929 . S
C282 N278 1.330 . S
C282 C281 1.376 . S
C282 C297 1.484 . S
C283 N278 1.335 . S
C283 C279 1.381 . S
C283 C287 1.493 . S
N284 Co277 1.958 . S
N284 C297 1.344 . S
N284 C299 1.425 . S
N285 C268 1.318 . S
N285 Co277 1.962 1_545 S
N285 C305 1.421 . S
N286 Co277 1.958 . S
N286 C289 1.344 . S
N286 C291 1.425 . S
C287 N276 1.318 . S
C287 C283 1.493 . S
C287 O288 1.201 . S
O288 C287 1.201 . S
C289 C274 1.484 . S
C289 N286 1.344 . S
C289 O290 1.268 . S
O290 C289 1.268 . S
C291 N286 1.425 . S
C291 C293 1.392 . S
C291 C294 1.368 . S
C292 C293 1.382 . S
C292 C296 1.386 . S
C293 C291 1.392 . S
C293 C292 1.382 . S
C293 H323 0.928 . S
C294 C291 1.368 . S
C294 C295 1.367 . S
C294 H324 0.930 . S
C295 C294 1.367 . S
C295 C296 1.369 . S
C296 C292 1.386 . S
C296 C295 1.369 . S
C296 H325 0.930 . S
C297 C282 1.484 . S
C297 N284 1.344 . S
C297 O298 1.268 . S
O298 C297 1.268 . S
C299 N284 1.425 . S
C299 C300 1.377 . S
C299 C304 1.381 1_565 S
C300 C299 1.377 . S
C300 C301 1.367 . S
C300 H326 0.930 . S
C301 C300 1.367 . S
C301 C302 1.369 1_565 S
C302 C301 1.369 1_545 S
C302 C303 1.386 . S
C302 H327 0.930 . S
C303 C302 1.386 . S
C303 C304 1.382 . S
C304 C299 1.381 1_545 S
C304 C303 1.382 . S
C304 H328 0.928 . S
C305 N285 1.421 . S
C305 C306 1.371 . S
C305 C310 1.385 . S
C306 C305 1.371 . S
C306 C307 1.367 . S
C306 H329 0.931 . S
C307 C306 1.367 . S
C307 C308 1.401 . S
C308 C307 1.401 . S
C308 C309 1.385 . S
C308 H330 0.930 . S
C309 C308 1.385 . S
C309 C310 1.402 . S
C310 C305 1.385 . S
C310 C309 1.402 . S
C310 H331 0.929 . S
C311 N276 1.421 . S
C311 C314 1.385 1_565 S
C311 C315 1.371 . S
C312 C313 1.361 1_565 S
C312 C316 1.425 . S
C312 H332 0.930 . S
C313 C312 1.361 1_545 S
C313 C314 1.402 . S
C314 C311 1.385 1_545 S
C314 C313 1.402 . S
C314 H333 0.929 . S
C315 C311 1.371 . S
C315 C316 1.367 . S
C315 H334 0.931 . S
C316 C312 1.425 . S
C316 C315 1.367 . S
H317 C271 0.931 . S
H318 C272 0.930 . S
H319 C273 0.929 . S
H320 C279 0.931 . S
H321 C280 0.930 . S
H322 C281 0.929 . S
H323 C293 0.928 . S
H324 C294 0.930 . S
H325 C296 0.930 . S
H326 C300 0.930 . S
H327 C302 0.930 . S
H328 C304 0.928 . S
H329 C306 0.931 . S
H330 C308 0.930 . S
H331 C310 0.929 . S
H332 C312 0.930 . S
H333 C314 0.929 . S
H334 C315 0.931 . S
C335 O336 1.201 . S
C335 C337 1.493 . S
C335 N352 1.318 . S
O336 C335 1.201 . S
C337 C335 1.493 . S
C337 C338 1.381 . S
C337 N342 1.335 1_565 S
C338 C337 1.381 . S
C338 C339 1.411 1_565 S
C338 H384 0.931 . S
C339 C338 1.411 1_545 S
C339 C340 1.384 . S
C339 H385 0.930 . S
C340 C339 1.384 . S
C340 C341 1.376 . S
C340 H386 0.929 . S
C341 C340 1.376 . S
C341 N342 1.330 . S
C341 C356 1.484 . S
N342 C337 1.335 1_545 S
N342 C341 1.330 . S
N342 Co344 1.859 . S
N343 Co344 1.962 . S
N343 C354 1.318 . S
N343 C378 1.421 . S
Co344 N342 1.859 . S
Co344 N343 1.962 . S
Co344 N345 1.859 . S
Co344 N351 1.958 . S
Co344 N352 1.962 1_545 S
Co344 N353 1.958 . S
N345 Co344 1.859 . S
N345 C349 1.330 . S
N345 C350 1.335 . S
C346 C347 1.411 . S
C346 C350 1.381 . S
C346 H387 0.931 . S
C347 C346 1.411 . S
C347 C348 1.384 . S
C347 H388 0.930 . S
C348 C347 1.384 . S
C348 C349 1.376 . S
C348 H389 0.929 . S
C349 N345 1.330 . S
C349 C348 1.376 . S
C349 C364 1.484 . S
C350 N345 1.335 . S
C350 C346 1.381 . S
C350 C354 1.493 . S
N351 Co344 1.958 . S
N351 C364 1.344 . S
N351 C366 1.425 . S
N352 C335 1.318 . S
N352 Co344 1.962 1_565 S
N352 C372 1.421 . S
N353 Co344 1.958 . S
N353 C356 1.344 . S
N353 C358 1.425 . S
C354 N343 1.318 . S
C354 C350 1.493 . S
C354 O355 1.201 . S
O355 C354 1.201 . S
C356 C341 1.484 . S
C356 N353 1.344 . S
C356 O357 1.268 . S
O357 C356 1.268 . S
C358 N353 1.425 . S
C358 C360 1.392 . S
C358 C361 1.368 . S
C359 C360 1.382 . S
C359 C363 1.386 . S
C360 C358 1.392 . S
C360 C359 1.382 . S
C360 H390 0.928 . S
C361 C358 1.368 . S
C361 C362 1.367 . S
C361 H391 0.930 . S
C362 C361 1.367 . S
C362 C363 1.369 . S
C363 C359 1.386 . S
C363 C362 1.369 . S
C363 H392 0.930 . S
C364 C349 1.484 . S
C364 N351 1.344 . S
C364 O365 1.268 . S
O365 C364 1.268 . S
C366 N351 1.425 . S
C366 C367 1.368 . S
C366 C371 1.392 1_545 S
C367 C366 1.368 . S
C367 C368 1.367 . S
C367 H393 0.930 . S
C368 C367 1.367 . S
C368 C369 1.371 . S
C369 C368 1.371 . S
C369 C370 1.385 1_545 S
C369 H394 0.930 1_545 S
C370 C369 1.385 1_565 S
C370 C371 1.382 . S
C371 C366 1.392 1_565 S
C371 C370 1.382 . S
C371 H395 0.928 . S
C372 N352 1.421 . S
C372 C373 1.371 . S
C372 C377 1.385 . S
C373 C372 1.371 . S
C373 C374 1.367 . S
C373 H396 0.931 . S
C374 C373 1.367 . S
C374 C375 1.401 . S
C375 C374 1.401 . S
C375 C376 1.385 . S
C375 H397 0.930 . S
C376 C375 1.385 . S
C376 C377 1.402 . S
C377 C372 1.385 . S
C377 C376 1.402 . S
C377 H398 0.929 . S
C378 N343 1.421 . S
C378 C381 1.385 1_545 S
C378 C382 1.371 . S
C379 C380 1.385 1_545 S
C379 C383 1.401 . S
C379 H399 0.930 . S
C380 C379 1.385 1_565 S
C380 C381 1.402 . S
C381 C378 1.385 1_565 S
C381 C380 1.402 . S
C381 H400 0.929 . S
C382 C378 1.371 . S
C382 C383 1.367 . S
C382 H401 0.931 . S
C383 C379 1.401 . S
C383 C382 1.367 . S
H384 C338 0.931 . S
H385 C339 0.930 . S
H386 C340 0.929 . S
H387 C346 0.931 . S
H388 C347 0.930 . S
H389 C348 0.929 . S
H390 C360 0.928 . S
H391 C361 0.930 . S
H392 C363 0.930 . S
H393 C367 0.930 . S
H394 C369 0.930 1_565 S
H395 C371 0.928 . S
H396 C373 0.931 . S
H397 C375 0.930 . S
H398 C377 0.929 . S
H399 C379 0.930 . S
H400 C381 0.929 . S
H401 C382 0.931 . S
C402 C403 1.349 . S
C402 C404 1.327 . S
C402 H427 0.950 . S
C403 C402 1.349 . S
C403 C419 1.349 . S
C404 C402 1.327 . S
C404 C423 1.429 . S
C404 H428 0.950 . S
C405 C422 1.574 . S
C405 C424 1.368 . S
C405 H429 0.949 . S
H406 C410 0.949 . S
C407 C408 1.349 . S
C407 C409 1.327 . S
C407 H430 0.950 . S
C408 C407 1.349 . S
C408 C420 1.349 . S
C409 C407 1.327 . S
C409 C425 1.429 . S
C409 H431 0.950 . S
C410 H406 0.949 . S
C410 C418 1.574 . S
C410 C426 1.368 . S
H411 C419 0.950 . S
H412 C417 0.950 . S
H413 C418 0.949 . S
H414 C420 0.950 . S
H415 C421 0.950 . S
H416 C422 0.949 . S
C417 H412 0.950 . S
C417 C419 1.327 . S
C417 C423 1.429 . S
C418 C410 1.574 . S
C418 H413 0.949 . S
C418 C424 1.368 . S
C419 C403 1.349 . S
C419 H411 0.950 . S
C419 C417 1.327 . S
C420 C408 1.349 . S
C420 H414 0.950 . S
C420 C421 1.327 . S
C421 H415 0.950 . S
C421 C420 1.327 . S
C421 C425 1.429 . S
C422 C405 1.574 . S
C422 H416 0.949 . S
C422 C426 1.368 . S
C423 C404 1.429 . S
C423 C417 1.429 . S
C423 C424 1.523 . S
C424 C405 1.368 . S
C424 C418 1.368 . S
C424 C423 1.523 . S
C425 C409 1.429 . S
C425 C421 1.429 . S
C425 C426 1.523 . S
C426 C410 1.368 . S
C426 C422 1.368 . S
C426 C425 1.523 . S
H427 C402 0.950 . S
H428 C404 0.950 . S
H429 C405 0.949 . S
H430 C407 0.950 . S
H431 C409 0.950 . S
C432 C433 1.349 . S
C432 C434 1.327 . S
C432 H457 0.950 . S
C433 C432 1.349 . S
C433 C449 1.349 . S
C434 C432 1.327 . S
C434 C453 1.429 . S
C434 H458 0.950 . S
C435 C452 1.574 . S
C435 C454 1.368 . S
C435 H459 0.949 . S
H436 C440 0.949 . S
C437 C438 1.349 . S
C437 C439 1.327 . S
C437 H460 0.950 . S
C438 C437 1.349 . S
C438 C450 1.349 . S
C439 C437 1.327 . S
C439 C455 1.429 . S
C439 H461 0.950 . S
C440 H436 0.949 . S
C440 C448 1.574 . S
C440 C456 1.368 . S
H441 C449 0.950 . S
H442 C447 0.950 . S
H443 C448 0.949 . S
H444 C450 0.950 . S
H445 C451 0.950 . S
H446 C452 0.949 . S
C447 H442 0.950 . S
C447 C449 1.327 . S
C447 C453 1.429 . S
C448 C440 1.574 . S
C448 H443 0.949 . S
C448 C454 1.368 . S
C449 C433 1.349 . S
C449 H441 0.950 . S
C449 C447 1.327 . S
C450 C438 1.349 . S
C450 H444 0.950 . S
C450 C451 1.327 . S
C451 H445 0.950 . S
C451 C450 1.327 . S
C451 C455 1.429 . S
C452 C435 1.574 . S
C452 H446 0.949 . S
C452 C456 1.368 . S
C453 C434 1.429 . S
C453 C447 1.429 . S
C453 C454 1.523 . S
C454 C435 1.368 . S
C454 C448 1.368 . S
C454 C453 1.523 . S
C455 C439 1.429 . S
C455 C451 1.429 . S
C455 C456 1.523 . S
C456 C440 1.368 . S
C456 C452 1.368 . S
C456 C455 1.523 . S
H457 C432 0.950 . S
H458 C434 0.950 . S
H459 C435 0.949 . S
H460 C437 0.950 . S
H461 C439 0.950 . S
C462 C463 1.349 . S
C462 C464 1.327 . S
C462 H487 0.950 . S
C463 C462 1.349 . S
C463 C479 1.349 . S
C464 C462 1.327 . S
C464 C483 1.429 . S
C464 H488 0.950 . S
C465 C482 1.574 . S
C465 C484 1.368 . S
C465 H489 0.949 . S
H466 C470 0.949 . S
C467 C468 1.349 . S
C467 C469 1.327 . S
C467 H490 0.950 . S
C468 C467 1.349 . S
C468 C480 1.349 . S
C469 C467 1.327 . S
C469 C485 1.429 . S
C469 H491 0.950 . S
C470 H466 0.949 . S
C470 C478 1.574 . S
C470 C486 1.368 . S
H471 C479 0.950 . S
H472 C477 0.950 . S
H473 C478 0.949 . S
H474 C480 0.950 . S
H475 C481 0.950 . S
H476 C482 0.949 . S
C477 H472 0.950 . S
C477 C479 1.327 . S
C477 C483 1.429 . S
C478 C470 1.574 . S
C478 H473 0.949 . S
C478 C484 1.368 . S
C479 C463 1.349 . S
C479 H471 0.950 . S
C479 C477 1.327 . S
C480 C468 1.349 . S
C480 H474 0.950 . S
C480 C481 1.327 . S
C481 H475 0.950 . S
C481 C480 1.327 . S
C481 C485 1.429 . S
C482 C465 1.574 . S
C482 H476 0.949 . S
C482 C486 1.368 . S
C483 C464 1.429 . S
C483 C477 1.429 . S
C483 C484 1.523 . S
C484 C465 1.368 . S
C484 C478 1.368 . S
C484 C483 1.523 . S
C485 C469 1.429 . S
C485 C481 1.429 . S
C485 C486 1.523 . S
C486 C470 1.368 . S
C486 C482 1.368 . S
C486 C485 1.523 . S
H487 C462 0.950 . S
H488 C464 0.950 . S
H489 C465 0.949 . S
H490 C467 0.950 . S
H491 C469 0.950 . S
C492 C493 1.349 . S
C492 C494 1.327 . S
C492 H517 0.950 . S
C493 C492 1.349 . S
C493 C509 1.349 . S
C494 C492 1.327 . S
C494 C513 1.429 . S
C494 H518 0.950 . S
C495 C512 1.574 . S
C495 C514 1.368 . S
C495 H519 0.949 . S
H496 C500 0.949 . S
C497 C498 1.349 . S
C497 C499 1.327 . S
C497 H520 0.950 . S
C498 C497 1.349 . S
C498 C510 1.349 . S
C499 C497 1.327 . S
C499 C515 1.429 . S
C499 H521 0.950 . S
C500 H496 0.949 . S
C500 C508 1.574 . S
C500 C516 1.368 . S
H501 C509 0.950 . S
H502 C507 0.950 . S
H503 C508 0.949 . S
H504 C510 0.950 . S
H505 C511 0.950 . S
H506 C512 0.949 . S
C507 H502 0.950 . S
C507 C509 1.327 . S
C507 C513 1.429 . S
C508 C500 1.574 . S
C508 H503 0.949 . S
C508 C514 1.368 . S
C509 C493 1.349 . S
C509 H501 0.950 . S
C509 C507 1.327 . S
C510 C498 1.349 . S
C510 H504 0.950 . S
C510 C511 1.327 . S
C511 H505 0.950 . S
C511 C510 1.327 . S
C511 C515 1.429 . S
C512 C495 1.574 . S
C512 H506 0.949 . S
C512 C516 1.368 . S
C513 C494 1.429 . S
C513 C507 1.429 . S
C513 C514 1.523 . S
C514 C495 1.368 . S
C514 C508 1.368 . S
C514 C513 1.523 . S
C515 C499 1.429 . S
C515 C511 1.429 . S
C515 C516 1.523 . S
C516 C500 1.368 . S
C516 C512 1.368 . S
C516 C515 1.523 . S
H517 C492 0.950 . S
H518 C494 0.950 . S
H519 C495 0.949 . S
H520 C497 0.950 . S
H521 C499 0.950 . S
C522 C523 1.349 . S
C522 C524 1.327 . S
C522 H547 0.950 . S
C523 C522 1.349 . S
C523 C539 1.349 . S
C524 C522 1.327 . S
C524 C543 1.429 . S
C524 H548 0.950 . S
C525 C542 1.574 . S
C525 C544 1.368 . S
C525 H549 0.949 . S
H526 C530 0.949 . S
C527 C528 1.349 . S
C527 C529 1.327 . S
C527 H550 0.950 . S
C528 C527 1.349 . S
C528 C540 1.349 . S
C529 C527 1.327 . S
C529 C545 1.429 . S
C529 H551 0.950 . S
C530 H526 0.949 . S
C530 C538 1.574 . S
C530 C546 1.368 . S
H531 C539 0.950 . S
H532 C537 0.950 . S
H533 C538 0.949 . S
H534 C540 0.950 . S
H535 C541 0.950 . S
H536 C542 0.949 . S
C537 H532 0.950 . S
C537 C539 1.327 . S
C537 C543 1.429 . S
C538 C530 1.574 . S
C538 H533 0.949 . S
C538 C544 1.368 . S
C539 C523 1.349 . S
C539 H531 0.950 . S
C539 C537 1.327 . S
C540 C528 1.349 . S
C540 H534 0.950 . S
C540 C541 1.327 . S
C541 H535 0.950 . S
C541 C540 1.327 . S
C541 C545 1.429 . S
C542 C525 1.574 . S
C542 H536 0.949 . S
C542 C546 1.368 . S
C543 C524 1.429 . S
C543 C537 1.429 . S
C543 C544 1.523 . S
C544 C525 1.368 . S
C544 C538 1.368 . S
C544 C543 1.523 . S
C545 C529 1.429 . S
C545 C541 1.429 . S
C545 C546 1.523 . S
C546 C530 1.368 . S
C546 C542 1.368 . S
C546 C545 1.523 . S
H547 C522 0.950 . S
H548 C524 0.950 . S
H549 C525 0.949 . S
H550 C527 0.950 . S
H551 C529 0.950 . S
C552 C553 1.349 . S
C552 C554 1.327 . S
C552 H577 0.950 . S
C553 C552 1.349 . S
C553 C569 1.349 . S
C554 C552 1.327 . S
C554 C573 1.429 . S
C554 H578 0.950 . S
C555 C572 1.574 . S
C555 C574 1.368 . S
C555 H579 0.949 . S
H556 C560 0.949 . S
C557 C558 1.349 . S
C557 C559 1.327 . S
C557 H580 0.950 . S
C558 C557 1.349 . S
C558 C570 1.349 . S
C559 C557 1.327 . S
C559 C575 1.429 . S
C559 H581 0.950 . S
C560 H556 0.949 . S
C560 C568 1.574 . S
C560 C576 1.368 . S
H561 C569 0.950 . S
H562 C567 0.950 . S
H563 C568 0.949 . S
H564 C570 0.950 . S
H565 C571 0.950 . S
H566 C572 0.949 . S
C567 H562 0.950 . S
C567 C569 1.327 . S
C567 C573 1.429 . S
C568 C560 1.574 . S
C568 H563 0.949 . S
C568 C574 1.368 . S
C569 C553 1.349 . S
C569 H561 0.950 . S
C569 C567 1.327 . S
C570 C558 1.349 . S
C570 H564 0.950 . S
C570 C571 1.327 . S
C571 H565 0.950 . S
C571 C570 1.327 . S
C571 C575 1.429 . S
C572 C555 1.574 . S
C572 H566 0.949 . S
C572 C576 1.368 . S
C573 C554 1.429 . S
C573 C567 1.429 . S
C573 C574 1.523 . S
C574 C555 1.368 . S
C574 C568 1.368 . S
C574 C573 1.523 . S
C575 C559 1.429 . S
C575 C571 1.429 . S
C575 C576 1.523 . S
C576 C560 1.368 . S
C576 C572 1.368 . S
C576 C575 1.523 . S
H577 C552 0.950 . S
H578 C554 0.950 . S
H579 C555 0.949 . S
H580 C557 0.950 . S
H581 C559 0.950 . S
C582 C583 1.349 . S
C582 C584 1.327 . S
C582 H607 0.950 . S
C583 C582 1.349 . S
C583 C599 1.349 . S
C584 C582 1.327 . S
C584 C603 1.429 . S
C584 H608 0.950 . S
C585 C602 1.574 . S
C585 C604 1.368 . S
C585 H609 0.949 . S
H586 C590 0.949 . S
C587 C588 1.349 . S
C587 C589 1.327 . S
C587 H610 0.950 . S
C588 C587 1.349 . S
C588 C600 1.349 . S
C589 C587 1.327 . S
C589 C605 1.429 . S
C589 H611 0.950 . S
C590 H586 0.949 . S
C590 C598 1.574 . S
C590 C606 1.368 . S
H591 C599 0.950 . S
H592 C597 0.950 . S
H593 C598 0.949 . S
H594 C600 0.950 . S
H595 C601 0.950 . S
H596 C602 0.949 . S
C597 H592 0.950 . S
C597 C599 1.327 . S
C597 C603 1.429 . S
C598 C590 1.574 . S
C598 H593 0.949 . S
C598 C604 1.368 . S
C599 C583 1.349 . S
C599 H591 0.950 . S
C599 C597 1.327 . S
C600 C588 1.349 . S
C600 H594 0.950 . S
C600 C601 1.327 . S
C601 H595 0.950 . S
C601 C600 1.327 . S
C601 C605 1.429 . S
C602 C585 1.574 . S
C602 H596 0.949 . S
C602 C606 1.368 . S
C603 C584 1.429 . S
C603 C597 1.429 . S
C603 C604 1.523 . S
C604 C585 1.368 . S
C604 C598 1.368 . S
C604 C603 1.523 . S
C605 C589 1.429 . S
C605 C601 1.429 . S
C605 C606 1.523 . S
C606 C590 1.368 . S
C606 C602 1.368 . S
C606 C605 1.523 . S
H607 C582 0.950 . S
H608 C584 0.950 . S
H609 C585 0.949 . S
H610 C587 0.950 . S
H611 C589 0.950 . S
C612 C613 1.349 . S
C612 C614 1.327 . S
C612 H637 0.950 . S
C613 C612 1.349 . S
C613 C629 1.349 . S
C614 C612 1.327 . S
C614 C633 1.429 . S
C614 H638 0.950 . S
C615 C632 1.574 . S
C615 C634 1.368 . S
C615 H639 0.949 . S
H616 C620 0.949 . S
C617 C618 1.349 . S
C617 C619 1.327 . S
C617 H640 0.950 . S
C618 C617 1.349 . S
C618 C630 1.349 . S
C619 C617 1.327 . S
C619 C635 1.429 . S
C619 H641 0.950 . S
C620 H616 0.949 . S
C620 C628 1.574 . S
C620 C636 1.368 . S
H621 C629 0.950 . S
H622 C627 0.950 . S
H623 C628 0.949 . S
H624 C630 0.950 . S
H625 C631 0.950 . S
H626 C632 0.949 . S
C627 H622 0.950 . S
C627 C629 1.327 . S
C627 C633 1.429 . S
C628 C620 1.574 . S
C628 H623 0.949 . S
C628 C634 1.368 . S
C629 C613 1.349 . S
C629 H621 0.950 . S
C629 C627 1.327 . S
C630 C618 1.349 . S
C630 H624 0.950 . S
C630 C631 1.327 . S
C631 H625 0.950 . S
C631 C630 1.327 . S
C631 C635 1.429 . S
C632 C615 1.574 . S
C632 H626 0.949 . S
C632 C636 1.368 . S
C633 C614 1.429 . S
C633 C627 1.429 . S
C633 C634 1.523 . S
C634 C615 1.368 . S
C634 C628 1.368 . S
C634 C633 1.523 . S
C635 C619 1.429 . S
C635 C631 1.429 . S
C635 C636 1.523 . S
C636 C620 1.368 . S
C636 C632 1.368 . S
C636 C635 1.523 . S
H637 C612 0.950 . S
H638 C614 0.950 . S
H639 C615 0.949 . S
H640 C617 0.950 . S
H641 C619 0.950 . S
C642 C643 1.349 . S
C642 C644 1.327 . S
C642 H667 0.950 . S
C643 C642 1.349 . S
C643 C659 1.349 . S
C644 C642 1.327 . S
C644 C663 1.429 . S
C644 H668 0.950 . S
C645 C662 1.574 . S
C645 C664 1.368 . S
C645 H669 0.949 . S
H646 C650 0.949 . S
C647 C648 1.349 . S
C647 C649 1.327 . S
C647 H670 0.950 . S
C648 C647 1.349 . S
C648 C660 1.349 . S
C649 C647 1.327 . S
C649 C665 1.429 . S
C649 H671 0.950 . S
C650 H646 0.949 . S
C650 C658 1.574 . S
C650 C666 1.368 . S
H651 C659 0.950 . S
H652 C657 0.950 . S
H653 C658 0.949 . S
H654 C660 0.950 . S
H655 C661 0.950 . S
H656 C662 0.949 . S
C657 H652 0.950 . S
C657 C659 1.327 . S
C657 C663 1.429 . S
C658 C650 1.574 . S
C658 H653 0.949 . S
C658 C664 1.368 . S
C659 C643 1.349 . S
C659 H651 0.950 . S
C659 C657 1.327 . S
C660 C648 1.349 . S
C660 H654 0.950 . S
C660 C661 1.327 . S
C661 H655 0.950 . S
C661 C660 1.327 . S
C661 C665 1.429 . S
C662 C645 1.574 . S
C662 H656 0.949 . S
C662 C666 1.368 . S
C663 C644 1.429 . S
C663 C657 1.429 . S
C663 C664 1.523 . S
C664 C645 1.368 . S
C664 C658 1.368 . S
C664 C663 1.523 . S
C665 C649 1.429 . S
C665 C661 1.429 . S
C665 C666 1.523 . S
C666 C650 1.368 . S
C666 C662 1.368 . S
C666 C665 1.523 . S
H667 C642 0.950 . S
H668 C644 0.950 . S
H669 C645 0.949 . S
H670 C647 0.950 . S
H671 C649 0.950 . S
C672 C673 1.349 . S
C672 C674 1.327 . S
C672 H697 0.950 . S
C673 C672 1.349 . S
C673 C689 1.349 . S
C674 C672 1.327 . S
C674 C693 1.429 . S
C674 H698 0.950 . S
C675 C692 1.574 . S
C675 C694 1.368 . S
C675 H699 0.949 . S
H676 C680 0.949 . S
C677 C678 1.349 . S
C677 C679 1.327 . S
C677 H700 0.950 . S
C678 C677 1.349 . S
C678 C690 1.349 . S
C679 C677 1.327 . S
C679 C695 1.429 . S
C679 H701 0.950 . S
C680 H676 0.949 . S
C680 C688 1.574 . S
C680 C696 1.368 . S
H681 C689 0.950 . S
H682 C687 0.950 . S
H683 C688 0.949 . S
H684 C690 0.950 . S
H685 C691 0.950 . S
H686 C692 0.949 . S
C687 H682 0.950 . S
C687 C689 1.327 . S
C687 C693 1.429 . S
C688 C680 1.574 . S
C688 H683 0.949 . S
C688 C694 1.368 . S
C689 C673 1.349 . S
C689 H681 0.950 . S
C689 C687 1.327 . S
C690 C678 1.349 . S
C690 H684 0.950 . S
C690 C691 1.327 . S
C691 H685 0.950 . S
C691 C690 1.327 . S
C691 C695 1.429 . S
C692 C675 1.574 . S
C692 H686 0.949 . S
C692 C696 1.368 . S
C693 C674 1.429 . S
C693 C687 1.429 . S
C693 C694 1.523 . S
C694 C675 1.368 . S
C694 C688 1.368 . S
C694 C693 1.523 . S
C695 C679 1.429 . S
C695 C691 1.429 . S
C695 C696 1.523 . S
C696 C680 1.368 . S
C696 C692 1.368 . S
C696 C695 1.523 . S
H697 C672 0.950 . S
H698 C674 0.950 . S
H699 C675 0.949 . S
H700 C677 0.950 . S
H701 C679 0.950 . S
C702 C703 1.349 . S
C702 C704 1.327 . S
C702 H727 0.950 . S
C703 C702 1.349 . S
C703 C719 1.349 . S
C704 C702 1.327 . S
C704 C723 1.429 . S
C704 H728 0.950 . S
C705 C722 1.574 . S
C705 C724 1.368 . S
C705 H729 0.949 . S
H706 C710 0.949 . S
C707 C708 1.349 . S
C707 C709 1.327 . S
C707 H730 0.950 . S
C708 C707 1.349 . S
C708 C720 1.349 . S
C709 C707 1.327 . S
C709 C725 1.429 . S
C709 H731 0.950 . S
C710 H706 0.949 . S
C710 C718 1.574 . S
C710 C726 1.368 . S
H711 C719 0.950 . S
H712 C717 0.950 . S
H713 C718 0.949 . S
H714 C720 0.950 . S
H715 C721 0.950 . S
H716 C722 0.949 . S
C717 H712 0.950 . S
C717 C719 1.327 . S
C717 C723 1.429 . S
C718 C710 1.574 . S
C718 H713 0.949 . S
C718 C724 1.368 . S
C719 C703 1.349 . S
C719 H711 0.950 . S
C719 C717 1.327 . S
C720 C708 1.349 . S
C720 H714 0.950 . S
C720 C721 1.327 . S
C721 H715 0.950 . S
C721 C720 1.327 . S
C721 C725 1.429 . S
C722 C705 1.574 . S
C722 H716 0.949 . S
C722 C726 1.368 . S
C723 C704 1.429 . S
C723 C717 1.429 . S
C723 C724 1.523 . S
C724 C705 1.368 . S
C724 C718 1.368 . S
C724 C723 1.523 . S
C725 C709 1.429 . S
C725 C721 1.429 . S
C725 C726 1.523 . S
C726 C710 1.368 . S
C726 C722 1.368 . S
C726 C725 1.523 . S
H727 C702 0.950 . S
H728 C704 0.950 . S
H729 C705 0.949 . S
H730 C707 0.950 . S
H731 C709 0.950 . S
C732 C733 1.349 . S
C732 C734 1.327 . S
C732 H757 0.950 . S
C733 C732 1.349 . S
C733 C749 1.349 . S
C734 C732 1.327 . S
C734 C753 1.429 . S
C734 H758 0.950 . S
C735 C752 1.574 . S
C735 C754 1.368 . S
C735 H759 0.949 . S
H736 C740 0.949 . S
C737 C738 1.349 . S
C737 C739 1.327 . S
C737 H760 0.950 . S
C738 C737 1.349 . S
C738 C750 1.349 . S
C739 C737 1.327 . S
C739 C755 1.429 . S
C739 H761 0.950 . S
C740 H736 0.949 . S
C740 C748 1.574 . S
C740 C756 1.368 . S
H741 C749 0.950 . S
H742 C747 0.950 . S
H743 C748 0.949 . S
H744 C750 0.950 . S
H745 C751 0.950 . S
H746 C752 0.949 . S
C747 H742 0.950 . S
C747 C749 1.327 . S
C747 C753 1.429 . S
C748 C740 1.574 . S
C748 H743 0.949 . S
C748 C754 1.368 . S
C749 C733 1.349 . S
C749 H741 0.950 . S
C749 C747 1.327 . S
C750 C738 1.349 . S
C750 H744 0.950 . S
C750 C751 1.327 . S
C751 H745 0.950 . S
C751 C750 1.327 . S
C751 C755 1.429 . S
C752 C735 1.574 . S
C752 H746 0.949 . S
C752 C756 1.368 . S
C753 C734 1.429 . S
C753 C747 1.429 . S
C753 C754 1.523 . S
C754 C735 1.368 . S
C754 C748 1.368 . S
C754 C753 1.523 . S
C755 C739 1.429 . S
C755 C751 1.429 . S
C755 C756 1.523 . S
C756 C740 1.368 . S
C756 C752 1.368 . S
C756 C755 1.523 . S
H757 C732 0.950 . S
H758 C734 0.950 . S
H759 C735 0.949 . S
H760 C737 0.950 . S
H761 C739 0.950 . S
C762 C763 1.349 . S
C762 C764 1.327 . S
C762 H787 0.950 1_655 S
C763 C762 1.349 . S
C763 C779 1.349 . S
C764 C762 1.327 . S
C764 C783 1.429 . S
C764 H788 0.950 . S
C765 C782 1.574 . S
C765 C784 1.368 . S
C765 H789 0.949 . S
H766 C770 0.949 . S
C767 C768 1.349 . S
C767 C769 1.327 . S
C767 H790 0.950 . S
C768 C767 1.349 . S
C768 C780 1.349 . S
C769 C767 1.327 . S
C769 C785 1.429 . S
C769 H791 0.950 . S
C770 H766 0.949 . S
C770 C778 1.574 . S
C770 C786 1.368 . S
H771 C779 0.950 . S
H772 C777 0.950 . S
H773 C778 0.949 . S
H774 C780 0.950 . S
H775 C781 0.950 . S
H776 C782 0.949 . S
C777 H772 0.950 . S
C777 C779 1.327 . S
C777 C783 1.429 . S
C778 C770 1.574 . S
C778 H773 0.949 . S
C778 C784 1.368 . S
C779 C763 1.349 . S
C779 H771 0.950 . S
C779 C777 1.327 . S
C780 C768 1.349 . S
C780 H774 0.950 . S
C780 C781 1.327 . S
C781 H775 0.950 . S
C781 C780 1.327 . S
C781 C785 1.429 . S
C782 C765 1.574 . S
C782 H776 0.949 . S
C782 C786 1.368 . S
C783 C764 1.429 . S
C783 C777 1.429 . S
C783 C784 1.523 . S
C784 C765 1.368 . S
C784 C778 1.368 . S
C784 C783 1.523 . S
C785 C769 1.429 . S
C785 C781 1.429 . S
C785 C786 1.523 . S
C786 C770 1.368 . S
C786 C782 1.368 . S
C786 C785 1.523 . S
H787 C762 0.950 1_455 S
H788 C764 0.950 . S
H789 C765 0.949 . S
H790 C767 0.950 . S
H791 C769 0.950 . S
C792 C793 1.349 . S
C792 C794 1.327 . S
C792 H817 0.950 1_655 S
C793 C792 1.349 . S
C793 C809 1.349 . S
C794 C792 1.327 . S
C794 C813 1.429 . S
C794 H818 0.950 . S
C795 C812 1.574 . S
C795 C814 1.368 . S
C795 H819 0.949 . S
H796 C800 0.949 . S
C797 C798 1.349 . S
C797 C799 1.327 . S
C797 H820 0.950 . S
C798 C797 1.349 . S
C798 C810 1.349 . S
C799 C797 1.327 . S
C799 C815 1.429 . S
C799 H821 0.950 . S
C800 H796 0.949 . S
C800 C808 1.574 . S
C800 C816 1.368 . S
H801 C809 0.950 . S
H802 C807 0.950 . S
H803 C808 0.949 . S
H804 C810 0.950 . S
H805 C811 0.950 . S
H806 C812 0.949 . S
C807 H802 0.950 . S
C807 C809 1.327 . S
C807 C813 1.429 . S
C808 C800 1.574 . S
C808 H803 0.949 . S
C808 C814 1.368 . S
C809 C793 1.349 . S
C809 H801 0.950 . S
C809 C807 1.327 . S
C810 C798 1.349 . S
C810 H804 0.950 . S
C810 C811 1.327 . S
C811 H805 0.950 . S
C811 C810 1.327 . S
C811 C815 1.429 . S
C812 C795 1.574 . S
C812 H806 0.949 . S
C812 C816 1.368 . S
C813 C794 1.429 . S
C813 C807 1.429 . S
C813 C814 1.523 . S
C814 C795 1.368 . S
C814 C808 1.368 . S
C814 C813 1.523 . S
C815 C799 1.429 . S
C815 C811 1.429 . S
C815 C816 1.523 . S
C816 C800 1.368 . S
C816 C812 1.368 . S
C816 C815 1.523 . S
H817 C792 0.950 1_455 S
H818 C794 0.950 . S
H819 C795 0.949 . S
H820 C797 0.950 . S
H821 C799 0.950 . S
C822 C823 1.349 . S
C822 C824 1.327 . S
C822 H847 0.950 . S
C823 C822 1.349 . S
C823 C839 1.349 . S
C824 C822 1.327 . S
C824 C843 1.429 . S
C824 H848 0.950 . S
C825 C842 1.574 . S
C825 C844 1.368 . S
C825 H849 0.949 . S
H826 C830 0.949 . S
C827 C828 1.349 . S
C827 C829 1.327 . S
C827 H850 0.950 . S
C828 C827 1.349 . S
C828 C840 1.349 . S
C829 C827 1.327 . S
C829 C845 1.429 . S
C829 H851 0.950 . S
C830 H826 0.949 . S
C830 C838 1.574 . S
C830 C846 1.368 . S
H831 C839 0.950 . S
H832 C837 0.950 . S
H833 C838 0.949 . S
H834 C840 0.950 . S
H835 C841 0.950 . S
H836 C842 0.949 . S
C837 H832 0.950 . S
C837 C839 1.327 . S
C837 C843 1.429 . S
C838 C830 1.574 . S
C838 H833 0.949 . S
C838 C844 1.368 . S
C839 C823 1.349 . S
C839 H831 0.950 . S
C839 C837 1.327 . S
C840 C828 1.349 . S
C840 H834 0.950 . S
C840 C841 1.327 . S
C841 H835 0.950 . S
C841 C840 1.327 . S
C841 C845 1.429 . S
C842 C825 1.574 . S
C842 H836 0.949 . S
C842 C846 1.368 . S
C843 C824 1.429 . S
C843 C837 1.429 . S
C843 C844 1.523 . S
C844 C825 1.368 . S
C844 C838 1.368 . S
C844 C843 1.523 . S
C845 C829 1.429 . S
C845 C841 1.429 . S
C845 C846 1.523 . S
C846 C830 1.368 . S
C846 C842 1.368 . S
C846 C845 1.523 . S
H847 C822 0.950 . S
H848 C824 0.950 . S
H849 C825 0.949 . S
H850 C827 0.950 . S
H851 C829 0.950 . S
C852 C853 1.349 . S
C852 C854 1.327 . S
C852 H877 0.950 . S
C853 C852 1.349 . S
C853 C869 1.349 . S
C854 C852 1.327 . S
C854 C873 1.429 . S
C854 H878 0.950 . S
C855 C872 1.574 . S
C855 C874 1.368 . S
C855 H879 0.949 . S
H856 C860 0.949 . S
C857 C858 1.349 . S
C857 C859 1.327 . S
C857 H880 0.950 . S
C858 C857 1.349 . S
C858 C870 1.349 . S
C859 C857 1.327 . S
C859 C875 1.429 . S
C859 H881 0.950 . S
C860 H856 0.949 . S
C860 C868 1.574 . S
C860 C876 1.368 . S
H861 C869 0.950 . S
H862 C867 0.950 . S
H863 C868 0.949 . S
H864 C870 0.950 . S
H865 C871 0.950 . S
H866 C872 0.949 . S
C867 H862 0.950 . S
C867 C869 1.327 . S
C867 C873 1.429 . S
C868 C860 1.574 . S
C868 H863 0.949 . S
C868 C874 1.368 . S
C869 C853 1.349 . S
C869 H861 0.950 . S
C869 C867 1.327 . S
C870 C858 1.349 . S
C870 H864 0.950 . S
C870 C871 1.327 . S
C871 H865 0.950 . S
C871 C870 1.327 . S
C871 C875 1.429 . S
C872 C855 1.574 . S
C872 H866 0.949 . S
C872 C876 1.368 . S
C873 C854 1.429 . S
C873 C867 1.429 . S
C873 C874 1.523 . S
C874 C855 1.368 . S
C874 C868 1.368 . S
C874 C873 1.523 . S
C875 C859 1.429 . S
C875 C871 1.429 . S
C875 C876 1.523 . S
C876 C860 1.368 . S
C876 C872 1.368 . S
C876 C875 1.523 . S
H877 C852 0.950 . S
H878 C854 0.950 . S
H879 C855 0.949 . S
H880 C857 0.950 . S
H881 C859 0.950 . S
C882 C883 1.349 . S
C882 C884 1.327 . S
C882 H907 0.950 . S
C883 C882 1.349 . S
C883 C899 1.349 . S
C884 C882 1.327 . S
C884 C903 1.429 . S
C884 H908 0.950 . S
C885 C902 1.574 . S
C885 C904 1.368 . S
C885 H909 0.949 . S
H886 C890 0.949 . S
C887 C888 1.349 . S
C887 C889 1.327 . S
C887 H910 0.950 . S
C888 C887 1.349 . S
C888 C900 1.349 . S
C889 C887 1.327 . S
C889 C905 1.429 . S
C889 H911 0.950 . S
C890 H886 0.949 . S
C890 C898 1.574 . S
C890 C906 1.368 . S
H891 C899 0.950 . S
H892 C897 0.950 . S
H893 C898 0.949 . S
H894 C900 0.950 . S
H895 C901 0.950 . S
H896 C902 0.949 . S
C897 H892 0.950 . S
C897 C899 1.327 . S
C897 C903 1.429 . S
C898 C890 1.574 . S
C898 H893 0.949 . S
C898 C904 1.368 . S
C899 C883 1.349 . S
C899 H891 0.950 . S
C899 C897 1.327 . S
C900 C888 1.349 . S
C900 H894 0.950 . S
C900 C901 1.327 . S
C901 H895 0.950 . S
C901 C900 1.327 . S
C901 C905 1.429 . S
C902 C885 1.574 . S
C902 H896 0.949 . S
C902 C906 1.368 . S
C903 C884 1.429 . S
C903 C897 1.429 . S
C903 C904 1.523 . S
C904 C885 1.368 . S
C904 C898 1.368 . S
C904 C903 1.523 . S
C905 C889 1.429 . S
C905 C901 1.429 . S
C905 C906 1.523 . S
C906 C890 1.368 . S
C906 C902 1.368 . S
C906 C905 1.523 . S
H907 C882 0.950 . S
H908 C884 0.950 . S
H909 C885 0.949 . S
H910 C887 0.950 . S
H911 C889 0.950 . S
C912 C913 1.349 . S
C912 C914 1.327 . S
C912 H937 0.950 . S
C913 C912 1.349 . S
C913 C929 1.349 . S
C914 C912 1.327 . S
C914 C933 1.429 . S
C914 H938 0.950 . S
C915 C932 1.574 . S
C915 C934 1.368 . S
C915 H939 0.949 . S
H916 C920 0.949 . S
C917 C918 1.349 . S
C917 C919 1.327 . S
C917 H940 0.950 . S
C918 C917 1.349 . S
C918 C930 1.349 . S
C919 C917 1.327 . S
C919 C935 1.429 . S
C919 H941 0.950 . S
C920 H916 0.949 . S
C920 C928 1.574 . S
C920 C936 1.368 . S
H921 C929 0.950 . S
H922 C927 0.950 . S
H923 C928 0.949 . S
H924 C930 0.950 . S
H925 C931 0.950 . S
H926 C932 0.949 . S
C927 H922 0.950 . S
C927 C929 1.327 . S
C927 C933 1.429 . S
C928 C920 1.574 . S
C928 H923 0.949 . S
C928 C934 1.368 . S
C929 C913 1.349 . S
C929 H921 0.950 . S
C929 C927 1.327 . S
C930 C918 1.349 . S
C930 H924 0.950 . S
C930 C931 1.327 . S
C931 H925 0.950 . S
C931 C930 1.327 . S
C931 C935 1.429 . S
C932 C915 1.574 . S
C932 H926 0.949 . S
C932 C936 1.368 . S
C933 C914 1.429 . S
C933 C927 1.429 . S
C933 C934 1.523 . S
C934 C915 1.368 . S
C934 C928 1.368 . S
C934 C933 1.523 . S
C935 C919 1.429 . S
C935 C931 1.429 . S
C935 C936 1.523 . S
C936 C920 1.368 . S
C936 C932 1.368 . S
C936 C935 1.523 . S
H937 C912 0.950 . S
H938 C914 0.950 . S
H939 C915 0.949 . S
H940 C917 0.950 . S
H941 C919 0.950 . S
C942 C943 1.349 . S
C942 C944 1.327 . S
C942 H967 0.950 . S
C943 C942 1.349 . S
C943 C959 1.349 . S
C944 C942 1.327 . S
C944 C963 1.429 . S
C944 H968 0.950 . S
C945 C962 1.574 . S
C945 C964 1.368 . S
C945 H969 0.949 . S
H946 C950 0.949 . S
C947 C948 1.349 . S
C947 C949 1.327 . S
C947 H970 0.950 . S
C948 C947 1.349 . S
C948 C960 1.349 . S
C949 C947 1.327 . S
C949 C965 1.429 . S
C949 H971 0.950 . S
C950 H946 0.949 . S
C950 C958 1.574 . S
C950 C966 1.368 . S
H951 C959 0.950 . S
H952 C957 0.950 . S
H953 C958 0.949 . S
H954 C960 0.950 . S
H955 C961 0.950 . S
H956 C962 0.949 . S
C957 H952 0.950 . S
C957 C959 1.327 . S
C957 C963 1.429 . S
C958 C950 1.574 . S
C958 H953 0.949 . S
C958 C964 1.368 . S
C959 C943 1.349 . S
C959 H951 0.950 . S
C959 C957 1.327 . S
C960 C948 1.349 . S
C960 H954 0.950 . S
C960 C961 1.327 . S
C961 H955 0.950 . S
C961 C960 1.327 . S
C961 C965 1.429 . S
C962 C945 1.574 . S
C962 H956 0.949 . S
C962 C966 1.368 . S
C963 C944 1.429 . S
C963 C957 1.429 . S
C963 C964 1.523 . S
C964 C945 1.368 . S
C964 C958 1.368 . S
C964 C963 1.523 . S
C965 C949 1.429 . S
C965 C961 1.429 . S
C965 C966 1.523 . S
C966 C950 1.368 . S
C966 C962 1.368 . S
C966 C965 1.523 . S
H967 C942 0.950 . S
H968 C944 0.950 . S
H969 C945 0.949 . S
H970 C947 0.950 . S
H971 C949 0.950 . S
C972 C973 1.349 . S
C972 C974 1.327 . S
C972 H997 0.950 . S
C973 C972 1.349 . S
C973 C989 1.349 . S
C974 C972 1.327 . S
C974 C993 1.429 . S
C974 H998 0.950 . S
C975 C992 1.574 . S
C975 C994 1.368 . S
C975 H999 0.949 . S
H976 C980 0.949 . S
C977 C978 1.349 . S
C977 C979 1.327 . S
C977 H1000 0.950 . S
C978 C977 1.349 . S
C978 C990 1.349 . S
C979 C977 1.327 . S
C979 C995 1.429 . S
C979 H1001 0.950 . S
C980 H976 0.949 . S
C980 C988 1.574 . S
C980 C996 1.368 . S
H981 C989 0.950 . S
H982 C987 0.950 . S
H983 C988 0.949 . S
H984 C990 0.950 . S
H985 C991 0.950 . S
H986 C992 0.949 . S
C987 H982 0.950 . S
C987 C989 1.327 . S
C987 C993 1.429 . S
C988 C980 1.574 . S
C988 H983 0.949 . S
C988 C994 1.368 . S
C989 C973 1.349 . S
C989 H981 0.950 . S
C989 C987 1.327 . S
C990 C978 1.349 . S
C990 H984 0.950 . S
C990 C991 1.327 . S
C991 H985 0.950 . S
C991 C990 1.327 . S
C991 C995 1.429 . S
C992 C975 1.574 . S
C992 H986 0.949 . S
C992 C996 1.368 . S
C993 C974 1.429 . S
C993 C987 1.429 . S
C993 C994 1.523 . S
C994 C975 1.368 . S
C994 C988 1.368 . S
C994 C993 1.523 . S
C995 C979 1.429 . S
C995 C991 1.429 . S
C995 C996 1.523 . S
C996 C980 1.368 . S
C996 C992 1.368 . S
C996 C995 1.523 . S
H997 C972 0.950 . S
H998 C974 0.950 . S
H999 C975 0.949 . S
H1000 C977 0.950 . S
H1001 C979 0.950 . S
C1002 C1003 1.349 . S
C1002 C1004 1.327 . S
C1002 H1027 0.950 . S
C1003 C1002 1.349 . S
C1003 C1019 1.349 . S
C1004 C1002 1.327 . S
C1004 C1023 1.429 . S
C1004 H1028 0.950 . S
C1005 C1022 1.574 . S
C1005 C1024 1.368 . S
C1005 H1029 0.949 . S
H1006 C1010 0.949 . S
C1007 C1008 1.349 . S
C1007 C1009 1.327 . S
C1007 H1030 0.950 . S
C1008 C1007 1.349 . S
C1008 C1020 1.349 . S
C1009 C1007 1.327 . S
C1009 C1025 1.429 . S
C1009 H1031 0.950 . S
C1010 H1006 0.949 . S
C1010 C1018 1.574 . S
C1010 C1026 1.368 . S
H1011 C1019 0.950 . S
H1012 C1017 0.950 . S
H1013 C1018 0.949 . S
H1014 C1020 0.950 . S
H1015 C1021 0.950 . S
H1016 C1022 0.949 . S
C1017 H1012 0.950 . S
C1017 C1019 1.327 . S
C1017 C1023 1.429 . S
C1018 C1010 1.574 . S
C1018 H1013 0.949 . S
C1018 C1024 1.368 . S
C1019 C1003 1.349 . S
C1019 H1011 0.950 . S
C1019 C1017 1.327 . S
C1020 C1008 1.349 . S
C1020 H1014 0.950 . S
C1020 C1021 1.327 . S
C1021 H1015 0.950 . S
C1021 C1020 1.327 . S
C1021 C1025 1.429 . S
C1022 C1005 1.574 . S
C1022 H1016 0.949 . S
C1022 C1026 1.368 . S
C1023 C1004 1.429 . S
C1023 C1017 1.429 . S
C1023 C1024 1.523 . S
C1024 C1005 1.368 . S
C1024 C1018 1.368 . S
C1024 C1023 1.523 . S
C1025 C1009 1.429 . S
C1025 C1021 1.429 . S
C1025 C1026 1.523 . S
C1026 C1010 1.368 . S
C1026 C1022 1.368 . S
C1026 C1025 1.523 . S
H1027 C1002 0.950 . S
H1028 C1004 0.950 . S
H1029 C1005 0.949 . S
H1030 C1007 0.950 . S
H1031 C1009 0.950 . S
C1032 C1033 1.349 . S
C1032 C1034 1.327 . S
C1032 H1057 0.950 . S
C1033 C1032 1.349 . S
C1033 C1049 1.349 . S
C1034 C1032 1.327 . S
C1034 C1053 1.429 . S
C1034 H1058 0.950 . S
C1035 C1052 1.574 . S
C1035 C1054 1.368 . S
C1035 H1059 0.949 . S
H1036 C1040 0.949 . S
C1037 C1038 1.349 . S
C1037 C1039 1.327 . S
C1037 H1060 0.950 . S
C1038 C1037 1.349 . S
C1038 C1050 1.349 . S
C1039 C1037 1.327 . S
C1039 C1055 1.429 . S
C1039 H1061 0.950 . S
C1040 H1036 0.949 . S
C1040 C1048 1.574 . S
C1040 C1056 1.368 . S
H1041 C1049 0.950 . S
H1042 C1047 0.950 . S
H1043 C1048 0.949 . S
H1044 C1050 0.950 . S
H1045 C1051 0.950 . S
H1046 C1052 0.949 . S
C1047 H1042 0.950 . S
C1047 C1049 1.327 . S
C1047 C1053 1.429 . S
C1048 C1040 1.574 . S
C1048 H1043 0.949 . S
C1048 C1054 1.368 . S
C1049 C1033 1.349 . S
C1049 H1041 0.950 . S
C1049 C1047 1.327 . S
C1050 C1038 1.349 . S
C1050 H1044 0.950 . S
C1050 C1051 1.327 . S
C1051 H1045 0.950 . S
C1051 C1050 1.327 . S
C1051 C1055 1.429 . S
C1052 C1035 1.574 . S
C1052 H1046 0.949 . S
C1052 C1056 1.368 . S
C1053 C1034 1.429 . S
C1053 C1047 1.429 . S
C1053 C1054 1.523 . S
C1054 C1035 1.368 . S
C1054 C1048 1.368 . S
C1054 C1053 1.523 . S
C1055 C1039 1.429 . S
C1055 C1051 1.429 . S
C1055 C1056 1.523 . S
C1056 C1040 1.368 . S
C1056 C1052 1.368 . S
C1056 C1055 1.523 . S
H1057 C1032 0.950 . S
H1058 C1034 0.950 . S
H1059 C1035 0.949 . S
H1060 C1037 0.950 . S
H1061 C1039 0.950 . S
C1062 C1063 1.349 . S
C1062 C1064 1.327 . S
C1062 H1087 0.950 . S
C1063 C1062 1.349 . S
C1063 C1079 1.349 . S
C1064 C1062 1.327 . S
C1064 C1083 1.429 . S
C1064 H1088 0.950 . S
C1065 C1082 1.574 . S
C1065 C1084 1.368 . S
C1065 H1089 0.949 . S
H1066 C1070 0.949 . S
C1067 C1068 1.349 . S
C1067 C1069 1.327 . S
C1067 H1090 0.950 . S
C1068 C1067 1.349 . S
C1068 C1080 1.349 . S
C1069 C1067 1.327 . S
C1069 C1085 1.429 . S
C1069 H1091 0.950 . S
C1070 H1066 0.949 . S
C1070 C1078 1.574 . S
C1070 C1086 1.368 . S
H1071 C1079 0.950 . S
H1072 C1077 0.950 . S
H1073 C1078 0.949 . S
H1074 C1080 0.950 . S
H1075 C1081 0.950 . S
H1076 C1082 0.949 . S
C1077 H1072 0.950 . S
C1077 C1079 1.327 . S
C1077 C1083 1.429 . S
C1078 C1070 1.574 . S
C1078 H1073 0.949 . S
C1078 C1084 1.368 . S
C1079 C1063 1.349 . S
C1079 H1071 0.950 . S
C1079 C1077 1.327 . S
C1080 C1068 1.349 . S
C1080 H1074 0.950 . S
C1080 C1081 1.327 . S
C1081 H1075 0.950 . S
C1081 C1080 1.327 . S
C1081 C1085 1.429 . S
C1082 C1065 1.574 . S
C1082 H1076 0.949 . S
C1082 C1086 1.368 . S
C1083 C1064 1.429 . S
C1083 C1077 1.429 . S
C1083 C1084 1.523 . S
C1084 C1065 1.368 . S
C1084 C1078 1.368 . S
C1084 C1083 1.523 . S
C1085 C1069 1.429 . S
C1085 C1081 1.429 . S
C1085 C1086 1.523 . S
C1086 C1070 1.368 . S
C1086 C1082 1.368 . S
C1086 C1085 1.523 . S
H1087 C1062 0.950 . S
H1088 C1064 0.950 . S
H1089 C1065 0.949 . S
H1090 C1067 0.950 . S
H1091 C1069 0.950 . S
C1092 C1093 1.349 . S
C1092 C1094 1.327 . S
C1092 H1117 0.950 . S
C1093 C1092 1.349 . S
C1093 C1109 1.349 . S
C1094 C1092 1.327 . S
C1094 C1113 1.429 . S
C1094 H1118 0.950 . S
C1095 C1112 1.574 . S
C1095 C1114 1.368 . S
C1095 H1119 0.949 . S
H1096 C1100 0.949 . S
C1097 C1098 1.349 . S
C1097 C1099 1.327 . S
C1097 H1120 0.950 . S
C1098 C1097 1.349 . S
C1098 C1110 1.349 . S
C1099 C1097 1.327 . S
C1099 C1115 1.429 . S
C1099 H1121 0.950 . S
C1100 H1096 0.949 . S
C1100 C1108 1.574 . S
C1100 C1116 1.368 . S
H1101 C1109 0.950 . S
H1102 C1107 0.950 . S
H1103 C1108 0.949 . S
H1104 C1110 0.950 . S
H1105 C1111 0.950 . S
H1106 C1112 0.949 . S
C1107 H1102 0.950 . S
C1107 C1109 1.327 . S
C1107 C1113 1.429 . S
C1108 C1100 1.574 . S
C1108 H1103 0.949 . S
C1108 C1114 1.368 . S
C1109 C1093 1.349 . S
C1109 H1101 0.950 . S
C1109 C1107 1.327 . S
C1110 C1098 1.349 . S
C1110 H1104 0.950 . S
C1110 C1111 1.327 . S
C1111 H1105 0.950 . S
C1111 C1110 1.327 . S
C1111 C1115 1.429 . S
C1112 C1095 1.574 . S
C1112 H1106 0.949 . S
C1112 C1116 1.368 . S
C1113 C1094 1.429 . S
C1113 C1107 1.429 . S
C1113 C1114 1.523 . S
C1114 C1095 1.368 . S
C1114 C1108 1.368 . S
C1114 C1113 1.523 . S
C1115 C1099 1.429 . S
C1115 C1111 1.429 . S
C1115 C1116 1.523 . S
C1116 C1100 1.368 . S
C1116 C1112 1.368 . S
C1116 C1115 1.523 . S
H1117 C1092 0.950 . S
H1118 C1094 0.950 . S
H1119 C1095 0.949 . S
H1120 C1097 0.950 . S
H1121 C1099 0.950 . S
C403 C48 1.163 . S
C408 C91 1.189 . S
C433 C106 1.161 . S
C438 C169 1.188 . S
C463 C225 1.326 . S
C468 C182 1.293 . S
C493 C240 1.294 . S
C498 C35 1.327 . S
C523 C303 0.975 . S
C528 C24 0.973 . S
C553 C374 1.164 . S
C558 C102 1.188 . S
C583 C316 1.190 . S
C588 C158 1.215 . S
C613 C236 1.002 . S
C618 C359 1.002 . S
C643 C173 1.269 . S
C648 C370 1.300 . S
C673 C292 1.326 . S
C678 C249 1.296 . S
C703 C383 1.514 . S
C708 C39 1.514 . S
C733 C307 1.489 . S
C738 C115 1.489 . S
C763 C167 1.230 . S
C768 C242 1.250 . S
C793 C45 1.252 . S
C798 C228 1.231 . S
C823 C33 1.344 . S
C828 C108 1.371 . S
C853 C179 1.368 . S
C858 C94 1.342 . S
C883 C380 1.203 . S
C888 C161 1.186 . S
C913 C234 1.239 . S
C918 C309 1.253 . S
C943 C368 1.186 . S
C948 C27 1.188 . S
C973 C100 1.142 . S
C978 C295 1.142 . S
C1003 C41 1.413 . S
C1008 C313 1.418 . S
C1033 C112 1.371 . S
C1038 C362 1.352 . S
C1063 C175 1.418 . S
C1068 C301 1.395 . S
C1093 C246 1.466 . S
C1098 C376 1.466 . S
