# Generated by pormake.
# Topology ull, (4)-cn, num edge types: 1
# Building blocks:
#     Node 0, Type 0, BuildingBlock: QUQFOY_clean_sbu_3, # of connection points: 4
#     Node 1, Type 0, BuildingBlock: QUQFOY_clean_sbu_3, # of connection points: 4
#     Node 2, Type 0, BuildingBlock: QUQFOY_clean_sbu_3, # of connection points: 4
#     Node 3, Type 0, BuildingBlock: QUQFOY_clean_sbu_3, # of connection points: 4
#     Node 4, Type 0, BuildingBlock: QUQFOY_clean_sbu_3, # of connection points: 4
#     Node 5, Type 0, BuildingBlock: QUQFOY_clean_sbu_3, # of connection points: 4
#     Node 6, Type 0, BuildingBlock: QUQFOY_clean_sbu_3, # of connection points: 4
#     Node 7, Type 0, BuildingBlock: QUQFOY_clean_sbu_3, # of connection points: 4
#     Node 8, Type 0, BuildingBlock: QUQFOY_clean_sbu_3, # of connection points: 4
#     Node 9, Type 0, BuildingBlock: QUQFOY_clean_sbu_3, # of connection points: 4
#     Node 10, Type 0, BuildingBlock: QUQFOY_clean_sbu_3, # of connection points: 4
#     Node 11, Type 0, BuildingBlock: QUQFOY_clean_sbu_3, # of connection points: 4
#     Node 12, Type 0, BuildingBlock: QUQFOY_clean_sbu_3, # of connection points: 4
#     Node 13, Type 0, BuildingBlock: QUQFOY_clean_sbu_3, # of connection points: 4
#     Node 14, Type 0, BuildingBlock: QUQFOY_clean_sbu_3, # of connection points: 4
#     Node 15, Type 0, BuildingBlock: QUQFOY_clean_sbu_3, # of connection points: 4
#     Node 16, Type 0, BuildingBlock: QUQFOY_clean_sbu_3, # of connection points: 4
#     Node 17, Type 0, BuildingBlock: QUQFOY_clean_sbu_3, # of connection points: 4
#     Node 18, Type 0, BuildingBlock: QUQFOY_clean_sbu_3, # of connection points: 4
#     Node 19, Type 0, BuildingBlock: QUQFOY_clean_sbu_3, # of connection points: 4
#     Node 20, Type 0, BuildingBlock: QUQFOY_clean_sbu_3, # of connection points: 4
#     Node 21, Type 0, BuildingBlock: QUQFOY_clean_sbu_3, # of connection points: 4
#     Node 22, Type 0, BuildingBlock: QUQFOY_clean_sbu_3, # of connection points: 4
#     Node 23, Type 0, BuildingBlock: QUQFOY_clean_sbu_3, # of connection points: 4
#     Node 24, Type 0, BuildingBlock: QUQFOY_clean_sbu_3, # of connection points: 4
#     Node 25, Type 0, BuildingBlock: QUQFOY_clean_sbu_3, # of connection points: 4
#     Node 26, Type 0, BuildingBlock: QUQFOY_clean_sbu_3, # of connection points: 4
#     Node 27, Type 0, BuildingBlock: QUQFOY_clean_sbu_3, # of connection points: 4
#     Node 28, Type 0, BuildingBlock: QUQFOY_clean_sbu_3, # of connection points: 4
#     Node 29, Type 0, BuildingBlock: QUQFOY_clean_sbu_3, # of connection points: 4
#     Node 30, Type 0, BuildingBlock: QUQFOY_clean_sbu_3, # of connection points: 4
#     Node 31, Type 0, BuildingBlock: QUQFOY_clean_sbu_3, # of connection points: 4
#     Node 32, Type 0, BuildingBlock: QUQFOY_clean_sbu_3, # of connection points: 4
#     Node 33, Type 0, BuildingBlock: QUQFOY_clean_sbu_3, # of connection points: 4
#     Node 34, Type 0, BuildingBlock: QUQFOY_clean_sbu_3, # of connection points: 4
#     Node 35, Type 0, BuildingBlock: QUQFOY_clean_sbu_3, # of connection points: 4
#     Node 36, Type 0, BuildingBlock: QUQFOY_clean_sbu_3, # of connection points: 4
#     Node 37, Type 0, BuildingBlock: QUQFOY_clean_sbu_3, # of connection points: 4
#     Node 38, Type 0, BuildingBlock: QUQFOY_clean_sbu_3, # of connection points: 4
#     Node 39, Type 0, BuildingBlock: QUQFOY_clean_sbu_3, # of connection points: 4
#     Node 40, Type 0, BuildingBlock: QUQFOY_clean_sbu_3, # of connection points: 4
#     Node 41, Type 0, BuildingBlock: QUQFOY_clean_sbu_3, # of connection points: 4
#     Node 42, Type 0, BuildingBlock: QUQFOY_clean_sbu_3, # of connection points: 4
#     Node 43, Type 0, BuildingBlock: QUQFOY_clean_sbu_3, # of connection points: 4
#     Node 44, Type 0, BuildingBlock: QUQFOY_clean_sbu_3, # of connection points: 4
#     Node 45, Type 0, BuildingBlock: QUQFOY_clean_sbu_3, # of connection points: 4
#     Node 46, Type 0, BuildingBlock: QUQFOY_clean_sbu_3, # of connection points: 4
#     Node 47, Type 0, BuildingBlock: QUQFOY_clean_sbu_3, # of connection points: 4
#     Edge 48, Type (0, 0), BuildingBlock: MIFKUJ_clean_linker_0, # of connection points: 2
#     Edge 49, Type (0, 0), BuildingBlock: MIFKUJ_clean_linker_0, # of connection points: 2
#     Edge 50, Type (0, 0), BuildingBlock: MIFKUJ_clean_linker_0, # of connection points: 2
#     Edge 51, Type (0, 0), BuildingBlock: MIFKUJ_clean_linker_0, # of connection points: 2
#     Edge 52, Type (0, 0), BuildingBlock: MIFKUJ_clean_linker_0, # of connection points: 2
#     Edge 53, Type (0, 0), BuildingBlock: MIFKUJ_clean_linker_0, # of connection points: 2
#     Edge 54, Type (0, 0), BuildingBlock: MIFKUJ_clean_linker_0, # of connection points: 2
#     Edge 55, Type (0, 0), BuildingBlock: MIFKUJ_clean_linker_0, # of connection points: 2
#     Edge 56, Type (0, 0), BuildingBlock: MIFKUJ_clean_linker_0, # of connection points: 2
#     Edge 57, Type (0, 0), BuildingBlock: MIFKUJ_clean_linker_0, # of connection points: 2
#     Edge 58, Type (0, 0), BuildingBlock: MIFKUJ_clean_linker_0, # of connection points: 2
#     Edge 59, Type (0, 0), BuildingBlock: MIFKUJ_clean_linker_0, # of connection points: 2
#     Edge 60, Type (0, 0), BuildingBlock: MIFKUJ_clean_linker_0, # of connection points: 2
#     Edge 61, Type (0, 0), BuildingBlock: MIFKUJ_clean_linker_0, # of connection points: 2
#     Edge 62, Type (0, 0), BuildingBlock: MIFKUJ_clean_linker_0, # of connection points: 2
#     Edge 63, Type (0, 0), BuildingBlock: MIFKUJ_clean_linker_0, # of connection points: 2
#     Edge 64, Type (0, 0), BuildingBlock: MIFKUJ_clean_linker_0, # of connection points: 2
#     Edge 65, Type (0, 0), BuildingBlock: MIFKUJ_clean_linker_0, # of connection points: 2
#     Edge 66, Type (0, 0), BuildingBlock: MIFKUJ_clean_linker_0, # of connection points: 2
#     Edge 67, Type (0, 0), BuildingBlock: MIFKUJ_clean_linker_0, # of connection points: 2
#     Edge 68, Type (0, 0), BuildingBlock: MIFKUJ_clean_linker_0, # of connection points: 2
#     Edge 69, Type (0, 0), BuildingBlock: MIFKUJ_clean_linker_0, # of connection points: 2
#     Edge 70, Type (0, 0), BuildingBlock: MIFKUJ_clean_linker_0, # of connection points: 2
#     Edge 71, Type (0, 0), BuildingBlock: MIFKUJ_clean_linker_0, # of connection points: 2
#     Edge 72, Type (0, 0), BuildingBlock: MIFKUJ_clean_linker_0, # of connection points: 2
#     Edge 73, Type (0, 0), BuildingBlock: MIFKUJ_clean_linker_0, # of connection points: 2
#     Edge 74, Type (0, 0), BuildingBlock: MIFKUJ_clean_linker_0, # of connection points: 2
#     Edge 75, Type (0, 0), BuildingBlock: MIFKUJ_clean_linker_0, # of connection points: 2
#     Edge 76, Type (0, 0), BuildingBlock: MIFKUJ_clean_linker_0, # of connection points: 2
#     Edge 77, Type (0, 0), BuildingBlock: MIFKUJ_clean_linker_0, # of connection points: 2
#     Edge 78, Type (0, 0), BuildingBlock: MIFKUJ_clean_linker_0, # of connection points: 2
#     Edge 79, Type (0, 0), BuildingBlock: MIFKUJ_clean_linker_0, # of connection points: 2
#     Edge 80, Type (0, 0), BuildingBlock: MIFKUJ_clean_linker_0, # of connection points: 2
#     Edge 81, Type (0, 0), BuildingBlock: MIFKUJ_clean_linker_0, # of connection points: 2
#     Edge 82, Type (0, 0), BuildingBlock: MIFKUJ_clean_linker_0, # of connection points: 2
#     Edge 83, Type (0, 0), BuildingBlock: MIFKUJ_clean_linker_0, # of connection points: 2
#     Edge 84, Type (0, 0), BuildingBlock: MIFKUJ_clean_linker_0, # of connection points: 2
#     Edge 85, Type (0, 0), BuildingBlock: MIFKUJ_clean_linker_0, # of connection points: 2
#     Edge 86, Type (0, 0), BuildingBlock: MIFKUJ_clean_linker_0, # of connection points: 2
#     Edge 87, Type (0, 0), BuildingBlock: MIFKUJ_clean_linker_0, # of connection points: 2
#     Edge 88, Type (0, 0), BuildingBlock: MIFKUJ_clean_linker_0, # of connection points: 2
#     Edge 89, Type (0, 0), BuildingBlock: MIFKUJ_clean_linker_0, # of connection points: 2
#     Edge 90, Type (0, 0), BuildingBlock: MIFKUJ_clean_linker_0, # of connection points: 2
#     Edge 91, Type (0, 0), BuildingBlock: MIFKUJ_clean_linker_0, # of connection points: 2
#     Edge 92, Type (0, 0), BuildingBlock: MIFKUJ_clean_linker_0, # of connection points: 2
#     Edge 93, Type (0, 0), BuildingBlock: MIFKUJ_clean_linker_0, # of connection points: 2
#     Edge 94, Type (0, 0), BuildingBlock: MIFKUJ_clean_linker_0, # of connection points: 2
#     Edge 95, Type (0, 0), BuildingBlock: MIFKUJ_clean_linker_0, # of connection points: 2
#     Edge 96, Type (0, 0), BuildingBlock: MIFKUJ_clean_linker_0, # of connection points: 2
#     Edge 97, Type (0, 0), BuildingBlock: MIFKUJ_clean_linker_0, # of connection points: 2
#     Edge 98, Type (0, 0), BuildingBlock: MIFKUJ_clean_linker_0, # of connection points: 2
#     Edge 99, Type (0, 0), BuildingBlock: MIFKUJ_clean_linker_0, # of connection points: 2
#     Edge 100, Type (0, 0), BuildingBlock: MIFKUJ_clean_linker_0, # of connection points: 2
#     Edge 101, Type (0, 0), BuildingBlock: MIFKUJ_clean_linker_0, # of connection points: 2
#     Edge 102, Type (0, 0), BuildingBlock: MIFKUJ_clean_linker_0, # of connection points: 2
#     Edge 103, Type (0, 0), BuildingBlock: MIFKUJ_clean_linker_0, # of connection points: 2
#     Edge 104, Type (0, 0), BuildingBlock: MIFKUJ_clean_linker_0, # of connection points: 2
#     Edge 105, Type (0, 0), BuildingBlock: MIFKUJ_clean_linker_0, # of connection points: 2
#     Edge 106, Type (0, 0), BuildingBlock: MIFKUJ_clean_linker_0, # of connection points: 2
#     Edge 107, Type (0, 0), BuildingBlock: MIFKUJ_clean_linker_0, # of connection points: 2
#     Edge 108, Type (0, 0), BuildingBlock: MIFKUJ_clean_linker_0, # of connection points: 2
#     Edge 109, Type (0, 0), BuildingBlock: MIFKUJ_clean_linker_0, # of connection points: 2
#     Edge 110, Type (0, 0), BuildingBlock: MIFKUJ_clean_linker_0, # of connection points: 2
#     Edge 111, Type (0, 0), BuildingBlock: MIFKUJ_clean_linker_0, # of connection points: 2
#     Edge 112, Type (0, 0), BuildingBlock: MIFKUJ_clean_linker_0, # of connection points: 2
#     Edge 113, Type (0, 0), BuildingBlock: MIFKUJ_clean_linker_0, # of connection points: 2
#     Edge 114, Type (0, 0), BuildingBlock: MIFKUJ_clean_linker_0, # of connection points: 2
#     Edge 115, Type (0, 0), BuildingBlock: MIFKUJ_clean_linker_0, # of connection points: 2
#     Edge 116, Type (0, 0), BuildingBlock: MIFKUJ_clean_linker_0, # of connection points: 2
#     Edge 117, Type (0, 0), BuildingBlock: MIFKUJ_clean_linker_0, # of connection points: 2
#     Edge 118, Type (0, 0), BuildingBlock: MIFKUJ_clean_linker_0, # of connection points: 2
#     Edge 119, Type (0, 0), BuildingBlock: MIFKUJ_clean_linker_0, # of connection points: 2
#     Edge 120, Type (0, 0), BuildingBlock: MIFKUJ_clean_linker_0, # of connection points: 2
#     Edge 121, Type (0, 0), BuildingBlock: MIFKUJ_clean_linker_0, # of connection points: 2
#     Edge 122, Type (0, 0), BuildingBlock: MIFKUJ_clean_linker_0, # of connection points: 2
#     Edge 123, Type (0, 0), BuildingBlock: MIFKUJ_clean_linker_0, # of connection points: 2
#     Edge 124, Type (0, 0), BuildingBlock: MIFKUJ_clean_linker_0, # of connection points: 2
#     Edge 125, Type (0, 0), BuildingBlock: MIFKUJ_clean_linker_0, # of connection points: 2
#     Edge 126, Type (0, 0), BuildingBlock: MIFKUJ_clean_linker_0, # of connection points: 2
#     Edge 127, Type (0, 0), BuildingBlock: MIFKUJ_clean_linker_0, # of connection points: 2
#     Edge 128, Type (0, 0), BuildingBlock: MIFKUJ_clean_linker_0, # of connection points: 2
#     Edge 129, Type (0, 0), BuildingBlock: MIFKUJ_clean_linker_0, # of connection points: 2
#     Edge 130, Type (0, 0), BuildingBlock: MIFKUJ_clean_linker_0, # of connection points: 2
#     Edge 131, Type (0, 0), BuildingBlock: MIFKUJ_clean_linker_0, # of connection points: 2
#     Edge 132, Type (0, 0), BuildingBlock: MIFKUJ_clean_linker_0, # of connection points: 2
#     Edge 133, Type (0, 0), BuildingBlock: MIFKUJ_clean_linker_0, # of connection points: 2
#     Edge 134, Type (0, 0), BuildingBlock: MIFKUJ_clean_linker_0, # of connection points: 2
#     Edge 135, Type (0, 0), BuildingBlock: MIFKUJ_clean_linker_0, # of connection points: 2
#     Edge 136, Type (0, 0), BuildingBlock: MIFKUJ_clean_linker_0, # of connection points: 2
#     Edge 137, Type (0, 0), BuildingBlock: MIFKUJ_clean_linker_0, # of connection points: 2
#     Edge 138, Type (0, 0), BuildingBlock: MIFKUJ_clean_linker_0, # of connection points: 2
#     Edge 139, Type (0, 0), BuildingBlock: MIFKUJ_clean_linker_0, # of connection points: 2
#     Edge 140, Type (0, 0), BuildingBlock: MIFKUJ_clean_linker_0, # of connection points: 2
#     Edge 141, Type (0, 0), BuildingBlock: MIFKUJ_clean_linker_0, # of connection points: 2
#     Edge 142, Type (0, 0), BuildingBlock: MIFKUJ_clean_linker_0, # of connection points: 2
#     Edge 143, Type (0, 0), BuildingBlock: MIFKUJ_clean_linker_0, # of connection points: 2
# Relax obj value: 0.026
# Max RMSD: 0.091
# Mean RMSD: 0.091
data_MOF--net-ull--node1-QUQFOY_clean_sbu_3--edge1-MIFKUJ_clean_linker_0
_symmetry_space_group_name_H-M    P1
_symmetry_Int_Tables_number       1
_symmetry_cell_setting            triclinic
loop_
_symmetry_equiv_pos_as_xyz
'x, y, z'
_cell_length_a     80.73269
_cell_length_b     80.770021
_cell_length_c     80.744405
_cell_angle_alpha  89.979551
_cell_angle_beta   90.009823
_cell_angle_gamma 90.080371
loop_
_atom_site_label
_atom_site_type_symbol
_atom_site_fract_x
_atom_site_fract_y
_atom_site_fract_z
_atom_type_partial_charge
C0 C 0.05416 0.31895 0.1446 0.0
O1 O 0.04996 0.30411 0.14772 0.0
Cd2 Cd 0.02692 0.29686 0.16497 0.0
O3 O 0.04675 0.33101 0.15154 0.0
Cd4 Cd 0.02486 0.33591 0.17237 0.0
C5 C -0.00336 0.32021 0.14587 0.0
O6 O 0.03013 0.31198 0.19014 0.0
O7 O 0.00777 0.32584 0.19491 0.0
O8 O 0.04337 0.35654 0.18384 0.0
C9 C 0.01738 0.31417 0.19904 0.0
O10 O 0.00272 0.30608 0.14936 0.0
C11 C 0.03241 0.36764 0.18567 0.0
O12 O 0.0028 0.3334 0.15195 0.0
O13 O 0.01788 0.36424 0.18064 0.0
C14 C 0.67261 0.04932 0.13858 0.0
O15 O 0.68659 0.04249 0.14086 0.0
Cd16 Cd 0.69334 0.02249 0.16177 0.0
O17 O 0.66012 0.04553 0.14746 0.0
Cd18 Cd 0.65396 0.02561 0.17 0.0
C19 C 0.66712 0.99216 0.14802 0.0
O20 O 0.67903 0.03086 0.18611 0.0
O21 O 0.66294 0.01146 0.195 0.0
O22 O 0.63377 0.04522 0.18071 0.0
C23 C 0.67595 0.01997 0.19698 0.0
O24 O 0.68186 -0.00307 0.15101 0.0
C25 C 0.62238 0.03453 0.18276 0.0
O26 O 0.65473 0.00085 0.15248 0.0
O27 O 0.62545 0.01985 0.17807 0.0
C28 C 0.93973 0.67112 0.14775 0.0
O29 O 0.9442 0.68533 0.1528 0.0
Cd30 Cd 0.96575 0.68986 0.17271 0.0
O31 O 0.94603 0.65806 0.15396 0.0
Cd32 Cd 0.966 0.65032 0.17586 0.0
C33 C -0.00331 0.66758 0.15349 0.0
O34 O 0.96019 0.67232 0.1958 0.0
O35 O 0.98208 0.65764 0.20016 0.0
O36 O 0.94618 0.62951 0.18426 0.0
C37 C 0.97237 0.6689 0.20511 0.0
O38 O 0.99092 0.68145 0.15827 0.0
C39 C 0.95669 0.61797 0.18605 0.0
O40 O 0.98952 0.65406 0.15735 0.0
O41 O 0.97158 0.6212 0.18211 0.0
C42 C 0.31325 0.93296 0.14139 0.0
O43 O 0.29882 0.93817 0.14486 0.0
Cd44 Cd 0.29305 0.96103 0.16274 0.0
O45 O 0.32599 0.93935 0.14819 0.0
Cd46 Cd 0.33276 0.96061 0.16932 0.0
C47 C 0.31807 0.99057 0.14426 0.0
O48 O 0.30874 0.95629 0.18717 0.0
O49 O 0.32399 0.97761 0.19243 0.0
O50 O 0.35257 0.94064 0.1797 0.0
C51 C 0.31167 0.96871 0.19631 0.0
O52 O 0.30373 0.98504 0.14785 0.0
C53 C 0.36395 0.9511 0.18258 0.0
O54 O 0.3311 0.98355 0.14973 0.0
O55 O 0.36121 0.96601 0.1784 0.0
C56 C 0.05104 0.66759 0.84436 0.0
O57 O 0.04682 0.68206 0.83989 0.0
Cd58 Cd 0.02534 0.68784 0.82025 0.0
O59 O 0.04443 0.65487 0.83773 0.0
Cd60 Cd 0.02427 0.64789 0.81569 0.0
C61 C 0.99365 0.66514 0.8382 0.0
O62 O 0.03079 0.67068 0.79699 0.0
O63 O 0.00919 0.65612 0.79098 0.0
O64 O 0.04413 0.6272 0.80729 0.0
C65 C 0.01888 0.66784 0.78715 0.0
O66 O -2e-05 0.67902 0.83411 0.0
C67 C 0.03361 0.61577 0.80486 0.0
O68 O 0.00043 0.65156 0.83391 0.0
O69 O 0.01861 0.61897 0.80837 0.0
C70 C 0.32485 0.04832 0.85274 0.0
O71 O 0.30992 0.04345 0.85191 0.0
Cd72 Cd 0.3011 0.02122 0.83459 0.0
O73 O 0.33583 0.04202 0.84334 0.0
Cd74 Cd 0.33695 0.02109 0.82092 0.0
C75 C 0.32796 0.9911 0.84806 0.0
O76 O 0.31054 0.02558 0.8068 0.0
O77 O 0.32276 0.0022 0.80234 0.0
O78 O 0.35221 0.03986 0.80341 0.0
C79 C 0.31138 0.01229 0.79849 0.0
O80 O 0.31324 -0.00329 0.84731 0.0
C81 C 0.36448 0.03039 0.80091 0.0
O82 O 0.3397 -0.00192 0.84018 0.0
O83 O 0.36441 0.01655 0.8084 0.0
C84 C 0.93188 0.31295 0.8465 0.0
O85 O 0.93879 0.29895 0.8447 0.0
Cd86 Cd 0.96186 0.29337 0.82706 0.0
O87 O 0.93709 0.32565 0.83868 0.0
Cd88 Cd 0.95936 0.33254 0.81864 0.0
C89 C 0.98962 0.32027 0.845 0.0
O90 O 0.95619 0.30768 0.80192 0.0
O91 O 0.97686 0.32349 0.7958 0.0
O92 O 0.93995 0.35178 0.80611 0.0
C93 C 0.96839 0.31071 0.79252 0.0
O94 O 0.98524 0.30549 0.84171 0.0
C95 C 0.95031 0.36353 0.80457 0.0
O96 O 0.98177 0.33257 0.83902 0.0
O97 O 0.96474 0.36113 0.81034 0.0
C98 C 0.67109 0.93776 0.84818 0.0
O99 O 0.68551 0.94244 0.84396 0.0
Cd100 Cd 0.69097 0.96445 0.82482 0.0
O101 O 0.6583 0.94422 0.84157 0.0
Cd102 Cd 0.65153 0.96489 0.81996 0.0
C103 C 0.66801 -0.00462 0.84323 0.0
O104 O 0.67441 0.95933 0.80093 0.0
O105 O 0.65973 0.98112 0.79602 0.0
O106 O 0.63094 0.94541 0.81018 0.0
C107 C 0.67132 0.97156 0.79157 0.0
O108 O 0.68205 0.98949 0.83911 0.0
C109 C 0.61942 0.95597 0.80852 0.0
O110 O 0.65462 0.98835 0.83871 0.0
O111 O 0.62255 0.9707 0.81308 0.0
C112 C 0.13927 0.05147 0.32298 0.0
O113 O 0.14371 0.04744 0.30844 0.0
Cd114 Cd 0.16574 0.029 0.30134 0.0
O115 O 0.14699 0.04598 0.33562 0.0
Cd116 Cd 0.17113 0.02791 0.34149 0.0
C117 C 0.15231 -0.00499 0.32343 0.0
O118 O 0.1883 0.03695 0.31841 0.0
O119 O 0.19732 0.01609 0.33225 0.0
O120 O 0.17853 0.04677 0.36371 0.0
C121 C 0.19952 0.02623 0.3205 0.0
O122 O 0.15545 0.00187 0.30957 0.0
C123 C 0.18202 0.03548 0.3741 0.0
O124 O 0.15582 0.0022 0.33704 0.0
O125 O 0.17942 0.02063 0.36964 0.0
C126 C 0.9314 0.14302 0.32845 0.0
O127 O 0.93606 0.14599 0.31372 0.0
Cd128 Cd 0.95859 0.16376 0.30622 0.0
O129 O 0.93835 0.15019 0.34068 0.0
Cd130 Cd 0.96016 0.17124 0.34557 0.0
C131 C 0.98955 0.14611 0.32982 0.0
O132 O 0.95456 0.1886 0.32146 0.0
O133 O 0.97668 0.19428 0.33534 0.0
O134 O 0.94202 0.18293 0.36639 0.0
C135 C 0.96708 0.19786 0.32348 0.0
O136 O 0.98348 0.1495 0.31565 0.0
C137 C 0.95315 0.18461 0.37738 0.0
O138 O 0.98289 0.15161 0.34302 0.0
O139 O 0.96753 0.17932 0.37385 0.0
C140 C 0.85337 0.9397 0.32114 0.0
O141 O 0.84989 0.94574 0.30703 0.0
Cd142 Cd 0.82761 0.96434 0.30097 0.0
O143 O 0.84456 0.94313 0.33378 0.0
Cd144 Cd 0.81963 0.95987 0.34008 0.0
C145 C 0.8377 -0.00426 0.32779 0.0
O146 O 0.80411 0.95346 0.31497 0.0
O147 O 0.79358 0.97212 0.33079 0.0
O148 O 0.81018 0.93879 0.35946 0.0
C149 C 0.7924 0.96347 0.31778 0.0
O150 O 0.83564 0.99079 0.31296 0.0
C151 C 0.80751 0.94883 0.37127 0.0
O152 O 0.834 0.98647 0.34001 0.0
O153 O 0.81129 0.96389 0.36879 0.0
C154 C 0.05762 0.84524 0.32024 0.0
O155 O 0.05213 0.84059 0.30625 0.0
Cd156 Cd 0.0303 0.82092 0.30219 0.0
O157 O 0.05195 0.83898 0.33359 0.0
Cd158 Cd 0.03152 0.8177 0.34222 0.0
C159 C 0.00016 0.83998 0.32564 0.0
O160 O 0.03661 0.79817 0.3198 0.0
O161 O 0.01584 0.7927 0.33572 0.0
O162 O 0.05128 0.80893 0.36302 0.0
C163 C 0.02487 0.78846 0.32364 0.0
O164 O 0.00553 0.83537 0.31154 0.0
C165 C 0.04091 0.80827 0.37483 0.0
O166 O 0.00773 0.836 0.3389 0.0
O167 O 0.02621 0.81287 0.37166 0.0
C168 C 0.14337 0.93035 0.66673 0.0
O169 O 0.14715 0.93509 0.68123 0.0
Cd170 Cd 0.1648 0.95796 0.6872 0.0
O171 O 0.14992 0.93719 0.65408 0.0
Cd172 Cd 0.17113 0.95881 0.64828 0.0
C173 C 0.14529 0.9876 0.66329 0.0
O174 O 0.1895 0.95385 0.67165 0.0
O175 O 0.19259 0.97721 0.65914 0.0
O176 O 0.18304 0.94049 0.62772 0.0
C177 C 0.19768 0.96714 0.67003 0.0
O178 O 0.14933 0.98217 0.67755 0.0
C179 C 0.18462 0.95145 0.61656 0.0
O180 O 0.15071 0.98073 0.65018 0.0
O181 O 0.17925 0.96584 0.61991 0.0
C182 C 0.04678 0.13487 0.66591 0.0
O183 O 0.04162 0.13889 0.6802 0.0
Cd184 Cd 0.02214 0.16034 0.6857 0.0
O185 O 0.0424 0.14307 0.65314 0.0
Cd186 Cd 0.02547 0.16791 0.64664 0.0
C187 C 0.99133 0.14735 0.65886 0.0
O188 O 0.03158 0.18409 0.67128 0.0
O189 O 0.01109 0.1926 0.65647 0.0
O190 O 0.04775 0.17784 0.62934 0.0
C191 C 0.02054 0.19492 0.66878 0.0
O192 O -0.00333 0.14987 0.67349 0.0
C193 C 0.03874 0.18165 0.61704 0.0
O194 O -0.00027 0.15188 0.64628 0.0
O195 O 0.02346 0.17795 0.61799 0.0
C196 C 0.84619 0.04667 0.66321 0.0
O197 O 0.84254 0.04187 0.67774 0.0
Cd198 Cd 0.82197 0.02146 0.68417 0.0
O199 O 0.83842 0.041 0.65069 0.0
Cd200 Cd 0.81536 0.02158 0.64485 0.0
C201 C 0.83717 0.98953 0.6603 0.0
O202 O 0.79797 0.02865 0.66863 0.0
O203 O 0.79046 0.00748 0.65418 0.0
O204 O 0.80733 0.04165 0.62406 0.0
C205 C 0.78746 0.01727 0.66604 0.0
O206 O 0.83389 -0.0045 0.67452 0.0
C207 C 0.80339 0.03107 0.61313 0.0
O208 O 0.83276 -0.00297 0.64714 0.0
O209 O 0.80584 0.01593 0.61662 0.0
C210 C 0.93759 0.84373 0.66413 0.0
O211 O 0.94241 0.83947 0.67848 0.0
Cd212 Cd 0.96249 0.81844 0.68425 0.0
O213 O 0.94313 0.83645 0.65128 0.0
Cd214 Cd 0.96241 0.8136 0.64449 0.0
C215 C -0.00497 0.83375 0.66135 0.0
O216 O 0.95519 0.79539 0.66746 0.0
O217 O 0.97628 0.78812 0.65287 0.0
O218 O 0.9431 0.805 0.62314 0.0
C219 C 0.96654 0.78493 0.66474 0.0
O220 O 0.98892 0.82998 0.6754 0.0
C221 C 0.95396 0.80322 0.61191 0.0
O222 O 0.98739 0.83026 0.64799 0.0
O223 O 0.96875 0.80711 0.61561 0.0
C224 C 0.31772 0.13824 0.04573 0.0
O225 O 0.30438 0.14122 0.03792 0.0
Cd226 Cd 0.30067 0.16274 0.01778 0.0
O227 O 0.33053 0.1472 0.04347 0.0
Cd228 Cd 0.33859 0.17164 0.02678 0.0
C229 C 0.33169 0.1514 0.9909 0.0
O230 O 0.31273 0.18704 0.0291 0.0
O231 O 0.33048 0.19632 0.0114 0.0
O232 O 0.35367 0.18246 0.05038 0.0
C233 C 0.31669 0.19808 0.01868 0.0
O234 O 0.31634 0.15386 0.99361 0.0
C235 C 0.36706 0.18516 0.04258 0.0
O236 O 0.3426 0.15541 0.00158 0.0
O237 O 0.36749 0.18083 0.02747 0.0
C238 C 0.32738 0.8424 0.94211 0.0
O239 O 0.31265 0.83754 0.94483 0.0
Cd240 Cd 0.30541 0.81557 0.9635 0.0
O241 O 0.33966 0.83497 0.94866 0.0
Cd242 Cd 0.34555 0.81066 0.9664 0.0
C243 C 0.32625 0.82946 -0.00166 0.0
O244 O 0.32305 0.79321 0.95639 0.0
O245 O 0.33669 0.78394 0.97732 0.0
O246 O 0.36832 0.80625 0.94734 0.0
C247 C 0.32512 0.78181 0.96696 0.0
O248 O 0.31275 0.8262 0.99082 0.0
C249 C 0.37851 0.80145 0.95829 0.0
O250 O 0.34021 0.82597 0.99186 0.0
O251 O 0.37365 0.80168 0.97325 0.0
C252 C 0.137 0.32193 0.94267 0.0
O253 O 0.14106 0.30769 0.94794 0.0
Cd254 Cd 0.16338 0.30194 0.96666 0.0
O255 O 0.14529 0.3347 0.94684 0.0
Cd256 Cd 0.16993 0.34095 0.96402 0.0
C257 C 0.15113 0.32717 -0.00134 0.0
O258 O 0.18707 0.31684 0.9574 0.0
O259 O 0.19482 0.33182 0.97811 0.0
O260 O 0.17969 0.36032 0.94323 0.0
C261 C 0.19776 0.31976 0.96854 0.0
O262 O 0.15416 0.31266 0.99328 0.0
C263 C 0.18225 0.37215 0.95327 0.0
O264 O 0.15442 0.3399 0.98994 0.0
O265 O 0.17812 0.36977 0.96827 0.0
C266 C 0.67153 0.14332 0.94162 0.0
O267 O 0.68541 0.1476 0.94771 0.0
Cd268 Cd 0.68986 0.17016 0.96668 0.0
O269 O 0.65835 0.15115 0.94532 0.0
Cd270 Cd 0.65014 0.17481 0.9628 0.0
C271 C 0.66446 0.15663 -0.0022 0.0
O272 O 0.67379 0.19241 0.95628 0.0
O273 O 0.65729 0.20159 0.97508 0.0
O274 O 0.62982 0.18175 0.94174 0.0
C275 C 0.67009 0.20385 0.96631 0.0
O276 O 0.67895 0.16089 0.99323 0.0
C277 C 0.61808 0.18437 0.95188 0.0
O278 O 0.65193 0.15884 0.98847 0.0
O279 O 0.62103 0.18161 0.96708 0.0
C280 C 0.84967 0.67508 0.94158 0.0
O281 O 0.84558 0.68935 0.94672 0.0
Cd282 Cd 0.82573 0.694 0.96826 0.0
O283 O 0.84262 0.66218 0.94733 0.0
Cd284 Cd 0.82039 0.65529 0.96729 0.0
C285 C 0.84303 0.66988 -0.0011 0.0
O286 O 0.80138 0.67843 0.96204 0.0
O287 O 0.79694 0.66359 0.98386 0.0
O288 O 0.81099 0.63555 0.94677 0.0
C289 C 0.7921 0.67499 0.97426 0.0
O290 O 0.83892 0.68411 0.99351 0.0
C291 C 0.80758 0.62415 0.95704 0.0
O292 O 0.83892 0.65679 0.9911 0.0
O293 O 0.81122 0.62678 0.97211 0.0
C294 C 0.66298 0.84505 0.04967 0.0
O295 O 0.67729 0.84028 0.04522 0.0
Cd296 Cd 0.68302 0.8192 0.02528 0.0
O297 O 0.65001 0.83811 0.0439 0.0
Cd298 Cd 0.64325 0.81499 0.02477 0.0
C299 C 0.66074 0.83524 0.99261 0.0
O300 O 0.6658 0.7965 0.03243 0.0
O301 O 0.65178 0.78954 0.01083 0.0
O302 O 0.62185 0.8067 0.04412 0.0
C303 C 0.66322 0.7861 0.02098 0.0
O304 O 0.6746 0.83113 -0.00108 0.0
C305 C 0.61081 0.80417 0.03321 0.0
O306 O 0.64717 0.83188 -4e-05 0.0
O307 O 0.61454 0.80773 0.01834 0.0
C308 C 0.13981 0.67139 0.04799 0.0
O309 O 0.14459 0.68541 0.04266 0.0
Cd310 Cd 0.16572 0.68936 0.02216 0.0
O311 O 0.14672 0.65813 0.043 0.0
Cd312 Cd 0.1696 0.64972 0.02448 0.0
C313 C 0.14949 0.66482 0.99119 0.0
O314 O 0.18859 0.67259 0.03009 0.0
O315 O 0.19467 0.65679 0.00944 0.0
O316 O 0.17783 0.63004 0.0455 0.0
C317 C 0.19865 0.66886 0.01863 0.0
O318 O 0.15369 0.67911 -0.00359 0.0
C319 C 0.17981 0.61796 0.03563 0.0
O320 O 0.15272 0.65185 -0.00043 0.0
O321 O 0.17607 0.6204 0.02054 0.0
C322 C 0.85067 0.3191 0.04447 0.0
O323 O 0.84574 0.30536 0.03857 0.0
Cd324 Cd 0.82116 0.30105 0.02203 0.0
O325 O 0.84266 0.33238 0.04165 0.0
Cd326 Cd 0.81799 0.34082 0.02594 0.0
C327 C 0.83158 0.3256 0.98938 0.0
O328 O 0.80014 0.3178 0.03391 0.0
O329 O 0.79031 0.33445 0.01557 0.0
O330 O 0.81208 0.36191 0.0465 0.0
C331 C 0.78822 0.32176 0.02453 0.0
O332 O 0.82717 0.31129 0.99431 0.0
C333 C 0.81005 0.37349 0.03605 0.0
O334 O 0.83126 0.3381 -0.00103 0.0
O335 O 0.81271 0.37003 0.02094 0.0
C336 C 0.54515 0.82737 0.64324 0.0
O337 O 0.54063 0.81318 0.64834 0.0
Cd338 Cd 0.52121 0.80834 0.67018 0.0
O339 O 0.53997 0.84048 0.65034 0.0
Cd340 Cd 0.52212 0.8481 0.67419 0.0
C341 C 0.48906 0.83188 0.65458 0.0
O342 O 0.52929 0.82542 0.69273 0.0
O343 O 0.50787 0.83979 0.69946 0.0
O344 O 0.54287 0.86832 0.68186 0.0
C345 C 0.51786 0.82828 0.70309 0.0
O346 O 0.49497 0.81783 0.65864 0.0
C347 C 0.53272 0.87998 0.68469 0.0
O348 O 0.49691 0.84521 0.65778 0.0
O349 O 0.51754 0.87712 0.68164 0.0
C350 C 0.17368 0.55041 0.64493 0.0
O351 O 0.18791 0.54598 0.64997 0.0
Cd352 Cd 0.19246 0.52514 0.67061 0.0
O353 O 0.1606 0.54457 0.65159 0.0
Cd354 Cd 0.15238 0.52571 0.67435 0.0
C355 C 0.16898 0.49406 0.65279 0.0
O356 O 0.17501 0.53169 0.69343 0.0
O357 O 0.15952 0.51072 0.6994 0.0
O358 O 0.13194 0.54602 0.68254 0.0
C359 C 0.17148 0.52006 0.70338 0.0
O360 O 0.18305 0.4999 0.65695 0.0
C361 C 0.12013 0.53575 0.68419 0.0
O362 O 0.15561 0.50137 0.65686 0.0
O363 O 0.12309 0.52079 0.68034 0.0
C364 C 0.44599 0.1679 0.64563 0.0
O365 O 0.45076 0.18204 0.65059 0.0
Cd366 Cd 0.47163 0.18562 0.67135 0.0
O367 O 0.45154 0.15477 0.65238 0.0
Cd368 Cd 0.47009 0.1463 0.67528 0.0
C369 C 0.50236 0.16138 0.6539 0.0
O370 O 0.4645 0.16877 0.69456 0.0
O371 O 0.48639 0.15423 0.69937 0.0
O372 O 0.44817 0.12777 0.68339 0.0
C373 C 0.47663 0.16559 0.70402 0.0
O374 O 0.4969 0.17554 0.65819 0.0
C375 C 0.45722 0.11512 0.68551 0.0
O376 O 0.49449 0.14819 0.65761 0.0
O377 O 0.47255 0.11671 0.68225 0.0
C378 C 0.82243 0.4408 0.64076 0.0
O379 O 0.80824 0.44571 0.64548 0.0
Cd380 Cd 0.80313 0.46508 0.66731 0.0
O381 O 0.83552 0.4456 0.64819 0.0
Cd382 Cd 0.84319 0.46319 0.67214 0.0
C383 C 0.82776 0.49691 0.6528 0.0
O384 O 0.81977 0.45646 0.68989 0.0
O385 O 0.83536 0.4765 0.69807 0.0
O386 O 0.86342 0.4424 0.6799 0.0
C387 C 0.82295 0.4673 0.70077 0.0
O388 O 0.81349 0.49119 0.65638 0.0
C389 C 0.87502 0.45264 0.6828 0.0
O390 O 0.84085 0.48878 0.65621 0.0
O391 O 0.87212 0.46778 0.6797 0.0
C392 C 0.5454 0.16418 0.34231 0.0
O393 O 0.54002 0.17825 0.33783 0.0
Cd394 Cd 0.51868 0.18239 0.31779 0.0
O395 O 0.53998 0.15098 0.33553 0.0
Cd396 Cd 0.52035 0.14293 0.31324 0.0
C397 C 0.48851 0.15775 0.33553 0.0
O398 O 0.52578 0.16584 0.29453 0.0
O399 O 0.50404 0.15139 0.28912 0.0
O400 O 0.54115 0.12327 0.30435 0.0
C401 C 0.51367 0.16306 0.28495 0.0
O402 O 0.49365 0.17201 0.33114 0.0
C403 C 0.53111 0.11144 0.30175 0.0
O404 O 0.4965 0.14472 0.33166 0.0
O405 O 0.51601 0.11395 0.30536 0.0
C406 C 0.82014 0.54978 0.34734 0.0
O407 O 0.80617 0.54461 0.34223 0.0
Cd408 Cd 0.80231 0.52459 0.32064 0.0
O409 O 0.83352 0.54479 0.34063 0.0
Cd410 Cd 0.8424 0.52637 0.3178 0.0
C411 C 0.82593 0.49297 0.33693 0.0
O412 O 0.82004 0.53283 0.29859 0.0
O413 O 0.83602 0.51255 0.29183 0.0
O414 O 0.8629 0.54706 0.31061 0.0
C415 C 0.82395 0.52182 0.28811 0.0
O416 O 0.81184 0.49858 0.33258 0.0
C417 C 0.87477 0.53692 0.30887 0.0
O418 O 0.83916 0.50109 0.33401 0.0
O419 O 0.87182 0.52185 0.3123 0.0
C420 C 0.44617 0.82002 0.35013 0.0
O421 O 0.45131 0.80568 0.3462 0.0
Cd422 Cd 0.46871 0.79928 0.32302 0.0
O423 O 0.44991 0.83262 0.34136 0.0
Cd424 Cd 0.46581 0.8389 0.31588 0.0
C425 C 0.50156 0.82469 0.33271 0.0
O426 O 0.45723 0.81431 0.30049 0.0
O427 O 0.4754 0.8299 0.28875 0.0
O428 O 0.44474 0.85974 0.31049 0.0
C429 C 0.46634 0.81713 0.28805 0.0
O430 O 0.49579 0.81016 0.33059 0.0
C431 C 0.45483 0.87049 0.30496 0.0
O432 O 0.49288 0.83742 0.32935 0.0
O433 O 0.47012 0.86688 0.30541 0.0
C434 C 0.16079 0.45041 0.34945 0.0
O435 O 0.17482 0.45693 0.34657 0.0
Cd436 Cd 0.18146 0.47409 0.32333 0.0
O437 O 0.14845 0.45314 0.34 0.0
Cd438 Cd 0.14282 0.4704 0.31522 0.0
C439 C 0.15568 0.50611 0.33311 0.0
O440 O 0.16763 0.46242 0.29999 0.0
O441 O 0.15325 0.48224 0.28945 0.0
O442 O 0.12303 0.44938 0.30666 0.0
C443 C 0.16536 0.47239 0.2881 0.0
O444 O 0.17038 0.50102 0.33058 0.0
C445 C 0.11166 0.4595 0.30275 0.0
O446 O 0.14326 0.49689 0.32994 0.0
O447 O 0.11451 0.47474 0.3054 0.0
C448 C 0.6436 0.54809 0.8169 0.0
O449 O 0.64839 0.54275 0.80289 0.0
Cd450 Cd 0.67128 0.52458 0.79793 0.0
O451 O 0.65138 0.54429 0.83012 0.0
Cd452 Cd 0.67604 0.52805 0.83845 0.0
C453 C 0.65872 0.49277 0.82353 0.0
O454 O 0.6928 0.5355 0.81463 0.0
O455 O 0.70355 0.51765 0.8312 0.0
O456 O 0.68092 0.54919 0.85939 0.0
C457 C 0.7049 0.5262 0.81815 0.0
O458 O 0.66191 0.49815 0.80904 0.0
C459 C 0.68531 0.53901 0.87055 0.0
O460 O 0.66172 0.50153 0.8363 0.0
O461 O 0.68444 0.52371 0.86704 0.0
C462 C 0.43695 0.64293 0.81561 0.0
O463 O 0.44169 0.64686 0.80114 0.0
Cd464 Cd 0.46459 0.66478 0.79575 0.0
O465 O 0.4439 0.64925 0.82831 0.0
Cd466 Cd 0.46573 0.67002 0.83445 0.0
C467 C 0.49476 0.645 0.81859 0.0
O468 O 0.46009 0.68923 0.81171 0.0
O469 O 0.48311 0.69271 0.8248 0.0
O470 O 0.447 0.68009 0.85557 0.0
C471 C 0.47291 0.69797 0.81412 0.0
O472 O 0.48913 0.64941 0.80452 0.0
C473 C 0.45808 0.68263 0.86643 0.0
O474 O 0.48793 0.64992 0.83191 0.0
O475 O 0.47278 0.67843 0.86276 0.0
C476 C 0.34798 0.44246 0.82397 0.0
O477 O 0.34241 0.44641 0.80979 0.0
Cd478 Cd 0.31988 0.46508 0.80496 0.0
O479 O 0.34119 0.44794 0.83711 0.0
Cd480 Cd 0.31735 0.46552 0.84495 0.0
C481 C 0.33478 0.49878 0.82657 0.0
O482 O 0.29829 0.45687 0.8232 0.0
O483 O 0.29078 0.47786 0.83779 0.0
O484 O 0.31137 0.44555 0.86648 0.0
C485 C 0.28739 0.46769 0.82634 0.0
O486 O 0.33055 0.49215 0.81288 0.0
C487 C 0.30857 0.4562 0.8777 0.0
O488 O 0.33242 0.4913 0.84027 0.0
O489 O 0.31102 0.47129 0.87397 0.0
C490 C 0.55506 0.35048 0.81973 0.0
O491 O 0.55036 0.34691 0.80517 0.0
Cd492 Cd 0.52771 0.32856 0.79988 0.0
O493 O 0.54835 0.34353 0.83221 0.0
Cd494 Cd 0.52731 0.3219 0.83769 0.0
C495 C 0.49729 0.34657 0.82374 0.0
O496 O 0.53263 0.30323 0.81442 0.0
O497 O 0.5093 0.30018 0.82712 0.0
O498 O 0.54704 0.31046 0.857 0.0
C499 C 0.5196 0.29474 0.81663 0.0
O500 O 0.50273 0.3427 0.80945 0.0
C501 C 0.53677 0.30783 0.86858 0.0
O502 O 0.50464 0.34162 0.83677 0.0
O503 O 0.52195 0.31254 0.86617 0.0
C504 C 0.64828 0.44042 0.1671 0.0
O505 O 0.65311 0.44497 0.18137 0.0
Cd506 Cd 0.67422 0.46519 0.18652 0.0
O507 O 0.65514 0.44611 0.15409 0.0
Cd508 Cd 0.67789 0.46516 0.14662 0.0
C509 C 0.65716 0.49704 0.16389 0.0
O510 O 0.69683 0.4581 0.16899 0.0
O511 O 0.70354 0.47925 0.15414 0.0
O512 O 0.68537 0.44552 0.12534 0.0
C513 C 0.70719 0.46947 0.16584 0.0
O514 O 0.66146 0.49111 0.17787 0.0
C515 C 0.68752 0.45623 0.11403 0.0
O516 O 0.66075 0.48959 0.15046 0.0
O517 O 0.68422 0.47118 0.11764 0.0
C518 C 0.55218 0.64 0.16954 0.0
O519 O 0.54732 0.64449 0.18381 0.0
Cd520 Cd 0.52755 0.66577 0.18971 0.0
O521 O 0.54686 0.64724 0.15655 0.0
Cd522 Cd 0.52801 0.67036 0.14967 0.0
C523 C 0.49481 0.6512 0.16656 0.0
O524 O 0.53478 0.68869 0.17274 0.0
O525 O 0.5136 0.69531 0.158 0.0
O526 O 0.54701 0.67995 0.12838 0.0
C527 C 0.52313 0.69879 0.16995 0.0
O528 O 0.5009 0.65491 0.18064 0.0
C529 C 0.53606 0.68135 0.11717 0.0
O530 O 0.50269 0.65428 0.15324 0.0
O531 O 0.52148 0.67668 0.12082 0.0
C532 C 0.34383 0.5605 0.17335 0.0
O533 O 0.33999 0.55542 0.18772 0.0
Cd534 Cd 0.32278 0.5317 0.19239 0.0
O535 O 0.33757 0.55374 0.16054 0.0
Cd536 Cd 0.31712 0.53213 0.15327 0.0
C537 C 0.34318 0.50328 0.16758 0.0
O538 O 0.29802 0.53446 0.1766 0.0
O539 O 0.29623 0.51232 0.1617 0.0
O540 O 0.30433 0.552 0.13506 0.0
C541 C 0.29055 0.52097 0.17347 0.0
O542 O 0.33883 0.50842 0.18186 0.0
C543 C 0.30348 0.54257 0.12253 0.0
O544 O 0.33791 0.51032 0.15447 0.0
O545 O 0.30977 0.52822 0.12398 0.0
C546 C 0.44186 0.35648 0.17488 0.0
O547 O 0.44682 0.35278 0.18934 0.0
Cd548 Cd 0.46729 0.33211 0.19467 0.0
O549 O 0.44698 0.34838 0.16236 0.0
Cd550 Cd 0.46508 0.3243 0.15675 0.0
C551 C 0.49813 0.34626 0.16871 0.0
O552 O 0.4593 0.30714 0.18107 0.0
O553 O 0.48105 0.30096 0.16678 0.0
O554 O 0.44315 0.3133 0.1398 0.0
C555 C 0.47105 0.29712 0.17825 0.0
O556 O 0.49277 0.34353 0.1833 0.0
C557 C 0.45215 0.30961 0.12747 0.0
O558 O 0.48999 0.34143 0.15609 0.0
O559 O 0.4673 0.31386 0.12819 0.0
C560 C 0.82241 0.64259 0.55244 0.0
O561 O 0.80781 0.64661 0.54821 0.0
Cd562 Cd 0.80095 0.66614 0.52712 0.0
O563 O 0.83494 0.64954 0.54578 0.0
Cd564 Cd 0.84026 0.67172 0.52512 0.0
C565 C 0.82279 0.64894 0.49479 0.0
O566 O 0.81748 0.68989 0.53282 0.0
O567 O 0.83001 0.69578 0.51002 0.0
O568 O 0.8623 0.68149 0.54304 0.0
C569 C 0.81923 0.69968 0.5207 0.0
O570 O 0.80888 0.65279 0.50116 0.0
C571 C 0.87278 0.68369 0.53153 0.0
O572 O 0.83632 0.65338 0.50157 0.0
O573 O 0.86841 0.67947 0.51702 0.0
C574 C 0.82376 0.34541 0.43494 0.0
O575 O 0.80946 0.34072 0.43951 0.0
Cd576 Cd 0.80459 0.32244 0.46221 0.0
O577 O 0.83669 0.33959 0.44187 0.0
Cd578 Cd 0.84343 0.31874 0.46346 0.0
C579 C 0.82662 0.34319 0.49238 0.0
O580 O 0.82149 0.29855 0.45835 0.0
O581 O 0.83389 0.29686 0.48193 0.0
O582 O 0.86478 0.3082 0.44523 0.0
C583 C 0.82368 0.29067 0.47175 0.0
O584 O 0.81272 0.33816 0.48682 0.0
C585 C 0.87588 0.30706 0.45631 0.0
O586 O 0.84012 0.33889 0.48547 0.0
O587 O 0.87215 0.31214 0.47071 0.0
C588 C 0.64214 0.82125 0.43685 0.0
O589 O 0.64477 0.80673 0.44225 0.0
Cd590 Cd 0.66147 0.801 0.46604 0.0
O591 O 0.64911 0.83369 0.44363 0.0
Cd592 Cd 0.66932 0.83937 0.46602 0.0
C593 C 0.64249 0.82617 0.49488 0.0
O594 O 0.68714 0.81518 0.46229 0.0
O595 O 0.69059 0.82928 0.48472 0.0
O596 O 0.68164 0.85848 0.44648 0.0
C597 C 0.69545 0.81767 0.47539 0.0
O598 O 0.64611 0.8117 0.48977 0.0
C599 C 0.68432 0.86993 0.4569 0.0
O600 O 0.64838 0.83896 0.48775 0.0
O601 O 0.67924 0.86755 0.47159 0.0
C602 C 0.16206 0.64587 0.43776 0.0
O603 O 0.17694 0.64958 0.44124 0.0
Cd604 Cd 0.18411 0.66689 0.4642 0.0
O605 O 0.15015 0.65209 0.44601 0.0
Cd606 Cd 0.14584 0.67235 0.46857 0.0
C607 C 0.16351 0.64672 0.49585 0.0
O608 O 0.16822 0.69174 0.46209 0.0
O609 O 0.15712 0.69388 0.48631 0.0
O610 O 0.12458 0.68295 0.45055 0.0
C611 C 0.16698 0.69969 0.47557 0.0
O612 O 0.17708 0.65125 0.48916 0.0
C613 C 0.11392 0.68559 0.46176 0.0
O614 O 0.14965 0.65161 0.49012 0.0
O615 O 0.11775 0.6813 0.47642 0.0
C616 C 0.34796 0.16292 0.44359 0.0
O617 O 0.34351 0.17743 0.44765 0.0
Cd618 Cd 0.32444 0.1831 0.46941 0.0
O619 O 0.34145 0.1503 0.45051 0.0
Cd620 Cd 0.31938 0.14415 0.47113 0.0
C621 C 0.3431 0.16061 0.50084 0.0
O622 O 0.3005 0.16667 0.46413 0.0
O623 O 0.2964 0.15466 0.48761 0.0
O624 O 0.31133 0.12283 0.45161 0.0
C625 C 0.29151 0.165 0.47688 0.0
O626 O 0.33885 0.17448 0.49462 0.0
C627 C 0.30703 0.11229 0.46244 0.0
O628 O 0.33856 0.14704 0.49418 0.0
O629 O 0.30923 0.11619 0.47751 0.0
C630 C 0.17524 0.35223 0.54641 0.0
O631 O 0.18919 0.34886 0.54001 0.0
Cd632 Cd 0.19289 0.32801 0.51921 0.0
O633 O 0.16237 0.34412 0.54224 0.0
Cd634 Cd 0.15541 0.32097 0.52348 0.0
C635 C 0.16588 0.34294 0.49013 0.0
O636 O 0.1794 0.30314 0.52778 0.0
O637 O 0.1651 0.2986 0.50564 0.0
O638 O 0.13853 0.30945 0.5453 0.0
C639 C 0.17643 0.29391 0.51545 0.0
O640 O 0.18067 0.33883 0.49377 0.0
C641 C 0.12582 0.30678 0.53644 0.0
O642 O 0.15387 0.33954 0.49976 0.0
O643 O 0.1265 0.31152 0.52145 0.0
C644 C 0.64178 0.16936 0.54521 0.0
O645 O 0.64539 0.18389 0.54042 0.0
Cd646 Cd 0.66468 0.18912 0.51859 0.0
O647 O 0.64896 0.15686 0.53884 0.0
Cd648 Cd 0.67092 0.15099 0.51818 0.0
C649 C 0.6473 0.16559 0.4875 0.0
O650 O 0.68946 0.17406 0.5248 0.0
O651 O 0.69386 0.16151 0.50166 0.0
O652 O 0.67918 0.13003 0.53802 0.0
C653 C 0.69866 0.17202 0.51226 0.0
O654 O 0.65113 0.17983 0.49311 0.0
C655 C 0.68333 0.1193 0.52734 0.0
O656 O 0.65195 0.1525 0.49494 0.0
O657 O 0.68115 0.12302 0.51222 0.0
C658 C 0.34528 0.82325 0.55136 0.0
O659 O 0.34125 0.80875 0.54683 0.0
Cd660 Cd 0.32306 0.80332 0.52423 0.0
O661 O 0.33875 0.83587 0.54448 0.0
Cd662 Cd 0.31737 0.84179 0.52314 0.0
C663 C 0.34271 0.82652 0.49414 0.0
O664 O 0.29842 0.81896 0.52887 0.0
O665 O 0.29533 0.83117 0.50532 0.0
O666 O 0.30668 0.86238 0.5421 0.0
C667 C 0.28993 0.82081 0.51581 0.0
O668 O 0.33851 0.81239 0.49978 0.0
C669 C 0.30443 0.87354 0.53127 0.0
O670 O 0.3375 0.83976 0.5009 0.0
O671 O 0.3089 0.87022 0.51656 0.0
H672 H 0.08883 0.47858 0.28663 0.0
H673 H 0.0675 0.46897 0.2673 0.0
H674 H 0.07998 0.41832 0.27873 0.0
H675 H 0.1012 0.42779 0.29801 0.0
H676 H 0.07483 0.45162 0.23989 0.0
H677 H 0.04763 0.39342 0.27313 0.0
H678 H 0.0387 0.38533 0.30118 0.0
H679 H 0.03003 0.4363 0.31344 0.0
H680 H 0.03867 0.44471 0.28538 0.0
H681 H 0.06278 0.38051 0.19253 0.0
H682 H 0.0692 0.40297 0.21166 0.0
H683 H 0.01703 0.41163 0.21923 0.0
H684 H 0.01047 0.38911 0.19993 0.0
H685 H 0.03378 0.40664 0.24824 0.0
H686 H 0.03904 0.44156 0.20157 0.0
H687 H 0.04776 0.44992 0.17352 0.0
H688 H 0.0988 0.4468 0.18813 0.0
H689 H 0.09041 0.43818 0.21619 0.0
C690 C 0.08671 0.4654 0.28535 0.0
C691 C 0.09677 0.45392 0.29373 0.0
C692 C 0.07456 0.45995 0.27427 0.0
C693 C 0.07213 0.44295 0.27162 0.0
C694 C 0.08147 0.4315 0.28075 0.0
C695 C 0.09367 0.43693 0.29172 0.0
C696 C 0.06154 0.43702 0.25786 0.0
C697 C 0.06564 0.44198 0.24171 0.0
C698 C 0.04931 0.4247 0.26028 0.0
C699 C 0.04386 0.4197 0.27713 0.0
C700 C 0.0437 0.40291 0.28175 0.0
C701 C 0.03872 0.39826 0.29768 0.0
C702 C 0.03382 0.41029 0.30909 0.0
C703 C 0.03386 0.427 0.3046 0.0
C704 C 0.03882 0.43171 0.28869 0.0
C705 C 0.05266 0.38744 0.19796 0.0
C706 C 0.03613 0.38301 0.19481 0.0
C707 C 0.05634 0.40032 0.20883 0.0
C708 C 0.04358 0.40899 0.21681 0.0
C709 C 0.02704 0.40511 0.21313 0.0
C710 C 0.02333 0.3923 0.20208 0.0
C711 C 0.04776 0.42063 0.23033 0.0
C712 C 0.04254 0.41667 0.24643 0.0
C713 C 0.0589 0.43392 0.22787 0.0
C714 C 0.06407 0.43918 0.211 0.0
C715 C 0.05212 0.44256 0.19878 0.0
C716 C 0.05701 0.44736 0.18288 0.0
C717 C 0.07382 0.44889 0.17904 0.0
C718 C 0.08578 0.44563 0.19112 0.0
C719 C 0.08096 0.44082 0.20704 0.0
H720 H 0.07757 0.4526 0.16672 0.0
H721 H 0.02998 0.40667 0.32141 0.0
H722 H 0.59976 0.01302 0.19581 0.0
H723 H 0.57745 0.01961 0.21527 0.0
H724 H 0.58855 0.07163 0.21028 0.0
H725 H 0.61088 0.06517 0.19095 0.0
H726 H 0.58316 0.03476 0.24511 0.0
H727 H 0.5538 0.09379 0.21584 0.0
H728 H 0.54589 0.104 0.18817 0.0
H729 H 0.54123 0.05401 0.17071 0.0
H730 H 0.54887 0.04348 0.19833 0.0
H731 H 0.56268 0.10058 0.29735 0.0
H732 H 0.57204 0.07982 0.27755 0.0
H733 H 0.52129 0.06814 0.26547 0.0
H734 H 0.5118 0.08894 0.2854 0.0
H735 H 0.53929 0.07717 0.23843 0.0
H736 H 0.5447 0.03835 0.28196 0.0
H737 H 0.55253 0.02801 0.3096 0.0
H738 H 0.60387 0.03642 0.29851 0.0
H739 H 0.59635 0.04704 0.27089 0.0
C740 C 0.59718 0.02589 0.19855 0.0
C741 C 0.60712 0.03859 0.19195 0.0
C742 C 0.58448 0.0296 0.2097 0.0
C743 C 0.58135 0.04608 0.21417 0.0
C744 C 0.59064 0.05883 0.20685 0.0
C745 C 0.60344 0.05513 0.19585 0.0
C746 C 0.56978 0.05002 0.22781 0.0
C747 C 0.57338 0.04384 0.24365 0.0
C748 C 0.55682 0.06159 0.22578 0.0
C749 C 0.55199 0.06785 0.20917 0.0
C750 C 0.55098 0.08497 0.20614 0.0
C751 C 0.54657 0.09082 0.19045 0.0
C752 C 0.54308 0.07966 0.17769 0.0
C753 C 0.54397 0.06264 0.1806 0.0
C754 C 0.54837 0.05672 0.19626 0.0
C755 C 0.5535 0.09326 0.29084 0.0
C756 C 0.53652 0.09646 0.29281 0.0
C757 C 0.55886 0.08134 0.27958 0.0
C758 C 0.54735 0.07245 0.27005 0.0
C759 C 0.53035 0.07487 0.27274 0.0
C760 C 0.52496 0.0867 0.28417 0.0
C761 C 0.55326 0.06254 0.25582 0.0
C762 C 0.54868 0.06768 0.23986 0.0
C763 C 0.56529 0.04998 0.25774 0.0
C764 C 0.56993 0.04353 0.27433 0.0
C765 C 0.55765 0.03809 0.28544 0.0
C766 C 0.56204 0.03217 0.3011 0.0
C767 C 0.57868 0.03157 0.30581 0.0
C768 C 0.59098 0.03687 0.29484 0.0
C769 C 0.58666 0.04281 0.27916 0.0
H770 H 0.58205 0.02698 0.31794 0.0
H771 H 0.53968 0.08422 0.16555 0.0
H772 H 0.9257 0.60593 0.19156 0.0
H773 H 0.91791 0.58535 0.21224 0.0
H774 H 0.96948 0.57507 0.22165 0.0
H775 H 0.97741 0.59572 0.20089 0.0
H776 H 0.92297 0.55268 0.22059 0.0
H777 H 0.97338 0.57661 0.26429 0.0
H778 H 0.992 0.60071 0.26739 0.0
H779 H 0.95631 0.6317 0.24306 0.0
H780 H 0.93741 0.60785 0.24006 0.0
H781 H 0.8991 0.51708 0.2962 0.0
H782 H 0.92037 0.52543 0.27626 0.0
H783 H 0.90632 0.57655 0.2826 0.0
H784 H 0.8852 0.56836 0.30255 0.0
H785 H 0.93933 0.57368 0.27604 0.0
H786 H 0.88668 0.55366 0.25447 0.0
H787 H 0.86463 0.53273 0.25125 0.0
H788 H 0.89978 0.49855 0.23075 0.0
H789 H 0.92209 0.51923 0.23409 0.0
C790 C 0.93539 0.59891 0.19764 0.0
C791 C 0.95215 0.60261 0.19482 0.0
C792 C 0.93091 0.5871 0.20941 0.0
C793 C 0.94313 0.57891 0.21864 0.0
C794 C 0.95989 0.58138 0.21472 0.0
C795 C 0.96438 0.59315 0.20282 0.0
C796 C 0.93822 0.57005 0.2339 0.0
C797 C 0.92685 0.55697 0.23272 0.0
C798 C 0.94302 0.57593 0.24972 0.0
C799 C 0.95412 0.59041 0.25176 0.0
C800 C 0.96951 0.58858 0.25965 0.0
C801 C 0.9801 0.6022 0.26139 0.0
C802 C 0.97537 0.61771 0.25536 0.0
C803 C 0.95999 0.61967 0.24767 0.0
C804 C 0.94934 0.60611 0.24594 0.0
C805 C 0.90094 0.53015 0.29378 0.0
C806 C 0.89029 0.54206 0.30069 0.0
C807 C 0.91307 0.53488 0.28236 0.0
C808 C 0.91468 0.55156 0.27775 0.0
C809 C 0.90524 0.5636 0.28596 0.0
C810 C 0.89311 0.55889 0.29731 0.0
C811 C 0.92401 0.55636 0.26272 0.0
C812 C 0.93607 0.56881 0.26395 0.0
C813 C 0.91948 0.55024 0.24691 0.0
C814 C 0.90607 0.53789 0.24472 0.0
C815 C 0.88971 0.54164 0.24938 0.0
C816 C 0.87717 0.52983 0.24753 0.0
C817 C 0.88081 0.5143 0.24085 0.0
C818 C 0.89699 0.51057 0.23596 0.0
C819 C 0.90959 0.52232 0.23784 0.0
H820 H 0.87109 0.50517 0.23942 0.0
H821 H 0.9836 0.62822 0.25668 0.0
H822 H 0.46968 0.88601 0.27915 0.0
H823 H 0.45675 0.90527 0.25993 0.0
H824 H 0.41362 0.90779 0.2915 0.0
H825 H 0.42614 0.88746 0.31013 0.0
H826 H 0.40363 0.90123 0.26365 0.0
H827 H 0.44068 0.94264 0.28208 0.0
H828 H 0.46727 0.95537 0.29009 0.0
H829 H 0.4857 0.94871 0.24067 0.0
H830 H 0.4593 0.93573 0.2324 0.0
H831 H 0.38226 0.97103 0.20277 0.0
H832 H 0.40098 0.96186 0.22477 0.0
H833 H 0.39723 0.91164 0.20694 0.0
H834 H 0.37792 0.92062 0.18545 0.0
H835 H 0.42922 0.94619 0.23045 0.0
H836 H 0.39057 0.88581 0.23793 0.0
H837 H 0.36219 0.87594 0.23232 0.0
H838 H 0.34401 0.92579 0.23524 0.0
H839 H 0.37223 0.93592 0.24113 0.0
C840 C 0.45763 0.89105 0.28222 0.0
C841 C 0.44882 0.88519 0.29603 0.0
C842 C 0.45026 0.90218 0.27125 0.0
C843 C 0.43416 0.90809 0.2742 0.0
C844 C 0.42598 0.90331 0.28883 0.0
C845 C 0.43315 0.89177 0.29953 0.0
C846 C 0.42502 0.91709 0.26098 0.0
C847 C 0.40925 0.91119 0.25658 0.0
C848 C 0.4321 0.93027 0.25176 0.0
C849 C 0.44802 0.93811 0.25665 0.0
C850 C 0.45043 0.94378 0.27294 0.0
C851 C 0.46547 0.95106 0.27752 0.0
C852 C 0.47817 0.95282 0.2659 0.0
C853 C 0.47585 0.94734 0.24966 0.0
C854 C 0.46084 0.94004 0.24501 0.0
C855 C 0.3858 0.95811 0.20328 0.0
C856 C 0.37846 0.94646 0.19262 0.0
C857 C 0.39649 0.95289 0.21587 0.0
C858 C 0.4001 0.93601 0.21778 0.0
C859 C 0.39423 0.92467 0.20595 0.0
C860 C 0.38328 0.92981 0.19363 0.0
C861 C 0.40824 0.92993 0.23308 0.0
C862 C 0.42369 0.93637 0.23777 0.0
C863 C 0.40063 0.91767 0.24304 0.0
C864 C 0.38355 0.91163 0.23982 0.0
C865 C 0.3805 0.89465 0.23747 0.0
C866 C 0.36444 0.88901 0.23422 0.0
C867 C 0.35131 0.90023 0.23338 0.0
C868 C 0.3542 0.91711 0.23585 0.0
C869 C 0.37022 0.92281 0.23913 0.0
H870 H 0.3389 0.89584 0.23084 0.0
H871 H 0.4898 0.95846 0.26948 0.0
H872 H 0.10954 0.56699 0.69097 0.0
H873 H 0.08785 0.5748 0.71043 0.0
H874 H 0.07404 0.52349 0.71602 0.0
H875 H 0.09588 0.51553 0.69656 0.0
H876 H 0.0546 0.57147 0.71537 0.0
H877 H 0.07004 0.51726 0.75817 0.0
H878 H 0.0922 0.49668 0.76266 0.0
H879 H 0.12825 0.53099 0.74379 0.0
H880 H 0.10634 0.55181 0.73943 0.0
H881 H 0.01338 0.59377 0.78889 0.0
H882 H 0.02204 0.57315 0.76841 0.0
H883 H 0.07324 0.58324 0.77998 0.0
H884 H 0.06472 0.60373 0.8004 0.0
H885 H 0.06851 0.55071 0.77156 0.0
H886 H 0.05451 0.60577 0.75114 0.0
H887 H 0.03551 0.62933 0.74715 0.0
H888 H 0.00124 0.5977 0.72153 0.0
H889 H 0.01997 0.57388 0.72561 0.0
C890 C 0.1016 0.55739 0.69597 0.0
C891 C 0.10458 0.54063 0.69246 0.0
C892 C 0.08915 0.56188 0.70704 0.0
C893 C 0.07953 0.54969 0.71486 0.0
C894 C 0.08146 0.53305 0.71023 0.0
C895 C 0.09391 0.52854 0.69907 0.0
C896 C 0.06944 0.55435 0.72942 0.0
C897 C 0.05734 0.56665 0.72761 0.0
C898 C 0.07323 0.54826 0.74543 0.0
C899 C 0.08653 0.53596 0.74827 0.0
C900 C 0.08271 0.5204 0.75503 0.0
C901 C 0.09522 0.50871 0.75755 0.0
C902 C 0.11161 0.5125 0.75345 0.0
C903 C 0.11554 0.52804 0.7469 0.0
C904 C 0.10309 0.53978 0.7444 0.0
C905 C 0.02646 0.59117 0.78747 0.0
C906 C 0.0384 0.60053 0.79603 0.0
C907 C 0.03138 0.57943 0.77573 0.0
C908 C 0.04827 0.57689 0.77251 0.0
C909 C 0.06014 0.58503 0.78226 0.0
C910 C 0.05525 0.5968 0.79388 0.0
C911 C 0.05381 0.56795 0.75752 0.0
C912 C 0.06516 0.55495 0.75926 0.0
C913 C 0.04967 0.57372 0.74147 0.0
C914 C 0.03851 0.58803 0.73886 0.0
C915 C 0.04287 0.60383 0.74476 0.0
C916 C 0.03216 0.61722 0.74247 0.0
C917 C 0.01715 0.615 0.73414 0.0
C918 C 0.01285 0.59939 0.72803 0.0
C919 C 0.0235 0.58594 0.73032 0.0
H920 H 0.00888 0.62539 0.73238 0.0
H921 H 0.12127 0.50343 0.75538 0.0
H922 H 0.364 0.05622 0.77947 0.0
H923 H 0.38405 0.06278 0.75791 0.0
H924 H 0.41444 0.02169 0.77324 0.0
H925 H 0.3941 0.01473 0.7949 0.0
H926 H 0.43061 0.05593 0.76714 0.0
H927 H 0.39812 0.01373 0.74115 0.0
H928 H 0.3721 -0.00054 0.73387 0.0
H929 H 0.35516 0.04285 0.70826 0.0
H930 H 0.38096 0.05748 0.71561 0.0
H931 H 0.47401 0.08817 0.69763 0.0
H932 H 0.46244 0.06577 0.71462 0.0
H933 H 0.41344 0.08597 0.70781 0.0
H934 H 0.42478 0.10799 0.6907 0.0
H935 H 0.41192 0.05327 0.70863 0.0
H936 H 0.4383 0.09709 0.74104 0.0
H937 H 0.4621 0.11419 0.74976 0.0
H938 H 0.48855 0.07041 0.76425 0.0
H939 H 0.46493 0.05305 0.75542 0.0
C940 C 0.37498 0.0486 0.77839 0.0
C941 C 0.37747 0.03493 0.78887 0.0
C942 C 0.38638 0.05233 0.76602 0.0
C943 C 0.40056 0.04259 0.76394 0.0
C944 C 0.40347 0.02925 0.77467 0.0
C945 C 0.39188 0.02533 0.78699 0.0
C946 C 0.41209 0.04669 0.75036 0.0
C947 C 0.42688 0.05487 0.75427 0.0
C948 C 0.40694 0.04554 0.73367 0.0
C949 C 0.39148 0.03672 0.72898 0.0
C950 C 0.3888 0.02027 0.73405 0.0
C951 C 0.3741 0.01211 0.7299 0.0
C952 C 0.36198 0.02025 0.72061 0.0
C953 C 0.36456 0.03656 0.71543 0.0
C954 C 0.37924 0.04478 0.71957 0.0
C955 C 0.46073 0.08755 0.69943 0.0
C956 C 0.45032 0.09995 0.69304 0.0
C957 C 0.45415 0.0748 0.70918 0.0
C958 C 0.43712 0.07436 0.7127 0.0
C959 C 0.42663 0.08605 0.70528 0.0
C960 C 0.43315 0.09871 0.69556 0.0
C961 C 0.43016 0.06311 0.72544 0.0
C962 C 0.41613 0.05367 0.72139 0.0
C963 C 0.43584 0.06338 0.74205 0.0
C964 C 0.44999 0.07378 0.74737 0.0
C965 C 0.44925 0.09112 0.74598 0.0
C966 C 0.46269 0.10085 0.75095 0.0
C967 C 0.47685 0.09338 0.7575 0.0
C968 C 0.47759 0.07617 0.75913 0.0
C969 C 0.46419 0.06638 0.75414 0.0
H970 H 0.48725 0.10094 0.76135 0.0
H971 H 0.3506 0.01391 0.71742 0.0
H972 H 0.89703 0.47223 0.69938 0.0
H973 H 0.91752 0.46304 0.71975 0.0
H974 H 0.90702 0.41217 0.7073 0.0
H975 H 0.88649 0.42123 0.68706 0.0
H976 H 0.90752 0.44474 0.74642 0.0
H977 H 0.94044 0.3886 0.71521 0.0
H978 H 0.95233 0.38141 0.68804 0.0
H979 H 0.95981 0.43294 0.67727 0.0
H980 H 0.9482 0.44045 0.70448 0.0
H981 H 0.91975 0.37385 0.79474 0.0
H982 H 0.91343 0.39567 0.77482 0.0
H983 H 0.96526 0.40842 0.77198 0.0
H984 H 0.9717 0.38658 0.79205 0.0
H985 H 0.95142 0.40212 0.74147 0.0
H986 H 0.93976 0.43618 0.78788 0.0
H987 H 0.92782 0.44338 0.81504 0.0
H988 H 0.87877 0.43704 0.79547 0.0
H989 H 0.8904 0.42956 0.76826 0.0
C990 C 0.89948 0.45911 0.7006 0.0
C991 C 0.89006 0.44742 0.69176 0.0
C992 C 0.91114 0.45389 0.71228 0.0
C993 C 0.91376 0.43695 0.71503 0.0
C994 C 0.90532 0.42532 0.70525 0.0
C995 C 0.89354 0.4305 0.69372 0.0
C996 C 0.92323 0.43122 0.72963 0.0
C997 C 0.91732 0.43563 0.74537 0.0
C998 C 0.93617 0.41954 0.72822 0.0
C999 C 0.94337 0.41509 0.7119 0.0
C1000 C 0.94472 0.39841 0.70711 0.0
C1001 C 0.95139 0.39427 0.69168 0.0
C1002 C 0.9568 0.40671 0.68093 0.0
C1003 C 0.95558 0.42331 0.6856 0.0
C1004 C 0.94893 0.42752 0.70101 0.0
C1005 C 0.92977 0.38153 0.79017 0.0
C1006 C 0.94622 0.37847 0.79489 0.0
C1007 C 0.92613 0.39403 0.77883 0.0
C1008 C 0.93889 0.40367 0.77197 0.0
C1009 C 0.95526 0.40113 0.77718 0.0
C1010 C 0.95889 0.38871 0.78868 0.0
C1011 C 0.93512 0.41507 0.75814 0.0
C1012 C 0.942 0.41163 0.74256 0.0
C1013 C 0.92308 0.42766 0.75969 0.0
C1014 C 0.91598 0.43226 0.77602 0.0
C1015 C 0.92643 0.43622 0.78939 0.0
C1016 C 0.91971 0.44037 0.80479 0.0
C1017 C 0.90255 0.44066 0.80698 0.0
C1018 C 0.89207 0.43683 0.79375 0.0
C1019 C 0.89872 0.43267 0.77832 0.0
H1020 H 0.89738 0.44386 0.81892 0.0
H1021 H 0.96195 0.40348 0.66898 0.0
H1022 H 0.60803 0.92516 0.80101 0.0
H1023 H 0.58684 0.91822 0.78065 0.0
H1024 H 0.5752 0.97001 0.77484 0.0
H1025 H 0.59652 0.9771 0.79525 0.0
H1026 H 0.55385 0.92287 0.77471 0.0
H1027 H 0.57307 0.97644 0.73249 0.0
H1028 H 0.5963 -0.00397 0.72877 0.0
H1029 H 0.63007 0.9602 0.74881 0.0
H1030 H 0.60709 0.94036 0.75242 0.0
H1031 H 0.51333 0.90288 0.70034 0.0
H1032 H 0.52263 0.92299 0.72104 0.0
H1033 H 0.57347 0.91067 0.71027 0.0
H1034 H 0.56431 0.89069 0.68958 0.0
H1035 H 0.57028 0.94322 0.71904 0.0
H1036 H 0.55312 0.88879 0.73861 0.0
H1037 H 0.53297 0.86604 0.74198 0.0
H1038 H 0.49964 0.89893 0.76712 0.0
H1039 H 0.51953 0.92194 0.76366 0.0
C1040 C 0.60066 0.93506 0.79575 0.0
C1041 C 0.60409 0.95168 0.79952 0.0
C1042 C 0.58849 0.93106 0.78417 0.0
C1043 C 0.57965 0.94363 0.77607 0.0
C1044 C 0.58202 0.96016 0.78087 0.0
C1045 C 0.59416 0.96417 0.79256 0.0
C1046 C 0.56985 0.93939 0.76117 0.0
C1047 C 0.55716 0.9276 0.76257 0.0
C1048 C 0.57439 0.94534 0.74531 0.0
C1049 C 0.58834 0.95705 0.74293 0.0
C1050 C 0.58547 0.97276 0.73606 0.0
C1051 C 0.59858 0.98389 0.73397 0.0
C1052 C 0.61464 0.97939 0.73861 0.0
C1053 C 0.61763 0.9637 0.74528 0.0
C1054 C 0.60456 0.95252 0.74735 0.0
C1055 C 0.52649 0.90489 0.70197 0.0
C1056 C 0.53811 0.89502 0.69356 0.0
C1057 C 0.53177 0.91634 0.71384 0.0
C1058 C 0.54871 0.91808 0.71737 0.0
C1059 C 0.56034 0.90949 0.70775 0.0
C1060 C 0.55508 0.89801 0.69598 0.0
C1061 C 0.55438 0.9266 0.73257 0.0
C1062 C 0.56641 0.93907 0.73122 0.0
C1063 C 0.54956 0.92094 0.74847 0.0
C1064 C 0.53769 0.90711 0.7507 0.0
C1065 C 0.54144 0.89118 0.74475 0.0
C1066 C 0.53008 0.87825 0.74669 0.0
C1067 C 0.51501 0.88105 0.75471 0.0
C1068 C 0.5113 0.89679 0.76086 0.0
C1069 C 0.5226 0.90978 0.75892 0.0
H1070 H 0.50623 0.87102 0.7562 0.0
H1071 H 0.62477 0.98803 0.73701 0.0
H1072 H 0.18367 0.0651 0.39015 0.0
H1073 H 0.20472 0.07339 0.41025 0.0
H1074 H 0.22327 0.02334 0.41162 0.0
H1075 H 0.2018 0.01483 0.39202 0.0
H1076 H 0.22892 0.0386 0.44087 0.0
H1077 H 0.2386 0.04952 0.38354 0.0
H1078 H 0.23191 0.0602 0.35572 0.0
H1079 H 0.22948 0.10967 0.37502 0.0
H1080 H 0.23589 0.09923 0.40303 0.0
H1081 H 0.31048 0.09413 0.43434 0.0
H1082 H 0.29047 0.07434 0.42317 0.0
H1083 H 0.26114 0.07894 0.46767 0.0
H1084 H 0.28172 0.09782 0.47924 0.0
H1085 H 0.26237 0.08305 0.41473 0.0
H1086 H 0.23218 0.04911 0.47111 0.0
H1087 H 0.24091 0.03564 0.49709 0.0
H1088 H 0.28932 0.02726 0.47677 0.0
H1089 H 0.28083 0.04047 0.4506 0.0
C1090 C 0.19185 0.05575 0.39519 0.0
C1091 C 0.19131 0.03941 0.38932 0.0
C1092 C 0.2039 0.0605 0.40664 0.0
C1093 C 0.21585 0.04907 0.41201 0.0
C1094 C 0.21424 0.03237 0.40753 0.0
C1095 C 0.20197 0.02754 0.3963 0.0
C1096 C 0.23128 0.05502 0.42 0.0
C1097 C 0.23628 0.04834 0.43525 0.0
C1098 C 0.24123 0.0672 0.41226 0.0
C1099 C 0.23758 0.07357 0.3954 0.0
C1100 C 0.23654 0.06266 0.38186 0.0
C1101 C 0.2328 0.06867 0.36606 0.0
C1102 C 0.23024 0.0856 0.36361 0.0
C1103 C 0.23145 0.09656 0.37695 0.0
C1104 C 0.23514 0.0906 0.39279 0.0
C1105 C 0.30008 0.09036 0.44196 0.0
C1106 C 0.29756 0.0975 0.45759 0.0
C1107 C 0.2886 0.07914 0.43556 0.0
C1108 C 0.27416 0.07522 0.44447 0.0
C1109 C 0.27226 0.08147 0.46061 0.0
C1110 C 0.28402 0.09234 0.46721 0.0
C1111 C 0.26007 0.06694 0.43595 0.0
C1112 C 0.25523 0.07323 0.42047 0.0
C1113 C 0.2507 0.05401 0.44326 0.0
C1114 C 0.25589 0.04592 0.45893 0.0
C1115 C 0.24466 0.04433 0.47215 0.0
C1116 C 0.24958 0.03675 0.48693 0.0
C1117 C 0.26568 0.03064 0.4886 0.0
C1118 C 0.27688 0.03206 0.47549 0.0
C1119 C 0.27203 0.03962 0.46069 0.0
H1120 H 0.26946 0.02478 0.50004 0.0
H1121 H 0.22735 0.09023 0.35137 0.0
H1122 H 0.89724 0.29354 0.47881 0.0
H1123 H 0.91925 0.27351 0.47296 0.0
H1124 H 0.91125 0.28012 0.42054 0.0
H1125 H 0.88933 0.3 0.42627 0.0
H1126 H 0.91222 0.24471 0.45761 0.0
H1127 H 0.94513 0.272 0.39907 0.0
H1128 H 0.95623 0.29886 0.38973 0.0
H1129 H 0.96178 0.31448 0.44025 0.0
H1130 H 0.95096 0.28762 0.44993 0.0
H1131 H 0.92314 0.19324 0.38996 0.0
H1132 H 0.91773 0.21334 0.41176 0.0
H1133 H 0.97019 0.21796 0.42091 0.0
H1134 H 0.97573 0.19776 0.39896 0.0
H1135 H 0.95608 0.24748 0.41469 0.0
H1136 H 0.94581 0.20342 0.45161 0.0
H1137 H 0.93474 0.17658 0.46107 0.0
H1138 H 0.88507 0.1945 0.45496 0.0
H1139 H 0.89581 0.22136 0.44522 0.0
C1140 C 0.90056 0.29111 0.46604 0.0
C1141 C 0.89148 0.29819 0.45298 0.0
C1142 C 0.91309 0.27964 0.46274 0.0
C1143 C 0.9169 0.27535 0.44633 0.0
C1144 C 0.90869 0.2834 0.43329 0.0
C1145 C 0.89608 0.29469 0.43658 0.0
C1146 C 0.92736 0.26079 0.44261 0.0
C1147 C 0.92205 0.2453 0.44846 0.0
C1148 C 0.94044 0.26163 0.431 0.0
C1149 C 0.94719 0.27776 0.42524 0.0
C1150 C 0.94884 0.28109 0.40821 0.0
C1151 C 0.95505 0.29635 0.40285 0.0
C1152 C 0.95969 0.30837 0.41439 0.0
C1153 C 0.95815 0.30516 0.43132 0.0
C1154 C 0.95195 0.28993 0.43675 0.0
C1155 C 0.93352 0.1982 0.39688 0.0
C1156 C 0.94986 0.19403 0.39267 0.0
C1157 C 0.9304 0.20962 0.40943 0.0
C1158 C 0.94356 0.2171 0.41801 0.0
C1159 C 0.95987 0.21228 0.41447 0.0
C1160 C 0.963 0.20071 0.40197 0.0
C1161 C 0.94013 0.23145 0.42888 0.0
C1162 C 0.94671 0.24688 0.4243 0.0
C1163 C 0.92825 0.23056 0.44171 0.0
C1164 C 0.92165 0.21444 0.44767 0.0
C1165 C 0.93253 0.20162 0.4522 0.0
C1166 C 0.9263 0.18639 0.45762 0.0
C1167 C 0.90921 0.18384 0.45862 0.0
C1168 C 0.89831 0.19651 0.45421 0.0
C1169 C 0.90446 0.21176 0.44877 0.0
H1170 H 0.90442 0.17203 0.46281 0.0
H1171 H 0.96449 0.32018 0.41021 0.0
H1172 H 0.70215 0.88982 0.47766 0.0
H1173 H 0.72377 0.90963 0.46964 0.0
H1174 H 0.71181 0.90179 0.41816 0.0
H1175 H 0.69043 0.8819 0.42604 0.0
H1176 H 0.75072 0.89995 0.45041 0.0
H1177 H 0.71949 0.93698 0.397 0.0
H1178 H 0.69239 0.94958 0.39081 0.0
H1179 H 0.68217 0.95378 0.44282 0.0
H1180 H 0.70931 0.94144 0.44934 0.0
H1181 H 0.79906 0.91741 0.38037 0.0
H1182 H 0.77975 0.90936 0.40217 0.0
H1183 H 0.77586 0.96029 0.41775 0.0
H1184 H 0.79519 0.96849 0.39588 0.0
H1185 H 0.74598 0.94694 0.41113 0.0
H1186 H 0.79251 0.93239 0.44392 0.0
H1187 H 0.81958 0.91973 0.45012 0.0
H1188 H 0.79947 0.87145 0.44045 0.0
H1189 H 0.77234 0.88382 0.43396 0.0
C1190 C 0.70384 0.89269 0.46466 0.0
C1191 C 0.6947 0.88428 0.45245 0.0
C1192 C 0.71622 0.90393 0.46011 0.0
C1193 C 0.71934 0.90717 0.44333 0.0
C1194 C 0.70948 0.89959 0.43119 0.0
C1195 C 0.6973 0.88819 0.4357 0.0
C1196 C 0.73406 0.91679 0.43819 0.0
C1197 C 0.74975 0.9104 0.44203 0.0
C1198 C 0.73272 0.93056 0.42749 0.0
C1199 C 0.71644 0.93821 0.42365 0.0
C1200 C 0.71152 0.9407 0.40713 0.0
C1201 C 0.69613 0.94777 0.40356 0.0
C1202 C 0.68555 0.95246 0.41641 0.0
C1203 C 0.69036 0.95011 0.43287 0.0
C1204 C 0.70573 0.94305 0.43651 0.0
C1205 C 0.79443 0.92685 0.38868 0.0
C1206 C 0.79854 0.94359 0.38632 0.0
C1207 C 0.78344 0.92222 0.40119 0.0
C1208 C 0.7764 0.93423 0.41159 0.0
C1209 C 0.78119 0.95084 0.40986 0.0
C1210 C 0.79226 0.95548 0.39739 0.0
C1211 C 0.7626 0.92959 0.42274 0.0
C1212 C 0.74705 0.93683 0.41992 0.0
C1213 C 0.76409 0.91661 0.4344 0.0
C1214 C 0.78037 0.90906 0.4384 0.0
C1215 C 0.79387 0.91908 0.44302 0.0
C1216 C 0.80923 0.91195 0.4466 0.0
C1217 C 0.81124 0.8948 0.44567 0.0
C1218 C 0.79789 0.88473 0.44118 0.0
C1219 C 0.78251 0.8918 0.43758 0.0
H1220 H 0.82315 0.8893 0.44844 0.0
H1221 H 0.67364 0.95792 0.41362 0.0
H1222 H 0.0716 0.79921 0.38537 0.0
H1223 H 0.07802 0.78032 0.40798 0.0
H1224 H 0.02666 0.78016 0.42276 0.0
H1225 H 0.02008 0.79901 0.39993 0.0
H1226 H 0.07528 0.77736 0.44116 0.0
H1227 H 0.01666 0.73932 0.42995 0.0
H1228 H -0.00511 0.73559 0.40877 0.0
H1229 H 0.02946 0.74887 0.37057 0.0
H1230 H 0.05144 0.75246 0.39151 0.0
H1231 H 0.09487 0.70352 0.48329 0.0
H1232 H 0.07508 0.72526 0.47569 0.0
H1233 H 0.08001 0.71172 0.42424 0.0
H1234 H 0.09961 0.69009 0.43172 0.0
H1235 H 0.04898 0.72273 0.43084 0.0
H1236 H 0.10636 0.73926 0.44085 0.0
H1237 H 0.1313 0.74203 0.45832 0.0
H1238 H 0.10372 0.77075 0.49355 0.0
H1239 H 0.07856 0.76793 0.47636 0.0
C1240 C 0.06173 0.79552 0.39368 0.0
C1241 C 0.04529 0.80035 0.39071 0.0
C1242 C 0.06543 0.78478 0.40668 0.0
C1243 C 0.05277 0.77863 0.41688 0.0
C1244 C 0.03658 0.78464 0.4149 0.0
C1245 C 0.03285 0.79543 0.40188 0.0
C1246 C 0.05631 0.76427 0.42771 0.0
C1247 C 0.06925 0.7655 0.43924 0.0
C1248 C 0.04861 0.74873 0.425 0.0
C1249 C 0.03558 0.74638 0.4123 0.0
C1250 C 0.01959 0.74141 0.41703 0.0
C1251 C 0.00723 0.73932 0.40507 0.0
C1252 C 0.01077 0.74206 0.38834 0.0
C1253 C 0.02671 0.74681 0.38353 0.0
C1254 C 0.03912 0.74888 0.39543 0.0
C1255 C 0.09125 0.70481 0.47044 0.0
C1256 C 0.09894 0.69532 0.45805 0.0
C1257 C 0.08 0.71726 0.46612 0.0
C1258 C 0.07631 0.72025 0.44939 0.0
C1259 C 0.0827 0.70964 0.43723 0.0
C1260 C 0.09397 0.69732 0.44151 0.0
C1261 C 0.06815 0.73576 0.44404 0.0
C1262 C 0.05443 0.73474 0.43345 0.0
C1263 C 0.07546 0.7514 0.44721 0.0
C1264 C 0.09057 0.7532 0.45746 0.0
C1265 C 0.10561 0.74607 0.45238 0.0
C1266 C 0.11977 0.74765 0.46222 0.0
C1267 C 0.11908 0.75652 0.47707 0.0
C1268 C 0.10423 0.76385 0.48207 0.0
C1269 C 0.09001 0.76226 0.4723 0.0
H1270 H 0.13006 0.75774 0.48466 0.0
H1271 H 0.00118 0.74046 0.37911 0.0
H1272 H 0.19776 0.97372 0.59466 0.0
H1273 H 0.21726 0.96777 0.57216 0.0
H1274 H 0.21212 0.91546 0.58169 0.0
H1275 H 0.19276 0.92128 0.60409 0.0
H1276 H 0.24688 0.9529 0.57736 0.0
H1277 H 0.21801 0.89363 0.54743 0.0
H1278 H 0.19049 0.88366 0.53874 0.0
H1279 H 0.17355 0.93379 0.53387 0.0
H1280 H 0.20105 0.9441 0.54228 0.0
H1281 H 0.29847 0.88611 0.5619 0.0
H1282 H 0.27868 0.90766 0.56913 0.0
H1283 H 0.26922 0.91663 0.5173 0.0
H1284 H 0.28914 0.89495 0.50995 0.0
H1285 H 0.24121 0.9097 0.53408 0.0
H1286 H 0.28512 0.94768 0.54016 0.0
H1287 H 0.31262 0.95789 0.54866 0.0
H1288 H 0.29945 0.95164 0.5998 0.0
H1289 H 0.27196 0.94116 0.59163 0.0
C1290 C 0.20047 0.96094 0.59165 0.0
C1291 C 0.19383 0.94795 0.60118 0.0
C1292 C 0.21164 0.95758 0.57884 0.0
C1293 C 0.21607 0.94119 0.57522 0.0
C1294 C 0.20869 0.92819 0.58411 0.0
C1295 C 0.19769 0.93154 0.59698 0.0
C1296 C 0.22988 0.93748 0.56375 0.0
C1297 C 0.24565 0.94367 0.56768 0.0
C1298 C 0.22815 0.92578 0.55085 0.0
C1299 C 0.21162 0.91964 0.54554 0.0
C1300 C 0.20847 0.90255 0.54438 0.0
C1301 C 0.19285 0.89683 0.53953 0.0
C1302 C 0.18027 0.90808 0.53577 0.0
C1303 C 0.1833 0.92508 0.53682 0.0
C1304 C 0.19889 0.93087 0.54165 0.0
C1305 C 0.29252 0.89296 0.55202 0.0
C1306 C 0.29524 0.88877 0.53537 0.0
C1307 C 0.28127 0.90536 0.55616 0.0
C1308 C 0.27251 0.91379 0.54374 0.0
C1309 C 0.27591 0.9103 0.52706 0.0
C1310 C 0.28732 0.89797 0.52289 0.0
C1311 C 0.25829 0.92433 0.54846 0.0
C1312 C 0.24243 0.91937 0.54332 0.0
C1313 C 0.25993 0.93722 0.5602 0.0
C1314 C 0.27645 0.9436 0.56525 0.0
C1315 C 0.28811 0.94839 0.55322 0.0
C1316 C 0.3037 0.95424 0.55799 0.0
C1317 C 0.30778 0.95542 0.57476 0.0
C1318 C 0.29627 0.95075 0.58681 0.0
C1319 C 0.28066 0.94489 0.58212 0.0
H1320 H 0.31986 0.95994 0.57842 0.0
H1321 H 0.16819 0.90362 0.53203 0.0
H1322 H 0.02198 0.19485 0.59055 0.0
H1323 H 0.03193 0.21689 0.57206 0.0
H1324 H 0.07997 0.2147 0.59521 0.0
H1325 H 0.07037 0.19262 0.61343 0.0
H1326 H 0.05618 0.24766 0.59481 0.0
H1327 H 0.08529 0.20353 0.56347 0.0
H1328 H 0.08497 0.17804 0.54665 0.0
H1329 H 0.05187 0.20102 0.51195 0.0
H1330 H 0.05184 0.22657 0.52872 0.0
H1331 H 0.12223 0.29468 0.56761 0.0
H1332 H 0.1017 0.27501 0.57737 0.0
H1333 H 0.07693 0.27692 0.53003 0.0
H1334 H 0.09795 0.29642 0.51992 0.0
H1335 H 0.08126 0.24604 0.53875 0.0
H1336 H 0.05809 0.29237 0.56567 0.0
H1337 H 0.05731 0.31817 0.58195 0.0
H1338 H 0.07628 0.29236 0.62439 0.0
H1339 H 0.07741 0.26645 0.60832 0.0
C1340 C 0.0348 0.19873 0.59135 0.0
C1341 C 0.04536 0.1921 0.60354 0.0
C1342 C 0.04042 0.21132 0.58082 0.0
C1343 C 0.05662 0.21737 0.5824 0.0
C1344 C 0.06743 0.21011 0.59385 0.0
C1345 C 0.06191 0.19748 0.60422 0.0
C1346 C 0.06194 0.2325 0.5737 0.0
C1347 C 0.06164 0.24742 0.58253 0.0
C1348 C 0.06833 0.23217 0.55747 0.0
C1349 C 0.06836 0.21683 0.54747 0.0
C1350 C 0.07779 0.20306 0.55237 0.0
C1351 C 0.07771 0.18863 0.54281 0.0
C1352 C 0.06835 0.18788 0.52828 0.0
C1353 C 0.05908 0.20159 0.52323 0.0
C1354 C 0.05911 0.21605 0.53275 0.0
C1355 C 0.11226 0.2912 0.55933 0.0
C1356 C 0.11174 0.29708 0.54297 0.0
C1357 C 0.10042 0.27999 0.56498 0.0
C1358 C 0.08761 0.27461 0.55451 0.0
C1359 C 0.08667 0.28095 0.53834 0.0
C1360 C 0.09863 0.29214 0.53261 0.0
C1361 C 0.07634 0.26124 0.5602 0.0
C1362 C 0.07542 0.24659 0.55083 0.0
C1363 C 0.06861 0.26189 0.57593 0.0
C1364 C 0.06787 0.27744 0.58574 0.0
C1365 C 0.06218 0.2922 0.57845 0.0
C1366 C 0.06167 0.30685 0.58765 0.0
C1367 C 0.06675 0.3069 0.60419 0.0
C1368 C 0.07233 0.29229 0.61158 0.0
C1369 C 0.07287 0.27761 0.60243 0.0
H1370 H 0.06635 0.31826 0.61129 0.0
H1371 H 0.06831 0.1767 0.52089 0.0
H1372 H 0.80396 0.06104 0.5978 0.0
H1373 H 0.78333 0.07156 0.57834 0.0
H1374 H 0.76019 0.0234 0.57661 0.0
H1375 H 0.78128 0.01263 0.59551 0.0
H1376 H 0.75538 0.03944 0.54781 0.0
H1377 H 0.74784 0.05071 0.60533 0.0
H1378 H 0.75595 0.06043 0.63313 0.0
H1379 H 0.7629 0.10963 0.61419 0.0
H1380 H 0.75507 0.10014 0.58621 0.0
H1381 H 0.67944 0.1019 0.55586 0.0
H1382 H 0.69804 0.08073 0.56681 0.0
H1383 H 0.72689 0.08296 0.52181 0.0
H1384 H 0.70764 0.1033 0.51047 0.0
H1385 H 0.72701 0.08673 0.57478 0.0
H1386 H 0.75264 0.05048 0.51765 0.0
H1387 H 0.74211 0.0381 0.49179 0.0
H1388 H 0.6935 0.03426 0.51302 0.0
H1389 H 0.70377 0.04639 0.53909 0.0
C1390 C 0.79482 0.05257 0.59281 0.0
C1391 C 0.79402 0.03611 0.59833 0.0
C1392 C 0.78302 0.05859 0.58174 0.0
C1393 C 0.76994 0.04838 0.57646 0.0
C1394 C 0.7701 0.03151 0.58063 0.0
C1395 C 0.78215 0.02538 0.59144 0.0
C1396 C 0.75503 0.05583 0.56882 0.0
C1397 C 0.74914 0.0498 0.55362 0.0
C1398 C 0.74648 0.06886 0.5768 0.0
C1399 C 0.75101 0.07468 0.59365 0.0
C1400 C 0.75119 0.06358 0.60708 0.0
C1401 C 0.75573 0.06905 0.62287 0.0
C1402 C 0.75997 0.08563 0.62542 0.0
C1403 C 0.75963 0.09679 0.61219 0.0
C1404 C 0.75514 0.09137 0.59636 0.0
C1405 C 0.68943 0.09741 0.54812 0.0
C1406 C 0.69219 0.10423 0.53239 0.0
C1407 C 0.7001 0.08537 0.55439 0.0
C1408 C 0.71399 0.08028 0.54522 0.0
C1409 C 0.71615 0.08639 0.52906 0.0
C1410 C 0.70517 0.0981 0.5226 0.0
C1411 C 0.72735 0.07065 0.55343 0.0
C1412 C 0.73304 0.0763 0.56886 0.0
C1413 C 0.73523 0.05691 0.5459 0.0
C1414 C 0.72897 0.04948 0.53029 0.0
C1415 C 0.73972 0.04692 0.51684 0.0
C1416 C 0.73379 0.03996 0.50213 0.0
C1417 C 0.71714 0.03544 0.50075 0.0
C1418 C 0.70639 0.03783 0.51409 0.0
C1419 C 0.71225 0.04477 0.52882 0.0
H1420 H 0.71257 0.03006 0.48935 0.0
H1421 H 0.76348 0.08984 0.63765 0.0
H1422 H 0.89304 0.69848 0.50878 0.0
H1423 H 0.91499 0.71865 0.51452 0.0
H1424 H 0.90905 0.71009 0.56693 0.0
H1425 H 0.88719 0.69003 0.56131 0.0
H1426 H 0.9086 0.74686 0.53114 0.0
H1427 H 0.94374 0.71768 0.58732 0.0
H1428 H 0.95506 0.69052 0.59536 0.0
H1429 H 0.95854 0.67652 0.54419 0.0
H1430 H 0.94748 0.70369 0.5358 0.0
H1431 H 0.92328 0.79632 0.59975 0.0
H1432 H 0.91655 0.77735 0.57731 0.0
H1433 H 0.96853 0.77183 0.56618 0.0
H1434 H 0.97539 0.79083 0.58881 0.0
H1435 H 0.95431 0.74264 0.57195 0.0
H1436 H 0.94284 0.78779 0.53682 0.0
H1437 H 0.93165 0.81493 0.52851 0.0
H1438 H 0.8821 0.79713 0.53618 0.0
H1439 H 0.89298 0.76997 0.54478 0.0
C1440 C 0.89678 0.70053 0.5215 0.0
C1441 C 0.88832 0.6928 0.53462 0.0
C1442 C 0.90928 0.71209 0.52474 0.0
C1443 C 0.91367 0.71584 0.54113 0.0
C1444 C 0.90603 0.70723 0.55418 0.0
C1445 C 0.89347 0.69582 0.55096 0.0
C1446 C 0.92428 0.7303 0.54496 0.0
C1447 C 0.91881 0.74597 0.53983 0.0
C1448 C 0.93784 0.72907 0.55595 0.0
C1449 C 0.94474 0.71276 0.56093 0.0
C1450 C 0.94704 0.70888 0.57776 0.0
C1451 C 0.95338 0.69346 0.58239 0.0
C1452 C 0.9575 0.6818 0.5703 0.0
C1453 C 0.95531 0.68555 0.55355 0.0
C1454 C 0.94898 0.70095 0.54885 0.0
C1455 C 0.93327 0.79144 0.59225 0.0
C1456 C 0.94986 0.79492 0.59615 0.0
C1457 C 0.9294 0.78067 0.57933 0.0
C1458 C 0.94205 0.7732 0.57003 0.0
C1459 C 0.95859 0.7775 0.57319 0.0
C1460 C 0.96248 0.78838 0.58608 0.0
C1461 C 0.9379 0.75918 0.55895 0.0
C1462 C 0.94453 0.74358 0.56279 0.0
C1463 C 0.92545 0.76049 0.54671 0.0
C1464 C 0.91876 0.77681 0.54147 0.0
C1465 C 0.92956 0.78968 0.53683 0.0
C1466 C 0.92327 0.80507 0.53205 0.0
C1467 C 0.90617 0.80775 0.53182 0.0
C1468 C 0.89534 0.79503 0.53634 0.0
C1469 C 0.90157 0.77961 0.54113 0.0
H1470 H 0.90133 0.81968 0.52812 0.0
H1471 H 0.9624 0.66986 0.57391 0.0
H1472 H 0.46886 0.29683 0.10072 0.0
H1473 H 0.45923 0.27445 0.08243 0.0
H1474 H 0.4117 0.27497 0.1067 0.0
H1475 H 0.42094 0.29737 0.12467 0.0
H1476 H 0.43358 0.24287 0.10609 0.0
H1477 H 0.40849 0.28772 0.07321 0.0
H1478 H 0.41036 0.31306 0.05625 0.0
H1479 H 0.44346 0.28852 0.02267 0.0
H1480 H 0.44195 0.26309 0.03959 0.0
H1481 H 0.36847 0.19701 0.07408 0.0
H1482 H 0.38873 0.21612 0.08554 0.0
H1483 H 0.41702 0.21373 0.04024 0.0
H1484 H 0.3964 0.1948 0.02846 0.0
H1485 H 0.41247 0.2446 0.04843 0.0
H1486 H 0.43267 0.19804 0.0771 0.0
H1487 H 0.4322 0.17238 0.09363 0.0
H1488 H 0.41131 0.19883 0.13472 0.0
H1489 H 0.41137 0.22459 0.11837 0.0
C1490 C 0.45622 0.29247 0.10183 0.0
C1491 C 0.4457 0.29876 0.11422 0.0
C1492 C 0.45079 0.27968 0.09144 0.0
C1493 C 0.43485 0.27306 0.09341 0.0
C1494 C 0.42407 0.27994 0.1051 0.0
C1495 C 0.42938 0.29277 0.11531 0.0
C1496 C 0.42966 0.25799 0.08452 0.0
C1497 C 0.42896 0.24314 0.09348 0.0
C1498 C 0.42441 0.25833 0.06788 0.0
C1499 C 0.42531 0.27361 0.05779 0.0
C1500 C 0.41632 0.2878 0.06232 0.0
C1501 C 0.41727 0.30215 0.05269 0.0
C1502 C 0.42708 0.30242 0.03843 0.0
C1503 C 0.43591 0.28831 0.03375 0.0
C1504 C 0.43501 0.27393 0.04335 0.0
C1505 C 0.37916 0.20027 0.06664 0.0
C1506 C 0.38079 0.19446 0.05034 0.0
C1507 C 0.39082 0.21114 0.07326 0.0
C1508 C 0.40451 0.21626 0.06382 0.0
C1509 C 0.40657 0.20992 0.04776 0.0
C1510 C 0.39482 0.19907 0.04108 0.0
C1511 C 0.41555 0.22946 0.07027 0.0
C1512 C 0.41745 0.24402 0.0609 0.0
C1513 C 0.42214 0.22877 0.08651 0.0
C1514 C 0.42197 0.21327 0.09644 0.0
C1515 C 0.42785 0.19837 0.08962 0.0
C1516 C 0.42768 0.1838 0.09897 0.0
C1517 C 0.42172 0.18397 0.11521 0.0
C1518 C 0.41593 0.19871 0.12214 0.0
C1519 C 0.41606 0.21332 0.11284 0.0
H1520 H 0.4216 0.17268 0.12243 0.0
H1521 H 0.42779 0.31355 0.03099 0.0
H1522 H 0.39324 0.77523 0.97314 0.0
H1523 H 0.41382 0.75707 0.96074 0.0
H1524 H 0.41989 0.79153 0.92024 0.0
H1525 H 0.39828 0.80907 0.93208 0.0
H1526 H 0.41354 0.76473 0.90786 0.0
H1527 H 0.4528 0.77924 0.9485 0.0
H1528 H 0.46411 0.7852 0.97622 0.0
H1529 H 0.45495 0.73497 0.99108 0.0
H1530 H 0.44336 0.72875 0.96352 0.0
H1531 H 0.47945 0.701 0.88515 0.0
H1532 H 0.47175 0.72276 0.90482 0.0
H1533 H 0.42054 0.70787 0.90114 0.0
H1534 H 0.42806 0.68653 0.88112 0.0
H1535 H 0.45515 0.72799 0.93415 0.0
H1536 H 0.39772 0.74061 0.89259 0.0
H1537 H 0.38934 0.73675 0.86345 0.0
H1538 H 0.44033 0.73783 0.84836 0.0
H1539 H 0.44899 0.74192 0.87736 0.0
C1540 C 0.39938 0.77917 0.96187 0.0
C1541 C 0.39411 0.79342 0.95345 0.0
C1542 C 0.41126 0.76881 0.95481 0.0
C1543 C 0.41848 0.77283 0.93947 0.0
C1544 C 0.4144 0.78801 0.93197 0.0
C1545 C 0.40212 0.79809 0.93875 0.0
C1546 C 0.42781 0.76008 0.93002 0.0
C1547 C 0.42281 0.75693 0.91365 0.0
C1548 C 0.44013 0.74992 0.93731 0.0
C1549 C 0.44712 0.75355 0.95393 0.0
C1550 C 0.45309 0.76948 0.9577 0.0
C1551 C 0.45957 0.77291 0.97339 0.0
C1552 C 0.46023 0.76048 0.98541 0.0
C1553 C 0.45444 0.74459 0.98175 0.0
C1554 C 0.44794 0.74109 0.96608 0.0
C1555 C 0.46662 0.70206 0.88894 0.0
C1556 C 0.45428 0.69231 0.88141 0.0
C1557 C 0.46226 0.71448 0.90018 0.0
C1558 C 0.44555 0.71716 0.90408 0.0
C1559 C 0.43348 0.7062 0.898 0.0
C1560 C 0.43778 0.69399 0.8866 0.0
C1561 C 0.44032 0.73257 0.9125 0.0
C1562 C 0.44609 0.73612 0.92849 0.0
C1563 C 0.42915 0.74357 0.90471 0.0
C1564 C 0.424 0.74144 0.88717 0.0
C1565 C 0.40713 0.74011 0.88304 0.0
C1566 C 0.40233 0.73787 0.86655 0.0
C1567 C 0.41429 0.737 0.85407 0.0
C1568 C 0.43108 0.73844 0.85804 0.0
C1569 C 0.43594 0.74071 0.8745 0.0
H1570 H 0.41055 0.73524 0.84132 0.0
H1571 H 0.46524 0.76316 -0.00245 0.0
H1572 H 0.30522 0.4252 0.89052 0.0
H1573 H 0.28407 0.41635 0.91019 0.0
H1574 H 0.27063 0.46728 0.91884 0.0
H1575 H 0.29185 0.47627 0.89915 0.0
H1576 H 0.27257 0.42158 0.94227 0.0
H1577 H 0.22833 0.46838 0.9127 0.0
H1578 H 0.22648 0.48596 0.88773 0.0
H1579 H 0.25553 0.4508 0.86045 0.0
H1580 H 0.25729 0.43292 0.88516 0.0
H1581 H 0.19461 0.39676 0.97303 0.0
H1582 H 0.21548 0.41736 0.96527 0.0
H1583 H 0.21268 0.40109 0.91447 0.0
H1584 H 0.19176 0.38066 0.92204 0.0
H1585 H 0.2183 0.43401 0.91613 0.0
H1586 H 0.24003 0.38353 0.94042 0.0
H1587 H 0.24272 0.36264 0.96255 0.0
H1588 H 0.2599 0.4001 -0.00382 0.0
H1589 H 0.25708 0.42126 0.97428 0.0
C1590 C 0.29819 0.43455 0.89706 0.0
C1591 C 0.29994 0.45139 0.89306 0.0
C1592 C 0.28615 0.42948 0.90836 0.0
C1593 C 0.27561 0.44116 0.91569 0.0
C1594 C 0.27858 0.45809 0.91316 0.0
C1595 C 0.29073 0.4632 0.90194 0.0
C1596 C 0.25997 0.43541 0.92329 0.0
C1597 C 0.26066 0.42459 0.93683 0.0
C1598 C 0.24449 0.43902 0.91588 0.0
C1599 C 0.24312 0.44946 0.90083 0.0
C1600 C 0.23426 0.4644 0.90135 0.0
C1601 C 0.23322 0.47441 0.88724 0.0
C1602 C 0.24094 0.46954 0.87253 0.0
C1603 C 0.24961 0.45459 0.87186 0.0
C1604 C 0.25063 0.44452 0.88591 0.0
C1605 C 0.19809 0.39791 0.96012 0.0
C1606 C 0.19174 0.38693 0.94817 0.0
C1607 C 0.21005 0.40964 0.95574 0.0
C1608 C 0.21582 0.41053 0.93936 0.0
C1609 C 0.20842 0.40058 0.92718 0.0
C1610 C 0.1965 0.38886 0.93155 0.0
C1611 C 0.23087 0.42014 0.93514 0.0
C1612 C 0.23009 0.43157 0.92209 0.0
C1613 C 0.24633 0.4167 0.94269 0.0
C1614 C 0.24814 0.40399 0.95581 0.0
C1615 C 0.24426 0.38732 0.95258 0.0
C1616 C 0.24583 0.37543 0.96506 0.0
C1617 C 0.25143 0.38004 0.98078 0.0
C1618 C 0.25552 0.39655 0.98402 0.0
C1619 C 0.25394 0.40849 0.97158 0.0
H1620 H 0.25263 0.37082 0.99043 0.0
H1621 H 0.24017 0.47732 0.86164 0.0
H1622 H 0.60719 0.18903 0.92026 0.0
H1623 H 0.58624 0.20886 0.91128 0.0
H1624 H 0.57367 0.21885 0.96221 0.0
H1625 H 0.59459 0.19895 0.97133 0.0
H1626 H 0.5524 0.21659 0.91575 0.0
H1627 H 0.57546 0.26145 0.96531 0.0
H1628 H 0.59932 0.26516 0.98411 0.0
H1629 H 0.63104 0.24081 0.94908 0.0
H1630 H 0.60743 0.23721 0.93 0.0
H1631 H 0.51644 0.29306 0.89142 0.0
H1632 H 0.52447 0.27198 0.91176 0.0
H1633 H 0.57578 0.27877 0.89843 0.0
H1634 H 0.56793 0.29984 0.87835 0.0
H1635 H 0.57273 0.2726 0.93103 0.0
H1636 H 0.55185 0.24996 0.87877 0.0
H1637 H 0.53019 0.24619 0.85751 0.0
H1638 H 0.49742 0.22581 0.89413 0.0
H1639 H 0.51885 0.22963 0.91563 0.0
C1640 C 0.5996 0.19504 0.92954 0.0
C1641 C 0.60272 0.19267 0.9465 0.0
C1642 C 0.58757 0.2063 0.92439 0.0
C1643 C 0.57861 0.21546 0.93611 0.0
C1644 C 0.58055 0.21194 0.95301 0.0
C1645 C 0.59251 0.20056 0.95818 0.0
C1646 C 0.56965 0.23045 0.93066 0.0
C1647 C 0.55658 0.22885 0.91934 0.0
C1648 C 0.5753 0.24642 0.93518 0.0
C1649 C 0.58965 0.24887 0.94637 0.0
C1650 C 0.58755 0.25694 0.96162 0.0
C1651 C 0.60102 0.25903 0.97231 0.0
C1652 C 0.61667 0.25316 0.96782 0.0
C1653 C 0.6189 0.24529 0.95258 0.0
C1654 C 0.60548 0.24322 0.94183 0.0
C1655 C 0.52946 0.29037 0.89318 0.0
C1656 C 0.54156 0.29792 0.88316 0.0
C1657 C 0.53401 0.27829 0.90474 0.0
C1658 C 0.55069 0.27364 0.90639 0.0
C1659 C 0.56284 0.28215 0.89734 0.0
C1660 C 0.55832 0.29415 0.88581 0.0
C1661 C 0.55556 0.25879 0.91595 0.0
C1662 C 0.56801 0.26039 0.92797 0.0
C1663 C 0.54957 0.24283 0.91179 0.0
C1664 C 0.53685 0.24026 0.89882 0.0
C1665 C 0.53999 0.24475 0.88228 0.0
C1666 C 0.52777 0.2426 0.8702 0.0
C1667 C 0.51241 0.23584 0.87449 0.0
C1668 C 0.5093 0.2311 0.89084 0.0
C1669 C 0.52147 0.23324 0.90298 0.0
H1670 H 0.50293 0.23426 0.86515 0.0
H1671 H 0.62707 0.25475 0.97613 0.0
H1672 H 0.70949 0.52324 0.88762 0.0
H1673 H 0.72807 0.53546 0.90792 0.0
H1674 H 0.6983 0.57987 0.90849 0.0
H1675 H 0.68041 0.56805 0.88707 0.0
H1676 H 0.7267 0.58885 0.90399 0.0
H1677 H 0.70466 0.55259 0.94403 0.0
H1678 H 0.69469 0.52647 0.95631 0.0
H1679 H 0.7434 0.50563 0.95213 0.0
H1680 H 0.75364 0.53154 0.9396 0.0
H1681 H 0.7862 0.6064 0.97619 0.0
H1682 H 0.76357 0.58892 0.96613 0.0
H1683 H 0.78304 0.59239 0.91648 0.0
H1684 H 0.8052 0.61048 0.92635 0.0
H1685 H 0.75673 0.56137 0.95 0.0
H1686 H 0.75333 0.60118 0.88986 0.0
H1687 H 0.76048 0.62948 0.88078 0.0
H1688 H 0.75668 0.6468 0.93091 0.0
H1689 H 0.74928 0.61867 0.94024 0.0
C1690 C 0.70664 0.53544 0.89242 0.0
C1691 C 0.69361 0.54478 0.88572 0.0
C1692 C 0.71724 0.5424 0.90417 0.0
C1693 C 0.71465 0.55863 0.90987 0.0
C1694 C 0.70071 0.5674 0.90419 0.0
C1695 C 0.69042 0.56063 0.89203 0.0
C1696 C 0.72771 0.56721 0.91967 0.0
C1697 C 0.73306 0.58282 0.91417 0.0
C1698 C 0.73596 0.55965 0.93322 0.0
C1699 C 0.7299 0.54401 0.94077 0.0
C1700 C 0.71323 0.54241 0.94562 0.0
C1701 C 0.70753 0.52764 0.95265 0.0
C1702 C 0.7184 0.51439 0.95498 0.0
C1703 C 0.735 0.5159 0.95032 0.0
C1704 C 0.74076 0.53064 0.94328 0.0
C1705 C 0.78592 0.60302 0.96321 0.0
C1706 C 0.79726 0.60998 0.95197 0.0
C1707 C 0.77296 0.59305 0.95748 0.0
C1708 C 0.77134 0.58978 0.94049 0.0
C1709 C 0.7838 0.59516 0.92958 0.0
C1710 C 0.79652 0.6054 0.93523 0.0
C1711 C 0.75582 0.58254 0.93384 0.0
C1712 C 0.7501 0.56731 0.93995 0.0
C1713 C 0.7467 0.59075 0.92133 0.0
C1714 C 0.7509 0.60778 0.91576 0.0
C1715 C 0.75394 0.61105 0.89892 0.0
C1716 C 0.75805 0.62705 0.89374 0.0
C1717 C 0.75907 0.63992 0.90526 0.0
C1718 C 0.75593 0.63682 0.922 0.0
C1719 C 0.75179 0.62084 0.92724 0.0
H1720 H 0.76228 0.65229 0.90123 0.0
H1721 H 0.71396 0.50297 0.96042 0.0
H1722 H 0.51388 0.69351 0.0947 0.0
H1723 H 0.51966 0.71336 0.07251 0.0
H1724 H 0.57197 0.70952 0.08269 0.0
H1725 H 0.56631 0.68976 0.10481 0.0
H1726 H 0.53345 0.74316 0.0789 0.0
H1727 H 0.59415 0.71779 0.04898 0.0
H1728 H 0.60546 0.69101 0.03976 0.0
H1729 H 0.55617 0.6719 0.03371 0.0
H1730 H 0.54454 0.69864 0.04266 0.0
H1731 H 0.59808 0.79836 0.06388 0.0
H1732 H 0.57722 0.77776 0.07111 0.0
H1733 H 0.56848 0.76811 0.01929 0.0
H1734 H 0.58943 0.78879 0.01193 0.0
H1735 H 0.57709 0.74049 0.03577 0.0
H1736 H 0.53687 0.78232 0.04262 0.0
H1737 H 0.52538 0.80908 0.05169 0.0
H1738 H 0.53247 0.79522 0.10254 0.0
H1739 H 0.54424 0.76848 0.09379 0.0
C1740 C 0.52664 0.69652 0.09187 0.0
C1741 C 0.53965 0.6902 0.10157 0.0
C1742 C 0.52991 0.70791 0.07923 0.0
C1743 C 0.54622 0.7129 0.07595 0.0
C1744 C 0.55929 0.70569 0.08486 0.0
C1745 C 0.55604 0.69444 0.09756 0.0
C1746 C 0.54965 0.72719 0.06498 0.0
C1747 C 0.54279 0.74257 0.06926 0.0
C1748 C 0.56154 0.72632 0.05217 0.0
C1749 C 0.56847 0.71025 0.04655 0.0
C1750 C 0.58571 0.70793 0.04557 0.0
C1751 C 0.59218 0.69273 0.04042 0.0
C1752 C 0.58154 0.67975 0.03617 0.0
C1753 C 0.5644 0.68195 0.03704 0.0
C1754 C 0.55786 0.69712 0.04218 0.0
C1755 C 0.59135 0.79224 0.054 0.0
C1756 C 0.59549 0.79507 0.03735 0.0
C1757 C 0.57937 0.78051 0.05815 0.0
C1758 C 0.5713 0.77139 0.04573 0.0
C1759 C 0.57455 0.77504 0.02905 0.0
C1760 C 0.58647 0.7869 0.02488 0.0
C1761 C 0.56158 0.75654 0.05038 0.0
C1762 C 0.56733 0.74105 0.04499 0.0
C1763 C 0.54863 0.75731 0.06213 0.0
C1764 C 0.54148 0.77337 0.06752 0.0
C1765 C 0.53607 0.785 0.05573 0.0
C1766 C 0.5295 0.80017 0.06083 0.0
C1767 C 0.5282 0.80385 0.07768 0.0
C1768 C 0.53346 0.79235 0.08948 0.0
C1769 C 0.54006 0.77716 0.08446 0.0
H1770 H 0.52311 0.8156 0.0816 0.0
H1771 H 0.58658 0.668 0.0322 0.0
H1772 H 0.1863 0.60836 0.06727 0.0
H1773 H 0.20705 0.58819 0.07592 0.0
H1774 H 0.2144 0.57366 0.0251 0.0
H1775 H 0.19359 0.59388 0.01625 0.0
H1776 H 0.21548 0.55029 0.06645 0.0
H1777 H 0.24487 0.58608 0.02144 0.0
H1778 H 0.24487 0.61334 0.00752 0.0
H1779 H 0.24275 0.63768 0.05476 0.0
H1780 H 0.24265 0.61052 0.06889 0.0
H1781 H 0.29404 0.52334 0.09614 0.0
H1782 H 0.27389 0.53071 0.07463 0.0
H1783 H 0.27082 0.58016 0.09461 0.0
H1784 H 0.29102 0.57303 0.11577 0.0
H1785 H 0.2685 0.58124 0.06199 0.0
H1786 H 0.24413 0.54912 0.10703 0.0
H1787 H 0.24132 0.52429 0.12463 0.0
H1788 H 0.23098 0.49471 0.08165 0.0
H1789 H 0.23393 0.51937 0.06379 0.0
C1790 C 0.1919 0.60049 0.05797 0.0
C1791 C 0.18853 0.60287 0.04107 0.0
C1792 C 0.20368 0.58891 0.06294 0.0
C1793 C 0.21226 0.57959 0.05111 0.0
C1794 C 0.20782 0.58077 0.03437 0.0
C1795 C 0.19595 0.59232 0.02936 0.0
C1796 C 0.22783 0.5715 0.05608 0.0
C1797 C 0.22724 0.55667 0.06502 0.0
C1798 C 0.24296 0.58014 0.05457 0.0
C1799 C 0.2438 0.59637 0.04616 0.0
C1800 C 0.24449 0.59728 0.02882 0.0
C1801 C 0.24446 0.61268 0.0209 0.0
C1802 C 0.24381 0.62724 0.03025 0.0
C1803 C 0.24326 0.6264 0.04754 0.0
C1804 C 0.24328 0.61102 0.0555 0.0
C1805 C 0.28936 0.53589 0.09566 0.0
C1806 C 0.29394 0.54756 0.10776 0.0
C1807 C 0.27781 0.54005 0.08343 0.0
C1808 C 0.27066 0.5559 0.0832 0.0
C1809 C 0.27615 0.56785 0.09455 0.0
C1810 C 0.28766 0.56373 0.1067 0.0
C1811 C 0.25635 0.55982 0.07241 0.0
C1812 C 0.25707 0.57418 0.06264 0.0
C1813 C 0.24131 0.55077 0.07335 0.0
C1814 C 0.23946 0.53601 0.08408 0.0
C1815 C 0.24137 0.53729 0.10134 0.0
C1816 C 0.23974 0.52327 0.11136 0.0
C1817 C 0.23603 0.50792 0.10426 0.0
C1818 C 0.23389 0.5066 0.08713 0.0
C1819 C 0.23554 0.52059 0.07706 0.0
H1820 H 0.23477 0.49707 0.11203 0.0
H1821 H 0.24373 0.63915 0.02411 0.0
H1822 H 0.69263 0.42534 0.10167 0.0
H1823 H 0.71339 0.41763 0.0812 0.0
H1824 H 0.72304 0.46922 0.07117 0.0
H1825 H 0.70225 0.47707 0.09177 0.0
H1826 H 0.72252 0.42257 0.04892 0.0
H1827 H 0.76552 0.47326 0.0734 0.0
H1828 H 0.76799 0.49211 0.09736 0.0
H1829 H 0.74311 0.45658 0.12819 0.0
H1830 H 0.74074 0.43745 0.10447 0.0
H1831 H 0.79863 0.39801 0.01573 0.0
H1832 H 0.77894 0.41968 0.02336 0.0
H1833 H 0.78365 0.4059 0.07476 0.0
H1834 H 0.80336 0.38433 0.06729 0.0
H1835 H 0.77744 0.43907 0.07126 0.0
H1836 H 0.7561 0.38625 0.05158 0.0
H1837 H 0.75334 0.36384 0.031 0.0
H1838 H 0.73412 0.39846 -0.0045 0.0
H1839 H 0.73702 0.42112 0.01584 0.0
C1840 C 0.69876 0.43505 0.09472 0.0
C1841 C 0.69608 0.45179 0.09854 0.0
C1842 C 0.71058 0.43063 0.08296 0.0
C1843 C 0.71995 0.44287 0.07493 0.0
C1844 C 0.71603 0.45961 0.07739 0.0
C1845 C 0.70412 0.46406 0.08913 0.0
C1846 C 0.73541 0.43799 0.06645 0.0
C1847 C 0.73454 0.4265 0.05349 0.0
C1848 C 0.75108 0.44283 0.07271 0.0
C1849 C 0.75276 0.45407 0.08713 0.0
C1850 C 0.76063 0.46948 0.08531 0.0
C1851 C 0.76201 0.48019 0.09884 0.0
C1852 C 0.75565 0.47557 0.11427 0.0
C1853 C 0.74798 0.46017 0.11622 0.0
C1854 C 0.74662 0.44939 0.10274 0.0
C1855 C 0.79592 0.39998 0.02872 0.0
C1856 C 0.80225 0.38926 0.0409 0.0
C1857 C 0.78466 0.41236 0.03304 0.0
C1858 C 0.77962 0.41414 0.04957 0.0
C1859 C 0.78735 0.40468 0.06192 0.0
C1860 C 0.79856 0.3923 0.05762 0.0
C1861 C 0.76453 0.42358 0.05379 0.0
C1862 C 0.76547 0.43578 0.06609 0.0
C1863 C 0.74888 0.419 0.04729 0.0
C1864 C 0.74698 0.40539 0.03512 0.0
C1865 C 0.7514 0.38909 0.03934 0.0
C1866 C 0.7498 0.37635 0.02774 0.0
C1867 C 0.74361 0.37973 0.01193 0.0
C1868 C 0.73896 0.39586 0.00773 0.0
C1869 C 0.74058 0.40866 0.01929 0.0
H1870 H 0.74238 0.36986 0.00296 0.0
H1871 H 0.75669 0.4839 0.12472 0.0
H1872 H 0.98854 0.22343 0.32798 0.0
H1873 H -0.00326 0.24441 0.30776 0.0
H1874 H 0.96451 0.22196 0.27144 0.0
H1875 H 0.95573 0.20141 0.29186 0.0
H1876 H 0.01247 0.24226 0.28043 0.0
H1877 H 0.951 0.24996 0.24394 0.0
H1878 H 0.92088 0.24869 0.24894 0.0
H1879 H 0.92864 0.26061 0.30019 0.0
H1880 H 0.95878 0.26216 0.29544 0.0
H1881 H 0.02841 0.28266 0.20415 0.0
H1882 H 0.01988 0.26359 0.2261 0.0
H1883 H 0.98871 0.30161 0.24706 0.0
H1884 H -0.0034 0.32039 0.22471 0.0
H1885 H 0.97253 0.27468 0.24691 0.0
H1886 H 0.02713 0.28954 0.26458 0.0
H1887 H 0.05734 0.29338 0.26201 0.0
H1888 H 0.06342 0.24134 0.25307 0.0
H1889 H 0.03322 0.23722 0.25537 0.0
C1890 C 0.98309 0.2231 0.31572 0.0
C1891 C 0.97145 0.21088 0.31148 0.0
C1892 C 0.98782 0.23503 0.30417 0.0
C1893 C 0.98115 0.23486 0.28811 0.0
C1894 C 0.96956 0.22259 0.28385 0.0
C1895 C 0.96459 0.21082 0.2955 0.0
C1896 C 0.98666 0.24727 0.27575 0.0
C1897 C 0.00373 0.24939 0.27313 0.0
C1898 C 0.97529 0.25676 0.2664 0.0
C1899 C 0.95716 0.25601 0.26935 0.0
C1900 C 0.94627 0.25237 0.25626 0.0
C1901 C 0.92919 0.25159 0.25905 0.0
C1902 C 0.92285 0.25452 0.27488 0.0
C1903 C 0.93357 0.25828 0.28794 0.0
C1904 C 0.95065 0.25909 0.28521 0.0
C1905 C 0.01983 0.28694 0.21352 0.0
C1906 C 0.01315 0.30297 0.21277 0.0
C1907 C 0.01501 0.27608 0.22609 0.0
C1908 C 0.00379 0.28122 0.23836 0.0
C1909 C -0.00267 0.29733 0.23771 0.0
C1910 C 0.00188 0.30807 0.22498 0.0
C1911 C -0.00166 0.2697 0.25159 0.0
C1912 C 0.98128 0.26763 0.25427 0.0
C1913 C 0.00973 0.26066 0.26137 0.0
C1914 C 0.0279 0.2631 0.26 0.0
C1915 C 0.0349 0.27893 0.26194 0.0
C1916 C 0.05202 0.28116 0.26055 0.0
C1917 C 0.06229 0.26762 0.25733 0.0
C1918 C 0.05545 0.25182 0.25554 0.0
C1919 C 0.03834 0.24953 0.2569 0.0
H1920 H 0.07554 0.26937 0.25626 0.0
H1921 H 0.90963 0.2539 0.27702 0.0
H1922 H 0.76278 0.97869 0.32254 0.0
H1923 H 0.74293 0.98736 0.30127 0.0
H1924 H 0.77409 0.96632 0.2634 0.0
H1925 H 0.79379 0.95714 0.28462 0.0
H1926 H 0.75832 0.00731 0.26742 0.0
H1927 H 0.75047 0.9468 0.25672 0.0
H1928 H 0.7451 0.91856 0.2671 0.0
H1929 H 0.70107 0.93559 0.29156 0.0
H1930 H 0.70637 0.96399 0.28151 0.0
H1931 H 0.70948 0.02359 0.19597 0.0
H1932 H 0.72955 0.01358 0.21631 0.0
H1933 H 0.68945 -0.00286 0.24774 0.0
H1934 H 0.66946 0.00623 0.22693 0.0
H1935 H 0.71062 0.97438 0.24693 0.0
H1936 H 0.71484 0.03293 0.25581 0.0
H1937 H 0.71895 0.06225 0.24827 0.0
H1938 H 0.76795 0.05125 0.2308 0.0
H1939 H 0.76405 0.02183 0.23806 0.0
C1940 C 0.76526 0.97569 0.3097 0.0
C1941 C 0.77976 0.96723 0.30519 0.0
C1942 C 0.75395 0.98064 0.29762 0.0
C1943 C 0.7571 0.97737 0.28088 0.0
C1944 C 0.77144 0.96875 0.27632 0.0
C1945 C 0.78262 0.96352 0.28843 0.0
C1946 C 0.74578 0.98382 0.26817 0.0
C1947 C 0.74801 0.0001 0.26266 0.0
C1948 C 0.73211 0.97453 0.26258 0.0
C1949 C 0.72894 0.95751 0.26858 0.0
C1950 C 0.73977 0.94454 0.26448 0.0
C1951 C 0.73671 0.92851 0.27026 0.0
C1952 C 0.72279 0.92529 0.28004 0.0
C1953 C 0.71187 0.9381 0.28402 0.0
C1954 C 0.71489 0.95416 0.27829 0.0
C1955 C 0.705 0.01801 0.20732 0.0
C1956 C 0.68798 0.01567 0.20995 0.0
C1957 C 0.71646 0.01235 0.21898 0.0
C1958 C 0.71104 0.00475 0.23368 0.0
C1959 C 0.69396 0.00287 0.23647 0.0
C1960 C 0.68254 0.00813 0.22463 0.0
C1961 C 0.72309 -0.00194 0.24584 0.0
C1962 C 0.72096 0.9817 0.25142 0.0
C1963 C 0.73672 0.00746 0.2517 0.0
C1964 C 0.73909 0.02515 0.24732 0.0
C1965 C 0.72644 0.03675 0.25025 0.0
C1966 C 0.72874 0.05338 0.24605 0.0
C1967 C 0.74368 0.0586 0.23902 0.0
C1968 C 0.75637 0.04719 0.23622 0.0
C1969 C 0.75413 0.03054 0.24039 0.0
H1970 H 0.74544 0.07149 0.23578 0.0
H1971 H 0.72043 0.91287 0.28449 0.0
H1972 H 0.9945 0.66152 0.22941 0.0
H1973 H 0.00287 0.67901 0.25265 0.0
H1974 H 0.96818 0.71648 0.23692 0.0
H1975 H 0.95942 0.69883 0.21394 0.0
H1976 H 0.01765 0.70731 0.25185 0.0
H1977 H 0.9554 0.73944 0.26915 0.0
H1978 H 0.92567 0.73252 0.27059 0.0
H1979 H 0.93757 0.68103 0.27626 0.0
H1980 H 0.96736 0.68765 0.2751 0.0
H1981 H 0.03275 0.7834 0.29127 0.0
H1982 H 0.02377 0.76062 0.27356 0.0
H1983 H -0.00125 0.73804 0.31512 0.0
H1984 H 0.00701 0.76132 0.33267 0.0
H1985 H 0.97965 0.73643 0.29027 0.0
H1986 H 0.03647 0.72259 0.2983 0.0
H1987 H 0.06667 0.72719 0.29894 0.0
H1988 H 0.06651 0.73746 0.24676 0.0
H1989 H 0.03628 0.73314 0.24585 0.0
C1990 C 0.98852 0.67341 0.23104 0.0
C1991 C 0.97636 0.67887 0.21986 0.0
C1992 C 0.99333 0.68339 0.24429 0.0
C1993 C 0.98612 0.69902 0.24657 0.0
C1994 C 0.97371 0.70434 0.23559 0.0
C1995 C 0.96876 0.69428 0.22242 0.0
C1996 C 0.99231 0.71019 0.25974 0.0
C1997 C 0.00935 0.7136 0.26034 0.0
C1998 C 0.98154 0.71813 0.27103 0.0
C1999 C 0.96363 0.71404 0.27189 0.0
C2000 C 0.95168 0.72665 0.27078 0.0
C2001 C 0.93481 0.72277 0.27153 0.0
C2002 C 0.92973 0.70634 0.27347 0.0
C2003 C 0.94151 0.69375 0.2747 0.0
C2004 C 0.95839 0.69755 0.27397 0.0
C2005 C 0.02547 0.77349 0.29665 0.0
C2006 C 0.02059 0.77407 0.31331 0.0
C2007 C 0.0204 0.76042 0.28654 0.0
C2008 C 0.01078 0.74745 0.29305 0.0
C2009 C 0.00614 0.7479 0.3098 0.0
C2010 C 0.01091 0.76116 0.31983 0.0
C2011 C 0.00497 0.73381 0.28219 0.0
C2012 C 0.98799 0.72999 0.28195 0.0
C2013 C 0.01587 0.72513 0.27156 0.0
C2014 C 0.03408 0.72765 0.27204 0.0
C2015 C 0.04286 0.72593 0.28698 0.0
C2016 C 0.05999 0.72847 0.28739 0.0
C2017 C 0.0685 0.73264 0.27291 0.0
C2018 C 0.0599 0.73424 0.25798 0.0
C2019 C 0.04277 0.73172 0.2575 0.0
H2020 H 0.08176 0.73461 0.27326 0.0
H2021 H 0.91667 0.70337 0.27404 0.0
H2022 H 0.20083 0.03825 0.28889 0.0
H2023 H 0.21965 0.02938 0.26685 0.0
H2024 H 0.24594 -0.00142 0.30172 0.0
H2025 H 0.22692 0.00701 0.32365 0.0
H2026 H 0.25179 0.03023 0.26057 0.0
H2027 H 0.25517 0.96212 0.28426 0.0
H2028 H 0.23768 0.94249 0.29987 0.0
H2029 H 0.19407 0.9689 0.28484 0.0
H2030 H 0.21126 0.98852 0.26893 0.0
H2031 H 0.3178 0.99029 0.22135 0.0
H2032 H 0.2982 0.00068 0.24187 0.0
H2033 H 0.2597 0.97014 0.22072 0.0
H2034 H 0.27949 0.9592 0.20054 0.0
H2035 H 0.25704 0.96953 0.25243 0.0
H2036 H 0.26227 0.01224 0.21247 0.0
H2037 H 0.27673 0.03197 0.19417 0.0
H2038 H 0.29742 0.05657 0.23655 0.0
H2039 H 0.28327 0.03683 0.25511 0.0
C2040 C 0.21078 0.02978 0.29189 0.0
C2041 C 0.21231 0.02312 0.3079 0.0
C2042 C 0.22151 0.02473 0.2793 0.0
C2043 C 0.23393 0.01305 0.2826 0.0
C2044 C 0.23617 0.0073 0.29884 0.0
C2045 C 0.22536 0.01218 0.31136 0.0
C2046 C 0.244 0.00613 0.26896 0.0
C2047 C 0.25296 0.01697 0.25877 0.0
C2048 C 0.24501 0.98885 0.26625 0.0
C2049 C 0.23454 0.97688 0.27553 0.0
C2050 C 0.24185 0.96369 0.28422 0.0
C2051 C 0.23198 0.95257 0.29313 0.0
C2052 C 0.21478 0.95448 0.29339 0.0
C2053 C 0.2074 0.96747 0.28467 0.0
C2054 C 0.2172 0.9786 0.27572 0.0
C2055 C 0.30518 0.98572 0.22116 0.0
C2056 C 0.3001 0.97403 0.20933 0.0
C2057 C 0.29397 0.99174 0.2328 0.0
C2058 C 0.27739 0.98648 0.23258 0.0
C2059 C 0.27242 0.97443 0.22106 0.0
C2060 C 0.28371 0.96819 0.20956 0.0
C2061 C 0.2653 0.9936 0.24436 0.0
C2062 C 0.25588 0.9828 0.25418 0.0
C2063 C 0.26339 0.01093 0.24628 0.0
C2064 C 0.2718 0.02296 0.23518 0.0
C2065 C 0.26998 0.02179 0.21789 0.0
C2066 C 0.27812 0.03299 0.20747 0.0
C2067 C 0.28802 0.04549 0.21419 0.0
C2068 C 0.28976 0.04686 0.23136 0.0
C2069 C 0.28167 0.03569 0.24183 0.0
H2070 H 0.29432 0.05414 0.2061 0.0
H2071 H 0.20717 0.94588 0.30032 0.0
H2072 H 0.02989 0.69945 0.78255 0.0
H2073 H 0.02077 0.71906 0.76136 0.0
H2074 H 0.99029 0.68107 0.73926 0.0
H2075 H -0.00113 0.66163 0.76079 0.0
H2076 H 0.02262 0.72157 0.72957 0.0
H2077 H 0.95498 0.69718 0.72458 0.0
H2078 H 0.93423 0.68325 0.74221 0.0
H2079 H 0.95771 0.70283 0.78573 0.0
H2080 H 0.97844 0.71705 0.76837 0.0
H2081 H 0.98663 0.75838 0.65981 0.0
H2082 H -0.00496 0.73771 0.68023 0.0
H2083 H 0.96384 0.76099 0.71682 0.0
H2084 H 0.95492 0.78135 0.69627 0.0
H2085 H 0.9623 0.72917 0.72051 0.0
H2086 H 0.00586 0.76858 0.71524 0.0
H2087 H 0.0265 0.78577 0.70067 0.0
H2088 H 0.05109 0.74199 0.6833 0.0
H2089 H 0.03044 0.72452 0.69757 0.0
C2090 C 0.02135 0.69526 0.77308 0.0
C2091 C 0.01492 0.6791 0.77339 0.0
C2092 C 0.01616 0.70647 0.76098 0.0
C2093 C 0.00459 0.70163 0.74893 0.0
C2094 C -0.00112 0.6852 0.7487 0.0
C2095 C 0.00385 0.67408 0.76094 0.0
C2096 C -0.00187 0.71387 0.7369 0.0
C2097 C 0.00944 0.72321 0.72757 0.0
C2098 C 0.98092 0.71636 0.73463 0.0
C2099 C 0.96835 0.70803 0.74517 0.0
C2100 C 0.95566 0.69856 0.73791 0.0
C2101 C 0.94392 0.69061 0.74786 0.0
C2102 C 0.94469 0.69211 0.76508 0.0
C2103 C 0.95716 0.70163 0.77239 0.0
C2104 C 0.96892 0.70962 0.76251 0.0
C2105 C 0.98142 0.75896 0.67216 0.0
C2106 C 0.97024 0.77152 0.67652 0.0
C2107 C 0.9863 0.74721 0.68383 0.0
C2108 C 0.98035 0.74804 0.70014 0.0
C2109 C 0.96863 0.76016 0.70432 0.0
C2110 C 0.96356 0.77178 0.69258 0.0
C2111 C 0.98679 0.73663 0.71297 0.0
C2112 C 0.97548 0.72748 0.72247 0.0
C2113 C 0.00399 0.7348 0.71587 0.0
C2114 C 0.01651 0.74525 0.70735 0.0
C2115 C 0.01561 0.76262 0.70822 0.0
C2116 C 0.02731 0.77241 0.70003 0.0
C2117 C 0.04007 0.76498 0.69103 0.0
C2118 C 0.04118 0.74773 0.69025 0.0
C2119 C 0.02949 0.73788 0.6984 0.0
H2120 H 0.04912 0.77258 0.68469 0.0
H2121 H 0.93559 0.68593 0.77276 0.0
H2122 H 0.21041 -0.00205 0.6755 0.0
H2123 H 0.22988 0.00621 0.69711 0.0
H2124 H 0.23349 0.9554 0.71334 0.0
H2125 H 0.2135 0.94718 0.69214 0.0
H2126 H 0.22986 0.97434 0.73885 0.0
H2127 H 0.26514 0.97551 0.69123 0.0
H2128 H 0.27385 0.98323 0.663 0.0
H2129 H 0.27407 0.03457 0.67678 0.0
H2130 H 0.26515 0.02717 0.70506 0.0
H2131 H 0.3044 0.98193 0.78569 0.0
H2132 H 0.2846 0.97526 0.76374 0.0
H2133 H 0.27154 0.02685 0.75962 0.0
H2134 H 0.29112 0.03363 0.78189 0.0
H2135 H 0.27982 0.00863 0.72838 0.0
H2136 H 0.24496 0.00614 0.77678 0.0
H2137 H 0.23755 -0.00288 0.805 0.0
H2138 H 0.23823 0.94635 0.78928 0.0
H2139 H 0.2459 0.95506 0.761 0.0
C2140 C 0.21547 0.98852 0.68359 0.0
C2141 C 0.21045 0.97192 0.68216 0.0
C2142 C 0.22665 0.99325 0.69589 0.0
C2143 C 0.23329 0.9814 0.70675 0.0
C2144 C 0.2285 0.96476 0.70513 0.0
C2145 C 0.21713 0.96007 0.69298 0.0
C2146 C 0.24471 0.98643 0.72021 0.0
C2147 C 0.24089 0.98165 0.73649 0.0
C2148 C 0.25893 -0.00371 0.71721 0.0
C2149 C 0.26431 0.00079 0.70022 0.0
C2150 C 0.26692 0.98845 0.68821 0.0
C2151 C 0.27192 0.99278 0.6722 0.0
C2152 C 0.27447 0.00939 0.66809 0.0
C2153 C 0.27207 0.02171 0.67998 0.0
C2154 C 0.26705 0.01746 0.69601 0.0
C2155 C 0.29727 0.99185 0.78016 0.0
C2156 C 0.29924 0.00829 0.78548 0.0
C2157 C 0.28598 0.98801 0.76767 0.0
C2158 C 0.27667 0.00058 0.76017 0.0
C2159 C 0.27867 0.01703 0.76533 0.0
C2160 C 0.28976 0.02085 0.77806 0.0
C2161 C 0.26495 -0.00358 0.74682 0.0
C2162 C 0.26873 0.00136 0.73062 0.0
C2163 C 0.25085 0.98651 0.74984 0.0
C2164 C 0.24617 0.98125 0.76682 0.0
C2165 C 0.24369 0.99304 0.77938 0.0
C2166 C 0.2394 0.98799 0.79537 0.0
C2167 C 0.23746 0.97117 0.79894 0.0
C2168 C 0.23976 0.95937 0.7865 0.0
C2169 C 0.24406 0.96436 0.77048 0.0
H2170 H 0.23414 0.96728 0.81134 0.0
H2171 H 0.27834 0.01271 0.65569 0.0
H2172 H 0.03321 0.19778 0.69998 0.0
H2173 H 0.02498 0.21759 0.72133 0.0
H2174 H 0.9919 0.24124 0.68665 0.0
H2175 H -0.00029 0.22119 0.6654 0.0
H2176 H 0.02633 0.24975 0.72521 0.0
H2177 H 0.95694 0.25283 0.70601 0.0
H2178 H 0.93598 0.23495 0.69275 0.0
H2179 H 0.9626 0.19169 0.70838 0.0
H2180 H 0.98357 0.20929 0.72194 0.0
H2181 H 0.98906 0.3167 0.76659 0.0
H2182 H -0.00159 0.29702 0.74561 0.0
H2183 H 0.96939 0.2585 0.76879 0.0
H2184 H 0.95945 0.27833 0.78935 0.0
H2185 H 0.96641 0.25579 0.73747 0.0
H2186 H 0.01241 0.26168 0.77395 0.0
H2187 H 0.03369 0.27648 0.79012 0.0
H2188 H 0.05444 0.29624 0.7453 0.0
H2189 H 0.03313 0.28173 0.72887 0.0
C2190 C 0.02428 0.20729 0.69687 0.0
C2191 C 0.01694 0.20786 0.68111 0.0
C2192 C 0.01962 0.21861 0.70907 0.0
C2193 C 0.00762 0.23068 0.70564 0.0
C2194 C 0.00092 0.23178 0.68964 0.0
C2195 C 0.00543 0.22037 0.67751 0.0
C2196 C 0.00165 0.24174 0.71895 0.0
C2197 C 0.01324 0.2511 0.72789 0.0
C2198 C 0.9846 0.2431 0.72277 0.0
C2199 C 0.97192 0.2324 0.71483 0.0
C2200 C 0.95828 0.2395 0.70667 0.0
C2201 C 0.9464 0.22941 0.6991 0.0
C2202 C 0.94799 0.2122 0.69968 0.0
C2203 C 0.96142 0.20503 0.70789 0.0
C2204 C 0.97331 0.21506 0.7155 0.0
C2205 C 0.98464 0.30404 0.76715 0.0
C2206 C 0.97359 0.29899 0.77959 0.0
C2207 C 0.99006 0.29279 0.75523 0.0
C2208 C 0.98485 0.27621 0.75582 0.0
C2209 C 0.97359 0.27123 0.76811 0.0
C2210 C 0.96794 0.28255 0.77985 0.0
C2211 C 0.99106 0.26407 0.74357 0.0
C2212 C 0.97951 0.25448 0.7348 0.0
C2213 C 0.00819 0.26205 0.74037 0.0
C2214 C 0.02108 0.27074 0.75019 0.0
C2215 C 0.02144 0.26928 0.76755 0.0
C2216 C 0.03352 0.2776 0.77676 0.0
C2217 C 0.04539 0.28733 0.76874 0.0
C2218 C 0.04523 0.28872 0.75149 0.0
C2219 C 0.03316 0.28043 0.74223 0.0
H2220 H 0.05473 0.29376 0.7759 0.0
H2221 H 0.93879 0.20441 0.69379 0.0
H2222 H 0.76029 -0.00183 0.66038 0.0
H2223 H 0.73815 0.99136 0.67984 0.0
H2224 H 0.76161 0.02172 0.71711 0.0
H2225 H 0.78344 0.02908 0.69745 0.0
H2226 H 0.73928 0.97502 0.70689 0.0
H2227 H 0.73382 0.0363 0.74436 0.0
H2228 H 0.73614 0.0664 0.73967 0.0
H2229 H 0.72439 0.05957 0.68825 0.0
H2230 H 0.72177 0.02947 0.69268 0.0
H2231 H 0.70229 0.96004 0.78462 0.0
H2232 H 0.72013 0.96817 0.76155 0.0
H2233 H 0.6814 -0.00026 0.7426 0.0
H2234 H 0.66377 0.99215 0.76602 0.0
H2235 H 0.70886 0.0156 0.74145 0.0
H2236 H 0.6917 0.96188 0.72408 0.0
H2237 H 0.68681 0.93183 0.72648 0.0
H2238 H 0.73892 0.92368 0.73321 0.0
H2239 H 0.74411 0.95371 0.73107 0.0
C2240 C 0.7606 0.00356 0.67267 0.0
C2241 C 0.77355 0.01415 0.67743 0.0
C2242 C 0.74797 -0.00038 0.68378 0.0
C2243 C 0.74814 0.00609 0.69991 0.0
C2244 C 0.76101 0.01683 0.70463 0.0
C2245 C 0.77352 0.02098 0.69342 0.0
C2246 C 0.73534 0.00091 0.71202 0.0
C2247 C 0.73257 0.9839 0.71439 0.0
C2248 C 0.72635 0.01249 0.7216 0.0
C2249 C 0.72775 0.03061 0.71884 0.0
C2250 C 0.73166 0.04123 0.73207 0.0
C2251 C 0.73305 0.05829 0.72945 0.0
C2252 C 0.73047 0.06488 0.71366 0.0
C2253 C 0.72645 0.05444 0.70046 0.0
C2254 C 0.72504 0.03738 0.70302 0.0
C2255 C 0.69755 0.96861 0.77545 0.0
C2256 C 0.68168 0.97549 0.77708 0.0
C2257 C 0.70773 0.9732 0.76224 0.0
C2258 C 0.70204 0.98444 0.75024 0.0
C2259 C 0.68606 0.9911 0.75174 0.0
C2260 C 0.676 0.98672 0.76508 0.0
C2261 C 0.71297 0.98971 0.73645 0.0
C2262 C 0.71546 0.00672 0.73384 0.0
C2263 C 0.72132 0.97815 0.72629 0.0
C2264 C 0.71827 0.96007 0.72754 0.0
C2265 C 0.7021 0.95369 0.72618 0.0
C2266 C 0.69928 0.93666 0.72748 0.0
C2267 C 0.71254 0.92586 0.73003 0.0
C2268 C 0.72866 0.93206 0.73125 0.0
C2269 C 0.73155 0.94909 0.72998 0.0
H2270 H 0.71033 0.91267 0.73103 0.0
H2271 H 0.73155 0.07809 0.71166 0.0
H2272 H 0.22267 0.32381 0.99086 0.0
H2273 H 0.2441 0.3039 -0.00163 0.0
H2274 H 0.22512 0.26964 0.96201 0.0
H2275 H 0.20374 0.28965 0.95422 0.0
H2276 H 0.24005 0.27418 0.01153 0.0
H2277 H 0.2572 0.24555 0.94806 0.0
H2278 H 0.25893 0.25383 0.91869 0.0
H2279 H 0.26652 0.30444 0.9331 0.0
H2280 H 0.26506 0.29644 0.96254 0.0
H2281 H 0.2834 0.19917 0.02426 0.0
H2282 H 0.26389 0.22029 0.01489 0.0
H2283 H 0.30416 0.24778 0.99285 0.0
H2284 H 0.32361 0.22632 0.00161 0.0
H2285 H 0.27932 0.24752 0.97259 0.0
H2286 H 0.28566 0.25909 0.03074 0.0
H2287 H 0.28549 0.25255 0.06059 0.0
H2288 H 0.23395 0.23964 0.05776 0.0
H2289 H 0.23387 0.24591 0.02785 0.0
C2290 C 0.22315 0.31211 0.98434 0.0
C2291 C 0.21149 0.30825 0.972 0.0
C2292 C 0.23537 0.30073 0.98868 0.0
C2293 C 0.2362 0.28531 0.98075 0.0
C2294 C 0.22481 0.28155 0.96815 0.0
C2295 C 0.21259 0.29297 0.96375 0.0
C2296 C 0.24852 0.27293 0.98625 0.0
C2297 C 0.24866 0.26836 0.00302 0.0
C2298 C 0.25982 0.26547 0.97517 0.0
C2299 C 0.26084 0.27041 0.9575 0.0
C2300 C 0.25929 0.25844 0.94496 0.0
C2301 C 0.26022 0.26308 0.9283 0.0
C2302 C 0.26277 0.27966 0.92403 0.0
C2303 C 0.26447 0.29162 0.93642 0.0
C2304 C 0.26356 0.28704 0.95309 0.0
C2305 C 0.28809 0.20976 0.01749 0.0
C2306 C 0.30501 0.21117 0.01371 0.0
C2307 C 0.27694 0.22184 0.01217 0.0
C2308 C 0.28259 0.23574 0.00335 0.0
C2309 C 0.29951 0.23716 -0.00039 0.0
C2310 C 0.31062 0.22494 0.00468 0.0
C2311 C 0.27088 0.24876 -0.00211 0.0
C2312 C 0.27075 0.25336 0.98111 0.0
C2313 C 0.2598 0.25651 0.00903 0.0
C2314 C 0.25981 0.25283 0.02703 0.0
C2315 C 0.27432 0.25475 0.03647 0.0
C2316 C 0.27427 0.25111 0.0534 0.0
C2317 C 0.25973 0.24565 0.06106 0.0
C2318 C 0.24521 0.24386 0.05181 0.0
C2319 C 0.2452 0.24747 0.03487 0.0
H2320 H 0.25971 0.24283 0.07416 0.0
H2321 H 0.26348 0.28323 0.91113 0.0
H2322 H 0.20635 0.69916 0.03159 0.0
H2323 H 0.22821 0.71803 0.02232 0.0
H2324 H 0.24486 0.68154 0.98706 0.0
H2325 H 0.22291 0.66275 -0.00396 0.0
H2326 H 0.26102 0.71715 0.02142 0.0
H2327 H 0.25584 0.70081 0.95141 0.0
H2328 H 0.2346 0.69106 0.9317 0.0
H2329 H 0.1963 0.71126 0.96252 0.0
H2330 H 0.21731 0.72135 0.98226 0.0
H2331 H 0.32972 0.75234 0.98245 0.0
H2332 H 0.3085 0.73216 0.99013 0.0
H2333 H 0.27133 0.76194 0.96588 0.0
H2334 H 0.29268 0.78177 0.9575 0.0
H2335 H 0.26409 0.73113 0.96161 0.0
H2336 H 0.27844 0.76426 0.00845 0.0
H2337 H 0.29714 0.77721 0.02885 0.0
H2338 H 0.31242 0.72918 0.04573 0.0
H2339 H 0.29397 0.71594 0.02526 0.0
C2340 C 0.21477 0.69511 0.02197 0.0
C2341 C 0.21282 0.67957 0.01439 0.0
C2342 C 0.22725 0.70589 0.01671 0.0
C2343 C 0.23794 0.70128 0.00381 0.0
C2344 C 0.23651 0.68546 -0.00321 0.0
C2345 C 0.224 0.67472 0.00197 0.0
C2346 C 0.25029 0.71318 -0.00267 0.0
C2347 C 0.26173 0.72019 0.00835 0.0
C2348 C 0.25087 0.7175 0.98034 0.0
C2349 C 0.23816 0.71167 0.9684 0.0
C2350 C 0.24289 0.70323 0.95394 0.0
C2351 C 0.23089 0.69764 0.94277 0.0
C2352 C 0.21411 0.70049 0.94588 0.0
C2353 C 0.20929 0.709 0.96015 0.0
C2354 C 0.22125 0.71464 0.97134 0.0
C2355 C 0.31706 0.75441 0.97852 0.0
C2356 C 0.31278 0.76864 0.96952 0.0
C2357 C 0.30493 0.74295 0.983 0.0
C2358 C 0.28826 0.74578 0.97898 0.0
C2359 C 0.2841 0.75955 0.96921 0.0
C2360 C 0.2963 0.77086 0.96442 0.0
C2361 C 0.2751 0.73484 0.98565 0.0
C2362 C 0.26345 0.72805 0.97468 0.0
C2363 C 0.27395 0.7312 0.00278 0.0
C2364 C 0.28493 0.73911 0.01523 0.0
C2365 C 0.28586 0.75646 0.01645 0.0
C2366 C 0.29641 0.76385 0.02803 0.0
C2367 C 0.30599 0.75402 0.03855 0.0
C2368 C 0.305 0.73678 0.03756 0.0
C2369 C 0.29449 0.72932 0.02598 0.0
H2370 H 0.31415 0.75977 0.04751 0.0
H2371 H 0.20484 0.69613 0.93723 0.0
H2372 H 0.78778 0.28833 0.02884 0.0
H2373 H 0.76648 0.269 0.01909 0.0
H2374 H 0.73637 0.31002 0.00301 0.0
H2375 H 0.75786 0.32945 0.01225 0.0
H2376 H 0.72236 0.27671 0.02411 0.0
H2377 H 0.75 0.29959 0.97392 0.0
H2378 H 0.77576 0.30646 0.95897 0.0
H2379 H 0.79185 0.25598 0.96309 0.0
H2380 H 0.76629 0.2489 0.97835 0.0
H2381 H 0.66264 0.23469 0.97739 0.0
H2382 H 0.68208 0.25602 0.98668 0.0
H2383 H 0.72309 0.224 0.97441 0.0
H2384 H 0.70369 0.20316 0.96411 0.0
H2385 H 0.7321 0.25315 0.96816 0.0
H2386 H 0.70678 0.22812 0.01521 0.0
H2387 H 0.68393 0.2184 0.03301 0.0
H2388 H 0.66661 0.26835 0.03844 0.0
H2389 H 0.68925 0.27835 0.02048 0.0
C2390 C 0.77649 0.29323 0.02351 0.0
C2391 C 0.77443 0.31034 0.0212 0.0
C2392 C 0.7644 0.2822 0.01793 0.0
C2393 C 0.75002 0.28818 0.0103 0.0
C2394 C 0.74747 0.30527 0.00887 0.0
C2395 C 0.75971 0.3163 0.01411 0.0
C2396 C 0.73821 0.27654 0.00274 0.0
C2397 C 0.72425 0.2717 0.01179 0.0
C2398 C 0.74124 0.2696 0.98699 0.0
C2399 C 0.75634 0.27377 0.97741 0.0
C2400 C 0.7591 0.29 0.97176 0.0
C2401 C 0.77365 0.29392 0.96321 0.0
C2402 C 0.78546 0.28168 0.96012 0.0
C2403 C 0.78271 0.26546 0.96551 0.0
C2404 C 0.76819 0.26148 0.9741 0.0
C2405 C 0.67583 0.23237 0.97647 0.0
C2406 C 0.68172 0.21731 0.97017 0.0
C2407 C 0.68692 0.24448 0.98189 0.0
C2408 C 0.70406 0.24144 0.98172 0.0
C2409 C 0.70994 0.22663 0.97475 0.0
C2410 C 0.69886 0.21472 0.96888 0.0
C2411 C 0.7158 0.25336 0.98937 0.0
C2412 C 0.72993 0.25819 0.98042 0.0
C2413 C 0.71318 0.2599 0.00547 0.0
C2414 C 0.69961 0.25396 0.01637 0.0
C2415 C 0.69804 0.23702 0.02012 0.0
C2416 C 0.68513 0.23146 0.03024 0.0
C2417 C 0.6738 0.24275 0.03681 0.0
C2418 C 0.67538 0.25962 0.03332 0.0
C2419 C 0.68826 0.26524 0.02318 0.0
H2420 H 0.66381 0.23842 0.04465 0.0
H2421 H 0.79673 0.28474 0.95353 0.0
H2422 H 0.76729 0.66643 -0.00473 0.0
H2423 H 0.74306 0.68279 0.00284 0.0
H2424 H 0.75923 0.72187 0.97009 0.0
H2425 H 0.78321 0.70524 0.96201 0.0
H2426 H 0.74115 0.71041 0.01824 0.0
H2427 H 0.72678 0.74377 0.95595 0.0
H2428 H 0.7282 0.73803 0.92598 0.0
H2429 H 0.72478 0.68584 0.93555 0.0
H2430 H 0.72308 0.69127 0.96555 0.0
H2431 H 0.69492 0.78293 0.03204 0.0
H2432 H 0.71492 0.76167 0.02432 0.0
H2433 H 0.67742 0.73686 -0.0047 0.0
H2434 H 0.65759 0.75861 0.00237 0.0
H2435 H 0.70379 0.73823 0.97823 0.0
H2436 H 0.69225 0.72125 0.03353 0.0
H2437 H 0.68875 0.72427 0.06371 0.0
H2438 H 0.73981 0.73842 0.06852 0.0
H2439 H 0.74357 0.7357 0.03833 0.0
C2440 C 0.76558 0.67845 0.98957 0.0
C2441 C 0.77711 0.6846 0.97806 0.0
C2442 C 0.75176 0.68779 0.99393 0.0
C2443 C 0.74927 0.70351 0.98698 0.0
C2444 C 0.76072 0.70964 0.97538 0.0
C2445 C 0.77445 0.70017 0.97082 0.0
C2446 C 0.7351 0.71377 0.99245 0.0
C2447 C 0.73292 0.71643 0.00949 0.0
C2448 C 0.72414 0.72132 0.98107 0.0
C2449 C 0.72496 0.71794 0.96301 0.0
C2450 C 0.72625 0.73108 0.95165 0.0
C2451 C 0.72712 0.72787 0.93466 0.0
C2452 C 0.72663 0.71158 0.92887 0.0
C2453 C 0.72521 0.69845 0.94005 0.0
C2454 C 0.72432 0.70159 0.95706 0.0
C2455 C 0.6909 0.77283 0.02419 0.0
C2456 C 0.67474 0.77238 0.01779 0.0
C2457 C 0.70232 0.76063 0.01983 0.0
C2458 C 0.69763 0.74754 0.00937 0.0
C2459 C 0.68133 0.74686 0.00334 0.0
C2460 C 0.67001 0.75924 0.00743 0.0
C2461 C 0.70998 0.73507 0.00402 0.0
C2462 C 0.71188 0.73207 0.987 0.0
C2463 C 0.72035 0.72677 0.01545 0.0
C2464 C 0.71815 0.72839 0.03364 0.0
C2465 C 0.70271 0.72511 0.04101 0.0
C2466 C 0.70068 0.72675 0.05812 0.0
C2467 C 0.71404 0.73156 0.06802 0.0
C2468 C 0.72947 0.7347 0.06083 0.0
C2469 C 0.73156 0.7331 0.04372 0.0
H2470 H 0.71245 0.73282 0.08127 0.0
H2471 H 0.72731 0.70913 0.91571 0.0
H2472 H 0.49933 0.71883 0.81689 0.0
H2473 H 0.50604 0.74253 0.79933 0.0
H2474 H 0.46159 0.73412 0.77086 0.0
H2475 H 0.45484 0.71026 0.7883 0.0
H2476 H 0.48813 0.73866 0.75118 0.0
H2477 H 0.46333 0.76588 0.79732 0.0
H2478 H 0.45907 0.7725 0.82682 0.0
H2479 H 0.50883 0.79104 0.83013 0.0
H2480 H 0.51348 0.78427 0.80071 0.0
H2481 H 0.49295 0.83033 0.72582 0.0
H2482 H 0.48502 0.80947 0.74629 0.0
H2483 H 0.52688 0.77954 0.73206 0.0
H2484 H 0.53477 0.80022 0.71139 0.0
H2485 H 0.4994 0.79501 0.77303 0.0
H2486 H 0.51412 0.73943 0.73034 0.0
H2487 H 0.51618 0.73324 0.70048 0.0
H2488 H 0.48198 0.77246 0.68968 0.0
H2489 H 0.47951 0.7787 0.71948 0.0
C2490 C 0.49094 0.72207 0.80694 0.0
C2491 C 0.47658 0.71268 0.80394 0.0
C2492 C 0.49476 0.73565 0.79698 0.0
C2493 C 0.48425 0.74012 0.78389 0.0
C2494 C 0.46984 0.73085 0.78092 0.0
C2495 C 0.466 0.71727 0.79091 0.0
C2496 C 0.48864 0.75411 0.77292 0.0
C2497 C 0.49057 0.75098 0.75596 0.0
C2498 C 0.49158 0.77022 0.77916 0.0
C2499 C 0.4888 0.77443 0.79683 0.0
C2500 C 0.47341 0.77125 0.80437 0.0
C2501 C 0.47091 0.77505 0.82107 0.0
C2502 C 0.48368 0.78216 0.83035 0.0
C2503 C 0.49896 0.78552 0.82293 0.0
C2504 C 0.50153 0.78171 0.80624 0.0
C2505 C 0.50058 0.81939 0.72718 0.0
C2506 C 0.51435 0.81678 0.71685 0.0
C2507 C 0.49606 0.80753 0.73892 0.0
C2508 C 0.50522 0.79288 0.74048 0.0
C2509 C 0.51952 0.79067 0.73084 0.0
C2510 C 0.52403 0.80251 0.71908 0.0
C2511 C 0.49921 0.77944 0.75137 0.0
C2512 C 0.49697 0.78267 0.76829 0.0
C2513 C 0.49564 0.76349 0.74506 0.0
C2514 C 0.49678 0.75963 0.72713 0.0
C2515 C 0.50698 0.74667 0.72159 0.0
C2516 C 0.50822 0.74317 0.70468 0.0
C2517 C 0.49925 0.75249 0.69319 0.0
C2518 C 0.48896 0.76529 0.69859 0.0
C2519 C 0.48765 0.76882 0.71549 0.0
H2520 H 0.50026 0.74977 0.6801 0.0
H2521 H 0.48173 0.78509 0.84328 0.0
H2522 H 0.28274 0.4553 0.79525 0.0
H2523 H 0.26157 0.46368 0.7753 0.0
H2524 H 0.23894 0.49482 0.81234 0.0
H2525 H 0.26033 0.48683 0.83221 0.0
H2526 H 0.22918 0.46245 0.77238 0.0
H2527 H 0.22677 0.53072 0.79471 0.0
H2528 H 0.24489 0.55092 0.80882 0.0
H2529 H 0.2879 0.52513 0.79121 0.0
H2530 H 0.27005 0.50494 0.7768 0.0
H2531 H 0.16373 0.5009 0.72997 0.0
H2532 H 0.18221 0.49202 0.75223 0.0
H2533 H 0.22202 0.52044 0.73057 0.0
H2534 H 0.20338 0.52989 0.70865 0.0
H2535 H 0.22377 0.52285 0.76236 0.0
H2536 H 0.21809 0.47798 0.72426 0.0
H2537 H 0.20317 0.4575 0.7072 0.0
H2538 H 0.182 0.43598 0.751 0.0
H2539 H 0.19663 0.45649 0.76832 0.0
C2540 C 0.2731 0.46374 0.79921 0.0
C2541 C 0.27329 0.47062 0.81518 0.0
C2542 C 0.26101 0.4685 0.78781 0.0
C2543 C 0.2489 0.48013 0.79225 0.0
C2544 C 0.24841 0.48612 0.80856 0.0
C2545 C 0.26059 0.48151 0.8199 0.0
C2546 C 0.23746 0.48676 0.77956 0.0
C2547 C 0.22792 0.47565 0.77023 0.0
C2548 C 0.23621 0.50397 0.77645 0.0
C2549 C 0.24706 0.51622 0.78484 0.0
C2550 C 0.24009 0.52941 0.7938 0.0
C2551 C 0.25031 0.54084 0.80185 0.0
C2552 C 0.26753 0.53927 0.80096 0.0
C2553 C 0.27456 0.5263 0.79195 0.0
C2554 C 0.2644 0.51485 0.78384 0.0
C2555 C 0.17638 0.50538 0.73007 0.0
C2556 C 0.18219 0.51596 0.71754 0.0
C2557 C 0.18694 0.50024 0.74274 0.0
C2558 C 0.2036 0.50527 0.74285 0.0
C2559 C 0.20924 0.51636 0.73069 0.0
C2560 C 0.19859 0.52174 0.71817 0.0
C2561 C 0.21527 0.49855 0.75531 0.0
C2562 C 0.2249 0.50965 0.76459 0.0
C2563 C 0.21706 0.48129 0.75793 0.0
C2564 C 0.20833 0.46887 0.74757 0.0
C2565 C 0.21017 0.46895 0.73025 0.0
C2566 C 0.20177 0.45733 0.72053 0.0
C2567 C 0.19161 0.44547 0.72801 0.0
C2568 C 0.18986 0.44519 0.74522 0.0
C2569 C 0.1982 0.4568 0.755 0.0
H2570 H 0.18513 0.43648 0.72047 0.0
H2571 H 0.27542 0.54812 0.80722 0.0
H2572 H 0.48988 0.27916 0.81316 0.0
H2573 H 0.48346 0.25537 0.79571 0.0
H2574 H 0.53457 0.25294 0.78017 0.0
H2575 H 0.54092 0.27723 0.79715 0.0
H2576 H 0.51595 0.24939 0.75469 0.0
H2577 H 0.51734 0.22409 0.8077 0.0
H2578 H 0.51099 0.22036 0.83732 0.0
H2579 H 0.45937 0.21454 0.82583 0.0
H2580 H 0.4654 0.21839 0.79612 0.0
H2581 H 0.50665 0.16907 0.71901 0.0
H2582 H 0.51436 0.18934 0.74018 0.0
H2583 H 0.46398 0.20686 0.7419 0.0
H2584 H 0.45619 0.18688 0.72037 0.0
H2585 H 0.48355 0.20117 0.77492 0.0
H2586 H 0.48425 0.22885 0.72094 0.0
H2587 H 0.49282 0.23075 0.69168 0.0
H2588 H 0.54395 0.22991 0.70635 0.0
H2589 H 0.53564 0.22773 0.7357 0.0
C2590 C 0.49977 0.27351 0.80608 0.0
C2591 C 0.5159 0.28003 0.80649 0.0
C2592 C 0.49611 0.25984 0.7962 0.0
C2593 C 0.50859 0.25218 0.78684 0.0
C2594 C 0.52475 0.25863 0.78731 0.0
C2595 C 0.52837 0.27248 0.79702 0.0
C2596 C 0.50457 0.23792 0.776 0.0
C2597 C 0.5091 0.23875 0.75924 0.0
C2598 C 0.49552 0.22405 0.78184 0.0
C2599 C 0.49181 0.22167 0.79969 0.0
C2600 C 0.50461 0.22213 0.8115 0.0
C2601 C 0.50108 0.21998 0.82831 0.0
C2602 C 0.48478 0.21727 0.83347 0.0
C2603 C 0.47199 0.21666 0.82182 0.0
C2604 C 0.47546 0.21879 0.80498 0.0
C2605 C 0.49716 0.17709 0.72405 0.0
C2606 C 0.48084 0.17652 0.71799 0.0
C2607 C 0.50159 0.18862 0.73612 0.0
C2608 C 0.48971 0.19952 0.74249 0.0
C2609 C 0.47325 0.19846 0.7371 0.0
C2610 C 0.46886 0.18713 0.72478 0.0
C2611 C 0.49479 0.21289 0.7538 0.0
C2612 C 0.49048 0.21183 0.77056 0.0
C2613 C 0.50435 0.22638 0.74808 0.0
C2614 C 0.50933 0.22793 0.73047 0.0
C2615 C 0.49731 0.22891 0.71791 0.0
C2616 C 0.50212 0.23007 0.70131 0.0
C2617 C 0.51892 0.2304 0.69715 0.0
C2618 C 0.53094 0.22963 0.70959 0.0
C2619 C 0.52619 0.22844 0.7262 0.0
H2620 H 0.52262 0.23129 0.6843 0.0
H2621 H 0.48206 0.21561 0.84649 0.0
H2622 H 0.82933 0.48364 0.72945 0.0
H2623 H 0.80914 0.49309 0.75005 0.0
H2624 H 0.76971 0.4705 0.72199 0.0
H2625 H 0.78987 0.46053 0.70158 0.0
H2626 H 0.77273 0.5112 0.73394 0.0
H2627 H 0.76782 0.45188 0.74848 0.0
H2628 H 0.78027 0.42508 0.75617 0.0
H2629 H 0.80424 0.44788 0.79783 0.0
H2630 H 0.79211 0.47487 0.79021 0.0
H2631 H 0.70285 0.52727 0.78455 0.0
H2632 H 0.72345 0.5174 0.76477 0.0
H2633 H 0.75745 0.50782 0.80497 0.0
H2634 H 0.73637 0.51664 0.82483 0.0
H2635 H 0.75782 0.48304 0.78648 0.0
H2636 H 0.76194 0.54102 0.77523 0.0
H2637 H 0.75215 0.56911 0.7684 0.0
H2638 H 0.73311 0.55151 0.72196 0.0
H2639 H 0.7426 0.52326 0.7286 0.0
C2640 C 0.81639 0.48045 0.72784 0.0
C2641 C 0.81112 0.47135 0.71399 0.0
C2642 C 0.80493 0.48585 0.73957 0.0
C2643 C 0.78806 0.48242 0.73745 0.0
C2644 C 0.78275 0.47311 0.7238 0.0
C2645 C 0.79425 0.4674 0.71223 0.0
C2646 C 0.77593 0.48948 0.74901 0.0
C2647 C 0.7692 0.50502 0.74535 0.0
C2648 C 0.77201 0.4816 0.76407 0.0
C2649 C 0.77926 0.4654 0.76864 0.0
C2650 C 0.77591 0.45121 0.75915 0.0
C2651 C 0.78286 0.43598 0.76353 0.0
C2652 C 0.79309 0.43479 0.77744 0.0
C2653 C 0.79635 0.44882 0.78704 0.0
C2654 C 0.78943 0.46408 0.7827 0.0
C2655 C 0.71483 0.5233 0.7891 0.0
C2656 C 0.7181 0.52269 0.80616 0.0
C2657 C 0.72664 0.51773 0.77779 0.0
C2658 C 0.74212 0.51202 0.78333 0.0
C2659 C 0.74558 0.51208 0.80038 0.0
C2660 C 0.7336 0.5172 0.81171 0.0
C2661 C 0.75427 0.50494 0.77151 0.0
C2662 C 0.76115 0.48937 0.77511 0.0
C2663 C 0.75858 0.51301 0.75652 0.0
C2664 C 0.75285 0.52999 0.75249 0.0
C2665 C 0.75556 0.54312 0.76361 0.0
C2666 C 0.75008 0.55907 0.75977 0.0
C2667 C 0.74197 0.56209 0.74478 0.0
C2668 C 0.73937 0.54916 0.73358 0.0
C2669 C 0.74481 0.53318 0.73737 0.0
H2670 H 0.73774 0.57445 0.74182 0.0
H2671 H 0.79845 0.42299 0.78082 0.0
H2672 H 0.53062 0.19064 0.27531 0.0
H2673 H 0.52145 0.21186 0.2558 0.0
H2674 H 0.47719 0.18365 0.24566 0.0
H2675 H 0.48636 0.16222 0.26501 0.0
H2676 H 0.48966 0.19775 0.21768 0.0
H2677 H 0.47513 0.2145 0.27251 0.0
H2678 H 0.4801 0.22023 0.30209 0.0
H2679 H 0.51539 0.2579 0.28915 0.0
H2680 H 0.51083 0.25221 0.25948 0.0
H2681 H 0.45298 0.28689 0.20499 0.0
H2682 H 0.45765 0.26223 0.222 0.0
H2683 H 0.49944 0.24906 0.19145 0.0
H2684 H 0.49478 0.27352 0.17433 0.0
H2685 H 0.48414 0.25459 0.24038 0.0
H2686 H 0.50238 0.20717 0.18926 0.0
H2687 H 0.49519 0.20085 0.16025 0.0
H2688 H 0.44771 0.22386 0.16669 0.0
H2689 H 0.45452 0.2301 0.19579 0.0
C2690 C 0.51903 0.18884 0.26877 0.0
C2691 C 0.50911 0.17487 0.27181 0.0
C2692 C 0.5138 0.20099 0.25769 0.0
C2693 C 0.49852 0.19942 0.24955 0.0
C2694 C 0.48898 0.18509 0.2519 0.0
C2695 C 0.49423 0.1729 0.26298 0.0
C2696 C 0.49213 0.21315 0.23931 0.0
C2697 C 0.48843 0.21019 0.2226 0.0
C2698 C 0.49009 0.22924 0.24593 0.0
C2699 C 0.49273 0.23283 0.26377 0.0
C2700 C 0.48404 0.22393 0.27597 0.0
C2701 C 0.48677 0.22718 0.29275 0.0
C2702 C 0.49808 0.2394 0.2975 0.0
C2703 C 0.50665 0.24843 0.28546 0.0
C2704 C 0.50398 0.2452 0.26866 0.0
C2705 C 0.4631 0.27868 0.20185 0.0
C2706 C 0.47354 0.28213 0.18836 0.0
C2707 C 0.46575 0.26463 0.21157 0.0
C2708 C 0.47879 0.25377 0.20787 0.0
C2709 C 0.48915 0.25715 0.19435 0.0
C2710 C 0.48653 0.27119 0.18465 0.0
C2711 C 0.48214 0.23933 0.21859 0.0
C2712 C 0.48527 0.24216 0.23543 0.0
C2713 C 0.48331 0.22308 0.21215 0.0
C2714 C 0.47904 0.21923 0.19468 0.0
C2715 C 0.49038 0.21082 0.18451 0.0
C2716 C 0.48637 0.20726 0.16804 0.0
C2717 C 0.47102 0.21199 0.16162 0.0
C2718 C 0.45962 0.22025 0.17166 0.0
C2719 C 0.46356 0.22383 0.18814 0.0
H2720 H 0.46794 0.20923 0.14886 0.0
H2721 H 0.50018 0.2419 0.3105 0.0
H2722 H 0.7923 0.53219 0.28252 0.0
H2723 H 0.77376 0.52318 0.26035 0.0
H2724 H 0.81332 0.49441 0.23887 0.0
H2725 H 0.83176 0.50294 0.26132 0.0
H2726 H 0.77245 0.52562 0.22828 0.0
H2727 H 0.7981 0.45875 0.2233 0.0
H2728 H 0.81233 0.43822 0.2409 0.0
H2729 H 0.79152 0.46061 0.28439 0.0
H2730 H 0.77699 0.48111 0.26704 0.0
H2731 H 0.7339 0.48901 0.15947 0.0
H2732 H 0.75559 0.49735 0.17889 0.0
H2733 H 0.73341 0.4668 0.21678 0.0
H2734 H 0.71202 0.458 0.19723 0.0
H2735 H 0.76549 0.46521 0.21928 0.0
H2736 H 0.72567 0.50873 0.21447 0.0
H2737 H 0.70833 0.52918 0.19988 0.0
H2738 H 0.75196 0.55338 0.18137 0.0
H2739 H 0.76956 0.53292 0.19568 0.0
C2740 C 0.79708 0.52408 0.27297 0.0
C2741 C 0.81338 0.51808 0.27373 0.0
C2742 C 0.78649 0.51896 0.2603 0.0
C2743 C 0.79207 0.50788 0.24814 0.0
C2744 C 0.80865 0.50266 0.24835 0.0
C2745 C 0.81917 0.50758 0.26114 0.0
C2746 C 0.78035 0.50125 0.23569 0.0
C2747 C 0.77098 0.51241 0.22625 0.0
C2748 C 0.77814 0.48401 0.23334 0.0
C2749 C 0.78662 0.47157 0.24387 0.0
C2750 C 0.79652 0.45925 0.23661 0.0
C2751 C 0.80464 0.44762 0.24655 0.0
C2752 C 0.80288 0.44815 0.26376 0.0
C2753 C 0.79293 0.46025 0.27107 0.0
C2754 C 0.78476 0.47188 0.26119 0.0
C2755 C 0.73379 0.48393 0.17189 0.0
C2756 C 0.72121 0.47301 0.17694 0.0
C2757 C 0.74614 0.48874 0.18298 0.0
C2758 C 0.7459 0.48297 0.19938 0.0
C2759 C 0.73379 0.47144 0.20419 0.0
C2760 C 0.72157 0.46644 0.19303 0.0
C2761 C 0.75771 0.48958 0.21176 0.0
C2762 C 0.76707 0.47841 0.22119 0.0
C2763 C 0.75946 0.50681 0.21454 0.0
C2764 C 0.74892 0.5192 0.20601 0.0
C2765 C 0.73156 0.51835 0.2072 0.0
C2766 C 0.72169 0.52994 0.19899 0.0
C2767 C 0.72904 0.54255 0.18967 0.0
C2768 C 0.74628 0.5436 0.18857 0.0
C2769 C 0.75622 0.53201 0.19674 0.0
H2770 H 0.72137 0.55152 0.18332 0.0
H2771 H 0.8092 0.43916 0.27142 0.0
H2772 H 0.53687 0.7049 0.20033 0.0
H2773 H 0.52707 0.72477 0.22111 0.0
H2774 H 0.48951 0.74176 0.18717 0.0
H2775 H 0.49911 0.72203 0.16642 0.0
H2776 H 0.52274 0.7605 0.21923 0.0
H2777 H 0.458 0.74096 0.20404 0.0
H2778 H 0.44271 0.71556 0.19629 0.0
H2779 H 0.47404 0.68675 0.22816 0.0
H2780 H 0.48961 0.71195 0.23586 0.0
H2781 H 0.47648 0.82265 0.25655 0.0
H2782 H 0.48501 0.80195 0.23621 0.0
H2783 H 0.47186 0.76294 0.27036 0.0
H2784 H 0.46253 0.78366 0.29043 0.0
H2785 H 0.46536 0.75317 0.24027 0.0
H2786 H 0.51229 0.7776 0.26716 0.0
H2787 H 0.53005 0.80047 0.27692 0.0
H2788 H 0.53799 0.81613 0.22671 0.0
H2789 H 0.52009 0.79347 0.21666 0.0
C2790 C 0.52667 0.71303 0.19725 0.0
C2791 C 0.51866 0.71186 0.18182 0.0
C2792 C 0.52109 0.72431 0.20911 0.0
C2793 C 0.50746 0.73447 0.20568 0.0
C2794 C 0.4999 0.73379 0.19008 0.0
C2795 C 0.50545 0.72257 0.17824 0.0
C2796 C 0.50069 0.74556 0.21846 0.0
C2797 C 0.51022 0.75898 0.22387 0.0
C2798 C 0.48456 0.74321 0.22476 0.0
C2799 C 0.47486 0.72826 0.22055 0.0
C2800 C 0.46151 0.7292 0.20945 0.0
C2801 C 0.45288 0.71485 0.205 0.0
C2802 C 0.4574 0.69956 0.21174 0.0
C2803 C 0.47056 0.69859 0.22294 0.0
C2804 C 0.47932 0.71288 0.2273 0.0
C2805 C 0.47513 0.80964 0.25956 0.0
C2806 C 0.46903 0.8047 0.27505 0.0
C2807 C 0.48008 0.79784 0.248 0.0
C2808 C 0.47952 0.78093 0.25197 0.0
C2809 C 0.4725 0.77594 0.26708 0.0
C2810 C 0.46718 0.78776 0.27853 0.0
C2811 C 0.48723 0.7686 0.24083 0.0
C2812 C 0.47789 0.75484 0.23571 0.0
C2813 C 0.50379 0.77043 0.23519 0.0
C2814 C 0.51475 0.78392 0.24117 0.0
C2815 C 0.51776 0.78597 0.25821 0.0
C2816 C 0.52786 0.79889 0.26379 0.0
C2817 C 0.53512 0.80976 0.25244 0.0
C2818 C 0.53235 0.80771 0.23549 0.0
C2819 C 0.52224 0.79481 0.22984 0.0
H2820 H 0.54292 0.81977 0.25679 0.0
H2821 H 0.45074 0.68845 0.20828 0.0
H2822 H 0.27697 0.53586 0.20064 0.0
H2823 H 0.25572 0.52459 0.21906 0.0
H2824 H 0.25307 0.48036 0.18921 0.0
H2825 H 0.27407 0.49165 0.17059 0.0
H2826 H 0.22293 0.49037 0.19755 0.0
H2827 H 0.27378 0.47988 0.22552 0.0
H2828 H 0.30112 0.48657 0.2374 0.0
H2829 H 0.27841 0.52065 0.27126 0.0
H2830 H 0.25094 0.51435 0.25941 0.0
H2831 H 0.19413 0.45514 0.28387 0.0
H2832 H 0.2154 0.45979 0.26278 0.0
H2833 H 0.18573 0.49869 0.24133 0.0
H2834 H 0.16435 0.49396 0.26217 0.0
H2835 H 0.23338 0.48687 0.25802 0.0
H2836 H 0.19252 0.50098 0.20019 0.0
H2837 H 0.16609 0.49166 0.18801 0.0
H2838 H 0.17044 0.44513 0.21338 0.0
H2839 H 0.197 0.45407 0.22552 0.0
C2840 C 0.27181 0.52377 0.19797 0.0
C2841 C 0.27724 0.5146 0.18423 0.0
C2842 C 0.25974 0.51732 0.20853 0.0
C2843 C 0.25301 0.50154 0.20561 0.0
C2844 C 0.25814 0.49253 0.1917 0.0
C2845 C 0.27017 0.49899 0.1811 0.0
C2846 C 0.24064 0.49444 0.2171 0.0
C2847 C 0.2252 0.48956 0.21077 0.0
C2848 C 0.24382 0.49295 0.23426 0.0
C2849 C 0.26031 0.49674 0.24148 0.0
C2850 C 0.27463 0.4889 0.23542 0.0
C2851 C 0.29014 0.4926 0.24216 0.0
C2852 C 0.2915 0.50405 0.25505 0.0
C2853 C 0.27734 0.51179 0.26126 0.0
C2854 C 0.26179 0.50815 0.25455 0.0
C2855 C 0.19206 0.46454 0.27453 0.0
C2856 C 0.17761 0.47423 0.27469 0.0
C2857 C 0.20423 0.4672 0.26253 0.0
C2858 C 0.20209 0.47951 0.25045 0.0
C2859 C 0.18751 0.48895 0.25039 0.0
C2860 C 0.17535 0.48629 0.26236 0.0
C2861 C 0.21548 0.48326 0.23854 0.0
C2862 C 0.23113 0.48754 0.24479 0.0
C2863 C 0.21261 0.48381 0.22126 0.0
C2864 C 0.1967 0.47827 0.21388 0.0
C2865 C 0.18788 0.48873 0.20311 0.0
C2866 C 0.17286 0.48352 0.19623 0.0
C2867 C 0.16656 0.46783 0.19996 0.0
C2868 C 0.1753 0.45731 0.21055 0.0
C2869 C 0.19032 0.46245 0.21746 0.0
H2870 H 0.15493 0.46383 0.19462 0.0
H2871 H 0.30353 0.5069 0.26026 0.0
H2872 H 0.8198 0.72215 0.49549 0.0
H2873 H 0.79943 0.74372 0.48964 0.0
H2874 H 0.77215 0.72998 0.53351 0.0
H2875 H 0.79241 0.70827 0.53938 0.0
H2876 H 0.75225 0.73236 0.50678 0.0
H2877 H 0.79381 0.76538 0.53303 0.0
H2878 H 0.82197 0.77622 0.5378 0.0
H2879 H 0.82295 0.79624 0.48854 0.0
H2880 H 0.79487 0.78531 0.48339 0.0
H2881 H 0.71526 0.82056 0.50256 0.0
H2882 H 0.737 0.80158 0.51161 0.0
H2883 H 0.72838 0.77109 0.4686 0.0
H2884 H 0.70649 0.78994 0.4595 0.0
H2885 H 0.76586 0.79158 0.49748 0.0
H2886 H 0.73209 0.73068 0.48049 0.0
H2887 H 0.70353 0.72016 0.47756 0.0
H2888 H 0.6863 0.75657 0.51223 0.0
H2889 H 0.71478 0.76714 0.51555 0.0
C2890 C 0.80955 0.72381 0.50397 0.0
C2891 C 0.80765 0.71349 0.51786 0.0
C2892 C 0.79796 0.73618 0.50065 0.0
C2893 C 0.78435 0.73846 0.51119 0.0
C2894 C 0.78259 0.72837 0.52523 0.0
C2895 C 0.79419 0.71603 0.52858 0.0
C2896 C 0.77153 0.75084 0.5071 0.0
C2897 C 0.75522 0.74531 0.50479 0.0
C2898 C 0.77541 0.76775 0.5047 0.0
C2899 C 0.79228 0.7744 0.50778 0.0
C2900 C 0.80008 0.77198 0.52317 0.0
C2901 C 0.81602 0.77816 0.52595 0.0
C2902 C 0.82426 0.78688 0.51347 0.0
C2903 C 0.81656 0.78947 0.4982 0.0
C2904 C 0.80062 0.7833 0.49534 0.0
C2905 C 0.71803 0.80984 0.49499 0.0
C2906 C 0.7091 0.80665 0.48038 0.0
C2907 C 0.73049 0.79907 0.50015 0.0
C2908 C 0.73415 0.78489 0.49086 0.0
C2909 C 0.72556 0.78188 0.47604 0.0
C2910 C 0.71311 0.79267 0.47085 0.0
C2911 C 0.74668 0.77302 0.49689 0.0
C2912 C 0.76292 0.77862 0.49951 0.0
C2913 C 0.74269 0.75622 0.49984 0.0
C2914 C 0.72554 0.7498 0.49813 0.0
C2915 C 0.72221 0.73639 0.48754 0.0
C2916 C 0.70604 0.73043 0.4858 0.0
C2917 C 0.6931 0.73773 0.49466 0.0
C2918 C 0.69632 0.75097 0.50533 0.0
C2919 C 0.71247 0.75696 0.50712 0.0
H2920 H 0.68059 0.7331 0.49329 0.0
H2921 H 0.8366 0.79165 0.51565 0.0
H2922 H 0.71558 0.19103 0.5345 0.0
H2923 H 0.73892 0.20955 0.52888 0.0
H2924 H 0.73696 0.19632 0.4771 0.0
H2925 H 0.71421 0.17724 0.48281 0.0
H2926 H 0.76744 0.19854 0.48574 0.0
H2927 H 0.71975 0.23318 0.49308 0.0
H2928 H 0.69526 0.24435 0.50749 0.0
H2929 H 0.72604 0.26056 0.54773 0.0
H2930 H 0.75069 0.24929 0.53365 0.0
H2931 H 0.80417 0.27196 0.45148 0.0
H2932 H 0.78499 0.24987 0.45966 0.0
H2933 H 0.7994 0.25612 0.51071 0.0
H2934 H 0.8188 0.27798 0.50264 0.0
H2935 H 0.76403 0.25714 0.50381 0.0
H2936 H 0.81229 0.22367 0.49372 0.0
H2937 H 0.83592 0.21358 0.47724 0.0
H2938 H 0.8026 0.19651 0.43945 0.0
H2939 H 0.77878 0.20673 0.4556 0.0
C2940 C 0.72022 0.19203 0.52195 0.0
C2941 C 0.71304 0.1828 0.50907 0.0
C2942 C 0.73349 0.20266 0.51873 0.0
C2943 C 0.7395 0.20457 0.5025 0.0
C2944 C 0.73254 0.19507 0.48971 0.0
C2945 C 0.7195 0.18421 0.49298 0.0
C2946 C 0.75278 0.21669 0.49871 0.0
C2947 C 0.76659 0.21138 0.48957 0.0
C2948 C 0.75183 0.23342 0.5039 0.0
C2949 C 0.73703 0.24022 0.51239 0.0
C2950 C 0.72127 0.23901 0.50506 0.0
C2951 C 0.70737 0.24538 0.51316 0.0
C2952 C 0.70909 0.25311 0.52854 0.0
C2953 C 0.72472 0.25454 0.53583 0.0
C2954 C 0.73867 0.24817 0.52779 0.0
C2955 C 0.80335 0.2685 0.46442 0.0
C2956 C 0.81293 0.27669 0.47643 0.0
C2957 C 0.79246 0.25589 0.46905 0.0
C2958 C 0.79087 0.25142 0.48576 0.0
C2959 C 0.80052 0.25943 0.49776 0.0
C2960 C 0.81161 0.27186 0.49311 0.0
C2961 C 0.77849 0.23896 0.4908 0.0
C2962 C 0.76486 0.24425 0.50013 0.0
C2963 C 0.77945 0.22234 0.4855 0.0
C2964 C 0.79376 0.21611 0.4758 0.0
C2965 C 0.81001 0.2179 0.48183 0.0
C2966 C 0.82344 0.21213 0.47256 0.0
C2967 C 0.82077 0.20444 0.45729 0.0
C2968 C 0.80465 0.20248 0.45127 0.0
C2969 C 0.79118 0.20824 0.46049 0.0
H2970 H 0.83118 0.19998 0.45013 0.0
H2971 H 0.69831 0.25804 0.53479 0.0
H2972 H 0.27541 0.81557 0.48578 0.0
H2973 H 0.25302 0.79632 0.47928 0.0
H2974 H 0.24971 0.78262 0.53087 0.0
H2975 H 0.27263 0.80137 0.53731 0.0
H2976 H 0.24898 0.75627 0.51325 0.0
H2977 H 0.21992 0.80757 0.51093 0.0
H2978 H 0.21441 0.83637 0.50245 0.0
H2979 H 0.21084 0.82107 0.45166 0.0
H2980 H 0.21655 0.79219 0.4598 0.0
H2981 H 0.17237 0.71375 0.50574 0.0
H2982 H 0.19194 0.73585 0.51254 0.0
H2983 H 0.20579 0.73967 0.4611 0.0
H2984 H 0.18637 0.71734 0.45417 0.0
H2985 H 0.20015 0.77122 0.47905 0.0
H2986 H 0.23036 0.71948 0.48284 0.0
H2987 H 0.23441 0.69089 0.49276 0.0
H2988 H 0.234 0.70798 0.54311 0.0
H2989 H 0.22971 0.73666 0.53348 0.0
C2990 C 0.26983 0.80854 0.49575 0.0
C2991 C 0.27575 0.80994 0.51205 0.0
C2992 C 0.25696 0.79761 0.49204 0.0
C2993 C 0.24951 0.78818 0.50462 0.0
C2994 C 0.25527 0.78976 0.52096 0.0
C2995 C 0.26833 0.80049 0.52463 0.0
C2996 C 0.23627 0.77608 0.50062 0.0
C2997 C 0.23819 0.75966 0.506 0.0
C2998 C 0.22228 0.78038 0.49092 0.0
C2999 C 0.21882 0.79773 0.48596 0.0
C3000 C 0.21809 0.81036 0.49793 0.0
C3001 C 0.2149 0.8267 0.49319 0.0
C3002 C 0.21232 0.83055 0.47652 0.0
C3003 C 0.21286 0.81807 0.46456 0.0
C3004 C 0.21606 0.80171 0.46923 0.0
C3005 C 0.17948 0.71937 0.49585 0.0
C3006 C 0.17796 0.71376 0.47944 0.0
C3007 C 0.19063 0.73197 0.49976 0.0
C3008 C 0.2003 0.73926 0.48731 0.0
C3009 C 0.19838 0.73415 0.47084 0.0
C3010 C 0.18738 0.72137 0.46693 0.0
C3011 C 0.213 0.75163 0.49169 0.0
C3012 C 0.21095 0.768 0.48636 0.0
C3013 C 0.22673 0.74739 0.50166 0.0
C3014 C 0.22955 0.73018 0.50745 0.0
C3015 C 0.231 0.71712 0.49603 0.0
C3016 C 0.23337 0.70091 0.5016 0.0
C3017 C 0.23442 0.69761 0.51855 0.0
C3018 C 0.23317 0.71054 0.52998 0.0
C3019 C 0.23078 0.72678 0.52447 0.0
H3020 H 0.23624 0.68505 0.52284 0.0
H3021 H 0.20985 0.84321 0.47288 0.0
H3022 H 0.19534 0.276 0.53679 0.0
H3023 H 0.21351 0.25275 0.53017 0.0
H3024 H 0.20026 0.25706 0.47853 0.0
H3025 H 0.18139 0.27971 0.48527 0.0
H3026 H 0.20205 0.22641 0.48559 0.0
H3027 H 0.23789 0.27252 0.49517 0.0
H3028 H 0.24968 0.2963 0.5103 0.0
H3029 H 0.26445 0.26411 0.54997 0.0
H3030 H 0.25254 0.24016 0.53517 0.0
H3031 H 0.2756 0.18545 0.4552 0.0
H3032 H 0.25428 0.20606 0.46169 0.0
H3033 H 0.25579 0.19156 0.51308 0.0
H3034 H 0.27682 0.17075 0.50668 0.0
H3035 H 0.26009 0.22692 0.5058 0.0
H3036 H 0.2241 0.18047 0.49378 0.0
H3037 H 0.21352 0.15769 0.47641 0.0
H3038 H 0.20073 0.19238 0.4382 0.0
H3039 H 0.21147 0.21535 0.45526 0.0
C3040 C 0.19628 0.27191 0.52405 0.0
C3041 C 0.18707 0.27967 0.51152 0.0
C3042 C 0.20673 0.2587 0.52025 0.0
C3043 C 0.20854 0.25338 0.50379 0.0
C3044 C 0.1991 0.26096 0.49131 0.0
C3045 C 0.18836 0.27392 0.49517 0.0
C3046 C 0.22037 0.24 0.49954 0.0
C3047 C 0.21479 0.22666 0.48986 0.0
C3048 C 0.23699 0.2402 0.5052 0.0
C3049 C 0.24418 0.25458 0.51413 0.0
C3050 C 0.24354 0.27053 0.50718 0.0
C3051 C 0.25026 0.28404 0.51569 0.0
C3052 C 0.25777 0.28172 0.53111 0.0
C3053 C 0.25861 0.26589 0.53803 0.0
C3054 C 0.25189 0.25234 0.52959 0.0
C3055 C 0.27124 0.18655 0.46784 0.0
C3056 C 0.27787 0.17655 0.48045 0.0
C3057 C 0.25908 0.19827 0.47151 0.0
C3058 C 0.25355 0.20025 0.48784 0.0
C3059 C 0.25996 0.19015 0.5004 0.0
C3060 C 0.27191 0.17826 0.49671 0.0
C3061 C 0.24168 0.21345 0.49201 0.0
C3062 C 0.24732 0.22675 0.50161 0.0
C3063 C 0.22528 0.2134 0.48595 0.0
C3064 C 0.21875 0.19961 0.47573 0.0
C3065 C 0.21918 0.18322 0.48161 0.0
C3066 C 0.21312 0.17028 0.47184 0.0
C3067 C 0.2065 0.17358 0.45619 0.0
C3068 C 0.20588 0.18984 0.45031 0.0
C3069 C 0.21194 0.20283 0.46003 0.0
H3070 H 0.20181 0.16354 0.44864 0.0
H3071 H 0.26296 0.29219 0.53767 0.0
H3072 H 0.06305 0.34885 0.13134 0.0
H3073 H 0.08247 0.35387 0.10866 0.0
H3074 H 0.09386 0.30175 0.10678 0.0
H3075 H 0.07451 0.29657 0.12945 0.0
H3076 H 0.12172 0.32172 0.10294 0.0
H3077 H 0.06618 0.31666 0.08091 0.0
H3078 H 0.03659 0.32392 0.07866 0.0
H3079 H 0.04965 0.37377 0.06548 0.0
H3080 H 0.07933 0.36684 0.06786 0.0
H3081 H 0.14591 0.30309 0.02175 0.0
H3082 H 0.13249 0.3058 0.0486 0.0
H3083 H 0.12568 0.35809 0.04013 0.0
H3084 H 0.13909 0.3555 0.01302 0.0
H3085 H 0.09733 0.34273 0.05057 0.0
H3086 H 0.15342 0.34594 0.06826 0.0
H3087 H 0.18279 0.33778 0.06984 0.0
H3088 H 0.16887 0.29091 0.09077 0.0
H3089 H 0.13939 0.29868 0.08909 0.0
C3090 C 0.06984 0.33847 0.12626 0.0
C3091 C 0.06711 0.32227 0.13209 0.0
C3092 C 0.0809 0.34138 0.11329 0.0
C3093 C 0.08944 0.32816 0.10598 0.0
C3094 C 0.08736 0.31211 0.11228 0.0
C3095 C 0.07624 0.30917 0.12518 0.0
C3096 C 0.09967 0.33077 0.09103 0.0
C3097 C 0.11643 0.32627 0.09146 0.0
C3098 C 0.09278 0.33711 0.07622 0.0
C3099 C 0.07495 0.34129 0.07477 0.0
C3100 C 0.06273 0.32921 0.07768 0.0
C3101 C 0.04595 0.33325 0.07635 0.0
C3102 C 0.04124 0.34931 0.07199 0.0
C3103 C 0.05331 0.36135 0.0689 0.0
C3104 C 0.07011 0.35737 0.07023 0.0
C3105 C 0.14166 0.31521 0.02558 0.0
C3106 C 0.14354 0.32908 0.01521 0.0
C3107 C 0.1341 0.31675 0.041 0.0
C3108 C 0.12829 0.33218 0.04642 0.0
C3109 C 0.13019 0.34609 0.03618 0.0
C3110 C 0.13785 0.34458 0.02073 0.0
C3111 C 0.11936 0.33338 0.06236 0.0
C3112 C 0.10279 0.33854 0.06212 0.0
C3113 C 0.12642 0.32759 0.07732 0.0
C3114 C 0.14417 0.32287 0.07845 0.0
C3115 C 0.15661 0.33384 0.07309 0.0
C3116 C 0.17328 0.32929 0.07402 0.0
C3117 C 0.17769 0.31383 0.08038 0.0
C3118 C 0.16544 0.30289 0.08585 0.0
C3119 C 0.14874 0.30737 0.08493 0.0
H3120 H 0.19061 0.31032 0.08108 0.0
H3121 H 0.02824 0.35242 0.07096 0.0
H3122 H 0.65311 0.0769 0.13778 0.0
H3123 H 0.65049 0.09687 0.11508 0.0
H3124 H 0.68436 0.06773 0.08567 0.0
H3125 H 0.68787 0.04857 0.10873 0.0
H3126 H 0.69176 0.09685 0.0809 0.0
H3127 H 0.63962 0.0686 0.08035 0.0
H3128 H 0.61331 0.05803 0.09176 0.0
H3129 H 0.59774 0.1077 0.10247 0.0
H3130 H 0.62406 0.11855 0.09131 0.0
H3131 H 0.6436 0.13115 0.00501 0.0
H3132 H 0.6435 0.11425 0.03018 0.0
H3133 H 0.68019 0.14658 0.05195 0.0
H3134 H 0.68109 0.16277 0.02638 0.0
H3135 H 0.63712 0.11633 0.06075 0.0
H3136 H 0.70691 0.12606 0.07532 0.0
H3137 H 0.73292 0.13232 0.06051 0.0
H3138 H 0.71269 0.11178 0.01582 0.0
H3139 H 0.68665 0.10522 0.03041 0.0
C3140 C 0.66 0.07486 0.12645 0.0
C3141 C 0.67072 0.06128 0.12496 0.0
C3142 C 0.65841 0.08618 0.11343 0.0
C3143 C 0.66702 0.08372 0.09849 0.0
C3144 C 0.67764 0.07002 0.09705 0.0
C3145 C 0.67962 0.05904 0.11022 0.0
C3146 C 0.66531 0.09546 0.0844 0.0
C3147 C 0.67978 0.10107 0.07653 0.0
C3148 C 0.64971 0.10085 0.07844 0.0
C3149 C 0.63388 0.09437 0.08516 0.0
C3150 C 0.63063 0.07726 0.08525 0.0
C3151 C 0.61571 0.07122 0.09165 0.0
C3152 C 0.60388 0.08219 0.09788 0.0
C3153 C 0.60693 0.09922 0.09767 0.0
C3154 C 0.62184 0.10532 0.0913 0.0
C3155 C 0.6515 0.1347 0.01527 0.0
C3156 C 0.66252 0.14806 0.01375 0.0
C3157 C 0.65142 0.12508 0.02965 0.0
C3158 C 0.66214 0.12888 0.04283 0.0
C3159 C 0.6722 0.14306 0.04176 0.0
C3160 C 0.67264 0.15236 0.02721 0.0
C3161 C 0.66355 0.11748 0.0572 0.0
C3162 C 0.64907 0.11207 0.06518 0.0
C3163 C 0.6791 0.11158 0.06276 0.0
C3164 C 0.69478 0.11533 0.05392 0.0
C3165 C 0.70804 0.12284 0.06235 0.0
C3166 C 0.72278 0.12645 0.05399 0.0
C3167 C 0.72443 0.12251 0.03722 0.0
C3168 C 0.71137 0.11489 0.02879 0.0
C3169 C 0.69662 0.11123 0.03709 0.0
H3170 H 0.73584 0.12533 0.03077 0.0
H3171 H 0.59234 0.07749 0.10283 0.0
H3172 H 0.92905 0.64294 0.13216 0.0
H3173 H 0.91195 0.64108 0.10722 0.0
H3174 H 0.90657 0.6942 0.10689 0.0
H3175 H 0.92378 0.69623 0.13164 0.0
H3176 H 0.88032 0.65065 0.09909 0.0
H3177 H 0.90998 0.70784 0.06744 0.0
H3178 H 0.93651 0.72303 0.06744 0.0
H3179 H 0.96209 0.67886 0.08226 0.0
H3180 H 0.93576 0.66336 0.08211 0.0
H3181 H 0.85343 0.69531 0.01852 0.0
H3182 H 0.86908 0.69366 0.04423 0.0
H3183 H 0.87033 0.64041 0.04029 0.0
H3184 H 0.8544 0.64189 0.01452 0.0
H3185 H 0.89959 0.68188 0.04976 0.0
H3186 H 0.87013 0.62442 0.08013 0.0
H3187 H 0.8436 0.60919 0.08012 0.0
H3188 H 0.81765 0.65389 0.06775 0.0
H3189 H 0.84398 0.66941 0.0679 0.0
C3190 C 0.92411 0.65422 0.12688 0.0
C3191 C 0.92795 0.66976 0.13378 0.0
C3192 C 0.91431 0.65312 0.11266 0.0
C3193 C 0.90826 0.66751 0.10509 0.0
C3194 C 0.91139 0.68296 0.1124 0.0
C3195 C 0.92119 0.68409 0.12658 0.0
C3196 C 0.89932 0.66654 0.08912 0.0
C3197 C 0.88463 0.65728 0.08822 0.0
C3198 C 0.9049 0.67534 0.07503 0.0
C3199 C 0.92086 0.68449 0.07492 0.0
C3200 C 0.92128 0.70135 0.07063 0.0
C3201 C 0.93628 0.71002 0.07067 0.0
C3202 C 0.95097 0.70192 0.0749 0.0
C3203 C 0.9507 0.68513 0.07904 0.0
C3204 C 0.93573 0.6764 0.079 0.0
C3205 C 0.85698 0.68321 0.02308 0.0
C3206 C 0.85263 0.66872 0.01446 0.0
C3207 C 0.86597 0.68231 0.03778 0.0
C3208 C 0.87077 0.66693 0.04421 0.0
C3209 C 0.86656 0.65241 0.03563 0.0
C3210 C 0.85751 0.65328 0.02088 0.0
C3211 C 0.88039 0.66629 0.05979 0.0
C3212 C 0.89529 0.67519 0.0606 0.0
C3213 C 0.87499 0.65716 0.07375 0.0
C3214 C 0.85905 0.64801 0.07384 0.0
C3215 C 0.85875 0.631 0.07746 0.0
C3216 C 0.84375 0.62232 0.07742 0.0
C3217 C 0.82896 0.63056 0.07387 0.0
C3218 C 0.82913 0.64751 0.07042 0.0
C3219 C 0.84409 0.65625 0.07046 0.0
H3220 H 0.81737 0.62381 0.07384 0.0
H3221 H 0.96257 0.70866 0.07494 0.0
H3222 H 0.35219 0.8401 0.01756 0.0
H3223 H 0.35065 0.85565 0.04352 0.0
H3224 H 0.29729 0.85342 0.04175 0.0
H3225 H 0.29866 0.83808 0.01582 0.0
H3226 H 0.3082 0.88439 0.04708 0.0
H3227 H 0.31868 0.83025 0.06925 0.0
H3228 H 0.33379 0.8039 0.07218 0.0
H3229 H 0.37729 0.83027 0.0878 0.0
H3230 H 0.3625 0.85681 0.08473 0.0
H3231 H 0.28885 0.91579 0.12541 0.0
H3232 H 0.29201 0.89612 0.10273 0.0
H3233 H 0.34514 0.90097 0.10571 0.0
H3234 H 0.34214 0.92055 0.12863 0.0
H3235 H 0.33527 0.86866 0.09998 0.0
H3236 H 0.32486 0.92272 0.07745 0.0
H3237 H 0.30979 0.94908 0.0744 0.0
H3238 H 0.26618 0.92269 0.05913 0.0
H3239 H 0.28093 0.89614 0.06233 0.0
C3240 C 0.34013 0.8428 0.02277 0.0
C3241 C 0.32555 0.83793 0.01456 0.0
C3242 C 0.33928 0.85162 0.03763 0.0
C3243 C 0.32386 0.85561 0.04457 0.0
C3244 C 0.30932 0.85049 0.03657 0.0
C3245 C 0.31014 0.8417 0.02175 0.0
C3246 C 0.32275 0.86592 0.05967 0.0
C3247 C 0.31392 0.88082 0.05871 0.0
C3248 C 0.33064 0.86147 0.07467 0.0
C3249 C 0.33953 0.84553 0.0766 0.0
C3250 C 0.33151 0.83044 0.07317 0.0
C3251 C 0.34001 0.81547 0.07489 0.0
C3252 C 0.3565 0.81541 0.08013 0.0
C3253 C 0.36452 0.83033 0.08372 0.0
C3254 C 0.35608 0.84534 0.08201 0.0
C3255 C 0.30123 0.91258 0.12138 0.0
C3256 C 0.31524 0.91991 0.1287 0.0
C3257 C 0.30301 0.90134 0.1084 0.0
C3258 C 0.3188 0.89733 0.1024 0.0
C3259 C 0.33285 0.90398 0.11016 0.0
C3260 C 0.33109 0.91521 0.1232 0.0
C3261 C 0.32053 0.88698 0.0874 0.0
C3262 C 0.32953 0.87216 0.08834 0.0
C3263 C 0.31282 0.89148 0.07232 0.0
C3264 C 0.30396 0.90744 0.07028 0.0
C3265 C 0.31202 0.92253 0.07356 0.0
C3266 C 0.30354 0.93751 0.07179 0.0
C3267 C 0.28703 0.93756 0.06662 0.0
C3268 C 0.27897 0.92263 0.06316 0.0
C3269 C 0.28738 0.90762 0.06494 0.0
H3270 H 0.28048 0.94917 0.06525 0.0
H3271 H 0.36306 0.80381 0.08145 0.0
H3272 H 0.06939 0.69163 0.85958 0.0
H3273 H 0.08829 0.68839 0.88294 0.0
H3274 H 0.07937 0.63572 0.88305 0.0
H3275 H 0.06034 0.63883 0.85969 0.0
H3276 H 0.07613 0.64939 0.91377 0.0
H3277 H 0.11602 0.65005 0.87014 0.0
H3278 H 0.12983 0.66046 0.84497 0.0
H3279 H 0.14191 0.70581 0.86996 0.0
H3280 H 0.12795 0.69577 0.89522 0.0
H3281 H 0.13699 0.63681 0.97658 0.0
H3282 H 0.12214 0.63485 0.95023 0.0
H3283 H 0.1273 0.68757 0.94331 0.0
H3284 H 0.14225 0.68966 0.96945 0.0
H3285 H 0.1338 0.67068 0.91502 0.0
H3286 H 0.09147 0.67163 0.95715 0.0
H3287 H 0.0773 0.66196 0.98243 0.0
H3288 H 0.06951 0.61429 0.96019 0.0
H3289 H 0.08385 0.62362 0.93485 0.0
C3290 C 0.07154 0.67933 0.86446 0.0
C3291 C 0.06331 0.66549 0.85779 0.0
C3292 C 0.08242 0.67749 0.87776 0.0
C3293 C 0.08531 0.6618 0.88462 0.0
C3294 C 0.07731 0.64793 0.87788 0.0
C3295 C 0.06648 0.64974 0.86452 0.0
C3296 C 0.09595 0.6601 0.89943 0.0
C3297 C 0.08886 0.65371 0.91396 0.0
C3298 C 0.11241 0.6661 0.89972 0.0
C3299 C 0.12082 0.67219 0.88454 0.0
C3300 C 0.1215 0.6623 0.87023 0.0
C3301 C 0.12937 0.66812 0.85595 0.0
C3302 C 0.13671 0.6838 0.85585 0.0
C3303 C 0.13621 0.69367 0.87005 0.0
C3304 C 0.12833 0.68791 0.88436 0.0
C3305 C 0.13501 0.64798 0.96943 0.0
C3306 C 0.14073 0.66341 0.97517 0.0
C3307 C 0.1265 0.64683 0.9544 0.0
C3308 C 0.12354 0.66109 0.94491 0.0
C3309 C 0.12949 0.67642 0.95045 0.0
C3310 C 0.13796 0.67759 0.96545 0.0
C3311 C 0.11389 0.6602 0.92937 0.0
C3312 C 0.12115 0.66612 0.91473 0.0
C3313 C 0.09755 0.65387 0.92898 0.0
C3314 C 0.08891 0.64825 0.94419 0.0
C3315 C 0.08686 0.65904 0.95771 0.0
C3316 C 0.07877 0.65363 0.97203 0.0
C3317 C 0.07255 0.6375 0.97294 0.0
C3318 C 0.07436 0.62677 0.95949 0.0
C3319 C 0.08246 0.63211 0.94514 0.0
H3320 H 0.06629 0.63334 0.98404 0.0
H3321 H 0.14281 0.68828 0.84479 0.0
H3322 H 0.35407 0.06551 0.85532 0.0
H3323 H 0.36238 0.08441 0.87765 0.0
H3324 H 0.31501 0.07728 0.90126 0.0
H3325 H 0.30652 0.05867 0.87906 0.0
H3326 H 0.34557 0.11447 0.88978 0.0
H3327 H 0.32398 0.07043 0.94223 0.0
H3328 H 0.32203 0.04041 0.9475 0.0
H3329 H 0.36191 0.03161 0.91347 0.0
H3330 H 0.3643 0.06159 0.9082 0.0
H3331 H 0.3143 0.15023 0.96213 0.0
H3332 H 0.321 0.13467 0.93716 0.0
H3333 H 0.36669 0.11826 0.95943 0.0
H3334 H 0.36013 0.13405 0.98457 0.0
H3335 H 0.34668 0.0926 0.94724 0.0
H3336 H 0.37022 0.14269 0.92778 0.0
H3337 H 0.37175 0.17271 0.92251 0.0
H3338 H 0.32922 0.16956 0.89074 0.0
H3339 H 0.32726 0.13955 0.896 0.0
C3340 C 0.3454 0.06808 0.86521 0.0
C3341 C 0.32965 0.06057 0.86545 0.0
C3342 C 0.35016 0.07887 0.87791 0.0
C3343 C 0.33936 0.08202 0.89112 0.0
C3344 C 0.32355 0.07482 0.89121 0.0
C3345 C 0.31871 0.06426 0.87847 0.0
C3346 C 0.34439 0.09268 0.90507 0.0
C3347 C 0.34606 0.10973 0.90234 0.0
C3348 C 0.34536 0.08632 0.92136 0.0
C3349 C 0.34425 0.06827 0.92475 0.0
C3350 C 0.33242 0.06211 0.93595 0.0
C3351 C 0.33122 0.04509 0.93893 0.0
C3352 C 0.34182 0.0341 0.9308 0.0
C3353 C 0.35368 0.04012 0.91972 0.0
C3354 C 0.35494 0.05713 0.91672 0.0
C3355 C 0.32588 0.14349 0.96166 0.0
C3356 C 0.33665 0.14326 0.97533 0.0
C3357 C 0.32975 0.13471 0.94734 0.0
C3358 C 0.34438 0.12544 0.94644 0.0
C3359 C 0.35538 0.12546 0.95989 0.0
C3360 C 0.35163 0.13448 0.9742 0.0
C3361 C 0.34711 0.11451 0.93203 0.0
C3362 C 0.34675 0.09736 0.93467 0.0
C3363 C 0.34741 0.1208 0.91568 0.0
C3364 C 0.34857 0.13884 0.91234 0.0
C3365 C 0.36113 0.1484 0.91974 0.0
C3366 C 0.36208 0.16543 0.91675 0.0
C3367 C 0.35058 0.17304 0.9063 0.0
C3368 C 0.33812 0.16364 0.89881 0.0
C3369 C 0.33711 0.14661 0.90177 0.0
H3370 H 0.35134 0.18622 0.90401 0.0
H3371 H 0.34085 0.02093 0.9331 0.0
H3372 H 0.81776 0.31446 0.96082 0.0
H3373 H 0.83002 0.31529 0.93307 0.0
H3374 H 0.87304 0.34021 0.95299 0.0
H3375 H 0.86007 0.34068 0.98032 0.0
H3376 H 0.86914 0.35099 0.92449 0.0
H3377 H 0.86922 0.29522 0.94689 0.0
H3378 H 0.85601 0.27014 0.95836 0.0
H3379 H 0.82703 0.2648 0.91408 0.0
H3380 H 0.83998 0.28994 0.90241 0.0
H3381 H 0.9258 0.29355 0.87327 0.0
H3382 H 0.90481 0.29751 0.89453 0.0
H3383 H 0.88551 0.33956 0.86773 0.0
H3384 H 0.90723 0.33617 0.84682 0.0
H3385 H 0.87376 0.29643 0.89672 0.0
H3386 H 0.86969 0.36765 0.89434 0.0
H3387 H 0.88675 0.39171 0.88622 0.0
H3388 H 0.93104 0.36398 0.89597 0.0
H3389 H 0.91424 0.33984 0.90431 0.0
C3390 C 0.8297 0.32037 0.95909 0.0
C3391 C 0.83811 0.3274 0.97256 0.0
C3392 C 0.83675 0.32075 0.9433 0.0
C3393 C 0.8527 0.32737 0.94097 0.0
C3394 C 0.86075 0.33501 0.9544 0.0
C3395 C 0.8534 0.33522 0.97003 0.0
C3396 C 0.86162 0.32537 0.92501 0.0
C3397 C 0.87006 0.33907 0.91837 0.0
C3398 C 0.86297 0.30981 0.91702 0.0
C3399 C 0.85543 0.29453 0.92387 0.0
C3400 C 0.85999 0.28871 0.93963 0.0
C3401 C 0.85255 0.2745 0.94617 0.0
C3402 C 0.84064 0.26592 0.93698 0.0
C3403 C 0.83622 0.27148 0.9212 0.0
C3404 C 0.84362 0.2857 0.91461 0.0
C3405 C 0.91703 0.30359 0.87185 0.0
C3406 C 0.91823 0.31466 0.8585 0.0
C3407 C 0.90498 0.30581 0.88399 0.0
C3408 C 0.89368 0.31897 0.88288 0.0
C3409 C 0.89433 0.32956 0.86907 0.0
C3410 C 0.90669 0.32758 0.85711 0.0
C3411 C 0.88186 0.32187 0.89665 0.0
C3412 C 0.87269 0.3084 0.90272 0.0
C3413 C 0.88049 0.33744 0.90461 0.0
C3414 C 0.89071 0.3519 0.89972 0.0
C3415 C 0.88307 0.36672 0.89477 0.0
C3416 C 0.89269 0.38036 0.89013 0.0
C3417 C 0.90997 0.37935 0.89051 0.0
C3418 C 0.91766 0.36472 0.89561 0.0
C3419 C 0.9081 0.35105 0.90028 0.0
H3420 H 0.91739 0.38992 0.8869 0.0
H3421 H 0.83487 0.25494 0.94207 0.0
H3422 H 0.68723 0.84282 0.97308 0.0
H3423 H 0.68744 0.85901 0.94765 0.0
H3424 H 0.63442 0.86476 0.95062 0.0
H3425 H 0.63401 0.8483 0.97613 0.0
H3426 H 0.64513 0.85822 0.91877 0.0
H3427 H 0.65852 0.89586 0.96266 0.0
H3428 H 0.67363 0.90558 0.98736 0.0
H3429 H 0.71926 0.90504 0.96005 0.0
H3430 H 0.70445 0.89509 0.93524 0.0
H3431 H 0.64229 0.92663 0.86228 0.0
H3432 H 0.63938 0.9077 0.88571 0.0
H3433 H 0.69244 0.90161 0.88744 0.0
H3434 H 0.6955 0.92069 0.86422 0.0
H3435 H 0.68024 0.90868 0.91726 0.0
H3436 H 0.66698 0.87066 0.87343 0.0
H3437 H 0.65194 0.86069 0.84878 0.0
H3438 H 0.60616 0.86194 0.87581 0.0
H3439 H 0.6209 0.87215 0.90056 0.0
C3440 C 0.67557 0.84745 0.96835 0.0
C3441 C 0.66061 0.84439 0.97674 0.0
C3442 C 0.67573 0.85673 0.95381 0.0
C3443 C 0.66098 0.86328 0.94742 0.0
C3444 C 0.64594 0.85984 0.95542 0.0
C3445 C 0.64575 0.85049 0.97 0.0
C3446 C 0.66147 0.8741 0.93265 0.0
C3447 C 0.6526 0.86939 0.91847 0.0
C3448 C 0.67146 0.88849 0.93225 0.0
C3449 C 0.68039 0.89459 0.94713 0.0
C3450 C 0.67179 0.89769 0.96196 0.0
C3451 C 0.6803 0.90327 0.97597 0.0
C3452 C 0.6974 0.90589 0.97529 0.0
C3453 C 0.70602 0.90299 0.96057 0.0
C3454 C 0.69757 0.8974 0.94652 0.0
C3455 C 0.65334 0.92114 0.86753 0.0
C3456 C 0.66914 0.92525 0.86143 0.0
C3457 C 0.65164 0.91026 0.88088 0.0
C3458 C 0.66569 0.9032 0.88826 0.0
C3459 C 0.68143 0.90696 0.88194 0.0
C3460 C 0.68315 0.91785 0.86864 0.0
C3461 C 0.66413 0.89269 0.90321 0.0
C3462 C 0.67275 0.89752 0.91751 0.0
C3463 C 0.6539 0.87845 0.90368 0.0
C3464 C 0.64502 0.87234 0.88879 0.0
C3465 C 0.65368 0.86896 0.87407 0.0
C3466 C 0.64522 0.86323 0.86009 0.0
C3467 C 0.6281 0.86073 0.86071 0.0
C3468 C 0.61941 0.86391 0.87533 0.0
C3469 C 0.62782 0.86965 0.88935 0.0
H3470 H 0.62157 0.85629 0.84988 0.0
H3471 H 0.70396 0.9102 0.98616 0.0
H3472 H 0.12634 0.06352 0.35199 0.0
H3473 H 0.10159 0.08064 0.35537 0.0
H3474 H 0.09429 0.08066 0.30243 0.0
H3475 H 0.11907 0.06388 0.2989 0.0
H3476 H 0.08962 0.11079 0.31489 0.0
H3477 H 0.07188 0.05516 0.32802 0.0
H3478 H 0.07277 0.02868 0.3432 0.0
H3479 H 0.0639 0.05425 0.38895 0.0
H3480 H 0.06317 0.08093 0.37405 0.0
H3481 H 0.00628 0.13163 0.3043 0.0
H3482 H 0.03227 0.11642 0.30558 0.0
H3483 H 0.0337 0.12275 0.3586 0.0
H3484 H 0.00747 0.13791 0.35751 0.0
H3485 H 0.04235 0.09124 0.34902 0.0
H3486 H 0.05755 0.14679 0.33494 0.0
H3487 H 0.05598 0.17288 0.31916 0.0
H3488 H 0.06928 0.14711 0.27461 0.0
H3489 H 0.07069 0.12081 0.29008 0.0
C3490 C 0.1195 0.06723 0.34106 0.0
C3491 C 0.12466 0.06228 0.32518 0.0
C3492 C 0.10533 0.07695 0.34303 0.0
C3493 C 0.09602 0.08176 0.32916 0.0
C3494 C 0.10131 0.07709 0.3133 0.0
C3495 C 0.11547 0.06745 0.31132 0.0
C3496 C 0.08062 0.09152 0.33102 0.0
C3497 C 0.07925 0.10646 0.32226 0.0
C3498 C 0.06727 0.08608 0.341 0.0
C3499 C 0.06767 0.07005 0.34995 0.0
C3500 C 0.07026 0.05515 0.34133 0.0
C3501 C 0.07071 0.0401 0.34988 0.0
C3502 C 0.06845 0.03979 0.36704 0.0
C3503 C 0.06568 0.05452 0.37567 0.0
C3504 C 0.06524 0.0696 0.36718 0.0
C3505 C 0.01205 0.12977 0.31627 0.0
C3506 C 0.00485 0.13612 0.3308 0.0
C3507 C 0.02694 0.12111 0.31696 0.0
C3508 C 0.03502 0.11873 0.33214 0.0
C3509 C 0.02767 0.12456 0.34675 0.0
C3510 C 0.01271 0.13324 0.34609 0.0
C3511 C 0.05126 0.11029 0.3326 0.0
C3512 C 0.05281 0.09565 0.34181 0.0
C3513 C 0.06477 0.11597 0.32298 0.0
C3514 C 0.06412 0.13181 0.31366 0.0
C3515 C 0.06003 0.14667 0.32176 0.0
C3516 C 0.05918 0.1615 0.31287 0.0
C3517 C 0.0625 0.16165 0.29589 0.0
C3518 C 0.06671 0.14698 0.28777 0.0
C3519 C 0.06756 0.13211 0.29659 0.0
H3520 H 0.06182 0.17314 0.28903 0.0
H3521 H 0.0688 0.02813 0.37363 0.0
H3522 H 0.91231 0.12734 0.30537 0.0
H3523 H 0.89247 0.10508 0.30992 0.0
H3524 H 0.9008 0.1081 0.36261 0.0
H3525 H 0.92088 0.13041 0.35817 0.0
H3526 H 0.90364 0.07684 0.35137 0.0
H3527 H 0.86378 0.11968 0.347 0.0
H3528 H 0.85014 0.14432 0.33527 0.0
H3529 H 0.83981 0.11767 0.29043 0.0
H3530 H 0.85361 0.09293 0.30178 0.0
H3531 H 0.84545 0.01026 0.35753 0.0
H3532 H 0.85763 0.03768 0.36199 0.0
H3533 H 0.85763 0.04633 0.30927 0.0
H3534 H 0.84535 0.01917 0.30468 0.0
H3535 H 0.84759 0.07358 0.32637 0.0
H3536 H 0.89226 0.03331 0.32877 0.0
H3537 H 0.90646 0.00867 0.33988 0.0
H3538 H 0.90789 0.03089 0.38817 0.0
H3539 H 0.8935 0.0556 0.37736 0.0
C3540 C 0.90981 0.12344 0.31796 0.0
C3541 C 0.91826 0.13059 0.3314 0.0
C3542 C 0.89835 0.11078 0.32055 0.0
C3543 C 0.89505 0.10506 0.33662 0.0
C3544 C 0.90314 0.11242 0.35012 0.0
C3545 C 0.91459 0.12516 0.34755 0.0
C3546 C 0.88428 0.09041 0.33899 0.0
C3547 C 0.89121 0.07626 0.3463 0.0
C3548 C 0.86817 0.0896 0.33215 0.0
C3549 C 0.85983 0.10445 0.32523 0.0
C3550 C 0.85872 0.1191 0.33459 0.0
C3551 C 0.85093 0.13308 0.32801 0.0
C3552 C 0.84413 0.13257 0.31211 0.0
C3553 C 0.84508 0.11805 0.30276 0.0
C3554 C 0.85286 0.10403 0.30927 0.0
C3555 C 0.84796 0.01804 0.3469 0.0
C3556 C 0.84455 0.01247 0.33074 0.0
C3557 C 0.85491 0.03369 0.34948 0.0
C3558 C 0.85861 0.04396 0.33595 0.0
C3559 C 0.85482 0.0386 0.31987 0.0
C3560 C 0.8479 0.02301 0.31728 0.0
C3561 C 0.86719 0.05998 0.33825 0.0
C3562 C 0.85985 0.07434 0.33182 0.0
C3563 C 0.88295 0.061 0.34584 0.0
C3564 C 0.89163 0.04619 0.35232 0.0
C3565 C 0.89548 0.03288 0.34179 0.0
C3566 C 0.90359 0.01891 0.34802 0.0
C3567 C 0.90802 0.01819 0.36473 0.0
C3568 C 0.90441 0.03145 0.37524 0.0
C3569 C 0.89629 0.04544 0.36907 0.0
H3570 H 0.9143 0.00737 0.36954 0.0
H3571 H 0.83811 0.14341 0.30704 0.0
H3572 H 0.87427 0.92925 0.29671 0.0
H3573 H 0.89845 0.91143 0.29946 0.0
H3574 H 0.88976 0.90734 0.35201 0.0
H3575 H 0.86553 0.92537 0.34943 0.0
H3576 H 0.92243 0.91341 0.34467 0.0
H3577 H 0.88017 0.87544 0.32733 0.0
H3578 H 0.85737 0.86528 0.30972 0.0
H3579 H 0.88984 0.86459 0.26762 0.0
H3580 H 0.91279 0.87497 0.28492 0.0
H3581 H 0.98248 0.84889 0.35323 0.0
H3582 H 0.95691 0.8651 0.35424 0.0
H3583 H 0.95803 0.87028 0.30106 0.0
H3584 H 0.98328 0.85386 0.29989 0.0
H3585 H 0.92797 0.86229 0.31107 0.0
H3586 H 0.96941 0.90213 0.32717 0.0
H3587 H 0.99248 0.91296 0.34403 0.0
H3588 H 0.96201 0.9108 0.38756 0.0
H3589 H 0.93881 0.89975 0.37099 0.0
C3590 C 0.87743 0.92456 0.30887 0.0
C3591 C 0.86792 0.9287 0.32285 0.0
C3592 C 0.89124 0.91431 0.3104 0.0
C3593 C 0.89575 0.90792 0.3259 0.0
C3594 C 0.88641 0.91212 0.33993 0.0
C3595 C 0.87256 0.92238 0.33841 0.0
C3596 C 0.9104 0.89703 0.32739 0.0
C3597 C 0.92356 0.90207 0.33756 0.0
C3598 C 0.91194 0.88244 0.31784 0.0
C3599 C 0.89817 0.8761 0.30741 0.0
C3600 C 0.88242 0.87324 0.31429 0.0
C3601 C 0.86947 0.86742 0.30437 0.0
C3602 C 0.87214 0.86432 0.28755 0.0
C3603 C 0.88778 0.867 0.28064 0.0
C3604 C 0.90077 0.87283 0.2905 0.0
C3605 C 0.9773 0.85352 0.34176 0.0
C3606 C 0.98491 0.85007 0.32648 0.0
C3607 C 0.96272 0.86283 0.34236 0.0
C3608 C 0.95564 0.869 0.32773 0.0
C3609 C 0.96325 0.8656 0.31249 0.0
C3610 C 0.97772 0.85623 0.31186 0.0
C3611 C 0.94017 0.87882 0.32811 0.0
C3612 C 0.92682 0.87355 0.31831 0.0
C3613 C 0.93852 0.89326 0.3379 0.0
C3614 C 0.95244 0.89994 0.34788 0.0
C3615 C 0.96767 0.90384 0.34036 0.0
C3616 C 0.98076 0.91004 0.34986 0.0
C3617 C 0.97873 0.91252 0.36687 0.0
C3618 C 0.96358 0.90885 0.3744 0.0
C3619 C 0.95045 0.90262 0.36496 0.0
H3620 H 0.98888 0.91732 0.3742 0.0
H3621 H 0.8621 0.85982 0.27989 0.0
H3622 H 0.14627 0.97489 0.35013 0.0
H3623 H 0.1321 0.94806 0.35013 0.0
H3624 H 0.12585 0.95126 0.29717 0.0
H3625 H 0.13993 0.97798 0.29701 0.0
H3626 H 0.09709 0.94331 0.31331 0.0
H3627 H 0.15373 0.92565 0.31238 0.0
H3628 H 0.18266 0.9245 0.3221 0.0
H3629 H 0.16645 0.90483 0.36879 0.0
H3630 H 0.13738 0.9061 0.35943 0.0
H3631 H 0.07035 0.86307 0.29446 0.0
H3632 H 0.08845 0.88723 0.29593 0.0
H3633 H 0.09097 0.88239 0.34905 0.0
H3634 H 0.07283 0.8581 0.34776 0.0
H3635 H 0.12172 0.89095 0.33398 0.0
H3636 H 0.06497 0.90886 0.33467 0.0
H3637 H 0.03614 0.91002 0.32466 0.0
H3638 H 0.05285 0.92939 0.27803 0.0
H3639 H 0.08183 0.92812 0.28769 0.0
C3640 C 0.14193 0.96985 0.33848 0.0
C3641 C 0.14419 0.9786 0.32358 0.0
C3642 C 0.13392 0.9545 0.3385 0.0
C3643 C 0.12802 0.94769 0.32364 0.0
C3644 C 0.13033 0.95634 0.30876 0.0
C3645 C 0.13841 0.97159 0.30871 0.0
C3646 C 0.11886 0.93184 0.32359 0.0
C3647 C 0.10254 0.93183 0.31764 0.0
C3648 C 0.12589 0.91698 0.32963 0.0
C3649 C 0.14336 0.91615 0.33527 0.0
C3650 C 0.15632 0.92122 0.32478 0.0
C3651 C 0.17274 0.92052 0.33021 0.0
C3652 C 0.17639 0.91464 0.34607 0.0
C3653 C 0.16361 0.90941 0.35651 0.0
C3654 C 0.14715 0.91011 0.35115 0.0
C3655 C 0.07488 0.86698 0.30646 0.0
C3656 C 0.06997 0.85876 0.32102 0.0
C3657 C 0.08522 0.8808 0.30726 0.0
C3658 C 0.09084 0.88666 0.32261 0.0
C3659 C 0.0867 0.87803 0.3371 0.0
C3660 C 0.07628 0.86422 0.33633 0.0
C3661 C 0.10005 0.90245 0.32353 0.0
C3662 C 0.1163 0.90246 0.32968 0.0
C3663 C 0.093 0.91736 0.31766 0.0
C3664 C 0.07558 0.91824 0.31185 0.0
C3665 C 0.06251 0.91324 0.32224 0.0
C3666 C 0.04614 0.91394 0.31663 0.0
C3667 C 0.04267 0.91974 0.3007 0.0
C3668 C 0.05556 0.92489 0.29036 0.0
C3669 C 0.07196 0.92419 0.29589 0.0
H3670 H 0.02999 0.92027 0.29639 0.0
H3671 H 0.18911 0.9141 0.35025 0.0
H3672 H 0.01179 0.84479 0.63391 0.0
H3673 H 0.03823 0.85964 0.63321 0.0
H3674 H 0.0413 0.8568 0.68648 0.0
H3675 H 0.0149 0.84221 0.68735 0.0
H3676 H 0.04738 0.88749 0.67559 0.0
H3677 H 0.0652 0.83232 0.66208 0.0
H3678 H 0.06515 0.80628 0.64616 0.0
H3679 H 0.07841 0.83291 0.60206 0.0
H3680 H 0.07831 0.85916 0.61769 0.0
H3681 H 0.12862 0.91184 0.69084 0.0
H3682 H 0.1047 0.89364 0.68799 0.0
H3683 H 0.10435 0.90197 0.63523 0.0
H3684 H 0.1285 0.92017 0.63791 0.0
H3685 H 0.09679 0.86909 0.64402 0.0
H3686 H 0.0794 0.92421 0.65793 0.0
H3687 H 0.07962 0.95009 0.67413 0.0
H3688 H 0.06541 0.9232 0.71777 0.0
H3689 H 0.06535 0.89711 0.70188 0.0
C3690 C 0.01812 0.84728 0.64547 0.0
C3691 C 0.01119 0.84237 0.66069 0.0
C3692 C 0.03326 0.85569 0.64504 0.0
C3693 C 0.04175 0.85921 0.65979 0.0
C3694 C 0.03493 0.85421 0.67496 0.0
C3695 C 0.01982 0.84586 0.67541 0.0
C3696 C 0.05745 0.86867 0.65962 0.0
C3697 C 0.05823 0.88336 0.66884 0.0
C3698 C 0.07144 0.8635 0.65042 0.0
C3699 C 0.07157 0.84773 0.64101 0.0
C3700 C 0.06796 0.83265 0.64896 0.0
C3701 C 0.06799 0.81784 0.64 0.0
C3702 C 0.07172 0.81794 0.6231 0.0
C3703 C 0.07549 0.83285 0.61514 0.0
C3704 C 0.07546 0.84769 0.62405 0.0
C3705 C 0.12363 0.90967 0.67858 0.0
C3706 C 0.13032 0.91766 0.66462 0.0
C3707 C 0.10995 0.89926 0.67699 0.0
C3708 C 0.10262 0.89673 0.66145 0.0
C3709 C 0.10983 0.90385 0.64734 0.0
C3710 C 0.12359 0.91427 0.64891 0.0
C3711 C 0.08673 0.88769 0.66025 0.0
C3712 C 0.08589 0.8732 0.65072 0.0
C3713 C 0.07264 0.89299 0.66919 0.0
C3714 C 0.07251 0.90869 0.67875 0.0
C3715 C 0.07644 0.9238 0.67101 0.0
C3716 C 0.07652 0.93851 0.68013 0.0
C3717 C 0.07257 0.93828 0.69698 0.0
C3718 C 0.06849 0.92335 0.70473 0.0
C3719 C 0.06841 0.90861 0.69567 0.0
H3720 H 0.07264 0.94968 0.70402 0.0
H3721 H 0.07174 0.80647 0.61618 0.0
H3722 H 0.13594 0.00429 0.63525 0.0
H3723 H 0.11844 0.02893 0.63348 0.0
H3724 H 0.11249 0.02862 0.68657 0.0
H3725 H 0.12982 0.00398 0.68849 0.0
H3726 H 0.08331 0.03416 0.67059 0.0
H3727 H 0.13946 0.05471 0.66871 0.0
H3728 H 0.16788 0.05657 0.65766 0.0
H3729 H 0.14882 0.07198 0.61046 0.0
H3730 H 0.12026 0.06999 0.62118 0.0
H3731 H 0.05804 0.11453 0.69042 0.0
H3732 H 0.07408 0.08919 0.68745 0.0
H3733 H 0.07545 0.096 0.63448 0.0
H3734 H 0.05945 0.1216 0.63732 0.0
H3735 H 0.1056 0.08649 0.64724 0.0
H3736 H 0.04928 0.06842 0.6503 0.0
H3737 H 0.02106 0.0669 0.6619 0.0
H3738 H 0.04043 0.04691 0.7072 0.0
H3739 H 0.0688 0.04854 0.69598 0.0
C3740 C 0.13086 0.00942 0.64655 0.0
C3741 C 0.13434 0.00221 0.66203 0.0
C3742 C 0.12091 0.02352 0.64551 0.0
C3743 C 0.11431 0.03064 0.65991 0.0
C3744 C 0.11748 0.02329 0.67531 0.0
C3745 C 0.12744 0.00924 0.67638 0.0
C3746 C 0.10429 0.04593 0.65907 0.0
C3747 C 0.0882 0.04563 0.66559 0.0
C3748 C 0.11057 0.06076 0.65212 0.0
C3749 C 0.12773 0.06201 0.64568 0.0
C3750 C 0.14133 0.05836 0.65593 0.0
C3751 C 0.15746 0.05946 0.64974 0.0
C3752 C 0.16015 0.06434 0.63335 0.0
C3753 C 0.14672 0.06817 0.62314 0.0
C3754 C 0.13055 0.06706 0.62927 0.0
C3755 C 0.06179 0.11073 0.67812 0.0
C3756 C 0.05737 0.12005 0.66409 0.0
C3757 C 0.0709 0.09619 0.67645 0.0
C3758 C 0.07569 0.09061 0.66073 0.0
C3759 C 0.07176 0.10009 0.64671 0.0
C3760 C 0.06262 0.11468 0.64837 0.0
C3761 C 0.08473 0.07479 0.65907 0.0
C3762 C 0.10062 0.07497 0.65205 0.0
C3763 C 0.07828 0.05985 0.66559 0.0
C3764 C 0.06119 0.05873 0.67234 0.0
C3765 C 0.04754 0.06381 0.66278 0.0
C3766 C 0.03151 0.06291 0.66928 0.0
C3767 C 0.02896 0.05684 0.68529 0.0
C3768 C 0.04243 0.05162 0.69481 0.0
C3769 C 0.05848 0.05251 0.68838 0.0
H3770 H 0.01656 0.05615 0.69032 0.0
H3771 H 0.17265 0.06519 0.62858 0.0
H3772 H 0.97234 0.13352 0.68303 0.0
H3773 H 0.94729 0.1171 0.67979 0.0
H3774 H 0.94914 0.1241 0.62689 0.0
H3775 H 0.97452 0.14066 0.62995 0.0
H3776 H 0.91643 0.12774 0.64209 0.0
H3777 H 0.96106 0.08924 0.63887 0.0
H3778 H 0.98744 0.07637 0.64725 0.0
H3779 H 0.96637 0.0631 0.69424 0.0
H3780 H 0.93993 0.07615 0.68627 0.0
H3781 H 0.8563 0.06146 0.63433 0.0
H3782 H 0.88034 0.07956 0.63033 0.0
H3783 H 0.89147 0.0764 0.68248 0.0
H3784 H 0.86759 0.05837 0.68662 0.0
H3785 H 0.91843 0.06988 0.66274 0.0
H3786 H 0.87503 0.1108 0.66709 0.0
H3787 H 0.84876 0.12424 0.65928 0.0
H3788 H 0.8675 0.133 0.61028 0.0
H3789 H 0.89382 0.1194 0.61775 0.0
C3790 C 0.96744 0.13171 0.67067 0.0
C3791 C 0.97553 0.13831 0.65672 0.0
C3792 C 0.95312 0.12229 0.66887 0.0
C3793 C 0.94653 0.11928 0.65311 0.0
C3794 C 0.95413 0.12629 0.63915 0.0
C3795 C 0.96862 0.13568 0.64092 0.0
C3796 C 0.932 0.10827 0.6515 0.0
C3797 C 0.91688 0.11496 0.64623 0.0
C3798 C 0.93267 0.09172 0.65715 0.0
C3799 C 0.94853 0.08378 0.662 0.0
C3800 C 0.96208 0.0837 0.65105 0.0
C3801 C 0.97704 0.07636 0.65572 0.0
C3802 C 0.97858 0.06894 0.67127 0.0
C3803 C 0.96516 0.06885 0.68219 0.0
C3804 C 0.95017 0.07621 0.6776 0.0
C3805 C 0.8638 0.06471 0.64497 0.0
C3806 C 0.86006 0.05842 0.66079 0.0
C3807 C 0.87749 0.07509 0.64265 0.0
C3808 C 0.88765 0.07929 0.65611 0.0
C3809 C 0.88379 0.07324 0.67193 0.0
C3810 C 0.8701 0.06297 0.67428 0.0
C3811 C 0.90271 0.08946 0.65378 0.0
C3812 C 0.91798 0.08255 0.6583 0.0
C3813 C 0.90214 0.10578 0.64743 0.0
C3814 C 0.88631 0.11388 0.64291 0.0
C3815 C 0.87349 0.11544 0.6546 0.0
C3816 C 0.8586 0.12312 0.65025 0.0
C3817 C 0.85644 0.12941 0.63427 0.0
C3818 C 0.86918 0.12808 0.62263 0.0
C3819 C 0.88408 0.12039 0.62692 0.0
H3820 H 0.84491 0.13537 0.63092 0.0
H3821 H 0.99015 0.06323 0.67485 0.0
H3822 H 0.92371 0.8623 0.68875 0.0
H3823 H 0.90487 0.88566 0.68582 0.0
H3824 H 0.90547 0.87981 0.63272 0.0
H3825 H 0.92458 0.85649 0.63549 0.0
H3826 H 0.90976 0.91171 0.64163 0.0
H3827 H 0.87159 0.86837 0.65487 0.0
H3828 H 0.86054 0.84474 0.67076 0.0
H3829 H 0.85625 0.87541 0.71396 0.0
H3830 H 0.86749 0.89918 0.6984 0.0
H3831 H 0.84588 0.97225 0.63237 0.0
H3832 H 0.86129 0.94621 0.63093 0.0
H3833 H 0.86477 0.94523 0.68424 0.0
H3834 H 0.84923 0.97099 0.68583 0.0
H3835 H 0.85666 0.91541 0.67233 0.0
H3836 H 0.89736 0.9576 0.66036 0.0
H3837 H 0.90894 0.98141 0.6451 0.0
H3838 H 0.90884 0.95301 0.60015 0.0
H3839 H 0.89705 0.92909 0.61512 0.0
C3840 C 0.91979 0.86589 0.67643 0.0
C3841 C 0.92566 0.85751 0.66235 0.0
C3842 C 0.90894 0.87921 0.6748 0.0
C3843 C 0.90362 0.88433 0.65907 0.0
C3844 C 0.9094 0.876 0.64497 0.0
C3845 C 0.92029 0.86266 0.64659 0.0
C3846 C 0.89252 0.89881 0.65741 0.0
C3847 C 0.89798 0.91241 0.64807 0.0
C3848 C 0.87733 0.8998 0.66609 0.0
C3849 C 0.8705 0.88553 0.67548 0.0
C3850 C 0.8684 0.87005 0.66779 0.0
C3851 C 0.86208 0.85663 0.67673 0.0
C3852 C 0.85772 0.85856 0.69337 0.0
C3853 C 0.85964 0.87393 0.70108 0.0
C3854 C 0.86596 0.88738 0.69219 0.0
C3855 C 0.84991 0.96648 0.64378 0.0
C3856 C 0.84636 0.97374 0.65921 0.0
C3857 C 0.85874 0.95163 0.64293 0.0
C3858 C 0.86427 0.94388 0.65748 0.0
C3859 C 0.86059 0.951 0.67287 0.0
C3860 C 0.85174 0.96577 0.67374 0.0
C3861 C 0.87405 0.92841 0.65681 0.0
C3862 C 0.86833 0.91462 0.66571 0.0
C3863 C 0.88904 0.92727 0.64781 0.0
C3864 C 0.89614 0.94163 0.63881 0.0
C3865 C 0.89968 0.95648 0.64719 0.0
C3866 C 0.9063 0.96999 0.6386 0.0
C3867 C 0.90957 0.96874 0.62166 0.0
C3868 C 0.90627 0.95397 0.61327 0.0
C3869 C 0.89962 0.94043 0.6218 0.0
H3870 H 0.9147 0.97921 0.61503 0.0
H3871 H 0.85284 0.84816 0.70027 0.0
H3872 H 0.34521 0.01047 0.1396 0.0
H3873 H 0.34677 0.03588 0.12305 0.0
H3874 H 0.29565 0.02974 0.10876 0.0
H3875 H 0.29393 0.00447 0.12525 0.0
H3876 H 0.31635 0.03764 0.08236 0.0
H3877 H 0.30436 0.05647 0.13766 0.0
H3878 H 0.30916 0.05882 0.16773 0.0
H3879 H 0.35662 0.08111 0.1587 0.0
H3880 H 0.35221 0.07866 0.12855 0.0
H3881 H 0.29332 0.11569 0.05225 0.0
H3882 H 0.29521 0.09088 0.06936 0.0
H3883 H 0.34575 0.10303 0.08172 0.0
H3884 H 0.34398 0.12804 0.06468 0.0
H3885 H 0.32784 0.09194 0.1088 0.0
H3886 H 0.33893 0.07453 0.05324 0.0
H3887 H 0.33381 0.07216 0.02323 0.0
H3888 H 0.28788 0.04704 0.03275 0.0
H3889 H 0.2926 0.04948 0.06284 0.0
C3890 C 0.33434 0.01449 0.13286 0.0
C3891 C 0.31943 0.0055 0.13378 0.0
C3892 C 0.33523 0.02902 0.12348 0.0
C3893 C 0.32128 0.03468 0.1148 0.0
C3894 C 0.30653 0.02554 0.1154 0.0
C3895 C 0.30557 0.01115 0.12488 0.0
C3896 C 0.32189 0.05024 0.1052 0.0
C3897 C 0.31873 0.04954 0.08814 0.0
C3898 C 0.32539 0.06566 0.11274 0.0
C3899 C 0.32804 0.0672 0.13086 0.0
C3900 C 0.31589 0.06173 0.14209 0.0
C3901 C 0.31852 0.06311 0.15915 0.0
C3902 C 0.33321 0.07006 0.16512 0.0
C3903 C 0.34527 0.0757 0.15405 0.0
C3904 C 0.3427 0.07433 0.13698 0.0
C3905 C 0.30483 0.11319 0.05867 0.0
C3906 C 0.31855 0.1238 0.05698 0.0
C3907 C 0.30589 0.09896 0.0684 0.0
C3908 C 0.3207 0.09503 0.07659 0.0
C3909 C 0.33424 0.10585 0.07543 0.0
C3910 C 0.33321 0.1201 0.06565 0.0
C3911 C 0.32207 0.07936 0.08598 0.0
C3912 C 0.32561 0.08003 0.10298 0.0
C3913 C 0.31891 0.06388 0.0784 0.0
C3914 C 0.31606 0.06232 0.0603 0.0
C3915 C 0.32767 0.06861 0.04894 0.0
C3916 C 0.32486 0.06724 0.03191 0.0
C3917 C 0.31051 0.05948 0.02609 0.0
C3918 C 0.29898 0.05305 0.03728 0.0
C3919 C 0.30173 0.05442 0.05432 0.0
H3920 H 0.30835 0.05843 0.0129 0.0
H3921 H 0.33522 0.07112 0.17833 0.0
H3922 H 0.30909 0.97875 0.87312 0.0
H3923 H 0.3137 0.95342 0.88898 0.0
H3924 H 0.35848 0.94414 0.86142 0.0
H3925 H 0.3541 0.9697 0.84556 0.0
H3926 H 0.33535 0.91671 0.86349 0.0
H3927 H 0.36392 0.95534 0.89832 0.0
H3928 H 0.36697 0.98134 0.91403 0.0
H3929 H 0.32594 0.96772 0.94501 0.0
H3930 H 0.32246 0.94174 0.92931 0.0
H3931 H 0.35569 0.86082 0.93953 0.0
H3932 H 0.36002 0.88581 0.92289 0.0
H3933 H 0.3101 0.8821 0.90424 0.0
H3934 H 0.30557 0.85723 0.92093 0.0
H3935 H 0.34147 0.91569 0.92466 0.0
H3936 H 0.31184 0.89404 0.86317 0.0
H3937 H 0.30817 0.86828 0.84718 0.0
H3938 H 0.35205 0.84802 0.86933 0.0
H3939 H 0.35612 0.87375 0.88526 0.0
C3940 C 0.31998 0.97139 0.87048 0.0
C3941 C 0.33123 0.97618 0.85808 0.0
C3942 C 0.32261 0.95697 0.87959 0.0
C3943 C 0.33645 0.94702 0.87637 0.0
C3944 C 0.34776 0.95174 0.86406 0.0
C3945 C 0.34527 0.96634 0.85509 0.0
C3946 C 0.33859 0.93136 0.88553 0.0
C3947 C 0.33685 0.91644 0.87684 0.0
C3948 C 0.34065 0.93114 0.90291 0.0
C3949 C 0.34287 0.94663 0.91256 0.0
C3950 C 0.35547 0.95794 0.90841 0.0
C3951 C 0.35729 0.97267 0.91732 0.0
C3952 C 0.34664 0.97619 0.93049 0.0
C3953 C 0.33418 0.96497 0.9348 0.0
C3954 C 0.33229 0.95023 0.92592 0.0
C3955 C 0.34566 0.86526 0.93181 0.0
C3956 C 0.33028 0.85706 0.93155 0.0
C3957 C 0.34815 0.87955 0.92237 0.0
C3958 C 0.33541 0.88569 0.91232 0.0
C3959 C 0.32012 0.87743 0.91185 0.0
C3960 C 0.31755 0.86328 0.92143 0.0
C3961 C 0.33782 0.90104 0.90267 0.0
C3962 C 0.34028 0.91592 0.91128 0.0
C3963 C 0.3364 0.90123 0.88522 0.0
C3964 C 0.3342 0.88579 0.87551 0.0
C3965 C 0.32075 0.88412 0.86457 0.0
C3966 C 0.31859 0.86952 0.85552 0.0
C3967 C 0.32984 0.85651 0.85727 0.0
C3968 C 0.34331 0.85809 0.86803 0.0
C3969 C 0.34553 0.87267 0.87709 0.0
H3970 H 0.32814 0.84521 0.85027 0.0
H3971 H 0.34806 0.98761 0.93736 0.0
H3972 H 0.00602 0.29727 0.86342 0.0
H3973 H 0.03028 0.30138 0.88085 0.0
H3974 H 0.03049 0.35341 0.86881 0.0
H3975 H 0.00606 0.34942 0.85118 0.0
H3976 H 0.06155 0.33875 0.8661 0.0
H3977 H 0.0186 0.34272 0.90614 0.0
H3978 H 0.99299 0.33464 0.92069 0.0
H3979 H 0.01547 0.28884 0.93555 0.0
H3980 H 0.04115 0.29652 0.92088 0.0
H3981 H 0.12523 0.35006 0.92772 0.0
H3982 H 0.09973 0.35303 0.91157 0.0
H3983 H 0.08951 0.30098 0.91791 0.0
H3984 H 0.11484 0.29788 0.93406 0.0
H3985 H 0.06253 0.32039 0.92474 0.0
H3986 H 0.10396 0.31509 0.88179 0.0
H3987 H 0.12943 0.32282 0.86679 0.0
H3988 H 0.1096 0.37122 0.85739 0.0
H3989 H 0.08408 0.36384 0.87254 0.0
C3990 C 0.01114 0.30962 0.86448 0.0
C3991 C 0.00409 0.32303 0.8559 0.0
C3992 C 0.02497 0.31196 0.87452 0.0
C3993 C 0.03205 0.32773 0.87623 0.0
C3994 C 0.02513 0.34116 0.86768 0.0
C3995 C 0.01117 0.33886 0.85767 0.0
C3996 C 0.04699 0.32984 0.88661 0.0
C3997 C 0.06172 0.3351 0.87903 0.0
C3998 C 0.04719 0.32483 0.90339 0.0
C3999 C 0.03178 0.32016 0.9123 0.0
C4000 C 0.01805 0.33086 0.9124 0.0
C4001 C 0.00352 0.32637 0.92069 0.0
C4002 C 0.00259 0.31123 0.92901 0.0
C4003 C 0.0162 0.30056 0.92909 0.0
C4004 C 0.03076 0.30499 0.92081 0.0
C4005 C 0.11759 0.33923 0.92561 0.0
C4006 C 0.12207 0.32373 0.93219 0.0
C4007 C 0.10305 0.34095 0.91636 0.0
C4008 C 0.09278 0.32721 0.91356 0.0
C4009 C 0.09727 0.31174 0.92001 0.0
C4010 C 0.1118 0.30999 0.92917 0.0
C4011 C 0.07717 0.32885 0.9041 0.0
C4012 C 0.06231 0.32431 0.91189 0.0
C4013 C 0.07686 0.33454 0.88753 0.0
C4014 C 0.09221 0.33899 0.87848 0.0
C4015 C 0.1051 0.32744 0.87667 0.0
C4016 C 0.11953 0.33174 0.86811 0.0
C4017 C 0.12116 0.34752 0.86119 0.0
C4018 C 0.10833 0.35901 0.86279 0.0
C4019 C 0.09388 0.35478 0.87135 0.0
H4020 H 0.13233 0.35082 0.85456 0.0
H4021 H 0.99133 0.30777 0.93542 0.0
H4022 H 0.64396 0.13025 0.92679 0.0
H4023 H 0.64234 0.1057 0.9092 0.0
H4024 H 0.69514 0.09889 0.91374 0.0
H4025 H 0.69694 0.12352 0.93118 0.0
H4026 H 0.68467 0.09452 0.88212 0.0
H4027 H 0.66869 0.07579 0.93652 0.0
H4028 H 0.65221 0.07616 0.96223 0.0
H4029 H 0.60781 0.06749 0.93424 0.0
H4030 H 0.62401 0.0673 0.90832 0.0
H4031 H 0.69396 0.01171 0.85747 0.0
H4032 H 0.69322 0.03734 0.87333 0.0
H4033 H 0.64017 0.03966 0.86737 0.0
H4034 H 0.64073 0.01374 0.85167 0.0
H4035 H 0.6492 0.04705 0.89856 0.0
H4036 H 0.6654 0.06427 0.84423 0.0
H4037 H 0.68196 0.06366 0.81858 0.0
H4038 H 0.72588 0.07513 0.8463 0.0
H4039 H 0.70963 0.07559 0.87216 0.0
C4040 C 0.65525 0.12358 0.92401 0.0
C4041 C 0.67058 0.12881 0.93047 0.0
C4042 C 0.65428 0.10952 0.914 0.0
C4043 C 0.66859 0.10039 0.91034 0.0
C4044 C 0.68395 0.10577 0.91645 0.0
C4045 C 0.68494 0.11983 0.92646 0.0
C4046 C 0.66758 0.08509 0.90031 0.0
C4047 C 0.67704 0.08407 0.88579 0.0
C4048 C 0.65728 0.07166 0.90489 0.0
C4049 C 0.64753 0.07171 0.92047 0.0
C4050 C 0.65539 0.0741 0.93583 0.0
C4051 C 0.64611 0.07425 0.95045 0.0
C4052 C 0.62897 0.0719 0.94986 0.0
C4053 C 0.62108 0.06934 0.93467 0.0
C4054 C 0.63031 0.0692 0.92002 0.0
C4055 C 0.68211 0.01763 0.8595 0.0
C4056 C 0.6674 0.01072 0.8532 0.0
C4057 C 0.68173 0.03233 0.86853 0.0
C4058 C 0.66668 0.04054 0.87127 0.0
C4059 C 0.65192 0.03354 0.8653 0.0
C4060 C 0.65227 0.01875 0.85633 0.0
C4061 C 0.66643 0.0564 0.88046 0.0
C4062 C 0.65673 0.05754 0.89482 0.0
C4063 C 0.67651 0.06995 0.87571 0.0
C4064 C 0.68631 0.06984 0.86015 0.0
C4065 C 0.67861 0.06656 0.84487 0.0
C4066 C 0.68794 0.06625 0.83029 0.0
C4067 C 0.70497 0.06932 0.83081 0.0
C4068 C 0.71269 0.07275 0.84592 0.0
C4069 C 0.70342 0.07305 0.86054 0.0
H4070 H 0.71217 0.06907 0.81951 0.0
H4071 H 0.6218 0.07202 0.96119 0.0
H4072 H 0.97741 0.69173 0.85118 0.0
H4073 H 0.95251 0.6917 0.86817 0.0
H4074 H 0.95015 0.63843 0.86519 0.0
H4075 H 0.97517 0.63829 0.84799 0.0
H4076 H 0.91952 0.65361 0.86041 0.0
H4077 H 0.96385 0.65514 0.89966 0.0
H4078 H 0.98993 0.66526 0.91193 0.0
H4079 H 0.96813 0.71311 0.91955 0.0
H4080 H 0.94198 0.70335 0.9071 0.0
H4081 H 0.86125 0.64666 0.92716 0.0
H4082 H 0.885 0.64382 0.9086 0.0
H4083 H 0.89259 0.69667 0.90994 0.0
H4084 H 0.86897 0.69966 0.92855 0.0
H4085 H 0.92091 0.6797 0.91602 0.0
H4086 H 0.87699 0.67857 0.87587 0.0
H4087 H 0.85097 0.66867 0.86329 0.0
H4088 H 0.87193 0.6202 0.85734 0.0
H4089 H 0.89802 0.62976 0.87009 0.0
C4090 C 0.97164 0.67997 0.85408 0.0
C4091 C 0.97836 0.66499 0.84829 0.0
C4092 C 0.95742 0.67999 0.86384 0.0
C4093 C 0.94963 0.66505 0.86807 0.0
C4094 C 0.95605 0.65008 0.86207 0.0
C4095 C 0.97036 0.65003 0.85232 0.0
C4096 C 0.93486 0.66523 0.87888 0.0
C4097 C 0.91984 0.65905 0.87269 0.0
C4098 C 0.9353 0.67263 0.89475 0.0
C4099 C 0.95099 0.67854 0.90231 0.0
C4100 C 0.96466 0.66786 0.90383 0.0
C4101 C 0.97945 0.67352 0.91084 0.0
C4102 C 0.9807 0.68983 0.91649 0.0
C4103 C 0.96715 0.70049 0.91516 0.0
C4104 C 0.95233 0.69489 0.90814 0.0
C4105 C 0.86788 0.6577 0.9234 0.0
C4106 C 0.86325 0.67339 0.9294 0.0
C4107 C 0.88141 0.65605 0.91275 0.0
C4108 C 0.8905 0.67004 0.90788 0.0
C4109 C 0.88573 0.68572 0.91359 0.0
C4110 C 0.8722 0.6874 0.92419 0.0
C4111 C 0.90548 0.66832 0.89747 0.0
C4112 C 0.92057 0.67418 0.90378 0.0
C4113 C 0.90508 0.66062 0.88173 0.0
C4114 C 0.88939 0.65483 0.87411 0.0
C4115 C 0.876 0.66576 0.87203 0.0
C4116 C 0.86125 0.66022 0.86483 0.0
C4117 C 0.85978 0.64381 0.85957 0.0
C4118 C 0.87307 0.63291 0.86145 0.0
C4119 C 0.88785 0.63838 0.86865 0.0
H4120 H 0.84835 0.63954 0.85399 0.0
H4121 H 0.99216 0.69419 0.92191 0.0
H4122 H 0.69076 0.97051 0.13756 0.0
H4123 H 0.68696 0.94548 0.12127 0.0
H4124 H 0.6341 0.95313 0.12116 0.0
H4125 H 0.63774 0.97833 0.13772 0.0
H4126 H 0.64302 0.92012 0.12658 0.0
H4127 H 0.65471 0.96303 0.08759 0.0
H4128 H 0.6699 0.98694 0.07615 0.0
H4129 H 0.71382 0.95736 0.07174 0.0
H4130 H 0.69897 0.93333 0.0834 0.0
H4131 H 0.63461 0.86021 0.06064 0.0
H4132 H 0.63259 0.88497 0.07801 0.0
H4133 H 0.68585 0.88672 0.08191 0.0
H4134 H 0.68803 0.8622 0.06452 0.0
H4135 H 0.67311 0.91626 0.07313 0.0
H4136 H 0.66209 0.87413 0.11421 0.0
H4137 H 0.64716 0.8503 0.12616 0.0
H4138 H 0.60204 0.87837 0.12661 0.0
H4139 H 0.61666 0.90232 0.11445 0.0
C4140 C 0.67829 0.96691 0.13416 0.0
C4141 C 0.66456 0.97653 0.13883 0.0
C4142 C 0.67616 0.95259 0.12481 0.0
C4143 C 0.66028 0.94763 0.11981 0.0
C4144 C 0.64646 0.95684 0.12486 0.0
C4145 C 0.64858 0.97124 0.13427 0.0
C4146 C 0.65839 0.93301 0.10897 0.0
C4147 C 0.64933 0.91934 0.11474 0.0
C4148 C 0.66679 0.932 0.09364 0.0
C4149 C 0.67575 0.9464 0.08648 0.0
C4150 C 0.66764 0.96165 0.08429 0.0
C4151 C 0.67619 0.97523 0.07775 0.0
C4152 C 0.69282 0.97368 0.07325 0.0
C4153 C 0.70094 0.95854 0.07524 0.0
C4154 C 0.69245 0.94493 0.0818 0.0
C4155 C 0.64589 0.86578 0.06531 0.0
C4156 C 0.66149 0.85926 0.06112 0.0
C4157 C 0.6447 0.8799 0.07527 0.0
C4158 C 0.65908 0.88764 0.08124 0.0
C4159 C 0.67461 0.88095 0.07736 0.0
C4160 C 0.67582 0.8669 0.06743 0.0
C4161 C 0.65816 0.90315 0.09094 0.0
C4162 C 0.66664 0.91706 0.08488 0.0
C4163 C 0.64921 0.90434 0.10596 0.0
C4164 C 0.64042 0.88994 0.11323 0.0
C4165 C 0.64895 0.87517 0.11671 0.0
C4166 C 0.64055 0.86165 0.12355 0.0
C4167 C 0.62365 0.8628 0.12709 0.0
C4168 C 0.61512 0.87749 0.12383 0.0
C4169 C 0.62345 0.89104 0.11698 0.0
H4170 H 0.61718 0.85232 0.1324 0.0
H4171 H 0.69942 0.98421 0.06819 0.0
H4172 H 0.01327 0.64053 0.14143 0.0
H4173 H 0.03796 0.64042 0.12387 0.0
H4174 H 0.03892 0.69382 0.12455 0.0
H4175 H 0.01423 0.6941 0.14193 0.0
H4176 H 0.04298 0.68163 0.09355 0.0
H4177 H 0.06575 0.67205 0.14783 0.0
H4178 H 0.06839 0.65761 0.17461 0.0
H4179 H 0.08117 0.61261 0.14939 0.0
H4180 H 0.07838 0.62673 0.12243 0.0
H4181 H 0.12277 0.69707 0.06196 0.0
H4182 H 0.09879 0.69547 0.08029 0.0
H4183 H 0.10084 0.64212 0.07872 0.0
H4184 H 0.12503 0.64357 0.06056 0.0
H4185 H 0.09496 0.65316 0.10973 0.0
H4186 H 0.07281 0.66271 0.05551 0.0
H4187 H 0.07001 0.67696 0.02865 0.0
H4188 H 0.05575 0.72169 0.05355 0.0
H4189 H 0.0587 0.70777 0.0806 0.0
C4190 C 0.01875 0.65225 0.13788 0.0
C4191 C 0.01178 0.66732 0.14311 0.0
C4192 C 0.03288 0.65216 0.12789 0.0
C4193 C 0.0403 0.66711 0.12303 0.0
C4194 C 0.03336 0.68215 0.12817 0.0
C4195 C 0.01927 0.68227 0.13816 0.0
C4196 C 0.05519 0.66718 0.11235 0.0
C4197 C 0.05442 0.67557 0.09716 0.0
C4198 C 0.06993 0.65889 0.11691 0.0
C4199 C 0.07169 0.6504 0.13311 0.0
C4200 C 0.069 0.65904 0.14799 0.0
C4201 C 0.07054 0.65092 0.1632 0.0
C4202 C 0.0749 0.63419 0.1637 0.0
C4203 C 0.07777 0.62556 0.14898 0.0
C4204 C 0.07622 0.63362 0.13373 0.0
C4205 C 0.11818 0.68498 0.06555 0.0
C4206 C 0.12575 0.67045 0.0597 0.0
C4207 C 0.10444 0.68409 0.07598 0.0
C4208 C 0.0979 0.66867 0.08064 0.0
C4209 C 0.10567 0.65414 0.07521 0.0
C4210 C 0.11947 0.65501 0.0648 0.0
C4211 C 0.08281 0.66775 0.091 0.0
C4212 C 0.08352 0.65918 0.1061 0.0
C4213 C 0.06798 0.67584 0.08634 0.0
C4214 C 0.06613 0.68423 0.07009 0.0
C4215 C 0.0692 0.67562 0.05527 0.0
C4216 C 0.06757 0.68363 0.04001 0.0
C4217 C 0.06274 0.70023 0.0394 0.0
C4218 C 0.05951 0.70884 0.05405 0.0
C4219 C 0.06114 0.70089 0.06935 0.0
H4220 H 0.06148 0.70641 0.02757 0.0
H4221 H 0.07609 0.62793 0.17549 0.0
H4222 H 0.98292 0.2952 0.12773 0.0
H4223 H 0.95876 0.29655 0.10965 0.0
H4224 H 0.95341 0.34857 0.12044 0.0
H4225 H 0.97763 0.34736 0.13866 0.0
H4226 H 0.92401 0.33132 0.12299 0.0
H4227 H 0.96796 0.33752 0.08393 0.0
H4228 H 0.99436 0.33046 0.07033 0.0
H4229 H 0.97435 0.28349 0.05542 0.0
H4230 H 0.9479 0.29015 0.06917 0.0
H4231 H 0.86369 0.34588 0.06063 0.0
H4232 H 0.88894 0.34701 0.07722 0.0
H4233 H 0.89753 0.29515 0.06789 0.0
H4234 H 0.87232 0.29389 0.05115 0.0
H4235 H 0.92572 0.31382 0.0641 0.0
H4236 H 0.88243 0.30704 0.10444 0.0
H4237 H 0.85619 0.31383 0.1185 0.0
H4238 H 0.87517 0.36187 0.13117 0.0
H4239 H 0.90145 0.35545 0.11698 0.0
C4240 C 0.97666 0.30696 0.12625 0.0
C4241 C 0.9822 0.32118 0.13465 0.0
C4242 C 0.9629 0.30771 0.11585 0.0
C4243 C 0.95442 0.32269 0.11362 0.0
C4244 C 0.95985 0.33691 0.12199 0.0
C4245 C 0.9737 0.33619 0.13235 0.0
C4246 C 0.93958 0.32329 0.1029 0.0
C4247 C 0.92441 0.32778 0.11003 0.0
C4248 C 0.94013 0.3183 0.08612 0.0
C4249 C 0.95598 0.31428 0.07772 0.0
C4250 C 0.96923 0.32563 0.07787 0.0
C4251 C 0.9842 0.3217 0.07011 0.0
C4252 C 0.98604 0.30652 0.06204 0.0
C4253 C 0.9729 0.29524 0.06168 0.0
C4254 C 0.95791 0.29909 0.06945 0.0
C4255 C 0.87092 0.33469 0.06209 0.0
C4256 C 0.86594 0.31977 0.0546 0.0
C4257 C 0.88533 0.33537 0.07162 0.0
C4258 C 0.89501 0.32113 0.07387 0.0
C4259 C 0.89021 0.30627 0.06628 0.0
C4260 C 0.87576 0.30556 0.05678 0.0
C4261 C 0.91012 0.32175 0.08423 0.0
C4262 C 0.92534 0.31747 0.07703 0.0
C4263 C 0.90963 0.32694 0.10096 0.0
C4264 C 0.89384 0.33083 0.10948 0.0
C4265 C 0.88095 0.31911 0.11009 0.0
C4266 C 0.86608 0.32288 0.11811 0.0
C4267 C 0.86399 0.33829 0.12568 0.0
C4268 C 0.87679 0.34995 0.12528 0.0
C4269 C 0.89168 0.34625 0.11726 0.0
H4270 H 0.85248 0.34118 0.13189 0.0
H4271 H -0.00236 0.3035 0.05604 0.0
H4272 H 0.62758 0.80154 0.51258 0.0
H4273 H 0.6104 0.80423 0.5372 0.0
H4274 H 0.61534 0.85737 0.53507 0.0
H4275 H 0.63283 0.85481 0.51041 0.0
H4276 H 0.62019 0.84559 0.56621 0.0
H4277 H 0.57928 0.8395 0.52402 0.0
H4278 H 0.56585 0.82692 0.49965 0.0
H4279 H 0.55896 0.78154 0.5265 0.0
H4280 H 0.57256 0.79377 0.55097 0.0
H4281 H 0.55735 0.85547 0.62853 0.0
H4282 H 0.57364 0.85734 0.60304 0.0
H4283 H 0.57344 0.80409 0.59897 0.0
H4284 H 0.55711 0.80207 0.62429 0.0
H4285 H 0.56491 0.81895 0.57006 0.0
H4286 H 0.60781 0.82437 0.61132 0.0
H4287 H 0.62154 0.83678 0.63562 0.0
H4288 H 0.62459 0.8835 0.61039 0.0
H4289 H 0.61067 0.87141 0.586 0.0
C4290 C 0.62498 0.81384 0.51725 0.0
C4291 C 0.63157 0.82797 0.50949 0.0
C4292 C 0.61508 0.81534 0.53131 0.0
C4293 C 0.61143 0.83101 0.53783 0.0
C4294 C 0.61798 0.84517 0.53017 0.0
C4295 C 0.62792 0.84368 0.51606 0.0
C4296 C 0.60114 0.8324 0.55294 0.0
C4297 C 0.60796 0.84006 0.56698 0.0
C4298 C 0.58532 0.82492 0.55398 0.0
C4299 C 0.57706 0.81753 0.5393 0.0
C4300 C 0.57501 0.8268 0.52469 0.0
C4301 C 0.56735 0.81973 0.51087 0.0
C4302 C 0.56158 0.80343 0.51152 0.0
C4303 C 0.56344 0.79416 0.52601 0.0
C4304 C 0.57111 0.80116 0.53988 0.0
C4305 C 0.56087 0.84415 0.62228 0.0
C4306 C 0.5559 0.82862 0.62844 0.0
C4307 C 0.57021 0.84525 0.60774 0.0
C4308 C 0.57476 0.83085 0.59916 0.0
C4309 C 0.57 0.81535 0.60539 0.0
C4310 C 0.56072 0.81423 0.61991 0.0
C4311 C 0.58409 0.83183 0.58341 0.0
C4312 C 0.57706 0.82464 0.56924 0.0
C4313 C 0.59969 0.83975 0.58226 0.0
C4314 C 0.60802 0.84704 0.59692 0.0
C4315 C 0.61127 0.83733 0.61101 0.0
C4316 C 0.61912 0.8443 0.62478 0.0
C4317 C 0.62389 0.86093 0.62457 0.0
C4318 C 0.62086 0.87062 0.61055 0.0
C4319 C 0.613 0.86372 0.59675 0.0
H4320 H 0.62997 0.8663 0.63524 0.0
H4321 H 0.55565 0.79798 0.5008 0.0
H4322 H 0.14544 0.56045 0.62914 0.0
H4323 H 0.14335 0.57717 0.60402 0.0
H4324 H 0.19652 0.58232 0.6028 0.0
H4325 H 0.19877 0.56571 0.628 0.0
H4326 H 0.18104 0.61131 0.59562 0.0
H4327 H 0.17845 0.55488 0.57804 0.0
H4328 H 0.16821 0.52611 0.57792 0.0
H4329 H 0.11978 0.54306 0.56399 0.0
H4330 H 0.12969 0.57198 0.56424 0.0
H4331 H 0.19091 0.63568 0.51231 0.0
H4332 H 0.19188 0.61947 0.53776 0.0
H4333 H 0.13851 0.61751 0.53885 0.0
H4334 H 0.13735 0.63373 0.51324 0.0
H4335 H 0.15358 0.58714 0.54618 0.0
H4336 H 0.15766 0.64424 0.56314 0.0
H4337 H 0.16942 0.67242 0.56242 0.0
H4338 H 0.21692 0.65335 0.57677 0.0
H4339 H 0.2055 0.625 0.57735 0.0
C4340 C 0.1567 0.56524 0.62363 0.0
C4341 C 0.17228 0.56165 0.63052 0.0
C4342 C 0.15547 0.57474 0.60923 0.0
C4343 C 0.1698 0.58077 0.60145 0.0
C4344 C 0.18533 0.57772 0.60861 0.0
C4345 C 0.18657 0.5682 0.62299 0.0
C4346 C 0.16861 0.58992 0.58562 0.0
C4347 C 0.17519 0.60598 0.58476 0.0
C4348 C 0.16078 0.58299 0.57155 0.0
C4349 C 0.15477 0.56562 0.57134 0.0
C4350 C 0.16558 0.55249 0.57509 0.0
C4351 C 0.15984 0.53615 0.57497 0.0
C4352 C 0.14334 0.53276 0.571 0.0
C4353 C 0.13255 0.54571 0.56709 0.0
C4354 C 0.13823 0.56208 0.56721 0.0
C4355 C 0.17934 0.63176 0.51787 0.0
C4356 C 0.16403 0.63611 0.51078 0.0
C4357 C 0.17994 0.62253 0.53245 0.0
C4358 C 0.16527 0.6175 0.54026 0.0
C4359 C 0.14997 0.62135 0.533 0.0
C4360 C 0.14934 0.63064 0.51841 0.0
C4361 C 0.16597 0.60853 0.55621 0.0
C4362 C 0.15934 0.5925 0.55708 0.0
C4363 C 0.17392 0.61541 0.57024 0.0
C4364 C 0.18075 0.63248 0.57015 0.0
C4365 C 0.17064 0.64604 0.56604 0.0
C4366 C 0.17724 0.66205 0.56567 0.0
C4367 C 0.19391 0.66467 0.56951 0.0
C4368 C 0.20401 0.65129 0.57379 0.0
C4369 C 0.19747 0.63526 0.57416 0.0
H4370 H 0.19901 0.67707 0.5692 0.0
H4371 H 0.13892 0.52011 0.57092 0.0
H4372 H 0.35642 0.18715 0.51697 0.0
H4373 H 0.37373 0.18702 0.54168 0.0
H4374 H 0.37088 0.13373 0.54364 0.0
H4375 H 0.35336 0.1337 0.51886 0.0
H4376 H 0.36611 0.14822 0.57416 0.0
H4377 H 0.40544 0.15134 0.52999 0.0
H4378 H 0.41767 0.16225 0.50422 0.0
H4379 H 0.42477 0.20962 0.52728 0.0
H4380 H 0.41235 0.19906 0.55313 0.0
H4381 H 0.43223 0.13985 0.63246 0.0
H4382 H 0.41422 0.13775 0.60822 0.0
H4383 H 0.41546 0.19084 0.60259 0.0
H4384 H 0.43356 0.19309 0.62672 0.0
H4385 H 0.4215 0.17494 0.57359 0.0
H4386 H 0.38134 0.17209 0.61742 0.0
H4387 H 0.3689 0.16129 0.64314 0.0
H4388 H 0.36337 0.1134 0.62071 0.0
H4389 H 0.376 0.12387 0.59492 0.0
C4390 C 0.35944 0.17537 0.52261 0.0
C4391 C 0.35355 0.16042 0.51589 0.0
C4392 C 0.3694 0.17533 0.53671 0.0
C4393 C 0.37372 0.16036 0.54435 0.0
C4394 C 0.36769 0.14541 0.53786 0.0
C4395 C 0.35774 0.14542 0.52369 0.0
C4396 C 0.3845 0.16044 0.55917 0.0
C4397 C 0.37834 0.1538 0.574 0.0
C4398 C 0.40029 0.16805 0.55897 0.0
C4399 C 0.40782 0.17444 0.54346 0.0
C4400 C 0.40948 0.16412 0.52953 0.0
C4401 C 0.41648 0.17023 0.51491 0.0
C4402 C 0.42196 0.18663 0.5141 0.0
C4403 C 0.4205 0.19693 0.52792 0.0
C4404 C 0.4135 0.19088 0.54257 0.0
C4405 C 0.4286 0.1511 0.62614 0.0
C4406 C 0.43436 0.16664 0.63152 0.0
C4407 C 0.41826 0.14987 0.61232 0.0
C4408 C 0.41346 0.16415 0.60368 0.0
C4409 C 0.41905 0.17968 0.6091 0.0
C4410 C 0.42935 0.18093 0.62292 0.0
C4411 C 0.40305 0.16289 0.58865 0.0
C4412 C 0.4093 0.16928 0.57375 0.0
C4413 C 0.38736 0.15505 0.5888 0.0
C4414 C 0.37979 0.14872 0.6043 0.0
C4415 C 0.37762 0.15922 0.61802 0.0
C4416 C 0.3705 0.15316 0.6326 0.0
C4417 C 0.36539 0.13666 0.63357 0.0
C4418 C 0.36736 0.12618 0.61995 0.0
C4419 C 0.37448 0.13217 0.60534 0.0
H4420 H 0.35988 0.13199 0.64487 0.0
H4421 H 0.42737 0.19134 0.50278 0.0
H4422 H 0.85386 0.35504 0.50881 0.0
H4423 H 0.85431 0.372 0.53388 0.0
H4424 H 0.80089 0.37237 0.53467 0.0
H4425 H 0.80027 0.35559 0.50957 0.0
H4426 H 0.81378 0.40283 0.54072 0.0
H4427 H 0.8221 0.34697 0.56 0.0
H4428 H 0.836 0.31981 0.56092 0.0
H4429 H 0.88151 0.34331 0.57535 0.0
H4430 H 0.86793 0.37064 0.5743 0.0
H4431 H 0.79716 0.42788 0.6223 0.0
H4432 H 0.79928 0.41154 0.59701 0.0
H4433 H 0.85259 0.41314 0.60026 0.0
H4434 H 0.85063 0.42936 0.62577 0.0
H4435 H 0.84148 0.38255 0.59171 0.0
H4436 H 0.83282 0.43834 0.57374 0.0
H4437 H 0.81893 0.46549 0.5728 0.0
H4438 H 0.77417 0.44229 0.55577 0.0
H4439 H 0.78773 0.41496 0.55684 0.0
C4440 C 0.8422 0.35877 0.51428 0.0
C4441 C 0.82702 0.35389 0.50723 0.0
C4442 C 0.84249 0.36841 0.52863 0.0
C4443 C 0.82763 0.37327 0.5362 0.0
C4444 C 0.81249 0.36872 0.52901 0.0
C4445 C 0.81218 0.35908 0.51469 0.0
C4446 C 0.82779 0.383 0.55171 0.0
C4447 C 0.81969 0.39834 0.55192 0.0
C4448 C 0.83589 0.37729 0.56617 0.0
C4449 C 0.84404 0.36086 0.5669 0.0
C4450 C 0.83511 0.34635 0.56324 0.0
C4451 C 0.84292 0.33093 0.56381 0.0
C4452 C 0.85964 0.32984 0.56815 0.0
C4453 C 0.86857 0.34417 0.57197 0.0
C4454 C 0.86082 0.35963 0.5714 0.0
C4455 C 0.80936 0.42471 0.61772 0.0
C4456 C 0.82373 0.43003 0.62601 0.0
C4457 C 0.81054 0.41542 0.60322 0.0
C4458 C 0.8261 0.41139 0.59663 0.0
C4459 C 0.84047 0.41621 0.60512 0.0
C4460 C 0.83931 0.42549 0.61967 0.0
C4461 C 0.82728 0.4023 0.58078 0.0
C4462 C 0.83565 0.3871 0.58049 0.0
C4463 C 0.81944 0.40814 0.56623 0.0
C4464 C 0.81126 0.42458 0.56551 0.0
C4465 C 0.81998 0.43901 0.56991 0.0
C4466 C 0.81217 0.45443 0.56934 0.0
C4467 C 0.79567 0.45561 0.56427 0.0
C4468 C 0.78695 0.44136 0.55972 0.0
C4469 C 0.7947 0.4259 0.56029 0.0
H4470 H 0.78964 0.46756 0.56383 0.0
H4471 H 0.86567 0.31789 0.56858 0.0
H4472 H 0.55922 0.18974 0.35962 0.0
H4473 H 0.5782 0.18807 0.38301 0.0
H4474 H 0.57841 0.13479 0.37927 0.0
H4475 H 0.55916 0.1363 0.35591 0.0
H4476 H 0.57372 0.14485 0.41072 0.0
H4477 H 0.61207 0.15711 0.3673 0.0
H4478 H 0.62314 0.17228 0.34321 0.0
H4479 H 0.62656 0.21664 0.3723 0.0
H4480 H 0.61529 0.2018 0.39652 0.0
H4481 H 0.638 0.13747 0.47093 0.0
H4482 H 0.6221 0.13562 0.44523 0.0
H4483 H 0.61842 0.18888 0.44358 0.0
H4484 H 0.6345 0.19089 0.46907 0.0
H4485 H 0.62636 0.17648 0.4138 0.0
H4486 H 0.58591 0.16512 0.45625 0.0
H4487 H 0.57447 0.15041 0.48045 0.0
H4488 H 0.57474 0.10477 0.4532 0.0
H4489 H 0.5864 0.11918 0.42889 0.0
C4490 C 0.56338 0.17765 0.36366 0.0
C4491 C 0.55765 0.16314 0.35589 0.0
C4492 C 0.57431 0.17673 0.377 0.0
C4493 C 0.57985 0.16132 0.38276 0.0
C4494 C 0.5743 0.14681 0.37497 0.0
C4495 C 0.56333 0.14771 0.36161 0.0
C4496 C 0.59084 0.16042 0.3974 0.0
C4497 C 0.5854 0.1515 0.41129 0.0
C4498 C 0.60588 0.1694 0.39824 0.0
C4499 C 0.61271 0.17836 0.3837 0.0
C4500 C 0.61506 0.17013 0.36853 0.0
C4501 C 0.62139 0.17867 0.35486 0.0
C4502 C 0.62552 0.19542 0.35621 0.0
C4503 C 0.62335 0.20366 0.37127 0.0
C4504 C 0.61701 0.19519 0.38498 0.0
C4505 C 0.63379 0.14879 0.46512 0.0
C4506 C 0.63749 0.16433 0.47208 0.0
C4507 C 0.62467 0.1477 0.45045 0.0
C4508 C 0.61898 0.16211 0.44258 0.0
C4509 C 0.62273 0.17761 0.44945 0.0
C4510 C 0.63187 0.17872 0.46406 0.0
C4511 C 0.60911 0.16112 0.42717 0.0
C4512 C 0.61477 0.16969 0.41315 0.0
C4513 C 0.59424 0.15187 0.42623 0.0
C4514 C 0.5872 0.14319 0.44082 0.0
C4515 C 0.58366 0.15192 0.45546 0.0
C4516 C 0.57711 0.14364 0.46919 0.0
C4517 C 0.57393 0.12665 0.46838 0.0
C4518 C 0.57725 0.11792 0.45382 0.0
C4519 C 0.58381 0.12614 0.44006 0.0
H4520 H 0.56886 0.12027 0.47902 0.0
H4521 H 0.63042 0.202 0.34561 0.0
H4522 H 0.84769 0.56358 0.36152 0.0
H4523 H 0.84888 0.58157 0.38581 0.0
H4524 H 0.79562 0.57988 0.38977 0.0
H4525 H 0.79426 0.5621 0.36536 0.0
H4526 H 0.80727 0.6108 0.39476 0.0
H4527 H 0.81957 0.55593 0.41445 0.0
H4528 H 0.83461 0.52938 0.41502 0.0
H4529 H 0.88001 0.55503 0.42559 0.0
H4530 H 0.86527 0.58177 0.42486 0.0
H4531 H 0.79644 0.63635 0.47764 0.0
H4532 H 0.79698 0.62058 0.45191 0.0
H4533 H 0.85031 0.62394 0.45081 0.0
H4534 H 0.84993 0.63955 0.47675 0.0
H4535 H 0.83979 0.59306 0.44381 0.0
H4536 H 0.82694 0.648 0.42548 0.0
H4537 H 0.81154 0.67435 0.42528 0.0
H4538 H 0.76687 0.64846 0.41243 0.0
H4539 H 0.78195 0.62192 0.41278 0.0
C4540 C 0.83621 0.56709 0.36749 0.0
C4541 C 0.82088 0.56131 0.36155 0.0
C4542 C 0.83693 0.57733 0.38141 0.0
C4543 C 0.82235 0.58186 0.3897 0.0
C4544 C 0.80701 0.57649 0.38355 0.0
C4545 C 0.80627 0.56629 0.36962 0.0
C4546 C 0.82307 0.59192 0.405 0.0
C4547 C 0.81425 0.60686 0.40555 0.0
C4548 C 0.83247 0.58692 0.41892 0.0
C4549 C 0.84135 0.57086 0.41942 0.0
C4550 C 0.83278 0.55592 0.41676 0.0
C4551 C 0.84125 0.54084 0.41714 0.0
C4552 C 0.85826 0.54053 0.42029 0.0
C4553 C 0.86684 0.5553 0.42312 0.0
C4554 C 0.85843 0.57042 0.42274 0.0
C4555 C 0.8083 0.63377 0.47195 0.0
C4556 C 0.82315 0.63927 0.47924 0.0
C4557 C 0.80858 0.62481 0.45719 0.0
C4558 C 0.82367 0.62131 0.44934 0.0
C4559 C 0.83853 0.62658 0.45666 0.0
C4560 C 0.83828 0.63552 0.47146 0.0
C4561 C 0.82392 0.6119 0.43362 0.0
C4562 C 0.83291 0.59707 0.43299 0.0
C4563 C 0.81463 0.61699 0.41965 0.0
C4564 C 0.80555 0.63295 0.41929 0.0
C4565 C 0.81381 0.64791 0.42273 0.0
C4566 C 0.80514 0.66288 0.42257 0.0
C4567 C 0.78823 0.66307 0.41888 0.0
C4568 C 0.77996 0.64829 0.4153 0.0
C4569 C 0.78857 0.63328 0.41546 0.0
H4570 H 0.78154 0.67468 0.41877 0.0
H4571 H 0.8648 0.52884 0.42058 0.0
H4572 H 0.35873 0.80101 0.47887 0.0
H4573 H 0.37718 0.80241 0.45502 0.0
H4574 H 0.37058 0.85534 0.45267 0.0
H4575 H 0.35197 0.85409 0.47659 0.0
H4576 H 0.36776 0.84021 0.42209 0.0
H4577 H 0.40588 0.84085 0.46725 0.0
H4578 H 0.41818 0.83145 0.49356 0.0
H4579 H 0.42954 0.78435 0.47172 0.0
H4580 H 0.41708 0.79338 0.44533 0.0
H4581 H 0.43256 0.84861 0.36229 0.0
H4582 H 0.41566 0.85182 0.38722 0.0
H4583 H 0.41944 0.7994 0.39672 0.0
H4584 H 0.43646 0.79607 0.37199 0.0
H4585 H 0.42472 0.81731 0.42445 0.0
H4586 H 0.3845 0.81574 0.38028 0.0
H4587 H 0.37177 0.82475 0.35402 0.0
H4588 H 0.36418 0.87337 0.3741 0.0
H4589 H 0.37707 0.8647 0.40043 0.0
C4590 C 0.36118 0.81298 0.47333 0.0
C4591 C 0.3539 0.82745 0.47967 0.0
C4592 C 0.3718 0.81375 0.45974 0.0
C4593 C 0.37537 0.829 0.45223 0.0
C4594 C 0.36801 0.84347 0.45836 0.0
C4595 C 0.35742 0.84272 0.47204 0.0
C4596 C 0.38658 0.82965 0.43776 0.0
C4597 C 0.38033 0.8355 0.42265 0.0
C4598 C 0.40285 0.82323 0.4385 0.0
C4599 C 0.41042 0.81776 0.45434 0.0
C4600 C 0.41088 0.82844 0.46809 0.0
C4601 C 0.41791 0.82319 0.48302 0.0
C4602 C 0.42461 0.8073 0.48432 0.0
C4603 C 0.42433 0.79665 0.47069 0.0
C4604 C 0.41731 0.80184 0.45574 0.0
C4605 C 0.42979 0.83776 0.36967 0.0
C4606 C 0.43583 0.82207 0.36512 0.0
C4607 C 0.4201 0.83962 0.38389 0.0
C4608 C 0.41622 0.82583 0.39373 0.0
C4609 C 0.42232 0.8102 0.38929 0.0
C4610 C 0.432 0.80832 0.37511 0.0
C4611 C 0.40579 0.82757 0.4087 0.0
C4612 C 0.41221 0.82219 0.42392 0.0
C4613 C 0.38967 0.83439 0.40805 0.0
C4614 C 0.38193 0.83962 0.39224 0.0
C4615 C 0.38025 0.82839 0.37904 0.0
C4616 C 0.37298 0.83343 0.36416 0.0
C4617 C 0.36722 0.84964 0.36238 0.0
C4618 C 0.36868 0.86083 0.37549 0.0
C4619 C 0.37596 0.85586 0.3904 0.0
H4620 H 0.36159 0.85351 0.35085 0.0
H4621 H 0.43004 0.80326 0.49589 0.0
H4622 H 0.17578 0.45341 0.37935 0.0
H4623 H 0.17414 0.43437 0.40278 0.0
H4624 H 0.1409 0.40296 0.37498 0.0
H4625 H 0.14167 0.42267 0.35191 0.0
H4626 H 0.13171 0.40211 0.40487 0.0
H4627 H 0.18416 0.3949 0.37897 0.0
H4628 H 0.21117 0.40314 0.36728 0.0
H4629 H 0.22652 0.42141 0.41481 0.0
H4630 H 0.19951 0.41347 0.42674 0.0
H4631 H 0.18176 0.339 0.46083 0.0
H4632 H 0.1782 0.35523 0.43558 0.0
H4633 H 0.14072 0.38464 0.45987 0.0
H4634 H 0.14351 0.3676 0.48477 0.0
H4635 H 0.18493 0.3844 0.42988 0.0
H4636 H 0.11535 0.40337 0.43299 0.0
H4637 H 0.08864 0.39135 0.44174 0.0
H4638 H 0.10792 0.34237 0.43444 0.0
H4639 H 0.13466 0.35409 0.42544 0.0
C4640 C 0.16803 0.4425 0.37833 0.0
C4641 C 0.15898 0.43937 0.36383 0.0
C4642 C 0.16716 0.43157 0.39167 0.0
C4643 C 0.15778 0.41695 0.39049 0.0
C4644 C 0.14829 0.4141 0.37617 0.0
C4645 C 0.14876 0.42532 0.36299 0.0
C4646 C 0.15829 0.40448 0.404 0.0
C4647 C 0.14334 0.39818 0.41031 0.0
C4648 C 0.17347 0.39895 0.41082 0.0
C4649 C 0.18976 0.40371 0.40371 0.0
C4650 C 0.19326 0.40076 0.3869 0.0
C4651 C 0.20857 0.40537 0.38024 0.0
C4652 C 0.22054 0.41283 0.39029 0.0
C4653 C 0.21723 0.41565 0.40704 0.0
C4654 C 0.20193 0.41108 0.41376 0.0
C4655 C 0.17258 0.34877 0.46064 0.0
C4656 C 0.16289 0.35208 0.47467 0.0
C4657 C 0.17058 0.35808 0.44624 0.0
C4658 C 0.15913 0.37116 0.44571 0.0
C4659 C 0.14934 0.37438 0.45975 0.0
C4660 C 0.151 0.36472 0.47402 0.0
C4661 C 0.15833 0.38205 0.4309 0.0
C4662 C 0.17326 0.38816 0.42438 0.0
C4663 C 0.14317 0.38678 0.42345 0.0
C4664 C 0.12706 0.37962 0.42869 0.0
C4665 C 0.11387 0.39004 0.43318 0.0
C4666 C 0.09872 0.38328 0.4382 0.0
C4667 C 0.0966 0.36611 0.4387 0.0
C4668 C 0.1096 0.35567 0.43412 0.0
C4669 C 0.12476 0.36236 0.42908 0.0
H4670 H 0.08487 0.3609 0.44259 0.0
H4671 H 0.23238 0.41638 0.38511 0.0
H4672 H 0.62818 0.55987 0.84473 0.0
H4673 H 0.60286 0.5764 0.84612 0.0
H4674 H 0.59967 0.57626 0.79279 0.0
H4675 H 0.62499 0.55988 0.79123 0.0
H4676 H 0.5941 0.60679 0.80563 0.0
H4677 H 0.5755 0.551 0.81515 0.0
H4678 H 0.5753 0.52386 0.82914 0.0
H4679 H 0.56247 0.54729 0.87509 0.0
H4680 H 0.56285 0.57463 0.86142 0.0
H4681 H 0.51186 0.63163 0.79268 0.0
H4682 H 0.53707 0.6151 0.79379 0.0
H4683 H 0.53675 0.61777 0.84714 0.0
H4684 H 0.51132 0.6342 0.8462 0.0
H4685 H 0.54448 0.58663 0.83586 0.0
H4686 H 0.56219 0.64245 0.82582 0.0
H4687 H 0.56226 0.66942 0.8115 0.0
H4688 H 0.57669 0.64569 0.76618 0.0
H4689 H 0.57648 0.61853 0.78018 0.0
C4690 C 0.62213 0.5634 0.83329 0.0
C4691 C 0.62858 0.55851 0.81786 0.0
C4692 C 0.60763 0.57278 0.83412 0.0
C4693 C 0.59934 0.57739 0.81956 0.0
C4694 C 0.6059 0.57279 0.80416 0.0
C4695 C 0.62035 0.56339 0.80331 0.0
C4696 C 0.5838 0.58703 0.8203 0.0
C4697 C 0.58319 0.60232 0.8121 0.0
C4698 C 0.56973 0.58132 0.82908 0.0
C4699 C 0.56939 0.56488 0.8373 0.0
C4700 C 0.57277 0.55039 0.82827 0.0
C4701 C 0.5726 0.53496 0.83613 0.0
C4702 C 0.56892 0.53386 0.853 0.0
C4703 C 0.56535 0.54817 0.86203 0.0
C4704 C 0.56553 0.56363 0.85423 0.0
C4705 C 0.51708 0.62868 0.80468 0.0
C4706 C 0.50964 0.63436 0.81935 0.0
C4707 C 0.53152 0.61926 0.80528 0.0
C4708 C 0.53889 0.61544 0.82054 0.0
C4709 C 0.53126 0.62065 0.83524 0.0
C4710 C 0.51677 0.63007 0.83467 0.0
C4711 C 0.55475 0.60631 0.82103 0.0
C4712 C 0.55542 0.59114 0.82948 0.0
C4713 C 0.56889 0.6121 0.81244 0.0
C4714 C 0.56918 0.62844 0.80402 0.0
C4715 C 0.56526 0.64297 0.81278 0.0
C4716 C 0.56534 0.65829 0.80472 0.0
C4717 C 0.56944 0.65927 0.78794 0.0
C4718 C 0.5735 0.64492 0.77918 0.0
C4719 C 0.57342 0.62956 0.78717 0.0
H4720 H 0.56949 0.67114 0.78172 0.0
H4721 H 0.5688 0.5219 0.85907 0.0
H4722 H 0.4264 0.62831 0.84438 0.0
H4723 H 0.40683 0.60531 0.84718 0.0
H4724 H 0.39812 0.60621 0.79448 0.0
H4725 H 0.4178 0.62895 0.79149 0.0
H4726 H 0.374 0.60008 0.83954 0.0
H4727 H 0.39682 0.56689 0.78041 0.0
H4728 H 0.42205 0.565 0.76326 0.0
H4729 H 0.45204 0.57698 0.80553 0.0
H4730 H 0.42702 0.57871 0.82297 0.0
H4731 H 0.34077 0.51836 0.79969 0.0
H4732 H 0.35566 0.54459 0.79888 0.0
H4733 H 0.36251 0.54255 0.85183 0.0
H4734 H 0.34742 0.51627 0.85283 0.0
H4735 H 0.38743 0.54948 0.80741 0.0
H4736 H 0.3645 0.58287 0.86646 0.0
H4737 H 0.33929 0.58462 0.88365 0.0
H4738 H 0.30935 0.57179 0.8416 0.0
H4739 H 0.33433 0.5702 0.82412 0.0
C4740 C 0.42019 0.62373 0.8334 0.0
C4741 C 0.42384 0.6303 0.81767 0.0
C4742 C 0.40898 0.61063 0.83504 0.0
C4743 C 0.40127 0.60391 0.821 0.0
C4744 C 0.40418 0.61105 0.80543 0.0
C4745 C 0.41543 0.62405 0.80376 0.0
C4746 C 0.39102 0.58878 0.82241 0.0
C4747 C 0.377 0.58893 0.83268 0.0
C4748 C 0.39486 0.57436 0.81325 0.0
C4749 C 0.41003 0.57309 0.80294 0.0
C4750 C 0.40881 0.56905 0.78605 0.0
C4751 C 0.42307 0.56802 0.77628 0.0
C4752 C 0.43863 0.57092 0.78329 0.0
C4753 C 0.43997 0.5748 0.8001 0.0
C4754 C 0.42576 0.57582 0.80993 0.0
C4755 C 0.34531 0.52351 0.81121 0.0
C4756 C 0.34298 0.51516 0.82633 0.0
C4757 C 0.35383 0.53851 0.81071 0.0
C4758 C 0.36013 0.54552 0.82529 0.0
C4759 C 0.35756 0.53743 0.84046 0.0
C4760 C 0.34901 0.52238 0.84099 0.0
C4761 C 0.37024 0.56078 0.82438 0.0
C4762 C 0.38435 0.56062 0.81425 0.0
C4763 C 0.36646 0.57513 0.83368 0.0
C4764 C 0.35132 0.57624 0.84404 0.0
C4765 C 0.35253 0.58048 0.86088 0.0
C4766 C 0.33828 0.58144 0.87067 0.0
C4767 C 0.32274 0.57826 0.86374 0.0
C4768 C 0.3214 0.57418 0.84697 0.0
C4769 C 0.33561 0.57322 0.83712 0.0
H4770 H 0.31173 0.579 0.87134 0.0
H4771 H 0.44965 0.57013 0.7757 0.0
H4772 H 0.36483 0.43327 0.85195 0.0
H4773 H 0.38985 0.41633 0.85366 0.0
H4774 H 0.38969 0.41059 0.80055 0.0
H4775 H 0.36464 0.42736 0.79869 0.0
H4776 H 0.39591 0.38153 0.81628 0.0
H4777 H 0.41539 0.43788 0.81856 0.0
H4778 H 0.41679 0.46633 0.82954 0.0
H4779 H 0.43229 0.44762 0.87685 0.0
H4780 H 0.43075 0.41902 0.8662 0.0
H4781 H 0.47746 0.35735 0.79857 0.0
H4782 H 0.45177 0.37299 0.80071 0.0
H4783 H 0.45663 0.37413 0.8539 0.0
H4784 H 0.48252 0.35848 0.85191 0.0
H4785 H 0.44754 0.40446 0.8406 0.0
H4786 H 0.42989 0.34802 0.83744 0.0
H4787 H 0.42895 0.31975 0.82595 0.0
H4788 H 0.41023 0.33874 0.77995 0.0
H4789 H 0.41129 0.36717 0.79107 0.0
C4790 C 0.37007 0.42835 0.84063 0.0
C4791 C 0.36277 0.43172 0.82517 0.0
C4792 C 0.3844 0.41873 0.84163 0.0
C4793 C 0.39169 0.41236 0.82721 0.0
C4794 C 0.38425 0.41541 0.81182 0.0
C4795 C 0.36996 0.42504 0.81079 0.0
C4796 C 0.40719 0.40265 0.82805 0.0
C4797 C 0.40723 0.38658 0.82148 0.0
C4798 C 0.42183 0.40913 0.83522 0.0
C4799 C 0.42276 0.42631 0.84164 0.0
C4800 C 0.41895 0.43983 0.83134 0.0
C4801 C 0.4198 0.45598 0.8375 0.0
C4802 C 0.42457 0.45878 0.85389 0.0
C4803 C 0.42856 0.44543 0.86416 0.0
C4804 C 0.42771 0.42925 0.85807 0.0
C4805 C 0.47314 0.36094 0.81075 0.0
C4806 C 0.48202 0.35658 0.82509 0.0
C4807 C 0.45841 0.36983 0.81194 0.0
C4808 C 0.45222 0.3745 0.82747 0.0
C4809 C 0.4612 0.37055 0.8418 0.0
C4810 C 0.47596 0.36159 0.84064 0.0
C4811 C 0.4363 0.38345 0.82861 0.0
C4812 C 0.43617 0.39935 0.83557 0.0
C4813 C 0.42158 0.37684 0.82176 0.0
C4814 C 0.4208 0.35974 0.81505 0.0
C4815 C 0.42569 0.34619 0.82483 0.0
C4816 C 0.42511 0.33013 0.81839 0.0
C4817 C 0.41956 0.32746 0.80222 0.0
C4818 C 0.41454 0.34083 0.79247 0.0
C4819 C 0.4151 0.35692 0.79884 0.0
H4820 H 0.41913 0.31502 0.79725 0.0
H4821 H 0.42523 0.4713 0.85864 0.0
H4822 H 0.57408 0.36554 0.79613 0.0
H4823 H 0.59444 0.38753 0.8001 0.0
H4824 H 0.58588 0.38619 0.85281 0.0
H4825 H 0.56539 0.36417 0.84898 0.0
H4826 H 0.5845 0.41764 0.84003 0.0
H4827 H 0.62152 0.37161 0.83805 0.0
H4828 H 0.63354 0.34591 0.82684 0.0
H4829 H 0.64693 0.37135 0.78209 0.0
H4830 H 0.63477 0.39716 0.79293 0.0
H4831 H 0.64763 0.47795 0.85202 0.0
H4832 H 0.63269 0.45168 0.85446 0.0
H4833 H 0.6367 0.44443 0.80168 0.0
H4834 H 0.65176 0.47045 0.79912 0.0
H4835 H 0.642 0.41589 0.81839 0.0
H4836 H 0.60187 0.46018 0.81814 0.0
H4837 H 0.5893 0.48613 0.82817 0.0
H4838 H 0.58122 0.46407 0.87589 0.0
H4839 H 0.59395 0.43805 0.8662 0.0
C4840 C 0.5766 0.36981 0.80859 0.0
C4841 C 0.56808 0.36313 0.82223 0.0
C4842 C 0.58831 0.38231 0.81084 0.0
C4843 C 0.59175 0.38836 0.82676 0.0
C4844 C 0.58342 0.38163 0.84043 0.0
C4845 C 0.57175 0.36903 0.83821 0.0
C4846 C 0.60333 0.40239 0.8289 0.0
C4847 C 0.5972 0.41716 0.83565 0.0
C4848 C 0.61976 0.40181 0.82284 0.0
C4849 C 0.62712 0.38631 0.81627 0.0
C4850 C 0.62691 0.3717 0.82577 0.0
C4851 C 0.63377 0.35712 0.81949 0.0
C4852 C 0.64097 0.35699 0.80375 0.0
C4853 C 0.64134 0.37147 0.79428 0.0
C4854 C 0.63449 0.38608 0.80049 0.0
C4855 C 0.64547 0.47069 0.84096 0.0
C4856 C 0.65076 0.47638 0.82535 0.0
C4857 C 0.63691 0.45571 0.84237 0.0
C4858 C 0.63345 0.44623 0.82822 0.0
C4859 C 0.63925 0.45157 0.81275 0.0
C4860 C 0.64779 0.4665 0.81131 0.0
C4861 C 0.62306 0.43118 0.82925 0.0
C4862 C 0.62941 0.41625 0.82307 0.0
C4863 C 0.60677 0.43164 0.83569 0.0
C4864 C 0.59904 0.44725 0.84151 0.0
C4865 C 0.59753 0.46091 0.83081 0.0
C4866 C 0.59036 0.47562 0.83643 0.0
C4867 C 0.58452 0.47677 0.85267 0.0
C4868 C 0.58578 0.46318 0.86332 0.0
C4869 C 0.59297 0.44845 0.85777 0.0
H4870 H 0.57897 0.48817 0.857 0.0
H4871 H 0.64627 0.34569 0.79891 0.0
H4872 H 0.5147 0.35349 0.13985 0.0
H4873 H 0.54056 0.36918 0.13693 0.0
H4874 H 0.54286 0.37537 0.18994 0.0
H4875 H 0.51717 0.3599 0.193 0.0
H4876 H 0.54826 0.40428 0.17352 0.0
H4877 H 0.56705 0.34745 0.17096 0.0
H4878 H 0.56773 0.31912 0.15962 0.0
H4879 H 0.58255 0.33818 0.11222 0.0
H4880 H 0.58173 0.36667 0.12324 0.0
H4881 H 0.6293 0.42774 0.19207 0.0
H4882 H 0.60408 0.4113 0.18951 0.0
H4883 H 0.60918 0.4113 0.13634 0.0
H4884 H 0.63457 0.42775 0.13874 0.0
H4885 H 0.59943 0.38056 0.14915 0.0
H4886 H 0.58295 0.43722 0.15236 0.0
H4887 H 0.5825 0.46553 0.16378 0.0
H4888 H 0.56317 0.44695 0.20971 0.0
H4889 H 0.56375 0.41849 0.19866 0.0
C4890 C 0.52074 0.35818 0.15088 0.0
C4891 C 0.51386 0.35544 0.16666 0.0
C4892 C 0.53552 0.36709 0.14919 0.0
C4893 C 0.54361 0.37337 0.16324 0.0
C4894 C 0.53677 0.37066 0.17895 0.0
C4895 C 0.52209 0.36175 0.18066 0.0
C4896 C 0.55915 0.38297 0.16178 0.0
C4897 C 0.55948 0.39906 0.16829 0.0
C4898 C 0.57361 0.37631 0.15448 0.0
C4899 C 0.57413 0.3592 0.14787 0.0
C4900 C 0.57031 0.34561 0.15808 0.0
C4901 C 0.57075 0.32952 0.15172 0.0
C4902 C 0.57513 0.32686 0.1352 0.0
C4903 C 0.57913 0.34027 0.12501 0.0
C4904 C 0.57868 0.35639 0.13131 0.0
C4905 C 0.62518 0.42414 0.17982 0.0
C4906 C 0.63387 0.42919 0.1656 0.0
C4907 C 0.61074 0.41479 0.17838 0.0
C4908 C 0.60468 0.41034 0.16273 0.0
C4909 C 0.61366 0.41471 0.14852 0.0
C4910 C 0.62812 0.42413 0.14993 0.0
C4911 C 0.58861 0.40167 0.16131 0.0
C4912 C 0.58816 0.38583 0.1542 0.0
C4913 C 0.57399 0.40856 0.16804 0.0
C4914 C 0.57352 0.42569 0.17471 0.0
C4915 C 0.57872 0.43915 0.16494 0.0
C4916 C 0.57843 0.45523 0.17134 0.0
C4917 C 0.57284 0.45803 0.18747 0.0
C4918 C 0.56751 0.44476 0.19722 0.0
C4919 C 0.5678 0.42865 0.19089 0.0
H4920 H 0.57261 0.47048 0.19239 0.0
H4921 H 0.57547 0.31439 0.13029 0.0
H4922 H 0.64707 0.51584 0.19009 0.0
H4923 H 0.62966 0.54045 0.18948 0.0
H4924 H 0.62741 0.53783 0.13617 0.0
H4925 H 0.64501 0.51318 0.1366 0.0
H4926 H 0.63227 0.56971 0.14766 0.0
H4927 H 0.59541 0.52425 0.15804 0.0
H4928 H 0.58563 0.49909 0.17236 0.0
H4929 H 0.58181 0.52618 0.21794 0.0
H4930 H 0.59179 0.55145 0.20395 0.0
H4931 H 0.56394 0.62561 0.14115 0.0
H4932 H 0.58233 0.60168 0.13893 0.0
H4933 H 0.58525 0.59885 0.19221 0.0
H4934 H 0.56672 0.62254 0.19458 0.0
H4935 H 0.5794 0.56911 0.179 0.0
H4936 H 0.61734 0.61407 0.16929 0.0
H4937 H 0.62767 0.63928 0.15546 0.0
H4938 H 0.6298 0.61332 0.10911 0.0
H4939 H 0.61927 0.58801 0.12263 0.0
C4940 C 0.64296 0.52049 0.17821 0.0
C4941 C 0.64733 0.51246 0.16339 0.0
C4942 C 0.63296 0.53454 0.17789 0.0
C4943 C 0.62707 0.54077 0.1628 0.0
C4944 C 0.6318 0.53313 0.14795 0.0
C4945 C 0.64182 0.51904 0.14823 0.0
C4946 C 0.61572 0.55511 0.16264 0.0
C4947 C 0.62058 0.56953 0.15428 0.0
C4948 C 0.60063 0.55488 0.17155 0.0
C4949 C 0.59448 0.53972 0.17996 0.0
C4950 C 0.5926 0.52481 0.17114 0.0
C4951 C 0.587 0.51053 0.1792 0.0
C4952 C 0.58314 0.51103 0.19605 0.0
C4953 C 0.58482 0.52581 0.20488 0.0
C4954 C 0.59043 0.54012 0.19689 0.0
C4955 C 0.56856 0.61995 0.1524 0.0
C4956 C 0.56384 0.62598 0.16805 0.0
C4957 C 0.57911 0.60632 0.1511 0.0
C4958 C 0.58523 0.59857 0.16541 0.0
C4959 C 0.58064 0.60464 0.18102 0.0
C4960 C 0.57007 0.61821 0.18234 0.0
C4961 C 0.59605 0.58385 0.16422 0.0
C4962 C 0.59105 0.5693 0.17229 0.0
C4963 C 0.61101 0.58399 0.15509 0.0
C4964 C 0.61734 0.5992 0.14694 0.0
C4965 C 0.61987 0.61378 0.15612 0.0
C4966 C 0.62579 0.62808 0.14834 0.0
C4967 C 0.62934 0.62792 0.13141 0.0
C4968 C 0.62702 0.61344 0.12222 0.0
C4969 C 0.62109 0.59911 0.12994 0.0
H4970 H 0.63392 0.639 0.12541 0.0
H4971 H 0.57882 0.49998 0.20228 0.0
H4972 H 0.47725 0.64215 0.13893 0.0
H4973 H 0.44947 0.63004 0.1379 0.0
H4974 H 0.44708 0.63077 0.19127 0.0
H4975 H 0.47463 0.64305 0.19245 0.0
H4976 H 0.43858 0.60108 0.1501 0.0
H4977 H 0.40771 0.6376 0.20388 0.0
H4978 H 0.40912 0.66537 0.21652 0.0
H4979 H 0.4269 0.68568 0.1707 0.0
H4980 H 0.42534 0.65811 0.1577 0.0
H4981 H 0.36086 0.57668 0.19778 0.0
H4982 H 0.38448 0.5953 0.19442 0.0
H4983 H 0.37936 0.59246 0.14133 0.0
H4984 H 0.35584 0.57368 0.14452 0.0
H4985 H 0.39031 0.62528 0.17944 0.0
H4986 H 0.41835 0.58885 0.12503 0.0
H4987 H 0.41747 0.56077 0.113 0.0
H4988 H 0.40627 0.54032 0.1608 0.0
H4989 H 0.4073 0.56824 0.17314 0.0
C4990 C 0.4708 0.63977 0.15045 0.0
C4991 C 0.47816 0.64358 0.16578 0.0
C4992 C 0.45493 0.63287 0.14983 0.0
C4993 C 0.44614 0.62975 0.16449 0.0
C4994 C 0.45352 0.6334 0.17979 0.0
C4995 C 0.46933 0.64031 0.18044 0.0
C4996 C 0.42953 0.622 0.16394 0.0
C4997 C 0.42793 0.60655 0.1562 0.0
C4998 C 0.41576 0.62901 0.17221 0.0
C4999 C 0.41651 0.64573 0.17985 0.0
C5000 C 0.41183 0.64801 0.19647 0.0
C5001 C 0.41266 0.66371 0.2037 0.0
C5002 C 0.41809 0.67727 0.19442 0.0
C5003 C 0.42271 0.67516 0.17788 0.0
C5004 C 0.42187 0.65949 0.17058 0.0
C5005 C 0.36459 0.58018 0.18538 0.0
C5006 C 0.35661 0.57349 0.17141 0.0
C5007 C 0.37805 0.59088 0.1835 0.0
C5008 C 0.38378 0.59504 0.16764 0.0
C5009 C 0.37524 0.5892 0.15367 0.0
C5010 C 0.36179 0.57848 0.15554 0.0
C5011 C 0.39947 0.60432 0.16577 0.0
C5012 C 0.40091 0.62 0.1731 0.0
C5013 C 0.41314 0.59752 0.15718 0.0
C5014 C 0.41269 0.58065 0.14994 0.0
C5015 C 0.41574 0.57835 0.13297 0.0
C5016 C 0.41521 0.56246 0.1261 0.0
C5017 C 0.41175 0.54877 0.13612 0.0
C5018 C 0.40888 0.55094 0.15304 0.0
C5019 C 0.40941 0.56679 0.15997 0.0
H5020 H 0.41134 0.53649 0.13078 0.0
H5021 H 0.41872 0.68942 0.20004 0.0
H5022 H 0.42963 0.37716 0.19864 0.0
H5023 H 0.41193 0.40124 0.19477 0.0
H5024 H 0.41058 0.39212 0.14214 0.0
H5025 H 0.42859 0.36805 0.14586 0.0
H5026 H 0.41621 0.42444 0.14883 0.0
H5027 H 0.37699 0.38349 0.16569 0.0
H5028 H 0.36559 0.36112 0.18309 0.0
H5029 H 0.36408 0.39397 0.22485 0.0
H5030 H 0.37569 0.41649 0.20776 0.0
H5031 H 0.35207 0.48592 0.13973 0.0
H5032 H 0.36827 0.46032 0.1385 0.0
H5033 H 0.3748 0.46186 0.19151 0.0
H5034 H 0.35856 0.48717 0.1929 0.0
H5035 H 0.36463 0.43189 0.18137 0.0
H5036 H 0.40612 0.47198 0.16512 0.0
H5037 H 0.41755 0.49442 0.14781 0.0
H5038 H 0.41464 0.46317 0.10489 0.0
H5039 H 0.40295 0.44061 0.12192 0.0
C5040 C 0.42551 0.38017 0.18624 0.0
C5041 C 0.4305 0.37064 0.17256 0.0
C5042 C 0.41534 0.39393 0.18405 0.0
C5043 C 0.40979 0.39834 0.16819 0.0
C5044 C 0.41471 0.38888 0.15449 0.0
C5045 C 0.42495 0.37511 0.15666 0.0
C5046 C 0.39918 0.41312 0.166 0.0
C5047 C 0.40476 0.42597 0.15569 0.0
C5048 C 0.38438 0.41515 0.17514 0.0
C5049 C 0.37732 0.40165 0.18545 0.0
C5050 C 0.37434 0.38591 0.17861 0.0
C5051 C 0.36782 0.37321 0.18841 0.0
C5052 C 0.36414 0.37611 0.20507 0.0
C5053 C 0.36694 0.39174 0.21195 0.0
C5054 C 0.37347 0.40448 0.2022 0.0
C5055 C 0.35708 0.48087 0.1511 0.0
C5056 C 0.35395 0.48855 0.16642 0.0
C5057 C 0.36635 0.46627 0.15037 0.0
C5058 C 0.37272 0.45922 0.16493 0.0
C5059 C 0.3699 0.46705 0.18015 0.0
C5060 C 0.36064 0.48156 0.1809 0.0
C5061 C 0.3819 0.44338 0.16457 0.0
C5062 C 0.37599 0.43029 0.17436 0.0
C5063 C 0.39637 0.44116 0.15496 0.0
C5064 C 0.40348 0.45468 0.14475 0.0
C5065 C 0.40778 0.46994 0.15196 0.0
C5066 C 0.41433 0.48267 0.14221 0.0
C5067 C 0.41677 0.48024 0.12525 0.0
C5068 C 0.41271 0.46505 0.11802 0.0
C5069 C 0.40613 0.45228 0.12772 0.0
H5070 H 0.42184 0.49011 0.11773 0.0
H5071 H 0.3591 0.36626 0.21264 0.0
H5072 H 0.85571 0.51278 0.64156 0.0
H5073 H 0.85704 0.53862 0.62571 0.0
H5074 H 0.80388 0.54315 0.62865 0.0
H5075 H 0.80238 0.51742 0.64427 0.0
H5076 H 0.81505 0.54674 0.59737 0.0
H5077 H 0.82874 0.56766 0.65161 0.0
H5078 H 0.84484 0.56899 0.67754 0.0
H5079 H 0.88887 0.58042 0.64995 0.0
H5080 H 0.87306 0.57893 0.62383 0.0
H5081 H 0.7986 0.62681 0.57049 0.0
H5082 H 0.80203 0.60306 0.58875 0.0
H5083 H 0.85478 0.60395 0.58036 0.0
H5084 H 0.85152 0.62798 0.56211 0.0
H5085 H 0.84653 0.59712 0.61324 0.0
H5086 H 0.83245 0.5774 0.55909 0.0
H5087 H 0.81621 0.57621 0.53325 0.0
H5088 H 0.77288 0.56225 0.56077 0.0
H5089 H 0.7888 0.5636 0.58681 0.0
C5090 C 0.84432 0.51934 0.63893 0.0
C5091 C 0.82893 0.51298 0.6441 0.0
C5092 C 0.84512 0.53413 0.62993 0.0
C5093 C 0.83055 0.54277 0.62605 0.0
C5094 C 0.81525 0.53661 0.63147 0.0
C5095 C 0.81444 0.5219 0.64043 0.0
C5096 C 0.831 0.55784 0.61566 0.0
C5097 C 0.8218 0.5578 0.60093 0.0
C5098 C 0.84026 0.57206 0.62007 0.0
C5099 C 0.84976 0.57299 0.63576 0.0
C5100 C 0.84189 0.57031 0.65106 0.0
C5101 C 0.85095 0.57112 0.6658 0.0
C5102 C 0.86787 0.57474 0.66539 0.0
C5103 C 0.87576 0.57759 0.65025 0.0
C5104 C 0.86675 0.57677 0.63548 0.0
C5105 C 0.81097 0.62209 0.5726 0.0
C5106 C 0.82477 0.62917 0.56466 0.0
C5107 C 0.8129 0.6085 0.58304 0.0
C5108 C 0.82862 0.60161 0.58565 0.0
C5109 C 0.84254 0.60908 0.57842 0.0
C5110 C 0.84064 0.62276 0.56797 0.0
C5111 C 0.83023 0.58609 0.59521 0.0
C5112 C 0.83987 0.586 0.60967 0.0
C5113 C 0.82139 0.57169 0.59058 0.0
C5114 C 0.8118 0.57073 0.57492 0.0
C5115 C 0.81943 0.57419 0.55965 0.0
C5116 C 0.81028 0.57347 0.54496 0.0
C5117 C 0.79352 0.56919 0.54537 0.0
C5118 C 0.78587 0.56558 0.56047 0.0
C5119 C 0.79495 0.5663 0.5752 0.0
H5120 H 0.78646 0.56864 0.53399 0.0
H5121 H 0.87487 0.57537 0.67681 0.0
H5122 H 0.85356 0.47663 0.34805 0.0
H5123 H 0.85455 0.45037 0.36315 0.0
H5124 H 0.80131 0.44668 0.3605 0.0
H5125 H 0.80015 0.47288 0.34559 0.0
H5126 H 0.8126 0.44117 0.3914 0.0
H5127 H 0.8254 0.42278 0.33626 0.0
H5128 H 0.84091 0.42266 0.30996 0.0
H5129 H 0.88552 0.41008 0.33603 0.0
H5130 H 0.87031 0.41036 0.36253 0.0
H5131 H 0.79888 0.35991 0.41725 0.0
H5132 H 0.80091 0.38379 0.3989 0.0
H5133 H 0.85388 0.38492 0.40574 0.0
H5134 H 0.85203 0.36084 0.42408 0.0
H5135 H 0.8443 0.39183 0.37314 0.0
H5136 H 0.83128 0.40994 0.42824 0.0
H5137 H 0.81563 0.41004 0.45446 0.0
H5138 H 0.77131 0.42338 0.42827 0.0
H5139 H 0.78666 0.42311 0.40184 0.0
C5140 C 0.84207 0.4702 0.35063 0.0
C5141 C 0.82677 0.47688 0.34565 0.0
C5142 C 0.84267 0.45516 0.35918 0.0
C5143 C 0.828 0.44656 0.36284 0.0
C5144 C 0.81276 0.45315 0.3578 0.0
C5145 C 0.81214 0.46813 0.34925 0.0
C5146 C 0.82837 0.43098 0.37247 0.0
C5147 C 0.81938 0.43032 0.3873 0.0
C5148 C 0.83759 0.41701 0.36732 0.0
C5149 C 0.84675 0.41677 0.3514 0.0
C5150 C 0.83855 0.42013 0.3364 0.0
C5151 C 0.84728 0.42 0.32145 0.0
C5152 C 0.8642 0.41641 0.32133 0.0
C5153 C 0.87242 0.41288 0.33615 0.0
C5154 C 0.86374 0.41301 0.35113 0.0
C5155 C 0.81101 0.36508 0.41473 0.0
C5156 C 0.82528 0.35859 0.42231 0.0
C5157 C 0.81213 0.37874 0.40424 0.0
C5158 C 0.8275 0.38626 0.40122 0.0
C5159 C 0.8419 0.3793 0.408 0.0
C5160 C 0.8408 0.36558 0.4185 0.0
C5161 C 0.82831 0.40199 0.39189 0.0
C5162 C 0.83757 0.40271 0.37721 0.0
C5163 C 0.81932 0.41607 0.39715 0.0
C5164 C 0.81009 0.41636 0.41304 0.0
C5165 C 0.81817 0.41277 0.42805 0.0
C5166 C 0.80936 0.41287 0.44296 0.0
C5167 C 0.79248 0.41667 0.44303 0.0
C5168 C 0.78439 0.42042 0.42819 0.0
C5169 C 0.79313 0.4203 0.41325 0.0
H5170 H 0.78568 0.41675 0.45458 0.0
H5171 H 0.87094 0.41631 0.30974 0.0
H5172 H 0.52306 0.80021 0.34158 0.0
H5173 H 0.54963 0.80316 0.35551 0.0
H5174 H 0.54497 0.85634 0.3537 0.0
H5175 H 0.51809 0.85352 0.33996 0.0
H5176 H 0.57882 0.81734 0.34828 0.0
H5177 H 0.56065 0.87187 0.39004 0.0
H5178 H 0.53559 0.88502 0.40158 0.0
H5179 H 0.50999 0.8384 0.39995 0.0
H5180 H 0.53495 0.82497 0.3886 0.0
H5181 H 0.63158 0.85063 0.4236 0.0
H5182 H 0.6109 0.85463 0.40182 0.0
H5183 H 0.6055 0.8017 0.3971 0.0
H5184 H 0.6262 0.79756 0.41868 0.0
H5185 H 0.57891 0.84517 0.40305 0.0
H5186 H 0.59538 0.79157 0.35788 0.0
H5187 H 0.62024 0.77746 0.34717 0.0
H5188 H 0.64944 0.82089 0.35674 0.0
H5189 H 0.62473 0.83535 0.36728 0.0
C5190 C 0.52769 0.81256 0.34401 0.0
C5191 C 0.51833 0.82664 0.33984 0.0
C5192 C 0.54295 0.81422 0.3519 0.0
C5193 C 0.54918 0.82995 0.3558 0.0
C5194 C 0.54026 0.84407 0.35099 0.0
C5195 C 0.52492 0.84243 0.34313 0.0
C5196 C 0.56446 0.83134 0.36584 0.0
C5197 C 0.57887 0.8234 0.36027 0.0
C5198 C 0.56461 0.83961 0.38129 0.0
C5199 C 0.54958 0.84749 0.38827 0.0
C5200 C 0.54967 0.86444 0.39218 0.0
C5201 C 0.53549 0.87194 0.39869 0.0
C5202 C 0.52119 0.86257 0.40143 0.0
C5203 C 0.52105 0.84566 0.39775 0.0
C5204 C 0.53521 0.83811 0.39126 0.0
C5205 C 0.62614 0.83983 0.41779 0.0
C5206 C 0.6305 0.82377 0.42293 0.0
C5207 C 0.61433 0.84215 0.40536 0.0
C5208 C 0.6068 0.82847 0.39775 0.0
C5209 C 0.61138 0.81244 0.4026 0.0
C5210 C 0.62314 0.8101 0.41504 0.0
C5211 C 0.59319 0.83082 0.38569 0.0
C5212 C 0.57905 0.83944 0.3909 0.0
C5213 C 0.59327 0.82305 0.36999 0.0
C5214 C 0.6082 0.81451 0.36349 0.0
C5215 C 0.60709 0.79815 0.35762 0.0
C5216 C 0.62116 0.79008 0.3516 0.0
C5217 C 0.63642 0.79826 0.35131 0.0
C5218 C 0.63762 0.81455 0.35701 0.0
C5219 C 0.62359 0.82268 0.36304 0.0
H5220 H 0.6473 0.79199 0.34665 0.0
H5221 H 0.51022 0.86839 0.40645 0.0
H5222 H 0.18414 0.63181 0.41635 0.0
H5223 H 0.17858 0.61092 0.39527 0.0
H5224 H 0.12659 0.612 0.40751 0.0
H5225 H 0.13203 0.63288 0.42877 0.0
H5226 H 0.13867 0.58078 0.40674 0.0
H5227 H 0.13929 0.62763 0.37103 0.0
H5228 H 0.14988 0.65366 0.35907 0.0
H5229 H 0.19376 0.62862 0.34257 0.0
H5230 H 0.18355 0.60248 0.35464 0.0
H5231 H 0.12666 0.52016 0.34387 0.0
H5232 H 0.12341 0.54663 0.35829 0.0
H5233 H 0.17587 0.55574 0.35366 0.0
H5234 H 0.17922 0.52956 0.33914 0.0
H5235 H 0.15818 0.58374 0.34854 0.0
H5236 H 0.16014 0.53899 0.38864 0.0
H5237 H 0.15058 0.51283 0.4012 0.0
H5238 H 0.10264 0.53411 0.40983 0.0
H5239 H 0.11188 0.56035 0.39711 0.0
C5240 C 0.17149 0.62773 0.41449 0.0
C5241 C 0.15854 0.63397 0.4243 0.0
C5242 C 0.16832 0.61587 0.40234 0.0
C5243 C 0.15215 0.61005 0.39972 0.0
C5244 C 0.13914 0.6164 0.40931 0.0
C5245 C 0.14229 0.62833 0.42144 0.0
C5246 C 0.14914 0.59644 0.38782 0.0
C5247 C 0.14254 0.58156 0.39389 0.0
C5248 C 0.15448 0.5974 0.37116 0.0
C5249 C 0.16068 0.6131 0.36384 0.0
C5250 C 0.15125 0.62769 0.36496 0.0
C5251 C 0.15718 0.64246 0.35814 0.0
C5252 C 0.17249 0.6428 0.35009 0.0
C5253 C 0.1819 0.62835 0.34881 0.0
C5254 C 0.17603 0.61354 0.35562 0.0
C5255 C 0.13747 0.5279 0.34575 0.0
C5256 C 0.15324 0.52266 0.34052 0.0
C5257 C 0.13559 0.54299 0.354 0.0
C5258 C 0.14944 0.55303 0.35718 0.0
C5259 C 0.16503 0.54817 0.35132 0.0
C5260 C 0.16692 0.53313 0.34311 0.0
C5261 C 0.14811 0.56803 0.3676 0.0
C5262 C 0.15393 0.58314 0.36127 0.0
C5263 C 0.14216 0.56727 0.38406 0.0
C5264 C 0.13662 0.55154 0.39174 0.0
C5265 C 0.14752 0.53804 0.3931 0.0
C5266 C 0.14217 0.52321 0.40026 0.0
C5267 C 0.126 0.52179 0.40626 0.0
C5268 C 0.11515 0.53522 0.40514 0.0
C5269 C 0.12044 0.55007 0.39796 0.0
H5270 H 0.12188 0.5103 0.4118 0.0
H5271 H 0.17706 0.65425 0.34481 0.0
H5272 H 0.46736 0.1827 0.34375 0.0
H5273 H 0.44307 0.18122 0.36155 0.0
H5274 H 0.45075 0.1288 0.36821 0.0
H5275 H 0.47511 0.13009 0.35013 0.0
H5276 H 0.4178 0.13662 0.36366 0.0
H5277 H 0.46259 0.15458 0.3981 0.0
H5278 H 0.48661 0.17179 0.40588 0.0
H5279 H 0.45593 0.21517 0.40573 0.0
H5280 H 0.43176 0.19825 0.39771 0.0
H5281 H 0.36334 0.13415 0.43419 0.0
H5282 H 0.38667 0.1312 0.41508 0.0
H5283 H 0.38582 0.18379 0.40573 0.0
H5284 H 0.36276 0.1869 0.42494 0.0
H5285 H 0.41633 0.17346 0.4128 0.0
H5286 H 0.37187 0.15575 0.377 0.0
H5287 H 0.34788 0.13865 0.36889 0.0
H5288 H 0.37783 0.09484 0.37165 0.0
H5289 H 0.40196 0.11167 0.37999 0.0
C5290 C 0.4639 0.17081 0.34892 0.0
C5291 C 0.47328 0.15653 0.34564 0.0
C5292 C 0.45002 0.17001 0.35912 0.0
C5293 C 0.4453 0.15496 0.3664 0.0
C5294 C 0.45427 0.14055 0.36275 0.0
C5295 C 0.46818 0.14132 0.35246 0.0
C5296 C 0.43126 0.15453 0.37815 0.0
C5297 C 0.41755 0.14445 0.37456 0.0
C5298 C 0.4309 0.16494 0.39223 0.0
C5299 C 0.44539 0.17515 0.39718 0.0
C5300 C 0.46099 0.1678 0.39961 0.0
C5301 C 0.47463 0.17751 0.40408 0.0
C5302 C 0.4728 0.19457 0.40626 0.0
C5303 C 0.45732 0.20195 0.40402 0.0
C5304 C 0.44365 0.19231 0.39954 0.0
C5305 C 0.36803 0.14506 0.42796 0.0
C5306 C 0.36124 0.16078 0.43116 0.0
C5307 C 0.38132 0.14334 0.41699 0.0
C5308 C 0.38793 0.15727 0.40895 0.0
C5309 C 0.38094 0.17289 0.41186 0.0
C5310 C 0.36773 0.17463 0.42283 0.0
C5311 C 0.40265 0.15585 0.39812 0.0
C5312 C 0.41657 0.16553 0.40195 0.0
C5313 C 0.40316 0.14508 0.38431 0.0
C5314 C 0.38867 0.13495 0.37931 0.0
C5315 C 0.3733 0.14246 0.37602 0.0
C5316 C 0.35969 0.13282 0.37135 0.0
C5317 C 0.36131 0.11566 0.36981 0.0
C5318 C 0.37658 0.10812 0.37288 0.0
C5319 C 0.39023 0.11771 0.37757 0.0
H5320 H 0.35076 0.10822 0.36619 0.0
H5321 H 0.48338 0.20206 0.40972 0.0
H5322 H 0.19476 0.47855 0.63754 0.0
H5323 H 0.19374 0.45414 0.61984 0.0
H5324 H 0.14095 0.45063 0.62715 0.0
H5325 H 0.14178 0.47523 0.64494 0.0
H5326 H 0.1582 0.4199 0.62991 0.0
H5327 H 0.15269 0.4653 0.59247 0.0
H5328 H 0.15986 0.49241 0.58036 0.0
H5329 H 0.20773 0.47393 0.5665 0.0
H5330 H 0.20094 0.44677 0.57876 0.0
H5331 H 0.14763 0.36235 0.56328 0.0
H5332 H 0.14512 0.38603 0.58195 0.0
H5333 H 0.19698 0.39706 0.57522 0.0
H5334 H 0.19962 0.37351 0.55645 0.0
H5335 H 0.17769 0.42444 0.57178 0.0
H5336 H 0.18358 0.37949 0.61056 0.0
H5337 H 0.17655 0.35259 0.62321 0.0
H5338 H 0.12778 0.37036 0.63469 0.0
H5339 H 0.13446 0.3973 0.6219 0.0
C5340 C 0.18291 0.47259 0.63548 0.0
C5341 C 0.16833 0.47888 0.6426 0.0
C5342 C 0.18237 0.45867 0.62532 0.0
C5343 C 0.16726 0.45073 0.62211 0.0
C5344 C 0.15271 0.45666 0.62949 0.0
C5345 C 0.15321 0.47072 0.63958 0.0
C5346 C 0.1668 0.43639 0.61079 0.0
C5347 C 0.16216 0.42089 0.61711 0.0
C5348 C 0.17226 0.43776 0.59421 0.0
C5349 C 0.17635 0.45403 0.58667 0.0
C5350 C 0.1648 0.46705 0.58696 0.0
C5351 C 0.16878 0.48242 0.58005 0.0
C5352 C 0.18426 0.4849 0.5727 0.0
C5353 C 0.19576 0.472 0.57221 0.0
C5354 C 0.19184 0.4566 0.57912 0.0
C5355 C 0.15854 0.36976 0.56583 0.0
C5356 C 0.17383 0.36605 0.55836 0.0
C5357 C 0.15708 0.38325 0.57654 0.0
C5358 C 0.17088 0.39323 0.58 0.0
C5359 C 0.18617 0.3895 0.57267 0.0
C5360 C 0.18766 0.376 0.56199 0.0
C5361 C 0.16935 0.40783 0.59095 0.0
C5362 C 0.17359 0.42342 0.58454 0.0
C5363 C 0.1635 0.40654 0.60743 0.0
C5364 C 0.15946 0.39034 0.6151 0.0
C5365 C 0.17131 0.37761 0.61564 0.0
C5366 C 0.1674 0.36236 0.62287 0.0
C5367 C 0.15171 0.35975 0.62971 0.0
C5368 C 0.13992 0.37239 0.62937 0.0
C5369 C 0.14376 0.38765 0.62214 0.0
H5370 H 0.14871 0.34794 0.63531 0.0
H5371 H 0.18732 0.49682 0.56737 0.0
H5372 H 0.624 0.19317 0.56137 0.0
H5373 H 0.60221 0.18919 0.58188 0.0
H5374 H 0.60868 0.13627 0.57889 0.0
H5375 H 0.63043 0.1401 0.55814 0.0
H5376 H 0.57645 0.1448 0.57724 0.0
H5377 H 0.62216 0.15724 0.6127 0.0
H5378 H 0.64636 0.17299 0.62267 0.0
H5379 H 0.61567 0.21559 0.63077 0.0
H5380 H 0.59131 0.20017 0.62063 0.0
H5381 H 0.51906 0.13359 0.64371 0.0
H5382 H 0.54451 0.13245 0.62726 0.0
H5383 H 0.54601 0.18582 0.62563 0.0
H5384 H 0.52091 0.18711 0.64226 0.0
H5385 H 0.576 0.17366 0.63147 0.0
H5386 H 0.53143 0.16272 0.5929 0.0
H5387 H 0.50703 0.14763 0.58237 0.0
H5388 H 0.53551 0.10284 0.57974 0.0
H5389 H 0.56004 0.11764 0.59046 0.0
C5390 C 0.62089 0.18067 0.56511 0.0
C5391 C 0.62897 0.16695 0.5581 0.0
C5392 C 0.60848 0.17842 0.57692 0.0
C5393 C 0.60398 0.16244 0.58205 0.0
C5394 C 0.61203 0.14871 0.57513 0.0
C5395 C 0.62446 0.15093 0.5633 0.0
C5396 C 0.59034 0.16014 0.5941 0.0
C5397 C 0.57648 0.15082 0.58925 0.0
C5398 C 0.59029 0.16826 0.60962 0.0
C5399 C 0.60492 0.17757 0.61579 0.0
C5400 C 0.62058 0.17 0.61649 0.0
C5401 C 0.63433 0.17886 0.6222 0.0
C5402 C 0.63256 0.19529 0.62732 0.0
C5403 C 0.61702 0.20287 0.62679 0.0
C5404 C 0.60324 0.19406 0.62109 0.0
C5405 C 0.52484 0.14508 0.63988 0.0
C5406 C 0.5179 0.16044 0.64424 0.0
C5407 C 0.53936 0.1444 0.63046 0.0
C5408 C 0.54706 0.15906 0.6251 0.0
C5409 C 0.54029 0.17436 0.62967 0.0
C5410 C 0.52588 0.17506 0.63913 0.0
C5411 C 0.56198 0.15863 0.61445 0.0
C5412 C 0.57608 0.16743 0.61957 0.0
C5413 C 0.56222 0.15012 0.59914 0.0
C5414 C 0.5475 0.14123 0.59266 0.0
C5415 C 0.53245 0.14962 0.5902 0.0
C5416 C 0.5186 0.14113 0.58418 0.0
C5417 C 0.5197 0.12428 0.58044 0.0
C5418 C 0.53467 0.11589 0.58267 0.0
C5419 C 0.54855 0.12432 0.58871 0.0
H5420 H 0.50897 0.11772 0.57578 0.0
H5421 H 0.64322 0.20213 0.63174 0.0
H5422 H 0.46906 0.80592 0.64636 0.0
H5423 H 0.44374 0.80655 0.63001 0.0
H5424 H 0.44755 0.85964 0.62574 0.0
H5425 H 0.47299 0.85921 0.6423 0.0
H5426 H 0.41524 0.84881 0.63174 0.0
H5427 H 0.45952 0.83707 0.59416 0.0
H5428 H 0.4844 0.82254 0.58411 0.0
H5429 H 0.45735 0.77676 0.58262 0.0
H5430 H 0.43235 0.79097 0.5929 0.0
H5431 H 0.35883 0.85227 0.5627 0.0
H5432 H 0.38218 0.85543 0.58177 0.0
H5433 H 0.38454 0.80241 0.58773 0.0
H5434 H 0.3614 0.7991 0.56863 0.0
H5435 H 0.41428 0.81539 0.58019 0.0
H5436 H 0.37022 0.82697 0.61862 0.0
H5437 H 0.34539 0.84146 0.62886 0.0
H5438 H 0.37191 0.88758 0.62859 0.0
H5439 H 0.39686 0.87339 0.61812 0.0
C5440 C 0.46452 0.81778 0.64205 0.0
C5441 C 0.47316 0.83251 0.64551 0.0
C5442 C 0.45004 0.81809 0.63268 0.0
C5443 C 0.44394 0.83311 0.62648 0.0
C5444 C 0.45213 0.84793 0.63038 0.0
C5445 C 0.46668 0.84764 0.63979 0.0
C5446 C 0.42932 0.8331 0.61545 0.0
C5447 C 0.41507 0.84173 0.62032 0.0
C5448 C 0.4291 0.82364 0.60071 0.0
C5449 C 0.4441 0.81507 0.59444 0.0
C5450 C 0.45891 0.82388 0.59181 0.0
C5451 C 0.47303 0.8157 0.58605 0.0
C5452 C 0.47247 0.79873 0.58276 0.0
C5453 C 0.45777 0.7899 0.58518 0.0
C5454 C 0.44362 0.79801 0.59096 0.0
C5455 C 0.36419 0.84129 0.56822 0.0
C5456 C 0.35831 0.82542 0.56406 0.0
C5457 C 0.3775 0.84313 0.57915 0.0
C5458 C 0.38505 0.82915 0.58616 0.0
C5459 C 0.3789 0.81335 0.5824 0.0
C5460 C 0.36564 0.8115 0.57149 0.0
C5461 C 0.40002 0.83081 0.59662 0.0
C5462 C 0.41442 0.82253 0.59156 0.0
C5463 C 0.40033 0.8406 0.61114 0.0
C5464 C 0.38535 0.84915 0.61741 0.0
C5465 C 0.37072 0.84023 0.6206 0.0
C5466 C 0.35663 0.84838 0.62647 0.0
C5467 C 0.35706 0.86544 0.62933 0.0
C5468 C 0.37159 0.87437 0.62635 0.0
C5469 C 0.38571 0.86628 0.62045 0.0
H5470 H 0.34614 0.87172 0.63388 0.0
H5471 H 0.48341 0.79243 0.5783 0.0
loop_
_geom_bond_atom_site_label_1
_geom_bond_atom_site_label_2
_geom_bond_distance
_geom_bond_site_symmetry_2
_ccdc_geom_bond_type
C0 O1 1.306 . S
C0 O3 1.160 . S
O1 C0 1.306 . S
O1 Cd2 2.228 . S
Cd2 O1 2.228 . S
Cd2 O6 2.273 . S
Cd2 O10 2.277 . S
O3 C0 1.160 . S
O3 Cd4 2.203 . S
Cd4 O3 2.203 . S
Cd4 O6 2.411 . S
Cd4 O7 2.333 . S
Cd4 O8 2.352 . S
Cd4 O12 2.277 . S
Cd4 O13 2.356 . S
C5 O10 1.209 . S
C5 O12 1.226 . S
O6 Cd2 2.273 . S
O6 Cd4 2.411 . S
O6 C9 1.320 . S
O7 Cd4 2.333 . S
O7 C9 1.214 . S
O8 Cd4 2.352 . S
O8 C11 1.258 . S
C9 O6 1.320 . S
C9 O7 1.214 . S
O10 Cd2 2.277 . S
O10 C5 1.209 . S
C11 O8 1.258 . S
C11 O13 1.282 . S
O12 Cd4 2.277 . S
O12 C5 1.226 . S
O13 Cd4 2.356 . S
O13 C11 1.282 . S
C14 O15 1.306 . S
C14 O17 1.160 . S
O15 C14 1.306 . S
O15 Cd16 2.228 . S
Cd16 O15 2.228 . S
Cd16 O20 2.273 . S
Cd16 O24 2.277 . S
O17 C14 1.160 . S
O17 Cd18 2.203 . S
Cd18 O17 2.203 . S
Cd18 O20 2.411 . S
Cd18 O21 2.333 . S
Cd18 O22 2.352 . S
Cd18 O26 2.277 . S
Cd18 O27 2.356 . S
C19 O24 1.209 . S
C19 O26 1.226 . S
O20 Cd16 2.273 . S
O20 Cd18 2.411 . S
O20 C23 1.320 . S
O21 Cd18 2.333 . S
O21 C23 1.214 . S
O22 Cd18 2.352 . S
O22 C25 1.258 . S
C23 O20 1.320 . S
C23 O21 1.214 . S
O24 Cd16 2.277 . S
O24 C19 1.209 . S
C25 O22 1.258 . S
C25 O27 1.282 . S
O26 Cd18 2.277 . S
O26 C19 1.226 . S
O27 Cd18 2.356 . S
O27 C25 1.282 . S
C28 O29 1.306 . S
C28 O31 1.160 . S
O29 C28 1.306 . S
O29 Cd30 2.228 . S
Cd30 O29 2.228 . S
Cd30 O34 2.273 . S
Cd30 O38 2.277 . S
O31 C28 1.160 . S
O31 Cd32 2.203 . S
Cd32 O31 2.203 . S
Cd32 O34 2.411 . S
Cd32 O35 2.333 . S
Cd32 O36 2.352 . S
Cd32 O40 2.277 . S
Cd32 O41 2.356 . S
C33 O38 1.209 . S
C33 O40 1.226 . S
O34 Cd30 2.273 . S
O34 Cd32 2.411 . S
O34 C37 1.320 . S
O35 Cd32 2.333 . S
O35 C37 1.214 . S
O36 Cd32 2.352 . S
O36 C39 1.258 . S
C37 O34 1.320 . S
C37 O35 1.214 . S
O38 Cd30 2.277 . S
O38 C33 1.209 . S
C39 O36 1.258 . S
C39 O41 1.282 . S
O40 Cd32 2.277 . S
O40 C33 1.226 . S
O41 Cd32 2.356 . S
O41 C39 1.282 . S
C42 O43 1.306 . S
C42 O45 1.160 . S
O43 C42 1.306 . S
O43 Cd44 2.228 . S
Cd44 O43 2.228 . S
Cd44 O48 2.273 . S
Cd44 O52 2.277 . S
O45 C42 1.160 . S
O45 Cd46 2.203 . S
Cd46 O45 2.203 . S
Cd46 O48 2.411 . S
Cd46 O49 2.333 . S
Cd46 O50 2.352 . S
Cd46 O54 2.277 . S
Cd46 O55 2.356 . S
C47 O52 1.209 . S
C47 O54 1.226 . S
O48 Cd44 2.273 . S
O48 Cd46 2.411 . S
O48 C51 1.320 . S
O49 Cd46 2.333 . S
O49 C51 1.214 . S
O50 Cd46 2.352 . S
O50 C53 1.258 . S
C51 O48 1.320 . S
C51 O49 1.214 . S
O52 Cd44 2.277 . S
O52 C47 1.209 . S
C53 O50 1.258 . S
C53 O55 1.282 . S
O54 Cd46 2.277 . S
O54 C47 1.226 . S
O55 Cd46 2.356 . S
O55 C53 1.282 . S
C56 O57 1.306 . S
C56 O59 1.160 . S
O57 C56 1.306 . S
O57 Cd58 2.228 . S
Cd58 O57 2.228 . S
Cd58 O62 2.273 . S
Cd58 O66 2.277 . S
O59 C56 1.160 . S
O59 Cd60 2.203 . S
Cd60 O59 2.203 . S
Cd60 O62 2.411 . S
Cd60 O63 2.333 . S
Cd60 O64 2.352 . S
Cd60 O68 2.277 . S
Cd60 O69 2.356 . S
C61 O66 1.209 . S
C61 O68 1.226 . S
O62 Cd58 2.273 . S
O62 Cd60 2.411 . S
O62 C65 1.320 . S
O63 Cd60 2.333 . S
O63 C65 1.214 . S
O64 Cd60 2.352 . S
O64 C67 1.258 . S
C65 O62 1.320 . S
C65 O63 1.214 . S
O66 Cd58 2.277 . S
O66 C61 1.209 . S
C67 O64 1.258 . S
C67 O69 1.282 . S
O68 Cd60 2.277 . S
O68 C61 1.226 . S
O69 Cd60 2.356 . S
O69 C67 1.282 . S
C70 O71 1.306 . S
C70 O73 1.160 . S
O71 C70 1.306 . S
O71 Cd72 2.228 . S
Cd72 O71 2.228 . S
Cd72 O76 2.273 . S
Cd72 O80 2.277 . S
O73 C70 1.160 . S
O73 Cd74 2.203 . S
Cd74 O73 2.203 . S
Cd74 O76 2.411 . S
Cd74 O77 2.333 . S
Cd74 O78 2.352 . S
Cd74 O82 2.277 . S
Cd74 O83 2.356 . S
C75 O80 1.209 . S
C75 O82 1.226 . S
O76 Cd72 2.273 . S
O76 Cd74 2.411 . S
O76 C79 1.320 . S
O77 Cd74 2.333 . S
O77 C79 1.214 . S
O78 Cd74 2.352 . S
O78 C81 1.258 . S
C79 O76 1.320 . S
C79 O77 1.214 . S
O80 Cd72 2.277 . S
O80 C75 1.209 . S
C81 O78 1.258 . S
C81 O83 1.282 . S
O82 Cd74 2.277 . S
O82 C75 1.226 . S
O83 Cd74 2.356 . S
O83 C81 1.282 . S
C84 O85 1.306 . S
C84 O87 1.160 . S
O85 C84 1.306 . S
O85 Cd86 2.228 . S
Cd86 O85 2.228 . S
Cd86 O90 2.273 . S
Cd86 O94 2.277 . S
O87 C84 1.160 . S
O87 Cd88 2.203 . S
Cd88 O87 2.203 . S
Cd88 O90 2.411 . S
Cd88 O91 2.333 . S
Cd88 O92 2.352 . S
Cd88 O96 2.277 . S
Cd88 O97 2.356 . S
C89 O94 1.209 . S
C89 O96 1.226 . S
O90 Cd86 2.273 . S
O90 Cd88 2.411 . S
O90 C93 1.320 . S
O91 Cd88 2.333 . S
O91 C93 1.214 . S
O92 Cd88 2.352 . S
O92 C95 1.258 . S
C93 O90 1.320 . S
C93 O91 1.214 . S
O94 Cd86 2.277 . S
O94 C89 1.209 . S
C95 O92 1.258 . S
C95 O97 1.282 . S
O96 Cd88 2.277 . S
O96 C89 1.226 . S
O97 Cd88 2.356 . S
O97 C95 1.282 . S
C98 O99 1.306 . S
C98 O101 1.160 . S
O99 C98 1.306 . S
O99 Cd100 2.228 . S
Cd100 O99 2.228 . S
Cd100 O104 2.273 . S
Cd100 O108 2.277 . S
O101 C98 1.160 . S
O101 Cd102 2.203 . S
Cd102 O101 2.203 . S
Cd102 O104 2.411 . S
Cd102 O105 2.333 . S
Cd102 O106 2.352 . S
Cd102 O110 2.277 . S
Cd102 O111 2.356 . S
C103 O108 1.209 . S
C103 O110 1.226 . S
O104 Cd100 2.273 . S
O104 Cd102 2.411 . S
O104 C107 1.320 . S
O105 Cd102 2.333 . S
O105 C107 1.214 . S
O106 Cd102 2.352 . S
O106 C109 1.258 . S
C107 O104 1.320 . S
C107 O105 1.214 . S
O108 Cd100 2.277 . S
O108 C103 1.209 . S
C109 O106 1.258 . S
C109 O111 1.282 . S
O110 Cd102 2.277 . S
O110 C103 1.226 . S
O111 Cd102 2.356 . S
O111 C109 1.282 . S
C112 O113 1.306 . S
C112 O115 1.160 . S
O113 C112 1.306 . S
O113 Cd114 2.228 . S
Cd114 O113 2.228 . S
Cd114 O118 2.273 . S
Cd114 O122 2.277 . S
O115 C112 1.160 . S
O115 Cd116 2.203 . S
Cd116 O115 2.203 . S
Cd116 O118 2.411 . S
Cd116 O119 2.333 . S
Cd116 O120 2.352 . S
Cd116 O124 2.277 . S
Cd116 O125 2.356 . S
C117 O122 1.209 . S
C117 O124 1.226 . S
O118 Cd114 2.273 . S
O118 Cd116 2.411 . S
O118 C121 1.320 . S
O119 Cd116 2.333 . S
O119 C121 1.214 . S
O120 Cd116 2.352 . S
O120 C123 1.258 . S
C121 O118 1.320 . S
C121 O119 1.214 . S
O122 Cd114 2.277 . S
O122 C117 1.209 . S
C123 O120 1.258 . S
C123 O125 1.282 . S
O124 Cd116 2.277 . S
O124 C117 1.226 . S
O125 Cd116 2.356 . S
O125 C123 1.282 . S
C126 O127 1.306 . S
C126 O129 1.160 . S
O127 C126 1.306 . S
O127 Cd128 2.228 . S
Cd128 O127 2.228 . S
Cd128 O132 2.273 . S
Cd128 O136 2.277 . S
O129 C126 1.160 . S
O129 Cd130 2.203 . S
Cd130 O129 2.203 . S
Cd130 O132 2.411 . S
Cd130 O133 2.333 . S
Cd130 O134 2.352 . S
Cd130 O138 2.277 . S
Cd130 O139 2.356 . S
C131 O136 1.209 . S
C131 O138 1.226 . S
O132 Cd128 2.273 . S
O132 Cd130 2.411 . S
O132 C135 1.320 . S
O133 Cd130 2.333 . S
O133 C135 1.214 . S
O134 Cd130 2.352 . S
O134 C137 1.258 . S
C135 O132 1.320 . S
C135 O133 1.214 . S
O136 Cd128 2.277 . S
O136 C131 1.209 . S
C137 O134 1.258 . S
C137 O139 1.282 . S
O138 Cd130 2.277 . S
O138 C131 1.226 . S
O139 Cd130 2.356 . S
O139 C137 1.282 . S
C140 O141 1.306 . S
C140 O143 1.160 . S
O141 C140 1.306 . S
O141 Cd142 2.228 . S
Cd142 O141 2.228 . S
Cd142 O146 2.273 . S
Cd142 O150 2.277 . S
O143 C140 1.160 . S
O143 Cd144 2.203 . S
Cd144 O143 2.203 . S
Cd144 O146 2.411 . S
Cd144 O147 2.333 . S
Cd144 O148 2.352 . S
Cd144 O152 2.277 . S
Cd144 O153 2.356 . S
C145 O150 1.209 . S
C145 O152 1.226 . S
O146 Cd142 2.273 . S
O146 Cd144 2.411 . S
O146 C149 1.320 . S
O147 Cd144 2.333 . S
O147 C149 1.214 . S
O148 Cd144 2.352 . S
O148 C151 1.258 . S
C149 O146 1.320 . S
C149 O147 1.214 . S
O150 Cd142 2.277 . S
O150 C145 1.209 . S
C151 O148 1.258 . S
C151 O153 1.282 . S
O152 Cd144 2.277 . S
O152 C145 1.226 . S
O153 Cd144 2.356 . S
O153 C151 1.282 . S
C154 O155 1.306 . S
C154 O157 1.160 . S
O155 C154 1.306 . S
O155 Cd156 2.228 . S
Cd156 O155 2.228 . S
Cd156 O160 2.273 . S
Cd156 O164 2.277 . S
O157 C154 1.160 . S
O157 Cd158 2.203 . S
Cd158 O157 2.203 . S
Cd158 O160 2.411 . S
Cd158 O161 2.333 . S
Cd158 O162 2.352 . S
Cd158 O166 2.277 . S
Cd158 O167 2.356 . S
C159 O164 1.209 . S
C159 O166 1.226 . S
O160 Cd156 2.273 . S
O160 Cd158 2.411 . S
O160 C163 1.320 . S
O161 Cd158 2.333 . S
O161 C163 1.214 . S
O162 Cd158 2.352 . S
O162 C165 1.258 . S
C163 O160 1.320 . S
C163 O161 1.214 . S
O164 Cd156 2.277 . S
O164 C159 1.209 . S
C165 O162 1.258 . S
C165 O167 1.282 . S
O166 Cd158 2.277 . S
O166 C159 1.226 . S
O167 Cd158 2.356 . S
O167 C165 1.282 . S
C168 O169 1.306 . S
C168 O171 1.160 . S
O169 C168 1.306 . S
O169 Cd170 2.228 . S
Cd170 O169 2.228 . S
Cd170 O174 2.273 . S
Cd170 O178 2.277 . S
O171 C168 1.160 . S
O171 Cd172 2.203 . S
Cd172 O171 2.203 . S
Cd172 O174 2.411 . S
Cd172 O175 2.333 . S
Cd172 O176 2.352 . S
Cd172 O180 2.277 . S
Cd172 O181 2.356 . S
C173 O178 1.209 . S
C173 O180 1.226 . S
O174 Cd170 2.273 . S
O174 Cd172 2.411 . S
O174 C177 1.320 . S
O175 Cd172 2.333 . S
O175 C177 1.214 . S
O176 Cd172 2.352 . S
O176 C179 1.258 . S
C177 O174 1.320 . S
C177 O175 1.214 . S
O178 Cd170 2.277 . S
O178 C173 1.209 . S
C179 O176 1.258 . S
C179 O181 1.282 . S
O180 Cd172 2.277 . S
O180 C173 1.226 . S
O181 Cd172 2.356 . S
O181 C179 1.282 . S
C182 O183 1.306 . S
C182 O185 1.160 . S
O183 C182 1.306 . S
O183 Cd184 2.228 . S
Cd184 O183 2.228 . S
Cd184 O188 2.273 . S
Cd184 O192 2.277 . S
O185 C182 1.160 . S
O185 Cd186 2.203 . S
Cd186 O185 2.203 . S
Cd186 O188 2.411 . S
Cd186 O189 2.333 . S
Cd186 O190 2.352 . S
Cd186 O194 2.277 . S
Cd186 O195 2.356 . S
C187 O192 1.209 . S
C187 O194 1.226 . S
O188 Cd184 2.273 . S
O188 Cd186 2.411 . S
O188 C191 1.320 . S
O189 Cd186 2.333 . S
O189 C191 1.214 . S
O190 Cd186 2.352 . S
O190 C193 1.258 . S
C191 O188 1.320 . S
C191 O189 1.214 . S
O192 Cd184 2.277 . S
O192 C187 1.209 . S
C193 O190 1.258 . S
C193 O195 1.282 . S
O194 Cd186 2.277 . S
O194 C187 1.226 . S
O195 Cd186 2.356 . S
O195 C193 1.282 . S
C196 O197 1.306 . S
C196 O199 1.160 . S
O197 C196 1.306 . S
O197 Cd198 2.228 . S
Cd198 O197 2.228 . S
Cd198 O202 2.273 . S
Cd198 O206 2.277 . S
O199 C196 1.160 . S
O199 Cd200 2.203 . S
Cd200 O199 2.203 . S
Cd200 O202 2.411 . S
Cd200 O203 2.333 . S
Cd200 O204 2.352 . S
Cd200 O208 2.277 . S
Cd200 O209 2.356 . S
C201 O206 1.209 . S
C201 O208 1.226 . S
O202 Cd198 2.273 . S
O202 Cd200 2.411 . S
O202 C205 1.320 . S
O203 Cd200 2.333 . S
O203 C205 1.214 . S
O204 Cd200 2.352 . S
O204 C207 1.258 . S
C205 O202 1.320 . S
C205 O203 1.214 . S
O206 Cd198 2.277 . S
O206 C201 1.209 . S
C207 O204 1.258 . S
C207 O209 1.282 . S
O208 Cd200 2.277 . S
O208 C201 1.226 . S
O209 Cd200 2.356 . S
O209 C207 1.282 . S
C210 O211 1.306 . S
C210 O213 1.160 . S
O211 C210 1.306 . S
O211 Cd212 2.228 . S
Cd212 O211 2.228 . S
Cd212 O216 2.273 . S
Cd212 O220 2.277 . S
O213 C210 1.160 . S
O213 Cd214 2.203 . S
Cd214 O213 2.203 . S
Cd214 O216 2.411 . S
Cd214 O217 2.333 . S
Cd214 O218 2.352 . S
Cd214 O222 2.277 . S
Cd214 O223 2.356 . S
C215 O220 1.209 . S
C215 O222 1.226 . S
O216 Cd212 2.273 . S
O216 Cd214 2.411 . S
O216 C219 1.320 . S
O217 Cd214 2.333 . S
O217 C219 1.214 . S
O218 Cd214 2.352 . S
O218 C221 1.258 . S
C219 O216 1.320 . S
C219 O217 1.214 . S
O220 Cd212 2.277 . S
O220 C215 1.209 . S
C221 O218 1.258 . S
C221 O223 1.282 . S
O222 Cd214 2.277 . S
O222 C215 1.226 . S
O223 Cd214 2.356 . S
O223 C221 1.282 . S
C224 O225 1.306 . S
C224 O227 1.160 . S
O225 C224 1.306 . S
O225 Cd226 2.228 . S
Cd226 O225 2.228 . S
Cd226 O230 2.273 . S
Cd226 O234 2.277 . S
O227 C224 1.160 . S
O227 Cd228 2.203 . S
Cd228 O227 2.203 . S
Cd228 O230 2.411 . S
Cd228 O231 2.333 . S
Cd228 O232 2.352 . S
Cd228 O236 2.277 . S
Cd228 O237 2.356 . S
C229 O234 1.209 . S
C229 O236 1.226 . S
O230 Cd226 2.273 . S
O230 Cd228 2.411 . S
O230 C233 1.320 . S
O231 Cd228 2.333 . S
O231 C233 1.214 . S
O232 Cd228 2.352 . S
O232 C235 1.258 . S
C233 O230 1.320 . S
C233 O231 1.214 . S
O234 Cd226 2.277 . S
O234 C229 1.209 . S
C235 O232 1.258 . S
C235 O237 1.282 . S
O236 Cd228 2.277 . S
O236 C229 1.226 . S
O237 Cd228 2.356 . S
O237 C235 1.282 . S
C238 O239 1.306 . S
C238 O241 1.160 . S
O239 C238 1.306 . S
O239 Cd240 2.228 . S
Cd240 O239 2.228 . S
Cd240 O244 2.273 . S
Cd240 O248 2.277 . S
O241 C238 1.160 . S
O241 Cd242 2.203 . S
Cd242 O241 2.203 . S
Cd242 O244 2.411 . S
Cd242 O245 2.333 . S
Cd242 O246 2.352 . S
Cd242 O250 2.277 . S
Cd242 O251 2.356 . S
C243 O248 1.209 . S
C243 O250 1.226 . S
O244 Cd240 2.273 . S
O244 Cd242 2.411 . S
O244 C247 1.320 . S
O245 Cd242 2.333 . S
O245 C247 1.214 . S
O246 Cd242 2.352 . S
O246 C249 1.258 . S
C247 O244 1.320 . S
C247 O245 1.214 . S
O248 Cd240 2.277 . S
O248 C243 1.209 . S
C249 O246 1.258 . S
C249 O251 1.282 . S
O250 Cd242 2.277 . S
O250 C243 1.226 . S
O251 Cd242 2.356 . S
O251 C249 1.282 . S
C252 O253 1.306 . S
C252 O255 1.160 . S
O253 C252 1.306 . S
O253 Cd254 2.228 . S
Cd254 O253 2.228 . S
Cd254 O258 2.273 . S
Cd254 O262 2.277 . S
O255 C252 1.160 . S
O255 Cd256 2.203 . S
Cd256 O255 2.203 . S
Cd256 O258 2.411 . S
Cd256 O259 2.333 . S
Cd256 O260 2.352 . S
Cd256 O264 2.277 . S
Cd256 O265 2.356 . S
C257 O262 1.209 . S
C257 O264 1.226 . S
O258 Cd254 2.273 . S
O258 Cd256 2.411 . S
O258 C261 1.320 . S
O259 Cd256 2.333 . S
O259 C261 1.214 . S
O260 Cd256 2.352 . S
O260 C263 1.258 . S
C261 O258 1.320 . S
C261 O259 1.214 . S
O262 Cd254 2.277 . S
O262 C257 1.209 . S
C263 O260 1.258 . S
C263 O265 1.282 . S
O264 Cd256 2.277 . S
O264 C257 1.226 . S
O265 Cd256 2.356 . S
O265 C263 1.282 . S
C266 O267 1.306 . S
C266 O269 1.160 . S
O267 C266 1.306 . S
O267 Cd268 2.228 . S
Cd268 O267 2.228 . S
Cd268 O272 2.273 . S
Cd268 O276 2.277 . S
O269 C266 1.160 . S
O269 Cd270 2.203 . S
Cd270 O269 2.203 . S
Cd270 O272 2.411 . S
Cd270 O273 2.333 . S
Cd270 O274 2.352 . S
Cd270 O278 2.277 . S
Cd270 O279 2.356 . S
C271 O276 1.209 . S
C271 O278 1.226 . S
O272 Cd268 2.273 . S
O272 Cd270 2.411 . S
O272 C275 1.320 . S
O273 Cd270 2.333 . S
O273 C275 1.214 . S
O274 Cd270 2.352 . S
O274 C277 1.258 . S
C275 O272 1.320 . S
C275 O273 1.214 . S
O276 Cd268 2.277 . S
O276 C271 1.209 . S
C277 O274 1.258 . S
C277 O279 1.282 . S
O278 Cd270 2.277 . S
O278 C271 1.226 . S
O279 Cd270 2.356 . S
O279 C277 1.282 . S
C280 O281 1.306 . S
C280 O283 1.160 . S
O281 C280 1.306 . S
O281 Cd282 2.228 . S
Cd282 O281 2.228 . S
Cd282 O286 2.273 . S
Cd282 O290 2.277 . S
O283 C280 1.160 . S
O283 Cd284 2.203 . S
Cd284 O283 2.203 . S
Cd284 O286 2.411 . S
Cd284 O287 2.333 . S
Cd284 O288 2.352 . S
Cd284 O292 2.277 . S
Cd284 O293 2.356 . S
C285 O290 1.209 . S
C285 O292 1.226 . S
O286 Cd282 2.273 . S
O286 Cd284 2.411 . S
O286 C289 1.320 . S
O287 Cd284 2.333 . S
O287 C289 1.214 . S
O288 Cd284 2.352 . S
O288 C291 1.258 . S
C289 O286 1.320 . S
C289 O287 1.214 . S
O290 Cd282 2.277 . S
O290 C285 1.209 . S
C291 O288 1.258 . S
C291 O293 1.282 . S
O292 Cd284 2.277 . S
O292 C285 1.226 . S
O293 Cd284 2.356 . S
O293 C291 1.282 . S
C294 O295 1.306 . S
C294 O297 1.160 . S
O295 C294 1.306 . S
O295 Cd296 2.228 . S
Cd296 O295 2.228 . S
Cd296 O300 2.273 . S
Cd296 O304 2.277 . S
O297 C294 1.160 . S
O297 Cd298 2.203 . S
Cd298 O297 2.203 . S
Cd298 O300 2.411 . S
Cd298 O301 2.333 . S
Cd298 O302 2.352 . S
Cd298 O306 2.277 . S
Cd298 O307 2.356 . S
C299 O304 1.209 . S
C299 O306 1.226 . S
O300 Cd296 2.273 . S
O300 Cd298 2.411 . S
O300 C303 1.320 . S
O301 Cd298 2.333 . S
O301 C303 1.214 . S
O302 Cd298 2.352 . S
O302 C305 1.258 . S
C303 O300 1.320 . S
C303 O301 1.214 . S
O304 Cd296 2.277 . S
O304 C299 1.209 . S
C305 O302 1.258 . S
C305 O307 1.282 . S
O306 Cd298 2.277 . S
O306 C299 1.226 . S
O307 Cd298 2.356 . S
O307 C305 1.282 . S
C308 O309 1.306 . S
C308 O311 1.160 . S
O309 C308 1.306 . S
O309 Cd310 2.228 . S
Cd310 O309 2.228 . S
Cd310 O314 2.273 . S
Cd310 O318 2.277 . S
O311 C308 1.160 . S
O311 Cd312 2.203 . S
Cd312 O311 2.203 . S
Cd312 O314 2.411 . S
Cd312 O315 2.333 . S
Cd312 O316 2.352 . S
Cd312 O320 2.277 . S
Cd312 O321 2.356 . S
C313 O318 1.209 . S
C313 O320 1.226 . S
O314 Cd310 2.273 . S
O314 Cd312 2.411 . S
O314 C317 1.320 . S
O315 Cd312 2.333 . S
O315 C317 1.214 . S
O316 Cd312 2.352 . S
O316 C319 1.258 . S
C317 O314 1.320 . S
C317 O315 1.214 . S
O318 Cd310 2.277 . S
O318 C313 1.209 . S
C319 O316 1.258 . S
C319 O321 1.282 . S
O320 Cd312 2.277 . S
O320 C313 1.226 . S
O321 Cd312 2.356 . S
O321 C319 1.282 . S
C322 O323 1.306 . S
C322 O325 1.160 . S
O323 C322 1.306 . S
O323 Cd324 2.228 . S
Cd324 O323 2.228 . S
Cd324 O328 2.273 . S
Cd324 O332 2.277 . S
O325 C322 1.160 . S
O325 Cd326 2.203 . S
Cd326 O325 2.203 . S
Cd326 O328 2.411 . S
Cd326 O329 2.333 . S
Cd326 O330 2.352 . S
Cd326 O334 2.277 . S
Cd326 O335 2.356 . S
C327 O332 1.209 . S
C327 O334 1.226 . S
O328 Cd324 2.273 . S
O328 Cd326 2.411 . S
O328 C331 1.320 . S
O329 Cd326 2.333 . S
O329 C331 1.214 . S
O330 Cd326 2.352 . S
O330 C333 1.258 . S
C331 O328 1.320 . S
C331 O329 1.214 . S
O332 Cd324 2.277 . S
O332 C327 1.209 . S
C333 O330 1.258 . S
C333 O335 1.282 . S
O334 Cd326 2.277 . S
O334 C327 1.226 . S
O335 Cd326 2.356 . S
O335 C333 1.282 . S
C336 O337 1.306 . S
C336 O339 1.160 . S
O337 C336 1.306 . S
O337 Cd338 2.228 . S
Cd338 O337 2.228 . S
Cd338 O342 2.273 . S
Cd338 O346 2.277 . S
O339 C336 1.160 . S
O339 Cd340 2.203 . S
Cd340 O339 2.203 . S
Cd340 O342 2.411 . S
Cd340 O343 2.333 . S
Cd340 O344 2.352 . S
Cd340 O348 2.277 . S
Cd340 O349 2.356 . S
C341 O346 1.209 . S
C341 O348 1.226 . S
O342 Cd338 2.273 . S
O342 Cd340 2.411 . S
O342 C345 1.320 . S
O343 Cd340 2.333 . S
O343 C345 1.214 . S
O344 Cd340 2.352 . S
O344 C347 1.258 . S
C345 O342 1.320 . S
C345 O343 1.214 . S
O346 Cd338 2.277 . S
O346 C341 1.209 . S
C347 O344 1.258 . S
C347 O349 1.282 . S
O348 Cd340 2.277 . S
O348 C341 1.226 . S
O349 Cd340 2.356 . S
O349 C347 1.282 . S
C350 O351 1.306 . S
C350 O353 1.160 . S
O351 C350 1.306 . S
O351 Cd352 2.228 . S
Cd352 O351 2.228 . S
Cd352 O356 2.273 . S
Cd352 O360 2.277 . S
O353 C350 1.160 . S
O353 Cd354 2.203 . S
Cd354 O353 2.203 . S
Cd354 O356 2.411 . S
Cd354 O357 2.333 . S
Cd354 O358 2.352 . S
Cd354 O362 2.277 . S
Cd354 O363 2.356 . S
C355 O360 1.209 . S
C355 O362 1.226 . S
O356 Cd352 2.273 . S
O356 Cd354 2.411 . S
O356 C359 1.320 . S
O357 Cd354 2.333 . S
O357 C359 1.214 . S
O358 Cd354 2.352 . S
O358 C361 1.258 . S
C359 O356 1.320 . S
C359 O357 1.214 . S
O360 Cd352 2.277 . S
O360 C355 1.209 . S
C361 O358 1.258 . S
C361 O363 1.282 . S
O362 Cd354 2.277 . S
O362 C355 1.226 . S
O363 Cd354 2.356 . S
O363 C361 1.282 . S
C364 O365 1.306 . S
C364 O367 1.160 . S
O365 C364 1.306 . S
O365 Cd366 2.228 . S
Cd366 O365 2.228 . S
Cd366 O370 2.273 . S
Cd366 O374 2.277 . S
O367 C364 1.160 . S
O367 Cd368 2.203 . S
Cd368 O367 2.203 . S
Cd368 O370 2.411 . S
Cd368 O371 2.333 . S
Cd368 O372 2.352 . S
Cd368 O376 2.277 . S
Cd368 O377 2.356 . S
C369 O374 1.209 . S
C369 O376 1.226 . S
O370 Cd366 2.273 . S
O370 Cd368 2.411 . S
O370 C373 1.320 . S
O371 Cd368 2.333 . S
O371 C373 1.214 . S
O372 Cd368 2.352 . S
O372 C375 1.258 . S
C373 O370 1.320 . S
C373 O371 1.214 . S
O374 Cd366 2.277 . S
O374 C369 1.209 . S
C375 O372 1.258 . S
C375 O377 1.282 . S
O376 Cd368 2.277 . S
O376 C369 1.226 . S
O377 Cd368 2.356 . S
O377 C375 1.282 . S
C378 O379 1.306 . S
C378 O381 1.160 . S
O379 C378 1.306 . S
O379 Cd380 2.228 . S
Cd380 O379 2.228 . S
Cd380 O384 2.273 . S
Cd380 O388 2.277 . S
O381 C378 1.160 . S
O381 Cd382 2.203 . S
Cd382 O381 2.203 . S
Cd382 O384 2.411 . S
Cd382 O385 2.333 . S
Cd382 O386 2.352 . S
Cd382 O390 2.277 . S
Cd382 O391 2.356 . S
C383 O388 1.209 . S
C383 O390 1.226 . S
O384 Cd380 2.273 . S
O384 Cd382 2.411 . S
O384 C387 1.320 . S
O385 Cd382 2.333 . S
O385 C387 1.214 . S
O386 Cd382 2.352 . S
O386 C389 1.258 . S
C387 O384 1.320 . S
C387 O385 1.214 . S
O388 Cd380 2.277 . S
O388 C383 1.209 . S
C389 O386 1.258 . S
C389 O391 1.282 . S
O390 Cd382 2.277 . S
O390 C383 1.226 . S
O391 Cd382 2.356 . S
O391 C389 1.282 . S
C392 O393 1.306 . S
C392 O395 1.160 . S
O393 C392 1.306 . S
O393 Cd394 2.228 . S
Cd394 O393 2.228 . S
Cd394 O398 2.273 . S
Cd394 O402 2.277 . S
O395 C392 1.160 . S
O395 Cd396 2.203 . S
Cd396 O395 2.203 . S
Cd396 O398 2.411 . S
Cd396 O399 2.333 . S
Cd396 O400 2.352 . S
Cd396 O404 2.277 . S
Cd396 O405 2.356 . S
C397 O402 1.209 . S
C397 O404 1.226 . S
O398 Cd394 2.273 . S
O398 Cd396 2.411 . S
O398 C401 1.320 . S
O399 Cd396 2.333 . S
O399 C401 1.214 . S
O400 Cd396 2.352 . S
O400 C403 1.258 . S
C401 O398 1.320 . S
C401 O399 1.214 . S
O402 Cd394 2.277 . S
O402 C397 1.209 . S
C403 O400 1.258 . S
C403 O405 1.282 . S
O404 Cd396 2.277 . S
O404 C397 1.226 . S
O405 Cd396 2.356 . S
O405 C403 1.282 . S
C406 O407 1.306 . S
C406 O409 1.160 . S
O407 C406 1.306 . S
O407 Cd408 2.228 . S
Cd408 O407 2.228 . S
Cd408 O412 2.273 . S
Cd408 O416 2.277 . S
O409 C406 1.160 . S
O409 Cd410 2.203 . S
Cd410 O409 2.203 . S
Cd410 O412 2.411 . S
Cd410 O413 2.333 . S
Cd410 O414 2.352 . S
Cd410 O418 2.277 . S
Cd410 O419 2.356 . S
C411 O416 1.209 . S
C411 O418 1.226 . S
O412 Cd408 2.273 . S
O412 Cd410 2.411 . S
O412 C415 1.320 . S
O413 Cd410 2.333 . S
O413 C415 1.214 . S
O414 Cd410 2.352 . S
O414 C417 1.258 . S
C415 O412 1.320 . S
C415 O413 1.214 . S
O416 Cd408 2.277 . S
O416 C411 1.209 . S
C417 O414 1.258 . S
C417 O419 1.282 . S
O418 Cd410 2.277 . S
O418 C411 1.226 . S
O419 Cd410 2.356 . S
O419 C417 1.282 . S
C420 O421 1.306 . S
C420 O423 1.160 . S
O421 C420 1.306 . S
O421 Cd422 2.228 . S
Cd422 O421 2.228 . S
Cd422 O426 2.273 . S
Cd422 O430 2.277 . S
O423 C420 1.160 . S
O423 Cd424 2.203 . S
Cd424 O423 2.203 . S
Cd424 O426 2.411 . S
Cd424 O427 2.333 . S
Cd424 O428 2.352 . S
Cd424 O432 2.277 . S
Cd424 O433 2.356 . S
C425 O430 1.209 . S
C425 O432 1.226 . S
O426 Cd422 2.273 . S
O426 Cd424 2.411 . S
O426 C429 1.320 . S
O427 Cd424 2.333 . S
O427 C429 1.214 . S
O428 Cd424 2.352 . S
O428 C431 1.258 . S
C429 O426 1.320 . S
C429 O427 1.214 . S
O430 Cd422 2.277 . S
O430 C425 1.209 . S
C431 O428 1.258 . S
C431 O433 1.282 . S
O432 Cd424 2.277 . S
O432 C425 1.226 . S
O433 Cd424 2.356 . S
O433 C431 1.282 . S
C434 O435 1.306 . S
C434 O437 1.160 . S
O435 C434 1.306 . S
O435 Cd436 2.228 . S
Cd436 O435 2.228 . S
Cd436 O440 2.273 . S
Cd436 O444 2.277 . S
O437 C434 1.160 . S
O437 Cd438 2.203 . S
Cd438 O437 2.203 . S
Cd438 O440 2.411 . S
Cd438 O441 2.333 . S
Cd438 O442 2.352 . S
Cd438 O446 2.277 . S
Cd438 O447 2.356 . S
C439 O444 1.209 . S
C439 O446 1.226 . S
O440 Cd436 2.273 . S
O440 Cd438 2.411 . S
O440 C443 1.320 . S
O441 Cd438 2.333 . S
O441 C443 1.214 . S
O442 Cd438 2.352 . S
O442 C445 1.258 . S
C443 O440 1.320 . S
C443 O441 1.214 . S
O444 Cd436 2.277 . S
O444 C439 1.209 . S
C445 O442 1.258 . S
C445 O447 1.282 . S
O446 Cd438 2.277 . S
O446 C439 1.226 . S
O447 Cd438 2.356 . S
O447 C445 1.282 . S
C448 O449 1.306 . S
C448 O451 1.160 . S
O449 C448 1.306 . S
O449 Cd450 2.228 . S
Cd450 O449 2.228 . S
Cd450 O454 2.273 . S
Cd450 O458 2.277 . S
O451 C448 1.160 . S
O451 Cd452 2.203 . S
Cd452 O451 2.203 . S
Cd452 O454 2.411 . S
Cd452 O455 2.333 . S
Cd452 O456 2.352 . S
Cd452 O460 2.277 . S
Cd452 O461 2.356 . S
C453 O458 1.209 . S
C453 O460 1.226 . S
O454 Cd450 2.273 . S
O454 Cd452 2.411 . S
O454 C457 1.320 . S
O455 Cd452 2.333 . S
O455 C457 1.214 . S
O456 Cd452 2.352 . S
O456 C459 1.258 . S
C457 O454 1.320 . S
C457 O455 1.214 . S
O458 Cd450 2.277 . S
O458 C453 1.209 . S
C459 O456 1.258 . S
C459 O461 1.282 . S
O460 Cd452 2.277 . S
O460 C453 1.226 . S
O461 Cd452 2.356 . S
O461 C459 1.282 . S
C462 O463 1.306 . S
C462 O465 1.160 . S
O463 C462 1.306 . S
O463 Cd464 2.228 . S
Cd464 O463 2.228 . S
Cd464 O468 2.273 . S
Cd464 O472 2.277 . S
O465 C462 1.160 . S
O465 Cd466 2.203 . S
Cd466 O465 2.203 . S
Cd466 O468 2.411 . S
Cd466 O469 2.333 . S
Cd466 O470 2.352 . S
Cd466 O474 2.277 . S
Cd466 O475 2.356 . S
C467 O472 1.209 . S
C467 O474 1.226 . S
O468 Cd464 2.273 . S
O468 Cd466 2.411 . S
O468 C471 1.320 . S
O469 Cd466 2.333 . S
O469 C471 1.214 . S
O470 Cd466 2.352 . S
O470 C473 1.258 . S
C471 O468 1.320 . S
C471 O469 1.214 . S
O472 Cd464 2.277 . S
O472 C467 1.209 . S
C473 O470 1.258 . S
C473 O475 1.282 . S
O474 Cd466 2.277 . S
O474 C467 1.226 . S
O475 Cd466 2.356 . S
O475 C473 1.282 . S
C476 O477 1.306 . S
C476 O479 1.160 . S
O477 C476 1.306 . S
O477 Cd478 2.228 . S
Cd478 O477 2.228 . S
Cd478 O482 2.273 . S
Cd478 O486 2.277 . S
O479 C476 1.160 . S
O479 Cd480 2.203 . S
Cd480 O479 2.203 . S
Cd480 O482 2.411 . S
Cd480 O483 2.333 . S
Cd480 O484 2.352 . S
Cd480 O488 2.277 . S
Cd480 O489 2.356 . S
C481 O486 1.209 . S
C481 O488 1.226 . S
O482 Cd478 2.273 . S
O482 Cd480 2.411 . S
O482 C485 1.320 . S
O483 Cd480 2.333 . S
O483 C485 1.214 . S
O484 Cd480 2.352 . S
O484 C487 1.258 . S
C485 O482 1.320 . S
C485 O483 1.214 . S
O486 Cd478 2.277 . S
O486 C481 1.209 . S
C487 O484 1.258 . S
C487 O489 1.282 . S
O488 Cd480 2.277 . S
O488 C481 1.226 . S
O489 Cd480 2.356 . S
O489 C487 1.282 . S
C490 O491 1.306 . S
C490 O493 1.160 . S
O491 C490 1.306 . S
O491 Cd492 2.228 . S
Cd492 O491 2.228 . S
Cd492 O496 2.273 . S
Cd492 O500 2.277 . S
O493 C490 1.160 . S
O493 Cd494 2.203 . S
Cd494 O493 2.203 . S
Cd494 O496 2.411 . S
Cd494 O497 2.333 . S
Cd494 O498 2.352 . S
Cd494 O502 2.277 . S
Cd494 O503 2.356 . S
C495 O500 1.209 . S
C495 O502 1.226 . S
O496 Cd492 2.273 . S
O496 Cd494 2.411 . S
O496 C499 1.320 . S
O497 Cd494 2.333 . S
O497 C499 1.214 . S
O498 Cd494 2.352 . S
O498 C501 1.258 . S
C499 O496 1.320 . S
C499 O497 1.214 . S
O500 Cd492 2.277 . S
O500 C495 1.209 . S
C501 O498 1.258 . S
C501 O503 1.282 . S
O502 Cd494 2.277 . S
O502 C495 1.226 . S
O503 Cd494 2.356 . S
O503 C501 1.282 . S
C504 O505 1.306 . S
C504 O507 1.160 . S
O505 C504 1.306 . S
O505 Cd506 2.228 . S
Cd506 O505 2.228 . S
Cd506 O510 2.273 . S
Cd506 O514 2.277 . S
O507 C504 1.160 . S
O507 Cd508 2.203 . S
Cd508 O507 2.203 . S
Cd508 O510 2.411 . S
Cd508 O511 2.333 . S
Cd508 O512 2.352 . S
Cd508 O516 2.277 . S
Cd508 O517 2.356 . S
C509 O514 1.209 . S
C509 O516 1.226 . S
O510 Cd506 2.273 . S
O510 Cd508 2.411 . S
O510 C513 1.320 . S
O511 Cd508 2.333 . S
O511 C513 1.214 . S
O512 Cd508 2.352 . S
O512 C515 1.258 . S
C513 O510 1.320 . S
C513 O511 1.214 . S
O514 Cd506 2.277 . S
O514 C509 1.209 . S
C515 O512 1.258 . S
C515 O517 1.282 . S
O516 Cd508 2.277 . S
O516 C509 1.226 . S
O517 Cd508 2.356 . S
O517 C515 1.282 . S
C518 O519 1.306 . S
C518 O521 1.160 . S
O519 C518 1.306 . S
O519 Cd520 2.228 . S
Cd520 O519 2.228 . S
Cd520 O524 2.273 . S
Cd520 O528 2.277 . S
O521 C518 1.160 . S
O521 Cd522 2.203 . S
Cd522 O521 2.203 . S
Cd522 O524 2.411 . S
Cd522 O525 2.333 . S
Cd522 O526 2.352 . S
Cd522 O530 2.277 . S
Cd522 O531 2.356 . S
C523 O528 1.209 . S
C523 O530 1.226 . S
O524 Cd520 2.273 . S
O524 Cd522 2.411 . S
O524 C527 1.320 . S
O525 Cd522 2.333 . S
O525 C527 1.214 . S
O526 Cd522 2.352 . S
O526 C529 1.258 . S
C527 O524 1.320 . S
C527 O525 1.214 . S
O528 Cd520 2.277 . S
O528 C523 1.209 . S
C529 O526 1.258 . S
C529 O531 1.282 . S
O530 Cd522 2.277 . S
O530 C523 1.226 . S
O531 Cd522 2.356 . S
O531 C529 1.282 . S
C532 O533 1.306 . S
C532 O535 1.160 . S
O533 C532 1.306 . S
O533 Cd534 2.228 . S
Cd534 O533 2.228 . S
Cd534 O538 2.273 . S
Cd534 O542 2.277 . S
O535 C532 1.160 . S
O535 Cd536 2.203 . S
Cd536 O535 2.203 . S
Cd536 O538 2.411 . S
Cd536 O539 2.333 . S
Cd536 O540 2.352 . S
Cd536 O544 2.277 . S
Cd536 O545 2.356 . S
C537 O542 1.209 . S
C537 O544 1.226 . S
O538 Cd534 2.273 . S
O538 Cd536 2.411 . S
O538 C541 1.320 . S
O539 Cd536 2.333 . S
O539 C541 1.214 . S
O540 Cd536 2.352 . S
O540 C543 1.258 . S
C541 O538 1.320 . S
C541 O539 1.214 . S
O542 Cd534 2.277 . S
O542 C537 1.209 . S
C543 O540 1.258 . S
C543 O545 1.282 . S
O544 Cd536 2.277 . S
O544 C537 1.226 . S
O545 Cd536 2.356 . S
O545 C543 1.282 . S
C546 O547 1.306 . S
C546 O549 1.160 . S
O547 C546 1.306 . S
O547 Cd548 2.228 . S
Cd548 O547 2.228 . S
Cd548 O552 2.273 . S
Cd548 O556 2.277 . S
O549 C546 1.160 . S
O549 Cd550 2.203 . S
Cd550 O549 2.203 . S
Cd550 O552 2.411 . S
Cd550 O553 2.333 . S
Cd550 O554 2.352 . S
Cd550 O558 2.277 . S
Cd550 O559 2.356 . S
C551 O556 1.209 . S
C551 O558 1.226 . S
O552 Cd548 2.273 . S
O552 Cd550 2.411 . S
O552 C555 1.320 . S
O553 Cd550 2.333 . S
O553 C555 1.214 . S
O554 Cd550 2.352 . S
O554 C557 1.258 . S
C555 O552 1.320 . S
C555 O553 1.214 . S
O556 Cd548 2.277 . S
O556 C551 1.209 . S
C557 O554 1.258 . S
C557 O559 1.282 . S
O558 Cd550 2.277 . S
O558 C551 1.226 . S
O559 Cd550 2.356 . S
O559 C557 1.282 . S
C560 O561 1.306 . S
C560 O563 1.160 . S
O561 C560 1.306 . S
O561 Cd562 2.228 . S
Cd562 O561 2.228 . S
Cd562 O566 2.273 . S
Cd562 O570 2.277 . S
O563 C560 1.160 . S
O563 Cd564 2.203 . S
Cd564 O563 2.203 . S
Cd564 O566 2.411 . S
Cd564 O567 2.333 . S
Cd564 O568 2.352 . S
Cd564 O572 2.277 . S
Cd564 O573 2.356 . S
C565 O570 1.209 . S
C565 O572 1.226 . S
O566 Cd562 2.273 . S
O566 Cd564 2.411 . S
O566 C569 1.320 . S
O567 Cd564 2.333 . S
O567 C569 1.214 . S
O568 Cd564 2.352 . S
O568 C571 1.258 . S
C569 O566 1.320 . S
C569 O567 1.214 . S
O570 Cd562 2.277 . S
O570 C565 1.209 . S
C571 O568 1.258 . S
C571 O573 1.282 . S
O572 Cd564 2.277 . S
O572 C565 1.226 . S
O573 Cd564 2.356 . S
O573 C571 1.282 . S
C574 O575 1.306 . S
C574 O577 1.160 . S
O575 C574 1.306 . S
O575 Cd576 2.228 . S
Cd576 O575 2.228 . S
Cd576 O580 2.273 . S
Cd576 O584 2.277 . S
O577 C574 1.160 . S
O577 Cd578 2.203 . S
Cd578 O577 2.203 . S
Cd578 O580 2.411 . S
Cd578 O581 2.333 . S
Cd578 O582 2.352 . S
Cd578 O586 2.277 . S
Cd578 O587 2.356 . S
C579 O584 1.209 . S
C579 O586 1.226 . S
O580 Cd576 2.273 . S
O580 Cd578 2.411 . S
O580 C583 1.320 . S
O581 Cd578 2.333 . S
O581 C583 1.214 . S
O582 Cd578 2.352 . S
O582 C585 1.258 . S
C583 O580 1.320 . S
C583 O581 1.214 . S
O584 Cd576 2.277 . S
O584 C579 1.209 . S
C585 O582 1.258 . S
C585 O587 1.282 . S
O586 Cd578 2.277 . S
O586 C579 1.226 . S
O587 Cd578 2.356 . S
O587 C585 1.282 . S
C588 O589 1.306 . S
C588 O591 1.160 . S
O589 C588 1.306 . S
O589 Cd590 2.228 . S
Cd590 O589 2.228 . S
Cd590 O594 2.273 . S
Cd590 O598 2.277 . S
O591 C588 1.160 . S
O591 Cd592 2.203 . S
Cd592 O591 2.203 . S
Cd592 O594 2.411 . S
Cd592 O595 2.333 . S
Cd592 O596 2.352 . S
Cd592 O600 2.277 . S
Cd592 O601 2.356 . S
C593 O598 1.209 . S
C593 O600 1.226 . S
O594 Cd590 2.273 . S
O594 Cd592 2.411 . S
O594 C597 1.320 . S
O595 Cd592 2.333 . S
O595 C597 1.214 . S
O596 Cd592 2.352 . S
O596 C599 1.258 . S
C597 O594 1.320 . S
C597 O595 1.214 . S
O598 Cd590 2.277 . S
O598 C593 1.209 . S
C599 O596 1.258 . S
C599 O601 1.282 . S
O600 Cd592 2.277 . S
O600 C593 1.226 . S
O601 Cd592 2.356 . S
O601 C599 1.282 . S
C602 O603 1.306 . S
C602 O605 1.160 . S
O603 C602 1.306 . S
O603 Cd604 2.228 . S
Cd604 O603 2.228 . S
Cd604 O608 2.273 . S
Cd604 O612 2.277 . S
O605 C602 1.160 . S
O605 Cd606 2.203 . S
Cd606 O605 2.203 . S
Cd606 O608 2.411 . S
Cd606 O609 2.333 . S
Cd606 O610 2.352 . S
Cd606 O614 2.277 . S
Cd606 O615 2.356 . S
C607 O612 1.209 . S
C607 O614 1.226 . S
O608 Cd604 2.273 . S
O608 Cd606 2.411 . S
O608 C611 1.320 . S
O609 Cd606 2.333 . S
O609 C611 1.214 . S
O610 Cd606 2.352 . S
O610 C613 1.258 . S
C611 O608 1.320 . S
C611 O609 1.214 . S
O612 Cd604 2.277 . S
O612 C607 1.209 . S
C613 O610 1.258 . S
C613 O615 1.282 . S
O614 Cd606 2.277 . S
O614 C607 1.226 . S
O615 Cd606 2.356 . S
O615 C613 1.282 . S
C616 O617 1.306 . S
C616 O619 1.160 . S
O617 C616 1.306 . S
O617 Cd618 2.228 . S
Cd618 O617 2.228 . S
Cd618 O622 2.273 . S
Cd618 O626 2.277 . S
O619 C616 1.160 . S
O619 Cd620 2.203 . S
Cd620 O619 2.203 . S
Cd620 O622 2.411 . S
Cd620 O623 2.333 . S
Cd620 O624 2.352 . S
Cd620 O628 2.277 . S
Cd620 O629 2.356 . S
C621 O626 1.209 . S
C621 O628 1.226 . S
O622 Cd618 2.273 . S
O622 Cd620 2.411 . S
O622 C625 1.320 . S
O623 Cd620 2.333 . S
O623 C625 1.214 . S
O624 Cd620 2.352 . S
O624 C627 1.258 . S
C625 O622 1.320 . S
C625 O623 1.214 . S
O626 Cd618 2.277 . S
O626 C621 1.209 . S
C627 O624 1.258 . S
C627 O629 1.282 . S
O628 Cd620 2.277 . S
O628 C621 1.226 . S
O629 Cd620 2.356 . S
O629 C627 1.282 . S
C630 O631 1.306 . S
C630 O633 1.160 . S
O631 C630 1.306 . S
O631 Cd632 2.228 . S
Cd632 O631 2.228 . S
Cd632 O636 2.273 . S
Cd632 O640 2.277 . S
O633 C630 1.160 . S
O633 Cd634 2.203 . S
Cd634 O633 2.203 . S
Cd634 O636 2.411 . S
Cd634 O637 2.333 . S
Cd634 O638 2.352 . S
Cd634 O642 2.277 . S
Cd634 O643 2.356 . S
C635 O640 1.209 . S
C635 O642 1.226 . S
O636 Cd632 2.273 . S
O636 Cd634 2.411 . S
O636 C639 1.320 . S
O637 Cd634 2.333 . S
O637 C639 1.214 . S
O638 Cd634 2.352 . S
O638 C641 1.258 . S
C639 O636 1.320 . S
C639 O637 1.214 . S
O640 Cd632 2.277 . S
O640 C635 1.209 . S
C641 O638 1.258 . S
C641 O643 1.282 . S
O642 Cd634 2.277 . S
O642 C635 1.226 . S
O643 Cd634 2.356 . S
O643 C641 1.282 . S
C644 O645 1.306 . S
C644 O647 1.160 . S
O645 C644 1.306 . S
O645 Cd646 2.228 . S
Cd646 O645 2.228 . S
Cd646 O650 2.273 . S
Cd646 O654 2.277 . S
O647 C644 1.160 . S
O647 Cd648 2.203 . S
Cd648 O647 2.203 . S
Cd648 O650 2.411 . S
Cd648 O651 2.333 . S
Cd648 O652 2.352 . S
Cd648 O656 2.277 . S
Cd648 O657 2.356 . S
C649 O654 1.209 . S
C649 O656 1.226 . S
O650 Cd646 2.273 . S
O650 Cd648 2.411 . S
O650 C653 1.320 . S
O651 Cd648 2.333 . S
O651 C653 1.214 . S
O652 Cd648 2.352 . S
O652 C655 1.258 . S
C653 O650 1.320 . S
C653 O651 1.214 . S
O654 Cd646 2.277 . S
O654 C649 1.209 . S
C655 O652 1.258 . S
C655 O657 1.282 . S
O656 Cd648 2.277 . S
O656 C649 1.226 . S
O657 Cd648 2.356 . S
O657 C655 1.282 . S
C658 O659 1.306 . S
C658 O661 1.160 . S
O659 C658 1.306 . S
O659 Cd660 2.228 . S
Cd660 O659 2.228 . S
Cd660 O664 2.273 . S
Cd660 O668 2.277 . S
O661 C658 1.160 . S
O661 Cd662 2.203 . S
Cd662 O661 2.203 . S
Cd662 O664 2.411 . S
Cd662 O665 2.333 . S
Cd662 O666 2.352 . S
Cd662 O670 2.277 . S
Cd662 O671 2.356 . S
C663 O668 1.209 . S
C663 O670 1.226 . S
O664 Cd660 2.273 . S
O664 Cd662 2.411 . S
O664 C667 1.320 . S
O665 Cd662 2.333 . S
O665 C667 1.214 . S
O666 Cd662 2.352 . S
O666 C669 1.258 . S
C667 O664 1.320 . S
C667 O665 1.214 . S
O668 Cd660 2.277 . S
O668 C663 1.209 . S
C669 O666 1.258 . S
C669 O671 1.282 . S
O670 Cd662 2.277 . S
O670 C663 1.226 . S
O671 Cd662 2.356 . S
O671 C669 1.282 . S
H672 C690 0.951 . S
H673 C692 0.951 . S
H674 C694 0.950 . S
H675 C695 0.950 . S
H676 C697 0.950 . S
H677 C700 0.950 . S
H678 C701 0.950 . S
H679 C703 0.950 . S
H680 C704 0.950 . S
H681 C705 0.951 . S
H682 C707 0.951 . S
H683 C709 0.950 . S
H684 C710 0.950 . S
H685 C712 0.950 . S
H686 C715 0.950 . S
H687 C716 0.950 . S
H688 C718 0.950 . S
H689 C719 0.950 . S
C690 H672 0.951 . S
C690 C691 1.366 . S
C690 C692 1.388 . S
C691 C690 1.366 . S
C691 C695 1.385 . S
C692 H673 0.951 . S
C692 C690 1.388 . S
C692 C693 1.366 . S
C693 C692 1.366 . S
C693 C694 1.414 . S
C693 C696 1.499 . S
C694 H674 0.950 . S
C694 C693 1.414 . S
C694 C695 1.374 . S
C695 H675 0.950 . S
C695 C691 1.385 . S
C695 C694 1.374 . S
C696 C693 1.499 . S
C696 C697 1.373 . S
C696 C698 1.389 . S
C697 H676 0.950 . S
C697 C696 1.373 . S
C697 C713 1.377 . S
C698 C696 1.389 . S
C698 C699 1.524 . S
C698 C712 1.377 . S
C699 C698 1.524 . S
C699 C700 1.397 . S
C699 C704 1.363 . S
C700 H677 0.950 . S
C700 C699 1.397 . S
C700 C701 1.334 . S
C701 H678 0.950 . S
C701 C700 1.334 . S
C701 C702 1.287 . S
C702 C701 1.287 . S
C702 C703 1.524 . S
C702 H721 0.913 . S
C703 H679 0.950 . S
C703 C702 1.524 . S
C703 C704 1.415 . S
C704 H680 0.950 . S
C704 C699 1.363 . S
C704 C703 1.415 . S
C705 H681 0.951 . S
C705 C706 1.366 . S
C705 C707 1.388 . S
C706 C705 1.366 . S
C706 C710 1.385 . S
C707 H682 0.951 . S
C707 C705 1.388 . S
C707 C708 1.366 . S
C708 C707 1.366 . S
C708 C709 1.414 . S
C708 C711 1.499 . S
C709 H683 0.950 . S
C709 C708 1.414 . S
C709 C710 1.374 . S
C710 H684 0.950 . S
C710 C706 1.385 . S
C710 C709 1.374 . S
C711 C708 1.499 . S
C711 C712 1.373 . S
C711 C713 1.389 . S
C712 H685 0.950 . S
C712 C698 1.377 . S
C712 C711 1.373 . S
C713 C697 1.377 . S
C713 C711 1.389 . S
C713 C714 1.524 . S
C714 C713 1.524 . S
C714 C715 1.397 . S
C714 C719 1.363 . S
C715 H686 0.950 . S
C715 C714 1.397 . S
C715 C716 1.334 . S
C716 H687 0.950 . S
C716 C715 1.334 . S
C716 C717 1.287 . S
C717 C716 1.287 . S
C717 C718 1.524 . S
C717 H720 0.999 . S
C718 H688 0.950 . S
C718 C717 1.524 . S
C718 C719 1.415 . S
C719 H689 0.950 . S
C719 C714 1.363 . S
C719 C718 1.415 . S
H720 C717 0.999 . S
H721 C702 0.913 . S
H722 C740 0.951 . S
H723 C742 0.951 . S
H724 C744 0.950 . S
H725 C745 0.950 . S
H726 C747 0.950 . S
H727 C750 0.950 . S
H728 C751 0.950 . S
H729 C753 0.950 . S
H730 C754 0.950 . S
H731 C755 0.951 . S
H732 C757 0.951 . S
H733 C759 0.950 . S
H734 C760 0.950 . S
H735 C762 0.950 . S
H736 C765 0.950 . S
H737 C766 0.950 . S
H738 C768 0.950 . S
H739 C769 0.950 . S
C740 H722 0.951 . S
C740 C741 1.366 . S
C740 C742 1.388 . S
C741 C740 1.366 . S
C741 C745 1.385 . S
C742 H723 0.951 . S
C742 C740 1.388 . S
C742 C743 1.366 . S
C743 C742 1.366 . S
C743 C744 1.414 . S
C743 C746 1.499 . S
C744 H724 0.950 . S
C744 C743 1.414 . S
C744 C745 1.374 . S
C745 H725 0.950 . S
C745 C741 1.385 . S
C745 C744 1.374 . S
C746 C743 1.499 . S
C746 C747 1.373 . S
C746 C748 1.389 . S
C747 H726 0.950 . S
C747 C746 1.373 . S
C747 C763 1.377 . S
C748 C746 1.389 . S
C748 C749 1.524 . S
C748 C762 1.377 . S
C749 C748 1.524 . S
C749 C750 1.397 . S
C749 C754 1.363 . S
C750 H727 0.950 . S
C750 C749 1.397 . S
C750 C751 1.334 . S
C751 H728 0.950 . S
C751 C750 1.334 . S
C751 C752 1.287 . S
C752 C751 1.287 . S
C752 C753 1.524 . S
C752 H771 0.913 . S
C753 H729 0.950 . S
C753 C752 1.524 . S
C753 C754 1.415 . S
C754 H730 0.950 . S
C754 C749 1.363 . S
C754 C753 1.415 . S
C755 H731 0.951 . S
C755 C756 1.366 . S
C755 C757 1.388 . S
C756 C755 1.366 . S
C756 C760 1.385 . S
C757 H732 0.951 . S
C757 C755 1.388 . S
C757 C758 1.366 . S
C758 C757 1.366 . S
C758 C759 1.414 . S
C758 C761 1.499 . S
C759 H733 0.950 . S
C759 C758 1.414 . S
C759 C760 1.374 . S
C760 H734 0.950 . S
C760 C756 1.385 . S
C760 C759 1.374 . S
C761 C758 1.499 . S
C761 C762 1.373 . S
C761 C763 1.389 . S
C762 H735 0.950 . S
C762 C748 1.377 . S
C762 C761 1.373 . S
C763 C747 1.377 . S
C763 C761 1.389 . S
C763 C764 1.524 . S
C764 C763 1.524 . S
C764 C765 1.397 . S
C764 C769 1.363 . S
C765 H736 0.950 . S
C765 C764 1.397 . S
C765 C766 1.334 . S
C766 H737 0.950 . S
C766 C765 1.334 . S
C766 C767 1.287 . S
C767 C766 1.287 . S
C767 C768 1.524 . S
C767 H770 0.999 . S
C768 H738 0.950 . S
C768 C767 1.524 . S
C768 C769 1.415 . S
C769 H739 0.950 . S
C769 C764 1.363 . S
C769 C768 1.415 . S
H770 C767 0.999 . S
H771 C752 0.913 . S
H772 C790 0.951 . S
H773 C792 0.951 . S
H774 C794 0.950 . S
H775 C795 0.950 . S
H776 C797 0.950 . S
H777 C800 0.950 . S
H778 C801 0.950 . S
H779 C803 0.950 . S
H780 C804 0.950 . S
H781 C805 0.951 . S
H782 C807 0.951 . S
H783 C809 0.950 . S
H784 C810 0.950 . S
H785 C812 0.950 . S
H786 C815 0.950 . S
H787 C816 0.950 . S
H788 C818 0.950 . S
H789 C819 0.950 . S
C790 H772 0.951 . S
C790 C791 1.366 . S
C790 C792 1.388 . S
C791 C790 1.366 . S
C791 C795 1.385 . S
C792 H773 0.951 . S
C792 C790 1.388 . S
C792 C793 1.366 . S
C793 C792 1.366 . S
C793 C794 1.414 . S
C793 C796 1.499 . S
C794 H774 0.950 . S
C794 C793 1.414 . S
C794 C795 1.374 . S
C795 H775 0.950 . S
C795 C791 1.385 . S
C795 C794 1.374 . S
C796 C793 1.499 . S
C796 C797 1.373 . S
C796 C798 1.389 . S
C797 H776 0.950 . S
C797 C796 1.373 . S
C797 C813 1.377 . S
C798 C796 1.389 . S
C798 C799 1.524 . S
C798 C812 1.377 . S
C799 C798 1.524 . S
C799 C800 1.397 . S
C799 C804 1.363 . S
C800 H777 0.950 . S
C800 C799 1.397 . S
C800 C801 1.334 . S
C801 H778 0.950 . S
C801 C800 1.334 . S
C801 C802 1.287 . S
C802 C801 1.287 . S
C802 C803 1.524 . S
C802 H821 0.913 . S
C803 H779 0.950 . S
C803 C802 1.524 . S
C803 C804 1.415 . S
C804 H780 0.950 . S
C804 C799 1.363 . S
C804 C803 1.415 . S
C805 H781 0.951 . S
C805 C806 1.366 . S
C805 C807 1.388 . S
C806 C805 1.366 . S
C806 C810 1.385 . S
C807 H782 0.951 . S
C807 C805 1.388 . S
C807 C808 1.366 . S
C808 C807 1.366 . S
C808 C809 1.414 . S
C808 C811 1.499 . S
C809 H783 0.950 . S
C809 C808 1.414 . S
C809 C810 1.374 . S
C810 H784 0.950 . S
C810 C806 1.385 . S
C810 C809 1.374 . S
C811 C808 1.499 . S
C811 C812 1.373 . S
C811 C813 1.389 . S
C812 H785 0.950 . S
C812 C798 1.377 . S
C812 C811 1.373 . S
C813 C797 1.377 . S
C813 C811 1.389 . S
C813 C814 1.524 . S
C814 C813 1.524 . S
C814 C815 1.397 . S
C814 C819 1.363 . S
C815 H786 0.950 . S
C815 C814 1.397 . S
C815 C816 1.334 . S
C816 H787 0.950 . S
C816 C815 1.334 . S
C816 C817 1.287 . S
C817 C816 1.287 . S
C817 C818 1.524 . S
C817 H820 0.999 . S
C818 H788 0.950 . S
C818 C817 1.524 . S
C818 C819 1.415 . S
C819 H789 0.950 . S
C819 C814 1.363 . S
C819 C818 1.415 . S
H820 C817 0.999 . S
H821 C802 0.913 . S
H822 C840 0.951 . S
H823 C842 0.951 . S
H824 C844 0.950 . S
H825 C845 0.950 . S
H826 C847 0.950 . S
H827 C850 0.950 . S
H828 C851 0.950 . S
H829 C853 0.950 . S
H830 C854 0.950 . S
H831 C855 0.951 . S
H832 C857 0.951 . S
H833 C859 0.950 . S
H834 C860 0.950 . S
H835 C862 0.950 . S
H836 C865 0.950 . S
H837 C866 0.950 . S
H838 C868 0.950 . S
H839 C869 0.950 . S
C840 H822 0.951 . S
C840 C841 1.366 . S
C840 C842 1.388 . S
C841 C840 1.366 . S
C841 C845 1.385 . S
C842 H823 0.951 . S
C842 C840 1.388 . S
C842 C843 1.366 . S
C843 C842 1.366 . S
C843 C844 1.414 . S
C843 C846 1.499 . S
C844 H824 0.950 . S
C844 C843 1.414 . S
C844 C845 1.374 . S
C845 H825 0.950 . S
C845 C841 1.385 . S
C845 C844 1.374 . S
C846 C843 1.499 . S
C846 C847 1.373 . S
C846 C848 1.389 . S
C847 H826 0.950 . S
C847 C846 1.373 . S
C847 C863 1.377 . S
C848 C846 1.389 . S
C848 C849 1.524 . S
C848 C862 1.377 . S
C849 C848 1.524 . S
C849 C850 1.397 . S
C849 C854 1.363 . S
C850 H827 0.950 . S
C850 C849 1.397 . S
C850 C851 1.334 . S
C851 H828 0.950 . S
C851 C850 1.334 . S
C851 C852 1.287 . S
C852 C851 1.287 . S
C852 C853 1.524 . S
C852 H871 0.913 . S
C853 H829 0.950 . S
C853 C852 1.524 . S
C853 C854 1.415 . S
C854 H830 0.950 . S
C854 C849 1.363 . S
C854 C853 1.415 . S
C855 H831 0.951 . S
C855 C856 1.366 . S
C855 C857 1.388 . S
C856 C855 1.366 . S
C856 C860 1.385 . S
C857 H832 0.951 . S
C857 C855 1.388 . S
C857 C858 1.366 . S
C858 C857 1.366 . S
C858 C859 1.414 . S
C858 C861 1.499 . S
C859 H833 0.950 . S
C859 C858 1.414 . S
C859 C860 1.374 . S
C860 H834 0.950 . S
C860 C856 1.385 . S
C860 C859 1.374 . S
C861 C858 1.499 . S
C861 C862 1.373 . S
C861 C863 1.389 . S
C862 H835 0.950 . S
C862 C848 1.377 . S
C862 C861 1.373 . S
C863 C847 1.377 . S
C863 C861 1.389 . S
C863 C864 1.524 . S
C864 C863 1.524 . S
C864 C865 1.397 . S
C864 C869 1.363 . S
C865 H836 0.950 . S
C865 C864 1.397 . S
C865 C866 1.334 . S
C866 H837 0.950 . S
C866 C865 1.334 . S
C866 C867 1.287 . S
C867 C866 1.287 . S
C867 C868 1.524 . S
C867 H870 0.999 . S
C868 H838 0.950 . S
C868 C867 1.524 . S
C868 C869 1.415 . S
C869 H839 0.950 . S
C869 C864 1.363 . S
C869 C868 1.415 . S
H870 C867 0.999 . S
H871 C852 0.913 . S
H872 C890 0.951 . S
H873 C892 0.951 . S
H874 C894 0.950 . S
H875 C895 0.950 . S
H876 C897 0.950 . S
H877 C900 0.950 . S
H878 C901 0.950 . S
H879 C903 0.950 . S
H880 C904 0.950 . S
H881 C905 0.951 . S
H882 C907 0.951 . S
H883 C909 0.950 . S
H884 C910 0.950 . S
H885 C912 0.950 . S
H886 C915 0.950 . S
H887 C916 0.950 . S
H888 C918 0.950 . S
H889 C919 0.950 . S
C890 H872 0.951 . S
C890 C891 1.366 . S
C890 C892 1.388 . S
C891 C890 1.366 . S
C891 C895 1.385 . S
C892 H873 0.951 . S
C892 C890 1.388 . S
C892 C893 1.366 . S
C893 C892 1.366 . S
C893 C894 1.414 . S
C893 C896 1.499 . S
C894 H874 0.950 . S
C894 C893 1.414 . S
C894 C895 1.374 . S
C895 H875 0.950 . S
C895 C891 1.385 . S
C895 C894 1.374 . S
C896 C893 1.499 . S
C896 C897 1.373 . S
C896 C898 1.389 . S
C897 H876 0.950 . S
C897 C896 1.373 . S
C897 C913 1.377 . S
C898 C896 1.389 . S
C898 C899 1.524 . S
C898 C912 1.377 . S
C899 C898 1.524 . S
C899 C900 1.397 . S
C899 C904 1.363 . S
C900 H877 0.950 . S
C900 C899 1.397 . S
C900 C901 1.334 . S
C901 H878 0.950 . S
C901 C900 1.334 . S
C901 C902 1.287 . S
C902 C901 1.287 . S
C902 C903 1.524 . S
C902 H921 0.913 . S
C903 H879 0.950 . S
C903 C902 1.524 . S
C903 C904 1.415 . S
C904 H880 0.950 . S
C904 C899 1.363 . S
C904 C903 1.415 . S
C905 H881 0.951 . S
C905 C906 1.366 . S
C905 C907 1.388 . S
C906 C905 1.366 . S
C906 C910 1.385 . S
C907 H882 0.951 . S
C907 C905 1.388 . S
C907 C908 1.366 . S
C908 C907 1.366 . S
C908 C909 1.414 . S
C908 C911 1.499 . S
C909 H883 0.950 . S
C909 C908 1.414 . S
C909 C910 1.374 . S
C910 H884 0.950 . S
C910 C906 1.385 . S
C910 C909 1.374 . S
C911 C908 1.499 . S
C911 C912 1.373 . S
C911 C913 1.389 . S
C912 H885 0.950 . S
C912 C898 1.377 . S
C912 C911 1.373 . S
C913 C897 1.377 . S
C913 C911 1.389 . S
C913 C914 1.524 . S
C914 C913 1.524 . S
C914 C915 1.397 . S
C914 C919 1.363 . S
C915 H886 0.950 . S
C915 C914 1.397 . S
C915 C916 1.334 . S
C916 H887 0.950 . S
C916 C915 1.334 . S
C916 C917 1.287 . S
C917 C916 1.287 . S
C917 C918 1.524 . S
C917 H920 0.999 . S
C918 H888 0.950 . S
C918 C917 1.524 . S
C918 C919 1.415 . S
C919 H889 0.950 . S
C919 C914 1.363 . S
C919 C918 1.415 . S
H920 C917 0.999 . S
H921 C902 0.913 . S
H922 C940 0.951 . S
H923 C942 0.951 . S
H924 C944 0.950 . S
H925 C945 0.950 . S
H926 C947 0.950 . S
H927 C950 0.950 . S
H928 C951 0.950 . S
H929 C953 0.950 . S
H930 C954 0.950 . S
H931 C955 0.951 . S
H932 C957 0.951 . S
H933 C959 0.950 . S
H934 C960 0.950 . S
H935 C962 0.950 . S
H936 C965 0.950 . S
H937 C966 0.950 . S
H938 C968 0.950 . S
H939 C969 0.950 . S
C940 H922 0.951 . S
C940 C941 1.366 . S
C940 C942 1.388 . S
C941 C940 1.366 . S
C941 C945 1.385 . S
C942 H923 0.951 . S
C942 C940 1.388 . S
C942 C943 1.366 . S
C943 C942 1.366 . S
C943 C944 1.414 . S
C943 C946 1.499 . S
C944 H924 0.950 . S
C944 C943 1.414 . S
C944 C945 1.374 . S
C945 H925 0.950 . S
C945 C941 1.385 . S
C945 C944 1.374 . S
C946 C943 1.499 . S
C946 C947 1.373 . S
C946 C948 1.389 . S
C947 H926 0.950 . S
C947 C946 1.373 . S
C947 C963 1.377 . S
C948 C946 1.389 . S
C948 C949 1.524 . S
C948 C962 1.377 . S
C949 C948 1.524 . S
C949 C950 1.397 . S
C949 C954 1.363 . S
C950 H927 0.950 . S
C950 C949 1.397 . S
C950 C951 1.334 . S
C951 H928 0.950 . S
C951 C950 1.334 . S
C951 C952 1.287 . S
C952 C951 1.287 . S
C952 C953 1.524 . S
C952 H971 0.913 . S
C953 H929 0.950 . S
C953 C952 1.524 . S
C953 C954 1.415 . S
C954 H930 0.950 . S
C954 C949 1.363 . S
C954 C953 1.415 . S
C955 H931 0.951 . S
C955 C956 1.366 . S
C955 C957 1.388 . S
C956 C955 1.366 . S
C956 C960 1.385 . S
C957 H932 0.951 . S
C957 C955 1.388 . S
C957 C958 1.366 . S
C958 C957 1.366 . S
C958 C959 1.414 . S
C958 C961 1.499 . S
C959 H933 0.950 . S
C959 C958 1.414 . S
C959 C960 1.374 . S
C960 H934 0.950 . S
C960 C956 1.385 . S
C960 C959 1.374 . S
C961 C958 1.499 . S
C961 C962 1.373 . S
C961 C963 1.389 . S
C962 H935 0.950 . S
C962 C948 1.377 . S
C962 C961 1.373 . S
C963 C947 1.377 . S
C963 C961 1.389 . S
C963 C964 1.524 . S
C964 C963 1.524 . S
C964 C965 1.397 . S
C964 C969 1.363 . S
C965 H936 0.950 . S
C965 C964 1.397 . S
C965 C966 1.334 . S
C966 H937 0.950 . S
C966 C965 1.334 . S
C966 C967 1.287 . S
C967 C966 1.287 . S
C967 C968 1.524 . S
C967 H970 0.999 . S
C968 H938 0.950 . S
C968 C967 1.524 . S
C968 C969 1.415 . S
C969 H939 0.950 . S
C969 C964 1.363 . S
C969 C968 1.415 . S
H970 C967 0.999 . S
H971 C952 0.913 . S
H972 C990 0.951 . S
H973 C992 0.951 . S
H974 C994 0.950 . S
H975 C995 0.950 . S
H976 C997 0.950 . S
H977 C1000 0.950 . S
H978 C1001 0.950 . S
H979 C1003 0.950 . S
H980 C1004 0.950 . S
H981 C1005 0.951 . S
H982 C1007 0.951 . S
H983 C1009 0.950 . S
H984 C1010 0.950 . S
H985 C1012 0.950 . S
H986 C1015 0.950 . S
H987 C1016 0.950 . S
H988 C1018 0.950 . S
H989 C1019 0.950 . S
C990 H972 0.951 . S
C990 C991 1.366 . S
C990 C992 1.388 . S
C991 C990 1.366 . S
C991 C995 1.385 . S
C992 H973 0.951 . S
C992 C990 1.388 . S
C992 C993 1.366 . S
C993 C992 1.366 . S
C993 C994 1.414 . S
C993 C996 1.499 . S
C994 H974 0.950 . S
C994 C993 1.414 . S
C994 C995 1.374 . S
C995 H975 0.950 . S
C995 C991 1.385 . S
C995 C994 1.374 . S
C996 C993 1.499 . S
C996 C997 1.373 . S
C996 C998 1.389 . S
C997 H976 0.950 . S
C997 C996 1.373 . S
C997 C1013 1.377 . S
C998 C996 1.389 . S
C998 C999 1.524 . S
C998 C1012 1.377 . S
C999 C998 1.524 . S
C999 C1000 1.397 . S
C999 C1004 1.363 . S
C1000 H977 0.950 . S
C1000 C999 1.397 . S
C1000 C1001 1.334 . S
C1001 H978 0.950 . S
C1001 C1000 1.334 . S
C1001 C1002 1.287 . S
C1002 C1001 1.287 . S
C1002 C1003 1.524 . S
C1002 H1021 0.913 . S
C1003 H979 0.950 . S
C1003 C1002 1.524 . S
C1003 C1004 1.415 . S
C1004 H980 0.950 . S
C1004 C999 1.363 . S
C1004 C1003 1.415 . S
C1005 H981 0.951 . S
C1005 C1006 1.366 . S
C1005 C1007 1.388 . S
C1006 C1005 1.366 . S
C1006 C1010 1.385 . S
C1007 H982 0.951 . S
C1007 C1005 1.388 . S
C1007 C1008 1.366 . S
C1008 C1007 1.366 . S
C1008 C1009 1.414 . S
C1008 C1011 1.499 . S
C1009 H983 0.950 . S
C1009 C1008 1.414 . S
C1009 C1010 1.374 . S
C1010 H984 0.950 . S
C1010 C1006 1.385 . S
C1010 C1009 1.374 . S
C1011 C1008 1.499 . S
C1011 C1012 1.373 . S
C1011 C1013 1.389 . S
C1012 H985 0.950 . S
C1012 C998 1.377 . S
C1012 C1011 1.373 . S
C1013 C997 1.377 . S
C1013 C1011 1.389 . S
C1013 C1014 1.524 . S
C1014 C1013 1.524 . S
C1014 C1015 1.397 . S
C1014 C1019 1.363 . S
C1015 H986 0.950 . S
C1015 C1014 1.397 . S
C1015 C1016 1.334 . S
C1016 H987 0.950 . S
C1016 C1015 1.334 . S
C1016 C1017 1.287 . S
C1017 C1016 1.287 . S
C1017 C1018 1.524 . S
C1017 H1020 0.999 . S
C1018 H988 0.950 . S
C1018 C1017 1.524 . S
C1018 C1019 1.415 . S
C1019 H989 0.950 . S
C1019 C1014 1.363 . S
C1019 C1018 1.415 . S
H1020 C1017 0.999 . S
H1021 C1002 0.913 . S
H1022 C1040 0.951 . S
H1023 C1042 0.951 . S
H1024 C1044 0.950 . S
H1025 C1045 0.950 . S
H1026 C1047 0.950 . S
H1027 C1050 0.950 . S
H1028 C1051 0.950 . S
H1029 C1053 0.950 . S
H1030 C1054 0.950 . S
H1031 C1055 0.951 . S
H1032 C1057 0.951 . S
H1033 C1059 0.950 . S
H1034 C1060 0.950 . S
H1035 C1062 0.950 . S
H1036 C1065 0.950 . S
H1037 C1066 0.950 . S
H1038 C1068 0.950 . S
H1039 C1069 0.950 . S
C1040 H1022 0.951 . S
C1040 C1041 1.366 . S
C1040 C1042 1.388 . S
C1041 C1040 1.366 . S
C1041 C1045 1.385 . S
C1042 H1023 0.951 . S
C1042 C1040 1.388 . S
C1042 C1043 1.366 . S
C1043 C1042 1.366 . S
C1043 C1044 1.414 . S
C1043 C1046 1.499 . S
C1044 H1024 0.950 . S
C1044 C1043 1.414 . S
C1044 C1045 1.374 . S
C1045 H1025 0.950 . S
C1045 C1041 1.385 . S
C1045 C1044 1.374 . S
C1046 C1043 1.499 . S
C1046 C1047 1.373 . S
C1046 C1048 1.389 . S
C1047 H1026 0.950 . S
C1047 C1046 1.373 . S
C1047 C1063 1.377 . S
C1048 C1046 1.389 . S
C1048 C1049 1.524 . S
C1048 C1062 1.377 . S
C1049 C1048 1.524 . S
C1049 C1050 1.397 . S
C1049 C1054 1.363 . S
C1050 H1027 0.950 . S
C1050 C1049 1.397 . S
C1050 C1051 1.334 . S
C1051 H1028 0.950 . S
C1051 C1050 1.334 . S
C1051 C1052 1.287 . S
C1052 C1051 1.287 . S
C1052 C1053 1.524 . S
C1052 H1071 0.913 . S
C1053 H1029 0.950 . S
C1053 C1052 1.524 . S
C1053 C1054 1.415 . S
C1054 H1030 0.950 . S
C1054 C1049 1.363 . S
C1054 C1053 1.415 . S
C1055 H1031 0.951 . S
C1055 C1056 1.366 . S
C1055 C1057 1.388 . S
C1056 C1055 1.366 . S
C1056 C1060 1.385 . S
C1057 H1032 0.951 . S
C1057 C1055 1.388 . S
C1057 C1058 1.366 . S
C1058 C1057 1.366 . S
C1058 C1059 1.414 . S
C1058 C1061 1.499 . S
C1059 H1033 0.950 . S
C1059 C1058 1.414 . S
C1059 C1060 1.374 . S
C1060 H1034 0.950 . S
C1060 C1056 1.385 . S
C1060 C1059 1.374 . S
C1061 C1058 1.499 . S
C1061 C1062 1.373 . S
C1061 C1063 1.389 . S
C1062 H1035 0.950 . S
C1062 C1048 1.377 . S
C1062 C1061 1.373 . S
C1063 C1047 1.377 . S
C1063 C1061 1.389 . S
C1063 C1064 1.524 . S
C1064 C1063 1.524 . S
C1064 C1065 1.397 . S
C1064 C1069 1.363 . S
C1065 H1036 0.950 . S
C1065 C1064 1.397 . S
C1065 C1066 1.334 . S
C1066 H1037 0.950 . S
C1066 C1065 1.334 . S
C1066 C1067 1.287 . S
C1067 C1066 1.287 . S
C1067 C1068 1.524 . S
C1067 H1070 0.999 . S
C1068 H1038 0.950 . S
C1068 C1067 1.524 . S
C1068 C1069 1.415 . S
C1069 H1039 0.950 . S
C1069 C1064 1.363 . S
C1069 C1068 1.415 . S
H1070 C1067 0.999 . S
H1071 C1052 0.913 . S
H1072 C1090 0.951 . S
H1073 C1092 0.951 . S
H1074 C1094 0.950 . S
H1075 C1095 0.950 . S
H1076 C1097 0.950 . S
H1077 C1100 0.950 . S
H1078 C1101 0.950 . S
H1079 C1103 0.950 . S
H1080 C1104 0.950 . S
H1081 C1105 0.951 . S
H1082 C1107 0.951 . S
H1083 C1109 0.950 . S
H1084 C1110 0.950 . S
H1085 C1112 0.950 . S
H1086 C1115 0.950 . S
H1087 C1116 0.950 . S
H1088 C1118 0.950 . S
H1089 C1119 0.950 . S
C1090 H1072 0.951 . S
C1090 C1091 1.366 . S
C1090 C1092 1.388 . S
C1091 C1090 1.366 . S
C1091 C1095 1.385 . S
C1092 H1073 0.951 . S
C1092 C1090 1.388 . S
C1092 C1093 1.366 . S
C1093 C1092 1.366 . S
C1093 C1094 1.414 . S
C1093 C1096 1.499 . S
C1094 H1074 0.950 . S
C1094 C1093 1.414 . S
C1094 C1095 1.374 . S
C1095 H1075 0.950 . S
C1095 C1091 1.385 . S
C1095 C1094 1.374 . S
C1096 C1093 1.499 . S
C1096 C1097 1.373 . S
C1096 C1098 1.389 . S
C1097 H1076 0.950 . S
C1097 C1096 1.373 . S
C1097 C1113 1.377 . S
C1098 C1096 1.389 . S
C1098 C1099 1.524 . S
C1098 C1112 1.377 . S
C1099 C1098 1.524 . S
C1099 C1100 1.397 . S
C1099 C1104 1.363 . S
C1100 H1077 0.950 . S
C1100 C1099 1.397 . S
C1100 C1101 1.334 . S
C1101 H1078 0.950 . S
C1101 C1100 1.334 . S
C1101 C1102 1.287 . S
C1102 C1101 1.287 . S
C1102 C1103 1.524 . S
C1102 H1121 0.913 . S
C1103 H1079 0.950 . S
C1103 C1102 1.524 . S
C1103 C1104 1.415 . S
C1104 H1080 0.950 . S
C1104 C1099 1.363 . S
C1104 C1103 1.415 . S
C1105 H1081 0.951 . S
C1105 C1106 1.366 . S
C1105 C1107 1.388 . S
C1106 C1105 1.366 . S
C1106 C1110 1.385 . S
C1107 H1082 0.951 . S
C1107 C1105 1.388 . S
C1107 C1108 1.366 . S
C1108 C1107 1.366 . S
C1108 C1109 1.414 . S
C1108 C1111 1.499 . S
C1109 H1083 0.950 . S
C1109 C1108 1.414 . S
C1109 C1110 1.374 . S
C1110 H1084 0.950 . S
C1110 C1106 1.385 . S
C1110 C1109 1.374 . S
C1111 C1108 1.499 . S
C1111 C1112 1.373 . S
C1111 C1113 1.389 . S
C1112 H1085 0.950 . S
C1112 C1098 1.377 . S
C1112 C1111 1.373 . S
C1113 C1097 1.377 . S
C1113 C1111 1.389 . S
C1113 C1114 1.524 . S
C1114 C1113 1.524 . S
C1114 C1115 1.397 . S
C1114 C1119 1.363 . S
C1115 H1086 0.950 . S
C1115 C1114 1.397 . S
C1115 C1116 1.334 . S
C1116 H1087 0.950 . S
C1116 C1115 1.334 . S
C1116 C1117 1.287 . S
C1117 C1116 1.287 . S
C1117 C1118 1.524 . S
C1117 H1120 0.999 . S
C1118 H1088 0.950 . S
C1118 C1117 1.524 . S
C1118 C1119 1.415 . S
C1119 H1089 0.950 . S
C1119 C1114 1.363 . S
C1119 C1118 1.415 . S
H1120 C1117 0.999 . S
H1121 C1102 0.913 . S
H1122 C1140 0.951 . S
H1123 C1142 0.951 . S
H1124 C1144 0.950 . S
H1125 C1145 0.950 . S
H1126 C1147 0.950 . S
H1127 C1150 0.950 . S
H1128 C1151 0.950 . S
H1129 C1153 0.950 . S
H1130 C1154 0.950 . S
H1131 C1155 0.951 . S
H1132 C1157 0.951 . S
H1133 C1159 0.950 . S
H1134 C1160 0.950 . S
H1135 C1162 0.950 . S
H1136 C1165 0.950 . S
H1137 C1166 0.950 . S
H1138 C1168 0.950 . S
H1139 C1169 0.950 . S
C1140 H1122 0.951 . S
C1140 C1141 1.366 . S
C1140 C1142 1.388 . S
C1141 C1140 1.366 . S
C1141 C1145 1.385 . S
C1142 H1123 0.951 . S
C1142 C1140 1.388 . S
C1142 C1143 1.366 . S
C1143 C1142 1.366 . S
C1143 C1144 1.414 . S
C1143 C1146 1.499 . S
C1144 H1124 0.950 . S
C1144 C1143 1.414 . S
C1144 C1145 1.374 . S
C1145 H1125 0.950 . S
C1145 C1141 1.385 . S
C1145 C1144 1.374 . S
C1146 C1143 1.499 . S
C1146 C1147 1.373 . S
C1146 C1148 1.389 . S
C1147 H1126 0.950 . S
C1147 C1146 1.373 . S
C1147 C1163 1.377 . S
C1148 C1146 1.389 . S
C1148 C1149 1.524 . S
C1148 C1162 1.377 . S
C1149 C1148 1.524 . S
C1149 C1150 1.397 . S
C1149 C1154 1.363 . S
C1150 H1127 0.950 . S
C1150 C1149 1.397 . S
C1150 C1151 1.334 . S
C1151 H1128 0.950 . S
C1151 C1150 1.334 . S
C1151 C1152 1.287 . S
C1152 C1151 1.287 . S
C1152 C1153 1.524 . S
C1152 H1171 0.913 . S
C1153 H1129 0.950 . S
C1153 C1152 1.524 . S
C1153 C1154 1.415 . S
C1154 H1130 0.950 . S
C1154 C1149 1.363 . S
C1154 C1153 1.415 . S
C1155 H1131 0.951 . S
C1155 C1156 1.366 . S
C1155 C1157 1.388 . S
C1156 C1155 1.366 . S
C1156 C1160 1.385 . S
C1157 H1132 0.951 . S
C1157 C1155 1.388 . S
C1157 C1158 1.366 . S
C1158 C1157 1.366 . S
C1158 C1159 1.414 . S
C1158 C1161 1.499 . S
C1159 H1133 0.950 . S
C1159 C1158 1.414 . S
C1159 C1160 1.374 . S
C1160 H1134 0.950 . S
C1160 C1156 1.385 . S
C1160 C1159 1.374 . S
C1161 C1158 1.499 . S
C1161 C1162 1.373 . S
C1161 C1163 1.389 . S
C1162 H1135 0.950 . S
C1162 C1148 1.377 . S
C1162 C1161 1.373 . S
C1163 C1147 1.377 . S
C1163 C1161 1.389 . S
C1163 C1164 1.524 . S
C1164 C1163 1.524 . S
C1164 C1165 1.397 . S
C1164 C1169 1.363 . S
C1165 H1136 0.950 . S
C1165 C1164 1.397 . S
C1165 C1166 1.334 . S
C1166 H1137 0.950 . S
C1166 C1165 1.334 . S
C1166 C1167 1.287 . S
C1167 C1166 1.287 . S
C1167 C1168 1.524 . S
C1167 H1170 0.999 . S
C1168 H1138 0.950 . S
C1168 C1167 1.524 . S
C1168 C1169 1.415 . S
C1169 H1139 0.950 . S
C1169 C1164 1.363 . S
C1169 C1168 1.415 . S
H1170 C1167 0.999 . S
H1171 C1152 0.913 . S
H1172 C1190 0.951 . S
H1173 C1192 0.951 . S
H1174 C1194 0.950 . S
H1175 C1195 0.950 . S
H1176 C1197 0.950 . S
H1177 C1200 0.950 . S
H1178 C1201 0.950 . S
H1179 C1203 0.950 . S
H1180 C1204 0.950 . S
H1181 C1205 0.951 . S
H1182 C1207 0.951 . S
H1183 C1209 0.950 . S
H1184 C1210 0.950 . S
H1185 C1212 0.950 . S
H1186 C1215 0.950 . S
H1187 C1216 0.950 . S
H1188 C1218 0.950 . S
H1189 C1219 0.950 . S
C1190 H1172 0.951 . S
C1190 C1191 1.366 . S
C1190 C1192 1.388 . S
C1191 C1190 1.366 . S
C1191 C1195 1.385 . S
C1192 H1173 0.951 . S
C1192 C1190 1.388 . S
C1192 C1193 1.366 . S
C1193 C1192 1.366 . S
C1193 C1194 1.414 . S
C1193 C1196 1.499 . S
C1194 H1174 0.950 . S
C1194 C1193 1.414 . S
C1194 C1195 1.374 . S
C1195 H1175 0.950 . S
C1195 C1191 1.385 . S
C1195 C1194 1.374 . S
C1196 C1193 1.499 . S
C1196 C1197 1.373 . S
C1196 C1198 1.389 . S
C1197 H1176 0.950 . S
C1197 C1196 1.373 . S
C1197 C1213 1.377 . S
C1198 C1196 1.389 . S
C1198 C1199 1.524 . S
C1198 C1212 1.377 . S
C1199 C1198 1.524 . S
C1199 C1200 1.397 . S
C1199 C1204 1.363 . S
C1200 H1177 0.950 . S
C1200 C1199 1.397 . S
C1200 C1201 1.334 . S
C1201 H1178 0.950 . S
C1201 C1200 1.334 . S
C1201 C1202 1.287 . S
C1202 C1201 1.287 . S
C1202 C1203 1.524 . S
C1202 H1221 0.913 . S
C1203 H1179 0.950 . S
C1203 C1202 1.524 . S
C1203 C1204 1.415 . S
C1204 H1180 0.950 . S
C1204 C1199 1.363 . S
C1204 C1203 1.415 . S
C1205 H1181 0.951 . S
C1205 C1206 1.366 . S
C1205 C1207 1.388 . S
C1206 C1205 1.366 . S
C1206 C1210 1.385 . S
C1207 H1182 0.951 . S
C1207 C1205 1.388 . S
C1207 C1208 1.366 . S
C1208 C1207 1.366 . S
C1208 C1209 1.414 . S
C1208 C1211 1.499 . S
C1209 H1183 0.950 . S
C1209 C1208 1.414 . S
C1209 C1210 1.374 . S
C1210 H1184 0.950 . S
C1210 C1206 1.385 . S
C1210 C1209 1.374 . S
C1211 C1208 1.499 . S
C1211 C1212 1.373 . S
C1211 C1213 1.389 . S
C1212 H1185 0.950 . S
C1212 C1198 1.377 . S
C1212 C1211 1.373 . S
C1213 C1197 1.377 . S
C1213 C1211 1.389 . S
C1213 C1214 1.524 . S
C1214 C1213 1.524 . S
C1214 C1215 1.397 . S
C1214 C1219 1.363 . S
C1215 H1186 0.950 . S
C1215 C1214 1.397 . S
C1215 C1216 1.334 . S
C1216 H1187 0.950 . S
C1216 C1215 1.334 . S
C1216 C1217 1.287 . S
C1217 C1216 1.287 . S
C1217 C1218 1.524 . S
C1217 H1220 0.999 . S
C1218 H1188 0.950 . S
C1218 C1217 1.524 . S
C1218 C1219 1.415 . S
C1219 H1189 0.950 . S
C1219 C1214 1.363 . S
C1219 C1218 1.415 . S
H1220 C1217 0.999 . S
H1221 C1202 0.913 . S
H1222 C1240 0.951 . S
H1223 C1242 0.951 . S
H1224 C1244 0.950 . S
H1225 C1245 0.950 . S
H1226 C1247 0.950 . S
H1227 C1250 0.950 . S
H1228 C1251 0.950 . S
H1229 C1253 0.950 . S
H1230 C1254 0.950 . S
H1231 C1255 0.951 . S
H1232 C1257 0.951 . S
H1233 C1259 0.950 . S
H1234 C1260 0.950 . S
H1235 C1262 0.950 . S
H1236 C1265 0.950 . S
H1237 C1266 0.950 . S
H1238 C1268 0.950 . S
H1239 C1269 0.950 . S
C1240 H1222 0.951 . S
C1240 C1241 1.366 . S
C1240 C1242 1.388 . S
C1241 C1240 1.366 . S
C1241 C1245 1.385 . S
C1242 H1223 0.951 . S
C1242 C1240 1.388 . S
C1242 C1243 1.366 . S
C1243 C1242 1.366 . S
C1243 C1244 1.414 . S
C1243 C1246 1.499 . S
C1244 H1224 0.950 . S
C1244 C1243 1.414 . S
C1244 C1245 1.374 . S
C1245 H1225 0.950 . S
C1245 C1241 1.385 . S
C1245 C1244 1.374 . S
C1246 C1243 1.499 . S
C1246 C1247 1.373 . S
C1246 C1248 1.389 . S
C1247 H1226 0.950 . S
C1247 C1246 1.373 . S
C1247 C1263 1.377 . S
C1248 C1246 1.389 . S
C1248 C1249 1.524 . S
C1248 C1262 1.377 . S
C1249 C1248 1.524 . S
C1249 C1250 1.397 . S
C1249 C1254 1.363 . S
C1250 H1227 0.950 . S
C1250 C1249 1.397 . S
C1250 C1251 1.334 . S
C1251 H1228 0.950 . S
C1251 C1250 1.334 . S
C1251 C1252 1.287 . S
C1252 C1251 1.287 . S
C1252 C1253 1.524 . S
C1252 H1271 0.913 . S
C1253 H1229 0.950 . S
C1253 C1252 1.524 . S
C1253 C1254 1.415 . S
C1254 H1230 0.950 . S
C1254 C1249 1.363 . S
C1254 C1253 1.415 . S
C1255 H1231 0.951 . S
C1255 C1256 1.366 . S
C1255 C1257 1.388 . S
C1256 C1255 1.366 . S
C1256 C1260 1.385 . S
C1257 H1232 0.951 . S
C1257 C1255 1.388 . S
C1257 C1258 1.366 . S
C1258 C1257 1.366 . S
C1258 C1259 1.414 . S
C1258 C1261 1.499 . S
C1259 H1233 0.950 . S
C1259 C1258 1.414 . S
C1259 C1260 1.374 . S
C1260 H1234 0.950 . S
C1260 C1256 1.385 . S
C1260 C1259 1.374 . S
C1261 C1258 1.499 . S
C1261 C1262 1.373 . S
C1261 C1263 1.389 . S
C1262 H1235 0.950 . S
C1262 C1248 1.377 . S
C1262 C1261 1.373 . S
C1263 C1247 1.377 . S
C1263 C1261 1.389 . S
C1263 C1264 1.524 . S
C1264 C1263 1.524 . S
C1264 C1265 1.397 . S
C1264 C1269 1.363 . S
C1265 H1236 0.950 . S
C1265 C1264 1.397 . S
C1265 C1266 1.334 . S
C1266 H1237 0.950 . S
C1266 C1265 1.334 . S
C1266 C1267 1.287 . S
C1267 C1266 1.287 . S
C1267 C1268 1.524 . S
C1267 H1270 0.999 . S
C1268 H1238 0.950 . S
C1268 C1267 1.524 . S
C1268 C1269 1.415 . S
C1269 H1239 0.950 . S
C1269 C1264 1.363 . S
C1269 C1268 1.415 . S
H1270 C1267 0.999 . S
H1271 C1252 0.913 . S
H1272 C1290 0.951 . S
H1273 C1292 0.951 . S
H1274 C1294 0.950 . S
H1275 C1295 0.950 . S
H1276 C1297 0.950 . S
H1277 C1300 0.950 . S
H1278 C1301 0.950 . S
H1279 C1303 0.950 . S
H1280 C1304 0.950 . S
H1281 C1305 0.951 . S
H1282 C1307 0.951 . S
H1283 C1309 0.950 . S
H1284 C1310 0.950 . S
H1285 C1312 0.950 . S
H1286 C1315 0.950 . S
H1287 C1316 0.950 . S
H1288 C1318 0.950 . S
H1289 C1319 0.950 . S
C1290 H1272 0.951 . S
C1290 C1291 1.366 . S
C1290 C1292 1.388 . S
C1291 C1290 1.366 . S
C1291 C1295 1.385 . S
C1292 H1273 0.951 . S
C1292 C1290 1.388 . S
C1292 C1293 1.366 . S
C1293 C1292 1.366 . S
C1293 C1294 1.414 . S
C1293 C1296 1.499 . S
C1294 H1274 0.950 . S
C1294 C1293 1.414 . S
C1294 C1295 1.374 . S
C1295 H1275 0.950 . S
C1295 C1291 1.385 . S
C1295 C1294 1.374 . S
C1296 C1293 1.499 . S
C1296 C1297 1.373 . S
C1296 C1298 1.389 . S
C1297 H1276 0.950 . S
C1297 C1296 1.373 . S
C1297 C1313 1.377 . S
C1298 C1296 1.389 . S
C1298 C1299 1.524 . S
C1298 C1312 1.377 . S
C1299 C1298 1.524 . S
C1299 C1300 1.397 . S
C1299 C1304 1.363 . S
C1300 H1277 0.950 . S
C1300 C1299 1.397 . S
C1300 C1301 1.334 . S
C1301 H1278 0.950 . S
C1301 C1300 1.334 . S
C1301 C1302 1.287 . S
C1302 C1301 1.287 . S
C1302 C1303 1.524 . S
C1302 H1321 0.913 . S
C1303 H1279 0.950 . S
C1303 C1302 1.524 . S
C1303 C1304 1.415 . S
C1304 H1280 0.950 . S
C1304 C1299 1.363 . S
C1304 C1303 1.415 . S
C1305 H1281 0.951 . S
C1305 C1306 1.366 . S
C1305 C1307 1.388 . S
C1306 C1305 1.366 . S
C1306 C1310 1.385 . S
C1307 H1282 0.951 . S
C1307 C1305 1.388 . S
C1307 C1308 1.366 . S
C1308 C1307 1.366 . S
C1308 C1309 1.414 . S
C1308 C1311 1.499 . S
C1309 H1283 0.950 . S
C1309 C1308 1.414 . S
C1309 C1310 1.374 . S
C1310 H1284 0.950 . S
C1310 C1306 1.385 . S
C1310 C1309 1.374 . S
C1311 C1308 1.499 . S
C1311 C1312 1.373 . S
C1311 C1313 1.389 . S
C1312 H1285 0.950 . S
C1312 C1298 1.377 . S
C1312 C1311 1.373 . S
C1313 C1297 1.377 . S
C1313 C1311 1.389 . S
C1313 C1314 1.524 . S
C1314 C1313 1.524 . S
C1314 C1315 1.397 . S
C1314 C1319 1.363 . S
C1315 H1286 0.950 . S
C1315 C1314 1.397 . S
C1315 C1316 1.334 . S
C1316 H1287 0.950 . S
C1316 C1315 1.334 . S
C1316 C1317 1.287 . S
C1317 C1316 1.287 . S
C1317 C1318 1.524 . S
C1317 H1320 0.999 . S
C1318 H1288 0.950 . S
C1318 C1317 1.524 . S
C1318 C1319 1.415 . S
C1319 H1289 0.950 . S
C1319 C1314 1.363 . S
C1319 C1318 1.415 . S
H1320 C1317 0.999 . S
H1321 C1302 0.913 . S
H1322 C1340 0.951 . S
H1323 C1342 0.951 . S
H1324 C1344 0.950 . S
H1325 C1345 0.950 . S
H1326 C1347 0.950 . S
H1327 C1350 0.950 . S
H1328 C1351 0.950 . S
H1329 C1353 0.950 . S
H1330 C1354 0.950 . S
H1331 C1355 0.951 . S
H1332 C1357 0.951 . S
H1333 C1359 0.950 . S
H1334 C1360 0.950 . S
H1335 C1362 0.950 . S
H1336 C1365 0.950 . S
H1337 C1366 0.950 . S
H1338 C1368 0.950 . S
H1339 C1369 0.950 . S
C1340 H1322 0.951 . S
C1340 C1341 1.366 . S
C1340 C1342 1.388 . S
C1341 C1340 1.366 . S
C1341 C1345 1.385 . S
C1342 H1323 0.951 . S
C1342 C1340 1.388 . S
C1342 C1343 1.366 . S
C1343 C1342 1.366 . S
C1343 C1344 1.414 . S
C1343 C1346 1.499 . S
C1344 H1324 0.950 . S
C1344 C1343 1.414 . S
C1344 C1345 1.374 . S
C1345 H1325 0.950 . S
C1345 C1341 1.385 . S
C1345 C1344 1.374 . S
C1346 C1343 1.499 . S
C1346 C1347 1.373 . S
C1346 C1348 1.389 . S
C1347 H1326 0.950 . S
C1347 C1346 1.373 . S
C1347 C1363 1.377 . S
C1348 C1346 1.389 . S
C1348 C1349 1.524 . S
C1348 C1362 1.377 . S
C1349 C1348 1.524 . S
C1349 C1350 1.397 . S
C1349 C1354 1.363 . S
C1350 H1327 0.950 . S
C1350 C1349 1.397 . S
C1350 C1351 1.334 . S
C1351 H1328 0.950 . S
C1351 C1350 1.334 . S
C1351 C1352 1.287 . S
C1352 C1351 1.287 . S
C1352 C1353 1.524 . S
C1352 H1371 0.913 . S
C1353 H1329 0.950 . S
C1353 C1352 1.524 . S
C1353 C1354 1.415 . S
C1354 H1330 0.950 . S
C1354 C1349 1.363 . S
C1354 C1353 1.415 . S
C1355 H1331 0.951 . S
C1355 C1356 1.366 . S
C1355 C1357 1.388 . S
C1356 C1355 1.366 . S
C1356 C1360 1.385 . S
C1357 H1332 0.951 . S
C1357 C1355 1.388 . S
C1357 C1358 1.366 . S
C1358 C1357 1.366 . S
C1358 C1359 1.414 . S
C1358 C1361 1.499 . S
C1359 H1333 0.950 . S
C1359 C1358 1.414 . S
C1359 C1360 1.374 . S
C1360 H1334 0.950 . S
C1360 C1356 1.385 . S
C1360 C1359 1.374 . S
C1361 C1358 1.499 . S
C1361 C1362 1.373 . S
C1361 C1363 1.389 . S
C1362 H1335 0.950 . S
C1362 C1348 1.377 . S
C1362 C1361 1.373 . S
C1363 C1347 1.377 . S
C1363 C1361 1.389 . S
C1363 C1364 1.524 . S
C1364 C1363 1.524 . S
C1364 C1365 1.397 . S
C1364 C1369 1.363 . S
C1365 H1336 0.950 . S
C1365 C1364 1.397 . S
C1365 C1366 1.334 . S
C1366 H1337 0.950 . S
C1366 C1365 1.334 . S
C1366 C1367 1.287 . S
C1367 C1366 1.287 . S
C1367 C1368 1.524 . S
C1367 H1370 0.999 . S
C1368 H1338 0.950 . S
C1368 C1367 1.524 . S
C1368 C1369 1.415 . S
C1369 H1339 0.950 . S
C1369 C1364 1.363 . S
C1369 C1368 1.415 . S
H1370 C1367 0.999 . S
H1371 C1352 0.913 . S
H1372 C1390 0.951 . S
H1373 C1392 0.951 . S
H1374 C1394 0.950 . S
H1375 C1395 0.950 . S
H1376 C1397 0.950 . S
H1377 C1400 0.950 . S
H1378 C1401 0.950 . S
H1379 C1403 0.950 . S
H1380 C1404 0.950 . S
H1381 C1405 0.951 . S
H1382 C1407 0.951 . S
H1383 C1409 0.950 . S
H1384 C1410 0.950 . S
H1385 C1412 0.950 . S
H1386 C1415 0.950 . S
H1387 C1416 0.950 . S
H1388 C1418 0.950 . S
H1389 C1419 0.950 . S
C1390 H1372 0.951 . S
C1390 C1391 1.366 . S
C1390 C1392 1.388 . S
C1391 C1390 1.366 . S
C1391 C1395 1.385 . S
C1392 H1373 0.951 . S
C1392 C1390 1.388 . S
C1392 C1393 1.366 . S
C1393 C1392 1.366 . S
C1393 C1394 1.414 . S
C1393 C1396 1.499 . S
C1394 H1374 0.950 . S
C1394 C1393 1.414 . S
C1394 C1395 1.374 . S
C1395 H1375 0.950 . S
C1395 C1391 1.385 . S
C1395 C1394 1.374 . S
C1396 C1393 1.499 . S
C1396 C1397 1.373 . S
C1396 C1398 1.389 . S
C1397 H1376 0.950 . S
C1397 C1396 1.373 . S
C1397 C1413 1.377 . S
C1398 C1396 1.389 . S
C1398 C1399 1.524 . S
C1398 C1412 1.377 . S
C1399 C1398 1.524 . S
C1399 C1400 1.397 . S
C1399 C1404 1.363 . S
C1400 H1377 0.950 . S
C1400 C1399 1.397 . S
C1400 C1401 1.334 . S
C1401 H1378 0.950 . S
C1401 C1400 1.334 . S
C1401 C1402 1.287 . S
C1402 C1401 1.287 . S
C1402 C1403 1.524 . S
C1402 H1421 0.913 . S
C1403 H1379 0.950 . S
C1403 C1402 1.524 . S
C1403 C1404 1.415 . S
C1404 H1380 0.950 . S
C1404 C1399 1.363 . S
C1404 C1403 1.415 . S
C1405 H1381 0.951 . S
C1405 C1406 1.366 . S
C1405 C1407 1.388 . S
C1406 C1405 1.366 . S
C1406 C1410 1.385 . S
C1407 H1382 0.951 . S
C1407 C1405 1.388 . S
C1407 C1408 1.366 . S
C1408 C1407 1.366 . S
C1408 C1409 1.414 . S
C1408 C1411 1.499 . S
C1409 H1383 0.950 . S
C1409 C1408 1.414 . S
C1409 C1410 1.374 . S
C1410 H1384 0.950 . S
C1410 C1406 1.385 . S
C1410 C1409 1.374 . S
C1411 C1408 1.499 . S
C1411 C1412 1.373 . S
C1411 C1413 1.389 . S
C1412 H1385 0.950 . S
C1412 C1398 1.377 . S
C1412 C1411 1.373 . S
C1413 C1397 1.377 . S
C1413 C1411 1.389 . S
C1413 C1414 1.524 . S
C1414 C1413 1.524 . S
C1414 C1415 1.397 . S
C1414 C1419 1.363 . S
C1415 H1386 0.950 . S
C1415 C1414 1.397 . S
C1415 C1416 1.334 . S
C1416 H1387 0.950 . S
C1416 C1415 1.334 . S
C1416 C1417 1.287 . S
C1417 C1416 1.287 . S
C1417 C1418 1.524 . S
C1417 H1420 0.999 . S
C1418 H1388 0.950 . S
C1418 C1417 1.524 . S
C1418 C1419 1.415 . S
C1419 H1389 0.950 . S
C1419 C1414 1.363 . S
C1419 C1418 1.415 . S
H1420 C1417 0.999 . S
H1421 C1402 0.913 . S
H1422 C1440 0.951 . S
H1423 C1442 0.951 . S
H1424 C1444 0.950 . S
H1425 C1445 0.950 . S
H1426 C1447 0.950 . S
H1427 C1450 0.950 . S
H1428 C1451 0.950 . S
H1429 C1453 0.950 . S
H1430 C1454 0.950 . S
H1431 C1455 0.951 . S
H1432 C1457 0.951 . S
H1433 C1459 0.950 . S
H1434 C1460 0.950 . S
H1435 C1462 0.950 . S
H1436 C1465 0.950 . S
H1437 C1466 0.950 . S
H1438 C1468 0.950 . S
H1439 C1469 0.950 . S
C1440 H1422 0.951 . S
C1440 C1441 1.366 . S
C1440 C1442 1.388 . S
C1441 C1440 1.366 . S
C1441 C1445 1.385 . S
C1442 H1423 0.951 . S
C1442 C1440 1.388 . S
C1442 C1443 1.366 . S
C1443 C1442 1.366 . S
C1443 C1444 1.414 . S
C1443 C1446 1.499 . S
C1444 H1424 0.950 . S
C1444 C1443 1.414 . S
C1444 C1445 1.374 . S
C1445 H1425 0.950 . S
C1445 C1441 1.385 . S
C1445 C1444 1.374 . S
C1446 C1443 1.499 . S
C1446 C1447 1.373 . S
C1446 C1448 1.389 . S
C1447 H1426 0.950 . S
C1447 C1446 1.373 . S
C1447 C1463 1.377 . S
C1448 C1446 1.389 . S
C1448 C1449 1.524 . S
C1448 C1462 1.377 . S
C1449 C1448 1.524 . S
C1449 C1450 1.397 . S
C1449 C1454 1.363 . S
C1450 H1427 0.950 . S
C1450 C1449 1.397 . S
C1450 C1451 1.334 . S
C1451 H1428 0.950 . S
C1451 C1450 1.334 . S
C1451 C1452 1.287 . S
C1452 C1451 1.287 . S
C1452 C1453 1.524 . S
C1452 H1471 0.913 . S
C1453 H1429 0.950 . S
C1453 C1452 1.524 . S
C1453 C1454 1.415 . S
C1454 H1430 0.950 . S
C1454 C1449 1.363 . S
C1454 C1453 1.415 . S
C1455 H1431 0.951 . S
C1455 C1456 1.366 . S
C1455 C1457 1.388 . S
C1456 C1455 1.366 . S
C1456 C1460 1.385 . S
C1457 H1432 0.951 . S
C1457 C1455 1.388 . S
C1457 C1458 1.366 . S
C1458 C1457 1.366 . S
C1458 C1459 1.414 . S
C1458 C1461 1.499 . S
C1459 H1433 0.950 . S
C1459 C1458 1.414 . S
C1459 C1460 1.374 . S
C1460 H1434 0.950 . S
C1460 C1456 1.385 . S
C1460 C1459 1.374 . S
C1461 C1458 1.499 . S
C1461 C1462 1.373 . S
C1461 C1463 1.389 . S
C1462 H1435 0.950 . S
C1462 C1448 1.377 . S
C1462 C1461 1.373 . S
C1463 C1447 1.377 . S
C1463 C1461 1.389 . S
C1463 C1464 1.524 . S
C1464 C1463 1.524 . S
C1464 C1465 1.397 . S
C1464 C1469 1.363 . S
C1465 H1436 0.950 . S
C1465 C1464 1.397 . S
C1465 C1466 1.334 . S
C1466 H1437 0.950 . S
C1466 C1465 1.334 . S
C1466 C1467 1.287 . S
C1467 C1466 1.287 . S
C1467 C1468 1.524 . S
C1467 H1470 0.999 . S
C1468 H1438 0.950 . S
C1468 C1467 1.524 . S
C1468 C1469 1.415 . S
C1469 H1439 0.950 . S
C1469 C1464 1.363 . S
C1469 C1468 1.415 . S
H1470 C1467 0.999 . S
H1471 C1452 0.913 . S
H1472 C1490 0.951 . S
H1473 C1492 0.951 . S
H1474 C1494 0.950 . S
H1475 C1495 0.950 . S
H1476 C1497 0.950 . S
H1477 C1500 0.950 . S
H1478 C1501 0.950 . S
H1479 C1503 0.950 . S
H1480 C1504 0.950 . S
H1481 C1505 0.951 . S
H1482 C1507 0.951 . S
H1483 C1509 0.950 . S
H1484 C1510 0.950 . S
H1485 C1512 0.950 . S
H1486 C1515 0.950 . S
H1487 C1516 0.950 . S
H1488 C1518 0.950 . S
H1489 C1519 0.950 . S
C1490 H1472 0.951 . S
C1490 C1491 1.366 . S
C1490 C1492 1.388 . S
C1491 C1490 1.366 . S
C1491 C1495 1.385 . S
C1492 H1473 0.951 . S
C1492 C1490 1.388 . S
C1492 C1493 1.366 . S
C1493 C1492 1.366 . S
C1493 C1494 1.414 . S
C1493 C1496 1.499 . S
C1494 H1474 0.950 . S
C1494 C1493 1.414 . S
C1494 C1495 1.374 . S
C1495 H1475 0.950 . S
C1495 C1491 1.385 . S
C1495 C1494 1.374 . S
C1496 C1493 1.499 . S
C1496 C1497 1.373 . S
C1496 C1498 1.389 . S
C1497 H1476 0.950 . S
C1497 C1496 1.373 . S
C1497 C1513 1.377 . S
C1498 C1496 1.389 . S
C1498 C1499 1.524 . S
C1498 C1512 1.377 . S
C1499 C1498 1.524 . S
C1499 C1500 1.397 . S
C1499 C1504 1.363 . S
C1500 H1477 0.950 . S
C1500 C1499 1.397 . S
C1500 C1501 1.334 . S
C1501 H1478 0.950 . S
C1501 C1500 1.334 . S
C1501 C1502 1.287 . S
C1502 C1501 1.287 . S
C1502 C1503 1.524 . S
C1502 H1521 0.913 . S
C1503 H1479 0.950 . S
C1503 C1502 1.524 . S
C1503 C1504 1.415 . S
C1504 H1480 0.950 . S
C1504 C1499 1.363 . S
C1504 C1503 1.415 . S
C1505 H1481 0.951 . S
C1505 C1506 1.366 . S
C1505 C1507 1.388 . S
C1506 C1505 1.366 . S
C1506 C1510 1.385 . S
C1507 H1482 0.951 . S
C1507 C1505 1.388 . S
C1507 C1508 1.366 . S
C1508 C1507 1.366 . S
C1508 C1509 1.414 . S
C1508 C1511 1.499 . S
C1509 H1483 0.950 . S
C1509 C1508 1.414 . S
C1509 C1510 1.374 . S
C1510 H1484 0.950 . S
C1510 C1506 1.385 . S
C1510 C1509 1.374 . S
C1511 C1508 1.499 . S
C1511 C1512 1.373 . S
C1511 C1513 1.389 . S
C1512 H1485 0.950 . S
C1512 C1498 1.377 . S
C1512 C1511 1.373 . S
C1513 C1497 1.377 . S
C1513 C1511 1.389 . S
C1513 C1514 1.524 . S
C1514 C1513 1.524 . S
C1514 C1515 1.397 . S
C1514 C1519 1.363 . S
C1515 H1486 0.950 . S
C1515 C1514 1.397 . S
C1515 C1516 1.334 . S
C1516 H1487 0.950 . S
C1516 C1515 1.334 . S
C1516 C1517 1.287 . S
C1517 C1516 1.287 . S
C1517 C1518 1.524 . S
C1517 H1520 0.999 . S
C1518 H1488 0.950 . S
C1518 C1517 1.524 . S
C1518 C1519 1.415 . S
C1519 H1489 0.950 . S
C1519 C1514 1.363 . S
C1519 C1518 1.415 . S
H1520 C1517 0.999 . S
H1521 C1502 0.913 . S
H1522 C1540 0.951 . S
H1523 C1542 0.951 . S
H1524 C1544 0.950 . S
H1525 C1545 0.950 . S
H1526 C1547 0.950 . S
H1527 C1550 0.950 . S
H1528 C1551 0.950 . S
H1529 C1553 0.950 . S
H1530 C1554 0.950 . S
H1531 C1555 0.951 . S
H1532 C1557 0.951 . S
H1533 C1559 0.950 . S
H1534 C1560 0.950 . S
H1535 C1562 0.950 . S
H1536 C1565 0.950 . S
H1537 C1566 0.950 . S
H1538 C1568 0.950 . S
H1539 C1569 0.950 . S
C1540 H1522 0.951 . S
C1540 C1541 1.366 . S
C1540 C1542 1.388 . S
C1541 C1540 1.366 . S
C1541 C1545 1.385 . S
C1542 H1523 0.951 . S
C1542 C1540 1.388 . S
C1542 C1543 1.366 . S
C1543 C1542 1.366 . S
C1543 C1544 1.414 . S
C1543 C1546 1.499 . S
C1544 H1524 0.950 . S
C1544 C1543 1.414 . S
C1544 C1545 1.374 . S
C1545 H1525 0.950 . S
C1545 C1541 1.385 . S
C1545 C1544 1.374 . S
C1546 C1543 1.499 . S
C1546 C1547 1.373 . S
C1546 C1548 1.389 . S
C1547 H1526 0.950 . S
C1547 C1546 1.373 . S
C1547 C1563 1.377 . S
C1548 C1546 1.389 . S
C1548 C1549 1.524 . S
C1548 C1562 1.377 . S
C1549 C1548 1.524 . S
C1549 C1550 1.397 . S
C1549 C1554 1.363 . S
C1550 H1527 0.950 . S
C1550 C1549 1.397 . S
C1550 C1551 1.334 . S
C1551 H1528 0.950 . S
C1551 C1550 1.334 . S
C1551 C1552 1.287 . S
C1552 C1551 1.287 . S
C1552 C1553 1.524 . S
C1552 H1571 0.913 . S
C1553 H1529 0.950 . S
C1553 C1552 1.524 . S
C1553 C1554 1.415 . S
C1554 H1530 0.950 . S
C1554 C1549 1.363 . S
C1554 C1553 1.415 . S
C1555 H1531 0.951 . S
C1555 C1556 1.366 . S
C1555 C1557 1.388 . S
C1556 C1555 1.366 . S
C1556 C1560 1.385 . S
C1557 H1532 0.951 . S
C1557 C1555 1.388 . S
C1557 C1558 1.366 . S
C1558 C1557 1.366 . S
C1558 C1559 1.414 . S
C1558 C1561 1.499 . S
C1559 H1533 0.950 . S
C1559 C1558 1.414 . S
C1559 C1560 1.374 . S
C1560 H1534 0.950 . S
C1560 C1556 1.385 . S
C1560 C1559 1.374 . S
C1561 C1558 1.499 . S
C1561 C1562 1.373 . S
C1561 C1563 1.389 . S
C1562 H1535 0.950 . S
C1562 C1548 1.377 . S
C1562 C1561 1.373 . S
C1563 C1547 1.377 . S
C1563 C1561 1.389 . S
C1563 C1564 1.524 . S
C1564 C1563 1.524 . S
C1564 C1565 1.397 . S
C1564 C1569 1.363 . S
C1565 H1536 0.950 . S
C1565 C1564 1.397 . S
C1565 C1566 1.334 . S
C1566 H1537 0.950 . S
C1566 C1565 1.334 . S
C1566 C1567 1.287 . S
C1567 C1566 1.287 . S
C1567 C1568 1.524 . S
C1567 H1570 0.999 . S
C1568 H1538 0.950 . S
C1568 C1567 1.524 . S
C1568 C1569 1.415 . S
C1569 H1539 0.950 . S
C1569 C1564 1.363 . S
C1569 C1568 1.415 . S
H1570 C1567 0.999 . S
H1571 C1552 0.913 . S
H1572 C1590 0.951 . S
H1573 C1592 0.951 . S
H1574 C1594 0.950 . S
H1575 C1595 0.950 . S
H1576 C1597 0.950 . S
H1577 C1600 0.950 . S
H1578 C1601 0.950 . S
H1579 C1603 0.950 . S
H1580 C1604 0.950 . S
H1581 C1605 0.951 . S
H1582 C1607 0.951 . S
H1583 C1609 0.950 . S
H1584 C1610 0.950 . S
H1585 C1612 0.950 . S
H1586 C1615 0.950 . S
H1587 C1616 0.950 . S
H1588 C1618 0.950 . S
H1589 C1619 0.950 . S
C1590 H1572 0.951 . S
C1590 C1591 1.366 . S
C1590 C1592 1.388 . S
C1591 C1590 1.366 . S
C1591 C1595 1.385 . S
C1592 H1573 0.951 . S
C1592 C1590 1.388 . S
C1592 C1593 1.366 . S
C1593 C1592 1.366 . S
C1593 C1594 1.414 . S
C1593 C1596 1.499 . S
C1594 H1574 0.950 . S
C1594 C1593 1.414 . S
C1594 C1595 1.374 . S
C1595 H1575 0.950 . S
C1595 C1591 1.385 . S
C1595 C1594 1.374 . S
C1596 C1593 1.499 . S
C1596 C1597 1.373 . S
C1596 C1598 1.389 . S
C1597 H1576 0.950 . S
C1597 C1596 1.373 . S
C1597 C1613 1.377 . S
C1598 C1596 1.389 . S
C1598 C1599 1.524 . S
C1598 C1612 1.377 . S
C1599 C1598 1.524 . S
C1599 C1600 1.397 . S
C1599 C1604 1.363 . S
C1600 H1577 0.950 . S
C1600 C1599 1.397 . S
C1600 C1601 1.334 . S
C1601 H1578 0.950 . S
C1601 C1600 1.334 . S
C1601 C1602 1.287 . S
C1602 C1601 1.287 . S
C1602 C1603 1.524 . S
C1602 H1621 0.913 . S
C1603 H1579 0.950 . S
C1603 C1602 1.524 . S
C1603 C1604 1.415 . S
C1604 H1580 0.950 . S
C1604 C1599 1.363 . S
C1604 C1603 1.415 . S
C1605 H1581 0.951 . S
C1605 C1606 1.366 . S
C1605 C1607 1.388 . S
C1606 C1605 1.366 . S
C1606 C1610 1.385 . S
C1607 H1582 0.951 . S
C1607 C1605 1.388 . S
C1607 C1608 1.366 . S
C1608 C1607 1.366 . S
C1608 C1609 1.414 . S
C1608 C1611 1.499 . S
C1609 H1583 0.950 . S
C1609 C1608 1.414 . S
C1609 C1610 1.374 . S
C1610 H1584 0.950 . S
C1610 C1606 1.385 . S
C1610 C1609 1.374 . S
C1611 C1608 1.499 . S
C1611 C1612 1.373 . S
C1611 C1613 1.389 . S
C1612 H1585 0.950 . S
C1612 C1598 1.377 . S
C1612 C1611 1.373 . S
C1613 C1597 1.377 . S
C1613 C1611 1.389 . S
C1613 C1614 1.524 . S
C1614 C1613 1.524 . S
C1614 C1615 1.397 . S
C1614 C1619 1.363 . S
C1615 H1586 0.950 . S
C1615 C1614 1.397 . S
C1615 C1616 1.334 . S
C1616 H1587 0.950 . S
C1616 C1615 1.334 . S
C1616 C1617 1.287 . S
C1617 C1616 1.287 . S
C1617 C1618 1.524 . S
C1617 H1620 0.999 . S
C1618 H1588 0.950 . S
C1618 C1617 1.524 . S
C1618 C1619 1.415 . S
C1619 H1589 0.950 . S
C1619 C1614 1.363 . S
C1619 C1618 1.415 . S
H1620 C1617 0.999 . S
H1621 C1602 0.913 . S
H1622 C1640 0.951 . S
H1623 C1642 0.951 . S
H1624 C1644 0.950 . S
H1625 C1645 0.950 . S
H1626 C1647 0.950 . S
H1627 C1650 0.950 . S
H1628 C1651 0.950 . S
H1629 C1653 0.950 . S
H1630 C1654 0.950 . S
H1631 C1655 0.951 . S
H1632 C1657 0.951 . S
H1633 C1659 0.950 . S
H1634 C1660 0.950 . S
H1635 C1662 0.950 . S
H1636 C1665 0.950 . S
H1637 C1666 0.950 . S
H1638 C1668 0.950 . S
H1639 C1669 0.950 . S
C1640 H1622 0.951 . S
C1640 C1641 1.366 . S
C1640 C1642 1.388 . S
C1641 C1640 1.366 . S
C1641 C1645 1.385 . S
C1642 H1623 0.951 . S
C1642 C1640 1.388 . S
C1642 C1643 1.366 . S
C1643 C1642 1.366 . S
C1643 C1644 1.414 . S
C1643 C1646 1.499 . S
C1644 H1624 0.950 . S
C1644 C1643 1.414 . S
C1644 C1645 1.374 . S
C1645 H1625 0.950 . S
C1645 C1641 1.385 . S
C1645 C1644 1.374 . S
C1646 C1643 1.499 . S
C1646 C1647 1.373 . S
C1646 C1648 1.389 . S
C1647 H1626 0.950 . S
C1647 C1646 1.373 . S
C1647 C1663 1.377 . S
C1648 C1646 1.389 . S
C1648 C1649 1.524 . S
C1648 C1662 1.377 . S
C1649 C1648 1.524 . S
C1649 C1650 1.397 . S
C1649 C1654 1.363 . S
C1650 H1627 0.950 . S
C1650 C1649 1.397 . S
C1650 C1651 1.334 . S
C1651 H1628 0.950 . S
C1651 C1650 1.334 . S
C1651 C1652 1.287 . S
C1652 C1651 1.287 . S
C1652 C1653 1.524 . S
C1652 H1671 0.913 . S
C1653 H1629 0.950 . S
C1653 C1652 1.524 . S
C1653 C1654 1.415 . S
C1654 H1630 0.950 . S
C1654 C1649 1.363 . S
C1654 C1653 1.415 . S
C1655 H1631 0.951 . S
C1655 C1656 1.366 . S
C1655 C1657 1.388 . S
C1656 C1655 1.366 . S
C1656 C1660 1.385 . S
C1657 H1632 0.951 . S
C1657 C1655 1.388 . S
C1657 C1658 1.366 . S
C1658 C1657 1.366 . S
C1658 C1659 1.414 . S
C1658 C1661 1.499 . S
C1659 H1633 0.950 . S
C1659 C1658 1.414 . S
C1659 C1660 1.374 . S
C1660 H1634 0.950 . S
C1660 C1656 1.385 . S
C1660 C1659 1.374 . S
C1661 C1658 1.499 . S
C1661 C1662 1.373 . S
C1661 C1663 1.389 . S
C1662 H1635 0.950 . S
C1662 C1648 1.377 . S
C1662 C1661 1.373 . S
C1663 C1647 1.377 . S
C1663 C1661 1.389 . S
C1663 C1664 1.524 . S
C1664 C1663 1.524 . S
C1664 C1665 1.397 . S
C1664 C1669 1.363 . S
C1665 H1636 0.950 . S
C1665 C1664 1.397 . S
C1665 C1666 1.334 . S
C1666 H1637 0.950 . S
C1666 C1665 1.334 . S
C1666 C1667 1.287 . S
C1667 C1666 1.287 . S
C1667 C1668 1.524 . S
C1667 H1670 0.999 . S
C1668 H1638 0.950 . S
C1668 C1667 1.524 . S
C1668 C1669 1.415 . S
C1669 H1639 0.950 . S
C1669 C1664 1.363 . S
C1669 C1668 1.415 . S
H1670 C1667 0.999 . S
H1671 C1652 0.913 . S
H1672 C1690 0.951 . S
H1673 C1692 0.951 . S
H1674 C1694 0.950 . S
H1675 C1695 0.950 . S
H1676 C1697 0.950 . S
H1677 C1700 0.950 . S
H1678 C1701 0.950 . S
H1679 C1703 0.950 . S
H1680 C1704 0.950 . S
H1681 C1705 0.951 . S
H1682 C1707 0.951 . S
H1683 C1709 0.950 . S
H1684 C1710 0.950 . S
H1685 C1712 0.950 . S
H1686 C1715 0.950 . S
H1687 C1716 0.950 . S
H1688 C1718 0.950 . S
H1689 C1719 0.950 . S
C1690 H1672 0.951 . S
C1690 C1691 1.366 . S
C1690 C1692 1.388 . S
C1691 C1690 1.366 . S
C1691 C1695 1.385 . S
C1692 H1673 0.951 . S
C1692 C1690 1.388 . S
C1692 C1693 1.366 . S
C1693 C1692 1.366 . S
C1693 C1694 1.414 . S
C1693 C1696 1.499 . S
C1694 H1674 0.950 . S
C1694 C1693 1.414 . S
C1694 C1695 1.374 . S
C1695 H1675 0.950 . S
C1695 C1691 1.385 . S
C1695 C1694 1.374 . S
C1696 C1693 1.499 . S
C1696 C1697 1.373 . S
C1696 C1698 1.389 . S
C1697 H1676 0.950 . S
C1697 C1696 1.373 . S
C1697 C1713 1.377 . S
C1698 C1696 1.389 . S
C1698 C1699 1.524 . S
C1698 C1712 1.377 . S
C1699 C1698 1.524 . S
C1699 C1700 1.397 . S
C1699 C1704 1.363 . S
C1700 H1677 0.950 . S
C1700 C1699 1.397 . S
C1700 C1701 1.334 . S
C1701 H1678 0.950 . S
C1701 C1700 1.334 . S
C1701 C1702 1.287 . S
C1702 C1701 1.287 . S
C1702 C1703 1.524 . S
C1702 H1721 0.913 . S
C1703 H1679 0.950 . S
C1703 C1702 1.524 . S
C1703 C1704 1.415 . S
C1704 H1680 0.950 . S
C1704 C1699 1.363 . S
C1704 C1703 1.415 . S
C1705 H1681 0.951 . S
C1705 C1706 1.366 . S
C1705 C1707 1.388 . S
C1706 C1705 1.366 . S
C1706 C1710 1.385 . S
C1707 H1682 0.951 . S
C1707 C1705 1.388 . S
C1707 C1708 1.366 . S
C1708 C1707 1.366 . S
C1708 C1709 1.414 . S
C1708 C1711 1.499 . S
C1709 H1683 0.950 . S
C1709 C1708 1.414 . S
C1709 C1710 1.374 . S
C1710 H1684 0.950 . S
C1710 C1706 1.385 . S
C1710 C1709 1.374 . S
C1711 C1708 1.499 . S
C1711 C1712 1.373 . S
C1711 C1713 1.389 . S
C1712 H1685 0.950 . S
C1712 C1698 1.377 . S
C1712 C1711 1.373 . S
C1713 C1697 1.377 . S
C1713 C1711 1.389 . S
C1713 C1714 1.524 . S
C1714 C1713 1.524 . S
C1714 C1715 1.397 . S
C1714 C1719 1.363 . S
C1715 H1686 0.950 . S
C1715 C1714 1.397 . S
C1715 C1716 1.334 . S
C1716 H1687 0.950 . S
C1716 C1715 1.334 . S
C1716 C1717 1.287 . S
C1717 C1716 1.287 . S
C1717 C1718 1.524 . S
C1717 H1720 0.999 . S
C1718 H1688 0.950 . S
C1718 C1717 1.524 . S
C1718 C1719 1.415 . S
C1719 H1689 0.950 . S
C1719 C1714 1.363 . S
C1719 C1718 1.415 . S
H1720 C1717 0.999 . S
H1721 C1702 0.913 . S
H1722 C1740 0.951 . S
H1723 C1742 0.951 . S
H1724 C1744 0.950 . S
H1725 C1745 0.950 . S
H1726 C1747 0.950 . S
H1727 C1750 0.950 . S
H1728 C1751 0.950 . S
H1729 C1753 0.950 . S
H1730 C1754 0.950 . S
H1731 C1755 0.951 . S
H1732 C1757 0.951 . S
H1733 C1759 0.950 . S
H1734 C1760 0.950 . S
H1735 C1762 0.950 . S
H1736 C1765 0.950 . S
H1737 C1766 0.950 . S
H1738 C1768 0.950 . S
H1739 C1769 0.950 . S
C1740 H1722 0.951 . S
C1740 C1741 1.366 . S
C1740 C1742 1.388 . S
C1741 C1740 1.366 . S
C1741 C1745 1.385 . S
C1742 H1723 0.951 . S
C1742 C1740 1.388 . S
C1742 C1743 1.366 . S
C1743 C1742 1.366 . S
C1743 C1744 1.414 . S
C1743 C1746 1.499 . S
C1744 H1724 0.950 . S
C1744 C1743 1.414 . S
C1744 C1745 1.374 . S
C1745 H1725 0.950 . S
C1745 C1741 1.385 . S
C1745 C1744 1.374 . S
C1746 C1743 1.499 . S
C1746 C1747 1.373 . S
C1746 C1748 1.389 . S
C1747 H1726 0.950 . S
C1747 C1746 1.373 . S
C1747 C1763 1.377 . S
C1748 C1746 1.389 . S
C1748 C1749 1.524 . S
C1748 C1762 1.377 . S
C1749 C1748 1.524 . S
C1749 C1750 1.397 . S
C1749 C1754 1.363 . S
C1750 H1727 0.950 . S
C1750 C1749 1.397 . S
C1750 C1751 1.334 . S
C1751 H1728 0.950 . S
C1751 C1750 1.334 . S
C1751 C1752 1.287 . S
C1752 C1751 1.287 . S
C1752 C1753 1.524 . S
C1752 H1771 0.913 . S
C1753 H1729 0.950 . S
C1753 C1752 1.524 . S
C1753 C1754 1.415 . S
C1754 H1730 0.950 . S
C1754 C1749 1.363 . S
C1754 C1753 1.415 . S
C1755 H1731 0.951 . S
C1755 C1756 1.366 . S
C1755 C1757 1.388 . S
C1756 C1755 1.366 . S
C1756 C1760 1.385 . S
C1757 H1732 0.951 . S
C1757 C1755 1.388 . S
C1757 C1758 1.366 . S
C1758 C1757 1.366 . S
C1758 C1759 1.414 . S
C1758 C1761 1.499 . S
C1759 H1733 0.950 . S
C1759 C1758 1.414 . S
C1759 C1760 1.374 . S
C1760 H1734 0.950 . S
C1760 C1756 1.385 . S
C1760 C1759 1.374 . S
C1761 C1758 1.499 . S
C1761 C1762 1.373 . S
C1761 C1763 1.389 . S
C1762 H1735 0.950 . S
C1762 C1748 1.377 . S
C1762 C1761 1.373 . S
C1763 C1747 1.377 . S
C1763 C1761 1.389 . S
C1763 C1764 1.524 . S
C1764 C1763 1.524 . S
C1764 C1765 1.397 . S
C1764 C1769 1.363 . S
C1765 H1736 0.950 . S
C1765 C1764 1.397 . S
C1765 C1766 1.334 . S
C1766 H1737 0.950 . S
C1766 C1765 1.334 . S
C1766 C1767 1.287 . S
C1767 C1766 1.287 . S
C1767 C1768 1.524 . S
C1767 H1770 0.999 . S
C1768 H1738 0.950 . S
C1768 C1767 1.524 . S
C1768 C1769 1.415 . S
C1769 H1739 0.950 . S
C1769 C1764 1.363 . S
C1769 C1768 1.415 . S
H1770 C1767 0.999 . S
H1771 C1752 0.913 . S
H1772 C1790 0.951 . S
H1773 C1792 0.951 . S
H1774 C1794 0.950 . S
H1775 C1795 0.950 . S
H1776 C1797 0.950 . S
H1777 C1800 0.950 . S
H1778 C1801 0.950 . S
H1779 C1803 0.950 . S
H1780 C1804 0.950 . S
H1781 C1805 0.951 . S
H1782 C1807 0.951 . S
H1783 C1809 0.950 . S
H1784 C1810 0.950 . S
H1785 C1812 0.950 . S
H1786 C1815 0.950 . S
H1787 C1816 0.950 . S
H1788 C1818 0.950 . S
H1789 C1819 0.950 . S
C1790 H1772 0.951 . S
C1790 C1791 1.366 . S
C1790 C1792 1.388 . S
C1791 C1790 1.366 . S
C1791 C1795 1.385 . S
C1792 H1773 0.951 . S
C1792 C1790 1.388 . S
C1792 C1793 1.366 . S
C1793 C1792 1.366 . S
C1793 C1794 1.414 . S
C1793 C1796 1.499 . S
C1794 H1774 0.950 . S
C1794 C1793 1.414 . S
C1794 C1795 1.374 . S
C1795 H1775 0.950 . S
C1795 C1791 1.385 . S
C1795 C1794 1.374 . S
C1796 C1793 1.499 . S
C1796 C1797 1.373 . S
C1796 C1798 1.389 . S
C1797 H1776 0.950 . S
C1797 C1796 1.373 . S
C1797 C1813 1.377 . S
C1798 C1796 1.389 . S
C1798 C1799 1.524 . S
C1798 C1812 1.377 . S
C1799 C1798 1.524 . S
C1799 C1800 1.397 . S
C1799 C1804 1.363 . S
C1800 H1777 0.950 . S
C1800 C1799 1.397 . S
C1800 C1801 1.334 . S
C1801 H1778 0.950 . S
C1801 C1800 1.334 . S
C1801 C1802 1.287 . S
C1802 C1801 1.287 . S
C1802 C1803 1.524 . S
C1802 H1821 0.913 . S
C1803 H1779 0.950 . S
C1803 C1802 1.524 . S
C1803 C1804 1.415 . S
C1804 H1780 0.950 . S
C1804 C1799 1.363 . S
C1804 C1803 1.415 . S
C1805 H1781 0.951 . S
C1805 C1806 1.366 . S
C1805 C1807 1.388 . S
C1806 C1805 1.366 . S
C1806 C1810 1.385 . S
C1807 H1782 0.951 . S
C1807 C1805 1.388 . S
C1807 C1808 1.366 . S
C1808 C1807 1.366 . S
C1808 C1809 1.414 . S
C1808 C1811 1.499 . S
C1809 H1783 0.950 . S
C1809 C1808 1.414 . S
C1809 C1810 1.374 . S
C1810 H1784 0.950 . S
C1810 C1806 1.385 . S
C1810 C1809 1.374 . S
C1811 C1808 1.499 . S
C1811 C1812 1.373 . S
C1811 C1813 1.389 . S
C1812 H1785 0.950 . S
C1812 C1798 1.377 . S
C1812 C1811 1.373 . S
C1813 C1797 1.377 . S
C1813 C1811 1.389 . S
C1813 C1814 1.524 . S
C1814 C1813 1.524 . S
C1814 C1815 1.397 . S
C1814 C1819 1.363 . S
C1815 H1786 0.950 . S
C1815 C1814 1.397 . S
C1815 C1816 1.334 . S
C1816 H1787 0.950 . S
C1816 C1815 1.334 . S
C1816 C1817 1.287 . S
C1817 C1816 1.287 . S
C1817 C1818 1.524 . S
C1817 H1820 0.999 . S
C1818 H1788 0.950 . S
C1818 C1817 1.524 . S
C1818 C1819 1.415 . S
C1819 H1789 0.950 . S
C1819 C1814 1.363 . S
C1819 C1818 1.415 . S
H1820 C1817 0.999 . S
H1821 C1802 0.913 . S
H1822 C1840 0.951 . S
H1823 C1842 0.951 . S
H1824 C1844 0.950 . S
H1825 C1845 0.950 . S
H1826 C1847 0.950 . S
H1827 C1850 0.950 . S
H1828 C1851 0.950 . S
H1829 C1853 0.950 . S
H1830 C1854 0.950 . S
H1831 C1855 0.951 . S
H1832 C1857 0.951 . S
H1833 C1859 0.950 . S
H1834 C1860 0.950 . S
H1835 C1862 0.950 . S
H1836 C1865 0.950 . S
H1837 C1866 0.950 . S
H1838 C1868 0.950 . S
H1839 C1869 0.950 . S
C1840 H1822 0.951 . S
C1840 C1841 1.366 . S
C1840 C1842 1.388 . S
C1841 C1840 1.366 . S
C1841 C1845 1.385 . S
C1842 H1823 0.951 . S
C1842 C1840 1.388 . S
C1842 C1843 1.366 . S
C1843 C1842 1.366 . S
C1843 C1844 1.414 . S
C1843 C1846 1.499 . S
C1844 H1824 0.950 . S
C1844 C1843 1.414 . S
C1844 C1845 1.374 . S
C1845 H1825 0.950 . S
C1845 C1841 1.385 . S
C1845 C1844 1.374 . S
C1846 C1843 1.499 . S
C1846 C1847 1.373 . S
C1846 C1848 1.389 . S
C1847 H1826 0.950 . S
C1847 C1846 1.373 . S
C1847 C1863 1.377 . S
C1848 C1846 1.389 . S
C1848 C1849 1.524 . S
C1848 C1862 1.377 . S
C1849 C1848 1.524 . S
C1849 C1850 1.397 . S
C1849 C1854 1.363 . S
C1850 H1827 0.950 . S
C1850 C1849 1.397 . S
C1850 C1851 1.334 . S
C1851 H1828 0.950 . S
C1851 C1850 1.334 . S
C1851 C1852 1.287 . S
C1852 C1851 1.287 . S
C1852 C1853 1.524 . S
C1852 H1871 0.913 . S
C1853 H1829 0.950 . S
C1853 C1852 1.524 . S
C1853 C1854 1.415 . S
C1854 H1830 0.950 . S
C1854 C1849 1.363 . S
C1854 C1853 1.415 . S
C1855 H1831 0.951 . S
C1855 C1856 1.366 . S
C1855 C1857 1.388 . S
C1856 C1855 1.366 . S
C1856 C1860 1.385 . S
C1857 H1832 0.951 . S
C1857 C1855 1.388 . S
C1857 C1858 1.366 . S
C1858 C1857 1.366 . S
C1858 C1859 1.414 . S
C1858 C1861 1.499 . S
C1859 H1833 0.950 . S
C1859 C1858 1.414 . S
C1859 C1860 1.374 . S
C1860 H1834 0.950 . S
C1860 C1856 1.385 . S
C1860 C1859 1.374 . S
C1861 C1858 1.499 . S
C1861 C1862 1.373 . S
C1861 C1863 1.389 . S
C1862 H1835 0.950 . S
C1862 C1848 1.377 . S
C1862 C1861 1.373 . S
C1863 C1847 1.377 . S
C1863 C1861 1.389 . S
C1863 C1864 1.524 . S
C1864 C1863 1.524 . S
C1864 C1865 1.397 . S
C1864 C1869 1.363 . S
C1865 H1836 0.950 . S
C1865 C1864 1.397 . S
C1865 C1866 1.334 . S
C1866 H1837 0.950 . S
C1866 C1865 1.334 . S
C1866 C1867 1.287 . S
C1867 C1866 1.287 . S
C1867 C1868 1.524 . S
C1867 H1870 0.999 . S
C1868 H1838 0.950 . S
C1868 C1867 1.524 . S
C1868 C1869 1.415 . S
C1869 H1839 0.950 . S
C1869 C1864 1.363 . S
C1869 C1868 1.415 . S
H1870 C1867 0.999 . S
H1871 C1852 0.913 . S
H1872 C1890 0.951 . S
H1873 C1892 0.951 . S
H1874 C1894 0.910 1_455 S
H1875 C1895 0.950 . S
H1876 C1897 0.950 . S
H1877 C1900 0.950 . S
H1878 C1901 0.950 . S
H1879 C1903 0.950 . S
H1880 C1904 0.950 . S
H1881 C1905 0.951 . S
H1882 C1907 0.951 . S
H1883 C1909 0.910 1_655 S
H1884 C1910 0.950 . S
H1885 C1912 0.950 . S
H1886 C1915 0.950 . S
H1887 C1916 0.950 . S
H1888 C1918 0.950 . S
H1889 C1919 0.950 . S
C1890 H1872 0.951 . S
C1890 C1891 1.366 . S
C1890 C1892 1.388 . S
C1891 C1890 1.366 . S
C1891 C1895 1.385 . S
C1892 H1873 0.951 . S
C1892 C1890 1.388 . S
C1892 C1893 1.366 . S
C1893 C1892 1.366 . S
C1893 C1894 1.414 . S
C1893 C1896 1.499 . S
C1894 H1874 0.910 1_655 S
C1894 C1893 1.414 . S
C1894 C1895 1.374 . S
C1895 H1875 0.950 . S
C1895 C1891 1.385 . S
C1895 C1894 1.374 . S
C1896 C1893 1.499 . S
C1896 C1897 1.373 1_655 S
C1896 C1898 1.389 . S
C1897 H1876 0.950 . S
C1897 C1896 1.373 1_455 S
C1897 C1913 1.377 . S
C1898 C1896 1.389 . S
C1898 C1899 1.524 . S
C1898 C1912 1.377 . S
C1899 C1898 1.524 . S
C1899 C1900 1.397 . S
C1899 C1904 1.363 . S
C1900 H1877 0.950 . S
C1900 C1899 1.397 . S
C1900 C1901 1.334 . S
C1901 H1878 0.950 . S
C1901 C1900 1.334 . S
C1901 C1902 1.287 . S
C1902 C1901 1.287 . S
C1902 C1903 1.524 . S
C1902 H1921 0.913 . S
C1903 H1879 0.950 . S
C1903 C1902 1.524 . S
C1903 C1904 1.415 . S
C1904 H1880 0.950 . S
C1904 C1899 1.363 . S
C1904 C1903 1.415 . S
C1905 H1881 0.951 . S
C1905 C1906 1.366 . S
C1905 C1907 1.388 . S
C1906 C1905 1.366 . S
C1906 C1910 1.385 . S
C1907 H1882 0.951 . S
C1907 C1905 1.388 . S
C1907 C1908 1.366 . S
C1908 C1907 1.366 . S
C1908 C1909 1.414 . S
C1908 C1911 1.499 . S
C1909 H1883 0.910 1_455 S
C1909 C1908 1.414 . S
C1909 C1910 1.374 . S
C1910 H1884 0.950 . S
C1910 C1906 1.385 . S
C1910 C1909 1.374 . S
C1911 C1908 1.499 . S
C1911 C1912 1.373 1_455 S
C1911 C1913 1.389 . S
C1912 H1885 0.950 . S
C1912 C1898 1.377 . S
C1912 C1911 1.373 1_655 S
C1913 C1897 1.377 . S
C1913 C1911 1.389 . S
C1913 C1914 1.524 . S
C1914 C1913 1.524 . S
C1914 C1915 1.397 . S
C1914 C1919 1.363 . S
C1915 H1886 0.950 . S
C1915 C1914 1.397 . S
C1915 C1916 1.334 . S
C1916 H1887 0.950 . S
C1916 C1915 1.334 . S
C1916 C1917 1.287 . S
C1917 C1916 1.287 . S
C1917 C1918 1.524 . S
C1917 H1920 0.999 . S
C1918 H1888 0.950 . S
C1918 C1917 1.524 . S
C1918 C1919 1.415 . S
C1919 H1889 0.950 . S
C1919 C1914 1.363 . S
C1919 C1918 1.415 . S
H1920 C1917 0.999 . S
H1921 C1902 0.913 . S
H1922 C1940 0.951 . S
H1923 C1942 0.951 . S
H1924 C1944 0.950 . S
H1925 C1945 0.950 . S
H1926 C1947 0.950 . S
H1927 C1950 0.950 . S
H1928 C1951 0.950 . S
H1929 C1953 0.950 . S
H1930 C1954 0.950 . S
H1931 C1955 0.951 . S
H1932 C1957 0.951 . S
H1933 C1959 0.950 . S
H1934 C1960 0.950 . S
H1935 C1962 0.950 . S
H1936 C1965 0.950 . S
H1937 C1966 0.950 . S
H1938 C1968 0.950 . S
H1939 C1969 0.950 . S
C1940 H1922 0.951 . S
C1940 C1941 1.366 . S
C1940 C1942 1.388 . S
C1941 C1940 1.366 . S
C1941 C1945 1.385 . S
C1942 H1923 0.951 . S
C1942 C1940 1.388 . S
C1942 C1943 1.366 . S
C1943 C1942 1.366 . S
C1943 C1944 1.414 . S
C1943 C1946 1.499 . S
C1944 H1924 0.950 . S
C1944 C1943 1.414 . S
C1944 C1945 1.374 . S
C1945 H1925 0.950 . S
C1945 C1941 1.385 . S
C1945 C1944 1.374 . S
C1946 C1943 1.499 . S
C1946 C1947 1.373 1_565 S
C1946 C1948 1.389 . S
C1947 H1926 0.950 . S
C1947 C1946 1.373 1_545 S
C1947 C1963 1.377 . S
C1948 C1946 1.389 . S
C1948 C1949 1.524 . S
C1948 C1962 1.377 . S
C1949 C1948 1.524 . S
C1949 C1950 1.397 . S
C1949 C1954 1.363 . S
C1950 H1927 0.950 . S
C1950 C1949 1.397 . S
C1950 C1951 1.334 . S
C1951 H1928 0.950 . S
C1951 C1950 1.334 . S
C1951 C1952 1.287 . S
C1952 C1951 1.287 . S
C1952 C1953 1.524 . S
C1952 H1971 0.913 . S
C1953 H1929 0.950 . S
C1953 C1952 1.524 . S
C1953 C1954 1.415 . S
C1954 H1930 0.950 . S
C1954 C1949 1.363 . S
C1954 C1953 1.415 . S
C1955 H1931 0.951 . S
C1955 C1956 1.366 . S
C1955 C1957 1.388 . S
C1956 C1955 1.366 . S
C1956 C1960 1.385 . S
C1957 H1932 0.951 . S
C1957 C1955 1.388 . S
C1957 C1958 1.366 . S
C1958 C1957 1.366 . S
C1958 C1959 1.414 . S
C1958 C1961 1.499 . S
C1959 H1933 0.950 . S
C1959 C1958 1.414 . S
C1959 C1960 1.374 . S
C1960 H1934 0.950 . S
C1960 C1956 1.385 . S
C1960 C1959 1.374 . S
C1961 C1958 1.499 . S
C1961 C1962 1.373 1_545 S
C1961 C1963 1.389 . S
C1962 H1935 0.950 . S
C1962 C1948 1.377 . S
C1962 C1961 1.373 1_565 S
C1963 C1947 1.377 . S
C1963 C1961 1.389 . S
C1963 C1964 1.524 . S
C1964 C1963 1.524 . S
C1964 C1965 1.397 . S
C1964 C1969 1.363 . S
C1965 H1936 0.950 . S
C1965 C1964 1.397 . S
C1965 C1966 1.334 . S
C1966 H1937 0.950 . S
C1966 C1965 1.334 . S
C1966 C1967 1.287 . S
C1967 C1966 1.287 . S
C1967 C1968 1.524 . S
C1967 H1970 0.999 . S
C1968 H1938 0.950 . S
C1968 C1967 1.524 . S
C1968 C1969 1.415 . S
C1969 H1939 0.950 . S
C1969 C1964 1.363 . S
C1969 C1968 1.415 . S
H1970 C1967 0.999 . S
H1971 C1952 0.913 . S
H1972 C1990 0.951 . S
H1973 C1992 0.951 . S
H1974 C1994 0.950 . S
H1975 C1995 0.950 . S
H1976 C1997 0.950 . S
H1977 C2000 0.950 . S
H1978 C2001 0.950 . S
H1979 C2003 0.950 . S
H1980 C2004 0.950 . S
H1981 C2005 0.951 . S
H1982 C2007 0.951 . S
H1983 C2009 0.950 . S
H1984 C2010 0.950 . S
H1985 C2012 0.950 . S
H1986 C2015 0.950 . S
H1987 C2016 0.950 . S
H1988 C2018 0.950 . S
H1989 C2019 0.950 . S
C1990 H1972 0.951 . S
C1990 C1991 1.366 . S
C1990 C1992 1.388 . S
C1991 C1990 1.366 . S
C1991 C1995 1.385 . S
C1992 H1973 0.951 . S
C1992 C1990 1.388 . S
C1992 C1993 1.366 . S
C1993 C1992 1.366 . S
C1993 C1994 1.414 . S
C1993 C1996 1.499 . S
C1994 H1974 0.950 . S
C1994 C1993 1.414 . S
C1994 C1995 1.374 . S
C1995 H1975 0.950 . S
C1995 C1991 1.385 . S
C1995 C1994 1.374 . S
C1996 C1993 1.499 . S
C1996 C1997 1.373 1_655 S
C1996 C1998 1.389 . S
C1997 H1976 0.950 . S
C1997 C1996 1.373 1_455 S
C1997 C2013 1.377 . S
C1998 C1996 1.389 . S
C1998 C1999 1.524 . S
C1998 C2012 1.377 . S
C1999 C1998 1.524 . S
C1999 C2000 1.397 . S
C1999 C2004 1.363 . S
C2000 H1977 0.950 . S
C2000 C1999 1.397 . S
C2000 C2001 1.334 . S
C2001 H1978 0.950 . S
C2001 C2000 1.334 . S
C2001 C2002 1.287 . S
C2002 C2001 1.287 . S
C2002 C2003 1.524 . S
C2002 H2021 0.913 . S
C2003 H1979 0.950 . S
C2003 C2002 1.524 . S
C2003 C2004 1.415 . S
C2004 H1980 0.950 . S
C2004 C1999 1.363 . S
C2004 C2003 1.415 . S
C2005 H1981 0.951 . S
C2005 C2006 1.366 . S
C2005 C2007 1.388 . S
C2006 C2005 1.366 . S
C2006 C2010 1.385 . S
C2007 H1982 0.951 . S
C2007 C2005 1.388 . S
C2007 C2008 1.366 . S
C2008 C2007 1.366 . S
C2008 C2009 1.414 . S
C2008 C2011 1.499 . S
C2009 H1983 0.950 . S
C2009 C2008 1.414 . S
C2009 C2010 1.374 . S
C2010 H1984 0.950 . S
C2010 C2006 1.385 . S
C2010 C2009 1.374 . S
C2011 C2008 1.499 . S
C2011 C2012 1.373 1_455 S
C2011 C2013 1.389 . S
C2012 H1985 0.950 . S
C2012 C1998 1.377 . S
C2012 C2011 1.373 1_655 S
C2013 C1997 1.377 . S
C2013 C2011 1.389 . S
C2013 C2014 1.524 . S
C2014 C2013 1.524 . S
C2014 C2015 1.397 . S
C2014 C2019 1.363 . S
C2015 H1986 0.950 . S
C2015 C2014 1.397 . S
C2015 C2016 1.334 . S
C2016 H1987 0.950 . S
C2016 C2015 1.334 . S
C2016 C2017 1.287 . S
C2017 C2016 1.287 . S
C2017 C2018 1.524 . S
C2017 H2020 0.999 . S
C2018 H1988 0.950 . S
C2018 C2017 1.524 . S
C2018 C2019 1.415 . S
C2019 H1989 0.950 . S
C2019 C2014 1.363 . S
C2019 C2018 1.415 . S
H2020 C2017 0.999 . S
H2021 C2002 0.913 . S
H2022 C2040 0.951 . S
H2023 C2042 0.951 . S
H2024 C2044 0.950 . S
H2025 C2045 0.950 . S
H2026 C2047 0.950 . S
H2027 C2050 0.950 . S
H2028 C2051 0.950 . S
H2029 C2053 0.950 . S
H2030 C2054 0.950 . S
H2031 C2055 0.951 . S
H2032 C2057 0.951 . S
H2033 C2059 0.950 . S
H2034 C2060 0.950 . S
H2035 C2062 0.950 . S
H2036 C2065 0.950 . S
H2037 C2066 0.950 . S
H2038 C2068 0.950 . S
H2039 C2069 0.950 . S
C2040 H2022 0.951 . S
C2040 C2041 1.366 . S
C2040 C2042 1.388 . S
C2041 C2040 1.366 . S
C2041 C2045 1.385 . S
C2042 H2023 0.951 . S
C2042 C2040 1.388 . S
C2042 C2043 1.366 . S
C2043 C2042 1.366 . S
C2043 C2044 1.414 . S
C2043 C2046 1.499 . S
C2044 H2024 0.950 . S
C2044 C2043 1.414 . S
C2044 C2045 1.374 . S
C2045 H2025 0.950 . S
C2045 C2041 1.385 . S
C2045 C2044 1.374 . S
C2046 C2043 1.499 . S
C2046 C2047 1.373 . S
C2046 C2048 1.389 1_545 S
C2047 H2026 0.950 . S
C2047 C2046 1.373 . S
C2047 C2063 1.377 . S
C2048 C2046 1.389 1_565 S
C2048 C2049 1.524 . S
C2048 C2062 1.377 . S
C2049 C2048 1.524 . S
C2049 C2050 1.397 . S
C2049 C2054 1.363 . S
C2050 H2027 0.950 . S
C2050 C2049 1.397 . S
C2050 C2051 1.334 . S
C2051 H2028 0.950 . S
C2051 C2050 1.334 . S
C2051 C2052 1.287 . S
C2052 C2051 1.287 . S
C2052 C2053 1.524 . S
C2052 H2071 0.913 . S
C2053 H2029 0.950 . S
C2053 C2052 1.524 . S
C2053 C2054 1.415 . S
C2054 H2030 0.950 . S
C2054 C2049 1.363 . S
C2054 C2053 1.415 . S
C2055 H2031 0.951 . S
C2055 C2056 1.366 . S
C2055 C2057 1.388 . S
C2056 C2055 1.366 . S
C2056 C2060 1.385 . S
C2057 H2032 0.951 . S
C2057 C2055 1.388 . S
C2057 C2058 1.366 . S
C2058 C2057 1.366 . S
C2058 C2059 1.414 . S
C2058 C2061 1.499 . S
C2059 H2033 0.950 . S
C2059 C2058 1.414 . S
C2059 C2060 1.374 . S
C2060 H2034 0.950 . S
C2060 C2056 1.385 . S
C2060 C2059 1.374 . S
C2061 C2058 1.499 . S
C2061 C2062 1.373 . S
C2061 C2063 1.389 1_565 S
C2062 H2035 0.950 . S
C2062 C2048 1.377 . S
C2062 C2061 1.373 . S
C2063 C2047 1.377 . S
C2063 C2061 1.389 1_545 S
C2063 C2064 1.524 . S
C2064 C2063 1.524 . S
C2064 C2065 1.397 . S
C2064 C2069 1.363 . S
C2065 H2036 0.950 . S
C2065 C2064 1.397 . S
C2065 C2066 1.334 . S
C2066 H2037 0.950 . S
C2066 C2065 1.334 . S
C2066 C2067 1.287 . S
C2067 C2066 1.287 . S
C2067 C2068 1.524 . S
C2067 H2070 0.999 . S
C2068 H2038 0.950 . S
C2068 C2067 1.524 . S
C2068 C2069 1.415 . S
C2069 H2039 0.950 . S
C2069 C2064 1.363 . S
C2069 C2068 1.415 . S
H2070 C2067 0.999 . S
H2071 C2052 0.913 . S
H2072 C2090 0.951 . S
H2073 C2092 0.951 1_655 S
H2074 C2094 0.950 . S
H2075 C2095 0.950 . S
H2076 C2097 0.950 . S
H2077 C2100 0.950 . S
H2078 C2101 0.950 . S
H2079 C2103 0.950 . S
H2080 C2104 0.950 . S
H2081 C2105 0.951 . S
H2082 C2107 0.951 1_455 S
H2083 C2109 0.950 . S
H2084 C2110 0.950 . S
H2085 C2112 0.950 . S
H2086 C2115 0.950 . S
H2087 C2116 0.950 . S
H2088 C2118 0.950 . S
H2089 C2119 0.950 . S
C2090 H2072 0.951 . S
C2090 C2091 1.366 . S
C2090 C2092 1.388 . S
C2091 C2090 1.366 . S
C2091 C2095 1.385 . S
C2092 H2073 0.951 1_455 S
C2092 C2090 1.388 . S
C2092 C2093 1.366 . S
C2093 C2092 1.366 . S
C2093 C2094 1.414 . S
C2093 C2096 1.499 . S
C2094 H2074 0.950 . S
C2094 C2093 1.414 . S
C2094 C2095 1.374 . S
C2095 H2075 0.950 . S
C2095 C2091 1.385 . S
C2095 C2094 1.374 . S
C2096 C2093 1.499 . S
C2096 C2097 1.373 . S
C2096 C2098 1.389 1_455 S
C2097 H2076 0.950 . S
C2097 C2096 1.373 . S
C2097 C2113 1.377 . S
C2098 C2096 1.389 1_655 S
C2098 C2099 1.524 . S
C2098 C2112 1.377 . S
C2099 C2098 1.524 . S
C2099 C2100 1.397 . S
C2099 C2104 1.363 . S
C2100 H2077 0.950 . S
C2100 C2099 1.397 . S
C2100 C2101 1.334 . S
C2101 H2078 0.950 . S
C2101 C2100 1.334 . S
C2101 C2102 1.287 . S
C2102 C2101 1.287 . S
C2102 C2103 1.524 . S
C2102 H2121 0.913 . S
C2103 H2079 0.950 . S
C2103 C2102 1.524 . S
C2103 C2104 1.415 . S
C2104 H2080 0.950 . S
C2104 C2099 1.363 . S
C2104 C2103 1.415 . S
C2105 H2081 0.951 . S
C2105 C2106 1.366 . S
C2105 C2107 1.388 . S
C2106 C2105 1.366 . S
C2106 C2110 1.385 . S
C2107 H2082 0.951 1_655 S
C2107 C2105 1.388 . S
C2107 C2108 1.366 . S
C2108 C2107 1.366 . S
C2108 C2109 1.414 . S
C2108 C2111 1.499 . S
C2109 H2083 0.950 . S
C2109 C2108 1.414 . S
C2109 C2110 1.374 . S
C2110 H2084 0.950 . S
C2110 C2106 1.385 . S
C2110 C2109 1.374 . S
C2111 C2108 1.499 . S
C2111 C2112 1.373 . S
C2111 C2113 1.389 1_655 S
C2112 H2085 0.950 . S
C2112 C2098 1.377 . S
C2112 C2111 1.373 . S
C2113 C2097 1.377 . S
C2113 C2111 1.389 1_455 S
C2113 C2114 1.524 . S
C2114 C2113 1.524 . S
C2114 C2115 1.397 . S
C2114 C2119 1.363 . S
C2115 H2086 0.950 . S
C2115 C2114 1.397 . S
C2115 C2116 1.334 . S
C2116 H2087 0.950 . S
C2116 C2115 1.334 . S
C2116 C2117 1.287 . S
C2117 C2116 1.287 . S
C2117 C2118 1.524 . S
C2117 H2120 0.999 . S
C2118 H2088 0.950 . S
C2118 C2117 1.524 . S
C2118 C2119 1.415 . S
C2119 H2089 0.950 . S
C2119 C2114 1.363 . S
C2119 C2118 1.415 . S
H2120 C2117 0.999 . S
H2121 C2102 0.913 . S
H2122 C2140 0.951 1_545 S
H2123 C2142 0.896 1_545 S
H2124 C2144 0.950 . S
H2125 C2145 0.950 . S
H2126 C2147 0.950 . S
H2127 C2150 0.950 . S
H2128 C2151 0.950 . S
H2129 C2153 0.950 . S
H2130 C2154 0.950 . S
H2131 C2155 0.951 1_565 S
H2132 C2157 0.896 1_565 S
H2133 C2159 0.950 . S
H2134 C2160 0.950 . S
H2135 C2162 0.950 . S
H2136 C2165 0.950 . S
H2137 C2166 0.950 . S
H2138 C2168 0.950 . S
H2139 C2169 0.950 . S
C2140 H2122 0.951 1_565 S
C2140 C2141 1.366 . S
C2140 C2142 1.406 . S
C2141 C2140 1.366 . S
C2141 C2145 1.385 . S
C2142 H2123 0.896 1_565 S
C2142 C2140 1.406 . S
C2142 C2143 1.403 . S
C2143 C2142 1.403 . S
C2143 C2144 1.414 . S
C2143 C2146 1.499 . S
C2144 H2124 0.950 . S
C2144 C2143 1.414 . S
C2144 C2145 1.374 . S
C2145 H2125 0.950 . S
C2145 C2141 1.385 . S
C2145 C2144 1.374 . S
C2146 C2143 1.499 . S
C2146 C2147 1.373 . S
C2146 C2148 1.372 1_565 S
C2147 H2126 0.950 . S
C2147 C2146 1.373 . S
C2147 C2163 1.394 . S
C2148 C2146 1.372 1_545 S
C2148 C2149 1.524 . S
C2148 C2162 1.394 . S
C2149 C2148 1.524 . S
C2149 C2150 1.348 1_545 S
C2149 C2154 1.410 . S
C2150 H2127 0.950 . S
C2150 C2149 1.348 1_565 S
C2150 C2151 1.334 . S
C2151 H2128 0.950 . S
C2151 C2150 1.334 . S
C2151 C2152 1.287 . S
C2152 C2151 1.287 . S
C2152 C2153 1.524 1_565 S
C2152 H2171 0.913 . S
C2153 H2129 0.950 . S
C2153 C2152 1.524 1_545 S
C2153 C2154 1.415 . S
C2154 H2130 0.950 . S
C2154 C2149 1.410 . S
C2154 C2153 1.415 . S
C2155 H2131 0.951 1_545 S
C2155 C2156 1.366 . S
C2155 C2157 1.406 . S
C2156 C2155 1.366 . S
C2156 C2160 1.385 . S
C2157 H2132 0.896 1_545 S
C2157 C2155 1.406 . S
C2157 C2158 1.403 . S
C2158 C2157 1.403 . S
C2158 C2159 1.414 . S
C2158 C2161 1.499 . S
C2159 H2133 0.950 . S
C2159 C2158 1.414 . S
C2159 C2160 1.374 . S
C2160 H2134 0.950 . S
C2160 C2156 1.385 . S
C2160 C2159 1.374 . S
C2161 C2158 1.499 . S
C2161 C2162 1.373 . S
C2161 C2163 1.372 1_545 S
C2162 H2135 0.950 . S
C2162 C2148 1.394 . S
C2162 C2161 1.373 . S
C2163 C2147 1.394 . S
C2163 C2161 1.372 1_565 S
C2163 C2164 1.524 . S
C2164 C2163 1.524 . S
C2164 C2165 1.348 1_565 S
C2164 C2169 1.410 . S
C2165 H2136 0.950 . S
C2165 C2164 1.348 1_545 S
C2165 C2166 1.334 . S
C2166 H2137 0.950 . S
C2166 C2165 1.334 . S
C2166 C2167 1.287 . S
C2167 C2166 1.287 . S
C2167 C2168 1.524 1_545 S
C2167 H2170 0.999 . S
C2168 H2138 0.950 . S
C2168 C2167 1.524 1_565 S
C2168 C2169 1.415 . S
C2169 H2139 0.950 . S
C2169 C2164 1.410 . S
C2169 C2168 1.415 . S
H2170 C2167 0.999 . S
H2171 C2152 0.913 . S
H2172 C2190 0.951 . S
H2173 C2192 0.951 . S
H2174 C2194 0.950 . S
H2175 C2195 0.950 . S
H2176 C2197 0.950 . S
H2177 C2200 0.950 . S
H2178 C2201 0.950 . S
H2179 C2203 0.950 . S
H2180 C2204 0.950 . S
H2181 C2205 0.951 . S
H2182 C2207 0.951 . S
H2183 C2209 0.950 . S
H2184 C2210 0.950 . S
H2185 C2212 0.950 . S
H2186 C2215 0.950 . S
H2187 C2216 0.950 . S
H2188 C2218 0.950 . S
H2189 C2219 0.950 . S
C2190 H2172 0.951 . S
C2190 C2191 1.366 . S
C2190 C2192 1.388 . S
C2191 C2190 1.366 . S
C2191 C2195 1.385 . S
C2192 H2173 0.951 . S
C2192 C2190 1.388 . S
C2192 C2193 1.366 . S
C2193 C2192 1.366 . S
C2193 C2194 1.414 . S
C2193 C2196 1.499 . S
C2194 H2174 0.950 . S
C2194 C2193 1.414 . S
C2194 C2195 1.374 . S
C2195 H2175 0.950 . S
C2195 C2191 1.385 . S
C2195 C2194 1.374 . S
C2196 C2193 1.499 . S
C2196 C2197 1.373 . S
C2196 C2198 1.389 1_455 S
C2197 H2176 0.950 . S
C2197 C2196 1.373 . S
C2197 C2213 1.377 . S
C2198 C2196 1.389 1_655 S
C2198 C2199 1.524 . S
C2198 C2212 1.377 . S
C2199 C2198 1.524 . S
C2199 C2200 1.397 . S
C2199 C2204 1.363 . S
C2200 H2177 0.950 . S
C2200 C2199 1.397 . S
C2200 C2201 1.334 . S
C2201 H2178 0.950 . S
C2201 C2200 1.334 . S
C2201 C2202 1.287 . S
C2202 C2201 1.287 . S
C2202 C2203 1.524 . S
C2202 H2221 0.913 . S
C2203 H2179 0.950 . S
C2203 C2202 1.524 . S
C2203 C2204 1.415 . S
C2204 H2180 0.950 . S
C2204 C2199 1.363 . S
C2204 C2203 1.415 . S
C2205 H2181 0.951 . S
C2205 C2206 1.366 . S
C2205 C2207 1.388 . S
C2206 C2205 1.366 . S
C2206 C2210 1.385 . S
C2207 H2182 0.951 . S
C2207 C2205 1.388 . S
C2207 C2208 1.366 . S
C2208 C2207 1.366 . S
C2208 C2209 1.414 . S
C2208 C2211 1.499 . S
C2209 H2183 0.950 . S
C2209 C2208 1.414 . S
C2209 C2210 1.374 . S
C2210 H2184 0.950 . S
C2210 C2206 1.385 . S
C2210 C2209 1.374 . S
C2211 C2208 1.499 . S
C2211 C2212 1.373 . S
C2211 C2213 1.389 1_655 S
C2212 H2185 0.950 . S
C2212 C2198 1.377 . S
C2212 C2211 1.373 . S
C2213 C2197 1.377 . S
C2213 C2211 1.389 1_455 S
C2213 C2214 1.524 . S
C2214 C2213 1.524 . S
C2214 C2215 1.397 . S
C2214 C2219 1.363 . S
C2215 H2186 0.950 . S
C2215 C2214 1.397 . S
C2215 C2216 1.334 . S
C2216 H2187 0.950 . S
C2216 C2215 1.334 . S
C2216 C2217 1.287 . S
C2217 C2216 1.287 . S
C2217 C2218 1.524 . S
C2217 H2220 0.999 . S
C2218 H2188 0.950 . S
C2218 C2217 1.524 . S
C2218 C2219 1.415 . S
C2219 H2189 0.950 . S
C2219 C2214 1.363 . S
C2219 C2218 1.415 . S
H2220 C2217 0.999 . S
H2221 C2202 0.913 . S
H2222 C2240 0.951 . S
H2223 C2242 0.951 . S
H2224 C2244 0.950 . S
H2225 C2245 0.950 . S
H2226 C2247 0.950 . S
H2227 C2250 0.950 . S
H2228 C2251 0.950 . S
H2229 C2253 0.950 . S
H2230 C2254 0.950 . S
H2231 C2255 0.951 . S
H2232 C2257 0.951 . S
H2233 C2259 0.950 . S
H2234 C2260 0.950 . S
H2235 C2262 0.950 . S
H2236 C2265 0.950 . S
H2237 C2266 0.950 . S
H2238 C2268 0.950 . S
H2239 C2269 0.950 . S
C2240 H2222 0.951 . S
C2240 C2241 1.366 . S
C2240 C2242 1.388 . S
C2241 C2240 1.366 . S
C2241 C2245 1.385 . S
C2242 H2223 0.951 . S
C2242 C2240 1.388 . S
C2242 C2243 1.366 . S
C2243 C2242 1.366 . S
C2243 C2244 1.414 . S
C2243 C2246 1.499 . S
C2244 H2224 0.950 . S
C2244 C2243 1.414 . S
C2244 C2245 1.374 . S
C2245 H2225 0.950 . S
C2245 C2241 1.385 . S
C2245 C2244 1.374 . S
C2246 C2243 1.499 . S
C2246 C2247 1.373 1_545 S
C2246 C2248 1.389 . S
C2247 H2226 0.950 . S
C2247 C2246 1.373 1_565 S
C2247 C2263 1.377 . S
C2248 C2246 1.389 . S
C2248 C2249 1.524 . S
C2248 C2262 1.377 . S
C2249 C2248 1.524 . S
C2249 C2250 1.397 . S
C2249 C2254 1.363 . S
C2250 H2227 0.950 . S
C2250 C2249 1.397 . S
C2250 C2251 1.334 . S
C2251 H2228 0.950 . S
C2251 C2250 1.334 . S
C2251 C2252 1.287 . S
C2252 C2251 1.287 . S
C2252 C2253 1.524 . S
C2252 H2271 0.913 . S
C2253 H2229 0.950 . S
C2253 C2252 1.524 . S
C2253 C2254 1.415 . S
C2254 H2230 0.950 . S
C2254 C2249 1.363 . S
C2254 C2253 1.415 . S
C2255 H2231 0.951 . S
C2255 C2256 1.366 . S
C2255 C2257 1.388 . S
C2256 C2255 1.366 . S
C2256 C2260 1.385 . S
C2257 H2232 0.951 . S
C2257 C2255 1.388 . S
C2257 C2258 1.366 . S
C2258 C2257 1.366 . S
C2258 C2259 1.414 . S
C2258 C2261 1.499 . S
C2259 H2233 0.950 . S
C2259 C2258 1.414 . S
C2259 C2260 1.374 . S
C2260 H2234 0.950 . S
C2260 C2256 1.385 . S
C2260 C2259 1.374 . S
C2261 C2258 1.499 . S
C2261 C2262 1.373 1_565 S
C2261 C2263 1.389 . S
C2262 H2235 0.950 . S
C2262 C2248 1.377 . S
C2262 C2261 1.373 1_545 S
C2263 C2247 1.377 . S
C2263 C2261 1.389 . S
C2263 C2264 1.524 . S
C2264 C2263 1.524 . S
C2264 C2265 1.397 . S
C2264 C2269 1.363 . S
C2265 H2236 0.950 . S
C2265 C2264 1.397 . S
C2265 C2266 1.334 . S
C2266 H2237 0.950 . S
C2266 C2265 1.334 . S
C2266 C2267 1.287 . S
C2267 C2266 1.287 . S
C2267 C2268 1.524 . S
C2267 H2270 0.999 . S
C2268 H2238 0.950 . S
C2268 C2267 1.524 . S
C2268 C2269 1.415 . S
C2269 H2239 0.950 . S
C2269 C2264 1.363 . S
C2269 C2268 1.415 . S
H2270 C2267 0.999 . S
H2271 C2252 0.913 . S
H2272 C2290 0.951 . S
H2273 C2292 0.951 . S
H2274 C2294 0.950 . S
H2275 C2295 0.950 . S
H2276 C2297 0.950 . S
H2277 C2300 0.950 . S
H2278 C2301 0.950 . S
H2279 C2303 0.950 . S
H2280 C2304 0.950 . S
H2281 C2305 0.951 . S
H2282 C2307 0.951 . S
H2283 C2309 0.950 . S
H2284 C2310 0.950 . S
H2285 C2312 0.950 . S
H2286 C2315 0.950 . S
H2287 C2316 0.950 . S
H2288 C2318 0.950 . S
H2289 C2319 0.950 . S
C2290 H2272 0.951 . S
C2290 C2291 1.366 . S
C2290 C2292 1.388 . S
C2291 C2290 1.366 . S
C2291 C2295 1.385 . S
C2292 H2273 0.951 . S
C2292 C2290 1.388 . S
C2292 C2293 1.366 . S
C2293 C2292 1.366 . S
C2293 C2294 1.414 . S
C2293 C2296 1.499 . S
C2294 H2274 0.950 . S
C2294 C2293 1.414 . S
C2294 C2295 1.374 . S
C2295 H2275 0.950 . S
C2295 C2291 1.385 . S
C2295 C2294 1.374 . S
C2296 C2293 1.499 . S
C2296 C2297 1.373 1_556 S
C2296 C2298 1.389 . S
C2297 H2276 0.950 . S
C2297 C2296 1.373 1_554 S
C2297 C2313 1.377 . S
C2298 C2296 1.389 . S
C2298 C2299 1.524 . S
C2298 C2312 1.377 . S
C2299 C2298 1.524 . S
C2299 C2300 1.397 . S
C2299 C2304 1.363 . S
C2300 H2277 0.950 . S
C2300 C2299 1.397 . S
C2300 C2301 1.334 . S
C2301 H2278 0.950 . S
C2301 C2300 1.334 . S
C2301 C2302 1.287 . S
C2302 C2301 1.287 . S
C2302 C2303 1.524 . S
C2302 H2321 0.913 . S
C2303 H2279 0.950 . S
C2303 C2302 1.524 . S
C2303 C2304 1.415 . S
C2304 H2280 0.950 . S
C2304 C2299 1.363 . S
C2304 C2303 1.415 . S
C2305 H2281 0.951 . S
C2305 C2306 1.366 . S
C2305 C2307 1.388 . S
C2306 C2305 1.366 . S
C2306 C2310 1.385 . S
C2307 H2282 0.951 . S
C2307 C2305 1.388 . S
C2307 C2308 1.366 . S
C2308 C2307 1.366 . S
C2308 C2309 1.414 . S
C2308 C2311 1.499 . S
C2309 H2283 0.950 . S
C2309 C2308 1.414 . S
C2309 C2310 1.374 . S
C2310 H2284 0.950 . S
C2310 C2306 1.385 . S
C2310 C2309 1.374 . S
C2311 C2308 1.499 . S
C2311 C2312 1.373 1_554 S
C2311 C2313 1.389 . S
C2312 H2285 0.950 . S
C2312 C2298 1.377 . S
C2312 C2311 1.373 1_556 S
C2313 C2297 1.377 . S
C2313 C2311 1.389 . S
C2313 C2314 1.524 . S
C2314 C2313 1.524 . S
C2314 C2315 1.397 . S
C2314 C2319 1.363 . S
C2315 H2286 0.950 . S
C2315 C2314 1.397 . S
C2315 C2316 1.334 . S
C2316 H2287 0.950 . S
C2316 C2315 1.334 . S
C2316 C2317 1.287 . S
C2317 C2316 1.287 . S
C2317 C2318 1.524 . S
C2317 H2320 0.999 . S
C2318 H2288 0.950 . S
C2318 C2317 1.524 . S
C2318 C2319 1.415 . S
C2319 H2289 0.950 . S
C2319 C2314 1.363 . S
C2319 C2318 1.415 . S
H2320 C2317 0.999 . S
H2321 C2302 0.913 . S
H2322 C2340 0.951 . S
H2323 C2342 0.951 . S
H2324 C2344 0.941 1_556 S
H2325 C2345 0.950 . S
H2326 C2347 0.950 . S
H2327 C2350 0.950 . S
H2328 C2351 0.950 . S
H2329 C2353 0.950 . S
H2330 C2354 0.950 1_554 S
H2331 C2355 0.951 . S
H2332 C2357 0.951 . S
H2333 C2359 0.941 1_554 S
H2334 C2360 0.950 . S
H2335 C2362 0.950 . S
H2336 C2365 0.950 . S
H2337 C2366 0.950 . S
H2338 C2368 0.950 . S
H2339 C2369 0.950 1_556 S
C2340 H2322 0.951 . S
C2340 C2341 1.366 . S
C2340 C2342 1.388 . S
C2341 C2340 1.366 . S
C2341 C2345 1.385 . S
C2342 H2323 0.951 . S
C2342 C2340 1.388 . S
C2342 C2343 1.366 . S
C2343 C2342 1.366 . S
C2343 C2344 1.414 . S
C2343 C2346 1.499 . S
C2344 H2324 0.941 1_554 S
C2344 C2343 1.414 . S
C2344 C2345 1.374 . S
C2345 H2325 0.950 . S
C2345 C2341 1.385 . S
C2345 C2344 1.374 . S
C2346 C2343 1.499 . S
C2346 C2347 1.373 . S
C2346 C2348 1.389 1_554 S
C2347 H2326 0.950 . S
C2347 C2346 1.373 . S
C2347 C2363 1.377 . S
C2348 C2346 1.389 1_556 S
C2348 C2349 1.524 . S
C2348 C2362 1.377 . S
C2349 C2348 1.524 . S
C2349 C2350 1.397 . S
C2349 C2354 1.363 . S
C2350 H2327 0.950 . S
C2350 C2349 1.397 . S
C2350 C2351 1.334 . S
C2351 H2328 0.950 . S
C2351 C2350 1.334 . S
C2351 C2352 1.287 . S
C2352 C2351 1.287 . S
C2352 C2353 1.524 . S
C2352 H2371 0.913 . S
C2353 H2329 0.950 . S
C2353 C2352 1.524 . S
C2353 C2354 1.415 . S
C2354 H2330 0.950 1_556 S
C2354 C2349 1.363 . S
C2354 C2353 1.415 . S
C2355 H2331 0.951 . S
C2355 C2356 1.366 . S
C2355 C2357 1.388 . S
C2356 C2355 1.366 . S
C2356 C2360 1.385 . S
C2357 H2332 0.951 . S
C2357 C2355 1.388 . S
C2357 C2358 1.366 . S
C2358 C2357 1.366 . S
C2358 C2359 1.414 . S
C2358 C2361 1.499 . S
C2359 H2333 0.941 1_556 S
C2359 C2358 1.414 . S
C2359 C2360 1.374 . S
C2360 H2334 0.950 . S
C2360 C2356 1.385 . S
C2360 C2359 1.374 . S
C2361 C2358 1.499 . S
C2361 C2362 1.373 . S
C2361 C2363 1.389 1_556 S
C2362 H2335 0.950 . S
C2362 C2348 1.377 . S
C2362 C2361 1.373 . S
C2363 C2347 1.377 . S
C2363 C2361 1.389 1_554 S
C2363 C2364 1.524 . S
C2364 C2363 1.524 . S
C2364 C2365 1.397 . S
C2364 C2369 1.363 . S
C2365 H2336 0.950 . S
C2365 C2364 1.397 . S
C2365 C2366 1.334 . S
C2366 H2337 0.950 . S
C2366 C2365 1.334 . S
C2366 C2367 1.287 . S
C2367 C2366 1.287 . S
C2367 C2368 1.524 . S
C2367 H2370 0.999 . S
C2368 H2338 0.950 . S
C2368 C2367 1.524 . S
C2368 C2369 1.415 . S
C2369 H2339 0.950 1_554 S
C2369 C2364 1.363 . S
C2369 C2368 1.415 . S
H2370 C2367 0.999 . S
H2371 C2352 0.913 . S
H2372 C2390 0.951 . S
H2373 C2392 0.951 . S
H2374 C2394 0.950 . S
H2375 C2395 0.950 . S
H2376 C2397 0.950 . S
H2377 C2400 0.950 . S
H2378 C2401 0.950 . S
H2379 C2403 0.950 . S
H2380 C2404 0.950 . S
H2381 C2405 0.951 . S
H2382 C2407 0.951 . S
H2383 C2409 0.950 . S
H2384 C2410 0.950 . S
H2385 C2412 0.950 . S
H2386 C2415 0.950 . S
H2387 C2416 0.950 . S
H2388 C2418 0.950 . S
H2389 C2419 0.950 . S
C2390 H2372 0.951 . S
C2390 C2391 1.366 . S
C2390 C2392 1.388 . S
C2391 C2390 1.366 . S
C2391 C2395 1.385 . S
C2392 H2373 0.951 . S
C2392 C2390 1.388 . S
C2392 C2393 1.366 . S
C2393 C2392 1.366 . S
C2393 C2394 1.414 . S
C2393 C2396 1.499 . S
C2394 H2374 0.950 . S
C2394 C2393 1.414 . S
C2394 C2395 1.374 . S
C2395 H2375 0.950 . S
C2395 C2391 1.385 . S
C2395 C2394 1.374 . S
C2396 C2393 1.499 . S
C2396 C2397 1.373 . S
C2396 C2398 1.389 1_554 S
C2397 H2376 0.950 . S
C2397 C2396 1.373 . S
C2397 C2413 1.377 . S
C2398 C2396 1.389 1_556 S
C2398 C2399 1.524 . S
C2398 C2412 1.377 . S
C2399 C2398 1.524 . S
C2399 C2400 1.397 . S
C2399 C2404 1.363 . S
C2400 H2377 0.950 . S
C2400 C2399 1.397 . S
C2400 C2401 1.334 . S
C2401 H2378 0.950 . S
C2401 C2400 1.334 . S
C2401 C2402 1.287 . S
C2402 C2401 1.287 . S
C2402 C2403 1.524 . S
C2402 H2421 0.913 . S
C2403 H2379 0.950 . S
C2403 C2402 1.524 . S
C2403 C2404 1.415 . S
C2404 H2380 0.950 . S
C2404 C2399 1.363 . S
C2404 C2403 1.415 . S
C2405 H2381 0.951 . S
C2405 C2406 1.366 . S
C2405 C2407 1.388 . S
C2406 C2405 1.366 . S
C2406 C2410 1.385 . S
C2407 H2382 0.951 . S
C2407 C2405 1.388 . S
C2407 C2408 1.366 . S
C2408 C2407 1.366 . S
C2408 C2409 1.414 . S
C2408 C2411 1.499 . S
C2409 H2383 0.950 . S
C2409 C2408 1.414 . S
C2409 C2410 1.374 . S
C2410 H2384 0.950 . S
C2410 C2406 1.385 . S
C2410 C2409 1.374 . S
C2411 C2408 1.499 . S
C2411 C2412 1.373 . S
C2411 C2413 1.389 1_556 S
C2412 H2385 0.950 . S
C2412 C2398 1.377 . S
C2412 C2411 1.373 . S
C2413 C2397 1.377 . S
C2413 C2411 1.389 1_554 S
C2413 C2414 1.524 . S
C2414 C2413 1.524 . S
C2414 C2415 1.397 . S
C2414 C2419 1.363 . S
C2415 H2386 0.950 . S
C2415 C2414 1.397 . S
C2415 C2416 1.334 . S
C2416 H2387 0.950 . S
C2416 C2415 1.334 . S
C2416 C2417 1.287 . S
C2417 C2416 1.287 . S
C2417 C2418 1.524 . S
C2417 H2420 0.999 . S
C2418 H2388 0.950 . S
C2418 C2417 1.524 . S
C2418 C2419 1.415 . S
C2419 H2389 0.950 . S
C2419 C2414 1.363 . S
C2419 C2418 1.415 . S
H2420 C2417 0.999 . S
H2421 C2402 0.913 . S
H2422 C2440 0.951 . S
H2423 C2442 0.951 . S
H2424 C2444 0.950 . S
H2425 C2445 0.950 . S
H2426 C2447 0.950 . S
H2427 C2450 0.950 . S
H2428 C2451 0.950 . S
H2429 C2453 0.950 . S
H2430 C2454 0.950 . S
H2431 C2455 0.951 . S
H2432 C2457 0.951 . S
H2433 C2459 0.950 . S
H2434 C2460 0.950 . S
H2435 C2462 0.950 . S
H2436 C2465 0.950 . S
H2437 C2466 0.950 . S
H2438 C2468 0.950 . S
H2439 C2469 0.950 . S
C2440 H2422 0.951 . S
C2440 C2441 1.366 . S
C2440 C2442 1.388 . S
C2441 C2440 1.366 . S
C2441 C2445 1.385 . S
C2442 H2423 0.951 . S
C2442 C2440 1.388 . S
C2442 C2443 1.366 . S
C2443 C2442 1.366 . S
C2443 C2444 1.414 . S
C2443 C2446 1.499 . S
C2444 H2424 0.950 . S
C2444 C2443 1.414 . S
C2444 C2445 1.374 . S
C2445 H2425 0.950 . S
C2445 C2441 1.385 . S
C2445 C2444 1.374 . S
C2446 C2443 1.499 . S
C2446 C2447 1.373 1_556 S
C2446 C2448 1.389 . S
C2447 H2426 0.950 . S
C2447 C2446 1.373 1_554 S
C2447 C2463 1.377 . S
C2448 C2446 1.389 . S
C2448 C2449 1.524 . S
C2448 C2462 1.377 . S
C2449 C2448 1.524 . S
C2449 C2450 1.397 . S
C2449 C2454 1.363 . S
C2450 H2427 0.950 . S
C2450 C2449 1.397 . S
C2450 C2451 1.334 . S
C2451 H2428 0.950 . S
C2451 C2450 1.334 . S
C2451 C2452 1.287 . S
C2452 C2451 1.287 . S
C2452 C2453 1.524 . S
C2452 H2471 0.913 . S
C2453 H2429 0.950 . S
C2453 C2452 1.524 . S
C2453 C2454 1.415 . S
C2454 H2430 0.950 . S
C2454 C2449 1.363 . S
C2454 C2453 1.415 . S
C2455 H2431 0.951 . S
C2455 C2456 1.366 . S
C2455 C2457 1.388 . S
C2456 C2455 1.366 . S
C2456 C2460 1.385 . S
C2457 H2432 0.951 . S
C2457 C2455 1.388 . S
C2457 C2458 1.366 . S
C2458 C2457 1.366 . S
C2458 C2459 1.414 . S
C2458 C2461 1.499 . S
C2459 H2433 0.950 . S
C2459 C2458 1.414 . S
C2459 C2460 1.374 . S
C2460 H2434 0.950 . S
C2460 C2456 1.385 . S
C2460 C2459 1.374 . S
C2461 C2458 1.499 . S
C2461 C2462 1.373 1_554 S
C2461 C2463 1.389 . S
C2462 H2435 0.950 . S
C2462 C2448 1.377 . S
C2462 C2461 1.373 1_556 S
C2463 C2447 1.377 . S
C2463 C2461 1.389 . S
C2463 C2464 1.524 . S
C2464 C2463 1.524 . S
C2464 C2465 1.397 . S
C2464 C2469 1.363 . S
C2465 H2436 0.950 . S
C2465 C2464 1.397 . S
C2465 C2466 1.334 . S
C2466 H2437 0.950 . S
C2466 C2465 1.334 . S
C2466 C2467 1.287 . S
C2467 C2466 1.287 . S
C2467 C2468 1.524 . S
C2467 H2470 0.999 . S
C2468 H2438 0.950 . S
C2468 C2467 1.524 . S
C2468 C2469 1.415 . S
C2469 H2439 0.950 . S
C2469 C2464 1.363 . S
C2469 C2468 1.415 . S
H2470 C2467 0.999 . S
H2471 C2452 0.913 . S
H2472 C2490 0.951 . S
H2473 C2492 0.951 . S
H2474 C2494 0.950 . S
H2475 C2495 0.950 . S
H2476 C2497 0.950 . S
H2477 C2500 0.950 . S
H2478 C2501 0.950 . S
H2479 C2503 0.950 . S
H2480 C2504 0.950 . S
H2481 C2505 0.951 . S
H2482 C2507 0.951 . S
H2483 C2509 0.950 . S
H2484 C2510 0.950 . S
H2485 C2512 0.950 . S
H2486 C2515 0.950 . S
H2487 C2516 0.950 . S
H2488 C2518 0.950 . S
H2489 C2519 0.950 . S
C2490 H2472 0.951 . S
C2490 C2491 1.366 . S
C2490 C2492 1.388 . S
C2491 C2490 1.366 . S
C2491 C2495 1.385 . S
C2492 H2473 0.951 . S
C2492 C2490 1.388 . S
C2492 C2493 1.366 . S
C2493 C2492 1.366 . S
C2493 C2494 1.414 . S
C2493 C2496 1.499 . S
C2494 H2474 0.950 . S
C2494 C2493 1.414 . S
C2494 C2495 1.374 . S
C2495 H2475 0.950 . S
C2495 C2491 1.385 . S
C2495 C2494 1.374 . S
C2496 C2493 1.499 . S
C2496 C2497 1.373 . S
C2496 C2498 1.389 . S
C2497 H2476 0.950 . S
C2497 C2496 1.373 . S
C2497 C2513 1.377 . S
C2498 C2496 1.389 . S
C2498 C2499 1.524 . S
C2498 C2512 1.377 . S
C2499 C2498 1.524 . S
C2499 C2500 1.397 . S
C2499 C2504 1.363 . S
C2500 H2477 0.950 . S
C2500 C2499 1.397 . S
C2500 C2501 1.334 . S
C2501 H2478 0.950 . S
C2501 C2500 1.334 . S
C2501 C2502 1.287 . S
C2502 C2501 1.287 . S
C2502 C2503 1.524 . S
C2502 H2521 0.913 . S
C2503 H2479 0.950 . S
C2503 C2502 1.524 . S
C2503 C2504 1.415 . S
C2504 H2480 0.950 . S
C2504 C2499 1.363 . S
C2504 C2503 1.415 . S
C2505 H2481 0.951 . S
C2505 C2506 1.366 . S
C2505 C2507 1.388 . S
C2506 C2505 1.366 . S
C2506 C2510 1.385 . S
C2507 H2482 0.951 . S
C2507 C2505 1.388 . S
C2507 C2508 1.366 . S
C2508 C2507 1.366 . S
C2508 C2509 1.414 . S
C2508 C2511 1.499 . S
C2509 H2483 0.950 . S
C2509 C2508 1.414 . S
C2509 C2510 1.374 . S
C2510 H2484 0.950 . S
C2510 C2506 1.385 . S
C2510 C2509 1.374 . S
C2511 C2508 1.499 . S
C2511 C2512 1.373 . S
C2511 C2513 1.389 . S
C2512 H2485 0.950 . S
C2512 C2498 1.377 . S
C2512 C2511 1.373 . S
C2513 C2497 1.377 . S
C2513 C2511 1.389 . S
C2513 C2514 1.524 . S
C2514 C2513 1.524 . S
C2514 C2515 1.397 . S
C2514 C2519 1.363 . S
C2515 H2486 0.950 . S
C2515 C2514 1.397 . S
C2515 C2516 1.334 . S
C2516 H2487 0.950 . S
C2516 C2515 1.334 . S
C2516 C2517 1.287 . S
C2517 C2516 1.287 . S
C2517 C2518 1.524 . S
C2517 H2520 0.999 . S
C2518 H2488 0.950 . S
C2518 C2517 1.524 . S
C2518 C2519 1.415 . S
C2519 H2489 0.950 . S
C2519 C2514 1.363 . S
C2519 C2518 1.415 . S
H2520 C2517 0.999 . S
H2521 C2502 0.913 . S
H2522 C2540 0.951 . S
H2523 C2542 0.951 . S
H2524 C2544 0.950 . S
H2525 C2545 0.950 . S
H2526 C2547 0.950 . S
H2527 C2550 0.950 . S
H2528 C2551 0.950 . S
H2529 C2553 0.950 . S
H2530 C2554 0.950 . S
H2531 C2555 0.951 . S
H2532 C2557 0.951 . S
H2533 C2559 0.950 . S
H2534 C2560 0.950 . S
H2535 C2562 0.950 . S
H2536 C2565 0.950 . S
H2537 C2566 0.950 . S
H2538 C2568 0.950 . S
H2539 C2569 0.950 . S
C2540 H2522 0.951 . S
C2540 C2541 1.366 . S
C2540 C2542 1.388 . S
C2541 C2540 1.366 . S
C2541 C2545 1.385 . S
C2542 H2523 0.951 . S
C2542 C2540 1.388 . S
C2542 C2543 1.366 . S
C2543 C2542 1.366 . S
C2543 C2544 1.414 . S
C2543 C2546 1.499 . S
C2544 H2524 0.950 . S
C2544 C2543 1.414 . S
C2544 C2545 1.374 . S
C2545 H2525 0.950 . S
C2545 C2541 1.385 . S
C2545 C2544 1.374 . S
C2546 C2543 1.499 . S
C2546 C2547 1.373 . S
C2546 C2548 1.389 . S
C2547 H2526 0.950 . S
C2547 C2546 1.373 . S
C2547 C2563 1.377 . S
C2548 C2546 1.389 . S
C2548 C2549 1.524 . S
C2548 C2562 1.377 . S
C2549 C2548 1.524 . S
C2549 C2550 1.397 . S
C2549 C2554 1.363 . S
C2550 H2527 0.950 . S
C2550 C2549 1.397 . S
C2550 C2551 1.334 . S
C2551 H2528 0.950 . S
C2551 C2550 1.334 . S
C2551 C2552 1.287 . S
C2552 C2551 1.287 . S
C2552 C2553 1.524 . S
C2552 H2571 0.913 . S
C2553 H2529 0.950 . S
C2553 C2552 1.524 . S
C2553 C2554 1.415 . S
C2554 H2530 0.950 . S
C2554 C2549 1.363 . S
C2554 C2553 1.415 . S
C2555 H2531 0.951 . S
C2555 C2556 1.366 . S
C2555 C2557 1.388 . S
C2556 C2555 1.366 . S
C2556 C2560 1.385 . S
C2557 H2532 0.951 . S
C2557 C2555 1.388 . S
C2557 C2558 1.366 . S
C2558 C2557 1.366 . S
C2558 C2559 1.414 . S
C2558 C2561 1.499 . S
C2559 H2533 0.950 . S
C2559 C2558 1.414 . S
C2559 C2560 1.374 . S
C2560 H2534 0.950 . S
C2560 C2556 1.385 . S
C2560 C2559 1.374 . S
C2561 C2558 1.499 . S
C2561 C2562 1.373 . S
C2561 C2563 1.389 . S
C2562 H2535 0.950 . S
C2562 C2548 1.377 . S
C2562 C2561 1.373 . S
C2563 C2547 1.377 . S
C2563 C2561 1.389 . S
C2563 C2564 1.524 . S
C2564 C2563 1.524 . S
C2564 C2565 1.397 . S
C2564 C2569 1.363 . S
C2565 H2536 0.950 . S
C2565 C2564 1.397 . S
C2565 C2566 1.334 . S
C2566 H2537 0.950 . S
C2566 C2565 1.334 . S
C2566 C2567 1.287 . S
C2567 C2566 1.287 . S
C2567 C2568 1.524 . S
C2567 H2570 0.999 . S
C2568 H2538 0.950 . S
C2568 C2567 1.524 . S
C2568 C2569 1.415 . S
C2569 H2539 0.950 . S
C2569 C2564 1.363 . S
C2569 C2568 1.415 . S
H2570 C2567 0.999 . S
H2571 C2552 0.913 . S
H2572 C2590 0.951 . S
H2573 C2592 0.951 . S
H2574 C2594 0.950 . S
H2575 C2595 0.950 . S
H2576 C2597 0.950 . S
H2577 C2600 0.950 . S
H2578 C2601 0.950 . S
H2579 C2603 0.950 . S
H2580 C2604 0.950 . S
H2581 C2605 0.951 . S
H2582 C2607 0.951 . S
H2583 C2609 0.950 . S
H2584 C2610 0.950 . S
H2585 C2612 0.950 . S
H2586 C2615 0.950 . S
H2587 C2616 0.950 . S
H2588 C2618 0.950 . S
H2589 C2619 0.950 . S
C2590 H2572 0.951 . S
C2590 C2591 1.366 . S
C2590 C2592 1.388 . S
C2591 C2590 1.366 . S
C2591 C2595 1.385 . S
C2592 H2573 0.951 . S
C2592 C2590 1.388 . S
C2592 C2593 1.366 . S
C2593 C2592 1.366 . S
C2593 C2594 1.414 . S
C2593 C2596 1.499 . S
C2594 H2574 0.950 . S
C2594 C2593 1.414 . S
C2594 C2595 1.374 . S
C2595 H2575 0.950 . S
C2595 C2591 1.385 . S
C2595 C2594 1.374 . S
C2596 C2593 1.499 . S
C2596 C2597 1.373 . S
C2596 C2598 1.389 . S
C2597 H2576 0.950 . S
C2597 C2596 1.373 . S
C2597 C2613 1.377 . S
C2598 C2596 1.389 . S
C2598 C2599 1.524 . S
C2598 C2612 1.377 . S
C2599 C2598 1.524 . S
C2599 C2600 1.397 . S
C2599 C2604 1.363 . S
C2600 H2577 0.950 . S
C2600 C2599 1.397 . S
C2600 C2601 1.334 . S
C2601 H2578 0.950 . S
C2601 C2600 1.334 . S
C2601 C2602 1.287 . S
C2602 C2601 1.287 . S
C2602 C2603 1.524 . S
C2602 H2621 0.913 . S
C2603 H2579 0.950 . S
C2603 C2602 1.524 . S
C2603 C2604 1.415 . S
C2604 H2580 0.950 . S
C2604 C2599 1.363 . S
C2604 C2603 1.415 . S
C2605 H2581 0.951 . S
C2605 C2606 1.366 . S
C2605 C2607 1.388 . S
C2606 C2605 1.366 . S
C2606 C2610 1.385 . S
C2607 H2582 0.951 . S
C2607 C2605 1.388 . S
C2607 C2608 1.366 . S
C2608 C2607 1.366 . S
C2608 C2609 1.414 . S
C2608 C2611 1.499 . S
C2609 H2583 0.950 . S
C2609 C2608 1.414 . S
C2609 C2610 1.374 . S
C2610 H2584 0.950 . S
C2610 C2606 1.385 . S
C2610 C2609 1.374 . S
C2611 C2608 1.499 . S
C2611 C2612 1.373 . S
C2611 C2613 1.389 . S
C2612 H2585 0.950 . S
C2612 C2598 1.377 . S
C2612 C2611 1.373 . S
C2613 C2597 1.377 . S
C2613 C2611 1.389 . S
C2613 C2614 1.524 . S
C2614 C2613 1.524 . S
C2614 C2615 1.397 . S
C2614 C2619 1.363 . S
C2615 H2586 0.950 . S
C2615 C2614 1.397 . S
C2615 C2616 1.334 . S
C2616 H2587 0.950 . S
C2616 C2615 1.334 . S
C2616 C2617 1.287 . S
C2617 C2616 1.287 . S
C2617 C2618 1.524 . S
C2617 H2620 0.999 . S
C2618 H2588 0.950 . S
C2618 C2617 1.524 . S
C2618 C2619 1.415 . S
C2619 H2589 0.950 . S
C2619 C2614 1.363 . S
C2619 C2618 1.415 . S
H2620 C2617 0.999 . S
H2621 C2602 0.913 . S
H2622 C2640 0.951 . S
H2623 C2642 0.951 . S
H2624 C2644 0.950 . S
H2625 C2645 0.950 . S
H2626 C2647 0.950 . S
H2627 C2650 0.950 . S
H2628 C2651 0.950 . S
H2629 C2653 0.950 . S
H2630 C2654 0.950 . S
H2631 C2655 0.951 . S
H2632 C2657 0.951 . S
H2633 C2659 0.950 . S
H2634 C2660 0.950 . S
H2635 C2662 0.950 . S
H2636 C2665 0.950 . S
H2637 C2666 0.950 . S
H2638 C2668 0.950 . S
H2639 C2669 0.950 . S
C2640 H2622 0.951 . S
C2640 C2641 1.366 . S
C2640 C2642 1.388 . S
C2641 C2640 1.366 . S
C2641 C2645 1.385 . S
C2642 H2623 0.951 . S
C2642 C2640 1.388 . S
C2642 C2643 1.366 . S
C2643 C2642 1.366 . S
C2643 C2644 1.414 . S
C2643 C2646 1.499 . S
C2644 H2624 0.950 . S
C2644 C2643 1.414 . S
C2644 C2645 1.374 . S
C2645 H2625 0.950 . S
C2645 C2641 1.385 . S
C2645 C2644 1.374 . S
C2646 C2643 1.499 . S
C2646 C2647 1.373 . S
C2646 C2648 1.389 . S
C2647 H2626 0.950 . S
C2647 C2646 1.373 . S
C2647 C2663 1.377 . S
C2648 C2646 1.389 . S
C2648 C2649 1.524 . S
C2648 C2662 1.377 . S
C2649 C2648 1.524 . S
C2649 C2650 1.397 . S
C2649 C2654 1.363 . S
C2650 H2627 0.950 . S
C2650 C2649 1.397 . S
C2650 C2651 1.334 . S
C2651 H2628 0.950 . S
C2651 C2650 1.334 . S
C2651 C2652 1.287 . S
C2652 C2651 1.287 . S
C2652 C2653 1.524 . S
C2652 H2671 0.913 . S
C2653 H2629 0.950 . S
C2653 C2652 1.524 . S
C2653 C2654 1.415 . S
C2654 H2630 0.950 . S
C2654 C2649 1.363 . S
C2654 C2653 1.415 . S
C2655 H2631 0.951 . S
C2655 C2656 1.366 . S
C2655 C2657 1.388 . S
C2656 C2655 1.366 . S
C2656 C2660 1.385 . S
C2657 H2632 0.951 . S
C2657 C2655 1.388 . S
C2657 C2658 1.366 . S
C2658 C2657 1.366 . S
C2658 C2659 1.414 . S
C2658 C2661 1.499 . S
C2659 H2633 0.950 . S
C2659 C2658 1.414 . S
C2659 C2660 1.374 . S
C2660 H2634 0.950 . S
C2660 C2656 1.385 . S
C2660 C2659 1.374 . S
C2661 C2658 1.499 . S
C2661 C2662 1.373 . S
C2661 C2663 1.389 . S
C2662 H2635 0.950 . S
C2662 C2648 1.377 . S
C2662 C2661 1.373 . S
C2663 C2647 1.377 . S
C2663 C2661 1.389 . S
C2663 C2664 1.524 . S
C2664 C2663 1.524 . S
C2664 C2665 1.397 . S
C2664 C2669 1.363 . S
C2665 H2636 0.950 . S
C2665 C2664 1.397 . S
C2665 C2666 1.334 . S
C2666 H2637 0.950 . S
C2666 C2665 1.334 . S
C2666 C2667 1.287 . S
C2667 C2666 1.287 . S
C2667 C2668 1.524 . S
C2667 H2670 0.999 . S
C2668 H2638 0.950 . S
C2668 C2667 1.524 . S
C2668 C2669 1.415 . S
C2669 H2639 0.950 . S
C2669 C2664 1.363 . S
C2669 C2668 1.415 . S
H2670 C2667 0.999 . S
H2671 C2652 0.913 . S
H2672 C2690 0.951 . S
H2673 C2692 0.951 . S
H2674 C2694 0.950 . S
H2675 C2695 0.950 . S
H2676 C2697 0.950 . S
H2677 C2700 0.950 . S
H2678 C2701 0.950 . S
H2679 C2703 0.950 . S
H2680 C2704 0.950 . S
H2681 C2705 0.951 . S
H2682 C2707 0.951 . S
H2683 C2709 0.950 . S
H2684 C2710 0.950 . S
H2685 C2712 0.950 . S
H2686 C2715 0.950 . S
H2687 C2716 0.950 . S
H2688 C2718 0.950 . S
H2689 C2719 0.950 . S
C2690 H2672 0.951 . S
C2690 C2691 1.366 . S
C2690 C2692 1.388 . S
C2691 C2690 1.366 . S
C2691 C2695 1.385 . S
C2692 H2673 0.951 . S
C2692 C2690 1.388 . S
C2692 C2693 1.366 . S
C2693 C2692 1.366 . S
C2693 C2694 1.414 . S
C2693 C2696 1.499 . S
C2694 H2674 0.950 . S
C2694 C2693 1.414 . S
C2694 C2695 1.374 . S
C2695 H2675 0.950 . S
C2695 C2691 1.385 . S
C2695 C2694 1.374 . S
C2696 C2693 1.499 . S
C2696 C2697 1.373 . S
C2696 C2698 1.389 . S
C2697 H2676 0.950 . S
C2697 C2696 1.373 . S
C2697 C2713 1.377 . S
C2698 C2696 1.389 . S
C2698 C2699 1.524 . S
C2698 C2712 1.377 . S
C2699 C2698 1.524 . S
C2699 C2700 1.397 . S
C2699 C2704 1.363 . S
C2700 H2677 0.950 . S
C2700 C2699 1.397 . S
C2700 C2701 1.334 . S
C2701 H2678 0.950 . S
C2701 C2700 1.334 . S
C2701 C2702 1.287 . S
C2702 C2701 1.287 . S
C2702 C2703 1.524 . S
C2702 H2721 0.913 . S
C2703 H2679 0.950 . S
C2703 C2702 1.524 . S
C2703 C2704 1.415 . S
C2704 H2680 0.950 . S
C2704 C2699 1.363 . S
C2704 C2703 1.415 . S
C2705 H2681 0.951 . S
C2705 C2706 1.366 . S
C2705 C2707 1.388 . S
C2706 C2705 1.366 . S
C2706 C2710 1.385 . S
C2707 H2682 0.951 . S
C2707 C2705 1.388 . S
C2707 C2708 1.366 . S
C2708 C2707 1.366 . S
C2708 C2709 1.414 . S
C2708 C2711 1.499 . S
C2709 H2683 0.950 . S
C2709 C2708 1.414 . S
C2709 C2710 1.374 . S
C2710 H2684 0.950 . S
C2710 C2706 1.385 . S
C2710 C2709 1.374 . S
C2711 C2708 1.499 . S
C2711 C2712 1.373 . S
C2711 C2713 1.389 . S
C2712 H2685 0.950 . S
C2712 C2698 1.377 . S
C2712 C2711 1.373 . S
C2713 C2697 1.377 . S
C2713 C2711 1.389 . S
C2713 C2714 1.524 . S
C2714 C2713 1.524 . S
C2714 C2715 1.397 . S
C2714 C2719 1.363 . S
C2715 H2686 0.950 . S
C2715 C2714 1.397 . S
C2715 C2716 1.334 . S
C2716 H2687 0.950 . S
C2716 C2715 1.334 . S
C2716 C2717 1.287 . S
C2717 C2716 1.287 . S
C2717 C2718 1.524 . S
C2717 H2720 0.999 . S
C2718 H2688 0.950 . S
C2718 C2717 1.524 . S
C2718 C2719 1.415 . S
C2719 H2689 0.950 . S
C2719 C2714 1.363 . S
C2719 C2718 1.415 . S
H2720 C2717 0.999 . S
H2721 C2702 0.913 . S
H2722 C2740 0.951 . S
H2723 C2742 0.951 . S
H2724 C2744 0.950 . S
H2725 C2745 0.950 . S
H2726 C2747 0.950 . S
H2727 C2750 0.950 . S
H2728 C2751 0.950 . S
H2729 C2753 0.950 . S
H2730 C2754 0.950 . S
H2731 C2755 0.951 . S
H2732 C2757 0.951 . S
H2733 C2759 0.950 . S
H2734 C2760 0.950 . S
H2735 C2762 0.950 . S
H2736 C2765 0.950 . S
H2737 C2766 0.950 . S
H2738 C2768 0.950 . S
H2739 C2769 0.950 . S
C2740 H2722 0.951 . S
C2740 C2741 1.366 . S
C2740 C2742 1.388 . S
C2741 C2740 1.366 . S
C2741 C2745 1.385 . S
C2742 H2723 0.951 . S
C2742 C2740 1.388 . S
C2742 C2743 1.366 . S
C2743 C2742 1.366 . S
C2743 C2744 1.414 . S
C2743 C2746 1.499 . S
C2744 H2724 0.950 . S
C2744 C2743 1.414 . S
C2744 C2745 1.374 . S
C2745 H2725 0.950 . S
C2745 C2741 1.385 . S
C2745 C2744 1.374 . S
C2746 C2743 1.499 . S
C2746 C2747 1.373 . S
C2746 C2748 1.389 . S
C2747 H2726 0.950 . S
C2747 C2746 1.373 . S
C2747 C2763 1.377 . S
C2748 C2746 1.389 . S
C2748 C2749 1.524 . S
C2748 C2762 1.377 . S
C2749 C2748 1.524 . S
C2749 C2750 1.397 . S
C2749 C2754 1.363 . S
C2750 H2727 0.950 . S
C2750 C2749 1.397 . S
C2750 C2751 1.334 . S
C2751 H2728 0.950 . S
C2751 C2750 1.334 . S
C2751 C2752 1.287 . S
C2752 C2751 1.287 . S
C2752 C2753 1.524 . S
C2752 H2771 0.913 . S
C2753 H2729 0.950 . S
C2753 C2752 1.524 . S
C2753 C2754 1.415 . S
C2754 H2730 0.950 . S
C2754 C2749 1.363 . S
C2754 C2753 1.415 . S
C2755 H2731 0.951 . S
C2755 C2756 1.366 . S
C2755 C2757 1.388 . S
C2756 C2755 1.366 . S
C2756 C2760 1.385 . S
C2757 H2732 0.951 . S
C2757 C2755 1.388 . S
C2757 C2758 1.366 . S
C2758 C2757 1.366 . S
C2758 C2759 1.414 . S
C2758 C2761 1.499 . S
C2759 H2733 0.950 . S
C2759 C2758 1.414 . S
C2759 C2760 1.374 . S
C2760 H2734 0.950 . S
C2760 C2756 1.385 . S
C2760 C2759 1.374 . S
C2761 C2758 1.499 . S
C2761 C2762 1.373 . S
C2761 C2763 1.389 . S
C2762 H2735 0.950 . S
C2762 C2748 1.377 . S
C2762 C2761 1.373 . S
C2763 C2747 1.377 . S
C2763 C2761 1.389 . S
C2763 C2764 1.524 . S
C2764 C2763 1.524 . S
C2764 C2765 1.397 . S
C2764 C2769 1.363 . S
C2765 H2736 0.950 . S
C2765 C2764 1.397 . S
C2765 C2766 1.334 . S
C2766 H2737 0.950 . S
C2766 C2765 1.334 . S
C2766 C2767 1.287 . S
C2767 C2766 1.287 . S
C2767 C2768 1.524 . S
C2767 H2770 0.999 . S
C2768 H2738 0.950 . S
C2768 C2767 1.524 . S
C2768 C2769 1.415 . S
C2769 H2739 0.950 . S
C2769 C2764 1.363 . S
C2769 C2768 1.415 . S
H2770 C2767 0.999 . S
H2771 C2752 0.913 . S
H2772 C2790 0.951 . S
H2773 C2792 0.951 . S
H2774 C2794 0.950 . S
H2775 C2795 0.950 . S
H2776 C2797 0.950 . S
H2777 C2800 0.950 . S
H2778 C2801 0.950 . S
H2779 C2803 0.950 . S
H2780 C2804 0.950 . S
H2781 C2805 0.951 . S
H2782 C2807 0.951 . S
H2783 C2809 0.950 . S
H2784 C2810 0.950 . S
H2785 C2812 0.950 . S
H2786 C2815 0.950 . S
H2787 C2816 0.950 . S
H2788 C2818 0.950 . S
H2789 C2819 0.950 . S
C2790 H2772 0.951 . S
C2790 C2791 1.366 . S
C2790 C2792 1.388 . S
C2791 C2790 1.366 . S
C2791 C2795 1.385 . S
C2792 H2773 0.951 . S
C2792 C2790 1.388 . S
C2792 C2793 1.366 . S
C2793 C2792 1.366 . S
C2793 C2794 1.414 . S
C2793 C2796 1.499 . S
C2794 H2774 0.950 . S
C2794 C2793 1.414 . S
C2794 C2795 1.374 . S
C2795 H2775 0.950 . S
C2795 C2791 1.385 . S
C2795 C2794 1.374 . S
C2796 C2793 1.499 . S
C2796 C2797 1.373 . S
C2796 C2798 1.389 . S
C2797 H2776 0.950 . S
C2797 C2796 1.373 . S
C2797 C2813 1.377 . S
C2798 C2796 1.389 . S
C2798 C2799 1.524 . S
C2798 C2812 1.377 . S
C2799 C2798 1.524 . S
C2799 C2800 1.397 . S
C2799 C2804 1.363 . S
C2800 H2777 0.950 . S
C2800 C2799 1.397 . S
C2800 C2801 1.334 . S
C2801 H2778 0.950 . S
C2801 C2800 1.334 . S
C2801 C2802 1.287 . S
C2802 C2801 1.287 . S
C2802 C2803 1.524 . S
C2802 H2821 0.913 . S
C2803 H2779 0.950 . S
C2803 C2802 1.524 . S
C2803 C2804 1.415 . S
C2804 H2780 0.950 . S
C2804 C2799 1.363 . S
C2804 C2803 1.415 . S
C2805 H2781 0.951 . S
C2805 C2806 1.366 . S
C2805 C2807 1.388 . S
C2806 C2805 1.366 . S
C2806 C2810 1.385 . S
C2807 H2782 0.951 . S
C2807 C2805 1.388 . S
C2807 C2808 1.366 . S
C2808 C2807 1.366 . S
C2808 C2809 1.414 . S
C2808 C2811 1.499 . S
C2809 H2783 0.950 . S
C2809 C2808 1.414 . S
C2809 C2810 1.374 . S
C2810 H2784 0.950 . S
C2810 C2806 1.385 . S
C2810 C2809 1.374 . S
C2811 C2808 1.499 . S
C2811 C2812 1.373 . S
C2811 C2813 1.389 . S
C2812 H2785 0.950 . S
C2812 C2798 1.377 . S
C2812 C2811 1.373 . S
C2813 C2797 1.377 . S
C2813 C2811 1.389 . S
C2813 C2814 1.524 . S
C2814 C2813 1.524 . S
C2814 C2815 1.397 . S
C2814 C2819 1.363 . S
C2815 H2786 0.950 . S
C2815 C2814 1.397 . S
C2815 C2816 1.334 . S
C2816 H2787 0.950 . S
C2816 C2815 1.334 . S
C2816 C2817 1.287 . S
C2817 C2816 1.287 . S
C2817 C2818 1.524 . S
C2817 H2820 0.999 . S
C2818 H2788 0.950 . S
C2818 C2817 1.524 . S
C2818 C2819 1.415 . S
C2819 H2789 0.950 . S
C2819 C2814 1.363 . S
C2819 C2818 1.415 . S
H2820 C2817 0.999 . S
H2821 C2802 0.913 . S
H2822 C2840 0.951 . S
H2823 C2842 0.951 . S
H2824 C2844 0.950 . S
H2825 C2845 0.950 . S
H2826 C2847 0.950 . S
H2827 C2850 0.950 . S
H2828 C2851 0.950 . S
H2829 C2853 0.950 . S
H2830 C2854 0.950 . S
H2831 C2855 0.951 . S
H2832 C2857 0.951 . S
H2833 C2859 0.950 . S
H2834 C2860 0.950 . S
H2835 C2862 0.950 . S
H2836 C2865 0.950 . S
H2837 C2866 0.950 . S
H2838 C2868 0.950 . S
H2839 C2869 0.950 . S
C2840 H2822 0.951 . S
C2840 C2841 1.366 . S
C2840 C2842 1.388 . S
C2841 C2840 1.366 . S
C2841 C2845 1.385 . S
C2842 H2823 0.951 . S
C2842 C2840 1.388 . S
C2842 C2843 1.366 . S
C2843 C2842 1.366 . S
C2843 C2844 1.414 . S
C2843 C2846 1.499 . S
C2844 H2824 0.950 . S
C2844 C2843 1.414 . S
C2844 C2845 1.374 . S
C2845 H2825 0.950 . S
C2845 C2841 1.385 . S
C2845 C2844 1.374 . S
C2846 C2843 1.499 . S
C2846 C2847 1.373 . S
C2846 C2848 1.389 . S
C2847 H2826 0.950 . S
C2847 C2846 1.373 . S
C2847 C2863 1.377 . S
C2848 C2846 1.389 . S
C2848 C2849 1.524 . S
C2848 C2862 1.377 . S
C2849 C2848 1.524 . S
C2849 C2850 1.397 . S
C2849 C2854 1.363 . S
C2850 H2827 0.950 . S
C2850 C2849 1.397 . S
C2850 C2851 1.334 . S
C2851 H2828 0.950 . S
C2851 C2850 1.334 . S
C2851 C2852 1.287 . S
C2852 C2851 1.287 . S
C2852 C2853 1.524 . S
C2852 H2871 0.913 . S
C2853 H2829 0.950 . S
C2853 C2852 1.524 . S
C2853 C2854 1.415 . S
C2854 H2830 0.950 . S
C2854 C2849 1.363 . S
C2854 C2853 1.415 . S
C2855 H2831 0.951 . S
C2855 C2856 1.366 . S
C2855 C2857 1.388 . S
C2856 C2855 1.366 . S
C2856 C2860 1.385 . S
C2857 H2832 0.951 . S
C2857 C2855 1.388 . S
C2857 C2858 1.366 . S
C2858 C2857 1.366 . S
C2858 C2859 1.414 . S
C2858 C2861 1.499 . S
C2859 H2833 0.950 . S
C2859 C2858 1.414 . S
C2859 C2860 1.374 . S
C2860 H2834 0.950 . S
C2860 C2856 1.385 . S
C2860 C2859 1.374 . S
C2861 C2858 1.499 . S
C2861 C2862 1.373 . S
C2861 C2863 1.389 . S
C2862 H2835 0.950 . S
C2862 C2848 1.377 . S
C2862 C2861 1.373 . S
C2863 C2847 1.377 . S
C2863 C2861 1.389 . S
C2863 C2864 1.524 . S
C2864 C2863 1.524 . S
C2864 C2865 1.397 . S
C2864 C2869 1.363 . S
C2865 H2836 0.950 . S
C2865 C2864 1.397 . S
C2865 C2866 1.334 . S
C2866 H2837 0.950 . S
C2866 C2865 1.334 . S
C2866 C2867 1.287 . S
C2867 C2866 1.287 . S
C2867 C2868 1.524 . S
C2867 H2870 0.999 . S
C2868 H2838 0.950 . S
C2868 C2867 1.524 . S
C2868 C2869 1.415 . S
C2869 H2839 0.950 . S
C2869 C2864 1.363 . S
C2869 C2868 1.415 . S
H2870 C2867 0.999 . S
H2871 C2852 0.913 . S
H2872 C2890 0.951 . S
H2873 C2892 0.951 . S
H2874 C2894 0.950 . S
H2875 C2895 0.950 . S
H2876 C2897 0.950 . S
H2877 C2900 0.950 . S
H2878 C2901 0.950 . S
H2879 C2903 0.950 . S
H2880 C2904 0.950 . S
H2881 C2905 0.951 . S
H2882 C2907 0.951 . S
H2883 C2909 0.950 . S
H2884 C2910 0.950 . S
H2885 C2912 0.950 . S
H2886 C2915 0.950 . S
H2887 C2916 0.950 . S
H2888 C2918 0.950 . S
H2889 C2919 0.950 . S
C2890 H2872 0.951 . S
C2890 C2891 1.366 . S
C2890 C2892 1.388 . S
C2891 C2890 1.366 . S
C2891 C2895 1.385 . S
C2892 H2873 0.951 . S
C2892 C2890 1.388 . S
C2892 C2893 1.366 . S
C2893 C2892 1.366 . S
C2893 C2894 1.414 . S
C2893 C2896 1.499 . S
C2894 H2874 0.950 . S
C2894 C2893 1.414 . S
C2894 C2895 1.374 . S
C2895 H2875 0.950 . S
C2895 C2891 1.385 . S
C2895 C2894 1.374 . S
C2896 C2893 1.499 . S
C2896 C2897 1.373 . S
C2896 C2898 1.389 . S
C2897 H2876 0.950 . S
C2897 C2896 1.373 . S
C2897 C2913 1.377 . S
C2898 C2896 1.389 . S
C2898 C2899 1.524 . S
C2898 C2912 1.377 . S
C2899 C2898 1.524 . S
C2899 C2900 1.397 . S
C2899 C2904 1.363 . S
C2900 H2877 0.950 . S
C2900 C2899 1.397 . S
C2900 C2901 1.334 . S
C2901 H2878 0.950 . S
C2901 C2900 1.334 . S
C2901 C2902 1.287 . S
C2902 C2901 1.287 . S
C2902 C2903 1.524 . S
C2902 H2921 0.913 . S
C2903 H2879 0.950 . S
C2903 C2902 1.524 . S
C2903 C2904 1.415 . S
C2904 H2880 0.950 . S
C2904 C2899 1.363 . S
C2904 C2903 1.415 . S
C2905 H2881 0.951 . S
C2905 C2906 1.366 . S
C2905 C2907 1.388 . S
C2906 C2905 1.366 . S
C2906 C2910 1.385 . S
C2907 H2882 0.951 . S
C2907 C2905 1.388 . S
C2907 C2908 1.366 . S
C2908 C2907 1.366 . S
C2908 C2909 1.414 . S
C2908 C2911 1.499 . S
C2909 H2883 0.950 . S
C2909 C2908 1.414 . S
C2909 C2910 1.374 . S
C2910 H2884 0.950 . S
C2910 C2906 1.385 . S
C2910 C2909 1.374 . S
C2911 C2908 1.499 . S
C2911 C2912 1.373 . S
C2911 C2913 1.389 . S
C2912 H2885 0.950 . S
C2912 C2898 1.377 . S
C2912 C2911 1.373 . S
C2913 C2897 1.377 . S
C2913 C2911 1.389 . S
C2913 C2914 1.524 . S
C2914 C2913 1.524 . S
C2914 C2915 1.397 . S
C2914 C2919 1.363 . S
C2915 H2886 0.950 . S
C2915 C2914 1.397 . S
C2915 C2916 1.334 . S
C2916 H2887 0.950 . S
C2916 C2915 1.334 . S
C2916 C2917 1.287 . S
C2917 C2916 1.287 . S
C2917 C2918 1.524 . S
C2917 H2920 0.999 . S
C2918 H2888 0.950 . S
C2918 C2917 1.524 . S
C2918 C2919 1.415 . S
C2919 H2889 0.950 . S
C2919 C2914 1.363 . S
C2919 C2918 1.415 . S
H2920 C2917 0.999 . S
H2921 C2902 0.913 . S
H2922 C2940 0.951 . S
H2923 C2942 0.951 . S
H2924 C2944 0.950 . S
H2925 C2945 0.950 . S
H2926 C2947 0.950 . S
H2927 C2950 0.950 . S
H2928 C2951 0.950 . S
H2929 C2953 0.950 . S
H2930 C2954 0.950 . S
H2931 C2955 0.951 . S
H2932 C2957 0.951 . S
H2933 C2959 0.950 . S
H2934 C2960 0.950 . S
H2935 C2962 0.950 . S
H2936 C2965 0.950 . S
H2937 C2966 0.950 . S
H2938 C2968 0.950 . S
H2939 C2969 0.950 . S
C2940 H2922 0.951 . S
C2940 C2941 1.366 . S
C2940 C2942 1.388 . S
C2941 C2940 1.366 . S
C2941 C2945 1.385 . S
C2942 H2923 0.951 . S
C2942 C2940 1.388 . S
C2942 C2943 1.366 . S
C2943 C2942 1.366 . S
C2943 C2944 1.414 . S
C2943 C2946 1.499 . S
C2944 H2924 0.950 . S
C2944 C2943 1.414 . S
C2944 C2945 1.374 . S
C2945 H2925 0.950 . S
C2945 C2941 1.385 . S
C2945 C2944 1.374 . S
C2946 C2943 1.499 . S
C2946 C2947 1.373 . S
C2946 C2948 1.389 . S
C2947 H2926 0.950 . S
C2947 C2946 1.373 . S
C2947 C2963 1.377 . S
C2948 C2946 1.389 . S
C2948 C2949 1.524 . S
C2948 C2962 1.377 . S
C2949 C2948 1.524 . S
C2949 C2950 1.397 . S
C2949 C2954 1.363 . S
C2950 H2927 0.950 . S
C2950 C2949 1.397 . S
C2950 C2951 1.334 . S
C2951 H2928 0.950 . S
C2951 C2950 1.334 . S
C2951 C2952 1.287 . S
C2952 C2951 1.287 . S
C2952 C2953 1.524 . S
C2952 H2971 0.913 . S
C2953 H2929 0.950 . S
C2953 C2952 1.524 . S
C2953 C2954 1.415 . S
C2954 H2930 0.950 . S
C2954 C2949 1.363 . S
C2954 C2953 1.415 . S
C2955 H2931 0.951 . S
C2955 C2956 1.366 . S
C2955 C2957 1.388 . S
C2956 C2955 1.366 . S
C2956 C2960 1.385 . S
C2957 H2932 0.951 . S
C2957 C2955 1.388 . S
C2957 C2958 1.366 . S
C2958 C2957 1.366 . S
C2958 C2959 1.414 . S
C2958 C2961 1.499 . S
C2959 H2933 0.950 . S
C2959 C2958 1.414 . S
C2959 C2960 1.374 . S
C2960 H2934 0.950 . S
C2960 C2956 1.385 . S
C2960 C2959 1.374 . S
C2961 C2958 1.499 . S
C2961 C2962 1.373 . S
C2961 C2963 1.389 . S
C2962 H2935 0.950 . S
C2962 C2948 1.377 . S
C2962 C2961 1.373 . S
C2963 C2947 1.377 . S
C2963 C2961 1.389 . S
C2963 C2964 1.524 . S
C2964 C2963 1.524 . S
C2964 C2965 1.397 . S
C2964 C2969 1.363 . S
C2965 H2936 0.950 . S
C2965 C2964 1.397 . S
C2965 C2966 1.334 . S
C2966 H2937 0.950 . S
C2966 C2965 1.334 . S
C2966 C2967 1.287 . S
C2967 C2966 1.287 . S
C2967 C2968 1.524 . S
C2967 H2970 0.999 . S
C2968 H2938 0.950 . S
C2968 C2967 1.524 . S
C2968 C2969 1.415 . S
C2969 H2939 0.950 . S
C2969 C2964 1.363 . S
C2969 C2968 1.415 . S
H2970 C2967 0.999 . S
H2971 C2952 0.913 . S
H2972 C2990 0.951 . S
H2973 C2992 0.951 . S
H2974 C2994 0.950 . S
H2975 C2995 0.950 . S
H2976 C2997 0.950 . S
H2977 C3000 0.950 . S
H2978 C3001 0.950 . S
H2979 C3003 0.950 . S
H2980 C3004 0.950 . S
H2981 C3005 0.951 . S
H2982 C3007 0.951 . S
H2983 C3009 0.950 . S
H2984 C3010 0.950 . S
H2985 C3012 0.950 . S
H2986 C3015 0.950 . S
H2987 C3016 0.950 . S
H2988 C3018 0.950 . S
H2989 C3019 0.950 . S
C2990 H2972 0.951 . S
C2990 C2991 1.366 . S
C2990 C2992 1.388 . S
C2991 C2990 1.366 . S
C2991 C2995 1.385 . S
C2992 H2973 0.951 . S
C2992 C2990 1.388 . S
C2992 C2993 1.366 . S
C2993 C2992 1.366 . S
C2993 C2994 1.414 . S
C2993 C2996 1.499 . S
C2994 H2974 0.950 . S
C2994 C2993 1.414 . S
C2994 C2995 1.374 . S
C2995 H2975 0.950 . S
C2995 C2991 1.385 . S
C2995 C2994 1.374 . S
C2996 C2993 1.499 . S
C2996 C2997 1.373 . S
C2996 C2998 1.389 . S
C2997 H2976 0.950 . S
C2997 C2996 1.373 . S
C2997 C3013 1.377 . S
C2998 C2996 1.389 . S
C2998 C2999 1.524 . S
C2998 C3012 1.377 . S
C2999 C2998 1.524 . S
C2999 C3000 1.397 . S
C2999 C3004 1.363 . S
C3000 H2977 0.950 . S
C3000 C2999 1.397 . S
C3000 C3001 1.334 . S
C3001 H2978 0.950 . S
C3001 C3000 1.334 . S
C3001 C3002 1.287 . S
C3002 C3001 1.287 . S
C3002 C3003 1.524 . S
C3002 H3021 0.913 . S
C3003 H2979 0.950 . S
C3003 C3002 1.524 . S
C3003 C3004 1.415 . S
C3004 H2980 0.950 . S
C3004 C2999 1.363 . S
C3004 C3003 1.415 . S
C3005 H2981 0.951 . S
C3005 C3006 1.366 . S
C3005 C3007 1.388 . S
C3006 C3005 1.366 . S
C3006 C3010 1.385 . S
C3007 H2982 0.951 . S
C3007 C3005 1.388 . S
C3007 C3008 1.366 . S
C3008 C3007 1.366 . S
C3008 C3009 1.414 . S
C3008 C3011 1.499 . S
C3009 H2983 0.950 . S
C3009 C3008 1.414 . S
C3009 C3010 1.374 . S
C3010 H2984 0.950 . S
C3010 C3006 1.385 . S
C3010 C3009 1.374 . S
C3011 C3008 1.499 . S
C3011 C3012 1.373 . S
C3011 C3013 1.389 . S
C3012 H2985 0.950 . S
C3012 C2998 1.377 . S
C3012 C3011 1.373 . S
C3013 C2997 1.377 . S
C3013 C3011 1.389 . S
C3013 C3014 1.524 . S
C3014 C3013 1.524 . S
C3014 C3015 1.397 . S
C3014 C3019 1.363 . S
C3015 H2986 0.950 . S
C3015 C3014 1.397 . S
C3015 C3016 1.334 . S
C3016 H2987 0.950 . S
C3016 C3015 1.334 . S
C3016 C3017 1.287 . S
C3017 C3016 1.287 . S
C3017 C3018 1.524 . S
C3017 H3020 0.999 . S
C3018 H2988 0.950 . S
C3018 C3017 1.524 . S
C3018 C3019 1.415 . S
C3019 H2989 0.950 . S
C3019 C3014 1.363 . S
C3019 C3018 1.415 . S
H3020 C3017 0.999 . S
H3021 C3002 0.913 . S
H3022 C3040 0.951 . S
H3023 C3042 0.951 . S
H3024 C3044 0.950 . S
H3025 C3045 0.950 . S
H3026 C3047 0.950 . S
H3027 C3050 0.950 . S
H3028 C3051 0.950 . S
H3029 C3053 0.950 . S
H3030 C3054 0.950 . S
H3031 C3055 0.951 . S
H3032 C3057 0.951 . S
H3033 C3059 0.950 . S
H3034 C3060 0.950 . S
H3035 C3062 0.950 . S
H3036 C3065 0.950 . S
H3037 C3066 0.950 . S
H3038 C3068 0.950 . S
H3039 C3069 0.950 . S
C3040 H3022 0.951 . S
C3040 C3041 1.366 . S
C3040 C3042 1.388 . S
C3041 C3040 1.366 . S
C3041 C3045 1.385 . S
C3042 H3023 0.951 . S
C3042 C3040 1.388 . S
C3042 C3043 1.366 . S
C3043 C3042 1.366 . S
C3043 C3044 1.414 . S
C3043 C3046 1.499 . S
C3044 H3024 0.950 . S
C3044 C3043 1.414 . S
C3044 C3045 1.374 . S
C3045 H3025 0.950 . S
C3045 C3041 1.385 . S
C3045 C3044 1.374 . S
C3046 C3043 1.499 . S
C3046 C3047 1.373 . S
C3046 C3048 1.389 . S
C3047 H3026 0.950 . S
C3047 C3046 1.373 . S
C3047 C3063 1.377 . S
C3048 C3046 1.389 . S
C3048 C3049 1.524 . S
C3048 C3062 1.377 . S
C3049 C3048 1.524 . S
C3049 C3050 1.397 . S
C3049 C3054 1.363 . S
C3050 H3027 0.950 . S
C3050 C3049 1.397 . S
C3050 C3051 1.334 . S
C3051 H3028 0.950 . S
C3051 C3050 1.334 . S
C3051 C3052 1.287 . S
C3052 C3051 1.287 . S
C3052 C3053 1.524 . S
C3052 H3071 0.913 . S
C3053 H3029 0.950 . S
C3053 C3052 1.524 . S
C3053 C3054 1.415 . S
C3054 H3030 0.950 . S
C3054 C3049 1.363 . S
C3054 C3053 1.415 . S
C3055 H3031 0.951 . S
C3055 C3056 1.366 . S
C3055 C3057 1.388 . S
C3056 C3055 1.366 . S
C3056 C3060 1.385 . S
C3057 H3032 0.951 . S
C3057 C3055 1.388 . S
C3057 C3058 1.366 . S
C3058 C3057 1.366 . S
C3058 C3059 1.414 . S
C3058 C3061 1.499 . S
C3059 H3033 0.950 . S
C3059 C3058 1.414 . S
C3059 C3060 1.374 . S
C3060 H3034 0.950 . S
C3060 C3056 1.385 . S
C3060 C3059 1.374 . S
C3061 C3058 1.499 . S
C3061 C3062 1.373 . S
C3061 C3063 1.389 . S
C3062 H3035 0.950 . S
C3062 C3048 1.377 . S
C3062 C3061 1.373 . S
C3063 C3047 1.377 . S
C3063 C3061 1.389 . S
C3063 C3064 1.524 . S
C3064 C3063 1.524 . S
C3064 C3065 1.397 . S
C3064 C3069 1.363 . S
C3065 H3036 0.950 . S
C3065 C3064 1.397 . S
C3065 C3066 1.334 . S
C3066 H3037 0.950 . S
C3066 C3065 1.334 . S
C3066 C3067 1.287 . S
C3067 C3066 1.287 . S
C3067 C3068 1.524 . S
C3067 H3070 0.999 . S
C3068 H3038 0.950 . S
C3068 C3067 1.524 . S
C3068 C3069 1.415 . S
C3069 H3039 0.950 . S
C3069 C3064 1.363 . S
C3069 C3068 1.415 . S
H3070 C3067 0.999 . S
H3071 C3052 0.913 . S
H3072 C3090 0.951 . S
H3073 C3092 0.951 . S
H3074 C3094 0.950 . S
H3075 C3095 0.950 . S
H3076 C3097 0.950 . S
H3077 C3100 0.950 . S
H3078 C3101 0.950 . S
H3079 C3103 0.950 . S
H3080 C3104 0.950 . S
H3081 C3105 0.951 . S
H3082 C3107 0.951 . S
H3083 C3109 0.950 . S
H3084 C3110 0.950 . S
H3085 C3112 0.950 . S
H3086 C3115 0.950 . S
H3087 C3116 0.950 . S
H3088 C3118 0.950 . S
H3089 C3119 0.950 . S
C3090 H3072 0.951 . S
C3090 C3091 1.366 . S
C3090 C3092 1.388 . S
C3091 C3090 1.366 . S
C3091 C3095 1.385 . S
C3092 H3073 0.951 . S
C3092 C3090 1.388 . S
C3092 C3093 1.366 . S
C3093 C3092 1.366 . S
C3093 C3094 1.414 . S
C3093 C3096 1.499 . S
C3094 H3074 0.950 . S
C3094 C3093 1.414 . S
C3094 C3095 1.374 . S
C3095 H3075 0.950 . S
C3095 C3091 1.385 . S
C3095 C3094 1.374 . S
C3096 C3093 1.499 . S
C3096 C3097 1.373 . S
C3096 C3098 1.389 . S
C3097 H3076 0.950 . S
C3097 C3096 1.373 . S
C3097 C3113 1.377 . S
C3098 C3096 1.389 . S
C3098 C3099 1.524 . S
C3098 C3112 1.377 . S
C3099 C3098 1.524 . S
C3099 C3100 1.397 . S
C3099 C3104 1.363 . S
C3100 H3077 0.950 . S
C3100 C3099 1.397 . S
C3100 C3101 1.334 . S
C3101 H3078 0.950 . S
C3101 C3100 1.334 . S
C3101 C3102 1.287 . S
C3102 C3101 1.287 . S
C3102 C3103 1.524 . S
C3102 H3121 0.913 . S
C3103 H3079 0.950 . S
C3103 C3102 1.524 . S
C3103 C3104 1.415 . S
C3104 H3080 0.950 . S
C3104 C3099 1.363 . S
C3104 C3103 1.415 . S
C3105 H3081 0.951 . S
C3105 C3106 1.366 . S
C3105 C3107 1.388 . S
C3106 C3105 1.366 . S
C3106 C3110 1.385 . S
C3107 H3082 0.951 . S
C3107 C3105 1.388 . S
C3107 C3108 1.366 . S
C3108 C3107 1.366 . S
C3108 C3109 1.414 . S
C3108 C3111 1.499 . S
C3109 H3083 0.950 . S
C3109 C3108 1.414 . S
C3109 C3110 1.374 . S
C3110 H3084 0.950 . S
C3110 C3106 1.385 . S
C3110 C3109 1.374 . S
C3111 C3108 1.499 . S
C3111 C3112 1.373 . S
C3111 C3113 1.389 . S
C3112 H3085 0.950 . S
C3112 C3098 1.377 . S
C3112 C3111 1.373 . S
C3113 C3097 1.377 . S
C3113 C3111 1.389 . S
C3113 C3114 1.524 . S
C3114 C3113 1.524 . S
C3114 C3115 1.397 . S
C3114 C3119 1.363 . S
C3115 H3086 0.950 . S
C3115 C3114 1.397 . S
C3115 C3116 1.334 . S
C3116 H3087 0.950 . S
C3116 C3115 1.334 . S
C3116 C3117 1.287 . S
C3117 C3116 1.287 . S
C3117 C3118 1.524 . S
C3117 H3120 0.999 . S
C3118 H3088 0.950 . S
C3118 C3117 1.524 . S
C3118 C3119 1.415 . S
C3119 H3089 0.950 . S
C3119 C3114 1.363 . S
C3119 C3118 1.415 . S
H3120 C3117 0.999 . S
H3121 C3102 0.913 . S
H3122 C3140 0.951 . S
H3123 C3142 0.951 . S
H3124 C3144 0.950 . S
H3125 C3145 0.950 . S
H3126 C3147 0.950 . S
H3127 C3150 0.950 . S
H3128 C3151 0.950 . S
H3129 C3153 0.950 . S
H3130 C3154 0.950 . S
H3131 C3155 0.932 1_556 S
H3132 C3157 0.951 . S
H3133 C3159 0.950 . S
H3134 C3160 0.950 . S
H3135 C3162 0.950 . S
H3136 C3165 0.950 . S
H3137 C3166 0.950 . S
H3138 C3168 0.950 . S
H3139 C3169 0.950 . S
C3140 H3122 0.951 . S
C3140 C3141 1.366 . S
C3140 C3142 1.388 . S
C3141 C3140 1.366 . S
C3141 C3145 1.385 . S
C3142 H3123 0.951 . S
C3142 C3140 1.388 . S
C3142 C3143 1.366 . S
C3143 C3142 1.366 . S
C3143 C3144 1.414 . S
C3143 C3146 1.499 . S
C3144 H3124 0.950 . S
C3144 C3143 1.414 . S
C3144 C3145 1.374 . S
C3145 H3125 0.950 . S
C3145 C3141 1.385 . S
C3145 C3144 1.374 . S
C3146 C3143 1.499 . S
C3146 C3147 1.373 . S
C3146 C3148 1.389 . S
C3147 H3126 0.950 . S
C3147 C3146 1.373 . S
C3147 C3163 1.377 . S
C3148 C3146 1.389 . S
C3148 C3149 1.524 . S
C3148 C3162 1.377 . S
C3149 C3148 1.524 . S
C3149 C3150 1.397 . S
C3149 C3154 1.363 . S
C3150 H3127 0.950 . S
C3150 C3149 1.397 . S
C3150 C3151 1.334 . S
C3151 H3128 0.950 . S
C3151 C3150 1.334 . S
C3151 C3152 1.287 . S
C3152 C3151 1.287 . S
C3152 C3153 1.524 . S
C3152 H3171 0.913 . S
C3153 H3129 0.950 . S
C3153 C3152 1.524 . S
C3153 C3154 1.415 . S
C3154 H3130 0.950 . S
C3154 C3149 1.363 . S
C3154 C3153 1.415 . S
C3155 H3131 0.932 1_554 S
C3155 C3156 1.366 . S
C3155 C3157 1.388 . S
C3156 C3155 1.366 . S
C3156 C3160 1.385 . S
C3157 H3132 0.951 . S
C3157 C3155 1.388 . S
C3157 C3158 1.366 . S
C3158 C3157 1.366 . S
C3158 C3159 1.414 . S
C3158 C3161 1.499 . S
C3159 H3133 0.950 . S
C3159 C3158 1.414 . S
C3159 C3160 1.374 . S
C3160 H3134 0.950 . S
C3160 C3156 1.385 . S
C3160 C3159 1.374 . S
C3161 C3158 1.499 . S
C3161 C3162 1.373 . S
C3161 C3163 1.389 . S
C3162 H3135 0.950 . S
C3162 C3148 1.377 . S
C3162 C3161 1.373 . S
C3163 C3147 1.377 . S
C3163 C3161 1.389 . S
C3163 C3164 1.524 . S
C3164 C3163 1.524 . S
C3164 C3165 1.397 . S
C3164 C3169 1.363 . S
C3165 H3136 0.950 . S
C3165 C3164 1.397 . S
C3165 C3166 1.334 . S
C3166 H3137 0.950 . S
C3166 C3165 1.334 . S
C3166 C3167 1.287 . S
C3167 C3166 1.287 . S
C3167 C3168 1.524 . S
C3167 H3170 0.999 . S
C3168 H3138 0.950 . S
C3168 C3167 1.524 . S
C3168 C3169 1.415 . S
C3169 H3139 0.950 . S
C3169 C3164 1.363 . S
C3169 C3168 1.415 . S
H3170 C3167 0.999 . S
H3171 C3152 0.913 . S
H3172 C3190 0.951 . S
H3173 C3192 0.951 . S
H3174 C3194 0.950 . S
H3175 C3195 0.950 . S
H3176 C3197 0.950 . S
H3177 C3200 0.950 . S
H3178 C3201 0.950 . S
H3179 C3203 0.950 . S
H3180 C3204 0.950 . S
H3181 C3205 0.951 . S
H3182 C3207 0.951 . S
H3183 C3209 0.950 . S
H3184 C3210 0.902 1_556 S
H3185 C3212 0.950 . S
H3186 C3215 0.950 . S
H3187 C3216 0.950 . S
H3188 C3218 0.950 . S
H3189 C3219 0.950 . S
C3190 H3172 0.951 . S
C3190 C3191 1.366 . S
C3190 C3192 1.388 . S
C3191 C3190 1.366 . S
C3191 C3195 1.385 . S
C3192 H3173 0.951 . S
C3192 C3190 1.388 . S
C3192 C3193 1.366 . S
C3193 C3192 1.366 . S
C3193 C3194 1.414 . S
C3193 C3196 1.499 . S
C3194 H3174 0.950 . S
C3194 C3193 1.414 . S
C3194 C3195 1.374 . S
C3195 H3175 0.950 . S
C3195 C3191 1.385 . S
C3195 C3194 1.374 . S
C3196 C3193 1.499 . S
C3196 C3197 1.373 . S
C3196 C3198 1.389 . S
C3197 H3176 0.950 . S
C3197 C3196 1.373 . S
C3197 C3213 1.377 . S
C3198 C3196 1.389 . S
C3198 C3199 1.524 . S
C3198 C3212 1.377 . S
C3199 C3198 1.524 . S
C3199 C3200 1.397 . S
C3199 C3204 1.363 . S
C3200 H3177 0.950 . S
C3200 C3199 1.397 . S
C3200 C3201 1.334 . S
C3201 H3178 0.950 . S
C3201 C3200 1.334 . S
C3201 C3202 1.287 . S
C3202 C3201 1.287 . S
C3202 C3203 1.524 . S
C3202 H3221 0.913 . S
C3203 H3179 0.950 . S
C3203 C3202 1.524 . S
C3203 C3204 1.415 . S
C3204 H3180 0.950 . S
C3204 C3199 1.363 . S
C3204 C3203 1.415 . S
C3205 H3181 0.951 . S
C3205 C3206 1.366 . S
C3205 C3207 1.388 . S
C3206 C3205 1.366 . S
C3206 C3210 1.385 . S
C3207 H3182 0.951 . S
C3207 C3205 1.388 . S
C3207 C3208 1.366 . S
C3208 C3207 1.366 . S
C3208 C3209 1.414 . S
C3208 C3211 1.499 . S
C3209 H3183 0.950 . S
C3209 C3208 1.414 . S
C3209 C3210 1.374 . S
C3210 H3184 0.902 1_554 S
C3210 C3206 1.385 . S
C3210 C3209 1.374 . S
C3211 C3208 1.499 . S
C3211 C3212 1.373 . S
C3211 C3213 1.389 . S
C3212 H3185 0.950 . S
C3212 C3198 1.377 . S
C3212 C3211 1.373 . S
C3213 C3197 1.377 . S
C3213 C3211 1.389 . S
C3213 C3214 1.524 . S
C3214 C3213 1.524 . S
C3214 C3215 1.397 . S
C3214 C3219 1.363 . S
C3215 H3186 0.950 . S
C3215 C3214 1.397 . S
C3215 C3216 1.334 . S
C3216 H3187 0.950 . S
C3216 C3215 1.334 . S
C3216 C3217 1.287 . S
C3217 C3216 1.287 . S
C3217 C3218 1.524 . S
C3217 H3220 0.999 . S
C3218 H3188 0.950 . S
C3218 C3217 1.524 . S
C3218 C3219 1.415 . S
C3219 H3189 0.950 . S
C3219 C3214 1.363 . S
C3219 C3218 1.415 . S
H3220 C3217 0.999 . S
H3221 C3202 0.913 . S
H3222 C3240 0.951 . S
H3223 C3242 0.951 . S
H3224 C3244 0.950 . S
H3225 C3245 0.950 . S
H3226 C3247 0.950 . S
H3227 C3250 0.950 . S
H3228 C3251 0.950 . S
H3229 C3253 0.950 . S
H3230 C3254 0.950 . S
H3231 C3255 0.951 . S
H3232 C3257 0.951 . S
H3233 C3259 0.950 . S
H3234 C3260 0.950 . S
H3235 C3262 0.950 . S
H3236 C3265 0.950 . S
H3237 C3266 0.950 . S
H3238 C3268 0.950 . S
H3239 C3269 0.950 . S
C3240 H3222 0.951 . S
C3240 C3241 1.366 . S
C3240 C3242 1.388 . S
C3241 C3240 1.366 . S
C3241 C3245 1.385 . S
C3242 H3223 0.951 . S
C3242 C3240 1.388 . S
C3242 C3243 1.366 . S
C3243 C3242 1.366 . S
C3243 C3244 1.414 . S
C3243 C3246 1.499 . S
C3244 H3224 0.950 . S
C3244 C3243 1.414 . S
C3244 C3245 1.374 . S
C3245 H3225 0.950 . S
C3245 C3241 1.385 . S
C3245 C3244 1.374 . S
C3246 C3243 1.499 . S
C3246 C3247 1.373 . S
C3246 C3248 1.389 . S
C3247 H3226 0.950 . S
C3247 C3246 1.373 . S
C3247 C3263 1.377 . S
C3248 C3246 1.389 . S
C3248 C3249 1.524 . S
C3248 C3262 1.377 . S
C3249 C3248 1.524 . S
C3249 C3250 1.397 . S
C3249 C3254 1.363 . S
C3250 H3227 0.950 . S
C3250 C3249 1.397 . S
C3250 C3251 1.334 . S
C3251 H3228 0.950 . S
C3251 C3250 1.334 . S
C3251 C3252 1.287 . S
C3252 C3251 1.287 . S
C3252 C3253 1.524 . S
C3252 H3271 0.913 . S
C3253 H3229 0.950 . S
C3253 C3252 1.524 . S
C3253 C3254 1.415 . S
C3254 H3230 0.950 . S
C3254 C3249 1.363 . S
C3254 C3253 1.415 . S
C3255 H3231 0.951 . S
C3255 C3256 1.366 . S
C3255 C3257 1.388 . S
C3256 C3255 1.366 . S
C3256 C3260 1.385 . S
C3257 H3232 0.951 . S
C3257 C3255 1.388 . S
C3257 C3258 1.366 . S
C3258 C3257 1.366 . S
C3258 C3259 1.414 . S
C3258 C3261 1.499 . S
C3259 H3233 0.950 . S
C3259 C3258 1.414 . S
C3259 C3260 1.374 . S
C3260 H3234 0.950 . S
C3260 C3256 1.385 . S
C3260 C3259 1.374 . S
C3261 C3258 1.499 . S
C3261 C3262 1.373 . S
C3261 C3263 1.389 . S
C3262 H3235 0.950 . S
C3262 C3248 1.377 . S
C3262 C3261 1.373 . S
C3263 C3247 1.377 . S
C3263 C3261 1.389 . S
C3263 C3264 1.524 . S
C3264 C3263 1.524 . S
C3264 C3265 1.397 . S
C3264 C3269 1.363 . S
C3265 H3236 0.950 . S
C3265 C3264 1.397 . S
C3265 C3266 1.334 . S
C3266 H3237 0.950 . S
C3266 C3265 1.334 . S
C3266 C3267 1.287 . S
C3267 C3266 1.287 . S
C3267 C3268 1.524 . S
C3267 H3270 0.999 . S
C3268 H3238 0.950 . S
C3268 C3267 1.524 . S
C3268 C3269 1.415 . S
C3269 H3239 0.950 . S
C3269 C3264 1.363 . S
C3269 C3268 1.415 . S
H3270 C3267 0.999 . S
H3271 C3252 0.913 . S
H3272 C3290 0.951 . S
H3273 C3292 0.951 . S
H3274 C3294 0.950 . S
H3275 C3295 0.950 . S
H3276 C3297 0.950 . S
H3277 C3300 0.950 . S
H3278 C3301 0.950 . S
H3279 C3303 0.950 . S
H3280 C3304 0.950 . S
H3281 C3305 0.990 . S
H3282 C3307 0.951 . S
H3283 C3309 0.950 . S
H3284 C3310 0.950 . S
H3285 C3312 0.950 . S
H3286 C3315 0.950 . S
H3287 C3316 0.950 . S
H3288 C3318 0.950 . S
H3289 C3319 0.950 . S
C3290 H3272 0.951 . S
C3290 C3291 1.366 . S
C3290 C3292 1.388 . S
C3291 C3290 1.366 . S
C3291 C3295 1.385 . S
C3292 H3273 0.951 . S
C3292 C3290 1.388 . S
C3292 C3293 1.366 . S
C3293 C3292 1.366 . S
C3293 C3294 1.414 . S
C3293 C3296 1.499 . S
C3294 H3274 0.950 . S
C3294 C3293 1.414 . S
C3294 C3295 1.374 . S
C3295 H3275 0.950 . S
C3295 C3291 1.385 . S
C3295 C3294 1.374 . S
C3296 C3293 1.499 . S
C3296 C3297 1.373 . S
C3296 C3298 1.389 . S
C3297 H3276 0.950 . S
C3297 C3296 1.373 . S
C3297 C3313 1.377 . S
C3298 C3296 1.389 . S
C3298 C3299 1.524 . S
C3298 C3312 1.377 . S
C3299 C3298 1.524 . S
C3299 C3300 1.397 . S
C3299 C3304 1.363 . S
C3300 H3277 0.950 . S
C3300 C3299 1.397 . S
C3300 C3301 1.334 . S
C3301 H3278 0.950 . S
C3301 C3300 1.334 . S
C3301 C3302 1.287 . S
C3302 C3301 1.287 . S
C3302 C3303 1.524 . S
C3302 H3321 0.913 . S
C3303 H3279 0.950 . S
C3303 C3302 1.524 . S
C3303 C3304 1.415 . S
C3304 H3280 0.950 . S
C3304 C3299 1.363 . S
C3304 C3303 1.415 . S
C3305 H3281 0.990 . S
C3305 C3306 1.366 . S
C3305 C3307 1.388 . S
C3306 C3305 1.366 . S
C3306 C3310 1.385 . S
C3307 H3282 0.951 . S
C3307 C3305 1.388 . S
C3307 C3308 1.366 . S
C3308 C3307 1.366 . S
C3308 C3309 1.414 . S
C3308 C3311 1.499 . S
C3309 H3283 0.950 . S
C3309 C3308 1.414 . S
C3309 C3310 1.374 . S
C3310 H3284 0.950 . S
C3310 C3306 1.385 . S
C3310 C3309 1.374 . S
C3311 C3308 1.499 . S
C3311 C3312 1.373 . S
C3311 C3313 1.389 . S
C3312 H3285 0.950 . S
C3312 C3298 1.377 . S
C3312 C3311 1.373 . S
C3313 C3297 1.377 . S
C3313 C3311 1.389 . S
C3313 C3314 1.524 . S
C3314 C3313 1.524 . S
C3314 C3315 1.397 . S
C3314 C3319 1.363 . S
C3315 H3286 0.950 . S
C3315 C3314 1.397 . S
C3315 C3316 1.334 . S
C3316 H3287 0.950 . S
C3316 C3315 1.334 . S
C3316 C3317 1.287 . S
C3317 C3316 1.287 . S
C3317 C3318 1.524 . S
C3317 H3320 0.999 . S
C3318 H3288 0.950 . S
C3318 C3317 1.524 . S
C3318 C3319 1.415 . S
C3319 H3289 0.950 . S
C3319 C3314 1.363 . S
C3319 C3318 1.415 . S
H3320 C3317 0.999 . S
H3321 C3302 0.913 . S
H3322 C3340 0.951 . S
H3323 C3342 0.951 . S
H3324 C3344 0.950 . S
H3325 C3345 0.950 . S
H3326 C3347 0.950 . S
H3327 C3350 0.950 . S
H3328 C3351 0.950 . S
H3329 C3353 0.950 . S
H3330 C3354 0.950 . S
H3331 C3355 0.951 . S
H3332 C3357 0.951 . S
H3333 C3359 0.950 . S
H3334 C3360 0.905 1_554 S
H3335 C3362 0.950 . S
H3336 C3365 0.950 . S
H3337 C3366 0.950 . S
H3338 C3368 0.950 . S
H3339 C3369 0.950 . S
C3340 H3322 0.951 . S
C3340 C3341 1.366 . S
C3340 C3342 1.388 . S
C3341 C3340 1.366 . S
C3341 C3345 1.385 . S
C3342 H3323 0.951 . S
C3342 C3340 1.388 . S
C3342 C3343 1.366 . S
C3343 C3342 1.366 . S
C3343 C3344 1.414 . S
C3343 C3346 1.499 . S
C3344 H3324 0.950 . S
C3344 C3343 1.414 . S
C3344 C3345 1.374 . S
C3345 H3325 0.950 . S
C3345 C3341 1.385 . S
C3345 C3344 1.374 . S
C3346 C3343 1.499 . S
C3346 C3347 1.373 . S
C3346 C3348 1.389 . S
C3347 H3326 0.950 . S
C3347 C3346 1.373 . S
C3347 C3363 1.377 . S
C3348 C3346 1.389 . S
C3348 C3349 1.524 . S
C3348 C3362 1.377 . S
C3349 C3348 1.524 . S
C3349 C3350 1.397 . S
C3349 C3354 1.363 . S
C3350 H3327 0.950 . S
C3350 C3349 1.397 . S
C3350 C3351 1.334 . S
C3351 H3328 0.950 . S
C3351 C3350 1.334 . S
C3351 C3352 1.287 . S
C3352 C3351 1.287 . S
C3352 C3353 1.524 . S
C3352 H3371 0.913 . S
C3353 H3329 0.950 . S
C3353 C3352 1.524 . S
C3353 C3354 1.415 . S
C3354 H3330 0.950 . S
C3354 C3349 1.363 . S
C3354 C3353 1.415 . S
C3355 H3331 0.951 . S
C3355 C3356 1.366 . S
C3355 C3357 1.388 . S
C3356 C3355 1.366 . S
C3356 C3360 1.385 . S
C3357 H3332 0.951 . S
C3357 C3355 1.388 . S
C3357 C3358 1.366 . S
C3358 C3357 1.366 . S
C3358 C3359 1.414 . S
C3358 C3361 1.499 . S
C3359 H3333 0.950 . S
C3359 C3358 1.414 . S
C3359 C3360 1.374 . S
C3360 H3334 0.905 1_556 S
C3360 C3356 1.385 . S
C3360 C3359 1.374 . S
C3361 C3358 1.499 . S
C3361 C3362 1.373 . S
C3361 C3363 1.389 . S
C3362 H3335 0.950 . S
C3362 C3348 1.377 . S
C3362 C3361 1.373 . S
C3363 C3347 1.377 . S
C3363 C3361 1.389 . S
C3363 C3364 1.524 . S
C3364 C3363 1.524 . S
C3364 C3365 1.397 . S
C3364 C3369 1.363 . S
C3365 H3336 0.950 . S
C3365 C3364 1.397 . S
C3365 C3366 1.334 . S
C3366 H3337 0.950 . S
C3366 C3365 1.334 . S
C3366 C3367 1.287 . S
C3367 C3366 1.287 . S
C3367 C3368 1.524 . S
C3367 H3370 0.999 . S
C3368 H3338 0.950 . S
C3368 C3367 1.524 . S
C3368 C3369 1.415 . S
C3369 H3339 0.950 . S
C3369 C3364 1.363 . S
C3369 C3368 1.415 . S
H3370 C3367 0.999 . S
H3371 C3352 0.913 . S
H3372 C3390 0.951 . S
H3373 C3392 0.951 . S
H3374 C3394 0.950 . S
H3375 C3395 0.938 1_554 S
H3376 C3397 0.950 . S
H3377 C3400 0.950 . S
H3378 C3401 0.950 . S
H3379 C3403 0.950 . S
H3380 C3404 0.950 . S
H3381 C3405 0.951 . S
H3382 C3407 0.951 . S
H3383 C3409 0.950 . S
H3384 C3410 0.950 . S
H3385 C3412 0.950 . S
H3386 C3415 0.950 . S
H3387 C3416 0.950 . S
H3388 C3418 0.950 . S
H3389 C3419 0.950 . S
C3390 H3372 0.951 . S
C3390 C3391 1.366 . S
C3390 C3392 1.388 . S
C3391 C3390 1.366 . S
C3391 C3395 1.385 . S
C3392 H3373 0.951 . S
C3392 C3390 1.388 . S
C3392 C3393 1.366 . S
C3393 C3392 1.366 . S
C3393 C3394 1.414 . S
C3393 C3396 1.499 . S
C3394 H3374 0.950 . S
C3394 C3393 1.414 . S
C3394 C3395 1.374 . S
C3395 H3375 0.938 1_556 S
C3395 C3391 1.385 . S
C3395 C3394 1.374 . S
C3396 C3393 1.499 . S
C3396 C3397 1.373 . S
C3396 C3398 1.389 . S
C3397 H3376 0.950 . S
C3397 C3396 1.373 . S
C3397 C3413 1.377 . S
C3398 C3396 1.389 . S
C3398 C3399 1.524 . S
C3398 C3412 1.377 . S
C3399 C3398 1.524 . S
C3399 C3400 1.397 . S
C3399 C3404 1.363 . S
C3400 H3377 0.950 . S
C3400 C3399 1.397 . S
C3400 C3401 1.334 . S
C3401 H3378 0.950 . S
C3401 C3400 1.334 . S
C3401 C3402 1.287 . S
C3402 C3401 1.287 . S
C3402 C3403 1.524 . S
C3402 H3421 0.913 . S
C3403 H3379 0.950 . S
C3403 C3402 1.524 . S
C3403 C3404 1.415 . S
C3404 H3380 0.950 . S
C3404 C3399 1.363 . S
C3404 C3403 1.415 . S
C3405 H3381 0.951 . S
C3405 C3406 1.366 . S
C3405 C3407 1.388 . S
C3406 C3405 1.366 . S
C3406 C3410 1.385 . S
C3407 H3382 0.951 . S
C3407 C3405 1.388 . S
C3407 C3408 1.366 . S
C3408 C3407 1.366 . S
C3408 C3409 1.414 . S
C3408 C3411 1.499 . S
C3409 H3383 0.950 . S
C3409 C3408 1.414 . S
C3409 C3410 1.374 . S
C3410 H3384 0.950 . S
C3410 C3406 1.385 . S
C3410 C3409 1.374 . S
C3411 C3408 1.499 . S
C3411 C3412 1.373 . S
C3411 C3413 1.389 . S
C3412 H3385 0.950 . S
C3412 C3398 1.377 . S
C3412 C3411 1.373 . S
C3413 C3397 1.377 . S
C3413 C3411 1.389 . S
C3413 C3414 1.524 . S
C3414 C3413 1.524 . S
C3414 C3415 1.397 . S
C3414 C3419 1.363 . S
C3415 H3386 0.950 . S
C3415 C3414 1.397 . S
C3415 C3416 1.334 . S
C3416 H3387 0.950 . S
C3416 C3415 1.334 . S
C3416 C3417 1.287 . S
C3417 C3416 1.287 . S
C3417 C3418 1.524 . S
C3417 H3420 0.999 . S
C3418 H3388 0.950 . S
C3418 C3417 1.524 . S
C3418 C3419 1.415 . S
C3419 H3389 0.950 . S
C3419 C3414 1.363 . S
C3419 C3418 1.415 . S
H3420 C3417 0.999 . S
H3421 C3402 0.913 . S
H3422 C3440 0.951 . S
H3423 C3442 0.951 . S
H3424 C3444 0.950 . S
H3425 C3445 0.950 . S
H3426 C3447 0.950 . S
H3427 C3450 0.950 . S
H3428 C3451 0.950 . S
H3429 C3453 0.950 . S
H3430 C3454 0.950 . S
H3431 C3455 0.951 . S
H3432 C3457 0.951 . S
H3433 C3459 0.950 . S
H3434 C3460 0.950 . S
H3435 C3462 0.950 . S
H3436 C3465 0.950 . S
H3437 C3466 0.950 . S
H3438 C3468 0.950 . S
H3439 C3469 0.950 . S
C3440 H3422 0.951 . S
C3440 C3441 1.366 . S
C3440 C3442 1.388 . S
C3441 C3440 1.366 . S
C3441 C3445 1.385 . S
C3442 H3423 0.951 . S
C3442 C3440 1.388 . S
C3442 C3443 1.366 . S
C3443 C3442 1.366 . S
C3443 C3444 1.414 . S
C3443 C3446 1.499 . S
C3444 H3424 0.950 . S
C3444 C3443 1.414 . S
C3444 C3445 1.374 . S
C3445 H3425 0.950 . S
C3445 C3441 1.385 . S
C3445 C3444 1.374 . S
C3446 C3443 1.499 . S
C3446 C3447 1.373 . S
C3446 C3448 1.389 . S
C3447 H3426 0.950 . S
C3447 C3446 1.373 . S
C3447 C3463 1.377 . S
C3448 C3446 1.389 . S
C3448 C3449 1.524 . S
C3448 C3462 1.377 . S
C3449 C3448 1.524 . S
C3449 C3450 1.397 . S
C3449 C3454 1.363 . S
C3450 H3427 0.950 . S
C3450 C3449 1.397 . S
C3450 C3451 1.334 . S
C3451 H3428 0.950 . S
C3451 C3450 1.334 . S
C3451 C3452 1.287 . S
C3452 C3451 1.287 . S
C3452 C3453 1.524 . S
C3452 H3471 0.913 . S
C3453 H3429 0.950 . S
C3453 C3452 1.524 . S
C3453 C3454 1.415 . S
C3454 H3430 0.950 . S
C3454 C3449 1.363 . S
C3454 C3453 1.415 . S
C3455 H3431 0.951 . S
C3455 C3456 1.366 . S
C3455 C3457 1.388 . S
C3456 C3455 1.366 . S
C3456 C3460 1.385 . S
C3457 H3432 0.951 . S
C3457 C3455 1.388 . S
C3457 C3458 1.366 . S
C3458 C3457 1.366 . S
C3458 C3459 1.414 . S
C3458 C3461 1.499 . S
C3459 H3433 0.950 . S
C3459 C3458 1.414 . S
C3459 C3460 1.374 . S
C3460 H3434 0.950 . S
C3460 C3456 1.385 . S
C3460 C3459 1.374 . S
C3461 C3458 1.499 . S
C3461 C3462 1.373 . S
C3461 C3463 1.389 . S
C3462 H3435 0.950 . S
C3462 C3448 1.377 . S
C3462 C3461 1.373 . S
C3463 C3447 1.377 . S
C3463 C3461 1.389 . S
C3463 C3464 1.524 . S
C3464 C3463 1.524 . S
C3464 C3465 1.397 . S
C3464 C3469 1.363 . S
C3465 H3436 0.950 . S
C3465 C3464 1.397 . S
C3465 C3466 1.334 . S
C3466 H3437 0.950 . S
C3466 C3465 1.334 . S
C3466 C3467 1.287 . S
C3467 C3466 1.287 . S
C3467 C3468 1.524 . S
C3467 H3470 0.999 . S
C3468 H3438 0.950 . S
C3468 C3467 1.524 . S
C3468 C3469 1.415 . S
C3469 H3439 0.950 . S
C3469 C3464 1.363 . S
C3469 C3468 1.415 . S
H3470 C3467 0.999 . S
H3471 C3452 0.913 . S
H3472 C3490 0.951 . S
H3473 C3492 0.951 . S
H3474 C3494 0.950 . S
H3475 C3495 0.950 . S
H3476 C3497 0.950 . S
H3477 C3500 0.950 . S
H3478 C3501 0.950 . S
H3479 C3503 0.950 . S
H3480 C3504 0.950 . S
H3481 C3505 0.957 1_655 S
H3482 C3507 0.951 . S
H3483 C3509 0.950 . S
H3484 C3510 0.950 . S
H3485 C3512 0.950 . S
H3486 C3515 0.950 . S
H3487 C3516 0.950 . S
H3488 C3518 0.950 . S
H3489 C3519 0.950 . S
C3490 H3472 0.951 . S
C3490 C3491 1.366 . S
C3490 C3492 1.388 . S
C3491 C3490 1.366 . S
C3491 C3495 1.385 . S
C3492 H3473 0.951 . S
C3492 C3490 1.388 . S
C3492 C3493 1.366 . S
C3493 C3492 1.366 . S
C3493 C3494 1.414 . S
C3493 C3496 1.499 . S
C3494 H3474 0.950 . S
C3494 C3493 1.414 . S
C3494 C3495 1.374 . S
C3495 H3475 0.950 . S
C3495 C3491 1.385 . S
C3495 C3494 1.374 . S
C3496 C3493 1.499 . S
C3496 C3497 1.373 . S
C3496 C3498 1.389 . S
C3497 H3476 0.950 . S
C3497 C3496 1.373 . S
C3497 C3513 1.377 . S
C3498 C3496 1.389 . S
C3498 C3499 1.524 . S
C3498 C3512 1.377 . S
C3499 C3498 1.524 . S
C3499 C3500 1.397 . S
C3499 C3504 1.363 . S
C3500 H3477 0.950 . S
C3500 C3499 1.397 . S
C3500 C3501 1.334 . S
C3501 H3478 0.950 . S
C3501 C3500 1.334 . S
C3501 C3502 1.287 . S
C3502 C3501 1.287 . S
C3502 C3503 1.524 . S
C3502 H3521 0.913 . S
C3503 H3479 0.950 . S
C3503 C3502 1.524 . S
C3503 C3504 1.415 . S
C3504 H3480 0.950 . S
C3504 C3499 1.363 . S
C3504 C3503 1.415 . S
C3505 H3481 0.957 1_455 S
C3505 C3506 1.366 . S
C3505 C3507 1.388 . S
C3506 C3505 1.366 . S
C3506 C3510 1.385 . S
C3507 H3482 0.951 . S
C3507 C3505 1.388 . S
C3507 C3508 1.366 . S
C3508 C3507 1.366 . S
C3508 C3509 1.414 . S
C3508 C3511 1.499 . S
C3509 H3483 0.950 . S
C3509 C3508 1.414 . S
C3509 C3510 1.374 . S
C3510 H3484 0.950 . S
C3510 C3506 1.385 . S
C3510 C3509 1.374 . S
C3511 C3508 1.499 . S
C3511 C3512 1.373 . S
C3511 C3513 1.389 . S
C3512 H3485 0.950 . S
C3512 C3498 1.377 . S
C3512 C3511 1.373 . S
C3513 C3497 1.377 . S
C3513 C3511 1.389 . S
C3513 C3514 1.524 . S
C3514 C3513 1.524 . S
C3514 C3515 1.397 . S
C3514 C3519 1.363 . S
C3515 H3486 0.950 . S
C3515 C3514 1.397 . S
C3515 C3516 1.334 . S
C3516 H3487 0.950 . S
C3516 C3515 1.334 . S
C3516 C3517 1.287 . S
C3517 C3516 1.287 . S
C3517 C3518 1.524 . S
C3517 H3520 0.999 . S
C3518 H3488 0.950 . S
C3518 C3517 1.524 . S
C3518 C3519 1.415 . S
C3519 H3489 0.950 . S
C3519 C3514 1.363 . S
C3519 C3518 1.415 . S
H3520 C3517 0.999 . S
H3521 C3502 0.913 . S
H3522 C3540 0.951 . S
H3523 C3542 0.951 . S
H3524 C3544 0.950 . S
H3525 C3545 0.950 . S
H3526 C3547 0.950 . S
H3527 C3550 0.950 . S
H3528 C3551 0.950 . S
H3529 C3553 0.950 . S
H3530 C3554 0.950 . S
H3531 C3555 0.951 . S
H3532 C3557 0.951 . S
H3533 C3559 0.950 . S
H3534 C3560 0.950 . S
H3535 C3562 0.950 . S
H3536 C3565 0.950 . S
H3537 C3566 0.950 . S
H3538 C3568 0.950 . S
H3539 C3569 0.950 . S
C3540 H3522 0.951 . S
C3540 C3541 1.366 . S
C3540 C3542 1.388 . S
C3541 C3540 1.366 . S
C3541 C3545 1.385 . S
C3542 H3523 0.951 . S
C3542 C3540 1.388 . S
C3542 C3543 1.366 . S
C3543 C3542 1.366 . S
C3543 C3544 1.414 . S
C3543 C3546 1.499 . S
C3544 H3524 0.950 . S
C3544 C3543 1.414 . S
C3544 C3545 1.374 . S
C3545 H3525 0.950 . S
C3545 C3541 1.385 . S
C3545 C3544 1.374 . S
C3546 C3543 1.499 . S
C3546 C3547 1.373 . S
C3546 C3548 1.389 . S
C3547 H3526 0.950 . S
C3547 C3546 1.373 . S
C3547 C3563 1.377 . S
C3548 C3546 1.389 . S
C3548 C3549 1.524 . S
C3548 C3562 1.377 . S
C3549 C3548 1.524 . S
C3549 C3550 1.397 . S
C3549 C3554 1.363 . S
C3550 H3527 0.950 . S
C3550 C3549 1.397 . S
C3550 C3551 1.334 . S
C3551 H3528 0.950 . S
C3551 C3550 1.334 . S
C3551 C3552 1.287 . S
C3552 C3551 1.287 . S
C3552 C3553 1.524 . S
C3552 H3571 0.913 . S
C3553 H3529 0.950 . S
C3553 C3552 1.524 . S
C3553 C3554 1.415 . S
C3554 H3530 0.950 . S
C3554 C3549 1.363 . S
C3554 C3553 1.415 . S
C3555 H3531 0.951 . S
C3555 C3556 1.366 . S
C3555 C3557 1.388 . S
C3556 C3555 1.366 . S
C3556 C3560 1.385 . S
C3557 H3532 0.951 . S
C3557 C3555 1.388 . S
C3557 C3558 1.366 . S
C3558 C3557 1.366 . S
C3558 C3559 1.414 . S
C3558 C3561 1.499 . S
C3559 H3533 0.950 . S
C3559 C3558 1.414 . S
C3559 C3560 1.374 . S
C3560 H3534 0.950 . S
C3560 C3556 1.385 . S
C3560 C3559 1.374 . S
C3561 C3558 1.499 . S
C3561 C3562 1.373 . S
C3561 C3563 1.389 . S
C3562 H3535 0.950 . S
C3562 C3548 1.377 . S
C3562 C3561 1.373 . S
C3563 C3547 1.377 . S
C3563 C3561 1.389 . S
C3563 C3564 1.524 . S
C3564 C3563 1.524 . S
C3564 C3565 1.397 . S
C3564 C3569 1.363 . S
C3565 H3536 0.950 . S
C3565 C3564 1.397 . S
C3565 C3566 1.334 . S
C3566 H3537 0.950 . S
C3566 C3565 1.334 . S
C3566 C3567 1.287 . S
C3567 C3566 1.287 . S
C3567 C3568 1.524 . S
C3567 H3570 0.999 . S
C3568 H3538 0.950 . S
C3568 C3567 1.524 . S
C3568 C3569 1.415 . S
C3569 H3539 0.950 . S
C3569 C3564 1.363 . S
C3569 C3568 1.415 . S
H3570 C3567 0.999 . S
H3571 C3552 0.913 . S
H3572 C3590 0.951 . S
H3573 C3592 0.951 . S
H3574 C3594 0.950 . S
H3575 C3595 0.950 . S
H3576 C3597 0.950 . S
H3577 C3600 0.950 . S
H3578 C3601 0.950 . S
H3579 C3603 0.950 . S
H3580 C3604 0.950 . S
H3581 C3605 0.951 . S
H3582 C3607 0.951 . S
H3583 C3609 0.950 . S
H3584 C3610 0.935 1_455 S
H3585 C3612 0.950 . S
H3586 C3615 0.950 . S
H3587 C3616 0.950 . S
H3588 C3618 0.950 . S
H3589 C3619 0.950 . S
C3590 H3572 0.951 . S
C3590 C3591 1.366 . S
C3590 C3592 1.388 . S
C3591 C3590 1.366 . S
C3591 C3595 1.385 . S
C3592 H3573 0.951 . S
C3592 C3590 1.388 . S
C3592 C3593 1.366 . S
C3593 C3592 1.366 . S
C3593 C3594 1.414 . S
C3593 C3596 1.499 . S
C3594 H3574 0.950 . S
C3594 C3593 1.414 . S
C3594 C3595 1.374 . S
C3595 H3575 0.950 . S
C3595 C3591 1.385 . S
C3595 C3594 1.374 . S
C3596 C3593 1.499 . S
C3596 C3597 1.373 . S
C3596 C3598 1.389 . S
C3597 H3576 0.950 . S
C3597 C3596 1.373 . S
C3597 C3613 1.377 . S
C3598 C3596 1.389 . S
C3598 C3599 1.524 . S
C3598 C3612 1.377 . S
C3599 C3598 1.524 . S
C3599 C3600 1.397 . S
C3599 C3604 1.363 . S
C3600 H3577 0.950 . S
C3600 C3599 1.397 . S
C3600 C3601 1.334 . S
C3601 H3578 0.950 . S
C3601 C3600 1.334 . S
C3601 C3602 1.287 . S
C3602 C3601 1.287 . S
C3602 C3603 1.524 . S
C3602 H3621 0.913 . S
C3603 H3579 0.950 . S
C3603 C3602 1.524 . S
C3603 C3604 1.415 . S
C3604 H3580 0.950 . S
C3604 C3599 1.363 . S
C3604 C3603 1.415 . S
C3605 H3581 0.951 . S
C3605 C3606 1.366 . S
C3605 C3607 1.388 . S
C3606 C3605 1.366 . S
C3606 C3610 1.385 . S
C3607 H3582 0.951 . S
C3607 C3605 1.388 . S
C3607 C3608 1.366 . S
C3608 C3607 1.366 . S
C3608 C3609 1.414 . S
C3608 C3611 1.499 . S
C3609 H3583 0.950 . S
C3609 C3608 1.414 . S
C3609 C3610 1.374 . S
C3610 H3584 0.935 1_655 S
C3610 C3606 1.385 . S
C3610 C3609 1.374 . S
C3611 C3608 1.499 . S
C3611 C3612 1.373 . S
C3611 C3613 1.389 . S
C3612 H3585 0.950 . S
C3612 C3598 1.377 . S
C3612 C3611 1.373 . S
C3613 C3597 1.377 . S
C3613 C3611 1.389 . S
C3613 C3614 1.524 . S
C3614 C3613 1.524 . S
C3614 C3615 1.397 . S
C3614 C3619 1.363 . S
C3615 H3586 0.950 . S
C3615 C3614 1.397 . S
C3615 C3616 1.334 . S
C3616 H3587 0.950 . S
C3616 C3615 1.334 . S
C3616 C3617 1.287 . S
C3617 C3616 1.287 . S
C3617 C3618 1.524 . S
C3617 H3620 0.999 . S
C3618 H3588 0.950 . S
C3618 C3617 1.524 . S
C3618 C3619 1.415 . S
C3619 H3589 0.950 . S
C3619 C3614 1.363 . S
C3619 C3618 1.415 . S
H3620 C3617 0.999 . S
H3621 C3602 0.913 . S
H3622 C3640 0.951 . S
H3623 C3642 0.951 . S
H3624 C3644 0.950 . S
H3625 C3645 0.935 1_545 S
H3626 C3647 0.950 . S
H3627 C3650 0.950 . S
H3628 C3651 0.950 . S
H3629 C3653 0.950 . S
H3630 C3654 0.950 . S
H3631 C3655 0.951 . S
H3632 C3657 0.951 . S
H3633 C3659 0.950 . S
H3634 C3660 0.950 . S
H3635 C3662 0.950 . S
H3636 C3665 0.950 . S
H3637 C3666 0.950 . S
H3638 C3668 0.950 . S
H3639 C3669 0.950 . S
C3640 H3622 0.951 . S
C3640 C3641 1.366 . S
C3640 C3642 1.388 . S
C3641 C3640 1.366 . S
C3641 C3645 1.385 . S
C3642 H3623 0.951 . S
C3642 C3640 1.388 . S
C3642 C3643 1.366 . S
C3643 C3642 1.366 . S
C3643 C3644 1.414 . S
C3643 C3646 1.499 . S
C3644 H3624 0.950 . S
C3644 C3643 1.414 . S
C3644 C3645 1.374 . S
C3645 H3625 0.935 1_565 S
C3645 C3641 1.385 . S
C3645 C3644 1.374 . S
C3646 C3643 1.499 . S
C3646 C3647 1.373 . S
C3646 C3648 1.389 . S
C3647 H3626 0.950 . S
C3647 C3646 1.373 . S
C3647 C3663 1.377 . S
C3648 C3646 1.389 . S
C3648 C3649 1.524 . S
C3648 C3662 1.377 . S
C3649 C3648 1.524 . S
C3649 C3650 1.397 . S
C3649 C3654 1.363 . S
C3650 H3627 0.950 . S
C3650 C3649 1.397 . S
C3650 C3651 1.334 . S
C3651 H3628 0.950 . S
C3651 C3650 1.334 . S
C3651 C3652 1.287 . S
C3652 C3651 1.287 . S
C3652 C3653 1.524 . S
C3652 H3671 0.913 . S
C3653 H3629 0.950 . S
C3653 C3652 1.524 . S
C3653 C3654 1.415 . S
C3654 H3630 0.950 . S
C3654 C3649 1.363 . S
C3654 C3653 1.415 . S
C3655 H3631 0.951 . S
C3655 C3656 1.366 . S
C3655 C3657 1.388 . S
C3656 C3655 1.366 . S
C3656 C3660 1.385 . S
C3657 H3632 0.951 . S
C3657 C3655 1.388 . S
C3657 C3658 1.366 . S
C3658 C3657 1.366 . S
C3658 C3659 1.414 . S
C3658 C3661 1.499 . S
C3659 H3633 0.950 . S
C3659 C3658 1.414 . S
C3659 C3660 1.374 . S
C3660 H3634 0.950 . S
C3660 C3656 1.385 . S
C3660 C3659 1.374 . S
C3661 C3658 1.499 . S
C3661 C3662 1.373 . S
C3661 C3663 1.389 . S
C3662 H3635 0.950 . S
C3662 C3648 1.377 . S
C3662 C3661 1.373 . S
C3663 C3647 1.377 . S
C3663 C3661 1.389 . S
C3663 C3664 1.524 . S
C3664 C3663 1.524 . S
C3664 C3665 1.397 . S
C3664 C3669 1.363 . S
C3665 H3636 0.950 . S
C3665 C3664 1.397 . S
C3665 C3666 1.334 . S
C3666 H3637 0.950 . S
C3666 C3665 1.334 . S
C3666 C3667 1.287 . S
C3667 C3666 1.287 . S
C3667 C3668 1.524 . S
C3667 H3670 0.999 . S
C3668 H3638 0.950 . S
C3668 C3667 1.524 . S
C3668 C3669 1.415 . S
C3669 H3639 0.950 . S
C3669 C3664 1.363 . S
C3669 C3668 1.415 . S
H3670 C3667 0.999 . S
H3671 C3652 0.913 . S
H3672 C3690 0.951 . S
H3673 C3692 0.951 . S
H3674 C3694 0.950 . S
H3675 C3695 0.950 . S
H3676 C3697 0.950 . S
H3677 C3700 0.950 . S
H3678 C3701 0.950 . S
H3679 C3703 0.950 . S
H3680 C3704 0.950 . S
H3681 C3705 0.951 . S
H3682 C3707 0.951 . S
H3683 C3709 0.950 . S
H3684 C3710 0.950 . S
H3685 C3712 0.950 . S
H3686 C3715 0.950 . S
H3687 C3716 0.950 . S
H3688 C3718 0.950 . S
H3689 C3719 0.950 . S
C3690 H3672 0.951 . S
C3690 C3691 1.366 . S
C3690 C3692 1.388 . S
C3691 C3690 1.366 . S
C3691 C3695 1.385 . S
C3692 H3673 0.951 . S
C3692 C3690 1.388 . S
C3692 C3693 1.366 . S
C3693 C3692 1.366 . S
C3693 C3694 1.414 . S
C3693 C3696 1.499 . S
C3694 H3674 0.950 . S
C3694 C3693 1.414 . S
C3694 C3695 1.374 . S
C3695 H3675 0.950 . S
C3695 C3691 1.385 . S
C3695 C3694 1.374 . S
C3696 C3693 1.499 . S
C3696 C3697 1.373 . S
C3696 C3698 1.389 . S
C3697 H3676 0.950 . S
C3697 C3696 1.373 . S
C3697 C3713 1.377 . S
C3698 C3696 1.389 . S
C3698 C3699 1.524 . S
C3698 C3712 1.377 . S
C3699 C3698 1.524 . S
C3699 C3700 1.397 . S
C3699 C3704 1.363 . S
C3700 H3677 0.950 . S
C3700 C3699 1.397 . S
C3700 C3701 1.334 . S
C3701 H3678 0.950 . S
C3701 C3700 1.334 . S
C3701 C3702 1.287 . S
C3702 C3701 1.287 . S
C3702 C3703 1.524 . S
C3702 H3721 0.913 . S
C3703 H3679 0.950 . S
C3703 C3702 1.524 . S
C3703 C3704 1.415 . S
C3704 H3680 0.950 . S
C3704 C3699 1.363 . S
C3704 C3703 1.415 . S
C3705 H3681 0.951 . S
C3705 C3706 1.366 . S
C3705 C3707 1.388 . S
C3706 C3705 1.366 . S
C3706 C3710 1.385 . S
C3707 H3682 0.951 . S
C3707 C3705 1.388 . S
C3707 C3708 1.366 . S
C3708 C3707 1.366 . S
C3708 C3709 1.414 . S
C3708 C3711 1.499 . S
C3709 H3683 0.950 . S
C3709 C3708 1.414 . S
C3709 C3710 1.374 . S
C3710 H3684 0.950 . S
C3710 C3706 1.385 . S
C3710 C3709 1.374 . S
C3711 C3708 1.499 . S
C3711 C3712 1.373 . S
C3711 C3713 1.389 . S
C3712 H3685 0.950 . S
C3712 C3698 1.377 . S
C3712 C3711 1.373 . S
C3713 C3697 1.377 . S
C3713 C3711 1.389 . S
C3713 C3714 1.524 . S
C3714 C3713 1.524 . S
C3714 C3715 1.397 . S
C3714 C3719 1.363 . S
C3715 H3686 0.950 . S
C3715 C3714 1.397 . S
C3715 C3716 1.334 . S
C3716 H3687 0.950 . S
C3716 C3715 1.334 . S
C3716 C3717 1.287 . S
C3717 C3716 1.287 . S
C3717 C3718 1.524 . S
C3717 H3720 0.999 . S
C3718 H3688 0.950 . S
C3718 C3717 1.524 . S
C3718 C3719 1.415 . S
C3719 H3689 0.950 . S
C3719 C3714 1.363 . S
C3719 C3718 1.415 . S
H3720 C3717 0.999 . S
H3721 C3702 0.913 . S
H3722 C3740 0.951 . S
H3723 C3742 0.951 . S
H3724 C3744 0.950 . S
H3725 C3745 0.972 . S
H3726 C3747 0.950 . S
H3727 C3750 0.950 . S
H3728 C3751 0.950 . S
H3729 C3753 0.950 . S
H3730 C3754 0.950 . S
H3731 C3755 0.951 . S
H3732 C3757 0.951 . S
H3733 C3759 0.950 . S
H3734 C3760 0.950 . S
H3735 C3762 0.950 . S
H3736 C3765 0.950 . S
H3737 C3766 0.950 . S
H3738 C3768 0.950 . S
H3739 C3769 0.950 . S
C3740 H3722 0.951 . S
C3740 C3741 1.366 . S
C3740 C3742 1.388 . S
C3741 C3740 1.366 . S
C3741 C3745 1.385 . S
C3742 H3723 0.951 . S
C3742 C3740 1.388 . S
C3742 C3743 1.366 . S
C3743 C3742 1.366 . S
C3743 C3744 1.414 . S
C3743 C3746 1.499 . S
C3744 H3724 0.950 . S
C3744 C3743 1.414 . S
C3744 C3745 1.374 . S
C3745 H3725 0.972 . S
C3745 C3741 1.385 . S
C3745 C3744 1.374 . S
C3746 C3743 1.499 . S
C3746 C3747 1.373 . S
C3746 C3748 1.389 . S
C3747 H3726 0.950 . S
C3747 C3746 1.373 . S
C3747 C3763 1.377 . S
C3748 C3746 1.389 . S
C3748 C3749 1.524 . S
C3748 C3762 1.377 . S
C3749 C3748 1.524 . S
C3749 C3750 1.397 . S
C3749 C3754 1.363 . S
C3750 H3727 0.950 . S
C3750 C3749 1.397 . S
C3750 C3751 1.334 . S
C3751 H3728 0.950 . S
C3751 C3750 1.334 . S
C3751 C3752 1.287 . S
C3752 C3751 1.287 . S
C3752 C3753 1.524 . S
C3752 H3771 0.913 . S
C3753 H3729 0.950 . S
C3753 C3752 1.524 . S
C3753 C3754 1.415 . S
C3754 H3730 0.950 . S
C3754 C3749 1.363 . S
C3754 C3753 1.415 . S
C3755 H3731 0.951 . S
C3755 C3756 1.366 . S
C3755 C3757 1.388 . S
C3756 C3755 1.366 . S
C3756 C3760 1.385 . S
C3757 H3732 0.951 . S
C3757 C3755 1.388 . S
C3757 C3758 1.366 . S
C3758 C3757 1.366 . S
C3758 C3759 1.414 . S
C3758 C3761 1.499 . S
C3759 H3733 0.950 . S
C3759 C3758 1.414 . S
C3759 C3760 1.374 . S
C3760 H3734 0.950 . S
C3760 C3756 1.385 . S
C3760 C3759 1.374 . S
C3761 C3758 1.499 . S
C3761 C3762 1.373 . S
C3761 C3763 1.389 . S
C3762 H3735 0.950 . S
C3762 C3748 1.377 . S
C3762 C3761 1.373 . S
C3763 C3747 1.377 . S
C3763 C3761 1.389 . S
C3763 C3764 1.524 . S
C3764 C3763 1.524 . S
C3764 C3765 1.397 . S
C3764 C3769 1.363 . S
C3765 H3736 0.950 . S
C3765 C3764 1.397 . S
C3765 C3766 1.334 . S
C3766 H3737 0.950 . S
C3766 C3765 1.334 . S
C3766 C3767 1.287 . S
C3767 C3766 1.287 . S
C3767 C3768 1.524 . S
C3767 H3770 0.999 . S
C3768 H3738 0.950 . S
C3768 C3767 1.524 . S
C3768 C3769 1.415 . S
C3769 H3739 0.950 . S
C3769 C3764 1.363 . S
C3769 C3768 1.415 . S
H3770 C3767 0.999 . S
H3771 C3752 0.913 . S
H3772 C3790 0.944 1_455 S
H3773 C3792 0.951 . S
H3774 C3794 0.950 . S
H3775 C3795 0.950 . S
H3776 C3797 0.950 . S
H3777 C3800 0.950 . S
H3778 C3801 0.950 . S
H3779 C3803 0.950 . S
H3780 C3804 0.950 . S
H3781 C3805 0.951 . S
H3782 C3807 0.951 . S
H3783 C3809 0.950 . S
H3784 C3810 0.950 . S
H3785 C3812 0.950 . S
H3786 C3815 0.950 . S
H3787 C3816 0.950 . S
H3788 C3818 0.950 . S
H3789 C3819 0.950 . S
C3790 H3772 0.944 1_655 S
C3790 C3791 1.366 . S
C3790 C3792 1.388 . S
C3791 C3790 1.366 . S
C3791 C3795 1.385 . S
C3792 H3773 0.951 . S
C3792 C3790 1.388 . S
C3792 C3793 1.366 . S
C3793 C3792 1.366 . S
C3793 C3794 1.414 . S
C3793 C3796 1.499 . S
C3794 H3774 0.950 . S
C3794 C3793 1.414 . S
C3794 C3795 1.374 . S
C3795 H3775 0.950 . S
C3795 C3791 1.385 . S
C3795 C3794 1.374 . S
C3796 C3793 1.499 . S
C3796 C3797 1.373 . S
C3796 C3798 1.389 . S
C3797 H3776 0.950 . S
C3797 C3796 1.373 . S
C3797 C3813 1.377 . S
C3798 C3796 1.389 . S
C3798 C3799 1.524 . S
C3798 C3812 1.377 . S
C3799 C3798 1.524 . S
C3799 C3800 1.397 . S
C3799 C3804 1.363 . S
C3800 H3777 0.950 . S
C3800 C3799 1.397 . S
C3800 C3801 1.334 . S
C3801 H3778 0.950 . S
C3801 C3800 1.334 . S
C3801 C3802 1.287 . S
C3802 C3801 1.287 . S
C3802 C3803 1.524 . S
C3802 H3821 0.913 . S
C3803 H3779 0.950 . S
C3803 C3802 1.524 . S
C3803 C3804 1.415 . S
C3804 H3780 0.950 . S
C3804 C3799 1.363 . S
C3804 C3803 1.415 . S
C3805 H3781 0.951 . S
C3805 C3806 1.366 . S
C3805 C3807 1.388 . S
C3806 C3805 1.366 . S
C3806 C3810 1.385 . S
C3807 H3782 0.951 . S
C3807 C3805 1.388 . S
C3807 C3808 1.366 . S
C3808 C3807 1.366 . S
C3808 C3809 1.414 . S
C3808 C3811 1.499 . S
C3809 H3783 0.950 . S
C3809 C3808 1.414 . S
C3809 C3810 1.374 . S
C3810 H3784 0.950 . S
C3810 C3806 1.385 . S
C3810 C3809 1.374 . S
C3811 C3808 1.499 . S
C3811 C3812 1.373 . S
C3811 C3813 1.389 . S
C3812 H3785 0.950 . S
C3812 C3798 1.377 . S
C3812 C3811 1.373 . S
C3813 C3797 1.377 . S
C3813 C3811 1.389 . S
C3813 C3814 1.524 . S
C3814 C3813 1.524 . S
C3814 C3815 1.397 . S
C3814 C3819 1.363 . S
C3815 H3786 0.950 . S
C3815 C3814 1.397 . S
C3815 C3816 1.334 . S
C3816 H3787 0.950 . S
C3816 C3815 1.334 . S
C3816 C3817 1.287 . S
C3817 C3816 1.287 . S
C3817 C3818 1.524 . S
C3817 H3820 0.999 . S
C3818 H3788 0.950 . S
C3818 C3817 1.524 . S
C3818 C3819 1.415 . S
C3819 H3789 0.950 . S
C3819 C3814 1.363 . S
C3819 C3818 1.415 . S
H3820 C3817 0.999 . S
H3821 C3802 0.913 . S
H3822 C3840 0.951 . S
H3823 C3842 0.951 . S
H3824 C3844 0.950 . S
H3825 C3845 0.950 . S
H3826 C3847 0.950 . S
H3827 C3850 0.950 . S
H3828 C3851 0.950 . S
H3829 C3853 0.950 . S
H3830 C3854 0.950 . S
H3831 C3855 0.951 . S
H3832 C3857 0.951 . S
H3833 C3859 0.950 . S
H3834 C3860 0.950 . S
H3835 C3862 0.950 . S
H3836 C3865 0.950 . S
H3837 C3866 0.950 . S
H3838 C3868 0.950 . S
H3839 C3869 0.950 . S
C3840 H3822 0.951 . S
C3840 C3841 1.366 . S
C3840 C3842 1.388 . S
C3841 C3840 1.366 . S
C3841 C3845 1.385 . S
C3842 H3823 0.951 . S
C3842 C3840 1.388 . S
C3842 C3843 1.366 . S
C3843 C3842 1.366 . S
C3843 C3844 1.414 . S
C3843 C3846 1.499 . S
C3844 H3824 0.950 . S
C3844 C3843 1.414 . S
C3844 C3845 1.374 . S
C3845 H3825 0.950 . S
C3845 C3841 1.385 . S
C3845 C3844 1.374 . S
C3846 C3843 1.499 . S
C3846 C3847 1.373 . S
C3846 C3848 1.389 . S
C3847 H3826 0.950 . S
C3847 C3846 1.373 . S
C3847 C3863 1.377 . S
C3848 C3846 1.389 . S
C3848 C3849 1.524 . S
C3848 C3862 1.377 . S
C3849 C3848 1.524 . S
C3849 C3850 1.397 . S
C3849 C3854 1.363 . S
C3850 H3827 0.950 . S
C3850 C3849 1.397 . S
C3850 C3851 1.334 . S
C3851 H3828 0.950 . S
C3851 C3850 1.334 . S
C3851 C3852 1.287 . S
C3852 C3851 1.287 . S
C3852 C3853 1.524 . S
C3852 H3871 0.913 . S
C3853 H3829 0.950 . S
C3853 C3852 1.524 . S
C3853 C3854 1.415 . S
C3854 H3830 0.950 . S
C3854 C3849 1.363 . S
C3854 C3853 1.415 . S
C3855 H3831 0.951 . S
C3855 C3856 1.366 . S
C3855 C3857 1.388 . S
C3856 C3855 1.366 . S
C3856 C3860 1.385 . S
C3857 H3832 0.951 . S
C3857 C3855 1.388 . S
C3857 C3858 1.366 . S
C3858 C3857 1.366 . S
C3858 C3859 1.414 . S
C3858 C3861 1.499 . S
C3859 H3833 0.950 . S
C3859 C3858 1.414 . S
C3859 C3860 1.374 . S
C3860 H3834 0.950 . S
C3860 C3856 1.385 . S
C3860 C3859 1.374 . S
C3861 C3858 1.499 . S
C3861 C3862 1.373 . S
C3861 C3863 1.389 . S
C3862 H3835 0.950 . S
C3862 C3848 1.377 . S
C3862 C3861 1.373 . S
C3863 C3847 1.377 . S
C3863 C3861 1.389 . S
C3863 C3864 1.524 . S
C3864 C3863 1.524 . S
C3864 C3865 1.397 . S
C3864 C3869 1.363 . S
C3865 H3836 0.950 . S
C3865 C3864 1.397 . S
C3865 C3866 1.334 . S
C3866 H3837 0.950 . S
C3866 C3865 1.334 . S
C3866 C3867 1.287 . S
C3867 C3866 1.287 . S
C3867 C3868 1.524 . S
C3867 H3870 0.999 . S
C3868 H3838 0.950 . S
C3868 C3867 1.524 . S
C3868 C3869 1.415 . S
C3869 H3839 0.950 . S
C3869 C3864 1.363 . S
C3869 C3868 1.415 . S
H3870 C3867 0.999 . S
H3871 C3852 0.913 . S
H3872 C3890 0.951 . S
H3873 C3892 0.951 . S
H3874 C3894 0.950 . S
H3875 C3895 0.933 1_565 S
H3876 C3897 0.950 . S
H3877 C3900 0.950 . S
H3878 C3901 0.950 . S
H3879 C3903 0.950 . S
H3880 C3904 0.950 . S
H3881 C3905 0.951 . S
H3882 C3907 0.951 . S
H3883 C3909 0.950 . S
H3884 C3910 0.950 . S
H3885 C3912 0.950 . S
H3886 C3915 0.950 . S
H3887 C3916 0.950 . S
H3888 C3918 0.950 . S
H3889 C3919 0.950 . S
C3890 H3872 0.951 . S
C3890 C3891 1.366 . S
C3890 C3892 1.388 . S
C3891 C3890 1.366 . S
C3891 C3895 1.385 . S
C3892 H3873 0.951 . S
C3892 C3890 1.388 . S
C3892 C3893 1.366 . S
C3893 C3892 1.366 . S
C3893 C3894 1.414 . S
C3893 C3896 1.499 . S
C3894 H3874 0.950 . S
C3894 C3893 1.414 . S
C3894 C3895 1.374 . S
C3895 H3875 0.933 1_545 S
C3895 C3891 1.385 . S
C3895 C3894 1.374 . S
C3896 C3893 1.499 . S
C3896 C3897 1.373 . S
C3896 C3898 1.389 . S
C3897 H3876 0.950 . S
C3897 C3896 1.373 . S
C3897 C3913 1.377 . S
C3898 C3896 1.389 . S
C3898 C3899 1.524 . S
C3898 C3912 1.377 . S
C3899 C3898 1.524 . S
C3899 C3900 1.397 . S
C3899 C3904 1.363 . S
C3900 H3877 0.950 . S
C3900 C3899 1.397 . S
C3900 C3901 1.334 . S
C3901 H3878 0.950 . S
C3901 C3900 1.334 . S
C3901 C3902 1.287 . S
C3902 C3901 1.287 . S
C3902 C3903 1.524 . S
C3902 H3921 0.913 . S
C3903 H3879 0.950 . S
C3903 C3902 1.524 . S
C3903 C3904 1.415 . S
C3904 H3880 0.950 . S
C3904 C3899 1.363 . S
C3904 C3903 1.415 . S
C3905 H3881 0.951 . S
C3905 C3906 1.366 . S
C3905 C3907 1.388 . S
C3906 C3905 1.366 . S
C3906 C3910 1.385 . S
C3907 H3882 0.951 . S
C3907 C3905 1.388 . S
C3907 C3908 1.366 . S
C3908 C3907 1.366 . S
C3908 C3909 1.414 . S
C3908 C3911 1.499 . S
C3909 H3883 0.950 . S
C3909 C3908 1.414 . S
C3909 C3910 1.374 . S
C3910 H3884 0.950 . S
C3910 C3906 1.385 . S
C3910 C3909 1.374 . S
C3911 C3908 1.499 . S
C3911 C3912 1.373 . S
C3911 C3913 1.389 . S
C3912 H3885 0.950 . S
C3912 C3898 1.377 . S
C3912 C3911 1.373 . S
C3913 C3897 1.377 . S
C3913 C3911 1.389 . S
C3913 C3914 1.524 . S
C3914 C3913 1.524 . S
C3914 C3915 1.397 . S
C3914 C3919 1.363 . S
C3915 H3886 0.950 . S
C3915 C3914 1.397 . S
C3915 C3916 1.334 . S
C3916 H3887 0.950 . S
C3916 C3915 1.334 . S
C3916 C3917 1.287 . S
C3917 C3916 1.287 . S
C3917 C3918 1.524 . S
C3917 H3920 0.999 . S
C3918 H3888 0.950 . S
C3918 C3917 1.524 . S
C3918 C3919 1.415 . S
C3919 H3889 0.950 . S
C3919 C3914 1.363 . S
C3919 C3918 1.415 . S
H3920 C3917 0.999 . S
H3921 C3902 0.913 . S
H3922 C3940 0.933 1_545 S
H3923 C3942 0.951 . S
H3924 C3944 0.950 . S
H3925 C3945 0.950 . S
H3926 C3947 0.950 . S
H3927 C3950 0.950 . S
H3928 C3951 0.950 . S
H3929 C3953 0.950 . S
H3930 C3954 0.950 . S
H3931 C3955 0.951 . S
H3932 C3957 0.951 . S
H3933 C3959 0.950 . S
H3934 C3960 0.950 . S
H3935 C3962 0.950 . S
H3936 C3965 0.950 . S
H3937 C3966 0.950 . S
H3938 C3968 0.950 . S
H3939 C3969 0.950 . S
C3940 H3922 0.933 1_565 S
C3940 C3941 1.366 . S
C3940 C3942 1.388 . S
C3941 C3940 1.366 . S
C3941 C3945 1.385 . S
C3942 H3923 0.951 . S
C3942 C3940 1.388 . S
C3942 C3943 1.366 . S
C3943 C3942 1.366 . S
C3943 C3944 1.414 . S
C3943 C3946 1.499 . S
C3944 H3924 0.950 . S
C3944 C3943 1.414 . S
C3944 C3945 1.374 . S
C3945 H3925 0.950 . S
C3945 C3941 1.385 . S
C3945 C3944 1.374 . S
C3946 C3943 1.499 . S
C3946 C3947 1.373 . S
C3946 C3948 1.389 . S
C3947 H3926 0.950 . S
C3947 C3946 1.373 . S
C3947 C3963 1.377 . S
C3948 C3946 1.389 . S
C3948 C3949 1.524 . S
C3948 C3962 1.377 . S
C3949 C3948 1.524 . S
C3949 C3950 1.397 . S
C3949 C3954 1.363 . S
C3950 H3927 0.950 . S
C3950 C3949 1.397 . S
C3950 C3951 1.334 . S
C3951 H3928 0.950 . S
C3951 C3950 1.334 . S
C3951 C3952 1.287 . S
C3952 C3951 1.287 . S
C3952 C3953 1.524 . S
C3952 H3971 0.913 . S
C3953 H3929 0.950 . S
C3953 C3952 1.524 . S
C3953 C3954 1.415 . S
C3954 H3930 0.950 . S
C3954 C3949 1.363 . S
C3954 C3953 1.415 . S
C3955 H3931 0.951 . S
C3955 C3956 1.366 . S
C3955 C3957 1.388 . S
C3956 C3955 1.366 . S
C3956 C3960 1.385 . S
C3957 H3932 0.951 . S
C3957 C3955 1.388 . S
C3957 C3958 1.366 . S
C3958 C3957 1.366 . S
C3958 C3959 1.414 . S
C3958 C3961 1.499 . S
C3959 H3933 0.950 . S
C3959 C3958 1.414 . S
C3959 C3960 1.374 . S
C3960 H3934 0.950 . S
C3960 C3956 1.385 . S
C3960 C3959 1.374 . S
C3961 C3958 1.499 . S
C3961 C3962 1.373 . S
C3961 C3963 1.389 . S
C3962 H3935 0.950 . S
C3962 C3948 1.377 . S
C3962 C3961 1.373 . S
C3963 C3947 1.377 . S
C3963 C3961 1.389 . S
C3963 C3964 1.524 . S
C3964 C3963 1.524 . S
C3964 C3965 1.397 . S
C3964 C3969 1.363 . S
C3965 H3936 0.950 . S
C3965 C3964 1.397 . S
C3965 C3966 1.334 . S
C3966 H3937 0.950 . S
C3966 C3965 1.334 . S
C3966 C3967 1.287 . S
C3967 C3966 1.287 . S
C3967 C3968 1.524 . S
C3967 H3970 0.999 . S
C3968 H3938 0.950 . S
C3968 C3967 1.524 . S
C3968 C3969 1.415 . S
C3969 H3939 0.950 . S
C3969 C3964 1.363 . S
C3969 C3968 1.415 . S
H3970 C3967 0.999 . S
H3971 C3952 0.913 . S
H3972 C3990 0.951 . S
H3973 C3992 0.951 . S
H3974 C3994 0.950 . S
H3975 C3995 0.950 . S
H3976 C3997 0.950 . S
H3977 C4000 0.950 . S
H3978 C4001 0.950 . S
H3979 C4003 0.950 . S
H3980 C4004 0.950 . S
H3981 C4005 0.951 . S
H3982 C4007 0.951 . S
H3983 C4009 0.950 . S
H3984 C4010 0.950 . S
H3985 C4012 0.950 . S
H3986 C4015 0.950 . S
H3987 C4016 0.950 . S
H3988 C4018 0.950 . S
H3989 C4019 0.950 . S
C3990 H3972 0.951 . S
C3990 C3991 1.366 . S
C3990 C3992 1.388 . S
C3991 C3990 1.366 . S
C3991 C3995 1.385 . S
C3992 H3973 0.951 . S
C3992 C3990 1.388 . S
C3992 C3993 1.366 . S
C3993 C3992 1.366 . S
C3993 C3994 1.414 . S
C3993 C3996 1.499 . S
C3994 H3974 0.950 . S
C3994 C3993 1.414 . S
C3994 C3995 1.374 . S
C3995 H3975 0.950 . S
C3995 C3991 1.385 . S
C3995 C3994 1.374 . S
C3996 C3993 1.499 . S
C3996 C3997 1.373 . S
C3996 C3998 1.389 . S
C3997 H3976 0.950 . S
C3997 C3996 1.373 . S
C3997 C4013 1.377 . S
C3998 C3996 1.389 . S
C3998 C3999 1.524 . S
C3998 C4012 1.377 . S
C3999 C3998 1.524 . S
C3999 C4000 1.397 . S
C3999 C4004 1.363 . S
C4000 H3977 0.950 . S
C4000 C3999 1.397 . S
C4000 C4001 1.334 . S
C4001 H3978 0.950 . S
C4001 C4000 1.334 . S
C4001 C4002 1.287 . S
C4002 C4001 1.287 . S
C4002 C4003 1.524 . S
C4002 H4021 0.913 . S
C4003 H3979 0.950 . S
C4003 C4002 1.524 . S
C4003 C4004 1.415 . S
C4004 H3980 0.950 . S
C4004 C3999 1.363 . S
C4004 C4003 1.415 . S
C4005 H3981 0.951 . S
C4005 C4006 1.366 . S
C4005 C4007 1.388 . S
C4006 C4005 1.366 . S
C4006 C4010 1.385 . S
C4007 H3982 0.951 . S
C4007 C4005 1.388 . S
C4007 C4008 1.366 . S
C4008 C4007 1.366 . S
C4008 C4009 1.414 . S
C4008 C4011 1.499 . S
C4009 H3983 0.950 . S
C4009 C4008 1.414 . S
C4009 C4010 1.374 . S
C4010 H3984 0.950 . S
C4010 C4006 1.385 . S
C4010 C4009 1.374 . S
C4011 C4008 1.499 . S
C4011 C4012 1.373 . S
C4011 C4013 1.389 . S
C4012 H3985 0.950 . S
C4012 C3998 1.377 . S
C4012 C4011 1.373 . S
C4013 C3997 1.377 . S
C4013 C4011 1.389 . S
C4013 C4014 1.524 . S
C4014 C4013 1.524 . S
C4014 C4015 1.397 . S
C4014 C4019 1.363 . S
C4015 H3986 0.950 . S
C4015 C4014 1.397 . S
C4015 C4016 1.334 . S
C4016 H3987 0.950 . S
C4016 C4015 1.334 . S
C4016 C4017 1.287 . S
C4017 C4016 1.287 . S
C4017 C4018 1.524 . S
C4017 H4020 0.999 . S
C4018 H3988 0.950 . S
C4018 C4017 1.524 . S
C4018 C4019 1.415 . S
C4019 H3989 0.950 . S
C4019 C4014 1.363 . S
C4019 C4018 1.415 . S
H4020 C4017 0.999 . S
H4021 C4002 0.913 . S
H4022 C4040 0.951 . S
H4023 C4042 0.951 . S
H4024 C4044 0.950 . S
H4025 C4045 0.950 . S
H4026 C4047 0.950 . S
H4027 C4050 0.950 . S
H4028 C4051 0.950 . S
H4029 C4053 0.950 . S
H4030 C4054 0.950 . S
H4031 C4055 0.946 . S
H4032 C4057 0.951 . S
H4033 C4059 0.950 . S
H4034 C4060 0.950 . S
H4035 C4062 0.950 . S
H4036 C4065 0.950 . S
H4037 C4066 0.950 . S
H4038 C4068 0.950 . S
H4039 C4069 0.950 . S
C4040 H4022 0.951 . S
C4040 C4041 1.366 . S
C4040 C4042 1.388 . S
C4041 C4040 1.366 . S
C4041 C4045 1.385 . S
C4042 H4023 0.951 . S
C4042 C4040 1.388 . S
C4042 C4043 1.366 . S
C4043 C4042 1.366 . S
C4043 C4044 1.414 . S
C4043 C4046 1.499 . S
C4044 H4024 0.950 . S
C4044 C4043 1.414 . S
C4044 C4045 1.374 . S
C4045 H4025 0.950 . S
C4045 C4041 1.385 . S
C4045 C4044 1.374 . S
C4046 C4043 1.499 . S
C4046 C4047 1.373 . S
C4046 C4048 1.389 . S
C4047 H4026 0.950 . S
C4047 C4046 1.373 . S
C4047 C4063 1.377 . S
C4048 C4046 1.389 . S
C4048 C4049 1.524 . S
C4048 C4062 1.377 . S
C4049 C4048 1.524 . S
C4049 C4050 1.397 . S
C4049 C4054 1.363 . S
C4050 H4027 0.950 . S
C4050 C4049 1.397 . S
C4050 C4051 1.334 . S
C4051 H4028 0.950 . S
C4051 C4050 1.334 . S
C4051 C4052 1.287 . S
C4052 C4051 1.287 . S
C4052 C4053 1.524 . S
C4052 H4071 0.913 . S
C4053 H4029 0.950 . S
C4053 C4052 1.524 . S
C4053 C4054 1.415 . S
C4054 H4030 0.950 . S
C4054 C4049 1.363 . S
C4054 C4053 1.415 . S
C4055 H4031 0.946 . S
C4055 C4056 1.366 . S
C4055 C4057 1.388 . S
C4056 C4055 1.366 . S
C4056 C4060 1.385 . S
C4057 H4032 0.951 . S
C4057 C4055 1.388 . S
C4057 C4058 1.366 . S
C4058 C4057 1.366 . S
C4058 C4059 1.414 . S
C4058 C4061 1.499 . S
C4059 H4033 0.950 . S
C4059 C4058 1.414 . S
C4059 C4060 1.374 . S
C4060 H4034 0.950 . S
C4060 C4056 1.385 . S
C4060 C4059 1.374 . S
C4061 C4058 1.499 . S
C4061 C4062 1.373 . S
C4061 C4063 1.389 . S
C4062 H4035 0.950 . S
C4062 C4048 1.377 . S
C4062 C4061 1.373 . S
C4063 C4047 1.377 . S
C4063 C4061 1.389 . S
C4063 C4064 1.524 . S
C4064 C4063 1.524 . S
C4064 C4065 1.397 . S
C4064 C4069 1.363 . S
C4065 H4036 0.950 . S
C4065 C4064 1.397 . S
C4065 C4066 1.334 . S
C4066 H4037 0.950 . S
C4066 C4065 1.334 . S
C4066 C4067 1.287 . S
C4067 C4066 1.287 . S
C4067 C4068 1.524 . S
C4067 H4070 0.999 . S
C4068 H4038 0.950 . S
C4068 C4067 1.524 . S
C4068 C4069 1.415 . S
C4069 H4039 0.950 . S
C4069 C4064 1.363 . S
C4069 C4068 1.415 . S
H4070 C4067 0.999 . S
H4071 C4052 0.913 . S
H4072 C4090 0.963 . S
H4073 C4092 0.951 . S
H4074 C4094 0.950 . S
H4075 C4095 0.950 . S
H4076 C4097 0.950 . S
H4077 C4100 0.950 . S
H4078 C4101 0.950 . S
H4079 C4103 0.950 . S
H4080 C4104 0.950 . S
H4081 C4105 0.951 . S
H4082 C4107 0.951 . S
H4083 C4109 0.950 . S
H4084 C4110 0.950 . S
H4085 C4112 0.950 . S
H4086 C4115 0.950 . S
H4087 C4116 0.950 . S
H4088 C4118 0.950 . S
H4089 C4119 0.950 . S
C4090 H4072 0.963 . S
C4090 C4091 1.366 . S
C4090 C4092 1.388 . S
C4091 C4090 1.366 . S
C4091 C4095 1.385 . S
C4092 H4073 0.951 . S
C4092 C4090 1.388 . S
C4092 C4093 1.366 . S
C4093 C4092 1.366 . S
C4093 C4094 1.414 . S
C4093 C4096 1.499 . S
C4094 H4074 0.950 . S
C4094 C4093 1.414 . S
C4094 C4095 1.374 . S
C4095 H4075 0.950 . S
C4095 C4091 1.385 . S
C4095 C4094 1.374 . S
C4096 C4093 1.499 . S
C4096 C4097 1.373 . S
C4096 C4098 1.389 . S
C4097 H4076 0.950 . S
C4097 C4096 1.373 . S
C4097 C4113 1.377 . S
C4098 C4096 1.389 . S
C4098 C4099 1.524 . S
C4098 C4112 1.377 . S
C4099 C4098 1.524 . S
C4099 C4100 1.397 . S
C4099 C4104 1.363 . S
C4100 H4077 0.950 . S
C4100 C4099 1.397 . S
C4100 C4101 1.334 . S
C4101 H4078 0.950 . S
C4101 C4100 1.334 . S
C4101 C4102 1.287 . S
C4102 C4101 1.287 . S
C4102 C4103 1.524 . S
C4102 H4121 0.913 . S
C4103 H4079 0.950 . S
C4103 C4102 1.524 . S
C4103 C4104 1.415 . S
C4104 H4080 0.950 . S
C4104 C4099 1.363 . S
C4104 C4103 1.415 . S
C4105 H4081 0.951 . S
C4105 C4106 1.366 . S
C4105 C4107 1.388 . S
C4106 C4105 1.366 . S
C4106 C4110 1.385 . S
C4107 H4082 0.951 . S
C4107 C4105 1.388 . S
C4107 C4108 1.366 . S
C4108 C4107 1.366 . S
C4108 C4109 1.414 . S
C4108 C4111 1.499 . S
C4109 H4083 0.950 . S
C4109 C4108 1.414 . S
C4109 C4110 1.374 . S
C4110 H4084 0.950 . S
C4110 C4106 1.385 . S
C4110 C4109 1.374 . S
C4111 C4108 1.499 . S
C4111 C4112 1.373 . S
C4111 C4113 1.389 . S
C4112 H4085 0.950 . S
C4112 C4098 1.377 . S
C4112 C4111 1.373 . S
C4113 C4097 1.377 . S
C4113 C4111 1.389 . S
C4113 C4114 1.524 . S
C4114 C4113 1.524 . S
C4114 C4115 1.397 . S
C4114 C4119 1.363 . S
C4115 H4086 0.950 . S
C4115 C4114 1.397 . S
C4115 C4116 1.334 . S
C4116 H4087 0.950 . S
C4116 C4115 1.334 . S
C4116 C4117 1.287 . S
C4117 C4116 1.287 . S
C4117 C4118 1.524 . S
C4117 H4120 0.999 . S
C4118 H4088 0.950 . S
C4118 C4117 1.524 . S
C4118 C4119 1.415 . S
C4119 H4089 0.950 . S
C4119 C4114 1.363 . S
C4119 C4118 1.415 . S
H4120 C4117 0.999 . S
H4121 C4102 0.913 . S
H4122 C4140 0.951 . S
H4123 C4142 0.951 . S
H4124 C4144 0.950 . S
H4125 C4145 0.950 . S
H4126 C4147 0.950 . S
H4127 C4150 0.950 . S
H4128 C4151 0.950 . S
H4129 C4153 0.950 . S
H4130 C4154 0.950 . S
H4131 C4155 0.951 . S
H4132 C4157 0.951 . S
H4133 C4159 0.950 . S
H4134 C4160 0.950 . S
H4135 C4162 0.950 . S
H4136 C4165 0.950 . S
H4137 C4166 0.950 . S
H4138 C4168 0.950 . S
H4139 C4169 0.950 . S
C4140 H4122 0.951 . S
C4140 C4141 1.366 . S
C4140 C4142 1.388 . S
C4141 C4140 1.366 . S
C4141 C4145 1.385 . S
C4142 H4123 0.951 . S
C4142 C4140 1.388 . S
C4142 C4143 1.366 . S
C4143 C4142 1.366 . S
C4143 C4144 1.414 . S
C4143 C4146 1.499 . S
C4144 H4124 0.950 . S
C4144 C4143 1.414 . S
C4144 C4145 1.374 . S
C4145 H4125 0.950 . S
C4145 C4141 1.385 . S
C4145 C4144 1.374 . S
C4146 C4143 1.499 . S
C4146 C4147 1.373 . S
C4146 C4148 1.389 . S
C4147 H4126 0.950 . S
C4147 C4146 1.373 . S
C4147 C4163 1.377 . S
C4148 C4146 1.389 . S
C4148 C4149 1.524 . S
C4148 C4162 1.377 . S
C4149 C4148 1.524 . S
C4149 C4150 1.397 . S
C4149 C4154 1.363 . S
C4150 H4127 0.950 . S
C4150 C4149 1.397 . S
C4150 C4151 1.334 . S
C4151 H4128 0.950 . S
C4151 C4150 1.334 . S
C4151 C4152 1.287 . S
C4152 C4151 1.287 . S
C4152 C4153 1.524 . S
C4152 H4171 0.913 . S
C4153 H4129 0.950 . S
C4153 C4152 1.524 . S
C4153 C4154 1.415 . S
C4154 H4130 0.950 . S
C4154 C4149 1.363 . S
C4154 C4153 1.415 . S
C4155 H4131 0.951 . S
C4155 C4156 1.366 . S
C4155 C4157 1.388 . S
C4156 C4155 1.366 . S
C4156 C4160 1.385 . S
C4157 H4132 0.951 . S
C4157 C4155 1.388 . S
C4157 C4158 1.366 . S
C4158 C4157 1.366 . S
C4158 C4159 1.414 . S
C4158 C4161 1.499 . S
C4159 H4133 0.950 . S
C4159 C4158 1.414 . S
C4159 C4160 1.374 . S
C4160 H4134 0.950 . S
C4160 C4156 1.385 . S
C4160 C4159 1.374 . S
C4161 C4158 1.499 . S
C4161 C4162 1.373 . S
C4161 C4163 1.389 . S
C4162 H4135 0.950 . S
C4162 C4148 1.377 . S
C4162 C4161 1.373 . S
C4163 C4147 1.377 . S
C4163 C4161 1.389 . S
C4163 C4164 1.524 . S
C4164 C4163 1.524 . S
C4164 C4165 1.397 . S
C4164 C4169 1.363 . S
C4165 H4136 0.950 . S
C4165 C4164 1.397 . S
C4165 C4166 1.334 . S
C4166 H4137 0.950 . S
C4166 C4165 1.334 . S
C4166 C4167 1.287 . S
C4167 C4166 1.287 . S
C4167 C4168 1.524 . S
C4167 H4170 0.999 . S
C4168 H4138 0.950 . S
C4168 C4167 1.524 . S
C4168 C4169 1.415 . S
C4169 H4139 0.950 . S
C4169 C4164 1.363 . S
C4169 C4168 1.415 . S
H4170 C4167 0.999 . S
H4171 C4152 0.913 . S
H4172 C4190 0.951 . S
H4173 C4192 0.951 . S
H4174 C4194 0.950 . S
H4175 C4195 0.950 . S
H4176 C4197 0.950 . S
H4177 C4200 0.950 . S
H4178 C4201 0.950 . S
H4179 C4203 0.950 . S
H4180 C4204 0.950 . S
H4181 C4205 0.951 . S
H4182 C4207 0.951 . S
H4183 C4209 0.950 . S
H4184 C4210 0.950 . S
H4185 C4212 0.950 . S
H4186 C4215 0.950 . S
H4187 C4216 0.950 . S
H4188 C4218 0.950 . S
H4189 C4219 0.950 . S
C4190 H4172 0.951 . S
C4190 C4191 1.366 . S
C4190 C4192 1.388 . S
C4191 C4190 1.366 . S
C4191 C4195 1.385 . S
C4192 H4173 0.951 . S
C4192 C4190 1.388 . S
C4192 C4193 1.366 . S
C4193 C4192 1.366 . S
C4193 C4194 1.414 . S
C4193 C4196 1.499 . S
C4194 H4174 0.950 . S
C4194 C4193 1.414 . S
C4194 C4195 1.374 . S
C4195 H4175 0.950 . S
C4195 C4191 1.385 . S
C4195 C4194 1.374 . S
C4196 C4193 1.499 . S
C4196 C4197 1.373 . S
C4196 C4198 1.389 . S
C4197 H4176 0.950 . S
C4197 C4196 1.373 . S
C4197 C4213 1.377 . S
C4198 C4196 1.389 . S
C4198 C4199 1.524 . S
C4198 C4212 1.377 . S
C4199 C4198 1.524 . S
C4199 C4200 1.397 . S
C4199 C4204 1.363 . S
C4200 H4177 0.950 . S
C4200 C4199 1.397 . S
C4200 C4201 1.334 . S
C4201 H4178 0.950 . S
C4201 C4200 1.334 . S
C4201 C4202 1.287 . S
C4202 C4201 1.287 . S
C4202 C4203 1.524 . S
C4202 H4221 0.913 . S
C4203 H4179 0.950 . S
C4203 C4202 1.524 . S
C4203 C4204 1.415 . S
C4204 H4180 0.950 . S
C4204 C4199 1.363 . S
C4204 C4203 1.415 . S
C4205 H4181 0.951 . S
C4205 C4206 1.366 . S
C4205 C4207 1.388 . S
C4206 C4205 1.366 . S
C4206 C4210 1.385 . S
C4207 H4182 0.951 . S
C4207 C4205 1.388 . S
C4207 C4208 1.366 . S
C4208 C4207 1.366 . S
C4208 C4209 1.414 . S
C4208 C4211 1.499 . S
C4209 H4183 0.950 . S
C4209 C4208 1.414 . S
C4209 C4210 1.374 . S
C4210 H4184 0.950 . S
C4210 C4206 1.385 . S
C4210 C4209 1.374 . S
C4211 C4208 1.499 . S
C4211 C4212 1.373 . S
C4211 C4213 1.389 . S
C4212 H4185 0.950 . S
C4212 C4198 1.377 . S
C4212 C4211 1.373 . S
C4213 C4197 1.377 . S
C4213 C4211 1.389 . S
C4213 C4214 1.524 . S
C4214 C4213 1.524 . S
C4214 C4215 1.397 . S
C4214 C4219 1.363 . S
C4215 H4186 0.950 . S
C4215 C4214 1.397 . S
C4215 C4216 1.334 . S
C4216 H4187 0.950 . S
C4216 C4215 1.334 . S
C4216 C4217 1.287 . S
C4217 C4216 1.287 . S
C4217 C4218 1.524 . S
C4217 H4220 0.999 . S
C4218 H4188 0.950 . S
C4218 C4217 1.524 . S
C4218 C4219 1.415 . S
C4219 H4189 0.950 . S
C4219 C4214 1.363 . S
C4219 C4218 1.415 . S
H4220 C4217 0.999 . S
H4221 C4202 0.913 . S
H4222 C4240 0.951 . S
H4223 C4242 0.951 . S
H4224 C4244 0.950 . S
H4225 C4245 0.950 . S
H4226 C4247 0.950 . S
H4227 C4250 0.950 . S
H4228 C4251 0.950 . S
H4229 C4253 0.950 . S
H4230 C4254 0.950 . S
H4231 C4255 0.951 . S
H4232 C4257 0.951 . S
H4233 C4259 0.950 . S
H4234 C4260 0.950 . S
H4235 C4262 0.950 . S
H4236 C4265 0.950 . S
H4237 C4266 0.950 . S
H4238 C4268 0.950 . S
H4239 C4269 0.950 . S
C4240 H4222 0.951 . S
C4240 C4241 1.366 . S
C4240 C4242 1.388 . S
C4241 C4240 1.366 . S
C4241 C4245 1.385 . S
C4242 H4223 0.951 . S
C4242 C4240 1.388 . S
C4242 C4243 1.366 . S
C4243 C4242 1.366 . S
C4243 C4244 1.414 . S
C4243 C4246 1.499 . S
C4244 H4224 0.950 . S
C4244 C4243 1.414 . S
C4244 C4245 1.374 . S
C4245 H4225 0.950 . S
C4245 C4241 1.385 . S
C4245 C4244 1.374 . S
C4246 C4243 1.499 . S
C4246 C4247 1.373 . S
C4246 C4248 1.389 . S
C4247 H4226 0.950 . S
C4247 C4246 1.373 . S
C4247 C4263 1.377 . S
C4248 C4246 1.389 . S
C4248 C4249 1.524 . S
C4248 C4262 1.377 . S
C4249 C4248 1.524 . S
C4249 C4250 1.397 . S
C4249 C4254 1.363 . S
C4250 H4227 0.950 . S
C4250 C4249 1.397 . S
C4250 C4251 1.334 . S
C4251 H4228 0.950 . S
C4251 C4250 1.334 . S
C4251 C4252 1.287 . S
C4252 C4251 1.287 . S
C4252 C4253 1.524 . S
C4252 H4271 0.913 . S
C4253 H4229 0.950 . S
C4253 C4252 1.524 . S
C4253 C4254 1.415 . S
C4254 H4230 0.950 . S
C4254 C4249 1.363 . S
C4254 C4253 1.415 . S
C4255 H4231 0.951 . S
C4255 C4256 1.366 . S
C4255 C4257 1.388 . S
C4256 C4255 1.366 . S
C4256 C4260 1.385 . S
C4257 H4232 0.951 . S
C4257 C4255 1.388 . S
C4257 C4258 1.366 . S
C4258 C4257 1.366 . S
C4258 C4259 1.414 . S
C4258 C4261 1.499 . S
C4259 H4233 0.950 . S
C4259 C4258 1.414 . S
C4259 C4260 1.374 . S
C4260 H4234 0.950 . S
C4260 C4256 1.385 . S
C4260 C4259 1.374 . S
C4261 C4258 1.499 . S
C4261 C4262 1.373 . S
C4261 C4263 1.389 . S
C4262 H4235 0.950 . S
C4262 C4248 1.377 . S
C4262 C4261 1.373 . S
C4263 C4247 1.377 . S
C4263 C4261 1.389 . S
C4263 C4264 1.524 . S
C4264 C4263 1.524 . S
C4264 C4265 1.397 . S
C4264 C4269 1.363 . S
C4265 H4236 0.950 . S
C4265 C4264 1.397 . S
C4265 C4266 1.334 . S
C4266 H4237 0.950 . S
C4266 C4265 1.334 . S
C4266 C4267 1.287 . S
C4267 C4266 1.287 . S
C4267 C4268 1.524 . S
C4267 H4270 0.999 . S
C4268 H4238 0.950 . S
C4268 C4267 1.524 . S
C4268 C4269 1.415 . S
C4269 H4239 0.950 . S
C4269 C4264 1.363 . S
C4269 C4268 1.415 . S
H4270 C4267 0.999 . S
H4271 C4252 0.913 . S
H4272 C4290 0.951 . S
H4273 C4292 0.951 . S
H4274 C4294 0.950 . S
H4275 C4295 0.950 . S
H4276 C4297 0.950 . S
H4277 C4300 0.950 . S
H4278 C4301 0.950 . S
H4279 C4303 0.950 . S
H4280 C4304 0.950 . S
H4281 C4305 0.951 . S
H4282 C4307 0.951 . S
H4283 C4309 0.950 . S
H4284 C4310 0.950 . S
H4285 C4312 0.950 . S
H4286 C4315 0.950 . S
H4287 C4316 0.950 . S
H4288 C4318 0.950 . S
H4289 C4319 0.950 . S
C4290 H4272 0.951 . S
C4290 C4291 1.366 . S
C4290 C4292 1.388 . S
C4291 C4290 1.366 . S
C4291 C4295 1.385 . S
C4292 H4273 0.951 . S
C4292 C4290 1.388 . S
C4292 C4293 1.366 . S
C4293 C4292 1.366 . S
C4293 C4294 1.414 . S
C4293 C4296 1.499 . S
C4294 H4274 0.950 . S
C4294 C4293 1.414 . S
C4294 C4295 1.374 . S
C4295 H4275 0.950 . S
C4295 C4291 1.385 . S
C4295 C4294 1.374 . S
C4296 C4293 1.499 . S
C4296 C4297 1.373 . S
C4296 C4298 1.389 . S
C4297 H4276 0.950 . S
C4297 C4296 1.373 . S
C4297 C4313 1.377 . S
C4298 C4296 1.389 . S
C4298 C4299 1.524 . S
C4298 C4312 1.377 . S
C4299 C4298 1.524 . S
C4299 C4300 1.397 . S
C4299 C4304 1.363 . S
C4300 H4277 0.950 . S
C4300 C4299 1.397 . S
C4300 C4301 1.334 . S
C4301 H4278 0.950 . S
C4301 C4300 1.334 . S
C4301 C4302 1.287 . S
C4302 C4301 1.287 . S
C4302 C4303 1.524 . S
C4302 H4321 0.913 . S
C4303 H4279 0.950 . S
C4303 C4302 1.524 . S
C4303 C4304 1.415 . S
C4304 H4280 0.950 . S
C4304 C4299 1.363 . S
C4304 C4303 1.415 . S
C4305 H4281 0.951 . S
C4305 C4306 1.366 . S
C4305 C4307 1.388 . S
C4306 C4305 1.366 . S
C4306 C4310 1.385 . S
C4307 H4282 0.951 . S
C4307 C4305 1.388 . S
C4307 C4308 1.366 . S
C4308 C4307 1.366 . S
C4308 C4309 1.414 . S
C4308 C4311 1.499 . S
C4309 H4283 0.950 . S
C4309 C4308 1.414 . S
C4309 C4310 1.374 . S
C4310 H4284 0.950 . S
C4310 C4306 1.385 . S
C4310 C4309 1.374 . S
C4311 C4308 1.499 . S
C4311 C4312 1.373 . S
C4311 C4313 1.389 . S
C4312 H4285 0.950 . S
C4312 C4298 1.377 . S
C4312 C4311 1.373 . S
C4313 C4297 1.377 . S
C4313 C4311 1.389 . S
C4313 C4314 1.524 . S
C4314 C4313 1.524 . S
C4314 C4315 1.397 . S
C4314 C4319 1.363 . S
C4315 H4286 0.950 . S
C4315 C4314 1.397 . S
C4315 C4316 1.334 . S
C4316 H4287 0.950 . S
C4316 C4315 1.334 . S
C4316 C4317 1.287 . S
C4317 C4316 1.287 . S
C4317 C4318 1.524 . S
C4317 H4320 0.999 . S
C4318 H4288 0.950 . S
C4318 C4317 1.524 . S
C4318 C4319 1.415 . S
C4319 H4289 0.950 . S
C4319 C4314 1.363 . S
C4319 C4318 1.415 . S
H4320 C4317 0.999 . S
H4321 C4302 0.913 . S
H4322 C4340 0.951 . S
H4323 C4342 0.951 . S
H4324 C4344 0.950 . S
H4325 C4345 0.950 . S
H4326 C4347 0.950 . S
H4327 C4350 0.950 . S
H4328 C4351 0.950 . S
H4329 C4353 0.950 . S
H4330 C4354 0.950 . S
H4331 C4355 0.951 . S
H4332 C4357 0.951 . S
H4333 C4359 0.950 . S
H4334 C4360 0.950 . S
H4335 C4362 0.950 . S
H4336 C4365 0.950 . S
H4337 C4366 0.950 . S
H4338 C4368 0.950 . S
H4339 C4369 0.950 . S
C4340 H4322 0.951 . S
C4340 C4341 1.366 . S
C4340 C4342 1.388 . S
C4341 C4340 1.366 . S
C4341 C4345 1.385 . S
C4342 H4323 0.951 . S
C4342 C4340 1.388 . S
C4342 C4343 1.366 . S
C4343 C4342 1.366 . S
C4343 C4344 1.414 . S
C4343 C4346 1.499 . S
C4344 H4324 0.950 . S
C4344 C4343 1.414 . S
C4344 C4345 1.374 . S
C4345 H4325 0.950 . S
C4345 C4341 1.385 . S
C4345 C4344 1.374 . S
C4346 C4343 1.499 . S
C4346 C4347 1.373 . S
C4346 C4348 1.389 . S
C4347 H4326 0.950 . S
C4347 C4346 1.373 . S
C4347 C4363 1.377 . S
C4348 C4346 1.389 . S
C4348 C4349 1.524 . S
C4348 C4362 1.377 . S
C4349 C4348 1.524 . S
C4349 C4350 1.397 . S
C4349 C4354 1.363 . S
C4350 H4327 0.950 . S
C4350 C4349 1.397 . S
C4350 C4351 1.334 . S
C4351 H4328 0.950 . S
C4351 C4350 1.334 . S
C4351 C4352 1.287 . S
C4352 C4351 1.287 . S
C4352 C4353 1.524 . S
C4352 H4371 0.913 . S
C4353 H4329 0.950 . S
C4353 C4352 1.524 . S
C4353 C4354 1.415 . S
C4354 H4330 0.950 . S
C4354 C4349 1.363 . S
C4354 C4353 1.415 . S
C4355 H4331 0.951 . S
C4355 C4356 1.366 . S
C4355 C4357 1.388 . S
C4356 C4355 1.366 . S
C4356 C4360 1.385 . S
C4357 H4332 0.951 . S
C4357 C4355 1.388 . S
C4357 C4358 1.366 . S
C4358 C4357 1.366 . S
C4358 C4359 1.414 . S
C4358 C4361 1.499 . S
C4359 H4333 0.950 . S
C4359 C4358 1.414 . S
C4359 C4360 1.374 . S
C4360 H4334 0.950 . S
C4360 C4356 1.385 . S
C4360 C4359 1.374 . S
C4361 C4358 1.499 . S
C4361 C4362 1.373 . S
C4361 C4363 1.389 . S
C4362 H4335 0.950 . S
C4362 C4348 1.377 . S
C4362 C4361 1.373 . S
C4363 C4347 1.377 . S
C4363 C4361 1.389 . S
C4363 C4364 1.524 . S
C4364 C4363 1.524 . S
C4364 C4365 1.397 . S
C4364 C4369 1.363 . S
C4365 H4336 0.950 . S
C4365 C4364 1.397 . S
C4365 C4366 1.334 . S
C4366 H4337 0.950 . S
C4366 C4365 1.334 . S
C4366 C4367 1.287 . S
C4367 C4366 1.287 . S
C4367 C4368 1.524 . S
C4367 H4370 0.999 . S
C4368 H4338 0.950 . S
C4368 C4367 1.524 . S
C4368 C4369 1.415 . S
C4369 H4339 0.950 . S
C4369 C4364 1.363 . S
C4369 C4368 1.415 . S
H4370 C4367 0.999 . S
H4371 C4352 0.913 . S
H4372 C4390 0.951 . S
H4373 C4392 0.951 . S
H4374 C4394 0.950 . S
H4375 C4395 0.950 . S
H4376 C4397 0.950 . S
H4377 C4400 0.950 . S
H4378 C4401 0.950 . S
H4379 C4403 0.950 . S
H4380 C4404 0.950 . S
H4381 C4405 0.951 . S
H4382 C4407 0.951 . S
H4383 C4409 0.950 . S
H4384 C4410 0.950 . S
H4385 C4412 0.950 . S
H4386 C4415 0.950 . S
H4387 C4416 0.950 . S
H4388 C4418 0.950 . S
H4389 C4419 0.950 . S
C4390 H4372 0.951 . S
C4390 C4391 1.366 . S
C4390 C4392 1.388 . S
C4391 C4390 1.366 . S
C4391 C4395 1.385 . S
C4392 H4373 0.951 . S
C4392 C4390 1.388 . S
C4392 C4393 1.366 . S
C4393 C4392 1.366 . S
C4393 C4394 1.414 . S
C4393 C4396 1.499 . S
C4394 H4374 0.950 . S
C4394 C4393 1.414 . S
C4394 C4395 1.374 . S
C4395 H4375 0.950 . S
C4395 C4391 1.385 . S
C4395 C4394 1.374 . S
C4396 C4393 1.499 . S
C4396 C4397 1.373 . S
C4396 C4398 1.389 . S
C4397 H4376 0.950 . S
C4397 C4396 1.373 . S
C4397 C4413 1.377 . S
C4398 C4396 1.389 . S
C4398 C4399 1.524 . S
C4398 C4412 1.377 . S
C4399 C4398 1.524 . S
C4399 C4400 1.397 . S
C4399 C4404 1.363 . S
C4400 H4377 0.950 . S
C4400 C4399 1.397 . S
C4400 C4401 1.334 . S
C4401 H4378 0.950 . S
C4401 C4400 1.334 . S
C4401 C4402 1.287 . S
C4402 C4401 1.287 . S
C4402 C4403 1.524 . S
C4402 H4421 0.913 . S
C4403 H4379 0.950 . S
C4403 C4402 1.524 . S
C4403 C4404 1.415 . S
C4404 H4380 0.950 . S
C4404 C4399 1.363 . S
C4404 C4403 1.415 . S
C4405 H4381 0.951 . S
C4405 C4406 1.366 . S
C4405 C4407 1.388 . S
C4406 C4405 1.366 . S
C4406 C4410 1.385 . S
C4407 H4382 0.951 . S
C4407 C4405 1.388 . S
C4407 C4408 1.366 . S
C4408 C4407 1.366 . S
C4408 C4409 1.414 . S
C4408 C4411 1.499 . S
C4409 H4383 0.950 . S
C4409 C4408 1.414 . S
C4409 C4410 1.374 . S
C4410 H4384 0.950 . S
C4410 C4406 1.385 . S
C4410 C4409 1.374 . S
C4411 C4408 1.499 . S
C4411 C4412 1.373 . S
C4411 C4413 1.389 . S
C4412 H4385 0.950 . S
C4412 C4398 1.377 . S
C4412 C4411 1.373 . S
C4413 C4397 1.377 . S
C4413 C4411 1.389 . S
C4413 C4414 1.524 . S
C4414 C4413 1.524 . S
C4414 C4415 1.397 . S
C4414 C4419 1.363 . S
C4415 H4386 0.950 . S
C4415 C4414 1.397 . S
C4415 C4416 1.334 . S
C4416 H4387 0.950 . S
C4416 C4415 1.334 . S
C4416 C4417 1.287 . S
C4417 C4416 1.287 . S
C4417 C4418 1.524 . S
C4417 H4420 0.999 . S
C4418 H4388 0.950 . S
C4418 C4417 1.524 . S
C4418 C4419 1.415 . S
C4419 H4389 0.950 . S
C4419 C4414 1.363 . S
C4419 C4418 1.415 . S
H4420 C4417 0.999 . S
H4421 C4402 0.913 . S
H4422 C4440 0.951 . S
H4423 C4442 0.951 . S
H4424 C4444 0.950 . S
H4425 C4445 0.950 . S
H4426 C4447 0.950 . S
H4427 C4450 0.950 . S
H4428 C4451 0.950 . S
H4429 C4453 0.950 . S
H4430 C4454 0.950 . S
H4431 C4455 0.951 . S
H4432 C4457 0.951 . S
H4433 C4459 0.950 . S
H4434 C4460 0.950 . S
H4435 C4462 0.950 . S
H4436 C4465 0.950 . S
H4437 C4466 0.950 . S
H4438 C4468 0.950 . S
H4439 C4469 0.950 . S
C4440 H4422 0.951 . S
C4440 C4441 1.366 . S
C4440 C4442 1.388 . S
C4441 C4440 1.366 . S
C4441 C4445 1.385 . S
C4442 H4423 0.951 . S
C4442 C4440 1.388 . S
C4442 C4443 1.366 . S
C4443 C4442 1.366 . S
C4443 C4444 1.414 . S
C4443 C4446 1.499 . S
C4444 H4424 0.950 . S
C4444 C4443 1.414 . S
C4444 C4445 1.374 . S
C4445 H4425 0.950 . S
C4445 C4441 1.385 . S
C4445 C4444 1.374 . S
C4446 C4443 1.499 . S
C4446 C4447 1.373 . S
C4446 C4448 1.389 . S
C4447 H4426 0.950 . S
C4447 C4446 1.373 . S
C4447 C4463 1.377 . S
C4448 C4446 1.389 . S
C4448 C4449 1.524 . S
C4448 C4462 1.377 . S
C4449 C4448 1.524 . S
C4449 C4450 1.397 . S
C4449 C4454 1.363 . S
C4450 H4427 0.950 . S
C4450 C4449 1.397 . S
C4450 C4451 1.334 . S
C4451 H4428 0.950 . S
C4451 C4450 1.334 . S
C4451 C4452 1.287 . S
C4452 C4451 1.287 . S
C4452 C4453 1.524 . S
C4452 H4471 0.913 . S
C4453 H4429 0.950 . S
C4453 C4452 1.524 . S
C4453 C4454 1.415 . S
C4454 H4430 0.950 . S
C4454 C4449 1.363 . S
C4454 C4453 1.415 . S
C4455 H4431 0.951 . S
C4455 C4456 1.366 . S
C4455 C4457 1.388 . S
C4456 C4455 1.366 . S
C4456 C4460 1.385 . S
C4457 H4432 0.951 . S
C4457 C4455 1.388 . S
C4457 C4458 1.366 . S
C4458 C4457 1.366 . S
C4458 C4459 1.414 . S
C4458 C4461 1.499 . S
C4459 H4433 0.950 . S
C4459 C4458 1.414 . S
C4459 C4460 1.374 . S
C4460 H4434 0.950 . S
C4460 C4456 1.385 . S
C4460 C4459 1.374 . S
C4461 C4458 1.499 . S
C4461 C4462 1.373 . S
C4461 C4463 1.389 . S
C4462 H4435 0.950 . S
C4462 C4448 1.377 . S
C4462 C4461 1.373 . S
C4463 C4447 1.377 . S
C4463 C4461 1.389 . S
C4463 C4464 1.524 . S
C4464 C4463 1.524 . S
C4464 C4465 1.397 . S
C4464 C4469 1.363 . S
C4465 H4436 0.950 . S
C4465 C4464 1.397 . S
C4465 C4466 1.334 . S
C4466 H4437 0.950 . S
C4466 C4465 1.334 . S
C4466 C4467 1.287 . S
C4467 C4466 1.287 . S
C4467 C4468 1.524 . S
C4467 H4470 0.999 . S
C4468 H4438 0.950 . S
C4468 C4467 1.524 . S
C4468 C4469 1.415 . S
C4469 H4439 0.950 . S
C4469 C4464 1.363 . S
C4469 C4468 1.415 . S
H4470 C4467 0.999 . S
H4471 C4452 0.913 . S
H4472 C4490 0.951 . S
H4473 C4492 0.951 . S
H4474 C4494 0.950 . S
H4475 C4495 0.950 . S
H4476 C4497 0.950 . S
H4477 C4500 0.950 . S
H4478 C4501 0.950 . S
H4479 C4503 0.950 . S
H4480 C4504 0.950 . S
H4481 C4505 0.951 . S
H4482 C4507 0.951 . S
H4483 C4509 0.950 . S
H4484 C4510 0.950 . S
H4485 C4512 0.950 . S
H4486 C4515 0.950 . S
H4487 C4516 0.950 . S
H4488 C4518 0.950 . S
H4489 C4519 0.950 . S
C4490 H4472 0.951 . S
C4490 C4491 1.366 . S
C4490 C4492 1.388 . S
C4491 C4490 1.366 . S
C4491 C4495 1.385 . S
C4492 H4473 0.951 . S
C4492 C4490 1.388 . S
C4492 C4493 1.366 . S
C4493 C4492 1.366 . S
C4493 C4494 1.414 . S
C4493 C4496 1.499 . S
C4494 H4474 0.950 . S
C4494 C4493 1.414 . S
C4494 C4495 1.374 . S
C4495 H4475 0.950 . S
C4495 C4491 1.385 . S
C4495 C4494 1.374 . S
C4496 C4493 1.499 . S
C4496 C4497 1.373 . S
C4496 C4498 1.389 . S
C4497 H4476 0.950 . S
C4497 C4496 1.373 . S
C4497 C4513 1.377 . S
C4498 C4496 1.389 . S
C4498 C4499 1.524 . S
C4498 C4512 1.377 . S
C4499 C4498 1.524 . S
C4499 C4500 1.397 . S
C4499 C4504 1.363 . S
C4500 H4477 0.950 . S
C4500 C4499 1.397 . S
C4500 C4501 1.334 . S
C4501 H4478 0.950 . S
C4501 C4500 1.334 . S
C4501 C4502 1.287 . S
C4502 C4501 1.287 . S
C4502 C4503 1.524 . S
C4502 H4521 0.913 . S
C4503 H4479 0.950 . S
C4503 C4502 1.524 . S
C4503 C4504 1.415 . S
C4504 H4480 0.950 . S
C4504 C4499 1.363 . S
C4504 C4503 1.415 . S
C4505 H4481 0.951 . S
C4505 C4506 1.366 . S
C4505 C4507 1.388 . S
C4506 C4505 1.366 . S
C4506 C4510 1.385 . S
C4507 H4482 0.951 . S
C4507 C4505 1.388 . S
C4507 C4508 1.366 . S
C4508 C4507 1.366 . S
C4508 C4509 1.414 . S
C4508 C4511 1.499 . S
C4509 H4483 0.950 . S
C4509 C4508 1.414 . S
C4509 C4510 1.374 . S
C4510 H4484 0.950 . S
C4510 C4506 1.385 . S
C4510 C4509 1.374 . S
C4511 C4508 1.499 . S
C4511 C4512 1.373 . S
C4511 C4513 1.389 . S
C4512 H4485 0.950 . S
C4512 C4498 1.377 . S
C4512 C4511 1.373 . S
C4513 C4497 1.377 . S
C4513 C4511 1.389 . S
C4513 C4514 1.524 . S
C4514 C4513 1.524 . S
C4514 C4515 1.397 . S
C4514 C4519 1.363 . S
C4515 H4486 0.950 . S
C4515 C4514 1.397 . S
C4515 C4516 1.334 . S
C4516 H4487 0.950 . S
C4516 C4515 1.334 . S
C4516 C4517 1.287 . S
C4517 C4516 1.287 . S
C4517 C4518 1.524 . S
C4517 H4520 0.999 . S
C4518 H4488 0.950 . S
C4518 C4517 1.524 . S
C4518 C4519 1.415 . S
C4519 H4489 0.950 . S
C4519 C4514 1.363 . S
C4519 C4518 1.415 . S
H4520 C4517 0.999 . S
H4521 C4502 0.913 . S
H4522 C4540 0.951 . S
H4523 C4542 0.951 . S
H4524 C4544 0.950 . S
H4525 C4545 0.950 . S
H4526 C4547 0.950 . S
H4527 C4550 0.950 . S
H4528 C4551 0.950 . S
H4529 C4553 0.950 . S
H4530 C4554 0.950 . S
H4531 C4555 0.951 . S
H4532 C4557 0.951 . S
H4533 C4559 0.950 . S
H4534 C4560 0.950 . S
H4535 C4562 0.950 . S
H4536 C4565 0.950 . S
H4537 C4566 0.950 . S
H4538 C4568 0.950 . S
H4539 C4569 0.950 . S
C4540 H4522 0.951 . S
C4540 C4541 1.366 . S
C4540 C4542 1.388 . S
C4541 C4540 1.366 . S
C4541 C4545 1.385 . S
C4542 H4523 0.951 . S
C4542 C4540 1.388 . S
C4542 C4543 1.366 . S
C4543 C4542 1.366 . S
C4543 C4544 1.414 . S
C4543 C4546 1.499 . S
C4544 H4524 0.950 . S
C4544 C4543 1.414 . S
C4544 C4545 1.374 . S
C4545 H4525 0.950 . S
C4545 C4541 1.385 . S
C4545 C4544 1.374 . S
C4546 C4543 1.499 . S
C4546 C4547 1.373 . S
C4546 C4548 1.389 . S
C4547 H4526 0.950 . S
C4547 C4546 1.373 . S
C4547 C4563 1.377 . S
C4548 C4546 1.389 . S
C4548 C4549 1.524 . S
C4548 C4562 1.377 . S
C4549 C4548 1.524 . S
C4549 C4550 1.397 . S
C4549 C4554 1.363 . S
C4550 H4527 0.950 . S
C4550 C4549 1.397 . S
C4550 C4551 1.334 . S
C4551 H4528 0.950 . S
C4551 C4550 1.334 . S
C4551 C4552 1.287 . S
C4552 C4551 1.287 . S
C4552 C4553 1.524 . S
C4552 H4571 0.913 . S
C4553 H4529 0.950 . S
C4553 C4552 1.524 . S
C4553 C4554 1.415 . S
C4554 H4530 0.950 . S
C4554 C4549 1.363 . S
C4554 C4553 1.415 . S
C4555 H4531 0.951 . S
C4555 C4556 1.366 . S
C4555 C4557 1.388 . S
C4556 C4555 1.366 . S
C4556 C4560 1.385 . S
C4557 H4532 0.951 . S
C4557 C4555 1.388 . S
C4557 C4558 1.366 . S
C4558 C4557 1.366 . S
C4558 C4559 1.414 . S
C4558 C4561 1.499 . S
C4559 H4533 0.950 . S
C4559 C4558 1.414 . S
C4559 C4560 1.374 . S
C4560 H4534 0.950 . S
C4560 C4556 1.385 . S
C4560 C4559 1.374 . S
C4561 C4558 1.499 . S
C4561 C4562 1.373 . S
C4561 C4563 1.389 . S
C4562 H4535 0.950 . S
C4562 C4548 1.377 . S
C4562 C4561 1.373 . S
C4563 C4547 1.377 . S
C4563 C4561 1.389 . S
C4563 C4564 1.524 . S
C4564 C4563 1.524 . S
C4564 C4565 1.397 . S
C4564 C4569 1.363 . S
C4565 H4536 0.950 . S
C4565 C4564 1.397 . S
C4565 C4566 1.334 . S
C4566 H4537 0.950 . S
C4566 C4565 1.334 . S
C4566 C4567 1.287 . S
C4567 C4566 1.287 . S
C4567 C4568 1.524 . S
C4567 H4570 0.999 . S
C4568 H4538 0.950 . S
C4568 C4567 1.524 . S
C4568 C4569 1.415 . S
C4569 H4539 0.950 . S
C4569 C4564 1.363 . S
C4569 C4568 1.415 . S
H4570 C4567 0.999 . S
H4571 C4552 0.913 . S
H4572 C4590 0.951 . S
H4573 C4592 0.951 . S
H4574 C4594 0.950 . S
H4575 C4595 0.950 . S
H4576 C4597 0.950 . S
H4577 C4600 0.950 . S
H4578 C4601 0.950 . S
H4579 C4603 0.950 . S
H4580 C4604 0.950 . S
H4581 C4605 0.951 . S
H4582 C4607 0.951 . S
H4583 C4609 0.950 . S
H4584 C4610 0.950 . S
H4585 C4612 0.950 . S
H4586 C4615 0.950 . S
H4587 C4616 0.950 . S
H4588 C4618 0.950 . S
H4589 C4619 0.950 . S
C4590 H4572 0.951 . S
C4590 C4591 1.366 . S
C4590 C4592 1.388 . S
C4591 C4590 1.366 . S
C4591 C4595 1.385 . S
C4592 H4573 0.951 . S
C4592 C4590 1.388 . S
C4592 C4593 1.366 . S
C4593 C4592 1.366 . S
C4593 C4594 1.414 . S
C4593 C4596 1.499 . S
C4594 H4574 0.950 . S
C4594 C4593 1.414 . S
C4594 C4595 1.374 . S
C4595 H4575 0.950 . S
C4595 C4591 1.385 . S
C4595 C4594 1.374 . S
C4596 C4593 1.499 . S
C4596 C4597 1.373 . S
C4596 C4598 1.389 . S
C4597 H4576 0.950 . S
C4597 C4596 1.373 . S
C4597 C4613 1.377 . S
C4598 C4596 1.389 . S
C4598 C4599 1.524 . S
C4598 C4612 1.377 . S
C4599 C4598 1.524 . S
C4599 C4600 1.397 . S
C4599 C4604 1.363 . S
C4600 H4577 0.950 . S
C4600 C4599 1.397 . S
C4600 C4601 1.334 . S
C4601 H4578 0.950 . S
C4601 C4600 1.334 . S
C4601 C4602 1.287 . S
C4602 C4601 1.287 . S
C4602 C4603 1.524 . S
C4602 H4621 0.913 . S
C4603 H4579 0.950 . S
C4603 C4602 1.524 . S
C4603 C4604 1.415 . S
C4604 H4580 0.950 . S
C4604 C4599 1.363 . S
C4604 C4603 1.415 . S
C4605 H4581 0.951 . S
C4605 C4606 1.366 . S
C4605 C4607 1.388 . S
C4606 C4605 1.366 . S
C4606 C4610 1.385 . S
C4607 H4582 0.951 . S
C4607 C4605 1.388 . S
C4607 C4608 1.366 . S
C4608 C4607 1.366 . S
C4608 C4609 1.414 . S
C4608 C4611 1.499 . S
C4609 H4583 0.950 . S
C4609 C4608 1.414 . S
C4609 C4610 1.374 . S
C4610 H4584 0.950 . S
C4610 C4606 1.385 . S
C4610 C4609 1.374 . S
C4611 C4608 1.499 . S
C4611 C4612 1.373 . S
C4611 C4613 1.389 . S
C4612 H4585 0.950 . S
C4612 C4598 1.377 . S
C4612 C4611 1.373 . S
C4613 C4597 1.377 . S
C4613 C4611 1.389 . S
C4613 C4614 1.524 . S
C4614 C4613 1.524 . S
C4614 C4615 1.397 . S
C4614 C4619 1.363 . S
C4615 H4586 0.950 . S
C4615 C4614 1.397 . S
C4615 C4616 1.334 . S
C4616 H4587 0.950 . S
C4616 C4615 1.334 . S
C4616 C4617 1.287 . S
C4617 C4616 1.287 . S
C4617 C4618 1.524 . S
C4617 H4620 0.999 . S
C4618 H4588 0.950 . S
C4618 C4617 1.524 . S
C4618 C4619 1.415 . S
C4619 H4589 0.950 . S
C4619 C4614 1.363 . S
C4619 C4618 1.415 . S
H4620 C4617 0.999 . S
H4621 C4602 0.913 . S
H4622 C4640 0.951 . S
H4623 C4642 0.951 . S
H4624 C4644 0.950 . S
H4625 C4645 0.950 . S
H4626 C4647 0.950 . S
H4627 C4650 0.950 . S
H4628 C4651 0.950 . S
H4629 C4653 0.950 . S
H4630 C4654 0.950 . S
H4631 C4655 0.951 . S
H4632 C4657 0.951 . S
H4633 C4659 0.950 . S
H4634 C4660 0.950 . S
H4635 C4662 0.950 . S
H4636 C4665 0.950 . S
H4637 C4666 0.950 . S
H4638 C4668 0.950 . S
H4639 C4669 0.950 . S
C4640 H4622 0.951 . S
C4640 C4641 1.366 . S
C4640 C4642 1.388 . S
C4641 C4640 1.366 . S
C4641 C4645 1.385 . S
C4642 H4623 0.951 . S
C4642 C4640 1.388 . S
C4642 C4643 1.366 . S
C4643 C4642 1.366 . S
C4643 C4644 1.414 . S
C4643 C4646 1.499 . S
C4644 H4624 0.950 . S
C4644 C4643 1.414 . S
C4644 C4645 1.374 . S
C4645 H4625 0.950 . S
C4645 C4641 1.385 . S
C4645 C4644 1.374 . S
C4646 C4643 1.499 . S
C4646 C4647 1.373 . S
C4646 C4648 1.389 . S
C4647 H4626 0.950 . S
C4647 C4646 1.373 . S
C4647 C4663 1.377 . S
C4648 C4646 1.389 . S
C4648 C4649 1.524 . S
C4648 C4662 1.377 . S
C4649 C4648 1.524 . S
C4649 C4650 1.397 . S
C4649 C4654 1.363 . S
C4650 H4627 0.950 . S
C4650 C4649 1.397 . S
C4650 C4651 1.334 . S
C4651 H4628 0.950 . S
C4651 C4650 1.334 . S
C4651 C4652 1.287 . S
C4652 C4651 1.287 . S
C4652 C4653 1.524 . S
C4652 H4671 0.913 . S
C4653 H4629 0.950 . S
C4653 C4652 1.524 . S
C4653 C4654 1.415 . S
C4654 H4630 0.950 . S
C4654 C4649 1.363 . S
C4654 C4653 1.415 . S
C4655 H4631 0.951 . S
C4655 C4656 1.366 . S
C4655 C4657 1.388 . S
C4656 C4655 1.366 . S
C4656 C4660 1.385 . S
C4657 H4632 0.951 . S
C4657 C4655 1.388 . S
C4657 C4658 1.366 . S
C4658 C4657 1.366 . S
C4658 C4659 1.414 . S
C4658 C4661 1.499 . S
C4659 H4633 0.950 . S
C4659 C4658 1.414 . S
C4659 C4660 1.374 . S
C4660 H4634 0.950 . S
C4660 C4656 1.385 . S
C4660 C4659 1.374 . S
C4661 C4658 1.499 . S
C4661 C4662 1.373 . S
C4661 C4663 1.389 . S
C4662 H4635 0.950 . S
C4662 C4648 1.377 . S
C4662 C4661 1.373 . S
C4663 C4647 1.377 . S
C4663 C4661 1.389 . S
C4663 C4664 1.524 . S
C4664 C4663 1.524 . S
C4664 C4665 1.397 . S
C4664 C4669 1.363 . S
C4665 H4636 0.950 . S
C4665 C4664 1.397 . S
C4665 C4666 1.334 . S
C4666 H4637 0.950 . S
C4666 C4665 1.334 . S
C4666 C4667 1.287 . S
C4667 C4666 1.287 . S
C4667 C4668 1.524 . S
C4667 H4670 0.999 . S
C4668 H4638 0.950 . S
C4668 C4667 1.524 . S
C4668 C4669 1.415 . S
C4669 H4639 0.950 . S
C4669 C4664 1.363 . S
C4669 C4668 1.415 . S
H4670 C4667 0.999 . S
H4671 C4652 0.913 . S
H4672 C4690 0.951 . S
H4673 C4692 0.951 . S
H4674 C4694 0.950 . S
H4675 C4695 0.950 . S
H4676 C4697 0.950 . S
H4677 C4700 0.950 . S
H4678 C4701 0.950 . S
H4679 C4703 0.950 . S
H4680 C4704 0.950 . S
H4681 C4705 0.951 . S
H4682 C4707 0.951 . S
H4683 C4709 0.950 . S
H4684 C4710 0.950 . S
H4685 C4712 0.950 . S
H4686 C4715 0.950 . S
H4687 C4716 0.950 . S
H4688 C4718 0.950 . S
H4689 C4719 0.950 . S
C4690 H4672 0.951 . S
C4690 C4691 1.366 . S
C4690 C4692 1.388 . S
C4691 C4690 1.366 . S
C4691 C4695 1.385 . S
C4692 H4673 0.951 . S
C4692 C4690 1.388 . S
C4692 C4693 1.366 . S
C4693 C4692 1.366 . S
C4693 C4694 1.414 . S
C4693 C4696 1.499 . S
C4694 H4674 0.950 . S
C4694 C4693 1.414 . S
C4694 C4695 1.374 . S
C4695 H4675 0.950 . S
C4695 C4691 1.385 . S
C4695 C4694 1.374 . S
C4696 C4693 1.499 . S
C4696 C4697 1.373 . S
C4696 C4698 1.389 . S
C4697 H4676 0.950 . S
C4697 C4696 1.373 . S
C4697 C4713 1.377 . S
C4698 C4696 1.389 . S
C4698 C4699 1.524 . S
C4698 C4712 1.377 . S
C4699 C4698 1.524 . S
C4699 C4700 1.397 . S
C4699 C4704 1.363 . S
C4700 H4677 0.950 . S
C4700 C4699 1.397 . S
C4700 C4701 1.334 . S
C4701 H4678 0.950 . S
C4701 C4700 1.334 . S
C4701 C4702 1.287 . S
C4702 C4701 1.287 . S
C4702 C4703 1.524 . S
C4702 H4721 0.913 . S
C4703 H4679 0.950 . S
C4703 C4702 1.524 . S
C4703 C4704 1.415 . S
C4704 H4680 0.950 . S
C4704 C4699 1.363 . S
C4704 C4703 1.415 . S
C4705 H4681 0.951 . S
C4705 C4706 1.366 . S
C4705 C4707 1.388 . S
C4706 C4705 1.366 . S
C4706 C4710 1.385 . S
C4707 H4682 0.951 . S
C4707 C4705 1.388 . S
C4707 C4708 1.366 . S
C4708 C4707 1.366 . S
C4708 C4709 1.414 . S
C4708 C4711 1.499 . S
C4709 H4683 0.950 . S
C4709 C4708 1.414 . S
C4709 C4710 1.374 . S
C4710 H4684 0.950 . S
C4710 C4706 1.385 . S
C4710 C4709 1.374 . S
C4711 C4708 1.499 . S
C4711 C4712 1.373 . S
C4711 C4713 1.389 . S
C4712 H4685 0.950 . S
C4712 C4698 1.377 . S
C4712 C4711 1.373 . S
C4713 C4697 1.377 . S
C4713 C4711 1.389 . S
C4713 C4714 1.524 . S
C4714 C4713 1.524 . S
C4714 C4715 1.397 . S
C4714 C4719 1.363 . S
C4715 H4686 0.950 . S
C4715 C4714 1.397 . S
C4715 C4716 1.334 . S
C4716 H4687 0.950 . S
C4716 C4715 1.334 . S
C4716 C4717 1.287 . S
C4717 C4716 1.287 . S
C4717 C4718 1.524 . S
C4717 H4720 0.999 . S
C4718 H4688 0.950 . S
C4718 C4717 1.524 . S
C4718 C4719 1.415 . S
C4719 H4689 0.950 . S
C4719 C4714 1.363 . S
C4719 C4718 1.415 . S
H4720 C4717 0.999 . S
H4721 C4702 0.913 . S
H4722 C4740 0.951 . S
H4723 C4742 0.951 . S
H4724 C4744 0.950 . S
H4725 C4745 0.950 . S
H4726 C4747 0.950 . S
H4727 C4750 0.950 . S
H4728 C4751 0.950 . S
H4729 C4753 0.950 . S
H4730 C4754 0.950 . S
H4731 C4755 0.951 . S
H4732 C4757 0.951 . S
H4733 C4759 0.950 . S
H4734 C4760 0.950 . S
H4735 C4762 0.950 . S
H4736 C4765 0.950 . S
H4737 C4766 0.950 . S
H4738 C4768 0.950 . S
H4739 C4769 0.950 . S
C4740 H4722 0.951 . S
C4740 C4741 1.366 . S
C4740 C4742 1.388 . S
C4741 C4740 1.366 . S
C4741 C4745 1.385 . S
C4742 H4723 0.951 . S
C4742 C4740 1.388 . S
C4742 C4743 1.366 . S
C4743 C4742 1.366 . S
C4743 C4744 1.414 . S
C4743 C4746 1.499 . S
C4744 H4724 0.950 . S
C4744 C4743 1.414 . S
C4744 C4745 1.374 . S
C4745 H4725 0.950 . S
C4745 C4741 1.385 . S
C4745 C4744 1.374 . S
C4746 C4743 1.499 . S
C4746 C4747 1.373 . S
C4746 C4748 1.389 . S
C4747 H4726 0.950 . S
C4747 C4746 1.373 . S
C4747 C4763 1.377 . S
C4748 C4746 1.389 . S
C4748 C4749 1.524 . S
C4748 C4762 1.377 . S
C4749 C4748 1.524 . S
C4749 C4750 1.397 . S
C4749 C4754 1.363 . S
C4750 H4727 0.950 . S
C4750 C4749 1.397 . S
C4750 C4751 1.334 . S
C4751 H4728 0.950 . S
C4751 C4750 1.334 . S
C4751 C4752 1.287 . S
C4752 C4751 1.287 . S
C4752 C4753 1.524 . S
C4752 H4771 0.913 . S
C4753 H4729 0.950 . S
C4753 C4752 1.524 . S
C4753 C4754 1.415 . S
C4754 H4730 0.950 . S
C4754 C4749 1.363 . S
C4754 C4753 1.415 . S
C4755 H4731 0.951 . S
C4755 C4756 1.366 . S
C4755 C4757 1.388 . S
C4756 C4755 1.366 . S
C4756 C4760 1.385 . S
C4757 H4732 0.951 . S
C4757 C4755 1.388 . S
C4757 C4758 1.366 . S
C4758 C4757 1.366 . S
C4758 C4759 1.414 . S
C4758 C4761 1.499 . S
C4759 H4733 0.950 . S
C4759 C4758 1.414 . S
C4759 C4760 1.374 . S
C4760 H4734 0.950 . S
C4760 C4756 1.385 . S
C4760 C4759 1.374 . S
C4761 C4758 1.499 . S
C4761 C4762 1.373 . S
C4761 C4763 1.389 . S
C4762 H4735 0.950 . S
C4762 C4748 1.377 . S
C4762 C4761 1.373 . S
C4763 C4747 1.377 . S
C4763 C4761 1.389 . S
C4763 C4764 1.524 . S
C4764 C4763 1.524 . S
C4764 C4765 1.397 . S
C4764 C4769 1.363 . S
C4765 H4736 0.950 . S
C4765 C4764 1.397 . S
C4765 C4766 1.334 . S
C4766 H4737 0.950 . S
C4766 C4765 1.334 . S
C4766 C4767 1.287 . S
C4767 C4766 1.287 . S
C4767 C4768 1.524 . S
C4767 H4770 0.999 . S
C4768 H4738 0.950 . S
C4768 C4767 1.524 . S
C4768 C4769 1.415 . S
C4769 H4739 0.950 . S
C4769 C4764 1.363 . S
C4769 C4768 1.415 . S
H4770 C4767 0.999 . S
H4771 C4752 0.913 . S
H4772 C4790 0.951 . S
H4773 C4792 0.951 . S
H4774 C4794 0.950 . S
H4775 C4795 0.950 . S
H4776 C4797 0.950 . S
H4777 C4800 0.950 . S
H4778 C4801 0.950 . S
H4779 C4803 0.950 . S
H4780 C4804 0.950 . S
H4781 C4805 0.951 . S
H4782 C4807 0.951 . S
H4783 C4809 0.950 . S
H4784 C4810 0.950 . S
H4785 C4812 0.950 . S
H4786 C4815 0.950 . S
H4787 C4816 0.950 . S
H4788 C4818 0.950 . S
H4789 C4819 0.950 . S
C4790 H4772 0.951 . S
C4790 C4791 1.366 . S
C4790 C4792 1.388 . S
C4791 C4790 1.366 . S
C4791 C4795 1.385 . S
C4792 H4773 0.951 . S
C4792 C4790 1.388 . S
C4792 C4793 1.366 . S
C4793 C4792 1.366 . S
C4793 C4794 1.414 . S
C4793 C4796 1.499 . S
C4794 H4774 0.950 . S
C4794 C4793 1.414 . S
C4794 C4795 1.374 . S
C4795 H4775 0.950 . S
C4795 C4791 1.385 . S
C4795 C4794 1.374 . S
C4796 C4793 1.499 . S
C4796 C4797 1.373 . S
C4796 C4798 1.389 . S
C4797 H4776 0.950 . S
C4797 C4796 1.373 . S
C4797 C4813 1.377 . S
C4798 C4796 1.389 . S
C4798 C4799 1.524 . S
C4798 C4812 1.377 . S
C4799 C4798 1.524 . S
C4799 C4800 1.397 . S
C4799 C4804 1.363 . S
C4800 H4777 0.950 . S
C4800 C4799 1.397 . S
C4800 C4801 1.334 . S
C4801 H4778 0.950 . S
C4801 C4800 1.334 . S
C4801 C4802 1.287 . S
C4802 C4801 1.287 . S
C4802 C4803 1.524 . S
C4802 H4821 0.913 . S
C4803 H4779 0.950 . S
C4803 C4802 1.524 . S
C4803 C4804 1.415 . S
C4804 H4780 0.950 . S
C4804 C4799 1.363 . S
C4804 C4803 1.415 . S
C4805 H4781 0.951 . S
C4805 C4806 1.366 . S
C4805 C4807 1.388 . S
C4806 C4805 1.366 . S
C4806 C4810 1.385 . S
C4807 H4782 0.951 . S
C4807 C4805 1.388 . S
C4807 C4808 1.366 . S
C4808 C4807 1.366 . S
C4808 C4809 1.414 . S
C4808 C4811 1.499 . S
C4809 H4783 0.950 . S
C4809 C4808 1.414 . S
C4809 C4810 1.374 . S
C4810 H4784 0.950 . S
C4810 C4806 1.385 . S
C4810 C4809 1.374 . S
C4811 C4808 1.499 . S
C4811 C4812 1.373 . S
C4811 C4813 1.389 . S
C4812 H4785 0.950 . S
C4812 C4798 1.377 . S
C4812 C4811 1.373 . S
C4813 C4797 1.377 . S
C4813 C4811 1.389 . S
C4813 C4814 1.524 . S
C4814 C4813 1.524 . S
C4814 C4815 1.397 . S
C4814 C4819 1.363 . S
C4815 H4786 0.950 . S
C4815 C4814 1.397 . S
C4815 C4816 1.334 . S
C4816 H4787 0.950 . S
C4816 C4815 1.334 . S
C4816 C4817 1.287 . S
C4817 C4816 1.287 . S
C4817 C4818 1.524 . S
C4817 H4820 0.999 . S
C4818 H4788 0.950 . S
C4818 C4817 1.524 . S
C4818 C4819 1.415 . S
C4819 H4789 0.950 . S
C4819 C4814 1.363 . S
C4819 C4818 1.415 . S
H4820 C4817 0.999 . S
H4821 C4802 0.913 . S
H4822 C4840 0.951 . S
H4823 C4842 0.951 . S
H4824 C4844 0.950 . S
H4825 C4845 0.950 . S
H4826 C4847 0.950 . S
H4827 C4850 0.950 . S
H4828 C4851 0.950 . S
H4829 C4853 0.950 . S
H4830 C4854 0.950 . S
H4831 C4855 0.951 . S
H4832 C4857 0.951 . S
H4833 C4859 0.950 . S
H4834 C4860 0.950 . S
H4835 C4862 0.950 . S
H4836 C4865 0.950 . S
H4837 C4866 0.950 . S
H4838 C4868 0.950 . S
H4839 C4869 0.950 . S
C4840 H4822 0.951 . S
C4840 C4841 1.366 . S
C4840 C4842 1.388 . S
C4841 C4840 1.366 . S
C4841 C4845 1.385 . S
C4842 H4823 0.951 . S
C4842 C4840 1.388 . S
C4842 C4843 1.366 . S
C4843 C4842 1.366 . S
C4843 C4844 1.414 . S
C4843 C4846 1.499 . S
C4844 H4824 0.950 . S
C4844 C4843 1.414 . S
C4844 C4845 1.374 . S
C4845 H4825 0.950 . S
C4845 C4841 1.385 . S
C4845 C4844 1.374 . S
C4846 C4843 1.499 . S
C4846 C4847 1.373 . S
C4846 C4848 1.389 . S
C4847 H4826 0.950 . S
C4847 C4846 1.373 . S
C4847 C4863 1.377 . S
C4848 C4846 1.389 . S
C4848 C4849 1.524 . S
C4848 C4862 1.377 . S
C4849 C4848 1.524 . S
C4849 C4850 1.397 . S
C4849 C4854 1.363 . S
C4850 H4827 0.950 . S
C4850 C4849 1.397 . S
C4850 C4851 1.334 . S
C4851 H4828 0.950 . S
C4851 C4850 1.334 . S
C4851 C4852 1.287 . S
C4852 C4851 1.287 . S
C4852 C4853 1.524 . S
C4852 H4871 0.913 . S
C4853 H4829 0.950 . S
C4853 C4852 1.524 . S
C4853 C4854 1.415 . S
C4854 H4830 0.950 . S
C4854 C4849 1.363 . S
C4854 C4853 1.415 . S
C4855 H4831 0.951 . S
C4855 C4856 1.366 . S
C4855 C4857 1.388 . S
C4856 C4855 1.366 . S
C4856 C4860 1.385 . S
C4857 H4832 0.951 . S
C4857 C4855 1.388 . S
C4857 C4858 1.366 . S
C4858 C4857 1.366 . S
C4858 C4859 1.414 . S
C4858 C4861 1.499 . S
C4859 H4833 0.950 . S
C4859 C4858 1.414 . S
C4859 C4860 1.374 . S
C4860 H4834 0.950 . S
C4860 C4856 1.385 . S
C4860 C4859 1.374 . S
C4861 C4858 1.499 . S
C4861 C4862 1.373 . S
C4861 C4863 1.389 . S
C4862 H4835 0.950 . S
C4862 C4848 1.377 . S
C4862 C4861 1.373 . S
C4863 C4847 1.377 . S
C4863 C4861 1.389 . S
C4863 C4864 1.524 . S
C4864 C4863 1.524 . S
C4864 C4865 1.397 . S
C4864 C4869 1.363 . S
C4865 H4836 0.950 . S
C4865 C4864 1.397 . S
C4865 C4866 1.334 . S
C4866 H4837 0.950 . S
C4866 C4865 1.334 . S
C4866 C4867 1.287 . S
C4867 C4866 1.287 . S
C4867 C4868 1.524 . S
C4867 H4870 0.999 . S
C4868 H4838 0.950 . S
C4868 C4867 1.524 . S
C4868 C4869 1.415 . S
C4869 H4839 0.950 . S
C4869 C4864 1.363 . S
C4869 C4868 1.415 . S
H4870 C4867 0.999 . S
H4871 C4852 0.913 . S
H4872 C4890 0.951 . S
H4873 C4892 0.951 . S
H4874 C4894 0.950 . S
H4875 C4895 0.950 . S
H4876 C4897 0.950 . S
H4877 C4900 0.950 . S
H4878 C4901 0.950 . S
H4879 C4903 0.950 . S
H4880 C4904 0.950 . S
H4881 C4905 0.951 . S
H4882 C4907 0.951 . S
H4883 C4909 0.950 . S
H4884 C4910 0.950 . S
H4885 C4912 0.950 . S
H4886 C4915 0.950 . S
H4887 C4916 0.950 . S
H4888 C4918 0.950 . S
H4889 C4919 0.950 . S
C4890 H4872 0.951 . S
C4890 C4891 1.366 . S
C4890 C4892 1.388 . S
C4891 C4890 1.366 . S
C4891 C4895 1.385 . S
C4892 H4873 0.951 . S
C4892 C4890 1.388 . S
C4892 C4893 1.366 . S
C4893 C4892 1.366 . S
C4893 C4894 1.414 . S
C4893 C4896 1.499 . S
C4894 H4874 0.950 . S
C4894 C4893 1.414 . S
C4894 C4895 1.374 . S
C4895 H4875 0.950 . S
C4895 C4891 1.385 . S
C4895 C4894 1.374 . S
C4896 C4893 1.499 . S
C4896 C4897 1.373 . S
C4896 C4898 1.389 . S
C4897 H4876 0.950 . S
C4897 C4896 1.373 . S
C4897 C4913 1.377 . S
C4898 C4896 1.389 . S
C4898 C4899 1.524 . S
C4898 C4912 1.377 . S
C4899 C4898 1.524 . S
C4899 C4900 1.397 . S
C4899 C4904 1.363 . S
C4900 H4877 0.950 . S
C4900 C4899 1.397 . S
C4900 C4901 1.334 . S
C4901 H4878 0.950 . S
C4901 C4900 1.334 . S
C4901 C4902 1.287 . S
C4902 C4901 1.287 . S
C4902 C4903 1.524 . S
C4902 H4921 0.913 . S
C4903 H4879 0.950 . S
C4903 C4902 1.524 . S
C4903 C4904 1.415 . S
C4904 H4880 0.950 . S
C4904 C4899 1.363 . S
C4904 C4903 1.415 . S
C4905 H4881 0.951 . S
C4905 C4906 1.366 . S
C4905 C4907 1.388 . S
C4906 C4905 1.366 . S
C4906 C4910 1.385 . S
C4907 H4882 0.951 . S
C4907 C4905 1.388 . S
C4907 C4908 1.366 . S
C4908 C4907 1.366 . S
C4908 C4909 1.414 . S
C4908 C4911 1.499 . S
C4909 H4883 0.950 . S
C4909 C4908 1.414 . S
C4909 C4910 1.374 . S
C4910 H4884 0.950 . S
C4910 C4906 1.385 . S
C4910 C4909 1.374 . S
C4911 C4908 1.499 . S
C4911 C4912 1.373 . S
C4911 C4913 1.389 . S
C4912 H4885 0.950 . S
C4912 C4898 1.377 . S
C4912 C4911 1.373 . S
C4913 C4897 1.377 . S
C4913 C4911 1.389 . S
C4913 C4914 1.524 . S
C4914 C4913 1.524 . S
C4914 C4915 1.397 . S
C4914 C4919 1.363 . S
C4915 H4886 0.950 . S
C4915 C4914 1.397 . S
C4915 C4916 1.334 . S
C4916 H4887 0.950 . S
C4916 C4915 1.334 . S
C4916 C4917 1.287 . S
C4917 C4916 1.287 . S
C4917 C4918 1.524 . S
C4917 H4920 0.999 . S
C4918 H4888 0.950 . S
C4918 C4917 1.524 . S
C4918 C4919 1.415 . S
C4919 H4889 0.950 . S
C4919 C4914 1.363 . S
C4919 C4918 1.415 . S
H4920 C4917 0.999 . S
H4921 C4902 0.913 . S
H4922 C4940 0.951 . S
H4923 C4942 0.951 . S
H4924 C4944 0.950 . S
H4925 C4945 0.950 . S
H4926 C4947 0.950 . S
H4927 C4950 0.950 . S
H4928 C4951 0.950 . S
H4929 C4953 0.950 . S
H4930 C4954 0.950 . S
H4931 C4955 0.951 . S
H4932 C4957 0.951 . S
H4933 C4959 0.950 . S
H4934 C4960 0.950 . S
H4935 C4962 0.950 . S
H4936 C4965 0.950 . S
H4937 C4966 0.950 . S
H4938 C4968 0.950 . S
H4939 C4969 0.950 . S
C4940 H4922 0.951 . S
C4940 C4941 1.366 . S
C4940 C4942 1.388 . S
C4941 C4940 1.366 . S
C4941 C4945 1.385 . S
C4942 H4923 0.951 . S
C4942 C4940 1.388 . S
C4942 C4943 1.366 . S
C4943 C4942 1.366 . S
C4943 C4944 1.414 . S
C4943 C4946 1.499 . S
C4944 H4924 0.950 . S
C4944 C4943 1.414 . S
C4944 C4945 1.374 . S
C4945 H4925 0.950 . S
C4945 C4941 1.385 . S
C4945 C4944 1.374 . S
C4946 C4943 1.499 . S
C4946 C4947 1.373 . S
C4946 C4948 1.389 . S
C4947 H4926 0.950 . S
C4947 C4946 1.373 . S
C4947 C4963 1.377 . S
C4948 C4946 1.389 . S
C4948 C4949 1.524 . S
C4948 C4962 1.377 . S
C4949 C4948 1.524 . S
C4949 C4950 1.397 . S
C4949 C4954 1.363 . S
C4950 H4927 0.950 . S
C4950 C4949 1.397 . S
C4950 C4951 1.334 . S
C4951 H4928 0.950 . S
C4951 C4950 1.334 . S
C4951 C4952 1.287 . S
C4952 C4951 1.287 . S
C4952 C4953 1.524 . S
C4952 H4971 0.913 . S
C4953 H4929 0.950 . S
C4953 C4952 1.524 . S
C4953 C4954 1.415 . S
C4954 H4930 0.950 . S
C4954 C4949 1.363 . S
C4954 C4953 1.415 . S
C4955 H4931 0.951 . S
C4955 C4956 1.366 . S
C4955 C4957 1.388 . S
C4956 C4955 1.366 . S
C4956 C4960 1.385 . S
C4957 H4932 0.951 . S
C4957 C4955 1.388 . S
C4957 C4958 1.366 . S
C4958 C4957 1.366 . S
C4958 C4959 1.414 . S
C4958 C4961 1.499 . S
C4959 H4933 0.950 . S
C4959 C4958 1.414 . S
C4959 C4960 1.374 . S
C4960 H4934 0.950 . S
C4960 C4956 1.385 . S
C4960 C4959 1.374 . S
C4961 C4958 1.499 . S
C4961 C4962 1.373 . S
C4961 C4963 1.389 . S
C4962 H4935 0.950 . S
C4962 C4948 1.377 . S
C4962 C4961 1.373 . S
C4963 C4947 1.377 . S
C4963 C4961 1.389 . S
C4963 C4964 1.524 . S
C4964 C4963 1.524 . S
C4964 C4965 1.397 . S
C4964 C4969 1.363 . S
C4965 H4936 0.950 . S
C4965 C4964 1.397 . S
C4965 C4966 1.334 . S
C4966 H4937 0.950 . S
C4966 C4965 1.334 . S
C4966 C4967 1.287 . S
C4967 C4966 1.287 . S
C4967 C4968 1.524 . S
C4967 H4970 0.999 . S
C4968 H4938 0.950 . S
C4968 C4967 1.524 . S
C4968 C4969 1.415 . S
C4969 H4939 0.950 . S
C4969 C4964 1.363 . S
C4969 C4968 1.415 . S
H4970 C4967 0.999 . S
H4971 C4952 0.913 . S
H4972 C4990 0.951 . S
H4973 C4992 0.951 . S
H4974 C4994 0.950 . S
H4975 C4995 0.950 . S
H4976 C4997 0.950 . S
H4977 C5000 0.950 . S
H4978 C5001 0.950 . S
H4979 C5003 0.950 . S
H4980 C5004 0.950 . S
H4981 C5005 0.951 . S
H4982 C5007 0.951 . S
H4983 C5009 0.950 . S
H4984 C5010 0.950 . S
H4985 C5012 0.950 . S
H4986 C5015 0.950 . S
H4987 C5016 0.950 . S
H4988 C5018 0.950 . S
H4989 C5019 0.950 . S
C4990 H4972 0.951 . S
C4990 C4991 1.366 . S
C4990 C4992 1.388 . S
C4991 C4990 1.366 . S
C4991 C4995 1.385 . S
C4992 H4973 0.951 . S
C4992 C4990 1.388 . S
C4992 C4993 1.366 . S
C4993 C4992 1.366 . S
C4993 C4994 1.414 . S
C4993 C4996 1.499 . S
C4994 H4974 0.950 . S
C4994 C4993 1.414 . S
C4994 C4995 1.374 . S
C4995 H4975 0.950 . S
C4995 C4991 1.385 . S
C4995 C4994 1.374 . S
C4996 C4993 1.499 . S
C4996 C4997 1.373 . S
C4996 C4998 1.389 . S
C4997 H4976 0.950 . S
C4997 C4996 1.373 . S
C4997 C5013 1.377 . S
C4998 C4996 1.389 . S
C4998 C4999 1.524 . S
C4998 C5012 1.377 . S
C4999 C4998 1.524 . S
C4999 C5000 1.397 . S
C4999 C5004 1.363 . S
C5000 H4977 0.950 . S
C5000 C4999 1.397 . S
C5000 C5001 1.334 . S
C5001 H4978 0.950 . S
C5001 C5000 1.334 . S
C5001 C5002 1.287 . S
C5002 C5001 1.287 . S
C5002 C5003 1.524 . S
C5002 H5021 0.913 . S
C5003 H4979 0.950 . S
C5003 C5002 1.524 . S
C5003 C5004 1.415 . S
C5004 H4980 0.950 . S
C5004 C4999 1.363 . S
C5004 C5003 1.415 . S
C5005 H4981 0.951 . S
C5005 C5006 1.366 . S
C5005 C5007 1.388 . S
C5006 C5005 1.366 . S
C5006 C5010 1.385 . S
C5007 H4982 0.951 . S
C5007 C5005 1.388 . S
C5007 C5008 1.366 . S
C5008 C5007 1.366 . S
C5008 C5009 1.414 . S
C5008 C5011 1.499 . S
C5009 H4983 0.950 . S
C5009 C5008 1.414 . S
C5009 C5010 1.374 . S
C5010 H4984 0.950 . S
C5010 C5006 1.385 . S
C5010 C5009 1.374 . S
C5011 C5008 1.499 . S
C5011 C5012 1.373 . S
C5011 C5013 1.389 . S
C5012 H4985 0.950 . S
C5012 C4998 1.377 . S
C5012 C5011 1.373 . S
C5013 C4997 1.377 . S
C5013 C5011 1.389 . S
C5013 C5014 1.524 . S
C5014 C5013 1.524 . S
C5014 C5015 1.397 . S
C5014 C5019 1.363 . S
C5015 H4986 0.950 . S
C5015 C5014 1.397 . S
C5015 C5016 1.334 . S
C5016 H4987 0.950 . S
C5016 C5015 1.334 . S
C5016 C5017 1.287 . S
C5017 C5016 1.287 . S
C5017 C5018 1.524 . S
C5017 H5020 0.999 . S
C5018 H4988 0.950 . S
C5018 C5017 1.524 . S
C5018 C5019 1.415 . S
C5019 H4989 0.950 . S
C5019 C5014 1.363 . S
C5019 C5018 1.415 . S
H5020 C5017 0.999 . S
H5021 C5002 0.913 . S
H5022 C5040 0.951 . S
H5023 C5042 0.951 . S
H5024 C5044 0.950 . S
H5025 C5045 0.950 . S
H5026 C5047 0.950 . S
H5027 C5050 0.950 . S
H5028 C5051 0.950 . S
H5029 C5053 0.950 . S
H5030 C5054 0.950 . S
H5031 C5055 0.951 . S
H5032 C5057 0.951 . S
H5033 C5059 0.950 . S
H5034 C5060 0.950 . S
H5035 C5062 0.950 . S
H5036 C5065 0.950 . S
H5037 C5066 0.950 . S
H5038 C5068 0.950 . S
H5039 C5069 0.950 . S
C5040 H5022 0.951 . S
C5040 C5041 1.366 . S
C5040 C5042 1.388 . S
C5041 C5040 1.366 . S
C5041 C5045 1.385 . S
C5042 H5023 0.951 . S
C5042 C5040 1.388 . S
C5042 C5043 1.366 . S
C5043 C5042 1.366 . S
C5043 C5044 1.414 . S
C5043 C5046 1.499 . S
C5044 H5024 0.950 . S
C5044 C5043 1.414 . S
C5044 C5045 1.374 . S
C5045 H5025 0.950 . S
C5045 C5041 1.385 . S
C5045 C5044 1.374 . S
C5046 C5043 1.499 . S
C5046 C5047 1.373 . S
C5046 C5048 1.389 . S
C5047 H5026 0.950 . S
C5047 C5046 1.373 . S
C5047 C5063 1.377 . S
C5048 C5046 1.389 . S
C5048 C5049 1.524 . S
C5048 C5062 1.377 . S
C5049 C5048 1.524 . S
C5049 C5050 1.397 . S
C5049 C5054 1.363 . S
C5050 H5027 0.950 . S
C5050 C5049 1.397 . S
C5050 C5051 1.334 . S
C5051 H5028 0.950 . S
C5051 C5050 1.334 . S
C5051 C5052 1.287 . S
C5052 C5051 1.287 . S
C5052 C5053 1.524 . S
C5052 H5071 0.913 . S
C5053 H5029 0.950 . S
C5053 C5052 1.524 . S
C5053 C5054 1.415 . S
C5054 H5030 0.950 . S
C5054 C5049 1.363 . S
C5054 C5053 1.415 . S
C5055 H5031 0.951 . S
C5055 C5056 1.366 . S
C5055 C5057 1.388 . S
C5056 C5055 1.366 . S
C5056 C5060 1.385 . S
C5057 H5032 0.951 . S
C5057 C5055 1.388 . S
C5057 C5058 1.366 . S
C5058 C5057 1.366 . S
C5058 C5059 1.414 . S
C5058 C5061 1.499 . S
C5059 H5033 0.950 . S
C5059 C5058 1.414 . S
C5059 C5060 1.374 . S
C5060 H5034 0.950 . S
C5060 C5056 1.385 . S
C5060 C5059 1.374 . S
C5061 C5058 1.499 . S
C5061 C5062 1.373 . S
C5061 C5063 1.389 . S
C5062 H5035 0.950 . S
C5062 C5048 1.377 . S
C5062 C5061 1.373 . S
C5063 C5047 1.377 . S
C5063 C5061 1.389 . S
C5063 C5064 1.524 . S
C5064 C5063 1.524 . S
C5064 C5065 1.397 . S
C5064 C5069 1.363 . S
C5065 H5036 0.950 . S
C5065 C5064 1.397 . S
C5065 C5066 1.334 . S
C5066 H5037 0.950 . S
C5066 C5065 1.334 . S
C5066 C5067 1.287 . S
C5067 C5066 1.287 . S
C5067 C5068 1.524 . S
C5067 H5070 0.999 . S
C5068 H5038 0.950 . S
C5068 C5067 1.524 . S
C5068 C5069 1.415 . S
C5069 H5039 0.950 . S
C5069 C5064 1.363 . S
C5069 C5068 1.415 . S
H5070 C5067 0.999 . S
H5071 C5052 0.913 . S
H5072 C5090 0.951 . S
H5073 C5092 0.951 . S
H5074 C5094 0.950 . S
H5075 C5095 0.950 . S
H5076 C5097 0.950 . S
H5077 C5100 0.950 . S
H5078 C5101 0.950 . S
H5079 C5103 0.950 . S
H5080 C5104 0.950 . S
H5081 C5105 0.951 . S
H5082 C5107 0.951 . S
H5083 C5109 0.950 . S
H5084 C5110 0.950 . S
H5085 C5112 0.950 . S
H5086 C5115 0.950 . S
H5087 C5116 0.950 . S
H5088 C5118 0.950 . S
H5089 C5119 0.950 . S
C5090 H5072 0.951 . S
C5090 C5091 1.366 . S
C5090 C5092 1.388 . S
C5091 C5090 1.366 . S
C5091 C5095 1.385 . S
C5092 H5073 0.951 . S
C5092 C5090 1.388 . S
C5092 C5093 1.366 . S
C5093 C5092 1.366 . S
C5093 C5094 1.414 . S
C5093 C5096 1.499 . S
C5094 H5074 0.950 . S
C5094 C5093 1.414 . S
C5094 C5095 1.374 . S
C5095 H5075 0.950 . S
C5095 C5091 1.385 . S
C5095 C5094 1.374 . S
C5096 C5093 1.499 . S
C5096 C5097 1.373 . S
C5096 C5098 1.389 . S
C5097 H5076 0.950 . S
C5097 C5096 1.373 . S
C5097 C5113 1.377 . S
C5098 C5096 1.389 . S
C5098 C5099 1.524 . S
C5098 C5112 1.377 . S
C5099 C5098 1.524 . S
C5099 C5100 1.397 . S
C5099 C5104 1.363 . S
C5100 H5077 0.950 . S
C5100 C5099 1.397 . S
C5100 C5101 1.334 . S
C5101 H5078 0.950 . S
C5101 C5100 1.334 . S
C5101 C5102 1.287 . S
C5102 C5101 1.287 . S
C5102 C5103 1.524 . S
C5102 H5121 0.913 . S
C5103 H5079 0.950 . S
C5103 C5102 1.524 . S
C5103 C5104 1.415 . S
C5104 H5080 0.950 . S
C5104 C5099 1.363 . S
C5104 C5103 1.415 . S
C5105 H5081 0.951 . S
C5105 C5106 1.366 . S
C5105 C5107 1.388 . S
C5106 C5105 1.366 . S
C5106 C5110 1.385 . S
C5107 H5082 0.951 . S
C5107 C5105 1.388 . S
C5107 C5108 1.366 . S
C5108 C5107 1.366 . S
C5108 C5109 1.414 . S
C5108 C5111 1.499 . S
C5109 H5083 0.950 . S
C5109 C5108 1.414 . S
C5109 C5110 1.374 . S
C5110 H5084 0.950 . S
C5110 C5106 1.385 . S
C5110 C5109 1.374 . S
C5111 C5108 1.499 . S
C5111 C5112 1.373 . S
C5111 C5113 1.389 . S
C5112 H5085 0.950 . S
C5112 C5098 1.377 . S
C5112 C5111 1.373 . S
C5113 C5097 1.377 . S
C5113 C5111 1.389 . S
C5113 C5114 1.524 . S
C5114 C5113 1.524 . S
C5114 C5115 1.397 . S
C5114 C5119 1.363 . S
C5115 H5086 0.950 . S
C5115 C5114 1.397 . S
C5115 C5116 1.334 . S
C5116 H5087 0.950 . S
C5116 C5115 1.334 . S
C5116 C5117 1.287 . S
C5117 C5116 1.287 . S
C5117 C5118 1.524 . S
C5117 H5120 0.999 . S
C5118 H5088 0.950 . S
C5118 C5117 1.524 . S
C5118 C5119 1.415 . S
C5119 H5089 0.950 . S
C5119 C5114 1.363 . S
C5119 C5118 1.415 . S
H5120 C5117 0.999 . S
H5121 C5102 0.913 . S
H5122 C5140 0.951 . S
H5123 C5142 0.951 . S
H5124 C5144 0.950 . S
H5125 C5145 0.950 . S
H5126 C5147 0.950 . S
H5127 C5150 0.950 . S
H5128 C5151 0.950 . S
H5129 C5153 0.950 . S
H5130 C5154 0.950 . S
H5131 C5155 0.951 . S
H5132 C5157 0.951 . S
H5133 C5159 0.950 . S
H5134 C5160 0.950 . S
H5135 C5162 0.950 . S
H5136 C5165 0.950 . S
H5137 C5166 0.950 . S
H5138 C5168 0.950 . S
H5139 C5169 0.950 . S
C5140 H5122 0.951 . S
C5140 C5141 1.366 . S
C5140 C5142 1.388 . S
C5141 C5140 1.366 . S
C5141 C5145 1.385 . S
C5142 H5123 0.951 . S
C5142 C5140 1.388 . S
C5142 C5143 1.366 . S
C5143 C5142 1.366 . S
C5143 C5144 1.414 . S
C5143 C5146 1.499 . S
C5144 H5124 0.950 . S
C5144 C5143 1.414 . S
C5144 C5145 1.374 . S
C5145 H5125 0.950 . S
C5145 C5141 1.385 . S
C5145 C5144 1.374 . S
C5146 C5143 1.499 . S
C5146 C5147 1.373 . S
C5146 C5148 1.389 . S
C5147 H5126 0.950 . S
C5147 C5146 1.373 . S
C5147 C5163 1.377 . S
C5148 C5146 1.389 . S
C5148 C5149 1.524 . S
C5148 C5162 1.377 . S
C5149 C5148 1.524 . S
C5149 C5150 1.397 . S
C5149 C5154 1.363 . S
C5150 H5127 0.950 . S
C5150 C5149 1.397 . S
C5150 C5151 1.334 . S
C5151 H5128 0.950 . S
C5151 C5150 1.334 . S
C5151 C5152 1.287 . S
C5152 C5151 1.287 . S
C5152 C5153 1.524 . S
C5152 H5171 0.913 . S
C5153 H5129 0.950 . S
C5153 C5152 1.524 . S
C5153 C5154 1.415 . S
C5154 H5130 0.950 . S
C5154 C5149 1.363 . S
C5154 C5153 1.415 . S
C5155 H5131 0.951 . S
C5155 C5156 1.366 . S
C5155 C5157 1.388 . S
C5156 C5155 1.366 . S
C5156 C5160 1.385 . S
C5157 H5132 0.951 . S
C5157 C5155 1.388 . S
C5157 C5158 1.366 . S
C5158 C5157 1.366 . S
C5158 C5159 1.414 . S
C5158 C5161 1.499 . S
C5159 H5133 0.950 . S
C5159 C5158 1.414 . S
C5159 C5160 1.374 . S
C5160 H5134 0.950 . S
C5160 C5156 1.385 . S
C5160 C5159 1.374 . S
C5161 C5158 1.499 . S
C5161 C5162 1.373 . S
C5161 C5163 1.389 . S
C5162 H5135 0.950 . S
C5162 C5148 1.377 . S
C5162 C5161 1.373 . S
C5163 C5147 1.377 . S
C5163 C5161 1.389 . S
C5163 C5164 1.524 . S
C5164 C5163 1.524 . S
C5164 C5165 1.397 . S
C5164 C5169 1.363 . S
C5165 H5136 0.950 . S
C5165 C5164 1.397 . S
C5165 C5166 1.334 . S
C5166 H5137 0.950 . S
C5166 C5165 1.334 . S
C5166 C5167 1.287 . S
C5167 C5166 1.287 . S
C5167 C5168 1.524 . S
C5167 H5170 0.999 . S
C5168 H5138 0.950 . S
C5168 C5167 1.524 . S
C5168 C5169 1.415 . S
C5169 H5139 0.950 . S
C5169 C5164 1.363 . S
C5169 C5168 1.415 . S
H5170 C5167 0.999 . S
H5171 C5152 0.913 . S
H5172 C5190 0.951 . S
H5173 C5192 0.951 . S
H5174 C5194 0.950 . S
H5175 C5195 0.950 . S
H5176 C5197 0.950 . S
H5177 C5200 0.950 . S
H5178 C5201 0.950 . S
H5179 C5203 0.950 . S
H5180 C5204 0.950 . S
H5181 C5205 0.951 . S
H5182 C5207 0.951 . S
H5183 C5209 0.950 . S
H5184 C5210 0.950 . S
H5185 C5212 0.950 . S
H5186 C5215 0.950 . S
H5187 C5216 0.950 . S
H5188 C5218 0.950 . S
H5189 C5219 0.950 . S
C5190 H5172 0.951 . S
C5190 C5191 1.366 . S
C5190 C5192 1.388 . S
C5191 C5190 1.366 . S
C5191 C5195 1.385 . S
C5192 H5173 0.951 . S
C5192 C5190 1.388 . S
C5192 C5193 1.366 . S
C5193 C5192 1.366 . S
C5193 C5194 1.414 . S
C5193 C5196 1.499 . S
C5194 H5174 0.950 . S
C5194 C5193 1.414 . S
C5194 C5195 1.374 . S
C5195 H5175 0.950 . S
C5195 C5191 1.385 . S
C5195 C5194 1.374 . S
C5196 C5193 1.499 . S
C5196 C5197 1.373 . S
C5196 C5198 1.389 . S
C5197 H5176 0.950 . S
C5197 C5196 1.373 . S
C5197 C5213 1.377 . S
C5198 C5196 1.389 . S
C5198 C5199 1.524 . S
C5198 C5212 1.377 . S
C5199 C5198 1.524 . S
C5199 C5200 1.397 . S
C5199 C5204 1.363 . S
C5200 H5177 0.950 . S
C5200 C5199 1.397 . S
C5200 C5201 1.334 . S
C5201 H5178 0.950 . S
C5201 C5200 1.334 . S
C5201 C5202 1.287 . S
C5202 C5201 1.287 . S
C5202 C5203 1.524 . S
C5202 H5221 0.913 . S
C5203 H5179 0.950 . S
C5203 C5202 1.524 . S
C5203 C5204 1.415 . S
C5204 H5180 0.950 . S
C5204 C5199 1.363 . S
C5204 C5203 1.415 . S
C5205 H5181 0.951 . S
C5205 C5206 1.366 . S
C5205 C5207 1.388 . S
C5206 C5205 1.366 . S
C5206 C5210 1.385 . S
C5207 H5182 0.951 . S
C5207 C5205 1.388 . S
C5207 C5208 1.366 . S
C5208 C5207 1.366 . S
C5208 C5209 1.414 . S
C5208 C5211 1.499 . S
C5209 H5183 0.950 . S
C5209 C5208 1.414 . S
C5209 C5210 1.374 . S
C5210 H5184 0.950 . S
C5210 C5206 1.385 . S
C5210 C5209 1.374 . S
C5211 C5208 1.499 . S
C5211 C5212 1.373 . S
C5211 C5213 1.389 . S
C5212 H5185 0.950 . S
C5212 C5198 1.377 . S
C5212 C5211 1.373 . S
C5213 C5197 1.377 . S
C5213 C5211 1.389 . S
C5213 C5214 1.524 . S
C5214 C5213 1.524 . S
C5214 C5215 1.397 . S
C5214 C5219 1.363 . S
C5215 H5186 0.950 . S
C5215 C5214 1.397 . S
C5215 C5216 1.334 . S
C5216 H5187 0.950 . S
C5216 C5215 1.334 . S
C5216 C5217 1.287 . S
C5217 C5216 1.287 . S
C5217 C5218 1.524 . S
C5217 H5220 0.999 . S
C5218 H5188 0.950 . S
C5218 C5217 1.524 . S
C5218 C5219 1.415 . S
C5219 H5189 0.950 . S
C5219 C5214 1.363 . S
C5219 C5218 1.415 . S
H5220 C5217 0.999 . S
H5221 C5202 0.913 . S
H5222 C5240 0.951 . S
H5223 C5242 0.951 . S
H5224 C5244 0.950 . S
H5225 C5245 0.950 . S
H5226 C5247 0.950 . S
H5227 C5250 0.950 . S
H5228 C5251 0.950 . S
H5229 C5253 0.950 . S
H5230 C5254 0.950 . S
H5231 C5255 0.951 . S
H5232 C5257 0.951 . S
H5233 C5259 0.950 . S
H5234 C5260 0.950 . S
H5235 C5262 0.950 . S
H5236 C5265 0.950 . S
H5237 C5266 0.950 . S
H5238 C5268 0.950 . S
H5239 C5269 0.950 . S
C5240 H5222 0.951 . S
C5240 C5241 1.366 . S
C5240 C5242 1.388 . S
C5241 C5240 1.366 . S
C5241 C5245 1.385 . S
C5242 H5223 0.951 . S
C5242 C5240 1.388 . S
C5242 C5243 1.366 . S
C5243 C5242 1.366 . S
C5243 C5244 1.414 . S
C5243 C5246 1.499 . S
C5244 H5224 0.950 . S
C5244 C5243 1.414 . S
C5244 C5245 1.374 . S
C5245 H5225 0.950 . S
C5245 C5241 1.385 . S
C5245 C5244 1.374 . S
C5246 C5243 1.499 . S
C5246 C5247 1.373 . S
C5246 C5248 1.389 . S
C5247 H5226 0.950 . S
C5247 C5246 1.373 . S
C5247 C5263 1.377 . S
C5248 C5246 1.389 . S
C5248 C5249 1.524 . S
C5248 C5262 1.377 . S
C5249 C5248 1.524 . S
C5249 C5250 1.397 . S
C5249 C5254 1.363 . S
C5250 H5227 0.950 . S
C5250 C5249 1.397 . S
C5250 C5251 1.334 . S
C5251 H5228 0.950 . S
C5251 C5250 1.334 . S
C5251 C5252 1.287 . S
C5252 C5251 1.287 . S
C5252 C5253 1.524 . S
C5252 H5271 0.913 . S
C5253 H5229 0.950 . S
C5253 C5252 1.524 . S
C5253 C5254 1.415 . S
C5254 H5230 0.950 . S
C5254 C5249 1.363 . S
C5254 C5253 1.415 . S
C5255 H5231 0.951 . S
C5255 C5256 1.366 . S
C5255 C5257 1.388 . S
C5256 C5255 1.366 . S
C5256 C5260 1.385 . S
C5257 H5232 0.951 . S
C5257 C5255 1.388 . S
C5257 C5258 1.366 . S
C5258 C5257 1.366 . S
C5258 C5259 1.414 . S
C5258 C5261 1.499 . S
C5259 H5233 0.950 . S
C5259 C5258 1.414 . S
C5259 C5260 1.374 . S
C5260 H5234 0.950 . S
C5260 C5256 1.385 . S
C5260 C5259 1.374 . S
C5261 C5258 1.499 . S
C5261 C5262 1.373 . S
C5261 C5263 1.389 . S
C5262 H5235 0.950 . S
C5262 C5248 1.377 . S
C5262 C5261 1.373 . S
C5263 C5247 1.377 . S
C5263 C5261 1.389 . S
C5263 C5264 1.524 . S
C5264 C5263 1.524 . S
C5264 C5265 1.397 . S
C5264 C5269 1.363 . S
C5265 H5236 0.950 . S
C5265 C5264 1.397 . S
C5265 C5266 1.334 . S
C5266 H5237 0.950 . S
C5266 C5265 1.334 . S
C5266 C5267 1.287 . S
C5267 C5266 1.287 . S
C5267 C5268 1.524 . S
C5267 H5270 0.999 . S
C5268 H5238 0.950 . S
C5268 C5267 1.524 . S
C5268 C5269 1.415 . S
C5269 H5239 0.950 . S
C5269 C5264 1.363 . S
C5269 C5268 1.415 . S
H5270 C5267 0.999 . S
H5271 C5252 0.913 . S
H5272 C5290 0.951 . S
H5273 C5292 0.951 . S
H5274 C5294 0.950 . S
H5275 C5295 0.950 . S
H5276 C5297 0.950 . S
H5277 C5300 0.950 . S
H5278 C5301 0.950 . S
H5279 C5303 0.950 . S
H5280 C5304 0.950 . S
H5281 C5305 0.951 . S
H5282 C5307 0.951 . S
H5283 C5309 0.950 . S
H5284 C5310 0.950 . S
H5285 C5312 0.950 . S
H5286 C5315 0.950 . S
H5287 C5316 0.950 . S
H5288 C5318 0.950 . S
H5289 C5319 0.950 . S
C5290 H5272 0.951 . S
C5290 C5291 1.366 . S
C5290 C5292 1.388 . S
C5291 C5290 1.366 . S
C5291 C5295 1.385 . S
C5292 H5273 0.951 . S
C5292 C5290 1.388 . S
C5292 C5293 1.366 . S
C5293 C5292 1.366 . S
C5293 C5294 1.414 . S
C5293 C5296 1.499 . S
C5294 H5274 0.950 . S
C5294 C5293 1.414 . S
C5294 C5295 1.374 . S
C5295 H5275 0.950 . S
C5295 C5291 1.385 . S
C5295 C5294 1.374 . S
C5296 C5293 1.499 . S
C5296 C5297 1.373 . S
C5296 C5298 1.389 . S
C5297 H5276 0.950 . S
C5297 C5296 1.373 . S
C5297 C5313 1.377 . S
C5298 C5296 1.389 . S
C5298 C5299 1.524 . S
C5298 C5312 1.377 . S
C5299 C5298 1.524 . S
C5299 C5300 1.397 . S
C5299 C5304 1.363 . S
C5300 H5277 0.950 . S
C5300 C5299 1.397 . S
C5300 C5301 1.334 . S
C5301 H5278 0.950 . S
C5301 C5300 1.334 . S
C5301 C5302 1.287 . S
C5302 C5301 1.287 . S
C5302 C5303 1.524 . S
C5302 H5321 0.913 . S
C5303 H5279 0.950 . S
C5303 C5302 1.524 . S
C5303 C5304 1.415 . S
C5304 H5280 0.950 . S
C5304 C5299 1.363 . S
C5304 C5303 1.415 . S
C5305 H5281 0.951 . S
C5305 C5306 1.366 . S
C5305 C5307 1.388 . S
C5306 C5305 1.366 . S
C5306 C5310 1.385 . S
C5307 H5282 0.951 . S
C5307 C5305 1.388 . S
C5307 C5308 1.366 . S
C5308 C5307 1.366 . S
C5308 C5309 1.414 . S
C5308 C5311 1.499 . S
C5309 H5283 0.950 . S
C5309 C5308 1.414 . S
C5309 C5310 1.374 . S
C5310 H5284 0.950 . S
C5310 C5306 1.385 . S
C5310 C5309 1.374 . S
C5311 C5308 1.499 . S
C5311 C5312 1.373 . S
C5311 C5313 1.389 . S
C5312 H5285 0.950 . S
C5312 C5298 1.377 . S
C5312 C5311 1.373 . S
C5313 C5297 1.377 . S
C5313 C5311 1.389 . S
C5313 C5314 1.524 . S
C5314 C5313 1.524 . S
C5314 C5315 1.397 . S
C5314 C5319 1.363 . S
C5315 H5286 0.950 . S
C5315 C5314 1.397 . S
C5315 C5316 1.334 . S
C5316 H5287 0.950 . S
C5316 C5315 1.334 . S
C5316 C5317 1.287 . S
C5317 C5316 1.287 . S
C5317 C5318 1.524 . S
C5317 H5320 0.999 . S
C5318 H5288 0.950 . S
C5318 C5317 1.524 . S
C5318 C5319 1.415 . S
C5319 H5289 0.950 . S
C5319 C5314 1.363 . S
C5319 C5318 1.415 . S
H5320 C5317 0.999 . S
H5321 C5302 0.913 . S
H5322 C5340 0.951 . S
H5323 C5342 0.951 . S
H5324 C5344 0.950 . S
H5325 C5345 0.950 . S
H5326 C5347 0.950 . S
H5327 C5350 0.950 . S
H5328 C5351 0.950 . S
H5329 C5353 0.950 . S
H5330 C5354 0.950 . S
H5331 C5355 0.951 . S
H5332 C5357 0.951 . S
H5333 C5359 0.950 . S
H5334 C5360 0.950 . S
H5335 C5362 0.950 . S
H5336 C5365 0.950 . S
H5337 C5366 0.950 . S
H5338 C5368 0.950 . S
H5339 C5369 0.950 . S
C5340 H5322 0.951 . S
C5340 C5341 1.366 . S
C5340 C5342 1.388 . S
C5341 C5340 1.366 . S
C5341 C5345 1.385 . S
C5342 H5323 0.951 . S
C5342 C5340 1.388 . S
C5342 C5343 1.366 . S
C5343 C5342 1.366 . S
C5343 C5344 1.414 . S
C5343 C5346 1.499 . S
C5344 H5324 0.950 . S
C5344 C5343 1.414 . S
C5344 C5345 1.374 . S
C5345 H5325 0.950 . S
C5345 C5341 1.385 . S
C5345 C5344 1.374 . S
C5346 C5343 1.499 . S
C5346 C5347 1.373 . S
C5346 C5348 1.389 . S
C5347 H5326 0.950 . S
C5347 C5346 1.373 . S
C5347 C5363 1.377 . S
C5348 C5346 1.389 . S
C5348 C5349 1.524 . S
C5348 C5362 1.377 . S
C5349 C5348 1.524 . S
C5349 C5350 1.397 . S
C5349 C5354 1.363 . S
C5350 H5327 0.950 . S
C5350 C5349 1.397 . S
C5350 C5351 1.334 . S
C5351 H5328 0.950 . S
C5351 C5350 1.334 . S
C5351 C5352 1.287 . S
C5352 C5351 1.287 . S
C5352 C5353 1.524 . S
C5352 H5371 0.913 . S
C5353 H5329 0.950 . S
C5353 C5352 1.524 . S
C5353 C5354 1.415 . S
C5354 H5330 0.950 . S
C5354 C5349 1.363 . S
C5354 C5353 1.415 . S
C5355 H5331 0.951 . S
C5355 C5356 1.366 . S
C5355 C5357 1.388 . S
C5356 C5355 1.366 . S
C5356 C5360 1.385 . S
C5357 H5332 0.951 . S
C5357 C5355 1.388 . S
C5357 C5358 1.366 . S
C5358 C5357 1.366 . S
C5358 C5359 1.414 . S
C5358 C5361 1.499 . S
C5359 H5333 0.950 . S
C5359 C5358 1.414 . S
C5359 C5360 1.374 . S
C5360 H5334 0.950 . S
C5360 C5356 1.385 . S
C5360 C5359 1.374 . S
C5361 C5358 1.499 . S
C5361 C5362 1.373 . S
C5361 C5363 1.389 . S
C5362 H5335 0.950 . S
C5362 C5348 1.377 . S
C5362 C5361 1.373 . S
C5363 C5347 1.377 . S
C5363 C5361 1.389 . S
C5363 C5364 1.524 . S
C5364 C5363 1.524 . S
C5364 C5365 1.397 . S
C5364 C5369 1.363 . S
C5365 H5336 0.950 . S
C5365 C5364 1.397 . S
C5365 C5366 1.334 . S
C5366 H5337 0.950 . S
C5366 C5365 1.334 . S
C5366 C5367 1.287 . S
C5367 C5366 1.287 . S
C5367 C5368 1.524 . S
C5367 H5370 0.999 . S
C5368 H5338 0.950 . S
C5368 C5367 1.524 . S
C5368 C5369 1.415 . S
C5369 H5339 0.950 . S
C5369 C5364 1.363 . S
C5369 C5368 1.415 . S
H5370 C5367 0.999 . S
H5371 C5352 0.913 . S
H5372 C5390 0.951 . S
H5373 C5392 0.951 . S
H5374 C5394 0.950 . S
H5375 C5395 0.950 . S
H5376 C5397 0.950 . S
H5377 C5400 0.950 . S
H5378 C5401 0.950 . S
H5379 C5403 0.950 . S
H5380 C5404 0.950 . S
H5381 C5405 0.951 . S
H5382 C5407 0.951 . S
H5383 C5409 0.950 . S
H5384 C5410 0.950 . S
H5385 C5412 0.950 . S
H5386 C5415 0.950 . S
H5387 C5416 0.950 . S
H5388 C5418 0.950 . S
H5389 C5419 0.950 . S
C5390 H5372 0.951 . S
C5390 C5391 1.366 . S
C5390 C5392 1.388 . S
C5391 C5390 1.366 . S
C5391 C5395 1.385 . S
C5392 H5373 0.951 . S
C5392 C5390 1.388 . S
C5392 C5393 1.366 . S
C5393 C5392 1.366 . S
C5393 C5394 1.414 . S
C5393 C5396 1.499 . S
C5394 H5374 0.950 . S
C5394 C5393 1.414 . S
C5394 C5395 1.374 . S
C5395 H5375 0.950 . S
C5395 C5391 1.385 . S
C5395 C5394 1.374 . S
C5396 C5393 1.499 . S
C5396 C5397 1.373 . S
C5396 C5398 1.389 . S
C5397 H5376 0.950 . S
C5397 C5396 1.373 . S
C5397 C5413 1.377 . S
C5398 C5396 1.389 . S
C5398 C5399 1.524 . S
C5398 C5412 1.377 . S
C5399 C5398 1.524 . S
C5399 C5400 1.397 . S
C5399 C5404 1.363 . S
C5400 H5377 0.950 . S
C5400 C5399 1.397 . S
C5400 C5401 1.334 . S
C5401 H5378 0.950 . S
C5401 C5400 1.334 . S
C5401 C5402 1.287 . S
C5402 C5401 1.287 . S
C5402 C5403 1.524 . S
C5402 H5421 0.913 . S
C5403 H5379 0.950 . S
C5403 C5402 1.524 . S
C5403 C5404 1.415 . S
C5404 H5380 0.950 . S
C5404 C5399 1.363 . S
C5404 C5403 1.415 . S
C5405 H5381 0.951 . S
C5405 C5406 1.366 . S
C5405 C5407 1.388 . S
C5406 C5405 1.366 . S
C5406 C5410 1.385 . S
C5407 H5382 0.951 . S
C5407 C5405 1.388 . S
C5407 C5408 1.366 . S
C5408 C5407 1.366 . S
C5408 C5409 1.414 . S
C5408 C5411 1.499 . S
C5409 H5383 0.950 . S
C5409 C5408 1.414 . S
C5409 C5410 1.374 . S
C5410 H5384 0.950 . S
C5410 C5406 1.385 . S
C5410 C5409 1.374 . S
C5411 C5408 1.499 . S
C5411 C5412 1.373 . S
C5411 C5413 1.389 . S
C5412 H5385 0.950 . S
C5412 C5398 1.377 . S
C5412 C5411 1.373 . S
C5413 C5397 1.377 . S
C5413 C5411 1.389 . S
C5413 C5414 1.524 . S
C5414 C5413 1.524 . S
C5414 C5415 1.397 . S
C5414 C5419 1.363 . S
C5415 H5386 0.950 . S
C5415 C5414 1.397 . S
C5415 C5416 1.334 . S
C5416 H5387 0.950 . S
C5416 C5415 1.334 . S
C5416 C5417 1.287 . S
C5417 C5416 1.287 . S
C5417 C5418 1.524 . S
C5417 H5420 0.999 . S
C5418 H5388 0.950 . S
C5418 C5417 1.524 . S
C5418 C5419 1.415 . S
C5419 H5389 0.950 . S
C5419 C5414 1.363 . S
C5419 C5418 1.415 . S
H5420 C5417 0.999 . S
H5421 C5402 0.913 . S
H5422 C5440 0.951 . S
H5423 C5442 0.951 . S
H5424 C5444 0.950 . S
H5425 C5445 0.950 . S
H5426 C5447 0.950 . S
H5427 C5450 0.950 . S
H5428 C5451 0.950 . S
H5429 C5453 0.950 . S
H5430 C5454 0.950 . S
H5431 C5455 0.951 . S
H5432 C5457 0.951 . S
H5433 C5459 0.950 . S
H5434 C5460 0.950 . S
H5435 C5462 0.950 . S
H5436 C5465 0.950 . S
H5437 C5466 0.950 . S
H5438 C5468 0.950 . S
H5439 C5469 0.950 . S
C5440 H5422 0.951 . S
C5440 C5441 1.366 . S
C5440 C5442 1.388 . S
C5441 C5440 1.366 . S
C5441 C5445 1.385 . S
C5442 H5423 0.951 . S
C5442 C5440 1.388 . S
C5442 C5443 1.366 . S
C5443 C5442 1.366 . S
C5443 C5444 1.414 . S
C5443 C5446 1.499 . S
C5444 H5424 0.950 . S
C5444 C5443 1.414 . S
C5444 C5445 1.374 . S
C5445 H5425 0.950 . S
C5445 C5441 1.385 . S
C5445 C5444 1.374 . S
C5446 C5443 1.499 . S
C5446 C5447 1.373 . S
C5446 C5448 1.389 . S
C5447 H5426 0.950 . S
C5447 C5446 1.373 . S
C5447 C5463 1.377 . S
C5448 C5446 1.389 . S
C5448 C5449 1.524 . S
C5448 C5462 1.377 . S
C5449 C5448 1.524 . S
C5449 C5450 1.397 . S
C5449 C5454 1.363 . S
C5450 H5427 0.950 . S
C5450 C5449 1.397 . S
C5450 C5451 1.334 . S
C5451 H5428 0.950 . S
C5451 C5450 1.334 . S
C5451 C5452 1.287 . S
C5452 C5451 1.287 . S
C5452 C5453 1.524 . S
C5452 H5471 0.913 . S
C5453 H5429 0.950 . S
C5453 C5452 1.524 . S
C5453 C5454 1.415 . S
C5454 H5430 0.950 . S
C5454 C5449 1.363 . S
C5454 C5453 1.415 . S
C5455 H5431 0.951 . S
C5455 C5456 1.366 . S
C5455 C5457 1.388 . S
C5456 C5455 1.366 . S
C5456 C5460 1.385 . S
C5457 H5432 0.951 . S
C5457 C5455 1.388 . S
C5457 C5458 1.366 . S
C5458 C5457 1.366 . S
C5458 C5459 1.414 . S
C5458 C5461 1.499 . S
C5459 H5433 0.950 . S
C5459 C5458 1.414 . S
C5459 C5460 1.374 . S
C5460 H5434 0.950 . S
C5460 C5456 1.385 . S
C5460 C5459 1.374 . S
C5461 C5458 1.499 . S
C5461 C5462 1.373 . S
C5461 C5463 1.389 . S
C5462 H5435 0.950 . S
C5462 C5448 1.377 . S
C5462 C5461 1.373 . S
C5463 C5447 1.377 . S
C5463 C5461 1.389 . S
C5463 C5464 1.524 . S
C5464 C5463 1.524 . S
C5464 C5465 1.397 . S
C5464 C5469 1.363 . S
C5465 H5436 0.950 . S
C5465 C5464 1.397 . S
C5465 C5466 1.334 . S
C5466 H5437 0.950 . S
C5466 C5465 1.334 . S
C5466 C5467 1.287 . S
C5467 C5466 1.287 . S
C5467 C5468 1.524 . S
C5467 H5470 0.999 . S
C5468 H5438 0.950 . S
C5468 C5467 1.524 . S
C5468 C5469 1.415 . S
C5469 H5439 0.950 . S
C5469 C5464 1.363 . S
C5469 C5468 1.415 . S
H5470 C5467 0.999 . S
H5471 C5452 0.913 . S
C691 C445 1.335 . S
C706 C11 1.335 . S
C741 C25 1.335 . S
C756 C403 1.335 . S
C791 C39 1.336 . S
C806 C417 1.336 . S
C841 C431 1.335 . S
C856 C53 1.335 . S
C891 C361 1.336 . S
C906 C67 1.335 . S
C941 C81 1.336 . S
C956 C375 1.336 . S
C991 C389 1.335 . S
C1006 C95 1.335 . S
C1041 C109 1.336 . S
C1056 C347 1.336 . S
C1091 C123 1.335 . S
C1106 C627 1.335 . S
C1141 C585 1.335 . S
C1156 C137 1.335 . S
C1191 C599 1.335 . S
C1206 C151 1.335 . S
C1241 C165 1.335 . S
C1256 C613 1.335 . S
C1291 C179 1.335 . S
C1306 C669 1.335 . S
C1341 C193 1.335 . S
C1356 C641 1.335 . S
C1391 C207 1.335 . S
C1406 C655 1.335 . S
C1441 C571 1.335 . S
C1456 C221 1.335 . S
C1491 C557 1.335 . S
C1506 C235 1.335 . S
C1541 C249 1.335 . S
C1556 C473 1.335 . S
C1591 C487 1.336 . S
C1606 C263 1.335 . S
C1641 C277 1.335 . S
C1656 C501 1.335 . S
C1691 C459 1.335 . S
C1706 C291 1.335 . S
C1741 C529 1.335 . S
C1756 C305 1.335 . S
C1791 C319 1.335 . S
C1806 C543 1.335 . S
C1841 C515 1.336 . S
C1856 C333 1.336 . S
C1891 C135 1.234 . S
C1906 C9 1.234 . S
C1941 C149 1.234 . S
C1956 C23 1.234 . S
C1991 C37 1.234 . S
C2006 C163 1.234 . S
C2041 C121 1.234 . S
C2056 C51 1.234 . S
C2091 C65 1.234 . S
C2106 C219 1.234 . S
C2141 C177 1.234 . S
C2156 C79 1.234 . S
C2191 C191 1.234 . S
C2206 C93 1.234 . S
C2241 C205 1.234 . S
C2256 C107 1.234 . S
C2291 C261 1.234 . S
C2306 C233 1.234 . S
C2341 C317 1.234 . S
C2356 C247 1.234 . S
C2391 C331 1.234 . S
C2406 C275 1.234 . S
C2441 C289 1.234 . S
C2456 C303 1.234 . S
C2491 C471 1.234 . S
C2506 C345 1.234 . S
C2541 C485 1.234 . S
C2556 C359 1.234 . S
C2591 C499 1.234 . S
C2606 C373 1.234 . S
C2641 C387 1.234 . S
C2656 C457 1.234 . S
C2691 C401 1.234 . S
C2706 C555 1.234 . S
C2741 C415 1.234 . S
C2756 C513 1.234 . S
C2791 C527 1.234 . S
C2806 C429 1.234 . S
C2841 C541 1.234 . S
C2856 C443 1.234 . S
C2891 C569 1.234 . S
C2906 C597 1.234 . S
C2941 C653 1.234 . S
C2956 C583 1.234 . S
C2991 C667 1.234 . S
C3006 C611 1.234 . S
C3041 C639 1.234 . S
C3056 C625 1.234 . S
C3091 C0 1.404 . S
C3106 C257 1.403 1_554 S
C3141 C14 1.403 . S
C3156 C271 1.403 1_554 S
C3191 C28 1.404 . S
C3206 C285 1.403 1_554 S
C3241 C243 1.403 1_554 S
C3256 C42 1.404 . S
C3291 C56 1.403 . S
C3306 C313 1.403 1_556 S
C3341 C70 1.404 . S
C3356 C229 1.403 1_556 S
C3391 C327 1.403 1_556 S
C3406 C84 1.404 . S
C3441 C299 1.403 1_556 S
C3456 C98 1.403 . S
C3491 C112 1.404 . S
C3506 C131 1.403 1_455 S
C3541 C126 1.403 . S
C3556 C145 1.403 1_545 S
C3591 C140 1.404 . S
C3606 C159 1.403 1_655 S
C3641 C117 1.403 1_565 S
C3656 C154 1.404 . S
C3691 C215 1.403 1_455 S
C3706 C168 1.404 . S
C3741 C173 1.403 1_545 S
C3756 C182 1.404 . S
C3791 C187 1.403 1_655 S
C3806 C196 1.403 . S
C3841 C210 1.404 . S
C3856 C201 1.403 1_565 S
C3891 C47 1.403 1_545 S
C3906 C224 1.404 . S
C3941 C75 1.403 1_565 S
C3956 C238 1.404 . S
C3991 C89 1.403 1_455 S
C4006 C252 1.403 . S
C4041 C266 1.404 . S
C4056 C103 1.403 1_545 S
C4091 C61 1.403 1_655 S
C4106 C280 1.403 . S
C4141 C19 1.403 1_565 S
C4156 C294 1.403 . S
C4191 C33 1.403 1_455 S
C4206 C308 1.404 . S
C4241 C5 1.403 1_655 S
C4256 C322 1.403 . S
C4291 C593 1.403 . S
C4306 C336 1.403 . S
C4341 C350 1.404 . S
C4356 C607 1.403 . S
C4391 C621 1.403 . S
C4406 C364 1.403 . S
C4441 C579 1.403 . S
C4456 C378 1.404 . S
C4491 C392 1.404 . S
C4506 C649 1.403 . S
C4541 C406 1.404 . S
C4556 C565 1.403 . S
C4591 C663 1.403 . S
C4606 C420 1.403 . S
C4641 C434 1.404 . S
C4656 C635 1.403 . S
C4691 C448 1.404 . S
C4706 C467 1.403 . S
C4741 C462 1.404 . S
C4756 C481 1.403 . S
C4791 C476 1.404 . S
C4806 C495 1.403 . S
C4841 C490 1.403 . S
C4856 C453 1.403 . S
C4891 C551 1.403 . S
C4906 C504 1.404 . S
C4941 C509 1.403 . S
C4956 C518 1.403 . S
C4991 C523 1.403 . S
C5006 C532 1.404 . S
C5041 C546 1.404 . S
C5056 C537 1.403 . S
C5091 C383 1.403 . S
C5106 C560 1.404 . S
C5141 C411 1.403 . S
C5156 C574 1.404 . S
C5191 C425 1.403 . S
C5206 C588 1.404 . S
C5241 C602 1.403 . S
C5256 C439 1.403 . S
C5291 C397 1.403 . S
C5306 C616 1.404 . S
C5341 C355 1.403 . S
C5356 C630 1.403 . S
C5391 C644 1.404 . S
C5406 C369 1.403 . S
C5441 C341 1.403 . S
C5456 C658 1.403 . S
