# Generated by pormake.
# Topology dmp, (4)-cn, num edge types: 1
# Building blocks:
#     Node 0, Type 0, BuildingBlock: KUFVIS_clean_sbu_0, # of connection points: 4
#     Node 1, Type 0, BuildingBlock: KUFVIS_clean_sbu_0, # of connection points: 4
#     Node 2, Type 0, BuildingBlock: KUFVIS_clean_sbu_0, # of connection points: 4
#     Node 3, Type 0, BuildingBlock: KUFVIS_clean_sbu_0, # of connection points: 4
#     Edge 4, Type (0, 0), BuildingBlock: UKIBIB_clean_linker_0, # of connection points: 2
#     Edge 5, Type (0, 0), BuildingBlock: UKIBIB_clean_linker_0, # of connection points: 2
#     Edge 6, Type (0, 0), BuildingBlock: UKIBIB_clean_linker_0, # of connection points: 2
#     Edge 7, Type (0, 0), BuildingBlock: UKIBIB_clean_linker_0, # of connection points: 2
#     Edge 8, Type (0, 0), BuildingBlock: UKIBIB_clean_linker_0, # of connection points: 2
#     Edge 9, Type (0, 0), BuildingBlock: UKIBIB_clean_linker_0, # of connection points: 2
#     Edge 10, Type (0, 0), BuildingBlock: UKIBIB_clean_linker_0, # of connection points: 2
#     Edge 11, Type (0, 0), BuildingBlock: UKIBIB_clean_linker_0, # of connection points: 2
# Relax obj value: 0.124
# Max RMSD: 0.220
# Mean RMSD: 0.220
data_MOF--net-dmp--node1-KUFVIS_clean_sbu_0--edge1-UKIBIB_clean_linker_0
_symmetry_space_group_name_H-M    P1
_symmetry_Int_Tables_number       1
_symmetry_cell_setting            triclinic
loop_
_symmetry_equiv_pos_as_xyz
'x, y, z'
_cell_length_a     53.124034
_cell_length_b     26.105727
_cell_length_c     20.618123
_cell_angle_alpha  90.009412
_cell_angle_beta   89.996932
_cell_angle_gamma 92.795938
loop_
_atom_site_label
_atom_site_type_symbol
_atom_site_fract_x
_atom_site_fract_y
_atom_site_fract_z
_atom_type_partial_charge
Mn0 Mn 0.10375 0.22374 0.30682 0.0
Mn1 Mn 0.13861 0.19956 0.17478 0.0
C2 C 0.1394 0.27453 0.28484 0.0
C3 C 0.07026 0.26743 0.35041 0.0
C4 C 0.13908 0.1362 0.29864 0.0
O5 O 0.08103 0.17441 0.25345 0.0
O6 O 0.10332 0.17272 0.16002 0.0
C7 C 0.11526 0.26611 0.07788 0.0
N8 N 0.136 0.25212 0.11097 0.0
C9 C 0.16247 0.31489 0.05441 0.0
C10 C 0.14141 0.32973 0.01941 0.0
C11 C 0.1177 0.3053 0.0313 0.0
C12 C 0.15892 0.27541 0.09995 0.0
H13 H 0.09701 0.24751 0.08706 0.0
C14 C 0.08363 0.16141 0.19413 0.0
O15 O 0.07851 0.22717 0.3792 0.0
O16 O 0.08043 0.2798 0.29527 0.0
N17 N 0.17312 0.22378 0.1829 0.0
C18 C 0.19133 0.20682 0.22308 0.0
C19 C 0.21599 0.22846 0.21876 0.0
C20 C 0.22177 0.267 0.17288 0.0
C21 C 0.20282 0.28345 0.13158 0.0
C22 C 0.1786 0.26023 0.13783 0.0
H23 H 0.1871 0.17718 0.25842 0.0
O24 O 0.12964 0.27415 0.34243 0.0
O25 O 0.12761 0.24631 0.2416 0.0
O26 O 0.12547 0.16426 0.33375 0.0
O27 O 0.14324 0.1444 0.23836 0.0
C28 C 0.20691 0.32264 0.08527 0.0
C29 C 0.18675 0.33838 0.04675 0.0
H30 H 0.14318 0.36011 0.98369 0.0
H31 H 0.10134 0.31672 1.00467 0.0
H32 H 0.23051 0.21556 0.25086 0.0
H33 H 0.24077 0.28393 0.1701 0.0
H34 H 0.22542 0.34141 0.07951 0.0
H35 H 0.19006 0.36903 0.01192 0.0
Mn36 Mn 0.38621 0.72477 0.30656 0.0
Mn37 Mn 0.34852 0.74995 0.17974 0.0
C38 C 0.35001 0.67445 0.28851 0.0
C39 C 0.42013 0.68082 0.34741 0.0
C40 C 0.35019 0.81199 0.30434 0.0
O41 O 0.40842 0.77321 0.25007 0.0
O42 O 0.3831 0.7789 0.16275 0.0
C43 C 0.37134 0.6867 0.07841 0.0
N44 N 0.35088 0.69895 0.11387 0.0
C45 C 0.32418 0.63727 0.05621 0.0
C46 C 0.34495 0.62414 0.01883 0.0
C47 C 0.36864 0.64888 0.0301 0.0
C48 C 0.32801 0.6753 0.10355 0.0
H49 H 0.38955 0.70573 0.08692 0.0
C50 C 0.404 0.78867 0.19241 0.0
O51 O 0.4124 0.7214 0.37647 0.0
O52 O 0.40921 0.66815 0.29324 0.0
N53 N 0.31436 0.72413 0.18992 0.0
C54 C 0.29644 0.73985 0.23183 0.0
C55 C 0.2718 0.71801 0.22798 0.0
C56 C 0.26575 0.68069 0.18069 0.0
C57 C 0.28441 0.66563 0.13755 0.0
C58 C 0.30862 0.68891 0.14352 0.0
H59 H 0.3009 0.76867 0.26813 0.0
O60 O 0.3607 0.67489 0.345 0.0
O61 O 0.36108 0.70251 0.24395 0.0
O62 O 0.36519 0.78474 0.33647 0.0
O63 O 0.34417 0.80346 0.24525 0.0
C64 C 0.28003 0.62786 0.08951 0.0
C65 C 0.29991 0.61363 0.04894 0.0
H66 H 0.34296 0.59493 0.98162 0.0
H67 H 0.38477 0.63885 1.00155 0.0
H68 H 0.25751 0.72987 0.26144 0.0
H69 H 0.24677 0.66366 0.17818 0.0
H70 H 0.26153 0.60907 0.08388 0.0
H71 H 0.29638 0.58411 0.01269 0.0
Mn72 Mn 0.88585 0.72559 0.71387 0.0
Mn73 Mn 0.85018 0.75356 0.84328 0.0
C74 C 0.84988 0.67597 0.73601 0.0
C75 C 0.91941 0.68068 0.67292 0.0
C76 C 0.85058 0.81359 0.71692 0.0
O77 O 0.90847 0.7756 0.76651 0.0
O78 O 0.88535 0.78091 0.85824 0.0
C79 C 0.87302 0.68972 0.94398 0.0
N80 N 0.85245 0.70276 0.90946 0.0
C81 C 0.82567 0.64165 0.96785 0.0
C82 C 0.84655 0.62779 1.0043 0.0
C83 C 0.87032 0.65186 0.99222 0.0
C84 C 0.82948 0.67981 0.92066 0.0
H85 H 0.89132 0.70812 0.93472 0.0
C86 C 0.90538 0.79057 0.82487 0.0
O87 O 0.91143 0.72051 0.64266 0.0
O88 O 0.90894 0.66941 0.72807 0.0
N89 N 0.8157 0.72919 0.83499 0.0
C90 C 0.79768 0.74522 0.79355 0.0
C91 C 0.77297 0.72384 0.79804 0.0
C92 C 0.76695 0.68658 0.84539 0.0
C93 C 0.7857 0.67115 0.88799 0.0
C94 C 0.80998 0.69403 0.88147 0.0
H95 H 0.80211 0.77388 0.75709 0.0
O96 O 0.86003 0.67489 0.67892 0.0
O97 O 0.86149 0.70489 0.7789 0.0
O98 O 0.86446 0.78469 0.68374 0.0
O99 O 0.84591 0.80695 0.77722 0.0
C100 C 0.78136 0.63327 0.93589 0.0
C101 C 0.80133 0.61849 0.97575 0.0
H102 H 0.84458 0.59844 0.04134 0.0
H103 H 0.88654 0.64121 0.02002 0.0
H104 H 0.75861 0.73595 0.76494 0.0
H105 H 0.74792 0.66983 0.8483 0.0
H106 H 0.7628 0.61476 0.94189 0.0
H107 H 0.79783 0.58885 0.01184 0.0
Mn108 Mn 0.6035 0.22444 0.71653 0.0
Mn109 Mn 0.64058 0.20286 0.84571 0.0
C110 C 0.63936 0.27586 0.73437 0.0
C111 C 0.56965 0.26717 0.67309 0.0
C112 C 0.63993 0.13796 0.72334 0.0
O113 O 0.58115 0.17697 0.77375 0.0
O114 O 0.60604 0.1733 0.86216 0.0
C115 C 0.6167 0.26759 0.94373 0.0
N116 N 0.63748 0.25513 0.90966 0.0
C117 C 0.6634 0.31893 0.96602 0.0
C118 C 0.64229 0.33228 1.00197 0.0
C119 C 0.61884 0.30658 0.99065 0.0
C120 C 0.66013 0.2797 0.92003 0.0
H121 H 0.59866 0.24785 0.93515 0.0
C122 C 0.58533 0.16263 0.83199 0.0
O123 O 0.57764 0.22619 0.6455 0.0
O124 O 0.58029 0.28097 0.72718 0.0
N125 N 0.67464 0.22942 0.8361 0.0
C126 C 0.69292 0.21339 0.79546 0.0
C127 C 0.71739 0.2361 0.79946 0.0
C128 C 0.72289 0.27463 0.84557 0.0
C129 C 0.70386 0.29003 0.8874 0.0
C130 C 0.67986 0.26583 0.88137 0.0
H131 H 0.68887 0.18367 0.76006 0.0
O132 O 0.62907 0.27387 0.6774 0.0
O133 O 0.62814 0.24851 0.77935 0.0
O134 O 0.62485 0.16399 0.68974 0.0
O135 O 0.64567 0.14825 0.7822 0.0
C136 C 0.70768 0.329 0.93415 0.0
C137 C 0.68746 0.3435 0.97335 0.0
H138 H 0.64384 0.36241 0.03808 0.0
H139 H 0.60246 0.3168 0.01808 0.0
H140 H 0.73196 0.22398 0.76701 0.0
H141 H 0.74173 0.29233 0.84818 0.0
H142 H 0.72602 0.34851 0.93978 0.0
H143 H 0.69055 0.37394 1.00858 0.0
C144 C 0.32547 0.84215 0.39907 0.0
C145 C 0.33597 0.85153 0.33735 0.0
C146 C 0.30592 0.8717 0.42158 0.0
C147 C 0.16402 0.05816 0.28979 0.0
C148 C 0.15389 0.09611 0.32915 0.0
C149 C 0.18298 0.02802 0.31319 0.0
H150 H 0.33586 0.90148 0.25336 0.0
H151 H 0.30205 0.95327 0.29321 0.0
H152 H 0.15452 0.12962 0.42547 0.0
H153 H 0.18774 0.0759 0.46664 0.0
C154 C 0.32812 0.89352 0.30116 0.0
C155 C 0.30875 0.92298 0.32371 0.0
C156 C 0.16178 0.10047 0.39416 0.0
C157 C 0.18086 0.07012 0.41758 0.0
C158 C 0.29694 0.91097 0.38278 0.0
C159 C 0.27408 0.93551 0.39923 0.0
C160 C 0.25525 0.95884 0.40657 0.0
C161 C 0.19205 0.03505 0.37639 0.0
C162 C 0.21426 0.00951 0.39587 0.0
C163 C 0.23286 -0.01414 0.40525 0.0
H164 H 0.33086 0.80952 0.42743 0.0
H165 H 0.29687 0.86194 0.46734 0.0
H166 H 0.15828 0.05365 0.23959 0.0
H167 H 0.19138 0.00095 0.28081 0.0
C168 C 0.15547 0.3493 0.22051 0.0
C169 C 0.15945 0.31261 0.26866 0.0
C170 C 0.17413 0.38725 0.20684 0.0
C171 C 0.33241 0.60096 0.22432 0.0
C172 C 0.32959 0.63664 0.27435 0.0
C173 C 0.31305 0.5645 0.21072 0.0
H174 H 0.1848 0.28811 0.34341 0.0
H175 H 0.21774 0.35475 0.31915 0.0
H176 H 0.30575 0.66037 0.35284 0.0
H177 H 0.27155 0.5963 0.32866 0.0
C178 C 0.18176 0.31545 0.30499 0.0
C179 C 0.20044 0.35326 0.29119 0.0
C180 C 0.30789 0.63381 0.31305 0.0
C181 C 0.28848 0.59748 0.29926 0.0
C182 C 0.19669 0.38907 0.24198 0.0
C183 C 0.21574 0.4286 0.22969 0.0
C184 C 0.23291 0.45989 0.22374 0.0
C185 C 0.29095 0.56316 0.24769 0.0
C186 C 0.27097 0.52591 0.23396 0.0
C187 C 0.25343 0.49586 0.22554 0.0
H188 H 0.13791 0.34863 0.19371 0.0
H189 H 0.17091 0.41516 0.16922 0.0
H190 H 0.34949 0.6016 0.19555 0.0
H191 H 0.31529 0.53767 0.17126 0.0
C192 C 0.66124 0.10034 0.62673 0.0
C193 C 0.65425 0.09731 0.69248 0.0
C194 C 0.68006 0.06956 0.60263 0.0
C195 C 0.82797 0.89466 0.71983 0.0
C196 C 0.83584 0.85245 0.68405 0.0
C197 C 0.80845 0.9237 0.69719 0.0
H198 H 0.65987 0.05672 0.78287 0.0
H199 H 0.69248 0.00335 0.74058 0.0
H200 H 0.83056 0.80962 0.59457 0.0
H201 H 0.79633 0.86126 0.55461 0.0
C202 C 0.66493 0.06019 0.73209 0.0
C203 C 0.68361 0.02968 0.70807 0.0
C204 C 0.82515 0.84237 0.62268 0.0
C205 C 0.80546 0.87149 0.60011 0.0
C206 C 0.69185 0.03543 0.64397 0.0
C207 C 0.7139 0.00966 0.6237 0.0
C208 C 0.73245 -0.01421 0.61453 0.0
C209 C 0.79652 0.91107 0.63845 0.0
C210 C 0.77366 0.93548 0.62171 0.0
C211 C 0.75482 0.9587 0.61385 0.0
H212 H 0.65353 0.12884 0.59523 0.0
H213 H 0.68628 0.07433 0.55286 0.0
H214 H 0.83586 0.90324 0.7673 0.0
H215 H 0.80178 0.95425 0.72733 0.0
C216 C 0.80739 0.63633 0.71436 0.0
C217 C 0.82931 0.63906 0.75221 0.0
C218 C 0.78816 0.59969 0.72828 0.0
C219 C 0.68123 0.31821 0.71096 0.0
C220 C 0.65921 0.31497 0.74842 0.0
C221 C 0.70005 0.35581 0.72466 0.0
H222 H 0.84967 0.60383 0.83002 0.0
H223 H 0.81571 0.53937 0.85473 0.0
H224 H 0.63814 0.35043 0.82478 0.0
H225 H 0.67132 0.41658 0.84895 0.0
C226 C 0.8324 0.60331 0.802 0.0
C227 C 0.8132 0.56653 0.81581 0.0
C228 C 0.65548 0.35143 0.79703 0.0
C229 C 0.67425 0.38916 0.81055 0.0
C230 C 0.791 0.56494 0.77917 0.0
C231 C 0.77141 0.52656 0.79169 0.0
C232 C 0.75394 0.49602 0.79805 0.0
C233 C 0.69667 0.39097 0.77488 0.0
C234 C 0.71613 0.42934 0.78868 0.0
C235 C 0.7334 0.46009 0.79675 0.0
H236 H 0.80505 0.66289 0.67467 0.0
H237 H 0.77116 0.59832 0.69914 0.0
H238 H 0.68406 0.29102 0.67224 0.0
H239 H 0.71724 0.35731 0.69629 0.0
C240 C 0.05356 0.14278 0.1033 0.0
C241 C 0.06366 0.12878 0.16331 0.0
C242 C 0.03688 0.10892 0.07008 0.0
C243 C 0.93947 0.80569 0.90672 0.0
C244 C 0.92515 0.82382 0.85514 0.0
C245 C 0.95608 0.83926 0.94068 0.0
H246 H 0.0645 0.06894 0.23585 0.0
H247 H 0.0356 0.00906 0.17678 0.0
H248 H 0.91652 0.8905 0.79852 0.0
H249 H 0.94548 0.94957 0.85864 0.0
C250 C 0.05655 0.08082 0.19018 0.0
C251 C 0.04021 0.04661 0.1564 0.0
C252 C 0.9278 0.87569 0.83741 0.0
C253 C 0.94418 0.90935 0.87184 0.0
C254 C 0.03054 0.06032 0.09591 0.0
C255 C 0.01498 0.02384 0.05927 0.0
C256 C 0.00196 -0.00677 0.02873 0.0
C257 C 0.95819 0.89138 0.924 0.0
C258 C 0.97393 0.92684 0.9617 0.0
C259 C 0.98698 0.95718 0.99255 0.0
H260 H 0.05887 0.17958 0.08174 0.0
H261 H 0.02947 0.12017 0.02352 0.0
H262 H 0.93745 0.76584 0.92139 0.0
H263 H 0.96681 0.8248 0.98084 0.0
C264 C 0.54241 0.11642 0.83863 0.0
C265 C 0.566 0.12984 0.86667 0.0
C266 C 0.52522 0.08266 0.87075 0.0
C267 C 0.44714 0.83395 0.18499 0.0
C268 C 0.42328 0.82161 0.15778 0.0
C269 C 0.46434 0.86766 0.1528 0.0
H270 H 0.58953 0.11893 0.95154 0.0
H271 H 0.55962 0.0603 1.00643 0.0
H272 H 0.39926 0.83448 0.07437 0.0
H273 H 0.42919 0.89298 0.01939 0.0
C274 C 0.57164 0.10963 0.92811 0.0
C275 C 0.55456 0.07596 0.95979 0.0
C276 C 0.41736 0.84291 0.09714 0.0
C277 C 0.43445 0.87652 0.06541 0.0
C278 C 0.53143 0.06187 0.93108 0.0
C279 C 0.51467 0.02495 0.9634 0.0
C280 C 0.50186 -0.00607 0.99376 0.0
C281 C 0.45787 0.88947 0.09325 0.0
C282 C 0.47469 0.92622 0.06082 0.0
C283 C 0.48751 0.95719 0.03039 0.0
H284 H 0.53737 0.13136 0.79164 0.0
H285 H 0.5073 0.07222 0.84807 0.0
H286 H 0.45239 0.81817 0.23135 0.0
H287 H 0.48249 0.87723 0.17481 0.0
C288 C 0.94611 0.65236 0.57965 0.0
C289 C 0.93723 0.64539 0.64349 0.0
C290 C 0.96015 0.61473 0.54988 0.0
C291 C 0.04418 0.29449 0.44558 0.0
C292 C 0.05245 0.30201 0.38132 0.0
C293 C 0.03016 0.33162 0.47653 0.0
H294 H 0.93687 0.59417 0.72661 0.0
H295 H 0.96131 0.52904 0.67442 0.0
H296 H 0.05178 0.35364 0.2987 0.0
H297 H 0.02742 0.41783 0.35291 0.0
C298 C 0.94345 0.60095 0.67749 0.0
C299 C 0.95737 0.56351 0.64772 0.0
C300 C 0.04568 0.34644 0.34814 0.0
C301 C 0.03179 0.38336 0.37905 0.0
C302 C 0.96544 0.5698 0.58355 0.0
C303 C 0.97824 0.52906 0.55207 0.0
C304 C 0.98885 0.49384 0.52808 0.0
C305 C 0.02431 0.37656 0.44361 0.0
C306 C 0.01155 0.41683 0.47612 0.0
C307 C 0.00094 0.4519 0.50054 0.0
H308 H 0.94154 0.68597 0.55208 0.0
H309 H 0.96633 0.62013 0.50016 0.0
H310 H 0.04919 0.26089 0.47255 0.0
H311 H 0.02444 0.32583 0.52655 0.0
C312 C 0.44682 0.60476 0.34164 0.0
C313 C 0.43814 0.64626 0.37752 0.0
C314 C 0.46063 0.56719 0.37159 0.0
C315 C 0.5423 0.34223 0.67667 0.0
C316 C 0.55163 0.30094 0.64159 0.0
C317 C 0.52851 0.3793 0.64565 0.0
H318 H 0.43788 0.68156 0.47274 0.0
H319 H 0.46232 0.61547 0.5251 0.0
H320 H 0.55308 0.26548 0.54662 0.0
H321 H 0.52867 0.33071 0.49233 0.0
C322 C 0.44446 0.65036 0.44365 0.0
C323 C 0.45828 0.61252 0.47368 0.0
C324 C 0.54597 0.2965 0.5751 0.0
C325 C 0.53217 0.33387 0.54398 0.0
C326 C 0.46602 0.57034 0.43794 0.0
C327 C 0.4785 0.52909 0.46934 0.0
C328 C 0.48897 0.49381 0.49374 0.0
C329 C 0.5238 0.37587 0.579 0.0
C330 C 0.51137 0.41674 0.54665 0.0
C331 C 0.50091 0.45187 0.52187 0.0
H332 H 0.44226 0.60037 0.29067 0.0
H333 H 0.46652 0.53492 0.34322 0.0
H334 H 0.54633 0.34686 0.7279 0.0
H335 H 0.52213 0.41142 0.67347 0.0
loop_
_geom_bond_atom_site_label_1
_geom_bond_atom_site_label_2
_geom_bond_distance
_geom_bond_site_symmetry_2
_ccdc_geom_bond_type
Mn0 O5 2.095 . S
Mn0 O15 2.162 . S
Mn0 O16 2.297 . S
Mn0 O24 2.385 . S
Mn0 O25 2.209 . S
Mn0 O26 2.094 . S
Mn1 O6 2.121 . S
Mn1 N8 2.257 . S
Mn1 N17 2.282 . S
Mn1 O25 2.215 . S
Mn1 O27 2.117 . S
C2 O24 1.234 . S
C2 O25 1.283 . S
C3 O15 1.281 . S
C3 O16 1.236 . S
C4 O26 1.240 . S
C4 O27 1.264 . S
O5 Mn0 2.095 . S
O5 C14 1.250 . S
O6 Mn1 2.121 . S
O6 C14 1.258 . S
C7 N8 1.326 . S
C7 C11 1.460 1_554 S
C7 H13 0.929 . S
N8 Mn1 2.257 . S
N8 C7 1.326 . S
N8 C12 1.362 . S
C9 C10 1.258 1_554 S
C9 C12 1.431 . S
C9 C29 1.449 . S
C10 C9 1.258 1_556 S
C10 C11 1.477 . S
C10 H30 0.931 . S
C11 C7 1.460 1_556 S
C11 C10 1.477 . S
C11 H31 0.930 . S
C12 N8 1.362 . S
C12 C9 1.431 . S
C12 C22 1.476 . S
H13 C7 0.929 . S
C14 O5 1.250 . S
C14 O6 1.258 . S
O15 Mn0 2.162 . S
O15 C3 1.281 . S
O16 Mn0 2.297 . S
O16 C3 1.236 . S
N17 Mn1 2.282 . S
N17 C18 1.328 . S
N17 C22 1.318 . S
C18 N17 1.328 . S
C18 C19 1.457 . S
C18 H23 0.929 . S
C19 C18 1.457 . S
C19 C20 1.291 . S
C19 H32 0.931 . S
C20 C19 1.291 . S
C20 C21 1.373 . S
C20 H33 0.929 . S
C21 C20 1.373 . S
C21 C22 1.396 . S
C21 C28 1.403 . S
C22 C12 1.476 . S
C22 N17 1.318 . S
C22 C21 1.396 . S
H23 C18 0.929 . S
O24 Mn0 2.385 . S
O24 C2 1.234 . S
O25 Mn0 2.209 . S
O25 Mn1 2.215 . S
O25 C2 1.283 . S
O26 Mn0 2.094 . S
O26 C4 1.240 . S
O27 Mn1 2.117 . S
O27 C4 1.264 . S
C28 C21 1.403 . S
C28 C29 1.399 . S
C28 H34 0.929 . S
C29 C9 1.449 . S
C29 C28 1.399 . S
C29 H35 0.930 1_554 S
H30 C10 0.931 . S
H31 C11 0.930 . S
H32 C19 0.931 . S
H33 C20 0.929 . S
H34 C28 0.929 . S
H35 C29 0.930 1_556 S
Mn36 O41 2.095 . S
Mn36 O51 2.162 . S
Mn36 O52 2.297 . S
Mn36 O60 2.385 . S
Mn36 O61 2.209 . S
Mn36 O62 2.094 . S
Mn37 O42 2.121 . S
Mn37 N44 2.257 . S
Mn37 N53 2.282 . S
Mn37 O61 2.215 . S
Mn37 O63 2.117 . S
C38 O60 1.234 . S
C38 O61 1.283 . S
C39 O51 1.281 . S
C39 O52 1.236 . S
C40 O62 1.240 . S
C40 O63 1.264 . S
O41 Mn36 2.095 . S
O41 C50 1.250 . S
O42 Mn37 2.121 . S
O42 C50 1.258 . S
C43 N44 1.326 . S
C43 C47 1.460 1_554 S
C43 H49 0.929 . S
N44 Mn37 2.257 . S
N44 C43 1.326 . S
N44 C48 1.362 . S
C45 C46 1.258 1_554 S
C45 C48 1.431 . S
C45 C65 1.449 . S
C46 C45 1.258 1_556 S
C46 C47 1.477 . S
C46 H66 0.931 . S
C47 C43 1.460 1_556 S
C47 C46 1.477 . S
C47 H67 0.930 . S
C48 N44 1.362 . S
C48 C45 1.431 . S
C48 C58 1.476 . S
H49 C43 0.929 . S
C50 O41 1.250 . S
C50 O42 1.258 . S
O51 Mn36 2.162 . S
O51 C39 1.281 . S
O52 Mn36 2.297 . S
O52 C39 1.236 . S
N53 Mn37 2.282 . S
N53 C54 1.328 . S
N53 C58 1.318 . S
C54 N53 1.328 . S
C54 C55 1.457 . S
C54 H59 0.929 . S
C55 C54 1.457 . S
C55 C56 1.291 . S
C55 H68 0.931 . S
C56 C55 1.291 . S
C56 C57 1.373 . S
C56 H69 0.929 . S
C57 C56 1.373 . S
C57 C58 1.396 . S
C57 C64 1.403 . S
C58 C48 1.476 . S
C58 N53 1.318 . S
C58 C57 1.396 . S
H59 C54 0.929 . S
O60 Mn36 2.385 . S
O60 C38 1.234 . S
O61 Mn36 2.209 . S
O61 Mn37 2.215 . S
O61 C38 1.283 . S
O62 Mn36 2.094 . S
O62 C40 1.240 . S
O63 Mn37 2.117 . S
O63 C40 1.264 . S
C64 C57 1.403 . S
C64 C65 1.399 . S
C64 H70 0.929 . S
C65 C45 1.449 . S
C65 C64 1.399 . S
C65 H71 0.930 1_554 S
H66 C46 0.931 . S
H67 C47 0.930 . S
H68 C55 0.931 . S
H69 C56 0.929 . S
H70 C64 0.929 . S
H71 C65 0.930 1_556 S
Mn72 O77 2.095 . S
Mn72 O87 2.162 . S
Mn72 O88 2.297 . S
Mn72 O96 2.385 . S
Mn72 O97 2.209 . S
Mn72 O98 2.094 . S
Mn73 O78 2.121 . S
Mn73 N80 2.257 . S
Mn73 N89 2.282 . S
Mn73 O97 2.215 . S
Mn73 O99 2.117 . S
C74 O96 1.234 . S
C74 O97 1.283 . S
C75 O87 1.281 . S
C75 O88 1.236 . S
C76 O98 1.240 . S
C76 O99 1.264 . S
O77 Mn72 2.095 . S
O77 C86 1.250 . S
O78 Mn73 2.121 . S
O78 C86 1.258 . S
C79 N80 1.326 . S
C79 C83 1.460 1_556 S
C79 H85 0.929 . S
N80 Mn73 2.257 . S
N80 C79 1.326 . S
N80 C84 1.362 . S
C81 C82 1.258 1_556 S
C81 C84 1.431 . S
C81 C101 1.449 . S
C82 C81 1.258 1_554 S
C82 C83 1.477 . S
C82 H102 0.931 . S
C83 C79 1.460 1_554 S
C83 C82 1.477 . S
C83 H103 0.930 . S
C84 N80 1.362 . S
C84 C81 1.431 . S
C84 C94 1.476 . S
H85 C79 0.929 . S
C86 O77 1.250 . S
C86 O78 1.258 . S
O87 Mn72 2.162 . S
O87 C75 1.281 . S
O88 Mn72 2.297 . S
O88 C75 1.236 . S
N89 Mn73 2.282 . S
N89 C90 1.328 . S
N89 C94 1.318 . S
C90 N89 1.328 . S
C90 C91 1.457 . S
C90 H95 0.929 . S
C91 C90 1.457 . S
C91 C92 1.291 . S
C91 H104 0.931 . S
C92 C91 1.291 . S
C92 C93 1.373 . S
C92 H105 0.929 . S
C93 C92 1.373 . S
C93 C94 1.396 . S
C93 C100 1.403 . S
C94 C84 1.476 . S
C94 N89 1.318 . S
C94 C93 1.396 . S
H95 C90 0.929 . S
O96 Mn72 2.385 . S
O96 C74 1.234 . S
O97 Mn72 2.209 . S
O97 Mn73 2.215 . S
O97 C74 1.283 . S
O98 Mn72 2.094 . S
O98 C76 1.240 . S
O99 Mn73 2.117 . S
O99 C76 1.264 . S
C100 C93 1.403 . S
C100 C101 1.399 . S
C100 H106 0.929 . S
C101 C81 1.449 . S
C101 C100 1.399 . S
C101 H107 0.930 1_556 S
H102 C82 0.931 . S
H103 C83 0.930 . S
H104 C91 0.931 . S
H105 C92 0.929 . S
H106 C100 0.929 . S
H107 C101 0.930 1_554 S
Mn108 O113 2.095 . S
Mn108 O123 2.162 . S
Mn108 O124 2.297 . S
Mn108 O132 2.385 . S
Mn108 O133 2.209 . S
Mn108 O134 2.094 . S
Mn109 O114 2.121 . S
Mn109 N116 2.257 . S
Mn109 N125 2.282 . S
Mn109 O133 2.215 . S
Mn109 O135 2.117 . S
C110 O132 1.234 . S
C110 O133 1.283 . S
C111 O123 1.281 . S
C111 O124 1.236 . S
C112 O134 1.240 . S
C112 O135 1.264 . S
O113 Mn108 2.095 . S
O113 C122 1.250 . S
O114 Mn109 2.121 . S
O114 C122 1.258 . S
C115 N116 1.326 . S
C115 C119 1.460 1_556 S
C115 H121 0.929 . S
N116 Mn109 2.257 . S
N116 C115 1.326 . S
N116 C120 1.362 . S
C117 C118 1.258 1_556 S
C117 C120 1.431 . S
C117 C137 1.449 . S
C118 C117 1.258 1_554 S
C118 C119 1.477 . S
C118 H138 0.931 . S
C119 C115 1.460 1_554 S
C119 C118 1.477 . S
C119 H139 0.930 . S
C120 N116 1.362 . S
C120 C117 1.431 . S
C120 C130 1.476 . S
H121 C115 0.929 . S
C122 O113 1.250 . S
C122 O114 1.258 . S
O123 Mn108 2.162 . S
O123 C111 1.281 . S
O124 Mn108 2.297 . S
O124 C111 1.236 . S
N125 Mn109 2.282 . S
N125 C126 1.328 . S
N125 C130 1.318 . S
C126 N125 1.328 . S
C126 C127 1.457 . S
C126 H131 0.929 . S
C127 C126 1.457 . S
C127 C128 1.291 . S
C127 H140 0.931 . S
C128 C127 1.291 . S
C128 C129 1.373 . S
C128 H141 0.929 . S
C129 C128 1.373 . S
C129 C130 1.396 . S
C129 C136 1.403 . S
C130 C120 1.476 . S
C130 N125 1.318 . S
C130 C129 1.396 . S
H131 C126 0.929 . S
O132 Mn108 2.385 . S
O132 C110 1.234 . S
O133 Mn108 2.209 . S
O133 Mn109 2.215 . S
O133 C110 1.283 . S
O134 Mn108 2.094 . S
O134 C112 1.240 . S
O135 Mn109 2.117 . S
O135 C112 1.264 . S
C136 C129 1.403 . S
C136 C137 1.399 . S
C136 H142 0.929 . S
C137 C117 1.449 . S
C137 C136 1.399 . S
C137 H143 0.930 1_556 S
H138 C118 0.931 . S
H139 C119 0.930 . S
H140 C127 0.931 . S
H141 C128 0.929 . S
H142 C136 0.929 . S
H143 C137 0.930 1_554 S
C144 C145 1.332 . S
C144 C146 1.345 . S
C144 H164 0.932 . S
C145 C144 1.332 . S
C145 C154 1.332 . S
C146 C144 1.345 . S
C146 C158 1.334 . S
C146 H165 0.928 . S
C147 C148 1.332 . S
C147 C149 1.345 . S
C147 H166 0.932 . S
C148 C147 1.332 . S
C148 C156 1.332 . S
C149 C147 1.345 . S
C149 C161 1.334 . S
C149 H167 0.928 . S
H150 C154 0.932 . S
H151 C155 0.928 . S
H152 C156 0.932 . S
H153 C157 0.928 . S
C154 C145 1.332 . S
C154 H150 0.932 . S
C154 C155 1.345 . S
C155 H151 0.928 . S
C155 C154 1.345 . S
C155 C158 1.334 . S
C156 C148 1.332 . S
C156 H152 0.932 . S
C156 C157 1.345 . S
C157 H153 0.928 . S
C157 C156 1.345 . S
C157 C161 1.334 . S
C158 C146 1.334 . S
C158 C155 1.334 . S
C158 C159 1.487 . S
C159 C158 1.487 . S
C159 C160 1.185 . S
C160 C159 1.185 . S
C160 C163 1.482 1_565 S
C161 C149 1.334 . S
C161 C157 1.334 . S
C161 C162 1.487 . S
C162 C161 1.487 . S
C162 C163 1.185 . S
C163 C160 1.482 1_545 S
C163 C162 1.185 . S
H164 C144 0.932 . S
H165 C146 0.928 . S
H166 C147 0.932 . S
H167 C149 0.928 . S
C168 C169 1.332 . S
C168 C170 1.345 . S
C168 H188 0.932 . S
C169 C168 1.332 . S
C169 C178 1.332 . S
C170 C168 1.345 . S
C170 C182 1.334 . S
C170 H189 0.928 . S
C171 C172 1.332 . S
C171 C173 1.345 . S
C171 H190 0.932 . S
C172 C171 1.332 . S
C172 C180 1.332 . S
C173 C171 1.345 . S
C173 C185 1.334 . S
C173 H191 0.928 . S
H174 C178 0.932 . S
H175 C179 0.928 . S
H176 C180 0.932 . S
H177 C181 0.928 . S
C178 C169 1.332 . S
C178 H174 0.932 . S
C178 C179 1.345 . S
C179 H175 0.928 . S
C179 C178 1.345 . S
C179 C182 1.334 . S
C180 C172 1.332 . S
C180 H176 0.932 . S
C180 C181 1.345 . S
C181 H177 0.928 . S
C181 C180 1.345 . S
C181 C185 1.334 . S
C182 C170 1.334 . S
C182 C179 1.334 . S
C182 C183 1.487 . S
C183 C182 1.487 . S
C183 C184 1.185 . S
C184 C183 1.185 . S
C184 C187 1.482 . S
C185 C173 1.334 . S
C185 C181 1.334 . S
C185 C186 1.487 . S
C186 C185 1.487 . S
C186 C187 1.185 . S
C187 C184 1.482 . S
C187 C186 1.185 . S
H188 C168 0.932 . S
H189 C170 0.928 . S
H190 C171 0.932 . S
H191 C173 0.928 . S
C192 C193 1.332 . S
C192 C194 1.345 . S
C192 H212 0.932 . S
C193 C192 1.332 . S
C193 C202 1.332 . S
C194 C192 1.345 . S
C194 C206 1.334 . S
C194 H213 0.928 . S
C195 C196 1.332 . S
C195 C197 1.345 . S
C195 H214 0.932 . S
C196 C195 1.332 . S
C196 C204 1.332 . S
C197 C195 1.345 . S
C197 C209 1.334 . S
C197 H215 0.928 . S
H198 C202 0.932 . S
H199 C203 0.928 . S
H200 C204 0.932 . S
H201 C205 0.928 . S
C202 C193 1.332 . S
C202 H198 0.932 . S
C202 C203 1.345 . S
C203 H199 0.928 . S
C203 C202 1.345 . S
C203 C206 1.334 . S
C204 C196 1.332 . S
C204 H200 0.932 . S
C204 C205 1.345 . S
C205 H201 0.928 . S
C205 C204 1.345 . S
C205 C209 1.334 . S
C206 C194 1.334 . S
C206 C203 1.334 . S
C206 C207 1.487 . S
C207 C206 1.487 . S
C207 C208 1.185 . S
C208 C207 1.185 . S
C208 C211 1.482 1_545 S
C209 C197 1.334 . S
C209 C205 1.334 . S
C209 C210 1.487 . S
C210 C209 1.487 . S
C210 C211 1.185 . S
C211 C208 1.482 1_565 S
C211 C210 1.185 . S
H212 C192 0.932 . S
H213 C194 0.928 . S
H214 C195 0.932 . S
H215 C197 0.928 . S
C216 C217 1.332 . S
C216 C218 1.345 . S
C216 H236 0.932 . S
C217 C216 1.332 . S
C217 C226 1.332 . S
C218 C216 1.345 . S
C218 C230 1.334 . S
C218 H237 0.928 . S
C219 C220 1.332 . S
C219 C221 1.345 . S
C219 H238 0.932 . S
C220 C219 1.332 . S
C220 C228 1.332 . S
C221 C219 1.345 . S
C221 C233 1.334 . S
C221 H239 0.928 . S
H222 C226 0.932 . S
H223 C227 0.928 . S
H224 C228 0.932 . S
H225 C229 0.928 . S
C226 C217 1.332 . S
C226 H222 0.932 . S
C226 C227 1.345 . S
C227 H223 0.928 . S
C227 C226 1.345 . S
C227 C230 1.334 . S
C228 C220 1.332 . S
C228 H224 0.932 . S
C228 C229 1.345 . S
C229 H225 0.928 . S
C229 C228 1.345 . S
C229 C233 1.334 . S
C230 C218 1.334 . S
C230 C227 1.334 . S
C230 C231 1.487 . S
C231 C230 1.487 . S
C231 C232 1.185 . S
C232 C231 1.185 . S
C232 C235 1.482 . S
C233 C221 1.334 . S
C233 C229 1.334 . S
C233 C234 1.487 . S
C234 C233 1.487 . S
C234 C235 1.185 . S
C235 C232 1.482 . S
C235 C234 1.185 . S
H236 C216 0.932 . S
H237 C218 0.928 . S
H238 C219 0.932 . S
H239 C221 0.928 . S
C240 C241 1.332 . S
C240 C242 1.345 . S
C240 H260 0.932 . S
C241 C240 1.332 . S
C241 C250 1.332 . S
C242 C240 1.345 . S
C242 C254 1.334 . S
C242 H261 0.928 . S
C243 C244 1.332 . S
C243 C245 1.345 . S
C243 H262 0.932 . S
C244 C243 1.332 . S
C244 C252 1.332 . S
C245 C243 1.345 . S
C245 C257 1.334 . S
C245 H263 0.928 . S
H246 C250 0.932 . S
H247 C251 0.928 . S
H248 C252 0.932 . S
H249 C253 0.928 . S
C250 C241 1.332 . S
C250 H246 0.932 . S
C250 C251 1.345 . S
C251 H247 0.928 . S
C251 C250 1.345 . S
C251 C254 1.334 . S
C252 C244 1.332 . S
C252 H248 0.932 . S
C252 C253 1.345 . S
C253 H249 0.928 . S
C253 C252 1.345 . S
C253 C257 1.334 . S
C254 C242 1.334 . S
C254 C251 1.334 . S
C254 C255 1.487 . S
C255 C254 1.487 . S
C255 C256 1.185 . S
C256 C255 1.185 . S
C256 C259 1.482 1_444 S
C257 C245 1.334 . S
C257 C253 1.334 . S
C257 C258 1.487 . S
C258 C257 1.487 . S
C258 C259 1.185 . S
C259 C256 1.482 1_666 S
C259 C258 1.185 . S
H260 C240 0.932 . S
H261 C242 0.928 . S
H262 C243 0.932 . S
H263 C245 0.928 . S
C264 C265 1.332 . S
C264 C266 1.345 . S
C264 H284 0.932 . S
C265 C264 1.332 . S
C265 C274 1.332 . S
C266 C264 1.345 . S
C266 C278 1.334 . S
C266 H285 0.928 . S
C267 C268 1.332 . S
C267 C269 1.345 . S
C267 H286 0.932 . S
C268 C267 1.332 . S
C268 C276 1.332 . S
C269 C267 1.345 . S
C269 C281 1.334 . S
C269 H287 0.928 . S
H270 C274 0.932 . S
H271 C275 0.928 . S
H272 C276 0.932 . S
H273 C277 0.928 . S
C274 C265 1.332 . S
C274 H270 0.932 . S
C274 C275 1.345 . S
C275 H271 0.928 . S
C275 C274 1.345 . S
C275 C278 1.334 . S
C276 C268 1.332 . S
C276 H272 0.932 . S
C276 C277 1.345 . S
C277 H273 0.928 . S
C277 C276 1.345 . S
C277 C281 1.334 . S
C278 C266 1.334 . S
C278 C275 1.334 . S
C278 C279 1.487 . S
C279 C278 1.487 . S
C279 C280 1.185 . S
C280 C279 1.185 . S
C280 C283 1.482 1_546 S
C281 C269 1.334 . S
C281 C277 1.334 . S
C281 C282 1.487 . S
C282 C281 1.487 . S
C282 C283 1.185 . S
C283 C280 1.482 1_564 S
C283 C282 1.185 . S
H284 C264 0.932 . S
H285 C266 0.928 . S
H286 C267 0.932 . S
H287 C269 0.928 . S
C288 C289 1.332 . S
C288 C290 1.345 . S
C288 H308 0.932 . S
C289 C288 1.332 . S
C289 C298 1.332 . S
C290 C288 1.345 . S
C290 C302 1.334 . S
C290 H309 0.928 . S
C291 C292 1.332 . S
C291 C293 1.345 . S
C291 H310 0.932 . S
C292 C291 1.332 . S
C292 C300 1.332 . S
C293 C291 1.345 . S
C293 C305 1.334 . S
C293 H311 0.928 . S
H294 C298 0.932 . S
H295 C299 0.928 . S
H296 C300 0.932 . S
H297 C301 0.928 . S
C298 C289 1.332 . S
C298 H294 0.932 . S
C298 C299 1.345 . S
C299 H295 0.928 . S
C299 C298 1.345 . S
C299 C302 1.334 . S
C300 C292 1.332 . S
C300 H296 0.932 . S
C300 C301 1.345 . S
C301 H297 0.928 . S
C301 C300 1.345 . S
C301 C305 1.334 . S
C302 C290 1.334 . S
C302 C299 1.334 . S
C302 C303 1.487 . S
C303 C302 1.487 . S
C303 C304 1.185 . S
C304 C303 1.185 . S
C304 C307 1.482 1_655 S
C305 C293 1.334 . S
C305 C301 1.334 . S
C305 C306 1.487 . S
C306 C305 1.487 . S
C306 C307 1.185 . S
C307 C304 1.482 1_455 S
C307 C306 1.185 . S
H308 C288 0.932 . S
H309 C290 0.928 . S
H310 C291 0.932 . S
H311 C293 0.928 . S
C312 C313 1.332 . S
C312 C314 1.345 . S
C312 H332 0.932 . S
C313 C312 1.332 . S
C313 C322 1.332 . S
C314 C312 1.345 . S
C314 C326 1.334 . S
C314 H333 0.928 . S
C315 C316 1.332 . S
C315 C317 1.345 . S
C315 H334 0.932 . S
C316 C315 1.332 . S
C316 C324 1.332 . S
C317 C315 1.345 . S
C317 C329 1.334 . S
C317 H335 0.928 . S
H318 C322 0.932 . S
H319 C323 0.928 . S
H320 C324 0.932 . S
H321 C325 0.928 . S
C322 C313 1.332 . S
C322 H318 0.932 . S
C322 C323 1.345 . S
C323 H319 0.928 . S
C323 C322 1.345 . S
C323 C326 1.334 . S
C324 C316 1.332 . S
C324 H320 0.932 . S
C324 C325 1.345 . S
C325 H321 0.928 . S
C325 C324 1.345 . S
C325 C329 1.334 . S
C326 C314 1.334 . S
C326 C323 1.334 . S
C326 C327 1.487 . S
C327 C326 1.487 . S
C327 C328 1.185 . S
C328 C327 1.185 . S
C328 C331 1.482 . S
C329 C317 1.334 . S
C329 C325 1.334 . S
C329 C330 1.487 . S
C330 C329 1.487 . S
C330 C331 1.185 . S
C331 C328 1.482 . S
C331 C330 1.185 . S
H332 C312 0.932 . S
H333 C314 0.928 . S
H334 C315 0.932 . S
H335 C317 0.928 . S
C145 C40 0.788 . S
C148 C4 0.788 . S
C169 C2 0.680 . S
C172 C38 0.680 . S
C193 C112 0.789 . S
C196 C76 0.789 . S
C217 C74 0.680 . S
C220 C110 0.680 . S
C241 C14 1.469 . S
C244 C86 1.469 . S
C265 C122 1.469 . S
C268 C50 1.469 . S
C289 C75 1.542 . S
C292 C3 1.542 . S
C313 C39 1.542 . S
C316 C111 1.542 . S
