# Generated by pormake.
# Topology unj, (4)-cn, num edge types: 1
# Building blocks:
#     Node 0, Type 0, BuildingBlock: QUQFOY_clean_sbu_3, # of connection points: 4
#     Node 1, Type 0, BuildingBlock: QUQFOY_clean_sbu_3, # of connection points: 4
#     Node 2, Type 0, BuildingBlock: QUQFOY_clean_sbu_3, # of connection points: 4
#     Node 3, Type 0, BuildingBlock: QUQFOY_clean_sbu_3, # of connection points: 4
#     Node 4, Type 0, BuildingBlock: QUQFOY_clean_sbu_3, # of connection points: 4
#     Node 5, Type 0, BuildingBlock: QUQFOY_clean_sbu_3, # of connection points: 4
#     Edge 6, Type (0, 0), BuildingBlock: EZIPEK_clean_linker_0, # of connection points: 2
#     Edge 7, Type (0, 0), BuildingBlock: EZIPEK_clean_linker_0, # of connection points: 2
#     Edge 8, Type (0, 0), BuildingBlock: EZIPEK_clean_linker_0, # of connection points: 2
#     Edge 9, Type (0, 0), BuildingBlock: EZIPEK_clean_linker_0, # of connection points: 2
#     Edge 10, Type (0, 0), BuildingBlock: EZIPEK_clean_linker_0, # of connection points: 2
#     Edge 11, Type (0, 0), BuildingBlock: EZIPEK_clean_linker_0, # of connection points: 2
#     Edge 12, Type (0, 0), BuildingBlock: EZIPEK_clean_linker_0, # of connection points: 2
#     Edge 13, Type (0, 0), BuildingBlock: EZIPEK_clean_linker_0, # of connection points: 2
#     Edge 14, Type (0, 0), BuildingBlock: EZIPEK_clean_linker_0, # of connection points: 2
#     Edge 15, Type (0, 0), BuildingBlock: EZIPEK_clean_linker_0, # of connection points: 2
#     Edge 16, Type (0, 0), BuildingBlock: EZIPEK_clean_linker_0, # of connection points: 2
#     Edge 17, Type (0, 0), BuildingBlock: EZIPEK_clean_linker_0, # of connection points: 2
# Relax obj value: 0.027
# Max RMSD: 0.078
# Mean RMSD: 0.078
data_MOF--net-unj--node1-QUQFOY_clean_sbu_3--edge1-EZIPEK_clean_linker_0
_symmetry_space_group_name_H-M    P1
_symmetry_Int_Tables_number       1
_symmetry_cell_setting            triclinic
loop_
_symmetry_equiv_pos_as_xyz
'x, y, z'
_cell_length_a     25.553073
_cell_length_b     25.438773
_cell_length_c     27.926556
_cell_angle_alpha  90.034739
_cell_angle_beta   89.804964
_cell_angle_gamma 120.20725
loop_
_atom_site_label
_atom_site_type_symbol
_atom_site_fract_x
_atom_site_fract_y
_atom_site_fract_z
_atom_type_partial_charge
C0 C 0.57948 0.31164 0.50729 0.0
O1 O 0.61364 0.29714 0.52966 0.0
Cd2 Cd 0.58412 0.22602 0.59344 0.0
O3 O 0.52446 0.2909 0.51988 0.0
Cd4 Cd 0.45654 0.22682 0.58561 0.0
C5 C 0.4611 0.10606 0.54016 0.0
O6 O 0.53643 0.26567 0.64243 0.0
O7 O 0.45124 0.19622 0.67105 0.0
O8 O 0.41892 0.29643 0.59106 0.0
C9 C 0.50636 0.23521 0.67828 0.0
O10 O 0.51496 0.12837 0.55562 0.0
C11 C 0.36352 0.25537 0.59367 0.0
O12 O 0.43139 0.13338 0.5456 0.0
O13 O 0.3506 0.2005 0.58882 0.0
C14 C 0.25104 0.55838 0.64205 0.0
O15 O 0.30641 0.57875 0.65172 0.0
Cd16 Cd 0.33751 0.53355 0.71093 0.0
O17 O 0.20901 0.51438 0.66539 0.0
Cd18 Cd 0.19825 0.44898 0.73386 0.0
C19 C 0.26181 0.38535 0.67026 0.0
O20 O 0.27959 0.52782 0.77964 0.0
O21 O 0.24582 0.43641 0.80623 0.0
O22 O 0.11918 0.46977 0.75712 0.0
C23 C 0.27798 0.49328 0.81285 0.0
O24 O 0.311 0.43472 0.67811 0.0
C25 C 0.08177 0.41566 0.76964 0.0
O26 O 0.21105 0.37803 0.68388 0.0
O27 O 0.09732 0.37584 0.76384 0.0
C28 C 0.65374 0.29118 0.84691 0.0
O29 O 0.67369 0.34117 0.86912 0.0
Cd30 Cd 0.75458 0.37673 0.92492 0.0
O31 O 0.67113 0.25382 0.85803 0.0
Cd32 Cd 0.73253 0.2411 0.9202 0.0
C33 C 0.85712 0.34882 0.86571 0.0
O34 O 0.71689 0.29687 0.98199 0.0
O35 O 0.78841 0.27745 -0.00329 0.0
O36 O 0.64832 0.14102 0.93741 0.0
C37 C 0.75561 0.2987 0.01094 0.0
O38 O 0.84377 0.3874 0.88209 0.0
C39 C 0.6782 0.11388 0.93248 0.0
O40 O 0.82296 0.29208 0.87252 0.0
O41 O 0.73344 0.14553 0.92012 0.0
C42 C 0.3953 0.65391 0.96589 0.0
O43 O 0.36647 0.68187 0.97258 0.0
Cd44 Cd 0.39355 0.76074 0.02987 0.0
O45 O 0.44242 0.66679 -0.01002 0.0
Cd46 Cd 0.50048 0.73911 0.05426 0.0
C47 C 0.5358 0.86656 -0.00638 0.0
O48 O 0.41288 0.72145 0.10103 0.0
O49 O 0.49967 0.7935 0.12623 0.0
O50 O 0.51306 0.6586 0.08741 0.0
C51 C 0.44344 0.75908 0.13348 0.0
O52 O 0.4813 0.85324 0.00064 0.0
C53 C 0.56995 0.69066 0.0923 0.0
O54 O 0.55422 0.83052 0.0059 0.0
O55 O 0.59573 0.7453 0.07763 0.0
C56 C 0.72313 0.41489 0.16984 0.0
O57 O 0.6665 0.38667 0.17787 0.0
Cd58 Cd 0.61828 0.41624 0.23616 0.0
O59 O 0.7592 0.46263 0.19312 0.0
Cd60 Cd 0.7524 0.52545 0.25786 0.0
C61 C 0.65981 0.55817 0.19465 0.0
O62 O 0.6843 0.43569 0.3023 0.0
O63 O 0.70761 0.51986 0.33783 0.0
O64 O 0.85138 0.54139 0.27695 0.0
C65 C 0.68153 0.46234 0.33954 0.0
O66 O 0.61798 0.50347 0.2012 0.0
C67 C 0.87501 0.59775 0.28551 0.0
O68 O 0.71313 0.57752 0.21005 0.0
O69 O 0.84202 0.62154 0.28057 0.0
C70 C 0.30347 0.71848 0.30368 0.0
O71 O 0.27292 0.66244 0.31422 0.0
Cd72 Cd 0.20364 0.62464 0.37963 0.0
O73 O 0.30077 0.75853 0.3291 0.0
Cd74 Cd 0.25033 0.76112 0.40352 0.0
C75 C 0.11385 0.68579 0.35408 0.0
O76 O 0.25767 0.68308 0.4476 0.0
O77 O 0.19694 0.71101 0.4772 0.0
O78 O 0.34852 0.84592 0.42525 0.0
C79 C 0.22514 0.68228 0.48221 0.0
O80 O 0.11919 0.63908 0.35962 0.0
C81 C 0.32798 0.87919 0.43997 0.0
O82 O 0.15683 0.7389 0.364 0.0
O83 O 0.2716 0.85906 0.43536 0.0
C84 C 0.41717 0.04889 0.46452 0.0
C85 C 0.43294 0.04857 0.51314 0.0
C86 C 0.39058 0.93841 0.51003 0.0
C87 C 0.3676 0.93786 0.46365 0.0
N88 N 0.35596 0.99117 0.39689 0.0
N89 N 0.42971 -0.00654 0.58438 0.0
C90 C 0.38002 -0.00724 0.4409 0.0
C91 C 0.41897 -0.00646 0.53643 0.0
N92 N 0.43968 0.10293 0.44053 0.0
N93 N 0.38515 0.88632 0.52897 0.0
H94 H 0.45044 0.03293 0.60503 0.0
H95 H 0.41388 0.95396 0.60466 0.0
H96 H 0.36288 0.84441 0.51167 0.0
H97 H 0.40684 0.88539 0.56018 0.0
H98 H 0.43494 0.10612 0.40381 0.0
H99 H 0.46811 0.14493 0.4565 0.0
H100 H 0.35708 0.02877 0.38105 0.0
H101 H 0.33178 0.95127 0.37709 0.0
C102 C 0.28912 0.25582 0.65206 0.0
C103 C 0.31749 0.2718 0.6063 0.0
C104 C 0.2884 0.34906 0.59641 0.0
C105 C 0.26541 0.33708 0.64386 0.0
N106 N 0.22516 0.26764 0.7104 0.0
N107 N 0.32854 0.31882 0.52952 0.0
C108 C 0.2588 0.286 0.66926 0.0
C109 C 0.31154 0.31346 0.57653 0.0
N110 N 0.29561 0.21592 0.68076 0.0
N111 N 0.29014 0.39612 0.57144 0.0
H112 H 0.34489 0.29226 0.51445 0.0
H113 H 0.32181 0.34527 0.50464 0.0
H114 H 0.27007 0.42037 0.58434 0.0
H115 H 0.31248 0.41218 0.53887 0.0
H116 H 0.28312 0.20882 0.71673 0.0
H117 H 0.31664 0.19199 0.66964 0.0
H118 H 0.21384 0.22731 0.72819 0.0
H119 H 0.20359 0.28982 0.72438 0.0
C120 C 0.97011 0.40185 0.86549 0.0
C121 C 0.91482 0.37001 0.84007 0.0
C122 C 0.96878 0.36614 0.76866 0.0
C123 C 0.02429 0.40077 0.7933 0.0
N124 N 0.07965 0.45974 0.86228 0.0
N125 N 0.86114 0.33082 0.76591 0.0
C126 C 0.02551 0.42145 0.84076 0.0
C127 C 0.914 0.35456 0.79115 0.0
N128 N 0.9695 0.41038 0.91384 0.0
N129 N 0.96847 0.34404 0.72394 0.0
H130 H 0.82034 0.32241 0.78126 0.0
H131 H 0.85843 0.32421 0.72901 0.0
H132 H 0.00797 0.35424 0.70537 0.0
H133 H 0.92919 0.31272 0.70629 0.0
H134 H 0.00768 0.42661 0.93541 0.0
H135 H 0.92989 0.39671 0.93345 0.0
H136 H 0.08337 0.48217 0.89438 0.0
H137 H 0.12148 0.47263 0.8466 0.0
C138 C 0.62639 0.97025 0.00399 0.0
C139 C 0.57922 0.9272 0.97431 0.0
C140 C 0.60238 0.00562 0.91381 0.0
C141 C 0.64977 0.04846 0.94334 0.0
N142 N 0.71578 0.06998 0.01124 0.0
N143 N 0.53062 0.89938 0.89732 0.0
C144 C 0.66506 0.03003 -0.01353 0.0
C145 C 0.56979 0.94355 0.92798 0.0
N146 N 0.63148 0.95549 0.05019 0.0
N147 N 0.58786 0.02465 0.87276 0.0
H148 H 0.50671 0.8534 0.90664 0.0
H149 H 0.52568 0.90728 0.86151 0.0
H150 H 0.61326 0.06904 0.85978 0.0
H151 H 0.54921 -0.00257 0.85271 0.0
H152 H 0.65993 0.98708 0.07537 0.0
H153 H 0.60379 0.91252 0.06497 0.0
H154 H 0.73306 0.05711 0.03976 0.0
H155 H 0.74368 0.11521 0.00112 0.0
C156 C 0.63506 0.5886 0.11709 0.0
C157 C 0.64626 0.59903 0.16685 0.0
C158 C 0.62313 0.68139 0.16374 0.0
C159 C 0.60372 0.66502 0.11571 0.0
N160 N 0.58992 0.60361 0.04594 0.0
N161 N 0.6493 0.65266 0.23892 0.0
C162 C 0.60973 0.61902 0.09204 0.0
C163 C 0.64082 0.6454 0.19048 0.0
N164 N 0.65003 0.55064 0.09378 0.0
N165 N 0.62389 0.73081 0.18387 0.0
H166 H 0.6632 0.62774 0.25953 0.0
H167 H 0.63902 0.6805 0.25939 0.0
H168 H 0.60912 0.75691 0.16601 0.0
H169 H 0.64327 0.7489 0.21693 0.0
H170 H 0.64852 0.54543 0.05675 0.0
H171 H 0.66907 0.52798 0.11118 0.0
H172 H 0.58588 0.56554 0.02856 0.0
H173 H 0.57474 0.62761 0.02551 0.0
C174 C 0.04588 0.68635 0.29002 0.0
C175 C 0.05487 0.67662 0.33855 0.0
C176 C 0.94594 0.6246 0.35398 0.0
C177 C 0.93667 0.63221 0.30504 0.0
N178 N 0.97575 0.68098 0.22896 0.0
N179 N 0.0173 0.65145 0.41935 0.0
C180 C -0.01384 0.66701 0.27388 0.0
C181 C 0.00595 0.65058 0.37143 0.0
N182 N 0.094 0.71116 0.25908 0.0
N183 N 0.89726 0.59071 0.38323 0.0
H184 H 0.06108 0.6706 0.43306 0.0
H185 H -0.01574 0.63822 0.44582 0.0
H186 H 0.85258 0.5737 0.37231 0.0
H187 H 0.90073 0.57694 0.41758 0.0
H188 H 0.08993 0.71322 0.22216 0.0
H189 H 0.13847 0.72742 0.27022 0.0
H190 H 0.00986 0.71059 0.20577 0.0
H191 H 0.93227 0.66643 0.21612 0.0
C192 C 0.59605 0.40183 0.45753 0.0
C193 C 0.60397 0.35087 0.46441 0.0
C194 C 0.67306 0.38307 0.39629 0.0
C195 C 0.65763 0.4278 0.38461 0.0
N196 N 0.59547 0.4728 0.40011 0.0
N197 N 0.6367 0.28416 0.4311 0.0
C198 C 0.61664 0.43549 0.41412 0.0
C199 C 0.63859 0.33883 0.4311 0.0
N200 N 0.57143 0.41983 0.49291 0.0
N201 N 0.72213 0.38405 0.37565 0.0
H202 H 0.60838 0.24827 0.45369 0.0
H203 H 0.6576 0.27206 0.40466 0.0
H204 H 0.75176 0.41862 0.35261 0.0
H205 H 0.73756 0.35491 0.38625 0.0
H206 H 0.57011 0.46006 0.49114 0.0
H207 H 0.55815 0.3982 0.52607 0.0
H208 H 0.56083 0.47497 0.41816 0.0
H209 H 0.60829 0.49722 0.3681 0.0
C210 C 0.19748 0.58506 0.52311 0.0
C211 C 0.22045 0.6485 0.52621 0.0
C212 C 0.24868 0.64815 0.60967 0.0
C213 C 0.23529 0.58732 0.60369 0.0
N214 N 0.19982 0.49764 0.5546 0.0
N215 N 0.26942 0.74207 0.57141 0.0
C216 C 0.20969 0.55529 0.56058 0.0
C217 C 0.24565 0.68047 0.56945 0.0
N218 N 0.16288 0.55331 0.48475 0.0
N219 N 0.26315 0.67445 0.65401 0.0
H220 H 0.2661 0.7672 0.54336 0.0
H221 H 0.29551 0.76895 0.59978 0.0
H222 H 0.26543 0.65172 0.68432 0.0
H223 H 0.26747 0.71651 0.66171 0.0
H224 H 0.14023 0.50607 0.48235 0.0
H225 H 0.15166 0.57396 0.45756 0.0
H226 H 0.18799 0.4748 0.52196 0.0
H227 H 0.20758 0.47394 0.58146 0.0
C228 C 0.56131 0.21677 0.80068 0.0
C229 C 0.61102 0.27682 0.80665 0.0
C230 C 0.57583 0.30952 0.73804 0.0
C231 C 0.53525 0.248 0.72595 0.0
N232 N 0.49567 0.14123 0.74344 0.0
N233 N 0.67293 0.3776 0.77244 0.0
C234 C 0.52912 0.20084 0.75675 0.0
C235 C 0.62025 0.32277 0.77322 0.0
N236 N 0.54356 0.1755 0.83719 0.0
N237 N 0.57169 0.3554 0.71632 0.0
H238 H 0.70987 0.38787 0.79422 0.0
H239 H 0.68273 0.40999 0.74579 0.0
H240 H 0.53737 0.34723 0.69212 0.0
H241 H 0.59766 0.40073 0.72687 0.0
H242 H 0.50448 0.13283 0.83564 0.0
H243 H 0.56354 0.18639 0.87096 0.0
H244 H 0.49541 0.10612 0.76288 0.0
H245 H 0.47287 0.12711 0.71097 0.0
C246 C 0.37485 0.56226 0.85328 0.0
C247 C 0.3121 0.52 0.85725 0.0
C248 C 0.31247 0.55274 0.93953 0.0
C249 C 0.37109 0.60328 0.93143 0.0
N250 N 0.45946 0.65725 0.88099 0.0
N251 N 0.22 0.47322 0.90421 0.0
C252 C 0.40337 0.60779 0.88881 0.0
C253 C 0.28074 0.51361 0.9008 0.0
N254 N 0.40674 0.55847 0.81539 0.0
N255 N 0.28754 0.54216 0.98437 0.0
H256 H 0.19533 0.44222 0.87735 0.0
H257 H 0.19326 0.47254 0.9327 0.0
H258 H 0.31024 0.56988 0.01357 0.0
H259 H 0.24732 0.50297 -0.00636 0.0
H260 H 0.45364 0.58473 0.81222 0.0
H261 H 0.38656 0.52428 0.78963 0.0
H262 H 0.48208 0.66642 0.84828 0.0
H263 H 0.48201 0.69149 0.90629 0.0
C264 C 0.78991 0.39518 0.05438 0.0
C265 C 0.76623 0.33165 0.05636 0.0
C266 C 0.73564 0.32985 0.13944 0.0
C267 C 0.74702 0.39014 0.13366 0.0
N268 N 0.78444 0.48108 0.08547 0.0
N269 N 0.71899 0.23748 0.10035 0.0
C270 C 0.77537 0.42375 0.09151 0.0
C271 C 0.74089 0.29878 0.09915 0.0
N272 N 0.82595 0.42771 0.01673 0.0
N273 N 0.72028 0.30281 0.18352 0.0
H274 H 0.72451 0.21408 0.07188 0.0
H275 H 0.6932 0.2095 0.12849 0.0
H276 H 0.71714 0.32513 0.21382 0.0
H277 H 0.7163 0.26086 0.19101 0.0
H278 H 0.84881 0.47501 0.0149 0.0
H279 H 0.83785 0.40727 -0.01032 0.0
H280 H 0.79841 0.5048 0.05322 0.0
H281 H 0.77402 0.50365 0.11162 0.0
C282 C 0.33012 0.75899 0.22019 0.0
C283 C 0.34442 0.73744 0.26211 0.0
C284 C 0.42836 0.7362 0.22098 0.0
C285 C 0.41472 0.75871 0.17924 0.0
N286 N 0.36279 0.80453 0.1415 0.0
N287 N 0.41475 0.71973 0.30665 0.0
C288 C 0.36873 0.77429 0.17965 0.0
C289 C 0.39609 0.7306 0.26384 0.0
N290 N 0.27826 0.76209 0.21843 0.0
N291 N 0.46955 0.71689 0.21902 0.0
H292 H 0.39207 0.71549 0.33884 0.0
H293 H 0.45559 0.72052 0.31105 0.0
H294 H 0.49441 0.72024 0.18835 0.0
H295 H 0.47595 0.69334 0.24672 0.0
H296 H 0.26173 0.77068 0.18717 0.0
H297 H 0.24921 0.75193 0.24767 0.0
H298 H 0.33391 0.82228 0.14135 0.0
H299 H 0.39101 0.81689 0.11149 0.0
loop_
_geom_bond_atom_site_label_1
_geom_bond_atom_site_label_2
_geom_bond_distance
_geom_bond_site_symmetry_2
_ccdc_geom_bond_type
C0 O1 1.306 . S
C0 O3 1.160 . S
O1 C0 1.306 . S
O1 Cd2 2.228 . S
Cd2 O1 2.228 . S
Cd2 O6 2.273 . S
Cd2 O10 2.277 . S
O3 C0 1.160 . S
O3 Cd4 2.203 . S
Cd4 O3 2.203 . S
Cd4 O6 2.411 . S
Cd4 O7 2.333 . S
Cd4 O8 2.352 . S
Cd4 O12 2.277 . S
Cd4 O13 2.356 . S
C5 O10 1.209 . S
C5 O12 1.226 . S
O6 Cd2 2.273 . S
O6 Cd4 2.411 . S
O6 C9 1.320 . S
O7 Cd4 2.333 . S
O7 C9 1.214 . S
O8 Cd4 2.352 . S
O8 C11 1.258 . S
C9 O6 1.320 . S
C9 O7 1.214 . S
O10 Cd2 2.277 . S
O10 C5 1.209 . S
C11 O8 1.258 . S
C11 O13 1.282 . S
O12 Cd4 2.277 . S
O12 C5 1.226 . S
O13 Cd4 2.356 . S
O13 C11 1.282 . S
C14 O15 1.306 . S
C14 O17 1.160 . S
O15 C14 1.306 . S
O15 Cd16 2.228 . S
Cd16 O15 2.228 . S
Cd16 O20 2.273 . S
Cd16 O24 2.277 . S
O17 C14 1.160 . S
O17 Cd18 2.203 . S
Cd18 O17 2.203 . S
Cd18 O20 2.411 . S
Cd18 O21 2.333 . S
Cd18 O22 2.352 . S
Cd18 O26 2.277 . S
Cd18 O27 2.356 . S
C19 O24 1.209 . S
C19 O26 1.226 . S
O20 Cd16 2.273 . S
O20 Cd18 2.411 . S
O20 C23 1.320 . S
O21 Cd18 2.333 . S
O21 C23 1.214 . S
O22 Cd18 2.352 . S
O22 C25 1.258 . S
C23 O20 1.320 . S
C23 O21 1.214 . S
O24 Cd16 2.277 . S
O24 C19 1.209 . S
C25 O22 1.258 . S
C25 O27 1.282 . S
O26 Cd18 2.277 . S
O26 C19 1.226 . S
O27 Cd18 2.356 . S
O27 C25 1.282 . S
C28 O29 1.306 . S
C28 O31 1.160 . S
O29 C28 1.306 . S
O29 Cd30 2.228 . S
Cd30 O29 2.228 . S
Cd30 O34 2.273 . S
Cd30 O38 2.277 . S
O31 C28 1.160 . S
O31 Cd32 2.203 . S
Cd32 O31 2.203 . S
Cd32 O34 2.411 . S
Cd32 O35 2.317 1_556 S
Cd32 O36 2.352 . S
Cd32 O40 2.277 . S
Cd32 O41 2.356 . S
C33 O38 1.209 . S
C33 O40 1.226 . S
O34 Cd30 2.273 . S
O34 Cd32 2.411 . S
O34 C37 1.320 . S
O35 Cd32 2.317 1_554 S
O35 C37 1.213 1_554 S
O36 Cd32 2.352 . S
O36 C39 1.258 . S
C37 O34 1.320 . S
C37 O35 1.213 1_556 S
O38 Cd30 2.277 . S
O38 C33 1.209 . S
C39 O36 1.258 . S
C39 O41 1.282 . S
O40 Cd32 2.277 . S
O40 C33 1.226 . S
O41 Cd32 2.356 . S
O41 C39 1.282 . S
C42 O43 1.306 1_556 S
C42 O45 1.159 1_556 S
O43 C42 1.306 1_554 S
O43 Cd44 2.228 . S
Cd44 O43 2.228 . S
Cd44 O48 2.273 . S
Cd44 O52 2.277 . S
O45 C42 1.159 1_554 S
O45 Cd46 2.203 . S
Cd46 O45 2.203 . S
Cd46 O48 2.411 . S
Cd46 O49 2.333 . S
Cd46 O50 2.352 . S
Cd46 O54 2.277 . S
Cd46 O55 2.356 . S
C47 O52 1.209 . S
C47 O54 1.226 . S
O48 Cd44 2.273 . S
O48 Cd46 2.411 . S
O48 C51 1.320 . S
O49 Cd46 2.333 . S
O49 C51 1.214 . S
O50 Cd46 2.352 . S
O50 C53 1.258 . S
C51 O48 1.320 . S
C51 O49 1.214 . S
O52 Cd44 2.277 . S
O52 C47 1.209 . S
C53 O50 1.258 . S
C53 O55 1.282 . S
O54 Cd46 2.277 . S
O54 C47 1.226 . S
O55 Cd46 2.356 . S
O55 C53 1.282 . S
C56 O57 1.306 . S
C56 O59 1.160 . S
O57 C56 1.306 . S
O57 Cd58 2.228 . S
Cd58 O57 2.228 . S
Cd58 O62 2.273 . S
Cd58 O66 2.277 . S
O59 C56 1.160 . S
O59 Cd60 2.203 . S
Cd60 O59 2.203 . S
Cd60 O62 2.411 . S
Cd60 O63 2.333 . S
Cd60 O64 2.352 . S
Cd60 O68 2.277 . S
Cd60 O69 2.356 . S
C61 O66 1.209 . S
C61 O68 1.226 . S
O62 Cd58 2.273 . S
O62 Cd60 2.411 . S
O62 C65 1.320 . S
O63 Cd60 2.333 . S
O63 C65 1.214 . S
O64 Cd60 2.352 . S
O64 C67 1.258 . S
C65 O62 1.320 . S
C65 O63 1.214 . S
O66 Cd58 2.277 . S
O66 C61 1.209 . S
C67 O64 1.258 . S
C67 O69 1.282 . S
O68 Cd60 2.277 . S
O68 C61 1.226 . S
O69 Cd60 2.356 . S
O69 C67 1.282 . S
C70 O71 1.306 . S
C70 O73 1.160 . S
O71 C70 1.306 . S
O71 Cd72 2.228 . S
Cd72 O71 2.228 . S
Cd72 O76 2.273 . S
Cd72 O80 2.277 . S
O73 C70 1.160 . S
O73 Cd74 2.203 . S
Cd74 O73 2.203 . S
Cd74 O76 2.411 . S
Cd74 O77 2.333 . S
Cd74 O78 2.352 . S
Cd74 O82 2.277 . S
Cd74 O83 2.356 . S
C75 O80 1.209 . S
C75 O82 1.226 . S
O76 Cd72 2.273 . S
O76 Cd74 2.411 . S
O76 C79 1.320 . S
O77 Cd74 2.333 . S
O77 C79 1.214 . S
O78 Cd74 2.352 . S
O78 C81 1.258 . S
C79 O76 1.320 . S
C79 O77 1.214 . S
O80 Cd72 2.277 . S
O80 C75 1.209 . S
C81 O78 1.258 . S
C81 O83 1.282 . S
O82 Cd74 2.277 . S
O82 C75 1.226 . S
O83 Cd74 2.356 . S
O83 C81 1.282 . S
C84 C85 1.363 . S
C84 C90 1.379 1_545 S
C84 N92 1.356 . S
C85 C84 1.363 . S
C85 C91 1.363 . S
C86 C87 1.363 . S
C86 C91 1.379 1_565 S
C86 N93 1.356 . S
C87 C86 1.363 . S
C87 C90 1.363 . S
N88 C90 1.356 . S
N88 H100 0.984 . S
N88 H101 0.985 . S
N89 C91 1.356 . S
N89 H94 0.984 . S
N89 H95 0.985 . S
C90 C84 1.379 1_565 S
C90 C87 1.363 . S
C90 N88 1.356 . S
C91 C85 1.363 . S
C91 C86 1.379 1_545 S
C91 N89 1.356 . S
N92 C84 1.356 . S
N92 H98 0.984 . S
N92 H99 0.984 . S
N93 C86 1.356 . S
N93 H96 0.984 . S
N93 H97 0.985 . S
H94 N89 0.984 . S
H95 N89 0.985 . S
H96 N93 0.984 . S
H97 N93 0.985 . S
H98 N92 0.984 . S
H99 N92 0.984 . S
H100 N88 0.984 . S
H101 N88 0.985 . S
C102 C103 1.363 . S
C102 C108 1.379 . S
C102 N110 1.356 . S
C103 C102 1.363 . S
C103 C109 1.363 . S
C104 C105 1.363 . S
C104 C109 1.379 . S
C104 N111 1.356 . S
C105 C104 1.363 . S
C105 C108 1.363 . S
N106 C108 1.356 . S
N106 H118 0.984 . S
N106 H119 0.985 . S
N107 C109 1.356 . S
N107 H112 0.984 . S
N107 H113 0.985 . S
C108 C102 1.379 . S
C108 C105 1.363 . S
C108 N106 1.356 . S
C109 C103 1.363 . S
C109 C104 1.379 . S
C109 N107 1.356 . S
N110 C102 1.356 . S
N110 H116 0.984 . S
N110 H117 0.984 . S
N111 C104 1.356 . S
N111 H114 0.984 . S
N111 H115 0.985 . S
H112 N107 0.984 . S
H113 N107 0.985 . S
H114 N111 0.984 . S
H115 N111 0.985 . S
H116 N110 0.984 . S
H117 N110 0.984 . S
H118 N106 0.984 . S
H119 N106 0.985 . S
C120 C121 1.363 . S
C120 C126 1.379 1_655 S
C120 N128 1.356 . S
C121 C120 1.363 . S
C121 C127 1.363 . S
C122 C123 1.363 . S
C122 C127 1.379 1_455 S
C122 N129 1.356 . S
C123 C122 1.363 . S
C123 C126 1.363 . S
N124 C126 1.356 . S
N124 H136 0.984 . S
N124 H137 0.985 . S
N125 C127 1.356 . S
N125 H130 0.984 . S
N125 H131 0.985 . S
C126 C120 1.379 1_455 S
C126 C123 1.363 . S
C126 N124 1.356 . S
C127 C121 1.363 . S
C127 C122 1.379 1_655 S
C127 N125 1.356 . S
N128 C120 1.356 . S
N128 H134 0.984 . S
N128 H135 0.984 . S
N129 C122 1.356 . S
N129 H132 0.984 . S
N129 H133 0.985 . S
H130 N125 0.984 . S
H131 N125 0.985 . S
H132 N129 0.984 . S
H133 N129 0.985 . S
H134 N128 0.984 . S
H135 N128 0.984 . S
H136 N124 0.984 . S
H137 N124 0.985 . S
C138 C139 1.363 . S
C138 C144 1.379 1_565 S
C138 N146 1.356 . S
C139 C138 1.363 . S
C139 C145 1.363 1_554 S
C140 C141 1.363 1_565 S
C140 C145 1.379 . S
C140 N147 1.356 1_565 S
C141 C140 1.363 1_545 S
C141 C144 1.363 1_556 S
N142 C144 1.356 . S
N142 H154 0.984 . S
N142 H155 0.985 . S
N143 C145 1.356 . S
N143 H148 0.984 . S
N143 H149 0.985 . S
C144 C138 1.379 1_545 S
C144 C141 1.363 1_554 S
C144 N142 1.356 . S
C145 C139 1.363 1_556 S
C145 C140 1.379 . S
C145 N143 1.356 . S
N146 C138 1.356 . S
N146 H152 0.984 . S
N146 H153 0.984 . S
N147 C140 1.356 1_545 S
N147 H150 0.984 . S
N147 H151 0.985 1_545 S
H148 N143 0.984 . S
H149 N143 0.985 . S
H150 N147 0.984 . S
H151 N147 0.985 1_565 S
H152 N146 0.984 . S
H153 N146 0.984 . S
H154 N142 0.984 . S
H155 N142 0.985 . S
C156 C157 1.363 . S
C156 C162 1.379 . S
C156 N164 1.356 . S
C157 C156 1.363 . S
C157 C163 1.363 . S
C158 C159 1.363 . S
C158 C163 1.379 . S
C158 N165 1.356 . S
C159 C158 1.363 . S
C159 C162 1.363 . S
N160 C162 1.356 . S
N160 H172 0.984 . S
N160 H173 0.985 . S
N161 C163 1.356 . S
N161 H166 0.984 . S
N161 H167 0.985 . S
C162 C156 1.379 . S
C162 C159 1.363 . S
C162 N160 1.356 . S
C163 C157 1.363 . S
C163 C158 1.379 . S
C163 N161 1.356 . S
N164 C156 1.356 . S
N164 H170 0.984 . S
N164 H171 0.984 . S
N165 C158 1.356 . S
N165 H168 0.984 . S
N165 H169 0.985 . S
H166 N161 0.984 . S
H167 N161 0.985 . S
H168 N165 0.984 . S
H169 N165 0.985 . S
H170 N164 0.984 . S
H171 N164 0.984 . S
H172 N160 0.984 . S
H173 N160 0.985 . S
C174 C175 1.363 . S
C174 C180 1.379 1_455 S
C174 N182 1.356 . S
C175 C174 1.363 . S
C175 C181 1.363 . S
C176 C177 1.363 . S
C176 C181 1.379 1_655 S
C176 N183 1.356 . S
C177 C176 1.363 . S
C177 C180 1.363 . S
N178 C180 1.356 . S
N178 H190 0.984 . S
N178 H191 0.985 . S
N179 C181 1.356 . S
N179 H184 0.984 . S
N179 H185 0.985 . S
C180 C174 1.379 1_655 S
C180 C177 1.363 . S
C180 N178 1.356 . S
C181 C175 1.363 . S
C181 C176 1.379 1_455 S
C181 N179 1.356 . S
N182 C174 1.356 . S
N182 H188 0.984 . S
N182 H189 0.984 . S
N183 C176 1.356 . S
N183 H186 0.984 . S
N183 H187 0.985 . S
H184 N179 0.984 . S
H185 N179 0.985 . S
H186 N183 0.984 . S
H187 N183 0.985 . S
H188 N182 0.984 . S
H189 N182 0.984 . S
H190 N178 0.984 . S
H191 N178 0.985 . S
C192 C193 1.363 . S
C192 C198 1.379 . S
C192 N200 1.356 . S
C193 C192 1.363 . S
C193 C199 1.363 . S
C194 C195 1.363 . S
C194 C199 1.379 . S
C194 N201 1.356 . S
C195 C194 1.363 . S
C195 C198 1.363 . S
N196 C198 1.356 . S
N196 H208 0.984 . S
N196 H209 0.985 . S
N197 C199 1.356 . S
N197 H202 0.984 . S
N197 H203 0.985 . S
C198 C192 1.379 . S
C198 C195 1.363 . S
C198 N196 1.356 . S
C199 C193 1.363 . S
C199 C194 1.379 . S
C199 N197 1.356 . S
N200 C192 1.356 . S
N200 H206 0.984 . S
N200 H207 0.984 . S
N201 C194 1.356 . S
N201 H204 0.984 . S
N201 H205 0.985 . S
H202 N197 0.984 . S
H203 N197 0.985 . S
H204 N201 0.984 . S
H205 N201 0.985 . S
H206 N200 0.984 . S
H207 N200 0.984 . S
H208 N196 0.984 . S
H209 N196 0.985 . S
C210 C211 1.363 . S
C210 C216 1.379 . S
C210 N218 1.356 . S
C211 C210 1.363 . S
C211 C217 1.363 . S
C212 C213 1.363 . S
C212 C217 1.379 . S
C212 N219 1.356 . S
C213 C212 1.363 . S
C213 C216 1.363 . S
N214 C216 1.356 . S
N214 H226 0.984 . S
N214 H227 0.985 . S
N215 C217 1.356 . S
N215 H220 0.984 . S
N215 H221 0.985 . S
C216 C210 1.379 . S
C216 C213 1.363 . S
C216 N214 1.356 . S
C217 C211 1.363 . S
C217 C212 1.379 . S
C217 N215 1.356 . S
N218 C210 1.356 . S
N218 H224 0.984 . S
N218 H225 0.984 . S
N219 C212 1.356 . S
N219 H222 0.984 . S
N219 H223 0.985 . S
H220 N215 0.984 . S
H221 N215 0.985 . S
H222 N219 0.984 . S
H223 N219 0.985 . S
H224 N218 0.984 . S
H225 N218 0.984 . S
H226 N214 0.984 . S
H227 N214 0.985 . S
C228 C229 1.363 . S
C228 C234 1.379 . S
C228 N236 1.356 . S
C229 C228 1.363 . S
C229 C235 1.363 . S
C230 C231 1.363 . S
C230 C235 1.379 . S
C230 N237 1.356 . S
C231 C230 1.363 . S
C231 C234 1.363 . S
N232 C234 1.356 . S
N232 H244 0.984 . S
N232 H245 0.985 . S
N233 C235 1.356 . S
N233 H238 0.984 . S
N233 H239 0.985 . S
C234 C228 1.379 . S
C234 C231 1.363 . S
C234 N232 1.356 . S
C235 C229 1.363 . S
C235 C230 1.379 . S
C235 N233 1.356 . S
N236 C228 1.356 . S
N236 H242 0.984 . S
N236 H243 0.984 . S
N237 C230 1.356 . S
N237 H240 0.984 . S
N237 H241 0.985 . S
H238 N233 0.984 . S
H239 N233 0.985 . S
H240 N237 0.984 . S
H241 N237 0.985 . S
H242 N236 0.984 . S
H243 N236 0.984 . S
H244 N232 0.984 . S
H245 N232 0.985 . S
C246 C247 1.363 . S
C246 C252 1.379 . S
C246 N254 1.356 . S
C247 C246 1.363 . S
C247 C253 1.363 . S
C248 C249 1.363 . S
C248 C253 1.379 . S
C248 N255 1.356 1_556 S
C249 C248 1.363 . S
C249 C252 1.363 . S
N250 C252 1.356 . S
N250 H262 0.984 . S
N250 H263 0.985 . S
N251 C253 1.356 . S
N251 H256 0.984 . S
N251 H257 0.985 . S
C252 C246 1.379 . S
C252 C249 1.363 . S
C252 N250 1.356 . S
C253 C247 1.363 . S
C253 C248 1.379 . S
C253 N251 1.356 . S
N254 C246 1.356 . S
N254 H260 0.984 . S
N254 H261 0.984 . S
N255 C248 1.356 1_554 S
N255 H258 0.984 . S
N255 H259 0.985 . S
H256 N251 0.984 . S
H257 N251 0.985 . S
H258 N255 0.984 . S
H259 N255 0.985 . S
H260 N254 0.984 . S
H261 N254 0.984 . S
H262 N250 0.984 . S
H263 N250 0.985 . S
C264 C265 1.363 . S
C264 C270 1.379 . S
C264 N272 1.356 . S
C265 C264 1.363 . S
C265 C271 1.363 . S
C266 C267 1.363 . S
C266 C271 1.379 . S
C266 N273 1.356 . S
C267 C266 1.363 . S
C267 C270 1.363 . S
N268 C270 1.356 . S
N268 H280 0.984 . S
N268 H281 0.985 . S
N269 C271 1.356 . S
N269 H274 0.984 . S
N269 H275 0.985 . S
C270 C264 1.379 . S
C270 C267 1.363 . S
C270 N268 1.356 . S
C271 C265 1.363 . S
C271 C266 1.379 . S
C271 N269 1.356 . S
N272 C264 1.356 . S
N272 H278 0.984 . S
N272 H279 0.984 1_554 S
N273 C266 1.356 . S
N273 H276 0.984 . S
N273 H277 0.985 . S
H274 N269 0.984 . S
H275 N269 0.985 . S
H276 N273 0.984 . S
H277 N273 0.985 . S
H278 N272 0.984 . S
H279 N272 0.984 1_556 S
H280 N268 0.984 . S
H281 N268 0.985 . S
C282 C283 1.363 . S
C282 C288 1.379 . S
C282 N290 1.356 . S
C283 C282 1.363 . S
C283 C289 1.363 . S
C284 C285 1.363 . S
C284 C289 1.379 . S
C284 N291 1.356 . S
C285 C284 1.363 . S
C285 C288 1.363 . S
N286 C288 1.356 . S
N286 H298 0.984 . S
N286 H299 0.985 . S
N287 C289 1.356 . S
N287 H292 0.984 . S
N287 H293 0.985 . S
C288 C282 1.379 . S
C288 C285 1.363 . S
C288 N286 1.356 . S
C289 C283 1.363 . S
C289 C284 1.379 . S
C289 N287 1.356 . S
N290 C282 1.356 . S
N290 H296 0.984 . S
N290 H297 0.984 . S
N291 C284 1.356 . S
N291 H294 0.984 . S
N291 H295 0.985 . S
H292 N287 0.984 . S
H293 N287 0.985 . S
H294 N291 0.984 . S
H295 N291 0.985 . S
H296 N290 0.984 . S
H297 N290 0.984 . S
H298 N286 0.984 . S
H299 N286 0.985 . S
C85 C5 1.583 . S
C87 C81 1.576 . S
C103 C11 1.576 . S
C105 C19 1.583 . S
C121 C33 1.583 . S
C123 C25 1.576 . S
C139 C47 1.583 . S
C141 C39 1.576 . S
C157 C61 1.583 . S
C159 C53 1.576 . S
C175 C75 1.583 . S
C177 C67 1.576 . S
C193 C0 1.463 . S
C195 C65 1.474 . S
C211 C79 1.474 . S
C213 C14 1.463 . S
C229 C28 1.463 . S
C231 C9 1.474 . S
C247 C23 1.474 . S
C249 C42 1.463 . S
C265 C37 1.474 1_554 S
C267 C56 1.463 . S
C283 C70 1.463 . S
C285 C51 1.474 . S
