# Generated by pormake.
# Topology lcs, (4)-cn, num edge types: 1
# Building blocks:
#     Node 0, Type 0, BuildingBlock: UXUYUI_clean_sbu_0, # of connection points: 4
#     Node 1, Type 0, BuildingBlock: UXUYUI_clean_sbu_0, # of connection points: 4
#     Node 2, Type 0, BuildingBlock: UXUYUI_clean_sbu_0, # of connection points: 4
#     Node 3, Type 0, BuildingBlock: UXUYUI_clean_sbu_0, # of connection points: 4
#     Node 4, Type 0, BuildingBlock: UXUYUI_clean_sbu_0, # of connection points: 4
#     Node 5, Type 0, BuildingBlock: UXUYUI_clean_sbu_0, # of connection points: 4
#     Node 6, Type 0, BuildingBlock: UXUYUI_clean_sbu_0, # of connection points: 4
#     Node 7, Type 0, BuildingBlock: UXUYUI_clean_sbu_0, # of connection points: 4
#     Node 8, Type 0, BuildingBlock: UXUYUI_clean_sbu_0, # of connection points: 4
#     Node 9, Type 0, BuildingBlock: UXUYUI_clean_sbu_0, # of connection points: 4
#     Node 10, Type 0, BuildingBlock: UXUYUI_clean_sbu_0, # of connection points: 4
#     Node 11, Type 0, BuildingBlock: UXUYUI_clean_sbu_0, # of connection points: 4
#     Node 12, Type 0, BuildingBlock: UXUYUI_clean_sbu_0, # of connection points: 4
#     Node 13, Type 0, BuildingBlock: UXUYUI_clean_sbu_0, # of connection points: 4
#     Node 14, Type 0, BuildingBlock: UXUYUI_clean_sbu_0, # of connection points: 4
#     Node 15, Type 0, BuildingBlock: UXUYUI_clean_sbu_0, # of connection points: 4
#     Node 16, Type 0, BuildingBlock: UXUYUI_clean_sbu_0, # of connection points: 4
#     Node 17, Type 0, BuildingBlock: UXUYUI_clean_sbu_0, # of connection points: 4
#     Node 18, Type 0, BuildingBlock: UXUYUI_clean_sbu_0, # of connection points: 4
#     Node 19, Type 0, BuildingBlock: UXUYUI_clean_sbu_0, # of connection points: 4
#     Node 20, Type 0, BuildingBlock: UXUYUI_clean_sbu_0, # of connection points: 4
#     Node 21, Type 0, BuildingBlock: UXUYUI_clean_sbu_0, # of connection points: 4
#     Node 22, Type 0, BuildingBlock: UXUYUI_clean_sbu_0, # of connection points: 4
#     Node 23, Type 0, BuildingBlock: UXUYUI_clean_sbu_0, # of connection points: 4
#     Edge 24, Type (0, 0), BuildingBlock: XIVTED_clean_linker_0, # of connection points: 2
#     Edge 25, Type (0, 0), BuildingBlock: XIVTED_clean_linker_0, # of connection points: 2
#     Edge 26, Type (0, 0), BuildingBlock: XIVTED_clean_linker_0, # of connection points: 2
#     Edge 27, Type (0, 0), BuildingBlock: XIVTED_clean_linker_0, # of connection points: 2
#     Edge 28, Type (0, 0), BuildingBlock: XIVTED_clean_linker_0, # of connection points: 2
#     Edge 29, Type (0, 0), BuildingBlock: XIVTED_clean_linker_0, # of connection points: 2
#     Edge 30, Type (0, 0), BuildingBlock: XIVTED_clean_linker_0, # of connection points: 2
#     Edge 31, Type (0, 0), BuildingBlock: XIVTED_clean_linker_0, # of connection points: 2
#     Edge 32, Type (0, 0), BuildingBlock: XIVTED_clean_linker_0, # of connection points: 2
#     Edge 33, Type (0, 0), BuildingBlock: XIVTED_clean_linker_0, # of connection points: 2
#     Edge 34, Type (0, 0), BuildingBlock: XIVTED_clean_linker_0, # of connection points: 2
#     Edge 35, Type (0, 0), BuildingBlock: XIVTED_clean_linker_0, # of connection points: 2
#     Edge 36, Type (0, 0), BuildingBlock: XIVTED_clean_linker_0, # of connection points: 2
#     Edge 37, Type (0, 0), BuildingBlock: XIVTED_clean_linker_0, # of connection points: 2
#     Edge 38, Type (0, 0), BuildingBlock: XIVTED_clean_linker_0, # of connection points: 2
#     Edge 39, Type (0, 0), BuildingBlock: XIVTED_clean_linker_0, # of connection points: 2
#     Edge 40, Type (0, 0), BuildingBlock: XIVTED_clean_linker_0, # of connection points: 2
#     Edge 41, Type (0, 0), BuildingBlock: XIVTED_clean_linker_0, # of connection points: 2
#     Edge 42, Type (0, 0), BuildingBlock: XIVTED_clean_linker_0, # of connection points: 2
#     Edge 43, Type (0, 0), BuildingBlock: XIVTED_clean_linker_0, # of connection points: 2
#     Edge 44, Type (0, 0), BuildingBlock: XIVTED_clean_linker_0, # of connection points: 2
#     Edge 45, Type (0, 0), BuildingBlock: XIVTED_clean_linker_0, # of connection points: 2
#     Edge 46, Type (0, 0), BuildingBlock: XIVTED_clean_linker_0, # of connection points: 2
#     Edge 47, Type (0, 0), BuildingBlock: XIVTED_clean_linker_0, # of connection points: 2
#     Edge 48, Type (0, 0), BuildingBlock: XIVTED_clean_linker_0, # of connection points: 2
#     Edge 49, Type (0, 0), BuildingBlock: XIVTED_clean_linker_0, # of connection points: 2
#     Edge 50, Type (0, 0), BuildingBlock: XIVTED_clean_linker_0, # of connection points: 2
#     Edge 51, Type (0, 0), BuildingBlock: XIVTED_clean_linker_0, # of connection points: 2
#     Edge 52, Type (0, 0), BuildingBlock: XIVTED_clean_linker_0, # of connection points: 2
#     Edge 53, Type (0, 0), BuildingBlock: XIVTED_clean_linker_0, # of connection points: 2
#     Edge 54, Type (0, 0), BuildingBlock: XIVTED_clean_linker_0, # of connection points: 2
#     Edge 55, Type (0, 0), BuildingBlock: XIVTED_clean_linker_0, # of connection points: 2
#     Edge 56, Type (0, 0), BuildingBlock: XIVTED_clean_linker_0, # of connection points: 2
#     Edge 57, Type (0, 0), BuildingBlock: XIVTED_clean_linker_0, # of connection points: 2
#     Edge 58, Type (0, 0), BuildingBlock: XIVTED_clean_linker_0, # of connection points: 2
#     Edge 59, Type (0, 0), BuildingBlock: XIVTED_clean_linker_0, # of connection points: 2
#     Edge 60, Type (0, 0), BuildingBlock: XIVTED_clean_linker_0, # of connection points: 2
#     Edge 61, Type (0, 0), BuildingBlock: XIVTED_clean_linker_0, # of connection points: 2
#     Edge 62, Type (0, 0), BuildingBlock: XIVTED_clean_linker_0, # of connection points: 2
#     Edge 63, Type (0, 0), BuildingBlock: XIVTED_clean_linker_0, # of connection points: 2
#     Edge 64, Type (0, 0), BuildingBlock: XIVTED_clean_linker_0, # of connection points: 2
#     Edge 65, Type (0, 0), BuildingBlock: XIVTED_clean_linker_0, # of connection points: 2
#     Edge 66, Type (0, 0), BuildingBlock: XIVTED_clean_linker_0, # of connection points: 2
#     Edge 67, Type (0, 0), BuildingBlock: XIVTED_clean_linker_0, # of connection points: 2
#     Edge 68, Type (0, 0), BuildingBlock: XIVTED_clean_linker_0, # of connection points: 2
#     Edge 69, Type (0, 0), BuildingBlock: XIVTED_clean_linker_0, # of connection points: 2
#     Edge 70, Type (0, 0), BuildingBlock: XIVTED_clean_linker_0, # of connection points: 2
#     Edge 71, Type (0, 0), BuildingBlock: XIVTED_clean_linker_0, # of connection points: 2
# Relax obj value: 0.148
# Max RMSD: 0.190
# Mean RMSD: 0.190
data_MOF--net-lcs--node1-UXUYUI_clean_sbu_0--edge1-XIVTED_clean_linker_0
_symmetry_space_group_name_H-M    P1
_symmetry_Int_Tables_number       1
_symmetry_cell_setting            triclinic
loop_
_symmetry_equiv_pos_as_xyz
'x, y, z'
_cell_length_a     72.171836
_cell_length_b     72.163955
_cell_length_c     72.116865
_cell_angle_alpha  89.992259
_cell_angle_beta   89.971832
_cell_angle_gamma 89.992126
loop_
_atom_site_label
_atom_site_type_symbol
_atom_site_fract_x
_atom_site_fract_y
_atom_site_fract_z
_atom_type_partial_charge
Li0 Li 0.00281 0.26472 0.35607 0.0
Li1 Li 0.01498 0.24618 0.38179 0.0
Li2 Li 0.9909 0.23306 0.36024 0.0
Li3 Li 0.98287 0.25637 0.3836 0.0
C4 C 0.02727 0.23963 0.33904 0.0
N5 N 0.0485 0.23713 0.30724 0.0
C6 C 0.04659 0.24057 0.34013 0.0
C7 C 0.01877 0.23715 0.32182 0.0
C8 C 0.05707 0.23935 0.32388 0.0
C9 C 0.02973 0.23599 0.30589 0.0
C10 C 0.01685 0.28233 0.39348 0.0
C11 C 0.02666 0.29267 0.42372 0.0
N12 N 0.04012 0.30313 0.41566 0.0
C13 C 0.03062 0.29337 0.38548 0.0
C14 C 0.0147 0.28214 0.41274 0.0
C15 C 0.0423 0.30371 0.39694 0.0
C16 C 0.99404 0.29622 0.33538 0.0
N17 N 0.00798 0.28411 0.33908 0.0
C18 C 0.02919 0.30206 0.32108 0.0
C19 C 0.02531 0.28669 0.33216 0.0
C20 C 0.01516 0.31502 0.31735 0.0
C21 C 0.99732 0.31185 0.32446 0.0
H22 H 0.98047 0.29398 0.34134 0.0
H23 H 0.03633 0.2773 0.33584 0.0
C24 C 0.03644 0.22589 0.40728 0.0
N25 N 0.03668 0.24062 0.39556 0.0
C26 C 0.0523 0.22106 0.41721 0.0
C27 C 0.06843 0.24661 0.40275 0.0
C28 C 0.05227 0.25088 0.39303 0.0
C29 C 0.06862 0.23145 0.41498 0.0
H30 H 0.02404 0.21763 0.40865 0.0
H31 H 0.05227 0.26219 0.38323 0.0
C32 C 0.96299 0.255 0.34388 0.0
N33 N 0.93521 0.25251 0.31765 0.0
C34 C 0.94456 0.25276 0.34941 0.0
C35 C 0.96724 0.25635 0.32503 0.0
C36 C 0.93073 0.25141 0.33594 0.0
C37 C 0.95302 0.25496 0.31197 0.0
C38 C 0.98462 0.22387 0.40321 0.0
C39 C 0.97219 0.20908 0.40182 0.0
C40 C 0.9887 0.23132 0.42062 0.0
C41 C 0.9638 0.2022 0.41787 0.0
C42 C 0.98002 0.22407 0.43634 0.0
N43 N 0.96784 0.2098 0.43465 0.0
C44 C 0.9938 0.19959 0.33971 0.0
C45 C 0.96356 0.20766 0.34967 0.0
C46 C 0.98716 0.18327 0.3317 0.0
N47 N 0.98196 0.21142 0.34837 0.0
C48 C 0.95632 0.19157 0.34186 0.0
C49 C 0.96818 0.17905 0.33282 0.0
H50 H 0.00846 0.20265 0.33933 0.0
H51 H 0.95457 0.21697 0.35718 0.0
C52 C 0.9637 0.28332 0.40385 0.0
N53 N 0.96345 0.26516 0.3989 0.0
C54 C 0.94888 0.29092 0.41368 0.0
C55 C 0.93409 0.26084 0.41355 0.0
C56 C 0.94904 0.25391 0.40346 0.0
C57 C 0.9338 0.27963 0.41852 0.0
H58 H 0.97518 0.29202 0.39972 0.0
H59 H 0.94883 0.23972 0.39873 0.0
O60 O 0.01681 0.24089 0.35481 0.0
O61 O 0.0053 0.2721 0.38248 0.0
O62 O 0.97669 0.25642 0.35691 0.0
O63 O 0.99285 0.23088 0.38762 0.0
H64 H 0.05341 0.24232 0.35336 0.0
H65 H 0.00389 0.23595 0.32078 0.0
H66 H 0.07202 0.24017 0.32451 0.0
H67 H 0.02333 0.23411 0.29246 0.0
H68 H 0.0252 0.29259 0.43865 0.0
H69 H 0.03238 0.29381 0.37061 0.0
H70 H 0.00383 0.27406 0.41913 0.0
H71 H 0.05312 0.31219 0.39094 0.0
H72 H 0.04322 0.30421 0.31621 0.0
H73 H 0.98613 0.3215 0.32188 0.0
H74 H 0.05189 0.20899 0.42612 0.0
H75 H 0.08065 0.25506 0.40064 0.0
H76 H 0.941 0.25191 0.36396 0.0
H77 H 0.98133 0.25865 0.32051 0.0
H78 H 0.91643 0.24951 0.34002 0.0
H79 H 0.95612 0.25592 0.29733 0.0
H80 H 0.96902 0.203 0.38849 0.0
H81 H -0.00149 0.24254 0.42196 0.0
H82 H 0.95408 0.19083 0.41698 0.0
H83 H 0.983 0.22977 0.44989 0.0
H84 H 0.99684 0.17385 0.32516 0.0
H85 H 0.94159 0.18894 0.34296 0.0
H86 H 0.94906 0.3055 0.41726 0.0
H87 H 0.92252 0.25183 0.41674 0.0
Li88 Li 0.00469 0.7657 0.63927 0.0
Li89 Li 0.98393 0.75811 0.61352 0.0
Li90 Li 0.99152 0.73414 0.63764 0.0
Li91 Li 0.01383 0.74363 0.61415 0.0
C92 C 0.96784 0.76385 0.65528 0.0
N93 N 0.94657 0.77527 0.68507 0.0
C94 C 0.95521 0.7784 0.65325 0.0
C95 C 0.96947 0.75497 0.67244 0.0
C96 C 0.94463 0.78401 0.66848 0.0
C97 C 0.95865 0.76098 0.68734 0.0
C98 C 0.00593 0.78509 0.60071 0.0
C99 C 0.00147 0.79739 0.56993 0.0
N100 N 6e-05 0.81473 0.57718 0.0
C101 C 0.00457 0.80305 0.60784 0.0
C102 C 0.00451 0.78223 0.58159 0.0
C103 C 0.00156 0.81785 0.59572 0.0
C104 C 0.03175 0.78995 0.65083 0.0
N105 N 0.01391 0.78513 0.65444 0.0
C106 C 0.01106 0.80969 0.67648 0.0
C107 C 0.00358 0.7945 0.66713 0.0
C108 C 0.02925 0.81535 0.67256 0.0
C109 C 0.03973 0.80512 0.65974 0.0
H110 H 0.0396 0.78225 0.64063 0.0
H111 H 0.98943 0.79055 0.66976 0.0
C112 C 0.95523 0.75662 0.58676 0.0
N113 N 0.96456 0.76784 0.59866 0.0
C114 C 0.93994 0.76337 0.57698 0.0
C115 C 0.94453 0.79318 0.59157 0.0
C116 C 0.95962 0.78583 0.6011 0.0
C117 C 0.93424 0.78182 0.57958 0.0
H118 H 0.95931 0.74228 0.58527 0.0
H119 H 0.96714 0.79439 0.61081 0.0
C120 C 0.02596 0.73598 0.65746 0.0
N121 N 0.0427 0.72493 0.6901 0.0
C122 C 0.04045 0.72313 0.65711 0.0
C123 C 0.02019 0.74342 0.67439 0.0
C124 C 0.04867 0.71765 0.67377 0.0
C125 C 0.02877 0.73761 0.69074 0.0
C126 C 0.99348 0.71816 0.59742 0.0
C127 C 0.99525 0.69963 0.60278 0.0
C128 C 0.9961 0.72308 0.57886 0.0
C129 C -9e-05 0.68634 0.58948 0.0
C130 C 0.00076 0.70939 0.56599 0.0
N131 N 0.00257 0.69146 0.57152 0.0
C132 C 0.96333 0.71253 0.653 0.0
C133 C 0.99343 0.70023 0.65762 0.0
C134 C 0.95539 0.69736 0.66195 0.0
N135 N 0.98202 0.7137 0.65108 0.0
C136 C 0.98609 0.6848 0.66668 0.0
C137 C 0.96681 0.68317 0.66883 0.0
H138 H 0.95459 0.72336 0.64741 0.0
H139 H 0.00819 0.70119 0.65539 0.0
C140 C 0.04351 0.74586 0.58826 0.0
N141 N 0.03422 0.7347 0.60026 0.0
C142 C 0.05933 0.73934 0.57917 0.0
C143 C 0.05541 0.70993 0.59477 0.0
C144 C 0.03978 0.71704 0.60359 0.0
C145 C 0.0656 0.72121 0.58259 0.0
H146 H 0.03893 0.75996 0.58611 0.0
H147 H 0.03221 0.70856 0.61335 0.0
O148 O 0.97823 0.75813 0.64045 0.0
O149 O 0.00876 0.77041 0.61236 0.0
O150 O 0.01781 0.7415 0.64123 0.0
O151 O 0.98919 0.7314 0.61028 0.0
H152 H 0.9536 0.78535 0.64009 0.0
H153 H 0.97889 0.74349 0.67428 0.0
H154 H 0.93487 0.7953 0.6671 0.0
H155 H 0.95982 0.75425 0.70069 0.0
H156 H 0.00023 0.79536 0.55512 0.0
H157 H 0.00562 0.80554 0.62259 0.0
H158 H 0.00564 0.76845 0.57584 0.0
H159 H 0.00036 0.83181 0.60106 0.0
H160 H 0.00248 0.81732 0.68615 0.0
H161 H 0.05388 0.80893 0.65649 0.0
H162 H 0.93227 0.75407 0.56804 0.0
H163 H 0.94081 0.80754 0.59381 0.0
H164 H 0.04526 0.71737 0.64413 0.0
H165 H 0.00935 0.7537 0.67492 0.0
H166 H 0.05982 0.70762 0.6737 0.0
H167 H 0.0244 0.74324 0.70394 0.0
H168 H 0.99319 0.69557 0.61706 0.0
H169 H 0.99463 0.73733 0.57447 0.0
H170 H 0.00144 0.67196 0.59345 0.0
H171 H 0.00295 0.71301 0.5516 0.0
H172 H 0.94047 0.69672 0.66344 0.0
H173 H 0.99537 0.674 0.67144 0.0
H174 H 0.06688 0.74858 0.57007 0.0
H175 H 0.05956 0.69579 0.59761 0.0
Li176 Li 0.49893 0.76657 0.86508 0.0
Li177 Li 0.51347 0.74569 0.88721 0.0
Li178 Li 0.49139 0.73431 0.86413 0.0
Li179 Li 0.48116 0.75305 0.89057 0.0
C180 C 0.5239 0.73464 0.84703 0.0
N181 N 0.53922 0.71083 0.82123 0.0
C182 C 0.5381 0.72252 0.8522 0.0
C183 C 0.51757 0.73473 0.82871 0.0
C184 C 0.54566 0.71058 0.83895 0.0
C185 C 0.52546 0.72255 0.81589 0.0
C186 C 0.5147 0.77839 0.90346 0.0
C187 C 0.52863 0.78185 0.93364 0.0
N188 N 0.54122 0.79382 0.92632 0.0
C189 C 0.52772 0.79078 0.89624 0.0
C190 C 0.51507 0.77394 0.92231 0.0
C191 C 0.54103 0.79842 0.90803 0.0
C192 C 0.49572 0.80466 0.85798 0.0
N193 N 0.50272 0.78852 0.85127 0.0
C194 C 0.51767 0.80445 0.82644 0.0
C195 C 0.51336 0.78807 0.83574 0.0
C196 C 0.51105 0.82144 0.8333 0.0
C197 C 0.49969 0.82138 0.84913 0.0
H198 H 0.48747 0.80456 0.8705 0.0
H199 H 0.51899 0.77507 0.83092 0.0
C200 C 0.53577 0.7267 0.913 0.0
N201 N 0.53571 0.74032 0.90001 0.0
C202 C 0.55212 0.7221 0.92218 0.0
C203 C 0.56804 0.74571 0.9045 0.0
C204 C 0.55138 0.74977 0.89557 0.0
C205 C 0.56859 0.73161 0.91793 0.0
H206 H 0.52319 0.71917 0.91598 0.0
H207 H 0.55095 0.76033 0.88494 0.0
C208 C 0.46473 0.76801 0.85389 0.0
N209 N 0.44738 0.79509 0.83314 0.0
C210 C 0.45387 0.78147 0.86262 0.0
C211 C 0.46666 0.76822 0.83461 0.0
C212 C 0.44523 0.79506 0.85188 0.0
C213 C 0.45781 0.78207 0.82436 0.0
C214 C 0.48265 0.71827 0.90318 0.0
C215 C 0.47059 0.70446 0.89691 0.0
C216 C 0.48377 0.72213 0.92214 0.0
C217 C 0.4597 0.69487 0.90974 0.0
C218 C 0.47263 0.71224 0.93452 0.0
N219 N 0.46092 0.69893 0.92811 0.0
C220 C 0.49487 0.69828 0.84884 0.0
C221 C 0.46778 0.71485 0.84033 0.0
C222 C 0.48879 0.6827 0.83913 0.0
N223 N 0.48436 0.71392 0.84919 0.0
C224 C 0.461 0.69949 0.83079 0.0
C225 C 0.47151 0.68315 0.83026 0.0
H226 H 0.50769 0.69772 0.85655 0.0
H227 H 0.45954 0.72733 0.84119 0.0
C228 C 0.46196 0.77274 0.91817 0.0
N229 N 0.46129 0.75755 0.9071 0.0
C230 C 0.44676 0.77746 0.92916 0.0
C231 C 0.43075 0.7504 0.91762 0.0
C232 C 0.44609 0.74646 0.90654 0.0
C233 C 0.43075 0.76632 0.92889 0.0
H234 H 0.47404 0.78159 0.91795 0.0
H235 H 0.44573 0.73476 0.8972 0.0
O236 O 0.51628 0.74639 0.85981 0.0
O237 O 0.50173 0.77053 0.89209 0.0
O238 O 0.47364 0.75483 0.86418 0.0
O239 O 0.49335 0.72788 0.89083 0.0
H240 H 0.54315 0.72223 0.86631 0.0
H241 H 0.50652 0.74394 0.8245 0.0
H242 H 0.55661 0.70109 0.84277 0.0
H243 H 0.52061 0.72239 0.8017 0.0
H244 H 0.52915 0.77846 0.94824 0.0
H245 H 0.52769 0.7943 0.88166 0.0
H246 H 0.50507 0.7644 0.92811 0.0
H247 H 0.55126 0.80796 0.90263 0.0
H248 H 0.52673 0.80389 0.81448 0.0
H249 H 0.49419 0.83415 0.85479 0.0
H250 H 0.55194 0.71084 0.93211 0.0
H251 H 0.58034 0.7535 0.90087 0.0
H252 H 0.45228 0.78153 0.87753 0.0
H253 H 0.47504 0.75791 0.82766 0.0
H254 H 0.43686 0.80563 0.85845 0.0
H255 H 0.45927 0.78248 0.80944 0.0
H256 H 0.46954 0.70126 0.8823 0.0
H257 H 0.49301 0.73277 0.92722 0.0
H258 H 0.45025 0.6842 0.90508 0.0
H259 H 0.47327 0.71517 0.94921 0.0
H260 H 0.49709 0.67019 0.83925 0.0
H261 H 0.44756 0.70024 0.82414 0.0
H262 H 0.44736 0.79012 0.93719 0.0
H263 H 0.41892 0.7412 0.91707 0.0
Li264 Li 0.5033 0.26211 0.13698 0.0
Li265 Li 0.48245 0.25539 0.11241 0.0
Li266 Li 0.4896 0.2313 0.13679 0.0
Li267 Li 0.51249 0.2411 0.11266 0.0
C268 C 0.47004 0.2641 0.15487 0.0
N269 N 0.45629 0.28159 0.18607 0.0
C270 C 0.46615 0.28307 0.15448 0.0
C271 C 0.46685 0.254 0.17112 0.0
C272 C 0.45925 0.29167 0.17041 0.0
C273 C 0.4599 0.26311 0.18674 0.0
C274 C 0.50331 0.28056 0.09704 0.0
C275 C 0.4981 0.28859 0.06499 0.0
N276 N 0.4951 0.3065 0.07005 0.0
C277 C 0.50019 0.29907 0.10192 0.0
C278 C 0.5023 0.2753 0.07842 0.0
C279 C 0.49606 0.31196 0.08807 0.0
C280 C 0.52547 0.29271 0.14392 0.0
N281 N 0.51313 0.28137 0.15249 0.0
C282 C 0.51534 0.29919 0.18038 0.0
C283 C 0.50856 0.28389 0.17063 0.0
C284 C 0.52715 0.3118 0.17141 0.0
C285 C 0.5326 0.30811 0.1531 0.0
H286 H 0.5296 0.28994 0.12979 0.0
H287 H 0.4995 0.27421 0.17754 0.0
C288 C 0.45367 0.25356 0.08544 0.0
N289 N 0.46261 0.2647 0.09773 0.0
C290 C 0.43816 0.2601 0.07584 0.0
C291 C 0.4417 0.28954 0.0914 0.0
C292 C 0.45695 0.28239 0.10079 0.0
C293 C 0.43183 0.27825 0.079 0.0
H294 H 0.45825 0.23943 0.08349 0.0
H295 H 0.46414 0.29091 0.11073 0.0
C296 C 0.52935 0.24211 0.15212 0.0
N297 N 0.5562 0.25277 0.17721 0.0
C298 C 0.54653 0.24846 0.14583 0.0
C299 C 0.52581 0.24114 0.17115 0.0
C300 C 0.55992 0.2538 0.15875 0.0
C301 C 0.53958 0.2466 0.18362 0.0
C302 C 0.49221 0.21451 0.09732 0.0
C303 C 0.49526 0.19668 0.10424 0.0
C304 C 0.4938 0.21781 0.07829 0.0
C305 C 0.50011 0.18247 0.09201 0.0
C306 C 0.4987 0.20324 0.06651 0.0
N307 N 0.50173 0.18602 0.07355 0.0
C308 C 0.46258 0.2054 0.14636 0.0
C309 C 0.49136 0.20098 0.16161 0.0
C310 C 0.4554 0.18944 0.15457 0.0
N311 N 0.48026 0.21073 0.14993 0.0
C312 C 0.48469 0.18501 0.17027 0.0
C313 C 0.46656 0.17896 0.1666 0.0
H314 H 0.45418 0.21341 0.13685 0.0
H315 H 0.5055 0.20535 0.16385 0.0
C316 C 0.54179 0.24238 0.08606 0.0
N317 N 0.53291 0.23189 0.09896 0.0
C318 C 0.5576 0.23559 0.07718 0.0
C319 C 0.55478 0.20739 0.09507 0.0
C320 C 0.53912 0.21475 0.10364 0.0
C321 C 0.56438 0.21791 0.08178 0.0
H322 H 0.53693 0.25621 0.08304 0.0
H323 H 0.53206 0.20693 0.11429 0.0
O324 O 0.47657 0.25534 0.13937 0.0
O325 O 0.50722 0.26767 0.11042 0.0
O326 O 0.5159 0.2373 0.13969 0.0
O327 O 0.48776 0.22868 0.10911 0.0
H328 H 0.46875 0.29116 0.14215 0.0
H329 H 0.46975 0.23932 0.17171 0.0
H330 H 0.45631 0.30637 0.17034 0.0
H331 H 0.45741 0.25548 0.19941 0.0
H332 H 0.49722 0.28467 0.05054 0.0
H333 H 0.50057 0.3034 0.11626 0.0
H334 H 0.50462 0.26107 0.07439 0.0
H335 H 0.49351 0.32629 0.09166 0.0
H336 H 0.51094 0.3014 0.19457 0.0
H337 H 0.54218 0.31711 0.14585 0.0
H338 H 0.43084 0.25083 0.06657 0.0
H339 H 0.43758 0.30372 0.09405 0.0
H340 H 0.54941 0.24943 0.13114 0.0
H341 H 0.51247 0.23652 0.17623 0.0
H342 H 0.57326 0.25881 0.15409 0.0
H343 H 0.537 0.24603 0.19839 0.0
H344 H 0.49414 0.19386 0.11892 0.0
H345 H 0.49132 0.23146 0.07266 0.0
H346 H 0.50263 0.16863 0.09719 0.0
H347 H 0.50007 0.20561 0.05176 0.0
H348 H 0.44131 0.1853 0.15151 0.0
H349 H 0.4938 0.17717 0.17927 0.0
H350 H 0.56475 0.24431 0.06728 0.0
H351 H 0.55939 0.19364 0.09893 0.0
Li352 Li 0.0061 0.73281 0.13079 0.0
Li353 Li 0.01353 0.75679 0.10781 0.0
Li354 Li 0.99301 0.76313 0.13507 0.0
Li355 Li 0.98156 0.74483 0.10913 0.0
C356 C 0.03465 0.75227 0.14529 0.0
N357 N 0.06505 0.74302 0.16664 0.0
C358 C 0.05238 0.75237 0.1375 0.0
C359 C 0.03239 0.74769 0.16399 0.0
C360 C 0.06758 0.7476 0.14851 0.0
C361 C 0.04793 0.74298 0.17453 0.0
C362 C 0.00983 0.72226 0.08746 0.0
C363 C 0.00697 0.71765 0.05445 0.0
N364 N 0.01999 0.70406 0.0553 0.0
C365 C 0.02303 0.70809 0.08803 0.0
C366 C 0.0016 0.72696 0.07056 0.0
C367 C 0.02805 0.69912 0.07161 0.0
C368 C 0.00378 0.70036 0.15255 0.0
N369 N 0.01543 0.71122 0.1425 0.0
C370 C 0.04075 0.69085 0.14858 0.0
C371 C 0.03355 0.70669 0.14023 0.0
C372 C 0.02908 0.67919 0.15897 0.0
C373 C 0.01032 0.68416 0.16089 0.0
H374 H 0.98935 0.70415 0.15388 0.0
H375 H 0.04242 0.71535 0.13185 0.0
C376 C 0.03439 0.78556 0.09278 0.0
N377 N 0.03241 0.76684 0.09257 0.0
C378 C 0.04879 0.79393 0.08296 0.0
C379 C 0.0586 0.76362 0.07258 0.0
C380 C 0.04412 0.75582 0.08273 0.0
C381 C 0.0612 0.78289 0.07283 0.0
H382 H 0.02496 0.79394 0.10089 0.0
H383 H 0.04262 0.74097 0.08319 0.0
C384 C 0.96728 0.74148 0.14993 0.0
N385 N 0.94206 0.74754 0.1781 0.0
C386 C 0.94871 0.745 0.14575 0.0
C387 C 0.97299 0.74078 0.16842 0.0
C388 C 0.93618 0.74809 0.1602 0.0
C389 C 0.96005 0.74396 0.18247 0.0
C390 C 0.98337 0.78158 0.09457 0.0
C391 C 0.97076 0.79589 0.098 0.0
C392 C 0.98955 0.77842 0.07648 0.0
C393 C 0.96424 0.80653 0.08319 0.0
C394 C 0.98271 0.78937 0.06205 0.0
N395 N 0.97028 0.80307 0.06567 0.0
C396 C -0.00154 0.78819 0.16486 0.0
C397 C 0.96836 0.78809 0.15171 0.0
C398 C 0.99341 0.80232 0.1771 0.0
N399 N 0.98595 0.78145 0.1525 0.0
C400 C 0.96268 0.80208 0.16375 0.0
C401 C 0.97532 0.80948 0.17656 0.0
H402 H 0.01243 0.78283 0.16501 0.0
H403 H 0.95881 0.7827 0.14151 0.0
C404 C 0.95924 0.72003 0.08973 0.0
N405 N 0.96051 0.73802 0.09508 0.0
C406 C 0.94387 0.7139 0.07977 0.0
C407 C 0.93124 0.7449 0.08128 0.0
C408 C 0.94689 0.75043 0.09118 0.0
C409 C 0.92958 0.72639 0.07548 0.0
H410 H 0.97011 0.71038 0.09339 0.0
H411 H 0.94799 0.76453 0.09605 0.0
O412 O 0.0196 0.75678 0.13469 0.0
O413 O 0.00474 0.73112 0.10346 0.0
O414 O 0.97981 0.73869 0.13597 0.0
O415 O 0.98991 0.77108 0.10896 0.0
H416 H 0.0544 0.75597 0.12308 0.0
H417 H 0.01879 0.74766 0.17026 0.0
H418 H 0.08137 0.74752 0.14265 0.0
H419 H 0.04638 0.73929 0.18899 0.0
H420 H 0.00071 0.72118 0.04128 0.0
H421 H 0.02942 0.70412 0.10098 0.0
H422 H 0.99098 0.73749 0.06988 0.0
H423 H 0.03833 0.68821 0.07184 0.0
H424 H 0.05535 0.68786 0.14691 0.0
H425 H 0.00068 0.67549 0.16845 0.0
H426 H 0.05031 0.80886 0.08344 0.0
H427 H 0.0681 0.75461 0.06522 0.0
H428 H 0.94405 0.7455 0.13151 0.0
H429 H 0.98728 0.73789 0.17188 0.0
H430 H 0.92178 0.75095 0.15717 0.0
H431 H 0.96429 0.74359 0.19685 0.0
H432 H 0.96599 0.7987 0.11193 0.0
H433 H -0.00033 0.76779 0.07361 0.0
H434 H 0.95438 0.81756 0.08564 0.0
H435 H 0.98736 0.78703 0.04798 0.0
H436 H 0.00355 0.80762 0.1868 0.0
H437 H 0.94871 0.80745 0.16263 0.0
H438 H 0.94298 0.69942 0.07592 0.0
H439 H 0.92055 0.75499 0.07824 0.0
Li440 Li 0.4938 0.7624 0.36062 0.0
Li441 Li 0.5144 0.75297 0.38424 0.0
Li442 Li 0.50725 0.73165 0.35762 0.0
Li443 Li 0.48439 0.73919 0.38268 0.0
C444 C 0.52621 0.7664 0.34273 0.0
N445 N 0.53821 0.78763 0.31314 0.0
C446 C 0.52822 0.78558 0.34465 0.0
C447 C 0.53035 0.75803 0.32574 0.0
C448 C 0.53427 0.79607 0.32953 0.0
C449 C 0.5364 0.769 0.31095 0.0
C450 C 0.49513 0.77699 0.40164 0.0
C451 C 0.50091 0.78259 0.43411 0.0
N452 N 0.50672 0.80003 0.42998 0.0
C453 C 0.50115 0.79499 0.39773 0.0
C454 C 0.49497 0.77075 0.41999 0.0
C455 C 0.50694 0.80642 0.41224 0.0
C456 C 0.47354 0.79512 0.3563 0.0
N457 N 0.48406 0.78284 0.34666 0.0
C458 C 0.48016 0.8005 0.31886 0.0
C459 C 0.48698 0.78494 0.32813 0.0
C460 C 0.47001 0.81387 0.32872 0.0
C461 C 0.46644 0.81083 0.34762 0.0
H462 H 0.47066 0.79274 0.37081 0.0
H463 H 0.49475 0.77464 0.32054 0.0
C464 C 0.53945 0.74982 0.41486 0.0
N465 N 0.53408 0.76042 0.40022 0.0
C466 C 0.55378 0.75577 0.42648 0.0
C467 C 0.55675 0.78331 0.40762 0.0
C468 C 0.54257 0.77675 0.39634 0.0
C469 C 0.56248 0.77282 0.42296 0.0
H470 H 0.53263 0.73677 0.41753 0.0
H471 H 0.5382 0.78481 0.38456 0.0
C472 C 0.46699 0.74386 0.34414 0.0
N473 N 0.43897 0.75637 0.32128 0.0
C474 C 0.45081 0.75127 0.35178 0.0
C475 C 0.46892 0.74274 0.32489 0.0
C476 C 0.43681 0.75755 0.33998 0.0
C477 C 0.45459 0.74915 0.31356 0.0
C478 C 0.50407 0.71078 0.39498 0.0
C479 C 0.50299 0.69343 0.38644 0.0
C480 C 0.50006 0.71241 0.41388 0.0
C481 C 0.4977 0.67802 0.39691 0.0
C482 C 0.49479 0.69668 0.42386 0.0
N483 N 0.49372 0.67996 0.41524 0.0
C484 C 0.53474 0.70852 0.34342 0.0
C485 C 0.50472 0.70264 0.33142 0.0
C486 C 0.54201 0.69366 0.33342 0.0
N487 N 0.51642 0.71262 0.34228 0.0
C488 C 0.5114 0.68767 0.32115 0.0
C489 C 0.53026 0.6829 0.32221 0.0
H490 H 0.5436 0.7166 0.35241 0.0
H491 H 0.49014 0.70606 0.33107 0.0
C492 C 0.45454 0.73911 0.40839 0.0
N493 N 0.46374 0.72906 0.39538 0.0
C494 C 0.43871 0.7319 0.41687 0.0
C495 C 0.44212 0.7042 0.39832 0.0
C496 C 0.45779 0.71199 0.39013 0.0
C497 C 0.43225 0.71424 0.41179 0.0
H498 H 0.4592 0.7529 0.41184 0.0
H499 H 0.46513 0.70452 0.37941 0.0
O500 O 0.52054 0.7558 0.35743 0.0
O501 O 0.48981 0.76541 0.38757 0.0
O502 O 0.48105 0.73813 0.35546 0.0
O503 O 0.50897 0.72609 0.38489 0.0
H504 H 0.52464 0.79242 0.35748 0.0
H505 H 0.52888 0.74325 0.32392 0.0
H506 H 0.53572 0.81093 0.3308 0.0
H507 H 0.53962 0.76269 0.29773 0.0
H508 H 0.50095 0.77789 0.44836 0.0
H509 H 0.50169 0.8 0.38361 0.0
H510 H 0.49051 0.75684 0.4233 0.0
H511 H 0.51173 0.82034 0.40938 0.0
H512 H 0.48315 0.80223 0.30424 0.0
H513 H 0.45816 0.82046 0.35563 0.0
H514 H 0.55784 0.74729 0.43818 0.0
H515 H 0.56333 0.79636 0.40421 0.0
H516 H 0.44919 0.75238 0.36666 0.0
H517 H 0.48147 0.73726 0.31876 0.0
H518 H 0.42424 0.76341 0.34569 0.0
H519 H 0.45592 0.74848 0.29863 0.0
H520 H 0.50606 0.69185 0.37186 0.0
H521 H 0.50079 0.72571 0.42073 0.0
H522 H 0.49672 0.66453 0.39045 0.0
H523 H 0.49151 0.69778 0.43846 0.0
H524 H 0.55655 0.6903 0.33493 0.0
H525 H 0.50188 0.67985 0.31258 0.0
H526 H 0.43132 0.74029 0.42688 0.0
H527 H 0.43778 0.69048 0.39408 0.0
Li528 Li 0.50522 0.23329 0.63948 0.0
Li529 Li 0.51618 0.25384 0.61545 0.0
Li530 Li 0.49355 0.26407 0.63863 0.0
Li531 Li 0.4839 0.24305 0.61458 0.0
C532 C 0.53165 0.25396 0.6568 0.0
N533 N 0.55618 0.24798 0.68563 0.0
C534 C 0.55076 0.25484 0.65368 0.0
C535 C 0.52505 0.25009 0.67461 0.0
C536 C 0.56292 0.25177 0.66843 0.0
C537 C 0.53766 0.24709 0.68899 0.0
C538 C 0.52054 0.21511 0.60894 0.0
C539 C 0.53003 0.18548 0.59672 0.0
N540 N 0.54766 0.18883 0.60248 0.0
C541 C 0.53875 0.21827 0.61469 0.0
C542 C 0.51613 0.19859 0.59984 0.0
C543 C 0.55226 0.20483 0.61131 0.0
C544 C 0.49712 0.20191 0.66091 0.0
N545 N 0.51138 0.21257 0.65472 0.0
C546 C 0.53338 0.1928 0.66957 0.0
C547 C 0.52928 0.20822 0.65872 0.0
C548 C 0.51895 0.18152 0.67611 0.0
C549 C 0.50061 0.1862 0.67165 0.0
H550 H 0.48303 0.20553 0.65733 0.0
H551 H 0.54045 0.21661 0.65342 0.0
C552 C 0.54571 0.27696 0.60731 0.0
N553 N 0.53648 0.26189 0.60088 0.0
C554 C 0.56139 0.28341 0.59808 0.0
C555 C 0.55731 0.25919 0.57527 0.0
C556 C 0.54171 0.25313 0.58502 0.0
C557 C 0.56751 0.27434 0.58198 0.0
H558 H 0.541 0.28379 0.6198 0.0
H559 H 0.53396 0.2413 0.5801 0.0
C560 C 0.46574 0.24682 0.65349 0.0
N561 N 0.43937 0.26002 0.67792 0.0
C562 C 0.44998 0.25588 0.64682 0.0
C563 C 0.46798 0.24426 0.67256 0.0
C564 C 0.43684 0.26252 0.6594 0.0
C565 C 0.45452 0.25109 0.6847 0.0
C566 C 0.49246 0.27404 0.59326 0.0
C567 C 0.48919 0.29258 0.58874 0.0
C568 C 0.49519 0.26107 0.57911 0.0
C569 C 0.48868 0.29785 0.5701 0.0
C570 C 0.49458 0.26689 0.56065 0.0
N571 N 0.49137 0.28501 0.55657 0.0
C572 C 0.49142 0.28909 0.66941 0.0
C573 C 0.47265 0.29604 0.64335 0.0
C574 C 0.48511 0.3049 0.67859 0.0
N575 N 0.48515 0.28502 0.65212 0.0
C576 C 0.466 0.31199 0.65198 0.0
C577 C 0.47234 0.31666 0.66979 0.0
H578 H 0.50144 0.28023 0.67604 0.0
H579 H 0.46785 0.2924 0.62963 0.0
C580 C 0.4614 0.21752 0.5959 0.0
N581 N 0.46371 0.23583 0.59955 0.0
C582 C 0.44609 0.2115 0.58576 0.0
C583 C 0.43587 0.24333 0.58334 0.0
C584 C 0.45144 0.24874 0.59344 0.0
C585 C 0.43298 0.22447 0.57951 0.0
H586 H 0.47123 0.20758 0.60124 0.0
H587 H 0.45356 0.26321 0.59672 0.0
O588 O 0.51953 0.25686 0.64248 0.0
O589 O 0.50706 0.22807 0.61214 0.0
O590 O 0.47901 0.24069 0.6414 0.0
O591 O 0.49308 0.26876 0.61147 0.0
H592 H 0.55618 0.25774 0.64001 0.0
H593 H 0.51036 0.24907 0.67724 0.0
H594 H 0.57773 0.25235 0.66619 0.0
H595 H 0.53272 0.24397 0.70281 0.0
H596 H 0.5268 0.17262 0.58971 0.0
H597 H 0.54242 0.23094 0.62176 0.0
H598 H 0.50213 0.19592 0.59522 0.0
H599 H 0.5664 0.2071 0.61575 0.0
H600 H 0.54773 0.18944 0.67239 0.0
H601 H 0.48912 0.1778 0.67643 0.0
H602 H 0.56866 0.29536 0.60351 0.0
H603 H 0.56161 0.2518 0.56292 0.0
H604 H 0.44805 0.25802 0.63211 0.0
H605 H 0.47997 0.23707 0.67795 0.0
H606 H 0.42465 0.2697 0.65444 0.0
H607 H 0.45611 0.24928 0.6995 0.0
H608 H 0.4871 0.30279 0.59953 0.0
H609 H 0.49775 0.24666 0.5823 0.0
H610 H 0.48617 0.31216 0.56641 0.0
H611 H 0.49667 0.257 0.54957 0.0
H612 H 0.49049 0.30811 0.69223 0.0
H613 H 0.45595 0.32052 0.64481 0.0
H614 H 0.44422 0.1968 0.58336 0.0
H615 H 0.42615 0.25377 0.57867 0.0
Li616 Li 0.99458 0.26296 0.86113 0.0
Li617 Li 0.01469 0.25091 0.88534 0.0
Li618 Li 0.00649 0.23099 0.85822 0.0
Li619 Li 0.98426 0.23785 0.88294 0.0
C620 C 0.03013 0.26113 0.84353 0.0
N621 N 0.04934 0.27395 0.81293 0.0
C622 C 0.04463 0.27378 0.84572 0.0
C623 C 0.02564 0.25475 0.8258 0.0
C624 C 0.0541 0.28018 0.83007 0.0
C625 C 0.03545 0.26145 0.8105 0.0
C626 C 0.99433 0.27625 0.90223 0.0
C627 C -6e-05 0.28288 0.93452 0.0
N628 N 0.00295 0.30098 0.93018 0.0
C629 C 0.99732 0.29494 0.8981 0.0
C630 C 0.99549 0.27018 0.9206 0.0
C631 C 0.00171 0.30721 0.91242 0.0
C632 C 0.9679 0.28658 0.84661 0.0
N633 N 0.9865 0.28463 0.84869 0.0
C634 C 0.99177 0.31456 0.83553 0.0
C635 C -0.00153 0.29817 0.84335 0.0
C636 C 0.97258 0.31705 0.8334 0.0
C637 C 0.96061 0.30271 0.83888 0.0
H638 H 0.95872 0.27567 0.85123 0.0
H639 H 0.01314 0.29653 0.84568 0.0
C640 C 0.04115 0.24622 0.91434 0.0
N641 N 0.03403 0.25809 0.90155 0.0
C642 C 0.05549 0.25198 0.92602 0.0
C643 C 0.05476 0.28199 0.91108 0.0
C644 C 0.04055 0.27563 0.89969 0.0
C645 C 0.06244 0.27011 0.92446 0.0
H646 H 0.03577 0.23229 0.91542 0.0
H647 H 0.03469 0.2847 0.8893 0.0
C648 C 0.97082 0.23622 0.83991 0.0
N649 N 0.95079 0.22913 0.80801 0.0
C650 C 0.95648 0.22319 0.84009 0.0
C651 C 0.97474 0.24585 0.82356 0.0
C652 C 0.94658 0.21973 0.82381 0.0
C653 C 0.96452 0.24202 0.80757 0.0
C654 C 0.0038 0.20904 0.89522 0.0
C655 C 0.00236 0.19168 0.88674 0.0
C656 C 0.00054 0.2107 0.91426 0.0
C657 C 0.99742 0.1763 0.89742 0.0
C658 C 0.99561 0.195 0.92445 0.0
N659 N 0.99415 0.17827 0.91589 0.0
C660 C 0.03406 0.20929 0.84231 0.0
C661 C 0.00391 0.2013 0.83207 0.0
C662 C 0.04173 0.19469 0.83221 0.0
N663 N 0.01547 0.2122 0.84217 0.0
C664 C 0.01098 0.1866 0.82168 0.0
C665 C 0.03011 0.18296 0.82187 0.0
H666 H 0.04287 0.21805 0.85069 0.0
H667 H 0.98916 0.20364 0.83243 0.0
C668 C 0.95431 0.23885 0.90828 0.0
N669 N 0.96349 0.22814 0.89578 0.0
C670 C 0.93842 0.23214 0.91706 0.0
C671 C 0.94189 0.20346 0.90007 0.0
C672 C 0.95765 0.21074 0.8916 0.0
C673 C 0.93191 0.21427 0.91283 0.0
H674 H 0.95912 0.25274 0.91114 0.0
H675 H 0.9651 0.2026 0.88148 0.0
O676 O 0.0208 0.25468 0.85876 0.0
O677 O 0.99037 0.26396 0.88836 0.0
O678 O 0.98055 0.23983 0.85581 0.0
O679 O 0.00844 0.22429 0.88496 0.0
H680 H 0.04851 0.27869 0.85933 0.0
H681 H 0.01488 0.24456 0.82384 0.0
H682 H 0.06526 0.29007 0.83156 0.0
H683 H 0.03207 0.25665 0.7967 0.0
H684 H 0.00102 0.27835 0.94878 0.0
H685 H 0.99642 0.29989 0.88398 0.0
H686 H 0.99312 0.2558 0.92405 0.0
H687 H 0.00417 0.32169 0.90941 0.0
H688 H 0.00146 0.32539 0.83179 0.0
H689 H 0.94574 0.30398 0.83731 0.0
H690 H 0.061 0.24243 0.9362 0.0
H691 H 0.05991 0.29595 0.90917 0.0
H692 H 0.95306 0.21575 0.85263 0.0
H693 H 0.98536 0.25638 0.82321 0.0
H694 H 0.93554 0.2096 0.82374 0.0
H695 H 0.96744 0.24937 0.79482 0.0
H696 H 0.0049 0.19011 0.87204 0.0
H697 H 0.00168 0.224 0.92106 0.0
H698 H 0.99615 0.16281 0.89102 0.0
H699 H 0.99293 0.19611 0.93917 0.0
H700 H 0.0565 0.19225 0.83305 0.0
H701 H 0.00152 0.17806 0.81377 0.0
H702 H 0.93102 0.24104 0.92662 0.0
H703 H 0.93754 0.18953 0.89659 0.0
Li704 Li 0.38065 0.01137 0.24267 0.0
Li705 Li 0.35713 0.00258 0.26528 0.0
Li706 Li 0.38065 0.98062 0.25509 0.0
Li707 Li 0.35567 0.99014 0.23463 0.0
C708 C 0.39623 0.0171 0.27497 0.0
N709 N 0.42004 0.045 0.28594 0.0
C710 C 0.38981 0.03152 0.28621 0.0
C711 C 0.41478 0.01683 0.26938 0.0
C712 C 0.40207 0.0455 0.29161 0.0
C713 C 0.42659 0.03108 0.27503 0.0
C714 C 0.34197 0.023 0.22895 0.0
C715 C 0.31126 0.02536 0.21597 0.0
N716 N 0.31833 0.03462 0.20114 0.0
C717 C 0.34893 0.03258 0.21361 0.0
C718 C 0.32297 0.01941 0.23019 0.0
C719 C 0.33675 0.03834 0.1997 0.0
C720 C 0.40756 0.02916 0.22012 0.0
N721 N 0.39488 0.0316 0.23384 0.0
C722 C 0.40057 0.06418 0.23432 0.0
C723 C 0.39119 0.04865 0.24094 0.0
C724 C 0.41362 0.06215 0.22002 0.0
C725 C 0.41715 0.04436 0.21294 0.0
H726 H 0.40996 0.01548 0.21452 0.0
H727 H 0.38069 0.05019 0.25153 0.0
C728 C 0.34772 0.00487 0.30314 0.0
N729 N 0.34338 0.01118 0.28593 0.0
C730 C 0.33833 0.01161 0.31865 0.0
C731 C 0.3203 0.03132 0.29839 0.0
C732 C 0.32996 0.02411 0.28328 0.0
C733 C 0.32456 0.02517 0.31637 0.0
H734 H 0.35874 0.99485 0.30483 0.0
H735 H 0.327 0.02909 0.26948 0.0
C736 C 0.39334 0.97435 0.22199 0.0
N737 N 0.41536 0.94538 0.21007 0.0
C738 C 0.38535 0.95896 0.21335 0.0
C739 C 0.41253 0.97504 0.2245 0.0
C740 C 0.39673 0.94446 0.20742 0.0
C741 C 0.42342 0.96024 0.21841 0.0
C742 C 0.34262 0.97014 0.27196 0.0
C743 C 0.35018 0.95979 0.28649 0.0
C744 C 0.32382 0.97481 0.27231 0.0
C745 C 0.33879 0.95429 0.30116 0.0
C746 C 0.3129 0.96909 0.28725 0.0
N747 N 0.32055 0.95903 0.30124 0.0
C748 C 0.41113 0.96254 0.27217 0.0
C749 C 0.38906 0.94283 0.25792 0.0
C750 C 0.4214 0.94727 0.2781 0.0
N751 N 0.39527 0.96004 0.26237 0.0
C752 C 0.39884 0.92717 0.26362 0.0
C753 C 0.41517 0.92926 0.27401 0.0
H754 H 0.41568 0.97637 0.2756 0.0
H755 H 0.37627 0.9413 0.25025 0.0
C756 C 0.3452 0.98778 0.1975 0.0
N757 N 0.34023 0.9825 0.21488 0.0
C758 C 0.33465 0.98233 0.18228 0.0
C759 C 0.31405 0.96607 0.20315 0.0
C760 C 0.32502 0.97186 0.21799 0.0
C761 C 0.31889 0.97123 0.18499 0.0
H762 H 0.35753 0.99607 0.19548 0.0
H763 H 0.32152 0.96772 0.23194 0.0
O764 O 0.38437 0.00344 0.2693 0.0
O765 O 0.35371 0.01685 0.2425 0.0
O766 O 0.3824 0.98847 0.22831 0.0
O767 O 0.35361 0.9759 0.2576 0.0
H768 H 0.3755 0.03204 0.2906 0.0
H769 H 0.41993 0.00591 0.26049 0.0
H770 H 0.39728 0.05678 0.30025 0.0
H771 H 0.44093 0.03112 0.27069 0.0
H772 H 0.29655 0.02255 0.21668 0.0
H773 H 0.36359 0.03538 0.21232 0.0
H774 H 0.31736 0.01183 0.24185 0.0
H775 H 0.34196 0.0457 0.18771 0.0
H776 H 0.39722 0.0777 0.23991 0.0
H777 H 0.42714 0.04224 0.20193 0.0
H778 H 0.34224 0.00673 0.3323 0.0
H779 H 0.3097 0.04168 0.29605 0.0
H780 H 0.37051 0.95811 0.21145 0.0
H781 H 0.41892 0.98676 0.23132 0.0
H782 H 0.39073 0.93243 0.20079 0.0
H783 H 0.43828 0.96054 0.22037 0.0
H784 H 0.36473 0.95621 0.28658 0.0
H785 H 0.31779 0.98303 0.26132 0.0
H786 H 0.34447 0.94634 0.31253 0.0
H787 H 0.29837 0.97271 0.28776 0.0
H788 H 0.43402 0.94954 0.28588 0.0
H789 H 0.39334 0.91359 0.2604 0.0
H790 H 0.33909 0.98633 0.1685 0.0
H791 H 0.30194 0.95763 0.20587 0.0
Li792 Li 0.23145 0.14143 0.49475 0.0
Li793 Li 0.24137 0.11532 0.51391 0.0
Li794 Li 0.26397 0.14043 0.50527 0.0
Li795 Li 0.25337 0.1174 0.48308 0.0
C796 C 0.23527 0.15623 0.53185 0.0
N797 N 0.2238 0.1847 0.55485 0.0
C798 C 0.22203 0.15296 0.54563 0.0
C799 C 0.24292 0.17394 0.53004 0.0
C800 C 0.21634 0.16753 0.55704 0.0
C801 C 0.23688 0.18816 0.54172 0.0
C802 C 0.21276 0.10283 0.494 0.0
C803 C 0.20107 0.07199 0.49944 0.0
N804 N 0.18384 0.07911 0.5022 0.0
C805 C 0.19491 0.10983 0.49675 0.0
C806 C 0.21586 0.08375 0.4952 0.0
C807 C 0.18048 0.09762 0.50093 0.0
C808 C 0.20874 0.15835 0.46899 0.0
N809 N 0.21133 0.15676 0.48757 0.0
C810 C 0.18479 0.17563 0.49353 0.0
C811 C 0.19974 0.16511 0.49986 0.0
C812 C 0.18169 0.17743 0.47437 0.0
C813 C 0.19397 0.16867 0.46204 0.0
H814 H 0.21807 0.15135 0.45956 0.0
H815 H 0.20185 0.16341 0.51455 0.0
C816 C 0.24578 0.08648 0.54017 0.0
N817 N 0.2337 0.09911 0.53316 0.0
C818 C 0.24027 0.0746 0.55444 0.0
C819 C 0.21002 0.089 0.55394 0.0
C820 C 0.21612 0.10058 0.53974 0.0
C821 C 0.22216 0.07581 0.56151 0.0
H822 H 0.25973 0.08571 0.53479 0.0
H823 H 0.20685 0.11084 0.53402 0.0
C824 C 0.25898 0.1614 0.47207 0.0
N825 N 0.26784 0.19515 0.45621 0.0
C826 C 0.27074 0.16218 0.45668 0.0
C827 C 0.25147 0.17778 0.47915 0.0
C828 C 0.27514 0.17937 0.44893 0.0
C829 C 0.25617 0.1947 0.47101 0.0
C830 C 0.28065 0.10071 0.50029 0.0
C831 C 0.29882 0.1065 0.49689 0.0
C832 C 0.27577 0.08222 0.49723 0.0
C833 C 0.31174 0.09373 0.4902 0.0
C834 C 0.28908 0.06988 0.4905 0.0
N835 N 0.30664 0.07585 0.48714 0.0
C836 C 0.2869 0.1575 0.53168 0.0
C837 C 0.29762 0.15999 0.50069 0.0
C838 C 0.30245 0.16697 0.53816 0.0
N839 N 0.28474 0.15433 0.51323 0.0
C840 C 0.31344 0.1694 0.50657 0.0
C841 C 0.31602 0.17294 0.52554 0.0
H842 H 0.27664 0.15244 0.54137 0.0
H843 H 0.29584 0.1568 0.48618 0.0
C844 C 0.25038 0.09069 0.4542 0.0
N845 N 0.26111 0.10417 0.4618 0.0
C846 C 0.25628 0.08139 0.43827 0.0
C847 C 0.28408 0.10011 0.43836 0.0
C848 C 0.27771 0.10892 0.45431 0.0
C849 C 0.27326 0.08624 0.43008 0.0
H850 H 0.23717 0.0873 0.46039 0.0
H851 H 0.286 0.11959 0.46078 0.0
O852 O 0.24106 0.14203 0.52064 0.0
O853 O 0.2271 0.11461 0.49008 0.0
O854 O 0.25449 0.14462 0.47976 0.0
O855 O 0.2677 0.1131 0.50649 0.0
H856 H 0.21612 0.13934 0.54748 0.0
H857 H 0.2536 0.17669 0.51992 0.0
H858 H 0.20601 0.16519 0.56766 0.0
H859 H 0.24267 0.20192 0.54041 0.0
H860 H 0.2033 0.05721 0.50055 0.0
H861 H 0.19222 0.12454 0.49581 0.0
H862 H 0.22955 0.07808 0.49308 0.0
H863 H 0.16662 0.10285 0.50319 0.0
H864 H 0.17575 0.18224 0.50353 0.0
H865 H 0.19194 0.16935 0.44718 0.0
H866 H 0.25004 0.06455 0.5598 0.0
H867 H 0.19606 0.09067 0.55919 0.0
H868 H 0.27647 0.14967 0.45077 0.0
H869 H 0.24189 0.17747 0.49062 0.0
H870 H 0.28433 0.18017 0.4371 0.0
H871 H 0.25046 0.20747 0.47641 0.0
H872 H 0.30286 0.12072 0.49927 0.0
H873 H 0.2618 0.07749 0.49985 0.0
H874 H 0.32582 0.09805 0.4874 0.0
H875 H 0.28545 0.05557 0.48792 0.0
H876 H 0.30408 0.16913 0.55293 0.0
H877 H 0.32358 0.17378 0.4964 0.0
H878 H 0.24749 0.07086 0.4322 0.0
H879 H 0.29738 0.10405 0.43261 0.0
Li880 Li 0.14224 0.00141 0.73121 0.0
Li881 Li 0.1203 0.01397 0.75363 0.0
Li882 Li 0.1444 0.99231 0.76298 0.0
Li883 Li 0.11797 0.9821 0.74467 0.0
C884 C 0.16016 0.02466 0.76446 0.0
N885 N 0.18562 0.03766 0.78992 0.0
C886 C 0.15437 0.03588 0.77915 0.0
C887 C 0.1789 0.02011 0.76266 0.0
C888 C 0.16746 0.04232 0.79188 0.0
C889 C 0.19155 0.02679 0.7757 0.0
C890 C 0.10352 0.01694 0.72155 0.0
C891 C 0.07353 0.03166 0.72035 0.0
N892 N 0.08045 0.04456 0.70846 0.0
C893 C 0.11032 0.0303 0.70927 0.0
C894 C 0.08496 0.01756 0.72708 0.0
C895 C 0.09843 0.04416 0.70282 0.0
C896 C 0.14895 -0.00146 0.69307 0.0
N897 N 0.15506 0.00665 0.70894 0.0
C898 C 0.17807 0.02353 0.69224 0.0
C899 C 0.16935 0.01888 0.70887 0.0
C900 C 0.17196 0.01553 0.67555 0.0
C901 C 0.15734 0.00269 0.67616 0.0
H902 H 0.13737 0.98905 0.69356 0.0
H903 H 0.17367 0.02537 0.72166 0.0
C904 C 0.09407 0.03522 0.7738 0.0
N905 N 0.10729 0.03575 0.76041 0.0
C906 C 0.08485 0.05141 0.779 0.0
C907 C 0.10304 0.06832 0.75648 0.0
C908 C 0.11198 0.05183 0.75182 0.0
C909 C 0.08933 0.06829 0.77032 0.0
H910 H 0.09088 0.02229 0.78064 0.0
H911 H 0.12274 0.05183 0.74137 0.0
C912 C 0.15445 0.96748 0.72762 0.0
N913 N 0.17433 0.95157 0.69899 0.0
C914 C 0.14569 0.95555 0.71512 0.0
C915 C 0.17334 0.97126 0.72559 0.0
C916 C 0.15598 0.94764 0.70075 0.0
C917 C 0.18314 0.96311 0.711 0.0
C918 C 0.1063 0.98039 0.7789 0.0
C919 C 0.11354 0.96639 0.79016 0.0
C920 C 0.08717 0.9815 0.77609 0.0
C921 C 0.10149 0.95365 0.79838 0.0
C922 C 0.07559 0.96848 0.78452 0.0
N923 N 0.08293 0.95494 0.7954 0.0
C924 C 0.15715 0.99256 0.79977 0.0
C925 C 0.17453 0.97344 0.77946 0.0
C926 C 0.16806 0.98713 0.81478 0.0
N927 N 0.1605 0.98559 0.7826 0.0
C928 C 0.18582 0.96766 0.79405 0.0
C929 C 0.18249 0.97433 0.81205 0.0
H930 H 0.14572 0.00203 0.80185 0.0
H931 H 0.17676 0.96798 0.76571 0.0
C932 C 0.08852 0.96394 0.72662 0.0
N933 N 0.1021 0.96186 0.73949 0.0
C934 C 0.07823 0.94865 0.72082 0.0
C935 C 0.0957 0.9295 0.74208 0.0
C936 C 0.10575 0.94514 0.74736 0.0
C937 C 0.08201 0.9311 0.72834 0.0
H938 H 0.08616 0.97732 0.72034 0.0
H939 H 0.11699 0.94383 0.75719 0.0
O940 O 0.14751 0.01788 0.75209 0.0
O941 O 0.11501 0.00347 0.7283 0.0
O942 O 0.14456 0.97558 0.74164 0.0
O943 O 0.11789 0.99285 0.77053 0.0
H944 H 0.13991 0.03944 0.78084 0.0
H945 H 0.18359 0.0113 0.75146 0.0
H946 H 0.16317 0.05095 0.80337 0.0
H947 H 0.20608 0.02328 0.77455 0.0
H948 H 0.05918 0.03238 0.72462 0.0
H949 H 0.12466 0.03012 0.70492 0.0
H950 H 0.0795 0.00738 0.73665 0.0
H951 H 0.10352 0.05464 0.69338 0.0
H952 H 0.18904 0.03377 0.6924 0.0
H953 H 0.15229 0.99605 0.66369 0.0
H954 H 0.07465 0.05077 0.78999 0.0
H955 H 0.10682 0.08093 0.74928 0.0
H956 H 0.13107 0.95253 0.71637 0.0
H957 H 0.1803 0.98065 0.73497 0.0
H958 H 0.14936 0.93843 0.69094 0.0
H959 H 0.19773 0.96603 0.70919 0.0
H960 H 0.12831 0.96522 0.79238 0.0
H961 H 0.08135 0.99216 0.76731 0.0
H962 H 0.10691 0.9427 0.80706 0.0
H963 H 0.06077 0.96911 0.78239 0.0
H964 H 0.1648 0.9924 0.82846 0.0
H965 H 0.1969 0.95793 0.79129 0.0
H966 H 0.06772 0.95046 0.71025 0.0
H967 H 0.09924 0.91616 0.74798 0.0
Li968 Li 0.26584 0.86135 0.99498 0.0
Li969 Li 0.25355 0.88653 0.01403 0.0
Li970 Li 0.23319 0.86272 0.00149 0.0
Li971 Li 0.24729 0.88616 0.98158 0.0
C972 C 0.26407 0.84743 0.02895 0.0
N973 N 0.28665 0.82268 0.04749 0.0
C974 C 0.27623 0.85373 0.04264 0.0
C975 C 0.2633 0.82853 0.02477 0.0
C976 C 0.28755 0.84099 0.05185 0.0
C977 C 0.27487 0.81624 0.03426 0.0
C978 C 0.28117 0.89897 0.98163 0.0
C979 C 0.28684 0.92877 0.9676 0.0
N980 N 0.29892 0.92071 0.95556 0.0
C981 C 0.29369 0.89098 0.96918 0.0
C982 C 0.27777 0.91802 0.98092 0.0
C983 C 0.30251 0.90221 0.95609 0.0
C984 C 0.28607 0.83397 0.97608 0.0
N985 N 0.28647 0.84569 0.9908 0.0
C986 C 0.31724 0.83623 -0.00162 0.0
C987 C 0.30166 0.84713 0.00182 0.0
C988 C 0.31744 0.82415 0.98307 0.0
C989 C 0.30149 0.82309 0.97189 0.0
H990 H 0.27397 0.83345 0.96728 0.0
H991 H 0.30175 0.85693 0.01315 0.0
C992 C 0.24845 0.89629 0.05104 0.0
N993 N 0.25794 0.90093 0.03544 0.0
C994 C 0.25192 0.90551 0.06764 0.0
C995 C 0.27473 0.92426 0.05175 0.0
C996 C 0.27078 0.91468 0.03542 0.0
C997 C 0.26542 0.91952 0.06821 0.0
H998 H 0.23846 0.88513 0.05062 0.0
H999 H 0.27829 0.91787 0.02284 0.0
C1000 C 0.2332 0.84782 0.96831 0.0
N1001 N 0.20748 0.82506 0.95142 0.0
C1002 C 0.22059 0.85517 0.95558 0.0
C1003 C 0.23281 0.82888 0.97237 0.0
C1004 C 0.20768 0.84343 0.94719 0.0
C1005 C 0.21967 0.81761 0.96372 0.0
C1006 C 0.22082 0.90198 0.01337 0.0
C1007 C 0.20757 0.89564 0.02601 0.0
C1008 C 0.22589 0.92067 0.01336 0.0
C1009 C 0.19969 0.90813 0.03855 0.0
C1010 C 0.21773 0.93271 0.02615 0.0
N1011 N 0.20491 0.92624 0.03837 0.0
C1012 C 0.21167 0.83765 0.02174 0.0
C1013 C 0.19555 0.85245 0.9972 0.0
C1014 C 0.19538 0.8293 0.02786 0.0
N1015 N 0.21141 0.84911 0.0068 0.0
C1016 C 0.17893 0.84422 0.00274 0.0
C1017 C 0.1787 0.83283 0.01852 0.0
H1018 H 0.22436 0.83558 0.02937 0.0
H1019 H 0.19566 0.8621 0.98573 0.0
C1020 C 0.2526 0.89485 0.94412 0.0
N1021 N 0.2437 0.90031 0.9598 0.0
C1022 C 0.24938 0.904 0.9274 0.0
C1023 C 0.228 0.92432 0.94334 0.0
C1024 C 0.23168 0.91479 0.95976 0.0
C1025 C 0.23671 0.91878 0.92681 0.0
H1026 H 0.26191 0.88311 0.94456 0.0
H1027 H 0.22454 0.9186 0.97237 0.0
O1028 O 0.25298 0.85969 0.01966 0.0
O1029 O 0.27215 0.88816 0.99432 0.0
O1030 O 0.24581 0.8591 0.97684 0.0
O1031 O 0.22894 0.88991 0.0012 0.0
H1032 H 0.27709 0.8683 0.04601 0.0
H1033 H 0.25399 0.82343 0.01419 0.0
H1034 H 0.29709 0.84568 0.06242 0.0
H1035 H 0.2745 0.8016 0.03109 0.0
H1036 H 0.28424 0.94351 0.9668 0.0
H1037 H 0.29646 0.87625 0.96951 0.0
H1038 H 0.26805 0.9244 0.99038 0.0
H1039 H 0.31217 0.89621 0.94632 0.0
H1040 H 0.32905 0.83743 0.00756 0.0
H1041 H 0.30105 0.81442 0.95966 0.0
H1042 H 0.24428 0.90155 0.07995 0.0
H1043 H 0.28545 0.93477 0.05164 0.0
H1044 H 0.22063 0.8698 0.95233 0.0
H1045 H 0.24249 0.82298 0.98218 0.0
H1046 H 0.19779 0.84894 0.93737 0.0
H1047 H 0.21915 0.80295 0.96679 0.0
H1048 H 0.20352 0.88122 0.02629 0.0
H1049 H 0.23623 0.92578 0.00377 0.0
H1050 H 0.18948 0.90341 0.04846 0.0
H1051 H 0.22162 0.94718 0.02639 0.0
H1052 H 0.19574 0.82053 0.04004 0.0
H1053 H 0.16627 0.84747 0.99536 0.0
H1054 H 0.25653 0.89938 0.91503 0.0
H1055 H 0.21789 0.9354 0.94346 0.0
Li1056 Li 0.24225 0.38341 0.01231 0.0
Li1057 Li 0.26283 0.35944 0.00048 0.0
Li1058 Li 0.24971 0.3834 0.98052 0.0
Li1059 Li 0.22933 0.35955 0.9914 0.0
C1060 C 0.27457 0.39974 0.01214 0.0
N1061 N 0.28869 0.42696 0.03505 0.0
C1062 C 0.2867 0.39504 0.02648 0.0
C1063 C 0.2698 0.41828 0.00928 0.0
C1064 C 0.29365 0.409 0.03796 0.0
C1065 C 0.27704 0.43184 0.02106 0.0
C1066 C 0.23773 0.33873 0.02253 0.0
C1067 C 0.23946 0.30573 0.0176 0.0
N1068 N 0.23152 0.30291 0.03448 0.0
C1069 C 0.22957 0.33552 0.0398 0.0
C1070 C 0.24271 0.32374 0.01131 0.0
C1071 C 0.22656 0.3173 0.04561 0.0
C1072 C 0.22428 0.41084 0.03389 0.0
N1073 N 0.23717 0.39713 0.03407 0.0
C1074 C 0.24202 0.40113 0.06656 0.0
C1075 C 0.24602 0.39214 0.04992 0.0
C1076 C 0.22854 0.41519 0.06693 0.0
C1077 C 0.21974 0.42012 0.05024 0.0
H1078 H 0.21719 0.41424 0.02115 0.0
H1079 H 0.25604 0.38099 0.04964 0.0
C1080 C 0.29708 0.33977 0.99582 0.0
N1081 N 0.28356 0.34504 0.00783 0.0
C1082 C 0.31306 0.331 0.0024 0.0
C1083 C 0.30047 0.33267 0.03342 0.0
C1084 C 0.28489 0.34152 0.02628 0.0
C1085 C 0.31504 0.32766 0.02151 0.0
H1086 H 0.29575 0.34285 0.98124 0.0
H1087 H 0.27406 0.34611 0.03557 0.0
C1088 C 0.21497 0.39815 0.9804 0.0
N1089 N 0.19516 0.42175 0.95766 0.0
C1090 C 0.2014 0.3911 0.9685 0.0
C1091 C 0.21834 0.41722 0.98085 0.0
C1092 C 0.19155 0.40326 0.95709 0.0
C1093 C 0.20822 0.42891 0.9692 0.0
C1094 C 0.25316 0.35653 0.95655 0.0
C1095 C 0.23746 0.35596 0.94521 0.0
C1096 C 0.27067 0.35859 0.94851 0.0
C1097 C 0.23957 0.35728 0.926 0.0
C1098 C 0.27219 0.35995 0.92924 0.0
N1099 N 0.25674 0.35925 0.91848 0.0
C1100 C 0.27369 0.40561 0.95964 0.0
C1101 C 0.24446 0.40177 0.94525 0.0
C1102 C 0.28015 0.41578 0.94451 0.0
N1103 N 0.25613 0.39881 0.95976 0.0
C1104 C 0.25026 0.41206 0.92994 0.0
C1105 C 0.26841 0.41909 0.92931 0.0
H1106 H 0.28289 0.40268 0.97108 0.0
H1107 H 0.23081 0.39575 0.94524 0.0
C1108 C 0.19258 0.34957 0.99672 0.0
N1109 N 0.20827 0.34448 0.98767 0.0
C1110 C 0.1761 0.33994 0.99376 0.0
C1111 C 0.19247 0.31952 0.97282 0.0
C1112 C 0.20868 0.32948 0.97631 0.0
C1113 C 0.17578 0.32496 0.98131 0.0
H1114 H 0.19281 0.36141 0.00592 0.0
H1115 H 0.22149 0.32555 0.96958 0.0
O1116 O 0.26733 0.38624 0.00098 0.0
O1117 O 0.24061 0.35651 0.01663 0.0
O1118 O 0.22459 0.38648 0.99184 0.0
O1119 O 0.25134 0.35561 0.97543 0.0
H1120 H 0.29061 0.38077 0.02883 0.0
H1121 H 0.2606 0.42215 0.99811 0.0
H1122 H 0.30296 0.40556 0.0492 0.0
H1123 H 0.27339 0.44624 0.01907 0.0
H1124 H 0.24323 0.294 0.00907 0.0
H1125 H 0.22561 0.34701 0.04862 0.0
H1126 H 0.249 0.32597 0.99787 0.0
H1127 H 0.22026 0.31459 0.05895 0.0
H1128 H 0.2493 0.397 0.07902 0.0
H1129 H 0.209 0.43059 0.04989 0.0
H1130 H 0.32401 0.32754 0.99273 0.0
H1131 H 0.30119 0.33008 0.04819 0.0
H1132 H 0.1986 0.3764 0.96791 0.0
H1133 H 0.22869 0.42293 0.99003 0.0
H1134 H 0.18108 0.39799 0.94775 0.0
H1135 H 0.21076 0.44369 0.96934 0.0
H1136 H 0.22376 0.35489 0.95115 0.0
H1137 H 0.28293 0.35954 0.95704 0.0
H1138 H 0.22752 0.35693 0.91708 0.0
H1139 H 0.28564 0.36167 0.92285 0.0
H1140 H 0.2944 0.42047 0.94453 0.0
H1141 H 0.24063 0.41433 0.91866 0.0
H1142 H 0.16369 0.34438 0.00094 0.0
H1143 H 0.1929 0.30815 0.96303 0.0
Li1144 Li 0.73183 0.13194 0.00459 0.0
Li1145 Li 0.75337 0.10697 0.01299 0.0
Li1146 Li 0.76269 0.13131 0.98965 0.0
Li1147 Li 0.74056 0.10705 0.98212 0.0
C1148 C 0.76095 0.1482 0.02812 0.0
N1149 N 0.77023 0.17665 0.05205 0.0
C1150 C 0.76165 0.14505 0.04724 0.0
C1151 C 0.76529 0.16576 0.02117 0.0
C1152 C 0.76626 0.15963 0.05911 0.0
C1153 C 0.76987 0.17998 0.03349 0.0
C1154 C 0.71888 0.09265 0.01778 0.0
C1155 C 0.7154 0.06159 0.02961 0.0
N1156 N 0.70322 0.06796 0.04252 0.0
C1157 C 0.70622 0.09888 0.03107 0.0
C1158 C 0.72341 0.07384 0.01693 0.0
C1159 C 0.6985 0.08618 0.04349 0.0
C1160 C 0.69699 0.14914 0.00263 0.0
N1161 N 0.71206 0.14669 0.01366 0.0
C1162 C 0.69727 0.16267 0.03857 0.0
C1163 C 0.71251 0.1533 0.03128 0.0
C1164 C 0.68129 0.16504 0.0277 0.0
C1165 C 0.68137 0.15837 0.00938 0.0
H1166 H 0.69694 0.14346 0.98875 0.0
H1167 H 0.72443 0.15082 0.03992 0.0
C1168 C 0.7781 0.08325 0.03198 0.0
N1169 N 0.76191 0.09275 0.03343 0.0
C1170 C 0.78527 0.07383 0.04732 0.0
C1171 C 0.75868 0.08376 0.06513 0.0
C1172 C 0.75221 0.09319 0.04957 0.0
C1173 C 0.7756 0.07412 0.06427 0.0
H1174 H 0.78569 0.08339 0.01905 0.0
H1175 H 0.73963 0.10123 0.0505 0.0
C1176 C 0.73494 0.15042 0.96858 0.0
N1177 N 0.72858 0.18336 0.95008 0.0
C1178 C 0.73184 0.15042 0.94944 0.0
C1179 C 0.73453 0.16714 0.97833 0.0
C1180 C 0.72874 0.16723 0.94033 0.0
C1181 C 0.73136 0.18365 0.96873 0.0
C1182 C 0.77329 0.09124 0.97692 0.0
C1183 C 0.78305 0.09687 0.96116 0.0
C1184 C 0.7698 0.07242 0.97983 0.0
C1185 C 0.78889 0.08356 0.94837 0.0
C1186 C 0.77586 0.05953 0.96671 0.0
N1187 N 0.78518 0.06532 0.95137 0.0
C1188 C 0.79803 0.1474 0.99143 0.0
C1189 C 0.78265 0.15171 0.96272 0.0
C1190 C 0.81386 0.15622 0.98464 0.0
N1191 N 0.7829 0.14529 0.98042 0.0
C1192 C 0.79812 0.16065 0.95538 0.0
C1193 C 0.81411 0.16278 0.96629 0.0
H1194 H 0.79793 0.14181 0.00535 0.0
H1195 H 0.77068 0.1494 0.95407 0.0
C1196 C 0.7185 0.07961 0.96442 0.0
N1197 N 0.7319 0.09262 0.96195 0.0
C1198 C 0.71149 0.06989 0.94923 0.0
C1199 C 0.7324 0.08695 0.92934 0.0
C1200 C 0.73889 0.09642 0.94488 0.0
C1201 C 0.71837 0.07362 0.93138 0.0
H1202 H 0.71301 0.07704 0.97812 0.0
H1203 H 0.74929 0.10709 0.9433 0.0
O1204 O 0.75661 0.13399 0.01631 0.0
O1205 O 0.72667 0.10491 0.00558 0.0
O1206 O 0.73798 0.13405 0.97767 0.0
O1207 O 0.7672 0.10409 0.98945 0.0
H1208 H 0.75852 0.13154 0.05288 0.0
H1209 H 0.76537 0.16839 0.00643 0.0
H1210 H 0.76672 0.15741 0.07394 0.0
H1211 H 0.77322 0.19363 0.02829 0.0
H1212 H 0.71887 0.04701 0.02919 0.0
H1213 H 0.70246 0.11336 0.03185 0.0
H1214 H 0.73307 0.06878 0.00666 0.0
H1215 H 0.68875 0.09082 0.0539 0.0
H1216 H 0.69792 0.16776 0.05268 0.0
H1217 H 0.66928 0.15963 0.00059 0.0
H1218 H 0.79851 0.06691 0.04601 0.0
H1219 H 0.75055 0.08419 0.07774 0.0
H1220 H 0.73191 0.13759 0.94169 0.0
H1221 H 0.73639 0.16737 0.99318 0.0
H1222 H 0.72643 0.16744 0.92551 0.0
H1223 H 0.73103 0.19669 0.97613 0.0
H1224 H 0.78593 0.11138 0.95874 0.0
H1225 H 0.76247 0.06782 0.99207 0.0
H1226 H 0.79635 0.08773 0.93603 0.0
H1227 H 0.77316 0.04493 0.96872 0.0
H1228 H 0.82596 0.15728 0.99344 0.0
H1229 H 0.79763 0.16563 0.94122 0.0
H1230 H 0.70072 0.05967 0.95139 0.0
H1231 H 0.73786 0.09047 0.9158 0.0
Li1232 Li 0.1331 0.49961 0.26375 0.0
Li1233 Li 0.10856 0.47993 0.2512 0.0
Li1234 Li 0.13611 0.48835 0.2315 0.0
Li1235 Li 0.11162 0.51073 0.23883 0.0
C1236 C 0.14876 0.46253 0.26181 0.0
N1237 N 0.1763 0.43992 0.27587 0.0
C1238 C 0.14452 0.44913 0.27515 0.0
C1239 C 0.167 0.46428 0.25548 0.0
C1240 C 0.15864 0.43788 0.28213 0.0
C1241 C 0.18072 0.45276 0.26279 0.0
C1242 C 0.0921 0.50081 0.27729 0.0
C1243 C 0.05973 0.49691 0.28458 0.0
N1244 N 0.06423 0.49401 0.30266 0.0
C1245 C 0.09641 0.49795 0.29597 0.0
C1246 C 0.07362 0.50045 0.27155 0.0
C1247 C 0.08212 0.49448 0.30857 0.0
C1248 C 0.14195 0.52509 0.29087 0.0
N1249 N 0.14575 0.50746 0.28547 0.0
C1250 C 0.16576 0.50317 0.31151 0.0
C1251 C 0.15743 0.49648 0.29539 0.0
C1252 C 0.16189 0.52126 0.31754 0.0
C1253 C 0.14986 0.5323 0.30696 0.0
H1254 H 0.1326 0.53349 0.28268 0.0
H1255 H 0.16023 0.4825 0.29098 0.0
C1256 C 0.08174 0.45227 0.24376 0.0
N1257 N 0.09196 0.46048 0.25729 0.0
C1258 C 0.07016 0.43735 0.24802 0.0
C1259 C 0.07966 0.43988 0.28008 0.0
C1260 C 0.09119 0.45456 0.27516 0.0
C1261 C 0.06907 0.43098 0.26639 0.0
H1262 H 0.08281 0.4571 0.22962 0.0
H1263 H 0.09978 0.46104 0.28556 0.0
C1264 C 0.15501 0.52334 0.23881 0.0
N1265 N 0.18791 0.54246 0.23463 0.0
C1266 C 0.1556 0.53948 0.22812 0.0
C1267 C 0.1711 0.51703 0.24753 0.0
C1268 C 0.17239 0.54892 0.22612 0.0
C1269 C 0.18761 0.52686 0.24522 0.0
C1270 C 0.0987 0.49148 0.2098 0.0
C1271 C 0.10666 0.49306 0.19219 0.0
C1272 C 0.07971 0.49455 0.21206 0.0
C1273 C 0.09549 0.49797 0.17715 0.0
C1274 C 0.06903 0.49947 0.19668 0.0
N1275 N 0.07707 0.50108 0.17969 0.0
C1276 C 0.15309 0.46162 0.20922 0.0
C1277 C 0.16188 0.49243 0.20201 0.0
C1278 C 0.16379 0.4548 0.19462 0.0
N1279 N 0.15231 0.48012 0.21257 0.0
C1280 C 0.17284 0.48623 0.18733 0.0
C1281 C 0.17375 0.46719 0.18334 0.0
H1282 H 0.14507 0.4522 0.2177 0.0
H1283 H 0.16072 0.5071 0.20468 0.0
C1284 C 0.08719 0.54159 0.2395 0.0
N1285 N 0.09949 0.53183 0.22909 0.0
C1286 C 0.07897 0.55759 0.23234 0.0
C1287 C 0.09599 0.55289 0.20384 0.0
C1288 C 0.1041 0.53723 0.21166 0.0
C1289 C 0.08338 0.5635 0.21426 0.0
H1290 H 0.08404 0.53713 0.25346 0.0
H1291 H 0.11424 0.52941 0.20387 0.0
O1292 O 0.13506 0.47359 0.25477 0.0
O1293 O 0.10591 0.50408 0.26473 0.0
O1294 O 0.13866 0.51398 0.2409 0.0
O1295 O 0.10944 0.48688 0.22472 0.0
H1296 H 0.13049 0.44747 0.28012 0.0
H1297 H 0.17055 0.47436 0.24499 0.0
H1298 H 0.15555 0.42751 0.29251 0.0
H1299 H 0.19489 0.45401 0.25805 0.0
H1300 H 0.04537 0.49648 0.28031 0.0
H1301 H 0.11065 0.4982 0.30065 0.0
H1302 H 0.07005 0.50279 0.25718 0.0
H1303 H 0.08525 0.49212 0.32305 0.0
H1304 H 0.17482 0.49415 0.31938 0.0
H1305 H 0.14668 0.5464 0.31102 0.0
H1306 H 0.0622 0.43083 0.2371 0.0
H1307 H 0.07949 0.43515 0.29433 0.0
H1308 H 0.14324 0.54463 0.22138 0.0
H1309 H 0.17084 0.50478 0.25612 0.0
H1310 H 0.17307 0.56138 0.21781 0.0
H1311 H 0.20017 0.52212 0.25188 0.0
H1312 H 0.12131 0.49064 0.19019 0.0
H1313 H 0.07333 0.49325 0.22556 0.0
H1314 H 0.10148 0.49935 0.16347 0.0
H1315 H 0.05434 0.502 0.19824 0.0
H1316 H 0.16378 0.44005 0.19188 0.0
H1317 H 0.18039 0.49627 0.17912 0.0
H1318 H 0.06961 0.56545 0.24105 0.0
H1319 H 0.09963 0.5566 0.18976 0.0
Li1320 Li 0.74088 0.88315 0.51281 0.0
Li1321 Li 0.76194 0.85908 0.50409 0.0
Li1322 Li 0.75187 0.8814 0.4814 0.0
Li1323 Li 0.73082 0.85844 0.49277 0.0
C1324 C 0.77849 0.89066 0.51812 0.0
N1325 N 0.80261 0.89929 0.54658 0.0
C1326 C 0.77505 0.88428 0.5361 0.0
C1327 C 0.7942 0.90142 0.51462 0.0
C1328 C 0.7874 0.88879 0.5503 0.0
C1329 C 0.80623 0.90564 0.5292 0.0
C1330 C 0.73652 0.83864 0.52474 0.0
C1331 C 0.73956 0.80571 0.51992 0.0
N1332 N 0.73144 0.80261 0.53666 0.0
C1333 C 0.72821 0.83514 0.54189 0.0
C1334 C 0.74225 0.82382 0.51364 0.0
C1335 C 0.72577 0.81682 0.54768 0.0
C1336 C 0.71703 0.89205 0.54107 0.0
N1337 N 0.7323 0.89856 0.53222 0.0
C1338 C 0.73325 0.92511 0.55199 0.0
C1339 C 0.74042 0.91482 0.53721 0.0
C1340 C 0.71751 0.91863 0.56147 0.0
C1341 C 0.70937 0.90189 0.55579 0.0
H1342 H 0.71088 0.8791 0.53669 0.0
H1343 H 0.75247 0.91976 0.52978 0.0
C1344 C 0.79735 0.8432 0.50068 0.0
N1345 N 0.78277 0.84539 0.51241 0.0
C1346 C 0.8138 0.83517 0.50701 0.0
C1347 C 0.79963 0.83138 0.53717 0.0
C1348 C 0.78353 0.8395 0.53029 0.0
C1349 C 0.81517 0.82947 0.52559 0.0
H1350 H 0.79639 0.84828 0.4866 0.0
H1351 H 0.77187 0.84166 0.53943 0.0
C1352 C 0.72062 0.90332 0.48761 0.0
N1353 N 0.70959 0.93972 0.48324 0.0
C1354 C 0.70226 0.90744 0.48308 0.0
C1355 C 0.73338 0.91771 0.48995 0.0
C1356 C 0.69695 0.92593 0.48091 0.0
C1357 C 0.72752 0.93602 0.48767 0.0
C1358 C 0.74974 0.84958 0.46036 0.0
C1359 C 0.73439 0.8575 0.45159 0.0
C1360 C 0.76098 0.83717 0.45062 0.0
C1361 C 0.73053 0.85284 0.43319 0.0
C1362 C 0.75666 0.83286 0.43224 0.0
N1363 N 0.74165 0.84072 0.42398 0.0
C1364 C 0.77823 0.89421 0.45644 0.0
C1365 C 0.74757 0.90257 0.44807 0.0
C1366 C 0.78517 0.90219 0.44024 0.0
N1367 N 0.75975 0.89448 0.45997 0.0
C1368 C 0.75394 0.91093 0.43181 0.0
C1369 C 0.77294 0.9106 0.42766 0.0
H1370 H 0.78753 0.88746 0.46608 0.0
H1371 H 0.73288 0.90218 0.45094 0.0
C1372 C 0.69359 0.85063 0.49423 0.0
N1373 N 0.70976 0.84377 0.48752 0.0
C1374 C 0.67694 0.84158 0.49059 0.0
C1375 C 0.69398 0.81826 0.47357 0.0
C1376 C 0.71036 0.82771 0.47769 0.0
C1377 C 0.67692 0.82536 0.47981 0.0
H1378 H 0.69364 0.86331 0.50224 0.0
H1379 H 0.72348 0.82242 0.47275 0.0
O1380 O 0.76678 0.88627 0.50388 0.0
O1381 O 0.73886 0.85654 0.51893 0.0
O1382 O 0.72589 0.88525 0.48988 0.0
O1383 O 0.754 0.85399 0.47832 0.0
H1384 H 0.76299 0.87591 0.5391 0.0
H1385 H 0.79708 0.90642 0.50076 0.0
H1386 H 0.78491 0.88392 0.56427 0.0
H1387 H 0.81844 0.91395 0.52668 0.0
H1388 H 0.74392 0.79411 0.51148 0.0
H1389 H 0.72369 0.84647 0.55063 0.0
H1390 H 0.74872 0.82621 0.50035 0.0
H1391 H 0.71936 0.81391 0.56092 0.0
H1392 H 0.73982 0.93803 0.55585 0.0
H1393 H 0.69739 0.89627 0.56287 0.0
H1394 H 0.82551 0.83415 0.49768 0.0
H1395 H 0.79999 0.82695 0.55151 0.0
H1396 H 0.69222 0.89644 0.48125 0.0
H1397 H 0.74765 0.91483 0.49344 0.0
H1398 H 0.68278 0.92932 0.47739 0.0
H1399 H 0.73725 0.94729 0.48943 0.0
H1400 H 0.7255 0.86711 0.45886 0.0
H1401 H 0.77294 0.83096 0.45722 0.0
H1402 H 0.7187 0.85886 0.42624 0.0
H1403 H 0.76524 0.82328 0.42454 0.0
H1404 H 0.79993 0.90175 0.43756 0.0
H1405 H 0.74406 0.91706 0.42231 0.0
H1406 H 0.66419 0.84735 0.49603 0.0
H1407 H 0.69463 0.80589 0.46511 0.0
Li1408 Li 0.88644 0.0092 0.25591 0.0
Li1409 Li 0.86202 0.98683 0.26257 0.0
Li1410 Li 0.88921 0.97739 0.24373 0.0
Li1411 Li 0.86487 0.99739 0.2309 0.0
C1412 C 0.90433 0.98425 0.28013 0.0
N1413 N 0.93656 0.98135 0.30056 0.0
C1414 C 0.90349 0.98148 0.29929 0.0
C1415 C 0.92153 0.98542 0.27134 0.0
C1416 C 0.91994 0.98009 0.30938 0.0
C1417 C 0.93768 0.98394 0.28191 0.0
C1418 C 0.84435 0.01892 0.26296 0.0
C1419 C 0.81136 0.02011 0.2681 0.0
N1420 N 0.81421 0.03105 0.2832 0.0
C1421 C 0.84695 0.03031 0.2784 0.0
C1422 C 0.82643 0.01389 0.25765 0.0
C1423 C 0.83153 0.03625 0.2885 0.0
C1424 C 0.90454 0.04372 0.25338 0.0
N1425 N 0.89912 0.03011 0.26522 0.0
C1426 C 0.91034 0.04725 0.29119 0.0
C1427 C 0.90177 0.0316 0.28381 0.0
C1428 C 0.91603 0.06162 0.27934 0.0
C1429 C 0.91315 0.05966 0.26016 0.0
H1430 H 0.9019 0.04229 0.23868 0.0
H1431 H 0.89691 0.02077 0.29295 0.0
C1432 C 0.83459 0.96414 0.27922 0.0
N1433 N 0.84599 0.97891 0.28179 0.0
C1434 C 0.82415 0.95724 0.29399 0.0
C1435 C 0.83706 0.98116 0.3136 0.0
C1436 C 0.84741 0.98745 0.29852 0.0
C1437 C 0.82547 0.96569 0.31148 0.0
H1438 H 0.83403 0.95738 0.26587 0.0
H1439 H 0.857 -0.00117 0.30027 0.0
C1440 C 0.9061 0.0029 0.21751 0.0
N1441 N 0.93418 0.00658 0.19169 0.0
C1442 C 0.90295 -0.00167 0.19894 0.0
C1443 C 0.92348 0.00954 0.2229 0.0
C1444 C 0.91734 0.00023 0.18611 0.0
C1445 C 0.93751 0.01124 0.20965 0.0
C1446 C 0.85258 0.96161 0.22735 0.0
C1447 C 0.86139 0.94897 0.21559 0.0
C1448 C 0.83341 0.96408 0.22615 0.0
C1449 C 0.85086 0.93915 0.20265 0.0
C1450 C 0.82338 0.95402 0.213 0.0
N1451 N 0.83224 0.94187 0.20162 0.0
C1452 C 0.90353 0.94273 0.25143 0.0
C1453 C 0.91696 0.95597 0.22452 0.0
C1454 C 0.91334 0.9263 0.24866 0.0
N1455 N 0.9053 0.95702 0.23929 0.0
C1456 C 0.92705 0.93981 0.22122 0.0
C1457 C 0.92505 0.92458 0.2332 0.0
H1458 H 0.8941 0.94396 0.26303 0.0
H1459 H 0.91807 0.96734 0.21494 0.0
C1460 C 0.84435 0.02201 0.20923 0.0
N1461 N 0.85195 0.00479 0.20906 0.0
C1462 C 0.83523 0.02882 0.19359 0.0
C1463 C 0.84173 -4e-05 0.1779 0.0
C1464 C 0.85091 0.99381 0.19377 0.0
C1465 C 0.83381 0.01776 0.1776 0.0
H1466 H 0.84564 0.03059 0.22145 0.0
H1467 H 0.85744 0.98037 0.19373 0.0
O1468 O 0.88832 0.98575 0.27011 0.0
O1469 O 0.85928 0.01273 0.25307 0.0
O1470 O 0.89211 0.00131 0.23022 0.0
O1471 O 0.86266 0.97132 0.24013 0.0
H1472 H 0.89025 0.98051 0.30628 0.0
H1473 H 0.92241 0.98732 0.25652 0.0
H1474 H 0.91951 0.97802 0.32423 0.0
H1475 H 0.9511 0.98483 0.27528 0.0
H1476 H 0.79741 0.01625 0.26422 0.0
H1477 H 0.86074 0.03438 0.28264 0.0
H1478 H 0.8242 0.00525 0.2456 0.0
H1479 H 0.83333 0.04497 0.30056 0.0
H1480 H 0.91241 0.0481 0.30604 0.0
H1481 H 0.91703 0.07052 0.25056 0.0
H1482 H 0.81535 0.94528 0.29183 0.0
H1483 H 0.83871 0.98784 0.32694 0.0
H1484 H 0.88963 0.99317 0.19451 0.0
H1485 H 0.92613 0.01343 0.23713 0.0
H1486 H 0.91512 0.99664 0.17172 0.0
H1487 H 0.95103 0.01631 0.21365 0.0
H1488 H 0.8762 0.94684 0.21636 0.0
H1489 H 0.82637 0.97372 0.23521 0.0
H1490 H 0.8575 0.92938 0.19341 0.0
H1491 H 0.80855 0.95586 0.21185 0.0
H1492 H 0.91154 0.91497 0.25835 0.0
H1493 H 0.9357 0.939 0.20898 0.0
H1494 H 0.82974 0.04278 0.19394 0.0
H1495 H 0.84086 0.99083 0.16603 0.0
Li1496 Li 0.23236 0.63448 0.50557 0.0
Li1497 Li 0.2528 0.6086 0.51431 0.0
Li1498 Li 0.26319 0.63238 0.49073 0.0
Li1499 Li 0.24001 0.60909 0.48331 0.0
C1500 C 0.26167 0.6491 0.52979 0.0
N1501 N 0.27121 0.67633 0.555 0.0
C1502 C 0.26166 0.64525 0.54879 0.0
C1503 C 0.26684 0.66672 0.52361 0.0
C1504 C 0.26643 0.65922 0.56132 0.0
C1505 C 0.27153 0.68031 0.53657 0.0
C1506 C 0.21712 0.59566 0.51831 0.0
C1507 C 0.21158 0.5646 0.52934 0.0
N1508 N 0.19901 0.57132 0.54169 0.0
C1509 C 0.20405 0.60225 0.53102 0.0
C1510 C 0.22083 0.57668 0.51737 0.0
C1511 C 0.19507 0.58973 0.54275 0.0
C1512 C 0.19848 0.6535 0.50325 0.0
N1513 N 0.21317 0.65004 0.51452 0.0
C1514 C 0.19844 0.6657 0.53967 0.0
C1515 C 0.21347 0.65601 0.53238 0.0
C1516 C 0.18279 0.66902 0.52856 0.0
C1517 C 0.18307 0.66308 0.51 0.0
H1518 H 0.19851 0.64828 0.48919 0.0
H1519 H 0.22505 0.65269 0.5412 0.0
C1520 C 0.27751 0.58561 0.53388 0.0
N1521 N 0.26075 0.59411 0.53478 0.0
C1522 C 0.28438 0.57598 0.54922 0.0
C1523 C 0.25632 0.58357 0.56585 0.0
C1524 C 0.2502 0.59336 0.55037 0.0
C1525 C 0.27379 0.57494 0.56559 0.0
H1526 H 0.28576 0.58673 0.52141 0.0
H1527 H 0.2372 0.60071 0.55098 0.0
C1528 C 0.23678 0.65266 0.46952 0.0
N1529 N 0.23288 0.68592 0.45095 0.0
C1530 C 0.23399 0.65285 0.45034 0.0
C1531 C 0.23734 0.66937 0.47928 0.0
C1532 C 0.23213 0.66981 0.4412 0.0
C1533 C 0.2354 0.68605 0.46964 0.0
C1534 C 0.27216 0.59143 0.47883 0.0
C1535 C 0.28198 0.59607 0.46278 0.0
C1536 C 0.26831 0.57286 0.48269 0.0
C1537 C 0.28747 0.58202 0.45064 0.0
C1538 C 0.27404 0.55921 0.4702 0.0
N1539 N 0.2834 0.56404 0.45456 0.0
C1540 C 0.29879 0.64808 0.49277 0.0
C1541 C 0.28425 0.65096 0.46345 0.0
C1542 C 0.31482 0.65655 0.486 0.0
N1543 N 0.28396 0.64549 0.48146 0.0
C1544 C 0.29993 0.65954 0.45612 0.0
C1545 C 0.31559 0.66227 0.46738 0.0
H1546 H 0.29829 0.64321 0.50695 0.0
H1547 H 0.2725 0.64825 0.4546 0.0
C1548 C 0.21636 0.58291 0.46593 0.0
N1549 N 0.23067 0.59487 0.46332 0.0
C1550 C 0.20892 0.57325 0.45091 0.0
C1551 C 0.2312 0.58829 0.43088 0.0
C1552 C 0.23809 0.59777 0.44625 0.0
C1553 C 0.21632 0.57596 0.4331 0.0
H1554 H 0.21049 0.58113 0.47959 0.0
H1555 H 0.24916 0.60772 0.44453 0.0
O1556 O 0.25719 0.63549 0.51735 0.0
O1557 O 0.22612 0.60775 0.5068 0.0
O1558 O 0.23866 0.63614 0.47864 0.0
O1559 O 0.26646 0.60501 0.49076 0.0
H1560 H 0.25787 0.63167 0.55384 0.0
H1561 H 0.26744 0.66985 0.50897 0.0
H1562 H 0.26634 0.65646 0.57606 0.0
H1563 H 0.27552 0.69401 0.53197 0.0
H1564 H 0.21438 0.54988 0.52882 0.0
H1565 H 0.20092 0.61688 0.53187 0.0
H1566 H 0.2308 0.57134 0.50754 0.0
H1567 H 0.18499 0.59464 0.5527 0.0
H1568 H 0.19893 0.6702 0.55398 0.0
H1569 H 0.17123 0.6651 0.50102 0.0
H1570 H 0.29808 0.56993 0.54837 0.0
H1571 H 0.24746 0.58298 0.57795 0.0
H1572 H 0.23337 0.64002 0.4426 0.0
H1573 H 0.23904 0.66947 0.49415 0.0
H1574 H 0.23007 0.67017 0.42634 0.0
H1575 H 0.23582 0.69908 0.47703 0.0
H1576 H 0.28516 0.61038 0.45964 0.0
H1577 H 0.261 0.56903 0.49521 0.0
H1578 H 0.29495 0.58542 0.43809 0.0
H1579 H 0.27107 0.54478 0.47296 0.0
H1580 H 0.32665 0.65807 0.49509 0.0
H1581 H 0.29982 0.66386 0.44174 0.0
H1582 H 0.19747 0.56382 0.45319 0.0
H1583 H 0.23708 0.59102 0.41733 0.0
Li1584 Li 0.38679 0.5151 0.75568 0.0
Li1585 Li 0.36172 0.49452 0.76569 0.0
Li1586 Li 0.38713 0.48331 0.74636 0.0
Li1587 Li 0.36351 0.50386 0.73366 0.0
C1588 C 0.39952 0.48042 0.77999 0.0
N1589 N 0.42192 0.45319 0.79488 0.0
C1590 C 0.3917 0.46579 0.78999 0.0
C1591 C 0.41872 0.48128 0.77764 0.0
C1592 C 0.40327 0.45215 0.79741 0.0
C1593 C 0.42981 0.46735 0.78525 0.0
C1594 C 0.34741 0.52853 0.76666 0.0
C1595 C 0.31608 0.53298 0.77741 0.0
N1596 N 0.32237 0.54499 0.79051 0.0
C1597 C 0.35356 0.54101 0.78014 0.0
C1598 C 0.32851 0.52457 0.76518 0.0
C1599 C 0.34068 0.54916 0.79209 0.0
C1600 C 0.3999 0.55195 0.75338 0.0
N1601 N 0.40097 0.53587 0.76314 0.0
C1602 C 0.42035 0.55008 0.78585 0.0
C1603 C 0.41097 0.53462 0.77905 0.0
C1604 C 0.41954 0.56683 0.77602 0.0
C1605 C 0.4094 0.56765 0.75946 0.0
H1606 H 0.39136 0.55269 0.7411 0.0
H1607 H 0.41124 0.52175 0.78672 0.0
C1608 C 0.3347 0.47345 0.78465 0.0
N1609 N 0.3462 0.48828 0.78595 0.0
C1610 C 0.32452 0.46764 0.80005 0.0
C1611 C 0.33789 0.4928 0.81767 0.0
C1612 C 0.34803 0.49791 0.80202 0.0
C1613 C 0.32614 0.47726 0.81695 0.0
H1614 H 0.33391 0.46573 0.77183 0.0
H1615 H 0.35767 0.50934 0.8028 0.0
C1616 C 0.40265 0.51743 0.72258 0.0
N1617 N 0.42659 0.54335 0.70768 0.0
C1618 C 0.39644 0.52974 0.70897 0.0
C1619 C 0.42107 0.51822 0.72852 0.0
C1620 C 0.40875 0.54276 0.70162 0.0
C1621 C 0.43294 0.53145 0.72086 0.0
C1622 C 0.3485 0.47028 0.73157 0.0
C1623 C 0.35531 0.45795 0.71827 0.0
C1624 C 0.32961 0.47452 0.73193 0.0
C1625 C 0.3431 0.45019 0.70541 0.0
C1626 C 0.31785 0.4665 0.71881 0.0
N1627 N 0.32478 0.4546 0.70593 0.0
C1628 C 0.3963 0.44544 0.74656 0.0
C1629 C 0.41729 0.46462 0.73007 0.0
C1630 C 0.40593 0.42961 0.74104 0.0
N1631 N 0.40198 0.46245 0.74079 0.0
C1632 C 0.42735 0.44919 0.72427 0.0
C1633 C 0.42147 0.43136 0.72943 0.0
H1634 H 0.3839 0.44417 0.7549 0.0
H1635 H 0.42138 0.47828 0.72557 0.0
C1636 C 0.33826 0.52487 0.71262 0.0
N1637 N 0.3499 0.5101 0.71208 0.0
C1638 C 0.32888 0.53045 0.69667 0.0
C1639 C 0.34339 0.50528 0.67998 0.0
C1640 C 0.35275 0.50041 0.69619 0.0
C1641 C 0.33136 0.52062 0.67999 0.0
H1642 H 0.33662 0.53261 0.72535 0.0
H1643 H 0.36249 0.48904 0.69604 0.0
O1644 O 0.38841 0.49367 0.77225 0.0
O1645 O 0.35981 0.52027 0.75494 0.0
O1646 O 0.39078 0.50465 0.73001 0.0
O1647 O 0.36025 0.47817 0.74417 0.0
H1648 H 0.37685 0.46487 0.79186 0.0
H1649 H 0.42497 0.49248 0.76988 0.0
H1650 H 0.39741 0.4407 0.80511 0.0
H1651 H 0.44468 0.46777 0.78346 0.0
H1652 H 0.30143 0.52995 0.77649 0.0
H1653 H 0.36812 0.54426 0.78148 0.0
H1654 H 0.32353 0.51502 0.75476 0.0
H1655 H 0.34525 0.55877 0.80265 0.0
H1656 H 0.42799 0.54904 0.79873 0.0
H1657 H 0.40824 0.58047 0.75173 0.0
H1658 H 0.31601 0.45535 0.79886 0.0
H1659 H 0.33947 0.50082 0.83026 0.0
H1660 H 0.38224 0.52935 0.70419 0.0
H1661 H 0.42608 0.50889 0.73914 0.0
H1662 H 0.40412 0.55241 0.69113 0.0
H1663 H 0.44719 0.53231 0.72543 0.0
H1664 H 0.3699 0.45458 0.71772 0.0
H1665 H 0.32411 0.484 0.74217 0.0
H1666 H 0.3482 0.4407 0.69497 0.0
H1667 H 0.30322 0.46974 0.71886 0.0
H1668 H 0.40076 0.41613 0.74515 0.0
H1669 H 0.43939 0.45118 0.71552 0.0
H1670 H 0.32018 0.54265 0.69734 0.0
H1671 H 0.34566 0.49712 0.66759 0.0
Li1672 Li 0.63013 0.00302 0.76203 0.0
Li1673 Li 0.60577 0.98168 0.75255 0.0
Li1674 Li 0.62887 0.99145 0.7291 0.0
Li1675 Li 0.60556 0.01207 0.74056 0.0
C1676 C 0.65062 0.97042 0.75313 0.0
N1677 N 0.68642 0.95686 0.75323 0.0
C1678 C 0.65399 0.95193 0.75776 0.0
C1679 C 0.66544 0.98201 0.74847 0.0
C1680 C 0.6722 0.94534 0.75777 0.0
C1681 C 0.68343 0.97489 0.74862 0.0
C1682 C 0.59202 -0.00022 0.78077 0.0
C1683 C 0.5614 0.99363 0.79265 0.0
N1684 N 0.56897 0.98783 0.80892 0.0
C1685 C 0.5995 0.99389 0.79764 0.0
C1686 C 0.57283 -0.00021 0.77827 0.0
C1687 C 0.58761 0.98786 0.81169 0.0
C1688 C 0.63951 0.02767 0.7898 0.0
N1689 N 0.6444 0.0109 0.78278 0.0
C1690 C 0.66602 0.00627 0.80748 0.0
C1691 C 0.65726 9e-05 0.79135 0.0
C1692 C 0.66117 0.02352 0.81505 0.0
C1693 C 0.64778 0.03432 0.80595 0.0
H1694 H 0.62875 0.03566 0.78311 0.0
H1695 H 0.66037 0.98644 0.78612 0.0
C1696 C 0.57578 0.95615 0.75289 0.0
N1697 N 0.59172 0.96138 0.76143 0.0
C1698 C 0.56523 0.94161 0.76005 0.0
C1699 C 0.58791 0.93794 0.78446 0.0
C1700 C 0.59804 0.95249 0.77678 0.0
C1701 C 0.57122 0.9324 0.77613 0.0
H1702 H 0.57119 0.96329 0.74058 0.0
H1703 H 0.6109 0.95684 0.78313 0.0
C1704 C 0.63319 0.03357 0.72917 0.0
N1705 N 0.63278 0.06726 0.71092 0.0
C1706 C 0.63265 0.03418 0.7098 0.0
C1707 C 0.6336 0.0501 0.73925 0.0
C1708 C 0.63246 0.05134 0.70083 0.0
C1709 C 0.63334 0.06699 0.72977 0.0
C1710 C 0.58864 0.99276 0.71347 0.0
C1711 C 0.59347 0.99383 0.69472 0.0
C1712 C 0.57029 0.99588 0.71883 0.0
C1713 C 0.57984 -0.0019 0.68165 0.0
C1714 C 0.55707 0.00015 0.70534 0.0
N1715 N 0.56208 0.00117 0.68718 0.0
C1716 C 0.63671 0.96757 0.70003 0.0
C1717 C 0.65798 0.99251 0.70226 0.0
C1718 C 0.64532 0.96122 0.68394 0.0
N1719 N 0.64289 0.98315 0.70856 0.0
C1720 C 0.66708 0.98661 0.6862 0.0
C1721 C 0.66052 0.97096 0.67665 0.0
H1722 H 0.62478 0.96033 0.70552 0.0
H1723 H 0.66269 0.00478 0.70946 0.0
C1724 C 0.58255 0.04263 0.7484 0.0
N1725 N 0.59025 0.03279 0.73427 0.0
C1726 C 0.57175 0.05825 0.74466 0.0
C1727 C 0.5769 0.05324 0.71193 0.0
C1728 C 0.58776 0.03791 0.71629 0.0
C1729 C 0.56879 0.06364 0.72621 0.0
H1730 H 0.58498 0.03846 0.76259 0.0
H1731 H 0.5944 0.03029 0.70529 0.0
O1732 O 0.63284 0.97694 0.75272 0.0
O1733 O 0.60344 0.00531 0.76668 0.0
O1734 O 0.63314 0.01689 0.7382 0.0
O1735 O 0.6018 0.98849 0.72645 0.0
H1736 H 0.64265 0.94277 0.7613 0.0
H1737 H 0.66309 0.99637 0.74487 0.0
H1738 H 0.67503 0.93106 0.76135 0.0
H1739 H 0.69503 0.9837 0.74507 0.0
H1740 H 0.54652 0.99345 0.79087 0.0
H1741 H 0.61433 0.99372 0.79979 0.0
H1742 H 0.56682 0.00441 0.76534 0.0
H1743 H 0.5932 0.98313 0.82478 0.0
H1744 H 0.67599 0.99737 0.8143 0.0
H1745 H 0.64366 0.04771 0.81133 0.0
H1746 H 0.55241 0.93781 0.75325 0.0
H1747 H 0.59318 0.93099 0.79668 0.0
H1748 H 0.63194 0.02155 0.70176 0.0
H1749 H 0.63403 0.04993 0.75421 0.0
H1750 H 0.6319 0.052 0.68586 0.0
H1751 H 0.63358 0.07989 0.73741 0.0
H1752 H 0.6076 0.9916 0.6903 0.0
H1753 H 0.56632 0.99528 0.73327 0.0
H1754 H 0.58339 -0.00094 0.6671 0.0
H1755 H 0.54285 0.00272 0.70931 0.0
H1756 H 0.64005 0.94888 0.67721 0.0
H1757 H 0.67873 0.99453 0.68102 0.0
H1758 H 0.56576 0.066 0.75605 0.0
H1759 H 0.57529 0.05722 0.69753 0.0
Li1760 Li 0.75179 0.61128 0.98103 0.0
Li1761 Li 0.76422 0.6353 0.00149 0.0
Li1762 Li 0.74079 0.61238 0.01238 0.0
Li1763 Li 0.73152 0.63759 0.99184 0.0
C1764 C 0.7795 0.59487 -6e-05 0.0
N1765 N 0.8056 0.56838 0.99081 0.0
C1766 C 0.79816 0.59977 0.99826 0.0
C1767 C 0.77414 0.57646 0.99718 0.0
C1768 C 0.81114 0.58618 0.9936 0.0
C1769 C 0.78753 0.56329 0.9925 0.0
C1770 C 0.76098 0.65185 0.96491 0.0
C1771 C 0.76187 0.6838 0.95506 0.0
N1772 N 0.7746 0.67932 0.9419 0.0
C1773 C 0.77386 0.64752 0.95109 0.0
C1774 C 0.75475 0.67011 0.96676 0.0
C1775 C 0.78067 0.66161 0.93968 0.0
C1776 C 0.74331 0.58668 0.95185 0.0
N1777 N 0.75732 0.59587 0.96046 0.0
C1778 C 0.77946 0.58323 0.93938 0.0
C1779 C 0.77511 0.59451 0.95443 0.0
C1780 C 0.76529 0.5736 0.9302 0.0
C1781 C 0.74699 0.57547 0.9365 0.0
H1782 H 0.72925 0.58819 0.95682 0.0
H1783 H 0.78593 0.60229 0.96124 0.0
C1784 C 0.78771 0.65284 0.02668 0.0
N1785 N 0.78558 0.64894 0.00838 0.0
C1786 C 0.8031 0.66277 0.03279 0.0
C1787 C 0.81411 0.66409 0.00115 0.0
C1788 C 0.79845 0.65417 0.99565 0.0
C1789 C 0.81655 0.66855 0.01995 0.0
H1790 H 0.77745 0.64815 0.03655 0.0
H1791 H 0.79673 0.65046 0.98127 0.0
C1792 C 0.7114 0.59959 0.99477 0.0
N1793 N 0.68289 0.57701 0.0067 0.0
C1794 C 0.69427 0.60726 -0.00046 0.0
C1795 C 0.71397 0.58042 0.99584 0.0
C1796 C 0.68004 0.59561 0.00559 0.0
C1797 C 0.6994 0.56925 0.00198 0.0
C1798 C 0.73881 0.65586 0.02618 0.0
C1799 C 0.72839 0.65631 0.04252 0.0
C1800 C 0.74632 0.67227 0.01918 0.0
C1801 C 0.7254 0.67326 0.05141 0.0
C1802 C 0.74305 0.68893 0.02847 0.0
N1803 N 0.73272 0.68909 0.04425 0.0
C1804 C 0.7428 0.58352 0.03898 0.0
C1805 C 0.7164 0.60297 0.04107 0.0
C1806 C 0.73653 0.57287 0.05388 0.0
N1807 N 0.73264 0.59815 0.03286 0.0
C1808 C 0.70957 0.59268 0.05593 0.0
C1809 C 0.71967 0.57738 0.06249 0.0
H1810 H 0.75575 0.58011 0.03231 0.0
H1811 H 0.70872 0.61479 0.036 0.0
C1812 C 0.70892 0.65531 0.96617 0.0
N1813 N 0.71207 0.65364 0.98466 0.0
C1814 C 0.69434 0.66622 0.95973 0.0
C1815 C 0.68656 0.67356 0.9915 0.0
C1816 C 0.70123 0.66241 0.99733 0.0
C1817 C 0.68285 0.67548 0.97247 0.0
H1818 H 0.71762 0.64791 0.95645 0.0
H1819 H 0.70371 0.6605 0.01195 0.0
O1820 O 0.76659 0.60802 0.00438 0.0
O1821 O 0.75404 0.63815 0.97607 0.0
O1822 O 0.72561 0.6108 0.98916 0.0
O1823 O 0.7418 0.63935 0.01732 0.0
H1824 H 0.80257 0.61392 0.00047 0.0
H1825 H 0.75977 0.57243 -0.00157 0.0
H1826 H 0.82562 0.58979 0.99217 0.0
H1827 H 0.78356 0.54903 0.99018 0.0
H1828 H 0.7572 0.69799 0.9564 0.0
H1829 H 0.77868 0.63347 0.94927 0.0
H1830 H 0.74437 0.67369 0.97693 0.0
H1831 H 0.79076 0.65847 0.92903 0.0
H1832 H 0.7937 0.5824 0.93468 0.0
H1833 H 0.73571 0.56827 0.9297 0.0
H1834 H 0.80463 0.66556 0.04747 0.0
H1835 H 0.82414 0.66829 0.99079 0.0
H1836 H 0.69205 0.62206 -0.00124 0.0
H1837 H 0.72711 0.57427 0.99208 0.0
H1838 H 0.66674 0.60137 0.00944 0.0
H1839 H 0.70123 0.55441 0.00301 0.0
H1840 H 0.72262 0.64373 0.04826 0.0
H1841 H 0.75482 0.67213 0.00687 0.0
H1842 H 0.71728 0.67382 0.06401 0.0
H1843 H 0.74879 0.70173 0.02318 0.0
H1844 H 0.74468 0.56113 0.05845 0.0
H1845 H 0.69666 0.59682 0.06238 0.0
H1846 H 0.6918 0.66695 0.94495 0.0
H1847 H 0.67816 0.68052 0.00182 0.0
Li1848 Li 0.8814 0.51529 0.74637 0.0
Li1849 Li 0.85639 0.50385 0.76637 0.0
Li1850 Li 0.88346 0.48326 0.7582 0.0
Li1851 Li 0.85954 0.49104 0.73584 0.0
C1852 C 0.89517 0.51538 0.78427 0.0
N1853 N 0.91946 0.53246 0.80848 0.0
C1854 C 0.88903 0.52971 0.79577 0.0
C1855 C 0.91361 0.50953 0.78534 0.0
C1856 C 0.90154 0.53824 0.80784 0.0
C1857 C 0.92569 0.51839 0.79759 0.0
C1858 C 0.84107 0.53041 0.74467 0.0
C1859 C 0.80919 0.53923 0.74953 0.0
N1860 N 0.81436 0.55734 0.74996 0.0
C1861 C 0.84605 0.54912 0.74505 0.0
C1862 C 0.82247 0.52541 0.74681 0.0
C1863 C 0.83235 0.56253 0.74777 0.0
C1864 C 0.89688 0.53789 0.71956 0.0
N1865 N 0.89467 0.53649 0.73821 0.0
C1866 C 0.90922 0.56587 0.74276 0.0
C1867 C 0.90067 0.55004 0.74986 0.0
C1868 C 0.91146 0.56781 0.7235 0.0
C1869 C 0.90532 0.55346 0.71187 0.0
H1870 H 0.89181 0.52696 0.71064 0.0
H1871 H 0.89839 0.54885 0.76457 0.0
C1872 C 0.83192 0.4961 0.79567 0.0
N1873 N 0.83986 0.51012 0.7859 0.0
C1874 C 0.82045 0.50001 0.81078 0.0
C1875 C 0.82527 0.5327 0.8052 0.0
C1876 C 0.83682 0.52816 0.7904 0.0
C1877 C 0.81708 0.51852 0.8157 0.0
H1878 H 0.83476 0.48187 0.79193 0.0
H1879 H 0.84367 0.53905 0.78276 0.0
C1880 C 0.90447 0.48935 0.7259 0.0
N1881 N 0.94011 0.48403 0.71291 0.0
C1882 C 0.90765 0.478 0.71052 0.0
C1883 C 0.91939 0.49816 0.73452 0.0
C1884 C 0.92578 0.47543 0.70421 0.0
C1885 C 0.9373 0.49526 0.72779 0.0
C1886 C 0.84523 0.46321 0.75394 0.0
C1887 C 0.85268 0.44598 0.74918 0.0
C1888 C 0.82613 0.4661 0.75263 0.0
C1889 C 0.84088 0.43197 0.74292 0.0
C1890 C 0.8148 0.45175 0.74629 0.0
N1891 N 0.82235 0.43513 0.74159 0.0
C1892 C 0.90087 0.46279 0.78602 0.0
C1893 C 0.90656 0.45149 0.75568 0.0
C1894 C 0.91073 0.44805 0.79372 0.0
N1895 N 0.89894 0.46418 0.76734 0.0
C1896 C 0.91652 0.43651 0.76278 0.0
C1897 C 0.91848 0.43451 0.78206 0.0
H1898 H 0.8944 0.47295 0.79495 0.0
H1899 H 0.90433 0.45261 0.74091 0.0
C1900 C 0.83194 0.49082 0.70788 0.0
N1901 N 0.84686 0.48171 0.71486 0.0
C1902 C 0.82312 0.48427 0.69196 0.0
C1903 C 0.84523 0.4591 0.69077 0.0
C1904 C 0.85357 0.46611 0.70673 0.0
C1905 C 0.82988 0.46831 0.68311 0.0
H1906 H 0.82708 0.50334 0.71445 0.0
H1907 H 0.86548 0.45919 0.71261 0.0
O1908 O 0.88302 0.50672 0.77253 0.0
O1909 O 0.85431 0.51709 0.74205 0.0
O1910 O 0.88678 0.49193 0.73226 0.0
O1911 O 0.8566 0.47722 0.7597 0.0
H1912 H 0.87482 0.53436 0.79527 0.0
H1913 H 0.91856 0.49815 0.77695 0.0
H1914 H 0.89699 0.54944 0.81671 0.0
H1915 H 0.94 0.51403 0.79851 0.0
H1916 H 0.79477 0.53554 0.75133 0.0
H1917 H 0.86034 0.55327 0.74331 0.0
H1918 H 0.81836 0.51101 0.74658 0.0
H1919 H 0.83602 0.57706 0.74816 0.0
H1920 H 0.9135 0.57673 0.75219 0.0
H1921 H 0.90696 0.55429 0.69696 0.0
H1922 H 0.8144 0.48871 0.8186 0.0
H1923 H 0.8233 0.54714 0.8088 0.0
H1924 H 0.89626 0.47119 0.70356 0.0
H1925 H 0.91715 0.5073 0.74614 0.0
H1926 H 0.92845 0.46661 0.69238 0.0
H1927 H 0.94897 0.502 0.73436 0.0
H1928 H 0.86743 0.44351 0.75013 0.0
H1929 H 0.82014 0.47931 0.75639 0.0
H1930 H 0.84647 0.4186 0.73907 0.0
H1931 H 0.8 0.45382 0.7451 0.0
H1932 H 0.91204 0.44715 0.80865 0.0
H1933 H 0.92196 0.42621 0.75331 0.0
H1934 H 0.81147 0.4919 0.68636 0.0
H1935 H 0.85073 0.44663 0.6845 0.0
Li1936 Li 0.76468 0.36164 0.49386 0.0
Li1937 Li 0.75343 0.38588 0.51461 0.0
Li1938 Li 0.73309 0.36115 0.50415 0.0
Li1939 Li 0.74332 0.38547 0.4831 0.0
C1940 C 0.76819 0.34748 0.52734 0.0
N1941 N 0.79503 0.32443 0.54199 0.0
C1942 C 0.7812 0.35443 0.53989 0.0
C1943 C 0.76879 0.32878 0.5223 0.0
C1944 C 0.79466 0.34255 0.54714 0.0
C1945 C 0.78249 0.31736 0.52982 0.0
C1946 C 0.77619 0.40022 0.47941 0.0
C1947 C 0.77841 0.43049 0.4654 0.0
N1948 N 0.78948 0.42334 0.45191 0.0
C1949 C 0.78765 0.39319 0.46546 0.0
C1950 C 0.77159 0.41905 0.47945 0.0
C1951 C 0.79422 0.4051 0.45167 0.0
C1952 C 0.78452 0.33626 0.47186 0.0
N1953 N 0.78572 0.34769 0.48678 0.0
C1954 C 0.81808 0.34157 0.4898 0.0
C1955 C 0.80204 0.35057 0.49573 0.0
C1956 C 0.81733 0.33001 0.4742 0.0
C1957 C 0.8003 0.32727 0.46523 0.0
H1958 H 0.77143 0.33458 0.46477 0.0
H1959 H 0.80268 0.36023 0.50716 0.0
C1960 C 0.75295 0.39607 0.55215 0.0
N1961 N 0.76007 0.40055 0.5353 0.0
C1962 C 0.75884 0.40542 0.56801 0.0
C1963 C 0.77912 0.42395 0.54879 0.0
C1964 C 0.77279 0.41428 0.5333 0.0
C1965 C 0.77234 0.41935 0.56646 0.0
H1966 H 0.74315 0.38479 0.55333 0.0
H1967 H 0.77841 0.41736 0.51976 0.0
C1968 C 0.7297 0.34669 0.47129 0.0
N1969 N 0.70265 0.32303 0.45812 0.0
C1970 C 0.71462 0.35372 0.46137 0.0
C1971 C 0.73108 0.32763 0.47443 0.0
C1972 C 0.70108 0.34152 0.45483 0.0
C1973 C 0.71724 0.3159 0.4677 0.0
C1974 C 0.72022 0.39965 0.5181 0.0
C1975 C 0.70936 0.3925 0.53247 0.0
C1976 C 0.72403 0.41864 0.5175 0.0
C1977 C 0.70255 0.40449 0.54608 0.0
C1978 C 0.717 0.43016 0.53138 0.0
N1979 N 0.70649 0.42291 0.54527 0.0
C1980 C 0.71548 0.33161 0.52279 0.0
C1981 C 0.69552 0.35075 0.50504 0.0
C1982 C 0.70044 0.32131 0.5292 0.0
N1983 N 0.71274 0.34608 0.51107 0.0
C1984 C 0.68007 0.34083 0.51111 0.0
C1985 C 0.68242 0.32607 0.52361 0.0
H1986 H 0.72928 0.32834 0.52753 0.0
H1987 H 0.69377 0.36254 0.49594 0.0
C1988 C 0.74423 0.39356 0.4455 0.0
N1989 N 0.73684 0.39934 0.46182 0.0
C1990 C 0.73964 0.4025 0.42902 0.0
C1991 C 0.71986 0.42321 0.44646 0.0
C1992 C 0.7249 0.41387 0.46265 0.0
C1993 C 0.72713 0.41741 0.42932 0.0
H1994 H 0.75357 0.38184 0.4453 0.0
H1995 H 0.71904 0.41798 0.47582 0.0
O1996 O 0.75499 0.35892 0.51996 0.0
O1997 O 0.7693 0.38872 0.49282 0.0
O1998 O 0.74288 0.35843 0.47816 0.0
O1999 O 0.72728 0.38811 0.50482 0.0
H2000 H 0.78105 0.36887 0.54388 0.0
H2001 H 0.75895 0.3232 0.51246 0.0
H2002 H 0.80486 0.34776 0.55682 0.0
H2003 H 0.78319 0.3029 0.52595 0.0
H2004 H 0.77485 0.44505 0.46518 0.0
H2005 H 0.79131 0.37866 0.46515 0.0
H2006 H 0.76264 0.4247 0.49007 0.0
H2007 H 0.80303 0.39982 0.44074 0.0
H2008 H 0.83107 0.34423 0.49683 0.0
H2009 H 0.79928 0.31848 0.4531 0.0
H2010 H 0.75348 0.40123 0.5814 0.0
H2011 H 0.78944 0.4347 0.54699 0.0
H2012 H 0.71326 0.36844 0.45893 0.0
H2013 H 0.74263 0.32198 0.48215 0.0
H2014 H 0.68929 0.34677 0.44721 0.0
H2015 H 0.71807 0.30112 0.47011 0.0
H2016 H 0.70639 0.37784 0.53326 0.0
H2017 H 0.73253 0.42437 0.50656 0.0
H2018 H 0.69419 0.39914 0.55733 0.0
H2019 H 0.71993 0.44485 0.53115 0.0
H2020 H 0.70289 0.30992 0.53867 0.0
H2021 H 0.66641 0.34515 0.50667 0.0
H2022 H 0.74575 0.39771 0.41616 0.0
H2023 H 0.70996 0.43446 0.44728 0.0
Li2024 Li 0.63742 0.50002 0.23051 0.0
Li2025 Li 0.61495 0.51183 0.25273 0.0
Li2026 Li 0.63917 0.49035 0.26215 0.0
Li2027 Li 0.61331 0.48011 0.24319 0.0
C2028 C 0.65442 0.52285 0.26456 0.0
N2029 N 0.67917 0.53575 0.29077 0.0
C2030 C 0.64819 0.53382 0.27927 0.0
C2031 C 0.67324 0.5185 0.26313 0.0
C2032 C 0.66093 0.54021 0.29238 0.0
C2033 C 0.68553 0.52512 0.27655 0.0
C2034 C 0.59868 0.51529 0.22054 0.0
C2035 C 0.56878 0.5302 0.21972 0.0
N2036 N 0.57564 0.54309 0.20779 0.0
C2037 C 0.60543 0.52867 0.20825 0.0
C2038 C 0.58019 0.51601 0.22628 0.0
C2039 C 0.59355 0.54261 0.20196 0.0
C2040 C 0.64444 0.49862 0.19237 0.0
N2041 N 0.65056 0.50596 0.20859 0.0
C2042 C 0.67373 0.52343 0.19272 0.0
C2043 C 0.66495 0.51807 0.20911 0.0
C2044 C 0.66751 0.51633 0.17568 0.0
C2045 C 0.65282 0.50356 0.17567 0.0
H2046 H 0.63277 0.48922 0.1924 0.0
H2047 H 0.66929 0.52394 0.22219 0.0
C2048 C 0.58836 0.53285 0.2729 0.0
N2049 N 0.60175 0.53343 0.25967 0.0
C2050 C 0.57927 0.54907 0.27823 0.0
C2051 C 0.5979 0.56609 0.25615 0.0
C2052 C 0.60668 0.54958 0.25134 0.0
C2053 C 0.58408 0.56602 0.26988 0.0
H2054 H 0.58497 0.51985 0.27952 0.0
H2055 H 0.61756 0.54961 0.24102 0.0
C2056 C 0.65051 0.46669 0.22649 0.0
N2057 N 0.67152 0.45238 0.19782 0.0
C2058 C 0.64227 0.45545 0.21303 0.0
C2059 C 0.66945 0.47061 0.22539 0.0
C2060 C 0.65313 0.44834 0.19865 0.0
C2061 C 0.67982 0.46327 0.21077 0.0
C2062 C 0.60116 0.47728 0.27684 0.0
C2063 C 0.60871 0.46247 0.28679 0.0
C2064 C 0.58198 0.47842 0.27441 0.0
C2065 C 0.5969 0.44899 0.29412 0.0
C2066 C 0.57065 0.46464 0.28193 0.0
N2067 N 0.57828 0.45033 0.29155 0.0
C2068 C 0.65047 0.49021 0.29927 0.0
C2069 C 0.66891 0.47148 0.27953 0.0
C2070 C 0.66061 0.48454 0.31472 0.0
N2071 N 0.6547 0.48353 0.28217 0.0
C2072 C 0.67944 0.46545 0.29459 0.0
C2073 C 0.67515 0.47178 0.31252 0.0
H2074 H 0.63889 0.49957 0.30094 0.0
H2075 H 0.6718 0.46621 0.26582 0.0
C2076 C 0.58239 0.46179 0.22735 0.0
N2077 N 0.59788 0.45955 0.23779 0.0
C2078 C 0.57202 0.44641 0.22194 0.0
C2079 C 0.59359 0.42675 0.23841 0.0
C2080 C 0.60349 0.44253 0.24357 0.0
C2081 C 0.57781 0.42854 0.22715 0.0
H2082 H 0.57837 0.47546 0.2228 0.0
H2083 H 0.61603 0.44118 0.25166 0.0
O2084 O 0.64212 0.51613 0.2518 0.0
O2085 O 0.61017 0.5017 0.22711 0.0
O2086 O 0.64005 0.47405 0.24051 0.0
O2087 O 0.61251 0.4904 0.26919 0.0
H2088 H 0.63367 0.53721 0.28068 0.0
H2089 H 0.67827 0.50988 0.25194 0.0
H2090 H 0.65629 0.54865 0.30388 0.0
H2091 H 0.70011 0.52176 0.27568 0.0
H2092 H 0.55448 0.53101 0.22416 0.0
H2093 H 0.61972 0.52845 0.20376 0.0
H2094 H 0.57479 0.50593 0.23597 0.0
H2095 H 0.59861 0.5531 0.19251 0.0
H2096 H 0.68479 0.53355 0.19335 0.0
H2097 H 0.64769 0.49762 0.16287 0.0
H2098 H 0.56894 0.54841 0.28911 0.0
H2099 H 0.60192 0.57877 0.24919 0.0
H2100 H 0.62761 0.45243 0.21351 0.0
H2101 H 0.67601 0.47949 0.23552 0.0
H2102 H 0.64692 0.43969 0.1881 0.0
H2103 H 0.69446 0.4663 0.20968 0.0
H2104 H 0.62353 0.46125 0.28865 0.0
H2105 H 0.57593 0.48968 0.26659 0.0
H2106 H 0.60255 0.43741 0.30178 0.0
H2107 H 0.55579 0.46529 0.28007 0.0
H2108 H 0.65662 0.48954 0.3283 0.0
H2109 H 0.69064 0.45575 0.29224 0.0
H2110 H 0.55982 0.44847 0.21347 0.0
H2111 H 0.59874 0.41326 0.24252 0.0
H2112 H 0.06693 0.3979 0.248 0.0
H2113 H 0.00441 0.35023 0.32623 0.0
H2114 H 0.04575 0.42668 0.29597 0.0
H2115 H 0.03617 0.31944 0.28597 0.0
H2116 H 0.01447 0.37907 0.31162 0.0
H2117 H 0.05078 0.36983 0.25817 0.0
C2118 C 0.05864 0.39838 0.26052 0.0
C2119 C 0.05778 0.41456 0.27126 0.0
C2120 C 0.01911 0.366 0.30587 0.0
C2121 C 0.03943 0.38256 0.28301 0.0
C2122 C 0.01325 0.34953 0.31412 0.0
C2123 C 0.01956 0.33242 0.30736 0.0
C2124 C 0.03131 0.36536 0.29072 0.0
C2125 C 0.0312 0.33235 0.29176 0.0
C2126 C 0.04954 0.38234 0.26637 0.0
C2127 C 0.04698 0.41439 0.28744 0.0
N2128 N 0.03678 0.34858 0.28402 0.0
N2129 N 0.0383 0.39861 0.29288 0.0
H2130 H 0.9213 0.77549 0.54421 0.0
H2131 H 0.83064 0.83764 0.55914 0.0
H2132 H 0.90783 0.80412 0.59503 0.0
H2133 H 0.84038 0.80582 0.50939 0.0
H2134 H 0.85963 0.82613 0.57186 0.0
H2135 H 0.89242 0.78703 0.53056 0.0
C2136 C 0.91228 0.78417 0.5525 0.0
C2137 C 0.91707 0.78892 0.57077 0.0
C2138 C 0.85546 0.8216 0.55817 0.0
C2139 C 0.88413 0.80223 0.55522 0.0
C2140 C 0.83881 0.82807 0.55094 0.0
C2141 C 0.83295 0.82252 0.53324 0.0
C2142 C 0.86647 0.80948 0.54765 0.0
C2143 C 0.8444 0.81051 0.52306 0.0
C2144 C 0.89585 0.7908 0.54468 0.0
C2145 C 0.90494 0.80036 0.58079 0.0
N2146 N 0.86062 0.80434 0.53044 0.0
N2147 N 0.88907 0.80659 0.5729 0.0
H2148 H 0.44389 0.59037 0.75898 0.0
H2149 H 0.43835 0.66698 0.83751 0.0
H2150 H 0.41441 0.58162 0.81026 0.0
H2151 H 0.4874 0.66098 0.80388 0.0
H2152 H 0.42604 0.63834 0.8241 0.0
H2153 H 0.45712 0.61901 0.77193 0.0
C2154 C 0.44027 0.59451 0.77296 0.0
C2155 C 0.42817 0.5837 0.78366 0.0
C2156 C 0.43948 0.64331 0.81966 0.0
C2157 C 0.44282 0.6163 0.79829 0.0
C2158 C 0.44643 0.65966 0.82718 0.0
C2159 C 0.46385 0.66625 0.82171 0.0
C2160 C 0.4499 0.6337 0.80634 0.0
C2161 C 0.47391 0.65623 0.80844 0.0
C2162 C 0.44783 0.61073 0.78032 0.0
C2163 C 0.42384 0.58954 0.80168 0.0
N2164 N 0.46672 0.64045 0.80106 0.0
N2165 N 0.43103 0.60557 0.80838 0.0
H2166 H 0.5763 0.22112 0.04568 0.0
H2167 H 0.66737 0.16032 0.06267 0.0
H2168 H 0.59216 0.1985 0.09879 0.0
H2169 H 0.65636 0.18873 0.01113 0.0
H2170 H 0.63935 0.17377 0.07575 0.0
H2171 H 0.60506 0.20897 0.03236 0.0
C2172 C 0.58585 0.21368 0.05456 0.0
C2173 C 0.58173 0.21073 0.07336 0.0
C2174 C 0.64307 0.17714 0.06159 0.0
C2175 C 0.61454 0.19667 0.05818 0.0
C2176 C 0.65917 0.16956 0.05414 0.0
C2177 C 0.66434 0.17349 0.03579 0.0
C2178 C 0.6319 0.18869 0.05063 0.0
C2179 C 0.65284 0.18518 0.02528 0.0
C2180 C 0.60221 0.20669 0.04692 0.0
C2181 C 0.59453 0.20081 0.08415 0.0
N2182 N 0.63714 0.19236 0.03285 0.0
N2183 N 0.6103 0.19413 0.0764 0.0
H2184 H 0.09984 0.58857 0.19078 0.0
H2185 H 0.01899 0.66273 0.19201 0.0
H2186 H 0.04851 0.57819 0.21991 0.0
H2187 H 0.05594 0.6559 0.14531 0.0
H2188 H 0.03166 0.63436 0.2056 0.0
H2189 H 0.08615 0.61626 0.17727 0.0
C2190 C 0.08564 0.59195 0.19425 0.0
C2191 C 0.07528 0.58077 0.20639 0.0
C2192 C 0.03691 0.63915 0.19237 0.0
C2193 C 0.05976 0.61294 0.19132 0.0
C2194 C 0.02965 0.65528 0.18452 0.0
C2195 C 0.03643 0.66188 0.16747 0.0
C2196 C 0.05126 0.62972 0.18326 0.0
C2197 C 0.05053 0.65171 0.15866 0.0
C2198 C 0.07789 0.60787 0.18659 0.0
C2199 C 0.05713 0.5864 0.2108 0.0
N2200 N 0.05755 0.63624 0.16672 0.0
N2201 N 0.04996 0.60213 0.2033 0.0
H2202 H 0.56724 0.80779 0.43641 0.0
H2203 H 0.66871 0.78819 0.47652 0.0
H2204 H 0.59239 0.75355 0.43641 0.0
H2205 H 0.6446 0.8426 0.47012 0.0
H2206 H 0.63973 0.77452 0.46536 0.0
H2207 H 0.59414 0.81997 0.45279 0.0
C2208 C 0.57843 0.79843 0.43995 0.0
C2209 C 0.57773 0.7797 0.43483 0.0
C2210 C 0.64078 0.78944 0.46656 0.0
C2211 C 0.60863 0.79353 0.45358 0.0
C2212 C 0.65735 0.79726 0.47283 0.0
C2213 C 0.65916 0.8166 0.47424 0.0
C2214 C 0.62594 0.80103 0.46166 0.0
C2215 C 0.64383 0.82763 0.46954 0.0
C2216 C 0.59378 0.80537 0.44933 0.0
C2217 C 0.59241 0.76809 0.44011 0.0
N2218 N 0.62795 0.8197 0.4634 0.0
N2219 N 0.60739 0.77524 0.44904 0.0
H2220 H 0.46768 0.35082 0.65414 0.0
H2221 H 0.42952 0.39842 0.74686 0.0
H2222 H 0.46253 0.32178 0.70622 0.0
H2223 H 0.43395 0.42623 0.69403 0.0
H2224 H 0.44283 0.37055 0.73282 0.0
H2225 H 0.45648 0.37896 0.66909 0.0
C2226 C 0.46409 0.35035 0.66872 0.0
C2227 C 0.46591 0.33389 0.67892 0.0
C2228 C 0.44098 0.3828 0.72435 0.0
C2229 C 0.45325 0.36616 0.69622 0.0
C2230 C 0.43333 0.39868 0.73234 0.0
C2231 C 0.43062 0.4147 0.72162 0.0
C2232 C 0.44589 0.38293 0.7055 0.0
C2233 C 0.43602 0.41432 0.70292 0.0
C2234 C 0.45781 0.36646 0.67729 0.0
C2235 C 0.46145 0.3342 0.69787 0.0
N2236 N 0.44331 0.39869 0.69546 0.0
N2237 N 0.45524 0.35007 0.70591 0.0
H2238 H 0.91938 0.2183 0.94864 0.0
H2239 H 0.82823 0.15763 0.93145 0.0
H2240 H 0.90461 0.19415 0.89591 0.0
H2241 H 0.83917 0.18628 0.98285 0.0
H2242 H 0.85654 0.17062 0.9185 0.0
H2243 H 0.89045 0.20641 0.96177 0.0
C2244 C 0.91004 0.21057 0.9398 0.0
C2245 C 0.9145 0.20715 0.92115 0.0
C2246 C 0.85274 0.17414 0.9326 0.0
C2247 C 0.88147 0.19338 0.93612 0.0
C2248 C 0.83648 0.16682 0.93997 0.0
C2249 C 0.83122 0.17094 0.95825 0.0
C2250 C 0.86396 0.18564 0.94357 0.0
C2251 C 0.84276 0.18258 0.96876 0.0
C2252 C 0.89357 0.20373 0.94732 0.0
C2253 C 0.90195 0.19685 0.91043 0.0
N2254 N 0.8586 0.18952 0.96127 0.0
N2255 N 0.88605 0.19034 0.91807 0.0
H2256 H 0.28795 0.10276 0.39941 0.0
H2257 H 0.31124 0.00777 0.34749 0.0
H2258 H 0.2729 0.04923 0.42141 0.0
H2259 H 0.31732 0.06178 0.32252 0.0
H2260 H 0.29762 0.0224 0.37496 0.0
H2261 H 0.29932 0.08773 0.37133 0.0
C2262 C 0.28709 0.08781 0.39832 0.0
C2263 C 0.27959 0.0772 0.41278 0.0
C2264 C 0.30183 0.03102 0.3634 0.0
C2265 C 0.2925 0.05987 0.38064 0.0
C2266 C 0.30968 0.02269 0.34779 0.0
C2267 C 0.31542 0.03359 0.33272 0.0
C2268 C 0.29989 0.05038 0.364 0.0
C2269 C 0.3129 0.05284 0.33373 0.0
C2270 C 0.29347 0.07924 0.38225 0.0
C2271 C 0.27851 0.05791 0.41053 0.0
N2272 N 0.30542 0.06062 0.34914 0.0
N2273 N 0.28502 0.04983 0.39479 0.0
H2274 H 0.15391 0.02149 0.64268 0.0
H2275 H 0.24183 0.06578 0.59248 0.0
H2276 H 0.20838 0.02319 0.66737 0.0
H2277 H 0.18855 0.05879 0.56621 0.0
H2278 H 0.23053 0.04836 0.61924 0.0
H2279 H 0.16695 0.03325 0.61385 0.0
C2280 C 0.16867 0.02407 0.64199 0.0
C2281 C 0.18004 0.0214 0.65755 0.0
C2282 C 0.22136 0.05051 0.60756 0.0
C2283 C 0.19503 0.03529 0.62458 0.0
C2284 C 0.22784 0.06037 0.59222 0.0
C2285 C 0.21606 0.06391 0.57714 0.0
C2286 C 0.20295 0.0442 0.60785 0.0
C2287 C 0.19799 0.05673 0.57769 0.0
C2288 C 0.1761 0.03092 0.62552 0.0
C2289 C 0.19903 0.02534 0.65585 0.0
N2290 N 0.19196 0.04734 0.59284 0.0
N2291 N 0.2059 0.03221 0.6397 0.0
H2292 H 0.19533 0.99342 0.84244 0.0
H2293 H 0.2313 0.90178 0.89334 0.0
H2294 H 0.19387 0.9387 0.81828 0.0
H2295 H 0.23025 0.9556 0.91946 0.0
H2296 H 0.22072 0.91586 0.86456 0.0
H2297 H 0.2108 0.98053 0.86972 0.0
C2298 C 0.1983 0.97872 0.84284 0.0
C2299 C 0.1932 0.96712 0.82806 0.0
C2300 C 0.22291 0.92464 0.87653 0.0
C2301 C 0.21101 0.95232 0.85917 0.0
C2302 C 0.22911 0.91662 0.89297 0.0
C2303 C 0.23163 0.92751 0.90889 0.0
C2304 C 0.21912 0.94372 0.87597 0.0
C2305 C 0.22823 0.94663 0.9076 0.0
C2306 C 0.20721 0.97139 0.85838 0.0
C2307 C 0.1977 0.94822 0.82921 0.0
N2308 N 0.22205 0.95412 0.89145 0.0
N2309 N 0.20624 0.94142 0.84452 0.0
H2310 H 0.27354 0.95607 0.07509 0.0
H2311 H 0.30419 0.93664 0.17984 0.0
H2312 H 0.26937 0.90278 0.10199 0.0
H2313 H 0.30933 0.99004 0.15332 0.0
H2314 H 0.28865 0.92484 0.15227 0.0
H2315 H 0.28433 0.96951 0.1043 0.0
C2316 C 0.27483 0.94722 0.08715 0.0
C2317 C 0.27061 0.92826 0.08607 0.0
C2318 C 0.29306 0.93918 0.1525 0.0
C2319 C 0.28285 0.94353 0.11952 0.0
C2320 C 0.30183 0.94597 0.16831 0.0
C2321 C 0.30818 0.96434 0.16886 0.0
C2322 C 0.29065 0.9508 0.13707 0.0
C2323 C 0.30496 0.97569 0.15337 0.0
C2324 C 0.28091 0.9549 0.10383 0.0
C2325 C 0.27227 0.9175 0.1022 0.0
N2326 N 0.29651 0.96871 0.13806 0.0
N2327 N 0.27836 0.92526 0.11821 0.0
H2328 H 0.33758 0.30038 0.00694 0.0
H2329 H 0.40503 0.29994 0.09469 0.0
H2330 H 0.33257 0.33758 0.05359 0.0
H2331 H 0.41896 0.27221 0.04347 0.0
H2332 H 0.37704 0.31185 0.0803 0.0
H2333 H 0.36626 0.28811 0.02041 0.0
C2334 C 0.3425 0.30601 0.01996 0.0
C2335 C 0.3325 0.31992 0.02923 0.0
C2336 C 0.38623 0.30321 0.07214 0.0
C2337 C 0.36512 0.3058 0.04475 0.0
C2338 C 0.40232 0.29648 0.08033 0.0
C2339 C 0.41455 0.28522 0.07022 0.0
C2340 C 0.38213 0.29859 0.0537 0.0
C2341 C 0.4099 0.28076 0.05183 0.0
C2342 C 0.35883 0.29895 0.02765 0.0
C2343 C 0.3395 0.32656 0.04613 0.0
N2344 N 0.39404 0.28748 0.04413 0.0
N2345 N 0.3553 0.31941 0.05334 0.0
H2346 H 0.99518 0.84083 0.18449 0.0
H2347 H 0.91026 0.88979 0.23608 0.0
H2348 H 0.94289 0.81407 0.19571 0.0
H2349 H 0.96021 0.91848 0.21993 0.0
H2350 H 0.92399 0.86072 0.22571 0.0
H2351 H 0.98453 0.86804 0.20166 0.0
C2352 C 0.98156 0.84057 0.19081 0.0
C2353 C 0.96982 0.82524 0.18853 0.0
C2354 C 0.93203 0.87334 0.22457 0.0
C2355 C 0.95748 0.85638 0.20799 0.0
C2356 C 0.92425 0.88995 0.23063 0.0
C2357 C 0.93405 0.90664 0.22875 0.0
C2358 C 0.94974 0.87338 0.21653 0.0
C2359 C 0.95204 0.90598 0.22134 0.0
C2360 C 0.97545 0.85615 0.2005 0.0
C2361 C 0.95225 0.82573 0.19686 0.0
N2362 N 0.95926 0.88965 0.21538 0.0
N2363 N 0.94658 0.8411 0.20612 0.0
H2364 H 0.16799 0.66298 0.56293 0.0
H2365 H 0.0787 0.72667 0.54714 0.0
H2366 H 0.15883 0.69413 0.51264 0.0
H2367 H 0.09244 0.70014 0.59901 0.0
H2368 H 0.10761 0.7148 0.53386 0.0
H2369 H 0.13998 0.67635 0.57601 0.0
C2370 C 0.16021 0.67281 0.55469 0.0
C2371 C 0.1659 0.67753 0.53668 0.0
C2372 C 0.10427 0.7116 0.54815 0.0
C2373 C 0.13343 0.69267 0.55152 0.0
C2374 C 0.08781 0.71842 0.55576 0.0
C2375 C 0.08305 0.71428 0.57418 0.0
C2376 C 0.11602 0.70057 0.55905 0.0
C2377 C 0.09531 0.70338 0.58464 0.0
C2378 C 0.1441 0.68036 0.56214 0.0
C2379 C 0.15491 0.68998 0.52652 0.0
N2380 N 0.11118 0.6969 0.57692 0.0
N2381 N 0.13917 0.69712 0.53407 0.0
H2382 H 0.97894 0.66438 0.69962 0.0
H2383 H 0.89975 0.58699 0.69298 0.0
H2384 H 0.93615 0.6638 0.65783 0.0
H2385 H 0.94139 0.58774 0.73592 0.0
H2386 H 0.91313 0.61512 0.67991 0.0
H2387 H 0.96558 0.63632 0.71319 0.0
C2388 C 0.96676 0.65833 0.69328 0.0
C2389 C 0.95864 0.66646 0.67758 0.0
C2390 C 0.91937 0.60916 0.69219 0.0
C2391 C 0.94323 0.63444 0.69307 0.0
C2392 C 0.91181 0.59301 0.69959 0.0
C2393 C 0.91953 0.58493 0.71551 0.0
C2394 C 0.93481 0.61734 0.70074 0.0
C2395 C 0.93491 0.59358 0.72371 0.0
C2396 C 0.95909 0.64237 0.70108 0.0
C2397 C 0.94273 0.65817 0.67008 0.0
N2398 N 0.94208 0.6093 0.7162 0.0
N2399 N 0.93558 0.6426 0.67787 0.0
H2400 H 0.14638 0.17817 0.48849 0.0
H2401 H 0.10424 0.23193 0.40167 0.0
H2402 H 0.17971 0.20005 0.44383 0.0
H2403 H 0.07242 0.21827 0.45052 0.0
H2404 H 0.13216 0.2211 0.41727 0.0
H2405 H 0.11929 0.1935 0.47529 0.0
C2406 C 0.14808 0.18639 0.47605 0.0
C2407 C 0.16537 0.18772 0.46721 0.0
C2408 C 0.11909 0.22059 0.42463 0.0
C2409 C 0.13428 0.20504 0.45182 0.0
C2410 C 0.10313 0.22688 0.41576 0.0
C2411 C 0.08588 0.22595 0.42475 0.0
C2412 C 0.11784 0.21316 0.44258 0.0
C2413 C 0.08533 0.21895 0.44292 0.0
C2414 C 0.13256 0.19506 0.46845 0.0
C2415 C 0.16661 0.19834 0.45093 0.0
N2416 N 0.10105 0.21272 0.45118 0.0
N2417 N 0.15126 0.20648 0.44371 0.0
H2418 H 0.5638 0.42338 0.19231 0.0
H2419 H 0.53853 0.31654 0.20755 0.0
H2420 H 0.57051 0.39551 0.24488 0.0
H2421 H 0.5296 0.34645 0.15649 0.0
H2422 H 0.54924 0.34533 0.22206 0.0
H2423 H 0.55002 0.39542 0.17957 0.0
C2424 C 0.56214 0.41146 0.20129 0.0
C2425 C 0.56831 0.41186 0.21973 0.0
C2426 C 0.54489 0.34556 0.20769 0.0
C2427 C 0.55285 0.37949 0.20503 0.0
C2428 C 0.53872 0.32916 0.19943 0.0
C2429 C 0.53334 0.32905 0.18072 0.0
C2430 C 0.54563 0.36194 0.19717 0.0
C2431 C 0.53398 0.34578 0.17083 0.0
C2432 C 0.55439 0.3954 0.19394 0.0
C2433 C 0.56615 0.39578 0.23052 0.0
N2434 N 0.54006 0.36149 0.17915 0.0
N2435 N 0.55866 0.38021 0.22299 0.0
H2436 H 0.3539 0.83444 0.98769 0.0
H2437 H 0.39425 0.76116 0.91904 0.0
H2438 H 0.32002 0.7896 0.96695 0.0
H2439 H 0.42831 0.78471 0.96237 0.0
H2440 H 0.36683 0.77269 0.93489 0.0
H2441 H 0.38142 0.81792 0.97726 0.0
C2442 C 0.35216 0.82101 0.98124 0.0
C2443 C 0.33444 0.81353 0.97812 0.0
C2444 C 0.38032 0.77513 0.941 0.0
C2445 C 0.36603 0.79486 0.96562 0.0
C2446 C 0.39606 0.76844 0.93203 0.0
C2447 C 0.41381 0.77198 0.93926 0.0
C2448 C 0.38228 0.78579 0.95711 0.0
C2449 C 0.41504 0.78199 0.95596 0.0
C2450 C 0.36794 0.81165 0.9752 0.0
C2451 C 0.33326 0.79621 0.96926 0.0
N2452 N 0.39951 0.78877 0.96418 0.0
N2453 N 0.34882 0.78759 0.96309 0.0
H2454 H 0.94994 0.41674 0.76994 0.0
H2455 H 0.94255 0.33633 0.8461 0.0
H2456 H 0.90756 0.41415 0.81213 0.0
H2457 H 0.98547 0.33819 0.80444 0.0
H2458 H 0.92997 0.36523 0.83399 0.0
H2459 H 0.96367 0.3884 0.78257 0.0
C2460 C 0.94353 0.41023 0.78185 0.0
C2461 C 0.92758 0.41786 0.79 0.0
C2462 C 0.94214 0.35935 0.82747 0.0
C2463 C 0.94324 0.3855 0.80455 0.0
C2464 C 0.94926 0.34277 0.8343 0.0
C2465 C 0.96501 0.33475 0.82618 0.0
C2466 C 0.95079 0.36805 0.81234 0.0
C2467 C 0.97337 0.34395 0.81119 0.0
C2468 C 0.95141 0.3941 0.7891 0.0
C2469 C 0.92 0.40895 0.80555 0.0
N2470 N 0.96612 0.36009 0.80471 0.0
N2471 N 0.92786 0.39324 0.81226 0.0
H2472 H 0.31916 0.2 0.55198 0.0
H2473 H 0.42992 0.19829 0.55216 0.0
H2474 H 0.35175 0.16671 0.51445 0.0
H2475 H 0.39738 0.23629 0.58496 0.0
H2476 H 0.40145 0.18683 0.53782 0.0
H2477 H 0.34768 0.21378 0.56397 0.0
C2478 C 0.33233 0.19562 0.54625 0.0
C2479 C 0.3331 0.18216 0.53224 0.0
C2480 C 0.40054 0.19777 0.54807 0.0
C2481 C 0.36578 0.19787 0.54585 0.0
C2482 C 0.41677 0.20424 0.55631 0.0
C2483 C 0.416 0.21822 0.56981 0.0
C2484 C 0.38338 0.20521 0.55347 0.0
C2485 C 0.39863 0.22562 0.57449 0.0
C2486 C 0.3486 0.20355 0.55303 0.0
C2487 C 0.35051 0.17716 0.52514 0.0
N2488 N 0.383 0.21893 0.56643 0.0
N2489 N 0.36617 0.18493 0.53211 0.0
H2490 H 0.56358 0.67902 0.30429 0.0
H2491 H 0.54765 0.57215 0.27917 0.0
H2492 H 0.5136 0.64902 0.31778 0.0
H2493 H 0.60041 0.6 0.2745 0.0
H2494 H 0.53386 0.601 0.29038 0.0
H2495 H 0.57618 0.65098 0.29016 0.0
C2496 C 0.55525 0.66654 0.30428 0.0
C2497 C 0.53755 0.66637 0.31236 0.0
C2498 C 0.54844 0.60079 0.28683 0.0
C2499 C 0.55184 0.63423 0.29605 0.0
C2500 C 0.55635 0.58431 0.28052 0.0
C2501 C 0.57525 0.5836 0.27593 0.0
C2502 C 0.55949 0.61672 0.28855 0.0
C2503 C 0.58574 0.59991 0.27763 0.0
C2504 C 0.56242 0.65055 0.29615 0.0
C2505 C 0.52723 0.64987 0.31158 0.0
N2506 N 0.57774 0.61576 0.28384 0.0
N2507 N 0.53457 0.63445 0.30366 0.0
H2508 H 0.07481 0.77573 0.03804 0.0
H2509 H 0.16696 0.83425 0.05432 0.0
H2510 H 0.08484 0.80877 0.08688 0.0
H2511 H 0.15019 0.81579 -4e-05 0.0
H2512 H 0.13775 0.82285 0.06695 0.0
H2513 H 0.10312 0.7884 0.02409 0.0
C2514 C 0.08294 0.7857 0.04577 0.0
C2515 C 0.0775 0.79124 0.06362 0.0
C2516 C 0.14041 0.8213 0.05225 0.0
C2517 C 0.10981 0.80561 0.04788 0.0
C2518 C 0.15714 0.82767 0.04507 0.0
C2519 C 0.16101 0.82581 0.02611 0.0
C2520 C 0.12749 0.81285 0.04043 0.0
C2521 C 0.14767 0.81749 0.01467 0.0
C2522 C 0.09901 0.79296 0.03779 0.0
C2523 C 0.08842 0.80428 0.07301 0.0
N2524 N 0.13151 0.81118 0.02203 0.0
N2525 N 0.10413 0.81091 0.06509 0.0
H2526 H 0.73608 0.93535 0.59015 0.0
H2527 H 0.64288 0.9596 0.64518 0.0
H2528 H 0.68103 0.9253 0.56911 0.0
H2529 H 0.69749 0.96912 0.6676 0.0
H2530 H 0.65688 0.94885 0.61638 0.0
H2531 H 0.72251 0.95004 0.61759 0.0
C2532 C 0.72115 0.93644 0.5912 0.0
C2533 C 0.70966 0.92895 0.57741 0.0
C2534 C 0.66584 0.95332 0.62756 0.0
C2535 C 0.69405 0.94552 0.6088 0.0
C2536 C 0.65784 0.95935 0.64406 0.0
C2537 C 0.66904 0.96506 0.6589 0.0
C2538 C 0.68521 0.95294 0.62581 0.0
C2539 C 0.68834 0.96488 0.65649 0.0
C2540 C 0.71341 0.94471 0.60691 0.0
C2541 C 0.6904 0.93059 0.57956 0.0
N2542 N 0.69584 0.95879 0.64029 0.0
N2543 N 0.68322 0.93861 0.59498 0.0
H2544 H 0.80569 0.98384 0.33838 0.0
H2545 H 0.79713 0.89484 0.40324 0.0
H2546 H 0.8238 0.92934 0.32177 0.0
H2547 H 0.76453 0.94417 0.41204 0.0
H2548 H 0.80878 0.90807 0.37428 0.0
H2549 H 0.79192 0.97034 0.36638 0.0
C2550 C 0.80668 0.96903 0.34061 0.0
C2551 C 0.81587 0.95767 0.32777 0.0
C2552 C 0.79903 0.91598 0.3825 0.0
C2553 C 0.80035 0.9422 0.35972 0.0
C2554 C 0.79249 0.9085 0.39908 0.0
C2555 C 0.77993 0.91848 0.41005 0.0
C2556 C 0.79314 0.93368 0.37695 0.0
C2557 C 0.77415 0.93601 0.40391 0.0
C2558 C 0.79878 0.96134 0.35652 0.0
C2559 C 0.81667 0.93856 0.33122 0.0
N2560 N 0.78091 0.94313 0.38781 0.0
N2561 N 0.80916 0.93145 0.34695 0.0
H2562 H 0.77327 0.08592 0.10043 0.0
H2563 H 0.84313 0.0115 0.14109 0.0
H2564 H 0.79603 0.0419 0.06676 0.0
H2565 H 0.80333 0.04054 0.17518 0.0
H2566 H 0.82818 0.02416 0.11351 0.0
H2567 H 0.78638 0.07127 0.12784 0.0
C2568 C 0.78082 0.07307 0.09875 0.0
C2569 C 0.7834 0.06513 0.08114 0.0
C2570 C 0.8227 0.02766 0.12705 0.0
C2571 C 0.79894 0.04856 0.11261 0.0
C2572 C 0.83115 0.02036 0.14284 0.0
C2573 C 0.82455 0.02494 0.16061 0.0
C2574 C 0.80768 0.03984 0.12899 0.0
C2575 C 0.80919 0.03686 0.16186 0.0
C2576 C 0.78841 0.06478 0.11446 0.0
C2577 C 0.79385 0.04872 0.07994 0.0
N2578 N 0.80137 0.04398 0.14629 0.0
N2579 N 0.80132 0.04103 0.09545 0.0
H2580 H 0.64361 0.03941 0.84463 0.0
H2581 H 0.73664 0.05927 0.90128 0.0
H2582 H 0.69764 0.02219 0.82563 0.0
H2583 H 0.6818 0.06737 0.92374 0.0
H2584 H 0.72284 0.04612 0.87321 0.0
H2585 H 0.65755 0.05043 0.87342 0.0
C2586 C 0.65844 0.03802 0.8465 0.0
C2587 C 0.66951 0.02998 0.83267 0.0
C2588 C 0.71384 0.05066 0.88434 0.0
C2589 C 0.68557 0.04244 0.86567 0.0
C2590 C 0.7217 0.05823 0.90031 0.0
C2591 C 0.71034 0.06445 0.91484 0.0
C2592 C 0.69447 0.04947 0.88281 0.0
C2593 C 0.69108 0.06259 0.91296 0.0
C2594 C 0.66637 0.04419 0.86299 0.0
C2595 C 0.6886 0.02823 0.83598 0.0
N2596 N 0.68376 0.05539 0.89719 0.0
N2597 N 0.69605 0.03451 0.8521 0.0
H2598 H 0.60316 0.72968 0.90218 0.0
H2599 H 0.64833 0.67781 0.98825 0.0
H2600 H 0.57447 0.72105 0.95404 0.0
H2601 H 0.68023 0.69773 0.94165 0.0
H2602 H 0.62127 0.694 0.9762 0.0
H2603 H 0.63166 0.71857 0.91652 0.0
C2604 C 0.60288 0.7257 0.91666 0.0
C2605 C 0.58631 0.7262 0.92687 0.0
C2606 C 0.63423 0.69496 0.96868 0.0
C2607 C 0.61889 0.71309 0.94327 0.0
C2608 C 0.64975 0.68579 0.97562 0.0
C2609 C 0.66662 0.6863 0.96592 0.0
C2610 C 0.63549 0.70459 0.95182 0.0
C2611 C 0.66745 0.69663 0.94942 0.0
C2612 C 0.61917 0.71925 0.92481 0.0
C2613 C 0.5868 0.72056 0.94551 0.0
N2614 N 0.65207 0.70524 0.94282 0.0
N2615 N 0.60278 0.7141 0.95306 0.0
H2616 H 0.10486 0.10282 0.7739 0.0
H2617 H 0.01478 0.1483 0.81887 0.0
H2618 H 0.05291 0.07375 0.78 0.0
H2619 H 0.0631 0.17987 0.80302 0.0
H2620 H 0.02842 0.12091 0.80456 0.0
H2621 H 0.08982 0.13119 0.78445 0.0
C2622 C 0.09024 0.10242 0.77725 0.0
C2623 C 0.08016 0.0858 0.77609 0.0
C2624 C 0.03599 0.13386 0.8041 0.0
C2625 C 0.06292 0.11825 0.78852 0.0
C2626 C 0.02815 0.14957 0.81217 0.0
C2627 C 0.03781 0.16647 0.81221 0.0
C2628 C 0.05369 0.13496 0.79611 0.0
C2629 C 0.05527 0.16709 0.80362 0.0
C2630 C 0.08168 0.11863 0.78338 0.0
C2631 C 0.06132 0.08612 0.78098 0.0
N2632 N 0.06269 0.15155 0.79602 0.0
N2633 N 0.05334 0.10206 0.78706 0.0
H2634 H 0.91447 0.31019 0.40791 0.0
H2635 H 0.84368 0.30972 0.4924 0.0
H2636 H 0.91551 0.26707 0.44931 0.0
H2637 H 0.82996 0.33228 0.43876 0.0
H2638 H 0.87268 0.29743 0.47936 0.0
H2639 H 0.88605 0.32242 0.42186 0.0
C2640 C 0.90878 0.30344 0.42006 0.0
C2641 C 0.91727 0.28764 0.42753 0.0
C2642 C 0.86325 0.305 0.47047 0.0
C2643 C 0.88491 0.30149 0.44347 0.0
C2644 C 0.84681 0.31203 0.47789 0.0
C2645 C 0.83448 0.32189 0.46656 0.0
C2646 C 0.86748 0.30827 0.45176 0.0
C2647 C 0.83906 0.32455 0.44786 0.0
C2648 C 0.89254 0.31031 0.4279 0.0
C2649 C 0.90927 0.27924 0.44314 0.0
N2650 N 0.85528 0.31791 0.44106 0.0
N2651 N 0.89354 0.28633 0.4507 0.0
H2652 H 0.5538 0.90409 0.75773 0.0
H2653 H 0.5216 0.8533 0.85091 0.0
H2654 H 0.5636 0.92565 0.81268 0.0
H2655 H 0.51467 0.82978 0.79632 0.0
H2656 H 0.53411 0.88137 0.83686 0.0
H2657 H 0.53676 0.87817 0.77134 0.0
C2658 C 0.55223 0.90346 0.77265 0.0
C2659 C 0.56024 0.91698 0.7841 0.0
C2660 C 0.52975 0.87012 0.82793 0.0
C2661 C 0.54089 0.88729 0.79977 0.0
C2662 C 0.52245 0.85414 0.83594 0.0
C2663 C 0.51713 0.83912 0.82478 0.0
C2664 C 0.53179 0.87113 0.80859 0.0
C2665 C 0.51885 0.84091 0.80547 0.0
C2666 C 0.54257 0.88861 0.78041 0.0
C2667 C 0.55792 0.91536 0.80335 0.0
N2668 N 0.52611 0.85659 0.79798 0.0
N2669 N 0.54851 0.90076 0.81058 0.0
H2670 H 0.94212 0.15609 0.34805 0.0
H2671 H 0.94494 0.08216 0.26539 0.0
H2672 H 0.97753 0.16183 0.30013 0.0
H2673 H 0.90594 0.08034 0.31078 0.0
H2674 H 0.95798 0.11067 0.27828 0.0
H2675 H 0.92967 0.12755 0.33504 0.0
C2676 C 0.9472 0.15142 0.33472 0.0
C2677 C 0.9608 0.16147 0.32511 0.0
C2678 C 0.94659 0.104 0.28541 0.0
C2679 C 0.94676 0.12856 0.31021 0.0
C2680 C 0.93908 0.08777 0.27802 0.0
C2681 C 0.92434 0.07879 0.28703 0.0
C2682 C 0.93932 0.1113 0.30194 0.0
C2683 C 0.91748 0.08658 0.3035 0.0
C2684 C 0.94015 0.13504 0.32734 0.0
C2685 C 0.96716 0.15446 0.30808 0.0
N2686 N 0.92501 0.10236 0.3104 0.0
N2687 N 0.96006 0.13845 0.30115 0.0
H2688 H 0.54177 0.06762 0.70002 0.0
H2689 H 0.54321 0.17753 0.70493 0.0
H2690 H 0.57165 0.09797 0.74197 0.0
H2691 H 0.50464 0.14682 0.67113 0.0
H2692 H 0.5527 0.1486 0.71983 0.0
H2693 H 0.52679 0.09641 0.6903 0.0
C2694 C 0.54504 0.08036 0.70727 0.0
C2695 C 0.55806 0.0805 0.7217 0.0
C2696 C 0.54199 0.1482 0.70932 0.0
C2697 C 0.5411 0.11346 0.71062 0.0
C2698 C 0.53664 0.16468 0.70077 0.0
C2699 C 0.52325 0.1645 0.68669 0.0
C2700 C 0.53406 0.13139 0.70356 0.0
C2701 C 0.51498 0.14756 0.68197 0.0
C2702 C 0.53644 0.09676 0.70179 0.0
C2703 C 0.56165 0.09728 0.73081 0.0
N2704 N 0.52069 0.13164 0.69023 0.0
N2705 N 0.55339 0.11316 0.72496 0.0
H2706 H 0.14192 0.34137 0.97657 0.0
H2707 H 0.09399 0.25127 0.93429 0.0
H2708 H 0.16901 0.28805 0.97418 0.0
H2709 H 0.06629 0.30381 0.94138 0.0
H2710 H 0.12074 0.26353 0.95112 0.0
H2711 H 0.11337 0.32701 0.96601 0.0
C2712 C 0.14183 0.32657 0.97411 0.0
C2713 C 0.15798 0.31594 0.97625 0.0
C2714 C 0.10875 0.27231 0.94913 0.0
C2715 C 0.12525 0.29941 0.96364 0.0
C2716 C 0.09343 0.26529 0.93961 0.0
C2717 C 0.07797 0.27661 0.93623 0.0
C2718 C 0.1086 0.29079 0.95527 0.0
C2719 C 0.07807 0.29472 0.94332 0.0
C2720 C 0.12549 0.31838 0.96793 0.0
C2721 C 0.157 0.29686 0.97244 0.0
N2722 N 0.09319 0.30128 0.95236 0.0
N2723 N 0.14095 0.28923 0.96619 0.0
H2724 H 0.405 0.69432 0.3944 0.0
H2725 H 0.33988 0.68662 0.48381 0.0
H2726 H 0.41998 0.71682 0.44782 0.0
H2727 H 0.33071 0.65625 0.43305 0.0
H2728 H 0.3684 0.6993 0.47056 0.0
H2729 H 0.37679 0.68174 0.40801 0.0
C2730 C 0.40246 0.6965 0.40904 0.0
C2731 C 0.41499 0.70657 0.41999 0.0
C2732 C 0.36012 0.68987 0.46234 0.0
C2733 C 0.38243 0.69244 0.43563 0.0
C2734 C 0.34387 0.68256 0.46992 0.0
C2735 C 0.33281 0.67038 0.45952 0.0
C2736 C 0.36532 0.685 0.44422 0.0
C2737 C 0.33858 0.66583 0.44148 0.0
C2738 C 0.38626 0.6894 0.41679 0.0
C2739 C 0.41066 0.70931 0.43879 0.0
N2740 N 0.3544 0.67315 0.43442 0.0
N2741 N 0.39473 0.70228 0.44602 0.0
H2742 H 0.82005 0.50346 0.85029 0.0
H2743 H 0.74821 0.5742 0.89641 0.0
H2744 H 0.78954 0.54434 0.81909 0.0
H2745 H 0.79244 0.54755 0.92651 0.0
H2746 H 0.75796 0.55781 0.86825 0.0
H2747 H 0.80455 0.51399 0.87861 0.0
C2748 C 0.80984 0.51443 0.84937 0.0
C2749 C 0.80615 0.52317 0.8324 0.0
C2750 C 0.76539 0.55542 0.88108 0.0
C2751 C 0.78851 0.5353 0.86464 0.0
C2752 C 0.75978 0.56466 0.89712 0.0
C2753 C 0.76967 0.5623 0.91369 0.0
C2754 C 0.78084 0.54361 0.88172 0.0
C2755 C 0.78463 0.5499 0.91391 0.0
C2756 C 0.80111 0.5205 0.86552 0.0
C2757 C 0.79293 0.53742 0.83198 0.0
N2758 N 0.78981 0.54105 0.89813 0.0
N2759 N 0.78463 0.54312 0.84789 0.0
H2760 H 0.6492 0.5249 0.1436 0.0
H2761 H 0.73932 0.56366 0.09199 0.0
H2762 H 0.70402 0.52339 0.16749 0.0
H2763 H 0.6841 0.56607 0.06916 0.0
H2764 H 0.72715 0.54676 0.11874 0.0
H2765 H 0.66225 0.53775 0.11522 0.0
C2766 C 0.66403 0.52704 0.1428 0.0
C2767 C 0.67553 0.52308 0.15798 0.0
C2768 C 0.71771 0.55092 0.10784 0.0
C2769 C 0.69054 0.53813 0.12556 0.0
C2770 C 0.72466 0.56048 0.09252 0.0
C2771 C 0.71268 0.56639 0.07838 0.0
C2772 C 0.69864 0.54723 0.10902 0.0
C2773 C 0.69378 0.56206 0.0799 0.0
C2774 C 0.67146 0.53452 0.12662 0.0
C2775 C 0.6946 0.52648 0.15623 0.0
N2776 N 0.68735 0.5528 0.09496 0.0
N2777 N 0.70151 0.53387 0.14033 0.0
H2778 H 0.72112 0.45437 0.42224 0.0
H2779 H 0.68592 0.43597 0.31866 0.0
H2780 H 0.71909 0.40045 0.3964 0.0
H2781 H 0.68638 0.49019 0.34396 0.0
H2782 H 0.70018 0.42323 0.34646 0.0
H2783 H 0.70996 0.46819 0.39331 0.0
C2784 C 0.71833 0.44544 0.4105 0.0
C2785 C 0.72105 0.42622 0.41175 0.0
C2786 C 0.69726 0.43794 0.34593 0.0
C2787 C 0.70843 0.44193 0.37862 0.0
C2788 C 0.68925 0.44526 0.32997 0.0
C2789 C 0.68493 0.4642 0.32895 0.0
C2790 C 0.70097 0.44958 0.36108 0.0
C2791 C 0.68925 0.47547 0.34423 0.0
C2792 C 0.71206 0.45335 0.39397 0.0
C2793 C 0.71746 0.41535 0.39602 0.0
N2794 N 0.69697 0.46798 0.3597 0.0
N2795 N 0.71129 0.42335 0.38016 0.0
H2796 H 0.84745 0.456 0.6519 0.0
H2797 H 0.754 0.43135 0.5976 0.0
H2798 H 0.79294 0.46554 0.67459 0.0
H2799 H 0.8087 0.42686 0.57378 0.0
H2800 H 0.76777 0.44386 0.62598 0.0
H2801 H 0.8333 0.44498 0.62325 0.0
C2802 C 0.83248 0.45566 0.65088 0.0
C2803 C 0.82135 0.4616 0.66568 0.0
C2804 C 0.77674 0.44024 0.61449 0.0
C2805 C 0.80502 0.44918 0.63282 0.0
C2806 C 0.7689 0.43305 0.59833 0.0
C2807 C 0.78022 0.42808 0.5833 0.0
C2808 C 0.79605 0.44234 0.61567 0.0
C2809 C 0.79941 0.43073 0.58492 0.0
C2810 C 0.8244 0.4495 0.63447 0.0
C2811 C 0.80203 0.4612 0.66347 0.0
N2812 N 0.80672 0.43759 0.60083 0.0
N2813 N 0.79446 0.45503 0.64736 0.0
H2814 H 0.41893 0.07031 0.18339 0.0
H2815 H 0.46977 0.16697 0.20251 0.0
H2816 H 0.429 0.0916 0.23838 0.0
H2817 H 0.44749 0.15124 0.14928 0.0
H2818 H 0.45799 0.13795 0.21563 0.0
H2819 H 0.43269 0.09838 0.17033 0.0
C2820 C 0.42422 0.08082 0.19271 0.0
C2821 C 0.42282 0.07866 0.21199 0.0
C2822 C 0.45567 0.14087 0.20109 0.0
C2823 C 0.43842 0.11086 0.19716 0.0
C2824 C 0.46245 0.15737 0.19359 0.0
C2825 C 0.45951 0.16153 0.17481 0.0
C2826 C 0.44607 0.12837 0.18967 0.0
C2827 C 0.44984 0.14868 0.16389 0.0
C2828 C 0.43193 0.0969 0.18526 0.0
C2829 C 0.42966 0.09283 0.22343 0.0
N2830 N 0.4435 0.13266 0.17146 0.0
N2831 N 0.43718 0.10833 0.21584 0.0
H2832 H 0.04851 0.84292 0.65535 0.0
H2833 H 0.06759 0.90145 0.74737 0.0
H2834 H 0.02723 0.82666 0.70886 0.0
H2835 H 0.07613 0.92251 0.69202 0.0
H2836 H 0.05434 0.87309 0.73409 0.0
H2837 H 0.06071 0.87125 0.66916 0.0
C2838 C 0.04653 0.84527 0.67006 0.0
C2839 C 0.03693 0.8324 0.68101 0.0
C2840 C 0.059 0.88399 0.72489 0.0
C2841 C 0.0507 0.8649 0.69689 0.0
C2842 C 0.0666 0.90012 0.73244 0.0
C2843 C 0.07289 0.91435 0.72077 0.0
C2844 C 0.05794 0.88204 0.70554 0.0
C2845 C 0.07122 0.91199 0.70154 0.0
C2846 C 0.05336 0.86152 0.6779 0.0
C2847 C 0.03448 0.83629 0.69993 0.0
N2848 N 0.06402 0.89611 0.69453 0.0
N2849 N 0.0414 0.85219 0.70731 0.0
H2850 H 0.45504 0.81773 0.29387 0.0
H2851 H 0.43144 0.92504 0.30805 0.0
H2852 H 0.46978 0.8491 0.34265 0.0
H2853 H 0.4213 0.89579 0.25682 0.0
H2854 H 0.44626 0.89741 0.32052 0.0
H2855 H 0.44325 0.84617 0.27962 0.0
C2856 C 0.45592 0.83061 0.30153 0.0
C2857 C 0.46327 0.831 0.31955 0.0
C2858 C 0.44089 0.89704 0.30651 0.0
C2859 C 0.44966 0.86352 0.30341 0.0
C2860 C 0.43253 0.91288 0.29931 0.0
C2861 C 0.42508 0.91277 0.28134 0.0
C2862 C 0.44176 0.88086 0.29572 0.0
C2863 C 0.42659 0.89644 0.27084 0.0
C2864 C 0.44912 0.84682 0.29342 0.0
C2865 C 0.4639 0.84806 0.32888 0.0
N2866 N 0.43469 0.88111 0.27822 0.0
N2867 N 0.45712 0.86359 0.32074 0.0
H2868 H 0.85249 0.66385 0.0086 0.0
H2869 H 0.89341 0.73549 0.0826 0.0
H2870 H 0.81863 0.69632 0.04575 0.0
H2871 H 0.92738 0.70241 0.04608 0.0
H2872 H 0.86579 0.72316 0.0675 0.0
H2873 H 0.87997 0.67964 0.02041 0.0
C2874 C 0.85081 0.67445 0.0191 0.0
C2875 C 0.83324 0.6787 0.02628 0.0
C2876 C 0.87928 0.71867 0.06271 0.0
C2877 C 0.86467 0.69667 0.04003 0.0
C2878 C 0.89507 0.7258 0.07125 0.0
C2879 C 0.91274 0.7199 0.06565 0.0
C2880 C 0.88115 0.70552 0.04848 0.0
C2881 C 0.91403 0.70711 0.05104 0.0
C2882 C 0.86653 0.68338 0.02592 0.0
C2883 C 0.83193 0.69238 0.04005 0.0
N2884 N 0.89844 0.70029 0.04302 0.0
N2885 N 0.84745 0.70083 0.04652 0.0
H2886 H 0.57387 0.27854 0.54465 0.0
H2887 H 0.67737 0.3155 0.55963 0.0
H2888 H 0.60035 0.28396 0.59801 0.0
H2889 H 0.65022 0.31528 0.5063 0.0
H2890 H 0.64999 0.30136 0.57333 0.0
H2891 H 0.60238 0.28957 0.52979 0.0
C2892 C 0.58572 0.28194 0.55321 0.0
C2893 C 0.58471 0.28048 0.5726 0.0
C2894 C 0.65 0.30431 0.55861 0.0
C2895 C 0.61725 0.29312 0.55576 0.0
C2896 C 0.66572 0.31226 0.55073 0.0
C2897 C 0.66611 0.31656 0.53176 0.0
C2898 C 0.63448 0.30063 0.54749 0.0
C2899 C 0.65043 0.31238 0.52102 0.0
C2900 C 0.60193 0.28831 0.54475 0.0
C2901 C 0.60041 0.28518 0.58305 0.0
N2902 N 0.63522 0.30467 0.52904 0.0
N2903 N 0.616 0.2913 0.57451 0.0
H2904 H 0.2193 0.45159 0.07334 0.0
H2905 H 0.1945 0.43539 0.18028 0.0
H2906 H 0.22488 0.39884 0.10109 0.0
H2907 H 0.1769 0.48332 0.14902 0.0
H2908 H 0.2098 0.42343 0.15252 0.0
H2909 H 0.20782 0.46508 0.10222 0.0
C2910 C 0.21814 0.44284 0.08549 0.0
C2911 C 0.22295 0.42399 0.0847 0.0
C2912 C 0.20266 0.43661 0.15179 0.0
C2913 C 0.21004 0.43944 0.11786 0.0
C2914 C 0.19384 0.44342 0.16761 0.0
C2915 C 0.18426 0.46035 0.16699 0.0
C2916 C 0.20197 0.44682 0.13523 0.0
C2917 C 0.18426 0.47031 0.15025 0.0
C2918 C 0.21167 0.45058 0.10199 0.0
C2919 C 0.22154 0.41345 0.10103 0.0
N2920 N 0.1929 0.46337 0.13503 0.0
N2921 N 0.21514 0.4213 0.1169 0.0
H2922 H 0.33854 0.47802 0.85299 0.0
H2923 H 0.25993 0.41274 0.89266 0.0
H2924 H 0.29177 0.46082 0.81978 0.0
H2925 H 0.29283 0.44834 0.92783 0.0
H2926 H 0.27252 0.42854 0.86553 0.0
H2927 H 0.3232 0.46563 0.88038 0.0
C2928 C 0.32495 0.4719 0.85141 0.0
C2929 C 0.31648 0.47053 0.83391 0.0
C2930 C 0.27686 0.43296 0.87921 0.0
C2931 C 0.29909 0.45579 0.86533 0.0
C2932 C 0.2696 0.42402 0.89476 0.0
C2933 C 0.27532 0.42915 0.91267 0.0
C2934 C 0.29015 0.44694 0.88153 0.0
C2935 C 0.28825 0.44361 0.91435 0.0
C2936 C 0.31625 0.46471 0.8671 0.0
C2937 C 0.29903 0.46194 0.83285 0.0
N2938 N 0.29533 0.45189 0.89899 0.0
N2939 N 0.29098 0.45476 0.84831 0.0
H2940 H 0.26806 0.58445 0.6021 0.0
H2941 H 0.34449 0.519 0.64412 0.0
H2942 H 0.29676 0.54441 0.56795 0.0
H2943 H 0.29689 0.53651 0.67605 0.0
H2944 H 0.32945 0.53053 0.61612 0.0
H2945 H 0.28075 0.56958 0.62957 0.0
C2946 C 0.2768 0.57241 0.60028 0.0
C2947 C 0.28121 0.56569 0.58251 0.0
C2948 C 0.3223 0.5317 0.62927 0.0
C2949 C 0.2963 0.549 0.61411 0.0
C2950 C 0.33081 0.52503 0.6453 0.0
C2951 C 0.32203 0.5268 0.66263 0.0
C2952 C 0.30506 0.54054 0.63057 0.0
C2953 C 0.30445 0.53518 0.66316 0.0
C2954 C 0.28414 0.564 0.61604 0.0
C2955 C 0.29317 0.55034 0.58125 0.0
N2956 N 0.29664 0.54191 0.64741 0.0
N2957 N 0.30042 0.54261 0.59683 0.0
H2958 H 0.19773 0.51787 0.32956 0.0
H2959 H 0.1796 0.57183 0.4248 0.0
H2960 H 0.1448 0.54102 0.34501 0.0
H2961 H 0.23428 0.55908 0.40419 0.0
H2962 H 0.16624 0.55764 0.3971 0.0
H2963 H 0.21103 0.5301 0.35829 0.0
C2964 C 0.1889 0.52545 0.33905 0.0
C2965 C 0.17016 0.5285 0.33488 0.0
C2966 C 0.18116 0.5579 0.39865 0.0
C2967 C 0.18525 0.54253 0.36769 0.0
C2968 C 0.18879 0.56587 0.41452 0.0
C2969 C 0.20808 0.56664 0.41677 0.0
C2970 C 0.1929 0.55053 0.38498 0.0
C2971 C 0.21934 0.55894 0.40289 0.0
C2972 C 0.19651 0.5325 0.35537 0.0
C2973 C 0.15937 0.53856 0.34757 0.0
N2974 N 0.21158 0.55119 0.38758 0.0
N2975 N 0.16707 0.54519 0.36341 0.0
loop_
_geom_bond_atom_site_label_1
_geom_bond_atom_site_label_2
_geom_bond_distance
_geom_bond_site_symmetry_2
_ccdc_geom_bond_type
Li0 N17 1.990 . S
Li0 O60 1.956 . S
Li0 O61 1.970 . S
Li0 O62 1.961 1_455 S
Li1 N25 1.990 . S
Li1 O60 1.970 . S
Li1 O61 1.956 . S
Li1 O63 1.961 1_455 S
Li2 N47 1.990 . S
Li2 O60 1.961 1_655 S
Li2 O62 1.956 . S
Li2 O63 1.970 . S
Li3 N53 1.990 . S
Li3 O61 1.961 1_655 S
Li3 O62 1.970 . S
Li3 O63 1.956 . S
C4 C6 1.348 . S
C4 C7 1.356 . S
C4 O60 1.325 . S
N5 C8 1.314 . S
N5 C9 1.279 . S
C6 C4 1.348 . S
C6 C8 1.353 . S
C6 H64 0.929 . S
C7 C4 1.356 . S
C7 C9 1.358 . S
C7 H65 0.930 . S
C8 N5 1.314 . S
C8 C6 1.353 . S
C8 H66 0.930 . S
C9 N5 1.279 . S
C9 C7 1.358 . S
C9 H67 0.930 . S
C10 C13 1.348 . S
C10 C14 1.356 . S
C10 O61 1.325 . S
C11 N12 1.279 . S
C11 C14 1.358 . S
C11 H68 0.930 . S
N12 C11 1.279 . S
N12 C15 1.314 . S
C13 C10 1.348 . S
C13 C15 1.353 . S
C13 H69 0.929 . S
C14 C10 1.356 . S
C14 C11 1.358 . S
C14 H70 0.930 . S
C15 N12 1.314 . S
C15 C13 1.353 . S
C15 H71 0.930 . S
C16 N17 1.314 . S
C16 C21 1.353 . S
C16 H22 0.930 1_455 S
N17 Li0 1.990 . S
N17 C16 1.314 . S
N17 C19 1.279 . S
C18 C19 1.358 . S
C18 C20 1.356 . S
C18 H72 0.930 . S
C19 N17 1.279 . S
C19 C18 1.358 . S
C19 H23 0.930 . S
C20 C18 1.356 . S
C20 C21 1.348 . S
C21 C16 1.353 . S
C21 C20 1.348 . S
C21 H73 0.929 . S
H22 C16 0.930 1_655 S
H23 C19 0.930 . S
C24 N25 1.314 . S
C24 C26 1.353 . S
C24 H30 0.930 . S
N25 Li1 1.990 . S
N25 C24 1.314 . S
N25 C28 1.279 . S
C26 C24 1.353 . S
C26 C29 1.348 . S
C26 H74 0.929 . S
C27 C28 1.358 . S
C27 C29 1.356 . S
C27 H75 0.930 . S
C28 N25 1.279 . S
C28 C27 1.358 . S
C28 H31 0.930 . S
C29 C26 1.348 . S
C29 C27 1.356 . S
H30 C24 0.930 . S
H31 C28 0.930 . S
C32 C34 1.348 . S
C32 C35 1.356 . S
C32 O62 1.325 . S
N33 C36 1.314 . S
N33 C37 1.279 . S
C34 C32 1.348 . S
C34 C36 1.353 . S
C34 H76 0.929 . S
C35 C32 1.356 . S
C35 C37 1.358 . S
C35 H77 0.930 . S
C36 N33 1.314 . S
C36 C34 1.353 . S
C36 H78 0.930 . S
C37 N33 1.279 . S
C37 C35 1.358 . S
C37 H79 0.930 . S
C38 C39 1.348 . S
C38 C40 1.356 . S
C38 O63 1.325 . S
C39 C38 1.348 . S
C39 C41 1.353 . S
C39 H80 0.929 . S
C40 C38 1.356 . S
C40 C42 1.358 . S
C40 H81 0.930 . S
C41 C39 1.353 . S
C41 N43 1.314 . S
C41 H82 0.930 . S
C42 C40 1.358 . S
C42 N43 1.279 . S
C42 H83 0.930 . S
N43 C41 1.314 . S
N43 C42 1.279 . S
C44 C46 1.353 . S
C44 N47 1.314 . S
C44 H50 0.930 1_655 S
C45 N47 1.279 . S
C45 C48 1.358 . S
C45 H51 0.930 . S
C46 C44 1.353 . S
C46 C49 1.348 . S
C46 H84 0.929 . S
N47 Li2 1.990 . S
N47 C44 1.314 . S
N47 C45 1.279 . S
C48 C45 1.358 . S
C48 C49 1.356 . S
C48 H85 0.930 . S
C49 C46 1.348 . S
C49 C48 1.356 . S
H50 C44 0.930 1_455 S
H51 C45 0.930 . S
C52 N53 1.314 . S
C52 C54 1.353 . S
C52 H58 0.930 . S
N53 Li3 1.990 . S
N53 C52 1.314 . S
N53 C56 1.279 . S
C54 C52 1.353 . S
C54 C57 1.348 . S
C54 H86 0.929 . S
C55 C56 1.358 . S
C55 C57 1.356 . S
C55 H87 0.930 . S
C56 N53 1.279 . S
C56 C55 1.358 . S
C56 H59 0.930 . S
C57 C54 1.348 . S
C57 C55 1.356 . S
H58 C52 0.930 . S
H59 C56 0.930 . S
O60 Li0 1.956 . S
O60 Li1 1.970 . S
O60 Li2 1.961 1_455 S
O60 C4 1.325 . S
O61 Li0 1.970 . S
O61 Li1 1.956 . S
O61 Li3 1.961 1_455 S
O61 C10 1.325 . S
O62 Li0 1.961 1_655 S
O62 Li2 1.956 . S
O62 Li3 1.970 . S
O62 C32 1.325 . S
O63 Li1 1.961 1_655 S
O63 Li2 1.970 . S
O63 Li3 1.956 . S
O63 C38 1.325 . S
H64 C6 0.929 . S
H65 C7 0.930 . S
H66 C8 0.930 . S
H67 C9 0.930 . S
H68 C11 0.930 . S
H69 C13 0.929 . S
H70 C14 0.930 . S
H71 C15 0.930 . S
H72 C18 0.930 . S
H73 C21 0.929 . S
H74 C26 0.929 . S
H75 C27 0.930 . S
H76 C34 0.929 . S
H77 C35 0.930 . S
H78 C36 0.930 . S
H79 C37 0.930 . S
H80 C39 0.929 . S
H81 C40 0.930 . S
H82 C41 0.930 . S
H83 C42 0.930 . S
H84 C46 0.929 . S
H85 C48 0.930 . S
H86 C54 0.929 . S
H87 C55 0.930 . S
Li88 N105 1.990 . S
Li88 O148 1.956 1_455 S
Li88 O149 1.970 . S
Li88 O150 1.961 . S
Li89 N113 1.990 . S
Li89 O148 1.970 . S
Li89 O149 1.956 1_655 S
Li89 O151 1.961 . S
Li90 N135 1.990 . S
Li90 O148 1.961 . S
Li90 O150 1.956 1_655 S
Li90 O151 1.970 . S
Li91 N141 1.990 . S
Li91 O149 1.961 . S
Li91 O150 1.970 . S
Li91 O151 1.956 1_455 S
C92 C94 1.348 . S
C92 C95 1.356 . S
C92 O148 1.325 . S
N93 C96 1.314 . S
N93 C97 1.279 . S
C94 C92 1.348 . S
C94 C96 1.353 . S
C94 H152 0.929 . S
C95 C92 1.356 . S
C95 C97 1.358 . S
C95 H153 0.930 . S
C96 N93 1.314 . S
C96 C94 1.353 . S
C96 H154 0.930 . S
C97 N93 1.279 . S
C97 C95 1.358 . S
C97 H155 0.930 . S
C98 C101 1.348 . S
C98 C102 1.356 . S
C98 O149 1.325 . S
C99 N100 1.279 . S
C99 C102 1.358 . S
C99 H156 0.930 . S
N100 C99 1.279 . S
N100 C103 1.314 . S
C101 C98 1.348 . S
C101 C103 1.353 . S
C101 H157 0.929 . S
C102 C98 1.356 . S
C102 C99 1.358 . S
C102 H158 0.930 . S
C103 N100 1.314 . S
C103 C101 1.353 . S
C103 H159 0.930 . S
C104 N105 1.314 . S
C104 C109 1.353 . S
C104 H110 0.930 . S
N105 Li88 1.990 . S
N105 C104 1.314 . S
N105 C107 1.279 . S
C106 C107 1.358 . S
C106 C108 1.356 . S
C106 H160 0.930 . S
C107 N105 1.279 . S
C107 C106 1.358 . S
C107 H111 0.930 1_455 S
C108 C106 1.356 . S
C108 C109 1.348 . S
C109 C104 1.353 . S
C109 C108 1.348 . S
C109 H161 0.929 . S
H110 C104 0.930 . S
H111 C107 0.930 1_655 S
C112 N113 1.314 . S
C112 C114 1.353 . S
C112 H118 0.930 . S
N113 Li89 1.990 . S
N113 C112 1.314 . S
N113 C116 1.279 . S
C114 C112 1.353 . S
C114 C117 1.348 . S
C114 H162 0.929 . S
C115 C116 1.358 . S
C115 C117 1.356 . S
C115 H163 0.930 . S
C116 N113 1.279 . S
C116 C115 1.358 . S
C116 H119 0.930 . S
C117 C114 1.348 . S
C117 C115 1.356 . S
H118 C112 0.930 . S
H119 C116 0.930 . S
C120 C122 1.348 . S
C120 C123 1.356 . S
C120 O150 1.325 . S
N121 C124 1.314 . S
N121 C125 1.279 . S
C122 C120 1.348 . S
C122 C124 1.353 . S
C122 H164 0.929 . S
C123 C120 1.356 . S
C123 C125 1.358 . S
C123 H165 0.930 . S
C124 N121 1.314 . S
C124 C122 1.353 . S
C124 H166 0.930 . S
C125 N121 1.279 . S
C125 C123 1.358 . S
C125 H167 0.930 . S
C126 C127 1.348 . S
C126 C128 1.356 . S
C126 O151 1.325 . S
C127 C126 1.348 . S
C127 C129 1.353 . S
C127 H168 0.929 . S
C128 C126 1.356 . S
C128 C130 1.358 . S
C128 H169 0.930 . S
C129 C127 1.353 . S
C129 N131 1.314 . S
C129 H170 0.930 . S
C130 C128 1.358 . S
C130 N131 1.279 . S
C130 H171 0.930 . S
N131 C129 1.314 . S
N131 C130 1.279 . S
C132 C134 1.353 . S
C132 N135 1.314 . S
C132 H138 0.930 . S
C133 N135 1.279 . S
C133 C136 1.358 . S
C133 H139 0.930 1_655 S
C134 C132 1.353 . S
C134 C137 1.348 . S
C134 H172 0.929 . S
N135 Li90 1.990 . S
N135 C132 1.314 . S
N135 C133 1.279 . S
C136 C133 1.358 . S
C136 C137 1.356 . S
C136 H173 0.930 . S
C137 C134 1.348 . S
C137 C136 1.356 . S
H138 C132 0.930 . S
H139 C133 0.930 1_455 S
C140 N141 1.314 . S
C140 C142 1.353 . S
C140 H146 0.930 . S
N141 Li91 1.990 . S
N141 C140 1.314 . S
N141 C144 1.279 . S
C142 C140 1.353 . S
C142 C145 1.348 . S
C142 H174 0.929 . S
C143 C144 1.358 . S
C143 C145 1.356 . S
C143 H175 0.930 . S
C144 N141 1.279 . S
C144 C143 1.358 . S
C144 H147 0.930 . S
C145 C142 1.348 . S
C145 C143 1.356 . S
H146 C140 0.930 . S
H147 C144 0.930 . S
O148 Li88 1.956 1_655 S
O148 Li89 1.970 . S
O148 Li90 1.961 . S
O148 C92 1.325 . S
O149 Li88 1.970 . S
O149 Li89 1.956 1_455 S
O149 Li91 1.961 . S
O149 C98 1.325 . S
O150 Li88 1.961 . S
O150 Li90 1.956 1_455 S
O150 Li91 1.970 . S
O150 C120 1.325 . S
O151 Li89 1.961 . S
O151 Li90 1.970 . S
O151 Li91 1.956 1_655 S
O151 C126 1.325 . S
H152 C94 0.929 . S
H153 C95 0.930 . S
H154 C96 0.930 . S
H155 C97 0.930 . S
H156 C99 0.930 . S
H157 C101 0.929 . S
H158 C102 0.930 . S
H159 C103 0.930 . S
H160 C106 0.930 . S
H161 C109 0.929 . S
H162 C114 0.929 . S
H163 C115 0.930 . S
H164 C122 0.929 . S
H165 C123 0.930 . S
H166 C124 0.930 . S
H167 C125 0.930 . S
H168 C127 0.929 . S
H169 C128 0.930 . S
H170 C129 0.930 . S
H171 C130 0.930 . S
H172 C134 0.929 . S
H173 C136 0.930 . S
H174 C142 0.929 . S
H175 C143 0.930 . S
Li176 N193 1.990 . S
Li176 O236 1.956 . S
Li176 O237 1.970 . S
Li176 O238 1.961 . S
Li177 N201 1.990 . S
Li177 O236 1.970 . S
Li177 O237 1.956 . S
Li177 O239 1.961 . S
Li178 N223 1.990 . S
Li178 O236 1.961 . S
Li178 O238 1.956 . S
Li178 O239 1.970 . S
Li179 N229 1.990 . S
Li179 O237 1.961 . S
Li179 O238 1.970 . S
Li179 O239 1.956 . S
C180 C182 1.348 . S
C180 C183 1.356 . S
C180 O236 1.325 . S
N181 C184 1.314 . S
N181 C185 1.279 . S
C182 C180 1.348 . S
C182 C184 1.353 . S
C182 H240 0.929 . S
C183 C180 1.356 . S
C183 C185 1.358 . S
C183 H241 0.930 . S
C184 N181 1.314 . S
C184 C182 1.353 . S
C184 H242 0.930 . S
C185 N181 1.279 . S
C185 C183 1.358 . S
C185 H243 0.930 . S
C186 C189 1.348 . S
C186 C190 1.356 . S
C186 O237 1.325 . S
C187 N188 1.279 . S
C187 C190 1.358 . S
C187 H244 0.930 . S
N188 C187 1.279 . S
N188 C191 1.314 . S
C189 C186 1.348 . S
C189 C191 1.353 . S
C189 H245 0.929 . S
C190 C186 1.356 . S
C190 C187 1.358 . S
C190 H246 0.930 . S
C191 N188 1.314 . S
C191 C189 1.353 . S
C191 H247 0.930 . S
C192 N193 1.314 . S
C192 C197 1.353 . S
C192 H198 0.930 . S
N193 Li176 1.990 . S
N193 C192 1.314 . S
N193 C195 1.279 . S
C194 C195 1.358 . S
C194 C196 1.356 . S
C194 H248 0.930 . S
C195 N193 1.279 . S
C195 C194 1.358 . S
C195 H199 0.930 . S
C196 C194 1.356 . S
C196 C197 1.348 . S
C197 C192 1.353 . S
C197 C196 1.348 . S
C197 H249 0.929 . S
H198 C192 0.930 . S
H199 C195 0.930 . S
C200 N201 1.314 . S
C200 C202 1.353 . S
C200 H206 0.930 . S
N201 Li177 1.990 . S
N201 C200 1.314 . S
N201 C204 1.279 . S
C202 C200 1.353 . S
C202 C205 1.348 . S
C202 H250 0.929 . S
C203 C204 1.358 . S
C203 C205 1.356 . S
C203 H251 0.930 . S
C204 N201 1.279 . S
C204 C203 1.358 . S
C204 H207 0.930 . S
C205 C202 1.348 . S
C205 C203 1.356 . S
H206 C200 0.930 . S
H207 C204 0.930 . S
C208 C210 1.348 . S
C208 C211 1.356 . S
C208 O238 1.325 . S
N209 C212 1.314 . S
N209 C213 1.279 . S
C210 C208 1.348 . S
C210 C212 1.353 . S
C210 H252 0.929 . S
C211 C208 1.356 . S
C211 C213 1.358 . S
C211 H253 0.930 . S
C212 N209 1.314 . S
C212 C210 1.353 . S
C212 H254 0.930 . S
C213 N209 1.279 . S
C213 C211 1.358 . S
C213 H255 0.930 . S
C214 C215 1.348 . S
C214 C216 1.356 . S
C214 O239 1.325 . S
C215 C214 1.348 . S
C215 C217 1.353 . S
C215 H256 0.929 . S
C216 C214 1.356 . S
C216 C218 1.358 . S
C216 H257 0.930 . S
C217 C215 1.353 . S
C217 N219 1.314 . S
C217 H258 0.930 . S
C218 C216 1.358 . S
C218 N219 1.279 . S
C218 H259 0.930 . S
N219 C217 1.314 . S
N219 C218 1.279 . S
C220 C222 1.353 . S
C220 N223 1.314 . S
C220 H226 0.930 . S
C221 N223 1.279 . S
C221 C224 1.358 . S
C221 H227 0.930 . S
C222 C220 1.353 . S
C222 C225 1.348 . S
C222 H260 0.929 . S
N223 Li178 1.990 . S
N223 C220 1.314 . S
N223 C221 1.279 . S
C224 C221 1.358 . S
C224 C225 1.356 . S
C224 H261 0.930 . S
C225 C222 1.348 . S
C225 C224 1.356 . S
H226 C220 0.930 . S
H227 C221 0.930 . S
C228 N229 1.314 . S
C228 C230 1.353 . S
C228 H234 0.930 . S
N229 Li179 1.990 . S
N229 C228 1.314 . S
N229 C232 1.279 . S
C230 C228 1.353 . S
C230 C233 1.348 . S
C230 H262 0.929 . S
C231 C232 1.358 . S
C231 C233 1.356 . S
C231 H263 0.930 . S
C232 N229 1.279 . S
C232 C231 1.358 . S
C232 H235 0.930 . S
C233 C230 1.348 . S
C233 C231 1.356 . S
H234 C228 0.930 . S
H235 C232 0.930 . S
O236 Li176 1.956 . S
O236 Li177 1.970 . S
O236 Li178 1.961 . S
O236 C180 1.325 . S
O237 Li176 1.970 . S
O237 Li177 1.956 . S
O237 Li179 1.961 . S
O237 C186 1.325 . S
O238 Li176 1.961 . S
O238 Li178 1.956 . S
O238 Li179 1.970 . S
O238 C208 1.325 . S
O239 Li177 1.961 . S
O239 Li178 1.970 . S
O239 Li179 1.956 . S
O239 C214 1.325 . S
H240 C182 0.929 . S
H241 C183 0.930 . S
H242 C184 0.930 . S
H243 C185 0.930 . S
H244 C187 0.930 . S
H245 C189 0.929 . S
H246 C190 0.930 . S
H247 C191 0.930 . S
H248 C194 0.930 . S
H249 C197 0.929 . S
H250 C202 0.929 . S
H251 C203 0.930 . S
H252 C210 0.929 . S
H253 C211 0.930 . S
H254 C212 0.930 . S
H255 C213 0.930 . S
H256 C215 0.929 . S
H257 C216 0.930 . S
H258 C217 0.930 . S
H259 C218 0.930 . S
H260 C222 0.929 . S
H261 C224 0.930 . S
H262 C230 0.929 . S
H263 C231 0.930 . S
Li264 N281 1.990 . S
Li264 O324 1.956 . S
Li264 O325 1.970 . S
Li264 O326 1.961 . S
Li265 N289 1.990 . S
Li265 O324 1.970 . S
Li265 O325 1.956 . S
Li265 O327 1.961 . S
Li266 N311 1.990 . S
Li266 O324 1.961 . S
Li266 O326 1.956 . S
Li266 O327 1.970 . S
Li267 N317 1.990 . S
Li267 O325 1.961 . S
Li267 O326 1.970 . S
Li267 O327 1.956 . S
C268 C270 1.348 . S
C268 C271 1.356 . S
C268 O324 1.325 . S
N269 C272 1.314 . S
N269 C273 1.279 . S
C270 C268 1.348 . S
C270 C272 1.353 . S
C270 H328 0.929 . S
C271 C268 1.356 . S
C271 C273 1.358 . S
C271 H329 0.930 . S
C272 N269 1.314 . S
C272 C270 1.353 . S
C272 H330 0.930 . S
C273 N269 1.279 . S
C273 C271 1.358 . S
C273 H331 0.930 . S
C274 C277 1.348 . S
C274 C278 1.356 . S
C274 O325 1.325 . S
C275 N276 1.279 . S
C275 C278 1.358 . S
C275 H332 0.930 . S
N276 C275 1.279 . S
N276 C279 1.314 . S
C277 C274 1.348 . S
C277 C279 1.353 . S
C277 H333 0.929 . S
C278 C274 1.356 . S
C278 C275 1.358 . S
C278 H334 0.930 . S
C279 N276 1.314 . S
C279 C277 1.353 . S
C279 H335 0.930 . S
C280 N281 1.314 . S
C280 C285 1.353 . S
C280 H286 0.930 . S
N281 Li264 1.990 . S
N281 C280 1.314 . S
N281 C283 1.279 . S
C282 C283 1.358 . S
C282 C284 1.356 . S
C282 H336 0.930 . S
C283 N281 1.279 . S
C283 C282 1.358 . S
C283 H287 0.930 . S
C284 C282 1.356 . S
C284 C285 1.348 . S
C285 C280 1.353 . S
C285 C284 1.348 . S
C285 H337 0.929 . S
H286 C280 0.930 . S
H287 C283 0.930 . S
C288 N289 1.314 . S
C288 C290 1.353 . S
C288 H294 0.930 . S
N289 Li265 1.990 . S
N289 C288 1.314 . S
N289 C292 1.279 . S
C290 C288 1.353 . S
C290 C293 1.348 . S
C290 H338 0.929 . S
C291 C292 1.358 . S
C291 C293 1.356 . S
C291 H339 0.930 . S
C292 N289 1.279 . S
C292 C291 1.358 . S
C292 H295 0.930 . S
C293 C290 1.348 . S
C293 C291 1.356 . S
H294 C288 0.930 . S
H295 C292 0.930 . S
C296 C298 1.348 . S
C296 C299 1.356 . S
C296 O326 1.325 . S
N297 C300 1.314 . S
N297 C301 1.279 . S
C298 C296 1.348 . S
C298 C300 1.353 . S
C298 H340 0.929 . S
C299 C296 1.356 . S
C299 C301 1.358 . S
C299 H341 0.930 . S
C300 N297 1.314 . S
C300 C298 1.353 . S
C300 H342 0.930 . S
C301 N297 1.279 . S
C301 C299 1.358 . S
C301 H343 0.930 . S
C302 C303 1.348 . S
C302 C304 1.356 . S
C302 O327 1.325 . S
C303 C302 1.348 . S
C303 C305 1.353 . S
C303 H344 0.929 . S
C304 C302 1.356 . S
C304 C306 1.358 . S
C304 H345 0.930 . S
C305 C303 1.353 . S
C305 N307 1.314 . S
C305 H346 0.930 . S
C306 C304 1.358 . S
C306 N307 1.279 . S
C306 H347 0.930 . S
N307 C305 1.314 . S
N307 C306 1.279 . S
C308 C310 1.353 . S
C308 N311 1.314 . S
C308 H314 0.930 . S
C309 N311 1.279 . S
C309 C312 1.358 . S
C309 H315 0.930 . S
C310 C308 1.353 . S
C310 C313 1.348 . S
C310 H348 0.929 . S
N311 Li266 1.990 . S
N311 C308 1.314 . S
N311 C309 1.279 . S
C312 C309 1.358 . S
C312 C313 1.356 . S
C312 H349 0.930 . S
C313 C310 1.348 . S
C313 C312 1.356 . S
H314 C308 0.930 . S
H315 C309 0.930 . S
C316 N317 1.314 . S
C316 C318 1.353 . S
C316 H322 0.930 . S
N317 Li267 1.990 . S
N317 C316 1.314 . S
N317 C320 1.279 . S
C318 C316 1.353 . S
C318 C321 1.348 . S
C318 H350 0.929 . S
C319 C320 1.358 . S
C319 C321 1.356 . S
C319 H351 0.930 . S
C320 N317 1.279 . S
C320 C319 1.358 . S
C320 H323 0.930 . S
C321 C318 1.348 . S
C321 C319 1.356 . S
H322 C316 0.930 . S
H323 C320 0.930 . S
O324 Li264 1.956 . S
O324 Li265 1.970 . S
O324 Li266 1.961 . S
O324 C268 1.325 . S
O325 Li264 1.970 . S
O325 Li265 1.956 . S
O325 Li267 1.961 . S
O325 C274 1.325 . S
O326 Li264 1.961 . S
O326 Li266 1.956 . S
O326 Li267 1.970 . S
O326 C296 1.325 . S
O327 Li265 1.961 . S
O327 Li266 1.970 . S
O327 Li267 1.956 . S
O327 C302 1.325 . S
H328 C270 0.929 . S
H329 C271 0.930 . S
H330 C272 0.930 . S
H331 C273 0.930 . S
H332 C275 0.930 . S
H333 C277 0.929 . S
H334 C278 0.930 . S
H335 C279 0.930 . S
H336 C282 0.930 . S
H337 C285 0.929 . S
H338 C290 0.929 . S
H339 C291 0.930 . S
H340 C298 0.929 . S
H341 C299 0.930 . S
H342 C300 0.930 . S
H343 C301 0.930 . S
H344 C303 0.929 . S
H345 C304 0.930 . S
H346 C305 0.930 . S
H347 C306 0.930 . S
H348 C310 0.929 . S
H349 C312 0.930 . S
H350 C318 0.929 . S
H351 C319 0.930 . S
Li352 N369 1.990 . S
Li352 O412 1.956 . S
Li352 O413 1.970 . S
Li352 O414 1.961 1_455 S
Li353 N377 1.990 . S
Li353 O412 1.970 . S
Li353 O413 1.956 . S
Li353 O415 1.961 1_455 S
Li354 N399 1.990 . S
Li354 O412 1.961 1_655 S
Li354 O414 1.956 . S
Li354 O415 1.970 . S
Li355 N405 1.990 . S
Li355 O413 1.961 1_655 S
Li355 O414 1.970 . S
Li355 O415 1.956 . S
C356 C358 1.348 . S
C356 C359 1.356 . S
C356 O412 1.325 . S
N357 C360 1.314 . S
N357 C361 1.279 . S
C358 C356 1.348 . S
C358 C360 1.353 . S
C358 H416 0.929 . S
C359 C356 1.356 . S
C359 C361 1.358 . S
C359 H417 0.930 . S
C360 N357 1.314 . S
C360 C358 1.353 . S
C360 H418 0.930 . S
C361 N357 1.279 . S
C361 C359 1.358 . S
C361 H419 0.930 . S
C362 C365 1.348 . S
C362 C366 1.356 . S
C362 O413 1.325 . S
C363 N364 1.279 . S
C363 C366 1.358 . S
C363 H420 0.930 . S
N364 C363 1.279 . S
N364 C367 1.314 . S
C365 C362 1.348 . S
C365 C367 1.353 . S
C365 H421 0.929 . S
C366 C362 1.356 . S
C366 C363 1.358 . S
C366 H422 0.930 . S
C367 N364 1.314 . S
C367 C365 1.353 . S
C367 H423 0.930 . S
C368 N369 1.314 . S
C368 C373 1.353 . S
C368 H374 0.930 1_455 S
N369 Li352 1.990 . S
N369 C368 1.314 . S
N369 C371 1.279 . S
C370 C371 1.358 . S
C370 C372 1.356 . S
C370 H424 0.930 . S
C371 N369 1.279 . S
C371 C370 1.358 . S
C371 H375 0.930 . S
C372 C370 1.356 . S
C372 C373 1.348 . S
C373 C368 1.353 . S
C373 C372 1.348 . S
C373 H425 0.929 . S
H374 C368 0.930 1_655 S
H375 C371 0.930 . S
C376 N377 1.314 . S
C376 C378 1.353 . S
C376 H382 0.930 . S
N377 Li353 1.990 . S
N377 C376 1.314 . S
N377 C380 1.279 . S
C378 C376 1.353 . S
C378 C381 1.348 . S
C378 H426 0.929 . S
C379 C380 1.358 . S
C379 C381 1.356 . S
C379 H427 0.930 . S
C380 N377 1.279 . S
C380 C379 1.358 . S
C380 H383 0.930 . S
C381 C378 1.348 . S
C381 C379 1.356 . S
H382 C376 0.930 . S
H383 C380 0.930 . S
C384 C386 1.348 . S
C384 C387 1.356 . S
C384 O414 1.325 . S
N385 C388 1.314 . S
N385 C389 1.279 . S
C386 C384 1.348 . S
C386 C388 1.353 . S
C386 H428 0.929 . S
C387 C384 1.356 . S
C387 C389 1.358 . S
C387 H429 0.930 . S
C388 N385 1.314 . S
C388 C386 1.353 . S
C388 H430 0.930 . S
C389 N385 1.279 . S
C389 C387 1.358 . S
C389 H431 0.930 . S
C390 C391 1.348 . S
C390 C392 1.356 . S
C390 O415 1.325 . S
C391 C390 1.348 . S
C391 C393 1.353 . S
C391 H432 0.929 . S
C392 C390 1.356 . S
C392 C394 1.358 . S
C392 H433 0.930 . S
C393 C391 1.353 . S
C393 N395 1.314 . S
C393 H434 0.930 . S
C394 C392 1.358 . S
C394 N395 1.279 . S
C394 H435 0.930 . S
N395 C393 1.314 . S
N395 C394 1.279 . S
C396 C398 1.353 . S
C396 N399 1.314 . S
C396 H402 0.930 1_655 S
C397 N399 1.279 . S
C397 C400 1.358 . S
C397 H403 0.930 . S
C398 C396 1.353 . S
C398 C401 1.348 . S
C398 H436 0.929 . S
N399 Li354 1.990 . S
N399 C396 1.314 . S
N399 C397 1.279 . S
C400 C397 1.358 . S
C400 C401 1.356 . S
C400 H437 0.930 . S
C401 C398 1.348 . S
C401 C400 1.356 . S
H402 C396 0.930 1_455 S
H403 C397 0.930 . S
C404 N405 1.314 . S
C404 C406 1.353 . S
C404 H410 0.930 . S
N405 Li355 1.990 . S
N405 C404 1.314 . S
N405 C408 1.279 . S
C406 C404 1.353 . S
C406 C409 1.348 . S
C406 H438 0.929 . S
C407 C408 1.358 . S
C407 C409 1.356 . S
C407 H439 0.930 . S
C408 N405 1.279 . S
C408 C407 1.358 . S
C408 H411 0.930 . S
C409 C406 1.348 . S
C409 C407 1.356 . S
H410 C404 0.930 . S
H411 C408 0.930 . S
O412 Li352 1.956 . S
O412 Li353 1.970 . S
O412 Li354 1.961 1_455 S
O412 C356 1.325 . S
O413 Li352 1.970 . S
O413 Li353 1.956 . S
O413 Li355 1.961 1_455 S
O413 C362 1.325 . S
O414 Li352 1.961 1_655 S
O414 Li354 1.956 . S
O414 Li355 1.970 . S
O414 C384 1.325 . S
O415 Li353 1.961 1_655 S
O415 Li354 1.970 . S
O415 Li355 1.956 . S
O415 C390 1.325 . S
H416 C358 0.929 . S
H417 C359 0.930 . S
H418 C360 0.930 . S
H419 C361 0.930 . S
H420 C363 0.930 . S
H421 C365 0.929 . S
H422 C366 0.930 . S
H423 C367 0.930 . S
H424 C370 0.930 . S
H425 C373 0.929 . S
H426 C378 0.929 . S
H427 C379 0.930 . S
H428 C386 0.929 . S
H429 C387 0.930 . S
H430 C388 0.930 . S
H431 C389 0.930 . S
H432 C391 0.929 . S
H433 C392 0.930 . S
H434 C393 0.930 . S
H435 C394 0.930 . S
H436 C398 0.929 . S
H437 C400 0.930 . S
H438 C406 0.929 . S
H439 C407 0.930 . S
Li440 N457 1.990 . S
Li440 O500 1.956 . S
Li440 O501 1.970 . S
Li440 O502 1.961 . S
Li441 N465 1.990 . S
Li441 O500 1.970 . S
Li441 O501 1.956 . S
Li441 O503 1.961 . S
Li442 N487 1.990 . S
Li442 O500 1.961 . S
Li442 O502 1.956 . S
Li442 O503 1.970 . S
Li443 N493 1.990 . S
Li443 O501 1.961 . S
Li443 O502 1.970 . S
Li443 O503 1.956 . S
C444 C446 1.348 . S
C444 C447 1.356 . S
C444 O500 1.325 . S
N445 C448 1.314 . S
N445 C449 1.279 . S
C446 C444 1.348 . S
C446 C448 1.353 . S
C446 H504 0.929 . S
C447 C444 1.356 . S
C447 C449 1.358 . S
C447 H505 0.930 . S
C448 N445 1.314 . S
C448 C446 1.353 . S
C448 H506 0.930 . S
C449 N445 1.279 . S
C449 C447 1.358 . S
C449 H507 0.930 . S
C450 C453 1.348 . S
C450 C454 1.356 . S
C450 O501 1.325 . S
C451 N452 1.279 . S
C451 C454 1.358 . S
C451 H508 0.930 . S
N452 C451 1.279 . S
N452 C455 1.314 . S
C453 C450 1.348 . S
C453 C455 1.353 . S
C453 H509 0.929 . S
C454 C450 1.356 . S
C454 C451 1.358 . S
C454 H510 0.930 . S
C455 N452 1.314 . S
C455 C453 1.353 . S
C455 H511 0.930 . S
C456 N457 1.314 . S
C456 C461 1.353 . S
C456 H462 0.930 . S
N457 Li440 1.990 . S
N457 C456 1.314 . S
N457 C459 1.279 . S
C458 C459 1.358 . S
C458 C460 1.356 . S
C458 H512 0.930 . S
C459 N457 1.279 . S
C459 C458 1.358 . S
C459 H463 0.930 . S
C460 C458 1.356 . S
C460 C461 1.348 . S
C461 C456 1.353 . S
C461 C460 1.348 . S
C461 H513 0.929 . S
H462 C456 0.930 . S
H463 C459 0.930 . S
C464 N465 1.314 . S
C464 C466 1.353 . S
C464 H470 0.930 . S
N465 Li441 1.990 . S
N465 C464 1.314 . S
N465 C468 1.279 . S
C466 C464 1.353 . S
C466 C469 1.348 . S
C466 H514 0.929 . S
C467 C468 1.358 . S
C467 C469 1.356 . S
C467 H515 0.930 . S
C468 N465 1.279 . S
C468 C467 1.358 . S
C468 H471 0.930 . S
C469 C466 1.348 . S
C469 C467 1.356 . S
H470 C464 0.930 . S
H471 C468 0.930 . S
C472 C474 1.348 . S
C472 C475 1.356 . S
C472 O502 1.325 . S
N473 C476 1.314 . S
N473 C477 1.279 . S
C474 C472 1.348 . S
C474 C476 1.353 . S
C474 H516 0.929 . S
C475 C472 1.356 . S
C475 C477 1.358 . S
C475 H517 0.930 . S
C476 N473 1.314 . S
C476 C474 1.353 . S
C476 H518 0.930 . S
C477 N473 1.279 . S
C477 C475 1.358 . S
C477 H519 0.930 . S
C478 C479 1.348 . S
C478 C480 1.356 . S
C478 O503 1.325 . S
C479 C478 1.348 . S
C479 C481 1.353 . S
C479 H520 0.929 . S
C480 C478 1.356 . S
C480 C482 1.358 . S
C480 H521 0.930 . S
C481 C479 1.353 . S
C481 N483 1.314 . S
C481 H522 0.930 . S
C482 C480 1.358 . S
C482 N483 1.279 . S
C482 H523 0.930 . S
N483 C481 1.314 . S
N483 C482 1.279 . S
C484 C486 1.353 . S
C484 N487 1.314 . S
C484 H490 0.930 . S
C485 N487 1.279 . S
C485 C488 1.358 . S
C485 H491 0.930 . S
C486 C484 1.353 . S
C486 C489 1.348 . S
C486 H524 0.929 . S
N487 Li442 1.990 . S
N487 C484 1.314 . S
N487 C485 1.279 . S
C488 C485 1.358 . S
C488 C489 1.356 . S
C488 H525 0.930 . S
C489 C486 1.348 . S
C489 C488 1.356 . S
H490 C484 0.930 . S
H491 C485 0.930 . S
C492 N493 1.314 . S
C492 C494 1.353 . S
C492 H498 0.930 . S
N493 Li443 1.990 . S
N493 C492 1.314 . S
N493 C496 1.279 . S
C494 C492 1.353 . S
C494 C497 1.348 . S
C494 H526 0.929 . S
C495 C496 1.358 . S
C495 C497 1.356 . S
C495 H527 0.930 . S
C496 N493 1.279 . S
C496 C495 1.358 . S
C496 H499 0.930 . S
C497 C494 1.348 . S
C497 C495 1.356 . S
H498 C492 0.930 . S
H499 C496 0.930 . S
O500 Li440 1.956 . S
O500 Li441 1.970 . S
O500 Li442 1.961 . S
O500 C444 1.325 . S
O501 Li440 1.970 . S
O501 Li441 1.956 . S
O501 Li443 1.961 . S
O501 C450 1.325 . S
O502 Li440 1.961 . S
O502 Li442 1.956 . S
O502 Li443 1.970 . S
O502 C472 1.325 . S
O503 Li441 1.961 . S
O503 Li442 1.970 . S
O503 Li443 1.956 . S
O503 C478 1.325 . S
H504 C446 0.929 . S
H505 C447 0.930 . S
H506 C448 0.930 . S
H507 C449 0.930 . S
H508 C451 0.930 . S
H509 C453 0.929 . S
H510 C454 0.930 . S
H511 C455 0.930 . S
H512 C458 0.930 . S
H513 C461 0.929 . S
H514 C466 0.929 . S
H515 C467 0.930 . S
H516 C474 0.929 . S
H517 C475 0.930 . S
H518 C476 0.930 . S
H519 C477 0.930 . S
H520 C479 0.929 . S
H521 C480 0.930 . S
H522 C481 0.930 . S
H523 C482 0.930 . S
H524 C486 0.929 . S
H525 C488 0.930 . S
H526 C494 0.929 . S
H527 C495 0.930 . S
Li528 N545 1.990 . S
Li528 O588 1.956 . S
Li528 O589 1.970 . S
Li528 O590 1.961 . S
Li529 N553 1.990 . S
Li529 O588 1.970 . S
Li529 O589 1.956 . S
Li529 O591 1.961 . S
Li530 N575 1.990 . S
Li530 O588 1.961 . S
Li530 O590 1.956 . S
Li530 O591 1.970 . S
Li531 N581 1.990 . S
Li531 O589 1.961 . S
Li531 O590 1.970 . S
Li531 O591 1.956 . S
C532 C534 1.348 . S
C532 C535 1.356 . S
C532 O588 1.325 . S
N533 C536 1.314 . S
N533 C537 1.279 . S
C534 C532 1.348 . S
C534 C536 1.353 . S
C534 H592 0.929 . S
C535 C532 1.356 . S
C535 C537 1.358 . S
C535 H593 0.930 . S
C536 N533 1.314 . S
C536 C534 1.353 . S
C536 H594 0.930 . S
C537 N533 1.279 . S
C537 C535 1.358 . S
C537 H595 0.930 . S
C538 C541 1.348 . S
C538 C542 1.356 . S
C538 O589 1.325 . S
C539 N540 1.279 . S
C539 C542 1.358 . S
C539 H596 0.930 . S
N540 C539 1.279 . S
N540 C543 1.314 . S
C541 C538 1.348 . S
C541 C543 1.353 . S
C541 H597 0.929 . S
C542 C538 1.356 . S
C542 C539 1.358 . S
C542 H598 0.930 . S
C543 N540 1.314 . S
C543 C541 1.353 . S
C543 H599 0.930 . S
C544 N545 1.314 . S
C544 C549 1.353 . S
C544 H550 0.930 . S
N545 Li528 1.990 . S
N545 C544 1.314 . S
N545 C547 1.279 . S
C546 C547 1.358 . S
C546 C548 1.356 . S
C546 H600 0.930 . S
C547 N545 1.279 . S
C547 C546 1.358 . S
C547 H551 0.930 . S
C548 C546 1.356 . S
C548 C549 1.348 . S
C549 C544 1.353 . S
C549 C548 1.348 . S
C549 H601 0.929 . S
H550 C544 0.930 . S
H551 C547 0.930 . S
C552 N553 1.314 . S
C552 C554 1.353 . S
C552 H558 0.930 . S
N553 Li529 1.990 . S
N553 C552 1.314 . S
N553 C556 1.279 . S
C554 C552 1.353 . S
C554 C557 1.348 . S
C554 H602 0.929 . S
C555 C556 1.358 . S
C555 C557 1.356 . S
C555 H603 0.930 . S
C556 N553 1.279 . S
C556 C555 1.358 . S
C556 H559 0.930 . S
C557 C554 1.348 . S
C557 C555 1.356 . S
H558 C552 0.930 . S
H559 C556 0.930 . S
C560 C562 1.348 . S
C560 C563 1.356 . S
C560 O590 1.325 . S
N561 C564 1.314 . S
N561 C565 1.279 . S
C562 C560 1.348 . S
C562 C564 1.353 . S
C562 H604 0.929 . S
C563 C560 1.356 . S
C563 C565 1.358 . S
C563 H605 0.930 . S
C564 N561 1.314 . S
C564 C562 1.353 . S
C564 H606 0.930 . S
C565 N561 1.279 . S
C565 C563 1.358 . S
C565 H607 0.930 . S
C566 C567 1.348 . S
C566 C568 1.356 . S
C566 O591 1.325 . S
C567 C566 1.348 . S
C567 C569 1.353 . S
C567 H608 0.929 . S
C568 C566 1.356 . S
C568 C570 1.358 . S
C568 H609 0.930 . S
C569 C567 1.353 . S
C569 N571 1.314 . S
C569 H610 0.930 . S
C570 C568 1.358 . S
C570 N571 1.279 . S
C570 H611 0.930 . S
N571 C569 1.314 . S
N571 C570 1.279 . S
C572 C574 1.353 . S
C572 N575 1.314 . S
C572 H578 0.930 . S
C573 N575 1.279 . S
C573 C576 1.358 . S
C573 H579 0.930 . S
C574 C572 1.353 . S
C574 C577 1.348 . S
C574 H612 0.929 . S
N575 Li530 1.990 . S
N575 C572 1.314 . S
N575 C573 1.279 . S
C576 C573 1.358 . S
C576 C577 1.356 . S
C576 H613 0.930 . S
C577 C574 1.348 . S
C577 C576 1.356 . S
H578 C572 0.930 . S
H579 C573 0.930 . S
C580 N581 1.314 . S
C580 C582 1.353 . S
C580 H586 0.930 . S
N581 Li531 1.990 . S
N581 C580 1.314 . S
N581 C584 1.279 . S
C582 C580 1.353 . S
C582 C585 1.348 . S
C582 H614 0.929 . S
C583 C584 1.358 . S
C583 C585 1.356 . S
C583 H615 0.930 . S
C584 N581 1.279 . S
C584 C583 1.358 . S
C584 H587 0.930 . S
C585 C582 1.348 . S
C585 C583 1.356 . S
H586 C580 0.930 . S
H587 C584 0.930 . S
O588 Li528 1.956 . S
O588 Li529 1.970 . S
O588 Li530 1.961 . S
O588 C532 1.325 . S
O589 Li528 1.970 . S
O589 Li529 1.956 . S
O589 Li531 1.961 . S
O589 C538 1.325 . S
O590 Li528 1.961 . S
O590 Li530 1.956 . S
O590 Li531 1.970 . S
O590 C560 1.325 . S
O591 Li529 1.961 . S
O591 Li530 1.970 . S
O591 Li531 1.956 . S
O591 C566 1.325 . S
H592 C534 0.929 . S
H593 C535 0.930 . S
H594 C536 0.930 . S
H595 C537 0.930 . S
H596 C539 0.930 . S
H597 C541 0.929 . S
H598 C542 0.930 . S
H599 C543 0.930 . S
H600 C546 0.930 . S
H601 C549 0.929 . S
H602 C554 0.929 . S
H603 C555 0.930 . S
H604 C562 0.929 . S
H605 C563 0.930 . S
H606 C564 0.930 . S
H607 C565 0.930 . S
H608 C567 0.929 . S
H609 C568 0.930 . S
H610 C569 0.930 . S
H611 C570 0.930 . S
H612 C574 0.929 . S
H613 C576 0.930 . S
H614 C582 0.929 . S
H615 C583 0.930 . S
Li616 N633 1.990 . S
Li616 O676 1.956 1_655 S
Li616 O677 1.970 . S
Li616 O678 1.961 . S
Li617 N641 1.990 . S
Li617 O676 1.970 . S
Li617 O677 1.956 1_455 S
Li617 O679 1.961 . S
Li618 N663 1.990 . S
Li618 O676 1.961 . S
Li618 O678 1.956 1_455 S
Li618 O679 1.970 . S
Li619 N669 1.990 . S
Li619 O677 1.961 . S
Li619 O678 1.970 . S
Li619 O679 1.956 1_655 S
C620 C622 1.348 . S
C620 C623 1.356 . S
C620 O676 1.325 . S
N621 C624 1.314 . S
N621 C625 1.279 . S
C622 C620 1.348 . S
C622 C624 1.353 . S
C622 H680 0.929 . S
C623 C620 1.356 . S
C623 C625 1.358 . S
C623 H681 0.930 . S
C624 N621 1.314 . S
C624 C622 1.353 . S
C624 H682 0.930 . S
C625 N621 1.279 . S
C625 C623 1.358 . S
C625 H683 0.930 . S
C626 C629 1.348 . S
C626 C630 1.356 . S
C626 O677 1.325 . S
C627 N628 1.279 . S
C627 C630 1.358 . S
C627 H684 0.930 . S
N628 C627 1.279 . S
N628 C631 1.314 . S
C629 C626 1.348 . S
C629 C631 1.353 . S
C629 H685 0.929 . S
C630 C626 1.356 . S
C630 C627 1.358 . S
C630 H686 0.930 . S
C631 N628 1.314 . S
C631 C629 1.353 . S
C631 H687 0.930 . S
C632 N633 1.314 . S
C632 C637 1.353 . S
C632 H638 0.930 . S
N633 Li616 1.990 . S
N633 C632 1.314 . S
N633 C635 1.279 . S
C634 C635 1.358 . S
C634 C636 1.356 . S
C634 H688 0.930 . S
C635 N633 1.279 . S
C635 C634 1.358 . S
C635 H639 0.930 1_655 S
C636 C634 1.356 . S
C636 C637 1.348 . S
C637 C632 1.353 . S
C637 C636 1.348 . S
C637 H689 0.929 . S
H638 C632 0.930 . S
H639 C635 0.930 1_455 S
C640 N641 1.314 . S
C640 C642 1.353 . S
C640 H646 0.930 . S
N641 Li617 1.990 . S
N641 C640 1.314 . S
N641 C644 1.279 . S
C642 C640 1.353 . S
C642 C645 1.348 . S
C642 H690 0.929 . S
C643 C644 1.358 . S
C643 C645 1.356 . S
C643 H691 0.930 . S
C644 N641 1.279 . S
C644 C643 1.358 . S
C644 H647 0.930 . S
C645 C642 1.348 . S
C645 C643 1.356 . S
H646 C640 0.930 . S
H647 C644 0.930 . S
C648 C650 1.348 . S
C648 C651 1.356 . S
C648 O678 1.325 . S
N649 C652 1.314 . S
N649 C653 1.279 . S
C650 C648 1.348 . S
C650 C652 1.353 . S
C650 H692 0.929 . S
C651 C648 1.356 . S
C651 C653 1.358 . S
C651 H693 0.930 . S
C652 N649 1.314 . S
C652 C650 1.353 . S
C652 H694 0.930 . S
C653 N649 1.279 . S
C653 C651 1.358 . S
C653 H695 0.930 . S
C654 C655 1.348 . S
C654 C656 1.356 . S
C654 O679 1.325 . S
C655 C654 1.348 . S
C655 C657 1.353 . S
C655 H696 0.929 . S
C656 C654 1.356 . S
C656 C658 1.358 . S
C656 H697 0.930 . S
C657 C655 1.353 . S
C657 N659 1.314 . S
C657 H698 0.930 . S
C658 C656 1.358 . S
C658 N659 1.279 . S
C658 H699 0.930 . S
N659 C657 1.314 . S
N659 C658 1.279 . S
C660 C662 1.353 . S
C660 N663 1.314 . S
C660 H666 0.930 . S
C661 N663 1.279 . S
C661 C664 1.358 . S
C661 H667 0.930 1_455 S
C662 C660 1.353 . S
C662 C665 1.348 . S
C662 H700 0.929 . S
N663 Li618 1.990 . S
N663 C660 1.314 . S
N663 C661 1.279 . S
C664 C661 1.358 . S
C664 C665 1.356 . S
C664 H701 0.930 . S
C665 C662 1.348 . S
C665 C664 1.356 . S
H666 C660 0.930 . S
H667 C661 0.930 1_655 S
C668 N669 1.314 . S
C668 C670 1.353 . S
C668 H674 0.930 . S
N669 Li619 1.990 . S
N669 C668 1.314 . S
N669 C672 1.279 . S
C670 C668 1.353 . S
C670 C673 1.348 . S
C670 H702 0.929 . S
C671 C672 1.358 . S
C671 C673 1.356 . S
C671 H703 0.930 . S
C672 N669 1.279 . S
C672 C671 1.358 . S
C672 H675 0.930 . S
C673 C670 1.348 . S
C673 C671 1.356 . S
H674 C668 0.930 . S
H675 C672 0.930 . S
O676 Li616 1.956 1_455 S
O676 Li617 1.970 . S
O676 Li618 1.961 . S
O676 C620 1.325 . S
O677 Li616 1.970 . S
O677 Li617 1.956 1_655 S
O677 Li619 1.961 . S
O677 C626 1.325 . S
O678 Li616 1.961 . S
O678 Li618 1.956 1_655 S
O678 Li619 1.970 . S
O678 C648 1.325 . S
O679 Li617 1.961 . S
O679 Li618 1.970 . S
O679 Li619 1.956 1_455 S
O679 C654 1.325 . S
H680 C622 0.929 . S
H681 C623 0.930 . S
H682 C624 0.930 . S
H683 C625 0.930 . S
H684 C627 0.930 . S
H685 C629 0.929 . S
H686 C630 0.930 . S
H687 C631 0.930 . S
H688 C634 0.930 . S
H689 C637 0.929 . S
H690 C642 0.929 . S
H691 C643 0.930 . S
H692 C650 0.929 . S
H693 C651 0.930 . S
H694 C652 0.930 . S
H695 C653 0.930 . S
H696 C655 0.929 . S
H697 C656 0.930 . S
H698 C657 0.930 . S
H699 C658 0.930 . S
H700 C662 0.929 . S
H701 C664 0.930 . S
H702 C670 0.929 . S
H703 C671 0.930 . S
Li704 N721 1.990 . S
Li704 O764 1.956 . S
Li704 O765 1.970 . S
Li704 O766 1.961 1_545 S
Li705 N729 1.990 . S
Li705 O764 1.970 . S
Li705 O765 1.956 . S
Li705 O767 1.961 1_545 S
Li706 N751 1.990 . S
Li706 O764 1.961 1_565 S
Li706 O766 1.956 . S
Li706 O767 1.970 . S
Li707 N757 1.990 . S
Li707 O765 1.961 1_565 S
Li707 O766 1.970 . S
Li707 O767 1.956 . S
C708 C710 1.348 . S
C708 C711 1.356 . S
C708 O764 1.325 . S
N709 C712 1.314 . S
N709 C713 1.279 . S
C710 C708 1.348 . S
C710 C712 1.353 . S
C710 H768 0.929 . S
C711 C708 1.356 . S
C711 C713 1.358 . S
C711 H769 0.930 . S
C712 N709 1.314 . S
C712 C710 1.353 . S
C712 H770 0.930 . S
C713 N709 1.279 . S
C713 C711 1.358 . S
C713 H771 0.930 . S
C714 C717 1.348 . S
C714 C718 1.356 . S
C714 O765 1.325 . S
C715 N716 1.279 . S
C715 C718 1.358 . S
C715 H772 0.930 . S
N716 C715 1.279 . S
N716 C719 1.314 . S
C717 C714 1.348 . S
C717 C719 1.353 . S
C717 H773 0.929 . S
C718 C714 1.356 . S
C718 C715 1.358 . S
C718 H774 0.930 . S
C719 N716 1.314 . S
C719 C717 1.353 . S
C719 H775 0.930 . S
C720 N721 1.314 . S
C720 C725 1.353 . S
C720 H726 0.930 . S
N721 Li704 1.990 . S
N721 C720 1.314 . S
N721 C723 1.279 . S
C722 C723 1.358 . S
C722 C724 1.356 . S
C722 H776 0.930 . S
C723 N721 1.279 . S
C723 C722 1.358 . S
C723 H727 0.930 . S
C724 C722 1.356 . S
C724 C725 1.348 . S
C725 C720 1.353 . S
C725 C724 1.348 . S
C725 H777 0.929 . S
H726 C720 0.930 . S
H727 C723 0.930 . S
C728 N729 1.314 . S
C728 C730 1.353 . S
C728 H734 0.930 1_545 S
N729 Li705 1.990 . S
N729 C728 1.314 . S
N729 C732 1.279 . S
C730 C728 1.353 . S
C730 C733 1.348 . S
C730 H778 0.929 . S
C731 C732 1.358 . S
C731 C733 1.356 . S
C731 H779 0.930 . S
C732 N729 1.279 . S
C732 C731 1.358 . S
C732 H735 0.930 . S
C733 C730 1.348 . S
C733 C731 1.356 . S
H734 C728 0.930 1_565 S
H735 C732 0.930 . S
C736 C738 1.348 . S
C736 C739 1.356 . S
C736 O766 1.325 . S
N737 C740 1.314 . S
N737 C741 1.279 . S
C738 C736 1.348 . S
C738 C740 1.353 . S
C738 H780 0.929 . S
C739 C736 1.356 . S
C739 C741 1.358 . S
C739 H781 0.930 . S
C740 N737 1.314 . S
C740 C738 1.353 . S
C740 H782 0.930 . S
C741 N737 1.279 . S
C741 C739 1.358 . S
C741 H783 0.930 . S
C742 C743 1.348 . S
C742 C744 1.356 . S
C742 O767 1.325 . S
C743 C742 1.348 . S
C743 C745 1.353 . S
C743 H784 0.929 . S
C744 C742 1.356 . S
C744 C746 1.358 . S
C744 H785 0.930 . S
C745 C743 1.353 . S
C745 N747 1.314 . S
C745 H786 0.930 . S
C746 C744 1.358 . S
C746 N747 1.279 . S
C746 H787 0.930 . S
N747 C745 1.314 . S
N747 C746 1.279 . S
C748 C750 1.353 . S
C748 N751 1.314 . S
C748 H754 0.930 . S
C749 N751 1.279 . S
C749 C752 1.358 . S
C749 H755 0.930 . S
C750 C748 1.353 . S
C750 C753 1.348 . S
C750 H788 0.929 . S
N751 Li706 1.990 . S
N751 C748 1.314 . S
N751 C749 1.279 . S
C752 C749 1.358 . S
C752 C753 1.356 . S
C752 H789 0.930 . S
C753 C750 1.348 . S
C753 C752 1.356 . S
H754 C748 0.930 . S
H755 C749 0.930 . S
C756 N757 1.314 . S
C756 C758 1.353 . S
C756 H762 0.930 1_565 S
N757 Li707 1.990 . S
N757 C756 1.314 . S
N757 C760 1.279 . S
C758 C756 1.353 . S
C758 C761 1.348 . S
C758 H790 0.929 . S
C759 C760 1.358 . S
C759 C761 1.356 . S
C759 H791 0.930 . S
C760 N757 1.279 . S
C760 C759 1.358 . S
C760 H763 0.930 . S
C761 C758 1.348 . S
C761 C759 1.356 . S
H762 C756 0.930 1_545 S
H763 C760 0.930 . S
O764 Li704 1.956 . S
O764 Li705 1.970 . S
O764 Li706 1.961 1_545 S
O764 C708 1.325 . S
O765 Li704 1.970 . S
O765 Li705 1.956 . S
O765 Li707 1.961 1_545 S
O765 C714 1.325 . S
O766 Li704 1.961 1_565 S
O766 Li706 1.956 . S
O766 Li707 1.970 . S
O766 C736 1.325 . S
O767 Li705 1.961 1_565 S
O767 Li706 1.970 . S
O767 Li707 1.956 . S
O767 C742 1.325 . S
H768 C710 0.929 . S
H769 C711 0.930 . S
H770 C712 0.930 . S
H771 C713 0.930 . S
H772 C715 0.930 . S
H773 C717 0.929 . S
H774 C718 0.930 . S
H775 C719 0.930 . S
H776 C722 0.930 . S
H777 C725 0.929 . S
H778 C730 0.929 . S
H779 C731 0.930 . S
H780 C738 0.929 . S
H781 C739 0.930 . S
H782 C740 0.930 . S
H783 C741 0.930 . S
H784 C743 0.929 . S
H785 C744 0.930 . S
H786 C745 0.930 . S
H787 C746 0.930 . S
H788 C750 0.929 . S
H789 C752 0.930 . S
H790 C758 0.929 . S
H791 C759 0.930 . S
Li792 N809 1.990 . S
Li792 O852 1.956 . S
Li792 O853 1.970 . S
Li792 O854 1.961 . S
Li793 N817 1.990 . S
Li793 O852 1.970 . S
Li793 O853 1.956 . S
Li793 O855 1.961 . S
Li794 N839 1.990 . S
Li794 O852 1.961 . S
Li794 O854 1.956 . S
Li794 O855 1.970 . S
Li795 N845 1.990 . S
Li795 O853 1.961 . S
Li795 O854 1.970 . S
Li795 O855 1.956 . S
C796 C798 1.348 . S
C796 C799 1.356 . S
C796 O852 1.325 . S
N797 C800 1.314 . S
N797 C801 1.279 . S
C798 C796 1.348 . S
C798 C800 1.353 . S
C798 H856 0.929 . S
C799 C796 1.356 . S
C799 C801 1.358 . S
C799 H857 0.930 . S
C800 N797 1.314 . S
C800 C798 1.353 . S
C800 H858 0.930 . S
C801 N797 1.279 . S
C801 C799 1.358 . S
C801 H859 0.930 . S
C802 C805 1.348 . S
C802 C806 1.356 . S
C802 O853 1.325 . S
C803 N804 1.279 . S
C803 C806 1.358 . S
C803 H860 0.930 . S
N804 C803 1.279 . S
N804 C807 1.314 . S
C805 C802 1.348 . S
C805 C807 1.353 . S
C805 H861 0.929 . S
C806 C802 1.356 . S
C806 C803 1.358 . S
C806 H862 0.930 . S
C807 N804 1.314 . S
C807 C805 1.353 . S
C807 H863 0.930 . S
C808 N809 1.314 . S
C808 C813 1.353 . S
C808 H814 0.930 . S
N809 Li792 1.990 . S
N809 C808 1.314 . S
N809 C811 1.279 . S
C810 C811 1.358 . S
C810 C812 1.356 . S
C810 H864 0.930 . S
C811 N809 1.279 . S
C811 C810 1.358 . S
C811 H815 0.930 . S
C812 C810 1.356 . S
C812 C813 1.348 . S
C813 C808 1.353 . S
C813 C812 1.348 . S
C813 H865 0.929 . S
H814 C808 0.930 . S
H815 C811 0.930 . S
C816 N817 1.314 . S
C816 C818 1.353 . S
C816 H822 0.930 . S
N817 Li793 1.990 . S
N817 C816 1.314 . S
N817 C820 1.279 . S
C818 C816 1.353 . S
C818 C821 1.348 . S
C818 H866 0.929 . S
C819 C820 1.358 . S
C819 C821 1.356 . S
C819 H867 0.930 . S
C820 N817 1.279 . S
C820 C819 1.358 . S
C820 H823 0.930 . S
C821 C818 1.348 . S
C821 C819 1.356 . S
H822 C816 0.930 . S
H823 C820 0.930 . S
C824 C826 1.348 . S
C824 C827 1.356 . S
C824 O854 1.325 . S
N825 C828 1.314 . S
N825 C829 1.279 . S
C826 C824 1.348 . S
C826 C828 1.353 . S
C826 H868 0.929 . S
C827 C824 1.356 . S
C827 C829 1.358 . S
C827 H869 0.930 . S
C828 N825 1.314 . S
C828 C826 1.353 . S
C828 H870 0.930 . S
C829 N825 1.279 . S
C829 C827 1.358 . S
C829 H871 0.930 . S
C830 C831 1.348 . S
C830 C832 1.356 . S
C830 O855 1.325 . S
C831 C830 1.348 . S
C831 C833 1.353 . S
C831 H872 0.929 . S
C832 C830 1.356 . S
C832 C834 1.358 . S
C832 H873 0.930 . S
C833 C831 1.353 . S
C833 N835 1.314 . S
C833 H874 0.930 . S
C834 C832 1.358 . S
C834 N835 1.279 . S
C834 H875 0.930 . S
N835 C833 1.314 . S
N835 C834 1.279 . S
C836 C838 1.353 . S
C836 N839 1.314 . S
C836 H842 0.930 . S
C837 N839 1.279 . S
C837 C840 1.358 . S
C837 H843 0.930 . S
C838 C836 1.353 . S
C838 C841 1.348 . S
C838 H876 0.929 . S
N839 Li794 1.990 . S
N839 C836 1.314 . S
N839 C837 1.279 . S
C840 C837 1.358 . S
C840 C841 1.356 . S
C840 H877 0.930 . S
C841 C838 1.348 . S
C841 C840 1.356 . S
H842 C836 0.930 . S
H843 C837 0.930 . S
C844 N845 1.314 . S
C844 C846 1.353 . S
C844 H850 0.930 . S
N845 Li795 1.990 . S
N845 C844 1.314 . S
N845 C848 1.279 . S
C846 C844 1.353 . S
C846 C849 1.348 . S
C846 H878 0.929 . S
C847 C848 1.358 . S
C847 C849 1.356 . S
C847 H879 0.930 . S
C848 N845 1.279 . S
C848 C847 1.358 . S
C848 H851 0.930 . S
C849 C846 1.348 . S
C849 C847 1.356 . S
H850 C844 0.930 . S
H851 C848 0.930 . S
O852 Li792 1.956 . S
O852 Li793 1.970 . S
O852 Li794 1.961 . S
O852 C796 1.325 . S
O853 Li792 1.970 . S
O853 Li793 1.956 . S
O853 Li795 1.961 . S
O853 C802 1.325 . S
O854 Li792 1.961 . S
O854 Li794 1.956 . S
O854 Li795 1.970 . S
O854 C824 1.325 . S
O855 Li793 1.961 . S
O855 Li794 1.970 . S
O855 Li795 1.956 . S
O855 C830 1.325 . S
H856 C798 0.929 . S
H857 C799 0.930 . S
H858 C800 0.930 . S
H859 C801 0.930 . S
H860 C803 0.930 . S
H861 C805 0.929 . S
H862 C806 0.930 . S
H863 C807 0.930 . S
H864 C810 0.930 . S
H865 C813 0.929 . S
H866 C818 0.929 . S
H867 C819 0.930 . S
H868 C826 0.929 . S
H869 C827 0.930 . S
H870 C828 0.930 . S
H871 C829 0.930 . S
H872 C831 0.929 . S
H873 C832 0.930 . S
H874 C833 0.930 . S
H875 C834 0.930 . S
H876 C838 0.929 . S
H877 C840 0.930 . S
H878 C846 0.929 . S
H879 C847 0.930 . S
Li880 N897 1.990 . S
Li880 O940 1.956 . S
Li880 O941 1.970 . S
Li880 O942 1.961 1_545 S
Li881 N905 1.990 . S
Li881 O940 1.970 . S
Li881 O941 1.956 . S
Li881 O943 1.961 1_545 S
Li882 N927 1.990 . S
Li882 O940 1.961 1_565 S
Li882 O942 1.956 . S
Li882 O943 1.970 . S
Li883 N933 1.990 . S
Li883 O941 1.961 1_565 S
Li883 O942 1.970 . S
Li883 O943 1.956 . S
C884 C886 1.348 . S
C884 C887 1.356 . S
C884 O940 1.325 . S
N885 C888 1.314 . S
N885 C889 1.279 . S
C886 C884 1.348 . S
C886 C888 1.353 . S
C886 H944 0.929 . S
C887 C884 1.356 . S
C887 C889 1.358 . S
C887 H945 0.930 . S
C888 N885 1.314 . S
C888 C886 1.353 . S
C888 H946 0.930 . S
C889 N885 1.279 . S
C889 C887 1.358 . S
C889 H947 0.930 . S
C890 C893 1.348 . S
C890 C894 1.356 . S
C890 O941 1.325 . S
C891 N892 1.279 . S
C891 C894 1.358 . S
C891 H948 0.930 . S
N892 C891 1.279 . S
N892 C895 1.314 . S
C893 C890 1.348 . S
C893 C895 1.353 . S
C893 H949 0.929 . S
C894 C890 1.356 . S
C894 C891 1.358 . S
C894 H950 0.930 . S
C895 N892 1.314 . S
C895 C893 1.353 . S
C895 H951 0.930 . S
C896 N897 1.314 . S
C896 C901 1.353 . S
C896 H902 0.930 1_545 S
N897 Li880 1.990 . S
N897 C896 1.314 . S
N897 C899 1.279 . S
C898 C899 1.358 . S
C898 C900 1.356 . S
C898 H952 0.930 . S
C899 N897 1.279 . S
C899 C898 1.358 . S
C899 H903 0.930 . S
C900 C898 1.356 . S
C900 C901 1.348 . S
C901 C896 1.353 . S
C901 C900 1.348 . S
C901 H953 0.929 . S
H902 C896 0.930 1_565 S
H903 C899 0.930 . S
C904 N905 1.314 . S
C904 C906 1.353 . S
C904 H910 0.930 . S
N905 Li881 1.990 . S
N905 C904 1.314 . S
N905 C908 1.279 . S
C906 C904 1.353 . S
C906 C909 1.348 . S
C906 H954 0.929 . S
C907 C908 1.358 . S
C907 C909 1.356 . S
C907 H955 0.930 . S
C908 N905 1.279 . S
C908 C907 1.358 . S
C908 H911 0.930 . S
C909 C906 1.348 . S
C909 C907 1.356 . S
H910 C904 0.930 . S
H911 C908 0.930 . S
C912 C914 1.348 . S
C912 C915 1.356 . S
C912 O942 1.325 . S
N913 C916 1.314 . S
N913 C917 1.279 . S
C914 C912 1.348 . S
C914 C916 1.353 . S
C914 H956 0.929 . S
C915 C912 1.356 . S
C915 C917 1.358 . S
C915 H957 0.930 . S
C916 N913 1.314 . S
C916 C914 1.353 . S
C916 H958 0.930 . S
C917 N913 1.279 . S
C917 C915 1.358 . S
C917 H959 0.930 . S
C918 C919 1.348 . S
C918 C920 1.356 . S
C918 O943 1.325 . S
C919 C918 1.348 . S
C919 C921 1.353 . S
C919 H960 0.929 . S
C920 C918 1.356 . S
C920 C922 1.358 . S
C920 H961 0.930 . S
C921 C919 1.353 . S
C921 N923 1.314 . S
C921 H962 0.930 . S
C922 C920 1.358 . S
C922 N923 1.279 . S
C922 H963 0.930 . S
N923 C921 1.314 . S
N923 C922 1.279 . S
C924 C926 1.353 . S
C924 N927 1.314 . S
C924 H930 0.930 1_565 S
C925 N927 1.279 . S
C925 C928 1.358 . S
C925 H931 0.930 . S
C926 C924 1.353 . S
C926 C929 1.348 . S
C926 H964 0.929 . S
N927 Li882 1.990 . S
N927 C924 1.314 . S
N927 C925 1.279 . S
C928 C925 1.358 . S
C928 C929 1.356 . S
C928 H965 0.930 . S
C929 C926 1.348 . S
C929 C928 1.356 . S
H930 C924 0.930 1_545 S
H931 C925 0.930 . S
C932 N933 1.314 . S
C932 C934 1.353 . S
C932 H938 0.930 . S
N933 Li883 1.990 . S
N933 C932 1.314 . S
N933 C936 1.279 . S
C934 C932 1.353 . S
C934 C937 1.348 . S
C934 H966 0.929 . S
C935 C936 1.358 . S
C935 C937 1.356 . S
C935 H967 0.930 . S
C936 N933 1.279 . S
C936 C935 1.358 . S
C936 H939 0.930 . S
C937 C934 1.348 . S
C937 C935 1.356 . S
H938 C932 0.930 . S
H939 C936 0.930 . S
O940 Li880 1.956 . S
O940 Li881 1.970 . S
O940 Li882 1.961 1_545 S
O940 C884 1.325 . S
O941 Li880 1.970 . S
O941 Li881 1.956 . S
O941 Li883 1.961 1_545 S
O941 C890 1.325 . S
O942 Li880 1.961 1_565 S
O942 Li882 1.956 . S
O942 Li883 1.970 . S
O942 C912 1.325 . S
O943 Li881 1.961 1_565 S
O943 Li882 1.970 . S
O943 Li883 1.956 . S
O943 C918 1.325 . S
H944 C886 0.929 . S
H945 C887 0.930 . S
H946 C888 0.930 . S
H947 C889 0.930 . S
H948 C891 0.930 . S
H949 C893 0.929 . S
H950 C894 0.930 . S
H951 C895 0.930 . S
H952 C898 0.930 . S
H953 C901 0.929 . S
H954 C906 0.929 . S
H955 C907 0.930 . S
H956 C914 0.929 . S
H957 C915 0.930 . S
H958 C916 0.930 . S
H959 C917 0.930 . S
H960 C919 0.929 . S
H961 C920 0.930 . S
H962 C921 0.930 . S
H963 C922 0.930 . S
H964 C926 0.929 . S
H965 C928 0.930 . S
H966 C934 0.929 . S
H967 C935 0.930 . S
Li968 N985 1.990 . S
Li968 O1028 1.956 1_556 S
Li968 O1029 1.970 . S
Li968 O1030 1.961 . S
Li969 N993 1.990 . S
Li969 O1028 1.970 . S
Li969 O1029 1.956 1_554 S
Li969 O1031 1.961 . S
Li970 N1015 1.990 . S
Li970 O1028 1.961 . S
Li970 O1030 1.956 1_554 S
Li970 O1031 1.970 . S
Li971 N1021 1.990 . S
Li971 O1029 1.961 . S
Li971 O1030 1.970 . S
Li971 O1031 1.956 1_556 S
C972 C974 1.348 . S
C972 C975 1.356 . S
C972 O1028 1.325 . S
N973 C976 1.314 . S
N973 C977 1.279 . S
C974 C972 1.348 . S
C974 C976 1.353 . S
C974 H1032 0.929 . S
C975 C972 1.356 . S
C975 C977 1.358 . S
C975 H1033 0.930 . S
C976 N973 1.314 . S
C976 C974 1.353 . S
C976 H1034 0.930 . S
C977 N973 1.279 . S
C977 C975 1.358 . S
C977 H1035 0.930 . S
C978 C981 1.348 . S
C978 C982 1.356 . S
C978 O1029 1.325 . S
C979 N980 1.279 . S
C979 C982 1.358 . S
C979 H1036 0.930 . S
N980 C979 1.279 . S
N980 C983 1.314 . S
C981 C978 1.348 . S
C981 C983 1.353 . S
C981 H1037 0.929 . S
C982 C978 1.356 . S
C982 C979 1.358 . S
C982 H1038 0.930 . S
C983 N980 1.314 . S
C983 C981 1.353 . S
C983 H1039 0.930 . S
C984 N985 1.314 . S
C984 C989 1.353 . S
C984 H990 0.930 . S
N985 Li968 1.990 . S
N985 C984 1.314 . S
N985 C987 1.279 . S
C986 C987 1.358 . S
C986 C988 1.356 . S
C986 H1040 0.930 . S
C987 N985 1.279 . S
C987 C986 1.358 . S
C987 H991 0.930 1_556 S
C988 C986 1.356 . S
C988 C989 1.348 . S
C989 C984 1.353 . S
C989 C988 1.348 . S
C989 H1041 0.929 . S
H990 C984 0.930 . S
H991 C987 0.930 1_554 S
C992 N993 1.314 . S
C992 C994 1.353 . S
C992 H998 0.930 . S
N993 Li969 1.990 . S
N993 C992 1.314 . S
N993 C996 1.279 . S
C994 C992 1.353 . S
C994 C997 1.348 . S
C994 H1042 0.929 . S
C995 C996 1.358 . S
C995 C997 1.356 . S
C995 H1043 0.930 . S
C996 N993 1.279 . S
C996 C995 1.358 . S
C996 H999 0.930 . S
C997 C994 1.348 . S
C997 C995 1.356 . S
H998 C992 0.930 . S
H999 C996 0.930 . S
C1000 C1002 1.348 . S
C1000 C1003 1.356 . S
C1000 O1030 1.325 . S
N1001 C1004 1.314 . S
N1001 C1005 1.279 . S
C1002 C1000 1.348 . S
C1002 C1004 1.353 . S
C1002 H1044 0.929 . S
C1003 C1000 1.356 . S
C1003 C1005 1.358 . S
C1003 H1045 0.930 . S
C1004 N1001 1.314 . S
C1004 C1002 1.353 . S
C1004 H1046 0.930 . S
C1005 N1001 1.279 . S
C1005 C1003 1.358 . S
C1005 H1047 0.930 . S
C1006 C1007 1.348 . S
C1006 C1008 1.356 . S
C1006 O1031 1.325 . S
C1007 C1006 1.348 . S
C1007 C1009 1.353 . S
C1007 H1048 0.929 . S
C1008 C1006 1.356 . S
C1008 C1010 1.358 . S
C1008 H1049 0.930 . S
C1009 C1007 1.353 . S
C1009 N1011 1.314 . S
C1009 H1050 0.930 . S
C1010 C1008 1.358 . S
C1010 N1011 1.279 . S
C1010 H1051 0.930 . S
N1011 C1009 1.314 . S
N1011 C1010 1.279 . S
C1012 C1014 1.353 . S
C1012 N1015 1.314 . S
C1012 H1018 0.930 . S
C1013 N1015 1.279 . S
C1013 C1016 1.358 . S
C1013 H1019 0.930 1_554 S
C1014 C1012 1.353 . S
C1014 C1017 1.348 . S
C1014 H1052 0.929 . S
N1015 Li970 1.990 . S
N1015 C1012 1.314 . S
N1015 C1013 1.279 . S
C1016 C1013 1.358 . S
C1016 C1017 1.356 . S
C1016 H1053 0.930 . S
C1017 C1014 1.348 . S
C1017 C1016 1.356 . S
H1018 C1012 0.930 . S
H1019 C1013 0.930 1_556 S
C1020 N1021 1.314 . S
C1020 C1022 1.353 . S
C1020 H1026 0.930 . S
N1021 Li971 1.990 . S
N1021 C1020 1.314 . S
N1021 C1024 1.279 . S
C1022 C1020 1.353 . S
C1022 C1025 1.348 . S
C1022 H1054 0.929 . S
C1023 C1024 1.358 . S
C1023 C1025 1.356 . S
C1023 H1055 0.930 . S
C1024 N1021 1.279 . S
C1024 C1023 1.358 . S
C1024 H1027 0.930 . S
C1025 C1022 1.348 . S
C1025 C1023 1.356 . S
H1026 C1020 0.930 . S
H1027 C1024 0.930 . S
O1028 Li968 1.956 1_554 S
O1028 Li969 1.970 . S
O1028 Li970 1.961 . S
O1028 C972 1.325 . S
O1029 Li968 1.970 . S
O1029 Li969 1.956 1_556 S
O1029 Li971 1.961 . S
O1029 C978 1.325 . S
O1030 Li968 1.961 . S
O1030 Li970 1.956 1_556 S
O1030 Li971 1.970 . S
O1030 C1000 1.325 . S
O1031 Li969 1.961 . S
O1031 Li970 1.970 . S
O1031 Li971 1.956 1_554 S
O1031 C1006 1.325 . S
H1032 C974 0.929 . S
H1033 C975 0.930 . S
H1034 C976 0.930 . S
H1035 C977 0.930 . S
H1036 C979 0.930 . S
H1037 C981 0.929 . S
H1038 C982 0.930 . S
H1039 C983 0.930 . S
H1040 C986 0.930 . S
H1041 C989 0.929 . S
H1042 C994 0.929 . S
H1043 C995 0.930 . S
H1044 C1002 0.929 . S
H1045 C1003 0.930 . S
H1046 C1004 0.930 . S
H1047 C1005 0.930 . S
H1048 C1007 0.929 . S
H1049 C1008 0.930 . S
H1050 C1009 0.930 . S
H1051 C1010 0.930 . S
H1052 C1014 0.929 . S
H1053 C1016 0.930 . S
H1054 C1022 0.929 . S
H1055 C1023 0.930 . S
Li1056 N1073 1.990 . S
Li1056 O1116 1.956 . S
Li1056 O1117 1.970 . S
Li1056 O1118 1.961 1_554 S
Li1057 N1081 1.990 . S
Li1057 O1116 1.970 . S
Li1057 O1117 1.956 . S
Li1057 O1119 1.961 1_554 S
Li1058 N1103 1.990 . S
Li1058 O1116 1.961 1_556 S
Li1058 O1118 1.956 . S
Li1058 O1119 1.970 . S
Li1059 N1109 1.990 . S
Li1059 O1117 1.961 1_556 S
Li1059 O1118 1.970 . S
Li1059 O1119 1.956 . S
C1060 C1062 1.348 . S
C1060 C1063 1.356 . S
C1060 O1116 1.325 . S
N1061 C1064 1.314 . S
N1061 C1065 1.279 . S
C1062 C1060 1.348 . S
C1062 C1064 1.353 . S
C1062 H1120 0.929 . S
C1063 C1060 1.356 . S
C1063 C1065 1.358 . S
C1063 H1121 0.930 . S
C1064 N1061 1.314 . S
C1064 C1062 1.353 . S
C1064 H1122 0.930 . S
C1065 N1061 1.279 . S
C1065 C1063 1.358 . S
C1065 H1123 0.930 . S
C1066 C1069 1.348 . S
C1066 C1070 1.356 . S
C1066 O1117 1.325 . S
C1067 N1068 1.279 . S
C1067 C1070 1.358 . S
C1067 H1124 0.930 . S
N1068 C1067 1.279 . S
N1068 C1071 1.314 . S
C1069 C1066 1.348 . S
C1069 C1071 1.353 . S
C1069 H1125 0.929 . S
C1070 C1066 1.356 . S
C1070 C1067 1.358 . S
C1070 H1126 0.930 . S
C1071 N1068 1.314 . S
C1071 C1069 1.353 . S
C1071 H1127 0.930 . S
C1072 N1073 1.314 . S
C1072 C1077 1.353 . S
C1072 H1078 0.930 . S
N1073 Li1056 1.990 . S
N1073 C1072 1.314 . S
N1073 C1075 1.279 . S
C1074 C1075 1.358 . S
C1074 C1076 1.356 . S
C1074 H1128 0.930 . S
C1075 N1073 1.279 . S
C1075 C1074 1.358 . S
C1075 H1079 0.930 . S
C1076 C1074 1.356 . S
C1076 C1077 1.348 . S
C1077 C1072 1.353 . S
C1077 C1076 1.348 . S
C1077 H1129 0.929 . S
H1078 C1072 0.930 . S
H1079 C1075 0.930 . S
C1080 N1081 1.314 . S
C1080 C1082 1.353 . S
C1080 H1086 0.930 1_554 S
N1081 Li1057 1.990 . S
N1081 C1080 1.314 . S
N1081 C1084 1.279 . S
C1082 C1080 1.353 . S
C1082 C1085 1.348 . S
C1082 H1130 0.929 . S
C1083 C1084 1.358 . S
C1083 C1085 1.356 . S
C1083 H1131 0.930 . S
C1084 N1081 1.279 . S
C1084 C1083 1.358 . S
C1084 H1087 0.930 . S
C1085 C1082 1.348 . S
C1085 C1083 1.356 . S
H1086 C1080 0.930 1_556 S
H1087 C1084 0.930 . S
C1088 C1090 1.348 . S
C1088 C1091 1.356 . S
C1088 O1118 1.325 . S
N1089 C1092 1.314 . S
N1089 C1093 1.279 . S
C1090 C1088 1.348 . S
C1090 C1092 1.353 . S
C1090 H1132 0.929 . S
C1091 C1088 1.356 . S
C1091 C1093 1.358 . S
C1091 H1133 0.930 . S
C1092 N1089 1.314 . S
C1092 C1090 1.353 . S
C1092 H1134 0.930 . S
C1093 N1089 1.279 . S
C1093 C1091 1.358 . S
C1093 H1135 0.930 . S
C1094 C1095 1.348 . S
C1094 C1096 1.356 . S
C1094 O1119 1.325 . S
C1095 C1094 1.348 . S
C1095 C1097 1.353 . S
C1095 H1136 0.929 . S
C1096 C1094 1.356 . S
C1096 C1098 1.358 . S
C1096 H1137 0.930 . S
C1097 C1095 1.353 . S
C1097 N1099 1.314 . S
C1097 H1138 0.930 . S
C1098 C1096 1.358 . S
C1098 N1099 1.279 . S
C1098 H1139 0.930 . S
N1099 C1097 1.314 . S
N1099 C1098 1.279 . S
C1100 C1102 1.353 . S
C1100 N1103 1.314 . S
C1100 H1106 0.930 . S
C1101 N1103 1.279 . S
C1101 C1104 1.358 . S
C1101 H1107 0.930 . S
C1102 C1100 1.353 . S
C1102 C1105 1.348 . S
C1102 H1140 0.929 . S
N1103 Li1058 1.990 . S
N1103 C1100 1.314 . S
N1103 C1101 1.279 . S
C1104 C1101 1.358 . S
C1104 C1105 1.356 . S
C1104 H1141 0.930 . S
C1105 C1102 1.348 . S
C1105 C1104 1.356 . S
H1106 C1100 0.930 . S
H1107 C1101 0.930 . S
C1108 N1109 1.314 . S
C1108 C1110 1.353 . S
C1108 H1114 0.930 1_556 S
N1109 Li1059 1.990 . S
N1109 C1108 1.314 . S
N1109 C1112 1.279 . S
C1110 C1108 1.353 . S
C1110 C1113 1.348 . S
C1110 H1142 0.929 . S
C1111 C1112 1.358 . S
C1111 C1113 1.356 . S
C1111 H1143 0.930 . S
C1112 N1109 1.279 . S
C1112 C1111 1.358 . S
C1112 H1115 0.930 . S
C1113 C1110 1.348 . S
C1113 C1111 1.356 . S
H1114 C1108 0.930 1_554 S
H1115 C1112 0.930 . S
O1116 Li1056 1.956 . S
O1116 Li1057 1.970 . S
O1116 Li1058 1.961 1_554 S
O1116 C1060 1.325 . S
O1117 Li1056 1.970 . S
O1117 Li1057 1.956 . S
O1117 Li1059 1.961 1_554 S
O1117 C1066 1.325 . S
O1118 Li1056 1.961 1_556 S
O1118 Li1058 1.956 . S
O1118 Li1059 1.970 . S
O1118 C1088 1.325 . S
O1119 Li1057 1.961 1_556 S
O1119 Li1058 1.970 . S
O1119 Li1059 1.956 . S
O1119 C1094 1.325 . S
H1120 C1062 0.929 . S
H1121 C1063 0.930 . S
H1122 C1064 0.930 . S
H1123 C1065 0.930 . S
H1124 C1067 0.930 . S
H1125 C1069 0.929 . S
H1126 C1070 0.930 . S
H1127 C1071 0.930 . S
H1128 C1074 0.930 . S
H1129 C1077 0.929 . S
H1130 C1082 0.929 . S
H1131 C1083 0.930 . S
H1132 C1090 0.929 . S
H1133 C1091 0.930 . S
H1134 C1092 0.930 . S
H1135 C1093 0.930 . S
H1136 C1095 0.929 . S
H1137 C1096 0.930 . S
H1138 C1097 0.930 . S
H1139 C1098 0.930 . S
H1140 C1102 0.929 . S
H1141 C1104 0.930 . S
H1142 C1110 0.929 . S
H1143 C1111 0.930 . S
Li1144 N1161 1.990 . S
Li1144 O1204 1.956 . S
Li1144 O1205 1.970 . S
Li1144 O1206 1.961 1_554 S
Li1145 N1169 1.990 . S
Li1145 O1204 1.970 . S
Li1145 O1205 1.956 . S
Li1145 O1207 1.961 1_554 S
Li1146 N1191 1.990 . S
Li1146 O1204 1.961 1_556 S
Li1146 O1206 1.956 . S
Li1146 O1207 1.970 . S
Li1147 N1197 1.990 . S
Li1147 O1205 1.961 1_556 S
Li1147 O1206 1.970 . S
Li1147 O1207 1.956 . S
C1148 C1150 1.348 . S
C1148 C1151 1.356 . S
C1148 O1204 1.325 . S
N1149 C1152 1.314 . S
N1149 C1153 1.279 . S
C1150 C1148 1.348 . S
C1150 C1152 1.353 . S
C1150 H1208 0.929 . S
C1151 C1148 1.356 . S
C1151 C1153 1.358 . S
C1151 H1209 0.930 . S
C1152 N1149 1.314 . S
C1152 C1150 1.353 . S
C1152 H1210 0.930 . S
C1153 N1149 1.279 . S
C1153 C1151 1.358 . S
C1153 H1211 0.930 . S
C1154 C1157 1.348 . S
C1154 C1158 1.356 . S
C1154 O1205 1.325 . S
C1155 N1156 1.279 . S
C1155 C1158 1.358 . S
C1155 H1212 0.930 . S
N1156 C1155 1.279 . S
N1156 C1159 1.314 . S
C1157 C1154 1.348 . S
C1157 C1159 1.353 . S
C1157 H1213 0.929 . S
C1158 C1154 1.356 . S
C1158 C1155 1.358 . S
C1158 H1214 0.930 . S
C1159 N1156 1.314 . S
C1159 C1157 1.353 . S
C1159 H1215 0.930 . S
C1160 N1161 1.314 . S
C1160 C1165 1.353 . S
C1160 H1166 0.930 1_554 S
N1161 Li1144 1.990 . S
N1161 C1160 1.314 . S
N1161 C1163 1.279 . S
C1162 C1163 1.358 . S
C1162 C1164 1.356 . S
C1162 H1216 0.930 . S
C1163 N1161 1.279 . S
C1163 C1162 1.358 . S
C1163 H1167 0.930 . S
C1164 C1162 1.356 . S
C1164 C1165 1.348 . S
C1165 C1160 1.353 . S
C1165 C1164 1.348 . S
C1165 H1217 0.929 . S
H1166 C1160 0.930 1_556 S
H1167 C1163 0.930 . S
C1168 N1169 1.314 . S
C1168 C1170 1.353 . S
C1168 H1174 0.930 . S
N1169 Li1145 1.990 . S
N1169 C1168 1.314 . S
N1169 C1172 1.279 . S
C1170 C1168 1.353 . S
C1170 C1173 1.348 . S
C1170 H1218 0.929 . S
C1171 C1172 1.358 . S
C1171 C1173 1.356 . S
C1171 H1219 0.930 . S
C1172 N1169 1.279 . S
C1172 C1171 1.358 . S
C1172 H1175 0.930 . S
C1173 C1170 1.348 . S
C1173 C1171 1.356 . S
H1174 C1168 0.930 . S
H1175 C1172 0.930 . S
C1176 C1178 1.348 . S
C1176 C1179 1.356 . S
C1176 O1206 1.325 . S
N1177 C1180 1.314 . S
N1177 C1181 1.279 . S
C1178 C1176 1.348 . S
C1178 C1180 1.353 . S
C1178 H1220 0.929 . S
C1179 C1176 1.356 . S
C1179 C1181 1.358 . S
C1179 H1221 0.930 . S
C1180 N1177 1.314 . S
C1180 C1178 1.353 . S
C1180 H1222 0.930 . S
C1181 N1177 1.279 . S
C1181 C1179 1.358 . S
C1181 H1223 0.930 . S
C1182 C1183 1.348 . S
C1182 C1184 1.356 . S
C1182 O1207 1.325 . S
C1183 C1182 1.348 . S
C1183 C1185 1.353 . S
C1183 H1224 0.929 . S
C1184 C1182 1.356 . S
C1184 C1186 1.358 . S
C1184 H1225 0.930 . S
C1185 C1183 1.353 . S
C1185 N1187 1.314 . S
C1185 H1226 0.930 . S
C1186 C1184 1.358 . S
C1186 N1187 1.279 . S
C1186 H1227 0.930 . S
N1187 C1185 1.314 . S
N1187 C1186 1.279 . S
C1188 C1190 1.353 . S
C1188 N1191 1.314 . S
C1188 H1194 0.930 1_556 S
C1189 N1191 1.279 . S
C1189 C1192 1.358 . S
C1189 H1195 0.930 . S
C1190 C1188 1.353 . S
C1190 C1193 1.348 . S
C1190 H1228 0.929 . S
N1191 Li1146 1.990 . S
N1191 C1188 1.314 . S
N1191 C1189 1.279 . S
C1192 C1189 1.358 . S
C1192 C1193 1.356 . S
C1192 H1229 0.930 . S
C1193 C1190 1.348 . S
C1193 C1192 1.356 . S
H1194 C1188 0.930 1_554 S
H1195 C1189 0.930 . S
C1196 N1197 1.314 . S
C1196 C1198 1.353 . S
C1196 H1202 0.930 . S
N1197 Li1147 1.990 . S
N1197 C1196 1.314 . S
N1197 C1200 1.279 . S
C1198 C1196 1.353 . S
C1198 C1201 1.348 . S
C1198 H1230 0.929 . S
C1199 C1200 1.358 . S
C1199 C1201 1.356 . S
C1199 H1231 0.930 . S
C1200 N1197 1.279 . S
C1200 C1199 1.358 . S
C1200 H1203 0.930 . S
C1201 C1198 1.348 . S
C1201 C1199 1.356 . S
H1202 C1196 0.930 . S
H1203 C1200 0.930 . S
O1204 Li1144 1.956 . S
O1204 Li1145 1.970 . S
O1204 Li1146 1.961 1_554 S
O1204 C1148 1.325 . S
O1205 Li1144 1.970 . S
O1205 Li1145 1.956 . S
O1205 Li1147 1.961 1_554 S
O1205 C1154 1.325 . S
O1206 Li1144 1.961 1_556 S
O1206 Li1146 1.956 . S
O1206 Li1147 1.970 . S
O1206 C1176 1.325 . S
O1207 Li1145 1.961 1_556 S
O1207 Li1146 1.970 . S
O1207 Li1147 1.956 . S
O1207 C1182 1.325 . S
H1208 C1150 0.929 . S
H1209 C1151 0.930 . S
H1210 C1152 0.930 . S
H1211 C1153 0.930 . S
H1212 C1155 0.930 . S
H1213 C1157 0.929 . S
H1214 C1158 0.930 . S
H1215 C1159 0.930 . S
H1216 C1162 0.930 . S
H1217 C1165 0.929 . S
H1218 C1170 0.929 . S
H1219 C1171 0.930 . S
H1220 C1178 0.929 . S
H1221 C1179 0.930 . S
H1222 C1180 0.930 . S
H1223 C1181 0.930 . S
H1224 C1183 0.929 . S
H1225 C1184 0.930 . S
H1226 C1185 0.930 . S
H1227 C1186 0.930 . S
H1228 C1190 0.929 . S
H1229 C1192 0.930 . S
H1230 C1198 0.929 . S
H1231 C1199 0.930 . S
Li1232 N1249 1.990 . S
Li1232 O1292 1.956 . S
Li1232 O1293 1.970 . S
Li1232 O1294 1.961 . S
Li1233 N1257 1.990 . S
Li1233 O1292 1.970 . S
Li1233 O1293 1.956 . S
Li1233 O1295 1.961 . S
Li1234 N1279 1.990 . S
Li1234 O1292 1.961 . S
Li1234 O1294 1.956 . S
Li1234 O1295 1.970 . S
Li1235 N1285 1.990 . S
Li1235 O1293 1.961 . S
Li1235 O1294 1.970 . S
Li1235 O1295 1.956 . S
C1236 C1238 1.348 . S
C1236 C1239 1.356 . S
C1236 O1292 1.325 . S
N1237 C1240 1.314 . S
N1237 C1241 1.279 . S
C1238 C1236 1.348 . S
C1238 C1240 1.353 . S
C1238 H1296 0.929 . S
C1239 C1236 1.356 . S
C1239 C1241 1.358 . S
C1239 H1297 0.930 . S
C1240 N1237 1.314 . S
C1240 C1238 1.353 . S
C1240 H1298 0.930 . S
C1241 N1237 1.279 . S
C1241 C1239 1.358 . S
C1241 H1299 0.930 . S
C1242 C1245 1.348 . S
C1242 C1246 1.356 . S
C1242 O1293 1.325 . S
C1243 N1244 1.279 . S
C1243 C1246 1.358 . S
C1243 H1300 0.930 . S
N1244 C1243 1.279 . S
N1244 C1247 1.314 . S
C1245 C1242 1.348 . S
C1245 C1247 1.353 . S
C1245 H1301 0.929 . S
C1246 C1242 1.356 . S
C1246 C1243 1.358 . S
C1246 H1302 0.930 . S
C1247 N1244 1.314 . S
C1247 C1245 1.353 . S
C1247 H1303 0.930 . S
C1248 N1249 1.314 . S
C1248 C1253 1.353 . S
C1248 H1254 0.930 . S
N1249 Li1232 1.990 . S
N1249 C1248 1.314 . S
N1249 C1251 1.279 . S
C1250 C1251 1.358 . S
C1250 C1252 1.356 . S
C1250 H1304 0.930 . S
C1251 N1249 1.279 . S
C1251 C1250 1.358 . S
C1251 H1255 0.930 . S
C1252 C1250 1.356 . S
C1252 C1253 1.348 . S
C1253 C1248 1.353 . S
C1253 C1252 1.348 . S
C1253 H1305 0.929 . S
H1254 C1248 0.930 . S
H1255 C1251 0.930 . S
C1256 N1257 1.314 . S
C1256 C1258 1.353 . S
C1256 H1262 0.930 . S
N1257 Li1233 1.990 . S
N1257 C1256 1.314 . S
N1257 C1260 1.279 . S
C1258 C1256 1.353 . S
C1258 C1261 1.348 . S
C1258 H1306 0.929 . S
C1259 C1260 1.358 . S
C1259 C1261 1.356 . S
C1259 H1307 0.930 . S
C1260 N1257 1.279 . S
C1260 C1259 1.358 . S
C1260 H1263 0.930 . S
C1261 C1258 1.348 . S
C1261 C1259 1.356 . S
H1262 C1256 0.930 . S
H1263 C1260 0.930 . S
C1264 C1266 1.348 . S
C1264 C1267 1.356 . S
C1264 O1294 1.325 . S
N1265 C1268 1.314 . S
N1265 C1269 1.279 . S
C1266 C1264 1.348 . S
C1266 C1268 1.353 . S
C1266 H1308 0.929 . S
C1267 C1264 1.356 . S
C1267 C1269 1.358 . S
C1267 H1309 0.930 . S
C1268 N1265 1.314 . S
C1268 C1266 1.353 . S
C1268 H1310 0.930 . S
C1269 N1265 1.279 . S
C1269 C1267 1.358 . S
C1269 H1311 0.930 . S
C1270 C1271 1.348 . S
C1270 C1272 1.356 . S
C1270 O1295 1.325 . S
C1271 C1270 1.348 . S
C1271 C1273 1.353 . S
C1271 H1312 0.929 . S
C1272 C1270 1.356 . S
C1272 C1274 1.358 . S
C1272 H1313 0.930 . S
C1273 C1271 1.353 . S
C1273 N1275 1.314 . S
C1273 H1314 0.930 . S
C1274 C1272 1.358 . S
C1274 N1275 1.279 . S
C1274 H1315 0.930 . S
N1275 C1273 1.314 . S
N1275 C1274 1.279 . S
C1276 C1278 1.353 . S
C1276 N1279 1.314 . S
C1276 H1282 0.930 . S
C1277 N1279 1.279 . S
C1277 C1280 1.358 . S
C1277 H1283 0.930 . S
C1278 C1276 1.353 . S
C1278 C1281 1.348 . S
C1278 H1316 0.929 . S
N1279 Li1234 1.990 . S
N1279 C1276 1.314 . S
N1279 C1277 1.279 . S
C1280 C1277 1.358 . S
C1280 C1281 1.356 . S
C1280 H1317 0.930 . S
C1281 C1278 1.348 . S
C1281 C1280 1.356 . S
H1282 C1276 0.930 . S
H1283 C1277 0.930 . S
C1284 N1285 1.314 . S
C1284 C1286 1.353 . S
C1284 H1290 0.930 . S
N1285 Li1235 1.990 . S
N1285 C1284 1.314 . S
N1285 C1288 1.279 . S
C1286 C1284 1.353 . S
C1286 C1289 1.348 . S
C1286 H1318 0.929 . S
C1287 C1288 1.358 . S
C1287 C1289 1.356 . S
C1287 H1319 0.930 . S
C1288 N1285 1.279 . S
C1288 C1287 1.358 . S
C1288 H1291 0.930 . S
C1289 C1286 1.348 . S
C1289 C1287 1.356 . S
H1290 C1284 0.930 . S
H1291 C1288 0.930 . S
O1292 Li1232 1.956 . S
O1292 Li1233 1.970 . S
O1292 Li1234 1.961 . S
O1292 C1236 1.325 . S
O1293 Li1232 1.970 . S
O1293 Li1233 1.956 . S
O1293 Li1235 1.961 . S
O1293 C1242 1.325 . S
O1294 Li1232 1.961 . S
O1294 Li1234 1.956 . S
O1294 Li1235 1.970 . S
O1294 C1264 1.325 . S
O1295 Li1233 1.961 . S
O1295 Li1234 1.970 . S
O1295 Li1235 1.956 . S
O1295 C1270 1.325 . S
H1296 C1238 0.929 . S
H1297 C1239 0.930 . S
H1298 C1240 0.930 . S
H1299 C1241 0.930 . S
H1300 C1243 0.930 . S
H1301 C1245 0.929 . S
H1302 C1246 0.930 . S
H1303 C1247 0.930 . S
H1304 C1250 0.930 . S
H1305 C1253 0.929 . S
H1306 C1258 0.929 . S
H1307 C1259 0.930 . S
H1308 C1266 0.929 . S
H1309 C1267 0.930 . S
H1310 C1268 0.930 . S
H1311 C1269 0.930 . S
H1312 C1271 0.929 . S
H1313 C1272 0.930 . S
H1314 C1273 0.930 . S
H1315 C1274 0.930 . S
H1316 C1278 0.929 . S
H1317 C1280 0.930 . S
H1318 C1286 0.929 . S
H1319 C1287 0.930 . S
Li1320 N1337 1.990 . S
Li1320 O1380 1.956 . S
Li1320 O1381 1.970 . S
Li1320 O1382 1.961 . S
Li1321 N1345 1.990 . S
Li1321 O1380 1.970 . S
Li1321 O1381 1.956 . S
Li1321 O1383 1.961 . S
Li1322 N1367 1.990 . S
Li1322 O1380 1.961 . S
Li1322 O1382 1.956 . S
Li1322 O1383 1.970 . S
Li1323 N1373 1.990 . S
Li1323 O1381 1.961 . S
Li1323 O1382 1.970 . S
Li1323 O1383 1.956 . S
C1324 C1326 1.348 . S
C1324 C1327 1.356 . S
C1324 O1380 1.325 . S
N1325 C1328 1.314 . S
N1325 C1329 1.279 . S
C1326 C1324 1.348 . S
C1326 C1328 1.353 . S
C1326 H1384 0.929 . S
C1327 C1324 1.356 . S
C1327 C1329 1.358 . S
C1327 H1385 0.930 . S
C1328 N1325 1.314 . S
C1328 C1326 1.353 . S
C1328 H1386 0.930 . S
C1329 N1325 1.279 . S
C1329 C1327 1.358 . S
C1329 H1387 0.930 . S
C1330 C1333 1.348 . S
C1330 C1334 1.356 . S
C1330 O1381 1.325 . S
C1331 N1332 1.279 . S
C1331 C1334 1.358 . S
C1331 H1388 0.930 . S
N1332 C1331 1.279 . S
N1332 C1335 1.314 . S
C1333 C1330 1.348 . S
C1333 C1335 1.353 . S
C1333 H1389 0.929 . S
C1334 C1330 1.356 . S
C1334 C1331 1.358 . S
C1334 H1390 0.930 . S
C1335 N1332 1.314 . S
C1335 C1333 1.353 . S
C1335 H1391 0.930 . S
C1336 N1337 1.314 . S
C1336 C1341 1.353 . S
C1336 H1342 0.930 . S
N1337 Li1320 1.990 . S
N1337 C1336 1.314 . S
N1337 C1339 1.279 . S
C1338 C1339 1.358 . S
C1338 C1340 1.356 . S
C1338 H1392 0.930 . S
C1339 N1337 1.279 . S
C1339 C1338 1.358 . S
C1339 H1343 0.930 . S
C1340 C1338 1.356 . S
C1340 C1341 1.348 . S
C1341 C1336 1.353 . S
C1341 C1340 1.348 . S
C1341 H1393 0.929 . S
H1342 C1336 0.930 . S
H1343 C1339 0.930 . S
C1344 N1345 1.314 . S
C1344 C1346 1.353 . S
C1344 H1350 0.930 . S
N1345 Li1321 1.990 . S
N1345 C1344 1.314 . S
N1345 C1348 1.279 . S
C1346 C1344 1.353 . S
C1346 C1349 1.348 . S
C1346 H1394 0.929 . S
C1347 C1348 1.358 . S
C1347 C1349 1.356 . S
C1347 H1395 0.930 . S
C1348 N1345 1.279 . S
C1348 C1347 1.358 . S
C1348 H1351 0.930 . S
C1349 C1346 1.348 . S
C1349 C1347 1.356 . S
H1350 C1344 0.930 . S
H1351 C1348 0.930 . S
C1352 C1354 1.348 . S
C1352 C1355 1.356 . S
C1352 O1382 1.325 . S
N1353 C1356 1.314 . S
N1353 C1357 1.279 . S
C1354 C1352 1.348 . S
C1354 C1356 1.353 . S
C1354 H1396 0.929 . S
C1355 C1352 1.356 . S
C1355 C1357 1.358 . S
C1355 H1397 0.930 . S
C1356 N1353 1.314 . S
C1356 C1354 1.353 . S
C1356 H1398 0.930 . S
C1357 N1353 1.279 . S
C1357 C1355 1.358 . S
C1357 H1399 0.930 . S
C1358 C1359 1.348 . S
C1358 C1360 1.356 . S
C1358 O1383 1.325 . S
C1359 C1358 1.348 . S
C1359 C1361 1.353 . S
C1359 H1400 0.929 . S
C1360 C1358 1.356 . S
C1360 C1362 1.358 . S
C1360 H1401 0.930 . S
C1361 C1359 1.353 . S
C1361 N1363 1.314 . S
C1361 H1402 0.930 . S
C1362 C1360 1.358 . S
C1362 N1363 1.279 . S
C1362 H1403 0.930 . S
N1363 C1361 1.314 . S
N1363 C1362 1.279 . S
C1364 C1366 1.353 . S
C1364 N1367 1.314 . S
C1364 H1370 0.930 . S
C1365 N1367 1.279 . S
C1365 C1368 1.358 . S
C1365 H1371 0.930 . S
C1366 C1364 1.353 . S
C1366 C1369 1.348 . S
C1366 H1404 0.929 . S
N1367 Li1322 1.990 . S
N1367 C1364 1.314 . S
N1367 C1365 1.279 . S
C1368 C1365 1.358 . S
C1368 C1369 1.356 . S
C1368 H1405 0.930 . S
C1369 C1366 1.348 . S
C1369 C1368 1.356 . S
H1370 C1364 0.930 . S
H1371 C1365 0.930 . S
C1372 N1373 1.314 . S
C1372 C1374 1.353 . S
C1372 H1378 0.930 . S
N1373 Li1323 1.990 . S
N1373 C1372 1.314 . S
N1373 C1376 1.279 . S
C1374 C1372 1.353 . S
C1374 C1377 1.348 . S
C1374 H1406 0.929 . S
C1375 C1376 1.358 . S
C1375 C1377 1.356 . S
C1375 H1407 0.930 . S
C1376 N1373 1.279 . S
C1376 C1375 1.358 . S
C1376 H1379 0.930 . S
C1377 C1374 1.348 . S
C1377 C1375 1.356 . S
H1378 C1372 0.930 . S
H1379 C1376 0.930 . S
O1380 Li1320 1.956 . S
O1380 Li1321 1.970 . S
O1380 Li1322 1.961 . S
O1380 C1324 1.325 . S
O1381 Li1320 1.970 . S
O1381 Li1321 1.956 . S
O1381 Li1323 1.961 . S
O1381 C1330 1.325 . S
O1382 Li1320 1.961 . S
O1382 Li1322 1.956 . S
O1382 Li1323 1.970 . S
O1382 C1352 1.325 . S
O1383 Li1321 1.961 . S
O1383 Li1322 1.970 . S
O1383 Li1323 1.956 . S
O1383 C1358 1.325 . S
H1384 C1326 0.929 . S
H1385 C1327 0.930 . S
H1386 C1328 0.930 . S
H1387 C1329 0.930 . S
H1388 C1331 0.930 . S
H1389 C1333 0.929 . S
H1390 C1334 0.930 . S
H1391 C1335 0.930 . S
H1392 C1338 0.930 . S
H1393 C1341 0.929 . S
H1394 C1346 0.929 . S
H1395 C1347 0.930 . S
H1396 C1354 0.929 . S
H1397 C1355 0.930 . S
H1398 C1356 0.930 . S
H1399 C1357 0.930 . S
H1400 C1359 0.929 . S
H1401 C1360 0.930 . S
H1402 C1361 0.930 . S
H1403 C1362 0.930 . S
H1404 C1366 0.929 . S
H1405 C1368 0.930 . S
H1406 C1374 0.929 . S
H1407 C1375 0.930 . S
Li1408 N1425 1.990 . S
Li1408 O1468 1.956 1_545 S
Li1408 O1469 1.970 . S
Li1408 O1470 1.961 . S
Li1409 N1433 1.990 . S
Li1409 O1468 1.970 . S
Li1409 O1469 1.956 1_565 S
Li1409 O1471 1.961 . S
Li1410 N1455 1.990 . S
Li1410 O1468 1.961 . S
Li1410 O1470 1.956 1_565 S
Li1410 O1471 1.970 . S
Li1411 N1461 1.990 . S
Li1411 O1469 1.961 . S
Li1411 O1470 1.970 . S
Li1411 O1471 1.956 1_545 S
C1412 C1414 1.348 . S
C1412 C1415 1.356 . S
C1412 O1468 1.325 . S
N1413 C1416 1.314 . S
N1413 C1417 1.279 . S
C1414 C1412 1.348 . S
C1414 C1416 1.353 . S
C1414 H1472 0.929 . S
C1415 C1412 1.356 . S
C1415 C1417 1.358 . S
C1415 H1473 0.930 . S
C1416 N1413 1.314 . S
C1416 C1414 1.353 . S
C1416 H1474 0.930 . S
C1417 N1413 1.279 . S
C1417 C1415 1.358 . S
C1417 H1475 0.930 . S
C1418 C1421 1.348 . S
C1418 C1422 1.356 . S
C1418 O1469 1.325 . S
C1419 N1420 1.279 . S
C1419 C1422 1.358 . S
C1419 H1476 0.930 . S
N1420 C1419 1.279 . S
N1420 C1423 1.314 . S
C1421 C1418 1.348 . S
C1421 C1423 1.353 . S
C1421 H1477 0.929 . S
C1422 C1418 1.356 . S
C1422 C1419 1.358 . S
C1422 H1478 0.930 . S
C1423 N1420 1.314 . S
C1423 C1421 1.353 . S
C1423 H1479 0.930 . S
C1424 N1425 1.314 . S
C1424 C1429 1.353 . S
C1424 H1430 0.930 . S
N1425 Li1408 1.990 . S
N1425 C1424 1.314 . S
N1425 C1427 1.279 . S
C1426 C1427 1.358 . S
C1426 C1428 1.356 . S
C1426 H1480 0.930 . S
C1427 N1425 1.279 . S
C1427 C1426 1.358 . S
C1427 H1431 0.930 . S
C1428 C1426 1.356 . S
C1428 C1429 1.348 . S
C1429 C1424 1.353 . S
C1429 C1428 1.348 . S
C1429 H1481 0.929 . S
H1430 C1424 0.930 . S
H1431 C1427 0.930 . S
C1432 N1433 1.314 . S
C1432 C1434 1.353 . S
C1432 H1438 0.930 . S
N1433 Li1409 1.990 . S
N1433 C1432 1.314 . S
N1433 C1436 1.279 . S
C1434 C1432 1.353 . S
C1434 C1437 1.348 . S
C1434 H1482 0.929 . S
C1435 C1436 1.358 . S
C1435 C1437 1.356 . S
C1435 H1483 0.930 . S
C1436 N1433 1.279 . S
C1436 C1435 1.358 . S
C1436 H1439 0.930 1_565 S
C1437 C1434 1.348 . S
C1437 C1435 1.356 . S
H1438 C1432 0.930 . S
H1439 C1436 0.930 1_545 S
C1440 C1442 1.348 . S
C1440 C1443 1.356 . S
C1440 O1470 1.325 . S
N1441 C1444 1.314 . S
N1441 C1445 1.279 . S
C1442 C1440 1.348 . S
C1442 C1444 1.353 . S
C1442 H1484 0.929 . S
C1443 C1440 1.356 . S
C1443 C1445 1.358 . S
C1443 H1485 0.930 . S
C1444 N1441 1.314 . S
C1444 C1442 1.353 . S
C1444 H1486 0.930 . S
C1445 N1441 1.279 . S
C1445 C1443 1.358 . S
C1445 H1487 0.930 . S
C1446 C1447 1.348 . S
C1446 C1448 1.356 . S
C1446 O1471 1.325 . S
C1447 C1446 1.348 . S
C1447 C1449 1.353 . S
C1447 H1488 0.929 . S
C1448 C1446 1.356 . S
C1448 C1450 1.358 . S
C1448 H1489 0.930 . S
C1449 C1447 1.353 . S
C1449 N1451 1.314 . S
C1449 H1490 0.930 . S
C1450 C1448 1.358 . S
C1450 N1451 1.279 . S
C1450 H1491 0.930 . S
N1451 C1449 1.314 . S
N1451 C1450 1.279 . S
C1452 C1454 1.353 . S
C1452 N1455 1.314 . S
C1452 H1458 0.930 . S
C1453 N1455 1.279 . S
C1453 C1456 1.358 . S
C1453 H1459 0.930 . S
C1454 C1452 1.353 . S
C1454 C1457 1.348 . S
C1454 H1492 0.929 . S
N1455 Li1410 1.990 . S
N1455 C1452 1.314 . S
N1455 C1453 1.279 . S
C1456 C1453 1.358 . S
C1456 C1457 1.356 . S
C1456 H1493 0.930 . S
C1457 C1454 1.348 . S
C1457 C1456 1.356 . S
H1458 C1452 0.930 . S
H1459 C1453 0.930 . S
C1460 N1461 1.314 . S
C1460 C1462 1.353 . S
C1460 H1466 0.930 . S
N1461 Li1411 1.990 . S
N1461 C1460 1.314 . S
N1461 C1464 1.279 . S
C1462 C1460 1.353 . S
C1462 C1465 1.348 . S
C1462 H1494 0.929 . S
C1463 C1464 1.358 . S
C1463 C1465 1.356 . S
C1463 H1495 0.930 . S
C1464 N1461 1.279 . S
C1464 C1463 1.358 . S
C1464 H1467 0.930 1_545 S
C1465 C1462 1.348 . S
C1465 C1463 1.356 . S
H1466 C1460 0.930 . S
H1467 C1464 0.930 1_565 S
O1468 Li1408 1.956 1_565 S
O1468 Li1409 1.970 . S
O1468 Li1410 1.961 . S
O1468 C1412 1.325 . S
O1469 Li1408 1.970 . S
O1469 Li1409 1.956 1_545 S
O1469 Li1411 1.961 . S
O1469 C1418 1.325 . S
O1470 Li1408 1.961 . S
O1470 Li1410 1.956 1_545 S
O1470 Li1411 1.970 . S
O1470 C1440 1.325 . S
O1471 Li1409 1.961 . S
O1471 Li1410 1.970 . S
O1471 Li1411 1.956 1_565 S
O1471 C1446 1.325 . S
H1472 C1414 0.929 . S
H1473 C1415 0.930 . S
H1474 C1416 0.930 . S
H1475 C1417 0.930 . S
H1476 C1419 0.930 . S
H1477 C1421 0.929 . S
H1478 C1422 0.930 . S
H1479 C1423 0.930 . S
H1480 C1426 0.930 . S
H1481 C1429 0.929 . S
H1482 C1434 0.929 . S
H1483 C1435 0.930 . S
H1484 C1442 0.929 . S
H1485 C1443 0.930 . S
H1486 C1444 0.930 . S
H1487 C1445 0.930 . S
H1488 C1447 0.929 . S
H1489 C1448 0.930 . S
H1490 C1449 0.930 . S
H1491 C1450 0.930 . S
H1492 C1454 0.929 . S
H1493 C1456 0.930 . S
H1494 C1462 0.929 . S
H1495 C1463 0.930 . S
Li1496 N1513 1.990 . S
Li1496 O1556 1.956 . S
Li1496 O1557 1.970 . S
Li1496 O1558 1.961 . S
Li1497 N1521 1.990 . S
Li1497 O1556 1.970 . S
Li1497 O1557 1.956 . S
Li1497 O1559 1.961 . S
Li1498 N1543 1.990 . S
Li1498 O1556 1.961 . S
Li1498 O1558 1.956 . S
Li1498 O1559 1.970 . S
Li1499 N1549 1.990 . S
Li1499 O1557 1.961 . S
Li1499 O1558 1.970 . S
Li1499 O1559 1.956 . S
C1500 C1502 1.348 . S
C1500 C1503 1.356 . S
C1500 O1556 1.325 . S
N1501 C1504 1.314 . S
N1501 C1505 1.279 . S
C1502 C1500 1.348 . S
C1502 C1504 1.353 . S
C1502 H1560 0.929 . S
C1503 C1500 1.356 . S
C1503 C1505 1.358 . S
C1503 H1561 0.930 . S
C1504 N1501 1.314 . S
C1504 C1502 1.353 . S
C1504 H1562 0.930 . S
C1505 N1501 1.279 . S
C1505 C1503 1.358 . S
C1505 H1563 0.930 . S
C1506 C1509 1.348 . S
C1506 C1510 1.356 . S
C1506 O1557 1.325 . S
C1507 N1508 1.279 . S
C1507 C1510 1.358 . S
C1507 H1564 0.930 . S
N1508 C1507 1.279 . S
N1508 C1511 1.314 . S
C1509 C1506 1.348 . S
C1509 C1511 1.353 . S
C1509 H1565 0.929 . S
C1510 C1506 1.356 . S
C1510 C1507 1.358 . S
C1510 H1566 0.930 . S
C1511 N1508 1.314 . S
C1511 C1509 1.353 . S
C1511 H1567 0.930 . S
C1512 N1513 1.314 . S
C1512 C1517 1.353 . S
C1512 H1518 0.930 . S
N1513 Li1496 1.990 . S
N1513 C1512 1.314 . S
N1513 C1515 1.279 . S
C1514 C1515 1.358 . S
C1514 C1516 1.356 . S
C1514 H1568 0.930 . S
C1515 N1513 1.279 . S
C1515 C1514 1.358 . S
C1515 H1519 0.930 . S
C1516 C1514 1.356 . S
C1516 C1517 1.348 . S
C1517 C1512 1.353 . S
C1517 C1516 1.348 . S
C1517 H1569 0.929 . S
H1518 C1512 0.930 . S
H1519 C1515 0.930 . S
C1520 N1521 1.314 . S
C1520 C1522 1.353 . S
C1520 H1526 0.930 . S
N1521 Li1497 1.990 . S
N1521 C1520 1.314 . S
N1521 C1524 1.279 . S
C1522 C1520 1.353 . S
C1522 C1525 1.348 . S
C1522 H1570 0.929 . S
C1523 C1524 1.358 . S
C1523 C1525 1.356 . S
C1523 H1571 0.930 . S
C1524 N1521 1.279 . S
C1524 C1523 1.358 . S
C1524 H1527 0.930 . S
C1525 C1522 1.348 . S
C1525 C1523 1.356 . S
H1526 C1520 0.930 . S
H1527 C1524 0.930 . S
C1528 C1530 1.348 . S
C1528 C1531 1.356 . S
C1528 O1558 1.325 . S
N1529 C1532 1.314 . S
N1529 C1533 1.279 . S
C1530 C1528 1.348 . S
C1530 C1532 1.353 . S
C1530 H1572 0.929 . S
C1531 C1528 1.356 . S
C1531 C1533 1.358 . S
C1531 H1573 0.930 . S
C1532 N1529 1.314 . S
C1532 C1530 1.353 . S
C1532 H1574 0.930 . S
C1533 N1529 1.279 . S
C1533 C1531 1.358 . S
C1533 H1575 0.930 . S
C1534 C1535 1.348 . S
C1534 C1536 1.356 . S
C1534 O1559 1.325 . S
C1535 C1534 1.348 . S
C1535 C1537 1.353 . S
C1535 H1576 0.929 . S
C1536 C1534 1.356 . S
C1536 C1538 1.358 . S
C1536 H1577 0.930 . S
C1537 C1535 1.353 . S
C1537 N1539 1.314 . S
C1537 H1578 0.930 . S
C1538 C1536 1.358 . S
C1538 N1539 1.279 . S
C1538 H1579 0.930 . S
N1539 C1537 1.314 . S
N1539 C1538 1.279 . S
C1540 C1542 1.353 . S
C1540 N1543 1.314 . S
C1540 H1546 0.930 . S
C1541 N1543 1.279 . S
C1541 C1544 1.358 . S
C1541 H1547 0.930 . S
C1542 C1540 1.353 . S
C1542 C1545 1.348 . S
C1542 H1580 0.929 . S
N1543 Li1498 1.990 . S
N1543 C1540 1.314 . S
N1543 C1541 1.279 . S
C1544 C1541 1.358 . S
C1544 C1545 1.356 . S
C1544 H1581 0.930 . S
C1545 C1542 1.348 . S
C1545 C1544 1.356 . S
H1546 C1540 0.930 . S
H1547 C1541 0.930 . S
C1548 N1549 1.314 . S
C1548 C1550 1.353 . S
C1548 H1554 0.930 . S
N1549 Li1499 1.990 . S
N1549 C1548 1.314 . S
N1549 C1552 1.279 . S
C1550 C1548 1.353 . S
C1550 C1553 1.348 . S
C1550 H1582 0.929 . S
C1551 C1552 1.358 . S
C1551 C1553 1.356 . S
C1551 H1583 0.930 . S
C1552 N1549 1.279 . S
C1552 C1551 1.358 . S
C1552 H1555 0.930 . S
C1553 C1550 1.348 . S
C1553 C1551 1.356 . S
H1554 C1548 0.930 . S
H1555 C1552 0.930 . S
O1556 Li1496 1.956 . S
O1556 Li1497 1.970 . S
O1556 Li1498 1.961 . S
O1556 C1500 1.325 . S
O1557 Li1496 1.970 . S
O1557 Li1497 1.956 . S
O1557 Li1499 1.961 . S
O1557 C1506 1.325 . S
O1558 Li1496 1.961 . S
O1558 Li1498 1.956 . S
O1558 Li1499 1.970 . S
O1558 C1528 1.325 . S
O1559 Li1497 1.961 . S
O1559 Li1498 1.970 . S
O1559 Li1499 1.956 . S
O1559 C1534 1.325 . S
H1560 C1502 0.929 . S
H1561 C1503 0.930 . S
H1562 C1504 0.930 . S
H1563 C1505 0.930 . S
H1564 C1507 0.930 . S
H1565 C1509 0.929 . S
H1566 C1510 0.930 . S
H1567 C1511 0.930 . S
H1568 C1514 0.930 . S
H1569 C1517 0.929 . S
H1570 C1522 0.929 . S
H1571 C1523 0.930 . S
H1572 C1530 0.929 . S
H1573 C1531 0.930 . S
H1574 C1532 0.930 . S
H1575 C1533 0.930 . S
H1576 C1535 0.929 . S
H1577 C1536 0.930 . S
H1578 C1537 0.930 . S
H1579 C1538 0.930 . S
H1580 C1542 0.929 . S
H1581 C1544 0.930 . S
H1582 C1550 0.929 . S
H1583 C1551 0.930 . S
Li1584 N1601 1.990 . S
Li1584 O1644 1.956 . S
Li1584 O1645 1.970 . S
Li1584 O1646 1.961 . S
Li1585 N1609 1.990 . S
Li1585 O1644 1.970 . S
Li1585 O1645 1.956 . S
Li1585 O1647 1.961 . S
Li1586 N1631 1.990 . S
Li1586 O1644 1.961 . S
Li1586 O1646 1.956 . S
Li1586 O1647 1.970 . S
Li1587 N1637 1.990 . S
Li1587 O1645 1.961 . S
Li1587 O1646 1.970 . S
Li1587 O1647 1.956 . S
C1588 C1590 1.348 . S
C1588 C1591 1.356 . S
C1588 O1644 1.325 . S
N1589 C1592 1.314 . S
N1589 C1593 1.279 . S
C1590 C1588 1.348 . S
C1590 C1592 1.353 . S
C1590 H1648 0.929 . S
C1591 C1588 1.356 . S
C1591 C1593 1.358 . S
C1591 H1649 0.930 . S
C1592 N1589 1.314 . S
C1592 C1590 1.353 . S
C1592 H1650 0.930 . S
C1593 N1589 1.279 . S
C1593 C1591 1.358 . S
C1593 H1651 0.930 . S
C1594 C1597 1.348 . S
C1594 C1598 1.356 . S
C1594 O1645 1.325 . S
C1595 N1596 1.279 . S
C1595 C1598 1.358 . S
C1595 H1652 0.930 . S
N1596 C1595 1.279 . S
N1596 C1599 1.314 . S
C1597 C1594 1.348 . S
C1597 C1599 1.353 . S
C1597 H1653 0.929 . S
C1598 C1594 1.356 . S
C1598 C1595 1.358 . S
C1598 H1654 0.930 . S
C1599 N1596 1.314 . S
C1599 C1597 1.353 . S
C1599 H1655 0.930 . S
C1600 N1601 1.314 . S
C1600 C1605 1.353 . S
C1600 H1606 0.930 . S
N1601 Li1584 1.990 . S
N1601 C1600 1.314 . S
N1601 C1603 1.279 . S
C1602 C1603 1.358 . S
C1602 C1604 1.356 . S
C1602 H1656 0.930 . S
C1603 N1601 1.279 . S
C1603 C1602 1.358 . S
C1603 H1607 0.930 . S
C1604 C1602 1.356 . S
C1604 C1605 1.348 . S
C1605 C1600 1.353 . S
C1605 C1604 1.348 . S
C1605 H1657 0.929 . S
H1606 C1600 0.930 . S
H1607 C1603 0.930 . S
C1608 N1609 1.314 . S
C1608 C1610 1.353 . S
C1608 H1614 0.930 . S
N1609 Li1585 1.990 . S
N1609 C1608 1.314 . S
N1609 C1612 1.279 . S
C1610 C1608 1.353 . S
C1610 C1613 1.348 . S
C1610 H1658 0.929 . S
C1611 C1612 1.358 . S
C1611 C1613 1.356 . S
C1611 H1659 0.930 . S
C1612 N1609 1.279 . S
C1612 C1611 1.358 . S
C1612 H1615 0.930 . S
C1613 C1610 1.348 . S
C1613 C1611 1.356 . S
H1614 C1608 0.930 . S
H1615 C1612 0.930 . S
C1616 C1618 1.348 . S
C1616 C1619 1.356 . S
C1616 O1646 1.325 . S
N1617 C1620 1.314 . S
N1617 C1621 1.279 . S
C1618 C1616 1.348 . S
C1618 C1620 1.353 . S
C1618 H1660 0.929 . S
C1619 C1616 1.356 . S
C1619 C1621 1.358 . S
C1619 H1661 0.930 . S
C1620 N1617 1.314 . S
C1620 C1618 1.353 . S
C1620 H1662 0.930 . S
C1621 N1617 1.279 . S
C1621 C1619 1.358 . S
C1621 H1663 0.930 . S
C1622 C1623 1.348 . S
C1622 C1624 1.356 . S
C1622 O1647 1.325 . S
C1623 C1622 1.348 . S
C1623 C1625 1.353 . S
C1623 H1664 0.929 . S
C1624 C1622 1.356 . S
C1624 C1626 1.358 . S
C1624 H1665 0.930 . S
C1625 C1623 1.353 . S
C1625 N1627 1.314 . S
C1625 H1666 0.930 . S
C1626 C1624 1.358 . S
C1626 N1627 1.279 . S
C1626 H1667 0.930 . S
N1627 C1625 1.314 . S
N1627 C1626 1.279 . S
C1628 C1630 1.353 . S
C1628 N1631 1.314 . S
C1628 H1634 0.930 . S
C1629 N1631 1.279 . S
C1629 C1632 1.358 . S
C1629 H1635 0.930 . S
C1630 C1628 1.353 . S
C1630 C1633 1.348 . S
C1630 H1668 0.929 . S
N1631 Li1586 1.990 . S
N1631 C1628 1.314 . S
N1631 C1629 1.279 . S
C1632 C1629 1.358 . S
C1632 C1633 1.356 . S
C1632 H1669 0.930 . S
C1633 C1630 1.348 . S
C1633 C1632 1.356 . S
H1634 C1628 0.930 . S
H1635 C1629 0.930 . S
C1636 N1637 1.314 . S
C1636 C1638 1.353 . S
C1636 H1642 0.930 . S
N1637 Li1587 1.990 . S
N1637 C1636 1.314 . S
N1637 C1640 1.279 . S
C1638 C1636 1.353 . S
C1638 C1641 1.348 . S
C1638 H1670 0.929 . S
C1639 C1640 1.358 . S
C1639 C1641 1.356 . S
C1639 H1671 0.930 . S
C1640 N1637 1.279 . S
C1640 C1639 1.358 . S
C1640 H1643 0.930 . S
C1641 C1638 1.348 . S
C1641 C1639 1.356 . S
H1642 C1636 0.930 . S
H1643 C1640 0.930 . S
O1644 Li1584 1.956 . S
O1644 Li1585 1.970 . S
O1644 Li1586 1.961 . S
O1644 C1588 1.325 . S
O1645 Li1584 1.970 . S
O1645 Li1585 1.956 . S
O1645 Li1587 1.961 . S
O1645 C1594 1.325 . S
O1646 Li1584 1.961 . S
O1646 Li1586 1.956 . S
O1646 Li1587 1.970 . S
O1646 C1616 1.325 . S
O1647 Li1585 1.961 . S
O1647 Li1586 1.970 . S
O1647 Li1587 1.956 . S
O1647 C1622 1.325 . S
H1648 C1590 0.929 . S
H1649 C1591 0.930 . S
H1650 C1592 0.930 . S
H1651 C1593 0.930 . S
H1652 C1595 0.930 . S
H1653 C1597 0.929 . S
H1654 C1598 0.930 . S
H1655 C1599 0.930 . S
H1656 C1602 0.930 . S
H1657 C1605 0.929 . S
H1658 C1610 0.929 . S
H1659 C1611 0.930 . S
H1660 C1618 0.929 . S
H1661 C1619 0.930 . S
H1662 C1620 0.930 . S
H1663 C1621 0.930 . S
H1664 C1623 0.929 . S
H1665 C1624 0.930 . S
H1666 C1625 0.930 . S
H1667 C1626 0.930 . S
H1668 C1630 0.929 . S
H1669 C1632 0.930 . S
H1670 C1638 0.929 . S
H1671 C1639 0.930 . S
Li1672 N1689 1.990 . S
Li1672 O1732 1.956 1_545 S
Li1672 O1733 1.970 . S
Li1672 O1734 1.961 . S
Li1673 N1697 1.990 . S
Li1673 O1732 1.970 . S
Li1673 O1733 1.956 1_565 S
Li1673 O1735 1.961 . S
Li1674 N1719 1.990 . S
Li1674 O1732 1.961 . S
Li1674 O1734 1.956 1_565 S
Li1674 O1735 1.970 . S
Li1675 N1725 1.990 . S
Li1675 O1733 1.961 . S
Li1675 O1734 1.970 . S
Li1675 O1735 1.956 1_545 S
C1676 C1678 1.348 . S
C1676 C1679 1.356 . S
C1676 O1732 1.325 . S
N1677 C1680 1.314 . S
N1677 C1681 1.279 . S
C1678 C1676 1.348 . S
C1678 C1680 1.353 . S
C1678 H1736 0.929 . S
C1679 C1676 1.356 . S
C1679 C1681 1.358 . S
C1679 H1737 0.930 . S
C1680 N1677 1.314 . S
C1680 C1678 1.353 . S
C1680 H1738 0.930 . S
C1681 N1677 1.279 . S
C1681 C1679 1.358 . S
C1681 H1739 0.930 . S
C1682 C1685 1.348 . S
C1682 C1686 1.356 . S
C1682 O1733 1.325 . S
C1683 N1684 1.279 . S
C1683 C1686 1.358 . S
C1683 H1740 0.930 . S
N1684 C1683 1.279 . S
N1684 C1687 1.314 . S
C1685 C1682 1.348 . S
C1685 C1687 1.353 . S
C1685 H1741 0.929 . S
C1686 C1682 1.356 . S
C1686 C1683 1.358 . S
C1686 H1742 0.930 . S
C1687 N1684 1.314 . S
C1687 C1685 1.353 . S
C1687 H1743 0.930 . S
C1688 N1689 1.314 . S
C1688 C1693 1.353 . S
C1688 H1694 0.930 . S
N1689 Li1672 1.990 . S
N1689 C1688 1.314 . S
N1689 C1691 1.279 . S
C1690 C1691 1.358 . S
C1690 C1692 1.356 . S
C1690 H1744 0.930 . S
C1691 N1689 1.279 . S
C1691 C1690 1.358 . S
C1691 H1695 0.930 1_545 S
C1692 C1690 1.356 . S
C1692 C1693 1.348 . S
C1693 C1688 1.353 . S
C1693 C1692 1.348 . S
C1693 H1745 0.929 . S
H1694 C1688 0.930 . S
H1695 C1691 0.930 1_565 S
C1696 N1697 1.314 . S
C1696 C1698 1.353 . S
C1696 H1702 0.930 . S
N1697 Li1673 1.990 . S
N1697 C1696 1.314 . S
N1697 C1700 1.279 . S
C1698 C1696 1.353 . S
C1698 C1701 1.348 . S
C1698 H1746 0.929 . S
C1699 C1700 1.358 . S
C1699 C1701 1.356 . S
C1699 H1747 0.930 . S
C1700 N1697 1.279 . S
C1700 C1699 1.358 . S
C1700 H1703 0.930 . S
C1701 C1698 1.348 . S
C1701 C1699 1.356 . S
H1702 C1696 0.930 . S
H1703 C1700 0.930 . S
C1704 C1706 1.348 . S
C1704 C1707 1.356 . S
C1704 O1734 1.325 . S
N1705 C1708 1.314 . S
N1705 C1709 1.279 . S
C1706 C1704 1.348 . S
C1706 C1708 1.353 . S
C1706 H1748 0.929 . S
C1707 C1704 1.356 . S
C1707 C1709 1.358 . S
C1707 H1749 0.930 . S
C1708 N1705 1.314 . S
C1708 C1706 1.353 . S
C1708 H1750 0.930 . S
C1709 N1705 1.279 . S
C1709 C1707 1.358 . S
C1709 H1751 0.930 . S
C1710 C1711 1.348 . S
C1710 C1712 1.356 . S
C1710 O1735 1.325 . S
C1711 C1710 1.348 . S
C1711 C1713 1.353 . S
C1711 H1752 0.929 . S
C1712 C1710 1.356 . S
C1712 C1714 1.358 . S
C1712 H1753 0.930 . S
C1713 C1711 1.353 . S
C1713 N1715 1.314 . S
C1713 H1754 0.930 . S
C1714 C1712 1.358 . S
C1714 N1715 1.279 . S
C1714 H1755 0.930 . S
N1715 C1713 1.314 . S
N1715 C1714 1.279 . S
C1716 C1718 1.353 . S
C1716 N1719 1.314 . S
C1716 H1722 0.930 . S
C1717 N1719 1.279 . S
C1717 C1720 1.358 . S
C1717 H1723 0.930 1_565 S
C1718 C1716 1.353 . S
C1718 C1721 1.348 . S
C1718 H1756 0.929 . S
N1719 Li1674 1.990 . S
N1719 C1716 1.314 . S
N1719 C1717 1.279 . S
C1720 C1717 1.358 . S
C1720 C1721 1.356 . S
C1720 H1757 0.930 . S
C1721 C1718 1.348 . S
C1721 C1720 1.356 . S
H1722 C1716 0.930 . S
H1723 C1717 0.930 1_545 S
C1724 N1725 1.314 . S
C1724 C1726 1.353 . S
C1724 H1730 0.930 . S
N1725 Li1675 1.990 . S
N1725 C1724 1.314 . S
N1725 C1728 1.279 . S
C1726 C1724 1.353 . S
C1726 C1729 1.348 . S
C1726 H1758 0.929 . S
C1727 C1728 1.358 . S
C1727 C1729 1.356 . S
C1727 H1759 0.930 . S
C1728 N1725 1.279 . S
C1728 C1727 1.358 . S
C1728 H1731 0.930 . S
C1729 C1726 1.348 . S
C1729 C1727 1.356 . S
H1730 C1724 0.930 . S
H1731 C1728 0.930 . S
O1732 Li1672 1.956 1_565 S
O1732 Li1673 1.970 . S
O1732 Li1674 1.961 . S
O1732 C1676 1.325 . S
O1733 Li1672 1.970 . S
O1733 Li1673 1.956 1_545 S
O1733 Li1675 1.961 . S
O1733 C1682 1.325 . S
O1734 Li1672 1.961 . S
O1734 Li1674 1.956 1_545 S
O1734 Li1675 1.970 . S
O1734 C1704 1.325 . S
O1735 Li1673 1.961 . S
O1735 Li1674 1.970 . S
O1735 Li1675 1.956 1_565 S
O1735 C1710 1.325 . S
H1736 C1678 0.929 . S
H1737 C1679 0.930 . S
H1738 C1680 0.930 . S
H1739 C1681 0.930 . S
H1740 C1683 0.930 . S
H1741 C1685 0.929 . S
H1742 C1686 0.930 . S
H1743 C1687 0.930 . S
H1744 C1690 0.930 . S
H1745 C1693 0.929 . S
H1746 C1698 0.929 . S
H1747 C1699 0.930 . S
H1748 C1706 0.929 . S
H1749 C1707 0.930 . S
H1750 C1708 0.930 . S
H1751 C1709 0.930 . S
H1752 C1711 0.929 . S
H1753 C1712 0.930 . S
H1754 C1713 0.930 . S
H1755 C1714 0.930 . S
H1756 C1718 0.929 . S
H1757 C1720 0.930 . S
H1758 C1726 0.929 . S
H1759 C1727 0.930 . S
Li1760 N1777 1.990 . S
Li1760 O1820 1.956 1_556 S
Li1760 O1821 1.970 . S
Li1760 O1822 1.961 . S
Li1761 N1785 1.990 . S
Li1761 O1820 1.970 . S
Li1761 O1821 1.956 1_554 S
Li1761 O1823 1.961 . S
Li1762 N1807 1.990 . S
Li1762 O1820 1.961 . S
Li1762 O1822 1.956 1_554 S
Li1762 O1823 1.970 . S
Li1763 N1813 1.990 . S
Li1763 O1821 1.961 . S
Li1763 O1822 1.970 . S
Li1763 O1823 1.956 1_556 S
C1764 C1766 1.348 . S
C1764 C1767 1.356 . S
C1764 O1820 1.325 . S
N1765 C1768 1.314 . S
N1765 C1769 1.279 . S
C1766 C1764 1.348 . S
C1766 C1768 1.353 . S
C1766 H1824 0.929 . S
C1767 C1764 1.356 . S
C1767 C1769 1.358 . S
C1767 H1825 0.930 . S
C1768 N1765 1.314 . S
C1768 C1766 1.353 . S
C1768 H1826 0.930 . S
C1769 N1765 1.279 . S
C1769 C1767 1.358 . S
C1769 H1827 0.930 . S
C1770 C1773 1.348 . S
C1770 C1774 1.356 . S
C1770 O1821 1.325 . S
C1771 N1772 1.279 . S
C1771 C1774 1.358 . S
C1771 H1828 0.930 . S
N1772 C1771 1.279 . S
N1772 C1775 1.314 . S
C1773 C1770 1.348 . S
C1773 C1775 1.353 . S
C1773 H1829 0.929 . S
C1774 C1770 1.356 . S
C1774 C1771 1.358 . S
C1774 H1830 0.930 . S
C1775 N1772 1.314 . S
C1775 C1773 1.353 . S
C1775 H1831 0.930 . S
C1776 N1777 1.314 . S
C1776 C1781 1.353 . S
C1776 H1782 0.930 . S
N1777 Li1760 1.990 . S
N1777 C1776 1.314 . S
N1777 C1779 1.279 . S
C1778 C1779 1.358 . S
C1778 C1780 1.356 . S
C1778 H1832 0.930 . S
C1779 N1777 1.279 . S
C1779 C1778 1.358 . S
C1779 H1783 0.930 . S
C1780 C1778 1.356 . S
C1780 C1781 1.348 . S
C1781 C1776 1.353 . S
C1781 C1780 1.348 . S
C1781 H1833 0.929 . S
H1782 C1776 0.930 . S
H1783 C1779 0.930 . S
C1784 N1785 1.314 . S
C1784 C1786 1.353 . S
C1784 H1790 0.930 . S
N1785 Li1761 1.990 . S
N1785 C1784 1.314 . S
N1785 C1788 1.279 . S
C1786 C1784 1.353 . S
C1786 C1789 1.348 . S
C1786 H1834 0.929 . S
C1787 C1788 1.358 . S
C1787 C1789 1.356 . S
C1787 H1835 0.930 . S
C1788 N1785 1.279 . S
C1788 C1787 1.358 . S
C1788 H1791 0.930 1_554 S
C1789 C1786 1.348 . S
C1789 C1787 1.356 . S
H1790 C1784 0.930 . S
H1791 C1788 0.930 1_556 S
C1792 C1794 1.348 . S
C1792 C1795 1.356 . S
C1792 O1822 1.325 . S
N1793 C1796 1.314 . S
N1793 C1797 1.279 . S
C1794 C1792 1.348 . S
C1794 C1796 1.353 . S
C1794 H1836 0.929 . S
C1795 C1792 1.356 . S
C1795 C1797 1.358 . S
C1795 H1837 0.930 . S
C1796 N1793 1.314 . S
C1796 C1794 1.353 . S
C1796 H1838 0.930 . S
C1797 N1793 1.279 . S
C1797 C1795 1.358 . S
C1797 H1839 0.930 . S
C1798 C1799 1.348 . S
C1798 C1800 1.356 . S
C1798 O1823 1.325 . S
C1799 C1798 1.348 . S
C1799 C1801 1.353 . S
C1799 H1840 0.929 . S
C1800 C1798 1.356 . S
C1800 C1802 1.358 . S
C1800 H1841 0.930 . S
C1801 C1799 1.353 . S
C1801 N1803 1.314 . S
C1801 H1842 0.930 . S
C1802 C1800 1.358 . S
C1802 N1803 1.279 . S
C1802 H1843 0.930 . S
N1803 C1801 1.314 . S
N1803 C1802 1.279 . S
C1804 C1806 1.353 . S
C1804 N1807 1.314 . S
C1804 H1810 0.930 . S
C1805 N1807 1.279 . S
C1805 C1808 1.358 . S
C1805 H1811 0.930 . S
C1806 C1804 1.353 . S
C1806 C1809 1.348 . S
C1806 H1844 0.929 . S
N1807 Li1762 1.990 . S
N1807 C1804 1.314 . S
N1807 C1805 1.279 . S
C1808 C1805 1.358 . S
C1808 C1809 1.356 . S
C1808 H1845 0.930 . S
C1809 C1806 1.348 . S
C1809 C1808 1.356 . S
H1810 C1804 0.930 . S
H1811 C1805 0.930 . S
C1812 N1813 1.314 . S
C1812 C1814 1.353 . S
C1812 H1818 0.930 . S
N1813 Li1763 1.990 . S
N1813 C1812 1.314 . S
N1813 C1816 1.279 . S
C1814 C1812 1.353 . S
C1814 C1817 1.348 . S
C1814 H1846 0.929 . S
C1815 C1816 1.358 . S
C1815 C1817 1.356 . S
C1815 H1847 0.930 . S
C1816 N1813 1.279 . S
C1816 C1815 1.358 . S
C1816 H1819 0.930 1_556 S
C1817 C1814 1.348 . S
C1817 C1815 1.356 . S
H1818 C1812 0.930 . S
H1819 C1816 0.930 1_554 S
O1820 Li1760 1.956 1_554 S
O1820 Li1761 1.970 . S
O1820 Li1762 1.961 . S
O1820 C1764 1.325 . S
O1821 Li1760 1.970 . S
O1821 Li1761 1.956 1_556 S
O1821 Li1763 1.961 . S
O1821 C1770 1.325 . S
O1822 Li1760 1.961 . S
O1822 Li1762 1.956 1_556 S
O1822 Li1763 1.970 . S
O1822 C1792 1.325 . S
O1823 Li1761 1.961 . S
O1823 Li1762 1.970 . S
O1823 Li1763 1.956 1_554 S
O1823 C1798 1.325 . S
H1824 C1766 0.929 . S
H1825 C1767 0.930 . S
H1826 C1768 0.930 . S
H1827 C1769 0.930 . S
H1828 C1771 0.930 . S
H1829 C1773 0.929 . S
H1830 C1774 0.930 . S
H1831 C1775 0.930 . S
H1832 C1778 0.930 . S
H1833 C1781 0.929 . S
H1834 C1786 0.929 . S
H1835 C1787 0.930 . S
H1836 C1794 0.929 . S
H1837 C1795 0.930 . S
H1838 C1796 0.930 . S
H1839 C1797 0.930 . S
H1840 C1799 0.929 . S
H1841 C1800 0.930 . S
H1842 C1801 0.930 . S
H1843 C1802 0.930 . S
H1844 C1806 0.929 . S
H1845 C1808 0.930 . S
H1846 C1814 0.929 . S
H1847 C1815 0.930 . S
Li1848 N1865 1.990 . S
Li1848 O1908 1.956 . S
Li1848 O1909 1.970 . S
Li1848 O1910 1.961 . S
Li1849 N1873 1.990 . S
Li1849 O1908 1.970 . S
Li1849 O1909 1.956 . S
Li1849 O1911 1.961 . S
Li1850 N1895 1.990 . S
Li1850 O1908 1.961 . S
Li1850 O1910 1.956 . S
Li1850 O1911 1.970 . S
Li1851 N1901 1.990 . S
Li1851 O1909 1.961 . S
Li1851 O1910 1.970 . S
Li1851 O1911 1.956 . S
C1852 C1854 1.348 . S
C1852 C1855 1.356 . S
C1852 O1908 1.325 . S
N1853 C1856 1.314 . S
N1853 C1857 1.279 . S
C1854 C1852 1.348 . S
C1854 C1856 1.353 . S
C1854 H1912 0.929 . S
C1855 C1852 1.356 . S
C1855 C1857 1.358 . S
C1855 H1913 0.930 . S
C1856 N1853 1.314 . S
C1856 C1854 1.353 . S
C1856 H1914 0.930 . S
C1857 N1853 1.279 . S
C1857 C1855 1.358 . S
C1857 H1915 0.930 . S
C1858 C1861 1.348 . S
C1858 C1862 1.356 . S
C1858 O1909 1.325 . S
C1859 N1860 1.279 . S
C1859 C1862 1.358 . S
C1859 H1916 0.930 . S
N1860 C1859 1.279 . S
N1860 C1863 1.314 . S
C1861 C1858 1.348 . S
C1861 C1863 1.353 . S
C1861 H1917 0.929 . S
C1862 C1858 1.356 . S
C1862 C1859 1.358 . S
C1862 H1918 0.930 . S
C1863 N1860 1.314 . S
C1863 C1861 1.353 . S
C1863 H1919 0.930 . S
C1864 N1865 1.314 . S
C1864 C1869 1.353 . S
C1864 H1870 0.930 . S
N1865 Li1848 1.990 . S
N1865 C1864 1.314 . S
N1865 C1867 1.279 . S
C1866 C1867 1.358 . S
C1866 C1868 1.356 . S
C1866 H1920 0.930 . S
C1867 N1865 1.279 . S
C1867 C1866 1.358 . S
C1867 H1871 0.930 . S
C1868 C1866 1.356 . S
C1868 C1869 1.348 . S
C1869 C1864 1.353 . S
C1869 C1868 1.348 . S
C1869 H1921 0.929 . S
H1870 C1864 0.930 . S
H1871 C1867 0.930 . S
C1872 N1873 1.314 . S
C1872 C1874 1.353 . S
C1872 H1878 0.930 . S
N1873 Li1849 1.990 . S
N1873 C1872 1.314 . S
N1873 C1876 1.279 . S
C1874 C1872 1.353 . S
C1874 C1877 1.348 . S
C1874 H1922 0.929 . S
C1875 C1876 1.358 . S
C1875 C1877 1.356 . S
C1875 H1923 0.930 . S
C1876 N1873 1.279 . S
C1876 C1875 1.358 . S
C1876 H1879 0.930 . S
C1877 C1874 1.348 . S
C1877 C1875 1.356 . S
H1878 C1872 0.930 . S
H1879 C1876 0.930 . S
C1880 C1882 1.348 . S
C1880 C1883 1.356 . S
C1880 O1910 1.325 . S
N1881 C1884 1.314 . S
N1881 C1885 1.279 . S
C1882 C1880 1.348 . S
C1882 C1884 1.353 . S
C1882 H1924 0.929 . S
C1883 C1880 1.356 . S
C1883 C1885 1.358 . S
C1883 H1925 0.930 . S
C1884 N1881 1.314 . S
C1884 C1882 1.353 . S
C1884 H1926 0.930 . S
C1885 N1881 1.279 . S
C1885 C1883 1.358 . S
C1885 H1927 0.930 . S
C1886 C1887 1.348 . S
C1886 C1888 1.356 . S
C1886 O1911 1.325 . S
C1887 C1886 1.348 . S
C1887 C1889 1.353 . S
C1887 H1928 0.929 . S
C1888 C1886 1.356 . S
C1888 C1890 1.358 . S
C1888 H1929 0.930 . S
C1889 C1887 1.353 . S
C1889 N1891 1.314 . S
C1889 H1930 0.930 . S
C1890 C1888 1.358 . S
C1890 N1891 1.279 . S
C1890 H1931 0.930 . S
N1891 C1889 1.314 . S
N1891 C1890 1.279 . S
C1892 C1894 1.353 . S
C1892 N1895 1.314 . S
C1892 H1898 0.930 . S
C1893 N1895 1.279 . S
C1893 C1896 1.358 . S
C1893 H1899 0.930 . S
C1894 C1892 1.353 . S
C1894 C1897 1.348 . S
C1894 H1932 0.929 . S
N1895 Li1850 1.990 . S
N1895 C1892 1.314 . S
N1895 C1893 1.279 . S
C1896 C1893 1.358 . S
C1896 C1897 1.356 . S
C1896 H1933 0.930 . S
C1897 C1894 1.348 . S
C1897 C1896 1.356 . S
H1898 C1892 0.930 . S
H1899 C1893 0.930 . S
C1900 N1901 1.314 . S
C1900 C1902 1.353 . S
C1900 H1906 0.930 . S
N1901 Li1851 1.990 . S
N1901 C1900 1.314 . S
N1901 C1904 1.279 . S
C1902 C1900 1.353 . S
C1902 C1905 1.348 . S
C1902 H1934 0.929 . S
C1903 C1904 1.358 . S
C1903 C1905 1.356 . S
C1903 H1935 0.930 . S
C1904 N1901 1.279 . S
C1904 C1903 1.358 . S
C1904 H1907 0.930 . S
C1905 C1902 1.348 . S
C1905 C1903 1.356 . S
H1906 C1900 0.930 . S
H1907 C1904 0.930 . S
O1908 Li1848 1.956 . S
O1908 Li1849 1.970 . S
O1908 Li1850 1.961 . S
O1908 C1852 1.325 . S
O1909 Li1848 1.970 . S
O1909 Li1849 1.956 . S
O1909 Li1851 1.961 . S
O1909 C1858 1.325 . S
O1910 Li1848 1.961 . S
O1910 Li1850 1.956 . S
O1910 Li1851 1.970 . S
O1910 C1880 1.325 . S
O1911 Li1849 1.961 . S
O1911 Li1850 1.970 . S
O1911 Li1851 1.956 . S
O1911 C1886 1.325 . S
H1912 C1854 0.929 . S
H1913 C1855 0.930 . S
H1914 C1856 0.930 . S
H1915 C1857 0.930 . S
H1916 C1859 0.930 . S
H1917 C1861 0.929 . S
H1918 C1862 0.930 . S
H1919 C1863 0.930 . S
H1920 C1866 0.930 . S
H1921 C1869 0.929 . S
H1922 C1874 0.929 . S
H1923 C1875 0.930 . S
H1924 C1882 0.929 . S
H1925 C1883 0.930 . S
H1926 C1884 0.930 . S
H1927 C1885 0.930 . S
H1928 C1887 0.929 . S
H1929 C1888 0.930 . S
H1930 C1889 0.930 . S
H1931 C1890 0.930 . S
H1932 C1894 0.929 . S
H1933 C1896 0.930 . S
H1934 C1902 0.929 . S
H1935 C1903 0.930 . S
Li1936 N1953 1.990 . S
Li1936 O1996 1.956 . S
Li1936 O1997 1.970 . S
Li1936 O1998 1.961 . S
Li1937 N1961 1.990 . S
Li1937 O1996 1.970 . S
Li1937 O1997 1.956 . S
Li1937 O1999 1.961 . S
Li1938 N1983 1.990 . S
Li1938 O1996 1.961 . S
Li1938 O1998 1.956 . S
Li1938 O1999 1.970 . S
Li1939 N1989 1.990 . S
Li1939 O1997 1.961 . S
Li1939 O1998 1.970 . S
Li1939 O1999 1.956 . S
C1940 C1942 1.348 . S
C1940 C1943 1.356 . S
C1940 O1996 1.325 . S
N1941 C1944 1.314 . S
N1941 C1945 1.279 . S
C1942 C1940 1.348 . S
C1942 C1944 1.353 . S
C1942 H2000 0.929 . S
C1943 C1940 1.356 . S
C1943 C1945 1.358 . S
C1943 H2001 0.930 . S
C1944 N1941 1.314 . S
C1944 C1942 1.353 . S
C1944 H2002 0.930 . S
C1945 N1941 1.279 . S
C1945 C1943 1.358 . S
C1945 H2003 0.930 . S
C1946 C1949 1.348 . S
C1946 C1950 1.356 . S
C1946 O1997 1.325 . S
C1947 N1948 1.279 . S
C1947 C1950 1.358 . S
C1947 H2004 0.930 . S
N1948 C1947 1.279 . S
N1948 C1951 1.314 . S
C1949 C1946 1.348 . S
C1949 C1951 1.353 . S
C1949 H2005 0.929 . S
C1950 C1946 1.356 . S
C1950 C1947 1.358 . S
C1950 H2006 0.930 . S
C1951 N1948 1.314 . S
C1951 C1949 1.353 . S
C1951 H2007 0.930 . S
C1952 N1953 1.314 . S
C1952 C1957 1.353 . S
C1952 H1958 0.930 . S
N1953 Li1936 1.990 . S
N1953 C1952 1.314 . S
N1953 C1955 1.279 . S
C1954 C1955 1.358 . S
C1954 C1956 1.356 . S
C1954 H2008 0.930 . S
C1955 N1953 1.279 . S
C1955 C1954 1.358 . S
C1955 H1959 0.930 . S
C1956 C1954 1.356 . S
C1956 C1957 1.348 . S
C1957 C1952 1.353 . S
C1957 C1956 1.348 . S
C1957 H2009 0.929 . S
H1958 C1952 0.930 . S
H1959 C1955 0.930 . S
C1960 N1961 1.314 . S
C1960 C1962 1.353 . S
C1960 H1966 0.930 . S
N1961 Li1937 1.990 . S
N1961 C1960 1.314 . S
N1961 C1964 1.279 . S
C1962 C1960 1.353 . S
C1962 C1965 1.348 . S
C1962 H2010 0.929 . S
C1963 C1964 1.358 . S
C1963 C1965 1.356 . S
C1963 H2011 0.930 . S
C1964 N1961 1.279 . S
C1964 C1963 1.358 . S
C1964 H1967 0.930 . S
C1965 C1962 1.348 . S
C1965 C1963 1.356 . S
H1966 C1960 0.930 . S
H1967 C1964 0.930 . S
C1968 C1970 1.348 . S
C1968 C1971 1.356 . S
C1968 O1998 1.325 . S
N1969 C1972 1.314 . S
N1969 C1973 1.279 . S
C1970 C1968 1.348 . S
C1970 C1972 1.353 . S
C1970 H2012 0.929 . S
C1971 C1968 1.356 . S
C1971 C1973 1.358 . S
C1971 H2013 0.930 . S
C1972 N1969 1.314 . S
C1972 C1970 1.353 . S
C1972 H2014 0.930 . S
C1973 N1969 1.279 . S
C1973 C1971 1.358 . S
C1973 H2015 0.930 . S
C1974 C1975 1.348 . S
C1974 C1976 1.356 . S
C1974 O1999 1.325 . S
C1975 C1974 1.348 . S
C1975 C1977 1.353 . S
C1975 H2016 0.929 . S
C1976 C1974 1.356 . S
C1976 C1978 1.358 . S
C1976 H2017 0.930 . S
C1977 C1975 1.353 . S
C1977 N1979 1.314 . S
C1977 H2018 0.930 . S
C1978 C1976 1.358 . S
C1978 N1979 1.279 . S
C1978 H2019 0.930 . S
N1979 C1977 1.314 . S
N1979 C1978 1.279 . S
C1980 C1982 1.353 . S
C1980 N1983 1.314 . S
C1980 H1986 0.930 . S
C1981 N1983 1.279 . S
C1981 C1984 1.358 . S
C1981 H1987 0.930 . S
C1982 C1980 1.353 . S
C1982 C1985 1.348 . S
C1982 H2020 0.929 . S
N1983 Li1938 1.990 . S
N1983 C1980 1.314 . S
N1983 C1981 1.279 . S
C1984 C1981 1.358 . S
C1984 C1985 1.356 . S
C1984 H2021 0.930 . S
C1985 C1982 1.348 . S
C1985 C1984 1.356 . S
H1986 C1980 0.930 . S
H1987 C1981 0.930 . S
C1988 N1989 1.314 . S
C1988 C1990 1.353 . S
C1988 H1994 0.930 . S
N1989 Li1939 1.990 . S
N1989 C1988 1.314 . S
N1989 C1992 1.279 . S
C1990 C1988 1.353 . S
C1990 C1993 1.348 . S
C1990 H2022 0.929 . S
C1991 C1992 1.358 . S
C1991 C1993 1.356 . S
C1991 H2023 0.930 . S
C1992 N1989 1.279 . S
C1992 C1991 1.358 . S
C1992 H1995 0.930 . S
C1993 C1990 1.348 . S
C1993 C1991 1.356 . S
H1994 C1988 0.930 . S
H1995 C1992 0.930 . S
O1996 Li1936 1.956 . S
O1996 Li1937 1.970 . S
O1996 Li1938 1.961 . S
O1996 C1940 1.325 . S
O1997 Li1936 1.970 . S
O1997 Li1937 1.956 . S
O1997 Li1939 1.961 . S
O1997 C1946 1.325 . S
O1998 Li1936 1.961 . S
O1998 Li1938 1.956 . S
O1998 Li1939 1.970 . S
O1998 C1968 1.325 . S
O1999 Li1937 1.961 . S
O1999 Li1938 1.970 . S
O1999 Li1939 1.956 . S
O1999 C1974 1.325 . S
H2000 C1942 0.929 . S
H2001 C1943 0.930 . S
H2002 C1944 0.930 . S
H2003 C1945 0.930 . S
H2004 C1947 0.930 . S
H2005 C1949 0.929 . S
H2006 C1950 0.930 . S
H2007 C1951 0.930 . S
H2008 C1954 0.930 . S
H2009 C1957 0.929 . S
H2010 C1962 0.929 . S
H2011 C1963 0.930 . S
H2012 C1970 0.929 . S
H2013 C1971 0.930 . S
H2014 C1972 0.930 . S
H2015 C1973 0.930 . S
H2016 C1975 0.929 . S
H2017 C1976 0.930 . S
H2018 C1977 0.930 . S
H2019 C1978 0.930 . S
H2020 C1982 0.929 . S
H2021 C1984 0.930 . S
H2022 C1990 0.929 . S
H2023 C1991 0.930 . S
Li2024 N2041 1.990 . S
Li2024 O2084 1.956 . S
Li2024 O2085 1.970 . S
Li2024 O2086 1.961 . S
Li2025 N2049 1.990 . S
Li2025 O2084 1.970 . S
Li2025 O2085 1.956 . S
Li2025 O2087 1.961 . S
Li2026 N2071 1.990 . S
Li2026 O2084 1.961 . S
Li2026 O2086 1.956 . S
Li2026 O2087 1.970 . S
Li2027 N2077 1.990 . S
Li2027 O2085 1.961 . S
Li2027 O2086 1.970 . S
Li2027 O2087 1.956 . S
C2028 C2030 1.348 . S
C2028 C2031 1.356 . S
C2028 O2084 1.325 . S
N2029 C2032 1.314 . S
N2029 C2033 1.279 . S
C2030 C2028 1.348 . S
C2030 C2032 1.353 . S
C2030 H2088 0.929 . S
C2031 C2028 1.356 . S
C2031 C2033 1.358 . S
C2031 H2089 0.930 . S
C2032 N2029 1.314 . S
C2032 C2030 1.353 . S
C2032 H2090 0.930 . S
C2033 N2029 1.279 . S
C2033 C2031 1.358 . S
C2033 H2091 0.930 . S
C2034 C2037 1.348 . S
C2034 C2038 1.356 . S
C2034 O2085 1.325 . S
C2035 N2036 1.279 . S
C2035 C2038 1.358 . S
C2035 H2092 0.930 . S
N2036 C2035 1.279 . S
N2036 C2039 1.314 . S
C2037 C2034 1.348 . S
C2037 C2039 1.353 . S
C2037 H2093 0.929 . S
C2038 C2034 1.356 . S
C2038 C2035 1.358 . S
C2038 H2094 0.930 . S
C2039 N2036 1.314 . S
C2039 C2037 1.353 . S
C2039 H2095 0.930 . S
C2040 N2041 1.314 . S
C2040 C2045 1.353 . S
C2040 H2046 0.930 . S
N2041 Li2024 1.990 . S
N2041 C2040 1.314 . S
N2041 C2043 1.279 . S
C2042 C2043 1.358 . S
C2042 C2044 1.356 . S
C2042 H2096 0.930 . S
C2043 N2041 1.279 . S
C2043 C2042 1.358 . S
C2043 H2047 0.930 . S
C2044 C2042 1.356 . S
C2044 C2045 1.348 . S
C2045 C2040 1.353 . S
C2045 C2044 1.348 . S
C2045 H2097 0.929 . S
H2046 C2040 0.930 . S
H2047 C2043 0.930 . S
C2048 N2049 1.314 . S
C2048 C2050 1.353 . S
C2048 H2054 0.930 . S
N2049 Li2025 1.990 . S
N2049 C2048 1.314 . S
N2049 C2052 1.279 . S
C2050 C2048 1.353 . S
C2050 C2053 1.348 . S
C2050 H2098 0.929 . S
C2051 C2052 1.358 . S
C2051 C2053 1.356 . S
C2051 H2099 0.930 . S
C2052 N2049 1.279 . S
C2052 C2051 1.358 . S
C2052 H2055 0.930 . S
C2053 C2050 1.348 . S
C2053 C2051 1.356 . S
H2054 C2048 0.930 . S
H2055 C2052 0.930 . S
C2056 C2058 1.348 . S
C2056 C2059 1.356 . S
C2056 O2086 1.325 . S
N2057 C2060 1.314 . S
N2057 C2061 1.279 . S
C2058 C2056 1.348 . S
C2058 C2060 1.353 . S
C2058 H2100 0.929 . S
C2059 C2056 1.356 . S
C2059 C2061 1.358 . S
C2059 H2101 0.930 . S
C2060 N2057 1.314 . S
C2060 C2058 1.353 . S
C2060 H2102 0.930 . S
C2061 N2057 1.279 . S
C2061 C2059 1.358 . S
C2061 H2103 0.930 . S
C2062 C2063 1.348 . S
C2062 C2064 1.356 . S
C2062 O2087 1.325 . S
C2063 C2062 1.348 . S
C2063 C2065 1.353 . S
C2063 H2104 0.929 . S
C2064 C2062 1.356 . S
C2064 C2066 1.358 . S
C2064 H2105 0.930 . S
C2065 C2063 1.353 . S
C2065 N2067 1.314 . S
C2065 H2106 0.930 . S
C2066 C2064 1.358 . S
C2066 N2067 1.279 . S
C2066 H2107 0.930 . S
N2067 C2065 1.314 . S
N2067 C2066 1.279 . S
C2068 C2070 1.353 . S
C2068 N2071 1.314 . S
C2068 H2074 0.930 . S
C2069 N2071 1.279 . S
C2069 C2072 1.358 . S
C2069 H2075 0.930 . S
C2070 C2068 1.353 . S
C2070 C2073 1.348 . S
C2070 H2108 0.929 . S
N2071 Li2026 1.990 . S
N2071 C2068 1.314 . S
N2071 C2069 1.279 . S
C2072 C2069 1.358 . S
C2072 C2073 1.356 . S
C2072 H2109 0.930 . S
C2073 C2070 1.348 . S
C2073 C2072 1.356 . S
H2074 C2068 0.930 . S
H2075 C2069 0.930 . S
C2076 N2077 1.314 . S
C2076 C2078 1.353 . S
C2076 H2082 0.930 . S
N2077 Li2027 1.990 . S
N2077 C2076 1.314 . S
N2077 C2080 1.279 . S
C2078 C2076 1.353 . S
C2078 C2081 1.348 . S
C2078 H2110 0.929 . S
C2079 C2080 1.358 . S
C2079 C2081 1.356 . S
C2079 H2111 0.930 . S
C2080 N2077 1.279 . S
C2080 C2079 1.358 . S
C2080 H2083 0.930 . S
C2081 C2078 1.348 . S
C2081 C2079 1.356 . S
H2082 C2076 0.930 . S
H2083 C2080 0.930 . S
O2084 Li2024 1.956 . S
O2084 Li2025 1.970 . S
O2084 Li2026 1.961 . S
O2084 C2028 1.325 . S
O2085 Li2024 1.970 . S
O2085 Li2025 1.956 . S
O2085 Li2027 1.961 . S
O2085 C2034 1.325 . S
O2086 Li2024 1.961 . S
O2086 Li2026 1.956 . S
O2086 Li2027 1.970 . S
O2086 C2056 1.325 . S
O2087 Li2025 1.961 . S
O2087 Li2026 1.970 . S
O2087 Li2027 1.956 . S
O2087 C2062 1.325 . S
H2088 C2030 0.929 . S
H2089 C2031 0.930 . S
H2090 C2032 0.930 . S
H2091 C2033 0.930 . S
H2092 C2035 0.930 . S
H2093 C2037 0.929 . S
H2094 C2038 0.930 . S
H2095 C2039 0.930 . S
H2096 C2042 0.930 . S
H2097 C2045 0.929 . S
H2098 C2050 0.929 . S
H2099 C2051 0.930 . S
H2100 C2058 0.929 . S
H2101 C2059 0.930 . S
H2102 C2060 0.930 . S
H2103 C2061 0.930 . S
H2104 C2063 0.929 . S
H2105 C2064 0.930 . S
H2106 C2065 0.930 . S
H2107 C2066 0.930 . S
H2108 C2070 0.929 . S
H2109 C2072 0.930 . S
H2110 C2078 0.929 . S
H2111 C2079 0.930 . S
H2112 C2118 0.930 . S
H2113 C2122 0.930 . S
H2114 C2127 0.929 . S
H2115 C2125 0.929 . S
H2116 C2120 0.929 . S
H2117 C2126 0.929 . S
C2118 H2112 0.930 . S
C2118 C2119 1.367 . S
C2118 C2126 1.378 . S
C2119 C2118 1.367 . S
C2119 C2127 1.433 . S
C2120 H2116 0.929 . S
C2120 C2122 1.378 . S
C2120 C2124 1.350 . S
C2121 C2124 1.463 . S
C2121 C2126 1.350 . S
C2121 N2129 1.427 . S
C2122 H2113 0.930 . S
C2122 C2120 1.378 . S
C2122 C2123 1.367 . S
C2123 C2122 1.367 . S
C2123 C2125 1.433 . S
C2124 C2120 1.350 . S
C2124 C2121 1.463 . S
C2124 N2128 1.427 . S
C2125 H2115 0.929 . S
C2125 C2123 1.433 . S
C2125 N2128 1.384 . S
C2126 H2117 0.929 . S
C2126 C2118 1.378 . S
C2126 C2121 1.350 . S
C2127 H2114 0.929 . S
C2127 C2119 1.433 . S
C2127 N2129 1.384 . S
N2128 C2124 1.427 . S
N2128 C2125 1.384 . S
N2129 C2121 1.427 . S
N2129 C2127 1.384 . S
H2130 C2136 0.930 . S
H2131 C2140 0.930 . S
H2132 C2145 0.929 . S
H2133 C2143 0.929 . S
H2134 C2138 0.929 . S
H2135 C2144 0.929 . S
C2136 H2130 0.930 . S
C2136 C2137 1.367 . S
C2136 C2144 1.378 . S
C2137 C2136 1.367 . S
C2137 C2145 1.433 . S
C2138 H2134 0.929 . S
C2138 C2140 1.378 . S
C2138 C2142 1.350 . S
C2139 C2142 1.463 . S
C2139 C2144 1.350 . S
C2139 N2147 1.427 . S
C2140 H2131 0.930 . S
C2140 C2138 1.378 . S
C2140 C2141 1.367 . S
C2141 C2140 1.367 . S
C2141 C2143 1.433 . S
C2142 C2138 1.350 . S
C2142 C2139 1.463 . S
C2142 N2146 1.427 . S
C2143 H2133 0.929 . S
C2143 C2141 1.433 . S
C2143 N2146 1.384 . S
C2144 H2135 0.929 . S
C2144 C2136 1.378 . S
C2144 C2139 1.350 . S
C2145 H2132 0.929 . S
C2145 C2137 1.433 . S
C2145 N2147 1.384 . S
N2146 C2142 1.427 . S
N2146 C2143 1.384 . S
N2147 C2139 1.427 . S
N2147 C2145 1.384 . S
H2148 C2154 0.930 . S
H2149 C2158 0.930 . S
H2150 C2163 0.929 . S
H2151 C2161 0.929 . S
H2152 C2156 0.929 . S
H2153 C2162 0.929 . S
C2154 H2148 0.930 . S
C2154 C2155 1.367 . S
C2154 C2162 1.378 . S
C2155 C2154 1.367 . S
C2155 C2163 1.433 . S
C2156 H2152 0.929 . S
C2156 C2158 1.378 . S
C2156 C2160 1.350 . S
C2157 C2160 1.463 . S
C2157 C2162 1.350 . S
C2157 N2165 1.427 . S
C2158 H2149 0.930 . S
C2158 C2156 1.378 . S
C2158 C2159 1.367 . S
C2159 C2158 1.367 . S
C2159 C2161 1.433 . S
C2160 C2156 1.350 . S
C2160 C2157 1.463 . S
C2160 N2164 1.427 . S
C2161 H2151 0.929 . S
C2161 C2159 1.433 . S
C2161 N2164 1.384 . S
C2162 H2153 0.929 . S
C2162 C2154 1.378 . S
C2162 C2157 1.350 . S
C2163 H2150 0.929 . S
C2163 C2155 1.433 . S
C2163 N2165 1.384 . S
N2164 C2160 1.427 . S
N2164 C2161 1.384 . S
N2165 C2157 1.427 . S
N2165 C2163 1.384 . S
H2166 C2172 0.930 . S
H2167 C2176 0.930 . S
H2168 C2181 0.929 . S
H2169 C2179 0.929 . S
H2170 C2174 0.929 . S
H2171 C2180 0.929 . S
C2172 H2166 0.930 . S
C2172 C2173 1.367 . S
C2172 C2180 1.378 . S
C2173 C2172 1.367 . S
C2173 C2181 1.433 . S
C2174 H2170 0.929 . S
C2174 C2176 1.378 . S
C2174 C2178 1.350 . S
C2175 C2178 1.463 . S
C2175 C2180 1.350 . S
C2175 N2183 1.427 . S
C2176 H2167 0.930 . S
C2176 C2174 1.378 . S
C2176 C2177 1.367 . S
C2177 C2176 1.367 . S
C2177 C2179 1.433 . S
C2178 C2174 1.350 . S
C2178 C2175 1.463 . S
C2178 N2182 1.427 . S
C2179 H2169 0.929 . S
C2179 C2177 1.433 . S
C2179 N2182 1.384 . S
C2180 H2171 0.929 . S
C2180 C2172 1.378 . S
C2180 C2175 1.350 . S
C2181 H2168 0.929 . S
C2181 C2173 1.433 . S
C2181 N2183 1.384 . S
N2182 C2178 1.427 . S
N2182 C2179 1.384 . S
N2183 C2175 1.427 . S
N2183 C2181 1.384 . S
H2184 C2190 0.930 . S
H2185 C2194 0.930 . S
H2186 C2199 0.929 . S
H2187 C2197 0.929 . S
H2188 C2192 0.929 . S
H2189 C2198 0.929 . S
C2190 H2184 0.930 . S
C2190 C2191 1.367 . S
C2190 C2198 1.378 . S
C2191 C2190 1.367 . S
C2191 C2199 1.433 . S
C2192 H2188 0.929 . S
C2192 C2194 1.378 . S
C2192 C2196 1.350 . S
C2193 C2196 1.463 . S
C2193 C2198 1.350 . S
C2193 N2201 1.427 . S
C2194 H2185 0.930 . S
C2194 C2192 1.378 . S
C2194 C2195 1.367 . S
C2195 C2194 1.367 . S
C2195 C2197 1.433 . S
C2196 C2192 1.350 . S
C2196 C2193 1.463 . S
C2196 N2200 1.427 . S
C2197 H2187 0.929 . S
C2197 C2195 1.433 . S
C2197 N2200 1.384 . S
C2198 H2189 0.929 . S
C2198 C2190 1.378 . S
C2198 C2193 1.350 . S
C2199 H2186 0.929 . S
C2199 C2191 1.433 . S
C2199 N2201 1.384 . S
N2200 C2196 1.427 . S
N2200 C2197 1.384 . S
N2201 C2193 1.427 . S
N2201 C2199 1.384 . S
H2202 C2208 0.930 . S
H2203 C2212 0.930 . S
H2204 C2217 0.929 . S
H2205 C2215 0.929 . S
H2206 C2210 0.929 . S
H2207 C2216 0.929 . S
C2208 H2202 0.930 . S
C2208 C2209 1.367 . S
C2208 C2216 1.378 . S
C2209 C2208 1.367 . S
C2209 C2217 1.433 . S
C2210 H2206 0.929 . S
C2210 C2212 1.378 . S
C2210 C2214 1.350 . S
C2211 C2214 1.463 . S
C2211 C2216 1.350 . S
C2211 N2219 1.427 . S
C2212 H2203 0.930 . S
C2212 C2210 1.378 . S
C2212 C2213 1.367 . S
C2213 C2212 1.367 . S
C2213 C2215 1.433 . S
C2214 C2210 1.350 . S
C2214 C2211 1.463 . S
C2214 N2218 1.427 . S
C2215 H2205 0.929 . S
C2215 C2213 1.433 . S
C2215 N2218 1.384 . S
C2216 H2207 0.929 . S
C2216 C2208 1.378 . S
C2216 C2211 1.350 . S
C2217 H2204 0.929 . S
C2217 C2209 1.433 . S
C2217 N2219 1.384 . S
N2218 C2214 1.427 . S
N2218 C2215 1.384 . S
N2219 C2211 1.427 . S
N2219 C2217 1.384 . S
H2220 C2226 0.930 . S
H2221 C2230 0.930 . S
H2222 C2235 0.929 . S
H2223 C2233 0.929 . S
H2224 C2228 0.929 . S
H2225 C2234 0.929 . S
C2226 H2220 0.930 . S
C2226 C2227 1.367 . S
C2226 C2234 1.378 . S
C2227 C2226 1.367 . S
C2227 C2235 1.433 . S
C2228 H2224 0.929 . S
C2228 C2230 1.378 . S
C2228 C2232 1.350 . S
C2229 C2232 1.463 . S
C2229 C2234 1.350 . S
C2229 N2237 1.427 . S
C2230 H2221 0.930 . S
C2230 C2228 1.378 . S
C2230 C2231 1.367 . S
C2231 C2230 1.367 . S
C2231 C2233 1.433 . S
C2232 C2228 1.350 . S
C2232 C2229 1.463 . S
C2232 N2236 1.427 . S
C2233 H2223 0.929 . S
C2233 C2231 1.433 . S
C2233 N2236 1.384 . S
C2234 H2225 0.929 . S
C2234 C2226 1.378 . S
C2234 C2229 1.350 . S
C2235 H2222 0.929 . S
C2235 C2227 1.433 . S
C2235 N2237 1.384 . S
N2236 C2232 1.427 . S
N2236 C2233 1.384 . S
N2237 C2229 1.427 . S
N2237 C2235 1.384 . S
H2238 C2244 0.930 . S
H2239 C2248 0.930 . S
H2240 C2253 0.929 . S
H2241 C2251 0.929 . S
H2242 C2246 0.929 . S
H2243 C2252 0.929 . S
C2244 H2238 0.930 . S
C2244 C2245 1.367 . S
C2244 C2252 1.378 . S
C2245 C2244 1.367 . S
C2245 C2253 1.433 . S
C2246 H2242 0.929 . S
C2246 C2248 1.378 . S
C2246 C2250 1.350 . S
C2247 C2250 1.463 . S
C2247 C2252 1.350 . S
C2247 N2255 1.427 . S
C2248 H2239 0.930 . S
C2248 C2246 1.378 . S
C2248 C2249 1.367 . S
C2249 C2248 1.367 . S
C2249 C2251 1.433 . S
C2250 C2246 1.350 . S
C2250 C2247 1.463 . S
C2250 N2254 1.427 . S
C2251 H2241 0.929 . S
C2251 C2249 1.433 . S
C2251 N2254 1.384 . S
C2252 H2243 0.929 . S
C2252 C2244 1.378 . S
C2252 C2247 1.350 . S
C2253 H2240 0.929 . S
C2253 C2245 1.433 . S
C2253 N2255 1.384 . S
N2254 C2250 1.427 . S
N2254 C2251 1.384 . S
N2255 C2247 1.427 . S
N2255 C2253 1.384 . S
H2256 C2262 0.930 . S
H2257 C2266 0.930 . S
H2258 C2271 0.929 . S
H2259 C2269 0.929 . S
H2260 C2264 0.929 . S
H2261 C2270 0.929 . S
C2262 H2256 0.930 . S
C2262 C2263 1.367 . S
C2262 C2270 1.378 . S
C2263 C2262 1.367 . S
C2263 C2271 1.433 . S
C2264 H2260 0.929 . S
C2264 C2266 1.378 . S
C2264 C2268 1.350 . S
C2265 C2268 1.463 . S
C2265 C2270 1.350 . S
C2265 N2273 1.427 . S
C2266 H2257 0.930 . S
C2266 C2264 1.378 . S
C2266 C2267 1.367 . S
C2267 C2266 1.367 . S
C2267 C2269 1.433 . S
C2268 C2264 1.350 . S
C2268 C2265 1.463 . S
C2268 N2272 1.427 . S
C2269 H2259 0.929 . S
C2269 C2267 1.433 . S
C2269 N2272 1.384 . S
C2270 H2261 0.929 . S
C2270 C2262 1.378 . S
C2270 C2265 1.350 . S
C2271 H2258 0.929 . S
C2271 C2263 1.433 . S
C2271 N2273 1.384 . S
N2272 C2268 1.427 . S
N2272 C2269 1.384 . S
N2273 C2265 1.427 . S
N2273 C2271 1.384 . S
H2274 C2280 0.930 . S
H2275 C2284 0.930 . S
H2276 C2289 0.929 . S
H2277 C2287 0.929 . S
H2278 C2282 0.929 . S
H2279 C2288 0.929 . S
C2280 H2274 0.930 . S
C2280 C2281 1.367 . S
C2280 C2288 1.378 . S
C2281 C2280 1.367 . S
C2281 C2289 1.433 . S
C2282 H2278 0.929 . S
C2282 C2284 1.378 . S
C2282 C2286 1.350 . S
C2283 C2286 1.463 . S
C2283 C2288 1.350 . S
C2283 N2291 1.427 . S
C2284 H2275 0.930 . S
C2284 C2282 1.378 . S
C2284 C2285 1.367 . S
C2285 C2284 1.367 . S
C2285 C2287 1.433 . S
C2286 C2282 1.350 . S
C2286 C2283 1.463 . S
C2286 N2290 1.427 . S
C2287 H2277 0.929 . S
C2287 C2285 1.433 . S
C2287 N2290 1.384 . S
C2288 H2279 0.929 . S
C2288 C2280 1.378 . S
C2288 C2283 1.350 . S
C2289 H2276 0.929 . S
C2289 C2281 1.433 . S
C2289 N2291 1.384 . S
N2290 C2286 1.427 . S
N2290 C2287 1.384 . S
N2291 C2283 1.427 . S
N2291 C2289 1.384 . S
H2292 C2298 0.930 . S
H2293 C2302 0.930 . S
H2294 C2307 0.929 . S
H2295 C2305 0.929 . S
H2296 C2300 0.929 . S
H2297 C2306 0.929 . S
C2298 H2292 0.930 . S
C2298 C2299 1.367 . S
C2298 C2306 1.378 . S
C2299 C2298 1.367 . S
C2299 C2307 1.433 . S
C2300 H2296 0.929 . S
C2300 C2302 1.378 . S
C2300 C2304 1.350 . S
C2301 C2304 1.463 . S
C2301 C2306 1.350 . S
C2301 N2309 1.427 . S
C2302 H2293 0.930 . S
C2302 C2300 1.378 . S
C2302 C2303 1.367 . S
C2303 C2302 1.367 . S
C2303 C2305 1.433 . S
C2304 C2300 1.350 . S
C2304 C2301 1.463 . S
C2304 N2308 1.427 . S
C2305 H2295 0.929 . S
C2305 C2303 1.433 . S
C2305 N2308 1.384 . S
C2306 H2297 0.929 . S
C2306 C2298 1.378 . S
C2306 C2301 1.350 . S
C2307 H2294 0.929 . S
C2307 C2299 1.433 . S
C2307 N2309 1.384 . S
N2308 C2304 1.427 . S
N2308 C2305 1.384 . S
N2309 C2301 1.427 . S
N2309 C2307 1.384 . S
H2310 C2316 0.930 . S
H2311 C2320 0.930 . S
H2312 C2325 0.929 . S
H2313 C2323 0.929 . S
H2314 C2318 0.929 . S
H2315 C2324 0.929 . S
C2316 H2310 0.930 . S
C2316 C2317 1.367 . S
C2316 C2324 1.378 . S
C2317 C2316 1.367 . S
C2317 C2325 1.433 . S
C2318 H2314 0.929 . S
C2318 C2320 1.378 . S
C2318 C2322 1.350 . S
C2319 C2322 1.463 . S
C2319 C2324 1.350 . S
C2319 N2327 1.427 . S
C2320 H2311 0.930 . S
C2320 C2318 1.378 . S
C2320 C2321 1.367 . S
C2321 C2320 1.367 . S
C2321 C2323 1.433 . S
C2322 C2318 1.350 . S
C2322 C2319 1.463 . S
C2322 N2326 1.427 . S
C2323 H2313 0.929 . S
C2323 C2321 1.433 . S
C2323 N2326 1.384 . S
C2324 H2315 0.929 . S
C2324 C2316 1.378 . S
C2324 C2319 1.350 . S
C2325 H2312 0.929 . S
C2325 C2317 1.433 . S
C2325 N2327 1.384 . S
N2326 C2322 1.427 . S
N2326 C2323 1.384 . S
N2327 C2319 1.427 . S
N2327 C2325 1.384 . S
H2328 C2334 0.930 . S
H2329 C2338 0.930 . S
H2330 C2343 0.929 . S
H2331 C2341 0.929 . S
H2332 C2336 0.929 . S
H2333 C2342 0.929 . S
C2334 H2328 0.930 . S
C2334 C2335 1.367 . S
C2334 C2342 1.378 . S
C2335 C2334 1.367 . S
C2335 C2343 1.433 . S
C2336 H2332 0.929 . S
C2336 C2338 1.378 . S
C2336 C2340 1.350 . S
C2337 C2340 1.463 . S
C2337 C2342 1.350 . S
C2337 N2345 1.427 . S
C2338 H2329 0.930 . S
C2338 C2336 1.378 . S
C2338 C2339 1.367 . S
C2339 C2338 1.367 . S
C2339 C2341 1.433 . S
C2340 C2336 1.350 . S
C2340 C2337 1.463 . S
C2340 N2344 1.427 . S
C2341 H2331 0.929 . S
C2341 C2339 1.433 . S
C2341 N2344 1.384 . S
C2342 H2333 0.929 . S
C2342 C2334 1.378 . S
C2342 C2337 1.350 . S
C2343 H2330 0.929 . S
C2343 C2335 1.433 . S
C2343 N2345 1.384 . S
N2344 C2340 1.427 . S
N2344 C2341 1.384 . S
N2345 C2337 1.427 . S
N2345 C2343 1.384 . S
H2346 C2352 0.930 . S
H2347 C2356 0.930 . S
H2348 C2361 0.929 . S
H2349 C2359 0.929 . S
H2350 C2354 0.929 . S
H2351 C2360 0.929 . S
C2352 H2346 0.930 . S
C2352 C2353 1.367 . S
C2352 C2360 1.378 . S
C2353 C2352 1.367 . S
C2353 C2361 1.433 . S
C2354 H2350 0.929 . S
C2354 C2356 1.378 . S
C2354 C2358 1.350 . S
C2355 C2358 1.463 . S
C2355 C2360 1.350 . S
C2355 N2363 1.427 . S
C2356 H2347 0.930 . S
C2356 C2354 1.378 . S
C2356 C2357 1.367 . S
C2357 C2356 1.367 . S
C2357 C2359 1.433 . S
C2358 C2354 1.350 . S
C2358 C2355 1.463 . S
C2358 N2362 1.427 . S
C2359 H2349 0.929 . S
C2359 C2357 1.433 . S
C2359 N2362 1.384 . S
C2360 H2351 0.929 . S
C2360 C2352 1.378 . S
C2360 C2355 1.350 . S
C2361 H2348 0.929 . S
C2361 C2353 1.433 . S
C2361 N2363 1.384 . S
N2362 C2358 1.427 . S
N2362 C2359 1.384 . S
N2363 C2355 1.427 . S
N2363 C2361 1.384 . S
H2364 C2370 0.930 . S
H2365 C2374 0.930 . S
H2366 C2379 0.929 . S
H2367 C2377 0.929 . S
H2368 C2372 0.929 . S
H2369 C2378 0.929 . S
C2370 H2364 0.930 . S
C2370 C2371 1.367 . S
C2370 C2378 1.378 . S
C2371 C2370 1.367 . S
C2371 C2379 1.433 . S
C2372 H2368 0.929 . S
C2372 C2374 1.378 . S
C2372 C2376 1.350 . S
C2373 C2376 1.463 . S
C2373 C2378 1.350 . S
C2373 N2381 1.427 . S
C2374 H2365 0.930 . S
C2374 C2372 1.378 . S
C2374 C2375 1.367 . S
C2375 C2374 1.367 . S
C2375 C2377 1.433 . S
C2376 C2372 1.350 . S
C2376 C2373 1.463 . S
C2376 N2380 1.427 . S
C2377 H2367 0.929 . S
C2377 C2375 1.433 . S
C2377 N2380 1.384 . S
C2378 H2369 0.929 . S
C2378 C2370 1.378 . S
C2378 C2373 1.350 . S
C2379 H2366 0.929 . S
C2379 C2371 1.433 . S
C2379 N2381 1.384 . S
N2380 C2376 1.427 . S
N2380 C2377 1.384 . S
N2381 C2373 1.427 . S
N2381 C2379 1.384 . S
H2382 C2388 0.930 . S
H2383 C2392 0.930 . S
H2384 C2397 0.929 . S
H2385 C2395 0.929 . S
H2386 C2390 0.929 . S
H2387 C2396 0.929 . S
C2388 H2382 0.930 . S
C2388 C2389 1.367 . S
C2388 C2396 1.378 . S
C2389 C2388 1.367 . S
C2389 C2397 1.433 . S
C2390 H2386 0.929 . S
C2390 C2392 1.378 . S
C2390 C2394 1.350 . S
C2391 C2394 1.463 . S
C2391 C2396 1.350 . S
C2391 N2399 1.427 . S
C2392 H2383 0.930 . S
C2392 C2390 1.378 . S
C2392 C2393 1.367 . S
C2393 C2392 1.367 . S
C2393 C2395 1.433 . S
C2394 C2390 1.350 . S
C2394 C2391 1.463 . S
C2394 N2398 1.427 . S
C2395 H2385 0.929 . S
C2395 C2393 1.433 . S
C2395 N2398 1.384 . S
C2396 H2387 0.929 . S
C2396 C2388 1.378 . S
C2396 C2391 1.350 . S
C2397 H2384 0.929 . S
C2397 C2389 1.433 . S
C2397 N2399 1.384 . S
N2398 C2394 1.427 . S
N2398 C2395 1.384 . S
N2399 C2391 1.427 . S
N2399 C2397 1.384 . S
H2400 C2406 0.930 . S
H2401 C2410 0.930 . S
H2402 C2415 0.929 . S
H2403 C2413 0.929 . S
H2404 C2408 0.929 . S
H2405 C2414 0.929 . S
C2406 H2400 0.930 . S
C2406 C2407 1.367 . S
C2406 C2414 1.378 . S
C2407 C2406 1.367 . S
C2407 C2415 1.433 . S
C2408 H2404 0.929 . S
C2408 C2410 1.378 . S
C2408 C2412 1.350 . S
C2409 C2412 1.463 . S
C2409 C2414 1.350 . S
C2409 N2417 1.427 . S
C2410 H2401 0.930 . S
C2410 C2408 1.378 . S
C2410 C2411 1.367 . S
C2411 C2410 1.367 . S
C2411 C2413 1.433 . S
C2412 C2408 1.350 . S
C2412 C2409 1.463 . S
C2412 N2416 1.427 . S
C2413 H2403 0.929 . S
C2413 C2411 1.433 . S
C2413 N2416 1.384 . S
C2414 H2405 0.929 . S
C2414 C2406 1.378 . S
C2414 C2409 1.350 . S
C2415 H2402 0.929 . S
C2415 C2407 1.433 . S
C2415 N2417 1.384 . S
N2416 C2412 1.427 . S
N2416 C2413 1.384 . S
N2417 C2409 1.427 . S
N2417 C2415 1.384 . S
H2418 C2424 0.930 . S
H2419 C2428 0.930 . S
H2420 C2433 0.929 . S
H2421 C2431 0.929 . S
H2422 C2426 0.929 . S
H2423 C2432 0.929 . S
C2424 H2418 0.930 . S
C2424 C2425 1.367 . S
C2424 C2432 1.378 . S
C2425 C2424 1.367 . S
C2425 C2433 1.433 . S
C2426 H2422 0.929 . S
C2426 C2428 1.378 . S
C2426 C2430 1.350 . S
C2427 C2430 1.463 . S
C2427 C2432 1.350 . S
C2427 N2435 1.427 . S
C2428 H2419 0.930 . S
C2428 C2426 1.378 . S
C2428 C2429 1.367 . S
C2429 C2428 1.367 . S
C2429 C2431 1.433 . S
C2430 C2426 1.350 . S
C2430 C2427 1.463 . S
C2430 N2434 1.427 . S
C2431 H2421 0.929 . S
C2431 C2429 1.433 . S
C2431 N2434 1.384 . S
C2432 H2423 0.929 . S
C2432 C2424 1.378 . S
C2432 C2427 1.350 . S
C2433 H2420 0.929 . S
C2433 C2425 1.433 . S
C2433 N2435 1.384 . S
N2434 C2430 1.427 . S
N2434 C2431 1.384 . S
N2435 C2427 1.427 . S
N2435 C2433 1.384 . S
H2436 C2442 0.930 . S
H2437 C2446 0.930 . S
H2438 C2451 0.929 . S
H2439 C2449 0.929 . S
H2440 C2444 0.929 . S
H2441 C2450 0.929 . S
C2442 H2436 0.930 . S
C2442 C2443 1.367 . S
C2442 C2450 1.378 . S
C2443 C2442 1.367 . S
C2443 C2451 1.433 . S
C2444 H2440 0.929 . S
C2444 C2446 1.378 . S
C2444 C2448 1.350 . S
C2445 C2448 1.463 . S
C2445 C2450 1.350 . S
C2445 N2453 1.427 . S
C2446 H2437 0.930 . S
C2446 C2444 1.378 . S
C2446 C2447 1.367 . S
C2447 C2446 1.367 . S
C2447 C2449 1.433 . S
C2448 C2444 1.350 . S
C2448 C2445 1.463 . S
C2448 N2452 1.427 . S
C2449 H2439 0.929 . S
C2449 C2447 1.433 . S
C2449 N2452 1.384 . S
C2450 H2441 0.929 . S
C2450 C2442 1.378 . S
C2450 C2445 1.350 . S
C2451 H2438 0.929 . S
C2451 C2443 1.433 . S
C2451 N2453 1.384 . S
N2452 C2448 1.427 . S
N2452 C2449 1.384 . S
N2453 C2445 1.427 . S
N2453 C2451 1.384 . S
H2454 C2460 0.930 . S
H2455 C2464 0.930 . S
H2456 C2469 0.929 . S
H2457 C2467 0.929 . S
H2458 C2462 0.929 . S
H2459 C2468 0.929 . S
C2460 H2454 0.930 . S
C2460 C2461 1.367 . S
C2460 C2468 1.378 . S
C2461 C2460 1.367 . S
C2461 C2469 1.433 . S
C2462 H2458 0.929 . S
C2462 C2464 1.378 . S
C2462 C2466 1.350 . S
C2463 C2466 1.463 . S
C2463 C2468 1.350 . S
C2463 N2471 1.427 . S
C2464 H2455 0.930 . S
C2464 C2462 1.378 . S
C2464 C2465 1.367 . S
C2465 C2464 1.367 . S
C2465 C2467 1.433 . S
C2466 C2462 1.350 . S
C2466 C2463 1.463 . S
C2466 N2470 1.427 . S
C2467 H2457 0.929 . S
C2467 C2465 1.433 . S
C2467 N2470 1.384 . S
C2468 H2459 0.929 . S
C2468 C2460 1.378 . S
C2468 C2463 1.350 . S
C2469 H2456 0.929 . S
C2469 C2461 1.433 . S
C2469 N2471 1.384 . S
N2470 C2466 1.427 . S
N2470 C2467 1.384 . S
N2471 C2463 1.427 . S
N2471 C2469 1.384 . S
H2472 C2478 0.930 . S
H2473 C2482 0.930 . S
H2474 C2487 0.929 . S
H2475 C2485 0.929 . S
H2476 C2480 0.929 . S
H2477 C2486 0.929 . S
C2478 H2472 0.930 . S
C2478 C2479 1.367 . S
C2478 C2486 1.378 . S
C2479 C2478 1.367 . S
C2479 C2487 1.433 . S
C2480 H2476 0.929 . S
C2480 C2482 1.378 . S
C2480 C2484 1.350 . S
C2481 C2484 1.463 . S
C2481 C2486 1.350 . S
C2481 N2489 1.427 . S
C2482 H2473 0.930 . S
C2482 C2480 1.378 . S
C2482 C2483 1.367 . S
C2483 C2482 1.367 . S
C2483 C2485 1.433 . S
C2484 C2480 1.350 . S
C2484 C2481 1.463 . S
C2484 N2488 1.427 . S
C2485 H2475 0.929 . S
C2485 C2483 1.433 . S
C2485 N2488 1.384 . S
C2486 H2477 0.929 . S
C2486 C2478 1.378 . S
C2486 C2481 1.350 . S
C2487 H2474 0.929 . S
C2487 C2479 1.433 . S
C2487 N2489 1.384 . S
N2488 C2484 1.427 . S
N2488 C2485 1.384 . S
N2489 C2481 1.427 . S
N2489 C2487 1.384 . S
H2490 C2496 0.930 . S
H2491 C2500 0.930 . S
H2492 C2505 0.929 . S
H2493 C2503 0.929 . S
H2494 C2498 0.929 . S
H2495 C2504 0.929 . S
C2496 H2490 0.930 . S
C2496 C2497 1.367 . S
C2496 C2504 1.378 . S
C2497 C2496 1.367 . S
C2497 C2505 1.433 . S
C2498 H2494 0.929 . S
C2498 C2500 1.378 . S
C2498 C2502 1.350 . S
C2499 C2502 1.463 . S
C2499 C2504 1.350 . S
C2499 N2507 1.427 . S
C2500 H2491 0.930 . S
C2500 C2498 1.378 . S
C2500 C2501 1.367 . S
C2501 C2500 1.367 . S
C2501 C2503 1.433 . S
C2502 C2498 1.350 . S
C2502 C2499 1.463 . S
C2502 N2506 1.427 . S
C2503 H2493 0.929 . S
C2503 C2501 1.433 . S
C2503 N2506 1.384 . S
C2504 H2495 0.929 . S
C2504 C2496 1.378 . S
C2504 C2499 1.350 . S
C2505 H2492 0.929 . S
C2505 C2497 1.433 . S
C2505 N2507 1.384 . S
N2506 C2502 1.427 . S
N2506 C2503 1.384 . S
N2507 C2499 1.427 . S
N2507 C2505 1.384 . S
H2508 C2514 0.930 . S
H2509 C2518 0.930 . S
H2510 C2523 0.929 . S
H2511 C2521 0.929 . S
H2512 C2516 0.929 . S
H2513 C2522 0.929 . S
C2514 H2508 0.930 . S
C2514 C2515 1.367 . S
C2514 C2522 1.378 . S
C2515 C2514 1.367 . S
C2515 C2523 1.433 . S
C2516 H2512 0.929 . S
C2516 C2518 1.378 . S
C2516 C2520 1.350 . S
C2517 C2520 1.463 . S
C2517 C2522 1.350 . S
C2517 N2525 1.427 . S
C2518 H2509 0.930 . S
C2518 C2516 1.378 . S
C2518 C2519 1.367 . S
C2519 C2518 1.367 . S
C2519 C2521 1.433 . S
C2520 C2516 1.350 . S
C2520 C2517 1.463 . S
C2520 N2524 1.427 . S
C2521 H2511 0.929 . S
C2521 C2519 1.433 . S
C2521 N2524 1.384 . S
C2522 H2513 0.929 . S
C2522 C2514 1.378 . S
C2522 C2517 1.350 . S
C2523 H2510 0.929 . S
C2523 C2515 1.433 . S
C2523 N2525 1.384 . S
N2524 C2520 1.427 . S
N2524 C2521 1.384 . S
N2525 C2517 1.427 . S
N2525 C2523 1.384 . S
H2526 C2532 0.930 . S
H2527 C2536 0.930 . S
H2528 C2541 0.929 . S
H2529 C2539 0.929 . S
H2530 C2534 0.929 . S
H2531 C2540 0.929 . S
C2532 H2526 0.930 . S
C2532 C2533 1.367 . S
C2532 C2540 1.378 . S
C2533 C2532 1.367 . S
C2533 C2541 1.433 . S
C2534 H2530 0.929 . S
C2534 C2536 1.378 . S
C2534 C2538 1.350 . S
C2535 C2538 1.463 . S
C2535 C2540 1.350 . S
C2535 N2543 1.427 . S
C2536 H2527 0.930 . S
C2536 C2534 1.378 . S
C2536 C2537 1.367 . S
C2537 C2536 1.367 . S
C2537 C2539 1.433 . S
C2538 C2534 1.350 . S
C2538 C2535 1.463 . S
C2538 N2542 1.427 . S
C2539 H2529 0.929 . S
C2539 C2537 1.433 . S
C2539 N2542 1.384 . S
C2540 H2531 0.929 . S
C2540 C2532 1.378 . S
C2540 C2535 1.350 . S
C2541 H2528 0.929 . S
C2541 C2533 1.433 . S
C2541 N2543 1.384 . S
N2542 C2538 1.427 . S
N2542 C2539 1.384 . S
N2543 C2535 1.427 . S
N2543 C2541 1.384 . S
H2544 C2550 0.930 . S
H2545 C2554 0.930 . S
H2546 C2559 0.929 . S
H2547 C2557 0.929 . S
H2548 C2552 0.929 . S
H2549 C2558 0.929 . S
C2550 H2544 0.930 . S
C2550 C2551 1.367 . S
C2550 C2558 1.378 . S
C2551 C2550 1.367 . S
C2551 C2559 1.433 . S
C2552 H2548 0.929 . S
C2552 C2554 1.378 . S
C2552 C2556 1.350 . S
C2553 C2556 1.463 . S
C2553 C2558 1.350 . S
C2553 N2561 1.427 . S
C2554 H2545 0.930 . S
C2554 C2552 1.378 . S
C2554 C2555 1.367 . S
C2555 C2554 1.367 . S
C2555 C2557 1.433 . S
C2556 C2552 1.350 . S
C2556 C2553 1.463 . S
C2556 N2560 1.427 . S
C2557 H2547 0.929 . S
C2557 C2555 1.433 . S
C2557 N2560 1.384 . S
C2558 H2549 0.929 . S
C2558 C2550 1.378 . S
C2558 C2553 1.350 . S
C2559 H2546 0.929 . S
C2559 C2551 1.433 . S
C2559 N2561 1.384 . S
N2560 C2556 1.427 . S
N2560 C2557 1.384 . S
N2561 C2553 1.427 . S
N2561 C2559 1.384 . S
H2562 C2568 0.930 . S
H2563 C2572 0.930 . S
H2564 C2577 0.929 . S
H2565 C2575 0.929 . S
H2566 C2570 0.929 . S
H2567 C2576 0.929 . S
C2568 H2562 0.930 . S
C2568 C2569 1.367 . S
C2568 C2576 1.378 . S
C2569 C2568 1.367 . S
C2569 C2577 1.433 . S
C2570 H2566 0.929 . S
C2570 C2572 1.378 . S
C2570 C2574 1.350 . S
C2571 C2574 1.463 . S
C2571 C2576 1.350 . S
C2571 N2579 1.427 . S
C2572 H2563 0.930 . S
C2572 C2570 1.378 . S
C2572 C2573 1.367 . S
C2573 C2572 1.367 . S
C2573 C2575 1.433 . S
C2574 C2570 1.350 . S
C2574 C2571 1.463 . S
C2574 N2578 1.427 . S
C2575 H2565 0.929 . S
C2575 C2573 1.433 . S
C2575 N2578 1.384 . S
C2576 H2567 0.929 . S
C2576 C2568 1.378 . S
C2576 C2571 1.350 . S
C2577 H2564 0.929 . S
C2577 C2569 1.433 . S
C2577 N2579 1.384 . S
N2578 C2574 1.427 . S
N2578 C2575 1.384 . S
N2579 C2571 1.427 . S
N2579 C2577 1.384 . S
H2580 C2586 0.930 . S
H2581 C2590 0.930 . S
H2582 C2595 0.929 . S
H2583 C2593 0.929 . S
H2584 C2588 0.929 . S
H2585 C2594 0.929 . S
C2586 H2580 0.930 . S
C2586 C2587 1.367 . S
C2586 C2594 1.378 . S
C2587 C2586 1.367 . S
C2587 C2595 1.433 . S
C2588 H2584 0.929 . S
C2588 C2590 1.378 . S
C2588 C2592 1.350 . S
C2589 C2592 1.463 . S
C2589 C2594 1.350 . S
C2589 N2597 1.427 . S
C2590 H2581 0.930 . S
C2590 C2588 1.378 . S
C2590 C2591 1.367 . S
C2591 C2590 1.367 . S
C2591 C2593 1.433 . S
C2592 C2588 1.350 . S
C2592 C2589 1.463 . S
C2592 N2596 1.427 . S
C2593 H2583 0.929 . S
C2593 C2591 1.433 . S
C2593 N2596 1.384 . S
C2594 H2585 0.929 . S
C2594 C2586 1.378 . S
C2594 C2589 1.350 . S
C2595 H2582 0.929 . S
C2595 C2587 1.433 . S
C2595 N2597 1.384 . S
N2596 C2592 1.427 . S
N2596 C2593 1.384 . S
N2597 C2589 1.427 . S
N2597 C2595 1.384 . S
H2598 C2604 0.930 . S
H2599 C2608 0.930 . S
H2600 C2613 0.929 . S
H2601 C2611 0.929 . S
H2602 C2606 0.929 . S
H2603 C2612 0.929 . S
C2604 H2598 0.930 . S
C2604 C2605 1.367 . S
C2604 C2612 1.378 . S
C2605 C2604 1.367 . S
C2605 C2613 1.433 . S
C2606 H2602 0.929 . S
C2606 C2608 1.378 . S
C2606 C2610 1.350 . S
C2607 C2610 1.463 . S
C2607 C2612 1.350 . S
C2607 N2615 1.427 . S
C2608 H2599 0.930 . S
C2608 C2606 1.378 . S
C2608 C2609 1.367 . S
C2609 C2608 1.367 . S
C2609 C2611 1.433 . S
C2610 C2606 1.350 . S
C2610 C2607 1.463 . S
C2610 N2614 1.427 . S
C2611 H2601 0.929 . S
C2611 C2609 1.433 . S
C2611 N2614 1.384 . S
C2612 H2603 0.929 . S
C2612 C2604 1.378 . S
C2612 C2607 1.350 . S
C2613 H2600 0.929 . S
C2613 C2605 1.433 . S
C2613 N2615 1.384 . S
N2614 C2610 1.427 . S
N2614 C2611 1.384 . S
N2615 C2607 1.427 . S
N2615 C2613 1.384 . S
H2616 C2622 0.930 . S
H2617 C2626 0.930 . S
H2618 C2631 0.929 . S
H2619 C2629 0.929 . S
H2620 C2624 0.929 . S
H2621 C2630 0.929 . S
C2622 H2616 0.930 . S
C2622 C2623 1.367 . S
C2622 C2630 1.378 . S
C2623 C2622 1.367 . S
C2623 C2631 1.433 . S
C2624 H2620 0.929 . S
C2624 C2626 1.378 . S
C2624 C2628 1.350 . S
C2625 C2628 1.463 . S
C2625 C2630 1.350 . S
C2625 N2633 1.427 . S
C2626 H2617 0.930 . S
C2626 C2624 1.378 . S
C2626 C2627 1.367 . S
C2627 C2626 1.367 . S
C2627 C2629 1.433 . S
C2628 C2624 1.350 . S
C2628 C2625 1.463 . S
C2628 N2632 1.427 . S
C2629 H2619 0.929 . S
C2629 C2627 1.433 . S
C2629 N2632 1.384 . S
C2630 H2621 0.929 . S
C2630 C2622 1.378 . S
C2630 C2625 1.350 . S
C2631 H2618 0.929 . S
C2631 C2623 1.433 . S
C2631 N2633 1.384 . S
N2632 C2628 1.427 . S
N2632 C2629 1.384 . S
N2633 C2625 1.427 . S
N2633 C2631 1.384 . S
H2634 C2640 0.930 . S
H2635 C2644 0.930 . S
H2636 C2649 0.929 . S
H2637 C2647 0.929 . S
H2638 C2642 0.929 . S
H2639 C2648 0.929 . S
C2640 H2634 0.930 . S
C2640 C2641 1.367 . S
C2640 C2648 1.378 . S
C2641 C2640 1.367 . S
C2641 C2649 1.433 . S
C2642 H2638 0.929 . S
C2642 C2644 1.378 . S
C2642 C2646 1.350 . S
C2643 C2646 1.463 . S
C2643 C2648 1.350 . S
C2643 N2651 1.427 . S
C2644 H2635 0.930 . S
C2644 C2642 1.378 . S
C2644 C2645 1.367 . S
C2645 C2644 1.367 . S
C2645 C2647 1.433 . S
C2646 C2642 1.350 . S
C2646 C2643 1.463 . S
C2646 N2650 1.427 . S
C2647 H2637 0.929 . S
C2647 C2645 1.433 . S
C2647 N2650 1.384 . S
C2648 H2639 0.929 . S
C2648 C2640 1.378 . S
C2648 C2643 1.350 . S
C2649 H2636 0.929 . S
C2649 C2641 1.433 . S
C2649 N2651 1.384 . S
N2650 C2646 1.427 . S
N2650 C2647 1.384 . S
N2651 C2643 1.427 . S
N2651 C2649 1.384 . S
H2652 C2658 0.930 . S
H2653 C2662 0.930 . S
H2654 C2667 0.929 . S
H2655 C2665 0.929 . S
H2656 C2660 0.929 . S
H2657 C2666 0.929 . S
C2658 H2652 0.930 . S
C2658 C2659 1.367 . S
C2658 C2666 1.378 . S
C2659 C2658 1.367 . S
C2659 C2667 1.433 . S
C2660 H2656 0.929 . S
C2660 C2662 1.378 . S
C2660 C2664 1.350 . S
C2661 C2664 1.463 . S
C2661 C2666 1.350 . S
C2661 N2669 1.427 . S
C2662 H2653 0.930 . S
C2662 C2660 1.378 . S
C2662 C2663 1.367 . S
C2663 C2662 1.367 . S
C2663 C2665 1.433 . S
C2664 C2660 1.350 . S
C2664 C2661 1.463 . S
C2664 N2668 1.427 . S
C2665 H2655 0.929 . S
C2665 C2663 1.433 . S
C2665 N2668 1.384 . S
C2666 H2657 0.929 . S
C2666 C2658 1.378 . S
C2666 C2661 1.350 . S
C2667 H2654 0.929 . S
C2667 C2659 1.433 . S
C2667 N2669 1.384 . S
N2668 C2664 1.427 . S
N2668 C2665 1.384 . S
N2669 C2661 1.427 . S
N2669 C2667 1.384 . S
H2670 C2676 0.930 . S
H2671 C2680 0.930 . S
H2672 C2685 0.929 . S
H2673 C2683 0.929 . S
H2674 C2678 0.929 . S
H2675 C2684 0.929 . S
C2676 H2670 0.930 . S
C2676 C2677 1.367 . S
C2676 C2684 1.378 . S
C2677 C2676 1.367 . S
C2677 C2685 1.433 . S
C2678 H2674 0.929 . S
C2678 C2680 1.378 . S
C2678 C2682 1.350 . S
C2679 C2682 1.463 . S
C2679 C2684 1.350 . S
C2679 N2687 1.427 . S
C2680 H2671 0.930 . S
C2680 C2678 1.378 . S
C2680 C2681 1.367 . S
C2681 C2680 1.367 . S
C2681 C2683 1.433 . S
C2682 C2678 1.350 . S
C2682 C2679 1.463 . S
C2682 N2686 1.427 . S
C2683 H2673 0.929 . S
C2683 C2681 1.433 . S
C2683 N2686 1.384 . S
C2684 H2675 0.929 . S
C2684 C2676 1.378 . S
C2684 C2679 1.350 . S
C2685 H2672 0.929 . S
C2685 C2677 1.433 . S
C2685 N2687 1.384 . S
N2686 C2682 1.427 . S
N2686 C2683 1.384 . S
N2687 C2679 1.427 . S
N2687 C2685 1.384 . S
H2688 C2694 0.930 . S
H2689 C2698 0.930 . S
H2690 C2703 0.929 . S
H2691 C2701 0.929 . S
H2692 C2696 0.929 . S
H2693 C2702 0.929 . S
C2694 H2688 0.930 . S
C2694 C2695 1.367 . S
C2694 C2702 1.378 . S
C2695 C2694 1.367 . S
C2695 C2703 1.433 . S
C2696 H2692 0.929 . S
C2696 C2698 1.378 . S
C2696 C2700 1.350 . S
C2697 C2700 1.463 . S
C2697 C2702 1.350 . S
C2697 N2705 1.427 . S
C2698 H2689 0.930 . S
C2698 C2696 1.378 . S
C2698 C2699 1.367 . S
C2699 C2698 1.367 . S
C2699 C2701 1.433 . S
C2700 C2696 1.350 . S
C2700 C2697 1.463 . S
C2700 N2704 1.427 . S
C2701 H2691 0.929 . S
C2701 C2699 1.433 . S
C2701 N2704 1.384 . S
C2702 H2693 0.929 . S
C2702 C2694 1.378 . S
C2702 C2697 1.350 . S
C2703 H2690 0.929 . S
C2703 C2695 1.433 . S
C2703 N2705 1.384 . S
N2704 C2700 1.427 . S
N2704 C2701 1.384 . S
N2705 C2697 1.427 . S
N2705 C2703 1.384 . S
H2706 C2712 0.930 . S
H2707 C2716 0.930 . S
H2708 C2721 0.929 . S
H2709 C2719 0.929 . S
H2710 C2714 0.929 . S
H2711 C2720 0.929 . S
C2712 H2706 0.930 . S
C2712 C2713 1.367 . S
C2712 C2720 1.378 . S
C2713 C2712 1.367 . S
C2713 C2721 1.433 . S
C2714 H2710 0.929 . S
C2714 C2716 1.378 . S
C2714 C2718 1.350 . S
C2715 C2718 1.463 . S
C2715 C2720 1.350 . S
C2715 N2723 1.427 . S
C2716 H2707 0.930 . S
C2716 C2714 1.378 . S
C2716 C2717 1.367 . S
C2717 C2716 1.367 . S
C2717 C2719 1.433 . S
C2718 C2714 1.350 . S
C2718 C2715 1.463 . S
C2718 N2722 1.427 . S
C2719 H2709 0.929 . S
C2719 C2717 1.433 . S
C2719 N2722 1.384 . S
C2720 H2711 0.929 . S
C2720 C2712 1.378 . S
C2720 C2715 1.350 . S
C2721 H2708 0.929 . S
C2721 C2713 1.433 . S
C2721 N2723 1.384 . S
N2722 C2718 1.427 . S
N2722 C2719 1.384 . S
N2723 C2715 1.427 . S
N2723 C2721 1.384 . S
H2724 C2730 0.930 . S
H2725 C2734 0.930 . S
H2726 C2739 0.929 . S
H2727 C2737 0.929 . S
H2728 C2732 0.929 . S
H2729 C2738 0.929 . S
C2730 H2724 0.930 . S
C2730 C2731 1.367 . S
C2730 C2738 1.378 . S
C2731 C2730 1.367 . S
C2731 C2739 1.433 . S
C2732 H2728 0.929 . S
C2732 C2734 1.378 . S
C2732 C2736 1.350 . S
C2733 C2736 1.463 . S
C2733 C2738 1.350 . S
C2733 N2741 1.427 . S
C2734 H2725 0.930 . S
C2734 C2732 1.378 . S
C2734 C2735 1.367 . S
C2735 C2734 1.367 . S
C2735 C2737 1.433 . S
C2736 C2732 1.350 . S
C2736 C2733 1.463 . S
C2736 N2740 1.427 . S
C2737 H2727 0.929 . S
C2737 C2735 1.433 . S
C2737 N2740 1.384 . S
C2738 H2729 0.929 . S
C2738 C2730 1.378 . S
C2738 C2733 1.350 . S
C2739 H2726 0.929 . S
C2739 C2731 1.433 . S
C2739 N2741 1.384 . S
N2740 C2736 1.427 . S
N2740 C2737 1.384 . S
N2741 C2733 1.427 . S
N2741 C2739 1.384 . S
H2742 C2748 0.930 . S
H2743 C2752 0.930 . S
H2744 C2757 0.929 . S
H2745 C2755 0.929 . S
H2746 C2750 0.929 . S
H2747 C2756 0.929 . S
C2748 H2742 0.930 . S
C2748 C2749 1.367 . S
C2748 C2756 1.378 . S
C2749 C2748 1.367 . S
C2749 C2757 1.433 . S
C2750 H2746 0.929 . S
C2750 C2752 1.378 . S
C2750 C2754 1.350 . S
C2751 C2754 1.463 . S
C2751 C2756 1.350 . S
C2751 N2759 1.427 . S
C2752 H2743 0.930 . S
C2752 C2750 1.378 . S
C2752 C2753 1.367 . S
C2753 C2752 1.367 . S
C2753 C2755 1.433 . S
C2754 C2750 1.350 . S
C2754 C2751 1.463 . S
C2754 N2758 1.427 . S
C2755 H2745 0.929 . S
C2755 C2753 1.433 . S
C2755 N2758 1.384 . S
C2756 H2747 0.929 . S
C2756 C2748 1.378 . S
C2756 C2751 1.350 . S
C2757 H2744 0.929 . S
C2757 C2749 1.433 . S
C2757 N2759 1.384 . S
N2758 C2754 1.427 . S
N2758 C2755 1.384 . S
N2759 C2751 1.427 . S
N2759 C2757 1.384 . S
H2760 C2766 0.930 . S
H2761 C2770 0.930 . S
H2762 C2775 0.929 . S
H2763 C2773 0.929 . S
H2764 C2768 0.929 . S
H2765 C2774 0.929 . S
C2766 H2760 0.930 . S
C2766 C2767 1.367 . S
C2766 C2774 1.378 . S
C2767 C2766 1.367 . S
C2767 C2775 1.433 . S
C2768 H2764 0.929 . S
C2768 C2770 1.378 . S
C2768 C2772 1.350 . S
C2769 C2772 1.463 . S
C2769 C2774 1.350 . S
C2769 N2777 1.427 . S
C2770 H2761 0.930 . S
C2770 C2768 1.378 . S
C2770 C2771 1.367 . S
C2771 C2770 1.367 . S
C2771 C2773 1.433 . S
C2772 C2768 1.350 . S
C2772 C2769 1.463 . S
C2772 N2776 1.427 . S
C2773 H2763 0.929 . S
C2773 C2771 1.433 . S
C2773 N2776 1.384 . S
C2774 H2765 0.929 . S
C2774 C2766 1.378 . S
C2774 C2769 1.350 . S
C2775 H2762 0.929 . S
C2775 C2767 1.433 . S
C2775 N2777 1.384 . S
N2776 C2772 1.427 . S
N2776 C2773 1.384 . S
N2777 C2769 1.427 . S
N2777 C2775 1.384 . S
H2778 C2784 0.930 . S
H2779 C2788 0.930 . S
H2780 C2793 0.929 . S
H2781 C2791 0.929 . S
H2782 C2786 0.929 . S
H2783 C2792 0.929 . S
C2784 H2778 0.930 . S
C2784 C2785 1.367 . S
C2784 C2792 1.378 . S
C2785 C2784 1.367 . S
C2785 C2793 1.433 . S
C2786 H2782 0.929 . S
C2786 C2788 1.378 . S
C2786 C2790 1.350 . S
C2787 C2790 1.463 . S
C2787 C2792 1.350 . S
C2787 N2795 1.427 . S
C2788 H2779 0.930 . S
C2788 C2786 1.378 . S
C2788 C2789 1.367 . S
C2789 C2788 1.367 . S
C2789 C2791 1.433 . S
C2790 C2786 1.350 . S
C2790 C2787 1.463 . S
C2790 N2794 1.427 . S
C2791 H2781 0.929 . S
C2791 C2789 1.433 . S
C2791 N2794 1.384 . S
C2792 H2783 0.929 . S
C2792 C2784 1.378 . S
C2792 C2787 1.350 . S
C2793 H2780 0.929 . S
C2793 C2785 1.433 . S
C2793 N2795 1.384 . S
N2794 C2790 1.427 . S
N2794 C2791 1.384 . S
N2795 C2787 1.427 . S
N2795 C2793 1.384 . S
H2796 C2802 0.930 . S
H2797 C2806 0.930 . S
H2798 C2811 0.929 . S
H2799 C2809 0.929 . S
H2800 C2804 0.929 . S
H2801 C2810 0.929 . S
C2802 H2796 0.930 . S
C2802 C2803 1.367 . S
C2802 C2810 1.378 . S
C2803 C2802 1.367 . S
C2803 C2811 1.433 . S
C2804 H2800 0.929 . S
C2804 C2806 1.378 . S
C2804 C2808 1.350 . S
C2805 C2808 1.463 . S
C2805 C2810 1.350 . S
C2805 N2813 1.427 . S
C2806 H2797 0.930 . S
C2806 C2804 1.378 . S
C2806 C2807 1.367 . S
C2807 C2806 1.367 . S
C2807 C2809 1.433 . S
C2808 C2804 1.350 . S
C2808 C2805 1.463 . S
C2808 N2812 1.427 . S
C2809 H2799 0.929 . S
C2809 C2807 1.433 . S
C2809 N2812 1.384 . S
C2810 H2801 0.929 . S
C2810 C2802 1.378 . S
C2810 C2805 1.350 . S
C2811 H2798 0.929 . S
C2811 C2803 1.433 . S
C2811 N2813 1.384 . S
N2812 C2808 1.427 . S
N2812 C2809 1.384 . S
N2813 C2805 1.427 . S
N2813 C2811 1.384 . S
H2814 C2820 0.930 . S
H2815 C2824 0.930 . S
H2816 C2829 0.929 . S
H2817 C2827 0.929 . S
H2818 C2822 0.929 . S
H2819 C2828 0.929 . S
C2820 H2814 0.930 . S
C2820 C2821 1.367 . S
C2820 C2828 1.378 . S
C2821 C2820 1.367 . S
C2821 C2829 1.433 . S
C2822 H2818 0.929 . S
C2822 C2824 1.378 . S
C2822 C2826 1.350 . S
C2823 C2826 1.463 . S
C2823 C2828 1.350 . S
C2823 N2831 1.427 . S
C2824 H2815 0.930 . S
C2824 C2822 1.378 . S
C2824 C2825 1.367 . S
C2825 C2824 1.367 . S
C2825 C2827 1.433 . S
C2826 C2822 1.350 . S
C2826 C2823 1.463 . S
C2826 N2830 1.427 . S
C2827 H2817 0.929 . S
C2827 C2825 1.433 . S
C2827 N2830 1.384 . S
C2828 H2819 0.929 . S
C2828 C2820 1.378 . S
C2828 C2823 1.350 . S
C2829 H2816 0.929 . S
C2829 C2821 1.433 . S
C2829 N2831 1.384 . S
N2830 C2826 1.427 . S
N2830 C2827 1.384 . S
N2831 C2823 1.427 . S
N2831 C2829 1.384 . S
H2832 C2838 0.930 . S
H2833 C2842 0.930 . S
H2834 C2847 0.929 . S
H2835 C2845 0.929 . S
H2836 C2840 0.929 . S
H2837 C2846 0.929 . S
C2838 H2832 0.930 . S
C2838 C2839 1.367 . S
C2838 C2846 1.378 . S
C2839 C2838 1.367 . S
C2839 C2847 1.433 . S
C2840 H2836 0.929 . S
C2840 C2842 1.378 . S
C2840 C2844 1.350 . S
C2841 C2844 1.463 . S
C2841 C2846 1.350 . S
C2841 N2849 1.427 . S
C2842 H2833 0.930 . S
C2842 C2840 1.378 . S
C2842 C2843 1.367 . S
C2843 C2842 1.367 . S
C2843 C2845 1.433 . S
C2844 C2840 1.350 . S
C2844 C2841 1.463 . S
C2844 N2848 1.427 . S
C2845 H2835 0.929 . S
C2845 C2843 1.433 . S
C2845 N2848 1.384 . S
C2846 H2837 0.929 . S
C2846 C2838 1.378 . S
C2846 C2841 1.350 . S
C2847 H2834 0.929 . S
C2847 C2839 1.433 . S
C2847 N2849 1.384 . S
N2848 C2844 1.427 . S
N2848 C2845 1.384 . S
N2849 C2841 1.427 . S
N2849 C2847 1.384 . S
H2850 C2856 0.930 . S
H2851 C2860 0.930 . S
H2852 C2865 0.929 . S
H2853 C2863 0.929 . S
H2854 C2858 0.929 . S
H2855 C2864 0.929 . S
C2856 H2850 0.930 . S
C2856 C2857 1.367 . S
C2856 C2864 1.378 . S
C2857 C2856 1.367 . S
C2857 C2865 1.433 . S
C2858 H2854 0.929 . S
C2858 C2860 1.378 . S
C2858 C2862 1.350 . S
C2859 C2862 1.463 . S
C2859 C2864 1.350 . S
C2859 N2867 1.427 . S
C2860 H2851 0.930 . S
C2860 C2858 1.378 . S
C2860 C2861 1.367 . S
C2861 C2860 1.367 . S
C2861 C2863 1.433 . S
C2862 C2858 1.350 . S
C2862 C2859 1.463 . S
C2862 N2866 1.427 . S
C2863 H2853 0.929 . S
C2863 C2861 1.433 . S
C2863 N2866 1.384 . S
C2864 H2855 0.929 . S
C2864 C2856 1.378 . S
C2864 C2859 1.350 . S
C2865 H2852 0.929 . S
C2865 C2857 1.433 . S
C2865 N2867 1.384 . S
N2866 C2862 1.427 . S
N2866 C2863 1.384 . S
N2867 C2859 1.427 . S
N2867 C2865 1.384 . S
H2868 C2874 0.930 . S
H2869 C2878 0.930 . S
H2870 C2883 0.929 . S
H2871 C2881 0.929 . S
H2872 C2876 0.929 . S
H2873 C2882 0.929 . S
C2874 H2868 0.930 . S
C2874 C2875 1.367 . S
C2874 C2882 1.378 . S
C2875 C2874 1.367 . S
C2875 C2883 1.433 . S
C2876 H2872 0.929 . S
C2876 C2878 1.378 . S
C2876 C2880 1.350 . S
C2877 C2880 1.463 . S
C2877 C2882 1.350 . S
C2877 N2885 1.427 . S
C2878 H2869 0.930 . S
C2878 C2876 1.378 . S
C2878 C2879 1.367 . S
C2879 C2878 1.367 . S
C2879 C2881 1.433 . S
C2880 C2876 1.350 . S
C2880 C2877 1.463 . S
C2880 N2884 1.427 . S
C2881 H2871 0.929 . S
C2881 C2879 1.433 . S
C2881 N2884 1.384 . S
C2882 H2873 0.929 . S
C2882 C2874 1.378 . S
C2882 C2877 1.350 . S
C2883 H2870 0.929 . S
C2883 C2875 1.433 . S
C2883 N2885 1.384 . S
N2884 C2880 1.427 . S
N2884 C2881 1.384 . S
N2885 C2877 1.427 . S
N2885 C2883 1.384 . S
H2886 C2892 0.930 . S
H2887 C2896 0.930 . S
H2888 C2901 0.929 . S
H2889 C2899 0.929 . S
H2890 C2894 0.929 . S
H2891 C2900 0.929 . S
C2892 H2886 0.930 . S
C2892 C2893 1.367 . S
C2892 C2900 1.378 . S
C2893 C2892 1.367 . S
C2893 C2901 1.433 . S
C2894 H2890 0.929 . S
C2894 C2896 1.378 . S
C2894 C2898 1.350 . S
C2895 C2898 1.463 . S
C2895 C2900 1.350 . S
C2895 N2903 1.427 . S
C2896 H2887 0.930 . S
C2896 C2894 1.378 . S
C2896 C2897 1.367 . S
C2897 C2896 1.367 . S
C2897 C2899 1.433 . S
C2898 C2894 1.350 . S
C2898 C2895 1.463 . S
C2898 N2902 1.427 . S
C2899 H2889 0.929 . S
C2899 C2897 1.433 . S
C2899 N2902 1.384 . S
C2900 H2891 0.929 . S
C2900 C2892 1.378 . S
C2900 C2895 1.350 . S
C2901 H2888 0.929 . S
C2901 C2893 1.433 . S
C2901 N2903 1.384 . S
N2902 C2898 1.427 . S
N2902 C2899 1.384 . S
N2903 C2895 1.427 . S
N2903 C2901 1.384 . S
H2904 C2910 0.930 . S
H2905 C2914 0.930 . S
H2906 C2919 0.929 . S
H2907 C2917 0.929 . S
H2908 C2912 0.929 . S
H2909 C2918 0.929 . S
C2910 H2904 0.930 . S
C2910 C2911 1.367 . S
C2910 C2918 1.378 . S
C2911 C2910 1.367 . S
C2911 C2919 1.433 . S
C2912 H2908 0.929 . S
C2912 C2914 1.378 . S
C2912 C2916 1.350 . S
C2913 C2916 1.463 . S
C2913 C2918 1.350 . S
C2913 N2921 1.427 . S
C2914 H2905 0.930 . S
C2914 C2912 1.378 . S
C2914 C2915 1.367 . S
C2915 C2914 1.367 . S
C2915 C2917 1.433 . S
C2916 C2912 1.350 . S
C2916 C2913 1.463 . S
C2916 N2920 1.427 . S
C2917 H2907 0.929 . S
C2917 C2915 1.433 . S
C2917 N2920 1.384 . S
C2918 H2909 0.929 . S
C2918 C2910 1.378 . S
C2918 C2913 1.350 . S
C2919 H2906 0.929 . S
C2919 C2911 1.433 . S
C2919 N2921 1.384 . S
N2920 C2916 1.427 . S
N2920 C2917 1.384 . S
N2921 C2913 1.427 . S
N2921 C2919 1.384 . S
H2922 C2928 0.930 . S
H2923 C2932 0.930 . S
H2924 C2937 0.929 . S
H2925 C2935 0.929 . S
H2926 C2930 0.929 . S
H2927 C2936 0.929 . S
C2928 H2922 0.930 . S
C2928 C2929 1.367 . S
C2928 C2936 1.378 . S
C2929 C2928 1.367 . S
C2929 C2937 1.433 . S
C2930 H2926 0.929 . S
C2930 C2932 1.378 . S
C2930 C2934 1.350 . S
C2931 C2934 1.463 . S
C2931 C2936 1.350 . S
C2931 N2939 1.427 . S
C2932 H2923 0.930 . S
C2932 C2930 1.378 . S
C2932 C2933 1.367 . S
C2933 C2932 1.367 . S
C2933 C2935 1.433 . S
C2934 C2930 1.350 . S
C2934 C2931 1.463 . S
C2934 N2938 1.427 . S
C2935 H2925 0.929 . S
C2935 C2933 1.433 . S
C2935 N2938 1.384 . S
C2936 H2927 0.929 . S
C2936 C2928 1.378 . S
C2936 C2931 1.350 . S
C2937 H2924 0.929 . S
C2937 C2929 1.433 . S
C2937 N2939 1.384 . S
N2938 C2934 1.427 . S
N2938 C2935 1.384 . S
N2939 C2931 1.427 . S
N2939 C2937 1.384 . S
H2940 C2946 0.930 . S
H2941 C2950 0.930 . S
H2942 C2955 0.929 . S
H2943 C2953 0.929 . S
H2944 C2948 0.929 . S
H2945 C2954 0.929 . S
C2946 H2940 0.930 . S
C2946 C2947 1.367 . S
C2946 C2954 1.378 . S
C2947 C2946 1.367 . S
C2947 C2955 1.433 . S
C2948 H2944 0.929 . S
C2948 C2950 1.378 . S
C2948 C2952 1.350 . S
C2949 C2952 1.463 . S
C2949 C2954 1.350 . S
C2949 N2957 1.427 . S
C2950 H2941 0.930 . S
C2950 C2948 1.378 . S
C2950 C2951 1.367 . S
C2951 C2950 1.367 . S
C2951 C2953 1.433 . S
C2952 C2948 1.350 . S
C2952 C2949 1.463 . S
C2952 N2956 1.427 . S
C2953 H2943 0.929 . S
C2953 C2951 1.433 . S
C2953 N2956 1.384 . S
C2954 H2945 0.929 . S
C2954 C2946 1.378 . S
C2954 C2949 1.350 . S
C2955 H2942 0.929 . S
C2955 C2947 1.433 . S
C2955 N2957 1.384 . S
N2956 C2952 1.427 . S
N2956 C2953 1.384 . S
N2957 C2949 1.427 . S
N2957 C2955 1.384 . S
H2958 C2964 0.930 . S
H2959 C2968 0.930 . S
H2960 C2973 0.929 . S
H2961 C2971 0.929 . S
H2962 C2966 0.929 . S
H2963 C2972 0.929 . S
C2964 H2958 0.930 . S
C2964 C2965 1.367 . S
C2964 C2972 1.378 . S
C2965 C2964 1.367 . S
C2965 C2973 1.433 . S
C2966 H2962 0.929 . S
C2966 C2968 1.378 . S
C2966 C2970 1.350 . S
C2967 C2970 1.463 . S
C2967 C2972 1.350 . S
C2967 N2975 1.427 . S
C2968 H2959 0.930 . S
C2968 C2966 1.378 . S
C2968 C2969 1.367 . S
C2969 C2968 1.367 . S
C2969 C2971 1.433 . S
C2970 C2966 1.350 . S
C2970 C2967 1.463 . S
C2970 N2974 1.427 . S
C2971 H2961 0.929 . S
C2971 C2969 1.433 . S
C2971 N2974 1.384 . S
C2972 H2963 0.929 . S
C2972 C2964 1.378 . S
C2972 C2967 1.350 . S
C2973 H2960 0.929 . S
C2973 C2965 1.433 . S
C2973 N2975 1.384 . S
N2974 C2970 1.427 . S
N2974 C2971 1.384 . S
N2975 C2967 1.427 . S
N2975 C2973 1.384 . S
C2119 C1261 1.320 . S
C2123 C20 1.317 . S
C2137 C117 1.324 . S
C2141 C1349 1.326 . S
C2155 C1604 1.328 . S
C2159 C225 1.325 . S
C2173 C321 1.323 . S
C2177 C1164 1.318 . S
C2191 C1289 1.321 . S
C2195 C372 1.323 . S
C2209 C469 1.328 . S
C2213 C1377 1.329 . S
C2227 C577 1.320 . S
C2231 C1633 1.323 . S
C2245 C673 1.326 . S
C2249 C1193 1.330 . S
C2263 C849 1.321 . S
C2267 C733 1.323 . S
C2281 C900 1.320 . S
C2285 C821 1.316 . S
C2299 C929 1.322 . S
C2303 C1025 1.328 . S
C2317 C997 1.329 . S
C2321 C761 1.322 . S
C2335 C1085 1.325 . S
C2339 C293 1.318 . S
C2353 C401 1.319 . S
C2357 C1457 1.328 . S
C2371 C1516 1.324 . S
C2375 C145 1.322 . S
C2389 C137 1.332 . S
C2393 C1868 1.331 . S
C2407 C812 1.327 . S
C2411 C29 1.320 . S
C2425 C2081 1.327 . S
C2429 C284 1.330 . S
C2443 C988 1.326 . S
C2447 C233 1.331 . S
C2461 C1897 1.334 . S
C2465 C636 1.333 . S
C2479 C841 1.337 . S
C2483 C585 1.336 . S
C2497 C489 1.337 . S
C2501 C2053 1.335 . S
C2515 C381 1.333 . S
C2519 C1017 1.322 . S
C2533 C1340 1.329 . S
C2537 C1721 1.329 . S
C2551 C1437 1.330 . S
C2555 C1369 1.330 . S
C2569 C1173 1.326 . S
C2573 C1465 1.319 . S
C2587 C1692 1.330 . S
C2591 C1201 1.335 . S
C2605 C205 1.328 . S
C2609 C1817 1.329 . S
C2623 C909 1.326 . S
C2627 C665 1.320 . S
C2641 C57 1.327 . S
C2645 C1956 1.335 . S
C2659 C1701 1.320 . S
C2663 C196 1.325 . S
C2677 C49 1.323 . S
C2681 C1428 1.324 . S
C2695 C1729 1.329 . S
C2699 C548 1.323 . S
C2713 C1113 1.320 . S
C2717 C645 1.315 . S
C2731 C497 1.324 . S
C2735 C1545 1.328 . S
C2749 C1877 1.320 . S
C2753 C1780 1.325 . S
C2767 C2044 1.319 . S
C2771 C1809 1.313 . S
C2785 C1993 1.329 . S
C2789 C2073 1.325 . S
C2803 C1905 1.322 . S
C2807 C1965 1.326 . S
C2821 C724 1.332 . S
C2825 C313 1.330 . S
C2839 C108 1.327 . S
C2843 C937 1.332 . S
C2857 C460 1.336 . S
C2861 C753 1.338 . S
C2875 C1789 1.326 . S
C2879 C409 1.330 . S
C2893 C557 1.334 . S
C2897 C1985 1.331 . S
C2911 C1076 1.337 . S
C2915 C1281 1.330 . S
C2929 C1613 1.327 . S
C2933 C1105 1.331 . S
C2947 C1525 1.326 . S
C2951 C1641 1.326 . S
C2965 C1252 1.333 . S
C2969 C1553 1.329 . S
