# Generated by pormake.
# Topology uoq, (4)-cn, num edge types: 1
# Building blocks:
#     Node 0, Type 0, BuildingBlock: UXUYUI_clean_sbu_0, # of connection points: 4
#     Node 1, Type 0, BuildingBlock: UXUYUI_clean_sbu_0, # of connection points: 4
#     Node 2, Type 0, BuildingBlock: UXUYUI_clean_sbu_0, # of connection points: 4
#     Node 3, Type 0, BuildingBlock: UXUYUI_clean_sbu_0, # of connection points: 4
#     Node 4, Type 0, BuildingBlock: UXUYUI_clean_sbu_0, # of connection points: 4
#     Node 5, Type 0, BuildingBlock: UXUYUI_clean_sbu_0, # of connection points: 4
#     Node 6, Type 0, BuildingBlock: UXUYUI_clean_sbu_0, # of connection points: 4
#     Node 7, Type 0, BuildingBlock: UXUYUI_clean_sbu_0, # of connection points: 4
#     Node 8, Type 0, BuildingBlock: UXUYUI_clean_sbu_0, # of connection points: 4
#     Node 9, Type 0, BuildingBlock: UXUYUI_clean_sbu_0, # of connection points: 4
#     Node 10, Type 0, BuildingBlock: UXUYUI_clean_sbu_0, # of connection points: 4
#     Node 11, Type 0, BuildingBlock: UXUYUI_clean_sbu_0, # of connection points: 4
#     Edge 12, Type (0, 0), BuildingBlock: UVAHIK_clean_linker_0, # of connection points: 2
#     Edge 13, Type (0, 0), BuildingBlock: UVAHIK_clean_linker_0, # of connection points: 2
#     Edge 14, Type (0, 0), BuildingBlock: UVAHIK_clean_linker_0, # of connection points: 2
#     Edge 15, Type (0, 0), BuildingBlock: UVAHIK_clean_linker_0, # of connection points: 2
#     Edge 16, Type (0, 0), BuildingBlock: UVAHIK_clean_linker_0, # of connection points: 2
#     Edge 17, Type (0, 0), BuildingBlock: UVAHIK_clean_linker_0, # of connection points: 2
#     Edge 18, Type (0, 0), BuildingBlock: UVAHIK_clean_linker_0, # of connection points: 2
#     Edge 19, Type (0, 0), BuildingBlock: UVAHIK_clean_linker_0, # of connection points: 2
#     Edge 20, Type (0, 0), BuildingBlock: UVAHIK_clean_linker_0, # of connection points: 2
#     Edge 21, Type (0, 0), BuildingBlock: UVAHIK_clean_linker_0, # of connection points: 2
#     Edge 22, Type (0, 0), BuildingBlock: UVAHIK_clean_linker_0, # of connection points: 2
#     Edge 23, Type (0, 0), BuildingBlock: UVAHIK_clean_linker_0, # of connection points: 2
#     Edge 24, Type (0, 0), BuildingBlock: UVAHIK_clean_linker_0, # of connection points: 2
#     Edge 25, Type (0, 0), BuildingBlock: UVAHIK_clean_linker_0, # of connection points: 2
#     Edge 26, Type (0, 0), BuildingBlock: UVAHIK_clean_linker_0, # of connection points: 2
#     Edge 27, Type (0, 0), BuildingBlock: UVAHIK_clean_linker_0, # of connection points: 2
#     Edge 28, Type (0, 0), BuildingBlock: UVAHIK_clean_linker_0, # of connection points: 2
#     Edge 29, Type (0, 0), BuildingBlock: UVAHIK_clean_linker_0, # of connection points: 2
#     Edge 30, Type (0, 0), BuildingBlock: UVAHIK_clean_linker_0, # of connection points: 2
#     Edge 31, Type (0, 0), BuildingBlock: UVAHIK_clean_linker_0, # of connection points: 2
#     Edge 32, Type (0, 0), BuildingBlock: UVAHIK_clean_linker_0, # of connection points: 2
#     Edge 33, Type (0, 0), BuildingBlock: UVAHIK_clean_linker_0, # of connection points: 2
#     Edge 34, Type (0, 0), BuildingBlock: UVAHIK_clean_linker_0, # of connection points: 2
#     Edge 35, Type (0, 0), BuildingBlock: UVAHIK_clean_linker_0, # of connection points: 2
# Relax obj value: 0.147
# Max RMSD: 0.104
# Mean RMSD: 0.104
data_MOF--net-uoq--node1-UXUYUI_clean_sbu_0--edge1-UVAHIK_clean_linker_0
_symmetry_space_group_name_H-M    P1
_symmetry_Int_Tables_number       1
_symmetry_cell_setting            triclinic
loop_
_symmetry_equiv_pos_as_xyz
'x, y, z'
_cell_length_a     101.32759
_cell_length_b     101.3291
_cell_length_c     42.36598
_cell_angle_alpha  89.98084
_cell_angle_beta   90.012716
_cell_angle_gamma 119.99917
loop_
_atom_site_label
_atom_site_type_symbol
_atom_site_fract_x
_atom_site_fract_y
_atom_site_fract_z
_atom_type_partial_charge
Li0 Li 0.29081 0.44274 0.28254 0.0
Li1 Li 0.30407 0.43089 0.25587 0.0
Li2 Li 0.31479 0.45828 0.258 0.0
Li3 Li 0.29223 0.44293 0.22442 0.0
C4 C 0.32323 0.45124 0.31136 0.0
N5 N 0.35008 0.46672 0.34517 0.0
C6 C 0.3342 0.44676 0.30952 0.0
C7 C 0.32583 0.46347 0.33079 0.0
C8 C 0.34771 0.45475 0.32673 0.0
C9 C 0.3395 0.4712 0.34755 0.0
C10 C 0.27032 0.41096 0.25583 0.0
C11 C 0.25054 0.38766 0.23266 0.0
N12 N 0.24571 0.38182 0.26204 0.0
C13 C 0.26509 0.40474 0.28579 0.0
C14 C 0.26293 0.40238 0.22903 0.0
C15 C 0.25266 0.38999 0.28844 0.0
C16 C 0.26351 0.43755 0.31247 0.0
N17 N 0.27788 0.44013 0.31717 0.0
C18 C 0.27424 0.43821 0.37296 0.0
C19 C 0.28331 0.44036 0.3466 0.0
C20 C 0.25942 0.43577 0.36902 0.0
C21 C 0.25405 0.43542 0.33824 0.0
H22 H 0.25943 0.43717 0.28872 0.0
H23 H 0.29462 0.44203 0.34959 0.0
C24 C 0.32132 0.41627 0.24507 0.0
N25 N 0.30855 0.41478 0.25895 0.0
C26 C 0.32604 0.40574 0.25136 0.0
C27 C 0.30406 0.39201 0.28508 0.0
C28 C 0.29988 0.4029 0.27842 0.0
C29 C 0.31754 0.39356 0.27218 0.0
H30 H 0.32832 0.42609 0.23051 0.0
H31 H 0.29009 0.40221 0.28997 0.0
C32 C 0.28822 0.46638 0.26549 0.0
N33 N 0.27126 0.47819 0.29135 0.0
C34 C 0.27579 0.46537 0.24906 0.0
C35 C 0.29218 0.47364 0.29486 0.0
C36 C 0.26733 0.47136 0.26257 0.0
C37 C 0.28342 0.47946 0.30761 0.0
C38 C 0.31433 0.43886 0.19332 0.0
C39 C 0.32655 0.44679 0.17263 0.0
C40 C 0.30306 0.42396 0.18617 0.0
C41 C 0.32725 0.43966 0.14496 0.0
C42 C 0.30417 0.41723 0.15829 0.0
N43 N 0.31614 0.42515 0.13842 0.0
C44 C 0.34681 0.47679 0.25907 0.0
C45 C 0.33335 0.48997 0.26843 0.0
C46 C 0.36066 0.48992 0.26567 0.0
N47 N 0.33353 0.47697 0.26138 0.0
C48 C 0.34694 0.50339 0.27487 0.0
C49 C 0.36079 0.50338 0.27416 0.0
H50 H 0.34659 0.46629 0.25318 0.0
H51 H 0.32265 0.48982 0.2699 0.0
C52 C 0.26586 0.43491 0.18996 0.0
N53 N 0.28124 0.44153 0.18715 0.0
C54 C 0.25702 0.43412 0.16402 0.0
C55 C 0.27995 0.4465 0.13243 0.0
C56 C 0.2884 0.4473 0.15917 0.0
C57 C 0.26408 0.44 0.13486 0.0
H58 H 0.26051 0.43053 0.2126 0.0
H59 H 0.30066 0.45272 0.15768 0.0
O60 O 0.31007 0.44378 0.29409 0.0
O61 O 0.28229 0.42553 0.25271 0.0
O62 O 0.29653 0.46039 0.25282 0.0
O63 O 0.31346 0.44577 0.22035 0.0
H64 H 0.3324 0.43731 0.29478 0.0
H65 H 0.31747 0.46707 0.33267 0.0
H66 H 0.35633 0.45146 0.32533 0.0
H67 H 0.34172 0.48077 0.36241 0.0
H68 H 0.24474 0.3809 0.21211 0.0
H69 H 0.27068 0.41115 0.30683 0.0
H70 H 0.26666 0.40703 0.20562 0.0
H71 H 0.24856 0.38502 0.31149 0.0
H72 H 0.27873 0.43822 0.39616 0.0
H73 H 0.24274 0.43367 0.33412 0.0
H74 H 0.33667 0.4076 0.24135 0.0
H75 H 0.29705 0.38275 0.30098 0.0
H76 H 0.27272 0.46008 0.22608 0.0
H77 H 0.30178 0.47459 0.30788 0.0
H78 H 0.25763 0.47059 0.25015 0.0
H79 H 0.28626 0.48496 0.33046 0.0
H80 H 0.33537 0.45834 0.17787 0.0
H81 H 0.29364 0.41763 0.20206 0.0
H82 H 0.33663 0.44566 0.12869 0.0
H83 H 0.29553 0.40569 0.15248 0.0
H84 H 0.37112 0.4895 0.26451 0.0
H85 H 0.34654 0.51351 0.28151 0.0
H86 H 0.24479 0.42896 0.1667 0.0
H87 H 0.28578 0.45128 0.11034 0.0
Li88 Li 0.84749 0.28965 0.60842 0.0
Li89 Li 0.87088 0.30472 0.57911 0.0
Li90 Li 0.85198 0.31334 0.58478 0.0
Li91 Li 0.84665 0.29084 0.552 0.0
C92 C 0.86899 0.31817 0.64479 0.0
N93 N 0.87941 0.33415 0.70071 0.0
C94 C 0.88271 0.32069 0.658 0.0
C95 C 0.86053 0.32371 0.66016 0.0
C96 C 0.88779 0.32881 0.68625 0.0
C97 C 0.866 0.33178 0.68837 0.0
C98 C 0.86325 0.27461 0.59194 0.0
C99 C 0.86928 0.25442 0.59278 0.0
N100 N 0.87592 0.25927 0.62156 0.0
C101 C 0.87009 0.27938 0.62157 0.0
C102 C 0.86279 0.26201 0.57744 0.0
C103 C 0.87644 0.27148 0.63614 0.0
C104 C 0.82915 0.26134 0.63791 0.0
N105 N 0.83881 0.27637 0.64384 0.0
C106 C 0.8358 0.27193 0.6994 0.0
C107 C 0.84228 0.28175 0.67386 0.0
C108 C 0.82554 0.25644 0.69398 0.0
C109 C 0.8222 0.25113 0.66279 0.0
H110 H 0.82677 0.25733 0.61378 0.0
H111 H 0.85002 0.29365 0.67816 0.0
C112 C 0.90001 0.32837 0.58484 0.0
N113 N 0.89232 0.31311 0.57954 0.0
C114 C 0.91543 0.33578 0.59251 0.0
C115 C 0.91504 0.31185 0.58678 0.0
C116 C 0.89959 0.3049 0.57897 0.0
C117 C 0.92299 0.32739 0.59489 0.0
H118 H 0.8939 0.33459 0.58493 0.0
H119 H 0.8933 0.29283 0.57405 0.0
C120 C 0.8198 0.28437 0.59813 0.0
N121 N 0.79333 0.26589 0.63117 0.0
C122 C 0.80895 0.27029 0.5857 0.0
C123 C 0.81711 0.28913 0.62719 0.0
C124 C 0.79565 0.2611 0.6028 0.0
C125 C 0.80369 0.2796 0.64359 0.0
C126 C 0.8706 0.3142 0.51809 0.0
C127 C 0.87479 0.32677 0.49849 0.0
C128 C 0.87429 0.30312 0.50946 0.0
C129 C 0.88258 0.32803 0.47043 0.0
C130 C 0.88209 0.30479 0.48121 0.0
N131 N 0.88604 0.31711 0.46244 0.0
C132 C 0.8631 0.34451 0.59239 0.0
C133 C 0.83618 0.32938 0.59554 0.0
C134 C 0.86251 0.35753 0.60065 0.0
N135 N 0.85007 0.3308 0.59047 0.0
C136 C 0.83506 0.34209 0.60408 0.0
C137 C 0.84836 0.35635 0.60718 0.0
H138 H 0.87399 0.34519 0.58861 0.0
H139 H 0.82602 0.31831 0.59387 0.0
C140 C 0.83028 0.26424 0.51671 0.0
N141 N 0.83655 0.27962 0.51548 0.0
C142 C 0.82187 0.25524 0.49123 0.0
C143 C 0.82698 0.27815 0.46331 0.0
C144 C 0.83512 0.2867 0.48954 0.0
C145 C 0.82009 0.2622 0.46416 0.0
H146 H 0.83157 0.25896 0.53779 0.0
H147 H 0.8401 0.29895 0.48941 0.0
O148 O 0.86392 0.31036 0.61694 0.0
O149 O 0.85681 0.28204 0.5772 0.0
O150 O 0.83304 0.29337 0.58209 0.0
O151 O 0.86296 0.31285 0.54561 0.0
H152 H 0.88935 0.31636 0.64669 0.0
H153 H 0.84982 0.32174 0.65059 0.0
H154 H 0.89839 0.33084 0.69669 0.0
H155 H 0.85957 0.33614 0.70048 0.0
H156 H 0.86903 0.24466 0.5818 0.0
H157 H 0.87054 0.28907 0.63319 0.0
H158 H 0.85749 0.25816 0.55455 0.0
H159 H 0.8818 0.27506 0.65904 0.0
H160 H 0.83853 0.27646 0.72316 0.0
H161 H 0.81441 0.23921 0.65774 0.0
H162 H 0.92121 0.34786 0.59777 0.0
H163 H 0.92044 0.30496 0.58819 0.0
H164 H 0.81081 0.26646 0.5632 0.0
H165 H 0.8254 0.29997 0.6372 0.0
H166 H 0.7872 0.25014 0.59354 0.0
H167 H 0.80153 0.28308 0.66624 0.0
H168 H 0.87203 0.33546 0.5049 0.0
H169 H 0.87118 0.29332 0.52432 0.0
H170 H 0.88589 0.3377 0.455 0.0
H171 H 0.88501 0.2963 0.47422 0.0
H172 H 0.87304 0.36827 0.60313 0.0
H173 H 0.82393 0.34076 0.60861 0.0
H174 H 0.81681 0.24298 0.49264 0.0
H175 H 0.82574 0.2839 0.44295 0.0
Li176 Li 0.56677 0.87145 0.9201 0.0
Li177 Li 0.55488 0.84705 0.94652 0.0
Li178 Li 0.55462 0.8478 0.88913 0.0
Li179 Li 0.5383 0.85411 0.91997 0.0
C180 C 0.58564 0.86074 0.89977 0.0
N181 N 0.61161 0.87092 0.86351 0.0
C182 C 0.59626 0.85622 0.90695 0.0
C183 C 0.58823 0.87045 0.87416 0.0
C184 C 0.60932 0.8615 0.88834 0.0
C185 C 0.60142 0.87546 0.85611 0.0
C186 C 0.55234 0.86459 0.98785 0.0
C187 C 0.53933 0.85501 0.03744 0.0
N188 N 0.55276 0.86338 0.05297 0.0
C189 C 0.56599 0.8732 0.00429 0.0
C190 C 0.53887 0.85551 0.00453 0.0
C191 C 0.56597 0.87241 0.03722 0.0
C192 C 0.57942 0.90302 0.91439 0.0
N193 N 0.58242 0.89197 0.9237 0.0
C194 C 0.60648 0.91049 0.94497 0.0
C195 C 0.59569 0.89536 0.93831 0.0
C196 C 0.60351 0.92217 0.9365 0.0
C197 C 0.58991 0.9183 0.92045 0.0
H198 H 0.56863 0.89991 0.90335 0.0
H199 H 0.59764 0.88628 0.94584 0.0
C200 C 0.54571 0.82498 0.99558 0.0
N201 N 0.55764 0.83743 0.98229 0.0
C202 C 0.54777 0.81877 0.02324 0.0
C203 C 0.57449 0.83797 0.02236 0.0
C204 C 0.57188 0.84386 0.9948 0.0
C205 C 0.56228 0.82537 0.0371 0.0
H206 H 0.53457 0.81996 0.98495 0.0
H207 H 0.58115 0.85379 0.98368 0.0
C208 C 0.5469 0.86701 0.85535 0.0
N209 N 0.53667 0.86885 0.79598 0.0
C210 C 0.53355 0.85478 0.84333 0.0
C211 C 0.5551 0.88016 0.83716 0.0
C212 C 0.52854 0.85593 0.81327 0.0
C213 C 0.54973 0.88088 0.8072 0.0
C214 C 0.52282 0.8232 0.91539 0.0
C215 C 0.51711 0.81547 0.88684 0.0
C216 C 0.51306 0.81955 0.94132 0.0
C217 C 0.50176 0.80424 0.88475 0.0
C218 C 0.49778 0.80826 0.93827 0.0
N219 N 0.49249 0.8009 0.91029 0.0
C220 C 0.55347 0.82343 0.85759 0.0
C221 C 0.56054 0.84455 0.82369 0.0
C222 C 0.55398 0.81477 0.83259 0.0
N223 N 0.5564 0.8379 0.85263 0.0
C224 C 0.56133 0.83633 0.79799 0.0
C225 C 0.55781 0.82116 0.80226 0.0
H226 H 0.55052 0.81856 0.88101 0.0
H227 H 0.5632 0.8562 0.82047 0.0
C228 C 0.52008 0.86522 0.94352 0.0
N229 N 0.51961 0.85455 0.92336 0.0
C230 C 0.50687 0.86572 0.95038 0.0
C231 C 0.49294 0.84457 0.91481 0.0
C232 C 0.50648 0.84463 0.90823 0.0
C233 C 0.49302 0.85508 0.93647 0.0
H234 H 0.53067 0.87313 0.95493 0.0
H235 H 0.50633 0.83648 0.89169 0.0
O236 O 0.5728 0.85562 0.91785 0.0
O237 O 0.55221 0.86483 0.95558 0.0
O238 O 0.55218 0.86604 0.88445 0.0
O239 O 0.53788 0.83413 0.91799 0.0
H240 H 0.59441 0.84872 0.92673 0.0
H241 H 0.58018 0.87411 0.86825 0.0
H242 H 0.61764 0.85809 0.89363 0.0
H243 H 0.60356 0.88297 0.83622 0.0
H244 H 0.52901 0.84795 0.05064 0.0
H245 H 0.57652 0.88027 0.99176 0.0
H246 H 0.5282 0.84884 0.99219 0.0
H247 H 0.57648 0.87892 0.05024 0.0
H248 H 0.61687 0.913 0.95718 0.0
H249 H 0.58706 0.92692 0.91396 0.0
H250 H 0.53812 0.80888 0.03362 0.0
H251 H 0.58583 0.84342 0.03244 0.0
H252 H 0.52727 0.84445 0.85687 0.0
H253 H 0.56556 0.88968 0.84602 0.0
H254 H 0.51824 0.84652 0.80364 0.0
H255 H 0.55596 0.89098 0.79284 0.0
H256 H 0.52436 0.81819 0.86637 0.0
H257 H 0.51713 0.82556 0.9634 0.0
H258 H 0.49721 0.79822 0.86278 0.0
H259 H 0.4901 0.80541 0.95811 0.0
H260 H 0.55147 0.80321 0.83697 0.0
H261 H 0.56436 0.84166 0.77495 0.0
H262 H 0.50738 0.87399 0.96728 0.0
H263 H 0.48249 0.83631 0.90329 0.0
Li264 Li 0.70884 0.55677 0.27763 0.0
Li265 Li 0.69383 0.5672 0.25338 0.0
Li266 Li 0.68409 0.54004 0.25706 0.0
Li267 Li 0.70517 0.55537 0.21991 0.0
C268 C 0.67708 0.54775 0.31107 0.0
N269 N 0.65124 0.53245 0.34791 0.0
C270 C 0.6654 0.55124 0.30873 0.0
C271 C 0.67568 0.53658 0.33238 0.0
C272 C 0.65242 0.54337 0.32753 0.0
C273 C 0.6625 0.52894 0.35071 0.0
C274 C 0.72668 0.58839 0.24889 0.0
C275 C 0.74458 0.61223 0.22437 0.0
N276 N 0.74932 0.61858 0.25341 0.0
C277 C 0.73187 0.59511 0.27847 0.0
C278 C 0.73319 0.59697 0.22159 0.0
C279 C 0.74327 0.6104 0.28027 0.0
C280 C 0.73721 0.56245 0.30245 0.0
N281 N 0.72328 0.56048 0.30982 0.0
C282 C 0.72946 0.56374 0.36466 0.0
C283 C 0.71932 0.56126 0.34011 0.0
C284 C 0.74372 0.56529 0.35788 0.0
C285 C 0.74761 0.56468 0.32634 0.0
H286 H 0.74014 0.56209 0.27804 0.0
H287 H 0.70827 0.55992 0.34519 0.0
C288 C 0.67785 0.58358 0.24169 0.0
N289 N 0.68903 0.58304 0.25843 0.0
C290 C 0.67357 0.59435 0.24914 0.0
C291 C 0.69236 0.60379 0.29082 0.0
C292 C 0.69622 0.59282 0.28266 0.0
C293 C 0.68073 0.60451 0.27431 0.0
H294 H 0.67175 0.57527 0.22351 0.0
H295 H 0.70453 0.5917 0.29654 0.0
C296 C 0.71138 0.53301 0.26027 0.0
N297 N 0.72941 0.52184 0.28343 0.0
C298 C 0.72291 0.53335 0.24155 0.0
C299 C 0.70889 0.52677 0.29061 0.0
C300 C 0.73192 0.52769 0.25371 0.0
C301 C 0.71816 0.52125 0.30195 0.0
C302 C 0.68126 0.55775 0.19245 0.0
C303 C 0.66791 0.54937 0.17494 0.0
C304 C 0.69225 0.57226 0.18224 0.0
C305 C 0.66579 0.55568 0.14741 0.0
C306 C 0.68971 0.57817 0.15459 0.0
N307 N 0.67664 0.56982 0.13788 0.0
C308 C 0.65226 0.52041 0.26138 0.0
C309 C 0.66697 0.50867 0.27217 0.0
C310 C 0.63889 0.5071 0.26967 0.0
N311 N 0.66595 0.52104 0.26349 0.0
C312 C 0.6539 0.49511 0.28048 0.0
C313 C 0.63964 0.49429 0.27981 0.0
H314 H 0.6518 0.53042 0.25417 0.0
H315 H 0.67795 0.50942 0.27339 0.0
C316 C 0.73054 0.56347 0.18248 0.0
N317 N 0.71511 0.55657 0.18125 0.0
C318 C 0.73886 0.56443 0.15553 0.0
C319 C 0.71527 0.55156 0.1262 0.0
C320 C 0.70737 0.55062 0.15393 0.0
C321 C 0.73126 0.55843 0.12678 0.0
H322 H 0.73636 0.56795 0.20468 0.0
H323 H 0.69507 0.54507 0.15364 0.0
O324 O 0.68972 0.55507 0.2923 0.0
O325 O 0.71569 0.57334 0.24658 0.0
O326 O 0.70256 0.53868 0.24888 0.0
O327 O 0.68354 0.55162 0.21924 0.0
H328 H 0.66624 0.55979 0.2923 0.0
H329 H 0.6846 0.53374 0.33456 0.0
H330 H 0.64326 0.54589 0.32581 0.0
H331 H 0.66121 0.52019 0.36711 0.0
H332 H 0.74967 0.61901 0.20344 0.0
H333 H 0.72708 0.58864 0.29987 0.0
H334 H 0.72957 0.59191 0.19845 0.0
H335 H 0.74731 0.61577 0.30303 0.0
H336 H 0.72606 0.56408 0.38875 0.0
H337 H 0.75858 0.56597 0.32027 0.0
H338 H 0.66429 0.59425 0.23626 0.0
H339 H 0.69821 0.61139 0.31035 0.0
H340 H 0.72486 0.53789 0.21786 0.0
H341 H 0.70006 0.52643 0.30546 0.0
H342 H 0.74092 0.52795 0.23952 0.0
H343 H 0.71646 0.51656 0.3255 0.0
H344 H 0.6593 0.5381 0.18254 0.0
H345 H 0.70255 0.57891 0.19564 0.0
H346 H 0.65551 0.54932 0.1336 0.0
H347 H 0.69812 0.5894 0.14645 0.0
H348 H 0.62811 0.50688 0.2684 0.0
H349 H 0.65501 0.48555 0.28836 0.0
H350 H 0.7511 0.56951 0.15751 0.0
H351 H 0.70888 0.54697 0.1046 0.0
Li352 Li 0.14942 0.70792 0.61228 0.0
Li353 Li 0.12493 0.69524 0.58852 0.0
Li354 Li 0.14231 0.68358 0.58991 0.0
Li355 Li 0.1484 0.70655 0.55676 0.0
C356 C 0.13236 0.68839 0.65644 0.0
N357 N 0.13392 0.69021 0.72149 0.0
C358 C 0.12608 0.69595 0.67267 0.0
C359 C 0.13928 0.68161 0.67325 0.0
C360 C 0.12704 0.6968 0.70558 0.0
C361 C 0.13998 0.68268 0.70615 0.0
C362 C 0.13456 0.72397 0.56576 0.0
C363 C 0.12059 0.72385 0.51953 0.0
N364 N 0.12243 0.7376 0.52819 0.0
C365 C 0.13634 0.73811 0.57415 0.0
C366 C 0.12663 0.71679 0.53821 0.0
C367 C 0.13011 0.74481 0.55487 0.0
C368 C 0.16841 0.71696 0.66703 0.0
N369 N 0.15974 0.72034 0.64788 0.0
C370 C 0.16363 0.74092 0.68141 0.0
C371 C 0.15726 0.73203 0.65452 0.0
C372 C 0.17259 0.73767 0.70173 0.0
C373 C 0.17501 0.72554 0.69419 0.0
H374 H 0.16995 0.7074 0.6616 0.0
H375 H 0.15003 0.73423 0.6393 0.0
C376 C 0.09321 0.67574 0.5862 0.0
N377 N 0.10438 0.69018 0.59284 0.0
C378 C 0.0781 0.67099 0.59403 0.0
C379 C 0.08627 0.69622 0.61434 0.0
C380 C 0.10121 0.70047 0.6062 0.0
C381 C 0.07452 0.68119 0.60901 0.0
H382 H 0.09615 0.66773 0.57615 0.0
H383 H 0.11038 0.71178 0.6118 0.0
C384 C 0.17653 0.71249 0.59309 0.0
N385 N 0.2061 0.73257 0.61159 0.0
C386 C 0.18266 0.72816 0.5889 0.0
C387 C 0.18544 0.70702 0.6067 0.0
C388 C 0.19763 0.73813 0.59843 0.0
C389 C 0.20037 0.71736 0.61588 0.0
C390 C 0.12632 0.67717 0.52679 0.0
C391 C 0.1345 0.67022 0.51658 0.0
C392 C 0.11373 0.6752 0.50941 0.0
C393 C 0.13015 0.6617 0.48873 0.0
C394 C 0.10974 0.66659 0.48169 0.0
N395 N 0.11798 0.66009 0.47199 0.0
C396 C 0.13019 0.65326 0.60816 0.0
C397 C 0.15517 0.66432 0.58713 0.0
C398 C 0.13036 0.63995 0.61579 0.0
N399 N 0.14257 0.66516 0.59464 0.0
C400 C 0.15586 0.65123 0.59441 0.0
C401 C 0.14345 0.63893 0.60953 0.0
H402 H 0.12034 0.6543 0.61387 0.0
H403 H 0.16481 0.67396 0.5762 0.0
C404 C 0.16399 0.73234 0.51743 0.0
N405 N 0.15819 0.717 0.51854 0.0
C406 C 0.17222 0.74071 0.49119 0.0
C407 C 0.16839 0.71739 0.4674 0.0
C408 C 0.16029 0.70947 0.49425 0.0
C409 C 0.1746 0.73325 0.46581 0.0
H410 H 0.16255 0.7382 0.53725 0.0
H411 H 0.15608 0.69741 0.49596 0.0
O412 O 0.13186 0.68775 0.62421 0.0
O413 O 0.14059 0.71729 0.58459 0.0
O414 O 0.16186 0.70257 0.58408 0.0
O415 O 0.1302 0.6853 0.55435 0.0
H416 H 0.12073 0.7013 0.65996 0.0
H417 H 0.14425 0.67577 0.66101 0.0
H418 H 0.12235 0.70273 0.71846 0.0
H419 H 0.1454 0.67759 0.71948 0.0
H420 H 0.11445 0.71841 0.49812 0.0
H421 H 0.14248 0.74389 0.59531 0.0
H422 H 0.12527 0.70598 0.53113 0.0
H423 H 0.1314 0.75574 0.56111 0.0
H424 H 0.16127 0.75 0.68661 0.0
H425 H 0.18194 0.72272 0.70908 0.0
H426 H 0.06946 0.65923 0.58991 0.0
H427 H 0.08401 0.7045 0.62554 0.0
H428 H 0.17584 0.73259 0.57894 0.0
H429 H 0.18085 0.69495 0.61046 0.0
H430 H 0.20248 0.75029 0.59546 0.0
H431 H 0.20738 0.71329 0.62651 0.0
H432 H 0.14424 0.67158 0.52977 0.0
H433 H 0.10704 0.6802 0.5173 0.0
H434 H 0.13647 0.65638 0.48042 0.0
H435 H 0.10007 0.66503 0.46795 0.0
H436 H 0.12044 0.63066 0.62689 0.0
H437 H 0.16622 0.651 0.58933 0.0
H438 H 0.17675 0.75292 0.49084 0.0
H439 H 0.1702 0.71124 0.44856 0.0
Li440 Li 0.43993 0.14974 0.94845 0.0
Li441 Li 0.43057 0.12532 0.91979 0.0
Li442 Li 0.45753 0.14344 0.92522 0.0
Li443 Li 0.44178 0.14961 0.89034 0.0
C444 C 0.45028 0.12767 0.97817 0.0
N445 N 0.46684 0.11858 0.015 0.0
C446 C 0.44732 0.11265 0.97678 0.0
C447 C 0.46152 0.13801 0.99865 0.0
C448 C 0.45583 0.10828 0.99553 0.0
C449 C 0.46982 0.13322 0.01695 0.0
C450 C 0.4082 0.13553 0.9189 0.0
C451 C 0.38392 0.12792 0.89439 0.0
N452 N 0.37751 0.12609 0.92343 0.0
C453 C 0.40137 0.1337 0.94849 0.0
C454 C 0.39942 0.13273 0.89161 0.0
C455 C 0.38584 0.12887 0.95028 0.0
C456 C 0.43325 0.1707 0.97933 0.0
N457 N 0.4357 0.15879 0.98337 0.0
C458 C 0.43167 0.15869 0.03889 0.0
C459 C 0.43477 0.15261 0.01231 0.0
C460 C 0.42961 0.17135 0.03575 0.0
C461 C 0.43034 0.17731 0.00537 0.0
H462 H 0.43369 0.17514 0.95592 0.0
H463 H 0.43628 0.14284 0.01473 0.0
C464 C 0.41959 0.09412 0.90759 0.0
N465 N 0.41601 0.10411 0.92106 0.0
C466 C 0.41062 0.07851 0.91342 0.0
C467 C 0.39405 0.0837 0.94564 0.0
C468 C 0.40344 0.0992 0.93952 0.0
C469 C 0.39785 0.0732 0.93324 0.0
H470 H 0.42992 0.09831 0.89389 0.0
H471 H 0.40118 0.10732 0.95108 0.0
C472 C 0.46275 0.17726 0.93298 0.0
N473 N 0.47209 0.20584 0.95771 0.0
C474 C 0.46054 0.1878 0.91592 0.0
C475 C 0.4699 0.18133 0.96245 0.0
C476 C 0.4653 0.20218 0.92886 0.0
C477 C 0.47448 0.19581 0.97461 0.0
C478 C 0.44113 0.1254 0.85778 0.0
C479 C 0.45088 0.1236 0.83719 0.0
C480 C 0.42598 0.12002 0.84909 0.0
C481 C 0.4453 0.11644 0.80812 0.0
C482 C 0.42083 0.11292 0.81984 0.0
N483 N 0.43051 0.1113 0.80011 0.0
C484 C 0.47733 0.13159 0.9276 0.0
C485 C 0.48913 0.15796 0.93942 0.0
C486 C 0.49064 0.13144 0.93534 0.0
N487 N 0.47673 0.14464 0.93053 0.0
C488 C 0.50274 0.15836 0.94704 0.0
C489 C 0.50349 0.14491 0.94566 0.0
H490 H 0.46728 0.12119 0.9203 0.0
H491 H 0.48834 0.16817 0.94142 0.0
C492 C 0.43115 0.16504 0.85279 0.0
N493 N 0.44073 0.15931 0.85296 0.0
C494 C 0.43047 0.17302 0.82659 0.0
C495 C 0.44943 0.16888 0.801 0.0
C496 C 0.44978 0.16102 0.8278 0.0
C497 C 0.43978 0.17513 0.80032 0.0
H498 H 0.42425 0.16369 0.87334 0.0
H499 H 0.45745 0.15652 0.82879 0.0
O500 O 0.44232 0.13227 0.9594 0.0
O501 O 0.42348 0.14057 0.91663 0.0
O502 O 0.45805 0.16308 0.92079 0.0
O503 O 0.4465 0.13254 0.88614 0.0
H504 H 0.43863 0.10446 0.96123 0.0
H505 H 0.46393 0.14965 0.00017 0.0
H506 H 0.45372 0.09672 0.99452 0.0
H507 H 0.47865 0.14114 0.03267 0.0
H508 H 0.377 0.12568 0.87346 0.0
H509 H 0.40792 0.13575 0.96989 0.0
H510 H 0.40451 0.13433 0.86847 0.0
H511 H 0.38041 0.1273 0.97304 0.0
H512 H 0.43079 0.15343 0.06162 0.0
H513 H 0.42894 0.18711 0.00174 0.0
H514 H 0.41394 0.07075 0.90351 0.0
H515 H 0.38449 0.08008 0.96157 0.0
H516 H 0.4552 0.18494 0.89295 0.0
H517 H 0.47175 0.17336 0.97597 0.0
H518 H 0.4636 0.21042 0.91596 0.0
H519 H 0.4799 0.19905 0.9975 0.0
H520 H 0.46265 0.12773 0.8436 0.0
H521 H 0.41828 0.1212 0.86487 0.0
H522 H 0.45272 0.11499 0.79192 0.0
H523 H 0.40912 0.10869 0.81283 0.0
H524 H 0.49083 0.12087 0.93362 0.0
H525 H 0.51238 0.16896 0.95504 0.0
H526 H 0.42277 0.17751 0.82695 0.0
H527 H 0.45693 0.17042 0.78141 0.0
Li528 Li 0.5395 0.68342 0.41002 0.0
Li529 Li 0.5546 0.70443 0.44755 0.0
Li530 Li 0.55553 0.70854 0.39005 0.0
Li531 Li 0.56687 0.69401 0.41299 0.0
C532 C 0.53144 0.71011 0.40915 0.0
N533 N 0.51939 0.72775 0.38834 0.0
C534 C 0.53198 0.72156 0.42846 0.0
C535 C 0.52457 0.7075 0.37944 0.0
C536 C 0.52587 0.73038 0.41748 0.0
C537 C 0.51861 0.71658 0.36928 0.0
C538 C 0.55747 0.68067 0.47406 0.0
C539 C 0.57802 0.68849 0.51137 0.0
N540 N 0.56913 0.67591 0.52908 0.0
C541 C 0.54853 0.66781 0.49257 0.0
C542 C 0.57232 0.69109 0.48349 0.0
C543 C 0.55464 0.66561 0.52032 0.0
C544 C 0.52098 0.6516 0.40268 0.0
N545 N 0.52085 0.66495 0.40332 0.0
C546 C 0.49459 0.65221 0.38859 0.0
C547 C 0.50795 0.66544 0.39713 0.0
C548 C 0.49452 0.63833 0.38625 0.0
C549 C 0.50791 0.63811 0.39395 0.0
H550 H 0.53141 0.65156 0.40788 0.0
H551 H 0.5081 0.67616 0.39826 0.0
C552 C 0.56318 0.7295 0.48586 0.0
N553 N 0.55577 0.71404 0.48657 0.0
C554 C 0.56423 0.73773 0.51299 0.0
C555 C 0.55015 0.71395 0.54136 0.0
C556 C 0.54928 0.70616 0.51351 0.0
C557 C 0.55764 0.72998 0.54128 0.0
H558 H 0.568 0.73543 0.46392 0.0
H559 H 0.54334 0.69384 0.51333 0.0
C560 C 0.54746 0.67765 0.35449 0.0
N561 N 0.53294 0.65273 0.31492 0.0
C562 C 0.55175 0.66651 0.35431 0.0
C563 C 0.5359 0.67619 0.33427 0.0
C564 C 0.54426 0.65399 0.33417 0.0
C565 C 0.52865 0.66348 0.31455 0.0
C566 C 0.58735 0.72682 0.41928 0.0
C567 C 0.59412 0.73328 0.39033 0.0
C568 C 0.59585 0.73228 0.44706 0.0
C569 C 0.60936 0.74488 0.38957 0.0
C570 C 0.61105 0.74391 0.44533 0.0
N571 N 0.61744 0.7499 0.41686 0.0
C572 C 0.56036 0.73685 0.36645 0.0
C573 C 0.55982 0.71952 0.32812 0.0
C574 C 0.56281 0.74753 0.34302 0.0
N575 N 0.55869 0.72309 0.35852 0.0
C576 C 0.5625 0.72993 0.30404 0.0
C577 C 0.56395 0.7441 0.31139 0.0
H578 H 0.55978 0.7395 0.39095 0.0
H579 H 0.55876 0.70862 0.3226 0.0
C580 C 0.5831 0.67782 0.42124 0.0
N581 N 0.58298 0.68976 0.40686 0.0
C582 C 0.59384 0.67368 0.41252 0.0
C583 C 0.60422 0.69431 0.37473 0.0
C584 C 0.59325 0.69797 0.38403 0.0
C585 C 0.60442 0.68182 0.38854 0.0
H586 H 0.57442 0.67101 0.43832 0.0
H587 H 0.59248 0.70693 0.37195 0.0
O588 O 0.53751 0.70146 0.41938 0.0
O589 O 0.55153 0.68309 0.44714 0.0
O590 O 0.55447 0.68986 0.37447 0.0
O591 O 0.57235 0.71563 0.42057 0.0
H592 H 0.53704 0.7236 0.45168 0.0
H593 H 0.52402 0.69869 0.36421 0.0
H594 H 0.52627 0.73932 0.43213 0.0
H595 H 0.5134 0.71477 0.34623 0.0
H596 H 0.58951 0.69646 0.51891 0.0
H597 H 0.53699 0.65966 0.4856 0.0
H598 H 0.5794 0.70098 0.46925 0.0
H599 H 0.54785 0.65572 0.53492 0.0
H600 H 0.48447 0.65289 0.38361 0.0
H601 H 0.50847 0.62774 0.39223 0.0
H602 H 0.56981 0.75003 0.51154 0.0
H603 H 0.54503 0.7075 0.56267 0.0
H604 H 0.56065 0.66742 0.36977 0.0
H605 H 0.53247 0.68472 0.33397 0.0
H606 H 0.5474 0.64524 0.33394 0.0
H607 H 0.51961 0.66215 0.29897 0.0
H608 H 0.58774 0.72928 0.36858 0.0
H609 H 0.59076 0.72769 0.46979 0.0
H610 H 0.61475 0.74989 0.36729 0.0
H611 H 0.61776 0.7482 0.46664 0.0
H612 H 0.56402 0.75842 0.34955 0.0
H613 H 0.56324 0.72687 0.27987 0.0
H614 H 0.59334 0.66376 0.42331 0.0
H615 H 0.61218 0.70095 0.35626 0.0
Li616 Li 0.84809 0.55484 0.77778 0.0
Li617 Li 0.85608 0.53803 0.74735 0.0
Li618 Li 0.87188 0.56554 0.74967 0.0
Li619 Li 0.84904 0.55486 0.71983 0.0
C620 C 0.87878 0.5569 0.80197 0.0
N621 N 0.90657 0.56977 0.83254 0.0
C622 C 0.88795 0.55025 0.79944 0.0
C623 C 0.88365 0.56996 0.82039 0.0
C624 C 0.90198 0.55696 0.81499 0.0
C625 C 0.89776 0.57634 0.83556 0.0
C626 C 0.82352 0.52952 0.72925 0.0
C627 C 0.81146 0.5137 0.68376 0.0
N628 N 0.79884 0.51485 0.68914 0.0
C629 C 0.81042 0.5305 0.73439 0.0
C630 C 0.82405 0.52102 0.70378 0.0
C631 C 0.79806 0.52302 0.71383 0.0
C632 C 0.82565 0.55885 0.80689 0.0
N633 N 0.83723 0.55609 0.81278 0.0
C634 C 0.83281 0.55528 0.8683 0.0
C635 C 0.841 0.55438 0.84268 0.0
C636 C 0.82053 0.55773 0.86284 0.0
C637 C 0.81699 0.55957 0.83171 0.0
H638 H 0.82316 0.5605 0.78286 0.0
H639 H 0.85033 0.55226 0.8466 0.0
C640 C 0.86833 0.5196 0.73268 0.0
N641 N 0.85562 0.51922 0.74407 0.0
C642 C 0.86809 0.50609 0.72515 0.0
C643 C 0.84177 0.49202 0.74192 0.0
C644 C 0.84257 0.50583 0.74942 0.0
C645 C 0.85456 0.49206 0.72891 0.0
H646 H 0.8785 0.53045 0.72847 0.0
H647 H 0.83258 0.50592 0.75816 0.0
C648 C 0.8607 0.58693 0.75443 0.0
N649 N 0.86902 0.61694 0.76602 0.0
C650 C 0.86257 0.5967 0.72937 0.0
C651 C 0.8628 0.59236 0.78542 0.0
C652 C 0.86686 0.61186 0.73571 0.0
C653 C 0.86707 0.60759 0.79077 0.0
C654 C 0.87478 0.55902 0.68597 0.0
C655 C 0.87823 0.57385 0.67866 0.0
C656 C 0.87975 0.5514 0.66604 0.0
C657 C 0.88663 0.58085 0.65147 0.0
C658 C 0.88811 0.55877 0.63903 0.0
N659 N 0.89135 0.57322 0.63237 0.0
C660 C 0.9023 0.57537 0.73883 0.0
C661 C 0.89866 0.59591 0.75332 0.0
C662 C 0.91769 0.58533 0.73295 0.0
N663 N 0.89306 0.58078 0.74826 0.0
C664 C 0.91403 0.60633 0.74763 0.0
C665 C 0.92369 0.60107 0.73677 0.0
H666 H 0.89754 0.56329 0.7348 0.0
H667 H 0.89125 0.60004 0.76098 0.0
C668 C 0.83074 0.56353 0.68614 0.0
N669 N 0.83929 0.5567 0.68325 0.0
C670 C 0.82341 0.5652 0.65983 0.0
C671 C 0.8339 0.55282 0.62812 0.0
C672 C 0.84085 0.55121 0.65509 0.0
C673 C 0.82503 0.5599 0.6302 0.0
H674 H 0.82956 0.5676 0.70898 0.0
H675 H 0.84747 0.54556 0.65355 0.0
O676 O 0.86519 0.55072 0.78625 0.0
O677 O 0.83593 0.53714 0.74849 0.0
O678 O 0.85635 0.57202 0.74864 0.0
O679 O 0.86663 0.55194 0.71254 0.0
H680 H 0.88432 0.54009 0.78542 0.0
H681 H 0.87668 0.5752 0.82272 0.0
H682 H 0.90924 0.552 0.81306 0.0
H683 H 0.90172 0.58652 0.84969 0.0
H684 H 0.81175 0.50718 0.66384 0.0
H685 H 0.8098 0.53701 0.75397 0.0
H686 H 0.83419 0.52033 0.69917 0.0
H687 H 0.78786 0.52372 0.71747 0.0
H688 H 0.83581 0.55377 0.89203 0.0
H689 H 0.80771 0.56166 0.8267 0.0
H690 H 0.87831 0.50667 0.71577 0.0
H691 H 0.83105 0.48152 0.7449 0.0
H692 H 0.86068 0.59263 0.70527 0.0
H693 H 0.86118 0.58495 0.80513 0.0
H694 H 0.86843 0.61956 0.71653 0.0
H695 H 0.86881 0.61196 0.81462 0.0
H696 H 0.87454 0.57991 0.69392 0.0
H697 H 0.87715 0.53989 0.67136 0.0
H698 H 0.88941 0.59234 0.64557 0.0
H699 H 0.89202 0.55301 0.62337 0.0
H700 H 0.92465 0.58078 0.72423 0.0
H701 H 0.91826 0.61836 0.75125 0.0
H702 H 0.81645 0.57045 0.66278 0.0
H703 H 0.83565 0.5487 0.60582 0.0
Li704 Li 0.31341 0.8529 0.07606 0.0
Li705 Li 0.29146 0.84742 0.11076 0.0
Li706 Li 0.28924 0.84805 0.05462 0.0
Li707 Li 0.30464 0.87156 0.08303 0.0
C708 C 0.28395 0.8202 0.06601 0.0
N709 N 0.26405 0.79289 0.03719 0.0
C710 C 0.27059 0.80965 0.08141 0.0
C711 C 0.28728 0.81678 0.03612 0.0
C712 C 0.26066 0.79591 0.06642 0.0
C713 C 0.27704 0.80295 0.02189 0.0
C714 C 0.31529 0.8716 0.1432 0.0
C715 C 0.30637 0.8828 0.18188 0.0
N716 N 0.31927 0.88723 0.19904 0.0
C717 C 0.32846 0.87628 0.16117 0.0
C718 C 0.30415 0.87489 0.15357 0.0
C719 C 0.33026 0.88417 0.18935 0.0
C720 C 0.34469 0.86459 0.07216 0.0
N721 N 0.33109 0.85151 0.06955 0.0
C722 C 0.34329 0.83798 0.0514 0.0
C723 C 0.33014 0.83826 0.06008 0.0
C724 C 0.35754 0.85145 0.05286 0.0
C725 C 0.35814 0.8648 0.06413 0.0
H726 H 0.34503 0.87495 0.07974 0.0
H727 H 0.31913 0.82805 0.05814 0.0
C728 C 0.26581 0.83241 0.14912 0.0
N729 N 0.281 0.8375 0.14802 0.0
C730 C 0.25725 0.82422 0.17522 0.0
C731 C 0.28023 0.827 0.1989 0.0
C732 C 0.28834 0.83506 0.17218 0.0
C733 C 0.26444 0.82132 0.20044 0.0
H734 H 0.2603 0.83448 0.12939 0.0
H735 H 0.30043 0.83917 0.17047 0.0
C736 C 0.31638 0.86857 0.01512 0.0
N737 N 0.32986 0.87661 0.95622 0.0
C738 C 0.31863 0.8819 0.00045 0.0
C739 C 0.32096 0.85931 -0.00025 0.0
C740 C 0.32547 0.88577 0.97069 0.0
C741 C 0.32777 0.86358 0.97002 0.0
C742 C 0.27449 0.86385 0.07286 0.0
C743 C 0.279 0.87086 0.04332 0.0
C744 C 0.26207 0.86339 0.08823 0.0
C745 C 0.27101 0.87733 0.02968 0.0
C746 C 0.25437 0.86999 0.07381 0.0
N747 N 0.25896 0.87677 0.04508 0.0
C748 C 0.26033 0.8289 0.02868 0.0
C749 C 0.27939 0.84205 0.99002 0.0
C750 C 0.24944 0.8212 0.00526 0.0
N751 N 0.27504 0.83888 0.02072 0.0
C752 C 0.26887 0.83479 0.96589 0.0
C753 C 0.25372 0.82409 0.9734 0.0
H754 H 0.25712 0.82678 0.05329 0.0
H755 H 0.29102 0.85009 0.98406 0.0
C756 C 0.32721 0.90092 0.07268 0.0
N757 N 0.3126 0.89291 0.083 0.0
C758 C 0.33394 0.91647 0.0668 0.0
C759 C 0.31075 0.9155 0.08432 0.0
C760 C 0.30444 0.89987 0.08978 0.0
C761 C 0.32558 0.92393 0.07192 0.0
H762 H 0.33339 0.89502 0.06755 0.0
H763 H 0.2929 0.89327 0.09846 0.0
O764 O 0.29366 0.83383 0.08009 0.0
O765 O 0.31342 0.86389 0.11556 0.0
O766 O 0.30978 0.86467 0.04438 0.0
O767 O 0.2821 0.85742 0.08683 0.0
H768 H 0.26788 0.81205 0.10461 0.0
H769 H 0.29752 0.82483 0.0238 0.0
H770 H 0.25025 0.78767 0.078 0.0
H771 H 0.27939 0.80023 0.99862 0.0
H772 H 0.29784 0.88541 0.19021 0.0
H773 H 0.33719 0.87384 0.15339 0.0
H774 H 0.29389 0.87138 0.14 0.0
H775 H 0.34039 0.88786 0.20352 0.0
H776 H 0.3422 0.82746 0.04252 0.0
H777 H 0.36886 0.87537 0.06632 0.0
H778 H 0.24513 0.82019 0.17564 0.0
H779 H 0.28616 0.82488 0.21773 0.0
H780 H 0.31507 0.88917 0.0118 0.0
H781 H 0.31917 0.84888 0.01046 0.0
H782 H 0.32727 0.89605 0.95908 0.0
H783 H 0.33134 0.8565 0.95787 0.0
H784 H 0.28855 0.87133 0.03104 0.0
H785 H 0.25845 0.85802 0.11113 0.0
H786 H 0.27439 0.8828 0.00685 0.0
H787 H 0.24475 0.86973 0.08546 0.0
H788 H 0.23782 0.81311 0.01195 0.0
H789 H 0.27263 0.83723 0.94158 0.0
H790 H 0.3453 0.92239 0.05685 0.0
H791 H 0.304 0.92084 0.08911 0.0
Li792 Li 0.46024 0.31506 0.41105 0.0
Li793 Li 0.44255 0.2919 0.44469 0.0
Li794 Li 0.44148 0.29086 0.38779 0.0
Li795 Li 0.43288 0.3057 0.41482 0.0
C796 C 0.46383 0.28598 0.40016 0.0
N797 N 0.47208 0.26739 0.36841 0.0
C798 C 0.45906 0.27128 0.41124 0.0
C799 C 0.47293 0.2913 0.37316 0.0
C800 C 0.46333 0.26204 0.39481 0.0
C801 C 0.47694 0.28171 0.35737 0.0
C802 C 0.44164 0.32 0.46796 0.0
C803 C 0.42212 0.31715 0.50442 0.0
N804 N 0.42747 0.3324 0.50276 0.0
C805 C 0.44698 0.33565 0.46666 0.0
C806 C 0.42915 0.31066 0.48701 0.0
C807 C 0.43964 0.3417 0.48442 0.0
C808 C 0.47944 0.34593 0.39991 0.0
N809 N 0.47947 0.33286 0.4068 0.0
C810 C 0.50655 0.34547 0.40172 0.0
C811 C 0.49262 0.33237 0.40814 0.0
C812 C 0.50687 0.35912 0.39386 0.0
C813 C 0.49307 0.35926 0.39336 0.0
H814 H 0.46874 0.34585 0.39846 0.0
H815 H 0.49224 0.32175 0.41349 0.0
C816 C 0.43148 0.26569 0.48213 0.0
N817 N 0.44114 0.28099 0.48181 0.0
C818 C 0.43075 0.2571 0.50854 0.0
C819 C 0.44973 0.28027 0.53392 0.0
C820 C 0.45011 0.2884 0.50698 0.0
C821 C 0.44004 0.26437 0.53483 0.0
H822 H 0.42459 0.26012 0.46158 0.0
H823 H 0.45766 0.3006 0.50594 0.0
C824 C 0.44892 0.31771 0.34785 0.0
N825 N 0.45532 0.33044 0.28813 0.0
C826 C 0.43765 0.31856 0.33039 0.0
C827 C 0.46347 0.32339 0.33489 0.0
C828 C 0.4411 0.32502 0.30025 0.0
C829 C 0.46647 0.32977 0.30468 0.0
C830 C 0.41031 0.27563 0.40345 0.0
C831 C 0.40832 0.27997 0.37332 0.0
C832 C 0.39804 0.26343 0.41866 0.0
C833 C 0.39404 0.27205 0.3589 0.0
C834 C 0.38393 0.25579 0.40346 0.0
N835 N 0.38223 0.26022 0.37414 0.0
C836 C 0.43012 0.26186 0.36064 0.0
C837 C 0.44085 0.28187 0.32311 0.0
C838 C 0.42638 0.25102 0.33685 0.0
N839 N 0.43726 0.27697 0.35343 0.0
C840 C 0.4371 0.27144 0.29859 0.0
C841 C 0.42977 0.25581 0.30536 0.0
H842 H 0.42732 0.25826 0.38494 0.0
H843 H 0.4466 0.29382 0.31769 0.0
C844 C 0.42522 0.32724 0.39875 0.0
N845 N 0.41916 0.3133 0.41247 0.0
C846 C 0.41587 0.33299 0.38982 0.0
C847 C 0.39432 0.31052 0.41184 0.0
C848 C 0.40413 0.30512 0.42017 0.0
C849 C 0.40014 0.32437 0.39541 0.0
H850 H 0.43725 0.33354 0.39327 0.0
H851 H 0.39964 0.29412 0.43142 0.0
O852 O 0.45939 0.29502 0.41537 0.0
O853 O 0.44834 0.31376 0.45005 0.0
O854 O 0.44579 0.3116 0.37762 0.0
O855 O 0.42416 0.28324 0.41821 0.0
H856 H 0.45201 0.26699 0.4321 0.0
H857 H 0.47674 0.30265 0.36431 0.0
H858 H 0.45963 0.2506 0.40298 0.0
H859 H 0.48388 0.28563 0.33629 0.0
H860 H 0.41239 0.31005 0.51916 0.0
H861 H 0.45661 0.34301 0.45193 0.0
H862 H 0.42482 0.2985 0.48805 0.0
H863 H 0.4436 0.35378 0.48357 0.0
H864 H 0.51693 0.34489 0.40263 0.0
H865 H 0.49273 0.36942 0.38687 0.0
H866 H 0.42328 0.24486 0.50802 0.0
H867 H 0.45693 0.28636 0.55379 0.0
H868 H 0.42633 0.31427 0.33991 0.0
H869 H 0.47232 0.32275 0.34779 0.0
H870 H 0.43248 0.32573 0.28651 0.0
H871 H 0.47766 0.33416 0.29438 0.0
H872 H 0.41768 0.28931 0.36117 0.0
H873 H 0.3994 0.25994 0.44202 0.0
H874 H 0.39234 0.2753 0.33558 0.0
H875 H 0.37432 0.24634 0.41497 0.0
H876 H 0.42071 0.23903 0.34291 0.0
H877 H 0.44009 0.27556 0.27458 0.0
H878 H 0.42079 0.34384 0.37767 0.0
H879 H 0.38223 0.30359 0.41661 0.0
Li880 Li 0.1442 0.46034 0.74637 0.0
Li881 Li 0.1493 0.44209 0.78004 0.0
Li882 Li 0.1485 0.44051 0.72397 0.0
Li883 Li 0.12517 0.43304 0.75009 0.0
C884 C 0.17562 0.4655 0.73128 0.0
N885 N 0.20096 0.47884 0.6926 0.0
C886 C 0.18936 0.46682 0.7414 0.0
C887 C 0.17483 0.47116 0.70168 0.0
C888 C 0.20203 0.47356 0.72145 0.0
C889 C 0.18774 0.47781 0.68241 0.0
C890 C 0.1208 0.44321 0.80375 0.0
C891 C 0.10163 0.42341 0.8364 0.0
N892 N 0.09453 0.43172 0.83943 0.0
C893 C 0.11336 0.45159 0.80728 0.0
C894 C 0.11495 0.42903 0.8185 0.0
C895 C 0.10007 0.44557 0.8254 0.0
C896 C 0.13294 0.47987 0.73606 0.0
N897 N 0.14614 0.47973 0.74058 0.0
C898 C 0.1608 0.50631 0.72884 0.0
C899 C 0.15993 0.49261 0.73775 0.0
C900 C 0.14734 0.5067 0.72289 0.0
C901 C 0.13327 0.49329 0.72733 0.0
H902 H 0.12215 0.46938 0.73811 0.0
H903 H 0.17025 0.49214 0.74132 0.0
C904 C 0.17148 0.43897 0.81244 0.0
N905 N 0.1591 0.4406 0.81677 0.0
C906 C 0.17961 0.43826 0.83833 0.0
C907 C 0.16184 0.44056 0.87277 0.0
C908 C 0.15417 0.44142 0.84613 0.0
C909 C 0.17483 0.43905 0.86909 0.0
H910 H 0.17512 0.43834 0.78878 0.0
H911 H 0.14433 0.44281 0.84891 0.0
C912 C 0.12653 0.44604 0.68503 0.0
N913 N 0.11314 0.44642 0.62843 0.0
C914 C 0.11448 0.43258 0.67278 0.0
C915 C 0.1318 0.45969 0.66838 0.0
C916 C 0.10785 0.43302 0.64418 0.0
C917 C 0.12488 0.45964 0.63983 0.0
C918 C 0.13897 0.41205 0.73994 0.0
C919 C 0.13058 0.40542 0.71251 0.0
C920 C 0.1487 0.40718 0.75175 0.0
C921 C 0.13229 0.3942 0.69698 0.0
C922 C 0.15007 0.3959 0.73557 0.0
N923 N 0.14193 0.38973 0.70873 0.0
C924 C 0.16993 0.4341 0.69598 0.0
C925 C 0.15284 0.4352 0.65931 0.0
C926 C 0.17751 0.43128 0.67176 0.0
N927 N 0.15793 0.43614 0.68938 0.0
C928 C 0.16002 0.43232 0.63439 0.0
C929 C 0.1726 0.43044 0.64045 0.0
H930 H 0.17367 0.43478 0.72014 0.0
H931 H 0.14331 0.43679 0.65446 0.0
C932 C 0.09582 0.42759 0.74212 0.0
N933 N 0.10377 0.42032 0.74773 0.0
C934 C 0.08053 0.41932 0.73357 0.0
C935 C 0.08168 0.39612 0.73812 0.0
C936 C 0.09699 0.40487 0.74684 0.0
C937 C 0.07341 0.40342 0.73032 0.0
H938 H 0.10161 0.4399 0.74259 0.0
H939 H 0.10366 0.39943 0.75118 0.0
O940 O 0.16295 0.4586 0.7501 0.0
O941 O 0.13363 0.44874 0.78557 0.0
O942 O 0.13311 0.44594 0.71321 0.0
O943 O 0.13768 0.42327 0.75512 0.0
H944 H 0.19025 0.46269 0.76437 0.0
H945 H 0.16429 0.47022 0.6935 0.0
H946 H 0.21271 0.47459 0.7289 0.0
H947 H 0.18724 0.4821 0.65933 0.0
H948 H 0.09692 0.41241 0.8478 0.0
H949 H 0.11777 0.46261 0.7961 0.0
H950 H 0.12054 0.42238 0.81581 0.0
H951 H 0.09416 0.45191 0.82827 0.0
H952 H 0.1719 0.51631 0.72545 0.0
H953 H 0.1226 0.4931 0.72356 0.0
H954 H 0.18968 0.43738 0.83417 0.0
H955 H 0.15757 0.441 0.89593 0.0
H956 H 0.11027 0.42189 0.68509 0.0
H957 H 0.14115 0.47022 0.67731 0.0
H958 H 0.09849 0.42269 0.63449 0.0
H959 H 0.12884 0.47013 0.62674 0.0
H960 H 0.12302 0.40906 0.70305 0.0
H961 H 0.15515 0.41206 0.77312 0.0
H962 H 0.12598 0.38908 0.67556 0.0
H963 H 0.15762 0.39208 0.74435 0.0
H964 H 0.18708 0.42976 0.67745 0.0
H965 H 0.156 0.43194 0.61055 0.0
H966 H 0.07451 0.42538 0.72837 0.0
H967 H 0.07665 0.3839 0.73577 0.0
Li968 Li 0.70419 0.14823 0.10883 0.0
Li969 Li 0.68299 0.14351 0.07429 0.0
Li970 Li 0.6936 0.1264 0.07496 0.0
Li971 Li 0.7078 0.15181 0.05165 0.0
C972 C 0.67939 0.12909 0.14043 0.0
N973 N 0.67298 0.12738 0.20414 0.0
C974 C 0.67021 0.13467 0.15202 0.0
C975 C 0.68519 0.12251 0.16114 0.0
C976 C 0.66712 0.13372 0.18434 0.0
C977 C 0.68186 0.1218 0.19331 0.0
C978 C 0.71117 0.17774 0.07309 0.0
C979 C 0.71838 0.19824 0.03586 0.0
N980 N 0.73065 0.20739 0.05413 0.0
C981 C 0.72381 0.18735 0.09155 0.0
C982 C 0.70838 0.18323 0.04508 0.0
C983 C 0.73353 0.2023 0.08155 0.0
C984 C 0.72717 0.15714 0.15467 0.0
N985 N 0.71379 0.15662 0.14807 0.0
C986 C 0.7158 0.17065 0.19489 0.0
C987 C 0.70802 0.16318 0.16745 0.0
C988 C 0.72982 0.17166 0.20191 0.0
C989 C 0.73544 0.16467 0.18159 0.0
H990 H 0.73167 0.15211 0.13852 0.0
H991 H 0.69761 0.16302 0.16108 0.0
C992 C 0.65121 0.13114 0.06876 0.0
N993 N 0.66478 0.14437 0.06939 0.0
C994 C 0.63784 0.13125 0.06134 0.0
C995 C 0.65257 0.15871 0.05729 0.0
C996 C 0.66566 0.15804 0.06449 0.0
C997 C 0.63843 0.14517 0.05497 0.0
H998 H 0.65086 0.12044 0.07295 0.0
H999 H 0.67657 0.1684 0.06557 0.0
C1000 C 0.72233 0.13338 0.0778 0.0
N1001 N 0.73535 0.11524 0.07097 0.0
C1002 C 0.73001 0.13396 0.04998 0.0
C1003 C 0.72137 0.12368 0.10225 0.0
C1004 C 0.7365 0.12468 0.04696 0.0
C1005 C 0.72799 0.11456 0.0983 0.0
C1006 C 0.67608 0.12991 0.01858 0.0
C1007 C 0.66471 0.11456 0.01822 0.0
C1008 C 0.67453 0.14038 -0.00029 0.0
C1009 C 0.65191 0.10996 -0.00092 0.0
C1010 C 0.66154 0.13533 0.98098 0.0
N1011 N 0.65059 0.12035 0.98105 0.0
C1012 C 0.68028 0.09442 0.08741 0.0
C1013 C 0.69365 0.10371 0.03917 0.0
C1014 C 0.67566 0.07943 0.07853 0.0
N1015 N 0.68894 0.10611 0.06749 0.0
C1016 C 0.68942 0.089 0.02949 0.0
C1017 C 0.67998 0.07657 0.04888 0.0
H1018 H 0.67651 0.09668 0.1096 0.0
H1019 H 0.70032 0.11325 0.02364 0.0
C1020 C 0.73577 0.17434 0.02435 0.0
N1021 N 0.72149 0.16263 0.01836 0.0
C1022 C 0.74589 0.18169 -0.00049 0.0
C1023 C 0.72661 0.16439 0.96308 0.0
C1024 C 0.71682 0.15752 0.98852 0.0
C1025 C 0.74134 0.17663 0.96845 0.0
H1026 H 0.73936 0.17783 0.04841 0.0
H1027 H 0.70556 0.14794 0.98449 0.0
O1028 O 0.68267 0.13006 0.10894 0.0
O1029 O 0.70159 0.16302 0.08233 0.0
O1030 O 0.7157 0.14221 0.08104 0.0
O1031 O 0.68855 0.13472 0.03764 0.0
H1032 H 0.66563 0.1398 0.13627 0.0
H1033 H 0.69227 0.11809 0.15249 0.0
H1034 H 0.66009 0.13806 0.19369 0.0
H1035 H 0.68635 0.11682 0.20966 0.0
H1036 H 0.71642 0.20261 0.01413 0.0
H1037 H 0.72618 0.1833 0.11325 0.0
H1038 H 0.6987 0.17593 0.03041 0.0
H1039 H 0.74338 0.20985 0.09554 0.0
H1040 H 0.71123 0.17611 0.20976 0.0
H1041 H 0.7462 0.16519 0.18629 0.0
H1042 H 0.62727 0.12051 0.05956 0.0
H1043 H 0.65355 0.16972 0.0533 0.0
H1044 H 0.73086 0.1414 0.03081 0.0
H1045 H 0.71547 0.12311 0.12393 0.0
H1046 H 0.74241 0.12495 0.02551 0.0
H1047 H 0.72726 0.10693 0.11695 0.0
H1048 H 0.66565 0.10632 0.03282 0.0
H1049 H 0.6832 0.1523 -0.0002 0.0
H1050 H 0.64299 0.09813 0.99867 0.0
H1051 H 0.66014 0.14332 0.96644 0.0
H1052 H 0.66823 0.07017 0.09405 0.0
H1053 H 0.69321 0.08737 0.00668 0.0
H1054 H 0.75725 0.19099 0.00455 0.0
H1055 H 0.72267 0.16021 0.93943 0.0
C1056 C 0.33128 0.3791 0.26144 0.0
C1057 C 0.32339 0.38341 0.28252 0.0
C1058 C 0.33806 0.37083 0.27209 0.0
C1059 C 0.33851 0.34682 0.33707 0.0
H1060 H 0.38098 0.36376 0.31416 0.0
C1061 C 0.37862 0.32984 0.40013 0.0
C1062 C 0.38989 0.32933 0.38179 0.0
C1063 C 0.36946 0.33516 0.38704 0.0
C1064 C 0.36906 0.35868 0.32039 0.0
H1065 H 0.31623 0.38207 0.33132 0.0
H1066 H 0.32777 0.36741 0.34959 0.0
H1067 H 0.36642 0.37466 0.29199 0.0
H1068 H 0.39989 0.33311 0.33513 0.0
H1069 H 0.38375 0.34199 0.31209 0.0
H1070 H 0.34113 0.33079 0.36546 0.0
C1071 C 0.32861 0.37036 0.3248 0.0
C1072 C 0.36073 0.36496 0.30768 0.0
C1073 C 0.32196 0.37874 0.31424 0.0
C1074 C 0.3915 0.33371 0.34996 0.0
C1075 C 0.38227 0.33884 0.33681 0.0
C1076 C 0.34681 0.34042 0.34961 0.0
C1077 C 0.33698 0.36658 0.30398 0.0
C1078 C 0.3454 0.35917 0.31603 0.0
C1079 C 0.3713 0.33988 0.35527 0.0
C1080 C 0.36223 0.34634 0.34155 0.0
H1081 H 0.33239 0.38227 0.23676 0.0
H1082 H 0.3443 0.36789 0.25546 0.0
H1083 H 0.32667 0.34208 0.34375 0.0
H1084 H 0.37718 0.32652 0.42475 0.0
H1085 H 0.36123 0.33595 0.40203 0.0
C1086 C 0.94959 0.33129 0.59624 0.0
C1087 C 0.93861 0.33457 0.60828 0.0
C1088 C 0.9642 0.33806 0.60949 0.0
C1089 C 0.99097 0.37154 0.65562 0.0
H1090 H 0.01136 0.34856 0.67311 0.0
C1091 C 0.05396 0.40096 0.69084 0.0
C1092 C 0.05791 0.39478 0.71642 0.0
C1093 C 0.03948 0.39305 0.67747 0.0
C1094 C 0.00574 0.35508 0.6685 0.0
H1095 H 0.93418 0.34699 0.64457 0.0
H1096 H 0.95959 0.35888 0.6672 0.0
H1097 H 0.98576 0.33567 0.64996 0.0
H1098 H 0.04981 0.37527 0.7476 0.0
H1099 H 0.02436 0.36136 0.72401 0.0
H1100 H 0.01077 0.39089 0.67431 0.0
C1101 C 0.95703 0.35133 0.64719 0.0
C1102 C 0.99119 0.34775 0.65497 0.0
C1103 C 0.94248 0.34455 0.63409 0.0
C1104 C 0.04711 0.38031 0.72788 0.0
C1105 C 0.03257 0.37235 0.71436 0.0
C1106 C 0.0055 0.37886 0.66891 0.0
C1107 C 0.96808 0.34824 0.63494 0.0
C1108 C 0.98365 0.35592 0.64852 0.0
C1109 C 0.02859 0.37873 0.68921 0.0
C1110 C 0.01305 0.37073 0.67549 0.0
H1111 H 0.94697 0.32368 0.57632 0.0
H1112 H 0.97254 0.33557 0.59943 0.0
H1113 H 0.9855 0.37817 0.65065 0.0
H1114 H 0.06214 0.41187 0.68082 0.0
H1115 H 0.03684 0.39812 0.6577 0.0
C1116 C 0.62009 0.94144 0.97694 0.0
C1117 C 0.61395 0.93816 0.94628 0.0
C1118 C 0.62866 0.95651 0.9873 0.0
C1119 C 0.63347 0.99428 0.97133 0.0
H1120 H 0.66902 0.0089 0.02521 0.0
C1121 C 0.66901 0.05728 0.0055 0.0
C1122 C 0.67379 0.06075 0.03707 0.0
C1123 C 0.66268 0.04241 0.99428 0.0
C1124 C 0.65903 0.00493 0.01043 0.0
H1125 H 0.61268 0.94813 0.90191 0.0
H1126 H 0.62771 0.97444 0.91992 0.0
H1127 H 0.65664 0.9828 0.00504 0.0
H1128 H 0.67587 0.05131 0.08148 0.0
H1129 H 0.66448 0.02514 0.06194 0.0
H1130 H 0.6357 0.01625 0.97685 0.0
C1131 C 0.62564 0.96535 0.93616 0.0
C1132 C 0.65195 0.99 0.99883 0.0
C1133 C 0.61705 0.95029 0.92582 0.0
C1134 C 0.6722 0.04898 0.05711 0.0
C1135 C 0.66583 0.03404 0.04583 0.0
C1136 C 0.64051 0.00915 0.98289 0.0
C1137 C 0.63128 0.96862 0.96721 0.0
C1138 C 0.63912 0.98454 0.97908 0.0
C1139 C 0.66086 0.03058 0.01435 0.0
C1140 C 0.65339 0.01467 0.00249 0.0
H1141 H 0.61774 0.93234 0.99341 0.0
H1142 H 0.6327 0.95863 0.01145 0.0
H1143 H 0.6234 0.99032 0.95678 0.0
H1144 H 0.66984 0.066 0.98951 0.0
H1145 H 0.65915 0.04017 0.9698 0.0
C1146 C 0.67107 0.62254 0.26265 0.0
C1147 C 0.67535 0.61501 0.28474 0.0
C1148 C 0.66519 0.63171 0.27271 0.0
C1149 C 0.66192 0.65201 0.34236 0.0
H1150 H 0.62533 0.6461 0.30051 0.0
C1151 C 0.62163 0.67085 0.3967 0.0
C1152 C 0.61475 0.67657 0.37624 0.0
C1153 C 0.63051 0.66499 0.3847 0.0
C1154 C 0.63568 0.64809 0.31216 0.0
H1155 H 0.6768 0.61125 0.33476 0.0
H1156 H 0.66664 0.62726 0.35221 0.0
H1157 H 0.63836 0.63313 0.28061 0.0
H1158 H 0.61197 0.68073 0.32706 0.0
H1159 H 0.62774 0.67091 0.30631 0.0
H1160 H 0.65909 0.66681 0.37421 0.0
C1161 C 0.66806 0.62629 0.32714 0.0
C1162 C 0.64316 0.64065 0.30073 0.0
C1163 C 0.67389 0.61711 0.3171 0.0
C1164 C 0.61725 0.67661 0.34357 0.0
C1165 C 0.62613 0.67079 0.3316 0.0
C1166 C 0.65445 0.65948 0.35379 0.0
C1167 C 0.66349 0.63356 0.30507 0.0
C1168 C 0.65626 0.64239 0.31589 0.0
C1169 C 0.63269 0.66471 0.35197 0.0
C1170 C 0.64116 0.65748 0.339 0.0
H1171 H 0.67224 0.62132 0.23757 0.0
H1172 H 0.66194 0.63733 0.25515 0.0
H1173 H 0.67212 0.65373 0.3543 0.0
H1174 H 0.62005 0.67079 0.422 0.0
H1175 H 0.63529 0.66028 0.40102 0.0
C1176 C 0.94325 0.62502 0.70996 0.0
C1177 C 0.93968 0.61189 0.72757 0.0
C1178 C 0.95802 0.63441 0.69862 0.0
C1179 C 0.99805 0.64355 0.70844 0.0
H1180 H 0.00215 0.65655 0.62111 0.0
C1181 C 0.05692 0.68038 0.65153 0.0
C1182 C 0.05893 0.67581 0.6214 0.0
C1183 C 0.04238 0.6743 0.66459 0.0
C1184 C 0.00119 0.65298 0.6455 0.0
H1185 H 0.94897 0.59868 0.74825 0.0
H1186 H 0.97468 0.61492 0.7281 0.0
H1187 H 0.97689 0.64261 0.64496 0.0
H1188 H 0.04715 0.66175 0.58089 0.0
H1189 H 0.02177 0.65091 0.60397 0.0
H1190 H 0.02226 0.6534 0.70869 0.0
C1191 C 0.96609 0.61803 0.72319 0.0
C1192 C 0.98673 0.64515 0.65929 0.0
C1193 C 0.95133 0.60863 0.73448 0.0
C1194 C 0.046 0.66538 0.60427 0.0
C1195 C 0.03145 0.65929 0.61737 0.0
C1196 C 0.01249 0.65138 0.69468 0.0
C1197 C 0.96956 0.6309 0.70473 0.0
C1198 C 0.98499 0.64019 0.69081 0.0
C1199 C 0.0295 0.66349 0.64791 0.0
C1200 C 0.01421 0.65604 0.66295 0.0
H1201 H 0.9345 0.62776 0.70398 0.0
H1202 H 0.96038 0.64434 0.68478 0.0
H1203 H 0.9971 0.64002 0.73286 0.0
H1204 H 0.06663 0.68825 0.66556 0.0
H1205 H 0.04126 0.67792 0.688 0.0
C1206 C 0.32278 0.94482 0.0465 0.0
C1207 C 0.332 0.94007 0.06195 0.0
C1208 C 0.32923 0.95939 0.03328 0.0
C1209 C 0.36486 0.98832 0.99868 0.0
H1210 H 0.34884 0.01572 0.00862 0.0
C1211 C 0.39776 0.05028 0.95511 0.0
C1212 C 0.38957 0.05714 0.94393 0.0
C1213 C 0.39015 0.03573 0.96834 0.0
C1214 C 0.35331 0.0081 0.00512 0.0
H1215 H 0.35504 0.94732 0.07751 0.0
H1216 H 0.36629 0.9726 0.05384 0.0
H1217 H 0.33652 0.99115 0.03575 0.0
H1218 H 0.36701 0.054 0.93686 0.0
H1219 H 0.35361 0.02829 0.95908 0.0
H1220 H 0.3814 0.00494 0.96758 0.0
C1221 C 0.35412 0.96496 0.05168 0.0
C1222 C 0.3463 0.99409 0.02085 0.0
C1223 C 0.34767 0.95048 0.06517 0.0
C1224 C 0.37358 0.04898 0.94546 0.0
C1225 C 0.36594 0.03432 0.95839 0.0
C1226 C 0.37174 0.00221 0.98265 0.0
C1227 C 0.34501 0.96942 0.03502 0.0
C1228 C 0.35214 0.98417 0.01807 0.0
C1229 C 0.37415 0.02759 0.97041 0.0
C1230 C 0.36618 0.01238 0.98596 0.0
H1231 H 0.31071 0.93706 0.04324 0.0
H1232 H 0.32198 0.96256 0.02045 0.0
H1233 H 0.36941 0.98074 0.99564 0.0
H1234 H 0.4101 0.05642 0.95481 0.0
H1235 H 0.39689 0.03109 0.97789 0.0
C1236 C 0.1852 0.44738 0.92398 0.0
C1237 C 0.18352 0.43857 0.89702 0.0
C1238 C 0.19368 0.44722 0.94984 0.0
C1239 C 0.21059 0.42537 0.98539 0.0
H1240 H 0.23467 0.46284 0.0322 0.0
C1241 C 0.25637 0.43403 0.07816 0.0
C1242 C 0.25495 0.43974 0.1074 0.0
C1243 C 0.24757 0.43367 0.05239 0.0
C1244 C 0.22794 0.45229 0.01939 0.0
H1245 H 0.18925 0.42241 0.87665 0.0
H1246 H 0.20462 0.42275 0.92091 0.0
H1247 H 0.21953 0.46262 0.98728 0.0
H1248 H 0.24354 0.44979 0.13261 0.0
H1249 H 0.22837 0.44945 0.08731 0.0
H1250 H 0.21948 0.41525 0.01718 0.0
C1251 C 0.19912 0.42954 0.92242 0.0
C1252 C 0.21917 0.45211 0.99377 0.0
C1253 C 0.19047 0.42954 0.89673 0.0
C1254 C 0.24474 0.44524 0.11035 0.0
C1255 C 0.23616 0.44513 0.08446 0.0
C1256 C 0.21955 0.42563 0.01072 0.0
C1257 C 0.20088 0.43842 0.94931 0.0
C1258 C 0.2103 0.43862 0.97651 0.0
C1259 C 0.23745 0.43929 0.0553 0.0
C1260 C 0.22823 0.43907 0.02803 0.0
H1261 H 0.18019 0.45463 0.92499 0.0
H1262 H 0.19453 0.45401 0.9703 0.0
H1263 H 0.20372 0.4147 0.97309 0.0
H1264 H 0.26413 0.42968 0.07539 0.0
H1265 H 0.2488 0.42918 0.03007 0.0
C1266 C 0.79629 0.24012 0.44264 0.0
C1267 C 0.81077 0.25283 0.43731 0.0
C1268 C 0.78737 0.23135 0.41736 0.0
C1269 C 0.78346 0.23238 0.33022 0.0
H1270 H 0.7582 0.1886 0.34003 0.0
C1271 C 0.75445 0.19141 0.22562 0.0
C1272 C 0.73893 0.18063 0.22935 0.0
C1273 C 0.76302 0.20022 0.25118 0.0
C1274 C 0.76512 0.20083 0.33708 0.0
H1275 H 0.82739 0.26622 0.40155 0.0
H1276 H 0.81204 0.25067 0.35738 0.0
H1277 H 0.77381 0.20395 0.3841 0.0
H1278 H 0.72022 0.17047 0.26267 0.0
H1279 H 0.73534 0.18577 0.30766 0.0
H1280 H 0.77501 0.2291 0.28282 0.0
C1281 C 0.80735 0.24768 0.38097 0.0
C1282 C 0.77403 0.20966 0.36233 0.0
C1283 C 0.81619 0.25656 0.40625 0.0
C1284 C 0.73216 0.17874 0.25919 0.0
C1285 C 0.74081 0.18741 0.28489 0.0
C1286 C 0.7747 0.22352 0.30486 0.0
C1287 C 0.79279 0.23498 0.38618 0.0
C1288 C 0.78331 0.22556 0.35926 0.0
C1289 C 0.7563 0.1983 0.28105 0.0
C1290 C 0.76545 0.20767 0.30806 0.0
H1291 H 0.79175 0.23713 0.46635 0.0
H1292 H 0.77611 0.22186 0.4223 0.0
H1293 H 0.79021 0.24461 0.32711 0.0
H1294 H 0.7599 0.19319 0.20279 0.0
H1295 H 0.77497 0.20847 0.24765 0.0
C1296 C 0.5459 0.79686 0.77137 0.0
C1297 C 0.55791 0.81189 0.7753 0.0
C1298 C 0.54601 0.78797 0.74633 0.0
C1299 C 0.57159 0.7837 0.6916 0.0
H1300 H 0.53497 0.76006 0.64198 0.0
C1301 C 0.57121 0.75271 0.57695 0.0
C1302 C 0.55819 0.73863 0.57008 0.0
C1303 C 0.57136 0.76138 0.60271 0.0
C1304 C 0.54523 0.76639 0.65589 0.0
H1305 H 0.57945 0.8294 0.75618 0.0
H1306 H 0.57966 0.81379 0.71229 0.0
H1307 H 0.53484 0.77591 0.68508 0.0
H1308 H 0.53523 0.7225 0.58547 0.0
H1309 H 0.5357 0.73734 0.63106 0.0
H1310 H 0.58194 0.77406 0.66278 0.0
C1311 C 0.5702 0.80892 0.72869 0.0
C1312 C 0.54516 0.77552 0.68049 0.0
C1313 C 0.57001 0.81788 0.75359 0.0
C1314 C 0.54549 0.73323 0.59018 0.0
C1315 C 0.54568 0.74185 0.61608 0.0
C1316 C 0.57163 0.77447 0.66715 0.0
C1317 C 0.55819 0.79387 0.72483 0.0
C1318 C 0.55834 0.78429 0.69855 0.0
C1319 C 0.55854 0.75614 0.62242 0.0
C1320 C 0.55845 0.76571 0.64894 0.0
H1321 H 0.53635 0.792 0.78758 0.0
H1322 H 0.53666 0.77638 0.74407 0.0
H1323 H 0.58185 0.79019 0.70542 0.0
H1324 H 0.58128 0.75713 0.56227 0.0
H1325 H 0.58142 0.77238 0.60668 0.0
C1326 C 0.73377 0.54699 0.07593 0.0
C1327 C 0.73996 0.55898 0.09794 0.0
C1328 C 0.74218 0.54722 0.04958 0.0
C1329 C 0.77686 0.57289 0.00239 0.0
H1330 H 0.77239 0.53454 0.97348 0.0
C1331 C 0.8183 0.56765 0.91551 0.0
C1332 C 0.81129 0.55815 0.88939 0.0
C1333 C 0.80948 0.56808 0.94044 0.0
C1334 C 0.77367 0.54531 0.98125 0.0
H1335 H 0.7598 0.58091 0.10864 0.0
H1336 H 0.77472 0.58088 0.06397 0.0
H1337 H 0.75727 0.53472 0.018 0.0
H1338 H 0.7897 0.54152 0.86889 0.0
H1339 H 0.77429 0.54199 0.91295 0.0
H1340 H 0.79376 0.58343 0.96615 0.0
C1341 C 0.76322 0.57142 0.06657 0.0
C1342 C 0.76494 0.54544 0.00662 0.0
C1343 C 0.75472 0.57131 0.09262 0.0
C1344 C 0.79534 0.54899 0.88873 0.0
C1345 C 0.78656 0.54921 0.91391 0.0
C1346 C 0.78579 0.57276 0.97738 0.0
C1347 C 0.75711 0.55934 0.04475 0.0
C1348 C 0.76636 0.55922 0.0175 0.0
C1349 C 0.79355 0.55879 0.93991 0.0
C1350 C 0.78422 0.55897 0.96655 0.0
H1351 H 0.72253 0.5372 0.0793 0.0
H1352 H 0.73693 0.53784 0.03305 0.0
H1353 H 0.7781 0.58369 0.0096 0.0
H1354 H 0.83057 0.57486 0.91645 0.0
H1355 H 0.81512 0.5755 0.96035 0.0
C1356 C 0.17925 0.73674 0.40741 0.0
C1357 C 0.18391 0.74205 0.43832 0.0
C1358 C 0.18803 0.74514 0.38159 0.0
C1359 C 0.22691 0.77445 0.35913 0.0
H1360 H 0.20702 0.78061 0.28705 0.0
C1361 C 0.26076 0.81651 0.25878 0.0
C1362 C 0.2554 0.81211 0.22781 0.0
C1363 C 0.25211 0.80785 0.28449 0.0
C1364 C 0.21274 0.77884 0.3068 0.0
H1365 H 0.20157 0.76014 0.46646 0.0
H1366 H 0.21683 0.77484 0.42139 0.0
H1367 H 0.19176 0.76548 0.33166 0.0
H1368 H 0.23701 0.79495 0.19943 0.0
H1369 H 0.22203 0.77975 0.24416 0.0
H1370 H 0.24788 0.78769 0.33424 0.0
C1371 C 0.20641 0.76418 0.41711 0.0
C1372 C 0.20399 0.77018 0.33237 0.0
C1373 C 0.19759 0.75585 0.44289 0.0
C1374 C 0.24131 0.79878 0.22306 0.0
C1375 C 0.23272 0.79009 0.24871 0.0
C1376 C 0.23566 0.78304 0.33349 0.0
C1377 C 0.2017 0.75894 0.38619 0.0
C1378 C 0.21099 0.76793 0.35883 0.0
C1379 C 0.23797 0.79454 0.27975 0.0
C1380 C 0.22869 0.78536 0.30703 0.0
H1381 H 0.16872 0.72619 0.40316 0.0
H1382 H 0.18418 0.74075 0.35802 0.0
H1383 H 0.2326 0.77274 0.37904 0.0
H1384 H 0.2715 0.82681 0.26317 0.0
H1385 H 0.2564 0.81174 0.30809 0.0
C1386 C 0.4394 0.19776 0.77743 0.0
C1387 C 0.43973 0.18419 0.77281 0.0
C1388 C 0.43944 0.20639 0.75168 0.0
C1389 C 0.43079 0.20382 0.66672 0.0
H1390 H 0.45597 0.24784 0.66963 0.0
C1391 C 0.42618 0.24307 0.57377 0.0
C1392 C 0.43992 0.25537 0.56265 0.0
C1393 C 0.42614 0.23438 0.59944 0.0
C1394 C 0.44894 0.23556 0.66837 0.0
H1395 H 0.44025 0.16898 0.73748 0.0
H1396 H 0.44049 0.18415 0.69243 0.0
H1397 H 0.45618 0.2326 0.71397 0.0
H1398 H 0.46441 0.26805 0.56965 0.0
H1399 H 0.46431 0.25295 0.61451 0.0
H1400 H 0.4237 0.20678 0.62091 0.0
C1401 C 0.44008 0.18805 0.71602 0.0
C1402 C 0.44895 0.22684 0.6939 0.0
C1403 C 0.4401 0.17944 0.74182 0.0
C1404 C 0.4536 0.25883 0.57794 0.0
C1405 C 0.45355 0.25016 0.60363 0.0
C1406 C 0.43074 0.21255 0.64121 0.0
C1407 C 0.43979 0.20164 0.72069 0.0
C1408 C 0.43986 0.21087 0.69338 0.0
C1409 C 0.43983 0.23781 0.61461 0.0
C1410 C 0.43982 0.22852 0.64175 0.0
H1411 H 0.43929 0.20183 0.80101 0.0
H1412 H 0.43906 0.21672 0.75607 0.0
H1413 H 0.42356 0.19155 0.66572 0.0
H1414 H 0.41542 0.24024 0.56283 0.0
H1415 H 0.41536 0.22508 0.60765 0.0
C1416 C 0.17288 0.41846 0.58885 0.0
C1417 C 0.18089 0.42824 0.61405 0.0
C1418 C 0.18071 0.41722 0.56294 0.0
C1419 C 0.21904 0.42575 0.53605 0.0
H1420 H 0.20343 0.42673 0.45299 0.0
C1421 C 0.2561 0.44226 0.42444 0.0
C1422 C 0.2497 0.4336 0.39696 0.0
C1423 C 0.24713 0.44005 0.45104 0.0
C1424 C 0.20782 0.42623 0.47601 0.0
H1425 H 0.20335 0.44423 0.63204 0.0
H1426 H 0.21701 0.44218 0.58678 0.0
H1427 H 0.18877 0.42534 0.49976 0.0
H1428 H 0.22881 0.41578 0.37599 0.0
H1429 H 0.21305 0.41211 0.42246 0.0
H1430 H 0.23828 0.42705 0.51222 0.0
C1431 C 0.20471 0.43525 0.58723 0.0
C1432 C 0.19942 0.42541 0.50281 0.0
C1433 C 0.19688 0.43645 0.61317 0.0
C1434 C 0.23405 0.42278 0.39662 0.0
C1435 C 0.22504 0.42064 0.42324 0.0
C1436 C 0.22747 0.42665 0.50926 0.0
C1437 C 0.19671 0.42576 0.56164 0.0
C1438 C 0.20504 0.42538 0.53316 0.0
C1439 C 0.23152 0.42921 0.45076 0.0
C1440 C 0.22205 0.42712 0.479 0.0
H1441 H 0.16055 0.41183 0.58912 0.0
H1442 H 0.17423 0.40962 0.54386 0.0
H1443 H 0.22355 0.42545 0.55905 0.0
H1444 H 0.26805 0.4509 0.4253 0.0
H1445 H 0.25237 0.44703 0.47171 0.0
C1446 C 0.80215 0.23652 0.72128 0.0
C1447 C 0.81803 0.24607 0.72091 0.0
C1448 C 0.7949 0.22779 0.74796 0.0
C1449 C 0.78232 0.2056 0.80241 0.0
H1450 H 0.79745 0.22492 0.88367 0.0
C1451 C 0.75353 0.17512 0.9183 0.0
C1452 C 0.75183 0.18401 0.94162 0.0
C1453 C 0.76281 0.18201 0.89209 0.0
C1454 C 0.79302 0.21939 0.86117 0.0
H1455 H 0.83889 0.25344 0.74725 0.0
H1456 H 0.8263 0.23787 0.79358 0.0
H1457 H 0.81098 0.23786 0.83586 0.0
H1458 H 0.75858 0.20702 0.95613 0.0
H1459 H 0.7745 0.2191 0.90999 0.0
H1460 H 0.76389 0.18751 0.82759 0.0
C1461 C 0.81937 0.23744 0.77371 0.0
C1462 C 0.80092 0.22671 0.83373 0.0
C1463 C 0.82659 0.2463 0.74717 0.0
C1464 C 0.75981 0.19993 0.93859 0.0
C1465 C 0.76897 0.20682 0.9122 0.0
C1466 C 0.77434 0.19834 0.82983 0.0
C1467 C 0.8034 0.22831 0.77469 0.0
C1468 C 0.79557 0.21999 0.80397 0.0
C1469 C 0.77047 0.19794 0.88847 0.0
C1470 C 0.77949 0.20523 0.85953 0.0
H1471 H 0.79529 0.23627 0.70143 0.0
H1472 H 0.78258 0.22108 0.74801 0.0
H1473 H 0.77799 0.19998 0.77994 0.0
H1474 H 0.74766 0.16282 0.92035 0.0
H1475 H 0.76394 0.17484 0.87463 0.0
C1476 C 0.57704 0.81682 0.07049 0.0
C1477 C 0.56459 0.81917 0.06692 0.0
C1478 C 0.57886 0.81045 0.09827 0.0
C1479 C 0.56764 0.80352 0.1819 0.0
H1480 H 0.57419 0.76913 0.17331 0.0
C1481 C 0.55724 0.76182 0.28402 0.0
C1482 C 0.5664 0.75508 0.28595 0.0
C1483 C 0.55873 0.77122 0.25855 0.0
C1484 C 0.57267 0.7789 0.17626 0.0
H1485 H 0.54457 0.81723 0.08989 0.0
H1486 H 0.54772 0.80607 0.13838 0.0
H1487 H 0.5739 0.78287 0.12645 0.0
H1488 H 0.5848 0.75343 0.26386 0.0
H1489 H 0.58772 0.77018 0.21979 0.0
H1490 H 0.56639 0.79958 0.23169 0.0
C1491 C 0.55607 0.80915 0.11974 0.0
C1492 C 0.57246 0.78674 0.14935 0.0
C1493 C 0.55418 0.81537 0.09189 0.0
C1494 C 0.57745 0.75834 0.26263 0.0
C1495 C 0.57907 0.76788 0.23736 0.0
C1496 C 0.56799 0.79577 0.20887 0.0
C1497 C 0.56834 0.80649 0.12308 0.0
C1498 C 0.56973 0.79898 0.15187 0.0
C1499 C 0.56953 0.77421 0.23468 0.0
C1500 C 0.57029 0.78322 0.20635 0.0
H1501 H 0.58519 0.81959 0.05155 0.0
H1502 H 0.58846 0.8086 0.10033 0.0
H1503 H 0.5657 0.81305 0.1845 0.0
H1504 H 0.54854 0.75936 0.3016 0.0
H1505 H 0.55103 0.77571 0.25705 0.0
C1506 C 0.75744 0.57771 0.40788 0.0
C1507 C 0.75421 0.567 0.38382 0.0
C1508 C 0.76656 0.57862 0.43346 0.0
C1509 C 0.79319 0.56571 0.46147 0.0
H1510 H 0.7811 0.57235 0.54416 0.0
C1511 C 0.81174 0.55044 0.57808 0.0
C1512 C 0.81756 0.56174 0.60164 0.0
C1513 C 0.80502 0.55229 0.55094 0.0
C1514 C 0.78468 0.57063 0.52116 0.0
H1515 H 0.75795 0.54892 0.36733 0.0
H1516 H 0.77344 0.5501 0.41239 0.0
H1517 H 0.76769 0.57348 0.49741 0.0
H1518 H 0.82086 0.58391 0.61486 0.0
H1519 H 0.80858 0.58681 0.56788 0.0
H1520 H 0.80977 0.56221 0.48568 0.0
C1521 C 0.76937 0.55813 0.41124 0.0
C1522 C 0.77707 0.57136 0.49432 0.0
C1523 C 0.76044 0.55739 0.38545 0.0
C1524 C 0.81629 0.57485 0.59752 0.0
C1525 C 0.80936 0.57659 0.57055 0.0
C1526 C 0.80064 0.56476 0.48837 0.0
C1527 C 0.77242 0.56866 0.43575 0.0
C1528 C 0.78114 0.56878 0.46413 0.0
C1529 C 0.80375 0.56536 0.54697 0.0
C1530 C 0.79637 0.5671 0.51844 0.0
H1531 H 0.75287 0.58535 0.40692 0.0
H1532 H 0.76892 0.58709 0.4515 0.0
H1533 H 0.79686 0.56398 0.43862 0.0
H1534 H 0.81219 0.54005 0.58069 0.0
H1535 H 0.80057 0.54337 0.53327 0.0
C1536 C 0.18579 0.76273 0.73005 0.0
C1537 C 0.17928 0.74681 0.73071 0.0
C1538 C 0.19234 0.77138 0.75718 0.0
C1539 C 0.19356 0.76895 0.84402 0.0
H1540 H 0.23312 0.80533 0.8349 0.0
C1541 C 0.23351 0.79975 0.94937 0.0
C1542 C 0.24269 0.81568 0.94793 0.0
C1543 C 0.22429 0.79165 0.92381 0.0
C1544 C 0.22196 0.79536 0.83786 0.0
H1545 H 0.17416 0.72743 0.76058 0.0
H1546 H 0.18587 0.74258 0.80785 0.0
H1547 H 0.21988 0.79062 0.78838 0.0
H1548 H 0.24875 0.83572 0.91961 0.0
H1549 H 0.23245 0.82164 0.87518 0.0
H1550 H 0.19573 0.77365 0.89362 0.0
C1551 C 0.18579 0.74835 0.78639 0.0
C1552 C 0.21438 0.78691 0.81116 0.0
C1553 C 0.17927 0.7397 0.75922 0.0
C1554 C 0.24196 0.82342 0.92109 0.0
C1555 C 0.23267 0.81535 0.89565 0.0
C1556 C 0.20112 0.77745 0.87078 0.0
C1557 C 0.19251 0.7643 0.78559 0.0
C1558 C 0.20016 0.77356 0.81395 0.0
C1559 C 0.22401 0.79935 0.8964 0.0
C1560 C 0.21546 0.7907 0.86801 0.0
H1561 H 0.18606 0.76855 0.7084 0.0
H1562 H 0.1973 0.78364 0.75592 0.0
H1563 H 0.18251 0.7588 0.84685 0.0
H1564 H 0.23397 0.7935 0.9697 0.0
H1565 H 0.21789 0.77933 0.92504 0.0
C1566 C 0.43428 0.17915 0.09275 0.0
C1567 C 0.42692 0.17837 0.06406 0.0
C1568 C 0.43196 0.18586 0.11931 0.0
C1569 C 0.42275 0.21472 0.14234 0.0
H1570 H 0.41546 0.19583 0.22496 0.0
C1571 C 0.4186 0.24559 0.25229 0.0
C1572 C 0.42602 0.24471 0.27952 0.0
C1573 C 0.41617 0.23595 0.22672 0.0
C1574 C 0.41763 0.20133 0.20212 0.0
H1575 H 0.41108 0.18386 0.0412 0.0
H1576 H 0.40745 0.19607 0.08749 0.0
H1577 H 0.4162 0.18194 0.17854 0.0
H1578 H 0.43642 0.23293 0.30183 0.0
H1579 H 0.43265 0.2164 0.25685 0.0
H1580 H 0.42493 0.23436 0.16572 0.0
C1581 C 0.41498 0.19139 0.08921 0.0
C1582 C 0.41797 0.19333 0.17556 0.0
C1583 C 0.41714 0.18448 0.06269 0.0
C1584 C 0.43056 0.23373 0.28114 0.0
C1585 C 0.42833 0.22423 0.25539 0.0
C1586 C 0.42261 0.22279 0.1689 0.0
C1587 C 0.42238 0.19214 0.11774 0.0
C1588 C 0.42072 0.20004 0.1455 0.0
C1589 C 0.42132 0.22538 0.22764 0.0
C1590 C 0.42023 0.21628 0.1992 0.0
H1591 H 0.44214 0.17488 0.09459 0.0
H1592 H 0.438 0.18653 0.1409 0.0
H1593 H 0.42507 0.22021 0.11945 0.0
H1594 H 0.41481 0.25385 0.25069 0.0
H1595 H 0.41042 0.23693 0.20607 0.0
C1596 C 0.38526 0.51594 0.30459 0.0
C1597 C 0.37516 0.51715 0.28367 0.0
C1598 C 0.39837 0.52898 0.31509 0.0
C1599 C 0.4147 0.57068 0.32362 0.0
H1600 H 0.45248 0.57047 0.33683 0.0
C1601 C 0.47172 0.62522 0.35063 0.0
C1602 C 0.48074 0.62433 0.37486 0.0
C1603 C 0.45888 0.61211 0.33954 0.0
C1604 C 0.44196 0.57064 0.33351 0.0
H1605 H 0.37108 0.5329 0.25656 0.0
H1606 H 0.39411 0.55566 0.27433 0.0
H1607 H 0.43023 0.54772 0.31634 0.0
H1608 H 0.48317 0.60886 0.40659 0.0
H1609 H 0.46087 0.58592 0.38679 0.0
H1610 H 0.42655 0.59368 0.34042 0.0
C1611 C 0.39174 0.54468 0.28328 0.0
C1612 C 0.4292 0.55761 0.32181 0.0
C1613 C 0.37858 0.53165 0.27297 0.0
C1614 C 0.47662 0.60996 0.38762 0.0
C1615 C 0.46384 0.59681 0.37633 0.0
C1616 C 0.42749 0.58373 0.33508 0.0
C1617 C 0.40172 0.54353 0.30474 0.0
C1618 C 0.4154 0.55745 0.31675 0.0
C1619 C 0.45483 0.59776 0.35221 0.0
C1620 C 0.44125 0.58385 0.34019 0.0
H1621 H 0.3828 0.50494 0.31361 0.0
H1622 H 0.40565 0.52767 0.33198 0.0
H1623 H 0.4042 0.57089 0.32063 0.0
H1624 H 0.47471 0.63604 0.33975 0.0
H1625 H 0.45228 0.61316 0.32061 0.0
C1626 C 0.86079 0.47766 0.68913 0.0
C1627 C 0.85355 0.47771 0.7174 0.0
C1628 C 0.8595 0.46418 0.6775 0.0
C1629 C 0.84965 0.42513 0.70092 0.0
H1630 H 0.84588 0.41823 0.61048 0.0
C1631 C 0.83837 0.36845 0.64458 0.0
C1632 C 0.8476 0.36978 0.61863 0.0
C1633 C 0.83827 0.38125 0.65654 0.0
C1634 C 0.84702 0.42005 0.63576 0.0
H1635 H 0.83936 0.46354 0.75578 0.0
H1636 H 0.83676 0.4399 0.73501 0.0
H1637 H 0.84719 0.44116 0.63195 0.0
H1638 H 0.86369 0.38549 0.58441 0.0
H1639 H 0.86351 0.40787 0.60528 0.0
H1640 H 0.84938 0.40392 0.70461 0.0
C1641 C 0.84363 0.45037 0.72207 0.0
C1642 C 0.84781 0.4332 0.64809 0.0
C1643 C 0.84499 0.4639 0.73381 0.0
C1644 C 0.85653 0.38414 0.60454 0.0
C1645 C 0.85633 0.39691 0.61633 0.0
C1646 C 0.84875 0.41191 0.68858 0.0
C1647 C 0.85082 0.45034 0.69367 0.0
C1648 C 0.84931 0.436 0.68079 0.0
C1649 C 0.8473 0.39562 0.64263 0.0
C1650 C 0.84758 0.40931 0.65584 0.0
H1651 H 0.86727 0.488 0.67554 0.0
H1652 H 0.86538 0.46464 0.65583 0.0
H1653 H 0.85098 0.427 0.72616 0.0
H1654 H 0.83149 0.35756 0.65614 0.0
H1655 H 0.83111 0.3799 0.67667 0.0
C1656 C 0.46595 0.84068 0.95483 0.0
C1657 C 0.47866 0.85453 0.94573 0.0
C1658 C 0.45272 0.84025 0.96566 0.0
C1659 C 0.43909 0.86555 0.99779 0.0
H1660 H 0.39926 0.8303 0.98264 0.0
C1661 C 0.38283 0.86458 0.02509 0.0
C1662 C 0.37157 0.85176 0.04132 0.0
C1663 C 0.39585 0.86483 0.01354 0.0
C1664 C 0.41034 0.84016 0.98723 0.0
H1665 H 0.48738 0.87872 0.93974 0.0
H1666 H 0.4641 0.87797 0.9574 0.0
H1667 H 0.42186 0.83107 0.96056 0.0
H1668 H 0.36537 0.82916 0.05834 0.0
H1669 H 0.38799 0.8295 0.03738 0.0
H1670 H 0.42741 0.87476 0.02374 0.0
C1671 C 0.46445 0.86746 0.95725 0.0
C1672 C 0.42331 0.84061 0.97468 0.0
C1673 C 0.47777 0.86791 0.94691 0.0
C1674 C 0.37368 0.83915 0.04558 0.0
C1675 C 0.38664 0.83934 0.03366 0.0
C1676 C 0.4261 0.86518 0.00993 0.0
C1677 C 0.4518 0.85366 0.96721 0.0
C1678 C 0.43789 0.85329 0.97988 0.0
C1679 C 0.39785 0.8522 0.01757 0.0
C1680 C 0.41161 0.85247 0.00486 0.0
H1681 H 0.46642 0.83023 0.95455 0.0
H1682 H 0.44337 0.82945 0.97363 0.0
H1683 H 0.4501 0.87537 0.00295 0.0
H1684 H 0.38148 0.87436 0.02066 0.0
H1685 H 0.40423 0.87481 0.00085 0.0
C1686 C 0.62327 0.46581 0.28267 0.0
C1687 C 0.62578 0.48033 0.29079 0.0
C1688 C 0.61054 0.45269 0.29416 0.0
C1689 C 0.57235 0.43889 0.3289 0.0
H1690 H 0.57702 0.40506 0.35734 0.0
C1691 C 0.52432 0.38748 0.39442 0.0
C1692 C 0.52133 0.37296 0.3848 0.0
C1693 C 0.53738 0.40058 0.38399 0.0
C1694 C 0.57551 0.41436 0.34924 0.0
H1695 H 0.61694 0.49248 0.31754 0.0
H1696 H 0.59475 0.4696 0.33764 0.0
H1697 H 0.599 0.42791 0.33639 0.0
H1698 H 0.52984 0.36084 0.35694 0.0
H1699 H 0.55267 0.3837 0.33889 0.0
H1700 H 0.54887 0.42536 0.3418 0.0
C1701 C 0.60249 0.46834 0.32196 0.0
C1702 C 0.58809 0.42744 0.33718 0.0
C1703 C 0.6152 0.48145 0.31042 0.0
C1704 C 0.53191 0.37183 0.36516 0.0
C1705 C 0.54498 0.38494 0.35476 0.0
C1706 C 0.55979 0.42583 0.34102 0.0
C1707 C 0.60004 0.4538 0.31409 0.0
C1708 C 0.58666 0.43986 0.32683 0.0
C1709 C 0.54776 0.39946 0.36374 0.0
C1710 C 0.56122 0.41342 0.35132 0.0
H1711 H 0.63112 0.46458 0.26727 0.0
H1712 H 0.60886 0.44167 0.2872 0.0
H1713 H 0.5708 0.44815 0.32068 0.0
H1714 H 0.51654 0.38873 0.40996 0.0
H1715 H 0.53935 0.4116 0.39179 0.0
C1716 C 0.13845 0.61872 0.6496 0.0
C1717 C 0.14441 0.62544 0.62011 0.0
C1718 C 0.13961 0.60629 0.6601 0.0
C1719 C 0.14578 0.57527 0.63207 0.0
H1720 H 0.15366 0.57248 0.7207 0.0
C1721 C 0.13757 0.51977 0.68747 0.0
C1722 C 0.1479 0.52075 0.71079 0.0
C1723 C 0.13801 0.53288 0.6759 0.0
C1724 C 0.15163 0.57315 0.69581 0.0
H1725 H 0.15618 0.62423 0.57844 0.0
H1726 H 0.15852 0.6027 0.59708 0.0
H1727 H 0.15317 0.59485 0.70135 0.0
H1728 H 0.16689 0.53639 0.7401 0.0
H1729 H 0.16792 0.55934 0.71931 0.0
H1730 H 0.14453 0.5537 0.62641 0.0
C1731 C 0.15277 0.60696 0.61192 0.0
C1732 C 0.15114 0.58589 0.68478 0.0
C1733 C 0.15157 0.6194 0.60137 0.0
C1734 C 0.15882 0.53522 0.72202 0.0
C1735 C 0.1593 0.54837 0.71033 0.0
C1736 C 0.14632 0.56255 0.64307 0.0
C1737 C 0.14684 0.60028 0.64147 0.0
C1738 C 0.14805 0.58704 0.65285 0.0
C1739 C 0.14887 0.54735 0.68717 0.0
C1740 C 0.14909 0.56125 0.67515 0.0
H1741 H 0.13306 0.62321 0.66487 0.0
H1742 H 0.13473 0.6013 0.68277 0.0
H1743 H 0.14326 0.57572 0.60738 0.0
H1744 H 0.12918 0.50885 0.67785 0.0
H1745 H 0.12968 0.53164 0.65838 0.0
C1746 C 0.62547 0.15583 0.02152 0.0
C1747 C 0.62454 0.14551 0.04485 0.0
C1748 C 0.61241 0.15591 0.01129 0.0
C1749 C 0.57101 0.13157 0.005 0.0
H1750 H 0.57113 0.16968 0.99511 0.0
C1751 C 0.51621 0.13328 0.97644 0.0
C1752 C 0.51739 0.14479 0.95616 0.0
C1753 C 0.52928 0.13338 0.98727 0.0
C1754 C 0.57095 0.15894 0.99728 0.0
H1755 H 0.60905 0.12734 0.07609 0.0
H1756 H 0.58621 0.12731 0.05772 0.0
H1757 H 0.59394 0.16991 0.01424 0.0
H1758 H 0.53313 0.16528 0.93086 0.0
H1759 H 0.55598 0.1653 0.94914 0.0
H1760 H 0.54816 0.12057 0.98752 0.0
C1761 C 0.59709 0.13528 0.04729 0.0
C1762 C 0.58401 0.15909 0.00837 0.0
C1763 C 0.61018 0.13529 0.05774 0.0
C1764 C 0.5319 0.15634 0.94671 0.0
C1765 C 0.54498 0.15638 0.95732 0.0
C1766 C 0.55799 0.13142 0.99364 0.0
C1767 C 0.59807 0.14557 0.02391 0.0
C1768 C 0.58417 0.14541 0.0124 0.0
C1769 C 0.54384 0.14494 0.97788 0.0
C1770 C 0.55777 0.1451 0.98968 0.0
H1771 H 0.63626 0.16365 0.01057 0.0
H1772 H 0.61347 0.16383 0.99294 0.0
H1773 H 0.57088 0.12086 0.00744 0.0
H1774 H 0.50517 0.12437 0.98452 0.0
H1775 H 0.52795 0.12455 0.00353 0.0
loop_
_geom_bond_atom_site_label_1
_geom_bond_atom_site_label_2
_geom_bond_distance
_geom_bond_site_symmetry_2
_ccdc_geom_bond_type
Li0 N17 1.990 . S
Li0 O60 1.956 . S
Li0 O61 1.970 . S
Li0 O62 1.961 . S
Li1 N25 1.990 . S
Li1 O60 1.970 . S
Li1 O61 1.956 . S
Li1 O63 1.961 . S
Li2 N47 1.990 . S
Li2 O60 1.961 . S
Li2 O62 1.956 . S
Li2 O63 1.970 . S
Li3 N53 1.990 . S
Li3 O61 1.961 . S
Li3 O62 1.970 . S
Li3 O63 1.956 . S
C4 C6 1.348 . S
C4 C7 1.356 . S
C4 O60 1.325 . S
N5 C8 1.314 . S
N5 C9 1.279 . S
C6 C4 1.348 . S
C6 C8 1.353 . S
C6 H64 0.929 . S
C7 C4 1.356 . S
C7 C9 1.358 . S
C7 H65 0.930 . S
C8 N5 1.314 . S
C8 C6 1.353 . S
C8 H66 0.930 . S
C9 N5 1.279 . S
C9 C7 1.358 . S
C9 H67 0.930 . S
C10 C13 1.348 . S
C10 C14 1.356 . S
C10 O61 1.325 . S
C11 N12 1.279 . S
C11 C14 1.358 . S
C11 H68 0.930 . S
N12 C11 1.279 . S
N12 C15 1.314 . S
C13 C10 1.348 . S
C13 C15 1.353 . S
C13 H69 0.929 . S
C14 C10 1.356 . S
C14 C11 1.358 . S
C14 H70 0.930 . S
C15 N12 1.314 . S
C15 C13 1.353 . S
C15 H71 0.930 . S
C16 N17 1.314 . S
C16 C21 1.353 . S
C16 H22 0.930 . S
N17 Li0 1.990 . S
N17 C16 1.314 . S
N17 C19 1.279 . S
C18 C19 1.358 . S
C18 C20 1.356 . S
C18 H72 0.930 . S
C19 N17 1.279 . S
C19 C18 1.358 . S
C19 H23 0.930 . S
C20 C18 1.356 . S
C20 C21 1.348 . S
C21 C16 1.353 . S
C21 C20 1.348 . S
C21 H73 0.929 . S
H22 C16 0.930 . S
H23 C19 0.930 . S
C24 N25 1.314 . S
C24 C26 1.353 . S
C24 H30 0.930 . S
N25 Li1 1.990 . S
N25 C24 1.314 . S
N25 C28 1.279 . S
C26 C24 1.353 . S
C26 C29 1.348 . S
C26 H74 0.929 . S
C27 C28 1.358 . S
C27 C29 1.356 . S
C27 H75 0.930 . S
C28 N25 1.279 . S
C28 C27 1.358 . S
C28 H31 0.930 . S
C29 C26 1.348 . S
C29 C27 1.356 . S
H30 C24 0.930 . S
H31 C28 0.930 . S
C32 C34 1.348 . S
C32 C35 1.356 . S
C32 O62 1.325 . S
N33 C36 1.314 . S
N33 C37 1.279 . S
C34 C32 1.348 . S
C34 C36 1.353 . S
C34 H76 0.929 . S
C35 C32 1.356 . S
C35 C37 1.358 . S
C35 H77 0.930 . S
C36 N33 1.314 . S
C36 C34 1.353 . S
C36 H78 0.930 . S
C37 N33 1.279 . S
C37 C35 1.358 . S
C37 H79 0.930 . S
C38 C39 1.348 . S
C38 C40 1.356 . S
C38 O63 1.325 . S
C39 C38 1.348 . S
C39 C41 1.353 . S
C39 H80 0.929 . S
C40 C38 1.356 . S
C40 C42 1.358 . S
C40 H81 0.930 . S
C41 C39 1.353 . S
C41 N43 1.314 . S
C41 H82 0.930 . S
C42 C40 1.358 . S
C42 N43 1.279 . S
C42 H83 0.930 . S
N43 C41 1.314 . S
N43 C42 1.279 . S
C44 C46 1.353 . S
C44 N47 1.314 . S
C44 H50 0.930 . S
C45 N47 1.279 . S
C45 C48 1.358 . S
C45 H51 0.930 . S
C46 C44 1.353 . S
C46 C49 1.348 . S
C46 H84 0.929 . S
N47 Li2 1.990 . S
N47 C44 1.314 . S
N47 C45 1.279 . S
C48 C45 1.358 . S
C48 C49 1.356 . S
C48 H85 0.930 . S
C49 C46 1.348 . S
C49 C48 1.356 . S
H50 C44 0.930 . S
H51 C45 0.930 . S
C52 N53 1.314 . S
C52 C54 1.353 . S
C52 H58 0.930 . S
N53 Li3 1.990 . S
N53 C52 1.314 . S
N53 C56 1.279 . S
C54 C52 1.353 . S
C54 C57 1.348 . S
C54 H86 0.929 . S
C55 C56 1.358 . S
C55 C57 1.356 . S
C55 H87 0.930 . S
C56 N53 1.279 . S
C56 C55 1.358 . S
C56 H59 0.930 . S
C57 C54 1.348 . S
C57 C55 1.356 . S
H58 C52 0.930 . S
H59 C56 0.930 . S
O60 Li0 1.956 . S
O60 Li1 1.970 . S
O60 Li2 1.961 . S
O60 C4 1.325 . S
O61 Li0 1.970 . S
O61 Li1 1.956 . S
O61 Li3 1.961 . S
O61 C10 1.325 . S
O62 Li0 1.961 . S
O62 Li2 1.956 . S
O62 Li3 1.970 . S
O62 C32 1.325 . S
O63 Li1 1.961 . S
O63 Li2 1.970 . S
O63 Li3 1.956 . S
O63 C38 1.325 . S
H64 C6 0.929 . S
H65 C7 0.930 . S
H66 C8 0.930 . S
H67 C9 0.930 . S
H68 C11 0.930 . S
H69 C13 0.929 . S
H70 C14 0.930 . S
H71 C15 0.930 . S
H72 C18 0.930 . S
H73 C21 0.929 . S
H74 C26 0.929 . S
H75 C27 0.930 . S
H76 C34 0.929 . S
H77 C35 0.930 . S
H78 C36 0.930 . S
H79 C37 0.930 . S
H80 C39 0.929 . S
H81 C40 0.930 . S
H82 C41 0.930 . S
H83 C42 0.930 . S
H84 C46 0.929 . S
H85 C48 0.930 . S
H86 C54 0.929 . S
H87 C55 0.930 . S
Li88 N105 1.990 . S
Li88 O148 1.956 . S
Li88 O149 1.970 . S
Li88 O150 1.961 . S
Li89 N113 1.990 . S
Li89 O148 1.970 . S
Li89 O149 1.956 . S
Li89 O151 1.961 . S
Li90 N135 1.990 . S
Li90 O148 1.961 . S
Li90 O150 1.956 . S
Li90 O151 1.970 . S
Li91 N141 1.990 . S
Li91 O149 1.961 . S
Li91 O150 1.970 . S
Li91 O151 1.956 . S
C92 C94 1.348 . S
C92 C95 1.356 . S
C92 O148 1.325 . S
N93 C96 1.314 . S
N93 C97 1.279 . S
C94 C92 1.348 . S
C94 C96 1.353 . S
C94 H152 0.929 . S
C95 C92 1.356 . S
C95 C97 1.358 . S
C95 H153 0.930 . S
C96 N93 1.314 . S
C96 C94 1.353 . S
C96 H154 0.930 . S
C97 N93 1.279 . S
C97 C95 1.358 . S
C97 H155 0.930 . S
C98 C101 1.348 . S
C98 C102 1.356 . S
C98 O149 1.325 . S
C99 N100 1.279 . S
C99 C102 1.358 . S
C99 H156 0.930 . S
N100 C99 1.279 . S
N100 C103 1.314 . S
C101 C98 1.348 . S
C101 C103 1.353 . S
C101 H157 0.929 . S
C102 C98 1.356 . S
C102 C99 1.358 . S
C102 H158 0.930 . S
C103 N100 1.314 . S
C103 C101 1.353 . S
C103 H159 0.930 . S
C104 N105 1.314 . S
C104 C109 1.353 . S
C104 H110 0.930 . S
N105 Li88 1.990 . S
N105 C104 1.314 . S
N105 C107 1.279 . S
C106 C107 1.358 . S
C106 C108 1.356 . S
C106 H160 0.930 . S
C107 N105 1.279 . S
C107 C106 1.358 . S
C107 H111 0.930 . S
C108 C106 1.356 . S
C108 C109 1.348 . S
C109 C104 1.353 . S
C109 C108 1.348 . S
C109 H161 0.929 . S
H110 C104 0.930 . S
H111 C107 0.930 . S
C112 N113 1.314 . S
C112 C114 1.353 . S
C112 H118 0.930 . S
N113 Li89 1.990 . S
N113 C112 1.314 . S
N113 C116 1.279 . S
C114 C112 1.353 . S
C114 C117 1.348 . S
C114 H162 0.929 . S
C115 C116 1.358 . S
C115 C117 1.356 . S
C115 H163 0.930 . S
C116 N113 1.279 . S
C116 C115 1.358 . S
C116 H119 0.930 . S
C117 C114 1.348 . S
C117 C115 1.356 . S
H118 C112 0.930 . S
H119 C116 0.930 . S
C120 C122 1.348 . S
C120 C123 1.356 . S
C120 O150 1.325 . S
N121 C124 1.314 . S
N121 C125 1.279 . S
C122 C120 1.348 . S
C122 C124 1.353 . S
C122 H164 0.929 . S
C123 C120 1.356 . S
C123 C125 1.358 . S
C123 H165 0.930 . S
C124 N121 1.314 . S
C124 C122 1.353 . S
C124 H166 0.930 . S
C125 N121 1.279 . S
C125 C123 1.358 . S
C125 H167 0.930 . S
C126 C127 1.348 . S
C126 C128 1.356 . S
C126 O151 1.325 . S
C127 C126 1.348 . S
C127 C129 1.353 . S
C127 H168 0.929 . S
C128 C126 1.356 . S
C128 C130 1.358 . S
C128 H169 0.930 . S
C129 C127 1.353 . S
C129 N131 1.314 . S
C129 H170 0.930 . S
C130 C128 1.358 . S
C130 N131 1.279 . S
C130 H171 0.930 . S
N131 C129 1.314 . S
N131 C130 1.279 . S
C132 C134 1.353 . S
C132 N135 1.314 . S
C132 H138 0.930 . S
C133 N135 1.279 . S
C133 C136 1.358 . S
C133 H139 0.930 . S
C134 C132 1.353 . S
C134 C137 1.348 . S
C134 H172 0.929 . S
N135 Li90 1.990 . S
N135 C132 1.314 . S
N135 C133 1.279 . S
C136 C133 1.358 . S
C136 C137 1.356 . S
C136 H173 0.930 . S
C137 C134 1.348 . S
C137 C136 1.356 . S
H138 C132 0.930 . S
H139 C133 0.930 . S
C140 N141 1.314 . S
C140 C142 1.353 . S
C140 H146 0.930 . S
N141 Li91 1.990 . S
N141 C140 1.314 . S
N141 C144 1.279 . S
C142 C140 1.353 . S
C142 C145 1.348 . S
C142 H174 0.929 . S
C143 C144 1.358 . S
C143 C145 1.356 . S
C143 H175 0.930 . S
C144 N141 1.279 . S
C144 C143 1.358 . S
C144 H147 0.930 . S
C145 C142 1.348 . S
C145 C143 1.356 . S
H146 C140 0.930 . S
H147 C144 0.930 . S
O148 Li88 1.956 . S
O148 Li89 1.970 . S
O148 Li90 1.961 . S
O148 C92 1.325 . S
O149 Li88 1.970 . S
O149 Li89 1.956 . S
O149 Li91 1.961 . S
O149 C98 1.325 . S
O150 Li88 1.961 . S
O150 Li90 1.956 . S
O150 Li91 1.970 . S
O150 C120 1.325 . S
O151 Li89 1.961 . S
O151 Li90 1.970 . S
O151 Li91 1.956 . S
O151 C126 1.325 . S
H152 C94 0.929 . S
H153 C95 0.930 . S
H154 C96 0.930 . S
H155 C97 0.930 . S
H156 C99 0.930 . S
H157 C101 0.929 . S
H158 C102 0.930 . S
H159 C103 0.930 . S
H160 C106 0.930 . S
H161 C109 0.929 . S
H162 C114 0.929 . S
H163 C115 0.930 . S
H164 C122 0.929 . S
H165 C123 0.930 . S
H166 C124 0.930 . S
H167 C125 0.930 . S
H168 C127 0.929 . S
H169 C128 0.930 . S
H170 C129 0.930 . S
H171 C130 0.930 . S
H172 C134 0.929 . S
H173 C136 0.930 . S
H174 C142 0.929 . S
H175 C143 0.930 . S
Li176 N193 1.990 . S
Li176 O236 1.956 . S
Li176 O237 1.970 . S
Li176 O238 1.961 . S
Li177 N201 1.990 1_556 S
Li177 O236 1.970 . S
Li177 O237 1.956 . S
Li177 O239 1.961 . S
Li178 N223 1.990 . S
Li178 O236 1.961 . S
Li178 O238 1.956 . S
Li178 O239 1.970 . S
Li179 N229 1.990 . S
Li179 O237 1.961 . S
Li179 O238 1.970 . S
Li179 O239 1.956 . S
C180 C182 1.348 . S
C180 C183 1.356 . S
C180 O236 1.325 . S
N181 C184 1.314 . S
N181 C185 1.279 . S
C182 C180 1.348 . S
C182 C184 1.353 . S
C182 H240 0.929 . S
C183 C180 1.356 . S
C183 C185 1.358 . S
C183 H241 0.930 . S
C184 N181 1.314 . S
C184 C182 1.353 . S
C184 H242 0.930 . S
C185 N181 1.279 . S
C185 C183 1.358 . S
C185 H243 0.930 . S
C186 C189 1.348 . S
C186 C190 1.356 . S
C186 O237 1.325 1_554 S
C187 N188 1.279 . S
C187 C190 1.358 . S
C187 H244 0.930 . S
N188 C187 1.279 . S
N188 C191 1.314 . S
C189 C186 1.348 . S
C189 C191 1.353 . S
C189 H245 0.929 . S
C190 C186 1.356 . S
C190 C187 1.358 . S
C190 H246 0.930 . S
C191 N188 1.314 . S
C191 C189 1.353 . S
C191 H247 0.930 . S
C192 N193 1.314 . S
C192 C197 1.353 . S
C192 H198 0.930 . S
N193 Li176 1.990 . S
N193 C192 1.314 . S
N193 C195 1.279 . S
C194 C195 1.358 . S
C194 C196 1.356 . S
C194 H248 0.930 . S
C195 N193 1.279 . S
C195 C194 1.358 . S
C195 H199 0.930 . S
C196 C194 1.356 . S
C196 C197 1.348 . S
C197 C192 1.353 . S
C197 C196 1.348 . S
C197 H249 0.929 . S
H198 C192 0.930 . S
H199 C195 0.930 . S
C200 N201 1.314 . S
C200 C202 1.353 . S
C200 H206 0.930 1_554 S
N201 Li177 1.990 1_554 S
N201 C200 1.314 . S
N201 C204 1.279 . S
C202 C200 1.353 . S
C202 C205 1.348 . S
C202 H250 0.929 . S
C203 C204 1.358 . S
C203 C205 1.356 . S
C203 H251 0.930 . S
C204 N201 1.279 . S
C204 C203 1.358 . S
C204 H207 0.930 . S
C205 C202 1.348 . S
C205 C203 1.356 . S
H206 C200 0.930 1_556 S
H207 C204 0.930 . S
C208 C210 1.348 . S
C208 C211 1.356 . S
C208 O238 1.325 . S
N209 C212 1.314 . S
N209 C213 1.279 . S
C210 C208 1.348 . S
C210 C212 1.353 . S
C210 H252 0.929 . S
C211 C208 1.356 . S
C211 C213 1.358 . S
C211 H253 0.930 . S
C212 N209 1.314 . S
C212 C210 1.353 . S
C212 H254 0.930 . S
C213 N209 1.279 . S
C213 C211 1.358 . S
C213 H255 0.930 . S
C214 C215 1.348 . S
C214 C216 1.356 . S
C214 O239 1.325 . S
C215 C214 1.348 . S
C215 C217 1.353 . S
C215 H256 0.929 . S
C216 C214 1.356 . S
C216 C218 1.358 . S
C216 H257 0.930 . S
C217 C215 1.353 . S
C217 N219 1.314 . S
C217 H258 0.930 . S
C218 C216 1.358 . S
C218 N219 1.279 . S
C218 H259 0.930 . S
N219 C217 1.314 . S
N219 C218 1.279 . S
C220 C222 1.353 . S
C220 N223 1.314 . S
C220 H226 0.930 . S
C221 N223 1.279 . S
C221 C224 1.358 . S
C221 H227 0.930 . S
C222 C220 1.353 . S
C222 C225 1.348 . S
C222 H260 0.929 . S
N223 Li178 1.990 . S
N223 C220 1.314 . S
N223 C221 1.279 . S
C224 C221 1.358 . S
C224 C225 1.356 . S
C224 H261 0.930 . S
C225 C222 1.348 . S
C225 C224 1.356 . S
H226 C220 0.930 . S
H227 C221 0.930 . S
C228 N229 1.314 . S
C228 C230 1.353 . S
C228 H234 0.930 . S
N229 Li179 1.990 . S
N229 C228 1.314 . S
N229 C232 1.279 . S
C230 C228 1.353 . S
C230 C233 1.348 . S
C230 H262 0.929 . S
C231 C232 1.358 . S
C231 C233 1.356 . S
C231 H263 0.930 . S
C232 N229 1.279 . S
C232 C231 1.358 . S
C232 H235 0.930 . S
C233 C230 1.348 . S
C233 C231 1.356 . S
H234 C228 0.930 . S
H235 C232 0.930 . S
O236 Li176 1.956 . S
O236 Li177 1.970 . S
O236 Li178 1.961 . S
O236 C180 1.325 . S
O237 Li176 1.970 . S
O237 Li177 1.956 . S
O237 Li179 1.961 . S
O237 C186 1.325 1_556 S
O238 Li176 1.961 . S
O238 Li178 1.956 . S
O238 Li179 1.970 . S
O238 C208 1.325 . S
O239 Li177 1.961 . S
O239 Li178 1.970 . S
O239 Li179 1.956 . S
O239 C214 1.325 . S
H240 C182 0.929 . S
H241 C183 0.930 . S
H242 C184 0.930 . S
H243 C185 0.930 . S
H244 C187 0.930 . S
H245 C189 0.929 . S
H246 C190 0.930 . S
H247 C191 0.930 . S
H248 C194 0.930 . S
H249 C197 0.929 . S
H250 C202 0.929 . S
H251 C203 0.930 . S
H252 C210 0.929 . S
H253 C211 0.930 . S
H254 C212 0.930 . S
H255 C213 0.930 . S
H256 C215 0.929 . S
H257 C216 0.930 . S
H258 C217 0.930 . S
H259 C218 0.930 . S
H260 C222 0.929 . S
H261 C224 0.930 . S
H262 C230 0.929 . S
H263 C231 0.930 . S
Li264 N281 1.990 . S
Li264 O324 1.956 . S
Li264 O325 1.970 . S
Li264 O326 1.961 . S
Li265 N289 1.990 . S
Li265 O324 1.970 . S
Li265 O325 1.956 . S
Li265 O327 1.961 . S
Li266 N311 1.990 . S
Li266 O324 1.961 . S
Li266 O326 1.956 . S
Li266 O327 1.970 . S
Li267 N317 1.990 . S
Li267 O325 1.961 . S
Li267 O326 1.970 . S
Li267 O327 1.956 . S
C268 C270 1.348 . S
C268 C271 1.356 . S
C268 O324 1.325 . S
N269 C272 1.314 . S
N269 C273 1.279 . S
C270 C268 1.348 . S
C270 C272 1.353 . S
C270 H328 0.929 . S
C271 C268 1.356 . S
C271 C273 1.358 . S
C271 H329 0.930 . S
C272 N269 1.314 . S
C272 C270 1.353 . S
C272 H330 0.930 . S
C273 N269 1.279 . S
C273 C271 1.358 . S
C273 H331 0.930 . S
C274 C277 1.348 . S
C274 C278 1.356 . S
C274 O325 1.325 . S
C275 N276 1.279 . S
C275 C278 1.358 . S
C275 H332 0.930 . S
N276 C275 1.279 . S
N276 C279 1.314 . S
C277 C274 1.348 . S
C277 C279 1.353 . S
C277 H333 0.929 . S
C278 C274 1.356 . S
C278 C275 1.358 . S
C278 H334 0.930 . S
C279 N276 1.314 . S
C279 C277 1.353 . S
C279 H335 0.930 . S
C280 N281 1.314 . S
C280 C285 1.353 . S
C280 H286 0.930 . S
N281 Li264 1.990 . S
N281 C280 1.314 . S
N281 C283 1.279 . S
C282 C283 1.358 . S
C282 C284 1.356 . S
C282 H336 0.930 . S
C283 N281 1.279 . S
C283 C282 1.358 . S
C283 H287 0.930 . S
C284 C282 1.356 . S
C284 C285 1.348 . S
C285 C280 1.353 . S
C285 C284 1.348 . S
C285 H337 0.929 . S
H286 C280 0.930 . S
H287 C283 0.930 . S
C288 N289 1.314 . S
C288 C290 1.353 . S
C288 H294 0.930 . S
N289 Li265 1.990 . S
N289 C288 1.314 . S
N289 C292 1.279 . S
C290 C288 1.353 . S
C290 C293 1.348 . S
C290 H338 0.929 . S
C291 C292 1.358 . S
C291 C293 1.356 . S
C291 H339 0.930 . S
C292 N289 1.279 . S
C292 C291 1.358 . S
C292 H295 0.930 . S
C293 C290 1.348 . S
C293 C291 1.356 . S
H294 C288 0.930 . S
H295 C292 0.930 . S
C296 C298 1.348 . S
C296 C299 1.356 . S
C296 O326 1.325 . S
N297 C300 1.314 . S
N297 C301 1.279 . S
C298 C296 1.348 . S
C298 C300 1.353 . S
C298 H340 0.929 . S
C299 C296 1.356 . S
C299 C301 1.358 . S
C299 H341 0.930 . S
C300 N297 1.314 . S
C300 C298 1.353 . S
C300 H342 0.930 . S
C301 N297 1.279 . S
C301 C299 1.358 . S
C301 H343 0.930 . S
C302 C303 1.348 . S
C302 C304 1.356 . S
C302 O327 1.325 . S
C303 C302 1.348 . S
C303 C305 1.353 . S
C303 H344 0.929 . S
C304 C302 1.356 . S
C304 C306 1.358 . S
C304 H345 0.930 . S
C305 C303 1.353 . S
C305 N307 1.314 . S
C305 H346 0.930 . S
C306 C304 1.358 . S
C306 N307 1.279 . S
C306 H347 0.930 . S
N307 C305 1.314 . S
N307 C306 1.279 . S
C308 C310 1.353 . S
C308 N311 1.314 . S
C308 H314 0.930 . S
C309 N311 1.279 . S
C309 C312 1.358 . S
C309 H315 0.930 . S
C310 C308 1.353 . S
C310 C313 1.348 . S
C310 H348 0.929 . S
N311 Li266 1.990 . S
N311 C308 1.314 . S
N311 C309 1.279 . S
C312 C309 1.358 . S
C312 C313 1.356 . S
C312 H349 0.930 . S
C313 C310 1.348 . S
C313 C312 1.356 . S
H314 C308 0.930 . S
H315 C309 0.930 . S
C316 N317 1.314 . S
C316 C318 1.353 . S
C316 H322 0.930 . S
N317 Li267 1.990 . S
N317 C316 1.314 . S
N317 C320 1.279 . S
C318 C316 1.353 . S
C318 C321 1.348 . S
C318 H350 0.929 . S
C319 C320 1.358 . S
C319 C321 1.356 . S
C319 H351 0.930 . S
C320 N317 1.279 . S
C320 C319 1.358 . S
C320 H323 0.930 . S
C321 C318 1.348 . S
C321 C319 1.356 . S
H322 C316 0.930 . S
H323 C320 0.930 . S
O324 Li264 1.956 . S
O324 Li265 1.970 . S
O324 Li266 1.961 . S
O324 C268 1.325 . S
O325 Li264 1.970 . S
O325 Li265 1.956 . S
O325 Li267 1.961 . S
O325 C274 1.325 . S
O326 Li264 1.961 . S
O326 Li266 1.956 . S
O326 Li267 1.970 . S
O326 C296 1.325 . S
O327 Li265 1.961 . S
O327 Li266 1.970 . S
O327 Li267 1.956 . S
O327 C302 1.325 . S
H328 C270 0.929 . S
H329 C271 0.930 . S
H330 C272 0.930 . S
H331 C273 0.930 . S
H332 C275 0.930 . S
H333 C277 0.929 . S
H334 C278 0.930 . S
H335 C279 0.930 . S
H336 C282 0.930 . S
H337 C285 0.929 . S
H338 C290 0.929 . S
H339 C291 0.930 . S
H340 C298 0.929 . S
H341 C299 0.930 . S
H342 C300 0.930 . S
H343 C301 0.930 . S
H344 C303 0.929 . S
H345 C304 0.930 . S
H346 C305 0.930 . S
H347 C306 0.930 . S
H348 C310 0.929 . S
H349 C312 0.930 . S
H350 C318 0.929 . S
H351 C319 0.930 . S
Li352 N369 1.990 . S
Li352 O412 1.956 . S
Li352 O413 1.970 . S
Li352 O414 1.961 . S
Li353 N377 1.990 . S
Li353 O412 1.970 . S
Li353 O413 1.956 . S
Li353 O415 1.961 . S
Li354 N399 1.990 . S
Li354 O412 1.961 . S
Li354 O414 1.956 . S
Li354 O415 1.970 . S
Li355 N405 1.990 . S
Li355 O413 1.961 . S
Li355 O414 1.970 . S
Li355 O415 1.956 . S
C356 C358 1.348 . S
C356 C359 1.356 . S
C356 O412 1.325 . S
N357 C360 1.314 . S
N357 C361 1.279 . S
C358 C356 1.348 . S
C358 C360 1.353 . S
C358 H416 0.929 . S
C359 C356 1.356 . S
C359 C361 1.358 . S
C359 H417 0.930 . S
C360 N357 1.314 . S
C360 C358 1.353 . S
C360 H418 0.930 . S
C361 N357 1.279 . S
C361 C359 1.358 . S
C361 H419 0.930 . S
C362 C365 1.348 . S
C362 C366 1.356 . S
C362 O413 1.325 . S
C363 N364 1.279 . S
C363 C366 1.358 . S
C363 H420 0.930 . S
N364 C363 1.279 . S
N364 C367 1.314 . S
C365 C362 1.348 . S
C365 C367 1.353 . S
C365 H421 0.929 . S
C366 C362 1.356 . S
C366 C363 1.358 . S
C366 H422 0.930 . S
C367 N364 1.314 . S
C367 C365 1.353 . S
C367 H423 0.930 . S
C368 N369 1.314 . S
C368 C373 1.353 . S
C368 H374 0.930 . S
N369 Li352 1.990 . S
N369 C368 1.314 . S
N369 C371 1.279 . S
C370 C371 1.358 . S
C370 C372 1.356 . S
C370 H424 0.930 . S
C371 N369 1.279 . S
C371 C370 1.358 . S
C371 H375 0.930 . S
C372 C370 1.356 . S
C372 C373 1.348 . S
C373 C368 1.353 . S
C373 C372 1.348 . S
C373 H425 0.929 . S
H374 C368 0.930 . S
H375 C371 0.930 . S
C376 N377 1.314 . S
C376 C378 1.353 . S
C376 H382 0.930 . S
N377 Li353 1.990 . S
N377 C376 1.314 . S
N377 C380 1.279 . S
C378 C376 1.353 . S
C378 C381 1.348 . S
C378 H426 0.929 . S
C379 C380 1.358 . S
C379 C381 1.356 . S
C379 H427 0.930 . S
C380 N377 1.279 . S
C380 C379 1.358 . S
C380 H383 0.930 . S
C381 C378 1.348 . S
C381 C379 1.356 . S
H382 C376 0.930 . S
H383 C380 0.930 . S
C384 C386 1.348 . S
C384 C387 1.356 . S
C384 O414 1.325 . S
N385 C388 1.314 . S
N385 C389 1.279 . S
C386 C384 1.348 . S
C386 C388 1.353 . S
C386 H428 0.929 . S
C387 C384 1.356 . S
C387 C389 1.358 . S
C387 H429 0.930 . S
C388 N385 1.314 . S
C388 C386 1.353 . S
C388 H430 0.930 . S
C389 N385 1.279 . S
C389 C387 1.358 . S
C389 H431 0.930 . S
C390 C391 1.348 . S
C390 C392 1.356 . S
C390 O415 1.325 . S
C391 C390 1.348 . S
C391 C393 1.353 . S
C391 H432 0.929 . S
C392 C390 1.356 . S
C392 C394 1.358 . S
C392 H433 0.930 . S
C393 C391 1.353 . S
C393 N395 1.314 . S
C393 H434 0.930 . S
C394 C392 1.358 . S
C394 N395 1.279 . S
C394 H435 0.930 . S
N395 C393 1.314 . S
N395 C394 1.279 . S
C396 C398 1.353 . S
C396 N399 1.314 . S
C396 H402 0.930 . S
C397 N399 1.279 . S
C397 C400 1.358 . S
C397 H403 0.930 . S
C398 C396 1.353 . S
C398 C401 1.348 . S
C398 H436 0.929 . S
N399 Li354 1.990 . S
N399 C396 1.314 . S
N399 C397 1.279 . S
C400 C397 1.358 . S
C400 C401 1.356 . S
C400 H437 0.930 . S
C401 C398 1.348 . S
C401 C400 1.356 . S
H402 C396 0.930 . S
H403 C397 0.930 . S
C404 N405 1.314 . S
C404 C406 1.353 . S
C404 H410 0.930 . S
N405 Li355 1.990 . S
N405 C404 1.314 . S
N405 C408 1.279 . S
C406 C404 1.353 . S
C406 C409 1.348 . S
C406 H438 0.929 . S
C407 C408 1.358 . S
C407 C409 1.356 . S
C407 H439 0.930 . S
C408 N405 1.279 . S
C408 C407 1.358 . S
C408 H411 0.930 . S
C409 C406 1.348 . S
C409 C407 1.356 . S
H410 C404 0.930 . S
H411 C408 0.930 . S
O412 Li352 1.956 . S
O412 Li353 1.970 . S
O412 Li354 1.961 . S
O412 C356 1.325 . S
O413 Li352 1.970 . S
O413 Li353 1.956 . S
O413 Li355 1.961 . S
O413 C362 1.325 . S
O414 Li352 1.961 . S
O414 Li354 1.956 . S
O414 Li355 1.970 . S
O414 C384 1.325 . S
O415 Li353 1.961 . S
O415 Li354 1.970 . S
O415 Li355 1.956 . S
O415 C390 1.325 . S
H416 C358 0.929 . S
H417 C359 0.930 . S
H418 C360 0.930 . S
H419 C361 0.930 . S
H420 C363 0.930 . S
H421 C365 0.929 . S
H422 C366 0.930 . S
H423 C367 0.930 . S
H424 C370 0.930 . S
H425 C373 0.929 . S
H426 C378 0.929 . S
H427 C379 0.930 . S
H428 C386 0.929 . S
H429 C387 0.930 . S
H430 C388 0.930 . S
H431 C389 0.930 . S
H432 C391 0.929 . S
H433 C392 0.930 . S
H434 C393 0.930 . S
H435 C394 0.930 . S
H436 C398 0.929 . S
H437 C400 0.930 . S
H438 C406 0.929 . S
H439 C407 0.930 . S
Li440 N457 1.990 1_556 S
Li440 O500 1.956 . S
Li440 O501 1.970 . S
Li440 O502 1.961 . S
Li441 N465 1.990 . S
Li441 O500 1.970 . S
Li441 O501 1.956 . S
Li441 O503 1.961 . S
Li442 N487 1.990 . S
Li442 O500 1.961 . S
Li442 O502 1.956 . S
Li442 O503 1.970 . S
Li443 N493 1.990 . S
Li443 O501 1.961 . S
Li443 O502 1.970 . S
Li443 O503 1.956 . S
C444 C446 1.348 . S
C444 C447 1.356 . S
C444 O500 1.325 1_554 S
N445 C448 1.314 . S
N445 C449 1.279 . S
C446 C444 1.348 . S
C446 C448 1.353 . S
C446 H504 0.929 . S
C447 C444 1.356 . S
C447 C449 1.358 . S
C447 H505 0.930 . S
C448 N445 1.314 . S
C448 C446 1.353 . S
C448 H506 0.930 . S
C449 N445 1.279 . S
C449 C447 1.358 . S
C449 H507 0.930 . S
C450 C453 1.348 . S
C450 C454 1.356 . S
C450 O501 1.325 . S
C451 N452 1.279 . S
C451 C454 1.358 . S
C451 H508 0.930 . S
N452 C451 1.279 . S
N452 C455 1.314 . S
C453 C450 1.348 . S
C453 C455 1.353 . S
C453 H509 0.929 . S
C454 C450 1.356 . S
C454 C451 1.358 . S
C454 H510 0.930 . S
C455 N452 1.314 . S
C455 C453 1.353 . S
C455 H511 0.930 . S
C456 N457 1.314 . S
C456 C461 1.353 . S
C456 H462 0.930 1_554 S
N457 Li440 1.990 1_554 S
N457 C456 1.314 . S
N457 C459 1.279 . S
C458 C459 1.358 . S
C458 C460 1.356 . S
C458 H512 0.930 . S
C459 N457 1.279 . S
C459 C458 1.358 . S
C459 H463 0.930 . S
C460 C458 1.356 . S
C460 C461 1.348 . S
C461 C456 1.353 . S
C461 C460 1.348 . S
C461 H513 0.929 . S
H462 C456 0.930 1_556 S
H463 C459 0.930 . S
C464 N465 1.314 . S
C464 C466 1.353 . S
C464 H470 0.930 . S
N465 Li441 1.990 . S
N465 C464 1.314 . S
N465 C468 1.279 . S
C466 C464 1.353 . S
C466 C469 1.348 . S
C466 H514 0.929 . S
C467 C468 1.358 . S
C467 C469 1.356 . S
C467 H515 0.930 . S
C468 N465 1.279 . S
C468 C467 1.358 . S
C468 H471 0.930 . S
C469 C466 1.348 . S
C469 C467 1.356 . S
H470 C464 0.930 . S
H471 C468 0.930 . S
C472 C474 1.348 . S
C472 C475 1.356 . S
C472 O502 1.325 . S
N473 C476 1.314 . S
N473 C477 1.279 . S
C474 C472 1.348 . S
C474 C476 1.353 . S
C474 H516 0.929 . S
C475 C472 1.356 . S
C475 C477 1.358 . S
C475 H517 0.930 . S
C476 N473 1.314 . S
C476 C474 1.353 . S
C476 H518 0.930 . S
C477 N473 1.279 . S
C477 C475 1.358 . S
C477 H519 0.930 . S
C478 C479 1.348 . S
C478 C480 1.356 . S
C478 O503 1.325 . S
C479 C478 1.348 . S
C479 C481 1.353 . S
C479 H520 0.929 . S
C480 C478 1.356 . S
C480 C482 1.358 . S
C480 H521 0.930 . S
C481 C479 1.353 . S
C481 N483 1.314 . S
C481 H522 0.930 . S
C482 C480 1.358 . S
C482 N483 1.279 . S
C482 H523 0.930 . S
N483 C481 1.314 . S
N483 C482 1.279 . S
C484 C486 1.353 . S
C484 N487 1.314 . S
C484 H490 0.930 . S
C485 N487 1.279 . S
C485 C488 1.358 . S
C485 H491 0.930 . S
C486 C484 1.353 . S
C486 C489 1.348 . S
C486 H524 0.929 . S
N487 Li442 1.990 . S
N487 C484 1.314 . S
N487 C485 1.279 . S
C488 C485 1.358 . S
C488 C489 1.356 . S
C488 H525 0.930 . S
C489 C486 1.348 . S
C489 C488 1.356 . S
H490 C484 0.930 . S
H491 C485 0.930 . S
C492 N493 1.314 . S
C492 C494 1.353 . S
C492 H498 0.930 . S
N493 Li443 1.990 . S
N493 C492 1.314 . S
N493 C496 1.279 . S
C494 C492 1.353 . S
C494 C497 1.348 . S
C494 H526 0.929 . S
C495 C496 1.358 . S
C495 C497 1.356 . S
C495 H527 0.930 . S
C496 N493 1.279 . S
C496 C495 1.358 . S
C496 H499 0.930 . S
C497 C494 1.348 . S
C497 C495 1.356 . S
H498 C492 0.930 . S
H499 C496 0.930 . S
O500 Li440 1.956 . S
O500 Li441 1.970 . S
O500 Li442 1.961 . S
O500 C444 1.325 1_556 S
O501 Li440 1.970 . S
O501 Li441 1.956 . S
O501 Li443 1.961 . S
O501 C450 1.325 . S
O502 Li440 1.961 . S
O502 Li442 1.956 . S
O502 Li443 1.970 . S
O502 C472 1.325 . S
O503 Li441 1.961 . S
O503 Li442 1.970 . S
O503 Li443 1.956 . S
O503 C478 1.325 . S
H504 C446 0.929 . S
H505 C447 0.930 . S
H506 C448 0.930 . S
H507 C449 0.930 . S
H508 C451 0.930 . S
H509 C453 0.929 . S
H510 C454 0.930 . S
H511 C455 0.930 . S
H512 C458 0.930 . S
H513 C461 0.929 . S
H514 C466 0.929 . S
H515 C467 0.930 . S
H516 C474 0.929 . S
H517 C475 0.930 . S
H518 C476 0.930 . S
H519 C477 0.930 . S
H520 C479 0.929 . S
H521 C480 0.930 . S
H522 C481 0.930 . S
H523 C482 0.930 . S
H524 C486 0.929 . S
H525 C488 0.930 . S
H526 C494 0.929 . S
H527 C495 0.930 . S
Li528 N545 1.990 . S
Li528 O588 1.956 . S
Li528 O589 1.970 . S
Li528 O590 1.961 . S
Li529 N553 1.990 . S
Li529 O588 1.970 . S
Li529 O589 1.956 . S
Li529 O591 1.961 . S
Li530 N575 1.990 . S
Li530 O588 1.961 . S
Li530 O590 1.956 . S
Li530 O591 1.970 . S
Li531 N581 1.990 . S
Li531 O589 1.961 . S
Li531 O590 1.970 . S
Li531 O591 1.956 . S
C532 C534 1.348 . S
C532 C535 1.356 . S
C532 O588 1.325 . S
N533 C536 1.314 . S
N533 C537 1.279 . S
C534 C532 1.348 . S
C534 C536 1.353 . S
C534 H592 0.929 . S
C535 C532 1.356 . S
C535 C537 1.358 . S
C535 H593 0.930 . S
C536 N533 1.314 . S
C536 C534 1.353 . S
C536 H594 0.930 . S
C537 N533 1.279 . S
C537 C535 1.358 . S
C537 H595 0.930 . S
C538 C541 1.348 . S
C538 C542 1.356 . S
C538 O589 1.325 . S
C539 N540 1.279 . S
C539 C542 1.358 . S
C539 H596 0.930 . S
N540 C539 1.279 . S
N540 C543 1.314 . S
C541 C538 1.348 . S
C541 C543 1.353 . S
C541 H597 0.929 . S
C542 C538 1.356 . S
C542 C539 1.358 . S
C542 H598 0.930 . S
C543 N540 1.314 . S
C543 C541 1.353 . S
C543 H599 0.930 . S
C544 N545 1.314 . S
C544 C549 1.353 . S
C544 H550 0.930 . S
N545 Li528 1.990 . S
N545 C544 1.314 . S
N545 C547 1.279 . S
C546 C547 1.358 . S
C546 C548 1.356 . S
C546 H600 0.930 . S
C547 N545 1.279 . S
C547 C546 1.358 . S
C547 H551 0.930 . S
C548 C546 1.356 . S
C548 C549 1.348 . S
C549 C544 1.353 . S
C549 C548 1.348 . S
C549 H601 0.929 . S
H550 C544 0.930 . S
H551 C547 0.930 . S
C552 N553 1.314 . S
C552 C554 1.353 . S
C552 H558 0.930 . S
N553 Li529 1.990 . S
N553 C552 1.314 . S
N553 C556 1.279 . S
C554 C552 1.353 . S
C554 C557 1.348 . S
C554 H602 0.929 . S
C555 C556 1.358 . S
C555 C557 1.356 . S
C555 H603 0.930 . S
C556 N553 1.279 . S
C556 C555 1.358 . S
C556 H559 0.930 . S
C557 C554 1.348 . S
C557 C555 1.356 . S
H558 C552 0.930 . S
H559 C556 0.930 . S
C560 C562 1.348 . S
C560 C563 1.356 . S
C560 O590 1.325 . S
N561 C564 1.314 . S
N561 C565 1.279 . S
C562 C560 1.348 . S
C562 C564 1.353 . S
C562 H604 0.929 . S
C563 C560 1.356 . S
C563 C565 1.358 . S
C563 H605 0.930 . S
C564 N561 1.314 . S
C564 C562 1.353 . S
C564 H606 0.930 . S
C565 N561 1.279 . S
C565 C563 1.358 . S
C565 H607 0.930 . S
C566 C567 1.348 . S
C566 C568 1.356 . S
C566 O591 1.325 . S
C567 C566 1.348 . S
C567 C569 1.353 . S
C567 H608 0.929 . S
C568 C566 1.356 . S
C568 C570 1.358 . S
C568 H609 0.930 . S
C569 C567 1.353 . S
C569 N571 1.314 . S
C569 H610 0.930 . S
C570 C568 1.358 . S
C570 N571 1.279 . S
C570 H611 0.930 . S
N571 C569 1.314 . S
N571 C570 1.279 . S
C572 C574 1.353 . S
C572 N575 1.314 . S
C572 H578 0.930 . S
C573 N575 1.279 . S
C573 C576 1.358 . S
C573 H579 0.930 . S
C574 C572 1.353 . S
C574 C577 1.348 . S
C574 H612 0.929 . S
N575 Li530 1.990 . S
N575 C572 1.314 . S
N575 C573 1.279 . S
C576 C573 1.358 . S
C576 C577 1.356 . S
C576 H613 0.930 . S
C577 C574 1.348 . S
C577 C576 1.356 . S
H578 C572 0.930 . S
H579 C573 0.930 . S
C580 N581 1.314 . S
C580 C582 1.353 . S
C580 H586 0.930 . S
N581 Li531 1.990 . S
N581 C580 1.314 . S
N581 C584 1.279 . S
C582 C580 1.353 . S
C582 C585 1.348 . S
C582 H614 0.929 . S
C583 C584 1.358 . S
C583 C585 1.356 . S
C583 H615 0.930 . S
C584 N581 1.279 . S
C584 C583 1.358 . S
C584 H587 0.930 . S
C585 C582 1.348 . S
C585 C583 1.356 . S
H586 C580 0.930 . S
H587 C584 0.930 . S
O588 Li528 1.956 . S
O588 Li529 1.970 . S
O588 Li530 1.961 . S
O588 C532 1.325 . S
O589 Li528 1.970 . S
O589 Li529 1.956 . S
O589 Li531 1.961 . S
O589 C538 1.325 . S
O590 Li528 1.961 . S
O590 Li530 1.956 . S
O590 Li531 1.970 . S
O590 C560 1.325 . S
O591 Li529 1.961 . S
O591 Li530 1.970 . S
O591 Li531 1.956 . S
O591 C566 1.325 . S
H592 C534 0.929 . S
H593 C535 0.930 . S
H594 C536 0.930 . S
H595 C537 0.930 . S
H596 C539 0.930 . S
H597 C541 0.929 . S
H598 C542 0.930 . S
H599 C543 0.930 . S
H600 C546 0.930 . S
H601 C549 0.929 . S
H602 C554 0.929 . S
H603 C555 0.930 . S
H604 C562 0.929 . S
H605 C563 0.930 . S
H606 C564 0.930 . S
H607 C565 0.930 . S
H608 C567 0.929 . S
H609 C568 0.930 . S
H610 C569 0.930 . S
H611 C570 0.930 . S
H612 C574 0.929 . S
H613 C576 0.930 . S
H614 C582 0.929 . S
H615 C583 0.930 . S
Li616 N633 1.990 . S
Li616 O676 1.956 . S
Li616 O677 1.970 . S
Li616 O678 1.961 . S
Li617 N641 1.990 . S
Li617 O676 1.970 . S
Li617 O677 1.956 . S
Li617 O679 1.961 . S
Li618 N663 1.990 . S
Li618 O676 1.961 . S
Li618 O678 1.956 . S
Li618 O679 1.970 . S
Li619 N669 1.990 . S
Li619 O677 1.961 . S
Li619 O678 1.970 . S
Li619 O679 1.956 . S
C620 C622 1.348 . S
C620 C623 1.356 . S
C620 O676 1.325 . S
N621 C624 1.314 . S
N621 C625 1.279 . S
C622 C620 1.348 . S
C622 C624 1.353 . S
C622 H680 0.929 . S
C623 C620 1.356 . S
C623 C625 1.358 . S
C623 H681 0.930 . S
C624 N621 1.314 . S
C624 C622 1.353 . S
C624 H682 0.930 . S
C625 N621 1.279 . S
C625 C623 1.358 . S
C625 H683 0.930 . S
C626 C629 1.348 . S
C626 C630 1.356 . S
C626 O677 1.325 . S
C627 N628 1.279 . S
C627 C630 1.358 . S
C627 H684 0.930 . S
N628 C627 1.279 . S
N628 C631 1.314 . S
C629 C626 1.348 . S
C629 C631 1.353 . S
C629 H685 0.929 . S
C630 C626 1.356 . S
C630 C627 1.358 . S
C630 H686 0.930 . S
C631 N628 1.314 . S
C631 C629 1.353 . S
C631 H687 0.930 . S
C632 N633 1.314 . S
C632 C637 1.353 . S
C632 H638 0.930 . S
N633 Li616 1.990 . S
N633 C632 1.314 . S
N633 C635 1.279 . S
C634 C635 1.358 . S
C634 C636 1.356 . S
C634 H688 0.930 . S
C635 N633 1.279 . S
C635 C634 1.358 . S
C635 H639 0.930 . S
C636 C634 1.356 . S
C636 C637 1.348 . S
C637 C632 1.353 . S
C637 C636 1.348 . S
C637 H689 0.929 . S
H638 C632 0.930 . S
H639 C635 0.930 . S
C640 N641 1.314 . S
C640 C642 1.353 . S
C640 H646 0.930 . S
N641 Li617 1.990 . S
N641 C640 1.314 . S
N641 C644 1.279 . S
C642 C640 1.353 . S
C642 C645 1.348 . S
C642 H690 0.929 . S
C643 C644 1.358 . S
C643 C645 1.356 . S
C643 H691 0.930 . S
C644 N641 1.279 . S
C644 C643 1.358 . S
C644 H647 0.930 . S
C645 C642 1.348 . S
C645 C643 1.356 . S
H646 C640 0.930 . S
H647 C644 0.930 . S
C648 C650 1.348 . S
C648 C651 1.356 . S
C648 O678 1.325 . S
N649 C652 1.314 . S
N649 C653 1.279 . S
C650 C648 1.348 . S
C650 C652 1.353 . S
C650 H692 0.929 . S
C651 C648 1.356 . S
C651 C653 1.358 . S
C651 H693 0.930 . S
C652 N649 1.314 . S
C652 C650 1.353 . S
C652 H694 0.930 . S
C653 N649 1.279 . S
C653 C651 1.358 . S
C653 H695 0.930 . S
C654 C655 1.348 . S
C654 C656 1.356 . S
C654 O679 1.325 . S
C655 C654 1.348 . S
C655 C657 1.353 . S
C655 H696 0.929 . S
C656 C654 1.356 . S
C656 C658 1.358 . S
C656 H697 0.930 . S
C657 C655 1.353 . S
C657 N659 1.314 . S
C657 H698 0.930 . S
C658 C656 1.358 . S
C658 N659 1.279 . S
C658 H699 0.930 . S
N659 C657 1.314 . S
N659 C658 1.279 . S
C660 C662 1.353 . S
C660 N663 1.314 . S
C660 H666 0.930 . S
C661 N663 1.279 . S
C661 C664 1.358 . S
C661 H667 0.930 . S
C662 C660 1.353 . S
C662 C665 1.348 . S
C662 H700 0.929 . S
N663 Li618 1.990 . S
N663 C660 1.314 . S
N663 C661 1.279 . S
C664 C661 1.358 . S
C664 C665 1.356 . S
C664 H701 0.930 . S
C665 C662 1.348 . S
C665 C664 1.356 . S
H666 C660 0.930 . S
H667 C661 0.930 . S
C668 N669 1.314 . S
C668 C670 1.353 . S
C668 H674 0.930 . S
N669 Li619 1.990 . S
N669 C668 1.314 . S
N669 C672 1.279 . S
C670 C668 1.353 . S
C670 C673 1.348 . S
C670 H702 0.929 . S
C671 C672 1.358 . S
C671 C673 1.356 . S
C671 H703 0.930 . S
C672 N669 1.279 . S
C672 C671 1.358 . S
C672 H675 0.930 . S
C673 C670 1.348 . S
C673 C671 1.356 . S
H674 C668 0.930 . S
H675 C672 0.930 . S
O676 Li616 1.956 . S
O676 Li617 1.970 . S
O676 Li618 1.961 . S
O676 C620 1.325 . S
O677 Li616 1.970 . S
O677 Li617 1.956 . S
O677 Li619 1.961 . S
O677 C626 1.325 . S
O678 Li616 1.961 . S
O678 Li618 1.956 . S
O678 Li619 1.970 . S
O678 C648 1.325 . S
O679 Li617 1.961 . S
O679 Li618 1.970 . S
O679 Li619 1.956 . S
O679 C654 1.325 . S
H680 C622 0.929 . S
H681 C623 0.930 . S
H682 C624 0.930 . S
H683 C625 0.930 . S
H684 C627 0.930 . S
H685 C629 0.929 . S
H686 C630 0.930 . S
H687 C631 0.930 . S
H688 C634 0.930 . S
H689 C637 0.929 . S
H690 C642 0.929 . S
H691 C643 0.930 . S
H692 C650 0.929 . S
H693 C651 0.930 . S
H694 C652 0.930 . S
H695 C653 0.930 . S
H696 C655 0.929 . S
H697 C656 0.930 . S
H698 C657 0.930 . S
H699 C658 0.930 . S
H700 C662 0.929 . S
H701 C664 0.930 . S
H702 C670 0.929 . S
H703 C671 0.930 . S
Li704 N721 1.990 . S
Li704 O764 1.956 . S
Li704 O765 1.970 . S
Li704 O766 1.961 . S
Li705 N729 1.990 . S
Li705 O764 1.970 . S
Li705 O765 1.956 . S
Li705 O767 1.961 . S
Li706 N751 1.990 1_554 S
Li706 O764 1.961 . S
Li706 O766 1.956 . S
Li706 O767 1.970 . S
Li707 N757 1.990 . S
Li707 O765 1.961 . S
Li707 O766 1.970 . S
Li707 O767 1.956 . S
C708 C710 1.348 . S
C708 C711 1.356 . S
C708 O764 1.325 . S
N709 C712 1.314 . S
N709 C713 1.279 . S
C710 C708 1.348 . S
C710 C712 1.353 . S
C710 H768 0.929 . S
C711 C708 1.356 . S
C711 C713 1.358 . S
C711 H769 0.930 . S
C712 N709 1.314 . S
C712 C710 1.353 . S
C712 H770 0.930 . S
C713 N709 1.279 . S
C713 C711 1.358 . S
C713 H771 0.930 . S
C714 C717 1.348 . S
C714 C718 1.356 . S
C714 O765 1.325 . S
C715 N716 1.279 . S
C715 C718 1.358 . S
C715 H772 0.930 . S
N716 C715 1.279 . S
N716 C719 1.314 . S
C717 C714 1.348 . S
C717 C719 1.353 . S
C717 H773 0.929 . S
C718 C714 1.356 . S
C718 C715 1.358 . S
C718 H774 0.930 . S
C719 N716 1.314 . S
C719 C717 1.353 . S
C719 H775 0.930 . S
C720 N721 1.314 . S
C720 C725 1.353 . S
C720 H726 0.930 . S
N721 Li704 1.990 . S
N721 C720 1.314 . S
N721 C723 1.279 . S
C722 C723 1.358 . S
C722 C724 1.356 . S
C722 H776 0.930 . S
C723 N721 1.279 . S
C723 C722 1.358 . S
C723 H727 0.930 . S
C724 C722 1.356 . S
C724 C725 1.348 . S
C725 C720 1.353 . S
C725 C724 1.348 . S
C725 H777 0.929 . S
H726 C720 0.930 . S
H727 C723 0.930 . S
C728 N729 1.314 . S
C728 C730 1.353 . S
C728 H734 0.930 . S
N729 Li705 1.990 . S
N729 C728 1.314 . S
N729 C732 1.279 . S
C730 C728 1.353 . S
C730 C733 1.348 . S
C730 H778 0.929 . S
C731 C732 1.358 . S
C731 C733 1.356 . S
C731 H779 0.930 . S
C732 N729 1.279 . S
C732 C731 1.358 . S
C732 H735 0.930 . S
C733 C730 1.348 . S
C733 C731 1.356 . S
H734 C728 0.930 . S
H735 C732 0.930 . S
C736 C738 1.348 . S
C736 C739 1.356 . S
C736 O766 1.325 1_556 S
N737 C740 1.314 . S
N737 C741 1.279 . S
C738 C736 1.348 . S
C738 C740 1.353 . S
C738 H780 0.929 . S
C739 C736 1.356 . S
C739 C741 1.358 . S
C739 H781 0.930 . S
C740 N737 1.314 . S
C740 C738 1.353 . S
C740 H782 0.930 . S
C741 N737 1.279 . S
C741 C739 1.358 . S
C741 H783 0.930 . S
C742 C743 1.348 . S
C742 C744 1.356 . S
C742 O767 1.325 . S
C743 C742 1.348 . S
C743 C745 1.353 . S
C743 H784 0.929 . S
C744 C742 1.356 . S
C744 C746 1.358 . S
C744 H785 0.930 . S
C745 C743 1.353 . S
C745 N747 1.314 . S
C745 H786 0.930 . S
C746 C744 1.358 . S
C746 N747 1.279 . S
C746 H787 0.930 . S
N747 C745 1.314 . S
N747 C746 1.279 . S
C748 C750 1.353 . S
C748 N751 1.314 . S
C748 H754 0.930 1_556 S
C749 N751 1.279 . S
C749 C752 1.358 . S
C749 H755 0.930 . S
C750 C748 1.353 . S
C750 C753 1.348 . S
C750 H788 0.929 . S
N751 Li706 1.990 1_556 S
N751 C748 1.314 . S
N751 C749 1.279 . S
C752 C749 1.358 . S
C752 C753 1.356 . S
C752 H789 0.930 . S
C753 C750 1.348 . S
C753 C752 1.356 . S
H754 C748 0.930 1_554 S
H755 C749 0.930 . S
C756 N757 1.314 . S
C756 C758 1.353 . S
C756 H762 0.930 . S
N757 Li707 1.990 . S
N757 C756 1.314 . S
N757 C760 1.279 . S
C758 C756 1.353 . S
C758 C761 1.348 . S
C758 H790 0.929 . S
C759 C760 1.358 . S
C759 C761 1.356 . S
C759 H791 0.930 . S
C760 N757 1.279 . S
C760 C759 1.358 . S
C760 H763 0.930 . S
C761 C758 1.348 . S
C761 C759 1.356 . S
H762 C756 0.930 . S
H763 C760 0.930 . S
O764 Li704 1.956 . S
O764 Li705 1.970 . S
O764 Li706 1.961 . S
O764 C708 1.325 . S
O765 Li704 1.970 . S
O765 Li705 1.956 . S
O765 Li707 1.961 . S
O765 C714 1.325 . S
O766 Li704 1.961 . S
O766 Li706 1.956 . S
O766 Li707 1.970 . S
O766 C736 1.325 1_554 S
O767 Li705 1.961 . S
O767 Li706 1.970 . S
O767 Li707 1.956 . S
O767 C742 1.325 . S
H768 C710 0.929 . S
H769 C711 0.930 . S
H770 C712 0.930 . S
H771 C713 0.930 . S
H772 C715 0.930 . S
H773 C717 0.929 . S
H774 C718 0.930 . S
H775 C719 0.930 . S
H776 C722 0.930 . S
H777 C725 0.929 . S
H778 C730 0.929 . S
H779 C731 0.930 . S
H780 C738 0.929 . S
H781 C739 0.930 . S
H782 C740 0.930 . S
H783 C741 0.930 . S
H784 C743 0.929 . S
H785 C744 0.930 . S
H786 C745 0.930 . S
H787 C746 0.930 . S
H788 C750 0.929 . S
H789 C752 0.930 . S
H790 C758 0.929 . S
H791 C759 0.930 . S
Li792 N809 1.990 . S
Li792 O852 1.956 . S
Li792 O853 1.970 . S
Li792 O854 1.961 . S
Li793 N817 1.990 . S
Li793 O852 1.970 . S
Li793 O853 1.956 . S
Li793 O855 1.961 . S
Li794 N839 1.990 . S
Li794 O852 1.961 . S
Li794 O854 1.956 . S
Li794 O855 1.970 . S
Li795 N845 1.990 . S
Li795 O853 1.961 . S
Li795 O854 1.970 . S
Li795 O855 1.956 . S
C796 C798 1.348 . S
C796 C799 1.356 . S
C796 O852 1.325 . S
N797 C800 1.314 . S
N797 C801 1.279 . S
C798 C796 1.348 . S
C798 C800 1.353 . S
C798 H856 0.929 . S
C799 C796 1.356 . S
C799 C801 1.358 . S
C799 H857 0.930 . S
C800 N797 1.314 . S
C800 C798 1.353 . S
C800 H858 0.930 . S
C801 N797 1.279 . S
C801 C799 1.358 . S
C801 H859 0.930 . S
C802 C805 1.348 . S
C802 C806 1.356 . S
C802 O853 1.325 . S
C803 N804 1.279 . S
C803 C806 1.358 . S
C803 H860 0.930 . S
N804 C803 1.279 . S
N804 C807 1.314 . S
C805 C802 1.348 . S
C805 C807 1.353 . S
C805 H861 0.929 . S
C806 C802 1.356 . S
C806 C803 1.358 . S
C806 H862 0.930 . S
C807 N804 1.314 . S
C807 C805 1.353 . S
C807 H863 0.930 . S
C808 N809 1.314 . S
C808 C813 1.353 . S
C808 H814 0.930 . S
N809 Li792 1.990 . S
N809 C808 1.314 . S
N809 C811 1.279 . S
C810 C811 1.358 . S
C810 C812 1.356 . S
C810 H864 0.930 . S
C811 N809 1.279 . S
C811 C810 1.358 . S
C811 H815 0.930 . S
C812 C810 1.356 . S
C812 C813 1.348 . S
C813 C808 1.353 . S
C813 C812 1.348 . S
C813 H865 0.929 . S
H814 C808 0.930 . S
H815 C811 0.930 . S
C816 N817 1.314 . S
C816 C818 1.353 . S
C816 H822 0.930 . S
N817 Li793 1.990 . S
N817 C816 1.314 . S
N817 C820 1.279 . S
C818 C816 1.353 . S
C818 C821 1.348 . S
C818 H866 0.929 . S
C819 C820 1.358 . S
C819 C821 1.356 . S
C819 H867 0.930 . S
C820 N817 1.279 . S
C820 C819 1.358 . S
C820 H823 0.930 . S
C821 C818 1.348 . S
C821 C819 1.356 . S
H822 C816 0.930 . S
H823 C820 0.930 . S
C824 C826 1.348 . S
C824 C827 1.356 . S
C824 O854 1.325 . S
N825 C828 1.314 . S
N825 C829 1.279 . S
C826 C824 1.348 . S
C826 C828 1.353 . S
C826 H868 0.929 . S
C827 C824 1.356 . S
C827 C829 1.358 . S
C827 H869 0.930 . S
C828 N825 1.314 . S
C828 C826 1.353 . S
C828 H870 0.930 . S
C829 N825 1.279 . S
C829 C827 1.358 . S
C829 H871 0.930 . S
C830 C831 1.348 . S
C830 C832 1.356 . S
C830 O855 1.325 . S
C831 C830 1.348 . S
C831 C833 1.353 . S
C831 H872 0.929 . S
C832 C830 1.356 . S
C832 C834 1.358 . S
C832 H873 0.930 . S
C833 C831 1.353 . S
C833 N835 1.314 . S
C833 H874 0.930 . S
C834 C832 1.358 . S
C834 N835 1.279 . S
C834 H875 0.930 . S
N835 C833 1.314 . S
N835 C834 1.279 . S
C836 C838 1.353 . S
C836 N839 1.314 . S
C836 H842 0.930 . S
C837 N839 1.279 . S
C837 C840 1.358 . S
C837 H843 0.930 . S
C838 C836 1.353 . S
C838 C841 1.348 . S
C838 H876 0.929 . S
N839 Li794 1.990 . S
N839 C836 1.314 . S
N839 C837 1.279 . S
C840 C837 1.358 . S
C840 C841 1.356 . S
C840 H877 0.930 . S
C841 C838 1.348 . S
C841 C840 1.356 . S
H842 C836 0.930 . S
H843 C837 0.930 . S
C844 N845 1.314 . S
C844 C846 1.353 . S
C844 H850 0.930 . S
N845 Li795 1.990 . S
N845 C844 1.314 . S
N845 C848 1.279 . S
C846 C844 1.353 . S
C846 C849 1.348 . S
C846 H878 0.929 . S
C847 C848 1.358 . S
C847 C849 1.356 . S
C847 H879 0.930 . S
C848 N845 1.279 . S
C848 C847 1.358 . S
C848 H851 0.930 . S
C849 C846 1.348 . S
C849 C847 1.356 . S
H850 C844 0.930 . S
H851 C848 0.930 . S
O852 Li792 1.956 . S
O852 Li793 1.970 . S
O852 Li794 1.961 . S
O852 C796 1.325 . S
O853 Li792 1.970 . S
O853 Li793 1.956 . S
O853 Li795 1.961 . S
O853 C802 1.325 . S
O854 Li792 1.961 . S
O854 Li794 1.956 . S
O854 Li795 1.970 . S
O854 C824 1.325 . S
O855 Li793 1.961 . S
O855 Li794 1.970 . S
O855 Li795 1.956 . S
O855 C830 1.325 . S
H856 C798 0.929 . S
H857 C799 0.930 . S
H858 C800 0.930 . S
H859 C801 0.930 . S
H860 C803 0.930 . S
H861 C805 0.929 . S
H862 C806 0.930 . S
H863 C807 0.930 . S
H864 C810 0.930 . S
H865 C813 0.929 . S
H866 C818 0.929 . S
H867 C819 0.930 . S
H868 C826 0.929 . S
H869 C827 0.930 . S
H870 C828 0.930 . S
H871 C829 0.930 . S
H872 C831 0.929 . S
H873 C832 0.930 . S
H874 C833 0.930 . S
H875 C834 0.930 . S
H876 C838 0.929 . S
H877 C840 0.930 . S
H878 C846 0.929 . S
H879 C847 0.930 . S
Li880 N897 1.990 . S
Li880 O940 1.956 . S
Li880 O941 1.970 . S
Li880 O942 1.961 . S
Li881 N905 1.990 . S
Li881 O940 1.970 . S
Li881 O941 1.956 . S
Li881 O943 1.961 . S
Li882 N927 1.990 . S
Li882 O940 1.961 . S
Li882 O942 1.956 . S
Li882 O943 1.970 . S
Li883 N933 1.990 . S
Li883 O941 1.961 . S
Li883 O942 1.970 . S
Li883 O943 1.956 . S
C884 C886 1.348 . S
C884 C887 1.356 . S
C884 O940 1.325 . S
N885 C888 1.314 . S
N885 C889 1.279 . S
C886 C884 1.348 . S
C886 C888 1.353 . S
C886 H944 0.929 . S
C887 C884 1.356 . S
C887 C889 1.358 . S
C887 H945 0.930 . S
C888 N885 1.314 . S
C888 C886 1.353 . S
C888 H946 0.930 . S
C889 N885 1.279 . S
C889 C887 1.358 . S
C889 H947 0.930 . S
C890 C893 1.348 . S
C890 C894 1.356 . S
C890 O941 1.325 . S
C891 N892 1.279 . S
C891 C894 1.358 . S
C891 H948 0.930 . S
N892 C891 1.279 . S
N892 C895 1.314 . S
C893 C890 1.348 . S
C893 C895 1.353 . S
C893 H949 0.929 . S
C894 C890 1.356 . S
C894 C891 1.358 . S
C894 H950 0.930 . S
C895 N892 1.314 . S
C895 C893 1.353 . S
C895 H951 0.930 . S
C896 N897 1.314 . S
C896 C901 1.353 . S
C896 H902 0.930 . S
N897 Li880 1.990 . S
N897 C896 1.314 . S
N897 C899 1.279 . S
C898 C899 1.358 . S
C898 C900 1.356 . S
C898 H952 0.930 . S
C899 N897 1.279 . S
C899 C898 1.358 . S
C899 H903 0.930 . S
C900 C898 1.356 . S
C900 C901 1.348 . S
C901 C896 1.353 . S
C901 C900 1.348 . S
C901 H953 0.929 . S
H902 C896 0.930 . S
H903 C899 0.930 . S
C904 N905 1.314 . S
C904 C906 1.353 . S
C904 H910 0.930 . S
N905 Li881 1.990 . S
N905 C904 1.314 . S
N905 C908 1.279 . S
C906 C904 1.353 . S
C906 C909 1.348 . S
C906 H954 0.929 . S
C907 C908 1.358 . S
C907 C909 1.356 . S
C907 H955 0.930 . S
C908 N905 1.279 . S
C908 C907 1.358 . S
C908 H911 0.930 . S
C909 C906 1.348 . S
C909 C907 1.356 . S
H910 C904 0.930 . S
H911 C908 0.930 . S
C912 C914 1.348 . S
C912 C915 1.356 . S
C912 O942 1.325 . S
N913 C916 1.314 . S
N913 C917 1.279 . S
C914 C912 1.348 . S
C914 C916 1.353 . S
C914 H956 0.929 . S
C915 C912 1.356 . S
C915 C917 1.358 . S
C915 H957 0.930 . S
C916 N913 1.314 . S
C916 C914 1.353 . S
C916 H958 0.930 . S
C917 N913 1.279 . S
C917 C915 1.358 . S
C917 H959 0.930 . S
C918 C919 1.348 . S
C918 C920 1.356 . S
C918 O943 1.325 . S
C919 C918 1.348 . S
C919 C921 1.353 . S
C919 H960 0.929 . S
C920 C918 1.356 . S
C920 C922 1.358 . S
C920 H961 0.930 . S
C921 C919 1.353 . S
C921 N923 1.314 . S
C921 H962 0.930 . S
C922 C920 1.358 . S
C922 N923 1.279 . S
C922 H963 0.930 . S
N923 C921 1.314 . S
N923 C922 1.279 . S
C924 C926 1.353 . S
C924 N927 1.314 . S
C924 H930 0.930 . S
C925 N927 1.279 . S
C925 C928 1.358 . S
C925 H931 0.930 . S
C926 C924 1.353 . S
C926 C929 1.348 . S
C926 H964 0.929 . S
N927 Li882 1.990 . S
N927 C924 1.314 . S
N927 C925 1.279 . S
C928 C925 1.358 . S
C928 C929 1.356 . S
C928 H965 0.930 . S
C929 C926 1.348 . S
C929 C928 1.356 . S
H930 C924 0.930 . S
H931 C925 0.930 . S
C932 N933 1.314 . S
C932 C934 1.353 . S
C932 H938 0.930 . S
N933 Li883 1.990 . S
N933 C932 1.314 . S
N933 C936 1.279 . S
C934 C932 1.353 . S
C934 C937 1.348 . S
C934 H966 0.929 . S
C935 C936 1.358 . S
C935 C937 1.356 . S
C935 H967 0.930 . S
C936 N933 1.279 . S
C936 C935 1.358 . S
C936 H939 0.930 . S
C937 C934 1.348 . S
C937 C935 1.356 . S
H938 C932 0.930 . S
H939 C936 0.930 . S
O940 Li880 1.956 . S
O940 Li881 1.970 . S
O940 Li882 1.961 . S
O940 C884 1.325 . S
O941 Li880 1.970 . S
O941 Li881 1.956 . S
O941 Li883 1.961 . S
O941 C890 1.325 . S
O942 Li880 1.961 . S
O942 Li882 1.956 . S
O942 Li883 1.970 . S
O942 C912 1.325 . S
O943 Li881 1.961 . S
O943 Li882 1.970 . S
O943 Li883 1.956 . S
O943 C918 1.325 . S
H944 C886 0.929 . S
H945 C887 0.930 . S
H946 C888 0.930 . S
H947 C889 0.930 . S
H948 C891 0.930 . S
H949 C893 0.929 . S
H950 C894 0.930 . S
H951 C895 0.930 . S
H952 C898 0.930 . S
H953 C901 0.929 . S
H954 C906 0.929 . S
H955 C907 0.930 . S
H956 C914 0.929 . S
H957 C915 0.930 . S
H958 C916 0.930 . S
H959 C917 0.930 . S
H960 C919 0.929 . S
H961 C920 0.930 . S
H962 C921 0.930 . S
H963 C922 0.930 . S
H964 C926 0.929 . S
H965 C928 0.930 . S
H966 C934 0.929 . S
H967 C935 0.930 . S
Li968 N985 1.990 . S
Li968 O1028 1.956 . S
Li968 O1029 1.970 . S
Li968 O1030 1.961 . S
Li969 N993 1.990 . S
Li969 O1028 1.970 . S
Li969 O1029 1.956 . S
Li969 O1031 1.961 . S
Li970 N1015 1.990 . S
Li970 O1028 1.961 . S
Li970 O1030 1.956 . S
Li970 O1031 1.970 . S
Li971 N1021 1.990 1_554 S
Li971 O1029 1.961 . S
Li971 O1030 1.970 . S
Li971 O1031 1.956 . S
C972 C974 1.348 . S
C972 C975 1.356 . S
C972 O1028 1.325 . S
N973 C976 1.314 . S
N973 C977 1.279 . S
C974 C972 1.348 . S
C974 C976 1.353 . S
C974 H1032 0.929 . S
C975 C972 1.356 . S
C975 C977 1.358 . S
C975 H1033 0.930 . S
C976 N973 1.314 . S
C976 C974 1.353 . S
C976 H1034 0.930 . S
C977 N973 1.279 . S
C977 C975 1.358 . S
C977 H1035 0.930 . S
C978 C981 1.348 . S
C978 C982 1.356 . S
C978 O1029 1.325 . S
C979 N980 1.279 . S
C979 C982 1.358 . S
C979 H1036 0.930 . S
N980 C979 1.279 . S
N980 C983 1.314 . S
C981 C978 1.348 . S
C981 C983 1.353 . S
C981 H1037 0.929 . S
C982 C978 1.356 . S
C982 C979 1.358 . S
C982 H1038 0.930 . S
C983 N980 1.314 . S
C983 C981 1.353 . S
C983 H1039 0.930 . S
C984 N985 1.314 . S
C984 C989 1.353 . S
C984 H990 0.930 . S
N985 Li968 1.990 . S
N985 C984 1.314 . S
N985 C987 1.279 . S
C986 C987 1.358 . S
C986 C988 1.356 . S
C986 H1040 0.930 . S
C987 N985 1.279 . S
C987 C986 1.358 . S
C987 H991 0.930 . S
C988 C986 1.356 . S
C988 C989 1.348 . S
C989 C984 1.353 . S
C989 C988 1.348 . S
C989 H1041 0.929 . S
H990 C984 0.930 . S
H991 C987 0.930 . S
C992 N993 1.314 . S
C992 C994 1.353 . S
C992 H998 0.930 . S
N993 Li969 1.990 . S
N993 C992 1.314 . S
N993 C996 1.279 . S
C994 C992 1.353 . S
C994 C997 1.348 . S
C994 H1042 0.929 . S
C995 C996 1.358 . S
C995 C997 1.356 . S
C995 H1043 0.930 . S
C996 N993 1.279 . S
C996 C995 1.358 . S
C996 H999 0.930 . S
C997 C994 1.348 . S
C997 C995 1.356 . S
H998 C992 0.930 . S
H999 C996 0.930 . S
C1000 C1002 1.348 . S
C1000 C1003 1.356 . S
C1000 O1030 1.325 . S
N1001 C1004 1.314 . S
N1001 C1005 1.279 . S
C1002 C1000 1.348 . S
C1002 C1004 1.353 . S
C1002 H1044 0.929 . S
C1003 C1000 1.356 . S
C1003 C1005 1.358 . S
C1003 H1045 0.930 . S
C1004 N1001 1.314 . S
C1004 C1002 1.353 . S
C1004 H1046 0.930 . S
C1005 N1001 1.279 . S
C1005 C1003 1.358 . S
C1005 H1047 0.930 . S
C1006 C1007 1.348 . S
C1006 C1008 1.356 . S
C1006 O1031 1.325 1_556 S
C1007 C1006 1.348 . S
C1007 C1009 1.353 . S
C1007 H1048 0.929 . S
C1008 C1006 1.356 . S
C1008 C1010 1.358 . S
C1008 H1049 0.930 . S
C1009 C1007 1.353 . S
C1009 N1011 1.314 . S
C1009 H1050 0.930 . S
C1010 C1008 1.358 . S
C1010 N1011 1.279 . S
C1010 H1051 0.930 . S
N1011 C1009 1.314 . S
N1011 C1010 1.279 . S
C1012 C1014 1.353 . S
C1012 N1015 1.314 . S
C1012 H1018 0.930 . S
C1013 N1015 1.279 . S
C1013 C1016 1.358 . S
C1013 H1019 0.930 . S
C1014 C1012 1.353 . S
C1014 C1017 1.348 . S
C1014 H1052 0.929 . S
N1015 Li970 1.990 . S
N1015 C1012 1.314 . S
N1015 C1013 1.279 . S
C1016 C1013 1.358 . S
C1016 C1017 1.356 . S
C1016 H1053 0.930 . S
C1017 C1014 1.348 . S
C1017 C1016 1.356 . S
H1018 C1012 0.930 . S
H1019 C1013 0.930 . S
C1020 N1021 1.314 . S
C1020 C1022 1.353 . S
C1020 H1026 0.930 1_556 S
N1021 Li971 1.990 1_556 S
N1021 C1020 1.314 . S
N1021 C1024 1.279 . S
C1022 C1020 1.353 . S
C1022 C1025 1.348 . S
C1022 H1054 0.929 . S
C1023 C1024 1.358 . S
C1023 C1025 1.356 . S
C1023 H1055 0.930 . S
C1024 N1021 1.279 . S
C1024 C1023 1.358 . S
C1024 H1027 0.930 . S
C1025 C1022 1.348 . S
C1025 C1023 1.356 . S
H1026 C1020 0.930 1_554 S
H1027 C1024 0.930 . S
O1028 Li968 1.956 . S
O1028 Li969 1.970 . S
O1028 Li970 1.961 . S
O1028 C972 1.325 . S
O1029 Li968 1.970 . S
O1029 Li969 1.956 . S
O1029 Li971 1.961 . S
O1029 C978 1.325 . S
O1030 Li968 1.961 . S
O1030 Li970 1.956 . S
O1030 Li971 1.970 . S
O1030 C1000 1.325 . S
O1031 Li969 1.961 . S
O1031 Li970 1.970 . S
O1031 Li971 1.956 . S
O1031 C1006 1.325 1_554 S
H1032 C974 0.929 . S
H1033 C975 0.930 . S
H1034 C976 0.930 . S
H1035 C977 0.930 . S
H1036 C979 0.930 . S
H1037 C981 0.929 . S
H1038 C982 0.930 . S
H1039 C983 0.930 . S
H1040 C986 0.930 . S
H1041 C989 0.929 . S
H1042 C994 0.929 . S
H1043 C995 0.930 . S
H1044 C1002 0.929 . S
H1045 C1003 0.930 . S
H1046 C1004 0.930 . S
H1047 C1005 0.930 . S
H1048 C1007 0.929 . S
H1049 C1008 0.930 . S
H1050 C1009 0.930 . S
H1051 C1010 0.930 . S
H1052 C1014 0.929 . S
H1053 C1016 0.930 . S
H1054 C1022 0.929 . S
H1055 C1023 0.930 . S
C1056 C1057 1.349 . S
C1056 C1058 1.327 . S
C1056 H1081 0.950 . S
C1057 C1056 1.349 . S
C1057 C1073 1.349 . S
C1058 C1056 1.327 . S
C1058 C1077 1.429 . S
C1058 H1082 0.950 . S
C1059 C1076 1.574 . S
C1059 C1078 1.368 . S
C1059 H1083 0.949 . S
H1060 C1064 0.949 . S
C1061 C1062 1.349 . S
C1061 C1063 1.327 . S
C1061 H1084 0.950 . S
C1062 C1061 1.349 . S
C1062 C1074 1.349 . S
C1063 C1061 1.327 . S
C1063 C1079 1.429 . S
C1063 H1085 0.950 . S
C1064 H1060 0.949 . S
C1064 C1072 1.574 . S
C1064 C1080 1.368 . S
H1065 C1073 0.950 . S
H1066 C1071 0.950 . S
H1067 C1072 0.949 . S
H1068 C1074 0.950 . S
H1069 C1075 0.950 . S
H1070 C1076 0.949 . S
C1071 H1066 0.950 . S
C1071 C1073 1.327 . S
C1071 C1077 1.429 . S
C1072 C1064 1.574 . S
C1072 H1067 0.949 . S
C1072 C1078 1.368 . S
C1073 C1057 1.349 . S
C1073 H1065 0.950 . S
C1073 C1071 1.327 . S
C1074 C1062 1.349 . S
C1074 H1068 0.950 . S
C1074 C1075 1.327 . S
C1075 H1069 0.950 . S
C1075 C1074 1.327 . S
C1075 C1079 1.429 . S
C1076 C1059 1.574 . S
C1076 H1070 0.949 . S
C1076 C1080 1.368 . S
C1077 C1058 1.429 . S
C1077 C1071 1.429 . S
C1077 C1078 1.523 . S
C1078 C1059 1.368 . S
C1078 C1072 1.368 . S
C1078 C1077 1.523 . S
C1079 C1063 1.429 . S
C1079 C1075 1.429 . S
C1079 C1080 1.523 . S
C1080 C1064 1.368 . S
C1080 C1076 1.368 . S
C1080 C1079 1.523 . S
H1081 C1056 0.950 . S
H1082 C1058 0.950 . S
H1083 C1059 0.949 . S
H1084 C1061 0.950 . S
H1085 C1063 0.950 . S
C1086 C1087 1.349 . S
C1086 C1088 1.327 . S
C1086 H1111 0.950 . S
C1087 C1086 1.349 . S
C1087 C1103 1.349 . S
C1088 C1086 1.327 . S
C1088 C1107 1.429 . S
C1088 H1112 0.950 . S
C1089 C1106 1.574 1_655 S
C1089 C1108 1.368 . S
C1089 H1113 0.949 . S
H1090 C1094 0.949 . S
C1091 C1092 1.349 . S
C1091 C1093 1.327 . S
C1091 H1114 0.950 . S
C1092 C1091 1.349 . S
C1092 C1104 1.349 . S
C1093 C1091 1.327 . S
C1093 C1109 1.429 . S
C1093 H1115 0.950 . S
C1094 H1090 0.949 . S
C1094 C1102 1.574 1_455 S
C1094 C1110 1.368 . S
H1095 C1103 0.950 . S
H1096 C1101 0.950 . S
H1097 C1102 0.949 . S
H1098 C1104 0.950 . S
H1099 C1105 0.950 . S
H1100 C1106 0.949 . S
C1101 H1096 0.950 . S
C1101 C1103 1.327 . S
C1101 C1107 1.429 . S
C1102 C1094 1.574 1_655 S
C1102 H1097 0.949 . S
C1102 C1108 1.368 . S
C1103 C1087 1.349 . S
C1103 H1095 0.950 . S
C1103 C1101 1.327 . S
C1104 C1092 1.349 . S
C1104 H1098 0.950 . S
C1104 C1105 1.327 . S
C1105 H1099 0.950 . S
C1105 C1104 1.327 . S
C1105 C1109 1.429 . S
C1106 C1089 1.574 1_455 S
C1106 H1100 0.949 . S
C1106 C1110 1.368 . S
C1107 C1088 1.429 . S
C1107 C1101 1.429 . S
C1107 C1108 1.523 . S
C1108 C1089 1.368 . S
C1108 C1102 1.368 . S
C1108 C1107 1.523 . S
C1109 C1093 1.429 . S
C1109 C1105 1.429 . S
C1109 C1110 1.523 . S
C1110 C1094 1.368 . S
C1110 C1106 1.368 . S
C1110 C1109 1.523 . S
H1111 C1086 0.950 . S
H1112 C1088 0.950 . S
H1113 C1089 0.949 . S
H1114 C1091 0.950 . S
H1115 C1093 0.950 . S
C1116 C1117 1.349 . S
C1116 C1118 1.327 1_556 S
C1116 H1141 0.950 1_556 S
C1117 C1116 1.349 . S
C1117 C1133 1.349 . S
C1118 C1116 1.327 1_554 S
C1118 C1137 1.429 1_554 S
C1118 H1142 0.950 . S
C1119 C1136 1.574 1_565 S
C1119 C1138 1.368 . S
C1119 H1143 0.949 . S
H1120 C1124 0.949 . S
C1121 C1122 1.349 . S
C1121 C1123 1.327 1_554 S
C1121 H1144 0.950 1_554 S
C1122 C1121 1.349 . S
C1122 C1134 1.349 . S
C1123 C1121 1.327 1_556 S
C1123 C1139 1.429 1_556 S
C1123 H1145 0.950 . S
C1124 H1120 0.949 . S
C1124 C1132 1.574 1_545 S
C1124 C1140 1.368 . S
H1125 C1133 0.950 . S
H1126 C1131 0.950 . S
H1127 C1132 0.949 . S
H1128 C1134 0.950 . S
H1129 C1135 0.950 . S
H1130 C1136 0.949 . S
C1131 H1126 0.950 . S
C1131 C1133 1.327 . S
C1131 C1137 1.429 . S
C1132 C1124 1.574 1_565 S
C1132 H1127 0.949 . S
C1132 C1138 1.368 1_554 S
C1133 C1117 1.349 . S
C1133 H1125 0.950 . S
C1133 C1131 1.327 . S
C1134 C1122 1.349 . S
C1134 H1128 0.950 . S
C1134 C1135 1.327 . S
C1135 H1129 0.950 . S
C1135 C1134 1.327 . S
C1135 C1139 1.429 . S
C1136 C1119 1.574 1_545 S
C1136 H1130 0.949 . S
C1136 C1140 1.368 1_556 S
C1137 C1118 1.429 1_556 S
C1137 C1131 1.429 . S
C1137 C1138 1.523 . S
C1138 C1119 1.368 . S
C1138 C1132 1.368 1_556 S
C1138 C1137 1.523 . S
C1139 C1123 1.429 1_554 S
C1139 C1135 1.429 . S
C1139 C1140 1.523 . S
C1140 C1124 1.368 . S
C1140 C1136 1.368 1_554 S
C1140 C1139 1.523 . S
H1141 C1116 0.950 1_554 S
H1142 C1118 0.950 . S
H1143 C1119 0.949 . S
H1144 C1121 0.950 1_556 S
H1145 C1123 0.950 . S
C1146 C1147 1.349 . S
C1146 C1148 1.327 . S
C1146 H1171 0.950 . S
C1147 C1146 1.349 . S
C1147 C1163 1.349 . S
C1148 C1146 1.327 . S
C1148 C1167 1.429 . S
C1148 H1172 0.950 . S
C1149 C1166 1.574 . S
C1149 C1168 1.368 . S
C1149 H1173 0.949 . S
H1150 C1154 0.949 . S
C1151 C1152 1.349 . S
C1151 C1153 1.327 . S
C1151 H1174 0.950 . S
C1152 C1151 1.349 . S
C1152 C1164 1.349 . S
C1153 C1151 1.327 . S
C1153 C1169 1.429 . S
C1153 H1175 0.950 . S
C1154 H1150 0.949 . S
C1154 C1162 1.574 . S
C1154 C1170 1.368 . S
H1155 C1163 0.950 . S
H1156 C1161 0.950 . S
H1157 C1162 0.949 . S
H1158 C1164 0.950 . S
H1159 C1165 0.950 . S
H1160 C1166 0.949 . S
C1161 H1156 0.950 . S
C1161 C1163 1.327 . S
C1161 C1167 1.429 . S
C1162 C1154 1.574 . S
C1162 H1157 0.949 . S
C1162 C1168 1.368 . S
C1163 C1147 1.349 . S
C1163 H1155 0.950 . S
C1163 C1161 1.327 . S
C1164 C1152 1.349 . S
C1164 H1158 0.950 . S
C1164 C1165 1.327 . S
C1165 H1159 0.950 . S
C1165 C1164 1.327 . S
C1165 C1169 1.429 . S
C1166 C1149 1.574 . S
C1166 H1160 0.949 . S
C1166 C1170 1.368 . S
C1167 C1148 1.429 . S
C1167 C1161 1.429 . S
C1167 C1168 1.523 . S
C1168 C1149 1.368 . S
C1168 C1162 1.368 . S
C1168 C1167 1.523 . S
C1169 C1153 1.429 . S
C1169 C1165 1.429 . S
C1169 C1170 1.523 . S
C1170 C1154 1.368 . S
C1170 C1166 1.368 . S
C1170 C1169 1.523 . S
H1171 C1146 0.950 . S
H1172 C1148 0.950 . S
H1173 C1149 0.949 . S
H1174 C1151 0.950 . S
H1175 C1153 0.950 . S
C1176 C1177 1.349 . S
C1176 C1178 1.327 . S
C1176 H1201 0.950 . S
C1177 C1176 1.349 . S
C1177 C1193 1.349 . S
C1178 C1176 1.327 . S
C1178 C1197 1.429 . S
C1178 H1202 0.950 . S
C1179 C1196 1.574 1_655 S
C1179 C1198 1.368 . S
C1179 H1203 0.949 . S
H1180 C1184 0.949 . S
C1181 C1182 1.349 . S
C1181 C1183 1.327 . S
C1181 H1204 0.950 . S
C1182 C1181 1.349 . S
C1182 C1194 1.349 . S
C1183 C1181 1.327 . S
C1183 C1199 1.429 . S
C1183 H1205 0.950 . S
C1184 H1180 0.949 . S
C1184 C1192 1.574 1_455 S
C1184 C1200 1.368 . S
H1185 C1193 0.950 . S
H1186 C1191 0.950 . S
H1187 C1192 0.949 . S
H1188 C1194 0.950 . S
H1189 C1195 0.950 . S
H1190 C1196 0.949 . S
C1191 H1186 0.950 . S
C1191 C1193 1.327 . S
C1191 C1197 1.429 . S
C1192 C1184 1.574 1_655 S
C1192 H1187 0.949 . S
C1192 C1198 1.368 . S
C1193 C1177 1.349 . S
C1193 H1185 0.950 . S
C1193 C1191 1.327 . S
C1194 C1182 1.349 . S
C1194 H1188 0.950 . S
C1194 C1195 1.327 . S
C1195 H1189 0.950 . S
C1195 C1194 1.327 . S
C1195 C1199 1.429 . S
C1196 C1179 1.574 1_455 S
C1196 H1190 0.949 . S
C1196 C1200 1.368 . S
C1197 C1178 1.429 . S
C1197 C1191 1.429 . S
C1197 C1198 1.523 . S
C1198 C1179 1.368 . S
C1198 C1192 1.368 . S
C1198 C1197 1.523 . S
C1199 C1183 1.429 . S
C1199 C1195 1.429 . S
C1199 C1200 1.523 . S
C1200 C1184 1.368 . S
C1200 C1196 1.368 . S
C1200 C1199 1.523 . S
H1201 C1176 0.950 . S
H1202 C1178 0.950 . S
H1203 C1179 0.949 . S
H1204 C1181 0.950 . S
H1205 C1183 0.950 . S
C1206 C1207 1.349 . S
C1206 C1208 1.327 . S
C1206 H1231 0.950 . S
C1207 C1206 1.349 . S
C1207 C1223 1.349 . S
C1208 C1206 1.327 . S
C1208 C1227 1.429 . S
C1208 H1232 0.950 . S
C1209 C1226 1.574 1_565 S
C1209 C1228 1.368 . S
C1209 H1233 0.949 . S
H1210 C1214 0.949 . S
C1211 C1212 1.349 . S
C1211 C1213 1.327 . S
C1211 H1234 0.950 . S
C1212 C1211 1.349 . S
C1212 C1224 1.349 . S
C1213 C1211 1.327 . S
C1213 C1229 1.429 . S
C1213 H1235 0.950 . S
C1214 H1210 0.949 . S
C1214 C1222 1.574 1_545 S
C1214 C1230 1.368 . S
H1215 C1223 0.950 . S
H1216 C1221 0.950 . S
H1217 C1222 0.949 . S
H1218 C1224 0.950 . S
H1219 C1225 0.950 . S
H1220 C1226 0.949 . S
C1221 H1216 0.950 . S
C1221 C1223 1.327 . S
C1221 C1227 1.429 . S
C1222 C1214 1.574 1_565 S
C1222 H1217 0.949 . S
C1222 C1228 1.368 1_556 S
C1223 C1207 1.349 . S
C1223 H1215 0.950 . S
C1223 C1221 1.327 . S
C1224 C1212 1.349 . S
C1224 H1218 0.950 . S
C1224 C1225 1.327 . S
C1225 H1219 0.950 . S
C1225 C1224 1.327 . S
C1225 C1229 1.429 . S
C1226 C1209 1.574 1_545 S
C1226 H1220 0.949 . S
C1226 C1230 1.368 1_554 S
C1227 C1208 1.429 . S
C1227 C1221 1.429 . S
C1227 C1228 1.523 . S
C1228 C1209 1.368 . S
C1228 C1222 1.368 1_554 S
C1228 C1227 1.523 . S
C1229 C1213 1.429 . S
C1229 C1225 1.429 . S
C1229 C1230 1.523 . S
C1230 C1214 1.368 . S
C1230 C1226 1.368 1_556 S
C1230 C1229 1.523 . S
H1231 C1206 0.950 . S
H1232 C1208 0.950 . S
H1233 C1209 0.949 . S
H1234 C1211 0.950 . S
H1235 C1213 0.950 . S
C1236 C1237 1.349 . S
C1236 C1238 1.327 . S
C1236 H1261 0.950 . S
C1237 C1236 1.349 . S
C1237 C1253 1.349 . S
C1238 C1236 1.327 . S
C1238 C1257 1.429 . S
C1238 H1262 0.950 . S
C1239 C1256 1.574 1_556 S
C1239 C1258 1.368 . S
C1239 H1263 0.949 . S
H1240 C1244 0.949 . S
C1241 C1242 1.349 . S
C1241 C1243 1.327 . S
C1241 H1264 0.950 . S
C1242 C1241 1.349 . S
C1242 C1254 1.349 . S
C1243 C1241 1.327 . S
C1243 C1259 1.429 . S
C1243 H1265 0.950 . S
C1244 H1240 0.949 . S
C1244 C1252 1.574 1_554 S
C1244 C1260 1.368 . S
H1245 C1253 0.950 . S
H1246 C1251 0.950 . S
H1247 C1252 0.949 . S
H1248 C1254 0.950 . S
H1249 C1255 0.950 . S
H1250 C1256 0.949 . S
C1251 H1246 0.950 . S
C1251 C1253 1.327 . S
C1251 C1257 1.429 . S
C1252 C1244 1.574 1_556 S
C1252 H1247 0.949 . S
C1252 C1258 1.368 . S
C1253 C1237 1.349 . S
C1253 H1245 0.950 . S
C1253 C1251 1.327 . S
C1254 C1242 1.349 . S
C1254 H1248 0.950 . S
C1254 C1255 1.327 . S
C1255 H1249 0.950 . S
C1255 C1254 1.327 . S
C1255 C1259 1.429 . S
C1256 C1239 1.574 1_554 S
C1256 H1250 0.949 . S
C1256 C1260 1.368 . S
C1257 C1238 1.429 . S
C1257 C1251 1.429 . S
C1257 C1258 1.523 . S
C1258 C1239 1.368 . S
C1258 C1252 1.368 . S
C1258 C1257 1.523 . S
C1259 C1243 1.429 . S
C1259 C1255 1.429 . S
C1259 C1260 1.523 . S
C1260 C1244 1.368 . S
C1260 C1256 1.368 . S
C1260 C1259 1.523 . S
H1261 C1236 0.950 . S
H1262 C1238 0.950 . S
H1263 C1239 0.949 . S
H1264 C1241 0.950 . S
H1265 C1243 0.950 . S
C1266 C1267 1.349 . S
C1266 C1268 1.327 . S
C1266 H1291 0.950 . S
C1267 C1266 1.349 . S
C1267 C1283 1.349 . S
C1268 C1266 1.327 . S
C1268 C1287 1.429 . S
C1268 H1292 0.950 . S
C1269 C1286 1.574 . S
C1269 C1288 1.368 . S
C1269 H1293 0.949 . S
H1270 C1274 0.949 . S
C1271 C1272 1.349 . S
C1271 C1273 1.327 . S
C1271 H1294 0.950 . S
C1272 C1271 1.349 . S
C1272 C1284 1.349 . S
C1273 C1271 1.327 . S
C1273 C1289 1.429 . S
C1273 H1295 0.950 . S
C1274 H1270 0.949 . S
C1274 C1282 1.574 . S
C1274 C1290 1.368 . S
H1275 C1283 0.950 . S
H1276 C1281 0.950 . S
H1277 C1282 0.949 . S
H1278 C1284 0.950 . S
H1279 C1285 0.950 . S
H1280 C1286 0.949 . S
C1281 H1276 0.950 . S
C1281 C1283 1.327 . S
C1281 C1287 1.429 . S
C1282 C1274 1.574 . S
C1282 H1277 0.949 . S
C1282 C1288 1.368 . S
C1283 C1267 1.349 . S
C1283 H1275 0.950 . S
C1283 C1281 1.327 . S
C1284 C1272 1.349 . S
C1284 H1278 0.950 . S
C1284 C1285 1.327 . S
C1285 H1279 0.950 . S
C1285 C1284 1.327 . S
C1285 C1289 1.429 . S
C1286 C1269 1.574 . S
C1286 H1280 0.949 . S
C1286 C1290 1.368 . S
C1287 C1268 1.429 . S
C1287 C1281 1.429 . S
C1287 C1288 1.523 . S
C1288 C1269 1.368 . S
C1288 C1282 1.368 . S
C1288 C1287 1.523 . S
C1289 C1273 1.429 . S
C1289 C1285 1.429 . S
C1289 C1290 1.523 . S
C1290 C1274 1.368 . S
C1290 C1286 1.368 . S
C1290 C1289 1.523 . S
H1291 C1266 0.950 . S
H1292 C1268 0.950 . S
H1293 C1269 0.949 . S
H1294 C1271 0.950 . S
H1295 C1273 0.950 . S
C1296 C1297 1.349 . S
C1296 C1298 1.327 . S
C1296 H1321 0.950 . S
C1297 C1296 1.349 . S
C1297 C1313 1.349 . S
C1298 C1296 1.327 . S
C1298 C1317 1.429 . S
C1298 H1322 0.950 . S
C1299 C1316 1.574 . S
C1299 C1318 1.368 . S
C1299 H1323 0.949 . S
H1300 C1304 0.949 . S
C1301 C1302 1.349 . S
C1301 C1303 1.327 . S
C1301 H1324 0.950 . S
C1302 C1301 1.349 . S
C1302 C1314 1.349 . S
C1303 C1301 1.327 . S
C1303 C1319 1.429 . S
C1303 H1325 0.950 . S
C1304 H1300 0.949 . S
C1304 C1312 1.574 . S
C1304 C1320 1.368 . S
H1305 C1313 0.950 . S
H1306 C1311 0.950 . S
H1307 C1312 0.949 . S
H1308 C1314 0.950 . S
H1309 C1315 0.950 . S
H1310 C1316 0.949 . S
C1311 H1306 0.950 . S
C1311 C1313 1.327 . S
C1311 C1317 1.429 . S
C1312 C1304 1.574 . S
C1312 H1307 0.949 . S
C1312 C1318 1.368 . S
C1313 C1297 1.349 . S
C1313 H1305 0.950 . S
C1313 C1311 1.327 . S
C1314 C1302 1.349 . S
C1314 H1308 0.950 . S
C1314 C1315 1.327 . S
C1315 H1309 0.950 . S
C1315 C1314 1.327 . S
C1315 C1319 1.429 . S
C1316 C1299 1.574 . S
C1316 H1310 0.949 . S
C1316 C1320 1.368 . S
C1317 C1298 1.429 . S
C1317 C1311 1.429 . S
C1317 C1318 1.523 . S
C1318 C1299 1.368 . S
C1318 C1312 1.368 . S
C1318 C1317 1.523 . S
C1319 C1303 1.429 . S
C1319 C1315 1.429 . S
C1319 C1320 1.523 . S
C1320 C1304 1.368 . S
C1320 C1316 1.368 . S
C1320 C1319 1.523 . S
H1321 C1296 0.950 . S
H1322 C1298 0.950 . S
H1323 C1299 0.949 . S
H1324 C1301 0.950 . S
H1325 C1303 0.950 . S
C1326 C1327 1.349 . S
C1326 C1328 1.327 . S
C1326 H1351 0.950 . S
C1327 C1326 1.349 . S
C1327 C1343 1.349 . S
C1328 C1326 1.327 . S
C1328 C1347 1.429 . S
C1328 H1352 0.950 . S
C1329 C1346 1.574 1_554 S
C1329 C1348 1.368 . S
C1329 H1353 0.949 . S
H1330 C1334 0.949 . S
C1331 C1332 1.349 . S
C1331 C1333 1.327 . S
C1331 H1354 0.950 . S
C1332 C1331 1.349 . S
C1332 C1344 1.349 . S
C1333 C1331 1.327 . S
C1333 C1349 1.429 . S
C1333 H1355 0.950 . S
C1334 H1330 0.949 . S
C1334 C1342 1.574 1_556 S
C1334 C1350 1.368 . S
H1335 C1343 0.950 . S
H1336 C1341 0.950 . S
H1337 C1342 0.949 . S
H1338 C1344 0.950 . S
H1339 C1345 0.950 . S
H1340 C1346 0.949 . S
C1341 H1336 0.950 . S
C1341 C1343 1.327 . S
C1341 C1347 1.429 . S
C1342 C1334 1.574 1_554 S
C1342 H1337 0.949 . S
C1342 C1348 1.368 . S
C1343 C1327 1.349 . S
C1343 H1335 0.950 . S
C1343 C1341 1.327 . S
C1344 C1332 1.349 . S
C1344 H1338 0.950 . S
C1344 C1345 1.327 . S
C1345 H1339 0.950 . S
C1345 C1344 1.327 . S
C1345 C1349 1.429 . S
C1346 C1329 1.574 1_556 S
C1346 H1340 0.949 . S
C1346 C1350 1.368 . S
C1347 C1328 1.429 . S
C1347 C1341 1.429 . S
C1347 C1348 1.523 . S
C1348 C1329 1.368 . S
C1348 C1342 1.368 . S
C1348 C1347 1.523 . S
C1349 C1333 1.429 . S
C1349 C1345 1.429 . S
C1349 C1350 1.523 . S
C1350 C1334 1.368 . S
C1350 C1346 1.368 . S
C1350 C1349 1.523 . S
H1351 C1326 0.950 . S
H1352 C1328 0.950 . S
H1353 C1329 0.949 . S
H1354 C1331 0.950 . S
H1355 C1333 0.950 . S
C1356 C1357 1.349 . S
C1356 C1358 1.327 . S
C1356 H1381 0.950 . S
C1357 C1356 1.349 . S
C1357 C1373 1.349 . S
C1358 C1356 1.327 . S
C1358 C1377 1.429 . S
C1358 H1382 0.950 . S
C1359 C1376 1.574 . S
C1359 C1378 1.368 . S
C1359 H1383 0.949 . S
H1360 C1364 0.949 . S
C1361 C1362 1.349 . S
C1361 C1363 1.327 . S
C1361 H1384 0.950 . S
C1362 C1361 1.349 . S
C1362 C1374 1.349 . S
C1363 C1361 1.327 . S
C1363 C1379 1.429 . S
C1363 H1385 0.950 . S
C1364 H1360 0.949 . S
C1364 C1372 1.574 . S
C1364 C1380 1.368 . S
H1365 C1373 0.950 . S
H1366 C1371 0.950 . S
H1367 C1372 0.949 . S
H1368 C1374 0.950 . S
H1369 C1375 0.950 . S
H1370 C1376 0.949 . S
C1371 H1366 0.950 . S
C1371 C1373 1.327 . S
C1371 C1377 1.429 . S
C1372 C1364 1.574 . S
C1372 H1367 0.949 . S
C1372 C1378 1.368 . S
C1373 C1357 1.349 . S
C1373 H1365 0.950 . S
C1373 C1371 1.327 . S
C1374 C1362 1.349 . S
C1374 H1368 0.950 . S
C1374 C1375 1.327 . S
C1375 H1369 0.950 . S
C1375 C1374 1.327 . S
C1375 C1379 1.429 . S
C1376 C1359 1.574 . S
C1376 H1370 0.949 . S
C1376 C1380 1.368 . S
C1377 C1358 1.429 . S
C1377 C1371 1.429 . S
C1377 C1378 1.523 . S
C1378 C1359 1.368 . S
C1378 C1372 1.368 . S
C1378 C1377 1.523 . S
C1379 C1363 1.429 . S
C1379 C1375 1.429 . S
C1379 C1380 1.523 . S
C1380 C1364 1.368 . S
C1380 C1376 1.368 . S
C1380 C1379 1.523 . S
H1381 C1356 0.950 . S
H1382 C1358 0.950 . S
H1383 C1359 0.949 . S
H1384 C1361 0.950 . S
H1385 C1363 0.950 . S
C1386 C1387 1.349 . S
C1386 C1388 1.327 . S
C1386 H1411 0.950 . S
C1387 C1386 1.349 . S
C1387 C1403 1.349 . S
C1388 C1386 1.327 . S
C1388 C1407 1.429 . S
C1388 H1412 0.950 . S
C1389 C1406 1.574 . S
C1389 C1408 1.368 . S
C1389 H1413 0.949 . S
H1390 C1394 0.949 . S
C1391 C1392 1.349 . S
C1391 C1393 1.327 . S
C1391 H1414 0.950 . S
C1392 C1391 1.349 . S
C1392 C1404 1.349 . S
C1393 C1391 1.327 . S
C1393 C1409 1.429 . S
C1393 H1415 0.950 . S
C1394 H1390 0.949 . S
C1394 C1402 1.574 . S
C1394 C1410 1.368 . S
H1395 C1403 0.950 . S
H1396 C1401 0.950 . S
H1397 C1402 0.949 . S
H1398 C1404 0.950 . S
H1399 C1405 0.950 . S
H1400 C1406 0.949 . S
C1401 H1396 0.950 . S
C1401 C1403 1.327 . S
C1401 C1407 1.429 . S
C1402 C1394 1.574 . S
C1402 H1397 0.949 . S
C1402 C1408 1.368 . S
C1403 C1387 1.349 . S
C1403 H1395 0.950 . S
C1403 C1401 1.327 . S
C1404 C1392 1.349 . S
C1404 H1398 0.950 . S
C1404 C1405 1.327 . S
C1405 H1399 0.950 . S
C1405 C1404 1.327 . S
C1405 C1409 1.429 . S
C1406 C1389 1.574 . S
C1406 H1400 0.949 . S
C1406 C1410 1.368 . S
C1407 C1388 1.429 . S
C1407 C1401 1.429 . S
C1407 C1408 1.523 . S
C1408 C1389 1.368 . S
C1408 C1402 1.368 . S
C1408 C1407 1.523 . S
C1409 C1393 1.429 . S
C1409 C1405 1.429 . S
C1409 C1410 1.523 . S
C1410 C1394 1.368 . S
C1410 C1406 1.368 . S
C1410 C1409 1.523 . S
H1411 C1386 0.950 . S
H1412 C1388 0.950 . S
H1413 C1389 0.949 . S
H1414 C1391 0.950 . S
H1415 C1393 0.950 . S
C1416 C1417 1.349 . S
C1416 C1418 1.327 . S
C1416 H1441 0.950 . S
C1417 C1416 1.349 . S
C1417 C1433 1.349 . S
C1418 C1416 1.327 . S
C1418 C1437 1.429 . S
C1418 H1442 0.950 . S
C1419 C1436 1.574 . S
C1419 C1438 1.368 . S
C1419 H1443 0.949 . S
H1420 C1424 0.949 . S
C1421 C1422 1.349 . S
C1421 C1423 1.327 . S
C1421 H1444 0.950 . S
C1422 C1421 1.349 . S
C1422 C1434 1.349 . S
C1423 C1421 1.327 . S
C1423 C1439 1.429 . S
C1423 H1445 0.950 . S
C1424 H1420 0.949 . S
C1424 C1432 1.574 . S
C1424 C1440 1.368 . S
H1425 C1433 0.950 . S
H1426 C1431 0.950 . S
H1427 C1432 0.949 . S
H1428 C1434 0.950 . S
H1429 C1435 0.950 . S
H1430 C1436 0.949 . S
C1431 H1426 0.950 . S
C1431 C1433 1.327 . S
C1431 C1437 1.429 . S
C1432 C1424 1.574 . S
C1432 H1427 0.949 . S
C1432 C1438 1.368 . S
C1433 C1417 1.349 . S
C1433 H1425 0.950 . S
C1433 C1431 1.327 . S
C1434 C1422 1.349 . S
C1434 H1428 0.950 . S
C1434 C1435 1.327 . S
C1435 H1429 0.950 . S
C1435 C1434 1.327 . S
C1435 C1439 1.429 . S
C1436 C1419 1.574 . S
C1436 H1430 0.949 . S
C1436 C1440 1.368 . S
C1437 C1418 1.429 . S
C1437 C1431 1.429 . S
C1437 C1438 1.523 . S
C1438 C1419 1.368 . S
C1438 C1432 1.368 . S
C1438 C1437 1.523 . S
C1439 C1423 1.429 . S
C1439 C1435 1.429 . S
C1439 C1440 1.523 . S
C1440 C1424 1.368 . S
C1440 C1436 1.368 . S
C1440 C1439 1.523 . S
H1441 C1416 0.950 . S
H1442 C1418 0.950 . S
H1443 C1419 0.949 . S
H1444 C1421 0.950 . S
H1445 C1423 0.950 . S
C1446 C1447 1.349 . S
C1446 C1448 1.327 . S
C1446 H1471 0.950 . S
C1447 C1446 1.349 . S
C1447 C1463 1.349 . S
C1448 C1446 1.327 . S
C1448 C1467 1.429 . S
C1448 H1472 0.950 . S
C1449 C1466 1.574 . S
C1449 C1468 1.368 . S
C1449 H1473 0.949 . S
H1450 C1454 0.949 . S
C1451 C1452 1.349 . S
C1451 C1453 1.327 . S
C1451 H1474 0.950 . S
C1452 C1451 1.349 . S
C1452 C1464 1.349 . S
C1453 C1451 1.327 . S
C1453 C1469 1.429 . S
C1453 H1475 0.950 . S
C1454 H1450 0.949 . S
C1454 C1462 1.574 . S
C1454 C1470 1.368 . S
H1455 C1463 0.950 . S
H1456 C1461 0.950 . S
H1457 C1462 0.949 . S
H1458 C1464 0.950 . S
H1459 C1465 0.950 . S
H1460 C1466 0.949 . S
C1461 H1456 0.950 . S
C1461 C1463 1.327 . S
C1461 C1467 1.429 . S
C1462 C1454 1.574 . S
C1462 H1457 0.949 . S
C1462 C1468 1.368 . S
C1463 C1447 1.349 . S
C1463 H1455 0.950 . S
C1463 C1461 1.327 . S
C1464 C1452 1.349 . S
C1464 H1458 0.950 . S
C1464 C1465 1.327 . S
C1465 H1459 0.950 . S
C1465 C1464 1.327 . S
C1465 C1469 1.429 . S
C1466 C1449 1.574 . S
C1466 H1460 0.949 . S
C1466 C1470 1.368 . S
C1467 C1448 1.429 . S
C1467 C1461 1.429 . S
C1467 C1468 1.523 . S
C1468 C1449 1.368 . S
C1468 C1462 1.368 . S
C1468 C1467 1.523 . S
C1469 C1453 1.429 . S
C1469 C1465 1.429 . S
C1469 C1470 1.523 . S
C1470 C1454 1.368 . S
C1470 C1466 1.368 . S
C1470 C1469 1.523 . S
H1471 C1446 0.950 . S
H1472 C1448 0.950 . S
H1473 C1449 0.949 . S
H1474 C1451 0.950 . S
H1475 C1453 0.950 . S
C1476 C1477 1.349 . S
C1476 C1478 1.327 . S
C1476 H1501 0.950 . S
C1477 C1476 1.349 . S
C1477 C1493 1.349 . S
C1478 C1476 1.327 . S
C1478 C1497 1.429 . S
C1478 H1502 0.950 . S
C1479 C1496 1.574 . S
C1479 C1498 1.368 . S
C1479 H1503 0.949 . S
H1480 C1484 0.949 . S
C1481 C1482 1.349 . S
C1481 C1483 1.327 . S
C1481 H1504 0.950 . S
C1482 C1481 1.349 . S
C1482 C1494 1.349 . S
C1483 C1481 1.327 . S
C1483 C1499 1.429 . S
C1483 H1505 0.950 . S
C1484 H1480 0.949 . S
C1484 C1492 1.574 . S
C1484 C1500 1.368 . S
H1485 C1493 0.950 . S
H1486 C1491 0.950 . S
H1487 C1492 0.949 . S
H1488 C1494 0.950 . S
H1489 C1495 0.950 . S
H1490 C1496 0.949 . S
C1491 H1486 0.950 . S
C1491 C1493 1.327 . S
C1491 C1497 1.429 . S
C1492 C1484 1.574 . S
C1492 H1487 0.949 . S
C1492 C1498 1.368 . S
C1493 C1477 1.349 . S
C1493 H1485 0.950 . S
C1493 C1491 1.327 . S
C1494 C1482 1.349 . S
C1494 H1488 0.950 . S
C1494 C1495 1.327 . S
C1495 H1489 0.950 . S
C1495 C1494 1.327 . S
C1495 C1499 1.429 . S
C1496 C1479 1.574 . S
C1496 H1490 0.949 . S
C1496 C1500 1.368 . S
C1497 C1478 1.429 . S
C1497 C1491 1.429 . S
C1497 C1498 1.523 . S
C1498 C1479 1.368 . S
C1498 C1492 1.368 . S
C1498 C1497 1.523 . S
C1499 C1483 1.429 . S
C1499 C1495 1.429 . S
C1499 C1500 1.523 . S
C1500 C1484 1.368 . S
C1500 C1496 1.368 . S
C1500 C1499 1.523 . S
H1501 C1476 0.950 . S
H1502 C1478 0.950 . S
H1503 C1479 0.949 . S
H1504 C1481 0.950 . S
H1505 C1483 0.950 . S
C1506 C1507 1.349 . S
C1506 C1508 1.327 . S
C1506 H1531 0.950 . S
C1507 C1506 1.349 . S
C1507 C1523 1.349 . S
C1508 C1506 1.327 . S
C1508 C1527 1.429 . S
C1508 H1532 0.950 . S
C1509 C1526 1.574 . S
C1509 C1528 1.368 . S
C1509 H1533 0.949 . S
H1510 C1514 0.949 . S
C1511 C1512 1.349 . S
C1511 C1513 1.327 . S
C1511 H1534 0.950 . S
C1512 C1511 1.349 . S
C1512 C1524 1.349 . S
C1513 C1511 1.327 . S
C1513 C1529 1.429 . S
C1513 H1535 0.950 . S
C1514 H1510 0.949 . S
C1514 C1522 1.574 . S
C1514 C1530 1.368 . S
H1515 C1523 0.950 . S
H1516 C1521 0.950 . S
H1517 C1522 0.949 . S
H1518 C1524 0.950 . S
H1519 C1525 0.950 . S
H1520 C1526 0.949 . S
C1521 H1516 0.950 . S
C1521 C1523 1.327 . S
C1521 C1527 1.429 . S
C1522 C1514 1.574 . S
C1522 H1517 0.949 . S
C1522 C1528 1.368 . S
C1523 C1507 1.349 . S
C1523 H1515 0.950 . S
C1523 C1521 1.327 . S
C1524 C1512 1.349 . S
C1524 H1518 0.950 . S
C1524 C1525 1.327 . S
C1525 H1519 0.950 . S
C1525 C1524 1.327 . S
C1525 C1529 1.429 . S
C1526 C1509 1.574 . S
C1526 H1520 0.949 . S
C1526 C1530 1.368 . S
C1527 C1508 1.429 . S
C1527 C1521 1.429 . S
C1527 C1528 1.523 . S
C1528 C1509 1.368 . S
C1528 C1522 1.368 . S
C1528 C1527 1.523 . S
C1529 C1513 1.429 . S
C1529 C1525 1.429 . S
C1529 C1530 1.523 . S
C1530 C1514 1.368 . S
C1530 C1526 1.368 . S
C1530 C1529 1.523 . S
H1531 C1506 0.950 . S
H1532 C1508 0.950 . S
H1533 C1509 0.949 . S
H1534 C1511 0.950 . S
H1535 C1513 0.950 . S
C1536 C1537 1.349 . S
C1536 C1538 1.327 . S
C1536 H1561 0.950 . S
C1537 C1536 1.349 . S
C1537 C1553 1.349 . S
C1538 C1536 1.327 . S
C1538 C1557 1.429 . S
C1538 H1562 0.950 . S
C1539 C1556 1.574 . S
C1539 C1558 1.368 . S
C1539 H1563 0.949 . S
H1540 C1544 0.949 . S
C1541 C1542 1.349 . S
C1541 C1543 1.327 . S
C1541 H1564 0.950 . S
C1542 C1541 1.349 . S
C1542 C1554 1.349 . S
C1543 C1541 1.327 . S
C1543 C1559 1.429 . S
C1543 H1565 0.950 . S
C1544 H1540 0.949 . S
C1544 C1552 1.574 . S
C1544 C1560 1.368 . S
H1545 C1553 0.950 . S
H1546 C1551 0.950 . S
H1547 C1552 0.949 . S
H1548 C1554 0.950 . S
H1549 C1555 0.950 . S
H1550 C1556 0.949 . S
C1551 H1546 0.950 . S
C1551 C1553 1.327 . S
C1551 C1557 1.429 . S
C1552 C1544 1.574 . S
C1552 H1547 0.949 . S
C1552 C1558 1.368 . S
C1553 C1537 1.349 . S
C1553 H1545 0.950 . S
C1553 C1551 1.327 . S
C1554 C1542 1.349 . S
C1554 H1548 0.950 . S
C1554 C1555 1.327 . S
C1555 H1549 0.950 . S
C1555 C1554 1.327 . S
C1555 C1559 1.429 . S
C1556 C1539 1.574 . S
C1556 H1550 0.949 . S
C1556 C1560 1.368 . S
C1557 C1538 1.429 . S
C1557 C1551 1.429 . S
C1557 C1558 1.523 . S
C1558 C1539 1.368 . S
C1558 C1552 1.368 . S
C1558 C1557 1.523 . S
C1559 C1543 1.429 . S
C1559 C1555 1.429 . S
C1559 C1560 1.523 . S
C1560 C1544 1.368 . S
C1560 C1556 1.368 . S
C1560 C1559 1.523 . S
H1561 C1536 0.950 . S
H1562 C1538 0.950 . S
H1563 C1539 0.949 . S
H1564 C1541 0.950 . S
H1565 C1543 0.950 . S
C1566 C1567 1.349 . S
C1566 C1568 1.327 . S
C1566 H1591 0.950 . S
C1567 C1566 1.349 . S
C1567 C1583 1.349 . S
C1568 C1566 1.327 . S
C1568 C1587 1.429 . S
C1568 H1592 0.950 . S
C1569 C1586 1.574 . S
C1569 C1588 1.368 . S
C1569 H1593 0.949 . S
H1570 C1574 0.949 . S
C1571 C1572 1.349 . S
C1571 C1573 1.327 . S
C1571 H1594 0.950 . S
C1572 C1571 1.349 . S
C1572 C1584 1.349 . S
C1573 C1571 1.327 . S
C1573 C1589 1.429 . S
C1573 H1595 0.950 . S
C1574 H1570 0.949 . S
C1574 C1582 1.574 . S
C1574 C1590 1.368 . S
H1575 C1583 0.950 . S
H1576 C1581 0.950 . S
H1577 C1582 0.949 . S
H1578 C1584 0.950 . S
H1579 C1585 0.950 . S
H1580 C1586 0.949 . S
C1581 H1576 0.950 . S
C1581 C1583 1.327 . S
C1581 C1587 1.429 . S
C1582 C1574 1.574 . S
C1582 H1577 0.949 . S
C1582 C1588 1.368 . S
C1583 C1567 1.349 . S
C1583 H1575 0.950 . S
C1583 C1581 1.327 . S
C1584 C1572 1.349 . S
C1584 H1578 0.950 . S
C1584 C1585 1.327 . S
C1585 H1579 0.950 . S
C1585 C1584 1.327 . S
C1585 C1589 1.429 . S
C1586 C1569 1.574 . S
C1586 H1580 0.949 . S
C1586 C1590 1.368 . S
C1587 C1568 1.429 . S
C1587 C1581 1.429 . S
C1587 C1588 1.523 . S
C1588 C1569 1.368 . S
C1588 C1582 1.368 . S
C1588 C1587 1.523 . S
C1589 C1573 1.429 . S
C1589 C1585 1.429 . S
C1589 C1590 1.523 . S
C1590 C1574 1.368 . S
C1590 C1586 1.368 . S
C1590 C1589 1.523 . S
H1591 C1566 0.950 . S
H1592 C1568 0.950 . S
H1593 C1569 0.949 . S
H1594 C1571 0.950 . S
H1595 C1573 0.950 . S
C1596 C1597 1.349 . S
C1596 C1598 1.327 . S
C1596 H1621 0.950 . S
C1597 C1596 1.349 . S
C1597 C1613 1.349 . S
C1598 C1596 1.327 . S
C1598 C1617 1.429 . S
C1598 H1622 0.950 . S
C1599 C1616 1.574 . S
C1599 C1618 1.368 . S
C1599 H1623 0.949 . S
H1600 C1604 0.949 . S
C1601 C1602 1.349 . S
C1601 C1603 1.327 . S
C1601 H1624 0.950 . S
C1602 C1601 1.349 . S
C1602 C1614 1.349 . S
C1603 C1601 1.327 . S
C1603 C1619 1.429 . S
C1603 H1625 0.950 . S
C1604 H1600 0.949 . S
C1604 C1612 1.574 . S
C1604 C1620 1.368 . S
H1605 C1613 0.950 . S
H1606 C1611 0.950 . S
H1607 C1612 0.949 . S
H1608 C1614 0.950 . S
H1609 C1615 0.950 . S
H1610 C1616 0.949 . S
C1611 H1606 0.950 . S
C1611 C1613 1.327 . S
C1611 C1617 1.429 . S
C1612 C1604 1.574 . S
C1612 H1607 0.949 . S
C1612 C1618 1.368 . S
C1613 C1597 1.349 . S
C1613 H1605 0.950 . S
C1613 C1611 1.327 . S
C1614 C1602 1.349 . S
C1614 H1608 0.950 . S
C1614 C1615 1.327 . S
C1615 H1609 0.950 . S
C1615 C1614 1.327 . S
C1615 C1619 1.429 . S
C1616 C1599 1.574 . S
C1616 H1610 0.949 . S
C1616 C1620 1.368 . S
C1617 C1598 1.429 . S
C1617 C1611 1.429 . S
C1617 C1618 1.523 . S
C1618 C1599 1.368 . S
C1618 C1612 1.368 . S
C1618 C1617 1.523 . S
C1619 C1603 1.429 . S
C1619 C1615 1.429 . S
C1619 C1620 1.523 . S
C1620 C1604 1.368 . S
C1620 C1616 1.368 . S
C1620 C1619 1.523 . S
H1621 C1596 0.950 . S
H1622 C1598 0.950 . S
H1623 C1599 0.949 . S
H1624 C1601 0.950 . S
H1625 C1603 0.950 . S
C1626 C1627 1.349 . S
C1626 C1628 1.327 . S
C1626 H1651 0.950 . S
C1627 C1626 1.349 . S
C1627 C1643 1.349 . S
C1628 C1626 1.327 . S
C1628 C1647 1.429 . S
C1628 H1652 0.950 . S
C1629 C1646 1.574 . S
C1629 C1648 1.368 . S
C1629 H1653 0.949 . S
H1630 C1634 0.949 . S
C1631 C1632 1.349 . S
C1631 C1633 1.327 . S
C1631 H1654 0.950 . S
C1632 C1631 1.349 . S
C1632 C1644 1.349 . S
C1633 C1631 1.327 . S
C1633 C1649 1.429 . S
C1633 H1655 0.950 . S
C1634 H1630 0.949 . S
C1634 C1642 1.574 . S
C1634 C1650 1.368 . S
H1635 C1643 0.950 . S
H1636 C1641 0.950 . S
H1637 C1642 0.949 . S
H1638 C1644 0.950 . S
H1639 C1645 0.950 . S
H1640 C1646 0.949 . S
C1641 H1636 0.950 . S
C1641 C1643 1.327 . S
C1641 C1647 1.429 . S
C1642 C1634 1.574 . S
C1642 H1637 0.949 . S
C1642 C1648 1.368 . S
C1643 C1627 1.349 . S
C1643 H1635 0.950 . S
C1643 C1641 1.327 . S
C1644 C1632 1.349 . S
C1644 H1638 0.950 . S
C1644 C1645 1.327 . S
C1645 H1639 0.950 . S
C1645 C1644 1.327 . S
C1645 C1649 1.429 . S
C1646 C1629 1.574 . S
C1646 H1640 0.949 . S
C1646 C1650 1.368 . S
C1647 C1628 1.429 . S
C1647 C1641 1.429 . S
C1647 C1648 1.523 . S
C1648 C1629 1.368 . S
C1648 C1642 1.368 . S
C1648 C1647 1.523 . S
C1649 C1633 1.429 . S
C1649 C1645 1.429 . S
C1649 C1650 1.523 . S
C1650 C1634 1.368 . S
C1650 C1646 1.368 . S
C1650 C1649 1.523 . S
H1651 C1626 0.950 . S
H1652 C1628 0.950 . S
H1653 C1629 0.949 . S
H1654 C1631 0.950 . S
H1655 C1633 0.950 . S
C1656 C1657 1.349 . S
C1656 C1658 1.327 . S
C1656 H1681 0.950 . S
C1657 C1656 1.349 . S
C1657 C1673 1.349 . S
C1658 C1656 1.327 . S
C1658 C1677 1.429 . S
C1658 H1682 0.950 1_556 S
C1659 C1676 1.574 . S
C1659 C1678 1.368 . S
C1659 H1683 0.949 . S
H1660 C1664 0.949 . S
C1661 C1662 1.349 . S
C1661 C1663 1.327 . S
C1661 H1684 0.950 . S
C1662 C1661 1.349 . S
C1662 C1674 1.349 . S
C1663 C1661 1.327 . S
C1663 C1679 1.429 . S
C1663 H1685 0.950 1_554 S
C1664 H1660 0.949 . S
C1664 C1672 1.574 . S
C1664 C1680 1.368 . S
H1665 C1673 0.950 . S
H1666 C1671 0.950 . S
H1667 C1672 0.949 . S
H1668 C1674 0.950 . S
H1669 C1675 0.950 . S
H1670 C1676 0.949 . S
C1671 H1666 0.950 . S
C1671 C1673 1.327 . S
C1671 C1677 1.429 . S
C1672 C1664 1.574 . S
C1672 H1667 0.949 . S
C1672 C1678 1.368 1_554 S
C1673 C1657 1.349 . S
C1673 H1665 0.950 . S
C1673 C1671 1.327 . S
C1674 C1662 1.349 . S
C1674 H1668 0.950 . S
C1674 C1675 1.327 . S
C1675 H1669 0.950 . S
C1675 C1674 1.327 . S
C1675 C1679 1.429 . S
C1676 C1659 1.574 . S
C1676 H1670 0.949 . S
C1676 C1680 1.368 1_556 S
C1677 C1658 1.429 . S
C1677 C1671 1.429 . S
C1677 C1678 1.523 . S
C1678 C1659 1.368 . S
C1678 C1672 1.368 1_556 S
C1678 C1677 1.523 . S
C1679 C1663 1.429 . S
C1679 C1675 1.429 . S
C1679 C1680 1.523 . S
C1680 C1664 1.368 . S
C1680 C1676 1.368 1_554 S
C1680 C1679 1.523 . S
H1681 C1656 0.950 . S
H1682 C1658 0.950 1_554 S
H1683 C1659 0.949 . S
H1684 C1661 0.950 . S
H1685 C1663 0.950 1_556 S
C1686 C1687 1.349 . S
C1686 C1688 1.327 . S
C1686 H1711 0.950 . S
C1687 C1686 1.349 . S
C1687 C1703 1.349 . S
C1688 C1686 1.327 . S
C1688 C1707 1.429 . S
C1688 H1712 0.950 . S
C1689 C1706 1.574 . S
C1689 C1708 1.368 . S
C1689 H1713 0.949 . S
H1690 C1694 0.949 . S
C1691 C1692 1.349 . S
C1691 C1693 1.327 . S
C1691 H1714 0.950 . S
C1692 C1691 1.349 . S
C1692 C1704 1.349 . S
C1693 C1691 1.327 . S
C1693 C1709 1.429 . S
C1693 H1715 0.950 . S
C1694 H1690 0.949 . S
C1694 C1702 1.574 . S
C1694 C1710 1.368 . S
H1695 C1703 0.950 . S
H1696 C1701 0.950 . S
H1697 C1702 0.949 . S
H1698 C1704 0.950 . S
H1699 C1705 0.950 . S
H1700 C1706 0.949 . S
C1701 H1696 0.950 . S
C1701 C1703 1.327 . S
C1701 C1707 1.429 . S
C1702 C1694 1.574 . S
C1702 H1697 0.949 . S
C1702 C1708 1.368 . S
C1703 C1687 1.349 . S
C1703 H1695 0.950 . S
C1703 C1701 1.327 . S
C1704 C1692 1.349 . S
C1704 H1698 0.950 . S
C1704 C1705 1.327 . S
C1705 H1699 0.950 . S
C1705 C1704 1.327 . S
C1705 C1709 1.429 . S
C1706 C1689 1.574 . S
C1706 H1700 0.949 . S
C1706 C1710 1.368 . S
C1707 C1688 1.429 . S
C1707 C1701 1.429 . S
C1707 C1708 1.523 . S
C1708 C1689 1.368 . S
C1708 C1702 1.368 . S
C1708 C1707 1.523 . S
C1709 C1693 1.429 . S
C1709 C1705 1.429 . S
C1709 C1710 1.523 . S
C1710 C1694 1.368 . S
C1710 C1706 1.368 . S
C1710 C1709 1.523 . S
H1711 C1686 0.950 . S
H1712 C1688 0.950 . S
H1713 C1689 0.949 . S
H1714 C1691 0.950 . S
H1715 C1693 0.950 . S
C1716 C1717 1.349 . S
C1716 C1718 1.327 . S
C1716 H1741 0.950 . S
C1717 C1716 1.349 . S
C1717 C1733 1.349 . S
C1718 C1716 1.327 . S
C1718 C1737 1.429 . S
C1718 H1742 0.950 . S
C1719 C1736 1.574 . S
C1719 C1738 1.368 . S
C1719 H1743 0.949 . S
H1720 C1724 0.949 . S
C1721 C1722 1.349 . S
C1721 C1723 1.327 . S
C1721 H1744 0.950 . S
C1722 C1721 1.349 . S
C1722 C1734 1.349 . S
C1723 C1721 1.327 . S
C1723 C1739 1.429 . S
C1723 H1745 0.950 . S
C1724 H1720 0.949 . S
C1724 C1732 1.574 . S
C1724 C1740 1.368 . S
H1725 C1733 0.950 . S
H1726 C1731 0.950 . S
H1727 C1732 0.949 . S
H1728 C1734 0.950 . S
H1729 C1735 0.950 . S
H1730 C1736 0.949 . S
C1731 H1726 0.950 . S
C1731 C1733 1.327 . S
C1731 C1737 1.429 . S
C1732 C1724 1.574 . S
C1732 H1727 0.949 . S
C1732 C1738 1.368 . S
C1733 C1717 1.349 . S
C1733 H1725 0.950 . S
C1733 C1731 1.327 . S
C1734 C1722 1.349 . S
C1734 H1728 0.950 . S
C1734 C1735 1.327 . S
C1735 H1729 0.950 . S
C1735 C1734 1.327 . S
C1735 C1739 1.429 . S
C1736 C1719 1.574 . S
C1736 H1730 0.949 . S
C1736 C1740 1.368 . S
C1737 C1718 1.429 . S
C1737 C1731 1.429 . S
C1737 C1738 1.523 . S
C1738 C1719 1.368 . S
C1738 C1732 1.368 . S
C1738 C1737 1.523 . S
C1739 C1723 1.429 . S
C1739 C1735 1.429 . S
C1739 C1740 1.523 . S
C1740 C1724 1.368 . S
C1740 C1736 1.368 . S
C1740 C1739 1.523 . S
H1741 C1716 0.950 . S
H1742 C1718 0.950 . S
H1743 C1719 0.949 . S
H1744 C1721 0.950 . S
H1745 C1723 0.950 . S
C1746 C1747 1.349 . S
C1746 C1748 1.327 . S
C1746 H1771 0.950 . S
C1747 C1746 1.349 . S
C1747 C1763 1.349 . S
C1748 C1746 1.327 . S
C1748 C1767 1.429 . S
C1748 H1772 0.950 1_554 S
C1749 C1766 1.574 . S
C1749 C1768 1.368 . S
C1749 H1773 0.949 . S
H1750 C1754 0.949 . S
C1751 C1752 1.349 . S
C1751 C1753 1.327 . S
C1751 H1774 0.950 . S
C1752 C1751 1.349 . S
C1752 C1764 1.349 . S
C1753 C1751 1.327 . S
C1753 C1769 1.429 . S
C1753 H1775 0.950 1_556 S
C1754 H1750 0.949 . S
C1754 C1762 1.574 . S
C1754 C1770 1.368 . S
H1755 C1763 0.950 . S
H1756 C1761 0.950 . S
H1757 C1762 0.949 . S
H1758 C1764 0.950 . S
H1759 C1765 0.950 . S
H1760 C1766 0.949 . S
C1761 H1756 0.950 . S
C1761 C1763 1.327 . S
C1761 C1767 1.429 . S
C1762 C1754 1.574 . S
C1762 H1757 0.949 . S
C1762 C1768 1.368 1_556 S
C1763 C1747 1.349 . S
C1763 H1755 0.950 . S
C1763 C1761 1.327 . S
C1764 C1752 1.349 . S
C1764 H1758 0.950 . S
C1764 C1765 1.327 . S
C1765 H1759 0.950 . S
C1765 C1764 1.327 . S
C1765 C1769 1.429 . S
C1766 C1749 1.574 . S
C1766 H1760 0.949 . S
C1766 C1770 1.368 1_554 S
C1767 C1748 1.429 . S
C1767 C1761 1.429 . S
C1767 C1768 1.523 . S
C1768 C1749 1.368 . S
C1768 C1762 1.368 1_554 S
C1768 C1767 1.523 . S
C1769 C1753 1.429 . S
C1769 C1765 1.429 . S
C1769 C1770 1.523 . S
C1770 C1754 1.368 . S
C1770 C1766 1.368 1_556 S
C1770 C1769 1.523 . S
H1771 C1746 0.950 . S
H1772 C1748 0.950 1_556 S
H1773 C1749 0.949 . S
H1774 C1751 0.950 . S
H1775 C1753 0.950 1_554 S
C1057 C29 1.320 . S
C1062 C849 1.320 . S
C1087 C117 1.321 . S
C1092 C937 1.321 . S
C1117 C196 1.321 . S
C1122 C1017 1.321 . S
C1147 C293 1.320 . S
C1152 C585 1.320 . S
C1177 C665 1.321 . S
C1182 C381 1.321 . S
C1207 C761 1.321 . S
C1212 C469 1.321 . S
C1237 C909 2.037 . S
C1242 C57 2.037 . S
C1267 C145 2.037 . S
C1272 C988 2.037 . S
C1297 C225 2.037 . S
C1302 C557 2.037 . S
C1327 C321 2.037 . S
C1332 C636 2.037 . S
C1357 C409 2.037 . S
C1362 C733 2.037 . S
C1387 C497 2.037 . S
C1392 C821 2.037 . S
C1417 C929 0.277 . S
C1422 C20 0.277 . S
C1447 C108 0.277 . S
C1452 C1025 0.277 . S
C1477 C205 0.277 . S
C1482 C577 0.277 . S
C1507 C284 0.277 . S
C1512 C673 0.277 . S
C1537 C372 0.277 . S
C1542 C753 0.277 . S
C1567 C460 0.277 . S
C1572 C841 0.277 . S
C1597 C49 1.678 . S
C1602 C548 1.678 . S
C1627 C645 1.678 . S
C1632 C137 1.678 . S
C1657 C233 1.678 . S
C1662 C724 1.678 . S
C1687 C313 1.678 . S
C1692 C812 1.678 . S
C1717 C401 1.678 . S
C1722 C900 1.678 . S
C1747 C997 1.678 . S
C1752 C489 1.678 . S
