# Generated by pormake.
# Topology acs-h, (5)-cn, num edge types: 1
# Building blocks:
#     Node 0, Type 0, BuildingBlock: XOMCOT_clean_sbu_1, # of connection points: 5
#     Node 1, Type 0, BuildingBlock: XOMCOT_clean_sbu_1, # of connection points: 5
#     Node 2, Type 0, BuildingBlock: XOMCOT_clean_sbu_1, # of connection points: 5
#     Node 3, Type 0, BuildingBlock: XOMCOT_clean_sbu_1, # of connection points: 5
#     Node 4, Type 0, BuildingBlock: XOMCOT_clean_sbu_1, # of connection points: 5
#     Node 5, Type 0, BuildingBlock: XOMCOT_clean_sbu_1, # of connection points: 5
#     Node 6, Type 0, BuildingBlock: XOMCOT_clean_sbu_1, # of connection points: 5
#     Node 7, Type 0, BuildingBlock: XOMCOT_clean_sbu_1, # of connection points: 5
#     Node 8, Type 0, BuildingBlock: XOMCOT_clean_sbu_1, # of connection points: 5
#     Node 9, Type 0, BuildingBlock: XOMCOT_clean_sbu_1, # of connection points: 5
#     Node 10, Type 0, BuildingBlock: XOMCOT_clean_sbu_1, # of connection points: 5
#     Node 11, Type 0, BuildingBlock: XOMCOT_clean_sbu_1, # of connection points: 5
#     Edge 12, Type (0, 0), BuildingBlock: XUDNAN_clean_linker_2, # of connection points: 2
#     Edge 13, Type (0, 0), BuildingBlock: XUDNAN_clean_linker_2, # of connection points: 2
#     Edge 14, Type (0, 0), BuildingBlock: XUDNAN_clean_linker_2, # of connection points: 2
#     Edge 15, Type (0, 0), BuildingBlock: XUDNAN_clean_linker_2, # of connection points: 2
#     Edge 16, Type (0, 0), BuildingBlock: XUDNAN_clean_linker_2, # of connection points: 2
#     Edge 17, Type (0, 0), BuildingBlock: XUDNAN_clean_linker_2, # of connection points: 2
#     Edge 18, Type (0, 0), BuildingBlock: XUDNAN_clean_linker_2, # of connection points: 2
#     Edge 19, Type (0, 0), BuildingBlock: XUDNAN_clean_linker_2, # of connection points: 2
#     Edge 20, Type (0, 0), BuildingBlock: XUDNAN_clean_linker_2, # of connection points: 2
#     Edge 21, Type (0, 0), BuildingBlock: XUDNAN_clean_linker_2, # of connection points: 2
#     Edge 22, Type (0, 0), BuildingBlock: XUDNAN_clean_linker_2, # of connection points: 2
#     Edge 23, Type (0, 0), BuildingBlock: XUDNAN_clean_linker_2, # of connection points: 2
#     Edge 24, Type (0, 0), BuildingBlock: XUDNAN_clean_linker_2, # of connection points: 2
#     Edge 25, Type (0, 0), BuildingBlock: XUDNAN_clean_linker_2, # of connection points: 2
#     Edge 26, Type (0, 0), BuildingBlock: XUDNAN_clean_linker_2, # of connection points: 2
#     Edge 27, Type (0, 0), BuildingBlock: XUDNAN_clean_linker_2, # of connection points: 2
#     Edge 28, Type (0, 0), BuildingBlock: XUDNAN_clean_linker_2, # of connection points: 2
#     Edge 29, Type (0, 0), BuildingBlock: XUDNAN_clean_linker_2, # of connection points: 2
#     Edge 30, Type (0, 0), BuildingBlock: XUDNAN_clean_linker_2, # of connection points: 2
#     Edge 31, Type (0, 0), BuildingBlock: XUDNAN_clean_linker_2, # of connection points: 2
#     Edge 32, Type (0, 0), BuildingBlock: XUDNAN_clean_linker_2, # of connection points: 2
#     Edge 33, Type (0, 0), BuildingBlock: XUDNAN_clean_linker_2, # of connection points: 2
#     Edge 34, Type (0, 0), BuildingBlock: XUDNAN_clean_linker_2, # of connection points: 2
#     Edge 35, Type (0, 0), BuildingBlock: XUDNAN_clean_linker_2, # of connection points: 2
#     Edge 36, Type (0, 0), BuildingBlock: XUDNAN_clean_linker_2, # of connection points: 2
#     Edge 37, Type (0, 0), BuildingBlock: XUDNAN_clean_linker_2, # of connection points: 2
#     Edge 38, Type (0, 0), BuildingBlock: XUDNAN_clean_linker_2, # of connection points: 2
#     Edge 39, Type (0, 0), BuildingBlock: XUDNAN_clean_linker_2, # of connection points: 2
#     Edge 40, Type (0, 0), BuildingBlock: XUDNAN_clean_linker_2, # of connection points: 2
#     Edge 41, Type (0, 0), BuildingBlock: XUDNAN_clean_linker_2, # of connection points: 2
# Relax obj value: 0.905
# Max RMSD: 0.277
# Mean RMSD: 0.277
data_MOF--net-acs-h--node1-XOMCOT_clean_sbu_1--edge1-XUDNAN_clean_linker_2
_symmetry_space_group_name_H-M    P1
_symmetry_Int_Tables_number       1
_symmetry_cell_setting            triclinic
loop_
_symmetry_equiv_pos_as_xyz
'x, y, z'
_cell_length_a     47.559029
_cell_length_b     47.595024
_cell_length_c     39.652417
_cell_angle_alpha  89.930412
_cell_angle_beta   90.032849
_cell_angle_gamma 120.03718
loop_
_atom_site_label
_atom_site_type_symbol
_atom_site_fract_x
_atom_site_fract_y
_atom_site_fract_z
_atom_type_partial_charge
C0 C 0.50747 0.14669 0.05076 0.0
C1 C 0.53862 0.1548 0.04195 0.0
N2 N 0.55687 0.16359 0.07014 0.0
N3 N 0.50613 0.15015 0.08435 0.0
C4 C 0.5367 0.1609 0.09537 0.0
H5 H 0.48676 0.13754 0.03403 0.0
Co6 Co 0.46829 0.1371 0.1088 0.0
C7 C 0.48659 0.1216 0.17703 0.0
O8 O 0.45915 0.09461 0.18248 0.0
N9 N 0.42939 0.12359 0.13297 0.0
C10 C 0.38376 0.095 0.16263 0.0
C11 C 0.40784 0.09365 0.14484 0.0
C12 C 0.417 0.14233 0.14294 0.0
N13 N 0.38953 0.12556 0.16096 0.0
O14 O 0.48216 0.18146 0.11746 0.0
H15 H 0.40986 0.07216 0.14202 0.0
H16 H 0.42848 0.16817 0.13854 0.0
O17 O 0.49076 0.1377 0.14996 0.0
C18 C 0.48465 0.2008 0.09398 0.0
O19 O 0.47449 0.18926 0.06355 0.0
N20 N 0.45599 0.09433 0.09863 0.0
C21 C 0.443 0.03576 0.07046 0.0
C22 C 0.46664 0.05036 0.09555 0.0
C23 C 0.47336 0.08008 0.10873 0.0
C24 C 0.43222 0.08002 0.07487 0.0
C25 C 0.42532 0.05057 0.06027 0.0
H26 H 0.49417 0.09253 0.125 0.0
H27 H 0.41976 0.09241 0.06605 0.0
H28 H 0.5438 0.16498 0.12159 0.0
H29 H 0.54698 0.15358 0.0169 0.0
H30 H 0.36417 0.07542 0.17657 0.0
H31 H 0.48175 0.04028 0.10285 0.0
H32 H 0.40751 0.04026 0.04025 0.0
C33 C 0.80098 0.32701 0.08567 0.0
C34 C 0.79329 0.35122 0.08274 0.0
N35 N 0.81275 0.37542 0.10369 0.0
N36 N 0.82463 0.33582 0.10896 0.0
C37 C 0.83158 0.36569 0.1191 0.0
H38 H 0.78926 0.30405 0.07252 0.0
Co39 Co 0.84111 0.31094 0.12682 0.0
C40 C 0.84749 0.32746 0.20173 0.0
O41 O 0.8586 0.30829 0.21074 0.0
N42 N 0.85756 0.28533 0.14442 0.0
C43 C 0.88716 0.26211 0.15634 0.0
C44 C 0.88663 0.28726 0.1395 0.0
C45 C 0.8408 0.25854 0.16356 0.0
N46 N 0.85806 0.24398 0.1711 0.0
O47 O 0.79759 0.27629 0.13279 0.0
H48 H 0.90625 0.30557 0.12453 0.0
H49 H 0.81669 0.25051 0.17325 0.0
O50 O 0.84018 0.32859 0.171 0.0
C51 C 0.78755 0.25394 0.11071 0.0
O52 O 0.80836 0.25472 0.0884 0.0
N53 N 0.88302 0.34503 0.11837 0.0
C54 C 0.93465 0.40332 0.09582 0.0
C55 C 0.92966 0.3966 0.13047 0.0
C56 C 0.90387 0.36698 0.14127 0.0
C57 C 0.88964 0.34957 0.0848 0.0
C58 C 0.91549 0.37854 0.07292 0.0
H59 H 0.89989 0.36287 0.16792 0.0
H60 H 0.87322 0.33155 0.06706 0.0
H61 H 0.84898 0.37944 0.13864 0.0
H62 H 0.77446 0.35085 0.06705 0.0
H63 H 0.9072 0.25744 0.15751 0.0
H64 H 0.94404 0.41473 0.14916 0.0
H65 H 0.91926 0.38209 0.04597 0.0
C66 C 0.68813 0.47479 0.0694 0.0
C67 C 0.66934 0.44157 0.06645 0.0
N68 N 0.64254 0.43186 0.08528 0.0
N69 N 0.67296 0.48574 0.08976 0.0
C70 C 0.64512 0.45895 0.09885 0.0
H71 H 0.71171 0.49 0.05808 0.0
Co72 Co 0.68976 0.52871 0.10266 0.0
C73 C 0.64828 0.52642 0.16251 0.0
O74 O 0.65775 0.55749 0.16155 0.0
N75 N 0.70808 0.57214 0.11497 0.0
C76 C 0.73775 0.62607 0.11283 0.0
C77 C 0.71757 0.59827 0.09483 0.0
C78 C 0.72257 0.58457 0.14476 0.0
N79 N 0.74048 0.61716 0.14434 0.0
O80 O 0.71966 0.52399 0.13032 0.0
H81 H 0.7124 0.59707 0.06814 0.0
H82 H 0.7221 0.56975 0.16574 0.0
O83 O 0.65894 0.51418 0.14073 0.0
C84 C 0.74912 0.53622 0.12122 0.0
O85 O 0.76007 0.55738 0.09642 0.0
N86 N 0.66088 0.53192 0.07326 0.0
C87 C 0.6129 0.51463 0.02463 0.0
C88 C 0.60892 0.5239 0.05714 0.0
C89 C 0.63316 0.53221 0.08128 0.0
C90 C 0.66715 0.52785 0.04069 0.0
C91 C 0.64324 0.51842 0.01608 0.0
H92 H 0.6286 0.53716 0.10643 0.0
H93 H 0.68971 0.52868 0.03455 0.0
H94 H 0.62696 0.45906 0.11506 0.0
H95 H 0.67549 0.42566 0.05287 0.0
H96 H 0.75096 0.65057 0.10301 0.0
H97 H 0.58668 0.52323 0.06449 0.0
H98 H 0.6479 0.51193 0.99142 0.0
C99 C 0.83208 0.49474 0.43192 0.0
C100 C 0.82524 0.46412 0.44122 0.0
N101 N 0.82204 0.44717 0.41297 0.0
N102 N 0.83373 0.49712 0.39799 0.0
C103 C 0.82694 0.46748 0.38711 0.0
H104 H 0.83763 0.51468 0.44881 0.0
Co105 Co 0.85013 0.53612 0.37477 0.0
C106 C 0.87555 0.52473 0.31035 0.0
O107 O 0.90036 0.55445 0.31 0.0
N108 N 0.86672 0.57636 0.35186 0.0
C109 C 0.89707 0.62708 0.33265 0.0
C110 C 0.89663 0.60323 0.35272 0.0
C111 C 0.84965 0.58476 0.33099 0.0
N112 N 0.86731 0.61539 0.31935 0.0
O113 O 0.80716 0.52362 0.36117 0.0
H114 H 0.9173 0.60563 0.36648 0.0
H115 H 0.82476 0.56858 0.32363 0.0
O116 O 0.85484 0.51566 0.33423 0.0
C117 C 0.78939 0.52635 0.38336 0.0
O118 O 0.80229 0.53956 0.41255 0.0
N119 N 0.89118 0.54702 0.39124 0.0
C120 C 0.93516 0.54627 0.43696 0.0
C121 C 0.928 0.5287 0.40683 0.0
C122 C 0.90551 0.5289 0.3846 0.0
C123 C 0.89974 0.56623 0.4192 0.0
C124 C 0.92191 0.56639 0.44238 0.0
H125 H 0.89677 0.51114 0.36481 0.0
H126 H 0.88695 0.57906 0.42512 0.0
H127 H 0.82798 0.46147 0.36101 0.0
H128 H 0.82405 0.45538 0.4667 0.0
H129 H 0.91755 0.65112 0.32834 0.0
H130 H 0.93679 0.51199 0.4022 0.0
H131 H 0.92673 0.58019 0.46548 0.0
C132 C 0.5068 0.36823 0.42798 0.0
C133 C 0.53961 0.3899 0.43104 0.0
N134 N 0.55381 0.39234 0.40087 0.0
N135 N 0.50042 0.35729 0.39599 0.0
C136 C 0.52952 0.37186 0.38041 0.0
H137 H 0.48864 0.36188 0.44741 0.0
Co138 Co 0.4608 0.33136 0.37479 0.0
C139 C 0.48341 0.35397 0.30513 0.0
O140 O 0.47715 0.325 0.29551 0.0
N141 N 0.421 0.30576 0.35261 0.0
C142 C 0.37591 0.29147 0.32323 0.0
C143 C 0.39972 0.31518 0.34279 0.0
C144 C 0.40941 0.27613 0.33862 0.0
N145 N 0.38222 0.26702 0.3203 0.0
O146 O 0.4774 0.30466 0.3589 0.0
H147 H 0.40215 0.33863 0.34764 0.0
H148 H 0.42205 0.26256 0.33948 0.0
O149 O 0.47703 0.35851 0.33515 0.0
C150 C 0.47895 0.28614 0.38107 0.0
O151 O 0.46539 0.28384 0.41059 0.0
N152 N 0.44547 0.35719 0.39289 0.0
C153 C 0.42501 0.39444 0.42716 0.0
C154 C 0.44725 0.40781 0.40065 0.0
C155 C 0.45773 0.38897 0.38427 0.0
C156 C 0.4234 0.34356 0.41836 0.0
C157 C 0.41294 0.36197 0.43616 0.0
H158 H 0.4769 0.40057 0.36599 0.0
H159 H 0.41479 0.31862 0.42551 0.0
H160 H 0.53264 0.36766 0.35427 0.0
H161 H 0.5517 0.40365 0.45341 0.0
H162 H 0.35656 0.29301 0.31056 0.0
H163 H 0.45807 0.43327 0.39412 0.0
H164 H 0.39643 0.35132 0.45724 0.0
C165 C 0.66726 0.20169 0.44203 0.0
C166 C 0.64905 0.21687 0.44206 0.0
N167 N 0.63858 0.2164 0.41035 0.0
N168 N 0.66796 0.19146 0.41055 0.0
C169 C 0.65059 0.20111 0.39177 0.0
H170 H 0.67853 0.19753 0.4637 0.0
Co171 Co 0.68664 0.16686 0.39812 0.0
C172 C 0.65229 0.13598 0.3337 0.0
O173 O 0.64841 0.10748 0.34188 0.0
N174 N 0.70638 0.14267 0.38565 0.0
C175 C 0.73443 0.11657 0.38489 0.0
C176 C 0.71526 0.12447 0.40419 0.0
C177 C 0.72059 0.1455 0.35544 0.0
N178 N 0.73737 0.12965 0.35417 0.0
O179 O 0.72284 0.20504 0.38159 0.0
H180 H 0.71016 0.11884 0.43059 0.0
H181 H 0.72064 0.16098 0.33537 0.0
O182 O 0.66662 0.15986 0.35394 0.0
C183 C 0.74756 0.21873 0.40069 0.0
O184 O 0.74863 0.20314 0.42758 0.0
N185 N 0.65097 0.13065 0.41706 0.0
C186 C 0.59987 0.09158 0.46019 0.0
C187 C 0.59372 0.09826 0.42746 0.0
C188 C 0.6196 0.11839 0.4065 0.0
C189 C 0.65726 0.12407 0.4487 0.0
C190 C 0.63214 0.10405 0.47044 0.0
H191 H 0.61397 0.12641 0.38338 0.0
H192 H 0.6818 0.13679 0.45831 0.0
H193 H 0.64555 0.1959 0.36523 0.0
H194 H 0.64362 0.22709 0.46377 0.0
H195 H 0.74645 0.10356 0.39319 0.0
H196 H 0.56917 0.09021 0.41903 0.0
H197 H 0.63797 0.09988 0.49569 0.0
C198 C 0.48647 0.83708 0.93492 0.0
C199 C 0.45385 0.82629 0.93816 0.0
N200 N 0.43946 0.81525 0.90789 0.0
N201 N 0.49282 0.83318 0.90272 0.0
C202 C 0.46371 0.81931 0.88709 0.0
H203 H 0.50464 0.84834 0.95443 0.0
Co204 Co 0.53383 0.84904 0.88373 0.0
C205 C 0.52404 0.86217 0.81229 0.0
O206 O 0.55127 0.89015 0.81152 0.0
N207 N 0.57518 0.86464 0.86458 0.0
C208 C 0.6272 0.89139 0.84871 0.0
C209 C 0.60397 0.89236 0.86873 0.0
C210 C 0.58167 0.84752 0.84197 0.0
N211 N 0.613 0.86291 0.83226 0.0
O212 O 0.52528 0.80585 0.87965 0.0
H213 H 0.60824 0.9123 0.88492 0.0
H214 H 0.5634 0.82436 0.83192 0.0
O215 O 0.51551 0.84522 0.83916 0.0
C216 C 0.52474 0.79022 0.90588 0.0
O217 O 0.53221 0.80505 0.9352 0.0
N218 N 0.54099 0.89087 0.89051 0.0
C219 C 0.527 0.93085 0.92897 0.0
C220 C 0.51383 0.9215 0.89663 0.0
C221 C 0.52084 0.90106 0.87783 0.0
C222 C 0.55715 0.90322 0.92004 0.0
C223 C 0.55073 0.92361 0.93962 0.0
H224 H 0.50583 0.88968 0.85615 0.0
H225 H 0.57129 0.89341 0.93091 0.0
H226 H 0.46055 0.81298 0.8607 0.0
H227 H 0.44214 0.82773 0.96092 0.0
H228 H 0.65249 0.91001 0.84659 0.0
H229 H 0.49497 0.92617 0.88786 0.0
H230 H 0.56137 0.93047 0.96454 0.0
C231 C 0.16135 0.63924 0.95272 0.0
C232 C 0.17462 0.61937 0.95541 0.0
N233 N 0.18475 0.61626 0.92457 0.0
N234 N 0.1628 0.64835 0.92026 0.0
C235 C 0.178 0.63477 0.90411 0.0
H236 H 0.14998 0.64526 0.97286 0.0
Co237 Co 0.14357 0.66951 0.8988 0.0
C238 C 0.1418 0.64345 0.83071 0.0
O239 O 0.15911 0.67267 0.81783 0.0
N240 N 0.12395 0.69014 0.87655 0.0
C241 C 0.08841 0.6985 0.8481 0.0
C242 C 0.09219 0.67741 0.86873 0.0
C243 C 0.13881 0.71911 0.86061 0.0
N244 N 0.11786 0.72464 0.84277 0.0
O245 O 0.18458 0.69842 0.8791 0.0
H246 H 0.07302 0.65347 0.87575 0.0
H247 H 0.16485 0.73477 0.85968 0.0
O248 O 0.13292 0.63995 0.86148 0.0
C249 C 0.20426 0.71957 0.89972 0.0
O250 O 0.1936 0.72114 0.92984 0.0
N251 N 0.10485 0.64211 0.9209 0.0
C252 C 0.05976 0.60258 0.96858 0.0
C253 C 0.06204 0.58975 0.93758 0.0
C254 C 0.08507 0.60993 0.91407 0.0
C255 C 0.10078 0.65556 0.94944 0.0
C256 C 0.07848 0.63608 0.97396 0.0
H257 H 0.08817 0.59909 0.89163 0.0
H258 H 0.11696 0.68106 0.95445 0.0
H259 H 0.18329 0.63789 0.87746 0.0
H260 H 0.17516 0.60696 0.97805 0.0
H261 H 0.06599 0.69402 0.83636 0.0
H262 H 0.04816 0.5639 0.93272 0.0
H263 H 0.07727 0.64674 0.99765 0.0
C264 C 0.3638 0.5072 0.94815 0.0
C265 C 0.38404 0.53985 0.95477 0.0
N266 N 0.38405 0.55682 0.92752 0.0
N267 N 0.3516 0.50393 0.91675 0.0
C268 C 0.36324 0.53451 0.90563 0.0
H269 H 0.36081 0.48723 0.96376 0.0
Co270 Co 0.33169 0.46762 0.88863 0.0
C271 C 0.35291 0.50218 0.822 0.0
O272 O 0.32315 0.49055 0.81071 0.0
N273 N 0.31206 0.43189 0.85984 0.0
C274 C 0.30549 0.39891 0.81722 0.0
C275 C 0.32756 0.42167 0.83898 0.0
C276 C 0.28057 0.4147 0.85054 0.0
N277 N 0.27599 0.39477 0.82436 0.0
O278 O 0.2991 0.47855 0.87846 0.0
H279 H 0.35361 0.43191 0.83784 0.0
H280 H 0.26187 0.41903 0.86043 0.0
O281 O 0.35777 0.49397 0.85109 0.0
C282 C 0.28032 0.47714 0.90205 0.0
O283 O 0.28206 0.46546 0.93153 0.0
N284 N 0.36396 0.45744 0.89974 0.0
C285 C 0.41268 0.443 0.91305 0.0
C286 C 0.4203 0.47366 0.90122 0.0
C287 C 0.39572 0.48052 0.89527 0.0
C288 C 0.35594 0.42778 0.91279 0.0
C289 C 0.38016 0.41998 0.91975 0.0
H290 H 0.40239 0.50483 0.88796 0.0
H291 H 0.33073 0.41004 0.91738 0.0
H292 H 0.35848 0.5403 0.88066 0.0
H293 H 0.39983 0.54998 0.97642 0.0
H294 H 0.31109 0.38824 0.79601 0.0
H295 H 0.4453 0.49261 0.89749 0.0
H296 H 0.37365 0.39637 0.92996 0.0
C297 C 0.15846 0.51312 0.55026 0.0
C298 C 0.16488 0.54369 0.54149 0.0
N299 N 0.16677 0.55989 0.56998 0.0
N300 N 0.15612 0.51002 0.58406 0.0
C301 C 0.16151 0.53903 0.59549 0.0
H302 H 0.15474 0.49392 0.53308 0.0
Co303 Co 0.14339 0.47071 0.60482 0.0
C304 C 0.13494 0.47821 0.67807 0.0
O305 O 0.11249 0.44745 0.67983 0.0
N306 N 0.13061 0.42988 0.62418 0.0
C307 C 0.10387 0.37857 0.64227 0.0
C308 C 0.10206 0.4015 0.62258 0.0
C309 C 0.14948 0.42317 0.64422 0.0
N310 N 0.13384 0.39238 0.65555 0.0
O311 O 0.18766 0.48161 0.60641 0.0
H312 H 0.08076 0.39759 0.60897 0.0
H313 H 0.17375 0.44107 0.65209 0.0
O314 O 0.14867 0.49042 0.64978 0.0
C315 C 0.19921 0.47174 0.5834 0.0
O316 O 0.1796 0.45215 0.56006 0.0
N317 N 0.10034 0.46138 0.60088 0.0
C318 C 0.04601 0.46254 0.57665 0.0
C319 C 0.05956 0.47646 0.60783 0.0
C320 C 0.08707 0.47618 0.61922 0.0
C321 C 0.08624 0.44597 0.57146 0.0
C322 C 0.05885 0.44604 0.55894 0.0
H323 H 0.09908 0.49091 0.64085 0.0
H324 H 0.09783 0.43569 0.5564 0.0
H325 H 0.16016 0.54439 0.62167 0.0
H326 H 0.16777 0.55326 0.51615 0.0
H327 H 0.08463 0.35392 0.64688 0.0
H328 H 0.05106 0.49036 0.62173 0.0
H329 H 0.04914 0.43514 0.53462 0.0
C330 C 0.47312 0.665 0.54719 0.0
C331 C 0.44209 0.64123 0.53917 0.0
N332 N 0.42928 0.622 0.56632 0.0
N333 N 0.47982 0.66051 0.57912 0.0
C334 C 0.45249 0.63415 0.59025 0.0
H335 H 0.4904 0.68337 0.53028 0.0
Co336 Co 0.52132 0.68291 0.59679 0.0
C337 C 0.51657 0.66206 0.66864 0.0
O338 O 0.546 0.66618 0.6672 0.0
N339 N 0.56383 0.70657 0.61291 0.0
C340 C 0.61747 0.7309 0.62025 0.0
C341 C 0.59156 0.70888 0.60097 0.0
C342 C 0.57356 0.72787 0.63863 0.0
N343 N 0.60572 0.74235 0.64398 0.0
O344 O 0.51567 0.71915 0.60391 0.0
H345 H 0.59304 0.69553 0.57969 0.0
H346 H 0.55716 0.73217 0.65382 0.0
O347 O 0.5041 0.66715 0.64236 0.0
C348 C 0.52729 0.7414 0.58169 0.0
O349 O 0.54543 0.73984 0.5576 0.0
N350 N 0.52573 0.64694 0.58701 0.0
C351 C 0.50493 0.58962 0.55193 0.0
C352 C 0.50071 0.589 0.58684 0.0
C353 C 0.51099 0.61801 0.60399 0.0
C354 C 0.53391 0.64806 0.55392 0.0
C355 C 0.52352 0.61953 0.53571 0.0
H356 H 0.50294 0.61603 0.62956 0.0
H357 H 0.54458 0.67094 0.54055 0.0
H358 H 0.45034 0.62261 0.61434 0.0
H359 H 0.43013 0.63775 0.51504 0.0
H360 H 0.64267 0.73739 0.61761 0.0
H361 H 0.48624 0.56627 0.6001 0.0
H362 H 0.52744 0.62083 0.50871 0.0
C363 C 0.34018 0.8335 0.55106 0.0
C364 C 0.36381 0.82754 0.5389 0.0
N365 N 0.3805 0.82559 0.56539 0.0
N366 N 0.34211 0.83533 0.58497 0.0
C367 C 0.36686 0.83035 0.59293 0.0
H368 H 0.32337 0.83736 0.53613 0.0
Co369 Co 0.31868 0.84763 0.61233 0.0
C370 C 0.34199 0.84692 0.68299 0.0
O371 O 0.33264 0.86646 0.69545 0.0
N372 N 0.29445 0.86068 0.6394 0.0
C373 C 0.27778 0.88934 0.66948 0.0
C374 C 0.30209 0.89098 0.64933 0.0
C375 C 0.26501 0.8413 0.65346 0.0
N376 N 0.25446 0.85811 0.67151 0.0
O377 O 0.28467 0.8036 0.61359 0.0
H378 H 0.32436 0.91308 0.64352 0.0
H379 H 0.25181 0.81512 0.6519 0.0
O380 O 0.33723 0.83891 0.65195 0.0
C381 C 0.26285 0.7931 0.59091 0.0
O382 O 0.26283 0.81365 0.56876 0.0
N383 N 0.35257 0.89032 0.60853 0.0
C384 C 0.4037 0.94988 0.58795 0.0
C385 C 0.40726 0.93369 0.61566 0.0
C386 C 0.38155 0.90362 0.62526 0.0
C387 C 0.34828 0.90635 0.58234 0.0
C388 C 0.37361 0.93627 0.57156 0.0
H389 H 0.38612 0.89058 0.64459 0.0
H390 H 0.32546 0.895 0.56881 0.0
H391 H 0.37596 0.83177 0.61823 0.0
H392 H 0.36855 0.82514 0.51267 0.0
H393 H 0.27746 0.90933 0.68212 0.0
H394 H 0.43046 0.94302 0.62828 0.0
H395 H 0.37013 0.94803 0.54985 0.0
H396 H 0.59525 0.08883 0.30657 0.0
H397 H 0.66783 0.19079 0.29792 0.0
H398 H 0.63393 0.19805 0.25536 0.0
H399 H 0.56849 0.07543 0.21785 0.0
H400 H 0.52657 0.04898 0.2292 0.0
H401 H 0.55844 0.05125 0.25569 0.0
H402 H 0.53397 0.06563 0.30672 0.0
H403 H 0.50237 0.06396 0.28032 0.0
H404 H 0.52814 0.10019 0.30407 0.0
H405 H 0.5907 0.1947 0.21622 0.0
H406 H 0.54154 0.18093 0.18287 0.0
H407 H 0.49606 0.08182 0.21975 0.0
C408 C 0.6044 0.11245 0.295 0.0
C409 C 0.63432 0.13917 0.30506 0.0
C410 C 0.64505 0.16998 0.29023 0.0
C411 C 0.62597 0.17433 0.26613 0.0
C412 C 0.5961 0.14767 0.25747 0.0
C413 C 0.5854 0.11732 0.27138 0.0
C414 C 0.5514 0.09323 0.2596 0.0
C415 C 0.55123 0.06559 0.23937 0.0
C416 C 0.52758 0.07999 0.28946 0.0
C417 C 0.5445 0.11482 0.23717 0.0
C418 C 0.57071 0.14605 0.23599 0.0
C419 C 0.57007 0.1703 0.21686 0.0
C420 C 0.54204 0.16227 0.19809 0.0
C421 C 0.51495 0.13037 0.19888 0.0
C422 C 0.51622 0.1065 0.21895 0.0
H423 H 0.81295 0.35961 0.20647 0.0
H424 H 0.89848 0.35937 0.24429 0.0
H425 H 0.9162 0.41169 0.27253 0.0
H426 H 0.84873 0.44378 0.19158 0.0
H427 H 0.81529 0.44795 0.20672 0.0
H428 H 0.80789 0.4098 0.18957 0.0
H429 H 0.7793 0.37912 0.24467 0.0
H430 H 0.78464 0.41695 0.26055 0.0
H431 H 0.79964 0.39498 0.2844 0.0
H432 H 0.92786 0.46638 0.29106 0.0
H433 H 0.92646 0.5146 0.31153 0.0
H434 H 0.83007 0.47688 0.26928 0.0
C435 C 0.83502 0.37032 0.22133 0.0
C436 C 0.8543 0.35541 0.22336 0.0
C437 C 0.88314 0.37014 0.24279 0.0
C438 C 0.89361 0.40006 0.25858 0.0
C439 C 0.87458 0.41457 0.25537 0.0
C440 C 0.84534 0.39977 0.23827 0.0
C441 C 0.82894 0.42012 0.24022 0.0
C442 C 0.82499 0.43107 0.20492 0.0
C443 C 0.79615 0.40166 0.25853 0.0
C444 C 0.85362 0.4486 0.26101 0.0
C445 C 0.88018 0.44525 0.26852 0.0
C446 C 0.90696 0.46904 0.28591 0.0
C447 C 0.90606 0.49642 0.29719 0.0
C448 C 0.87813 0.49922 0.29206 0.0
C449 C 0.85168 0.47519 0.27345 0.0
H450 H 0.62182 0.46056 0.17225 0.0
H451 H 0.61603 0.5439 0.20739 0.0
H452 H 0.57128 0.5083 0.24555 0.0
H453 H 0.53245 0.40358 0.17398 0.0
H454 H 0.53935 0.37072 0.18474 0.0
H455 H 0.56884 0.40463 0.16012 0.0
H456 H 0.61213 0.411 0.20659 0.0
H457 H 0.58053 0.37851 0.23071 0.0
H458 H 0.60509 0.41788 0.24964 0.0
H459 H 0.52715 0.46372 0.27981 0.0
H460 H 0.48881 0.41376 0.31001 0.0
H461 H 0.52254 0.35924 0.25174 0.0
C462 C 0.61093 0.47135 0.18755 0.0
C463 C 0.62227 0.50504 0.18636 0.0
C464 C 0.60777 0.51817 0.20765 0.0
C465 C 0.58221 0.49812 0.22934 0.0
C466 C 0.57123 0.46496 0.22931 0.0
C467 C 0.58509 0.45164 0.20899 0.0
C468 C 0.56869 0.41522 0.21379 0.0
C469 C 0.55132 0.39744 0.18126 0.0
C470 C 0.59306 0.40506 0.2259 0.0
C471 C 0.54433 0.41031 0.24096 0.0
C472 C 0.54585 0.43925 0.24917 0.0
C473 C 0.52581 0.44093 0.27366 0.0
C474 C 0.50418 0.41241 0.29078 0.0
C475 C 0.50288 0.38264 0.28353 0.0
C476 C 0.52278 0.38155 0.25774 0.0
H477 H 0.49923 0.90044 0.79529 0.0
H478 H 0.48993 0.8067 0.7756 0.0
H479 H 0.44174 0.79192 0.73956 0.0
H480 H 0.41486 0.86921 0.80598 0.0
H481 H 0.41488 0.90402 0.78798 0.0
H482 H 0.45083 0.9087 0.80833 0.0
H483 H 0.48452 0.93471 0.75413 0.0
H484 H 0.44882 0.93065 0.73378 0.0
H485 H 0.47104 0.91334 0.7146 0.0
H486 H 0.39434 0.78809 0.70564 0.0
H487 H 0.35072 0.79443 0.67884 0.0
H488 H 0.3878 0.88793 0.72748 0.0
C489 C 0.48752 0.87717 0.78261 0.0
C490 C 0.49864 0.855 0.78713 0.0
C491 C 0.48202 0.82419 0.77154 0.0
C492 C 0.45462 0.8156 0.75129 0.0
C493 C 0.44374 0.8378 0.7479 0.0
C494 C 0.45957 0.86784 0.7634 0.0
C495 C 0.44159 0.88623 0.75828 0.0
C496 C 0.42985 0.89239 0.79216 0.0
C497 C 0.46276 0.91811 0.73905 0.0
C498 C 0.41339 0.86213 0.73703 0.0
C499 C 0.41517 0.83445 0.73096 0.0
C500 C 0.39255 0.8095 0.71054 0.0
C501 C 0.36781 0.81321 0.69558 0.0
C502 C 0.36552 0.84129 0.70177 0.0
C503 C 0.3884 0.86578 0.7231 0.0
H504 H 0.16459 0.54516 0.67962 0.0
H505 H 0.113 0.45906 0.74206 0.0
H506 H 0.11071 0.49249 0.78806 0.0
H507 H 0.21081 0.60174 0.74987 0.0
H508 H 0.20771 0.63449 0.73084 0.0
H509 H 0.20892 0.60415 0.70465 0.0
H510 H 0.15512 0.59321 0.67647 0.0
H511 H 0.15307 0.62253 0.70345 0.0
H512 H 0.11974 0.58133 0.70234 0.0
H513 H 0.10933 0.53352 0.82509 0.0
H514 H 0.11228 0.58076 0.85315 0.0
H515 H 0.16353 0.64098 0.76672 0.0
C516 C 0.15332 0.5334 0.70311 0.0
C517 C 0.1387 0.49939 0.70704 0.0
C518 C 0.12422 0.48502 0.73833 0.0
C519 C 0.12278 0.5038 0.76465 0.0
C520 C 0.13607 0.53697 0.7594 0.0
C521 C 0.15147 0.55181 0.72966 0.0
C522 C 0.16243 0.58773 0.73018 0.0
C523 C 0.19968 0.60825 0.7288 0.0
C524 C 0.14664 0.59671 0.7014 0.0
C525 C 0.14964 0.59039 0.76436 0.0
C526 C 0.13489 0.56084 0.78084 0.0
C527 C 0.12093 0.55685 0.81253 0.0
C528 C 0.12247 0.5839 0.82814 0.0
C529 C 0.13778 0.61468 0.81208 0.0
C530 C 0.15139 0.6178 0.7796 0.0
H531 H 0.44954 0.62816 0.67284 0.0
H532 H 0.53721 0.65581 0.73058 0.0
H533 H 0.50419 0.61922 0.77641 0.0
H534 H 0.39602 0.6179 0.74547 0.0
H535 H 0.3616 0.58303 0.72706 0.0
H536 H 0.39159 0.61426 0.70026 0.0
H537 H 0.39946 0.57106 0.66926 0.0
H538 H 0.3705 0.53945 0.69647 0.0
H539 H 0.41111 0.54608 0.69283 0.0
H540 H 0.46378 0.5751 0.81176 0.0
H541 H 0.4169 0.53036 0.83936 0.0
H542 H 0.35357 0.53099 0.76079 0.0
C543 C 0.46173 0.62706 0.69538 0.0
C544 C 0.49602 0.64465 0.69799 0.0
C545 C 0.51102 0.6424 0.72792 0.0
C546 C 0.49248 0.62169 0.75409 0.0
C547 C 0.45895 0.60351 0.75004 0.0
C548 C 0.44353 0.60628 0.72179 0.0
C549 C 0.40723 0.58248 0.72324 0.0
C550 C 0.38798 0.6005 0.72407 0.0
C551 C 0.39645 0.55836 0.69368 0.0
C552 C 0.40484 0.5657 0.75657 0.0
C553 C 0.43509 0.57823 0.77132 0.0
C554 C 0.43983 0.56557 0.80091 0.0
C555 C 0.41284 0.53992 0.81642 0.0
C556 C 0.38119 0.52739 0.80289 0.0
C557 C 0.37729 0.54028 0.77218 0.0
H558 H 0.45346 0.03503 0.00362 0.0
H559 H 0.43354 0.97821 0.09501 0.0
H560 H 0.44807 0.94135 0.06591 0.0
H561 H 0.42884 0.96548 0.9411 0.0
H562 H 0.46171 0.99155 0.91337 0.0
H563 H 0.44195 0.00812 0.93859 0.0
H564 H 0.49787 0.05025 0.96314 0.0
H565 H 0.51774 0.03327 0.93901 0.0
H566 H 0.52229 0.03635 0.98421 0.0
H567 H 0.47439 0.91794 0.03138 0.0
H568 H 0.50564 0.905 0.99107 0.0
H569 H 0.51017 0.97802 0.92209 0.0
C570 C 0.45043 0.01374 0.0168 0.0
C571 C 0.44181 0.00884 0.0512 0.0
C572 C 0.43956 0.98178 0.06842 0.0
C573 C 0.44786 0.96088 0.05213 0.0
C574 C 0.45822 0.96751 0.01872 0.0
C575 C 0.45895 0.99289 0.00097 0.0
C576 C 0.47491 0.99723 0.96683 0.0
C577 C 0.45038 0.99016 0.93828 0.0
C578 C 0.50498 0.03129 0.96312 0.0
C579 C 0.4844 0.97135 0.96885 0.0
C580 C 0.4742 0.95429 -0.00117 0.0
C581 C 0.48204 0.93073 0.00758 0.0
C582 C 0.50028 0.92399 0.9848 0.0
C583 C 0.51067 0.94092 0.95376 0.0
C584 C 0.50249 0.96479 0.94567 0.0
H585 H 0.92613 0.43408 0.04178 0.0
H586 H 0.99397 0.44851 0.12243 0.0
H587 H 0.02956 0.50486 0.10308 0.0
H588 H 0.98582 0.47507 0.97967 0.0
H589 H 0.96363 0.49156 0.9587 0.0
H590 H 0.94208 0.45398 0.98155 0.0
H591 H 0.91356 0.47823 0.0171 0.0
H592 H 0.93551 0.51615 0.99466 0.0
H593 H 0.93777 0.51545 0.04001 0.0
H594 H 0.05902 0.55843 0.07311 0.0
H595 H 0.08342 0.60244 0.03088 0.0
H596 H 0.99758 0.55142 0.96832 0.0
C597 C 0.94859 0.44883 0.05532 0.0
C598 C 0.9572 0.43673 0.08367 0.0
C599 C 0.98657 0.4573 0.10092 0.0
C600 C 0.00692 0.48936 0.09016 0.0
C601 C 0.99756 0.5004 0.06214 0.0
C602 C 0.96927 0.4806 0.04473 0.0
C603 C 0.966 0.49721 0.0137 0.0
C604 C 0.96431 0.47834 0.98151 0.0
C605 C 0.93646 0.50205 0.01656 0.0
C606 C 0.99743 0.52921 0.01573 0.0
C607 C 0.0149 0.53092 0.04432 0.0
C608 C 0.04543 0.55754 0.05085 0.0
C609 C 0.05897 0.5825 0.02688 0.0
C610 C 0.04214 0.58029 0.99663 0.0
C611 C 0.01068 0.55375 0.99147 0.0
H612 H 0.42788 0.42861 0.97415 0.0
H613 H 0.45964 0.44882 0.87024 0.0
H614 H 0.51465 0.46173 0.88727 0.0
H615 H 0.48932 0.4906 0.00775 0.0
H616 H 0.49463 0.47274 0.04559 0.0
H617 H 0.4556 0.45458 0.02553 0.0
H618 H 0.45403 0.39963 0.02017 0.0
H619 H 0.49263 0.41713 0.04157 0.0
H620 H 0.48766 0.39824 0.00095 0.0
H621 H 0.56742 0.48851 0.91639 0.0
H622 H 0.61369 0.51709 0.95497 0.0
H623 H 0.54826 0.47572 0.04046 0.0
C624 C 0.44592 0.43357 0.95489 0.0
C625 C 0.43976 0.4375 0.92098 0.0
C626 C 0.46407 0.44537 0.89632 0.0
C627 C 0.49537 0.45285 0.90579 0.0
C628 C 0.50161 0.45161 0.93989 0.0
C629 C 0.47733 0.44098 0.96402 0.0
C630 C 0.49133 0.44605 -0.00073 0.0
C631 C 0.48218 0.46726 0.02075 0.0
C632 C 0.48079 0.41331 0.0165 0.0
C633 C 0.52723 0.46365 0.99116 0.0
C634 C 0.53265 0.46628 0.95683 0.0
C635 C 0.56363 0.48536 0.94335 0.0
C636 C 0.58982 0.50163 0.96557 0.0
C637 C 0.58496 0.49857 0.00097 0.0
C638 C 0.55312 0.47897 0.01366 0.0
H639 H 0.04834 0.48341 0.51222 0.0
H640 H 0.99293 0.46164 0.60504 0.0
H641 H 0.96051 0.48411 0.58036 0.0
H642 H 0.05297 0.55819 0.49565 0.0
H643 H 0.04872 0.55279 0.45058 0.0
H644 H 0.06642 0.53342 0.47467 0.0
H645 H 0.02372 0.47715 0.45111 0.0
H646 H 0.00642 0.49643 0.42628 0.0
H647 H 0.98112 0.46404 0.45486 0.0
H648 H 0.93576 0.51075 0.54619 0.0
H649 H 0.91609 0.53397 0.5028 0.0
H650 H 0.98872 0.53904 0.43293 0.0
C651 C 0.02877 0.48247 0.52704 0.0
C652 C 0.02289 0.47053 0.56042 0.0
C653 C 0.99772 0.47066 0.57937 0.0
C654 C 0.97933 0.48347 0.56564 0.0
C655 C 0.98653 0.49603 0.53302 0.0
C656 C 0.01033 0.4952 0.51381 0.0
C657 C 0.01353 0.51051 0.47956 0.0
C658 C 0.04742 0.5405 0.47486 0.0
C659 C 0.00571 0.48554 0.45129 0.0
C660 C 0.98768 0.51998 0.48241 0.0
C661 C 0.97256 0.51167 0.51352 0.0
C662 C 0.94748 0.51748 0.52177 0.0
C663 C 0.93677 0.53107 0.4971 0.0
C664 C 0.95112 0.53859 0.46461 0.0
C665 C 0.97741 0.53365 0.45759 0.0
H666 H 0.44342 0.41012 0.49173 0.0
H667 H 0.39809 0.43059 0.40798 0.0
H668 H 0.40659 0.48033 0.43656 0.0
H669 H 0.41916 0.45108 0.56148 0.0
H670 H 0.45821 0.46601 0.58129 0.0
H671 H 0.43912 0.42737 0.55998 0.0
H672 H 0.49092 0.44714 0.52375 0.0
H673 H 0.50979 0.48614 0.54385 0.0
H674 H 0.50532 0.48341 0.49863 0.0
H675 H 0.43151 0.53274 0.46617 0.0
H676 H 0.46662 0.58271 0.49815 0.0
H677 H 0.49803 0.52955 0.56203 0.0
C678 C 0.43346 0.42407 0.48062 0.0
C679 C 0.41944 0.41647 0.44826 0.0
C680 C 0.40817 0.43591 0.43322 0.0
C681 C 0.41301 0.46417 0.44923 0.0
C682 C 0.42911 0.47239 0.48015 0.0
C683 C 0.43861 0.45259 0.49611 0.0
C684 C 0.46014 0.46941 0.52621 0.0
C685 C 0.44313 0.45246 0.5592 0.0
C686 C 0.49349 0.47165 0.52286 0.0
C687 C 0.46308 0.50242 0.52325 0.0
C688 C 0.44447 0.50341 0.49697 0.0
C689 C 0.44562 0.53209 0.48727 0.0
C690 C 0.46605 0.56042 0.50515 0.0
C691 C 0.48522 0.55987 0.53218 0.0
C692 C 0.48344 0.53045 0.54152 0.0
H693 H 0.53989 0.03829 0.44912 0.0
H694 H 0.59873 0.10786 0.52613 0.0
H695 H 0.55321 0.08153 0.56629 0.0
H696 H 0.46392 0.03394 0.47192 0.0
H697 H 0.43989 0.99108 0.46338 0.0
H698 H 0.47698 0.01569 0.44036 0.0
H699 H 0.49872 0.97779 0.45891 0.0
H700 H 0.46159 0.9529 0.48161 0.0
H701 H 0.50004 0.96978 0.50316 0.0
H702 H 0.50218 0.04658 0.59862 0.0
H703 H 0.44957 0.00367 0.62139 0.0
H704 H 0.4237 0.95853 0.52271 0.0
C705 C 0.54312 0.04811 0.47437 0.0
C706 C 0.57291 0.07493 0.48458 0.0
C707 C 0.57632 0.08689 0.51794 0.0
C708 C 0.5505 0.07238 0.54082 0.0
C709 C 0.5214 0.04612 0.52986 0.0
C710 C 0.51758 0.03403 0.49747 0.0
C711 C 0.48414 0.00493 0.49235 0.0
C712 C 0.46511 0.01184 0.46541 0.0
C713 C 0.48626 0.97456 0.4835 0.0
C714 C 0.46991 0.00229 0.52708 0.0
C715 C 0.49171 0.02638 0.54831 0.0
C716 C 0.48473 0.02779 0.58218 0.0
C717 C 0.4549 0.00343 0.59487 0.0
C718 C 0.43257 0.97823 0.57363 0.0
C719 C 0.43999 0.97807 0.53922 0.0
H720 H 0.38018 0.20926 0.32447 0.0
H721 H 0.35474 0.26697 0.26025 0.0
H722 H 0.34208 0.22815 0.21408 0.0
H723 H 0.42327 0.196 0.26745 0.0
H724 H 0.4113 0.15484 0.27894 0.0
H725 H 0.40968 0.18159 0.30971 0.0
H726 H 0.34871 0.14077 0.3203 0.0
H727 H 0.35019 0.11361 0.28959 0.0
H728 H 0.32073 0.12667 0.28533 0.0
H729 H 0.34677 0.19309 0.17156 0.0
H730 H 0.36405 0.16089 0.13726 0.0
H731 H 0.38393 0.12376 0.22816 0.0
C732 C 0.37087 0.21305 0.30104 0.0
C733 C 0.36841 0.24109 0.29606 0.0
C734 C 0.35633 0.24543 0.26498 0.0
C735 C 0.3491 0.22348 0.23848 0.0
C736 C 0.35349 0.19699 0.24362 0.0
C737 C 0.36346 0.19127 0.27438 0.0
C738 C 0.37054 0.16367 0.27206 0.0
C739 C 0.40578 0.17471 0.28264 0.0
C740 C 0.34607 0.13444 0.29306 0.0
C741 C 0.36534 0.15643 0.23471 0.0
C742 C 0.35497 0.17555 0.21883 0.0
C743 C 0.35355 0.17699 0.18376 0.0
C744 C 0.36347 0.15886 0.16448 0.0
C745 C 0.37425 0.13942 0.18038 0.0
C746 C 0.37437 0.1375 0.21579 0.0
H747 H 0.72377 0.12507 0.28838 0.0
H748 H 0.79953 0.14291 0.35981 0.0
H749 H 0.83993 0.16277 0.31363 0.0
H750 H 0.7625 0.10679 0.211 0.0
H751 H 0.74823 0.12751 0.18396 0.0
H752 H 0.72444 0.10493 0.21996 0.0
H753 H 0.72419 0.15623 0.24136 0.0
H754 H 0.74808 0.17892 0.20591 0.0
H755 H 0.76233 0.19309 0.24805 0.0
H756 H 0.87293 0.19479 0.2643 0.0
H757 H 0.8945 0.23389 0.21697 0.0
H758 H 0.7974 0.19359 0.17649 0.0
C759 C 0.74864 0.13166 0.29377 0.0
C760 C 0.7587 0.13235 0.32727 0.0
C761 C 0.79141 0.1417 0.33407 0.0
C762 C 0.81445 0.15302 0.30798 0.0
C763 C 0.80411 0.15407 0.27526 0.0
C764 C 0.7717 0.14285 0.268 0.0
C765 C 0.7673 0.15146 0.23243 0.0
C766 C 0.74957 0.12084 0.21054 0.0
C767 C 0.74947 0.1711 0.23196 0.0
C768 C 0.8024 0.17189 0.2219 0.0
C769 C 0.82336 0.17239 0.24642 0.0
C770 C 0.85683 0.19369 0.2444 0.0
C771 C 0.86894 0.21581 0.21744 0.0
C772 C 0.8475 0.21664 0.19327 0.0
C773 C 0.81421 0.19326 0.19469 0.0
H774 H 0.80692 0.60665 0.31569 0.0
H775 H 0.90245 0.65884 0.27039 0.0
H776 H 0.88058 0.67818 0.22501 0.0
H777 H 0.7664 0.57462 0.24503 0.0
H778 H 0.73051 0.57662 0.25527 0.0
H779 H 0.7553 0.57508 0.28842 0.0
H780 H 0.76169 0.62829 0.31353 0.0
H781 H 0.73692 0.63005 0.28006 0.0
H782 H 0.77698 0.66405 0.28748 0.0
H783 H 0.84636 0.68036 0.17844 0.0
H784 H 0.80348 0.66324 0.13511 0.0
H785 H 0.73027 0.61054 0.21081 0.0
C786 C 0.82338 0.62291 0.29671 0.0
C787 C 0.85627 0.63121 0.29638 0.0
C788 C 0.87721 0.65253 0.27125 0.0
C789 C 0.86497 0.66367 0.24546 0.0
C790 C 0.83193 0.65375 0.24562 0.0
C791 C 0.81151 0.6341 0.27095 0.0
C792 C 0.77631 0.62244 0.2629 0.0
C793 C 0.75599 0.58501 0.26287 0.0
C794 C 0.76215 0.6371 0.28745 0.0
C795 C 0.7798 0.6364 0.22788 0.0
C796 C 0.81208 0.65527 0.21868 0.0
C797 C 0.82106 0.66657 0.1857 0.0
C798 C 0.79657 0.65692 0.16123 0.0
C799 C 0.76371 0.63584 0.16993 0.0
C800 C 0.75527 0.62716 0.20393 0.0
H801 H 0.5959 0.80054 0.82222 0.0
H802 H 0.66055 0.89827 0.78676 0.0
H803 H 0.67611 0.87619 0.73828 0.0
H804 H 0.64308 0.76137 0.78848 0.0
H805 H 0.60569 0.72526 0.77741 0.0
H806 H 0.6072 0.74873 0.81375 0.0
H807 H 0.55913 0.75362 0.78973 0.0
H808 H 0.55756 0.73039 0.75351 0.0
H809 H 0.5624 0.77019 0.74804 0.0
H810 H 0.67508 0.84348 0.68798 0.0
H811 H 0.65614 0.80377 0.64087 0.0
H812 H 0.59076 0.72817 0.70875 0.0
C813 C 0.61404 0.81729 0.80474 0.0
C814 C 0.62697 0.85102 0.80803 0.0
C815 C 0.65068 0.87232 0.78482 0.0
C816 C 0.65964 0.85996 0.75727 0.0
C817 C 0.64499 0.82633 0.75373 0.0
C818 C 0.62289 0.80532 0.77719 0.0
C819 C 0.60648 0.77051 0.76536 0.0
C820 C 0.61622 0.75028 0.78757 0.0
C821 C 0.56922 0.75534 0.76406 0.0
C822 C 0.62101 0.77535 0.73055 0.0
C823 C 0.64399 0.80749 0.72456 0.0
C824 C 0.65785 0.81814 0.69269 0.0
C825 C 0.6471 0.79559 0.66613 0.0
C826 C 0.62241 0.76321 0.67174 0.0
C827 C 0.61015 0.75282 0.70442 0.0
H828 H 0.17048 0.78496 0.84219 0.0
H829 H 0.0864 0.71809 0.78357 0.0
H830 H 0.10863 0.75368 0.73414 0.0
H831 H 0.18719 0.86278 0.79563 0.0
H832 H 0.23034 0.87851 0.79869 0.0
H833 H 0.20374 0.85309 0.8318 0.0
H834 H 0.22691 0.81436 0.8251 0.0
H835 H 0.25318 0.83928 0.79189 0.0
H836 H 0.22534 0.7968 0.78439 0.0
H837 H 0.14562 0.78674 0.68856 0.0
H838 H 0.19319 0.8181 0.6514 0.0
H839 H 0.25311 0.86517 0.73842 0.0
C840 C 0.15625 0.77849 0.81927 0.0
C841 C 0.12675 0.74878 0.81679 0.0
C842 C 0.1088 0.74093 0.78635 0.0
C843 C 0.12131 0.76103 0.75801 0.0
C844 C 0.15149 0.78915 0.76069 0.0
C845 C 0.16847 0.7983 0.79078 0.0
C846 C 0.20235 0.82694 0.7859 0.0
C847 C 0.20611 0.85712 0.80408 0.0
C848 C 0.22845 0.81883 0.79748 0.0
C849 C 0.20259 0.8309 0.74803 0.0
C850 C 0.17281 0.80924 0.73401 0.0
C851 C 0.16862 0.80473 0.69922 0.0
C852 C 0.19563 0.8224 0.67834 0.0
C853 C 0.22616 0.84441 0.69233 0.0
C854 C 0.2295 0.84937 0.72741 0.0
H855 H 0.19364 0.40006 0.65661 0.0
H856 H 0.1023 0.35666 0.71041 0.0
H857 H 0.12748 0.34366 0.75821 0.0
H858 H 0.22203 0.34374 0.69013 0.0
H859 H 0.26345 0.37664 0.69186 0.0
H860 H 0.2364 0.37625 0.65975 0.0
H861 H 0.24862 0.43338 0.6788 0.0
H862 H 0.27543 0.43389 0.71096 0.0
H863 H 0.24199 0.43974 0.72221 0.0
H864 H 0.16566 0.34683 0.80403 0.0
H865 H 0.21253 0.36176 0.84205 0.0
H866 H 0.27785 0.40036 0.75686 0.0
C867 C 0.1788 0.38681 0.67804 0.0
C868 C 0.14617 0.37914 0.68004 0.0
C869 C 0.12726 0.3622 0.70842 0.0
C870 C 0.1414 0.35484 0.73561 0.0
C871 C 0.17417 0.36396 0.73346 0.0
C872 C 0.19243 0.37897 0.70502 0.0
C873 C 0.22778 0.38931 0.71005 0.0
C874 C 0.23801 0.37034 0.68655 0.0
C875 C 0.24971 0.42625 0.70524 0.0
C876 C 0.22699 0.37942 0.7464 0.0
C877 C 0.19586 0.36456 0.7595 0.0
C878 C 0.18995 0.35738 0.7938 0.0
C879 C 0.21658 0.366 0.8152 0.0
C880 C 0.24852 0.38136 0.80212 0.0
C881 C 0.25355 0.3874 0.76722 0.0
H882 H 0.51193 0.24865 0.04627 0.0
H883 H 0.50186 0.23264 0.15447 0.0
H884 H 0.53971 0.29108 0.16388 0.0
H885 H 0.59537 0.30319 0.04668 0.0
H886 H 0.59484 0.32876 0.01341 0.0
H887 H 0.56406 0.28654 0.01491 0.0
H888 H 0.51901 0.30206 0.01511 0.0
H889 H 0.54966 0.34438 0.01315 0.0
H890 H 0.51993 0.32987 0.04652 0.0
H891 H 0.58165 0.35024 0.16149 0.0
H892 H 0.6237 0.40662 0.14714 0.0
H893 H 0.60771 0.38366 0.04089 0.0
C894 C 0.51705 0.25754 0.07195 0.0
C895 C 0.50377 0.23617 0.09966 0.0
C896 C 0.51166 0.24864 0.13288 0.0
C897 C 0.53313 0.28177 0.13847 0.0
C898 C 0.54651 0.30201 0.11057 0.0
C899 C 0.53865 0.29044 0.07796 0.0
C900 C 0.55791 0.31689 0.05239 0.0
C901 C 0.57931 0.30832 0.03058 0.0
C902 C 0.53528 0.3237 0.03051 0.0
C903 C 0.57824 0.34501 0.07571 0.0
C904 C 0.57107 0.33599 0.10917 0.0
C905 C 0.58717 0.35764 0.13539 0.0
C906 C 0.61086 0.38948 0.12712 0.0
C907 C 0.61833 0.39916 0.09309 0.0
C908 C 0.60211 0.37662 0.06708 0.0
H909 H 0.73649 0.25465 0.14233 0.0
H910 H 0.75945 0.20277 0.06734 0.0
H911 H 0.70167 0.17106 0.0517 0.0
H912 H 0.65461 0.18443 0.16607 0.0
H913 H 0.6377 0.21064 0.171 0.0
H914 H 0.68004 0.22571 0.17994 0.0
H915 H 0.69552 0.27296 0.13781 0.0
H916 H 0.65334 0.25773 0.12833 0.0
H917 H 0.68147 0.26388 0.09482 0.0
H918 H 0.64352 0.15069 0.03855 0.0
H919 H 0.58711 0.13923 0.03229 0.0
H920 H 0.60134 0.20378 0.11586 0.0
C921 C 0.72921 0.2359 0.12339 0.0
C922 C 0.75248 0.23116 0.10606 0.0
C923 C 0.74207 0.20681 0.08097 0.0
C924 C 0.70928 0.18864 0.07191 0.0
C925 C 0.68715 0.19484 0.08844 0.0
C926 C 0.69649 0.21744 0.11408 0.0
C927 C 0.66814 0.22094 0.12611 0.0
C928 C 0.65962 0.20975 0.16296 0.0
C929 C 0.67504 0.25595 0.12147 0.0
C930 C 0.64183 0.19774 0.10229 0.0
C931 C 0.65327 0.18278 0.08097 0.0
C932 C 0.63409 0.16186 0.05544 0.0
C933 C 0.60223 0.15579 0.05181 0.0
C934 C 0.58988 0.17061 0.07357 0.0
C935 C 0.61 0.19176 0.09919 0.0
H936 H 0.75907 0.37744 0.12041 0.0
H937 H 0.86274 0.4369 0.10531 0.0
H938 H 0.85949 0.48639 0.11746 0.0
H939 H 0.73451 0.42756 0.08317 0.0
H940 H 0.7032 0.41926 0.1137 0.0
H941 H 0.71538 0.38972 0.10609 0.0
H942 H 0.72723 0.39012 0.17031 0.0
H943 H 0.71574 0.42046 0.17723 0.0
H944 H 0.7551 0.42787 0.19055 0.0
H945 H 0.84293 0.52887 0.12213 0.0
H946 H 0.81486 0.5608 0.12066 0.0
H947 H 0.72301 0.47303 0.13911 0.0
C948 C 0.78099 0.40097 0.1199 0.0
C949 C 0.81106 0.40384 0.11156 0.0
C950 C 0.83954 0.43465 0.11156 0.0
C951 C 0.83789 0.46267 0.11858 0.0
C952 C 0.80771 0.45911 0.12658 0.0
C953 C 0.77985 0.42895 0.12781 0.0
C954 C 0.75027 0.43165 0.13591 0.0
C955 C 0.72436 0.41616 0.10804 0.0
C956 C 0.73628 0.41664 0.17056 0.0
C957 C 0.76541 0.46816 0.13671 0.0
C958 C 0.79864 0.48364 0.13173 0.0
C959 C 0.81711 0.51714 0.12706 0.0
C960 C 0.80103 0.53509 0.12627 0.0
C961 C 0.76695 0.51945 0.13041 0.0
C962 C 0.74924 0.48581 0.13703 0.0
H963 H 0.7432 0.50334 0.43234 0.0
H964 H 0.75582 0.51211 0.32376 0.0
H965 H 0.69607 0.48091 0.3164 0.0
H966 H 0.68 0.4222 0.43191 0.0
H967 H 0.65842 0.42658 0.46699 0.0
H968 H 0.70173 0.45252 0.46371 0.0
H969 H 0.69513 0.50334 0.46666 0.0
H970 H 0.65176 0.47753 0.47016 0.0
H971 H 0.66862 0.50757 0.43715 0.0
H972 H 0.63512 0.44703 0.32127 0.0
H973 H 0.57805 0.41185 0.33727 0.0
H974 H 0.6061 0.42225 0.44288 0.0
C975 C 0.73338 0.49933 0.40702 0.0
C976 C 0.75397 0.5104 0.37858 0.0
C977 C 0.74032 0.5039 0.34583 0.0
C978 C 0.70649 0.4863 0.34145 0.0
C979 C 0.68686 0.47518 0.37009 0.0
C980 C 0.69983 0.48138 0.40223 0.0
C981 C 0.67371 0.46477 0.42875 0.0
C982 C 0.67877 0.44005 0.44902 0.0
C983 C 0.67222 0.4898 0.45205 0.0
C984 C 0.64394 0.44805 0.40654 0.0
C985 C 0.65199 0.45461 0.37284 0.0
C986 C 0.62858 0.44163 0.34759 0.0
C987 C 0.59612 0.42132 0.35703 0.0
C988 C 0.58729 0.41374 0.39149 0.0
C989 C 0.61174 0.42758 0.41642 0.0
H990 H 0.59106 0.21796 0.44675 0.0
H991 H 0.63621 0.23871 0.34796 0.0
H992 H 0.59743 0.25532 0.32788 0.0
H993 H 0.50864 0.18583 0.41765 0.0
H994 H 0.49769 0.20348 0.45177 0.0
H995 H 0.52853 0.19256 0.45797 0.0
H996 H 0.56936 0.25135 0.4769 0.0
H997 H 0.53855 0.26233 0.47111 0.0
H998 H 0.57698 0.2848 0.44968 0.0
H999 H 0.55482 0.27194 0.31955 0.0
H1000 H 0.51296 0.28812 0.32416 0.0
H1001 H 0.49546 0.25504 0.42814 0.0
C1002 C 0.59298 0.22624 0.42098 0.0
C1003 C 0.6167 0.2271 0.39894 0.0
C1004 C 0.61804 0.23759 0.3652 0.0
C1005 C 0.59615 0.2471 0.35359 0.0
C1006 C 0.57292 0.24575 0.37597 0.0
C1007 C 0.57123 0.23556 0.40895 0.0
C1008 C 0.54438 0.23676 0.42813 0.0
C1009 C 0.51827 0.20262 0.43955 0.0
C1010 C 0.55815 0.26021 0.45822 0.0
C1011 C 0.53156 0.24976 0.401 0.0
C1012 C 0.54817 0.25468 0.37101 0.0
C1013 C 0.54145 0.26791 0.34283 0.0
C1014 C 0.51758 0.27695 0.34565 0.0
C1015 C 0.50076 0.27266 0.37642 0.0
C1016 C 0.50755 0.2583 0.40412 0.0
H1017 H 0.78095 0.39713 0.37353 0.0
H1018 H 0.85722 0.42707 0.44803 0.0
H1019 H 0.85232 0.37282 0.44557 0.0
H1020 H 0.73178 0.31947 0.40857 0.0
H1021 H 0.71629 0.29938 0.36874 0.0
H1022 H 0.7292 0.34174 0.37304 0.0
H1023 H 0.76707 0.3536 0.32258 0.0
H1024 H 0.75688 0.31189 0.31875 0.0
H1025 H 0.79871 0.34319 0.32399 0.0
H1026 H 0.83574 0.31455 0.43918 0.0
H1027 H 0.80528 0.25491 0.43348 0.0
H1028 H 0.73894 0.26229 0.36368 0.0
C1029 C 0.79693 0.39223 0.38874 0.0
C1030 C 0.81955 0.41597 0.41083 0.0
C1031 C 0.83969 0.40889 0.4311 0.0
C1032 C 0.83729 0.37837 0.42959 0.0
C1033 C 0.81447 0.35523 0.4078 0.0
C1034 C 0.79438 0.36164 0.38798 0.0
C1035 C 0.76922 0.33138 0.36997 0.0
C1036 C 0.73459 0.32247 0.38074 0.0
C1037 C 0.77329 0.33527 0.33153 0.0
C1038 C 0.77811 0.30694 0.38301 0.0
C1039 C 0.80454 0.32126 0.40445 0.0
C1040 C 0.81535 0.30309 0.42204 0.0
C1041 C 0.79792 0.26925 0.41863 0.0
C1042 C 0.76993 0.25402 0.39795 0.0
C1043 C 0.76068 0.27326 0.37905 0.0
H1044 H 0.4118 0.60886 0.96987 0.0
H1045 H 0.41006 0.5796 0.866 0.0
H1046 H 0.45014 0.63546 0.85062 0.0
H1047 H 0.41671 0.68402 0.95072 0.0
H1048 H 0.44358 0.706 0.9851 0.0
H1049 H 0.41637 0.66294 0.98867 0.0
H1050 H 0.46522 0.65474 0.00167 0.0
H1051 H 0.49262 0.69782 0.99787 0.0
H1052 H 0.49877 0.66995 0.97251 0.0
H1053 H 0.48754 0.69448 0.84525 0.0
H1054 H 0.51849 0.75418 0.85005 0.0
H1055 H 0.49728 0.74632 0.95727 0.0
C1056 C 0.42018 0.61429 0.94404 0.0
C1057 C 0.4076 0.58984 0.91913 0.0
C1058 C 0.41888 0.59789 0.88544 0.0
C1059 C 0.44196 0.62957 0.87647 0.0
C1060 C 0.45371 0.65312 0.90149 0.0
C1061 C 0.44321 0.64604 0.93456 0.0
C1062 C 0.45842 0.67649 0.95593 0.0
C1063 C 0.43221 0.68273 0.97098 0.0
C1064 C 0.48005 0.67463 0.98363 0.0
C1065 C 0.47853 0.70168 0.92952 0.0
C1066 C 0.47567 0.68756 0.89836 0.0
C1067 C 0.49032 0.70589 0.86956 0.0
C1068 C 0.5078 0.73973 0.87251 0.0
C1069 C 0.51042 0.75476 0.90403 0.0
C1070 C 0.49619 0.73543 0.93298 0.0
H1071 H 0.2531 0.74866 0.94534 0.0
H1072 H 0.23461 0.73065 0.83815 0.0
H1073 H 0.29387 0.75676 0.8278 0.0
H1074 H 0.32939 0.82634 0.93954 0.0
H1075 H 0.34693 0.81664 0.97482 0.0
H1076 H 0.30366 0.80039 0.97282 0.0
H1077 H 0.29454 0.74214 0.97888 0.0
H1078 H 0.33771 0.75814 0.98062 0.0
H1079 H 0.31368 0.72814 0.94937 0.0
H1080 H 0.35526 0.78252 0.83016 0.0
H1081 H 0.41252 0.80359 0.84444 0.0
H1082 H 0.389 0.80035 0.95093 0.0
C1083 C 0.26147 0.75088 0.91956 0.0
C1084 C 0.23937 0.73802 0.89246 0.0
C1085 C 0.25126 0.7406 0.85921 0.0
C1086 C 0.28481 0.7554 0.85313 0.0
C1087 C 0.30593 0.76719 0.88062 0.0
C1088 C 0.29464 0.765 0.91317 0.0
C1089 C 0.32185 0.77694 0.93868 0.0
C1090 C 0.32568 0.80686 0.95757 0.0
C1091 C 0.31662 0.74971 0.96332 0.0
C1092 C 0.35028 0.78581 0.9155 0.0
C1093 C 0.34077 0.78049 0.88211 0.0
C1094 C 0.36292 0.78669 0.85626 0.0
C1095 C 0.39557 0.79847 0.86482 0.0
C1096 C 0.40585 0.80355 0.89908 0.0
C1097 C 0.38257 0.79713 0.92453 0.0
H1098 H 0.20904 0.58714 0.96537 0.0
H1099 H 0.18712 0.59574 0.86065 0.0
H1100 H 0.20713 0.5594 0.84374 0.0
H1101 H 0.28149 0.58488 0.95065 0.0
H1102 H 0.27353 0.55518 0.98301 0.0
H1103 H 0.25741 0.58211 0.98694 0.0
H1104 H 0.19935 0.53259 0.99316 0.0
H1105 H 0.2153 0.50549 0.98907 0.0
H1106 H 0.18371 0.50165 0.96105 0.0
H1107 H 0.23223 0.52397 0.83761 0.0
H1108 H 0.25911 0.49112 0.84358 0.0
H1109 H 0.26066 0.50246 0.95224 0.0
C1110 C 0.20813 0.58131 0.93891 0.0
C1111 C 0.19669 0.5949 0.91453 0.0
C1112 C 0.19632 0.58652 0.88005 0.0
C1113 C 0.2074 0.56552 0.87007 0.0
C1114 C 0.21849 0.55267 0.89479 0.0
C1115 C 0.21875 0.56008 0.92851 0.0
C1116 C 0.23196 0.54307 0.95007 0.0
C1117 C 0.26294 0.56779 0.96875 0.0
C1118 C 0.20603 0.51928 0.9748 0.0
C1119 C 0.23942 0.52523 0.92315 0.0
C1120 C 0.23159 0.53115 0.89139 0.0
C1121 C 0.23807 0.51879 0.86239 0.0
C1122 C 0.2533 0.50019 0.866 0.0
C1123 C 0.26148 0.49389 0.89836 0.0
C1124 C 0.25401 0.50625 0.92722 0.0
H1125 H 0.38328 0.60645 0.61389 0.0
H1126 H 0.40547 0.5729 0.52175 0.0
H1127 H 0.34994 0.52516 0.52103 0.0
H1128 H 0.32581 0.52523 0.65107 0.0
H1129 H 0.29877 0.53855 0.66654 0.0
H1130 H 0.34168 0.56694 0.6635 0.0
H1131 H 0.33069 0.60506 0.62656 0.0
H1132 H 0.28774 0.57725 0.62958 0.0
H1133 H 0.30673 0.58947 0.58874 0.0
H1134 H 0.29095 0.48519 0.52658 0.0
H1135 H 0.23178 0.45718 0.53607 0.0
H1136 H 0.2469 0.51783 0.62365 0.0
C1137 C 0.3765 0.58841 0.59424 0.0
C1138 C 0.39835 0.59284 0.56802 0.0
C1139 C 0.3888 0.56957 0.54199 0.0
C1140 C 0.35749 0.54241 0.54155 0.0
C1141 C 0.33605 0.53908 0.56726 0.0
C1142 C 0.34508 0.56148 0.59312 0.0
C1143 C 0.31625 0.5545 0.61512 0.0
C1144 C 0.32092 0.54576 0.6512 0.0
C1145 C 0.30999 0.58327 0.61496 0.0
C1146 C 0.28951 0.52531 0.59704 0.0
C1147 C 0.30156 0.51644 0.56991 0.0
C1148 C 0.28125 0.4916 0.54803 0.0
C1149 C 0.24765 0.47586 0.5536 0.0
C1150 C 0.23469 0.48527 0.58061 0.0
C1151 C 0.25605 0.50983 0.60299 0.0
H1152 H 0.39614 0.79424 0.61215 0.0
H1153 H 0.42695 0.84597 0.51707 0.0
H1154 H 0.47358 0.8366 0.51546 0.0
H1155 H 0.47862 0.8207 0.64623 0.0
H1156 H 0.46559 0.78159 0.66504 0.0
H1157 H 0.43742 0.79626 0.66081 0.0
H1158 H 0.39774 0.74398 0.62818 0.0
H1159 H 0.4258 0.7293 0.63229 0.0
H1160 H 0.41187 0.7329 0.59108 0.0
H1161 H 0.51385 0.81798 0.52187 0.0
H1162 H 0.54188 0.78717 0.53279 0.0
H1163 H 0.48431 0.74677 0.6235 0.0
C1164 C 0.41314 0.8042 0.5914 0.0
C1165 C 0.40811 0.82094 0.56479 0.0
C1166 C 0.4303 0.83289 0.53756 0.0
C1167 C 0.45702 0.82802 0.53666 0.0
C1168 C 0.46116 0.81121 0.56321 0.0
C1169 C 0.43975 0.79935 0.59002 0.0
C1170 C 0.44777 0.77931 0.61361 0.0
C1171 C 0.45796 0.79543 0.64848 0.0
C1172 C 0.4191 0.74431 0.61642 0.0
C1173 C 0.47626 0.78065 0.59514 0.0
C1174 C 0.48409 0.79985 0.56659 0.0
C1175 C 0.50821 0.80318 0.54433 0.0
C1176 C 0.52401 0.78557 0.55077 0.0
C1177 C 0.51526 0.76453 0.57897 0.0
C1178 C 0.49176 0.76289 0.60192 0.0
H1179 H 0.26115 0.74341 0.62782 0.0
H1180 H 0.21332 0.76316 0.54543 0.0
H1181 H 0.17923 0.70441 0.53509 0.0
H1182 H 0.26673 0.6815 0.58855 0.0
H1183 H 0.25909 0.6568 0.62567 0.0
H1184 H 0.27673 0.70002 0.62972 0.0
H1185 H 0.23037 0.69154 0.67024 0.0
H1186 H 0.21275 0.64825 0.66628 0.0
H1187 H 0.18871 0.6669 0.65697 0.0
H1188 H 0.15559 0.64472 0.52884 0.0
H1189 H 0.14244 0.58748 0.52858 0.0
H1190 H 0.20424 0.60576 0.61572 0.0
C1191 C 0.24297 0.73537 0.60812 0.0
C1192 C 0.23984 0.7579 0.58747 0.0
C1193 C 0.21611 0.74638 0.56163 0.0
C1194 C 0.19656 0.71304 0.5556 0.0
C1195 C 0.20084 0.69152 0.57582 0.0
C1196 C 0.22322 0.70215 0.60179 0.0
C1197 C 0.2246 0.67409 0.61821 0.0
C1198 C 0.25882 0.67837 0.61534 0.0
C1199 C 0.21343 0.66997 0.65513 0.0
C1200 C 0.20029 0.64617 0.5967 0.0
C1201 C 0.18672 0.65676 0.57254 0.0
C1202 C 0.16561 0.63602 0.54798 0.0
C1203 C 0.15845 0.60367 0.54787 0.0
C1204 C 0.17226 0.59237 0.5722 0.0
C1205 C 0.19293 0.61376 0.59729 0.0
loop_
_geom_bond_atom_site_label_1
_geom_bond_atom_site_label_2
_geom_bond_distance
_geom_bond_site_symmetry_2
_ccdc_geom_bond_type
C0 C1 1.351 . S
C0 N3 1.368 . S
C0 H5 0.931 . S
C1 C0 1.351 . S
C1 N2 1.373 . S
C1 H29 0.930 . S
N2 C1 1.373 . S
N2 C4 1.340 . S
N3 C0 1.368 . S
N3 C4 1.321 . S
N3 Co6 2.135 . S
C4 N2 1.340 . S
C4 N3 1.321 . S
C4 H28 0.930 . S
H5 C0 0.931 . S
Co6 N3 2.135 . S
Co6 N9 2.121 . S
Co6 O14 2.055 . S
Co6 O17 2.039 . S
Co6 N20 2.140 . S
C7 O8 1.227 . S
C7 O17 1.265 . S
O8 C7 1.227 . S
N9 Co6 2.121 . S
N9 C11 1.375 . S
N9 C12 1.313 . S
C10 C11 1.338 . S
C10 N13 1.377 . S
C10 H30 0.930 . S
C11 N9 1.375 . S
C11 C10 1.338 . S
C11 H15 0.931 . S
C12 N9 1.313 . S
C12 N13 1.344 . S
C12 H16 0.930 . S
N13 C10 1.377 . S
N13 C12 1.344 . S
O14 Co6 2.055 . S
O14 C18 1.253 . S
H15 C11 0.931 . S
H16 C12 0.930 . S
O17 Co6 2.039 . S
O17 C7 1.265 . S
C18 O14 1.253 . S
C18 O19 1.227 . S
O19 C18 1.227 . S
N20 Co6 2.140 . S
N20 C23 1.346 . S
N20 C24 1.345 . S
C21 C22 1.387 . S
C21 C25 1.391 . S
C22 C21 1.387 . S
C22 C23 1.369 . S
C22 H31 0.929 . S
C23 N20 1.346 . S
C23 C22 1.369 . S
C23 H26 0.928 . S
C24 N20 1.345 . S
C24 C25 1.371 . S
C24 H27 0.931 . S
C25 C21 1.391 . S
C25 C24 1.371 . S
C25 H32 0.930 . S
H26 C23 0.928 . S
H27 C24 0.931 . S
H28 C4 0.930 . S
H29 C1 0.930 . S
H30 C10 0.930 . S
H31 C22 0.929 . S
H32 C25 0.930 . S
C33 C34 1.351 . S
C33 N36 1.368 . S
C33 H38 0.931 . S
C34 C33 1.351 . S
C34 N35 1.373 . S
C34 H62 0.930 . S
N35 C34 1.373 . S
N35 C37 1.340 . S
N36 C33 1.368 . S
N36 C37 1.321 . S
N36 Co39 2.135 . S
C37 N35 1.340 . S
C37 N36 1.321 . S
C37 H61 0.930 . S
H38 C33 0.931 . S
Co39 N36 2.135 . S
Co39 N42 2.121 . S
Co39 O47 2.055 . S
Co39 O50 2.039 . S
Co39 N53 2.140 . S
C40 O41 1.227 . S
C40 O50 1.265 . S
O41 C40 1.227 . S
N42 Co39 2.121 . S
N42 C44 1.375 . S
N42 C45 1.313 . S
C43 C44 1.338 . S
C43 N46 1.377 . S
C43 H63 0.930 . S
C44 N42 1.375 . S
C44 C43 1.338 . S
C44 H48 0.931 . S
C45 N42 1.313 . S
C45 N46 1.344 . S
C45 H49 0.930 . S
N46 C43 1.377 . S
N46 C45 1.344 . S
O47 Co39 2.055 . S
O47 C51 1.253 . S
H48 C44 0.931 . S
H49 C45 0.930 . S
O50 Co39 2.039 . S
O50 C40 1.265 . S
C51 O47 1.253 . S
C51 O52 1.227 . S
O52 C51 1.227 . S
N53 Co39 2.140 . S
N53 C56 1.346 . S
N53 C57 1.345 . S
C54 C55 1.387 . S
C54 C58 1.391 . S
C55 C54 1.387 . S
C55 C56 1.369 . S
C55 H64 0.929 . S
C56 N53 1.346 . S
C56 C55 1.369 . S
C56 H59 0.928 . S
C57 N53 1.345 . S
C57 C58 1.371 . S
C57 H60 0.931 . S
C58 C54 1.391 . S
C58 C57 1.371 . S
C58 H65 0.930 . S
H59 C56 0.928 . S
H60 C57 0.931 . S
H61 C37 0.930 . S
H62 C34 0.930 . S
H63 C43 0.930 . S
H64 C55 0.929 . S
H65 C58 0.930 . S
C66 C67 1.351 . S
C66 N69 1.368 . S
C66 H71 0.931 . S
C67 C66 1.351 . S
C67 N68 1.373 . S
C67 H95 0.930 . S
N68 C67 1.373 . S
N68 C70 1.340 . S
N69 C66 1.368 . S
N69 C70 1.321 . S
N69 Co72 2.135 . S
C70 N68 1.340 . S
C70 N69 1.321 . S
C70 H94 0.930 . S
H71 C66 0.931 . S
Co72 N69 2.135 . S
Co72 N75 2.121 . S
Co72 O80 2.055 . S
Co72 O83 2.039 . S
Co72 N86 2.140 . S
C73 O74 1.227 . S
C73 O83 1.265 . S
O74 C73 1.227 . S
N75 Co72 2.121 . S
N75 C77 1.375 . S
N75 C78 1.313 . S
C76 C77 1.338 . S
C76 N79 1.377 . S
C76 H96 0.930 . S
C77 N75 1.375 . S
C77 C76 1.338 . S
C77 H81 0.931 . S
C78 N75 1.313 . S
C78 N79 1.344 . S
C78 H82 0.930 . S
N79 C76 1.377 . S
N79 C78 1.344 . S
O80 Co72 2.055 . S
O80 C84 1.253 . S
H81 C77 0.931 . S
H82 C78 0.930 . S
O83 Co72 2.039 . S
O83 C73 1.265 . S
C84 O80 1.253 . S
C84 O85 1.227 . S
O85 C84 1.227 . S
N86 Co72 2.140 . S
N86 C89 1.346 . S
N86 C90 1.345 . S
C87 C88 1.387 . S
C87 C91 1.391 . S
C88 C87 1.387 . S
C88 C89 1.369 . S
C88 H97 0.929 . S
C89 N86 1.346 . S
C89 C88 1.369 . S
C89 H92 0.928 . S
C90 N86 1.345 . S
C90 C91 1.371 . S
C90 H93 0.931 . S
C91 C87 1.391 . S
C91 C90 1.371 . S
C91 H98 0.930 . S
H92 C89 0.928 . S
H93 C90 0.931 . S
H94 C70 0.930 . S
H95 C67 0.930 . S
H96 C76 0.930 . S
H97 C88 0.929 . S
H98 C91 0.930 . S
C99 C100 1.351 . S
C99 N102 1.368 . S
C99 H104 0.931 . S
C100 C99 1.351 . S
C100 N101 1.373 . S
C100 H128 0.930 . S
N101 C100 1.373 . S
N101 C103 1.340 . S
N102 C99 1.368 . S
N102 C103 1.321 . S
N102 Co105 2.135 . S
C103 N101 1.340 . S
C103 N102 1.321 . S
C103 H127 0.930 . S
H104 C99 0.931 . S
Co105 N102 2.135 . S
Co105 N108 2.121 . S
Co105 O113 2.055 . S
Co105 O116 2.039 . S
Co105 N119 2.140 . S
C106 O107 1.227 . S
C106 O116 1.265 . S
O107 C106 1.227 . S
N108 Co105 2.121 . S
N108 C110 1.375 . S
N108 C111 1.313 . S
C109 C110 1.338 . S
C109 N112 1.377 . S
C109 H129 0.930 . S
C110 N108 1.375 . S
C110 C109 1.338 . S
C110 H114 0.931 . S
C111 N108 1.313 . S
C111 N112 1.344 . S
C111 H115 0.930 . S
N112 C109 1.377 . S
N112 C111 1.344 . S
O113 Co105 2.055 . S
O113 C117 1.253 . S
H114 C110 0.931 . S
H115 C111 0.930 . S
O116 Co105 2.039 . S
O116 C106 1.265 . S
C117 O113 1.253 . S
C117 O118 1.227 . S
O118 C117 1.227 . S
N119 Co105 2.140 . S
N119 C122 1.346 . S
N119 C123 1.345 . S
C120 C121 1.387 . S
C120 C124 1.391 . S
C121 C120 1.387 . S
C121 C122 1.369 . S
C121 H130 0.929 . S
C122 N119 1.346 . S
C122 C121 1.369 . S
C122 H125 0.928 . S
C123 N119 1.345 . S
C123 C124 1.371 . S
C123 H126 0.931 . S
C124 C120 1.391 . S
C124 C123 1.371 . S
C124 H131 0.930 . S
H125 C122 0.928 . S
H126 C123 0.931 . S
H127 C103 0.930 . S
H128 C100 0.930 . S
H129 C109 0.930 . S
H130 C121 0.929 . S
H131 C124 0.930 . S
C132 C133 1.351 . S
C132 N135 1.368 . S
C132 H137 0.931 . S
C133 C132 1.351 . S
C133 N134 1.373 . S
C133 H161 0.930 . S
N134 C133 1.373 . S
N134 C136 1.340 . S
N135 C132 1.368 . S
N135 C136 1.321 . S
N135 Co138 2.135 . S
C136 N134 1.340 . S
C136 N135 1.321 . S
C136 H160 0.930 . S
H137 C132 0.931 . S
Co138 N135 2.135 . S
Co138 N141 2.121 . S
Co138 O146 2.055 . S
Co138 O149 2.039 . S
Co138 N152 2.140 . S
C139 O140 1.227 . S
C139 O149 1.265 . S
O140 C139 1.227 . S
N141 Co138 2.121 . S
N141 C143 1.375 . S
N141 C144 1.313 . S
C142 C143 1.338 . S
C142 N145 1.377 . S
C142 H162 0.930 . S
C143 N141 1.375 . S
C143 C142 1.338 . S
C143 H147 0.931 . S
C144 N141 1.313 . S
C144 N145 1.344 . S
C144 H148 0.930 . S
N145 C142 1.377 . S
N145 C144 1.344 . S
O146 Co138 2.055 . S
O146 C150 1.253 . S
H147 C143 0.931 . S
H148 C144 0.930 . S
O149 Co138 2.039 . S
O149 C139 1.265 . S
C150 O146 1.253 . S
C150 O151 1.227 . S
O151 C150 1.227 . S
N152 Co138 2.140 . S
N152 C155 1.346 . S
N152 C156 1.345 . S
C153 C154 1.387 . S
C153 C157 1.391 . S
C154 C153 1.387 . S
C154 C155 1.369 . S
C154 H163 0.929 . S
C155 N152 1.346 . S
C155 C154 1.369 . S
C155 H158 0.928 . S
C156 N152 1.345 . S
C156 C157 1.371 . S
C156 H159 0.931 . S
C157 C153 1.391 . S
C157 C156 1.371 . S
C157 H164 0.930 . S
H158 C155 0.928 . S
H159 C156 0.931 . S
H160 C136 0.930 . S
H161 C133 0.930 . S
H162 C142 0.930 . S
H163 C154 0.929 . S
H164 C157 0.930 . S
C165 C166 1.351 . S
C165 N168 1.368 . S
C165 H170 0.931 . S
C166 C165 1.351 . S
C166 N167 1.373 . S
C166 H194 0.930 . S
N167 C166 1.373 . S
N167 C169 1.340 . S
N168 C165 1.368 . S
N168 C169 1.321 . S
N168 Co171 2.135 . S
C169 N167 1.340 . S
C169 N168 1.321 . S
C169 H193 0.930 . S
H170 C165 0.931 . S
Co171 N168 2.135 . S
Co171 N174 2.121 . S
Co171 O179 2.055 . S
Co171 O182 2.039 . S
Co171 N185 2.140 . S
C172 O173 1.227 . S
C172 O182 1.265 . S
O173 C172 1.227 . S
N174 Co171 2.121 . S
N174 C176 1.375 . S
N174 C177 1.313 . S
C175 C176 1.338 . S
C175 N178 1.377 . S
C175 H195 0.930 . S
C176 N174 1.375 . S
C176 C175 1.338 . S
C176 H180 0.931 . S
C177 N174 1.313 . S
C177 N178 1.344 . S
C177 H181 0.930 . S
N178 C175 1.377 . S
N178 C177 1.344 . S
O179 Co171 2.055 . S
O179 C183 1.253 . S
H180 C176 0.931 . S
H181 C177 0.930 . S
O182 Co171 2.039 . S
O182 C172 1.265 . S
C183 O179 1.253 . S
C183 O184 1.227 . S
O184 C183 1.227 . S
N185 Co171 2.140 . S
N185 C188 1.346 . S
N185 C189 1.345 . S
C186 C187 1.387 . S
C186 C190 1.391 . S
C187 C186 1.387 . S
C187 C188 1.369 . S
C187 H196 0.929 . S
C188 N185 1.346 . S
C188 C187 1.369 . S
C188 H191 0.928 . S
C189 N185 1.345 . S
C189 C190 1.371 . S
C189 H192 0.931 . S
C190 C186 1.391 . S
C190 C189 1.371 . S
C190 H197 0.930 . S
H191 C188 0.928 . S
H192 C189 0.931 . S
H193 C169 0.930 . S
H194 C166 0.930 . S
H195 C175 0.930 . S
H196 C187 0.929 . S
H197 C190 0.930 . S
C198 C199 1.351 . S
C198 N201 1.368 . S
C198 H203 0.931 . S
C199 C198 1.351 . S
C199 N200 1.373 . S
C199 H227 0.930 . S
N200 C199 1.373 . S
N200 C202 1.340 . S
N201 C198 1.368 . S
N201 C202 1.321 . S
N201 Co204 2.135 . S
C202 N200 1.340 . S
C202 N201 1.321 . S
C202 H226 0.930 . S
H203 C198 0.931 . S
Co204 N201 2.135 . S
Co204 N207 2.121 . S
Co204 O212 2.055 . S
Co204 O215 2.039 . S
Co204 N218 2.140 . S
C205 O206 1.227 . S
C205 O215 1.265 . S
O206 C205 1.227 . S
N207 Co204 2.121 . S
N207 C209 1.375 . S
N207 C210 1.313 . S
C208 C209 1.338 . S
C208 N211 1.377 . S
C208 H228 0.930 . S
C209 N207 1.375 . S
C209 C208 1.338 . S
C209 H213 0.931 . S
C210 N207 1.313 . S
C210 N211 1.344 . S
C210 H214 0.930 . S
N211 C208 1.377 . S
N211 C210 1.344 . S
O212 Co204 2.055 . S
O212 C216 1.253 . S
H213 C209 0.931 . S
H214 C210 0.930 . S
O215 Co204 2.039 . S
O215 C205 1.265 . S
C216 O212 1.253 . S
C216 O217 1.227 . S
O217 C216 1.227 . S
N218 Co204 2.140 . S
N218 C221 1.346 . S
N218 C222 1.345 . S
C219 C220 1.387 . S
C219 C223 1.391 . S
C220 C219 1.387 . S
C220 C221 1.369 . S
C220 H229 0.929 . S
C221 N218 1.346 . S
C221 C220 1.369 . S
C221 H224 0.928 . S
C222 N218 1.345 . S
C222 C223 1.371 . S
C222 H225 0.931 . S
C223 C219 1.391 . S
C223 C222 1.371 . S
C223 H230 0.930 . S
H224 C221 0.928 . S
H225 C222 0.931 . S
H226 C202 0.930 . S
H227 C199 0.930 . S
H228 C208 0.930 . S
H229 C220 0.929 . S
H230 C223 0.930 . S
C231 C232 1.351 . S
C231 N234 1.368 . S
C231 H236 0.931 . S
C232 C231 1.351 . S
C232 N233 1.373 . S
C232 H260 0.930 . S
N233 C232 1.373 . S
N233 C235 1.340 . S
N234 C231 1.368 . S
N234 C235 1.321 . S
N234 Co237 2.135 . S
C235 N233 1.340 . S
C235 N234 1.321 . S
C235 H259 0.930 . S
H236 C231 0.931 . S
Co237 N234 2.135 . S
Co237 N240 2.121 . S
Co237 O245 2.055 . S
Co237 O248 2.039 . S
Co237 N251 2.140 . S
C238 O239 1.227 . S
C238 O248 1.265 . S
O239 C238 1.227 . S
N240 Co237 2.121 . S
N240 C242 1.375 . S
N240 C243 1.313 . S
C241 C242 1.338 . S
C241 N244 1.377 . S
C241 H261 0.930 . S
C242 N240 1.375 . S
C242 C241 1.338 . S
C242 H246 0.931 . S
C243 N240 1.313 . S
C243 N244 1.344 . S
C243 H247 0.930 . S
N244 C241 1.377 . S
N244 C243 1.344 . S
O245 Co237 2.055 . S
O245 C249 1.253 . S
H246 C242 0.931 . S
H247 C243 0.930 . S
O248 Co237 2.039 . S
O248 C238 1.265 . S
C249 O245 1.253 . S
C249 O250 1.227 . S
O250 C249 1.227 . S
N251 Co237 2.140 . S
N251 C254 1.346 . S
N251 C255 1.345 . S
C252 C253 1.387 . S
C252 C256 1.391 . S
C253 C252 1.387 . S
C253 C254 1.369 . S
C253 H262 0.929 . S
C254 N251 1.346 . S
C254 C253 1.369 . S
C254 H257 0.928 . S
C255 N251 1.345 . S
C255 C256 1.371 . S
C255 H258 0.931 . S
C256 C252 1.391 . S
C256 C255 1.371 . S
C256 H263 0.930 . S
H257 C254 0.928 . S
H258 C255 0.931 . S
H259 C235 0.930 . S
H260 C232 0.930 . S
H261 C241 0.930 . S
H262 C253 0.929 . S
H263 C256 0.930 . S
C264 C265 1.351 . S
C264 N267 1.368 . S
C264 H269 0.931 . S
C265 C264 1.351 . S
C265 N266 1.373 . S
C265 H293 0.930 . S
N266 C265 1.373 . S
N266 C268 1.340 . S
N267 C264 1.368 . S
N267 C268 1.321 . S
N267 Co270 2.135 . S
C268 N266 1.340 . S
C268 N267 1.321 . S
C268 H292 0.930 . S
H269 C264 0.931 . S
Co270 N267 2.135 . S
Co270 N273 2.121 . S
Co270 O278 2.055 . S
Co270 O281 2.039 . S
Co270 N284 2.140 . S
C271 O272 1.227 . S
C271 O281 1.265 . S
O272 C271 1.227 . S
N273 Co270 2.121 . S
N273 C275 1.375 . S
N273 C276 1.313 . S
C274 C275 1.338 . S
C274 N277 1.377 . S
C274 H294 0.930 . S
C275 N273 1.375 . S
C275 C274 1.338 . S
C275 H279 0.931 . S
C276 N273 1.313 . S
C276 N277 1.344 . S
C276 H280 0.930 . S
N277 C274 1.377 . S
N277 C276 1.344 . S
O278 Co270 2.055 . S
O278 C282 1.253 . S
H279 C275 0.931 . S
H280 C276 0.930 . S
O281 Co270 2.039 . S
O281 C271 1.265 . S
C282 O278 1.253 . S
C282 O283 1.227 . S
O283 C282 1.227 . S
N284 Co270 2.140 . S
N284 C287 1.346 . S
N284 C288 1.345 . S
C285 C286 1.387 . S
C285 C289 1.391 . S
C286 C285 1.387 . S
C286 C287 1.369 . S
C286 H295 0.929 . S
C287 N284 1.346 . S
C287 C286 1.369 . S
C287 H290 0.928 . S
C288 N284 1.345 . S
C288 C289 1.371 . S
C288 H291 0.931 . S
C289 C285 1.391 . S
C289 C288 1.371 . S
C289 H296 0.930 . S
H290 C287 0.928 . S
H291 C288 0.931 . S
H292 C268 0.930 . S
H293 C265 0.930 . S
H294 C274 0.930 . S
H295 C286 0.929 . S
H296 C289 0.930 . S
C297 C298 1.351 . S
C297 N300 1.368 . S
C297 H302 0.931 . S
C298 C297 1.351 . S
C298 N299 1.373 . S
C298 H326 0.930 . S
N299 C298 1.373 . S
N299 C301 1.340 . S
N300 C297 1.368 . S
N300 C301 1.321 . S
N300 Co303 2.135 . S
C301 N299 1.340 . S
C301 N300 1.321 . S
C301 H325 0.930 . S
H302 C297 0.931 . S
Co303 N300 2.135 . S
Co303 N306 2.121 . S
Co303 O311 2.055 . S
Co303 O314 2.039 . S
Co303 N317 2.140 . S
C304 O305 1.227 . S
C304 O314 1.265 . S
O305 C304 1.227 . S
N306 Co303 2.121 . S
N306 C308 1.375 . S
N306 C309 1.313 . S
C307 C308 1.338 . S
C307 N310 1.377 . S
C307 H327 0.930 . S
C308 N306 1.375 . S
C308 C307 1.338 . S
C308 H312 0.931 . S
C309 N306 1.313 . S
C309 N310 1.344 . S
C309 H313 0.930 . S
N310 C307 1.377 . S
N310 C309 1.344 . S
O311 Co303 2.055 . S
O311 C315 1.253 . S
H312 C308 0.931 . S
H313 C309 0.930 . S
O314 Co303 2.039 . S
O314 C304 1.265 . S
C315 O311 1.253 . S
C315 O316 1.227 . S
O316 C315 1.227 . S
N317 Co303 2.140 . S
N317 C320 1.346 . S
N317 C321 1.345 . S
C318 C319 1.387 . S
C318 C322 1.391 . S
C319 C318 1.387 . S
C319 C320 1.369 . S
C319 H328 0.929 . S
C320 N317 1.346 . S
C320 C319 1.369 . S
C320 H323 0.928 . S
C321 N317 1.345 . S
C321 C322 1.371 . S
C321 H324 0.931 . S
C322 C318 1.391 . S
C322 C321 1.371 . S
C322 H329 0.930 . S
H323 C320 0.928 . S
H324 C321 0.931 . S
H325 C301 0.930 . S
H326 C298 0.930 . S
H327 C307 0.930 . S
H328 C319 0.929 . S
H329 C322 0.930 . S
C330 C331 1.351 . S
C330 N333 1.368 . S
C330 H335 0.931 . S
C331 C330 1.351 . S
C331 N332 1.373 . S
C331 H359 0.930 . S
N332 C331 1.373 . S
N332 C334 1.340 . S
N333 C330 1.368 . S
N333 C334 1.321 . S
N333 Co336 2.135 . S
C334 N332 1.340 . S
C334 N333 1.321 . S
C334 H358 0.930 . S
H335 C330 0.931 . S
Co336 N333 2.135 . S
Co336 N339 2.121 . S
Co336 O344 2.055 . S
Co336 O347 2.039 . S
Co336 N350 2.140 . S
C337 O338 1.227 . S
C337 O347 1.265 . S
O338 C337 1.227 . S
N339 Co336 2.121 . S
N339 C341 1.375 . S
N339 C342 1.313 . S
C340 C341 1.338 . S
C340 N343 1.377 . S
C340 H360 0.930 . S
C341 N339 1.375 . S
C341 C340 1.338 . S
C341 H345 0.931 . S
C342 N339 1.313 . S
C342 N343 1.344 . S
C342 H346 0.930 . S
N343 C340 1.377 . S
N343 C342 1.344 . S
O344 Co336 2.055 . S
O344 C348 1.253 . S
H345 C341 0.931 . S
H346 C342 0.930 . S
O347 Co336 2.039 . S
O347 C337 1.265 . S
C348 O344 1.253 . S
C348 O349 1.227 . S
O349 C348 1.227 . S
N350 Co336 2.140 . S
N350 C353 1.346 . S
N350 C354 1.345 . S
C351 C352 1.387 . S
C351 C355 1.391 . S
C352 C351 1.387 . S
C352 C353 1.369 . S
C352 H361 0.929 . S
C353 N350 1.346 . S
C353 C352 1.369 . S
C353 H356 0.928 . S
C354 N350 1.345 . S
C354 C355 1.371 . S
C354 H357 0.931 . S
C355 C351 1.391 . S
C355 C354 1.371 . S
C355 H362 0.930 . S
H356 C353 0.928 . S
H357 C354 0.931 . S
H358 C334 0.930 . S
H359 C331 0.930 . S
H360 C340 0.930 . S
H361 C352 0.929 . S
H362 C355 0.930 . S
C363 C364 1.351 . S
C363 N366 1.368 . S
C363 H368 0.931 . S
C364 C363 1.351 . S
C364 N365 1.373 . S
C364 H392 0.930 . S
N365 C364 1.373 . S
N365 C367 1.340 . S
N366 C363 1.368 . S
N366 C367 1.321 . S
N366 Co369 2.135 . S
C367 N365 1.340 . S
C367 N366 1.321 . S
C367 H391 0.930 . S
H368 C363 0.931 . S
Co369 N366 2.135 . S
Co369 N372 2.121 . S
Co369 O377 2.055 . S
Co369 O380 2.039 . S
Co369 N383 2.140 . S
C370 O371 1.227 . S
C370 O380 1.265 . S
O371 C370 1.227 . S
N372 Co369 2.121 . S
N372 C374 1.375 . S
N372 C375 1.313 . S
C373 C374 1.338 . S
C373 N376 1.377 . S
C373 H393 0.930 . S
C374 N372 1.375 . S
C374 C373 1.338 . S
C374 H378 0.931 . S
C375 N372 1.313 . S
C375 N376 1.344 . S
C375 H379 0.930 . S
N376 C373 1.377 . S
N376 C375 1.344 . S
O377 Co369 2.055 . S
O377 C381 1.253 . S
H378 C374 0.931 . S
H379 C375 0.930 . S
O380 Co369 2.039 . S
O380 C370 1.265 . S
C381 O377 1.253 . S
C381 O382 1.227 . S
O382 C381 1.227 . S
N383 Co369 2.140 . S
N383 C386 1.346 . S
N383 C387 1.345 . S
C384 C385 1.387 . S
C384 C388 1.391 . S
C385 C384 1.387 . S
C385 C386 1.369 . S
C385 H394 0.929 . S
C386 N383 1.346 . S
C386 C385 1.369 . S
C386 H389 0.928 . S
C387 N383 1.345 . S
C387 C388 1.371 . S
C387 H390 0.931 . S
C388 C384 1.391 . S
C388 C387 1.371 . S
C388 H395 0.930 . S
H389 C386 0.928 . S
H390 C387 0.931 . S
H391 C367 0.930 . S
H392 C364 0.930 . S
H393 C373 0.930 . S
H394 C385 0.929 . S
H395 C388 0.930 . S
H396 C408 0.930 . S
H397 C410 0.930 . S
H398 C411 0.930 . S
H399 C415 0.959 . S
H400 C415 0.959 . S
H401 C415 0.961 . S
H402 C416 0.960 . S
H403 C416 0.961 . S
H404 C416 0.959 . S
H405 C419 0.929 . S
H406 C420 0.931 . S
H407 C422 0.930 . S
C408 H396 0.930 . S
C408 C409 1.399 . S
C408 C413 1.399 . S
C409 C408 1.399 . S
C409 C410 1.376 . S
C410 H397 0.930 . S
C410 C409 1.376 . S
C410 C411 1.388 . S
C411 H398 0.930 . S
C411 C410 1.388 . S
C411 C412 1.390 . S
C412 C411 1.390 . S
C412 C413 1.394 . S
C412 C418 1.465 . S
C413 C408 1.399 . S
C413 C412 1.394 . S
C413 C414 1.516 . S
C414 C413 1.516 . S
C414 C415 1.502 . S
C414 C416 1.561 . S
C414 C417 1.526 . S
C415 H399 0.959 . S
C415 H400 0.959 . S
C415 H401 0.961 . S
C415 C414 1.502 . S
C416 H402 0.960 . S
C416 H403 0.961 . S
C416 H404 0.959 . S
C416 C414 1.561 . S
C417 C414 1.526 . S
C417 C418 1.396 . S
C417 C422 1.390 . S
C418 C412 1.465 . S
C418 C417 1.396 . S
C418 C419 1.399 . S
C419 H405 0.929 . S
C419 C418 1.399 . S
C419 C420 1.385 . S
C420 H406 0.931 . S
C420 C419 1.385 . S
C420 C421 1.389 . S
C421 C420 1.389 . S
C421 C422 1.387 . S
C422 H407 0.930 . S
C422 C417 1.390 . S
C422 C421 1.387 . S
H423 C435 0.930 . S
H424 C437 0.930 . S
H425 C438 0.930 . S
H426 C442 0.959 . S
H427 C442 0.959 . S
H428 C442 0.961 . S
H429 C443 0.960 . S
H430 C443 0.961 . S
H431 C443 0.959 . S
H432 C446 0.929 . S
H433 C447 0.931 . S
H434 C449 0.930 . S
C435 H423 0.930 . S
C435 C436 1.399 . S
C435 C440 1.399 . S
C436 C435 1.399 . S
C436 C437 1.376 . S
C437 H424 0.930 . S
C437 C436 1.376 . S
C437 C438 1.388 . S
C438 H425 0.930 . S
C438 C437 1.388 . S
C438 C439 1.390 . S
C439 C438 1.390 . S
C439 C440 1.394 . S
C439 C445 1.465 . S
C440 C435 1.399 . S
C440 C439 1.394 . S
C440 C441 1.516 . S
C441 C440 1.516 . S
C441 C442 1.502 . S
C441 C443 1.561 . S
C441 C444 1.526 . S
C442 H426 0.959 . S
C442 H427 0.959 . S
C442 H428 0.961 . S
C442 C441 1.502 . S
C443 H429 0.960 . S
C443 H430 0.961 . S
C443 H431 0.959 . S
C443 C441 1.561 . S
C444 C441 1.526 . S
C444 C445 1.396 . S
C444 C449 1.390 . S
C445 C439 1.465 . S
C445 C444 1.396 . S
C445 C446 1.399 . S
C446 H432 0.929 . S
C446 C445 1.399 . S
C446 C447 1.385 . S
C447 H433 0.931 . S
C447 C446 1.385 . S
C447 C448 1.389 . S
C448 C447 1.389 . S
C448 C449 1.387 . S
C449 H434 0.930 . S
C449 C444 1.390 . S
C449 C448 1.387 . S
H450 C462 0.930 . S
H451 C464 0.930 . S
H452 C465 0.930 . S
H453 C469 0.959 . S
H454 C469 0.959 . S
H455 C469 0.961 . S
H456 C470 0.960 . S
H457 C470 0.961 . S
H458 C470 0.959 . S
H459 C473 0.929 . S
H460 C474 0.931 . S
H461 C476 0.930 . S
C462 H450 0.930 . S
C462 C463 1.399 . S
C462 C467 1.399 . S
C463 C462 1.399 . S
C463 C464 1.376 . S
C464 H451 0.930 . S
C464 C463 1.376 . S
C464 C465 1.388 . S
C465 H452 0.930 . S
C465 C464 1.388 . S
C465 C466 1.390 . S
C466 C465 1.390 . S
C466 C467 1.394 . S
C466 C472 1.465 . S
C467 C462 1.399 . S
C467 C466 1.394 . S
C467 C468 1.516 . S
C468 C467 1.516 . S
C468 C469 1.502 . S
C468 C470 1.561 . S
C468 C471 1.526 . S
C469 H453 0.959 . S
C469 H454 0.959 . S
C469 H455 0.961 . S
C469 C468 1.502 . S
C470 H456 0.960 . S
C470 H457 0.961 . S
C470 H458 0.959 . S
C470 C468 1.561 . S
C471 C468 1.526 . S
C471 C472 1.396 . S
C471 C476 1.390 . S
C472 C466 1.465 . S
C472 C471 1.396 . S
C472 C473 1.399 . S
C473 H459 0.929 . S
C473 C472 1.399 . S
C473 C474 1.385 . S
C474 H460 0.931 . S
C474 C473 1.385 . S
C474 C475 1.389 . S
C475 C474 1.389 . S
C475 C476 1.387 . S
C476 H461 0.930 . S
C476 C471 1.390 . S
C476 C475 1.387 . S
H477 C489 0.930 . S
H478 C491 0.930 . S
H479 C492 0.930 . S
H480 C496 0.959 . S
H481 C496 0.959 . S
H482 C496 0.961 . S
H483 C497 0.960 . S
H484 C497 0.961 . S
H485 C497 0.959 . S
H486 C500 0.929 . S
H487 C501 0.931 . S
H488 C503 0.930 . S
C489 H477 0.930 . S
C489 C490 1.399 . S
C489 C494 1.399 . S
C490 C489 1.399 . S
C490 C491 1.376 . S
C491 H478 0.930 . S
C491 C490 1.376 . S
C491 C492 1.388 . S
C492 H479 0.930 . S
C492 C491 1.388 . S
C492 C493 1.390 . S
C493 C492 1.390 . S
C493 C494 1.394 . S
C493 C499 1.465 . S
C494 C489 1.399 . S
C494 C493 1.394 . S
C494 C495 1.516 . S
C495 C494 1.516 . S
C495 C496 1.502 . S
C495 C497 1.561 . S
C495 C498 1.526 . S
C496 H480 0.959 . S
C496 H481 0.959 . S
C496 H482 0.961 . S
C496 C495 1.502 . S
C497 H483 0.960 . S
C497 H484 0.961 . S
C497 H485 0.959 . S
C497 C495 1.561 . S
C498 C495 1.526 . S
C498 C499 1.396 . S
C498 C503 1.390 . S
C499 C493 1.465 . S
C499 C498 1.396 . S
C499 C500 1.399 . S
C500 H486 0.929 . S
C500 C499 1.399 . S
C500 C501 1.385 . S
C501 H487 0.931 . S
C501 C500 1.385 . S
C501 C502 1.389 . S
C502 C501 1.389 . S
C502 C503 1.387 . S
C503 H488 0.930 . S
C503 C498 1.390 . S
C503 C502 1.387 . S
H504 C516 0.930 . S
H505 C518 0.930 . S
H506 C519 0.930 . S
H507 C523 0.959 . S
H508 C523 0.959 . S
H509 C523 0.961 . S
H510 C524 0.960 . S
H511 C524 0.961 . S
H512 C524 0.959 . S
H513 C527 0.929 . S
H514 C528 0.931 . S
H515 C530 0.930 . S
C516 H504 0.930 . S
C516 C517 1.399 . S
C516 C521 1.399 . S
C517 C516 1.399 . S
C517 C518 1.376 . S
C518 H505 0.930 . S
C518 C517 1.376 . S
C518 C519 1.388 . S
C519 H506 0.930 . S
C519 C518 1.388 . S
C519 C520 1.390 . S
C520 C519 1.390 . S
C520 C521 1.394 . S
C520 C526 1.465 . S
C521 C516 1.399 . S
C521 C520 1.394 . S
C521 C522 1.516 . S
C522 C521 1.516 . S
C522 C523 1.502 . S
C522 C524 1.561 . S
C522 C525 1.526 . S
C523 H507 0.959 . S
C523 H508 0.959 . S
C523 H509 0.961 . S
C523 C522 1.502 . S
C524 H510 0.960 . S
C524 H511 0.961 . S
C524 H512 0.959 . S
C524 C522 1.561 . S
C525 C522 1.526 . S
C525 C526 1.396 . S
C525 C530 1.390 . S
C526 C520 1.465 . S
C526 C525 1.396 . S
C526 C527 1.399 . S
C527 H513 0.929 . S
C527 C526 1.399 . S
C527 C528 1.385 . S
C528 H514 0.931 . S
C528 C527 1.385 . S
C528 C529 1.389 . S
C529 C528 1.389 . S
C529 C530 1.387 . S
C530 H515 0.930 . S
C530 C525 1.390 . S
C530 C529 1.387 . S
H531 C543 0.930 . S
H532 C545 0.930 . S
H533 C546 0.930 . S
H534 C550 0.959 . S
H535 C550 0.959 . S
H536 C550 0.961 . S
H537 C551 0.960 . S
H538 C551 0.961 . S
H539 C551 0.959 . S
H540 C554 0.929 . S
H541 C555 0.931 . S
H542 C557 0.930 . S
C543 H531 0.930 . S
C543 C544 1.399 . S
C543 C548 1.399 . S
C544 C543 1.399 . S
C544 C545 1.376 . S
C545 H532 0.930 . S
C545 C544 1.376 . S
C545 C546 1.388 . S
C546 H533 0.930 . S
C546 C545 1.388 . S
C546 C547 1.390 . S
C547 C546 1.390 . S
C547 C548 1.394 . S
C547 C553 1.465 . S
C548 C543 1.399 . S
C548 C547 1.394 . S
C548 C549 1.516 . S
C549 C548 1.516 . S
C549 C550 1.502 . S
C549 C551 1.561 . S
C549 C552 1.526 . S
C550 H534 0.959 . S
C550 H535 0.959 . S
C550 H536 0.961 . S
C550 C549 1.502 . S
C551 H537 0.960 . S
C551 H538 0.961 . S
C551 H539 0.959 . S
C551 C549 1.561 . S
C552 C549 1.526 . S
C552 C553 1.396 . S
C552 C557 1.390 . S
C553 C547 1.465 . S
C553 C552 1.396 . S
C553 C554 1.399 . S
C554 H540 0.929 . S
C554 C553 1.399 . S
C554 C555 1.385 . S
C555 H541 0.931 . S
C555 C554 1.385 . S
C555 C556 1.389 . S
C556 C555 1.389 . S
C556 C557 1.387 . S
C557 H542 0.930 . S
C557 C552 1.390 . S
C557 C556 1.387 . S
H558 C570 0.930 . S
H559 C572 0.930 . S
H560 C573 0.930 . S
H561 C577 0.959 . S
H562 C577 0.959 . S
H563 C577 0.961 . S
H564 C578 0.960 . S
H565 C578 0.961 . S
H566 C578 0.959 1_554 S
H567 C581 0.929 . S
H568 C582 0.931 . S
H569 C584 0.930 1_545 S
C570 H558 0.930 . S
C570 C571 1.399 1_556 S
C570 C575 1.399 . S
C571 C570 1.399 1_554 S
C571 C572 1.376 . S
C572 H559 0.930 . S
C572 C571 1.376 . S
C572 C573 1.388 1_545 S
C573 H560 0.930 . S
C573 C572 1.388 1_565 S
C573 C574 1.390 . S
C574 C573 1.390 . S
C574 C575 1.394 1_564 S
C574 C580 1.465 . S
C575 C570 1.399 . S
C575 C574 1.394 1_546 S
C575 C576 1.516 . S
C576 C575 1.516 . S
C576 C577 1.502 . S
C576 C578 1.561 . S
C576 C579 1.514 1_545 S
C577 H561 0.959 . S
C577 H562 0.959 . S
C577 H563 0.961 . S
C577 C576 1.502 . S
C578 H564 0.960 . S
C578 H565 0.961 . S
C578 H566 0.959 1_556 S
C578 C576 1.561 . S
C579 C576 1.514 1_565 S
C579 C580 1.399 1_556 S
C579 C584 1.399 . S
C580 C574 1.465 . S
C580 C579 1.399 1_554 S
C580 C581 1.399 . S
C581 H567 0.929 . S
C581 C580 1.399 . S
C581 C582 1.385 . S
C582 H568 0.931 . S
C582 C581 1.385 . S
C582 C583 1.389 1_554 S
C583 C582 1.389 1_556 S
C583 C584 1.387 . S
C584 H569 0.930 1_565 S
C584 C579 1.399 . S
C584 C583 1.387 . S
H585 C597 0.930 . S
H586 C599 0.930 . S
H587 C600 0.930 . S
H588 C604 0.959 . S
H589 C604 0.959 . S
H590 C604 0.961 . S
H591 C605 0.960 . S
H592 C605 0.961 1_455 S
H593 C605 0.959 . S
H594 C608 0.929 . S
H595 C609 0.931 . S
H596 C611 0.930 . S
C597 H585 0.930 . S
C597 C598 1.399 1_556 S
C597 C602 1.399 . S
C598 C597 1.399 1_554 S
C598 C599 1.376 . S
C599 H586 0.930 . S
C599 C598 1.376 . S
C599 C600 1.388 . S
C600 H587 0.930 . S
C600 C599 1.388 . S
C600 C601 1.390 . S
C601 C600 1.390 . S
C601 C602 1.394 1_554 S
C601 C607 1.465 . S
C602 C597 1.399 . S
C602 C601 1.394 1_556 S
C602 C603 1.516 1_655 S
C603 C602 1.516 1_455 S
C603 C604 1.502 . S
C603 C605 1.561 1_455 S
C603 C606 1.526 . S
C604 H588 0.959 . S
C604 H589 0.959 . S
C604 H590 0.961 . S
C604 C603 1.502 . S
C605 H591 0.960 . S
C605 H592 0.961 1_655 S
C605 H593 0.959 . S
C605 C603 1.561 1_655 S
C606 C603 1.526 . S
C606 C607 1.396 1_456 S
C606 C611 1.390 . S
C607 C601 1.465 . S
C607 C606 1.396 1_654 S
C607 C608 1.399 . S
C608 H594 0.929 . S
C608 C607 1.399 . S
C608 C609 1.385 1_655 S
C609 H595 0.931 . S
C609 C608 1.385 1_455 S
C609 C610 1.389 1_554 S
C610 C609 1.389 1_556 S
C610 C611 1.387 . S
C611 H596 0.930 . S
C611 C606 1.390 . S
C611 C610 1.387 . S
H612 C624 0.930 . S
H613 C626 0.930 . S
H614 C627 0.930 . S
H615 C631 0.959 . S
H616 C631 0.959 . S
H617 C631 0.961 . S
H618 C632 0.960 . S
H619 C632 0.961 . S
H620 C632 0.959 1_556 S
H621 C635 0.929 . S
H622 C636 0.931 . S
H623 C638 0.930 . S
C624 H612 0.930 . S
C624 C625 1.399 1_554 S
C624 C629 1.399 . S
C625 C624 1.399 1_556 S
C625 C626 1.376 . S
C626 H613 0.930 . S
C626 C625 1.376 . S
C626 C627 1.388 . S
C627 H614 0.930 . S
C627 C626 1.388 . S
C627 C628 1.390 . S
C628 C627 1.390 . S
C628 C629 1.394 1_556 S
C628 C634 1.465 . S
C629 C624 1.399 . S
C629 C628 1.394 1_554 S
C629 C630 1.516 . S
C630 C629 1.516 . S
C630 C631 1.502 . S
C630 C632 1.561 . S
C630 C633 1.526 . S
C631 H615 0.959 . S
C631 H616 0.959 . S
C631 H617 0.961 . S
C631 C630 1.502 . S
C632 H618 0.960 . S
C632 H619 0.961 . S
C632 H620 0.959 1_554 S
C632 C630 1.561 . S
C633 C630 1.526 . S
C633 C634 1.396 1_554 S
C633 C638 1.390 . S
C634 C628 1.465 . S
C634 C633 1.396 1_556 S
C634 C635 1.399 . S
C635 H621 0.929 . S
C635 C634 1.399 . S
C635 C636 1.385 . S
C636 H622 0.931 . S
C636 C635 1.385 . S
C636 C637 1.389 1_556 S
C637 C636 1.389 1_554 S
C637 C638 1.387 . S
C638 H623 0.930 . S
C638 C633 1.390 . S
C638 C637 1.387 . S
H639 C651 0.930 . S
H640 C653 0.930 . S
H641 C654 0.930 . S
H642 C658 0.959 . S
H643 C658 0.959 . S
H644 C658 0.961 . S
H645 C659 0.960 . S
H646 C659 0.961 . S
H647 C659 0.959 . S
H648 C662 0.929 . S
H649 C663 0.931 . S
H650 C665 0.930 . S
C651 H639 0.930 . S
C651 C652 1.399 . S
C651 C656 1.399 . S
C652 C651 1.399 . S
C652 C653 1.376 . S
C653 H640 0.930 . S
C653 C652 1.376 . S
C653 C654 1.388 . S
C654 H641 0.930 . S
C654 C653 1.388 . S
C654 C655 1.390 . S
C655 C654 1.390 . S
C655 C656 1.394 . S
C655 C661 1.465 1_455 S
C656 C651 1.399 . S
C656 C655 1.394 . S
C656 C657 1.516 1_455 S
C657 C656 1.516 1_655 S
C657 C658 1.502 1_655 S
C657 C659 1.561 . S
C657 C660 1.526 . S
C658 H642 0.959 . S
C658 H643 0.959 . S
C658 H644 0.961 . S
C658 C657 1.502 1_455 S
C659 H645 0.960 . S
C659 H646 0.961 . S
C659 H647 0.959 . S
C659 C657 1.561 . S
C660 C657 1.526 . S
C660 C661 1.396 . S
C660 C665 1.390 . S
C661 C655 1.465 1_655 S
C661 C660 1.396 . S
C661 C662 1.399 . S
C662 H648 0.929 . S
C662 C661 1.399 . S
C662 C663 1.385 . S
C663 H649 0.931 . S
C663 C662 1.385 . S
C663 C664 1.389 . S
C664 C663 1.389 . S
C664 C665 1.387 . S
C665 H650 0.930 . S
C665 C660 1.390 . S
C665 C664 1.387 . S
H666 C678 0.930 . S
H667 C680 0.930 . S
H668 C681 0.930 . S
H669 C685 0.959 . S
H670 C685 0.959 . S
H671 C685 0.961 . S
H672 C686 0.960 . S
H673 C686 0.961 . S
H674 C686 0.959 . S
H675 C689 0.929 . S
H676 C690 0.931 . S
H677 C692 0.930 . S
C678 H666 0.930 . S
C678 C679 1.399 . S
C678 C683 1.399 . S
C679 C678 1.399 . S
C679 C680 1.376 . S
C680 H667 0.930 . S
C680 C679 1.376 . S
C680 C681 1.388 . S
C681 H668 0.930 . S
C681 C680 1.388 . S
C681 C682 1.390 . S
C682 C681 1.390 . S
C682 C683 1.394 . S
C682 C688 1.465 . S
C683 C678 1.399 . S
C683 C682 1.394 . S
C683 C684 1.516 . S
C684 C683 1.516 . S
C684 C685 1.502 . S
C684 C686 1.561 . S
C684 C687 1.526 . S
C685 H669 0.959 . S
C685 H670 0.959 . S
C685 H671 0.961 . S
C685 C684 1.502 . S
C686 H672 0.960 . S
C686 H673 0.961 . S
C686 H674 0.959 . S
C686 C684 1.561 . S
C687 C684 1.526 . S
C687 C688 1.396 . S
C687 C692 1.390 . S
C688 C682 1.465 . S
C688 C687 1.396 . S
C688 C689 1.399 . S
C689 H675 0.929 . S
C689 C688 1.399 . S
C689 C690 1.385 . S
C690 H676 0.931 . S
C690 C689 1.385 . S
C690 C691 1.389 . S
C691 C690 1.389 . S
C691 C692 1.387 . S
C692 H677 0.930 . S
C692 C687 1.390 . S
C692 C691 1.387 . S
H693 C705 0.930 . S
H694 C707 0.930 . S
H695 C708 0.930 . S
H696 C712 0.933 1_545 S
H697 C712 0.959 . S
H698 C712 0.961 . S
H699 C713 0.960 . S
H700 C713 0.961 . S
H701 C713 0.959 . S
H702 C716 0.929 . S
H703 C717 0.931 . S
H704 C719 0.930 . S
C705 H693 0.930 . S
C705 C706 1.399 . S
C705 C710 1.399 . S
C706 C705 1.399 . S
C706 C707 1.376 . S
C707 H694 0.930 . S
C707 C706 1.376 . S
C707 C708 1.388 . S
C708 H695 0.930 . S
C708 C707 1.388 . S
C708 C709 1.390 . S
C709 C708 1.390 . S
C709 C710 1.394 . S
C709 C715 1.468 1_545 S
C710 C705 1.399 . S
C710 C709 1.394 . S
C710 C711 1.516 1_545 S
C711 C710 1.516 1_565 S
C711 C712 1.502 . S
C711 C713 1.561 . S
C711 C714 1.526 . S
C712 H696 0.933 1_565 S
C712 H697 0.959 . S
C712 H698 0.961 . S
C712 C711 1.502 . S
C713 H699 0.960 . S
C713 H700 0.961 . S
C713 H701 0.959 . S
C713 C711 1.561 . S
C714 C711 1.526 . S
C714 C715 1.409 . S
C714 C719 1.390 . S
C715 C709 1.468 1_565 S
C715 C714 1.409 . S
C715 C716 1.386 1_565 S
C716 H702 0.929 . S
C716 C715 1.386 1_545 S
C716 C717 1.385 1_545 S
C717 H703 0.931 . S
C717 C716 1.385 1_565 S
C717 C718 1.389 . S
C718 C717 1.389 . S
C718 C719 1.387 . S
C719 H704 0.930 . S
C719 C714 1.390 . S
C719 C718 1.387 . S
H720 C732 0.930 . S
H721 C734 0.930 . S
H722 C735 0.930 . S
H723 C739 0.959 . S
H724 C739 0.959 . S
H725 C739 0.961 . S
H726 C740 0.960 . S
H727 C740 0.961 . S
H728 C740 0.959 . S
H729 C743 0.929 . S
H730 C744 0.931 . S
H731 C746 0.930 . S
C732 H720 0.930 . S
C732 C733 1.399 . S
C732 C737 1.399 . S
C733 C732 1.399 . S
C733 C734 1.376 . S
C734 H721 0.930 . S
C734 C733 1.376 . S
C734 C735 1.388 . S
C735 H722 0.930 . S
C735 C734 1.388 . S
C735 C736 1.390 . S
C736 C735 1.390 . S
C736 C737 1.394 . S
C736 C742 1.465 . S
C737 C732 1.399 . S
C737 C736 1.394 . S
C737 C738 1.516 . S
C738 C737 1.516 . S
C738 C739 1.502 . S
C738 C740 1.561 . S
C738 C741 1.526 . S
C739 H723 0.959 . S
C739 H724 0.959 . S
C739 H725 0.961 . S
C739 C738 1.502 . S
C740 H726 0.960 . S
C740 H727 0.961 . S
C740 H728 0.959 . S
C740 C738 1.561 . S
C741 C738 1.526 . S
C741 C742 1.396 . S
C741 C746 1.390 . S
C742 C736 1.465 . S
C742 C741 1.396 . S
C742 C743 1.399 . S
C743 H729 0.929 . S
C743 C742 1.399 . S
C743 C744 1.385 . S
C744 H730 0.931 . S
C744 C743 1.385 . S
C744 C745 1.389 . S
C745 C744 1.389 . S
C745 C746 1.387 . S
C746 H731 0.930 . S
C746 C741 1.390 . S
C746 C745 1.387 . S
H747 C759 0.930 . S
H748 C761 0.930 . S
H749 C762 0.930 . S
H750 C766 0.959 . S
H751 C766 0.959 . S
H752 C766 0.961 . S
H753 C767 0.960 . S
H754 C767 0.961 . S
H755 C767 0.959 . S
H756 C770 0.929 . S
H757 C771 0.931 . S
H758 C773 0.930 . S
C759 H747 0.930 . S
C759 C760 1.399 . S
C759 C764 1.399 . S
C760 C759 1.399 . S
C760 C761 1.376 . S
C761 H748 0.930 . S
C761 C760 1.376 . S
C761 C762 1.388 . S
C762 H749 0.930 . S
C762 C761 1.388 . S
C762 C763 1.390 . S
C763 C762 1.390 . S
C763 C764 1.394 . S
C763 C769 1.465 . S
C764 C759 1.399 . S
C764 C763 1.394 . S
C764 C765 1.516 . S
C765 C764 1.516 . S
C765 C766 1.502 . S
C765 C767 1.561 . S
C765 C768 1.526 . S
C766 H750 0.959 . S
C766 H751 0.959 . S
C766 H752 0.961 . S
C766 C765 1.502 . S
C767 H753 0.960 . S
C767 H754 0.961 . S
C767 H755 0.959 . S
C767 C765 1.561 . S
C768 C765 1.526 . S
C768 C769 1.396 . S
C768 C773 1.390 . S
C769 C763 1.465 . S
C769 C768 1.396 . S
C769 C770 1.399 . S
C770 H756 0.929 . S
C770 C769 1.399 . S
C770 C771 1.385 . S
C771 H757 0.931 . S
C771 C770 1.385 . S
C771 C772 1.389 . S
C772 C771 1.389 . S
C772 C773 1.387 . S
C773 H758 0.930 . S
C773 C768 1.390 . S
C773 C772 1.387 . S
H774 C786 0.930 . S
H775 C788 0.930 . S
H776 C789 0.930 . S
H777 C793 0.959 . S
H778 C793 0.959 . S
H779 C793 0.961 . S
H780 C794 0.960 . S
H781 C794 0.961 . S
H782 C794 0.959 . S
H783 C797 0.929 . S
H784 C798 0.931 . S
H785 C800 0.930 . S
C786 H774 0.930 . S
C786 C787 1.399 . S
C786 C791 1.399 . S
C787 C786 1.399 . S
C787 C788 1.376 . S
C788 H775 0.930 . S
C788 C787 1.376 . S
C788 C789 1.388 . S
C789 H776 0.930 . S
C789 C788 1.388 . S
C789 C790 1.390 . S
C790 C789 1.390 . S
C790 C791 1.394 . S
C790 C796 1.465 . S
C791 C786 1.399 . S
C791 C790 1.394 . S
C791 C792 1.516 . S
C792 C791 1.516 . S
C792 C793 1.502 . S
C792 C794 1.561 . S
C792 C795 1.526 . S
C793 H777 0.959 . S
C793 H778 0.959 . S
C793 H779 0.961 . S
C793 C792 1.502 . S
C794 H780 0.960 . S
C794 H781 0.961 . S
C794 H782 0.959 . S
C794 C792 1.561 . S
C795 C792 1.526 . S
C795 C796 1.396 . S
C795 C800 1.390 . S
C796 C790 1.465 . S
C796 C795 1.396 . S
C796 C797 1.399 . S
C797 H783 0.929 . S
C797 C796 1.399 . S
C797 C798 1.385 . S
C798 H784 0.931 . S
C798 C797 1.385 . S
C798 C799 1.389 . S
C799 C798 1.389 . S
C799 C800 1.387 . S
C800 H785 0.930 . S
C800 C795 1.390 . S
C800 C799 1.387 . S
H801 C813 0.930 . S
H802 C815 0.930 . S
H803 C816 0.930 . S
H804 C820 0.959 . S
H805 C820 0.959 . S
H806 C820 0.961 . S
H807 C821 0.960 . S
H808 C821 0.961 . S
H809 C821 0.959 . S
H810 C824 0.929 . S
H811 C825 0.931 . S
H812 C827 0.930 . S
C813 H801 0.930 . S
C813 C814 1.399 . S
C813 C818 1.399 . S
C814 C813 1.399 . S
C814 C815 1.376 . S
C815 H802 0.930 . S
C815 C814 1.376 . S
C815 C816 1.388 . S
C816 H803 0.930 . S
C816 C815 1.388 . S
C816 C817 1.390 . S
C817 C816 1.390 . S
C817 C818 1.394 . S
C817 C823 1.465 . S
C818 C813 1.399 . S
C818 C817 1.394 . S
C818 C819 1.516 . S
C819 C818 1.516 . S
C819 C820 1.502 . S
C819 C821 1.561 . S
C819 C822 1.526 . S
C820 H804 0.959 . S
C820 H805 0.959 . S
C820 H806 0.961 . S
C820 C819 1.502 . S
C821 H807 0.960 . S
C821 H808 0.961 . S
C821 H809 0.959 . S
C821 C819 1.561 . S
C822 C819 1.526 . S
C822 C823 1.396 . S
C822 C827 1.390 . S
C823 C817 1.465 . S
C823 C822 1.396 . S
C823 C824 1.399 . S
C824 H810 0.929 . S
C824 C823 1.399 . S
C824 C825 1.385 . S
C825 H811 0.931 . S
C825 C824 1.385 . S
C825 C826 1.389 . S
C826 C825 1.389 . S
C826 C827 1.387 . S
C827 H812 0.930 . S
C827 C822 1.390 . S
C827 C826 1.387 . S
H828 C840 0.930 . S
H829 C842 0.930 . S
H830 C843 0.930 . S
H831 C847 0.959 . S
H832 C847 0.959 . S
H833 C847 0.961 . S
H834 C848 0.960 . S
H835 C848 0.961 . S
H836 C848 0.959 . S
H837 C851 0.929 . S
H838 C852 0.931 . S
H839 C854 0.930 . S
C840 H828 0.930 . S
C840 C841 1.399 . S
C840 C845 1.399 . S
C841 C840 1.399 . S
C841 C842 1.376 . S
C842 H829 0.930 . S
C842 C841 1.376 . S
C842 C843 1.388 . S
C843 H830 0.930 . S
C843 C842 1.388 . S
C843 C844 1.390 . S
C844 C843 1.390 . S
C844 C845 1.394 . S
C844 C850 1.465 . S
C845 C840 1.399 . S
C845 C844 1.394 . S
C845 C846 1.516 . S
C846 C845 1.516 . S
C846 C847 1.502 . S
C846 C848 1.561 . S
C846 C849 1.526 . S
C847 H831 0.959 . S
C847 H832 0.959 . S
C847 H833 0.961 . S
C847 C846 1.502 . S
C848 H834 0.960 . S
C848 H835 0.961 . S
C848 H836 0.959 . S
C848 C846 1.561 . S
C849 C846 1.526 . S
C849 C850 1.396 . S
C849 C854 1.390 . S
C850 C844 1.465 . S
C850 C849 1.396 . S
C850 C851 1.399 . S
C851 H837 0.929 . S
C851 C850 1.399 . S
C851 C852 1.385 . S
C852 H838 0.931 . S
C852 C851 1.385 . S
C852 C853 1.389 . S
C853 C852 1.389 . S
C853 C854 1.387 . S
C854 H839 0.930 . S
C854 C849 1.390 . S
C854 C853 1.387 . S
H855 C867 0.930 . S
H856 C869 0.930 . S
H857 C870 0.930 . S
H858 C874 0.959 . S
H859 C874 0.959 . S
H860 C874 0.961 . S
H861 C875 0.960 . S
H862 C875 0.961 . S
H863 C875 0.959 . S
H864 C878 0.929 . S
H865 C879 0.931 . S
H866 C881 0.930 . S
C867 H855 0.930 . S
C867 C868 1.399 . S
C867 C872 1.399 . S
C868 C867 1.399 . S
C868 C869 1.376 . S
C869 H856 0.930 . S
C869 C868 1.376 . S
C869 C870 1.388 . S
C870 H857 0.930 . S
C870 C869 1.388 . S
C870 C871 1.390 . S
C871 C870 1.390 . S
C871 C872 1.394 . S
C871 C877 1.465 . S
C872 C867 1.399 . S
C872 C871 1.394 . S
C872 C873 1.516 . S
C873 C872 1.516 . S
C873 C874 1.502 . S
C873 C875 1.561 . S
C873 C876 1.526 . S
C874 H858 0.959 . S
C874 H859 0.959 . S
C874 H860 0.961 . S
C874 C873 1.502 . S
C875 H861 0.960 . S
C875 H862 0.961 . S
C875 H863 0.959 . S
C875 C873 1.561 . S
C876 C873 1.526 . S
C876 C877 1.396 . S
C876 C881 1.390 . S
C877 C871 1.465 . S
C877 C876 1.396 . S
C877 C878 1.399 . S
C878 H864 0.929 . S
C878 C877 1.399 . S
C878 C879 1.385 . S
C879 H865 0.931 . S
C879 C878 1.385 . S
C879 C880 1.389 . S
C880 C879 1.389 . S
C880 C881 1.387 . S
C881 H866 0.930 . S
C881 C876 1.390 . S
C881 C880 1.387 . S
H882 C894 0.930 . S
H883 C896 0.930 . S
H884 C897 0.930 . S
H885 C901 0.959 1_554 S
H886 C901 0.959 . S
H887 C901 0.961 . S
H888 C902 0.960 . S
H889 C902 0.961 . S
H890 C902 0.959 . S
H891 C905 0.929 . S
H892 C906 0.931 . S
H893 C908 0.930 . S
C894 H882 0.930 . S
C894 C895 1.399 . S
C894 C899 1.399 . S
C895 C894 1.399 . S
C895 C896 1.376 . S
C896 H883 0.930 . S
C896 C895 1.376 . S
C896 C897 1.388 . S
C897 H884 0.930 . S
C897 C896 1.388 . S
C897 C898 1.390 . S
C898 C897 1.390 . S
C898 C899 1.394 . S
C898 C904 1.465 . S
C899 C894 1.399 . S
C899 C898 1.394 . S
C899 C900 1.516 . S
C900 C899 1.516 . S
C900 C901 1.502 1_554 S
C900 C902 1.561 . S
C900 C903 1.526 . S
C901 H885 0.959 1_556 S
C901 H886 0.959 . S
C901 H887 0.961 . S
C901 C900 1.502 1_556 S
C902 H888 0.960 . S
C902 H889 0.961 . S
C902 H890 0.959 . S
C902 C900 1.561 . S
C903 C900 1.526 . S
C903 C904 1.396 . S
C903 C908 1.390 . S
C904 C898 1.465 . S
C904 C903 1.396 . S
C904 C905 1.399 . S
C905 H891 0.929 . S
C905 C904 1.399 . S
C905 C906 1.385 . S
C906 H892 0.931 . S
C906 C905 1.385 . S
C906 C907 1.389 . S
C907 C906 1.389 . S
C907 C908 1.387 . S
C908 H893 0.930 . S
C908 C903 1.390 . S
C908 C907 1.387 . S
H909 C921 0.930 . S
H910 C923 0.930 . S
H911 C924 0.930 . S
H912 C928 0.959 . S
H913 C928 0.959 . S
H914 C928 0.961 . S
H915 C929 0.960 . S
H916 C929 0.961 . S
H917 C929 0.959 . S
H918 C932 0.929 . S
H919 C933 0.931 . S
H920 C935 0.930 . S
C921 H909 0.930 . S
C921 C922 1.399 . S
C921 C926 1.399 . S
C922 C921 1.399 . S
C922 C923 1.376 . S
C923 H910 0.930 . S
C923 C922 1.376 . S
C923 C924 1.388 . S
C924 H911 0.930 . S
C924 C923 1.388 . S
C924 C925 1.390 . S
C925 C924 1.390 . S
C925 C926 1.394 . S
C925 C931 1.465 . S
C926 C921 1.399 . S
C926 C925 1.394 . S
C926 C927 1.516 . S
C927 C926 1.516 . S
C927 C928 1.502 . S
C927 C929 1.561 . S
C927 C930 1.526 . S
C928 H912 0.959 . S
C928 H913 0.959 . S
C928 H914 0.961 . S
C928 C927 1.502 . S
C929 H915 0.960 . S
C929 H916 0.961 . S
C929 H917 0.959 . S
C929 C927 1.561 . S
C930 C927 1.526 . S
C930 C931 1.396 . S
C930 C935 1.390 . S
C931 C925 1.465 . S
C931 C930 1.396 . S
C931 C932 1.399 . S
C932 H918 0.929 . S
C932 C931 1.399 . S
C932 C933 1.385 . S
C933 H919 0.931 . S
C933 C932 1.385 . S
C933 C934 1.389 . S
C934 C933 1.389 . S
C934 C935 1.387 . S
C935 H920 0.930 . S
C935 C930 1.390 . S
C935 C934 1.387 . S
H936 C948 0.930 . S
H937 C950 0.930 . S
H938 C951 0.930 . S
H939 C955 0.959 . S
H940 C955 0.959 . S
H941 C955 0.961 . S
H942 C956 0.960 . S
H943 C956 0.961 . S
H944 C956 0.959 . S
H945 C959 0.929 . S
H946 C960 0.931 . S
H947 C962 0.930 . S
C948 H936 0.930 . S
C948 C949 1.399 . S
C948 C953 1.399 . S
C949 C948 1.399 . S
C949 C950 1.376 . S
C950 H937 0.930 . S
C950 C949 1.376 . S
C950 C951 1.388 . S
C951 H938 0.930 . S
C951 C950 1.388 . S
C951 C952 1.390 . S
C952 C951 1.390 . S
C952 C953 1.394 . S
C952 C958 1.465 . S
C953 C948 1.399 . S
C953 C952 1.394 . S
C953 C954 1.516 . S
C954 C953 1.516 . S
C954 C955 1.502 . S
C954 C956 1.561 . S
C954 C957 1.526 . S
C955 H939 0.959 . S
C955 H940 0.959 . S
C955 H941 0.961 . S
C955 C954 1.502 . S
C956 H942 0.960 . S
C956 H943 0.961 . S
C956 H944 0.959 . S
C956 C954 1.561 . S
C957 C954 1.526 . S
C957 C958 1.396 . S
C957 C962 1.390 . S
C958 C952 1.465 . S
C958 C957 1.396 . S
C958 C959 1.399 . S
C959 H945 0.929 . S
C959 C958 1.399 . S
C959 C960 1.385 . S
C960 H946 0.931 . S
C960 C959 1.385 . S
C960 C961 1.389 . S
C961 C960 1.389 . S
C961 C962 1.387 . S
C962 H947 0.930 . S
C962 C957 1.390 . S
C962 C961 1.387 . S
H963 C975 0.930 . S
H964 C977 0.930 . S
H965 C978 0.930 . S
H966 C982 0.959 . S
H967 C982 0.959 . S
H968 C982 0.961 . S
H969 C983 0.960 . S
H970 C983 0.961 . S
H971 C983 0.959 . S
H972 C986 0.929 . S
H973 C987 0.931 . S
H974 C989 0.930 . S
C975 H963 0.930 . S
C975 C976 1.399 . S
C975 C980 1.399 . S
C976 C975 1.399 . S
C976 C977 1.376 . S
C977 H964 0.930 . S
C977 C976 1.376 . S
C977 C978 1.388 . S
C978 H965 0.930 . S
C978 C977 1.388 . S
C978 C979 1.390 . S
C979 C978 1.390 . S
C979 C980 1.394 . S
C979 C985 1.465 . S
C980 C975 1.399 . S
C980 C979 1.394 . S
C980 C981 1.516 . S
C981 C980 1.516 . S
C981 C982 1.502 . S
C981 C983 1.561 . S
C981 C984 1.526 . S
C982 H966 0.959 . S
C982 H967 0.959 . S
C982 H968 0.961 . S
C982 C981 1.502 . S
C983 H969 0.960 . S
C983 H970 0.961 . S
C983 H971 0.959 . S
C983 C981 1.561 . S
C984 C981 1.526 . S
C984 C985 1.396 . S
C984 C989 1.390 . S
C985 C979 1.465 . S
C985 C984 1.396 . S
C985 C986 1.399 . S
C986 H972 0.929 . S
C986 C985 1.399 . S
C986 C987 1.385 . S
C987 H973 0.931 . S
C987 C986 1.385 . S
C987 C988 1.389 . S
C988 C987 1.389 . S
C988 C989 1.387 . S
C989 H974 0.930 . S
C989 C984 1.390 . S
C989 C988 1.387 . S
H990 C1002 0.930 . S
H991 C1004 0.930 . S
H992 C1005 0.930 . S
H993 C1009 0.959 . S
H994 C1009 0.959 . S
H995 C1009 0.961 . S
H996 C1010 0.960 . S
H997 C1010 0.961 . S
H998 C1010 0.959 . S
H999 C1013 0.929 . S
H1000 C1014 0.931 . S
H1001 C1016 0.930 . S
C1002 H990 0.930 . S
C1002 C1003 1.399 . S
C1002 C1007 1.399 . S
C1003 C1002 1.399 . S
C1003 C1004 1.376 . S
C1004 H991 0.930 . S
C1004 C1003 1.376 . S
C1004 C1005 1.388 . S
C1005 H992 0.930 . S
C1005 C1004 1.388 . S
C1005 C1006 1.390 . S
C1006 C1005 1.390 . S
C1006 C1007 1.394 . S
C1006 C1012 1.465 . S
C1007 C1002 1.399 . S
C1007 C1006 1.394 . S
C1007 C1008 1.516 . S
C1008 C1007 1.516 . S
C1008 C1009 1.502 . S
C1008 C1010 1.561 . S
C1008 C1011 1.526 . S
C1009 H993 0.959 . S
C1009 H994 0.959 . S
C1009 H995 0.961 . S
C1009 C1008 1.502 . S
C1010 H996 0.960 . S
C1010 H997 0.961 . S
C1010 H998 0.959 . S
C1010 C1008 1.561 . S
C1011 C1008 1.526 . S
C1011 C1012 1.396 . S
C1011 C1016 1.390 . S
C1012 C1006 1.465 . S
C1012 C1011 1.396 . S
C1012 C1013 1.399 . S
C1013 H999 0.929 . S
C1013 C1012 1.399 . S
C1013 C1014 1.385 . S
C1014 H1000 0.931 . S
C1014 C1013 1.385 . S
C1014 C1015 1.389 . S
C1015 C1014 1.389 . S
C1015 C1016 1.387 . S
C1016 H1001 0.930 . S
C1016 C1011 1.390 . S
C1016 C1015 1.387 . S
H1017 C1029 0.930 . S
H1018 C1031 0.930 . S
H1019 C1032 0.930 . S
H1020 C1036 0.959 . S
H1021 C1036 0.959 . S
H1022 C1036 0.961 . S
H1023 C1037 0.960 . S
H1024 C1037 0.961 . S
H1025 C1037 0.959 . S
H1026 C1040 0.929 . S
H1027 C1041 0.931 . S
H1028 C1043 0.930 . S
C1029 H1017 0.930 . S
C1029 C1030 1.399 . S
C1029 C1034 1.399 . S
C1030 C1029 1.399 . S
C1030 C1031 1.376 . S
C1031 H1018 0.930 . S
C1031 C1030 1.376 . S
C1031 C1032 1.388 . S
C1032 H1019 0.930 . S
C1032 C1031 1.388 . S
C1032 C1033 1.390 . S
C1033 C1032 1.390 . S
C1033 C1034 1.394 . S
C1033 C1039 1.465 . S
C1034 C1029 1.399 . S
C1034 C1033 1.394 . S
C1034 C1035 1.516 . S
C1035 C1034 1.516 . S
C1035 C1036 1.502 . S
C1035 C1037 1.561 . S
C1035 C1038 1.526 . S
C1036 H1020 0.959 . S
C1036 H1021 0.959 . S
C1036 H1022 0.961 . S
C1036 C1035 1.502 . S
C1037 H1023 0.960 . S
C1037 H1024 0.961 . S
C1037 H1025 0.959 . S
C1037 C1035 1.561 . S
C1038 C1035 1.526 . S
C1038 C1039 1.396 . S
C1038 C1043 1.390 . S
C1039 C1033 1.465 . S
C1039 C1038 1.396 . S
C1039 C1040 1.399 . S
C1040 H1026 0.929 . S
C1040 C1039 1.399 . S
C1040 C1041 1.385 . S
C1041 H1027 0.931 . S
C1041 C1040 1.385 . S
C1041 C1042 1.389 . S
C1042 C1041 1.389 . S
C1042 C1043 1.387 . S
C1043 H1028 0.930 . S
C1043 C1038 1.390 . S
C1043 C1042 1.387 . S
H1044 C1056 0.930 . S
H1045 C1058 0.930 . S
H1046 C1059 0.930 . S
H1047 C1063 0.959 . S
H1048 C1063 0.959 . S
H1049 C1063 0.961 . S
H1050 C1064 0.972 . S
H1051 C1064 0.971 . S
H1052 C1064 0.953 1_556 S
H1053 C1067 0.929 . S
H1054 C1068 0.931 . S
H1055 C1070 0.930 . S
C1056 H1044 0.930 . S
C1056 C1057 1.399 . S
C1056 C1061 1.399 . S
C1057 C1056 1.399 . S
C1057 C1058 1.376 . S
C1058 H1045 0.930 . S
C1058 C1057 1.376 . S
C1058 C1059 1.388 . S
C1059 H1046 0.930 . S
C1059 C1058 1.388 . S
C1059 C1060 1.390 . S
C1060 C1059 1.390 . S
C1060 C1061 1.394 . S
C1060 C1066 1.465 . S
C1061 C1056 1.399 . S
C1061 C1060 1.394 . S
C1061 C1062 1.516 . S
C1062 C1061 1.516 . S
C1062 C1063 1.502 . S
C1062 C1064 1.546 1_556 S
C1062 C1065 1.526 . S
C1063 H1047 0.959 . S
C1063 H1048 0.959 . S
C1063 H1049 0.961 . S
C1063 C1062 1.502 . S
C1064 H1050 0.972 . S
C1064 H1051 0.971 . S
C1064 H1052 0.953 1_554 S
C1064 C1062 1.546 1_554 S
C1065 C1062 1.526 . S
C1065 C1066 1.396 . S
C1065 C1070 1.390 . S
C1066 C1060 1.465 . S
C1066 C1065 1.396 . S
C1066 C1067 1.399 . S
C1067 H1053 0.929 . S
C1067 C1066 1.399 . S
C1067 C1068 1.385 . S
C1068 H1054 0.931 . S
C1068 C1067 1.385 . S
C1068 C1069 1.389 . S
C1069 C1068 1.389 . S
C1069 C1070 1.387 . S
C1070 H1055 0.930 . S
C1070 C1065 1.390 . S
C1070 C1069 1.387 . S
H1071 C1083 0.930 . S
H1072 C1085 0.930 . S
H1073 C1086 0.930 . S
H1074 C1090 0.959 . S
H1075 C1090 0.959 1_554 S
H1076 C1090 0.961 1_554 S
H1077 C1091 0.960 1_554 S
H1078 C1091 0.961 1_554 S
H1079 C1091 0.959 . S
H1080 C1094 0.929 . S
H1081 C1095 0.931 . S
H1082 C1097 0.930 . S
C1083 H1071 0.930 . S
C1083 C1084 1.399 . S
C1083 C1088 1.399 . S
C1084 C1083 1.399 . S
C1084 C1085 1.376 . S
C1085 H1072 0.930 . S
C1085 C1084 1.376 . S
C1085 C1086 1.388 . S
C1086 H1073 0.930 . S
C1086 C1085 1.388 . S
C1086 C1087 1.390 . S
C1087 C1086 1.390 . S
C1087 C1088 1.394 . S
C1087 C1093 1.465 . S
C1088 C1083 1.399 . S
C1088 C1087 1.394 . S
C1088 C1089 1.516 . S
C1089 C1088 1.516 . S
C1089 C1090 1.502 . S
C1089 C1091 1.561 . S
C1089 C1092 1.526 . S
C1090 H1074 0.959 . S
C1090 H1075 0.959 1_556 S
C1090 H1076 0.961 1_556 S
C1090 C1089 1.502 . S
C1091 H1077 0.960 1_556 S
C1091 H1078 0.961 1_556 S
C1091 H1079 0.959 . S
C1091 C1089 1.561 . S
C1092 C1089 1.526 . S
C1092 C1093 1.396 . S
C1092 C1097 1.390 . S
C1093 C1087 1.465 . S
C1093 C1092 1.396 . S
C1093 C1094 1.399 . S
C1094 H1080 0.929 . S
C1094 C1093 1.399 . S
C1094 C1095 1.385 . S
C1095 H1081 0.931 . S
C1095 C1094 1.385 . S
C1095 C1096 1.389 . S
C1096 C1095 1.389 . S
C1096 C1097 1.387 . S
C1097 H1082 0.930 . S
C1097 C1092 1.390 . S
C1097 C1096 1.387 . S
H1098 C1110 0.930 . S
H1099 C1112 0.930 . S
H1100 C1113 0.930 . S
H1101 C1117 0.959 . S
H1102 C1117 0.959 1_554 S
H1103 C1117 0.961 1_554 S
H1104 C1118 0.960 1_554 S
H1105 C1118 0.961 1_554 S
H1106 C1118 0.959 . S
H1107 C1121 0.929 . S
H1108 C1122 0.931 . S
H1109 C1124 0.930 . S
C1110 H1098 0.930 . S
C1110 C1111 1.399 . S
C1110 C1115 1.399 . S
C1111 C1110 1.399 . S
C1111 C1112 1.376 . S
C1112 H1099 0.930 . S
C1112 C1111 1.376 . S
C1112 C1113 1.388 . S
C1113 H1100 0.930 . S
C1113 C1112 1.388 . S
C1113 C1114 1.390 . S
C1114 C1113 1.390 . S
C1114 C1115 1.394 . S
C1114 C1120 1.465 . S
C1115 C1110 1.399 . S
C1115 C1114 1.394 . S
C1115 C1116 1.516 . S
C1116 C1115 1.516 . S
C1116 C1117 1.502 . S
C1116 C1118 1.561 . S
C1116 C1119 1.526 . S
C1117 H1101 0.959 . S
C1117 H1102 0.959 1_556 S
C1117 H1103 0.961 1_556 S
C1117 C1116 1.502 . S
C1118 H1104 0.960 1_556 S
C1118 H1105 0.961 1_556 S
C1118 H1106 0.959 . S
C1118 C1116 1.561 . S
C1119 C1116 1.526 . S
C1119 C1120 1.396 . S
C1119 C1124 1.390 . S
C1120 C1114 1.465 . S
C1120 C1119 1.396 . S
C1120 C1121 1.399 . S
C1121 H1107 0.929 . S
C1121 C1120 1.399 . S
C1121 C1122 1.385 . S
C1122 H1108 0.931 . S
C1122 C1121 1.385 . S
C1122 C1123 1.389 . S
C1123 C1122 1.389 . S
C1123 C1124 1.387 . S
C1124 H1109 0.930 . S
C1124 C1119 1.390 . S
C1124 C1123 1.387 . S
H1125 C1137 0.930 . S
H1126 C1139 0.930 . S
H1127 C1140 0.930 . S
H1128 C1144 0.959 . S
H1129 C1144 0.959 . S
H1130 C1144 0.961 . S
H1131 C1145 0.960 . S
H1132 C1145 0.961 . S
H1133 C1145 0.959 . S
H1134 C1148 0.929 . S
H1135 C1149 0.931 . S
H1136 C1151 0.930 . S
C1137 H1125 0.930 . S
C1137 C1138 1.399 . S
C1137 C1142 1.399 . S
C1138 C1137 1.399 . S
C1138 C1139 1.376 . S
C1139 H1126 0.930 . S
C1139 C1138 1.376 . S
C1139 C1140 1.388 . S
C1140 H1127 0.930 . S
C1140 C1139 1.388 . S
C1140 C1141 1.390 . S
C1141 C1140 1.390 . S
C1141 C1142 1.394 . S
C1141 C1147 1.465 . S
C1142 C1137 1.399 . S
C1142 C1141 1.394 . S
C1142 C1143 1.516 . S
C1143 C1142 1.516 . S
C1143 C1144 1.502 . S
C1143 C1145 1.561 . S
C1143 C1146 1.526 . S
C1144 H1128 0.959 . S
C1144 H1129 0.959 . S
C1144 H1130 0.961 . S
C1144 C1143 1.502 . S
C1145 H1131 0.960 . S
C1145 H1132 0.961 . S
C1145 H1133 0.959 . S
C1145 C1143 1.561 . S
C1146 C1143 1.526 . S
C1146 C1147 1.396 . S
C1146 C1151 1.390 . S
C1147 C1141 1.465 . S
C1147 C1146 1.396 . S
C1147 C1148 1.399 . S
C1148 H1134 0.929 . S
C1148 C1147 1.399 . S
C1148 C1149 1.385 . S
C1149 H1135 0.931 . S
C1149 C1148 1.385 . S
C1149 C1150 1.389 . S
C1150 C1149 1.389 . S
C1150 C1151 1.387 . S
C1151 H1136 0.930 . S
C1151 C1146 1.390 . S
C1151 C1150 1.387 . S
H1152 C1164 0.930 . S
H1153 C1166 0.930 . S
H1154 C1167 0.930 . S
H1155 C1171 0.959 . S
H1156 C1171 0.959 . S
H1157 C1171 0.961 . S
H1158 C1172 0.960 . S
H1159 C1172 0.961 . S
H1160 C1172 0.959 . S
H1161 C1175 0.929 . S
H1162 C1176 0.931 . S
H1163 C1178 0.930 . S
C1164 H1152 0.930 . S
C1164 C1165 1.399 . S
C1164 C1169 1.399 . S
C1165 C1164 1.399 . S
C1165 C1166 1.376 . S
C1166 H1153 0.930 . S
C1166 C1165 1.376 . S
C1166 C1167 1.388 . S
C1167 H1154 0.930 . S
C1167 C1166 1.388 . S
C1167 C1168 1.390 . S
C1168 C1167 1.390 . S
C1168 C1169 1.394 . S
C1168 C1174 1.465 . S
C1169 C1164 1.399 . S
C1169 C1168 1.394 . S
C1169 C1170 1.516 . S
C1170 C1169 1.516 . S
C1170 C1171 1.502 . S
C1170 C1172 1.561 . S
C1170 C1173 1.526 . S
C1171 H1155 0.959 . S
C1171 H1156 0.959 . S
C1171 H1157 0.961 . S
C1171 C1170 1.502 . S
C1172 H1158 0.960 . S
C1172 H1159 0.961 . S
C1172 H1160 0.959 . S
C1172 C1170 1.561 . S
C1173 C1170 1.526 . S
C1173 C1174 1.396 . S
C1173 C1178 1.390 . S
C1174 C1168 1.465 . S
C1174 C1173 1.396 . S
C1174 C1175 1.399 . S
C1175 H1161 0.929 . S
C1175 C1174 1.399 . S
C1175 C1176 1.385 . S
C1176 H1162 0.931 . S
C1176 C1175 1.385 . S
C1176 C1177 1.389 . S
C1177 C1176 1.389 . S
C1177 C1178 1.387 . S
C1178 H1163 0.930 . S
C1178 C1173 1.390 . S
C1178 C1177 1.387 . S
H1179 C1191 0.930 . S
H1180 C1193 0.930 . S
H1181 C1194 0.930 . S
H1182 C1198 0.959 . S
H1183 C1198 0.959 . S
H1184 C1198 0.961 . S
H1185 C1199 0.960 . S
H1186 C1199 0.961 . S
H1187 C1199 0.959 . S
H1188 C1202 0.929 . S
H1189 C1203 0.931 . S
H1190 C1205 0.930 . S
C1191 H1179 0.930 . S
C1191 C1192 1.399 . S
C1191 C1196 1.399 . S
C1192 C1191 1.399 . S
C1192 C1193 1.376 . S
C1193 H1180 0.930 . S
C1193 C1192 1.376 . S
C1193 C1194 1.388 . S
C1194 H1181 0.930 . S
C1194 C1193 1.388 . S
C1194 C1195 1.390 . S
C1195 C1194 1.390 . S
C1195 C1196 1.394 . S
C1195 C1201 1.465 . S
C1196 C1191 1.399 . S
C1196 C1195 1.394 . S
C1196 C1197 1.516 . S
C1197 C1196 1.516 . S
C1197 C1198 1.502 . S
C1197 C1199 1.561 . S
C1197 C1200 1.526 . S
C1198 H1182 0.959 . S
C1198 H1183 0.959 . S
C1198 H1184 0.961 . S
C1198 C1197 1.502 . S
C1199 H1185 0.960 . S
C1199 H1186 0.961 . S
C1199 H1187 0.959 . S
C1199 C1197 1.561 . S
C1200 C1197 1.526 . S
C1200 C1201 1.396 . S
C1200 C1205 1.390 . S
C1201 C1195 1.465 . S
C1201 C1200 1.396 . S
C1201 C1202 1.399 . S
C1202 H1188 0.929 . S
C1202 C1201 1.399 . S
C1202 C1203 1.385 . S
C1203 H1189 0.931 . S
C1203 C1202 1.385 . S
C1203 C1204 1.389 . S
C1204 C1203 1.389 . S
C1204 C1205 1.387 . S
C1205 H1190 0.930 . S
C1205 C1200 1.390 . S
C1205 C1204 1.387 . S
C409 C172 0.889 . S
C421 C7 0.928 . S
C436 C40 0.950 . S
C448 C106 0.931 . S
C463 C73 0.958 . S
C475 C139 0.906 . S
C490 C205 0.927 . S
C502 C370 0.904 . S
C517 C304 0.944 . S
C529 C238 0.918 . S
C544 C337 0.929 . S
C556 C271 0.933 . S
C571 C21 2.131 . S
C583 C219 2.148 . S
C598 C54 2.098 . S
C610 C252 2.192 . S
C625 C285 2.105 . S
C637 C87 2.193 . S
C652 C318 2.132 . S
C664 C120 2.175 . S
C679 C153 2.099 . S
C691 C351 2.193 . S
C706 C186 2.170 . S
C718 C384 2.138 . S
C733 N145 1.434 . S
C745 N13 1.488 . S
C760 N178 1.400 . S
C772 N46 1.384 . S
C787 N112 1.401 . S
C799 N79 1.454 . S
C814 N211 1.466 . S
C826 N343 1.518 . S
C841 N244 1.382 . S
C853 N376 1.441 . S
C868 N310 1.446 . S
C880 N277 1.517 . S
C895 C18 0.802 . S
C907 N68 0.768 . S
C922 C51 0.793 . S
C934 N2 0.777 . S
C949 N35 0.845 . S
C961 C84 0.845 . S
C976 C117 0.810 . S
C988 N134 0.781 . S
C1003 N167 0.769 . S
C1015 C150 0.804 . S
C1030 N101 0.886 . S
C1042 C183 0.859 . S
C1057 N266 0.861 . S
C1069 C216 0.826 . S
C1084 C249 0.772 . S
C1096 N200 0.760 . S
C1111 N233 0.826 . S
C1123 C282 0.804 . S
C1138 N332 0.874 . S
C1150 C315 0.866 . S
C1165 N365 0.760 . S
C1177 C348 0.815 . S
C1192 C381 0.868 . S
C1204 N299 0.883 . S
