# Generated by pormake.
# Topology wgb, (5)-cn, num edge types: 1
# Building blocks:
#     Node 0, Type 0, BuildingBlock: BEQFEK_clean_sbu_0, # of connection points: 5
#     Node 1, Type 0, BuildingBlock: BEQFEK_clean_sbu_0, # of connection points: 5
#     Node 2, Type 0, BuildingBlock: BEQFEK_clean_sbu_0, # of connection points: 5
#     Node 3, Type 0, BuildingBlock: BEQFEK_clean_sbu_0, # of connection points: 5
#     Node 4, Type 0, BuildingBlock: BEQFEK_clean_sbu_0, # of connection points: 5
#     Node 5, Type 0, BuildingBlock: BEQFEK_clean_sbu_0, # of connection points: 5
#     Node 6, Type 0, BuildingBlock: BEQFEK_clean_sbu_0, # of connection points: 5
#     Node 7, Type 0, BuildingBlock: BEQFEK_clean_sbu_0, # of connection points: 5
#     Node 8, Type 0, BuildingBlock: BEQFEK_clean_sbu_0, # of connection points: 5
#     Node 9, Type 0, BuildingBlock: BEQFEK_clean_sbu_0, # of connection points: 5
#     Node 10, Type 0, BuildingBlock: BEQFEK_clean_sbu_0, # of connection points: 5
#     Node 11, Type 0, BuildingBlock: BEQFEK_clean_sbu_0, # of connection points: 5
#     Node 12, Type 0, BuildingBlock: BEQFEK_clean_sbu_0, # of connection points: 5
#     Node 13, Type 0, BuildingBlock: BEQFEK_clean_sbu_0, # of connection points: 5
#     Node 14, Type 0, BuildingBlock: BEQFEK_clean_sbu_0, # of connection points: 5
#     Node 15, Type 0, BuildingBlock: BEQFEK_clean_sbu_0, # of connection points: 5
#     Edge 16, Type (0, 0), BuildingBlock: AJUNOK_clean_linker_0, # of connection points: 2
#     Edge 17, Type (0, 0), BuildingBlock: AJUNOK_clean_linker_0, # of connection points: 2
#     Edge 18, Type (0, 0), BuildingBlock: AJUNOK_clean_linker_0, # of connection points: 2
#     Edge 19, Type (0, 0), BuildingBlock: AJUNOK_clean_linker_0, # of connection points: 2
#     Edge 20, Type (0, 0), BuildingBlock: AJUNOK_clean_linker_0, # of connection points: 2
#     Edge 21, Type (0, 0), BuildingBlock: AJUNOK_clean_linker_0, # of connection points: 2
#     Edge 22, Type (0, 0), BuildingBlock: AJUNOK_clean_linker_0, # of connection points: 2
#     Edge 23, Type (0, 0), BuildingBlock: AJUNOK_clean_linker_0, # of connection points: 2
#     Edge 24, Type (0, 0), BuildingBlock: AJUNOK_clean_linker_0, # of connection points: 2
#     Edge 25, Type (0, 0), BuildingBlock: AJUNOK_clean_linker_0, # of connection points: 2
#     Edge 26, Type (0, 0), BuildingBlock: AJUNOK_clean_linker_0, # of connection points: 2
#     Edge 27, Type (0, 0), BuildingBlock: AJUNOK_clean_linker_0, # of connection points: 2
#     Edge 28, Type (0, 0), BuildingBlock: AJUNOK_clean_linker_0, # of connection points: 2
#     Edge 29, Type (0, 0), BuildingBlock: AJUNOK_clean_linker_0, # of connection points: 2
#     Edge 30, Type (0, 0), BuildingBlock: AJUNOK_clean_linker_0, # of connection points: 2
#     Edge 31, Type (0, 0), BuildingBlock: AJUNOK_clean_linker_0, # of connection points: 2
#     Edge 32, Type (0, 0), BuildingBlock: AJUNOK_clean_linker_0, # of connection points: 2
#     Edge 33, Type (0, 0), BuildingBlock: AJUNOK_clean_linker_0, # of connection points: 2
#     Edge 34, Type (0, 0), BuildingBlock: AJUNOK_clean_linker_0, # of connection points: 2
#     Edge 35, Type (0, 0), BuildingBlock: AJUNOK_clean_linker_0, # of connection points: 2
#     Edge 36, Type (0, 0), BuildingBlock: AJUNOK_clean_linker_0, # of connection points: 2
#     Edge 37, Type (0, 0), BuildingBlock: AJUNOK_clean_linker_0, # of connection points: 2
#     Edge 38, Type (0, 0), BuildingBlock: AJUNOK_clean_linker_0, # of connection points: 2
#     Edge 39, Type (0, 0), BuildingBlock: AJUNOK_clean_linker_0, # of connection points: 2
#     Edge 40, Type (0, 0), BuildingBlock: AJUNOK_clean_linker_0, # of connection points: 2
#     Edge 41, Type (0, 0), BuildingBlock: AJUNOK_clean_linker_0, # of connection points: 2
#     Edge 42, Type (0, 0), BuildingBlock: AJUNOK_clean_linker_0, # of connection points: 2
#     Edge 43, Type (0, 0), BuildingBlock: AJUNOK_clean_linker_0, # of connection points: 2
#     Edge 44, Type (0, 0), BuildingBlock: AJUNOK_clean_linker_0, # of connection points: 2
#     Edge 45, Type (0, 0), BuildingBlock: AJUNOK_clean_linker_0, # of connection points: 2
#     Edge 46, Type (0, 0), BuildingBlock: AJUNOK_clean_linker_0, # of connection points: 2
#     Edge 47, Type (0, 0), BuildingBlock: AJUNOK_clean_linker_0, # of connection points: 2
#     Edge 48, Type (0, 0), BuildingBlock: AJUNOK_clean_linker_0, # of connection points: 2
#     Edge 49, Type (0, 0), BuildingBlock: AJUNOK_clean_linker_0, # of connection points: 2
#     Edge 50, Type (0, 0), BuildingBlock: AJUNOK_clean_linker_0, # of connection points: 2
#     Edge 51, Type (0, 0), BuildingBlock: AJUNOK_clean_linker_0, # of connection points: 2
#     Edge 52, Type (0, 0), BuildingBlock: AJUNOK_clean_linker_0, # of connection points: 2
#     Edge 53, Type (0, 0), BuildingBlock: AJUNOK_clean_linker_0, # of connection points: 2
#     Edge 54, Type (0, 0), BuildingBlock: AJUNOK_clean_linker_0, # of connection points: 2
#     Edge 55, Type (0, 0), BuildingBlock: AJUNOK_clean_linker_0, # of connection points: 2
# Relax obj value: 0.155
# Max RMSD: 0.142
# Mean RMSD: 0.142
data_MOF--net-wgb--node1-BEQFEK_clean_sbu_0--edge1-AJUNOK_clean_linker_0
_symmetry_space_group_name_H-M    P1
_symmetry_Int_Tables_number       1
_symmetry_cell_setting            triclinic
loop_
_symmetry_equiv_pos_as_xyz
'x, y, z'
_cell_length_a     49.104934
_cell_length_b     49.144539
_cell_length_c     15.162743
_cell_angle_alpha  89.95014
_cell_angle_beta   89.991817
_cell_angle_gamma 90.266748
loop_
_atom_site_label
_atom_site_type_symbol
_atom_site_fract_x
_atom_site_fract_y
_atom_site_fract_z
_atom_type_partial_charge
Co0 Co 0.3436 0.05617 0.13531 0.0
Co1 Co 0.33036 0.11872 0.12831 0.0
C2 C 0.31188 0.0845 0.98227 0.0
O3 O 0.3214 0.06328 0.0213 0.0
O4 O 0.31697 0.10841 0.01123 0.0
C5 C 0.37866 1.00591 0.12304 0.0
O6 O 0.39276 0.01636 0.05752 0.0
C7 C 0.32646 0.1792 0.11196 0.0
C8 C 0.32261 0.18964 0.25331 0.0
C9 C 0.32478 0.20102 0.17015 0.0
N10 N 0.32572 0.15604 0.15924 0.0
N11 N 0.32303 0.1625 0.24339 0.0
C12 C 0.33103 0.18027 0.01452 0.0
H13 H 0.3396 0.16077 0.9906 0.0
H14 H 0.3449 0.19738 -0.00264 0.0
H15 H 0.31125 0.1837 0.98104 0.0
C16 C 0.39621 0.08008 0.20381 0.0
N17 N 0.37161 0.08238 0.16429 0.0
N18 N 0.36673 0.10829 0.15095 0.0
C19 C 0.38865 0.12312 0.17566 0.0
C20 C 0.40821 0.10584 0.21104 0.0
C21 C 0.40556 0.05471 0.249 0.0
H22 H 0.38773 0.04338 0.27477 0.0
H23 H 0.41648 0.04165 0.20124 0.0
H24 H 0.41945 0.05944 0.30469 0.0
O25 O 0.31529 0.05687 0.22455 0.0
O26 O 0.30429 0.10009 0.2063 0.0
H27 H 0.38126 0.16356 0.22143 0.0
H28 H 0.41247 0.15987 0.15986 0.0
C29 C 0.39087 0.15329 0.1643 0.0
H30 H 0.38017 0.15958 0.10337 0.0
H31 H 0.32233 0.1483 0.29454 0.0
O32 O 0.35819 0.01868 0.15297 0.0
C33 C 0.29968 0.07677 0.23923 0.0
Co34 Co 0.05934 0.67327 0.87625 0.0
Co35 Co 0.12046 0.69133 0.84403 0.0
C36 C 0.08733 0.71629 0.99033 0.0
O37 O 0.0663 0.70157 0.97333 0.0
O38 O 0.10956 0.71296 0.94805 0.0
C39 C 1.00081 0.6664 0.87649 0.0
O40 O 1.00065 0.6931 0.88039 0.0
C41 C 0.18036 0.69926 0.8558 0.0
C42 C 0.19054 0.70339 0.71427 0.0
C43 C 0.20195 0.70219 0.79746 0.0
N44 N 0.15716 0.69838 0.80884 0.0
N45 N 0.16342 0.70137 0.7245 0.0
C46 C 0.18186 0.69493 0.95325 0.0
H47 H 0.16233 0.68656 0.97857 0.0
H48 H 0.19885 0.68097 0.96951 0.0
H49 H 0.18599 0.71472 0.98592 0.0
C50 C 0.08554 0.61933 0.84212 0.0
N51 N 0.08745 0.64613 0.86161 0.0
N52 N 0.11302 0.65377 0.85214 0.0
C53 C 0.12809 0.63221 0.82719 0.0
C54 C 0.11121 0.6096 0.81957 0.0
C55 C 0.05925 0.60396 0.83667 0.0
H56 H 0.04736 0.60719 0.89792 0.0
H57 H 0.0627 0.58185 0.8274 0.0
H58 H 0.04722 0.61188 0.7804 0.0
O59 O 0.05597 0.69508 0.76756 0.0
O60 O 0.09945 0.70574 0.74749 0.0
H61 H 0.16566 0.61432 0.77813 0.0
H62 H 0.16967 0.64375 0.84772 0.0
C63 C 0.15694 0.63434 0.79563 0.0
H64 H 0.15767 0.6474 0.73611 0.0
H65 H 0.1492 0.70104 0.67337 0.0
O66 O 0.0234 0.65399 0.88196 0.0
C67 C 0.07476 0.70659 0.72363 0.0
Co68 Co 0.67818 0.96388 0.11929 0.0
Co69 Co 0.70043 0.90317 0.13203 0.0
C70 C 0.71385 0.93788 0.97627 0.0
O71 O 0.7012 0.95866 0.00711 0.0
O72 O 0.71241 0.91473 0.01418 0.0
C73 C 0.66811 0.02268 0.13915 0.0
O74 O 0.69464 0.02517 0.13099 0.0
C75 C 0.70549 0.84382 0.10577 0.0
C76 C 0.7226 0.83108 0.23411 0.0
C77 C 0.7127 0.82102 0.15505 0.0
N78 N 0.71004 0.86612 0.15499 0.0
N79 N 0.72072 0.85837 0.23096 0.0
C80 C 0.69555 0.84486 0.01252 0.0
H81 H 0.70555 0.86197 0.97726 0.0
H82 H 0.67332 0.8488 0.01213 0.0
H83 H 0.6998 0.82556 0.97724 0.0
C84 C 0.62703 0.93351 0.17189 0.0
N85 N 0.65346 0.93397 0.14636 0.0
N86 N 0.66321 0.90918 0.15484 0.0
C87 C 0.64368 0.89261 0.18798 0.0
C88 C 0.62006 0.90746 0.1997 0.0
C89 C 0.60864 0.95755 0.1732 0.0
H90 H 0.6145 0.97239 0.12157 0.0
H91 H 0.58717 0.95113 0.16278 0.0
H92 H 0.61001 0.96704 0.23921 0.0
O93 O 0.70686 0.96733 0.2107 0.0
O94 O 0.72297 0.92513 0.20884 0.0
H95 H 0.66707 0.86361 0.26076 0.0
H96 H 0.63126 0.85618 0.25891 0.0
C97 C 0.64853 0.86414 0.21931 0.0
H98 H 0.65151 0.85067 0.16164 0.0
H99 H 0.72591 0.87169 0.28189 0.0
O100 O 0.65727 0.99926 0.12914 0.0
C101 C 0.72431 0.94971 0.23399 0.0
Co102 Co 0.96278 0.35127 0.87703 0.0
Co103 Co 0.90176 0.33278 0.84787 0.0
C104 C 0.9368 0.30736 0.9904 0.0
O105 O 0.95741 0.32272 0.97413 0.0
O106 O 0.91444 0.31046 0.94867 0.0
C107 C 0.02125 0.35906 0.87096 0.0
O108 O 0.02202 0.33237 0.87455 0.0
C109 C 0.84219 0.32584 0.87032 0.0
C110 C 0.8298 0.318 0.73235 0.0
C111 C 0.81958 0.32162 0.81652 0.0
N112 N 0.86458 0.3255 0.81938 0.0
N113 N 0.85702 0.32041 0.73731 0.0
C114 C 0.84302 0.32896 0.96845 0.0
H115 H 0.86081 0.31791 -0.00449 0.0
H116 H 0.84569 0.35078 0.98518 0.0
H117 H 0.82404 0.32114 -0.00062 0.0
C118 C 0.93601 0.40513 0.84839 0.0
N119 N 0.93434 0.37823 0.86677 0.0
N120 N 0.90885 0.37039 0.85697 0.0
C121 C 0.89364 0.39187 0.83188 0.0
C122 C 0.91032 0.41468 0.82543 0.0
C123 C 0.96213 0.4208 0.84381 0.0
H124 H 0.9744 0.41681 0.9038 0.0
H125 H 0.95841 0.44299 0.83808 0.0
H126 H 0.97388 0.41389 0.78557 0.0
O127 O 0.96502 0.32985 0.7669 0.0
O128 O 0.92143 0.31953 0.74698 0.0
H129 H 0.85692 0.40912 0.77428 0.0
H130 H 0.85169 0.38156 0.85086 0.0
C131 C 0.86509 0.38944 0.79783 0.0
H132 H 0.86465 0.37492 0.74201 0.0
H133 H 0.87041 0.31922 0.68405 0.0
O134 O 0.99847 0.37098 0.87888 0.0
C135 C 0.94604 0.31899 0.72213 0.0
Co136 Co 0.34518 0.46341 0.11346 0.0
Co137 Co 0.33675 0.39983 0.12189 0.0
C138 C 0.30929 0.43509 0.25322 0.0
O139 O 0.31986 0.45667 0.21947 0.0
O140 O 0.31609 0.41146 0.22615 0.0
C141 C 0.37637 0.5159 0.12683 0.0
O142 O 0.39091 0.50612 0.19221 0.0
C143 C 0.33258 0.33956 0.1496 0.0
C144 C 0.3365 0.32625 0.01077 0.0
C145 C 0.33308 0.31661 0.09571 0.0
N146 N 0.33599 0.36167 0.0983 0.0
N147 N 0.33819 0.35348 0.01558 0.0
C148 C 0.32707 0.34083 0.24652 0.0
H149 H 0.31389 0.35849 0.26151 0.0
H150 H 0.3466 0.34383 0.28205 0.0
H151 H 0.31713 0.32186 0.27032 0.0
C152 C 0.4002 0.44318 0.05865 0.0
N153 N 0.3758 0.43949 0.09857 0.0
N154 N 0.3727 0.41344 0.11555 0.0
C155 C 0.39564 0.4001 0.09358 0.0
C156 C 0.41387 0.41832 0.05506 0.0
C157 C 0.40738 0.46829 0.00745 0.0
H158 H 0.38864 0.47806 0.98222 0.0
H159 H 0.41818 0.48284 0.0511 0.0
H160 H 0.42081 0.46349 0.95074 0.0
O161 O 0.32108 0.45836 0.01391 0.0
O162 O 0.31514 0.4139 0.02383 0.0
H163 H 0.39228 0.35886 0.04929 0.0
H164 H 0.42159 0.36559 0.11717 0.0
C165 C 0.39968 0.37023 0.10769 0.0
H166 H 0.38802 0.36331 0.16631 0.0
H167 H 0.34082 0.3666 0.96207 0.0
O168 O 0.35678 0.5019 0.09576 0.0
C169 C 0.30998 0.43656 0.9875 0.0
Co170 Co 0.46341 0.67739 0.87222 0.0
Co171 Co 0.40046 0.69076 0.85895 0.0
C172 C 0.43842 0.70858 0.71725 0.0
O173 O 0.45927 0.69889 0.7574 0.0
O174 O 0.41424 0.70467 0.74587 0.0
C175 C 0.51794 0.64761 0.86769 0.0
O176 O 0.5139 0.6378 0.78816 0.0
C177 C 0.34064 0.69616 0.8249 0.0
C178 C 0.32668 0.70302 0.96182 0.0
C179 C 0.31743 0.70016 0.87621 0.0
N180 N 0.36242 0.69602 0.87874 0.0
N181 N 0.35387 0.70045 0.96012 0.0
C182 C 0.34263 0.69438 0.72666 0.0
H183 H 0.36092 0.70561 0.70364 0.0
H184 H 0.34506 0.67276 0.70724 0.0
H185 H 0.32424 0.70287 0.69442 0.0
C186 C 0.43902 0.62375 0.92668 0.0
N187 N 0.43677 0.64907 0.89242 0.0
N188 N 0.41073 0.65469 0.88361 0.0
C189 C 0.39571 0.63314 0.91002 0.0
C190 C 0.4131 0.61283 0.93869 0.0
C191 C 0.46539 0.61072 0.95154 0.0
H192 H 0.47789 0.60804 0.89137 0.0
H193 H 0.46227 0.5905 0.98253 0.0
H194 H 0.47666 0.62416 -0.00229 0.0
O195 O 0.45982 0.70573 0.96172 0.0
O196 O 0.41632 0.71524 0.94402 0.0
H197 H 0.35966 0.64706 0.9739 0.0
H198 H 0.35675 0.61307 0.93316 0.0
C199 C 0.36533 0.63346 0.91875 0.0
H200 H 0.35614 0.64133 0.8571 0.0
H201 H 0.36665 0.70137 0.01501 0.0
O202 O 0.50032 0.66329 0.90157 0.0
C203 C 0.43914 0.71998 0.97969 0.0
Co204 Co 0.6757 0.5608 0.12415 0.0
Co205 Co 0.69083 0.62362 0.10903 0.0
C206 C 0.71804 0.58831 0.24372 0.0
O207 O 0.70432 0.56704 0.22154 0.0
O208 O 0.7133 0.61139 0.2084 0.0
C209 C 0.66977 0.50178 0.10848 0.0
O210 O 0.69648 0.50196 0.10336 0.0
C211 C 0.70034 0.68333 0.13113 0.0
C212 C 0.6969 0.69649 0.99205 0.0
C213 C 0.70088 0.70606 0.07672 0.0
N214 N 0.69594 0.66125 0.08061 0.0
N215 N 0.69437 0.6693 -0.00248 0.0
C216 C 0.70227 0.6828 0.22944 0.0
H217 H 0.69351 0.6636 0.25589 0.0
H218 H 0.6916 0.7006 0.25808 0.0
H219 H 0.72403 0.68409 0.24881 0.0
C220 C 0.62117 0.58549 0.09163 0.0
N221 N 0.64752 0.58803 0.1163 0.0
N222 N 0.65381 0.6141 0.11766 0.0
C223 C 0.63159 0.62884 0.09705 0.0
C224 C 0.61024 0.61123 0.07837 0.0
C225 C 0.60779 0.55896 0.06975 0.0
H226 H 0.6188 0.54941 0.01395 0.0
H227 H 0.60909 0.54514 0.12742 0.0
H228 H 0.58608 0.56169 0.05162 0.0
O229 O 0.69711 0.56113 0.01452 0.0
O230 O 0.70597 0.60537 0.00758 0.0
H231 H 0.64053 0.66267 0.01329 0.0
H232 H 0.6113 0.66763 0.08196 0.0
C233 C 0.63202 0.65885 0.07987 0.0
H234 H 0.64481 0.66924 0.1298 0.0
H235 H 0.69081 0.65624 0.94449 0.0
O236 O 0.65744 0.524 0.12401 0.0
C237 C 0.7079 0.58153 0.97651 0.0
Co238 Co 0.55998 0.34754 0.87755 0.0
Co239 Co 0.62176 0.33261 0.85612 0.0
C240 C 0.5852 0.31437 0.71967 0.0
O241 O 0.56508 0.3241 0.76386 0.0
O242 O 0.60976 0.31874 0.74311 0.0
C243 C 0.51512 0.38831 0.87804 0.0
O244 O 0.53282 0.40604 0.84724 0.0
C245 C 0.68182 0.32514 0.83485 0.0
C246 C 0.69336 0.32484 0.97599 0.0
C247 C 0.70396 0.32388 0.89168 0.0
N248 N 0.6591 0.32706 0.8839 0.0
N249 N 0.66619 0.32646 0.96801 0.0
C250 C 0.68241 0.32666 0.73641 0.0
H251 H 0.66308 0.33521 0.71079 0.0
H252 H 0.69994 0.33923 0.71405 0.0
H253 H 0.68499 0.30585 0.70941 0.0
C254 C 0.58947 0.39745 0.95289 0.0
N255 N 0.58817 0.37453 0.90306 0.0
N256 N 0.61293 0.36919 0.87537 0.0
C257 C 0.63004 0.38931 0.89963 0.0
C258 C 0.61601 0.4077 0.95156 0.0
C259 C 0.56771 0.40641 0.01511 0.0
H260 H 0.55088 0.39134 0.01829 0.0
H261 H 0.56007 0.4265 0.9936 0.0
H262 H 0.57642 0.40914 0.08212 0.0
O263 O 0.56105 0.3201 0.97011 0.0
O264 O 0.60373 0.30902 0.94248 0.0
H265 H 0.67233 0.38031 0.91949 0.0
H266 H 0.66607 0.41267 0.86862 0.0
C267 C 0.65925 0.39112 0.87162 0.0
H268 H 0.66187 0.3815 0.80603 0.0
H269 H 0.65245 0.32807 0.02022 0.0
O270 O 0.52228 0.36363 0.88866 0.0
C271 C 0.58151 0.305 0.98329 0.0
Co272 Co 0.84326 0.5647 0.63953 0.0
Co273 Co 0.82769 0.62723 0.62447 0.0
C274 C 0.81183 0.58962 0.48206 0.0
O275 O 0.82197 0.56912 0.52312 0.0
O276 O 0.81535 0.61388 0.5099 0.0
C277 C 0.87808 0.51363 0.63866 0.0
O278 O 0.89323 0.5231 0.57405 0.0
C279 C 0.82048 0.68708 0.59032 0.0
C280 C 0.81473 0.70099 0.72759 0.0
C281 C 0.81619 0.71029 0.6415 0.0
N282 N 0.82169 0.66532 0.64433 0.0
N283 N 0.81803 0.67389 0.72604 0.0
C284 C 0.82241 0.68529 0.49205 0.0
H285 H 0.81538 0.66507 0.46897 0.0
H286 H 0.844 0.6879 0.47196 0.0
H287 H 0.81009 0.70144 0.46028 0.0
C288 C 0.89449 0.59164 0.70857 0.0
N289 N 0.87016 0.59234 0.66635 0.0
N290 N 0.86396 0.61795 0.65138 0.0
C291 C 0.88448 0.63409 0.67902 0.0
C292 C 0.90427 0.61814 0.71847 0.0
C293 C 0.90639 0.56663 0.74922 0.0
H294 H 0.88993 0.55333 0.77512 0.0
H295 H 0.91786 0.55531 0.6982 0.0
H296 H 0.92058 0.57185 0.80363 0.0
O297 O 0.81411 0.56675 0.72576 0.0
O298 O 0.80232 0.60976 0.70683 0.0
H299 H 0.87342 0.67439 0.71835 0.0
H300 H 0.90662 0.67206 0.6685 0.0
C301 C 0.88537 0.66429 0.66589 0.0
H302 H 0.87632 0.66957 0.60117 0.0
H303 H 0.81811 0.66117 0.78119 0.0
O304 O 0.85782 0.52742 0.66522 0.0
C305 C 0.79842 0.58653 0.74153 0.0
Co306 Co 0.55892 0.17852 0.35499 0.0
Co307 Co 0.6215 0.19342 0.36278 0.0
C308 C 0.5859 0.21959 0.48883 0.0
O309 O 0.5651 0.20742 0.4549 0.0
O310 O 0.61006 0.21336 0.46614 0.0
C311 C 0.51249 0.13855 0.36735 0.0
O312 O 0.5299 0.12089 0.39924 0.0
C313 C 0.68155 0.20217 0.38068 0.0
C314 C 0.69334 0.19739 0.24071 0.0
C315 C 0.70383 0.20176 0.32411 0.0
N316 N 0.65894 0.19786 0.33252 0.0
N317 N 0.66618 0.19542 0.24892 0.0
C318 C 0.68182 0.20466 0.47891 0.0
H319 H 0.66291 0.1959 0.50749 0.0
H320 H 0.69994 0.19433 0.50685 0.0
H321 H 0.68294 0.22653 0.49686 0.0
C322 C 0.58744 0.12643 0.29641 0.0
N323 N 0.58679 0.15051 0.34017 0.0
N324 N 0.61189 0.15649 0.36378 0.0
C325 C 0.62852 0.1357 0.34368 0.0
C326 C 0.61385 0.11604 0.29872 0.0
C327 C 0.56557 0.11688 0.23526 0.0
H328 H 0.54934 0.13233 0.2284 0.0
H329 H 0.55703 0.09754 0.26066 0.0
H330 H 0.57435 0.11255 0.16928 0.0
O331 O 0.56003 0.20121 0.24976 0.0
O332 O 0.60356 0.21196 0.26475 0.0
H333 H 0.67011 0.14288 0.30711 0.0
H334 H 0.66499 0.1139 0.37712 0.0
C335 C 0.65834 0.1351 0.3642 0.0
H336 H 0.6628 0.14789 0.42267 0.0
H337 H 0.65255 0.19162 0.19754 0.0
O338 O 0.5204 0.16285 0.35174 0.0
C339 C 0.58096 0.21432 0.22498 0.0
Co340 Co 0.17886 0.46043 0.63418 0.0
Co341 Co 0.19107 0.39763 0.61736 0.0
C342 C 0.21298 0.43465 0.48288 0.0
O343 O 0.20292 0.45541 0.52279 0.0
O344 O 0.20745 0.41048 0.50812 0.0
C345 C 0.14446 0.51131 0.6322 0.0
O346 O 0.12865 0.50087 0.57095 0.0
C347 C 0.19839 0.33774 0.58973 0.0
C348 C 0.19879 0.3248 0.72952 0.0
C349 C 0.2009 0.31505 0.6443 0.0
N350 N 0.19489 0.35977 0.64101 0.0
N351 N 0.19527 0.35181 0.7243 0.0
C352 C 0.20052 0.3388 0.4914 0.0
H353 H 0.2082 0.35896 0.4698 0.0
H354 H 0.17998 0.33575 0.46248 0.0
H355 H 0.21418 0.32259 0.46663 0.0
C356 C 0.12585 0.43518 0.6965 0.0
N357 N 0.15 0.43408 0.65321 0.0
N358 N 0.15484 0.40851 0.63343 0.0
C359 C 0.13355 0.39295 0.65794 0.0
C360 C 0.11474 0.40906 0.7012 0.0
C361 C 0.11582 0.4596 0.74534 0.0
H362 H 0.13324 0.47205 0.76894 0.0
H363 H 0.10319 0.47209 0.70039 0.0
H364 H 0.103 0.45354 0.80245 0.0
O365 O 0.20517 0.4565 0.72884 0.0
O366 O 0.21431 0.41305 0.70851 0.0
H367 H 0.14127 0.35156 0.69495 0.0
H368 H 0.10967 0.35655 0.63779 0.0
C369 C 0.13134 0.363 0.64097 0.0
H370 H 0.14165 0.35784 0.57809 0.0
H371 H 0.19303 0.36492 0.77789 0.0
O372 O 0.16541 0.49824 0.65714 0.0
C373 C 0.21869 0.43541 0.74761 0.0
Co374 Co 0.46596 0.84325 0.35851 0.0
Co375 Co 0.40231 0.83154 0.35617 0.0
C376 C 0.43844 0.80318 0.48498 0.0
O377 O 0.46008 0.81546 0.45834 0.0
O378 O 0.41504 0.80955 0.4553 0.0
C379 C 0.52121 0.87143 0.38123 0.0
O380 O 0.51439 0.88216 0.45738 0.0
C381 C 0.34263 0.82485 0.38985 0.0
C382 C 0.32773 0.82454 0.25214 0.0
C383 C 0.3191 0.82298 0.33877 0.0
N384 N 0.36404 0.82795 0.33528 0.0
N385 N 0.35492 0.82749 0.25325 0.0
C386 C 0.34517 0.82196 0.48773 0.0
H387 H 0.36357 0.81001 0.50417 0.0
H388 H 0.34768 0.84245 0.51746 0.0
H389 H 0.32694 0.81188 0.5164 0.0
C390 C 0.44362 0.89924 0.32427 0.0
N391 N 0.44043 0.87318 0.35158 0.0
N392 N 0.41413 0.86801 0.35747 0.0
C393 C 0.39995 0.89058 0.33736 0.0
C394 C 0.41808 0.91113 0.31467 0.0
C395 C 0.47039 0.91166 0.29915 0.0
H396 H 0.48139 0.89783 0.25381 0.0
H397 H 0.48287 0.91437 0.35936 0.0
H398 H 0.46786 0.93184 0.26746 0.0
O399 O 0.46193 0.82099 0.2527 0.0
O400 O 0.41751 0.81373 0.25433 0.0
H401 H 0.36471 0.88058 0.26143 0.0
H402 H 0.36144 0.91176 0.32079 0.0
C403 C 0.3697 0.8909 0.32436 0.0
H404 H 0.35959 0.87996 0.37936 0.0
H405 H 0.36732 0.82935 0.19767 0.0
O406 O 0.50436 0.85609 0.34123 0.0
C407 C 0.44073 0.81031 0.21989 0.0
Co408 Co 0.84872 0.96721 0.61446 0.0
Co409 Co 0.82839 0.90695 0.57606 0.0
C410 C 0.80584 0.93979 0.72861 0.0
O411 O 0.82125 0.96052 0.71429 0.0
O412 O 0.80804 0.91829 0.68212 0.0
C413 C 0.85827 0.02589 0.61966 0.0
O414 O 0.83171 0.0274 0.62849 0.0
C415 C 0.81999 0.84772 0.59884 0.0
C416 C 0.81155 0.83494 0.46173 0.0
C417 C 0.81465 0.82508 0.54663 0.0
N418 N 0.82008 0.86991 0.54691 0.0
N419 N 0.81465 0.86214 0.46528 0.0
C420 C 0.82719 0.84826 0.69465 0.0
H421 H 0.84113 0.86559 0.70857 0.0
H422 H 0.83675 0.82883 0.71515 0.0
H423 H 0.80836 0.85125 0.73383 0.0
C424 C 0.90179 0.9394 0.57732 0.0
N425 N 0.87482 0.93832 0.59548 0.0
N426 N 0.86619 0.91327 0.5818 0.0
C427 C 0.88719 0.89777 0.55464 0.0
C428 C 0.91054 0.91375 0.55087 0.0
C429 C 0.9184 0.96496 0.57829 0.0
H430 H 0.91482 0.97608 0.64082 0.0
H431 H 0.94046 0.9606 0.57159 0.0
H432 H 0.91189 0.97818 0.5229 0.0
O433 O 0.82552 0.97156 0.50884 0.0
O434 O 0.81382 0.92865 0.48043 0.0
H435 H 0.90326 0.86138 0.49186 0.0
H436 H 0.87623 0.85588 0.57049 0.0
C437 C 0.88393 0.86963 0.51806 0.0
H438 H 0.86889 0.87 0.46364 0.0
H439 H 0.81382 0.87534 0.41142 0.0
O440 O 0.86945 1.0026 0.61941 0.0
C441 C 0.81339 0.95385 0.46206 0.0
Co442 Co 0.96371 0.1835 0.39198 0.0
Co443 Co 0.90167 0.19948 0.37899 0.0
C444 C 0.93743 0.21435 0.23335 0.0
O445 O 0.95817 0.20489 0.27513 0.0
O446 O 0.91324 0.21025 0.26118 0.0
C447 C 0.01379 0.14739 0.38761 0.0
O448 O 1.00294 0.13196 0.32614 0.0
C449 C 0.84206 0.20585 0.35068 0.0
C450 C 0.82878 0.21254 0.48839 0.0
C451 C 0.81913 0.20942 0.40332 0.0
N452 N 0.86414 0.2061 0.40308 0.0
N453 N 0.85604 0.21052 0.48497 0.0
C454 C 0.84336 0.20352 0.25235 0.0
H455 H 0.86009 0.21655 0.22678 0.0
H456 H 0.84804 0.18222 0.23392 0.0
H457 H 0.82388 0.20971 0.2213 0.0
C458 C 0.9365 0.13223 0.46341 0.0
N459 N 0.93602 0.15675 0.42212 0.0
N460 N 0.91044 0.16327 0.40815 0.0
C461 C 0.89409 0.14286 0.43554 0.0
C462 C 0.90987 0.12269 0.47364 0.0
C463 C 0.96147 0.11966 0.50217 0.0
H464 H 0.97558 0.13573 0.52592 0.0
H465 H 0.97187 0.10751 0.45074 0.0
H466 H 0.95618 0.10589 0.55771 0.0
O467 O 0.96306 0.21301 0.4779 0.0
O468 O 0.92045 0.22558 0.45493 0.0
H469 H 0.85395 0.15454 0.47496 0.0
H470 H 0.85576 0.12116 0.42639 0.0
C471 C 0.86385 0.14226 0.4229 0.0
H472 H 0.85864 0.15106 0.35783 0.0
H473 H 0.86916 0.21145 0.53905 0.0
O474 O 1.00104 0.16838 0.4137 0.0
C475 C 0.94369 0.22959 0.48917 0.0
Co476 Co 0.1753 0.05823 0.62118 0.0
Co477 Co 0.19518 0.11886 0.59087 0.0
C478 C 0.21883 0.08422 0.73717 0.0
O479 O 0.20362 0.06352 0.72021 0.0
O480 O 0.21611 0.10637 0.69423 0.0
C481 C 0.16594 0.99928 0.61506 0.0
O482 O 0.1925 0.99735 0.62312 0.0
C483 C 0.20293 0.17804 0.61316 0.0
C484 C 0.21365 0.19012 0.47682 0.0
C485 C 0.209 0.20036 0.56033 0.0
N486 N 0.20388 0.15563 0.56272 0.0
N487 N 0.21071 0.16296 0.48171 0.0
C488 C 0.19392 0.17799 0.7074 0.0
H489 H 0.18057 0.16015 0.72053 0.0
H490 H 0.18311 0.19712 0.72378 0.0
H491 H 0.21209 0.1763 0.75052 0.0
C492 C 0.12171 0.08681 0.59327 0.0
N493 N 0.14883 0.08747 0.60949 0.0
N494 N 0.15747 0.11261 0.59721 0.0
C495 C 0.13651 0.12837 0.57123 0.0
C496 C 0.11305 0.11258 0.56791 0.0
C497 C 0.10458 0.06163 0.59445 0.0
H498 H 0.11118 0.04788 0.64823 0.0
H499 H 0.08275 0.06672 0.60341 0.0
H500 H 0.10689 0.05114 0.53036 0.0
O501 O 0.1975 0.05552 0.51198 0.0
O502 O 0.20883 0.09883 0.49223 0.0
H503 H 0.12089 0.16428 0.50424 0.0
H504 H 0.14647 0.17049 0.58701 0.0
C505 C 0.13991 0.15643 0.53395 0.0
H506 H 0.1558 0.15619 0.48211 0.0
H507 H 0.21251 0.1495 0.42887 0.0
O508 O 0.15487 0.02258 0.6208 0.0
C509 C 0.20906 0.07424 0.46773 0.0
Co510 Co 0.06041 0.84184 0.3865 0.0
Co511 Co 0.1223 0.82447 0.38417 0.0
C512 C 0.08802 0.80901 0.23479 0.0
O513 O 0.06699 0.81951 0.27221 0.0
O514 O 0.11187 0.81248 0.26637 0.0
C515 C 1.01037 0.87842 0.37507 0.0
O516 O 0.0213 0.89348 0.31265 0.0
C517 C 0.18234 0.81729 0.36668 0.0
C518 C 0.1931 0.81223 0.5074 0.0
C519 C 0.20423 0.81435 0.42391 0.0
N520 N 0.15931 0.81735 0.41473 0.0
N521 N 0.16593 0.81381 0.49846 0.0
C522 C 0.1834 0.8226 0.26961 0.0
H523 H 0.16413 0.83196 0.24664 0.0
H524 H 0.20091 0.83607 0.25335 0.0
H525 H 0.18625 0.80302 0.23451 0.0
C526 C 0.08766 0.89323 0.45537 0.0
N527 N 0.08826 0.86827 0.41727 0.0
N528 N 0.11389 0.86116 0.40776 0.0
C529 C 0.1302 0.88162 0.43489 0.0
C530 C 0.1143 0.90252 0.46759 0.0
C531 C 0.06243 0.90627 0.49056 0.0
H532 H 0.04817 0.89049 0.51557 0.0
H533 H 0.05233 0.91769 0.43677 0.0
H534 H 0.06733 0.92072 0.54455 0.0
O535 O 0.05937 0.81316 0.4754 0.0
O536 O 0.10203 0.79968 0.46072 0.0
H537 H 0.16924 0.87028 0.4852 0.0
H538 H 0.16905 0.90241 0.42797 0.0
C539 C 0.16061 0.88143 0.42815 0.0
H540 H 0.16684 0.87119 0.36643 0.0
H541 H 0.15188 0.81354 0.55011 0.0
O542 O 0.02317 0.85772 0.40336 0.0
C543 C 0.0783 0.79656 0.49234 0.0
C544 C 0.27263 0.05272 0.35539 0.0
C545 C 0.27421 0.07235 0.28799 0.0
C546 C 0.2493 0.05065 0.40829 0.0
C547 C 0.22706 0.06797 0.39416 0.0
H548 H 0.29006 0.04016 0.37087 0.0
H549 H 0.24969 0.03726 0.46511 0.0
S550 S 0.21876 0.1181 0.21399 0.0
N551 N 0.24978 0.10597 0.20057 0.0
N552 N 0.20613 0.102 0.30049 0.0
C553 C 0.22733 0.08548 0.3213 0.0
C554 C 0.25096 0.08778 0.26813 0.0
C555 C 0.08896 0.74875 0.52711 0.0
C556 C 0.07261 0.77166 0.54269 0.0
C557 C 0.08691 0.72577 0.58019 0.0
C558 C 0.06851 0.72492 0.65078 0.0
H559 H 0.10435 0.74895 0.47588 0.0
H560 H 0.10134 0.70941 0.57035 0.0
S561 S 0.01814 0.77766 0.71067 0.0
N562 N 0.03489 0.79074 0.62601 0.0
N563 N 0.03135 0.74723 0.72763 0.0
C564 C 0.05016 0.74647 0.66195 0.0
C565 C 0.05219 0.77003 0.60742 0.0
C566 C 0.77058 0.97527 0.41414 0.0
C567 C 0.795 0.9621 0.39177 0.0
C568 C 0.7477 0.97327 0.35899 0.0
C569 C 0.74901 0.95796 0.28108 0.0
H570 H 0.76831 0.98469 0.47829 0.0
H571 H 0.72849 0.98164 0.38094 0.0
S572 S 0.81012 0.92511 0.18547 0.0
N573 N 0.82045 0.93725 0.28139 0.0
N574 N 0.77782 0.93388 0.1766 0.0
C575 C 0.77426 0.94755 0.25368 0.0
C576 C 0.79727 0.94954 0.30954 0.0
C577 C 0.96976 0.27922 0.66003 0.0
C578 C 0.95211 0.30131 0.64765 0.0
C579 C 0.96795 0.25628 0.60553 0.0
C580 C 0.94835 0.25497 0.53803 0.0
H581 H 0.98319 0.27859 0.71669 0.0
H582 H 0.98065 0.23887 0.62001 0.0
S583 S 0.902 0.31044 0.468 0.0
N584 N 0.91788 0.32256 0.55559 0.0
N585 N 0.91453 0.27972 0.45219 0.0
C586 C 0.93269 0.27821 0.51973 0.0
C587 C 0.93463 0.30141 0.57481 0.0
C588 C 0.2775 0.41296 0.88867 0.0
C589 C 0.28813 0.43755 0.92126 0.0
C590 C 0.25469 0.41261 0.83439 0.0
C591 C 0.24159 0.43686 0.80997 0.0
H592 H 0.28657 0.39364 0.90617 0.0
H593 H 0.24733 0.39303 0.81155 0.0
S594 S 0.26182 0.5069 0.87519 0.0
N595 N 0.28422 0.48699 0.92401 0.0
N596 N 0.24122 0.48632 0.82062 0.0
C597 C 0.25215 0.46173 0.84095 0.0
C598 C 0.27553 0.46209 0.89653 0.0
C599 C 0.41884 0.78271 0.10448 0.0
C600 C 0.44279 0.79028 0.14865 0.0
C601 C 0.4181 0.75997 0.05048 0.0
C602 C 0.44139 0.7439 0.03752 0.0
H603 H 0.40008 0.79385 0.11419 0.0
H604 H 0.39882 0.75484 0.01982 0.0
S605 S 0.51016 0.75679 0.13069 0.0
N606 N 0.49104 0.78133 0.17132 0.0
N607 N 0.48981 0.73838 0.06758 0.0
C608 C 0.46598 0.75201 0.07744 0.0
C609 C 0.46669 0.77535 0.13316 0.0
C610 C 0.7298 0.59947 0.84306 0.0
C611 C 0.72691 0.57798 0.90331 0.0
C612 C 0.75279 0.60161 0.78998 0.0
C613 C 0.77376 0.58228 0.795 0.0
H614 H 0.71491 0.61567 0.84069 0.0
H615 H 0.75439 0.61905 0.74649 0.0
S616 S 0.77423 0.52025 0.9349 0.0
N617 N 0.74541 0.53562 0.95998 0.0
N618 N 0.78889 0.53938 0.85872 0.0
C619 C 0.77018 0.5595 0.85023 0.0
C620 C 0.74659 0.55735 0.9046 0.0
C621 C 0.60332 0.24389 0.11501 0.0
C622 C 0.57914 0.2351 0.15558 0.0
C623 C 0.60366 0.26652 0.06005 0.0
C624 C 0.5798 0.28136 0.04298 0.0
H625 H 0.62241 0.23361 0.12751 0.0
H626 H 0.62304 0.27254 0.03178 0.0
S627 S 0.51069 0.26571 0.12912 0.0
N628 N 0.53038 0.24211 0.17272 0.0
N629 N 0.53091 0.28484 0.06765 0.0
C630 C 0.55519 0.27231 0.08078 0.0
C631 C 0.55486 0.24905 0.13715 0.0
C632 C 0.31415 0.27039 0.06617 0.0
C633 C 0.33049 0.2875 0.11882 0.0
C634 C 0.31247 0.24235 0.08253 0.0
C635 C 0.3272 0.23046 0.1518 0.0
H636 H 0.30248 0.27877 0.01202 0.0
H637 H 0.29926 0.23002 0.04149 0.0
S638 S 0.3751 0.26581 0.30283 0.0
N639 N 0.3633 0.29016 0.2384 0.0
N640 N 0.35971 0.23758 0.27058 0.0
C641 C 0.34385 0.24728 0.20427 0.0
C642 C 0.34566 0.27578 0.18732 0.0
C643 C 0.24295 0.71986 0.87604 0.0
C644 C 0.23134 0.70138 0.81638 0.0
C645 C 0.27101 0.71968 0.89288 0.0
C646 C 0.28834 0.70093 0.85096 0.0
H647 H 0.23033 0.73473 0.90908 0.0
H648 H 0.2792 0.73433 0.93929 0.0
S649 S 0.26691 0.64615 0.69736 0.0
N650 N 0.23861 0.66289 0.71909 0.0
N651 N 0.29117 0.66166 0.75387 0.0
C652 C 0.27674 0.68187 0.79285 0.0
C653 C 0.24825 0.68235 0.77472 0.0
C654 C 0.72951 0.77311 0.15861 0.0
C655 C 0.70908 0.79175 0.13463 0.0
C656 C 0.72648 0.74515 0.14215 0.0
C657 C 0.70295 0.735 0.10102 0.0
H658 H 0.74813 0.78025 0.18936 0.0
H659 H 0.74288 0.7315 0.15973 0.0
S660 S 0.64175 0.77426 0.03826 0.0
N661 N 0.663 0.79724 0.07846 0.0
N662 N 0.658 0.74496 0.04346 0.0
C663 C 0.68205 0.75316 0.07931 0.0
C664 C 0.6849 0.7815 0.09728 0.0
C665 C 0.77243 0.30341 0.7992 0.0
C666 C 0.79026 0.32241 0.83832 0.0
C667 C 0.74432 0.30428 0.81499 0.0
C668 C 0.7332 0.32416 0.8705 0.0
H669 H 0.78032 0.28763 0.75652 0.0
H670 H 0.7313 0.28901 0.7851 0.0
S671 S 0.77029 0.38086 0.97852 0.0
N672 N 0.79416 0.36358 0.92651 0.0
N673 N 0.74149 0.36445 0.95924 0.0
C674 C 0.75061 0.34365 0.90824 0.0
C675 C 0.77914 0.34301 0.89129 0.0
C676 C 0.83043 0.77743 0.52397 0.0
C677 C 0.81449 0.796 0.57166 0.0
C678 C 0.83073 0.7497 0.54593 0.0
C679 C 0.81456 0.73939 0.61508 0.0
H680 H 0.84327 0.78452 0.47046 0.0
H681 H 0.84434 0.73652 0.50991 0.0
S682 S 0.76764 0.77959 0.75579 0.0
N683 N 0.78131 0.80223 0.68833 0.0
N684 N 0.78136 0.7501 0.72906 0.0
C685 C 0.79817 0.75783 0.66227 0.0
C686 C 0.79817 0.78611 0.64052 0.0
C687 C 0.77143 0.22617 0.41635 0.0
C688 C 0.78999 0.20759 0.37971 0.0
C689 C 0.74342 0.22405 0.39934 0.0
C690 C 0.73311 0.2032 0.34541 0.0
H691 H 0.77865 0.24256 0.45814 0.0
H692 H 0.72984 0.23905 0.42729 0.0
S693 S 0.77261 0.14733 0.24345 0.0
N694 N 0.79566 0.16606 0.29478 0.0
N695 N 0.74319 0.16257 0.26047 0.0
C696 C 0.75136 0.18418 0.30995 0.0
C697 C 0.77978 0.1862 0.32784 0.0
C698 C 0.19044 0.27482 0.54859 0.0
C699 C 0.20439 0.28606 0.62094 0.0
C700 C 0.19229 0.24703 0.52924 0.0
C701 C 0.2077 0.22948 0.58252 0.0
H702 H 0.17736 0.2873 0.50802 0.0
H703 H 0.18106 0.23911 0.47329 0.0
S704 S 0.24933 0.24887 0.77632 0.0
N705 N 0.2351 0.27757 0.74388 0.0
N706 N 0.23825 0.22526 0.70749 0.0
C707 C 0.22195 0.24039 0.65437 0.0
C708 C 0.2203 0.2687 0.67373 0.0
C709 C 0.27303 0.80255 0.31798 0.0
C710 C 0.29028 0.82015 0.3657 0.0
C711 C 0.24514 0.80074 0.33688 0.0
C712 C 0.23358 0.81649 0.40418 0.0
H713 H 0.28117 0.79008 0.26539 0.0
H714 H 0.23262 0.78679 0.29912 0.0
S715 S 0.2691 0.86781 0.54209 0.0
N716 N 0.29318 0.85531 0.47805 0.0
N717 N 0.24094 0.85123 0.51567 0.0
C718 C 0.25047 0.83432 0.45196 0.0
C719 C 0.2788 0.83637 0.43213 0.0
C720 C 0.28209 0.10565 0.86694 0.0
C721 C 0.29028 0.08204 0.91237 0.0
C722 C 0.2589 0.10596 0.81301 0.0
C723 C 0.24242 0.08264 0.80053 0.0
H724 H 0.29335 0.12451 0.87464 0.0
H725 H 0.25391 0.125 0.78091 0.0
S726 S 0.25506 0.01497 0.90152 0.0
N727 N 0.28005 0.03425 0.93967 0.0
N728 N 0.2367 0.03474 0.83673 0.0
C729 C 0.25059 0.0586 0.84381 0.0
C730 C 0.2744 0.05829 0.89955 0.0
C731 C 0.1087 0.78009 0.11681 0.0
C732 C 0.08524 0.78794 0.1637 0.0
C733 C 0.10902 0.75687 0.06315 0.0
C734 C 0.08585 0.74007 0.05261 0.0
H735 H 0.12747 0.79159 0.12351 0.0
H736 H 0.12793 0.75208 0.02993 0.0
S737 S 0.01851 0.75199 0.15726 0.0
N738 N 0.03772 0.77725 0.19392 0.0
N739 N 0.03815 0.73384 0.09151 0.0
C740 C 0.06188 0.74804 0.09691 0.0
C741 C 0.06159 0.77187 0.15229 0.0
C742 C 0.74353 0.9171 0.86065 0.0
C743 C 0.73483 0.94068 0.90496 0.0
C744 C 0.76664 0.91716 0.80635 0.0
C745 C 0.78251 0.94083 0.79285 0.0
H746 H 0.73273 0.89802 0.86968 0.0
H747 H 0.77209 0.89816 0.77491 0.0
S748 S 0.76844 1.00846 0.89191 0.0
N749 N 0.74392 0.9887 0.93089 0.0
N750 N 0.78717 0.98897 0.82742 0.0
C751 C 0.77383 0.96482 0.83537 0.0
C752 C 0.75007 0.96474 0.8912 0.0
C753 C 0.91797 0.24113 0.10812 0.0
C754 C 0.94058 0.23526 0.16188 0.0
C755 C 0.91714 0.26439 0.05459 0.0
C756 C 0.93893 0.28321 0.05111 0.0
H757 H 0.90015 0.22805 0.10952 0.0
H758 H 0.89888 0.26763 0.01598 0.0
S759 S 1.00383 0.27688 0.17526 0.0
N760 N 0.98596 0.24992 0.20598 0.0
N761 N 0.98463 0.29343 0.10381 0.0
C762 C 0.96222 0.27715 0.10192 0.0
C763 C 0.96302 0.25328 0.15721 0.0
C764 C 0.24388 0.41412 0.37035 0.0
C765 C 0.23543 0.43753 0.41623 0.0
C766 C 0.26792 0.41369 0.32086 0.0
C767 C 0.28491 0.43677 0.31279 0.0
H768 H 0.23216 0.39543 0.37437 0.0
H769 H 0.273 0.39484 0.28789 0.0
S770 S 0.2717 0.50408 0.41507 0.0
N771 N 0.24585 0.48498 0.44809 0.0
N772 N 0.29075 0.48441 0.35207 0.0
C773 C 0.27635 0.46078 0.35541 0.0
C774 C 0.25175 0.46113 0.40739 0.0
C775 C 0.46186 0.773 0.59833 0.0
C776 C 0.44012 0.77786 0.5398 0.0
C777 C 0.46256 0.74926 0.6511 0.0
C778 C 0.44175 0.72937 0.64634 0.0
H779 H 0.47789 0.78803 0.60572 0.0
H780 H 0.47871 0.74723 0.69929 0.0
S781 S 0.38297 0.72985 0.49289 0.0
N782 N 0.39906 0.75874 0.47299 0.0
N783 N 0.40072 0.71469 0.57094 0.0
C784 C 0.42103 0.73317 0.58387 0.0
C785 C 0.42012 0.75722 0.53108 0.0
C786 C 0.76067 0.60883 0.30624 0.0
C787 C 0.74253 0.58647 0.30273 0.0
C788 C 0.78416 0.60852 0.35851 0.0
C789 C 0.7909 0.58594 0.41117 0.0
H790 H 0.75672 0.62713 0.26857 0.0
H791 H 0.79667 0.62674 0.36001 0.0
S792 S 0.75155 0.52126 0.4229 0.0
N793 N 0.73406 0.54021 0.35313 0.0
N794 N 0.778 0.53988 0.45351 0.0
C795 C 0.77367 0.5629 0.40607 0.0
C796 C 0.74958 0.56314 0.35178 0.0
C797 C 0.56136 0.27259 0.65819 0.0
C798 C 0.58097 0.29357 0.64901 0.0
C799 C 0.56215 0.24888 0.60493 0.0
C800 C 0.58283 0.2452 0.5416 0.0
H801 H 0.54632 0.27371 0.71029 0.0
H802 H 0.54732 0.23288 0.61623 0.0
S803 S 0.63609 0.29618 0.48192 0.0
N804 N 0.61941 0.31036 0.56423 0.0
N805 N 0.62107 0.26653 0.46532 0.0
C806 C 0.60131 0.26697 0.52821 0.0
C807 C 0.60034 0.2909 0.58148 0.0
C808 C 0.40723 0.96356 0.13333 0.0
C809 C 0.38925 0.98211 0.17321 0.0
C810 C 0.41751 0.94113 0.18035 0.0
C811 C 0.41074 0.93688 0.26951 0.0
H812 H 0.4129 0.966 0.06473 0.0
H813 H 0.43021 0.9266 0.14608 0.0
S814 S 0.36673 0.98051 0.40761 0.0
N815 N 0.36609 0.99493 0.30931 0.0
N816 N 0.38679 0.95384 0.39765 0.0
C817 C 0.39387 0.95584 0.31118 0.0
C818 C 0.38274 0.97813 0.26308 0.0
C819 C 0.95459 0.61809 0.74913 0.0
C820 C 0.92845 0.62792 0.76881 0.0
C821 C 0.97792 0.62961 0.78829 0.0
C822 C 0.97593 0.65157 0.84779 0.0
H823 H 0.9571 0.60218 0.70045 0.0
H824 H 0.99769 0.6222 0.76819 0.0
S825 S 0.91192 0.68151 0.93238 0.0
N826 N 0.90176 0.6581 0.86141 0.0
N827 N 0.94554 0.6806 0.93137 0.0
C828 C 0.94983 0.66051 0.87149 0.0
C829 C 0.92612 0.64845 0.83302 0.0
C830 C 0.66138 0.07304 0.15751 0.0
C831 C 0.65178 0.04632 0.17112 0.0
C832 C 0.64828 0.09554 0.19561 0.0
C833 C 0.62529 0.09227 0.25027 0.0
H834 H 0.67946 0.07661 0.11816 0.0
H835 H 0.65653 0.11564 0.18317 0.0
S836 S 0.59174 0.02696 0.30708 0.0
N837 N 0.61721 0.01828 0.24197 0.0
N838 N 0.59321 0.06042 0.31498 0.0
C839 C 0.61498 0.06589 0.26248 0.0
C840 C 0.6281 0.04298 0.2228 0.0
C841 C 0.06497 0.40862 0.73922 0.0
C842 C 0.09145 0.39917 0.75529 0.0
C843 C 0.04235 0.39656 0.78105 0.0
C844 C 0.04547 0.37449 0.83973 0.0
H845 H 0.06162 0.42458 0.69116 0.0
H846 H 0.02222 0.40362 0.76352 0.0
S847 S 0.111 0.34564 0.91567 0.0
N848 N 0.11984 0.36937 0.84387 0.0
N849 N 0.07738 0.34591 0.91901 0.0
C850 C 0.07199 0.36603 0.8601 0.0
C851 C 0.09497 0.3786 0.81886 0.0
C852 C 0.41235 0.58284 0.07287 0.0
C853 C 0.40514 0.58729 0.98426 0.0
C854 C 0.40293 0.55977 0.11887 0.0
C855 C 0.38559 0.54062 0.07826 0.0
H856 H 0.42496 0.59753 0.10725 0.0
H857 H 0.40898 0.55714 0.18703 0.0
S858 S 0.36238 0.54248 0.84466 0.0
N859 N 0.38127 0.57012 0.8559 0.0
N860 N 0.36264 0.52741 0.94197 0.0
C861 C 0.37858 0.54484 0.98894 0.0
C862 C 0.38861 0.56799 0.94208 0.0
C863 C 0.58291 0.61126 0.93886 0.0
C864 C 0.58539 0.61848 0.02823 0.0
C865 C 0.56112 0.62075 0.88732 0.0
C866 C 0.54108 0.63796 0.92317 0.0
H867 H 0.59832 0.59875 0.90803 0.0
H868 H 0.56019 0.61478 0.81865 0.0
S869 S 0.53818 0.66162 0.15628 0.0
N870 N 0.56585 0.64274 0.15166 0.0
N871 N 0.52508 0.66098 0.05604 0.0
C872 C 0.54327 0.64488 0.01345 0.0
C873 C 0.56536 0.63503 0.0656 0.0
C874 C 0.62947 0.47975 0.03425 0.0
C875 C 0.65422 0.47714 0.08067 0.0
C876 C 0.61657 0.45705 -0.0044 0.0
C877 C 0.62778 0.43087 0.00274 0.0
H878 H 0.62067 0.49962 0.02376 0.0
H879 H 0.59837 0.46022 0.95665 0.0
S880 S 0.68922 0.41229 0.1316 0.0
N881 N 0.68766 0.44576 0.13971 0.0
N882 N 0.66271 0.40311 0.07144 0.0
C883 C 0.65134 0.42772 0.05459 0.0
C884 C 0.66474 0.45084 0.09236 0.0
C885 C 0.44118 0.38848 0.95284 0.0
C886 C 0.43963 0.41174 0.00703 0.0
C887 C 0.4655 0.38127 0.91007 0.0
C888 C 0.48894 0.39765 0.91649 0.0
H889 H 0.42351 0.37564 0.94305 0.0
H890 H 0.46592 0.36275 0.87139 0.0
S891 S 0.49565 0.46103 0.04793 0.0
N892 N 0.46409 0.45076 0.06593 0.0
N893 N 0.50882 0.43872 0.9789 0.0
C894 C 0.48737 0.42156 0.96736 0.0
C895 C 0.46298 0.42826 0.01402 0.0
C896 C 0.91595 0.44875 0.70286 0.0
C897 C 0.90324 0.44089 0.7821 0.0
C898 C 0.90767 0.47217 0.65679 0.0
C899 C 0.88623 0.48857 0.68789 0.0
H900 H 0.93201 0.43635 0.67523 0.0
H901 H 0.91801 0.47725 0.59584 0.0
S902 S 0.84728 0.47709 0.8954 0.0
N903 N 0.86906 0.45163 0.89175 0.0
N904 N 0.85313 0.49535 0.80587 0.0
C905 C 0.87366 0.48098 0.76817 0.0
C906 C 0.88226 0.45727 0.81503 0.0
C907 C 0.462 0.14445 0.3458 0.0
C908 C 0.48572 0.12905 0.33266 0.0
C909 C 0.43694 0.13647 0.30842 0.0
C910 C 0.43481 0.11344 0.25318 0.0
H911 H 0.46278 0.16267 0.38589 0.0
H912 H 0.41912 0.14853 0.32302 0.0
S913 S 0.49152 0.0674 0.19275 0.0
N914 N 0.50541 0.08958 0.26108 0.0
N915 N 0.4593 0.07637 0.18365 0.0
C916 C 0.45855 0.09821 0.23847 0.0
C917 C 0.48372 0.1056 0.27975 0.0
C918 C 0.1149 0.55282 0.6491 0.0
C919 C 0.13601 0.53621 0.68143 0.0
C920 C 0.10629 0.57605 0.69544 0.0
C921 C 0.11829 0.58343 0.77624 0.0
H922 H 0.10513 0.54806 0.58692 0.0
H923 H 0.09058 0.58869 0.66684 0.0
S924 S 0.17277 0.54621 0.8937 0.0
N925 N 0.16779 0.52853 0.80253 0.0
N926 N 0.15119 0.57183 0.88905 0.0
C927 C 0.1388 0.56674 0.81058 0.0
C928 C 0.14779 0.54327 0.76336 0.0
C929 C 0.58548 0.91138 0.32111 0.0
C930 C 0.59458 0.89836 0.24406 0.0
C931 C 0.56213 0.90221 0.36618 0.0
C932 C 0.54688 0.87975 0.33559 0.0
H933 H 0.59671 0.92855 0.34749 0.0
H934 H 0.55587 0.91304 0.4249 0.0
S935 S 0.5625 0.83875 0.13581 0.0
N936 N 0.58674 0.86213 0.13859 0.0
N937 N 0.54308 0.84465 0.22254 0.0
C938 C 0.55594 0.86658 0.25825 0.0
C939 C 0.57971 0.87594 0.21273 0.0
C940 C 0.9086 0.07202 0.49874 0.0
C941 C 0.89972 0.09821 0.52197 0.0
C942 C 0.89613 0.0486 0.53458 0.0
C943 C 0.87417 0.05057 0.59427 0.0
H944 H 0.9244 0.06959 0.44957 0.0
H945 H 0.90281 0.02887 0.51168 0.0
S946 S 0.8466 0.11449 0.68763 0.0
N947 N 0.87043 0.12469 0.61804 0.0
N948 N 0.84631 0.08092 0.6822 0.0
C949 C 0.86628 0.07666 0.62179 0.0
C950 C 0.87925 0.1004 0.58656 0.0
C951 C 0.07725 0.10694 0.4506 0.0
C952 C 0.08672 0.12039 0.52657 0.0
C953 C 0.05382 0.11586 0.4058 0.0
C954 C 0.039 0.13867 0.435 0.0
H955 H 0.0884 0.08981 0.42429 0.0
H956 H 0.04745 0.10489 0.34736 0.0
S957 S 0.055 0.17996 0.63426 0.0
N958 N 0.07915 0.15673 0.63142 0.0
N959 N 0.03544 0.17383 0.54791 0.0
C960 C 0.0482 0.15197 0.51214 0.0
C961 C 0.07192 0.14274 0.5577 0.0
C962 C 0.14487 0.9256 0.5776 0.0
C963 C 0.12436 0.92756 0.51293 0.0
C964 C 0.15755 0.9489 0.61262 0.0
C965 C 0.14984 0.97515 0.5858 0.0
H966 H 0.15175 0.90582 0.59963 0.0
H967 H 0.17387 0.9463 0.6599 0.0
S968 S 0.0969 0.99141 0.41914 0.0
N969 N 0.09675 0.95784 0.42418 0.0
N970 N 0.12004 1.00161 0.49103 0.0
C971 C 0.12859 0.9774 0.52371 0.0
C972 C 0.11593 0.95363 0.48723 0.0
C973 C 0.97009 0.90985 0.39004 0.0
C974 C 0.98501 0.88734 0.42127 0.0
C975 C 0.94652 0.91892 0.43376 0.0
C976 C 0.93701 0.90593 0.5106 0.0
H977 H 0.9765 0.92045 0.33087 0.0
H978 H 0.93529 0.93582 0.40609 0.0
S979 S 0.96897 0.84734 0.62353 0.0
N980 N 0.98862 0.85301 0.53704 0.0
N981 N 0.94466 0.87038 0.61843 0.0
C982 C 0.95192 0.88391 0.54374 0.0
C983 C 0.97578 0.87452 0.49931 0.0
loop_
_geom_bond_atom_site_label_1
_geom_bond_atom_site_label_2
_geom_bond_distance
_geom_bond_site_symmetry_2
_ccdc_geom_bond_type
Co0 O3 1.970 . S
Co0 N17 1.989 . S
Co0 O25 1.967 . S
Co0 O32 1.920 . S
Co1 O4 1.966 . S
Co1 N10 2.022 . S
Co1 N18 1.993 . S
Co1 O26 1.941 . S
C2 O3 1.258 . S
C2 O4 1.263 . S
O3 Co0 1.970 . S
O3 C2 1.258 . S
O4 Co1 1.966 . S
O4 C2 1.263 . S
C5 O6 1.235 . S
C5 O32 1.289 . S
O6 C5 1.235 . S
C7 C9 1.400 . S
C7 N10 1.351 . S
C7 C12 1.501 1_554 S
C8 C9 1.387 . S
C8 N11 1.341 . S
C9 C7 1.400 . S
C9 C8 1.387 . S
N10 Co1 2.022 . S
N10 C7 1.351 . S
N10 N11 1.365 . S
N11 C8 1.341 . S
N11 N10 1.365 . S
N11 H31 0.862 . S
C12 C7 1.501 1_556 S
C12 H13 0.961 . S
C12 H14 0.961 . S
C12 H15 0.960 . S
H13 C12 0.961 . S
H14 C12 0.961 . S
H15 C12 0.960 . S
C16 N17 1.342 . S
C16 C20 1.401 . S
C16 C21 1.499 . S
N17 Co0 1.989 . S
N17 C16 1.342 . S
N17 N18 1.388 . S
N18 Co1 1.993 . S
N18 N17 1.388 . S
N18 C19 1.346 . S
C19 N18 1.346 . S
C19 C20 1.396 . S
C19 C29 1.510 . S
C20 C16 1.401 . S
C20 C19 1.396 . S
C21 C16 1.499 . S
C21 H22 0.959 . S
C21 H23 0.960 . S
C21 H24 0.961 . S
H22 C21 0.959 . S
H23 C21 0.960 . S
H24 C21 0.961 . S
O25 Co0 1.967 . S
O25 C33 1.258 . S
O26 Co1 1.941 . S
O26 C33 1.266 . S
H27 C29 0.959 . S
H28 C29 0.961 . S
C29 C19 1.510 . S
C29 H27 0.959 . S
C29 H28 0.961 . S
C29 H30 0.960 . S
H30 C29 0.960 . S
H31 N11 0.862 . S
O32 Co0 1.920 . S
O32 C5 1.289 . S
C33 O25 1.258 . S
C33 O26 1.266 . S
Co34 O37 1.970 . S
Co34 N51 1.989 . S
Co34 O59 1.967 . S
Co34 O66 1.920 . S
Co35 O38 1.966 . S
Co35 N44 2.022 . S
Co35 N52 1.993 . S
Co35 O60 1.941 . S
C36 O37 1.258 . S
C36 O38 1.263 . S
O37 Co34 1.970 . S
O37 C36 1.258 . S
O38 Co35 1.966 . S
O38 C36 1.263 . S
C39 O40 1.235 . S
C39 O66 1.289 . S
O40 C39 1.235 . S
C41 C43 1.400 . S
C41 N44 1.351 . S
C41 C46 1.501 1_556 S
C42 C43 1.387 . S
C42 N45 1.341 . S
C43 C41 1.400 . S
C43 C42 1.387 . S
N44 Co35 2.022 . S
N44 C41 1.351 . S
N44 N45 1.365 . S
N45 C42 1.341 . S
N45 N44 1.365 . S
N45 H65 0.862 . S
C46 C41 1.501 1_554 S
C46 H47 0.961 . S
C46 H48 0.961 . S
C46 H49 0.960 . S
H47 C46 0.961 . S
H48 C46 0.961 . S
H49 C46 0.960 . S
C50 N51 1.342 . S
C50 C54 1.401 . S
C50 C55 1.499 . S
N51 Co34 1.989 . S
N51 C50 1.342 . S
N51 N52 1.388 . S
N52 Co35 1.993 . S
N52 N51 1.388 . S
N52 C53 1.346 . S
C53 N52 1.346 . S
C53 C54 1.396 . S
C53 C63 1.510 . S
C54 C50 1.401 . S
C54 C53 1.396 . S
C55 C50 1.499 . S
C55 H56 0.959 . S
C55 H57 0.960 . S
C55 H58 0.961 . S
H56 C55 0.959 . S
H57 C55 0.960 . S
H58 C55 0.961 . S
O59 Co34 1.967 . S
O59 C67 1.258 . S
O60 Co35 1.941 . S
O60 C67 1.266 . S
H61 C63 0.959 . S
H62 C63 0.961 . S
C63 C53 1.510 . S
C63 H61 0.959 . S
C63 H62 0.961 . S
C63 H64 0.960 . S
H64 C63 0.960 . S
H65 N45 0.862 . S
O66 Co34 1.920 . S
O66 C39 1.289 . S
C67 O59 1.258 . S
C67 O60 1.266 . S
Co68 O71 1.970 . S
Co68 N85 1.989 . S
Co68 O93 1.967 . S
Co68 O100 1.920 . S
Co69 O72 1.966 . S
Co69 N78 2.022 . S
Co69 N86 1.993 . S
Co69 O94 1.941 . S
C70 O71 1.258 . S
C70 O72 1.263 . S
O71 Co68 1.970 . S
O71 C70 1.258 . S
O72 Co69 1.966 . S
O72 C70 1.263 . S
C73 O74 1.235 . S
C73 O100 1.289 . S
O74 C73 1.235 . S
C75 C77 1.400 . S
C75 N78 1.351 . S
C75 C80 1.501 1_554 S
C76 C77 1.387 . S
C76 N79 1.341 . S
C77 C75 1.400 . S
C77 C76 1.387 . S
N78 Co69 2.022 . S
N78 C75 1.351 . S
N78 N79 1.365 . S
N79 C76 1.341 . S
N79 N78 1.365 . S
N79 H99 0.862 . S
C80 C75 1.501 1_556 S
C80 H81 0.961 . S
C80 H82 0.961 . S
C80 H83 0.960 . S
H81 C80 0.961 . S
H82 C80 0.961 . S
H83 C80 0.960 . S
C84 N85 1.342 . S
C84 C88 1.401 . S
C84 C89 1.499 . S
N85 Co68 1.989 . S
N85 C84 1.342 . S
N85 N86 1.388 . S
N86 Co69 1.993 . S
N86 N85 1.388 . S
N86 C87 1.346 . S
C87 N86 1.346 . S
C87 C88 1.396 . S
C87 C97 1.510 . S
C88 C84 1.401 . S
C88 C87 1.396 . S
C89 C84 1.499 . S
C89 H90 0.959 . S
C89 H91 0.960 . S
C89 H92 0.961 . S
H90 C89 0.959 . S
H91 C89 0.960 . S
H92 C89 0.961 . S
O93 Co68 1.967 . S
O93 C101 1.258 . S
O94 Co69 1.941 . S
O94 C101 1.266 . S
H95 C97 0.959 . S
H96 C97 0.961 . S
C97 C87 1.510 . S
C97 H95 0.959 . S
C97 H96 0.961 . S
C97 H98 0.960 . S
H98 C97 0.960 . S
H99 N79 0.862 . S
O100 Co68 1.920 . S
O100 C73 1.289 . S
C101 O93 1.258 . S
C101 O94 1.266 . S
Co102 O105 1.970 . S
Co102 N119 1.989 . S
Co102 O127 1.967 . S
Co102 O134 1.920 . S
Co103 O106 1.966 . S
Co103 N112 2.022 . S
Co103 N120 1.993 . S
Co103 O128 1.941 . S
C104 O105 1.258 . S
C104 O106 1.263 . S
O105 Co102 1.970 . S
O105 C104 1.258 . S
O106 Co103 1.966 . S
O106 C104 1.263 . S
C107 O108 1.235 . S
C107 O134 1.289 . S
O108 C107 1.235 . S
C109 C111 1.400 . S
C109 N112 1.351 . S
C109 C114 1.501 1_556 S
C110 C111 1.387 . S
C110 N113 1.341 . S
C111 C109 1.400 . S
C111 C110 1.387 . S
N112 Co103 2.022 . S
N112 C109 1.351 . S
N112 N113 1.365 . S
N113 C110 1.341 . S
N113 N112 1.365 . S
N113 H133 0.862 . S
C114 C109 1.501 1_554 S
C114 H115 0.961 . S
C114 H116 0.961 . S
C114 H117 0.960 . S
H115 C114 0.961 . S
H116 C114 0.961 . S
H117 C114 0.960 . S
C118 N119 1.342 . S
C118 C122 1.401 . S
C118 C123 1.499 . S
N119 Co102 1.989 . S
N119 C118 1.342 . S
N119 N120 1.388 . S
N120 Co103 1.993 . S
N120 N119 1.388 . S
N120 C121 1.346 . S
C121 N120 1.346 . S
C121 C122 1.396 . S
C121 C131 1.510 . S
C122 C118 1.401 . S
C122 C121 1.396 . S
C123 C118 1.499 . S
C123 H124 0.959 . S
C123 H125 0.960 . S
C123 H126 0.961 . S
H124 C123 0.959 . S
H125 C123 0.960 . S
H126 C123 0.961 . S
O127 Co102 1.967 . S
O127 C135 1.258 . S
O128 Co103 1.941 . S
O128 C135 1.266 . S
H129 C131 0.959 . S
H130 C131 0.961 . S
C131 C121 1.510 . S
C131 H129 0.959 . S
C131 H130 0.961 . S
C131 H132 0.960 . S
H132 C131 0.960 . S
H133 N113 0.862 . S
O134 Co102 1.920 . S
O134 C107 1.289 . S
C135 O127 1.258 . S
C135 O128 1.266 . S
Co136 O139 1.970 . S
Co136 N153 1.989 . S
Co136 O161 1.967 . S
Co136 O168 1.920 . S
Co137 O140 1.966 . S
Co137 N146 2.022 . S
Co137 N154 1.993 . S
Co137 O162 1.941 1_554 S
C138 O139 1.258 . S
C138 O140 1.263 . S
O139 Co136 1.970 . S
O139 C138 1.258 . S
O140 Co137 1.966 . S
O140 C138 1.263 . S
C141 O142 1.235 . S
C141 O168 1.289 . S
O142 C141 1.235 . S
C143 C145 1.400 . S
C143 N146 1.351 . S
C143 C148 1.501 . S
C144 C145 1.387 . S
C144 N147 1.341 . S
C145 C143 1.400 . S
C145 C144 1.387 . S
N146 Co137 2.022 . S
N146 C143 1.351 . S
N146 N147 1.365 . S
N147 C144 1.341 . S
N147 N146 1.365 . S
N147 H167 0.862 1_554 S
C148 C143 1.501 . S
C148 H149 0.961 . S
C148 H150 0.961 . S
C148 H151 0.960 . S
H149 C148 0.961 . S
H150 C148 0.961 . S
H151 C148 0.960 . S
C152 N153 1.342 . S
C152 C156 1.401 . S
C152 C157 1.499 . S
N153 Co136 1.989 . S
N153 C152 1.342 . S
N153 N154 1.388 . S
N154 Co137 1.993 . S
N154 N153 1.388 . S
N154 C155 1.346 . S
C155 N154 1.346 . S
C155 C156 1.396 . S
C155 C165 1.510 . S
C156 C152 1.401 . S
C156 C155 1.396 . S
C157 C152 1.499 . S
C157 H158 0.959 . S
C157 H159 0.960 . S
C157 H160 0.961 1_554 S
H158 C157 0.959 . S
H159 C157 0.960 . S
H160 C157 0.961 1_556 S
O161 Co136 1.967 . S
O161 C169 1.258 1_554 S
O162 Co137 1.941 1_556 S
O162 C169 1.266 . S
H163 C165 0.959 . S
H164 C165 0.961 . S
C165 C155 1.510 . S
C165 H163 0.959 . S
C165 H164 0.961 . S
C165 H166 0.960 . S
H166 C165 0.960 . S
H167 N147 0.862 1_556 S
O168 Co136 1.920 . S
O168 C141 1.289 . S
C169 O161 1.258 1_556 S
C169 O162 1.266 . S
Co170 O173 1.970 . S
Co170 N187 1.989 . S
Co170 O195 1.967 . S
Co170 O202 1.920 . S
Co171 O174 1.966 . S
Co171 N180 2.022 . S
Co171 N188 1.993 . S
Co171 O196 1.941 1_556 S
C172 O173 1.258 . S
C172 O174 1.263 . S
O173 Co170 1.970 . S
O173 C172 1.258 . S
O174 Co171 1.966 . S
O174 C172 1.263 . S
C175 O176 1.235 . S
C175 O202 1.289 . S
O176 C175 1.235 . S
C177 C179 1.400 . S
C177 N180 1.351 . S
C177 C182 1.501 . S
C178 C179 1.387 . S
C178 N181 1.341 . S
C179 C177 1.400 . S
C179 C178 1.387 . S
N180 Co171 2.022 . S
N180 C177 1.351 . S
N180 N181 1.365 . S
N181 C178 1.341 . S
N181 N180 1.365 . S
N181 H201 0.862 1_556 S
C182 C177 1.501 . S
C182 H183 0.961 . S
C182 H184 0.961 . S
C182 H185 0.960 . S
H183 C182 0.961 . S
H184 C182 0.961 . S
H185 C182 0.960 . S
C186 N187 1.342 . S
C186 C190 1.401 . S
C186 C191 1.499 . S
N187 Co170 1.989 . S
N187 C186 1.342 . S
N187 N188 1.388 . S
N188 Co171 1.993 . S
N188 N187 1.388 . S
N188 C189 1.346 . S
C189 N188 1.346 . S
C189 C190 1.396 . S
C189 C199 1.510 . S
C190 C186 1.401 . S
C190 C189 1.396 . S
C191 C186 1.499 . S
C191 H192 0.959 . S
C191 H193 0.960 . S
C191 H194 0.961 1_556 S
H192 C191 0.959 . S
H193 C191 0.960 . S
H194 C191 0.961 1_554 S
O195 Co170 1.967 . S
O195 C203 1.258 1_556 S
O196 Co171 1.941 1_554 S
O196 C203 1.266 . S
H197 C199 0.959 . S
H198 C199 0.961 . S
C199 C189 1.510 . S
C199 H197 0.959 . S
C199 H198 0.961 . S
C199 H200 0.960 . S
H200 C199 0.960 . S
H201 N181 0.862 1_554 S
O202 Co170 1.920 . S
O202 C175 1.289 . S
C203 O195 1.258 1_554 S
C203 O196 1.266 . S
Co204 O207 1.970 . S
Co204 N221 1.989 . S
Co204 O229 1.967 . S
Co204 O236 1.920 . S
Co205 O208 1.966 . S
Co205 N214 2.022 . S
Co205 N222 1.993 . S
Co205 O230 1.941 1_554 S
C206 O207 1.258 . S
C206 O208 1.263 . S
O207 Co204 1.970 . S
O207 C206 1.258 . S
O208 Co205 1.966 . S
O208 C206 1.263 . S
C209 O210 1.235 . S
C209 O236 1.289 . S
O210 C209 1.235 . S
C211 C213 1.400 . S
C211 N214 1.351 . S
C211 C216 1.501 . S
C212 C213 1.387 . S
C212 N215 1.341 . S
C213 C211 1.400 . S
C213 C212 1.387 . S
N214 Co205 2.022 . S
N214 C211 1.351 . S
N214 N215 1.365 . S
N215 C212 1.341 . S
N215 N214 1.365 . S
N215 H235 0.862 1_554 S
C216 C211 1.501 . S
C216 H217 0.961 . S
C216 H218 0.961 . S
C216 H219 0.960 . S
H217 C216 0.961 . S
H218 C216 0.961 . S
H219 C216 0.960 . S
C220 N221 1.342 . S
C220 C224 1.401 . S
C220 C225 1.499 . S
N221 Co204 1.989 . S
N221 C220 1.342 . S
N221 N222 1.388 . S
N222 Co205 1.993 . S
N222 N221 1.388 . S
N222 C223 1.346 . S
C223 N222 1.346 . S
C223 C224 1.396 . S
C223 C233 1.510 . S
C224 C220 1.401 . S
C224 C223 1.396 . S
C225 C220 1.499 . S
C225 H226 0.959 . S
C225 H227 0.960 . S
C225 H228 0.961 1_554 S
H226 C225 0.959 . S
H227 C225 0.960 . S
H228 C225 0.961 1_556 S
O229 Co204 1.967 . S
O229 C237 1.258 1_554 S
O230 Co205 1.941 1_556 S
O230 C237 1.266 . S
H231 C233 0.959 . S
H232 C233 0.961 . S
C233 C223 1.510 . S
C233 H231 0.959 . S
C233 H232 0.961 . S
C233 H234 0.960 . S
H234 C233 0.960 . S
H235 N215 0.862 1_556 S
O236 Co204 1.920 . S
O236 C209 1.289 . S
C237 O229 1.258 1_556 S
C237 O230 1.266 . S
Co238 O241 1.970 . S
Co238 N255 1.989 . S
Co238 O263 1.967 . S
Co238 O270 1.920 . S
Co239 O242 1.966 . S
Co239 N248 2.022 . S
Co239 N256 1.993 . S
Co239 O264 1.941 1_556 S
C240 O241 1.258 . S
C240 O242 1.263 . S
O241 Co238 1.970 . S
O241 C240 1.258 . S
O242 Co239 1.966 . S
O242 C240 1.263 . S
C243 O244 1.235 . S
C243 O270 1.289 . S
O244 C243 1.235 . S
C245 C247 1.400 . S
C245 N248 1.351 . S
C245 C250 1.501 . S
C246 C247 1.387 . S
C246 N249 1.341 . S
C247 C245 1.400 . S
C247 C246 1.387 . S
N248 Co239 2.022 . S
N248 C245 1.351 . S
N248 N249 1.365 . S
N249 C246 1.341 . S
N249 N248 1.365 . S
N249 H269 0.862 1_556 S
C250 C245 1.501 . S
C250 H251 0.961 . S
C250 H252 0.961 . S
C250 H253 0.960 . S
H251 C250 0.961 . S
H252 C250 0.961 . S
H253 C250 0.960 . S
C254 N255 1.342 . S
C254 C258 1.401 . S
C254 C259 1.499 . S
N255 Co238 1.989 . S
N255 C254 1.342 . S
N255 N256 1.388 . S
N256 Co239 1.993 . S
N256 N255 1.388 . S
N256 C257 1.346 . S
C257 N256 1.346 . S
C257 C258 1.396 . S
C257 C267 1.510 . S
C258 C254 1.401 . S
C258 C257 1.396 . S
C259 C254 1.499 . S
C259 H260 0.959 . S
C259 H261 0.960 . S
C259 H262 0.961 1_556 S
H260 C259 0.959 . S
H261 C259 0.960 . S
H262 C259 0.961 1_554 S
O263 Co238 1.967 . S
O263 C271 1.258 1_556 S
O264 Co239 1.941 1_554 S
O264 C271 1.266 . S
H265 C267 0.959 . S
H266 C267 0.961 . S
C267 C257 1.510 . S
C267 H265 0.959 . S
C267 H266 0.961 . S
C267 H268 0.960 . S
H268 C267 0.960 . S
H269 N249 0.862 1_554 S
O270 Co238 1.920 . S
O270 C243 1.289 . S
C271 O263 1.258 1_554 S
C271 O264 1.266 . S
Co272 O275 1.970 . S
Co272 N289 1.989 . S
Co272 O297 1.967 . S
Co272 O304 1.920 . S
Co273 O276 1.966 . S
Co273 N282 2.022 . S
Co273 N290 1.993 . S
Co273 O298 1.941 . S
C274 O275 1.258 . S
C274 O276 1.263 . S
O275 Co272 1.970 . S
O275 C274 1.258 . S
O276 Co273 1.966 . S
O276 C274 1.263 . S
C277 O278 1.235 . S
C277 O304 1.289 . S
O278 C277 1.235 . S
C279 C281 1.400 . S
C279 N282 1.351 . S
C279 C284 1.501 . S
C280 C281 1.387 . S
C280 N283 1.341 . S
C281 C279 1.400 . S
C281 C280 1.387 . S
N282 Co273 2.022 . S
N282 C279 1.351 . S
N282 N283 1.365 . S
N283 C280 1.341 . S
N283 N282 1.365 . S
N283 H303 0.862 . S
C284 C279 1.501 . S
C284 H285 0.961 . S
C284 H286 0.961 . S
C284 H287 0.960 . S
H285 C284 0.961 . S
H286 C284 0.961 . S
H287 C284 0.960 . S
C288 N289 1.342 . S
C288 C292 1.401 . S
C288 C293 1.499 . S
N289 Co272 1.989 . S
N289 C288 1.342 . S
N289 N290 1.388 . S
N290 Co273 1.993 . S
N290 N289 1.388 . S
N290 C291 1.346 . S
C291 N290 1.346 . S
C291 C292 1.396 . S
C291 C301 1.510 . S
C292 C288 1.401 . S
C292 C291 1.396 . S
C293 C288 1.499 . S
C293 H294 0.959 . S
C293 H295 0.960 . S
C293 H296 0.961 . S
H294 C293 0.959 . S
H295 C293 0.960 . S
H296 C293 0.961 . S
O297 Co272 1.967 . S
O297 C305 1.258 . S
O298 Co273 1.941 . S
O298 C305 1.266 . S
H299 C301 0.959 . S
H300 C301 0.961 . S
C301 C291 1.510 . S
C301 H299 0.959 . S
C301 H300 0.961 . S
C301 H302 0.960 . S
H302 C301 0.960 . S
H303 N283 0.862 . S
O304 Co272 1.920 . S
O304 C277 1.289 . S
C305 O297 1.258 . S
C305 O298 1.266 . S
Co306 O309 1.970 . S
Co306 N323 1.989 . S
Co306 O331 1.967 . S
Co306 O338 1.920 . S
Co307 O310 1.966 . S
Co307 N316 2.022 . S
Co307 N324 1.993 . S
Co307 O332 1.941 . S
C308 O309 1.258 . S
C308 O310 1.263 . S
O309 Co306 1.970 . S
O309 C308 1.258 . S
O310 Co307 1.966 . S
O310 C308 1.263 . S
C311 O312 1.235 . S
C311 O338 1.289 . S
O312 C311 1.235 . S
C313 C315 1.400 . S
C313 N316 1.351 . S
C313 C318 1.501 . S
C314 C315 1.387 . S
C314 N317 1.341 . S
C315 C313 1.400 . S
C315 C314 1.387 . S
N316 Co307 2.022 . S
N316 C313 1.351 . S
N316 N317 1.365 . S
N317 C314 1.341 . S
N317 N316 1.365 . S
N317 H337 0.862 . S
C318 C313 1.501 . S
C318 H319 0.961 . S
C318 H320 0.961 . S
C318 H321 0.960 . S
H319 C318 0.961 . S
H320 C318 0.961 . S
H321 C318 0.960 . S
C322 N323 1.342 . S
C322 C326 1.401 . S
C322 C327 1.499 . S
N323 Co306 1.989 . S
N323 C322 1.342 . S
N323 N324 1.388 . S
N324 Co307 1.993 . S
N324 N323 1.388 . S
N324 C325 1.346 . S
C325 N324 1.346 . S
C325 C326 1.396 . S
C325 C335 1.510 . S
C326 C322 1.401 . S
C326 C325 1.396 . S
C327 C322 1.499 . S
C327 H328 0.959 . S
C327 H329 0.960 . S
C327 H330 0.961 . S
H328 C327 0.959 . S
H329 C327 0.960 . S
H330 C327 0.961 . S
O331 Co306 1.967 . S
O331 C339 1.258 . S
O332 Co307 1.941 . S
O332 C339 1.266 . S
H333 C335 0.959 . S
H334 C335 0.961 . S
C335 C325 1.510 . S
C335 H333 0.959 . S
C335 H334 0.961 . S
C335 H336 0.960 . S
H336 C335 0.960 . S
H337 N317 0.862 . S
O338 Co306 1.920 . S
O338 C311 1.289 . S
C339 O331 1.258 . S
C339 O332 1.266 . S
Co340 O343 1.970 . S
Co340 N357 1.989 . S
Co340 O365 1.967 . S
Co340 O372 1.920 . S
Co341 O344 1.966 . S
Co341 N350 2.022 . S
Co341 N358 1.993 . S
Co341 O366 1.941 . S
C342 O343 1.258 . S
C342 O344 1.263 . S
O343 Co340 1.970 . S
O343 C342 1.258 . S
O344 Co341 1.966 . S
O344 C342 1.263 . S
C345 O346 1.235 . S
C345 O372 1.289 . S
O346 C345 1.235 . S
C347 C349 1.400 . S
C347 N350 1.351 . S
C347 C352 1.501 . S
C348 C349 1.387 . S
C348 N351 1.341 . S
C349 C347 1.400 . S
C349 C348 1.387 . S
N350 Co341 2.022 . S
N350 C347 1.351 . S
N350 N351 1.365 . S
N351 C348 1.341 . S
N351 N350 1.365 . S
N351 H371 0.862 . S
C352 C347 1.501 . S
C352 H353 0.961 . S
C352 H354 0.961 . S
C352 H355 0.960 . S
H353 C352 0.961 . S
H354 C352 0.961 . S
H355 C352 0.960 . S
C356 N357 1.342 . S
C356 C360 1.401 . S
C356 C361 1.499 . S
N357 Co340 1.989 . S
N357 C356 1.342 . S
N357 N358 1.388 . S
N358 Co341 1.993 . S
N358 N357 1.388 . S
N358 C359 1.346 . S
C359 N358 1.346 . S
C359 C360 1.396 . S
C359 C369 1.510 . S
C360 C356 1.401 . S
C360 C359 1.396 . S
C361 C356 1.499 . S
C361 H362 0.959 . S
C361 H363 0.960 . S
C361 H364 0.961 . S
H362 C361 0.959 . S
H363 C361 0.960 . S
H364 C361 0.961 . S
O365 Co340 1.967 . S
O365 C373 1.258 . S
O366 Co341 1.941 . S
O366 C373 1.266 . S
H367 C369 0.959 . S
H368 C369 0.961 . S
C369 C359 1.510 . S
C369 H367 0.959 . S
C369 H368 0.961 . S
C369 H370 0.960 . S
H370 C369 0.960 . S
H371 N351 0.862 . S
O372 Co340 1.920 . S
O372 C345 1.289 . S
C373 O365 1.258 . S
C373 O366 1.266 . S
Co374 O377 1.970 . S
Co374 N391 1.989 . S
Co374 O399 1.967 . S
Co374 O406 1.920 . S
Co375 O378 1.966 . S
Co375 N384 2.022 . S
Co375 N392 1.993 . S
Co375 O400 1.941 . S
C376 O377 1.258 . S
C376 O378 1.263 . S
O377 Co374 1.970 . S
O377 C376 1.258 . S
O378 Co375 1.966 . S
O378 C376 1.263 . S
C379 O380 1.235 . S
C379 O406 1.289 . S
O380 C379 1.235 . S
C381 C383 1.400 . S
C381 N384 1.351 . S
C381 C386 1.501 . S
C382 C383 1.387 . S
C382 N385 1.341 . S
C383 C381 1.400 . S
C383 C382 1.387 . S
N384 Co375 2.022 . S
N384 C381 1.351 . S
N384 N385 1.365 . S
N385 C382 1.341 . S
N385 N384 1.365 . S
N385 H405 0.862 . S
C386 C381 1.501 . S
C386 H387 0.961 . S
C386 H388 0.961 . S
C386 H389 0.960 . S
H387 C386 0.961 . S
H388 C386 0.961 . S
H389 C386 0.960 . S
C390 N391 1.342 . S
C390 C394 1.401 . S
C390 C395 1.499 . S
N391 Co374 1.989 . S
N391 C390 1.342 . S
N391 N392 1.388 . S
N392 Co375 1.993 . S
N392 N391 1.388 . S
N392 C393 1.346 . S
C393 N392 1.346 . S
C393 C394 1.396 . S
C393 C403 1.510 . S
C394 C390 1.401 . S
C394 C393 1.396 . S
C395 C390 1.499 . S
C395 H396 0.959 . S
C395 H397 0.960 . S
C395 H398 0.961 . S
H396 C395 0.959 . S
H397 C395 0.960 . S
H398 C395 0.961 . S
O399 Co374 1.967 . S
O399 C407 1.258 . S
O400 Co375 1.941 . S
O400 C407 1.266 . S
H401 C403 0.959 . S
H402 C403 0.961 . S
C403 C393 1.510 . S
C403 H401 0.959 . S
C403 H402 0.961 . S
C403 H404 0.960 . S
H404 C403 0.960 . S
H405 N385 0.862 . S
O406 Co374 1.920 . S
O406 C379 1.289 . S
C407 O399 1.258 . S
C407 O400 1.266 . S
Co408 O411 1.970 . S
Co408 N425 1.989 . S
Co408 O433 1.967 . S
Co408 O440 1.920 . S
Co409 O412 1.966 . S
Co409 N418 2.022 . S
Co409 N426 1.993 . S
Co409 O434 1.941 . S
C410 O411 1.258 . S
C410 O412 1.263 . S
O411 Co408 1.970 . S
O411 C410 1.258 . S
O412 Co409 1.966 . S
O412 C410 1.263 . S
C413 O414 1.235 . S
C413 O440 1.289 . S
O414 C413 1.235 . S
C415 C417 1.400 . S
C415 N418 1.351 . S
C415 C420 1.501 . S
C416 C417 1.387 . S
C416 N419 1.341 . S
C417 C415 1.400 . S
C417 C416 1.387 . S
N418 Co409 2.022 . S
N418 C415 1.351 . S
N418 N419 1.365 . S
N419 C416 1.341 . S
N419 N418 1.365 . S
N419 H439 0.862 . S
C420 C415 1.501 . S
C420 H421 0.961 . S
C420 H422 0.961 . S
C420 H423 0.960 . S
H421 C420 0.961 . S
H422 C420 0.961 . S
H423 C420 0.960 . S
C424 N425 1.342 . S
C424 C428 1.401 . S
C424 C429 1.499 . S
N425 Co408 1.989 . S
N425 C424 1.342 . S
N425 N426 1.388 . S
N426 Co409 1.993 . S
N426 N425 1.388 . S
N426 C427 1.346 . S
C427 N426 1.346 . S
C427 C428 1.396 . S
C427 C437 1.510 . S
C428 C424 1.401 . S
C428 C427 1.396 . S
C429 C424 1.499 . S
C429 H430 0.959 . S
C429 H431 0.960 . S
C429 H432 0.961 . S
H430 C429 0.959 . S
H431 C429 0.960 . S
H432 C429 0.961 . S
O433 Co408 1.967 . S
O433 C441 1.258 . S
O434 Co409 1.941 . S
O434 C441 1.266 . S
H435 C437 0.959 . S
H436 C437 0.961 . S
C437 C427 1.510 . S
C437 H435 0.959 . S
C437 H436 0.961 . S
C437 H438 0.960 . S
H438 C437 0.960 . S
H439 N419 0.862 . S
O440 Co408 1.920 . S
O440 C413 1.289 . S
C441 O433 1.258 . S
C441 O434 1.266 . S
Co442 O445 1.970 . S
Co442 N459 1.989 . S
Co442 O467 1.967 . S
Co442 O474 1.920 . S
Co443 O446 1.966 . S
Co443 N452 2.022 . S
Co443 N460 1.993 . S
Co443 O468 1.941 . S
C444 O445 1.258 . S
C444 O446 1.263 . S
O445 Co442 1.970 . S
O445 C444 1.258 . S
O446 Co443 1.966 . S
O446 C444 1.263 . S
C447 O448 1.235 . S
C447 O474 1.289 . S
O448 C447 1.235 . S
C449 C451 1.400 . S
C449 N452 1.351 . S
C449 C454 1.501 . S
C450 C451 1.387 . S
C450 N453 1.341 . S
C451 C449 1.400 . S
C451 C450 1.387 . S
N452 Co443 2.022 . S
N452 C449 1.351 . S
N452 N453 1.365 . S
N453 C450 1.341 . S
N453 N452 1.365 . S
N453 H473 0.862 . S
C454 C449 1.501 . S
C454 H455 0.961 . S
C454 H456 0.961 . S
C454 H457 0.960 . S
H455 C454 0.961 . S
H456 C454 0.961 . S
H457 C454 0.960 . S
C458 N459 1.342 . S
C458 C462 1.401 . S
C458 C463 1.499 . S
N459 Co442 1.989 . S
N459 C458 1.342 . S
N459 N460 1.388 . S
N460 Co443 1.993 . S
N460 N459 1.388 . S
N460 C461 1.346 . S
C461 N460 1.346 . S
C461 C462 1.396 . S
C461 C471 1.510 . S
C462 C458 1.401 . S
C462 C461 1.396 . S
C463 C458 1.499 . S
C463 H464 0.959 . S
C463 H465 0.960 . S
C463 H466 0.961 . S
H464 C463 0.959 . S
H465 C463 0.960 . S
H466 C463 0.961 . S
O467 Co442 1.967 . S
O467 C475 1.258 . S
O468 Co443 1.941 . S
O468 C475 1.266 . S
H469 C471 0.959 . S
H470 C471 0.961 . S
C471 C461 1.510 . S
C471 H469 0.959 . S
C471 H470 0.961 . S
C471 H472 0.960 . S
H472 C471 0.960 . S
H473 N453 0.862 . S
O474 Co442 1.920 . S
O474 C447 1.289 . S
C475 O467 1.258 . S
C475 O468 1.266 . S
Co476 O479 1.970 . S
Co476 N493 1.989 . S
Co476 O501 1.967 . S
Co476 O508 1.920 . S
Co477 O480 1.966 . S
Co477 N486 2.022 . S
Co477 N494 1.993 . S
Co477 O502 1.941 . S
C478 O479 1.258 . S
C478 O480 1.263 . S
O479 Co476 1.970 . S
O479 C478 1.258 . S
O480 Co477 1.966 . S
O480 C478 1.263 . S
C481 O482 1.235 . S
C481 O508 1.289 . S
O482 C481 1.235 . S
C483 C485 1.400 . S
C483 N486 1.351 . S
C483 C488 1.501 . S
C484 C485 1.387 . S
C484 N487 1.341 . S
C485 C483 1.400 . S
C485 C484 1.387 . S
N486 Co477 2.022 . S
N486 C483 1.351 . S
N486 N487 1.365 . S
N487 C484 1.341 . S
N487 N486 1.365 . S
N487 H507 0.862 . S
C488 C483 1.501 . S
C488 H489 0.961 . S
C488 H490 0.961 . S
C488 H491 0.960 . S
H489 C488 0.961 . S
H490 C488 0.961 . S
H491 C488 0.960 . S
C492 N493 1.342 . S
C492 C496 1.401 . S
C492 C497 1.499 . S
N493 Co476 1.989 . S
N493 C492 1.342 . S
N493 N494 1.388 . S
N494 Co477 1.993 . S
N494 N493 1.388 . S
N494 C495 1.346 . S
C495 N494 1.346 . S
C495 C496 1.396 . S
C495 C505 1.510 . S
C496 C492 1.401 . S
C496 C495 1.396 . S
C497 C492 1.499 . S
C497 H498 0.959 . S
C497 H499 0.960 . S
C497 H500 0.961 . S
H498 C497 0.959 . S
H499 C497 0.960 . S
H500 C497 0.961 . S
O501 Co476 1.967 . S
O501 C509 1.258 . S
O502 Co477 1.941 . S
O502 C509 1.266 . S
H503 C505 0.959 . S
H504 C505 0.961 . S
C505 C495 1.510 . S
C505 H503 0.959 . S
C505 H504 0.961 . S
C505 H506 0.960 . S
H506 C505 0.960 . S
H507 N487 0.862 . S
O508 Co476 1.920 . S
O508 C481 1.289 . S
C509 O501 1.258 . S
C509 O502 1.266 . S
Co510 O513 1.970 . S
Co510 N527 1.989 . S
Co510 O535 1.967 . S
Co510 O542 1.920 . S
Co511 O514 1.966 . S
Co511 N520 2.022 . S
Co511 N528 1.993 . S
Co511 O536 1.941 . S
C512 O513 1.258 . S
C512 O514 1.263 . S
O513 Co510 1.970 . S
O513 C512 1.258 . S
O514 Co511 1.966 . S
O514 C512 1.263 . S
C515 O516 1.235 . S
C515 O542 1.289 . S
O516 C515 1.235 . S
C517 C519 1.400 . S
C517 N520 1.351 . S
C517 C522 1.501 . S
C518 C519 1.387 . S
C518 N521 1.341 . S
C519 C517 1.400 . S
C519 C518 1.387 . S
N520 Co511 2.022 . S
N520 C517 1.351 . S
N520 N521 1.365 . S
N521 C518 1.341 . S
N521 N520 1.365 . S
N521 H541 0.862 . S
C522 C517 1.501 . S
C522 H523 0.961 . S
C522 H524 0.961 . S
C522 H525 0.960 . S
H523 C522 0.961 . S
H524 C522 0.961 . S
H525 C522 0.960 . S
C526 N527 1.342 . S
C526 C530 1.401 . S
C526 C531 1.499 . S
N527 Co510 1.989 . S
N527 C526 1.342 . S
N527 N528 1.388 . S
N528 Co511 1.993 . S
N528 N527 1.388 . S
N528 C529 1.346 . S
C529 N528 1.346 . S
C529 C530 1.396 . S
C529 C539 1.510 . S
C530 C526 1.401 . S
C530 C529 1.396 . S
C531 C526 1.499 . S
C531 H532 0.959 . S
C531 H533 0.960 . S
C531 H534 0.961 . S
H532 C531 0.959 . S
H533 C531 0.960 . S
H534 C531 0.961 . S
O535 Co510 1.967 . S
O535 C543 1.258 . S
O536 Co511 1.941 . S
O536 C543 1.266 . S
H537 C539 0.959 . S
H538 C539 0.961 . S
C539 C529 1.510 . S
C539 H537 0.959 . S
C539 H538 0.961 . S
C539 H540 0.960 . S
H540 C539 0.960 . S
H541 N521 0.862 . S
O542 Co510 1.920 . S
O542 C515 1.289 . S
C543 O535 1.258 . S
C543 O536 1.266 . S
C544 C545 1.369 . S
C544 C546 1.419 . S
C544 H548 0.930 . S
C545 C544 1.369 . S
C545 C554 1.429 . S
C546 C544 1.419 . S
C546 C547 1.363 . S
C546 H549 0.929 . S
C547 C546 1.363 . S
C547 C553 1.428 . S
H548 C544 0.930 . S
H549 C546 0.929 . S
S550 N551 1.613 . S
S550 N552 1.610 . S
N551 S550 1.613 . S
N551 C554 1.350 . S
N552 S550 1.610 . S
N552 C553 1.351 . S
C553 C547 1.428 . S
C553 N552 1.351 . S
C553 C554 1.434 . S
C554 C545 1.429 . S
C554 N551 1.350 . S
C554 C553 1.434 . S
C555 C556 1.369 . S
C555 C557 1.419 . S
C555 H559 0.930 . S
C556 C555 1.369 . S
C556 C565 1.429 . S
C557 C555 1.419 . S
C557 C558 1.363 . S
C557 H560 0.929 . S
C558 C557 1.363 . S
C558 C564 1.428 . S
H559 C555 0.930 . S
H560 C557 0.929 . S
S561 N562 1.613 . S
S561 N563 1.610 . S
N562 S561 1.613 . S
N562 C565 1.350 . S
N563 S561 1.610 . S
N563 C564 1.351 . S
C564 C558 1.428 . S
C564 N563 1.351 . S
C564 C565 1.434 . S
C565 C556 1.429 . S
C565 N562 1.350 . S
C565 C564 1.434 . S
C566 C567 1.369 . S
C566 C568 1.419 . S
C566 H570 0.930 . S
C567 C566 1.369 . S
C567 C576 1.429 . S
C568 C566 1.419 . S
C568 C569 1.363 . S
C568 H571 0.929 . S
C569 C568 1.363 . S
C569 C575 1.428 . S
H570 C566 0.930 . S
H571 C568 0.929 . S
S572 N573 1.613 . S
S572 N574 1.610 . S
N573 S572 1.613 . S
N573 C576 1.350 . S
N574 S572 1.610 . S
N574 C575 1.351 . S
C575 C569 1.428 . S
C575 N574 1.351 . S
C575 C576 1.434 . S
C576 C567 1.429 . S
C576 N573 1.350 . S
C576 C575 1.434 . S
C577 C578 1.369 . S
C577 C579 1.419 . S
C577 H581 0.930 . S
C578 C577 1.369 . S
C578 C587 1.429 . S
C579 C577 1.419 . S
C579 C580 1.363 . S
C579 H582 0.929 . S
C580 C579 1.363 . S
C580 C586 1.428 . S
H581 C577 0.930 . S
H582 C579 0.929 . S
S583 N584 1.613 . S
S583 N585 1.610 . S
N584 S583 1.613 . S
N584 C587 1.350 . S
N585 S583 1.610 . S
N585 C586 1.351 . S
C586 C580 1.428 . S
C586 N585 1.351 . S
C586 C587 1.434 . S
C587 C578 1.429 . S
C587 N584 1.350 . S
C587 C586 1.434 . S
C588 C589 1.369 . S
C588 C590 1.419 . S
C588 H592 0.930 . S
C589 C588 1.369 . S
C589 C598 1.429 . S
C590 C588 1.419 . S
C590 C591 1.363 . S
C590 H593 0.929 . S
C591 C590 1.363 . S
C591 C597 1.428 . S
H592 C588 0.930 . S
H593 C590 0.929 . S
S594 N595 1.613 . S
S594 N596 1.610 1_554 S
N595 S594 1.613 . S
N595 C598 1.350 1_554 S
N596 S594 1.610 1_556 S
N596 C597 1.351 . S
C597 C591 1.428 . S
C597 N596 1.351 . S
C597 C598 1.434 . S
C598 C589 1.429 . S
C598 N595 1.350 1_556 S
C598 C597 1.434 . S
C599 C600 1.369 . S
C599 C601 1.419 . S
C599 H603 0.930 . S
C600 C599 1.369 . S
C600 C609 1.429 . S
C601 C599 1.419 . S
C601 C602 1.363 . S
C601 H604 0.929 . S
C602 C601 1.363 . S
C602 C608 1.428 . S
H603 C599 0.930 . S
H604 C601 0.929 . S
S605 N606 1.613 1_556 S
S605 N607 1.610 . S
N606 S605 1.613 1_554 S
N606 C609 1.350 . S
N607 S605 1.610 . S
N607 C608 1.351 1_556 S
C608 C602 1.428 . S
C608 N607 1.351 1_554 S
C608 C609 1.434 . S
C609 C600 1.429 . S
C609 N606 1.350 . S
C609 C608 1.434 . S
C610 C611 1.369 . S
C610 C612 1.419 . S
C610 H614 0.930 . S
C611 C610 1.369 . S
C611 C620 1.429 . S
C612 C610 1.419 . S
C612 C613 1.363 . S
C612 H615 0.929 . S
C613 C612 1.363 . S
C613 C619 1.428 . S
H614 C610 0.930 . S
H615 C612 0.929 . S
S616 N617 1.613 . S
S616 N618 1.610 . S
N617 S616 1.613 . S
N617 C620 1.350 . S
N618 S616 1.610 . S
N618 C619 1.351 . S
C619 C613 1.428 . S
C619 N618 1.351 . S
C619 C620 1.434 . S
C620 C611 1.429 . S
C620 N617 1.350 . S
C620 C619 1.434 . S
C621 C622 1.369 . S
C621 C623 1.419 . S
C621 H625 0.930 . S
C622 C621 1.369 . S
C622 C631 1.429 . S
C623 C621 1.419 . S
C623 C624 1.363 . S
C623 H626 0.929 . S
C624 C623 1.363 . S
C624 C630 1.428 . S
H625 C621 0.930 . S
H626 C623 0.929 . S
S627 N628 1.613 . S
S627 N629 1.610 . S
N628 S627 1.613 . S
N628 C631 1.350 . S
N629 S627 1.610 . S
N629 C630 1.351 . S
C630 C624 1.428 . S
C630 N629 1.351 . S
C630 C631 1.434 . S
C631 C622 1.429 . S
C631 N628 1.350 . S
C631 C630 1.434 . S
C632 C633 1.369 . S
C632 C634 1.419 . S
C632 H636 0.930 . S
C633 C632 1.369 . S
C633 C642 1.429 . S
C634 C632 1.419 . S
C634 C635 1.363 . S
C634 H637 0.929 1_554 S
C635 C634 1.363 . S
C635 C641 1.428 . S
H636 C632 0.930 . S
H637 C634 0.929 1_556 S
S638 N639 1.613 . S
S638 N640 1.610 . S
N639 S638 1.613 . S
N639 C642 1.350 . S
N640 S638 1.610 . S
N640 C641 1.351 . S
C641 C635 1.428 . S
C641 N640 1.351 . S
C641 C642 1.434 . S
C642 C633 1.429 . S
C642 N639 1.350 . S
C642 C641 1.434 . S
C643 C644 1.369 . S
C643 C645 1.419 . S
C643 H647 0.930 . S
C644 C643 1.369 . S
C644 C653 1.429 . S
C645 C643 1.419 . S
C645 C646 1.363 . S
C645 H648 0.929 . S
C646 C645 1.363 . S
C646 C652 1.428 . S
H647 C643 0.930 . S
H648 C645 0.929 . S
S649 N650 1.613 . S
S649 N651 1.610 . S
N650 S649 1.613 . S
N650 C653 1.350 . S
N651 S649 1.610 . S
N651 C652 1.351 . S
C652 C646 1.428 . S
C652 N651 1.351 . S
C652 C653 1.434 . S
C653 C644 1.429 . S
C653 N650 1.350 . S
C653 C652 1.434 . S
C654 C655 1.369 . S
C654 C656 1.419 . S
C654 H658 0.930 . S
C655 C654 1.369 . S
C655 C664 1.429 . S
C656 C654 1.419 . S
C656 C657 1.363 . S
C656 H659 0.929 . S
C657 C656 1.363 . S
C657 C663 1.428 . S
H658 C654 0.930 . S
H659 C656 0.929 . S
S660 N661 1.613 . S
S660 N662 1.610 . S
N661 S660 1.613 . S
N661 C664 1.350 . S
N662 S660 1.610 . S
N662 C663 1.351 . S
C663 C657 1.428 . S
C663 N662 1.351 . S
C663 C664 1.434 . S
C664 C655 1.429 . S
C664 N661 1.350 . S
C664 C663 1.434 . S
C665 C666 1.369 . S
C665 C667 1.419 . S
C665 H669 0.930 . S
C666 C665 1.369 . S
C666 C675 1.429 . S
C667 C665 1.419 . S
C667 C668 1.363 . S
C667 H670 0.929 . S
C668 C667 1.363 . S
C668 C674 1.428 . S
H669 C665 0.930 . S
H670 C667 0.929 . S
S671 N672 1.613 . S
S671 N673 1.610 1_554 S
N672 S671 1.613 . S
N672 C675 1.350 1_554 S
N673 S671 1.610 1_556 S
N673 C674 1.351 . S
C674 C668 1.428 . S
C674 N673 1.351 . S
C674 C675 1.434 . S
C675 C666 1.429 . S
C675 N672 1.350 1_556 S
C675 C674 1.434 . S
C676 C677 1.369 . S
C676 C678 1.419 . S
C676 H680 0.930 . S
C677 C676 1.369 . S
C677 C686 1.429 . S
C678 C676 1.419 . S
C678 C679 1.363 . S
C678 H681 0.929 . S
C679 C678 1.363 . S
C679 C685 1.428 . S
H680 C676 0.930 . S
H681 C678 0.929 . S
S682 N683 1.613 . S
S682 N684 1.610 . S
N683 S682 1.613 . S
N683 C686 1.350 . S
N684 S682 1.610 . S
N684 C685 1.351 . S
C685 C679 1.428 . S
C685 N684 1.351 . S
C685 C686 1.434 . S
C686 C677 1.429 . S
C686 N683 1.350 . S
C686 C685 1.434 . S
C687 C688 1.369 . S
C687 C689 1.419 . S
C687 H691 0.930 . S
C688 C687 1.369 . S
C688 C697 1.429 . S
C689 C687 1.419 . S
C689 C690 1.363 . S
C689 H692 0.929 . S
C690 C689 1.363 . S
C690 C696 1.428 . S
H691 C687 0.930 . S
H692 C689 0.929 . S
S693 N694 1.613 . S
S693 N695 1.610 . S
N694 S693 1.613 . S
N694 C697 1.350 . S
N695 S693 1.610 . S
N695 C696 1.351 . S
C696 C690 1.428 . S
C696 N695 1.351 . S
C696 C697 1.434 . S
C697 C688 1.429 . S
C697 N694 1.350 . S
C697 C696 1.434 . S
C698 C699 1.369 . S
C698 C700 1.419 . S
C698 H702 0.930 . S
C699 C698 1.369 . S
C699 C708 1.429 . S
C700 C698 1.419 . S
C700 C701 1.363 . S
C700 H703 0.929 . S
C701 C700 1.363 . S
C701 C707 1.428 . S
H702 C698 0.930 . S
H703 C700 0.929 . S
S704 N705 1.613 . S
S704 N706 1.610 . S
N705 S704 1.613 . S
N705 C708 1.350 . S
N706 S704 1.610 . S
N706 C707 1.351 . S
C707 C701 1.428 . S
C707 N706 1.351 . S
C707 C708 1.434 . S
C708 C699 1.429 . S
C708 N705 1.350 . S
C708 C707 1.434 . S
C709 C710 1.369 . S
C709 C711 1.419 . S
C709 H713 0.930 . S
C710 C709 1.369 . S
C710 C719 1.429 . S
C711 C709 1.419 . S
C711 C712 1.363 . S
C711 H714 0.929 . S
C712 C711 1.363 . S
C712 C718 1.428 . S
H713 C709 0.930 . S
H714 C711 0.929 . S
S715 N716 1.613 . S
S715 N717 1.610 . S
N716 S715 1.613 . S
N716 C719 1.350 . S
N717 S715 1.610 . S
N717 C718 1.351 . S
C718 C712 1.428 . S
C718 N717 1.351 . S
C718 C719 1.434 . S
C719 C710 1.429 . S
C719 N716 1.350 . S
C719 C718 1.434 . S
C720 C721 1.369 . S
C720 C722 1.419 . S
C720 H724 0.930 . S
C721 C720 1.369 . S
C721 C730 1.429 . S
C722 C720 1.419 . S
C722 C723 1.363 . S
C722 H725 0.929 . S
C723 C722 1.363 . S
C723 C729 1.428 . S
H724 C720 0.930 . S
H725 C722 0.929 . S
S726 N727 1.613 . S
S726 N728 1.610 . S
N727 S726 1.613 . S
N727 C730 1.350 . S
N728 S726 1.610 . S
N728 C729 1.351 . S
C729 C723 1.428 . S
C729 N728 1.351 . S
C729 C730 1.434 . S
C730 C721 1.429 . S
C730 N727 1.350 . S
C730 C729 1.434 . S
C731 C732 1.369 . S
C731 C733 1.419 . S
C731 H735 0.930 . S
C732 C731 1.369 . S
C732 C741 1.429 . S
C733 C731 1.419 . S
C733 C734 1.363 . S
C733 H736 0.929 . S
C734 C733 1.363 . S
C734 C740 1.428 . S
H735 C731 0.930 . S
H736 C733 0.929 . S
S737 N738 1.613 . S
S737 N739 1.610 . S
N738 S737 1.613 . S
N738 C741 1.350 . S
N739 S737 1.610 . S
N739 C740 1.351 . S
C740 C734 1.428 . S
C740 N739 1.351 . S
C740 C741 1.434 . S
C741 C732 1.429 . S
C741 N738 1.350 . S
C741 C740 1.434 . S
C742 C743 1.369 . S
C742 C744 1.419 . S
C742 H746 0.930 . S
C743 C742 1.369 . S
C743 C752 1.429 . S
C744 C742 1.419 . S
C744 C745 1.363 . S
C744 H747 0.929 . S
C745 C744 1.363 . S
C745 C751 1.428 . S
H746 C742 0.930 . S
H747 C744 0.929 . S
S748 N749 1.613 . S
S748 N750 1.610 1_554 S
N749 S748 1.613 . S
N749 C752 1.350 1_554 S
N750 S748 1.610 1_556 S
N750 C751 1.351 . S
C751 C745 1.428 . S
C751 N750 1.351 . S
C751 C752 1.434 . S
C752 C743 1.429 . S
C752 N749 1.350 1_556 S
C752 C751 1.434 . S
C753 C754 1.369 . S
C753 C755 1.419 . S
C753 H757 0.930 . S
C754 C753 1.369 . S
C754 C763 1.429 . S
C755 C753 1.419 . S
C755 C756 1.363 . S
C755 H758 0.929 . S
C756 C755 1.363 . S
C756 C762 1.428 . S
H757 C753 0.930 . S
H758 C755 0.929 . S
S759 N760 1.613 . S
S759 N761 1.610 . S
N760 S759 1.613 . S
N760 C763 1.350 . S
N761 S759 1.610 . S
N761 C762 1.351 . S
C762 C756 1.428 . S
C762 N761 1.351 . S
C762 C763 1.434 . S
C763 C754 1.429 . S
C763 N760 1.350 . S
C763 C762 1.434 . S
C764 C765 1.369 . S
C764 C766 1.419 . S
C764 H768 0.930 . S
C765 C764 1.369 . S
C765 C774 1.429 . S
C766 C764 1.419 . S
C766 C767 1.363 . S
C766 H769 0.929 . S
C767 C766 1.363 . S
C767 C773 1.428 . S
H768 C764 0.930 . S
H769 C766 0.929 . S
S770 N771 1.613 . S
S770 N772 1.610 . S
N771 S770 1.613 . S
N771 C774 1.350 . S
N772 S770 1.610 . S
N772 C773 1.351 . S
C773 C767 1.428 . S
C773 N772 1.351 . S
C773 C774 1.434 . S
C774 C765 1.429 . S
C774 N771 1.350 . S
C774 C773 1.434 . S
C775 C776 1.369 . S
C775 C777 1.419 . S
C775 H779 0.930 . S
C776 C775 1.369 . S
C776 C785 1.429 . S
C777 C775 1.419 . S
C777 C778 1.363 . S
C777 H780 0.929 . S
C778 C777 1.363 . S
C778 C784 1.428 . S
H779 C775 0.930 . S
H780 C777 0.929 . S
S781 N782 1.613 . S
S781 N783 1.610 . S
N782 S781 1.613 . S
N782 C785 1.350 . S
N783 S781 1.610 . S
N783 C784 1.351 . S
C784 C778 1.428 . S
C784 N783 1.351 . S
C784 C785 1.434 . S
C785 C776 1.429 . S
C785 N782 1.350 . S
C785 C784 1.434 . S
C786 C787 1.369 . S
C786 C788 1.419 . S
C786 H790 0.930 . S
C787 C786 1.369 . S
C787 C796 1.429 . S
C788 C786 1.419 . S
C788 C789 1.363 . S
C788 H791 0.929 . S
C789 C788 1.363 . S
C789 C795 1.428 . S
H790 C786 0.930 . S
H791 C788 0.929 . S
S792 N793 1.613 . S
S792 N794 1.610 . S
N793 S792 1.613 . S
N793 C796 1.350 . S
N794 S792 1.610 . S
N794 C795 1.351 . S
C795 C789 1.428 . S
C795 N794 1.351 . S
C795 C796 1.434 . S
C796 C787 1.429 . S
C796 N793 1.350 . S
C796 C795 1.434 . S
C797 C798 1.369 . S
C797 C799 1.419 . S
C797 H801 0.930 . S
C798 C797 1.369 . S
C798 C807 1.429 . S
C799 C797 1.419 . S
C799 C800 1.363 . S
C799 H802 0.929 . S
C800 C799 1.363 . S
C800 C806 1.428 . S
H801 C797 0.930 . S
H802 C799 0.929 . S
S803 N804 1.613 . S
S803 N805 1.610 . S
N804 S803 1.613 . S
N804 C807 1.350 . S
N805 S803 1.610 . S
N805 C806 1.351 . S
C806 C800 1.428 . S
C806 N805 1.351 . S
C806 C807 1.434 . S
C807 C798 1.429 . S
C807 N804 1.350 . S
C807 C806 1.434 . S
C808 C809 1.369 . S
C808 C810 1.419 . S
C808 H812 0.930 . S
C809 C808 1.369 . S
C809 C818 1.429 . S
C810 C808 1.419 . S
C810 C811 1.363 . S
C810 H813 0.929 . S
C811 C810 1.363 . S
C811 C817 1.428 . S
H812 C808 0.930 . S
H813 C810 0.929 . S
S814 N815 1.613 . S
S814 N816 1.610 . S
N815 S814 1.613 . S
N815 C818 1.350 . S
N816 S814 1.610 . S
N816 C817 1.351 . S
C817 C811 1.428 . S
C817 N816 1.351 . S
C817 C818 1.434 . S
C818 C809 1.429 . S
C818 N815 1.350 . S
C818 C817 1.434 . S
C819 C820 1.369 . S
C819 C821 1.419 . S
C819 H823 0.930 . S
C820 C819 1.369 . S
C820 C829 1.429 . S
C821 C819 1.419 . S
C821 C822 1.363 . S
C821 H824 0.929 . S
C822 C821 1.363 . S
C822 C828 1.428 . S
H823 C819 0.930 . S
H824 C821 0.929 . S
S825 N826 1.613 . S
S825 N827 1.610 . S
N826 S825 1.613 . S
N826 C829 1.350 . S
N827 S825 1.610 . S
N827 C828 1.351 . S
C828 C822 1.428 . S
C828 N827 1.351 . S
C828 C829 1.434 . S
C829 C820 1.429 . S
C829 N826 1.350 . S
C829 C828 1.434 . S
C830 C831 1.369 . S
C830 C832 1.419 . S
C830 H834 0.930 . S
C831 C830 1.369 . S
C831 C840 1.429 . S
C832 C830 1.419 . S
C832 C833 1.363 . S
C832 H835 0.929 . S
C833 C832 1.363 . S
C833 C839 1.428 . S
H834 C830 0.930 . S
H835 C832 0.929 . S
S836 N837 1.613 1_545 S
S836 N838 1.610 . S
N837 S836 1.613 1_565 S
N837 C840 1.350 1_565 S
N838 S836 1.610 . S
N838 C839 1.351 . S
C839 C833 1.428 . S
C839 N838 1.351 . S
C839 C840 1.434 . S
C840 C831 1.429 . S
C840 N837 1.350 1_545 S
C840 C839 1.434 . S
C841 C842 1.369 . S
C841 C843 1.419 . S
C841 H845 0.930 . S
C842 C841 1.369 . S
C842 C851 1.429 . S
C843 C841 1.419 . S
C843 C844 1.363 . S
C843 H846 0.929 . S
C844 C843 1.363 . S
C844 C850 1.428 . S
H845 C841 0.930 . S
H846 C843 0.929 . S
S847 N848 1.613 . S
S847 N849 1.610 . S
N848 S847 1.613 . S
N848 C851 1.350 . S
N849 S847 1.610 . S
N849 C850 1.351 . S
C850 C844 1.428 . S
C850 N849 1.351 . S
C850 C851 1.434 . S
C851 C842 1.429 . S
C851 N848 1.350 . S
C851 C850 1.434 . S
C852 C853 1.369 . S
C852 C854 1.419 . S
C852 H856 0.930 . S
C853 C852 1.369 . S
C853 C862 1.429 1_554 S
C854 C852 1.419 . S
C854 C855 1.363 . S
C854 H857 0.929 . S
C855 C854 1.363 . S
C855 C861 1.428 1_554 S
H856 C852 0.930 . S
H857 C854 0.929 . S
S858 N859 1.613 . S
S858 N860 1.610 . S
N859 S858 1.613 . S
N859 C862 1.350 . S
N860 S858 1.610 . S
N860 C861 1.351 . S
C861 C855 1.428 1_556 S
C861 N860 1.351 . S
C861 C862 1.434 . S
C862 C853 1.429 1_556 S
C862 N859 1.350 . S
C862 C861 1.434 . S
C863 C864 1.369 . S
C863 C865 1.419 . S
C863 H867 0.930 . S
C864 C863 1.369 . S
C864 C873 1.429 1_556 S
C865 C863 1.419 . S
C865 C866 1.363 . S
C865 H868 0.929 . S
C866 C865 1.363 . S
C866 C872 1.428 1_556 S
H867 C863 0.930 . S
H868 C865 0.929 . S
S869 N870 1.613 . S
S869 N871 1.610 . S
N870 S869 1.613 . S
N870 C873 1.350 . S
N871 S869 1.610 . S
N871 C872 1.351 . S
C872 C866 1.428 1_554 S
C872 N871 1.351 . S
C872 C873 1.434 . S
C873 C864 1.429 1_554 S
C873 N870 1.350 . S
C873 C872 1.434 . S
C874 C875 1.369 . S
C874 C876 1.419 1_554 S
C874 H878 0.930 1_554 S
C875 C874 1.369 . S
C875 C884 1.429 . S
C876 C874 1.419 1_556 S
C876 C877 1.363 1_556 S
C876 H879 0.929 . S
C877 C876 1.363 1_554 S
C877 C883 1.428 . S
H878 C874 0.930 1_556 S
H879 C876 0.929 . S
S880 N881 1.613 . S
S880 N882 1.610 . S
N881 S880 1.613 . S
N881 C884 1.350 . S
N882 S880 1.610 . S
N882 C883 1.351 . S
C883 C877 1.428 . S
C883 N882 1.351 . S
C883 C884 1.434 . S
C884 C875 1.429 . S
C884 N881 1.350 . S
C884 C883 1.434 . S
C885 C886 1.369 . S
C885 C887 1.419 . S
C885 H889 0.930 . S
C886 C885 1.369 . S
C886 C895 1.429 . S
C887 C885 1.419 . S
C887 C888 1.363 . S
C887 H890 0.929 . S
C888 C887 1.363 . S
C888 C894 1.428 . S
H889 C885 0.930 . S
H890 C887 0.929 . S
S891 N892 1.613 . S
S891 N893 1.610 1_554 S
N892 S891 1.613 . S
N892 C895 1.350 1_554 S
N893 S891 1.610 1_556 S
N893 C894 1.351 . S
C894 C888 1.428 . S
C894 N893 1.351 . S
C894 C895 1.434 . S
C895 C886 1.429 . S
C895 N892 1.350 1_556 S
C895 C894 1.434 . S
C896 C897 1.369 . S
C896 C898 1.419 . S
C896 H900 0.930 . S
C897 C896 1.369 . S
C897 C906 1.429 . S
C898 C896 1.419 . S
C898 C899 1.363 . S
C898 H901 0.929 . S
C899 C898 1.363 . S
C899 C905 1.428 . S
H900 C896 0.930 . S
H901 C898 0.929 . S
S902 N903 1.613 . S
S902 N904 1.610 . S
N903 S902 1.613 . S
N903 C906 1.350 . S
N904 S902 1.610 . S
N904 C905 1.351 . S
C905 C899 1.428 . S
C905 N904 1.351 . S
C905 C906 1.434 . S
C906 C897 1.429 . S
C906 N903 1.350 . S
C906 C905 1.434 . S
C907 C908 1.369 . S
C907 C909 1.419 . S
C907 H911 0.930 . S
C908 C907 1.369 . S
C908 C917 1.429 . S
C909 C907 1.419 . S
C909 C910 1.363 . S
C909 H912 0.929 . S
C910 C909 1.363 . S
C910 C916 1.428 . S
H911 C907 0.930 . S
H912 C909 0.929 . S
S913 N914 1.613 . S
S913 N915 1.610 . S
N914 S913 1.613 . S
N914 C917 1.350 . S
N915 S913 1.610 . S
N915 C916 1.351 . S
C916 C910 1.428 . S
C916 N915 1.351 . S
C916 C917 1.434 . S
C917 C908 1.429 . S
C917 N914 1.350 . S
C917 C916 1.434 . S
C918 C919 1.369 . S
C918 C920 1.419 . S
C918 H922 0.930 . S
C919 C918 1.369 . S
C919 C928 1.429 . S
C920 C918 1.419 . S
C920 C921 1.363 . S
C920 H923 0.929 . S
C921 C920 1.363 . S
C921 C927 1.428 . S
H922 C918 0.930 . S
H923 C920 0.929 . S
S924 N925 1.613 . S
S924 N926 1.610 . S
N925 S924 1.613 . S
N925 C928 1.350 . S
N926 S924 1.610 . S
N926 C927 1.351 . S
C927 C921 1.428 . S
C927 N926 1.351 . S
C927 C928 1.434 . S
C928 C919 1.429 . S
C928 N925 1.350 . S
C928 C927 1.434 . S
C929 C930 1.369 . S
C929 C931 1.419 . S
C929 H933 0.930 . S
C930 C929 1.369 . S
C930 C939 1.429 . S
C931 C929 1.419 . S
C931 C932 1.363 . S
C931 H934 0.929 . S
C932 C931 1.363 . S
C932 C938 1.428 . S
H933 C929 0.930 . S
H934 C931 0.929 . S
S935 N936 1.613 . S
S935 N937 1.610 . S
N936 S935 1.613 . S
N936 C939 1.350 . S
N937 S935 1.610 . S
N937 C938 1.351 . S
C938 C932 1.428 . S
C938 N937 1.351 . S
C938 C939 1.434 . S
C939 C930 1.429 . S
C939 N936 1.350 . S
C939 C938 1.434 . S
C940 C941 1.369 . S
C940 C942 1.419 . S
C940 H944 0.930 . S
C941 C940 1.369 . S
C941 C950 1.429 . S
C942 C940 1.419 . S
C942 C943 1.363 . S
C942 H945 0.929 . S
C943 C942 1.363 . S
C943 C949 1.428 . S
H944 C940 0.930 . S
H945 C942 0.929 . S
S946 N947 1.613 . S
S946 N948 1.610 . S
N947 S946 1.613 . S
N947 C950 1.350 . S
N948 S946 1.610 . S
N948 C949 1.351 . S
C949 C943 1.428 . S
C949 N948 1.351 . S
C949 C950 1.434 . S
C950 C941 1.429 . S
C950 N947 1.350 . S
C950 C949 1.434 . S
C951 C952 1.369 . S
C951 C953 1.419 . S
C951 H955 0.930 . S
C952 C951 1.369 . S
C952 C961 1.429 . S
C953 C951 1.419 . S
C953 C954 1.363 . S
C953 H956 0.929 . S
C954 C953 1.363 . S
C954 C960 1.428 . S
H955 C951 0.930 . S
H956 C953 0.929 . S
S957 N958 1.613 . S
S957 N959 1.610 . S
N958 S957 1.613 . S
N958 C961 1.350 . S
N959 S957 1.610 . S
N959 C960 1.351 . S
C960 C954 1.428 . S
C960 N959 1.351 . S
C960 C961 1.434 . S
C961 C952 1.429 . S
C961 N958 1.350 . S
C961 C960 1.434 . S
C962 C963 1.369 . S
C962 C964 1.419 . S
C962 H966 0.930 . S
C963 C962 1.369 . S
C963 C972 1.429 . S
C964 C962 1.419 . S
C964 C965 1.363 . S
C964 H967 0.929 . S
C965 C964 1.363 . S
C965 C971 1.428 . S
H966 C962 0.930 . S
H967 C964 0.929 . S
S968 N969 1.613 . S
S968 N970 1.610 1_565 S
N969 S968 1.613 . S
N969 C972 1.350 . S
N970 S968 1.610 1_545 S
N970 C971 1.351 1_545 S
C971 C965 1.428 . S
C971 N970 1.351 1_565 S
C971 C972 1.434 . S
C972 C963 1.429 . S
C972 N969 1.350 . S
C972 C971 1.434 . S
C973 C974 1.369 . S
C973 C975 1.419 . S
C973 H977 0.930 . S
C974 C973 1.369 . S
C974 C983 1.429 . S
C975 C973 1.419 . S
C975 C976 1.363 . S
C975 H978 0.929 . S
C976 C975 1.363 . S
C976 C982 1.428 . S
H977 C973 0.930 . S
H978 C975 0.929 . S
S979 N980 1.613 . S
S979 N981 1.610 . S
N980 S979 1.613 . S
N980 C983 1.350 . S
N981 S979 1.610 . S
N981 C982 1.351 . S
C982 C976 1.428 . S
C982 N981 1.351 . S
C982 C983 1.434 . S
C983 C974 1.429 . S
C983 N980 1.350 . S
C983 C982 1.434 . S
C545 C33 1.084 . S
C547 C509 1.090 . S
C556 C543 1.092 . S
C558 C67 1.089 . S
C567 C441 1.092 . S
C569 C101 1.085 . S
C578 C135 1.087 . S
C580 C475 1.087 . S
C589 C169 1.086 . S
C591 C373 1.092 . S
C600 C407 1.092 . S
C602 C203 1.085 . S
C611 C237 1.089 . S
C613 C305 1.091 . S
C622 C339 1.092 . S
C624 C271 1.088 . S
C633 C145 1.225 . S
C635 C9 1.214 . S
C644 C43 1.217 . S
C646 C179 1.222 . S
C655 C77 1.221 . S
C657 C213 1.218 . S
C666 C111 1.228 . S
C668 C247 1.212 . S
C677 C417 1.224 . S
C679 C281 1.213 . S
C688 C451 1.228 . S
C690 C315 1.211 . S
C699 C349 1.218 . S
C701 C485 1.217 . S
C710 C383 1.228 . S
C712 C519 1.211 . S
C721 C2 1.919 1_556 S
C723 C478 1.917 . S
C732 C512 1.917 . S
C734 C36 1.919 1_554 S
C743 C70 1.916 1_556 S
C745 C410 1.919 . S
C754 C444 1.917 . S
C756 C104 1.918 1_554 S
C765 C342 1.917 . S
C767 C138 1.919 . S
C776 C376 1.916 . S
C778 C172 1.919 . S
C787 C206 1.920 . S
C789 C274 1.917 . S
C798 C240 1.919 . S
C800 C308 1.916 . S
C809 C5 1.689 1_565 S
C811 C394 1.719 . S
C820 C292 1.715 . S
C822 C39 1.694 1_655 S
C831 C73 1.689 1_545 S
C833 C326 1.719 . S
C842 C360 1.715 . S
C844 C107 1.695 1_455 S
C853 C190 1.717 1_554 S
C855 C141 1.691 . S
C864 C224 1.719 1_556 S
C866 C175 1.690 . S
C875 C209 1.695 . S
C877 C258 1.715 1_554 S
C886 C156 1.719 1_556 S
C888 C243 1.689 . S
C897 C122 1.715 . S
C899 C277 1.694 . S
C908 C311 1.689 . S
C910 C20 1.719 . S
C919 C345 1.694 . S
C921 C54 1.716 . S
C930 C88 1.718 . S
C932 C379 1.691 . S
C941 C462 1.715 . S
C943 C413 1.695 1_545 S
C952 C496 1.717 . S
C954 C447 1.692 1_455 S
C963 C530 1.718 . S
C965 C481 1.690 1_565 S
C974 C515 1.695 1_655 S
C976 C428 1.715 . S
