# Generated by pormake.
# Topology vby, (6)-cn, num edge types: 1
# Building blocks:
#     Node 0, Type 0, BuildingBlock: KUMBOL_clean_sbu_0, # of connection points: 6
#     Node 1, Type 0, BuildingBlock: KUMBOL_clean_sbu_0, # of connection points: 6
#     Node 2, Type 0, BuildingBlock: KUMBOL_clean_sbu_0, # of connection points: 6
#     Node 3, Type 0, BuildingBlock: KUMBOL_clean_sbu_0, # of connection points: 6
#     Node 4, Type 0, BuildingBlock: KUMBOL_clean_sbu_0, # of connection points: 6
#     Node 5, Type 0, BuildingBlock: KUMBOL_clean_sbu_0, # of connection points: 6
#     Node 6, Type 0, BuildingBlock: KUMBOL_clean_sbu_0, # of connection points: 6
#     Node 7, Type 0, BuildingBlock: KUMBOL_clean_sbu_0, # of connection points: 6
#     Edge 8, Type (0, 0), BuildingBlock: XIVTED_clean_linker_0, # of connection points: 2
#     Edge 9, Type (0, 0), BuildingBlock: XIVTED_clean_linker_0, # of connection points: 2
#     Edge 10, Type (0, 0), BuildingBlock: XIVTED_clean_linker_0, # of connection points: 2
#     Edge 11, Type (0, 0), BuildingBlock: XIVTED_clean_linker_0, # of connection points: 2
#     Edge 12, Type (0, 0), BuildingBlock: XIVTED_clean_linker_0, # of connection points: 2
#     Edge 13, Type (0, 0), BuildingBlock: XIVTED_clean_linker_0, # of connection points: 2
#     Edge 14, Type (0, 0), BuildingBlock: XIVTED_clean_linker_0, # of connection points: 2
#     Edge 15, Type (0, 0), BuildingBlock: XIVTED_clean_linker_0, # of connection points: 2
#     Edge 16, Type (0, 0), BuildingBlock: XIVTED_clean_linker_0, # of connection points: 2
#     Edge 17, Type (0, 0), BuildingBlock: XIVTED_clean_linker_0, # of connection points: 2
#     Edge 18, Type (0, 0), BuildingBlock: XIVTED_clean_linker_0, # of connection points: 2
#     Edge 19, Type (0, 0), BuildingBlock: XIVTED_clean_linker_0, # of connection points: 2
#     Edge 20, Type (0, 0), BuildingBlock: XIVTED_clean_linker_0, # of connection points: 2
#     Edge 21, Type (0, 0), BuildingBlock: XIVTED_clean_linker_0, # of connection points: 2
#     Edge 22, Type (0, 0), BuildingBlock: XIVTED_clean_linker_0, # of connection points: 2
#     Edge 23, Type (0, 0), BuildingBlock: XIVTED_clean_linker_0, # of connection points: 2
#     Edge 24, Type (0, 0), BuildingBlock: XIVTED_clean_linker_0, # of connection points: 2
#     Edge 25, Type (0, 0), BuildingBlock: XIVTED_clean_linker_0, # of connection points: 2
#     Edge 26, Type (0, 0), BuildingBlock: XIVTED_clean_linker_0, # of connection points: 2
#     Edge 27, Type (0, 0), BuildingBlock: XIVTED_clean_linker_0, # of connection points: 2
#     Edge 28, Type (0, 0), BuildingBlock: XIVTED_clean_linker_0, # of connection points: 2
#     Edge 29, Type (0, 0), BuildingBlock: XIVTED_clean_linker_0, # of connection points: 2
#     Edge 30, Type (0, 0), BuildingBlock: XIVTED_clean_linker_0, # of connection points: 2
#     Edge 31, Type (0, 0), BuildingBlock: XIVTED_clean_linker_0, # of connection points: 2
# Relax obj value: 0.107
# Max RMSD: 0.195
# Mean RMSD: 0.195
data_MOF--net-vby--node1-KUMBOL_clean_sbu_0--edge1-XIVTED_clean_linker_0
_symmetry_space_group_name_H-M    P1
_symmetry_Int_Tables_number       1
_symmetry_cell_setting            triclinic
loop_
_symmetry_equiv_pos_as_xyz
'x, y, z'
_cell_length_a     14.50514
_cell_length_b     98.868449
_cell_length_c     30.49982
_cell_angle_alpha  115.34741
_cell_angle_beta   89.917005
_cell_angle_gamma 90.270987
loop_
_atom_site_label
_atom_site_type_symbol
_atom_site_fract_x
_atom_site_fract_y
_atom_site_fract_z
_atom_type_partial_charge
Gd0 Gd 0.10284 0.36083 0.97541 0.0
Gd1 Gd 0.14251 0.40164 0.02504 0.0
C2 C 0.44164 0.4127 0.00428 0.0
C3 C 0.49481 0.42603 0.08734 0.0
C4 C 0.33748 0.41637 0.07072 0.0
C5 C 0.35424 0.41068 0.02129 0.0
C6 C 0.4073 0.42439 0.10421 0.0
C7 C 0.5119 0.42022 0.03751 0.0
C8 C 0.45619 0.40707 0.9543 0.0
C9 C 0.38469 0.39968 0.92251 0.0
N10 N 0.28575 0.40309 0.98983 0.0
C11 C 0.29972 0.39779 0.94087 0.0
H12 H 0.24673 0.3919 0.91523 0.0
C13 C 0.22972 0.42217 0.13421 0.0
N14 N 0.25232 0.41459 0.08614 0.0
C15 C 0.29672 0.43003 0.1687 0.0
C16 C 0.38643 0.43092 0.15372 0.0
H17 H 0.15951 0.42218 0.14617 0.0
H18 H 0.57954 0.4217 0.02502 0.0
H19 H 0.93266 0.36209 0.05226 0.0
H20 H 0.52226 0.40838 0.9399 0.0
H21 H 0.39516 0.3953 0.88372 0.0
H22 H 0.5493 0.43201 0.11256 0.0
H23 H 0.18381 0.33965 0.8642 0.0
H24 H 0.69017 0.34241 0.96983 0.0
H25 H 0.76964 0.35484 0.04892 0.0
H26 H 0.79675 0.32253 0.80565 0.0
H27 H 0.2787 0.43561 0.20675 0.0
H28 H 0.43811 0.43715 0.18049 0.0
H29 H 0.70007 0.33088 0.87886 0.0
H30 H 0.12344 0.32366 0.78225 0.0
N31 N 0.94611 0.35431 0.9757 0.0
C32 C 0.76203 0.34559 0.97101 0.0
C33 C 0.80673 0.35256 0.01569 0.0
C34 C 0.81164 0.34229 0.9283 0.0
C35 C 0.90506 0.3467 0.9319 0.0
C36 C 0.89954 0.35667 0.01736 0.0
N37 N 0.05094 0.34492 0.89659 0.0
C38 C 0.95924 0.34195 0.89082 0.0
C39 C 0.07641 0.32882 0.8124 0.0
C40 C 0.98148 0.32654 0.80521 0.0
C41 C 0.11036 0.33781 0.8588 0.0
C42 C 0.92179 0.33276 0.84492 0.0
H43 H 0.95542 0.31944 0.76934 0.0
O44 O 0.19012 0.34122 0.95661 0.0
O45 O 0.20867 0.37933 0.00686 0.0
O46 O 0.09651 0.39301 0.94633 0.0
O47 O 0.08278 0.36689 0.91291 0.0
O48 O 0.24814 0.36012 0.9475 0.0
O49 O 0.09537 0.34745 0.01639 0.0
O50 O 0.08135 0.42349 0.06668 0.0
O51 O 1.03698 0.38336 -0.00222 0.0
O52 O 0.0876 0.37147 0.05688 0.0
O53 O 0.14402 0.39604 0.08933 0.0
O54 O 0.99843 0.40295 0.05575 0.0
O55 O 0.13833 0.41803 -0.00462 0.0
C56 C 0.27622 0.37297 0.97908 0.0
C57 C 0.82713 0.32938 0.84069 0.0
C58 C 0.77211 0.33413 0.88237 0.0
C59 C 0.15344 0.33742 0.98874 0.0
C60 C 0.12351 0.32164 0.97135 0.0
C61 C 0.04749 0.31641 0.94022 0.0
C62 C 0.16917 0.31177 0.9864 0.0
C63 C 0.13808 0.29682 0.97051 0.0
C64 C 1.01726 0.30168 0.92394 0.0
C65 C 0.06205 0.29194 0.93886 0.0
C66 C 0.08159 0.37977 0.90955 0.0
C67 C 0.97005 0.3898 0.02601 0.0
C68 C 0.09544 0.42798 0.03274 0.0
C69 C 1.02007 0.43599 0.02191 0.0
C70 C 0.93134 0.42979 0.01074 0.0
C71 C 1.03828 0.44995 0.02164 0.0
C72 C 0.96821 0.45783 0.01051 0.0
C73 C 0.86134 0.43754 -8e-05 0.0
C74 C 0.87937 0.45143 -0.00021 0.0
C75 C 0.11304 0.38408 0.09365 0.0
H76 H 1.01107 0.3237 0.92855 0.0
H77 H 0.22735 0.31579 0.01095 0.0
H78 H 0.95872 0.29779 0.89966 0.0
H79 H 1.03756 0.28049 0.92513 0.0
H80 H 0.91635 0.41898 0.01019 0.0
H81 H 0.10701 0.4547 0.03051 0.0
H82 H 0.7929 0.4327 0.99126 0.0
H83 H 0.82404 0.45703 0.99043 0.0
Gd84 Gd 0.9217 0.61126 0.97576 0.0
Gd85 Gd 0.96416 0.65212 0.03008 0.0
C86 C 0.24988 0.67241 0.08186 0.0
C87 C 0.22984 0.68478 0.16934 0.0
C88 C 0.10189 0.67138 0.11714 0.0
C89 C 0.15763 0.66736 0.07674 0.0
C90 C 0.13658 0.68049 0.16378 0.0
C91 C 0.28642 0.68073 0.12843 0.0
C92 C 0.30148 0.66947 0.04 0.0
C93 C 0.25985 0.66218 -0.00541 0.0
N94 N 0.11947 0.65957 0.03222 0.0
C95 C 0.16798 0.65747 0.99136 0.0
H96 H 0.1371 0.65185 0.95593 0.0
C97 C 0.95079 0.67288 0.14823 0.0
N98 N 1.01158 0.66732 0.11032 0.0
C99 C 0.98216 0.68182 0.19523 0.0
C100 C 0.07567 0.68549 0.20316 0.0
H101 H 0.87844 0.67007 0.14233 0.0
H102 H 0.35746 0.68454 0.13309 0.0
H103 H 0.80202 0.61865 0.08004 0.0
H104 H 0.37259 0.67313 0.04238 0.0
H105 H 0.29855 0.66012 0.96199 0.0
H106 H 0.25808 0.69163 0.20493 0.0
H107 H 0.92568 0.59081 0.85518 0.0
H108 H 0.52945 0.60151 0.04195 0.0
H109 H 0.64875 0.61411 0.104 0.0
H110 H 0.52913 0.5798 0.86863 0.0
H111 H 0.93419 0.68589 0.22528 0.0
H112 H 0.09965 0.6925 0.23956 0.0
H113 H 0.48483 0.58917 0.9544 0.0
H114 H 0.81681 0.57729 0.78833 0.0
N115 N 0.77361 0.60847 0.00388 0.0
C116 C 0.59774 0.60328 0.03085 0.0
C117 C 0.66487 0.61038 0.06595 0.0
C118 C 0.61966 0.59845 0.98185 0.0
C119 C 0.70967 0.60105 0.96922 0.0
C120 C 0.75269 0.61287 0.05187 0.0
N121 N 0.82233 0.59797 0.90985 0.0
C122 C 0.73429 0.59589 0.92089 0.0
C123 C 0.79217 0.58269 0.82534 0.0
C124 C 0.69954 0.58159 0.83571 0.0
C125 C 0.85335 0.59056 0.86317 0.0
C126 C 0.67003 0.58785 0.88401 0.0
H127 H 0.65233 0.57534 0.8064 0.0
O128 O 0.99019 0.58992 0.93634 0.0
O129 O 1.02775 0.62942 0.00457 0.0
O130 O 0.98221 0.64207 0.94848 0.0
O131 O 0.91429 0.61824 0.9147 0.0
O132 O 0.06721 0.61016 0.9461 0.0
O133 O 0.92414 0.59481 0.00526 0.0
O134 O 0.8748 0.67152 0.05002 0.0
O135 O 0.85726 0.63385 -0.00232 0.0
O136 O 0.95276 0.61968 0.05593 0.0
O137 O 1.00071 0.64467 0.08817 0.0
O138 O 0.81956 0.65247 0.05897 0.0
O139 O 0.97232 0.66624 0.99162 0.0
C140 C 0.09542 0.6232 0.97677 0.0
C141 C 0.57956 0.58579 0.89648 0.0
C142 C 0.55447 0.59106 0.94529 0.0
C143 C 0.97272 0.58525 0.96957 0.0
C144 C 0.0477 0.57777 0.98299 0.0
C145 C 0.13535 0.58433 -0.00452 0.0
C146 C 1.03037 0.56388 0.98389 0.0
C147 C 0.10028 0.55641 -0.00313 0.0
C148 C 0.20518 0.57699 0.00818 0.0
C149 C 0.18806 0.56315 0.00884 0.0
C150 C 0.95092 0.63002 0.91126 0.0
C151 C 0.79027 0.63991 0.02621 0.0
C152 C 0.91194 0.67585 0.01918 0.0
C153 C 0.93842 0.69184 0.03829 0.0
C154 C 1.01175 0.69735 0.07112 0.0
C155 C 0.89105 0.7017 0.02384 0.0
C156 C 0.91683 0.71698 0.04257 0.0
C157 C 1.03786 0.71234 0.08951 0.0
C158 C 0.99104 0.72209 0.07541 0.0
C159 C 0.98428 0.63204 0.09188 0.0
H160 H 0.14968 0.59509 -0.00451 0.0
H161 H 0.96254 0.55884 0.97395 0.0
H162 H 0.2728 0.5821 0.0178 0.0
H163 H 0.24318 0.55784 0.01956 0.0
H164 H 0.04926 0.6901 0.08247 0.0
H165 H 0.83398 0.69753 -0.00139 0.0
H166 H 0.09502 0.71639 0.11466 0.0
H167 H 1.01412 0.73362 0.0897 0.0
Gd168 Gd 0.10694 0.65218 0.53227 0.0
Gd169 Gd 0.14626 0.61091 0.47508 0.0
C170 C 0.45042 0.60034 0.4868 0.0
C171 C 0.50498 0.59264 0.40446 0.0
C172 C 0.34469 0.60009 0.42491 0.0
C173 C 0.36157 0.60285 0.47272 0.0
C174 C 0.41607 0.59457 0.39008 0.0
C175 C 0.52203 0.59546 0.45266 0.0
C176 C 0.46508 0.6028 0.53488 0.0
C177 C 0.39235 0.60761 0.56769 0.0
N178 N 0.29171 0.60798 0.50547 0.0
C179 C 0.30598 0.61011 0.5524 0.0
H180 H 0.25208 0.61379 0.57897 0.0
C181 C 0.23587 0.5962 0.36331 0.0
N182 N 0.25761 0.60183 0.41173 0.0
C183 C 0.30435 0.591 0.3278 0.0
C184 C 0.39534 0.5905 0.34134 0.0
H185 H 0.16522 0.59528 0.35131 0.0
H186 H 0.59072 0.5937 0.4631 0.0
H187 H 0.95342 0.65062 0.44713 0.0
H188 H 0.53218 0.601 0.547 0.0
H189 H 0.40281 0.60947 0.60498 0.0
H190 H 0.56054 0.58859 0.37829 0.0
H191 H 0.16456 0.66951 0.64945 0.0
H192 H 0.70209 0.67045 0.51791 0.0
H193 H 0.79372 0.65802 0.4429 0.0
H194 H 0.77503 0.68843 0.68661 0.0
H195 H 0.28641 0.58701 0.28986 0.0
H196 H 0.44815 0.58623 0.31365 0.0
H197 H 0.695 0.6814 0.60878 0.0
H198 H 0.08947 0.68447 0.72845 0.0
N199 N 0.95361 0.65852 0.52407 0.0
C200 C 0.77267 0.66725 0.52012 0.0
C201 C 0.82421 0.66027 0.47772 0.0
C202 C 0.81352 0.67035 0.56495 0.0
C203 C 0.90555 0.66589 0.56581 0.0
C204 C 0.91521 0.65607 0.48037 0.0
N205 N 1.04049 0.66609 0.60895 0.0
C206 C 0.95003 0.66966 0.60963 0.0
C207 C 0.04935 0.68028 0.69535 0.0
C208 C 0.95507 0.68329 0.69696 0.0
C209 C 0.09162 0.67183 0.6507 0.0
C210 C 0.90455 0.67823 0.65372 0.0
H211 H 0.92263 0.68991 0.73156 0.0
O212 O 0.19536 0.67197 0.56108 0.0
O213 O 0.21353 0.63378 0.50041 0.0
O214 O 0.11219 0.61883 0.55486 0.0
O215 O 0.06013 0.64359 0.58614 0.0
O216 O 0.24528 0.65175 0.56565 0.0
O217 O 0.10985 0.66768 0.49867 0.0
O218 O 0.10153 0.58863 0.4254 0.0
O219 O 0.04488 0.62951 0.49998 0.0
O220 O 0.10951 0.64354 0.4508 0.0
O221 O 0.11609 0.61738 0.41444 0.0
O222 O 0.99107 0.60871 0.45996 0.0
O223 O 0.12626 0.59366 0.50091 0.0
C224 C 0.27687 0.63955 0.532 0.0
C225 C 0.81154 0.68202 0.65309 0.0
C226 C 0.76605 0.67806 0.60877 0.0
C227 C 0.16582 0.67709 0.53073 0.0
C228 C 0.13846 0.69305 0.55165 0.0
C229 C 0.06909 0.69825 0.58692 0.0
C230 C 0.18072 0.70321 0.53635 0.0
C231 C 0.15379 0.71843 0.55669 0.0
C232 C 1.04124 0.71312 0.60651 0.0
C233 C 0.08294 0.72314 0.59154 0.0
C234 C 0.0758 0.63093 0.58976 0.0
C235 C 0.96921 0.62256 0.48409 0.0
C236 C 0.10758 0.58328 0.45769 0.0
C237 C 0.15611 0.56883 0.44261 0.0
C238 C 0.23215 0.56539 0.41121 0.0
C239 C 0.12464 0.55813 0.45838 0.0
C240 C 0.16816 0.54405 0.44233 0.0
C241 C 0.27637 0.55164 0.39597 0.0
C242 C 0.2447 0.54103 0.41125 0.0
C243 C 0.10931 0.63042 0.41257 0.0
H244 H 1.03615 0.69087 0.59949 0.0
H245 H 0.23503 0.69933 0.5094 0.0
H246 H 0.98698 0.7169 0.63345 0.0
H247 H 0.05889 0.7346 0.60705 0.0
H248 H 0.25697 0.57321 0.39784 0.0
H249 H 0.06518 0.56062 0.48209 0.0
H250 H 0.33516 0.54916 0.37191 0.0
H251 H 0.28067 0.53046 0.39896 0.0
Gd252 Gd 0.94993 0.39931 0.52895 0.0
Gd253 Gd 0.98899 0.35863 0.46507 0.0
C254 C 0.26965 0.33787 0.40664 0.0
C255 C 0.24798 0.32832 0.31948 0.0
C256 C 0.12258 0.34095 0.37466 0.0
C257 C 0.17841 0.34327 0.41392 0.0
C258 C 0.15605 0.33318 0.32694 0.0
C259 C 0.30471 0.33067 0.35928 0.0
C260 C 0.32206 0.33951 0.4471 0.0
C261 C 0.28227 0.34598 0.49316 0.0
N262 N 0.142 0.35015 0.45914 0.0
C263 C 0.19135 0.3511 0.49847 0.0
H264 H 0.16184 0.35614 0.53431 0.0
C265 C 0.97326 0.34218 0.34554 0.0
N266 N 1.03376 0.34563 0.38321 0.0
C267 C 1.00343 0.3346 0.29757 0.0
C268 C 0.09545 0.3302 0.28819 0.0
H269 H 0.90214 0.34559 0.35235 0.0
H270 H 0.37489 0.32657 0.353 0.0
H271 H 0.78295 0.40093 0.45569 0.0
H272 H 0.39251 0.33556 0.44309 0.0
H273 H 0.3217 0.3471 0.52464 0.0
H274 H 0.27524 0.32244 0.2831 0.0
H275 H 1.02984 0.41487 0.64276 0.0
H276 H 0.54109 0.41915 0.54075 0.0
H277 H 0.62044 0.40875 0.46132 0.0
H278 H 0.64549 0.43311 0.70347 0.0
H279 H 0.95571 0.33216 0.26787 0.0
H280 H 0.11852 0.32428 0.25099 0.0
H281 H 0.55044 0.42787 0.63112 0.0
H282 H 0.96923 0.42832 0.72619 0.0
N283 N 0.79502 0.40647 0.53097 0.0
C284 C 0.61248 0.41574 0.53851 0.0
C285 C 0.65711 0.40992 0.49364 0.0
C286 C 0.66146 0.41755 0.58018 0.0
C287 C 0.75413 0.41286 0.57519 0.0
C288 C 0.7493 0.4055 0.4906 0.0
N289 N 0.89813 0.41224 0.60947 0.0
C290 C 0.80726 0.41574 0.61582 0.0
C291 C 0.92285 0.42477 0.69548 0.0
C292 C 0.82853 0.4277 0.70276 0.0
C293 C 0.95696 0.41719 0.64828 0.0
C294 C 0.76972 0.42347 0.66265 0.0
H295 H 0.80238 0.43366 0.73934 0.0
O296 O 1.03479 0.41945 0.55597 0.0
O297 O 0.05476 0.38126 0.49638 0.0
O298 O 1.00921 0.36755 0.54642 0.0
O299 O 0.91963 0.38904 0.58078 0.0
O300 O 0.09638 0.39964 0.55681 0.0
O301 O 0.94411 0.4147 0.49495 0.0
O302 O 0.89791 0.33925 0.441 0.0
O303 O 0.88324 0.37668 0.49907 0.0
O304 O 0.94194 0.39054 0.44642 0.0
O305 O 1.03381 0.36929 0.4167 0.0
O306 O 0.84516 0.35897 0.43585 0.0
O307 O 0.99416 0.3433 0.49934 0.0
C308 C 0.12321 0.38688 0.52428 0.0
C309 C 0.67596 0.42734 0.6678 0.0
C310 C 0.62188 0.42437 0.62661 0.0
C311 C 0.99985 0.42442 0.52628 0.0
C312 C 0.96866 0.44018 0.54814 0.0
C313 C 0.90543 0.44506 0.58654 0.0
C314 C 1.00182 0.45047 0.53097 0.0
C315 C 0.97198 0.46554 0.55243 0.0
C316 C 0.87455 0.45978 0.60728 0.0
C317 C 0.9072 0.46994 0.5904 0.0
C318 C 0.96428 0.3778 0.58353 0.0
C319 C 0.81662 0.37136 0.46959 0.0
C320 C 0.9335 0.33409 0.47004 0.0
C321 C 0.95808 0.31803 0.44788 0.0
C322 C 1.01841 0.3124 0.40824 0.0
C323 C 0.92092 0.30819 0.46591 0.0
C324 C 0.94464 0.29283 0.44448 0.0
C325 C 1.04214 0.29732 0.38695 0.0
C326 C 1.00567 0.2876 0.40479 0.0
C327 C 0.99526 0.38073 0.41231 0.0
H328 H 0.87995 0.43754 0.60075 0.0
H329 H 0.05166 0.44683 0.50171 0.0
H330 H 0.8251 0.46333 0.63667 0.0
H331 H 0.88094 0.48127 0.60693 0.0
H332 H 0.04669 0.31961 0.39337 0.0
H333 H 0.87443 0.3125 0.49666 0.0
H334 H 0.08851 0.29312 0.3562 0.0
H335 H 1.02404 0.27588 0.38678 0.0
Gd336 Gd 0.61681 0.85997 0.96709 0.0
Gd337 Gd 0.64988 0.90093 0.02551 0.0
C338 C 0.94787 0.9121 0.0009 0.0
C339 C 1.01475 0.92055 0.08114 0.0
C340 C 0.85386 0.91252 0.06723 0.0
C341 C 0.86269 0.90951 0.01877 0.0
C342 C 0.92957 0.9184 0.09913 0.0
C343 C 1.02386 0.91741 0.03214 0.0
C344 C 0.9544 0.90931 0.9521 0.0
C345 C 0.87691 0.90438 0.92257 0.0
N346 N 0.78844 0.90408 0.98907 0.0
C347 C 0.79418 0.90201 0.94178 0.0
H348 H 0.73558 0.89885 0.91826 0.0
C349 C 0.75627 0.91583 0.13281 0.0
N350 N 0.77046 0.91042 0.08374 0.0
C351 C 0.8293 0.92142 0.16556 0.0
C352 C 0.91688 0.92243 0.14854 0.0
H353 H 0.68805 0.91637 0.14749 0.0
H354 H 0.08978 0.91928 0.01883 0.0
H355 H 0.4754 0.86014 0.05587 0.0
H356 H 1.01847 0.91113 0.93707 0.0
H357 H 0.8805 0.90253 0.88497 0.0
H358 H 0.0736 0.92489 0.10503 0.0
H359 H 0.65493 0.8412 0.84694 0.0
H360 H 0.21012 0.84436 -0.00459 0.0
H361 H 0.31564 0.85407 0.06581 0.0
H362 H 0.25463 0.82918 0.82551 0.0
H363 H 0.81736 0.9253 0.20408 0.0
H364 H 0.97321 0.92696 0.17407 0.0
H365 H 0.18713 0.83561 0.90598 0.0
H366 H 0.56524 0.82871 0.77123 0.0
N367 N 0.463 0.85437 0.98014 0.0
C368 C 0.28094 0.84699 0.99064 0.0
C369 C 0.34027 0.85246 0.0304 0.0
C370 C 0.31453 0.84456 0.9449 0.0
C371 C 0.40738 0.84822 0.94066 0.0
C372 C 0.43153 0.85598 0.02445 0.0
N373 N 0.53675 0.84689 0.89282 0.0
C374 C 0.44506 0.84467 0.89557 0.0
C375 C 0.53031 0.83328 0.80592 0.0
C376 C 0.43477 0.83202 0.80808 0.0
C377 C 0.58076 0.84036 0.84886 0.0
C378 C 0.39132 0.83728 0.8533 0.0
H379 H 0.3959 0.82634 0.77481 0.0
O380 O 0.69226 0.83909 0.93115 0.0
O381 O 0.72051 0.87864 0.0021 0.0
O382 O 0.59712 0.89381 0.94874 0.0
O383 O 0.6167 0.86794 0.90808 0.0
O384 O 0.7591 0.86064 0.93827 0.0
O385 O 0.6327 0.84481 0.00149 0.0
O386 O 0.60464 0.9229 0.07717 0.0
O387 O 0.54657 0.8823 -0.00649 0.0
O388 O 0.62468 0.86812 0.0486 0.0
O389 O 0.63188 0.89423 0.08637 0.0
O390 O 0.50648 0.90079 0.05501 0.0
O391 O 0.61929 0.91827 0.00154 0.0
C392 C 0.78669 0.87312 0.97227 0.0
C393 C 0.29729 0.83462 0.85751 0.0
C394 C 0.25896 0.83822 0.90329 0.0
C395 C 0.67455 0.83456 0.96456 0.0
C396 C 0.63858 0.81913 0.94785 0.0
C397 C 0.56119 0.81451 0.91743 0.0
C398 C 0.68114 0.8089 0.96237 0.0
C399 C 0.6469 0.79412 0.94605 0.0
C400 C 0.52658 0.80002 0.90155 0.0
C401 C 0.56892 0.78988 0.91566 0.0
C402 C 0.59925 0.8811 0.90883 0.0
C403 C 0.47939 0.88794 0.0225 0.0
C404 C 0.60403 0.92845 0.04535 0.0
C405 C 0.65072 0.94304 0.05926 0.0
C406 C 0.73007 0.94675 0.08843 0.0
C407 C 0.61515 0.95348 0.04366 0.0
C408 C 0.6583 0.96754 0.05729 0.0
C409 C 0.77383 0.96051 0.10139 0.0
C410 C 0.73846 0.97084 0.086 0.0
C411 C 0.62567 0.88108 0.08751 0.0
H412 H 0.52736 0.82207 0.9058 0.0
H413 H 0.74129 0.81238 0.98568 0.0
H414 H 0.46651 0.79663 0.87825 0.0
H415 H 0.53969 0.77875 0.90323 0.0
H416 H 0.75816 0.93913 0.10162 0.0
H417 H 0.55304 0.95074 0.02179 0.0
H418 H 0.83534 0.9632 0.12364 0.0
H419 H 0.77445 0.98138 0.0963 0.0
Gd420 Gd 0.43234 0.11188 0.98155 0.0
Gd421 Gd 0.47028 0.15282 0.03564 0.0
C422 C 0.76994 0.16914 0.06265 0.0
C423 C 0.77804 0.18099 0.15063 0.0
C424 C 0.63437 0.16979 0.10987 0.0
C425 C 0.67671 0.16537 0.06533 0.0
C426 C 0.68353 0.17822 0.15299 0.0
C427 C 0.82121 0.17645 0.10548 0.0
C428 C 0.80794 0.16593 0.01713 0.0
C429 C 0.75239 0.15963 0.97594 0.0
N430 N 0.6249 0.15843 0.02466 0.0
C431 C 0.66048 0.15607 0.98039 0.0
H432 H 0.61947 0.15116 0.94792 0.0
C433 C 0.4935 0.1747 0.15275 0.0
N434 N 0.54234 0.16744 0.11069 0.0
C435 C 0.5393 0.18293 0.19656 0.0
C436 C 0.63508 0.18441 0.19685 0.0
H437 H 0.41933 0.1735 0.15262 0.0
H438 H 0.89329 0.17917 0.10408 0.0
H439 H 0.34201 0.11724 0.09165 0.0
H440 H 0.87922 0.16862 0.01353 0.0
H441 H 0.7805 0.1574 0.94062 0.0
H442 H 0.81731 0.18723 0.1834 0.0
H443 H 0.39624 0.09486 0.85937 0.0
H444 H 0.061 0.10377 0.07216 0.0
H445 H 0.19683 0.11373 0.12508 0.0
H446 H 1.00936 0.08732 0.90255 0.0
H447 H 0.50069 0.18814 0.23001 0.0
H448 H 0.67033 0.19094 0.23075 0.0
H449 H 0.99151 0.09429 0.9896 0.0
H450 H 0.26772 0.08511 0.80251 0.0
N451 N 0.29259 0.10966 0.01886 0.0
C452 C 0.12553 0.10526 0.05679 0.0
C453 C 0.20188 0.11093 0.08675 0.0
C454 C 0.13332 0.10156 0.00734 0.0
C455 C 0.21904 0.10374 0.98901 0.0
C456 C 0.28503 0.113 0.0672 0.0
N457 N 0.31264 0.10172 0.92311 0.0
C458 C 0.22881 0.09997 0.94001 0.0
C459 C 0.25515 0.08956 0.84115 0.0
C460 C 0.16715 0.0889 0.85835 0.0
C461 C 0.3277 0.09558 0.87396 0.0
C462 C 0.15354 0.09371 0.9081 0.0
H463 H 0.11119 0.08405 0.83279 0.0
O464 O 0.47773 0.08961 0.93242 0.0
O465 O 0.53728 0.13033 0.01033 0.0
O466 O 0.46692 0.14373 0.95393 0.0
O467 O 0.44759 0.11777 0.91873 0.0
O468 O 0.57685 0.11108 0.95162 0.0
O469 O 0.46013 0.09515 0.00857 0.0
O470 O 0.3876 0.17315 0.06508 0.0
O471 O 0.36429 0.13434 0.00359 0.0
O472 O 0.48219 0.11956 0.0591 0.0
O473 O 0.49176 0.14572 0.09608 0.0
O474 O 0.32887 0.15276 0.06675 0.0
O475 O 0.46369 0.16743 -0.00113 0.0
C476 C 0.60477 0.12416 0.98214 0.0
C477 C 0.06788 0.09195 0.92648 0.0
C478 C 0.05785 0.09584 0.97597 0.0
C479 C 0.47676 0.08459 0.96556 0.0
C480 C 0.43006 0.07005 0.95288 0.0
C481 C 0.35001 0.06622 0.92424 0.0
C482 C 0.46657 0.05975 0.96883 0.0
C483 C 0.42364 0.04571 0.956 0.0
C484 C 0.30634 0.05251 0.91222 0.0
C485 C 0.34263 0.04232 0.92793 0.0
C486 C 0.45942 0.13061 0.91604 0.0
C487 C 0.29906 0.14025 0.03373 0.0
C488 C 0.41336 0.17749 0.03218 0.0
C489 C 0.44546 0.19317 0.04961 0.0
C490 C 0.52294 0.1981 0.07983 0.0
C491 C 0.40042 0.20324 0.03525 0.0
C492 C 0.43332 0.21809 0.05093 0.0
C493 C 0.55514 0.21272 0.09583 0.0
C494 C 0.51084 0.22266 0.08161 0.0
C495 C 0.4958 0.13252 0.09728 0.0
H496 H 0.32138 0.0737 0.91065 0.0
H497 H 0.52927 0.06255 0.99024 0.0
H498 H 0.24428 0.04974 0.89039 0.0
H499 H 0.30681 0.03179 0.91828 0.0
H500 H 0.55896 0.19068 0.09108 0.0
H501 H 0.34118 0.19946 0.01136 0.0
H502 H 0.6148 0.21637 0.11939 0.0
H503 H 0.53682 0.23402 0.09518 0.0
Gd504 Gd 0.62908 0.15127 0.53491 0.0
Gd505 Gd 0.66628 0.11036 0.47858 0.0
C506 C 0.96433 0.09852 0.49755 0.0
C507 C 1.01706 0.08608 0.41418 0.0
C508 C 0.86039 0.09571 0.432 0.0
C509 C 0.87713 0.1008 0.4812 0.0
C510 C 0.92974 0.088 0.39795 0.0
C511 C 1.03429 0.09131 0.46386 0.0
C512 C 0.97902 0.10358 0.54734 0.0
C513 C 0.90793 0.11071 0.57957 0.0
N514 N 0.80885 0.10809 0.51307 0.0
C515 C 0.82317 0.11289 0.56188 0.0
H516 H 0.7712 0.11879 0.5881 0.0
C517 C 0.75254 0.09083 0.36915 0.0
N518 N 0.77556 0.0978 0.41726 0.0
C519 C 0.81899 0.08325 0.33408 0.0
C520 C 0.90856 0.08207 0.3485 0.0
H521 H 0.6823 0.0911 0.35775 0.0
H522 H 0.10178 0.08963 0.47586 0.0
H523 H 0.45477 0.15161 0.46251 0.0
H524 H 0.04495 0.10206 0.56125 0.0
H525 H 0.91865 0.11472 0.61823 0.0
H526 H 0.07127 0.08033 0.38856 0.0
H527 H 0.71801 0.16772 0.64713 0.0
H528 H 0.22563 0.17416 0.55139 0.0
H529 H 0.29545 0.16065 0.47023 0.0
H530 H 0.34523 0.19183 0.7128 0.0
H531 H 0.80067 0.07815 0.29601 0.0
H532 H 0.95987 0.07609 0.32129 0.0
H533 H 0.24436 0.18554 0.64188 0.0
H534 H 0.66596 0.18354 0.73062 0.0
N535 N 0.47557 0.15944 0.53862 0.0
C536 C 0.29589 0.17018 0.54828 0.0
C537 C 0.33513 0.1626 0.50243 0.0
C538 C 0.34871 0.17292 0.58959 0.0
C539 C 0.43974 0.16743 0.58351 0.0
C540 C 0.42586 0.15747 0.49826 0.0
N541 N 0.58495 0.16615 0.6159 0.0
C542 C 0.49611 0.1709 0.62344 0.0
C543 C 0.61738 0.17999 0.70084 0.0
C544 C 0.52523 0.18438 0.70947 0.0
C545 C 0.64664 0.17104 0.65351 0.0
C546 C 0.46362 0.18005 0.67048 0.0
H547 H 0.50291 0.19139 0.74615 0.0
O548 O 0.72423 0.17004 0.55387 0.0
O549 O 0.73385 0.13285 0.50098 0.0
O550 O 0.6247 0.11802 0.55748 0.0
O551 O 0.58801 0.14349 0.59171 0.0
O552 O 0.77298 0.15111 0.5634 0.0
O553 O 0.62081 0.16615 0.49904 0.0
O554 O 0.60786 0.08856 0.43304 0.0
O555 O 0.5626 0.12865 0.50729 0.0
O556 O 0.60842 0.14159 0.45379 0.0
O557 O 0.67412 0.11777 0.41781 0.0
O558 O 0.52222 0.10971 0.44789 0.0
O559 O 0.6488 0.09363 0.50675 0.0
C560 C 0.80113 0.13869 0.5297 0.0
C561 C 0.37178 0.18494 0.6769 0.0
C562 C 0.31437 0.18136 0.63652 0.0
C563 C 0.68577 0.17508 0.52525 0.0
C564 C 0.66552 0.19132 0.54665 0.0
C565 C 0.60947 0.19769 0.58788 0.0
C566 C 0.70224 0.2006 0.52625 0.0
C567 C 0.68191 0.21609 0.54688 0.0
C568 C 0.58933 0.2129 0.60842 0.0
C569 C 0.6251 0.22205 0.5882 0.0
C570 C 0.59642 0.1305 0.59405 0.0
C571 C 0.49482 0.12268 0.47914 0.0
C572 C 0.61144 0.08382 0.46688 0.0
C573 C 0.53107 0.07532 0.47189 0.0
C574 C 0.4412 0.07896 0.46401 0.0
C575 C 0.54499 0.06298 0.48289 0.0
C576 C 0.46992 0.05408 0.48505 0.0
C577 C 0.36671 0.07027 0.46599 0.0
C578 C 0.38072 0.0579 0.47594 0.0
C579 C 0.63863 0.12979 0.41554 0.0
H580 H 0.58166 0.19098 0.60458 0.0
H581 H 0.74559 0.19577 0.49433 0.0
H582 H 0.54622 0.21765 0.64041 0.0
H583 H 0.60954 0.23389 0.60559 0.0
H584 H 0.42843 0.08838 0.4557 0.0
H585 H 0.61444 0.06043 0.48987 0.0
H586 H 0.29767 0.07304 0.45922 0.0
H587 H 0.32129 0.05121 0.47573 0.0
Gd588 Gd 0.45398 0.90158 0.52398 0.0
Gd589 Gd 0.47762 0.86117 0.47718 0.0
C590 C 0.77639 0.84541 0.4517 0.0
C591 C 0.78106 0.83107 0.36416 0.0
C592 C 0.639 0.84311 0.40395 0.0
C593 C 0.68315 0.84886 0.4484 0.0
C594 C 0.68632 0.83354 0.36166 0.0
C595 C 0.82609 0.83702 0.40916 0.0
C596 C 0.81549 0.84985 0.49774 0.0
C597 C 0.76088 0.85706 0.53895 0.0
N598 N 0.63254 0.85665 0.48884 0.0
C599 C 0.6689 0.86033 0.53376 0.0
H600 H 0.6272 0.86579 0.56568 0.0
C601 C 0.49599 0.83681 0.36284 0.0
N602 N 0.54679 0.84523 0.40324 0.0
C603 C 0.53982 0.82723 0.31991 0.0
C604 C 0.63573 0.8259 0.31896 0.0
H605 H 0.42183 0.83791 0.36348 0.0
H606 H 0.89821 0.83448 0.4109 0.0
H607 H 0.36447 0.90845 0.43121 0.0
H608 H 0.88679 0.84738 0.50184 0.0
H609 H 0.78972 0.86021 0.57471 0.0
H610 H 0.819 0.82397 0.33192 0.0
H611 H 0.42489 0.91254 0.64594 0.0
H612 H 0.07815 0.91724 0.45639 0.0
H613 H 0.21536 0.91324 0.40444 0.0
H614 H 1.03336 0.921 0.61619 0.0
H615 H 0.49969 0.82094 0.28758 0.0
H616 H 0.66946 0.8184 0.28575 0.0
H617 H 1.0111 0.92004 0.53515 0.0
H618 H 0.29905 0.91799 0.70383 0.0
N619 N 0.31359 0.90757 0.49585 0.0
C620 C 0.14379 0.91471 0.46803 0.0
C621 C 0.22083 0.91235 0.4385 0.0
C622 C 0.15323 0.9144 0.51313 0.0
C623 C 0.24038 0.91098 0.52658 0.0
C624 C 0.30566 0.90915 0.45348 0.0
N625 N 0.33818 0.90885 0.58501 0.0
C626 C 0.25281 0.91146 0.57219 0.0
C627 C 0.28441 0.91583 0.66661 0.0
C628 C 0.19488 0.91712 0.65264 0.0
C629 C 0.35575 0.91218 0.63272 0.0
C630 C 0.17856 0.91545 0.60548 0.0
H631 H 0.13981 0.92014 0.67914 0.0
O632 O 0.51573 0.92072 0.58351 0.0
O633 O 0.55586 0.88299 0.50959 0.0
O634 O 0.44778 0.8717 0.5576 0.0
O635 O 0.51052 0.89533 0.58206 0.0
O636 O 0.59273 0.89954 0.48793 0.0
O637 O 0.47526 0.92257 0.51718 0.0
O638 O 0.38826 0.84148 0.45483 0.0
O639 O 0.37544 0.88012 0.50494 0.0
O640 O 0.46085 0.89182 0.44206 0.0
O641 O 0.50448 0.86673 0.41349 0.0
O642 O 0.34404 0.86167 0.44043 0.0
O643 O 0.48045 0.84685 0.51506 0.0
C644 C 0.62003 0.88745 0.49014 0.0
C645 C 0.09115 0.91815 0.59133 0.0
C646 C 0.07855 0.91764 0.54527 0.0
C647 C 0.51173 0.92911 0.56023 0.0
C648 C 0.54555 0.94481 0.58166 0.0
C649 C 0.59897 0.95001 0.62417 0.0
C650 C 0.52904 0.9545 0.55925 0.0
C651 C 0.56779 0.96905 0.57873 0.0
C652 C 0.63664 0.96439 0.64357 0.0
C653 C 0.62181 0.97381 0.62093 0.0
C654 C 0.48242 0.8841 0.59134 0.0
C655 C 0.31458 0.87445 0.47186 0.0
C656 C 0.42205 0.83712 0.48613 0.0
C657 C 0.44938 0.82121 0.46746 0.0
C658 C 0.52966 0.81623 0.43964 0.0
C659 C 0.39695 0.81094 0.47819 0.0
C660 C 0.4242 0.79578 0.46027 0.0
C661 C 0.55637 0.80132 0.42151 0.0
C662 C 0.50412 0.79114 0.43157 0.0
C663 C 0.48769 0.87892 0.40706 0.0
H664 H 0.61295 0.94287 0.64215 0.0
H665 H 0.48798 0.95069 0.52645 0.0
H666 H 0.67807 0.96823 0.6762 0.0
H667 H 0.65181 0.98494 0.63676 0.0
H668 H 0.57264 0.82387 0.43238 0.0
H669 H 0.33543 0.81471 0.50025 0.0
H670 H 0.61861 0.79767 0.40007 0.0
H671 H 0.52786 0.77969 0.41794 0.0
H672 H 0.37215 0.38623 0.06661 0.0
H673 H 0.87271 0.37749 0.93927 0.0
H674 H 0.41331 0.36585 0.91199 0.0
H675 H 0.83495 0.39594 0.09397 0.0
H676 H 0.70469 0.37373 0.92858 0.0
H677 H 0.54015 0.39029 0.07786 0.0
C678 C 0.4163 0.38278 0.03504 0.0
C679 C 0.37777 0.37619 0.98823 0.0
C680 C 0.73299 0.37852 0.96493 0.0
C681 C 0.57142 0.3804 0.00072 0.0
C682 C 0.82925 0.38054 0.97096 0.0
C683 C 0.86869 0.38653 0.01755 0.0
C684 C 0.67484 0.38264 0.00577 0.0
C685 C 0.808 0.39092 0.05733 0.0
C686 C 0.51251 0.385 0.04141 0.0
C687 C 0.43938 0.37133 0.94874 0.0
N688 N 0.71491 0.38879 0.0506 0.0
N689 N 0.53222 0.37364 0.9558 0.0
H690 H 0.19193 0.63589 0.06385 0.0
H691 H 0.6944 0.62758 0.93837 0.0
H692 H 0.23158 0.61743 0.90928 0.0
H693 H 0.65197 0.64687 0.09283 0.0
H694 H 0.52625 0.62386 0.92652 0.0
H695 H 0.35959 0.63996 0.07515 0.0
C696 C 0.23564 0.6329 0.03229 0.0
C697 C 0.19668 0.62676 0.98555 0.0
C698 C 0.5536 0.62886 0.96306 0.0
C699 C 0.39058 0.631 -0.00192 0.0
C700 C 0.64994 0.63089 0.96978 0.0
C701 C 0.68827 0.63704 0.01669 0.0
C702 C 0.4942 0.63321 0.00353 0.0
C703 C 0.62617 0.64172 0.05598 0.0
C704 C 0.33181 0.6351 0.03869 0.0
C705 C 0.25798 0.62252 0.94602 0.0
N706 N 0.53322 0.63959 0.04859 0.0
N707 N 0.35099 0.62479 0.95312 0.0
H708 H 0.83905 0.61852 0.41547 0.0
H709 H 0.40893 0.64397 0.60053 0.0
H710 H 0.87102 0.63602 0.57024 0.0
H711 H 0.3808 0.6317 0.44775 0.0
H712 H 0.57688 0.64127 0.5904 0.0
H713 H 0.67235 0.62306 0.42635 0.0
C714 C 0.81123 0.62366 0.45191 0.0
C715 C 0.87046 0.62758 0.49206 0.0
C716 C 0.53433 0.63908 0.55892 0.0
C717 C 0.67717 0.63228 0.50495 0.0
C718 C 0.43805 0.64058 0.56466 0.0
C719 C 0.37962 0.63743 0.52462 0.0
C720 C 0.57407 0.6346 0.51271 0.0
C721 C 0.42227 0.63364 0.47938 0.0
C722 C 0.71566 0.62617 0.4581 0.0
C723 C 0.82925 0.63348 0.53829 0.0
N724 N 0.51621 0.63217 0.47461 0.0
N725 N 0.73579 0.63567 0.54342 0.0
H726 H 0.68192 0.36685 0.40269 0.0
H727 H 0.25678 0.39094 0.59146 0.0
H728 H 0.71743 0.38127 0.55626 0.0
H729 H 0.22165 0.37552 0.43743 0.0
H730 H 0.42395 0.38737 0.57946 0.0
H731 H 0.51456 0.3698 0.41466 0.0
C732 C 0.65455 0.3708 0.43912 0.0
C733 C 0.71484 0.37425 0.47865 0.0
C734 C 0.37996 0.3846 0.54811 0.0
C735 C 0.52087 0.37739 0.49273 0.0
C736 C 0.28412 0.38659 0.55493 0.0
C737 C 0.22401 0.38312 0.51533 0.0
C738 C 0.41768 0.37931 0.5012 0.0
C739 C 0.26435 0.37791 0.46897 0.0
C740 C 0.55858 0.37244 0.44592 0.0
C741 C 0.67446 0.37892 0.52483 0.0
N742 N 0.35803 0.37616 0.46326 0.0
N743 N 0.58062 0.3804 0.53056 0.0
H744 H 0.884 0.88145 0.05825 0.0
H745 H 0.38333 0.87837 0.93565 0.0
H746 H 0.92138 0.87008 0.9065 0.0
H747 H 0.34411 0.89166 0.08845 0.0
H748 H 0.21524 0.87498 0.92377 0.0
H749 H 0.05208 0.88476 0.06989 0.0
C750 C 0.92745 0.87985 0.02752 0.0
C751 C 0.88798 0.87604 0.98168 0.0
C752 C 0.24329 0.87854 0.9599 0.0
C753 C 0.08161 0.87935 -0.00572 0.0
C754 C 0.3395 0.88035 0.96657 0.0
C755 C 0.3784 0.88474 0.01285 0.0
C756 C 0.18489 0.88129 -0.00012 0.0
C757 C 0.31747 0.88784 0.05193 0.0
C758 C 1.02366 0.88163 0.03404 0.0
C759 C 0.94845 0.87343 0.94274 0.0
N760 N 0.22451 0.88593 0.04456 0.0
N761 N 1.04151 0.87524 0.94993 0.0
H762 H 0.16561 0.1451 0.10175 0.0
H763 H 0.73845 0.11885 0.91417 0.0
H764 H 0.19777 0.13051 0.94793 0.0
H765 H 0.70429 0.1357 0.06871 0.0
H766 H 0.90572 0.12258 0.92565 0.0
H767 H 0.99808 0.14173 0.09056 0.0
C768 C 0.13745 0.14105 0.06545 0.0
C769 C 0.19686 0.13752 0.02554 0.0
C770 C 0.86197 0.12562 0.95721 0.0
C771 C 1.00292 0.13391 0.01237 0.0
C772 C 0.76612 0.12352 0.95068 0.0
C773 C 0.70625 0.12752 0.99061 0.0
C774 C 0.89993 0.13151 0.00418 0.0
C775 C 0.74694 0.13299 0.03693 0.0
C776 C 1.04144 0.13915 0.05909 0.0
C777 C 0.1555 0.13282 0.9796 0.0
N778 N 0.84067 0.13488 0.0424 0.0
N779 N 0.06172 0.13105 0.97427 0.0
H780 H 0.39931 0.13557 0.56641 0.0
H781 H 0.89602 0.12645 0.44167 0.0
H782 H 0.35837 0.11678 0.41184 0.0
H783 H 0.93962 0.1454 0.59605 0.0
H784 H 0.06401 0.12289 0.42953 0.0
H785 H 0.23187 0.13942 0.57793 0.0
C786 C 0.35539 0.13246 0.53489 0.0
C787 C 0.39387 0.12625 0.48807 0.0
C788 C 1.03692 0.12777 0.46611 0.0
C789 C 0.20019 0.13022 0.50088 0.0
C790 C 0.94069 0.1297 0.473 0.0
C791 C 0.9028 0.13576 0.51996 0.0
C792 C 0.09662 0.13216 0.50648 0.0
C793 C 0.96512 0.14036 0.55915 0.0
C794 C 0.25931 0.13454 0.54142 0.0
C795 C 0.3323 0.1219 0.44862 0.0
N796 N 0.05798 0.13838 0.5516 0.0
N797 N 0.23934 0.12402 0.45585 0.0
H798 H 0.73774 0.89261 0.56609 0.0
H799 H 0.19657 0.87387 0.40198 0.0
H800 H 0.73306 0.87654 0.41087 0.0
H801 H 0.19984 0.88 0.55041 0.0
H802 H 1.0281 0.87636 0.40607 0.0
H803 H 0.90671 0.88976 0.56301 0.0
C804 C 0.77221 0.88817 0.53124 0.0
C805 C 0.72072 0.88413 0.48843 0.0
C806 C 0.06535 0.87728 0.43796 0.0
C807 C 0.91505 0.8814 0.48466 0.0
C808 C 0.16177 0.87595 0.43571 0.0
C809 C 0.21299 0.87732 0.47646 0.0
C810 C 1.01853 0.87982 0.48121 0.0
C811 C 0.16364 0.87946 0.51868 0.0
C812 C 0.86879 0.88665 0.52951 0.0
C813 C 0.76961 0.87926 0.44456 0.0
N814 N 0.06959 0.88076 0.52009 0.0
N815 N 0.86346 0.87795 0.44376 0.0
H816 H 0.21264 0.53172 0.96694 0.0
H817 H 0.85834 0.48284 0.04275 0.0
H818 H 0.9456 0.54753 0.0302 0.0
H819 H 0.12232 0.46654 0.97605 0.0
H820 H 0.88969 0.50663 0.03903 0.0
H821 H 0.18185 0.50794 0.97099 0.0
C822 C 0.14765 0.53024 0.9819 0.0
C823 C 0.08171 0.54172 -0.0017 0.0
C824 C 0.94084 0.49786 0.02522 0.0
C825 C 0.04562 0.51436 0.00271 0.0
C826 C 0.92278 0.48421 0.0271 0.0
C827 C 0.9876 0.47257 0.00958 0.0
C828 C 1.02445 0.49998 0.00562 0.0
C829 C 0.07063 0.47519 0.99054 0.0
C830 C 0.12992 0.51661 0.98397 0.0
C831 C 0.99812 0.53899 0.01657 0.0
N832 N 0.08651 0.48857 0.989 0.0
N833 N 0.98263 0.52564 0.01835 0.0
H834 H 1.01811 0.49486 0.60854 0.0
H835 H 0.14584 0.51399 0.38586 0.0
H836 H 1.00579 0.46216 0.45915 0.0
H837 H 0.11536 0.54746 0.53315 0.0
H838 H 0.10152 0.49468 0.41195 0.0
H839 H 0.06222 0.51391 0.58165 0.0
C840 C 1.02445 0.49166 0.56998 0.0
C841 C 1.00699 0.47685 0.53606 0.0
C842 C 0.10423 0.50624 0.43857 0.0
C843 C 0.05885 0.49874 0.50495 0.0
C844 C 0.12982 0.51728 0.42375 0.0
C845 C 0.13486 0.53239 0.45743 0.0
C846 C 0.08398 0.51026 0.48758 0.0
C847 C 0.11188 0.53599 0.50588 0.0
C848 C 0.04992 0.50258 0.55467 0.0
C849 C 1.01887 0.47338 0.48666 0.0
N850 N 0.08803 0.52501 0.51952 0.0
N851 N 1.04372 0.48425 0.4726 0.0
H852 H 0.58596 0.96304 0.9687 0.0
H853 H 0.4981 0.05033 0.04432 0.0
H854 H 0.64487 0.99791 0.11103 0.0
H855 H 0.43768 0.01537 0.90239 0.0
H856 H 0.55474 0.03136 0.06913 0.0
H857 H 0.53026 0.98205 0.94391 0.0
C858 C 0.58658 0.97467 -0.00514 0.0
C859 C 0.62061 0.97886 0.04198 0.0
C860 C 0.52912 0.02784 0.03253 0.0
C861 C 0.55791 1.00074 0.01365 0.0
C862 C 0.49738 0.03869 0.01825 0.0
C863 C 0.46252 0.03446 0.97127 0.0
C864 C 0.52631 0.01263 -0.00042 0.0
C865 C 0.46241 0.01916 0.93923 0.0
C866 C 0.55536 0.98554 0.98058 0.0
C867 C 0.62072 0.99415 0.07409 0.0
N868 N 0.49357 0.00883 0.95398 0.0
N869 N 0.59005 1.00451 0.05934 0.0
H870 H 0.35276 0.04297 0.53355 0.0
H871 H 0.6981 0.98306 0.54806 0.0
H872 H 0.61851 0.03467 0.4628 0.0
H873 H 0.40403 0.97942 0.5603 0.0
H874 H 0.6741 1.003 0.5217 0.0
H875 H 0.37357 0.02101 0.54927 0.0
C876 C 0.41524 0.03653 0.52078 0.0
C877 C 0.4836 0.04082 0.49631 0.0
C878 C 0.61473 0.99773 0.52956 0.0
C879 C 0.50872 0.01567 0.51583 0.0
C880 C 0.62837 0.98635 0.54454 0.0
C881 C 0.55286 0.97956 0.55619 0.0
C882 C 0.52494 1.00264 0.52727 0.0
C883 C 0.46399 0.98429 0.55126 0.0
C884 C 0.42708 0.02397 0.53009 0.0
C885 C 0.56417 0.03209 0.48237 0.0
N886 N 0.45249 0.99567 0.53781 0.0
N887 N 0.57463 0.02003 0.49255 0.0
H888 H 0.32372 0.29247 0.97819 0.0
H889 H 0.24779 0.22285 0.04485 0.0
H890 H 0.05628 0.27657 -0.00224 0.0
H891 H 0.51538 0.23842 0.02394 0.0
H892 H 0.17618 0.24231 0.02688 0.0
H893 H 0.39564 0.27314 -0.00317 0.0
C894 C 0.28016 0.28503 0.9869 0.0
C895 C 0.18377 0.28609 0.98601 0.0
C896 C 0.2506 0.24145 0.02616 0.0
C897 C 0.2655 0.26379 0.00673 0.0
C898 C 0.29147 0.23025 0.03601 0.0
C899 C 0.38782 0.22902 0.03625 0.0
C900 C 0.30638 0.25151 0.01632 0.0
C901 C 0.44089 0.23907 0.02502 0.0
C902 C 0.32119 0.27391 -0.00286 0.0
C903 C 0.13081 0.27602 -0.00284 0.0
N904 N 0.39959 0.24988 0.01568 0.0
N905 N 0.17225 0.2653 0.00686 0.0
H906 H 0.71212 0.79845 0.03585 0.0
H907 H 0.85669 0.71257 0.95172 0.0
H908 H 0.68057 0.76439 0.88938 0.0
H909 H 0.86862 0.74606 0.10001 0.0
H910 H 0.79159 0.73129 0.92797 0.0
H911 H 0.77407 0.77953 0.05952 0.0
C912 C 0.71899 0.78703 0.00856 0.0
C913 C 0.69061 0.78302 0.96059 0.0
C914 C 0.80823 0.73453 0.96575 0.0
C915 C 0.76049 0.76121 0.98754 0.0
C916 C 0.8447 0.7238 0.97938 0.0
C917 C 0.86898 0.72774 0.02789 0.0
C918 C 0.79585 0.74933 0.00084 0.0
C919 C 0.85267 0.74254 0.06203 0.0
C920 C 0.75363 0.77619 0.02217 0.0
C921 C 0.70022 0.76798 0.92694 0.0
N922 N 0.81767 0.75278 0.04785 0.0
N923 N 0.73416 0.75765 0.94104 0.0
H924 H 0.2039 0.74731 0.6155 0.0
H925 H 0.37782 0.76681 0.39986 0.0
H926 H 0.2035 0.71518 0.46529 0.0
H927 H 0.35684 0.7994 0.54889 0.0
H928 H 0.31336 0.74781 0.42257 0.0
H929 H 0.26193 0.76632 0.59153 0.0
C930 C 0.21594 0.74423 0.57736 0.0
C931 C 0.19777 0.7296 0.54232 0.0
C932 C 0.32225 0.75913 0.45029 0.0
C933 C 0.26527 0.75146 0.51455 0.0
C934 C 0.35905 0.77 0.43737 0.0
C935 C 0.37335 0.78473 0.4726 0.0
C936 C 0.2998 0.76294 0.49894 0.0
C937 C 0.34654 0.78824 0.52047 0.0
C938 C 0.24926 0.75513 0.56372 0.0
C939 C 0.21687 0.72626 0.4936 0.0
N940 N 0.31181 0.7774 0.53228 0.0
N941 N 0.24922 0.73711 0.48115 0.0
H942 H 0.7669 0.29105 0.47366 0.0
H943 H 0.85808 0.21707 0.51434 0.0
H944 H 1.03255 0.26983 0.45493 0.0
H945 H 0.59353 0.23868 0.53452 0.0
H946 H 0.9224 0.23578 0.48985 0.0
H947 H 0.70226 0.272 0.4963 0.0
C948 C 0.81191 0.2825 0.47477 0.0
C949 C 0.90532 0.28205 0.46208 0.0
C950 C 0.85017 0.2364 0.4995 0.0
C951 C 0.83132 0.25999 0.48727 0.0
C952 C 0.81324 0.22562 0.51306 0.0
C953 C 0.72037 0.22633 0.5269 0.0
C954 C 0.79385 0.24797 0.49961 0.0
C955 C 0.66587 0.2378 0.52498 0.0
C956 C 0.77476 0.27152 0.48729 0.0
C957 C 0.95985 0.27052 0.46362 0.0
N958 N 0.70339 0.24816 0.51186 0.0
N959 N 0.92211 0.25997 0.47581 0.0
H960 H 0.14039 0.36137 0.11929 0.0
H961 H 0.92244 0.40123 0.38253 0.0
H962 H 0.06102 0.40779 0.17834 0.0
H963 H 0.11541 0.36467 0.34014 0.0
H964 H 0.95627 0.4032 0.30636 0.0
H965 H 0.11401 0.36146 0.19836 0.0
C966 C 0.11785 0.37162 0.1491 0.0
C967 C 0.10342 0.38462 0.14248 0.0
C968 C 0.99092 0.39478 0.31406 0.0
C969 C 0.07173 0.38475 0.23298 0.0
C970 C 0.97149 0.3936 0.35733 0.0
C971 C 1.01454 0.38254 0.36738 0.0
C972 C 0.05289 0.38472 0.28064 0.0
C973 C 0.07835 0.37309 0.3336 0.0
C974 C 0.10303 0.37168 0.19424 0.0
C975 C 0.07419 0.39761 0.18229 0.0
N976 N 0.09481 0.3743 0.29171 0.0
N977 N 0.05829 0.39732 0.22594 0.0
H978 H 0.94123 0.60972 0.11915 0.0
H979 H 0.14594 0.65318 0.38682 0.0
H980 H 0.08007 0.65246 0.16978 0.0
H981 H 1.04249 0.60784 0.32939 0.0
H982 H 0.11974 0.65333 0.30796 0.0
H983 H 0.97623 0.60893 0.19617 0.0
C984 C 0.9789 0.61898 0.14643 0.0
C985 C 1.00635 0.63133 0.13817 0.0
C986 C 0.10335 0.64331 0.31251 0.0
C987 C 0.04664 0.63046 0.22656 0.0
C988 C 0.11805 0.64323 0.35755 0.0
C989 C 0.09697 0.63044 0.36458 0.0
C990 C 0.06637 0.63056 0.27433 0.0
C991 C 0.06118 0.61786 0.32538 0.0
C992 C 0.99892 0.6185 0.19044 0.0
C993 C 0.05553 0.64291 0.17486 0.0
N994 N 0.04661 0.61826 0.28198 0.0
N995 N 0.07374 0.64222 0.21752 0.0
H996 H 0.99935 0.60607 0.82759 0.0
H997 H 0.96798 0.6505 0.6631 0.0
H998 H 0.93244 0.65295 0.88488 0.0
H999 H 0.11882 0.60927 0.62033 0.0
H1000 H 0.93413 0.65017 0.74086 0.0
H1001 H 1.02252 0.60563 0.74759 0.0
C1002 C 0.98764 0.61619 0.82307 0.0
C1003 C 0.96224 0.62949 0.86258 0.0
C1004 C 0.97509 0.64125 0.71454 0.0
C1005 C 0.99044 0.62917 0.77156 0.0
C1006 C 0.99522 0.64149 0.67021 0.0
C1007 C 0.04928 0.63021 0.63562 0.0
C1008 C 1.00766 0.62946 0.72413 0.0
C1009 C 0.07838 0.61838 0.64611 0.0
C1010 C 1.00209 0.61598 0.77758 0.0
C1011 C 0.95174 0.64245 0.85521 0.0
N1012 N 0.05742 0.61834 0.68951 0.0
N1013 N 0.96549 0.64196 0.81047 0.0
H1014 H 0.86607 0.39387 0.66696 0.0
H1015 H 0.13383 0.35856 0.82161 0.0
H1016 H 0.07821 0.36037 0.60891 0.0
H1017 H 0.98466 0.40005 0.88872 0.0
H1018 H 0.09687 0.35726 0.74204 0.0
H1019 H 0.89204 0.39459 0.7473 0.0
C1020 C 0.91853 0.38676 0.67109 0.0
C1021 C 0.9719 0.37738 0.63131 0.0
C1022 C 0.0718 0.36664 0.77407 0.0
C1023 C 0.99976 0.37779 0.72263 0.0
C1024 C 0.09206 0.36728 0.81949 0.0
C1025 C 0.06096 0.37928 0.86163 0.0
C1026 C 1.0198 0.37808 0.77064 0.0
C1027 C 1.00994 0.39061 0.85694 0.0
C1028 C 0.93288 0.38712 0.71688 0.0
C1029 C 1.03613 0.36793 0.63845 0.0
N1030 N 0.9905 0.38971 0.81211 0.0
N1031 N 0.04838 0.36842 0.68318 0.0
H1032 H 0.57429 0.90433 0.17254 0.0
H1033 H 0.53552 0.85504 0.32156 0.0
H1034 H 0.64166 0.85732 0.11123 0.0
H1035 H 0.49408 0.90276 0.38355 0.0
H1036 H 0.57344 0.85535 0.24423 0.0
H1037 H 0.54458 0.90374 0.25004 0.0
C1038 C 0.58466 0.89392 0.1755 0.0
C1039 C 0.6122 0.88091 0.13534 0.0
C1040 C 0.55524 0.86573 0.27473 0.0
C1041 C 0.57529 0.88006 0.22417 0.0
C1042 C 0.533 0.86554 0.319 0.0
C1043 C 0.50863 0.87877 0.35919 0.0
C1044 C 0.5535 0.87932 0.27057 0.0
C1045 C 0.5091 0.89215 0.35351 0.0
C1046 C 0.56665 0.89357 0.21982 0.0
C1047 C 0.62099 0.86764 0.14123 0.0
N1048 N 0.53081 0.89206 0.31011 0.0
N1049 N 0.60241 0.86755 0.18483 0.0
H1050 H 0.46488 0.15411 0.18871 0.0
H1051 H 0.6859 0.10832 0.32416 0.0
H1052 H 0.57763 0.10985 0.11205 0.0
H1053 H 0.56153 0.15195 0.39683 0.0
H1054 H 0.65343 0.10877 0.24619 0.0
H1055 H 0.50647 0.15368 0.26528 0.0
C1056 C 0.49988 0.1444 0.18795 0.0
C1057 C 0.51956 0.13216 0.14388 0.0
C1058 C 0.63332 0.11822 0.27932 0.0
C1059 C 0.56529 0.13133 0.23178 0.0
C1060 C 0.65165 0.11795 0.32398 0.0
C1061 C 0.62528 0.12998 0.3675 0.0
C1062 C 0.58875 0.13065 0.27816 0.0
C1063 C 0.58258 0.1423 0.36455 0.0
C1064 C 0.52275 0.14406 0.23179 0.0
C1065 C 0.56143 0.11957 0.14526 0.0
N1066 N 0.56553 0.14228 0.32081 0.0
N1067 N 0.58313 0.11948 0.18854 0.0
H1068 H 0.43366 0.1535 0.88963 0.0
H1069 H 0.62729 0.10774 0.62099 0.0
H1070 H 0.51262 0.10704 0.83205 0.0
H1071 H 0.50158 0.15127 0.67091 0.0
H1072 H 0.58695 0.10723 0.69809 0.0
H1073 H 0.46058 0.15303 0.8099 0.0
C1074 C 0.45605 0.14317 0.86014 0.0
C1075 C 0.47023 0.13026 0.86742 0.0
C1076 C 0.56819 0.1169 0.6921 0.0
C1077 C 0.50187 0.12966 0.77619 0.0
C1078 C 0.59122 0.1172 0.64807 0.0
C1079 C 0.56939 0.12972 0.63971 0.0
C1080 C 0.52323 0.12921 0.72808 0.0
C1081 C 0.52208 0.14159 0.67611 0.0
C1082 C 0.47121 0.14289 0.8146 0.0
C1083 C 0.49927 0.11718 0.8279 0.0
N1084 N 0.50111 0.14109 0.71876 0.0
N1085 N 0.51468 0.11724 0.78405 0.0
H1086 H 0.35881 0.87691 0.64505 0.0
H1087 H 0.69887 0.86819 0.82579 0.0
H1088 H 0.63705 0.89269 0.64714 0.0
H1089 H 0.45903 0.89538 0.88702 0.0
H1090 H 0.67016 0.86999 0.74885 0.0
H1091 H 0.38579 0.87688 0.72478 0.0
C1092 C 0.42536 0.88038 0.66247 0.0
C1093 C 0.49589 0.88485 0.64005 0.0
C1094 C 0.62408 0.87552 0.77927 0.0
C1095 C 0.52757 0.88437 0.72932 0.0
C1096 C 0.63993 0.87443 0.82276 0.0
C1097 C 0.58121 0.8817 0.86238 0.0
C1098 C 0.54734 0.88347 0.77522 0.0
C1099 C 0.50594 0.88972 0.85711 0.0
C1100 C 0.44045 0.8804 0.70767 0.0
C1101 C 0.58097 0.88929 0.66375 0.0
N1102 N 0.49021 0.89024 0.81392 0.0
N1103 N 0.59518 0.88869 0.70693 0.0
loop_
_geom_bond_atom_site_label_1
_geom_bond_atom_site_label_2
_geom_bond_distance
_geom_bond_site_symmetry_2
_ccdc_geom_bond_type
Gd0 N31 2.661 1_456 S
Gd0 N37 2.601 1_455 S
Gd0 O44 2.545 . S
Gd0 O45 2.606 1_556 S
Gd0 O47 2.429 . S
Gd0 O48 2.545 . S
Gd0 O49 2.412 . S
Gd0 O51 2.362 1_455 S
Gd0 O52 2.324 1_556 S
Gd0 C59 2.828 . S
Gd1 N10 2.661 . S
Gd1 N14 2.601 . S
Gd1 O45 2.362 . S
Gd1 O46 2.324 1_554 S
Gd1 O50 2.545 . S
Gd1 O51 2.606 1_454 S
Gd1 O53 2.429 . S
Gd1 O54 2.545 1_455 S
Gd1 O55 2.412 . S
Gd1 C68 2.828 . S
C2 C5 1.417 . S
C2 C7 1.431 . S
C2 C8 1.412 1_554 S
C3 C6 1.437 . S
C3 C7 1.317 . S
C3 H22 0.929 . S
C4 C5 1.426 . S
C4 C6 1.413 . S
C4 N14 1.359 . S
C5 C2 1.417 . S
C5 C4 1.426 . S
C5 N10 1.350 . S
C6 C3 1.437 . S
C6 C4 1.413 . S
C6 C16 1.391 . S
C7 C2 1.431 . S
C7 C3 1.317 . S
C7 H18 0.930 . S
C8 C2 1.412 1_556 S
C8 C9 1.355 . S
C8 H20 0.930 . S
C9 C8 1.355 . S
C9 C11 1.402 . S
C9 H21 0.930 . S
N10 Gd1 2.661 . S
N10 C5 1.350 . S
N10 C11 1.307 1_554 S
C11 C9 1.402 . S
C11 N10 1.307 1_556 S
C11 H12 0.930 . S
H12 C11 0.930 . S
C13 N14 1.334 . S
C13 C15 1.394 . S
C13 H17 0.930 . S
N14 Gd1 2.601 . S
N14 C4 1.359 . S
N14 C13 1.334 . S
C15 C13 1.394 . S
C15 C16 1.359 . S
C15 H27 0.930 . S
C16 C6 1.391 . S
C16 C15 1.359 . S
C16 H28 0.929 . S
H17 C13 0.930 . S
H18 C7 0.930 . S
H19 C36 0.930 . S
H20 C8 0.930 . S
H21 C9 0.930 . S
H22 C3 0.929 . S
H23 C41 0.930 1_455 S
H24 C32 0.930 . S
H25 C33 0.930 . S
H26 C57 0.929 . S
H27 C15 0.930 . S
H28 C16 0.929 . S
H29 C58 0.930 . S
H30 C39 0.930 . S
N31 Gd0 2.661 1_654 S
N31 C35 1.350 1_554 S
N31 C36 1.307 . S
C32 H24 0.930 . S
C32 C33 1.355 . S
C32 C34 1.412 1_554 S
C33 H25 0.930 . S
C33 C32 1.355 . S
C33 C36 1.402 . S
C34 C32 1.412 1_556 S
C34 C35 1.417 . S
C34 C58 1.431 . S
C35 N31 1.350 1_556 S
C35 C34 1.417 . S
C35 C38 1.426 . S
C36 H19 0.930 . S
C36 N31 1.307 . S
C36 C33 1.402 . S
N37 Gd0 2.601 1_655 S
N37 C38 1.359 . S
N37 C41 1.334 . S
C38 C35 1.426 . S
C38 N37 1.359 . S
C38 C42 1.413 . S
C39 H30 0.930 . S
C39 C40 1.359 . S
C39 C41 1.394 . S
C40 C39 1.359 . S
C40 C42 1.391 . S
C40 H43 0.929 . S
C41 H23 0.930 1_655 S
C41 N37 1.334 . S
C41 C39 1.394 . S
C42 C38 1.413 . S
C42 C40 1.391 . S
C42 C57 1.437 . S
H43 C40 0.929 . S
O44 Gd0 2.545 . S
O44 C59 1.258 . S
O45 Gd0 2.606 1_554 S
O45 Gd1 2.362 . S
O45 C56 1.284 . S
O46 Gd1 2.324 1_556 S
O46 C66 1.254 . S
O47 Gd0 2.429 . S
O47 C66 1.268 . S
O48 Gd0 2.545 . S
O48 C56 1.250 1_556 S
O49 Gd0 2.412 . S
O49 C59 1.252 . S
O50 Gd1 2.545 . S
O50 C68 1.258 . S
O51 Gd0 2.362 1_655 S
O51 Gd1 2.606 1_656 S
O51 C67 1.284 1_556 S
O52 Gd0 2.324 1_554 S
O52 C75 1.254 . S
O53 Gd1 2.429 . S
O53 C75 1.268 . S
O54 Gd1 2.545 1_655 S
O54 C67 1.250 . S
O55 Gd1 2.412 . S
O55 C68 1.252 . S
C56 O45 1.284 . S
C56 O48 1.250 1_554 S
C57 H26 0.929 . S
C57 C42 1.437 . S
C57 C58 1.317 . S
C58 H29 0.930 . S
C58 C34 1.431 . S
C58 C57 1.317 . S
C59 Gd0 2.828 . S
C59 O44 1.258 . S
C59 O49 1.252 . S
C59 C60 1.497 . S
C60 C59 1.497 . S
C60 C61 1.395 . S
C60 C62 1.380 . S
C61 C60 1.395 . S
C61 C64 1.398 . S
C61 H76 0.930 . S
C62 C60 1.380 . S
C62 C63 1.391 . S
C62 H77 0.930 1_556 S
C63 C62 1.391 . S
C63 C65 1.387 . S
C64 C61 1.398 . S
C64 C65 1.380 . S
C64 H78 0.930 . S
C65 C63 1.387 . S
C65 C64 1.380 . S
C65 H79 0.930 . S
C66 O46 1.254 . S
C66 O47 1.268 . S
C67 O51 1.284 1_554 S
C67 O54 1.250 . S
C68 Gd1 2.828 . S
C68 O50 1.258 . S
C68 O55 1.252 . S
C68 C69 1.497 1_455 S
C69 C68 1.497 1_655 S
C69 C70 1.395 . S
C69 C71 1.380 . S
C70 C69 1.395 . S
C70 C73 1.398 . S
C70 H80 0.930 1_655 S
C71 C69 1.380 . S
C71 C72 1.391 . S
C71 H81 0.930 1_554 S
C72 C71 1.391 . S
C72 C74 1.387 . S
C73 C70 1.398 . S
C73 C74 1.380 . S
C73 H82 0.930 . S
C74 C72 1.387 . S
C74 C73 1.380 . S
C74 H83 0.930 . S
C75 O52 1.254 . S
C75 O53 1.268 . S
H76 C61 0.930 . S
H77 C62 0.930 1_554 S
H78 C64 0.930 . S
H79 C65 0.930 . S
H80 C70 0.930 1_455 S
H81 C71 0.930 1_556 S
H82 C73 0.930 . S
H83 C74 0.930 . S
Gd84 N115 2.661 1_556 S
Gd84 N121 2.601 . S
Gd84 O128 2.545 . S
Gd84 O129 2.606 1_656 S
Gd84 O131 2.429 . S
Gd84 O132 2.545 1_655 S
Gd84 O133 2.412 1_556 S
Gd84 O135 2.362 1_556 S
Gd84 O136 2.324 1_556 S
Gd84 C143 2.828 . S
Gd85 N94 2.661 1_655 S
Gd85 N98 2.601 1_655 S
Gd85 O129 2.362 1_655 S
Gd85 O130 2.324 1_554 S
Gd85 O134 2.545 . S
Gd85 O135 2.606 . S
Gd85 O137 2.429 . S
Gd85 O138 2.545 . S
Gd85 O139 2.412 . S
Gd85 C152 2.828 . S
C86 C89 1.417 . S
C86 C91 1.431 . S
C86 C92 1.412 1_554 S
C87 C90 1.437 . S
C87 C91 1.317 . S
C87 H106 0.929 . S
C88 C89 1.426 . S
C88 C90 1.413 . S
C88 N98 1.359 . S
C89 C86 1.417 . S
C89 C88 1.426 . S
C89 N94 1.350 . S
C90 C87 1.437 . S
C90 C88 1.413 . S
C90 C100 1.391 . S
C91 C86 1.431 . S
C91 C87 1.317 . S
C91 H102 0.930 . S
C92 C86 1.412 1_556 S
C92 C93 1.355 . S
C92 H104 0.930 . S
C93 C92 1.355 . S
C93 C95 1.402 . S
C93 H105 0.930 . S
N94 Gd85 2.661 1_455 S
N94 C89 1.350 . S
N94 C95 1.307 1_554 S
C95 C93 1.402 . S
C95 N94 1.307 1_556 S
C95 H96 0.930 . S
H96 C95 0.930 . S
C97 N98 1.334 . S
C97 C99 1.394 . S
C97 H101 0.930 1_455 S
N98 Gd85 2.601 1_455 S
N98 C88 1.359 . S
N98 C97 1.334 . S
C99 C97 1.394 . S
C99 C100 1.359 . S
C99 H111 0.930 . S
C100 C90 1.391 . S
C100 C99 1.359 . S
C100 H112 0.929 . S
H101 C97 0.930 1_655 S
H102 C91 0.930 . S
H103 C120 0.930 . S
H104 C92 0.930 . S
H105 C93 0.930 . S
H106 C87 0.929 . S
H107 C125 0.930 . S
H108 C116 0.930 . S
H109 C117 0.930 . S
H110 C141 0.929 . S
H111 C99 0.930 . S
H112 C100 0.929 . S
H113 C142 0.930 . S
H114 C123 0.930 . S
N115 Gd84 2.661 1_554 S
N115 C119 1.350 1_554 S
N115 C120 1.307 . S
C116 H108 0.930 . S
C116 C117 1.355 . S
C116 C118 1.412 1_554 S
C117 H109 0.930 . S
C117 C116 1.355 . S
C117 C120 1.402 . S
C118 C116 1.412 1_556 S
C118 C119 1.417 . S
C118 C142 1.431 . S
C119 N115 1.350 1_556 S
C119 C118 1.417 . S
C119 C122 1.426 . S
C120 H103 0.930 . S
C120 N115 1.307 . S
C120 C117 1.402 . S
N121 Gd84 2.601 . S
N121 C122 1.359 . S
N121 C125 1.334 . S
C122 C119 1.426 . S
C122 N121 1.359 . S
C122 C126 1.413 . S
C123 H114 0.930 . S
C123 C124 1.359 . S
C123 C125 1.394 . S
C124 C123 1.359 . S
C124 C126 1.391 . S
C124 H127 0.929 . S
C125 H107 0.930 . S
C125 N121 1.334 . S
C125 C123 1.394 . S
C126 C122 1.413 . S
C126 C124 1.391 . S
C126 C141 1.437 . S
H127 C124 0.929 . S
O128 Gd84 2.545 . S
O128 C143 1.258 . S
O129 Gd84 2.606 1_454 S
O129 Gd85 2.362 1_455 S
O129 C140 1.284 . S
O130 Gd85 2.324 1_556 S
O130 C150 1.254 . S
O131 Gd84 2.429 . S
O131 C150 1.268 . S
O132 Gd84 2.545 1_455 S
O132 C140 1.250 1_556 S
O133 Gd84 2.412 1_554 S
O133 C143 1.252 1_554 S
O134 Gd85 2.545 . S
O134 C152 1.258 . S
O135 Gd84 2.362 1_554 S
O135 Gd85 2.606 . S
O135 C151 1.284 . S
O136 Gd84 2.324 1_554 S
O136 C159 1.254 . S
O137 Gd85 2.429 . S
O137 C159 1.268 . S
O138 Gd85 2.545 . S
O138 C151 1.250 . S
O139 Gd85 2.412 . S
O139 C152 1.252 . S
C140 O129 1.284 . S
C140 O132 1.250 1_554 S
C141 H110 0.929 . S
C141 C126 1.437 . S
C141 C142 1.317 . S
C142 H113 0.930 . S
C142 C118 1.431 . S
C142 C141 1.317 . S
C143 Gd84 2.828 . S
C143 O128 1.258 . S
C143 O133 1.252 1_556 S
C143 C144 1.497 1_655 S
C144 C143 1.497 1_455 S
C144 C145 1.395 . S
C144 C146 1.380 . S
C145 C144 1.395 . S
C145 C148 1.398 . S
C145 H160 0.930 1_455 S
C146 C144 1.380 . S
C146 C147 1.391 . S
C146 H161 0.930 1_556 S
C147 C146 1.391 . S
C147 C149 1.387 . S
C148 C145 1.398 . S
C148 C149 1.380 . S
C148 H162 0.930 . S
C149 C147 1.387 . S
C149 C148 1.380 . S
C149 H163 0.930 . S
C150 O130 1.254 . S
C150 O131 1.268 . S
C151 O135 1.284 . S
C151 O138 1.250 . S
C152 Gd85 2.828 . S
C152 O134 1.258 . S
C152 O139 1.252 . S
C152 C153 1.497 . S
C153 C152 1.497 . S
C153 C154 1.395 . S
C153 C155 1.380 . S
C154 C153 1.395 . S
C154 C157 1.398 . S
C154 H164 0.930 . S
C155 C153 1.380 . S
C155 C156 1.391 . S
C155 H165 0.943 . S
C156 C155 1.391 . S
C156 C158 1.387 . S
C157 C154 1.398 . S
C157 C158 1.380 . S
C157 H166 0.930 . S
C158 C156 1.387 . S
C158 C157 1.380 . S
C158 H167 0.930 . S
C159 O136 1.254 . S
C159 O137 1.268 . S
H160 C145 0.930 1_655 S
H161 C146 0.930 1_554 S
H162 C148 0.930 . S
H163 C149 0.930 . S
H164 C154 0.930 . S
H165 C155 0.943 . S
H166 C157 0.930 . S
H167 C158 0.930 . S
Gd168 N199 2.661 1_455 S
Gd168 N205 2.601 1_455 S
Gd168 O212 2.545 . S
Gd168 O213 2.606 . S
Gd168 O215 2.429 . S
Gd168 O216 2.545 . S
Gd168 O217 2.412 . S
Gd168 O219 2.362 1_455 S
Gd168 O220 2.324 . S
Gd168 C227 2.828 . S
Gd169 N178 2.661 . S
Gd169 N182 2.601 . S
Gd169 O213 2.362 . S
Gd169 O214 2.324 . S
Gd169 O218 2.545 . S
Gd169 O219 2.606 1_455 S
Gd169 O221 2.429 . S
Gd169 O222 2.545 1_455 S
Gd169 O223 2.412 . S
Gd169 C236 2.828 . S
C170 C173 1.417 . S
C170 C175 1.431 . S
C170 C176 1.412 . S
C171 C174 1.437 . S
C171 C175 1.317 . S
C171 H190 0.929 . S
C172 C173 1.426 . S
C172 C174 1.413 . S
C172 N182 1.359 . S
C173 C170 1.417 . S
C173 C172 1.426 . S
C173 N178 1.350 . S
C174 C171 1.437 . S
C174 C172 1.413 . S
C174 C184 1.391 . S
C175 C170 1.431 . S
C175 C171 1.317 . S
C175 H186 0.930 . S
C176 C170 1.412 . S
C176 C177 1.355 . S
C176 H188 0.930 . S
C177 C176 1.355 . S
C177 C179 1.402 . S
C177 H189 0.930 . S
N178 Gd169 2.661 . S
N178 C173 1.350 . S
N178 C179 1.307 . S
C179 C177 1.402 . S
C179 N178 1.307 . S
C179 H180 0.930 . S
H180 C179 0.930 . S
C181 N182 1.334 . S
C181 C183 1.394 . S
C181 H185 0.930 . S
N182 Gd169 2.601 . S
N182 C172 1.359 . S
N182 C181 1.334 . S
C183 C181 1.394 . S
C183 C184 1.359 . S
C183 H195 0.930 . S
C184 C174 1.391 . S
C184 C183 1.359 . S
C184 H196 0.929 . S
H185 C181 0.930 . S
H186 C175 0.930 . S
H187 C204 0.930 . S
H188 C176 0.930 . S
H189 C177 0.930 . S
H190 C171 0.929 . S
H191 C209 0.930 1_455 S
H192 C200 0.930 . S
H193 C201 0.930 . S
H194 C225 0.929 . S
H195 C183 0.930 . S
H196 C184 0.929 . S
H197 C226 0.930 . S
H198 C207 0.930 . S
N199 Gd168 2.661 1_655 S
N199 C203 1.350 . S
N199 C204 1.307 . S
C200 H192 0.930 . S
C200 C201 1.355 . S
C200 C202 1.412 . S
C201 H193 0.930 . S
C201 C200 1.355 . S
C201 C204 1.402 . S
C202 C200 1.412 . S
C202 C203 1.417 . S
C202 C226 1.431 . S
C203 N199 1.350 . S
C203 C202 1.417 . S
C203 C206 1.426 . S
C204 H187 0.930 . S
C204 N199 1.307 . S
C204 C201 1.402 . S
N205 Gd168 2.601 1_655 S
N205 C206 1.359 . S
N205 C209 1.334 . S
C206 C203 1.426 . S
C206 N205 1.359 . S
C206 C210 1.413 . S
C207 H198 0.930 . S
C207 C208 1.359 . S
C207 C209 1.394 . S
C208 C207 1.359 . S
C208 C210 1.391 . S
C208 H211 0.929 . S
C209 H191 0.930 1_655 S
C209 N205 1.334 . S
C209 C207 1.394 . S
C210 C206 1.413 . S
C210 C208 1.391 . S
C210 C225 1.437 . S
H211 C208 0.929 . S
O212 Gd168 2.545 . S
O212 C227 1.258 . S
O213 Gd168 2.606 . S
O213 Gd169 2.362 . S
O213 C224 1.284 . S
O214 Gd169 2.324 . S
O214 C234 1.254 . S
O215 Gd168 2.429 . S
O215 C234 1.268 . S
O216 Gd168 2.545 . S
O216 C224 1.250 . S
O217 Gd168 2.412 . S
O217 C227 1.252 . S
O218 Gd169 2.545 . S
O218 C236 1.258 . S
O219 Gd168 2.362 1_655 S
O219 Gd169 2.606 1_655 S
O219 C235 1.284 . S
O220 Gd168 2.324 . S
O220 C243 1.254 . S
O221 Gd169 2.429 . S
O221 C243 1.268 . S
O222 Gd169 2.545 1_655 S
O222 C235 1.250 . S
O223 Gd169 2.412 . S
O223 C236 1.252 . S
C224 O213 1.284 . S
C224 O216 1.250 . S
C225 H194 0.929 . S
C225 C210 1.437 . S
C225 C226 1.317 . S
C226 H197 0.930 . S
C226 C202 1.431 . S
C226 C225 1.317 . S
C227 Gd168 2.828 . S
C227 O212 1.258 . S
C227 O217 1.252 . S
C227 C228 1.497 . S
C228 C227 1.497 . S
C228 C229 1.395 . S
C228 C230 1.380 . S
C229 C228 1.395 . S
C229 C232 1.398 . S
C229 H244 0.930 . S
C230 C228 1.380 . S
C230 C231 1.391 . S
C230 H245 0.930 . S
C231 C230 1.391 . S
C231 C233 1.387 . S
C232 C229 1.398 . S
C232 C233 1.380 . S
C232 H246 0.930 . S
C233 C231 1.387 . S
C233 C232 1.380 . S
C233 H247 0.930 . S
C234 O214 1.254 . S
C234 O215 1.268 . S
C235 O219 1.284 . S
C235 O222 1.250 . S
C236 Gd169 2.828 . S
C236 O218 1.258 . S
C236 O223 1.252 . S
C236 C237 1.497 1_455 S
C237 C236 1.497 1_655 S
C237 C238 1.395 . S
C237 C239 1.380 . S
C238 C237 1.395 . S
C238 C241 1.398 . S
C238 H248 0.930 1_655 S
C239 C237 1.380 . S
C239 C240 1.391 . S
C239 H249 0.930 . S
C240 C239 1.391 . S
C240 C242 1.387 . S
C241 C238 1.398 . S
C241 C242 1.380 . S
C241 H250 0.930 . S
C242 C240 1.387 . S
C242 C241 1.380 . S
C242 H251 0.930 . S
C243 O220 1.254 . S
C243 O221 1.268 . S
H244 C229 0.930 . S
H245 C230 0.930 . S
H246 C232 0.930 . S
H247 C233 0.930 . S
H248 C238 0.930 1_455 S
H249 C239 0.930 . S
H250 C241 0.930 . S
H251 C242 0.930 . S
Gd252 N283 2.661 . S
Gd252 N289 2.601 . S
Gd252 O296 2.545 . S
Gd252 O297 2.606 1_655 S
Gd252 O299 2.429 . S
Gd252 O300 2.545 1_655 S
Gd252 O301 2.412 . S
Gd252 O303 2.362 . S
Gd252 O304 2.324 . S
Gd252 C311 2.828 . S
Gd253 N262 2.661 1_655 S
Gd253 N266 2.601 1_655 S
Gd253 O297 2.362 1_655 S
Gd253 O298 2.324 . S
Gd253 O302 2.545 . S
Gd253 O303 2.606 . S
Gd253 O305 2.429 . S
Gd253 O306 2.545 . S
Gd253 O307 2.412 . S
Gd253 C320 2.828 . S
C254 C257 1.417 . S
C254 C259 1.431 . S
C254 C260 1.412 . S
C255 C258 1.437 . S
C255 C259 1.317 . S
C255 H274 0.929 . S
C256 C257 1.426 . S
C256 C258 1.413 . S
C256 N266 1.359 . S
C257 C254 1.417 . S
C257 C256 1.426 . S
C257 N262 1.350 . S
C258 C255 1.437 . S
C258 C256 1.413 . S
C258 C268 1.391 . S
C259 C254 1.431 . S
C259 C255 1.317 . S
C259 H270 0.930 . S
C260 C254 1.412 . S
C260 C261 1.355 . S
C260 H272 0.930 . S
C261 C260 1.355 . S
C261 C263 1.402 . S
C261 H273 0.930 . S
N262 Gd253 2.661 1_455 S
N262 C257 1.350 . S
N262 C263 1.307 . S
C263 C261 1.402 . S
C263 N262 1.307 . S
C263 H264 0.930 . S
H264 C263 0.930 . S
C265 N266 1.334 . S
C265 C267 1.394 . S
C265 H269 0.930 1_455 S
N266 Gd253 2.601 1_455 S
N266 C256 1.359 . S
N266 C265 1.334 . S
C267 C265 1.394 . S
C267 C268 1.359 . S
C267 H279 0.930 . S
C268 C258 1.391 . S
C268 C267 1.359 . S
C268 H280 0.929 . S
H269 C265 0.930 1_655 S
H270 C259 0.930 . S
H271 C288 0.930 . S
H272 C260 0.930 . S
H273 C261 0.930 . S
H274 C255 0.929 . S
H275 C293 0.930 . S
H276 C284 0.930 . S
H277 C285 0.930 . S
H278 C309 0.929 . S
H279 C267 0.930 . S
H280 C268 0.929 . S
H281 C310 0.930 . S
H282 C291 0.930 . S
N283 Gd252 2.661 . S
N283 C287 1.350 . S
N283 C288 1.307 . S
C284 H276 0.930 . S
C284 C285 1.355 . S
C284 C286 1.412 . S
C285 H277 0.930 . S
C285 C284 1.355 . S
C285 C288 1.402 . S
C286 C284 1.412 . S
C286 C287 1.417 . S
C286 C310 1.431 . S
C287 N283 1.350 . S
C287 C286 1.417 . S
C287 C290 1.426 . S
C288 H271 0.930 . S
C288 N283 1.307 . S
C288 C285 1.402 . S
N289 Gd252 2.601 . S
N289 C290 1.359 . S
N289 C293 1.334 . S
C290 C287 1.426 . S
C290 N289 1.359 . S
C290 C294 1.413 . S
C291 H282 0.930 . S
C291 C292 1.359 . S
C291 C293 1.394 . S
C292 C291 1.359 . S
C292 C294 1.391 . S
C292 H295 0.929 . S
C293 H275 0.930 . S
C293 N289 1.334 . S
C293 C291 1.394 . S
C294 C290 1.413 . S
C294 C292 1.391 . S
C294 C309 1.437 . S
H295 C292 0.929 . S
O296 Gd252 2.545 . S
O296 C311 1.258 . S
O297 Gd252 2.606 1_455 S
O297 Gd253 2.362 1_455 S
O297 C308 1.284 . S
O298 Gd253 2.324 . S
O298 C318 1.254 . S
O299 Gd252 2.429 . S
O299 C318 1.268 . S
O300 Gd252 2.545 1_455 S
O300 C308 1.250 . S
O301 Gd252 2.412 . S
O301 C311 1.252 . S
O302 Gd253 2.545 . S
O302 C320 1.258 . S
O303 Gd252 2.362 . S
O303 Gd253 2.606 . S
O303 C319 1.284 . S
O304 Gd252 2.324 . S
O304 C327 1.254 . S
O305 Gd253 2.429 . S
O305 C327 1.268 . S
O306 Gd253 2.545 . S
O306 C319 1.250 . S
O307 Gd253 2.412 . S
O307 C320 1.252 . S
C308 O297 1.284 . S
C308 O300 1.250 . S
C309 H278 0.929 . S
C309 C294 1.437 . S
C309 C310 1.317 . S
C310 H281 0.930 . S
C310 C286 1.431 . S
C310 C309 1.317 . S
C311 Gd252 2.828 . S
C311 O296 1.258 . S
C311 O301 1.252 . S
C311 C312 1.497 1_655 S
C312 C311 1.497 1_455 S
C312 C313 1.395 . S
C312 C314 1.380 . S
C313 C312 1.395 . S
C313 C316 1.398 . S
C313 H328 0.930 1_455 S
C314 C312 1.380 . S
C314 C315 1.391 . S
C314 H329 0.930 . S
C315 C314 1.391 . S
C315 C317 1.387 . S
C316 C313 1.398 . S
C316 C317 1.380 . S
C316 H330 0.930 . S
C317 C315 1.387 . S
C317 C316 1.380 . S
C317 H331 0.930 . S
C318 O298 1.254 . S
C318 O299 1.268 . S
C319 O303 1.284 . S
C319 O306 1.250 . S
C320 Gd253 2.828 . S
C320 O302 1.258 . S
C320 O307 1.252 . S
C320 C321 1.497 . S
C321 C320 1.497 . S
C321 C322 1.395 . S
C321 C323 1.380 . S
C322 C321 1.395 . S
C322 C325 1.398 . S
C322 H332 0.930 . S
C323 C321 1.380 . S
C323 C324 1.391 . S
C323 H333 0.930 . S
C324 C323 1.391 . S
C324 C326 1.387 . S
C325 C322 1.398 . S
C325 C326 1.380 . S
C325 H334 0.930 . S
C326 C324 1.387 . S
C326 C325 1.380 . S
C326 H335 0.930 . S
C327 O304 1.254 . S
C327 O305 1.268 . S
H328 C313 0.930 1_655 S
H329 C314 0.930 . S
H330 C316 0.930 . S
H331 C317 0.930 . S
H332 C322 0.930 . S
H333 C323 0.930 . S
H334 C325 0.930 . S
H335 C326 0.930 . S
Gd336 N367 2.661 1_556 S
Gd336 N373 2.601 . S
Gd336 O380 2.545 . S
Gd336 O381 2.606 1_556 S
Gd336 O383 2.429 . S
Gd336 O384 2.545 . S
Gd336 O385 2.412 . S
Gd336 O387 2.362 . S
Gd336 O388 2.324 1_556 S
Gd336 C395 2.828 . S
Gd337 N346 2.661 . S
Gd337 N350 2.601 . S
Gd337 O381 2.362 . S
Gd337 O382 2.324 1_554 S
Gd337 O386 2.545 . S
Gd337 O387 2.606 1_554 S
Gd337 O389 2.429 . S
Gd337 O390 2.545 . S
Gd337 O391 2.412 . S
Gd337 C404 2.828 . S
C338 C341 1.417 . S
C338 C343 1.431 . S
C338 C344 1.412 1_554 S
C339 C342 1.437 . S
C339 C343 1.317 . S
C339 H358 0.929 . S
C340 C341 1.426 . S
C340 C342 1.413 . S
C340 N350 1.359 . S
C341 C338 1.417 . S
C341 C340 1.426 . S
C341 N346 1.350 . S
C342 C339 1.437 . S
C342 C340 1.413 . S
C342 C352 1.391 . S
C343 C338 1.431 . S
C343 C339 1.317 . S
C343 H354 0.930 . S
C344 C338 1.412 1_556 S
C344 C345 1.355 . S
C344 H356 0.930 . S
C345 C344 1.355 . S
C345 C347 1.402 . S
C345 H357 0.930 . S
N346 Gd337 2.661 . S
N346 C341 1.350 . S
N346 C347 1.307 1_554 S
C347 C345 1.402 . S
C347 N346 1.307 1_556 S
C347 H348 0.930 . S
H348 C347 0.930 . S
C349 N350 1.334 . S
C349 C351 1.394 . S
C349 H353 0.930 . S
N350 Gd337 2.601 . S
N350 C340 1.359 . S
N350 C349 1.334 . S
C351 C349 1.394 . S
C351 C352 1.359 . S
C351 H363 0.930 . S
C352 C342 1.391 . S
C352 C351 1.359 . S
C352 H364 0.929 . S
H353 C349 0.930 . S
H354 C343 0.930 . S
H355 C372 0.930 . S
H356 C344 0.930 . S
H357 C345 0.930 . S
H358 C339 0.929 . S
H359 C377 0.930 . S
H360 C368 0.930 . S
H361 C369 0.930 . S
H362 C393 0.929 . S
H363 C351 0.930 . S
H364 C352 0.929 . S
H365 C394 0.930 . S
H366 C375 0.930 . S
N367 Gd336 2.661 1_554 S
N367 C371 1.350 1_554 S
N367 C372 1.307 . S
C368 H360 0.930 . S
C368 C369 1.355 . S
C368 C370 1.412 1_554 S
C369 H361 0.930 . S
C369 C368 1.355 . S
C369 C372 1.402 . S
C370 C368 1.412 1_556 S
C370 C371 1.417 . S
C370 C394 1.431 . S
C371 N367 1.350 1_556 S
C371 C370 1.417 . S
C371 C374 1.426 . S
C372 H355 0.930 . S
C372 N367 1.307 . S
C372 C369 1.402 . S
N373 Gd336 2.601 . S
N373 C374 1.359 . S
N373 C377 1.334 . S
C374 C371 1.426 . S
C374 N373 1.359 . S
C374 C378 1.413 . S
C375 H366 0.930 . S
C375 C376 1.359 . S
C375 C377 1.394 . S
C376 C375 1.359 . S
C376 C378 1.391 . S
C376 H379 0.929 . S
C377 H359 0.930 . S
C377 N373 1.334 . S
C377 C375 1.394 . S
C378 C374 1.413 . S
C378 C376 1.391 . S
C378 C393 1.437 . S
H379 C376 0.929 . S
O380 Gd336 2.545 . S
O380 C395 1.258 . S
O381 Gd336 2.606 1_554 S
O381 Gd337 2.362 . S
O381 C392 1.284 . S
O382 Gd337 2.324 1_556 S
O382 C402 1.254 . S
O383 Gd336 2.429 . S
O383 C402 1.268 . S
O384 Gd336 2.545 . S
O384 C392 1.250 1_556 S
O385 Gd336 2.412 . S
O385 C395 1.252 . S
O386 Gd337 2.545 . S
O386 C404 1.258 . S
O387 Gd336 2.362 . S
O387 Gd337 2.606 1_556 S
O387 C403 1.284 1_556 S
O388 Gd336 2.324 1_554 S
O388 C411 1.254 . S
O389 Gd337 2.429 . S
O389 C411 1.268 . S
O390 Gd337 2.545 . S
O390 C403 1.250 . S
O391 Gd337 2.412 . S
O391 C404 1.252 . S
C392 O381 1.284 . S
C392 O384 1.250 1_554 S
C393 H362 0.929 . S
C393 C378 1.437 . S
C393 C394 1.317 . S
C394 H365 0.930 . S
C394 C370 1.431 . S
C394 C393 1.317 . S
C395 Gd336 2.828 . S
C395 O380 1.258 . S
C395 O385 1.252 . S
C395 C396 1.497 . S
C396 C395 1.497 . S
C396 C397 1.395 . S
C396 C398 1.380 . S
C397 C396 1.395 . S
C397 C400 1.398 . S
C397 H412 0.930 . S
C398 C396 1.380 . S
C398 C399 1.391 . S
C398 H413 0.930 1_556 S
C399 C398 1.391 . S
C399 C401 1.387 . S
C400 C397 1.398 . S
C400 C401 1.380 . S
C400 H414 0.930 . S
C401 C399 1.387 . S
C401 C400 1.380 . S
C401 H415 0.930 . S
C402 O382 1.254 . S
C402 O383 1.268 . S
C403 O387 1.284 1_554 S
C403 O390 1.250 . S
C404 Gd337 2.828 . S
C404 O386 1.258 . S
C404 O391 1.252 . S
C404 C405 1.497 . S
C405 C404 1.497 . S
C405 C406 1.395 . S
C405 C407 1.380 . S
C406 C405 1.395 . S
C406 C409 1.398 . S
C406 H416 0.930 . S
C407 C405 1.380 . S
C407 C408 1.391 . S
C407 H417 0.930 1_554 S
C408 C407 1.391 . S
C408 C410 1.387 . S
C409 C406 1.398 . S
C409 C410 1.380 . S
C409 H418 0.930 . S
C410 C408 1.387 . S
C410 C409 1.380 . S
C410 H419 0.930 . S
C411 O388 1.254 . S
C411 O389 1.268 . S
H412 C397 0.930 . S
H413 C398 0.930 1_554 S
H414 C400 0.930 . S
H415 C401 0.930 . S
H416 C406 0.930 . S
H417 C407 0.930 1_556 S
H418 C409 0.930 . S
H419 C410 0.930 . S
Gd420 N451 2.661 1_556 S
Gd420 N457 2.601 . S
Gd420 O464 2.545 . S
Gd420 O465 2.606 1_556 S
Gd420 O467 2.429 . S
Gd420 O468 2.545 . S
Gd420 O469 2.412 1_556 S
Gd420 O471 2.362 1_556 S
Gd420 O472 2.324 1_556 S
Gd420 C479 2.828 . S
Gd421 N430 2.661 . S
Gd421 N434 2.601 . S
Gd421 O465 2.362 . S
Gd421 O466 2.324 1_554 S
Gd421 O470 2.545 . S
Gd421 O471 2.606 . S
Gd421 O473 2.429 . S
Gd421 O474 2.545 . S
Gd421 O475 2.412 . S
Gd421 C488 2.828 . S
C422 C425 1.417 . S
C422 C427 1.431 . S
C422 C428 1.412 1_554 S
C423 C426 1.437 . S
C423 C427 1.317 . S
C423 H442 0.929 . S
C424 C425 1.426 . S
C424 C426 1.413 . S
C424 N434 1.359 . S
C425 C422 1.417 . S
C425 C424 1.426 . S
C425 N430 1.350 . S
C426 C423 1.437 . S
C426 C424 1.413 . S
C426 C436 1.391 . S
C427 C422 1.431 . S
C427 C423 1.317 . S
C427 H438 0.930 . S
C428 C422 1.412 1_556 S
C428 C429 1.355 . S
C428 H440 0.930 . S
C429 C428 1.355 . S
C429 C431 1.402 . S
C429 H441 0.930 . S
N430 Gd421 2.661 . S
N430 C425 1.350 . S
N430 C431 1.307 1_554 S
C431 C429 1.402 . S
C431 N430 1.307 1_556 S
C431 H432 0.930 . S
H432 C431 0.930 . S
C433 N434 1.334 . S
C433 C435 1.394 . S
C433 H437 0.930 . S
N434 Gd421 2.601 . S
N434 C424 1.359 . S
N434 C433 1.334 . S
C435 C433 1.394 . S
C435 C436 1.359 . S
C435 H447 0.930 . S
C436 C426 1.391 . S
C436 C435 1.359 . S
C436 H448 0.929 . S
H437 C433 0.930 . S
H438 C427 0.930 . S
H439 C456 0.930 . S
H440 C428 0.930 . S
H441 C429 0.930 . S
H442 C423 0.929 . S
H443 C461 0.930 . S
H444 C452 0.930 . S
H445 C453 0.930 . S
H446 C477 0.929 . S
H447 C435 0.930 . S
H448 C436 0.929 . S
H449 C478 0.930 . S
H450 C459 0.930 . S
N451 Gd420 2.661 1_554 S
N451 C455 1.350 1_554 S
N451 C456 1.307 . S
C452 H444 0.930 . S
C452 C453 1.355 . S
C452 C454 1.412 1_554 S
C453 H445 0.930 . S
C453 C452 1.355 . S
C453 C456 1.402 . S
C454 C452 1.412 1_556 S
C454 C455 1.417 . S
C454 C478 1.431 . S
C455 N451 1.350 1_556 S
C455 C454 1.417 . S
C455 C458 1.426 . S
C456 H439 0.930 . S
C456 N451 1.307 . S
C456 C453 1.402 . S
N457 Gd420 2.601 . S
N457 C458 1.359 . S
N457 C461 1.334 . S
C458 C455 1.426 . S
C458 N457 1.359 . S
C458 C462 1.413 . S
C459 H450 0.930 . S
C459 C460 1.359 . S
C459 C461 1.394 . S
C460 C459 1.359 . S
C460 C462 1.391 . S
C460 H463 0.929 . S
C461 H443 0.930 . S
C461 N457 1.334 . S
C461 C459 1.394 . S
C462 C458 1.413 . S
C462 C460 1.391 . S
C462 C477 1.437 . S
H463 C460 0.929 . S
O464 Gd420 2.545 . S
O464 C479 1.258 . S
O465 Gd420 2.606 1_554 S
O465 Gd421 2.362 . S
O465 C476 1.284 . S
O466 Gd421 2.324 1_556 S
O466 C486 1.254 . S
O467 Gd420 2.429 . S
O467 C486 1.268 . S
O468 Gd420 2.545 . S
O468 C476 1.250 1_556 S
O469 Gd420 2.412 1_554 S
O469 C479 1.252 1_554 S
O470 Gd421 2.545 . S
O470 C488 1.258 . S
O471 Gd420 2.362 1_554 S
O471 Gd421 2.606 . S
O471 C487 1.284 . S
O472 Gd420 2.324 1_554 S
O472 C495 1.254 . S
O473 Gd421 2.429 . S
O473 C495 1.268 . S
O474 Gd421 2.545 . S
O474 C487 1.250 . S
O475 Gd421 2.412 . S
O475 C488 1.252 . S
C476 O465 1.284 . S
C476 O468 1.250 1_554 S
C477 H446 0.929 . S
C477 C462 1.437 . S
C477 C478 1.317 . S
C478 H449 0.930 . S
C478 C454 1.431 . S
C478 C477 1.317 . S
C479 Gd420 2.828 . S
C479 O464 1.258 . S
C479 O469 1.252 1_556 S
C479 C480 1.497 . S
C480 C479 1.497 . S
C480 C481 1.395 . S
C480 C482 1.380 . S
C481 C480 1.395 . S
C481 C484 1.398 . S
C481 H496 0.930 . S
C482 C480 1.380 . S
C482 C483 1.391 . S
C482 H497 0.930 1_556 S
C483 C482 1.391 . S
C483 C485 1.387 . S
C484 C481 1.398 . S
C484 C485 1.380 . S
C484 H498 0.930 . S
C485 C483 1.387 . S
C485 C484 1.380 . S
C485 H499 0.930 . S
C486 O466 1.254 . S
C486 O467 1.268 . S
C487 O471 1.284 . S
C487 O474 1.250 . S
C488 Gd421 2.828 . S
C488 O470 1.258 . S
C488 O475 1.252 . S
C488 C489 1.497 . S
C489 C488 1.497 . S
C489 C490 1.395 . S
C489 C491 1.380 . S
C490 C489 1.395 . S
C490 C493 1.398 . S
C490 H500 0.930 . S
C491 C489 1.380 . S
C491 C492 1.391 . S
C491 H501 0.942 . S
C492 C491 1.391 . S
C492 C494 1.387 . S
C493 C490 1.398 . S
C493 C494 1.380 . S
C493 H502 0.930 . S
C494 C492 1.387 . S
C494 C493 1.380 . S
C494 H503 0.930 . S
C495 O472 1.254 . S
C495 O473 1.268 . S
H496 C481 0.930 . S
H497 C482 0.930 1_554 S
H498 C484 0.930 . S
H499 C485 0.930 . S
H500 C490 0.930 . S
H501 C491 0.942 . S
H502 C493 0.930 . S
H503 C494 0.930 . S
Gd504 N535 2.661 . S
Gd504 N541 2.601 . S
Gd504 O548 2.545 . S
Gd504 O549 2.606 . S
Gd504 O551 2.429 . S
Gd504 O552 2.545 . S
Gd504 O553 2.412 . S
Gd504 O555 2.362 . S
Gd504 O556 2.324 . S
Gd504 C563 2.828 . S
Gd505 N514 2.661 . S
Gd505 N518 2.601 . S
Gd505 O549 2.362 . S
Gd505 O550 2.324 . S
Gd505 O554 2.545 . S
Gd505 O555 2.606 . S
Gd505 O557 2.429 . S
Gd505 O558 2.545 . S
Gd505 O559 2.412 . S
Gd505 C572 2.828 . S
C506 C509 1.417 . S
C506 C511 1.431 . S
C506 C512 1.412 . S
C507 C510 1.437 . S
C507 C511 1.317 . S
C507 H526 0.929 . S
C508 C509 1.426 . S
C508 C510 1.413 . S
C508 N518 1.359 . S
C509 C506 1.417 . S
C509 C508 1.426 . S
C509 N514 1.350 . S
C510 C507 1.437 . S
C510 C508 1.413 . S
C510 C520 1.391 . S
C511 C506 1.431 . S
C511 C507 1.317 . S
C511 H522 0.930 . S
C512 C506 1.412 . S
C512 C513 1.355 . S
C512 H524 0.930 . S
C513 C512 1.355 . S
C513 C515 1.402 . S
C513 H525 0.930 . S
N514 Gd505 2.661 . S
N514 C509 1.350 . S
N514 C515 1.307 . S
C515 C513 1.402 . S
C515 N514 1.307 . S
C515 H516 0.930 . S
H516 C515 0.930 . S
C517 N518 1.334 . S
C517 C519 1.394 . S
C517 H521 0.930 . S
N518 Gd505 2.601 . S
N518 C508 1.359 . S
N518 C517 1.334 . S
C519 C517 1.394 . S
C519 C520 1.359 . S
C519 H531 0.930 . S
C520 C510 1.391 . S
C520 C519 1.359 . S
C520 H532 0.929 . S
H521 C517 0.930 . S
H522 C511 0.930 . S
H523 C540 0.930 . S
H524 C512 0.930 . S
H525 C513 0.930 . S
H526 C507 0.929 . S
H527 C545 0.930 . S
H528 C536 0.930 . S
H529 C537 0.930 . S
H530 C561 0.929 . S
H531 C519 0.930 . S
H532 C520 0.929 . S
H533 C562 0.930 . S
H534 C543 0.930 . S
N535 Gd504 2.661 . S
N535 C539 1.350 . S
N535 C540 1.307 . S
C536 H528 0.930 . S
C536 C537 1.355 . S
C536 C538 1.412 . S
C537 H529 0.930 . S
C537 C536 1.355 . S
C537 C540 1.402 . S
C538 C536 1.412 . S
C538 C539 1.417 . S
C538 C562 1.431 . S
C539 N535 1.350 . S
C539 C538 1.417 . S
C539 C542 1.426 . S
C540 H523 0.930 . S
C540 N535 1.307 . S
C540 C537 1.402 . S
N541 Gd504 2.601 . S
N541 C542 1.359 . S
N541 C545 1.334 . S
C542 C539 1.426 . S
C542 N541 1.359 . S
C542 C546 1.413 . S
C543 H534 0.930 . S
C543 C544 1.359 . S
C543 C545 1.394 . S
C544 C543 1.359 . S
C544 C546 1.391 . S
C544 H547 0.929 . S
C545 H527 0.930 . S
C545 N541 1.334 . S
C545 C543 1.394 . S
C546 C542 1.413 . S
C546 C544 1.391 . S
C546 C561 1.437 . S
H547 C544 0.929 . S
O548 Gd504 2.545 . S
O548 C563 1.258 . S
O549 Gd504 2.606 . S
O549 Gd505 2.362 . S
O549 C560 1.284 . S
O550 Gd505 2.324 . S
O550 C570 1.254 . S
O551 Gd504 2.429 . S
O551 C570 1.268 . S
O552 Gd504 2.545 . S
O552 C560 1.250 . S
O553 Gd504 2.412 . S
O553 C563 1.252 . S
O554 Gd505 2.545 . S
O554 C572 1.258 . S
O555 Gd504 2.362 . S
O555 Gd505 2.606 . S
O555 C571 1.284 . S
O556 Gd504 2.324 . S
O556 C579 1.254 . S
O557 Gd505 2.429 . S
O557 C579 1.268 . S
O558 Gd505 2.545 . S
O558 C571 1.250 . S
O559 Gd505 2.412 . S
O559 C572 1.252 . S
C560 O549 1.284 . S
C560 O552 1.250 . S
C561 H530 0.929 . S
C561 C546 1.437 . S
C561 C562 1.317 . S
C562 H533 0.930 . S
C562 C538 1.431 . S
C562 C561 1.317 . S
C563 Gd504 2.828 . S
C563 O548 1.258 . S
C563 O553 1.252 . S
C563 C564 1.497 . S
C564 C563 1.497 . S
C564 C565 1.395 . S
C564 C566 1.380 . S
C565 C564 1.395 . S
C565 C568 1.398 . S
C565 H580 0.930 . S
C566 C564 1.380 . S
C566 C567 1.391 . S
C566 H581 0.930 . S
C567 C566 1.391 . S
C567 C569 1.387 . S
C568 C565 1.398 . S
C568 C569 1.380 . S
C568 H582 0.930 . S
C569 C567 1.387 . S
C569 C568 1.380 . S
C569 H583 0.930 . S
C570 O550 1.254 . S
C570 O551 1.268 . S
C571 O555 1.284 . S
C571 O558 1.250 . S
C572 Gd505 2.828 . S
C572 O554 1.258 . S
C572 O559 1.252 . S
C572 C573 1.497 . S
C573 C572 1.497 . S
C573 C574 1.395 . S
C573 C575 1.380 . S
C574 C573 1.395 . S
C574 C577 1.398 . S
C574 H584 0.930 . S
C575 C573 1.380 . S
C575 C576 1.391 . S
C575 H585 0.930 . S
C576 C575 1.391 . S
C576 C578 1.387 . S
C577 C574 1.398 . S
C577 C578 1.380 . S
C577 H586 0.930 . S
C578 C576 1.387 . S
C578 C577 1.380 . S
C578 H587 0.930 . S
C579 O556 1.254 . S
C579 O557 1.268 . S
H580 C565 0.930 . S
H581 C566 0.930 . S
H582 C568 0.930 . S
H583 C569 0.930 . S
H584 C574 0.930 . S
H585 C575 0.930 . S
H586 C577 0.930 . S
H587 C578 0.930 . S
Gd588 N619 2.661 . S
Gd588 N625 2.601 . S
Gd588 O632 2.545 . S
Gd588 O633 2.606 . S
Gd588 O635 2.429 . S
Gd588 O636 2.545 . S
Gd588 O637 2.412 . S
Gd588 O639 2.362 . S
Gd588 O640 2.324 . S
Gd588 C647 2.828 . S
Gd589 N598 2.661 . S
Gd589 N602 2.601 . S
Gd589 O633 2.362 . S
Gd589 O634 2.324 . S
Gd589 O638 2.545 . S
Gd589 O639 2.606 . S
Gd589 O641 2.429 . S
Gd589 O642 2.545 . S
Gd589 O643 2.412 . S
Gd589 C656 2.828 . S
C590 C593 1.417 . S
C590 C595 1.431 . S
C590 C596 1.412 . S
C591 C594 1.437 . S
C591 C595 1.317 . S
C591 H610 0.929 . S
C592 C593 1.426 . S
C592 C594 1.413 . S
C592 N602 1.359 . S
C593 C590 1.417 . S
C593 C592 1.426 . S
C593 N598 1.350 . S
C594 C591 1.437 . S
C594 C592 1.413 . S
C594 C604 1.391 . S
C595 C590 1.431 . S
C595 C591 1.317 . S
C595 H606 0.930 . S
C596 C590 1.412 . S
C596 C597 1.355 . S
C596 H608 0.930 . S
C597 C596 1.355 . S
C597 C599 1.402 . S
C597 H609 0.930 . S
N598 Gd589 2.661 . S
N598 C593 1.350 . S
N598 C599 1.307 . S
C599 C597 1.402 . S
C599 N598 1.307 . S
C599 H600 0.930 . S
H600 C599 0.930 . S
C601 N602 1.334 . S
C601 C603 1.394 . S
C601 H605 0.930 . S
N602 Gd589 2.601 . S
N602 C592 1.359 . S
N602 C601 1.334 . S
C603 C601 1.394 . S
C603 C604 1.359 . S
C603 H615 0.930 . S
C604 C594 1.391 . S
C604 C603 1.359 . S
C604 H616 0.929 . S
H605 C601 0.930 . S
H606 C595 0.930 . S
H607 C624 0.930 . S
H608 C596 0.930 . S
H609 C597 0.930 . S
H610 C591 0.929 . S
H611 C629 0.930 . S
H612 C620 0.930 . S
H613 C621 0.930 . S
H614 C645 0.929 . S
H615 C603 0.930 . S
H616 C604 0.929 . S
H617 C646 0.930 . S
H618 C627 0.930 . S
N619 Gd588 2.661 . S
N619 C623 1.350 . S
N619 C624 1.307 . S
C620 H612 0.930 . S
C620 C621 1.355 . S
C620 C622 1.412 . S
C621 H613 0.930 . S
C621 C620 1.355 . S
C621 C624 1.402 . S
C622 C620 1.412 . S
C622 C623 1.417 . S
C622 C646 1.431 . S
C623 N619 1.350 . S
C623 C622 1.417 . S
C623 C626 1.426 . S
C624 H607 0.930 . S
C624 N619 1.307 . S
C624 C621 1.402 . S
N625 Gd588 2.601 . S
N625 C626 1.359 . S
N625 C629 1.334 . S
C626 C623 1.426 . S
C626 N625 1.359 . S
C626 C630 1.413 . S
C627 H618 0.930 . S
C627 C628 1.359 . S
C627 C629 1.394 . S
C628 C627 1.359 . S
C628 C630 1.391 . S
C628 H631 0.929 . S
C629 H611 0.930 . S
C629 N625 1.334 . S
C629 C627 1.394 . S
C630 C626 1.413 . S
C630 C628 1.391 . S
C630 C645 1.437 . S
H631 C628 0.929 . S
O632 Gd588 2.545 . S
O632 C647 1.258 . S
O633 Gd588 2.606 . S
O633 Gd589 2.362 . S
O633 C644 1.284 . S
O634 Gd589 2.324 . S
O634 C654 1.254 . S
O635 Gd588 2.429 . S
O635 C654 1.268 . S
O636 Gd588 2.545 . S
O636 C644 1.250 . S
O637 Gd588 2.412 . S
O637 C647 1.252 . S
O638 Gd589 2.545 . S
O638 C656 1.258 . S
O639 Gd588 2.362 . S
O639 Gd589 2.606 . S
O639 C655 1.284 . S
O640 Gd588 2.324 . S
O640 C663 1.254 . S
O641 Gd589 2.429 . S
O641 C663 1.268 . S
O642 Gd589 2.545 . S
O642 C655 1.250 . S
O643 Gd589 2.412 . S
O643 C656 1.252 . S
C644 O633 1.284 . S
C644 O636 1.250 . S
C645 H614 0.929 . S
C645 C630 1.437 . S
C645 C646 1.317 . S
C646 H617 0.930 . S
C646 C622 1.431 . S
C646 C645 1.317 . S
C647 Gd588 2.828 . S
C647 O632 1.258 . S
C647 O637 1.252 . S
C647 C648 1.497 . S
C648 C647 1.497 . S
C648 C649 1.395 . S
C648 C650 1.380 . S
C649 C648 1.395 . S
C649 C652 1.398 . S
C649 H664 0.930 . S
C650 C648 1.380 . S
C650 C651 1.391 . S
C650 H665 0.930 . S
C651 C650 1.391 . S
C651 C653 1.387 . S
C652 C649 1.398 . S
C652 C653 1.380 . S
C652 H666 0.930 . S
C653 C651 1.387 . S
C653 C652 1.380 . S
C653 H667 0.930 . S
C654 O634 1.254 . S
C654 O635 1.268 . S
C655 O639 1.284 . S
C655 O642 1.250 . S
C656 Gd589 2.828 . S
C656 O638 1.258 . S
C656 O643 1.252 . S
C656 C657 1.497 . S
C657 C656 1.497 . S
C657 C658 1.395 . S
C657 C659 1.380 . S
C658 C657 1.395 . S
C658 C661 1.398 . S
C658 H668 0.930 . S
C659 C657 1.380 . S
C659 C660 1.391 . S
C659 H669 0.930 . S
C660 C659 1.391 . S
C660 C662 1.387 . S
C661 C658 1.398 . S
C661 C662 1.380 . S
C661 H670 0.930 . S
C662 C660 1.387 . S
C662 C661 1.380 . S
C662 H671 0.930 . S
C663 O640 1.254 . S
C663 O641 1.268 . S
H664 C649 0.930 . S
H665 C650 0.930 . S
H666 C652 0.930 . S
H667 C653 0.930 . S
H668 C658 0.930 . S
H669 C659 0.930 . S
H670 C661 0.930 . S
H671 C662 0.930 . S
H672 C678 0.930 . S
H673 C682 0.930 . S
H674 C687 0.929 . S
H675 C685 0.929 . S
H676 C680 0.929 . S
H677 C686 0.929 . S
C678 H672 0.930 . S
C678 C679 1.367 . S
C678 C686 1.378 . S
C679 C678 1.367 . S
C679 C687 1.433 1_554 S
C680 H676 0.929 . S
C680 C682 1.378 . S
C680 C684 1.350 1_556 S
C681 C684 1.463 . S
C681 C686 1.350 . S
C681 N689 1.427 1_554 S
C682 H673 0.930 . S
C682 C680 1.378 . S
C682 C683 1.367 . S
C683 C682 1.367 . S
C683 C685 1.433 1_556 S
C684 C680 1.350 1_554 S
C684 C681 1.463 . S
C684 N688 1.427 . S
C685 H675 0.929 . S
C685 C683 1.433 1_554 S
C685 N688 1.384 . S
C686 H677 0.929 . S
C686 C678 1.378 . S
C686 C681 1.350 . S
C687 H674 0.929 . S
C687 C679 1.433 1_556 S
C687 N689 1.384 . S
N688 C684 1.427 . S
N688 C685 1.384 . S
N689 C681 1.427 1_556 S
N689 C687 1.384 . S
H690 C696 0.930 . S
H691 C700 0.930 . S
H692 C705 0.929 1_556 S
H693 C703 0.929 . S
H694 C698 0.929 . S
H695 C704 0.929 . S
C696 H690 0.930 . S
C696 C697 1.367 . S
C696 C704 1.378 . S
C697 C696 1.367 . S
C697 C705 1.433 . S
C698 H694 0.929 . S
C698 C700 1.378 . S
C698 C702 1.350 1_556 S
C699 C702 1.463 . S
C699 C704 1.350 . S
C699 N707 1.427 . S
C700 H691 0.930 . S
C700 C698 1.378 . S
C700 C701 1.367 1_556 S
C701 C700 1.367 1_554 S
C701 C703 1.433 . S
C702 C698 1.350 1_554 S
C702 C699 1.463 . S
C702 N706 1.427 . S
C703 H693 0.929 . S
C703 C701 1.433 . S
C703 N706 1.384 . S
C704 H695 0.929 . S
C704 C696 1.378 . S
C704 C699 1.350 . S
C705 H692 0.929 1_554 S
C705 C697 1.433 . S
C705 N707 1.384 . S
N706 C702 1.427 . S
N706 C703 1.384 . S
N707 C699 1.427 . S
N707 C705 1.384 . S
H708 C714 0.930 . S
H709 C718 0.930 . S
H710 C723 0.929 . S
H711 C721 0.929 . S
H712 C716 0.929 . S
H713 C722 0.929 . S
C714 H708 0.930 . S
C714 C715 1.367 . S
C714 C722 1.378 . S
C715 C714 1.367 . S
C715 C723 1.433 . S
C716 H712 0.929 . S
C716 C718 1.378 . S
C716 C720 1.350 . S
C717 C720 1.463 . S
C717 C722 1.350 . S
C717 N725 1.427 . S
C718 H709 0.930 . S
C718 C716 1.378 . S
C718 C719 1.367 . S
C719 C718 1.367 . S
C719 C721 1.433 . S
C720 C716 1.350 . S
C720 C717 1.463 . S
C720 N724 1.427 . S
C721 H711 0.929 . S
C721 C719 1.433 . S
C721 N724 1.384 . S
C722 H713 0.929 . S
C722 C714 1.378 . S
C722 C717 1.350 . S
C723 H710 0.929 . S
C723 C715 1.433 . S
C723 N725 1.384 . S
N724 C720 1.427 . S
N724 C721 1.384 . S
N725 C717 1.427 . S
N725 C723 1.384 . S
H726 C732 0.930 . S
H727 C736 0.930 . S
H728 C741 0.929 . S
H729 C739 0.929 . S
H730 C734 0.929 . S
H731 C740 0.929 . S
C732 H726 0.930 . S
C732 C733 1.367 . S
C732 C740 1.378 . S
C733 C732 1.367 . S
C733 C741 1.433 . S
C734 H730 0.929 . S
C734 C736 1.378 . S
C734 C738 1.350 . S
C735 C738 1.463 . S
C735 C740 1.350 . S
C735 N743 1.427 . S
C736 H727 0.930 . S
C736 C734 1.378 . S
C736 C737 1.367 . S
C737 C736 1.367 . S
C737 C739 1.433 . S
C738 C734 1.350 . S
C738 C735 1.463 . S
C738 N742 1.427 . S
C739 H729 0.929 . S
C739 C737 1.433 . S
C739 N742 1.384 . S
C740 H731 0.929 . S
C740 C732 1.378 . S
C740 C735 1.350 . S
C741 H728 0.929 . S
C741 C733 1.433 . S
C741 N743 1.384 . S
N742 C738 1.427 . S
N742 C739 1.384 . S
N743 C735 1.427 . S
N743 C741 1.384 . S
H744 C750 0.930 . S
H745 C754 0.930 . S
H746 C759 0.929 . S
H747 C757 0.929 . S
H748 C752 0.929 . S
H749 C758 0.929 1_455 S
C750 H744 0.930 . S
C750 C751 1.367 . S
C750 C758 1.378 . S
C751 C750 1.367 . S
C751 C759 1.433 1_554 S
C752 H748 0.929 . S
C752 C754 1.378 . S
C752 C756 1.350 1_556 S
C753 C756 1.463 . S
C753 C758 1.350 1_455 S
C753 N761 1.427 1_454 S
C754 H745 0.930 . S
C754 C752 1.378 . S
C754 C755 1.367 . S
C755 C754 1.367 . S
C755 C757 1.433 1_556 S
C756 C752 1.350 1_554 S
C756 C753 1.463 . S
C756 N760 1.427 . S
C757 H747 0.929 . S
C757 C755 1.433 1_554 S
C757 N760 1.384 . S
C758 H749 0.929 1_655 S
C758 C750 1.378 . S
C758 C753 1.350 1_655 S
C759 H746 0.929 . S
C759 C751 1.433 1_556 S
C759 N761 1.384 . S
N760 C756 1.427 . S
N760 C757 1.384 . S
N761 C753 1.427 1_656 S
N761 C759 1.384 . S
H762 C768 0.930 . S
H763 C772 0.930 1_556 S
H764 C777 0.929 . S
H765 C775 0.929 . S
H766 C770 0.929 1_556 S
H767 C776 0.929 1_655 S
C768 H762 0.930 . S
C768 C769 1.367 . S
C768 C776 1.378 . S
C769 C768 1.367 . S
C769 C777 1.433 1_554 S
C770 H766 0.929 1_554 S
C770 C772 1.379 . S
C770 C774 1.349 . S
C771 C774 1.463 . S
C771 C776 1.350 1_655 S
C771 N779 1.427 1_654 S
C772 H763 0.930 1_554 S
C772 C770 1.379 . S
C772 C773 1.367 . S
C773 C772 1.367 . S
C773 C775 1.433 . S
C774 C770 1.349 . S
C774 C771 1.463 . S
C774 N778 1.427 . S
C775 H765 0.929 . S
C775 C773 1.433 . S
C775 N778 1.384 . S
C776 H767 0.929 1_455 S
C776 C768 1.378 . S
C776 C771 1.350 1_455 S
C777 H764 0.929 . S
C777 C769 1.433 1_556 S
C777 N779 1.384 . S
N778 C774 1.427 . S
N778 C775 1.384 . S
N779 C771 1.427 1_456 S
N779 C777 1.384 . S
H780 C786 0.930 . S
H781 C790 0.930 . S
H782 C795 0.929 . S
H783 C793 0.929 . S
H784 C788 0.929 1_455 S
H785 C794 0.929 . S
C786 H780 0.930 . S
C786 C787 1.367 . S
C786 C794 1.378 . S
C787 C786 1.367 . S
C787 C795 1.433 . S
C788 H784 0.929 1_655 S
C788 C790 1.378 . S
C788 C792 1.350 1_655 S
C789 C792 1.463 . S
C789 C794 1.350 . S
C789 N797 1.427 . S
C790 H781 0.930 . S
C790 C788 1.378 . S
C790 C791 1.367 . S
C791 C790 1.367 . S
C791 C793 1.433 . S
C792 C788 1.350 1_455 S
C792 C789 1.463 . S
C792 N796 1.427 1_455 S
C793 H783 0.929 . S
C793 C791 1.433 . S
C793 N796 1.384 . S
C794 H785 0.929 . S
C794 C786 1.378 . S
C794 C789 1.350 . S
C795 H782 0.929 . S
C795 C787 1.433 . S
C795 N797 1.384 . S
N796 C792 1.427 1_655 S
N796 C793 1.384 . S
N797 C789 1.427 . S
N797 C795 1.384 . S
H798 C804 0.930 . S
H799 C808 0.930 . S
H800 C813 0.929 . S
H801 C811 0.929 . S
H802 C806 0.929 . S
H803 C812 0.929 . S
C804 H798 0.930 . S
C804 C805 1.367 . S
C804 C812 1.378 . S
C805 C804 1.367 . S
C805 C813 1.433 . S
C806 H802 0.929 . S
C806 C808 1.378 . S
C806 C810 1.350 1_455 S
C807 C810 1.463 . S
C807 C812 1.350 . S
C807 N815 1.427 . S
C808 H799 0.930 . S
C808 C806 1.378 . S
C808 C809 1.367 . S
C809 C808 1.367 . S
C809 C811 1.433 . S
C810 C806 1.350 1_655 S
C810 C807 1.463 . S
C810 N814 1.427 1_655 S
C811 H801 0.929 . S
C811 C809 1.433 . S
C811 N814 1.384 . S
C812 H803 0.929 . S
C812 C804 1.378 . S
C812 C807 1.350 . S
C813 H800 0.929 . S
C813 C805 1.433 . S
C813 N815 1.384 . S
N814 C810 1.427 1_455 S
N814 C811 1.384 . S
N815 C807 1.427 . S
N815 C813 1.384 . S
H816 C822 0.930 . S
H817 C826 0.930 . S
H818 C831 0.929 . S
H819 C829 0.929 . S
H820 C824 0.929 . S
H821 C830 0.929 . S
C822 H816 0.930 . S
C822 C823 1.367 1_556 S
C822 C830 1.378 . S
C823 C822 1.367 1_554 S
C823 C831 1.433 . S
C824 H820 0.929 . S
C824 C826 1.378 . S
C824 C828 1.350 . S
C825 C828 1.463 1_455 S
C825 C830 1.350 1_554 S
C825 N833 1.427 . S
C826 H817 0.930 . S
C826 C824 1.378 . S
C826 C827 1.367 . S
C827 C826 1.367 . S
C827 C829 1.433 1_554 S
C828 C824 1.350 . S
C828 C825 1.463 1_655 S
C828 N832 1.427 1_554 S
C829 H819 0.929 . S
C829 C827 1.433 1_556 S
C829 N832 1.384 . S
C830 H821 0.929 . S
C830 C822 1.378 . S
C830 C825 1.350 1_556 S
C831 H818 0.929 . S
C831 C823 1.433 . S
C831 N833 1.384 . S
N832 C828 1.427 1_556 S
N832 C829 1.384 . S
N833 C825 1.427 . S
N833 C831 1.384 . S
H834 C840 0.930 . S
H835 C844 0.930 . S
H836 C849 0.929 . S
H837 C847 0.929 . S
H838 C842 0.929 . S
H839 C848 0.929 . S
C840 H834 0.930 . S
C840 C841 1.367 . S
C840 C848 1.378 . S
C841 C840 1.367 . S
C841 C849 1.433 . S
C842 H838 0.929 . S
C842 C844 1.378 . S
C842 C846 1.350 . S
C843 C846 1.463 1_455 S
C843 C848 1.350 . S
C843 N851 1.427 . S
C844 H835 0.930 . S
C844 C842 1.378 . S
C844 C845 1.367 . S
C845 C844 1.367 . S
C845 C847 1.433 . S
C846 C842 1.350 . S
C846 C843 1.463 1_655 S
C846 N850 1.427 . S
C847 H837 0.929 . S
C847 C845 1.433 . S
C847 N850 1.384 . S
C848 H839 0.929 . S
C848 C840 1.378 . S
C848 C843 1.350 . S
C849 H836 0.929 . S
C849 C841 1.433 . S
C849 N851 1.384 . S
N850 C846 1.427 . S
N850 C847 1.384 . S
N851 C843 1.427 . S
N851 C849 1.384 . S
H852 C858 0.930 . S
H853 C862 0.930 . S
H854 C867 0.929 . S
H855 C865 0.929 . S
H856 C860 0.929 . S
H857 C866 0.929 . S
C858 H852 0.930 . S
C858 C859 1.367 1_556 S
C858 C866 1.378 . S
C859 C858 1.367 1_554 S
C859 C867 1.433 . S
C860 H856 0.929 . S
C860 C862 1.378 . S
C860 C864 1.350 . S
C861 C864 1.463 1_565 S
C861 C866 1.350 1_554 S
C861 N869 1.427 . S
C862 H853 0.930 . S
C862 C860 1.378 . S
C862 C863 1.367 . S
C863 C862 1.367 . S
C863 C865 1.433 1_554 S
C864 C860 1.350 . S
C864 C861 1.463 1_545 S
C864 N868 1.427 1_554 S
C865 H855 0.929 . S
C865 C863 1.433 1_556 S
C865 N868 1.384 . S
C866 H857 0.929 . S
C866 C858 1.378 . S
C866 C861 1.350 1_556 S
C867 H854 0.929 . S
C867 C859 1.433 . S
C867 N869 1.384 . S
N868 C864 1.427 1_556 S
N868 C865 1.384 . S
N869 C861 1.427 . S
N869 C867 1.384 . S
H870 C876 0.930 . S
H871 C880 0.930 . S
H872 C885 0.929 . S
H873 C883 0.929 . S
H874 C878 0.929 . S
H875 C884 0.929 . S
C876 H870 0.930 . S
C876 C877 1.367 . S
C876 C884 1.378 . S
C877 C876 1.367 . S
C877 C885 1.433 . S
C878 H874 0.929 . S
C878 C880 1.378 . S
C878 C882 1.350 . S
C879 C882 1.463 1_545 S
C879 C884 1.350 . S
C879 N887 1.427 . S
C880 H871 0.930 . S
C880 C878 1.378 . S
C880 C881 1.367 . S
C881 C880 1.367 . S
C881 C883 1.433 . S
C882 C878 1.350 . S
C882 C879 1.463 1_565 S
C882 N886 1.427 . S
C883 H873 0.929 . S
C883 C881 1.433 . S
C883 N886 1.384 . S
C884 H875 0.929 . S
C884 C876 1.378 . S
C884 C879 1.350 . S
C885 H872 0.929 . S
C885 C877 1.433 . S
C885 N887 1.384 . S
N886 C882 1.427 . S
N886 C883 1.384 . S
N887 C879 1.427 . S
N887 C885 1.384 . S
H888 C894 0.930 1_556 S
H889 C898 0.930 . S
H890 C903 0.929 . S
H891 C901 0.929 . S
H892 C896 0.929 . S
H893 C902 0.929 1_556 S
C894 H888 0.930 1_554 S
C894 C895 1.367 . S
C894 C902 1.379 . S
C895 C894 1.367 . S
C895 C903 1.433 . S
C896 H892 0.929 . S
C896 C898 1.378 . S
C896 C900 1.350 . S
C897 C900 1.463 . S
C897 C902 1.350 . S
C897 N905 1.427 . S
C898 H889 0.930 . S
C898 C896 1.378 . S
C898 C899 1.367 . S
C899 C898 1.367 . S
C899 C901 1.433 . S
C900 C896 1.350 . S
C900 C897 1.463 . S
C900 N904 1.427 . S
C901 H891 0.929 . S
C901 C899 1.433 . S
C901 N904 1.384 . S
C902 H893 0.929 1_554 S
C902 C894 1.379 . S
C902 C897 1.350 . S
C903 H890 0.929 . S
C903 C895 1.433 . S
C903 N905 1.384 . S
N904 C900 1.427 . S
N904 C901 1.384 . S
N905 C897 1.427 . S
N905 C903 1.384 . S
H906 C912 0.930 . S
H907 C916 0.930 . S
H908 C921 0.929 . S
H909 C919 0.929 . S
H910 C914 0.929 . S
H911 C920 0.929 . S
C912 H906 0.930 . S
C912 C913 1.367 . S
C912 C920 1.378 . S
C913 C912 1.367 . S
C913 C921 1.433 1_554 S
C914 H910 0.929 . S
C914 C916 1.378 . S
C914 C918 1.350 1_556 S
C915 C918 1.463 . S
C915 C920 1.350 . S
C915 N923 1.427 1_554 S
C916 H907 0.930 . S
C916 C914 1.378 . S
C916 C917 1.367 1_556 S
C917 C916 1.367 1_554 S
C917 C919 1.433 . S
C918 C914 1.350 1_554 S
C918 C915 1.463 . S
C918 N922 1.427 . S
C919 H909 0.929 . S
C919 C917 1.433 . S
C919 N922 1.384 . S
C920 H911 0.929 . S
C920 C912 1.378 . S
C920 C915 1.350 . S
C921 H908 0.929 . S
C921 C913 1.433 1_556 S
C921 N923 1.384 . S
N922 C918 1.427 . S
N922 C919 1.384 . S
N923 C915 1.427 1_556 S
N923 C921 1.384 . S
H924 C930 0.930 . S
H925 C934 0.930 . S
H926 C939 0.929 . S
H927 C937 0.929 . S
H928 C932 0.929 . S
H929 C938 0.929 . S
C930 H924 0.930 . S
C930 C931 1.367 . S
C930 C938 1.378 . S
C931 C930 1.367 . S
C931 C939 1.433 . S
C932 H928 0.929 . S
C932 C934 1.378 . S
C932 C936 1.350 . S
C933 C936 1.463 . S
C933 C938 1.350 . S
C933 N941 1.427 . S
C934 H925 0.930 . S
C934 C932 1.378 . S
C934 C935 1.367 . S
C935 C934 1.367 . S
C935 C937 1.433 . S
C936 C932 1.350 . S
C936 C933 1.463 . S
C936 N940 1.427 . S
C937 H927 0.929 . S
C937 C935 1.433 . S
C937 N940 1.384 . S
C938 H929 0.929 . S
C938 C930 1.378 . S
C938 C933 1.350 . S
C939 H926 0.929 . S
C939 C931 1.433 . S
C939 N941 1.384 . S
N940 C936 1.427 . S
N940 C937 1.384 . S
N941 C933 1.427 . S
N941 C939 1.384 . S
H942 C948 0.930 . S
H943 C952 0.930 . S
H944 C957 0.929 . S
H945 C955 0.929 . S
H946 C950 0.929 . S
H947 C956 0.929 . S
C948 H942 0.930 . S
C948 C949 1.367 . S
C948 C956 1.378 . S
C949 C948 1.367 . S
C949 C957 1.433 . S
C950 H946 0.929 . S
C950 C952 1.378 . S
C950 C954 1.350 . S
C951 C954 1.463 . S
C951 C956 1.350 . S
C951 N959 1.427 . S
C952 H943 0.930 . S
C952 C950 1.378 . S
C952 C953 1.367 . S
C953 C952 1.367 . S
C953 C955 1.433 . S
C954 C950 1.350 . S
C954 C951 1.463 . S
C954 N958 1.427 . S
C955 H945 0.929 . S
C955 C953 1.433 . S
C955 N958 1.384 . S
C956 H947 0.929 . S
C956 C948 1.378 . S
C956 C951 1.350 . S
C957 H944 0.929 . S
C957 C949 1.433 . S
C957 N959 1.384 . S
N958 C954 1.427 . S
N958 C955 1.384 . S
N959 C951 1.427 . S
N959 C957 1.384 . S
H960 C966 0.930 . S
H961 C970 0.930 . S
H962 C975 0.929 1_655 S
H963 C973 0.929 . S
H964 C968 0.929 . S
H965 C974 0.929 . S
C966 H960 0.930 . S
C966 C967 1.367 . S
C966 C974 1.378 . S
C967 C966 1.367 . S
C967 C975 1.433 . S
C968 H964 0.929 . S
C968 C970 1.378 . S
C968 C972 1.350 1_655 S
C969 C972 1.463 . S
C969 C974 1.350 . S
C969 N977 1.427 1_455 S
C970 H961 0.930 . S
C970 C968 1.378 . S
C970 C971 1.367 . S
C971 C970 1.367 . S
C971 C973 1.433 1_655 S
C972 C968 1.350 1_455 S
C972 C969 1.463 . S
C972 N976 1.427 . S
C973 H963 0.929 . S
C973 C971 1.433 1_455 S
C973 N976 1.384 . S
C974 H965 0.929 . S
C974 C966 1.378 . S
C974 C969 1.350 . S
C975 H962 0.929 1_455 S
C975 C967 1.433 . S
C975 N977 1.384 1_455 S
N976 C972 1.427 . S
N976 C973 1.384 . S
N977 C969 1.427 1_655 S
N977 C975 1.384 1_655 S
H978 C984 0.930 . S
H979 C988 0.930 . S
H980 C993 0.929 . S
H981 C991 0.929 . S
H982 C986 0.925 1_655 S
H983 C992 0.929 . S
C984 H978 0.930 . S
C984 C985 1.367 1_455 S
C984 C992 1.378 . S
C985 C984 1.367 1_655 S
C985 C993 1.433 . S
C986 H982 0.925 1_455 S
C986 C988 1.378 . S
C986 C990 1.350 . S
C987 C990 1.463 . S
C987 C992 1.350 . S
C987 N995 1.427 1_455 S
C988 H979 0.930 . S
C988 C986 1.378 . S
C988 C989 1.367 . S
C989 C988 1.367 . S
C989 C991 1.433 . S
C990 C986 1.350 . S
C990 C987 1.463 . S
C990 N994 1.427 . S
C991 H981 0.929 . S
C991 C989 1.433 . S
C991 N994 1.384 . S
C992 H983 0.929 . S
C992 C984 1.378 . S
C992 C987 1.350 . S
C993 H980 0.929 . S
C993 C985 1.433 . S
C993 N995 1.384 . S
N994 C990 1.427 . S
N994 C991 1.384 . S
N995 C987 1.427 1_655 S
N995 C993 1.384 . S
H996 C1002 0.930 . S
H997 C1006 0.930 . S
H998 C1011 0.929 . S
H999 C1009 0.929 . S
H1000 C1004 0.929 . S
H1001 C1010 0.929 . S
C1002 H996 0.930 . S
C1002 C1003 1.367 1_455 S
C1002 C1010 1.378 . S
C1003 C1002 1.367 1_655 S
C1003 C1011 1.433 . S
C1004 H1000 0.929 . S
C1004 C1006 1.378 . S
C1004 C1008 1.350 . S
C1005 C1008 1.463 . S
C1005 C1010 1.350 1_655 S
C1005 N1013 1.427 . S
C1006 H997 0.930 . S
C1006 C1004 1.378 . S
C1006 C1007 1.367 1_655 S
C1007 C1006 1.367 1_455 S
C1007 C1009 1.433 . S
C1008 C1004 1.350 . S
C1008 C1005 1.463 . S
C1008 N1012 1.427 1_655 S
C1009 H999 0.929 . S
C1009 C1007 1.433 . S
C1009 N1012 1.384 . S
C1010 H1001 0.929 . S
C1010 C1002 1.378 . S
C1010 C1005 1.350 1_455 S
C1011 H998 0.929 . S
C1011 C1003 1.433 . S
C1011 N1013 1.384 . S
N1012 C1008 1.427 1_455 S
N1012 C1009 1.384 . S
N1013 C1005 1.427 . S
N1013 C1011 1.384 . S
H1014 C1020 0.930 . S
H1015 C1024 0.930 . S
H1016 C1029 0.929 . S
H1017 C1027 0.929 . S
H1018 C1022 0.929 . S
H1019 C1028 0.929 . S
C1020 H1014 0.930 . S
C1020 C1021 1.367 . S
C1020 C1028 1.378 . S
C1021 C1020 1.367 . S
C1021 C1029 1.433 . S
C1022 H1018 0.929 . S
C1022 C1024 1.378 . S
C1022 C1026 1.350 1_455 S
C1023 C1026 1.463 . S
C1023 C1028 1.350 . S
C1023 N1031 1.427 . S
C1024 H1015 0.930 . S
C1024 C1022 1.378 . S
C1024 C1025 1.367 . S
C1025 C1024 1.367 . S
C1025 C1027 1.433 1_455 S
C1026 C1022 1.350 1_655 S
C1026 C1023 1.463 . S
C1026 N1030 1.427 . S
C1027 H1017 0.929 . S
C1027 C1025 1.433 1_655 S
C1027 N1030 1.384 . S
C1028 H1019 0.929 . S
C1028 C1020 1.378 . S
C1028 C1023 1.350 . S
C1029 H1016 0.929 . S
C1029 C1021 1.433 . S
C1029 N1031 1.384 . S
N1030 C1026 1.427 . S
N1030 C1027 1.384 . S
N1031 C1023 1.427 . S
N1031 C1029 1.384 . S
H1032 C1038 0.930 . S
H1033 C1042 0.930 . S
H1034 C1047 0.929 . S
H1035 C1045 0.929 . S
H1036 C1040 0.929 . S
H1037 C1046 0.929 . S
C1038 H1032 0.930 . S
C1038 C1039 1.367 . S
C1038 C1046 1.378 . S
C1039 C1038 1.367 . S
C1039 C1047 1.433 . S
C1040 H1036 0.929 . S
C1040 C1042 1.378 . S
C1040 C1044 1.350 . S
C1041 C1044 1.463 . S
C1041 C1046 1.350 . S
C1041 N1049 1.427 . S
C1042 H1033 0.930 . S
C1042 C1040 1.378 . S
C1042 C1043 1.367 . S
C1043 C1042 1.367 . S
C1043 C1045 1.433 . S
C1044 C1040 1.350 . S
C1044 C1041 1.463 . S
C1044 N1048 1.427 . S
C1045 H1035 0.929 . S
C1045 C1043 1.433 . S
C1045 N1048 1.384 . S
C1046 H1037 0.929 . S
C1046 C1038 1.378 . S
C1046 C1041 1.350 . S
C1047 H1034 0.929 . S
C1047 C1039 1.433 . S
C1047 N1049 1.384 . S
N1048 C1044 1.427 . S
N1048 C1045 1.384 . S
N1049 C1041 1.427 . S
N1049 C1047 1.384 . S
H1050 C1056 0.930 . S
H1051 C1060 0.930 . S
H1052 C1065 0.929 . S
H1053 C1063 0.929 . S
H1054 C1058 0.929 . S
H1055 C1064 0.929 . S
C1056 H1050 0.930 . S
C1056 C1057 1.367 . S
C1056 C1064 1.378 . S
C1057 C1056 1.367 . S
C1057 C1065 1.433 . S
C1058 H1054 0.929 . S
C1058 C1060 1.378 . S
C1058 C1062 1.350 . S
C1059 C1062 1.463 . S
C1059 C1064 1.350 . S
C1059 N1067 1.427 . S
C1060 H1051 0.930 . S
C1060 C1058 1.378 . S
C1060 C1061 1.367 . S
C1061 C1060 1.367 . S
C1061 C1063 1.433 . S
C1062 C1058 1.350 . S
C1062 C1059 1.463 . S
C1062 N1066 1.427 . S
C1063 H1053 0.929 . S
C1063 C1061 1.433 . S
C1063 N1066 1.384 . S
C1064 H1055 0.929 . S
C1064 C1056 1.378 . S
C1064 C1059 1.350 . S
C1065 H1052 0.929 . S
C1065 C1057 1.433 . S
C1065 N1067 1.384 . S
N1066 C1062 1.427 . S
N1066 C1063 1.384 . S
N1067 C1059 1.427 . S
N1067 C1065 1.384 . S
H1068 C1074 0.930 . S
H1069 C1078 0.930 . S
H1070 C1083 0.929 . S
H1071 C1081 0.929 . S
H1072 C1076 0.929 . S
H1073 C1082 0.929 . S
C1074 H1068 0.930 . S
C1074 C1075 1.367 . S
C1074 C1082 1.378 . S
C1075 C1074 1.367 . S
C1075 C1083 1.433 . S
C1076 H1072 0.929 . S
C1076 C1078 1.378 . S
C1076 C1080 1.350 . S
C1077 C1080 1.463 . S
C1077 C1082 1.350 . S
C1077 N1085 1.427 . S
C1078 H1069 0.930 . S
C1078 C1076 1.378 . S
C1078 C1079 1.367 . S
C1079 C1078 1.367 . S
C1079 C1081 1.433 . S
C1080 C1076 1.350 . S
C1080 C1077 1.463 . S
C1080 N1084 1.427 . S
C1081 H1071 0.929 . S
C1081 C1079 1.433 . S
C1081 N1084 1.384 . S
C1082 H1073 0.929 . S
C1082 C1074 1.378 . S
C1082 C1077 1.350 . S
C1083 H1070 0.929 . S
C1083 C1075 1.433 . S
C1083 N1085 1.384 . S
N1084 C1080 1.427 . S
N1084 C1081 1.384 . S
N1085 C1077 1.427 . S
N1085 C1083 1.384 . S
H1086 C1092 0.930 . S
H1087 C1096 0.930 . S
H1088 C1101 0.929 . S
H1089 C1099 0.929 . S
H1090 C1094 0.929 . S
H1091 C1100 0.929 . S
C1092 H1086 0.930 . S
C1092 C1093 1.367 . S
C1092 C1100 1.378 . S
C1093 C1092 1.367 . S
C1093 C1101 1.433 . S
C1094 H1090 0.929 . S
C1094 C1096 1.378 . S
C1094 C1098 1.350 . S
C1095 C1098 1.463 . S
C1095 C1100 1.350 . S
C1095 N1103 1.427 . S
C1096 H1087 0.930 . S
C1096 C1094 1.378 . S
C1096 C1097 1.367 . S
C1097 C1096 1.367 . S
C1097 C1099 1.433 . S
C1098 C1094 1.350 . S
C1098 C1095 1.463 . S
C1098 N1102 1.427 . S
C1099 H1089 0.929 . S
C1099 C1097 1.433 . S
C1099 N1102 1.384 . S
C1100 H1091 0.929 . S
C1100 C1092 1.378 . S
C1100 C1095 1.350 . S
C1101 H1088 0.929 . S
C1101 C1093 1.433 . S
C1101 N1103 1.384 . S
N1102 C1098 1.427 . S
N1102 C1099 1.384 . S
N1103 C1095 1.427 . S
N1103 C1101 1.384 . S
C679 C56 2.079 . S
C683 C67 2.079 1_556 S
C697 C140 2.079 . S
C701 C151 2.079 . S
C715 C235 2.072 . S
C719 C224 2.072 . S
C733 C319 2.072 . S
C737 C308 2.072 . S
C751 C392 2.081 . S
C755 C403 2.081 1_556 S
C769 C487 2.073 . S
C773 C476 2.073 . S
C787 C571 2.080 . S
C791 C560 2.080 . S
C805 C644 2.076 . S
C809 C655 2.076 . S
C823 C147 1.787 1_554 S
C827 C72 1.787 . S
C841 C315 1.790 . S
C845 C240 1.790 . S
C859 C408 1.795 . S
C863 C483 1.795 1_554 S
C877 C576 1.804 . S
C881 C651 1.804 . S
C895 C63 1.402 1_554 S
C899 C492 1.402 . S
C913 C399 1.404 1_554 S
C917 C156 1.404 . S
C931 C231 1.389 . S
C935 C660 1.389 . S
C949 C324 1.410 . S
C953 C567 1.410 . S
C967 C75 1.515 . S
C971 C327 1.593 . S
C985 C159 1.596 . S
C989 C243 1.507 . S
C1003 C150 1.499 . S
C1007 C234 1.597 . S
C1021 C318 1.511 . S
C1025 C66 1.591 . S
C1039 C411 1.514 . S
C1043 C663 1.590 . S
C1057 C495 1.591 . S
C1061 C579 1.514 . S
C1075 C486 1.508 . S
C1079 C570 1.595 . S
C1093 C654 1.516 . S
C1097 C402 1.590 . S
