# Generated by pormake.
# Topology wlu, (5)-cn, num edge types: 1
# Building blocks:
#     Node 0, Type 0, BuildingBlock: BEQFEK_clean_sbu_0, # of connection points: 5
#     Node 1, Type 0, BuildingBlock: BEQFEK_clean_sbu_0, # of connection points: 5
#     Node 2, Type 0, BuildingBlock: BEQFEK_clean_sbu_0, # of connection points: 5
#     Node 3, Type 0, BuildingBlock: BEQFEK_clean_sbu_0, # of connection points: 5
#     Node 4, Type 0, BuildingBlock: BEQFEK_clean_sbu_0, # of connection points: 5
#     Node 5, Type 0, BuildingBlock: BEQFEK_clean_sbu_0, # of connection points: 5
#     Node 6, Type 0, BuildingBlock: BEQFEK_clean_sbu_0, # of connection points: 5
#     Node 7, Type 0, BuildingBlock: BEQFEK_clean_sbu_0, # of connection points: 5
#     Node 8, Type 0, BuildingBlock: BEQFEK_clean_sbu_0, # of connection points: 5
#     Node 9, Type 0, BuildingBlock: BEQFEK_clean_sbu_0, # of connection points: 5
#     Node 10, Type 0, BuildingBlock: BEQFEK_clean_sbu_0, # of connection points: 5
#     Node 11, Type 0, BuildingBlock: BEQFEK_clean_sbu_0, # of connection points: 5
#     Node 12, Type 0, BuildingBlock: BEQFEK_clean_sbu_0, # of connection points: 5
#     Node 13, Type 0, BuildingBlock: BEQFEK_clean_sbu_0, # of connection points: 5
#     Node 14, Type 0, BuildingBlock: BEQFEK_clean_sbu_0, # of connection points: 5
#     Node 15, Type 0, BuildingBlock: BEQFEK_clean_sbu_0, # of connection points: 5
#     Node 16, Type 0, BuildingBlock: BEQFEK_clean_sbu_0, # of connection points: 5
#     Node 17, Type 0, BuildingBlock: BEQFEK_clean_sbu_0, # of connection points: 5
#     Node 18, Type 0, BuildingBlock: BEQFEK_clean_sbu_0, # of connection points: 5
#     Node 19, Type 0, BuildingBlock: BEQFEK_clean_sbu_0, # of connection points: 5
#     Node 20, Type 0, BuildingBlock: BEQFEK_clean_sbu_0, # of connection points: 5
#     Node 21, Type 0, BuildingBlock: BEQFEK_clean_sbu_0, # of connection points: 5
#     Node 22, Type 0, BuildingBlock: BEQFEK_clean_sbu_0, # of connection points: 5
#     Node 23, Type 0, BuildingBlock: BEQFEK_clean_sbu_0, # of connection points: 5
#     Node 24, Type 0, BuildingBlock: BEQFEK_clean_sbu_0, # of connection points: 5
#     Node 25, Type 0, BuildingBlock: BEQFEK_clean_sbu_0, # of connection points: 5
#     Node 26, Type 0, BuildingBlock: BEQFEK_clean_sbu_0, # of connection points: 5
#     Node 27, Type 0, BuildingBlock: BEQFEK_clean_sbu_0, # of connection points: 5
#     Node 28, Type 0, BuildingBlock: BEQFEK_clean_sbu_0, # of connection points: 5
#     Node 29, Type 0, BuildingBlock: BEQFEK_clean_sbu_0, # of connection points: 5
#     Node 30, Type 0, BuildingBlock: BEQFEK_clean_sbu_0, # of connection points: 5
#     Node 31, Type 0, BuildingBlock: BEQFEK_clean_sbu_0, # of connection points: 5
#     Node 32, Type 0, BuildingBlock: BEQFEK_clean_sbu_0, # of connection points: 5
#     Node 33, Type 0, BuildingBlock: BEQFEK_clean_sbu_0, # of connection points: 5
#     Node 34, Type 0, BuildingBlock: BEQFEK_clean_sbu_0, # of connection points: 5
#     Node 35, Type 0, BuildingBlock: BEQFEK_clean_sbu_0, # of connection points: 5
#     Edge 36, Type (0, 0), BuildingBlock: AJUNOK_clean_linker_0, # of connection points: 2
#     Edge 37, Type (0, 0), BuildingBlock: AJUNOK_clean_linker_0, # of connection points: 2
#     Edge 38, Type (0, 0), BuildingBlock: AJUNOK_clean_linker_0, # of connection points: 2
#     Edge 39, Type (0, 0), BuildingBlock: AJUNOK_clean_linker_0, # of connection points: 2
#     Edge 40, Type (0, 0), BuildingBlock: AJUNOK_clean_linker_0, # of connection points: 2
#     Edge 41, Type (0, 0), BuildingBlock: AJUNOK_clean_linker_0, # of connection points: 2
#     Edge 42, Type (0, 0), BuildingBlock: AJUNOK_clean_linker_0, # of connection points: 2
#     Edge 43, Type (0, 0), BuildingBlock: AJUNOK_clean_linker_0, # of connection points: 2
#     Edge 44, Type (0, 0), BuildingBlock: AJUNOK_clean_linker_0, # of connection points: 2
#     Edge 45, Type (0, 0), BuildingBlock: AJUNOK_clean_linker_0, # of connection points: 2
#     Edge 46, Type (0, 0), BuildingBlock: AJUNOK_clean_linker_0, # of connection points: 2
#     Edge 47, Type (0, 0), BuildingBlock: AJUNOK_clean_linker_0, # of connection points: 2
#     Edge 48, Type (0, 0), BuildingBlock: AJUNOK_clean_linker_0, # of connection points: 2
#     Edge 49, Type (0, 0), BuildingBlock: AJUNOK_clean_linker_0, # of connection points: 2
#     Edge 50, Type (0, 0), BuildingBlock: AJUNOK_clean_linker_0, # of connection points: 2
#     Edge 51, Type (0, 0), BuildingBlock: AJUNOK_clean_linker_0, # of connection points: 2
#     Edge 52, Type (0, 0), BuildingBlock: AJUNOK_clean_linker_0, # of connection points: 2
#     Edge 53, Type (0, 0), BuildingBlock: AJUNOK_clean_linker_0, # of connection points: 2
#     Edge 54, Type (0, 0), BuildingBlock: AJUNOK_clean_linker_0, # of connection points: 2
#     Edge 55, Type (0, 0), BuildingBlock: AJUNOK_clean_linker_0, # of connection points: 2
#     Edge 56, Type (0, 0), BuildingBlock: AJUNOK_clean_linker_0, # of connection points: 2
#     Edge 57, Type (0, 0), BuildingBlock: AJUNOK_clean_linker_0, # of connection points: 2
#     Edge 58, Type (0, 0), BuildingBlock: AJUNOK_clean_linker_0, # of connection points: 2
#     Edge 59, Type (0, 0), BuildingBlock: AJUNOK_clean_linker_0, # of connection points: 2
#     Edge 60, Type (0, 0), BuildingBlock: AJUNOK_clean_linker_0, # of connection points: 2
#     Edge 61, Type (0, 0), BuildingBlock: AJUNOK_clean_linker_0, # of connection points: 2
#     Edge 62, Type (0, 0), BuildingBlock: AJUNOK_clean_linker_0, # of connection points: 2
#     Edge 63, Type (0, 0), BuildingBlock: AJUNOK_clean_linker_0, # of connection points: 2
#     Edge 64, Type (0, 0), BuildingBlock: AJUNOK_clean_linker_0, # of connection points: 2
#     Edge 65, Type (0, 0), BuildingBlock: AJUNOK_clean_linker_0, # of connection points: 2
#     Edge 66, Type (0, 0), BuildingBlock: AJUNOK_clean_linker_0, # of connection points: 2
#     Edge 67, Type (0, 0), BuildingBlock: AJUNOK_clean_linker_0, # of connection points: 2
#     Edge 68, Type (0, 0), BuildingBlock: AJUNOK_clean_linker_0, # of connection points: 2
#     Edge 69, Type (0, 0), BuildingBlock: AJUNOK_clean_linker_0, # of connection points: 2
#     Edge 70, Type (0, 0), BuildingBlock: AJUNOK_clean_linker_0, # of connection points: 2
#     Edge 71, Type (0, 0), BuildingBlock: AJUNOK_clean_linker_0, # of connection points: 2
#     Edge 72, Type (0, 0), BuildingBlock: AJUNOK_clean_linker_0, # of connection points: 2
#     Edge 73, Type (0, 0), BuildingBlock: AJUNOK_clean_linker_0, # of connection points: 2
#     Edge 74, Type (0, 0), BuildingBlock: AJUNOK_clean_linker_0, # of connection points: 2
#     Edge 75, Type (0, 0), BuildingBlock: AJUNOK_clean_linker_0, # of connection points: 2
#     Edge 76, Type (0, 0), BuildingBlock: AJUNOK_clean_linker_0, # of connection points: 2
#     Edge 77, Type (0, 0), BuildingBlock: AJUNOK_clean_linker_0, # of connection points: 2
#     Edge 78, Type (0, 0), BuildingBlock: AJUNOK_clean_linker_0, # of connection points: 2
#     Edge 79, Type (0, 0), BuildingBlock: AJUNOK_clean_linker_0, # of connection points: 2
#     Edge 80, Type (0, 0), BuildingBlock: AJUNOK_clean_linker_0, # of connection points: 2
#     Edge 81, Type (0, 0), BuildingBlock: AJUNOK_clean_linker_0, # of connection points: 2
#     Edge 82, Type (0, 0), BuildingBlock: AJUNOK_clean_linker_0, # of connection points: 2
#     Edge 83, Type (0, 0), BuildingBlock: AJUNOK_clean_linker_0, # of connection points: 2
#     Edge 84, Type (0, 0), BuildingBlock: AJUNOK_clean_linker_0, # of connection points: 2
#     Edge 85, Type (0, 0), BuildingBlock: AJUNOK_clean_linker_0, # of connection points: 2
#     Edge 86, Type (0, 0), BuildingBlock: AJUNOK_clean_linker_0, # of connection points: 2
#     Edge 87, Type (0, 0), BuildingBlock: AJUNOK_clean_linker_0, # of connection points: 2
#     Edge 88, Type (0, 0), BuildingBlock: AJUNOK_clean_linker_0, # of connection points: 2
#     Edge 89, Type (0, 0), BuildingBlock: AJUNOK_clean_linker_0, # of connection points: 2
#     Edge 90, Type (0, 0), BuildingBlock: AJUNOK_clean_linker_0, # of connection points: 2
#     Edge 91, Type (0, 0), BuildingBlock: AJUNOK_clean_linker_0, # of connection points: 2
#     Edge 92, Type (0, 0), BuildingBlock: AJUNOK_clean_linker_0, # of connection points: 2
#     Edge 93, Type (0, 0), BuildingBlock: AJUNOK_clean_linker_0, # of connection points: 2
#     Edge 94, Type (0, 0), BuildingBlock: AJUNOK_clean_linker_0, # of connection points: 2
#     Edge 95, Type (0, 0), BuildingBlock: AJUNOK_clean_linker_0, # of connection points: 2
#     Edge 96, Type (0, 0), BuildingBlock: AJUNOK_clean_linker_0, # of connection points: 2
#     Edge 97, Type (0, 0), BuildingBlock: AJUNOK_clean_linker_0, # of connection points: 2
#     Edge 98, Type (0, 0), BuildingBlock: AJUNOK_clean_linker_0, # of connection points: 2
#     Edge 99, Type (0, 0), BuildingBlock: AJUNOK_clean_linker_0, # of connection points: 2
#     Edge 100, Type (0, 0), BuildingBlock: AJUNOK_clean_linker_0, # of connection points: 2
#     Edge 101, Type (0, 0), BuildingBlock: AJUNOK_clean_linker_0, # of connection points: 2
#     Edge 102, Type (0, 0), BuildingBlock: AJUNOK_clean_linker_0, # of connection points: 2
#     Edge 103, Type (0, 0), BuildingBlock: AJUNOK_clean_linker_0, # of connection points: 2
#     Edge 104, Type (0, 0), BuildingBlock: AJUNOK_clean_linker_0, # of connection points: 2
#     Edge 105, Type (0, 0), BuildingBlock: AJUNOK_clean_linker_0, # of connection points: 2
#     Edge 106, Type (0, 0), BuildingBlock: AJUNOK_clean_linker_0, # of connection points: 2
#     Edge 107, Type (0, 0), BuildingBlock: AJUNOK_clean_linker_0, # of connection points: 2
#     Edge 108, Type (0, 0), BuildingBlock: AJUNOK_clean_linker_0, # of connection points: 2
#     Edge 109, Type (0, 0), BuildingBlock: AJUNOK_clean_linker_0, # of connection points: 2
#     Edge 110, Type (0, 0), BuildingBlock: AJUNOK_clean_linker_0, # of connection points: 2
#     Edge 111, Type (0, 0), BuildingBlock: AJUNOK_clean_linker_0, # of connection points: 2
#     Edge 112, Type (0, 0), BuildingBlock: AJUNOK_clean_linker_0, # of connection points: 2
#     Edge 113, Type (0, 0), BuildingBlock: AJUNOK_clean_linker_0, # of connection points: 2
#     Edge 114, Type (0, 0), BuildingBlock: AJUNOK_clean_linker_0, # of connection points: 2
#     Edge 115, Type (0, 0), BuildingBlock: AJUNOK_clean_linker_0, # of connection points: 2
#     Edge 116, Type (0, 0), BuildingBlock: AJUNOK_clean_linker_0, # of connection points: 2
#     Edge 117, Type (0, 0), BuildingBlock: AJUNOK_clean_linker_0, # of connection points: 2
#     Edge 118, Type (0, 0), BuildingBlock: AJUNOK_clean_linker_0, # of connection points: 2
#     Edge 119, Type (0, 0), BuildingBlock: AJUNOK_clean_linker_0, # of connection points: 2
#     Edge 120, Type (0, 0), BuildingBlock: AJUNOK_clean_linker_0, # of connection points: 2
#     Edge 121, Type (0, 0), BuildingBlock: AJUNOK_clean_linker_0, # of connection points: 2
#     Edge 122, Type (0, 0), BuildingBlock: AJUNOK_clean_linker_0, # of connection points: 2
#     Edge 123, Type (0, 0), BuildingBlock: AJUNOK_clean_linker_0, # of connection points: 2
#     Edge 124, Type (0, 0), BuildingBlock: AJUNOK_clean_linker_0, # of connection points: 2
#     Edge 125, Type (0, 0), BuildingBlock: AJUNOK_clean_linker_0, # of connection points: 2
# Relax obj value: 0.085
# Max RMSD: 0.148
# Mean RMSD: 0.148
data_MOF--net-wlu--node1-BEQFEK_clean_sbu_0--edge1-AJUNOK_clean_linker_0
_symmetry_space_group_name_H-M    P1
_symmetry_Int_Tables_number       1
_symmetry_cell_setting            triclinic
loop_
_symmetry_equiv_pos_as_xyz
'x, y, z'
_cell_length_a     53.574919
_cell_length_b     53.572323
_cell_length_c     42.822604
_cell_angle_alpha  90.025384
_cell_angle_beta   89.979877
_cell_angle_gamma 120.02786
loop_
_atom_site_label
_atom_site_type_symbol
_atom_site_fract_x
_atom_site_fract_y
_atom_site_fract_z
_atom_type_partial_charge
Co0 Co 0.30695 0.22297 0.043 0.0
Co1 Co 0.26445 0.15728 0.03094 0.0
C2 C 0.31171 0.19493 0.98557 0.0
O3 O 0.32211 0.2169 1.00341 0.0
O4 O 0.28948 0.17121 0.99315 0.0
C5 C 0.35924 0.27721 0.05886 0.0
O6 O 0.37435 0.26615 0.04741 0.0
C7 C 0.24256 0.09703 0.01101 0.0
C8 C 0.20401 0.07369 0.04092 0.0
C9 C 0.21988 0.06965 0.01797 0.0
N10 N 0.24025 0.11625 0.02923 0.0
N11 N 0.21706 0.10215 0.04688 0.0
C12 C 0.26483 0.10529 0.98595 0.0
H13 H 0.26355 0.12082 0.96987 0.0
H14 H 0.28661 0.11616 0.99666 0.0
H15 H 0.26168 0.08651 0.97199 0.0
C16 C 0.31698 0.19997 0.10156 0.0
N17 N 0.30368 0.19626 0.07384 0.0
N18 N 0.28687 0.16851 0.06854 0.0
C19 C 0.28955 0.15367 0.09257 0.0
C20 C 0.30875 0.17319 0.11427 0.0
C21 C 0.33615 0.22862 0.11649 0.0
H22 H 0.32706 0.243 0.11307 0.0
H23 H 0.35778 0.23858 0.10551 0.0
H24 H 0.33856 0.22643 0.14191 0.0
O25 O 0.26954 0.22027 0.03422 0.0
O26 O 0.23841 0.17366 0.0287 0.0
H27 H 0.25224 0.11241 0.09971 0.0
H28 H 0.2855 0.11445 0.11175 0.0
C29 C 0.27536 0.12151 0.09386 0.0
H30 H 0.2768 0.11303 0.07072 0.0
H31 H 0.21019 0.11199 0.06311 0.0
O32 O 0.33191 0.2625 0.05825 0.0
C33 C 0.24409 0.19976 0.02911 0.0
Co34 Co 0.77636 0.08225 0.04507 0.0
Co35 Co 0.84244 0.11189 0.03163 0.0
C36 C 0.80311 0.11708 0.98656 0.0
O37 O 0.78151 0.10109 1.0038 0.0
O38 O 0.82871 0.12433 0.9948 0.0
C39 C 0.72148 0.079 0.05811 0.0
O40 O 0.73302 0.10554 0.04765 0.0
C41 C 0.90319 0.15107 0.0135 0.0
C42 C 0.92551 0.13385 0.04211 0.0
C43 C 0.93021 0.15466 0.02006 0.0
N44 N 0.8835 0.12919 0.031 0.0
N45 N 0.89701 0.11897 0.04794 0.0
C46 C 0.89561 0.16611 0.98906 0.0
H47 H 0.88038 0.1499 0.97223 0.0
H48 H 0.88454 0.17663 1.00022 0.0
H49 H 0.91471 0.18226 0.97591 0.0
C50 C 0.79764 0.11624 0.10364 0.0
N51 N 0.80212 0.10761 0.07564 0.0
N52 N 0.82998 0.12085 0.06987 0.0
C53 C 0.84407 0.13897 0.09378 0.0
C54 C 0.824 0.13655 0.11602 0.0
C55 C 0.76852 0.10625 0.11758 0.0
H56 H 0.75495 0.08254 0.11508 0.0
H57 H 0.75804 0.11662 0.10497 0.0
H58 H 0.76984 0.11207 0.1426 0.0
O59 O 0.78108 0.04852 0.03913 0.0
O60 O 0.82737 0.06957 0.02663 0.0
H61 H 0.88599 0.14398 0.09813 0.0
H62 H 0.88282 0.17287 0.11554 0.0
C63 C 0.87612 0.15777 0.09547 0.0
H64 H 0.88425 0.17008 0.0734 0.0
H65 H 0.8867 0.10163 0.06332 0.0
O66 O 0.73636 0.06658 0.05876 0.0
C67 C 0.8029 0.04695 0.03043 0.0
Co68 Co 0.91799 0.69985 0.04515 0.0
Co69 Co 0.89076 0.73845 0.03104 0.0
C70 C 0.88367 0.69104 0.98738 0.0
O71 O 0.89748 0.68301 1.00515 0.0
O72 O 0.87986 0.71201 0.99459 0.0
C73 C 0.93185 0.65386 0.05767 0.0
O74 O 0.91447 0.63844 0.03494 0.0
C75 C 0.85035 0.75795 0.01159 0.0
C76 C 0.86724 0.79846 0.0385 0.0
C77 C 0.84614 0.78113 0.01725 0.0
N78 N 0.87286 0.76147 0.02886 0.0
N79 N 0.88288 0.78577 0.04476 0.0
C80 C 0.83506 0.73409 0.98841 0.0
H81 H 0.85101 0.73428 0.97176 0.0
H82 H 0.82483 0.71307 1.00079 0.0
H83 H 0.81863 0.73628 0.9749 0.0
C84 C 0.88276 0.68728 0.10201 0.0
N85 N 0.89279 0.70138 0.07479 0.0
N86 N 0.88096 0.71733 0.06931 0.0
C87 C 0.86279 0.71371 0.09303 0.0
C88 C 0.86363 0.69476 0.11466 0.0
C89 C 0.88964 0.6653 0.11441 0.0
H90 H 0.91258 0.67623 0.1216 0.0
H91 H 0.88633 0.64958 0.09575 0.0
H92 H 0.87594 0.65346 0.1347 0.0
O93 O 0.95162 0.73821 0.03679 0.0
O94 O 0.93263 0.76585 0.02722 0.0
H95 H 0.85964 0.75173 0.0971 0.0
H96 H 0.83022 0.7204 0.11518 0.0
C97 C 0.84508 0.72812 0.09489 0.0
H98 H 0.83251 0.72406 0.07303 0.0
H99 H 0.90053 0.79373 0.05984 0.0
O100 O 0.93521 0.6785 0.06374 0.0
C101 C 0.95441 0.76248 0.02965 0.0
Co102 Co 0.22259 0.30611 0.46849 0.0
Co103 Co 0.15703 0.26287 0.47992 0.0
C104 C 0.19305 0.31094 0.52499 0.0
O105 O 0.21541 0.32098 0.50772 0.0
O106 O 0.16947 0.2886 0.5172 0.0
C107 C 0.2778 0.35872 0.45436 0.0
O108 O 0.26745 0.37414 0.46669 0.0
C109 C 0.0961 0.24189 0.49448 0.0
C110 C 0.07622 0.19577 0.48207 0.0
C111 C 0.0701 0.21582 0.49504 0.0
N112 N 0.11648 0.23712 0.48237 0.0
N113 N 0.10445 0.20956 0.47491 0.0
C114 C 0.10167 0.27123 0.50354 0.0
H115 H 0.11901 0.28787 0.48871 0.0
H116 H 0.08182 0.27273 0.50134 0.0
H117 H 0.10938 0.27571 0.52805 0.0
C118 C 0.19966 0.31516 0.40935 0.0
N119 N 0.19586 0.30188 0.4371 0.0
N120 N 0.16812 0.2844 0.44186 0.0
C121 C 0.15337 0.28636 0.4173 0.0
C122 C 0.17295 0.3059 0.39592 0.0
C123 C 0.22826 0.3378 0.39696 0.0
H124 H 0.24356 0.32955 0.39711 0.0
H125 H 0.23689 0.35702 0.41229 0.0
H126 H 0.22667 0.34452 0.37292 0.0
O127 O 0.22096 0.2692 0.47768 0.0
O128 O 0.17448 0.23803 0.4835 0.0
H129 H 0.11312 0.24677 0.41979 0.0
H130 H 0.11428 0.27174 0.39047 0.0
C131 C 0.12126 0.26981 0.41432 0.0
H132 H 0.11174 0.27821 0.43145 0.0
H133 H 0.11564 0.20003 0.46544 0.0
O134 O 0.26228 0.33145 0.45353 0.0
C135 C 0.20055 0.24378 0.48308 0.0
Co136 Co 0.6939 0.91664 0.46716 0.0
Co137 Co 0.72917 0.88561 0.48053 0.0
C138 C 0.68551 0.88248 0.52593 0.0
O139 O 0.68009 0.89861 0.50874 0.0
O140 O 0.7034 0.87466 0.51751 0.0
C141 C 0.64366 0.92265 0.45501 0.0
O142 O 0.62821 0.89764 0.46894 0.0
C143 C 0.74865 0.84502 0.49962 0.0
C144 C 0.7862 0.85837 0.46858 0.0
C145 C 0.77021 0.83894 0.49182 0.0
N146 N 0.75146 0.86671 0.48136 0.0
N147 N 0.77409 0.87471 0.46305 0.0
C148 C 0.72745 0.83245 0.52583 0.0
H149 H 0.7294 0.8501 0.54101 0.0
H150 H 0.70529 0.82098 0.51608 0.0
H151 H 0.73115 0.81747 0.54034 0.0
C152 C 0.67941 0.88154 0.4095 0.0
N153 N 0.69305 0.89029 0.43719 0.0
N154 N 0.70732 0.87668 0.44274 0.0
C155 C 0.70264 0.85828 0.41892 0.0
C156 C 0.68502 0.86101 0.39697 0.0
C157 C 0.66001 0.89145 0.39617 0.0
H158 H 0.64058 0.88335 0.41108 0.0
H159 H 0.65284 0.88328 0.37216 0.0
H160 H 0.6713 0.91535 0.39602 0.0
O161 O 0.73298 0.94951 0.47238 0.0
O162 O 0.75754 0.92763 0.48439 0.0
H163 H 0.70503 0.82263 0.39816 0.0
H164 H 0.71232 0.82773 0.43971 0.0
C165 C 0.71514 0.83884 0.41703 0.0
H166 H 0.73856 0.85201 0.41219 0.0
H167 H 0.78129 0.8914 0.44679 0.0
O168 O 0.67072 0.93335 0.45251 0.0
C169 C 0.75627 0.95054 0.48045 0.0
Co170 Co 0.0792 0.77631 0.47028 0.0
Co171 Co 0.10477 0.84276 0.48058 0.0
C172 C 0.11337 0.80577 0.52715 0.0
O173 O 0.10027 0.78308 0.51049 0.0
O174 O 0.1163 0.82975 0.51826 0.0
C175 C 0.07697 0.72173 0.45755 0.0
O176 O 0.10258 0.73311 0.47053 0.0
C177 C 0.14549 0.90305 0.49806 0.0
C178 C 0.13013 0.92689 0.46924 0.0
C179 C 0.15096 0.9306 0.4908 0.0
N180 N 0.12274 0.88395 0.48112 0.0
N181 N 0.11355 0.89835 0.46414 0.0
C182 C 0.15984 0.8947 0.52262 0.0
H183 H 0.14356 0.88081 0.54016 0.0
H184 H 0.16878 0.88201 0.51178 0.0
H185 H 0.17712 0.91368 0.53496 0.0
C186 C 0.112 0.79723 0.41116 0.0
N187 N 0.10306 0.80196 0.43882 0.0
N188 N 0.11479 0.82992 0.44334 0.0
C189 C 0.13228 0.84385 0.41894 0.0
C190 C 0.13082 0.82353 0.39769 0.0
C191 C 0.10381 0.76808 0.39846 0.0
H192 H 0.08012 0.75376 0.39986 0.0
H193 H 0.11437 0.75868 0.41263 0.0
H194 H 0.11078 0.76915 0.37388 0.0
O195 O 0.04477 0.78011 0.47698 0.0
O196 O 0.0625 0.82709 0.48408 0.0
H197 H 0.13535 0.88475 0.41238 0.0
H198 H 0.16513 0.88241 0.39602 0.0
C199 C 0.14994 0.87592 0.41598 0.0
H200 H 0.16216 0.88522 0.4379 0.0
H201 H 0.09596 0.88867 0.44897 0.0
O202 O 0.06423 0.73631 0.45626 0.0
C203 C 0.04122 0.80148 0.48237 0.0
Co204 Co 0.69163 0.77886 0.96956 0.0
Co205 Co 0.7331 0.84507 0.97963 0.0
C206 C 0.68772 0.8081 0.02683 0.0
O207 O 0.6778 0.78569 0.00967 0.0
O208 O 0.70913 0.83218 0.01843 0.0
C209 C 0.64034 0.72183 0.95715 0.0
O210 O 0.62395 0.73063 0.97035 0.0
C211 C 0.75325 0.90657 0.99209 0.0
C212 C 0.79871 0.92662 0.97715 0.0
C213 C 0.77893 0.93299 0.99042 0.0
N214 N 0.75799 0.88594 0.98057 0.0
N215 N 0.78516 0.89812 0.97159 0.0
C216 C 0.72435 0.90068 1.00327 0.0
H217 H 0.70704 0.88052 0.99259 0.0
H218 H 0.72092 0.91894 0.99746 0.0
H219 H 0.7231 0.89771 0.02898 0.0
C220 C 0.679 0.79987 0.9112 0.0
N221 N 0.6932 0.80466 0.93848 0.0
N222 N 0.70995 0.83261 0.94262 0.0
C223 C 0.70668 0.84651 0.91803 0.0
C224 C 0.68704 0.82615 0.89729 0.0
C225 C 0.65679 0.77071 0.89963 0.0
H226 H 0.6385 0.76123 0.91626 0.0
H227 H 0.64833 0.77167 0.87633 0.0
H228 H 0.66626 0.75646 0.89844 0.0
O229 O 0.72965 0.78228 0.97631 0.0
O230 O 0.75936 0.82915 0.98129 0.0
H231 H 0.74588 0.88715 0.91765 0.0
H232 H 0.7187 0.88493 0.89082 0.0
C233 C 0.72246 0.87855 0.91423 0.0
H234 H 0.7151 0.88817 0.93241 0.0
H235 H 0.79462 0.88689 0.96207 0.0
O236 O 0.66735 0.73881 0.9553 0.0
C237 C 0.75489 0.80352 0.98037 0.0
Co238 Co 0.22338 0.91887 0.96881 0.0
Co239 Co 0.15733 0.8919 0.98119 0.0
C240 C 0.19541 0.88668 0.02809 0.0
O241 O 0.21724 0.90105 0.01053 0.0
O242 O 0.17007 0.88022 0.01958 0.0
C243 C 0.27696 0.91924 0.95546 0.0
O244 O 0.26464 0.89308 0.96717 0.0
C245 C 0.09573 0.85143 0.99411 0.0
C246 C 0.07626 0.87668 0.97687 0.0
C247 C 0.06948 0.85088 0.99132 0.0
N248 N 0.11663 0.87634 0.98198 0.0
N249 N 0.10481 0.89126 0.97167 0.0
C250 C 0.10121 0.8286 0.00684 0.0
H251 H 0.12162 0.83117 0.99726 0.0
H252 H 0.08309 0.80681 1.00107 0.0
H253 H 0.10344 0.83083 0.0326 0.0
C254 C 0.20157 0.88314 0.91165 0.0
N255 N 0.19723 0.89301 0.93889 0.0
N256 N 0.16934 0.88101 0.94403 0.0
C257 C 0.15506 0.86284 0.92023 0.0
C258 C 0.17511 0.86338 0.89916 0.0
C259 C 0.2304 0.89377 0.89665 0.0
H260 H 0.24401 0.91737 0.89999 0.0
H261 H 0.24119 0.8829 0.90756 0.0
H262 H 0.22825 0.88901 0.87125 0.0
O263 O 0.21999 0.95349 0.97329 0.0
O264 O 0.1735 0.93447 0.98342 0.0
H265 H 0.11343 0.85903 0.9184 0.0
H266 H 0.11596 0.83121 0.89695 0.0
C267 C 0.12295 0.8448 0.91827 0.0
H268 H 0.11475 0.83067 0.93908 0.0
H269 H 0.11631 0.9116 0.96139 0.0
O270 O 0.26321 0.93285 0.95508 0.0
C271 C 0.19848 0.9564 0.97992 0.0
Co272 Co 0.08388 0.30658 0.96986 0.0
Co273 Co 0.10774 0.26435 0.97891 0.0
C274 C 0.11661 0.31001 0.02652 0.0
O275 O 0.10493 0.32093 0.00967 0.0
O276 O 0.11837 0.28827 0.01752 0.0
C277 C 0.07956 0.3581 0.95796 0.0
O278 O 0.10429 0.37311 0.97255 0.0
C279 C 0.14859 0.24499 0.99613 0.0
C280 C 0.13197 0.2047 0.9689 0.0
C281 C 0.15346 0.2224 0.98958 0.0
N282 N 0.12554 0.24106 0.97962 0.0
N283 N 0.11562 0.21684 0.96356 0.0
C284 C 0.16363 0.26841 0.01986 0.0
H285 H 0.14789 0.26634 0.03794 0.0
H286 H 0.17202 0.28972 0.00843 0.0
H287 H 0.18139 0.26721 0.0317 0.0
C288 C 0.1172 0.31917 0.91112 0.0
N289 N 0.10777 0.30492 0.93839 0.0
N290 N 0.11846 0.28771 0.9421 0.0
C291 C 0.13537 0.29078 0.91729 0.0
C292 C 0.13487 0.31064 0.89675 0.0
C293 C 0.11086 0.34191 0.89997 0.0
H294 H 0.11989 0.35998 0.91688 0.0
H295 H 0.12054 0.35063 0.87681 0.0
H296 H 0.0872 0.33285 0.89863 0.0
O297 O 0.04946 0.26842 0.97735 0.0
O298 O 0.06555 0.23766 0.98071 0.0
H299 H 0.13519 0.25119 0.91093 0.0
H300 H 0.16488 0.2816 0.89191 0.0
C301 C 0.15109 0.2745 0.91308 0.0
H302 H 0.16457 0.27751 0.93396 0.0
H303 H 0.0976 0.20856 0.94899 0.0
O304 O 0.06838 0.33097 0.95553 0.0
C305 C 0.04484 0.24287 0.98089 0.0
Co306 Co 0.7743 0.68745 0.54365 0.0
Co307 Co 0.83946 0.732 0.53301 0.0
C308 C 0.80324 0.68529 0.48598 0.0
O309 O 0.781 0.67387 0.50344 0.0
O310 O 0.82656 0.70763 0.49443 0.0
C311 C 0.71826 0.63519 0.55557 0.0
O312 O 0.72686 0.62025 0.53898 0.0
C313 C 0.90022 0.75141 0.51964 0.0
C314 C 0.92067 0.79825 0.52837 0.0
C315 C 0.92647 0.77717 0.51791 0.0
N316 N 0.88005 0.75731 0.53002 0.0
N317 N 0.89242 0.7853 0.53528 0.0
C318 C 0.89415 0.7214 0.51333 0.0
H319 H 0.87637 0.70587 0.52856 0.0
H320 H 0.91368 0.71961 0.51715 0.0
H321 H 0.88681 0.71556 0.48882 0.0
C322 C 0.79736 0.67603 0.6011 0.0
N323 N 0.80116 0.69049 0.57418 0.0
N324 N 0.82874 0.7092 0.57036 0.0
C325 C 0.84338 0.70733 0.59511 0.0
C326 C 0.8239 0.68617 0.61539 0.0
C327 C 0.76901 0.65154 0.61175 0.0
H328 H 0.76007 0.63496 0.59315 0.0
H329 H 0.77102 0.6413 0.63335 0.0
H330 H 0.75373 0.65947 0.61588 0.0
O331 O 0.7758 0.7246 0.53636 0.0
O332 O 0.82201 0.75697 0.5315 0.0
H333 H 0.88116 0.72602 0.62462 0.0
H334 H 0.88667 0.71806 0.58514 0.0
C335 C 0.87515 0.72613 0.59984 0.0
H336 H 0.88206 0.74851 0.5925 0.0
H337 H 0.88147 0.79566 0.5431 0.0
O338 O 0.73493 0.66211 0.55912 0.0
C339 C 0.79571 0.75048 0.53203 0.0
Co340 Co 0.30578 0.08264 0.54359 0.0
Co341 Co 0.26402 0.10667 0.53281 0.0
C342 C 0.31084 0.11647 0.48698 0.0
O343 O 0.32098 0.10436 0.50432 0.0
O344 O 0.28878 0.11807 0.49492 0.0
C345 C 0.35822 0.08152 0.55804 0.0
O346 O 0.37242 0.108 0.54722 0.0
C347 C 0.24429 0.14701 0.51484 0.0
C348 C 0.20552 0.13215 0.54433 0.0
C349 C 0.22247 0.15272 0.52244 0.0
N350 N 0.2407 0.12438 0.53193 0.0
N351 N 0.21738 0.11549 0.54933 0.0
C352 C 0.26685 0.16117 0.49009 0.0
H353 H 0.26452 0.14471 0.47282 0.0
H354 H 0.28855 0.17044 0.50083 0.0
H355 H 0.26492 0.17819 0.47748 0.0
C356 C 0.3167 0.11526 0.60273 0.0
N357 N 0.30312 0.10591 0.57509 0.0
N358 N 0.28668 0.11731 0.57019 0.0
C359 C 0.28995 0.13496 0.59433 0.0
C360 C 0.30907 0.13416 0.61575 0.0
C361 C 0.33563 0.10532 0.61727 0.0
H362 H 0.32658 0.08195 0.61306 0.0
H363 H 0.35743 0.11732 0.60673 0.0
H364 H 0.33768 0.10923 0.64284 0.0
O365 O 0.2681 0.04822 0.53484 0.0
O366 O 0.23741 0.06429 0.53007 0.0
H367 H 0.25336 0.14015 0.6014 0.0
H368 H 0.28701 0.17068 0.61389 0.0
C369 C 0.2766 0.15368 0.59581 0.0
H370 H 0.27857 0.16398 0.57279 0.0
H371 H 0.20965 0.09813 0.56478 0.0
O372 O 0.33085 0.06794 0.55762 0.0
C373 C 0.24272 0.04362 0.53003 0.0
Co374 Co 0.92021 0.21718 0.54683 0.0
Co375 Co 0.89123 0.15166 0.53146 0.0
C376 C 0.8871 0.19258 0.48716 0.0
O377 O 0.90267 0.21394 0.50501 0.0
O378 O 0.87993 0.1668 0.49475 0.0
C379 C 0.93253 0.27654 0.56008 0.0
O380 O 0.9132 0.27376 0.53938 0.0
C381 C 0.84931 0.09057 0.51687 0.0
C382 C 0.8741 0.06994 0.5321 0.0
C383 C 0.84822 0.06399 0.51849 0.0
N384 N 0.87461 0.11087 0.52889 0.0
N385 N 0.88924 0.09835 0.53796 0.0
C386 C 0.82668 0.09686 0.50532 0.0
H387 H 0.83 0.11739 0.5154 0.0
H388 H 0.80485 0.07901 0.51143 0.0
H389 H 0.82833 0.09924 0.47955 0.0
C390 C 0.88262 0.19493 0.60213 0.0
N391 N 0.89326 0.19064 0.57546 0.0
N392 N 0.8809 0.16283 0.56977 0.0
C393 C 0.86185 0.14848 0.59292 0.0
C394 C 0.86215 0.16846 0.61402 0.0
C395 C 0.89265 0.22391 0.61648 0.0
H396 H 0.91643 0.23541 0.61879 0.0
H397 H 0.88671 0.2367 0.60099 0.0
H398 H 0.88319 0.22227 0.63994 0.0
O399 O 0.95369 0.21217 0.54194 0.0
O400 O 0.93355 0.16646 0.52776 0.0
H401 H 0.85601 0.10597 0.59155 0.0
H402 H 0.83 0.10925 0.61574 0.0
C403 C 0.84273 0.11644 0.59384 0.0
H404 H 0.82773 0.10954 0.57371 0.0
H405 H 0.90978 0.1093 0.54789 0.0
O406 O 0.93724 0.25591 0.56462 0.0
C407 C 0.95583 0.19075 0.53315 0.0
Co408 Co 0.97026 0.55863 0.37657 0.0
Co409 Co 0.93217 0.49228 0.36338 0.0
C410 C 0.97767 0.53177 0.31837 0.0
O411 O 0.98454 0.55338 0.33607 0.0
O412 O 0.9582 0.50642 0.32617 0.0
C413 C 0.0222 0.61284 0.39014 0.0
O414 O 0.03629 0.60122 0.37738 0.0
C415 C 0.91269 0.43163 0.34631 0.0
C416 C 0.8724 0.4084 0.37362 0.0
C417 C 0.89001 0.40421 0.35321 0.0
N418 N 0.90886 0.45104 0.36242 0.0
N419 N 0.88461 0.43698 0.37846 0.0
C420 C 0.9362 0.43965 0.32282 0.0
H421 H 0.93558 0.45476 0.30557 0.0
H422 H 0.95742 0.45097 0.33476 0.0
H423 H 0.93386 0.4206 0.31002 0.0
C424 C 0.98222 0.53695 0.43497 0.0
N425 N 0.96901 0.53253 0.40707 0.0
N426 N 0.95389 0.50466 0.40146 0.0
C427 C 0.95763 0.49048 0.42547 0.0
C428 C 0.97563 0.51054 0.44752 0.0
C429 C 0.00221 0.56604 0.44853 0.0
H430 H 0.99236 0.57992 0.4468 0.0
H431 H 0.02266 0.57612 0.43516 0.0
H432 H 0.00746 0.56481 0.47329 0.0
O433 O 0.93201 0.554 0.36939 0.0
O434 O 0.90476 0.5073 0.35969 0.0
H435 H 0.95139 0.45157 0.44812 0.0
H436 H 0.9487 0.45009 0.40585 0.0
C437 C 0.94387 0.45839 0.42741 0.0
H438 H 0.92017 0.44881 0.42899 0.0
H439 H 0.87642 0.44694 0.39282 0.0
O440 O 0.99485 0.59854 0.39116 0.0
C441 C 0.90776 0.53236 0.36236 0.0
Co442 Co 0.44348 0.41719 0.3751 0.0
Co443 Co 0.50943 0.44098 0.36531 0.0
C444 C 0.47359 0.45206 0.3191 0.0
O445 O 0.45091 0.4395 0.33587 0.0
O446 O 0.49715 0.45361 0.32749 0.0
C447 C 0.38763 0.41341 0.38842 0.0
O448 O 0.39754 0.43886 0.37543 0.0
C449 C 0.57036 0.48325 0.35349 0.0
C450 C 0.59135 0.45809 0.36574 0.0
C451 C 0.59704 0.48462 0.3542 0.0
N452 N 0.55019 0.45719 0.36395 0.0
N453 N 0.56288 0.4423 0.3713 0.0
C454 C 0.5638 0.50628 0.3442 0.0
H455 H 0.54359 0.50257 0.35554 0.0
H456 H 0.58183 0.5279 0.35069 0.0
H457 H 0.56061 0.5055 0.31854 0.0
C458 C 0.46481 0.44885 0.43493 0.0
N459 N 0.46935 0.43998 0.40712 0.0
N460 N 0.49725 0.45091 0.40292 0.0
C461 C 0.51134 0.46743 0.42787 0.0
C462 C 0.49118 0.46655 0.44895 0.0
C463 C 0.43581 0.44175 0.44714 0.0
H464 H 0.42676 0.45202 0.43196 0.0
H465 H 0.437 0.44965 0.47133 0.0
H466 H 0.42111 0.41808 0.4466 0.0
O467 O 0.44618 0.38229 0.36612 0.0
O468 O 0.49304 0.39876 0.36191 0.0
H469 H 0.54981 0.49264 0.45544 0.0
H470 H 0.55301 0.50124 0.41431 0.0
C471 C 0.54339 0.48348 0.4316 0.0
H472 H 0.55193 0.46879 0.42688 0.0
H473 H 0.55205 0.42117 0.37968 0.0
O474 O 0.40354 0.40211 0.3896 0.0
C475 C 0.46718 0.37794 0.36174 0.0
Co476 Co 0.5841 0.02877 0.37739 0.0
Co477 Co 0.55878 0.06918 0.36333 0.0
C478 C 0.55267 0.02319 0.3182 0.0
O479 O 0.56552 0.01467 0.33665 0.0
O480 O 0.54829 0.04375 0.32553 0.0
C481 C 0.58834 0.97746 0.39055 0.0
O482 O 0.56335 0.9621 0.37655 0.0
C483 C 0.51603 0.08765 0.34864 0.0
C484 C 0.54019 0.13316 0.36374 0.0
C485 C 0.51451 0.11284 0.3501 0.0
N486 N 0.54151 0.09304 0.36068 0.0
N487 N 0.55569 0.12026 0.36977 0.0
C488 C 0.49423 0.05934 0.33481 0.0
H489 H 0.50407 0.04619 0.32853 0.0
H490 H 0.47711 0.04707 0.35228 0.0
H491 H 0.48411 0.06275 0.31385 0.0
C492 C 0.54889 0.0168 0.43426 0.0
N493 N 0.55895 0.03057 0.40687 0.0
N494 N 0.54766 0.04701 0.40125 0.0
C495 C 0.52967 0.04386 0.425 0.0
C496 C 0.52996 0.02464 0.4467 0.0
C497 C 0.55593 0.9951 0.44724 0.0
H498 H 0.54721 0.97625 0.43137 0.0
H499 H 0.54649 0.98739 0.47071 0.0
H500 H 0.57966 0.00469 0.4486 0.0
O501 O 0.61831 0.06651 0.37062 0.0
O502 O 0.60165 0.09614 0.36129 0.0
H503 H 0.50194 0.05564 0.44998 0.0
H504 H 0.49652 0.05139 0.40819 0.0
C505 C 0.51289 0.05924 0.42706 0.0
H506 H 0.52756 0.08267 0.42349 0.0
H507 H 0.57624 0.1302 0.3797 0.0
O508 O 0.5993 0.00456 0.39293 0.0
C509 C 0.62267 0.09146 0.36397 0.0
Co510 Co 0.89077 0.64176 0.80534 0.0
Co511 Co 0.82549 0.59709 0.81521 0.0
C512 C 0.86115 0.64382 0.86248 0.0
O513 O 0.8836 0.65541 0.84533 0.0
O514 O 0.83797 0.62143 0.85382 0.0
C515 C 0.94698 0.69422 0.79328 0.0
O516 O 0.9388 0.70928 0.8103 0.0
C517 C 0.76433 0.57789 0.82653 0.0
C518 C 0.74396 0.53116 0.81744 0.0
C519 C 0.73783 0.5523 0.8269 0.0
N520 N 0.78478 0.57189 0.81742 0.0
N521 N 0.77245 0.54394 0.81198 0.0
C522 C 0.77045 0.60779 0.83356 0.0
H523 H 0.79072 0.62387 0.82194 0.0
H524 H 0.75233 0.61072 0.82575 0.0
H525 H 0.77333 0.61155 0.85911 0.0
C526 C 0.86828 0.65292 0.74727 0.0
N527 N 0.86419 0.63865 0.77439 0.0
N528 N 0.83659 0.61991 0.7779 0.0
C529 C 0.82223 0.62158 0.75275 0.0
C530 C 0.84193 0.64249 0.73245 0.0
C531 C 0.89664 0.67756 0.73691 0.0
H532 H 0.9054 0.69402 0.75564 0.0
H533 H 0.89467 0.68793 0.71538 0.0
H534 H 0.91202 0.66976 0.73272 0.0
O535 O 0.88932 0.60451 0.81264 0.0
O536 O 0.84301 0.57213 0.8169 0.0
H537 H 0.78346 0.58048 0.75475 0.0
H538 H 0.78453 0.60345 0.72309 0.0
C539 C 0.79047 0.60298 0.74782 0.0
H540 H 0.77899 0.61091 0.76279 0.0
H541 H 0.78355 0.53351 0.80494 0.0
O542 O 0.93009 0.66735 0.78983 0.0
C543 C 0.86933 0.57858 0.81662 0.0
Co544 Co 0.36101 0.25193 0.80198 0.0
Co545 Co 0.40182 0.22627 0.81307 0.0
C546 C 0.35689 0.21895 0.85987 0.0
O547 O 0.34726 0.23181 0.84285 0.0
O548 O 0.37773 0.2156 0.85112 0.0
C549 C 0.30876 0.25461 0.78752 0.0
O550 O 0.29364 0.22838 0.79884 0.0
C551 C 0.42243 0.18648 0.83117 0.0
C552 C 0.46069 0.20116 0.80091 0.0
C553 C 0.44438 0.18095 0.82339 0.0
N554 N 0.42538 0.20865 0.81369 0.0
N555 N 0.44843 0.21746 0.79585 0.0
C556 C 0.40028 0.17249 0.85635 0.0
H557 H 0.40254 0.18915 0.87329 0.0
H558 H 0.37841 0.16272 0.84594 0.0
H559 H 0.40273 0.15589 0.86921 0.0
C560 C 0.34788 0.21712 0.74422 0.0
N561 N 0.36223 0.22708 0.77136 0.0
N562 N 0.37833 0.21529 0.77629 0.0
C563 C 0.37405 0.1968 0.75269 0.0
C564 C 0.35447 0.19728 0.73171 0.0
C565 C 0.3296 0.22772 0.7294 0.0
H566 H 0.33977 0.25137 0.7325 0.0
H567 H 0.30809 0.2171 0.74068 0.0
H568 H 0.32665 0.22272 0.70406 0.0
O569 O 0.39936 0.2864 0.80781 0.0
O570 O 0.4284 0.26857 0.81549 0.0
H571 H 0.41036 0.1913 0.74498 0.0
H572 H 0.37639 0.16064 0.73347 0.0
C573 C 0.38723 0.17794 0.75116 0.0
H574 H 0.38575 0.16807 0.77435 0.0
H575 H 0.45569 0.23452 0.78005 0.0
O576 O 0.3361 0.26703 0.78761 0.0
C577 C 0.42424 0.28991 0.81322 0.0
Co578 Co 0.74568 0.10819 0.80127 0.0
Co579 Co 0.77308 0.1747 0.81204 0.0
C580 C 0.7796 0.13697 0.85918 0.0
O581 O 0.76476 0.11466 0.8424 0.0
O582 O 0.78533 0.16198 0.85013 0.0
C583 C 0.74362 0.05362 0.78845 0.0
O584 O 0.76977 0.06546 0.8001 0.0
C585 C 0.81488 0.23565 0.82597 0.0
C586 C 0.79117 0.25715 0.80987 0.0
C587 C 0.8163 0.26236 0.82475 0.0
N588 N 0.78984 0.21576 0.81306 0.0
N589 N 0.77587 0.22879 0.80337 0.0
C590 C 0.83724 0.22897 0.8375 0.0
H591 H 0.83573 0.21027 0.82465 0.0
H592 H 0.8592 0.24793 0.83493 0.0
H593 H 0.83313 0.2229 0.86248 0.0
C594 C 0.77982 0.12876 0.74284 0.0
N595 N 0.77075 0.13377 0.77026 0.0
N596 N 0.78279 0.16179 0.77458 0.0
C597 C 0.80022 0.17546 0.75003 0.0
C598 C 0.79899 0.15487 0.7292 0.0
C599 C 0.7692 0.09951 0.72891 0.0
H600 H 0.74566 0.0859 0.73268 0.0
H601 H 0.78035 0.08921 0.74028 0.0
H602 H 0.77356 0.10085 0.70345 0.0
O603 O 0.71155 0.11227 0.80704 0.0
O604 O 0.73052 0.15906 0.81541 0.0
H605 H 0.8042 0.21705 0.74617 0.0
H606 H 0.83243 0.21395 0.72631 0.0
C607 C 0.8184 0.20752 0.74728 0.0
H608 H 0.83207 0.21623 0.76835 0.0
H609 H 0.75558 0.21822 0.79282 0.0
O610 O 0.73062 0.06797 0.78789 0.0
C611 C 0.70862 0.13387 0.81314 0.0
Co612 Co 0.35834 0.10895 0.30397 0.0
Co613 Co 0.3997 0.17549 0.31298 0.0
C614 C 0.35537 0.13835 0.36117 0.0
O615 O 0.34449 0.11584 0.34413 0.0
O616 O 0.37686 0.16203 0.35219 0.0
C617 C 0.3059 0.05453 0.29101 0.0
O618 O 0.2917 0.06675 0.30197 0.0
C619 C 0.41855 0.23705 0.32636 0.0
C620 C 0.46271 0.25829 0.30709 0.0
C621 C 0.44338 0.26379 0.32282 0.0
N622 N 0.42319 0.21676 0.31344 0.0
N623 N 0.44958 0.22973 0.30183 0.0
C624 C 0.39139 0.23085 0.34284 0.0
H625 H 0.37869 0.20802 0.34987 0.0
H626 H 0.37788 0.23536 0.32678 0.0
H627 H 0.39639 0.24487 0.3637 0.0
C628 C 0.34498 0.1295 0.24532 0.0
N629 N 0.35932 0.13438 0.27256 0.0
N630 N 0.37569 0.16237 0.27672 0.0
C631 C 0.37188 0.17618 0.25241 0.0
C632 C 0.35207 0.15574 0.23185 0.0
C633 C 0.32639 0.1003 0.23125 0.0
H634 H 0.33628 0.08667 0.23502 0.0
H635 H 0.30489 0.08992 0.24255 0.0
H636 H 0.32347 0.10177 0.20579 0.0
O637 O 0.39676 0.11309 0.3109 0.0
O638 O 0.42671 0.16022 0.31391 0.0
H639 H 0.40983 0.21742 0.24756 0.0
H640 H 0.37818 0.21489 0.2292 0.0
C641 C 0.38619 0.20826 0.24965 0.0
H642 H 0.38207 0.21715 0.27116 0.0
H643 H 0.45887 0.21897 0.2908 0.0
O644 O 0.33328 0.06864 0.29072 0.0
C645 C 0.42211 0.13449 0.31407 0.0
Co646 Co 0.89182 0.25162 0.30319 0.0
Co647 Co 0.82576 0.22593 0.31699 0.0
C648 C 0.86477 0.21821 0.36169 0.0
O649 O 0.8866 0.23237 0.34405 0.0
O650 O 0.83977 0.21349 0.35399 0.0
C651 C 0.94598 0.25343 0.28877 0.0
O652 O 0.93507 0.22828 0.30271 0.0
C653 C 0.76494 0.18708 0.3358 0.0
C654 C 0.74214 0.2029 0.30594 0.0
C655 C 0.73764 0.18228 0.32813 0.0
N656 N 0.78456 0.20915 0.31843 0.0
N657 N 0.77076 0.21867 0.30091 0.0
C658 C 0.77259 0.17266 0.36089 0.0
H659 H 0.78879 0.18929 0.37666 0.0
H660 H 0.78242 0.16077 0.3501 0.0
H661 H 0.75358 0.15772 0.37504 0.0
C662 C 0.86842 0.21774 0.24508 0.0
N663 N 0.86477 0.22704 0.27305 0.0
N664 N 0.83701 0.21539 0.27884 0.0
C665 C 0.82215 0.19765 0.25491 0.0
C666 C 0.84162 0.19883 0.23263 0.0
C667 C 0.89711 0.22571 0.23117 0.0
H668 H 0.91131 0.24946 0.23161 0.0
H669 H 0.90722 0.21582 0.24528 0.0
H670 H 0.89517 0.21792 0.20683 0.0
O671 O 0.8887 0.28605 0.31047 0.0
O672 O 0.84228 0.26878 0.3202 0.0
H673 H 0.78124 0.19472 0.24908 0.0
H674 H 0.78275 0.16408 0.23406 0.0
C675 C 0.78999 0.18013 0.25325 0.0
H676 H 0.78131 0.16891 0.2758 0.0
H677 H 0.7809 0.23583 0.28526 0.0
O678 O 0.9313 0.26607 0.28747 0.0
C679 C 0.86791 0.28999 0.31758 0.0
Co680 Co 0.7468 0.63967 0.30184 0.0
Co681 Co 0.77367 0.59954 0.31118 0.0
C682 C 0.78149 0.64442 0.35846 0.0
O683 O 0.76794 0.65379 0.34222 0.0
O684 O 0.78505 0.62388 0.34903 0.0
C685 C 0.7435 0.69167 0.28951 0.0
O686 O 0.76916 0.70614 0.30232 0.0
C687 C 0.81248 0.57765 0.32957 0.0
C688 C 0.79781 0.54005 0.29829 0.0
C689 C 0.81731 0.55518 0.32184 0.0
N690 N 0.79131 0.57595 0.31119 0.0
N691 N 0.7825 0.55328 0.29276 0.0
C692 C 0.82556 0.59868 0.35593 0.0
H693 H 0.80817 0.5965 0.3717 0.0
H694 H 0.83672 0.62096 0.34648 0.0
H695 H 0.84079 0.59498 0.36992 0.0
C696 C 0.78015 0.65276 0.24272 0.0
N697 N 0.77098 0.63848 0.27005 0.0
N698 N 0.78301 0.62247 0.27417 0.0
C699 C 0.80073 0.62663 0.24984 0.0
C700 C 0.79939 0.64589 0.22909 0.0
C701 C 0.77205 0.67401 0.23077 0.0
H702 H 0.74835 0.66457 0.23202 0.0
H703 H 0.78248 0.69361 0.24555 0.0
H704 H 0.77921 0.68057 0.20638 0.0
O705 O 0.7127 0.60103 0.30921 0.0
O706 O 0.73178 0.57289 0.31535 0.0
H707 H 0.8036 0.58878 0.24248 0.0
H708 H 0.8334 0.62087 0.22639 0.0
C709 C 0.81829 0.61215 0.2464 0.0
H710 H 0.8305 0.61476 0.26824 0.0
H711 H 0.76591 0.54675 0.27644 0.0
O712 O 0.73102 0.66434 0.28815 0.0
C713 C 0.71004 0.57648 0.31473 0.0
Co714 Co 0.4406 0.02646 0.87616 0.0
Co715 Co 0.5069 0.06631 0.8636 0.0
C716 C 0.46833 0.0203 0.81823 0.0
O717 O 0.44635 0.01273 0.83555 0.0
O718 O 0.49333 0.04027 0.82636 0.0
C719 C 0.38664 0.97391 0.88966 0.0
O720 O 0.39838 0.95987 0.87706 0.0
C721 C 0.56769 0.08846 0.84471 0.0
C722 C 0.59046 0.12685 0.87492 0.0
C723 C 0.59494 0.11125 0.85202 0.0
N724 N 0.54812 0.09043 0.86268 0.0
N725 N 0.56191 0.11356 0.8805 0.0
C726 C 0.55992 0.06654 0.81937 0.0
H727 H 0.54383 0.06726 0.8037 0.0
H728 H 0.54993 0.04472 0.82993 0.0
H729 H 0.57878 0.07051 0.80504 0.0
C730 C 0.4626 0.01543 0.93482 0.0
N731 N 0.46691 0.02852 0.90687 0.0
N732 N 0.49479 0.04436 0.90158 0.0
C733 C 0.50908 0.0411 0.92583 0.0
C734 C 0.48909 0.0229 0.94778 0.0
C735 C 0.4336 0.99487 0.9482 0.0
H736 H 0.41938 0.00433 0.94669 0.0
H737 H 0.42389 0.9746 0.93452 0.0
H738 H 0.43494 0.98939 0.97285 0.0
O739 O 0.44421 0.06417 0.8689 0.0
O740 O 0.49081 0.09294 0.85976 0.0
H741 H 0.5502 0.07864 0.93253 0.0
H742 H 0.54791 0.04607 0.94726 0.0
C743 C 0.54118 0.0553 0.92804 0.0
H744 H 0.55008 0.05289 0.90558 0.0
H745 H 0.55179 0.12028 0.89653 0.0
O746 O 0.40083 0.00127 0.89062 0.0
C747 C 0.46526 0.0888 0.86192 0.0
Co748 Co 0.97006 0.41019 0.87676 0.0
Co749 Co 0.93443 0.44088 0.86314 0.0
C750 C 0.97866 0.44507 0.81827 0.0
O751 O 0.984 0.42904 0.83569 0.0
O752 O 0.96057 0.45269 0.82637 0.0
C753 C 0.022 0.40854 0.88947 0.0
O754 O 0.03537 0.43435 0.87687 0.0
C755 C 0.91558 0.48234 0.84506 0.0
C756 C 0.87745 0.46824 0.87537 0.0
C757 C 0.89402 0.48843 0.85298 0.0
N758 N 0.91215 0.4599 0.86245 0.0
N759 N 0.88919 0.45149 0.88033 0.0
C760 C 0.93743 0.49569 0.8195 0.0
H761 H 0.93546 0.47855 0.80345 0.0
H762 H 0.9594 0.50632 0.82974 0.0
H763 H 0.93439 0.5115 0.80574 0.0
C764 C 0.9831 0.44395 0.93521 0.0
N765 N 0.97011 0.43577 0.90712 0.0
N766 N 0.95593 0.44947 0.90143 0.0
C767 C 0.96018 0.46746 0.92556 0.0
C768 C 0.97728 0.46428 0.94785 0.0
C769 C 0.00216 0.43377 0.94892 0.0
H770 H 0.99171 0.41001 0.94674 0.0
H771 H 0.02285 0.44389 0.93601 0.0
H772 H 0.0072 0.43985 0.9738 0.0
O773 O 0.93117 0.37703 0.87134 0.0
O774 O 0.90627 0.39849 0.85851 0.0
H775 H 0.92429 0.47389 0.93163 0.0
H776 H 0.95761 0.50289 0.94663 0.0
C777 C 0.94781 0.48702 0.92739 0.0
H778 H 0.95118 0.49853 0.90488 0.0
H779 H 0.88156 0.43429 0.89598 0.0
O780 O 0.99465 0.3948 0.89073 0.0
C781 C 0.90781 0.37574 0.86297 0.0
Co782 Co 0.58752 0.55744 0.87773 0.0
Co783 Co 0.55944 0.49156 0.86357 0.0
C784 C 0.55306 0.53098 0.81931 0.0
O785 O 0.56867 0.55272 0.83657 0.0
O786 O 0.54667 0.50556 0.82734 0.0
C787 C 0.59083 0.61263 0.89064 0.0
O788 O 0.5661 0.60247 0.87594 0.0
C789 C 0.51667 0.43095 0.8499 0.0
C790 C 0.54269 0.40994 0.85746 0.0
C791 C 0.51577 0.40453 0.84765 0.0
N792 N 0.54302 0.45084 0.85997 0.0
N793 N 0.55839 0.43812 0.86451 0.0
C794 C 0.4929 0.43738 0.84432 0.0
H795 H 0.49622 0.45602 0.85874 0.0
H796 H 0.4716 0.41827 0.8496 0.0
H797 H 0.49333 0.4435 0.81954 0.0
C798 C 0.5523 0.53474 0.93524 0.0
N799 N 0.56195 0.53066 0.9077 0.0
N800 N 0.55013 0.50282 0.90231 0.0
C801 C 0.53257 0.48829 0.92646 0.0
C802 C 0.53328 0.50808 0.94805 0.0
C803 C 0.55953 0.56368 0.9478 0.0
H804 H 0.58328 0.57776 0.94904 0.0
H805 H 0.55081 0.57365 0.93175 0.0
H806 H 0.55018 0.56235 0.97122 0.0
O807 O 0.622 0.55361 0.87128 0.0
O808 O 0.60162 0.50738 0.8589 0.0
H809 H 0.5295 0.44703 0.92099 0.0
H810 H 0.50948 0.44941 0.95386 0.0
C811 C 0.51612 0.45615 0.92932 0.0
H812 H 0.49651 0.44734 0.91459 0.0
H813 H 0.57983 0.44878 0.87196 0.0
O814 O 0.60241 0.59704 0.89321 0.0
C815 C 0.62399 0.53199 0.86257 0.0
Co816 Co 0.63397 0.88928 0.71093 0.0
Co817 Co 0.59592 0.82302 0.69776 0.0
C818 C 0.64128 0.86164 0.65287 0.0
O819 O 0.64752 0.88356 0.66986 0.0
O820 O 0.62236 0.83629 0.66128 0.0
C821 C 0.68674 0.94319 0.72392 0.0
O822 O 0.70043 0.93118 0.71109 0.0
C823 C 0.57718 0.76218 0.68409 0.0
C824 C 0.53061 0.74118 0.69458 0.0
C825 C 0.55157 0.73575 0.68295 0.0
N826 N 0.5713 0.78216 0.6952 0.0
N827 N 0.54346 0.76943 0.70153 0.0
C828 C 0.60701 0.76848 0.67642 0.0
H829 H 0.62307 0.78693 0.69054 0.0
H830 H 0.60927 0.74925 0.68052 0.0
H831 H 0.61154 0.77478 0.65154 0.0
C832 C 0.64568 0.86733 0.76942 0.0
N833 N 0.63244 0.86291 0.74153 0.0
N834 N 0.61677 0.835 0.73629 0.0
C835 C 0.61989 0.82079 0.76068 0.0
C836 C 0.63837 0.84086 0.78242 0.0
C837 C 0.66647 0.89643 0.78242 0.0
H838 H 0.65705 0.91069 0.78096 0.0
H839 H 0.68656 0.90596 0.76844 0.0
H840 H 0.67228 0.8954 0.807 0.0
O841 O 0.59589 0.88555 0.70451 0.0
O842 O 0.56985 0.83918 0.6925 0.0
H843 H 0.58217 0.77907 0.75648 0.0
H844 H 0.6064 0.78195 0.78757 0.0
C845 C 0.6051 0.78868 0.7634 0.0
H846 H 0.61549 0.78038 0.74731 0.0
H847 H 0.5331 0.78014 0.71007 0.0
O848 O 0.65938 0.9292 0.72524 0.0
C849 C 0.57226 0.8639 0.69589 0.0
Co850 Co 0.10939 0.75221 0.70945 0.0
Co851 Co 0.17489 0.77472 0.69837 0.0
C852 C 0.13853 0.78535 0.65248 0.0
O853 O 0.11637 0.77378 0.67003 0.0
O854 O 0.16205 0.78654 0.66028 0.0
C855 C 0.05552 0.75113 0.72534 0.0
O856 O 0.06781 0.77839 0.71717 0.0
C857 C 0.23518 0.81593 0.683 0.0
C858 C 0.257 0.79204 0.69738 0.0
C859 C 0.26189 0.81737 0.68322 0.0
N860 N 0.21562 0.79075 0.69588 0.0
N861 N 0.22878 0.77661 0.70447 0.0
C862 C 0.22818 0.83842 0.67268 0.0
H863 H 0.21006 0.83694 0.68671 0.0
H864 H 0.24725 0.86036 0.67486 0.0
H865 H 0.22099 0.83444 0.64797 0.0
C866 C 0.13192 0.78434 0.76873 0.0
N867 N 0.13583 0.77515 0.74085 0.0
N868 N 0.1636 0.78574 0.73604 0.0
C869 C 0.17827 0.80246 0.76067 0.0
C870 C 0.15857 0.80221 0.7821 0.0
C871 C 0.10317 0.77487 0.78338 0.0
H872 H 0.08834 0.75168 0.7787 0.0
H873 H 0.09394 0.78757 0.77337 0.0
H874 H 0.10507 0.77827 0.80904 0.0
O875 O 0.11147 0.71711 0.7009 0.0
O876 O 0.15803 0.73229 0.69596 0.0
H877 H 0.21875 0.80385 0.76363 0.0
H878 H 0.21789 0.83314 0.78389 0.0
C879 C 0.21046 0.81911 0.76292 0.0
H880 H 0.21949 0.83272 0.74186 0.0
H881 H 0.21843 0.75621 0.71478 0.0
O882 O 0.06955 0.73787 0.72342 0.0
C883 C 0.13189 0.71199 0.69617 0.0
Co884 Co 0.24685 0.35872 0.70778 0.0
Co885 Co 0.2246 0.40245 0.69767 0.0
C886 C 0.21487 0.35577 0.65077 0.0
O887 O 0.22578 0.34428 0.66796 0.0
O888 O 0.21392 0.37805 0.65939 0.0
C889 C 0.25204 0.3073 0.72089 0.0
O890 O 0.22714 0.29131 0.70695 0.0
C891 C 0.18558 0.4237 0.67787 0.0
C892 C 0.20181 0.46344 0.70598 0.0
C893 C 0.18137 0.44689 0.68375 0.0
N894 N 0.20738 0.42643 0.69596 0.0
N895 N 0.21704 0.45031 0.71255 0.0
C896 C 0.17125 0.40082 0.65345 0.0
H897 H 0.16155 0.37925 0.6646 0.0
H898 H 0.15462 0.40287 0.64021 0.0
H899 H 0.18775 0.40255 0.63658 0.0
C900 C 0.2133 0.34729 0.76598 0.0
N901 N 0.22326 0.36148 0.73878 0.0
N902 N 0.21323 0.37923 0.73473 0.0
C903 C 0.19617 0.37652 0.75926 0.0
C904 C 0.19581 0.35627 0.7799 0.0
C905 C 0.21905 0.32425 0.77746 0.0
H906 H 0.24264 0.33305 0.77932 0.0
H907 H 0.21021 0.30628 0.76041 0.0
H908 H 0.20892 0.31554 0.80045 0.0
O909 O 0.28151 0.39648 0.69978 0.0
O910 O 0.26707 0.42851 0.69598 0.0
H911 H 0.19741 0.41664 0.76536 0.0
H912 H 0.16713 0.38667 0.78416 0.0
C913 C 0.18109 0.39346 0.76313 0.0
H914 H 0.16794 0.39081 0.74206 0.0
H915 H 0.23419 0.45777 0.72827 0.0
O916 O 0.26236 0.33436 0.72286 0.0
C917 C 0.28712 0.4223 0.69582 0.0
Co918 Co 0.55415 0.97116 0.13265 0.0
Co919 Co 0.48829 0.93196 0.14726 0.0
C920 C 0.5285 0.97809 0.19162 0.0
O921 O 0.54975 0.98558 0.17321 0.0
O922 O 0.50314 0.95817 0.18447 0.0
C923 C 0.60993 0.02222 0.11979 0.0
O924 O 0.60086 0.03736 0.13527 0.0
C925 C 0.42788 0.90985 0.16777 0.0
C926 C 0.4047 0.87154 0.13749 0.0
C927 C 0.40054 0.88697 0.16085 0.0
N928 N 0.44715 0.90803 0.14914 0.0
N929 N 0.43313 0.88495 0.1313 0.0
C930 C 0.43608 0.9317 0.19329 0.0
H931 H 0.45291 0.93144 0.2081 0.0
H932 H 0.44535 0.95352 0.18285 0.0
H933 H 0.41754 0.9273 0.20843 0.0
C934 C 0.53127 0.98279 0.07545 0.0
N935 N 0.52734 0.9693 0.10306 0.0
N936 N 0.49958 0.95367 0.10902 0.0
C937 C 0.48494 0.95729 0.08539 0.0
C938 C 0.50462 0.97573 0.0633 0.0
C939 C 0.56015 0.00352 0.06196 0.0
H940 H 0.5709 0.02274 0.07726 0.0
H941 H 0.55847 0.01076 0.03821 0.0
H942 H 0.5737 0.99326 0.06101 0.0
O943 O 0.55034 0.93347 0.14022 0.0
O944 O 0.50394 0.90495 0.15049 0.0
H945 H 0.44359 0.91977 0.07995 0.0
H946 H 0.44573 0.95209 0.06465 0.0
C947 C 0.45281 0.94321 0.08391 0.0
H948 H 0.44441 0.94611 0.10649 0.0
H949 H 0.44302 0.87835 0.11485 0.0
O950 O 0.59346 0.99523 0.11683 0.0
C951 C 0.52941 0.909 0.14779 0.0
Co952 Co 0.02679 0.58087 0.13122 0.0
Co953 Co 0.06833 0.55725 0.14683 0.0
C954 C 0.0226 0.55115 0.19169 0.0
O955 O 0.01413 0.56373 0.17283 0.0
O956 O 0.04287 0.54625 0.18459 0.0
C957 C 0.99617 0.61126 0.12733 0.0
O958 O 0.01035 0.62338 0.15312 0.0
C959 C 0.08981 0.51833 0.16622 0.0
C960 C 0.1309 0.53666 0.14023 0.0
C961 C 0.1135 0.51484 0.16078 0.0
N962 N 0.0931 0.54107 0.14949 0.0
N963 N 0.11776 0.55196 0.13415 0.0
C964 C 0.06546 0.50193 0.18855 0.0
H965 H 0.06504 0.51712 0.20584 0.0
H966 H 0.04473 0.49195 0.17561 0.0
H967 H 0.06758 0.48518 0.20147 0.0
C968 C 0.01555 0.54493 0.07577 0.0
N969 N 0.02926 0.5555 0.10304 0.0
N970 N 0.04606 0.54474 0.10911 0.0
C971 C 0.04317 0.52648 0.08574 0.0
C972 C 0.02389 0.52629 0.06379 0.0
C973 C 0.99378 0.55162 0.06224 0.0
H974 H 0.00422 0.57508 0.05749 0.0
H975 H 0.97627 0.54594 0.07947 0.0
H976 H 0.9842 0.53955 0.04032 0.0
O977 O 0.06394 0.61638 0.13652 0.0
O978 O 0.09382 0.60043 0.14822 0.0
H979 H 0.08221 0.52516 0.08214 0.0
H980 H 0.05148 0.4948 0.0642 0.0
C981 C 0.05874 0.50987 0.08433 0.0
H982 H 0.05513 0.49764 0.10637 0.0
H983 H 0.1256 0.56984 0.11941 0.0
O984 O -0.00055 0.59174 0.11462 0.0
C985 C 0.08888 0.62118 0.14416 0.0
Co986 Co 0.41929 0.4429 0.13669 0.0
Co987 Co 0.44015 0.5083 0.14499 0.0
C988 C 0.4521 0.47405 0.1929 0.0
O989 O 0.44099 0.45123 0.17631 0.0
O990 O 0.45273 0.49699 0.1837 0.0
C991 C 0.41596 0.38684 0.12496 0.0
O992 O 0.44141 0.39669 0.13791 0.0
C993 C 0.48141 0.56953 0.15595 0.0
C994 C 0.45522 0.58953 0.14421 0.0
C995 C 0.48212 0.5959 0.15525 0.0
N996 N 0.45539 0.54889 0.14596 0.0
N997 N 0.43987 0.56099 0.13891 0.0
C998 C 0.50499 0.56366 0.16487 0.0
H999 H 0.50154 0.5435 0.15361 0.0
H1000 H 0.52634 0.58192 0.15799 0.0
H1001 H 0.50466 0.5607 0.19053 0.0
C1002 C 0.45182 0.46419 0.07748 0.0
N1003 N 0.44197 0.46867 0.10465 0.0
N1004 N 0.45141 0.4964 0.10799 0.0
C1005 C 0.46781 0.51049 0.08296 0.0
C1006 C 0.46849 0.49047 0.06279 0.0
C1007 C 0.44687 0.43546 0.06677 0.0
H1008 H 0.42338 0.41997 0.06558 0.0
H1009 H 0.4566 0.42734 0.0839 0.0
H1010 H 0.45668 0.43668 0.04362 0.0
O1011 O 0.38368 0.44443 0.1447 0.0
O1012 O 0.39771 0.49081 0.14769 0.0
H1013 H 0.46673 0.54991 0.08344 0.0
H1014 H 0.49024 0.54844 0.05394 0.0
C1015 C 0.48215 0.54237 0.07821 0.0
H1016 H 0.50055 0.55327 0.0946 0.0
H1017 H 0.4186 0.54968 0.13097 0.0
O1018 O 0.40495 0.40296 0.12301 0.0
C1019 C 0.37785 0.46451 0.14843 0.0
Co1020 Co 0.02868 0.44539 0.63122 0.0
Co1021 Co 0.06776 0.51097 0.64594 0.0
C1022 C 0.02382 0.47064 0.69166 0.0
O1023 O 0.01614 0.44952 0.67302 0.0
O1024 O 0.04302 0.49616 0.68411 0.0
C1025 C 8e-05 0.38434 0.62734 0.0
O1026 O 0.0161 0.38697 0.65171 0.0
C1027 C 0.08684 0.57091 0.66432 0.0
C1028 C 0.12773 0.59485 0.63814 0.0
C1029 C 0.10957 0.59846 0.6583 0.0
N1030 N 0.09119 0.55196 0.64801 0.0
N1031 N 0.11574 0.5664 0.63258 0.0
C1032 C 0.06263 0.5623 0.68704 0.0
H1033 H 0.06343 0.5476 0.70472 0.0
H1034 H 0.04174 0.55033 0.67455 0.0
H1035 H 0.06399 0.5811 0.69943 0.0
C1036 C 0.01515 0.46832 0.57565 0.0
N1037 N 0.02923 0.47231 0.60284 0.0
N1038 N 0.0451 0.50005 0.60859 0.0
C1039 C 0.04133 0.51469 0.58508 0.0
C1040 C 0.02241 0.49496 0.56332 0.0
C1041 C 0.99404 0.43938 0.56254 0.0
H1042 H 0.97695 0.42719 0.58007 0.0
H1043 H 0.98377 0.44112 0.5408 0.0
H1044 H 0.00526 0.42712 0.55765 0.0
O1045 O 0.06679 0.44877 0.63585 0.0
O1046 O 0.09466 0.49517 0.64695 0.0
H1047 H 0.04837 0.55402 0.56288 0.0
H1048 H 0.0522 0.5555 0.60502 0.0
C1049 C 0.05607 0.54684 0.58316 0.0
H1050 H 0.07964 0.55566 0.5809 0.0
H1051 H 0.12428 0.55681 0.61815 0.0
O1052 O 0.00182 0.40678 0.61542 0.0
C1053 C 0.0913 0.47008 0.6429 0.0
Co1054 Co 0.556 0.58606 0.63365 0.0
Co1055 Co 0.4898 0.55714 0.64743 0.0
C1056 C 0.52924 0.55277 0.69295 0.0
O1057 O 0.55087 0.56835 0.67558 0.0
O1058 O 0.50368 0.54551 0.68462 0.0
C1059 C 0.60847 0.58534 0.62063 0.0
O1060 O 0.59485 0.5591 0.63215 0.0
C1061 C 0.42925 0.51731 0.6659 0.0
C1062 C 0.40587 0.53214 0.63559 0.0
C1063 C 0.40181 0.5119 0.65809 0.0
N1064 N 0.44859 0.53937 0.64832 0.0
N1065 N 0.43444 0.54828 0.6305 0.0
C1066 C 0.4373 0.50364 0.69148 0.0
H1067 H 0.45287 0.52068 0.70735 0.0
H1068 H 0.44797 0.49236 0.68121 0.0
H1069 H 0.41834 0.48832 0.70546 0.0
C1070 C 0.53402 0.55069 0.57604 0.0
N1071 N 0.52982 0.55997 0.60378 0.0
N1072 N 0.502 0.54701 0.60973 0.0
C1073 C 0.48768 0.52836 0.58628 0.0
C1074 C 0.50754 0.53018 0.56413 0.0
C1075 C 0.56297 0.56041 0.56173 0.0
H1076 H 0.57696 0.58402 0.56464 0.0
H1077 H 0.57308 0.54931 0.57358 0.0
H1078 H 0.56144 0.55509 0.53656 0.0
O1079 O 0.55147 0.62007 0.6379 0.0
O1080 O 0.50522 0.59973 0.65085 0.0
H1081 H 0.44872 0.49406 0.56527 0.0
H1082 H 0.44743 0.49806 0.60723 0.0
C1083 C 0.45559 0.50973 0.5848 0.0
H1084 H 0.44591 0.52358 0.5813 0.0
H1085 H 0.44433 0.56535 0.6147 0.0
O1086 O 0.5959 0.60011 0.61992 0.0
C1087 C 0.52974 0.62207 0.64606 0.0
Co1088 Co 0.41219 0.97099 0.63261 0.0
Co1089 Co 0.43979 0.93265 0.64502 0.0
C1090 C 0.44642 0.97692 0.691 0.0
O1091 O 0.4308 0.9833 0.67413 0.0
O1092 O 0.45308 0.95827 0.68221 0.0
C1093 C 0.41153 0.02419 0.62152 0.0
O1094 O 0.43703 0.03761 0.63485 0.0
C1095 C 0.48122 0.91281 0.65713 0.0
C1096 C 0.45534 0.86689 0.64396 0.0
C1097 C 0.48186 0.8871 0.65614 0.0
N1098 N 0.45555 0.90772 0.64625 0.0
N1099 N 0.44025 0.88027 0.63833 0.0
C1100 C 0.50457 0.942 0.66716 0.0
H1101 H 0.50141 0.95904 0.65634 0.0
H1102 H 0.52607 0.94527 0.66066 0.0
H1103 H 0.50368 0.94386 0.69288 0.0
C1104 C 0.44633 0.98382 0.57437 0.0
N1105 N 0.43733 0.97024 0.60205 0.0
N1106 N 0.44932 0.95432 0.60695 0.0
C1107 C 0.46668 0.9576 0.58251 0.0
C1108 C 0.46521 0.97631 0.56102 0.0
C1109 C 0.43845 0.00508 0.56189 0.0
H1110 H 0.4485 0.0246 0.57679 0.0
H1111 H 0.4462 0.01186 0.5377 0.0
H1112 H 0.41472 0.99561 0.56254 0.0
O1113 O 0.3775 0.93288 0.63713 0.0
O1114 O 0.39735 0.90654 0.64977 0.0
H1115 H 0.4936 0.94578 0.55598 0.0
H1116 H 0.50146 0.95174 0.59725 0.0
C1117 C 0.48397 0.94281 0.5796 0.0
H1118 H 0.47002 0.91946 0.58438 0.0
H1119 H 0.41926 0.87053 0.62958 0.0
O1120 O 0.39827 0.99691 0.61918 0.0
C1121 C 0.37521 0.90906 0.6454 0.0
Co1122 Co 0.10975 0.3594 0.2091 0.0
Co1123 Co 0.17626 0.40002 0.19914 0.0
C1124 C 0.13859 0.35427 0.15244 0.0
O1125 O 0.11612 0.34453 0.16943 0.0
O1126 O 0.16254 0.37572 0.16089 0.0
C1127 C 0.05483 0.30753 0.22128 0.0
O1128 O 0.06611 0.2933 0.20809 0.0
C1129 C 0.23641 0.41876 0.18116 0.0
C1130 C 0.2607 0.45786 0.21007 0.0
C1131 C 0.26411 0.44066 0.18833 0.0
N1132 N 0.21754 0.42259 0.19837 0.0
N1133 N 0.23223 0.44611 0.21542 0.0
C1134 C 0.22767 0.39626 0.15627 0.0
H1135 H 0.21354 0.39881 0.13922 0.0
H1136 H 0.21511 0.37454 0.16693 0.0
H1137 H 0.24646 0.39807 0.14341 0.0
C1138 C 0.13038 0.34652 0.26787 0.0
N1139 N 0.13526 0.36069 0.24052 0.0
N1140 N 0.16325 0.37688 0.23616 0.0
C1141 C 0.17705 0.37305 0.26048 0.0
C1142 C 0.15663 0.35387 0.28146 0.0
C1143 C 0.10115 0.32478 0.27976 0.0
H1144 H 0.08676 0.3341 0.27946 0.0
H1145 H 0.09198 0.30564 0.26431 0.0
H1146 H 0.10194 0.31747 0.30375 0.0
O1147 O 0.11436 0.39796 0.20148 0.0
O1148 O 0.16148 0.42741 0.19712 0.0
H1149 H 0.21776 0.41119 0.26693 0.0
H1150 H 0.21566 0.37946 0.284 0.0
C1151 C 0.20912 0.38775 0.26372 0.0
H1152 H 0.21861 0.38466 0.24205 0.0
H1153 H 0.22279 0.45418 0.23069 0.0
O1154 O 0.06956 0.33484 0.22305 0.0
C1155 C 0.13586 0.42313 0.19743 0.0
Co1156 Co 0.63544 0.74735 0.20862 0.0
Co1157 Co 0.59487 0.7734 0.19745 0.0
C1158 C 0.64151 0.78274 0.15204 0.0
O1159 O 0.65058 0.76919 0.16875 0.0
O1160 O 0.62041 0.78577 0.16056 0.0
C1161 C 0.68784 0.74546 0.22277 0.0
O1162 O 0.70196 0.77123 0.21014 0.0
C1163 C 0.57435 0.81344 0.18018 0.0
C1164 C 0.53411 0.79621 0.2076 0.0
C1165 C 0.55144 0.81781 0.18686 0.0
N1166 N 0.57094 0.79057 0.19667 0.0
N1167 N 0.54672 0.78025 0.2128 0.0
C1168 C 0.59772 0.82892 0.15652 0.0
H1169 H 0.59658 0.81323 0.13887 0.0
H1170 H 0.61904 0.83839 0.16818 0.0
H1171 H 0.59563 0.84597 0.14418 0.0
C1172 C 0.64582 0.77958 0.26815 0.0
N1173 N 0.63268 0.77076 0.2402 0.0
N1174 N 0.61667 0.78265 0.2352 0.0
C1175 C 0.61982 0.80006 0.25951 0.0
C1176 C 0.63826 0.79851 0.28122 0.0
C1177 C 0.66657 0.77137 0.28139 0.0
H1178 H 0.68696 0.7824 0.26794 0.0
H1179 H 0.67164 0.77779 0.30621 0.0
H1180 H 0.65745 0.74774 0.27943 0.0
O1181 O 0.59734 0.71292 0.20013 0.0
O1182 O 0.56884 0.73141 0.19269 0.0
H1183 H 0.61322 0.83242 0.28235 0.0
H1184 H 0.60953 0.83065 0.24018 0.0
C1185 C 0.60546 0.81781 0.26183 0.0
H1186 H 0.58186 0.80326 0.26406 0.0
H1187 H 0.5388 0.76229 0.22742 0.0
O1188 O 0.66045 0.73232 0.22337 0.0
C1189 C 0.57279 0.7099 0.19373 0.0
Co1190 Co 0.25018 0.88928 0.21443 0.0
Co1191 Co 0.22221 0.82322 0.199 0.0
C1192 C 0.21751 0.86408 0.15491 0.0
O1193 O 0.23171 0.8851 0.17349 0.0
O1194 O 0.21145 0.83852 0.16193 0.0
C1195 C 0.25207 0.94326 0.22819 0.0
O1196 O 0.2269 0.93184 0.2142 0.0
C1197 C 0.1831 0.7632 0.17768 0.0
C1198 C 0.19656 0.73884 0.20829 0.0
C1199 C 0.1774 0.73547 0.18476 0.0
N1200 N 0.20427 0.78195 0.19663 0.0
N1201 N 0.21237 0.76722 0.21461 0.0
C1202 C 0.17078 0.77214 0.15148 0.0
H1203 H 0.18862 0.78847 0.13694 0.0
H1204 H 0.15877 0.78226 0.16122 0.0
H1205 H 0.15643 0.7537 0.1363 0.0
C1206 C 0.21488 0.86598 0.2714 0.0
N1207 N 0.22445 0.86226 0.24367 0.0
N1208 N 0.21171 0.83455 0.23714 0.0
C1209 C 0.193 0.81979 0.26039 0.0
C1210 C 0.19457 0.83928 0.2829 0.0
C1211 C 0.22382 0.89473 0.28579 0.0
H1212 H 0.24762 0.90844 0.28501 0.0
H1213 H 0.21415 0.90541 0.27227 0.0
H1214 H 0.21649 0.89284 0.31031 0.0
O1215 O 0.28399 0.88486 0.20785 0.0
O1216 O 0.2648 0.83845 0.19667 0.0
H1217 H 0.18811 0.77797 0.2653 0.0
H1218 H 0.1581 0.78058 0.28019 0.0
C1219 C 0.17435 0.78769 0.26124 0.0
H1220 H 0.16338 0.77982 0.23841 0.0
H1221 H 0.22871 0.77658 0.23131 0.0
O1222 O 0.265 0.92887 0.23005 0.0
C1223 C 0.28679 0.86343 0.2004 0.0
C1224 C 0.31579 0.19548 0.89742 0.0
C1225 C 0.34563 0.21034 0.89182 0.0
C1226 C 0.30496 0.18904 0.92799 0.0
C1227 C 0.32364 0.19817 0.95388 0.0
H1228 H 0.30079 0.18905 0.87807 0.0
H1229 H 0.28182 0.17803 0.93142 0.0
S1230 S 0.40346 0.23735 0.95158 0.0
N1231 N 0.39366 0.23304 0.9145 0.0
N1232 N 0.37322 0.22217 0.97198 0.0
C1233 C 0.35347 0.2127 0.94855 0.0
C1234 C 0.36448 0.21846 0.91747 0.0
C1235 C 0.77268 0.10358 0.93882 0.0
C1236 C 0.79771 0.12387 0.95461 0.0
C1237 C 0.76756 0.10787 0.90781 0.0
C1238 C 0.78696 0.1329 0.8914 0.0
H1239 H 0.75711 0.08381 0.95029 0.0
H1240 H 0.74791 0.09155 0.89677 0.0
S1241 S 0.85549 0.19302 0.92218 0.0
N1242 N 0.84211 0.17008 0.95159 0.0
N1243 N 0.83216 0.1784 0.89326 0.0
C1244 C 0.81193 0.1536 0.90694 0.0
C1245 C 0.81742 0.14898 0.93851 0.0
C1246 C 0.87464 0.6845 0.89959 0.0
C1247 C 0.86325 0.65487 0.89445 0.0
C1248 C 0.87973 0.69577 0.92998 0.0
C1249 C 0.87459 0.67791 0.95614 0.0
H1250 H 0.88003 0.69909 0.87998 0.0
H1251 H 0.889 0.71883 0.93294 0.0
S1252 S 0.8444 0.59878 0.95501 0.0
N1253 N 0.84595 0.6077 0.91784 0.0
N1254 N 0.85684 0.62912 0.97494 0.0
C1255 C 0.86284 0.6482 0.95129 0.0
C1256 C 0.85681 0.63661 0.92041 0.0
C1257 C 0.18223 0.3051 0.58206 0.0
C1258 C 0.19565 0.32344 0.55639 0.0
C1259 C 0.18795 0.31574 0.61274 0.0
C1260 C 0.20647 0.3452 0.6186 0.0
H1261 H 0.16838 0.28212 0.57855 0.0
H1262 H 0.17824 0.30081 0.63199 0.0
S1263 S 0.24544 0.40243 0.5596 0.0
N1264 N 0.22752 0.37257 0.5389 0.0
N1265 N 0.23724 0.39274 0.59648 0.0
C1266 C 0.21888 0.36396 0.59314 0.0
C1267 C 0.21374 0.35303 0.56202 0.0
C1268 C 0.66035 0.89202 0.60523 0.0
C1269 C 0.65359 0.86636 0.62101 0.0
C1270 C 0.66985 0.89652 0.57423 0.0
C1271 C 0.6735 0.8758 0.5579 0.0
H1272 H 0.65772 0.9086 0.61666 0.0
H1273 H 0.67487 0.91669 0.56317 0.0
S1274 S 0.65913 0.80509 0.58858 0.0
N1275 N 0.65127 0.81993 0.61798 0.0
N1276 N 0.6696 0.82863 0.55969 0.0
C1277 C 0.6671 0.85014 0.5734 0.0
C1278 C 0.65698 0.84535 0.60493 0.0
C1279 C 0.13674 0.78781 0.56439 0.0
C1280 C 0.12271 0.80361 0.55891 0.0
C1281 C 0.14352 0.7836 0.59488 0.0
C1282 C 0.13557 0.79422 0.62081 0.0
H1283 H 0.14216 0.77835 0.54505 0.0
H1284 H 0.15372 0.77071 0.59826 0.0
S1285 S 0.09903 0.83737 0.61887 0.0
N1286 N 0.10216 0.83089 0.58178 0.0
N1287 N 0.1137 0.82174 0.63911 0.0
C1288 C 0.122 0.81043 0.6156 0.0
C1289 C 0.11589 0.81546 0.5846 0.0
C1290 C 0.69431 0.81294 0.08454 0.0
C1291 C 0.67585 0.80505 0.05852 0.0
C1292 C 0.68317 0.80611 0.115 0.0
C1293 C 0.6533 0.79208 0.12034 0.0
H1294 H 0.71742 0.82319 0.08123 0.0
H1295 H 0.69795 0.81152 0.13443 0.0
S1296 S 0.59611 0.76825 0.06006 0.0
N1297 N 0.62652 0.78303 0.03999 0.0
N1298 N 0.60555 0.7714 0.0972 0.0
C1299 C 0.63474 0.78522 0.09454 0.0
C1300 C 0.64603 0.79138 0.06359 0.0
C1301 C 0.18206 0.85441 0.07518 0.0
C1302 C 0.20049 0.88085 0.06049 0.0
C1303 C 0.18746 0.84901 0.10591 0.0
C1304 C 0.21088 0.87024 0.12318 0.0
H1305 H 0.16378 0.83763 0.06265 0.0
H1306 H 0.17317 0.82815 0.11621 0.0
S1307 S 0.26438 0.94369 0.09553 0.0
N1308 N 0.2424 0.92871 0.06566 0.0
N1309 N 0.25216 0.91901 0.12326 0.0
C1310 C 0.22892 0.89703 0.10884 0.0
C1311 C 0.22381 0.90222 0.07754 0.0
C1312 C 0.14101 0.35059 0.06445 0.0
C1313 C 0.12531 0.3208 0.0586 0.0
C1314 C 0.14672 0.36121 0.09512 0.0
C1315 C 0.13599 0.34239 0.12083 0.0
H1316 H 0.1485 0.36575 0.04521 0.0
H1317 H 0.15837 0.38434 0.09872 0.0
S1318 S 0.09437 0.2626 0.11792 0.0
N1319 N 0.10028 0.27262 0.08092 0.0
N1320 N 0.10982 0.2927 0.13855 0.0
C1321 C 0.12075 0.31259 0.11529 0.0
C1322 C 0.11573 0.30175 0.08413 0.0
C1323 C 0.81157 0.69389 0.42866 0.0
C1324 C 0.80069 0.67435 0.45381 0.0
C1325 C 0.80568 0.68418 0.39761 0.0
C1326 C 0.7896 0.65461 0.39082 0.0
H1327 H 0.82353 0.7169 0.43301 0.0
H1328 H 0.81347 0.69985 0.37886 0.0
S1329 S 0.75756 0.59471 0.4481 0.0
N1330 N 0.7736 0.62415 0.46976 0.0
N1331 N 0.76367 0.60584 0.41148 0.0
C1332 C 0.77965 0.63484 0.41569 0.0
C1333 C 0.7849 0.64473 0.44721 0.0
C1334 C 0.30409 0.1176 0.42962 0.0
C1335 C 0.32285 0.1257 0.4554 0.0
C1336 C 0.31477 0.12227 0.39899 0.0
C1337 C 0.34455 0.13611 0.39324 0.0
H1338 H 0.28096 0.10628 0.43314 0.0
H1339 H 0.29965 0.11467 0.3797 0.0
S1340 S 0.40262 0.16323 0.45269 0.0
N1341 N 0.37249 0.14893 0.47325 0.0
N1342 N 0.39268 0.15902 0.41565 0.0
C1343 C 0.36355 0.14557 0.4188 0.0
C1344 C 0.35266 0.14001 0.44993 0.0
C1345 C 0.89952 0.22413 0.44031 0.0
C1346 C 0.87993 0.19843 0.45558 0.0
C1347 C 0.89459 0.22983 0.40974 0.0
C1348 C 0.86955 0.21039 0.39338 0.0
H1349 H 0.9192 0.2398 0.45183 0.0
H1350 H 0.91036 0.24994 0.39902 0.0
S1351 S 0.81118 0.14017 0.42283 0.0
N1352 N 0.83446 0.15324 0.45198 0.0
N1353 N 0.82481 0.16443 0.39464 0.0
C1354 C 0.84954 0.18475 0.4084 0.0
C1355 C 0.85486 0.17863 0.43943 0.0
C1356 C 0.99474 0.51636 0.27124 0.0
C1357 C 0.99013 0.53699 0.28656 0.0
C1358 C 0.00565 0.52102 0.24055 0.0
C1359 C 0.01125 0.54596 0.22394 0.0
H1360 H 0.99012 0.49665 0.28311 0.0
H1361 H 0.00921 0.50484 0.22959 0.0
S1362 S 0.00267 0.60641 0.25343 0.0
N1363 N 0.9923 0.58336 0.28273 0.0
N1364 N 0.01193 0.59167 0.22521 0.0
C1365 C 0.00662 0.56661 0.23901 0.0
C1366 C 0.99627 0.56223 0.27028 0.0
C1367 C 0.47701 0.45875 0.23114 0.0
C1368 C 0.46113 0.47259 0.22506 0.0
C1369 C 0.48254 0.45387 0.26188 0.0
C1370 C 0.47148 0.46174 0.28748 0.0
H1371 H 0.48467 0.45112 0.21201 0.0
H1372 H 0.49423 0.44245 0.26559 0.0
S1373 S 0.42938 0.49936 0.28401 0.0
N1374 N 0.43564 0.49539 0.24708 0.0
N1375 N 0.4449 0.48493 0.30485 0.0
C1376 C 0.45616 0.47617 0.28173 0.0
C1377 C 0.4513 0.48195 0.25048 0.0
C1378 C 0.51531 0.99615 0.23962 0.0
C1379 C 0.53455 0.98996 0.22366 0.0
C1380 C 0.52122 0.00712 0.27029 0.0
C1381 C 0.54598 0.01118 0.28622 0.0
H1382 H 0.49586 0.99287 0.22821 0.0
H1383 H 0.50619 0.01209 0.28172 0.0
S1384 S 0.60252 0.99724 0.25495 0.0
N1385 N 0.57908 0.98834 0.2262 0.0
N1386 N 0.58971 0.00809 0.28371 0.0
C1387 C 0.56505 0.0046 0.27057 0.0
C1388 C 0.55944 0.9942 0.23933 0.0
C1389 C 0.43404 0.99442 0.73903 0.0
C1390 C 0.45361 0.98875 0.72305 0.0
C1391 C 0.4388 0.00383 0.77002 0.0
C1392 C 0.46364 0.00858 0.78618 0.0
H1393 H 0.41448 0.99101 0.72772 0.0
H1394 H 0.42308 0.00795 0.78123 0.0
S1395 S 0.52183 0.99733 0.75497 0.0
N1396 N 0.4988 0.98844 0.72572 0.0
N1397 N 0.50815 0.00701 0.78401 0.0
C1398 C 0.48362 0.00333 0.7705 0.0
C1399 C 0.47846 0.99313 0.73896 0.0
C1400 C 0.00693 0.48374 0.74055 0.0
C1401 C 0.01259 0.46444 0.72396 0.0
C1402 C 0.99607 0.47754 0.77122 0.0
C1403 C 0.99144 0.4523 0.78658 0.0
H1404 H 0.01039 0.50344 0.72956 0.0
H1405 H 0.99139 0.49262 0.78302 0.0
S1406 S 0.00431 0.39557 0.75359 0.0
N1407 N 0.0135 0.41952 0.72534 0.0
N1408 N 0.99383 0.40821 0.78285 0.0
C1409 C 0.9977 0.43324 0.77036 0.0
C1410 C 0.00808 0.43923 0.73909 0.0
C1411 C 0.56419 0.56175 0.77201 0.0
C1412 C 0.54534 0.53599 0.78765 0.0
C1413 C 0.55903 0.56652 0.74118 0.0
C1414 C 0.53449 0.54598 0.7249 0.0
H1415 H 0.58352 0.57819 0.78342 0.0
H1416 H 0.57421 0.58672 0.73017 0.0
S1417 S 0.47809 0.47514 0.75531 0.0
N1418 N 0.50106 0.48965 0.78455 0.0
N1419 N 0.49103 0.49893 0.72663 0.0
C1420 C 0.51522 0.52026 0.74029 0.0
C1421 C 0.52075 0.51516 0.77163 0.0
C1422 C 0.41662 0.34498 0.09953 0.0
C1423 C 0.40109 0.35832 0.10947 0.0
C1424 C 0.40308 0.31897 0.08274 0.0
C1425 C 0.37349 0.30527 0.0755 0.0
H1426 H 0.4395 0.35493 0.10422 0.0
H1427 H 0.41591 0.3095 0.07557 0.0
S1428 S 0.32298 0.33104 0.09729 0.0
N1429 N 0.35437 0.35552 0.11166 0.0
N1430 N 0.32903 0.30701 0.08011 0.0
C1431 C 0.35769 0.31833 0.08565 0.0
C1432 C 0.37146 0.34473 0.10264 0.0
C1433 C 0.68066 0.08033 0.08503 0.0
C1434 C 0.69242 0.0643 0.0722 0.0
C1435 C 0.65409 0.06664 0.1007 0.0
C1436 C 0.63824 0.03643 0.10378 0.0
H1437 H 0.69234 0.10365 0.08361 0.0
H1438 H 0.64593 0.07985 0.11037 0.0
S1439 S 0.65925 0.98464 0.07293 0.0
N1440 N 0.68587 0.01663 0.06264 0.0
N1441 N 0.63617 0.9909 0.09196 0.0
C1442 C 0.64965 0.02017 0.09053 0.0
C1443 C 0.67666 0.0341 0.07477 0.0
C1444 C 0.94603 0.61672 0.06863 0.0
C1445 C 0.9474 0.64281 0.07667 0.0
C1446 C 0.96136 0.6064 0.0856 0.0
C1447 C 0.97852 0.62166 0.11145 0.0
H1448 H 0.93339 0.60431 0.04877 0.0
H1449 H 0.95992 0.58641 0.07811 0.0
S1450 S 0.98861 0.69063 0.14308 0.0
N1451 N 0.9669 0.68341 0.11292 0.0
N1452 N 0.99532 0.66378 0.14484 0.0
C1453 C 0.97955 0.64742 0.12026 0.0
C1454 C 0.96413 0.65806 0.10286 0.0
C1455 C 0.31891 0.40143 0.42817 0.0
C1456 C 0.3062 0.3727 0.43852 0.0
C1457 C 0.34497 0.41432 0.41145 0.0
C1458 C 0.3594 0.39905 0.40473 0.0
H1459 H 0.30846 0.41394 0.43256 0.0
H1460 H 0.35395 0.43651 0.40402 0.0
S1461 S 0.33537 0.32333 0.42736 0.0
N1462 N 0.31028 0.32951 0.44134 0.0
N1463 N 0.35894 0.35353 0.41 0.0
C1464 C 0.34694 0.37032 0.41517 0.0
C1465 C 0.32045 0.35722 0.43204 0.0
C1466 C 0.60008 0.9216 0.43215 0.0
C1467 C 0.62971 0.93706 0.43921 0.0
C1468 C 0.58687 0.93455 0.41571 0.0
C1469 C 0.60278 0.9635 0.4061 0.0
H1470 H 0.58702 0.89922 0.43901 0.0
H1471 H 0.56397 0.92192 0.41097 0.0
S1472 S 0.68104 0.01339 0.41858 0.0
N1473 N 0.67456 0.98294 0.43517 0.0
N1474 N 0.64981 0.00713 0.40439 0.0
C1475 C 0.63242 0.97917 0.41299 0.0
C1476 C 0.64586 0.966 0.42952 0.0
C1477 C 0.02214 0.655 0.41438 0.0
C1478 C 0.03748 0.64093 0.40651 0.0
C1479 C 0.03509 0.68077 0.43121 0.0
C1480 C 0.06394 0.69361 0.44116 0.0
H1481 H -0.00018 0.64607 0.40746 0.0
H1482 H 0.02221 0.69067 0.43646 0.0
S1483 S 0.11364 0.66536 0.4269 0.0
N1484 N 0.08314 0.6416 0.4101 0.0
N1485 N 0.1076 0.69025 0.44189 0.0
C1486 C 0.07962 0.67978 0.43359 0.0
C1487 C 0.0664 0.65346 0.41616 0.0
C1488 C 0.58714 0.65353 0.91426 0.0
C1489 C 0.60383 0.64066 0.90717 0.0
C1490 C 0.59879 0.67941 0.9312 0.0
C1491 C 0.62764 0.6935 0.94134 0.0
H1492 H 0.56481 0.6434 0.90698 0.0
H1493 H 0.58524 0.68866 0.93589 0.0
S1494 S 0.68044 0.66872 0.92897 0.0
N1495 N 0.65072 0.64403 0.91174 0.0
N1496 N 0.6725 0.69244 0.94346 0.0
C1497 C 0.64451 0.68081 0.93445 0.0
C1498 C 0.63265 0.65447 0.91741 0.0
C1499 C 0.31856 0.96119 0.93012 0.0
C1500 C 0.30527 0.93216 0.9395 0.0
C1501 C 0.34452 0.97412 0.91367 0.0
C1502 C 0.3584 0.95862 0.9057 0.0
H1503 H 0.30887 0.97424 0.93546 0.0
H1504 H 0.35374 0.99656 0.90713 0.0
S1505 S 0.33289 0.88199 0.92486 0.0
N1506 N 0.30803 0.88816 0.93969 0.0
N1507 N 0.35712 0.91262 0.90868 0.0
C1508 C 0.34546 0.92953 0.91485 0.0
C1509 C 0.3189 0.9163 0.93185 0.0
C1510 C 0.03731 0.35521 0.93051 0.0
C1511 C 0.06579 0.37225 0.94124 0.0
C1512 C 0.02372 0.36716 0.91335 0.0
C1513 C 0.03805 0.39667 0.90592 0.0
H1514 H 0.02521 0.33231 0.93543 0.0
H1515 H 0.00169 0.35304 0.90586 0.0
S1516 S 0.11291 0.45088 0.92835 0.0
N1517 N 0.10803 0.4203 0.94316 0.0
N1518 N 0.08238 0.44287 0.91073 0.0
C1519 C 0.06662 0.41407 0.91632 0.0
C1520 C 0.08047 0.40187 0.9341 0.0
C1521 C 0.65388 0.62683 0.60087 0.0
C1522 C 0.63683 0.59691 0.60523 0.0
C1523 C 0.67998 0.63873 0.58472 0.0
C1524 C 0.69012 0.62124 0.57193 0.0
H1525 H 0.64701 0.64131 0.60997 0.0
H1526 H 0.69217 0.66195 0.58209 0.0
S1527 S 0.65345 0.54142 0.57663 0.0
N1528 N 0.63177 0.54985 0.59546 0.0
N1529 N 0.68102 0.5723 0.56484 0.0
C1530 C 0.67333 0.59121 0.5761 0.0
C1531 C 0.6467 0.57904 0.59288 0.0
C1532 C 0.36969 0.02517 0.59801 0.0
C1533 C 0.39901 0.0402 0.60628 0.0
C1534 C 0.35706 0.03876 0.58212 0.0
C1535 C 0.37317 0.06801 0.57364 0.0
H1536 H 0.3562 0.00258 0.60383 0.0
H1537 H 0.33435 0.02603 0.57648 0.0
S1538 S 0.45099 0.11714 0.58947 0.0
N1539 N 0.44407 0.08598 0.60463 0.0
N1540 N 0.4202 0.11171 0.57466 0.0
C1541 C 0.4026 0.08342 0.58166 0.0
C1542 C 0.41552 0.0695 0.59808 0.0
C1543 C 0.96292 0.35367 0.58783 0.0
C1544 C 0.98175 0.35608 0.61213 0.0
C1545 C 0.94674 0.3278 0.57146 0.0
C1546 C 0.94889 0.30335 0.57857 0.0
H1547 H 0.96081 0.372 0.58108 0.0
H1548 H 0.93284 0.32718 0.55275 0.0
S1549 S 0.99428 0.29797 0.64106 0.0
N1550 N 0.00084 0.33146 0.64324 0.0
N1551 N 0.97081 0.28297 0.61242 0.0
C1552 C 0.96725 0.3053 0.60328 0.0
C1553 C 0.98354 0.3316 0.62008 0.0
C1554 C 0.99103 0.73879 0.774 0.0
C1555 C 0.97447 0.7085 0.77556 0.0
C1556 C 0.01677 0.75257 0.75677 0.0
C1557 C 0.02697 0.73654 0.7407 0.0
H1558 H 0.98411 0.75202 0.78617 0.0
H1559 H 0.0291 0.77592 0.75672 0.0
S1560 S 0.99128 0.65676 0.73607 0.0
N1561 N 0.96998 0.66296 0.75861 0.0
N1562 N 0.01807 0.68885 0.72635 0.0
C1563 C 0.01042 0.7063 0.74162 0.0
C1564 C 0.98428 0.69228 0.75902 0.0
C1565 C 0.26522 0.25225 0.76257 0.0
C1566 C 0.29444 0.26853 0.77126 0.0
C1567 C 0.25176 0.26472 0.74569 0.0
C1568 C 0.26694 0.294 0.73712 0.0
H1569 H 0.25268 0.2296 0.76852 0.0
H1570 H 0.2292 0.25139 0.73972 0.0
S1571 S 0.34397 0.34609 0.7539 0.0
N1572 N 0.33815 0.3156 0.76983 0.0
N1573 N 0.31295 0.33887 0.7382 0.0
C1574 C 0.29618 0.31052 0.74564 0.0
C1575 C 0.30988 0.29784 0.76267 0.0
C1576 C 0.70111 0.0124 0.76316 0.0
C1577 C 0.73004 0.02509 0.77281 0.0
C1578 C 0.68764 0.98622 0.74707 0.0
C1579 C 0.70249 0.97155 0.7397 0.0
H1580 H 0.68858 0.02274 0.768 0.0
H1581 H 0.66531 0.97747 0.74029 0.0
S1582 S 0.7785 0.99512 0.75994 0.0
N1583 N 0.77316 0.02078 0.77403 0.0
N1584 N 0.74771 0.97136 0.74364 0.0
C1585 C 0.73145 0.98386 0.74915 0.0
C1586 C 0.74521 0.01061 0.7658 0.0
C1587 C 0.30644 0.01172 0.2692 0.0
C1588 C 0.29081 0.02573 0.27602 0.0
C1589 C 0.29368 0.98527 0.25363 0.0
C1590 C 0.26472 0.97166 0.24394 0.0
H1591 H 0.32889 0.02126 0.27588 0.0
H1592 H 0.30681 0.97552 0.24901 0.0
S1593 S 0.21405 0.99905 0.25631 0.0
N1594 N 0.2446 0.02389 0.2721 0.0
N1595 N 0.22052 0.97399 0.24268 0.0
C1596 C 0.24868 0.9853 0.25066 0.0
C1597 C 0.26171 0.01231 0.26679 0.0
C1598 C 0.01204 0.30745 0.24391 0.0
C1599 C 0.02662 0.29234 0.23737 0.0
C1600 C 0.98622 0.29465 0.26069 0.0
C1601 C 0.9739 0.26623 0.27196 0.0
H1602 H 0.02064 0.32946 0.23601 0.0
H1603 H 0.97594 0.30735 0.26494 0.0
S1604 S 0.00375 0.21739 0.26154 0.0
N1605 N 0.02704 0.24742 0.24361 0.0
N1606 N 0.97837 0.22327 0.27537 0.0
C1607 C 0.98825 0.25079 0.26566 0.0
C1608 C 0.01457 0.26383 0.24826 0.0
C1609 C 0.70068 0.69103 0.2658 0.0
C1610 C 0.73016 0.70663 0.27342 0.0
C1611 C 0.68746 0.70377 0.24923 0.0
C1612 C 0.70315 0.73265 0.23925 0.0
H1613 H 0.68756 0.66867 0.27271 0.0
H1614 H 0.66466 0.6907 0.24416 0.0
S1615 S 0.78115 0.78298 0.25286 0.0
N1616 N 0.77484 0.75259 0.26956 0.0
N1617 N 0.74998 0.77659 0.23824 0.0
C1618 C 0.73272 0.74857 0.2466 0.0
C1619 C 0.7462 0.73559 0.26377 0.0
C1620 C 0.34897 0.17993 0.14932 0.0
C1621 C 0.31917 0.16747 0.14397 0.0
C1622 C 0.35955 0.17639 0.17796 0.0
C1623 C 0.34065 0.16033 0.20221 0.0
H1624 H 0.36422 0.19254 0.13119 0.0
H1625 H 0.38262 0.18602 0.18105 0.0
S1626 S 0.26086 0.12461 0.20052 0.0
N1627 N 0.27102 0.13926 0.16553 0.0
N1628 N 0.29083 0.13264 0.21944 0.0
C1629 C 0.31083 0.1479 0.19721 0.0
C1630 C 0.30008 0.15143 0.16804 0.0
C1631 C 0.82097 0.13818 0.1743 0.0
C1632 C 0.82893 0.15284 0.14554 0.0
C1633 C 0.82434 0.15307 0.20243 0.0
C1634 C 0.83582 0.18308 0.20265 0.0
H1635 H 0.81215 0.11505 0.17502 0.0
H1636 H 0.81842 0.14114 0.22418 0.0
S1637 S 0.85885 0.2312 0.13362 0.0
N1638 N 0.84786 0.1988 0.11894 0.0
N1639 N 0.85449 0.22683 0.17182 0.0
C1640 C 0.84359 0.1979 0.17406 0.0
C1641 C 0.84012 0.18277 0.14549 0.0
C1642 C 0.80181 0.65409 0.17137 0.0
C1643 C 0.81613 0.65828 0.20009 0.0
C1644 C 0.81721 0.66669 0.14381 0.0
C1645 C 0.84741 0.6838 0.14418 0.0
H1646 H 0.77854 0.64091 0.17025 0.0
H1647 H 0.80553 0.66259 0.12202 0.0
S1648 S 0.89484 0.70228 0.21347 0.0
N1649 N 0.86199 0.68152 0.22739 0.0
N1650 N 0.891 0.70483 0.17553 0.0
C1651 C 0.86191 0.68831 0.17275 0.0
C1652 C 0.84625 0.67561 0.20075 0.0
C1653 C 0.17751 0.31298 0.33811 0.0
C1654 C 0.16721 0.31698 0.3668 0.0
C1655 C 0.17449 0.32542 0.31056 0.0
C1656 C 0.16121 0.34234 0.31095 0.0
H1657 H 0.18814 0.30031 0.33705 0.0
H1658 H 0.18235 0.3216 0.28879 0.0
S1659 S 0.13176 0.3602 0.38031 0.0
N1660 N 0.14387 0.33945 0.39412 0.0
N1661 N 0.13838 0.36306 0.3424 0.0
C1662 C 0.15102 0.34662 0.33953 0.0
C1663 C 0.15392 0.33382 0.36747 0.0
C1664 C 0.65503 0.81532 0.36726 0.0
C1665 C 0.67388 0.84528 0.3672 0.0
C1666 C 0.64309 0.80035 0.33932 0.0
C1667 C 0.64955 0.81492 0.31055 0.0
H1668 H 0.6493 0.80348 0.38906 0.0
H1669 H 0.62878 0.77721 0.34016 0.0
S1670 S 0.69844 0.89306 0.29787 0.0
N1671 N 0.69902 0.88885 0.33604 0.0
N1672 N 0.67642 0.86067 0.28354 0.0
C1673 C 0.6684 0.8448 0.31021 0.0
C1674 C 0.68064 0.86001 0.33856 0.0
C1675 C 0.17667 0.8389 0.36866 0.0
C1676 C 0.14681 0.82819 0.36813 0.0
C1677 C 0.19187 0.84161 0.34098 0.0
C1678 C 0.17767 0.83377 0.31197 0.0
H1679 H 0.18825 0.84491 0.39063 0.0
H1680 H 0.21494 0.85013 0.3422 0.0
S1681 S 0.09979 0.80532 0.29823 0.0
N1682 N 0.1036 0.80997 0.33644 0.0
N1683 N 0.13227 0.81549 0.28432 0.0
C1684 C 0.14784 0.8231 0.31119 0.0
C1685 C 0.13238 0.82026 0.33933 0.0
C1686 C 0.64605 0.84642 0.84022 0.0
C1687 C 0.65002 0.8359 0.81163 0.0
C1688 C 0.65883 0.84399 0.8678 0.0
C1689 C 0.67578 0.83075 0.86765 0.0
H1690 H 0.63311 0.85676 0.84118 0.0
H1691 H 0.65508 0.85207 0.88945 0.0
S1692 S 0.69326 0.80031 0.7989 0.0
N1693 N 0.67254 0.81234 0.78478 0.0
N1694 N 0.69623 0.80738 0.83671 0.0
C1695 C 0.67989 0.82016 0.83927 0.0
C1696 C 0.66699 0.82272 0.81123 0.0
C1697 C 0.15483 0.84997 0.84521 0.0
C1698 C 0.17019 0.84678 0.86994 0.0
C1699 C 0.15172 0.83589 0.81663 0.0
C1700 C 0.16388 0.81819 0.81186 0.0
H1701 H 0.14555 0.86376 0.84783 0.0
H1702 H 0.13973 0.83888 0.79806 0.0
S1703 S 0.20471 0.80164 0.86999 0.0
N1704 N 0.1969 0.82402 0.88832 0.0
N1705 N 0.19075 0.7973 0.83466 0.0
C1706 C 0.17903 0.81463 0.83652 0.0
C1707 C 0.18224 0.82899 0.86558 0.0
C1708 C 0.19499 0.34872 0.83755 0.0
C1709 C 0.17985 0.34546 0.8096 0.0
C1710 C 0.18032 0.33682 0.86564 0.0
C1711 C 0.15006 0.32126 0.86661 0.0
H1712 H 0.21835 0.36046 0.8376 0.0
H1713 H 0.19268 0.3401 0.8868 0.0
S1714 S 0.10055 0.30557 0.79965 0.0
N1715 N 0.1331 0.32487 0.78441 0.0
N1716 N 0.10547 0.30254 0.83724 0.0
C1717 C 0.13472 0.31767 0.83879 0.0
C1718 C 0.14963 0.32982 0.81026 0.0
C1719 C 0.81848 0.66426 0.70062 0.0
C1720 C 0.83663 0.6524 0.70216 0.0
C1721 C 0.81504 0.67581 0.67258 0.0
C1722 C 0.82954 0.67576 0.64517 0.0
H1723 H 0.80729 0.66507 0.72133 0.0
H1724 H 0.80087 0.68479 0.67228 0.0
S1725 S 0.87818 0.64569 0.63666 0.0
N1726 N 0.86841 0.6403 0.67375 0.0
N1727 N 0.86182 0.6619 0.62108 0.0
C1728 C 0.84751 0.66371 0.64638 0.0
C1729 C 0.85099 0.65196 0.67486 0.0
C1730 C 0.36107 0.18185 0.67865 0.0
C1731 C 0.34255 0.18026 0.70275 0.0
C1732 C 0.35002 0.16716 0.65038 0.0
C1733 C 0.3201 0.15041 0.64531 0.0
H1734 H 0.38422 0.19489 0.68151 0.0
H1735 H 0.36497 0.16902 0.63226 0.0
S1736 S 0.26267 0.13768 0.70197 0.0
N1737 N 0.29298 0.15958 0.72038 0.0
N1738 N 0.27226 0.13198 0.66721 0.0
C1739 C 0.30141 0.14836 0.66937 0.0
C1740 C 0.31263 0.16327 0.69814 0.0
C1741 C 0.84673 0.14834 0.66788 0.0
C1742 C 0.84442 0.16357 0.64242 0.0
C1743 C 0.83224 0.146 0.69603 0.0
C1744 C 0.81509 0.15892 0.69969 0.0
H1745 H 0.86029 0.13871 0.66623 0.0
H1746 H 0.83461 0.13415 0.7152 0.0
S1747 S 0.80047 0.19934 0.63923 0.0
N1748 N 0.8226 0.19052 0.62205 0.0
N1749 N 0.79541 0.18608 0.67498 0.0
C1750 C 0.81222 0.17374 0.67423 0.0
C1751 C 0.82685 0.17603 0.64556 0.0
C1752 C 0.99377 0.51214 0.53348 0.0
C1753 C 0.01195 0.50027 0.53351 0.0
C1754 C 0.9815 0.51474 0.50558 0.0
C1755 C 0.98714 0.50569 0.4769 0.0
H1756 H 0.98862 0.51893 0.5552 0.0
H1757 H 0.96755 0.52397 0.50638 0.0
S1758 S 0.03416 0.47423 0.46459 0.0
N1759 N 0.0354 0.47986 0.50264 0.0
N1760 N 0.01272 0.48525 0.45014 0.0
C1761 C 0.00546 0.49404 0.47666 0.0
C1762 C 0.01783 0.49127 0.50501 0.0
C1763 C 0.51078 0.52771 0.50602 0.0
C1764 C 0.50239 0.5134 0.53496 0.0
C1765 C 0.50786 0.51249 0.47829 0.0
C1766 C 0.49617 0.48247 0.47862 0.0
H1767 H 0.51978 0.55085 0.50488 0.0
H1768 H 0.51435 0.52418 0.4564 0.0
S1769 S 0.47142 0.43506 0.54818 0.0
N1770 N 0.4826 0.46768 0.56229 0.0
N1771 N 0.47636 0.43897 0.51001 0.0
C1772 C 0.48763 0.46792 0.50731 0.0
C1773 C 0.49086 0.48342 0.53554 0.0
C1774 C 0.52711 0.01733 0.50452 0.0
C1775 C 0.51294 0.01327 0.47572 0.0
C1776 C 0.51158 0.00468 0.53199 0.0
C1777 C 0.48139 0.98762 0.5315 0.0
H1778 H 0.5504 0.03021 0.50573 0.0
H1779 H 0.52319 0.00856 0.55381 0.0
S1780 S 0.43432 0.96941 0.46189 0.0
N1781 N 0.46721 0.99039 0.44821 0.0
N1782 N 0.43796 0.96658 0.49983 0.0
C1783 C 0.46702 0.98323 0.50283 0.0
C1784 C 0.48281 0.99616 0.47493 0.0
C1785 C 0.5078 0.98094 1.00525 0.0
C1786 C 0.49932 0.98702 0.03404 0.0
C1787 C 0.50518 0.99327 0.97741 0.0
C1788 C 0.49409 0.01211 0.97756 0.0
H1789 H 0.51665 0.96667 1.00433 0.0
H1790 H 0.51149 0.98776 0.9556 0.0
S1791 S 0.47006 0.03585 0.04691 0.0
N1792 N 0.48028 0.01371 0.06115 0.0
N1793 N 0.47524 0.03682 0.00878 0.0
C1794 C 0.48579 0.01853 0.0062 0.0
C1795 C 0.48839 0.00595 0.03448 0.0
C1796 C 0.0077 0.5097 0.97776 0.0
C1797 C 0.98842 0.47984 0.97772 0.0
C1798 C 0.0199 0.52448 0.00573 0.0
C1799 C 0.01344 0.50978 0.03442 0.0
H1800 H 0.01351 0.52164 0.95602 0.0
H1801 H 0.03428 0.5476 1.005 0.0
S1802 S 0.96342 0.43186 0.04691 0.0
N1803 N 0.96272 0.43626 0.00879 0.0
N1804 N 0.98607 0.46405 0.0613 0.0
C1805 C 0.99423 0.47998 0.03469 0.0
C1806 C 0.98158 0.465 0.00632 0.0
C1807 C 0.51487 0.511 0.03322 0.0
C1808 C 0.48459 0.49561 0.03317 0.0
C1809 C 0.53049 0.5143 1.0057 0.0
C1810 C 0.51634 0.50259 0.9772 0.0
H1811 H 0.5265 0.52012 0.05477 0.0
H1812 H 0.55383 0.52621 0.00666 0.0
S1813 S 0.43732 0.46141 0.9647 0.0
N1814 N 0.441 0.46895 1.00241 0.0
N1815 N 0.47035 0.47567 0.95054 0.0
C1816 C 0.48608 0.4873 0.97689 0.0
C1817 C 0.4702 0.48379 1.00491 0.0
C1818 C 0.23672 0.03543 1.00277 0.0
C1819 C 0.2141 0.04139 0.00573 0.0
C1820 C 0.2315 0.00825 0.99318 0.0
C1821 C 0.20335 0.98569 0.98675 0.0
H1822 H 0.25855 0.05159 0.00889 0.0
H1823 H 0.24967 0.00468 0.99193 0.0
S1824 S 0.13667 0.99059 0.99033 0.0
N1825 N 0.16263 0.02295 1.0008 0.0
N1826 N 0.15261 0.97158 0.98327 0.0
C1827 C 0.18053 0.99149 0.98936 0.0
C1828 C 0.18594 0.01932 0.99888 0.0
C1829 C 0.96631 0.20544 0.00589 0.0
C1830 C 0.95869 0.17631 0.00755 0.0
C1831 C 0.99385 0.22656 0.99613 0.0
C1832 C 0.01507 0.21946 0.98808 0.0
H1833 H 0.9512 0.21217 0.01314 0.0
H1834 H 0.99874 0.24878 0.99592 0.0
S1835 S 0.00534 0.14576 0.98752 0.0
N1836 N 0.97398 0.14108 0.99952 0.0
N1837 N 0.02596 0.18074 0.98148 0.0
C1838 C 0.00751 0.19022 0.98923 0.0
C1839 C 0.97935 0.16871 0.99904 0.0
C1840 C 0.77277 0.77002 0.99506 0.0
C1841 C 0.77892 0.79798 0.98672 0.0
C1842 C 0.79468 0.76455 1.00421 0.0
C1843 C 0.82363 0.7867 1.00489 0.0
H1844 H 0.75074 0.75231 0.99565 0.0
H1845 H 0.78874 0.74301 0.01189 0.0
S1846 S 0.85169 0.8632 0.98325 0.0
N1847 N 0.81648 0.84785 0.97845 0.0
N1848 N 0.8576 0.83734 0.99531 0.0
C1849 C 0.83024 0.81456 0.99587 0.0
C1850 C 0.80794 0.82023 0.98673 0.0
C1851 C 0.98885 0.1825 0.4992 0.0
C1852 C 0.98476 0.19532 0.52588 0.0
C1853 C 0.01658 0.1894 0.48957 0.0
C1854 C 0.04123 0.20919 0.50635 0.0
H1855 H 0.97059 0.16787 0.485 0.0
H1856 H 0.01876 0.17956 0.4684 0.0
S1857 S 0.04144 0.24455 0.58102 0.0
N1858 N 0.00718 0.22652 0.57062 0.0
N1859 N 0.05916 0.23813 0.55357 0.0
C1860 C 0.03724 0.22083 0.53411 0.0
C1861 C 0.00903 0.21424 0.54358 0.0
C1862 C 0.80986 0.8021 0.5226 0.0
C1863 C 0.78805 0.77295 0.52466 0.0
C1864 C 0.80374 0.82337 0.51256 0.0
C1865 C 0.77558 0.81638 0.50442 0.0
H1866 H 0.832 0.80855 0.52821 0.0
H1867 H 0.82125 0.84546 0.51089 0.0
S1868 S 0.71082 0.74342 0.50427 0.0
N1869 N 0.73697 0.73836 0.51723 0.0
N1870 N 0.72588 0.77836 0.4977 0.0
C1871 C 0.75352 0.78748 0.50645 0.0
C1872 C 0.75964 0.76579 0.51682 0.0
C1873 C 0.19041 0.00699 0.52244 0.0
C1874 C 0.21951 0.01403 0.52183 0.0
C1875 C 0.16832 0.97981 0.51271 0.0
C1876 C 0.17448 0.95863 0.50215 0.0
H1877 H 0.18462 0.02267 0.53024 0.0
H1878 H 0.14623 0.97532 0.51341 0.0
S1879 S 0.24697 0.96665 0.49328 0.0
N1880 N 0.25317 0.9976 0.50837 0.0
N1881 N 0.21164 0.94699 0.48945 0.0
C1882 C 0.20337 0.96538 0.501 0.0
C1883 C 0.22587 0.99292 0.51109 0.0
C1884 C 0.7774 0.9933 0.03641 0.0
C1885 C 0.79877 0.01838 0.02161 0.0
C1886 C 0.77122 0.96581 0.02655 0.0
C1887 C 0.78556 0.96223 1.00086 0.0
H1888 H 0.76537 0.99493 0.05589 0.0
H1889 H 0.75538 0.94741 0.03958 0.0
S1890 S 0.84326 0.02122 0.95385 0.0
N1891 N 0.83463 0.03802 0.98031 0.0
N1892 N 0.82241 0.98648 0.96101 0.0
C1893 C 0.80725 0.98726 0.98609 0.0
C1894 C 0.81393 0.01525 0.99657 0.0
C1895 C 0.00789 0.7897 0.03669 0.0
C1896 C 0.9833 0.78629 0.02109 0.0
C1897 C 0.03566 0.81078 0.02734 0.0
C1898 C 0.03997 0.82859 1.00132 0.0
H1899 H 0.00563 0.77609 0.05645 0.0
H1900 H 0.05367 0.81324 0.04104 0.0
S1901 S 0.98228 0.82759 0.95214 0.0
N1902 N 0.96476 0.80245 0.9787 0.0
N1903 N 0.01682 0.84119 0.96018 0.0
C1904 C 0.01537 0.8254 0.98568 0.0
C1905 C 0.98711 0.80442 0.9957 0.0
C1906 C 0.19197 0.18499 0.02234 0.0
C1907 C 0.22122 0.20658 0.02094 0.0
C1908 C 0.17014 0.19043 0.01255 0.0
C1909 C 0.17676 0.21764 1.00108 0.0
H1910 H 0.18585 0.16364 0.03083 0.0
H1911 H 0.14791 0.17319 0.01389 0.0
S1912 S 0.24981 0.28077 0.98984 0.0
N1913 N 0.25553 0.25602 0.00574 0.0
N1914 N 0.21448 0.26572 0.98664 0.0
C1915 C 0.20582 0.23929 0.99912 0.0
C1916 C 0.22804 0.23392 0.00931 0.0
C1917 C 0.97995 0.80385 0.52357 0.0
C1918 C 0.95533 0.78277 0.50773 0.0
C1919 C 0.00773 0.81041 0.51456 0.0
C1920 C 0.01194 0.79595 0.48956 0.0
H1921 H 0.97774 0.81517 0.54339 0.0
H1922 H 0.02599 0.82636 0.52785 0.0
S1923 S 0.9554 0.74224 0.43738 0.0
N1924 N 0.93755 0.75032 0.46308 0.0
N1925 N 0.98968 0.76134 0.44749 0.0
C1926 C 0.98771 0.7754 0.47297 0.0
C1927 C 0.95941 0.76915 0.4817 0.0
C1928 C 0.19046 0.16979 0.50078 0.0
C1929 C 0.21792 0.17613 0.51098 0.0
C1930 C 0.18522 0.19172 0.491 0.0
C1931 C 0.20727 0.22084 0.4912 0.0
H1932 H 0.17285 0.14768 0.50042 0.0
H1933 H 0.16364 0.18577 0.4835 0.0
S1934 S 0.28252 0.24877 0.51844 0.0
N1935 N 0.26695 0.21349 0.52273 0.0
N1936 N 0.25754 0.25476 0.50368 0.0
C1937 C 0.2349 0.22741 0.50149 0.0
C1938 C 0.2401 0.20505 0.51163 0.0
C1939 C 0.78549 0.00395 0.47332 0.0
C1940 C 0.78132 0.97889 0.48853 0.0
C1941 C 0.80732 0.03136 0.48271 0.0
C1942 C 0.82528 0.03485 0.50831 0.0
H1943 H 0.77175 0.00237 0.45396 0.0
H1944 H 0.81017 0.04974 0.46944 0.0
S1945 S 0.82296 0.97581 0.55611 0.0
N1946 N 0.7972 0.95911 0.52997 0.0
N1947 N 0.83748 0.01052 0.54843 0.0
C1948 C 0.82152 0.00981 0.52341 0.0
C1949 C 0.7997 0.98189 0.5134 0.0
C1950 C 0.85233 0.32684 0.32409 0.0
C1951 C 0.87424 0.31965 0.32524 0.0
C1952 C 0.85775 0.35442 0.3327 0.0
C1953 C 0.88526 0.37581 0.34275 0.0
H1954 H 0.8308 0.31104 0.31656 0.0
H1955 H 0.84027 0.35905 0.33153 0.0
S1956 S 0.94917 0.36715 0.35348 0.0
N1957 N 0.9242 0.33594 0.33912 0.0
N1958 N 0.93388 0.38723 0.35609 0.0
C1959 C 0.90717 0.36878 0.34467 0.0
C1960 C 0.90181 0.34088 0.33565 0.0
C1961 C 0.62901 0.52671 0.31939 0.0
C1962 C 0.62594 0.50823 0.34434 0.0
C1963 C 0.65628 0.54869 0.30973 0.0
C1964 C 0.68154 0.55239 0.32397 0.0
H1965 H 0.61039 0.52401 0.3067 0.0
H1966 H 0.65764 0.56264 0.29071 0.0
S1967 S 0.68567 0.51022 0.39042 0.0
N1968 N 0.65084 0.49571 0.38342 0.0
N1969 N 0.70195 0.53622 0.36444 0.0
C1970 C 0.6789 0.53386 0.34854 0.0
C1971 C 0.65117 0.51193 0.35883 0.0
C1972 C 0.44003 0.10224 0.33343 0.0
C1973 C 0.44613 0.12903 0.32091 0.0
C1974 C 0.46213 0.09706 0.34261 0.0
C1975 C 0.49129 0.11822 0.3391 0.0
H1976 H 0.41794 0.08537 0.33723 0.0
H1977 H 0.45613 0.07662 0.3535 0.0
S1978 S 0.519 0.1915 0.30602 0.0
N1979 N 0.4836 0.17677 0.30473 0.0
N1980 N 0.52514 0.16678 0.32129 0.0
C1981 C 0.49774 0.14495 0.32613 0.0
C1982 C 0.47521 0.15037 0.31709 0.0
C1983 C 0.67783 0.55851 0.86789 0.0
C1984 C 0.65269 0.5361 0.85423 0.0
C1985 C 0.70527 0.56364 0.85916 0.0
C1986 C 0.70871 0.54708 0.83581 0.0
H1987 H 0.67631 0.57203 0.88573 0.0
H1988 H 0.72373 0.58038 0.87134 0.0
S1989 S 0.64964 0.48623 0.79218 0.0
N1990 N 0.63295 0.49715 0.81619 0.0
N1991 N 0.68437 0.50734 0.79911 0.0
C1992 C 0.68366 0.52454 0.82204 0.0
C1993 C 0.65574 0.51899 0.83132 0.0
C1994 C 0.47658 0.16342 0.84401 0.0
C1995 C 0.44901 0.15743 0.83446 0.0
C1996 C 0.48164 0.14123 0.85347 0.0
C1997 C 0.4593 0.11225 0.85361 0.0
H1998 H 0.49435 0.18544 0.84418 0.0
H1999 H 0.50323 0.14683 0.86058 0.0
S2000 S 0.38391 0.08517 0.82717 0.0
N2001 N 0.39977 0.12048 0.8231 0.0
N2002 N 0.4088 0.07882 0.84146 0.0
C2003 C 0.43166 0.10606 0.84367 0.0
C2004 C 0.42666 0.12862 0.83387 0.0
C2005 C 0.84582 0.31579 0.81824 0.0
C2006 C 0.83906 0.29109 0.83607 0.0
C2007 C 0.86725 0.34334 0.8278 0.0
C2008 C 0.8829 0.34719 0.85543 0.0
H2009 H 0.83484 0.31376 0.79634 0.0
H2010 H 0.87232 0.3616 0.81287 0.0
S2011 S 0.87042 0.29068 0.91328 0.0
N2012 N 0.84697 0.27322 0.88517 0.0
N2013 N 0.88855 0.3247 0.90201 0.0
C2014 C 0.87572 0.32296 0.87409 0.0
C2015 C 0.85345 0.29499 0.86472 0.0
C2016 C 0.42815 0.30052 0.33269 0.0
C2017 C 0.4494 0.29247 0.33427 0.0
C2018 C 0.43386 0.32783 0.34255 0.0
C2019 C 0.46122 0.34843 0.35393 0.0
H2020 H 0.40719 0.28604 0.32286 0.0
H2021 H 0.41688 0.3331 0.34029 0.0
S2022 S 0.52408 0.33772 0.36382 0.0
N2023 N 0.49863 0.30696 0.34906 0.0
N2024 N 0.50956 0.35847 0.36706 0.0
C2025 C 0.48262 0.34058 0.35586 0.0
C2026 C 0.4767 0.31265 0.34605 0.0
C2027 C 0.68747 0.16554 0.34701 0.0
C2028 C 0.70908 0.15909 0.33893 0.0
C2029 C 0.65973 0.14372 0.35574 0.0
C2030 C 0.65259 0.1146 0.35665 0.0
H2031 H 0.69201 0.18765 0.34648 0.0
H2032 H 0.64375 0.1497 0.36161 0.0
S2033 S 0.70089 0.08624 0.33435 0.0
N2034 N 0.72088 0.12145 0.32984 0.0
N2035 N 0.6694 0.08054 0.34708 0.0
C2036 C 0.67411 0.10794 0.34833 0.0
C2037 C 0.70216 0.13013 0.3392 0.0
C2038 C 0.86779 0.57127 0.33877 0.0
C2039 C 0.83936 0.54882 0.33425 0.0
C2040 C 0.88936 0.56569 0.34889 0.0
C2041 C 0.88357 0.53733 0.35437 0.0
H2042 H 0.87371 0.59334 0.33355 0.0
H2043 H 0.911 0.58385 0.35146 0.0
S2044 S 0.81225 0.47082 0.34622 0.0
N2045 N 0.80623 0.49716 0.3364 0.0
N2046 N 0.84687 0.48647 0.35494 0.0
C2047 C 0.8551 0.51461 0.35004 0.0
C2048 C 0.83305 0.52039 0.33995 0.0
C2049 C 0.62958 0.09503 0.8364 0.0
C2050 C 0.62343 0.11747 0.83992 0.0
C2051 C 0.65683 0.10055 0.82665 0.0
C2052 C 0.67932 0.12884 0.82057 0.0
H2053 H 0.6135 0.07306 0.84211 0.0
H2054 H 0.66046 0.08245 0.82488 0.0
S2055 S 0.674 0.19522 0.82589 0.0
N2056 N 0.64168 0.16899 0.83607 0.0
N2057 N 0.69317 0.17957 0.81824 0.0
C2058 C 0.67336 0.15151 0.82384 0.0
C2059 C 0.64544 0.14579 0.83355 0.0
C2060 C 0.85494 0.52664 0.82431 0.0
C2061 C 0.87682 0.55583 0.82329 0.0
C2062 C 0.86091 0.50497 0.83324 0.0
C2063 C 0.88897 0.51155 0.8413 0.0
H2064 H 0.83288 0.52044 0.81867 0.0
H2065 H 0.84332 0.48288 0.83412 0.0
S2066 S 0.95383 0.58441 0.84401 0.0
N2067 N 0.92785 0.59001 0.83166 0.0
N2068 N 0.93864 0.54925 0.84914 0.0
C2069 C 0.9111 0.54049 0.84033 0.0
C2070 C 0.90513 0.56261 0.83109 0.0
C2071 C 0.46731 0.32337 0.84454 0.0
C2072 C 0.44814 0.3192 0.8201 0.0
C2073 C 0.48876 0.35111 0.85332 0.0
C2074 C 0.49209 0.37576 0.8378 0.0
H2075 H 0.46524 0.30509 0.85759 0.0
H2076 H 0.50269 0.35324 0.8727 0.0
S2077 S 0.44993 0.37587 0.769 0.0
N2078 N 0.43491 0.34157 0.77898 0.0
N2079 N 0.47647 0.39364 0.79407 0.0
C2080 C 0.4738 0.37175 0.81236 0.0
C2081 C 0.4515 0.34347 0.80388 0.0
C2082 C 0.52026 0.65469 0.67931 0.0
C2083 C 0.53398 0.65094 0.65324 0.0
C2084 C 0.5263 0.68225 0.68865 0.0
C2085 C 0.54612 0.70709 0.67216 0.0
H2086 H 0.50546 0.6363 0.69325 0.0
H2087 H 0.51569 0.68415 0.70932 0.0
S2088 S 0.58389 0.70816 0.59901 0.0
N2089 N 0.56622 0.67388 0.60939 0.0
N2090 N 0.57624 0.72548 0.62581 0.0
C2091 C 0.55879 0.70343 0.64503 0.0
C2092 C 0.55306 0.67539 0.63588 0.0
C2093 C 0.34268 0.86837 0.68011 0.0
C2094 C 0.3464 0.88472 0.65308 0.0
C2095 C 0.31521 0.84679 0.68954 0.0
C2096 C 0.29045 0.84052 0.67213 0.0
H2097 H 0.36103 0.87288 0.69463 0.0
H2098 H 0.31333 0.83521 0.71096 0.0
S2099 S 0.28958 0.87402 0.59652 0.0
N2100 N 0.32369 0.89176 0.60754 0.0
N2101 N 0.27224 0.84987 0.62408 0.0
C2102 C 0.29414 0.85574 0.64412 0.0
C2103 C 0.32208 0.8782 0.63491 0.0
C2104 C 0.10896 0.43645 0.65782 0.0
C2105 C 0.11529 0.46463 0.65017 0.0
C2106 C 0.13047 0.43083 0.66819 0.0
C2107 C 0.15932 0.45299 0.6707 0.0
H2108 H 0.08698 0.41865 0.65703 0.0
H2109 H 0.1242 0.40907 0.67532 0.0
S2110 S 0.18779 0.53021 0.65207 0.0
N2111 N 0.15287 0.51486 0.64506 0.0
N2112 N 0.19336 0.50407 0.66392 0.0
C2113 C 0.16613 0.48115 0.66258 0.0
C2114 C 0.14416 0.48699 0.65231 0.0
C2115 C 0.33869 0.89708 0.18778 0.0
C2116 C 0.31615 0.86863 0.19303 0.0
C2117 C 0.36599 0.90285 0.17795 0.0
C2118 C 0.37215 0.88052 0.17351 0.0
H2119 H 0.33503 0.91512 0.19019 0.0
H2120 H 0.38207 0.92495 0.17275 0.0
S2121 S 0.3215 0.80243 0.18543 0.0
N2122 N 0.30227 0.81788 0.1938 0.0
N2123 N 0.35388 0.82891 0.17583 0.0
C2124 C 0.35011 0.85203 0.17918 0.0
C2125 C 0.32212 0.84606 0.18896 0.0
C2126 C 0.09728 0.46311 0.17235 0.0
C2127 C 0.11926 0.49215 0.17244 0.0
C2128 C 0.10271 0.44116 0.18148 0.0
C2129 C 0.13052 0.44727 0.19051 0.0
H2130 H 0.07585 0.45713 0.16424 0.0
H2131 H 0.08506 0.41911 0.18045 0.0
S2132 S 0.19551 0.52013 0.1952 0.0
N2133 N 0.16975 0.52608 0.18287 0.0
N2134 N 0.18022 0.48486 0.19956 0.0
C2135 C 0.1527 0.47633 0.19086 0.0
C2136 C 0.14704 0.4987 0.18179 0.0
C2137 C 0.54608 0.65615 0.19879 0.0
C2138 C 0.54904 0.68114 0.1846 0.0
C2139 C 0.52439 0.62865 0.18942 0.0
C2140 C 0.50542 0.62506 0.1648 0.0
H2141 H 0.56039 0.65789 0.2176 0.0
H2142 H 0.52228 0.61026 0.20209 0.0
S2143 S 0.50521 0.6839 0.11909 0.0
N2144 N 0.53154 0.70073 0.1446 0.0
N2145 N 0.49152 0.64917 0.12616 0.0
C2146 C 0.50832 0.65001 0.15038 0.0
C2147 C 0.52999 0.67798 0.16038 0.0
C2148 C 0.14652 0.67448 0.69065 0.0
C2149 C 0.12502 0.6822 0.68848 0.0
C2150 C 0.14113 0.64713 0.68133 0.0
C2151 C 0.11406 0.62647 0.6696 0.0
H2152 H 0.16779 0.68977 0.69934 0.0
H2153 H 0.15833 0.64213 0.68319 0.0
S2154 S 0.05118 0.63642 0.65658 0.0
N2155 N 0.0758 0.66704 0.67244 0.0
N2156 N 0.06618 0.61605 0.6542 0.0
C2157 C 0.09246 0.63389 0.66696 0.0
C2158 C 0.0978 0.66162 0.67667 0.0
C2159 C 0.3246 0.47421 0.68726 0.0
C2160 C 0.31722 0.44502 0.68851 0.0
C2161 C 0.35219 0.49574 0.67793 0.0
C2162 C 0.37351 0.48898 0.66967 0.0
H2163 H 0.30884 0.4805 0.69312 0.0
H2164 H 0.35684 0.51787 0.677 0.0
S2165 S 0.36513 0.41599 0.66701 0.0
N2166 N 0.33378 0.41062 0.67986 0.0
N2167 N 0.38513 0.45108 0.66154 0.0
C2168 C 0.36654 0.46001 0.67065 0.0
C2169 C 0.33856 0.43806 0.68034 0.0
C2170 C 0.54459 0.8899 0.70132 0.0
C2171 C 0.54809 0.86829 0.68684 0.0
C2172 C 0.52306 0.89579 0.69158 0.0
C2173 C 0.50476 0.8809 0.66633 0.0
H2174 H 0.55847 0.90224 0.72053 0.0
H2175 H 0.52062 0.91179 0.7044 0.0
S2176 S 0.50554 0.82255 0.62014 0.0
N2177 N 0.53138 0.83174 0.6462 0.0
N2178 N 0.49168 0.84343 0.62713 0.0
C2179 C 0.50798 0.85906 0.65181 0.0
C2180 C 0.52949 0.85268 0.66216 0.0
C2181 C 0.31307 0.47322 0.1664 0.0
C2182 C 0.29207 0.44552 0.17621 0.0
C2183 C 0.34039 0.47894 0.1565 0.0
C2184 C 0.34786 0.45718 0.15621 0.0
H2185 H 0.30838 0.49069 0.16655 0.0
H2186 H 0.3559 0.50074 0.14946 0.0
S2187 S 0.30084 0.38126 0.18174 0.0
N2188 N 0.28086 0.39645 0.1867 0.0
N2189 N 0.33178 0.40673 0.16738 0.0
C2190 C 0.32685 0.42925 0.16589 0.0
C2191 C 0.29911 0.42355 0.17615 0.0
C2192 C 0.51919 0.83469 0.1648 0.0
C2193 C 0.54648 0.84116 0.17595 0.0
C2194 C 0.51381 0.85665 0.15523 0.0
C2195 C 0.53558 0.88582 0.15648 0.0
H2196 H 0.50189 0.81249 0.16342 0.0
H2197 H 0.49248 0.85074 0.14683 0.0
S2198 S 0.60967 0.91407 0.18774 0.0
N2199 N 0.59456 0.87872 0.19061 0.0
N2200 N 0.58498 0.91994 0.17194 0.0
C2201 C 0.56285 0.89249 0.16815 0.0
C2202 C 0.56815 0.87018 0.17812 0.0
C2203 C 0.14062 0.65844 0.15459 0.0
C2204 C 0.11159 0.65127 0.15164 0.0
C2205 C 0.16187 0.68598 0.16456 0.0
C2206 C 0.15496 0.70742 0.1719 0.0
H2207 H 0.14694 0.64255 0.14962 0.0
H2208 H 0.18387 0.69045 0.16686 0.0
S2209 S 0.08203 0.69927 0.17054 0.0
N2210 N 0.0771 0.66801 0.15794 0.0
N2211 N 0.11689 0.71914 0.17755 0.0
C2212 C 0.12611 0.70059 0.16924 0.0
C2213 C 0.1045 0.67271 0.15883 0.0
loop_
_geom_bond_atom_site_label_1
_geom_bond_atom_site_label_2
_geom_bond_distance
_geom_bond_site_symmetry_2
_ccdc_geom_bond_type
Co0 O3 1.951 1_554 S
Co0 N17 1.989 . S
Co0 O25 1.967 . S
Co0 O32 1.920 . S
Co1 O4 1.966 1_554 S
Co1 N10 2.022 . S
Co1 N18 1.993 . S
Co1 O26 1.941 . S
C2 O3 1.272 . S
C2 O4 1.263 . S
O3 Co0 1.951 1_556 S
O3 C2 1.272 . S
O4 Co1 1.966 1_556 S
O4 C2 1.263 . S
C5 O6 1.235 . S
C5 O32 1.289 . S
O6 C5 1.235 . S
C7 C9 1.400 . S
C7 N10 1.351 . S
C7 C12 1.501 1_554 S
C8 C9 1.387 . S
C8 N11 1.341 . S
C9 C7 1.400 . S
C9 C8 1.387 . S
N10 Co1 2.022 . S
N10 C7 1.351 . S
N10 N11 1.365 . S
N11 C8 1.341 . S
N11 N10 1.365 . S
N11 H31 0.862 . S
C12 C7 1.501 1_556 S
C12 H13 0.961 . S
C12 H14 0.961 . S
C12 H15 0.960 . S
H13 C12 0.961 . S
H14 C12 0.961 . S
H15 C12 0.960 . S
C16 N17 1.342 . S
C16 C20 1.401 . S
C16 C21 1.499 . S
N17 Co0 1.989 . S
N17 C16 1.342 . S
N17 N18 1.388 . S
N18 Co1 1.993 . S
N18 N17 1.388 . S
N18 C19 1.346 . S
C19 N18 1.346 . S
C19 C20 1.396 . S
C19 C29 1.510 . S
C20 C16 1.401 . S
C20 C19 1.396 . S
C21 C16 1.499 . S
C21 H22 0.959 . S
C21 H23 0.960 . S
C21 H24 0.961 . S
H22 C21 0.959 . S
H23 C21 0.960 . S
H24 C21 0.961 . S
O25 Co0 1.967 . S
O25 C33 1.258 . S
O26 Co1 1.941 . S
O26 C33 1.266 . S
H27 C29 0.959 . S
H28 C29 0.961 . S
C29 C19 1.510 . S
C29 H27 0.959 . S
C29 H28 0.961 . S
C29 H30 0.960 . S
H30 C29 0.960 . S
H31 N11 0.862 . S
O32 Co0 1.920 . S
O32 C5 1.289 . S
C33 O25 1.258 . S
C33 O26 1.266 . S
Co34 O37 1.951 1_554 S
Co34 N51 1.989 . S
Co34 O59 1.967 . S
Co34 O66 1.920 . S
Co35 O38 1.966 1_554 S
Co35 N44 2.022 . S
Co35 N52 1.993 . S
Co35 O60 1.941 . S
C36 O37 1.272 . S
C36 O38 1.263 . S
O37 Co34 1.951 1_556 S
O37 C36 1.272 . S
O38 Co35 1.966 1_556 S
O38 C36 1.263 . S
C39 O40 1.235 . S
C39 O66 1.289 . S
O40 C39 1.235 . S
C41 C43 1.400 . S
C41 N44 1.351 . S
C41 C46 1.501 1_554 S
C42 C43 1.387 . S
C42 N45 1.341 . S
C43 C41 1.400 . S
C43 C42 1.387 . S
N44 Co35 2.022 . S
N44 C41 1.351 . S
N44 N45 1.365 . S
N45 C42 1.341 . S
N45 N44 1.365 . S
N45 H65 0.862 . S
C46 C41 1.501 1_556 S
C46 H47 0.961 . S
C46 H48 0.961 . S
C46 H49 0.960 . S
H47 C46 0.961 . S
H48 C46 0.961 . S
H49 C46 0.960 . S
C50 N51 1.342 . S
C50 C54 1.401 . S
C50 C55 1.499 . S
N51 Co34 1.989 . S
N51 C50 1.342 . S
N51 N52 1.388 . S
N52 Co35 1.993 . S
N52 N51 1.388 . S
N52 C53 1.346 . S
C53 N52 1.346 . S
C53 C54 1.396 . S
C53 C63 1.510 . S
C54 C50 1.401 . S
C54 C53 1.396 . S
C55 C50 1.499 . S
C55 H56 0.959 . S
C55 H57 0.960 . S
C55 H58 0.961 . S
H56 C55 0.959 . S
H57 C55 0.960 . S
H58 C55 0.961 . S
O59 Co34 1.967 . S
O59 C67 1.258 . S
O60 Co35 1.941 . S
O60 C67 1.266 . S
H61 C63 0.959 . S
H62 C63 0.961 . S
C63 C53 1.510 . S
C63 H61 0.959 . S
C63 H62 0.961 . S
C63 H64 0.960 . S
H64 C63 0.960 . S
H65 N45 0.862 . S
O66 Co34 1.920 . S
O66 C39 1.289 . S
C67 O59 1.258 . S
C67 O60 1.266 . S
Co68 O71 1.951 1_554 S
Co68 N85 1.989 . S
Co68 O93 1.967 . S
Co68 O100 1.920 . S
Co69 O72 1.966 1_554 S
Co69 N78 2.022 . S
Co69 N86 1.993 . S
Co69 O94 1.941 . S
C70 O71 1.272 . S
C70 O72 1.263 . S
O71 Co68 1.951 1_556 S
O71 C70 1.272 . S
O72 Co69 1.966 1_556 S
O72 C70 1.263 . S
C73 O74 1.235 . S
C73 O100 1.289 . S
O74 C73 1.235 . S
C75 C77 1.400 . S
C75 N78 1.351 . S
C75 C80 1.501 1_554 S
C76 C77 1.387 . S
C76 N79 1.341 . S
C77 C75 1.400 . S
C77 C76 1.387 . S
N78 Co69 2.022 . S
N78 C75 1.351 . S
N78 N79 1.365 . S
N79 C76 1.341 . S
N79 N78 1.365 . S
N79 H99 0.862 . S
C80 C75 1.501 1_556 S
C80 H81 0.961 . S
C80 H82 0.961 . S
C80 H83 0.960 . S
H81 C80 0.961 . S
H82 C80 0.961 . S
H83 C80 0.960 . S
C84 N85 1.342 . S
C84 C88 1.401 . S
C84 C89 1.499 . S
N85 Co68 1.989 . S
N85 C84 1.342 . S
N85 N86 1.388 . S
N86 Co69 1.993 . S
N86 N85 1.388 . S
N86 C87 1.346 . S
C87 N86 1.346 . S
C87 C88 1.396 . S
C87 C97 1.510 . S
C88 C84 1.401 . S
C88 C87 1.396 . S
C89 C84 1.499 . S
C89 H90 0.959 . S
C89 H91 0.960 . S
C89 H92 0.961 . S
H90 C89 0.959 . S
H91 C89 0.960 . S
H92 C89 0.961 . S
O93 Co68 1.967 . S
O93 C101 1.258 . S
O94 Co69 1.941 . S
O94 C101 1.266 . S
H95 C97 0.959 . S
H96 C97 0.961 . S
C97 C87 1.510 . S
C97 H95 0.959 . S
C97 H96 0.961 . S
C97 H98 0.960 . S
H98 C97 0.960 . S
H99 N79 0.862 . S
O100 Co68 1.920 . S
O100 C73 1.289 . S
C101 O93 1.258 . S
C101 O94 1.266 . S
Co102 O105 1.970 . S
Co102 N119 1.989 . S
Co102 O127 1.967 . S
Co102 O134 1.920 . S
Co103 O106 1.966 . S
Co103 N112 2.022 . S
Co103 N120 1.993 . S
Co103 O128 1.941 . S
C104 O105 1.258 . S
C104 O106 1.263 . S
O105 Co102 1.970 . S
O105 C104 1.258 . S
O106 Co103 1.966 . S
O106 C104 1.263 . S
C107 O108 1.235 . S
C107 O134 1.289 . S
O108 C107 1.235 . S
C109 C111 1.400 . S
C109 N112 1.351 . S
C109 C114 1.501 . S
C110 C111 1.387 . S
C110 N113 1.341 . S
C111 C109 1.400 . S
C111 C110 1.387 . S
N112 Co103 2.022 . S
N112 C109 1.351 . S
N112 N113 1.365 . S
N113 C110 1.341 . S
N113 N112 1.365 . S
N113 H133 0.862 . S
C114 C109 1.501 . S
C114 H115 0.961 . S
C114 H116 0.961 . S
C114 H117 0.960 . S
H115 C114 0.961 . S
H116 C114 0.961 . S
H117 C114 0.960 . S
C118 N119 1.342 . S
C118 C122 1.401 . S
C118 C123 1.499 . S
N119 Co102 1.989 . S
N119 C118 1.342 . S
N119 N120 1.388 . S
N120 Co103 1.993 . S
N120 N119 1.388 . S
N120 C121 1.346 . S
C121 N120 1.346 . S
C121 C122 1.396 . S
C121 C131 1.510 . S
C122 C118 1.401 . S
C122 C121 1.396 . S
C123 C118 1.499 . S
C123 H124 0.959 . S
C123 H125 0.960 . S
C123 H126 0.961 . S
H124 C123 0.959 . S
H125 C123 0.960 . S
H126 C123 0.961 . S
O127 Co102 1.967 . S
O127 C135 1.258 . S
O128 Co103 1.941 . S
O128 C135 1.266 . S
H129 C131 0.959 . S
H130 C131 0.961 . S
C131 C121 1.510 . S
C131 H129 0.959 . S
C131 H130 0.961 . S
C131 H132 0.960 . S
H132 C131 0.960 . S
H133 N113 0.862 . S
O134 Co102 1.920 . S
O134 C107 1.289 . S
C135 O127 1.258 . S
C135 O128 1.266 . S
Co136 O139 1.970 . S
Co136 N153 1.989 . S
Co136 O161 1.967 . S
Co136 O168 1.920 . S
Co137 O140 1.966 . S
Co137 N146 2.022 . S
Co137 N154 1.993 . S
Co137 O162 1.941 . S
C138 O139 1.258 . S
C138 O140 1.263 . S
O139 Co136 1.970 . S
O139 C138 1.258 . S
O140 Co137 1.966 . S
O140 C138 1.263 . S
C141 O142 1.235 . S
C141 O168 1.289 . S
O142 C141 1.235 . S
C143 C145 1.400 . S
C143 N146 1.351 . S
C143 C148 1.501 . S
C144 C145 1.387 . S
C144 N147 1.341 . S
C145 C143 1.400 . S
C145 C144 1.387 . S
N146 Co137 2.022 . S
N146 C143 1.351 . S
N146 N147 1.365 . S
N147 C144 1.341 . S
N147 N146 1.365 . S
N147 H167 0.862 . S
C148 C143 1.501 . S
C148 H149 0.961 . S
C148 H150 0.961 . S
C148 H151 0.960 . S
H149 C148 0.961 . S
H150 C148 0.961 . S
H151 C148 0.960 . S
C152 N153 1.342 . S
C152 C156 1.401 . S
C152 C157 1.499 . S
N153 Co136 1.989 . S
N153 C152 1.342 . S
N153 N154 1.388 . S
N154 Co137 1.993 . S
N154 N153 1.388 . S
N154 C155 1.346 . S
C155 N154 1.346 . S
C155 C156 1.396 . S
C155 C165 1.510 . S
C156 C152 1.401 . S
C156 C155 1.396 . S
C157 C152 1.499 . S
C157 H158 0.959 . S
C157 H159 0.960 . S
C157 H160 0.961 . S
H158 C157 0.959 . S
H159 C157 0.960 . S
H160 C157 0.961 . S
O161 Co136 1.967 . S
O161 C169 1.258 . S
O162 Co137 1.941 . S
O162 C169 1.266 . S
H163 C165 0.959 . S
H164 C165 0.961 . S
C165 C155 1.510 . S
C165 H163 0.959 . S
C165 H164 0.961 . S
C165 H166 0.960 . S
H166 C165 0.960 . S
H167 N147 0.862 . S
O168 Co136 1.920 . S
O168 C141 1.289 . S
C169 O161 1.258 . S
C169 O162 1.266 . S
Co170 O173 1.970 . S
Co170 N187 1.989 . S
Co170 O195 1.967 . S
Co170 O202 1.920 . S
Co171 O174 1.966 . S
Co171 N180 2.022 . S
Co171 N188 1.993 . S
Co171 O196 1.941 . S
C172 O173 1.258 . S
C172 O174 1.263 . S
O173 Co170 1.970 . S
O173 C172 1.258 . S
O174 Co171 1.966 . S
O174 C172 1.263 . S
C175 O176 1.235 . S
C175 O202 1.289 . S
O176 C175 1.235 . S
C177 C179 1.400 . S
C177 N180 1.351 . S
C177 C182 1.501 . S
C178 C179 1.387 . S
C178 N181 1.341 . S
C179 C177 1.400 . S
C179 C178 1.387 . S
N180 Co171 2.022 . S
N180 C177 1.351 . S
N180 N181 1.365 . S
N181 C178 1.341 . S
N181 N180 1.365 . S
N181 H201 0.862 . S
C182 C177 1.501 . S
C182 H183 0.961 . S
C182 H184 0.961 . S
C182 H185 0.960 . S
H183 C182 0.961 . S
H184 C182 0.961 . S
H185 C182 0.960 . S
C186 N187 1.342 . S
C186 C190 1.401 . S
C186 C191 1.499 . S
N187 Co170 1.989 . S
N187 C186 1.342 . S
N187 N188 1.388 . S
N188 Co171 1.993 . S
N188 N187 1.388 . S
N188 C189 1.346 . S
C189 N188 1.346 . S
C189 C190 1.396 . S
C189 C199 1.510 . S
C190 C186 1.401 . S
C190 C189 1.396 . S
C191 C186 1.499 . S
C191 H192 0.959 . S
C191 H193 0.960 . S
C191 H194 0.961 . S
H192 C191 0.959 . S
H193 C191 0.960 . S
H194 C191 0.961 . S
O195 Co170 1.967 . S
O195 C203 1.258 . S
O196 Co171 1.941 . S
O196 C203 1.266 . S
H197 C199 0.959 . S
H198 C199 0.961 . S
C199 C189 1.510 . S
C199 H197 0.959 . S
C199 H198 0.961 . S
C199 H200 0.960 . S
H200 C199 0.960 . S
H201 N181 0.862 . S
O202 Co170 1.920 . S
O202 C175 1.289 . S
C203 O195 1.258 . S
C203 O196 1.266 . S
Co204 O207 1.951 1_556 S
Co204 N221 1.989 . S
Co204 O229 1.967 . S
Co204 O236 1.920 . S
Co205 O208 1.966 1_556 S
Co205 N214 2.022 . S
Co205 N222 1.993 . S
Co205 O230 1.941 . S
C206 O207 1.272 . S
C206 O208 1.263 . S
O207 Co204 1.951 1_554 S
O207 C206 1.272 . S
O208 Co205 1.966 1_554 S
O208 C206 1.263 . S
C209 O210 1.235 . S
C209 O236 1.289 . S
O210 C209 1.235 . S
C211 C213 1.400 . S
C211 N214 1.351 . S
C211 C216 1.501 1_556 S
C212 C213 1.387 . S
C212 N215 1.341 . S
C213 C211 1.400 . S
C213 C212 1.387 . S
N214 Co205 2.022 . S
N214 C211 1.351 . S
N214 N215 1.365 . S
N215 C212 1.341 . S
N215 N214 1.365 . S
N215 H235 0.862 . S
C216 C211 1.501 1_554 S
C216 H217 0.961 . S
C216 H218 0.961 . S
C216 H219 0.960 . S
H217 C216 0.961 . S
H218 C216 0.961 . S
H219 C216 0.960 . S
C220 N221 1.342 . S
C220 C224 1.401 . S
C220 C225 1.499 . S
N221 Co204 1.989 . S
N221 C220 1.342 . S
N221 N222 1.388 . S
N222 Co205 1.993 . S
N222 N221 1.388 . S
N222 C223 1.346 . S
C223 N222 1.346 . S
C223 C224 1.396 . S
C223 C233 1.510 . S
C224 C220 1.401 . S
C224 C223 1.396 . S
C225 C220 1.499 . S
C225 H226 0.959 . S
C225 H227 0.960 . S
C225 H228 0.961 . S
H226 C225 0.959 . S
H227 C225 0.960 . S
H228 C225 0.961 . S
O229 Co204 1.967 . S
O229 C237 1.258 . S
O230 Co205 1.941 . S
O230 C237 1.266 . S
H231 C233 0.959 . S
H232 C233 0.961 . S
C233 C223 1.510 . S
C233 H231 0.959 . S
C233 H232 0.961 . S
C233 H234 0.960 . S
H234 C233 0.960 . S
H235 N215 0.862 . S
O236 Co204 1.920 . S
O236 C209 1.289 . S
C237 O229 1.258 . S
C237 O230 1.266 . S
Co238 O241 1.951 1_556 S
Co238 N255 1.989 . S
Co238 O263 1.967 . S
Co238 O270 1.920 . S
Co239 O242 1.966 1_556 S
Co239 N248 2.022 . S
Co239 N256 1.993 . S
Co239 O264 1.941 . S
C240 O241 1.272 . S
C240 O242 1.263 . S
O241 Co238 1.951 1_554 S
O241 C240 1.272 . S
O242 Co239 1.966 1_554 S
O242 C240 1.263 . S
C243 O244 1.235 . S
C243 O270 1.289 . S
O244 C243 1.235 . S
C245 C247 1.400 . S
C245 N248 1.351 . S
C245 C250 1.501 1_556 S
C246 C247 1.387 . S
C246 N249 1.341 . S
C247 C245 1.400 . S
C247 C246 1.387 . S
N248 Co239 2.022 . S
N248 C245 1.351 . S
N248 N249 1.365 . S
N249 C246 1.341 . S
N249 N248 1.365 . S
N249 H269 0.862 . S
C250 C245 1.501 1_554 S
C250 H251 0.961 . S
C250 H252 0.961 . S
C250 H253 0.960 . S
H251 C250 0.961 . S
H252 C250 0.961 . S
H253 C250 0.960 . S
C254 N255 1.342 . S
C254 C258 1.401 . S
C254 C259 1.499 . S
N255 Co238 1.989 . S
N255 C254 1.342 . S
N255 N256 1.388 . S
N256 Co239 1.993 . S
N256 N255 1.388 . S
N256 C257 1.346 . S
C257 N256 1.346 . S
C257 C258 1.396 . S
C257 C267 1.510 . S
C258 C254 1.401 . S
C258 C257 1.396 . S
C259 C254 1.499 . S
C259 H260 0.959 . S
C259 H261 0.960 . S
C259 H262 0.961 . S
H260 C259 0.959 . S
H261 C259 0.960 . S
H262 C259 0.961 . S
O263 Co238 1.967 . S
O263 C271 1.258 . S
O264 Co239 1.941 . S
O264 C271 1.266 . S
H265 C267 0.959 . S
H266 C267 0.961 . S
C267 C257 1.510 . S
C267 H265 0.959 . S
C267 H266 0.961 . S
C267 H268 0.960 . S
H268 C267 0.960 . S
H269 N249 0.862 . S
O270 Co238 1.920 . S
O270 C243 1.289 . S
C271 O263 1.258 . S
C271 O264 1.266 . S
Co272 O275 1.951 1_556 S
Co272 N289 1.989 . S
Co272 O297 1.967 . S
Co272 O304 1.920 . S
Co273 O276 1.966 1_556 S
Co273 N282 2.022 . S
Co273 N290 1.993 . S
Co273 O298 1.941 . S
C274 O275 1.272 . S
C274 O276 1.263 . S
O275 Co272 1.951 1_554 S
O275 C274 1.272 . S
O276 Co273 1.966 1_554 S
O276 C274 1.263 . S
C277 O278 1.235 . S
C277 O304 1.289 . S
O278 C277 1.235 . S
C279 C281 1.400 . S
C279 N282 1.351 . S
C279 C284 1.501 1_556 S
C280 C281 1.387 . S
C280 N283 1.341 . S
C281 C279 1.400 . S
C281 C280 1.387 . S
N282 Co273 2.022 . S
N282 C279 1.351 . S
N282 N283 1.365 . S
N283 C280 1.341 . S
N283 N282 1.365 . S
N283 H303 0.862 . S
C284 C279 1.501 1_554 S
C284 H285 0.961 . S
C284 H286 0.961 . S
C284 H287 0.960 . S
H285 C284 0.961 . S
H286 C284 0.961 . S
H287 C284 0.960 . S
C288 N289 1.342 . S
C288 C292 1.401 . S
C288 C293 1.499 . S
N289 Co272 1.989 . S
N289 C288 1.342 . S
N289 N290 1.388 . S
N290 Co273 1.993 . S
N290 N289 1.388 . S
N290 C291 1.346 . S
C291 N290 1.346 . S
C291 C292 1.396 . S
C291 C301 1.510 . S
C292 C288 1.401 . S
C292 C291 1.396 . S
C293 C288 1.499 . S
C293 H294 0.959 . S
C293 H295 0.960 . S
C293 H296 0.961 . S
H294 C293 0.959 . S
H295 C293 0.960 . S
H296 C293 0.961 . S
O297 Co272 1.967 . S
O297 C305 1.258 . S
O298 Co273 1.941 . S
O298 C305 1.266 . S
H299 C301 0.959 . S
H300 C301 0.961 . S
C301 C291 1.510 . S
C301 H299 0.959 . S
C301 H300 0.961 . S
C301 H302 0.960 . S
H302 C301 0.960 . S
H303 N283 0.862 . S
O304 Co272 1.920 . S
O304 C277 1.289 . S
C305 O297 1.258 . S
C305 O298 1.266 . S
Co306 O309 1.970 . S
Co306 N323 1.989 . S
Co306 O331 1.967 . S
Co306 O338 1.920 . S
Co307 O310 1.966 . S
Co307 N316 2.022 . S
Co307 N324 1.993 . S
Co307 O332 1.941 . S
C308 O309 1.258 . S
C308 O310 1.263 . S
O309 Co306 1.970 . S
O309 C308 1.258 . S
O310 Co307 1.966 . S
O310 C308 1.263 . S
C311 O312 1.235 . S
C311 O338 1.289 . S
O312 C311 1.235 . S
C313 C315 1.400 . S
C313 N316 1.351 . S
C313 C318 1.501 . S
C314 C315 1.387 . S
C314 N317 1.341 . S
C315 C313 1.400 . S
C315 C314 1.387 . S
N316 Co307 2.022 . S
N316 C313 1.351 . S
N316 N317 1.365 . S
N317 C314 1.341 . S
N317 N316 1.365 . S
N317 H337 0.862 . S
C318 C313 1.501 . S
C318 H319 0.961 . S
C318 H320 0.961 . S
C318 H321 0.960 . S
H319 C318 0.961 . S
H320 C318 0.961 . S
H321 C318 0.960 . S
C322 N323 1.342 . S
C322 C326 1.401 . S
C322 C327 1.499 . S
N323 Co306 1.989 . S
N323 C322 1.342 . S
N323 N324 1.388 . S
N324 Co307 1.993 . S
N324 N323 1.388 . S
N324 C325 1.346 . S
C325 N324 1.346 . S
C325 C326 1.396 . S
C325 C335 1.510 . S
C326 C322 1.401 . S
C326 C325 1.396 . S
C327 C322 1.499 . S
C327 H328 0.959 . S
C327 H329 0.960 . S
C327 H330 0.961 . S
H328 C327 0.959 . S
H329 C327 0.960 . S
H330 C327 0.961 . S
O331 Co306 1.967 . S
O331 C339 1.258 . S
O332 Co307 1.941 . S
O332 C339 1.266 . S
H333 C335 0.959 . S
H334 C335 0.961 . S
C335 C325 1.510 . S
C335 H333 0.959 . S
C335 H334 0.961 . S
C335 H336 0.960 . S
H336 C335 0.960 . S
H337 N317 0.862 . S
O338 Co306 1.920 . S
O338 C311 1.289 . S
C339 O331 1.258 . S
C339 O332 1.266 . S
Co340 O343 1.970 . S
Co340 N357 1.989 . S
Co340 O365 1.967 . S
Co340 O372 1.920 . S
Co341 O344 1.966 . S
Co341 N350 2.022 . S
Co341 N358 1.993 . S
Co341 O366 1.941 . S
C342 O343 1.258 . S
C342 O344 1.263 . S
O343 Co340 1.970 . S
O343 C342 1.258 . S
O344 Co341 1.966 . S
O344 C342 1.263 . S
C345 O346 1.235 . S
C345 O372 1.289 . S
O346 C345 1.235 . S
C347 C349 1.400 . S
C347 N350 1.351 . S
C347 C352 1.501 . S
C348 C349 1.387 . S
C348 N351 1.341 . S
C349 C347 1.400 . S
C349 C348 1.387 . S
N350 Co341 2.022 . S
N350 C347 1.351 . S
N350 N351 1.365 . S
N351 C348 1.341 . S
N351 N350 1.365 . S
N351 H371 0.862 . S
C352 C347 1.501 . S
C352 H353 0.961 . S
C352 H354 0.961 . S
C352 H355 0.960 . S
H353 C352 0.961 . S
H354 C352 0.961 . S
H355 C352 0.960 . S
C356 N357 1.342 . S
C356 C360 1.401 . S
C356 C361 1.499 . S
N357 Co340 1.989 . S
N357 C356 1.342 . S
N357 N358 1.388 . S
N358 Co341 1.993 . S
N358 N357 1.388 . S
N358 C359 1.346 . S
C359 N358 1.346 . S
C359 C360 1.396 . S
C359 C369 1.510 . S
C360 C356 1.401 . S
C360 C359 1.396 . S
C361 C356 1.499 . S
C361 H362 0.959 . S
C361 H363 0.960 . S
C361 H364 0.961 . S
H362 C361 0.959 . S
H363 C361 0.960 . S
H364 C361 0.961 . S
O365 Co340 1.967 . S
O365 C373 1.258 . S
O366 Co341 1.941 . S
O366 C373 1.266 . S
H367 C369 0.959 . S
H368 C369 0.961 . S
C369 C359 1.510 . S
C369 H367 0.959 . S
C369 H368 0.961 . S
C369 H370 0.960 . S
H370 C369 0.960 . S
H371 N351 0.862 . S
O372 Co340 1.920 . S
O372 C345 1.289 . S
C373 O365 1.258 . S
C373 O366 1.266 . S
Co374 O377 1.970 . S
Co374 N391 1.989 . S
Co374 O399 1.967 . S
Co374 O406 1.920 . S
Co375 O378 1.966 . S
Co375 N384 2.022 . S
Co375 N392 1.993 . S
Co375 O400 1.941 . S
C376 O377 1.258 . S
C376 O378 1.263 . S
O377 Co374 1.970 . S
O377 C376 1.258 . S
O378 Co375 1.966 . S
O378 C376 1.263 . S
C379 O380 1.235 . S
C379 O406 1.289 . S
O380 C379 1.235 . S
C381 C383 1.400 . S
C381 N384 1.351 . S
C381 C386 1.501 . S
C382 C383 1.387 . S
C382 N385 1.341 . S
C383 C381 1.400 . S
C383 C382 1.387 . S
N384 Co375 2.022 . S
N384 C381 1.351 . S
N384 N385 1.365 . S
N385 C382 1.341 . S
N385 N384 1.365 . S
N385 H405 0.862 . S
C386 C381 1.501 . S
C386 H387 0.961 . S
C386 H388 0.961 . S
C386 H389 0.960 . S
H387 C386 0.961 . S
H388 C386 0.961 . S
H389 C386 0.960 . S
C390 N391 1.342 . S
C390 C394 1.401 . S
C390 C395 1.499 . S
N391 Co374 1.989 . S
N391 C390 1.342 . S
N391 N392 1.388 . S
N392 Co375 1.993 . S
N392 N391 1.388 . S
N392 C393 1.346 . S
C393 N392 1.346 . S
C393 C394 1.396 . S
C393 C403 1.510 . S
C394 C390 1.401 . S
C394 C393 1.396 . S
C395 C390 1.499 . S
C395 H396 0.959 . S
C395 H397 0.960 . S
C395 H398 0.961 . S
H396 C395 0.959 . S
H397 C395 0.960 . S
H398 C395 0.961 . S
O399 Co374 1.967 . S
O399 C407 1.258 . S
O400 Co375 1.941 . S
O400 C407 1.266 . S
H401 C403 0.959 . S
H402 C403 0.961 . S
C403 C393 1.510 . S
C403 H401 0.959 . S
C403 H402 0.961 . S
C403 H404 0.960 . S
H404 C403 0.960 . S
H405 N385 0.862 . S
O406 Co374 1.920 . S
O406 C379 1.289 . S
C407 O399 1.258 . S
C407 O400 1.266 . S
Co408 O411 1.970 . S
Co408 N425 1.989 . S
Co408 O433 1.967 . S
Co408 O440 1.920 . S
Co409 O412 1.966 . S
Co409 N418 2.022 . S
Co409 N426 1.993 . S
Co409 O434 1.941 . S
C410 O411 1.258 . S
C410 O412 1.263 . S
O411 Co408 1.970 . S
O411 C410 1.258 . S
O412 Co409 1.966 . S
O412 C410 1.263 . S
C413 O414 1.235 . S
C413 O440 1.289 1_455 S
O414 C413 1.235 . S
C415 C417 1.400 . S
C415 N418 1.351 . S
C415 C420 1.501 . S
C416 C417 1.387 . S
C416 N419 1.341 . S
C417 C415 1.400 . S
C417 C416 1.387 . S
N418 Co409 2.022 . S
N418 C415 1.351 . S
N418 N419 1.365 . S
N419 C416 1.341 . S
N419 N418 1.365 . S
N419 H439 0.862 . S
C420 C415 1.501 . S
C420 H421 0.961 . S
C420 H422 0.961 . S
C420 H423 0.960 . S
H421 C420 0.961 . S
H422 C420 0.961 . S
H423 C420 0.960 . S
C424 N425 1.342 . S
C424 C428 1.401 . S
C424 C429 1.499 . S
N425 Co408 1.989 . S
N425 C424 1.342 . S
N425 N426 1.388 . S
N426 Co409 1.993 . S
N426 N425 1.388 . S
N426 C427 1.346 . S
C427 N426 1.346 . S
C427 C428 1.396 . S
C427 C437 1.510 . S
C428 C424 1.401 . S
C428 C427 1.396 . S
C429 C424 1.499 . S
C429 H430 0.959 . S
C429 H431 0.960 1_655 S
C429 H432 0.961 . S
H430 C429 0.959 . S
H431 C429 0.960 1_455 S
H432 C429 0.961 . S
O433 Co408 1.967 . S
O433 C441 1.258 . S
O434 Co409 1.941 . S
O434 C441 1.266 . S
H435 C437 0.959 . S
H436 C437 0.961 . S
C437 C427 1.510 . S
C437 H435 0.959 . S
C437 H436 0.961 . S
C437 H438 0.960 . S
H438 C437 0.960 . S
H439 N419 0.862 . S
O440 Co408 1.920 . S
O440 C413 1.289 1_655 S
C441 O433 1.258 . S
C441 O434 1.266 . S
Co442 O445 1.970 . S
Co442 N459 1.989 . S
Co442 O467 1.967 . S
Co442 O474 1.920 . S
Co443 O446 1.966 . S
Co443 N452 2.022 . S
Co443 N460 1.993 . S
Co443 O468 1.941 . S
C444 O445 1.258 . S
C444 O446 1.263 . S
O445 Co442 1.970 . S
O445 C444 1.258 . S
O446 Co443 1.966 . S
O446 C444 1.263 . S
C447 O448 1.235 . S
C447 O474 1.289 . S
O448 C447 1.235 . S
C449 C451 1.400 . S
C449 N452 1.351 . S
C449 C454 1.501 . S
C450 C451 1.387 . S
C450 N453 1.341 . S
C451 C449 1.400 . S
C451 C450 1.387 . S
N452 Co443 2.022 . S
N452 C449 1.351 . S
N452 N453 1.365 . S
N453 C450 1.341 . S
N453 N452 1.365 . S
N453 H473 0.862 . S
C454 C449 1.501 . S
C454 H455 0.961 . S
C454 H456 0.961 . S
C454 H457 0.960 . S
H455 C454 0.961 . S
H456 C454 0.961 . S
H457 C454 0.960 . S
C458 N459 1.342 . S
C458 C462 1.401 . S
C458 C463 1.499 . S
N459 Co442 1.989 . S
N459 C458 1.342 . S
N459 N460 1.388 . S
N460 Co443 1.993 . S
N460 N459 1.388 . S
N460 C461 1.346 . S
C461 N460 1.346 . S
C461 C462 1.396 . S
C461 C471 1.510 . S
C462 C458 1.401 . S
C462 C461 1.396 . S
C463 C458 1.499 . S
C463 H464 0.959 . S
C463 H465 0.960 . S
C463 H466 0.961 . S
H464 C463 0.959 . S
H465 C463 0.960 . S
H466 C463 0.961 . S
O467 Co442 1.967 . S
O467 C475 1.258 . S
O468 Co443 1.941 . S
O468 C475 1.266 . S
H469 C471 0.959 . S
H470 C471 0.961 . S
C471 C461 1.510 . S
C471 H469 0.959 . S
C471 H470 0.961 . S
C471 H472 0.960 . S
H472 C471 0.960 . S
H473 N453 0.862 . S
O474 Co442 1.920 . S
O474 C447 1.289 . S
C475 O467 1.258 . S
C475 O468 1.266 . S
Co476 O479 1.970 . S
Co476 N493 1.989 . S
Co476 O501 1.967 . S
Co476 O508 1.920 . S
Co477 O480 1.966 . S
Co477 N486 2.022 . S
Co477 N494 1.993 . S
Co477 O502 1.941 . S
C478 O479 1.258 . S
C478 O480 1.263 . S
O479 Co476 1.970 . S
O479 C478 1.258 . S
O480 Co477 1.966 . S
O480 C478 1.263 . S
C481 O482 1.235 . S
C481 O508 1.289 1_565 S
O482 C481 1.235 . S
C483 C485 1.400 . S
C483 N486 1.351 . S
C483 C488 1.501 . S
C484 C485 1.387 . S
C484 N487 1.341 . S
C485 C483 1.400 . S
C485 C484 1.387 . S
N486 Co477 2.022 . S
N486 C483 1.351 . S
N486 N487 1.365 . S
N487 C484 1.341 . S
N487 N486 1.365 . S
N487 H507 0.862 . S
C488 C483 1.501 . S
C488 H489 0.961 . S
C488 H490 0.961 . S
C488 H491 0.960 . S
H489 C488 0.961 . S
H490 C488 0.961 . S
H491 C488 0.960 . S
C492 N493 1.342 . S
C492 C496 1.401 . S
C492 C497 1.499 . S
N493 Co476 1.989 . S
N493 C492 1.342 . S
N493 N494 1.388 . S
N494 Co477 1.993 . S
N494 N493 1.388 . S
N494 C495 1.346 . S
C495 N494 1.346 . S
C495 C496 1.396 . S
C495 C505 1.510 . S
C496 C492 1.401 . S
C496 C495 1.396 . S
C497 C492 1.499 . S
C497 H498 0.959 . S
C497 H499 0.960 1_545 S
C497 H500 0.961 . S
H498 C497 0.959 . S
H499 C497 0.960 1_565 S
H500 C497 0.961 . S
O501 Co476 1.967 . S
O501 C509 1.258 . S
O502 Co477 1.941 . S
O502 C509 1.266 . S
H503 C505 0.959 . S
H504 C505 0.961 . S
C505 C495 1.510 . S
C505 H503 0.959 . S
C505 H504 0.961 . S
C505 H506 0.960 . S
H506 C505 0.960 . S
H507 N487 0.862 . S
O508 Co476 1.920 . S
O508 C481 1.289 1_545 S
C509 O501 1.258 . S
C509 O502 1.266 . S
Co510 O513 1.970 . S
Co510 N527 1.989 . S
Co510 O535 1.967 . S
Co510 O542 1.920 . S
Co511 O514 1.966 . S
Co511 N520 2.022 . S
Co511 N528 1.993 . S
Co511 O536 1.941 . S
C512 O513 1.258 . S
C512 O514 1.263 . S
O513 Co510 1.970 . S
O513 C512 1.258 . S
O514 Co511 1.966 . S
O514 C512 1.263 . S
C515 O516 1.235 . S
C515 O542 1.289 . S
O516 C515 1.235 . S
C517 C519 1.400 . S
C517 N520 1.351 . S
C517 C522 1.501 . S
C518 C519 1.387 . S
C518 N521 1.341 . S
C519 C517 1.400 . S
C519 C518 1.387 . S
N520 Co511 2.022 . S
N520 C517 1.351 . S
N520 N521 1.365 . S
N521 C518 1.341 . S
N521 N520 1.365 . S
N521 H541 0.862 . S
C522 C517 1.501 . S
C522 H523 0.961 . S
C522 H524 0.961 . S
C522 H525 0.960 . S
H523 C522 0.961 . S
H524 C522 0.961 . S
H525 C522 0.960 . S
C526 N527 1.342 . S
C526 C530 1.401 . S
C526 C531 1.499 . S
N527 Co510 1.989 . S
N527 C526 1.342 . S
N527 N528 1.388 . S
N528 Co511 1.993 . S
N528 N527 1.388 . S
N528 C529 1.346 . S
C529 N528 1.346 . S
C529 C530 1.396 . S
C529 C539 1.510 . S
C530 C526 1.401 . S
C530 C529 1.396 . S
C531 C526 1.499 . S
C531 H532 0.959 . S
C531 H533 0.960 . S
C531 H534 0.961 . S
H532 C531 0.959 . S
H533 C531 0.960 . S
H534 C531 0.961 . S
O535 Co510 1.967 . S
O535 C543 1.258 . S
O536 Co511 1.941 . S
O536 C543 1.266 . S
H537 C539 0.959 . S
H538 C539 0.961 . S
C539 C529 1.510 . S
C539 H537 0.959 . S
C539 H538 0.961 . S
C539 H540 0.960 . S
H540 C539 0.960 . S
H541 N521 0.862 . S
O542 Co510 1.920 . S
O542 C515 1.289 . S
C543 O535 1.258 . S
C543 O536 1.266 . S
Co544 O547 1.970 . S
Co544 N561 1.989 . S
Co544 O569 1.967 . S
Co544 O576 1.920 . S
Co545 O548 1.966 . S
Co545 N554 2.022 . S
Co545 N562 1.993 . S
Co545 O570 1.941 . S
C546 O547 1.258 . S
C546 O548 1.263 . S
O547 Co544 1.970 . S
O547 C546 1.258 . S
O548 Co545 1.966 . S
O548 C546 1.263 . S
C549 O550 1.235 . S
C549 O576 1.289 . S
O550 C549 1.235 . S
C551 C553 1.400 . S
C551 N554 1.351 . S
C551 C556 1.501 . S
C552 C553 1.387 . S
C552 N555 1.341 . S
C553 C551 1.400 . S
C553 C552 1.387 . S
N554 Co545 2.022 . S
N554 C551 1.351 . S
N554 N555 1.365 . S
N555 C552 1.341 . S
N555 N554 1.365 . S
N555 H575 0.862 . S
C556 C551 1.501 . S
C556 H557 0.961 . S
C556 H558 0.961 . S
C556 H559 0.960 . S
H557 C556 0.961 . S
H558 C556 0.961 . S
H559 C556 0.960 . S
C560 N561 1.342 . S
C560 C564 1.401 . S
C560 C565 1.499 . S
N561 Co544 1.989 . S
N561 C560 1.342 . S
N561 N562 1.388 . S
N562 Co545 1.993 . S
N562 N561 1.388 . S
N562 C563 1.346 . S
C563 N562 1.346 . S
C563 C564 1.396 . S
C563 C573 1.510 . S
C564 C560 1.401 . S
C564 C563 1.396 . S
C565 C560 1.499 . S
C565 H566 0.959 . S
C565 H567 0.960 . S
C565 H568 0.961 . S
H566 C565 0.959 . S
H567 C565 0.960 . S
H568 C565 0.961 . S
O569 Co544 1.967 . S
O569 C577 1.258 . S
O570 Co545 1.941 . S
O570 C577 1.266 . S
H571 C573 0.959 . S
H572 C573 0.961 . S
C573 C563 1.510 . S
C573 H571 0.959 . S
C573 H572 0.961 . S
C573 H574 0.960 . S
H574 C573 0.960 . S
H575 N555 0.862 . S
O576 Co544 1.920 . S
O576 C549 1.289 . S
C577 O569 1.258 . S
C577 O570 1.266 . S
Co578 O581 1.970 . S
Co578 N595 1.989 . S
Co578 O603 1.967 . S
Co578 O610 1.920 . S
Co579 O582 1.966 . S
Co579 N588 2.022 . S
Co579 N596 1.993 . S
Co579 O604 1.941 . S
C580 O581 1.258 . S
C580 O582 1.263 . S
O581 Co578 1.970 . S
O581 C580 1.258 . S
O582 Co579 1.966 . S
O582 C580 1.263 . S
C583 O584 1.235 . S
C583 O610 1.289 . S
O584 C583 1.235 . S
C585 C587 1.400 . S
C585 N588 1.351 . S
C585 C590 1.501 . S
C586 C587 1.387 . S
C586 N589 1.341 . S
C587 C585 1.400 . S
C587 C586 1.387 . S
N588 Co579 2.022 . S
N588 C585 1.351 . S
N588 N589 1.365 . S
N589 C586 1.341 . S
N589 N588 1.365 . S
N589 H609 0.862 . S
C590 C585 1.501 . S
C590 H591 0.961 . S
C590 H592 0.961 . S
C590 H593 0.960 . S
H591 C590 0.961 . S
H592 C590 0.961 . S
H593 C590 0.960 . S
C594 N595 1.342 . S
C594 C598 1.401 . S
C594 C599 1.499 . S
N595 Co578 1.989 . S
N595 C594 1.342 . S
N595 N596 1.388 . S
N596 Co579 1.993 . S
N596 N595 1.388 . S
N596 C597 1.346 . S
C597 N596 1.346 . S
C597 C598 1.396 . S
C597 C607 1.510 . S
C598 C594 1.401 . S
C598 C597 1.396 . S
C599 C594 1.499 . S
C599 H600 0.959 . S
C599 H601 0.960 . S
C599 H602 0.961 . S
H600 C599 0.959 . S
H601 C599 0.960 . S
H602 C599 0.961 . S
O603 Co578 1.967 . S
O603 C611 1.258 . S
O604 Co579 1.941 . S
O604 C611 1.266 . S
H605 C607 0.959 . S
H606 C607 0.961 . S
C607 C597 1.510 . S
C607 H605 0.959 . S
C607 H606 0.961 . S
C607 H608 0.960 . S
H608 C607 0.960 . S
H609 N589 0.862 . S
O610 Co578 1.920 . S
O610 C583 1.289 . S
C611 O603 1.258 . S
C611 O604 1.266 . S
Co612 O615 1.970 . S
Co612 N629 1.989 . S
Co612 O637 1.967 . S
Co612 O644 1.920 . S
Co613 O616 1.966 . S
Co613 N622 2.022 . S
Co613 N630 1.993 . S
Co613 O638 1.941 . S
C614 O615 1.258 . S
C614 O616 1.263 . S
O615 Co612 1.970 . S
O615 C614 1.258 . S
O616 Co613 1.966 . S
O616 C614 1.263 . S
C617 O618 1.235 . S
C617 O644 1.289 . S
O618 C617 1.235 . S
C619 C621 1.400 . S
C619 N622 1.351 . S
C619 C624 1.501 . S
C620 C621 1.387 . S
C620 N623 1.341 . S
C621 C619 1.400 . S
C621 C620 1.387 . S
N622 Co613 2.022 . S
N622 C619 1.351 . S
N622 N623 1.365 . S
N623 C620 1.341 . S
N623 N622 1.365 . S
N623 H643 0.862 . S
C624 C619 1.501 . S
C624 H625 0.961 . S
C624 H626 0.961 . S
C624 H627 0.960 . S
H625 C624 0.961 . S
H626 C624 0.961 . S
H627 C624 0.960 . S
C628 N629 1.342 . S
C628 C632 1.401 . S
C628 C633 1.499 . S
N629 Co612 1.989 . S
N629 C628 1.342 . S
N629 N630 1.388 . S
N630 Co613 1.993 . S
N630 N629 1.388 . S
N630 C631 1.346 . S
C631 N630 1.346 . S
C631 C632 1.396 . S
C631 C641 1.510 . S
C632 C628 1.401 . S
C632 C631 1.396 . S
C633 C628 1.499 . S
C633 H634 0.959 . S
C633 H635 0.960 . S
C633 H636 0.961 . S
H634 C633 0.959 . S
H635 C633 0.960 . S
H636 C633 0.961 . S
O637 Co612 1.967 . S
O637 C645 1.258 . S
O638 Co613 1.941 . S
O638 C645 1.266 . S
H639 C641 0.959 . S
H640 C641 0.961 . S
C641 C631 1.510 . S
C641 H639 0.959 . S
C641 H640 0.961 . S
C641 H642 0.960 . S
H642 C641 0.960 . S
H643 N623 0.862 . S
O644 Co612 1.920 . S
O644 C617 1.289 . S
C645 O637 1.258 . S
C645 O638 1.266 . S
Co646 O649 1.970 . S
Co646 N663 1.989 . S
Co646 O671 1.967 . S
Co646 O678 1.920 . S
Co647 O650 1.966 . S
Co647 N656 2.022 . S
Co647 N664 1.993 . S
Co647 O672 1.941 . S
C648 O649 1.258 . S
C648 O650 1.263 . S
O649 Co646 1.970 . S
O649 C648 1.258 . S
O650 Co647 1.966 . S
O650 C648 1.263 . S
C651 O652 1.235 . S
C651 O678 1.289 . S
O652 C651 1.235 . S
C653 C655 1.400 . S
C653 N656 1.351 . S
C653 C658 1.501 . S
C654 C655 1.387 . S
C654 N657 1.341 . S
C655 C653 1.400 . S
C655 C654 1.387 . S
N656 Co647 2.022 . S
N656 C653 1.351 . S
N656 N657 1.365 . S
N657 C654 1.341 . S
N657 N656 1.365 . S
N657 H677 0.862 . S
C658 C653 1.501 . S
C658 H659 0.961 . S
C658 H660 0.961 . S
C658 H661 0.960 . S
H659 C658 0.961 . S
H660 C658 0.961 . S
H661 C658 0.960 . S
C662 N663 1.342 . S
C662 C666 1.401 . S
C662 C667 1.499 . S
N663 Co646 1.989 . S
N663 C662 1.342 . S
N663 N664 1.388 . S
N664 Co647 1.993 . S
N664 N663 1.388 . S
N664 C665 1.346 . S
C665 N664 1.346 . S
C665 C666 1.396 . S
C665 C675 1.510 . S
C666 C662 1.401 . S
C666 C665 1.396 . S
C667 C662 1.499 . S
C667 H668 0.959 . S
C667 H669 0.960 . S
C667 H670 0.961 . S
H668 C667 0.959 . S
H669 C667 0.960 . S
H670 C667 0.961 . S
O671 Co646 1.967 . S
O671 C679 1.258 . S
O672 Co647 1.941 . S
O672 C679 1.266 . S
H673 C675 0.959 . S
H674 C675 0.961 . S
C675 C665 1.510 . S
C675 H673 0.959 . S
C675 H674 0.961 . S
C675 H676 0.960 . S
H676 C675 0.960 . S
H677 N657 0.862 . S
O678 Co646 1.920 . S
O678 C651 1.289 . S
C679 O671 1.258 . S
C679 O672 1.266 . S
Co680 O683 1.970 . S
Co680 N697 1.989 . S
Co680 O705 1.967 . S
Co680 O712 1.920 . S
Co681 O684 1.966 . S
Co681 N690 2.022 . S
Co681 N698 1.993 . S
Co681 O706 1.941 . S
C682 O683 1.258 . S
C682 O684 1.263 . S
O683 Co680 1.970 . S
O683 C682 1.258 . S
O684 Co681 1.966 . S
O684 C682 1.263 . S
C685 O686 1.235 . S
C685 O712 1.289 . S
O686 C685 1.235 . S
C687 C689 1.400 . S
C687 N690 1.351 . S
C687 C692 1.501 . S
C688 C689 1.387 . S
C688 N691 1.341 . S
C689 C687 1.400 . S
C689 C688 1.387 . S
N690 Co681 2.022 . S
N690 C687 1.351 . S
N690 N691 1.365 . S
N691 C688 1.341 . S
N691 N690 1.365 . S
N691 H711 0.862 . S
C692 C687 1.501 . S
C692 H693 0.961 . S
C692 H694 0.961 . S
C692 H695 0.960 . S
H693 C692 0.961 . S
H694 C692 0.961 . S
H695 C692 0.960 . S
C696 N697 1.342 . S
C696 C700 1.401 . S
C696 C701 1.499 . S
N697 Co680 1.989 . S
N697 C696 1.342 . S
N697 N698 1.388 . S
N698 Co681 1.993 . S
N698 N697 1.388 . S
N698 C699 1.346 . S
C699 N698 1.346 . S
C699 C700 1.396 . S
C699 C709 1.510 . S
C700 C696 1.401 . S
C700 C699 1.396 . S
C701 C696 1.499 . S
C701 H702 0.959 . S
C701 H703 0.960 . S
C701 H704 0.961 . S
H702 C701 0.959 . S
H703 C701 0.960 . S
H704 C701 0.961 . S
O705 Co680 1.967 . S
O705 C713 1.258 . S
O706 Co681 1.941 . S
O706 C713 1.266 . S
H707 C709 0.959 . S
H708 C709 0.961 . S
C709 C699 1.510 . S
C709 H707 0.959 . S
C709 H708 0.961 . S
C709 H710 0.960 . S
H710 C709 0.960 . S
H711 N691 0.862 . S
O712 Co680 1.920 . S
O712 C685 1.289 . S
C713 O705 1.258 . S
C713 O706 1.266 . S
Co714 O717 1.970 . S
Co714 N731 1.989 . S
Co714 O739 1.967 . S
Co714 O746 1.920 . S
Co715 O718 1.966 . S
Co715 N724 2.022 . S
Co715 N732 1.993 . S
Co715 O740 1.941 . S
C716 O717 1.258 . S
C716 O718 1.263 . S
O717 Co714 1.970 . S
O717 C716 1.258 . S
O718 Co715 1.966 . S
O718 C716 1.263 . S
C719 O720 1.235 . S
C719 O746 1.289 1_565 S
O720 C719 1.235 . S
C721 C723 1.400 . S
C721 N724 1.351 . S
C721 C726 1.501 . S
C722 C723 1.387 . S
C722 N725 1.341 . S
C723 C721 1.400 . S
C723 C722 1.387 . S
N724 Co715 2.022 . S
N724 C721 1.351 . S
N724 N725 1.365 . S
N725 C722 1.341 . S
N725 N724 1.365 . S
N725 H745 0.862 . S
C726 C721 1.501 . S
C726 H727 0.961 . S
C726 H728 0.961 . S
C726 H729 0.960 . S
H727 C726 0.961 . S
H728 C726 0.961 . S
H729 C726 0.960 . S
C730 N731 1.342 . S
C730 C734 1.401 . S
C730 C735 1.499 . S
N731 Co714 1.989 . S
N731 C730 1.342 . S
N731 N732 1.388 . S
N732 Co715 1.993 . S
N732 N731 1.388 . S
N732 C733 1.346 . S
C733 N732 1.346 . S
C733 C734 1.396 . S
C733 C743 1.510 . S
C734 C730 1.401 . S
C734 C733 1.396 . S
C735 C730 1.499 . S
C735 H736 0.959 . S
C735 H737 0.960 1_545 S
C735 H738 0.961 . S
H736 C735 0.959 . S
H737 C735 0.960 1_565 S
H738 C735 0.961 . S
O739 Co714 1.967 . S
O739 C747 1.258 . S
O740 Co715 1.941 . S
O740 C747 1.266 . S
H741 C743 0.959 . S
H742 C743 0.961 . S
C743 C733 1.510 . S
C743 H741 0.959 . S
C743 H742 0.961 . S
C743 H744 0.960 . S
H744 C743 0.960 . S
H745 N725 0.862 . S
O746 Co714 1.920 . S
O746 C719 1.289 1_545 S
C747 O739 1.258 . S
C747 O740 1.266 . S
Co748 O751 1.970 . S
Co748 N765 1.989 . S
Co748 O773 1.967 . S
Co748 O780 1.920 . S
Co749 O752 1.966 . S
Co749 N758 2.022 . S
Co749 N766 1.993 . S
Co749 O774 1.941 . S
C750 O751 1.258 . S
C750 O752 1.263 . S
O751 Co748 1.970 . S
O751 C750 1.258 . S
O752 Co749 1.966 . S
O752 C750 1.263 . S
C753 O754 1.235 . S
C753 O780 1.289 1_455 S
O754 C753 1.235 . S
C755 C757 1.400 . S
C755 N758 1.351 . S
C755 C760 1.501 . S
C756 C757 1.387 . S
C756 N759 1.341 . S
C757 C755 1.400 . S
C757 C756 1.387 . S
N758 Co749 2.022 . S
N758 C755 1.351 . S
N758 N759 1.365 . S
N759 C756 1.341 . S
N759 N758 1.365 . S
N759 H779 0.862 . S
C760 C755 1.501 . S
C760 H761 0.961 . S
C760 H762 0.961 . S
C760 H763 0.960 . S
H761 C760 0.961 . S
H762 C760 0.961 . S
H763 C760 0.960 . S
C764 N765 1.342 . S
C764 C768 1.401 . S
C764 C769 1.499 . S
N765 Co748 1.989 . S
N765 C764 1.342 . S
N765 N766 1.388 . S
N766 Co749 1.993 . S
N766 N765 1.388 . S
N766 C767 1.346 . S
C767 N766 1.346 . S
C767 C768 1.396 . S
C767 C777 1.510 . S
C768 C764 1.401 . S
C768 C767 1.396 . S
C769 C764 1.499 . S
C769 H770 0.959 . S
C769 H771 0.960 1_655 S
C769 H772 0.961 . S
H770 C769 0.959 . S
H771 C769 0.960 1_455 S
H772 C769 0.961 . S
O773 Co748 1.967 . S
O773 C781 1.258 . S
O774 Co749 1.941 . S
O774 C781 1.266 . S
H775 C777 0.959 . S
H776 C777 0.961 . S
C777 C767 1.510 . S
C777 H775 0.959 . S
C777 H776 0.961 . S
C777 H778 0.960 . S
H778 C777 0.960 . S
H779 N759 0.862 . S
O780 Co748 1.920 . S
O780 C753 1.289 1_655 S
C781 O773 1.258 . S
C781 O774 1.266 . S
Co782 O785 1.970 . S
Co782 N799 1.989 . S
Co782 O807 1.967 . S
Co782 O814 1.920 . S
Co783 O786 1.966 . S
Co783 N792 2.022 . S
Co783 N800 1.993 . S
Co783 O808 1.941 . S
C784 O785 1.258 . S
C784 O786 1.263 . S
O785 Co782 1.970 . S
O785 C784 1.258 . S
O786 Co783 1.966 . S
O786 C784 1.263 . S
C787 O788 1.235 . S
C787 O814 1.289 . S
O788 C787 1.235 . S
C789 C791 1.400 . S
C789 N792 1.351 . S
C789 C794 1.501 . S
C790 C791 1.387 . S
C790 N793 1.341 . S
C791 C789 1.400 . S
C791 C790 1.387 . S
N792 Co783 2.022 . S
N792 C789 1.351 . S
N792 N793 1.365 . S
N793 C790 1.341 . S
N793 N792 1.365 . S
N793 H813 0.862 . S
C794 C789 1.501 . S
C794 H795 0.961 . S
C794 H796 0.961 . S
C794 H797 0.960 . S
H795 C794 0.961 . S
H796 C794 0.961 . S
H797 C794 0.960 . S
C798 N799 1.342 . S
C798 C802 1.401 . S
C798 C803 1.499 . S
N799 Co782 1.989 . S
N799 C798 1.342 . S
N799 N800 1.388 . S
N800 Co783 1.993 . S
N800 N799 1.388 . S
N800 C801 1.346 . S
C801 N800 1.346 . S
C801 C802 1.396 . S
C801 C811 1.510 . S
C802 C798 1.401 . S
C802 C801 1.396 . S
C803 C798 1.499 . S
C803 H804 0.959 . S
C803 H805 0.960 . S
C803 H806 0.961 . S
H804 C803 0.959 . S
H805 C803 0.960 . S
H806 C803 0.961 . S
O807 Co782 1.967 . S
O807 C815 1.258 . S
O808 Co783 1.941 . S
O808 C815 1.266 . S
H809 C811 0.959 . S
H810 C811 0.961 . S
C811 C801 1.510 . S
C811 H809 0.959 . S
C811 H810 0.961 . S
C811 H812 0.960 . S
H812 C811 0.960 . S
H813 N793 0.862 . S
O814 Co782 1.920 . S
O814 C787 1.289 . S
C815 O807 1.258 . S
C815 O808 1.266 . S
Co816 O819 1.970 . S
Co816 N833 1.989 . S
Co816 O841 1.967 . S
Co816 O848 1.920 . S
Co817 O820 1.966 . S
Co817 N826 2.022 . S
Co817 N834 1.993 . S
Co817 O842 1.941 . S
C818 O819 1.258 . S
C818 O820 1.263 . S
O819 Co816 1.970 . S
O819 C818 1.258 . S
O820 Co817 1.966 . S
O820 C818 1.263 . S
C821 O822 1.235 . S
C821 O848 1.289 . S
O822 C821 1.235 . S
C823 C825 1.400 . S
C823 N826 1.351 . S
C823 C828 1.501 . S
C824 C825 1.387 . S
C824 N827 1.341 . S
C825 C823 1.400 . S
C825 C824 1.387 . S
N826 Co817 2.022 . S
N826 C823 1.351 . S
N826 N827 1.365 . S
N827 C824 1.341 . S
N827 N826 1.365 . S
N827 H847 0.862 . S
C828 C823 1.501 . S
C828 H829 0.961 . S
C828 H830 0.961 . S
C828 H831 0.960 . S
H829 C828 0.961 . S
H830 C828 0.961 . S
H831 C828 0.960 . S
C832 N833 1.342 . S
C832 C836 1.401 . S
C832 C837 1.499 . S
N833 Co816 1.989 . S
N833 C832 1.342 . S
N833 N834 1.388 . S
N834 Co817 1.993 . S
N834 N833 1.388 . S
N834 C835 1.346 . S
C835 N834 1.346 . S
C835 C836 1.396 . S
C835 C845 1.510 . S
C836 C832 1.401 . S
C836 C835 1.396 . S
C837 C832 1.499 . S
C837 H838 0.959 . S
C837 H839 0.960 . S
C837 H840 0.961 . S
H838 C837 0.959 . S
H839 C837 0.960 . S
H840 C837 0.961 . S
O841 Co816 1.967 . S
O841 C849 1.258 . S
O842 Co817 1.941 . S
O842 C849 1.266 . S
H843 C845 0.959 . S
H844 C845 0.961 . S
C845 C835 1.510 . S
C845 H843 0.959 . S
C845 H844 0.961 . S
C845 H846 0.960 . S
H846 C845 0.960 . S
H847 N827 0.862 . S
O848 Co816 1.920 . S
O848 C821 1.289 . S
C849 O841 1.258 . S
C849 O842 1.266 . S
Co850 O853 1.970 . S
Co850 N867 1.989 . S
Co850 O875 1.967 . S
Co850 O882 1.920 . S
Co851 O854 1.966 . S
Co851 N860 2.022 . S
Co851 N868 1.993 . S
Co851 O876 1.941 . S
C852 O853 1.258 . S
C852 O854 1.263 . S
O853 Co850 1.970 . S
O853 C852 1.258 . S
O854 Co851 1.966 . S
O854 C852 1.263 . S
C855 O856 1.235 . S
C855 O882 1.289 . S
O856 C855 1.235 . S
C857 C859 1.400 . S
C857 N860 1.351 . S
C857 C862 1.501 . S
C858 C859 1.387 . S
C858 N861 1.341 . S
C859 C857 1.400 . S
C859 C858 1.387 . S
N860 Co851 2.022 . S
N860 C857 1.351 . S
N860 N861 1.365 . S
N861 C858 1.341 . S
N861 N860 1.365 . S
N861 H881 0.862 . S
C862 C857 1.501 . S
C862 H863 0.961 . S
C862 H864 0.961 . S
C862 H865 0.960 . S
H863 C862 0.961 . S
H864 C862 0.961 . S
H865 C862 0.960 . S
C866 N867 1.342 . S
C866 C870 1.401 . S
C866 C871 1.499 . S
N867 Co850 1.989 . S
N867 C866 1.342 . S
N867 N868 1.388 . S
N868 Co851 1.993 . S
N868 N867 1.388 . S
N868 C869 1.346 . S
C869 N868 1.346 . S
C869 C870 1.396 . S
C869 C879 1.510 . S
C870 C866 1.401 . S
C870 C869 1.396 . S
C871 C866 1.499 . S
C871 H872 0.959 . S
C871 H873 0.960 . S
C871 H874 0.961 . S
H872 C871 0.959 . S
H873 C871 0.960 . S
H874 C871 0.961 . S
O875 Co850 1.967 . S
O875 C883 1.258 . S
O876 Co851 1.941 . S
O876 C883 1.266 . S
H877 C879 0.959 . S
H878 C879 0.961 . S
C879 C869 1.510 . S
C879 H877 0.959 . S
C879 H878 0.961 . S
C879 H880 0.960 . S
H880 C879 0.960 . S
H881 N861 0.862 . S
O882 Co850 1.920 . S
O882 C855 1.289 . S
C883 O875 1.258 . S
C883 O876 1.266 . S
Co884 O887 1.970 . S
Co884 N901 1.989 . S
Co884 O909 1.967 . S
Co884 O916 1.920 . S
Co885 O888 1.966 . S
Co885 N894 2.022 . S
Co885 N902 1.993 . S
Co885 O910 1.941 . S
C886 O887 1.258 . S
C886 O888 1.263 . S
O887 Co884 1.970 . S
O887 C886 1.258 . S
O888 Co885 1.966 . S
O888 C886 1.263 . S
C889 O890 1.235 . S
C889 O916 1.289 . S
O890 C889 1.235 . S
C891 C893 1.400 . S
C891 N894 1.351 . S
C891 C896 1.501 . S
C892 C893 1.387 . S
C892 N895 1.341 . S
C893 C891 1.400 . S
C893 C892 1.387 . S
N894 Co885 2.022 . S
N894 C891 1.351 . S
N894 N895 1.365 . S
N895 C892 1.341 . S
N895 N894 1.365 . S
N895 H915 0.862 . S
C896 C891 1.501 . S
C896 H897 0.961 . S
C896 H898 0.961 . S
C896 H899 0.960 . S
H897 C896 0.961 . S
H898 C896 0.961 . S
H899 C896 0.960 . S
C900 N901 1.342 . S
C900 C904 1.401 . S
C900 C905 1.499 . S
N901 Co884 1.989 . S
N901 C900 1.342 . S
N901 N902 1.388 . S
N902 Co885 1.993 . S
N902 N901 1.388 . S
N902 C903 1.346 . S
C903 N902 1.346 . S
C903 C904 1.396 . S
C903 C913 1.510 . S
C904 C900 1.401 . S
C904 C903 1.396 . S
C905 C900 1.499 . S
C905 H906 0.959 . S
C905 H907 0.960 . S
C905 H908 0.961 . S
H906 C905 0.959 . S
H907 C905 0.960 . S
H908 C905 0.961 . S
O909 Co884 1.967 . S
O909 C917 1.258 . S
O910 Co885 1.941 . S
O910 C917 1.266 . S
H911 C913 0.959 . S
H912 C913 0.961 . S
C913 C903 1.510 . S
C913 H911 0.959 . S
C913 H912 0.961 . S
C913 H914 0.960 . S
H914 C913 0.960 . S
H915 N895 0.862 . S
O916 Co884 1.920 . S
O916 C889 1.289 . S
C917 O909 1.258 . S
C917 O910 1.266 . S
Co918 O921 1.970 . S
Co918 N935 1.989 . S
Co918 O943 1.967 . S
Co918 O950 1.920 . S
Co919 O922 1.966 . S
Co919 N928 2.022 . S
Co919 N936 1.993 . S
Co919 O944 1.941 . S
C920 O921 1.258 . S
C920 O922 1.263 . S
O921 Co918 1.970 . S
O921 C920 1.258 . S
O922 Co919 1.966 . S
O922 C920 1.263 . S
C923 O924 1.235 . S
C923 O950 1.289 1_545 S
O924 C923 1.235 . S
C925 C927 1.400 . S
C925 N928 1.351 . S
C925 C930 1.501 . S
C926 C927 1.387 . S
C926 N929 1.341 . S
C927 C925 1.400 . S
C927 C926 1.387 . S
N928 Co919 2.022 . S
N928 C925 1.351 . S
N928 N929 1.365 . S
N929 C926 1.341 . S
N929 N928 1.365 . S
N929 H949 0.862 . S
C930 C925 1.501 . S
C930 H931 0.961 . S
C930 H932 0.961 . S
C930 H933 0.960 . S
H931 C930 0.961 . S
H932 C930 0.961 . S
H933 C930 0.960 . S
C934 N935 1.342 . S
C934 C938 1.401 . S
C934 C939 1.499 . S
N935 Co918 1.989 . S
N935 C934 1.342 . S
N935 N936 1.388 . S
N936 Co919 1.993 . S
N936 N935 1.388 . S
N936 C937 1.346 . S
C937 N936 1.346 . S
C937 C938 1.396 . S
C937 C947 1.510 . S
C938 C934 1.401 . S
C938 C937 1.396 . S
C939 C934 1.499 . S
C939 H940 0.959 . S
C939 H941 0.960 1_565 S
C939 H942 0.961 . S
H940 C939 0.959 . S
H941 C939 0.960 1_545 S
H942 C939 0.961 . S
O943 Co918 1.967 . S
O943 C951 1.258 . S
O944 Co919 1.941 . S
O944 C951 1.266 . S
H945 C947 0.959 . S
H946 C947 0.961 . S
C947 C937 1.510 . S
C947 H945 0.959 . S
C947 H946 0.961 . S
C947 H948 0.960 . S
H948 C947 0.960 . S
H949 N929 0.862 . S
O950 Co918 1.920 . S
O950 C923 1.289 1_565 S
C951 O943 1.258 . S
C951 O944 1.266 . S
Co952 O955 1.970 . S
Co952 N969 1.989 . S
Co952 O977 1.967 . S
Co952 O984 1.920 . S
Co953 O956 1.966 . S
Co953 N962 2.022 . S
Co953 N970 1.993 . S
Co953 O978 1.941 . S
C954 O955 1.258 . S
C954 O956 1.263 . S
O955 Co952 1.970 . S
O955 C954 1.258 . S
O956 Co953 1.966 . S
O956 C954 1.263 . S
C957 O958 1.235 . S
C957 O984 1.289 1_655 S
O958 C957 1.235 . S
C959 C961 1.400 . S
C959 N962 1.351 . S
C959 C964 1.501 . S
C960 C961 1.387 . S
C960 N963 1.341 . S
C961 C959 1.400 . S
C961 C960 1.387 . S
N962 Co953 2.022 . S
N962 C959 1.351 . S
N962 N963 1.365 . S
N963 C960 1.341 . S
N963 N962 1.365 . S
N963 H983 0.862 . S
C964 C959 1.501 . S
C964 H965 0.961 . S
C964 H966 0.961 . S
C964 H967 0.960 . S
H965 C964 0.961 . S
H966 C964 0.961 . S
H967 C964 0.960 . S
C968 N969 1.342 . S
C968 C972 1.401 . S
C968 C973 1.499 . S
N969 Co952 1.989 . S
N969 C968 1.342 . S
N969 N970 1.388 . S
N970 Co953 1.993 . S
N970 N969 1.388 . S
N970 C971 1.346 . S
C971 N970 1.346 . S
C971 C972 1.396 . S
C971 C981 1.510 . S
C972 C968 1.401 . S
C972 C971 1.396 . S
C973 C968 1.499 . S
C973 H974 0.959 . S
C973 H975 0.960 1_455 S
C973 H976 0.961 . S
H974 C973 0.959 . S
H975 C973 0.960 1_655 S
H976 C973 0.961 . S
O977 Co952 1.967 . S
O977 C985 1.258 . S
O978 Co953 1.941 . S
O978 C985 1.266 . S
H979 C981 0.959 . S
H980 C981 0.961 . S
C981 C971 1.510 . S
C981 H979 0.959 . S
C981 H980 0.961 . S
C981 H982 0.960 . S
H982 C981 0.960 . S
H983 N963 0.862 . S
O984 Co952 1.920 . S
O984 C957 1.289 1_455 S
C985 O977 1.258 . S
C985 O978 1.266 . S
Co986 O989 1.970 . S
Co986 N1003 1.989 . S
Co986 O1011 1.967 . S
Co986 O1018 1.920 . S
Co987 O990 1.966 . S
Co987 N996 2.022 . S
Co987 N1004 1.993 . S
Co987 O1012 1.941 . S
C988 O989 1.258 . S
C988 O990 1.263 . S
O989 Co986 1.970 . S
O989 C988 1.258 . S
O990 Co987 1.966 . S
O990 C988 1.263 . S
C991 O992 1.235 . S
C991 O1018 1.289 . S
O992 C991 1.235 . S
C993 C995 1.400 . S
C993 N996 1.351 . S
C993 C998 1.501 . S
C994 C995 1.387 . S
C994 N997 1.341 . S
C995 C993 1.400 . S
C995 C994 1.387 . S
N996 Co987 2.022 . S
N996 C993 1.351 . S
N996 N997 1.365 . S
N997 C994 1.341 . S
N997 N996 1.365 . S
N997 H1017 0.862 . S
C998 C993 1.501 . S
C998 H999 0.961 . S
C998 H1000 0.961 . S
C998 H1001 0.960 . S
H999 C998 0.961 . S
H1000 C998 0.961 . S
H1001 C998 0.960 . S
C1002 N1003 1.342 . S
C1002 C1006 1.401 . S
C1002 C1007 1.499 . S
N1003 Co986 1.989 . S
N1003 C1002 1.342 . S
N1003 N1004 1.388 . S
N1004 Co987 1.993 . S
N1004 N1003 1.388 . S
N1004 C1005 1.346 . S
C1005 N1004 1.346 . S
C1005 C1006 1.396 . S
C1005 C1015 1.510 . S
C1006 C1002 1.401 . S
C1006 C1005 1.396 . S
C1007 C1002 1.499 . S
C1007 H1008 0.959 . S
C1007 H1009 0.960 . S
C1007 H1010 0.961 . S
H1008 C1007 0.959 . S
H1009 C1007 0.960 . S
H1010 C1007 0.961 . S
O1011 Co986 1.967 . S
O1011 C1019 1.258 . S
O1012 Co987 1.941 . S
O1012 C1019 1.266 . S
H1013 C1015 0.959 . S
H1014 C1015 0.961 . S
C1015 C1005 1.510 . S
C1015 H1013 0.959 . S
C1015 H1014 0.961 . S
C1015 H1016 0.960 . S
H1016 C1015 0.960 . S
H1017 N997 0.862 . S
O1018 Co986 1.920 . S
O1018 C991 1.289 . S
C1019 O1011 1.258 . S
C1019 O1012 1.266 . S
Co1020 O1023 1.970 . S
Co1020 N1037 1.989 . S
Co1020 O1045 1.967 . S
Co1020 O1052 1.920 . S
Co1021 O1024 1.966 . S
Co1021 N1030 2.022 . S
Co1021 N1038 1.993 . S
Co1021 O1046 1.941 . S
C1022 O1023 1.258 . S
C1022 O1024 1.263 . S
O1023 Co1020 1.970 . S
O1023 C1022 1.258 . S
O1024 Co1021 1.966 . S
O1024 C1022 1.263 . S
C1025 O1026 1.235 . S
C1025 O1052 1.289 1_655 S
O1026 C1025 1.235 . S
C1027 C1029 1.400 . S
C1027 N1030 1.351 . S
C1027 C1032 1.501 . S
C1028 C1029 1.387 . S
C1028 N1031 1.341 . S
C1029 C1027 1.400 . S
C1029 C1028 1.387 . S
N1030 Co1021 2.022 . S
N1030 C1027 1.351 . S
N1030 N1031 1.365 . S
N1031 C1028 1.341 . S
N1031 N1030 1.365 . S
N1031 H1051 0.862 . S
C1032 C1027 1.501 . S
C1032 H1033 0.961 . S
C1032 H1034 0.961 . S
C1032 H1035 0.960 . S
H1033 C1032 0.961 . S
H1034 C1032 0.961 . S
H1035 C1032 0.960 . S
C1036 N1037 1.342 . S
C1036 C1040 1.401 . S
C1036 C1041 1.499 . S
N1037 Co1020 1.989 . S
N1037 C1036 1.342 . S
N1037 N1038 1.388 . S
N1038 Co1021 1.993 . S
N1038 N1037 1.388 . S
N1038 C1039 1.346 . S
C1039 N1038 1.346 . S
C1039 C1040 1.396 . S
C1039 C1049 1.510 . S
C1040 C1036 1.401 . S
C1040 C1039 1.396 . S
C1041 C1036 1.499 . S
C1041 H1042 0.959 . S
C1041 H1043 0.960 1_455 S
C1041 H1044 0.961 . S
H1042 C1041 0.959 . S
H1043 C1041 0.960 1_655 S
H1044 C1041 0.961 . S
O1045 Co1020 1.967 . S
O1045 C1053 1.258 . S
O1046 Co1021 1.941 . S
O1046 C1053 1.266 . S
H1047 C1049 0.959 . S
H1048 C1049 0.961 . S
C1049 C1039 1.510 . S
C1049 H1047 0.959 . S
C1049 H1048 0.961 . S
C1049 H1050 0.960 . S
H1050 C1049 0.960 . S
H1051 N1031 0.862 . S
O1052 Co1020 1.920 . S
O1052 C1025 1.289 1_455 S
C1053 O1045 1.258 . S
C1053 O1046 1.266 . S
Co1054 O1057 1.970 . S
Co1054 N1071 1.989 . S
Co1054 O1079 1.967 . S
Co1054 O1086 1.920 . S
Co1055 O1058 1.966 . S
Co1055 N1064 2.022 . S
Co1055 N1072 1.993 . S
Co1055 O1080 1.941 . S
C1056 O1057 1.258 . S
C1056 O1058 1.263 . S
O1057 Co1054 1.970 . S
O1057 C1056 1.258 . S
O1058 Co1055 1.966 . S
O1058 C1056 1.263 . S
C1059 O1060 1.235 . S
C1059 O1086 1.289 . S
O1060 C1059 1.235 . S
C1061 C1063 1.400 . S
C1061 N1064 1.351 . S
C1061 C1066 1.501 . S
C1062 C1063 1.387 . S
C1062 N1065 1.341 . S
C1063 C1061 1.400 . S
C1063 C1062 1.387 . S
N1064 Co1055 2.022 . S
N1064 C1061 1.351 . S
N1064 N1065 1.365 . S
N1065 C1062 1.341 . S
N1065 N1064 1.365 . S
N1065 H1085 0.862 . S
C1066 C1061 1.501 . S
C1066 H1067 0.961 . S
C1066 H1068 0.961 . S
C1066 H1069 0.960 . S
H1067 C1066 0.961 . S
H1068 C1066 0.961 . S
H1069 C1066 0.960 . S
C1070 N1071 1.342 . S
C1070 C1074 1.401 . S
C1070 C1075 1.499 . S
N1071 Co1054 1.989 . S
N1071 C1070 1.342 . S
N1071 N1072 1.388 . S
N1072 Co1055 1.993 . S
N1072 N1071 1.388 . S
N1072 C1073 1.346 . S
C1073 N1072 1.346 . S
C1073 C1074 1.396 . S
C1073 C1083 1.510 . S
C1074 C1070 1.401 . S
C1074 C1073 1.396 . S
C1075 C1070 1.499 . S
C1075 H1076 0.959 . S
C1075 H1077 0.960 . S
C1075 H1078 0.961 . S
H1076 C1075 0.959 . S
H1077 C1075 0.960 . S
H1078 C1075 0.961 . S
O1079 Co1054 1.967 . S
O1079 C1087 1.258 . S
O1080 Co1055 1.941 . S
O1080 C1087 1.266 . S
H1081 C1083 0.959 . S
H1082 C1083 0.961 . S
C1083 C1073 1.510 . S
C1083 H1081 0.959 . S
C1083 H1082 0.961 . S
C1083 H1084 0.960 . S
H1084 C1083 0.960 . S
H1085 N1065 0.862 . S
O1086 Co1054 1.920 . S
O1086 C1059 1.289 . S
C1087 O1079 1.258 . S
C1087 O1080 1.266 . S
Co1088 O1091 1.970 . S
Co1088 N1105 1.989 . S
Co1088 O1113 1.967 . S
Co1088 O1120 1.920 . S
Co1089 O1092 1.966 . S
Co1089 N1098 2.022 . S
Co1089 N1106 1.993 . S
Co1089 O1114 1.941 . S
C1090 O1091 1.258 . S
C1090 O1092 1.263 . S
O1091 Co1088 1.970 . S
O1091 C1090 1.258 . S
O1092 Co1089 1.966 . S
O1092 C1090 1.263 . S
C1093 O1094 1.235 . S
C1093 O1120 1.289 1_545 S
O1094 C1093 1.235 . S
C1095 C1097 1.400 . S
C1095 N1098 1.351 . S
C1095 C1100 1.501 . S
C1096 C1097 1.387 . S
C1096 N1099 1.341 . S
C1097 C1095 1.400 . S
C1097 C1096 1.387 . S
N1098 Co1089 2.022 . S
N1098 C1095 1.351 . S
N1098 N1099 1.365 . S
N1099 C1096 1.341 . S
N1099 N1098 1.365 . S
N1099 H1119 0.862 . S
C1100 C1095 1.501 . S
C1100 H1101 0.961 . S
C1100 H1102 0.961 . S
C1100 H1103 0.960 . S
H1101 C1100 0.961 . S
H1102 C1100 0.961 . S
H1103 C1100 0.960 . S
C1104 N1105 1.342 . S
C1104 C1108 1.401 . S
C1104 C1109 1.499 . S
N1105 Co1088 1.989 . S
N1105 C1104 1.342 . S
N1105 N1106 1.388 . S
N1106 Co1089 1.993 . S
N1106 N1105 1.388 . S
N1106 C1107 1.346 . S
C1107 N1106 1.346 . S
C1107 C1108 1.396 . S
C1107 C1117 1.510 . S
C1108 C1104 1.401 . S
C1108 C1107 1.396 . S
C1109 C1104 1.499 . S
C1109 H1110 0.959 . S
C1109 H1111 0.960 1_565 S
C1109 H1112 0.961 . S
H1110 C1109 0.959 . S
H1111 C1109 0.960 1_545 S
H1112 C1109 0.961 . S
O1113 Co1088 1.967 . S
O1113 C1121 1.258 . S
O1114 Co1089 1.941 . S
O1114 C1121 1.266 . S
H1115 C1117 0.959 . S
H1116 C1117 0.961 . S
C1117 C1107 1.510 . S
C1117 H1115 0.959 . S
C1117 H1116 0.961 . S
C1117 H1118 0.960 . S
H1118 C1117 0.960 . S
H1119 N1099 0.862 . S
O1120 Co1088 1.920 . S
O1120 C1093 1.289 1_565 S
C1121 O1113 1.258 . S
C1121 O1114 1.266 . S
Co1122 O1125 1.970 . S
Co1122 N1139 1.989 . S
Co1122 O1147 1.967 . S
Co1122 O1154 1.920 . S
Co1123 O1126 1.966 . S
Co1123 N1132 2.022 . S
Co1123 N1140 1.993 . S
Co1123 O1148 1.941 . S
C1124 O1125 1.258 . S
C1124 O1126 1.263 . S
O1125 Co1122 1.970 . S
O1125 C1124 1.258 . S
O1126 Co1123 1.966 . S
O1126 C1124 1.263 . S
C1127 O1128 1.235 . S
C1127 O1154 1.289 . S
O1128 C1127 1.235 . S
C1129 C1131 1.400 . S
C1129 N1132 1.351 . S
C1129 C1134 1.501 . S
C1130 C1131 1.387 . S
C1130 N1133 1.341 . S
C1131 C1129 1.400 . S
C1131 C1130 1.387 . S
N1132 Co1123 2.022 . S
N1132 C1129 1.351 . S
N1132 N1133 1.365 . S
N1133 C1130 1.341 . S
N1133 N1132 1.365 . S
N1133 H1153 0.862 . S
C1134 C1129 1.501 . S
C1134 H1135 0.961 . S
C1134 H1136 0.961 . S
C1134 H1137 0.960 . S
H1135 C1134 0.961 . S
H1136 C1134 0.961 . S
H1137 C1134 0.960 . S
C1138 N1139 1.342 . S
C1138 C1142 1.401 . S
C1138 C1143 1.499 . S
N1139 Co1122 1.989 . S
N1139 C1138 1.342 . S
N1139 N1140 1.388 . S
N1140 Co1123 1.993 . S
N1140 N1139 1.388 . S
N1140 C1141 1.346 . S
C1141 N1140 1.346 . S
C1141 C1142 1.396 . S
C1141 C1151 1.510 . S
C1142 C1138 1.401 . S
C1142 C1141 1.396 . S
C1143 C1138 1.499 . S
C1143 H1144 0.959 . S
C1143 H1145 0.960 . S
C1143 H1146 0.961 . S
H1144 C1143 0.959 . S
H1145 C1143 0.960 . S
H1146 C1143 0.961 . S
O1147 Co1122 1.967 . S
O1147 C1155 1.258 . S
O1148 Co1123 1.941 . S
O1148 C1155 1.266 . S
H1149 C1151 0.959 . S
H1150 C1151 0.961 . S
C1151 C1141 1.510 . S
C1151 H1149 0.959 . S
C1151 H1150 0.961 . S
C1151 H1152 0.960 . S
H1152 C1151 0.960 . S
H1153 N1133 0.862 . S
O1154 Co1122 1.920 . S
O1154 C1127 1.289 . S
C1155 O1147 1.258 . S
C1155 O1148 1.266 . S
Co1156 O1159 1.970 . S
Co1156 N1173 1.989 . S
Co1156 O1181 1.967 . S
Co1156 O1188 1.920 . S
Co1157 O1160 1.966 . S
Co1157 N1166 2.022 . S
Co1157 N1174 1.993 . S
Co1157 O1182 1.941 . S
C1158 O1159 1.258 . S
C1158 O1160 1.263 . S
O1159 Co1156 1.970 . S
O1159 C1158 1.258 . S
O1160 Co1157 1.966 . S
O1160 C1158 1.263 . S
C1161 O1162 1.235 . S
C1161 O1188 1.289 . S
O1162 C1161 1.235 . S
C1163 C1165 1.400 . S
C1163 N1166 1.351 . S
C1163 C1168 1.501 . S
C1164 C1165 1.387 . S
C1164 N1167 1.341 . S
C1165 C1163 1.400 . S
C1165 C1164 1.387 . S
N1166 Co1157 2.022 . S
N1166 C1163 1.351 . S
N1166 N1167 1.365 . S
N1167 C1164 1.341 . S
N1167 N1166 1.365 . S
N1167 H1187 0.862 . S
C1168 C1163 1.501 . S
C1168 H1169 0.961 . S
C1168 H1170 0.961 . S
C1168 H1171 0.960 . S
H1169 C1168 0.961 . S
H1170 C1168 0.961 . S
H1171 C1168 0.960 . S
C1172 N1173 1.342 . S
C1172 C1176 1.401 . S
C1172 C1177 1.499 . S
N1173 Co1156 1.989 . S
N1173 C1172 1.342 . S
N1173 N1174 1.388 . S
N1174 Co1157 1.993 . S
N1174 N1173 1.388 . S
N1174 C1175 1.346 . S
C1175 N1174 1.346 . S
C1175 C1176 1.396 . S
C1175 C1185 1.510 . S
C1176 C1172 1.401 . S
C1176 C1175 1.396 . S
C1177 C1172 1.499 . S
C1177 H1178 0.959 . S
C1177 H1179 0.960 . S
C1177 H1180 0.961 . S
H1178 C1177 0.959 . S
H1179 C1177 0.960 . S
H1180 C1177 0.961 . S
O1181 Co1156 1.967 . S
O1181 C1189 1.258 . S
O1182 Co1157 1.941 . S
O1182 C1189 1.266 . S
H1183 C1185 0.959 . S
H1184 C1185 0.961 . S
C1185 C1175 1.510 . S
C1185 H1183 0.959 . S
C1185 H1184 0.961 . S
C1185 H1186 0.960 . S
H1186 C1185 0.960 . S
H1187 N1167 0.862 . S
O1188 Co1156 1.920 . S
O1188 C1161 1.289 . S
C1189 O1181 1.258 . S
C1189 O1182 1.266 . S
Co1190 O1193 1.970 . S
Co1190 N1207 1.989 . S
Co1190 O1215 1.967 . S
Co1190 O1222 1.920 . S
Co1191 O1194 1.966 . S
Co1191 N1200 2.022 . S
Co1191 N1208 1.993 . S
Co1191 O1216 1.941 . S
C1192 O1193 1.258 . S
C1192 O1194 1.263 . S
O1193 Co1190 1.970 . S
O1193 C1192 1.258 . S
O1194 Co1191 1.966 . S
O1194 C1192 1.263 . S
C1195 O1196 1.235 . S
C1195 O1222 1.289 . S
O1196 C1195 1.235 . S
C1197 C1199 1.400 . S
C1197 N1200 1.351 . S
C1197 C1202 1.501 . S
C1198 C1199 1.387 . S
C1198 N1201 1.341 . S
C1199 C1197 1.400 . S
C1199 C1198 1.387 . S
N1200 Co1191 2.022 . S
N1200 C1197 1.351 . S
N1200 N1201 1.365 . S
N1201 C1198 1.341 . S
N1201 N1200 1.365 . S
N1201 H1221 0.862 . S
C1202 C1197 1.501 . S
C1202 H1203 0.961 . S
C1202 H1204 0.961 . S
C1202 H1205 0.960 . S
H1203 C1202 0.961 . S
H1204 C1202 0.961 . S
H1205 C1202 0.960 . S
C1206 N1207 1.342 . S
C1206 C1210 1.401 . S
C1206 C1211 1.499 . S
N1207 Co1190 1.989 . S
N1207 C1206 1.342 . S
N1207 N1208 1.388 . S
N1208 Co1191 1.993 . S
N1208 N1207 1.388 . S
N1208 C1209 1.346 . S
C1209 N1208 1.346 . S
C1209 C1210 1.396 . S
C1209 C1219 1.510 . S
C1210 C1206 1.401 . S
C1210 C1209 1.396 . S
C1211 C1206 1.499 . S
C1211 H1212 0.959 . S
C1211 H1213 0.960 . S
C1211 H1214 0.961 . S
H1212 C1211 0.959 . S
H1213 C1211 0.960 . S
H1214 C1211 0.961 . S
O1215 Co1190 1.967 . S
O1215 C1223 1.258 . S
O1216 Co1191 1.941 . S
O1216 C1223 1.266 . S
H1217 C1219 0.959 . S
H1218 C1219 0.961 . S
C1219 C1209 1.510 . S
C1219 H1217 0.959 . S
C1219 H1218 0.961 . S
C1219 H1220 0.960 . S
H1220 C1219 0.960 . S
H1221 N1201 0.862 . S
O1222 Co1190 1.920 . S
O1222 C1195 1.289 . S
C1223 O1215 1.258 . S
C1223 O1216 1.266 . S
C1224 C1225 1.369 . S
C1224 C1226 1.419 . S
C1224 H1228 0.930 . S
C1225 C1224 1.369 . S
C1225 C1234 1.429 . S
C1226 C1224 1.419 . S
C1226 C1227 1.363 . S
C1226 H1229 0.929 . S
C1227 C1226 1.363 . S
C1227 C1233 1.428 . S
H1228 C1224 0.930 . S
H1229 C1226 0.929 . S
S1230 N1231 1.613 . S
S1230 N1232 1.610 . S
N1231 S1230 1.613 . S
N1231 C1234 1.350 . S
N1232 S1230 1.610 . S
N1232 C1233 1.351 . S
C1233 C1227 1.428 . S
C1233 N1232 1.351 . S
C1233 C1234 1.434 . S
C1234 C1225 1.429 . S
C1234 N1231 1.350 . S
C1234 C1233 1.434 . S
C1235 C1236 1.369 . S
C1235 C1237 1.419 . S
C1235 H1239 0.930 . S
C1236 C1235 1.369 . S
C1236 C1245 1.429 . S
C1237 C1235 1.419 . S
C1237 C1238 1.363 . S
C1237 H1240 0.929 . S
C1238 C1237 1.363 . S
C1238 C1244 1.428 . S
H1239 C1235 0.930 . S
H1240 C1237 0.929 . S
S1241 N1242 1.613 . S
S1241 N1243 1.610 . S
N1242 S1241 1.613 . S
N1242 C1245 1.350 . S
N1243 S1241 1.610 . S
N1243 C1244 1.351 . S
C1244 C1238 1.428 . S
C1244 N1243 1.351 . S
C1244 C1245 1.434 . S
C1245 C1236 1.429 . S
C1245 N1242 1.350 . S
C1245 C1244 1.434 . S
C1246 C1247 1.369 . S
C1246 C1248 1.419 . S
C1246 H1250 0.930 . S
C1247 C1246 1.369 . S
C1247 C1256 1.429 . S
C1248 C1246 1.419 . S
C1248 C1249 1.363 . S
C1248 H1251 0.929 . S
C1249 C1248 1.363 . S
C1249 C1255 1.428 . S
H1250 C1246 0.930 . S
H1251 C1248 0.929 . S
S1252 N1253 1.613 . S
S1252 N1254 1.610 . S
N1253 S1252 1.613 . S
N1253 C1256 1.350 . S
N1254 S1252 1.610 . S
N1254 C1255 1.351 . S
C1255 C1249 1.428 . S
C1255 N1254 1.351 . S
C1255 C1256 1.434 . S
C1256 C1247 1.429 . S
C1256 N1253 1.350 . S
C1256 C1255 1.434 . S
C1257 C1258 1.369 . S
C1257 C1259 1.419 . S
C1257 H1261 0.930 . S
C1258 C1257 1.369 . S
C1258 C1267 1.429 . S
C1259 C1257 1.419 . S
C1259 C1260 1.363 . S
C1259 H1262 0.929 . S
C1260 C1259 1.363 . S
C1260 C1266 1.428 . S
H1261 C1257 0.930 . S
H1262 C1259 0.929 . S
S1263 N1264 1.613 . S
S1263 N1265 1.610 . S
N1264 S1263 1.613 . S
N1264 C1267 1.350 . S
N1265 S1263 1.610 . S
N1265 C1266 1.351 . S
C1266 C1260 1.428 . S
C1266 N1265 1.351 . S
C1266 C1267 1.434 . S
C1267 C1258 1.429 . S
C1267 N1264 1.350 . S
C1267 C1266 1.434 . S
C1268 C1269 1.369 . S
C1268 C1270 1.419 . S
C1268 H1272 0.930 . S
C1269 C1268 1.369 . S
C1269 C1278 1.429 . S
C1270 C1268 1.419 . S
C1270 C1271 1.363 . S
C1270 H1273 0.929 . S
C1271 C1270 1.363 . S
C1271 C1277 1.428 . S
H1272 C1268 0.930 . S
H1273 C1270 0.929 . S
S1274 N1275 1.613 . S
S1274 N1276 1.610 . S
N1275 S1274 1.613 . S
N1275 C1278 1.350 . S
N1276 S1274 1.610 . S
N1276 C1277 1.351 . S
C1277 C1271 1.428 . S
C1277 N1276 1.351 . S
C1277 C1278 1.434 . S
C1278 C1269 1.429 . S
C1278 N1275 1.350 . S
C1278 C1277 1.434 . S
C1279 C1280 1.369 . S
C1279 C1281 1.419 . S
C1279 H1283 0.930 . S
C1280 C1279 1.369 . S
C1280 C1289 1.429 . S
C1281 C1279 1.419 . S
C1281 C1282 1.363 . S
C1281 H1284 0.929 . S
C1282 C1281 1.363 . S
C1282 C1288 1.428 . S
H1283 C1279 0.930 . S
H1284 C1281 0.929 . S
S1285 N1286 1.613 . S
S1285 N1287 1.610 . S
N1286 S1285 1.613 . S
N1286 C1289 1.350 . S
N1287 S1285 1.610 . S
N1287 C1288 1.351 . S
C1288 C1282 1.428 . S
C1288 N1287 1.351 . S
C1288 C1289 1.434 . S
C1289 C1280 1.429 . S
C1289 N1286 1.350 . S
C1289 C1288 1.434 . S
C1290 C1291 1.369 . S
C1290 C1292 1.419 . S
C1290 H1294 0.930 . S
C1291 C1290 1.369 . S
C1291 C1300 1.429 . S
C1292 C1290 1.419 . S
C1292 C1293 1.363 . S
C1292 H1295 0.929 . S
C1293 C1292 1.363 . S
C1293 C1299 1.428 . S
H1294 C1290 0.930 . S
H1295 C1292 0.929 . S
S1296 N1297 1.613 . S
S1296 N1298 1.610 . S
N1297 S1296 1.613 . S
N1297 C1300 1.350 . S
N1298 S1296 1.610 . S
N1298 C1299 1.351 . S
C1299 C1293 1.428 . S
C1299 N1298 1.351 . S
C1299 C1300 1.434 . S
C1300 C1291 1.429 . S
C1300 N1297 1.350 . S
C1300 C1299 1.434 . S
C1301 C1302 1.369 . S
C1301 C1303 1.419 . S
C1301 H1305 0.930 . S
C1302 C1301 1.369 . S
C1302 C1311 1.429 . S
C1303 C1301 1.419 . S
C1303 C1304 1.363 . S
C1303 H1306 0.929 . S
C1304 C1303 1.363 . S
C1304 C1310 1.428 . S
H1305 C1301 0.930 . S
H1306 C1303 0.929 . S
S1307 N1308 1.613 . S
S1307 N1309 1.610 . S
N1308 S1307 1.613 . S
N1308 C1311 1.350 . S
N1309 S1307 1.610 . S
N1309 C1310 1.351 . S
C1310 C1304 1.428 . S
C1310 N1309 1.351 . S
C1310 C1311 1.434 . S
C1311 C1302 1.429 . S
C1311 N1308 1.350 . S
C1311 C1310 1.434 . S
C1312 C1313 1.369 . S
C1312 C1314 1.419 . S
C1312 H1316 0.930 . S
C1313 C1312 1.369 . S
C1313 C1322 1.429 . S
C1314 C1312 1.419 . S
C1314 C1315 1.363 . S
C1314 H1317 0.929 . S
C1315 C1314 1.363 . S
C1315 C1321 1.428 . S
H1316 C1312 0.930 . S
H1317 C1314 0.929 . S
S1318 N1319 1.613 . S
S1318 N1320 1.610 . S
N1319 S1318 1.613 . S
N1319 C1322 1.350 . S
N1320 S1318 1.610 . S
N1320 C1321 1.351 . S
C1321 C1315 1.428 . S
C1321 N1320 1.351 . S
C1321 C1322 1.434 . S
C1322 C1313 1.429 . S
C1322 N1319 1.350 . S
C1322 C1321 1.434 . S
C1323 C1324 1.369 . S
C1323 C1325 1.419 . S
C1323 H1327 0.930 . S
C1324 C1323 1.369 . S
C1324 C1333 1.429 . S
C1325 C1323 1.419 . S
C1325 C1326 1.363 . S
C1325 H1328 0.929 . S
C1326 C1325 1.363 . S
C1326 C1332 1.428 . S
H1327 C1323 0.930 . S
H1328 C1325 0.929 . S
S1329 N1330 1.613 . S
S1329 N1331 1.610 . S
N1330 S1329 1.613 . S
N1330 C1333 1.350 . S
N1331 S1329 1.610 . S
N1331 C1332 1.351 . S
C1332 C1326 1.428 . S
C1332 N1331 1.351 . S
C1332 C1333 1.434 . S
C1333 C1324 1.429 . S
C1333 N1330 1.350 . S
C1333 C1332 1.434 . S
C1334 C1335 1.369 . S
C1334 C1336 1.419 . S
C1334 H1338 0.930 . S
C1335 C1334 1.369 . S
C1335 C1344 1.429 . S
C1336 C1334 1.419 . S
C1336 C1337 1.363 . S
C1336 H1339 0.929 . S
C1337 C1336 1.363 . S
C1337 C1343 1.428 . S
H1338 C1334 0.930 . S
H1339 C1336 0.929 . S
S1340 N1341 1.613 . S
S1340 N1342 1.610 . S
N1341 S1340 1.613 . S
N1341 C1344 1.350 . S
N1342 S1340 1.610 . S
N1342 C1343 1.351 . S
C1343 C1337 1.428 . S
C1343 N1342 1.351 . S
C1343 C1344 1.434 . S
C1344 C1335 1.429 . S
C1344 N1341 1.350 . S
C1344 C1343 1.434 . S
C1345 C1346 1.369 . S
C1345 C1347 1.419 . S
C1345 H1349 0.930 . S
C1346 C1345 1.369 . S
C1346 C1355 1.429 . S
C1347 C1345 1.419 . S
C1347 C1348 1.363 . S
C1347 H1350 0.929 . S
C1348 C1347 1.363 . S
C1348 C1354 1.428 . S
H1349 C1345 0.930 . S
H1350 C1347 0.929 . S
S1351 N1352 1.613 . S
S1351 N1353 1.610 . S
N1352 S1351 1.613 . S
N1352 C1355 1.350 . S
N1353 S1351 1.610 . S
N1353 C1354 1.351 . S
C1354 C1348 1.428 . S
C1354 N1353 1.351 . S
C1354 C1355 1.434 . S
C1355 C1346 1.429 . S
C1355 N1352 1.350 . S
C1355 C1354 1.434 . S
C1356 C1357 1.369 . S
C1356 C1358 1.419 . S
C1356 H1360 0.930 . S
C1357 C1356 1.369 . S
C1357 C1366 1.429 1_655 S
C1358 C1356 1.419 . S
C1358 C1359 1.363 1_655 S
C1358 H1361 0.929 . S
C1359 C1358 1.363 1_455 S
C1359 C1365 1.428 . S
H1360 C1356 0.930 . S
H1361 C1358 0.929 . S
S1362 N1363 1.613 . S
S1362 N1364 1.610 . S
N1363 S1362 1.613 . S
N1363 C1366 1.350 . S
N1364 S1362 1.610 . S
N1364 C1365 1.351 . S
C1365 C1359 1.428 . S
C1365 N1364 1.351 . S
C1365 C1366 1.434 . S
C1366 C1357 1.429 1_455 S
C1366 N1363 1.350 . S
C1366 C1365 1.434 . S
C1367 C1368 1.369 . S
C1367 C1369 1.419 . S
C1367 H1371 0.930 . S
C1368 C1367 1.369 . S
C1368 C1377 1.429 . S
C1369 C1367 1.419 . S
C1369 C1370 1.363 . S
C1369 H1372 0.929 . S
C1370 C1369 1.363 . S
C1370 C1376 1.428 . S
H1371 C1367 0.930 . S
H1372 C1369 0.929 . S
S1373 N1374 1.613 . S
S1373 N1375 1.610 . S
N1374 S1373 1.613 . S
N1374 C1377 1.350 . S
N1375 S1373 1.610 . S
N1375 C1376 1.351 . S
C1376 C1370 1.428 . S
C1376 N1375 1.351 . S
C1376 C1377 1.434 . S
C1377 C1368 1.429 . S
C1377 N1374 1.350 . S
C1377 C1376 1.434 . S
C1378 C1379 1.369 . S
C1378 C1380 1.419 1_565 S
C1378 H1382 0.930 . S
C1379 C1378 1.369 . S
C1379 C1388 1.429 . S
C1380 C1378 1.419 1_545 S
C1380 C1381 1.363 . S
C1380 H1383 0.929 . S
C1381 C1380 1.363 . S
C1381 C1387 1.428 . S
H1382 C1378 0.930 . S
H1383 C1380 0.929 . S
S1384 N1385 1.613 . S
S1384 N1386 1.610 1_565 S
N1385 S1384 1.613 . S
N1385 C1388 1.350 . S
N1386 S1384 1.610 1_545 S
N1386 C1387 1.351 . S
C1387 C1381 1.428 . S
C1387 N1386 1.351 . S
C1387 C1388 1.434 1_545 S
C1388 C1379 1.429 . S
C1388 N1385 1.350 . S
C1388 C1387 1.434 1_565 S
C1389 C1390 1.369 1_545 S
C1389 C1391 1.419 . S
C1389 H1393 0.930 . S
C1390 C1389 1.369 1_565 S
C1390 C1399 1.429 . S
C1391 C1389 1.419 . S
C1391 C1392 1.363 . S
C1391 H1394 0.929 . S
C1392 C1391 1.363 . S
C1392 C1398 1.428 1_545 S
H1393 C1389 0.930 . S
H1394 C1391 0.929 . S
S1395 N1396 1.613 . S
S1395 N1397 1.610 . S
N1396 S1395 1.613 . S
N1396 C1399 1.350 . S
N1397 S1395 1.610 . S
N1397 C1398 1.351 . S
C1398 C1392 1.428 1_565 S
C1398 N1397 1.351 . S
C1398 C1399 1.434 . S
C1399 C1390 1.429 . S
C1399 N1396 1.350 . S
C1399 C1398 1.434 . S
C1400 C1401 1.369 1_655 S
C1400 C1402 1.419 . S
C1400 H1404 0.930 . S
C1401 C1400 1.369 1_455 S
C1401 C1410 1.429 . S
C1402 C1400 1.419 . S
C1402 C1403 1.363 . S
C1402 H1405 0.929 . S
C1403 C1402 1.363 . S
C1403 C1409 1.428 1_655 S
H1404 C1400 0.930 . S
H1405 C1402 0.929 . S
S1406 N1407 1.613 . S
S1406 N1408 1.610 . S
N1407 S1406 1.613 . S
N1407 C1410 1.350 . S
N1408 S1406 1.610 . S
N1408 C1409 1.351 . S
C1409 C1403 1.428 1_455 S
C1409 N1408 1.351 . S
C1409 C1410 1.434 . S
C1410 C1401 1.429 . S
C1410 N1407 1.350 . S
C1410 C1409 1.434 . S
C1411 C1412 1.369 . S
C1411 C1413 1.419 . S
C1411 H1415 0.930 . S
C1412 C1411 1.369 . S
C1412 C1421 1.429 . S
C1413 C1411 1.419 . S
C1413 C1414 1.363 . S
C1413 H1416 0.929 . S
C1414 C1413 1.363 . S
C1414 C1420 1.428 . S
H1415 C1411 0.930 . S
H1416 C1413 0.929 . S
S1417 N1418 1.613 . S
S1417 N1419 1.610 . S
N1418 S1417 1.613 . S
N1418 C1421 1.350 . S
N1419 S1417 1.610 . S
N1419 C1420 1.351 . S
C1420 C1414 1.428 . S
C1420 N1419 1.351 . S
C1420 C1421 1.434 . S
C1421 C1412 1.429 . S
C1421 N1418 1.350 . S
C1421 C1420 1.434 . S
C1422 C1423 1.369 . S
C1422 C1424 1.419 . S
C1422 H1426 0.930 . S
C1423 C1422 1.369 . S
C1423 C1432 1.429 . S
C1424 C1422 1.419 . S
C1424 C1425 1.363 . S
C1424 H1427 0.929 . S
C1425 C1424 1.363 . S
C1425 C1431 1.428 . S
H1426 C1422 0.930 . S
H1427 C1424 0.929 . S
S1428 N1429 1.613 . S
S1428 N1430 1.610 . S
N1429 S1428 1.613 . S
N1429 C1432 1.350 . S
N1430 S1428 1.610 . S
N1430 C1431 1.351 . S
C1431 C1425 1.428 . S
C1431 N1430 1.351 . S
C1431 C1432 1.434 . S
C1432 C1423 1.429 . S
C1432 N1429 1.350 . S
C1432 C1431 1.434 . S
C1433 C1434 1.369 . S
C1433 C1435 1.419 . S
C1433 H1437 0.930 . S
C1434 C1433 1.369 . S
C1434 C1443 1.429 . S
C1435 C1433 1.419 . S
C1435 C1436 1.363 . S
C1435 H1438 0.929 . S
C1436 C1435 1.363 . S
C1436 C1442 1.428 . S
H1437 C1433 0.930 . S
H1438 C1435 0.929 . S
S1439 N1440 1.613 . S
S1439 N1441 1.610 . S
N1440 S1439 1.613 . S
N1440 C1443 1.350 . S
N1441 S1439 1.610 . S
N1441 C1442 1.351 . S
C1442 C1436 1.428 . S
C1442 N1441 1.351 . S
C1442 C1443 1.434 . S
C1443 C1434 1.429 . S
C1443 N1440 1.350 . S
C1443 C1442 1.434 . S
C1444 C1445 1.369 . S
C1444 C1446 1.419 . S
C1444 H1448 0.930 . S
C1445 C1444 1.369 . S
C1445 C1454 1.429 . S
C1446 C1444 1.419 . S
C1446 C1447 1.363 . S
C1446 H1449 0.929 . S
C1447 C1446 1.363 . S
C1447 C1453 1.428 . S
H1448 C1444 0.930 . S
H1449 C1446 0.929 . S
S1450 N1451 1.613 . S
S1450 N1452 1.610 . S
N1451 S1450 1.613 . S
N1451 C1454 1.350 . S
N1452 S1450 1.610 . S
N1452 C1453 1.351 . S
C1453 C1447 1.428 . S
C1453 N1452 1.351 . S
C1453 C1454 1.434 . S
C1454 C1445 1.429 . S
C1454 N1451 1.350 . S
C1454 C1453 1.434 . S
C1455 C1456 1.369 . S
C1455 C1457 1.419 . S
C1455 H1459 0.930 . S
C1456 C1455 1.369 . S
C1456 C1465 1.429 . S
C1457 C1455 1.419 . S
C1457 C1458 1.363 . S
C1457 H1460 0.929 . S
C1458 C1457 1.363 . S
C1458 C1464 1.428 . S
H1459 C1455 0.930 . S
H1460 C1457 0.929 . S
S1461 N1462 1.613 . S
S1461 N1463 1.610 . S
N1462 S1461 1.613 . S
N1462 C1465 1.350 . S
N1463 S1461 1.610 . S
N1463 C1464 1.351 . S
C1464 C1458 1.428 . S
C1464 N1463 1.351 . S
C1464 C1465 1.434 . S
C1465 C1456 1.429 . S
C1465 N1462 1.350 . S
C1465 C1464 1.434 . S
C1466 C1467 1.369 . S
C1466 C1468 1.419 . S
C1466 H1470 0.930 . S
C1467 C1466 1.369 . S
C1467 C1476 1.429 . S
C1468 C1466 1.419 . S
C1468 C1469 1.363 . S
C1468 H1471 0.929 . S
C1469 C1468 1.363 . S
C1469 C1475 1.428 . S
H1470 C1466 0.930 . S
H1471 C1468 0.929 . S
S1472 N1473 1.613 1_545 S
S1472 N1474 1.610 . S
N1473 S1472 1.613 1_565 S
N1473 C1476 1.350 . S
N1474 S1472 1.610 . S
N1474 C1475 1.351 1_545 S
C1475 C1469 1.428 . S
C1475 N1474 1.351 1_565 S
C1475 C1476 1.434 . S
C1476 C1467 1.429 . S
C1476 N1473 1.350 . S
C1476 C1475 1.434 . S
C1477 C1478 1.369 . S
C1477 C1479 1.419 . S
C1477 H1481 0.930 . S
C1478 C1477 1.369 . S
C1478 C1487 1.429 . S
C1479 C1477 1.419 . S
C1479 C1480 1.363 . S
C1479 H1482 0.929 . S
C1480 C1479 1.363 . S
C1480 C1486 1.428 . S
H1481 C1477 0.930 . S
H1482 C1479 0.929 . S
S1483 N1484 1.613 . S
S1483 N1485 1.610 . S
N1484 S1483 1.613 . S
N1484 C1487 1.350 . S
N1485 S1483 1.610 . S
N1485 C1486 1.351 . S
C1486 C1480 1.428 . S
C1486 N1485 1.351 . S
C1486 C1487 1.434 . S
C1487 C1478 1.429 . S
C1487 N1484 1.350 . S
C1487 C1486 1.434 . S
C1488 C1489 1.369 . S
C1488 C1490 1.419 . S
C1488 H1492 0.930 . S
C1489 C1488 1.369 . S
C1489 C1498 1.429 . S
C1490 C1488 1.419 . S
C1490 C1491 1.363 . S
C1490 H1493 0.929 . S
C1491 C1490 1.363 . S
C1491 C1497 1.428 . S
H1492 C1488 0.930 . S
H1493 C1490 0.929 . S
S1494 N1495 1.613 . S
S1494 N1496 1.610 . S
N1495 S1494 1.613 . S
N1495 C1498 1.350 . S
N1496 S1494 1.610 . S
N1496 C1497 1.351 . S
C1497 C1491 1.428 . S
C1497 N1496 1.351 . S
C1497 C1498 1.434 . S
C1498 C1489 1.429 . S
C1498 N1495 1.350 . S
C1498 C1497 1.434 . S
C1499 C1500 1.369 . S
C1499 C1501 1.419 . S
C1499 H1503 0.930 . S
C1500 C1499 1.369 . S
C1500 C1509 1.429 . S
C1501 C1499 1.419 . S
C1501 C1502 1.363 . S
C1501 H1504 0.929 . S
C1502 C1501 1.363 . S
C1502 C1508 1.428 . S
H1503 C1499 0.930 . S
H1504 C1501 0.929 . S
S1505 N1506 1.613 . S
S1505 N1507 1.610 . S
N1506 S1505 1.613 . S
N1506 C1509 1.350 . S
N1507 S1505 1.610 . S
N1507 C1508 1.351 . S
C1508 C1502 1.428 . S
C1508 N1507 1.351 . S
C1508 C1509 1.434 . S
C1509 C1500 1.429 . S
C1509 N1506 1.350 . S
C1509 C1508 1.434 . S
C1510 C1511 1.369 . S
C1510 C1512 1.419 . S
C1510 H1514 0.930 . S
C1511 C1510 1.369 . S
C1511 C1520 1.429 . S
C1512 C1510 1.419 . S
C1512 C1513 1.363 . S
C1512 H1515 0.929 1_455 S
C1513 C1512 1.363 . S
C1513 C1519 1.428 . S
H1514 C1510 0.930 . S
H1515 C1512 0.929 1_655 S
S1516 N1517 1.613 . S
S1516 N1518 1.610 . S
N1517 S1516 1.613 . S
N1517 C1520 1.350 . S
N1518 S1516 1.610 . S
N1518 C1519 1.351 . S
C1519 C1513 1.428 . S
C1519 N1518 1.351 . S
C1519 C1520 1.434 . S
C1520 C1511 1.429 . S
C1520 N1517 1.350 . S
C1520 C1519 1.434 . S
C1521 C1522 1.369 . S
C1521 C1523 1.419 . S
C1521 H1525 0.930 . S
C1522 C1521 1.369 . S
C1522 C1531 1.429 . S
C1523 C1521 1.419 . S
C1523 C1524 1.363 . S
C1523 H1526 0.929 . S
C1524 C1523 1.363 . S
C1524 C1530 1.428 . S
H1525 C1521 0.930 . S
H1526 C1523 0.929 . S
S1527 N1528 1.613 . S
S1527 N1529 1.610 . S
N1528 S1527 1.613 . S
N1528 C1531 1.350 . S
N1529 S1527 1.610 . S
N1529 C1530 1.351 . S
C1530 C1524 1.428 . S
C1530 N1529 1.351 . S
C1530 C1531 1.434 . S
C1531 C1522 1.429 . S
C1531 N1528 1.350 . S
C1531 C1530 1.434 . S
C1532 C1533 1.369 . S
C1532 C1534 1.419 . S
C1532 H1536 0.930 . S
C1533 C1532 1.369 . S
C1533 C1542 1.429 . S
C1534 C1532 1.419 . S
C1534 C1535 1.363 . S
C1534 H1537 0.929 . S
C1535 C1534 1.363 . S
C1535 C1541 1.428 . S
H1536 C1532 0.930 . S
H1537 C1534 0.929 . S
S1538 N1539 1.613 . S
S1538 N1540 1.610 . S
N1539 S1538 1.613 . S
N1539 C1542 1.350 . S
N1540 S1538 1.610 . S
N1540 C1541 1.351 . S
C1541 C1535 1.428 . S
C1541 N1540 1.351 . S
C1541 C1542 1.434 . S
C1542 C1533 1.429 . S
C1542 N1539 1.350 . S
C1542 C1541 1.434 . S
C1543 C1544 1.369 . S
C1543 C1545 1.419 . S
C1543 H1547 0.930 . S
C1544 C1543 1.369 . S
C1544 C1553 1.429 . S
C1545 C1543 1.419 . S
C1545 C1546 1.363 . S
C1545 H1548 0.929 . S
C1546 C1545 1.363 . S
C1546 C1552 1.428 . S
H1547 C1543 0.930 . S
H1548 C1545 0.929 . S
S1549 N1550 1.613 . S
S1549 N1551 1.610 . S
N1550 S1549 1.613 . S
N1550 C1553 1.350 . S
N1551 S1549 1.610 . S
N1551 C1552 1.351 . S
C1552 C1546 1.428 . S
C1552 N1551 1.351 . S
C1552 C1553 1.434 . S
C1553 C1544 1.429 . S
C1553 N1550 1.350 . S
C1553 C1552 1.434 . S
C1554 C1555 1.369 . S
C1554 C1556 1.419 1_655 S
C1554 H1558 0.930 . S
C1555 C1554 1.369 . S
C1555 C1564 1.429 . S
C1556 C1554 1.419 1_455 S
C1556 C1557 1.363 . S
C1556 H1559 0.929 . S
C1557 C1556 1.363 . S
C1557 C1563 1.428 . S
H1558 C1554 0.930 . S
H1559 C1556 0.929 . S
S1560 N1561 1.613 . S
S1560 N1562 1.610 . S
N1561 S1560 1.613 . S
N1561 C1564 1.350 . S
N1562 S1560 1.610 . S
N1562 C1563 1.351 1_655 S
C1563 C1557 1.428 . S
C1563 N1562 1.351 1_455 S
C1563 C1564 1.434 1_455 S
C1564 C1555 1.429 . S
C1564 N1561 1.350 . S
C1564 C1563 1.434 1_655 S
C1565 C1566 1.369 . S
C1565 C1567 1.419 . S
C1565 H1569 0.930 . S
C1566 C1565 1.369 . S
C1566 C1575 1.429 . S
C1567 C1565 1.419 . S
C1567 C1568 1.363 . S
C1567 H1570 0.929 . S
C1568 C1567 1.363 . S
C1568 C1574 1.428 . S
H1569 C1565 0.930 . S
H1570 C1567 0.929 . S
S1571 N1572 1.613 . S
S1571 N1573 1.610 . S
N1572 S1571 1.613 . S
N1572 C1575 1.350 . S
N1573 S1571 1.610 . S
N1573 C1574 1.351 . S
C1574 C1568 1.428 . S
C1574 N1573 1.351 . S
C1574 C1575 1.434 . S
C1575 C1566 1.429 . S
C1575 N1572 1.350 . S
C1575 C1574 1.434 . S
C1576 C1577 1.369 . S
C1576 C1578 1.419 1_545 S
C1576 H1580 0.930 . S
C1577 C1576 1.369 . S
C1577 C1586 1.429 . S
C1578 C1576 1.419 1_565 S
C1578 C1579 1.363 . S
C1578 H1581 0.929 . S
C1579 C1578 1.363 . S
C1579 C1585 1.428 . S
H1580 C1576 0.930 . S
H1581 C1578 0.929 . S
S1582 N1583 1.651 . S
S1582 N1584 1.610 . S
N1583 S1582 1.651 . S
N1583 C1586 1.343 1_565 S
N1584 S1582 1.610 . S
N1584 C1585 1.351 . S
C1585 C1579 1.428 . S
C1585 N1584 1.351 . S
C1585 C1586 1.434 1_565 S
C1586 C1577 1.429 . S
C1586 N1583 1.343 1_545 S
C1586 C1585 1.434 1_545 S
C1587 C1588 1.369 . S
C1587 C1589 1.419 1_545 S
C1587 H1591 0.930 . S
C1588 C1587 1.369 . S
C1588 C1597 1.429 . S
C1589 C1587 1.419 1_565 S
C1589 C1590 1.363 . S
C1589 H1592 0.929 . S
C1590 C1589 1.363 . S
C1590 C1596 1.428 . S
H1591 C1587 0.930 . S
H1592 C1589 0.929 . S
S1593 N1594 1.613 1_565 S
S1593 N1595 1.610 . S
N1594 S1593 1.613 1_545 S
N1594 C1597 1.350 . S
N1595 S1593 1.610 . S
N1595 C1596 1.351 . S
C1596 C1590 1.428 . S
C1596 N1595 1.351 . S
C1596 C1597 1.434 1_565 S
C1597 C1588 1.429 . S
C1597 N1594 1.350 . S
C1597 C1596 1.434 1_545 S
C1598 C1599 1.369 . S
C1598 C1600 1.419 1_455 S
C1598 H1602 0.930 . S
C1599 C1598 1.369 . S
C1599 C1608 1.429 . S
C1600 C1598 1.419 1_655 S
C1600 C1601 1.363 . S
C1600 H1603 0.929 . S
C1601 C1600 1.363 . S
C1601 C1607 1.428 . S
H1602 C1598 0.930 . S
H1603 C1600 0.929 . S
S1604 N1605 1.613 . S
S1604 N1606 1.626 . S
N1605 S1604 1.613 . S
N1605 C1608 1.350 . S
N1606 S1604 1.626 . S
N1606 C1607 1.348 1_455 S
C1607 C1601 1.428 . S
C1607 N1606 1.348 1_655 S
C1607 C1608 1.434 1_655 S
C1608 C1599 1.429 . S
C1608 N1605 1.350 . S
C1608 C1607 1.434 1_455 S
C1609 C1610 1.369 . S
C1609 C1611 1.419 . S
C1609 H1613 0.930 . S
C1610 C1609 1.369 . S
C1610 C1619 1.429 . S
C1611 C1609 1.419 . S
C1611 C1612 1.363 . S
C1611 H1614 0.929 . S
C1612 C1611 1.363 . S
C1612 C1618 1.428 . S
H1613 C1609 0.930 . S
H1614 C1611 0.929 . S
S1615 N1616 1.613 . S
S1615 N1617 1.610 . S
N1616 S1615 1.613 . S
N1616 C1619 1.350 . S
N1617 S1615 1.610 . S
N1617 C1618 1.351 . S
C1618 C1612 1.428 . S
C1618 N1617 1.351 . S
C1618 C1619 1.434 . S
C1619 C1610 1.429 . S
C1619 N1616 1.350 . S
C1619 C1618 1.434 . S
C1620 C1621 1.369 . S
C1620 C1622 1.419 . S
C1620 H1624 0.930 . S
C1621 C1620 1.369 . S
C1621 C1630 1.429 . S
C1622 C1620 1.419 . S
C1622 C1623 1.363 . S
C1622 H1625 0.929 . S
C1623 C1622 1.363 . S
C1623 C1629 1.428 . S
H1624 C1620 0.930 . S
H1625 C1622 0.929 . S
S1626 N1627 1.613 . S
S1626 N1628 1.610 . S
N1627 S1626 1.613 . S
N1627 C1630 1.350 . S
N1628 S1626 1.610 . S
N1628 C1629 1.351 . S
C1629 C1623 1.428 . S
C1629 N1628 1.351 . S
C1629 C1630 1.434 . S
C1630 C1621 1.429 . S
C1630 N1627 1.350 . S
C1630 C1629 1.434 . S
C1631 C1632 1.369 . S
C1631 C1633 1.419 . S
C1631 H1635 0.930 . S
C1632 C1631 1.369 . S
C1632 C1641 1.429 . S
C1633 C1631 1.419 . S
C1633 C1634 1.363 . S
C1633 H1636 0.929 . S
C1634 C1633 1.363 . S
C1634 C1640 1.428 . S
H1635 C1631 0.930 . S
H1636 C1633 0.929 . S
S1637 N1638 1.613 . S
S1637 N1639 1.610 . S
N1638 S1637 1.613 . S
N1638 C1641 1.350 . S
N1639 S1637 1.610 . S
N1639 C1640 1.351 . S
C1640 C1634 1.428 . S
C1640 N1639 1.351 . S
C1640 C1641 1.434 . S
C1641 C1632 1.429 . S
C1641 N1638 1.350 . S
C1641 C1640 1.434 . S
C1642 C1643 1.369 . S
C1642 C1644 1.419 . S
C1642 H1646 0.930 . S
C1643 C1642 1.369 . S
C1643 C1652 1.429 . S
C1644 C1642 1.419 . S
C1644 C1645 1.363 . S
C1644 H1647 0.929 . S
C1645 C1644 1.363 . S
C1645 C1651 1.428 . S
H1646 C1642 0.930 . S
H1647 C1644 0.929 . S
S1648 N1649 1.613 . S
S1648 N1650 1.610 . S
N1649 S1648 1.613 . S
N1649 C1652 1.350 . S
N1650 S1648 1.610 . S
N1650 C1651 1.351 . S
C1651 C1645 1.428 . S
C1651 N1650 1.351 . S
C1651 C1652 1.434 . S
C1652 C1643 1.429 . S
C1652 N1649 1.350 . S
C1652 C1651 1.434 . S
C1653 C1654 1.369 . S
C1653 C1655 1.419 . S
C1653 H1657 0.930 . S
C1654 C1653 1.369 . S
C1654 C1663 1.429 . S
C1655 C1653 1.419 . S
C1655 C1656 1.363 . S
C1655 H1658 0.929 . S
C1656 C1655 1.363 . S
C1656 C1662 1.428 . S
H1657 C1653 0.930 . S
H1658 C1655 0.929 . S
S1659 N1660 1.613 . S
S1659 N1661 1.610 . S
N1660 S1659 1.613 . S
N1660 C1663 1.350 . S
N1661 S1659 1.610 . S
N1661 C1662 1.351 . S
C1662 C1656 1.428 . S
C1662 N1661 1.351 . S
C1662 C1663 1.434 . S
C1663 C1654 1.429 . S
C1663 N1660 1.350 . S
C1663 C1662 1.434 . S
C1664 C1665 1.369 . S
C1664 C1666 1.419 . S
C1664 H1668 0.930 . S
C1665 C1664 1.369 . S
C1665 C1674 1.429 . S
C1666 C1664 1.419 . S
C1666 C1667 1.363 . S
C1666 H1669 0.929 . S
C1667 C1666 1.363 . S
C1667 C1673 1.428 . S
H1668 C1664 0.930 . S
H1669 C1666 0.929 . S
S1670 N1671 1.613 . S
S1670 N1672 1.610 . S
N1671 S1670 1.613 . S
N1671 C1674 1.350 . S
N1672 S1670 1.610 . S
N1672 C1673 1.351 . S
C1673 C1667 1.428 . S
C1673 N1672 1.351 . S
C1673 C1674 1.434 . S
C1674 C1665 1.429 . S
C1674 N1671 1.350 . S
C1674 C1673 1.434 . S
C1675 C1676 1.369 . S
C1675 C1677 1.419 . S
C1675 H1679 0.930 . S
C1676 C1675 1.369 . S
C1676 C1685 1.429 . S
C1677 C1675 1.419 . S
C1677 C1678 1.363 . S
C1677 H1680 0.929 . S
C1678 C1677 1.363 . S
C1678 C1684 1.428 . S
H1679 C1675 0.930 . S
H1680 C1677 0.929 . S
S1681 N1682 1.613 . S
S1681 N1683 1.610 . S
N1682 S1681 1.613 . S
N1682 C1685 1.350 . S
N1683 S1681 1.610 . S
N1683 C1684 1.351 . S
C1684 C1678 1.428 . S
C1684 N1683 1.351 . S
C1684 C1685 1.434 . S
C1685 C1676 1.429 . S
C1685 N1682 1.350 . S
C1685 C1684 1.434 . S
C1686 C1687 1.369 . S
C1686 C1688 1.419 . S
C1686 H1690 0.930 . S
C1687 C1686 1.369 . S
C1687 C1696 1.429 . S
C1688 C1686 1.419 . S
C1688 C1689 1.363 . S
C1688 H1691 0.929 . S
C1689 C1688 1.363 . S
C1689 C1695 1.428 . S
H1690 C1686 0.930 . S
H1691 C1688 0.929 . S
S1692 N1693 1.613 . S
S1692 N1694 1.610 . S
N1693 S1692 1.613 . S
N1693 C1696 1.350 . S
N1694 S1692 1.610 . S
N1694 C1695 1.351 . S
C1695 C1689 1.428 . S
C1695 N1694 1.351 . S
C1695 C1696 1.434 . S
C1696 C1687 1.429 . S
C1696 N1693 1.350 . S
C1696 C1695 1.434 . S
C1697 C1698 1.369 . S
C1697 C1699 1.419 . S
C1697 H1701 0.930 . S
C1698 C1697 1.369 . S
C1698 C1707 1.429 . S
C1699 C1697 1.419 . S
C1699 C1700 1.363 . S
C1699 H1702 0.929 . S
C1700 C1699 1.363 . S
C1700 C1706 1.428 . S
H1701 C1697 0.930 . S
H1702 C1699 0.929 . S
S1703 N1704 1.613 . S
S1703 N1705 1.610 . S
N1704 S1703 1.613 . S
N1704 C1707 1.350 . S
N1705 S1703 1.610 . S
N1705 C1706 1.351 . S
C1706 C1700 1.428 . S
C1706 N1705 1.351 . S
C1706 C1707 1.434 . S
C1707 C1698 1.429 . S
C1707 N1704 1.350 . S
C1707 C1706 1.434 . S
C1708 C1709 1.369 . S
C1708 C1710 1.419 . S
C1708 H1712 0.930 . S
C1709 C1708 1.369 . S
C1709 C1718 1.429 . S
C1710 C1708 1.419 . S
C1710 C1711 1.363 . S
C1710 H1713 0.929 . S
C1711 C1710 1.363 . S
C1711 C1717 1.428 . S
H1712 C1708 0.930 . S
H1713 C1710 0.929 . S
S1714 N1715 1.613 . S
S1714 N1716 1.610 . S
N1715 S1714 1.613 . S
N1715 C1718 1.350 . S
N1716 S1714 1.610 . S
N1716 C1717 1.351 . S
C1717 C1711 1.428 . S
C1717 N1716 1.351 . S
C1717 C1718 1.434 . S
C1718 C1709 1.429 . S
C1718 N1715 1.350 . S
C1718 C1717 1.434 . S
C1719 C1720 1.369 . S
C1719 C1721 1.419 . S
C1719 H1723 0.930 . S
C1720 C1719 1.369 . S
C1720 C1729 1.429 . S
C1721 C1719 1.419 . S
C1721 C1722 1.363 . S
C1721 H1724 0.929 . S
C1722 C1721 1.363 . S
C1722 C1728 1.428 . S
H1723 C1719 0.930 . S
H1724 C1721 0.929 . S
S1725 N1726 1.613 . S
S1725 N1727 1.610 . S
N1726 S1725 1.613 . S
N1726 C1729 1.350 . S
N1727 S1725 1.610 . S
N1727 C1728 1.351 . S
C1728 C1722 1.428 . S
C1728 N1727 1.351 . S
C1728 C1729 1.434 . S
C1729 C1720 1.429 . S
C1729 N1726 1.350 . S
C1729 C1728 1.434 . S
C1730 C1731 1.369 . S
C1730 C1732 1.419 . S
C1730 H1734 0.930 . S
C1731 C1730 1.369 . S
C1731 C1740 1.429 . S
C1732 C1730 1.419 . S
C1732 C1733 1.363 . S
C1732 H1735 0.929 . S
C1733 C1732 1.363 . S
C1733 C1739 1.428 . S
H1734 C1730 0.930 . S
H1735 C1732 0.929 . S
S1736 N1737 1.613 . S
S1736 N1738 1.610 . S
N1737 S1736 1.613 . S
N1737 C1740 1.350 . S
N1738 S1736 1.610 . S
N1738 C1739 1.351 . S
C1739 C1733 1.428 . S
C1739 N1738 1.351 . S
C1739 C1740 1.434 . S
C1740 C1731 1.429 . S
C1740 N1737 1.350 . S
C1740 C1739 1.434 . S
C1741 C1742 1.369 . S
C1741 C1743 1.419 . S
C1741 H1745 0.930 . S
C1742 C1741 1.369 . S
C1742 C1751 1.429 . S
C1743 C1741 1.419 . S
C1743 C1744 1.363 . S
C1743 H1746 0.929 . S
C1744 C1743 1.363 . S
C1744 C1750 1.428 . S
H1745 C1741 0.930 . S
H1746 C1743 0.929 . S
S1747 N1748 1.613 . S
S1747 N1749 1.610 . S
N1748 S1747 1.613 . S
N1748 C1751 1.350 . S
N1749 S1747 1.610 . S
N1749 C1750 1.351 . S
C1750 C1744 1.428 . S
C1750 N1749 1.351 . S
C1750 C1751 1.434 . S
C1751 C1742 1.429 . S
C1751 N1748 1.350 . S
C1751 C1750 1.434 . S
C1752 C1753 1.369 . S
C1752 C1754 1.419 1_455 S
C1752 H1756 0.930 . S
C1753 C1752 1.369 . S
C1753 C1762 1.429 . S
C1754 C1752 1.419 1_655 S
C1754 C1755 1.363 . S
C1754 H1757 0.929 . S
C1755 C1754 1.363 . S
C1755 C1761 1.428 . S
H1756 C1752 0.930 . S
H1757 C1754 0.929 . S
S1758 N1759 1.613 1_655 S
S1758 N1760 1.610 . S
N1759 S1758 1.613 1_455 S
N1759 C1762 1.350 . S
N1760 S1758 1.610 . S
N1760 C1761 1.351 . S
C1761 C1755 1.428 . S
C1761 N1760 1.351 . S
C1761 C1762 1.434 1_655 S
C1762 C1753 1.429 . S
C1762 N1759 1.350 . S
C1762 C1761 1.434 1_455 S
C1763 C1764 1.369 . S
C1763 C1765 1.419 . S
C1763 H1767 0.930 . S
C1764 C1763 1.369 . S
C1764 C1773 1.429 . S
C1765 C1763 1.419 . S
C1765 C1766 1.363 . S
C1765 H1768 0.929 . S
C1766 C1765 1.363 . S
C1766 C1772 1.428 . S
H1767 C1763 0.930 . S
H1768 C1765 0.929 . S
S1769 N1770 1.613 . S
S1769 N1771 1.610 . S
N1770 S1769 1.613 . S
N1770 C1773 1.350 . S
N1771 S1769 1.610 . S
N1771 C1772 1.351 . S
C1772 C1766 1.428 . S
C1772 N1771 1.351 . S
C1772 C1773 1.434 . S
C1773 C1764 1.429 . S
C1773 N1770 1.350 . S
C1773 C1772 1.434 . S
C1774 C1775 1.369 . S
C1774 C1776 1.419 1_545 S
C1774 H1778 0.930 . S
C1775 C1774 1.369 . S
C1775 C1784 1.429 . S
C1776 C1774 1.419 1_565 S
C1776 C1777 1.363 . S
C1776 H1779 0.929 . S
C1777 C1776 1.363 . S
C1777 C1783 1.428 . S
H1778 C1774 0.930 . S
H1779 C1776 0.929 . S
S1780 N1781 1.613 . S
S1780 N1782 1.610 1_545 S
N1781 S1780 1.613 . S
N1781 C1784 1.350 . S
N1782 S1780 1.610 1_565 S
N1782 C1783 1.351 . S
C1783 C1777 1.428 . S
C1783 N1782 1.351 . S
C1783 C1784 1.434 1_565 S
C1784 C1775 1.429 . S
C1784 N1781 1.350 . S
C1784 C1783 1.434 1_545 S
C1785 C1786 1.369 1_556 S
C1785 C1787 1.419 . S
C1785 H1789 0.930 . S
C1786 C1785 1.369 1_554 S
C1786 C1795 1.429 1_565 S
C1787 C1785 1.419 . S
C1787 C1788 1.363 1_565 S
C1787 H1790 0.929 . S
C1788 C1787 1.363 1_545 S
C1788 C1794 1.428 1_556 S
H1789 C1785 0.930 . S
H1790 C1787 0.929 . S
S1791 N1792 1.613 . S
S1791 N1793 1.610 . S
N1792 S1791 1.613 . S
N1792 C1795 1.350 . S
N1793 S1791 1.610 . S
N1793 C1794 1.351 . S
C1794 C1788 1.428 1_554 S
C1794 N1793 1.351 . S
C1794 C1795 1.434 . S
C1795 C1786 1.429 1_545 S
C1795 N1792 1.350 . S
C1795 C1794 1.434 . S
C1796 C1797 1.369 1_455 S
C1796 C1798 1.419 . S
C1796 H1800 0.930 . S
C1797 C1796 1.369 1_655 S
C1797 C1806 1.429 1_556 S
C1798 C1796 1.419 . S
C1798 C1799 1.363 1_556 S
C1798 H1801 0.929 . S
C1799 C1798 1.363 1_554 S
C1799 C1805 1.428 1_455 S
H1800 C1796 0.930 . S
H1801 C1798 0.929 . S
S1802 N1803 1.613 . S
S1802 N1804 1.610 . S
N1803 S1802 1.613 . S
N1803 C1806 1.350 . S
N1804 S1802 1.610 . S
N1804 C1805 1.351 . S
C1805 C1799 1.428 1_655 S
C1805 N1804 1.351 . S
C1805 C1806 1.434 . S
C1806 C1797 1.429 1_554 S
C1806 N1803 1.350 . S
C1806 C1805 1.434 . S
C1807 C1808 1.369 . S
C1807 C1809 1.419 . S
C1807 H1811 0.930 . S
C1808 C1807 1.369 . S
C1808 C1817 1.429 1_554 S
C1809 C1807 1.419 . S
C1809 C1810 1.363 1_554 S
C1809 H1812 0.929 . S
C1810 C1809 1.363 1_556 S
C1810 C1816 1.428 . S
H1811 C1807 0.930 . S
H1812 C1809 0.929 . S
S1813 N1814 1.613 . S
S1813 N1815 1.610 . S
N1814 S1813 1.613 . S
N1814 C1817 1.350 . S
N1815 S1813 1.610 . S
N1815 C1816 1.351 . S
C1816 C1810 1.428 . S
C1816 N1815 1.351 . S
C1816 C1817 1.434 . S
C1817 C1808 1.429 1_556 S
C1817 N1814 1.350 . S
C1817 C1816 1.434 . S
C1818 C1819 1.369 . S
C1818 C1820 1.429 1_545 S
C1818 H1822 0.930 . S
C1819 C1818 1.369 . S
C1819 C1828 1.429 1_554 S
C1820 C1818 1.429 1_565 S
C1820 C1821 1.344 1_554 S
C1820 H1823 0.940 . S
C1821 C1820 1.344 1_556 S
C1821 C1827 1.428 1_565 S
H1822 C1818 0.930 . S
H1823 C1820 0.940 . S
S1824 N1825 1.613 . S
S1824 N1826 1.610 1_545 S
N1825 S1824 1.613 . S
N1825 C1828 1.350 . S
N1826 S1824 1.610 1_565 S
N1826 C1827 1.351 1_565 S
C1827 C1821 1.428 1_545 S
C1827 N1826 1.351 1_545 S
C1827 C1828 1.434 . S
C1828 C1819 1.429 1_556 S
C1828 N1825 1.350 . S
C1828 C1827 1.434 . S
C1829 C1830 1.369 . S
C1829 C1831 1.419 1_655 S
C1829 H1833 0.930 . S
C1830 C1829 1.369 . S
C1830 C1839 1.429 1_554 S
C1831 C1829 1.419 1_455 S
C1831 C1832 1.363 1_554 S
C1831 H1834 0.929 . S
C1832 C1831 1.363 1_556 S
C1832 C1838 1.428 1_455 S
H1833 C1829 0.930 . S
H1834 C1831 0.929 . S
S1835 N1836 1.613 . S
S1835 N1837 1.610 1_655 S
N1836 S1835 1.613 . S
N1836 C1839 1.350 . S
N1837 S1835 1.610 1_455 S
N1837 C1838 1.351 1_455 S
C1838 C1832 1.428 1_655 S
C1838 N1837 1.351 1_655 S
C1838 C1839 1.434 . S
C1839 C1830 1.429 1_556 S
C1839 N1836 1.350 . S
C1839 C1838 1.434 . S
C1840 C1841 1.369 . S
C1840 C1842 1.419 . S
C1840 H1844 0.930 . S
C1841 C1840 1.369 . S
C1841 C1850 1.429 . S
C1842 C1840 1.419 . S
C1842 C1843 1.363 1_556 S
C1842 H1845 0.929 . S
C1843 C1842 1.363 1_554 S
C1843 C1849 1.428 . S
H1844 C1840 0.930 . S
H1845 C1842 0.929 . S
S1846 N1847 1.613 1_554 S
S1846 N1848 1.610 . S
N1847 S1846 1.613 1_556 S
N1847 C1850 1.350 . S
N1848 S1846 1.610 . S
N1848 C1849 1.351 . S
C1849 C1843 1.428 . S
C1849 N1848 1.351 . S
C1849 C1850 1.434 1_554 S
C1850 C1841 1.429 . S
C1850 N1847 1.350 . S
C1850 C1849 1.434 1_556 S
C1851 C1852 1.369 . S
C1851 C1853 1.419 1_655 S
C1851 H1855 0.930 . S
C1852 C1851 1.369 . S
C1852 C1861 1.429 1_655 S
C1853 C1851 1.419 1_455 S
C1853 C1854 1.363 . S
C1853 H1856 0.929 . S
C1854 C1853 1.363 . S
C1854 C1860 1.428 . S
H1855 C1851 0.930 . S
H1856 C1853 0.929 . S
S1857 N1858 1.613 . S
S1857 N1859 1.610 . S
N1858 S1857 1.613 . S
N1858 C1861 1.350 . S
N1859 S1857 1.610 . S
N1859 C1860 1.351 . S
C1860 C1854 1.428 . S
C1860 N1859 1.351 . S
C1860 C1861 1.434 . S
C1861 C1852 1.429 1_455 S
C1861 N1858 1.350 . S
C1861 C1860 1.434 . S
C1862 C1863 1.369 . S
C1862 C1864 1.419 . S
C1862 H1866 0.930 . S
C1863 C1862 1.369 . S
C1863 C1872 1.429 . S
C1864 C1862 1.419 . S
C1864 C1865 1.363 . S
C1864 H1867 0.929 . S
C1865 C1864 1.363 . S
C1865 C1871 1.428 . S
H1866 C1862 0.930 . S
H1867 C1864 0.929 . S
S1868 N1869 1.613 . S
S1868 N1870 1.610 . S
N1869 S1868 1.613 . S
N1869 C1872 1.350 . S
N1870 S1868 1.610 . S
N1870 C1871 1.351 . S
C1871 C1865 1.428 . S
C1871 N1870 1.351 . S
C1871 C1872 1.434 . S
C1872 C1863 1.429 . S
C1872 N1869 1.350 . S
C1872 C1871 1.434 . S
C1873 C1874 1.369 . S
C1873 C1875 1.419 1_545 S
C1873 H1877 0.930 . S
C1874 C1873 1.369 . S
C1874 C1883 1.406 1_545 S
C1875 C1873 1.419 1_565 S
C1875 C1876 1.363 . S
C1875 H1878 0.929 . S
C1876 C1875 1.363 . S
C1876 C1882 1.428 . S
H1877 C1873 0.930 . S
H1878 C1875 0.929 . S
S1879 N1880 1.613 1_565 S
S1879 N1881 1.610 . S
N1880 S1879 1.613 1_545 S
N1880 C1883 1.355 1_545 S
N1881 S1879 1.610 . S
N1881 C1882 1.351 . S
C1882 C1876 1.428 . S
C1882 N1881 1.351 . S
C1882 C1883 1.455 . S
C1883 C1874 1.406 1_565 S
C1883 N1880 1.355 1_565 S
C1883 C1882 1.455 . S
C1884 C1885 1.369 1_565 S
C1884 C1886 1.419 . S
C1884 H1888 0.930 . S
C1885 C1884 1.369 1_545 S
C1885 C1894 1.429 1_554 S
C1886 C1884 1.419 . S
C1886 C1887 1.363 1_554 S
C1886 H1889 0.929 . S
C1887 C1886 1.363 1_556 S
C1887 C1893 1.428 . S
H1888 C1884 0.930 . S
H1889 C1886 0.929 . S
S1890 N1891 1.613 . S
S1890 N1892 1.610 1_545 S
N1891 S1890 1.613 . S
N1891 C1894 1.350 . S
N1892 S1890 1.610 1_565 S
N1892 C1893 1.351 . S
C1893 C1887 1.428 . S
C1893 N1892 1.351 . S
C1893 C1894 1.434 1_565 S
C1894 C1885 1.429 1_556 S
C1894 N1891 1.350 . S
C1894 C1893 1.434 1_545 S
C1895 C1896 1.369 1_455 S
C1895 C1897 1.419 . S
C1895 H1899 0.930 . S
C1896 C1895 1.369 1_655 S
C1896 C1905 1.429 1_554 S
C1897 C1895 1.419 . S
C1897 C1898 1.363 1_554 S
C1897 H1900 0.929 . S
C1898 C1897 1.363 1_556 S
C1898 C1904 1.428 . S
H1899 C1895 0.930 . S
H1900 C1897 0.929 . S
S1901 N1902 1.613 . S
S1901 N1903 1.610 1_655 S
N1902 S1901 1.613 . S
N1902 C1905 1.350 . S
N1903 S1901 1.610 1_455 S
N1903 C1904 1.351 . S
C1904 C1898 1.428 . S
C1904 N1903 1.351 . S
C1904 C1905 1.434 1_455 S
C1905 C1896 1.429 1_556 S
C1905 N1902 1.350 . S
C1905 C1904 1.434 1_655 S
C1906 C1907 1.369 . S
C1906 C1908 1.419 . S
C1906 H1910 0.930 . S
C1907 C1906 1.369 . S
C1907 C1916 1.429 1_554 S
C1908 C1906 1.419 . S
C1908 C1909 1.363 1_554 S
C1908 H1911 0.929 . S
C1909 C1908 1.363 1_556 S
C1909 C1915 1.428 . S
H1910 C1906 0.930 . S
H1911 C1908 0.929 . S
S1912 N1913 1.613 . S
S1912 N1914 1.610 . S
N1913 S1912 1.613 . S
N1913 C1916 1.350 . S
N1914 S1912 1.610 . S
N1914 C1915 1.351 . S
C1915 C1909 1.428 . S
C1915 N1914 1.351 . S
C1915 C1916 1.434 . S
C1916 C1907 1.429 1_556 S
C1916 N1913 1.350 . S
C1916 C1915 1.434 . S
C1917 C1918 1.369 . S
C1917 C1919 1.419 1_655 S
C1917 H1921 0.930 . S
C1918 C1917 1.369 . S
C1918 C1927 1.429 . S
C1919 C1917 1.419 1_455 S
C1919 C1920 1.363 . S
C1919 H1922 0.929 . S
C1920 C1919 1.363 . S
C1920 C1926 1.428 1_455 S
H1921 C1917 0.930 . S
H1922 C1919 0.929 . S
S1923 N1924 1.613 . S
S1923 N1925 1.610 . S
N1924 S1923 1.613 . S
N1924 C1927 1.350 . S
N1925 S1923 1.610 . S
N1925 C1926 1.351 . S
C1926 C1920 1.428 1_655 S
C1926 N1925 1.351 . S
C1926 C1927 1.434 . S
C1927 C1918 1.429 . S
C1927 N1924 1.350 . S
C1927 C1926 1.434 . S
C1928 C1929 1.369 . S
C1928 C1930 1.419 . S
C1928 H1932 0.930 . S
C1929 C1928 1.369 . S
C1929 C1938 1.429 . S
C1930 C1928 1.419 . S
C1930 C1931 1.363 . S
C1930 H1933 0.929 . S
C1931 C1930 1.363 . S
C1931 C1937 1.428 . S
H1932 C1928 0.930 . S
H1933 C1930 0.929 . S
S1934 N1935 1.613 . S
S1934 N1936 1.610 . S
N1935 S1934 1.613 . S
N1935 C1938 1.350 . S
N1936 S1934 1.610 . S
N1936 C1937 1.351 . S
C1937 C1931 1.428 . S
C1937 N1936 1.351 . S
C1937 C1938 1.434 . S
C1938 C1929 1.429 . S
C1938 N1935 1.350 . S
C1938 C1937 1.434 . S
C1939 C1940 1.369 1_545 S
C1939 C1941 1.419 . S
C1939 H1943 0.930 . S
C1940 C1939 1.369 1_565 S
C1940 C1949 1.429 . S
C1941 C1939 1.419 . S
C1941 C1942 1.363 . S
C1941 H1944 0.929 . S
C1942 C1941 1.363 . S
C1942 C1948 1.428 . S
H1943 C1939 0.930 . S
H1944 C1941 0.929 . S
S1945 N1946 1.613 . S
S1945 N1947 1.610 1_565 S
N1946 S1945 1.613 . S
N1946 C1949 1.350 . S
N1947 S1945 1.610 1_545 S
N1947 C1948 1.351 . S
C1948 C1942 1.428 . S
C1948 N1947 1.351 . S
C1948 C1949 1.434 1_545 S
C1949 C1940 1.429 . S
C1949 N1946 1.350 . S
C1949 C1948 1.434 1_565 S
C1950 C1951 1.369 . S
C1950 C1952 1.419 . S
C1950 H1954 0.930 . S
C1951 C1950 1.369 . S
C1951 C1960 1.429 . S
C1952 C1950 1.419 . S
C1952 C1953 1.363 . S
C1952 H1955 0.929 . S
C1953 C1952 1.363 . S
C1953 C1959 1.428 . S
H1954 C1950 0.930 . S
H1955 C1952 0.929 . S
S1956 N1957 1.613 . S
S1956 N1958 1.610 . S
N1957 S1956 1.613 . S
N1957 C1960 1.350 . S
N1958 S1956 1.610 . S
N1958 C1959 1.351 . S
C1959 C1953 1.428 . S
C1959 N1958 1.351 . S
C1959 C1960 1.434 . S
C1960 C1951 1.429 . S
C1960 N1957 1.350 . S
C1960 C1959 1.434 . S
C1961 C1962 1.369 . S
C1961 C1963 1.419 . S
C1961 H1965 0.930 . S
C1962 C1961 1.369 . S
C1962 C1971 1.429 . S
C1963 C1961 1.419 . S
C1963 C1964 1.363 . S
C1963 H1966 0.929 . S
C1964 C1963 1.363 . S
C1964 C1970 1.428 . S
H1965 C1961 0.930 . S
H1966 C1963 0.929 . S
S1967 N1968 1.613 . S
S1967 N1969 1.610 . S
N1968 S1967 1.613 . S
N1968 C1971 1.350 . S
N1969 S1967 1.610 . S
N1969 C1970 1.351 . S
C1970 C1964 1.428 . S
C1970 N1969 1.351 . S
C1970 C1971 1.434 . S
C1971 C1962 1.429 . S
C1971 N1968 1.350 . S
C1971 C1970 1.434 . S
C1972 C1973 1.369 . S
C1972 C1974 1.419 . S
C1972 H1976 0.930 . S
C1973 C1972 1.369 . S
C1973 C1982 1.429 . S
C1974 C1972 1.419 . S
C1974 C1975 1.363 . S
C1974 H1977 0.929 . S
C1975 C1974 1.363 . S
C1975 C1981 1.428 . S
H1976 C1972 0.930 . S
H1977 C1974 0.929 . S
S1978 N1979 1.613 . S
S1978 N1980 1.610 . S
N1979 S1978 1.613 . S
N1979 C1982 1.350 . S
N1980 S1978 1.610 . S
N1980 C1981 1.351 . S
C1981 C1975 1.428 . S
C1981 N1980 1.351 . S
C1981 C1982 1.434 . S
C1982 C1973 1.429 . S
C1982 N1979 1.350 . S
C1982 C1981 1.434 . S
C1983 C1984 1.369 . S
C1983 C1985 1.419 . S
C1983 H1987 0.930 . S
C1984 C1983 1.369 . S
C1984 C1993 1.429 . S
C1985 C1983 1.419 . S
C1985 C1986 1.363 . S
C1985 H1988 0.929 . S
C1986 C1985 1.363 . S
C1986 C1992 1.428 . S
H1987 C1983 0.930 . S
H1988 C1985 0.929 . S
S1989 N1990 1.613 . S
S1989 N1991 1.610 . S
N1990 S1989 1.613 . S
N1990 C1993 1.350 . S
N1991 S1989 1.610 . S
N1991 C1992 1.351 . S
C1992 C1986 1.428 . S
C1992 N1991 1.351 . S
C1992 C1993 1.434 . S
C1993 C1984 1.429 . S
C1993 N1990 1.350 . S
C1993 C1992 1.434 . S
C1994 C1995 1.369 . S
C1994 C1996 1.419 . S
C1994 H1998 0.930 . S
C1995 C1994 1.369 . S
C1995 C2004 1.429 . S
C1996 C1994 1.419 . S
C1996 C1997 1.363 . S
C1996 H1999 0.929 . S
C1997 C1996 1.363 . S
C1997 C2003 1.428 . S
H1998 C1994 0.930 . S
H1999 C1996 0.929 . S
S2000 N2001 1.613 . S
S2000 N2002 1.610 . S
N2001 S2000 1.613 . S
N2001 C2004 1.350 . S
N2002 S2000 1.610 . S
N2002 C2003 1.351 . S
C2003 C1997 1.428 . S
C2003 N2002 1.351 . S
C2003 C2004 1.434 . S
C2004 C1995 1.429 . S
C2004 N2001 1.350 . S
C2004 C2003 1.434 . S
C2005 C2006 1.369 . S
C2005 C2007 1.419 . S
C2005 H2009 0.930 . S
C2006 C2005 1.369 . S
C2006 C2015 1.429 . S
C2007 C2005 1.419 . S
C2007 C2008 1.363 . S
C2007 H2010 0.929 . S
C2008 C2007 1.363 . S
C2008 C2014 1.428 . S
H2009 C2005 0.930 . S
H2010 C2007 0.929 . S
S2011 N2012 1.613 . S
S2011 N2013 1.610 . S
N2012 S2011 1.613 . S
N2012 C2015 1.350 . S
N2013 S2011 1.610 . S
N2013 C2014 1.351 . S
C2014 C2008 1.428 . S
C2014 N2013 1.351 . S
C2014 C2015 1.434 . S
C2015 C2006 1.429 . S
C2015 N2012 1.350 . S
C2015 C2014 1.434 . S
C2016 C2017 1.369 . S
C2016 C2018 1.419 . S
C2016 H2020 0.930 . S
C2017 C2016 1.369 . S
C2017 C2026 1.429 . S
C2018 C2016 1.419 . S
C2018 C2019 1.363 . S
C2018 H2021 0.929 . S
C2019 C2018 1.363 . S
C2019 C2025 1.428 . S
H2020 C2016 0.930 . S
H2021 C2018 0.929 . S
S2022 N2023 1.613 . S
S2022 N2024 1.610 . S
N2023 S2022 1.613 . S
N2023 C2026 1.350 . S
N2024 S2022 1.610 . S
N2024 C2025 1.351 . S
C2025 C2019 1.428 . S
C2025 N2024 1.351 . S
C2025 C2026 1.434 . S
C2026 C2017 1.429 . S
C2026 N2023 1.350 . S
C2026 C2025 1.434 . S
C2027 C2028 1.369 . S
C2027 C2029 1.419 . S
C2027 H2031 0.930 . S
C2028 C2027 1.369 . S
C2028 C2037 1.429 . S
C2029 C2027 1.419 . S
C2029 C2030 1.363 . S
C2029 H2032 0.929 . S
C2030 C2029 1.363 . S
C2030 C2036 1.428 . S
H2031 C2027 0.930 . S
H2032 C2029 0.929 . S
S2033 N2034 1.613 . S
S2033 N2035 1.610 . S
N2034 S2033 1.613 . S
N2034 C2037 1.350 . S
N2035 S2033 1.610 . S
N2035 C2036 1.351 . S
C2036 C2030 1.428 . S
C2036 N2035 1.351 . S
C2036 C2037 1.434 . S
C2037 C2028 1.429 . S
C2037 N2034 1.350 . S
C2037 C2036 1.434 . S
C2038 C2039 1.369 . S
C2038 C2040 1.419 . S
C2038 H2042 0.930 . S
C2039 C2038 1.369 . S
C2039 C2048 1.429 . S
C2040 C2038 1.419 . S
C2040 C2041 1.363 . S
C2040 H2043 0.929 . S
C2041 C2040 1.363 . S
C2041 C2047 1.428 . S
H2042 C2038 0.930 . S
H2043 C2040 0.929 . S
S2044 N2045 1.613 . S
S2044 N2046 1.610 . S
N2045 S2044 1.613 . S
N2045 C2048 1.350 . S
N2046 S2044 1.610 . S
N2046 C2047 1.351 . S
C2047 C2041 1.428 . S
C2047 N2046 1.351 . S
C2047 C2048 1.434 . S
C2048 C2039 1.429 . S
C2048 N2045 1.350 . S
C2048 C2047 1.434 . S
C2049 C2050 1.369 . S
C2049 C2051 1.419 . S
C2049 H2053 0.930 . S
C2050 C2049 1.369 . S
C2050 C2059 1.429 . S
C2051 C2049 1.419 . S
C2051 C2052 1.363 . S
C2051 H2054 0.929 . S
C2052 C2051 1.363 . S
C2052 C2058 1.428 . S
H2053 C2049 0.930 . S
H2054 C2051 0.929 . S
S2055 N2056 1.613 . S
S2055 N2057 1.610 . S
N2056 S2055 1.613 . S
N2056 C2059 1.350 . S
N2057 S2055 1.610 . S
N2057 C2058 1.351 . S
C2058 C2052 1.428 . S
C2058 N2057 1.351 . S
C2058 C2059 1.434 . S
C2059 C2050 1.429 . S
C2059 N2056 1.350 . S
C2059 C2058 1.434 . S
C2060 C2061 1.369 . S
C2060 C2062 1.419 . S
C2060 H2064 0.930 . S
C2061 C2060 1.369 . S
C2061 C2070 1.429 . S
C2062 C2060 1.419 . S
C2062 C2063 1.363 . S
C2062 H2065 0.929 . S
C2063 C2062 1.363 . S
C2063 C2069 1.428 . S
H2064 C2060 0.930 . S
H2065 C2062 0.929 . S
S2066 N2067 1.613 . S
S2066 N2068 1.610 . S
N2067 S2066 1.613 . S
N2067 C2070 1.350 . S
N2068 S2066 1.610 . S
N2068 C2069 1.351 . S
C2069 C2063 1.428 . S
C2069 N2068 1.351 . S
C2069 C2070 1.434 . S
C2070 C2061 1.429 . S
C2070 N2067 1.350 . S
C2070 C2069 1.434 . S
C2071 C2072 1.369 . S
C2071 C2073 1.419 . S
C2071 H2075 0.930 . S
C2072 C2071 1.369 . S
C2072 C2081 1.429 . S
C2073 C2071 1.419 . S
C2073 C2074 1.363 . S
C2073 H2076 0.929 . S
C2074 C2073 1.363 . S
C2074 C2080 1.428 . S
H2075 C2071 0.930 . S
H2076 C2073 0.929 . S
S2077 N2078 1.613 . S
S2077 N2079 1.610 . S
N2078 S2077 1.613 . S
N2078 C2081 1.350 . S
N2079 S2077 1.610 . S
N2079 C2080 1.351 . S
C2080 C2074 1.428 . S
C2080 N2079 1.351 . S
C2080 C2081 1.434 . S
C2081 C2072 1.429 . S
C2081 N2078 1.350 . S
C2081 C2080 1.434 . S
C2082 C2083 1.369 . S
C2082 C2084 1.419 . S
C2082 H2086 0.930 . S
C2083 C2082 1.369 . S
C2083 C2092 1.429 . S
C2084 C2082 1.419 . S
C2084 C2085 1.363 . S
C2084 H2087 0.929 . S
C2085 C2084 1.363 . S
C2085 C2091 1.428 . S
H2086 C2082 0.930 . S
H2087 C2084 0.929 . S
S2088 N2089 1.613 . S
S2088 N2090 1.610 . S
N2089 S2088 1.613 . S
N2089 C2092 1.350 . S
N2090 S2088 1.610 . S
N2090 C2091 1.351 . S
C2091 C2085 1.428 . S
C2091 N2090 1.351 . S
C2091 C2092 1.434 . S
C2092 C2083 1.429 . S
C2092 N2089 1.350 . S
C2092 C2091 1.434 . S
C2093 C2094 1.369 . S
C2093 C2095 1.419 . S
C2093 H2097 0.930 . S
C2094 C2093 1.369 . S
C2094 C2103 1.429 . S
C2095 C2093 1.419 . S
C2095 C2096 1.363 . S
C2095 H2098 0.929 . S
C2096 C2095 1.363 . S
C2096 C2102 1.428 . S
H2097 C2093 0.930 . S
H2098 C2095 0.929 . S
S2099 N2100 1.613 . S
S2099 N2101 1.610 . S
N2100 S2099 1.613 . S
N2100 C2103 1.350 . S
N2101 S2099 1.610 . S
N2101 C2102 1.351 . S
C2102 C2096 1.428 . S
C2102 N2101 1.351 . S
C2102 C2103 1.434 . S
C2103 C2094 1.429 . S
C2103 N2100 1.350 . S
C2103 C2102 1.434 . S
C2104 C2105 1.369 . S
C2104 C2106 1.419 . S
C2104 H2108 0.930 . S
C2105 C2104 1.369 . S
C2105 C2114 1.429 . S
C2106 C2104 1.419 . S
C2106 C2107 1.363 . S
C2106 H2109 0.929 . S
C2107 C2106 1.363 . S
C2107 C2113 1.428 . S
H2108 C2104 0.930 . S
H2109 C2106 0.929 . S
S2110 N2111 1.613 . S
S2110 N2112 1.610 . S
N2111 S2110 1.613 . S
N2111 C2114 1.350 . S
N2112 S2110 1.610 . S
N2112 C2113 1.351 . S
C2113 C2107 1.428 . S
C2113 N2112 1.351 . S
C2113 C2114 1.434 . S
C2114 C2105 1.429 . S
C2114 N2111 1.350 . S
C2114 C2113 1.434 . S
C2115 C2116 1.369 . S
C2115 C2117 1.419 . S
C2115 H2119 0.930 . S
C2116 C2115 1.369 . S
C2116 C2125 1.429 . S
C2117 C2115 1.419 . S
C2117 C2118 1.363 . S
C2117 H2120 0.929 . S
C2118 C2117 1.363 . S
C2118 C2124 1.428 . S
H2119 C2115 0.930 . S
H2120 C2117 0.929 . S
S2121 N2122 1.613 . S
S2121 N2123 1.610 . S
N2122 S2121 1.613 . S
N2122 C2125 1.350 . S
N2123 S2121 1.610 . S
N2123 C2124 1.351 . S
C2124 C2118 1.428 . S
C2124 N2123 1.351 . S
C2124 C2125 1.434 . S
C2125 C2116 1.429 . S
C2125 N2122 1.350 . S
C2125 C2124 1.434 . S
C2126 C2127 1.369 . S
C2126 C2128 1.419 . S
C2126 H2130 0.930 . S
C2127 C2126 1.369 . S
C2127 C2136 1.429 . S
C2128 C2126 1.419 . S
C2128 C2129 1.363 . S
C2128 H2131 0.929 . S
C2129 C2128 1.363 . S
C2129 C2135 1.428 . S
H2130 C2126 0.930 . S
H2131 C2128 0.929 . S
S2132 N2133 1.613 . S
S2132 N2134 1.610 . S
N2133 S2132 1.613 . S
N2133 C2136 1.350 . S
N2134 S2132 1.610 . S
N2134 C2135 1.351 . S
C2135 C2129 1.428 . S
C2135 N2134 1.351 . S
C2135 C2136 1.434 . S
C2136 C2127 1.429 . S
C2136 N2133 1.350 . S
C2136 C2135 1.434 . S
C2137 C2138 1.369 . S
C2137 C2139 1.419 . S
C2137 H2141 0.930 . S
C2138 C2137 1.369 . S
C2138 C2147 1.429 . S
C2139 C2137 1.419 . S
C2139 C2140 1.363 . S
C2139 H2142 0.929 . S
C2140 C2139 1.363 . S
C2140 C2146 1.428 . S
H2141 C2137 0.930 . S
H2142 C2139 0.929 . S
S2143 N2144 1.613 . S
S2143 N2145 1.610 . S
N2144 S2143 1.613 . S
N2144 C2147 1.350 . S
N2145 S2143 1.610 . S
N2145 C2146 1.351 . S
C2146 C2140 1.428 . S
C2146 N2145 1.351 . S
C2146 C2147 1.434 . S
C2147 C2138 1.429 . S
C2147 N2144 1.350 . S
C2147 C2146 1.434 . S
C2148 C2149 1.369 . S
C2148 C2150 1.419 . S
C2148 H2152 0.930 . S
C2149 C2148 1.369 . S
C2149 C2158 1.429 . S
C2150 C2148 1.419 . S
C2150 C2151 1.363 . S
C2150 H2153 0.929 . S
C2151 C2150 1.363 . S
C2151 C2157 1.428 . S
H2152 C2148 0.930 . S
H2153 C2150 0.929 . S
S2154 N2155 1.613 . S
S2154 N2156 1.610 . S
N2155 S2154 1.613 . S
N2155 C2158 1.350 . S
N2156 S2154 1.610 . S
N2156 C2157 1.351 . S
C2157 C2151 1.428 . S
C2157 N2156 1.351 . S
C2157 C2158 1.434 . S
C2158 C2149 1.429 . S
C2158 N2155 1.350 . S
C2158 C2157 1.434 . S
C2159 C2160 1.369 . S
C2159 C2161 1.419 . S
C2159 H2163 0.930 . S
C2160 C2159 1.369 . S
C2160 C2169 1.429 . S
C2161 C2159 1.419 . S
C2161 C2162 1.363 . S
C2161 H2164 0.929 . S
C2162 C2161 1.363 . S
C2162 C2168 1.428 . S
H2163 C2159 0.930 . S
H2164 C2161 0.929 . S
S2165 N2166 1.613 . S
S2165 N2167 1.610 . S
N2166 S2165 1.613 . S
N2166 C2169 1.350 . S
N2167 S2165 1.610 . S
N2167 C2168 1.351 . S
C2168 C2162 1.428 . S
C2168 N2167 1.351 . S
C2168 C2169 1.434 . S
C2169 C2160 1.429 . S
C2169 N2166 1.350 . S
C2169 C2168 1.434 . S
C2170 C2171 1.369 . S
C2170 C2172 1.419 . S
C2170 H2174 0.930 . S
C2171 C2170 1.369 . S
C2171 C2180 1.429 . S
C2172 C2170 1.419 . S
C2172 C2173 1.363 . S
C2172 H2175 0.929 . S
C2173 C2172 1.363 . S
C2173 C2179 1.428 . S
H2174 C2170 0.930 . S
H2175 C2172 0.929 . S
S2176 N2177 1.613 . S
S2176 N2178 1.610 . S
N2177 S2176 1.613 . S
N2177 C2180 1.350 . S
N2178 S2176 1.610 . S
N2178 C2179 1.351 . S
C2179 C2173 1.428 . S
C2179 N2178 1.351 . S
C2179 C2180 1.434 . S
C2180 C2171 1.429 . S
C2180 N2177 1.350 . S
C2180 C2179 1.434 . S
C2181 C2182 1.369 . S
C2181 C2183 1.419 . S
C2181 H2185 0.930 . S
C2182 C2181 1.369 . S
C2182 C2191 1.429 . S
C2183 C2181 1.419 . S
C2183 C2184 1.363 . S
C2183 H2186 0.929 . S
C2184 C2183 1.363 . S
C2184 C2190 1.428 . S
H2185 C2181 0.930 . S
H2186 C2183 0.929 . S
S2187 N2188 1.613 . S
S2187 N2189 1.610 . S
N2188 S2187 1.613 . S
N2188 C2191 1.350 . S
N2189 S2187 1.610 . S
N2189 C2190 1.351 . S
C2190 C2184 1.428 . S
C2190 N2189 1.351 . S
C2190 C2191 1.434 . S
C2191 C2182 1.429 . S
C2191 N2188 1.350 . S
C2191 C2190 1.434 . S
C2192 C2193 1.369 . S
C2192 C2194 1.419 . S
C2192 H2196 0.930 . S
C2193 C2192 1.369 . S
C2193 C2202 1.429 . S
C2194 C2192 1.419 . S
C2194 C2195 1.363 . S
C2194 H2197 0.929 . S
C2195 C2194 1.363 . S
C2195 C2201 1.428 . S
H2196 C2192 0.930 . S
H2197 C2194 0.929 . S
S2198 N2199 1.613 . S
S2198 N2200 1.610 . S
N2199 S2198 1.613 . S
N2199 C2202 1.350 . S
N2200 S2198 1.610 . S
N2200 C2201 1.351 . S
C2201 C2195 1.428 . S
C2201 N2200 1.351 . S
C2201 C2202 1.434 . S
C2202 C2193 1.429 . S
C2202 N2199 1.350 . S
C2202 C2201 1.434 . S
C2203 C2204 1.369 . S
C2203 C2205 1.419 . S
C2203 H2207 0.930 . S
C2204 C2203 1.369 . S
C2204 C2213 1.429 . S
C2205 C2203 1.419 . S
C2205 C2206 1.363 . S
C2205 H2208 0.929 . S
C2206 C2205 1.363 . S
C2206 C2212 1.428 . S
H2207 C2203 0.930 . S
H2208 C2205 0.929 . S
S2209 N2210 1.613 . S
S2209 N2211 1.610 . S
N2210 S2209 1.613 . S
N2210 C2213 1.350 . S
N2211 S2209 1.610 . S
N2211 C2212 1.351 . S
C2212 C2206 1.428 . S
C2212 N2211 1.351 . S
C2212 C2213 1.434 . S
C2213 C2204 1.429 . S
C2213 N2210 1.350 . S
C2213 C2212 1.434 . S
C1225 C546 1.602 . S
C1227 C2 1.601 . S
C1236 C36 1.601 . S
C1238 C580 1.602 . S
C1247 C512 1.602 . S
C1249 C70 1.601 . S
C1258 C104 1.601 . S
C1260 C886 1.601 . S
C1269 C818 1.601 . S
C1271 C138 1.602 . S
C1280 C172 1.602 . S
C1282 C852 1.601 . S
C1291 C206 1.601 . S
C1293 C1158 1.602 . S
C1302 C240 1.601 . S
C1304 C1192 1.601 . S
C1313 C274 1.602 . S
C1315 C1124 1.601 . S
C1324 C308 1.601 . S
C1326 C682 1.602 . S
C1335 C342 1.601 . S
C1337 C614 1.602 . S
C1346 C376 1.602 . S
C1348 C648 1.601 . S
C1357 C410 1.601 . S
C1359 C954 1.601 . S
C1368 C988 1.602 . S
C1370 C444 1.601 . S
C1379 C920 1.601 . S
C1381 C478 1.601 . S
C1390 C1090 1.602 . S
C1392 C716 1.601 . S
C1401 C1022 1.601 . S
C1403 C750 1.601 . S
C1412 C784 1.602 . S
C1414 C1056 1.601 . S
C1423 C991 1.369 . S
C1425 C5 1.366 . S
C1434 C39 1.368 . S
C1436 C923 1.365 . S
C1445 C73 1.364 . S
C1447 C957 1.368 . S
C1456 C107 1.368 . S
C1458 C447 1.366 . S
C1467 C141 1.368 . S
C1469 C481 1.367 . S
C1478 C413 1.364 . S
C1480 C175 1.367 . S
C1489 C787 1.366 . S
C1491 C209 1.368 . S
C1500 C243 1.368 . S
C1502 C719 1.364 . S
C1511 C277 1.366 . S
C1513 C753 1.364 . S
C1522 C1059 1.364 . S
C1524 C311 1.367 . S
C1533 C1093 1.364 . S
C1535 C345 1.367 . S
C1544 C1025 1.369 . S
C1546 C379 1.365 . S
C1555 C515 1.365 . S
C1557 C855 1.368 . S
C1566 C549 1.368 . S
C1568 C889 1.367 . S
C1577 C583 1.367 . S
C1579 C821 1.364 . S
C1588 C617 1.367 . S
C1590 C1195 1.364 . S
C1599 C1127 1.364 . S
C1601 C651 1.367 . S
C1610 C685 1.365 . S
C1612 C1161 1.365 . S
C1621 C20 1.607 . S
C1623 C632 1.599 . S
C1632 C54 1.599 . S
C1634 C666 1.604 . S
C1643 C700 1.597 . S
C1645 C88 1.606 . S
C1654 C122 1.599 . S
C1656 C1142 1.605 . S
C1665 C156 1.600 . S
C1667 C1176 1.603 . S
C1676 C190 1.604 . S
C1678 C1210 1.600 . S
C1687 C836 1.602 . S
C1689 C224 1.603 . S
C1698 C258 1.599 . S
C1700 C870 1.605 . S
C1709 C904 1.601 . S
C1711 C292 1.603 . S
C1720 C530 1.601 . S
C1722 C326 1.603 . S
C1731 C564 1.598 . S
C1733 C360 1.605 . S
C1742 C394 1.600 . S
C1744 C598 1.604 . S
C1753 C1040 1.603 . S
C1755 C428 1.601 . S
C1764 C1074 1.601 . S
C1766 C462 1.602 . S
C1775 C496 1.604 . S
C1777 C1108 1.601 . S
C1786 C938 1.599 . S
C1788 C734 1.605 . S
C1797 C768 1.607 . S
C1799 C972 1.599 . S
C1808 C1006 1.604 . S
C1810 C802 1.600 . S
C1819 C9 1.331 . S
C1821 C271 1.384 . S
C1830 C43 1.331 . S
C1832 C305 1.385 . S
C1841 C237 1.385 . S
C1843 C77 1.332 . S
C1852 C407 1.383 . S
C1854 C111 1.337 . S
C1863 C339 1.380 . S
C1865 C145 1.340 . S
C1874 C373 1.379 . S
C1876 C179 1.340 . S
C1885 C67 1.380 . S
C1887 C213 1.337 . S
C1896 C101 1.380 . S
C1898 C247 1.336 . S
C1907 C33 1.379 . S
C1909 C281 1.340 . S
C1918 C315 1.339 . S
C1920 C203 1.383 . S
C1929 C349 1.337 . S
C1931 C135 1.380 . S
C1940 C169 1.380 . S
C1942 C383 1.335 . S
C1951 C679 1.379 . S
C1953 C417 1.340 . S
C1962 C451 1.335 . S
C1964 C713 1.381 . S
C1973 C645 1.385 . S
C1975 C485 1.334 . S
C1984 C815 1.382 . S
C1986 C519 1.334 . S
C1995 C553 1.341 . S
C1997 C747 1.380 . S
C2006 C587 1.338 . S
C2008 C781 1.383 . S
C2017 C621 1.332 . S
C2019 C475 1.384 . S
C2028 C655 1.342 . S
C2030 C509 1.380 . S
C2039 C689 1.331 . S
C2041 C441 1.384 . S
C2050 C723 1.332 . S
C2052 C611 1.385 . S
C2061 C543 1.381 . S
C2063 C757 1.340 . S
C2072 C577 1.385 . S
C2074 C791 1.335 . S
C2083 C1087 1.382 . S
C2085 C825 1.338 . S
C2094 C1121 1.384 . S
C2096 C859 1.337 . S
C2105 C1053 1.384 . S
C2107 C893 1.335 . S
C2116 C1223 1.385 . S
C2118 C927 1.333 . S
C2127 C961 1.331 . S
C2129 C1155 1.384 . S
C2138 C1189 1.381 . S
C2140 C995 1.334 . S
C2149 C883 1.379 . S
C2151 C1029 1.340 . S
C2160 C917 1.382 . S
C2162 C1063 1.339 . S
C2171 C849 1.380 . S
C2173 C1097 1.336 . S
C2182 C1131 1.341 . S
C2184 C1019 1.380 . S
C2193 C1165 1.339 . S
C2195 C951 1.380 . S
C2204 C985 1.381 . S
C2206 C1199 1.340 . S
