# Generated by pormake.
# Topology smm, (6)-cn, num edge types: 1
# Building blocks:
#     Node 0, Type 0, BuildingBlock: UKALOJ_clean_sbu_0, # of connection points: 6
#     Node 1, Type 0, BuildingBlock: UKALOJ_clean_sbu_0, # of connection points: 6
#     Node 2, Type 0, BuildingBlock: UKALOJ_clean_sbu_0, # of connection points: 6
#     Node 3, Type 0, BuildingBlock: UKALOJ_clean_sbu_0, # of connection points: 6
#     Node 4, Type 0, BuildingBlock: UKALOJ_clean_sbu_0, # of connection points: 6
#     Node 5, Type 0, BuildingBlock: UKALOJ_clean_sbu_0, # of connection points: 6
#     Node 6, Type 0, BuildingBlock: UKALOJ_clean_sbu_0, # of connection points: 6
#     Node 7, Type 0, BuildingBlock: UKALOJ_clean_sbu_0, # of connection points: 6
#     Node 8, Type 0, BuildingBlock: UKALOJ_clean_sbu_0, # of connection points: 6
#     Edge 9, Type (0, 0), BuildingBlock: OJICUG_clean_linker_0, # of connection points: 2
#     Edge 10, Type (0, 0), BuildingBlock: OJICUG_clean_linker_0, # of connection points: 2
#     Edge 11, Type (0, 0), BuildingBlock: OJICUG_clean_linker_0, # of connection points: 2
#     Edge 12, Type (0, 0), BuildingBlock: OJICUG_clean_linker_0, # of connection points: 2
#     Edge 13, Type (0, 0), BuildingBlock: OJICUG_clean_linker_0, # of connection points: 2
#     Edge 14, Type (0, 0), BuildingBlock: OJICUG_clean_linker_0, # of connection points: 2
#     Edge 15, Type (0, 0), BuildingBlock: OJICUG_clean_linker_0, # of connection points: 2
#     Edge 16, Type (0, 0), BuildingBlock: OJICUG_clean_linker_0, # of connection points: 2
#     Edge 17, Type (0, 0), BuildingBlock: OJICUG_clean_linker_0, # of connection points: 2
#     Edge 18, Type (0, 0), BuildingBlock: OJICUG_clean_linker_0, # of connection points: 2
#     Edge 19, Type (0, 0), BuildingBlock: OJICUG_clean_linker_0, # of connection points: 2
#     Edge 20, Type (0, 0), BuildingBlock: OJICUG_clean_linker_0, # of connection points: 2
#     Edge 21, Type (0, 0), BuildingBlock: OJICUG_clean_linker_0, # of connection points: 2
#     Edge 22, Type (0, 0), BuildingBlock: OJICUG_clean_linker_0, # of connection points: 2
#     Edge 23, Type (0, 0), BuildingBlock: OJICUG_clean_linker_0, # of connection points: 2
#     Edge 24, Type (0, 0), BuildingBlock: OJICUG_clean_linker_0, # of connection points: 2
#     Edge 25, Type (0, 0), BuildingBlock: OJICUG_clean_linker_0, # of connection points: 2
#     Edge 26, Type (0, 0), BuildingBlock: OJICUG_clean_linker_0, # of connection points: 2
#     Edge 27, Type (0, 0), BuildingBlock: OJICUG_clean_linker_0, # of connection points: 2
#     Edge 28, Type (0, 0), BuildingBlock: OJICUG_clean_linker_0, # of connection points: 2
#     Edge 29, Type (0, 0), BuildingBlock: OJICUG_clean_linker_0, # of connection points: 2
#     Edge 30, Type (0, 0), BuildingBlock: OJICUG_clean_linker_0, # of connection points: 2
#     Edge 31, Type (0, 0), BuildingBlock: OJICUG_clean_linker_0, # of connection points: 2
#     Edge 32, Type (0, 0), BuildingBlock: OJICUG_clean_linker_0, # of connection points: 2
#     Edge 33, Type (0, 0), BuildingBlock: OJICUG_clean_linker_0, # of connection points: 2
#     Edge 34, Type (0, 0), BuildingBlock: OJICUG_clean_linker_0, # of connection points: 2
#     Edge 35, Type (0, 0), BuildingBlock: OJICUG_clean_linker_0, # of connection points: 2
# Relax obj value: 0.371
# Max RMSD: 0.288
# Mean RMSD: 0.274
data_MOF--net-smm--node1-UKALOJ_clean_sbu_0--edge1-OJICUG_clean_linker_0
_symmetry_space_group_name_H-M    P1
_symmetry_Int_Tables_number       1
_symmetry_cell_setting            triclinic
loop_
_symmetry_equiv_pos_as_xyz
'x, y, z'
_cell_length_a     35.942938
_cell_length_b     35.09263
_cell_length_c     15.312078
_cell_angle_alpha  92.680835
_cell_angle_beta   92.740508
_cell_angle_gamma 120.00681
loop_
_atom_site_label
_atom_site_type_symbol
_atom_site_fract_x
_atom_site_fract_y
_atom_site_fract_z
_atom_type_partial_charge
Zn0 Zn 0.01042 0.20696 0.12401 0.0
O1 O 0.97091 0.13451 0.13433 0.0
C2 C 0.05041 0.16953 0.03529 0.0
Zn3 Zn 0.97637 0.18894 0.9983 0.0
C4 C 0.9364 0.11181 0.0838 0.0
O5 O 0.9268 0.13051 0.02619 0.0
C6 C 0.04986 0.28026 1.01308 0.0
O7 O 0.93643 0.21891 0.02929 0.0
O8 O 0.96103 0.21501 0.15964 0.0
N9 N 0.9544 0.17233 0.86906 0.0
C10 C 0.9619 0.19813 0.80198 0.0
C11 C 0.94043 0.13302 0.74657 0.0
N12 N 0.94049 0.13173 0.83437 0.0
N13 N 0.95404 0.17442 0.72466 0.0
C14 C 0.01514 0.19809 0.32361 0.0
C15 C 0.04936 0.26563 0.37324 0.0
N16 N 0.0312 0.22228 0.25473 0.0
N17 N 0.05283 0.26425 0.28601 0.0
N18 N 0.02526 0.22451 0.39815 0.0
H19 H 0.007 0.13585 0.27488 0.0
H20 H 0.95744 0.13551 0.29439 0.0
H21 H -0.00791 0.13679 0.38484 0.0
C22 C -0.00849 0.14866 0.31917 0.0
C23 C 0.97579 0.24626 0.81125 0.0
H24 H 0.9667 0.25496 0.87417 0.0
H25 H 0.96066 0.25439 0.75578 0.0
H26 H 0.01119 0.26643 0.80883 0.0
O27 O 0.02571 0.24661 0.96242 0.0
O28 O 0.04824 0.27725 0.09587 0.0
C29 C 0.93573 0.22209 0.11296 0.0
O30 O 0.06024 0.19872 0.0974 0.0
O31 O 0.01695 0.15812 0.98288 0.0
Zn32 Zn 0.80593 0.85163 0.09458 0.0
O33 O 0.73552 0.82378 0.06372 0.0
C34 C 0.78587 0.75885 0.09244 0.0
Zn35 Zn 0.81537 0.82881 0.97244 0.0
C36 C 0.72817 0.81862 0.97998 0.0
O37 O 0.75785 0.82272 0.93416 0.0
C38 C 0.89552 0.86414 0.05992 0.0
O39 O 0.84835 0.9008 0.95187 0.0
O40 O 0.8144 0.90947 0.05852 0.0
N41 N 0.81532 0.8099 0.84473 0.0
C42 C 0.83252 0.83446 0.77703 0.0
C43 C 0.78335 0.77079 0.72307 0.0
N44 N 0.78509 0.77016 0.81104 0.0
N45 N 0.81249 0.81097 0.7002 0.0
C46 C 0.78798 0.84938 0.28881 0.0
C47 C 0.84005 0.91142 0.34273 0.0
N48 N 0.80732 0.87283 0.22113 0.0
N49 N 0.83936 0.91163 0.25471 0.0
N50 N 0.80835 0.87252 0.36571 0.0
H51 H 0.73053 0.79774 0.21487 0.0
H52 H 0.72681 0.80242 0.33207 0.0
H53 H 0.75679 0.77887 0.2893 0.0
C54 C 0.74816 0.80459 0.28016 0.0
C55 C 0.87041 0.88052 0.78541 0.0
H56 H 0.85906 0.90461 0.7907 0.0
H57 H 0.88882 0.88678 0.72643 0.0
H58 H 0.89199 0.88556 0.84449 0.0
O59 O 0.87234 0.8339 1.00117 0.0
O60 O 0.87783 0.88017 0.10891 0.0
C61 C 0.8394 0.92576 0.99901 0.0
O62 O 0.79749 0.79391 0.13958 0.0
O63 O 0.78418 0.76003 1.00896 0.0
Zn64 Zn 0.16267 0.02487 0.94598 0.0
O65 O 0.23307 0.06806 0.97817 0.0
C66 C 0.17843 0.94891 0.92708 0.0
Zn67 Zn 0.15153 0.98992 0.06174 0.0
C68 C 0.24043 0.06809 0.06093 0.0
O69 O 0.21084 0.04035 0.10273 0.0
C70 C 0.0709 0.94842 0.97565 0.0
O71 O 0.1239 0.03193 0.09877 0.0
O72 O 0.15531 0.07463 0.99416 0.0
N73 N 0.15137 0.97074 0.18543 0.0
C74 C 0.13457 0.97826 0.2565 0.0
C75 C 0.1833 0.9647 0.30243 0.0
N76 N 0.18133 0.96183 0.21409 0.0
N77 N 0.15461 0.97552 0.33063 0.0
C78 C 0.18059 0.04085 0.75285 0.0
C79 C 0.12873 0.04952 0.70653 0.0
N80 N 0.16157 0.04487 0.82357 0.0
N81 N 0.12965 0.05082 0.79473 0.0
N82 N 0.16014 0.04286 0.6786 0.0
H83 H 0.23796 0.04819 0.82198 0.0
H84 H 0.24175 0.05694 0.70632 0.0
H85 H 0.2117 0.00243 0.74026 0.0
C86 C 0.22034 0.03701 0.7562 0.0
C87 C 0.09689 0.9856 0.25369 0.0
H88 H 0.0758 0.96939 0.19235 0.0
H89 H 0.10844 0.02147 0.25694 0.0
H90 H 0.07792 0.97209 0.31099 0.0
O91 O 0.09186 0.93889 0.02982 0.0
O92 O 0.09102 0.98216 0.93171 0.0
C93 C 0.13246 0.06599 0.05803 0.0
O94 O 0.16977 0.97465 0.88794 0.0
O95 O 0.17826 0.94968 1.01073 0.0
Zn96 Zn 0.61765 0.51329 0.26127 0.0
O97 O 0.65949 0.48507 0.23019 0.0
C98 C 0.57965 0.43454 0.32923 0.0
Zn99 Zn 0.6572 0.5318 0.38685 0.0
C100 C 0.69309 0.49446 0.27979 0.0
O101 O 0.70252 0.51943 0.3486 0.0
C102 C 0.58291 0.54843 0.39099 0.0
O103 O 0.70261 0.6023 0.37112 0.0
O104 O 0.66615 0.57434 0.24394 0.0
N105 N 0.67768 0.53163 0.51518 0.0
C106 C 0.67339 0.54948 0.59143 0.0
C107 C 0.68211 0.49585 0.62232 0.0
N108 N 0.68392 0.49882 0.53511 0.0
N109 N 0.67531 0.52716 0.65952 0.0
C110 C 0.6069 0.49648 0.05664 0.0
C111 C 0.59285 0.54626 0.02186 0.0
N112 N 0.5991 0.51254 0.13116 0.0
N113 N 0.58972 0.54297 0.10882 0.0
N114 N 0.60368 0.51748 0.98739 0.0
H115 H 0.65713 0.48063 0.06162 0.0
H116 H 0.61123 0.44374 0.98841 0.0
H117 H 0.60745 0.44016 0.1047 0.0
C118 C 0.62141 0.46323 0.0528 0.0
C119 C 0.66355 0.5861 0.59833 0.0
H120 H 0.67128 0.60402 0.53806 0.0
H121 H 0.68285 0.60989 0.65501 0.0
H122 H 0.62903 0.57219 0.60956 0.0
O123 O 0.61218 0.54523 0.4325 0.0
O124 O 0.57678 0.53961 0.30776 0.0
C125 C 0.69715 0.60616 0.28931 0.0
O126 O 0.56949 0.45234 0.27019 0.0
O127 O 0.61187 0.45883 0.3852 0.0
Zn128 Zn 0.47887 0.1776 0.3838 0.0
O129 O 0.4086 0.14987 0.35681 0.0
C130 C 0.46475 0.0852 0.39027 0.0
Zn131 Zn 0.48914 0.15097 0.26341 0.0
C132 C 0.40043 0.13947 0.27402 0.0
O133 O 0.42897 0.13875 0.231 0.0
C134 C 0.57094 0.19516 0.34262 0.0
O135 O 0.51491 0.22159 0.23476 0.0
O136 O 0.48607 0.23403 0.34749 0.0
N137 N 0.48709 0.13127 0.13504 0.0
C138 C 0.50399 0.1563 0.06769 0.0
C139 C 0.45192 0.09425 1.01364 0.0
N140 N 0.45501 0.09255 0.10124 0.0
N141 N 0.48185 0.13419 0.99096 0.0
C142 C 0.46046 0.17657 0.57866 0.0
C143 C 0.51604 0.23555 0.63397 0.0
N144 N 0.48168 0.19923 0.51149 0.0
N145 N 0.51593 0.23616 0.54605 0.0
N146 N 0.4818 0.19824 0.65625 0.0
H147 H 0.39671 0.13621 0.51482 0.0
H148 H 0.40113 0.12932 0.63012 0.0
H149 H 0.4216 0.10607 0.55222 0.0
C150 C 0.41754 0.13468 0.56853 0.0
C151 C 0.54427 0.20075 0.07635 0.0
H152 H 0.56482 0.20436 0.13613 0.0
H153 H 0.536 0.22721 0.08082 0.0
H154 H 0.56267 0.20513 0.01782 0.0
O155 O 0.54955 0.16303 0.28625 0.0
O156 O 0.55103 0.20823 0.39228 0.0
C157 C 0.5073 0.24765 0.28188 0.0
O158 O 0.47165 0.12057 0.43041 0.0
O159 O 0.46489 0.08355 0.30657 0.0
Zn160 Zn 0.81857 0.34461 0.40667 0.0
O161 O 0.85089 0.30499 0.39023 0.0
C162 C 0.90572 0.42491 0.43783 0.0
Zn163 Zn 0.83925 0.37886 0.29118 0.0
C164 C 0.85751 0.30462 0.30867 0.0
O165 O 0.85285 0.33087 0.26268 0.0
C166 C 0.79517 0.41646 0.35794 0.0
O167 O 0.77001 0.33223 0.24338 0.0
O168 O 0.76525 0.29169 0.35095 0.0
N169 N 0.85799 0.39765 0.16877 0.0
C170 C 0.83483 0.39126 0.09206 0.0
C171 C 0.89731 0.4048 0.06171 0.0
N172 N 0.89701 0.40677 0.14968 0.0
N173 N 0.85864 0.39505 0.02386 0.0
C174 C 0.81906 0.32814 0.60367 0.0
C175 C 0.758 0.31943 0.63215 0.0
N176 N 0.7973 0.32433 0.52649 0.0
N177 N 0.75909 0.31816 0.54437 0.0
N178 N 0.79531 0.32581 0.67112 0.0
H179 H 0.87852 0.34044 0.54979 0.0
H180 H 0.86462 0.30902 0.64405 0.0
H181 H 0.88467 0.36696 0.65871 0.0
C182 C 0.86447 0.33701 0.61366 0.0
C183 C 0.7879 0.37718 0.08394 0.0
H184 H 0.76847 0.34062 0.07495 0.0
H185 H 0.77981 0.39036 0.02634 0.0
H186 H 0.77923 0.3893 0.14338 0.0
O187 O 0.82602 0.4271 0.31047 0.0
O188 O 0.78414 0.38362 0.40488 0.0
C189 C 0.74814 0.2974 0.28321 0.0
O190 O 0.87228 0.3977 0.47179 0.0
O191 O 0.90515 0.42347 0.35397 0.0
Zn192 Zn 0.34684 0.87563 0.73565 0.0
O193 O 0.30302 0.80496 0.76211 0.0
C194 C 0.38366 0.83117 0.66807 0.0
Zn195 Zn 0.30792 0.84893 0.61168 0.0
C196 C 0.26899 0.77854 0.71271 0.0
O197 O 0.25997 0.79175 0.64437 0.0
C198 C 0.38643 0.9411 0.61116 0.0
O199 O 0.26405 0.87605 0.63032 0.0
O200 O 0.29965 0.88866 0.75737 0.0
N201 N 0.28882 0.82783 0.48166 0.0
C202 C 0.29073 0.8511 0.41265 0.0
C203 C 0.28694 0.79161 0.36221 0.0
N204 N 0.28596 0.79062 0.44996 0.0
N205 N 0.29046 0.82949 0.33697 0.0
C206 C 0.35541 0.86975 0.93476 0.0
C207 C 0.3658 0.93244 0.98354 0.0
N208 N 0.36445 0.89502 0.86639 0.0
N209 N 0.37131 0.9341 0.8971 0.0
N210 N 0.35501 0.89212 1.0087 0.0
H211 H 0.36846 0.8211 0.87584 0.0
H212 H 0.31684 0.79891 0.9206 0.0
H213 H 0.36471 0.82028 0.99339 0.0
C214 C 0.35124 0.82498 0.93073 0.0
C215 C 0.28962 0.89332 0.41873 0.0
H216 H 0.2692 0.89291 0.47097 0.0
H217 H 0.27671 0.89799 0.35534 0.0
H218 H 0.32237 0.92185 0.43496 0.0
O219 O 0.35653 0.90655 0.56961 0.0
O220 O 0.38975 0.94262 0.69501 0.0
C221 C 0.26883 0.8874 0.71268 0.0
O222 O 0.39411 0.86316 0.72364 0.0
O223 O 0.3509 0.81876 0.61256 0.0
Zn224 Zn 0.1323 0.51936 0.78926 0.0
O225 O 0.06438 0.50299 0.75947 0.0
C226 C 0.10421 0.42264 0.79044 0.0
Zn227 Zn 0.14025 0.49074 0.66593 0.0
C228 C 0.05649 0.49231 0.6766 0.0
O229 O 0.08312 0.48666 0.6359 0.0
C230 C 0.21963 0.52221 0.74972 0.0
O231 O 0.17389 0.56184 0.63787 0.0
O232 O 0.15057 0.57977 0.75352 0.0
N233 N 0.1354 0.4695 0.53615 0.0
C234 C 0.15562 0.49181 0.46761 0.0
C235 C 0.09748 0.43457 0.41534 0.0
N236 N 0.09964 0.43357 0.50321 0.0
N237 N 0.13217 0.47087 0.39114 0.0
C238 C 0.11839 0.52371 0.98835 0.0
C239 C 0.17903 0.5788 0.03612 0.0
N240 N 0.13886 0.54333 0.91781 0.0
N241 N 0.17621 0.57807 0.94799 0.0
N242 N 0.14321 0.54486 0.06341 0.0
H243 H 0.06117 0.47139 0.91541 0.0
H244 H 0.05346 0.48707 0.02331 0.0
H245 H 0.08018 0.45588 1.01285 0.0
C246 C 0.07583 0.48189 0.98376 0.0
C247 C 0.19614 0.53598 0.47602 0.0
H248 H 0.18775 0.56228 0.47113 0.0
H249 H 0.2167 0.53871 0.42235 0.0
H250 H 0.21491 0.54103 0.53937 0.0
O251 O 0.19657 0.4943 0.68734 0.0
O252 O 0.20239 0.53776 0.80139 0.0
C253 C 0.1712 0.59088 0.68648 0.0
O254 O 0.11318 0.45819 0.83313 0.0
O255 O 0.1092 0.42285 0.70823 0.0
Zn256 Zn 0.4765 0.64959 0.76635 0.0
O257 O 0.44627 0.69072 0.79558 0.0
C258 C 0.39694 0.60728 0.67698 0.0
Zn259 Zn 0.48931 0.684 0.65189 0.0
C260 C 0.45729 0.72548 0.75525 0.0
O261 O 0.48339 0.73475 0.69737 0.0
C262 C 0.50498 0.60854 0.63786 0.0
O263 O 0.55961 0.72667 0.68559 0.0
O264 O 0.53526 0.70133 0.81058 0.0
N265 N 0.48964 0.70394 0.52938 0.0
C266 C 0.50677 0.69713 0.4582 0.0
C267 C 0.45979 0.71335 0.41329 0.0
N268 N 0.4608 0.71455 0.50148 0.0
N269 N 0.48808 0.70206 0.38459 0.0
C270 C 0.4592 0.63965 0.96164 0.0
C271 C 0.50345 0.61973 1.00626 0.0
N272 N 0.47456 0.63041 0.89017 0.0
N273 N 0.50168 0.61753 0.91799 0.0
N274 N 0.4774 0.63401 0.03518 0.0
H275 H 0.43982 0.68827 0.95847 0.0
H276 H 0.40691 0.64215 0.01943 0.0
H277 H 0.40193 0.63541 0.90094 0.0
C278 C 0.42486 0.65199 0.95981 0.0
C279 C 0.54261 0.68689 0.46044 0.0
H280 H 0.56173 0.69843 0.52484 0.0
H281 H 0.56394 0.70284 0.40745 0.0
H282 H 0.52916 0.65081 0.4489 0.0
O283 O 0.49527 0.63303 0.59715 0.0
O284 O 0.50581 0.61065 0.72152 0.0
C285 C 0.56581 0.72811 0.76917 0.0
O286 O 0.41754 0.59735 0.73124 0.0
O287 O 0.41745 0.6417 0.63498 0.0
C288 C 0.05112 0.34735 0.96864 0.0
C289 C 0.07114 0.32192 0.97019 0.0
H290 H 0.04246 0.39528 0.90382 0.0
C291 C 0.09975 0.32704 0.90566 0.0
H292 H 0.02677 0.34207 1.01331 0.0
C293 C 0.10913 0.358 0.84278 0.0
C294 C 0.0889 0.38336 0.84162 0.0
H295 H 0.11377 0.30599 0.90224 0.0
H296 H 0.13249 0.36254 0.79623 0.0
C297 C 0.05945 0.37712 0.90458 0.0
C298 C 0.64698 0.78018 0.96882 0.0
C299 C 0.68585 0.80363 0.93054 0.0
H300 H 0.57886 0.7386 0.94783 0.0
C301 C 0.68452 0.80681 0.83846 0.0
H302 H 0.64673 0.77692 0.03883 0.0
C303 C 0.64569 0.78411 0.78522 0.0
C304 C 0.60712 0.75798 0.82285 0.0
H305 H 0.71401 0.82515 0.80647 0.0
H306 H 0.64618 0.7855 0.71474 0.0
C307 C 0.60812 0.75779 0.91571 0.0
C308 C 0.22281 0.91269 0.91085 0.0
C309 C 0.19386 0.92391 0.87341 0.0
H310 H 0.26819 0.89216 0.88988 0.0
C311 C 0.18511 0.91764 0.78091 0.0
H312 H 0.23018 0.9168 0.98128 0.0
C313 C 0.20802 0.9046 0.72665 0.0
C314 C 0.23963 0.89684 0.76425 0.0
H315 H 0.16186 0.9249 0.75016 0.0
H316 H 0.20213 0.90221 0.65604 0.0
C317 C 0.24515 0.89922 0.85728 0.0
C318 C 0.35976 0.12819 0.12885 0.0
C319 C 0.35994 0.12883 0.22174 0.0
H320 H 0.32222 0.1091 1.00451 0.0
C321 C 0.32135 0.11649 0.2596 0.0
H322 H 0.38921 0.13852 0.09685 0.0
C323 C 0.28305 0.10039 0.20572 0.0
C324 C 0.28243 0.09607 0.11289 0.0
H325 H 0.32034 0.11706 0.33021 0.0
H326 H 0.25331 0.08893 0.23724 0.0
C327 C 0.32149 0.11191 0.07509 0.0
C328 C 0.86661 0.27216 0.1681 0.0
C329 C 0.87114 0.27618 0.26129 0.0
H330 H 0.88326 0.25243 0.04794 0.0
C331 C 0.89249 0.25739 0.30386 0.0
H332 H 0.84964 0.28564 0.13247 0.0
C333 C 0.91131 0.23779 0.25445 0.0
C334 C 0.90946 0.23674 0.16133 0.0
H335 H 0.8965 0.25973 0.37482 0.0
H336 H 0.92895 0.22502 0.29005 0.0
C337 C 0.88569 0.25294 0.11882 0.0
C338 C 0.73815 0.67736 0.09773 0.0
C339 C 0.76994 0.71787 0.13852 0.0
H340 H 0.69086 0.61108 0.11299 0.0
C341 C 0.7815 0.72058 0.2294 0.0
H342 H 0.7285 0.67403 0.02838 0.0
C343 C 0.75902 0.68459 0.27988 0.0
C344 C 0.725 0.64488 0.23995 0.0
H345 H 0.8067 0.75142 0.26252 0.0
H346 H 0.76736 0.68829 0.34989 0.0
C347 C 0.71614 0.64143 0.14754 0.0
C348 C 0.02225 0.48963 0.5293 0.0
C349 C 0.01835 0.48592 0.62076 0.0
H350 H -0.00974 0.47325 0.39963 0.0
C351 C 0.97752 0.46986 0.65128 0.0
H352 H 0.05348 0.5029 0.50312 0.0
C353 C 0.94119 0.45394 0.59088 0.0
C354 C 0.94486 0.45279 0.49899 0.0
H355 H 0.97328 0.46686 0.72066 0.0
H356 H 0.9098 0.44002 0.61633 0.0
C357 C -0.01396 0.47294 0.46923 0.0
C358 C 0.56798 0.61377 0.57192 0.0
C359 C 0.52426 0.58763 0.58542 0.0
H360 H 0.61928 0.62411 0.49339 0.0
C361 C 0.4981 0.55059 0.52588 0.0
H362 H 0.58834 0.64401 0.61307 0.0
C363 C 0.51601 0.53877 0.457 0.0
C364 C 0.55996 0.5651 0.44429 0.0
H365 H 0.46372 0.53131 0.5318 0.0
H366 H 0.49588 0.50874 0.41525 0.0
C367 C 0.58534 0.60307 0.50168 0.0
C368 C 0.43066 0.0034 0.40957 0.0
C369 C 0.45335 0.04726 0.44492 0.0
H370 H 0.39495 0.93555 0.4363 0.0
C371 C 0.46084 0.05542 0.53743 0.0
H372 H 0.4252 -0.00439 0.33918 0.0
C373 C 0.44093 0.02131 0.5932 0.0
C374 C 0.41465 0.9778 0.5575 0.0
H375 H 0.48039 0.08884 0.56688 0.0
H376 H 0.44466 0.02925 0.66344 0.0
C377 C 0.4125 0.96913 0.46551 0.0
C378 C 0.07483 0.07741 0.99605 0.0
C379 C 0.1073 0.08814 0.06359 0.0
H380 H 0.03169 0.09498 0.9326 0.0
C381 C 0.12249 0.12675 0.11826 0.0
H382 H 0.06429 0.04882 0.95006 0.0
C383 C 0.10505 0.15405 0.10623 0.0
C384 C 0.07219 0.14328 0.03891 0.0
H385 H 0.14887 0.13663 0.1679 0.0
H386 H 0.11734 0.18363 0.15017 0.0
C387 C 0.05712 0.10447 0.98424 0.0
C388 C 0.8437 -0.00257 0.0308 0.0
C389 C 0.86443 0.97432 1.00461 0.0
H390 H 0.85062 0.05885 0.08069 0.0
C391 C 0.90968 -0.00339 1.01078 0.0
H392 H 0.80882 0.98083 0.02836 0.0
C393 C 0.93364 0.04077 0.04561 0.0
C394 C 0.91262 0.0634 0.07316 0.0
H395 H 0.9264 0.97944 0.99196 0.0
H396 H 0.96849 0.05771 0.04796 0.0
C397 C 0.86749 0.04151 0.06376 0.0
C398 C 0.95869 0.86104 1.01092 0.0
C399 C 0.94236 0.88581 0.0518 0.0
H400 H 0.01169 0.86187 0.95073 0.0
C401 C 0.96841 0.9319 0.06286 0.0
H402 H 0.9393 0.82538 1.0011 0.0
C403 C 0.00918 0.95278 0.03012 0.0
C404 C 0.02467 0.92792 0.98662 0.0
H405 H 0.95681 0.95179 0.09425 0.0
H406 H 0.02934 0.98818 0.04232 0.0
C407 C -0.00053 0.88183 0.97944 0.0
C408 C 0.7594 0.49185 0.26555 0.0
C409 C 0.71521 0.4691 0.27601 0.0
H410 H 0.81949 0.49394 0.28655 0.0
C411 C 0.69749 0.42957 0.31794 0.0
H412 H 0.77421 0.52356 0.23784 0.0
C413 C 0.72372 0.41353 0.35046 0.0
C414 C 0.76807 0.43642 0.34003 0.0
H415 H 0.66385 0.41273 0.33098 0.0
H416 H 0.70931 0.38326 0.38319 0.0
C417 C 0.78543 0.47555 0.2964 0.0
C418 C 0.57573 0.36464 0.37129 0.0
C419 C 0.56063 0.38609 0.31773 0.0
H420 H 0.57144 0.30346 0.3983 0.0
C421 C 0.53112 0.36174 0.2445 0.0
H422 H 0.59868 0.38233 0.42738 0.0
C423 C 0.51657 0.31685 0.22626 0.0
C424 C 0.53152 0.29563 0.28042 0.0
H425 H 0.51907 0.37732 0.201 0.0
H426 H 0.49223 0.29837 0.17264 0.0
C427 C 0.56119 0.31986 0.35291 0.0
C428 C 0.63457 0.26666 0.3118 0.0
C429 C 0.61722 0.22238 0.33067 0.0
H430 H 0.68944 0.32473 0.27216 0.0
C431 C 0.64109 0.20143 0.31504 0.0
H432 H 0.61582 0.28283 0.31787 0.0
C433 C 0.68257 0.225 0.28723 0.0
C434 C 0.7009 0.26991 0.27251 0.0
H435 H 0.62768 0.16674 0.32502 0.0
H436 H 0.70145 0.20882 0.28227 0.0
C437 C 0.67595 0.29013 0.28222 0.0
C438 C 0.45278 0.79243 0.7821 0.0
C439 C 0.43237 0.74799 0.75106 0.0
H440 H 0.45489 0.85398 0.77673 0.0
C441 C 0.39729 0.7315 0.68691 0.0
H442 H 0.48145 0.80661 0.82729 0.0
C443 C 0.38249 0.75882 0.65543 0.0
C444 C 0.40294 0.80339 0.68676 0.0
H445 H 0.38306 0.6982 0.65665 0.0
H446 H 0.35503 0.74502 0.60718 0.0
C447 C 0.43828 0.81976 0.75056 0.0
C448 C 0.24185 0.66031 0.69493 0.0
C449 C 0.19682 0.63849 0.67854 0.0
H450 H 0.30026 0.72248 0.72635 0.0
C451 C 0.1759 0.66312 0.68316 0.0
H452 H 0.25848 0.64175 0.69481 0.0
C453 C 0.1995 0.70877 0.70197 0.0
C454 C 0.24445 0.73069 0.71933 0.0
H455 H 0.14104 0.64679 0.67417 0.0
H456 H 0.18269 0.72722 0.7013 0.0
C457 C 0.2655 0.7061 0.71599 0.0
C458 C 0.33552 0.61002 0.73729 0.0
C459 C 0.35058 0.58677 0.68667 0.0
H460 H 0.28261 0.60734 0.80201 0.0
C461 C 0.32417 0.54111 0.66893 0.0
H462 H 0.35649 0.64462 0.75793 0.0
C463 C 0.28255 0.51952 0.6966 0.0
C464 C 0.26663 0.54298 0.74411 0.0
H465 H 0.33596 0.52207 0.63457 0.0
H466 H 0.26226 0.48443 0.67862 0.0
C467 C 0.29389 0.58836 0.76577 0.0
C468 C 0.94484 0.17157 0.56425 0.0
C469 C 0.97089 0.19038 0.64273 0.0
H470 H 0.94158 0.16919 0.42413 0.0
C471 C 0.01487 0.22153 0.63988 0.0
H472 H 0.91096 0.14742 0.56541 0.0
C473 C 0.03265 0.23316 0.55951 0.0
C474 C 0.00686 0.21338 0.48091 0.0
H475 H 0.03584 0.23546 0.69975 0.0
H476 H 0.06674 0.25658 0.55851 0.0
C477 C 0.96253 0.18348 0.48393 0.0
C478 C 0.81152 0.80271 0.53989 0.0
C479 C 0.81238 0.82702 0.61584 0.0
H480 H 0.81098 0.79916 0.40011 0.0
C481 C 0.81002 0.86557 0.60816 0.0
H482 H 0.81304 0.77282 0.54461 0.0
C483 C 0.80795 0.88015 0.52576 0.0
C484 C 0.80727 0.85593 0.44987 0.0
H485 H 0.80892 0.88393 0.66571 0.0
H486 H 0.80665 0.91016 0.52097 0.0
C487 C 0.8095 0.81732 0.45755 0.0
C488 C 0.16013 0.05031 0.51987 0.0
C489 C 0.16089 0.02701 0.59101 0.0
H490 H 0.15884 0.05263 0.38051 0.0
C491 C 0.15838 0.98595 0.57517 0.0
H492 H 0.16166 0.08179 0.53089 0.0
C493 C 0.15598 0.96888 0.48958 0.0
C494 C 0.15505 -0.00792 0.41838 0.0
H495 H 0.15695 0.96644 0.62878 0.0
H496 H 0.15424 0.93729 0.47866 0.0
C497 C 0.15771 0.03323 0.43421 0.0
C498 C 0.67518 0.56214 0.80356 0.0
C499 C 0.65781 0.52501 0.74296 0.0
H500 H 0.67102 0.58855 0.92982 0.0
C501 C 0.62207 0.48537 0.76375 0.0
H502 H 0.7031 0.59277 0.78961 0.0
C503 C 0.60386 0.48293 0.84349 0.0
C504 C 0.62129 0.51999 0.90411 0.0
H505 H 0.6079 0.45644 0.7175 0.0
H506 H 0.57607 0.45226 0.8578 0.0
C507 C 0.65694 0.55969 0.8834 0.0
C508 C 0.48667 0.20837 0.81734 0.0
C509 C 0.47848 0.18104 0.74072 0.0
H510 H 0.49216 0.21423 0.95733 0.0
C511 C 0.47162 0.13825 0.74791 0.0
H512 H 0.49203 0.24145 0.81333 0.0
C513 C 0.47336 0.1232 0.82992 0.0
C514 C 0.48224 0.15073 0.90659 0.0
H515 H 0.46616 0.11681 0.69015 0.0
H516 H 0.46823 0.09019 0.83361 0.0
C517 C 0.48783 0.19312 0.89956 0.0
C518 C 0.83126 0.32527 0.81216 0.0
C519 C 0.8108 0.34255 0.76074 0.0
H520 H 0.8626 0.32887 0.93771 0.0
C521 C 0.80704 0.37799 0.79656 0.0
H522 H 0.83426 0.29784 0.78595 0.0
C523 C 0.82349 0.39591 0.88242 0.0
C524 C 0.8434 0.37826 0.93424 0.0
H525 H 0.79204 0.39231 0.7573 0.0
H526 H 0.82095 0.4237 0.90828 0.0
C527 C 0.84747 0.34303 0.89835 0.0
C528 C 0.28607 0.81872 0.17581 0.0
C529 C 0.30405 0.84653 0.25331 0.0
H530 H 0.28667 0.81192 0.03675 0.0
C531 C 0.3389 0.88949 0.24863 0.0
H532 H 0.25917 0.7855 0.17763 0.0
C533 C 0.3559 0.90407 0.1687 0.0
C534 C 0.33853 0.876 0.09141 0.0
H535 H 0.35403 0.91146 0.30698 0.0
H536 H 0.38303 0.93719 0.1673 0.0
C537 C 0.30263 0.83352 0.09549 0.0
C538 C 0.17421 0.5213 0.18152 0.0
C539 C 0.14051 0.5271 0.14723 0.0
H540 H 0.19726 0.49733 0.28525 0.0
C541 C 0.10398 0.51378 0.19412 0.0
H542 H 0.20242 0.53074 0.14573 0.0
C543 C 0.10117 0.49486 0.2738 0.0
C544 C 0.13492 0.48916 0.30801 0.0
H545 H 0.07791 0.51843 0.16962 0.0
H546 H 0.07291 0.48522 0.3096 0.0
C547 C 0.17133 0.50227 0.26097 0.0
C548 C 0.48036 0.64282 0.27944 0.0
C549 C 0.4872 0.68568 0.29662 0.0
H550 H 0.47178 0.59274 0.18129 0.0
C551 C 0.48963 0.71081 0.22656 0.0
H552 H 0.47651 0.62209 0.33231 0.0
C553 C 0.48608 0.69369 0.14051 0.0
C554 C 0.47915 0.6508 0.12332 0.0
H555 H 0.49455 0.74373 0.23874 0.0
H556 H 0.48959 0.71428 0.08752 0.0
C557 C 0.47686 0.62572 0.19342 0.0
loop_
_geom_bond_atom_site_label_1
_geom_bond_atom_site_label_2
_geom_bond_distance
_geom_bond_site_symmetry_2
_ccdc_geom_bond_type
Zn0 O1 2.055 1_455 S
Zn0 O8 2.046 1_455 S
Zn0 N16 2.036 . S
Zn0 O28 2.053 . S
Zn0 O30 2.066 . S
O1 Zn0 2.055 1_655 S
O1 C4 1.259 . S
C2 O30 1.256 . S
C2 O31 1.244 1_554 S
Zn3 O5 2.046 . S
Zn3 O7 2.055 . S
Zn3 N9 2.036 . S
Zn3 O27 2.066 1_655 S
Zn3 O31 2.053 1_655 S
C4 O1 1.259 . S
C4 O5 1.254 1_554 S
O5 Zn3 2.046 . S
O5 C4 1.254 1_556 S
C6 O27 1.256 1_554 S
C6 O28 1.244 . S
O7 Zn3 2.055 . S
O7 C29 1.259 1_556 S
O8 Zn0 2.046 1_655 S
O8 C29 1.254 . S
N9 Zn3 2.036 . S
N9 C10 1.298 . S
N9 N12 1.398 . S
C10 N9 1.298 . S
C10 N13 1.367 . S
C10 C23 1.481 . S
C11 N12 1.299 . S
C11 N13 1.379 . S
N12 N9 1.398 . S
N12 C11 1.299 . S
N13 C10 1.367 . S
N13 C11 1.379 . S
C14 N16 1.298 . S
C14 N18 1.367 . S
C14 C22 1.481 . S
C15 N17 1.299 . S
C15 N18 1.379 . S
N16 Zn0 2.036 . S
N16 C14 1.298 . S
N16 N17 1.398 . S
N17 C15 1.299 . S
N17 N16 1.398 . S
N18 C14 1.367 . S
N18 C15 1.379 . S
H19 C22 0.980 1_655 S
H20 C22 0.981 . S
H21 C22 0.981 . S
C22 C14 1.481 . S
C22 H19 0.980 1_455 S
C22 H20 0.981 . S
C22 H21 0.981 . S
C23 C10 1.481 . S
C23 H24 0.980 . S
C23 H25 0.981 . S
C23 H26 0.981 . S
H24 C23 0.980 . S
H25 C23 0.981 . S
H26 C23 0.981 . S
O27 Zn3 2.066 1_455 S
O27 C6 1.256 1_556 S
O28 Zn0 2.053 . S
O28 C6 1.244 . S
C29 O7 1.259 1_554 S
C29 O8 1.254 . S
O30 Zn0 2.066 . S
O30 C2 1.256 . S
O31 C2 1.244 1_556 S
O31 Zn3 2.053 1_455 S
Zn32 O33 2.055 . S
Zn32 O40 2.046 . S
Zn32 N48 2.036 . S
Zn32 O60 2.053 . S
Zn32 O62 2.066 . S
O33 Zn32 2.055 . S
O33 C36 1.259 . S
C34 O62 1.256 . S
C34 O63 1.244 1_554 S
Zn35 O37 2.046 . S
Zn35 O39 2.055 . S
Zn35 N41 2.036 . S
Zn35 O59 2.066 . S
Zn35 O63 2.053 . S
C36 O33 1.259 . S
C36 O37 1.254 1_554 S
O37 Zn35 2.046 . S
O37 C36 1.254 1_556 S
C38 O59 1.256 1_554 S
C38 O60 1.244 . S
O39 Zn35 2.055 . S
O39 C61 1.259 1_556 S
O40 Zn32 2.046 . S
O40 C61 1.254 . S
N41 Zn35 2.036 . S
N41 C42 1.298 . S
N41 N44 1.398 . S
C42 N41 1.298 . S
C42 N45 1.367 . S
C42 C55 1.481 . S
C43 N44 1.299 . S
C43 N45 1.379 . S
N44 N41 1.398 . S
N44 C43 1.299 . S
N45 C42 1.367 . S
N45 C43 1.379 . S
C46 N48 1.298 . S
C46 N50 1.367 . S
C46 C54 1.481 . S
C47 N49 1.299 . S
C47 N50 1.379 . S
N48 Zn32 2.036 . S
N48 C46 1.298 . S
N48 N49 1.398 . S
N49 C47 1.299 . S
N49 N48 1.398 . S
N50 C46 1.367 . S
N50 C47 1.379 . S
H51 C54 0.980 . S
H52 C54 0.981 . S
H53 C54 0.981 . S
C54 C46 1.481 . S
C54 H51 0.980 . S
C54 H52 0.981 . S
C54 H53 0.981 . S
C55 C42 1.481 . S
C55 H56 0.980 . S
C55 H57 0.981 . S
C55 H58 0.981 . S
H56 C55 0.980 . S
H57 C55 0.981 . S
H58 C55 0.981 . S
O59 Zn35 2.066 . S
O59 C38 1.256 1_556 S
O60 Zn32 2.053 . S
O60 C38 1.244 . S
C61 O39 1.259 1_554 S
C61 O40 1.254 . S
O62 Zn32 2.066 . S
O62 C34 1.256 . S
O63 C34 1.244 1_556 S
O63 Zn35 2.053 . S
Zn64 O65 2.055 . S
Zn64 O72 2.046 . S
Zn64 N80 2.036 . S
Zn64 O92 2.053 1_545 S
Zn64 O94 2.066 1_545 S
O65 Zn64 2.055 . S
O65 C68 1.259 1_556 S
C66 O94 1.256 . S
C66 O95 1.244 1_556 S
Zn67 O69 2.046 . S
Zn67 O71 2.055 . S
Zn67 N73 2.036 1_545 S
Zn67 O91 2.066 1_545 S
Zn67 O95 2.053 1_545 S
C68 O65 1.259 1_554 S
C68 O69 1.254 . S
O69 Zn67 2.046 . S
O69 C68 1.254 . S
C70 O91 1.256 1_556 S
C70 O92 1.244 . S
O71 Zn67 2.055 . S
O71 C93 1.259 . S
O72 Zn64 2.046 . S
O72 C93 1.254 1_556 S
N73 Zn67 2.036 1_565 S
N73 C74 1.298 . S
N73 N76 1.398 . S
C74 N73 1.298 . S
C74 N77 1.367 . S
C74 C87 1.481 1_565 S
C75 N76 1.299 . S
C75 N77 1.379 . S
N76 N73 1.398 . S
N76 C75 1.299 . S
N77 C74 1.367 . S
N77 C75 1.379 . S
C78 N80 1.298 . S
C78 N82 1.367 . S
C78 C86 1.481 . S
C79 N81 1.299 . S
C79 N82 1.379 . S
N80 Zn64 2.036 . S
N80 C78 1.298 . S
N80 N81 1.398 . S
N81 C79 1.299 . S
N81 N80 1.398 . S
N82 C78 1.367 . S
N82 C79 1.379 . S
H83 C86 0.980 . S
H84 C86 0.981 . S
H85 C86 0.981 . S
C86 C78 1.481 . S
C86 H83 0.980 . S
C86 H84 0.981 . S
C86 H85 0.981 . S
C87 C74 1.481 1_545 S
C87 H88 0.980 . S
C87 H89 0.981 . S
C87 H90 0.981 1_545 S
H88 C87 0.980 . S
H89 C87 0.981 . S
H90 C87 0.981 1_565 S
O91 Zn67 2.066 1_565 S
O91 C70 1.256 1_554 S
O92 Zn64 2.053 1_565 S
O92 C70 1.244 . S
C93 O71 1.259 . S
C93 O72 1.254 1_554 S
O94 Zn64 2.066 1_565 S
O94 C66 1.256 . S
O95 C66 1.244 1_554 S
O95 Zn67 2.053 1_565 S
Zn96 O97 2.055 . S
Zn96 O104 2.046 . S
Zn96 N112 2.036 . S
Zn96 O124 2.053 . S
Zn96 O126 2.066 . S
O97 Zn96 2.055 . S
O97 C100 1.259 . S
C98 O126 1.256 . S
C98 O127 1.244 . S
Zn99 O101 2.046 . S
Zn99 O103 2.055 . S
Zn99 N105 2.036 . S
Zn99 O123 2.066 . S
Zn99 O127 2.053 . S
C100 O97 1.259 . S
C100 O101 1.254 . S
O101 Zn99 2.046 . S
O101 C100 1.254 . S
C102 O123 1.256 . S
C102 O124 1.244 . S
O103 Zn99 2.055 . S
O103 C125 1.259 . S
O104 Zn96 2.046 . S
O104 C125 1.254 . S
N105 Zn99 2.036 . S
N105 C106 1.298 . S
N105 N108 1.398 . S
C106 N105 1.298 . S
C106 N109 1.367 . S
C106 C119 1.481 . S
C107 N108 1.299 . S
C107 N109 1.379 . S
N108 N105 1.398 . S
N108 C107 1.299 . S
N109 C106 1.367 . S
N109 C107 1.379 . S
C110 N112 1.298 . S
C110 N114 1.367 1_554 S
C110 C118 1.481 . S
C111 N113 1.299 1_556 S
C111 N114 1.379 . S
N112 Zn96 2.036 . S
N112 C110 1.298 . S
N112 N113 1.398 . S
N113 C111 1.299 1_554 S
N113 N112 1.398 . S
N114 C110 1.367 1_556 S
N114 C111 1.379 . S
H115 C118 0.980 . S
H116 C118 0.981 1_556 S
H117 C118 0.981 . S
C118 C110 1.481 . S
C118 H115 0.980 . S
C118 H116 0.981 1_554 S
C118 H117 0.981 . S
C119 C106 1.481 . S
C119 H120 0.980 . S
C119 H121 0.981 . S
C119 H122 0.981 . S
H120 C119 0.980 . S
H121 C119 0.981 . S
H122 C119 0.981 . S
O123 Zn99 2.066 . S
O123 C102 1.256 . S
O124 Zn96 2.053 . S
O124 C102 1.244 . S
C125 O103 1.259 . S
C125 O104 1.254 . S
O126 Zn96 2.066 . S
O126 C98 1.256 . S
O127 C98 1.244 . S
O127 Zn99 2.053 . S
Zn128 O129 2.055 . S
Zn128 O136 2.046 . S
Zn128 N144 2.036 . S
Zn128 O156 2.053 . S
Zn128 O158 2.066 . S
O129 Zn128 2.055 . S
O129 C132 1.259 . S
C130 O158 1.256 . S
C130 O159 1.244 . S
Zn131 O133 2.046 . S
Zn131 O135 2.055 . S
Zn131 N137 2.036 . S
Zn131 O155 2.066 . S
Zn131 O159 2.053 . S
C132 O129 1.259 . S
C132 O133 1.254 . S
O133 Zn131 2.046 . S
O133 C132 1.254 . S
C134 O155 1.256 . S
C134 O156 1.244 . S
O135 Zn131 2.055 . S
O135 C157 1.259 . S
O136 Zn128 2.046 . S
O136 C157 1.254 . S
N137 Zn131 2.036 . S
N137 C138 1.298 . S
N137 N140 1.398 . S
C138 N137 1.298 . S
C138 N141 1.367 1_554 S
C138 C151 1.481 . S
C139 N140 1.299 1_556 S
C139 N141 1.379 . S
N140 N137 1.398 . S
N140 C139 1.299 1_554 S
N141 C138 1.367 1_556 S
N141 C139 1.379 . S
C142 N144 1.298 . S
C142 N146 1.367 . S
C142 C150 1.481 . S
C143 N145 1.299 . S
C143 N146 1.379 . S
N144 Zn128 2.036 . S
N144 C142 1.298 . S
N144 N145 1.398 . S
N145 C143 1.299 . S
N145 N144 1.398 . S
N146 C142 1.367 . S
N146 C143 1.379 . S
H147 C150 0.980 . S
H148 C150 0.981 . S
H149 C150 0.981 . S
C150 C142 1.481 . S
C150 H147 0.980 . S
C150 H148 0.981 . S
C150 H149 0.981 . S
C151 C138 1.481 . S
C151 H152 0.980 . S
C151 H153 0.981 1_554 S
C151 H154 0.981 . S
H152 C151 0.980 . S
H153 C151 0.981 1_556 S
H154 C151 0.981 . S
O155 Zn131 2.066 . S
O155 C134 1.256 . S
O156 Zn128 2.053 . S
O156 C134 1.244 . S
C157 O135 1.259 . S
C157 O136 1.254 . S
O158 Zn128 2.066 . S
O158 C130 1.256 . S
O159 C130 1.244 . S
O159 Zn131 2.053 . S
Zn160 O161 2.055 . S
Zn160 O168 2.046 . S
Zn160 N176 2.036 . S
Zn160 O188 2.053 . S
Zn160 O190 2.066 . S
O161 Zn160 2.055 . S
O161 C164 1.259 . S
C162 O190 1.256 . S
C162 O191 1.244 . S
Zn163 O165 2.046 . S
Zn163 O167 2.055 . S
Zn163 N169 2.036 . S
Zn163 O187 2.066 . S
Zn163 O191 2.053 . S
C164 O161 1.259 . S
C164 O165 1.254 . S
O165 Zn163 2.046 . S
O165 C164 1.254 . S
C166 O187 1.256 . S
C166 O188 1.244 . S
O167 Zn163 2.055 . S
O167 C189 1.259 . S
O168 Zn160 2.046 . S
O168 C189 1.254 . S
N169 Zn163 2.036 . S
N169 C170 1.298 . S
N169 N172 1.398 . S
C170 N169 1.298 . S
C170 N173 1.367 1_554 S
C170 C183 1.481 . S
C171 N172 1.299 . S
C171 N173 1.379 1_554 S
N172 N169 1.398 . S
N172 C171 1.299 . S
N173 C170 1.367 1_556 S
N173 C171 1.379 1_556 S
C174 N176 1.298 . S
C174 N178 1.367 . S
C174 C182 1.481 . S
C175 N177 1.299 . S
C175 N178 1.379 . S
N176 Zn160 2.036 . S
N176 C174 1.298 . S
N176 N177 1.398 . S
N177 C175 1.299 . S
N177 N176 1.398 . S
N178 C174 1.367 . S
N178 C175 1.379 . S
H179 C182 0.980 . S
H180 C182 0.981 . S
H181 C182 0.981 . S
C182 C174 1.481 . S
C182 H179 0.980 . S
C182 H180 0.981 . S
C182 H181 0.981 . S
C183 C170 1.481 . S
C183 H184 0.980 . S
C183 H185 0.981 1_554 S
C183 H186 0.981 . S
H184 C183 0.980 . S
H185 C183 0.981 1_556 S
H186 C183 0.981 . S
O187 Zn163 2.066 . S
O187 C166 1.256 . S
O188 Zn160 2.053 . S
O188 C166 1.244 . S
C189 O167 1.259 . S
C189 O168 1.254 . S
O190 Zn160 2.066 . S
O190 C162 1.256 . S
O191 C162 1.244 . S
O191 Zn163 2.053 . S
Zn192 O193 2.055 . S
Zn192 O200 2.046 . S
Zn192 N208 2.036 . S
Zn192 O220 2.053 . S
Zn192 O222 2.066 . S
O193 Zn192 2.055 . S
O193 C196 1.259 . S
C194 O222 1.256 . S
C194 O223 1.244 . S
Zn195 O197 2.046 . S
Zn195 O199 2.055 . S
Zn195 N201 2.036 . S
Zn195 O219 2.066 . S
Zn195 O223 2.053 . S
C196 O193 1.259 . S
C196 O197 1.254 . S
O197 Zn195 2.046 . S
O197 C196 1.254 . S
C198 O219 1.256 . S
C198 O220 1.244 . S
O199 Zn195 2.055 . S
O199 C221 1.259 . S
O200 Zn192 2.046 . S
O200 C221 1.254 . S
N201 Zn195 2.036 . S
N201 C202 1.298 . S
N201 N204 1.398 . S
C202 N201 1.298 . S
C202 N205 1.367 . S
C202 C215 1.481 . S
C203 N204 1.299 . S
C203 N205 1.379 . S
N204 N201 1.398 . S
N204 C203 1.299 . S
N205 C202 1.367 . S
N205 C203 1.379 . S
C206 N208 1.298 . S
C206 N210 1.367 1_556 S
C206 C214 1.481 . S
C207 N209 1.299 1_554 S
C207 N210 1.379 . S
N208 Zn192 2.036 . S
N208 C206 1.298 . S
N208 N209 1.398 . S
N209 C207 1.299 1_556 S
N209 N208 1.398 . S
N210 C206 1.367 1_554 S
N210 C207 1.379 . S
H211 C214 0.980 . S
H212 C214 0.981 1_554 S
H213 C214 0.981 . S
C214 C206 1.481 . S
C214 H211 0.980 . S
C214 H212 0.981 1_556 S
C214 H213 0.981 . S
C215 C202 1.481 . S
C215 H216 0.980 . S
C215 H217 0.981 . S
C215 H218 0.981 . S
H216 C215 0.980 . S
H217 C215 0.981 . S
H218 C215 0.981 . S
O219 Zn195 2.066 . S
O219 C198 1.256 . S
O220 Zn192 2.053 . S
O220 C198 1.244 . S
C221 O199 1.259 . S
C221 O200 1.254 . S
O222 Zn192 2.066 . S
O222 C194 1.256 . S
O223 C194 1.244 . S
O223 Zn195 2.053 . S
Zn224 O225 2.055 . S
Zn224 O232 2.046 . S
Zn224 N240 2.036 . S
Zn224 O252 2.053 . S
Zn224 O254 2.066 . S
O225 Zn224 2.055 . S
O225 C228 1.259 . S
C226 O254 1.256 . S
C226 O255 1.244 . S
Zn227 O229 2.046 . S
Zn227 O231 2.055 . S
Zn227 N233 2.036 . S
Zn227 O251 2.066 . S
Zn227 O255 2.053 . S
C228 O225 1.259 . S
C228 O229 1.254 . S
O229 Zn227 2.046 . S
O229 C228 1.254 . S
C230 O251 1.256 . S
C230 O252 1.244 . S
O231 Zn227 2.055 . S
O231 C253 1.259 . S
O232 Zn224 2.046 . S
O232 C253 1.254 . S
N233 Zn227 2.036 . S
N233 C234 1.298 . S
N233 N236 1.398 . S
C234 N233 1.298 . S
C234 N237 1.367 . S
C234 C247 1.481 . S
C235 N236 1.299 . S
C235 N237 1.379 . S
N236 N233 1.398 . S
N236 C235 1.299 . S
N237 C234 1.367 . S
N237 C235 1.379 . S
C238 N240 1.298 . S
C238 N242 1.367 1_556 S
C238 C246 1.481 . S
C239 N241 1.299 1_554 S
C239 N242 1.379 . S
N240 Zn224 2.036 . S
N240 C238 1.298 . S
N240 N241 1.398 . S
N241 C239 1.299 1_556 S
N241 N240 1.398 . S
N242 C238 1.367 1_554 S
N242 C239 1.379 . S
H243 C246 0.980 . S
H244 C246 0.981 . S
H245 C246 0.981 . S
C246 C238 1.481 . S
C246 H243 0.980 . S
C246 H244 0.981 . S
C246 H245 0.981 . S
C247 C234 1.481 . S
C247 H248 0.980 . S
C247 H249 0.981 . S
C247 H250 0.981 . S
H248 C247 0.980 . S
H249 C247 0.981 . S
H250 C247 0.981 . S
O251 Zn227 2.066 . S
O251 C230 1.256 . S
O252 Zn224 2.053 . S
O252 C230 1.244 . S
C253 O231 1.259 . S
C253 O232 1.254 . S
O254 Zn224 2.066 . S
O254 C226 1.256 . S
O255 C226 1.244 . S
O255 Zn227 2.053 . S
Zn256 O257 2.055 . S
Zn256 O264 2.046 . S
Zn256 N272 2.036 . S
Zn256 O284 2.053 . S
Zn256 O286 2.066 . S
O257 Zn256 2.055 . S
O257 C260 1.259 . S
C258 O286 1.256 . S
C258 O287 1.244 . S
Zn259 O261 2.046 . S
Zn259 O263 2.055 . S
Zn259 N265 2.036 . S
Zn259 O283 2.066 . S
Zn259 O287 2.053 . S
C260 O257 1.259 . S
C260 O261 1.254 . S
O261 Zn259 2.046 . S
O261 C260 1.254 . S
C262 O283 1.256 . S
C262 O284 1.244 . S
O263 Zn259 2.055 . S
O263 C285 1.259 . S
O264 Zn256 2.046 . S
O264 C285 1.254 . S
N265 Zn259 2.036 . S
N265 C266 1.298 . S
N265 N268 1.398 . S
C266 N265 1.298 . S
C266 N269 1.367 . S
C266 C279 1.481 . S
C267 N268 1.299 . S
C267 N269 1.379 . S
N268 N265 1.398 . S
N268 C267 1.299 . S
N269 C266 1.367 . S
N269 C267 1.379 . S
C270 N272 1.298 . S
C270 N274 1.367 1_556 S
C270 C278 1.481 . S
C271 N273 1.299 1_554 S
C271 N274 1.379 . S
N272 Zn256 2.036 . S
N272 C270 1.298 . S
N272 N273 1.398 . S
N273 C271 1.299 1_556 S
N273 N272 1.398 . S
N274 C270 1.367 1_554 S
N274 C271 1.379 . S
H275 C278 0.980 . S
H276 C278 0.981 1_554 S
H277 C278 0.981 . S
C278 C270 1.481 . S
C278 H275 0.980 . S
C278 H276 0.981 1_556 S
C278 H277 0.981 . S
C279 C266 1.481 . S
C279 H280 0.980 . S
C279 H281 0.981 . S
C279 H282 0.981 . S
H280 C279 0.980 . S
H281 C279 0.981 . S
H282 C279 0.981 . S
O283 Zn259 2.066 . S
O283 C262 1.256 . S
O284 Zn256 2.053 . S
O284 C262 1.244 . S
C285 O263 1.259 . S
C285 O264 1.254 . S
O286 Zn256 2.066 . S
O286 C258 1.256 . S
O287 C258 1.244 . S
O287 Zn259 2.053 . S
C288 C289 1.387 . S
C288 H292 0.950 . S
C288 C297 1.390 . S
C289 C288 1.387 . S
C289 C291 1.387 . S
H290 C297 0.950 . S
C291 C289 1.387 . S
C291 C293 1.390 . S
C291 H295 0.950 . S
H292 C288 0.950 . S
C293 C291 1.390 . S
C293 C294 1.387 . S
C293 H296 0.950 . S
C294 C293 1.387 . S
C294 C297 1.387 . S
H295 C291 0.950 . S
H296 C293 0.950 . S
C297 C288 1.390 . S
C297 H290 0.950 . S
C297 C294 1.387 . S
C298 C299 1.387 . S
C298 H302 0.950 . S
C298 C307 1.390 . S
C299 C298 1.387 . S
C299 C301 1.387 . S
H300 C307 0.950 . S
C301 C299 1.387 . S
C301 C303 1.390 . S
C301 H305 0.950 . S
H302 C298 0.950 . S
C303 C301 1.390 . S
C303 C304 1.387 . S
C303 H306 0.950 . S
C304 C303 1.387 . S
C304 C307 1.387 . S
H305 C301 0.950 . S
H306 C303 0.950 . S
C307 C298 1.390 . S
C307 H300 0.950 . S
C307 C304 1.387 . S
C308 C309 1.387 . S
C308 H312 0.950 . S
C308 C317 1.390 . S
C309 C308 1.387 . S
C309 C311 1.387 . S
H310 C317 0.950 . S
C311 C309 1.387 . S
C311 C313 1.390 . S
C311 H315 0.950 . S
H312 C308 0.950 . S
C313 C311 1.390 . S
C313 C314 1.387 . S
C313 H316 0.950 . S
C314 C313 1.387 . S
C314 C317 1.387 . S
H315 C311 0.950 . S
H316 C313 0.950 . S
C317 C308 1.390 . S
C317 H310 0.950 . S
C317 C314 1.387 . S
C318 C319 1.387 . S
C318 H322 0.950 . S
C318 C327 1.390 . S
C319 C318 1.387 . S
C319 C321 1.387 . S
H320 C327 0.950 . S
C321 C319 1.387 . S
C321 C323 1.390 . S
C321 H325 0.950 . S
H322 C318 0.950 . S
C323 C321 1.390 . S
C323 C324 1.387 . S
C323 H326 0.950 . S
C324 C323 1.387 . S
C324 C327 1.387 . S
H325 C321 0.950 . S
H326 C323 0.950 . S
C327 C318 1.390 . S
C327 H320 0.950 . S
C327 C324 1.387 . S
C328 C329 1.387 . S
C328 H332 0.950 . S
C328 C337 1.390 . S
C329 C328 1.387 . S
C329 C331 1.387 . S
H330 C337 0.950 . S
C331 C329 1.387 . S
C331 C333 1.390 . S
C331 H335 0.950 . S
H332 C328 0.950 . S
C333 C331 1.390 . S
C333 C334 1.387 . S
C333 H336 0.950 . S
C334 C333 1.387 . S
C334 C337 1.387 . S
H335 C331 0.950 . S
H336 C333 0.950 . S
C337 C328 1.390 . S
C337 H330 0.950 . S
C337 C334 1.387 . S
C338 C339 1.387 . S
C338 H342 0.950 . S
C338 C347 1.390 . S
C339 C338 1.387 . S
C339 C341 1.387 . S
H340 C347 0.950 . S
C341 C339 1.387 . S
C341 C343 1.390 . S
C341 H345 0.950 . S
H342 C338 0.950 . S
C343 C341 1.390 . S
C343 C344 1.387 . S
C343 H346 0.950 . S
C344 C343 1.387 . S
C344 C347 1.387 . S
H345 C341 0.950 . S
H346 C343 0.950 . S
C347 C338 1.390 . S
C347 H340 0.950 . S
C347 C344 1.387 . S
C348 C349 1.387 1_655 S
C348 H352 0.950 . S
C348 C357 1.390 . S
C349 C348 1.387 1_455 S
C349 C351 1.387 . S
H350 C357 0.950 . S
C351 C349 1.387 . S
C351 C353 1.390 1_455 S
C351 H355 0.950 . S
H352 C348 0.950 . S
C353 C351 1.390 1_655 S
C353 C354 1.387 . S
C353 H356 0.950 . S
C354 C353 1.387 . S
C354 C357 1.387 . S
H355 C351 0.950 . S
H356 C353 0.950 . S
C357 C348 1.390 . S
C357 H350 0.950 . S
C357 C354 1.387 . S
C358 C359 1.387 . S
C358 H362 0.950 . S
C358 C367 1.390 . S
C359 C358 1.387 . S
C359 C361 1.387 . S
H360 C367 0.950 . S
C361 C359 1.387 . S
C361 C363 1.390 . S
C361 H365 0.950 . S
H362 C358 0.950 . S
C363 C361 1.390 . S
C363 C364 1.387 . S
C363 H366 0.950 . S
C364 C363 1.387 . S
C364 C367 1.387 . S
H365 C361 0.950 . S
H366 C363 0.950 . S
C367 C358 1.390 . S
C367 H360 0.950 . S
C367 C364 1.387 . S
C368 C369 1.387 1_565 S
C368 H372 0.950 . S
C368 C377 1.390 . S
C369 C368 1.387 1_545 S
C369 C371 1.387 . S
H370 C377 0.950 . S
C371 C369 1.387 . S
C371 C373 1.390 . S
C371 H375 0.950 . S
H372 C368 0.950 . S
C373 C371 1.390 . S
C373 C374 1.390 . S
C373 H376 0.950 . S
C374 C373 1.390 . S
C374 C377 1.386 1_545 S
H375 C371 0.950 . S
H376 C373 0.950 . S
C377 C368 1.390 . S
C377 H370 0.950 . S
C377 C374 1.386 1_565 S
C378 C379 1.387 1_556 S
C378 H382 0.950 . S
C378 C387 1.390 . S
C379 C378 1.387 1_554 S
C379 C381 1.387 . S
H380 C387 0.950 . S
C381 C379 1.387 . S
C381 C383 1.390 . S
C381 H385 0.950 . S
H382 C378 0.950 . S
C383 C381 1.390 . S
C383 C384 1.387 . S
C383 H386 0.950 . S
C384 C383 1.387 . S
C384 C387 1.387 1_554 S
H385 C381 0.950 . S
H386 C383 0.950 . S
C387 C378 1.390 . S
C387 H380 0.950 . S
C387 C384 1.387 1_556 S
C388 C389 1.387 1_545 S
C388 H392 0.950 1_545 S
C388 C397 1.390 . S
C389 C388 1.387 1_565 S
C389 C391 1.387 1_564 S
H390 C397 0.950 . S
C391 C389 1.387 1_546 S
C391 C393 1.390 . S
C391 H395 0.950 1_545 S
H392 C388 0.950 1_565 S
C393 C391 1.390 . S
C393 C394 1.387 1_556 S
C393 H396 0.950 . S
C394 C393 1.387 1_554 S
C394 C397 1.387 . S
H395 C391 0.950 1_565 S
H396 C393 0.950 . S
C397 C388 1.390 . S
C397 H390 0.950 . S
C397 C394 1.387 . S
C398 C399 1.387 . S
C398 H402 0.950 . S
C398 C407 1.390 1_655 S
C399 C398 1.387 . S
C399 C401 1.387 1_554 S
H400 C407 0.950 . S
C401 C399 1.387 1_556 S
C401 C403 1.390 1_655 S
C401 H405 0.950 . S
H402 C398 0.950 . S
C403 C401 1.390 1_455 S
C403 C404 1.388 . S
C403 H406 0.950 . S
C404 C403 1.388 . S
C404 C407 1.386 1_556 S
H405 C401 0.950 . S
H406 C403 0.950 . S
C407 C398 1.390 1_455 S
C407 H400 0.950 . S
C407 C404 1.386 1_554 S
C408 C409 1.387 . S
C408 H412 0.950 . S
C408 C417 1.390 . S
C409 C408 1.387 . S
C409 C411 1.387 . S
H410 C417 0.950 . S
C411 C409 1.387 . S
C411 C413 1.390 . S
C411 H415 0.950 . S
H412 C408 0.950 . S
C413 C411 1.390 . S
C413 C414 1.387 . S
C413 H416 0.950 . S
C414 C413 1.387 . S
C414 C417 1.387 . S
H415 C411 0.950 . S
H416 C413 0.950 . S
C417 C408 1.390 . S
C417 H410 0.950 . S
C417 C414 1.387 . S
C418 C419 1.387 . S
C418 H422 0.950 . S
C418 C427 1.390 . S
C419 C418 1.387 . S
C419 C421 1.387 . S
H420 C427 0.950 . S
C421 C419 1.387 . S
C421 C423 1.390 . S
C421 H425 0.950 . S
H422 C418 0.950 . S
C423 C421 1.390 . S
C423 C424 1.387 . S
C423 H426 0.950 . S
C424 C423 1.387 . S
C424 C427 1.387 . S
H425 C421 0.950 . S
H426 C423 0.950 . S
C427 C418 1.390 . S
C427 H420 0.950 . S
C427 C424 1.387 . S
C428 C429 1.387 . S
C428 H432 0.950 . S
C428 C437 1.390 . S
C429 C428 1.387 . S
C429 C431 1.387 . S
H430 C437 0.950 . S
C431 C429 1.387 . S
C431 C433 1.390 . S
C431 H435 0.950 . S
H432 C428 0.950 . S
C433 C431 1.390 . S
C433 C434 1.387 . S
C433 H436 0.950 . S
C434 C433 1.387 . S
C434 C437 1.387 . S
H435 C431 0.950 . S
H436 C433 0.950 . S
C437 C428 1.390 . S
C437 H430 0.950 . S
C437 C434 1.387 . S
C438 C439 1.387 . S
C438 H442 0.950 . S
C438 C447 1.390 . S
C439 C438 1.387 . S
C439 C441 1.387 . S
H440 C447 0.950 . S
C441 C439 1.387 . S
C441 C443 1.390 . S
C441 H445 0.950 . S
H442 C438 0.950 . S
C443 C441 1.390 . S
C443 C444 1.387 . S
C443 H446 0.950 . S
C444 C443 1.387 . S
C444 C447 1.387 . S
H445 C441 0.950 . S
H446 C443 0.950 . S
C447 C438 1.390 . S
C447 H440 0.950 . S
C447 C444 1.387 . S
C448 C449 1.387 . S
C448 H452 0.950 . S
C448 C457 1.390 . S
C449 C448 1.387 . S
C449 C451 1.387 . S
H450 C457 0.950 . S
C451 C449 1.387 . S
C451 C453 1.390 . S
C451 H455 0.950 . S
H452 C448 0.950 . S
C453 C451 1.390 . S
C453 C454 1.387 . S
C453 H456 0.950 . S
C454 C453 1.387 . S
C454 C457 1.387 . S
H455 C451 0.950 . S
H456 C453 0.950 . S
C457 C448 1.390 . S
C457 H450 0.950 . S
C457 C454 1.387 . S
C458 C459 1.387 . S
C458 H462 0.950 . S
C458 C467 1.390 . S
C459 C458 1.387 . S
C459 C461 1.387 . S
H460 C467 0.950 . S
C461 C459 1.387 . S
C461 C463 1.390 . S
C461 H465 0.950 . S
H462 C458 0.950 . S
C463 C461 1.390 . S
C463 C464 1.387 . S
C463 H466 0.950 . S
C464 C463 1.387 . S
C464 C467 1.387 . S
H465 C461 0.950 . S
H466 C463 0.950 . S
C467 C458 1.390 . S
C467 H460 0.950 . S
C467 C464 1.387 . S
C468 C469 1.382 . S
C468 H472 0.950 . S
C468 C477 1.390 1_655 S
C469 C468 1.382 . S
C469 C471 1.377 1_655 S
H470 C477 0.950 . S
C471 C469 1.377 1_455 S
C471 C473 1.390 . S
C471 H475 0.950 . S
H472 C468 0.950 . S
C473 C471 1.390 . S
C473 C474 1.387 . S
C473 H476 0.950 . S
C474 C473 1.387 . S
C474 C477 1.387 . S
H475 C471 0.950 . S
H476 C473 0.950 . S
C477 C468 1.390 1_455 S
C477 H470 0.950 . S
C477 C474 1.387 . S
C478 C479 1.387 . S
C478 H482 0.950 . S
C478 C487 1.390 . S
C479 C478 1.387 . S
C479 C481 1.387 . S
H480 C487 0.950 . S
C481 C479 1.387 . S
C481 C483 1.390 . S
C481 H485 0.950 . S
H482 C478 0.950 . S
C483 C481 1.390 . S
C483 C484 1.387 . S
C483 H486 0.950 . S
C484 C483 1.387 . S
C484 C487 1.387 . S
H485 C481 0.950 . S
H486 C483 0.950 . S
C487 C478 1.390 . S
C487 H480 0.950 . S
C487 C484 1.387 . S
C488 C489 1.387 . S
C488 H492 0.950 . S
C488 C497 1.390 . S
C489 C488 1.387 . S
C489 C491 1.387 1_545 S
H490 C497 0.950 . S
C491 C489 1.387 1_565 S
C491 C493 1.390 . S
C491 H495 0.950 . S
H492 C488 0.950 . S
C493 C491 1.390 . S
C493 C494 1.387 . S
C493 H496 0.950 . S
C494 C493 1.387 . S
C494 C497 1.387 1_565 S
H495 C491 0.950 . S
H496 C493 0.950 . S
C497 C488 1.390 . S
C497 H490 0.950 . S
C497 C494 1.387 1_545 S
C498 C499 1.387 . S
C498 H502 0.950 . S
C498 C507 1.390 . S
C499 C498 1.387 . S
C499 C501 1.387 . S
H500 C507 0.950 . S
C501 C499 1.387 . S
C501 C503 1.390 . S
C501 H505 0.950 . S
H502 C498 0.950 . S
C503 C501 1.390 . S
C503 C504 1.387 . S
C503 H506 0.950 . S
C504 C503 1.387 . S
C504 C507 1.387 . S
H505 C501 0.950 . S
H506 C503 0.950 . S
C507 C498 1.390 . S
C507 H500 0.950 . S
C507 C504 1.387 . S
C508 C509 1.387 . S
C508 H512 0.950 . S
C508 C517 1.390 . S
C509 C508 1.387 . S
C509 C511 1.387 . S
H510 C517 0.950 . S
C511 C509 1.387 . S
C511 C513 1.390 . S
C511 H515 0.950 . S
H512 C508 0.950 . S
C513 C511 1.390 . S
C513 C514 1.387 . S
C513 H516 0.950 . S
C514 C513 1.387 . S
C514 C517 1.387 . S
H515 C511 0.950 . S
H516 C513 0.950 . S
C517 C508 1.390 . S
C517 H510 0.950 . S
C517 C514 1.387 . S
C518 C519 1.387 . S
C518 H522 0.950 . S
C518 C527 1.390 . S
C519 C518 1.387 . S
C519 C521 1.387 . S
H520 C527 0.950 . S
C521 C519 1.387 . S
C521 C523 1.390 . S
C521 H525 0.950 . S
H522 C518 0.950 . S
C523 C521 1.390 . S
C523 C524 1.387 . S
C523 H526 0.950 . S
C524 C523 1.387 . S
C524 C527 1.387 . S
H525 C521 0.950 . S
H526 C523 0.950 . S
C527 C518 1.390 . S
C527 H520 0.950 . S
C527 C524 1.387 . S
C528 C529 1.387 . S
C528 H532 0.950 . S
C528 C537 1.390 . S
C529 C528 1.387 . S
C529 C531 1.387 . S
H530 C537 0.950 . S
C531 C529 1.387 . S
C531 C533 1.390 . S
C531 H535 0.950 . S
H532 C528 0.950 . S
C533 C531 1.390 . S
C533 C534 1.387 . S
C533 H536 0.950 . S
C534 C533 1.387 . S
C534 C537 1.387 . S
H535 C531 0.950 . S
H536 C533 0.950 . S
C537 C528 1.390 . S
C537 H530 0.950 . S
C537 C534 1.387 . S
C538 C539 1.387 . S
C538 H542 0.950 . S
C538 C547 1.390 . S
C539 C538 1.387 . S
C539 C541 1.387 . S
H540 C547 0.950 . S
C541 C539 1.387 . S
C541 C543 1.390 . S
C541 H545 0.950 . S
H542 C538 0.950 . S
C543 C541 1.390 . S
C543 C544 1.387 . S
C543 H546 0.950 . S
C544 C543 1.387 . S
C544 C547 1.387 . S
H545 C541 0.950 . S
H546 C543 0.950 . S
C547 C538 1.390 . S
C547 H540 0.950 . S
C547 C544 1.387 . S
C548 C549 1.387 . S
C548 H552 0.950 . S
C548 C557 1.390 . S
C549 C548 1.387 . S
C549 C551 1.387 . S
H550 C557 0.950 . S
C551 C549 1.387 . S
C551 C553 1.390 . S
C551 H555 0.950 . S
H552 C548 0.950 . S
C553 C551 1.390 . S
C553 C554 1.387 . S
C553 H556 0.950 . S
C554 C553 1.387 . S
C554 C557 1.387 . S
H555 C551 0.950 . S
H556 C553 0.950 . S
C557 C548 1.390 . S
C557 H550 0.950 . S
C557 C554 1.387 . S
C289 C6 1.915 1_556 S
C294 C226 1.925 . S
C299 C36 1.780 1_556 S
C304 C285 1.785 . S
C309 C66 1.881 . S
C314 C221 1.842 . S
C319 C132 1.592 . S
C324 C68 1.588 . S
C329 C164 1.715 . S
C334 C29 1.714 . S
C339 C34 1.853 . S
C344 C125 1.815 . S
C349 C228 1.864 . S
C354 C162 1.903 . S
C359 C262 1.984 . S
C364 C102 1.986 . S
C369 C130 2.119 . S
C374 C198 2.135 1_545 S
C379 C93 1.362 . S
C384 C2 1.363 . S
C389 C61 1.352 . S
C394 C4 1.351 . S
C399 C38 1.389 . S
C404 C70 1.390 . S
C409 C100 1.388 . S
C414 C166 1.392 . S
C419 C98 1.422 . S
C424 C157 1.418 . S
C429 C134 1.394 . S
C434 C189 1.388 . S
C439 C260 1.435 . S
C444 C194 1.443 . S
C449 C253 1.375 . S
C454 C196 1.374 . S
C459 C258 1.415 . S
C464 C230 1.414 . S
C469 N13 1.421 . S
C474 N18 1.346 . S
C479 N45 1.221 . S
C484 N50 1.271 . S
C489 N82 1.200 . S
C494 N77 1.158 . S
C499 N109 1.397 . S
C504 N114 1.331 . S
C509 N146 1.323 . S
C514 N141 1.266 . S
C519 N178 1.284 . S
C524 N173 1.231 . S
C529 N205 1.460 . S
C534 N210 1.388 . S
C539 N242 1.388 . S
C544 N237 1.324 . S
C549 N269 1.246 . S
C554 N274 1.199 . S
