# Generated by pormake.
# Topology umj, (4)-cn, num edge types: 1
# Building blocks:
#     Node 0, Type 0, BuildingBlock: ESEHIV_clean_sbu_0, # of connection points: 4
#     Node 1, Type 0, BuildingBlock: ESEHIV_clean_sbu_0, # of connection points: 4
#     Node 2, Type 0, BuildingBlock: ESEHIV_clean_sbu_0, # of connection points: 4
#     Node 3, Type 0, BuildingBlock: ESEHIV_clean_sbu_0, # of connection points: 4
#     Node 4, Type 0, BuildingBlock: ESEHIV_clean_sbu_0, # of connection points: 4
#     Node 5, Type 0, BuildingBlock: ESEHIV_clean_sbu_0, # of connection points: 4
#     Node 6, Type 0, BuildingBlock: ESEHIV_clean_sbu_0, # of connection points: 4
#     Node 7, Type 0, BuildingBlock: ESEHIV_clean_sbu_0, # of connection points: 4
#     Node 8, Type 0, BuildingBlock: ESEHIV_clean_sbu_0, # of connection points: 4
#     Node 9, Type 0, BuildingBlock: ESEHIV_clean_sbu_0, # of connection points: 4
#     Node 10, Type 0, BuildingBlock: ESEHIV_clean_sbu_0, # of connection points: 4
#     Node 11, Type 0, BuildingBlock: ESEHIV_clean_sbu_0, # of connection points: 4
#     Edge 12, Type (0, 0), BuildingBlock: KIFKEQ_clean_linker_1, # of connection points: 2
#     Edge 13, Type (0, 0), BuildingBlock: KIFKEQ_clean_linker_1, # of connection points: 2
#     Edge 14, Type (0, 0), BuildingBlock: KIFKEQ_clean_linker_1, # of connection points: 2
#     Edge 15, Type (0, 0), BuildingBlock: KIFKEQ_clean_linker_1, # of connection points: 2
#     Edge 16, Type (0, 0), BuildingBlock: KIFKEQ_clean_linker_1, # of connection points: 2
#     Edge 17, Type (0, 0), BuildingBlock: KIFKEQ_clean_linker_1, # of connection points: 2
#     Edge 18, Type (0, 0), BuildingBlock: KIFKEQ_clean_linker_1, # of connection points: 2
#     Edge 19, Type (0, 0), BuildingBlock: KIFKEQ_clean_linker_1, # of connection points: 2
#     Edge 20, Type (0, 0), BuildingBlock: KIFKEQ_clean_linker_1, # of connection points: 2
#     Edge 21, Type (0, 0), BuildingBlock: KIFKEQ_clean_linker_1, # of connection points: 2
#     Edge 22, Type (0, 0), BuildingBlock: KIFKEQ_clean_linker_1, # of connection points: 2
#     Edge 23, Type (0, 0), BuildingBlock: KIFKEQ_clean_linker_1, # of connection points: 2
#     Edge 24, Type (0, 0), BuildingBlock: KIFKEQ_clean_linker_1, # of connection points: 2
#     Edge 25, Type (0, 0), BuildingBlock: KIFKEQ_clean_linker_1, # of connection points: 2
#     Edge 26, Type (0, 0), BuildingBlock: KIFKEQ_clean_linker_1, # of connection points: 2
#     Edge 27, Type (0, 0), BuildingBlock: KIFKEQ_clean_linker_1, # of connection points: 2
#     Edge 28, Type (0, 0), BuildingBlock: KIFKEQ_clean_linker_1, # of connection points: 2
#     Edge 29, Type (0, 0), BuildingBlock: KIFKEQ_clean_linker_1, # of connection points: 2
#     Edge 30, Type (0, 0), BuildingBlock: KIFKEQ_clean_linker_1, # of connection points: 2
#     Edge 31, Type (0, 0), BuildingBlock: KIFKEQ_clean_linker_1, # of connection points: 2
#     Edge 32, Type (0, 0), BuildingBlock: KIFKEQ_clean_linker_1, # of connection points: 2
#     Edge 33, Type (0, 0), BuildingBlock: KIFKEQ_clean_linker_1, # of connection points: 2
#     Edge 34, Type (0, 0), BuildingBlock: KIFKEQ_clean_linker_1, # of connection points: 2
#     Edge 35, Type (0, 0), BuildingBlock: KIFKEQ_clean_linker_1, # of connection points: 2
# Relax obj value: 0.040
# Max RMSD: 0.097
# Mean RMSD: 0.085
data_MOF--net-umj--node1-ESEHIV_clean_sbu_0--edge1-KIFKEQ_clean_linker_1
_symmetry_space_group_name_H-M    P1
_symmetry_Int_Tables_number       1
_symmetry_cell_setting            triclinic
loop_
_symmetry_equiv_pos_as_xyz
'x, y, z'
_cell_length_a     29.796621
_cell_length_b     34.82634
_cell_length_c     90.071824
_cell_angle_alpha  89.73597
_cell_angle_beta   90.107457
_cell_angle_gamma 115.42363
loop_
_atom_site_label
_atom_site_type_symbol
_atom_site_fract_x
_atom_site_fract_y
_atom_site_fract_z
_atom_type_partial_charge
Cu0 Cu 0.03347 0.27724 0.09131 0.0
N1 N 0.9983 0.21997 0.08611 0.0
N2 N 0.9853 0.15204 0.08356 0.0
C3 C 1.00851 0.18832 0.09137 0.0
C4 C 0.95853 0.16111 0.07315 0.0
C5 C 0.9669 0.20309 0.07469 0.0
O6 O 0.08906 0.3026 0.07753 0.0
C7 C 1.01203 0.26109 0.12088 0.0
O8 O 0.96787 0.24129 0.11482 0.0
H9 H 0.03503 0.1928 0.10017 0.0
H10 H 0.95384 0.22079 0.06735 0.0
N11 N 0.99713 0.30898 0.08863 0.0
N12 N 0.98432 0.36758 0.08683 0.0
C13 C 1.01731 0.35158 0.08987 0.0
C14 C 0.94946 0.29732 0.08472 0.0
C15 C 0.94148 0.33352 0.08354 0.0
C16 C 0.1097 0.28159 0.07128 0.0
O17 O 0.10164 0.244 0.07657 0.0
H18 H 0.056 0.37052 0.09258 0.0
H19 H 0.92256 0.26496 0.08277 0.0
O20 O 0.04942 0.28004 0.11239 0.0
H21 H 0.93735 0.13994 0.06437 0.0
H22 H 0.90684 0.33463 0.08059 0.0
Cu23 Cu 0.80488 0.08308 0.42667 0.0
N24 N 0.81384 0.09767 0.44686 0.0
N25 N 0.80645 0.08909 0.47154 0.0
C26 C 0.79328 0.07014 0.45816 0.0
C27 C 0.83665 0.13017 0.46854 0.0
C28 C 0.84144 0.1353 0.45332 0.0
O29 O 0.73322 0.05185 0.4235 0.0
C30 C 0.89259 0.07567 0.42421 0.0
O31 O 0.90772 0.11554 0.4282 0.0
H32 H 0.7689 0.03683 0.45656 0.0
H33 H 0.86429 0.16426 0.44746 0.0
N34 N 0.82593 0.13013 0.41383 0.0
N35 N 0.84372 0.16624 0.39231 0.0
C36 C 0.83309 0.12861 0.39911 0.0
C37 C 0.83209 0.17006 0.41648 0.0
C38 C 0.84329 0.19242 0.40328 0.0
C39 C 0.70871 0.07296 0.42693 0.0
O40 O 0.73318 0.11138 0.43233 0.0
H41 H 0.82884 0.09988 0.39347 0.0
H42 H 0.82723 0.18187 0.42714 0.0
O43 O 0.846 0.05311 0.42248 0.0
H44 H 0.85502 0.15451 0.47675 0.0
H45 H 0.85033 0.22541 0.40194 0.0
Cu46 Cu 0.8205 0.76245 0.77218 0.0
N47 N 0.88843 0.79377 0.76811 0.0
N48 N 0.96542 0.84662 0.76851 0.0
C49 C 0.92069 0.82856 0.77536 0.0
C50 C 0.96094 0.82212 0.75652 0.0
C51 C 0.91345 0.78988 0.75624 0.0
O52 O 0.78339 0.77976 0.75782 0.0
C53 C 0.82731 0.7558 0.8026 0.0
O54 O 0.85254 0.735 0.79809 0.0
H55 H 0.91097 0.84102 0.78521 0.0
H56 H 0.89758 0.76638 0.74761 0.0
N57 N 0.80076 0.70388 0.76975 0.0
N58 N 0.75395 0.63335 0.77038 0.0
C59 C 0.75566 0.6723 0.77287 0.0
C60 C 0.82854 0.68434 0.76515 0.0
C61 C 0.79988 0.64105 0.76548 0.0
C62 C 0.79942 0.81788 0.75307 0.0
O63 O 0.83885 0.84751 0.75934 0.0
H64 H 0.7252 0.67792 0.77722 0.0
H65 H 0.86718 0.7003 0.76197 0.0
O66 O 0.80898 0.77175 0.79288 0.0
H67 H 0.98914 0.82826 0.74811 0.0
H68 H 0.81216 0.6172 0.76228 0.0
Cu69 Cu 1.00615 0.76732 0.0912 0.0
N70 N 0.03994 0.8247 0.08592 0.0
N71 N 0.05148 0.89227 0.08325 0.0
C72 C 1.0273 0.85531 0.0907 0.0
C73 C 0.08122 0.88469 0.07354 0.0
C74 C 0.07376 0.84289 0.07514 0.0
O75 O 0.95133 0.7418 0.07731 0.0
C76 C 1.02779 0.78337 0.12063 0.0
O77 O 0.07165 0.80336 0.11438 0.0
H78 H 0.99908 0.84979 0.09904 0.0
H79 H 0.08964 0.82633 0.06835 0.0
N80 N 0.04318 0.73622 0.08855 0.0
N81 N 0.05586 0.67757 0.08642 0.0
C82 C 1.0225 0.6935 0.08897 0.0
C83 C 0.09165 0.74825 0.0857 0.0
C84 C 0.09961 0.71208 0.08439 0.0
C85 C 0.92555 0.76002 0.0722 0.0
O86 O 0.92709 0.79404 0.07884 0.0
H87 H 0.98349 0.67464 0.09127 0.0
H88 H 0.11912 0.78083 0.08459 0.0
O89 O 0.99015 0.76411 0.11228 0.0
H90 H 0.10435 0.90687 0.06523 0.0
H91 H 0.13478 0.71143 0.08191 0.0
Cu92 Cu 0.23794 0.95009 0.42432 0.0
N93 N 0.22844 0.93379 0.44435 0.0
N94 N 0.23295 0.94258 0.469 0.0
C95 C 0.24429 0.96182 0.45559 0.0
C96 C 0.20894 0.90061 0.46608 0.0
C97 C 0.20593 0.89528 0.45085 0.0
O98 O 0.30981 0.98138 0.42151 0.0
C99 C 0.15088 0.95847 0.4226 0.0
O100 O 0.13579 0.91834 0.42637 0.0
H101 H 0.26417 0.99581 0.45391 0.0
H102 H 0.18796 0.86551 0.445 0.0
N103 N 0.21676 0.90487 0.41084 0.0
N104 N 0.20028 0.87353 0.38855 0.0
C105 C 0.20923 0.90921 0.3963 0.0
C106 C 0.2124 0.86496 0.4124 0.0
C107 C 0.20214 0.84553 0.39868 0.0
C108 C 0.33389 0.95966 0.4247 0.0
O109 O 0.30884 0.92052 0.42952 0.0
H110 H 0.2127 0.93881 0.39142 0.0
H111 H 0.21834 0.85141 0.42261 0.0
O112 O 0.1974 0.98097 0.42068 0.0
H113 H 0.19364 0.87564 0.47434 0.0
H114 H 0.19725 0.81352 0.39633 0.0
Cu115 Cu 0.32992 0.25367 0.78212 0.0
N116 N 0.30852 0.19609 0.78698 0.0
N117 N 0.25819 0.12636 0.78798 0.0
C118 C 0.26746 0.16408 0.78146 0.0
C119 C 0.29503 0.13511 0.798 0.0
C120 C 0.32572 0.17814 0.79745 0.0
O121 O 0.31447 0.25541 0.76109 0.0
C122 C 0.31609 0.28375 0.80912 0.0
O123 O 0.35602 0.27777 0.8117 0.0
H124 H 0.24441 0.16865 0.77298 0.0
H125 H 0.35716 0.19528 0.80459 0.0
N126 N 0.3991 0.28568 0.78412 0.0
N127 N 0.47361 0.34186 0.78429 0.0
C128 C 0.42415 0.32813 0.78223 0.0
C129 C 0.43393 0.27203 0.78739 0.0
C130 C 0.47977 0.30653 0.78755 0.0
C131 C 0.3413 0.24487 0.7525 0.0
O132 O 0.37464 0.23418 0.75844 0.0
H133 H 0.40625 0.34851 0.7795 0.0
H134 H 0.42673 0.23924 0.78926 0.0
O135 O 0.29689 0.27592 0.79617 0.0
H136 H 0.29842 0.11241 0.80564 0.0
H137 H 0.51504 0.30546 0.78956 0.0
Cu138 Cu 0.72934 0.96487 0.61787 0.0
N139 N 0.7238 0.94844 0.59788 0.0
N140 N 0.72663 0.95492 0.5731 0.0
C141 C 0.72517 0.97322 0.58618 0.0
C142 C 0.72531 0.9168 0.57672 0.0
C143 C 0.7239 0.91302 0.59201 0.0
O144 O 0.68647 0.99431 0.62081 0.0
C145 C 0.83454 1.01575 0.61318 0.0
O146 O 0.82239 0.02247 0.59973 0.0
H147 H 0.72721 1.00487 0.58728 0.0
H148 H 0.72534 0.88717 0.59837 0.0
N149 N 0.70791 0.91809 0.63086 0.0
N150 N 0.70268 0.88152 0.65184 0.0
C151 C 0.72216 0.92009 0.64516 0.0
C152 C 0.67818 0.87679 0.62837 0.0
C153 C 0.67498 0.85416 0.64128 0.0
C154 C 0.63963 0.97108 0.62018 0.0
O155 O 0.62402 0.93017 0.61782 0.0
H156 H 0.74743 0.94927 0.65043 0.0
H157 H 0.66013 0.86397 0.61793 0.0
O158 O 0.80027 0.99649 0.62263 0.0
H159 H 0.72809 0.89435 0.56893 0.0
H160 H 0.65367 0.82024 0.64277 0.0
Cu161 Cu 0.77678 0.77029 0.9432 0.0
N162 N 0.79966 0.82831 0.94701 0.0
N163 N 0.8537 0.89685 0.94834 0.0
C164 C 0.84346 0.85857 0.94228 0.0
C165 C 0.81438 0.89036 0.95713 0.0
C166 C 0.78128 0.84798 0.95636 0.0
O167 O 0.80069 0.74622 0.95917 0.0
C168 C 0.77616 0.77695 0.91298 0.0
O169 O 0.74568 0.79327 0.91702 0.0
H170 H 0.86799 0.85215 0.93489 0.0
H171 H 0.74743 0.83228 0.96271 0.0
N172 N 0.70768 0.74094 0.94404 0.0
N173 N 0.63345 0.68478 0.94429 0.0
C174 C 0.6832 0.69828 0.94377 0.0
C175 C 0.67235 0.75522 0.94472 0.0
C176 C 0.62644 0.72059 0.94492 0.0
C177 C 0.8443 0.76332 0.96458 0.0
O178 O 0.87908 0.7956 0.95764 0.0
H179 H 0.70183 0.67762 0.94335 0.0
H180 H 0.67936 0.78836 0.94487 0.0
O181 O 0.79663 0.76407 0.92307 0.0
H182 H 0.81093 0.91399 0.9642 0.0
H183 H 0.59075 0.72177 0.94522 0.0
Cu184 Cu 0.03768 0.77513 0.26241 0.0
N185 N 1.00267 0.80619 0.26808 0.0
N186 N 0.99068 0.86479 0.27134 0.0
C187 C 1.01332 0.84575 0.26319 0.0
C188 C 0.96373 0.83553 0.28157 0.0
C189 C 0.9715 0.79951 0.2796 0.0
O190 O 0.09459 0.79219 0.27566 0.0
C191 C 1.01332 0.77457 0.23307 0.0
O192 O 0.96963 0.76106 0.23951 0.0
H193 H 0.03971 0.86111 0.25438 0.0
H194 H 0.95824 0.77174 0.28672 0.0
N195 N 1.00208 0.71671 0.26536 0.0
N196 N 0.9894 0.64871 0.2671 0.0
C197 C 1.02269 0.68917 0.26451 0.0
C198 C 0.95387 0.69303 0.26858 0.0
C199 C 0.94596 0.65098 0.26972 0.0
C200 C 0.1197 0.83022 0.28 0.0
O201 O 0.1151 0.86138 0.27293 0.0
H202 H 0.06172 0.69894 0.26223 0.0
H203 H 0.92643 0.70535 0.26992 0.0
O204 O 0.05162 0.78397 0.24123 0.0
H205 H 0.94289 0.84085 0.29052 0.0
H206 H 0.91084 0.62418 0.27206 0.0
Cu207 Cu 0.28731 0.08933 0.61247 0.0
N208 N 0.29721 0.10199 0.59216 0.0
N209 N 0.29766 0.08988 0.56776 0.0
C210 C 0.29848 0.07508 0.58162 0.0
C211 C 0.29569 0.12752 0.56969 0.0
C212 C 0.29473 0.13462 0.5847 0.0
O213 O 0.32848 0.05955 0.61762 0.0
C214 C 0.18765 0.04783 0.62567 0.0
O215 O 0.20846 0.05189 0.63876 0.0
H216 H 0.29778 0.04438 0.58409 0.0
H217 H 0.28897 0.16025 0.58972 0.0
N218 N 0.30751 0.13902 0.62406 0.0
N219 N 0.31945 0.18122 0.64385 0.0
C220 C 0.30094 0.14083 0.63882 0.0
C221 C 0.33221 0.17985 0.61969 0.0
C222 C 0.33944 0.20586 0.63182 0.0
C223 C 0.37533 0.08257 0.61851 0.0
O224 O 0.39204 0.12383 0.61663 0.0
H225 H 0.28471 0.11314 0.64588 0.0
H226 H 0.34524 0.19022 0.60856 0.0
O227 O 0.21475 0.05776 0.61405 0.0
H228 H 0.29171 0.14711 0.56089 0.0
H229 H 0.35798 0.24025 0.63176 0.0
Cu230 Cu 0.23395 0.29441 0.9386 0.0
N231 N 0.21665 0.23621 0.93791 0.0
N232 N 0.16815 0.16629 0.93888 0.0
C233 C 0.17258 0.20552 0.94224 0.0
C234 C 0.21151 0.1727 0.93228 0.0
C235 C 0.24137 0.21591 0.9317 0.0
O236 O 0.19701 0.30226 0.95525 0.0
C237 C 0.19064 0.28784 0.90984 0.0
O238 O 0.15816 0.25036 0.91445 0.0
H239 H 0.14331 0.21211 0.947 0.0
H240 H 0.27778 0.23149 0.92668 0.0
N241 N 0.30165 0.32492 0.94248 0.0
N242 N 0.37522 0.38135 0.94457 0.0
C243 C 0.32926 0.36569 0.93855 0.0
C244 C 0.33117 0.31395 0.9511 0.0
C245 C 0.37668 0.34867 0.95238 0.0
C246 C 0.21395 0.33434 0.96384 0.0
O247 O 0.25407 0.36808 0.95997 0.0
H248 H 0.31499 0.38384 0.93186 0.0
H249 H 0.31967 0.28351 0.9566 0.0
O250 O 0.22209 0.31277 0.91905 0.0
H251 H 0.22072 0.14806 0.92793 0.0
H252 H 0.40744 0.35027 0.95917 0.0
Cu253 Cu 1.01668 0.26596 0.26293 0.0
N254 N 0.05265 0.23417 0.26661 0.0
N255 N 0.06333 0.1746 0.26914 0.0
C256 C 0.03037 0.19168 0.26837 0.0
C257 C 0.1084 0.20803 0.26794 0.0
C258 C 0.10169 0.24471 0.26632 0.0
O259 O 0.96253 0.24535 0.27741 0.0
C260 C 0.03565 0.27155 0.23321 0.0
O261 O 0.08041 0.28879 0.23902 0.0
H262 H 0.99042 0.17368 0.26871 0.0
H263 H 0.13044 0.27633 0.26435 0.0
N264 N 0.05183 0.32469 0.26584 0.0
N265 N 0.06233 0.39213 0.26782 0.0
C266 C 0.03133 0.35206 0.26385 0.0
C267 C 0.09766 0.34814 0.27122 0.0
C268 C 0.1043 0.38978 0.27241 0.0
C269 C 0.9766 0.25805 0.29062 0.0
O270 O 1.02365 0.28317 0.29299 0.0
H271 H 0.99393 0.34233 0.25973 0.0
H272 H 0.12372 0.33576 0.27458 0.0
O273 O 0.99832 0.25824 0.24196 0.0
H274 H 0.14365 0.20608 0.26755 0.0
H275 H 0.13685 0.41586 0.27684 0.0
H276 H 0.95239 0.25435 0.21609 0.0
H277 H 0.1078 0.2815 0.21319 0.0
H278 H 0.94713 0.25266 0.18896 0.0
H279 H 0.1023 0.27827 0.18635 0.0
H280 H 0.09116 0.31245 0.13813 0.0
H281 H 0.09551 0.31532 0.16521 0.0
H282 H 0.94753 0.21305 0.16774 0.0
H283 H 0.94267 0.21142 0.14081 0.0
C284 C 0.98523 0.25953 0.20968 0.0
C285 C 0.03049 0.26825 0.21682 0.0
C286 C 0.98228 0.25842 0.19411 0.0
C287 C 1.02442 0.26558 0.18536 0.0
C288 C 0.06934 0.27358 0.19261 0.0
C289 C 0.07237 0.2751 0.20808 0.0
C290 C 0.05971 0.29053 0.1445 0.0
C291 C 1.01662 0.26179 0.1373 0.0
C292 C 0.06216 0.29202 0.16005 0.0
C293 C 1.02176 0.26444 0.16877 0.0
C294 C 0.97899 0.23537 0.16149 0.0
C295 C 0.97639 0.2342 0.14599 0.0
H296 H 0.78965 1.00882 0.47928 0.0
H297 H 0.79173 0.12478 0.49658 0.0
H298 H 0.76887 0.97628 0.50383 0.0
H299 H 0.76894 0.09203 0.52105 0.0
H300 H 0.78092 0.03794 0.56626 0.0
H301 H 0.79903 0.07004 0.54166 0.0
H302 H 0.70822 0.94772 0.52217 0.0
H303 H 0.69197 0.91558 0.54689 0.0
C304 C 0.78491 0.02714 0.48831 0.0
C305 C 0.79249 0.06942 0.48599 0.0
C306 C 0.77276 1.00845 0.50243 0.0
C307 C 0.76712 0.03134 0.51459 0.0
C308 C 0.77394 0.07351 0.51213 0.0
C309 C 0.78683 0.09236 0.49807 0.0
C310 C 0.76441 1.01804 0.55672 0.0
C311 C 0.73489 0.97422 0.55853 0.0
C312 C 0.77469 0.03646 0.54255 0.0
C313 C 0.75516 1.01168 0.52976 0.0
C314 C 0.72485 0.96786 0.53164 0.0
C315 C 0.7152 0.94935 0.54583 0.0
H316 H 0.84506 0.71169 0.82511 0.0
H317 H 0.79438 0.80877 0.81666 0.0
H318 H 0.83365 0.7168 0.85159 0.0
H319 H 0.78488 0.81532 0.84332 0.0
H320 H 0.72187 0.78485 0.88992 0.0
H321 H 0.73467 0.78007 0.86356 0.0
H322 H 0.86423 0.75834 0.87305 0.0
H323 H 0.84989 0.7614 0.89966 0.0
C324 C 0.83187 0.73448 0.82892 0.0
C325 C 0.82046 0.75974 0.81874 0.0
C326 C 0.82569 0.73765 0.84418 0.0
C327 C 0.8084 0.76652 0.84973 0.0
C328 C 0.79744 0.79215 0.83951 0.0
C329 C 0.8031 0.7886 0.8242 0.0
C330 C 0.75315 0.77903 0.88642 0.0
C331 C 0.78491 0.77352 0.89692 0.0
C332 C 0.76075 0.77663 0.87122 0.0
C333 C 0.80074 0.76915 0.86604 0.0
C334 C 0.83262 0.76361 0.87657 0.0
C335 C 0.82461 0.76553 0.89185 0.0
H336 H 0.09891 0.83201 0.14017 0.0
H337 H 0.94855 0.73372 0.13832 0.0
H338 H 0.09561 0.83063 0.16709 0.0
H339 H 0.94568 0.73128 0.16546 0.0
H340 H 0.93981 0.76736 0.21374 0.0
H341 H 0.94258 0.76996 0.1868 0.0
H342 H 0.09576 0.78901 0.188 0.0
H343 H 0.09333 0.78776 0.21513 0.0
C344 C 0.06509 0.8099 0.14552 0.0
C345 C 1.02395 0.78292 0.13706 0.0
C346 C 0.06338 0.80888 0.16102 0.0
C347 C 1.02058 0.78064 0.16854 0.0
C348 C 0.97914 0.75384 0.16007 0.0
C349 C 0.98075 0.75508 0.1445 0.0
C350 C 0.97421 0.77223 0.20829 0.0
C351 C 1.01642 0.7774 0.21662 0.0
C352 C 0.97564 0.77337 0.19278 0.0
C353 C 1.01926 0.77946 0.18513 0.0
C354 C 0.06164 0.78481 0.19348 0.0
C355 C 0.06029 0.78396 0.20905 0.0
H356 H 0.2509 1.00482 0.56297 0.0
H357 H 0.33251 0.12517 0.54097 0.0
H358 H 0.23631 0.96851 0.53915 0.0
H359 H 0.31943 0.08904 0.51716 0.0
H360 H 0.2383 1.02004 0.47571 0.0
H361 H 0.25609 0.05495 0.49974 0.0
H362 H 0.27041 0.94675 0.51894 0.0
H363 H 0.25112 0.91141 0.49484 0.0
C364 C 0.26656 0.02344 0.55307 0.0
C365 C 0.29268 0.06793 0.55386 0.0
C366 C 0.25825 1.00262 0.53936 0.0
C367 C 0.27626 0.02573 0.52611 0.0
C368 C 0.30385 0.07015 0.52702 0.0
C369 C 0.31165 0.09095 0.54069 0.0
C370 C 0.24558 1.00383 0.48504 0.0
C371 C 0.24344 0.96299 0.48334 0.0
C372 C 0.25601 0.02393 0.49885 0.0
C373 C 0.26516 1.00396 0.51137 0.0
C374 C 0.26296 0.96299 0.50965 0.0
C375 C 0.25198 0.94269 0.49583 0.0
H376 H 0.36252 0.32661 0.8337 0.0
H377 H 0.21761 0.26704 0.81333 0.0
H378 H 0.32543 0.33524 0.85658 0.0
H379 H 0.17983 0.27627 0.83647 0.0
H380 H 0.14171 0.2352 0.88685 0.0
H381 H 0.16701 0.24277 0.86093 0.0
H382 H 0.28209 0.36815 0.86998 0.0
H383 H 0.25769 0.36009 0.89605 0.0
C384 C 0.32264 0.31618 0.83402 0.0
C385 C 0.29297 0.29581 0.82174 0.0
C386 C 0.3013 0.32148 0.84716 0.0
C387 C 0.24949 0.30635 0.84847 0.0
C388 C 0.21983 0.28796 0.8359 0.0
C389 C 0.24143 0.28298 0.82261 0.0
C390 C 0.17169 0.26483 0.88328 0.0
C391 C 0.19827 0.2967 0.89364 0.0
C392 C 0.18606 0.26926 0.86833 0.0
C393 C 0.22723 0.30576 0.86337 0.0
C394 C 0.25093 0.33918 0.87348 0.0
C395 C 0.23674 0.33467 0.88843 0.0
H396 H 0.12587 0.35435 0.05565 0.0
H397 H 0.14337 0.23766 0.05281 0.0
H398 H 0.14983 0.36937 0.02956 0.0
H399 H 0.16736 0.25283 0.02685 0.0
H400 H 0.14406 0.2635 0.97746 0.0
H401 H 0.12231 0.25397 1.00371 0.0
H402 H 0.22029 0.38579 1.01175 0.0
H403 H 0.24204 0.39554 0.98542 0.0
C404 C 0.13564 0.33227 0.04956 0.0
C405 C 0.13238 0.29464 0.05634 0.0
C406 C 0.1493 0.34088 0.0346 0.0
C407 C 0.15961 0.31191 0.02606 0.0
C408 C 0.15857 0.27533 0.03303 0.0
C409 C 0.14531 0.26688 0.04798 0.0
C410 C 0.16046 0.29068 0.98475 0.0
C411 C 0.19498 0.33027 0.97929 0.0
C412 C 0.14838 0.28508 0.99984 0.0
C413 C 0.1702 0.31895 1.00987 0.0
C414 C 0.20286 0.35906 1.00432 0.0
C415 C 0.21528 0.36462 0.98922 0.0
H416 H 0.87287 0.12471 0.37163 0.0
H417 H 0.83488 0.23042 0.37714 0.0
H418 H 0.89311 0.1444 0.34566 0.0
H419 H 0.85586 0.2503 0.35126 0.0
H420 H 0.97783 0.30496 0.3144 0.0
H421 H 0.93653 0.28003 0.33812 0.0
H422 H 0.86052 0.15312 0.32044 0.0
H423 H 0.9022 0.17859 0.29641 0.0
C424 C 0.86806 0.15173 0.36731 0.0
C425 C 0.85281 0.17624 0.37666 0.0
C426 C 0.87952 0.16292 0.35237 0.0
C427 C 0.87628 0.19902 0.3464 0.0
C428 C 0.85934 0.22261 0.35557 0.0
C429 C 0.84764 0.21133 0.37047 0.0
C430 C 0.95131 0.27194 0.31545 0.0
C431 C 0.94309 0.24371 0.30358 0.0
C432 C 0.92753 0.25765 0.32905 0.0
C433 C 0.8954 0.21453 0.33122 0.0
C434 C 0.88535 0.18649 0.31912 0.0
C435 C 0.90869 0.20107 0.30535 0.0
H436 H 0.7202 0.76417 0.73635 0.0
H437 H 0.83206 0.89401 0.73846 0.0
H438 H 0.692 0.77926 0.71249 0.0
H439 H 0.80508 0.90871 0.71451 0.0
H440 H 0.72434 0.9333 0.67581 0.0
H441 H 0.74202 0.91786 0.70099 0.0
H442 H 0.71906 0.79204 0.68726 0.0
H443 H 0.70058 0.80739 0.66216 0.0
C444 C 0.73857 0.79601 0.73179 0.0
C445 C 0.77852 0.82781 0.73934 0.0
C446 C 0.72268 0.80459 0.71802 0.0
C447 C 0.74643 0.84516 0.71143 0.0
C448 C 0.78537 0.87724 0.71924 0.0
C449 C 0.80107 0.86872 0.73301 0.0
C450 C 0.72315 0.90238 0.67816 0.0
C451 C 0.71128 0.8717 0.6669 0.0
C452 C 0.73334 0.89348 0.69262 0.0
C453 C 0.73227 0.85371 0.69624 0.0
C454 C 0.71952 0.82277 0.68502 0.0
C455 C 0.70902 0.83161 0.67057 0.0
H456 H 0.8571 0.78207 0.05895 0.0
H457 H 0.94818 0.71559 0.05086 0.0
H458 H 0.83373 0.775 0.03267 0.0
H459 H 0.92566 0.70959 0.0246 0.0
H460 H 0.93318 0.78076 0.9782 0.0
H461 H 0.94725 0.77174 1.00453 0.0
H462 H 0.78909 0.71496 1.01229 0.0
H463 H 0.77473 0.72291 0.98596 0.0
C464 C 0.87138 0.7653 0.05164 0.0
C465 C 0.90448 0.74943 0.05702 0.0
C466 C 0.858 0.76125 0.03661 0.0
C467 C 0.87823 0.74202 0.02661 0.0
C468 C 0.9098 0.72475 0.03207 0.0
C469 C 0.92234 0.72797 0.04713 0.0
C470 C 0.90139 0.76557 0.98546 0.0
C471 C 0.85289 0.75255 0.97997 0.0
C472 C 0.90943 0.76036 1.00051 0.0
C473 C 0.86921 0.74283 1.01042 0.0
C474 C 0.8207 0.72871 1.00488 0.0
C475 C 0.81259 0.73306 0.98979 0.0
H476 H 0.12192 0.77138 0.29995 0.0
H477 H 0.17018 0.9065 0.29399 0.0
H478 H 0.14585 0.78279 0.32598 0.0
H479 H 0.19535 0.91802 0.31996 0.0
H480 H 0.16321 0.91407 0.36992 0.0
H481 H 0.15183 0.9051 0.34321 0.0
H482 H 0.21075 0.81136 0.34423 0.0
H483 H 0.22178 0.82019 0.37105 0.0
C484 C 0.13877 0.80366 0.30409 0.0
C485 C 0.14361 0.83797 0.29487 0.0
C486 C 0.15261 0.81023 0.31905 0.0
C487 C 0.17181 0.85128 0.32518 0.0
C488 C 0.17957 0.88586 0.31572 0.0
C489 C 0.1656 0.87929 0.30076 0.0
C490 C 0.17421 0.89184 0.36445 0.0
C491 C 0.19336 0.86785 0.37269 0.0
C492 C 0.16787 0.88679 0.34909 0.0
C493 C 0.18066 0.85768 0.34149 0.0
C494 C 0.19998 0.83374 0.34971 0.0
C495 C 0.2062 0.83873 0.36512 0.0
H496 H 0.38604 0.25372 0.65666 0.0
H497 H 0.2521 0.14 0.66541 0.0
H498 H 0.38792 0.27518 0.68247 0.0
H499 H 0.25461 0.16112 0.69136 0.0
H500 H 0.25743 0.22797 0.73569 0.0
H501 H 0.24896 0.21644 0.70867 0.0
H502 H 0.40505 0.24602 0.70578 0.0
H503 H 0.41329 0.25723 0.73243 0.0
C504 C 0.35669 0.23349 0.66403 0.0
C505 C 0.3192 0.19491 0.65896 0.0
C506 C 0.35791 0.2457 0.67886 0.0
C507 C 0.32151 0.21979 0.68898 0.0
C508 C 0.28297 0.18195 0.68382 0.0
C509 C 0.28195 0.16957 0.66899 0.0
C510 C 0.28994 0.23273 0.72918 0.0
C511 C 0.33596 0.24338 0.73615 0.0
C512 C 0.28507 0.22581 0.71377 0.0
C513 C 0.32637 0.23029 0.70509 0.0
C514 C 0.37264 0.24273 0.71207 0.0
C515 C 0.37728 0.24893 0.72738 0.0
H516 H 0.12266 0.64368 0.08934 0.0
H517 H 0.96659 0.60951 0.08233 0.0
H518 H 0.1056 0.56879 0.08885 0.0
H519 H 0.94931 0.53496 0.08272 0.0
H520 H 0.93972 0.40545 0.06972 0.0
H521 H 0.95806 0.48076 0.06902 0.0
H522 H 0.06864 0.5055 0.1033 0.0
H523 H 0.05087 0.43044 0.10373 0.0
C524 C 0.08474 0.6204 0.0877 0.0
C525 C 0.04611 0.63309 0.08596 0.0
C526 C 0.07482 0.57726 0.0876 0.0
C527 C 1.02597 0.54557 0.08582 0.0
C528 C 0.98747 0.5583 0.08395 0.0
C529 C 0.9974 0.60134 0.08396 0.0
C530 C 0.96767 0.42696 0.07717 0.0
C531 C 0.99389 0.41191 0.08675 0.0
C532 C 0.97824 0.47021 0.07679 0.0
C533 C 1.01501 0.49948 0.08608 0.0
C534 C 0.04085 0.48422 0.09576 0.0
C535 C 0.03053 0.44107 0.09605 0.0
H536 H 0.64276 0.99489 0.41609 0.0
H537 H 0.65039 0.11292 0.4335 0.0
H538 H 0.55246 0.96824 0.41364 0.0
H539 H 0.561 0.08621 0.4314 0.0
H540 H 0.40141 0.03995 0.41595 0.0
H541 H 0.49201 0.06699 0.41464 0.0
H542 H 0.48069 0.94495 0.42941 0.0
H543 H 0.39108 0.91794 0.43037 0.0
C544 C 0.62528 1.01511 0.41939 0.0
C545 C 0.65393 0.05594 0.42505 0.0
C546 C 0.5735 0.99985 0.41804 0.0
C547 C 0.54924 0.02508 0.42232 0.0
C548 C 0.5782 0.06609 0.42776 0.0
C549 C 0.62968 0.08126 0.42909 0.0
C550 C 0.41835 1.01892 0.41881 0.0
C551 C 0.38885 0.97687 0.42333 0.0
C552 C 0.4703 0.0344 0.41813 0.0
C553 C 0.49387 1.00816 0.42193 0.0
C554 C 0.46408 0.96594 0.42617 0.0
C555 C 0.41245 0.95056 0.42685 0.0
H556 H 0.47245 0.40616 0.76726 0.0
H557 H 0.56244 0.37549 0.79845 0.0
H558 H 0.53929 0.47753 0.76426 0.0
H559 H 0.62887 0.44673 0.79563 0.0
H560 H 0.75807 0.55751 0.77444 0.0
H561 H 0.68925 0.48821 0.77784 0.0
H562 H 0.58618 0.54532 0.776 0.0
H563 H 0.65529 0.61485 0.77188 0.0
C564 C 0.50622 0.41477 0.77362 0.0
C565 C 0.51213 0.38484 0.783 0.0
C566 C 0.54461 0.45579 0.77192 0.0
C567 C 0.58985 0.46799 0.7796 0.0
C568 C 0.59513 0.43831 0.78925 0.0
C569 C 0.55693 0.39734 0.7909 0.0
C570 C 0.72085 0.55551 0.77458 0.0
C571 C 0.71261 0.59215 0.77279 0.0
C572 C 0.68119 0.51559 0.77676 0.0
C573 C 0.63193 0.51094 0.77729 0.0
C574 C 0.62352 0.54752 0.77553 0.0
C575 C 0.66332 0.58759 0.77332 0.0
H576 H 0.47015 0.1233 0.62866 0.0
H577 H 0.36412 1.00116 0.61283 0.0
H578 H 0.53354 0.09709 0.63024 0.0
H579 H 0.42829 0.97511 0.61373 0.0
H580 H 0.54186 0.92775 0.62722 0.0
H581 H 0.4781 0.95354 0.62812 0.0
H582 H 0.58752 0.07949 0.61629 0.0
H583 H 0.65195 0.05366 0.6161 0.0
C584 C 0.46034 0.09069 0.6255 0.0
C585 C 0.41191 0.06432 0.62063 0.0
C586 C 0.49703 0.07572 0.62627 0.0
C587 C 0.48677 0.03397 0.62197 0.0
C588 C 0.43785 1.00727 0.61735 0.0
C589 C 0.40084 1.02217 0.61679 0.0
C590 C 0.55248 0.96108 0.62491 0.0
C591 C 0.60217 0.98863 0.62157 0.0
C592 C 0.5156 0.97587 0.62529 0.0
C593 C 0.52696 1.01866 0.62214 0.0
C594 C 0.57702 0.04644 0.61901 0.0
C595 C 0.61417 0.03167 0.61883 0.0
H596 H 0.47466 0.40975 0.94872 0.0
H597 H 0.36093 0.45236 0.93955 0.0
H598 H 0.53718 0.4834 0.94885 0.0
H599 H 0.4235 0.52558 0.93905 0.0
H600 H 0.5401 0.65379 0.95565 0.0
H601 H 0.47769 0.58011 0.95563 0.0
H602 H 0.57947 0.54314 0.93233 0.0
H603 H 0.64176 0.61665 0.9324 0.0
C604 C 0.46294 0.43471 0.94669 0.0
C605 C 0.41263 0.42488 0.9441 0.0
C606 C 0.49889 0.47698 0.94661 0.0
C607 C 0.48542 0.51052 0.94397 0.0
C608 C 0.43517 0.50065 0.94131 0.0
C609 C 0.39928 0.45845 0.94138 0.0
C610 C 0.54902 0.63003 0.95042 0.0
C611 C 0.59609 0.64126 0.94407 0.0
C612 C 0.51322 0.58772 0.9504 0.0
C613 C 0.52353 0.55558 0.944 0.0
C614 C 0.57051 0.56688 0.93759 0.0
C615 C 0.6063 0.60913 0.93763 0.0
H616 H 0.93985 0.57525 0.28249 0.0
H617 H 0.06056 0.63716 0.25162 0.0
H618 H 0.95762 0.51307 0.28292 0.0
H619 H 0.07808 0.57508 0.25193 0.0
H620 H 0.12881 0.47536 0.26737 0.0
H621 H 0.11077 0.53725 0.26761 0.0
H622 H 0.95348 0.45477 0.26796 0.0
H623 H 0.97144 0.39306 0.26844 0.0
C624 C 0.96985 0.57546 0.27568 0.0
C625 C 0.99889 0.61135 0.26708 0.0
C626 C 0.98008 0.53978 0.27592 0.0
C627 C 1.01948 0.53902 0.26751 0.0
C628 C 0.04813 0.57479 0.25879 0.0
C629 C 0.03801 0.61045 0.2586 0.0
C630 C 0.09039 0.47035 0.26765 0.0
C631 C 0.0517 0.42898 0.26784 0.0
C632 C 0.07999 0.50592 0.26761 0.0
C633 C 0.03061 0.50112 0.26775 0.0
C634 C 0.99195 0.45978 0.26801 0.0
C635 C 1.00233 0.42424 0.26807 0.0
H636 H 0.06841 0.14629 0.0935 0.0
H637 H 0.92229 0.07199 0.07541 0.0
H638 H 0.08417 0.08328 0.09414 0.0
H639 H 0.93866 1.00901 0.07563 0.0
H640 H 0.96636 0.89652 0.09186 0.0
H641 H 0.95032 0.95934 0.09273 0.0
H642 H 0.09892 0.03618 0.07676 0.0
H643 H 0.11552 0.97333 0.07633 0.0
C644 C 0.03938 0.11646 0.08979 0.0
C645 C 0.99388 0.11426 0.08447 0.0
C646 C 0.04873 0.08038 0.08997 0.0
C647 C 1.0128 0.04107 0.08489 0.0
C648 C 0.96703 0.03869 0.07975 0.0
C649 C 0.95776 0.07486 0.07951 0.0
C650 C 0.99595 0.92684 0.08874 0.0
C651 C 0.04242 0.92981 0.08409 0.0
C652 C 0.98647 0.96284 0.08905 0.0
C653 C 1.02324 1.00284 0.08478 0.0
C654 C 0.06988 1.00594 0.08026 0.0
C655 C 0.07929 0.96985 0.07988 0.0
H656 H 0.99193 0.1161 0.42969 0.0
H657 H 0.87846 0.996 0.41466 0.0
H658 H 0.05368 0.08839 0.428 0.0
H659 H 0.94109 0.9684 0.41246 0.0
H660 H 0.05185 0.91783 0.42849 0.0
H661 H 0.99018 0.94576 0.42757 0.0
H662 H 0.10219 0.06679 0.41233 0.0
H663 H 0.16482 0.03892 0.41375 0.0
C664 C 0.98013 0.08379 0.42585 0.0
C665 C 0.92995 0.05821 0.42239 0.0
C666 C 1.01589 0.06797 0.42475 0.0
C667 C 1.00277 0.02607 0.42007 0.0
C668 C 0.95264 1.00064 0.41632 0.0
C669 C 0.91664 1.01648 0.41751 0.0
C670 C 0.06355 0.95042 0.42488 0.0
C671 C 0.11358 0.97619 0.42127 0.0
C672 C 1.02782 0.96637 0.42422 0.0
C673 C 0.0408 1.0086 0.41985 0.0
C674 C 0.09077 0.03427 0.41596 0.0
C675 C 0.12675 1.01828 0.4167 0.0
H676 H 0.25459 0.0478 0.79194 0.0
H677 H 0.16605 0.11268 0.77838 0.0
H678 H 0.18339 0.97939 0.78804 0.0
H679 H 0.09525 0.04437 0.77418 0.0
H680 H 0.96457 0.91481 0.78287 0.0
H681 H 0.0357 0.98228 0.7881 0.0
H682 H 0.13326 0.93572 0.76743 0.0
H683 H 0.06232 0.868 0.7625 0.0
C684 C 0.21995 0.04751 0.78815 0.0
C685 C 0.21621 0.08585 0.78546 0.0
C686 C 0.17922 1.00827 0.7858 0.0
C687 C 0.13353 1.00632 0.7808 0.0
C688 C 0.12971 0.04465 0.77817 0.0
C689 C 0.17054 0.08388 0.78041 0.0
C690 C 1.00123 0.91873 0.77962 0.0
C691 C 1.00765 0.8859 0.77225 0.0
C692 C 0.04198 0.95762 0.78247 0.0
C693 C 0.09024 0.96454 0.77814 0.0
C694 C 0.09673 0.93141 0.77102 0.0
C695 C 0.05597 0.89269 0.76807 0.0
H696 H 0.9171 0.06069 0.59637 0.0
H697 H 0.87067 0.98791 0.63699 0.0
H698 H 1.00089 0.06683 0.59987 0.0
H699 H 0.9543 0.99287 0.64028 0.0
H700 H 0.12313 0.04309 0.64807 0.0
H701 H 0.0389 0.0372 0.64579 0.0
H702 H 0.04608 0.02538 0.59822 0.0
H703 H 0.13083 0.0327 0.60048 0.0
C704 C 0.9248 0.04617 0.60612 0.0
C705 C 0.88694 0.0238 0.61639 0.0
C706 C 0.97289 0.04925 0.60804 0.0
C707 C 0.98459 0.02978 0.62025 0.0
C708 C 0.94705 1.00855 0.63079 0.0
C709 C 0.89892 1.00569 0.6289 0.0
C710 C 0.10657 0.03875 0.63712 0.0
C711 C 0.13403 0.03852 0.62445 0.0
C712 C 0.05805 0.03531 0.63582 0.0
C713 C 0.03549 0.03133 0.6218 0.0
C714 C 0.06242 0.02949 0.60918 0.0
C715 C 0.11099 0.03321 0.61048 0.0
H716 H 0.86511 0.97794 0.95149 0.0
H717 H 0.94581 0.90338 0.94203 0.0
H718 H 0.94199 0.04292 0.9494 0.0
H719 H 1.02258 0.96811 0.94003 0.0
H720 H 0.14047 0.09498 0.92219 0.0
H721 H 0.06435 0.02959 0.92445 0.0
H722 H 1.01991 0.08203 0.96198 0.0
H723 H 0.09591 0.14751 0.95963 0.0
C724 C 0.89926 0.97538 0.94905 0.0
C725 C 0.8991 0.93538 0.94687 0.0
C726 C 0.94343 1.01264 0.94789 0.0
C727 C 0.98863 1.01084 0.94456 0.0
C728 C 0.98841 0.97081 0.94237 0.0
C729 C 0.94426 0.9336 0.94349 0.0
C730 C 0.1148 0.09241 0.93103 0.0
C731 C 0.12435 0.12665 0.9407 0.0
C732 C 0.07104 0.05486 0.93233 0.0
C733 C 0.03574 0.05052 0.94336 0.0
C734 C 0.04572 0.08452 0.95317 0.0
C735 C 0.08941 0.12208 0.95185 0.0
H736 H 0.07499 0.9314 0.2621 0.0
H737 H 0.92845 0.8991 0.27973 0.0
H738 H 0.09182 1.00618 0.26174 0.0
H739 H 0.94586 0.97444 0.27975 0.0
H740 H 0.9771 0.10742 0.2613 0.0
H741 H 0.959 0.03248 0.26212 0.0
H742 H 0.1062 0.06427 0.27914 0.0
H743 H 0.12438 0.13953 0.27848 0.0
C744 C 0.04612 0.94015 0.26579 0.0
C745 C 1.00011 0.90908 0.27083 0.0
C746 C 0.0561 0.9832 0.26578 0.0
C747 C 1.0203 0.99638 0.27077 0.0
C748 C 0.97414 0.96534 0.27573 0.0
C749 C 0.96425 0.92221 0.27582 0.0
C750 C 1.00554 0.09867 0.26543 0.0
C751 C 0.05232 0.1299 0.26986 0.0
C752 C 0.99506 0.0555 0.26587 0.0
C753 C 0.03111 0.04231 0.27068 0.0
C754 C 0.0778 0.07339 0.27518 0.0
C755 C 0.08825 0.11661 0.27479 0.0
loop_
_geom_bond_atom_site_label_1
_geom_bond_atom_site_label_2
_geom_bond_distance
_geom_bond_site_symmetry_2
_ccdc_geom_bond_type
Cu0 N1 1.999 . S
Cu0 O6 1.974 1_655 S
Cu0 N11 1.985 . S
Cu0 O20 1.959 . S
N1 Cu0 1.999 . S
N1 C3 1.263 . S
N1 C5 1.389 . S
N2 C3 1.358 . S
N2 C4 1.400 . S
C3 N1 1.263 . S
C3 N2 1.358 . S
C3 H9 0.930 1_655 S
C4 N2 1.400 . S
C4 C5 1.351 . S
C4 H21 0.930 . S
C5 N1 1.389 . S
C5 C4 1.351 . S
C5 H10 0.930 . S
O6 Cu0 1.974 1_455 S
O6 C16 1.282 . S
C7 O8 1.261 1_655 S
C7 O20 1.251 . S
O8 C7 1.261 1_455 S
H9 C3 0.930 1_455 S
H10 C5 0.930 . S
N11 Cu0 1.985 . S
N11 C13 1.335 . S
N11 C14 1.390 1_655 S
N12 C13 1.345 . S
N12 C15 1.336 1_655 S
C13 N11 1.335 . S
C13 N12 1.345 . S
C13 H18 0.930 . S
C14 N11 1.390 1_455 S
C14 C15 1.346 . S
C14 H19 0.930 . S
C15 N12 1.336 1_455 S
C15 C14 1.346 . S
C15 H22 0.929 . S
C16 O6 1.282 . S
C16 O17 1.216 . S
O17 C16 1.216 . S
H18 C13 0.930 . S
H19 C14 0.930 . S
O20 Cu0 1.959 . S
O20 C7 1.251 . S
H21 C4 0.930 . S
H22 C15 0.929 . S
Cu23 N24 1.999 . S
Cu23 O29 1.974 . S
Cu23 N34 1.985 . S
Cu23 O43 1.959 . S
N24 Cu23 1.999 . S
N24 C26 1.263 . S
N24 C28 1.389 . S
N25 C26 1.358 . S
N25 C27 1.400 . S
C26 N24 1.263 . S
C26 N25 1.358 . S
C26 H32 0.930 . S
C27 N25 1.400 . S
C27 C28 1.351 . S
C27 H44 0.930 . S
C28 N24 1.389 . S
C28 C27 1.351 . S
C28 H33 0.930 . S
O29 Cu23 1.974 . S
O29 C39 1.282 . S
C30 O31 1.261 1_545 S
C30 O43 1.251 . S
O31 C30 1.261 1_565 S
H32 C26 0.930 . S
H33 C28 0.930 . S
N34 Cu23 1.985 . S
N34 C36 1.335 . S
N34 C37 1.390 . S
N35 C36 1.345 . S
N35 C38 1.336 . S
C36 N34 1.335 . S
C36 N35 1.345 . S
C36 H41 0.930 . S
C37 N34 1.390 . S
C37 C38 1.346 . S
C37 H42 0.930 . S
C38 N35 1.336 . S
C38 C37 1.346 . S
C38 H45 0.929 . S
C39 O29 1.282 . S
C39 O40 1.216 1_545 S
O40 C39 1.216 1_565 S
H41 C36 0.930 . S
H42 C37 0.930 . S
O43 Cu23 1.959 . S
O43 C30 1.251 . S
H44 C27 0.930 . S
H45 C38 0.929 . S
Cu46 N47 1.999 . S
Cu46 O52 1.974 . S
Cu46 N57 1.985 . S
Cu46 O66 1.959 . S
N47 Cu46 1.999 . S
N47 C49 1.263 . S
N47 C51 1.389 . S
N48 C49 1.358 . S
N48 C50 1.400 . S
C49 N47 1.263 . S
C49 N48 1.358 . S
C49 H55 0.930 . S
C50 N48 1.400 . S
C50 C51 1.351 . S
C50 H67 0.930 . S
C51 N47 1.389 . S
C51 C50 1.351 . S
C51 H56 0.930 . S
O52 Cu46 1.974 . S
O52 C62 1.282 . S
C53 O54 1.261 . S
C53 O66 1.251 . S
O54 C53 1.261 . S
H55 C49 0.930 . S
H56 C51 0.930 . S
N57 Cu46 1.985 . S
N57 C59 1.335 . S
N57 C60 1.390 . S
N58 C59 1.345 . S
N58 C61 1.336 . S
C59 N57 1.335 . S
C59 N58 1.345 . S
C59 H64 0.930 . S
C60 N57 1.390 . S
C60 C61 1.346 . S
C60 H65 0.930 . S
C61 N58 1.336 . S
C61 C60 1.346 . S
C61 H68 0.929 . S
C62 O52 1.282 . S
C62 O63 1.216 . S
O63 C62 1.216 . S
H64 C59 0.930 . S
H65 C60 0.930 . S
O66 Cu46 1.959 . S
O66 C53 1.251 . S
H67 C50 0.930 . S
H68 C61 0.929 . S
Cu69 N70 1.999 . S
Cu69 O75 1.974 1_455 S
Cu69 N80 1.985 . S
Cu69 O89 1.959 . S
N70 Cu69 1.999 . S
N70 C72 1.263 . S
N70 C74 1.389 . S
N71 C72 1.358 . S
N71 C73 1.400 . S
C72 N70 1.263 . S
C72 N71 1.358 . S
C72 H78 0.930 1_455 S
C73 N71 1.400 . S
C73 C74 1.351 . S
C73 H90 0.930 . S
C74 N70 1.389 . S
C74 C73 1.351 . S
C74 H79 0.930 . S
O75 Cu69 1.974 1_655 S
O75 C85 1.282 . S
C76 O77 1.261 1_455 S
C76 O89 1.251 . S
O77 C76 1.261 1_655 S
H78 C72 0.930 1_655 S
H79 C74 0.930 . S
N80 Cu69 1.985 . S
N80 C82 1.335 . S
N80 C83 1.390 1_455 S
N81 C82 1.345 . S
N81 C84 1.336 1_455 S
C82 N80 1.335 . S
C82 N81 1.345 . S
C82 H87 0.930 . S
C83 N80 1.390 1_655 S
C83 C84 1.346 . S
C83 H88 0.930 . S
C84 N81 1.336 1_655 S
C84 C83 1.346 . S
C84 H91 0.929 . S
C85 O75 1.282 . S
C85 O86 1.216 . S
O86 C85 1.216 . S
H87 C82 0.930 . S
H88 C83 0.930 . S
O89 Cu69 1.959 . S
O89 C76 1.251 . S
H90 C73 0.930 . S
H91 C84 0.929 . S
Cu92 N93 1.999 . S
Cu92 O98 1.974 . S
Cu92 N103 1.985 . S
Cu92 O112 1.959 . S
N93 Cu92 1.999 . S
N93 C95 1.263 . S
N93 C97 1.389 . S
N94 C95 1.358 . S
N94 C96 1.400 . S
C95 N93 1.263 . S
C95 N94 1.358 . S
C95 H101 0.930 . S
C96 N94 1.400 . S
C96 C97 1.351 . S
C96 H113 0.930 . S
C97 N93 1.389 . S
C97 C96 1.351 . S
C97 H102 0.930 . S
O98 Cu92 1.974 . S
O98 C108 1.282 . S
C99 O100 1.261 1_565 S
C99 O112 1.251 . S
O100 C99 1.261 1_545 S
H101 C95 0.930 . S
H102 C97 0.930 . S
N103 Cu92 1.985 . S
N103 C105 1.335 . S
N103 C106 1.390 . S
N104 C105 1.345 . S
N104 C107 1.336 . S
C105 N103 1.335 . S
C105 N104 1.345 . S
C105 H110 0.930 . S
C106 N103 1.390 . S
C106 C107 1.346 . S
C106 H111 0.930 . S
C107 N104 1.336 . S
C107 C106 1.346 . S
C107 H114 0.929 . S
C108 O98 1.282 . S
C108 O109 1.216 1_565 S
O109 C108 1.216 1_545 S
H110 C105 0.930 . S
H111 C106 0.930 . S
O112 Cu92 1.959 . S
O112 C99 1.251 . S
H113 C96 0.930 . S
H114 C107 0.929 . S
Cu115 N116 1.999 . S
Cu115 O121 1.974 . S
Cu115 N126 1.985 . S
Cu115 O135 1.959 . S
N116 Cu115 1.999 . S
N116 C118 1.263 . S
N116 C120 1.389 . S
N117 C118 1.358 . S
N117 C119 1.400 . S
C118 N116 1.263 . S
C118 N117 1.358 . S
C118 H124 0.930 . S
C119 N117 1.400 . S
C119 C120 1.351 . S
C119 H136 0.930 . S
C120 N116 1.389 . S
C120 C119 1.351 . S
C120 H125 0.930 . S
O121 Cu115 1.974 . S
O121 C131 1.282 . S
C122 O123 1.261 . S
C122 O135 1.251 . S
O123 C122 1.261 . S
H124 C118 0.930 . S
H125 C120 0.930 . S
N126 Cu115 1.985 . S
N126 C128 1.335 . S
N126 C129 1.390 . S
N127 C128 1.345 . S
N127 C130 1.336 . S
C128 N126 1.335 . S
C128 N127 1.345 . S
C128 H133 0.930 . S
C129 N126 1.390 . S
C129 C130 1.346 . S
C129 H134 0.930 . S
C130 N127 1.336 . S
C130 C129 1.346 . S
C130 H137 0.929 . S
C131 O121 1.282 . S
C131 O132 1.216 . S
O132 C131 1.216 . S
H133 C128 0.930 . S
H134 C129 0.930 . S
O135 Cu115 1.959 . S
O135 C122 1.251 . S
H136 C119 0.930 . S
H137 C130 0.929 . S
Cu138 N139 1.999 . S
Cu138 O144 1.974 . S
Cu138 N149 1.985 . S
Cu138 O158 1.959 . S
N139 Cu138 1.999 . S
N139 C141 1.263 . S
N139 C143 1.389 . S
N140 C141 1.358 . S
N140 C142 1.400 . S
C141 N139 1.263 . S
C141 N140 1.358 . S
C141 H147 0.930 . S
C142 N140 1.400 . S
C142 C143 1.351 . S
C142 H159 0.930 . S
C143 N139 1.389 . S
C143 C142 1.351 . S
C143 H148 0.930 . S
O144 Cu138 1.974 . S
O144 C154 1.282 . S
C145 O146 1.261 1_565 S
C145 O158 1.251 . S
O146 C145 1.261 1_545 S
H147 C141 0.930 . S
H148 C143 0.930 . S
N149 Cu138 1.985 . S
N149 C151 1.335 . S
N149 C152 1.390 . S
N150 C151 1.345 . S
N150 C153 1.336 . S
C151 N149 1.335 . S
C151 N150 1.345 . S
C151 H156 0.930 . S
C152 N149 1.390 . S
C152 C153 1.346 . S
C152 H157 0.930 . S
C153 N150 1.336 . S
C153 C152 1.346 . S
C153 H160 0.929 . S
C154 O144 1.282 . S
C154 O155 1.216 1_565 S
O155 C154 1.216 1_545 S
H156 C151 0.930 . S
H157 C152 0.930 . S
O158 Cu138 1.959 . S
O158 C145 1.251 . S
H159 C142 0.930 . S
H160 C153 0.929 . S
Cu161 N162 1.999 . S
Cu161 O167 1.974 . S
Cu161 N172 1.985 . S
Cu161 O181 1.959 . S
N162 Cu161 1.999 . S
N162 C164 1.263 . S
N162 C166 1.389 . S
N163 C164 1.358 . S
N163 C165 1.400 . S
C164 N162 1.263 . S
C164 N163 1.358 . S
C164 H170 0.930 . S
C165 N163 1.400 . S
C165 C166 1.351 . S
C165 H182 0.930 . S
C166 N162 1.389 . S
C166 C165 1.351 . S
C166 H171 0.930 . S
O167 Cu161 1.974 . S
O167 C177 1.282 . S
C168 O169 1.261 . S
C168 O181 1.251 . S
O169 C168 1.261 . S
H170 C164 0.930 . S
H171 C166 0.930 . S
N172 Cu161 1.985 . S
N172 C174 1.335 . S
N172 C175 1.390 . S
N173 C174 1.345 . S
N173 C176 1.336 . S
C174 N172 1.335 . S
C174 N173 1.345 . S
C174 H179 0.930 . S
C175 N172 1.390 . S
C175 C176 1.346 . S
C175 H180 0.930 . S
C176 N173 1.336 . S
C176 C175 1.346 . S
C176 H183 0.929 . S
C177 O167 1.282 . S
C177 O178 1.216 . S
O178 C177 1.216 . S
H179 C174 0.930 . S
H180 C175 0.930 . S
O181 Cu161 1.959 . S
O181 C168 1.251 . S
H182 C165 0.930 . S
H183 C176 0.929 . S
Cu184 N185 1.999 . S
Cu184 O190 1.974 1_655 S
Cu184 N195 1.985 1_655 S
Cu184 O204 1.959 . S
N185 Cu184 1.999 . S
N185 C187 1.263 1_655 S
N185 C189 1.389 . S
N186 C187 1.358 1_655 S
N186 C188 1.400 . S
C187 N185 1.263 1_455 S
C187 N186 1.358 1_455 S
C187 H193 0.930 . S
C188 N186 1.400 . S
C188 C189 1.351 . S
C188 H205 0.930 . S
C189 N185 1.389 . S
C189 C188 1.351 . S
C189 H194 0.930 . S
O190 Cu184 1.974 1_455 S
O190 C200 1.282 . S
C191 O192 1.261 . S
C191 O204 1.251 1_455 S
O192 C191 1.261 . S
H193 C187 0.930 . S
H194 C189 0.930 . S
N195 Cu184 1.985 1_455 S
N195 C197 1.335 1_455 S
N195 C198 1.390 . S
N196 C197 1.345 1_455 S
N196 C199 1.336 . S
C197 N195 1.335 1_655 S
C197 N196 1.345 1_655 S
C197 H202 0.930 . S
C198 N195 1.390 . S
C198 C199 1.346 . S
C198 H203 0.930 . S
C199 N196 1.336 . S
C199 C198 1.346 . S
C199 H206 0.929 . S
C200 O190 1.282 . S
C200 O201 1.216 . S
O201 C200 1.216 . S
H202 C197 0.930 . S
H203 C198 0.930 . S
O204 Cu184 1.959 . S
O204 C191 1.251 1_655 S
H205 C188 0.930 . S
H206 C199 0.929 . S
Cu207 N208 1.999 . S
Cu207 O213 1.974 . S
Cu207 N218 1.985 . S
Cu207 O227 1.959 . S
N208 Cu207 1.999 . S
N208 C210 1.263 . S
N208 C212 1.389 . S
N209 C210 1.358 . S
N209 C211 1.400 . S
C210 N208 1.263 . S
C210 N209 1.358 . S
C210 H216 0.930 . S
C211 N209 1.400 . S
C211 C212 1.351 . S
C211 H228 0.930 . S
C212 N208 1.389 . S
C212 C211 1.351 . S
C212 H217 0.930 . S
O213 Cu207 1.974 . S
O213 C223 1.282 . S
C214 O215 1.261 1_545 S
C214 O227 1.251 . S
O215 C214 1.261 1_565 S
H216 C210 0.930 . S
H217 C212 0.930 . S
N218 Cu207 1.985 . S
N218 C220 1.335 . S
N218 C221 1.390 . S
N219 C220 1.345 . S
N219 C222 1.336 . S
C220 N218 1.335 . S
C220 N219 1.345 . S
C220 H225 0.930 . S
C221 N218 1.390 . S
C221 C222 1.346 . S
C221 H226 0.930 . S
C222 N219 1.336 . S
C222 C221 1.346 . S
C222 H229 0.929 . S
C223 O213 1.282 . S
C223 O224 1.216 1_545 S
O224 C223 1.216 1_565 S
H225 C220 0.930 . S
H226 C221 0.930 . S
O227 Cu207 1.959 . S
O227 C214 1.251 . S
H228 C211 0.930 . S
H229 C222 0.929 . S
Cu230 N231 1.999 . S
Cu230 O236 1.974 . S
Cu230 N241 1.985 . S
Cu230 O250 1.959 . S
N231 Cu230 1.999 . S
N231 C233 1.263 . S
N231 C235 1.389 . S
N232 C233 1.358 . S
N232 C234 1.400 . S
C233 N231 1.263 . S
C233 N232 1.358 . S
C233 H239 0.930 . S
C234 N232 1.400 . S
C234 C235 1.351 . S
C234 H251 0.930 . S
C235 N231 1.389 . S
C235 C234 1.351 . S
C235 H240 0.930 . S
O236 Cu230 1.974 . S
O236 C246 1.282 . S
C237 O238 1.261 . S
C237 O250 1.251 . S
O238 C237 1.261 . S
H239 C233 0.930 . S
H240 C235 0.930 . S
N241 Cu230 1.985 . S
N241 C243 1.335 . S
N241 C244 1.390 . S
N242 C243 1.345 . S
N242 C245 1.336 . S
C243 N241 1.335 . S
C243 N242 1.345 . S
C243 H248 0.930 . S
C244 N241 1.390 . S
C244 C245 1.346 . S
C244 H249 0.930 . S
C245 N242 1.336 . S
C245 C244 1.346 . S
C245 H252 0.929 . S
C246 O236 1.282 . S
C246 O247 1.216 . S
O247 C246 1.216 . S
H248 C243 0.930 . S
H249 C244 0.930 . S
O250 Cu230 1.959 . S
O250 C237 1.251 . S
H251 C234 0.930 . S
H252 C245 0.929 . S
Cu253 N254 1.999 . S
Cu253 O259 1.974 1_455 S
Cu253 N264 1.985 1_455 S
Cu253 O273 1.959 . S
N254 Cu253 1.999 . S
N254 C256 1.263 1_455 S
N254 C258 1.389 . S
N255 C256 1.358 1_455 S
N255 C257 1.400 . S
C256 N254 1.263 1_655 S
C256 N255 1.358 1_655 S
C256 H262 0.930 . S
C257 N255 1.400 . S
C257 C258 1.351 . S
C257 H274 0.930 . S
C258 N254 1.389 . S
C258 C257 1.351 . S
C258 H263 0.930 . S
O259 Cu253 1.974 1_655 S
O259 C269 1.282 . S
C260 O261 1.261 . S
C260 O273 1.251 1_655 S
O261 C260 1.261 . S
H262 C256 0.930 . S
H263 C258 0.930 . S
N264 Cu253 1.985 1_655 S
N264 C266 1.335 1_655 S
N264 C267 1.390 . S
N265 C266 1.345 1_655 S
N265 C268 1.336 . S
C266 N264 1.335 1_455 S
C266 N265 1.345 1_455 S
C266 H271 0.930 . S
C267 N264 1.390 . S
C267 C268 1.346 . S
C267 H272 0.930 . S
C268 N265 1.336 . S
C268 C267 1.346 . S
C268 H275 0.929 . S
C269 O259 1.282 . S
C269 O270 1.216 . S
O270 C269 1.216 . S
H271 C266 0.930 . S
H272 C267 0.930 . S
O273 Cu253 1.959 . S
O273 C260 1.251 1_455 S
H274 C257 0.930 . S
H275 C268 0.929 . S
H276 C284 0.950 . S
H277 C289 0.950 . S
H278 C286 0.950 . S
H279 C288 0.950 . S
H280 C290 0.950 . S
H281 C292 0.950 . S
H282 C294 0.950 . S
H283 C295 0.950 . S
C284 H276 0.950 . S
C284 C285 1.386 1_455 S
C284 C286 1.391 . S
C285 C284 1.386 1_655 S
C285 C289 1.393 . S
C286 H278 0.950 . S
C286 C284 1.391 . S
C286 C287 1.400 1_455 S
C287 C286 1.400 1_655 S
C287 C288 1.398 . S
C287 C293 1.491 . S
C288 H279 0.950 . S
C288 C287 1.398 . S
C288 C289 1.391 . S
C289 H277 0.950 . S
C289 C285 1.393 . S
C289 C288 1.391 . S
C290 H280 0.950 . S
C290 C291 1.386 . S
C290 C292 1.391 . S
C291 C290 1.386 . S
C291 C295 1.393 1_655 S
C292 H281 0.950 . S
C292 C290 1.391 . S
C292 C293 1.400 . S
C293 C287 1.491 . S
C293 C292 1.400 . S
C293 C294 1.398 1_655 S
C294 H282 0.950 . S
C294 C293 1.398 1_455 S
C294 C295 1.391 . S
C295 H283 0.950 . S
C295 C291 1.393 1_455 S
C295 C294 1.391 . S
H296 C304 0.950 . S
H297 C309 0.950 . S
H298 C306 0.950 . S
H299 C308 0.950 . S
H300 C310 0.950 . S
H301 C312 0.950 . S
H302 C314 0.950 . S
H303 C315 0.950 . S
C304 H296 0.950 . S
C304 C305 1.386 1_565 S
C304 C306 1.391 . S
C305 C304 1.386 1_545 S
C305 C309 1.393 . S
C306 H298 0.950 . S
C306 C304 1.391 . S
C306 C307 1.400 1_565 S
C307 C306 1.400 1_545 S
C307 C308 1.398 . S
C307 C313 1.491 1_545 S
C308 H299 0.950 . S
C308 C307 1.398 . S
C308 C309 1.391 . S
C309 H297 0.950 . S
C309 C305 1.393 . S
C309 C308 1.391 . S
C310 H300 0.950 . S
C310 C311 1.386 1_545 S
C310 C312 1.391 . S
C311 C310 1.386 1_565 S
C311 C315 1.393 . S
C312 H301 0.950 . S
C312 C310 1.391 . S
C312 C313 1.400 1_545 S
C313 C307 1.491 1_565 S
C313 C312 1.400 1_565 S
C313 C314 1.398 . S
C314 H302 0.950 . S
C314 C313 1.398 . S
C314 C315 1.391 . S
C315 H303 0.950 . S
C315 C311 1.393 . S
C315 C314 1.391 . S
H316 C324 0.950 . S
H317 C329 0.950 . S
H318 C326 0.950 . S
H319 C328 0.950 . S
H320 C330 0.950 . S
H321 C332 0.950 . S
H322 C334 0.950 . S
H323 C335 0.950 . S
C324 H316 0.950 . S
C324 C325 1.386 . S
C324 C326 1.391 . S
C325 C324 1.386 . S
C325 C329 1.393 . S
C326 H318 0.950 . S
C326 C324 1.391 . S
C326 C327 1.400 . S
C327 C326 1.400 . S
C327 C328 1.398 . S
C327 C333 1.491 . S
C328 H319 0.950 . S
C328 C327 1.398 . S
C328 C329 1.391 . S
C329 H317 0.950 . S
C329 C325 1.393 . S
C329 C328 1.391 . S
C330 H320 0.950 . S
C330 C331 1.386 . S
C330 C332 1.391 . S
C331 C330 1.386 . S
C331 C335 1.393 . S
C332 H321 0.950 . S
C332 C330 1.391 . S
C332 C333 1.400 . S
C333 C327 1.491 . S
C333 C332 1.400 . S
C333 C334 1.398 . S
C334 H322 0.950 . S
C334 C333 1.398 . S
C334 C335 1.391 . S
C335 H323 0.950 . S
C335 C331 1.393 . S
C335 C334 1.391 . S
H336 C344 0.950 . S
H337 C349 0.950 . S
H338 C346 0.950 . S
H339 C348 0.950 . S
H340 C350 0.950 . S
H341 C352 0.950 . S
H342 C354 0.950 . S
H343 C355 0.950 . S
C344 H336 0.950 . S
C344 C345 1.386 1_655 S
C344 C346 1.391 . S
C345 C344 1.386 1_455 S
C345 C349 1.393 . S
C346 H338 0.950 . S
C346 C344 1.391 . S
C346 C347 1.400 1_655 S
C347 C346 1.400 1_455 S
C347 C348 1.398 . S
C347 C353 1.491 . S
C348 H339 0.950 . S
C348 C347 1.398 . S
C348 C349 1.391 . S
C349 H337 0.950 . S
C349 C345 1.393 . S
C349 C348 1.391 . S
C350 H340 0.950 . S
C350 C351 1.386 . S
C350 C352 1.391 . S
C351 C350 1.386 . S
C351 C355 1.393 1_455 S
C352 H341 0.950 . S
C352 C350 1.391 . S
C352 C353 1.400 . S
C353 C347 1.491 . S
C353 C352 1.400 . S
C353 C354 1.398 1_455 S
C354 H342 0.950 . S
C354 C353 1.398 1_655 S
C354 C355 1.391 . S
C355 H343 0.950 . S
C355 C351 1.393 1_655 S
C355 C354 1.391 . S
H356 C364 0.950 . S
H357 C369 0.950 . S
H358 C366 0.950 . S
H359 C368 0.950 . S
H360 C370 0.950 . S
H361 C372 0.950 . S
H362 C374 0.950 . S
H363 C375 0.950 . S
C364 H356 0.950 . S
C364 C365 1.386 1_565 S
C364 C366 1.391 . S
C365 C364 1.386 1_545 S
C365 C369 1.393 . S
C366 H358 0.950 . S
C366 C364 1.391 . S
C366 C367 1.400 1_565 S
C367 C366 1.400 1_545 S
C367 C368 1.398 . S
C367 C373 1.491 1_545 S
C368 H359 0.950 . S
C368 C367 1.398 . S
C368 C369 1.391 . S
C369 H357 0.950 . S
C369 C365 1.393 . S
C369 C368 1.391 . S
C370 H360 0.950 . S
C370 C371 1.386 1_545 S
C370 C372 1.391 . S
C371 C370 1.386 1_565 S
C371 C375 1.393 . S
C372 H361 0.950 . S
C372 C370 1.391 . S
C372 C373 1.400 1_545 S
C373 C367 1.491 1_565 S
C373 C372 1.400 1_565 S
C373 C374 1.398 . S
C374 H362 0.950 . S
C374 C373 1.398 . S
C374 C375 1.391 . S
C375 H363 0.950 . S
C375 C371 1.393 . S
C375 C374 1.391 . S
H376 C384 0.950 . S
H377 C389 0.950 . S
H378 C386 0.950 . S
H379 C388 0.950 . S
H380 C390 0.950 . S
H381 C392 0.950 . S
H382 C394 0.950 . S
H383 C395 0.950 . S
C384 H376 0.950 . S
C384 C385 1.386 . S
C384 C386 1.391 . S
C385 C384 1.386 . S
C385 C389 1.393 . S
C386 H378 0.950 . S
C386 C384 1.391 . S
C386 C387 1.400 . S
C387 C386 1.400 . S
C387 C388 1.398 . S
C387 C393 1.491 . S
C388 H379 0.950 . S
C388 C387 1.398 . S
C388 C389 1.391 . S
C389 H377 0.950 . S
C389 C385 1.393 . S
C389 C388 1.391 . S
C390 H380 0.950 . S
C390 C391 1.386 . S
C390 C392 1.391 . S
C391 C390 1.386 . S
C391 C395 1.393 . S
C392 H381 0.950 . S
C392 C390 1.391 . S
C392 C393 1.400 . S
C393 C387 1.491 . S
C393 C392 1.400 . S
C393 C394 1.398 . S
C394 H382 0.950 . S
C394 C393 1.398 . S
C394 C395 1.391 . S
C395 H383 0.950 . S
C395 C391 1.393 . S
C395 C394 1.391 . S
H396 C404 0.950 . S
H397 C409 0.950 . S
H398 C406 0.950 1_556 S
H399 C408 0.950 . S
H400 C410 0.950 . S
H401 C412 0.950 1_554 S
H402 C414 0.950 . S
H403 C415 0.950 . S
C404 H396 0.950 . S
C404 C405 1.386 . S
C404 C406 1.391 . S
C405 C404 1.386 . S
C405 C409 1.393 . S
C406 H398 0.950 1_554 S
C406 C404 1.391 . S
C406 C407 1.400 . S
C407 C406 1.400 . S
C407 C408 1.398 . S
C407 C413 1.491 1_554 S
C408 H399 0.950 . S
C408 C407 1.398 . S
C408 C409 1.391 . S
C409 H397 0.950 . S
C409 C405 1.393 . S
C409 C408 1.391 . S
C410 H400 0.950 . S
C410 C411 1.386 . S
C410 C412 1.391 . S
C411 C410 1.386 . S
C411 C415 1.393 . S
C412 H401 0.950 1_556 S
C412 C410 1.391 . S
C412 C413 1.400 . S
C413 C407 1.491 1_556 S
C413 C412 1.400 . S
C413 C414 1.398 . S
C414 H402 0.950 . S
C414 C413 1.398 . S
C414 C415 1.391 . S
C415 H403 0.950 . S
C415 C411 1.393 . S
C415 C414 1.391 . S
H416 C424 0.950 . S
H417 C429 0.950 . S
H418 C426 0.950 . S
H419 C428 0.950 . S
H420 C430 0.950 . S
H421 C432 0.950 . S
H422 C434 0.950 . S
H423 C435 0.950 . S
C424 H416 0.950 . S
C424 C425 1.386 . S
C424 C426 1.391 . S
C425 C424 1.386 . S
C425 C429 1.393 . S
C426 H418 0.950 . S
C426 C424 1.391 . S
C426 C427 1.400 . S
C427 C426 1.400 . S
C427 C428 1.398 . S
C427 C433 1.491 . S
C428 H419 0.950 . S
C428 C427 1.398 . S
C428 C429 1.391 . S
C429 H417 0.950 . S
C429 C425 1.393 . S
C429 C428 1.391 . S
C430 H420 0.950 . S
C430 C431 1.386 . S
C430 C432 1.391 . S
C431 C430 1.386 . S
C431 C435 1.393 . S
C432 H421 0.950 . S
C432 C430 1.391 . S
C432 C433 1.400 . S
C433 C427 1.491 . S
C433 C432 1.400 . S
C433 C434 1.398 . S
C434 H422 0.950 . S
C434 C433 1.398 . S
C434 C435 1.391 . S
C435 H423 0.950 . S
C435 C431 1.393 . S
C435 C434 1.391 . S
H436 C444 0.950 . S
H437 C449 0.950 . S
H438 C446 0.950 . S
H439 C448 0.950 . S
H440 C450 0.950 . S
H441 C452 0.950 . S
H442 C454 0.950 . S
H443 C455 0.950 . S
C444 H436 0.950 . S
C444 C445 1.386 . S
C444 C446 1.391 . S
C445 C444 1.386 . S
C445 C449 1.393 . S
C446 H438 0.950 . S
C446 C444 1.391 . S
C446 C447 1.400 . S
C447 C446 1.400 . S
C447 C448 1.398 . S
C447 C453 1.491 . S
C448 H439 0.950 . S
C448 C447 1.398 . S
C448 C449 1.391 . S
C449 H437 0.950 . S
C449 C445 1.393 . S
C449 C448 1.391 . S
C450 H440 0.950 . S
C450 C451 1.386 . S
C450 C452 1.391 . S
C451 C450 1.386 . S
C451 C455 1.393 . S
C452 H441 0.950 . S
C452 C450 1.391 . S
C452 C453 1.400 . S
C453 C447 1.491 . S
C453 C452 1.400 . S
C453 C454 1.398 . S
C454 H442 0.950 . S
C454 C453 1.398 . S
C454 C455 1.391 . S
C455 H443 0.950 . S
C455 C451 1.393 . S
C455 C454 1.391 . S
H456 C464 0.950 . S
H457 C469 0.950 . S
H458 C466 0.950 . S
H459 C468 0.950 1_556 S
H460 C470 0.950 . S
H461 C472 0.950 . S
H462 C474 0.950 1_554 S
H463 C475 0.950 . S
C464 H456 0.950 . S
C464 C465 1.386 . S
C464 C466 1.391 . S
C465 C464 1.386 . S
C465 C469 1.393 . S
C466 H458 0.950 . S
C466 C464 1.391 . S
C466 C467 1.400 . S
C467 C466 1.400 . S
C467 C468 1.398 . S
C467 C473 1.491 1_554 S
C468 H459 0.950 1_554 S
C468 C467 1.398 . S
C468 C469 1.391 . S
C469 H457 0.950 . S
C469 C465 1.393 . S
C469 C468 1.391 . S
C470 H460 0.950 . S
C470 C471 1.386 . S
C470 C472 1.391 . S
C471 C470 1.386 . S
C471 C475 1.393 . S
C472 H461 0.950 . S
C472 C470 1.391 . S
C472 C473 1.400 . S
C473 C467 1.491 1_556 S
C473 C472 1.400 . S
C473 C474 1.398 . S
C474 H462 0.950 1_556 S
C474 C473 1.398 . S
C474 C475 1.391 . S
C475 H463 0.950 . S
C475 C471 1.393 . S
C475 C474 1.391 . S
H476 C484 0.950 . S
H477 C489 0.950 . S
H478 C486 0.950 . S
H479 C488 0.950 . S
H480 C490 0.950 . S
H481 C492 0.950 . S
H482 C494 0.950 . S
H483 C495 0.950 . S
C484 H476 0.950 . S
C484 C485 1.386 . S
C484 C486 1.391 . S
C485 C484 1.386 . S
C485 C489 1.393 . S
C486 H478 0.950 . S
C486 C484 1.391 . S
C486 C487 1.400 . S
C487 C486 1.400 . S
C487 C488 1.398 . S
C487 C493 1.491 . S
C488 H479 0.950 . S
C488 C487 1.398 . S
C488 C489 1.391 . S
C489 H477 0.950 . S
C489 C485 1.393 . S
C489 C488 1.391 . S
C490 H480 0.950 . S
C490 C491 1.386 . S
C490 C492 1.391 . S
C491 C490 1.386 . S
C491 C495 1.393 . S
C492 H481 0.950 . S
C492 C490 1.391 . S
C492 C493 1.400 . S
C493 C487 1.491 . S
C493 C492 1.400 . S
C493 C494 1.398 . S
C494 H482 0.950 . S
C494 C493 1.398 . S
C494 C495 1.391 . S
C495 H483 0.950 . S
C495 C491 1.393 . S
C495 C494 1.391 . S
H496 C504 0.950 . S
H497 C509 0.950 . S
H498 C506 0.950 . S
H499 C508 0.950 . S
H500 C510 0.950 . S
H501 C512 0.950 . S
H502 C514 0.950 . S
H503 C515 0.950 . S
C504 H496 0.950 . S
C504 C505 1.386 . S
C504 C506 1.391 . S
C505 C504 1.386 . S
C505 C509 1.393 . S
C506 H498 0.950 . S
C506 C504 1.391 . S
C506 C507 1.400 . S
C507 C506 1.400 . S
C507 C508 1.398 . S
C507 C513 1.491 . S
C508 H499 0.950 . S
C508 C507 1.398 . S
C508 C509 1.391 . S
C509 H497 0.950 . S
C509 C505 1.393 . S
C509 C508 1.391 . S
C510 H500 0.950 . S
C510 C511 1.386 . S
C510 C512 1.391 . S
C511 C510 1.386 . S
C511 C515 1.393 . S
C512 H501 0.950 . S
C512 C510 1.391 . S
C512 C513 1.400 . S
C513 C507 1.491 . S
C513 C512 1.400 . S
C513 C514 1.398 . S
C514 H502 0.950 . S
C514 C513 1.398 . S
C514 C515 1.391 . S
C515 H503 0.950 . S
C515 C511 1.393 . S
C515 C514 1.391 . S
H516 C524 0.950 . S
H517 C529 0.950 . S
H518 C526 0.950 . S
H519 C528 0.950 . S
H520 C530 0.950 . S
H521 C532 0.950 . S
H522 C534 0.950 . S
H523 C535 0.950 . S
C524 H516 0.950 . S
C524 C525 1.386 . S
C524 C526 1.391 . S
C525 C524 1.386 . S
C525 C529 1.393 1_455 S
C526 H518 0.950 . S
C526 C524 1.391 . S
C526 C527 1.400 . S
C527 C526 1.400 . S
C527 C528 1.398 1_455 S
C527 C533 1.491 1_455 S
C528 H519 0.950 . S
C528 C527 1.398 1_655 S
C528 C529 1.391 . S
C529 H517 0.950 . S
C529 C525 1.393 1_655 S
C529 C528 1.391 . S
C530 H520 0.950 . S
C530 C531 1.386 . S
C530 C532 1.391 . S
C531 C530 1.386 . S
C531 C535 1.393 1_655 S
C532 H521 0.950 . S
C532 C530 1.391 . S
C532 C533 1.400 . S
C533 C527 1.491 1_655 S
C533 C532 1.400 . S
C533 C534 1.398 1_655 S
C534 H522 0.950 . S
C534 C533 1.398 1_455 S
C534 C535 1.391 . S
C535 H523 0.950 . S
C535 C531 1.393 1_455 S
C535 C534 1.391 . S
H536 C544 0.950 . S
H537 C549 0.956 . S
H538 C546 0.950 . S
H539 C548 0.950 . S
H540 C550 0.950 . S
H541 C552 0.950 . S
H542 C554 0.950 . S
H543 C555 0.955 . S
C544 H536 0.950 . S
C544 C545 1.386 . S
C544 C546 1.391 . S
C545 C544 1.386 . S
C545 C549 1.390 1_545 S
C546 H538 0.950 . S
C546 C544 1.391 . S
C546 C547 1.400 . S
C547 C546 1.400 . S
C547 C548 1.398 1_545 S
C547 C553 1.491 1_545 S
C548 H539 0.950 . S
C548 C547 1.398 1_565 S
C548 C549 1.387 . S
C549 H537 0.956 . S
C549 C545 1.390 1_565 S
C549 C548 1.387 . S
C550 H540 0.950 . S
C550 C551 1.386 . S
C550 C552 1.391 . S
C551 C550 1.386 . S
C551 C555 1.391 1_565 S
C552 H541 0.950 . S
C552 C550 1.391 . S
C552 C553 1.400 . S
C553 C547 1.491 1_565 S
C553 C552 1.400 . S
C553 C554 1.398 1_565 S
C554 H542 0.950 . S
C554 C553 1.398 1_545 S
C554 C555 1.388 . S
C555 H543 0.955 . S
C555 C551 1.391 1_545 S
C555 C554 1.388 . S
H556 C564 0.950 . S
H557 C569 0.950 . S
H558 C566 0.950 . S
H559 C568 0.950 . S
H560 C570 0.950 . S
H561 C572 0.950 . S
H562 C574 0.950 . S
H563 C575 0.950 . S
C564 H556 0.950 . S
C564 C565 1.386 . S
C564 C566 1.391 . S
C565 C564 1.386 . S
C565 C569 1.393 . S
C566 H558 0.950 . S
C566 C564 1.391 . S
C566 C567 1.400 . S
C567 C566 1.400 . S
C567 C568 1.398 . S
C567 C573 1.491 . S
C568 H559 0.950 . S
C568 C567 1.398 . S
C568 C569 1.391 . S
C569 H557 0.950 . S
C569 C565 1.393 . S
C569 C568 1.391 . S
C570 H560 0.950 . S
C570 C571 1.386 . S
C570 C572 1.391 . S
C571 C570 1.386 . S
C571 C575 1.393 . S
C572 H561 0.950 . S
C572 C570 1.391 . S
C572 C573 1.400 . S
C573 C567 1.491 . S
C573 C572 1.400 . S
C573 C574 1.398 . S
C574 H562 0.950 . S
C574 C573 1.398 . S
C574 C575 1.391 . S
C575 H563 0.950 . S
C575 C571 1.393 . S
C575 C574 1.391 . S
H576 C584 0.950 1_565 S
H577 C589 0.950 . S
H578 C586 0.950 . S
H579 C588 0.950 . S
H580 C590 0.950 1_545 S
H581 C592 0.950 . S
H582 C594 0.950 . S
H583 C595 0.950 . S
C584 H576 0.950 1_545 S
C584 C585 1.386 . S
C584 C586 1.391 1_545 S
C585 C584 1.386 . S
C585 C589 1.393 . S
C586 H578 0.950 . S
C586 C584 1.391 1_565 S
C586 C587 1.400 1_565 S
C587 C586 1.400 1_545 S
C587 C588 1.398 . S
C587 C593 1.491 1_545 S
C588 H579 0.950 . S
C588 C587 1.398 . S
C588 C589 1.391 . S
C589 H577 0.950 . S
C589 C585 1.393 . S
C589 C588 1.391 . S
C590 H580 0.950 1_565 S
C590 C591 1.386 . S
C590 C592 1.391 1_565 S
C591 C590 1.386 . S
C591 C595 1.393 . S
C592 H581 0.950 . S
C592 C590 1.391 1_545 S
C592 C593 1.400 1_545 S
C593 C587 1.491 1_565 S
C593 C592 1.400 1_565 S
C593 C594 1.398 . S
C594 H582 0.950 . S
C594 C593 1.398 . S
C594 C595 1.391 . S
C595 H583 0.950 . S
C595 C591 1.393 . S
C595 C594 1.391 . S
H596 C604 0.950 . S
H597 C609 0.950 . S
H598 C606 0.950 . S
H599 C608 0.950 . S
H600 C610 0.950 . S
H601 C612 0.950 . S
H602 C614 0.950 . S
H603 C615 0.950 . S
C604 H596 0.950 . S
C604 C605 1.386 . S
C604 C606 1.391 . S
C605 C604 1.386 . S
C605 C609 1.393 . S
C606 H598 0.950 . S
C606 C604 1.391 . S
C606 C607 1.400 . S
C607 C606 1.400 . S
C607 C608 1.398 . S
C607 C613 1.491 . S
C608 H599 0.950 . S
C608 C607 1.398 . S
C608 C609 1.391 . S
C609 H597 0.950 . S
C609 C605 1.393 . S
C609 C608 1.391 . S
C610 H600 0.950 . S
C610 C611 1.386 . S
C610 C612 1.391 . S
C611 C610 1.386 . S
C611 C615 1.393 . S
C612 H601 0.950 . S
C612 C610 1.391 . S
C612 C613 1.400 . S
C613 C607 1.491 . S
C613 C612 1.400 . S
C613 C614 1.398 . S
C614 H602 0.950 . S
C614 C613 1.398 . S
C614 C615 1.391 . S
C615 H603 0.950 . S
C615 C611 1.393 . S
C615 C614 1.391 . S
H616 C624 0.950 . S
H617 C629 0.950 . S
H618 C626 0.950 . S
H619 C628 0.950 . S
H620 C630 0.950 . S
H621 C632 0.950 . S
H622 C634 0.950 . S
H623 C635 0.950 . S
C624 H616 0.950 . S
C624 C625 1.386 . S
C624 C626 1.391 . S
C625 C624 1.386 . S
C625 C629 1.393 1_655 S
C626 H618 0.950 . S
C626 C624 1.391 . S
C626 C627 1.413 . S
C627 C626 1.413 . S
C627 C628 1.393 1_655 S
C627 C633 1.477 1_655 S
C628 H619 0.950 . S
C628 C627 1.393 1_455 S
C628 C629 1.391 . S
C629 H617 0.950 . S
C629 C625 1.393 1_455 S
C629 C628 1.391 . S
C630 H620 0.950 . S
C630 C631 1.395 . S
C630 C632 1.391 . S
C631 C630 1.395 . S
C631 C635 1.372 1_455 S
C632 H621 0.950 . S
C632 C630 1.391 . S
C632 C633 1.410 . S
C633 C627 1.477 1_455 S
C633 C632 1.410 . S
C633 C634 1.395 1_455 S
C634 H622 0.950 . S
C634 C633 1.395 1_655 S
C634 C635 1.391 . S
C635 H623 0.950 . S
C635 C631 1.372 1_655 S
C635 C634 1.391 . S
H636 C644 0.950 . S
H637 C649 0.950 . S
H638 C646 0.950 . S
H639 C648 0.950 . S
H640 C650 0.950 . S
H641 C652 0.950 . S
H642 C654 0.950 . S
H643 C655 0.950 . S
C644 H636 0.950 . S
C644 C645 1.386 1_455 S
C644 C646 1.391 . S
C645 C644 1.386 1_655 S
C645 C649 1.393 . S
C646 H638 0.950 . S
C646 C644 1.391 . S
C646 C647 1.390 1_455 S
C647 C646 1.390 1_655 S
C647 C648 1.420 . S
C647 C653 1.470 1_645 S
C648 H639 0.950 . S
C648 C647 1.420 . S
C648 C649 1.391 . S
C649 H637 0.950 . S
C649 C645 1.393 . S
C649 C648 1.391 . S
C650 H640 0.950 . S
C650 C651 1.386 1_655 S
C650 C652 1.391 . S
C651 C650 1.386 1_455 S
C651 C655 1.393 . S
C652 H641 0.950 . S
C652 C650 1.391 . S
C652 C653 1.390 1_655 S
C653 C647 1.470 1_465 S
C653 C652 1.390 1_455 S
C653 C654 1.419 . S
C654 H642 0.950 . S
C654 C653 1.419 . S
C654 C655 1.391 . S
C655 H643 0.950 . S
C655 C651 1.393 . S
C655 C654 1.391 . S
H656 C664 0.950 . S
H657 C669 0.950 . S
H658 C666 0.950 . S
H659 C668 0.950 . S
H660 C670 0.950 . S
H661 C672 0.950 . S
H662 C674 0.950 . S
H663 C675 0.950 . S
C664 H656 0.950 . S
C664 C665 1.386 1_565 S
C664 C666 1.391 . S
C665 C664 1.386 1_545 S
C665 C669 1.393 . S
C666 H658 0.950 . S
C666 C664 1.391 . S
C666 C667 1.400 1_565 S
C667 C666 1.400 1_545 S
C667 C668 1.398 . S
C667 C673 1.491 1_645 S
C668 H659 0.950 . S
C668 C667 1.398 . S
C668 C669 1.391 . S
C669 H657 0.950 . S
C669 C665 1.393 . S
C669 C668 1.391 . S
C670 H660 0.950 . S
C670 C671 1.386 1_545 S
C670 C672 1.391 . S
C671 C670 1.386 1_565 S
C671 C675 1.393 . S
C672 H661 0.950 . S
C672 C670 1.391 . S
C672 C673 1.400 1_545 S
C673 C667 1.491 1_465 S
C673 C672 1.400 1_565 S
C673 C674 1.398 . S
C674 H662 0.950 . S
C674 C673 1.398 . S
C674 C675 1.391 . S
C675 H663 0.950 . S
C675 C671 1.393 . S
C675 C674 1.391 . S
H676 C684 0.950 . S
H677 C689 0.950 . S
H678 C686 0.950 . S
H679 C688 0.950 1_655 S
H680 C690 0.950 . S
H681 C692 0.950 . S
H682 C694 0.950 1_455 S
H683 C695 0.950 . S
C684 H676 0.950 . S
C684 C685 1.386 . S
C684 C686 1.391 . S
C685 C684 1.386 . S
C685 C689 1.393 . S
C686 H678 0.950 . S
C686 C684 1.391 . S
C686 C687 1.400 . S
C687 C686 1.400 . S
C687 C688 1.398 . S
C687 C693 1.491 1_445 S
C688 H679 0.950 1_455 S
C688 C687 1.398 . S
C688 C689 1.391 . S
C689 H677 0.950 . S
C689 C685 1.393 . S
C689 C688 1.391 . S
C690 H680 0.950 . S
C690 C691 1.386 . S
C690 C692 1.391 . S
C691 C690 1.386 . S
C691 C695 1.393 . S
C692 H681 0.950 . S
C692 C690 1.391 . S
C692 C693 1.400 . S
C693 C687 1.491 1_665 S
C693 C692 1.400 . S
C693 C694 1.398 . S
C694 H682 0.950 1_655 S
C694 C693 1.398 . S
C694 C695 1.391 . S
C695 H683 0.950 . S
C695 C691 1.393 . S
C695 C694 1.391 . S
H696 C704 0.950 . S
H697 C709 0.950 . S
H698 C706 0.950 . S
H699 C708 0.950 . S
H700 C710 0.950 . S
H701 C712 0.950 . S
H702 C714 0.950 . S
H703 C715 0.950 . S
C704 H696 0.950 . S
C704 C705 1.386 1_545 S
C704 C706 1.391 . S
C705 C704 1.386 1_565 S
C705 C709 1.393 . S
C706 H698 0.950 . S
C706 C704 1.391 . S
C706 C707 1.400 1_545 S
C707 C706 1.400 1_565 S
C707 C708 1.398 . S
C707 C713 1.491 1_665 S
C708 H699 0.950 . S
C708 C707 1.398 . S
C708 C709 1.391 . S
C709 H697 0.950 . S
C709 C705 1.393 . S
C709 C708 1.391 . S
C710 H700 0.950 . S
C710 C711 1.386 1_565 S
C710 C712 1.391 . S
C711 C710 1.386 1_545 S
C711 C715 1.393 . S
C712 H701 0.950 . S
C712 C710 1.391 . S
C712 C713 1.400 1_565 S
C713 C707 1.491 1_445 S
C713 C712 1.400 1_545 S
C713 C714 1.398 . S
C714 H702 0.950 . S
C714 C713 1.398 . S
C714 C715 1.391 . S
C715 H703 0.950 . S
C715 C711 1.393 . S
C715 C714 1.391 . S
H716 C724 0.950 . S
H717 C729 0.950 . S
H718 C726 0.950 . S
H719 C728 0.950 1_455 S
H720 C730 0.950 . S
H721 C732 0.950 . S
H722 C734 0.950 1_655 S
H723 C735 0.950 . S
C724 H716 0.950 . S
C724 C725 1.386 . S
C724 C726 1.391 . S
C725 C724 1.386 . S
C725 C729 1.393 . S
C726 H718 0.950 . S
C726 C724 1.391 . S
C726 C727 1.400 . S
C727 C726 1.400 . S
C727 C728 1.398 . S
C727 C733 1.491 1_665 S
C728 H719 0.950 1_655 S
C728 C727 1.398 . S
C728 C729 1.391 . S
C729 H717 0.950 . S
C729 C725 1.393 . S
C729 C728 1.391 . S
C730 H720 0.950 . S
C730 C731 1.386 . S
C730 C732 1.391 . S
C731 C730 1.386 . S
C731 C735 1.393 . S
C732 H721 0.950 . S
C732 C730 1.391 . S
C732 C733 1.400 . S
C733 C727 1.491 1_445 S
C733 C732 1.400 . S
C733 C734 1.398 . S
C734 H722 0.950 1_455 S
C734 C733 1.398 . S
C734 C735 1.391 . S
C735 H723 0.950 . S
C735 C731 1.393 . S
C735 C734 1.391 . S
H736 C744 0.950 . S
H737 C749 0.950 . S
H738 C746 0.950 . S
H739 C748 0.950 . S
H740 C750 0.950 . S
H741 C752 0.950 . S
H742 C754 0.950 . S
H743 C755 0.950 . S
C744 H736 0.950 . S
C744 C745 1.386 1_455 S
C744 C746 1.391 . S
C745 C744 1.386 1_655 S
C745 C749 1.393 . S
C746 H738 0.950 . S
C746 C744 1.391 . S
C746 C747 1.383 1_455 S
C747 C746 1.383 1_655 S
C747 C748 1.407 . S
C747 C753 1.507 1_665 S
C748 H739 0.950 . S
C748 C747 1.407 . S
C748 C749 1.391 . S
C749 H737 0.950 . S
C749 C745 1.393 . S
C749 C748 1.391 . S
C750 H740 0.950 . S
C750 C751 1.386 1_655 S
C750 C752 1.391 . S
C751 C750 1.386 1_455 S
C751 C755 1.393 . S
C752 H741 0.950 . S
C752 C750 1.391 . S
C752 C753 1.386 1_655 S
C753 C747 1.507 1_445 S
C753 C752 1.386 1_455 S
C753 C754 1.405 . S
C754 H742 0.950 . S
C754 C753 1.405 . S
C754 C755 1.391 . S
C755 H743 0.950 . S
C755 C751 1.393 . S
C755 C754 1.391 . S
C285 C260 1.643 . S
C291 C7 1.654 . S
C305 N25 1.531 . S
C311 N140 1.552 . S
C325 C53 1.655 . S
C331 C168 1.649 . S
C345 C76 1.655 . S
C351 C191 1.645 . S
C365 N209 1.534 . S
C371 N94 1.556 . S
C385 C122 1.653 . S
C391 C237 1.653 . S
C405 C16 1.597 . S
C411 C246 1.606 . S
C425 N35 1.598 . S
C431 C269 1.596 . S
C445 C62 1.583 . S
C451 N150 1.603 . S
C465 C85 1.610 . S
C471 C177 1.600 . S
C485 C200 1.586 . S
C491 N104 1.605 . S
C505 N219 1.597 . S
C511 C131 1.586 . S
C525 N81 1.445 . S
C531 N12 1.430 . S
C545 C39 1.505 . S
C551 C108 1.508 . S
C565 N127 1.492 . S
C571 N58 1.476 . S
C585 C223 1.510 . S
C591 C154 1.505 . S
C605 N242 1.442 . S
C611 N173 1.431 . S
C625 N196 1.492 1_655 S
C631 N265 1.484 1_455 S
C645 N2 1.453 . S
C651 N71 1.466 . S
C665 C30 1.680 . S
C671 C99 1.675 . S
C685 N117 1.391 . S
C691 N48 1.403 . S
C705 C145 1.681 . S
C711 C214 1.675 . S
C725 N163 1.469 . S
C731 N232 1.459 . S
C745 N186 1.390 . S
C751 N255 1.399 . S
