# Generated by pormake.
# Topology sxb, (6)-cn, num edge types: 1
# Building blocks:
#     Node 0, Type 0, BuildingBlock: BETFEN_clean_sbu_0, # of connection points: 6
#     Node 1, Type 0, BuildingBlock: BETFEN_clean_sbu_0, # of connection points: 6
#     Node 2, Type 0, BuildingBlock: BETFEN_clean_sbu_0, # of connection points: 6
#     Node 3, Type 0, BuildingBlock: BETFEN_clean_sbu_0, # of connection points: 6
#     Edge 4, Type (0, 0), BuildingBlock: MIFKUJ_clean_linker_0, # of connection points: 2
#     Edge 5, Type (0, 0), BuildingBlock: MIFKUJ_clean_linker_0, # of connection points: 2
#     Edge 6, Type (0, 0), BuildingBlock: MIFKUJ_clean_linker_0, # of connection points: 2
#     Edge 7, Type (0, 0), BuildingBlock: MIFKUJ_clean_linker_0, # of connection points: 2
#     Edge 8, Type (0, 0), BuildingBlock: MIFKUJ_clean_linker_0, # of connection points: 2
#     Edge 9, Type (0, 0), BuildingBlock: MIFKUJ_clean_linker_0, # of connection points: 2
#     Edge 10, Type (0, 0), BuildingBlock: MIFKUJ_clean_linker_0, # of connection points: 2
#     Edge 11, Type (0, 0), BuildingBlock: MIFKUJ_clean_linker_0, # of connection points: 2
#     Edge 12, Type (0, 0), BuildingBlock: MIFKUJ_clean_linker_0, # of connection points: 2
#     Edge 13, Type (0, 0), BuildingBlock: MIFKUJ_clean_linker_0, # of connection points: 2
#     Edge 14, Type (0, 0), BuildingBlock: MIFKUJ_clean_linker_0, # of connection points: 2
#     Edge 15, Type (0, 0), BuildingBlock: MIFKUJ_clean_linker_0, # of connection points: 2
# Relax obj value: 0.280
# Max RMSD: 0.109
# Mean RMSD: 0.070
data_MOF--net-sxb--node1-BETFEN_clean_sbu_0--edge1-MIFKUJ_clean_linker_0
_symmetry_space_group_name_H-M    P1
_symmetry_Int_Tables_number       1
_symmetry_cell_setting            triclinic
loop_
_symmetry_equiv_pos_as_xyz
'x, y, z'
_cell_length_a     21.431483
_cell_length_b     43.68892
_cell_length_c     39.415057
_cell_angle_alpha  92.048518
_cell_angle_beta   93.007012
_cell_angle_gamma 71.78078
loop_
_atom_site_label
_atom_site_type_symbol
_atom_site_fract_x
_atom_site_fract_y
_atom_site_fract_z
_atom_type_partial_charge
Pr0 Pr 1.04629 1.02684 0.01318 0.0
Pr1 Pr 0.16148 0.04107 0.01323 0.0
C2 C 0.92163 1.03146 0.02366 0.0
C3 C 0.86448 0.0603 0.01703 0.0
C4 C 0.84998 0.07266 0.98406 0.0
C5 C 0.8051 0.10317 0.97875 0.0
C6 C 0.7739 0.12212 0.00623 0.0
C7 C 0.78706 0.1095 0.03909 0.0
C8 C 0.83181 0.07884 0.04441 0.0
C9 C 1.08538 1.02693 0.94625 0.0
C10 C 1.03368 0.10665 0.01043 0.0
C11 C 0.27766 0.0476 -0.00142 0.0
C12 C 0.29535 0.07242 0.98104 0.0
C13 C 0.36077 0.07204 0.98198 0.0
C14 C 0.37752 0.09646 0.96662 0.0
C15 C 0.32898 0.12166 0.95002 0.0
C16 C 0.26331 0.12181 0.94893 0.0
C17 C 0.24663 0.09725 0.96427 0.0
C18 C 0.12213 0.04197 0.08033 0.0
C19 C 0.17315 0.96117 0.01577 0.0
O20 O 0.96215 1.03512 0.04826 0.0
O21 O 0.952 1.01618 -0.00287 0.0
O22 O 1.08468 0.04861 0.9686 0.0
O23 O 1.06818 1.00377 0.95863 0.0
O24 O 0.09695 0.0958 0.0045 0.0
O25 O 1.00414 0.08514 0.01696 0.0
O26 O 0.25078 0.05651 0.02776 0.0
O27 O 0.24817 1.03069 0.97963 0.0
O28 O 0.12202 1.02017 0.05824 0.0
O29 O 0.14217 0.06411 0.06782 0.0
O30 O 0.10959 0.97199 0.02139 0.0
O31 O 0.20337 0.98265 0.00973 0.0
H32 H 0.87477 0.05927 0.96237 0.0
H33 H 0.79474 0.11188 0.95302 0.0
H34 H 0.76371 0.12357 0.06077 0.0
H35 H 0.8429 0.07014 0.07013 0.0
H36 H 0.39873 0.05315 -0.00495 0.0
H37 H 0.42837 0.09605 0.9686 0.0
H38 H 0.22501 0.14087 0.93633 0.0
H39 H 0.1957 0.09779 0.96336 0.0
Pr40 Pr 0.11361 1.00783 0.51564 0.0
Pr41 Pr 1.06478 0.07296 0.51072 0.0
C42 C 0.14273 0.9447 0.52878 0.0
C43 C 0.11305 0.91999 0.51721 0.0
C44 C 0.1533 0.88867 0.50964 0.0
C45 C 0.12598 0.86621 0.49422 0.0
C46 C 1.0582 0.87504 0.48596 0.0
C47 C 1.01791 0.90616 0.49451 0.0
C48 C 1.04512 0.92844 0.50993 0.0
C49 C 0.10509 1.02517 0.44705 0.0
C50 C 0.94432 0.04005 0.51178 0.0
C51 C 1.03098 0.13534 0.49326 0.0
C52 C 1.06174 0.16055 0.49009 0.0
C53 C 1.02684 0.19243 0.499 0.0
C54 C 1.05732 0.21635 0.49895 0.0
C55 C 0.12289 0.20862 0.48971 0.0
C56 C 0.15701 0.17682 0.47973 0.0
C57 C 0.12674 0.1529 0.48007 0.0
C58 C 1.07282 0.05568 0.5793 0.0
C59 C 0.23345 0.04119 0.51634 0.0
O60 O 0.10819 0.96755 0.5488 0.0
O61 O 0.16992 0.95556 0.50511 0.0
O62 O 1.05969 1.03619 0.46777 0.0
O63 O 0.15674 1.00575 0.46198 0.0
O64 O 0.95709 0.06707 0.50598 0.0
O65 O 0.99587 1.0139 0.51745 0.0
O66 O 1.04686 0.11136 0.4713 0.0
O67 O 1.02786 0.12622 0.52409 0.0
O68 O 0.11816 0.04419 0.55862 0.0
O69 O 1.02182 0.0759 0.56454 0.0
O70 O 0.21998 1.01488 0.5246 0.0
O71 O 0.18238 0.06677 0.50785 0.0
H72 H 0.20597 0.8819 0.51474 0.0
H73 H 0.15796 0.84232 0.48788 0.0
H74 H 0.96527 0.91334 0.48912 0.0
H75 H 1.01315 0.95248 0.51542 0.0
H76 H 0.97663 0.19861 0.50687 0.0
H77 H 1.03026 0.2407 0.50683 0.0
H78 H 0.20811 0.17014 0.47321 0.0
H79 H 0.15467 0.12833 0.47343 0.0
Pr80 Pr 0.54812 0.52878 0.00687 0.0
Pr81 Pr 0.6647 0.54123 0.00898 0.0
C82 C 0.42774 0.52224 0.00611 0.0
C83 C 0.39936 0.50169 0.98377 0.0
C84 C 0.36044 0.51481 0.95479 0.0
C85 C 0.34104 0.49489 0.93088 0.0
C86 C 0.35944 0.46153 0.93572 0.0
C87 C 0.39683 0.44846 0.96509 0.0
C88 C 0.41674 0.46833 0.98887 0.0
C89 C 0.59419 0.52584 0.94054 0.0
C90 C 0.53947 0.60761 0.0132 0.0
C91 C 0.787 0.53819 -0.00603 0.0
C92 C 0.83428 0.51279 0.97404 0.0
C93 C 0.86471 0.4819 0.98732 0.0
C94 C 0.90191 0.45681 0.9667 0.0
C95 C 0.90912 0.46206 0.9324 0.0
C96 C 0.87988 0.493 0.91933 0.0
C97 C 0.84304 0.51811 0.93992 0.0
C98 C 0.62106 0.54614 0.07556 0.0
C99 C 0.6723 0.4619 0.0073 0.0
O100 O 0.44015 0.54571 -0.00886 0.0
O101 O 0.47458 0.50762 0.028 0.0
O102 O 0.59222 0.5478 0.9625 0.0
O103 O 0.57588 0.50334 0.95334 0.0
O104 O 0.60186 0.59676 0.00516 0.0
O105 O 0.50998 0.58602 0.01985 0.0
O106 O 0.73497 0.55554 0.97679 0.0
O107 O 0.77308 0.53021 0.02362 0.0
O108 O 0.61845 0.52404 0.05425 0.0
O109 O 0.64639 0.56627 0.06262 0.0
O110 O 0.6092 0.47331 0.01344 0.0
O111 O 0.70303 0.48307 0.00125 0.0
H112 H 0.34616 0.54043 0.9502 0.0
H113 H 0.31084 0.50562 0.90884 0.0
H114 H 0.41123 0.4228 0.96946 0.0
H115 H 0.4469 0.45739 0.01083 0.0
H116 H 0.85872 0.47684 0.01343 0.0
H117 H 0.92457 0.43322 0.97746 0.0
H118 H 0.88656 0.49795 0.8933 0.0
H119 H 0.82028 0.54158 0.92893 0.0
Pr120 Pr 0.62158 0.50466 0.51118 0.0
Pr121 Pr 0.56846 0.57036 0.50453 0.0
C122 C 0.66483 0.44214 0.52846 0.0
C123 C 0.6417 0.41658 0.54034 0.0
C124 C 0.68156 0.38452 0.53704 0.0
C125 C 0.65772 0.35954 0.54509 0.0
C126 C 0.59379 0.36649 0.5566 0.0
C127 C 0.55531 0.39879 0.56155 0.0
C128 C 0.57908 0.42372 0.55334 0.0
C129 C 0.6205 0.52207 0.44285 0.0
C130 C 0.45168 0.53513 0.50682 0.0
C131 C 0.53519 0.63253 0.48683 0.0
C132 C 0.57087 0.65048 0.46955 0.0
C133 C 0.55152 0.68415 0.47207 0.0
C134 C 0.5904 0.70084 0.45884 0.0
C135 C 0.64926 0.68387 0.44338 0.0
C136 C 0.66688 0.65024 0.43964 0.0
C137 C 0.62773 0.63367 0.45249 0.0
C138 C 0.57066 0.55272 0.57266 0.0
C139 C 0.73797 0.5396 0.50779 0.0
O140 O 0.66259 0.46586 0.54991 0.0
O141 O 0.64626 0.45162 0.49748 0.0
O142 O 0.57279 0.5323 0.46219 0.0
O143 O 0.67131 0.50304 0.45896 0.0
O144 O 0.46323 0.56192 0.49857 0.0
O145 O 0.50399 0.50999 0.51541 0.0
O146 O 0.51946 0.61052 0.46824 0.0
O147 O 0.55925 0.62253 0.51701 0.0
O148 O 0.61828 0.54303 0.5532 0.0
O149 O 0.51902 0.5714 0.55681 0.0
O150 O 0.72628 0.51349 0.51796 0.0
O151 O 0.6857 0.56409 0.49794 0.0
H152 H 0.73019 0.3788 0.52712 0.0
H153 H 0.68808 0.33483 0.54101 0.0
H154 H 0.50534 0.40479 0.56973 0.0
H155 H 0.5478 0.44847 0.55592 0.0
H156 H 0.50775 0.69737 0.48524 0.0
H157 H 0.57635 0.72679 0.46227 0.0
H158 H 0.71193 0.63674 0.42767 0.0
H159 H 0.64297 0.60764 0.45005 0.0
H160 H 0.58477 0.65966 0.00238 0.0
H161 H 0.52497 0.71754 0.00298 0.0
H162 H 0.34826 0.6976 0.02744 0.0
H163 H 0.40793 0.63956 0.02638 0.0
H164 H 0.31152 0.74481 0.98516 0.0
H165 H 0.4483 0.73186 0.08683 0.0
H166 H 0.55189 0.71532 0.12164 0.0
H167 H 0.62837 0.77639 0.06444 0.0
H168 H 0.52548 0.79299 0.02899 0.0
H169 H 0.12773 0.90928 0.02733 0.0
H170 H 0.18752 0.85142 0.02765 0.0
H171 H 0.36532 0.87106 0.00468 0.0
H172 H 0.30571 0.92908 0.00499 0.0
H173 H 0.40143 0.8239 0.04636 0.0
H174 H 0.26452 0.83671 0.94455 0.0
H175 H 0.16093 0.85309 0.90971 0.0
H176 H 1.08464 0.79213 0.96718 0.0
H177 H 0.18751 0.7757 0.00265 0.0
C178 C 0.53324 0.66737 0.0081 0.0
C179 C 0.50224 0.64403 0.01454 0.0
C180 C 0.49858 0.70101 0.00863 0.0
C181 C 0.43101 0.71321 0.01578 0.0
C182 C 0.39988 0.68983 0.02188 0.0
C183 C 0.43459 0.65617 0.02142 0.0
C184 C 0.39309 0.74981 0.01655 0.0
C185 C 0.33127 0.76183 -0.00094 0.0
C186 C 0.41763 0.77328 0.03378 0.0
C187 C 0.47946 0.76341 0.05504 0.0
C188 C 0.4874 0.74158 0.08152 0.0
C189 C 0.54595 0.73222 0.10139 0.0
C190 C 0.59675 0.74473 0.0952 0.0
C191 C 0.58901 0.76669 0.06918 0.0
C192 C 0.53057 0.7761 0.0492 0.0
C193 C 0.17957 0.90151 0.02226 0.0
C194 C 0.21087 0.92478 0.01601 0.0
C195 C 0.21421 0.86788 0.02219 0.0
C196 C 0.28203 0.85556 0.01558 0.0
C197 C 0.31351 0.87889 0.00981 0.0
C198 C 0.27886 0.91255 0.00989 0.0
C199 C 0.31983 0.81893 0.01494 0.0
C200 C 0.38165 0.8069 0.03245 0.0
C201 C 0.29527 0.79544 -0.00227 0.0
C202 C 0.23344 0.80525 0.97647 0.0
C203 C 0.22546 0.82698 0.94991 0.0
C204 C 0.16691 0.83624 0.93002 0.0
C205 C 0.11617 0.82373 0.93629 0.0
C206 C 0.12394 0.80185 0.9624 0.0
C207 C 0.18238 0.79254 0.98238 0.0
H208 H 1.07088 0.83092 0.92087 0.0
H209 H 0.64205 0.73745 0.11061 0.0
H210 H 0.80692 0.42924 0.00628 0.0
H211 H 0.86523 0.37137 0.0072 0.0
H212 H 0.68007 0.35197 0.00726 0.0
H213 H 0.62202 0.41009 0.00807 0.0
H214 H 0.75159 0.3083 0.04168 0.0
H215 H 0.8 0.33853 0.93387 0.0
H216 H 0.84007 0.36637 0.89055 0.0
H217 H 1.03336 0.33619 0.93861 0.0
H218 H 0.99433 0.30844 0.98248 0.0
H219 H 0.89847 0.13753 0.00939 0.0
H220 H 0.83735 0.19503 0.00744 0.0
H221 H 1.01957 0.2173 0.00962 0.0
H222 H 1.08061 0.15953 0.0095 0.0
H223 H 0.94655 0.25918 0.97323 0.0
H224 H 0.88883 0.22781 0.08222 0.0
H225 H 0.84449 0.19479 0.11783 0.0
H226 H 0.66055 0.22483 0.06034 0.0
H227 H 0.70405 0.25766 0.0241 0.0
C228 C 0.7782 0.41282 0.00635 0.0
C229 C 0.70881 0.42531 0.00693 0.0
C230 C 0.81207 0.37907 0.00654 0.0
C231 C 0.77849 0.35571 0.00649 0.0
C232 C 0.70898 0.36834 0.00727 0.0
C233 C 0.67516 0.40213 0.00758 0.0
C234 C 0.81507 0.31877 0.00627 0.0
C235 C 0.79382 0.2979 0.02628 0.0
C236 C 0.87129 0.30355 0.98676 0.0
C237 C 0.89409 0.32164 0.9616 0.0
C238 C 0.85084 0.33817 0.93545 0.0
C239 C 0.87341 0.35383 0.91076 0.0
C240 C 0.93921 0.3529 0.91183 0.0
C241 C 0.98243 0.33677 0.93784 0.0
C242 C 0.96013 0.32108 0.96261 0.0
C243 C 0.92589 0.15454 0.00947 0.0
C244 C 0.9954 0.14297 0.00975 0.0
C245 C 0.89035 0.18806 0.00874 0.0
C246 C 0.92219 0.2121 0.00929 0.0
C247 C 0.99188 0.20038 0.00929 0.0
C248 C 1.02744 0.1668 0.00936 0.0
C249 C 0.88402 0.24887 0.00913 0.0
C250 C 0.90479 0.2697 0.98891 0.0
C251 C 0.82663 0.26391 0.02793 0.0
C252 C 0.79985 0.24503 0.05038 0.0
C253 C 0.83895 0.22734 0.07719 0.0
C254 C 0.814 0.20861 0.09742 0.0
C255 C 0.74981 0.20764 0.09125 0.0
C256 C 0.71028 0.22556 0.065 0.0
C257 C 0.73501 0.24426 0.04466 0.0
H258 H 0.73067 0.19304 0.10686 0.0
H259 H 0.95691 0.36438 0.89231 0.0
H260 H 0.20145 0.22294 0.4447 0.0
H261 H 0.28015 0.2525 0.45751 0.0
H262 H 0.20542 0.27609 0.55787 0.0
H263 H 0.12607 0.24702 0.54504 0.0
H264 H 0.24824 0.3248 0.52975 0.0
H265 H 0.32794 0.20812 0.54843 0.0
H266 H 0.34091 0.15284 0.5269 0.0
H267 H 0.45242 0.16705 0.44487 0.0
H268 H 0.44022 0.22241 0.46599 0.0
H269 H 0.51955 0.35594 0.60656 0.0
H270 H 0.4425 0.32469 0.59973 0.0
H271 H 0.51866 0.28987 0.50159 0.0
H272 H 0.59621 0.32033 0.50857 0.0
H273 H 0.47388 0.2467 0.53012 0.0
H274 H 0.4023 0.36043 0.51019 0.0
H275 H 0.38622 0.41731 0.5264 0.0
H276 H 0.25483 0.41204 0.60295 0.0
H277 H 0.27194 0.35475 0.588 0.0
C278 C 0.20071 0.23523 0.46911 0.0
C279 C 0.15861 0.23241 0.49409 0.0
C280 C 0.24542 0.25209 0.47637 0.0
C281 C 0.24923 0.26576 0.50886 0.0
C282 C 0.20313 0.26557 0.5327 0.0
C283 C 0.15792 0.24899 0.52534 0.0
C284 C 0.30685 0.27578 0.51967 0.0
C285 C 0.29752 0.30776 0.53028 0.0
C286 C 0.371 0.25346 0.5197 0.0
C287 C 0.38304 0.21936 0.50872 0.0
C288 C 0.35566 0.19933 0.52596 0.0
C289 C 0.36286 0.168 0.51382 0.0
C290 C 0.39762 0.15643 0.48456 0.0
C291 C 0.4258 0.17602 0.4676 0.0
C292 C 0.41902 0.20731 0.47973 0.0
C293 C 0.52131 0.34063 0.58416 0.0
C294 C 0.56276 0.3409 0.55782 0.0
C295 C 0.47745 0.32286 0.58027 0.0
C296 C 0.47381 0.30586 0.54972 0.0
C297 C 0.52051 0.30305 0.52525 0.0
C298 C 0.56485 0.32046 0.52929 0.0
C299 C 0.4155 0.29578 0.54058 0.0
C300 C 0.42464 0.26376 0.53008 0.0
C301 C 0.35129 0.31829 0.54008 0.0
C302 C 0.33925 0.35309 0.54834 0.0
C303 C 0.37061 0.37125 0.53077 0.0
C304 C 0.3615 0.40355 0.53981 0.0
C305 C 0.31991 0.4182 0.56586 0.0
C306 C 0.28726 0.4006 0.58287 0.0
C307 C 0.29682 0.36818 0.5742 0.0
H308 H 0.31268 0.44323 0.57275 0.0
H309 H 0.40251 0.13234 0.4749 0.0
H310 H 0.97053 0.88636 0.43183 0.0
H311 H 0.90791 0.8514 0.40934 0.0
H312 H 1.01622 0.77725 0.47869 0.0
H313 H 1.07902 0.81216 0.50134 0.0
H314 H 0.98616 0.75261 0.41566 0.0
H315 H 0.87874 0.82923 0.50287 0.0
H316 H 0.83349 0.8837 0.52811 0.0
H317 H 0.69917 0.91199 0.4418 0.0
H318 H 0.74449 0.85778 0.41576 0.0
H319 H 0.77755 0.66841 0.46349 0.0
H320 H 0.8522 0.69931 0.45563 0.0
H321 H 0.70117 0.76815 0.39612 0.0
H322 H 0.62491 0.73768 0.40523 0.0
H323 H 0.75069 0.79784 0.44219 0.0
H324 H 0.84744 0.71569 0.36034 0.0
H325 H 0.89224 0.65985 0.3386 0.0
H326 H 1.04554 0.64035 0.41698 0.0
H327 H 1.0013 0.69595 0.43943 0.0
C328 C 0.98154 0.86242 0.44191 0.0
C329 C 1.02857 0.85209 0.46874 0.0
C330 C 0.94612 0.84247 0.42893 0.0
C331 C 0.95696 0.81206 0.44277 0.0
C332 C 1.00736 0.80071 0.46772 0.0
C333 C 1.04301 0.82064 0.48067 0.0
C334 C 0.91058 0.79384 0.43456 0.0
C335 C 0.9346 0.76236 0.42132 0.0
C336 C 0.84318 0.80705 0.44141 0.0
C337 C 0.81562 0.8396 0.45715 0.0
C338 C 0.83997 0.84716 0.48913 0.0
C339 C 0.81426 0.87797 0.5036 0.0
C340 C 0.76364 0.90134 0.48652 0.0
C341 C 0.73851 0.89389 0.45496 0.0
C342 C 0.7642 0.86313 0.44032 0.0
C343 C 0.76078 0.68974 0.44808 0.0
C344 C 0.6958 0.70071 0.43478 0.0
C345 C 0.80361 0.70729 0.44342 0.0
C346 C 0.7828 0.7357 0.42469 0.0
C347 C 0.71835 0.74616 0.41045 0.0
C348 C 0.67493 0.72886 0.41565 0.0
C349 C 0.82609 0.75616 0.42356 0.0
C350 C 0.80164 0.78818 0.43535 0.0
C351 C 0.89309 0.7433 0.41555 0.0
C352 C 0.9209 0.71002 0.4016 0.0
C353 C 0.89061 0.69948 0.373 0.0
C354 C 0.91591 0.66786 0.36055 0.0
C355 C 0.97167 0.64656 0.37641 0.0
C356 C 1.0024 0.65688 0.40469 0.0
C357 C 0.97734 0.68848 0.41722 0.0
H358 H 0.9911 0.62207 0.36677 0.0
H359 H 0.7438 0.92518 0.49777 0.0
H360 H 0.26539 0.18679 0.9552 0.0
H361 H 0.31197 0.22979 0.94439 0.0
H362 H 0.4835 0.15848 0.90494 0.0
H363 H 0.43479 0.11681 0.91292 0.0
H364 H 0.39804 0.24118 0.97646 0.0
H365 H 0.58951 0.17683 0.86864 0.0
H366 H 0.58014 0.16491 0.80763 0.0
H367 H 0.38041 0.22708 0.80315 0.0
H368 H 0.3884 0.23992 0.8641 0.0
H369 H 0.65485 0.14594 0.03399 0.0
H370 H 0.56385 0.19035 0.01433 0.0
H371 H 0.68837 0.21599 0.94489 0.0
H372 H 0.7799 0.16958 0.96371 0.0
H373 H 0.59709 0.2144 0.90905 0.0
H374 H 0.57058 0.2793 -0.00191 0.0
H375 H 0.5763 0.30295 0.05528 0.0
H376 H 0.43841 0.25871 0.08915 0.0
H377 H 0.43275 0.2341 0.03255 0.0
C378 C 0.31163 0.18072 0.94269 0.0
C379 C 0.34756 0.14836 0.9358 0.0
C380 C 0.3385 0.20532 0.93669 0.0
C381 C 0.40196 0.1978 0.92418 0.0
C382 C 0.43409 0.16573 0.91396 0.0
C383 C 0.40681 0.14145 0.91929 0.0
C384 C 0.44173 0.22025 0.92946 0.0
C385 C 0.44121 0.23566 0.9615 0.0
C386 C 0.4945 0.2179 0.90829 0.0
C387 C 0.49002 0.20995 0.87127 0.0
C388 C 0.54384 0.18858 0.85475 0.0
C389 C 0.53862 0.18142 0.82007 0.0
C390 C 0.47986 0.19535 0.80147 0.0
C391 C 0.42602 0.21637 0.81755 0.0
C392 C 0.43088 0.22359 0.85223 0.0
C393 C 0.6637 0.16164 0.01543 0.0
C394 C 0.72417 0.15388 -1e-05 0.0
C395 C 0.61133 0.18766 0.00429 0.0
C396 C 0.61831 0.20709 0.97782 0.0
C397 C 0.68099 0.20139 0.965 0.0
C398 C 0.73329 0.17477 0.9757 0.0
C399 C 0.55789 0.22663 0.95875 0.0
C400 C 0.55326 0.22066 0.92358 0.0
C401 C 0.4991 0.24013 0.97602 0.0
C402 C 0.50054 0.25512 0.01054 0.0
C403 C 0.5413 0.27456 0.01765 0.0
C404 C 0.54465 0.28813 0.05007 0.0
C405 C 0.50747 0.28248 0.07579 0.0
C406 C 0.46686 0.26324 0.06912 0.0
C407 C 0.4633 0.24959 0.03672 0.0
H408 H 0.51027 0.29293 0.10091 0.0
H409 H 0.47596 0.18975 0.77463 0.0
H410 H 0.35003 0.98949 0.51447 0.0
H411 H 0.46431 0.98864 0.51251 0.0
H412 H 0.40188 0.09228 0.51755 0.0
H413 H 0.28643 0.0931 0.51683 0.0
H414 H 0.49945 0.08099 0.48342 0.0
H415 H 0.49589 1.02789 0.58775 0.0
H416 H 0.47717 0.98722 0.62436 0.0
H417 H 0.60854 0.9115 0.56615 0.0
H418 H 0.62745 0.95171 0.52898 0.0
H419 H 0.82757 0.09144 0.51531 0.0
H420 H 0.71363 0.09192 0.51742 0.0
H421 H 0.77681 0.98827 0.51022 0.0
H422 H 0.89193 0.98785 0.51017 0.0
H423 H 0.67917 0.99952 0.54524 0.0
H424 H 0.67949 0.05327 0.44002 0.0
H425 H 0.69975 0.09441 0.40464 0.0
H426 H 0.57607 0.16954 0.46667 0.0
H427 H 0.555 0.12881 0.50235 0.0
C428 C 0.35993 1.01234 0.51523 0.0
C429 C 0.30635 0.04136 0.51605 0.0
C430 C 0.42702 1.01186 0.51453 0.0
C431 C 0.44582 0.0404 0.5158 0.0
C432 C 0.39195 0.06948 0.51643 0.0
C433 C 0.32454 0.06998 0.51627 0.0
C434 C 0.51978 0.04008 0.51582 0.0
C435 C 0.53786 0.06324 0.49756 0.0
C436 C 0.57383 1.01695 0.53315 0.0
C437 C 0.56253 0.99278 0.55541 0.0
C438 C 0.52047 1.00255 0.58267 0.0
C439 C 0.50986 0.97959 0.60352 0.0
C440 C 0.5415 0.9468 0.59752 0.0
C441 C 0.58397 0.9369 0.57073 0.0
C442 C 0.59469 0.95976 0.54978 0.0
C443 C 0.81791 0.06853 0.51401 0.0
C444 C 0.87162 0.03963 0.51231 0.0
C445 C 0.751 0.06879 0.51478 0.0
C446 C 0.73248 0.04018 0.51287 0.0
C447 C 0.78646 1.01118 0.51155 0.0
C448 C 0.85373 1.0109 0.5114 0.0
C449 C 0.65861 0.04043 0.5129 0.0
C450 C 0.64061 1.01725 0.53113 0.0
C451 C 0.60459 0.0636 0.49568 0.0
C452 C 0.61603 0.08804 0.47391 0.0
C453 C 0.65665 0.07857 0.44607 0.0
C454 C 0.66821 0.10181 0.42597 0.0
C455 C 0.63922 0.13456 0.43341 0.0
C456 C 0.59841 0.14416 0.46091 0.0
C457 C 0.58644 0.12102 0.481 0.0
H458 H 0.64836 0.15251 0.41788 0.0
H459 H 0.53321 0.92905 0.61369 0.0
H460 H 1.03293 0.42409 0.94856 0.0
H461 H 0.11339 0.39292 0.90946 0.0
H462 H 0.96414 0.41108 0.82805 0.0
H463 H 0.88247 0.44195 0.86822 0.0
H464 H 0.1434 0.34273 0.85987 0.0
H465 H 1.03072 0.41256 0.77028 0.0
H466 H 0.94809 0.4578 0.74139 0.0
H467 H 0.99353 0.52474 0.81332 0.0
H468 H 1.07606 0.47987 0.84271 0.0
H469 H 0.36151 0.45945 0.86608 0.0
H470 H 0.30651 0.43013 0.82673 0.0
H471 H 0.24353 0.39044 0.91271 0.0
H472 H 0.30004 0.41809 0.95118 0.0
H473 H 0.18446 0.44022 0.81872 0.0
H474 H 0.22021 0.32912 0.90741 0.0
H475 H 0.3188 0.29324 0.9367 0.0
H476 H 0.43945 0.30756 0.85909 0.0
H477 H 0.34169 0.3432 0.82894 0.0
C478 C 1.01667 0.4205 0.92265 0.0
C479 C 0.95231 0.4365 0.91092 0.0
C480 C 1.06272 0.4025 0.90014 0.0
C481 C 1.04546 0.40017 0.86536 0.0
C482 C 0.97929 0.41321 0.8544 0.0
C483 C 0.9329 0.43108 0.8772 0.0
C484 C 0.09956 0.39083 0.84126 0.0
C485 C 0.15294 0.36333 0.84933 0.0
C486 C 0.11244 0.41605 0.82421 0.0
C487 C 1.05927 0.44288 0.80868 0.0
C488 C 1.0226 0.43692 0.78006 0.0
C489 C 0.97613 0.4625 0.76348 0.0
C490 C 0.96606 0.49415 0.7753 0.0
C491 C 1.00177 0.50025 0.80402 0.0
C492 C 1.04829 0.47475 0.82067 0.0
C493 C 0.33737 0.4436 0.87625 0.0
C494 C 0.335 0.44086 0.91159 0.0
C495 C 0.30639 0.42677 0.85382 0.0
C496 C 0.27228 0.40723 0.8665 0.0
C497 C 0.27205 0.40391 0.90189 0.0
C498 C 0.30375 0.42014 0.9241 0.0
C499 C 0.22617 0.39525 0.84449 0.0
C500 C 0.17628 0.41828 0.82653 0.0
C501 C 0.21728 0.36531 0.85115 0.0
C502 C 0.27329 0.33893 0.86579 0.0
C503 C 0.2673 0.32389 0.89591 0.0
C504 C 0.32329 0.30388 0.91294 0.0
C505 C 0.38531 0.29864 0.9 0.0
C506 C 0.39138 0.31202 0.86924 0.0
C507 C 0.33572 0.33203 0.85213 0.0
H508 H 0.42891 0.28448 0.91386 0.0
H509 H 0.93004 0.51391 0.76244 0.0
H510 H 0.39872 0.48736 0.52883 0.0
H511 H 0.28364 0.48786 0.52909 0.0
H512 H 0.221 0.58128 0.48357 0.0
H513 H 0.33518 0.58125 0.48456 0.0
H514 H 0.12856 0.58591 0.51807 0.0
H515 H 0.22783 0.49658 0.44617 0.0
H516 H 0.29972 0.44396 0.42599 0.0
H517 H 0.22732 0.39609 0.50081 0.0
H518 H 0.1576 0.44846 0.52265 0.0
H519 H 0.79008 0.5857 0.48129 0.0
H520 H 0.90489 0.58523 0.47949 0.0
H521 H 0.96883 0.49505 0.53162 0.0
H522 H 0.85473 0.49497 0.53216 0.0
H523 H 1.0595 0.48931 0.49275 0.0
H524 H 0.96037 0.58312 0.56417 0.0
H525 H 0.88172 0.6366 0.57682 0.0
H526 H 0.94943 0.6766 0.49351 0.0
H527 H 1.02716 0.62324 0.47982 0.0
C528 C 0.3608 0.50811 0.51873 0.0
C529 C 0.37906 0.53422 0.50658 0.0
C530 C 0.29346 0.50834 0.5186 0.0
C531 C 0.23977 0.53445 0.5058 0.0
C532 C 0.2585 0.56048 0.49385 0.0
C533 C 0.32547 0.56039 0.49426 0.0
C534 C 0.16538 0.5353 0.50525 0.0
C535 C 0.11454 0.5645 0.51208 0.0
C536 C 0.14269 0.50801 0.49794 0.0
C537 C 0.18811 0.47661 0.48641 0.0
C538 C 0.22824 0.47491 0.45883 0.0
C539 C 0.26866 0.44509 0.44708 0.0
C540 C 0.26835 0.41671 0.46222 0.0
C541 C 0.22782 0.4181 0.48922 0.0
C542 C 0.18827 0.44787 0.50149 0.0
C543 C 0.82823 0.56571 0.49258 0.0
C544 C 0.8104 0.54047 0.50707 0.0
C545 C 0.89539 0.56553 0.49184 0.0
C546 C 0.94924 0.54039 0.5061 0.0
C547 C 0.931 0.51513 0.52028 0.0
C548 C 0.86418 0.51516 0.52073 0.0
C549 C 1.02339 0.53967 0.50603 0.0
C550 C 1.07404 0.51054 0.49901 0.0
C551 C 1.04583 0.56708 0.51249 0.0
C552 C 0.99906 0.59911 0.52076 0.0
C553 C 0.95806 0.60328 0.54839 0.0
C554 C 0.91354 0.63356 0.55569 0.0
C555 C 0.9102 0.65994 0.53581 0.0
C556 C 0.95158 0.65611 0.50868 0.0
C557 C 0.99584 0.62585 0.50113 0.0
H558 H 0.87577 0.68337 0.54152 0.0
H559 H 0.29938 0.39363 0.45297 0.0
H560 H 0.99338 0.05182 0.40588 0.0
H561 H 0.98596 0.05431 0.34338 0.0
H562 H 0.19618 1.01076 0.3409 0.0
H563 H 0.20328 1.00732 0.40261 0.0
H564 H 1.02818 0.08224 0.29648 0.0
H565 H 0.24299 0.96415 0.27251 0.0
H566 H 0.29305 0.91107 0.2986 0.0
H567 H 0.11183 0.91959 0.34549 0.0
H568 H 1.06041 0.9725 0.3193 0.0
H569 H 0.14109 0.08245 0.13133 0.0
H570 H 0.12855 0.07956 0.19218 0.0
H571 H 1.06772 0.99484 0.17489 0.0
H572 H 1.08231 0.99717 0.11366 0.0
H573 H 0.14453 0.98548 0.22827 0.0
H574 H 0.95705 0.07185 0.19554 0.0
H575 H 0.89423 0.12281 0.16815 0.0
H576 H 0.99701 0.17409 0.23269 0.0
H577 H 1.06121 0.12335 0.26014 0.0
C578 C 1.03789 0.0428 0.39192 0.0
C579 C 0.09882 1.02903 0.40933 0.0
C580 C 1.0337 0.04426 0.35611 0.0
C581 C 1.09033 1.03206 0.33691 0.0
C582 C 0.15131 1.01949 0.35461 0.0
C583 C 0.15538 1.01772 0.39013 0.0
C584 C 1.08652 1.03225 0.29858 0.0
C585 C 1.0536 0.06103 0.28165 0.0
C586 C 0.11773 1.00444 0.27864 0.0
C587 C 0.14805 0.97243 0.29415 0.0
C588 C 0.21373 0.95463 0.28825 0.0
C589 C 0.24236 0.92459 0.30308 0.0
C590 C 0.2057 0.91201 0.32376 0.0
C591 C 0.14024 0.92941 0.32956 0.0
C592 C 0.11135 0.95944 0.31475 0.0
C593 C 0.12488 0.06319 0.14038 0.0
C594 C 0.11269 0.04004 0.11745 0.0
C595 C 0.11722 0.06169 0.17536 0.0
C596 C 1.096 1.0373 0.18857 0.0
C597 C 1.08398 1.01401 0.16566 0.0
C598 C 1.09217 1.01538 0.13055 0.0
C599 C 1.08827 1.03577 0.22623 0.0
C600 C 0.11894 1.0067 0.24305 0.0
C601 C 1.05325 0.06305 0.24591 0.0
C602 C 1.01433 0.09372 0.22973 0.0
C603 C 0.96657 0.09396 0.20376 0.0
C604 C 0.93068 0.12281 0.18823 0.0
C605 C 0.94172 0.15166 0.19862 0.0
C606 C 0.98855 0.15172 0.22465 0.0
C607 C 1.02466 0.12292 0.24023 0.0
H608 H 0.91391 0.17397 0.18655 0.0
H609 H 0.22798 0.88877 0.33525 0.0
H610 H 1.07107 0.08181 0.91022 0.0
H611 H 1.07436 0.08637 0.84828 0.0
H612 H 0.12024 0.9834 0.83642 0.0
H613 H 0.11459 0.97882 0.898 0.0
H614 H 0.20082 1.02001 0.79701 0.0
H615 H 0.98183 1.0139 0.81761 0.0
H616 H 0.87656 1.03212 0.84631 0.0
H617 H 0.83988 0.12767 0.80924 0.0
H618 H 0.94555 0.11008 0.78077 0.0
H619 H 0.15454 1.00542 0.61664 0.0
H620 H 0.16147 0.9996 0.67856 0.0
H621 H 1.0179 0.0937 0.68906 0.0
H622 H 1.00769 0.0983 0.62742 0.0
H623 H 0.98919 0.06144 0.73097 0.0
H624 H 0.19871 0.07209 0.70944 0.0
H625 H 0.3057 0.05951 0.68282 0.0
H626 H 0.36417 0.96412 0.72293 0.0
H627 H 0.25716 0.97599 0.74945 0.0
C628 C 1.08228 0.06013 0.89443 0.0
C629 C 1.0923 1.02995 0.90909 0.0
C630 C 1.08416 0.06276 0.85901 0.0
C631 C 0.09768 1.03521 0.83757 0.0
C632 C 0.10996 1.00498 0.85233 0.0
C633 C 0.10647 1.00243 0.88757 0.0
C634 C 1.09569 1.038 0.7997 0.0
C635 C 0.15462 1.02878 0.78243 0.0
C636 C 1.03569 0.05033 0.7807 0.0
C637 C 0.97188 0.06077 0.79742 0.0
C638 C 0.95161 1.03886 0.81586 0.0
C639 C 0.89182 0.04906 0.83203 0.0
C640 C 0.85165 0.08106 0.8297 0.0
C641 C 0.8711 0.1029 0.81108 0.0
C642 C 0.93091 0.09283 0.79492 0.0
C643 C 0.1247 1.02485 0.63227 0.0
C644 C 1.08068 0.05234 0.61702 0.0
C645 C 0.12899 1.02167 0.66786 0.0
C646 C 1.09109 0.04644 0.68925 0.0
C647 C 1.04768 0.07402 0.67372 0.0
C648 C 1.04206 0.07675 0.63825 0.0
C649 C 1.09476 0.04359 0.72751 0.0
C650 C 1.03589 0.05276 0.74513 0.0
C651 C 0.15513 1.03201 0.74686 0.0
C652 C 0.21965 1.02483 0.73113 0.0
C653 C 0.23423 0.04836 0.7124 0.0
C654 C 0.29489 0.04137 0.69735 0.0
C655 C 0.34162 1.011 0.70109 0.0
C656 C 0.32788 0.98761 0.72 0.0
C657 C 0.26725 0.99446 0.73507 0.0
H658 H 0.38854 1.00562 0.68939 0.0
H659 H 0.80539 0.08891 0.84223 0.0
H660 H 0.51175 0.55163 0.40175 0.0
H661 H 0.50531 0.55583 0.33959 0.0
H662 H 0.71393 0.5073 0.33691 0.0
H663 H 0.72002 0.50226 0.39866 0.0
H664 H 0.5521 0.58379 0.29495 0.0
H665 H 0.75453 0.46324 0.26531 0.0
H666 H 0.80119 0.40897 0.28921 0.0
H667 H 0.62034 0.41981 0.33756 0.0
H668 H 0.57233 0.47395 0.31359 0.0
H669 H 0.65005 0.5848 0.126 0.0
H670 H 0.64401 0.5811 0.18733 0.0
H671 H 0.56925 0.50053 0.17175 0.0
H672 H 0.57737 0.50355 0.1101 0.0
H673 H 0.65284 0.48762 0.22241 0.0
H674 H 0.46982 0.5796 0.19593 0.0
H675 H 0.41116 0.63247 0.17121 0.0
H676 H 0.53094 0.67637 0.23383 0.0
H677 H 0.59096 0.62367 0.2586 0.0
C678 C 0.5562 0.54183 0.38786 0.0
C679 C 0.61628 0.52628 0.40523 0.0
C680 C 0.55255 0.54432 0.35224 0.0
C681 C 0.60888 0.53137 0.33305 0.0
C682 C 0.66925 0.51679 0.35065 0.0
C683 C 0.67279 0.51407 0.38615 0.0
C684 C 0.60477 0.53297 0.29482 0.0
C685 C 0.57421 0.56271 0.27918 0.0
C686 C 0.63193 0.50547 0.2737 0.0
C687 C 0.66011 0.47277 0.2879 0.0
C688 C 0.72465 0.45398 0.28092 0.0
C689 C 0.75134 0.42325 0.29451 0.0
C690 C 0.71382 0.41099 0.31497 0.0
C691 C 0.64944 0.42938 0.3218 0.0
C692 C 0.62249 0.4601 0.30825 0.0
C693 C 0.63203 0.56633 0.13555 0.0
C694 C 0.61412 0.54449 0.11297 0.0
C695 C 0.62819 0.56435 0.17081 0.0
C696 C 0.6052 0.54082 0.18465 0.0
C697 C 0.58713 0.51898 0.16205 0.0
C698 C 0.59151 0.52078 0.12669 0.0
C699 C 0.60163 0.5386 0.22254 0.0
C700 C 0.63071 0.50873 0.23814 0.0
C701 C 0.57156 0.56581 0.24353 0.0
C702 C 0.53525 0.59762 0.22891 0.0
C703 C 0.48393 0.60049 0.20427 0.0
C704 C 0.4504 0.63043 0.19027 0.0
C705 C 0.46741 0.65775 0.20089 0.0
C706 C 0.51786 0.65519 0.22561 0.0
C707 C 0.5516 0.62529 0.23967 0.0
H708 H 0.44143 0.6809 0.19 0.0
H709 H 0.7346 0.38721 0.32549 0.0
H710 H 0.48167 0.54078 0.61293 0.0
H711 H 0.48824 0.53536 0.67469 0.0
H712 H 0.67515 0.55382 0.67926 0.0
H713 H 0.67119 0.55584 0.61715 0.0
H714 H 0.68683 0.51681 0.72402 0.0
H715 H 0.50756 0.61231 0.70158 0.0
H716 H 0.40216 0.6457 0.67552 0.0
H717 H 0.30185 0.5869 0.71983 0.0
H718 H 0.40677 0.55295 0.74584 0.0
H719 H 0.57306 0.58149 0.90508 0.0
H720 H 0.57035 0.58743 0.84316 0.0
H721 H 0.62066 0.48441 0.82944 0.0
H722 H 0.6211 0.47846 0.89122 0.0
H723 H 0.49051 0.56771 0.79134 0.0
H724 H 0.7379 0.4667 0.76491 0.0
H725 H 0.85061 0.44652 0.79053 0.0
H726 H 0.82224 0.53634 0.84505 0.0
H727 H 0.70995 0.55711 0.81967 0.0
C728 C 0.52435 0.54341 0.62722 0.0
C729 C 0.57583 0.54879 0.6102 0.0
C730 C 0.5278 0.54076 0.66276 0.0
C731 C 0.58126 0.54518 0.68256 0.0
C732 C 0.63309 0.55026 0.66522 0.0
C733 C 0.63084 0.55155 0.62954 0.0
C734 C 0.58372 0.54423 0.721 0.0
C735 C 0.64346 0.52797 0.7384 0.0
C736 C 0.52827 0.55947 0.74082 0.0
C737 C 0.46509 0.57993 0.72538 0.0
C738 C 0.46305 0.60642 0.70561 0.0
C739 C 0.40341 0.62544 0.69087 0.0
C740 C 0.34538 0.61837 0.69595 0.0
C741 C 0.34684 0.59232 0.71588 0.0
C742 C 0.40636 0.5732 0.73066 0.0
C743 C 0.5838 0.56009 0.88888 0.0
C744 C 0.59729 0.52947 0.90315 0.0
C745 C 0.58185 0.56354 0.85343 0.0
C746 C 0.59515 0.5364 0.83143 0.0
C747 C 0.61024 0.50575 0.84573 0.0
C748 C 0.61054 0.50236 0.8811 0.0
C749 C 0.59288 0.53992 0.79357 0.0
C750 C 0.53332 0.55651 0.77654 0.0
C751 C 0.64901 0.52644 0.77418 0.0
C752 C 0.71522 0.51324 0.79077 0.0
C753 C 0.75564 0.48203 0.78253 0.0
C754 C 0.81943 0.47053 0.79696 0.0
C755 C 0.84329 0.49016 0.81941 0.0
C756 C 0.80344 0.52114 0.82779 0.0
C757 C 0.73968 0.53272 0.81352 0.0
H758 H 0.89296 0.48151 0.8301 0.0
H759 H 0.29926 0.63311 0.6845 0.0
loop_
_geom_bond_atom_site_label_1
_geom_bond_atom_site_label_2
_geom_bond_distance
_geom_bond_site_symmetry_2
_ccdc_geom_bond_type
Pr0 C2 2.880 . S
Pr0 O20 2.562 1_566 S
Pr0 O21 2.490 . S
Pr0 O22 2.695 1_655 S
Pr0 O23 2.512 . S
Pr0 O25 2.437 1_565 S
Pr0 O28 2.436 1_566 S
Pr0 O30 2.438 1_655 S
Pr1 C11 2.880 . S
Pr1 O22 2.436 1_544 S
Pr1 O24 2.438 1_455 S
Pr1 O26 2.562 1_544 S
Pr1 O27 2.490 . S
Pr1 O28 2.695 1_455 S
Pr1 O29 2.512 . S
Pr1 O31 2.437 1_545 S
C2 Pr0 2.880 . S
C2 C3 1.491 1_565 S
C2 O20 1.254 1_566 S
C2 O21 1.225 . S
C3 C2 1.491 1_545 S
C3 C4 1.392 . S
C3 C8 1.356 1_556 S
C4 C3 1.392 . S
C4 C5 1.368 . S
C4 H32 0.929 1_545 S
C5 C4 1.368 . S
C5 C6 1.386 . S
C5 H33 0.929 . S
C6 C5 1.386 . S
C6 C7 1.373 1_556 S
C7 C6 1.373 1_554 S
C7 C8 1.409 . S
C7 H34 0.931 . S
C8 C3 1.356 1_554 S
C8 C7 1.409 . S
C8 H35 0.930 . S
C9 O22 1.270 1_655 S
C9 O23 1.248 . S
C10 O24 1.267 1_556 S
C10 O25 1.278 . S
C11 Pr1 2.880 . S
C11 C12 1.491 1_545 S
C11 O26 1.254 1_544 S
C11 O27 1.225 . S
C12 C11 1.491 1_565 S
C12 C13 1.392 . S
C12 C17 1.356 1_554 S
C13 C12 1.392 . S
C13 C14 1.368 . S
C13 H36 0.929 1_565 S
C14 C13 1.368 . S
C14 C15 1.386 . S
C14 H37 0.929 . S
C15 C14 1.386 . S
C15 C16 1.373 1_554 S
C16 C15 1.373 1_556 S
C16 C17 1.409 . S
C16 H38 0.931 . S
C17 C12 1.356 1_556 S
C17 C16 1.409 . S
C17 H39 0.930 . S
C18 O28 1.270 1_455 S
C18 O29 1.248 . S
C19 O30 1.267 1_554 S
C19 O31 1.278 . S
O20 Pr0 2.562 1_544 S
O20 C2 1.254 1_544 S
O21 Pr0 2.490 . S
O21 C2 1.225 . S
O22 Pr0 2.695 1_455 S
O22 Pr1 2.436 1_566 S
O22 C9 1.270 1_455 S
O23 Pr0 2.512 . S
O23 C9 1.248 . S
O24 Pr1 2.438 1_655 S
O24 C10 1.267 1_554 S
O25 Pr0 2.437 1_545 S
O25 C10 1.278 . S
O26 Pr1 2.562 1_566 S
O26 C11 1.254 1_566 S
O27 Pr1 2.490 . S
O27 C11 1.225 . S
O28 Pr0 2.436 1_544 S
O28 Pr1 2.695 1_655 S
O28 C18 1.270 1_655 S
O29 Pr1 2.512 . S
O29 C18 1.248 . S
O30 Pr0 2.438 1_455 S
O30 C19 1.267 1_556 S
O31 Pr1 2.437 1_565 S
O31 C19 1.278 . S
H32 C4 0.929 1_565 S
H33 C5 0.929 . S
H34 C7 0.931 . S
H35 C8 0.930 . S
H36 C13 0.929 1_545 S
H37 C14 0.929 . S
H38 C16 0.931 . S
H39 C17 0.930 . S
Pr40 C42 2.880 1_455 S
Pr40 O60 2.562 1_455 S
Pr40 O61 2.490 1_455 S
Pr40 O62 2.695 1_565 S
Pr40 O63 2.512 . S
Pr40 O65 2.437 1_455 S
Pr40 O68 2.436 1_455 S
Pr40 O70 2.438 . S
Pr41 C51 2.880 1_655 S
Pr41 O62 2.436 1_655 S
Pr41 O64 2.438 . S
Pr41 O66 2.562 1_655 S
Pr41 O67 2.490 1_655 S
Pr41 O68 2.695 1_545 S
Pr41 O69 2.512 . S
Pr41 O71 2.437 1_655 S
C42 Pr40 2.880 1_655 S
C42 C43 1.491 . S
C42 O60 1.254 . S
C42 O61 1.225 . S
C43 C42 1.491 . S
C43 C44 1.392 . S
C43 C48 1.356 . S
C44 C43 1.392 . S
C44 C45 1.368 . S
C44 H72 0.929 . S
C45 C44 1.368 . S
C45 C46 1.386 . S
C45 H73 0.929 . S
C46 C45 1.386 . S
C46 C47 1.373 . S
C47 C46 1.373 . S
C47 C48 1.409 . S
C47 H74 0.931 . S
C48 C43 1.356 . S
C48 C47 1.409 . S
C48 H75 0.930 . S
C49 O62 1.270 1_565 S
C49 O63 1.248 . S
C50 O64 1.267 . S
C50 O65 1.278 1_545 S
C51 Pr41 2.880 1_455 S
C51 C52 1.491 . S
C51 O66 1.254 . S
C51 O67 1.225 . S
C52 C51 1.491 . S
C52 C53 1.392 . S
C52 C57 1.356 . S
C53 C52 1.392 . S
C53 C54 1.368 . S
C53 H76 0.929 . S
C54 C53 1.368 . S
C54 C55 1.386 . S
C54 H77 0.929 . S
C55 C54 1.386 . S
C55 C56 1.373 . S
C56 C55 1.373 . S
C56 C57 1.409 . S
C56 H78 0.931 . S
C57 C52 1.356 . S
C57 C56 1.409 . S
C57 H79 0.930 . S
C58 O68 1.270 1_545 S
C58 O69 1.248 . S
C59 O70 1.267 . S
C59 O71 1.278 1_565 S
O60 Pr40 2.562 1_655 S
O60 C42 1.254 . S
O61 Pr40 2.490 1_655 S
O61 C42 1.225 . S
O62 Pr40 2.695 1_545 S
O62 Pr41 2.436 1_455 S
O62 C49 1.270 1_545 S
O63 Pr40 2.512 . S
O63 C49 1.248 . S
O64 Pr41 2.438 . S
O64 C50 1.267 . S
O65 Pr40 2.437 1_655 S
O65 C50 1.278 1_565 S
O66 Pr41 2.562 1_455 S
O66 C51 1.254 . S
O67 Pr41 2.490 1_455 S
O67 C51 1.225 . S
O68 Pr40 2.436 1_655 S
O68 Pr41 2.695 1_565 S
O68 C58 1.270 1_565 S
O69 Pr41 2.512 . S
O69 C58 1.248 . S
O70 Pr40 2.438 . S
O70 C59 1.267 . S
O71 Pr41 2.437 1_455 S
O71 C59 1.278 1_545 S
H72 C44 0.929 . S
H73 C45 0.929 . S
H74 C47 0.931 . S
H75 C48 0.930 . S
H76 C53 0.929 . S
H77 C54 0.929 . S
H78 C56 0.931 . S
H79 C57 0.930 . S
Pr80 C82 2.880 . S
Pr80 O100 2.562 1_556 S
Pr80 O101 2.490 . S
Pr80 O102 2.695 . S
Pr80 O103 2.512 . S
Pr80 O105 2.437 . S
Pr80 O108 2.436 1_556 S
Pr80 O110 2.438 . S
Pr81 C91 2.880 . S
Pr81 O102 2.436 1_554 S
Pr81 O104 2.438 . S
Pr81 O106 2.562 1_554 S
Pr81 O107 2.490 . S
Pr81 O108 2.695 . S
Pr81 O109 2.512 . S
Pr81 O111 2.437 . S
C82 Pr80 2.880 . S
C82 C83 1.491 . S
C82 O100 1.254 1_556 S
C82 O101 1.225 . S
C83 C82 1.491 . S
C83 C84 1.392 . S
C83 C88 1.356 1_556 S
C84 C83 1.392 . S
C84 C85 1.368 . S
C84 H112 0.929 . S
C85 C84 1.368 . S
C85 C86 1.386 . S
C85 H113 0.929 . S
C86 C85 1.386 . S
C86 C87 1.373 1_556 S
C87 C86 1.373 1_554 S
C87 C88 1.409 . S
C87 H114 0.931 . S
C88 C83 1.356 1_554 S
C88 C87 1.409 . S
C88 H115 0.930 . S
C89 O102 1.270 . S
C89 O103 1.248 . S
C90 O104 1.267 1_556 S
C90 O105 1.278 . S
C91 Pr81 2.880 . S
C91 C92 1.491 . S
C91 O106 1.254 1_554 S
C91 O107 1.225 . S
C92 C91 1.491 . S
C92 C93 1.392 . S
C92 C97 1.356 1_554 S
C93 C92 1.392 . S
C93 C94 1.368 . S
C93 H116 0.929 . S
C94 C93 1.368 . S
C94 C95 1.386 . S
C94 H117 0.929 . S
C95 C94 1.386 . S
C95 C96 1.373 1_554 S
C96 C95 1.373 1_556 S
C96 C97 1.409 . S
C96 H118 0.931 . S
C97 C92 1.356 1_556 S
C97 C96 1.409 . S
C97 H119 0.930 . S
C98 O108 1.270 . S
C98 O109 1.248 . S
C99 O110 1.267 1_554 S
C99 O111 1.278 . S
O100 Pr80 2.562 1_554 S
O100 C82 1.254 1_554 S
O101 Pr80 2.490 . S
O101 C82 1.225 . S
O102 Pr80 2.695 . S
O102 Pr81 2.436 1_556 S
O102 C89 1.270 . S
O103 Pr80 2.512 . S
O103 C89 1.248 . S
O104 Pr81 2.438 . S
O104 C90 1.267 1_554 S
O105 Pr80 2.437 . S
O105 C90 1.278 . S
O106 Pr81 2.562 1_556 S
O106 C91 1.254 1_556 S
O107 Pr81 2.490 . S
O107 C91 1.225 . S
O108 Pr80 2.436 1_554 S
O108 Pr81 2.695 . S
O108 C98 1.270 . S
O109 Pr81 2.512 . S
O109 C98 1.248 . S
O110 Pr80 2.438 . S
O110 C99 1.267 1_556 S
O111 Pr81 2.437 . S
O111 C99 1.278 . S
H112 C84 0.929 . S
H113 C85 0.929 . S
H114 C87 0.931 . S
H115 C88 0.930 . S
H116 C93 0.929 . S
H117 C94 0.929 . S
H118 C96 0.931 . S
H119 C97 0.930 . S
Pr120 C122 2.880 . S
Pr120 O140 2.562 . S
Pr120 O141 2.490 . S
Pr120 O142 2.695 . S
Pr120 O143 2.512 . S
Pr120 O145 2.437 . S
Pr120 O148 2.436 . S
Pr120 O150 2.438 . S
Pr121 C131 2.880 . S
Pr121 O142 2.436 . S
Pr121 O144 2.438 . S
Pr121 O146 2.562 . S
Pr121 O147 2.490 . S
Pr121 O148 2.695 . S
Pr121 O149 2.512 . S
Pr121 O151 2.437 . S
C122 Pr120 2.880 . S
C122 C123 1.491 . S
C122 O140 1.254 . S
C122 O141 1.225 . S
C123 C122 1.491 . S
C123 C124 1.392 . S
C123 C128 1.356 . S
C124 C123 1.392 . S
C124 C125 1.368 . S
C124 H152 0.929 . S
C125 C124 1.368 . S
C125 C126 1.386 . S
C125 H153 0.929 . S
C126 C125 1.386 . S
C126 C127 1.373 . S
C127 C126 1.373 . S
C127 C128 1.409 . S
C127 H154 0.931 . S
C128 C123 1.356 . S
C128 C127 1.409 . S
C128 H155 0.930 . S
C129 O142 1.270 . S
C129 O143 1.248 . S
C130 O144 1.267 . S
C130 O145 1.278 . S
C131 Pr121 2.880 . S
C131 C132 1.491 . S
C131 O146 1.254 . S
C131 O147 1.225 . S
C132 C131 1.491 . S
C132 C133 1.392 . S
C132 C137 1.356 . S
C133 C132 1.392 . S
C133 C134 1.368 . S
C133 H156 0.929 . S
C134 C133 1.368 . S
C134 C135 1.386 . S
C134 H157 0.929 . S
C135 C134 1.386 . S
C135 C136 1.373 . S
C136 C135 1.373 . S
C136 C137 1.409 . S
C136 H158 0.931 . S
C137 C132 1.356 . S
C137 C136 1.409 . S
C137 H159 0.930 . S
C138 O148 1.270 . S
C138 O149 1.248 . S
C139 O150 1.267 . S
C139 O151 1.278 . S
O140 Pr120 2.562 . S
O140 C122 1.254 . S
O141 Pr120 2.490 . S
O141 C122 1.225 . S
O142 Pr120 2.695 . S
O142 Pr121 2.436 . S
O142 C129 1.270 . S
O143 Pr120 2.512 . S
O143 C129 1.248 . S
O144 Pr121 2.438 . S
O144 C130 1.267 . S
O145 Pr120 2.437 . S
O145 C130 1.278 . S
O146 Pr121 2.562 . S
O146 C131 1.254 . S
O147 Pr121 2.490 . S
O147 C131 1.225 . S
O148 Pr120 2.436 . S
O148 Pr121 2.695 . S
O148 C138 1.270 . S
O149 Pr121 2.512 . S
O149 C138 1.248 . S
O150 Pr120 2.438 . S
O150 C139 1.267 . S
O151 Pr121 2.437 . S
O151 C139 1.278 . S
H152 C124 0.929 . S
H153 C125 0.929 . S
H154 C127 0.931 . S
H155 C128 0.930 . S
H156 C133 0.929 . S
H157 C134 0.929 . S
H158 C136 0.931 . S
H159 C137 0.930 . S
H160 C178 0.951 . S
H161 C180 0.951 . S
H162 C182 0.950 . S
H163 C183 0.950 . S
H164 C185 0.950 . S
H165 C188 0.950 . S
H166 C189 0.950 1_554 S
H167 C191 0.950 . S
H168 C192 0.950 . S
H169 C193 0.951 . S
H170 C195 0.951 . S
H171 C197 0.950 . S
H172 C198 0.950 . S
H173 C200 0.950 . S
H174 C203 0.977 . S
H175 C204 0.950 1_556 S
H176 C206 0.950 . S
H177 C207 0.950 . S
C178 H160 0.951 . S
C178 C179 1.366 1_556 S
C178 C180 1.388 . S
C179 C178 1.366 1_554 S
C179 C183 1.385 . S
C180 H161 0.951 . S
C180 C178 1.388 . S
C180 C181 1.366 1_556 S
C181 C180 1.366 1_554 S
C181 C182 1.414 . S
C181 C184 1.499 . S
C182 H162 0.950 . S
C182 C181 1.414 . S
C182 C183 1.374 . S
C183 H163 0.950 . S
C183 C179 1.385 . S
C183 C182 1.374 . S
C184 C181 1.499 . S
C184 C185 1.373 . S
C184 C186 1.389 1_554 S
C185 H164 0.950 . S
C185 C184 1.373 . S
C185 C201 1.377 . S
C186 C184 1.389 1_556 S
C186 C187 1.524 . S
C186 C200 1.377 . S
C187 C186 1.524 . S
C187 C188 1.397 1_556 S
C187 C192 1.363 . S
C188 H165 0.950 . S
C188 C187 1.397 1_554 S
C188 C189 1.334 1_554 S
C189 H166 0.950 1_556 S
C189 C188 1.334 1_556 S
C189 C190 1.287 . S
C190 C189 1.287 . S
C190 C191 1.524 . S
C190 H209 0.913 . S
C191 H167 0.950 . S
C191 C190 1.524 . S
C191 C192 1.415 . S
C192 H168 0.950 . S
C192 C187 1.363 . S
C192 C191 1.415 . S
C193 H169 0.951 . S
C193 C194 1.339 1_554 S
C193 C195 1.388 . S
C194 C193 1.339 1_556 S
C194 C198 1.412 . S
C195 H170 0.951 . S
C195 C193 1.388 . S
C195 C196 1.366 1_554 S
C196 C195 1.366 1_556 S
C196 C197 1.414 . S
C196 C199 1.499 . S
C197 H171 0.950 . S
C197 C196 1.414 . S
C197 C198 1.374 . S
C198 H172 0.950 . S
C198 C194 1.412 . S
C198 C197 1.374 . S
C199 C196 1.499 . S
C199 C200 1.373 . S
C199 C201 1.389 1_556 S
C200 H173 0.950 . S
C200 C186 1.377 . S
C200 C199 1.373 . S
C201 C185 1.377 . S
C201 C199 1.389 1_554 S
C201 C202 1.524 . S
C202 C201 1.524 . S
C202 C203 1.379 1_554 S
C202 C207 1.363 . S
C203 H174 0.977 . S
C203 C202 1.379 1_556 S
C203 C204 1.326 1_556 S
C204 H175 0.950 1_554 S
C204 C203 1.326 1_554 S
C204 C205 1.287 . S
C205 C204 1.287 . S
C205 C206 1.524 . S
C205 H208 0.999 . S
C206 H176 0.950 . S
C206 C205 1.524 . S
C206 C207 1.415 . S
C207 H177 0.950 . S
C207 C202 1.363 . S
C207 C206 1.415 . S
H208 C205 0.999 . S
H209 C190 0.913 . S
H210 C228 0.951 . S
H211 C230 0.951 . S
H212 C232 0.950 . S
H213 C233 0.950 . S
H214 C235 0.950 . S
H215 C238 0.950 . S
H216 C239 0.950 . S
H217 C241 0.950 . S
H218 C242 0.975 . S
H219 C243 0.951 . S
H220 C245 0.951 . S
H221 C247 0.950 . S
H222 C248 0.950 . S
H223 C250 0.950 . S
H224 C253 0.950 . S
H225 C254 0.950 . S
H226 C256 0.950 . S
H227 C257 0.950 . S
C228 H210 0.951 . S
C228 C229 1.357 1_554 S
C228 C230 1.388 . S
C229 C228 1.357 1_556 S
C229 C233 1.395 . S
C230 H211 0.951 . S
C230 C228 1.388 . S
C230 C231 1.366 1_554 S
C231 C230 1.366 1_556 S
C231 C232 1.414 . S
C231 C234 1.499 . S
C232 H212 0.950 . S
C232 C231 1.414 . S
C232 C233 1.374 . S
C233 H213 0.950 . S
C233 C229 1.395 . S
C233 C232 1.374 . S
C234 C231 1.499 . S
C234 C235 1.373 1_556 S
C234 C236 1.389 . S
C235 H214 0.950 . S
C235 C234 1.373 1_554 S
C235 C251 1.377 . S
C236 C234 1.389 . S
C236 C237 1.524 . S
C236 C250 1.377 . S
C237 C236 1.524 . S
C237 C238 1.397 . S
C237 C242 1.363 . S
C238 H215 0.950 . S
C238 C237 1.397 . S
C238 C239 1.334 . S
C239 H216 0.950 . S
C239 C238 1.334 . S
C239 C240 1.287 . S
C240 C239 1.287 . S
C240 C241 1.524 . S
C240 H259 0.913 . S
C241 H217 0.950 . S
C241 C240 1.524 . S
C241 C242 1.415 . S
C242 H218 0.975 . S
C242 C237 1.363 . S
C242 C241 1.415 . S
C243 H219 0.951 . S
C243 C244 1.366 1_556 S
C243 C245 1.388 . S
C244 C243 1.366 1_554 S
C244 C248 1.385 . S
C245 H220 0.951 . S
C245 C243 1.388 . S
C245 C246 1.366 1_556 S
C246 C245 1.366 1_554 S
C246 C247 1.414 . S
C246 C249 1.499 . S
C247 H221 0.950 . S
C247 C246 1.414 . S
C247 C248 1.374 . S
C248 H222 0.950 . S
C248 C244 1.385 . S
C248 C247 1.374 . S
C249 C246 1.499 . S
C249 C250 1.373 1_554 S
C249 C251 1.389 . S
C250 H223 0.950 . S
C250 C236 1.377 . S
C250 C249 1.373 1_556 S
C251 C235 1.377 . S
C251 C249 1.389 . S
C251 C252 1.524 . S
C252 C251 1.524 . S
C252 C253 1.397 . S
C252 C257 1.363 . S
C253 H224 0.950 . S
C253 C252 1.397 . S
C253 C254 1.334 . S
C254 H225 0.950 . S
C254 C253 1.334 . S
C254 C255 1.287 . S
C255 C254 1.287 . S
C255 C256 1.524 . S
C255 H258 0.999 . S
C256 H226 0.950 . S
C256 C255 1.524 . S
C256 C257 1.415 . S
C257 H227 0.950 . S
C257 C252 1.363 . S
C257 C256 1.415 . S
H258 C255 0.999 . S
H259 C240 0.913 . S
H260 C278 0.951 . S
H261 C280 0.951 . S
H262 C282 0.950 . S
H263 C283 0.950 . S
H264 C285 0.950 . S
H265 C288 0.950 . S
H266 C289 0.950 . S
H267 C291 0.950 . S
H268 C292 0.950 . S
H269 C293 0.951 . S
H270 C295 0.951 . S
H271 C297 0.950 . S
H272 C298 0.950 . S
H273 C300 0.950 . S
H274 C303 0.950 . S
H275 C304 0.950 . S
H276 C306 0.950 . S
H277 C307 0.950 . S
C278 H260 0.951 . S
C278 C279 1.366 . S
C278 C280 1.388 . S
C279 C278 1.366 . S
C279 C283 1.385 . S
C280 H261 0.951 . S
C280 C278 1.388 . S
C280 C281 1.366 . S
C281 C280 1.366 . S
C281 C282 1.414 . S
C281 C284 1.499 . S
C282 H262 0.950 . S
C282 C281 1.414 . S
C282 C283 1.374 . S
C283 H263 0.950 . S
C283 C279 1.385 . S
C283 C282 1.374 . S
C284 C281 1.499 . S
C284 C285 1.373 . S
C284 C286 1.389 . S
C285 H264 0.950 . S
C285 C284 1.373 . S
C285 C301 1.377 . S
C286 C284 1.389 . S
C286 C287 1.524 . S
C286 C300 1.377 . S
C287 C286 1.524 . S
C287 C288 1.397 . S
C287 C292 1.363 . S
C288 H265 0.950 . S
C288 C287 1.397 . S
C288 C289 1.334 . S
C289 H266 0.950 . S
C289 C288 1.334 . S
C289 C290 1.287 . S
C290 C289 1.287 . S
C290 C291 1.524 . S
C290 H309 0.913 . S
C291 H267 0.950 . S
C291 C290 1.524 . S
C291 C292 1.415 . S
C292 H268 0.950 . S
C292 C287 1.363 . S
C292 C291 1.415 . S
C293 H269 0.951 . S
C293 C294 1.366 . S
C293 C295 1.388 . S
C294 C293 1.366 . S
C294 C298 1.385 . S
C295 H270 0.951 . S
C295 C293 1.388 . S
C295 C296 1.366 . S
C296 C295 1.366 . S
C296 C297 1.414 . S
C296 C299 1.499 . S
C297 H271 0.950 . S
C297 C296 1.414 . S
C297 C298 1.374 . S
C298 H272 0.950 . S
C298 C294 1.385 . S
C298 C297 1.374 . S
C299 C296 1.499 . S
C299 C300 1.373 . S
C299 C301 1.389 . S
C300 H273 0.950 . S
C300 C286 1.377 . S
C300 C299 1.373 . S
C301 C285 1.377 . S
C301 C299 1.389 . S
C301 C302 1.524 . S
C302 C301 1.524 . S
C302 C303 1.397 . S
C302 C307 1.363 . S
C303 H274 0.950 . S
C303 C302 1.397 . S
C303 C304 1.334 . S
C304 H275 0.950 . S
C304 C303 1.334 . S
C304 C305 1.287 . S
C305 C304 1.287 . S
C305 C306 1.524 . S
C305 H308 0.999 . S
C306 H276 0.950 . S
C306 C305 1.524 . S
C306 C307 1.415 . S
C307 H277 0.950 . S
C307 C302 1.363 . S
C307 C306 1.415 . S
H308 C305 0.999 . S
H309 C290 0.913 . S
H310 C328 0.951 . S
H311 C330 0.951 . S
H312 C332 0.950 . S
H313 C333 0.950 . S
H314 C335 0.950 . S
H315 C338 0.950 . S
H316 C339 0.950 . S
H317 C341 0.950 . S
H318 C342 0.950 . S
H319 C343 0.951 . S
H320 C345 0.951 . S
H321 C347 0.950 . S
H322 C348 0.950 . S
H323 C350 0.950 . S
H324 C353 0.950 . S
H325 C354 0.950 . S
H326 C356 0.950 . S
H327 C357 0.950 . S
C328 H310 0.951 . S
C328 C329 1.366 . S
C328 C330 1.388 . S
C329 C328 1.366 . S
C329 C333 1.385 . S
C330 H311 0.951 . S
C330 C328 1.388 . S
C330 C331 1.366 . S
C331 C330 1.366 . S
C331 C332 1.414 . S
C331 C334 1.499 . S
C332 H312 0.950 . S
C332 C331 1.414 . S
C332 C333 1.374 . S
C333 H313 0.950 . S
C333 C329 1.385 . S
C333 C332 1.374 . S
C334 C331 1.499 . S
C334 C335 1.373 . S
C334 C336 1.389 . S
C335 H314 0.950 . S
C335 C334 1.373 . S
C335 C351 1.377 . S
C336 C334 1.389 . S
C336 C337 1.524 . S
C336 C350 1.377 . S
C337 C336 1.524 . S
C337 C338 1.397 . S
C337 C342 1.363 . S
C338 H315 0.950 . S
C338 C337 1.397 . S
C338 C339 1.334 . S
C339 H316 0.950 . S
C339 C338 1.334 . S
C339 C340 1.287 . S
C340 C339 1.287 . S
C340 C341 1.524 . S
C340 H359 0.913 . S
C341 H317 0.950 . S
C341 C340 1.524 . S
C341 C342 1.415 . S
C342 H318 0.950 . S
C342 C337 1.363 . S
C342 C341 1.415 . S
C343 H319 0.951 . S
C343 C344 1.366 . S
C343 C345 1.388 . S
C344 C343 1.366 . S
C344 C348 1.385 . S
C345 H320 0.951 . S
C345 C343 1.388 . S
C345 C346 1.366 . S
C346 C345 1.366 . S
C346 C347 1.414 . S
C346 C349 1.499 . S
C347 H321 0.950 . S
C347 C346 1.414 . S
C347 C348 1.374 . S
C348 H322 0.950 . S
C348 C344 1.385 . S
C348 C347 1.374 . S
C349 C346 1.499 . S
C349 C350 1.373 . S
C349 C351 1.389 . S
C350 H323 0.950 . S
C350 C336 1.377 . S
C350 C349 1.373 . S
C351 C335 1.377 . S
C351 C349 1.389 . S
C351 C352 1.524 . S
C352 C351 1.524 . S
C352 C353 1.397 . S
C352 C357 1.363 . S
C353 H324 0.950 . S
C353 C352 1.397 . S
C353 C354 1.334 . S
C354 H325 0.950 . S
C354 C353 1.334 . S
C354 C355 1.287 . S
C355 C354 1.287 . S
C355 C356 1.524 . S
C355 H358 0.999 . S
C356 H326 0.950 . S
C356 C355 1.524 . S
C356 C357 1.415 . S
C357 H327 0.950 . S
C357 C352 1.363 . S
C357 C356 1.415 . S
H358 C355 0.999 . S
H359 C340 0.913 . S
H360 C378 0.951 1_545 S
H361 C380 0.982 . S
H362 C382 0.950 . S
H363 C383 0.950 . S
H364 C385 0.950 . S
H365 C388 0.950 . S
H366 C389 0.950 1_565 S
H367 C391 0.950 . S
H368 C392 0.950 . S
H369 C393 0.951 1_565 S
H370 C395 0.971 . S
H371 C397 0.950 . S
H372 C398 0.950 . S
H373 C400 0.950 . S
H374 C403 0.950 . S
H375 C404 0.950 1_545 S
H376 C406 0.950 . S
H377 C407 0.950 . S
C378 H360 0.951 1_565 S
C378 C379 1.366 1_556 S
C378 C380 1.373 1_565 S
C379 C378 1.366 1_554 S
C379 C383 1.385 . S
C380 H361 0.982 . S
C380 C378 1.373 1_545 S
C380 C381 1.351 1_545 S
C381 C380 1.351 1_565 S
C381 C382 1.414 1_556 S
C381 C384 1.499 . S
C382 H362 0.950 . S
C382 C381 1.414 1_554 S
C382 C383 1.374 . S
C383 H363 0.950 . S
C383 C379 1.385 . S
C383 C382 1.374 . S
C384 C381 1.499 . S
C384 C385 1.373 1_556 S
C384 C386 1.389 1_565 S
C385 H364 0.950 . S
C385 C384 1.373 1_554 S
C385 C401 1.377 . S
C386 C384 1.389 1_545 S
C386 C387 1.524 . S
C386 C400 1.377 . S
C387 C386 1.524 . S
C387 C388 1.397 1_545 S
C387 C392 1.363 . S
C388 H365 0.950 . S
C388 C387 1.397 1_565 S
C388 C389 1.334 1_565 S
C389 H366 0.950 1_545 S
C389 C388 1.334 1_545 S
C389 C390 1.287 . S
C390 C389 1.287 . S
C390 C391 1.524 . S
C390 H409 0.913 . S
C391 H367 0.950 . S
C391 C390 1.524 . S
C391 C392 1.415 . S
C392 H368 0.950 . S
C392 C387 1.363 . S
C392 C391 1.415 . S
C393 H369 0.951 1_545 S
C393 C394 1.362 1_554 S
C393 C395 1.378 1_545 S
C394 C393 1.362 1_556 S
C394 C398 1.385 . S
C395 H370 0.971 . S
C395 C393 1.378 1_565 S
C395 C396 1.356 1_565 S
C396 C395 1.356 1_545 S
C396 C397 1.414 1_554 S
C396 C399 1.499 . S
C397 H371 0.950 . S
C397 C396 1.414 1_556 S
C397 C398 1.374 . S
C398 H372 0.950 . S
C398 C394 1.385 . S
C398 C397 1.374 . S
C399 C396 1.499 . S
C399 C400 1.373 1_554 S
C399 C401 1.389 1_545 S
C400 H373 0.950 . S
C400 C386 1.377 . S
C400 C399 1.373 1_556 S
C401 C385 1.377 . S
C401 C399 1.389 1_565 S
C401 C402 1.524 . S
C402 C401 1.524 . S
C402 C403 1.397 1_565 S
C402 C407 1.363 . S
C403 H374 0.950 . S
C403 C402 1.397 1_545 S
C403 C404 1.334 1_545 S
C404 H375 0.950 1_565 S
C404 C403 1.334 1_565 S
C404 C405 1.287 . S
C405 C404 1.287 . S
C405 C406 1.524 . S
C405 H408 0.999 . S
C406 H376 0.950 . S
C406 C405 1.524 . S
C406 C407 1.415 . S
C407 H377 0.950 . S
C407 C402 1.363 . S
C407 C406 1.415 . S
H408 C405 0.999 . S
H409 C390 0.913 . S
H410 C428 0.951 . S
H411 C430 0.951 . S
H412 C432 0.950 . S
H413 C433 0.950 . S
H414 C435 0.950 . S
H415 C438 0.950 . S
H416 C439 0.950 . S
H417 C441 0.950 . S
H418 C442 0.950 . S
H419 C443 0.951 . S
H420 C445 0.951 . S
H421 C447 0.950 . S
H422 C448 0.950 . S
H423 C450 0.950 . S
H424 C453 0.950 . S
H425 C454 0.950 . S
H426 C456 0.950 . S
H427 C457 0.950 . S
C428 H410 0.951 . S
C428 C429 1.366 . S
C428 C430 1.388 . S
C429 C428 1.366 . S
C429 C433 1.385 1_565 S
C430 H411 0.951 . S
C430 C428 1.388 . S
C430 C431 1.366 . S
C431 C430 1.366 . S
C431 C432 1.414 1_565 S
C431 C434 1.502 . S
C432 H412 0.950 . S
C432 C431 1.414 1_545 S
C432 C433 1.374 . S
C433 H413 0.950 . S
C433 C429 1.385 1_545 S
C433 C432 1.374 . S
C434 C431 1.502 . S
C434 C435 1.362 1_565 S
C434 C436 1.398 . S
C435 H414 0.950 . S
C435 C434 1.362 1_545 S
C435 C451 1.377 . S
C436 C434 1.398 . S
C436 C437 1.524 . S
C436 C450 1.377 . S
C437 C436 1.524 . S
C437 C438 1.397 . S
C437 C442 1.363 . S
C438 H415 0.950 . S
C438 C437 1.397 . S
C438 C439 1.334 . S
C439 H416 0.950 . S
C439 C438 1.334 . S
C439 C440 1.287 . S
C440 C439 1.287 . S
C440 C441 1.524 . S
C440 H459 0.913 . S
C441 H417 0.950 . S
C441 C440 1.524 . S
C441 C442 1.415 . S
C442 H418 0.950 . S
C442 C437 1.363 . S
C442 C441 1.415 . S
C443 H419 0.951 . S
C443 C444 1.366 . S
C443 C445 1.388 . S
C444 C443 1.366 . S
C444 C448 1.385 1_545 S
C445 H420 0.951 . S
C445 C443 1.388 . S
C445 C446 1.366 . S
C446 C445 1.366 . S
C446 C447 1.414 1_545 S
C446 C449 1.504 . S
C447 H421 0.950 . S
C447 C446 1.414 1_565 S
C447 C448 1.374 . S
C448 H422 0.950 . S
C448 C444 1.385 1_565 S
C448 C447 1.374 . S
C449 C446 1.504 . S
C449 C450 1.352 1_545 S
C449 C451 1.405 . S
C450 H423 0.950 . S
C450 C436 1.377 . S
C450 C449 1.352 1_565 S
C451 C435 1.377 . S
C451 C449 1.405 . S
C451 C452 1.524 . S
C452 C451 1.524 . S
C452 C453 1.397 . S
C452 C457 1.363 . S
C453 H424 0.950 . S
C453 C452 1.397 . S
C453 C454 1.334 . S
C454 H425 0.950 . S
C454 C453 1.334 . S
C454 C455 1.287 . S
C455 C454 1.287 . S
C455 C456 1.524 . S
C455 H458 0.999 . S
C456 H426 0.950 . S
C456 C455 1.524 . S
C456 C457 1.415 . S
C457 H427 0.950 . S
C457 C452 1.363 . S
C457 C456 1.415 . S
H458 C455 0.999 . S
H459 C440 0.913 . S
H460 C478 0.951 . S
H461 C480 0.951 . S
H462 C482 0.950 . S
H463 C483 0.950 . S
H464 C485 0.950 . S
H465 C488 0.950 . S
H466 C489 0.950 . S
H467 C491 0.950 . S
H468 C492 0.950 . S
H469 C493 0.951 . S
H470 C495 0.951 . S
H471 C497 0.950 . S
H472 C498 0.950 . S
H473 C500 0.950 . S
H474 C503 0.950 . S
H475 C504 0.950 . S
H476 C506 0.950 . S
H477 C507 0.950 . S
C478 H460 0.951 . S
C478 C479 1.366 . S
C478 C480 1.388 . S
C479 C478 1.366 . S
C479 C483 1.385 1_554 S
C480 H461 0.951 . S
C480 C478 1.388 . S
C480 C481 1.366 1_554 S
C481 C480 1.366 1_556 S
C481 C482 1.414 . S
C481 C484 1.499 . S
C482 H462 0.950 . S
C482 C481 1.414 . S
C482 C483 1.374 . S
C483 H463 0.950 . S
C483 C479 1.385 1_556 S
C483 C482 1.374 . S
C484 C481 1.499 . S
C484 C485 1.373 1_556 S
C484 C486 1.389 . S
C485 H464 0.950 . S
C485 C484 1.373 1_554 S
C485 C501 1.377 1_655 S
C486 C484 1.389 . S
C486 C487 1.524 . S
C486 C500 1.377 1_655 S
C487 C486 1.524 . S
C487 C488 1.397 . S
C487 C492 1.363 . S
C488 H465 0.950 . S
C488 C487 1.397 . S
C488 C489 1.334 . S
C489 H466 0.950 . S
C489 C488 1.334 . S
C489 C490 1.287 . S
C490 C489 1.287 . S
C490 C491 1.524 . S
C490 H509 0.913 . S
C491 H467 0.950 . S
C491 C490 1.524 . S
C491 C492 1.415 . S
C492 H468 0.950 . S
C492 C487 1.363 . S
C492 C491 1.415 . S
C493 H469 0.951 . S
C493 C494 1.375 . S
C493 C495 1.388 . S
C494 C493 1.375 . S
C494 C498 1.372 1_556 S
C495 H470 0.951 . S
C495 C493 1.388 . S
C495 C496 1.366 1_556 S
C496 C495 1.366 1_554 S
C496 C497 1.414 . S
C496 C499 1.499 . S
C497 H471 0.950 . S
C497 C496 1.414 . S
C497 C498 1.374 . S
C498 H472 0.950 . S
C498 C494 1.372 1_554 S
C498 C497 1.374 . S
C499 C496 1.499 . S
C499 C500 1.373 1_554 S
C499 C501 1.389 . S
C500 H473 0.950 . S
C500 C486 1.377 1_455 S
C500 C499 1.373 1_556 S
C501 C485 1.377 1_455 S
C501 C499 1.389 . S
C501 C502 1.524 . S
C502 C501 1.524 . S
C502 C503 1.397 . S
C502 C507 1.363 . S
C503 H474 0.950 . S
C503 C502 1.397 . S
C503 C504 1.334 . S
C504 H475 0.950 . S
C504 C503 1.334 . S
C504 C505 1.287 . S
C505 C504 1.287 . S
C505 C506 1.524 . S
C505 H508 0.999 . S
C506 H476 0.950 . S
C506 C505 1.524 . S
C506 C507 1.415 . S
C507 H477 0.950 . S
C507 C502 1.363 . S
C507 C506 1.415 . S
H508 C505 0.999 . S
H509 C490 0.913 . S
H510 C528 0.951 . S
H511 C530 0.951 . S
H512 C532 0.950 . S
H513 C533 0.950 . S
H514 C535 0.950 . S
H515 C538 0.950 . S
H516 C539 0.950 . S
H517 C541 0.950 . S
H518 C542 0.950 . S
H519 C543 0.951 . S
H520 C545 0.951 . S
H521 C547 0.950 . S
H522 C548 0.950 . S
H523 C550 0.950 . S
H524 C553 0.950 . S
H525 C554 0.950 . S
H526 C556 0.950 . S
H527 C557 0.950 . S
C528 H510 0.951 . S
C528 C529 1.366 . S
C528 C530 1.388 . S
C529 C528 1.366 . S
C529 C533 1.385 . S
C530 H511 0.951 . S
C530 C528 1.388 . S
C530 C531 1.366 . S
C531 C530 1.366 . S
C531 C532 1.414 . S
C531 C534 1.499 . S
C532 H512 0.950 . S
C532 C531 1.414 . S
C532 C533 1.374 . S
C533 H513 0.950 . S
C533 C529 1.385 . S
C533 C532 1.374 . S
C534 C531 1.499 . S
C534 C535 1.373 . S
C534 C536 1.389 . S
C535 H514 0.950 . S
C535 C534 1.373 . S
C535 C551 1.377 1_455 S
C536 C534 1.389 . S
C536 C537 1.524 . S
C536 C550 1.377 1_455 S
C537 C536 1.524 . S
C537 C538 1.397 . S
C537 C542 1.363 . S
C538 H515 0.950 . S
C538 C537 1.397 . S
C538 C539 1.334 . S
C539 H516 0.950 . S
C539 C538 1.334 . S
C539 C540 1.287 . S
C540 C539 1.287 . S
C540 C541 1.524 . S
C540 H559 0.913 . S
C541 H517 0.950 . S
C541 C540 1.524 . S
C541 C542 1.415 . S
C542 H518 0.950 . S
C542 C537 1.363 . S
C542 C541 1.415 . S
C543 H519 0.951 . S
C543 C544 1.366 . S
C543 C545 1.388 . S
C544 C543 1.366 . S
C544 C548 1.385 . S
C545 H520 0.951 . S
C545 C543 1.388 . S
C545 C546 1.366 . S
C546 C545 1.366 . S
C546 C547 1.414 . S
C546 C549 1.499 . S
C547 H521 0.950 . S
C547 C546 1.414 . S
C547 C548 1.374 . S
C548 H522 0.950 . S
C548 C544 1.385 . S
C548 C547 1.374 . S
C549 C546 1.499 . S
C549 C550 1.373 . S
C549 C551 1.389 . S
C550 H523 0.950 . S
C550 C536 1.377 1_655 S
C550 C549 1.373 . S
C551 C535 1.377 1_655 S
C551 C549 1.389 . S
C551 C552 1.524 . S
C552 C551 1.524 . S
C552 C553 1.397 . S
C552 C557 1.363 . S
C553 H524 0.950 . S
C553 C552 1.397 . S
C553 C554 1.334 . S
C554 H525 0.950 . S
C554 C553 1.334 . S
C554 C555 1.287 . S
C555 C554 1.287 . S
C555 C556 1.524 . S
C555 H558 0.999 . S
C556 H526 0.950 . S
C556 C555 1.524 . S
C556 C557 1.415 . S
C557 H527 0.950 . S
C557 C552 1.363 . S
C557 C556 1.415 . S
H558 C555 0.999 . S
H559 C540 0.913 . S
H560 C578 0.951 . S
H561 C580 0.951 . S
H562 C582 0.950 . S
H563 C583 0.950 . S
H564 C585 0.950 . S
H565 C588 0.950 . S
H566 C589 0.950 . S
H567 C591 0.950 . S
H568 C592 0.950 . S
H569 C593 0.951 . S
H570 C595 0.951 . S
H571 C597 0.950 . S
H572 C598 0.950 . S
H573 C600 0.950 . S
H574 C603 0.950 . S
H575 C604 0.950 . S
H576 C606 0.950 . S
H577 C607 0.950 . S
C578 H560 0.951 . S
C578 C579 1.366 1_565 S
C578 C580 1.388 . S
C579 C578 1.366 1_545 S
C579 C583 1.385 1_655 S
C580 H561 0.951 . S
C580 C578 1.388 . S
C580 C581 1.373 . S
C581 C580 1.373 . S
C581 C582 1.407 1_665 S
C581 C584 1.498 1_655 S
C582 H562 0.950 . S
C582 C581 1.407 1_445 S
C582 C583 1.374 . S
C583 H563 0.950 . S
C583 C579 1.385 1_455 S
C583 C582 1.374 . S
C584 C581 1.498 1_455 S
C584 C585 1.361 1_565 S
C584 C586 1.401 1_455 S
C585 H564 0.950 . S
C585 C584 1.361 1_545 S
C585 C601 1.377 . S
C586 C584 1.401 1_655 S
C586 C587 1.524 . S
C586 C600 1.377 . S
C587 C586 1.524 . S
C587 C588 1.397 1_655 S
C587 C592 1.363 . S
C588 H565 0.950 . S
C588 C587 1.397 1_455 S
C588 C589 1.334 . S
C589 H566 0.950 . S
C589 C588 1.334 . S
C589 C590 1.287 1_455 S
C590 C589 1.287 1_655 S
C590 C591 1.524 . S
C590 H609 0.913 . S
C591 H567 0.950 . S
C591 C590 1.524 . S
C591 C592 1.415 . S
C592 H568 0.950 . S
C592 C587 1.363 . S
C592 C591 1.415 . S
C593 H569 0.951 . S
C593 C594 1.352 1_455 S
C593 C595 1.388 . S
C594 C593 1.352 1_655 S
C594 C598 1.400 1_545 S
C595 H570 0.951 . S
C595 C593 1.388 . S
C595 C596 1.366 1_455 S
C596 C595 1.366 1_655 S
C596 C597 1.414 1_545 S
C596 C599 1.499 . S
C597 H571 0.950 . S
C597 C596 1.414 1_565 S
C597 C598 1.374 . S
C598 H572 0.950 . S
C598 C594 1.400 1_565 S
C598 C597 1.374 . S
C599 C596 1.499 . S
C599 C600 1.373 1_545 S
C599 C601 1.389 1_655 S
C600 H573 0.950 . S
C600 C586 1.377 . S
C600 C599 1.373 1_565 S
C601 C585 1.377 . S
C601 C599 1.389 1_455 S
C601 C602 1.524 . S
C602 C601 1.524 . S
C602 C603 1.397 1_455 S
C602 C607 1.363 . S
C603 H574 0.950 . S
C603 C602 1.397 1_655 S
C603 C604 1.334 . S
C604 H575 0.950 . S
C604 C603 1.334 . S
C604 C605 1.287 1_655 S
C605 C604 1.287 1_455 S
C605 C606 1.524 . S
C605 H608 0.999 . S
C606 H576 0.950 . S
C606 C605 1.524 . S
C606 C607 1.415 . S
C607 H577 0.950 . S
C607 C602 1.363 . S
C607 C606 1.415 . S
H608 C605 0.999 . S
H609 C590 0.913 . S
H610 C628 0.951 . S
H611 C630 0.951 . S
H612 C632 0.950 . S
H613 C633 0.950 . S
H614 C635 0.950 . S
H615 C638 0.950 . S
H616 C639 0.950 . S
H617 C641 0.950 . S
H618 C642 0.950 . S
H619 C643 0.950 1_655 S
H620 C645 0.953 . S
H621 C647 0.950 . S
H622 C648 0.950 . S
H623 C650 0.950 . S
H624 C653 0.950 . S
H625 C654 0.950 . S
H626 C656 0.950 . S
H627 C657 0.950 . S
C628 H610 0.951 . S
C628 C629 1.366 1_545 S
C628 C630 1.388 . S
C629 C628 1.366 1_565 S
C629 C633 1.385 1_455 S
C630 H611 0.951 . S
C630 C628 1.388 . S
C630 C631 1.344 1_445 S
C631 C630 1.344 1_665 S
C631 C632 1.436 . S
C631 C634 1.499 . S
C632 H612 0.950 . S
C632 C631 1.436 . S
C632 C633 1.374 . S
C633 H613 0.950 . S
C633 C629 1.385 1_655 S
C633 C632 1.374 . S
C634 C631 1.499 . S
C634 C635 1.373 1_655 S
C634 C636 1.389 1_565 S
C635 H614 0.950 . S
C635 C634 1.373 1_455 S
C635 C651 1.377 . S
C636 C634 1.389 1_545 S
C636 C637 1.524 . S
C636 C650 1.377 . S
C637 C636 1.524 . S
C637 C638 1.397 . S
C637 C642 1.363 . S
C638 H615 0.950 . S
C638 C637 1.397 . S
C638 C639 1.334 . S
C639 H616 0.950 . S
C639 C638 1.334 . S
C639 C640 1.287 . S
C640 C639 1.287 . S
C640 C641 1.524 . S
C640 H659 0.913 . S
C641 H617 0.950 . S
C641 C640 1.524 . S
C641 C642 1.415 . S
C642 H618 0.950 . S
C642 C637 1.363 . S
C642 C641 1.415 . S
C643 H619 0.950 1_455 S
C643 C644 1.397 . S
C643 C645 1.387 . S
C644 C643 1.397 . S
C644 C648 1.357 1_565 S
C645 H620 0.953 . S
C645 C643 1.387 . S
C645 C646 1.366 . S
C646 C645 1.366 . S
C646 C647 1.414 1_565 S
C646 C649 1.499 . S
C647 H621 0.950 . S
C647 C646 1.414 1_545 S
C647 C648 1.374 . S
C648 H622 0.950 . S
C648 C644 1.357 1_545 S
C648 C647 1.374 . S
C649 C646 1.499 . S
C649 C650 1.366 1_465 S
C649 C651 1.397 . S
C650 H623 0.950 . S
C650 C636 1.377 . S
C650 C649 1.366 1_645 S
C651 C635 1.377 . S
C651 C649 1.397 . S
C651 C652 1.524 . S
C652 C651 1.524 . S
C652 C653 1.397 . S
C652 C657 1.363 . S
C653 H624 0.950 . S
C653 C652 1.397 . S
C653 C654 1.334 . S
C654 H625 0.950 . S
C654 C653 1.334 . S
C654 C655 1.287 . S
C655 C654 1.287 . S
C655 C656 1.524 . S
C655 H658 0.999 . S
C656 H626 0.950 . S
C656 C655 1.524 . S
C656 C657 1.415 . S
C657 H627 0.950 . S
C657 C652 1.363 . S
C657 C656 1.415 . S
H658 C655 0.999 . S
H659 C640 0.913 . S
H660 C678 0.951 . S
H661 C680 0.951 . S
H662 C682 0.950 . S
H663 C683 0.950 . S
H664 C685 0.950 . S
H665 C688 0.950 . S
H666 C689 0.950 . S
H667 C691 0.950 . S
H668 C692 0.950 . S
H669 C693 0.951 . S
H670 C695 0.951 . S
H671 C697 0.950 . S
H672 C698 0.950 . S
H673 C700 0.950 . S
H674 C703 0.950 . S
H675 C704 0.950 . S
H676 C706 0.950 . S
H677 C707 0.950 . S
C678 H660 0.951 . S
C678 C679 1.366 . S
C678 C680 1.388 . S
C679 C678 1.366 . S
C679 C683 1.385 . S
C680 H661 0.951 . S
C680 C678 1.388 . S
C680 C681 1.366 . S
C681 C680 1.366 . S
C681 C682 1.414 . S
C681 C684 1.499 . S
C682 H662 0.950 . S
C682 C681 1.414 . S
C682 C683 1.374 . S
C683 H663 0.950 . S
C683 C679 1.385 . S
C683 C682 1.374 . S
C684 C681 1.499 . S
C684 C685 1.373 . S
C684 C686 1.389 . S
C685 H664 0.950 . S
C685 C684 1.373 . S
C685 C701 1.377 . S
C686 C684 1.389 . S
C686 C687 1.524 . S
C686 C700 1.377 . S
C687 C686 1.524 . S
C687 C688 1.397 . S
C687 C692 1.363 . S
C688 H665 0.950 . S
C688 C687 1.397 . S
C688 C689 1.334 . S
C689 H666 0.950 . S
C689 C688 1.334 . S
C689 C690 1.287 . S
C690 C689 1.287 . S
C690 C691 1.524 . S
C690 H709 0.913 . S
C691 H667 0.950 . S
C691 C690 1.524 . S
C691 C692 1.415 . S
C692 H668 0.950 . S
C692 C687 1.363 . S
C692 C691 1.415 . S
C693 H669 0.951 . S
C693 C694 1.366 . S
C693 C695 1.388 . S
C694 C693 1.366 . S
C694 C698 1.385 . S
C695 H670 0.951 . S
C695 C693 1.388 . S
C695 C696 1.366 . S
C696 C695 1.366 . S
C696 C697 1.414 . S
C696 C699 1.499 . S
C697 H671 0.950 . S
C697 C696 1.414 . S
C697 C698 1.374 . S
C698 H672 0.950 . S
C698 C694 1.385 . S
C698 C697 1.374 . S
C699 C696 1.499 . S
C699 C700 1.373 . S
C699 C701 1.389 . S
C700 H673 0.950 . S
C700 C686 1.377 . S
C700 C699 1.373 . S
C701 C685 1.377 . S
C701 C699 1.389 . S
C701 C702 1.524 . S
C702 C701 1.524 . S
C702 C703 1.397 . S
C702 C707 1.363 . S
C703 H674 0.950 . S
C703 C702 1.397 . S
C703 C704 1.334 . S
C704 H675 0.950 . S
C704 C703 1.334 . S
C704 C705 1.287 . S
C705 C704 1.287 . S
C705 C706 1.524 . S
C705 H708 0.999 . S
C706 H676 0.950 . S
C706 C705 1.524 . S
C706 C707 1.415 . S
C707 H677 0.950 . S
C707 C702 1.363 . S
C707 C706 1.415 . S
H708 C705 0.999 . S
H709 C690 0.913 . S
H710 C728 0.951 . S
H711 C730 0.951 . S
H712 C732 0.950 . S
H713 C733 0.950 . S
H714 C735 0.950 . S
H715 C738 0.950 . S
H716 C739 0.950 . S
H717 C741 0.950 . S
H718 C742 0.950 . S
H719 C743 0.951 . S
H720 C745 0.951 . S
H721 C747 0.950 . S
H722 C748 0.950 . S
H723 C750 0.950 . S
H724 C753 0.950 . S
H725 C754 0.950 . S
H726 C756 0.950 . S
H727 C757 0.950 . S
C728 H710 0.951 . S
C728 C729 1.366 . S
C728 C730 1.388 . S
C729 C728 1.366 . S
C729 C733 1.385 . S
C730 H711 0.951 . S
C730 C728 1.388 . S
C730 C731 1.366 . S
C731 C730 1.366 . S
C731 C732 1.414 . S
C731 C734 1.499 . S
C732 H712 0.950 . S
C732 C731 1.414 . S
C732 C733 1.374 . S
C733 H713 0.950 . S
C733 C729 1.385 . S
C733 C732 1.374 . S
C734 C731 1.499 . S
C734 C735 1.373 . S
C734 C736 1.389 . S
C735 H714 0.950 . S
C735 C734 1.373 . S
C735 C751 1.377 . S
C736 C734 1.389 . S
C736 C737 1.524 . S
C736 C750 1.377 . S
C737 C736 1.524 . S
C737 C738 1.397 . S
C737 C742 1.363 . S
C738 H715 0.950 . S
C738 C737 1.397 . S
C738 C739 1.334 . S
C739 H716 0.950 . S
C739 C738 1.334 . S
C739 C740 1.287 . S
C740 C739 1.287 . S
C740 C741 1.524 . S
C740 H759 0.913 . S
C741 H717 0.950 . S
C741 C740 1.524 . S
C741 C742 1.415 . S
C742 H718 0.950 . S
C742 C737 1.363 . S
C742 C741 1.415 . S
C743 H719 0.951 . S
C743 C744 1.366 . S
C743 C745 1.388 . S
C744 C743 1.366 . S
C744 C748 1.385 . S
C745 H720 0.951 . S
C745 C743 1.388 . S
C745 C746 1.366 . S
C746 C745 1.366 . S
C746 C747 1.414 . S
C746 C749 1.499 . S
C747 H721 0.950 . S
C747 C746 1.414 . S
C747 C748 1.374 . S
C748 H722 0.950 . S
C748 C744 1.385 . S
C748 C747 1.374 . S
C749 C746 1.499 . S
C749 C750 1.373 . S
C749 C751 1.389 . S
C750 H723 0.950 . S
C750 C736 1.377 . S
C750 C749 1.373 . S
C751 C735 1.377 . S
C751 C749 1.389 . S
C751 C752 1.524 . S
C752 C751 1.524 . S
C752 C753 1.397 . S
C752 C757 1.363 . S
C753 H724 0.950 . S
C753 C752 1.397 . S
C753 C754 1.334 . S
C754 H725 0.950 . S
C754 C753 1.334 . S
C754 C755 1.287 . S
C755 C754 1.287 . S
C755 C756 1.524 . S
C755 H758 0.999 . S
C756 H726 0.950 . S
C756 C755 1.524 . S
C756 C757 1.415 . S
C757 H727 0.950 . S
C757 C752 1.363 . S
C757 C756 1.415 . S
H758 C755 0.999 . S
H759 C740 0.913 . S
C179 C90 3.505 1_554 S
C194 C19 3.502 1_556 S
C229 C99 3.503 1_556 S
C244 C10 3.505 1_554 S
C279 C55 0.088 . S
C294 C126 0.087 . S
C329 C46 0.088 . S
C344 C135 0.088 . S
C379 C15 0.930 . S
C394 C6 0.928 . S
C429 C59 4.885 . S
C444 C50 4.885 . S
C479 C95 0.930 . S
C494 C86 0.929 . S
C529 C130 4.885 . S
C544 C139 4.885 . S
C579 C49 1.449 1_645 S
C594 C18 1.444 1_655 S
C629 C9 1.452 1_455 S
C644 C58 1.442 1_465 S
C679 C129 1.449 . S
C694 C98 1.450 . S
C729 C138 1.449 . S
C744 C89 1.455 . S
