# Generated by pormake.
# Topology cdl, (4)-cn, num edge types: 1
# Building blocks:
#     Node 0, Type 0, BuildingBlock: NAWXER_clean_sbu_0, # of connection points: 4
#     Node 1, Type 0, BuildingBlock: NAWXER_clean_sbu_0, # of connection points: 4
#     Node 2, Type 0, BuildingBlock: NAWXER_clean_sbu_0, # of connection points: 4
#     Node 3, Type 0, BuildingBlock: NAWXER_clean_sbu_0, # of connection points: 4
#     Edge 4, Type (0, 0), BuildingBlock: ZUJKAS_clean_linker_0, # of connection points: 2
#     Edge 5, Type (0, 0), BuildingBlock: ZUJKAS_clean_linker_0, # of connection points: 2
#     Edge 6, Type (0, 0), BuildingBlock: ZUJKAS_clean_linker_0, # of connection points: 2
#     Edge 7, Type (0, 0), BuildingBlock: ZUJKAS_clean_linker_0, # of connection points: 2
#     Edge 8, Type (0, 0), BuildingBlock: ZUJKAS_clean_linker_0, # of connection points: 2
#     Edge 9, Type (0, 0), BuildingBlock: ZUJKAS_clean_linker_0, # of connection points: 2
#     Edge 10, Type (0, 0), BuildingBlock: ZUJKAS_clean_linker_0, # of connection points: 2
#     Edge 11, Type (0, 0), BuildingBlock: ZUJKAS_clean_linker_0, # of connection points: 2
# Relax obj value: 0.000
# Max RMSD: 0.002
# Mean RMSD: 0.002
data_MOF--net-cdl--node1-NAWXER_clean_sbu_0--edge1-ZUJKAS_clean_linker_0
_symmetry_space_group_name_H-M    P1
_symmetry_Int_Tables_number       1
_symmetry_cell_setting            triclinic
loop_
_symmetry_equiv_pos_as_xyz
'x, y, z'
_cell_length_a     19.193089
_cell_length_b     19.204215
_cell_length_c     76.577125
_cell_angle_alpha  97.049388
_cell_angle_beta   96.979234
_cell_angle_gamma 88.708104
loop_
_atom_site_label
_atom_site_type_symbol
_atom_site_fract_x
_atom_site_fract_y
_atom_site_fract_z
_atom_type_partial_charge
C0 C 0.91621 0.23474 0.12871 0.0
C1 C 0.9151 0.97978 0.12707 0.0
O2 O 0.97829 0.20827 0.13056 0.0
Zn3 Zn 0.02596 0.10599 0.13155 0.0
O4 O 0.86344 0.1946 0.12692 0.0
Zn5 Zn 0.91494 0.10738 0.12799 0.0
O6 O 0.96238 0.11625 0.15516 0.0
O7 O 0.07724 0.1128 0.15496 0.0
O8 O 0.86264 0.02115 0.12568 0.0
O9 O 0.97734 1.00493 0.12921 0.0
O10 O 0.07871 0.0972 0.11152 0.0
O11 O 0.96412 0.09747 0.1039 0.0
C12 C 0.02447 0.11731 0.16358 0.0
C13 C 0.02667 0.09438 0.0995 0.0
C14 C 0.18914 0.21047 0.63852 0.0
C15 C 0.93353 0.21162 0.63531 0.0
O16 O 0.16332 0.14845 0.6358 0.0
Zn17 Zn 0.06115 0.10079 0.63273 0.0
O18 O 0.14828 0.2632 0.6403 0.0
Zn19 Zn 0.06157 0.21161 0.63706 0.0
O20 O 0.06857 0.15996 0.66069 0.0
O21 O 0.06634 0.04589 0.65231 0.0
O22 O 0.97448 0.26389 0.63782 0.0
O23 O 0.95935 0.14938 0.63321 0.0
O24 O 0.05598 0.05155 0.60915 0.0
O25 O 0.05678 0.16661 0.60967 0.0
C26 C 0.06954 0.09684 0.66463 0.0
C27 C 0.05532 0.10511 0.6009 0.0
C28 C 0.2344 0.17364 0.88779 0.0
C29 C 0.23501 0.9183 0.88544 0.0
O30 O 0.28716 0.13259 0.88909 0.0
Zn31 Zn 0.23545 0.04607 0.88651 0.0
O32 O 0.1723 0.14805 0.88559 0.0
Zn33 Zn 0.12444 0.04623 0.88308 0.0
O34 O 0.07208 0.0538 0.90316 0.0
O35 O 0.18674 0.05463 0.91067 0.0
O36 O 0.17282 0.94447 0.8838 0.0
O37 O 0.2875 0.95878 0.88719 0.0
O38 O 0.18748 0.0396 0.85941 0.0
O39 O 0.07274 0.03886 0.85971 0.0
C40 C 0.1243 0.05689 0.91513 0.0
C41 C 0.12527 0.0373 0.85105 0.0
C42 C 0.21783 0.93182 0.37892 0.0
C43 C 0.96199 0.93128 0.37518 0.0
O44 O 0.17723 0.87926 0.37637 0.0
Zn45 Zn 0.08984 0.93096 0.37689 0.0
O46 O 0.19156 0.99393 0.38092 0.0
Zn47 Zn 0.0891 0.04175 0.38122 0.0
O48 O 0.09338 0.09097 0.40478 0.0
O49 O 0.09369 0.97589 0.40428 0.0
O50 O 0.98747 0.9934 0.378 0.0
O51 O 1.00319 0.87882 0.37342 0.0
O52 O 0.08421 0.98269 0.35328 0.0
O53 O 0.083 0.09671 0.36166 0.0
C54 C 0.09443 0.03738 0.41303 0.0
C55 C 0.08201 0.04585 0.34935 0.0
H56 H 0.79315 0.31061 0.12524 0.0
H57 H 0.77987 0.43709 0.1235 0.0
H58 H 1.00493 0.45815 0.12946 0.0
H59 H 0.01884 0.33255 0.13111 0.0
H60 H 0.8348 0.55252 0.14862 0.0
H61 H 0.9379 0.54763 0.08392 0.0
H62 H 0.90892 0.46954 0.09179 0.0
H63 H 0.9944 0.50485 0.09985 0.0
C64 C 0.8398 0.3422 0.12618 0.0
C65 C 0.90706 0.31134 0.12821 0.0
C66 C 0.83208 0.41438 0.12519 0.0
C67 C 0.89141 0.45662 0.12605 0.0
C68 C 0.95846 0.4262 0.12841 0.0
H69 H 0.0172 0.87913 0.12911 0.0
H70 H 1.00287 0.75297 0.12833 0.0
C71 C 0.96625 0.35436 0.12945 0.0
C72 C 0.88409 0.53279 0.12469 0.0
H73 H 0.93081 0.65988 0.10096 0.0
C74 C 0.85475 0.57611 0.13808 0.0
C75 C 0.91 0.56315 0.11087 0.0
C76 C 0.93898 0.51888 0.09569 0.0
C77 C 0.85402 0.64952 0.1385 0.0
C78 C 0.88241 0.67996 0.12503 0.0
C79 C 0.90933 0.63638 0.1113 0.0
C80 C 0.8894 0.75691 0.12555 0.0
C81 C 0.82597 0.69406 0.15377 0.0
C82 C 0.83018 0.80104 0.1241 0.0
C83 C 0.83815 0.87361 0.12454 0.0
C84 C 0.90552 0.90308 0.12639 0.0
C85 C 0.96453 0.8584 0.1277 0.0
C86 C 0.9565 0.78615 0.12724 0.0
H87 H 0.81803 0.66307 0.1647 0.0
H88 H 0.86229 0.73785 0.15912 0.0
H89 H 0.77467 0.71717 0.14904 0.0
H90 H 0.77788 0.77933 0.12249 0.0
H91 H 0.79163 0.90652 0.12344 0.0
H92 H 0.26362 0.33344 0.64376 0.0
H93 H 0.38988 0.34706 0.64274 0.0
H94 H 0.41373 0.12238 0.63308 0.0
H95 H 0.28837 0.10813 0.63399 0.0
H96 H 0.50761 0.28806 0.66362 0.0
H97 H 0.49895 0.19669 0.59184 0.0
H98 H 0.42144 0.2247 0.60209 0.0
H99 H 0.45739 0.13825 0.60391 0.0
C100 C 0.2958 0.28695 0.64146 0.0
C101 C 0.26576 0.21971 0.63884 0.0
C102 C 0.36784 0.29486 0.64088 0.0
C103 C 0.41075 0.23577 0.63753 0.0
C104 C 0.38122 0.1687 0.63534 0.0
H105 H 0.83353 0.11011 0.62976 0.0
H106 H 0.70728 0.12472 0.63026 0.0
C107 C 0.30953 0.1607 0.63596 0.0
C108 C 0.48661 0.24336 0.63635 0.0
H109 H 0.61209 0.20122 0.60877 0.0
C110 C 0.53056 0.27013 0.65158 0.0
C111 C 0.51611 0.22009 0.62059 0.0
C112 C 0.47103 0.19391 0.60362 0.0
C113 C 0.60386 0.27078 0.65171 0.0
C114 C 0.63351 0.245 0.63611 0.0
C115 C 0.58922 0.22071 0.62072 0.0
C116 C 0.7104 0.23787 0.63578 0.0
C117 C 0.64917 0.29587 0.66873 0.0
C118 C 0.75407 0.29685 0.63852 0.0
C119 C 0.82668 0.28872 0.63825 0.0
C120 C 0.85665 0.22143 0.63517 0.0
C121 C 0.81239 0.1627 0.6322 0.0
C122 C 0.7401 0.17089 0.63247 0.0
H123 H 0.61898 0.30157 0.68032 0.0
H124 H 0.69363 0.25895 0.67121 0.0
H125 H 0.67137 0.34779 0.66763 0.0
H126 H 0.732 0.34911 0.6408 0.0
H127 H 0.85925 0.33503 0.64052 0.0
H128 H 0.35742 0.24731 0.89098 0.0
H129 H 0.37065 0.37469 0.89215 0.0
H130 H 0.14567 0.40042 0.88734 0.0
H131 H 0.13186 0.27409 0.88632 0.0
H132 H 0.31561 0.46372 0.86665 0.0
H133 H 0.21388 0.53818 0.93109 0.0
H134 H 0.24153 0.4498 0.92397 0.0
H135 H 0.15615 0.48113 0.91581 0.0
C136 C 0.3108 0.28016 0.89027 0.0
C137 C 0.24359 0.25048 0.88866 0.0
C138 C 0.31848 0.35285 0.89092 0.0
C139 C 0.25918 0.397 0.89012 0.0
C140 C 0.19218 0.36744 0.88835 0.0
H141 H 0.13282 0.81989 0.88266 0.0
H142 H 0.14712 0.69416 0.88404 0.0
C143 C 0.18442 0.29505 0.88767 0.0
C144 C 0.26644 0.47394 0.89065 0.0
H145 H 0.2193 0.6298 0.91276 0.0
C146 C 0.29562 0.50021 0.87686 0.0
C147 C 0.24048 0.52129 0.90403 0.0
C148 C 0.21187 0.49628 0.91966 0.0
C149 C 0.29616 0.57263 0.8756 0.0
C150 C 0.26759 0.6197 0.88862 0.0
C151 C 0.24083 0.5935 0.90275 0.0
C152 C 0.2606 0.69591 0.88726 0.0
C153 C 0.32426 0.59807 0.85997 0.0
C154 C 0.31984 0.73871 0.88863 0.0
C155 C 0.3119 0.81101 0.88785 0.0
C156 C 0.24453 0.8416 0.88573 0.0
C157 C 0.18549 0.79825 0.88428 0.0
C158 C 0.19349 0.72629 0.88509 0.0
H159 H 0.33301 0.55433 0.84953 0.0
H160 H 0.28751 0.63669 0.85406 0.0
H161 H 0.37511 0.6247 0.86449 0.0
H162 H 0.37212 0.71638 0.89057 0.0
H163 H 0.35844 0.84294 0.88907 0.0
H164 H 0.29265 0.80889 0.37349 0.0
H165 H 0.42014 0.79534 0.37357 0.0
H166 H 0.44397 0.01966 0.38476 0.0
H167 H 0.31751 0.03375 0.38488 0.0
H168 H 0.50738 0.85337 0.3519 0.0
H169 H 0.58444 0.94522 0.42291 0.0
H170 H 0.4959 0.91926 0.41421 0.0
H171 H 0.52649 1.00523 0.41196 0.0
C172 C 0.32512 0.85528 0.3761 0.0
C173 C 0.29485 0.92239 0.37928 0.0
C174 C 0.39788 0.84741 0.37611 0.0
C175 C 0.44154 0.9064 0.37945 0.0
C176 C 0.4114 0.97332 0.38252 0.0
H177 H 0.86213 0.03328 0.37918 0.0
H178 H 0.73664 0.01876 0.3798 0.0
C179 C 0.33894 0.98126 0.38249 0.0
C180 C 0.51848 0.89901 0.3792 0.0
H181 H 0.67496 0.9429 0.4039 0.0
C182 C 0.54421 0.87185 0.36332 0.0
C183 C 0.5663 0.92296 0.39416 0.0
C184 C 0.54199 0.94916 0.41183 0.0
C185 C 0.61646 0.87148 0.36176 0.0
C186 C 0.66393 0.89819 0.37652 0.0
C187 C 0.63834 0.92285 0.39257 0.0
C188 C 0.73988 0.90539 0.37536 0.0
C189 C 0.64127 0.84558 0.34414 0.0
C190 C 0.78339 0.8463 0.37261 0.0
C191 C 0.85557 0.85437 0.37225 0.0
C192 C 0.8853 0.92172 0.37467 0.0
C193 C 0.84116 0.98064 0.37725 0.0
C194 C 0.76934 0.9725 0.37764 0.0
H195 H 0.59707 0.83788 0.3333 0.0
H196 H 0.67888 0.88313 0.3406 0.0
H197 H 0.66896 0.79458 0.34507 0.0
H198 H 0.76176 0.794 0.37107 0.0
H199 H 0.88811 0.80792 0.37031 0.0
H200 H 1.00001 0.06029 0.92954 0.0
H201 H 0.98393 0.06791 0.96097 0.0
H202 H 0.20839 0.07174 0.97501 0.0
H203 H 0.22507 0.06493 0.94374 0.0
H204 H 0.03409 0.97444 0.98537 0.0
H205 H 0.14065 0.24199 1.00645 0.0
H206 H 0.11576 0.20896 0.98348 0.0
H207 H 0.19818 0.18327 0.99478 0.0
C208 C 0.04596 0.06317 0.93932 0.0
C209 C 0.11383 0.06232 0.93412 0.0
C210 C 0.03666 0.06743 0.95726 0.0
C211 C 0.09494 0.07142 0.97032 0.0
C212 C 0.16267 0.07015 0.96517 0.0
H213 H 0.15128 0.09015 0.08521 0.0
H214 H 0.16787 0.08207 0.0538 0.0
C215 C 0.17206 0.06586 0.94726 0.0
C216 C 0.0851 0.07479 0.98931 0.0
H217 H 0.11808 0.17561 0.02932 0.0
C218 C 0.05207 0.01856 0.99498 0.0
C219 C 0.10894 0.13231 1.0018 0.0
C220 C 0.14232 0.1954 0.99635 0.0
C221 C 0.04325 0.01775 0.01289 0.0
C222 C 0.06705 0.07527 0.02538 0.0
C223 C 0.10012 0.13149 0.01971 0.0
C224 C 0.05694 0.07878 0.04436 0.0
C225 C 1.00982 0.95468 0.01834 0.0
C226 C 0.9891 0.0803 0.04944 0.0
C227 C 0.97942 0.08487 0.06733 0.0
C228 C 0.03747 0.08844 0.08053 0.0
C229 C 0.10546 0.08726 0.07539 0.0
C230 C 0.11506 0.08274 0.05746 0.0
H231 H 0.01155 0.90807 0.00825 0.0
H232 H 0.03631 0.94118 0.03122 0.0
H233 H 0.95395 0.96682 0.01989 0.0
H234 H 0.94352 0.07872 0.03956 0.0
H235 H 0.92632 0.08604 0.0708 0.0
H236 H 0.09493 0.93331 0.4344 0.0
H237 H 0.08745 0.94587 0.46626 0.0
H238 H 0.08514 0.17107 0.46774 0.0
H239 H 0.09178 0.15916 0.43579 0.0
H240 H 0.17777 0.0145 0.49432 0.0
H241 H 0.91025 0.13243 0.49094 0.0
H242 H 0.94601 0.08952 0.47163 0.0
H243 H 0.97191 0.17736 0.48052 0.0
C244 C 0.09293 0.98561 0.44147 0.0
C245 C 0.09354 0.04527 0.4325 0.0
C246 C 0.08867 0.99262 0.45969 0.0
C247 C 0.08456 0.05933 0.46929 0.0
C248 C 0.0868 0.11906 0.4605 0.0
H249 H 0.0549 0.20912 0.57952 0.0
H250 H 0.06212 0.19647 0.54766 0.0
C251 C 0.09106 0.11214 0.44225 0.0
C252 C 0.07841 0.06613 0.48854 0.0
H253 H 0.97136 0.1278 0.5196 0.0
C254 C 0.13257 0.03903 0.49986 0.0
C255 C 0.0193 0.09811 0.4957 0.0
C256 C 0.95819 0.12552 0.48409 0.0
C257 C 0.12982 0.04416 0.51821 0.0
C258 C 0.07072 0.07616 0.52537 0.0
C259 C 0.01656 0.10326 0.51406 0.0
C260 C 0.06461 0.08301 0.54462 0.0
C261 C 0.19092 0.01676 0.52983 0.0
C262 C 0.06222 0.02331 0.55342 0.0
C263 C 0.05809 0.03028 0.57167 0.0
C264 C 0.05592 0.09717 0.58142 0.0
C265 C 0.05667 0.15681 0.57245 0.0
C266 C 0.06078 0.14974 0.55422 0.0
H267 H 0.23882 1.00968 0.52296 0.0
H268 H 0.20319 0.05284 0.54227 0.0
H269 H 0.17712 0.965 0.53343 0.0
H270 H 0.06369 0.97128 0.54618 0.0
H271 H 0.05728 0.98328 0.57814 0.0
H272 H 0.06087 0.17106 0.33559 0.0
H273 H 0.05171 0.19054 0.30436 0.0
H274 H 0.08809 0.96995 0.28957 0.0
H275 H 0.09573 0.94973 0.32059 0.0
H276 H 0.14524 0.16683 0.27973 0.0
H277 H 0.90754 1.00517 0.25848 0.0
H278 H 0.93844 0.03138 0.2815 0.0
H279 H 0.97815 0.95779 0.26939 0.0
C280 C 0.06677 0.12668 0.32568 0.0
C281 C 0.07828 0.05871 0.33057 0.0
C282 C 0.06164 0.13793 0.30785 0.0
C283 C 0.0679 0.08149 0.29461 0.0
C284 C 0.08132 0.01399 0.29951 0.0
H285 H 0.14391 0.09144 0.18541 0.0
H286 H 0.15552 0.08826 0.21748 0.0
C287 C 0.08597 1.0026 0.31728 0.0
C288 C 0.06039 0.09289 0.27565 0.0
H289 H 0.96779 0.03925 0.23552 0.0
C290 C 0.10616 0.13935 0.27006 0.0
C291 C 1.00865 0.05785 0.2631 0.0
C292 C 0.95493 0.01082 0.26842 0.0
C293 C 0.10267 0.15041 0.25216 0.0
C294 C 0.05301 0.11283 0.2395 0.0
C295 C 1.00631 0.06757 0.24519 0.0
C296 C 0.0479 0.11945 0.22026 0.0
C297 C 0.15146 0.20297 0.24707 0.0
C298 C 0.98336 0.13698 0.21107 0.0
C299 C 0.97629 0.13767 0.19272 0.0
C300 C 0.03374 0.12108 0.18316 0.0
C301 C 0.09881 0.10504 0.19241 0.0
C302 C 0.10565 0.10365 0.21077 0.0
H303 H 0.17033 0.24174 0.25857 0.0
H304 H 0.19803 0.17498 0.24229 0.0
H305 H 0.12536 0.23168 0.23631 0.0
H306 H 0.93803 0.1492 0.21808 0.0
H307 H 0.92549 0.15048 0.18602 0.0
H308 H 0.09974 0.19174 0.69398 0.0
H309 H 0.10491 0.17211 0.72499 0.0
H310 H 0.05048 0.955 0.70896 0.0
H311 H 0.04726 0.97376 0.67781 0.0
H312 H 1.00414 0.13242 0.74293 0.0
H313 H 0.22104 0.93625 0.74442 0.0
H314 H 0.19927 0.98666 0.7261 0.0
H315 H 0.1478 0.91155 0.7281 0.0
C316 C 0.08927 0.13964 0.69702 0.0
C317 C 0.07348 0.08419 0.68342 0.0
C318 C 0.09212 0.12854 0.71477 0.0
C319 C 0.079 0.06189 0.71934 0.0
C320 C 0.06245 1.00649 0.70579 0.0
H321 H 1.00369 0.01432 0.82833 0.0
H322 H 0.98828 0.01452 0.79611 0.0
C323 C 0.06029 0.01738 0.68798 0.0
C324 C 0.08149 0.05144 0.7383 0.0
H325 H 0.16491 0.95988 0.77037 0.0
C326 C 0.03919 0.09457 0.74893 0.0
C327 C 0.12766 1.00242 0.74614 0.0
C328 C 0.17703 0.957 0.73566 0.0
C329 C 0.04251 0.09093 0.76721 0.0
C330 C 0.08806 0.04133 0.77502 0.0
C331 C 0.1296 0.99745 0.76434 0.0
C332 C 0.09704 0.03738 0.79441 0.0
C333 C 0.99925 0.14217 0.77807 0.0
C334 C 0.16369 0.04752 0.80409 0.0
C335 C 0.17285 0.04634 0.82241 0.0
C336 C 0.11542 0.03524 0.8315 0.0
C337 C 0.04885 0.0237 0.82175 0.0
C338 C 0.03988 0.0242 0.80335 0.0
H339 H 0.98141 0.18766 0.77096 0.0
H340 H 0.95193 0.11528 0.78083 0.0
H341 H 0.02951 0.16215 0.79093 0.0
H342 H 0.20861 0.05761 0.79748 0.0
H343 H 0.22485 0.05541 0.82949 0.0
loop_
_geom_bond_atom_site_label_1
_geom_bond_atom_site_label_2
_geom_bond_distance
_geom_bond_site_symmetry_2
_ccdc_geom_bond_type
C0 O2 1.247 . S
C0 O4 1.258 . S
C1 O8 1.247 . S
C1 O9 1.258 . S
O2 C0 1.247 . S
O2 Zn3 2.028 . S
Zn3 O2 2.028 . S
Zn3 O7 2.035 . S
Zn3 O9 2.035 1_545 S
Zn3 O10 2.028 . S
O4 C0 1.258 . S
O4 Zn5 2.035 1_455 S
Zn5 O4 2.035 1_655 S
Zn5 O6 2.028 1_655 S
Zn5 O8 2.028 1_645 S
Zn5 O11 2.035 1_655 S
O6 Zn5 2.028 1_455 S
O6 C12 1.247 . S
O7 Zn3 2.035 . S
O7 C12 1.258 . S
O8 C1 1.247 . S
O8 Zn5 2.028 1_465 S
O9 C1 1.258 . S
O9 Zn3 2.035 1_565 S
O10 Zn3 2.028 . S
O10 C13 1.247 . S
O11 Zn5 2.035 1_455 S
O11 C13 1.258 . S
C12 O6 1.247 . S
C12 O7 1.258 . S
C13 O10 1.247 . S
C13 O11 1.258 . S
C14 O16 1.247 . S
C14 O18 1.258 . S
C15 O22 1.247 . S
C15 O23 1.258 . S
O16 C14 1.247 . S
O16 Zn17 2.028 1_545 S
Zn17 O16 2.028 1_565 S
Zn17 O21 2.035 1_565 S
Zn17 O23 2.035 1_465 S
Zn17 O24 2.028 1_565 S
O18 C14 1.258 . S
O18 Zn19 2.035 . S
Zn19 O18 2.035 . S
Zn19 O20 2.028 . S
Zn19 O22 2.028 1_455 S
Zn19 O25 2.035 . S
O20 Zn19 2.028 . S
O20 C26 1.247 . S
O21 Zn17 2.035 1_545 S
O21 C26 1.258 . S
O22 C15 1.247 . S
O22 Zn19 2.028 1_655 S
O23 C15 1.258 . S
O23 Zn17 2.035 1_645 S
O24 Zn17 2.028 1_545 S
O24 C27 1.247 . S
O25 Zn19 2.035 . S
O25 C27 1.258 . S
C26 O20 1.247 . S
C26 O21 1.258 . S
C27 O24 1.247 . S
C27 O25 1.258 . S
C28 O30 1.247 . S
C28 O32 1.258 . S
C29 O36 1.247 . S
C29 O37 1.258 . S
O30 C28 1.247 . S
O30 Zn31 2.028 . S
Zn31 O30 2.028 . S
Zn31 O35 2.035 . S
Zn31 O37 2.035 1_545 S
Zn31 O38 2.028 . S
O32 C28 1.258 . S
O32 Zn33 2.035 1_455 S
Zn33 O32 2.035 1_655 S
Zn33 O34 2.028 1_655 S
Zn33 O36 2.028 1_645 S
Zn33 O39 2.035 1_655 S
O34 Zn33 2.028 1_455 S
O34 C40 1.247 . S
O35 Zn31 2.035 . S
O35 C40 1.258 . S
O36 C29 1.247 . S
O36 Zn33 2.028 1_465 S
O37 C29 1.258 . S
O37 Zn31 2.035 1_565 S
O38 Zn31 2.028 . S
O38 C41 1.247 . S
O39 Zn33 2.035 1_455 S
O39 C41 1.258 . S
C40 O34 1.247 . S
C40 O35 1.258 . S
C41 O38 1.247 . S
C41 O39 1.258 . S
C42 O44 1.247 . S
C42 O46 1.258 . S
C43 O50 1.247 . S
C43 O51 1.258 . S
O44 C42 1.247 . S
O44 Zn45 2.028 1_545 S
Zn45 O44 2.028 1_565 S
Zn45 O49 2.035 1_565 S
Zn45 O51 2.035 1_465 S
Zn45 O52 2.028 1_565 S
O46 C42 1.258 . S
O46 Zn47 2.035 . S
Zn47 O46 2.035 . S
Zn47 O48 2.028 . S
Zn47 O50 2.028 1_455 S
Zn47 O53 2.035 . S
O48 Zn47 2.028 . S
O48 C54 1.247 . S
O49 Zn45 2.035 1_545 S
O49 C54 1.258 . S
O50 C43 1.247 . S
O50 Zn47 2.028 1_655 S
O51 C43 1.258 . S
O51 Zn45 2.035 1_645 S
O52 Zn45 2.028 1_545 S
O52 C55 1.247 . S
O53 Zn47 2.035 . S
O53 C55 1.258 . S
C54 O48 1.247 . S
C54 O49 1.258 . S
C55 O52 1.247 . S
C55 O53 1.258 . S
H56 C64 0.929 . S
H57 C66 0.930 . S
H58 C68 0.930 . S
H59 C71 0.929 . S
H60 C74 0.930 1_655 S
H61 C76 0.960 . S
H62 C76 0.960 . S
H63 C76 0.960 . S
C64 H56 0.929 . S
C64 C65 1.377 . S
C64 C66 1.384 . S
C65 C64 1.377 . S
C65 C71 1.390 . S
C66 H57 0.930 . S
C66 C64 1.384 . S
C66 C67 1.372 . S
C67 C66 1.372 . S
C67 C68 1.400 . S
C67 C72 1.490 . S
C68 H58 0.930 . S
C68 C67 1.400 . S
C68 C71 1.386 . S
H69 C85 0.930 . S
H70 C86 0.931 . S
C71 H59 0.929 . S
C71 C65 1.390 . S
C71 C68 1.386 . S
C72 C67 1.490 . S
C72 C74 1.395 . S
C72 C75 1.403 . S
H73 C79 0.930 . S
C74 H60 0.930 1_455 S
C74 C72 1.395 . S
C74 C77 1.403 1_455 S
C75 C72 1.403 . S
C75 C76 1.524 . S
C75 C79 1.400 . S
C76 H61 0.960 . S
C76 H62 0.960 . S
C76 H63 0.960 . S
C76 C75 1.524 . S
C77 C74 1.403 1_655 S
C77 C78 1.392 1_655 S
C77 C81 1.495 . S
C78 C77 1.392 1_455 S
C78 C79 1.385 . S
C78 C80 1.478 . S
C79 H73 0.930 . S
C79 C75 1.400 . S
C79 C78 1.385 . S
C80 C78 1.478 . S
C80 C82 1.381 . S
C80 C86 1.383 . S
C81 C77 1.495 . S
C81 H87 0.959 . S
C81 H88 0.961 . S
C81 H89 0.960 . S
C82 C80 1.381 . S
C82 C83 1.394 . S
C82 H90 0.930 . S
C83 C82 1.394 . S
C83 C84 1.383 . S
C83 H91 0.929 . S
C84 C83 1.383 . S
C84 C85 1.377 . S
C85 H69 0.930 . S
C85 C84 1.377 . S
C85 C86 1.379 . S
C86 H70 0.931 . S
C86 C80 1.383 . S
C86 C85 1.379 . S
H87 C81 0.959 . S
H88 C81 0.961 . S
H89 C81 0.960 . S
H90 C82 0.930 . S
H91 C83 0.929 . S
H92 C100 0.929 . S
H93 C102 0.930 . S
H94 C104 0.930 1_565 S
H95 C107 0.929 1_565 S
H96 C110 0.930 . S
H97 C112 0.960 . S
H98 C112 0.960 1_545 S
H99 C112 0.960 . S
C100 H92 0.929 . S
C100 C101 1.377 . S
C100 C102 1.384 . S
C101 C100 1.377 . S
C101 C107 1.390 . S
C102 H93 0.930 . S
C102 C100 1.384 . S
C102 C103 1.372 . S
C103 C102 1.372 . S
C103 C104 1.400 . S
C103 C108 1.490 . S
C104 H94 0.930 1_545 S
C104 C103 1.400 . S
C104 C107 1.386 . S
H105 C121 0.930 1_565 S
H106 C122 0.931 1_565 S
C107 H95 0.929 1_545 S
C107 C101 1.390 . S
C107 C104 1.386 . S
C108 C103 1.490 . S
C108 C110 1.395 . S
C108 C111 1.403 . S
H109 C115 0.930 . S
C110 H96 0.930 . S
C110 C108 1.395 . S
C110 C113 1.403 . S
C111 C108 1.403 . S
C111 C112 1.524 1_545 S
C111 C115 1.400 . S
C112 H97 0.960 . S
C112 H98 0.960 1_565 S
C112 H99 0.960 . S
C112 C111 1.524 1_565 S
C113 C110 1.403 . S
C113 C114 1.392 . S
C113 C117 1.495 . S
C114 C113 1.392 . S
C114 C115 1.385 . S
C114 C116 1.478 . S
C115 H109 0.930 . S
C115 C111 1.400 . S
C115 C114 1.385 . S
C116 C114 1.478 . S
C116 C118 1.381 . S
C116 C122 1.383 . S
C117 C113 1.495 . S
C117 H123 0.959 . S
C117 H124 0.961 . S
C117 H125 0.960 . S
C118 C116 1.381 . S
C118 C119 1.394 . S
C118 H126 0.930 . S
C119 C118 1.394 . S
C119 C120 1.383 . S
C119 H127 0.929 . S
C120 C119 1.383 . S
C120 C121 1.377 . S
C121 H105 0.930 1_545 S
C121 C120 1.377 . S
C121 C122 1.379 . S
C122 H106 0.931 1_545 S
C122 C116 1.383 . S
C122 C121 1.379 . S
H123 C117 0.959 . S
H124 C117 0.961 . S
H125 C117 0.960 . S
H126 C118 0.930 . S
H127 C119 0.929 . S
H128 C136 0.929 . S
H129 C138 0.930 . S
H130 C140 0.930 . S
H131 C143 0.929 . S
H132 C146 0.930 . S
H133 C148 0.960 . S
H134 C148 0.960 . S
H135 C148 0.960 . S
C136 H128 0.929 . S
C136 C137 1.377 . S
C136 C138 1.384 . S
C137 C136 1.377 . S
C137 C143 1.390 . S
C138 H129 0.930 . S
C138 C136 1.384 . S
C138 C139 1.372 . S
C139 C138 1.372 . S
C139 C140 1.400 . S
C139 C144 1.490 . S
C140 H130 0.930 . S
C140 C139 1.400 . S
C140 C143 1.386 . S
H141 C157 0.930 . S
H142 C158 0.931 . S
C143 H131 0.929 . S
C143 C137 1.390 . S
C143 C140 1.386 . S
C144 C139 1.490 . S
C144 C146 1.395 . S
C144 C147 1.403 . S
H145 C151 0.930 1_655 S
C146 H132 0.930 . S
C146 C144 1.395 . S
C146 C149 1.403 . S
C147 C144 1.403 . S
C147 C148 1.524 1_455 S
C147 C151 1.400 . S
C148 H133 0.960 . S
C148 H134 0.960 . S
C148 H135 0.960 . S
C148 C147 1.524 1_655 S
C149 C146 1.403 . S
C149 C150 1.392 . S
C149 C153 1.495 . S
C150 C149 1.392 . S
C150 C151 1.385 . S
C150 C152 1.478 . S
C151 H145 0.930 1_455 S
C151 C147 1.400 . S
C151 C150 1.385 . S
C152 C150 1.478 . S
C152 C154 1.381 . S
C152 C158 1.383 . S
C153 C149 1.495 . S
C153 H159 0.959 . S
C153 H160 0.961 . S
C153 H161 0.960 . S
C154 C152 1.381 . S
C154 C155 1.394 . S
C154 H162 0.930 . S
C155 C154 1.394 . S
C155 C156 1.383 . S
C155 H163 0.929 . S
C156 C155 1.383 . S
C156 C157 1.377 . S
C157 H141 0.930 . S
C157 C156 1.377 . S
C157 C158 1.379 . S
C158 H142 0.931 . S
C158 C152 1.383 . S
C158 C157 1.379 . S
H159 C153 0.959 . S
H160 C153 0.961 . S
H161 C153 0.960 . S
H162 C154 0.930 . S
H163 C155 0.929 . S
H164 C172 0.929 1_565 S
H165 C174 0.930 1_565 S
H166 C176 0.930 . S
H167 C179 0.929 . S
H168 C182 0.930 . S
H169 C184 0.960 . S
H170 C184 0.960 . S
H171 C184 0.960 . S
C172 H164 0.929 1_545 S
C172 C173 1.377 . S
C172 C174 1.384 . S
C173 C172 1.377 . S
C173 C179 1.390 . S
C174 H165 0.930 1_545 S
C174 C172 1.384 . S
C174 C175 1.372 . S
C175 C174 1.372 . S
C175 C176 1.400 . S
C175 C180 1.490 . S
C176 H166 0.930 . S
C176 C175 1.400 . S
C176 C179 1.386 . S
H177 C193 0.930 . S
H178 C194 0.931 . S
C179 H167 0.929 . S
C179 C173 1.390 . S
C179 C176 1.386 . S
C180 C175 1.490 . S
C180 C182 1.395 . S
C180 C183 1.403 . S
H181 C187 0.930 . S
C182 H168 0.930 . S
C182 C180 1.395 . S
C182 C185 1.403 . S
C183 C180 1.403 . S
C183 C184 1.524 . S
C183 C187 1.400 . S
C184 H169 0.960 . S
C184 H170 0.960 . S
C184 H171 0.960 . S
C184 C183 1.524 . S
C185 C182 1.403 . S
C185 C186 1.392 . S
C185 C189 1.495 . S
C186 C185 1.392 . S
C186 C187 1.385 . S
C186 C188 1.478 . S
C187 H181 0.930 . S
C187 C183 1.400 . S
C187 C186 1.385 . S
C188 C186 1.478 . S
C188 C190 1.381 . S
C188 C194 1.383 . S
C189 C185 1.495 . S
C189 H195 0.959 . S
C189 H196 0.961 . S
C189 H197 0.960 . S
C190 C188 1.381 . S
C190 C191 1.394 . S
C190 H198 0.930 1_545 S
C191 C190 1.394 . S
C191 C192 1.383 . S
C191 H199 0.929 1_545 S
C192 C191 1.383 . S
C192 C193 1.377 . S
C193 H177 0.930 . S
C193 C192 1.377 . S
C193 C194 1.379 . S
C194 H178 0.931 . S
C194 C188 1.383 . S
C194 C193 1.379 . S
H195 C189 0.959 . S
H196 C189 0.961 . S
H197 C189 0.960 . S
H198 C190 0.930 1_565 S
H199 C191 0.929 1_565 S
H200 C208 0.929 1_565 S
H201 C210 0.930 1_565 S
H202 C212 0.930 . S
H203 C215 0.929 . S
H204 C218 0.930 1_565 S
H205 C220 0.960 . S
H206 C220 0.960 . S
H207 C220 0.960 1_455 S
C208 H200 0.929 1_545 S
C208 C209 1.377 . S
C208 C210 1.384 . S
C209 C208 1.377 . S
C209 C215 1.390 . S
C210 H201 0.930 1_545 S
C210 C208 1.384 . S
C210 C211 1.372 . S
C211 C210 1.372 . S
C211 C212 1.400 . S
C211 C216 1.490 . S
C212 H202 0.930 . S
C212 C211 1.400 . S
C212 C215 1.386 . S
H213 C229 0.930 . S
H214 C230 0.931 . S
C215 H203 0.929 . S
C215 C209 1.390 . S
C215 C212 1.386 . S
C216 C211 1.490 . S
C216 C218 1.395 . S
C216 C219 1.403 . S
H217 C223 0.930 . S
C218 H204 0.930 1_545 S
C218 C216 1.395 . S
C218 C221 1.403 1_556 S
C219 C216 1.403 . S
C219 C220 1.524 1_455 S
C219 C223 1.400 1_556 S
C220 H205 0.960 . S
C220 H206 0.960 . S
C220 H207 0.960 1_655 S
C220 C219 1.524 1_655 S
C221 C218 1.403 1_554 S
C221 C222 1.391 . S
C221 C225 1.496 1_545 S
C222 C221 1.391 . S
C222 C223 1.385 . S
C222 C224 1.478 . S
C223 H217 0.930 . S
C223 C219 1.400 1_554 S
C223 C222 1.385 . S
C224 C222 1.478 . S
C224 C226 1.381 . S
C224 C230 1.383 . S
C225 C221 1.496 1_565 S
C225 H231 0.959 . S
C225 H232 0.961 . S
C225 H233 0.960 . S
C226 C224 1.381 . S
C226 C227 1.394 . S
C226 H234 0.930 1_545 S
C227 C226 1.394 . S
C227 C228 1.383 . S
C227 H235 0.929 1_545 S
C228 C227 1.383 . S
C228 C229 1.377 . S
C229 H213 0.930 . S
C229 C228 1.377 . S
C229 C230 1.379 . S
C230 H214 0.931 . S
C230 C224 1.383 . S
C230 C229 1.379 . S
H231 C225 0.959 . S
H232 C225 0.961 . S
H233 C225 0.960 . S
H234 C226 0.930 1_565 S
H235 C227 0.929 1_565 S
H236 C244 0.929 1_655 S
H237 C246 0.930 1_655 S
H238 C248 0.930 . S
H239 C251 0.929 . S
H240 C254 0.930 . S
H241 C256 0.960 . S
H242 C256 0.960 . S
H243 C256 0.960 . S
C244 H236 0.929 1_455 S
C244 C245 1.377 . S
C244 C246 1.384 . S
C245 C244 1.377 . S
C245 C251 1.390 . S
C246 H237 0.930 1_455 S
C246 C244 1.384 . S
C246 C247 1.372 . S
C247 C246 1.372 . S
C247 C248 1.400 . S
C247 C252 1.490 . S
C248 H238 0.930 . S
C248 C247 1.400 . S
C248 C251 1.386 . S
H249 C265 0.930 . S
H250 C266 0.931 . S
C251 H239 0.929 . S
C251 C245 1.390 . S
C251 C248 1.386 . S
C252 C247 1.490 . S
C252 C254 1.395 1_545 S
C252 C255 1.403 . S
H253 C259 0.930 . S
C254 H240 0.930 . S
C254 C252 1.395 1_565 S
C254 C257 1.403 . S
C255 C252 1.403 . S
C255 C256 1.524 . S
C255 C259 1.400 . S
C256 H241 0.960 . S
C256 H242 0.960 . S
C256 H243 0.960 . S
C256 C255 1.524 . S
C257 C254 1.403 . S
C257 C258 1.392 1_565 S
C257 C261 1.495 . S
C258 C257 1.392 1_545 S
C258 C259 1.385 . S
C258 C260 1.478 . S
C259 H253 0.930 . S
C259 C255 1.400 . S
C259 C258 1.385 . S
C260 C258 1.478 . S
C260 C262 1.381 . S
C260 C266 1.383 . S
C261 C257 1.495 . S
C261 H267 0.959 . S
C261 H268 0.961 . S
C261 H269 0.960 . S
C262 C260 1.381 . S
C262 C263 1.394 . S
C262 H270 0.930 1_455 S
C263 C262 1.394 . S
C263 C264 1.383 . S
C263 H271 0.929 1_455 S
C264 C263 1.383 . S
C264 C265 1.377 . S
C265 H249 0.930 . S
C265 C264 1.377 . S
C265 C266 1.379 . S
C266 H250 0.931 . S
C266 C260 1.383 . S
C266 C265 1.379 . S
H267 C261 0.959 . S
H268 C261 0.961 . S
H269 C261 0.960 . S
H270 C262 0.930 1_655 S
H271 C263 0.929 1_655 S
H272 C280 0.929 . S
H273 C282 0.930 . S
H274 C284 0.930 1_565 S
H275 C287 0.935 . S
H276 C290 0.930 . S
H277 C292 0.960 . S
H278 C292 0.960 1_545 S
H279 C292 0.960 . S
C280 H272 0.929 . S
C280 C281 1.377 . S
C280 C282 1.384 . S
C281 C280 1.377 . S
C281 C287 1.385 1_545 S
C282 H273 0.930 . S
C282 C280 1.384 . S
C282 C283 1.372 . S
C283 C282 1.372 . S
C283 C284 1.400 . S
C283 C288 1.490 . S
C284 H274 0.930 1_545 S
C284 C283 1.400 . S
C284 C287 1.385 1_545 S
H285 C301 0.930 1_565 S
H286 C302 0.931 1_565 S
C287 H275 0.935 . S
C287 C281 1.385 1_565 S
C287 C284 1.385 1_565 S
C288 C283 1.490 . S
C288 C290 1.395 . S
C288 C291 1.403 . S
H289 C295 0.930 1_655 S
C290 H276 0.930 . S
C290 C288 1.395 . S
C290 C293 1.403 . S
C291 C288 1.403 . S
C291 C292 1.524 1_445 S
C291 C295 1.400 . S
C292 H277 0.960 . S
C292 H278 0.960 1_565 S
C292 H279 0.960 . S
C292 C291 1.524 1_665 S
C293 C290 1.403 . S
C293 C294 1.392 . S
C293 C297 1.495 . S
C294 C293 1.392 . S
C294 C295 1.385 . S
C294 C296 1.478 . S
C295 H289 0.930 1_455 S
C295 C291 1.400 . S
C295 C294 1.385 . S
C296 C294 1.478 . S
C296 C298 1.381 . S
C296 C302 1.383 . S
C297 C293 1.495 . S
C297 H303 0.959 . S
C297 H304 0.961 . S
C297 H305 0.960 . S
C298 C296 1.381 . S
C298 C299 1.394 . S
C298 H306 0.930 . S
C299 C298 1.394 . S
C299 C300 1.383 . S
C299 H307 0.929 . S
C300 C299 1.383 . S
C300 C301 1.377 . S
C301 H285 0.930 1_545 S
C301 C300 1.377 . S
C301 C302 1.379 . S
C302 H286 0.931 1_545 S
C302 C296 1.383 . S
C302 C301 1.379 . S
H303 C297 0.959 . S
H304 C297 0.961 . S
H305 C297 0.960 . S
H306 C298 0.930 . S
H307 C299 0.929 . S
H308 C316 0.929 . S
H309 C318 0.930 . S
H310 C320 0.930 1_655 S
H311 C323 0.929 1_655 S
H312 C326 0.930 . S
H313 C328 0.960 . S
H314 C328 0.960 . S
H315 C328 0.960 . S
C316 H308 0.929 . S
C316 C317 1.377 . S
C316 C318 1.384 . S
C317 C316 1.377 . S
C317 C323 1.390 . S
C318 H309 0.930 . S
C318 C316 1.384 . S
C318 C319 1.372 . S
C319 C318 1.372 . S
C319 C320 1.400 . S
C319 C324 1.490 . S
C320 H310 0.930 1_455 S
C320 C319 1.400 . S
C320 C323 1.386 . S
H321 C337 0.930 1_655 S
H322 C338 0.931 1_655 S
C323 H311 0.929 1_455 S
C323 C317 1.390 . S
C323 C320 1.386 . S
C324 C319 1.490 . S
C324 C326 1.395 . S
C324 C327 1.403 . S
H325 C331 0.930 1_565 S
C326 H312 0.930 . S
C326 C324 1.395 . S
C326 C329 1.403 . S
C327 C324 1.403 . S
C327 C328 1.524 1_545 S
C327 C331 1.400 . S
C328 H313 0.960 . S
C328 H314 0.960 . S
C328 H315 0.960 . S
C328 C327 1.524 1_565 S
C329 C326 1.403 . S
C329 C330 1.392 . S
C329 C333 1.495 . S
C330 C329 1.392 . S
C330 C331 1.385 . S
C330 C332 1.478 . S
C331 H325 0.930 1_545 S
C331 C327 1.400 . S
C331 C330 1.385 . S
C332 C330 1.478 . S
C332 C334 1.381 . S
C332 C338 1.383 . S
C333 C329 1.495 . S
C333 H339 0.959 . S
C333 H340 0.961 . S
C333 H341 0.960 . S
C334 C332 1.381 . S
C334 C335 1.394 . S
C334 H342 0.930 . S
C335 C334 1.394 . S
C335 C336 1.383 . S
C335 H343 0.929 . S
C336 C335 1.383 . S
C336 C337 1.377 . S
C337 H321 0.930 1_455 S
C337 C336 1.377 . S
C337 C338 1.379 . S
C338 H322 0.931 1_455 S
C338 C332 1.383 . S
C338 C337 1.379 . S
H339 C333 0.959 . S
H340 C333 0.961 . S
H341 C333 0.960 . S
H342 C334 0.930 . S
H343 C335 0.929 . S
C65 C0 1.499 . S
C84 C1 1.494 . S
C101 C14 1.499 . S
C120 C15 1.498 . S
C137 C28 1.497 . S
C156 C29 1.495 . S
C173 C42 1.498 . S
C192 C43 1.490 . S
C209 C40 1.498 . S
C228 C13 1.491 . S
C245 C54 1.499 . S
C264 C27 1.495 . S
C281 C55 1.498 . S
C300 C12 1.493 . S
C317 C26 1.498 . S
C336 C41 1.500 . S
