# Generated by pormake.
# Topology unj, (4)-cn, num edge types: 1
# Building blocks:
#     Node 0, Type 0, BuildingBlock: KUFVIS_clean_sbu_0, # of connection points: 4
#     Node 1, Type 0, BuildingBlock: KUFVIS_clean_sbu_0, # of connection points: 4
#     Node 2, Type 0, BuildingBlock: KUFVIS_clean_sbu_0, # of connection points: 4
#     Node 3, Type 0, BuildingBlock: KUFVIS_clean_sbu_0, # of connection points: 4
#     Node 4, Type 0, BuildingBlock: KUFVIS_clean_sbu_0, # of connection points: 4
#     Node 5, Type 0, BuildingBlock: KUFVIS_clean_sbu_0, # of connection points: 4
#     Edge 6, Type (0, 0), BuildingBlock: FUNLAD_clean_linker_1, # of connection points: 2
#     Edge 7, Type (0, 0), BuildingBlock: FUNLAD_clean_linker_1, # of connection points: 2
#     Edge 8, Type (0, 0), BuildingBlock: FUNLAD_clean_linker_1, # of connection points: 2
#     Edge 9, Type (0, 0), BuildingBlock: FUNLAD_clean_linker_1, # of connection points: 2
#     Edge 10, Type (0, 0), BuildingBlock: FUNLAD_clean_linker_1, # of connection points: 2
#     Edge 11, Type (0, 0), BuildingBlock: FUNLAD_clean_linker_1, # of connection points: 2
#     Edge 12, Type (0, 0), BuildingBlock: FUNLAD_clean_linker_1, # of connection points: 2
#     Edge 13, Type (0, 0), BuildingBlock: FUNLAD_clean_linker_1, # of connection points: 2
#     Edge 14, Type (0, 0), BuildingBlock: FUNLAD_clean_linker_1, # of connection points: 2
#     Edge 15, Type (0, 0), BuildingBlock: FUNLAD_clean_linker_1, # of connection points: 2
#     Edge 16, Type (0, 0), BuildingBlock: FUNLAD_clean_linker_1, # of connection points: 2
#     Edge 17, Type (0, 0), BuildingBlock: FUNLAD_clean_linker_1, # of connection points: 2
# Relax obj value: 0.012
# Max RMSD: 0.052
# Mean RMSD: 0.052
data_MOF--net-unj--node1-KUFVIS_clean_sbu_0--edge1-FUNLAD_clean_linker_1
_symmetry_space_group_name_H-M    P1
_symmetry_Int_Tables_number       1
_symmetry_cell_setting            triclinic
loop_
_symmetry_equiv_pos_as_xyz
'x, y, z'
_cell_length_a     33.745389
_cell_length_b     34.103047
_cell_length_c     36.333438
_cell_angle_alpha  89.678296
_cell_angle_beta   90.165063
_cell_angle_gamma 120.12108
loop_
_atom_site_label
_atom_site_type_symbol
_atom_site_fract_x
_atom_site_fract_y
_atom_site_fract_z
_atom_type_partial_charge
Mn0 Mn 0.51033 0.24971 0.60824 0.0
Mn1 Mn 0.61308 0.26027 0.58797 0.0
C2 C 0.55151 0.23723 0.6532 0.0
C3 C 0.46706 0.28243 0.62596 0.0
C4 C 0.52245 0.17891 0.56588 0.0
O5 O 0.52812 0.28589 0.56028 0.0
O6 O 0.59821 0.29434 0.55144 0.0
C7 C 0.67119 0.35847 0.60276 0.0
N8 N 0.66049 0.31489 0.60944 0.0
C9 C 0.72144 0.33915 0.65373 0.0
C10 C 0.73329 0.3843 0.64715 0.0
C11 C 0.708 0.39398 0.62159 0.0
C12 C 0.68452 0.30521 0.63404 0.0
H13 H 0.65173 0.36606 0.58327 0.0
C14 C 0.56568 0.30155 0.54261 0.0
O15 O 0.44887 0.24479 0.60764 0.0
O16 O 0.51026 0.30107 0.63396 0.0
N17 N 0.63238 0.22953 0.62139 0.0
C18 C 0.61576 0.18416 0.6253 0.0
C19 C 0.63779 0.16881 0.64933 0.0
C20 C 0.67638 0.2002 0.66931 0.0
C21 C 0.69263 0.24668 0.66507 0.0
C22 C 0.67011 0.26003 0.63991 0.0
H23 H 0.5862 0.15986 0.60995 0.0
O24 O 0.50766 0.22054 0.65702 0.0
O25 O 0.56958 0.26053 0.62343 0.0
O26 O 0.49663 0.19159 0.58102 0.0
O27 O 0.56615 0.20255 0.5658 0.0
C28 C 0.73015 0.28026 0.68495 0.0
C29 C 0.74444 0.32646 0.67938 0.0
H30 H 0.76155 0.41178 0.66171 0.0
H31 H 0.71682 0.42872 0.61647 0.0
H32 H 0.62498 0.13284 0.65252 0.0
H33 H 0.69316 0.18825 0.68796 0.0
H34 H 0.748 0.27089 0.70481 0.0
H35 H 0.77307 0.35196 0.69506 0.0
Mn36 Mn 0.27889 0.495 0.77079 0.0
Mn37 Mn 0.37728 0.59101 0.74774 0.0
C38 C 0.33628 0.5297 0.81457 0.0
C39 C 0.20316 0.45521 0.79154 0.0
C40 C 0.35647 0.49742 0.72505 0.0
O41 O 0.26049 0.51689 0.72496 0.0
O42 O 0.32743 0.58028 0.71266 0.0
C43 C 0.34688 0.65705 0.76316 0.0
N44 N 0.37793 0.64304 0.76772 0.0
C45 C 0.42592 0.70766 0.80539 0.0
C46 C 0.39458 0.72293 0.80093 0.0
C47 C 0.35486 0.69746 0.77977 0.0
C48 C 0.41635 0.66735 0.78791 0.0
H49 H 0.31622 0.63745 0.74706 0.0
C50 C 0.28519 0.55233 0.70578 0.0
O51 O 0.21993 0.43665 0.77045 0.0
O52 O 0.23004 0.49745 0.80026 0.0
N53 N 0.42926 0.60716 0.77857 0.0
C54 C 0.45438 0.58616 0.78217 0.0
C55 C 0.4954 0.60723 0.80237 0.0
C56 C 0.50985 0.64938 0.81904 0.0
C57 C 0.48339 0.6703 0.815 0.0
C58 C 0.44377 0.64849 0.79339 0.0
H59 H 0.44348 0.5538 0.7694 0.0
O60 O 0.30593 0.48694 0.81679 0.0
O61 O 0.33279 0.55168 0.7862 0.0
O62 O 0.31722 0.47584 0.74022 0.0
O63 O 0.38153 0.5404 0.72591 0.0
C64 C 0.49443 0.71161 0.83197 0.0
C65 C 0.46553 0.7301 0.8274 0.0
H66 H 0.40035 0.75382 0.81402 0.0
H67 H 0.33037 0.70888 0.7764 0.0
H68 H 0.51557 0.59081 0.80546 0.0
H69 H 0.54098 0.66504 0.83527 0.0
H70 H 0.52465 0.72906 0.84911 0.0
H71 H 0.47382 0.76134 0.84126 0.0
Mn72 Mn 0.79799 0.26968 0.94472 0.0
Mn73 Mn 0.80773 0.36719 0.91147 0.0
C74 C 0.82103 0.33075 0.98385 0.0
C75 C 0.74999 0.19713 0.9687 0.0
C76 C 0.8782 0.33853 0.89739 0.0
O77 O 0.763 0.25049 0.89647 0.0
O78 O 0.76619 0.31561 0.87951 0.0
C79 C 0.7123 0.34554 0.92457 0.0
N80 N 0.75815 0.37374 0.9293 0.0
C81 C 0.74531 0.42564 0.96485 0.0
C82 C 0.69797 0.39735 0.96012 0.0
C83 C 0.6814 0.35712 0.9399 0.0
C84 C 0.77449 0.4127 0.94846 0.0
H85 H 0.6994 0.31439 0.90932 0.0
C86 C 0.75227 0.27343 0.87518 0.0
O87 O 0.78793 0.20697 0.952 0.0
O88 O 0.74042 0.22926 0.97178 0.0
N89 N 0.84631 0.42036 0.93945 0.0
C90 C 0.89242 0.44114 0.94494 0.0
C91 C 0.91428 0.48095 0.96592 0.0
C92 C 0.88854 0.49894 0.98104 0.0
C93 C 0.84112 0.47698 0.975 0.0
C94 C 0.82133 0.43796 0.95316 0.0
H95 H 0.91231 0.42726 0.93364 0.0
O96 O 0.82865 0.29806 0.99226 0.0
O97 O 0.79978 0.32643 0.95286 0.0
O98 O 0.85985 0.30227 0.91698 0.0
O99 O 0.86058 0.36371 0.89261 0.0
C100 C 0.81248 0.49115 0.99111 0.0
C101 C 0.76462 0.46552 0.98601 0.0
H102 H 0.674 0.40586 0.9723 0.0
H103 H 0.6449 0.33495 0.93633 0.0
H104 H 0.95084 0.49756 0.97066 0.0
H105 H 0.90542 0.52919 0.99776 0.0
H106 H 0.82681 0.52114 1.00818 0.0
H107 H 0.74289 0.47628 0.99914 0.0
Mn108 Mn 0.56435 0.78508 0.10736 0.0
Mn109 Mn 0.47179 0.7935 0.08423 0.0
C110 C 0.52432 0.79956 0.15231 0.0
C111 C 0.59892 0.74291 0.12366 0.0
C112 C 0.56986 0.86654 0.06766 0.0
O113 O 0.54703 0.75626 0.05595 0.0
O114 O 0.48005 0.75512 0.04786 0.0
C115 C 0.40011 0.69785 0.09698 0.0
N116 N 0.41746 0.74281 0.1036 0.0
C117 C 0.35548 0.727 0.14489 0.0
C118 C 0.3365 0.68057 0.13795 0.0
C119 C 0.35904 0.66594 0.11401 0.0
C120 C 0.39638 0.75721 0.12697 0.0
H121 H 0.41772 0.68643 0.07912 0.0
C122 C 0.50984 0.74434 0.03828 0.0
O123 O 0.62166 0.78217 0.10782 0.0
O124 O 0.55552 0.7273 0.12952 0.0
N125 N 0.45924 0.82926 0.11749 0.0
C126 C 0.4831 0.87501 0.12254 0.0
C127 C 0.465 0.8952 0.14542 0.0
C128 C 0.42275 0.86816 0.16307 0.0
C129 C 0.39914 0.82115 0.1579 0.0
C130 C 0.41816 0.80309 0.13388 0.0
H131 H 0.5154 0.89605 0.10884 0.0
O132 O 0.56626 0.80934 0.15832 0.0
O133 O 0.50747 0.78162 0.12064 0.0
O134 O 0.58878 0.8478 0.08496 0.0
O135 O 0.52644 0.84836 0.06382 0.0
C136 C 0.35756 0.79149 0.17573 0.0
C137 C 0.33588 0.74441 0.16939 0.0
H138 H 0.30495 0.65584 0.1512 0.0
H139 H 0.34491 0.63013 0.10886 0.0
H140 H 0.48355 0.93152 0.14947 0.0
H141 H 0.40888 0.88382 0.18073 0.0
H142 H 0.34225 0.80449 0.1947 0.0
H143 H 0.30426 0.72188 0.18366 0.0
Mn144 Mn 0.78398 0.52748 0.27517 0.0
Mn145 Mn 0.67929 0.43572 0.26076 0.0
C146 C 0.72983 0.5023 0.32188 0.0
C147 C 0.86032 0.55398 0.29186 0.0
C148 C 0.70835 0.52972 0.23043 0.0
O149 O 0.79203 0.50002 0.22791 0.0
O150 O 0.72463 0.43447 0.22712 0.0
C151 C 0.70119 0.36663 0.28766 0.0
N152 N 0.67453 0.38612 0.28914 0.0
C153 C 0.62856 0.33543 0.33764 0.0
C154 C 0.65514 0.31443 0.33631 0.0
C155 C 0.69177 0.33027 0.31134 0.0
C156 C 0.63968 0.37162 0.31345 0.0
H157 H 0.72956 0.37888 0.26866 0.0
C158 C 0.765 0.46075 0.21491 0.0
O159 O 0.84904 0.57881 0.27212 0.0
O160 O 0.82769 0.51414 0.30135 0.0
N161 N 0.63101 0.43107 0.29127 0.0
C162 C 0.60966 0.45602 0.28999 0.0
C163 C 0.57308 0.44538 0.31407 0.0
C164 C 0.55829 0.40877 0.33871 0.0
C165 C 0.57998 0.38286 0.33887 0.0
C166 C 0.61614 0.39493 0.31417 0.0
H167 H 0.62072 0.48409 0.27104 0.0
O168 O 0.76601 0.5422 0.32364 0.0
O169 O 0.72758 0.47794 0.29376 0.0
O170 O 0.74743 0.55127 0.24649 0.0
O171 O 0.682 0.4866 0.23201 0.0
C172 C 0.56757 0.34595 0.36294 0.0
C173 C 0.5919 0.32231 0.36238 0.0
H174 H 0.64809 0.2865 0.35464 0.0
H175 H 0.71276 0.31455 0.31043 0.0
H176 H 0.55633 0.46538 0.31365 0.0
H177 H 0.53032 0.40093 0.35744 0.0
H178 H 0.53978 0.33587 0.38237 0.0
H179 H 0.58253 0.29447 0.38143 0.0
Mn180 Mn 0.27439 0.78131 0.43893 0.0
Mn181 Mn 0.26596 0.68463 0.40636 0.0
C182 C 0.25524 0.72046 0.4784 0.0
C183 C 0.31547 0.85466 0.46232 0.0
C184 C 0.19377 0.71099 0.39285 0.0
O185 O 0.31028 0.80177 0.3907 0.0
O186 O 0.30479 0.73595 0.37281 0.0
C187 C 0.36276 0.70827 0.41511 0.0
N188 N 0.31752 0.68026 0.42273 0.0
C189 C 0.33407 0.63057 0.45847 0.0
C190 C 0.38083 0.65885 0.45097 0.0
C191 C 0.39522 0.69788 0.42921 0.0
C192 C 0.30331 0.64264 0.44363 0.0
H193 H 0.37403 0.73827 0.39837 0.0
C194 C 0.31964 0.77845 0.36873 0.0
O195 O 0.27746 0.84055 0.44452 0.0
O196 O 0.33015 0.82622 0.46672 0.0
N197 N 0.2301 0.63233 0.43647 0.0
C198 C 0.18389 0.60913 0.44178 0.0
C199 C 0.16385 0.56868 0.4623 0.0
C200 C 0.19152 0.5526 0.4772 0.0
C201 C 0.23902 0.57734 0.4718 0.0
C202 C 0.25695 0.61689 0.45045 0.0
H203 H 0.16241 0.62114 0.43014 0.0
O204 O 0.24423 0.75085 0.48653 0.0
O205 O 0.27645 0.72637 0.44731 0.0
O206 O 0.21346 0.74742 0.4114 0.0
O207 O 0.21056 0.68509 0.38848 0.0
C208 C 0.26928 0.56434 0.4868 0.0
C209 C 0.31679 0.59102 0.48024 0.0
H210 H 0.40598 0.65098 0.46182 0.0
H211 H 0.43125 0.71988 0.42329 0.0
H212 H 0.12717 0.54989 0.46658 0.0
H213 H 0.17595 0.52131 0.49291 0.0
H214 H 0.2564 0.53402 0.50359 0.0
H215 H 0.33975 0.58083 0.4921 0.0
H216 H 0.5243 0.12498 0.534 0.0
C217 C 0.50166 0.13385 0.54835 0.0
H218 H 0.43404 0.11015 0.56683 0.0
H219 H 0.40865 0.96495 0.43359 0.0
H220 H 0.43393 0.02884 0.39184 0.0
H221 H 0.45989 0.10564 0.41552 0.0
H222 H 0.46151 0.11914 0.48108 0.0
C223 C 0.45687 0.10287 0.55103 0.0
C224 C 0.43834 0.05616 0.53622 0.0
C225 C 0.43608 0.04862 0.4977 0.0
C226 C 0.41909 1.00397 0.48396 0.0
C227 C 0.41941 0.99781 0.44547 0.0
C228 C 0.43415 0.03425 0.42119 0.0
C229 C 0.44893 0.07751 0.43452 0.0
C230 C 0.44993 0.08482 0.47228 0.0
H231 H 0.32462 0.92232 0.4716 0.0
C232 C 0.34012 0.90145 0.47641 0.0
H233 H 0.39565 0.89863 0.50057 0.0
H234 H 0.43935 0.05884 0.61153 0.0
H235 H 0.41238 0.99464 0.65317 0.0
H236 H 0.3803 0.91696 0.62928 0.0
H237 H 0.37526 0.903 0.56358 0.0
C238 C 0.38022 0.91925 0.49442 0.0
C239 C 0.40246 0.9666 0.50867 0.0
C240 C 0.40511 0.97421 0.54715 0.0
C241 C 0.42307 1.01898 0.56092 0.0
C242 C 0.42555 0.02553 0.59952 0.0
C243 C 0.41026 0.98898 0.62376 0.0
C244 C 0.39223 0.94525 0.61031 0.0
C245 C 0.38956 0.93772 0.57251 0.0
H246 H 0.40331 0.28551 0.62996 0.0
C247 C 0.43946 0.30295 0.6371 0.0
H248 H 0.49356 0.35905 0.66405 0.0
H249 H 0.34738 0.43318 0.63819 0.0
H250 H 0.36242 0.43238 0.57301 0.0
H251 H 0.40944 0.40056 0.55091 0.0
H252 H 0.44111 0.36874 0.59372 0.0
C253 C 0.45779 0.34214 0.65577 0.0
C254 C 0.42955 0.36177 0.66861 0.0
C255 C 0.41223 0.38125 0.6432 0.0
C256 C 0.38654 0.40116 0.65605 0.0
C257 C 0.36831 0.41893 0.63002 0.0
C258 C 0.37648 0.41848 0.59251 0.0
C259 C 0.40284 0.40044 0.58006 0.0
C260 C 0.42064 0.38205 0.60496 0.0
H261 H 0.4088 0.49129 0.69342 0.0
C262 C 0.37565 0.47195 0.70684 0.0
H263 H 0.32348 0.40665 0.72317 0.0
H264 H 0.45676 0.32643 0.72452 0.0
H265 H 0.44332 0.32898 0.78976 0.0
H266 H 0.40074 0.36545 0.81215 0.0
H267 H 0.37117 0.39943 0.76944 0.0
C268 C 0.35551 0.42651 0.70837 0.0
C269 C 0.37946 0.40287 0.69434 0.0
C270 C 0.39641 0.38304 0.71969 0.0
C271 C 0.42147 0.3625 0.70681 0.0
C272 C 0.43795 0.34292 0.73278 0.0
C273 C 0.4304 0.34406 0.77033 0.0
C274 C 0.40639 0.36455 0.78293 0.0
C275 C 0.38955 0.38388 0.75807 0.0
H276 H 0.93569 0.38465 0.86212 0.0
C277 C 0.92321 0.35483 0.87972 0.0
H278 H 0.94026 0.30919 0.90475 0.0
H279 H 0.08737 0.42328 0.76578 0.0
H280 H 1.02221 0.38197 0.72545 0.0
H281 H 0.94581 0.3287 0.75073 0.0
H282 H 0.93401 0.31739 0.81668 0.0
C283 C 0.95065 0.33749 0.88585 0.0
C284 C 0.99815 0.36094 0.87036 0.0
C285 C 1.00519 0.36506 0.8317 0.0
C286 C 0.04984 0.3937 0.81706 0.0
C287 C 0.05487 0.40011 0.77843 0.0
C288 C 1.0176 0.3769 0.75491 0.0
C289 C 0.97455 0.34708 0.76915 0.0
C290 C 0.9682 0.34114 0.80705 0.0
H291 H 0.13678 0.39237 0.79804 0.0
C292 C 0.15571 0.42808 0.80527 0.0
H293 H 0.1544 0.48057 0.83462 0.0
H294 H 0.99724 0.35897 0.9457 0.0
H295 H 0.06299 0.39663 0.98613 0.0
H296 H 0.14095 0.44261 0.96082 0.0
H297 H 0.15362 0.45166 0.89494 0.0
C298 C 0.13538 0.44529 0.8262 0.0
C299 C 0.08807 0.41591 0.84109 0.0
C300 C 0.08126 0.41011 0.87973 0.0
C301 C 0.03631 0.38284 0.89435 0.0
C302 C 1.03057 0.37879 0.93306 0.0
C303 C 0.06805 0.40025 0.95662 0.0
C304 C 0.11193 0.42617 0.94237 0.0
C305 C 0.11868 0.43115 0.90445 0.0
H306 H 0.63733 0.92694 0.05803 0.0
C307 C 0.6009 0.91222 0.05248 0.0
H308 H 0.55092 0.92258 0.02602 0.0
H309 H 0.73001 0.13008 0.05156 0.0
H310 H 0.707 0.11711 0.11562 0.0
H311 H 0.64325 0.04328 0.13634 0.0
H312 H 0.60272 0.98171 0.09318 0.0
C313 C 0.58682 0.93662 0.03307 0.0
C314 C 0.62083 0.983 0.01967 0.0
C315 C 0.64288 1.01932 0.04492 0.0
C316 C 0.67817 0.0626 0.03261 0.0
C317 C 0.70153 0.09723 0.05896 0.0
C318 C 0.68894 0.09012 0.09594 0.0
C319 C 0.65317 0.0485 0.10763 0.0
C320 C 0.63035 1.01338 0.08258 0.0
H321 H 0.68646 0.14653 0.99598 0.0
C322 C 0.71774 0.15146 0.9832 0.0
H323 H 0.75522 0.1201 0.9672 0.0
H324 H 0.58515 0.92097 0.9642 0.0
H325 H 0.6063 0.93437 0.89963 0.0
H326 H 0.66529 1.01005 0.87775 0.0
H327 H 0.70378 0.07273 0.92025 0.0
C328 C 0.72493 0.1162 0.98102 0.0
C329 C 0.68987 0.07021 0.99467 0.0
C330 C 0.66736 0.03396 0.96938 0.0
C331 C 0.63288 0.99037 0.98191 0.0
C332 C 0.61135 0.95476 0.95611 0.0
C333 C 0.62314 0.96199 0.91897 0.0
C334 C 0.65639 1.0046 0.90666 0.0
C335 C 0.67828 0.04029 0.9314 0.0
H336 H 0.6589 0.53531 0.19434 0.0
C337 C 0.69016 0.55501 0.21016 0.0
H338 H 0.73685 0.61995 0.23076 0.0
H339 H 0.62363 0.6541 0.09331 0.0
H340 H 0.66353 0.62922 0.05275 0.0
H341 H 0.7136 0.60217 0.07789 0.0
H342 H 0.72342 0.59911 0.14382 0.0
C343 C 0.70734 0.59992 0.21326 0.0
C344 C 0.68197 0.62163 0.19766 0.0
C345 C 0.67802 0.62495 0.15903 0.0
C346 C 0.65074 0.64248 0.1445 0.0
C347 C 0.64539 0.64292 0.10585 0.0
C348 C 0.66784 0.6284 0.08223 0.0
C349 C 0.6959 0.61301 0.09638 0.0
C350 C 0.70104 0.6112 0.13429 0.0
H351 H 0.65934 0.73483 0.12983 0.0
C352 C 0.62283 0.71867 0.13543 0.0
H353 H 0.56604 0.66342 0.16093 0.0
H354 H 0.68202 0.61983 0.27303 0.0
H355 H 0.64408 0.64686 0.31362 0.0
H356 H 0.59946 0.68014 0.2885 0.0
H357 H 0.59216 0.68624 0.22264 0.0
C358 C 0.6021 0.67907 0.15381 0.0
C359 C 0.62897 0.65851 0.16861 0.0
C360 C 0.6334 0.65567 0.20725 0.0
C361 C 0.6598 0.63715 0.22176 0.0
C362 C 0.66291 0.63408 0.26046 0.0
C363 C 0.64125 0.64942 0.28412 0.0
C364 C 0.61609 0.66811 0.26998 0.0
C365 C 0.61212 0.67133 0.23206 0.0
H366 H 0.13493 0.72069 0.3817 0.0
C367 C 0.14855 0.69828 0.37673 0.0
H368 H 0.13648 0.63772 0.35113 0.0
H369 H 0.92781 0.61181 0.36961 0.0
H370 H 0.93962 0.60865 0.43512 0.0
H371 H 1.01363 0.62149 0.45912 0.0
H372 H 0.07656 0.63857 0.41782 0.0
C373 C 0.12319 0.66008 0.3574 0.0
C374 C 0.07702 0.6482 0.34283 0.0
C375 C 0.03986 0.63623 0.36726 0.0
C376 C 0.99635 0.62637 0.35325 0.0
C377 C 0.96085 0.61741 0.37852 0.0
C378 C 0.96727 0.61586 0.41626 0.0
C379 C 1.00899 0.62328 0.42979 0.0
C380 C 0.04496 0.63336 0.40574 0.0
H381 H 0.9135 0.54535 0.3195 0.0
C382 C 0.90761 0.56955 0.30435 0.0
H383 H 0.93785 0.63656 0.28391 0.0
H384 H 0.14073 0.67007 0.2885 0.0
H385 H 0.12816 0.67055 0.22275 0.0
H386 H 0.05197 0.65027 0.19832 0.0
H387 H 0.9879 0.62968 0.23946 0.0
C388 C 0.94265 0.61204 0.2996 0.0
C389 C 0.98921 0.62598 0.31465 0.0
C390 C 1.02632 0.63778 0.29026 0.0
C391 C 0.07021 0.64894 0.30435 0.0
C392 C 0.10664 0.6609 0.2793 0.0
C393 C 0.09991 0.66136 0.24149 0.0
C394 C 0.05702 0.64998 0.22773 0.0
C395 C 1.02053 0.63826 0.25168 0.0
H396 H 0.58611 0.3692 0.5217 0.0
C397 C 0.57585 0.33488 0.51325 0.0
H398 H 0.5748 0.29222 0.4717 0.0
H399 H 0.66083 0.50747 0.407 0.0
H400 H 0.58976 0.50299 0.42591 0.0
H401 H 0.52841 0.43366 0.45532 0.0
H402 H 0.53868 0.36925 0.4674 0.0
C403 C 0.58441 0.32675 0.47897 0.0
C404 C 0.61607 0.3645 0.45405 0.0
C405 C 0.6081 0.40049 0.44487 0.0
C406 C 0.64173 0.43883 0.42496 0.0
C407 C 0.63503 0.47627 0.41969 0.0
C408 C 0.59459 0.47431 0.43073 0.0
C409 C 0.56018 0.4354 0.44748 0.0
C410 C 0.5667 0.39886 0.4546 0.0
H411 H 0.66274 0.47005 0.34957 0.0
C412 C 0.69876 0.48331 0.35341 0.0
H413 H 0.75005 0.48947 0.38942 0.0
H414 H 0.64407 0.30241 0.46776 0.0
H415 H 0.70902 0.30187 0.44099 0.0
H416 H 0.7608 0.36241 0.39837 0.0
H417 H 0.74861 0.42445 0.3833 0.0
C418 C 0.7135 0.4757 0.38544 0.0
C419 C 0.6809 0.43893 0.41065 0.0
C420 C 0.68744 0.40158 0.41786 0.0
C421 C 0.65595 0.3652 0.44063 0.0
C422 C 0.6653 0.33 0.44933 0.0
C423 C 0.70283 0.32931 0.43431 0.0
C424 C 0.73209 0.36348 0.41049 0.0
C425 C 0.72473 0.39922 0.40228 0.0
H426 H 0.27935 0.67729 0.50338 0.0
C427 C 0.25568 0.68968 0.50698 0.0
H428 H 0.2106 0.69472 0.54452 0.0
H429 H 0.2133 0.52049 0.61895 0.0
H430 H 0.14117 0.48028 0.58626 0.0
H431 H 0.11412 0.5215 0.54715 0.0
H432 H 0.1605 0.6032 0.53903 0.0
C433 C 0.23355 0.68172 0.53925 0.0
C434 C 0.24392 0.65866 0.56969 0.0
C435 C 0.21551 0.61154 0.57584 0.0
C436 C 0.22965 0.58826 0.60056 0.0
C437 C 0.20284 0.54043 0.60281 0.0
C438 C 0.16153 0.51681 0.5838 0.0
C439 C 0.14635 0.53999 0.5617 0.0
C440 C 0.17324 0.58676 0.55722 0.0
H441 H 0.22739 0.5549 0.67938 0.0
C442 C 0.26312 0.56447 0.67609 0.0
H443 H 0.32306 0.59906 0.6445 0.0
H444 H 0.3032 0.75008 0.56755 0.0
H445 H 0.37108 0.79234 0.60512 0.0
H446 H 0.39274 0.75354 0.65167 0.0
H447 H 0.34722 0.67241 0.66057 0.0
C448 C 0.28737 0.59004 0.64714 0.0
C449 C 0.27046 0.61302 0.62153 0.0
C450 C 0.29696 0.66094 0.61737 0.0
C451 C 0.28405 0.68357 0.59106 0.0
C452 C 0.31161 0.73121 0.587 0.0
C453 C 0.35054 0.75594 0.60852 0.0
C454 C 0.36274 0.73409 0.63469 0.0
C455 C 0.33637 0.68728 0.63929 0.0
H456 H 0.6913 0.21401 0.8523 0.0
C457 C 0.71746 0.24891 0.84669 0.0
H458 H 0.74115 0.3052 0.81142 0.0
H459 H 0.56684 0.13682 0.71816 0.0
H460 H 0.60359 0.09162 0.72661 0.0
H461 H 0.67464 0.12087 0.76301 0.0
H462 H 0.70839 0.19443 0.79222 0.0
C463 C 0.71476 0.27018 0.81642 0.0
C464 C 0.6726 0.25135 0.79338 0.0
C465 C 0.6551 0.20929 0.77477 0.0
C466 C 0.61566 0.19349 0.75197 0.0
C467 C 0.59729 0.15057 0.73511 0.0
C468 C 0.61801 0.12437 0.73977 0.0
C469 C 0.65795 0.1408 0.76034 0.0
C470 C 0.67672 0.18296 0.77734 0.0
H471 H 0.61473 0.26883 0.68533 0.0
C472 C 0.58024 0.24 0.68458 0.0
H473 H 0.5306 0.18261 0.7141 0.0
H474 H 0.69179 0.32941 0.83001 0.0
H475 H 0.65281 0.3722 0.82266 0.0
H476 H 0.58711 0.34628 0.78035 0.0
H477 H 0.55985 0.27693 0.74541 0.0
C478 C 0.56494 0.21193 0.71369 0.0
C479 C 0.5963 0.22128 0.74549 0.0
C480 C 0.61174 0.26165 0.76588 0.0
C481 C 0.64973 0.27661 0.79 0.0
C482 C 0.66383 0.3168 0.8105 0.0
C483 C 0.64153 0.34163 0.80677 0.0
C484 C 0.60456 0.32705 0.78296 0.0
C485 C 0.58955 0.28745 0.76283 0.0
H486 H 0.36759 0.53021 0.86798 0.0
C487 C 0.36394 0.5518 0.84781 0.0
H488 H 0.3672 0.61264 0.83751 0.0
H489 H 0.4115 0.72508 0.97724 0.0
H490 H 0.35083 0.73217 0.94828 0.0
H491 H 0.30853 0.68445 0.89534 0.0
H492 H 0.32727 0.63063 0.87061 0.0
C493 C 0.37735 0.5949 0.85637 0.0
C494 C 0.39923 0.61809 0.89204 0.0
C495 C 0.38479 0.64687 0.90822 0.0
C496 C 0.40678 0.67203 0.94044 0.0
C497 C 0.39444 0.70344 0.95394 0.0
C498 C 0.35981 0.70814 0.93745 0.0
C499 C 0.33622 0.6815 0.90756 0.0
C500 C 0.34808 0.65102 0.89322 0.0
H501 H 0.52761 0.72363 0.98573 0.0
C502 C 0.49983 0.71699 1.00442 0.0
H503 H 0.42922 0.68035 0.0154 0.0
H504 H 0.44491 0.57558 0.86567 0.0
H505 H 0.50137 0.56495 0.89753 0.0
H506 H 0.52809 0.59688 0.95938 0.0
H507 H 0.49959 0.64142 0.98864 0.0
C508 C 0.45608 0.68637 0.9959 0.0
C509 C 0.44017 0.6655 0.95883 0.0
C510 C 0.45418 0.63632 0.94339 0.0
C511 C 0.43556 0.6145 0.90905 0.0
C512 C 0.45451 0.59001 0.89267 0.0
C513 C 0.48767 0.58408 0.91058 0.0
C514 C 0.50293 0.60229 0.94526 0.0
C515 C 0.48648 0.62811 0.96162 0.0
H516 H 0.81753 0.38932 1.00452 0.0
C517 C 0.82646 0.36432 1.01169 0.0
H518 H 0.84144 0.33448 0.05669 0.0
H519 H 0.89931 0.48937 0.1729 0.0
H520 H 0.96828 0.48422 0.16779 0.0
H521 H 0.97528 0.43723 0.11973 0.0
H522 H 0.91313 0.39442 0.07692 0.0
C523 C 0.83346 0.36012 0.04752 0.0
C524 C 0.82981 0.39008 0.07558 0.0
C525 C 0.86706 0.41594 0.0997 0.0
C526 C 0.86351 0.44392 0.12693 0.0
C527 C 0.90043 0.46795 0.15156 0.0
C528 C 0.94023 0.46537 0.14887 0.0
C529 C 0.94417 0.43889 0.12182 0.0
C530 C 0.90815 0.4144 0.09745 0.0
H531 H 0.75738 0.40732 0.17767 0.0
C532 C 0.77937 0.44308 0.184 0.0
H533 H 0.83822 0.50418 0.16753 0.0
H534 H 0.74726 0.3391 0.03926 0.0
H535 H 0.68349 0.35261 0.03889 0.0
H536 H 0.6846 0.41248 0.07747 0.0
H537 H 0.7488 0.45729 0.11825 0.0
C538 C 0.81523 0.46848 0.16191 0.0
C539 C 0.82328 0.447 0.12926 0.0
C540 C 0.78796 0.42461 0.10288 0.0
C541 C 0.78963 0.3937 0.07782 0.0
C542 C 0.75021 0.36637 0.05619 0.0
C543 C 0.71285 0.37322 0.05616 0.0
C544 C 0.71332 0.40666 0.07806 0.0
C545 C 0.75018 0.4319 0.10144 0.0
H546 H 0.38385 0.83558 0.3472 0.0
C547 C 0.35512 0.80248 0.34033 0.0
H548 H 0.32689 0.74793 0.30363 0.0
H549 H 0.5208 0.90416 0.21939 0.0
H550 H 0.49673 0.95968 0.22866 0.0
H551 H 0.4252 0.93905 0.26197 0.0
H552 H 0.3785 0.86369 0.2876 0.0
C553 C 0.35615 0.78111 0.30963 0.0
C554 C 0.39902 0.79517 0.28814 0.0
C555 C 0.42409 0.83855 0.27115 0.0
C556 C 0.46381 0.84964 0.24983 0.0
C557 C 0.48988 0.89387 0.23508 0.0
C558 C 0.47645 0.92599 0.24022 0.0
C559 C 0.43623 0.91439 0.25905 0.0
C560 C 0.40994 0.87109 0.27401 0.0
H561 H 0.45842 0.77291 0.18041 0.0
C562 C 0.49444 0.79817 0.18237 0.0
H563 H 0.5452 0.84928 0.21591 0.0
H564 H 0.36502 0.71221 0.32244 0.0
H565 H 0.39162 0.65888 0.31473 0.0
H566 H 0.45731 0.67681 0.2744 0.0
H567 H 0.4971 0.74871 0.2419 0.0
C568 C 0.50942 0.82337 0.21299 0.0
C569 C 0.47598 0.81624 0.2428 0.0
C570 C 0.45281 0.77405 0.26152 0.0
C571 C 0.41468 0.76366 0.28447 0.0
C572 C 0.39326 0.72165 0.30369 0.0
C573 C 0.40844 0.69072 0.29979 0.0
C574 C 0.4454 0.70081 0.27711 0.0
C575 C 0.46763 0.74201 0.25832 0.0
loop_
_geom_bond_atom_site_label_1
_geom_bond_atom_site_label_2
_geom_bond_distance
_geom_bond_site_symmetry_2
_ccdc_geom_bond_type
Mn0 O5 2.095 . S
Mn0 O15 2.162 . S
Mn0 O16 2.297 . S
Mn0 O24 2.385 . S
Mn0 O25 2.209 . S
Mn0 O26 2.094 . S
Mn1 O6 2.121 . S
Mn1 N8 2.257 . S
Mn1 N17 2.282 . S
Mn1 O25 2.215 . S
Mn1 O27 2.117 . S
C2 O24 1.234 . S
C2 O25 1.283 . S
C3 O15 1.281 . S
C3 O16 1.236 . S
C4 O26 1.240 . S
C4 O27 1.264 . S
O5 Mn0 2.095 . S
O5 C14 1.250 . S
O6 Mn1 2.121 . S
O6 C14 1.258 . S
C7 N8 1.326 . S
C7 C11 1.460 . S
C7 H13 0.929 . S
N8 Mn1 2.257 . S
N8 C7 1.326 . S
N8 C12 1.362 . S
C9 C10 1.258 . S
C9 C12 1.431 . S
C9 C29 1.449 . S
C10 C9 1.258 . S
C10 C11 1.477 . S
C10 H30 0.931 . S
C11 C7 1.460 . S
C11 C10 1.477 . S
C11 H31 0.930 . S
C12 N8 1.362 . S
C12 C9 1.431 . S
C12 C22 1.476 . S
H13 C7 0.929 . S
C14 O5 1.250 . S
C14 O6 1.258 . S
O15 Mn0 2.162 . S
O15 C3 1.281 . S
O16 Mn0 2.297 . S
O16 C3 1.236 . S
N17 Mn1 2.282 . S
N17 C18 1.328 . S
N17 C22 1.318 . S
C18 N17 1.328 . S
C18 C19 1.457 . S
C18 H23 0.929 . S
C19 C18 1.457 . S
C19 C20 1.291 . S
C19 H32 0.931 . S
C20 C19 1.291 . S
C20 C21 1.373 . S
C20 H33 0.929 . S
C21 C20 1.373 . S
C21 C22 1.396 . S
C21 C28 1.403 . S
C22 C12 1.476 . S
C22 N17 1.318 . S
C22 C21 1.396 . S
H23 C18 0.929 . S
O24 Mn0 2.385 . S
O24 C2 1.234 . S
O25 Mn0 2.209 . S
O25 Mn1 2.215 . S
O25 C2 1.283 . S
O26 Mn0 2.094 . S
O26 C4 1.240 . S
O27 Mn1 2.117 . S
O27 C4 1.264 . S
C28 C21 1.403 . S
C28 C29 1.399 . S
C28 H34 0.929 . S
C29 C9 1.449 . S
C29 C28 1.399 . S
C29 H35 0.930 . S
H30 C10 0.931 . S
H31 C11 0.930 . S
H32 C19 0.931 . S
H33 C20 0.929 . S
H34 C28 0.929 . S
H35 C29 0.930 . S
Mn36 O41 2.095 . S
Mn36 O51 2.162 . S
Mn36 O52 2.297 . S
Mn36 O60 2.385 . S
Mn36 O61 2.209 . S
Mn36 O62 2.094 . S
Mn37 O42 2.121 . S
Mn37 N44 2.257 . S
Mn37 N53 2.282 . S
Mn37 O61 2.215 . S
Mn37 O63 2.117 . S
C38 O60 1.234 . S
C38 O61 1.283 . S
C39 O51 1.281 . S
C39 O52 1.236 . S
C40 O62 1.240 . S
C40 O63 1.264 . S
O41 Mn36 2.095 . S
O41 C50 1.250 . S
O42 Mn37 2.121 . S
O42 C50 1.258 . S
C43 N44 1.326 . S
C43 C47 1.460 . S
C43 H49 0.929 . S
N44 Mn37 2.257 . S
N44 C43 1.326 . S
N44 C48 1.362 . S
C45 C46 1.258 . S
C45 C48 1.431 . S
C45 C65 1.449 . S
C46 C45 1.258 . S
C46 C47 1.477 . S
C46 H66 0.931 . S
C47 C43 1.460 . S
C47 C46 1.477 . S
C47 H67 0.930 . S
C48 N44 1.362 . S
C48 C45 1.431 . S
C48 C58 1.476 . S
H49 C43 0.929 . S
C50 O41 1.250 . S
C50 O42 1.258 . S
O51 Mn36 2.162 . S
O51 C39 1.281 . S
O52 Mn36 2.297 . S
O52 C39 1.236 . S
N53 Mn37 2.282 . S
N53 C54 1.328 . S
N53 C58 1.318 . S
C54 N53 1.328 . S
C54 C55 1.457 . S
C54 H59 0.929 . S
C55 C54 1.457 . S
C55 C56 1.291 . S
C55 H68 0.931 . S
C56 C55 1.291 . S
C56 C57 1.373 . S
C56 H69 0.929 . S
C57 C56 1.373 . S
C57 C58 1.396 . S
C57 C64 1.403 . S
C58 C48 1.476 . S
C58 N53 1.318 . S
C58 C57 1.396 . S
H59 C54 0.929 . S
O60 Mn36 2.385 . S
O60 C38 1.234 . S
O61 Mn36 2.209 . S
O61 Mn37 2.215 . S
O61 C38 1.283 . S
O62 Mn36 2.094 . S
O62 C40 1.240 . S
O63 Mn37 2.117 . S
O63 C40 1.264 . S
C64 C57 1.403 . S
C64 C65 1.399 . S
C64 H70 0.929 . S
C65 C45 1.449 . S
C65 C64 1.399 . S
C65 H71 0.930 . S
H66 C46 0.931 . S
H67 C47 0.930 . S
H68 C55 0.931 . S
H69 C56 0.929 . S
H70 C64 0.929 . S
H71 C65 0.930 . S
Mn72 O77 2.095 . S
Mn72 O87 2.162 . S
Mn72 O88 2.297 . S
Mn72 O96 2.385 . S
Mn72 O97 2.209 . S
Mn72 O98 2.094 . S
Mn73 O78 2.121 . S
Mn73 N80 2.257 . S
Mn73 N89 2.282 . S
Mn73 O97 2.215 . S
Mn73 O99 2.117 . S
C74 O96 1.234 . S
C74 O97 1.283 . S
C75 O87 1.281 . S
C75 O88 1.236 . S
C76 O98 1.240 . S
C76 O99 1.264 . S
O77 Mn72 2.095 . S
O77 C86 1.250 . S
O78 Mn73 2.121 . S
O78 C86 1.258 . S
C79 N80 1.326 . S
C79 C83 1.460 . S
C79 H85 0.929 . S
N80 Mn73 2.257 . S
N80 C79 1.326 . S
N80 C84 1.362 . S
C81 C82 1.258 . S
C81 C84 1.431 . S
C81 C101 1.449 . S
C82 C81 1.258 . S
C82 C83 1.477 . S
C82 H102 0.931 . S
C83 C79 1.460 . S
C83 C82 1.477 . S
C83 H103 0.930 . S
C84 N80 1.362 . S
C84 C81 1.431 . S
C84 C94 1.476 . S
H85 C79 0.929 . S
C86 O77 1.250 . S
C86 O78 1.258 . S
O87 Mn72 2.162 . S
O87 C75 1.281 . S
O88 Mn72 2.297 . S
O88 C75 1.236 . S
N89 Mn73 2.282 . S
N89 C90 1.328 . S
N89 C94 1.318 . S
C90 N89 1.328 . S
C90 C91 1.457 . S
C90 H95 0.929 . S
C91 C90 1.457 . S
C91 C92 1.291 . S
C91 H104 0.931 . S
C92 C91 1.291 . S
C92 C93 1.373 . S
C92 H105 0.929 1_556 S
C93 C92 1.373 . S
C93 C94 1.396 . S
C93 C100 1.403 . S
C94 C84 1.476 . S
C94 N89 1.318 . S
C94 C93 1.396 . S
H95 C90 0.929 . S
O96 Mn72 2.385 . S
O96 C74 1.234 . S
O97 Mn72 2.209 . S
O97 Mn73 2.215 . S
O97 C74 1.283 . S
O98 Mn72 2.094 . S
O98 C76 1.240 . S
O99 Mn73 2.117 . S
O99 C76 1.264 . S
C100 C93 1.403 . S
C100 C101 1.399 . S
C100 H106 0.929 1_556 S
C101 C81 1.449 . S
C101 C100 1.399 . S
C101 H107 0.930 . S
H102 C82 0.931 . S
H103 C83 0.930 . S
H104 C91 0.931 . S
H105 C92 0.929 1_554 S
H106 C100 0.929 1_554 S
H107 C101 0.930 . S
Mn108 O113 2.095 . S
Mn108 O123 2.162 . S
Mn108 O124 2.297 . S
Mn108 O132 2.385 . S
Mn108 O133 2.209 . S
Mn108 O134 2.094 . S
Mn109 O114 2.121 . S
Mn109 N116 2.257 . S
Mn109 N125 2.282 . S
Mn109 O133 2.215 . S
Mn109 O135 2.117 . S
C110 O132 1.234 . S
C110 O133 1.283 . S
C111 O123 1.281 . S
C111 O124 1.236 . S
C112 O134 1.240 . S
C112 O135 1.264 . S
O113 Mn108 2.095 . S
O113 C122 1.250 . S
O114 Mn109 2.121 . S
O114 C122 1.258 . S
C115 N116 1.326 . S
C115 C119 1.460 . S
C115 H121 0.929 . S
N116 Mn109 2.257 . S
N116 C115 1.326 . S
N116 C120 1.362 . S
C117 C118 1.258 . S
C117 C120 1.431 . S
C117 C137 1.449 . S
C118 C117 1.258 . S
C118 C119 1.477 . S
C118 H138 0.931 . S
C119 C115 1.460 . S
C119 C118 1.477 . S
C119 H139 0.930 . S
C120 N116 1.362 . S
C120 C117 1.431 . S
C120 C130 1.476 . S
H121 C115 0.929 . S
C122 O113 1.250 . S
C122 O114 1.258 . S
O123 Mn108 2.162 . S
O123 C111 1.281 . S
O124 Mn108 2.297 . S
O124 C111 1.236 . S
N125 Mn109 2.282 . S
N125 C126 1.328 . S
N125 C130 1.318 . S
C126 N125 1.328 . S
C126 C127 1.457 . S
C126 H131 0.929 . S
C127 C126 1.457 . S
C127 C128 1.291 . S
C127 H140 0.931 . S
C128 C127 1.291 . S
C128 C129 1.373 . S
C128 H141 0.929 . S
C129 C128 1.373 . S
C129 C130 1.396 . S
C129 C136 1.403 . S
C130 C120 1.476 . S
C130 N125 1.318 . S
C130 C129 1.396 . S
H131 C126 0.929 . S
O132 Mn108 2.385 . S
O132 C110 1.234 . S
O133 Mn108 2.209 . S
O133 Mn109 2.215 . S
O133 C110 1.283 . S
O134 Mn108 2.094 . S
O134 C112 1.240 . S
O135 Mn109 2.117 . S
O135 C112 1.264 . S
C136 C129 1.403 . S
C136 C137 1.399 . S
C136 H142 0.929 . S
C137 C117 1.449 . S
C137 C136 1.399 . S
C137 H143 0.930 . S
H138 C118 0.931 . S
H139 C119 0.930 . S
H140 C127 0.931 . S
H141 C128 0.929 . S
H142 C136 0.929 . S
H143 C137 0.930 . S
Mn144 O149 2.095 . S
Mn144 O159 2.162 . S
Mn144 O160 2.297 . S
Mn144 O168 2.385 . S
Mn144 O169 2.209 . S
Mn144 O170 2.094 . S
Mn145 O150 2.121 . S
Mn145 N152 2.257 . S
Mn145 N161 2.282 . S
Mn145 O169 2.215 . S
Mn145 O171 2.117 . S
C146 O168 1.234 . S
C146 O169 1.283 . S
C147 O159 1.281 . S
C147 O160 1.236 . S
C148 O170 1.240 . S
C148 O171 1.264 . S
O149 Mn144 2.095 . S
O149 C158 1.250 . S
O150 Mn145 2.121 . S
O150 C158 1.258 . S
C151 N152 1.326 . S
C151 C155 1.460 . S
C151 H157 0.929 . S
N152 Mn145 2.257 . S
N152 C151 1.326 . S
N152 C156 1.362 . S
C153 C154 1.258 . S
C153 C156 1.431 . S
C153 C173 1.449 . S
C154 C153 1.258 . S
C154 C155 1.477 . S
C154 H174 0.931 . S
C155 C151 1.460 . S
C155 C154 1.477 . S
C155 H175 0.930 . S
C156 N152 1.362 . S
C156 C153 1.431 . S
C156 C166 1.476 . S
H157 C151 0.929 . S
C158 O149 1.250 . S
C158 O150 1.258 . S
O159 Mn144 2.162 . S
O159 C147 1.281 . S
O160 Mn144 2.297 . S
O160 C147 1.236 . S
N161 Mn145 2.282 . S
N161 C162 1.328 . S
N161 C166 1.318 . S
C162 N161 1.328 . S
C162 C163 1.457 . S
C162 H167 0.929 . S
C163 C162 1.457 . S
C163 C164 1.291 . S
C163 H176 0.931 . S
C164 C163 1.291 . S
C164 C165 1.373 . S
C164 H177 0.929 . S
C165 C164 1.373 . S
C165 C166 1.396 . S
C165 C172 1.403 . S
C166 C156 1.476 . S
C166 N161 1.318 . S
C166 C165 1.396 . S
H167 C162 0.929 . S
O168 Mn144 2.385 . S
O168 C146 1.234 . S
O169 Mn144 2.209 . S
O169 Mn145 2.215 . S
O169 C146 1.283 . S
O170 Mn144 2.094 . S
O170 C148 1.240 . S
O171 Mn145 2.117 . S
O171 C148 1.264 . S
C172 C165 1.403 . S
C172 C173 1.399 . S
C172 H178 0.929 . S
C173 C153 1.449 . S
C173 C172 1.399 . S
C173 H179 0.930 . S
H174 C154 0.931 . S
H175 C155 0.930 . S
H176 C163 0.931 . S
H177 C164 0.929 . S
H178 C172 0.929 . S
H179 C173 0.930 . S
Mn180 O185 2.095 . S
Mn180 O195 2.162 . S
Mn180 O196 2.297 . S
Mn180 O204 2.385 . S
Mn180 O205 2.209 . S
Mn180 O206 2.094 . S
Mn181 O186 2.121 . S
Mn181 N188 2.257 . S
Mn181 N197 2.282 . S
Mn181 O205 2.215 . S
Mn181 O207 2.117 . S
C182 O204 1.234 . S
C182 O205 1.283 . S
C183 O195 1.281 . S
C183 O196 1.236 . S
C184 O206 1.240 . S
C184 O207 1.264 . S
O185 Mn180 2.095 . S
O185 C194 1.250 . S
O186 Mn181 2.121 . S
O186 C194 1.258 . S
C187 N188 1.326 . S
C187 C191 1.460 . S
C187 H193 0.929 . S
N188 Mn181 2.257 . S
N188 C187 1.326 . S
N188 C192 1.362 . S
C189 C190 1.258 . S
C189 C192 1.431 . S
C189 C209 1.449 . S
C190 C189 1.258 . S
C190 C191 1.477 . S
C190 H210 0.931 . S
C191 C187 1.460 . S
C191 C190 1.477 . S
C191 H211 0.930 . S
C192 N188 1.362 . S
C192 C189 1.431 . S
C192 C202 1.476 . S
H193 C187 0.929 . S
C194 O185 1.250 . S
C194 O186 1.258 . S
O195 Mn180 2.162 . S
O195 C183 1.281 . S
O196 Mn180 2.297 . S
O196 C183 1.236 . S
N197 Mn181 2.282 . S
N197 C198 1.328 . S
N197 C202 1.318 . S
C198 N197 1.328 . S
C198 C199 1.457 . S
C198 H203 0.929 . S
C199 C198 1.457 . S
C199 C200 1.291 . S
C199 H212 0.931 . S
C200 C199 1.291 . S
C200 C201 1.373 . S
C200 H213 0.929 . S
C201 C200 1.373 . S
C201 C202 1.396 . S
C201 C208 1.403 . S
C202 C192 1.476 . S
C202 N197 1.318 . S
C202 C201 1.396 . S
H203 C198 0.929 . S
O204 Mn180 2.385 . S
O204 C182 1.234 . S
O205 Mn180 2.209 . S
O205 Mn181 2.215 . S
O205 C182 1.283 . S
O206 Mn180 2.094 . S
O206 C184 1.240 . S
O207 Mn181 2.117 . S
O207 C184 1.264 . S
C208 C201 1.403 . S
C208 C209 1.399 . S
C208 H214 0.929 . S
C209 C189 1.449 . S
C209 C208 1.399 . S
C209 H215 0.930 . S
H210 C190 0.931 . S
H211 C191 0.930 . S
H212 C199 0.931 . S
H213 C200 0.929 . S
H214 C208 0.929 . S
H215 C209 0.930 . S
H216 C217 0.951 . S
C217 H216 0.951 . S
C217 C223 1.265 . S
H218 C223 0.950 . S
H219 C227 0.949 . S
H220 C228 0.950 . S
H221 C229 0.951 . S
H222 C230 0.951 . S
C223 C217 1.265 . S
C223 H218 0.950 . S
C223 C224 1.478 . S
C224 C223 1.478 . S
C224 C225 1.397 . S
C224 C241 1.394 . S
C225 C224 1.397 . S
C225 C226 1.438 1_545 S
C225 C230 1.429 . S
C226 C225 1.438 1_565 S
C226 C227 1.428 . S
C226 C239 1.394 . S
C227 H219 0.949 . S
C227 C226 1.428 . S
C227 C228 1.345 1_565 S
C228 H220 0.950 . S
C228 C227 1.345 1_545 S
C228 C229 1.424 . S
C229 H221 0.951 . S
C229 C228 1.424 . S
C229 C230 1.347 . S
C230 H222 0.951 . S
C230 C225 1.429 . S
C230 C229 1.347 . S
H231 C232 0.951 . S
C232 H231 0.951 . S
C232 C238 1.265 . S
H233 C238 0.950 . S
H234 C242 0.949 . S
H235 C243 0.950 . S
H236 C244 0.951 . S
H237 C245 0.951 . S
C238 C232 1.265 . S
C238 H233 0.950 . S
C238 C239 1.478 . S
C239 C226 1.394 . S
C239 C238 1.478 . S
C239 C240 1.397 . S
C240 C239 1.397 . S
C240 C241 1.438 1_565 S
C240 C245 1.429 . S
C241 C224 1.394 . S
C241 C240 1.438 1_545 S
C241 C242 1.428 . S
C242 H234 0.949 . S
C242 C241 1.428 . S
C242 C243 1.345 1_545 S
C243 H235 0.950 . S
C243 C242 1.345 1_565 S
C243 C244 1.424 . S
C244 H236 0.951 . S
C244 C243 1.424 . S
C244 C245 1.347 . S
C245 H237 0.951 . S
C245 C240 1.429 . S
C245 C244 1.347 . S
H246 C247 0.951 . S
C247 H246 0.951 . S
C247 C253 1.265 . S
H248 C253 0.950 . S
H249 C257 0.949 . S
H250 C258 0.950 . S
H251 C259 0.951 . S
H252 C260 0.951 . S
C253 C247 1.265 . S
C253 H248 0.950 . S
C253 C254 1.478 . S
C254 C253 1.478 . S
C254 C255 1.397 . S
C254 C271 1.394 . S
C255 C254 1.397 . S
C255 C256 1.438 . S
C255 C260 1.429 . S
C256 C255 1.438 . S
C256 C257 1.428 . S
C256 C269 1.394 . S
C257 H249 0.949 . S
C257 C256 1.428 . S
C257 C258 1.345 . S
C258 H250 0.950 . S
C258 C257 1.345 . S
C258 C259 1.424 . S
C259 H251 0.951 . S
C259 C258 1.424 . S
C259 C260 1.347 . S
C260 H252 0.951 . S
C260 C255 1.429 . S
C260 C259 1.347 . S
H261 C262 0.951 . S
C262 H261 0.951 . S
C262 C268 1.265 . S
H263 C268 0.950 . S
H264 C272 0.949 . S
H265 C273 0.950 . S
H266 C274 0.951 . S
H267 C275 0.951 . S
C268 C262 1.265 . S
C268 H263 0.950 . S
C268 C269 1.478 . S
C269 C256 1.394 . S
C269 C268 1.478 . S
C269 C270 1.397 . S
C270 C269 1.397 . S
C270 C271 1.438 . S
C270 C275 1.429 . S
C271 C254 1.394 . S
C271 C270 1.438 . S
C271 C272 1.428 . S
C272 H264 0.949 . S
C272 C271 1.428 . S
C272 C273 1.345 . S
C273 H265 0.950 . S
C273 C272 1.345 . S
C273 C274 1.424 . S
C274 H266 0.951 . S
C274 C273 1.424 . S
C274 C275 1.347 . S
C275 H267 0.951 . S
C275 C270 1.429 . S
C275 C274 1.347 . S
H276 C277 0.951 . S
C277 H276 0.951 . S
C277 C283 1.265 . S
H278 C283 0.950 . S
H279 C287 0.949 . S
H280 C288 0.950 1_455 S
H281 C289 0.951 . S
H282 C290 0.951 . S
C283 C277 1.265 . S
C283 H278 0.950 . S
C283 C284 1.478 . S
C284 C283 1.478 . S
C284 C285 1.397 . S
C284 C301 1.394 . S
C285 C284 1.397 . S
C285 C286 1.438 1_655 S
C285 C290 1.429 . S
C286 C285 1.438 1_455 S
C286 C287 1.428 . S
C286 C299 1.394 . S
C287 H279 0.949 . S
C287 C286 1.428 . S
C287 C288 1.345 1_455 S
C288 H280 0.950 1_655 S
C288 C287 1.345 1_655 S
C288 C289 1.424 . S
C289 H281 0.951 . S
C289 C288 1.424 . S
C289 C290 1.347 . S
C290 H282 0.951 . S
C290 C285 1.429 . S
C290 C289 1.347 . S
H291 C292 0.951 . S
C292 H291 0.951 . S
C292 C298 1.265 . S
H293 C298 0.950 . S
H294 C302 0.949 . S
H295 C303 0.949 . S
H296 C304 0.951 . S
H297 C305 0.951 . S
C298 C292 1.265 . S
C298 H293 0.950 . S
C298 C299 1.478 . S
C299 C286 1.394 . S
C299 C298 1.478 . S
C299 C300 1.397 . S
C300 C299 1.397 . S
C300 C301 1.438 1_455 S
C300 C305 1.429 . S
C301 C284 1.394 . S
C301 C300 1.438 1_655 S
C301 C302 1.428 . S
C302 H294 0.949 . S
C302 C301 1.428 . S
C302 C303 1.345 . S
C303 H295 0.949 . S
C303 C302 1.345 . S
C303 C304 1.425 1_655 S
C304 H296 0.951 . S
C304 C303 1.425 1_455 S
C304 C305 1.347 . S
C305 H297 0.951 . S
C305 C300 1.429 . S
C305 C304 1.347 . S
H306 C307 0.951 . S
C307 H306 0.951 . S
C307 C313 1.265 . S
H308 C313 0.950 . S
H309 C317 0.949 . S
H310 C318 0.950 . S
H311 C319 0.951 1_565 S
H312 C320 0.951 . S
C313 C307 1.265 . S
C313 H308 0.950 . S
C313 C314 1.478 . S
C314 C313 1.478 . S
C314 C315 1.397 . S
C314 C331 1.394 1_554 S
C315 C314 1.397 . S
C315 C316 1.438 1_565 S
C315 C320 1.429 . S
C316 C315 1.438 1_545 S
C316 C317 1.428 . S
C316 C329 1.394 1_554 S
C317 H309 0.949 . S
C317 C316 1.428 . S
C317 C318 1.345 . S
C318 H310 0.950 . S
C318 C317 1.345 . S
C318 C319 1.424 . S
C319 H311 0.951 1_545 S
C319 C318 1.424 . S
C319 C320 1.347 1_545 S
C320 H312 0.951 . S
C320 C315 1.429 . S
C320 C319 1.347 1_565 S
H321 C322 0.951 . S
C322 H321 0.951 . S
C322 C328 1.265 . S
H323 C328 0.950 . S
H324 C332 0.949 . S
H325 C333 0.950 . S
H326 C334 0.951 1_545 S
H327 C335 0.951 . S
C328 C322 1.265 . S
C328 H323 0.950 . S
C328 C329 1.478 . S
C329 C316 1.394 1_556 S
C329 C328 1.478 . S
C329 C330 1.397 . S
C330 C329 1.397 . S
C330 C331 1.438 1_545 S
C330 C335 1.429 . S
C331 C314 1.394 1_556 S
C331 C330 1.438 1_565 S
C331 C332 1.428 . S
C332 H324 0.949 . S
C332 C331 1.428 . S
C332 C333 1.345 . S
C333 H325 0.950 . S
C333 C332 1.345 . S
C333 C334 1.424 . S
C334 H326 0.951 1_565 S
C334 C333 1.424 . S
C334 C335 1.347 1_565 S
C335 H327 0.951 . S
C335 C330 1.429 . S
C335 C334 1.347 1_545 S
H336 C337 0.951 . S
C337 H336 0.951 . S
C337 C343 1.265 . S
H338 C343 0.950 . S
H339 C347 0.949 . S
H340 C348 0.950 . S
H341 C349 0.951 . S
H342 C350 0.951 . S
C343 C337 1.265 . S
C343 H338 0.950 . S
C343 C344 1.478 . S
C344 C343 1.478 . S
C344 C345 1.397 . S
C344 C361 1.394 . S
C345 C344 1.397 . S
C345 C346 1.438 . S
C345 C350 1.429 . S
C346 C345 1.438 . S
C346 C347 1.428 . S
C346 C359 1.394 . S
C347 H339 0.949 . S
C347 C346 1.428 . S
C347 C348 1.345 . S
C348 H340 0.950 . S
C348 C347 1.345 . S
C348 C349 1.424 . S
C349 H341 0.951 . S
C349 C348 1.424 . S
C349 C350 1.347 . S
C350 H342 0.951 . S
C350 C345 1.429 . S
C350 C349 1.347 . S
H351 C352 0.951 . S
C352 H351 0.951 . S
C352 C358 1.265 . S
H353 C358 0.950 . S
H354 C362 0.949 . S
H355 C363 0.950 . S
H356 C364 0.951 . S
H357 C365 0.951 . S
C358 C352 1.265 . S
C358 H353 0.950 . S
C358 C359 1.478 . S
C359 C346 1.394 . S
C359 C358 1.478 . S
C359 C360 1.397 . S
C360 C359 1.397 . S
C360 C361 1.438 . S
C360 C365 1.429 . S
C361 C344 1.394 . S
C361 C360 1.438 . S
C361 C362 1.428 . S
C362 H354 0.949 . S
C362 C361 1.428 . S
C362 C363 1.345 . S
C363 H355 0.950 . S
C363 C362 1.345 . S
C363 C364 1.424 . S
C364 H356 0.951 . S
C364 C363 1.424 . S
C364 C365 1.347 . S
C365 H357 0.951 . S
C365 C360 1.429 . S
C365 C364 1.347 . S
H366 C367 0.951 . S
C367 H366 0.951 . S
C367 C373 1.265 . S
H368 C373 0.950 . S
H369 C377 0.949 . S
H370 C378 0.950 . S
H371 C379 0.951 . S
H372 C380 0.951 . S
C373 C367 1.265 . S
C373 H368 0.950 . S
C373 C374 1.478 . S
C374 C373 1.478 . S
C374 C375 1.397 . S
C374 C391 1.394 . S
C375 C374 1.397 . S
C375 C376 1.438 1_455 S
C375 C380 1.429 . S
C376 C375 1.438 1_655 S
C376 C377 1.428 . S
C376 C389 1.394 . S
C377 H369 0.949 . S
C377 C376 1.428 . S
C377 C378 1.345 . S
C378 H370 0.950 . S
C378 C377 1.345 . S
C378 C379 1.424 . S
C379 H371 0.951 . S
C379 C378 1.424 . S
C379 C380 1.347 1_655 S
C380 H372 0.951 . S
C380 C375 1.429 . S
C380 C379 1.347 1_455 S
H381 C382 0.951 . S
C382 H381 0.951 . S
C382 C388 1.265 . S
H383 C388 0.950 . S
H384 C392 0.949 . S
H385 C393 0.950 . S
H386 C394 0.951 . S
H387 C395 0.951 . S
C388 C382 1.265 . S
C388 H383 0.950 . S
C388 C389 1.478 . S
C389 C376 1.394 . S
C389 C388 1.478 . S
C389 C390 1.397 . S
C390 C389 1.397 . S
C390 C391 1.438 1_655 S
C390 C395 1.429 . S
C391 C374 1.394 . S
C391 C390 1.438 1_455 S
C391 C392 1.428 . S
C392 H384 0.949 . S
C392 C391 1.428 . S
C392 C393 1.345 . S
C393 H385 0.950 . S
C393 C392 1.345 . S
C393 C394 1.424 . S
C394 H386 0.951 . S
C394 C393 1.424 . S
C394 C395 1.347 1_455 S
C395 H387 0.951 . S
C395 C390 1.429 . S
C395 C394 1.347 1_655 S
H396 C397 0.951 . S
C397 H396 0.951 . S
C397 C403 1.265 . S
H398 C403 0.950 . S
H399 C407 0.949 . S
H400 C408 0.950 . S
H401 C409 0.951 . S
H402 C410 0.951 . S
C403 C397 1.265 . S
C403 H398 0.950 . S
C403 C404 1.478 . S
C404 C403 1.478 . S
C404 C405 1.397 . S
C404 C421 1.394 . S
C405 C404 1.397 . S
C405 C406 1.438 . S
C405 C410 1.429 . S
C406 C405 1.438 . S
C406 C407 1.428 . S
C406 C419 1.394 . S
C407 H399 0.949 . S
C407 C406 1.428 . S
C407 C408 1.345 . S
C408 H400 0.950 . S
C408 C407 1.345 . S
C408 C409 1.424 . S
C409 H401 0.951 . S
C409 C408 1.424 . S
C409 C410 1.347 . S
C410 H402 0.951 . S
C410 C405 1.429 . S
C410 C409 1.347 . S
H411 C412 0.951 . S
C412 H411 0.951 . S
C412 C418 1.265 . S
H413 C418 0.950 . S
H414 C422 0.949 . S
H415 C423 0.950 . S
H416 C424 0.951 . S
H417 C425 0.951 . S
C418 C412 1.265 . S
C418 H413 0.950 . S
C418 C419 1.478 . S
C419 C406 1.394 . S
C419 C418 1.478 . S
C419 C420 1.397 . S
C420 C419 1.397 . S
C420 C421 1.438 . S
C420 C425 1.429 . S
C421 C404 1.394 . S
C421 C420 1.438 . S
C421 C422 1.428 . S
C422 H414 0.949 . S
C422 C421 1.428 . S
C422 C423 1.345 . S
C423 H415 0.950 . S
C423 C422 1.345 . S
C423 C424 1.424 . S
C424 H416 0.951 . S
C424 C423 1.424 . S
C424 C425 1.347 . S
C425 H417 0.951 . S
C425 C420 1.429 . S
C425 C424 1.347 . S
H426 C427 0.951 . S
C427 H426 0.951 . S
C427 C433 1.265 . S
H428 C433 0.950 . S
H429 C437 0.949 . S
H430 C438 0.950 . S
H431 C439 0.951 . S
H432 C440 0.951 . S
C433 C427 1.265 . S
C433 H428 0.950 . S
C433 C434 1.478 . S
C434 C433 1.478 . S
C434 C435 1.397 . S
C434 C451 1.394 . S
C435 C434 1.397 . S
C435 C436 1.438 . S
C435 C440 1.429 . S
C436 C435 1.438 . S
C436 C437 1.428 . S
C436 C449 1.394 . S
C437 H429 0.949 . S
C437 C436 1.428 . S
C437 C438 1.345 . S
C438 H430 0.950 . S
C438 C437 1.345 . S
C438 C439 1.424 . S
C439 H431 0.951 . S
C439 C438 1.424 . S
C439 C440 1.347 . S
C440 H432 0.951 . S
C440 C435 1.429 . S
C440 C439 1.347 . S
H441 C442 0.951 . S
C442 H441 0.951 . S
C442 C448 1.265 . S
H443 C448 0.950 . S
H444 C452 0.949 . S
H445 C453 0.950 . S
H446 C454 0.951 . S
H447 C455 0.951 . S
C448 C442 1.265 . S
C448 H443 0.950 . S
C448 C449 1.478 . S
C449 C436 1.394 . S
C449 C448 1.478 . S
C449 C450 1.397 . S
C450 C449 1.397 . S
C450 C451 1.438 . S
C450 C455 1.429 . S
C451 C434 1.394 . S
C451 C450 1.438 . S
C451 C452 1.428 . S
C452 H444 0.949 . S
C452 C451 1.428 . S
C452 C453 1.345 . S
C453 H445 0.950 . S
C453 C452 1.345 . S
C453 C454 1.424 . S
C454 H446 0.951 . S
C454 C453 1.424 . S
C454 C455 1.347 . S
C455 H447 0.951 . S
C455 C450 1.429 . S
C455 C454 1.347 . S
H456 C457 0.951 . S
C457 H456 0.951 . S
C457 C463 1.265 . S
H458 C463 0.950 . S
H459 C467 0.949 . S
H460 C468 0.950 . S
H461 C469 0.951 . S
H462 C470 0.951 . S
C463 C457 1.265 . S
C463 H458 0.950 . S
C463 C464 1.478 . S
C464 C463 1.478 . S
C464 C465 1.397 . S
C464 C481 1.394 . S
C465 C464 1.397 . S
C465 C466 1.438 . S
C465 C470 1.429 . S
C466 C465 1.438 . S
C466 C467 1.428 . S
C466 C479 1.394 . S
C467 H459 0.949 . S
C467 C466 1.428 . S
C467 C468 1.345 . S
C468 H460 0.950 . S
C468 C467 1.345 . S
C468 C469 1.424 . S
C469 H461 0.951 . S
C469 C468 1.424 . S
C469 C470 1.347 . S
C470 H462 0.951 . S
C470 C465 1.429 . S
C470 C469 1.347 . S
H471 C472 0.951 . S
C472 H471 0.951 . S
C472 C478 1.265 . S
H473 C478 0.950 . S
H474 C482 0.949 . S
H475 C483 0.950 . S
H476 C484 0.951 . S
H477 C485 0.951 . S
C478 C472 1.265 . S
C478 H473 0.950 . S
C478 C479 1.478 . S
C479 C466 1.394 . S
C479 C478 1.478 . S
C479 C480 1.397 . S
C480 C479 1.397 . S
C480 C481 1.438 . S
C480 C485 1.429 . S
C481 C464 1.394 . S
C481 C480 1.438 . S
C481 C482 1.428 . S
C482 H474 0.949 . S
C482 C481 1.428 . S
C482 C483 1.345 . S
C483 H475 0.950 . S
C483 C482 1.345 . S
C483 C484 1.424 . S
C484 H476 0.951 . S
C484 C483 1.424 . S
C484 C485 1.347 . S
C485 H477 0.951 . S
C485 C480 1.429 . S
C485 C484 1.347 . S
H486 C487 0.951 . S
C487 H486 0.951 . S
C487 C493 1.265 . S
H488 C493 0.950 . S
H489 C497 0.949 . S
H490 C498 0.950 . S
H491 C499 0.951 . S
H492 C500 0.951 . S
C493 C487 1.265 . S
C493 H488 0.950 . S
C493 C494 1.478 . S
C494 C493 1.478 . S
C494 C495 1.397 . S
C494 C511 1.394 . S
C495 C494 1.397 . S
C495 C496 1.438 . S
C495 C500 1.429 . S
C496 C495 1.438 . S
C496 C497 1.428 . S
C496 C509 1.394 . S
C497 H489 0.949 . S
C497 C496 1.428 . S
C497 C498 1.345 . S
C498 H490 0.950 . S
C498 C497 1.345 . S
C498 C499 1.424 . S
C499 H491 0.951 . S
C499 C498 1.424 . S
C499 C500 1.347 . S
C500 H492 0.951 . S
C500 C495 1.429 . S
C500 C499 1.347 . S
H501 C502 0.951 . S
C502 H501 0.951 . S
C502 C508 1.265 . S
H503 C508 0.956 . S
H504 C512 0.949 . S
H505 C513 0.950 . S
H506 C514 0.951 . S
H507 C515 0.951 . S
C508 C502 1.265 . S
C508 H503 0.956 . S
C508 C509 1.478 . S
C509 C496 1.394 . S
C509 C508 1.478 . S
C509 C510 1.397 . S
C510 C509 1.397 . S
C510 C511 1.438 . S
C510 C515 1.429 . S
C511 C494 1.394 . S
C511 C510 1.438 . S
C511 C512 1.428 . S
C512 H504 0.949 . S
C512 C511 1.428 . S
C512 C513 1.345 . S
C513 H505 0.950 . S
C513 C512 1.345 . S
C513 C514 1.424 . S
C514 H506 0.951 . S
C514 C513 1.424 . S
C514 C515 1.347 . S
C515 H507 0.951 . S
C515 C510 1.429 . S
C515 C514 1.347 . S
H516 C517 0.951 1_556 S
C517 H516 0.951 1_554 S
C517 C523 1.265 . S
H518 C523 0.950 . S
H519 C527 0.949 . S
H520 C528 0.950 . S
H521 C529 0.951 . S
H522 C530 0.951 . S
C523 C517 1.265 . S
C523 H518 0.950 . S
C523 C524 1.478 . S
C524 C523 1.478 . S
C524 C525 1.397 . S
C524 C541 1.394 . S
C525 C524 1.397 . S
C525 C526 1.438 . S
C525 C530 1.429 . S
C526 C525 1.438 . S
C526 C527 1.428 . S
C526 C539 1.394 . S
C527 H519 0.949 . S
C527 C526 1.428 . S
C527 C528 1.345 . S
C528 H520 0.950 . S
C528 C527 1.345 . S
C528 C529 1.424 . S
C529 H521 0.951 . S
C529 C528 1.424 . S
C529 C530 1.347 . S
C530 H522 0.951 . S
C530 C525 1.429 . S
C530 C529 1.347 . S
H531 C532 0.951 . S
C532 H531 0.951 . S
C532 C538 1.265 . S
H533 C538 0.950 . S
H534 C542 0.949 1_556 S
H535 C543 0.950 1_556 S
H536 C544 0.951 . S
H537 C545 0.951 . S
C538 C532 1.265 . S
C538 H533 0.950 . S
C538 C539 1.478 . S
C539 C526 1.394 . S
C539 C538 1.478 . S
C539 C540 1.397 . S
C540 C539 1.397 . S
C540 C541 1.438 . S
C540 C545 1.429 . S
C541 C524 1.394 . S
C541 C540 1.438 . S
C541 C542 1.428 . S
C542 H534 0.949 1_554 S
C542 C541 1.428 . S
C542 C543 1.345 . S
C543 H535 0.950 1_554 S
C543 C542 1.345 . S
C543 C544 1.424 . S
C544 H536 0.951 . S
C544 C543 1.424 . S
C544 C545 1.347 . S
C545 H537 0.951 . S
C545 C540 1.429 . S
C545 C544 1.347 . S
H546 C547 0.951 . S
C547 H546 0.951 . S
C547 C553 1.265 . S
H548 C553 0.950 . S
H549 C557 0.949 . S
H550 C558 0.950 . S
H551 C559 0.951 . S
H552 C560 0.951 . S
C553 C547 1.265 . S
C553 H548 0.950 . S
C553 C554 1.478 . S
C554 C553 1.478 . S
C554 C555 1.397 . S
C554 C571 1.394 . S
C555 C554 1.397 . S
C555 C556 1.438 . S
C555 C560 1.429 . S
C556 C555 1.438 . S
C556 C557 1.428 . S
C556 C569 1.394 . S
C557 H549 0.949 . S
C557 C556 1.428 . S
C557 C558 1.345 . S
C558 H550 0.950 . S
C558 C557 1.345 . S
C558 C559 1.424 . S
C559 H551 0.951 . S
C559 C558 1.424 . S
C559 C560 1.347 . S
C560 H552 0.951 . S
C560 C555 1.429 . S
C560 C559 1.347 . S
H561 C562 0.951 . S
C562 H561 0.951 . S
C562 C568 1.265 . S
H563 C568 0.950 . S
H564 C572 0.949 . S
H565 C573 0.950 . S
H566 C574 0.951 . S
H567 C575 0.951 . S
C568 C562 1.265 . S
C568 H563 0.950 . S
C568 C569 1.478 . S
C569 C556 1.394 . S
C569 C568 1.478 . S
C569 C570 1.397 . S
C570 C569 1.397 . S
C570 C571 1.438 . S
C570 C575 1.429 . S
C571 C554 1.394 . S
C571 C570 1.438 . S
C571 C572 1.428 . S
C572 H564 0.949 . S
C572 C571 1.428 . S
C572 C573 1.345 . S
C573 H565 0.950 . S
C573 C572 1.345 . S
C573 C574 1.424 . S
C574 H566 0.951 . S
C574 C573 1.424 . S
C574 C575 1.347 . S
C575 H567 0.951 . S
C575 C570 1.429 . S
C575 C574 1.347 . S
C217 C4 1.549 . S
C232 C183 1.558 . S
C247 C3 1.558 . S
C262 C40 1.549 . S
C277 C76 1.549 . S
C292 C39 1.560 . S
C307 C112 1.571 . S
C322 C75 1.566 . S
C337 C148 1.549 . S
C352 C111 1.559 . S
C367 C184 1.574 . S
C382 C147 1.570 . S
C397 C14 1.382 . S
C412 C146 1.457 . S
C427 C182 1.467 . S
C442 C50 1.441 . S
C457 C86 1.402 . S
C472 C2 1.463 . S
C487 C38 1.436 . S
C502 C122 1.368 1_556 S
C517 C74 1.447 1_554 S
C532 C158 1.358 . S
C547 C194 1.408 . S
C562 C110 1.464 . S
