# Generated by pormake.
# Topology sxb, (6)-cn, num edge types: 1
# Building blocks:
#     Node 0, Type 0, BuildingBlock: NUHQIS_clean_sbu_0, # of connection points: 6
#     Node 1, Type 0, BuildingBlock: NUHQIS_clean_sbu_0, # of connection points: 6
#     Node 2, Type 0, BuildingBlock: NUHQIS_clean_sbu_0, # of connection points: 6
#     Node 3, Type 0, BuildingBlock: NUHQIS_clean_sbu_0, # of connection points: 6
#     Edge 4, Type (0, 0), BuildingBlock: MIFKUJ_clean_linker_0, # of connection points: 2
#     Edge 5, Type (0, 0), BuildingBlock: MIFKUJ_clean_linker_0, # of connection points: 2
#     Edge 6, Type (0, 0), BuildingBlock: MIFKUJ_clean_linker_0, # of connection points: 2
#     Edge 7, Type (0, 0), BuildingBlock: MIFKUJ_clean_linker_0, # of connection points: 2
#     Edge 8, Type (0, 0), BuildingBlock: MIFKUJ_clean_linker_0, # of connection points: 2
#     Edge 9, Type (0, 0), BuildingBlock: MIFKUJ_clean_linker_0, # of connection points: 2
#     Edge 10, Type (0, 0), BuildingBlock: MIFKUJ_clean_linker_0, # of connection points: 2
#     Edge 11, Type (0, 0), BuildingBlock: MIFKUJ_clean_linker_0, # of connection points: 2
#     Edge 12, Type (0, 0), BuildingBlock: MIFKUJ_clean_linker_0, # of connection points: 2
#     Edge 13, Type (0, 0), BuildingBlock: MIFKUJ_clean_linker_0, # of connection points: 2
#     Edge 14, Type (0, 0), BuildingBlock: MIFKUJ_clean_linker_0, # of connection points: 2
#     Edge 15, Type (0, 0), BuildingBlock: MIFKUJ_clean_linker_0, # of connection points: 2
# Relax obj value: 0.040
# Max RMSD: 0.114
# Mean RMSD: 0.114
data_MOF--net-sxb--node1-NUHQIS_clean_sbu_0--edge1-MIFKUJ_clean_linker_0
_symmetry_space_group_name_H-M    P1
_symmetry_Int_Tables_number       1
_symmetry_cell_setting            triclinic
loop_
_symmetry_equiv_pos_as_xyz
'x, y, z'
_cell_length_a     29.34358
_cell_length_b     25.583748
_cell_length_c     39.368373
_cell_angle_alpha  90.104366
_cell_angle_beta   96.250891
_cell_angle_gamma 89.96152
loop_
_atom_site_label
_atom_site_type_symbol
_atom_site_fract_x
_atom_site_fract_y
_atom_site_fract_z
_atom_type_partial_charge
Tb0 Tb 0.96681 0.94938 0.98325 0.0
Eu1 Eu 0.05316 0.03546 0.99131 0.0
C2 C 1.00823 0.99328 0.91964 0.0
C3 C 0.06896 0.91177 0.98629 0.0
C4 C 0.84626 0.90464 0.982 0.0
C5 C 0.76574 0.90623 0.95893 0.0
C6 C 0.81161 0.89451 0.95535 0.0
C7 C 0.83403 0.92655 0.01252 0.0
C8 C 0.78804 0.93784 0.01626 0.0
C9 C 0.75313 0.92804 0.98946 0.0
C10 C 0.8948 0.89436 0.9767 0.0
O11 O 0.97249 0.97935 0.03525 0.0
O12 O 0.04966 0.99475 0.04142 0.0
O13 O 0.99108 0.08085 0.00299 0.0
O14 O 0.93953 0.02676 0.9722 0.0
C15 C 1.01134 0.98577 0.05467 0.0
O16 O 0.10755 0.07667 0.0233 0.0
O17 O 0.10238 0.0848 0.96844 0.0
O18 O 0.01969 0.03607 0.93702 0.0
O19 O 0.99689 0.95046 0.93512 0.0
O20 O 0.0279 0.9013 -0.00487 0.0
O21 O 0.08069 0.9585 0.97685 0.0
C22 C 0.94924 0.07002 0.98938 0.0
O23 O 0.91008 0.92002 0.95175 0.0
O24 O 0.92496 0.89322 0.00364 0.0
C25 C 0.17778 0.07943 -0.00181 0.0
C26 C 0.27257 0.05412 0.0009 0.0
C27 C 0.25387 0.07322 0.02998 0.0
C28 C 0.20716 0.08583 0.0286 0.0
C29 C 0.19638 0.06024 0.96913 0.0
C30 C 0.24307 0.04784 0.97047 0.0
C31 C 0.12803 0.092 -0.00272 0.0
H32 H 0.74031 0.89902 0.93739 0.0
H33 H 0.82014 0.87817 0.93143 0.0
H34 H 0.85997 0.93526 0.0335 0.0
H35 H 0.77991 0.95391 0.04033 0.0
H36 H 0.2752 0.07783 0.05402 0.0
H37 H 0.19391 0.10033 0.05146 0.0
H38 H 0.17492 0.05473 0.94522 0.0
H39 H 0.25613 0.03398 0.94739 0.0
Tb40 Tb 0.06917 0.95156 0.49118 0.0
Eu41 Eu 0.9832 0.03909 0.48791 0.0
C42 C 0.03159 0.99352 0.55637 0.0
C43 C 0.96685 0.915 0.48142 0.0
C44 C 0.18993 0.90768 0.49378 0.0
C45 C 0.26033 0.95482 0.51302 0.0
C46 C 0.2142 0.94376 0.51591 0.0
C47 C 0.21296 0.88316 0.46864 0.0
C48 C 0.25911 0.89456 0.46555 0.0
C49 C 0.28354 0.9306 0.48772 0.0
C50 C 0.1408 0.89582 0.4965 0.0
O51 O 0.06161 0.98313 0.43966 0.0
O52 O 0.98587 0.00869 0.43462 0.0
O53 O 0.04446 0.08698 0.47834 0.0
O54 O 0.09939 0.02802 0.50092 0.0
C55 C 0.0231 0.99518 0.42107 0.0
O56 O 0.93109 0.09125 0.46244 0.0
O57 O 0.93246 0.07646 0.51664 0.0
O58 O 0.02228 0.03754 0.54016 0.0
O59 O 0.03867 0.95068 0.53928 0.0
O60 O 1.00897 0.90455 0.47508 0.0
O61 O 0.95493 0.95942 0.49452 0.0
C62 C 0.08721 0.07407 0.48824 0.0
O63 O 0.12293 0.91606 0.52242 0.0
O64 O 0.11281 0.89939 0.46852 0.0
C65 C 0.85924 0.08357 0.48555 0.0
C66 C 0.76468 0.05729 0.48135 0.0
C67 C 0.79201 0.0403 0.45614 0.0
C68 C 0.83873 0.05312 0.45827 0.0
C69 C 0.83216 0.10054 0.51068 0.0
C70 C 0.78561 0.08745 0.50872 0.0
C71 C 0.90906 0.09553 0.48942 0.0
H72 H 0.2779 0.98195 0.53104 0.0
H73 H 0.19768 0.96357 0.53561 0.0
H74 H 0.19514 0.85533 0.45117 0.0
H75 H 0.27537 0.8756 0.44542 0.0
H76 H 0.77731 0.01743 0.43452 0.0
H77 H 0.85881 0.03889 0.43866 0.0
H78 H 0.84723 0.12341 0.53222 0.0
H79 H 0.76627 0.10029 0.52909 0.0
Tb80 Tb 0.47548 0.46511 -0.0044 0.0
Eu81 Eu 0.56313 0.54922 0.0051 0.0
C82 C 0.51755 0.51018 0.93316 0.0
C83 C 0.57726 0.42521 0.00172 0.0
C84 C 0.35433 0.42125 0.9903 0.0
C85 C 0.27456 0.42014 0.96572 0.0
C86 C 0.32073 0.40861 0.96345 0.0
C87 C 0.34088 0.4458 0.0196 0.0
C88 C 0.29457 0.4571 0.02199 0.0
C89 C 0.2607 0.44434 -0.00492 0.0
C90 C 0.40314 0.41108 0.98625 0.0
O91 O 0.48084 0.4928 0.04814 0.0
O92 O 0.55805 0.50862 0.05524 0.0
O93 O 0.50281 0.59553 0.01859 0.0
O94 O 0.44878 0.54359 0.98801 0.0
C95 C 0.51945 0.49872 0.06799 0.0
O96 O 0.61989 0.58751 0.0364 0.0
O97 O 0.60995 0.60118 0.98195 0.0
O98 O 0.52874 0.55233 0.95116 0.0
O99 O 0.50716 0.46675 0.94823 0.0
O100 O 0.5351 0.41538 0.00837 0.0
O101 O 0.59056 0.47132 0.99215 0.0
C102 C 0.46048 0.58579 0.00587 0.0
O103 O 0.41969 0.43791 0.96233 0.0
O104 O 0.43198 0.40874 0.01391 0.0
C105 C 0.68679 0.59397 0.00793 0.0
C106 C 0.78065 0.56869 0.00578 0.0
C107 C 0.76612 0.59638 0.03366 0.0
C108 C 0.7198 0.60898 0.03464 0.0
C109 C 0.70108 0.56621 0.98007 0.0
C110 C 0.74741 0.55396 0.97895 0.0
C111 C 0.63771 0.60601 0.00999 0.0
H112 H 0.24982 0.41087 0.94411 0.0
H113 H 0.33033 0.39038 0.9404 0.0
H114 H 0.36612 0.45659 0.04058 0.0
H115 H 0.28533 0.47542 0.04509 0.0
H116 H 0.7904 0.60767 0.0551 0.0
H117 H 0.70967 0.63004 0.05651 0.0
H118 H 0.67649 0.55375 0.95911 0.0
H119 H 0.75714 0.53334 0.95681 0.0
Tb120 Tb 0.56799 0.46283 0.50526 0.0
Eu121 Eu 0.48122 0.54748 0.49715 0.0
C122 C 0.5294 0.51044 0.56893 0.0
C123 C 0.46628 0.42471 0.50458 0.0
C124 C 0.68795 0.41647 0.50603 0.0
C125 C 0.76911 0.40371 0.5244 0.0
C126 C 0.72304 0.39278 0.52768 0.0
C127 C 0.69969 0.45129 0.48082 0.0
C128 C 0.74582 0.46193 0.4773 0.0
C129 C 0.78131 0.43849 0.49917 0.0
C130 C 0.63959 0.40699 0.51161 0.0
O131 O 0.56156 0.49253 0.45328 0.0
O132 O 0.48415 0.50403 0.44766 0.0
O133 O 0.54223 0.59344 0.48443 0.0
O134 O 0.59571 0.54059 0.51447 0.0
C135 C 0.5224 0.49654 0.43397 0.0
O136 O 0.42584 0.58665 0.46497 0.0
O137 O 0.43209 0.59733 0.51973 0.0
O138 O 0.51655 0.55203 0.55083 0.0
O139 O 0.53992 0.4667 0.55407 0.0
O140 O 0.50682 0.41431 0.4947 0.0
O141 O 0.4551 0.47152 0.51426 0.0
C142 C 0.58447 0.58375 0.4976 0.0
O143 O 0.62492 0.43355 0.53648 0.0
O144 O 0.6094 0.40625 0.48469 0.0
C145 C 0.35675 0.58911 0.491 0.0
C146 C 0.2628 0.56135 0.48948 0.0
C147 C 0.278 0.59403 0.46419 0.0
C148 C 0.32434 0.60784 0.46504 0.0
C149 C 0.34193 0.55586 0.51601 0.0
C150 C 0.29557 0.54237 0.51534 0.0
C151 C 0.40587 0.60299 0.49102 0.0
H152 H 0.79508 0.38569 0.54225 0.0
H153 H 0.71477 0.36642 0.54763 0.0
H154 H 0.67321 0.47063 0.46403 0.0
H155 H 0.75355 0.48841 0.4573 0.0
H156 H 0.25419 0.6086 0.44342 0.0
H157 H 0.33494 0.63295 0.44521 0.0
H158 H 0.36613 0.54024 0.53619 0.0
H159 H 0.28544 0.51765 0.53551 0.0
H160 H 0.3803 0.55707 0.02637 0.0
H161 H 0.31278 0.61142 0.03006 0.0
H162 H 0.38866 0.7471 0.00315 0.0
H163 H 0.45729 0.6924 0.00075 0.0
H164 H 0.32956 0.77321 0.04682 0.0
H165 H 0.32584 0.67646 0.94419 0.0
H166 H 0.3294 0.5997 0.90674 0.0
H167 H 0.20844 0.53702 0.94349 0.0
H168 H 0.20516 0.6124 0.9824 0.0
H169 H 0.15059 0.91811 0.96036 0.0
H170 H 0.21518 0.85891 0.97013 0.0
H171 H 0.13505 0.75495 0.02596 0.0
H172 H 0.0693 0.81498 0.01676 0.0
H173 H 0.19371 0.71181 0.97113 0.0
H174 H 0.20032 0.82026 0.07305 0.0
H175 H 0.19786 0.90587 0.10167 0.0
H176 H 0.31477 0.95676 0.05385 0.0
H177 H 0.31722 0.87196 0.02418 0.0
C178 C 0.38268 0.5987 0.02184 0.0
C179 C 0.42332 0.62085 0.01274 0.0
C180 C 0.34422 0.62961 0.02395 0.0
C181 C 0.34548 0.68289 0.01597 0.0
C182 C 0.38706 0.70588 0.00917 0.0
C183 C 0.42606 0.67488 0.00774 0.0
C184 C 0.30245 0.7131 0.01185 0.0
C185 C 0.29989 0.75977 0.03027 0.0
C186 C 0.26382 0.69549 0.99001 0.0
C187 C 0.26586 0.64968 0.96685 0.0
C188 C 0.30045 0.64589 0.94484 0.0
C189 C 0.30243 0.60257 0.92336 0.0
C190 C 0.26947 0.56319 0.9231 0.0
C191 C 0.23433 0.5672 0.94418 0.0
C192 C 0.23248 0.61013 0.96604 0.0
C193 C 0.14622 0.88255 0.97455 0.0
C194 C 0.10492 0.87147 0.98821 0.0
C195 C 0.1833 0.84888 0.98008 0.0
C196 C 0.17978 0.80343 -0.00082 0.0
C197 C 0.13809 0.79041 0.01139 0.0
C198 C 0.10069 0.82446 0.00599 0.0
C199 C 0.22061 0.77065 0.00669 0.0
C200 C 0.22301 0.72405 0.98843 0.0
C201 C 0.25941 0.78917 0.02769 0.0
C202 C 0.25876 0.83977 0.04623 0.0
C203 C 0.22529 0.84983 0.06841 0.0
C204 C 0.22388 0.89825 0.0848 0.0
C205 C 0.25602 0.93682 0.07944 0.0
C206 C 0.28977 0.92695 0.05782 0.0
C207 C 0.29121 0.87867 0.04124 0.0
H208 H 0.25484 0.97431 0.09211 0.0
H209 H 0.27094 0.52975 0.90637 0.0
H210 H 0.5671 0.3197 0.99052 0.0
H211 H 0.6292 0.25486 0.99228 0.0
H212 H 0.72767 0.37485 0.02561 0.0
H213 H 0.66661 0.43936 0.02256 0.0
H214 H 0.7545 0.32465 0.97436 0.0
H215 H 0.69548 0.27589 0.07973 0.0
H216 H 0.63465 0.24888 0.11456 0.0
H217 H 0.61166 0.10959 0.05427 0.0
H218 H 0.67217 0.13589 0.01879 0.0
H219 H 0.95268 0.16923 0.01659 0.0
H220 H 0.88714 0.22656 0.02353 0.0
H221 H 0.79437 0.10835 0.97901 0.0
H222 H 0.85865 0.05089 0.97237 0.0
H223 H 0.76366 0.15489 0.03542 0.0
H224 H 0.82293 0.20255 0.93108 0.0
H225 H 0.88188 0.22991 0.89475 0.0
H226 H 0.90207 0.37276 0.95166 0.0
H227 H 0.84381 0.34588 0.98889 0.0
C228 C 0.60201 0.33176 -0.00147 0.0
C229 C 0.61238 0.38434 0.00595 0.0
C230 C 0.63735 0.29486 -0.00033 0.0
C231 C 0.68303 0.31019 0.00906 0.0
C232 C 0.69277 0.36232 0.01797 0.0
C233 C 0.65786 0.39909 0.01621 0.0
C234 C 0.7215 0.27335 0.00759 0.0
C235 C 0.75685 0.28793 0.9882 0.0
C236 C 0.72369 0.22476 0.02472 0.0
C237 C 0.68807 0.20813 0.04643 0.0
C238 C 0.67732 0.23959 0.07379 0.0
C239 C 0.64295 0.22437 0.09366 0.0
C240 C 0.61927 0.17757 0.08655 0.0
C241 C 0.63011 0.14576 0.05969 0.0
C242 C 0.66447 0.16078 0.03973 0.0
C243 C 0.91834 0.15559 0.00825 0.0
C244 C 0.91096 0.10596 0.99341 0.0
C245 C 0.8811 0.18824 0.01225 0.0
C246 C 0.83625 0.17165 0.00145 0.0
C247 C 0.82878 0.12174 0.98747 0.0
C248 C 0.86574 0.08925 0.98338 0.0
C249 C 0.79701 0.20711 0.00301 0.0
C250 C 0.76141 0.19196 0.02199 0.0
C251 C 0.79446 0.25532 0.9855 0.0
C252 C 0.82952 0.27174 0.96316 0.0
C253 C 0.84032 0.23953 0.93616 0.0
C254 C 0.87354 0.25502 0.91536 0.0
C255 C 0.89587 0.30295 0.92104 0.0
C256 C 0.88484 0.3356 0.94743 0.0
C257 C 0.85173 0.32023 0.96839 0.0
H258 H 0.92157 0.31491 0.90491 0.0
H259 H 0.59258 0.16591 0.10189 0.0
H260 H 0.1731 0.05135 0.47527 0.0
H261 H 0.23773 0.1107 0.47505 0.0
H262 H 0.15076 0.24049 0.4959 0.0
H263 H 0.08484 0.18089 0.49469 0.0
H264 H 0.20869 0.26886 0.45247 0.0
H265 H 0.21938 0.18029 0.55839 0.0
H266 H 0.22199 0.10679 0.59889 0.0
H267 H 0.34654 0.0517 0.56319 0.0
H268 H 0.34386 0.12377 0.52153 0.0
H269 H 0.38156 0.43551 0.52531 0.0
H270 H 0.31886 0.37365 0.51899 0.0
H271 H 0.40519 0.26042 0.47593 0.0
H272 H 0.46919 0.32303 0.48169 0.0
H273 H 0.34904 0.22394 0.52905 0.0
H274 H 0.33401 0.31782 0.4219 0.0
H275 H 0.3318 0.39866 0.38773 0.0
H276 H 0.21509 0.45217 0.43488 0.0
H277 H 0.21688 0.3719 0.46973 0.0
C278 C 0.16762 0.09263 0.47958 0.0
C279 C 0.12429 0.11168 0.48553 0.0
C280 C 0.20458 0.12642 0.47949 0.0
C281 C 0.1992 0.1797 0.48625 0.0
C282 C 0.1555 0.19935 0.49075 0.0
C283 C 0.11803 0.16547 0.49016 0.0
C284 C 0.23976 0.21414 0.4897 0.0
C285 C 0.23919 0.25921 0.46943 0.0
C286 C 0.27969 0.20126 0.51173 0.0
C287 C 0.28102 0.15715 0.5364 0.0
C288 C 0.24697 0.15208 0.55875 0.0
C289 C 0.24847 0.11065 0.58195 0.0
C290 C 0.28428 0.07445 0.58349 0.0
C291 C 0.31872 0.07968 0.56187 0.0
C292 C 0.31713 0.12071 0.53836 0.0
C293 C 0.38771 0.39747 0.51457 0.0
C294 C 0.43042 0.38432 0.50368 0.0
C295 C 0.35162 0.36227 0.51093 0.0
C296 C 0.35742 0.31317 0.49647 0.0
C297 C 0.40032 0.29863 0.48685 0.0
C298 C 0.43671 0.33423 0.49024 0.0
C299 C 0.31799 0.2776 0.49149 0.0
C300 C 0.31866 0.23275 0.51174 0.0
C301 C 0.27788 0.2913 0.47015 0.0
C302 C 0.27575 0.33893 0.44854 0.0
C303 C 0.30798 0.34692 0.4251 0.0
C304 C 0.30679 0.39264 0.40562 0.0
C305 C 0.27337 0.43057 0.40924 0.0
C306 C 0.24096 0.42275 0.43221 0.0
C307 C 0.24197 0.37709 0.45176 0.0
H308 H 0.27255 0.466 0.3942 0.0
H309 H 0.28544 0.04245 0.6015 0.0
H310 H 0.88116 0.93765 0.45502 0.0
H311 H 0.8151 0.87965 0.44927 0.0
H312 H 0.90223 0.74976 0.48326 0.0
H313 H 0.96938 0.80819 0.48853 0.0
H314 H 0.83131 0.72187 0.43375 0.0
H315 H 0.85126 0.81497 0.53975 0.0
H316 H 0.86328 0.89301 0.57642 0.0
H317 H 0.73479 0.95625 0.53256 0.0
H318 H 0.7224 0.87912 0.49483 0.0
H319 H 0.67574 0.56575 0.51102 0.0
H320 H 0.73837 0.62284 0.50001 0.0
H321 H 0.64178 0.74109 0.46091 0.0
H322 H 0.5779 0.68369 0.47192 0.0
H323 H 0.7146 0.77686 0.509 0.0
H324 H 0.69226 0.67471 0.407 0.0
H325 H 0.68248 0.5937 0.37306 0.0
H326 H 0.81743 0.54349 0.41276 0.0
H327 H 0.82758 0.62344 0.44781 0.0
C328 C 0.88637 0.89653 0.46078 0.0
C329 C 0.92992 0.87727 0.47293 0.0
C330 C 0.84869 0.86353 0.45738 0.0
C331 C 0.85382 0.81095 0.46673 0.0
C332 C 0.89782 0.79052 0.47629 0.0
C333 C 0.93596 0.82369 0.47931 0.0
C334 C 0.81265 0.77923 0.46981 0.0
C335 C 0.80592 0.73345 0.45038 0.0
C336 C 0.77935 0.79536 0.49114 0.0
C337 C 0.78625 0.84157 0.51407 0.0
C338 C 0.82576 0.84576 0.5376 0.0
C339 C 0.83263 0.88985 0.55856 0.0
C340 C 0.79994 0.92974 0.55657 0.0
C341 C 0.76022 0.9255 0.53375 0.0
C342 C 0.75326 0.88162 0.51257 0.0
C343 C 0.66747 0.60401 0.50029 0.0
C344 C 0.62174 0.62037 0.49244 0.0
C345 C 0.70344 0.63634 0.49377 0.0
C346 C 0.69448 0.68564 0.47929 0.0
C347 C 0.64905 0.70282 0.47194 0.0
C348 C 0.61276 0.67015 0.47826 0.0
C349 C 0.73314 0.71941 0.47294 0.0
C350 C 0.73959 0.76557 0.49197 0.0
C351 C 0.76637 0.70315 0.45161 0.0
C352 C 0.76048 0.655 0.43037 0.0
C353 C 0.71968 0.64616 0.40885 0.0
C354 C 0.71408 0.6004 0.38939 0.0
C355 C 0.74925 0.56339 0.39086 0.0
C356 C 0.79018 0.57216 0.41171 0.0
C357 C 0.79584 0.61768 0.43143 0.0
H358 H 0.74486 0.52799 0.37577 0.0
H359 H 0.80527 0.96383 0.57284 0.0
H360 H 0.34614 0.10571 0.03528 0.0
H361 H 0.42755 0.08465 0.03671 0.0
H362 H 0.39426 0.95322 0.96985 0.0
H363 H 0.31274 0.9725 0.96965 0.0
H364 H 0.45841 0.92582 0.01754 0.0
H365 H 0.43633 0.07502 0.9425 0.0
H366 H 0.41459 0.16543 0.92618 0.0
H367 H 0.51179 0.22454 0.00649 0.0
H368 H 0.53336 0.13447 0.02373 0.0
H369 H 0.67553 0.87497 0.9629 0.0
H370 H 0.59571 0.89745 0.96702 0.0
H371 H 0.63843 0.03027 0.03014 0.0
H372 H 0.71841 0.01042 0.02403 0.0
H373 H 0.57047 0.05866 0.98788 0.0
H374 H 0.59431 0.91156 0.06253 0.0
H375 H 0.61774 0.82185 0.07937 0.0
H376 H 0.51894 0.75962 0.00131 0.0
H377 H 0.49508 0.84894 0.98386 0.0
C378 C 0.35599 0.07196 0.02115 0.0
C379 C 0.32255 0.04113 0.0021 0.0
C380 C 0.40278 0.06031 0.02165 0.0
C381 C 0.41744 0.01787 0.00284 0.0
C382 C 0.38409 0.98645 0.98437 0.0
C383 C 0.33734 -0.0021 0.98398 0.0
C384 C 0.46732 0.00574 0.00252 0.0
C385 C 0.48276 0.95478 0.01063 0.0
C386 C 0.49973 0.04379 -0.00533 0.0
C387 C 0.48614 0.09795 0.98462 0.0
C388 C 0.45271 0.10728 0.9569 0.0
C389 C 0.44045 0.15848 0.94746 0.0
C390 C 0.46168 0.2007 0.96535 0.0
C391 C 0.49526 0.19182 0.99271 0.0
C392 C 0.50751 0.1407 0.00233 0.0
C393 C 0.66818 0.90942 0.97735 0.0
C394 C 0.70396 0.94073 0.99312 0.0
C395 C 0.62223 0.92179 0.98016 0.0
C396 C 0.6106 0.96514 -0.00052 0.0
C397 C 0.64618 -0.00349 0.01522 0.0
C398 C 0.69217 0.98462 0.01203 0.0
C399 C 0.56146 0.97851 0.00243 0.0
C400 C 0.54618 0.02972 -0.00508 0.0
C401 C 0.52923 0.9408 0.01105 0.0
C402 C 0.54319 0.88699 0.02171 0.0
C403 C 0.57773 0.87874 0.04885 0.0
C404 C 0.59102 0.82795 0.05855 0.0
C405 C 0.56985 0.78505 0.04141 0.0
C406 C 0.53523 0.79286 0.01461 0.0
C407 C 0.52176 0.84357 0.00484 0.0
H408 H 0.58024 0.74575 0.04891 0.0
H409 H 0.45219 0.2403 0.95796 0.0
H410 H 0.32783 0.0248 0.49808 0.0
H411 H 0.40879 0.04399 0.49676 0.0
H412 H 0.43199 0.88533 0.4654 0.0
H413 H 0.35174 0.86457 0.47017 0.0
H414 H 0.49963 0.9109 0.50747 0.0
H415 H 0.4254 -0.00135 0.40903 0.0
H416 H 0.36953 0.0579 0.37753 0.0
H417 H 0.42609 0.18789 0.43701 0.0
H418 H 0.48184 0.12931 0.46927 0.0
H419 H 0.72173 0.96619 0.45772 0.0
H420 H 0.64074 0.94329 0.45647 0.0
H421 H 0.61319 0.09343 0.49979 0.0
H422 H 0.69368 0.1173 0.50019 0.0
H423 H 0.54851 0.06981 0.44928 0.0
H424 H 0.62074 0.97985 0.54881 0.0
H425 H 0.67579 0.91958 0.58021 0.0
H426 H 0.62327 0.79249 0.51622 0.0
H427 H 0.5681 0.85209 0.48423 0.0
C428 C 0.35023 0.99359 0.49167 0.0
C429 C 0.3329 0.94294 0.48467 0.0
C430 C 0.39663 0.00494 0.49015 0.0
C431 C 0.42687 0.9665 0.48026 0.0
C432 C 0.40964 0.91593 0.47298 0.0
C433 C 0.36338 0.90423 0.4753 0.0
C434 C 0.47643 0.97873 0.47806 0.0
C435 C 0.51013 0.94522 0.4942 0.0
C436 C 0.49074 0.02403 0.46135 0.0
C437 C 0.45757 0.05948 0.44174 0.0
C438 C 0.42575 0.03982 0.41553 0.0
C439 C 0.39409 0.0733 0.39755 0.0
C440 C 0.39416 0.1266 0.40536 0.0
C441 C 0.42599 0.14658 0.43108 0.0
C442 C 0.45767 0.11327 0.44918 0.0
C443 C 0.69848 0.9947 0.46664 0.0
C444 C 0.71477 0.04352 0.47942 0.0
C445 C 0.6521 0.98123 0.46627 0.0
C446 C 0.62075 0.01628 0.47852 0.0
C447 C 0.63662 0.06548 0.49042 0.0
C448 C 0.68294 0.0789 0.49092 0.0
C449 C 0.57138 0.00215 0.4788 0.0
C450 C 0.53781 0.03532 0.46231 0.0
C451 C 0.55722 0.95636 0.4949 0.0
C452 C 0.59058 0.92054 0.51393 0.0
C453 C 0.62114 0.93913 0.54128 0.0
C454 C 0.65226 0.90504 0.55925 0.0
C455 C 0.65312 0.85227 0.55014 0.0
C456 C 0.62267 0.83341 0.52315 0.0
C457 C 0.5914 0.86729 0.50515 0.0
H458 H 0.67739 0.82601 0.56397 0.0
H459 H 0.36962 0.15245 0.39143 0.0
H460 H 0.81753 0.47947 0.98046 0.0
H461 H 0.8982 0.45862 0.97795 0.0
H462 H 0.93714 0.60463 0.02769 0.0
H463 H 0.8565 0.62739 0.02841 0.0
H464 H 0.98711 0.58856 0.97754 0.0
H465 H 0.94018 0.48012 0.06827 0.0
H466 H 0.89418 0.41246 0.09324 0.0
H467 H 0.93958 0.29824 0.02427 0.0
H468 H 0.98442 0.36538 -0.00185 0.0
H469 H 0.22339 0.53039 0.02393 0.0
H470 H 0.1423 0.5515 0.02513 0.0
H471 H 0.10461 0.40762 0.97219 0.0
H472 H 0.18543 0.38573 0.97141 0.0
H473 H 0.05424 0.42187 0.02347 0.0
H474 H 0.09556 0.52266 0.9306 0.0
H475 H 0.13718 0.58637 0.89869 0.0
H476 H 0.1008 0.7094 0.96489 0.0
H477 H 0.05976 0.64628 -0.00223 0.0
C478 C 0.84311 0.50759 0.9905 0.0
C479 C 0.83013 0.55521 0.00473 0.0
C480 C 0.88943 0.49518 0.98946 0.0
C481 C 0.92403 0.52952 0.00318 0.0
C482 C 0.91123 0.57722 0.01712 0.0
C483 C 0.86493 0.58995 0.01786 0.0
C484 C 0.97354 0.51636 0.00261 0.0
C485 C 1.00191 0.55247 0.98815 0.0
C486 C 0.99269 0.4683 0.01517 0.0
C487 C 0.96529 0.42804 0.03096 0.0
C488 C 0.93989 0.44072 0.05815 0.0
C489 C 0.91395 0.4024 0.07251 0.0
C490 C 0.91369 0.35109 0.06025 0.0
C491 C 0.93951 0.33796 0.03369 0.0
C492 C 0.96511 0.37618 0.01904 0.0
C493 C 0.19794 0.50288 0.01285 0.0
C494 C 0.21124 0.4565 -0.00273 0.0
C495 C 0.15149 0.51535 0.01321 0.0
C496 C 0.11723 0.48148 -0.00164 0.0
C497 C 0.13034 0.43458 0.98362 0.0
C498 C 0.17671 0.42231 0.98298 0.0
C499 C 0.06772 0.49427 -0.00127 0.0
C500 C 0.03943 0.45811 0.01311 0.0
C501 C 0.04845 0.5418 0.98554 0.0
C502 C 0.07504 0.57954 0.96695 0.0
C503 C 0.09702 0.56315 0.93873 0.0
C504 C 0.12034 0.59922 0.92036 0.0
C505 C 0.12179 0.65187 0.92985 0.0
C506 C 0.09989 0.66856 0.95773 0.0
C507 C 0.0766 0.63265 0.97625 0.0
H508 H 0.13985 0.67974 0.91559 0.0
H509 H 0.89361 0.32146 0.07138 0.0
H510 H 0.22456 0.46868 0.50827 0.0
H511 H 0.14357 0.44774 0.50891 0.0
H512 H 0.10671 0.60089 0.46932 0.0
H513 H 0.18762 0.62316 0.47024 0.0
H514 H 0.0568 0.57817 0.51845 0.0
H515 H 0.0954 0.4858 0.41831 0.0
H516 H 0.14008 0.42429 0.38672 0.0
H517 H 0.10625 0.29892 0.4518 0.0
H518 H 0.06158 0.35974 0.48394 0.0
H519 H 0.81919 0.53189 0.48178 0.0
H520 H 0.89935 0.55152 0.47657 0.0
H521 H 0.93677 0.39438 0.50808 0.0
H522 H 0.85618 0.37303 0.50991 0.0
H523 H 0.98689 0.41924 0.46249 0.0
H524 H 0.94905 0.50945 0.56298 0.0
H525 H 0.90517 0.56979 0.59599 0.0
H526 H 0.93963 0.69789 0.53329 0.0
H527 H 0.98302 0.63815 0.49947 0.0
C528 C 0.19937 0.49826 0.50003 0.0
C529 C 0.21307 0.54771 0.4891 0.0
C530 C 0.15284 0.48587 0.49995 0.0
C531 C 0.1187 0.5224 0.48867 0.0
C532 C 0.13222 0.57183 0.47797 0.0
C533 C 0.17871 0.58433 0.47817 0.0
C534 C 0.06897 0.50978 0.48878 0.0
C535 C 0.04139 0.54377 0.50579 0.0
C536 C 0.0489 0.46414 0.47314 0.0
C537 C 0.07542 0.42742 0.45367 0.0
C538 C 0.09765 0.44516 0.42597 0.0
C539 C 0.12287 0.41039 0.40793 0.0
C540 C 0.12611 0.35776 0.41732 0.0
C541 C 0.10383 0.33971 0.44463 0.0
C542 C 0.07843 0.37428 0.4627 0.0
C543 C 0.84422 0.50103 0.48677 0.0
C544 C 0.8307 0.45075 0.49618 0.0
C545 C 0.89044 0.51266 0.48447 0.0
C546 C 0.92474 0.47489 0.49273 0.0
C547 C 0.91131 0.4245 0.50174 0.0
C548 C 0.86499 0.4125 0.50324 0.0
C549 C 0.9745 0.48768 0.4922 0.0
C550 C 1.00216 0.4537 0.47515 0.0
C551 C 0.99478 0.53314 0.50807 0.0
C552 C 0.96892 0.56921 0.52849 0.0
C553 C 0.94699 0.55042 0.55608 0.0
C554 C 0.9222 0.58452 0.57491 0.0
C555 C 0.91944 0.6376 0.56663 0.0
C556 C 0.94161 0.65673 0.53956 0.0
C557 C 0.96634 0.62278 0.52056 0.0
H558 H 0.90024 0.66394 0.58125 0.0
H559 H 0.14589 0.33098 0.40346 0.0
H560 H 0.98213 0.06408 0.3748 0.0
H561 H 0.98075 0.06077 0.31259 0.0
H562 H 0.05674 0.91577 0.32107 0.0
H563 H 0.06135 0.92169 0.38335 0.0
H564 H 0.08701 0.96484 0.27511 0.0
H565 H 0.93331 0.92709 0.29555 0.0
H566 H 0.85969 0.94068 0.31914 0.0
H567 H 0.83962 0.08459 0.26354 0.0
H568 H 0.91342 0.0722 0.23997 0.0
H569 H 0.95112 0.9363 0.09194 0.0
H570 H 0.95303 0.93327 0.15421 0.0
H571 H 0.07253 0.03286 0.16395 0.0
H572 H 0.07224 0.03336 0.10196 0.0
H573 H 0.94275 -0.00151 0.20045 0.0
H574 H 0.14073 0.01186 0.23565 0.0
H575 H 0.21126 0.98414 0.2118 0.0
H576 H 0.13713 0.86105 0.1559 0.0
H577 H 0.06633 0.88745 0.17985 0.0
C578 C 0.99858 0.03168 0.36322 0.0
C579 C 0.02173 0.99306 0.38364 0.0
C580 C 0.99748 0.02948 0.32766 0.0
C581 C 1.01768 0.98731 0.31181 0.0
C582 C 0.04091 0.94878 0.33245 0.0
C583 C 0.04342 0.95202 0.36803 0.0
C584 C 1.01516 0.98357 0.27385 0.0
C585 C 0.05535 0.972 0.25887 0.0
C586 C 0.97372 0.99157 0.25237 0.0
C587 C 0.92907 -0.0011 0.26621 0.0
C588 C 0.9133 0.96176 0.28849 0.0
C589 C 0.87154 0.96925 0.30185 0.0
C590 C 0.84504 0.01353 0.2929 0.0
C591 C 0.86019 0.05033 0.27048 0.0
C592 C 0.90196 0.04307 0.25708 0.0
C593 C 0.97793 0.95722 0.10746 0.0
C594 C 1.01182 0.98457 0.09219 0.0
C595 C 0.97893 0.95565 0.14304 0.0
C596 C 1.01339 0.98209 0.16397 0.0
C597 C 0.0464 0.01077 0.14855 0.0
C598 C 0.04608 0.01128 0.11307 0.0
C599 C 1.01462 0.98015 0.20185 0.0
C600 C 0.97427 0.99088 0.21676 0.0
C601 C 0.05541 0.9689 0.22328 0.0
C602 C 0.09811 0.95201 0.20932 0.0
C603 C 0.13953 0.9787 0.21843 0.0
C604 C 0.17955 0.96324 0.20486 0.0
C605 C 0.17864 0.92097 0.18227 0.0
C606 C 0.13775 0.89388 0.17333 0.0
C607 C 0.09766 0.90909 0.18688 0.0
H608 H 0.20963 0.90915 0.17174 0.0
H609 H 0.81274 0.01927 0.30329 0.0
H610 H 0.02219 0.07586 0.87791 0.0
H611 H 0.02653 0.07404 0.81625 0.0
H612 H 1.00341 0.90757 0.81501 0.0
H613 H 0.99907 0.90889 0.87669 0.0
H614 H 0.07466 0.9371 0.77802 0.0
H615 H 0.91799 0.98599 0.78692 0.0
H616 H 0.85666 0.03896 0.80797 0.0
H617 H 0.90891 0.17637 0.76317 0.0
H618 H 0.97099 0.12431 0.74225 0.0
H619 H 0.0299 0.90754 0.59759 0.0
H620 H 0.02642 0.90609 0.65938 0.0
H621 H 0.03093 0.07468 0.66188 0.0
H622 H 0.03298 0.07643 0.6001 0.0
H623 H 0.96843 0.04238 0.69874 0.0
H624 H 0.12534 -0.0034 0.69061 0.0
H625 H 0.18904 0.94625 0.67069 0.0
H626 H 0.13972 0.80663 0.71476 0.0
H627 H 0.07533 0.85603 0.73454 0.0
C628 C 1.01793 0.03884 0.86455 0.0
C629 C 1.0101 0.99254 0.88222 0.0
C630 C 0.02033 0.03791 0.8293 0.0
C631 C 1.01498 0.99071 0.81107 0.0
C632 C 1.0076 0.94438 0.82864 0.0
C633 C 1.00491 0.9453 0.86386 0.0
C634 C 1.01707 0.98975 0.77363 0.0
C635 C 0.05108 0.95952 0.76056 0.0
C636 C 0.987 0.02006 0.75108 0.0
C637 C 0.94938 0.05132 0.76329 0.0
C638 C 0.9166 0.02756 0.78176 0.0
C639 C 0.88167 0.05742 0.79364 0.0
C640 C 0.87895 0.11102 0.78698 0.0
C641 C 0.91108 0.13485 0.76834 0.0
C642 C 0.94612 0.10518 0.75643 0.0
C643 C 0.03042 0.94427 0.61135 0.0
C644 C 0.03173 0.99209 0.59395 0.0
C645 C 0.02859 0.9434 0.64671 0.0
C646 C 0.02888 0.99029 0.6654 0.0
C647 C 0.03055 0.03801 0.64804 0.0
C648 C 0.03185 0.03892 0.6127 0.0
C649 C 0.02631 0.98991 0.70291 0.0
C650 C 0.9921 0.01986 0.71606 0.0
C651 C 0.05651 0.95971 0.72556 0.0
C652 C 0.09524 0.92992 0.71374 0.0
C653 C 0.12787 0.95508 0.69582 0.0
C654 C 0.16414 0.92672 0.68459 0.0
C655 C 0.16835 0.87324 0.69137 0.0
C656 C 0.13637 0.84804 0.70948 0.0
C657 C 0.1 0.8762 0.72072 0.0
H658 H 0.19646 0.85136 0.68266 0.0
H659 H 0.8519 0.13407 0.79622 0.0
H660 H 0.44785 0.50352 0.38591 0.0
H661 H 0.44706 0.50222 0.32379 0.0
H662 H 0.59405 0.48356 0.33457 0.0
H663 H 0.5953 0.48557 0.39672 0.0
H664 H 0.56648 0.55661 0.28742 0.0
H665 H 0.52282 0.38036 0.31237 0.0
H666 H 0.47621 0.31348 0.33752 0.0
H667 H 0.35536 0.37012 0.27751 0.0
H668 H 0.40117 0.4378 0.25232 0.0
H669 H 0.59326 0.49161 0.11648 0.0
H670 H 0.59297 0.48892 0.17844 0.0
H671 H 0.44525 0.49809 0.1665 0.0
H672 H 0.44518 0.49924 0.1044 0.0
H673 H 0.47241 0.43004 0.21439 0.0
H674 H 0.51374 0.60586 0.18957 0.0
H675 H 0.55828 0.67509 0.16483 0.0
H676 H 0.68069 0.62265 0.22481 0.0
H677 H 0.637 0.55259 0.24957 0.0
C678 C 0.48003 0.49898 0.37511 0.0
C679 C 0.52163 0.49449 0.39631 0.0
C680 C 0.47948 0.49804 0.33957 0.0
C681 C 0.52044 0.49222 0.32454 0.0
C682 C 0.56203 0.48799 0.34563 0.0
C683 C 0.56263 0.48896 0.38116 0.0
C684 C 0.52007 0.49137 0.28681 0.0
C685 C 0.54643 0.52847 0.27147 0.0
C686 C 0.49284 0.45563 0.26595 0.0
C687 C 0.46537 0.41444 0.28069 0.0
C688 C 0.48626 0.37876 0.30469 0.0
C689 C 0.45999 0.34068 0.31893 0.0
C690 C 0.41284 0.33764 0.30919 0.0
C691 C 0.39188 0.37255 0.28507 0.0
C692 C 0.41799 0.41074 0.27077 0.0
C693 C 0.56068 0.493 0.12702 0.0
C694 C 0.51926 0.49595 0.10551 0.0
C695 C 0.56058 0.49166 0.16248 0.0
C696 C 0.51912 0.49423 0.1772 0.0
C697 C 0.47766 0.49619 0.15575 0.0
C698 C 0.4777 0.49695 0.12025 0.0
C699 C 0.51904 0.49517 0.21494 0.0
C700 C 0.49253 0.45817 0.2303 0.0
C701 C 0.54585 0.5313 0.23583 0.0
C702 C 0.57216 0.57366 0.22118 0.0
C703 C 0.55022 0.60886 0.19731 0.0
C704 C 0.5753 0.64828 0.18331 0.0
C705 C 0.62231 0.65318 0.19318 0.0
C706 C 0.6443 0.61876 0.21715 0.0
C707 C 0.61938 0.57921 0.2312 0.0
H708 H 0.64167 0.68372 0.1823 0.0
H709 H 0.39255 0.30818 0.32028 0.0
H710 H 0.53667 0.42789 0.61304 0.0
H711 H 0.53483 0.42984 0.67492 0.0
H712 H 0.52155 0.59768 0.67197 0.0
H713 H 0.52307 0.5962 0.60987 0.0
H714 H 0.5871 0.55887 0.72518 0.0
H715 H 0.43 0.53092 0.67877 0.0
H716 H 0.36833 0.48585 0.64246 0.0
H717 H 0.40026 0.34255 0.69652 0.0
H718 H 0.46264 0.38659 0.73281 0.0
H719 H 0.52478 0.59534 0.89221 0.0
H720 H 0.52656 0.59648 0.83033 0.0
H721 H 0.51457 0.42838 0.82746 0.0
H722 H 0.5114 0.42706 0.88919 0.0
H723 H 0.46166 0.46843 0.7765 0.0
H724 H 0.61811 0.49165 0.82195 0.0
H725 H 0.68297 0.53211 0.85762 0.0
H726 H 0.65675 0.67803 0.80538 0.0
H727 H 0.59125 0.63864 0.76973 0.0
C728 C 0.53355 0.4653 0.6255 0.0
C729 C 0.52983 0.51191 0.60651 0.0
C730 C 0.53239 0.46628 0.66085 0.0
C731 C 0.52774 0.51386 0.67788 0.0
C732 C 0.5251 0.56059 0.6592 0.0
C733 C 0.52579 0.55962 0.62374 0.0
C734 C 0.52477 0.51457 0.71516 0.0
C735 C 0.55937 0.53981 0.73646 0.0
C736 C 0.48926 0.4883 0.72974 0.0
C737 C 0.45126 0.46196 0.70831 0.0
C738 C 0.42409 0.48971 0.68276 0.0
C739 C 0.38898 0.46436 0.6622 0.0
C740 C 0.38045 0.41134 0.66713 0.0
C741 C 0.40693 0.3836 0.69271 0.0
C742 C 0.44214 0.40875 0.7133 0.0
C743 C 0.5225 0.5586 0.87842 0.0
C744 C 0.51814 0.51109 0.89565 0.0
C745 C 0.52372 0.5593 0.84304 0.0
C746 C 0.52142 0.51244 0.82428 0.0
C747 C 0.51645 0.46502 0.84138 0.0
C748 C 0.51475 0.46434 0.87671 0.0
C749 C 0.52409 0.51281 0.78682 0.0
C750 C 0.48942 0.48769 0.76538 0.0
C751 C 0.55994 0.53858 0.77215 0.0
C752 C 0.59947 0.56233 0.79341 0.0
C753 C 0.62595 0.53248 0.81825 0.0
C754 C 0.66286 0.5552 0.83844 0.0
C755 C 0.67389 0.60765 0.83383 0.0
C756 C 0.64811 0.63744 0.80896 0.0
C757 C 0.61111 0.61492 0.78874 0.0
H758 H 0.70248 0.62517 0.84949 0.0
H759 H 0.35327 0.39177 0.65117 0.0
loop_
_geom_bond_atom_site_label_1
_geom_bond_atom_site_label_2
_geom_bond_distance
_geom_bond_site_symmetry_2
_ccdc_geom_bond_type
Tb0 C10 2.825 . S
Tb0 O11 2.347 1_556 S
Tb0 O14 2.366 1_565 S
Tb0 O19 2.418 . S
Tb0 O20 2.384 1_655 S
Tb0 O23 2.479 . S
Tb0 O24 2.471 1_556 S
Eu1 O12 2.418 . S
Eu1 O13 2.384 1_455 S
Eu1 O16 2.479 . S
Eu1 O17 2.471 1_554 S
Eu1 O18 2.347 1_554 S
Eu1 O21 2.366 1_545 S
Eu1 C31 2.825 . S
C2 O18 1.259 1_665 S
C2 O19 1.265 . S
C3 O20 1.255 1_554 S
C3 O21 1.265 . S
C4 C6 1.381 1_554 S
C4 C7 1.372 . S
C4 C10 1.507 1_554 S
C5 C6 1.384 . S
C5 C9 1.387 1_556 S
C5 H32 0.930 . S
C6 C4 1.381 1_556 S
C6 C5 1.384 . S
C6 H33 0.931 . S
C7 C4 1.372 . S
C7 C8 1.390 . S
C7 H34 0.930 . S
C8 C7 1.390 . S
C8 C9 1.391 . S
C8 H35 0.930 . S
C9 C5 1.387 1_554 S
C9 C8 1.391 . S
C10 Tb0 2.825 . S
C10 C4 1.507 1_556 S
C10 O23 1.238 . S
C10 O24 1.247 1_556 S
O11 Tb0 2.347 1_554 S
O11 C15 1.259 1_665 S
O12 Eu1 2.418 . S
O12 C15 1.265 . S
O13 Eu1 2.384 1_655 S
O13 C22 1.255 1_554 S
O14 Tb0 2.366 1_545 S
O14 C22 1.265 . S
C15 O11 1.259 1_445 S
C15 O12 1.265 . S
O16 Eu1 2.479 . S
O16 C31 1.238 . S
O17 Eu1 2.471 1_556 S
O17 C31 1.247 1_556 S
O18 Eu1 2.347 1_556 S
O18 C2 1.259 1_445 S
O19 Tb0 2.418 . S
O19 C2 1.265 . S
O20 Tb0 2.384 1_455 S
O20 C3 1.255 1_556 S
O21 Eu1 2.366 1_565 S
O21 C3 1.265 . S
C22 O13 1.255 1_556 S
C22 O14 1.265 . S
O23 Tb0 2.479 . S
O23 C10 1.238 . S
O24 Tb0 2.471 1_554 S
O24 C10 1.247 1_554 S
C25 C28 1.386 . S
C25 C29 1.366 1_554 S
C25 C31 1.508 . S
C26 C27 1.387 1_556 S
C26 C30 1.391 . S
C27 C26 1.387 1_554 S
C27 C28 1.384 . S
C27 H36 0.930 . S
C28 C25 1.386 . S
C28 C27 1.384 . S
C28 H37 0.931 . S
C29 C25 1.366 1_556 S
C29 C30 1.390 . S
C29 H38 0.930 . S
C30 C26 1.391 . S
C30 C29 1.390 . S
C30 H39 0.930 . S
C31 Eu1 2.825 . S
C31 O16 1.238 . S
C31 O17 1.247 1_554 S
C31 C25 1.508 . S
H32 C5 0.930 . S
H33 C6 0.931 . S
H34 C7 0.930 . S
H35 C8 0.930 . S
H36 C27 0.930 . S
H37 C28 0.931 . S
H38 C29 0.930 . S
H39 C30 0.930 . S
Tb40 C50 2.825 . S
Tb40 O51 2.347 . S
Tb40 O54 2.366 1_565 S
Tb40 O59 2.418 . S
Tb40 O60 2.384 1_455 S
Tb40 O63 2.479 . S
Tb40 O64 2.471 . S
Eu41 O52 2.418 . S
Eu41 O53 2.384 1_655 S
Eu41 O56 2.479 . S
Eu41 O57 2.471 . S
Eu41 O58 2.347 . S
Eu41 O61 2.366 1_545 S
Eu41 C71 2.825 . S
C42 O58 1.259 1_465 S
C42 O59 1.265 . S
C43 O60 1.255 . S
C43 O61 1.265 . S
C44 C46 1.380 . S
C44 C47 1.374 . S
C44 C50 1.507 . S
C45 C46 1.384 . S
C45 C49 1.387 . S
C45 H72 0.930 . S
C46 C44 1.380 . S
C46 C45 1.384 . S
C46 H73 0.931 . S
C47 C44 1.374 . S
C47 C48 1.390 . S
C47 H74 0.930 . S
C48 C47 1.390 . S
C48 C49 1.391 . S
C48 H75 0.930 . S
C49 C45 1.387 . S
C49 C48 1.391 . S
C50 Tb40 2.825 . S
C50 C44 1.507 . S
C50 O63 1.238 . S
C50 O64 1.247 . S
O51 Tb40 2.347 . S
O51 C55 1.259 1_465 S
O52 Eu41 2.418 . S
O52 C55 1.265 . S
O53 Eu41 2.384 1_455 S
O53 C62 1.255 . S
O54 Tb40 2.366 1_545 S
O54 C62 1.265 . S
C55 O51 1.259 1_645 S
C55 O52 1.265 . S
O56 Eu41 2.479 . S
O56 C71 1.238 . S
O57 Eu41 2.471 . S
O57 C71 1.247 . S
O58 Eu41 2.347 . S
O58 C42 1.259 1_645 S
O59 Tb40 2.418 . S
O59 C42 1.265 . S
O60 Tb40 2.384 1_655 S
O60 C43 1.255 . S
O61 Eu41 2.366 1_565 S
O61 C43 1.265 . S
C62 O53 1.255 . S
C62 O54 1.265 . S
O63 Tb40 2.479 . S
O63 C50 1.238 . S
O64 Tb40 2.471 . S
O64 C50 1.247 . S
C65 C68 1.380 . S
C65 C69 1.374 . S
C65 C71 1.507 . S
C66 C67 1.387 . S
C66 C70 1.391 . S
C67 C66 1.387 . S
C67 C68 1.384 . S
C67 H76 0.930 . S
C68 C65 1.380 . S
C68 C67 1.384 . S
C68 H77 0.931 . S
C69 C65 1.374 . S
C69 C70 1.390 . S
C69 H78 0.930 . S
C70 C66 1.391 . S
C70 C69 1.390 . S
C70 H79 0.930 . S
C71 Eu41 2.825 . S
C71 O56 1.238 . S
C71 O57 1.247 . S
C71 C65 1.507 . S
H72 C45 0.930 . S
H73 C46 0.931 . S
H74 C47 0.930 . S
H75 C48 0.930 . S
H76 C67 0.930 . S
H77 C68 0.931 . S
H78 C69 0.930 . S
H79 C70 0.930 . S
Tb80 C90 2.825 . S
Tb80 O91 2.347 1_556 S
Tb80 O94 2.366 . S
Tb80 O99 2.418 . S
Tb80 O100 2.384 . S
Tb80 O103 2.479 . S
Tb80 O104 2.471 1_556 S
Eu81 O92 2.418 . S
Eu81 O93 2.384 . S
Eu81 O96 2.479 . S
Eu81 O97 2.471 1_554 S
Eu81 O98 2.347 1_554 S
Eu81 O101 2.366 . S
Eu81 C111 2.825 . S
C82 O98 1.259 . S
C82 O99 1.265 . S
C83 O100 1.255 1_554 S
C83 O101 1.265 . S
C84 C86 1.381 1_554 S
C84 C87 1.372 . S
C84 C90 1.507 1_554 S
C85 C86 1.384 . S
C85 C89 1.387 1_556 S
C85 H112 0.930 . S
C86 C84 1.381 1_556 S
C86 C85 1.384 . S
C86 H113 0.931 . S
C87 C84 1.372 . S
C87 C88 1.390 . S
C87 H114 0.930 . S
C88 C87 1.390 . S
C88 C89 1.391 . S
C88 H115 0.930 . S
C89 C85 1.387 1_554 S
C89 C88 1.391 . S
C90 Tb80 2.825 . S
C90 C84 1.507 1_556 S
C90 O103 1.238 . S
C90 O104 1.247 1_556 S
O91 Tb80 2.347 1_554 S
O91 C95 1.259 . S
O92 Eu81 2.418 . S
O92 C95 1.265 . S
O93 Eu81 2.384 . S
O93 C102 1.255 1_554 S
O94 Tb80 2.366 . S
O94 C102 1.265 . S
C95 O91 1.259 . S
C95 O92 1.265 . S
O96 Eu81 2.479 . S
O96 C111 1.238 . S
O97 Eu81 2.471 1_556 S
O97 C111 1.247 1_556 S
O98 Eu81 2.347 1_556 S
O98 C82 1.259 . S
O99 Tb80 2.418 . S
O99 C82 1.265 . S
O100 Tb80 2.384 . S
O100 C83 1.255 1_556 S
O101 Eu81 2.366 . S
O101 C83 1.265 . S
C102 O93 1.255 1_556 S
C102 O94 1.265 . S
O103 Tb80 2.479 . S
O103 C90 1.238 . S
O104 Tb80 2.471 1_554 S
O104 C90 1.247 1_554 S
C105 C108 1.386 . S
C105 C109 1.366 1_554 S
C105 C111 1.508 . S
C106 C107 1.387 1_556 S
C106 C110 1.391 . S
C107 C106 1.387 1_554 S
C107 C108 1.384 . S
C107 H116 0.930 . S
C108 C105 1.386 . S
C108 C107 1.384 . S
C108 H117 0.931 . S
C109 C105 1.366 1_556 S
C109 C110 1.390 . S
C109 H118 0.930 . S
C110 C106 1.391 . S
C110 C109 1.390 . S
C110 H119 0.930 . S
C111 Eu81 2.825 . S
C111 O96 1.238 . S
C111 O97 1.247 1_554 S
C111 C105 1.508 . S
H112 C85 0.930 . S
H113 C86 0.931 . S
H114 C87 0.930 . S
H115 C88 0.930 . S
H116 C107 0.930 . S
H117 C108 0.931 . S
H118 C109 0.930 . S
H119 C110 0.930 . S
Tb120 C130 2.825 . S
Tb120 O131 2.347 . S
Tb120 O134 2.366 . S
Tb120 O139 2.418 . S
Tb120 O140 2.384 . S
Tb120 O143 2.479 . S
Tb120 O144 2.471 . S
Eu121 O132 2.418 . S
Eu121 O133 2.384 . S
Eu121 O136 2.479 . S
Eu121 O137 2.471 . S
Eu121 O138 2.347 . S
Eu121 O141 2.366 . S
Eu121 C151 2.825 . S
C122 O138 1.259 . S
C122 O139 1.265 . S
C123 O140 1.255 . S
C123 O141 1.265 . S
C124 C126 1.380 . S
C124 C127 1.374 . S
C124 C130 1.507 . S
C125 C126 1.384 . S
C125 C129 1.387 . S
C125 H152 0.930 . S
C126 C124 1.380 . S
C126 C125 1.384 . S
C126 H153 0.931 . S
C127 C124 1.374 . S
C127 C128 1.390 . S
C127 H154 0.930 . S
C128 C127 1.390 . S
C128 C129 1.391 . S
C128 H155 0.930 . S
C129 C125 1.387 . S
C129 C128 1.391 . S
C130 Tb120 2.825 . S
C130 C124 1.507 . S
C130 O143 1.238 . S
C130 O144 1.247 . S
O131 Tb120 2.347 . S
O131 C135 1.259 . S
O132 Eu121 2.418 . S
O132 C135 1.265 . S
O133 Eu121 2.384 . S
O133 C142 1.255 . S
O134 Tb120 2.366 . S
O134 C142 1.265 . S
C135 O131 1.259 . S
C135 O132 1.265 . S
O136 Eu121 2.479 . S
O136 C151 1.238 . S
O137 Eu121 2.471 . S
O137 C151 1.247 . S
O138 Eu121 2.347 . S
O138 C122 1.259 . S
O139 Tb120 2.418 . S
O139 C122 1.265 . S
O140 Tb120 2.384 . S
O140 C123 1.255 . S
O141 Eu121 2.366 . S
O141 C123 1.265 . S
C142 O133 1.255 . S
C142 O134 1.265 . S
O143 Tb120 2.479 . S
O143 C130 1.238 . S
O144 Tb120 2.471 . S
O144 C130 1.247 . S
C145 C148 1.380 . S
C145 C149 1.374 . S
C145 C151 1.507 . S
C146 C147 1.387 . S
C146 C150 1.391 . S
C147 C146 1.387 . S
C147 C148 1.384 . S
C147 H156 0.930 . S
C148 C145 1.380 . S
C148 C147 1.384 . S
C148 H157 0.931 . S
C149 C145 1.374 . S
C149 C150 1.390 . S
C149 H158 0.930 . S
C150 C146 1.391 . S
C150 C149 1.390 . S
C150 H159 0.930 . S
C151 Eu121 2.825 . S
C151 O136 1.238 . S
C151 O137 1.247 . S
C151 C145 1.507 . S
H152 C125 0.930 . S
H153 C126 0.931 . S
H154 C127 0.930 . S
H155 C128 0.930 . S
H156 C147 0.930 . S
H157 C148 0.931 . S
H158 C149 0.930 . S
H159 C150 0.930 . S
H160 C178 0.951 . S
H161 C180 0.951 . S
H162 C182 0.950 . S
H163 C183 0.950 . S
H164 C185 0.950 . S
H165 C188 0.950 . S
H166 C189 0.950 . S
H167 C191 0.950 . S
H168 C192 0.950 . S
H169 C193 0.951 . S
H170 C195 0.951 . S
H171 C197 0.950 . S
H172 C198 0.950 . S
H173 C200 0.950 . S
H174 C203 0.950 . S
H175 C204 0.950 . S
H176 C206 0.950 . S
H177 C207 0.950 . S
C178 H160 0.951 . S
C178 C179 1.366 . S
C178 C180 1.388 . S
C179 C178 1.366 . S
C179 C183 1.385 1_556 S
C180 H161 0.951 . S
C180 C178 1.388 . S
C180 C181 1.366 . S
C181 C180 1.366 . S
C181 C182 1.414 1_556 S
C181 C184 1.499 . S
C182 H162 0.950 . S
C182 C181 1.414 1_554 S
C182 C183 1.374 . S
C183 H163 0.950 . S
C183 C179 1.385 1_554 S
C183 C182 1.374 . S
C184 C181 1.499 . S
C184 C185 1.373 1_556 S
C184 C186 1.389 . S
C185 H164 0.950 . S
C185 C184 1.373 1_554 S
C185 C201 1.377 . S
C186 C184 1.389 . S
C186 C187 1.524 . S
C186 C200 1.377 . S
C187 C186 1.524 . S
C187 C188 1.397 . S
C187 C192 1.363 . S
C188 H165 0.950 . S
C188 C187 1.397 . S
C188 C189 1.334 . S
C189 H166 0.950 . S
C189 C188 1.334 . S
C189 C190 1.287 . S
C190 C189 1.287 . S
C190 C191 1.524 . S
C190 H209 0.913 . S
C191 H167 0.950 . S
C191 C190 1.524 . S
C191 C192 1.415 . S
C192 H168 0.950 . S
C192 C187 1.363 . S
C192 C191 1.415 . S
C193 H169 0.951 . S
C193 C194 1.366 . S
C193 C195 1.388 . S
C194 C193 1.366 . S
C194 C198 1.385 1_554 S
C195 H170 0.951 . S
C195 C193 1.388 . S
C195 C196 1.366 . S
C196 C195 1.366 . S
C196 C197 1.414 1_554 S
C196 C199 1.499 . S
C197 H171 0.950 . S
C197 C196 1.414 1_556 S
C197 C198 1.374 . S
C198 H172 0.950 . S
C198 C194 1.385 1_556 S
C198 C197 1.374 . S
C199 C196 1.499 . S
C199 C200 1.373 1_554 S
C199 C201 1.389 . S
C200 H173 0.950 . S
C200 C186 1.377 . S
C200 C199 1.373 1_556 S
C201 C185 1.377 . S
C201 C199 1.389 . S
C201 C202 1.524 . S
C202 C201 1.524 . S
C202 C203 1.397 . S
C202 C207 1.363 . S
C203 H174 0.950 . S
C203 C202 1.397 . S
C203 C204 1.334 . S
C204 H175 0.950 . S
C204 C203 1.334 . S
C204 C205 1.287 . S
C205 C204 1.287 . S
C205 C206 1.524 . S
C205 H208 0.999 . S
C206 H176 0.950 . S
C206 C205 1.524 . S
C206 C207 1.415 . S
C207 H177 0.950 . S
C207 C202 1.363 . S
C207 C206 1.415 . S
H208 C205 0.999 . S
H209 C190 0.913 . S
H210 C228 0.951 . S
H211 C230 0.951 . S
H212 C232 0.950 . S
H213 C233 0.950 . S
H214 C235 0.950 . S
H215 C238 0.950 . S
H216 C239 0.950 . S
H217 C241 0.950 . S
H218 C242 0.950 . S
H219 C243 0.951 . S
H220 C245 0.951 . S
H221 C247 0.950 . S
H222 C248 0.950 . S
H223 C250 0.950 . S
H224 C253 0.950 . S
H225 C254 0.950 . S
H226 C256 0.950 . S
H227 C257 0.950 . S
C228 H210 0.951 . S
C228 C229 1.366 . S
C228 C230 1.388 . S
C229 C228 1.366 . S
C229 C233 1.385 . S
C230 H211 0.951 . S
C230 C228 1.388 . S
C230 C231 1.366 . S
C231 C230 1.366 . S
C231 C232 1.414 . S
C231 C234 1.499 . S
C232 H212 0.950 . S
C232 C231 1.414 . S
C232 C233 1.374 . S
C233 H213 0.950 . S
C233 C229 1.385 . S
C233 C232 1.374 . S
C234 C231 1.499 . S
C234 C235 1.373 1_554 S
C234 C236 1.389 . S
C235 H214 0.950 . S
C235 C234 1.373 1_556 S
C235 C251 1.377 . S
C236 C234 1.389 . S
C236 C237 1.524 . S
C236 C250 1.377 . S
C237 C236 1.524 . S
C237 C238 1.397 . S
C237 C242 1.363 . S
C238 H215 0.950 . S
C238 C237 1.397 . S
C238 C239 1.334 . S
C239 H216 0.950 . S
C239 C238 1.334 . S
C239 C240 1.287 . S
C240 C239 1.287 . S
C240 C241 1.524 . S
C240 H259 0.913 . S
C241 H217 0.950 . S
C241 C240 1.524 . S
C241 C242 1.415 . S
C242 H218 0.950 . S
C242 C237 1.363 . S
C242 C241 1.415 . S
C243 H219 0.951 . S
C243 C244 1.366 . S
C243 C245 1.388 . S
C244 C243 1.366 . S
C244 C248 1.385 . S
C245 H220 0.951 . S
C245 C243 1.388 . S
C245 C246 1.366 . S
C246 C245 1.366 . S
C246 C247 1.414 . S
C246 C249 1.499 . S
C247 H221 0.950 . S
C247 C246 1.414 . S
C247 C248 1.374 . S
C248 H222 0.950 . S
C248 C244 1.385 . S
C248 C247 1.374 . S
C249 C246 1.499 . S
C249 C250 1.373 1_556 S
C249 C251 1.389 . S
C250 H223 0.950 . S
C250 C236 1.377 . S
C250 C249 1.373 1_554 S
C251 C235 1.377 . S
C251 C249 1.389 . S
C251 C252 1.524 . S
C252 C251 1.524 . S
C252 C253 1.397 . S
C252 C257 1.363 . S
C253 H224 0.950 . S
C253 C252 1.397 . S
C253 C254 1.334 . S
C254 H225 0.950 . S
C254 C253 1.334 . S
C254 C255 1.287 . S
C255 C254 1.287 . S
C255 C256 1.524 . S
C255 H258 0.999 . S
C256 H226 0.950 . S
C256 C255 1.524 . S
C256 C257 1.415 . S
C257 H227 0.950 . S
C257 C252 1.363 . S
C257 C256 1.415 . S
H258 C255 0.999 . S
H259 C240 0.913 . S
H260 C278 0.951 . S
H261 C280 0.951 . S
H262 C282 0.950 . S
H263 C283 0.950 . S
H264 C285 0.950 . S
H265 C288 0.950 . S
H266 C289 0.950 . S
H267 C291 0.950 . S
H268 C292 0.950 . S
H269 C293 0.951 . S
H270 C295 0.951 . S
H271 C297 0.950 . S
H272 C298 0.950 . S
H273 C300 0.950 . S
H274 C303 0.950 . S
H275 C304 0.950 . S
H276 C306 0.950 . S
H277 C307 0.950 . S
C278 H260 0.951 . S
C278 C279 1.366 . S
C278 C280 1.388 . S
C279 C278 1.366 . S
C279 C283 1.385 . S
C280 H261 0.951 . S
C280 C278 1.388 . S
C280 C281 1.366 . S
C281 C280 1.366 . S
C281 C282 1.414 . S
C281 C284 1.499 . S
C282 H262 0.950 . S
C282 C281 1.414 . S
C282 C283 1.374 . S
C283 H263 0.950 . S
C283 C279 1.385 . S
C283 C282 1.374 . S
C284 C281 1.499 . S
C284 C285 1.373 . S
C284 C286 1.389 . S
C285 H264 0.950 . S
C285 C284 1.373 . S
C285 C301 1.377 . S
C286 C284 1.389 . S
C286 C287 1.524 . S
C286 C300 1.377 . S
C287 C286 1.524 . S
C287 C288 1.397 . S
C287 C292 1.363 . S
C288 H265 0.950 . S
C288 C287 1.397 . S
C288 C289 1.334 . S
C289 H266 0.950 . S
C289 C288 1.334 . S
C289 C290 1.287 . S
C290 C289 1.287 . S
C290 C291 1.524 . S
C290 H309 0.913 . S
C291 H267 0.950 . S
C291 C290 1.524 . S
C291 C292 1.415 . S
C292 H268 0.950 . S
C292 C287 1.363 . S
C292 C291 1.415 . S
C293 H269 0.951 . S
C293 C294 1.366 . S
C293 C295 1.388 . S
C294 C293 1.366 . S
C294 C298 1.385 . S
C295 H270 0.951 . S
C295 C293 1.388 . S
C295 C296 1.366 . S
C296 C295 1.366 . S
C296 C297 1.414 . S
C296 C299 1.499 . S
C297 H271 0.950 . S
C297 C296 1.414 . S
C297 C298 1.374 . S
C298 H272 0.950 . S
C298 C294 1.385 . S
C298 C297 1.374 . S
C299 C296 1.499 . S
C299 C300 1.373 . S
C299 C301 1.389 . S
C300 H273 0.950 . S
C300 C286 1.377 . S
C300 C299 1.373 . S
C301 C285 1.377 . S
C301 C299 1.389 . S
C301 C302 1.524 . S
C302 C301 1.524 . S
C302 C303 1.397 . S
C302 C307 1.363 . S
C303 H274 0.950 . S
C303 C302 1.397 . S
C303 C304 1.334 . S
C304 H275 0.950 . S
C304 C303 1.334 . S
C304 C305 1.287 . S
C305 C304 1.287 . S
C305 C306 1.524 . S
C305 H308 0.999 . S
C306 H276 0.950 . S
C306 C305 1.524 . S
C306 C307 1.415 . S
C307 H277 0.950 . S
C307 C302 1.363 . S
C307 C306 1.415 . S
H308 C305 0.999 . S
H309 C290 0.913 . S
H310 C328 0.951 . S
H311 C330 0.951 . S
H312 C332 0.950 . S
H313 C333 0.950 . S
H314 C335 0.950 . S
H315 C338 0.950 . S
H316 C339 0.950 . S
H317 C341 0.950 . S
H318 C342 0.950 . S
H319 C343 0.951 . S
H320 C345 0.951 . S
H321 C347 0.950 . S
H322 C348 0.950 . S
H323 C350 0.950 . S
H324 C353 0.950 . S
H325 C354 0.950 . S
H326 C356 0.950 . S
H327 C357 0.950 . S
C328 H310 0.951 . S
C328 C329 1.366 . S
C328 C330 1.388 . S
C329 C328 1.366 . S
C329 C333 1.385 . S
C330 H311 0.951 . S
C330 C328 1.388 . S
C330 C331 1.366 . S
C331 C330 1.366 . S
C331 C332 1.414 . S
C331 C334 1.499 . S
C332 H312 0.950 . S
C332 C331 1.414 . S
C332 C333 1.374 . S
C333 H313 0.950 . S
C333 C329 1.385 . S
C333 C332 1.374 . S
C334 C331 1.499 . S
C334 C335 1.373 . S
C334 C336 1.389 . S
C335 H314 0.950 . S
C335 C334 1.373 . S
C335 C351 1.377 . S
C336 C334 1.389 . S
C336 C337 1.524 . S
C336 C350 1.377 . S
C337 C336 1.524 . S
C337 C338 1.397 . S
C337 C342 1.363 . S
C338 H315 0.950 . S
C338 C337 1.397 . S
C338 C339 1.334 . S
C339 H316 0.950 . S
C339 C338 1.334 . S
C339 C340 1.287 . S
C340 C339 1.287 . S
C340 C341 1.524 . S
C340 H359 0.913 . S
C341 H317 0.950 . S
C341 C340 1.524 . S
C341 C342 1.415 . S
C342 H318 0.950 . S
C342 C337 1.363 . S
C342 C341 1.415 . S
C343 H319 0.951 . S
C343 C344 1.366 . S
C343 C345 1.388 . S
C344 C343 1.366 . S
C344 C348 1.385 . S
C345 H320 0.951 . S
C345 C343 1.388 . S
C345 C346 1.366 . S
C346 C345 1.366 . S
C346 C347 1.414 . S
C346 C349 1.499 . S
C347 H321 0.950 . S
C347 C346 1.414 . S
C347 C348 1.374 . S
C348 H322 0.950 . S
C348 C344 1.385 . S
C348 C347 1.374 . S
C349 C346 1.499 . S
C349 C350 1.373 . S
C349 C351 1.389 . S
C350 H323 0.950 . S
C350 C336 1.377 . S
C350 C349 1.373 . S
C351 C335 1.377 . S
C351 C349 1.389 . S
C351 C352 1.524 . S
C352 C351 1.524 . S
C352 C353 1.397 . S
C352 C357 1.363 . S
C353 H324 0.950 . S
C353 C352 1.397 . S
C353 C354 1.334 . S
C354 H325 0.950 . S
C354 C353 1.334 . S
C354 C355 1.287 . S
C355 C354 1.287 . S
C355 C356 1.524 . S
C355 H358 0.999 . S
C356 H326 0.950 . S
C356 C355 1.524 . S
C356 C357 1.415 . S
C357 H327 0.950 . S
C357 C352 1.363 . S
C357 C356 1.415 . S
H358 C355 0.999 . S
H359 C340 0.913 . S
H360 C378 0.951 . S
H361 C380 0.951 . S
H362 C382 0.950 . S
H363 C383 0.945 1_565 S
H364 C385 0.950 . S
H365 C388 0.950 . S
H366 C389 0.950 . S
H367 C391 0.950 . S
H368 C392 0.950 1_554 S
H369 C393 0.951 . S
H370 C395 0.951 . S
H371 C397 0.950 . S
H372 C398 0.948 1_545 S
H373 C400 0.950 . S
H374 C403 0.950 . S
H375 C404 0.950 . S
H376 C406 0.950 . S
H377 C407 0.950 1_556 S
C378 H360 0.951 . S
C378 C379 1.366 1_554 S
C378 C380 1.388 . S
C379 C378 1.366 1_556 S
C379 C383 1.391 . S
C380 H361 0.951 . S
C380 C378 1.388 . S
C380 C381 1.366 1_554 S
C381 C380 1.366 1_556 S
C381 C382 1.414 1_545 S
C381 C384 1.499 . S
C382 H362 0.950 . S
C382 C381 1.414 1_565 S
C382 C383 1.372 1_565 S
C383 H363 0.945 1_545 S
C383 C379 1.391 . S
C383 C382 1.372 1_545 S
C384 C381 1.499 . S
C384 C385 1.373 1_546 S
C384 C386 1.389 . S
C385 H364 0.950 . S
C385 C384 1.373 1_564 S
C385 C401 1.377 . S
C386 C384 1.389 . S
C386 C387 1.524 . S
C386 C400 1.377 . S
C387 C386 1.524 . S
C387 C388 1.397 . S
C387 C392 1.363 . S
C388 H365 0.950 . S
C388 C387 1.397 . S
C388 C389 1.334 . S
C389 H366 0.950 . S
C389 C388 1.334 . S
C389 C390 1.287 . S
C390 C389 1.287 . S
C390 C391 1.524 . S
C390 H409 0.913 . S
C391 H367 0.950 . S
C391 C390 1.524 . S
C391 C392 1.415 . S
C392 H368 0.950 1_556 S
C392 C387 1.363 . S
C392 C391 1.415 . S
C393 H369 0.951 . S
C393 C394 1.366 1_556 S
C393 C395 1.388 . S
C394 C393 1.366 1_554 S
C394 C398 1.387 . S
C395 H370 0.951 . S
C395 C393 1.388 . S
C395 C396 1.366 1_556 S
C396 C395 1.366 1_554 S
C396 C397 1.414 1_565 S
C396 C399 1.499 . S
C397 H371 0.950 . S
C397 C396 1.414 1_545 S
C397 C398 1.373 1_545 S
C398 H372 0.948 1_565 S
C398 C394 1.387 . S
C398 C397 1.373 1_565 S
C399 C396 1.499 . S
C399 C400 1.373 1_564 S
C399 C401 1.389 . S
C400 H373 0.950 . S
C400 C386 1.377 . S
C400 C399 1.373 1_546 S
C401 C385 1.377 . S
C401 C399 1.389 . S
C401 C402 1.524 . S
C402 C401 1.524 . S
C402 C403 1.397 . S
C402 C407 1.363 . S
C403 H374 0.950 . S
C403 C402 1.397 . S
C403 C404 1.334 . S
C404 H375 0.950 . S
C404 C403 1.334 . S
C404 C405 1.287 . S
C405 C404 1.287 . S
C405 C406 1.524 . S
C405 H408 0.999 . S
C406 H376 0.950 . S
C406 C405 1.524 . S
C406 C407 1.415 . S
C407 H377 0.950 1_554 S
C407 C402 1.363 . S
C407 C406 1.415 . S
H408 C405 0.999 . S
H409 C390 0.913 . S
H410 C428 0.949 1_545 S
H411 C430 0.951 . S
H412 C432 0.950 . S
H413 C433 0.950 . S
H414 C435 0.950 . S
H415 C438 0.950 . S
H416 C439 0.950 . S
H417 C441 0.950 . S
H418 C442 0.950 . S
H419 C443 0.946 1_565 S
H420 C445 0.951 . S
H421 C447 0.950 . S
H422 C448 0.950 . S
H423 C450 0.950 . S
H424 C453 0.950 . S
H425 C454 0.950 . S
H426 C456 0.950 . S
H427 C457 0.950 . S
C428 H410 0.949 1_565 S
C428 C429 1.368 . S
C428 C430 1.387 1_565 S
C429 C428 1.368 . S
C429 C433 1.385 . S
C430 H411 0.951 . S
C430 C428 1.387 1_545 S
C430 C431 1.366 1_545 S
C431 C430 1.366 1_565 S
C431 C432 1.414 . S
C431 C434 1.499 . S
C432 H412 0.950 . S
C432 C431 1.414 . S
C432 C433 1.374 . S
C433 H413 0.950 . S
C433 C429 1.385 . S
C433 C432 1.374 . S
C434 C431 1.499 . S
C434 C435 1.373 . S
C434 C436 1.389 1_565 S
C435 H414 0.950 . S
C435 C434 1.373 . S
C435 C451 1.377 . S
C436 C434 1.389 1_545 S
C436 C437 1.524 . S
C436 C450 1.377 . S
C437 C436 1.524 . S
C437 C438 1.397 . S
C437 C442 1.363 . S
C438 H415 0.950 . S
C438 C437 1.397 . S
C438 C439 1.334 . S
C439 H416 0.950 . S
C439 C438 1.334 . S
C439 C440 1.287 . S
C440 C439 1.287 . S
C440 C441 1.524 . S
C440 H459 0.913 . S
C441 H417 0.950 . S
C441 C440 1.524 . S
C441 C442 1.415 . S
C442 H418 0.950 . S
C442 C437 1.363 . S
C442 C441 1.415 . S
C443 H419 0.946 1_545 S
C443 C444 1.373 . S
C443 C445 1.386 1_545 S
C444 C443 1.373 . S
C444 C448 1.385 . S
C445 H420 0.951 . S
C445 C443 1.386 1_565 S
C445 C446 1.366 1_565 S
C446 C445 1.366 1_545 S
C446 C447 1.414 . S
C446 C449 1.499 . S
C447 H421 0.950 . S
C447 C446 1.414 . S
C447 C448 1.374 . S
C448 H422 0.950 . S
C448 C444 1.385 . S
C448 C447 1.374 . S
C449 C446 1.499 . S
C449 C450 1.373 . S
C449 C451 1.389 1_545 S
C450 H423 0.950 . S
C450 C436 1.377 . S
C450 C449 1.373 . S
C451 C435 1.377 . S
C451 C449 1.389 1_565 S
C451 C452 1.524 . S
C452 C451 1.524 . S
C452 C453 1.397 . S
C452 C457 1.363 . S
C453 H424 0.950 . S
C453 C452 1.397 . S
C453 C454 1.334 . S
C454 H425 0.950 . S
C454 C453 1.334 . S
C454 C455 1.287 . S
C455 C454 1.287 . S
C455 C456 1.524 . S
C455 H458 0.999 . S
C456 H426 0.950 . S
C456 C455 1.524 . S
C456 C457 1.415 . S
C457 H427 0.950 . S
C457 C452 1.363 . S
C457 C456 1.415 . S
H458 C455 0.999 . S
H459 C440 0.913 . S
H460 C478 0.951 . S
H461 C480 0.949 1_554 S
H462 C482 0.950 . S
H463 C483 0.950 . S
H464 C485 0.950 . S
H465 C488 0.950 . S
H466 C489 0.950 . S
H467 C491 0.950 . S
H468 C492 0.950 . S
H469 C493 0.951 . S
H470 C495 0.951 1_556 S
H471 C497 0.950 . S
H472 C498 0.950 . S
H473 C500 0.950 . S
H474 C503 0.950 . S
H475 C504 0.950 . S
H476 C506 0.950 . S
H477 C507 0.950 . S
C478 H460 0.951 . S
C478 C479 1.366 . S
C478 C480 1.387 . S
C479 C478 1.366 . S
C479 C483 1.385 . S
C480 H461 0.949 1_556 S
C480 C478 1.387 . S
C480 C481 1.368 . S
C481 C480 1.368 . S
C481 C482 1.414 . S
C481 C484 1.499 1_556 S
C482 H462 0.950 . S
C482 C481 1.414 . S
C482 C483 1.374 . S
C483 H463 0.950 . S
C483 C479 1.385 . S
C483 C482 1.374 . S
C484 C481 1.499 1_554 S
C484 C485 1.373 1_554 S
C484 C486 1.390 . S
C485 H464 0.950 . S
C485 C484 1.373 1_556 S
C485 C501 1.377 1_655 S
C486 C484 1.390 . S
C486 C487 1.524 . S
C486 C500 1.377 1_655 S
C487 C486 1.524 . S
C487 C488 1.397 . S
C487 C492 1.363 . S
C488 H465 0.950 . S
C488 C487 1.397 . S
C488 C489 1.334 . S
C489 H466 0.950 . S
C489 C488 1.334 . S
C489 C490 1.287 . S
C490 C489 1.287 . S
C490 C491 1.524 . S
C490 H509 0.913 . S
C491 H467 0.950 . S
C491 C490 1.524 . S
C491 C492 1.415 . S
C492 H468 0.950 . S
C492 C487 1.363 . S
C492 C491 1.415 . S
C493 H469 0.951 . S
C493 C494 1.366 . S
C493 C495 1.388 . S
C494 C493 1.366 . S
C494 C498 1.385 . S
C495 H470 0.951 1_554 S
C495 C493 1.388 . S
C495 C496 1.366 . S
C496 C495 1.366 . S
C496 C497 1.414 . S
C496 C499 1.498 . S
C497 H471 0.950 . S
C497 C496 1.414 . S
C497 C498 1.374 . S
C498 H472 0.950 . S
C498 C494 1.385 . S
C498 C497 1.374 . S
C499 C496 1.498 . S
C499 C500 1.379 . S
C499 C501 1.384 1_554 S
C500 H473 0.950 . S
C500 C486 1.377 1_455 S
C500 C499 1.379 . S
C501 C485 1.377 1_455 S
C501 C499 1.384 1_556 S
C501 C502 1.524 . S
C502 C501 1.524 . S
C502 C503 1.397 . S
C502 C507 1.363 . S
C503 H474 0.950 . S
C503 C502 1.397 . S
C503 C504 1.334 . S
C504 H475 0.950 . S
C504 C503 1.334 . S
C504 C505 1.287 . S
C505 C504 1.287 . S
C505 C506 1.524 . S
C505 H508 0.999 . S
C506 H476 0.950 . S
C506 C505 1.524 . S
C506 C507 1.415 . S
C507 H477 0.950 . S
C507 C502 1.363 . S
C507 C506 1.415 . S
H508 C505 0.999 . S
H509 C490 0.913 . S
H510 C528 0.951 . S
H511 C530 0.951 . S
H512 C532 0.950 . S
H513 C533 0.950 . S
H514 C535 0.950 . S
H515 C538 0.950 . S
H516 C539 0.950 . S
H517 C541 0.950 . S
H518 C542 0.950 . S
H519 C543 0.951 . S
H520 C545 0.951 . S
H521 C547 0.950 . S
H522 C548 0.950 . S
H523 C550 0.950 . S
H524 C553 0.950 . S
H525 C554 0.950 . S
H526 C556 0.950 . S
H527 C557 0.950 . S
C528 H510 0.951 . S
C528 C529 1.366 . S
C528 C530 1.388 . S
C529 C528 1.366 . S
C529 C533 1.385 . S
C530 H511 0.951 . S
C530 C528 1.388 . S
C530 C531 1.366 . S
C531 C530 1.366 . S
C531 C532 1.414 . S
C531 C534 1.499 . S
C532 H512 0.950 . S
C532 C531 1.414 . S
C532 C533 1.374 . S
C533 H513 0.950 . S
C533 C529 1.385 . S
C533 C532 1.374 . S
C534 C531 1.499 . S
C534 C535 1.373 . S
C534 C536 1.389 . S
C535 H514 0.950 . S
C535 C534 1.373 . S
C535 C551 1.377 1_455 S
C536 C534 1.389 . S
C536 C537 1.524 . S
C536 C550 1.377 1_455 S
C537 C536 1.524 . S
C537 C538 1.397 . S
C537 C542 1.363 . S
C538 H515 0.950 . S
C538 C537 1.397 . S
C538 C539 1.334 . S
C539 H516 0.950 . S
C539 C538 1.334 . S
C539 C540 1.287 . S
C540 C539 1.287 . S
C540 C541 1.524 . S
C540 H559 0.913 . S
C541 H517 0.950 . S
C541 C540 1.524 . S
C541 C542 1.415 . S
C542 H518 0.950 . S
C542 C537 1.363 . S
C542 C541 1.415 . S
C543 H519 0.951 . S
C543 C544 1.366 . S
C543 C545 1.388 . S
C544 C543 1.366 . S
C544 C548 1.385 . S
C545 H520 0.951 . S
C545 C543 1.388 . S
C545 C546 1.366 . S
C546 C545 1.366 . S
C546 C547 1.414 . S
C546 C549 1.499 . S
C547 H521 0.950 . S
C547 C546 1.414 . S
C547 C548 1.374 . S
C548 H522 0.950 . S
C548 C544 1.385 . S
C548 C547 1.374 . S
C549 C546 1.499 . S
C549 C550 1.373 . S
C549 C551 1.389 . S
C550 H523 0.950 . S
C550 C536 1.377 1_655 S
C550 C549 1.373 . S
C551 C535 1.377 1_655 S
C551 C549 1.389 . S
C551 C552 1.524 . S
C552 C551 1.524 . S
C552 C553 1.397 . S
C552 C557 1.363 . S
C553 H524 0.950 . S
C553 C552 1.397 . S
C553 C554 1.334 . S
C554 H525 0.950 . S
C554 C553 1.334 . S
C554 C555 1.287 . S
C555 C554 1.287 . S
C555 C556 1.524 . S
C555 H558 0.999 . S
C556 H526 0.950 . S
C556 C555 1.524 . S
C556 C557 1.415 . S
C557 H527 0.950 . S
C557 C552 1.363 . S
C557 C556 1.415 . S
H558 C555 0.999 . S
H559 C540 0.913 . S
H560 C578 0.951 . S
H561 C580 0.951 . S
H562 C582 0.950 . S
H563 C583 0.950 . S
H564 C585 0.950 . S
H565 C588 0.950 . S
H566 C589 0.950 . S
H567 C591 0.950 . S
H568 C592 0.950 . S
H569 C593 0.951 . S
H570 C595 0.951 . S
H571 C597 0.950 . S
H572 C598 0.950 . S
H573 C600 0.950 . S
H574 C603 0.950 . S
H575 C604 0.950 . S
H576 C606 0.950 . S
H577 C607 0.950 . S
C578 H560 0.951 . S
C578 C579 1.362 1_445 S
C578 C580 1.388 . S
C579 C578 1.362 1_665 S
C579 C583 1.387 . S
C580 H561 0.951 . S
C580 C578 1.388 . S
C580 C581 1.366 1_445 S
C581 C580 1.366 1_665 S
C581 C582 1.414 . S
C581 C584 1.499 . S
C582 H562 0.950 . S
C582 C581 1.414 . S
C582 C583 1.374 . S
C583 H563 0.950 . S
C583 C579 1.387 . S
C583 C582 1.374 . S
C584 C581 1.499 . S
C584 C585 1.373 1_655 S
C584 C586 1.389 1_565 S
C585 H564 0.950 . S
C585 C584 1.373 1_455 S
C585 C601 1.377 . S
C586 C584 1.389 1_545 S
C586 C587 1.524 . S
C586 C600 1.377 . S
C587 C586 1.524 . S
C587 C588 1.397 . S
C587 C592 1.363 . S
C588 H565 0.950 . S
C588 C587 1.397 . S
C588 C589 1.334 . S
C589 H566 0.950 . S
C589 C588 1.334 . S
C589 C590 1.287 . S
C590 C589 1.287 . S
C590 C591 1.524 . S
C590 H609 0.913 . S
C591 H567 0.950 . S
C591 C590 1.524 . S
C591 C592 1.415 . S
C592 H568 0.950 . S
C592 C587 1.363 . S
C592 C591 1.415 . S
C593 H569 0.951 . S
C593 C594 1.366 1_655 S
C593 C595 1.388 . S
C594 C593 1.366 1_455 S
C594 C598 1.385 1_565 S
C595 H570 0.951 . S
C595 C593 1.388 . S
C595 C596 1.366 1_655 S
C596 C595 1.366 1_455 S
C596 C597 1.414 1_565 S
C596 C599 1.499 . S
C597 H571 0.950 . S
C597 C596 1.414 1_545 S
C597 C598 1.374 . S
C598 H572 0.950 . S
C598 C594 1.385 1_545 S
C598 C597 1.374 . S
C599 C596 1.499 . S
C599 C600 1.373 1_465 S
C599 C601 1.389 . S
C600 H573 0.950 . S
C600 C586 1.377 . S
C600 C599 1.373 1_645 S
C601 C585 1.377 . S
C601 C599 1.389 . S
C601 C602 1.524 . S
C602 C601 1.524 . S
C602 C603 1.397 . S
C602 C607 1.363 . S
C603 H574 0.950 . S
C603 C602 1.397 . S
C603 C604 1.334 . S
C604 H575 0.950 . S
C604 C603 1.334 . S
C604 C605 1.287 . S
C605 C604 1.287 . S
C605 C606 1.524 . S
C605 H608 0.999 . S
C606 H576 0.950 . S
C606 C605 1.524 . S
C606 C607 1.415 . S
C607 H577 0.950 . S
C607 C602 1.363 . S
C607 C606 1.415 . S
H608 C605 0.999 . S
H609 C590 0.913 . S
H610 C628 0.951 . S
H611 C630 0.951 . S
H612 C632 0.950 . S
H613 C633 0.950 . S
H614 C635 0.950 . S
H615 C638 0.950 . S
H616 C639 0.950 . S
H617 C641 0.950 . S
H618 C642 0.950 . S
H619 C643 0.951 . S
H620 C645 0.951 . S
H621 C647 0.950 . S
H622 C648 0.950 . S
H623 C650 0.950 . S
H624 C653 0.950 . S
H625 C654 0.950 . S
H626 C656 0.950 . S
H627 C657 0.950 . S
C628 H610 0.951 . S
C628 C629 1.361 1_455 S
C628 C630 1.388 . S
C629 C628 1.361 1_655 S
C629 C633 1.388 1_545 S
C630 H611 0.951 . S
C630 C628 1.388 . S
C630 C631 1.366 1_455 S
C631 C630 1.366 1_655 S
C631 C632 1.414 1_545 S
C631 C634 1.499 . S
C632 H612 0.950 . S
C632 C631 1.414 1_565 S
C632 C633 1.374 . S
C633 H613 0.950 . S
C633 C629 1.388 1_565 S
C633 C632 1.374 . S
C634 C631 1.499 . S
C634 C635 1.373 1_645 S
C634 C636 1.389 . S
C635 H614 0.950 . S
C635 C634 1.373 1_465 S
C635 C651 1.377 . S
C636 C634 1.389 . S
C636 C637 1.524 . S
C636 C650 1.377 . S
C637 C636 1.524 . S
C637 C638 1.397 . S
C637 C642 1.363 . S
C638 H615 0.950 . S
C638 C637 1.397 . S
C638 C639 1.334 . S
C639 H616 0.950 . S
C639 C638 1.334 . S
C639 C640 1.287 . S
C640 C639 1.287 . S
C640 C641 1.524 . S
C640 H659 0.913 . S
C641 H617 0.950 . S
C641 C640 1.524 . S
C641 C642 1.415 . S
C642 H618 0.950 . S
C642 C637 1.363 . S
C642 C641 1.415 . S
C643 H619 0.951 . S
C643 C644 1.366 1_665 S
C643 C645 1.388 . S
C644 C643 1.366 1_445 S
C644 C648 1.385 . S
C645 H620 0.951 . S
C645 C643 1.388 . S
C645 C646 1.366 1_665 S
C646 C645 1.366 1_445 S
C646 C647 1.414 . S
C646 C649 1.499 . S
C647 H621 0.950 . S
C647 C646 1.414 . S
C647 C648 1.374 . S
C648 H622 0.950 . S
C648 C644 1.385 . S
C648 C647 1.374 . S
C649 C646 1.499 . S
C649 C650 1.373 1_455 S
C649 C651 1.389 1_545 S
C650 H623 0.950 . S
C650 C636 1.377 . S
C650 C649 1.373 1_655 S
C651 C635 1.377 . S
C651 C649 1.389 1_565 S
C651 C652 1.524 . S
C652 C651 1.524 . S
C652 C653 1.397 . S
C652 C657 1.363 . S
C653 H624 0.950 . S
C653 C652 1.397 . S
C653 C654 1.334 . S
C654 H625 0.950 . S
C654 C653 1.334 . S
C654 C655 1.287 . S
C655 C654 1.287 . S
C655 C656 1.524 . S
C655 H658 0.999 . S
C656 H626 0.950 . S
C656 C655 1.524 . S
C656 C657 1.415 . S
C657 H627 0.950 . S
C657 C652 1.363 . S
C657 C656 1.415 . S
H658 C655 0.999 . S
H659 C640 0.913 . S
H660 C678 0.951 . S
H661 C680 0.951 . S
H662 C682 0.950 . S
H663 C683 0.950 . S
H664 C685 0.950 . S
H665 C688 0.950 . S
H666 C689 0.950 . S
H667 C691 0.950 . S
H668 C692 0.950 . S
H669 C693 0.951 . S
H670 C695 0.951 . S
H671 C697 0.950 . S
H672 C698 0.950 . S
H673 C700 0.950 . S
H674 C703 0.950 . S
H675 C704 0.950 . S
H676 C706 0.950 . S
H677 C707 0.950 . S
C678 H660 0.951 . S
C678 C679 1.366 . S
C678 C680 1.388 . S
C679 C678 1.366 . S
C679 C683 1.385 . S
C680 H661 0.951 . S
C680 C678 1.388 . S
C680 C681 1.366 . S
C681 C680 1.366 . S
C681 C682 1.414 . S
C681 C684 1.499 . S
C682 H662 0.950 . S
C682 C681 1.414 . S
C682 C683 1.374 . S
C683 H663 0.950 . S
C683 C679 1.385 . S
C683 C682 1.374 . S
C684 C681 1.499 . S
C684 C685 1.373 . S
C684 C686 1.389 . S
C685 H664 0.950 . S
C685 C684 1.373 . S
C685 C701 1.377 . S
C686 C684 1.389 . S
C686 C687 1.524 . S
C686 C700 1.377 . S
C687 C686 1.524 . S
C687 C688 1.397 . S
C687 C692 1.363 . S
C688 H665 0.950 . S
C688 C687 1.397 . S
C688 C689 1.334 . S
C689 H666 0.950 . S
C689 C688 1.334 . S
C689 C690 1.287 . S
C690 C689 1.287 . S
C690 C691 1.524 . S
C690 H709 0.913 . S
C691 H667 0.950 . S
C691 C690 1.524 . S
C691 C692 1.415 . S
C692 H668 0.950 . S
C692 C687 1.363 . S
C692 C691 1.415 . S
C693 H669 0.951 . S
C693 C694 1.366 . S
C693 C695 1.388 . S
C694 C693 1.366 . S
C694 C698 1.385 . S
C695 H670 0.951 . S
C695 C693 1.388 . S
C695 C696 1.366 . S
C696 C695 1.366 . S
C696 C697 1.414 . S
C696 C699 1.499 . S
C697 H671 0.950 . S
C697 C696 1.414 . S
C697 C698 1.374 . S
C698 H672 0.950 . S
C698 C694 1.385 . S
C698 C697 1.374 . S
C699 C696 1.499 . S
C699 C700 1.373 . S
C699 C701 1.389 . S
C700 H673 0.950 . S
C700 C686 1.377 . S
C700 C699 1.373 . S
C701 C685 1.377 . S
C701 C699 1.389 . S
C701 C702 1.524 . S
C702 C701 1.524 . S
C702 C703 1.397 . S
C702 C707 1.363 . S
C703 H674 0.950 . S
C703 C702 1.397 . S
C703 C704 1.334 . S
C704 H675 0.950 . S
C704 C703 1.334 . S
C704 C705 1.287 . S
C705 C704 1.287 . S
C705 C706 1.524 . S
C705 H708 0.999 . S
C706 H676 0.950 . S
C706 C705 1.524 . S
C706 C707 1.415 . S
C707 H677 0.950 . S
C707 C702 1.363 . S
C707 C706 1.415 . S
H708 C705 0.999 . S
H709 C690 0.913 . S
H710 C728 0.951 . S
H711 C730 0.951 . S
H712 C732 0.950 . S
H713 C733 0.950 . S
H714 C735 0.950 . S
H715 C738 0.950 . S
H716 C739 0.950 . S
H717 C741 0.950 . S
H718 C742 0.950 . S
H719 C743 0.951 . S
H720 C745 0.951 . S
H721 C747 0.950 . S
H722 C748 0.950 . S
H723 C750 0.950 . S
H724 C753 0.950 . S
H725 C754 0.950 . S
H726 C756 0.950 . S
H727 C757 0.950 . S
C728 H710 0.951 . S
C728 C729 1.366 . S
C728 C730 1.388 . S
C729 C728 1.366 . S
C729 C733 1.385 . S
C730 H711 0.951 . S
C730 C728 1.388 . S
C730 C731 1.366 . S
C731 C730 1.366 . S
C731 C732 1.414 . S
C731 C734 1.499 . S
C732 H712 0.950 . S
C732 C731 1.414 . S
C732 C733 1.374 . S
C733 H713 0.950 . S
C733 C729 1.385 . S
C733 C732 1.374 . S
C734 C731 1.499 . S
C734 C735 1.373 . S
C734 C736 1.389 . S
C735 H714 0.950 . S
C735 C734 1.373 . S
C735 C751 1.377 . S
C736 C734 1.389 . S
C736 C737 1.524 . S
C736 C750 1.377 . S
C737 C736 1.524 . S
C737 C738 1.397 . S
C737 C742 1.363 . S
C738 H715 0.950 . S
C738 C737 1.397 . S
C738 C739 1.334 . S
C739 H716 0.950 . S
C739 C738 1.334 . S
C739 C740 1.287 . S
C740 C739 1.287 . S
C740 C741 1.524 . S
C740 H759 0.913 . S
C741 H717 0.950 . S
C741 C740 1.524 . S
C741 C742 1.415 . S
C742 H718 0.950 . S
C742 C737 1.363 . S
C742 C741 1.415 . S
C743 H719 0.951 . S
C743 C744 1.366 . S
C743 C745 1.388 . S
C744 C743 1.366 . S
C744 C748 1.385 . S
C745 H720 0.951 . S
C745 C743 1.388 . S
C745 C746 1.366 . S
C746 C745 1.366 . S
C746 C747 1.414 . S
C746 C749 1.499 . S
C747 H721 0.950 . S
C747 C746 1.414 . S
C747 C748 1.374 . S
C748 H722 0.950 . S
C748 C744 1.385 . S
C748 C747 1.374 . S
C749 C746 1.499 . S
C749 C750 1.373 . S
C749 C751 1.389 . S
C750 H723 0.950 . S
C750 C736 1.377 . S
C750 C749 1.373 . S
C751 C735 1.377 . S
C751 C749 1.389 . S
C751 C752 1.524 . S
C752 C751 1.524 . S
C752 C753 1.397 . S
C752 C757 1.363 . S
C753 H724 0.950 . S
C753 C752 1.397 . S
C753 C754 1.334 . S
C754 H725 0.950 . S
C754 C753 1.334 . S
C754 C755 1.287 . S
C755 C754 1.287 . S
C755 C756 1.524 . S
C755 H758 0.999 . S
C756 H726 0.950 . S
C756 C755 1.524 . S
C756 C757 1.415 . S
C757 H727 0.950 . S
C757 C752 1.363 . S
C757 C756 1.415 . S
H758 C755 0.999 . S
H759 C740 0.913 . S
C179 C102 1.549 . S
C194 C3 1.550 . S
C229 C83 1.548 . S
C244 C22 1.547 . S
C279 C62 1.549 . S
C294 C123 1.547 . S
C329 C43 1.549 . S
C344 C142 1.550 . S
C379 C26 1.146 . S
C394 C9 1.146 . S
C429 C49 1.147 . S
C444 C66 1.147 . S
C479 C106 1.147 . S
C494 C89 1.147 . S
C529 C146 1.147 . S
C544 C129 1.147 . S
C579 C55 1.475 1_565 S
C594 C15 1.470 1_565 S
C629 C2 1.475 1_545 S
C644 C42 1.470 1_545 S
C679 C135 1.470 . S
C694 C95 1.470 . S
C729 C122 1.470 . S
C744 C82 1.470 . S
