# Generated by pormake.
# Topology wfw, (7)-cn, num edge types: 1
# Building blocks:
#     Node 0, Type 0, BuildingBlock: HICVOG_clean_sbu_0, # of connection points: 7
#     Node 1, Type 0, BuildingBlock: HICVOG_clean_sbu_0, # of connection points: 7
#     Node 2, Type 0, BuildingBlock: HICVOG_clean_sbu_0, # of connection points: 7
#     Node 3, Type 0, BuildingBlock: HICVOG_clean_sbu_0, # of connection points: 7
#     Node 4, Type 0, BuildingBlock: HICVOG_clean_sbu_0, # of connection points: 7
#     Node 5, Type 0, BuildingBlock: HICVOG_clean_sbu_0, # of connection points: 7
#     Node 6, Type 0, BuildingBlock: HICVOG_clean_sbu_0, # of connection points: 7
#     Node 7, Type 0, BuildingBlock: HICVOG_clean_sbu_0, # of connection points: 7
#     Node 8, Type 0, BuildingBlock: HICVOG_clean_sbu_0, # of connection points: 7
#     Node 9, Type 0, BuildingBlock: HICVOG_clean_sbu_0, # of connection points: 7
#     Node 10, Type 0, BuildingBlock: HICVOG_clean_sbu_0, # of connection points: 7
#     Node 11, Type 0, BuildingBlock: HICVOG_clean_sbu_0, # of connection points: 7
#     Node 12, Type 0, BuildingBlock: HICVOG_clean_sbu_0, # of connection points: 7
#     Node 13, Type 0, BuildingBlock: HICVOG_clean_sbu_0, # of connection points: 7
#     Node 14, Type 0, BuildingBlock: HICVOG_clean_sbu_0, # of connection points: 7
#     Node 15, Type 0, BuildingBlock: HICVOG_clean_sbu_0, # of connection points: 7
#     Edge 16, Type (0, 0), BuildingBlock: XIVTED_clean_linker_0, # of connection points: 2
#     Edge 17, Type (0, 0), BuildingBlock: XIVTED_clean_linker_0, # of connection points: 2
#     Edge 18, Type (0, 0), BuildingBlock: XIVTED_clean_linker_0, # of connection points: 2
#     Edge 19, Type (0, 0), BuildingBlock: XIVTED_clean_linker_0, # of connection points: 2
#     Edge 20, Type (0, 0), BuildingBlock: XIVTED_clean_linker_0, # of connection points: 2
#     Edge 21, Type (0, 0), BuildingBlock: XIVTED_clean_linker_0, # of connection points: 2
#     Edge 22, Type (0, 0), BuildingBlock: XIVTED_clean_linker_0, # of connection points: 2
#     Edge 23, Type (0, 0), BuildingBlock: XIVTED_clean_linker_0, # of connection points: 2
#     Edge 24, Type (0, 0), BuildingBlock: XIVTED_clean_linker_0, # of connection points: 2
#     Edge 25, Type (0, 0), BuildingBlock: XIVTED_clean_linker_0, # of connection points: 2
#     Edge 26, Type (0, 0), BuildingBlock: XIVTED_clean_linker_0, # of connection points: 2
#     Edge 27, Type (0, 0), BuildingBlock: XIVTED_clean_linker_0, # of connection points: 2
#     Edge 28, Type (0, 0), BuildingBlock: XIVTED_clean_linker_0, # of connection points: 2
#     Edge 29, Type (0, 0), BuildingBlock: XIVTED_clean_linker_0, # of connection points: 2
#     Edge 30, Type (0, 0), BuildingBlock: XIVTED_clean_linker_0, # of connection points: 2
#     Edge 31, Type (0, 0), BuildingBlock: XIVTED_clean_linker_0, # of connection points: 2
#     Edge 32, Type (0, 0), BuildingBlock: XIVTED_clean_linker_0, # of connection points: 2
#     Edge 33, Type (0, 0), BuildingBlock: XIVTED_clean_linker_0, # of connection points: 2
#     Edge 34, Type (0, 0), BuildingBlock: XIVTED_clean_linker_0, # of connection points: 2
#     Edge 35, Type (0, 0), BuildingBlock: XIVTED_clean_linker_0, # of connection points: 2
#     Edge 36, Type (0, 0), BuildingBlock: XIVTED_clean_linker_0, # of connection points: 2
#     Edge 37, Type (0, 0), BuildingBlock: XIVTED_clean_linker_0, # of connection points: 2
#     Edge 38, Type (0, 0), BuildingBlock: XIVTED_clean_linker_0, # of connection points: 2
#     Edge 39, Type (0, 0), BuildingBlock: XIVTED_clean_linker_0, # of connection points: 2
#     Edge 40, Type (0, 0), BuildingBlock: XIVTED_clean_linker_0, # of connection points: 2
#     Edge 41, Type (0, 0), BuildingBlock: XIVTED_clean_linker_0, # of connection points: 2
#     Edge 42, Type (0, 0), BuildingBlock: XIVTED_clean_linker_0, # of connection points: 2
#     Edge 43, Type (0, 0), BuildingBlock: XIVTED_clean_linker_0, # of connection points: 2
#     Edge 44, Type (0, 0), BuildingBlock: XIVTED_clean_linker_0, # of connection points: 2
#     Edge 45, Type (0, 0), BuildingBlock: XIVTED_clean_linker_0, # of connection points: 2
#     Edge 46, Type (0, 0), BuildingBlock: XIVTED_clean_linker_0, # of connection points: 2
#     Edge 47, Type (0, 0), BuildingBlock: XIVTED_clean_linker_0, # of connection points: 2
#     Edge 48, Type (0, 0), BuildingBlock: XIVTED_clean_linker_0, # of connection points: 2
#     Edge 49, Type (0, 0), BuildingBlock: XIVTED_clean_linker_0, # of connection points: 2
#     Edge 50, Type (0, 0), BuildingBlock: XIVTED_clean_linker_0, # of connection points: 2
#     Edge 51, Type (0, 0), BuildingBlock: XIVTED_clean_linker_0, # of connection points: 2
#     Edge 52, Type (0, 0), BuildingBlock: XIVTED_clean_linker_0, # of connection points: 2
#     Edge 53, Type (0, 0), BuildingBlock: XIVTED_clean_linker_0, # of connection points: 2
#     Edge 54, Type (0, 0), BuildingBlock: XIVTED_clean_linker_0, # of connection points: 2
#     Edge 55, Type (0, 0), BuildingBlock: XIVTED_clean_linker_0, # of connection points: 2
#     Edge 56, Type (0, 0), BuildingBlock: XIVTED_clean_linker_0, # of connection points: 2
#     Edge 57, Type (0, 0), BuildingBlock: XIVTED_clean_linker_0, # of connection points: 2
#     Edge 58, Type (0, 0), BuildingBlock: XIVTED_clean_linker_0, # of connection points: 2
#     Edge 59, Type (0, 0), BuildingBlock: XIVTED_clean_linker_0, # of connection points: 2
#     Edge 60, Type (0, 0), BuildingBlock: XIVTED_clean_linker_0, # of connection points: 2
#     Edge 61, Type (0, 0), BuildingBlock: XIVTED_clean_linker_0, # of connection points: 2
#     Edge 62, Type (0, 0), BuildingBlock: XIVTED_clean_linker_0, # of connection points: 2
#     Edge 63, Type (0, 0), BuildingBlock: XIVTED_clean_linker_0, # of connection points: 2
#     Edge 64, Type (0, 0), BuildingBlock: XIVTED_clean_linker_0, # of connection points: 2
#     Edge 65, Type (0, 0), BuildingBlock: XIVTED_clean_linker_0, # of connection points: 2
#     Edge 66, Type (0, 0), BuildingBlock: XIVTED_clean_linker_0, # of connection points: 2
#     Edge 67, Type (0, 0), BuildingBlock: XIVTED_clean_linker_0, # of connection points: 2
#     Edge 68, Type (0, 0), BuildingBlock: XIVTED_clean_linker_0, # of connection points: 2
#     Edge 69, Type (0, 0), BuildingBlock: XIVTED_clean_linker_0, # of connection points: 2
#     Edge 70, Type (0, 0), BuildingBlock: XIVTED_clean_linker_0, # of connection points: 2
#     Edge 71, Type (0, 0), BuildingBlock: XIVTED_clean_linker_0, # of connection points: 2
# Relax obj value: 0.098
# Max RMSD: 0.170
# Mean RMSD: 0.170
data_MOF--net-wfw--node1-HICVOG_clean_sbu_0--edge1-XIVTED_clean_linker_0
_symmetry_space_group_name_H-M    P1
_symmetry_Int_Tables_number       1
_symmetry_cell_setting            triclinic
loop_
_symmetry_equiv_pos_as_xyz
'x, y, z'
_cell_length_a     45.229876
_cell_length_b     45.28026
_cell_length_c     35.342843
_cell_angle_alpha  90.049835
_cell_angle_beta   90.030486
_cell_angle_gamma 89.973512
loop_
_atom_site_label
_atom_site_type_symbol
_atom_site_fract_x
_atom_site_fract_y
_atom_site_fract_z
_atom_type_partial_charge
Zn0 Zn 0.56187 0.25622 0.40356 0.0
C1 C 0.56552 0.17778 0.34917 0.0
N2 N 0.57879 0.16886 0.38115 0.0
C3 C 0.57696 0.19274 0.4035 0.0
N4 N 0.5636 0.21558 0.38596 0.0
N5 N 0.55577 0.20599 0.35189 0.0
C6 C 0.54145 0.22609 0.25367 0.0
O7 O 0.5593 0.24203 0.27474 0.0
O8 O 0.55894 0.26004 0.46052 0.0
Zn9 Zn 0.51899 0.21742 0.32662 0.0
N10 N 0.598 0.27607 0.38865 0.0
C11 C 0.63318 0.28872 0.34134 0.0
C12 C 0.60781 0.2735 0.35249 0.0
C13 C 0.61274 0.29299 0.41432 0.0
N14 N 0.64778 0.30581 0.36688 0.0
C15 C 0.63843 0.30824 0.40336 0.0
O16 O 0.50524 0.26012 0.33314 0.0
C17 C 0.5089 0.28139 0.35626 0.0
O18 O 0.52821 0.28017 0.38241 0.0
H19 H 0.59585 0.25996 0.33247 0.0
H20 H 0.60413 0.29498 0.44275 0.0
C21 C 0.47114 0.17192 0.33898 0.0
C22 C 0.45233 0.15697 0.36456 0.0
C23 C 0.46908 0.18809 0.41425 0.0
C24 C 0.48758 0.20269 0.38917 0.0
N25 N 0.48863 0.19431 0.35226 0.0
N26 N 0.45211 0.16559 0.40146 0.0
H27 H 0.47243 0.16538 0.30957 0.0
C28 C 0.54407 0.24451 0.48358 0.0
O29 O 0.52902 0.22171 0.47105 0.0
O30 O 0.52145 0.21091 0.2699 0.0
H31 H 0.50151 0.22047 0.39911 0.0
H32 H 0.64114 0.28708 0.31256 0.0
H33 H 0.46833 0.19443 0.44375 0.0
Zn34 Zn 0.32341 0.52867 0.32562 0.0
C35 C 0.32078 0.60612 0.3834 0.0
N36 N 0.33896 0.61566 0.3562 0.0
C37 C 0.34001 0.59259 0.33231 0.0
N38 N 0.3232 0.56962 0.34446 0.0
N39 N 0.31088 0.5786 0.37656 0.0
C40 C 0.25057 0.55135 0.47032 0.0
O41 O 0.22861 0.54259 0.44869 0.0
O42 O 0.32544 0.5309 0.26833 0.0
Zn43 Zn 0.27357 0.56671 0.39757 0.0
N44 N 0.35779 0.50869 0.34886 0.0
C45 C 0.39586 0.51438 0.39499 0.0
C46 C 0.37206 0.52567 0.37494 0.0
C47 C 0.36667 0.48019 0.34228 0.0
N48 N 0.40436 0.48617 0.38893 0.0
C49 C 0.39059 0.46842 0.36333 0.0
O50 O 0.25678 0.53008 0.37456 0.0
C51 C 0.26092 0.50801 0.35299 0.0
O52 O 0.28518 0.50453 0.33508 0.0
H53 H 0.36507 0.54796 0.38064 0.0
H54 H 0.35479 0.46671 0.32206 0.0
C55 C 0.23329 0.61498 0.41147 0.0
C56 C 0.21383 0.63771 0.40057 0.0
C57 C 0.2229 0.62594 0.33611 0.0
C58 C 0.24202 0.60339 0.34712 0.0
N59 N 0.24666 0.59823 0.3845 0.0
N60 N 0.20913 0.64238 0.36298 0.0
H61 H 0.2373 0.61011 0.44096 0.0
C62 C 0.30117 0.54077 0.25507 0.0
O63 O 0.28048 0.54902 0.27891 0.0
O64 O 0.27352 0.56221 0.4548 0.0
H65 H 0.25311 0.59001 0.32612 0.0
H66 H 0.4073 0.52781 0.41567 0.0
H67 H 0.21887 0.63024 0.30645 0.0
Zn68 Zn 0.9717 0.27349 0.40242 0.0
C69 C 0.96397 0.35348 0.35204 0.0
N70 N 0.94627 0.35803 0.382 0.0
C71 C 0.94896 0.33291 0.40154 0.0
N72 N 0.96734 0.31363 0.38459 0.0
N73 N 0.97747 0.32665 0.35346 0.0
C74 C 1.00246 0.29724 0.25425 0.0
O75 O 0.99455 0.27471 0.2753 0.0
O76 O 0.97629 0.2724 0.45969 0.0
Zn77 Zn 1.01509 0.31681 0.32791 0.0
N78 N 0.93585 0.25256 0.38911 0.0
C79 C 0.90258 0.23627 0.34131 0.0
C80 C 0.92773 0.25198 0.35212 0.0
C81 C 0.91965 0.23832 0.4159 0.0
N82 N 0.88658 0.22173 0.36795 0.0
C83 C 0.89425 0.22243 0.40521 0.0
O84 O 0.031 0.27485 0.33635 0.0
C85 C 0.02622 0.25163 0.35574 0.0
O86 O 1.0053 0.25046 0.37968 0.0
H87 H 0.94089 0.26344 0.33122 0.0
H88 H 0.92687 0.23888 0.44504 0.0
C89 C 0.06648 0.35883 0.33372 0.0
C90 C 0.08607 0.37556 0.35638 0.0
C91 C 0.06167 0.35844 0.41153 0.0
C92 C 0.04248 0.3419 0.3893 0.0
N93 N 0.04489 0.3425 0.35096 0.0
N94 N 0.08285 0.3749 0.39461 0.0
H95 H 0.06828 0.35895 0.30319 0.0
C96 C 0.98526 0.24859 0.47507 0.0
O97 O 0.99171 0.22593 0.45336 0.0
O98 O 1.01177 0.32065 0.27041 0.0
H99 H 0.0257 0.32845 0.40259 0.0
H100 H 0.89594 0.23544 0.31192 0.0
H101 H 0.05978 0.35821 0.44204 0.0
Zn102 Zn 0.25873 0.96298 0.40724 0.0
C103 C 0.17853 0.96276 0.35665 0.0
N104 N 0.16993 0.95008 0.38914 0.0
C105 C 0.19433 0.95155 0.4107 0.0
N106 N 0.21717 0.96421 0.39223 0.0
N107 N 0.207 0.97195 0.3584 0.0
C108 C 0.23607 0.98826 0.26014 0.0
O109 O 0.25551 0.97623 0.28308 0.0
O110 O 0.26455 0.96673 0.46422 0.0
Zn111 Zn 0.21949 1.00741 0.33131 0.0
N112 N 0.27419 0.92478 0.39208 0.0
C113 C 0.27055 0.88204 0.35308 0.0
C114 C 0.26185 0.9108 0.36191 0.0
C115 C 0.29548 0.91142 0.41326 0.0
N116 N 0.29121 0.86837 0.37483 0.0
C117 C 0.30415 0.88237 0.40462 0.0
O118 O 0.2625 0.01973 0.33858 0.0
C119 C 0.28524 1.01413 0.35856 0.0
O120 O 0.28487 0.99412 0.38381 0.0
H121 H 0.24492 0.92165 0.34538 0.0
H122 H 0.30461 0.92286 0.4375 0.0
C123 C 0.17642 0.05822 0.33877 0.0
C124 C 0.16221 0.07904 0.36246 0.0
C125 C 0.19039 0.0619 0.41466 0.0
C126 C 0.20433 0.04146 0.39144 0.0
N127 N 0.19704 0.03965 0.3542 0.0
N128 N 0.16963 0.08001 0.39974 0.0
H129 H 0.17077 0.05646 0.3091 0.0
C130 C 0.24963 0.98304 0.48646 0.0
O131 O 0.22739 0.99844 0.47298 0.0
O132 O 0.2147 1.00286 0.27439 0.0
H133 H 0.22085 0.02676 0.40304 0.0
H134 H 0.26064 0.87049 0.32946 0.0
H135 H 0.19589 0.06329 0.4444 0.0
Zn136 Zn 0.02263 0.81416 0.18373 0.0
C137 C 0.08106 0.83904 0.107 0.0
N138 N 0.08275 0.86302 0.12924 0.0
C139 C 0.06911 0.85427 0.16103 0.0
N140 N 0.05916 0.82614 0.15822 0.0
N141 N 0.06739 0.81631 0.12442 0.0
C142 C 0.04788 0.78694 0.02809 0.0
O143 O 0.03463 0.81089 0.04044 0.0
O144 O 0.02623 0.81945 0.24065 0.0
Zn145 Zn 0.06724 0.77528 0.1078 0.0
N146 N 0.99132 0.83712 0.15943 0.0
C147 C 0.97083 0.84409 0.09801 0.0
C148 C 0.99029 0.82972 0.12217 0.0
C149 C 0.97289 0.85829 0.17392 0.0
N150 N 0.9529 0.86539 0.11201 0.0
C151 C 0.95309 0.87297 0.14927 0.0
O152 O 0.03639 0.74938 0.13185 0.0
C153 C 1.01609 0.74854 0.1567 0.0
O154 O 1.00982 0.77107 0.17674 0.0
H155 H 1.00488 0.81281 0.11128 0.0
H156 H 0.97408 0.86407 0.2036 0.0
C157 C 0.11505 0.73497 0.09833 0.0
C158 C 0.14356 0.72344 0.10426 0.0
C159 C 0.15093 0.75845 0.1534 0.0
C160 C 0.1226 0.76977 0.14739 0.0
N161 N 0.10536 0.75801 0.11972 0.0
N162 N 0.16083 0.73576 0.1316 0.0
H163 H 0.10096 0.72642 0.07613 0.0
C164 C 0.04094 0.79838 0.25536 0.0
O165 O 0.0533 0.77886 0.23283 0.0
O166 O 0.06203 0.77067 0.05111 0.0
H167 H 0.11463 0.78815 0.16409 0.0
H168 H 0.97008 0.83851 0.06825 0.0
H169 H 0.16506 0.7678 0.17501 0.0
Zn170 Zn 0.71721 0.02431 0.17679 0.0
C171 C 0.70609 0.09626 0.11046 0.0
N172 N 0.68282 0.10121 0.13302 0.0
C173 C 0.68561 0.08001 0.15931 0.0
N174 N 0.70982 0.06295 0.15341 0.0
N175 N 0.72274 0.07345 0.12247 0.0
C176 C 0.75954 0.04132 0.02935 0.0
O177 O 0.74705 0.01898 0.04674 0.0
O178 O 0.7106 0.02664 0.23355 0.0
Zn179 Zn 0.76302 0.06797 0.10544 0.0
N180 N 0.69102 0.99678 0.15024 0.0
C181 C 0.67586 0.98521 0.08745 0.0
C182 C 0.69338 1.00118 0.11234 0.0
C183 C 0.6719 0.97616 0.16448 0.0
N184 N 0.65653 0.96519 0.10137 0.0
C185 C 0.6539 0.95991 0.13913 0.0
O186 O 0.78503 0.03398 0.12917 0.0
C187 C 0.78314 1.01298 0.15295 0.0
O188 O 0.75936 1.00817 0.17128 0.0
H189 H 0.7087 0.01737 0.10159 0.0
H190 H 0.67022 0.97297 0.19475 0.0
C191 C 0.79533 0.12149 0.09281 0.0
C192 C 0.81078 0.14709 0.1036 0.0
C193 C 0.80143 0.13565 0.16804 0.0
C194 C 0.78622 0.11024 0.15712 0.0
N195 N 0.7837 0.10356 0.1198 0.0
N196 N 0.81355 0.15331 0.14114 0.0
H197 H 0.79323 0.11534 0.06336 0.0
C198 C 0.72794 0.04476 0.24995 0.0
O199 O 0.74585 0.06068 0.22901 0.0
O200 O 0.76693 0.06404 0.04828 0.0
H201 H 0.77663 0.0958 0.17815 0.0
H202 H 0.67746 0.98878 0.05726 0.0
H203 H 0.80381 0.14118 0.19767 0.0
Zn204 Zn 0.51598 0.71765 0.1703 0.0
C205 C 0.45883 0.69305 0.09054 0.0
N206 N 0.45801 0.66819 0.11114 0.0
C207 C 0.47175 0.67595 0.14335 0.0
N208 N 0.48111 0.70436 0.14211 0.0
N209 N 0.47214 0.71539 0.10929 0.0
C210 C 0.4894 0.74788 0.01596 0.0
O211 O 0.5049 0.72531 0.0283 0.0
O212 O 0.51146 0.71034 0.22652 0.0
Zn213 Zn 0.47121 0.75695 0.09554 0.0
N214 N 0.5497 0.69752 0.14766 0.0
C215 C 0.5777 0.69676 0.09064 0.0
C216 C 0.55372 0.7069 0.11151 0.0
C217 C 0.56874 0.67777 0.16388 0.0
N218 N 0.59692 0.67757 0.10675 0.0
C219 C 0.59322 0.66763 0.14273 0.0
O220 O 0.50259 0.7827 0.11896 0.0
C221 C 0.52189 0.7836 0.1451 0.0
O222 O 0.52722 0.76118 0.16569 0.0
H223 H 0.53847 0.72261 0.09921 0.0
H224 H 0.56531 0.67063 0.19276 0.0
C225 C 0.41806 0.79023 0.08669 0.0
C226 C 0.39144 0.80343 0.09824 0.0
C227 C 0.39789 0.78266 0.15932 0.0
C228 C 0.42421 0.7694 0.14756 0.0
N229 N 0.43383 0.77359 0.11157 0.0
N230 N 0.38221 0.79948 0.13454 0.0
H231 H 0.42653 0.79357 0.0584 0.0
C232 C 0.49545 0.72963 0.2429 0.0
O233 O 0.48265 0.75001 0.22211 0.0
O234 O 0.47408 0.76291 0.0391 0.0
H235 H 0.43705 0.75613 0.16699 0.0
H236 H 0.58118 0.70425 0.06193 0.0
H237 H 0.39005 0.77975 0.18798 0.0
Zn238 Zn 0.82296 0.50638 0.17661 0.0
C239 C 0.82455 0.42968 0.11663 0.0
N240 N 0.8487 0.42398 0.13717 0.0
C241 C 0.84957 0.44677 0.1615 0.0
N242 N 0.82672 0.46591 0.15607 0.0
N243 N 0.8111 0.45482 0.1275 0.0
C244 C 0.74761 0.47922 0.03525 0.0
O245 O 0.72467 0.4855 0.05659 0.0
O246 O 0.82477 0.50551 0.23434 0.0
Zn247 Zn 0.77221 0.4646 0.10827 0.0
N248 N 0.85417 0.52969 0.15234 0.0
C249 C 0.88027 0.53376 0.09408 0.0
C250 C 0.85852 0.52067 0.11605 0.0
C251 C 0.87043 0.55239 0.16734 0.0
N252 N 0.89675 0.55581 0.109 0.0
C253 C 0.89259 0.56585 0.14492 0.0
O254 O 0.75332 0.50049 0.13093 0.0
C255 C 0.75831 0.5232 0.15106 0.0
O256 O 0.78336 0.52748 0.16671 0.0
H257 H 0.8451 0.50327 0.10413 0.0
H258 H 0.86654 0.55946 0.19617 0.0
C259 C 0.73616 0.41353 0.09323 0.0
C260 C 0.71787 0.38965 0.10323 0.0
C261 C 0.72384 0.40233 0.16802 0.0
C262 C 0.74178 0.42606 0.15788 0.0
N263 N 0.74738 0.43131 0.12075 0.0
N264 N 0.71214 0.38489 0.14056 0.0
H265 H 0.74087 0.4185 0.06394 0.0
C266 C 0.80051 0.49636 0.24851 0.0
O267 O 0.77955 0.48735 0.2255 0.0
O268 O 0.77126 0.47009 0.051 0.0
H269 H 0.75115 0.44031 0.17935 0.0
H270 H 0.88404 0.52652 0.06531 0.0
H271 H 0.71904 0.39793 0.19746 0.0
Zn272 Zn 0.47314 0.77128 0.59838 0.0
C273 C 0.44338 0.83839 0.65887 0.0
N274 N 0.42187 0.83651 0.63267 0.0
C275 C 0.43343 0.81821 0.60699 0.0
N276 N 0.46061 0.80903 0.6168 0.0
N277 N 0.46752 0.82203 0.64931 0.0
C278 C 0.49446 0.79959 0.74005 0.0
O279 O 0.48761 0.77896 0.71542 0.0
O280 O 0.47729 0.77058 0.54141 0.0
Zn281 Zn 0.50788 0.82316 0.67071 0.0
N282 N 0.44185 0.74429 0.61227 0.0
C283 C 0.41718 0.71791 0.66107 0.0
C284 C 0.43949 0.73703 0.64941 0.0
C285 C 0.42258 0.73343 0.58618 0.0
N286 N 0.39816 0.70672 0.63504 0.0
C287 C 0.40003 0.71398 0.59772 0.0
O288 O 0.53352 0.78571 0.66166 0.0
C289 C 0.5315 0.76105 0.64422 0.0
O290 O 0.51006 0.75548 0.62211 0.0
H291 H 0.4549 0.74604 0.66972 0.0
H292 H 0.42531 0.73945 0.5568 0.0
C293 C 0.55684 0.86649 0.65638 0.0
C294 C 0.56861 0.89135 0.63725 0.0
C295 C 0.52204 0.8991 0.60782 0.0
C296 C 0.51074 0.87443 0.62595 0.0
N297 N 0.52801 0.85846 0.64999 0.0
N298 N 0.55053 0.90678 0.61366 0.0
H299 H 0.57054 0.8533 0.67494 0.0
C300 C 0.48696 0.74701 0.52619 0.0
O301 O 0.49468 0.72485 0.54806 0.0
O302 O 0.50377 0.82432 0.72777 0.0
H303 H 0.4882 0.86812 0.62043 0.0
H304 H 0.41508 0.71184 0.69054 0.0
H305 H 0.50837 0.91188 0.58876 0.0
Zn306 Zn 0.75859 0.46504 0.60412 0.0
C307 C 0.67664 0.4623 0.65083 0.0
N308 N 0.67244 0.44358 0.62184 0.0
C309 C 0.69761 0.44579 0.60222 0.0
N310 N 0.71689 0.46462 0.61852 0.0
N311 N 0.70359 0.47565 0.64906 0.0
C312 C 0.73006 0.49446 0.75165 0.0
O313 O 0.75098 0.48193 0.73145 0.0
O314 O 0.76474 0.47086 0.54755 0.0
Zn315 Zn 0.7163 0.51143 0.67723 0.0
N316 N 0.77455 0.42621 0.61509 0.0
C317 C 0.77219 0.38042 0.64797 0.0
C318 C 0.76223 0.40931 0.64264 0.0
C319 C 0.79702 0.41568 0.59335 0.0
N320 N 0.79426 0.36969 0.62579 0.0
C321 C 0.80725 0.38664 0.59871 0.0
O322 O 0.76015 0.52153 0.67293 0.0
C323 C 0.78387 0.51515 0.65538 0.0
O324 O 0.78447 0.49506 0.63023 0.0
H325 H 0.74435 0.41796 0.65969 0.0
H326 H 0.80622 0.42955 0.57139 0.0
C327 C 0.67912 0.56673 0.66813 0.0
C328 C 0.67164 0.59164 0.64584 0.0
C329 C 0.70047 0.57243 0.5954 0.0
C330 C 0.70803 0.54817 0.61741 0.0
N331 N 0.69756 0.5457 0.65327 0.0
N332 N 0.68272 0.59358 0.61015 0.0
H333 H 0.6713 0.5647 0.69695 0.0
C334 C 0.75204 0.48933 0.52587 0.0
O335 O 0.73135 0.50663 0.53959 0.0
O336 O 0.70967 0.50855 0.73439 0.0
H337 H 0.72292 0.53158 0.60643 0.0
H338 H 0.76228 0.36654 0.66938 0.0
H339 H 0.70896 0.57465 0.56693 0.0
Zn340 Zn 0.06736 0.75785 0.61101 0.0
C341 C 0.07255 0.67768 0.66005 0.0
N342 N 0.09215 0.67336 0.63206 0.0
C343 C 0.08923 0.69792 0.6113 0.0
N344 N 0.06924 0.71675 0.62597 0.0
N345 N 0.05841 0.70396 0.65678 0.0
C346 C 0.04127 0.73168 0.75296 0.0
O347 O 0.05347 0.75026 0.72906 0.0
O348 O 0.06322 0.76344 0.55421 0.0
Zn349 Zn 0.02162 0.71432 0.68282 0.0
N350 N 0.10479 0.77568 0.62447 0.0
C351 C 0.15002 0.77547 0.65891 0.0
C352 C 0.12202 0.76367 0.65197 0.0
C353 C 0.11413 0.79938 0.60419 0.0
N354 N 0.15959 0.79886 0.6382 0.0
C355 C 0.14226 0.81141 0.61111 0.0
O356 O 1.00712 0.75691 0.67584 0.0
C357 C 1.01352 0.78057 0.65816 0.0
O358 O 0.03506 0.78167 0.63512 0.0
H359 H 0.11432 0.74476 0.66783 0.0
H360 H 0.10007 0.8081 0.58207 0.0
C361 C 0.97361 0.66814 0.67478 0.0
C362 C 0.95477 0.65193 0.65048 0.0
C363 C 0.97191 0.67997 0.59821 0.0
C364 C 0.99042 0.69584 0.62205 0.0
N365 N 0.99132 0.68958 0.6596 0.0
N366 N 0.95474 0.65837 0.61289 0.0
H367 H 0.97468 0.66333 0.70474 0.0
C368 C 0.04421 0.75132 0.53276 0.0
O369 O 0.02567 0.73198 0.54695 0.0
O370 O 0.02618 0.71026 0.73973 0.0
H371 H 1.00445 0.71299 0.61078 0.0
H372 H 0.16415 0.76593 0.68036 0.0
H373 H 0.9713 0.68463 0.5682 0.0
Zn374 Zn 0.81977 0.02235 0.67667 0.0
C375 C 0.83178 0.09562 0.61232 0.0
N376 N 0.85593 0.09922 0.63361 0.0
C377 C 0.85339 0.07757 0.65935 0.0
N378 N 0.82842 0.06129 0.65419 0.0
N379 N 0.81495 0.07297 0.62427 0.0
C380 C 0.76399 0.04219 0.53075 0.0
O381 O 0.75681 0.01878 0.5506 0.0
O382 O 0.82285 0.02405 0.73427 0.0
Zn383 Zn 0.77514 0.06774 0.60555 0.0
N384 N 0.84763 0.99544 0.65244 0.0
C385 C 0.86686 0.98404 0.59147 0.0
C386 C 0.84769 0.99993 0.61441 0.0
C387 C 0.86563 0.97469 0.6686 0.0
N388 N 0.88517 0.96392 0.60737 0.0
C389 C 0.88515 0.95849 0.64524 0.0
O390 O 0.75325 0.0327 0.6262 0.0
C391 C 0.75506 1.01018 0.64753 0.0
O392 O 0.77848 1.00464 0.66631 0.0
H393 H 0.83295 0.01603 0.60198 0.0
H394 H 0.86522 0.9713 0.6989 0.0
C395 C 0.73078 0.1122 0.59709 0.0
C396 C 0.71673 0.13927 0.60474 0.0
C397 C 0.74917 0.14669 0.65663 0.0
C398 C 0.76294 0.11975 0.64901 0.0
N399 N 0.75368 0.1032 0.61917 0.0
N400 N 0.72656 0.15592 0.63425 0.0
H401 H 0.72425 0.09878 0.57315 0.0
C402 C 0.79901 0.03262 0.75008 0.0
O403 O 0.77661 0.04045 0.72866 0.0
O404 O 0.77369 0.06498 0.54786 0.0
H405 H 0.78124 0.11237 0.6663 0.0
H406 H 0.86728 0.98768 0.56123 0.0
H407 H 0.75655 0.16028 0.67998 0.0
Zn408 Zn 1.00874 0.21484 0.83243 0.0
C409 C 0.93317 0.20777 0.8942 0.0
N410 N 0.92915 0.18296 0.87436 0.0
C411 C 0.95164 0.18355 0.84957 0.0
N412 N 0.96893 0.20795 0.85398 0.0
N413 N 0.95695 0.22303 0.88243 0.0
C414 C 0.99085 0.25971 0.97464 0.0
O415 O 1.01276 0.24692 0.95659 0.0
O416 O 1.00776 0.20931 0.77536 0.0
Zn417 Zn 0.96321 0.26311 0.89935 0.0
N418 N 0.0351 0.18768 0.8592 0.0
C419 C 0.04367 0.16849 0.92093 0.0
C420 C 0.02837 0.18711 0.89667 0.0
C421 C 0.05741 0.17053 0.84493 0.0
N422 N 0.06534 0.15105 0.90686 0.0
C423 C 0.07294 0.15142 0.86961 0.0
O424 O 0.99759 0.28392 0.87612 0.0
C425 C 0.02006 0.28119 0.85488 0.0
O426 O 0.02612 0.25672 0.83876 0.0
H427 H 1.01094 0.20099 0.90762 0.0
H428 H 0.06249 0.17122 0.81503 0.0
C429 C 0.91008 0.29579 0.91262 0.0
C430 C 0.88469 0.3118 0.90228 0.0
C431 C 0.8964 0.30391 0.83757 0.0
C432 C 0.92161 0.28813 0.84804 0.0
N433 N 0.92804 0.28462 0.8853 0.0
N434 N 0.87871 0.31557 0.86483 0.0
H435 H 0.91604 0.29286 0.94201 0.0
C436 C 0.99503 0.23082 0.75871 0.0
O437 O 0.98339 0.25187 0.77953 0.0
O438 O 0.96783 0.26723 0.95637 0.0
H439 H 0.93606 0.27886 0.82673 0.0
H440 H 0.03829 0.16776 0.95074 0.0
H441 H 0.89105 0.30708 0.80802 0.0
Zn442 Zn 0.31739 1.0124 0.83528 0.0
C443 C 0.33192 0.94094 0.90113 0.0
N444 N 0.35621 0.93809 0.87982 0.0
C445 C 0.35218 0.95853 0.85276 0.0
N446 N 0.32619 0.97319 0.85717 0.0
N447 N 0.3134 0.96168 0.8876 0.0
C448 C 0.28031 0.98586 0.98185 0.0
O449 O 0.2998 1.00439 0.96794 0.0
O450 O 0.32023 1.01026 0.7776 0.0
Zn451 Zn 0.27257 0.96439 0.90317 0.0
N452 N 0.34474 0.04025 0.86036 0.0
C453 C 0.36793 0.04789 0.92013 0.0
C454 C 0.35047 0.03103 0.89627 0.0
C455 C 0.35578 0.06662 0.84746 0.0
N456 N 0.37857 0.07398 0.90769 0.0
C457 C 0.37304 0.0843 0.87222 0.0
O458 O 0.24967 0.99814 0.88107 0.0
C459 C 0.25133 0.02121 0.86069 0.0
O460 O 0.27535 0.0285 0.84431 0.0
H461 H 0.34102 1.01086 0.9069 0.0
H462 H 0.3504 0.07412 0.81923 0.0
C463 C 0.23051 0.91809 0.90987 0.0
C464 C 0.21788 0.89037 0.90219 0.0
C465 C 0.25184 0.88391 0.85171 0.0
C466 C 0.26427 0.91149 0.85945 0.0
N467 N 0.25353 0.92787 0.8886 0.0
N468 N 0.22914 0.87389 0.87337 0.0
H469 H 0.22285 0.93143 0.93331 0.0
C470 C 0.29735 0.9978 0.76378 0.0
O471 O 0.27766 0.9868 0.78717 0.0
O472 O 0.26775 0.96742 0.96002 0.0
H473 H 0.2827 0.91949 0.84289 0.0
H474 H 0.37257 0.04059 0.94866 0.0
H475 H 0.26038 0.87043 0.82891 0.0
Zn476 Zn 0.56535 0.27277 0.89871 0.0
C477 C 0.58364 0.34862 0.84283 0.0
N478 N 0.60655 0.34833 0.867 0.0
C479 C 0.6009 0.32474 0.88856 0.0
N480 N 0.57564 0.31112 0.87842 0.0
N481 N 0.56447 0.32604 0.84932 0.0
C482 C 0.5351 0.29845 0.7591 0.0
O483 O 0.54336 0.27829 0.78363 0.0
O484 O 0.5636 0.27157 0.95635 0.0
Zn485 Zn 0.52395 0.32269 0.829 0.0
N486 N 0.5969 0.24639 0.88367 0.0
C487 C 0.62395 0.22252 0.83473 0.0
C488 C 0.60131 0.24142 0.84621 0.0
C489 C 0.61447 0.23354 0.91024 0.0
N490 N 0.64129 0.20938 0.86123 0.0
C491 C 0.6374 0.21444 0.89889 0.0
O492 O 0.50141 0.28408 0.84038 0.0
C493 C 0.50467 0.26017 0.85895 0.0
O494 O 0.52728 0.25564 0.87951 0.0
H495 H 0.58729 0.25203 0.82551 0.0
H496 H 0.61009 0.23772 0.93984 0.0
C497 C 0.47917 0.37162 0.83665 0.0
C498 C 0.4667 0.39494 0.85809 0.0
C499 C 0.49933 0.38366 0.90871 0.0
C500 C 0.51141 0.36072 0.88777 0.0
N501 N 0.5017 0.35532 0.85199 0.0
N502 N 0.47748 0.40018 0.89342 0.0
H503 H 0.47146 0.36687 0.80831 0.0
C504 C 0.53957 0.26788 0.97445 0.0
O505 O 0.51451 0.26731 0.95571 0.0
O506 O 0.52572 0.32318 0.77153 0.0
H507 H 0.52859 0.34724 0.90011 0.0
H508 H 0.62766 0.21821 0.805 0.0
H509 H 0.50718 0.38828 0.93703 0.0
Zn510 Zn 0.21656 0.52209 0.82628 0.0
C511 C 0.19337 0.58061 0.90506 0.0
N512 N 0.16834 0.5814 0.8847 0.0
C513 C 0.17584 0.56726 0.85273 0.0
N514 N 0.20424 0.55776 0.85365 0.0
N515 N 0.21551 0.56688 0.88634 0.0
C516 C 0.24731 0.54734 0.97956 0.0
O517 O 0.22402 0.53318 0.96674 0.0
O518 O 0.20906 0.52591 0.76987 0.0
Zn519 Zn 0.25712 0.56703 0.90043 0.0
N520 N 0.1954 0.48974 0.85061 0.0
C521 C 0.19046 0.46773 0.91142 0.0
C522 C 0.20357 0.48825 0.88757 0.0
C523 C 0.17473 0.47081 0.83607 0.0
N524 N 0.1696 0.44929 0.89739 0.0
C525 C 0.16133 0.44996 0.86039 0.0
O526 O 0.28271 0.53617 0.8755 0.0
C527 C 0.28298 0.51629 0.85006 0.0
O528 O 0.25998 0.51033 0.83074 0.0
H529 H 0.22013 0.50325 0.89843 0.0
H530 H 0.16836 0.47238 0.80662 0.0
C531 C 0.29798 0.61441 0.90658 0.0
C532 C 0.30951 0.64273 0.89974 0.0
C533 C 0.27213 0.65058 0.85368 0.0
C534 C 0.26084 0.62238 0.86052 0.0
N535 N 0.27378 0.60503 0.88717 0.0
N536 N 0.296 0.66018 0.87357 0.0
H537 H 0.30754 0.6002 0.92793 0.0
C538 C 0.22792 0.54232 0.75333 0.0
O539 O 0.2478 0.55598 0.77407 0.0
O540 O 0.263 0.56242 0.9569 0.0
H541 H 0.24157 0.61462 0.84534 0.0
H542 H 0.19665 0.46657 0.94095 0.0
H543 H 0.26184 0.66482 0.83294 0.0
H544 H 0.55055 0.12171 0.32825 0.0
H545 H 0.70128 0.10532 0.22506 0.0
H546 H 0.60063 0.19773 0.29313 0.0
H547 H 0.62821 0.06308 0.16876 0.0
H548 H 0.66645 0.12868 0.26896 0.0
H549 H 0.57891 0.09109 0.28325 0.0
C550 C 0.56656 0.13216 0.30983 0.0
C551 C 0.57271 0.16244 0.31354 0.0
C552 C 0.65817 0.11351 0.24774 0.0
C553 C 0.60646 0.12738 0.26468 0.0
C554 C 0.67805 0.09959 0.22334 0.0
C555 C 0.66765 0.08162 0.19393 0.0
C556 C 0.6277 0.10916 0.24296 0.0
C557 C 0.6371 0.07619 0.19174 0.0
C558 C 0.58299 0.11463 0.28474 0.0
C559 C 0.59456 0.1747 0.29026 0.0
N560 N 0.61804 0.09005 0.21585 0.0
N561 N 0.61115 0.15702 0.2675 0.0
H562 H 0.3868 0.55741 0.30854 0.0
H563 H 0.47534 0.61663 0.15627 0.0
H564 H 0.33633 0.63505 0.28048 0.0
H565 H 0.44691 0.6984 0.20681 0.0
H566 H 0.4442 0.58943 0.20143 0.0
H567 H 0.42621 0.57435 0.26533 0.0
C568 C 0.38345 0.57728 0.29216 0.0
C569 C 0.35812 0.5947 0.29769 0.0
C570 C 0.44574 0.61324 0.20356 0.0
C571 C 0.40341 0.61489 0.25027 0.0
C572 C 0.46374 0.62876 0.17814 0.0
C573 C 0.46427 0.65983 0.17839 0.0
C574 C 0.42759 0.62906 0.22857 0.0
C575 C 0.44797 0.67452 0.20635 0.0
C576 C 0.40612 0.58718 0.26801 0.0
C577 C 0.35538 0.62083 0.27672 0.0
N578 N 0.42974 0.65907 0.22961 0.0
N579 N 0.37791 0.6304 0.25466 0.0
H580 H 0.84572 0.45356 0.23856 0.0
H581 H 0.96269 0.413 0.3562 0.0
H582 H 0.90754 0.43826 0.1481 0.0
H583 H 0.95823 0.34132 0.27623 0.0
H584 H 0.93956 0.44561 0.30941 0.0
H585 H 0.88369 0.43841 0.28417 0.0
C586 C 0.86778 0.44897 0.22846 0.0
C587 C 0.87378 0.44842 0.18959 0.0
C588 C 0.94477 0.42304 0.3017 0.0
C589 C 0.91641 0.42841 0.24113 0.0
C590 C 0.95831 0.40448 0.32808 0.0
C591 C 0.9629 0.37441 0.31991 0.0
C592 C 0.93622 0.41159 0.26659 0.0
C593 C 0.95619 0.36445 0.28331 0.0
C594 C 0.88927 0.43957 0.2544 0.0
C595 C 0.9022 0.43953 0.17793 0.0
N596 N 0.94288 0.38296 0.25805 0.0
N597 N 0.92213 0.42902 0.20341 0.0
H598 H 0.19848 0.93354 0.29463 0.0
H599 H 0.0523 0.91 0.18107 0.0
H600 H 0.12041 0.97379 0.34173 0.0
H601 H 0.10392 0.8356 0.21837 0.0
H602 H 0.07836 0.94145 0.22736 0.0
H603 H 0.16715 0.90661 0.24943 0.0
C604 C 0.1749 0.93779 0.29426 0.0
C605 C 0.16203 0.95628 0.32151 0.0
C606 C 0.0834 0.91809 0.22593 0.0
C607 C 0.12616 0.92514 0.27063 0.0
C608 C 0.06825 0.90008 0.2001 0.0
C609 C 0.07542 0.87001 0.19671 0.0
C610 C 0.10675 0.90614 0.24709 0.0
C611 C 0.09716 0.85847 0.22087 0.0
C612 C 0.15703 0.92195 0.26907 0.0
C613 C 0.13118 0.9601 0.3207 0.0
N614 N 0.11256 0.87667 0.2444 0.0
N615 N 0.11421 0.94464 0.29568 0.0
H616 H 0.33168 0.94789 0.78222 0.0
H617 H 0.47859 0.88154 0.69374 0.0
H618 H 0.41213 0.95916 0.84573 0.0
H619 H 0.39448 0.83712 0.70048 0.0
H620 H 0.45936 0.91987 0.73745 0.0
H621 H 0.35934 0.92095 0.73397 0.0
C622 C 0.35548 0.94644 0.78482 0.0
C623 C 0.36968 0.95629 0.81766 0.0
C624 C 0.44543 0.90143 0.72949 0.0
C625 C 0.40124 0.92386 0.76371 0.0
C626 C 0.45652 0.87936 0.70511 0.0
C627 C 0.43806 0.85613 0.69341 0.0
C628 C 0.41564 0.90034 0.74099 0.0
C629 C 0.40944 0.85469 0.70863 0.0
C630 C 0.37117 0.93029 0.7578 0.0
C631 C 0.40048 0.95217 0.82049 0.0
N632 N 0.399 0.87665 0.73092 0.0
N633 N 0.41525 0.93576 0.7942 0.0
H634 H 0.69134 0.45459 0.72501 0.0
H635 H 0.58667 0.40692 0.85683 0.0
H636 H 0.61689 0.4595 0.6496 0.0
H637 H 0.58022 0.34442 0.76533 0.0
H638 H 0.605 0.44412 0.81226 0.0
H639 H 0.659 0.43449 0.77421 0.0
C640 C 0.66787 0.45356 0.71972 0.0
C641 C 0.65659 0.46045 0.68388 0.0
C642 C 0.59834 0.42264 0.80178 0.0
C643 C 0.62006 0.43424 0.73842 0.0
C644 C 0.58754 0.4015 0.82697 0.0
C645 C 0.58131 0.37263 0.81465 0.0
C646 C 0.60256 0.415 0.7638 0.0
C647 C 0.58367 0.36658 0.77584 0.0
C648 C 0.64953 0.44115 0.74737 0.0
C649 C 0.62631 0.45529 0.67725 0.0
N650 N 0.59445 0.38753 0.75176 0.0
N651 N 0.60927 0.4417 0.70381 0.0
H652 H 0.05984 0.61919 0.66475 0.0
H653 H 0.1937 0.59095 0.78611 0.0
H654 H 0.09291 0.69276 0.72932 0.0
H655 H 0.11678 0.5579 0.84405 0.0
H656 H 0.16116 0.61586 0.74052 0.0
H657 H 0.08274 0.58512 0.71058 0.0
C658 C 0.0706 0.62813 0.68964 0.0
C659 C 0.0738 0.65882 0.69393 0.0
C660 C 0.15155 0.60229 0.76255 0.0
C661 C 0.10139 0.62024 0.74457 0.0
C662 C 0.17005 0.58754 0.78799 0.0
C663 C 0.15791 0.57174 0.81831 0.0
C664 C 0.12079 0.60097 0.76734 0.0
C665 C 0.12694 0.56944 0.82059 0.0
C666 C 0.08401 0.60873 0.71529 0.0
C667 C 0.08911 0.66932 0.72571 0.0
N668 N 0.10932 0.58415 0.79562 0.0
N669 N 0.10301 0.65006 0.74933 0.0
H670 H 0.94967 0.12493 0.86209 0.0
H671 H 0.91258 0.07812 0.65194 0.0
H672 H 0.95282 0.18904 0.7724 0.0
H673 H 0.84373 0.07796 0.736 0.0
H674 H 0.94687 0.0986 0.69886 0.0
H675 H 0.93066 0.08826 0.81705 0.0
C676 C 0.94813 0.13081 0.83243 0.0
C677 C 0.95383 0.15996 0.82074 0.0
C678 C 0.92463 0.09271 0.70739 0.0
C679 C 0.93203 0.11813 0.7694 0.0
C680 C 0.90513 0.08068 0.6809 0.0
C681 C 0.87532 0.07567 0.69027 0.0
C682 C 0.91447 0.09913 0.74381 0.0
C683 C 0.86666 0.08027 0.72791 0.0
C684 C 0.93692 0.10997 0.80701 0.0
C685 C 0.95037 0.16663 0.78227 0.0
N686 N 0.88608 0.09211 0.75329 0.0
N687 N 0.93943 0.14592 0.75797 0.0
H688 H 0.49349 0.24986 0.01893 0.0
H689 H 0.58633 0.24904 0.2113 0.0
H690 H 0.58646 0.27106 0.0239 0.0
H691 H 0.49971 0.20996 0.20091 0.0
H692 H 0.58648 0.25849 0.14325 0.0
H693 H 0.49472 0.23732 0.0861 0.0
C694 C 0.51416 0.25206 0.03416 0.0
C695 C 0.53991 0.26163 0.01566 0.0
C696 C 0.56752 0.24765 0.15576 0.0
C697 C 0.54145 0.24713 0.09281 0.0
C698 C 0.5674 0.24222 0.19465 0.0
C699 C 0.5429 0.22877 0.2119 0.0
C700 C 0.5428 0.23992 0.13386 0.0
C701 C 0.51909 0.22032 0.18882 0.0
C702 C 0.51486 0.24469 0.07252 0.0
C703 C 0.56606 0.26382 0.03694 0.0
N704 N 0.51952 0.22629 0.15106 0.0
N705 N 0.56613 0.25672 0.07438 0.0
H706 H 0.21267 0.53025 0.03905 0.0
H707 H 0.34035 0.53902 0.19519 0.0
H708 H 0.30058 0.56077 0.01227 0.0
H709 H 0.24729 0.54367 0.22148 0.0
H710 H 0.32782 0.54024 0.12735 0.0
H711 H 0.22661 0.52801 0.10591 0.0
C712 C 0.23493 0.53637 0.04722 0.0
C713 C 0.25546 0.54575 0.02008 0.0
C714 C 0.31024 0.54101 0.14812 0.0
C715 C 0.27165 0.54303 0.09647 0.0
C716 C 0.31737 0.54021 0.18672 0.0
C717 C 0.29485 0.54133 0.21398 0.0
C718 C 0.28042 0.54236 0.13692 0.0
C719 C 0.2654 0.54295 0.20149 0.0
C720 C 0.24285 0.53519 0.08537 0.0
C721 C 0.284 0.55355 0.03232 0.0
N722 N 0.25906 0.54325 0.16397 0.0
N723 N 0.29132 0.55187 0.06961 0.0
H724 H 0.99195 0.33954 0.19961 0.0
H725 H 0.02624 0.23222 0.02645 0.0
H726 H 1.01189 0.2471 0.21433 0.0
H727 H 0.96097 0.30129 0.0163 0.0
H728 H 0.03011 0.24281 0.09429 0.0
H729 H 0.98924 0.33135 0.13056 0.0
C730 C 0.99601 0.31767 0.18829 0.0
C731 C 1.00206 0.29393 0.2126 0.0
C732 C 1.01498 0.25566 0.07714 0.0
C733 C 0.99947 0.2846 0.13431 0.0
C734 C 1.0128 0.24967 0.03847 0.0
C735 C 0.99316 0.2658 0.01575 0.0
C736 C 0.99792 0.27838 0.09313 0.0
C737 C 0.97624 0.28818 0.03288 0.0
C738 C 0.99428 0.31299 0.14908 0.0
C739 C 1.00695 0.26596 0.1966 0.0
N740 N 0.97915 0.29398 0.07054 0.0
N741 N 1.00577 0.26212 0.15853 0.0
H742 H 0.28897 0.9817 0.22508 0.0
H743 H 0.22929 0.96696 0.01565 0.0
H744 H 0.19613 0.99355 0.20134 0.0
H745 H 0.31412 1.00587 0.04073 0.0
H746 H 0.2172 0.96815 0.08341 0.0
H747 H 0.29914 0.98171 0.15727 0.0
C748 C 0.27065 0.98411 0.20556 0.0
C749 C 0.24161 0.98763 0.21887 0.0
C750 C 0.23838 0.97649 0.07395 0.0
C751 C 0.25321 0.98737 0.1411 0.0
C752 C 0.24539 0.97567 0.03542 0.0
C753 C 0.27277 0.98636 0.02259 0.0
C754 C 0.2592 0.98735 0.09986 0.0
C755 C 0.29274 0.99754 0.04938 0.0
C756 C 0.27655 0.98431 0.16688 0.0
C757 C 0.21882 0.9909 0.19222 0.0
N758 N 0.28569 0.99746 0.08679 0.0
N759 N 0.22506 0.99042 0.15446 0.0
H760 H 0.03533 0.8389 0.31339 0.0
H761 H 0.02367 0.71723 0.47466 0.0
H762 H 0.04751 0.74595 0.29133 0.0
H763 H 0.06255 0.80227 0.49824 0.0
H764 H 0.02264 0.72974 0.4072 0.0
H765 H 0.03612 0.82825 0.3819 0.0
C766 C 0.0381 0.81634 0.32294 0.0
C767 C 0.04149 0.79329 0.29672 0.0
C768 C 0.03135 0.74565 0.42721 0.0
C769 C 0.04177 0.781 0.37436 0.0
C770 C 0.03185 0.73858 0.46565 0.0
C771 C 0.0433 0.7587 0.492 0.0
C772 C 0.04173 0.7733 0.4151 0.0
C773 C 0.05372 0.78605 0.47875 0.0
C774 C 0.03866 0.81032 0.36187 0.0
C775 C 0.04507 0.76443 0.31053 0.0
N776 N 0.05248 0.79268 0.4412 0.0
N777 N 0.04483 0.75908 0.34831 0.0
H778 H 0.75682 0.08624 0.29207 0.0
H779 H 0.73723 0.9997 0.48763 0.0
H780 H 0.70501 1.00673 0.30317 0.0
H781 H 0.77773 0.08576 0.47939 0.0
H782 H 0.72638 1.00132 0.42 0.0
H783 H 0.765 0.08628 0.36033 0.0
C784 C 0.74697 0.06886 0.3089 0.0
C785 C 0.7303 0.04634 0.29177 0.0
C786 C 0.73762 0.01987 0.43294 0.0
C787 C 0.73988 0.04613 0.3702 0.0
C788 C 0.74398 0.01892 0.4716 0.0
C789 C 0.7585 0.04262 0.48933 0.0
C790 C 0.74595 0.04463 0.41159 0.0
C791 C 0.76654 0.06696 0.46699 0.0
C792 C 0.75169 0.0689 0.34794 0.0
C793 C 0.71798 0.02452 0.31513 0.0
N794 N 0.76022 0.0673 0.42931 0.0
N795 N 0.72322 0.02483 0.35309 0.0
H796 H 0.46489 0.76994 0.28488 0.0
H797 H 0.5105 0.70138 0.48522 0.0
H798 H 0.51943 0.69218 0.29617 0.0
H799 H 0.46628 0.78526 0.47207 0.0
H800 H 0.51164 0.69596 0.41643 0.0
H801 H 0.4624 0.7738 0.35353 0.0
C802 C 0.47626 0.75354 0.30178 0.0
C803 C 0.49252 0.73074 0.28464 0.0
C804 C 0.50173 0.71556 0.42858 0.0
C805 C 0.4898 0.73516 0.36365 0.0
C806 C 0.50106 0.7187 0.46789 0.0
C807 C 0.48834 0.74388 0.4845 0.0
C808 C 0.48945 0.73767 0.4056 0.0
C809 C 0.47643 0.76555 0.46055 0.0
C810 C 0.47489 0.75585 0.34108 0.0
C811 C 0.50671 0.71016 0.30814 0.0
N812 N 0.47723 0.76191 0.42236 0.0
N813 N 0.50507 0.71289 0.34647 0.0
H814 H 0.80238 0.46829 0.49184 0.0
H815 H 0.74712 0.50051 0.28273 0.0
H816 H 0.72104 0.51438 0.46762 0.0
H817 H 0.84014 0.49311 0.30805 0.0
H818 H 0.7362 0.49983 0.35025 0.0
H819 H 0.81572 0.47147 0.42462 0.0
C820 C 0.78731 0.47905 0.47241 0.0
C821 C 0.7605 0.49109 0.48539 0.0
C822 C 0.75902 0.49848 0.34114 0.0
C823 C 0.77556 0.49452 0.40854 0.0
C824 C 0.7653 0.49873 0.30256 0.0
C825 C 0.79461 0.49687 0.28973 0.0
C826 C 0.78213 0.49576 0.36736 0.0
C827 C 0.81726 0.49477 0.31679 0.0
C828 C 0.79504 0.48098 0.43414 0.0
C829 C 0.74193 0.50487 0.45895 0.0
N830 N 0.81053 0.49397 0.35444 0.0
N831 N 0.74968 0.50598 0.4218 0.0
H832 H 0.47269 0.80042 0.98425 0.0
H833 H 0.4919 0.74522 0.7722 0.0
H834 H 0.5073 0.71442 0.95562 0.0
H835 H 0.49454 0.83787 0.80088 0.0
H836 H 0.49078 0.73302 0.83928 0.0
H837 H 0.47408 0.81396 0.91715 0.0
C838 C 0.48053 0.78436 0.96385 0.0
C839 C 0.48996 0.75623 0.97552 0.0
C840 C 0.49165 0.75602 0.83096 0.0
C841 C 0.49132 0.77156 0.89887 0.0
C842 C 0.49213 0.76307 0.79263 0.0
C843 C 0.49334 0.79266 0.78091 0.0
C844 C 0.49192 0.7787 0.85796 0.0
C845 C 0.49374 0.81478 0.80874 0.0
C846 C 0.48144 0.79219 0.92565 0.0
C847 C 0.49997 0.73637 0.9479 0.0
N848 N 0.49285 0.80736 0.84609 0.0
N849 N 0.5002 0.74434 0.91083 0.0
H850 H 0.68945 0.51424 0.80439 0.0
H851 H 0.78862 0.46342 0.98157 0.0
H852 H 0.77326 0.46927 0.79463 0.0
H853 H 0.70123 0.50058 0.99344 0.0
H854 H 0.78369 0.46686 0.91283 0.0
H855 H 0.69339 0.51069 0.87361 0.0
C856 C 0.70861 0.50361 0.81673 0.0
C857 C 0.73106 0.4921 0.79357 0.0
C858 C 0.76557 0.47429 0.93045 0.0
C859 C 0.7358 0.48805 0.87266 0.0
C860 C 0.76842 0.47237 0.96977 0.0
C861 C 0.74533 0.48171 0.99343 0.0
C862 C 0.73947 0.48576 0.91448 0.0
C863 C 0.71963 0.49308 0.97637 0.0
C864 C 0.71087 0.50157 0.85623 0.0
C865 C 0.75537 0.47848 0.81119 0.0
N866 N 0.71741 0.49482 0.93802 0.0
N867 N 0.75711 0.47693 0.84951 0.0
H868 H 0.03096 0.69419 0.81314 0.0
H869 H 0.03686 0.82277 0.96739 0.0
H870 H 0.05438 0.78414 0.78623 0.0
H871 H 0.05568 0.73221 0.99672 0.0
H872 H 0.0352 0.8085 0.9005 0.0
H873 H 0.0324 0.70712 0.88089 0.0
C874 C 0.0364 0.71657 0.82145 0.0
C875 C 0.04265 0.73808 0.79403 0.0
C876 C 0.03967 0.79177 0.92163 0.0
C877 C 0.04379 0.75306 0.87096 0.0
C878 C 0.04048 0.79988 0.95977 0.0
C879 C 0.04645 0.77866 0.98761 0.0
C880 C 0.04428 0.76214 0.9113 0.0
C881 C 0.05116 0.7493 0.9761 0.0
C882 C 0.03729 0.7239 0.86 0.0
C883 C 0.0496 0.76677 0.80634 0.0
N884 N 0.04978 0.74184 0.93883 0.0
N885 N 0.04974 0.77346 0.84378 0.0
H886 H 0.84092 0.04206 0.80562 0.0
H887 H 0.73157 1.00748 0.97634 0.0
H888 H 0.74827 0.02357 0.78898 0.0
H889 H 0.80177 0.07121 0.98892 0.0
H890 H 0.74247 1.00448 0.90852 0.0
H891 H 0.8321 0.04426 0.87453 0.0
C892 C 0.81886 0.03822 0.81648 0.0
C893 C 0.79526 0.0327 0.79167 0.0
C894 C 0.75549 0.01909 0.92619 0.0
C895 C 0.7852 0.03475 0.86981 0.0
C896 C 0.74932 0.02077 0.96484 0.0
C897 C 0.7657 0.03971 0.98824 0.0
C898 C 0.77865 0.03592 0.91091 0.0
C899 C 0.78846 0.05649 0.97179 0.0
C900 C 0.81382 0.03967 0.85561 0.0
C901 C 0.76705 0.02808 0.8071 0.0
N902 N 0.79445 0.05404 0.93414 0.0
N903 N 0.76285 0.02898 0.84512 0.0
H904 H 0.97078 0.27522 0.71691 0.0
H905 H 1.00657 0.20186 0.51592 0.0
H906 H 1.01497 0.19122 0.70497 0.0
H907 H 0.96834 0.28859 0.52948 0.0
H908 H 1.00885 0.19687 0.58468 0.0
H909 H 0.9685 0.27951 0.64834 0.0
C910 C 0.98 0.25758 0.69988 0.0
C911 C 0.99317 0.23281 0.71686 0.0
C912 C 1.00001 0.21701 0.57265 0.0
C913 C 0.99062 0.2377 0.6378 0.0
C914 C 0.99869 0.21991 0.53333 0.0
C915 C 0.98729 0.24574 0.51681 0.0
C916 C 0.98976 0.24004 0.59579 0.0
C917 C 0.9774 0.26834 0.5409 0.0
C918 C 0.97871 0.26012 0.6606 0.0
C919 C 1.00468 0.21073 0.69315 0.0
N920 N 0.97883 0.26493 0.57912 0.0
N921 N 1.00314 0.2137 0.65482 0.0
H922 H 0.30228 0.96827 0.5203 0.0
H923 H 0.24385 0.99372 0.72979 0.0
H924 H 0.21548 1.00274 0.54512 0.0
H925 H 0.33692 0.99888 0.70399 0.0
H926 H 0.23292 0.99052 0.66242 0.0
H927 H 0.31523 0.97294 0.58757 0.0
C928 C 0.28592 0.97672 0.53988 0.0
C929 C 0.25772 0.98515 0.52705 0.0
C930 C 0.25574 0.99245 0.67138 0.0
C931 C 0.27237 0.99028 0.60391 0.0
C932 C 0.26206 0.99415 0.70989 0.0
C933 C 0.29138 0.99662 0.72256 0.0
C934 C 0.2789 0.99264 0.64504 0.0
C935 C 0.31401 0.99721 0.69538 0.0
C936 C 0.29342 0.97954 0.57817 0.0
C937 C 0.23748 0.99608 0.55367 0.0
N938 N 0.30732 0.99497 0.6578 0.0
N939 N 0.24512 0.99812 0.59081 0.0
H940 H 0.53603 0.24385 0.72751 0.0
H941 H 0.56018 0.29724 0.51551 0.0
H942 H 0.53567 0.33626 0.69778 0.0
H943 H 0.52527 0.21136 0.54379 0.0
H944 H 0.55717 0.31133 0.58234 0.0
H945 H 0.53789 0.23105 0.66058 0.0
C946 C 0.53639 0.26151 0.70685 0.0
C947 C 0.5357 0.29121 0.71826 0.0
C948 C 0.55011 0.28946 0.57384 0.0
C949 C 0.53805 0.27657 0.64134 0.0
C950 C 0.55196 0.2813 0.53577 0.0
C951 C 0.54292 0.25304 0.52403 0.0
C952 C 0.53964 0.26906 0.60049 0.0
C953 C 0.53237 0.23338 0.55153 0.0
C954 C 0.53731 0.25413 0.66861 0.0
C955 C 0.53603 0.3131 0.69017 0.0
N956 N 0.5312 0.2417 0.58849 0.0
N957 N 0.53742 0.30534 0.65291 0.0
H958 H 0.19126 0.51694 0.70008 0.0
H959 H 0.28798 0.57405 0.52429 0.0
H960 H 0.26801 0.57292 0.71107 0.0
H961 H 0.20623 0.52589 0.51164 0.0
H962 H 0.28158 0.57269 0.59301 0.0
H963 H 0.19646 0.51924 0.63106 0.0
C964 C 0.20909 0.52981 0.68803 0.0
C965 C 0.22926 0.54467 0.71148 0.0
C966 C 0.26503 0.5624 0.57521 0.0
C967 C 0.23551 0.54724 0.63255 0.0
C968 C 0.26875 0.56308 0.53594 0.0
C969 C 0.24765 0.55001 0.5121 0.0
C970 C 0.24009 0.54845 0.59086 0.0
C971 C 0.22308 0.53625 0.52887 0.0
C972 C 0.21209 0.5311 0.64862 0.0
C973 C 0.25194 0.56104 0.69422 0.0
N974 N 0.22 0.53579 0.56715 0.0
N975 N 0.25451 0.56177 0.65593 0.0
H976 H 0.61743 0.23137 0.43396 0.0
H977 H 0.67062 0.10752 0.57567 0.0
H978 H 0.56795 0.15234 0.45763 0.0
H979 H 0.7065 0.19569 0.58033 0.0
H980 H 0.63164 0.12516 0.53381 0.0
H981 H 0.64819 0.22177 0.49001 0.0
C982 C 0.61233 0.21271 0.45183 0.0
C983 C 0.59011 0.19272 0.44153 0.0
C984 C 0.64785 0.1408 0.54414 0.0
C985 C 0.6257 0.18082 0.50426 0.0
C986 C 0.67029 0.13063 0.56777 0.0
C987 C 0.69208 0.15008 0.58093 0.0
C988 C 0.64735 0.1706 0.53299 0.0
C989 C 0.69016 0.17997 0.57055 0.0
C990 C 0.63007 0.20698 0.48351 0.0
C991 C 0.58496 0.16824 0.46477 0.0
N992 N 0.66843 0.18928 0.54667 0.0
N993 N 0.60285 0.16276 0.49471 0.0
H994 H 0.31169 0.66492 0.39208 0.0
H995 H 0.37412 0.65979 0.603 0.0
H996 H 0.32576 0.5847 0.45493 0.0
H997 H 0.37828 0.7363 0.53032 0.0
H998 H 0.34401 0.63464 0.55548 0.0
H999 H 0.32274 0.69357 0.44914 0.0
C1000 C 0.31594 0.65337 0.41837 0.0
C1001 C 0.31738 0.62246 0.4191 0.0
C1002 C 0.35133 0.65701 0.55009 0.0
C1003 C 0.33104 0.65491 0.48397 0.0
C1004 C 0.36852 0.67143 0.57721 0.0
C1005 C 0.37953 0.69992 0.57025 0.0
C1006 C 0.34487 0.67123 0.5158 0.0
C1007 C 0.37125 0.71397 0.53643 0.0
C1008 C 0.32252 0.66969 0.45079 0.0
C1009 C 0.32347 0.60847 0.45355 0.0
N1010 N 0.35466 0.69937 0.51034 0.0
N1011 N 0.33055 0.62481 0.48455 0.0
H1012 H 0.8589 0.41329 0.5777 0.0
H1013 H 0.89995 0.30006 0.41827 0.0
H1014 H 0.81054 0.33169 0.56665 0.0
H1015 H 0.96316 0.36045 0.46627 0.0
H1016 H 0.86751 0.30828 0.4731 0.0
H1017 H 0.89736 0.39334 0.53651 0.0
C1018 C 0.85639 0.39115 0.56653 0.0
C1019 C 0.83134 0.37425 0.57514 0.0
C1020 C 0.8889 0.31898 0.47224 0.0
C1021 C 0.87533 0.35117 0.5279 0.0
C1022 C 0.90757 0.31392 0.44126 0.0
C1023 C 0.93441 0.32918 0.43835 0.0
C1024 C 0.89693 0.34012 0.49958 0.0
C1025 C 0.94274 0.34802 0.4679 0.0
C1026 C 0.87849 0.37962 0.54331 0.0
C1027 C 0.82951 0.34544 0.56051 0.0
N1028 N 0.92387 0.35337 0.49696 0.0
N1029 N 0.85098 0.33494 0.53704 0.0
H1030 H 0.2329 0.91029 0.43984 0.0
H1031 H 0.11207 0.86064 0.5883 0.0
H1032 H 0.15515 0.96107 0.46634 0.0
H1033 H 0.1981 0.81969 0.58329 0.0
H1034 H 0.12978 0.89985 0.54695 0.0
H1035 H 0.22416 0.87989 0.49612 0.0
C1036 C 0.21472 0.91577 0.4583 0.0
C1037 C 0.19485 0.93829 0.4487 0.0
C1038 C 0.14496 0.88248 0.55507 0.0
C1039 C 0.18389 0.90303 0.51201 0.0
C1040 C 0.13474 0.85994 0.57846 0.0
C1041 C 0.15349 0.8366 0.58861 0.0
C1042 C 0.17406 0.88155 0.54116 0.0
C1043 C 0.18289 0.83722 0.57585 0.0
C1044 C 0.20946 0.8982 0.4902 0.0
C1045 C 0.17096 0.94384 0.47288 0.0
N1046 N 0.19218 0.85908 0.55223 0.0
N1047 N 0.16593 0.92612 0.50309 0.0
H1048 H 0.20993 0.83373 0.9272 0.0
H1049 H 0.06977 0.87856 0.0525 0.0
H1050 H 0.16999 0.92023 0.93009 0.0
H1051 H 0.12241 0.80144 0.07568 0.0
H1052 H 0.0988 0.88741 0.99546 0.0
H1053 H 0.17139 0.81583 0.97057 0.0
C1054 C 0.19288 0.84884 0.93665 0.0
C1055 C 0.19346 0.87864 0.92569 0.0
C1056 C 0.10371 0.86818 0.01256 0.0
C1057 C 0.1493 0.85829 0.9746 0.0
C1058 C 0.08702 0.86303 0.04493 0.0
C1059 C 0.09368 0.83917 0.06863 0.0
C1060 C 0.12768 0.84963 0.00412 0.0
C1061 C 0.11631 0.81977 0.05784 0.0
C1062 C 0.17099 0.83863 0.96138 0.0
C1063 C 0.17081 0.89727 0.93855 0.0
N1064 N 0.13288 0.82566 0.02654 0.0
N1065 N 0.14977 0.88682 0.96239 0.0
H1066 H 0.71374 0.15539 0.10768 0.0
H1067 H 0.66273 0.15996 0.89172 0.0
H1068 H 0.70686 0.07819 0.03711 0.0
H1069 H 0.65606 0.23333 0.96935 0.0
H1070 H 0.69023 0.13232 0.93968 0.0
H1071 H 0.70529 0.18657 0.0522 0.0
C1072 C 0.71159 0.14511 0.08011 0.0
C1073 C 0.71138 0.11431 0.07665 0.0
C1074 C 0.68293 0.15455 0.94608 0.0
C1075 C 0.7004 0.14958 0.01343 0.0
C1076 C 0.66723 0.17037 0.91872 0.0
C1077 C 0.65628 0.19872 0.92682 0.0
C1078 C 0.68798 0.16724 0.98176 0.0
C1079 C 0.66309 0.21117 0.96219 0.0
C1080 C 0.70644 0.16285 0.04854 0.0
C1081 C 0.70791 0.10191 0.04062 0.0
N1082 N 0.67825 0.19526 0.98841 0.0
N1083 N 0.70205 0.11959 0.0104 0.0
H1084 H 0.41371 0.72993 0.06905 0.0
H1085 H 0.36 0.61294 0.91878 0.0
H1086 H 0.46747 0.65748 0.0307 0.0
H1087 H 0.31802 0.69811 0.92891 0.0
H1088 H 0.40077 0.63067 0.95782 0.0
H1089 H 0.38041 0.7221 0.01515 0.0
C1090 C 0.41926 0.71336 0.04828 0.0
C1091 C 0.44361 0.69473 0.05379 0.0
C1092 C 0.38282 0.64566 0.9513 0.0
C1093 C 0.40489 0.68437 0.99352 0.0
C1094 C 0.35939 0.63542 0.92927 0.0
C1095 C 0.33536 0.65393 0.92116 0.0
C1096 C 0.38209 0.67452 0.96597 0.0
C1097 C 0.33608 0.68309 0.93474 0.0
C1098 C 0.39999 0.70849 0.01785 0.0
C1099 C 0.44897 0.67242 0.02718 0.0
N1100 N 0.35884 0.69238 0.95703 0.0
N1101 N 0.42958 0.66759 0.99854 0.0
H1102 H 0.82306 0.44879 0.04405 0.0
H1103 H 0.86901 0.29116 0.97275 0.0
H1104 H 0.81472 0.37079 0.11266 0.0
H1105 H 0.85671 0.365 0.89726 0.0
H1106 H 0.84304 0.31841 0.02227 0.0
H1107 H 0.82747 0.41774 0.98777 0.0
C1108 C 0.82044 0.42513 0.04691 0.0
C1109 C 0.81758 0.41228 0.08271 0.0
C1110 C 0.84565 0.32855 0.99474 0.0
C1111 C 0.82499 0.37647 0.01906 0.0
C1112 C 0.86076 0.31309 0.96655 0.0
C1113 C 0.86575 0.32619 0.93114 0.0
C1114 C 0.83579 0.35748 0.98768 0.0
C1115 C 0.85366 0.35424 0.92432 0.0
C1116 C 0.82362 0.40732 0.01489 0.0
C1117 C 0.81648 0.38144 0.08533 0.0
N1118 N 0.83974 0.36918 0.95254 0.0
N1119 N 0.82068 0.36453 0.054 0.0
H1120 H 0.45583 0.83218 0.5383 0.0
H1121 H 0.2988 0.82738 0.43506 0.0
H1122 H 0.37824 0.79725 0.5928 0.0
H1123 H 0.35877 0.90112 0.4276 0.0
H1124 H 0.33359 0.80261 0.47827 0.0
H1125 H 0.42617 0.84234 0.4815 0.0
C1126 C 0.43287 0.82538 0.53759 0.0
C1127 C 0.41935 0.81379 0.56997 0.0
C1128 C 0.33922 0.82401 0.46664 0.0
C1129 C 0.38545 0.82571 0.50586 0.0
C1130 C 0.31949 0.83811 0.44213 0.0
C1131 C 0.32586 0.86644 0.42831 0.0
C1132 C 0.36582 0.83802 0.47639 0.0
C1133 C 0.35291 0.87946 0.43818 0.0
C1134 C 0.41593 0.83156 0.50549 0.0
C1135 C 0.38937 0.80611 0.56817 0.0
N1136 N 0.37194 0.86514 0.46164 0.0
N1137 N 0.37327 0.81243 0.5367 0.0
H1138 H 0.66516 0.36119 0.38902 0.0
H1139 H 0.70836 0.38732 0.60597 0.0
H1140 H 0.64959 0.29861 0.4788 0.0
H1141 H 0.69583 0.45849 0.52696 0.0
H1142 H 0.70117 0.35181 0.55458 0.0
H1143 H 0.68925 0.39423 0.43476 0.0
C1144 C 0.66704 0.3543 0.41827 0.0
C1145 C 0.65478 0.3274 0.43028 0.0
C1146 C 0.70092 0.3752 0.54818 0.0
C1147 C 0.6827 0.36478 0.48246 0.0
C1148 C 0.70552 0.39544 0.57737 0.0
C1149 C 0.70365 0.42582 0.57035 0.0
C1150 C 0.69385 0.38545 0.5118 0.0
C1151 C 0.69855 0.43526 0.53317 0.0
C1152 C 0.68074 0.37315 0.44429 0.0
C1153 C 0.65801 0.31947 0.46846 0.0
N1154 N 0.69351 0.41513 0.50526 0.0
N1155 N 0.67155 0.33811 0.49316 0.0
H1156 H 0.15876 0.66141 0.39274 0.0
H1157 H 0.148 0.70876 0.60995 0.0
H1158 H 0.23091 0.655 0.47239 0.0
H1159 H 0.07257 0.69503 0.53783 0.0
H1160 H 0.1806 0.70225 0.55515 0.0
H1161 H 0.1292 0.68633 0.44105 0.0
C1162 C 0.16851 0.66546 0.42026 0.0
C1163 C 0.19708 0.65531 0.42879 0.0
C1164 C 0.15688 0.70157 0.55105 0.0
C1165 C 0.16338 0.68398 0.48414 0.0
C1166 C 0.13834 0.70561 0.58218 0.0
C1167 C 0.10766 0.70324 0.57793 0.0
C1168 C 0.14454 0.69459 0.51567 0.0
C1169 C 0.09607 0.69813 0.54181 0.0
C1170 C 0.15158 0.67965 0.44783 0.0
C1171 C 0.20863 0.66146 0.46486 0.0
N1172 N 0.11455 0.69367 0.51204 0.0
N1173 N 0.19164 0.67516 0.4913 0.0
H1174 H 0.86638 0.16955 0.3948 0.0
H1175 H 0.82366 0.15461 0.61331 0.0
H1176 H 0.88141 0.23691 0.47908 0.0
H1177 H 0.83048 0.08026 0.53785 0.0
H1178 H 0.83119 0.18796 0.5597 0.0
H1179 H 0.84089 0.13968 0.44254 0.0
C1180 C 0.86409 0.17818 0.42324 0.0
C1181 C 0.87669 0.20544 0.43318 0.0
C1182 C 0.83021 0.16439 0.55461 0.0
C1183 C 0.84729 0.17157 0.48772 0.0
C1184 C 0.82556 0.14543 0.58509 0.0
C1185 C 0.82594 0.11479 0.57969 0.0
C1186 C 0.83579 0.15255 0.51857 0.0
C1187 C 0.82924 0.10381 0.54287 0.0
C1188 C 0.84958 0.1611 0.45044 0.0
C1189 C 0.87285 0.21564 0.47039 0.0
N1190 N 0.83445 0.12269 0.51367 0.0
N1191 N 0.85866 0.19863 0.49631 0.0
H1192 H 0.79154 0.16225 0.0323 0.0
H1193 H 0.95021 0.2118 0.96756 0.0
H1194 H 0.86354 0.17573 0.11056 0.0
H1195 H 0.87389 0.21548 0.895 0.0
H1196 H 0.91769 0.20722 0.02248 0.0
H1197 H 0.8195 0.18849 0.98379 0.0
C1198 C 0.81323 0.1708 0.03931 0.0
C1199 C 0.8256 0.16608 0.07522 0.0
C1200 C 0.90791 0.21005 0.99474 0.0
C1201 C 0.85772 0.19635 0.01982 0.0
C1202 C 0.92653 0.21329 0.96349 0.0
C1203 C 0.9146 0.2148 0.92702 0.0
C1204 C 0.87724 0.20734 0.98912 0.0
C1205 C 0.88381 0.2147 0.92288 0.0
C1206 C 0.82909 0.18606 0.01169 0.0
C1207 C 0.85334 0.17856 0.08309 0.0
N1208 N 0.86617 0.2105 0.95349 0.0
N1209 N 0.86871 0.19264 0.05541 0.0
H1210 H 0.36353 0.85561 0.11372 0.0
H1211 H 0.32019 0.88261 0.89702 0.0
H1212 H 0.37946 0.79361 0.02326 0.0
H1213 H 0.33441 0.95338 0.97631 0.0
H1214 H 0.32677 0.84685 0.94833 0.0
H1215 H 0.33891 0.88864 0.06839 0.0
C1216 C 0.36152 0.84882 0.08443 0.0
C1217 C 0.37409 0.82217 0.07201 0.0
C1218 C 0.32755 0.87023 0.95478 0.0
C1219 C 0.34566 0.85945 0.02039 0.0
C1220 C 0.32345 0.89058 0.92564 0.0
C1221 C 0.32607 0.92087 0.93283 0.0
C1222 C 0.33477 0.88031 0.99122 0.0
C1223 C 0.33125 0.93021 0.97003 0.0
C1224 C 0.34754 0.86765 0.05865 0.0
C1225 C 0.37074 0.8143 0.03384 0.0
N1226 N 0.33577 0.90996 0.99789 0.0
N1227 N 0.35698 0.83291 0.00937 0.0
H1228 H 0.73905 0.37235 0.03333 0.0
H1229 H 0.58121 0.32523 0.96094 0.0
H1230 H 0.66362 0.36366 0.10727 0.0
H1231 H 0.65995 0.31587 0.8937 0.0
H1232 H 0.6118 0.33179 0.01731 0.0
H1233 H 0.71186 0.34607 0.98403 0.0
C1234 C 0.71677 0.36494 0.03924 0.0
C1235 C 0.70328 0.37097 0.07418 0.0
C1236 C 0.6225 0.32731 0.99051 0.0
C1237 C 0.6721 0.3405 0.01789 0.0
C1238 C 0.60496 0.3229 0.95847 0.0
C1239 C 0.61814 0.31902 0.92299 0.0
C1240 C 0.65341 0.32891 0.98666 0.0
C1241 C 0.64906 0.31831 0.9208 0.0
C1242 C 0.70134 0.34961 0.01117 0.0
C1243 C 0.67476 0.35981 0.08061 0.0
N1244 N 0.66568 0.32369 0.95209 0.0
N1245 N 0.65994 0.34557 0.05255 0.0
H1246 H 0.19965 0.71647 0.07653 0.0
H1247 H 0.15723 0.56939 0.96336 0.0
H1248 H 0.11422 0.67422 0.07911 0.0
H1249 H 0.23049 0.62454 0.93114 0.0
H1250 H 0.14883 0.60083 0.01846 0.0
H1251 H 0.21767 0.6771 0.03443 0.0
C1252 C 0.18478 0.6988 0.06849 0.0
C1253 C 0.15524 0.69891 0.08074 0.0
C1254 C 0.16717 0.60577 0.99983 0.0
C1255 C 0.1758 0.65371 0.03334 0.0
C1256 C 0.17215 0.58768 0.96861 0.0
C1257 C 0.19471 0.59431 0.94285 0.0
C1258 C 0.18462 0.63105 0.0051 0.0
C1259 C 0.21323 0.61838 0.95063 0.0
C1260 C 0.19507 0.67642 0.04448 0.0
C1261 C 0.13695 0.67543 0.06965 0.0
N1262 N 0.20752 0.63623 0.98086 0.0
N1263 N 0.14751 0.65387 0.04657 0.0
H1264 H 0.41235 0.15306 0.30559 0.0
H1265 H 0.3384 1.00785 0.39491 0.0
H1266 H 0.44689 0.10487 0.40096 0.0
H1267 H 0.29479 0.06127 0.3105 0.0
H1268 H 0.38197 0.03912 0.38962 0.0
H1269 H 0.37324 0.11549 0.29874 0.0
C1270 C 0.41219 0.13416 0.32435 0.0
C1271 C 0.43286 0.13199 0.35385 0.0
C1272 C 0.36296 0.04398 0.37206 0.0
C1273 C 0.38814 0.08937 0.34669 0.0
C1274 C 0.33796 0.02607 0.37508 0.0
C1275 C 0.3126 0.03202 0.35343 0.0
C1276 C 0.36285 0.06824 0.34725 0.0
C1277 C 0.31369 0.05591 0.32799 0.0
C1278 C 0.38971 0.11291 0.32073 0.0
C1279 C 0.43134 0.10739 0.37787 0.0
N1280 N 0.33828 0.07327 0.32581 0.0
N1281 N 0.40935 0.08723 0.37391 0.0
H1282 H 0.40798 0.43368 0.42104 0.0
H1283 H 0.47127 0.29913 0.29859 0.0
H1284 H 0.39855 0.43285 0.2996 0.0
H1285 H 0.50136 0.32384 0.41014 0.0
H1286 H 0.43843 0.34266 0.29842 0.0
H1287 H 0.4343 0.38703 0.41787 0.0
C1288 C 0.41116 0.42345 0.3936 0.0
C1289 C 0.40125 0.43741 0.36051 0.0
C1290 C 0.45229 0.33842 0.32281 0.0
C1291 C 0.43204 0.38369 0.3566 0.0
C1292 C 0.47102 0.31362 0.32298 0.0
C1293 C 0.48926 0.30778 0.3544 0.0
C1294 C 0.45145 0.35711 0.35455 0.0
C1295 C 0.48796 0.32737 0.38517 0.0
C1296 C 0.42637 0.39681 0.39181 0.0
C1297 C 0.40572 0.42282 0.32583 0.0
N1298 N 0.46937 0.3509 0.38449 0.0
N1299 N 0.42111 0.3968 0.32469 0.0
H1300 H 0.26041 0.45175 0.32129 0.0
H1301 H 0.08518 0.43496 0.35162 0.0
H1302 H 0.20317 0.51761 0.37073 0.0
H1303 H 0.14107 0.35975 0.33072 0.0
H1304 H 0.12797 0.46742 0.34465 0.0
H1305 H 0.21709 0.41922 0.31311 0.0
C1306 C 0.23885 0.45941 0.33033 0.0
C1307 C 0.23561 0.4874 0.34713 0.0
C1308 C 0.13093 0.44388 0.3408 0.0
C1309 C 0.18602 0.45063 0.33716 0.0
C1310 C 0.10639 0.42541 0.34425 0.0
C1311 C 0.10956 0.39477 0.34101 0.0
C1312 C 0.15912 0.43163 0.33468 0.0
C1313 C 0.13769 0.38337 0.3326 0.0
C1314 C 0.21416 0.44087 0.32561 0.0
C1315 C 0.20703 0.49617 0.35809 0.0
N1316 N 0.16152 0.40179 0.33007 0.0
N1317 N 0.18355 0.47796 0.35289 0.0
H1318 H 0.07679 0.24523 0.31239 0.0
H1319 H 0.10532 0.08 0.38496 0.0
H1320 H 0.01859 0.19674 0.38652 0.0
H1321 H 0.16716 0.12614 0.31383 0.0
H1322 H 0.07035 0.1207 0.37793 0.0
H1323 H 0.10778 0.20089 0.30619 0.0
C1324 C 0.07043 0.22532 0.32724 0.0
C1325 C 0.0451 0.22495 0.35034 0.0
C1326 C 0.0913 0.12187 0.3632 0.0
C1327 C 0.08039 0.17403 0.34308 0.0
C1328 C 0.11112 0.09844 0.36689 0.0
C1329 C 0.1389 0.09957 0.34948 0.0
C1330 C 0.09949 0.1471 0.34255 0.0
C1331 C 0.14568 0.12425 0.3271 0.0
C1332 C 0.08812 0.19998 0.32361 0.0
C1333 C 0.03798 0.19836 0.3687 0.0
N1334 N 0.12624 0.14726 0.32463 0.0
N1335 N 0.05551 0.17418 0.36477 0.0
H1336 H 0.78831 0.96251 0.1967 0.0
H1337 H 0.95262 0.92903 0.12376 0.0
H1338 H 0.83855 0.01947 0.12293 0.0
H1339 H 0.90616 0.87036 0.19881 0.0
H1340 H 0.9127 0.96496 0.12994 0.0
H1341 H 0.83196 0.93058 0.20333 0.0
C1342 C 0.80847 0.96843 0.18205 0.0
C1343 C 0.80952 0.9937 0.15893 0.0
C1344 C 0.91128 0.94451 0.14569 0.0
C1345 C 0.85966 0.95726 0.16661 0.0
C1346 C 0.93427 0.92412 0.14243 0.0
C1347 C 0.93284 0.89692 0.1612 0.0
C1348 C 0.88616 0.9375 0.16729 0.0
C1349 C 0.90829 0.89134 0.18442 0.0
C1350 C 0.83342 0.95019 0.18593 0.0
C1351 C 0.8364 1.0002 0.14081 0.0
N1352 N 0.88569 0.91131 0.18645 0.0
N1353 N 0.86018 0.98211 0.14492 0.0
H1354 H 0.51132 0.83778 0.11376 0.0
H1355 H 0.65991 0.9139 0.19029 0.0
H1356 H 0.57158 0.79307 0.1892 0.0
H1357 H 0.59814 0.95408 0.11299 0.0
H1358 H 0.62578 0.87178 0.19743 0.0
H1359 H 0.5408 0.88241 0.11961 0.0
C1360 C 0.53073 0.83731 0.13171 0.0
C1361 C 0.53902 0.81139 0.15073 0.0
C1362 C 0.61953 0.89008 0.17942 0.0
C1363 C 0.57332 0.86292 0.1575 0.0
C1364 C 0.63886 0.91424 0.17567 0.0
C1365 C 0.63183 0.9375 0.15098 0.0
C1366 C 0.59306 0.88937 0.15839 0.0
C1367 C 0.60451 0.93656 0.13218 0.0
C1368 C 0.54762 0.86295 0.13511 0.0
C1369 C 0.56435 0.81246 0.17388 0.0
N1370 N 0.58634 0.91292 0.13606 0.0
N1371 N 0.58075 0.8377 0.17636 0.0
H1372 H 0.76101 0.58022 0.17854 0.0
H1373 H 0.58652 0.60865 0.156 0.0
H1374 H 0.69936 0.51497 0.13721 0.0
H1375 H 0.65066 0.67883 0.15932 0.0
H1376 H 0.62669 0.57257 0.1642 0.0
H1377 H 0.71986 0.61526 0.18536 0.0
C1378 C 0.73887 0.57319 0.1711 0.0
C1379 C 0.73378 0.54466 0.15686 0.0
C1380 C 0.63191 0.59591 0.16397 0.0
C1381 C 0.68656 0.58451 0.16515 0.0
C1382 C 0.60897 0.61644 0.1598 0.0
C1383 C 0.61537 0.64666 0.15758 0.0
C1384 C 0.6614 0.60574 0.166 0.0
C1385 C 0.64489 0.65568 0.16143 0.0
C1386 C 0.71541 0.5932 0.175 0.0
C1387 C 0.70451 0.53679 0.14786 0.0
N1388 N 0.66684 0.63533 0.16532 0.0
N1389 N 0.6821 0.55655 0.15213 0.0
H1390 H 0.03045 0.69381 0.12999 0.0
H1391 H 0.87801 0.61568 0.18698 0.0
H1392 H 0.96328 0.73912 0.19449 0.0
H1393 H 0.95083 0.57274 0.13065 0.0
H1394 H 0.9092 0.65987 0.19564 0.0
H1395 H 1.00197 0.6485 0.13456 0.0
C1396 C 1.00969 0.69426 0.14525 0.0
C1397 C 0.99923 0.72052 0.16161 0.0
C1398 C 0.91843 0.64056 0.18194 0.0
C1399 C 0.96603 0.66817 0.16687 0.0
C1400 C 0.90072 0.61525 0.17732 0.0
C1401 C 0.91181 0.5905 0.15793 0.0
C1402 C 0.94732 0.64097 0.16704 0.0
C1403 C 0.94126 0.59137 0.14547 0.0
C1404 C 0.99338 0.66823 0.14796 0.0
C1405 C 0.97221 0.71944 0.18134 0.0
N1406 N 0.95778 0.61613 0.14996 0.0
N1407 N 0.95639 0.69378 0.18312 0.0
H1408 H 0.74221 0.96586 0.69941 0.0
H1409 H 0.60236 0.91143 0.58002 0.0
H1410 H 0.70907 1.00726 0.5979 0.0
H1411 H 0.60592 0.89523 0.70017 0.0
H1412 H 0.64931 0.93723 0.58386 0.0
H1413 H 0.69902 0.93238 0.69864 0.0
C1414 C 0.72603 0.96788 0.67696 0.0
C1415 C 0.72942 0.98947 0.64862 0.0
C1416 C 0.64007 0.92787 0.60945 0.0
C1417 C 0.68052 0.95104 0.64731 0.0
C1418 C 0.61325 0.91297 0.60727 0.0
C1419 C 0.59992 0.90138 0.63988 0.0
C1420 C 0.65405 0.93151 0.64456 0.0
C1421 C 0.61542 0.90376 0.67431 0.0
C1422 C 0.70142 0.94883 0.67663 0.0
C1423 C 0.70763 0.9911 0.62037 0.0
N1424 N 0.64162 0.91889 0.67587 0.0
N1425 N 0.68442 0.97214 0.62036 0.0
H1426 H 0.61411 0.58896 0.67034 0.0
H1427 H 0.58996 0.76493 0.66719 0.0
H1428 H 0.68496 0.65003 0.64805 0.0
H1429 H 0.52213 0.70182 0.63837 0.0
H1430 H 0.62487 0.72367 0.67625 0.0
H1431 H 0.57985 0.63102 0.6762 0.0
C1432 C 0.62261 0.61125 0.66796 0.0
C1433 C 0.6524 0.6161 0.65902 0.0
C1434 C 0.60225 0.71897 0.66818 0.0
C1435 C 0.61345 0.66418 0.6651 0.0
C1436 C 0.58236 0.74248 0.66303 0.0
C1437 C 0.55317 0.7369 0.65148 0.0
C1438 C 0.59268 0.68969 0.66268 0.0
C1439 C 0.54452 0.70727 0.64668 0.0
C1440 C 0.60304 0.63521 0.67082 0.0
C1441 C 0.66215 0.64542 0.65521 0.0
N1442 N 0.56409 0.68489 0.65236 0.0
N1443 N 0.64277 0.66833 0.65816 0.0
H1444 H 0.95413 0.59581 0.62491 0.0
H1445 H 0.79101 0.56397 0.70136 0.0
H1446 H 0.90937 0.65413 0.7023 0.0
H1447 H 0.83936 0.50629 0.62626 0.0
H1448 H 0.83548 0.59444 0.70852 0.0
H1449 H 0.91459 0.55968 0.63261 0.0
C1450 C 0.93625 0.60061 0.64438 0.0
C1451 C 0.93511 0.62782 0.66326 0.0
C1452 C 0.8364 0.57495 0.69079 0.0
C1453 C 0.88891 0.587 0.67117 0.0
C1454 C 0.81099 0.5575 0.68664 0.0
C1455 C 0.81122 0.53258 0.66283 0.0
C1456 C 0.8623 0.56747 0.671 0.0
C1457 C 0.83789 0.52537 0.64464 0.0
C1458 C 0.91351 0.58009 0.64855 0.0
C1459 C 0.91125 0.63319 0.68769 0.0
N1460 N 0.86215 0.54278 0.64891 0.0
N1461 N 0.88882 0.61313 0.69053 0.0
H1462 H 0.96017 0.78698 0.6957 0.0
H1463 H 0.94364 0.95572 0.63137 0.0
H1464 H 0.0258 0.83645 0.63379 0.0
H1465 H 0.87384 0.90918 0.68883 0.0
H1466 H 0.97631 0.91364 0.64106 0.0
H1467 H 0.93021 0.83214 0.70102 0.0
C1468 C 0.96841 0.80729 0.68347 0.0
C1469 C 0.99549 0.80773 0.66391 0.0
C1470 C 0.95403 0.91259 0.65215 0.0
C1471 C 0.96139 0.85947 0.67013 0.0
C1472 C 0.93543 0.93676 0.64684 0.0
C1473 C 0.90609 0.93594 0.65946 0.0
C1474 C 0.94313 0.88694 0.6696 0.0
C1475 C 0.89646 0.91076 0.67907 0.0
C1476 C 0.95128 0.83306 0.68655 0.0
C1477 C 1.005 0.83478 0.64877 0.0
N1478 N 0.91483 0.88701 0.68309 0.0
N1479 N 0.98799 0.85936 0.65208 0.0
H1480 H 0.1954 1.00819 0.88424 0.0
H1481 H 0.12212 0.16283 0.82511 0.0
H1482 H 0.24494 0.07602 0.82648 0.0
H1483 H 0.07877 0.09403 0.88839 0.0
H1484 H 0.16557 0.13028 0.81766 0.0
H1485 H 0.15123 0.03824 0.87908 0.0
C1486 C 0.19708 0.02947 0.87041 0.0
C1487 C 0.22421 0.0396 0.85612 0.0
C1488 C 0.14633 0.12221 0.83264 0.0
C1489 C 0.17301 0.07458 0.8501 0.0
C1490 C 0.12145 0.14065 0.83653 0.0
C1491 C 0.09683 0.13106 0.85738 0.0
C1492 C 0.14635 0.09407 0.8496 0.0
C1493 C 0.09731 0.10235 0.87221 0.0
C1494 C 0.17166 0.04669 0.86738 0.0
C1495 C 0.2246 0.06734 0.83812 0.0
N1496 N 0.1216 0.08505 0.86822 0.0
N1497 N 0.19944 0.08397 0.83585 0.0
H1498 H 0.39723 0.1055 0.80463 0.0
H1499 H 0.48938 0.22289 0.91561 0.0
H1500 H 0.37723 0.13084 0.91952 0.0
H1501 H 0.46799 0.24366 0.79969 0.0
H1502 H 0.45319 0.18315 0.91427 0.0
H1503 H 0.42639 0.15147 0.79773 0.0
C1504 C 0.39828 0.12096 0.82798 0.0
C1505 C 0.38507 0.11406 0.86291 0.0
C1506 C 0.45623 0.19648 0.88913 0.0
C1507 C 0.41874 0.16585 0.85548 0.0
C1508 C 0.47696 0.21917 0.88984 0.0
C1509 C 0.48157 0.23686 0.85785 0.0
C1510 C 0.4403 0.19064 0.85587 0.0
C1511 C 0.46484 0.23074 0.82513 0.0
C1512 C 0.41502 0.14705 0.82408 0.0
C1513 C 0.38746 0.13484 0.89231 0.0
N1514 N 0.44511 0.20783 0.82477 0.0
N1515 N 0.40432 0.15935 0.88815 0.0
H1516 H 0.29081 0.46395 0.81097 0.0
H1517 H 0.4623 0.454 0.8669 0.0
H1518 H 0.33866 0.52971 0.87482 0.0
H1519 H 0.41477 0.37963 0.82106 0.0
H1520 H 0.41856 0.48463 0.85873 0.0
H1521 H 0.33674 0.43523 0.80484 0.0
C1522 C 0.31096 0.4725 0.82341 0.0
C1523 C 0.31074 0.49926 0.84371 0.0
C1524 C 0.41762 0.46173 0.84996 0.0
C1525 C 0.36336 0.46657 0.83652 0.0
C1526 C 0.44272 0.44424 0.85441 0.0
C1527 C 0.4422 0.41418 0.84476 0.0
C1528 C 0.3914 0.44915 0.83611 0.0
C1529 C 0.4162 0.40276 0.82861 0.0
C1530 C 0.33714 0.45605 0.81994 0.0
C1531 C 0.33756 0.50915 0.85922 0.0
N1532 N 0.39165 0.42018 0.82524 0.0
N1533 N 0.3626 0.49284 0.85535 0.0
H1534 H 1.01087 0.33709 0.88132 0.0
H1535 H 0.16433 0.40491 0.80805 0.0
H1536 H 0.07315 0.28595 0.81583 0.0
H1537 H 0.10598 0.44664 0.88814 0.0
H1538 H 0.12842 0.36418 0.80123 0.0
H1539 H 0.04269 0.3799 0.87522 0.0
C1540 C 0.03127 0.33477 0.86554 0.0
C1541 C 0.03937 0.30756 0.84943 0.0
C1542 C 0.12327 0.38255 0.81972 0.0
C1543 C 0.07634 0.35718 0.8423 0.0
C1544 C 0.14355 0.40592 0.82322 0.0
C1545 C 0.13784 0.42925 0.84837 0.0
C1546 C 0.09719 0.38274 0.84147 0.0
C1547 C 0.11104 0.42917 0.86821 0.0
C1548 C 0.0495 0.35941 0.86203 0.0
C1549 C 0.06605 0.30635 0.82898 0.0
N1550 N 0.09185 0.40631 0.86446 0.0
N1551 N 0.08368 0.33076 0.82619 0.0
loop_
_geom_bond_atom_site_label_1
_geom_bond_atom_site_label_2
_geom_bond_distance
_geom_bond_site_symmetry_2
_ccdc_geom_bond_type
Zn0 N4 2.020 . S
Zn0 O8 2.019 . S
Zn0 N10 2.119 . S
Zn0 O18 1.975 . S
C1 N2 1.334 . S
C1 N5 1.336 . S
N2 C1 1.334 . S
N2 C3 1.334 . S
C3 N2 1.334 . S
C3 N4 1.336 . S
N4 Zn0 2.020 . S
N4 C3 1.336 . S
N4 N5 1.354 . S
N5 C1 1.336 . S
N5 N4 1.354 . S
N5 Zn9 2.020 . S
C6 O7 1.244 . S
C6 O30 1.257 . S
O7 C6 1.244 . S
O8 Zn0 2.019 . S
O8 C28 1.257 . S
Zn9 N5 2.020 . S
Zn9 O16 1.975 . S
Zn9 N25 2.119 . S
Zn9 O30 2.019 . S
N10 Zn0 2.119 . S
N10 C12 1.334 . S
N10 C13 1.328 . S
C11 C12 1.391 . S
C11 N14 1.329 . S
C11 H32 0.930 . S
C12 N10 1.334 . S
C12 C11 1.391 . S
C12 H19 0.930 . S
C13 N10 1.328 . S
C13 C15 1.392 . S
C13 H20 0.930 . S
N14 C11 1.329 . S
N14 C15 1.331 . S
C15 C13 1.392 . S
C15 N14 1.331 . S
O16 Zn9 1.975 . S
O16 C17 1.252 . S
C17 O16 1.252 . S
C17 O18 1.252 . S
O18 Zn0 1.975 . S
O18 C17 1.252 . S
H19 C12 0.930 . S
H20 C13 0.930 . S
C21 C22 1.392 . S
C21 N25 1.328 . S
C21 H27 0.930 . S
C22 C21 1.392 . S
C22 N26 1.331 . S
C23 C24 1.391 . S
C23 N26 1.329 . S
C23 H33 0.930 . S
C24 C23 1.391 . S
C24 N25 1.334 . S
C24 H31 0.930 . S
N25 Zn9 2.119 . S
N25 C21 1.328 . S
N25 C24 1.334 . S
N26 C22 1.331 . S
N26 C23 1.329 . S
H27 C21 0.930 . S
C28 O8 1.257 . S
C28 O29 1.244 . S
O29 C28 1.244 . S
O30 C6 1.257 . S
O30 Zn9 2.019 . S
H31 C24 0.930 . S
H32 C11 0.930 . S
H33 C23 0.930 . S
Zn34 N38 2.020 . S
Zn34 O42 2.019 . S
Zn34 N44 2.119 . S
Zn34 O52 1.975 . S
C35 N36 1.334 . S
C35 N39 1.336 . S
N36 C35 1.334 . S
N36 C37 1.334 . S
C37 N36 1.334 . S
C37 N38 1.336 . S
N38 Zn34 2.020 . S
N38 C37 1.336 . S
N38 N39 1.354 . S
N39 C35 1.336 . S
N39 N38 1.354 . S
N39 Zn43 2.020 . S
C40 O41 1.244 . S
C40 O64 1.257 . S
O41 C40 1.244 . S
O42 Zn34 2.019 . S
O42 C62 1.257 . S
Zn43 N39 2.020 . S
Zn43 O50 1.975 . S
Zn43 N59 2.119 . S
Zn43 O64 2.019 . S
N44 Zn34 2.119 . S
N44 C46 1.334 . S
N44 C47 1.328 . S
C45 C46 1.391 . S
C45 N48 1.329 . S
C45 H66 0.930 . S
C46 N44 1.334 . S
C46 C45 1.391 . S
C46 H53 0.930 . S
C47 N44 1.328 . S
C47 C49 1.392 . S
C47 H54 0.930 . S
N48 C45 1.329 . S
N48 C49 1.331 . S
C49 C47 1.392 . S
C49 N48 1.331 . S
O50 Zn43 1.975 . S
O50 C51 1.252 . S
C51 O50 1.252 . S
C51 O52 1.252 . S
O52 Zn34 1.975 . S
O52 C51 1.252 . S
H53 C46 0.930 . S
H54 C47 0.930 . S
C55 C56 1.392 . S
C55 N59 1.328 . S
C55 H61 0.930 . S
C56 C55 1.392 . S
C56 N60 1.331 . S
C57 C58 1.391 . S
C57 N60 1.329 . S
C57 H67 0.930 . S
C58 C57 1.391 . S
C58 N59 1.334 . S
C58 H65 0.930 . S
N59 Zn43 2.119 . S
N59 C55 1.328 . S
N59 C58 1.334 . S
N60 C56 1.331 . S
N60 C57 1.329 . S
H61 C55 0.930 . S
C62 O42 1.257 . S
C62 O63 1.244 . S
O63 C62 1.244 . S
O64 C40 1.257 . S
O64 Zn43 2.019 . S
H65 C58 0.930 . S
H66 C45 0.930 . S
H67 C57 0.930 . S
Zn68 N72 2.020 . S
Zn68 O76 2.019 . S
Zn68 N78 2.119 . S
Zn68 O86 1.975 1_655 S
C69 N70 1.334 . S
C69 N73 1.336 . S
N70 C69 1.334 . S
N70 C71 1.334 . S
C71 N70 1.334 . S
C71 N72 1.336 . S
N72 Zn68 2.020 . S
N72 C71 1.336 . S
N72 N73 1.354 . S
N73 C69 1.336 . S
N73 N72 1.354 . S
N73 Zn77 2.020 . S
C74 O75 1.244 . S
C74 O98 1.257 1_655 S
O75 C74 1.244 . S
O76 Zn68 2.019 . S
O76 C96 1.257 . S
Zn77 N73 2.020 . S
Zn77 O84 1.975 1_655 S
Zn77 N93 2.119 1_655 S
Zn77 O98 2.019 1_655 S
N78 Zn68 2.119 . S
N78 C80 1.334 . S
N78 C81 1.328 . S
C79 C80 1.391 . S
C79 N82 1.329 . S
C79 H100 0.930 . S
C80 N78 1.334 . S
C80 C79 1.391 . S
C80 H87 0.930 . S
C81 N78 1.328 . S
C81 C83 1.392 . S
C81 H88 0.930 . S
N82 C79 1.329 . S
N82 C83 1.331 . S
C83 C81 1.392 . S
C83 N82 1.331 . S
O84 Zn77 1.975 1_455 S
O84 C85 1.252 . S
C85 O84 1.252 . S
C85 O86 1.252 . S
O86 Zn68 1.975 1_455 S
O86 C85 1.252 . S
H87 C80 0.930 . S
H88 C81 0.930 . S
C89 C90 1.392 . S
C89 N93 1.328 . S
C89 H95 0.930 . S
C90 C89 1.392 . S
C90 N94 1.331 . S
C91 C92 1.391 . S
C91 N94 1.329 . S
C91 H101 0.930 . S
C92 C91 1.391 . S
C92 N93 1.334 . S
C92 H99 0.930 . S
N93 Zn77 2.119 1_455 S
N93 C89 1.328 . S
N93 C92 1.334 . S
N94 C90 1.331 . S
N94 C91 1.329 . S
H95 C89 0.930 . S
C96 O76 1.257 . S
C96 O97 1.244 . S
O97 C96 1.244 . S
O98 C74 1.257 1_455 S
O98 Zn77 2.019 1_455 S
H99 C92 0.930 . S
H100 C79 0.930 . S
H101 C91 0.930 . S
Zn102 N106 2.020 . S
Zn102 O110 2.019 . S
Zn102 N112 2.119 . S
Zn102 O120 1.975 1_565 S
C103 N104 1.334 . S
C103 N107 1.336 . S
N104 C103 1.334 . S
N104 C105 1.334 . S
C105 N104 1.334 . S
C105 N106 1.336 . S
N106 Zn102 2.020 . S
N106 C105 1.336 . S
N106 N107 1.354 . S
N107 C103 1.336 . S
N107 N106 1.354 . S
N107 Zn111 2.020 . S
C108 O109 1.244 . S
C108 O132 1.257 1_565 S
O109 C108 1.244 . S
O110 Zn102 2.019 . S
O110 C130 1.257 . S
Zn111 N107 2.020 . S
Zn111 O118 1.975 1_565 S
Zn111 N127 2.119 1_565 S
Zn111 O132 2.019 1_565 S
N112 Zn102 2.119 . S
N112 C114 1.334 . S
N112 C115 1.328 . S
C113 C114 1.391 . S
C113 N116 1.329 . S
C113 H134 0.930 . S
C114 N112 1.334 . S
C114 C113 1.391 . S
C114 H121 0.930 . S
C115 N112 1.328 . S
C115 C117 1.392 . S
C115 H122 0.930 . S
N116 C113 1.329 . S
N116 C117 1.331 . S
C117 C115 1.392 . S
C117 N116 1.331 . S
O118 Zn111 1.975 1_545 S
O118 C119 1.252 . S
C119 O118 1.252 . S
C119 O120 1.252 . S
O120 Zn102 1.975 1_545 S
O120 C119 1.252 . S
H121 C114 0.930 . S
H122 C115 0.930 . S
C123 C124 1.392 . S
C123 N127 1.328 . S
C123 H129 0.930 . S
C124 C123 1.392 . S
C124 N128 1.331 . S
C125 C126 1.391 . S
C125 N128 1.329 . S
C125 H135 0.930 . S
C126 C125 1.391 . S
C126 N127 1.334 . S
C126 H133 0.930 . S
N127 Zn111 2.119 1_545 S
N127 C123 1.328 . S
N127 C126 1.334 . S
N128 C124 1.331 . S
N128 C125 1.329 . S
H129 C123 0.930 . S
C130 O110 1.257 . S
C130 O131 1.244 . S
O131 C130 1.244 . S
O132 C108 1.257 1_545 S
O132 Zn111 2.019 1_545 S
H133 C126 0.930 . S
H134 C113 0.930 . S
H135 C125 0.930 . S
Zn136 N140 2.020 . S
Zn136 O144 2.019 1_455 S
Zn136 N146 2.119 1_455 S
Zn136 O154 1.975 1_455 S
C137 N138 1.334 . S
C137 N141 1.336 . S
N138 C137 1.334 . S
N138 C139 1.334 . S
C139 N138 1.334 . S
C139 N140 1.336 . S
N140 Zn136 2.020 . S
N140 C139 1.336 . S
N140 N141 1.354 . S
N141 C137 1.336 . S
N141 N140 1.354 . S
N141 Zn145 2.020 . S
C142 O143 1.244 . S
C142 O166 1.257 . S
O143 C142 1.244 . S
O144 Zn136 2.019 1_655 S
O144 C164 1.257 1_655 S
Zn145 N141 2.020 . S
Zn145 O152 1.975 1_455 S
Zn145 N161 2.119 . S
Zn145 O166 2.019 . S
N146 Zn136 2.119 1_655 S
N146 C148 1.334 . S
N146 C149 1.328 . S
C147 C148 1.391 . S
C147 N150 1.329 . S
C147 H168 0.930 . S
C148 N146 1.334 . S
C148 C147 1.391 . S
C148 H155 0.930 . S
C149 N146 1.328 . S
C149 C151 1.392 . S
C149 H156 0.930 . S
N150 C147 1.329 . S
N150 C151 1.331 . S
C151 C149 1.392 . S
C151 N150 1.331 . S
O152 Zn145 1.975 1_655 S
O152 C153 1.252 . S
C153 O152 1.252 . S
C153 O154 1.252 . S
O154 Zn136 1.975 1_655 S
O154 C153 1.252 . S
H155 C148 0.930 . S
H156 C149 0.930 . S
C157 C158 1.392 . S
C157 N161 1.328 . S
C157 H163 0.930 . S
C158 C157 1.392 . S
C158 N162 1.331 . S
C159 C160 1.391 . S
C159 N162 1.329 . S
C159 H169 0.930 . S
C160 C159 1.391 . S
C160 N161 1.334 . S
C160 H167 0.930 . S
N161 Zn145 2.119 . S
N161 C157 1.328 . S
N161 C160 1.334 . S
N162 C158 1.331 . S
N162 C159 1.329 . S
H163 C157 0.930 . S
C164 O144 1.257 1_455 S
C164 O165 1.244 . S
O165 C164 1.244 . S
O166 C142 1.257 . S
O166 Zn145 2.019 . S
H167 C160 0.930 . S
H168 C147 0.930 . S
H169 C159 0.930 . S
Zn170 N174 2.020 . S
Zn170 O178 2.019 1_545 S
Zn170 N180 2.119 1_545 S
Zn170 O188 1.975 1_545 S
C171 N172 1.334 . S
C171 N175 1.336 . S
N172 C171 1.334 . S
N172 C173 1.334 . S
C173 N172 1.334 . S
C173 N174 1.336 . S
N174 Zn170 2.020 . S
N174 C173 1.336 . S
N174 N175 1.354 . S
N175 C171 1.336 . S
N175 N174 1.354 . S
N175 Zn179 2.020 . S
C176 O177 1.244 . S
C176 O200 1.257 . S
O177 C176 1.244 . S
O178 Zn170 2.019 1_565 S
O178 C198 1.257 1_565 S
Zn179 N175 2.020 . S
Zn179 O186 1.975 1_545 S
Zn179 N195 2.119 . S
Zn179 O200 2.019 . S
N180 Zn170 2.119 1_565 S
N180 C182 1.334 . S
N180 C183 1.328 . S
C181 C182 1.391 . S
C181 N184 1.329 . S
C181 H202 0.930 . S
C182 N180 1.334 . S
C182 C181 1.391 . S
C182 H189 0.930 . S
C183 N180 1.328 . S
C183 C185 1.392 . S
C183 H190 0.930 . S
N184 C181 1.329 . S
N184 C185 1.331 . S
C185 C183 1.392 . S
C185 N184 1.331 . S
O186 Zn179 1.975 1_565 S
O186 C187 1.252 . S
C187 O186 1.252 . S
C187 O188 1.252 . S
O188 Zn170 1.975 1_565 S
O188 C187 1.252 . S
H189 C182 0.930 . S
H190 C183 0.930 . S
C191 C192 1.392 . S
C191 N195 1.328 . S
C191 H197 0.930 . S
C192 C191 1.392 . S
C192 N196 1.331 . S
C193 C194 1.391 . S
C193 N196 1.329 . S
C193 H203 0.930 . S
C194 C193 1.391 . S
C194 N195 1.334 . S
C194 H201 0.930 . S
N195 Zn179 2.119 . S
N195 C191 1.328 . S
N195 C194 1.334 . S
N196 C192 1.331 . S
N196 C193 1.329 . S
H197 C191 0.930 . S
C198 O178 1.257 1_545 S
C198 O199 1.244 . S
O199 C198 1.244 . S
O200 C176 1.257 . S
O200 Zn179 2.019 . S
H201 C194 0.930 . S
H202 C181 0.930 . S
H203 C193 0.930 . S
Zn204 N208 2.020 . S
Zn204 O212 2.019 . S
Zn204 N214 2.119 . S
Zn204 O222 1.975 . S
C205 N206 1.334 . S
C205 N209 1.336 . S
N206 C205 1.334 . S
N206 C207 1.334 . S
C207 N206 1.334 . S
C207 N208 1.336 . S
N208 Zn204 2.020 . S
N208 C207 1.336 . S
N208 N209 1.354 . S
N209 C205 1.336 . S
N209 N208 1.354 . S
N209 Zn213 2.020 . S
C210 O211 1.244 . S
C210 O234 1.257 . S
O211 C210 1.244 . S
O212 Zn204 2.019 . S
O212 C232 1.257 . S
Zn213 N209 2.020 . S
Zn213 O220 1.975 . S
Zn213 N229 2.119 . S
Zn213 O234 2.019 . S
N214 Zn204 2.119 . S
N214 C216 1.334 . S
N214 C217 1.328 . S
C215 C216 1.391 . S
C215 N218 1.329 . S
C215 H236 0.930 . S
C216 N214 1.334 . S
C216 C215 1.391 . S
C216 H223 0.930 . S
C217 N214 1.328 . S
C217 C219 1.392 . S
C217 H224 0.930 . S
N218 C215 1.329 . S
N218 C219 1.331 . S
C219 C217 1.392 . S
C219 N218 1.331 . S
O220 Zn213 1.975 . S
O220 C221 1.252 . S
C221 O220 1.252 . S
C221 O222 1.252 . S
O222 Zn204 1.975 . S
O222 C221 1.252 . S
H223 C216 0.930 . S
H224 C217 0.930 . S
C225 C226 1.392 . S
C225 N229 1.328 . S
C225 H231 0.930 . S
C226 C225 1.392 . S
C226 N230 1.331 . S
C227 C228 1.391 . S
C227 N230 1.329 . S
C227 H237 0.930 . S
C228 C227 1.391 . S
C228 N229 1.334 . S
C228 H235 0.930 . S
N229 Zn213 2.119 . S
N229 C225 1.328 . S
N229 C228 1.334 . S
N230 C226 1.331 . S
N230 C227 1.329 . S
H231 C225 0.930 . S
C232 O212 1.257 . S
C232 O233 1.244 . S
O233 C232 1.244 . S
O234 C210 1.257 . S
O234 Zn213 2.019 . S
H235 C228 0.930 . S
H236 C215 0.930 . S
H237 C227 0.930 . S
Zn238 N242 2.020 . S
Zn238 O246 2.019 . S
Zn238 N248 2.119 . S
Zn238 O256 1.975 . S
C239 N240 1.334 . S
C239 N243 1.336 . S
N240 C239 1.334 . S
N240 C241 1.334 . S
C241 N240 1.334 . S
C241 N242 1.336 . S
N242 Zn238 2.020 . S
N242 C241 1.336 . S
N242 N243 1.354 . S
N243 C239 1.336 . S
N243 N242 1.354 . S
N243 Zn247 2.020 . S
C244 O245 1.244 . S
C244 O268 1.257 . S
O245 C244 1.244 . S
O246 Zn238 2.019 . S
O246 C266 1.257 . S
Zn247 N243 2.020 . S
Zn247 O254 1.975 . S
Zn247 N263 2.119 . S
Zn247 O268 2.019 . S
N248 Zn238 2.119 . S
N248 C250 1.334 . S
N248 C251 1.328 . S
C249 C250 1.391 . S
C249 N252 1.329 . S
C249 H270 0.930 . S
C250 N248 1.334 . S
C250 C249 1.391 . S
C250 H257 0.930 . S
C251 N248 1.328 . S
C251 C253 1.392 . S
C251 H258 0.930 . S
N252 C249 1.329 . S
N252 C253 1.331 . S
C253 C251 1.392 . S
C253 N252 1.331 . S
O254 Zn247 1.975 . S
O254 C255 1.252 . S
C255 O254 1.252 . S
C255 O256 1.252 . S
O256 Zn238 1.975 . S
O256 C255 1.252 . S
H257 C250 0.930 . S
H258 C251 0.930 . S
C259 C260 1.392 . S
C259 N263 1.328 . S
C259 H265 0.930 . S
C260 C259 1.392 . S
C260 N264 1.331 . S
C261 C262 1.391 . S
C261 N264 1.329 . S
C261 H271 0.930 . S
C262 C261 1.391 . S
C262 N263 1.334 . S
C262 H269 0.930 . S
N263 Zn247 2.119 . S
N263 C259 1.328 . S
N263 C262 1.334 . S
N264 C260 1.331 . S
N264 C261 1.329 . S
H265 C259 0.930 . S
C266 O246 1.257 . S
C266 O267 1.244 . S
O267 C266 1.244 . S
O268 C244 1.257 . S
O268 Zn247 2.019 . S
H269 C262 0.930 . S
H270 C249 0.930 . S
H271 C261 0.930 . S
Zn272 N276 2.020 . S
Zn272 O280 2.019 . S
Zn272 N282 2.119 . S
Zn272 O290 1.975 . S
C273 N274 1.334 . S
C273 N277 1.336 . S
N274 C273 1.334 . S
N274 C275 1.334 . S
C275 N274 1.334 . S
C275 N276 1.336 . S
N276 Zn272 2.020 . S
N276 C275 1.336 . S
N276 N277 1.354 . S
N277 C273 1.336 . S
N277 N276 1.354 . S
N277 Zn281 2.020 . S
C278 O279 1.244 . S
C278 O302 1.257 . S
O279 C278 1.244 . S
O280 Zn272 2.019 . S
O280 C300 1.257 . S
Zn281 N277 2.020 . S
Zn281 O288 1.975 . S
Zn281 N297 2.119 . S
Zn281 O302 2.019 . S
N282 Zn272 2.119 . S
N282 C284 1.334 . S
N282 C285 1.328 . S
C283 C284 1.391 . S
C283 N286 1.329 . S
C283 H304 0.930 . S
C284 N282 1.334 . S
C284 C283 1.391 . S
C284 H291 0.930 . S
C285 N282 1.328 . S
C285 C287 1.392 . S
C285 H292 0.930 . S
N286 C283 1.329 . S
N286 C287 1.331 . S
C287 C285 1.392 . S
C287 N286 1.331 . S
O288 Zn281 1.975 . S
O288 C289 1.252 . S
C289 O288 1.252 . S
C289 O290 1.252 . S
O290 Zn272 1.975 . S
O290 C289 1.252 . S
H291 C284 0.930 . S
H292 C285 0.930 . S
C293 C294 1.392 . S
C293 N297 1.328 . S
C293 H299 0.930 . S
C294 C293 1.392 . S
C294 N298 1.331 . S
C295 C296 1.391 . S
C295 N298 1.329 . S
C295 H305 0.930 . S
C296 C295 1.391 . S
C296 N297 1.334 . S
C296 H303 0.930 . S
N297 Zn281 2.119 . S
N297 C293 1.328 . S
N297 C296 1.334 . S
N298 C294 1.331 . S
N298 C295 1.329 . S
H299 C293 0.930 . S
C300 O280 1.257 . S
C300 O301 1.244 . S
O301 C300 1.244 . S
O302 C278 1.257 . S
O302 Zn281 2.019 . S
H303 C296 0.930 . S
H304 C283 0.930 . S
H305 C295 0.930 . S
Zn306 N310 2.020 . S
Zn306 O314 2.019 . S
Zn306 N316 2.119 . S
Zn306 O324 1.975 . S
C307 N308 1.334 . S
C307 N311 1.336 . S
N308 C307 1.334 . S
N308 C309 1.334 . S
C309 N308 1.334 . S
C309 N310 1.336 . S
N310 Zn306 2.020 . S
N310 C309 1.336 . S
N310 N311 1.354 . S
N311 C307 1.336 . S
N311 N310 1.354 . S
N311 Zn315 2.020 . S
C312 O313 1.244 . S
C312 O336 1.257 . S
O313 C312 1.244 . S
O314 Zn306 2.019 . S
O314 C334 1.257 . S
Zn315 N311 2.020 . S
Zn315 O322 1.975 . S
Zn315 N331 2.119 . S
Zn315 O336 2.019 . S
N316 Zn306 2.119 . S
N316 C318 1.334 . S
N316 C319 1.328 . S
C317 C318 1.391 . S
C317 N320 1.329 . S
C317 H338 0.930 . S
C318 N316 1.334 . S
C318 C317 1.391 . S
C318 H325 0.930 . S
C319 N316 1.328 . S
C319 C321 1.392 . S
C319 H326 0.930 . S
N320 C317 1.329 . S
N320 C321 1.331 . S
C321 C319 1.392 . S
C321 N320 1.331 . S
O322 Zn315 1.975 . S
O322 C323 1.252 . S
C323 O322 1.252 . S
C323 O324 1.252 . S
O324 Zn306 1.975 . S
O324 C323 1.252 . S
H325 C318 0.930 . S
H326 C319 0.930 . S
C327 C328 1.392 . S
C327 N331 1.328 . S
C327 H333 0.930 . S
C328 C327 1.392 . S
C328 N332 1.331 . S
C329 C330 1.391 . S
C329 N332 1.329 . S
C329 H339 0.930 . S
C330 C329 1.391 . S
C330 N331 1.334 . S
C330 H337 0.930 . S
N331 Zn315 2.119 . S
N331 C327 1.328 . S
N331 C330 1.334 . S
N332 C328 1.331 . S
N332 C329 1.329 . S
H333 C327 0.930 . S
C334 O314 1.257 . S
C334 O335 1.244 . S
O335 C334 1.244 . S
O336 C312 1.257 . S
O336 Zn315 2.019 . S
H337 C330 0.930 . S
H338 C317 0.930 . S
H339 C329 0.930 . S
Zn340 N344 2.020 . S
Zn340 O348 2.019 . S
Zn340 N350 2.119 . S
Zn340 O358 1.975 1_455 S
C341 N342 1.334 . S
C341 N345 1.336 . S
N342 C341 1.334 . S
N342 C343 1.334 . S
C343 N342 1.334 . S
C343 N344 1.336 . S
N344 Zn340 2.020 . S
N344 C343 1.336 . S
N344 N345 1.354 . S
N345 C341 1.336 . S
N345 N344 1.354 . S
N345 Zn349 2.020 . S
C346 O347 1.244 . S
C346 O370 1.257 1_455 S
O347 C346 1.244 . S
O348 Zn340 2.019 . S
O348 C368 1.257 . S
Zn349 N345 2.020 . S
Zn349 O356 1.975 1_455 S
Zn349 N365 2.119 1_455 S
Zn349 O370 2.019 1_455 S
N350 Zn340 2.119 . S
N350 C352 1.334 . S
N350 C353 1.328 . S
C351 C352 1.391 . S
C351 N354 1.329 . S
C351 H372 0.930 . S
C352 N350 1.334 . S
C352 C351 1.391 . S
C352 H359 0.930 . S
C353 N350 1.328 . S
C353 C355 1.392 . S
C353 H360 0.930 . S
N354 C351 1.329 . S
N354 C355 1.331 . S
C355 C353 1.392 . S
C355 N354 1.331 . S
O356 Zn349 1.975 1_655 S
O356 C357 1.252 . S
C357 O356 1.252 . S
C357 O358 1.252 . S
O358 Zn340 1.975 1_655 S
O358 C357 1.252 . S
H359 C352 0.930 . S
H360 C353 0.930 . S
C361 C362 1.392 . S
C361 N365 1.328 . S
C361 H367 0.930 . S
C362 C361 1.392 . S
C362 N366 1.331 . S
C363 C364 1.391 . S
C363 N366 1.329 . S
C363 H373 0.930 . S
C364 C363 1.391 . S
C364 N365 1.334 . S
C364 H371 0.930 . S
N365 Zn349 2.119 1_655 S
N365 C361 1.328 . S
N365 C364 1.334 . S
N366 C362 1.331 . S
N366 C363 1.329 . S
H367 C361 0.930 . S
C368 O348 1.257 . S
C368 O369 1.244 . S
O369 C368 1.244 . S
O370 C346 1.257 1_655 S
O370 Zn349 2.019 1_655 S
H371 C364 0.930 . S
H372 C351 0.930 . S
H373 C363 0.930 . S
Zn374 N378 2.020 . S
Zn374 O382 2.019 1_545 S
Zn374 N384 2.119 1_545 S
Zn374 O392 1.975 1_545 S
C375 N376 1.334 . S
C375 N379 1.336 . S
N376 C375 1.334 . S
N376 C377 1.334 . S
C377 N376 1.334 . S
C377 N378 1.336 . S
N378 Zn374 2.020 . S
N378 C377 1.336 . S
N378 N379 1.354 . S
N379 C375 1.336 . S
N379 N378 1.354 . S
N379 Zn383 2.020 . S
C380 O381 1.244 . S
C380 O404 1.257 . S
O381 C380 1.244 . S
O382 Zn374 2.019 1_565 S
O382 C402 1.257 1_565 S
Zn383 N379 2.020 . S
Zn383 O390 1.975 1_545 S
Zn383 N399 2.119 . S
Zn383 O404 2.019 . S
N384 Zn374 2.119 1_565 S
N384 C386 1.334 . S
N384 C387 1.328 . S
C385 C386 1.391 . S
C385 N388 1.329 . S
C385 H406 0.930 . S
C386 N384 1.334 . S
C386 C385 1.391 . S
C386 H393 0.930 . S
C387 N384 1.328 . S
C387 C389 1.392 . S
C387 H394 0.930 . S
N388 C385 1.329 . S
N388 C389 1.331 . S
C389 C387 1.392 . S
C389 N388 1.331 . S
O390 Zn383 1.975 1_565 S
O390 C391 1.252 . S
C391 O390 1.252 . S
C391 O392 1.252 . S
O392 Zn374 1.975 1_565 S
O392 C391 1.252 . S
H393 C386 0.930 . S
H394 C387 0.930 . S
C395 C396 1.392 . S
C395 N399 1.328 . S
C395 H401 0.930 . S
C396 C395 1.392 . S
C396 N400 1.331 . S
C397 C398 1.391 . S
C397 N400 1.329 . S
C397 H407 0.930 . S
C398 C397 1.391 . S
C398 N399 1.334 . S
C398 H405 0.930 . S
N399 Zn383 2.119 . S
N399 C395 1.328 . S
N399 C398 1.334 . S
N400 C396 1.331 . S
N400 C397 1.329 . S
H401 C395 0.930 . S
C402 O382 1.257 1_545 S
C402 O403 1.244 . S
O403 C402 1.244 . S
O404 C380 1.257 . S
O404 Zn383 2.019 . S
H405 C398 0.930 . S
H406 C385 0.930 . S
H407 C397 0.930 . S
Zn408 N412 2.020 . S
Zn408 O416 2.019 1_655 S
Zn408 N418 2.119 1_655 S
Zn408 O426 1.975 1_655 S
C409 N410 1.334 . S
C409 N413 1.336 . S
N410 C409 1.334 . S
N410 C411 1.334 . S
C411 N410 1.334 . S
C411 N412 1.336 . S
N412 Zn408 2.020 . S
N412 C411 1.336 . S
N412 N413 1.354 . S
N413 C409 1.336 . S
N413 N412 1.354 . S
N413 Zn417 2.020 . S
C414 O415 1.244 . S
C414 O438 1.257 . S
O415 C414 1.244 . S
O416 Zn408 2.019 1_455 S
O416 C436 1.257 1_455 S
Zn417 N413 2.020 . S
Zn417 O424 1.975 1_655 S
Zn417 N433 2.119 . S
Zn417 O438 2.019 . S
N418 Zn408 2.119 1_455 S
N418 C420 1.334 . S
N418 C421 1.328 . S
C419 C420 1.391 . S
C419 N422 1.329 . S
C419 H440 0.930 . S
C420 N418 1.334 . S
C420 C419 1.391 . S
C420 H427 0.930 . S
C421 N418 1.328 . S
C421 C423 1.392 . S
C421 H428 0.930 . S
N422 C419 1.329 . S
N422 C423 1.331 . S
C423 C421 1.392 . S
C423 N422 1.331 . S
O424 Zn417 1.975 1_455 S
O424 C425 1.252 . S
C425 O424 1.252 . S
C425 O426 1.252 . S
O426 Zn408 1.975 1_455 S
O426 C425 1.252 . S
H427 C420 0.930 . S
H428 C421 0.930 . S
C429 C430 1.392 . S
C429 N433 1.328 . S
C429 H435 0.930 . S
C430 C429 1.392 . S
C430 N434 1.331 . S
C431 C432 1.391 . S
C431 N434 1.329 . S
C431 H441 0.930 . S
C432 C431 1.391 . S
C432 N433 1.334 . S
C432 H439 0.930 . S
N433 Zn417 2.119 . S
N433 C429 1.328 . S
N433 C432 1.334 . S
N434 C430 1.331 . S
N434 C431 1.329 . S
H435 C429 0.930 . S
C436 O416 1.257 1_655 S
C436 O437 1.244 . S
O437 C436 1.244 . S
O438 C414 1.257 . S
O438 Zn417 2.019 . S
H439 C432 0.930 . S
H440 C419 0.930 . S
H441 C431 0.930 . S
Zn442 N446 2.020 . S
Zn442 O450 2.019 1_565 S
Zn442 N452 2.119 1_565 S
Zn442 O460 1.975 1_565 S
C443 N444 1.334 . S
C443 N447 1.336 . S
N444 C443 1.334 . S
N444 C445 1.334 . S
C445 N444 1.334 . S
C445 N446 1.336 . S
N446 Zn442 2.020 . S
N446 C445 1.336 . S
N446 N447 1.354 . S
N447 C443 1.336 . S
N447 N446 1.354 . S
N447 Zn451 2.020 . S
C448 O449 1.244 . S
C448 O472 1.257 . S
O449 C448 1.244 . S
O450 Zn442 2.019 1_545 S
O450 C470 1.257 1_545 S
Zn451 N447 2.020 . S
Zn451 O458 1.975 1_565 S
Zn451 N467 2.119 . S
Zn451 O472 2.019 . S
N452 Zn442 2.119 1_545 S
N452 C454 1.334 . S
N452 C455 1.328 . S
C453 C454 1.391 . S
C453 N456 1.329 . S
C453 H474 0.930 . S
C454 N452 1.334 . S
C454 C453 1.391 . S
C454 H461 0.930 . S
C455 N452 1.328 . S
C455 C457 1.392 . S
C455 H462 0.930 . S
N456 C453 1.329 . S
N456 C457 1.331 . S
C457 C455 1.392 . S
C457 N456 1.331 . S
O458 Zn451 1.975 1_545 S
O458 C459 1.252 . S
C459 O458 1.252 . S
C459 O460 1.252 . S
O460 Zn442 1.975 1_545 S
O460 C459 1.252 . S
H461 C454 0.930 . S
H462 C455 0.930 . S
C463 C464 1.392 . S
C463 N467 1.328 . S
C463 H469 0.930 . S
C464 C463 1.392 . S
C464 N468 1.331 . S
C465 C466 1.391 . S
C465 N468 1.329 . S
C465 H475 0.930 . S
C466 C465 1.391 . S
C466 N467 1.334 . S
C466 H473 0.930 . S
N467 Zn451 2.119 . S
N467 C463 1.328 . S
N467 C466 1.334 . S
N468 C464 1.331 . S
N468 C465 1.329 . S
H469 C463 0.930 . S
C470 O450 1.257 1_565 S
C470 O471 1.244 . S
O471 C470 1.244 . S
O472 C448 1.257 . S
O472 Zn451 2.019 . S
H473 C466 0.930 . S
H474 C453 0.930 . S
H475 C465 0.930 . S
Zn476 N480 2.020 . S
Zn476 O484 2.019 . S
Zn476 N486 2.119 . S
Zn476 O494 1.975 . S
C477 N478 1.334 . S
C477 N481 1.336 . S
N478 C477 1.334 . S
N478 C479 1.334 . S
C479 N478 1.334 . S
C479 N480 1.336 . S
N480 Zn476 2.020 . S
N480 C479 1.336 . S
N480 N481 1.354 . S
N481 C477 1.336 . S
N481 N480 1.354 . S
N481 Zn485 2.020 . S
C482 O483 1.244 . S
C482 O506 1.257 . S
O483 C482 1.244 . S
O484 Zn476 2.019 . S
O484 C504 1.257 . S
Zn485 N481 2.020 . S
Zn485 O492 1.975 . S
Zn485 N501 2.119 . S
Zn485 O506 2.019 . S
N486 Zn476 2.119 . S
N486 C488 1.334 . S
N486 C489 1.328 . S
C487 C488 1.391 . S
C487 N490 1.329 . S
C487 H508 0.930 . S
C488 N486 1.334 . S
C488 C487 1.391 . S
C488 H495 0.930 . S
C489 N486 1.328 . S
C489 C491 1.392 . S
C489 H496 0.930 . S
N490 C487 1.329 . S
N490 C491 1.331 . S
C491 C489 1.392 . S
C491 N490 1.331 . S
O492 Zn485 1.975 . S
O492 C493 1.252 . S
C493 O492 1.252 . S
C493 O494 1.252 . S
O494 Zn476 1.975 . S
O494 C493 1.252 . S
H495 C488 0.930 . S
H496 C489 0.930 . S
C497 C498 1.392 . S
C497 N501 1.328 . S
C497 H503 0.930 . S
C498 C497 1.392 . S
C498 N502 1.331 . S
C499 C500 1.391 . S
C499 N502 1.329 . S
C499 H509 0.930 . S
C500 C499 1.391 . S
C500 N501 1.334 . S
C500 H507 0.930 . S
N501 Zn485 2.119 . S
N501 C497 1.328 . S
N501 C500 1.334 . S
N502 C498 1.331 . S
N502 C499 1.329 . S
H503 C497 0.930 . S
C504 O484 1.257 . S
C504 O505 1.244 . S
O505 C504 1.244 . S
O506 C482 1.257 . S
O506 Zn485 2.019 . S
H507 C500 0.930 . S
H508 C487 0.930 . S
H509 C499 0.930 . S
Zn510 N514 2.020 . S
Zn510 O518 2.019 . S
Zn510 N520 2.119 . S
Zn510 O528 1.975 . S
C511 N512 1.334 . S
C511 N515 1.336 . S
N512 C511 1.334 . S
N512 C513 1.334 . S
C513 N512 1.334 . S
C513 N514 1.336 . S
N514 Zn510 2.020 . S
N514 C513 1.336 . S
N514 N515 1.354 . S
N515 C511 1.336 . S
N515 N514 1.354 . S
N515 Zn519 2.020 . S
C516 O517 1.244 . S
C516 O540 1.257 . S
O517 C516 1.244 . S
O518 Zn510 2.019 . S
O518 C538 1.257 . S
Zn519 N515 2.020 . S
Zn519 O526 1.975 . S
Zn519 N535 2.119 . S
Zn519 O540 2.019 . S
N520 Zn510 2.119 . S
N520 C522 1.334 . S
N520 C523 1.328 . S
C521 C522 1.391 . S
C521 N524 1.329 . S
C521 H542 0.930 . S
C522 N520 1.334 . S
C522 C521 1.391 . S
C522 H529 0.930 . S
C523 N520 1.328 . S
C523 C525 1.392 . S
C523 H530 0.930 . S
N524 C521 1.329 . S
N524 C525 1.331 . S
C525 C523 1.392 . S
C525 N524 1.331 . S
O526 Zn519 1.975 . S
O526 C527 1.252 . S
C527 O526 1.252 . S
C527 O528 1.252 . S
O528 Zn510 1.975 . S
O528 C527 1.252 . S
H529 C522 0.930 . S
H530 C523 0.930 . S
C531 C532 1.392 . S
C531 N535 1.328 . S
C531 H537 0.930 . S
C532 C531 1.392 . S
C532 N536 1.331 . S
C533 C534 1.391 . S
C533 N536 1.329 . S
C533 H543 0.930 . S
C534 C533 1.391 . S
C534 N535 1.334 . S
C534 H541 0.930 . S
N535 Zn519 2.119 . S
N535 C531 1.328 . S
N535 C534 1.334 . S
N536 C532 1.331 . S
N536 C533 1.329 . S
H537 C531 0.930 . S
C538 O518 1.257 . S
C538 O539 1.244 . S
O539 C538 1.244 . S
O540 C516 1.257 . S
O540 Zn519 2.019 . S
H541 C534 0.930 . S
H542 C521 0.930 . S
H543 C533 0.930 . S
H544 C550 0.930 . S
H545 C554 0.930 . S
H546 C559 0.929 . S
H547 C557 0.929 . S
H548 C552 0.929 . S
H549 C558 0.929 . S
C550 H544 0.930 . S
C550 C551 1.367 . S
C550 C558 1.378 . S
C551 C550 1.367 . S
C551 C559 1.433 . S
C552 H548 0.929 . S
C552 C554 1.378 . S
C552 C556 1.350 . S
C553 C556 1.463 . S
C553 C558 1.350 . S
C553 N561 1.427 . S
C554 H545 0.930 . S
C554 C552 1.378 . S
C554 C555 1.367 . S
C555 C554 1.367 . S
C555 C557 1.433 . S
C556 C552 1.350 . S
C556 C553 1.463 . S
C556 N560 1.427 . S
C557 H547 0.929 . S
C557 C555 1.433 . S
C557 N560 1.384 . S
C558 H549 0.929 . S
C558 C550 1.378 . S
C558 C553 1.350 . S
C559 H546 0.929 . S
C559 C551 1.433 . S
C559 N561 1.384 . S
N560 C556 1.427 . S
N560 C557 1.384 . S
N561 C553 1.427 . S
N561 C559 1.384 . S
H562 C568 0.930 . S
H563 C572 0.930 . S
H564 C577 0.929 . S
H565 C575 0.929 . S
H566 C570 0.929 . S
H567 C576 0.929 . S
C568 H562 0.930 . S
C568 C569 1.367 . S
C568 C576 1.378 . S
C569 C568 1.367 . S
C569 C577 1.433 . S
C570 H566 0.929 . S
C570 C572 1.378 . S
C570 C574 1.350 . S
C571 C574 1.463 . S
C571 C576 1.350 . S
C571 N579 1.427 . S
C572 H563 0.930 . S
C572 C570 1.378 . S
C572 C573 1.367 . S
C573 C572 1.367 . S
C573 C575 1.433 . S
C574 C570 1.350 . S
C574 C571 1.463 . S
C574 N578 1.427 . S
C575 H565 0.929 . S
C575 C573 1.433 . S
C575 N578 1.384 . S
C576 H567 0.929 . S
C576 C568 1.378 . S
C576 C571 1.350 . S
C577 H564 0.929 . S
C577 C569 1.433 . S
C577 N579 1.384 . S
N578 C574 1.427 . S
N578 C575 1.384 . S
N579 C571 1.427 . S
N579 C577 1.384 . S
H580 C586 0.930 . S
H581 C590 0.930 . S
H582 C595 0.929 . S
H583 C593 0.929 . S
H584 C588 0.929 . S
H585 C594 0.929 . S
C586 H580 0.930 . S
C586 C587 1.367 . S
C586 C594 1.378 . S
C587 C586 1.367 . S
C587 C595 1.433 . S
C588 H584 0.929 . S
C588 C590 1.378 . S
C588 C592 1.350 . S
C589 C592 1.463 . S
C589 C594 1.350 . S
C589 N597 1.427 . S
C590 H581 0.930 . S
C590 C588 1.378 . S
C590 C591 1.367 . S
C591 C590 1.367 . S
C591 C593 1.433 . S
C592 C588 1.350 . S
C592 C589 1.463 . S
C592 N596 1.427 . S
C593 H583 0.929 . S
C593 C591 1.433 . S
C593 N596 1.384 . S
C594 H585 0.929 . S
C594 C586 1.378 . S
C594 C589 1.350 . S
C595 H582 0.929 . S
C595 C587 1.433 . S
C595 N597 1.384 . S
N596 C592 1.427 . S
N596 C593 1.384 . S
N597 C589 1.427 . S
N597 C595 1.384 . S
H598 C604 0.930 . S
H599 C608 0.930 . S
H600 C613 0.929 . S
H601 C611 0.929 . S
H602 C606 0.929 . S
H603 C612 0.929 . S
C604 H598 0.930 . S
C604 C605 1.367 . S
C604 C612 1.378 . S
C605 C604 1.367 . S
C605 C613 1.433 . S
C606 H602 0.929 . S
C606 C608 1.378 . S
C606 C610 1.350 . S
C607 C610 1.463 . S
C607 C612 1.350 . S
C607 N615 1.427 . S
C608 H599 0.930 . S
C608 C606 1.378 . S
C608 C609 1.367 . S
C609 C608 1.367 . S
C609 C611 1.433 . S
C610 C606 1.350 . S
C610 C607 1.463 . S
C610 N614 1.427 . S
C611 H601 0.929 . S
C611 C609 1.433 . S
C611 N614 1.384 . S
C612 H603 0.929 . S
C612 C604 1.378 . S
C612 C607 1.350 . S
C613 H600 0.929 . S
C613 C605 1.433 . S
C613 N615 1.384 . S
N614 C610 1.427 . S
N614 C611 1.384 . S
N615 C607 1.427 . S
N615 C613 1.384 . S
H616 C622 0.930 . S
H617 C626 0.930 . S
H618 C631 0.929 . S
H619 C629 0.929 . S
H620 C624 0.929 . S
H621 C630 0.929 . S
C622 H616 0.930 . S
C622 C623 1.367 . S
C622 C630 1.378 . S
C623 C622 1.367 . S
C623 C631 1.433 . S
C624 H620 0.929 . S
C624 C626 1.378 . S
C624 C628 1.350 . S
C625 C628 1.463 . S
C625 C630 1.350 . S
C625 N633 1.427 . S
C626 H617 0.930 . S
C626 C624 1.378 . S
C626 C627 1.367 . S
C627 C626 1.367 . S
C627 C629 1.433 . S
C628 C624 1.350 . S
C628 C625 1.463 . S
C628 N632 1.427 . S
C629 H619 0.929 . S
C629 C627 1.433 . S
C629 N632 1.384 . S
C630 H621 0.929 . S
C630 C622 1.378 . S
C630 C625 1.350 . S
C631 H618 0.929 . S
C631 C623 1.433 . S
C631 N633 1.384 . S
N632 C628 1.427 . S
N632 C629 1.384 . S
N633 C625 1.427 . S
N633 C631 1.384 . S
H634 C640 0.930 . S
H635 C644 0.930 . S
H636 C649 0.929 . S
H637 C647 0.929 . S
H638 C642 0.929 . S
H639 C648 0.929 . S
C640 H634 0.930 . S
C640 C641 1.367 . S
C640 C648 1.378 . S
C641 C640 1.367 . S
C641 C649 1.433 . S
C642 H638 0.929 . S
C642 C644 1.378 . S
C642 C646 1.350 . S
C643 C646 1.463 . S
C643 C648 1.350 . S
C643 N651 1.427 . S
C644 H635 0.930 . S
C644 C642 1.378 . S
C644 C645 1.367 . S
C645 C644 1.367 . S
C645 C647 1.433 . S
C646 C642 1.350 . S
C646 C643 1.463 . S
C646 N650 1.427 . S
C647 H637 0.929 . S
C647 C645 1.433 . S
C647 N650 1.384 . S
C648 H639 0.929 . S
C648 C640 1.378 . S
C648 C643 1.350 . S
C649 H636 0.929 . S
C649 C641 1.433 . S
C649 N651 1.384 . S
N650 C646 1.427 . S
N650 C647 1.384 . S
N651 C643 1.427 . S
N651 C649 1.384 . S
H652 C658 0.930 . S
H653 C662 0.930 . S
H654 C667 0.929 . S
H655 C665 0.929 . S
H656 C660 0.929 . S
H657 C666 0.929 . S
C658 H652 0.930 . S
C658 C659 1.367 . S
C658 C666 1.378 . S
C659 C658 1.367 . S
C659 C667 1.433 . S
C660 H656 0.929 . S
C660 C662 1.378 . S
C660 C664 1.350 . S
C661 C664 1.463 . S
C661 C666 1.350 . S
C661 N669 1.427 . S
C662 H653 0.930 . S
C662 C660 1.378 . S
C662 C663 1.367 . S
C663 C662 1.367 . S
C663 C665 1.433 . S
C664 C660 1.350 . S
C664 C661 1.463 . S
C664 N668 1.427 . S
C665 H655 0.929 . S
C665 C663 1.433 . S
C665 N668 1.384 . S
C666 H657 0.929 . S
C666 C658 1.378 . S
C666 C661 1.350 . S
C667 H654 0.929 . S
C667 C659 1.433 . S
C667 N669 1.384 . S
N668 C664 1.427 . S
N668 C665 1.384 . S
N669 C661 1.427 . S
N669 C667 1.384 . S
H670 C676 0.930 . S
H671 C680 0.930 . S
H672 C685 0.929 . S
H673 C683 0.929 . S
H674 C678 0.929 . S
H675 C684 0.929 . S
C676 H670 0.930 . S
C676 C677 1.367 . S
C676 C684 1.378 . S
C677 C676 1.367 . S
C677 C685 1.433 . S
C678 H674 0.929 . S
C678 C680 1.378 . S
C678 C682 1.350 . S
C679 C682 1.463 . S
C679 C684 1.350 . S
C679 N687 1.427 . S
C680 H671 0.930 . S
C680 C678 1.378 . S
C680 C681 1.367 . S
C681 C680 1.367 . S
C681 C683 1.433 . S
C682 C678 1.350 . S
C682 C679 1.463 . S
C682 N686 1.427 . S
C683 H673 0.929 . S
C683 C681 1.433 . S
C683 N686 1.384 . S
C684 H675 0.929 . S
C684 C676 1.378 . S
C684 C679 1.350 . S
C685 H672 0.929 . S
C685 C677 1.433 . S
C685 N687 1.384 . S
N686 C682 1.427 . S
N686 C683 1.384 . S
N687 C679 1.427 . S
N687 C685 1.384 . S
H688 C694 0.930 . S
H689 C698 0.930 . S
H690 C703 0.929 . S
H691 C701 0.929 . S
H692 C696 0.929 . S
H693 C702 0.929 . S
C694 H688 0.930 . S
C694 C695 1.367 . S
C694 C702 1.378 . S
C695 C694 1.367 . S
C695 C703 1.433 . S
C696 H692 0.929 . S
C696 C698 1.378 . S
C696 C700 1.350 . S
C697 C700 1.463 . S
C697 C702 1.350 . S
C697 N705 1.427 . S
C698 H689 0.930 . S
C698 C696 1.378 . S
C698 C699 1.367 . S
C699 C698 1.367 . S
C699 C701 1.433 . S
C700 C696 1.350 . S
C700 C697 1.463 . S
C700 N704 1.427 . S
C701 H691 0.929 . S
C701 C699 1.433 . S
C701 N704 1.384 . S
C702 H693 0.929 . S
C702 C694 1.378 . S
C702 C697 1.350 . S
C703 H690 0.929 . S
C703 C695 1.433 . S
C703 N705 1.384 . S
N704 C700 1.427 . S
N704 C701 1.384 . S
N705 C697 1.427 . S
N705 C703 1.384 . S
H706 C712 0.930 . S
H707 C716 0.930 . S
H708 C721 0.929 . S
H709 C719 0.929 . S
H710 C714 0.929 . S
H711 C720 0.929 . S
C712 H706 0.930 . S
C712 C713 1.367 . S
C712 C720 1.378 . S
C713 C712 1.367 . S
C713 C721 1.433 . S
C714 H710 0.929 . S
C714 C716 1.378 . S
C714 C718 1.350 . S
C715 C718 1.463 . S
C715 C720 1.350 . S
C715 N723 1.427 . S
C716 H707 0.930 . S
C716 C714 1.378 . S
C716 C717 1.367 . S
C717 C716 1.367 . S
C717 C719 1.433 . S
C718 C714 1.350 . S
C718 C715 1.463 . S
C718 N722 1.427 . S
C719 H709 0.929 . S
C719 C717 1.433 . S
C719 N722 1.384 . S
C720 H711 0.929 . S
C720 C712 1.378 . S
C720 C715 1.350 . S
C721 H708 0.929 . S
C721 C713 1.433 . S
C721 N723 1.384 . S
N722 C718 1.427 . S
N722 C719 1.384 . S
N723 C715 1.427 . S
N723 C721 1.384 . S
H724 C730 0.930 . S
H725 C734 0.930 . S
H726 C739 0.929 . S
H727 C737 0.929 . S
H728 C732 0.929 . S
H729 C738 0.929 . S
C730 H724 0.930 . S
C730 C731 1.367 . S
C730 C738 1.378 . S
C731 C730 1.367 . S
C731 C739 1.433 . S
C732 H728 0.929 . S
C732 C734 1.378 . S
C732 C736 1.350 . S
C733 C736 1.463 . S
C733 C738 1.350 . S
C733 N741 1.427 . S
C734 H725 0.930 . S
C734 C732 1.378 . S
C734 C735 1.367 . S
C735 C734 1.367 . S
C735 C737 1.433 . S
C736 C732 1.350 . S
C736 C733 1.463 . S
C736 N740 1.427 . S
C737 H727 0.929 . S
C737 C735 1.433 . S
C737 N740 1.384 . S
C738 H729 0.929 . S
C738 C730 1.378 . S
C738 C733 1.350 . S
C739 H726 0.929 . S
C739 C731 1.433 . S
C739 N741 1.384 . S
N740 C736 1.427 . S
N740 C737 1.384 . S
N741 C733 1.427 . S
N741 C739 1.384 . S
H742 C748 0.930 . S
H743 C752 0.930 . S
H744 C757 0.929 . S
H745 C755 0.929 . S
H746 C750 0.929 . S
H747 C756 0.929 . S
C748 H742 0.930 . S
C748 C749 1.367 1_545 S
C748 C756 1.378 . S
C749 C748 1.367 1_565 S
C749 C757 1.433 . S
C750 H746 0.929 . S
C750 C752 1.378 . S
C750 C754 1.350 . S
C751 C754 1.463 . S
C751 C756 1.350 1_565 S
C751 N759 1.427 . S
C752 H743 0.930 . S
C752 C750 1.378 . S
C752 C753 1.367 . S
C753 C752 1.367 . S
C753 C755 1.433 1_565 S
C754 C750 1.350 . S
C754 C751 1.463 . S
C754 N758 1.427 1_565 S
C755 H745 0.929 . S
C755 C753 1.433 1_545 S
C755 N758 1.384 . S
C756 H747 0.929 . S
C756 C748 1.378 . S
C756 C751 1.350 1_545 S
C757 H744 0.929 . S
C757 C749 1.433 . S
C757 N759 1.384 . S
N758 C754 1.427 1_545 S
N758 C755 1.384 . S
N759 C751 1.427 . S
N759 C757 1.384 . S
H760 C766 0.930 . S
H761 C770 0.919 1_655 S
H762 C775 0.929 . S
H763 C773 0.929 . S
H764 C768 0.937 . S
H765 C774 0.929 . S
C766 H760 0.930 . S
C766 C767 1.367 . S
C766 C774 1.378 . S
C767 C766 1.367 . S
C767 C775 1.433 1_455 S
C768 H764 0.937 . S
C768 C770 1.377 1_655 S
C768 C772 1.343 1_655 S
C769 C772 1.463 . S
C769 C774 1.350 . S
C769 N777 1.427 1_455 S
C770 H761 0.919 1_455 S
C770 C768 1.377 1_455 S
C770 C771 1.381 . S
C771 C770 1.381 . S
C771 C773 1.433 . S
C772 C768 1.343 1_455 S
C772 C769 1.463 . S
C772 N776 1.427 . S
C773 H763 0.929 . S
C773 C771 1.433 . S
C773 N776 1.384 . S
C774 H765 0.929 . S
C774 C766 1.378 . S
C774 C769 1.350 . S
C775 H762 0.929 . S
C775 C767 1.433 1_655 S
C775 N777 1.384 . S
N776 C772 1.427 . S
N776 C773 1.384 . S
N777 C769 1.427 1_655 S
N777 C775 1.384 . S
H778 C784 0.930 . S
H779 C788 0.930 . S
H780 C793 0.929 . S
H781 C791 0.929 . S
H782 C786 0.929 . S
H783 C792 0.929 . S
C784 H778 0.930 . S
C784 C785 1.367 . S
C784 C792 1.378 . S
C785 C784 1.367 . S
C785 C793 1.433 1_545 S
C786 H782 0.929 . S
C786 C788 1.378 . S
C786 C790 1.350 1_565 S
C787 C790 1.463 . S
C787 C792 1.350 . S
C787 N795 1.427 1_545 S
C788 H779 0.930 . S
C788 C786 1.378 . S
C788 C789 1.367 1_565 S
C789 C788 1.367 1_545 S
C789 C791 1.433 . S
C790 C786 1.350 1_545 S
C790 C787 1.463 . S
C790 N794 1.427 . S
C791 H781 0.929 . S
C791 C789 1.433 . S
C791 N794 1.384 . S
C792 H783 0.929 . S
C792 C784 1.378 . S
C792 C787 1.350 . S
C793 H780 0.929 . S
C793 C785 1.433 1_565 S
C793 N795 1.384 . S
N794 C790 1.427 . S
N794 C791 1.384 . S
N795 C787 1.427 1_565 S
N795 C793 1.384 . S
H796 C802 0.930 . S
H797 C806 0.930 . S
H798 C811 0.929 . S
H799 C809 0.929 . S
H800 C804 0.929 . S
H801 C810 0.929 . S
C802 H796 0.930 . S
C802 C803 1.367 . S
C802 C810 1.378 . S
C803 C802 1.367 . S
C803 C811 1.433 . S
C804 H800 0.929 . S
C804 C806 1.378 . S
C804 C808 1.350 . S
C805 C808 1.463 . S
C805 C810 1.350 . S
C805 N813 1.427 . S
C806 H797 0.930 . S
C806 C804 1.378 . S
C806 C807 1.367 . S
C807 C806 1.367 . S
C807 C809 1.433 . S
C808 C804 1.350 . S
C808 C805 1.463 . S
C808 N812 1.427 . S
C809 H799 0.929 . S
C809 C807 1.433 . S
C809 N812 1.384 . S
C810 H801 0.929 . S
C810 C802 1.378 . S
C810 C805 1.350 . S
C811 H798 0.929 . S
C811 C803 1.433 . S
C811 N813 1.384 . S
N812 C808 1.427 . S
N812 C809 1.384 . S
N813 C805 1.427 . S
N813 C811 1.384 . S
H814 C820 0.930 . S
H815 C824 0.930 . S
H816 C829 0.929 . S
H817 C827 0.929 . S
H818 C822 0.929 . S
H819 C828 0.929 . S
C820 H814 0.930 . S
C820 C821 1.367 . S
C820 C828 1.378 . S
C821 C820 1.367 . S
C821 C829 1.433 . S
C822 H818 0.929 . S
C822 C824 1.378 . S
C822 C826 1.350 . S
C823 C826 1.463 . S
C823 C828 1.350 . S
C823 N831 1.427 . S
C824 H815 0.930 . S
C824 C822 1.378 . S
C824 C825 1.367 . S
C825 C824 1.367 . S
C825 C827 1.433 . S
C826 C822 1.350 . S
C826 C823 1.463 . S
C826 N830 1.427 . S
C827 H817 0.929 . S
C827 C825 1.433 . S
C827 N830 1.384 . S
C828 H819 0.929 . S
C828 C820 1.378 . S
C828 C823 1.350 . S
C829 H816 0.929 . S
C829 C821 1.433 . S
C829 N831 1.384 . S
N830 C826 1.427 . S
N830 C827 1.384 . S
N831 C823 1.427 . S
N831 C829 1.384 . S
H832 C838 0.930 . S
H833 C842 0.930 . S
H834 C847 0.929 . S
H835 C845 0.929 . S
H836 C840 0.929 . S
H837 C846 0.929 . S
C838 H832 0.930 . S
C838 C839 1.367 . S
C838 C846 1.378 . S
C839 C838 1.367 . S
C839 C847 1.433 . S
C840 H836 0.929 . S
C840 C842 1.378 . S
C840 C844 1.350 . S
C841 C844 1.463 . S
C841 C846 1.350 . S
C841 N849 1.427 . S
C842 H833 0.930 . S
C842 C840 1.378 . S
C842 C843 1.367 . S
C843 C842 1.367 . S
C843 C845 1.433 . S
C844 C840 1.350 . S
C844 C841 1.463 . S
C844 N848 1.427 . S
C845 H835 0.929 . S
C845 C843 1.433 . S
C845 N848 1.384 . S
C846 H837 0.929 . S
C846 C838 1.378 . S
C846 C841 1.350 . S
C847 H834 0.929 . S
C847 C839 1.433 . S
C847 N849 1.384 . S
N848 C844 1.427 . S
N848 C845 1.384 . S
N849 C841 1.427 . S
N849 C847 1.384 . S
H850 C856 0.930 . S
H851 C860 0.930 . S
H852 C865 0.929 . S
H853 C863 0.929 . S
H854 C858 0.929 . S
H855 C864 0.929 . S
C856 H850 0.930 . S
C856 C857 1.367 . S
C856 C864 1.378 . S
C857 C856 1.367 . S
C857 C865 1.433 . S
C858 H854 0.929 . S
C858 C860 1.378 . S
C858 C862 1.350 . S
C859 C862 1.463 . S
C859 C864 1.350 . S
C859 N867 1.427 . S
C860 H851 0.930 . S
C860 C858 1.378 . S
C860 C861 1.367 . S
C861 C860 1.367 . S
C861 C863 1.433 . S
C862 C858 1.350 . S
C862 C859 1.463 . S
C862 N866 1.427 . S
C863 H853 0.929 . S
C863 C861 1.433 . S
C863 N866 1.384 . S
C864 H855 0.929 . S
C864 C856 1.378 . S
C864 C859 1.350 . S
C865 H852 0.929 . S
C865 C857 1.433 . S
C865 N867 1.384 . S
N866 C862 1.427 . S
N866 C863 1.384 . S
N867 C859 1.427 . S
N867 C865 1.384 . S
H868 C874 0.930 . S
H869 C878 0.930 . S
H870 C883 0.929 . S
H871 C881 0.929 . S
H872 C876 0.929 . S
H873 C882 0.929 . S
C874 H868 0.930 . S
C874 C875 1.367 . S
C874 C882 1.378 . S
C875 C874 1.367 . S
C875 C883 1.433 1_455 S
C876 H872 0.929 . S
C876 C878 1.378 . S
C876 C880 1.350 1_655 S
C877 C880 1.463 . S
C877 C882 1.350 . S
C877 N885 1.427 1_455 S
C878 H869 0.930 . S
C878 C876 1.378 . S
C878 C879 1.367 1_655 S
C879 C878 1.367 1_455 S
C879 C881 1.433 . S
C880 C876 1.350 1_455 S
C880 C877 1.463 . S
C880 N884 1.427 . S
C881 H871 0.929 . S
C881 C879 1.433 . S
C881 N884 1.384 . S
C882 H873 0.929 . S
C882 C874 1.378 . S
C882 C877 1.350 . S
C883 H870 0.929 . S
C883 C875 1.433 1_655 S
C883 N885 1.384 . S
N884 C880 1.427 . S
N884 C881 1.384 . S
N885 C877 1.427 1_655 S
N885 C883 1.384 . S
H886 C892 0.930 . S
H887 C896 0.930 1_565 S
H888 C901 0.929 . S
H889 C899 0.929 . S
H890 C894 0.930 1_565 S
H891 C900 0.929 . S
C892 H886 0.930 . S
C892 C893 1.367 . S
C892 C900 1.378 . S
C893 C892 1.367 . S
C893 C901 1.433 1_545 S
C894 H890 0.930 1_545 S
C894 C896 1.378 . S
C894 C898 1.349 . S
C895 C898 1.463 . S
C895 C900 1.350 . S
C895 N903 1.427 1_545 S
C896 H887 0.930 1_545 S
C896 C894 1.378 . S
C896 C897 1.367 . S
C897 C896 1.367 . S
C897 C899 1.433 . S
C898 C894 1.349 . S
C898 C895 1.463 . S
C898 N902 1.427 . S
C899 H889 0.929 . S
C899 C897 1.433 . S
C899 N902 1.384 . S
C900 H891 0.929 . S
C900 C892 1.378 . S
C900 C895 1.350 . S
C901 H888 0.929 . S
C901 C893 1.433 1_565 S
C901 N903 1.384 . S
N902 C898 1.427 . S
N902 C899 1.384 . S
N903 C895 1.427 1_565 S
N903 C901 1.384 . S
H904 C910 0.930 . S
H905 C914 0.930 . S
H906 C919 0.929 . S
H907 C917 0.929 . S
H908 C912 0.929 . S
H909 C918 0.929 . S
C910 H904 0.930 . S
C910 C911 1.367 . S
C910 C918 1.378 . S
C911 C910 1.367 . S
C911 C919 1.433 1_655 S
C912 H908 0.929 . S
C912 C914 1.378 . S
C912 C916 1.350 1_455 S
C913 C916 1.463 . S
C913 C918 1.350 . S
C913 N921 1.427 1_655 S
C914 H905 0.930 . S
C914 C912 1.378 . S
C914 C915 1.367 1_455 S
C915 C914 1.367 1_655 S
C915 C917 1.433 . S
C916 C912 1.350 1_655 S
C916 C913 1.463 . S
C916 N920 1.427 . S
C917 H907 0.929 . S
C917 C915 1.433 . S
C917 N920 1.384 . S
C918 H909 0.929 . S
C918 C910 1.378 . S
C918 C913 1.350 . S
C919 H906 0.929 . S
C919 C911 1.433 1_455 S
C919 N921 1.384 . S
N920 C916 1.427 . S
N920 C917 1.384 . S
N921 C913 1.427 1_455 S
N921 C919 1.384 . S
H922 C928 0.930 . S
H923 C932 0.930 . S
H924 C937 0.929 . S
H925 C935 0.929 . S
H926 C930 0.929 . S
H927 C936 0.929 . S
C928 H922 0.930 . S
C928 C929 1.367 . S
C928 C936 1.378 . S
C929 C928 1.367 . S
C929 C937 1.433 . S
C930 H926 0.929 . S
C930 C932 1.378 . S
C930 C934 1.350 . S
C931 C934 1.463 . S
C931 C936 1.350 . S
C931 N939 1.427 . S
C932 H923 0.930 . S
C932 C930 1.378 . S
C932 C933 1.367 . S
C933 C932 1.367 . S
C933 C935 1.433 . S
C934 C930 1.350 . S
C934 C931 1.463 . S
C934 N938 1.427 . S
C935 H925 0.929 . S
C935 C933 1.433 . S
C935 N938 1.384 . S
C936 H927 0.929 . S
C936 C928 1.378 . S
C936 C931 1.350 . S
C937 H924 0.929 . S
C937 C929 1.433 . S
C937 N939 1.384 . S
N938 C934 1.427 . S
N938 C935 1.384 . S
N939 C931 1.427 . S
N939 C937 1.384 . S
H940 C946 0.930 . S
H941 C950 0.930 . S
H942 C955 0.929 . S
H943 C953 0.929 . S
H944 C948 0.929 . S
H945 C954 0.929 . S
C946 H940 0.930 . S
C946 C947 1.367 . S
C946 C954 1.378 . S
C947 C946 1.367 . S
C947 C955 1.433 . S
C948 H944 0.929 . S
C948 C950 1.378 . S
C948 C952 1.350 . S
C949 C952 1.463 . S
C949 C954 1.350 . S
C949 N957 1.427 . S
C950 H941 0.930 . S
C950 C948 1.378 . S
C950 C951 1.367 . S
C951 C950 1.367 . S
C951 C953 1.433 . S
C952 C948 1.350 . S
C952 C949 1.463 . S
C952 N956 1.427 . S
C953 H943 0.929 . S
C953 C951 1.433 . S
C953 N956 1.384 . S
C954 H945 0.929 . S
C954 C946 1.378 . S
C954 C949 1.350 . S
C955 H942 0.929 . S
C955 C947 1.433 . S
C955 N957 1.384 . S
N956 C952 1.427 . S
N956 C953 1.384 . S
N957 C949 1.427 . S
N957 C955 1.384 . S
H958 C964 0.930 . S
H959 C968 0.930 . S
H960 C973 0.929 . S
H961 C971 0.929 . S
H962 C966 0.929 . S
H963 C972 0.929 . S
C964 H958 0.930 . S
C964 C965 1.367 . S
C964 C972 1.378 . S
C965 C964 1.367 . S
C965 C973 1.433 . S
C966 H962 0.929 . S
C966 C968 1.378 . S
C966 C970 1.350 . S
C967 C970 1.463 . S
C967 C972 1.350 . S
C967 N975 1.427 . S
C968 H959 0.930 . S
C968 C966 1.378 . S
C968 C969 1.367 . S
C969 C968 1.367 . S
C969 C971 1.433 . S
C970 C966 1.350 . S
C970 C967 1.463 . S
C970 N974 1.427 . S
C971 H961 0.929 . S
C971 C969 1.433 . S
C971 N974 1.384 . S
C972 H963 0.929 . S
C972 C964 1.378 . S
C972 C967 1.350 . S
C973 H960 0.929 . S
C973 C965 1.433 . S
C973 N975 1.384 . S
N974 C970 1.427 . S
N974 C971 1.384 . S
N975 C967 1.427 . S
N975 C973 1.384 . S
H976 C982 0.930 . S
H977 C986 0.930 . S
H978 C991 0.929 . S
H979 C989 0.929 . S
H980 C984 0.929 . S
H981 C990 0.929 . S
C982 H976 0.930 . S
C982 C983 1.367 . S
C982 C990 1.378 . S
C983 C982 1.367 . S
C983 C991 1.433 . S
C984 H980 0.929 . S
C984 C986 1.378 . S
C984 C988 1.350 . S
C985 C988 1.463 . S
C985 C990 1.350 . S
C985 N993 1.427 . S
C986 H977 0.930 . S
C986 C984 1.378 . S
C986 C987 1.367 . S
C987 C986 1.367 . S
C987 C989 1.433 . S
C988 C984 1.350 . S
C988 C985 1.463 . S
C988 N992 1.427 . S
C989 H979 0.929 . S
C989 C987 1.433 . S
C989 N992 1.384 . S
C990 H981 0.929 . S
C990 C982 1.378 . S
C990 C985 1.350 . S
C991 H978 0.929 . S
C991 C983 1.433 . S
C991 N993 1.384 . S
N992 C988 1.427 . S
N992 C989 1.384 . S
N993 C985 1.427 . S
N993 C991 1.384 . S
H994 C1000 0.930 . S
H995 C1004 0.930 . S
H996 C1009 0.929 . S
H997 C1007 0.929 . S
H998 C1002 0.929 . S
H999 C1008 0.929 . S
C1000 H994 0.930 . S
C1000 C1001 1.367 . S
C1000 C1008 1.378 . S
C1001 C1000 1.367 . S
C1001 C1009 1.433 . S
C1002 H998 0.929 . S
C1002 C1004 1.378 . S
C1002 C1006 1.350 . S
C1003 C1006 1.463 . S
C1003 C1008 1.350 . S
C1003 N1011 1.427 . S
C1004 H995 0.930 . S
C1004 C1002 1.378 . S
C1004 C1005 1.367 . S
C1005 C1004 1.367 . S
C1005 C1007 1.433 . S
C1006 C1002 1.350 . S
C1006 C1003 1.463 . S
C1006 N1010 1.427 . S
C1007 H997 0.929 . S
C1007 C1005 1.433 . S
C1007 N1010 1.384 . S
C1008 H999 0.929 . S
C1008 C1000 1.378 . S
C1008 C1003 1.350 . S
C1009 H996 0.929 . S
C1009 C1001 1.433 . S
C1009 N1011 1.384 . S
N1010 C1006 1.427 . S
N1010 C1007 1.384 . S
N1011 C1003 1.427 . S
N1011 C1009 1.384 . S
H1012 C1018 0.930 . S
H1013 C1022 0.930 . S
H1014 C1027 0.929 . S
H1015 C1025 0.929 . S
H1016 C1020 0.929 . S
H1017 C1026 0.929 . S
C1018 H1012 0.930 . S
C1018 C1019 1.367 . S
C1018 C1026 1.378 . S
C1019 C1018 1.367 . S
C1019 C1027 1.433 . S
C1020 H1016 0.929 . S
C1020 C1022 1.378 . S
C1020 C1024 1.350 . S
C1021 C1024 1.463 . S
C1021 C1026 1.350 . S
C1021 N1029 1.427 . S
C1022 H1013 0.930 . S
C1022 C1020 1.378 . S
C1022 C1023 1.367 . S
C1023 C1022 1.367 . S
C1023 C1025 1.433 . S
C1024 C1020 1.350 . S
C1024 C1021 1.463 . S
C1024 N1028 1.427 . S
C1025 H1015 0.929 . S
C1025 C1023 1.433 . S
C1025 N1028 1.384 . S
C1026 H1017 0.929 . S
C1026 C1018 1.378 . S
C1026 C1021 1.350 . S
C1027 H1014 0.929 . S
C1027 C1019 1.433 . S
C1027 N1029 1.384 . S
N1028 C1024 1.427 . S
N1028 C1025 1.384 . S
N1029 C1021 1.427 . S
N1029 C1027 1.384 . S
H1030 C1036 0.930 . S
H1031 C1040 0.930 . S
H1032 C1045 0.929 . S
H1033 C1043 0.929 . S
H1034 C1038 0.929 . S
H1035 C1044 0.929 . S
C1036 H1030 0.930 . S
C1036 C1037 1.367 . S
C1036 C1044 1.378 . S
C1037 C1036 1.367 . S
C1037 C1045 1.433 . S
C1038 H1034 0.929 . S
C1038 C1040 1.378 . S
C1038 C1042 1.350 . S
C1039 C1042 1.463 . S
C1039 C1044 1.350 . S
C1039 N1047 1.427 . S
C1040 H1031 0.930 . S
C1040 C1038 1.378 . S
C1040 C1041 1.367 . S
C1041 C1040 1.367 . S
C1041 C1043 1.433 . S
C1042 C1038 1.350 . S
C1042 C1039 1.463 . S
C1042 N1046 1.427 . S
C1043 H1033 0.929 . S
C1043 C1041 1.433 . S
C1043 N1046 1.384 . S
C1044 H1035 0.929 . S
C1044 C1036 1.378 . S
C1044 C1039 1.350 . S
C1045 H1032 0.929 . S
C1045 C1037 1.433 . S
C1045 N1047 1.384 . S
N1046 C1042 1.427 . S
N1046 C1043 1.384 . S
N1047 C1039 1.427 . S
N1047 C1045 1.384 . S
H1048 C1054 0.930 . S
H1049 C1058 0.930 . S
H1050 C1063 0.929 . S
H1051 C1061 0.929 . S
H1052 C1056 0.929 . S
H1053 C1062 0.929 . S
C1054 H1048 0.930 . S
C1054 C1055 1.367 . S
C1054 C1062 1.378 . S
C1055 C1054 1.367 . S
C1055 C1063 1.433 . S
C1056 H1052 0.929 . S
C1056 C1058 1.378 . S
C1056 C1060 1.350 . S
C1057 C1060 1.463 1_556 S
C1057 C1062 1.350 . S
C1057 N1065 1.427 1_556 S
C1058 H1049 0.930 . S
C1058 C1056 1.378 . S
C1058 C1059 1.367 . S
C1059 C1058 1.367 . S
C1059 C1061 1.433 . S
C1060 C1056 1.350 . S
C1060 C1057 1.463 1_554 S
C1060 N1064 1.427 . S
C1061 H1051 0.929 . S
C1061 C1059 1.433 . S
C1061 N1064 1.384 . S
C1062 H1053 0.929 . S
C1062 C1054 1.378 . S
C1062 C1057 1.350 . S
C1063 H1050 0.929 . S
C1063 C1055 1.433 . S
C1063 N1065 1.384 1_556 S
N1064 C1060 1.427 . S
N1064 C1061 1.384 . S
N1065 C1057 1.427 1_554 S
N1065 C1063 1.384 1_554 S
H1066 C1072 0.930 . S
H1067 C1076 0.930 . S
H1068 C1081 0.929 . S
H1069 C1079 0.929 . S
H1070 C1074 0.929 . S
H1071 C1080 0.929 . S
C1072 H1066 0.930 . S
C1072 C1073 1.367 . S
C1072 C1080 1.378 . S
C1073 C1072 1.367 . S
C1073 C1081 1.433 . S
C1074 H1070 0.929 . S
C1074 C1076 1.378 . S
C1074 C1078 1.350 . S
C1075 C1078 1.463 1_554 S
C1075 C1080 1.350 . S
C1075 N1083 1.427 . S
C1076 H1067 0.930 . S
C1076 C1074 1.378 . S
C1076 C1077 1.367 . S
C1077 C1076 1.367 . S
C1077 C1079 1.433 . S
C1078 C1074 1.350 . S
C1078 C1075 1.463 1_556 S
C1078 N1082 1.427 1_556 S
C1079 H1069 0.929 . S
C1079 C1077 1.433 . S
C1079 N1082 1.384 1_556 S
C1080 H1071 0.929 . S
C1080 C1072 1.378 . S
C1080 C1075 1.350 . S
C1081 H1068 0.929 . S
C1081 C1073 1.433 . S
C1081 N1083 1.384 . S
N1082 C1078 1.427 1_554 S
N1082 C1079 1.384 1_554 S
N1083 C1075 1.427 . S
N1083 C1081 1.384 . S
H1084 C1090 0.930 . S
H1085 C1094 0.930 . S
H1086 C1099 0.929 . S
H1087 C1097 0.929 . S
H1088 C1092 0.929 . S
H1089 C1098 0.929 . S
C1090 H1084 0.930 . S
C1090 C1091 1.367 . S
C1090 C1098 1.378 . S
C1091 C1090 1.367 . S
C1091 C1099 1.433 . S
C1092 H1088 0.929 . S
C1092 C1094 1.378 1_554 S
C1092 C1096 1.350 1_554 S
C1093 C1096 1.460 1_554 S
C1093 C1098 1.350 . S
C1093 N1101 1.427 . S
C1094 H1085 0.930 . S
C1094 C1092 1.378 1_556 S
C1094 C1095 1.367 . S
C1095 C1094 1.367 . S
C1095 C1097 1.433 . S
C1096 C1092 1.350 1_556 S
C1096 C1093 1.460 1_556 S
C1096 N1100 1.430 . S
C1097 H1087 0.929 . S
C1097 C1095 1.433 . S
C1097 N1100 1.384 . S
C1098 H1089 0.929 . S
C1098 C1090 1.378 . S
C1098 C1093 1.350 . S
C1099 H1086 0.929 . S
C1099 C1091 1.433 . S
C1099 N1101 1.384 . S
N1100 C1096 1.430 . S
N1100 C1097 1.384 . S
N1101 C1093 1.427 . S
N1101 C1099 1.384 . S
H1102 C1108 0.930 . S
H1103 C1112 0.930 . S
H1104 C1117 0.929 . S
H1105 C1115 0.929 . S
H1106 C1110 0.929 . S
H1107 C1116 0.929 . S
C1108 H1102 0.930 . S
C1108 C1109 1.367 . S
C1108 C1116 1.378 . S
C1109 C1108 1.367 . S
C1109 C1117 1.433 . S
C1110 H1106 0.929 . S
C1110 C1112 1.378 . S
C1110 C1114 1.359 . S
C1111 C1114 1.447 1_554 S
C1111 C1116 1.350 . S
C1111 N1119 1.427 . S
C1112 H1103 0.930 . S
C1112 C1110 1.378 . S
C1112 C1113 1.367 . S
C1113 C1112 1.367 . S
C1113 C1115 1.433 . S
C1114 C1110 1.359 . S
C1114 C1111 1.447 1_556 S
C1114 N1118 1.434 . S
C1115 H1105 0.929 . S
C1115 C1113 1.433 . S
C1115 N1118 1.384 . S
C1116 H1107 0.929 . S
C1116 C1108 1.378 . S
C1116 C1111 1.350 . S
C1117 H1104 0.929 . S
C1117 C1109 1.433 . S
C1117 N1119 1.384 . S
N1118 C1114 1.434 . S
N1118 C1115 1.384 . S
N1119 C1111 1.427 . S
N1119 C1117 1.384 . S
H1120 C1126 0.930 . S
H1121 C1130 0.930 . S
H1122 C1135 0.929 . S
H1123 C1133 0.929 . S
H1124 C1128 0.929 . S
H1125 C1134 0.929 . S
C1126 H1120 0.930 . S
C1126 C1127 1.367 . S
C1126 C1134 1.378 . S
C1127 C1126 1.367 . S
C1127 C1135 1.433 . S
C1128 H1124 0.929 . S
C1128 C1130 1.378 . S
C1128 C1132 1.350 . S
C1129 C1132 1.463 . S
C1129 C1134 1.350 . S
C1129 N1137 1.427 . S
C1130 H1121 0.930 . S
C1130 C1128 1.378 . S
C1130 C1131 1.367 . S
C1131 C1130 1.367 . S
C1131 C1133 1.433 . S
C1132 C1128 1.350 . S
C1132 C1129 1.463 . S
C1132 N1136 1.427 . S
C1133 H1123 0.929 . S
C1133 C1131 1.433 . S
C1133 N1136 1.384 . S
C1134 H1125 0.929 . S
C1134 C1126 1.378 . S
C1134 C1129 1.350 . S
C1135 H1122 0.929 . S
C1135 C1127 1.433 . S
C1135 N1137 1.384 . S
N1136 C1132 1.427 . S
N1136 C1133 1.384 . S
N1137 C1129 1.427 . S
N1137 C1135 1.384 . S
H1138 C1144 0.930 . S
H1139 C1148 0.930 . S
H1140 C1153 0.929 . S
H1141 C1151 0.929 . S
H1142 C1146 0.929 . S
H1143 C1152 0.929 . S
C1144 H1138 0.930 . S
C1144 C1145 1.367 . S
C1144 C1152 1.378 . S
C1145 C1144 1.367 . S
C1145 C1153 1.433 . S
C1146 H1142 0.929 . S
C1146 C1148 1.378 . S
C1146 C1150 1.350 . S
C1147 C1150 1.463 . S
C1147 C1152 1.350 . S
C1147 N1155 1.427 . S
C1148 H1139 0.930 . S
C1148 C1146 1.378 . S
C1148 C1149 1.367 . S
C1149 C1148 1.367 . S
C1149 C1151 1.433 . S
C1150 C1146 1.350 . S
C1150 C1147 1.463 . S
C1150 N1154 1.427 . S
C1151 H1141 0.929 . S
C1151 C1149 1.433 . S
C1151 N1154 1.384 . S
C1152 H1143 0.929 . S
C1152 C1144 1.378 . S
C1152 C1147 1.350 . S
C1153 H1140 0.929 . S
C1153 C1145 1.433 . S
C1153 N1155 1.384 . S
N1154 C1150 1.427 . S
N1154 C1151 1.384 . S
N1155 C1147 1.427 . S
N1155 C1153 1.384 . S
H1156 C1162 0.930 . S
H1157 C1166 0.930 . S
H1158 C1171 0.929 . S
H1159 C1169 0.929 . S
H1160 C1164 0.929 . S
H1161 C1170 0.929 . S
C1162 H1156 0.930 . S
C1162 C1163 1.367 . S
C1162 C1170 1.378 . S
C1163 C1162 1.367 . S
C1163 C1171 1.433 . S
C1164 H1160 0.929 . S
C1164 C1166 1.378 . S
C1164 C1168 1.350 . S
C1165 C1168 1.463 . S
C1165 C1170 1.350 . S
C1165 N1173 1.427 . S
C1166 H1157 0.930 . S
C1166 C1164 1.378 . S
C1166 C1167 1.367 . S
C1167 C1166 1.367 . S
C1167 C1169 1.433 . S
C1168 C1164 1.350 . S
C1168 C1165 1.463 . S
C1168 N1172 1.427 . S
C1169 H1159 0.929 . S
C1169 C1167 1.433 . S
C1169 N1172 1.384 . S
C1170 H1161 0.929 . S
C1170 C1162 1.378 . S
C1170 C1165 1.350 . S
C1171 H1158 0.929 . S
C1171 C1163 1.433 . S
C1171 N1173 1.384 . S
N1172 C1168 1.427 . S
N1172 C1169 1.384 . S
N1173 C1165 1.427 . S
N1173 C1171 1.384 . S
H1174 C1180 0.930 . S
H1175 C1184 0.930 . S
H1176 C1189 0.929 . S
H1177 C1187 0.929 . S
H1178 C1182 0.929 . S
H1179 C1188 0.929 . S
C1180 H1174 0.930 . S
C1180 C1181 1.367 . S
C1180 C1188 1.378 . S
C1181 C1180 1.367 . S
C1181 C1189 1.433 . S
C1182 H1178 0.929 . S
C1182 C1184 1.378 . S
C1182 C1186 1.350 . S
C1183 C1186 1.463 . S
C1183 C1188 1.350 . S
C1183 N1191 1.427 . S
C1184 H1175 0.930 . S
C1184 C1182 1.378 . S
C1184 C1185 1.367 . S
C1185 C1184 1.367 . S
C1185 C1187 1.433 . S
C1186 C1182 1.350 . S
C1186 C1183 1.463 . S
C1186 N1190 1.427 . S
C1187 H1177 0.929 . S
C1187 C1185 1.433 . S
C1187 N1190 1.384 . S
C1188 H1179 0.929 . S
C1188 C1180 1.378 . S
C1188 C1183 1.350 . S
C1189 H1176 0.929 . S
C1189 C1181 1.433 . S
C1189 N1191 1.384 . S
N1190 C1186 1.427 . S
N1190 C1187 1.384 . S
N1191 C1183 1.427 . S
N1191 C1189 1.384 . S
H1192 C1198 0.930 . S
H1193 C1202 0.930 . S
H1194 C1207 0.929 . S
H1195 C1205 0.929 . S
H1196 C1200 0.929 1_554 S
H1197 C1206 0.929 . S
C1198 H1192 0.930 . S
C1198 C1199 1.367 . S
C1198 C1206 1.378 1_554 S
C1199 C1198 1.367 . S
C1199 C1207 1.433 . S
C1200 H1196 0.929 1_556 S
C1200 C1202 1.378 . S
C1200 C1204 1.350 . S
C1201 C1204 1.462 . S
C1201 C1206 1.350 . S
C1201 N1209 1.427 1_556 S
C1202 H1193 0.930 . S
C1202 C1200 1.378 . S
C1202 C1203 1.367 . S
C1203 C1202 1.367 . S
C1203 C1205 1.433 . S
C1204 C1200 1.350 . S
C1204 C1201 1.462 . S
C1204 N1208 1.427 . S
C1205 H1195 0.929 . S
C1205 C1203 1.433 . S
C1205 N1208 1.384 . S
C1206 H1197 0.929 . S
C1206 C1198 1.378 1_556 S
C1206 C1201 1.350 . S
C1207 H1194 0.929 . S
C1207 C1199 1.433 . S
C1207 N1209 1.384 . S
N1208 C1204 1.427 . S
N1208 C1205 1.384 . S
N1209 C1201 1.427 1_554 S
N1209 C1207 1.384 . S
H1210 C1216 0.930 . S
H1211 C1220 0.930 . S
H1212 C1225 0.929 . S
H1213 C1223 0.929 . S
H1214 C1218 0.929 . S
H1215 C1224 0.929 . S
C1216 H1210 0.930 . S
C1216 C1217 1.367 . S
C1216 C1224 1.378 . S
C1217 C1216 1.367 . S
C1217 C1225 1.433 . S
C1218 H1214 0.929 . S
C1218 C1220 1.378 . S
C1218 C1222 1.350 . S
C1219 C1222 1.463 1_554 S
C1219 C1224 1.350 . S
C1219 N1227 1.427 1_554 S
C1220 H1211 0.930 . S
C1220 C1218 1.378 . S
C1220 C1221 1.367 . S
C1221 C1220 1.367 . S
C1221 C1223 1.433 . S
C1222 C1218 1.350 . S
C1222 C1219 1.463 1_556 S
C1222 N1226 1.427 . S
C1223 H1213 0.929 . S
C1223 C1221 1.433 . S
C1223 N1226 1.384 . S
C1224 H1215 0.929 . S
C1224 C1216 1.378 . S
C1224 C1219 1.350 . S
C1225 H1212 0.929 . S
C1225 C1217 1.433 . S
C1225 N1227 1.384 1_554 S
N1226 C1222 1.427 . S
N1226 C1223 1.384 . S
N1227 C1219 1.427 1_556 S
N1227 C1225 1.384 1_556 S
H1228 C1234 0.930 . S
H1229 C1238 0.930 . S
H1230 C1243 0.929 . S
H1231 C1241 0.929 . S
H1232 C1236 0.929 . S
H1233 C1242 0.929 1_556 S
C1234 H1228 0.930 . S
C1234 C1235 1.367 . S
C1234 C1242 1.378 . S
C1235 C1234 1.367 . S
C1235 C1243 1.433 . S
C1236 H1232 0.929 . S
C1236 C1238 1.378 . S
C1236 C1240 1.350 . S
C1237 C1240 1.456 1_554 S
C1237 C1242 1.350 . S
C1237 N1245 1.433 . S
C1238 H1229 0.930 . S
C1238 C1236 1.378 . S
C1238 C1239 1.367 . S
C1239 C1238 1.367 . S
C1239 C1241 1.433 . S
C1240 C1236 1.350 . S
C1240 C1237 1.456 1_556 S
C1240 N1244 1.427 . S
C1241 H1231 0.929 . S
C1241 C1239 1.433 . S
C1241 N1244 1.384 . S
C1242 H1233 0.929 1_554 S
C1242 C1234 1.378 . S
C1242 C1237 1.350 . S
C1243 H1230 0.929 . S
C1243 C1235 1.433 . S
C1243 N1245 1.384 . S
N1244 C1240 1.427 . S
N1244 C1241 1.384 . S
N1245 C1237 1.433 . S
N1245 C1243 1.384 . S
H1246 C1252 0.930 . S
H1247 C1256 0.930 . S
H1248 C1261 0.929 . S
H1249 C1259 0.929 . S
H1250 C1254 0.929 . S
H1251 C1260 0.929 . S
C1252 H1246 0.930 . S
C1252 C1253 1.367 . S
C1252 C1260 1.378 . S
C1253 C1252 1.367 . S
C1253 C1261 1.433 . S
C1254 H1250 0.929 . S
C1254 C1256 1.378 . S
C1254 C1258 1.350 . S
C1255 C1258 1.463 1_554 S
C1255 C1260 1.350 . S
C1255 N1263 1.427 1_554 S
C1256 H1247 0.930 . S
C1256 C1254 1.378 . S
C1256 C1257 1.367 . S
C1257 C1256 1.367 . S
C1257 C1259 1.433 . S
C1258 C1254 1.350 . S
C1258 C1255 1.463 1_556 S
C1258 N1262 1.427 . S
C1259 H1249 0.929 . S
C1259 C1257 1.433 . S
C1259 N1262 1.384 . S
C1260 H1251 0.929 . S
C1260 C1252 1.378 . S
C1260 C1255 1.350 . S
C1261 H1248 0.929 . S
C1261 C1253 1.433 . S
C1261 N1263 1.384 1_554 S
N1262 C1258 1.427 . S
N1262 C1259 1.384 . S
N1263 C1255 1.427 1_556 S
N1263 C1261 1.384 1_556 S
H1264 C1270 0.930 . S
H1265 C1274 0.930 . S
H1266 C1279 0.929 . S
H1267 C1277 0.929 . S
H1268 C1272 0.929 . S
H1269 C1278 0.929 . S
C1270 H1264 0.930 . S
C1270 C1271 1.367 . S
C1270 C1278 1.378 . S
C1271 C1270 1.367 . S
C1271 C1279 1.433 . S
C1272 H1268 0.929 . S
C1272 C1274 1.378 . S
C1272 C1276 1.350 . S
C1273 C1276 1.463 . S
C1273 C1278 1.350 . S
C1273 N1281 1.427 . S
C1274 H1265 0.930 . S
C1274 C1272 1.378 . S
C1274 C1275 1.367 . S
C1275 C1274 1.367 . S
C1275 C1277 1.433 . S
C1276 C1272 1.350 . S
C1276 C1273 1.463 . S
C1276 N1280 1.427 . S
C1277 H1267 0.929 . S
C1277 C1275 1.433 . S
C1277 N1280 1.384 . S
C1278 H1269 0.929 . S
C1278 C1270 1.378 . S
C1278 C1273 1.350 . S
C1279 H1266 0.929 . S
C1279 C1271 1.433 . S
C1279 N1281 1.384 . S
N1280 C1276 1.427 . S
N1280 C1277 1.384 . S
N1281 C1273 1.427 . S
N1281 C1279 1.384 . S
H1282 C1288 0.930 . S
H1283 C1292 0.930 . S
H1284 C1297 0.929 . S
H1285 C1295 0.929 . S
H1286 C1290 0.929 . S
H1287 C1296 0.929 . S
C1288 H1282 0.930 . S
C1288 C1289 1.367 . S
C1288 C1296 1.378 . S
C1289 C1288 1.367 . S
C1289 C1297 1.433 . S
C1290 H1286 0.929 . S
C1290 C1292 1.378 . S
C1290 C1294 1.350 . S
C1291 C1294 1.463 . S
C1291 C1296 1.350 . S
C1291 N1299 1.427 . S
C1292 H1283 0.930 . S
C1292 C1290 1.378 . S
C1292 C1293 1.367 . S
C1293 C1292 1.367 . S
C1293 C1295 1.433 . S
C1294 C1290 1.350 . S
C1294 C1291 1.463 . S
C1294 N1298 1.427 . S
C1295 H1285 0.929 . S
C1295 C1293 1.433 . S
C1295 N1298 1.384 . S
C1296 H1287 0.929 . S
C1296 C1288 1.378 . S
C1296 C1291 1.350 . S
C1297 H1284 0.929 . S
C1297 C1289 1.433 . S
C1297 N1299 1.384 . S
N1298 C1294 1.427 . S
N1298 C1295 1.384 . S
N1299 C1291 1.427 . S
N1299 C1297 1.384 . S
H1300 C1306 0.930 . S
H1301 C1310 0.930 . S
H1302 C1315 0.929 . S
H1303 C1313 0.929 . S
H1304 C1308 0.929 . S
H1305 C1314 0.929 . S
C1306 H1300 0.930 . S
C1306 C1307 1.367 . S
C1306 C1314 1.378 . S
C1307 C1306 1.367 . S
C1307 C1315 1.433 . S
C1308 H1304 0.929 . S
C1308 C1310 1.378 . S
C1308 C1312 1.350 . S
C1309 C1312 1.463 . S
C1309 C1314 1.350 . S
C1309 N1317 1.427 . S
C1310 H1301 0.930 . S
C1310 C1308 1.378 . S
C1310 C1311 1.367 . S
C1311 C1310 1.367 . S
C1311 C1313 1.433 . S
C1312 C1308 1.350 . S
C1312 C1309 1.463 . S
C1312 N1316 1.427 . S
C1313 H1303 0.929 . S
C1313 C1311 1.433 . S
C1313 N1316 1.384 . S
C1314 H1305 0.929 . S
C1314 C1306 1.378 . S
C1314 C1309 1.350 . S
C1315 H1302 0.929 . S
C1315 C1307 1.433 . S
C1315 N1317 1.384 . S
N1316 C1312 1.427 . S
N1316 C1313 1.384 . S
N1317 C1309 1.427 . S
N1317 C1315 1.384 . S
H1318 C1324 0.930 . S
H1319 C1328 0.930 . S
H1320 C1333 0.929 . S
H1321 C1331 0.929 . S
H1322 C1326 0.929 . S
H1323 C1332 0.929 . S
C1324 H1318 0.930 . S
C1324 C1325 1.367 . S
C1324 C1332 1.378 . S
C1325 C1324 1.367 . S
C1325 C1333 1.433 . S
C1326 H1322 0.929 . S
C1326 C1328 1.378 . S
C1326 C1330 1.350 . S
C1327 C1330 1.463 . S
C1327 C1332 1.350 . S
C1327 N1335 1.427 . S
C1328 H1319 0.930 . S
C1328 C1326 1.378 . S
C1328 C1329 1.367 . S
C1329 C1328 1.367 . S
C1329 C1331 1.433 . S
C1330 C1326 1.350 . S
C1330 C1327 1.463 . S
C1330 N1334 1.427 . S
C1331 H1321 0.929 . S
C1331 C1329 1.433 . S
C1331 N1334 1.384 . S
C1332 H1323 0.929 . S
C1332 C1324 1.378 . S
C1332 C1327 1.350 . S
C1333 H1320 0.929 . S
C1333 C1325 1.433 . S
C1333 N1335 1.384 . S
N1334 C1330 1.427 . S
N1334 C1331 1.384 . S
N1335 C1327 1.427 . S
N1335 C1333 1.384 . S
H1336 C1342 0.930 . S
H1337 C1346 0.930 . S
H1338 C1351 0.929 . S
H1339 C1349 0.929 . S
H1340 C1344 0.929 . S
H1341 C1350 0.929 . S
C1342 H1336 0.930 . S
C1342 C1343 1.367 . S
C1342 C1350 1.378 . S
C1343 C1342 1.367 . S
C1343 C1351 1.433 . S
C1344 H1340 0.929 . S
C1344 C1346 1.378 . S
C1344 C1348 1.350 . S
C1345 C1348 1.463 . S
C1345 C1350 1.350 . S
C1345 N1353 1.427 . S
C1346 H1337 0.930 . S
C1346 C1344 1.378 . S
C1346 C1347 1.367 . S
C1347 C1346 1.367 . S
C1347 C1349 1.433 . S
C1348 C1344 1.350 . S
C1348 C1345 1.463 . S
C1348 N1352 1.427 . S
C1349 H1339 0.929 . S
C1349 C1347 1.433 . S
C1349 N1352 1.384 . S
C1350 H1341 0.929 . S
C1350 C1342 1.378 . S
C1350 C1345 1.350 . S
C1351 H1338 0.929 . S
C1351 C1343 1.433 . S
C1351 N1353 1.384 . S
N1352 C1348 1.427 . S
N1352 C1349 1.384 . S
N1353 C1345 1.427 . S
N1353 C1351 1.384 . S
H1354 C1360 0.930 . S
H1355 C1364 0.930 . S
H1356 C1369 0.929 . S
H1357 C1367 0.929 . S
H1358 C1362 0.929 . S
H1359 C1368 0.929 . S
C1360 H1354 0.930 . S
C1360 C1361 1.367 . S
C1360 C1368 1.378 . S
C1361 C1360 1.367 . S
C1361 C1369 1.433 . S
C1362 H1358 0.929 . S
C1362 C1364 1.378 . S
C1362 C1366 1.350 . S
C1363 C1366 1.463 . S
C1363 C1368 1.350 . S
C1363 N1371 1.427 . S
C1364 H1355 0.930 . S
C1364 C1362 1.378 . S
C1364 C1365 1.367 . S
C1365 C1364 1.367 . S
C1365 C1367 1.433 . S
C1366 C1362 1.350 . S
C1366 C1363 1.463 . S
C1366 N1370 1.427 . S
C1367 H1357 0.929 . S
C1367 C1365 1.433 . S
C1367 N1370 1.384 . S
C1368 H1359 0.929 . S
C1368 C1360 1.378 . S
C1368 C1363 1.350 . S
C1369 H1356 0.929 . S
C1369 C1361 1.433 . S
C1369 N1371 1.384 . S
N1370 C1366 1.427 . S
N1370 C1367 1.384 . S
N1371 C1363 1.427 . S
N1371 C1369 1.384 . S
H1372 C1378 0.930 . S
H1373 C1382 0.930 . S
H1374 C1387 0.929 . S
H1375 C1385 0.929 . S
H1376 C1380 0.929 . S
H1377 C1386 0.929 . S
C1378 H1372 0.930 . S
C1378 C1379 1.367 . S
C1378 C1386 1.378 . S
C1379 C1378 1.367 . S
C1379 C1387 1.433 . S
C1380 H1376 0.929 . S
C1380 C1382 1.378 . S
C1380 C1384 1.350 . S
C1381 C1384 1.463 . S
C1381 C1386 1.350 . S
C1381 N1389 1.427 . S
C1382 H1373 0.930 . S
C1382 C1380 1.378 . S
C1382 C1383 1.367 . S
C1383 C1382 1.367 . S
C1383 C1385 1.433 . S
C1384 C1380 1.350 . S
C1384 C1381 1.463 . S
C1384 N1388 1.427 . S
C1385 H1375 0.929 . S
C1385 C1383 1.433 . S
C1385 N1388 1.384 . S
C1386 H1377 0.929 . S
C1386 C1378 1.378 . S
C1386 C1381 1.350 . S
C1387 H1374 0.929 . S
C1387 C1379 1.433 . S
C1387 N1389 1.384 . S
N1388 C1384 1.427 . S
N1388 C1385 1.384 . S
N1389 C1381 1.427 . S
N1389 C1387 1.384 . S
H1390 C1396 0.930 . S
H1391 C1400 0.930 . S
H1392 C1405 0.929 . S
H1393 C1403 0.929 . S
H1394 C1398 0.929 . S
H1395 C1404 0.929 . S
C1396 H1390 0.930 . S
C1396 C1397 1.367 . S
C1396 C1404 1.378 . S
C1397 C1396 1.367 . S
C1397 C1405 1.433 . S
C1398 H1394 0.929 . S
C1398 C1400 1.378 . S
C1398 C1402 1.350 . S
C1399 C1402 1.463 . S
C1399 C1404 1.350 . S
C1399 N1407 1.427 . S
C1400 H1391 0.930 . S
C1400 C1398 1.378 . S
C1400 C1401 1.367 . S
C1401 C1400 1.367 . S
C1401 C1403 1.433 . S
C1402 C1398 1.350 . S
C1402 C1399 1.463 . S
C1402 N1406 1.427 . S
C1403 H1393 0.929 . S
C1403 C1401 1.433 . S
C1403 N1406 1.384 . S
C1404 H1395 0.929 . S
C1404 C1396 1.378 . S
C1404 C1399 1.350 . S
C1405 H1392 0.929 . S
C1405 C1397 1.433 . S
C1405 N1407 1.384 . S
N1406 C1402 1.427 . S
N1406 C1403 1.384 . S
N1407 C1399 1.427 . S
N1407 C1405 1.384 . S
H1408 C1414 0.930 . S
H1409 C1418 0.930 . S
H1410 C1423 0.929 . S
H1411 C1421 0.929 . S
H1412 C1416 0.929 . S
H1413 C1422 0.929 . S
C1414 H1408 0.930 . S
C1414 C1415 1.367 . S
C1414 C1422 1.378 . S
C1415 C1414 1.367 . S
C1415 C1423 1.433 . S
C1416 H1412 0.929 . S
C1416 C1418 1.378 . S
C1416 C1420 1.350 . S
C1417 C1420 1.463 . S
C1417 C1422 1.350 . S
C1417 N1425 1.427 . S
C1418 H1409 0.930 . S
C1418 C1416 1.378 . S
C1418 C1419 1.367 . S
C1419 C1418 1.367 . S
C1419 C1421 1.433 . S
C1420 C1416 1.350 . S
C1420 C1417 1.463 . S
C1420 N1424 1.427 . S
C1421 H1411 0.929 . S
C1421 C1419 1.433 . S
C1421 N1424 1.384 . S
C1422 H1413 0.929 . S
C1422 C1414 1.378 . S
C1422 C1417 1.350 . S
C1423 H1410 0.929 . S
C1423 C1415 1.433 . S
C1423 N1425 1.384 . S
N1424 C1420 1.427 . S
N1424 C1421 1.384 . S
N1425 C1417 1.427 . S
N1425 C1423 1.384 . S
H1426 C1432 0.930 . S
H1427 C1436 0.930 . S
H1428 C1441 0.929 . S
H1429 C1439 0.929 . S
H1430 C1434 0.929 . S
H1431 C1440 0.929 . S
C1432 H1426 0.930 . S
C1432 C1433 1.367 . S
C1432 C1440 1.378 . S
C1433 C1432 1.367 . S
C1433 C1441 1.433 . S
C1434 H1430 0.929 . S
C1434 C1436 1.378 . S
C1434 C1438 1.350 . S
C1435 C1438 1.463 . S
C1435 C1440 1.350 . S
C1435 N1443 1.427 . S
C1436 H1427 0.930 . S
C1436 C1434 1.378 . S
C1436 C1437 1.367 . S
C1437 C1436 1.367 . S
C1437 C1439 1.433 . S
C1438 C1434 1.350 . S
C1438 C1435 1.463 . S
C1438 N1442 1.427 . S
C1439 H1429 0.929 . S
C1439 C1437 1.433 . S
C1439 N1442 1.384 . S
C1440 H1431 0.929 . S
C1440 C1432 1.378 . S
C1440 C1435 1.350 . S
C1441 H1428 0.929 . S
C1441 C1433 1.433 . S
C1441 N1443 1.384 . S
N1442 C1438 1.427 . S
N1442 C1439 1.384 . S
N1443 C1435 1.427 . S
N1443 C1441 1.384 . S
H1444 C1450 0.930 . S
H1445 C1454 0.930 . S
H1446 C1459 0.929 . S
H1447 C1457 0.929 . S
H1448 C1452 0.929 . S
H1449 C1458 0.929 . S
C1450 H1444 0.930 . S
C1450 C1451 1.367 . S
C1450 C1458 1.378 . S
C1451 C1450 1.367 . S
C1451 C1459 1.433 . S
C1452 H1448 0.929 . S
C1452 C1454 1.378 . S
C1452 C1456 1.350 . S
C1453 C1456 1.463 . S
C1453 C1458 1.350 . S
C1453 N1461 1.427 . S
C1454 H1445 0.930 . S
C1454 C1452 1.378 . S
C1454 C1455 1.367 . S
C1455 C1454 1.367 . S
C1455 C1457 1.433 . S
C1456 C1452 1.350 . S
C1456 C1453 1.463 . S
C1456 N1460 1.427 . S
C1457 H1447 0.929 . S
C1457 C1455 1.433 . S
C1457 N1460 1.384 . S
C1458 H1449 0.929 . S
C1458 C1450 1.378 . S
C1458 C1453 1.350 . S
C1459 H1446 0.929 . S
C1459 C1451 1.433 . S
C1459 N1461 1.384 . S
N1460 C1456 1.427 . S
N1460 C1457 1.384 . S
N1461 C1453 1.427 . S
N1461 C1459 1.384 . S
H1462 C1468 0.930 . S
H1463 C1472 0.930 . S
H1464 C1477 0.929 . S
H1465 C1475 0.929 . S
H1466 C1470 0.929 . S
H1467 C1476 0.929 . S
C1468 H1462 0.930 . S
C1468 C1469 1.367 . S
C1468 C1476 1.378 . S
C1469 C1468 1.367 . S
C1469 C1477 1.433 . S
C1470 H1466 0.929 . S
C1470 C1472 1.378 . S
C1470 C1474 1.350 . S
C1471 C1474 1.463 . S
C1471 C1476 1.350 . S
C1471 N1479 1.427 . S
C1472 H1463 0.930 . S
C1472 C1470 1.378 . S
C1472 C1473 1.367 . S
C1473 C1472 1.367 . S
C1473 C1475 1.433 . S
C1474 C1470 1.350 . S
C1474 C1471 1.463 . S
C1474 N1478 1.427 . S
C1475 H1465 0.929 . S
C1475 C1473 1.433 . S
C1475 N1478 1.384 . S
C1476 H1467 0.929 . S
C1476 C1468 1.378 . S
C1476 C1471 1.350 . S
C1477 H1464 0.929 . S
C1477 C1469 1.433 . S
C1477 N1479 1.384 . S
N1478 C1474 1.427 . S
N1478 C1475 1.384 . S
N1479 C1471 1.427 . S
N1479 C1477 1.384 . S
H1480 C1486 0.930 . S
H1481 C1490 0.930 . S
H1482 C1495 0.929 . S
H1483 C1493 0.929 . S
H1484 C1488 0.929 . S
H1485 C1494 0.929 . S
C1486 H1480 0.930 . S
C1486 C1487 1.367 . S
C1486 C1494 1.378 . S
C1487 C1486 1.367 . S
C1487 C1495 1.433 . S
C1488 H1484 0.929 . S
C1488 C1490 1.378 . S
C1488 C1492 1.350 . S
C1489 C1492 1.463 . S
C1489 C1494 1.350 . S
C1489 N1497 1.427 . S
C1490 H1481 0.930 . S
C1490 C1488 1.378 . S
C1490 C1491 1.367 . S
C1491 C1490 1.367 . S
C1491 C1493 1.433 . S
C1492 C1488 1.350 . S
C1492 C1489 1.463 . S
C1492 N1496 1.427 . S
C1493 H1483 0.929 . S
C1493 C1491 1.433 . S
C1493 N1496 1.384 . S
C1494 H1485 0.929 . S
C1494 C1486 1.378 . S
C1494 C1489 1.350 . S
C1495 H1482 0.929 . S
C1495 C1487 1.433 . S
C1495 N1497 1.384 . S
N1496 C1492 1.427 . S
N1496 C1493 1.384 . S
N1497 C1489 1.427 . S
N1497 C1495 1.384 . S
H1498 C1504 0.930 . S
H1499 C1508 0.930 . S
H1500 C1513 0.929 . S
H1501 C1511 0.929 . S
H1502 C1506 0.929 . S
H1503 C1512 0.929 . S
C1504 H1498 0.930 . S
C1504 C1505 1.367 . S
C1504 C1512 1.378 . S
C1505 C1504 1.367 . S
C1505 C1513 1.433 . S
C1506 H1502 0.929 . S
C1506 C1508 1.378 . S
C1506 C1510 1.350 . S
C1507 C1510 1.463 . S
C1507 C1512 1.350 . S
C1507 N1515 1.427 . S
C1508 H1499 0.930 . S
C1508 C1506 1.378 . S
C1508 C1509 1.367 . S
C1509 C1508 1.367 . S
C1509 C1511 1.433 . S
C1510 C1506 1.350 . S
C1510 C1507 1.463 . S
C1510 N1514 1.427 . S
C1511 H1501 0.929 . S
C1511 C1509 1.433 . S
C1511 N1514 1.384 . S
C1512 H1503 0.929 . S
C1512 C1504 1.378 . S
C1512 C1507 1.350 . S
C1513 H1500 0.929 . S
C1513 C1505 1.433 . S
C1513 N1515 1.384 . S
N1514 C1510 1.427 . S
N1514 C1511 1.384 . S
N1515 C1507 1.427 . S
N1515 C1513 1.384 . S
H1516 C1522 0.930 . S
H1517 C1526 0.930 . S
H1518 C1531 0.929 . S
H1519 C1529 0.929 . S
H1520 C1524 0.929 . S
H1521 C1530 0.929 . S
C1522 H1516 0.930 . S
C1522 C1523 1.367 . S
C1522 C1530 1.378 . S
C1523 C1522 1.367 . S
C1523 C1531 1.433 . S
C1524 H1520 0.929 . S
C1524 C1526 1.378 . S
C1524 C1528 1.350 . S
C1525 C1528 1.463 . S
C1525 C1530 1.350 . S
C1525 N1533 1.427 . S
C1526 H1517 0.930 . S
C1526 C1524 1.378 . S
C1526 C1527 1.367 . S
C1527 C1526 1.367 . S
C1527 C1529 1.433 . S
C1528 C1524 1.350 . S
C1528 C1525 1.463 . S
C1528 N1532 1.427 . S
C1529 H1519 0.929 . S
C1529 C1527 1.433 . S
C1529 N1532 1.384 . S
C1530 H1521 0.929 . S
C1530 C1522 1.378 . S
C1530 C1525 1.350 . S
C1531 H1518 0.929 . S
C1531 C1523 1.433 . S
C1531 N1533 1.384 . S
N1532 C1528 1.427 . S
N1532 C1529 1.384 . S
N1533 C1525 1.427 . S
N1533 C1531 1.384 . S
H1534 C1540 0.930 . S
H1535 C1544 0.930 . S
H1536 C1549 0.929 . S
H1537 C1547 0.929 . S
H1538 C1542 0.929 . S
H1539 C1548 0.929 . S
C1540 H1534 0.930 . S
C1540 C1541 1.367 . S
C1540 C1548 1.378 . S
C1541 C1540 1.367 . S
C1541 C1549 1.433 . S
C1542 H1538 0.929 . S
C1542 C1544 1.378 . S
C1542 C1546 1.350 . S
C1543 C1546 1.463 . S
C1543 C1548 1.350 . S
C1543 N1551 1.427 . S
C1544 H1535 0.930 . S
C1544 C1542 1.378 . S
C1544 C1545 1.367 . S
C1545 C1544 1.367 . S
C1545 C1547 1.433 . S
C1546 C1542 1.350 . S
C1546 C1543 1.463 . S
C1546 N1550 1.427 . S
C1547 H1537 0.929 . S
C1547 C1545 1.433 . S
C1547 N1550 1.384 . S
C1548 H1539 0.929 . S
C1548 C1540 1.378 . S
C1548 C1543 1.350 . S
C1549 H1536 0.929 . S
C1549 C1541 1.433 . S
C1549 N1551 1.384 . S
N1550 C1546 1.427 . S
N1550 C1547 1.384 . S
N1551 C1543 1.427 . S
N1551 C1549 1.384 . S
C551 C1 1.832 . S
C555 C173 1.824 . S
C569 C37 1.818 . S
C573 C207 1.818 . S
C587 C241 1.816 . S
C591 C69 1.821 . S
C605 C103 1.825 . S
C609 C139 1.832 . S
C623 C445 1.818 . S
C627 C273 1.828 . S
C641 C307 1.818 . S
C645 C477 1.827 . S
C659 C341 1.833 . S
C663 C513 1.828 . S
C677 C411 1.818 . S
C681 C377 1.818 . S
C695 C504 1.332 1_554 S
C699 C6 1.335 . S
C713 C516 1.332 1_554 S
C717 C62 1.337 . S
C731 C74 1.337 . S
C735 C414 1.333 1_554 S
C749 C108 1.335 . S
C753 C448 1.326 1_554 S
C767 C164 1.336 . S
C771 C368 1.333 . S
C785 C198 1.335 . S
C789 C380 1.331 . S
C803 C232 1.333 . S
C807 C300 1.327 . S
C821 C334 1.327 . S
C825 C266 1.334 . S
C839 C210 1.326 1_556 S
C843 C278 1.335 . S
C857 C312 1.337 . S
C861 C244 1.330 1_556 S
C875 C346 1.335 . S
C879 C142 1.332 1_556 S
C893 C402 1.336 . S
C897 C176 1.333 1_556 S
C911 C436 1.335 . S
C915 C96 1.332 . S
C929 C130 1.326 . S
C933 C470 1.334 . S
C947 C482 1.335 . S
C951 C28 1.326 . S
C965 C538 1.337 . S
C969 C40 1.329 . S
C983 C3 1.486 . S
C987 C396 1.552 . S
C1001 C35 1.479 . S
C1005 C287 1.550 . S
C1019 C321 1.551 . S
C1023 C71 1.484 . S
C1037 C105 1.484 . S
C1041 C355 1.551 . S
C1055 C464 1.550 . S
C1059 C137 1.469 . S
C1073 C171 1.477 . S
C1077 C491 1.549 . S
C1091 C205 1.485 . S
C1095 C532 1.552 . S
C1109 C239 1.472 . S
C1113 C430 1.552 . S
C1127 C275 1.471 . S
C1131 C117 1.552 . S
C1145 C15 1.549 . S
C1149 C309 1.475 . S
C1163 C56 1.549 . S
C1167 C343 1.470 . S
C1181 C83 1.550 . S
C1185 C375 1.481 . S
C1199 C192 1.553 . S
C1203 C409 1.481 . S
C1217 C226 1.549 . S
C1221 C443 1.477 . S
C1235 C260 1.552 . S
C1239 C479 1.475 . S
C1253 C158 1.550 . S
C1257 C511 1.469 . S
C1271 C22 1.749 . S
C1275 C119 1.988 . S
C1289 C49 1.733 . S
C1293 C17 1.984 . S
C1307 C51 1.985 . S
C1311 C90 1.735 . S
C1325 C85 1.984 . S
C1329 C124 1.733 . S
C1343 C187 1.984 . S
C1347 C151 1.733 . S
C1361 C221 1.986 . S
C1365 C185 1.743 . S
C1379 C255 1.985 . S
C1383 C219 1.735 . S
C1397 C153 1.989 . S
C1401 C253 1.753 . S
C1415 C391 1.984 . S
C1419 C294 1.733 . S
C1433 C328 1.735 . S
C1437 C289 1.985 . S
C1451 C362 1.748 . S
C1455 C323 1.989 . S
C1469 C357 1.989 . S
C1473 C389 1.749 . S
C1487 C459 1.987 . S
C1491 C423 1.746 . S
C1505 C457 1.753 . S
C1509 C493 1.990 . S
C1523 C527 1.989 . S
C1527 C498 1.746 . S
C1541 C425 1.985 . S
C1545 C525 1.739 . S
