# Generated by pormake.
# Topology wjw, (5)-cn, num edge types: 1
# Building blocks:
#     Node 0, Type 0, BuildingBlock: XOMCOT_clean_sbu_0, # of connection points: 5
#     Node 1, Type 0, BuildingBlock: XOMCOT_clean_sbu_0, # of connection points: 5
#     Node 2, Type 0, BuildingBlock: XOMCOT_clean_sbu_0, # of connection points: 5
#     Node 3, Type 0, BuildingBlock: XOMCOT_clean_sbu_0, # of connection points: 5
#     Node 4, Type 0, BuildingBlock: XOMCOT_clean_sbu_0, # of connection points: 5
#     Node 5, Type 0, BuildingBlock: XOMCOT_clean_sbu_0, # of connection points: 5
#     Node 6, Type 0, BuildingBlock: XOMCOT_clean_sbu_0, # of connection points: 5
#     Node 7, Type 0, BuildingBlock: XOMCOT_clean_sbu_0, # of connection points: 5
#     Node 8, Type 0, BuildingBlock: XOMCOT_clean_sbu_0, # of connection points: 5
#     Node 9, Type 0, BuildingBlock: XOMCOT_clean_sbu_0, # of connection points: 5
#     Node 10, Type 0, BuildingBlock: XOMCOT_clean_sbu_0, # of connection points: 5
#     Node 11, Type 0, BuildingBlock: XOMCOT_clean_sbu_0, # of connection points: 5
#     Edge 12, Type (0, 0), BuildingBlock: KIFKEQ_clean_linker_1, # of connection points: 2
#     Edge 13, Type (0, 0), BuildingBlock: KIFKEQ_clean_linker_1, # of connection points: 2
#     Edge 14, Type (0, 0), BuildingBlock: KIFKEQ_clean_linker_1, # of connection points: 2
#     Edge 15, Type (0, 0), BuildingBlock: KIFKEQ_clean_linker_1, # of connection points: 2
#     Edge 16, Type (0, 0), BuildingBlock: KIFKEQ_clean_linker_1, # of connection points: 2
#     Edge 17, Type (0, 0), BuildingBlock: KIFKEQ_clean_linker_1, # of connection points: 2
#     Edge 18, Type (0, 0), BuildingBlock: KIFKEQ_clean_linker_1, # of connection points: 2
#     Edge 19, Type (0, 0), BuildingBlock: KIFKEQ_clean_linker_1, # of connection points: 2
#     Edge 20, Type (0, 0), BuildingBlock: KIFKEQ_clean_linker_1, # of connection points: 2
#     Edge 21, Type (0, 0), BuildingBlock: KIFKEQ_clean_linker_1, # of connection points: 2
#     Edge 22, Type (0, 0), BuildingBlock: KIFKEQ_clean_linker_1, # of connection points: 2
#     Edge 23, Type (0, 0), BuildingBlock: KIFKEQ_clean_linker_1, # of connection points: 2
#     Edge 24, Type (0, 0), BuildingBlock: KIFKEQ_clean_linker_1, # of connection points: 2
#     Edge 25, Type (0, 0), BuildingBlock: KIFKEQ_clean_linker_1, # of connection points: 2
#     Edge 26, Type (0, 0), BuildingBlock: KIFKEQ_clean_linker_1, # of connection points: 2
#     Edge 27, Type (0, 0), BuildingBlock: KIFKEQ_clean_linker_1, # of connection points: 2
#     Edge 28, Type (0, 0), BuildingBlock: KIFKEQ_clean_linker_1, # of connection points: 2
#     Edge 29, Type (0, 0), BuildingBlock: KIFKEQ_clean_linker_1, # of connection points: 2
#     Edge 30, Type (0, 0), BuildingBlock: KIFKEQ_clean_linker_1, # of connection points: 2
#     Edge 31, Type (0, 0), BuildingBlock: KIFKEQ_clean_linker_1, # of connection points: 2
#     Edge 32, Type (0, 0), BuildingBlock: KIFKEQ_clean_linker_1, # of connection points: 2
#     Edge 33, Type (0, 0), BuildingBlock: KIFKEQ_clean_linker_1, # of connection points: 2
#     Edge 34, Type (0, 0), BuildingBlock: KIFKEQ_clean_linker_1, # of connection points: 2
#     Edge 35, Type (0, 0), BuildingBlock: KIFKEQ_clean_linker_1, # of connection points: 2
#     Edge 36, Type (0, 0), BuildingBlock: KIFKEQ_clean_linker_1, # of connection points: 2
#     Edge 37, Type (0, 0), BuildingBlock: KIFKEQ_clean_linker_1, # of connection points: 2
#     Edge 38, Type (0, 0), BuildingBlock: KIFKEQ_clean_linker_1, # of connection points: 2
#     Edge 39, Type (0, 0), BuildingBlock: KIFKEQ_clean_linker_1, # of connection points: 2
#     Edge 40, Type (0, 0), BuildingBlock: KIFKEQ_clean_linker_1, # of connection points: 2
#     Edge 41, Type (0, 0), BuildingBlock: KIFKEQ_clean_linker_1, # of connection points: 2
# Relax obj value: 0.220
# Max RMSD: 0.191
# Mean RMSD: 0.187
data_MOF--net-wjw--node1-XOMCOT_clean_sbu_0--edge1-KIFKEQ_clean_linker_1
_symmetry_space_group_name_H-M    P1
_symmetry_Int_Tables_number       1
_symmetry_cell_setting            triclinic
loop_
_symmetry_equiv_pos_as_xyz
'x, y, z'
_cell_length_a     40.844401
_cell_length_b     40.822587
_cell_length_c     37.766198
_cell_angle_alpha  89.933793
_cell_angle_beta   89.999655
_cell_angle_gamma 120.02552
loop_
_atom_site_label
_atom_site_type_symbol
_atom_site_fract_x
_atom_site_fract_y
_atom_site_fract_z
_atom_type_partial_charge
Co0 Co 0.15109 0.39638 0.30028 0.0
C1 C 0.10678 0.43781 0.30322 0.0
C2 C 0.08234 0.38612 0.33292 0.0
C3 C 0.05813 0.40019 0.33441 0.0
N4 N 0.11304 0.40961 0.31352 0.0
N5 N 0.07354 0.43263 0.31579 0.0
H6 H 0.12475 0.46079 0.2859 0.0
H7 H 0.07751 0.35985 0.34458 0.0
C8 C 0.157 0.40708 0.37771 0.0
O9 O 0.15625 0.43838 0.37144 0.0
N10 N 0.18723 0.38118 0.28733 0.0
C11 C 0.20983 0.39234 0.25862 0.0
C12 C 0.23211 0.37582 0.25976 0.0
C13 C 0.19593 0.35814 0.30555 0.0
N14 N 0.22341 0.35448 0.28936 0.0
C15 C 0.19614 0.4753 0.2804 0.0
C16 C 0.25459 0.49208 0.32705 0.0
C17 C 0.25682 0.52064 0.30506 0.0
C18 C 0.22729 0.51208 0.28135 0.0
C19 C 0.22275 0.45608 0.32574 0.0
N20 N 0.19308 0.44833 0.30378 0.0
H21 H 0.17528 0.46819 0.2599 0.0
H22 H 0.22267 0.43409 0.3417 0.0
H23 H 0.21051 0.41166 0.23862 0.0
H24 H 0.18246 0.34433 0.33012 0.0
O25 O 0.13809 0.39592 0.25106 0.0
O26 O 0.11022 0.34686 0.28761 0.0
O27 O 0.15612 0.38641 0.35189 0.0
C28 C 0.11199 0.36088 0.25622 0.0
H29 H 0.03115 0.3875 0.34797 0.0
H30 H 0.25381 0.38008 0.24084 0.0
H31 H 0.27759 0.49743 0.3448 0.0
H32 H 0.22902 0.53317 0.26282 0.0
Co33 Co 0.75588 0.14473 0.6384 0.0
C34 C 0.67224 0.10063 0.6418 0.0
C35 C 0.69865 0.07882 0.67639 0.0
C36 C 0.66027 0.05432 0.67694 0.0
N37 N 0.70608 0.10767 0.65432 0.0
N38 N 0.64384 0.06809 0.65523 0.0
H39 H 0.66864 0.11773 0.62196 0.0
H40 H 0.71988 0.07497 0.68982 0.0
C41 C 0.7982 0.18005 0.70504 0.0
O42 O 0.8141 0.21306 0.68901 0.0
N43 N 0.807 0.18061 0.62265 0.0
C44 C 0.81981 0.2091 0.59887 0.0
C45 C 0.85879 0.22821 0.59911 0.0
C46 C 0.83843 0.18168 0.63537 0.0
N47 N 0.87046 0.21126 0.62256 0.0
C48 C 0.73969 0.20285 0.61631 0.0
C49 C 0.72667 0.22134 0.68313 0.0
C50 C 0.72818 0.24379 0.65436 0.0
C51 C 0.73331 0.23325 0.62039 0.0
C52 C 0.73298 0.19109 0.67775 0.0
N53 N 0.74269 0.18424 0.64507 0.0
H54 H 0.74241 0.19445 0.58992 0.0
H55 H 0.73021 0.17337 0.70008 0.0
H56 H 0.80277 0.21634 0.58256 0.0
H57 H 0.83772 0.16193 0.65491 0.0
O58 O 0.73964 0.13134 0.59008 0.0
O59 O 0.76396 0.10399 0.62337 0.0
O60 O 0.77428 0.15004 0.68882 0.0
C61 C 0.74905 0.10539 0.59332 0.0
H62 H 0.64554 0.028 0.69155 0.0
H63 H 0.87701 0.25368 0.58432 0.0
H64 H 0.7207 0.22711 0.70961 0.0
H65 H 0.73343 0.24892 0.59718 0.0
Co66 Co 0.62091 0.75257 0.9731 0.0
C67 C 0.58054 0.66724 0.97803 0.0
C68 C 0.63719 0.695 -0.00178 0.0
C69 C 0.62346 0.65669 -0.00103 0.0
N70 N 0.61044 0.70185 0.98509 0.0
N71 N 0.58793 0.63939 0.98634 0.0
H72 H 0.55454 0.66201 0.96583 0.0
H73 H 0.66536 0.71666 0.00582 0.0
C74 C 0.62479 0.75133 0.05194 0.0
O75 O 0.59585 0.71668 0.05119 0.0
N76 N 0.63319 0.8034 0.96124 0.0
C77 C 0.6146 0.81412 0.93893 0.0
C78 C 0.63041 0.85285 0.9412 0.0
C79 C 0.66014 0.83545 0.97645 0.0
N80 N 0.65894 0.8662 0.96499 0.0
C81 C 0.54034 0.71866 0.96222 0.0
C82 C 0.52847 0.75799 0.01542 0.0
C83 C 0.49794 0.73389 0.99385 0.0
C84 C 0.50417 0.71386 0.96704 0.0
C85 C 0.56397 0.76183 0.00979 0.0
N86 N 0.56953 0.74137 0.98422 0.0
H87 H 0.54518 0.70534 0.93973 0.0
H88 H 0.58732 0.78303 0.02495 0.0
H89 H 0.5904 0.79501 0.92315 0.0
H90 H 0.67987 0.83606 0.99587 0.0
O91 O 0.6148 0.7392 0.92342 0.0
O92 O 0.66851 0.76223 0.95338 0.0
O93 O 0.63838 0.76955 0.02311 0.0
C94 C 0.65046 0.74913 0.9237 0.0
H95 H 0.63847 0.64256 0.0078 0.0
H96 H 0.62054 0.86954 0.92746 0.0
H97 H 0.52526 0.77455 0.03608 0.0
H98 H 0.48175 0.69601 0.94889 0.0
Co99 Co 0.86755 0.61934 0.29691 0.0
C100 C 0.91725 0.58457 0.30281 0.0
C101 C 0.9461 0.64398 0.3142 0.0
C102 C 0.97203 0.63191 0.31514 0.0
N103 N 0.91166 0.61437 0.3065 0.0
N104 N 0.95381 0.59462 0.30802 0.0
H105 H 0.8958 0.55643 0.2954 0.0
H106 H 0.95205 0.67267 0.31827 0.0
C107 C 0.8813 0.6323 0.37468 0.0
O108 O 0.89292 0.60756 0.37452 0.0
N109 N 0.82475 0.62568 0.28693 0.0
C110 C 0.79272 0.60106 0.27 0.0
C111 C 0.76705 0.61344 0.27313 0.0
C112 C 0.81859 0.65305 0.29945 0.0
N113 N 0.78348 0.64609 0.29153 0.0
C114 C 0.82475 0.53792 0.29198 0.0
C115 C 0.78044 0.52615 0.35113 0.0
C116 C 0.77244 0.495 0.32968 0.0
C117 C 0.79539 0.50134 0.29982 0.0
C118 C 0.80934 0.56222 0.34189 0.0
N119 N 0.83211 0.5679 0.31325 0.0
H120 H 0.84051 0.5423 0.26779 0.0
H121 H 0.81143 0.58559 0.35686 0.0
H122 H 0.78778 0.57511 0.25761 0.0
H123 H 0.83856 0.67648 0.31558 0.0
O124 O 0.87097 0.60903 0.24761 0.0
O125 O 0.90028 0.66599 0.27198 0.0
O126 O 0.87093 0.64085 0.34582 0.0
C127 C 0.89436 0.64511 0.24403 0.0
H128 H 1.00196 0.64918 0.3206 0.0
H129 H 0.73826 0.59917 0.2634 0.0
H130 H 0.76374 0.52315 0.37444 0.0
H131 H 0.78975 0.47867 0.2816 0.0
Co132 Co 0.24923 0.86266 0.62939 0.0
C133 C 0.33516 0.90713 0.63011 0.0
C134 C 0.30866 0.93419 0.65669 0.0
C135 C 0.34696 0.95854 0.65677 0.0
N136 N 0.30096 0.90188 0.63993 0.0
N137 N 0.36345 0.94146 0.64017 0.0
H138 H 0.33984 0.88737 0.61525 0.0
H139 H 0.28756 0.93992 0.66762 0.0
C140 C 0.25904 0.86014 0.70634 0.0
O141 O 0.29129 0.86209 0.69835 0.0
N142 N 0.19742 0.82544 0.61893 0.0
C143 C 0.18467 0.8041 0.58947 0.0
C144 C 0.14585 0.78241 0.59143 0.0
C145 C 0.1664 0.8163 0.63857 0.0
N146 N 0.13456 0.79007 0.62234 0.0
C147 C 0.28299 0.81749 0.60906 0.0
C148 C 0.24674 0.76265 0.66041 0.0
C149 C 0.27271 0.75998 0.63814 0.0
C150 C 0.29032 0.78745 0.61155 0.0
C151 C 0.24032 0.79292 0.65696 0.0
N152 N 0.26016 0.82132 0.6331 0.0
H153 H 0.29527 0.83736 0.58747 0.0
H154 H 0.21873 0.79304 0.67334 0.0
H155 H 0.20234 0.80442 0.568 0.0
H156 H 0.16691 0.82904 0.66383 0.0
O157 O 0.25923 0.87438 0.57957 0.0
O158 O 0.23901 0.90248 0.61675 0.0
O159 O 0.23719 0.85926 0.68163 0.0
C160 C 0.25022 0.90039 0.58501 0.0
H161 H 0.36167 0.98661 0.6682 0.0
H162 H 0.12735 0.7623 0.57186 0.0
H163 H 0.23071 0.74099 0.67994 0.0
H164 H 0.30961 0.78587 0.5929 0.0
Co165 Co 0.38812 0.2456 0.96996 0.0
C166 C 0.43057 0.32945 0.9758 0.0
C167 C 0.38357 0.30289 0.01181 0.0
C168 C 0.39886 0.34142 0.01411 0.0
N169 N 0.40335 0.29544 0.9878 0.0
N170 N 0.4283 0.35794 0.99155 0.0
H171 H 0.45035 0.3332 0.95496 0.0
H172 H 0.35871 0.28165 0.02555 0.0
C173 C 0.3884 0.20377 0.03367 0.0
O174 O 0.40668 0.19168 0.01386 0.0
N175 N 0.36952 0.19424 0.95226 0.0
C176 C 0.37458 0.18191 0.92061 0.0
C177 C 0.3534 0.14282 0.91979 0.0
C178 C 0.34306 0.16254 0.96871 0.0
N179 N 0.33414 0.13091 0.95044 0.0
C180 C 0.45802 0.25124 0.94578 0.0
C181 C 0.49669 0.27743 0.00896 0.0
C182 C 0.51374 0.26858 0.98126 0.0
C183 C 0.49434 0.2563 0.94903 0.0
C184 C 0.46019 0.27164 0.00464 0.0
N185 N 0.44036 0.25649 0.97403 0.0
H186 H 0.44441 0.24347 0.92042 0.0
H187 H 0.44736 0.27828 0.02644 0.0
H188 H 0.39125 0.19965 0.89893 0.0
H189 H 0.32995 0.16231 0.99364 0.0
O190 O 0.39068 0.26368 0.92262 0.0
O191 O 0.33967 0.24031 0.95678 0.0
O192 O 0.37751 0.22566 0.02042 0.0
C193 C 0.35584 0.25556 0.92664 0.0
H194 H 0.38881 0.35624 0.03062 0.0
H195 H 0.35263 0.12461 0.8986 0.0
H196 H 0.51088 0.2876 0.03414 0.0
H197 H 0.5072 0.25079 0.92643 0.0
Co198 Co 0.62503 0.86797 0.35966 0.0
C199 C 0.58931 0.9166 0.35099 0.0
C200 C 0.64623 0.94261 0.33172 0.0
C201 C 0.63423 0.96858 0.32948 0.0
N202 N 0.61807 0.90986 0.34507 0.0
N203 N 0.59847 0.9521 0.34155 0.0
H204 H 0.56292 0.89721 0.36347 0.0
H205 H 0.67413 0.9476 0.32509 0.0
C206 C 0.63278 0.87161 0.28135 0.0
O207 O 0.6052 0.87934 0.28058 0.0
N208 N 0.63351 0.8276 0.37453 0.0
C209 C 0.61075 0.79808 0.39543 0.0
C210 C 0.62311 0.77226 0.39469 0.0
C211 C 0.65983 0.81989 0.36198 0.0
N212 N 0.65393 0.78615 0.37374 0.0
C213 C 0.54346 0.82473 0.366 0.0
C214 C 0.53296 0.77133 0.31559 0.0
C215 C 0.50168 0.76689 0.33467 0.0
C216 C 0.50704 0.79421 0.35992 0.0
C217 C 0.56858 0.80241 0.32206 0.0
N218 N 0.57362 0.82948 0.34628 0.0
H219 H 0.54762 0.84322 0.38802 0.0
H220 H 0.59237 0.80299 0.3091 0.0
H221 H 0.58575 0.79463 0.4087 0.0
H222 H 0.68142 0.8374 0.34298 0.0
O223 O 0.61613 0.87643 0.40806 0.0
O224 O 0.67211 0.90444 0.38153 0.0
O225 O 0.6448 0.8666 0.31098 0.0
C226 C 0.65214 0.90089 0.40965 0.0
H227 H 0.65064 0.99746 0.32014 0.0
H228 H 0.60983 0.74488 0.40757 0.0
H229 H 0.53012 0.75017 0.29662 0.0
H230 H 0.48372 0.79083 0.37623 0.0
Co231 Co 0.75171 0.61764 0.68432 0.0
C232 C 0.66674 0.58061 0.67952 0.0
C233 C 0.69621 0.62308 0.64011 0.0
C234 C 0.65837 0.61049 0.63687 0.0
N235 N 0.70172 0.60357 0.66601 0.0
N236 N 0.63966 0.58387 0.66177 0.0
H237 H 0.66121 0.56398 0.70325 0.0
H238 H 0.71845 0.64619 0.6253 0.0
C239 C 0.75892 0.61139 0.60656 0.0
O240 O 0.72675 0.57919 0.60804 0.0
N241 N 0.80187 0.63379 0.70233 0.0
C242 C 0.81127 0.62359 0.73297 0.0
C243 C 0.85018 0.64046 0.73463 0.0
C244 C 0.83494 0.65659 0.68586 0.0
N245 N 0.86478 0.66085 0.70481 0.0
C246 C 0.71572 0.53713 0.69829 0.0
C247 C 0.76623 0.52531 0.65943 0.0
C248 C 0.73653 0.49452 0.67693 0.0
C249 C 0.71107 0.50076 0.69664 0.0
C250 C 0.76962 0.56099 0.66155 0.0
N251 N 0.74376 0.56646 0.6797 0.0
H252 H 0.69775 0.54184 0.71581 0.0
H253 H 0.79372 0.58443 0.64902 0.0
H254 H 0.79125 0.60458 0.75234 0.0
H255 H 0.83732 0.6697 0.66039 0.0
O256 O 0.73354 0.61452 0.73199 0.0
O257 O 0.75696 0.66571 0.69792 0.0
O258 O 0.77308 0.63087 0.63466 0.0
C259 C 0.7421 0.64959 0.72809 0.0
H260 H 0.64585 0.62082 0.61785 0.0
H261 H 0.86639 0.6369 0.75541 0.0
H262 H 0.7869 0.52197 0.64431 0.0
H263 H 0.68861 0.47806 0.71173 0.0
Co264 Co 0.14475 0.7518 0.02144 0.0
C265 C 0.10194 0.6681 0.01473 0.0
C266 C 0.09813 0.69599 0.9679 0.0
C267 C 0.07729 0.65761 0.96265 0.0
N268 N 0.11391 0.70258 0.00033 0.0
N269 N 0.07959 0.64018 0.99208 0.0
H270 H 0.1093 0.66353 0.04108 0.0
H271 H 0.10083 0.71748 0.94949 0.0
C272 C 0.19131 0.80008 0.96176 0.0
O273 O 0.22039 0.81286 0.98335 0.0
N274 N 0.17416 0.80221 0.04194 0.0
C275 C 0.1952 0.81476 0.07172 0.0
C276 C 0.21189 0.85374 0.0731 0.0
C277 C 0.17652 0.83348 0.02719 0.0
N278 N 0.20049 0.8653 0.04464 0.0
C279 C 0.20426 0.74164 0.05182 0.0
C280 C 0.22924 0.72803 0.98851 0.0
C281 C 0.24926 0.73058 0.01953 0.0
C282 C 0.23566 0.73644 0.05167 0.0
C283 C 0.19801 0.73326 0.98995 0.0
N284 N 0.1875 0.74276 0.02095 0.0
H285 H 0.19299 0.74387 0.07688 0.0
H286 H 0.18258 0.73015 0.9658 0.0
H287 H 0.19866 0.79751 0.09125 0.0
H288 H 0.162 0.83322 0.00314 0.0
O289 O 0.12431 0.73091 0.06721 0.0
O290 O 0.09955 0.75482 0.03006 0.0
O291 O 0.15835 0.77518 0.97247 0.0
C292 C 0.09755 0.73839 0.06025 0.0
H293 H 0.06072 0.64352 0.93939 0.0
H294 H 0.23216 0.87223 0.09258 0.0
H295 H 0.23799 0.72282 0.96307 0.0
H296 H 0.24884 0.73655 0.07658 0.0
Co297 Co 0.40083 0.14962 0.36615 0.0
C298 C 0.44165 0.10485 0.3621 0.0
C299 C 0.38698 0.07776 0.33753 0.0
C300 C 0.40127 0.05373 0.33557 0.0
N301 N 0.41208 0.10986 0.35423 0.0
N302 N 0.43557 0.07082 0.35092 0.0
H303 H 0.46669 0.12472 0.3762 0.0
H304 H 0.35976 0.07205 0.32769 0.0
C305 C 0.41175 0.15335 0.28856 0.0
O306 O 0.44133 0.14958 0.29491 0.0
N307 N 0.38791 0.1877 0.37792 0.0
C308 C 0.40003 0.21089 0.40609 0.0
C309 C 0.38422 0.23377 0.40478 0.0
C310 C 0.36495 0.19659 0.35986 0.0
N311 N 0.36218 0.22489 0.3756 0.0
C312 C 0.47885 0.19264 0.38873 0.0
C313 C 0.50162 0.24782 0.33705 0.0
C314 C 0.52832 0.24982 0.3614 0.0
C315 C 0.51647 0.22229 0.38806 0.0
C316 C 0.46433 0.21832 0.33917 0.0
N317 N 0.45373 0.18974 0.36331 0.0
H318 H 0.46982 0.17221 0.40998 0.0
H319 H 0.44386 0.21923 0.32178 0.0
H320 H 0.41904 0.21113 0.42617 0.0
H321 H 0.35099 0.1828 0.33552 0.0
O322 O 0.39822 0.13625 0.41564 0.0
O323 O 0.35015 0.1106 0.37801 0.0
O324 O 0.39225 0.15488 0.31431 0.0
C325 C 0.3629 0.11139 0.40974 0.0
H326 H 0.38768 0.02592 0.32358 0.0
H327 H 0.38856 0.25504 0.42417 0.0
H328 H 0.50922 0.26967 0.31722 0.0
H329 H 0.53606 0.22367 0.40814 0.0
Co330 Co 0.24775 0.39042 0.69525 0.0
C331 C 0.33101 0.42856 0.68675 0.0
C332 C 0.30155 0.38646 0.64674 0.0
C333 C 0.33975 0.40309 0.64049 0.0
N334 N 0.29612 0.4027 0.67545 0.0
N335 N 0.35815 0.4294 0.66567 0.0
H336 H 0.33638 0.4468 0.70939 0.0
H337 H 0.27932 0.36403 0.63137 0.0
C338 C 0.19945 0.38226 0.63337 0.0
O339 O 0.1875 0.40148 0.6519 0.0
N340 N 0.19811 0.37572 0.71489 0.0
C341 C 0.18631 0.39315 0.73765 0.0
C342 C 0.14731 0.37306 0.73907 0.0
C343 C 0.16622 0.34429 0.70458 0.0
N344 N 0.13472 0.34271 0.71764 0.0
C345 C 0.26556 0.46608 0.71494 0.0
C346 C 0.27625 0.4944 0.64683 0.0
C347 C 0.27696 0.51719 0.67486 0.0
C348 C 0.27286 0.50306 0.70947 0.0
C349 C 0.26901 0.45775 0.65359 0.0
N350 N 0.26057 0.44284 0.68702 0.0
H351 H 0.26402 0.45621 0.74172 0.0
H352 H 0.27005 0.44134 0.63167 0.0
H353 H 0.20392 0.41907 0.75163 0.0
H354 H 0.16615 0.32419 0.68589 0.0
O355 O 0.26809 0.39581 0.7422 0.0
O356 O 0.24104 0.34236 0.71149 0.0
O357 O 0.22411 0.37506 0.64645 0.0
C358 C 0.25788 0.36016 0.74047 0.0
H359 H 0.35306 0.39616 0.61927 0.0
H360 H 0.12965 0.38157 0.75306 0.0
H361 H 0.28138 0.50482 0.61985 0.0
H362 H 0.27451 0.52006 0.73211 0.0
Co363 Co 0.86238 0.24758 0.03359 0.0
C364 C 0.90612 0.33153 0.02647 0.0
C365 C 0.91934 0.30293 0.98597 0.0
C366 C 0.94007 0.34112 0.97973 0.0
N367 N 0.89771 0.29688 0.01489 0.0
N368 N 0.93181 0.35895 0.00515 0.0
H369 H 0.89328 0.3365 0.04938 0.0
H370 H 0.92002 0.28108 0.9704 0.0
C371 C 0.82271 0.20359 0.96867 0.0
O372 O 0.79051 0.18869 0.98601 0.0
N373 N 0.82819 0.19697 0.05185 0.0
C374 C 0.8049 0.18544 0.08018 0.0
C375 C 0.78551 0.14645 0.08134 0.0
C376 C 0.82445 0.16481 0.03794 0.0
N377 N 0.79745 0.13348 0.05433 0.0
C378 C 0.80202 0.26031 0.05703 0.0
C379 C 0.78532 0.27678 0.99083 0.0
C380 C 0.76134 0.27263 0.01918 0.0
C381 C 0.77093 0.26563 0.05296 0.0
C382 C 0.81571 0.27076 0.99609 0.0
N383 N 0.82196 0.25965 0.02834 0.0
H384 H 0.81017 0.25711 0.08331 0.0
H385 H 0.83404 0.27474 0.97392 0.0
H386 H 0.80212 0.20344 0.09927 0.0
H387 H 0.84087 0.16442 0.01566 0.0
O388 O 0.87856 0.26576 0.08108 0.0
O389 O 0.90444 0.24098 0.04634 0.0
O390 O 0.85374 0.22695 0.9838 0.0
C391 C 0.9044 0.25637 0.07652 0.0
H392 H 0.96 0.35489 0.95834 0.0
H393 H 0.76354 0.12913 0.10009 0.0
H394 H 0.78067 0.2845 0.96465 0.0
H395 H 0.75425 0.26349 0.07603 0.0
H396 H 0.90303 0.27323 0.14609 0.0
H397 H 0.97249 0.26014 0.06751 0.0
H398 H 0.95402 0.29336 0.18937 0.0
H399 H 0.02371 0.28083 0.11078 0.0
H400 H 0.11557 0.37649 0.18563 0.0
H401 H 0.06485 0.34575 0.14203 0.0
H402 H 0.99229 0.26728 0.22195 0.0
H403 H 0.04313 0.29766 0.26551 0.0
C404 C 0.92905 0.2743 0.13819 0.0
C405 C 0.93385 0.26519 0.10346 0.0
C406 C 0.95812 0.28563 0.16299 0.0
C407 C 0.99275 0.28866 0.15335 0.0
C408 C 0.99731 0.27884 0.1188 0.0
C409 C 0.96797 0.26686 0.09416 0.0
C410 C 0.08901 0.35227 0.19371 0.0
C411 C 0.08326 0.33949 0.22893 0.0
C412 C 0.06007 0.33462 0.16876 0.0
C413 C 0.02466 0.30427 0.17873 0.0
C414 C 0.01928 0.29076 0.21368 0.0
C415 C 0.04844 0.30801 0.2385 0.0
H416 H 0.61408 0.91343 0.46203 0.0
H417 H 0.72695 0.94799 0.42512 0.0
H418 H 0.6403 0.96296 0.50696 0.0
H419 H 0.75317 0.99729 0.4708 0.0
H420 H 0.77447 0.05498 0.58622 0.0
H421 H 0.75287 1.0032 0.54309 0.0
H422 H 0.67848 0.03773 0.49634 0.0
H423 H 0.70037 0.08961 0.53858 0.0
C424 C 0.64451 0.93107 0.46397 0.0
C425 C 0.66848 0.92693 0.43999 0.0
C426 C 0.65945 0.95954 0.48954 0.0
C427 C 0.69866 0.98401 0.49203 0.0
C428 C 0.72283 0.97867 0.46936 0.0
C429 C 0.70783 0.95055 0.44329 0.0
C430 C 0.75387 0.05172 0.56642 0.0
C431 C 0.73914 0.07634 0.56571 0.0
C432 C 0.74157 0.02219 0.54184 0.0
C433 C 0.71379 0.0164 0.51676 0.0
C434 C 0.69965 0.04142 0.51569 0.0
C435 C 0.71241 0.07126 0.53971 0.0
H436 H 0.71655 0.74804 0.92318 0.0
H437 H 0.62477 0.73302 0.85549 0.0
H438 H 0.74248 0.72821 0.87487 0.0
H439 H 0.65123 0.71371 0.80694 0.0
H440 H 0.73231 0.71082 0.72125 0.0
H441 H 0.71326 0.74009 0.76756 0.0
H442 H 0.71376 0.66195 0.84435 0.0
H443 H 0.732 0.63231 0.79818 0.0
C444 C 0.70231 0.74121 0.89779 0.0
C445 C 0.66855 0.74195 0.89312 0.0
C446 C 0.71708 0.7297 0.87024 0.0
C447 C 0.69876 0.71934 0.8373 0.0
C448 C 0.666 0.7218 0.83205 0.0
C449 C 0.65083 0.7327 0.85983 0.0
C450 C 0.72869 0.70021 0.74811 0.0
C451 C 0.7336 0.66933 0.75619 0.0
C452 C 0.71764 0.7168 0.77448 0.0
C453 C 0.71216 0.7033 0.80946 0.0
C454 C 0.71812 0.67311 0.81765 0.0
C455 C 0.72839 0.65607 0.79122 0.0
H456 H 0.04823 0.76547 0.06523 0.0
H457 H 0.07411 0.6838 0.11041 0.0
H458 H 0.99464 0.74418 0.10645 0.0
H459 H 0.02056 0.66224 0.15063 0.0
H460 H 0.89948 0.60535 0.18863 0.0
H461 H 0.94626 0.62928 0.14114 0.0
H462 H 0.98918 0.74332 0.17873 0.0
H463 H 0.94263 0.71939 0.2269 0.0
C464 C 0.04239 0.74297 0.08383 0.0
C465 C 0.06536 0.72638 0.08477 0.0
C466 C 0.01188 0.73089 0.10734 0.0
C467 C 1.00342 0.70141 0.13141 0.0
C468 C 0.02627 0.68475 0.13206 0.0
C469 C 0.05707 0.6973 0.10922 0.0
C470 C 0.91829 0.63561 0.18641 0.0
C471 C 0.91755 0.66047 0.21168 0.0
C472 C 0.94515 0.64924 0.15929 0.0
C473 C 0.97142 0.68805 0.15654 0.0
C474 C 0.9691 0.71327 0.18027 0.0
C475 C 0.94254 0.69956 0.20782 0.0
H476 H 0.29728 0.04515 0.3987 0.0
H477 H 0.37687 0.11166 0.48048 0.0
H478 H 0.26366 0.99325 0.44075 0.0
H479 H 0.34288 0.05986 0.52259 0.0
H480 H 0.26332 0.89835 0.51438 0.0
H481 H 0.28504 0.95048 0.47198 0.0
H482 H 0.2774 0.02098 0.55286 0.0
H483 H 0.25523 0.9688 0.59518 0.0
C484 C 0.30714 0.04898 0.42583 0.0
C485 C 0.33975 0.08242 0.43634 0.0
C486 C 0.28801 0.0192 0.44978 0.0
C487 C 0.30074 0.02256 0.48482 0.0
C488 C 0.33229 0.05667 0.49577 0.0
C489 C 0.3518 0.08623 0.47167 0.0
C490 C 0.26553 0.92472 0.52288 0.0
C491 C 0.25762 0.92952 0.55806 0.0
C492 C 0.27786 0.95449 0.49862 0.0
C493 C 0.28305 0.98977 0.50927 0.0
C494 C 0.27383 0.99413 0.54409 0.0
C495 C 0.26091 0.96418 0.56818 0.0
H496 H 0.23069 0.28424 0.75127 0.0
H497 H 0.30633 0.3947 0.79498 0.0
H498 H 0.25016 0.25516 0.79772 0.0
H499 H 0.326 0.36572 0.84048 0.0
H500 H 0.38962 0.3013 0.87036 0.0
H501 H 0.36159 0.32364 0.82662 0.0
H502 H 0.25226 0.25686 0.87557 0.0
H503 H 0.28057 0.23469 0.9205 0.0
C504 C 0.25116 0.30221 0.77088 0.0
C505 C 0.26712 0.34174 0.76942 0.0
C506 C 0.26207 0.28557 0.79746 0.0
C507 C 0.28951 0.30833 0.82247 0.0
C508 C 0.30477 0.34766 0.82142 0.0
C509 C 0.29348 0.36417 0.79538 0.0
C510 C 0.35952 0.291 0.87182 0.0
C511 C 0.33729 0.26628 0.89899 0.0
C512 C 0.34358 0.30392 0.84678 0.0
C513 C 0.30492 0.292 0.84792 0.0
C514 C 0.28218 0.26629 0.87424 0.0
C515 C 0.29835 0.25376 0.89988 0.0
H516 H 0.1473 0.43821 0.43726 0.0
H517 H 0.17355 0.35332 0.40175 0.0
H518 H 0.1537 0.42393 0.49827 0.0
H519 H 0.17968 0.33866 0.46364 0.0
H520 H 0.1352 0.3737 0.60405 0.0
H521 H 0.121 0.37226 0.54128 0.0
H522 H 0.22377 0.37184 0.51524 0.0
H523 H 0.23769 0.37259 0.57844 0.0
C524 C 0.15424 0.41629 0.44248 0.0
C525 C 0.15993 0.39691 0.41466 0.0
C526 C 0.15757 0.40786 0.47753 0.0
C527 C 0.16678 0.37987 0.48577 0.0
C528 C 0.17253 0.36035 0.45802 0.0
C529 C 0.16888 0.36864 0.42269 0.0
C530 C 0.15443 0.37262 0.58494 0.0
C531 C 0.18786 0.37393 0.59601 0.0
C532 C 0.14634 0.37187 0.54903 0.0
C533 C 0.17169 0.37276 0.52338 0.0
C534 C 0.20371 0.3711 0.53444 0.0
C535 C 0.21171 0.37159 0.57057 0.0
H536 H 0.74632 0.13645 0.75438 0.0
H537 H 0.86389 0.22061 0.74119 0.0
H538 H 0.7543 0.13975 0.81824 0.0
H539 H 0.87322 0.22178 0.80496 0.0
H540 H 0.77846 0.13801 0.93309 0.0
H541 H 0.7761 0.12789 0.86929 0.0
H542 H 0.86209 0.2454 0.8549 0.0
H543 H 0.8663 0.25406 0.91855 0.0
C544 C 0.77417 0.15491 0.76529 0.0
C545 C 0.80444 0.17852 0.74313 0.0
C546 C 0.77894 0.15667 0.80198 0.0
C547 C 0.81442 0.18132 0.81724 0.0
C548 C 0.84518 0.20333 0.79455 0.0
C549 C 0.84005 0.20243 0.75794 0.0
C550 C 0.79714 0.16135 0.91606 0.0
C551 C 0.82257 0.19673 0.9305 0.0
C552 C 0.79563 0.15576 0.87946 0.0
C553 C 0.81867 0.18586 0.85647 0.0
C554 C 0.84447 0.22116 0.87138 0.0
C555 C 0.84674 0.22634 0.90797 0.0
H556 H 0.62611 0.8924 0.21457 0.0
H557 H 0.66358 0.82604 0.27289 0.0
H558 H 0.63372 0.86633 0.1592 0.0
H559 H 0.67106 0.79978 0.21728 0.0
H560 H 0.60838 0.72095 0.11844 0.0
H561 H 0.62046 0.75484 0.17442 0.0
H562 H 0.68033 0.86135 0.11874 0.0
H563 H 0.66834 0.82755 0.06272 0.0
C564 C 0.63673 0.87284 0.21548 0.0
C565 C 0.644 0.86108 0.24802 0.0
C566 C 0.64129 0.85807 0.18377 0.0
C567 C 0.65279 0.83089 0.18399 0.0
C568 C 0.66193 0.82053 0.21642 0.0
C569 C 0.65788 0.83575 0.24818 0.0
C570 C 0.62471 0.75157 0.11819 0.0
C571 C 0.63705 0.77155 0.08611 0.0
C572 C 0.63187 0.77097 0.15028 0.0
C573 C 0.65118 0.81072 0.15087 0.0
C574 C 0.66516 0.8307 0.11899 0.0
C575 C 0.65838 0.8113 0.08694 0.0
H576 H 0.83477 0.65902 0.59636 0.0
H577 H 0.72991 0.5908 0.54029 0.0
H578 H 0.86941 0.674 0.54028 0.0
H579 H 0.76442 0.60602 0.48442 0.0
H580 H 0.83212 0.65825 0.38645 0.0
H581 H 0.80547 0.66154 0.4433 0.0
H582 H 0.87996 0.63145 0.49715 0.0
H583 H 0.90654 0.6279 0.44037 0.0
C584 C 0.81907 0.64778 0.57205 0.0
C585 C 0.77965 0.62359 0.57268 0.0
C586 C 0.83891 0.65626 0.54002 0.0
C587 C 0.81956 0.64128 0.50805 0.0
C588 C 0.78001 0.61835 0.50862 0.0
C589 C 0.76029 0.60938 0.54062 0.0
C590 C 0.84355 0.65332 0.41045 0.0
C591 C 0.87117 0.64239 0.40893 0.0
C592 C 0.8281 0.65498 0.44295 0.0
C593 C 0.8404 0.64638 0.47452 0.0
C594 C 0.87007 0.63838 0.47322 0.0
C595 C 0.88516 0.6362 0.4407 0.0
H596 H 0.2523 0.86277 0.93526 0.0
H597 H 0.14437 0.76793 0.90483 0.0
H598 H 0.26606 0.88205 0.87367 0.0
H599 H 0.1588 0.78653 0.84273 0.0
H600 H 0.19012 0.84398 0.73374 0.0
H601 H 0.17101 0.83371 0.79614 0.0
H602 H 0.28236 0.85502 0.82513 0.0
H603 H 0.30152 0.86605 0.76369 0.0
C604 C 0.23141 0.84611 0.9154 0.0
C605 C 0.19748 0.81353 0.9248 0.0
C606 C 0.23935 0.85711 0.88008 0.0
C607 C 0.21381 0.83545 0.85327 0.0
C608 C 0.17897 0.80392 0.8628 0.0
C609 C 0.1708 0.79313 0.89832 0.0
C610 C 0.21054 0.84687 0.75359 0.0
C611 C 0.2473 0.85578 0.7438 0.0
C612 C 0.19955 0.84079 0.78923 0.0
C613 C 0.22524 0.84376 0.81558 0.0
C614 C 0.26208 0.85323 0.80564 0.0
C615 C 0.27298 0.85923 0.77026 0.0
H616 H 0.3775 0.2402 0.08964 0.0
H617 H 0.38511 0.14151 0.06224 0.0
H618 H 0.37791 0.22566 0.1527 0.0
H619 H 0.38424 0.12644 0.12447 0.0
H620 H 0.35845 0.17061 0.26482 0.0
H621 H 0.34582 0.18003 0.20324 0.0
H622 H 0.43393 0.15838 0.16825 0.0
H623 H 0.44602 0.14842 0.22892 0.0
C624 C 0.37826 0.21495 0.09709 0.0
C625 C 0.38186 0.1923 0.07117 0.0
C626 C 0.37841 0.20658 0.13309 0.0
C627 C 0.38189 0.17533 0.14346 0.0
C628 C 0.38253 0.15125 0.11731 0.0
C629 C 0.38283 0.1598 0.08163 0.0
C630 C 0.37488 0.16764 0.24386 0.0
C631 C 0.40313 0.1586 0.25172 0.0
C632 C 0.36777 0.17322 0.20871 0.0
C633 C 0.38859 0.16953 0.18093 0.0
C634 C 0.41683 0.16063 0.18898 0.0
C635 C 0.42396 0.15519 0.22386 0.0
H636 H 0.02195 0.61312 0.28067 0.0
H637 H 0.92313 0.5225 0.33058 0.0
H638 H 0.05103 0.57357 0.2784 0.0
H639 H 0.95258 0.48328 0.3302 0.0
H640 H 1.00039 0.40902 0.30215 0.0
H641 H 0.97099 0.448 0.2964 0.0
H642 H 0.07992 0.54828 0.31318 0.0
H643 H 0.10922 0.50888 0.31691 0.0
C644 C 0.00664 0.58474 0.29142 0.0
C645 C 0.97037 0.5708 0.30585 0.0
C646 C 0.02332 0.56207 0.29032 0.0
C647 C 1.00439 0.5251 0.30426 0.0
C648 C 0.96788 0.51122 0.31852 0.0
C649 C 0.95095 0.53369 0.31896 0.0
C650 C 0.01792 0.43945 0.30433 0.0
C651 C 0.05695 0.45604 0.31012 0.0
C652 C 1.00111 0.46186 0.30131 0.0
C653 C 0.02285 0.50145 0.30477 0.0
C654 C 0.0622 0.51802 0.30984 0.0
C655 C 0.07909 0.49555 0.31214 0.0
H656 H 0.60067 0.10067 0.65337 0.0
H657 H 0.59827 0.99498 0.63841 0.0
H658 H 0.53228 0.06881 0.64547 0.0
H659 H 0.53031 0.96302 0.62784 0.0
H660 H 0.40498 0.90935 0.65696 0.0
H661 H 0.47384 0.94007 0.65684 0.0
H662 H 0.48021 0.03991 0.60974 0.0
H663 H 0.41146 0.00959 0.61265 0.0
C664 C 0.58537 0.07068 0.64753 0.0
C665 C 0.60435 0.05011 0.6468 0.0
C666 C 0.54618 0.0523 0.64273 0.0
C667 C 0.52526 0.01301 0.63615 0.0
C668 C 0.54495 0.99295 0.63381 0.0
C669 C 0.58394 0.01122 0.63955 0.0
C670 C 0.42139 0.93766 0.64621 0.0
C671 C 0.40333 0.95731 0.63498 0.0
C672 C 0.46087 0.95537 0.64593 0.0
C673 C 0.48308 0.99288 0.63356 0.0
C674 C 0.46446 0.01156 0.62046 0.0
C675 C 0.42507 0.99415 0.62168 0.0
H676 H 0.40311 0.40618 0.97846 0.0
H677 H 0.50427 0.39921 0.99012 0.0
H678 H 0.44097 0.47463 0.97156 0.0
H679 H 0.5427 0.46797 0.98594 0.0
H680 H 0.60705 0.59098 0.95778 0.0
H681 H 0.56763 0.52244 0.95328 0.0
H682 H 0.4756 0.52904 0.00312 0.0
H683 H 0.5147 0.59779 0.00497 0.0
C684 C 0.43364 0.41962 0.97963 0.0
C685 C 0.45096 0.39778 0.98485 0.0
C686 C 0.45543 0.45888 0.97605 0.0
C687 C 0.49514 0.47739 0.97864 0.0
C688 C 0.51236 0.45508 0.98315 0.0
C689 C 0.49048 0.41565 0.98576 0.0
C690 C 0.57819 0.57751 0.96733 0.0
C691 C 0.56376 0.59935 0.98177 0.0
C692 C 0.5556 0.53819 0.9651 0.0
C693 C 0.51829 0.51966 0.97818 0.0
C694 C 0.50381 0.54195 0.99211 0.0
C695 C 0.52618 0.58139 0.99344 0.0
H696 H 0.62152 0.02371 0.3622 0.0
H697 H 0.52366 0.91967 0.32946 0.0
H698 H 0.58269 0.0533 0.36857 0.0
H699 H 0.48488 0.94938 0.33376 0.0
H700 H 0.41559 0.99981 0.37 0.0
H701 H 0.45574 0.97144 0.37127 0.0
H702 H 0.55096 0.0782 0.33783 0.0
H703 H 0.51073 0.10671 0.33885 0.0
C704 C 0.59167 0.00736 0.356 0.0
C705 C 0.5755 0.96946 0.34533 0.0
C706 C 0.56937 0.0243 0.35947 0.0
C707 C 0.53044 0.00392 0.35167 0.0
C708 C 0.51446 0.9659 0.34085 0.0
C709 C 0.53665 0.94881 0.33811 0.0
C710 C 0.44524 0.01712 0.3633 0.0
C711 C 0.46017 0.0553 0.35422 0.0
C712 C 0.46826 1.00087 0.36368 0.0
C713 C 0.50668 0.02221 0.35411 0.0
C714 C 0.52174 0.06083 0.34582 0.0
C715 C 0.49877 0.07727 0.34625 0.0
H716 H 0.58956 0.60577 0.64161 0.0
H717 H 0.5974 0.51694 0.69658 0.0
H718 H 0.52113 0.56925 0.64566 0.0
H719 H 0.52834 0.48105 0.70178 0.0
H720 H 0.40056 0.44959 0.72537 0.0
H721 H 0.46997 0.48867 0.72892 0.0
H722 H 0.47533 0.50292 0.61543 0.0
H723 H 0.40657 0.46361 0.61193 0.0
C724 C 0.5769 0.57855 0.65464 0.0
C725 C 0.5993 0.56406 0.66806 0.0
C726 C 0.53759 0.55779 0.65719 0.0
C727 C 0.51957 0.52229 0.67376 0.0
C728 C 0.54169 0.50849 0.68899 0.0
C729 C 0.58122 0.5291 0.68601 0.0
C730 C 0.41675 0.46137 0.70134 0.0
C731 C 0.39842 0.45369 0.66837 0.0
C732 C 0.45628 0.48338 0.70333 0.0
C733 C 0.47783 0.49875 0.67244 0.0
C734 C 0.45932 0.49155 0.63964 0.0
C735 C 0.42009 0.46898 0.6376 0.0
H736 H 0.93424 0.40467 0.95336 0.0
H737 H 0.96565 0.40344 0.06195 0.0
H738 H 0.96928 0.47355 0.95328 0.0
H739 H 1.00273 0.47295 0.06185 0.0
H740 H 0.04413 0.6021 0.05185 0.0
H741 H 1.00479 0.53317 0.05827 0.0
H742 H 0.03386 0.51938 0.95135 0.0
H743 H 0.0715 0.58768 0.94491 0.0
C744 C 0.94858 0.41946 0.97732 0.0
C745 C 0.94756 0.39912 0.00756 0.0
C746 C 0.96902 0.45885 0.97726 0.0
C747 C 0.98979 0.47891 0.00726 0.0
C748 C 0.98711 0.45848 0.03828 0.0
C749 C 0.96593 0.4188 0.03845 0.0
C750 C 0.04224 0.58405 0.03003 0.0
C751 C 0.06038 0.59998 -0.00225 0.0
C752 C 0.01975 0.54466 0.03362 0.0
C753 C 0.0154 0.52065 0.00505 0.0
C754 C 0.03536 0.5369 0.97351 0.0
C755 C 0.05723 0.57601 0.96982 0.0
H756 H 0.23421 0.34172 0.3576 0.0
H757 H 0.25338 0.3208 0.24967 0.0
H758 H 0.26642 0.3087 0.37891 0.0
H759 H 0.28603 0.28816 0.27096 0.0
H760 H 0.30677 0.1988 0.32518 0.0
H761 H 0.27205 0.22906 0.30438 0.0
H762 H 0.33306 0.32075 0.37786 0.0
H763 H 0.36856 0.29131 0.39827 0.0
C764 C 0.24501 0.32979 0.33844 0.0
C765 C 0.24128 0.33389 0.30194 0.0
C766 C 0.26376 0.3112 0.35063 0.0
C767 C 0.27883 0.29594 0.3266 0.0
C768 C 0.27449 0.29941 0.29011 0.0
C769 C 0.25611 0.31837 0.27792 0.0
C770 C 0.31324 0.22553 0.33684 0.0
C771 C 0.34082 0.24239 0.36356 0.0
C772 C 0.29314 0.24284 0.32487 0.0
C773 C 0.29977 0.27722 0.33954 0.0
C774 C 0.32696 0.29397 0.36638 0.0
C775 C 0.34734 0.27691 0.37812 0.0
H776 H 0.93605 0.25603 0.58753 0.0
H777 H 0.89152 0.19961 0.68753 0.0
H778 H 0.99993 0.28515 0.61144 0.0
H779 H 0.95538 0.22749 0.71094 0.0
H780 H 0.06974 0.32383 0.75294 0.0
H781 H 1.00546 0.28909 0.72959 0.0
H782 H 0.04853 0.27231 0.63091 0.0
H783 H 0.11256 0.3082 0.6536 0.0
C784 C 0.93986 0.24953 0.61448 0.0
C785 C 0.9085 0.22549 0.63552 0.0
C786 C 0.97656 0.26594 0.62812 0.0
C787 C 0.98285 0.25875 0.66319 0.0
C788 C 0.95157 0.23401 0.68397 0.0
C789 C 0.91488 0.21757 0.67032 0.0
C790 C 0.06544 0.31262 0.72633 0.0
C791 C 0.09643 0.31884 0.70529 0.0
C792 C 0.02856 0.2924 0.71301 0.0
C793 C 0.02178 0.27798 0.67828 0.0
C794 C 0.0527 0.28338 0.6576 0.0
C795 C 0.0895 0.30355 0.67089 0.0
H796 H 0.75664 0.06925 0.09301 0.0
H797 H 0.80044 0.10937 0.98792 0.0
H798 H 0.7242 0.00445 0.07119 0.0
H799 H 0.76976 0.04474 0.96669 0.0
H800 H 0.6724 0.93052 0.93115 0.0
H801 H 0.70739 0.99489 0.95354 0.0
H802 H 0.73284 0.95416 0.0494 0.0
H803 H 0.69627 0.88965 0.02782 0.0
C804 C 0.7597 0.06435 0.06538 0.0
C805 C 0.78119 0.0948 0.04234 0.0
C806 C 0.74138 0.02707 0.05291 0.0
C807 C 0.74416 0.01929 0.01709 0.0
C808 C 0.76647 0.04965 0.9943 0.0
C809 C 0.78463 0.08686 0.0067 0.0
C810 C 0.68519 0.93517 0.9571 0.0
C811 C 0.6813 0.90464 0.97759 0.0
C812 C 0.70572 0.97224 0.9698 0.0
C813 C 0.72307 0.97983 0.0033 0.0
C814 C 0.71954 0.94938 0.02366 0.0
C815 C 0.6989 0.91229 0.01101 0.0
H816 H 0.81154 0.7214 0.28795 0.0
H817 H 0.71564 0.61708 0.32298 0.0
H818 H 0.78034 0.75622 0.30693 0.0
H819 H 0.68528 0.65144 0.34465 0.0
H820 H 0.62164 0.71461 0.35024 0.0
H821 H 0.65341 0.68144 0.3291 0.0
H822 H 0.76174 0.78028 0.35227 0.0
H823 H 0.7292 0.81396 0.37074 0.0
C824 C 0.78388 0.70613 0.30019 0.0
C825 C 0.76568 0.6667 0.30373 0.0
C826 C 0.76601 0.72599 0.3114 0.0
C827 C 0.72992 0.70687 0.32733 0.0
C828 C 0.7124 0.66731 0.3316 0.0
C829 C 0.72984 0.64747 0.31947 0.0
C830 C 0.65224 0.72901 0.35075 0.0
C831 C 0.67309 0.76661 0.36223 0.0
C832 C 0.67063 0.70999 0.3389 0.0
C833 C 0.71043 0.72778 0.33918 0.0
C834 C 0.73118 0.76561 0.35094 0.0
C835 C 0.71267 0.78493 0.36186 0.0
H836 H 0.10977 0.76652 0.68886 0.0
H837 H 0.07328 0.77649 0.58443 0.0
H838 H 0.04437 0.73494 0.70957 0.0
H839 H 0.00822 0.74745 0.60512 0.0
H840 H 0.89109 0.6599 0.63978 0.0
H841 H 0.95667 0.69131 0.62058 0.0
H842 H 0.99207 0.73888 0.72543 0.0
H843 H 0.92613 0.70499 0.74481 0.0
C844 C 0.08763 0.76244 0.67055 0.0
C845 C 0.09634 0.77358 0.63505 0.0
C846 C 0.0501 0.74454 0.68237 0.0
C847 C 0.02049 0.73819 0.65909 0.0
C848 C 0.02975 0.75062 0.62374 0.0
C849 C 0.0671 0.7676 0.61181 0.0
C850 C 0.91303 0.67718 0.65858 0.0
C851 C 0.90369 0.6802 0.6937 0.0
C852 C 0.95074 0.6955 0.64759 0.0
C853 C 0.98016 0.71818 0.67123 0.0
C854 C 0.97055 0.72127 0.70647 0.0
C855 C 0.93276 0.7021 0.71765 0.0
H856 H 0.28415 0.06842 0.91426 0.0
H857 H 0.33586 0.10743 0.01646 0.0
H858 H 0.24778 0.00395 0.93737 0.0
H859 H 0.30205 0.04328 0.03927 0.0
H860 H 0.21797 0.92864 0.08175 0.0
H861 H 0.24672 0.99317 0.05871 0.0
H862 H 0.2508 0.9518 0.9542 0.0
H863 H 0.21979 0.88771 0.97714 0.0
C864 C 0.2879 0.06299 0.9416 0.0
C865 C 0.31258 0.09279 0.96364 0.0
C866 C 0.26731 0.02603 0.95494 0.0
C867 C 0.27175 0.01791 0.99041 0.0
C868 C 0.29682 0.04807 0.01219 0.0
C869 C 0.31656 0.08498 -0.00092 0.0
C870 C 0.22479 0.93363 0.05385 0.0
C871 C 0.21651 0.90329 0.03121 0.0
C872 C 0.24158 0.97062 0.04053 0.0
C873 C 0.25148 0.97821 0.00439 0.0
C874 C 0.24298 0.94748 0.98191 0.0
C875 C 0.22537 0.91057 0.99508 0.0
H876 H 0.43312 0.76036 0.31926 0.0
H877 H 0.48703 0.69475 0.34092 0.0
H878 H 0.37298 0.70197 0.30911 0.0
H879 H 0.42717 0.6366 0.33277 0.0
H880 H 0.32704 0.53827 0.28413 0.0
H881 H 0.38529 0.59894 0.28928 0.0
H882 H 0.32229 0.6478 0.33506 0.0
H883 H 0.26372 0.58718 0.32774 0.0
C884 C 0.43187 0.73336 0.32221 0.0
C885 C 0.46463 0.73192 0.33045 0.0
C886 C 0.39746 0.69988 0.31656 0.0
C887 C 0.39509 0.66433 0.31962 0.0
C888 C 0.42791 0.66325 0.329 0.0
C889 C 0.46225 0.69659 0.334 0.0
C890 C 0.3258 0.56225 0.29481 0.0
C891 C 0.29119 0.55833 0.30556 0.0
C892 C 0.35916 0.59694 0.2982 0.0
C893 C 0.35883 0.62836 0.31323 0.0
C894 C 0.32378 0.62449 0.3231 0.0
C895 C 0.29022 0.58981 0.31907 0.0
H896 H 0.67277 0.42562 0.66664 0.0
H897 H 0.793 0.47776 0.68449 0.0
H898 H 0.66816 0.36352 0.66301 0.0
H899 H 0.78853 0.41607 0.68035 0.0
H900 H 0.76199 0.29676 0.70622 0.0
H901 H 0.7616 0.35587 0.71367 0.0
H902 H 0.68955 0.32953 0.62201 0.0
H903 H 0.68927 0.26983 0.61493 0.0
C904 C 0.69813 0.42377 0.66996 0.0
C905 C 0.73326 0.45659 0.67569 0.0
C906 C 0.69555 0.3883 0.6676 0.0
C907 C 0.72798 0.38489 0.67139 0.0
C908 C 0.76296 0.41767 0.67764 0.0
C909 C 0.76559 0.45308 0.67966 0.0
C910 C 0.74556 0.30325 0.68796 0.0
C911 C 0.72571 0.27858 0.65993 0.0
C912 C 0.74566 0.33732 0.69203 0.0
C913 C 0.72574 0.3475 0.6683 0.0
C914 C 0.705 0.32238 0.64084 0.0
C915 C 0.70513 0.28837 0.6366 0.0
H916 H 0.42708 0.67093 0.99174 0.0
H917 H 0.48445 0.79219 0.00496 0.0
H918 H 0.36619 0.66788 -0.00018 0.0
H919 H 0.42398 0.78932 0.01256 0.0
H920 H 0.31424 0.77077 0.05809 0.0
H921 H 0.37287 0.76925 0.05347 0.0
H922 H 0.32339 0.68424 0.97173 0.0
H923 H 0.26404 0.68431 0.97765 0.0
C924 C 0.42667 0.69693 0.99615 0.0
C925 C 0.46065 0.73174 -0.00195 0.0
C926 C 0.39179 0.69523 0.00075 0.0
C927 C 0.39009 0.72833 0.00716 0.0
C928 C 0.42413 0.76313 0.00857 0.0
C929 C 0.45889 0.7648 0.00413 0.0
C930 C 0.31555 0.7512 0.03959 0.0
C931 C 0.28432 0.72781 0.01813 0.0
C932 C 0.34943 0.75072 0.03657 0.0
C933 C 0.35313 0.72694 0.01192 0.0
C934 C 0.32159 0.70278 0.99113 0.0
C935 C 0.28763 0.70318 0.99423 0.0
H936 H 0.57573 0.27314 0.30462 0.0
H937 H 0.5689 0.29931 0.41409 0.0
H938 H 0.63767 0.33063 0.29947 0.0
H939 H 0.63064 0.35722 0.40879 0.0
H940 H 0.7041 0.47897 0.35841 0.0
H941 H 0.64899 0.41754 0.36964 0.0
H942 H 0.70695 0.36263 0.3266 0.0
H943 H 0.76352 0.42431 0.31704 0.0
C944 C 0.5878 0.29099 0.32767 0.0
C945 C 0.56764 0.28193 0.35974 0.0
C946 C 0.62323 0.3237 0.32478 0.0
C947 C 0.6388 0.34833 0.3537 0.0
C948 C 0.61915 0.3387 0.38608 0.0
C949 C 0.58402 0.30556 0.38917 0.0
C950 C 0.70587 0.45403 0.3522 0.0
C951 C 0.7388 0.45699 0.33706 0.0
C952 C 0.67402 0.41874 0.35851 0.0
C953 C 0.67382 0.38541 0.34919 0.0
C954 C 0.70642 0.388 0.33397 0.0
C955 C 0.73869 0.42339 0.32827 0.0
H956 H 0.28089 0.71754 0.58606 0.0
H957 H 0.28034 0.72924 0.69968 0.0
H958 H 0.28714 0.66149 0.59357 0.0
H959 H 0.28478 0.67246 0.7072 0.0
H960 H 0.31965 0.58352 0.71137 0.0
H961 H 0.32391 0.64458 0.701 0.0
H962 H 0.24745 0.59708 0.61237 0.0
H963 H 0.24357 0.53639 0.62251 0.0
C964 C 0.28249 0.70842 0.61262 0.0
C965 C 0.27977 0.72773 0.64225 0.0
C966 C 0.28561 0.676 0.61695 0.0
C967 C 0.28613 0.66218 0.65101 0.0
C968 C 0.2848 0.68235 0.68058 0.0
C969 C 0.28175 0.71471 0.67625 0.0
C970 C 0.30377 0.58616 0.68968 0.0
C971 C 0.28122 0.55503 0.66783 0.0
C972 C 0.30621 0.62117 0.68371 0.0
C973 C 0.28599 0.62584 0.65584 0.0
C974 C 0.26397 0.59482 0.63366 0.0
C975 C 0.26166 0.55991 0.63954 0.0
H976 H 0.53368 0.21681 0.96164 0.0
H977 H 0.57761 0.32542 0.01254 0.0
H978 H 0.59367 0.21908 0.97102 0.0
H979 H 0.63833 0.32837 0.02116 0.0
H980 H 0.72827 0.30194 0.06307 0.0
H981 H 0.66896 0.30143 0.05404 0.0
H982 H 0.65685 0.24952 0.95159 0.0
H983 H 0.71444 0.24758 0.9616 0.0
C984 C 0.55643 0.24148 0.97438 0.0
C985 C 0.55097 0.271 0.98619 0.0
C986 C 0.59093 0.24286 0.97971 0.0
C987 C 0.6211 0.27404 0.99669 0.0
C988 C 0.61564 0.30368 0.00843 0.0
C989 C 0.5809 0.3021 0.00338 0.0
C990 C 0.71277 0.29004 0.03878 0.0
C991 C 0.7263 0.2747 0.01316 0.0
C992 C 0.67895 0.29023 0.03337 0.0
C993 C 0.65789 0.27529 0.00212 0.0
C994 C 0.67186 0.26069 0.97625 0.0
C995 C 0.70538 0.26016 0.98178 0.0
loop_
_geom_bond_atom_site_label_1
_geom_bond_atom_site_label_2
_geom_bond_distance
_geom_bond_site_symmetry_2
_ccdc_geom_bond_type
Co0 N4 2.148 . S
Co0 N10 2.128 . S
Co0 N20 2.194 . S
Co0 O25 2.351 . S
Co0 O26 2.155 . S
Co0 O27 2.096 . S
C1 N4 1.301 . S
C1 N5 1.328 . S
C1 H6 0.930 . S
C2 C3 1.333 . S
C2 N4 1.317 . S
C2 H7 0.930 . S
C3 C2 1.333 . S
C3 N5 1.350 . S
C3 H29 0.931 . S
N4 Co0 2.148 . S
N4 C1 1.301 . S
N4 C2 1.317 . S
N5 C1 1.328 . S
N5 C3 1.350 . S
H6 C1 0.930 . S
H7 C2 0.930 . S
C8 O9 1.224 . S
C8 O27 1.247 . S
O9 C8 1.224 . S
N10 Co0 2.128 . S
N10 C11 1.355 . S
N10 C13 1.311 . S
C11 N10 1.355 . S
C11 C12 1.363 . S
C11 H23 0.929 . S
C12 C11 1.363 . S
C12 N14 1.375 . S
C12 H30 0.931 . S
C13 N10 1.311 . S
C13 N14 1.347 . S
C13 H24 0.929 . S
N14 C12 1.375 . S
N14 C13 1.347 . S
C15 C18 1.365 . S
C15 N20 1.328 . S
C15 H21 0.929 . S
C16 C17 1.362 . S
C16 C19 1.378 . S
C16 H31 0.929 . S
C17 C16 1.362 . S
C17 C18 1.366 . S
C18 C15 1.365 . S
C18 C17 1.366 . S
C18 H32 0.930 . S
C19 C16 1.378 . S
C19 N20 1.315 . S
C19 H22 0.930 . S
N20 Co0 2.194 . S
N20 C15 1.328 . S
N20 C19 1.315 . S
H21 C15 0.929 . S
H22 C19 0.930 . S
H23 C11 0.929 . S
H24 C13 0.929 . S
O25 Co0 2.351 . S
O25 C28 1.244 . S
O26 Co0 2.155 . S
O26 C28 1.240 . S
O27 Co0 2.096 . S
O27 C8 1.247 . S
C28 O25 1.244 . S
C28 O26 1.240 . S
H29 C3 0.931 . S
H30 C12 0.931 . S
H31 C16 0.929 . S
H32 C18 0.930 . S
Co33 N37 2.148 . S
Co33 N43 2.128 . S
Co33 N53 2.194 . S
Co33 O58 2.351 . S
Co33 O59 2.155 . S
Co33 O60 2.096 . S
C34 N37 1.301 . S
C34 N38 1.328 . S
C34 H39 0.930 . S
C35 C36 1.333 . S
C35 N37 1.317 . S
C35 H40 0.930 . S
C36 C35 1.333 . S
C36 N38 1.350 . S
C36 H62 0.931 . S
N37 Co33 2.148 . S
N37 C34 1.301 . S
N37 C35 1.317 . S
N38 C34 1.328 . S
N38 C36 1.350 . S
H39 C34 0.930 . S
H40 C35 0.930 . S
C41 O42 1.224 . S
C41 O60 1.247 . S
O42 C41 1.224 . S
N43 Co33 2.128 . S
N43 C44 1.355 . S
N43 C46 1.311 . S
C44 N43 1.355 . S
C44 C45 1.363 . S
C44 H56 0.929 . S
C45 C44 1.363 . S
C45 N47 1.375 . S
C45 H63 0.931 . S
C46 N43 1.311 . S
C46 N47 1.347 . S
C46 H57 0.929 . S
N47 C45 1.375 . S
N47 C46 1.347 . S
C48 C51 1.365 . S
C48 N53 1.328 . S
C48 H54 0.929 . S
C49 C50 1.362 . S
C49 C52 1.378 . S
C49 H64 0.929 . S
C50 C49 1.362 . S
C50 C51 1.366 . S
C51 C48 1.365 . S
C51 C50 1.366 . S
C51 H65 0.930 . S
C52 C49 1.378 . S
C52 N53 1.315 . S
C52 H55 0.930 . S
N53 Co33 2.194 . S
N53 C48 1.328 . S
N53 C52 1.315 . S
H54 C48 0.929 . S
H55 C52 0.930 . S
H56 C44 0.929 . S
H57 C46 0.929 . S
O58 Co33 2.351 . S
O58 C61 1.244 . S
O59 Co33 2.155 . S
O59 C61 1.240 . S
O60 Co33 2.096 . S
O60 C41 1.247 . S
C61 O58 1.244 . S
C61 O59 1.240 . S
H62 C36 0.931 . S
H63 C45 0.931 . S
H64 C49 0.929 . S
H65 C51 0.930 . S
Co66 N70 2.148 . S
Co66 N76 2.128 1_554 S
Co66 N86 2.194 1_554 S
Co66 O91 2.351 1_554 S
Co66 O92 2.155 1_554 S
Co66 O93 2.096 . S
C67 N70 1.301 1_556 S
C67 N71 1.328 1_556 S
C67 H72 0.930 . S
C68 C69 1.333 . S
C68 N70 1.317 . S
C68 H73 0.930 . S
C69 C68 1.333 . S
C69 N71 1.350 . S
C69 H95 0.931 . S
N70 Co66 2.148 . S
N70 C67 1.301 1_554 S
N70 C68 1.317 . S
N71 C67 1.328 1_554 S
N71 C69 1.350 . S
H72 C67 0.930 . S
H73 C68 0.930 . S
C74 O75 1.224 . S
C74 O93 1.247 . S
O75 C74 1.224 . S
N76 Co66 2.128 1_556 S
N76 C77 1.355 . S
N76 C79 1.311 1_556 S
C77 N76 1.355 . S
C77 C78 1.363 . S
C77 H89 0.929 . S
C78 C77 1.363 . S
C78 N80 1.375 . S
C78 H96 0.931 . S
C79 N76 1.311 1_554 S
C79 N80 1.347 1_554 S
C79 H90 0.929 . S
N80 C78 1.375 . S
N80 C79 1.347 1_556 S
C81 C84 1.365 . S
C81 N86 1.328 . S
C81 H87 0.929 . S
C82 C83 1.362 1_554 S
C82 C85 1.378 . S
C82 H97 0.929 . S
C83 C82 1.362 1_556 S
C83 C84 1.366 . S
C84 C81 1.365 . S
C84 C83 1.366 . S
C84 H98 0.930 . S
C85 C82 1.378 . S
C85 N86 1.315 1_554 S
C85 H88 0.930 . S
N86 Co66 2.194 1_556 S
N86 C81 1.328 . S
N86 C85 1.315 1_556 S
H87 C81 0.929 . S
H88 C85 0.930 . S
H89 C77 0.929 . S
H90 C79 0.929 . S
O91 Co66 2.351 1_556 S
O91 C94 1.244 . S
O92 Co66 2.155 1_556 S
O92 C94 1.240 . S
O93 Co66 2.096 . S
O93 C74 1.247 . S
C94 O91 1.244 . S
C94 O92 1.240 . S
H95 C69 0.931 . S
H96 C78 0.931 . S
H97 C82 0.929 . S
H98 C84 0.930 . S
Co99 N103 2.148 . S
Co99 N109 2.128 . S
Co99 N119 2.194 . S
Co99 O124 2.351 . S
Co99 O125 2.155 . S
Co99 O126 2.096 . S
C100 N103 1.301 . S
C100 N104 1.328 . S
C100 H105 0.930 . S
C101 C102 1.333 . S
C101 N103 1.317 . S
C101 H106 0.930 . S
C102 C101 1.333 . S
C102 N104 1.350 . S
C102 H128 0.931 . S
N103 Co99 2.148 . S
N103 C100 1.301 . S
N103 C101 1.317 . S
N104 C100 1.328 . S
N104 C102 1.350 . S
H105 C100 0.930 . S
H106 C101 0.930 . S
C107 O108 1.224 . S
C107 O126 1.247 . S
O108 C107 1.224 . S
N109 Co99 2.128 . S
N109 C110 1.355 . S
N109 C112 1.311 . S
C110 N109 1.355 . S
C110 C111 1.363 . S
C110 H122 0.929 . S
C111 C110 1.363 . S
C111 N113 1.375 . S
C111 H129 0.931 . S
C112 N109 1.311 . S
C112 N113 1.347 . S
C112 H123 0.929 . S
N113 C111 1.375 . S
N113 C112 1.347 . S
C114 C117 1.365 . S
C114 N119 1.328 . S
C114 H120 0.929 . S
C115 C116 1.362 . S
C115 C118 1.378 . S
C115 H130 0.929 . S
C116 C115 1.362 . S
C116 C117 1.366 . S
C117 C114 1.365 . S
C117 C116 1.366 . S
C117 H131 0.930 . S
C118 C115 1.378 . S
C118 N119 1.315 . S
C118 H121 0.930 . S
N119 Co99 2.194 . S
N119 C114 1.328 . S
N119 C118 1.315 . S
H120 C114 0.929 . S
H121 C118 0.930 . S
H122 C110 0.929 . S
H123 C112 0.929 . S
O124 Co99 2.351 . S
O124 C127 1.244 . S
O125 Co99 2.155 . S
O125 C127 1.240 . S
O126 Co99 2.096 . S
O126 C107 1.247 . S
C127 O124 1.244 . S
C127 O125 1.240 . S
H128 C102 0.931 . S
H129 C111 0.931 . S
H130 C115 0.929 . S
H131 C117 0.930 . S
Co132 N136 2.148 . S
Co132 N142 2.128 . S
Co132 N152 2.194 . S
Co132 O157 2.351 . S
Co132 O158 2.155 . S
Co132 O159 2.096 . S
C133 N136 1.301 . S
C133 N137 1.328 . S
C133 H138 0.930 . S
C134 C135 1.333 . S
C134 N136 1.317 . S
C134 H139 0.930 . S
C135 C134 1.333 . S
C135 N137 1.350 . S
C135 H161 0.931 . S
N136 Co132 2.148 . S
N136 C133 1.301 . S
N136 C134 1.317 . S
N137 C133 1.328 . S
N137 C135 1.350 . S
H138 C133 0.930 . S
H139 C134 0.930 . S
C140 O141 1.224 . S
C140 O159 1.247 . S
O141 C140 1.224 . S
N142 Co132 2.128 . S
N142 C143 1.355 . S
N142 C145 1.311 . S
C143 N142 1.355 . S
C143 C144 1.363 . S
C143 H155 0.929 . S
C144 C143 1.363 . S
C144 N146 1.375 . S
C144 H162 0.931 . S
C145 N142 1.311 . S
C145 N146 1.347 . S
C145 H156 0.929 . S
N146 C144 1.375 . S
N146 C145 1.347 . S
C147 C150 1.365 . S
C147 N152 1.328 . S
C147 H153 0.929 . S
C148 C149 1.362 . S
C148 C151 1.378 . S
C148 H163 0.929 . S
C149 C148 1.362 . S
C149 C150 1.366 . S
C150 C147 1.365 . S
C150 C149 1.366 . S
C150 H164 0.930 . S
C151 C148 1.378 . S
C151 N152 1.315 . S
C151 H154 0.930 . S
N152 Co132 2.194 . S
N152 C147 1.328 . S
N152 C151 1.315 . S
H153 C147 0.929 . S
H154 C151 0.930 . S
H155 C143 0.929 . S
H156 C145 0.929 . S
O157 Co132 2.351 . S
O157 C160 1.244 . S
O158 Co132 2.155 . S
O158 C160 1.240 . S
O159 Co132 2.096 . S
O159 C140 1.247 . S
C160 O157 1.244 . S
C160 O158 1.240 . S
H161 C135 0.931 . S
H162 C144 0.931 . S
H163 C148 0.929 . S
H164 C150 0.930 . S
Co165 N169 2.148 . S
Co165 N175 2.128 1_554 S
Co165 N185 2.194 1_554 S
Co165 O190 2.351 1_554 S
Co165 O191 2.155 1_554 S
Co165 O192 2.096 . S
C166 N169 1.301 1_556 S
C166 N170 1.328 1_556 S
C166 H171 0.930 . S
C167 C168 1.333 . S
C167 N169 1.317 . S
C167 H172 0.930 . S
C168 C167 1.333 . S
C168 N170 1.350 . S
C168 H194 0.931 . S
N169 Co165 2.148 . S
N169 C166 1.301 1_554 S
N169 C167 1.317 . S
N170 C166 1.328 1_554 S
N170 C168 1.350 . S
H171 C166 0.930 . S
H172 C167 0.930 . S
C173 O174 1.224 . S
C173 O192 1.247 . S
O174 C173 1.224 . S
N175 Co165 2.128 1_556 S
N175 C176 1.355 . S
N175 C178 1.311 1_556 S
C176 N175 1.355 . S
C176 C177 1.363 . S
C176 H188 0.929 . S
C177 C176 1.363 . S
C177 N179 1.375 . S
C177 H195 0.931 . S
C178 N175 1.311 1_554 S
C178 N179 1.347 1_554 S
C178 H189 0.929 . S
N179 C177 1.375 . S
N179 C178 1.347 1_556 S
C180 C183 1.365 . S
C180 N185 1.328 . S
C180 H186 0.929 . S
C181 C182 1.362 1_554 S
C181 C184 1.378 . S
C181 H196 0.929 . S
C182 C181 1.362 1_556 S
C182 C183 1.366 . S
C183 C180 1.365 . S
C183 C182 1.366 . S
C183 H197 0.930 . S
C184 C181 1.378 . S
C184 N185 1.315 1_554 S
C184 H187 0.930 . S
N185 Co165 2.194 1_556 S
N185 C180 1.328 . S
N185 C184 1.315 1_556 S
H186 C180 0.929 . S
H187 C184 0.930 . S
H188 C176 0.929 . S
H189 C178 0.929 . S
O190 Co165 2.351 1_556 S
O190 C193 1.244 . S
O191 Co165 2.155 1_556 S
O191 C193 1.240 . S
O192 Co165 2.096 . S
O192 C173 1.247 . S
C193 O190 1.244 . S
C193 O191 1.240 . S
H194 C168 0.931 . S
H195 C177 0.931 . S
H196 C181 0.929 . S
H197 C183 0.930 . S
Co198 N202 2.148 . S
Co198 N208 2.128 . S
Co198 N218 2.194 . S
Co198 O223 2.351 . S
Co198 O224 2.155 . S
Co198 O225 2.096 . S
C199 N202 1.301 . S
C199 N203 1.328 . S
C199 H204 0.930 . S
C200 C201 1.333 . S
C200 N202 1.317 . S
C200 H205 0.930 . S
C201 C200 1.333 . S
C201 N203 1.350 . S
C201 H227 0.931 . S
N202 Co198 2.148 . S
N202 C199 1.301 . S
N202 C200 1.317 . S
N203 C199 1.328 . S
N203 C201 1.350 . S
H204 C199 0.930 . S
H205 C200 0.930 . S
C206 O207 1.224 . S
C206 O225 1.247 . S
O207 C206 1.224 . S
N208 Co198 2.128 . S
N208 C209 1.355 . S
N208 C211 1.311 . S
C209 N208 1.355 . S
C209 C210 1.363 . S
C209 H221 0.929 . S
C210 C209 1.363 . S
C210 N212 1.375 . S
C210 H228 0.931 . S
C211 N208 1.311 . S
C211 N212 1.347 . S
C211 H222 0.929 . S
N212 C210 1.375 . S
N212 C211 1.347 . S
C213 C216 1.365 . S
C213 N218 1.328 . S
C213 H219 0.929 . S
C214 C215 1.362 . S
C214 C217 1.378 . S
C214 H229 0.929 . S
C215 C214 1.362 . S
C215 C216 1.366 . S
C216 C213 1.365 . S
C216 C215 1.366 . S
C216 H230 0.930 . S
C217 C214 1.378 . S
C217 N218 1.315 . S
C217 H220 0.930 . S
N218 Co198 2.194 . S
N218 C213 1.328 . S
N218 C217 1.315 . S
H219 C213 0.929 . S
H220 C217 0.930 . S
H221 C209 0.929 . S
H222 C211 0.929 . S
O223 Co198 2.351 . S
O223 C226 1.244 . S
O224 Co198 2.155 . S
O224 C226 1.240 . S
O225 Co198 2.096 . S
O225 C206 1.247 . S
C226 O223 1.244 . S
C226 O224 1.240 . S
H227 C201 0.931 . S
H228 C210 0.931 . S
H229 C214 0.929 . S
H230 C216 0.930 . S
Co231 N235 2.148 . S
Co231 N241 2.128 . S
Co231 N251 2.194 . S
Co231 O256 2.351 . S
Co231 O257 2.155 . S
Co231 O258 2.096 . S
C232 N235 1.301 . S
C232 N236 1.328 . S
C232 H237 0.930 . S
C233 C234 1.333 . S
C233 N235 1.317 . S
C233 H238 0.930 . S
C234 C233 1.333 . S
C234 N236 1.350 . S
C234 H260 0.931 . S
N235 Co231 2.148 . S
N235 C232 1.301 . S
N235 C233 1.317 . S
N236 C232 1.328 . S
N236 C234 1.350 . S
H237 C232 0.930 . S
H238 C233 0.930 . S
C239 O240 1.224 . S
C239 O258 1.247 . S
O240 C239 1.224 . S
N241 Co231 2.128 . S
N241 C242 1.355 . S
N241 C244 1.311 . S
C242 N241 1.355 . S
C242 C243 1.363 . S
C242 H254 0.929 . S
C243 C242 1.363 . S
C243 N245 1.375 . S
C243 H261 0.931 . S
C244 N241 1.311 . S
C244 N245 1.347 . S
C244 H255 0.929 . S
N245 C243 1.375 . S
N245 C244 1.347 . S
C246 C249 1.365 . S
C246 N251 1.328 . S
C246 H252 0.929 . S
C247 C248 1.362 . S
C247 C250 1.378 . S
C247 H262 0.929 . S
C248 C247 1.362 . S
C248 C249 1.366 . S
C249 C246 1.365 . S
C249 C248 1.366 . S
C249 H263 0.930 . S
C250 C247 1.378 . S
C250 N251 1.315 . S
C250 H253 0.930 . S
N251 Co231 2.194 . S
N251 C246 1.328 . S
N251 C250 1.315 . S
H252 C246 0.929 . S
H253 C250 0.930 . S
H254 C242 0.929 . S
H255 C244 0.929 . S
O256 Co231 2.351 . S
O256 C259 1.244 . S
O257 Co231 2.155 . S
O257 C259 1.240 . S
O258 Co231 2.096 . S
O258 C239 1.247 . S
C259 O256 1.244 . S
C259 O257 1.240 . S
H260 C234 0.931 . S
H261 C243 0.931 . S
H262 C247 0.929 . S
H263 C249 0.930 . S
Co264 N268 2.148 . S
Co264 N274 2.128 1_556 S
Co264 N284 2.194 1_556 S
Co264 O289 2.351 1_556 S
Co264 O290 2.155 1_556 S
Co264 O291 2.096 . S
C265 N268 1.301 1_554 S
C265 N269 1.328 1_554 S
C265 H270 0.930 . S
C266 C267 1.333 . S
C266 N268 1.317 . S
C266 H271 0.930 . S
C267 C266 1.333 . S
C267 N269 1.350 . S
C267 H293 0.931 . S
N268 Co264 2.148 . S
N268 C265 1.301 1_556 S
N268 C266 1.317 . S
N269 C265 1.328 1_556 S
N269 C267 1.350 . S
H270 C265 0.930 . S
H271 C266 0.930 . S
C272 O273 1.224 . S
C272 O291 1.247 . S
O273 C272 1.224 . S
N274 Co264 2.128 1_554 S
N274 C275 1.355 . S
N274 C277 1.311 1_554 S
C275 N274 1.355 . S
C275 C276 1.363 . S
C275 H287 0.929 . S
C276 C275 1.363 . S
C276 N278 1.375 . S
C276 H294 0.931 . S
C277 N274 1.311 1_556 S
C277 N278 1.347 1_556 S
C277 H288 0.929 . S
N278 C276 1.375 . S
N278 C277 1.347 1_554 S
C279 C282 1.365 . S
C279 N284 1.328 . S
C279 H285 0.929 . S
C280 C281 1.362 1_556 S
C280 C283 1.378 . S
C280 H295 0.929 . S
C281 C280 1.362 1_554 S
C281 C282 1.366 . S
C282 C279 1.365 . S
C282 C281 1.366 . S
C282 H296 0.930 . S
C283 C280 1.378 . S
C283 N284 1.315 1_556 S
C283 H286 0.930 . S
N284 Co264 2.194 1_554 S
N284 C279 1.328 . S
N284 C283 1.315 1_554 S
H285 C279 0.929 . S
H286 C283 0.930 . S
H287 C275 0.929 . S
H288 C277 0.929 . S
O289 Co264 2.351 1_554 S
O289 C292 1.244 . S
O290 Co264 2.155 1_554 S
O290 C292 1.240 . S
O291 Co264 2.096 . S
O291 C272 1.247 . S
C292 O289 1.244 . S
C292 O290 1.240 . S
H293 C267 0.931 . S
H294 C276 0.931 . S
H295 C280 0.929 . S
H296 C282 0.930 . S
Co297 N301 2.148 . S
Co297 N307 2.128 . S
Co297 N317 2.194 . S
Co297 O322 2.351 . S
Co297 O323 2.155 . S
Co297 O324 2.096 . S
C298 N301 1.301 . S
C298 N302 1.328 . S
C298 H303 0.930 . S
C299 C300 1.333 . S
C299 N301 1.317 . S
C299 H304 0.930 . S
C300 C299 1.333 . S
C300 N302 1.350 . S
C300 H326 0.931 . S
N301 Co297 2.148 . S
N301 C298 1.301 . S
N301 C299 1.317 . S
N302 C298 1.328 . S
N302 C300 1.350 . S
H303 C298 0.930 . S
H304 C299 0.930 . S
C305 O306 1.224 . S
C305 O324 1.247 . S
O306 C305 1.224 . S
N307 Co297 2.128 . S
N307 C308 1.355 . S
N307 C310 1.311 . S
C308 N307 1.355 . S
C308 C309 1.363 . S
C308 H320 0.929 . S
C309 C308 1.363 . S
C309 N311 1.375 . S
C309 H327 0.931 . S
C310 N307 1.311 . S
C310 N311 1.347 . S
C310 H321 0.929 . S
N311 C309 1.375 . S
N311 C310 1.347 . S
C312 C315 1.365 . S
C312 N317 1.328 . S
C312 H318 0.929 . S
C313 C314 1.362 . S
C313 C316 1.378 . S
C313 H328 0.929 . S
C314 C313 1.362 . S
C314 C315 1.366 . S
C315 C312 1.365 . S
C315 C314 1.366 . S
C315 H329 0.930 . S
C316 C313 1.378 . S
C316 N317 1.315 . S
C316 H319 0.930 . S
N317 Co297 2.194 . S
N317 C312 1.328 . S
N317 C316 1.315 . S
H318 C312 0.929 . S
H319 C316 0.930 . S
H320 C308 0.929 . S
H321 C310 0.929 . S
O322 Co297 2.351 . S
O322 C325 1.244 . S
O323 Co297 2.155 . S
O323 C325 1.240 . S
O324 Co297 2.096 . S
O324 C305 1.247 . S
C325 O322 1.244 . S
C325 O323 1.240 . S
H326 C300 0.931 . S
H327 C309 0.931 . S
H328 C313 0.929 . S
H329 C315 0.930 . S
Co330 N334 2.148 . S
Co330 N340 2.128 . S
Co330 N350 2.194 . S
Co330 O355 2.351 . S
Co330 O356 2.155 . S
Co330 O357 2.096 . S
C331 N334 1.301 . S
C331 N335 1.328 . S
C331 H336 0.930 . S
C332 C333 1.333 . S
C332 N334 1.317 . S
C332 H337 0.930 . S
C333 C332 1.333 . S
C333 N335 1.350 . S
C333 H359 0.931 . S
N334 Co330 2.148 . S
N334 C331 1.301 . S
N334 C332 1.317 . S
N335 C331 1.328 . S
N335 C333 1.350 . S
H336 C331 0.930 . S
H337 C332 0.930 . S
C338 O339 1.224 . S
C338 O357 1.247 . S
O339 C338 1.224 . S
N340 Co330 2.128 . S
N340 C341 1.355 . S
N340 C343 1.311 . S
C341 N340 1.355 . S
C341 C342 1.363 . S
C341 H353 0.929 . S
C342 C341 1.363 . S
C342 N344 1.375 . S
C342 H360 0.931 . S
C343 N340 1.311 . S
C343 N344 1.347 . S
C343 H354 0.929 . S
N344 C342 1.375 . S
N344 C343 1.347 . S
C345 C348 1.365 . S
C345 N350 1.328 . S
C345 H351 0.929 . S
C346 C347 1.362 . S
C346 C349 1.378 . S
C346 H361 0.929 . S
C347 C346 1.362 . S
C347 C348 1.366 . S
C348 C345 1.365 . S
C348 C347 1.366 . S
C348 H362 0.930 . S
C349 C346 1.378 . S
C349 N350 1.315 . S
C349 H352 0.930 . S
N350 Co330 2.194 . S
N350 C345 1.328 . S
N350 C349 1.315 . S
H351 C345 0.929 . S
H352 C349 0.930 . S
H353 C341 0.929 . S
H354 C343 0.929 . S
O355 Co330 2.351 . S
O355 C358 1.244 . S
O356 Co330 2.155 . S
O356 C358 1.240 . S
O357 Co330 2.096 . S
O357 C338 1.247 . S
C358 O355 1.244 . S
C358 O356 1.240 . S
H359 C333 0.931 . S
H360 C342 0.931 . S
H361 C346 0.929 . S
H362 C348 0.930 . S
Co363 N367 2.148 . S
Co363 N373 2.128 1_556 S
Co363 N383 2.194 1_556 S
Co363 O388 2.351 1_556 S
Co363 O389 2.155 1_556 S
Co363 O390 2.096 . S
C364 N367 1.301 1_554 S
C364 N368 1.328 1_554 S
C364 H369 0.930 . S
C365 C366 1.333 . S
C365 N367 1.317 . S
C365 H370 0.930 . S
C366 C365 1.333 . S
C366 N368 1.350 . S
C366 H392 0.931 . S
N367 Co363 2.148 . S
N367 C364 1.301 1_556 S
N367 C365 1.317 . S
N368 C364 1.328 1_556 S
N368 C366 1.350 . S
H369 C364 0.930 . S
H370 C365 0.930 . S
C371 O372 1.224 . S
C371 O390 1.247 . S
O372 C371 1.224 . S
N373 Co363 2.128 1_554 S
N373 C374 1.355 . S
N373 C376 1.311 1_554 S
C374 N373 1.355 . S
C374 C375 1.363 . S
C374 H386 0.929 . S
C375 C374 1.363 . S
C375 N377 1.375 . S
C375 H393 0.931 . S
C376 N373 1.311 1_556 S
C376 N377 1.347 1_556 S
C376 H387 0.929 . S
N377 C375 1.375 . S
N377 C376 1.347 1_554 S
C378 C381 1.365 . S
C378 N383 1.328 . S
C378 H384 0.929 . S
C379 C380 1.362 1_556 S
C379 C382 1.378 . S
C379 H394 0.929 . S
C380 C379 1.362 1_554 S
C380 C381 1.366 . S
C381 C378 1.365 . S
C381 C380 1.366 . S
C381 H395 0.930 . S
C382 C379 1.378 . S
C382 N383 1.315 1_556 S
C382 H385 0.930 . S
N383 Co363 2.194 1_554 S
N383 C378 1.328 . S
N383 C382 1.315 1_554 S
H384 C378 0.929 . S
H385 C382 0.930 . S
H386 C374 0.929 . S
H387 C376 0.929 . S
O388 Co363 2.351 1_554 S
O388 C391 1.244 . S
O389 Co363 2.155 1_554 S
O389 C391 1.240 . S
O390 Co363 2.096 . S
O390 C371 1.247 . S
C391 O388 1.244 . S
C391 O389 1.240 . S
H392 C366 0.931 . S
H393 C375 0.931 . S
H394 C379 0.929 . S
H395 C381 0.930 . S
H396 C404 0.950 . S
H397 C409 0.950 . S
H398 C406 0.950 . S
H399 C408 0.950 1_455 S
H400 C410 0.950 . S
H401 C412 0.950 . S
H402 C414 0.950 1_655 S
H403 C415 0.950 . S
C404 H396 0.950 . S
C404 C405 1.386 . S
C404 C406 1.391 . S
C405 C404 1.386 . S
C405 C409 1.393 . S
C406 H398 0.950 . S
C406 C404 1.391 . S
C406 C407 1.400 . S
C407 C406 1.400 . S
C407 C408 1.398 . S
C407 C413 1.491 1_655 S
C408 H399 0.950 1_655 S
C408 C407 1.398 . S
C408 C409 1.391 . S
C409 H397 0.950 . S
C409 C405 1.393 . S
C409 C408 1.391 . S
C410 H400 0.950 . S
C410 C411 1.386 . S
C410 C412 1.391 . S
C411 C410 1.386 . S
C411 C415 1.393 . S
C412 H401 0.950 . S
C412 C410 1.391 . S
C412 C413 1.400 . S
C413 C407 1.491 1_455 S
C413 C412 1.400 . S
C413 C414 1.398 . S
C414 H402 0.950 1_455 S
C414 C413 1.398 . S
C414 C415 1.391 . S
C415 H403 0.950 . S
C415 C411 1.393 . S
C415 C414 1.391 . S
H416 C424 0.950 . S
H417 C429 0.950 . S
H418 C426 0.950 1_545 S
H419 C428 0.950 . S
H420 C430 0.950 . S
H421 C432 0.950 1_565 S
H422 C434 0.950 . S
H423 C435 0.950 . S
C424 H416 0.950 . S
C424 C425 1.386 . S
C424 C426 1.391 . S
C425 C424 1.386 . S
C425 C429 1.393 . S
C426 H418 0.950 1_565 S
C426 C424 1.391 . S
C426 C427 1.400 . S
C427 C426 1.400 . S
C427 C428 1.398 . S
C427 C433 1.491 1_565 S
C428 H419 0.950 . S
C428 C427 1.398 . S
C428 C429 1.391 . S
C429 H417 0.950 . S
C429 C425 1.393 . S
C429 C428 1.391 . S
C430 H420 0.950 . S
C430 C431 1.386 . S
C430 C432 1.391 . S
C431 C430 1.386 . S
C431 C435 1.393 . S
C432 H421 0.950 1_545 S
C432 C430 1.391 . S
C432 C433 1.400 . S
C433 C427 1.491 1_545 S
C433 C432 1.400 . S
C433 C434 1.398 . S
C434 H422 0.950 . S
C434 C433 1.398 . S
C434 C435 1.391 . S
C435 H423 0.950 . S
C435 C431 1.393 . S
C435 C434 1.391 . S
H436 C444 0.950 . S
H437 C449 0.950 . S
H438 C446 0.950 . S
H439 C448 0.950 . S
H440 C450 0.950 . S
H441 C452 0.950 . S
H442 C454 0.950 . S
H443 C455 0.950 . S
C444 H436 0.950 . S
C444 C445 1.386 . S
C444 C446 1.391 . S
C445 C444 1.386 . S
C445 C449 1.393 . S
C446 H438 0.950 . S
C446 C444 1.391 . S
C446 C447 1.400 . S
C447 C446 1.400 . S
C447 C448 1.398 . S
C447 C453 1.491 . S
C448 H439 0.950 . S
C448 C447 1.398 . S
C448 C449 1.391 . S
C449 H437 0.950 . S
C449 C445 1.393 . S
C449 C448 1.391 . S
C450 H440 0.950 . S
C450 C451 1.386 . S
C450 C452 1.391 . S
C451 C450 1.386 . S
C451 C455 1.393 . S
C452 H441 0.950 . S
C452 C450 1.391 . S
C452 C453 1.400 . S
C453 C447 1.491 . S
C453 C452 1.400 . S
C453 C454 1.398 . S
C454 H442 0.950 . S
C454 C453 1.398 . S
C454 C455 1.391 . S
C455 H443 0.950 . S
C455 C451 1.393 . S
C455 C454 1.391 . S
H456 C464 0.950 . S
H457 C469 0.950 . S
H458 C466 0.950 . S
H459 C468 0.950 . S
H460 C470 0.950 . S
H461 C472 0.950 . S
H462 C474 0.950 . S
H463 C475 0.950 . S
C464 H456 0.950 . S
C464 C465 1.386 . S
C464 C466 1.391 . S
C465 C464 1.386 . S
C465 C469 1.393 . S
C466 H458 0.950 . S
C466 C464 1.391 . S
C466 C467 1.400 . S
C467 C466 1.400 . S
C467 C468 1.398 . S
C467 C473 1.491 1_455 S
C468 H459 0.950 . S
C468 C467 1.398 . S
C468 C469 1.391 . S
C469 H457 0.950 . S
C469 C465 1.393 . S
C469 C468 1.391 . S
C470 H460 0.950 . S
C470 C471 1.386 . S
C470 C472 1.391 . S
C471 C470 1.386 . S
C471 C475 1.393 . S
C472 H461 0.950 . S
C472 C470 1.391 . S
C472 C473 1.400 . S
C473 C467 1.491 1_655 S
C473 C472 1.400 . S
C473 C474 1.398 . S
C474 H462 0.950 . S
C474 C473 1.398 . S
C474 C475 1.391 . S
C475 H463 0.950 . S
C475 C471 1.393 . S
C475 C474 1.391 . S
H476 C484 0.950 . S
H477 C489 0.950 . S
H478 C486 0.950 . S
H479 C488 0.950 . S
H480 C490 0.950 . S
H481 C492 0.950 . S
H482 C494 0.950 . S
H483 C495 0.950 . S
C484 H476 0.950 . S
C484 C485 1.386 . S
C484 C486 1.391 . S
C485 C484 1.386 . S
C485 C489 1.393 . S
C486 H478 0.950 . S
C486 C484 1.391 . S
C486 C487 1.400 . S
C487 C486 1.400 . S
C487 C488 1.398 . S
C487 C493 1.491 1_545 S
C488 H479 0.950 . S
C488 C487 1.398 . S
C488 C489 1.391 . S
C489 H477 0.950 . S
C489 C485 1.393 . S
C489 C488 1.391 . S
C490 H480 0.950 . S
C490 C491 1.386 . S
C490 C492 1.391 . S
C491 C490 1.386 . S
C491 C495 1.393 . S
C492 H481 0.950 . S
C492 C490 1.391 . S
C492 C493 1.400 . S
C493 C487 1.491 1_565 S
C493 C492 1.400 . S
C493 C494 1.398 . S
C494 H482 0.950 . S
C494 C493 1.398 . S
C494 C495 1.391 . S
C495 H483 0.950 . S
C495 C491 1.393 . S
C495 C494 1.391 . S
H496 C504 0.950 . S
H497 C509 0.950 . S
H498 C506 0.950 . S
H499 C508 0.950 . S
H500 C510 0.950 . S
H501 C512 0.950 . S
H502 C514 0.950 . S
H503 C515 0.950 . S
C504 H496 0.950 . S
C504 C505 1.386 . S
C504 C506 1.391 . S
C505 C504 1.386 . S
C505 C509 1.393 . S
C506 H498 0.950 . S
C506 C504 1.391 . S
C506 C507 1.400 . S
C507 C506 1.400 . S
C507 C508 1.398 . S
C507 C513 1.491 . S
C508 H499 0.950 . S
C508 C507 1.398 . S
C508 C509 1.391 . S
C509 H497 0.950 . S
C509 C505 1.393 . S
C509 C508 1.391 . S
C510 H500 0.950 . S
C510 C511 1.386 . S
C510 C512 1.391 . S
C511 C510 1.386 . S
C511 C515 1.393 . S
C512 H501 0.950 . S
C512 C510 1.391 . S
C512 C513 1.400 . S
C513 C507 1.491 . S
C513 C512 1.400 . S
C513 C514 1.398 . S
C514 H502 0.950 . S
C514 C513 1.398 . S
C514 C515 1.391 . S
C515 H503 0.950 . S
C515 C511 1.393 . S
C515 C514 1.391 . S
H516 C524 0.950 . S
H517 C529 0.950 . S
H518 C526 0.950 . S
H519 C528 0.950 . S
H520 C530 0.950 . S
H521 C532 0.950 . S
H522 C534 0.950 . S
H523 C535 0.950 . S
C524 H516 0.950 . S
C524 C525 1.386 . S
C524 C526 1.391 . S
C525 C524 1.386 . S
C525 C529 1.393 . S
C526 H518 0.950 . S
C526 C524 1.391 . S
C526 C527 1.400 . S
C527 C526 1.400 . S
C527 C528 1.398 . S
C527 C533 1.491 . S
C528 H519 0.950 . S
C528 C527 1.398 . S
C528 C529 1.391 . S
C529 H517 0.950 . S
C529 C525 1.393 . S
C529 C528 1.391 . S
C530 H520 0.950 . S
C530 C531 1.386 . S
C530 C532 1.391 . S
C531 C530 1.386 . S
C531 C535 1.393 . S
C532 H521 0.950 . S
C532 C530 1.391 . S
C532 C533 1.400 . S
C533 C527 1.491 . S
C533 C532 1.400 . S
C533 C534 1.398 . S
C534 H522 0.950 . S
C534 C533 1.398 . S
C534 C535 1.391 . S
C535 H523 0.950 . S
C535 C531 1.393 . S
C535 C534 1.391 . S
H536 C544 0.950 . S
H537 C549 0.950 . S
H538 C546 0.950 . S
H539 C548 0.950 . S
H540 C550 0.950 . S
H541 C552 0.950 . S
H542 C554 0.950 . S
H543 C555 0.950 . S
C544 H536 0.950 . S
C544 C545 1.386 . S
C544 C546 1.391 . S
C545 C544 1.386 . S
C545 C549 1.393 . S
C546 H538 0.950 . S
C546 C544 1.391 . S
C546 C547 1.400 . S
C547 C546 1.400 . S
C547 C548 1.398 . S
C547 C553 1.491 . S
C548 H539 0.950 . S
C548 C547 1.398 . S
C548 C549 1.391 . S
C549 H537 0.950 . S
C549 C545 1.393 . S
C549 C548 1.391 . S
C550 H540 0.950 . S
C550 C551 1.386 . S
C550 C552 1.391 . S
C551 C550 1.386 . S
C551 C555 1.393 . S
C552 H541 0.950 . S
C552 C550 1.391 . S
C552 C553 1.400 . S
C553 C547 1.491 . S
C553 C552 1.400 . S
C553 C554 1.398 . S
C554 H542 0.950 . S
C554 C553 1.398 . S
C554 C555 1.391 . S
C555 H543 0.950 . S
C555 C551 1.393 . S
C555 C554 1.391 . S
H556 C564 0.950 . S
H557 C569 0.950 . S
H558 C566 0.950 . S
H559 C568 0.950 . S
H560 C570 0.950 . S
H561 C572 0.950 . S
H562 C574 0.950 . S
H563 C575 0.950 . S
C564 H556 0.950 . S
C564 C565 1.386 . S
C564 C566 1.391 . S
C565 C564 1.386 . S
C565 C569 1.393 . S
C566 H558 0.950 . S
C566 C564 1.391 . S
C566 C567 1.400 . S
C567 C566 1.400 . S
C567 C568 1.398 . S
C567 C573 1.491 . S
C568 H559 0.950 . S
C568 C567 1.398 . S
C568 C569 1.391 . S
C569 H557 0.950 . S
C569 C565 1.393 . S
C569 C568 1.391 . S
C570 H560 0.950 . S
C570 C571 1.386 . S
C570 C572 1.391 . S
C571 C570 1.386 . S
C571 C575 1.393 . S
C572 H561 0.950 . S
C572 C570 1.391 . S
C572 C573 1.400 . S
C573 C567 1.491 . S
C573 C572 1.400 . S
C573 C574 1.398 . S
C574 H562 0.950 . S
C574 C573 1.398 . S
C574 C575 1.391 . S
C575 H563 0.950 . S
C575 C571 1.393 . S
C575 C574 1.391 . S
H576 C584 0.950 . S
H577 C589 0.950 . S
H578 C586 0.950 . S
H579 C588 0.950 . S
H580 C590 0.950 . S
H581 C592 0.950 . S
H582 C594 0.950 . S
H583 C595 0.950 . S
C584 H576 0.950 . S
C584 C585 1.386 . S
C584 C586 1.391 . S
C585 C584 1.386 . S
C585 C589 1.393 . S
C586 H578 0.950 . S
C586 C584 1.391 . S
C586 C587 1.400 . S
C587 C586 1.400 . S
C587 C588 1.398 . S
C587 C593 1.491 . S
C588 H579 0.950 . S
C588 C587 1.398 . S
C588 C589 1.391 . S
C589 H577 0.950 . S
C589 C585 1.393 . S
C589 C588 1.391 . S
C590 H580 0.950 . S
C590 C591 1.386 . S
C590 C592 1.391 . S
C591 C590 1.386 . S
C591 C595 1.393 . S
C592 H581 0.950 . S
C592 C590 1.391 . S
C592 C593 1.400 . S
C593 C587 1.491 . S
C593 C592 1.400 . S
C593 C594 1.398 . S
C594 H582 0.950 . S
C594 C593 1.398 . S
C594 C595 1.391 . S
C595 H583 0.950 . S
C595 C591 1.393 . S
C595 C594 1.391 . S
H596 C604 0.950 . S
H597 C609 0.950 . S
H598 C606 0.950 . S
H599 C608 0.950 . S
H600 C610 0.950 . S
H601 C612 0.950 . S
H602 C614 0.950 . S
H603 C615 0.950 . S
C604 H596 0.950 . S
C604 C605 1.386 . S
C604 C606 1.391 . S
C605 C604 1.386 . S
C605 C609 1.393 . S
C606 H598 0.950 . S
C606 C604 1.391 . S
C606 C607 1.400 . S
C607 C606 1.400 . S
C607 C608 1.398 . S
C607 C613 1.491 . S
C608 H599 0.950 . S
C608 C607 1.398 . S
C608 C609 1.391 . S
C609 H597 0.950 . S
C609 C605 1.393 . S
C609 C608 1.391 . S
C610 H600 0.950 . S
C610 C611 1.386 . S
C610 C612 1.391 . S
C611 C610 1.386 . S
C611 C615 1.393 . S
C612 H601 0.950 . S
C612 C610 1.391 . S
C612 C613 1.400 . S
C613 C607 1.491 . S
C613 C612 1.400 . S
C613 C614 1.398 . S
C614 H602 0.950 . S
C614 C613 1.398 . S
C614 C615 1.391 . S
C615 H603 0.950 . S
C615 C611 1.393 . S
C615 C614 1.391 . S
H616 C624 0.950 . S
H617 C629 0.950 . S
H618 C626 0.950 . S
H619 C628 0.950 . S
H620 C630 0.950 . S
H621 C632 0.950 . S
H622 C634 0.950 . S
H623 C635 0.950 . S
C624 H616 0.950 . S
C624 C625 1.386 . S
C624 C626 1.391 . S
C625 C624 1.386 . S
C625 C629 1.393 . S
C626 H618 0.950 . S
C626 C624 1.391 . S
C626 C627 1.400 . S
C627 C626 1.400 . S
C627 C628 1.398 . S
C627 C633 1.491 . S
C628 H619 0.950 . S
C628 C627 1.398 . S
C628 C629 1.391 . S
C629 H617 0.950 . S
C629 C625 1.393 . S
C629 C628 1.391 . S
C630 H620 0.950 . S
C630 C631 1.386 . S
C630 C632 1.391 . S
C631 C630 1.386 . S
C631 C635 1.393 . S
C632 H621 0.950 . S
C632 C630 1.391 . S
C632 C633 1.400 . S
C633 C627 1.491 . S
C633 C632 1.400 . S
C633 C634 1.398 . S
C634 H622 0.950 . S
C634 C633 1.398 . S
C634 C635 1.391 . S
C635 H623 0.950 . S
C635 C631 1.393 . S
C635 C634 1.391 . S
H636 C644 0.950 . S
H637 C649 0.950 . S
H638 C646 0.950 . S
H639 C648 0.950 . S
H640 C650 0.950 . S
H641 C652 0.950 . S
H642 C654 0.950 . S
H643 C655 0.950 . S
C644 H636 0.950 . S
C644 C645 1.386 . S
C644 C646 1.391 1_655 S
C645 C644 1.386 . S
C645 C649 1.393 . S
C646 H638 0.950 . S
C646 C644 1.391 1_455 S
C646 C647 1.400 1_455 S
C647 C646 1.400 1_655 S
C647 C648 1.398 . S
C647 C653 1.491 1_655 S
C648 H639 0.950 . S
C648 C647 1.398 . S
C648 C649 1.391 . S
C649 H637 0.950 . S
C649 C645 1.393 . S
C649 C648 1.391 . S
C650 H640 0.950 . S
C650 C651 1.386 . S
C650 C652 1.391 1_455 S
C651 C650 1.386 . S
C651 C655 1.393 . S
C652 H641 0.950 . S
C652 C650 1.391 1_655 S
C652 C653 1.400 1_655 S
C653 C647 1.491 1_455 S
C653 C652 1.400 1_455 S
C653 C654 1.398 . S
C654 H642 0.950 . S
C654 C653 1.398 . S
C654 C655 1.391 . S
C655 H643 0.950 . S
C655 C651 1.393 . S
C655 C654 1.391 . S
H656 C664 0.950 . S
H657 C669 0.950 . S
H658 C666 0.950 . S
H659 C668 0.950 . S
H660 C670 0.950 . S
H661 C672 0.950 . S
H662 C674 0.950 . S
H663 C675 0.950 . S
C664 H656 0.950 . S
C664 C665 1.386 . S
C664 C666 1.391 . S
C665 C664 1.386 . S
C665 C669 1.393 . S
C666 H658 0.950 . S
C666 C664 1.391 . S
C666 C667 1.400 . S
C667 C666 1.400 . S
C667 C668 1.398 1_545 S
C667 C673 1.491 1_545 S
C668 H659 0.950 . S
C668 C667 1.398 1_565 S
C668 C669 1.391 1_565 S
C669 H657 0.950 . S
C669 C665 1.393 . S
C669 C668 1.391 1_545 S
C670 H660 0.950 . S
C670 C671 1.386 . S
C670 C672 1.391 . S
C671 C670 1.386 . S
C671 C675 1.393 . S
C672 H661 0.950 . S
C672 C670 1.391 . S
C672 C673 1.400 . S
C673 C667 1.491 1_565 S
C673 C672 1.400 . S
C673 C674 1.398 1_565 S
C674 H662 0.950 . S
C674 C673 1.398 1_545 S
C674 C675 1.391 1_545 S
C675 H663 0.950 . S
C675 C671 1.393 . S
C675 C674 1.391 1_565 S
H676 C684 0.950 . S
H677 C689 0.942 1_556 S
H678 C686 0.950 . S
H679 C688 0.950 1_556 S
H680 C690 0.950 . S
H681 C692 0.950 . S
H682 C694 0.950 . S
H683 C695 0.950 . S
C684 H676 0.950 . S
C684 C685 1.386 . S
C684 C686 1.391 . S
C685 C684 1.386 . S
C685 C689 1.401 . S
C686 H678 0.950 . S
C686 C684 1.391 . S
C686 C687 1.400 . S
C687 C686 1.400 . S
C687 C688 1.398 . S
C687 C693 1.491 . S
C688 H679 0.950 1_554 S
C688 C687 1.398 . S
C688 C689 1.391 . S
C689 H677 0.942 1_554 S
C689 C685 1.401 . S
C689 C688 1.391 . S
C690 H680 0.950 . S
C690 C691 1.386 1_556 S
C690 C692 1.391 . S
C691 C690 1.386 1_554 S
C691 C695 1.393 . S
C692 H681 0.950 . S
C692 C690 1.391 . S
C692 C693 1.400 1_556 S
C693 C687 1.491 . S
C693 C692 1.400 1_554 S
C693 C694 1.398 . S
C694 H682 0.950 . S
C694 C693 1.398 . S
C694 C695 1.391 . S
C695 H683 0.950 . S
C695 C691 1.393 . S
C695 C694 1.391 . S
H696 C704 0.950 . S
H697 C709 0.950 . S
H698 C706 0.950 . S
H699 C708 0.950 . S
H700 C710 0.950 . S
H701 C712 0.950 . S
H702 C714 0.950 . S
H703 C715 0.950 . S
C704 H696 0.950 . S
C704 C705 1.386 . S
C704 C706 1.391 1_565 S
C705 C704 1.386 . S
C705 C709 1.393 . S
C706 H698 0.950 . S
C706 C704 1.391 1_545 S
C706 C707 1.400 1_545 S
C707 C706 1.400 1_565 S
C707 C708 1.398 . S
C707 C713 1.491 1_565 S
C708 H699 0.950 . S
C708 C707 1.398 . S
C708 C709 1.391 . S
C709 H697 0.950 . S
C709 C705 1.393 . S
C709 C708 1.391 . S
C710 H700 0.950 . S
C710 C711 1.386 . S
C710 C712 1.391 1_545 S
C711 C710 1.386 . S
C711 C715 1.393 . S
C712 H701 0.950 . S
C712 C710 1.391 1_565 S
C712 C713 1.400 1_565 S
C713 C707 1.491 1_545 S
C713 C712 1.400 1_545 S
C713 C714 1.398 . S
C714 H702 0.950 . S
C714 C713 1.398 . S
C714 C715 1.391 . S
C715 H703 0.950 . S
C715 C711 1.393 . S
C715 C714 1.391 . S
H716 C724 0.950 . S
H717 C729 0.950 . S
H718 C726 0.950 . S
H719 C728 0.950 . S
H720 C730 0.950 . S
H721 C732 0.950 . S
H722 C734 0.950 . S
H723 C735 0.950 . S
C724 H716 0.950 . S
C724 C725 1.386 . S
C724 C726 1.391 . S
C725 C724 1.386 . S
C725 C729 1.393 . S
C726 H718 0.950 . S
C726 C724 1.391 . S
C726 C727 1.400 . S
C727 C726 1.400 . S
C727 C728 1.398 . S
C727 C733 1.491 . S
C728 H719 0.950 . S
C728 C727 1.398 . S
C728 C729 1.391 . S
C729 H717 0.950 . S
C729 C725 1.393 . S
C729 C728 1.391 . S
C730 H720 0.950 . S
C730 C731 1.386 . S
C730 C732 1.391 . S
C731 C730 1.386 . S
C731 C735 1.393 . S
C732 H721 0.950 . S
C732 C730 1.391 . S
C732 C733 1.400 . S
C733 C727 1.491 . S
C733 C732 1.400 . S
C733 C734 1.398 . S
C734 H722 0.950 . S
C734 C733 1.398 . S
C734 C735 1.391 . S
C735 H723 0.950 . S
C735 C731 1.393 . S
C735 C734 1.391 . S
H736 C744 0.950 . S
H737 C749 0.950 . S
H738 C746 0.945 1_455 S
H739 C748 0.950 . S
H740 C750 0.950 . S
H741 C752 0.945 1_655 S
H742 C754 0.950 . S
H743 C755 0.950 . S
C744 H736 0.950 . S
C744 C745 1.386 . S
C744 C746 1.391 . S
C745 C744 1.386 . S
C745 C749 1.393 1_556 S
C746 H738 0.945 1_655 S
C746 C744 1.391 . S
C746 C747 1.400 . S
C747 C746 1.400 . S
C747 C748 1.398 1_556 S
C747 C753 1.491 1_655 S
C748 H739 0.950 . S
C748 C747 1.398 1_554 S
C748 C749 1.391 . S
C749 H737 0.950 . S
C749 C745 1.393 1_554 S
C749 C748 1.391 . S
C750 H740 0.950 . S
C750 C751 1.386 1_554 S
C750 C752 1.391 . S
C751 C750 1.386 1_556 S
C751 C755 1.393 . S
C752 H741 0.945 1_455 S
C752 C750 1.391 . S
C752 C753 1.400 1_554 S
C753 C747 1.491 1_455 S
C753 C752 1.400 1_556 S
C753 C754 1.398 . S
C754 H742 0.950 . S
C754 C753 1.398 . S
C754 C755 1.391 . S
C755 H743 0.950 . S
C755 C751 1.393 . S
C755 C754 1.391 . S
H756 C764 0.950 . S
H757 C769 0.950 . S
H758 C766 0.950 . S
H759 C768 0.950 . S
H760 C770 0.950 . S
H761 C772 0.950 . S
H762 C774 0.950 . S
H763 C775 0.950 . S
C764 H756 0.950 . S
C764 C765 1.386 . S
C764 C766 1.391 . S
C765 C764 1.386 . S
C765 C769 1.393 . S
C766 H758 0.950 . S
C766 C764 1.391 . S
C766 C767 1.400 . S
C767 C766 1.400 . S
C767 C768 1.398 . S
C767 C773 1.491 . S
C768 H759 0.950 . S
C768 C767 1.398 . S
C768 C769 1.391 . S
C769 H757 0.950 . S
C769 C765 1.393 . S
C769 C768 1.391 . S
C770 H760 0.950 . S
C770 C771 1.386 . S
C770 C772 1.391 . S
C771 C770 1.386 . S
C771 C775 1.393 . S
C772 H761 0.950 . S
C772 C770 1.391 . S
C772 C773 1.400 . S
C773 C767 1.491 . S
C773 C772 1.400 . S
C773 C774 1.398 . S
C774 H762 0.950 . S
C774 C773 1.398 . S
C774 C775 1.391 . S
C775 H763 0.950 . S
C775 C771 1.393 . S
C775 C774 1.391 . S
H776 C784 0.950 . S
H777 C789 0.950 . S
H778 C786 0.950 . S
H779 C788 0.950 . S
H780 C790 0.950 . S
H781 C792 0.950 . S
H782 C794 0.950 . S
H783 C795 0.950 . S
C784 H776 0.950 . S
C784 C785 1.386 . S
C784 C786 1.391 . S
C785 C784 1.386 . S
C785 C789 1.393 . S
C786 H778 0.950 . S
C786 C784 1.391 . S
C786 C787 1.400 . S
C787 C786 1.400 . S
C787 C788 1.398 . S
C787 C793 1.491 1_655 S
C788 H779 0.950 . S
C788 C787 1.398 . S
C788 C789 1.391 . S
C789 H777 0.950 . S
C789 C785 1.393 . S
C789 C788 1.391 . S
C790 H780 0.950 . S
C790 C791 1.386 . S
C790 C792 1.391 . S
C791 C790 1.386 . S
C791 C795 1.393 . S
C792 H781 0.950 . S
C792 C790 1.391 . S
C792 C793 1.400 . S
C793 C787 1.491 1_455 S
C793 C792 1.400 . S
C793 C794 1.398 . S
C794 H782 0.950 . S
C794 C793 1.398 . S
C794 C795 1.391 . S
C795 H783 0.950 . S
C795 C791 1.393 . S
C795 C794 1.391 . S
H796 C804 0.950 . S
H797 C809 0.950 . S
H798 C806 0.950 . S
H799 C808 0.950 . S
H800 C810 0.950 . S
H801 C812 0.950 . S
H802 C814 0.950 . S
H803 C815 0.950 . S
C804 H796 0.950 . S
C804 C805 1.386 . S
C804 C806 1.391 . S
C805 C804 1.386 . S
C805 C809 1.393 1_554 S
C806 H798 0.950 . S
C806 C804 1.391 . S
C806 C807 1.400 . S
C807 C806 1.400 . S
C807 C808 1.398 1_554 S
C807 C813 1.490 1_544 S
C808 H799 0.950 . S
C808 C807 1.398 1_556 S
C808 C809 1.391 . S
C809 H797 0.950 . S
C809 C805 1.393 1_556 S
C809 C808 1.391 . S
C810 H800 0.950 . S
C810 C811 1.386 . S
C810 C812 1.391 . S
C811 C810 1.386 . S
C811 C815 1.393 1_556 S
C812 H801 0.950 . S
C812 C810 1.391 . S
C812 C813 1.414 . S
C813 C807 1.490 1_566 S
C813 C812 1.414 . S
C813 C814 1.387 1_556 S
C814 H802 0.950 . S
C814 C813 1.387 1_554 S
C814 C815 1.391 . S
C815 H803 0.950 . S
C815 C811 1.393 1_554 S
C815 C814 1.391 . S
H816 C824 0.950 . S
H817 C829 0.950 . S
H818 C826 0.950 . S
H819 C828 0.950 . S
H820 C830 0.950 . S
H821 C832 0.950 . S
H822 C834 0.950 . S
H823 C835 0.950 . S
C824 H816 0.950 . S
C824 C825 1.386 . S
C824 C826 1.391 . S
C825 C824 1.386 . S
C825 C829 1.393 . S
C826 H818 0.950 . S
C826 C824 1.391 . S
C826 C827 1.400 . S
C827 C826 1.400 . S
C827 C828 1.398 . S
C827 C833 1.491 . S
C828 H819 0.950 . S
C828 C827 1.398 . S
C828 C829 1.391 . S
C829 H817 0.950 . S
C829 C825 1.393 . S
C829 C828 1.391 . S
C830 H820 0.950 . S
C830 C831 1.386 . S
C830 C832 1.391 . S
C831 C830 1.386 . S
C831 C835 1.393 . S
C832 H821 0.950 . S
C832 C830 1.391 . S
C832 C833 1.400 . S
C833 C827 1.491 . S
C833 C832 1.400 . S
C833 C834 1.398 . S
C834 H822 0.950 . S
C834 C833 1.398 . S
C834 C835 1.391 . S
C835 H823 0.950 . S
C835 C831 1.393 . S
C835 C834 1.391 . S
H836 C844 0.950 . S
H837 C849 0.950 . S
H838 C846 0.950 . S
H839 C848 0.950 . S
H840 C850 0.950 . S
H841 C852 0.950 . S
H842 C854 0.950 . S
H843 C855 0.950 . S
C844 H836 0.950 . S
C844 C845 1.386 . S
C844 C846 1.391 . S
C845 C844 1.386 . S
C845 C849 1.393 . S
C846 H838 0.950 . S
C846 C844 1.391 . S
C846 C847 1.400 . S
C847 C846 1.400 . S
C847 C848 1.398 . S
C847 C853 1.491 1_455 S
C848 H839 0.950 . S
C848 C847 1.398 . S
C848 C849 1.391 . S
C849 H837 0.950 . S
C849 C845 1.393 . S
C849 C848 1.391 . S
C850 H840 0.950 . S
C850 C851 1.386 . S
C850 C852 1.391 . S
C851 C850 1.386 . S
C851 C855 1.393 . S
C852 H841 0.950 . S
C852 C850 1.391 . S
C852 C853 1.400 . S
C853 C847 1.491 1_655 S
C853 C852 1.400 . S
C853 C854 1.398 . S
C854 H842 0.950 . S
C854 C853 1.398 . S
C854 C855 1.391 . S
C855 H843 0.950 . S
C855 C851 1.393 . S
C855 C854 1.391 . S
H856 C864 0.950 . S
H857 C869 0.950 . S
H858 C866 0.950 . S
H859 C868 0.950 . S
H860 C870 0.950 . S
H861 C872 0.950 . S
H862 C874 0.950 . S
H863 C875 0.950 . S
C864 H856 0.950 . S
C864 C865 1.386 . S
C864 C866 1.391 . S
C865 C864 1.386 . S
C865 C869 1.393 1_556 S
C866 H858 0.950 . S
C866 C864 1.391 . S
C866 C867 1.416 . S
C867 C866 1.416 . S
C867 C868 1.383 1_556 S
C867 C873 1.490 1_546 S
C868 H859 0.950 . S
C868 C867 1.383 1_554 S
C868 C869 1.391 . S
C869 H857 0.950 . S
C869 C865 1.393 1_554 S
C869 C868 1.391 . S
C870 H860 0.950 . S
C870 C871 1.386 . S
C870 C872 1.391 . S
C871 C870 1.386 . S
C871 C875 1.393 1_554 S
C872 H861 0.950 . S
C872 C870 1.391 . S
C872 C873 1.410 . S
C873 C867 1.490 1_564 S
C873 C872 1.410 . S
C873 C874 1.389 1_554 S
C874 H862 0.950 . S
C874 C873 1.389 1_556 S
C874 C875 1.391 . S
C875 H863 0.950 . S
C875 C871 1.393 1_556 S
C875 C874 1.391 . S
H876 C884 0.950 . S
H877 C889 0.950 . S
H878 C886 0.950 . S
H879 C888 0.950 . S
H880 C890 0.950 . S
H881 C892 0.950 . S
H882 C894 0.950 . S
H883 C895 0.950 . S
C884 H876 0.950 . S
C884 C885 1.386 . S
C884 C886 1.391 . S
C885 C884 1.386 . S
C885 C889 1.393 . S
C886 H878 0.950 . S
C886 C884 1.391 . S
C886 C887 1.400 . S
C887 C886 1.400 . S
C887 C888 1.398 . S
C887 C893 1.491 . S
C888 H879 0.950 . S
C888 C887 1.398 . S
C888 C889 1.391 . S
C889 H877 0.950 . S
C889 C885 1.393 . S
C889 C888 1.391 . S
C890 H880 0.950 . S
C890 C891 1.386 . S
C890 C892 1.391 . S
C891 C890 1.386 . S
C891 C895 1.393 . S
C892 H881 0.950 . S
C892 C890 1.391 . S
C892 C893 1.400 . S
C893 C887 1.491 . S
C893 C892 1.400 . S
C893 C894 1.398 . S
C894 H882 0.950 . S
C894 C893 1.398 . S
C894 C895 1.391 . S
C895 H883 0.950 . S
C895 C891 1.393 . S
C895 C894 1.391 . S
H896 C904 0.950 . S
H897 C909 0.950 . S
H898 C906 0.950 . S
H899 C908 0.950 . S
H900 C910 0.950 . S
H901 C912 0.950 . S
H902 C914 0.950 . S
H903 C915 0.950 . S
C904 H896 0.950 . S
C904 C905 1.386 . S
C904 C906 1.391 . S
C905 C904 1.386 . S
C905 C909 1.393 . S
C906 H898 0.950 . S
C906 C904 1.391 . S
C906 C907 1.400 . S
C907 C906 1.400 . S
C907 C908 1.398 . S
C907 C913 1.491 . S
C908 H899 0.950 . S
C908 C907 1.398 . S
C908 C909 1.391 . S
C909 H897 0.950 . S
C909 C905 1.393 . S
C909 C908 1.391 . S
C910 H900 0.950 . S
C910 C911 1.386 . S
C910 C912 1.391 . S
C911 C910 1.386 . S
C911 C915 1.393 . S
C912 H901 0.950 . S
C912 C910 1.391 . S
C912 C913 1.400 . S
C913 C907 1.491 . S
C913 C912 1.400 . S
C913 C914 1.398 . S
C914 H902 0.950 . S
C914 C913 1.398 . S
C914 C915 1.391 . S
C915 H903 0.950 . S
C915 C911 1.393 . S
C915 C914 1.391 . S
H916 C924 0.950 . S
H917 C929 0.950 . S
H918 C926 0.950 . S
H919 C928 0.950 . S
H920 C930 0.950 . S
H921 C932 0.950 . S
H922 C934 0.950 . S
H923 C935 0.950 . S
C924 H916 0.950 . S
C924 C925 1.386 . S
C924 C926 1.391 . S
C925 C924 1.386 . S
C925 C929 1.393 1_556 S
C926 H918 0.950 . S
C926 C924 1.391 . S
C926 C927 1.400 . S
C927 C926 1.400 . S
C927 C928 1.398 1_556 S
C927 C933 1.491 1_556 S
C928 H919 0.950 . S
C928 C927 1.398 1_554 S
C928 C929 1.391 . S
C929 H917 0.950 . S
C929 C925 1.393 1_554 S
C929 C928 1.391 . S
C930 H920 0.950 . S
C930 C931 1.386 . S
C930 C932 1.391 . S
C931 C930 1.386 . S
C931 C935 1.393 1_554 S
C932 H921 0.950 . S
C932 C930 1.391 . S
C932 C933 1.400 . S
C933 C927 1.491 1_554 S
C933 C932 1.400 . S
C933 C934 1.398 1_554 S
C934 H922 0.950 . S
C934 C933 1.398 1_556 S
C934 C935 1.391 . S
C935 H923 0.950 . S
C935 C931 1.393 1_556 S
C935 C934 1.391 . S
H936 C944 0.950 . S
H937 C949 0.950 . S
H938 C946 0.950 . S
H939 C948 0.950 . S
H940 C950 0.950 . S
H941 C952 0.950 . S
H942 C954 0.950 . S
H943 C955 0.950 . S
C944 H936 0.950 . S
C944 C945 1.386 . S
C944 C946 1.391 . S
C945 C944 1.386 . S
C945 C949 1.393 . S
C946 H938 0.950 . S
C946 C944 1.391 . S
C946 C947 1.400 . S
C947 C946 1.400 . S
C947 C948 1.398 . S
C947 C953 1.491 . S
C948 H939 0.950 . S
C948 C947 1.398 . S
C948 C949 1.391 . S
C949 H937 0.950 . S
C949 C945 1.393 . S
C949 C948 1.391 . S
C950 H940 0.950 . S
C950 C951 1.386 . S
C950 C952 1.391 . S
C951 C950 1.386 . S
C951 C955 1.393 . S
C952 H941 0.950 . S
C952 C950 1.391 . S
C952 C953 1.400 . S
C953 C947 1.491 . S
C953 C952 1.400 . S
C953 C954 1.398 . S
C954 H942 0.950 . S
C954 C953 1.398 . S
C954 C955 1.391 . S
C955 H943 0.950 . S
C955 C951 1.393 . S
C955 C954 1.391 . S
H956 C964 0.950 . S
H957 C969 0.950 . S
H958 C966 0.950 . S
H959 C968 0.950 . S
H960 C970 0.950 . S
H961 C972 0.950 . S
H962 C974 0.950 . S
H963 C975 0.950 . S
C964 H956 0.950 . S
C964 C965 1.386 . S
C964 C966 1.391 . S
C965 C964 1.386 . S
C965 C969 1.393 . S
C966 H958 0.950 . S
C966 C964 1.391 . S
C966 C967 1.400 . S
C967 C966 1.400 . S
C967 C968 1.398 . S
C967 C973 1.491 . S
C968 H959 0.950 . S
C968 C967 1.398 . S
C968 C969 1.391 . S
C969 H957 0.950 . S
C969 C965 1.393 . S
C969 C968 1.391 . S
C970 H960 0.950 . S
C970 C971 1.386 . S
C970 C972 1.391 . S
C971 C970 1.386 . S
C971 C975 1.393 . S
C972 H961 0.950 . S
C972 C970 1.391 . S
C972 C973 1.400 . S
C973 C967 1.491 . S
C973 C972 1.400 . S
C973 C974 1.398 . S
C974 H962 0.950 . S
C974 C973 1.398 . S
C974 C975 1.391 . S
C975 H963 0.950 . S
C975 C971 1.393 . S
C975 C974 1.391 . S
H976 C984 0.950 . S
H977 C989 0.950 . S
H978 C986 0.950 . S
H979 C988 0.948 1_554 S
H980 C990 0.950 . S
H981 C992 0.950 . S
H982 C994 0.946 1_556 S
H983 C995 0.950 . S
C984 H976 0.950 . S
C984 C985 1.386 . S
C984 C986 1.391 . S
C985 C984 1.386 . S
C985 C989 1.393 . S
C986 H978 0.950 . S
C986 C984 1.391 . S
C986 C987 1.400 . S
C987 C986 1.400 . S
C987 C988 1.398 . S
C987 C993 1.491 1_556 S
C988 H979 0.948 1_556 S
C988 C987 1.398 . S
C988 C989 1.391 . S
C989 H977 0.950 . S
C989 C985 1.393 . S
C989 C988 1.391 . S
C990 H980 0.950 . S
C990 C991 1.386 . S
C990 C992 1.391 . S
C991 C990 1.386 . S
C991 C995 1.393 . S
C992 H981 0.950 . S
C992 C990 1.391 . S
C992 C993 1.400 . S
C993 C987 1.491 1_554 S
C993 C992 1.400 . S
C993 C994 1.398 . S
C994 H982 0.946 1_554 S
C994 C993 1.398 . S
C994 C995 1.391 . S
C995 H983 0.950 . S
C995 C991 1.393 . S
C995 C994 1.391 . S
C405 C391 1.788 . S
C411 C28 1.783 . S
C425 C226 1.878 . S
C431 C61 1.880 . S
C445 C94 1.783 . S
C451 C259 1.784 . S
C465 C292 1.788 . S
C471 C127 1.784 . S
C485 C325 1.886 . S
C491 C160 1.885 . S
C505 C358 1.786 . S
C511 C193 1.786 . S
C525 C8 0.524 . S
C531 C338 0.552 . S
C545 C41 0.589 . S
C551 C371 0.598 . S
C565 C206 0.564 . S
C571 C74 0.525 . S
C585 C239 0.488 . S
C591 C107 0.543 . S
C605 C272 0.523 . S
C611 C140 0.570 . S
C625 C173 0.601 . S
C631 C305 0.567 . S
C645 N104 1.239 . S
C651 N5 1.257 . S
C665 N38 1.263 . S
C671 N137 1.247 . S
C685 N170 1.249 . S
C691 N71 1.267 . S
C705 N203 1.249 . S
C711 N302 1.266 . S
C725 N236 1.245 . S
C731 N335 1.256 . S
C745 N368 1.258 . S
C751 N269 1.262 . S
C765 N14 1.017 . S
C771 N311 1.012 . S
C785 N47 1.016 . S
C791 N344 1.017 . S
C805 N377 0.967 . S
C811 N80 0.975 . S
C825 N113 0.989 . S
C831 N212 0.990 . S
C845 N146 0.999 . S
C851 N245 0.992 . S
C865 N179 0.974 . S
C871 N278 0.985 . S
C885 C215 1.801 . S
C891 C17 1.799 . S
C905 C248 1.800 . S
C911 C50 1.799 . S
C925 C83 1.797 . S
C931 C281 1.799 . S
C945 C314 1.803 . S
C951 C116 1.801 . S
C965 C149 1.807 . S
C971 C347 1.809 . S
C985 C182 1.813 . S
C991 C380 1.813 . S
