# Generated by pormake.
# Topology zfc, (5)-cn, num edge types: 1
# Building blocks:
#     Node 0, Type 0, BuildingBlock: XOMCOT_clean_sbu_1, # of connection points: 5
#     Node 1, Type 0, BuildingBlock: XOMCOT_clean_sbu_1, # of connection points: 5
#     Node 2, Type 0, BuildingBlock: XOMCOT_clean_sbu_1, # of connection points: 5
#     Node 3, Type 0, BuildingBlock: XOMCOT_clean_sbu_1, # of connection points: 5
#     Node 4, Type 0, BuildingBlock: XOMCOT_clean_sbu_1, # of connection points: 5
#     Node 5, Type 0, BuildingBlock: XOMCOT_clean_sbu_1, # of connection points: 5
#     Node 6, Type 0, BuildingBlock: XOMCOT_clean_sbu_1, # of connection points: 5
#     Node 7, Type 0, BuildingBlock: XOMCOT_clean_sbu_1, # of connection points: 5
#     Node 8, Type 0, BuildingBlock: XOMCOT_clean_sbu_1, # of connection points: 5
#     Node 9, Type 0, BuildingBlock: XOMCOT_clean_sbu_1, # of connection points: 5
#     Node 10, Type 0, BuildingBlock: XOMCOT_clean_sbu_1, # of connection points: 5
#     Node 11, Type 0, BuildingBlock: XOMCOT_clean_sbu_1, # of connection points: 5
#     Node 12, Type 0, BuildingBlock: XOMCOT_clean_sbu_1, # of connection points: 5
#     Node 13, Type 0, BuildingBlock: XOMCOT_clean_sbu_1, # of connection points: 5
#     Node 14, Type 0, BuildingBlock: XOMCOT_clean_sbu_1, # of connection points: 5
#     Node 15, Type 0, BuildingBlock: XOMCOT_clean_sbu_1, # of connection points: 5
#     Edge 16, Type (0, 0), BuildingBlock: TEMPAE_clean_linker_10, # of connection points: 2
#     Edge 17, Type (0, 0), BuildingBlock: TEMPAE_clean_linker_10, # of connection points: 2
#     Edge 18, Type (0, 0), BuildingBlock: TEMPAE_clean_linker_10, # of connection points: 2
#     Edge 19, Type (0, 0), BuildingBlock: TEMPAE_clean_linker_10, # of connection points: 2
#     Edge 20, Type (0, 0), BuildingBlock: TEMPAE_clean_linker_10, # of connection points: 2
#     Edge 21, Type (0, 0), BuildingBlock: TEMPAE_clean_linker_10, # of connection points: 2
#     Edge 22, Type (0, 0), BuildingBlock: TEMPAE_clean_linker_10, # of connection points: 2
#     Edge 23, Type (0, 0), BuildingBlock: TEMPAE_clean_linker_10, # of connection points: 2
#     Edge 24, Type (0, 0), BuildingBlock: TEMPAE_clean_linker_10, # of connection points: 2
#     Edge 25, Type (0, 0), BuildingBlock: TEMPAE_clean_linker_10, # of connection points: 2
#     Edge 26, Type (0, 0), BuildingBlock: TEMPAE_clean_linker_10, # of connection points: 2
#     Edge 27, Type (0, 0), BuildingBlock: TEMPAE_clean_linker_10, # of connection points: 2
#     Edge 28, Type (0, 0), BuildingBlock: TEMPAE_clean_linker_10, # of connection points: 2
#     Edge 29, Type (0, 0), BuildingBlock: TEMPAE_clean_linker_10, # of connection points: 2
#     Edge 30, Type (0, 0), BuildingBlock: TEMPAE_clean_linker_10, # of connection points: 2
#     Edge 31, Type (0, 0), BuildingBlock: TEMPAE_clean_linker_10, # of connection points: 2
#     Edge 32, Type (0, 0), BuildingBlock: TEMPAE_clean_linker_10, # of connection points: 2
#     Edge 33, Type (0, 0), BuildingBlock: TEMPAE_clean_linker_10, # of connection points: 2
#     Edge 34, Type (0, 0), BuildingBlock: TEMPAE_clean_linker_10, # of connection points: 2
#     Edge 35, Type (0, 0), BuildingBlock: TEMPAE_clean_linker_10, # of connection points: 2
#     Edge 36, Type (0, 0), BuildingBlock: TEMPAE_clean_linker_10, # of connection points: 2
#     Edge 37, Type (0, 0), BuildingBlock: TEMPAE_clean_linker_10, # of connection points: 2
#     Edge 38, Type (0, 0), BuildingBlock: TEMPAE_clean_linker_10, # of connection points: 2
#     Edge 39, Type (0, 0), BuildingBlock: TEMPAE_clean_linker_10, # of connection points: 2
#     Edge 40, Type (0, 0), BuildingBlock: TEMPAE_clean_linker_10, # of connection points: 2
#     Edge 41, Type (0, 0), BuildingBlock: TEMPAE_clean_linker_10, # of connection points: 2
#     Edge 42, Type (0, 0), BuildingBlock: TEMPAE_clean_linker_10, # of connection points: 2
#     Edge 43, Type (0, 0), BuildingBlock: TEMPAE_clean_linker_10, # of connection points: 2
#     Edge 44, Type (0, 0), BuildingBlock: TEMPAE_clean_linker_10, # of connection points: 2
#     Edge 45, Type (0, 0), BuildingBlock: TEMPAE_clean_linker_10, # of connection points: 2
#     Edge 46, Type (0, 0), BuildingBlock: TEMPAE_clean_linker_10, # of connection points: 2
#     Edge 47, Type (0, 0), BuildingBlock: TEMPAE_clean_linker_10, # of connection points: 2
#     Edge 48, Type (0, 0), BuildingBlock: TEMPAE_clean_linker_10, # of connection points: 2
#     Edge 49, Type (0, 0), BuildingBlock: TEMPAE_clean_linker_10, # of connection points: 2
#     Edge 50, Type (0, 0), BuildingBlock: TEMPAE_clean_linker_10, # of connection points: 2
#     Edge 51, Type (0, 0), BuildingBlock: TEMPAE_clean_linker_10, # of connection points: 2
#     Edge 52, Type (0, 0), BuildingBlock: TEMPAE_clean_linker_10, # of connection points: 2
#     Edge 53, Type (0, 0), BuildingBlock: TEMPAE_clean_linker_10, # of connection points: 2
#     Edge 54, Type (0, 0), BuildingBlock: TEMPAE_clean_linker_10, # of connection points: 2
#     Edge 55, Type (0, 0), BuildingBlock: TEMPAE_clean_linker_10, # of connection points: 2
# Relax obj value: 0.150
# Max RMSD: 0.157
# Mean RMSD: 0.157
data_MOF--net-zfc--node1-XOMCOT_clean_sbu_1--edge1-TEMPAE_clean_linker_10
_symmetry_space_group_name_H-M    P1
_symmetry_Int_Tables_number       1
_symmetry_cell_setting            triclinic
loop_
_symmetry_equiv_pos_as_xyz
'x, y, z'
_cell_length_a     75.871164
_cell_length_b     75.888542
_cell_length_c     17.710985
_cell_angle_alpha  90.011883
_cell_angle_beta   90.013623
_cell_angle_gamma 89.99532
loop_
_atom_site_label
_atom_site_type_symbol
_atom_site_fract_x
_atom_site_fract_y
_atom_site_fract_z
_atom_type_partial_charge
C0 C 0.25191 0.0957 0.12309 0.0
C1 C 0.24969 0.09506 0.20026 0.0
N2 N 0.26573 0.09547 0.23286 0.0
N3 N 0.26925 0.09679 0.10721 0.0
C4 C 0.27735 0.09633 0.17525 0.0
H5 H 0.24153 0.09607 0.08126 0.0
Co6 Co 0.27889 0.10059 0.01166 0.0
C7 C 0.30706 0.12679 0.04665 0.0
O8 O 0.30209 0.13654 0.98907 0.0
N9 N 0.28874 0.10384 0.91361 0.0
C10 C 0.30807 0.10565 0.81874 0.0
C11 C 0.30605 0.10512 0.89588 0.0
C12 C 0.28069 0.10245 0.8454 0.0
N13 N 0.29208 0.10391 0.78712 0.0
O14 O 0.29031 0.07807 0.01685 0.0
H15 H 0.31675 0.10484 0.93609 0.0
H16 H 0.26688 0.09961 0.83777 0.0
O17 O 0.29929 0.11213 0.05947 0.0
C18 C 0.28113 0.06646 0.98279 0.0
O19 O 0.26636 0.07148 0.95053 0.0
N20 N 0.26605 0.12208 0.00615 0.0
C21 C 0.24227 0.15035 1.00242 0.0
C22 C 0.25581 0.14978 0.05627 0.0
C23 C 0.26725 0.13531 0.05849 0.0
C24 C 0.2524 0.12209 0.95607 0.0
C25 C 0.24064 0.13621 0.95203 0.0
H26 H 0.27646 0.13444 0.10475 0.0
H27 H 0.24982 0.11062 0.92219 0.0
H28 H 0.29146 0.09742 0.18286 0.0
H29 H 0.23726 0.09464 0.23016 0.0
H30 H 0.32041 0.10632 0.78819 0.0
H31 H 0.25703 0.15999 0.09868 0.0
H32 H 0.23008 0.1358 0.9109 0.0
C33 C 0.90356 0.25405 0.13759 0.0
C34 C 0.90427 0.2518 0.21474 0.0
N35 N 0.90432 0.26783 0.24744 0.0
N36 N 0.90289 0.27141 0.1218 0.0
C37 C 0.90366 0.27948 0.18988 0.0
H38 H 0.90285 0.2437 0.09572 0.0
Co39 Co 0.89919 0.28118 0.0263 0.0
C40 C 0.87336 0.30952 0.06301 0.0
O41 O 0.86338 0.30464 0.006 0.0
N42 N 0.89612 0.29114 0.92834 0.0
C43 C 0.89414 0.3104 0.83329 0.0
C44 C 0.89444 0.3084 0.91045 0.0
C45 C 0.89805 0.28314 0.86026 0.0
N46 N 0.89645 0.29447 0.80181 0.0
O47 O 0.92191 0.29217 0.03124 0.0
H48 H 0.8943 0.31913 0.9505 0.0
H49 H 0.90135 0.26942 0.85302 0.0
O50 O 0.88807 0.30173 0.07461 0.0
C51 C 0.93341 0.28238 0.99979 0.0
O52 O 0.92815 0.26733 0.97071 0.0
N53 N 0.87738 0.26881 0.02089 0.0
C54 C 0.84806 0.24632 0.01569 0.0
C55 C 0.84963 0.25912 0.07249 0.0
C56 C 0.86455 0.26994 0.07509 0.0
C57 C 0.87648 0.25574 0.96822 0.0
C58 C 0.86184 0.24466 0.96347 0.0
H59 H 0.86602 0.27875 0.12253 0.0
H60 H 0.8876 0.25304 0.93251 0.0
H61 H 0.90293 0.29361 0.19754 0.0
H62 H 0.90444 0.23935 0.24456 0.0
H63 H 0.89318 0.32271 0.80269 0.0
H64 H 0.83958 0.26056 0.11546 0.0
H65 H 0.86173 0.23431 0.92136 0.0
C66 C 0.74997 0.90298 0.153 0.0
C67 C 0.75204 0.90323 0.23019 0.0
N68 N 0.73597 0.90206 0.26216 0.0
N69 N 0.73267 0.90172 0.13643 0.0
C70 C 0.72447 0.90123 0.20409 0.0
H71 H 0.76039 0.90359 0.11146 0.0
Co72 Co 0.7231 0.90072 0.03978 0.0
C73 C 0.69205 0.87714 0.05666 0.0
O74 O 0.69564 0.86962 0.99157 0.0
N75 N 0.71331 0.90028 0.9418 0.0
C76 C 0.69414 0.90604 0.84962 0.0
C77 C 0.69672 0.90569 0.92631 0.0
C78 C 0.72062 0.89766 0.8729 0.0
N79 N 0.70921 0.90099 0.81609 0.0
O80 O 0.71281 0.92367 0.05336 0.0
H81 H 0.68717 0.90967 0.96834 0.0
H82 H 0.73426 0.89437 0.86347 0.0
O83 O 0.70186 0.88962 0.0809 0.0
C84 C 0.72357 0.93654 0.05167 0.0
O85 O 0.74052 0.93327 0.04589 0.0
N86 N 0.73459 0.87882 0.02607 0.0
C87 C 0.75697 0.84961 0.01298 0.0
C88 C 0.74207 0.84903 0.05987 0.0
C89 C 0.73128 0.86388 0.06697 0.0
C90 C 0.74949 0.87986 0.98338 0.0
C91 C 0.76063 0.86535 0.97464 0.0
H92 H 0.72089 0.86352 0.10842 0.0
H93 H 0.75326 0.89234 0.9588 0.0
H94 H 0.71032 0.90051 0.21086 0.0
H95 H 0.76442 0.9039 0.26041 0.0
H96 H 0.68221 0.91001 0.82076 0.0
H97 H 0.73899 0.83733 0.09231 0.0
H98 H 0.77245 0.86675 0.94092 0.0
C99 C 0.09255 0.74578 0.12839 0.0
C100 C 0.09188 0.7483 0.20542 0.0
N101 N 0.09708 0.73329 0.23949 0.0
N102 N 0.09811 0.72927 0.11398 0.0
C103 C 0.10071 0.72197 0.18273 0.0
H104 H 0.08929 0.75538 0.08547 0.0
Co105 Co 0.10122 0.71972 0.01815 0.0
C106 C 0.12569 0.68953 0.04386 0.0
O107 O 0.13435 0.69341 0.98177 0.0
N108 N 0.10371 0.71 0.92019 0.0
C109 C 0.10022 0.69078 0.82613 0.0
C110 C 0.10021 0.69299 0.90308 0.0
C111 C 0.10539 0.71791 0.85194 0.0
N112 N 0.1034 0.70651 0.79389 0.0
O113 O 0.07837 0.70893 0.02503 0.0
H114 H 0.09698 0.68292 0.94399 0.0
H115 H 0.1067 0.73193 0.84398 0.0
O116 O 0.11232 0.6988 0.06291 0.0
C117 C 0.06685 0.71805 0.99011 0.0
O118 O 0.07207 0.73251 0.95592 0.0
N119 N 0.12288 0.73195 0.01134 0.0
C120 C 0.15119 0.75569 0.00738 0.0
C121 C 0.15165 0.74082 0.05447 0.0
C122 C 0.13721 0.72933 0.05688 0.0
C123 C 0.12192 0.74677 0.96813 0.0
C124 C 0.13602 0.75853 0.96371 0.0
H125 H 0.1373 0.71899 0.09863 0.0
H126 H 0.10975 0.75001 0.93975 0.0
H127 H 0.10494 0.70854 0.19142 0.0
H128 H 0.08812 0.76034 0.23399 0.0
H129 H 0.09753 0.67863 0.79628 0.0
H130 H 0.16268 0.73852 0.09198 0.0
H131 H 0.13483 0.76998 0.92759 0.0
C132 C 0.25375 0.90752 0.88106 0.0
C133 C 0.25132 0.90807 0.80398 0.0
N134 N 0.26674 0.90403 0.77034 0.0
N135 N 0.27061 0.90317 0.89589 0.0
C136 C 0.2782 0.90121 0.82738 0.0
H137 H 0.24386 0.91001 0.92372 0.0
Co138 Co 0.28021 0.90065 0.9918 0.0
C139 C 0.31086 0.87681 0.96881 0.0
O140 O 0.30695 0.86847 0.03166 0.0
N141 N 0.28999 0.89879 0.08987 0.0
C142 C 0.30916 0.90318 0.18344 0.0
C143 C 0.30685 0.90305 0.10656 0.0
C144 C 0.28225 0.89676 0.1583 0.0
N145 N 0.29364 0.89927 0.21601 0.0
O146 O 0.2904 0.92374 0.98338 0.0
H147 H 0.31674 0.90664 0.06534 0.0
H148 H 0.26833 0.89477 0.16668 0.0
O149 O 0.30143 0.88993 0.94797 0.0
C150 C 0.28108 0.93524 0.0174 0.0
O151 O 0.26673 0.92992 0.0522 0.0
N152 N 0.26859 0.87865 0.99981 0.0
C153 C 0.24612 0.84937 0.00532 0.0
C154 C 0.26076 0.84957 0.95694 0.0
C155 C 0.27161 0.86446 0.95385 0.0
C156 C 0.25385 0.879 0.04378 0.0
C157 C 0.24272 0.8644 0.04896 0.0
H158 H 0.28181 0.86478 0.91153 0.0
H159 H 0.25013 0.89106 0.07192 0.0
H160 H 0.29195 0.89801 0.81913 0.0
H161 H 0.23908 0.91094 0.77507 0.0
H162 H 0.32122 0.9064 0.21304 0.0
H163 H 0.26358 0.83847 0.9204 0.0
H164 H 0.23105 0.86522 0.08402 0.0
C165 C 0.08633 0.25673 0.8741 0.0
C166 C 0.08551 0.254 0.79723 0.0
N167 N 0.09351 0.26764 0.76255 0.0
N168 N 0.09473 0.27203 0.88781 0.0
C169 C 0.09895 0.27837 0.81876 0.0
H170 H 0.08112 0.24814 0.91739 0.0
Co171 Co 0.09867 0.28136 0.98352 0.0
C172 C 0.12392 0.31065 0.95575 0.0
O173 O 0.1329 0.30603 0.0161 0.0
N174 N 0.10198 0.29084 0.08165 0.0
C175 C 0.10023 0.31001 0.17671 0.0
C176 C 0.09979 0.308 0.0997 0.0
C177 C 0.10313 0.28264 0.14951 0.0
N178 N 0.10222 0.294 0.20829 0.0
O179 O 0.076 0.29263 0.97963 0.0
H180 H 0.09718 0.3184 0.05949 0.0
H181 H 0.10322 0.26854 0.15652 0.0
O182 O 0.10995 0.30216 0.93801 0.0
C183 C 0.06462 0.2841 0.01793 0.0
O184 O 0.06979 0.2698 0.05351 0.0
N185 N 0.12014 0.26867 0.98757 0.0
C186 C 0.14876 0.24536 0.99287 0.0
C187 C 0.14885 0.25986 0.94368 0.0
C188 C 0.13423 0.27108 0.94048 0.0
C189 C 0.11941 0.25401 0.03183 0.0
C190 C 0.13366 0.24243 0.03673 0.0
H191 H 0.13413 0.28122 0.89788 0.0
H192 H 0.10733 0.25076 0.06088 0.0
H193 H 0.10563 0.29076 0.80941 0.0
H194 H 0.07964 0.24277 0.76917 0.0
H195 H 0.09865 0.3223 0.2069 0.0
H196 H 0.15997 0.26238 0.90695 0.0
H197 H 0.13254 0.23087 0.07228 0.0
C198 C 0.74835 0.09722 0.84959 0.0
C199 C 0.75045 0.09694 0.7724 0.0
N200 N 0.73441 0.0983 0.7403 0.0
N201 N 0.73106 0.09869 0.86603 0.0
C202 C 0.7229 0.09927 0.79826 0.0
H203 H 0.75876 0.09646 0.89119 0.0
Co204 Co 0.72141 0.09972 0.96263 0.0
C205 C 0.69032 0.12339 0.94455 0.0
O206 O 0.69361 0.1309 0.00994 0.0
N207 N 0.71157 0.10021 0.06048 0.0
C208 C 0.69239 0.09458 0.15274 0.0
C209 C 0.69494 0.09493 0.07601 0.0
C210 C 0.71892 0.10275 0.12935 0.0
N211 N 0.70752 0.0995 0.18625 0.0
O212 O 0.71105 0.07682 0.9488 0.0
H213 H 0.68535 0.09103 0.034 0.0
H214 H 0.73259 0.10593 0.13869 0.0
O215 O 0.70029 0.11096 0.92101 0.0
C216 C 0.72196 0.06409 0.95199 0.0
O217 O 0.73882 0.06758 0.95952 0.0
N218 N 0.73305 0.12148 0.97685 0.0
C219 C 0.75604 0.15018 0.99098 0.0
C220 C 0.74095 0.1513 0.94538 0.0
C221 C 0.72984 0.13668 0.93764 0.0
C222 C 0.74804 0.11998 0.01871 0.0
C223 C 0.75948 0.13421 0.02796 0.0
H224 H 0.71934 0.13741 0.89677 0.0
H225 H 0.75157 0.10735 0.04256 0.0
H226 H 0.70877 0.10013 0.79131 0.0
H227 H 0.76283 0.0961 0.74228 0.0
H228 H 0.68043 0.09071 0.18163 0.0
H229 H 0.73821 0.16309 0.91294 0.0
H230 H 0.77113 0.13256 0.06258 0.0
C231 C 0.9068 0.74639 0.876 0.0
C232 C 0.90754 0.7486 0.79883 0.0
N233 N 0.90711 0.73256 0.76621 0.0
N234 N 0.90562 0.72906 0.89187 0.0
C235 C 0.90614 0.72095 0.82382 0.0
H236 H 0.90639 0.75677 0.91782 0.0
Co237 Co 0.90162 0.71942 0.98734 0.0
C238 C 0.87519 0.69161 0.95068 0.0
O239 O 0.86531 0.69671 0.00765 0.0
N240 N 0.8982 0.70956 0.08536 0.0
C241 C 0.89587 0.69029 0.18027 0.0
C242 C 0.89632 0.69231 0.10312 0.0
C243 C 0.90003 0.71752 0.15356 0.0
N244 N 0.89825 0.70619 0.21189 0.0
O245 O 0.9241 0.70791 0.98279 0.0
H246 H 0.89617 0.68159 0.06299 0.0
H247 H 0.90343 0.73121 0.16106 0.0
O248 O 0.89004 0.69911 0.93901 0.0
C249 C 0.93567 0.71716 0.01677 0.0
O250 O 0.93061 0.73203 0.04807 0.0
N251 N 0.88014 0.73234 0.9923 0.0
C252 C 0.85181 0.75607 0.99557 0.0
C253 C 0.85273 0.74286 0.94031 0.0
C254 C 0.86721 0.73144 0.93847 0.0
C255 C 0.8798 0.74567 0.04388 0.0
C256 C 0.86564 0.75738 0.04772 0.0
H257 H 0.86833 0.72244 0.89153 0.0
H258 H 0.89103 0.74805 0.07943 0.0
H259 H 0.90499 0.70685 0.8162 0.0
H260 H 0.90804 0.76103 0.76895 0.0
H261 H 0.89479 0.67798 0.21079 0.0
H262 H 0.84277 0.74188 0.89668 0.0
H263 H 0.86578 0.76764 0.09018 0.0
C264 C 0.75566 0.5921 0.62896 0.0
C265 C 0.75316 0.59153 0.70601 0.0
N266 N 0.76829 0.59644 0.73993 0.0
N267 N 0.77228 0.59731 0.61439 0.0
C268 C 0.77966 0.59978 0.68306 0.0
H269 H 0.74597 0.58901 0.58615 0.0
Co270 Co 0.78188 0.60016 0.51854 0.0
C271 C 0.81216 0.62454 0.54318 0.0
O272 O 0.80836 0.63298 0.48044 0.0
N273 N 0.79167 0.60241 0.42057 0.0
C274 C 0.81089 0.59862 0.32675 0.0
C275 C 0.80862 0.5986 0.40368 0.0
C276 C 0.78384 0.60433 0.35223 0.0
N277 N 0.79525 0.60216 0.29434 0.0
O278 O 0.79253 0.57728 0.52644 0.0
H279 H 0.81861 0.5952 0.44475 0.0
H280 H 0.76987 0.606 0.34407 0.0
O281 O 0.80282 0.6113 0.56303 0.0
C282 C 0.78334 0.56589 0.49105 0.0
O283 O 0.76905 0.57131 0.45605 0.0
N284 N 0.76972 0.62178 0.51062 0.0
C285 C 0.74582 0.64991 0.50485 0.0
C286 C 0.76078 0.6507 0.55141 0.0
C287 C 0.77236 0.63634 0.55481 0.0
C288 C 0.75484 0.62054 0.46788 0.0
C289 C 0.74299 0.63454 0.4626 0.0
H290 H 0.78276 0.63667 0.59624 0.0
H291 H 0.75166 0.60823 0.4405 0.0
H292 H 0.7932 0.60372 0.6916 0.0
H293 H 0.74106 0.58804 0.7347 0.0
H294 H 0.82301 0.59573 0.29704 0.0
H295 H 0.76308 0.66194 0.58779 0.0
H296 H 0.73149 0.63311 0.42694 0.0
C297 C 0.40148 0.75179 0.65886 0.0
C298 C 0.40156 0.74982 0.7361 0.0
N299 N 0.40294 0.76591 0.76752 0.0
N300 N 0.40254 0.76908 0.64178 0.0
C301 C 0.40367 0.77735 0.70924 0.0
H302 H 0.4002 0.74134 0.61774 0.0
Co303 Co 0.40071 0.77881 0.54525 0.0
C304 C 0.37592 0.80869 0.57126 0.0
O305 O 0.36709 0.80457 0.50986 0.0
N306 N 0.39938 0.78874 0.44733 0.0
C307 C 0.40068 0.80847 0.35393 0.0
C308 C 0.40087 0.8061 0.43088 0.0
C309 C 0.39938 0.78081 0.37874 0.0
N310 N 0.39979 0.79252 0.32137 0.0
O311 O 0.42358 0.78943 0.55575 0.0
H312 H 0.40259 0.81645 0.47213 0.0
H313 H 0.39965 0.76676 0.37002 0.0
O314 O 0.38954 0.79974 0.5897 0.0
C315 C 0.43638 0.77857 0.55444 0.0
O316 O 0.43296 0.76162 0.55051 0.0
N317 N 0.3788 0.767 0.53388 0.0
C318 C 0.34945 0.74472 0.52167 0.0
C319 C 0.34956 0.75876 0.57326 0.0
C320 C 0.36451 0.76943 0.5799 0.0
C321 C 0.37924 0.7528 0.48679 0.0
C322 C 0.36465 0.74176 0.4785 0.0
H323 H 0.36478 0.77905 0.62471 0.0
H324 H 0.39139 0.74924 0.45918 0.0
H325 H 0.40432 0.79151 0.71577 0.0
H326 H 0.4005 0.73754 0.76685 0.0
H327 H 0.40188 0.82086 0.32415 0.0
H328 H 0.33835 0.76125 0.60959 0.0
H329 H 0.36563 0.73047 0.44131 0.0
C330 C 0.24765 0.40706 0.64167 0.0
C331 C 0.25004 0.40771 0.71877 0.0
N332 N 0.23452 0.40406 0.75238 0.0
N333 N 0.23071 0.40303 0.62677 0.0
C334 C 0.22303 0.40138 0.69528 0.0
H335 H 0.25762 0.40925 0.59905 0.0
Co336 Co 0.22105 0.40049 0.53089 0.0
C337 C 0.19037 0.37671 0.55537 0.0
O338 O 0.19408 0.36819 0.49271 0.0
N339 N 0.2112 0.39858 0.43294 0.0
C340 C 0.19202 0.403 0.33939 0.0
C341 C 0.19431 0.40275 0.4163 0.0
C342 C 0.21897 0.39672 0.36446 0.0
N343 N 0.20758 0.39925 0.30679 0.0
O344 O 0.21083 0.42355 0.53916 0.0
H345 H 0.1844 0.40624 0.45758 0.0
H346 H 0.23291 0.39487 0.35602 0.0
O347 O 0.1999 0.38982 0.57527 0.0
C348 C 0.22036 0.43501 0.50601 0.0
O349 O 0.23493 0.42965 0.47309 0.0
N350 N 0.23268 0.3785 0.5226 0.0
C351 C 0.2549 0.3491 0.51332 0.0
C352 C 0.24044 0.3492 0.56273 0.0
C353 C 0.2297 0.36416 0.56764 0.0
C354 C 0.24734 0.37899 0.47819 0.0
C355 C 0.25833 0.36433 0.47107 0.0
H356 H 0.21957 0.36436 0.61029 0.0
H357 H 0.25105 0.39114 0.45086 0.0
H358 H 0.20922 0.39849 0.70348 0.0
H359 H 0.26232 0.41036 0.74772 0.0
H360 H 0.17996 0.40622 0.30978 0.0
H361 H 0.23765 0.33795 0.59839 0.0
H362 H 0.26989 0.36521 0.43539 0.0
C363 C 0.59387 0.24712 0.62318 0.0
C364 C 0.5931 0.24937 0.70031 0.0
N365 N 0.59388 0.23337 0.7331 0.0
N366 N 0.59541 0.22981 0.6075 0.0
C367 C 0.59508 0.22174 0.67563 0.0
H368 H 0.59407 0.25748 0.58123 0.0
Co369 Co 0.59965 0.22033 0.512 0.0
C370 C 0.62601 0.19244 0.5474 0.0
O371 O 0.63579 0.19774 0.49047 0.0
N372 N 0.60331 0.21064 0.41384 0.0
C373 C 0.60544 0.19143 0.31858 0.0
C374 C 0.60484 0.19337 0.39574 0.0
C375 C 0.60184 0.21873 0.34577 0.0
N376 N 0.60349 0.20742 0.28729 0.0
O377 O 0.57715 0.20877 0.51518 0.0
H378 H 0.60462 0.18261 0.43564 0.0
H379 H 0.59871 0.23248 0.33843 0.0
O380 O 0.61116 0.1999 0.55992 0.0
C381 C 0.56564 0.21764 0.47901 0.0
O382 O 0.57063 0.23238 0.44645 0.0
N383 N 0.62116 0.23325 0.50863 0.0
C384 C 0.64966 0.25681 0.50847 0.0
C385 C 0.64847 0.24345 0.56289 0.0
C386 C 0.63391 0.23212 0.56321 0.0
C387 C 0.62175 0.24674 0.45784 0.0
C388 C 0.63599 0.25838 0.45562 0.0
H389 H 0.63258 0.223 0.60959 0.0
H390 H 0.61066 0.24927 0.42167 0.0
H391 H 0.59657 0.20767 0.68343 0.0
H392 H 0.59236 0.26181 0.73006 0.0
H393 H 0.60626 0.17913 0.28778 0.0
H394 H 0.65827 0.24226 0.60704 0.0
H395 H 0.63606 0.2688 0.41383 0.0
C396 C 0.75403 0.4074 0.3865 0.0
C397 C 0.7515 0.40792 0.30948 0.0
N398 N 0.76675 0.40344 0.27549 0.0
N399 N 0.77079 0.40264 0.401 0.0
C400 C 0.77823 0.40038 0.33231 0.0
H401 H 0.74428 0.41022 0.42936 0.0
Co402 Co 0.78043 0.40005 0.49687 0.0
C403 C 0.81125 0.37631 0.47305 0.0
O404 O 0.80768 0.3679 0.53612 0.0
N405 N 0.79019 0.39809 0.59485 0.0
C406 C 0.80924 0.40239 0.6889 0.0
C407 C 0.80704 0.4023 0.61195 0.0
C408 C 0.78235 0.39606 0.66305 0.0
N409 N 0.79366 0.39853 0.72109 0.0
O410 O 0.79074 0.42307 0.48856 0.0
H411 H 0.81698 0.40589 0.57099 0.0
H412 H 0.76841 0.39408 0.67094 0.0
O413 O 0.80158 0.38928 0.45274 0.0
C414 C 0.78145 0.43457 0.52271 0.0
O415 O 0.76705 0.42929 0.5572 0.0
N416 N 0.76869 0.37816 0.50503 0.0
C417 C 0.74575 0.34925 0.5111 0.0
C418 C 0.76073 0.34894 0.46466 0.0
C419 C 0.7718 0.36367 0.46106 0.0
C420 C 0.75373 0.37897 0.54746 0.0
C421 C 0.7423 0.3646 0.55265 0.0
H422 H 0.78225 0.36359 0.41988 0.0
H423 H 0.7501 0.39122 0.5744 0.0
H424 H 0.79187 0.39682 0.32375 0.0
H425 H 0.7393 0.41109 0.28086 0.0
H426 H 0.82128 0.40557 0.71878 0.0
H427 H 0.76369 0.33757 0.42989 0.0
H428 H 0.73043 0.36585 0.58616 0.0
C429 C 0.59912 0.75066 0.35147 0.0
C430 C 0.59899 0.7487 0.27423 0.0
N431 N 0.59749 0.76479 0.24293 0.0
N432 N 0.59799 0.76795 0.36863 0.0
C433 C 0.59675 0.77622 0.30124 0.0
H434 H 0.60049 0.74021 0.39254 0.0
Co435 Co 0.59976 0.77761 0.46523 0.0
C436 C 0.62468 0.80734 0.44135 0.0
O437 O 0.63324 0.8029 0.50306 0.0
N438 N 0.60097 0.78749 0.56329 0.0
C439 C 0.59933 0.80724 0.65652 0.0
C440 C 0.59929 0.80484 0.57961 0.0
C441 C 0.6009 0.77959 0.63193 0.0
N442 N 0.60029 0.79131 0.6892 0.0
O443 O 0.57691 0.78827 0.45452 0.0
H444 H 0.59755 0.81516 0.53825 0.0
H445 H 0.60067 0.76555 0.64076 0.0
O446 O 0.61102 0.7986 0.42148 0.0
C447 C 0.564 0.77753 0.45481 0.0
O448 O 0.56724 0.76054 0.45784 0.0
N449 N 0.62174 0.76582 0.4765 0.0
C450 C 0.6513 0.74377 0.48688 0.0
C451 C 0.6508 0.75761 0.43447 0.0
C452 C 0.63577 0.7682 0.42897 0.0
C453 C 0.62166 0.75176 0.52443 0.0
C454 C 0.6364 0.74088 0.53199 0.0
H455 H 0.6352 0.77771 0.38376 0.0
H456 H 0.60969 0.74815 0.55326 0.0
H457 H 0.59602 0.79038 0.29481 0.0
H458 H 0.60008 0.73643 0.24339 0.0
H459 H 0.59796 0.81964 0.68617 0.0
H460 H 0.66177 0.75999 0.39668 0.0
H461 H 0.63577 0.72972 0.57002 0.0
C462 C 0.24642 0.59499 0.37955 0.0
C463 C 0.24861 0.59432 0.30237 0.0
N464 N 0.23257 0.59478 0.26981 0.0
N465 N 0.22908 0.59615 0.39552 0.0
C466 C 0.22096 0.59569 0.32748 0.0
H467 H 0.25681 0.59537 0.42133 0.0
Co468 Co 0.21946 0.60014 0.49103 0.0
C469 C 0.19138 0.62633 0.45488 0.0
O470 O 0.19628 0.63615 0.51235 0.0
N471 N 0.20961 0.60361 0.58905 0.0
C472 C 0.19027 0.60555 0.68386 0.0
C473 C 0.1923 0.60498 0.60672 0.0
C474 C 0.21764 0.60224 0.65732 0.0
N475 N 0.20624 0.60376 0.71555 0.0
O476 O 0.20804 0.57761 0.48677 0.0
H477 H 0.1816 0.6047 0.5665 0.0
H478 H 0.23143 0.59933 0.66503 0.0
O479 O 0.1991 0.61161 0.44277 0.0
C480 C 0.21714 0.56624 0.52267 0.0
O481 O 0.23183 0.57147 0.55504 0.0
N482 N 0.23232 0.62161 0.49584 0.0
C483 C 0.25602 0.64992 0.49978 0.0
C484 C 0.24255 0.64929 0.44563 0.0
C485 C 0.23115 0.63479 0.44328 0.0
C486 C 0.24593 0.62166 0.54609 0.0
C487 C 0.25765 0.63579 0.55023 0.0
H488 H 0.22198 0.63388 0.39689 0.0
H489 H 0.24848 0.61022 0.58016 0.0
H490 H 0.20686 0.59685 0.3199 0.0
H491 H 0.26104 0.59387 0.27243 0.0
H492 H 0.17792 0.60626 0.71437 0.0
H493 H 0.24134 0.6595 0.40321 0.0
H494 H 0.26817 0.63543 0.59156 0.0
C495 C 0.40723 0.24638 0.36308 0.0
C496 C 0.40778 0.24881 0.286 0.0
N497 N 0.40342 0.23348 0.25236 0.0
N498 N 0.40258 0.22961 0.37795 0.0
C499 C 0.40042 0.22207 0.30942 0.0
H500 H 0.40995 0.25622 0.40573 0.0
Co501 Co 0.39996 0.22 0.47387 0.0
C502 C 0.37551 0.18975 0.45025 0.0
O503 O 0.36726 0.19358 0.51343 0.0
N504 N 0.39796 0.21019 0.57183 0.0
C505 C 0.40199 0.19093 0.66531 0.0
C506 C 0.40193 0.19326 0.58842 0.0
C507 C 0.39602 0.21794 0.64031 0.0
N508 N 0.39832 0.2065 0.69798 0.0
O509 O 0.42287 0.20937 0.46513 0.0
H510 H 0.40535 0.18333 0.54712 0.0
H511 H 0.39422 0.23188 0.64877 0.0
O512 O 0.38873 0.19906 0.42974 0.0
C513 C 0.43436 0.21899 0.49772 0.0
O514 O 0.42897 0.23361 0.53019 0.0
N515 N 0.37828 0.23212 0.48272 0.0
C516 C 0.34987 0.25569 0.49085 0.0
C517 C 0.34919 0.24088 0.44336 0.0
C518 C 0.36367 0.22948 0.43884 0.0
C519 C 0.37946 0.24691 0.52601 0.0
C520 C 0.36532 0.25857 0.53257 0.0
H521 H 0.36337 0.21918 0.39694 0.0
H522 H 0.3918 0.25017 0.55305 0.0
H523 H 0.39697 0.20839 0.30113 0.0
H524 H 0.41087 0.26098 0.25707 0.0
H525 H 0.40498 0.1788 0.69483 0.0
H526 H 0.33791 0.23855 0.40723 0.0
H527 H 0.36669 0.26996 0.56894 0.0
C528 C 0.29667 0.11395 0.6562 0.0
C529 C 0.28825 0.10269 0.70756 0.0
C530 C 0.29311 0.11297 0.57838 0.0
C531 C 0.28118 0.10009 0.55105 0.0
C532 C 0.27285 0.08851 0.60273 0.0
C533 C 0.27631 0.09011 0.68046 0.0
C534 C 0.30193 0.12587 0.52557 0.0
C535 C 0.2604 0.07432 0.57585 0.0
C536 C 0.25889 0.1066 0.36039 0.0
C537 C 0.26959 0.09651 0.31246 0.0
C538 C 0.26266 0.10808 0.43783 0.0
C539 C 0.27724 0.09887 0.46856 0.0
C540 C 0.288 0.08853 0.42042 0.0
C541 C 0.28418 0.08767 0.34277 0.0
C542 C 0.25114 0.11964 0.4866 0.0
C543 C 0.30345 0.07823 0.45105 0.0
H544 H 0.30581 0.12375 0.67733 0.0
H545 H 0.26999 0.08126 0.72007 0.0
H546 H 0.30999 0.11869 0.48335 0.0
H547 H 0.29181 0.13342 0.49395 0.0
H548 H 0.31058 0.13532 0.55596 0.0
H549 H 0.25549 0.06597 0.62291 0.0
H550 H 0.24892 0.08036 0.54698 0.0
H551 H 0.26713 0.06574 0.53407 0.0
H552 H 0.24778 0.11368 0.33682 0.0
H553 H 0.29239 0.0798 0.30578 0.0
H554 H 0.2593 0.12984 0.51482 0.0
H555 H 0.24487 0.11166 0.53163 0.0
H556 H 0.24062 0.12631 0.45364 0.0
H557 H 0.31317 0.08734 0.47684 0.0
H558 H 0.31019 0.07041 0.40659 0.0
H559 H 0.29892 0.06915 0.49615 0.0
C560 C 0.91026 0.27859 0.69531 0.0
C561 C 0.89775 0.29063 0.72223 0.0
C562 C 0.91184 0.27505 0.61762 0.0
C563 C 0.90033 0.28344 0.56575 0.0
C564 C 0.88754 0.29549 0.59287 0.0
C565 C 0.88656 0.29909 0.67064 0.0
C566 C 0.92592 0.26245 0.59096 0.0
C567 C 0.87473 0.3044 0.53988 0.0
C568 C 0.91258 0.28616 0.35718 0.0
C569 C 0.90349 0.27169 0.32712 0.0
C570 C 0.91188 0.29001 0.43485 0.0
C571 C 0.90147 0.27939 0.48331 0.0
C572 C 0.89205 0.26492 0.45288 0.0
C573 C 0.89334 0.26113 0.3754 0.0
C574 C 0.92239 0.30535 0.46513 0.0
C575 C 0.88042 0.25356 0.502 0.0
H576 H 0.91906 0.27222 0.73502 0.0
H577 H 0.87679 0.30829 0.69154 0.0
H578 H 0.91976 0.251 0.56234 0.0
H579 H 0.93454 0.26906 0.54902 0.0
H580 H 0.93422 0.25752 0.63811 0.0
H581 H 0.86538 0.31319 0.57009 0.0
H582 H 0.882 0.31233 0.49749 0.0
H583 H 0.86706 0.29433 0.50848 0.0
H584 H 0.92049 0.29427 0.31997 0.0
H585 H 0.88607 0.25012 0.35207 0.0
H586 H 0.93142 0.30076 0.51031 0.0
H587 H 0.91341 0.31522 0.49073 0.0
H588 H 0.93029 0.31194 0.42051 0.0
H589 H 0.88837 0.2473 0.54717 0.0
H590 H 0.87366 0.24304 0.46934 0.0
H591 H 0.87029 0.26184 0.53004 0.0
C592 C 0.71757 0.89183 0.36846 0.0
C593 C 0.73197 0.90159 0.34168 0.0
C594 C 0.71367 0.89113 0.44594 0.0
C595 C 0.72431 0.90058 0.49771 0.0
C596 C 0.73881 0.91051 0.47091 0.0
C597 C 0.74252 0.91081 0.3933 0.0
C598 C 0.69821 0.88023 0.47241 0.0
C599 C 0.75032 0.92098 0.52416 0.0
C600 C 0.70484 0.91297 0.68801 0.0
C601 C 0.71282 0.90067 0.73622 0.0
C602 C 0.70841 0.91304 0.61029 0.0
C603 C 0.72011 0.90037 0.57983 0.0
C604 C 0.72807 0.88778 0.62807 0.0
C605 C 0.72441 0.88817 0.70582 0.0
C606 C 0.69986 0.92684 0.56096 0.0
C607 C 0.74045 0.87393 0.59756 0.0
H608 H 0.70952 0.8845 0.32888 0.0
H609 H 0.75352 0.91854 0.37272 0.0
H610 H 0.70275 0.87013 0.51328 0.0
H611 H 0.68856 0.88874 0.50217 0.0
H612 H 0.69138 0.87351 0.42504 0.0
H613 H 0.76109 0.92801 0.49427 0.0
H614 H 0.74221 0.93081 0.55491 0.0
H615 H 0.75624 0.91211 0.56701 0.0
H616 H 0.69607 0.92282 0.71142 0.0
H617 H 0.73045 0.87854 0.74286 0.0
H618 H 0.69212 0.92042 0.51548 0.0
H619 H 0.71015 0.93498 0.53332 0.0
H620 H 0.69097 0.93568 0.59337 0.0
H621 H 0.73376 0.86613 0.55298 0.0
H622 H 0.74516 0.8648 0.64223 0.0
H623 H 0.75206 0.88033 0.57113 0.0
C624 C 0.08745 0.73872 0.37083 0.0
C625 C 0.09849 0.72995 0.31956 0.0
C626 C 0.08843 0.73532 0.44872 0.0
C627 C 0.10083 0.72294 0.47623 0.0
C628 C 0.11217 0.71421 0.42493 0.0
C629 C 0.11082 0.71776 0.34728 0.0
C630 C 0.07597 0.74477 0.50147 0.0
C631 C 0.12563 0.70099 0.45201 0.0
C632 C 0.11305 0.72443 0.68483 0.0
C633 C 0.10287 0.71061 0.7143 0.0
C634 C 0.11259 0.72855 0.60744 0.0
C635 C 0.10158 0.71873 0.55842 0.0
C636 C 0.09123 0.70482 0.58791 0.0
C637 C 0.09204 0.70091 0.66531 0.0
C638 C 0.12396 0.74336 0.57804 0.0
C639 C 0.0792 0.69412 0.53775 0.0
H640 H 0.07776 0.74797 0.34987 0.0
H641 H 0.11957 0.7111 0.30828 0.0
H642 H 0.06753 0.73505 0.53111 0.0
H643 H 0.08354 0.75199 0.54526 0.0
H644 H 0.06734 0.75428 0.47134 0.0
H645 H 0.13424 0.69626 0.40565 0.0
H646 H 0.13402 0.70689 0.49665 0.0
H647 H 0.11884 0.68946 0.47722 0.0
H648 H 0.12156 0.73185 0.72223 0.0
H649 H 0.08391 0.69042 0.68773 0.0
H650 H 0.1156 0.75355 0.55097 0.0
H651 H 0.13308 0.73828 0.53416 0.0
H652 H 0.13186 0.74968 0.62341 0.0
H653 H 0.06947 0.7029 0.50994 0.0
H654 H 0.07195 0.68379 0.56953 0.0
H655 H 0.08696 0.68767 0.49242 0.0
C656 C 0.2987 0.911 0.34431 0.0
C657 C 0.28963 0.89955 0.29567 0.0
C658 C 0.29486 0.91159 0.42178 0.0
C659 C 0.28169 0.90037 0.45167 0.0
C660 C 0.27253 0.88872 0.40299 0.0
C661 C 0.27655 0.88852 0.32551 0.0
C662 C 0.3048 0.92433 0.47157 0.0
C663 C 0.25853 0.87642 0.43283 0.0
C664 C 0.28327 0.89138 0.66291 0.0
C665 C 0.27027 0.90288 0.69038 0.0
C666 C 0.28695 0.89024 0.58531 0.0
C667 C 0.27748 0.90094 0.53385 0.0
C668 C 0.26429 0.91251 0.56115 0.0
C669 C 0.26081 0.91329 0.63898 0.0
C670 C 0.30103 0.87766 0.55841 0.0
C671 C 0.25405 0.92427 0.50822 0.0
H672 H 0.30862 0.91977 0.32151 0.0
H673 H 0.26963 0.87954 0.2883 0.0
H674 H 0.29543 0.93351 0.49925 0.0
H675 H 0.31175 0.91705 0.51701 0.0
H676 H 0.31463 0.93218 0.43951 0.0
H677 H 0.25274 0.86805 0.38773 0.0
H678 H 0.26421 0.86774 0.47696 0.0
H679 H 0.2478 0.88413 0.45968 0.0
H680 H 0.29047 0.88311 0.70206 0.0
H681 H 0.25091 0.92235 0.6598 0.0
H682 H 0.3118 0.8851 0.53051 0.0
H683 H 0.29547 0.86847 0.51591 0.0
H684 H 0.30675 0.86984 0.6053 0.0
H685 H 0.2632 0.93327 0.47821 0.0
H686 H 0.24403 0.93233 0.53826 0.0
H687 H 0.24728 0.91621 0.46473 0.0
C688 C 0.11007 0.27977 0.65417 0.0
C689 C 0.09555 0.27041 0.68235 0.0
C690 C 0.11203 0.28291 0.57643 0.0
C691 C 0.09896 0.27684 0.52555 0.0
C692 C 0.0844 0.26716 0.55352 0.0
C693 C 0.08291 0.264 0.63145 0.0
C694 C 0.12789 0.29315 0.54961 0.0
C695 C 0.07016 0.26047 0.50127 0.0
C696 C 0.09315 0.30104 0.33923 0.0
C697 C 0.10163 0.28975 0.28791 0.0
C698 C 0.09233 0.29705 0.41655 0.0
C699 C 0.10005 0.28129 0.44362 0.0
C700 C 0.1087 0.26985 0.39245 0.0
C701 C 0.1094 0.27422 0.31531 0.0
C702 C 0.08313 0.30969 0.46934 0.0
C703 C 0.11737 0.2531 0.41943 0.0
H704 H 0.12002 0.28459 0.69293 0.0
H705 H 0.07158 0.2569 0.6528 0.0
H706 H 0.13254 0.28853 0.49365 0.0
H707 H 0.12427 0.30727 0.54431 0.0
H708 H 0.13897 0.29209 0.59029 0.0
H709 H 0.06007 0.25255 0.53146 0.0
H710 H 0.06352 0.27176 0.47344 0.0
H711 H 0.07605 0.25223 0.45606 0.0
H712 H 0.08687 0.31293 0.31896 0.0
H713 H 0.11622 0.26554 0.27657 0.0
H714 H 0.0925 0.3143 0.51323 0.0
H715 H 0.07217 0.30288 0.49877 0.0
H716 H 0.07774 0.32136 0.43938 0.0
H717 H 0.12772 0.25629 0.46161 0.0
H718 H 0.12349 0.24554 0.37251 0.0
H719 H 0.10753 0.24458 0.44791 0.0
C720 C 0.71625 0.10884 0.63376 0.0
C721 C 0.73043 0.0988 0.66075 0.0
C722 C 0.71239 0.10959 0.55623 0.0
C723 C 0.7228 0.09983 0.50465 0.0
C724 C 0.73708 0.08961 0.53167 0.0
C725 C 0.74079 0.08931 0.60931 0.0
C726 C 0.69717 0.12079 0.52959 0.0
C727 C 0.74834 0.07883 0.47864 0.0
C728 C 0.70296 0.0877 0.3146 0.0
C729 C 0.71117 0.09979 0.26613 0.0
C730 C 0.70658 0.08761 0.39231 0.0
C731 C 0.71858 0.10004 0.42251 0.0
C732 C 0.72678 0.11241 0.37401 0.0
C733 C 0.72306 0.11206 0.2963 0.0
C734 C 0.69775 0.07405 0.44193 0.0
C735 C 0.73947 0.12601 0.40423 0.0
H736 H 0.70833 0.11635 0.67322 0.0
H737 H 0.75163 0.08138 0.63006 0.0
H738 H 0.70156 0.12988 0.48427 0.0
H739 H 0.68674 0.11224 0.50539 0.0
H740 H 0.69133 0.1287 0.576 0.0
H741 H 0.75897 0.0716 0.50868 0.0
H742 H 0.74002 0.06915 0.44811 0.0
H743 H 0.75445 0.08752 0.4356 0.0
H744 H 0.69396 0.07803 0.29144 0.0
H745 H 0.72927 0.12154 0.25913 0.0
H746 H 0.69014 0.08069 0.48722 0.0
H747 H 0.70787 0.06574 0.4698 0.0
H748 H 0.68868 0.06536 0.40969 0.0
H749 H 0.73295 0.13402 0.44856 0.0
H750 H 0.7444 0.13497 0.35936 0.0
H751 H 0.75092 0.11938 0.43093 0.0
C752 C 0.89619 0.73952 0.6384 0.0
C753 C 0.9061 0.72871 0.68657 0.0
C754 C 0.89472 0.73574 0.56097 0.0
C755 C 0.90372 0.72102 0.53046 0.0
C756 C 0.91388 0.71013 0.57882 0.0
C757 C 0.91476 0.71398 0.65645 0.0
C758 C 0.88334 0.7474 0.51197 0.0
C759 C 0.92396 0.69451 0.54845 0.0
C760 C 0.88826 0.70177 0.34302 0.0
C761 C 0.89964 0.70997 0.29148 0.0
C762 C 0.88935 0.70531 0.42082 0.0
C763 C 0.90245 0.71702 0.448 0.0
C764 C 0.91415 0.72514 0.39616 0.0
C765 C 0.91245 0.72169 0.31845 0.0
C766 C 0.87633 0.69671 0.47379 0.0
C767 C 0.92856 0.73736 0.42287 0.0
H768 H 0.88924 0.75073 0.66179 0.0
H769 H 0.92249 0.70568 0.69359 0.0
H770 H 0.89144 0.75348 0.46682 0.0
H771 H 0.87301 0.73938 0.48391 0.0
H772 H 0.87685 0.75807 0.54472 0.0
H773 H 0.93169 0.6877 0.59302 0.0
H774 H 0.91471 0.6849 0.52285 0.0
H775 H 0.9331 0.69886 0.50325 0.0
H776 H 0.87828 0.69281 0.32205 0.0
H777 H 0.92139 0.72785 0.27875 0.0
H778 H 0.86893 0.70696 0.50528 0.0
H779 H 0.88341 0.68858 0.51611 0.0
H780 H 0.86675 0.68818 0.44354 0.0
H781 H 0.9227 0.74896 0.45155 0.0
H782 H 0.93698 0.74208 0.37573 0.0
H783 H 0.93701 0.73052 0.46476 0.0
C784 C 0.77763 0.61231 0.18519 0.0
C785 C 0.79119 0.6018 0.21468 0.0
C786 C 0.77352 0.61199 0.10777 0.0
C787 C 0.78309 0.60077 0.05874 0.0
C788 C 0.79676 0.5901 0.08823 0.0
C789 C 0.80067 0.59078 0.16566 0.0
C790 C 0.75898 0.62371 0.07836 0.0
C791 C 0.80719 0.57783 0.03806 0.0
C792 C 0.76271 0.58701 0.8714 0.0
C793 C 0.7717 0.59782 0.81997 0.0
C794 C 0.76615 0.58796 0.94926 0.0
C795 C 0.77882 0.60009 0.97658 0.0
C796 C 0.78778 0.61121 0.92511 0.0
C797 C 0.78417 0.60989 0.84749 0.0
C798 C 0.75644 0.57575 1.00218 0.0
C799 C 0.80132 0.62438 0.95198 0.0
H800 H 0.77039 0.62098 0.22262 0.0
H801 H 0.81096 0.5824 0.18811 0.0
H802 H 0.76425 0.63268 0.03435 0.0
H803 H 0.74857 0.61559 0.05147 0.0
H804 H 0.75287 0.63178 0.12371 0.0
H805 H 0.81738 0.57037 0.06981 0.0
H806 H 0.79819 0.56828 0.01038 0.0
H807 H 0.81377 0.58544 0.99264 0.0
H808 H 0.75323 0.57752 0.85059 0.0
H809 H 0.79101 0.61847 0.80837 0.0
H810 H 0.74942 0.5835 0.04594 0.0
H811 H 0.76599 0.5671 0.03184 0.0
H812 H 0.74672 0.56733 0.97219 0.0
H813 H 0.79566 0.63285 0.9969 0.0
H814 H 0.80614 0.63293 0.90558 0.0
H815 H 0.81275 0.61733 0.97675 0.0
C816 C 0.3901 0.79894 0.19156 0.0
C817 C 0.40018 0.78881 0.2417 0.0
C818 C 0.39025 0.79546 0.11363 0.0
C819 C 0.40114 0.78183 0.08509 0.0
C820 C 0.41155 0.77174 0.13556 0.0
C821 C 0.41075 0.7752 0.21341 0.0
C822 C 0.37859 0.8062 0.06202 0.0
C823 C 0.42363 0.75738 0.10725 0.0
C824 C 0.39089 0.761 0.89485 0.0
C825 C 0.4024 0.77008 0.84677 0.0
C826 C 0.39011 0.76493 0.97224 0.0
C827 C 0.40145 0.77795 1.0026 0.0
C828 C 0.41318 0.78711 0.95422 0.0
C829 C 0.41333 0.78322 0.87662 0.0
C830 C 0.37708 0.7552 0.02142 0.0
C831 C 0.42573 0.80081 0.98461 0.0
H832 H 0.38183 0.80936 0.21376 0.0
H833 H 0.41869 0.76754 0.25223 0.0
H834 H 0.38672 0.81315 0.01935 0.0
H835 H 0.36947 0.79738 0.03087 0.0
H836 H 0.37068 0.81612 0.09333 0.0
H837 H 0.43135 0.7512 0.15353 0.0
H838 H 0.41583 0.74699 0.07856 0.0
H839 H 0.43294 0.76285 0.06499 0.0
H840 H 0.38225 0.75103 0.87146 0.0
H841 H 0.42229 0.79014 0.83936 0.0
H842 H 0.36838 0.76475 0.05077 0.0
H843 H 0.38419 0.74765 0.06554 0.0
H844 H 0.36875 0.74593 0.98853 0.0
H845 H 0.41825 0.81164 0.01186 0.0
H846 H 0.43422 0.80652 0.93973 0.0
H847 H 0.4343 0.79486 0.02852 0.0
C848 C 0.22455 0.38854 0.19691 0.0
C849 C 0.21162 0.3997 0.22721 0.0
C850 C 0.22857 0.38884 0.11942 0.0
C851 C 0.2196 0.40076 0.07126 0.0
C852 C 0.20663 0.41214 0.10169 0.0
C853 C 0.20275 0.41141 0.17912 0.0
C854 C 0.24233 0.37636 0.08901 0.0
C855 C 0.1969 0.42516 0.05248 0.0
C856 C 0.24061 0.4133 0.88369 0.0
C857 C 0.23093 0.40307 0.83235 0.0
C858 C 0.23713 0.41262 0.96156 0.0
C859 C 0.22372 0.40133 0.98896 0.0
C860 C 0.21398 0.39088 0.93754 0.0
C861 C 0.21767 0.39189 0.85993 0.0
C862 C 0.24765 0.42416 0.01443 0.0
C863 C 0.19966 0.37858 0.96457 0.0
H864 H 0.23132 0.37937 0.23375 0.0
H865 H 0.19296 0.42026 0.20237 0.0
H866 H 0.23644 0.36781 0.04487 0.0
H867 H 0.25315 0.38391 0.06202 0.0
H868 H 0.24804 0.36785 0.13381 0.0
H869 H 0.18732 0.43321 0.08502 0.0
H870 H 0.20643 0.43415 0.02462 0.0
H871 H 0.1897 0.41809 0.00716 0.0
H872 H 0.25071 0.42213 0.8628 0.0
H873 H 0.21031 0.38374 0.82086 0.0
H874 H 0.25434 0.41594 0.05756 0.0
H875 H 0.23869 0.43328 0.04487 0.0
H876 H 0.25775 0.43208 0.98427 0.0
H877 H 0.20535 0.36859 1.00329 0.0
H878 H 0.19304 0.37167 0.91725 0.0
H879 H 0.18958 0.38602 0.99682 0.0
C880 C 0.61353 0.20316 0.15621 0.0
C881 C 0.60211 0.21126 0.20781 0.0
C882 C 0.61237 0.20668 0.07843 0.0
C883 C 0.59912 0.21823 0.05137 0.0
C884 C 0.58738 0.22626 0.10332 0.0
C885 C 0.58917 0.22286 0.18101 0.0
C886 C 0.62544 0.1982 0.02534 0.0
C887 C 0.5728 0.2383 0.07674 0.0
C888 C 0.60486 0.24061 0.8605 0.0
C889 C 0.59504 0.22961 0.81276 0.0
C890 C 0.60648 0.23693 0.93796 0.0
C891 C 0.5977 0.22212 0.9689 0.0
C892 C 0.58762 0.21106 0.92097 0.0
C893 C 0.58661 0.21481 0.84329 0.0
C894 C 0.61776 0.24878 0.9865 0.0
C895 C 0.57778 0.19535 0.95184 0.0
H896 H 0.6236 0.19428 0.17714 0.0
H897 H 0.58019 0.22893 0.22083 0.0
H898 H 0.61844 0.18992 0.98335 0.0
H899 H 0.63266 0.20851 0.99347 0.0
H900 H 0.63518 0.18984 0.05555 0.0
H901 H 0.56439 0.24298 0.12399 0.0
H902 H 0.57849 0.24993 0.04769 0.0
H903 H 0.56437 0.23131 0.03519 0.0
H904 H 0.61162 0.25189 0.83676 0.0
H905 H 0.57896 0.20636 0.80644 0.0
H906 H 0.62822 0.24093 0.01451 0.0
H907 H 0.60964 0.25482 0.03169 0.0
H908 H 0.62408 0.25949 0.95341 0.0
H909 H 0.58718 0.18588 0.9774 0.0
H910 H 0.57008 0.1884 0.90757 0.0
H911 H 0.56864 0.19964 0.99717 0.0
C912 C 0.76083 0.41278 0.14418 0.0
C913 C 0.77016 0.4022 0.19543 0.0
C914 C 0.76424 0.41195 0.06629 0.0
C915 C 0.77721 0.40018 0.03875 0.0
C916 C 0.78651 0.38929 0.09002 0.0
C917 C 0.78293 0.39048 0.16769 0.0
C918 C 0.75416 0.42391 0.01357 0.0
C919 C 0.80038 0.3765 0.06286 0.0
C920 C 0.77627 0.38797 0.83012 0.0
C921 C 0.78955 0.39883 0.80067 0.0
C922 C 0.77216 0.38818 0.90754 0.0
C923 C 0.78144 0.39965 0.95657 0.0
C924 C 0.79481 0.41069 0.92707 0.0
C925 C 0.79872 0.41011 0.84966 0.0
C926 C 0.75795 0.37607 0.93696 0.0
C927 C 0.8049 0.42324 0.97723 0.0
H928 H 0.75112 0.42201 0.16517 0.0
H929 H 0.79003 0.38208 0.20668 0.0
H930 H 0.76344 0.43284 0.9839 0.0
H931 H 0.74732 0.41599 0.9698 0.0
H932 H 0.74422 0.43205 0.04373 0.0
H933 H 0.80553 0.36812 0.10918 0.0
H934 H 0.79489 0.36784 0.0182 0.0
H935 H 0.81156 0.38386 0.03766 0.0
H936 H 0.76926 0.37911 0.79269 0.0
H937 H 0.80878 0.41876 0.8272 0.0
H938 H 0.74734 0.38391 0.96406 0.0
H939 H 0.76349 0.36722 0.98081 0.0
H940 H 0.75202 0.36788 0.89158 0.0
H941 H 0.79565 0.43251 0.00509 0.0
H942 H 0.81485 0.431 0.94544 0.0
H943 H 0.81174 0.4158 0.02252 0.0
C944 C 0.60959 0.76011 0.1156 0.0
C945 C 0.59791 0.76896 0.16371 0.0
C946 C 0.61025 0.76402 0.03821 0.0
C947 C 0.59862 0.77678 0.00789 0.0
C948 C 0.58671 0.7857 0.0563 0.0
C949 C 0.58668 0.78184 0.13392 0.0
C950 C 0.62348 0.75458 0.98898 0.0
C951 C 0.57384 0.79912 0.02594 0.0
C952 C 0.60966 0.79799 0.81916 0.0
C953 C 0.59985 0.78765 0.76888 0.0
C954 C 0.60949 0.79454 0.89708 0.0
C955 C 0.59887 0.7807 0.92545 0.0
C956 C 0.58871 0.77039 0.87486 0.0
C957 C 0.58951 0.77385 0.79701 0.0
C958 C 0.62087 0.80554 0.94885 0.0
C959 C 0.57691 0.75578 0.90301 0.0
H960 H 0.61845 0.75032 0.13899 0.0
H961 H 0.57759 0.78858 0.17125 0.0
H962 H 0.61653 0.74687 0.94484 0.0
H963 H 0.63198 0.76431 0.95966 0.0
H964 H 0.63201 0.74548 0.02183 0.0
H965 H 0.56522 0.80463 0.07083 0.0
H966 H 0.58107 0.81011 0.99871 0.0
H967 H 0.56541 0.79297 0.98201 0.0
H968 H 0.61775 0.80857 0.79709 0.0
H969 H 0.58176 0.76601 0.75809 0.0
H970 H 0.63019 0.79691 0.97997 0.0
H971 H 0.61257 0.81228 0.99153 0.0
H972 H 0.62856 0.81564 0.91767 0.0
H973 H 0.58491 0.74554 0.93164 0.0
H974 H 0.56933 0.74946 0.85664 0.0
H975 H 0.56748 0.76105 0.94527 0.0
C976 C 0.21401 0.58719 0.15989 0.0
C977 C 0.2287 0.59589 0.19021 0.0
C978 C 0.21016 0.58813 0.08227 0.0
C979 C 0.221 0.59841 0.03415 0.0
C980 C 0.23567 0.60746 0.0649 0.0
C981 C 0.23945 0.60592 0.1423 0.0
C982 C 0.19461 0.57799 0.05164 0.0
C983 C 0.24726 0.61895 0.01618 0.0
C984 C 0.22186 0.58975 0.82211 0.0
C985 C 0.21004 0.60245 0.79512 0.0
C986 C 0.22529 0.58806 0.89984 0.0
C987 C 0.21705 0.59968 0.95166 0.0
C988 C 0.20524 0.61269 0.92444 0.0
C989 C 0.2017 0.61374 0.84661 0.0
C990 C 0.23761 0.57374 0.92657 0.0
C991 C 0.19651 0.62562 0.97739 0.0
H992 H 0.20575 0.57938 0.19685 0.0
H993 H 0.25063 0.61289 0.16587 0.0
H994 H 0.18496 0.5872 0.02605 0.0
H995 H 0.19904 0.5689 0.00639 0.0
H996 H 0.18782 0.5702 0.09606 0.0
H997 H 0.25785 0.62552 0.04915 0.0
H998 H 0.25345 0.61093 0.97105 0.0
H999 H 0.23918 0.62923 0.9881 0.0
H1000 H 0.22812 0.58087 0.7824 0.0
H1001 H 0.19265 0.62363 0.82557 0.0
H1002 H 0.2308 0.56522 0.96832 0.0
H1003 H 0.24915 0.57967 0.95542 0.0
H1004 H 0.24242 0.56536 0.87943 0.0
H1005 H 0.18836 0.61849 0.01942 0.0
H1006 H 0.18797 0.63518 0.94708 0.0
H1007 H 0.20669 0.63305 0.00921 0.0
C1008 C 0.41279 0.23917 0.12094 0.0
C1009 C 0.40218 0.22995 0.1724 0.0
C1010 C 0.41195 0.23566 0.04312 0.0
C1011 C 0.4001 0.22271 0.01588 0.0
C1012 C 0.38919 0.21352 0.06738 0.0
C1013 C 0.39042 0.21718 0.14497 0.0
C1014 C 0.42394 0.24563 0.99016 0.0
C1015 C 0.37631 0.1997 0.04058 0.0
C1016 C 0.38781 0.2238 0.80737 0.0
C1017 C 0.3986 0.21049 0.77768 0.0
C1018 C 0.38805 0.22784 0.88484 0.0
C1019 C 0.39948 0.21846 0.93371 0.0
C1020 C 0.41043 0.20504 0.904 0.0
C1021 C 0.40981 0.20119 0.82651 0.0
C1022 C 0.37602 0.2421 0.91449 0.0
C1023 C 0.42293 0.19485 0.95398 0.0
H1024 H 0.42205 0.24888 0.14172 0.0
H1025 H 0.382 0.21017 0.18416 0.0
H1026 H 0.43275 0.23627 0.96029 0.0
H1027 H 0.41603 0.25253 0.94657 0.0
H1028 H 0.4322 0.25549 0.02015 0.0
H1029 H 0.36788 0.19469 0.08702 0.0
H1030 H 0.3677 0.20516 0.99568 0.0
H1031 H 0.38361 0.18842 0.01579 0.0
H1032 H 0.379 0.23089 0.77004 0.0
H1033 H 0.4184 0.19109 0.80386 0.0
H1034 H 0.38393 0.25268 0.94133 0.0
H1035 H 0.36721 0.23661 0.95859 0.0
H1036 H 0.36778 0.24803 0.86928 0.0
H1037 H 0.4323 0.20403 0.98168 0.0
H1038 H 0.43059 0.18484 0.92207 0.0
H1039 H 0.41548 0.18809 0.99939 0.0
C1040 C 0.32178 0.1525 0.10783 0.0
C1041 C 0.31933 0.13421 0.10354 0.0
C1042 C 0.33192 0.16007 0.16558 0.0
C1043 C 0.34015 0.14907 0.21974 0.0
C1044 C 0.33824 0.13054 0.21426 0.0
C1045 C 0.32765 0.12333 0.15675 0.0
C1046 C 0.33304 0.17991 0.17064 0.0
C1047 C 0.34709 0.11836 0.26994 0.0
C1048 C 0.3764 0.17213 0.33033 0.0
C1049 C 0.36742 0.17718 0.39612 0.0
C1050 C 0.36798 0.16212 0.2741 0.0
C1051 C 0.3501 0.15719 0.28352 0.0
C1052 C 0.34123 0.16156 0.35133 0.0
C1053 C 0.35003 0.17139 0.40696 0.0
C1054 C 0.37796 0.1575 0.20306 0.0
C1055 C 0.32212 0.15674 0.36344 0.0
H1056 H 0.31518 0.16103 0.06768 0.0
H1057 H 0.3258 0.10918 0.15371 0.0
H1058 H 0.32492 0.18451 0.21889 0.0
H1059 H 0.34677 0.18425 0.18128 0.0
H1060 H 0.32819 0.18645 0.1185 0.0
H1061 H 0.34574 0.10429 0.25356 0.0
H1062 H 0.36131 0.12161 0.27467 0.0
H1063 H 0.34118 0.12014 0.3267 0.0
H1064 H 0.38989 0.17636 0.32185 0.0
H1065 H 0.34296 0.17521 0.45755 0.0
H1066 H 0.3721 0.16455 0.15425 0.0
H1067 H 0.37686 0.14318 0.19145 0.0
H1068 H 0.39213 0.16108 0.20684 0.0
H1069 H 0.31379 0.16392 0.32211 0.0
H1070 H 0.31749 0.16004 0.42126 0.0
H1071 H 0.32005 0.14246 0.35373 0.0
C1072 C 0.82992 0.3512 0.4283 0.0
C1073 C 0.82389 0.36853 0.41843 0.0
C1074 C 0.83969 0.34264 0.37183 0.0
C1075 C 0.84378 0.35172 0.30422 0.0
C1076 C 0.83866 0.36957 0.29587 0.0
C1077 C 0.8287 0.37774 0.3529 0.0
C1078 C 0.8447 0.32354 0.38275 0.0
C1079 C 0.84291 0.37974 0.22495 0.0
C1080 C 0.87721 0.32987 0.17365 0.0
C1081 C 0.86614 0.32163 0.12091 0.0
C1082 C 0.87019 0.34023 0.2323 0.0
C1083 C 0.85167 0.34199 0.23939 0.0
C1084 C 0.84048 0.33383 0.18574 0.0
C1085 C 0.84786 0.32392 0.12685 0.0
C1086 C 0.88257 0.349 0.28746 0.0
C1087 C 0.82065 0.33473 0.19258 0.0
H1088 H 0.82629 0.34396 0.4787 0.0
H1089 H 0.82428 0.3912 0.34517 0.0
H1090 H 0.83752 0.31527 0.34122 0.0
H1091 H 0.85899 0.32164 0.37244 0.0
H1092 H 0.84156 0.31872 0.44042 0.0
H1093 H 0.83946 0.39393 0.23002 0.0
H1094 H 0.85715 0.37857 0.21153 0.0
H1095 H 0.83548 0.37411 0.17668 0.0
H1096 H 0.89136 0.32812 0.16935 0.0
H1097 H 0.83918 0.31737 0.08713 0.0
H1098 H 0.88108 0.34292 0.34404 0.0
H1099 H 0.87924 0.36318 0.2932 0.0
H1100 H 0.89657 0.34779 0.2699 0.0
H1101 H 0.81634 0.326 0.23933 0.0
H1102 H 0.81394 0.33041 0.13998 0.0
H1103 H 0.8162 0.34826 0.20648 0.0
C1104 C 0.65091 0.82323 0.39088 0.0
C1105 C 0.63272 0.82004 0.38811 0.0
C1106 C 0.65923 0.83367 0.33614 0.0
C1107 C 0.64905 0.84149 0.27808 0.0
C1108 C 0.63055 0.83897 0.27685 0.0
C1109 C 0.62262 0.82804 0.33128 0.0
C1110 C 0.67905 0.83555 0.33834 0.0
C1111 C 0.61919 0.84746 0.2171 0.0
C1112 C 0.6731 0.87787 0.17252 0.0
C1113 C 0.67914 0.86886 0.1084 0.0
C1114 C 0.66244 0.86941 0.22634 0.0
C1115 C 0.65805 0.85141 0.21658 0.0
C1116 C 0.66364 0.84243 0.1507 0.0
C1117 C 0.67394 0.85131 0.09707 0.0
C1118 C 0.65636 0.87955 0.2949 0.0
C1119 C 0.65956 0.82314 0.13874 0.0
H1120 H 0.65883 0.81692 0.43405 0.0
H1121 H 0.60854 0.82564 0.32904 0.0
H1122 H 0.68487 0.82852 0.28938 0.0
H1123 H 0.68294 0.84958 0.33361 0.0
H1124 H 0.68484 0.83006 0.39093 0.0
H1125 H 0.6049 0.84594 0.22928 0.0
H1126 H 0.62229 0.86171 0.21247 0.0
H1127 H 0.62197 0.84139 0.1614 0.0
H1128 H 0.67696 0.89148 0.18131 0.0
H1129 H 0.67863 0.84421 0.0479 0.0
H1130 H 0.6625 0.87397 0.34646 0.0
H1131 H 0.64187 0.87828 0.30145 0.0
H1132 H 0.65981 0.89376 0.29147 0.0
H1133 H 0.66599 0.81521 0.18363 0.0
H1134 H 0.6642 0.81829 0.08299 0.0
H1135 H 0.64517 0.82077 0.14291 0.0
C1136 C 0.1774 0.65212 0.39128 0.0
C1137 C 0.17947 0.6338 0.39675 0.0
C1138 C 0.16771 0.65971 0.33222 0.0
C1139 C 0.15954 0.64871 0.27787 0.0
C1140 C 0.16108 0.63017 0.28441 0.0
C1141 C 0.17122 0.62293 0.34329 0.0
C1142 C 0.16707 0.67956 0.32599 0.0
C1143 C 0.1523 0.618 0.22847 0.0
C1144 C 0.12407 0.67203 0.16387 0.0
C1145 C 0.13339 0.67689 0.09869 0.0
C1146 C 0.13213 0.66202 0.22102 0.0
C1147 C 0.14997 0.65682 0.21304 0.0
C1148 C 0.15917 0.66096 0.14579 0.0
C1149 C 0.15074 0.67084 0.08928 0.0
C1150 C 0.12185 0.65781 0.2917 0.0
C1151 C 0.17826 0.65586 0.13527 0.0
H1152 H 0.18398 0.66064 0.43152 0.0
H1153 H 0.17279 0.60876 0.34721 0.0
H1154 H 0.17619 0.68385 0.2806 0.0
H1155 H 0.1537 0.6842 0.31049 0.0
H1156 H 0.1711 0.68611 0.37939 0.0
H1157 H 0.15345 0.60394 0.24521 0.0
H1158 H 0.13813 0.62139 0.22284 0.0
H1159 H 0.15841 0.61965 0.17201 0.0
H1160 H 0.1106 0.67645 0.17129 0.0
H1161 H 0.15807 0.67449 0.03914 0.0
H1162 H 0.12736 0.66535 0.33992 0.0
H1163 H 0.12307 0.6436 0.30559 0.0
H1164 H 0.10766 0.66117 0.28606 0.0
H1165 H 0.18651 0.66292 0.17724 0.0
H1166 H 0.18319 0.65906 0.07783 0.0
H1167 H 0.18006 0.64154 0.14521 0.0
C1168 C 0.37869 0.82939 0.681 0.0
C1169 C 0.36817 0.82116 0.62628 0.0
C1170 C 0.37113 0.84007 0.73726 0.0
C1171 C 0.35257 0.84209 0.74013 0.0
C1172 C 0.34194 0.83397 0.68431 0.0
C1173 C 0.34988 0.8238 0.62763 0.0
C1174 C 0.38294 0.84887 0.79454 0.0
C1175 C 0.32206 0.83514 0.68671 0.0
C1176 C 0.32935 0.85146 0.92563 0.0
C1177 C 0.32361 0.86887 0.91518 0.0
C1178 C 0.33938 0.8428 0.87035 0.0
C1179 C 0.34406 0.85185 0.80339 0.0
C1180 C 0.33916 0.86975 0.79438 0.0
C1181 C 0.32889 0.87801 0.85016 0.0
C1182 C 0.34409 0.82364 0.88183 0.0
C1183 C 0.3441 0.87991 0.72426 0.0
H1184 H 0.39284 0.82738 0.6801 0.0
H1185 H 0.34164 0.81724 0.58627 0.0
H1186 H 0.37964 0.86307 0.79923 0.0
H1187 H 0.38083 0.84288 0.85093 0.0
H1188 H 0.39711 0.84757 0.77975 0.0
H1189 H 0.31593 0.83068 0.63306 0.0
H1190 H 0.31709 0.82669 0.73317 0.0
H1191 H 0.31766 0.84879 0.69852 0.0
H1192 H 0.32532 0.84426 0.97558 0.0
H1193 H 0.32466 0.89152 0.84193 0.0
H1194 H 0.35844 0.82158 0.87383 0.0
H1195 H 0.33719 0.81547 0.83905 0.0
H1196 H 0.3404 0.81881 0.9389 0.0
H1197 H 0.35844 0.87862 0.71313 0.0
H1198 H 0.34074 0.89412 0.72891 0.0
H1199 H 0.33706 0.87436 0.67478 0.0
C1200 C 0.12174 0.33086 0.8439 0.0
C1201 C 0.13193 0.32297 0.90066 0.0
C1202 C 0.12962 0.34128 0.78752 0.0
C1203 C 0.14818 0.34345 0.78683 0.0
C1204 C 0.15847 0.33575 0.84486 0.0
C1205 C 0.1502 0.32579 0.90136 0.0
C1206 C 0.11817 0.3495 0.72743 0.0
C1207 C 0.17834 0.33701 0.84503 0.0
C1208 C 0.17232 0.35142 0.60219 0.0
C1209 C 0.17767 0.36903 0.60988 0.0
C1210 C 0.16223 0.34312 0.65827 0.0
C1211 C 0.15705 0.35273 0.72309 0.0
C1212 C 0.16168 0.37075 0.72951 0.0
C1213 C 0.17205 0.37866 0.67309 0.0
C1214 C 0.15799 0.32378 0.65005 0.0
C1215 C 0.15634 0.38145 0.79762 0.0
H1216 H 0.10761 0.32873 0.84307 0.0
H1217 H 0.15824 0.31952 0.94426 0.0
H1218 H 0.12143 0.36368 0.72093 0.0
H1219 H 0.12073 0.34303 0.67234 0.0
H1220 H 0.10391 0.34823 0.74057 0.0
H1221 H 0.18393 0.33423 0.90178 0.0
H1222 H 0.18373 0.32716 0.80487 0.0
H1223 H 0.18293 0.35017 0.82642 0.0
H1224 H 0.17669 0.34382 0.55389 0.0
H1225 H 0.17605 0.39229 0.67928 0.0
H1226 H 0.14377 0.3214 0.66018 0.0
H1227 H 0.16541 0.31617 0.69306 0.0
H1228 H 0.16148 0.31863 0.59327 0.0
H1229 H 0.14193 0.38029 0.80714 0.0
H1230 H 0.1598 0.3956 0.79151 0.0
H1231 H 0.16303 0.37621 0.84863 0.0
C1232 C 0.67223 0.12273 0.8261 0.0
C1233 C 0.67754 0.13159 0.89183 0.0
C1234 C 0.66191 0.13121 0.77111 0.0
C1235 C 0.65701 0.14906 0.78155 0.0
C1236 C 0.66168 0.15782 0.84931 0.0
C1237 C 0.67175 0.14893 0.90386 0.0
C1238 C 0.6568 0.12128 0.70056 0.0
C1239 C 0.65695 0.17692 0.86235 0.0
C1240 C 0.65183 0.17753 0.60678 0.0
C1241 C 0.63354 0.18011 0.60375 0.0
C1242 C 0.65955 0.16732 0.66387 0.0
C1243 C 0.6487 0.15912 0.71862 0.0
C1244 C 0.63015 0.16115 0.71443 0.0
C1245 C 0.6228 0.17182 0.65756 0.0
C1246 C 0.6794 0.16591 0.66732 0.0
C1247 C 0.61812 0.15233 0.77076 0.0
H1248 H 0.67647 0.10926 0.81683 0.0
H1249 H 0.6758 0.1559 0.95438 0.0
H1250 H 0.64229 0.1218 0.6928 0.0
H1251 H 0.66284 0.1276 0.6504 0.0
H1252 H 0.66102 0.10727 0.70235 0.0
H1253 H 0.66045 0.18143 0.92011 0.0
H1254 H 0.66401 0.18529 0.82085 0.0
H1255 H 0.64263 0.17904 0.8536 0.0
H1256 H 0.66026 0.18405 0.56603 0.0
H1257 H 0.60865 0.17375 0.65548 0.0
H1258 H 0.68354 0.15193 0.67119 0.0
H1259 H 0.68427 0.17266 0.71887 0.0
H1260 H 0.68588 0.17195 0.61738 0.0
H1261 H 0.62142 0.13813 0.77572 0.0
H1262 H 0.60401 0.15362 0.75489 0.0
H1263 H 0.61999 0.15833 0.8273 0.0
C1264 C 0.83079 0.64975 0.58739 0.0
C1265 C 0.82478 0.63242 0.59768 0.0
C1266 C 0.84065 0.65837 0.64346 0.0
C1267 C 0.84482 0.64936 0.71117 0.0
C1268 C 0.83968 0.63153 0.72004 0.0
C1269 C 0.82967 0.6233 0.66333 0.0
C1270 C 0.8457 0.67744 0.63194 0.0
C1271 C 0.844 0.62144 0.7911 0.0
C1272 C 0.87866 0.67116 0.8401 0.0
C1273 C 0.86776 0.67953 0.8931 0.0
C1274 C 0.87146 0.6608 0.78186 0.0
C1275 C 0.85291 0.65914 0.77549 0.0
C1276 C 0.84189 0.66742 0.8294 0.0
C1277 C 0.84945 0.67735 0.88783 0.0
C1278 C 0.88366 0.6519 0.72639 0.0
C1279 C 0.82204 0.66661 0.82337 0.0
H1280 H 0.82711 0.65693 0.53689 0.0
H1281 H 0.82528 0.60984 0.67141 0.0
H1282 H 0.83855 0.68579 0.67328 0.0
H1283 H 0.86 0.67932 0.64209 0.0
H1284 H 0.84254 0.68217 0.57415 0.0
H1285 H 0.84051 0.60726 0.78647 0.0
H1286 H 0.85826 0.62259 0.80415 0.0
H1287 H 0.83666 0.62717 0.83941 0.0
H1288 H 0.89283 0.67281 0.84386 0.0
H1289 H 0.8409 0.68399 0.92777 0.0
H1290 H 0.88201 0.65787 0.66967 0.0
H1291 H 0.88029 0.63772 0.72134 0.0
H1292 H 0.89771 0.65311 0.7432 0.0
H1293 H 0.81766 0.6752 0.77627 0.0
H1294 H 0.81546 0.67112 0.87597 0.0
H1295 H 0.81751 0.65306 0.81044 0.0
C1296 C 0.29835 0.04048 0.03252 0.0
C1297 C 0.28591 0.04749 0.98217 0.0
C1298 C 0.30096 0.02211 0.03781 0.0
C1299 C 0.29089 0.01059 0.99176 0.0
C1300 C 0.27916 0.01774 0.9377 0.0
C1301 C 0.27684 0.03603 0.93361 0.0
C1302 C 0.31375 0.01503 0.09553 0.0
C1303 C 0.26817 0.00603 0.88725 0.0
C1304 C 0.29859 0.96118 0.96906 0.0
C1305 C 0.28546 0.95432 0.01646 0.0
C1306 C 0.30132 0.97952 0.96347 0.0
C1307 C 0.29064 0.9912 0.00609 0.0
C1308 C 0.27802 0.98424 0.0568 0.0
C1309 C 0.27562 0.96596 0.06136 0.0
C1310 C 0.31504 0.98641 0.90939 0.0
C1311 C 0.26632 0.99612 0.10342 0.0
H1312 H 0.30548 0.04924 0.06998 0.0
H1313 H 0.2674 0.04132 0.89365 0.0
H1314 H 0.30631 0.00926 0.14345 0.0
H1315 H 0.32194 0.00439 0.07079 0.0
H1316 H 0.32255 0.0255 0.1179 0.0
H1317 H 0.26093 0.01363 0.84353 0.0
H1318 H 0.2766 0.99613 0.85867 0.0
H1319 H 0.25841 0.99874 0.92195 0.0
H1320 H 0.30634 0.95229 0.93451 0.0
H1321 H 0.26559 0.96082 0.09896 0.0
H1322 H 0.32302 0.99692 0.93645 0.0
H1323 H 0.30843 0.99233 0.85961 0.0
H1324 H 0.32401 0.97582 0.88935 0.0
H1325 H 0.27437 0.00588 0.1348 0.0
H1326 H 0.25818 0.98865 0.14455 0.0
H1327 H 0.25735 0.00358 0.06559 0.0
C1328 C 0.03476 0.28139 0.07484 0.0
C1329 C 0.04572 0.28909 0.02022 0.0
C1330 C 0.01644 0.28361 0.07281 0.0
C1331 C 0.00875 0.2938 0.01456 0.0
C1332 C 0.0198 0.30264 0.96222 0.0
C1333 C 0.03821 0.30018 0.96566 0.0
C1334 C 0.00524 0.27399 0.13007 0.0
C1335 C 0.01214 0.31379 0.89982 0.0
C1336 C 0.96405 0.27616 0.95692 0.0
C1337 C 0.95245 0.28697 0.99771 0.0
C1338 C 0.98231 0.27889 0.95893 0.0
C1339 C 0.98928 0.29286 1.00263 0.0
C1340 C 0.97762 0.30443 0.04088 0.0
C1341 C 0.9593 0.30132 0.03815 0.0
C1342 C 0.99418 0.26618 0.91728 0.0
C1343 C 0.98453 0.3196 0.08732 0.0
H1344 H 0.04047 0.27302 0.11804 0.0
H1345 H 0.0466 0.30626 0.92351 0.0
H1346 H 0.99537 0.28303 0.15521 0.0
H1347 H 0.99793 0.2632 0.10164 0.0
H1348 H 0.01326 0.26819 0.1763 0.0
H1349 H 0.02232 0.32212 0.8723 0.0
H1350 H 0.00621 0.3051 0.8563 0.0
H1351 H 0.00151 0.32241 0.92186 0.0
H1352 H 0.95892 0.26516 0.92468 0.0
H1353 H 0.95043 0.30981 0.06944 0.0
H1354 H 0.00205 0.25848 0.95853 0.0
H1355 H 0.00357 0.27348 0.8809 0.0
H1356 H 0.98665 0.25681 0.88146 0.0
H1357 H 0.99077 0.31444 0.13948 0.0
H1358 H 0.97388 0.32888 0.10375 0.0
H1359 H 0.99479 0.32694 0.05565 0.0
C1360 C 0.72725 0.96809 0.08423 0.0
C1361 C 0.71751 0.95499 0.04752 0.0
C1362 C 0.72414 0.98599 0.06992 0.0
C1363 C 0.71134 0.99092 0.01559 0.0
C1364 C 0.70074 0.97774 0.98151 0.0
C1365 C 0.70384 0.95986 0.99858 0.0
C1366 C 0.73545 0.99958 0.10919 0.0
C1367 C 0.68714 0.98236 0.92265 0.0
C1368 C 0.7029 0.04035 0.00593 0.0
C1369 C 0.71618 0.04555 0.95568 0.0
C1370 C 0.70031 0.0224 0.02304 0.0
C1371 C 0.71102 0.00948 0.98772 0.0
C1372 C 0.72337 0.01473 0.93208 0.0
C1373 C 0.72599 0.0327 0.91772 0.0
C1374 C 0.68717 0.01744 0.08329 0.0
C1375 C 0.73476 0.00143 0.8915 0.0
H1376 H 0.73779 0.9643 0.1223 0.0
H1377 H 0.69643 0.9497 0.9695 0.0
H1378 H 0.74495 0.00527 0.06829 0.0
H1379 H 0.7272 0.01053 0.13094 0.0
H1380 H 0.743 0.99384 0.15697 0.0
H1381 H 0.67805 0.97118 0.91124 0.0
H1382 H 0.67928 0.99397 0.94039 0.0
H1383 H 0.69391 0.98587 0.86919 0.0
H1384 H 0.69547 0.05033 0.03602 0.0
H1385 H 0.73624 0.03677 0.87876 0.0
H1386 H 0.69434 0.01413 0.13605 0.0
H1387 H 0.67953 0.00562 0.06642 0.0
H1388 H 0.67787 0.02837 0.0956 0.0
H1389 H 0.74467 0.99599 0.93129 0.0
H1390 H 0.74186 0.00736 0.84288 0.0
H1391 H 0.72666 0.99027 0.8707 0.0
C1392 C 0.9618 0.69992 0.96856 0.0
C1393 C 0.95463 0.71234 0.01854 0.0
C1394 C 0.98019 0.69732 0.96429 0.0
C1395 C 0.99156 0.70739 0.01099 0.0
C1396 C 0.98424 0.71909 0.06475 0.0
C1397 C 0.96593 0.72139 0.06783 0.0
C1398 C 0.98746 0.68456 0.90689 0.0
C1399 C 0.99579 0.73009 0.11588 0.0
C1400 C 0.04097 0.70013 0.03638 0.0
C1401 C 0.04784 0.71336 0.98953 0.0
C1402 C 0.02264 0.69718 0.04074 0.0
C1403 C 0.01099 0.70776 0.99748 0.0
C1404 C 0.01799 0.72045 0.94719 0.0
C1405 C 0.03625 0.72305 0.9438 0.0
C1406 C 0.01572 0.68337 0.09429 0.0
C1407 C 0.00613 0.73204 0.89994 0.0
H1408 H 0.95315 0.6928 0.93056 0.0
H1409 H 0.96051 0.73082 0.10754 0.0
H1410 H 0.99323 0.69202 0.85903 0.0
H1411 H 0.99814 0.67647 0.93197 0.0
H1412 H 0.97708 0.67567 0.88435 0.0
H1413 H 0.98804 0.73728 0.15929 0.0
H1414 H 0.00564 0.72168 0.14488 0.0
H1415 H 0.00314 0.73988 0.08163 0.0
H1416 H 0.04983 0.6925 0.07152 0.0
H1417 H 0.0414 0.73315 0.90657 0.0
H1418 H 0.00529 0.67538 0.06677 0.0
H1419 H 0.00971 0.6899 0.14406 0.0
H1420 H 0.02633 0.67443 0.11441 0.0
H1421 H 0.99652 0.72392 0.86809 0.0
H1422 H 0.01366 0.74023 0.85915 0.0
H1423 H 0.9985 0.74096 0.93736 0.0
C1424 C 0.79932 0.46043 0.47606 0.0
C1425 C 0.78597 0.45362 0.52246 0.0
C1426 C 0.80225 0.47874 0.47125 0.0
C1427 C 0.79155 0.49044 0.51366 0.0
C1428 C 0.77869 0.48352 0.56335 0.0
C1429 C 0.77609 0.46527 0.56715 0.0
C1430 C 0.81621 0.48559 0.41822 0.0
C1431 C 0.76695 0.49545 0.60966 0.0
C1432 C 0.79982 0.53957 0.54194 0.0
C1433 C 0.78768 0.54682 0.4909 0.0
C1434 C 0.80213 0.52116 0.54703 0.0
C1435 C 0.79206 0.50985 0.50005 0.0
C1436 C 0.7806 0.51723 0.44551 0.0
C1437 C 0.77858 0.53556 0.44164 0.0
C1438 C 0.81462 0.51382 0.60533 0.0
C1439 C 0.76961 0.50574 0.39411 0.0
H1440 H 0.80709 0.45152 0.4417 0.0
H1441 H 0.76589 0.46016 0.60398 0.0
H1442 H 0.80982 0.49173 0.36839 0.0
H1443 H 0.82424 0.49593 0.44621 0.0
H1444 H 0.8251 0.47494 0.39815 0.0
H1445 H 0.75861 0.48798 0.65005 0.0
H1446 H 0.775 0.50506 0.64184 0.0
H1447 H 0.75819 0.50306 0.57155 0.0
H1448 H 0.80698 0.54819 0.57991 0.0
H1449 H 0.76936 0.54103 0.40117 0.0
H1450 H 0.82281 0.50316 0.58068 0.0
H1451 H 0.80695 0.508 0.65244 0.0
H1452 H 0.82344 0.52415 0.62881 0.0
H1453 H 0.77801 0.49579 0.36563 0.0
H1454 H 0.76258 0.5135 0.35028 0.0
H1455 H 0.75968 0.4985 0.42806 0.0
C1456 C 0.46783 0.77467 0.58813 0.0
C1457 C 0.45491 0.7844 0.5502 0.0
C1458 C 0.4858 0.77742 0.57382 0.0
C1459 C 0.49097 0.78984 0.51837 0.0
C1460 C 0.47798 0.80048 0.48314 0.0
C1461 C 0.46003 0.79774 0.50011 0.0
C1462 C 0.49916 0.76608 0.61426 0.0
C1463 C 0.48287 0.81372 0.4232 0.0
C1464 C 0.54059 0.79717 0.50827 0.0
C1465 C 0.54553 0.78357 0.45907 0.0
C1466 C 0.52269 0.80022 0.52507 0.0
C1467 C 0.50955 0.78965 0.49056 0.0
C1468 C 0.51453 0.77694 0.43596 0.0
C1469 C 0.53245 0.77389 0.42179 0.0
C1470 C 0.51799 0.81376 0.58408 0.0
C1471 C 0.501 0.76565 0.39628 0.0
H1472 H 0.46384 0.7644 0.62711 0.0
H1473 H 0.45001 0.80514 0.47013 0.0
H1474 H 0.5047 0.75627 0.57427 0.0
H1475 H 0.51025 0.77424 0.63539 0.0
H1476 H 0.49326 0.75886 0.66264 0.0
H1477 H 0.47189 0.82298 0.41117 0.0
H1478 H 0.49466 0.82139 0.44023 0.0
H1479 H 0.4862 0.80664 0.37025 0.0
H1480 H 0.55072 0.80455 0.5377 0.0
H1481 H 0.53629 0.76343 0.38341 0.0
H1482 H 0.51451 0.80694 0.63746 0.0
H1483 H 0.50634 0.82157 0.56641 0.0
H1484 H 0.52912 0.82289 0.59562 0.0
H1485 H 0.4953 0.7561 0.43692 0.0
H1486 H 0.50679 0.75816 0.34842 0.0
H1487 H 0.49005 0.7739 0.37455 0.0
C1488 C 0.20142 0.46078 0.54569 0.0
C1489 C 0.21579 0.45405 0.50496 0.0
C1490 C 0.19812 0.47906 0.54838 0.0
C1491 C 0.20951 0.49082 0.50977 0.0
C1492 C 0.22354 0.48398 0.46606 0.0
C1493 C 0.22647 0.46576 0.46413 0.0
C1494 C 0.18291 0.48582 0.59493 0.0
C1495 C 0.23606 0.49597 0.42405 0.0
C1496 C 0.2013 0.53956 0.47171 0.0
C1497 C 0.21236 0.54731 0.5258 0.0
C1498 C 0.19917 0.52111 0.46874 0.0
C1499 C 0.20827 0.51028 0.52116 0.0
C1500 C 0.21839 0.51821 0.57903 0.0
C1501 C 0.22032 0.53657 0.58052 0.0
C1502 C 0.18811 0.51318 0.40666 0.0
C1503 C 0.22826 0.50727 0.6364 0.0
H1504 H 0.19302 0.45183 0.57696 0.0
H1505 H 0.2375 0.46074 0.43174 0.0
H1506 H 0.18803 0.49236 0.64647 0.0
H1507 H 0.1753 0.49581 0.56283 0.0
H1508 H 0.17386 0.47506 0.61238 0.0
H1509 H 0.24553 0.48853 0.38835 0.0
H1510 H 0.22861 0.50521 0.38749 0.0
H1511 H 0.24367 0.50401 0.46506 0.0
H1512 H 0.19506 0.54779 0.42945 0.0
H1513 H 0.22865 0.54248 0.62335 0.0
H1514 H 0.17968 0.50244 0.42906 0.0
H1515 H 0.19687 0.50734 0.3632 0.0
H1516 H 0.17959 0.52318 0.37897 0.0
H1517 H 0.21943 0.49725 0.66185 0.0
H1518 H 0.23395 0.51544 0.6824 0.0
H1519 H 0.23917 0.50012 0.608 0.0
C1520 C 0.53588 0.22024 0.4211 0.0
C1521 C 0.54677 0.21252 0.47592 0.0
C1522 C 0.51755 0.21799 0.42264 0.0
C1523 C 0.50979 0.2078 0.4807 0.0
C1524 C 0.5208 0.19894 0.53321 0.0
C1525 C 0.53921 0.20139 0.53016 0.0
C1526 C 0.50642 0.22762 0.36517 0.0
C1527 C 0.51307 0.18781 0.5955 0.0
C1528 C 0.46511 0.22545 0.53868 0.0
C1529 C 0.45345 0.21459 0.49834 0.0
C1530 C 0.48336 0.22277 0.53618 0.0
C1531 C 0.49032 0.2088 0.49244 0.0
C1532 C 0.47863 0.19723 0.45433 0.0
C1533 C 0.46029 0.20029 0.45754 0.0
C1534 C 0.49526 0.23549 0.57764 0.0
C1535 C 0.48551 0.18207 0.40782 0.0
H1536 H 0.54164 0.22864 0.37816 0.0
H1537 H 0.54756 0.19532 0.57251 0.0
H1538 H 0.4965 0.21863 0.34011 0.0
H1539 H 0.49916 0.23848 0.39339 0.0
H1540 H 0.51449 0.23334 0.31891 0.0
H1541 H 0.52322 0.17946 0.62318 0.0
H1542 H 0.50713 0.19651 0.63893 0.0
H1543 H 0.50244 0.17921 0.57333 0.0
H1544 H 0.46 0.23643 0.57111 0.0
H1545 H 0.45139 0.19176 0.42661 0.0
H1546 H 0.50316 0.24313 0.5363 0.0
H1547 H 0.50463 0.2282 0.61419 0.0
H1548 H 0.48775 0.24492 0.61328 0.0
H1549 H 0.49189 0.18723 0.35598 0.0
H1550 H 0.47483 0.17286 0.39085 0.0
H1551 H 0.49566 0.17463 0.43972 0.0
C1552 C 0.23462 0.18254 0.01012 0.0
C1553 C 0.22918 0.16497 1.00197 0.0
C1554 C 0.22232 0.19641 0.00925 0.0
C1555 C 0.20416 0.19261 1.00047 0.0
C1556 C 0.1986 0.17489 0.99282 0.0
C1557 C 0.21116 0.16131 0.99365 0.0
C1558 C 0.22876 0.21514 0.01724 0.0
C1559 C 0.17935 0.17024 0.98395 0.0
C1560 C 0.16927 0.22539 0.06415 0.0
C1561 C 0.16378 0.2327 0.99525 0.0
C1562 C 0.18269 0.21265 0.0669 0.0
C1563 C 0.19087 0.20708 0.99912 0.0
C1564 C 0.18571 0.21472 0.9296 0.0
C1565 C 0.17222 0.2274 0.92848 0.0
C1566 C 0.18782 0.20485 0.14218 0.0
C1567 C 0.1941 0.20914 0.85609 0.0
H1568 H 0.24853 0.18547 0.01607 0.0
H1569 H 0.20681 0.14776 0.98877 0.0
H1570 H 0.22496 0.22289 0.96669 0.0
H1571 H 0.22244 0.22147 0.06677 0.0
H1572 H 0.2433 0.21588 0.02416 0.0
H1573 H 0.1772 0.15581 0.97873 0.0
H1574 H 0.17178 0.17513 0.03329 0.0
H1575 H 0.17388 0.17678 0.93306 0.0
H1576 H 0.163 0.22959 0.11612 0.0
H1577 H 0.16792 0.23277 0.87485 0.0
H1578 H 0.20221 0.20631 0.1514 0.0
H1579 H 0.18485 0.19053 0.14258 0.0
H1580 H 0.18075 0.21115 0.19 0.0
H1581 H 0.20865 0.21035 0.85979 0.0
H1582 H 0.18939 0.21711 0.80751 0.0
H1583 H 0.19107 0.19508 0.84486 0.0
C1584 C 0.82641 0.22629 0.0803 0.0
C1585 C 0.83287 0.23389 0.01357 0.0
C1586 C 0.81304 0.21348 0.07835 0.0
C1587 C 0.80598 0.20809 0.00801 0.0
C1588 C 0.81206 0.21609 0.94068 0.0
C1589 C 0.82541 0.22888 0.94428 0.0
C1590 C 0.80693 0.20525 0.15141 0.0
C1591 C 0.80484 0.21077 0.86456 0.0
C1592 C 0.78694 0.16191 0.99294 0.0
C1593 C 0.76873 0.16511 0.99599 0.0
C1594 C 0.79915 0.17577 0.99715 0.0
C1595 C 0.79305 0.19332 0.00438 0.0
C1596 C 0.7747 0.19668 0.00739 0.0
C1597 C 0.76276 0.18253 1.00305 0.0
C1598 C 0.8186 0.17162 0.99331 0.0
C1599 C 0.76769 0.2152 0.01524 0.0
H1600 H 0.83223 0.22989 0.13401 0.0
H1601 H 0.83016 0.23487 0.89257 0.0
H1602 H 0.79236 0.20596 0.1558 0.0
H1603 H 0.81062 0.1911 0.15236 0.0
H1604 H 0.81279 0.21177 0.20164 0.0
H1605 H 0.81022 0.21897 0.818 0.0
H1606 H 0.80813 0.19678 0.85315 0.0
H1607 H 0.79026 0.2119 0.86426 0.0
H1608 H 0.79169 0.14854 0.98599 0.0
H1609 H 0.74872 0.1851 0.00604 0.0
H1610 H 0.82535 0.17666 0.04452 0.0
H1611 H 0.82459 0.17832 0.94393 0.0
H1612 H 0.82119 0.15725 0.98857 0.0
H1613 H 0.77286 0.22129 0.06773 0.0
H1614 H 0.75306 0.2156 0.01683 0.0
H1615 H 0.77231 0.2234 0.96733 0.0
C1616 C 0.81965 0.76376 0.98447 0.0
C1617 C 0.83715 0.76912 0.99602 0.0
C1618 C 0.80574 0.77601 0.98567 0.0
C1619 C 0.80943 0.79407 0.99846 0.0
C1620 C 0.82707 0.79957 0.00944 0.0
C1621 C 0.84069 0.78706 0.00801 0.0
C1622 C 0.7871 0.76963 0.97388 0.0
C1623 C 0.83159 0.81871 0.02281 0.0
C1624 C 0.77711 0.8298 0.93904 0.0
C1625 C 0.76939 0.83444 0.00824 0.0
C1626 C 0.78979 0.81634 0.93463 0.0
C1627 C 0.7949 0.80729 1.00103 0.0
C1628 C 0.78681 0.81158 0.07071 0.0
C1629 C 0.77418 0.8251 0.07349 0.0
C1630 C 0.79804 0.81211 0.85919 0.0
C1631 C 0.79193 0.80228 0.14284 0.0
H1632 H 0.8168 0.74991 0.97568 0.0
H1633 H 0.85419 0.79139 0.01546 0.0
H1634 H 0.77901 0.77273 0.02437 0.0
H1635 H 0.78105 0.77659 0.92528 0.0
H1636 H 0.78647 0.75522 0.96332 0.0
H1637 H 0.84597 0.82083 0.03012 0.0
H1638 H 0.82698 0.82681 0.97458 0.0
H1639 H 0.82471 0.82356 0.07403 0.0
H1640 H 0.77332 0.8368 0.88823 0.0
H1641 H 0.76849 0.82874 0.12739 0.0
H1642 H 0.79676 0.79783 0.84687 0.0
H1643 H 0.81233 0.81519 0.86087 0.0
H1644 H 0.79193 0.81967 0.81227 0.0
H1645 H 0.79078 0.78781 0.13567 0.0
H1646 H 0.78362 0.80637 0.19144 0.0
H1647 H 0.8059 0.8052 0.15647 0.0
C1648 C 0.18353 0.76324 0.01076 0.0
C1649 C 0.16588 0.76877 0.00739 0.0
C1650 C 0.19742 0.77551 0.01113 0.0
C1651 C 0.19361 0.79377 0.00772 0.0
C1652 C 0.17585 0.79943 0.00443 0.0
C1653 C 0.16224 0.78691 0.00468 0.0
C1654 C 0.21619 0.76895 0.01495 0.0
C1655 C 0.1712 0.81877 1.00076 0.0
C1656 C 0.22674 0.82801 0.07477 0.0
C1657 C 0.23366 0.83421 0.00629 0.0
C1658 C 0.2141 0.81448 0.07622 0.0
C1659 C 0.20812 0.80704 0.00749 0.0
C1660 C 0.21534 0.81297 0.93827 0.0
C1661 C 0.22805 0.82644 0.93851 0.0
C1662 C 0.20686 0.80843 0.15125 0.0
C1663 C 0.20923 0.80548 0.86374 0.0
H1664 H 0.1865 0.74927 0.01224 0.0
H1665 H 0.14868 0.79138 1.00377 0.0
H1666 H 0.22355 0.77334 0.96422 0.0
H1667 H 0.22293 0.77467 0.06487 0.0
H1668 H 0.21694 0.75436 0.01856 0.0
H1669 H 0.15675 0.821 0.99743 0.0
H1670 H 0.17635 0.82566 0.05141 0.0
H1671 H 0.1775 0.8249 0.95069 0.0
H1672 H 0.23116 0.83383 0.12737 0.0
H1673 H 0.23315 0.83131 0.88531 0.0
H1674 H 0.20823 0.79393 0.15673 0.0
H1675 H 0.19258 0.81152 0.15454 0.0
H1676 H 0.21362 0.81481 0.19973 0.0
H1677 H 0.21048 0.79092 0.8639 0.0
H1678 H 0.21682 0.81082 0.81524 0.0
H1679 H 0.19508 0.80862 0.85517 0.0
C1680 C 0.67438 0.72515 0.42403 0.0
C1681 C 0.6666 0.73152 0.49053 0.0
C1682 C 0.68802 0.71264 0.4265 0.0
C1683 C 0.69408 0.70637 0.49719 0.0
C1684 C 0.68661 0.7131 0.56458 0.0
C1685 C 0.67294 0.72555 0.56042 0.0
C1686 C 0.69553 0.70571 0.35336 0.0
C1687 C 0.69279 0.70684 0.64105 0.0
C1688 C 0.71454 0.66069 0.50272 0.0
C1689 C 0.73265 0.66449 0.50383 0.0
C1690 C 0.70191 0.67419 0.5007 0.0
C1691 C 0.70745 0.692 0.50044 0.0
C1692 C 0.72569 0.69598 0.50256 0.0
C1693 C 0.73807 0.68218 0.50413 0.0
C1694 C 0.6826 0.66936 0.49864 0.0
C1695 C 0.73211 0.7148 0.50257 0.0
H1696 H 0.6694 0.7295 0.36978 0.0
H1697 H 0.66711 0.73056 0.61202 0.0
H1698 H 0.71008 0.70709 0.35316 0.0
H1699 H 0.69251 0.69146 0.34791 0.0
H1700 H 0.69012 0.71267 0.30329 0.0
H1701 H 0.68639 0.71415 0.68801 0.0
H1702 H 0.68981 0.69261 0.64762 0.0
H1703 H 0.70728 0.70839 0.64601 0.0
H1704 H 0.71018 0.6471 0.50421 0.0
H1705 H 0.75202 0.68525 0.50446 0.0
H1706 H 0.67637 0.67493 0.44722 0.0
H1707 H 0.67572 0.67513 0.54807 0.0
H1708 H 0.68047 0.65488 0.49891 0.0
H1709 H 0.72772 0.72154 0.45024 0.0
H1710 H 0.7467 0.7157 0.50627 0.0
H1711 H 0.72629 0.72207 0.55088 0.0
C1712 C 0.32888 0.72555 0.4467 0.0
C1713 C 0.33422 0.73236 0.51676 0.0
C1714 C 0.31542 0.71289 0.4417 0.0
C1715 C 0.30703 0.70691 0.50835 0.0
C1716 C 0.31198 0.71412 0.579 0.0
C1717 C 0.32553 0.72671 0.58239 0.0
C1718 C 0.31052 0.70555 0.36528 0.0
C1719 C 0.30336 0.7081 0.65138 0.0
C1720 C 0.26348 0.68216 0.49346 0.0
C1721 C 0.26901 0.6646 0.50072 0.0
C1722 C 0.27569 0.6961 0.49562 0.0
C1723 C 0.29386 0.69237 0.50474 0.0
C1724 C 0.29952 0.67466 0.51113 0.0
C1725 C 0.28705 0.66102 0.50909 0.0
C1726 C 0.26913 0.71482 0.48896 0.0
C1727 C 0.31879 0.67009 0.52024 0.0
H1728 H 0.33534 0.73002 0.39561 0.0
H1729 H 0.32971 0.73167 0.6369 0.0
H1730 H 0.31366 0.69128 0.36322 0.0
H1731 H 0.29614 0.70691 0.35566 0.0
H1732 H 0.31763 0.71225 0.31855 0.0
H1733 H 0.30782 0.71586 0.70102 0.0
H1734 H 0.28882 0.70921 0.6468 0.0
H1735 H 0.30648 0.69401 0.6615 0.0
H1736 H 0.24955 0.68502 0.48742 0.0
H1737 H 0.29147 0.64747 0.51328 0.0
H1738 H 0.27563 0.72147 0.44066 0.0
H1739 H 0.27264 0.72231 0.54062 0.0
H1740 H 0.25463 0.71549 0.48089 0.0
H1741 H 0.32644 0.67538 0.47193 0.0
H1742 H 0.32104 0.65565 0.52371 0.0
H1743 H 0.32407 0.67631 0.57223 0.0
C1744 C 0.33857 0.28679 0.49704 0.0
C1745 C 0.33506 0.26863 0.49348 0.0
C1746 C 0.32487 0.29919 0.50033 0.0
C1747 C 0.30714 0.29339 0.49916 0.0
C1748 C 0.30345 0.27512 0.49473 0.0
C1749 C 0.31745 0.26296 0.49215 0.0
C1750 C 0.32939 0.31855 0.505 0.0
C1751 C 0.28472 0.26842 0.49293 0.0
C1752 C 0.27316 0.32566 0.57577 0.0
C1753 C 0.26714 0.3338 0.50947 0.0
C1754 C 0.28582 0.31215 0.57314 0.0
C1755 C 0.29255 0.30655 0.50248 0.0
C1756 C 0.28607 0.31431 0.43524 0.0
C1757 C 0.27352 0.32788 0.43957 0.0
C1758 C 0.29248 0.30434 0.64615 0.0
C1759 C 0.29275 0.30859 0.35876 0.0
H1760 H 0.35209 0.29138 0.49634 0.0
H1761 H 0.31458 0.24898 0.49003 0.0
H1762 H 0.32383 0.32562 0.45563 0.0
H1763 H 0.32342 0.3244 0.55638 0.0
H1764 H 0.34384 0.32088 0.50659 0.0
H1765 H 0.28406 0.25384 0.48806 0.0
H1766 H 0.27772 0.27249 0.54506 0.0
H1767 H 0.27756 0.27433 0.44453 0.0
H1768 H 0.26845 0.3303 0.63001 0.0
H1769 H 0.26876 0.33399 0.38812 0.0
H1770 H 0.30666 0.30754 0.65329 0.0
H1771 H 0.29134 0.28977 0.64476 0.0
H1772 H 0.28517 0.30937 0.69604 0.0
H1773 H 0.30695 0.31185 0.35352 0.0
H1774 H 0.28553 0.31507 0.31179 0.0
H1775 H 0.29148 0.2941 0.35248 0.0
C1776 C 0.7249 0.32915 0.57996 0.0
C1777 C 0.73303 0.33427 0.51224 0.0
C1778 C 0.71197 0.3159 0.58109 0.0
C1779 C 0.70704 0.30751 0.51285 0.0
C1780 C 0.71551 0.31228 0.44462 0.0
C1781 C 0.72837 0.32561 0.4451 0.0
C1782 C 0.70328 0.31118 0.65506 0.0
C1783 C 0.71063 0.30366 0.37066 0.0
C1784 C 0.68184 0.26412 0.52176 0.0
C1785 C 0.66444 0.26972 0.50975 0.0
C1786 C 0.69586 0.27624 0.52291 0.0
C1787 C 0.69238 0.29441 0.51218 0.0
C1788 C 0.67483 0.30015 0.50055 0.0
C1789 C 0.6611 0.28775 0.49946 0.0
C1790 C 0.7144 0.26961 0.53516 0.0
C1791 C 0.67053 0.31941 0.48945 0.0
H1792 H 0.72858 0.33561 0.63224 0.0
H1793 H 0.73436 0.32962 0.3923 0.0
H1794 H 0.68902 0.31436 0.65239 0.0
H1795 H 0.70441 0.29681 0.66552 0.0
H1796 H 0.70917 0.31834 0.70361 0.0
H1797 H 0.71919 0.30807 0.32342 0.0
H1798 H 0.71159 0.28912 0.37562 0.0
H1799 H 0.69675 0.30685 0.35636 0.0
H1800 H 0.68453 0.2502 0.52922 0.0
H1801 H 0.64766 0.29224 0.49159 0.0
H1802 H 0.72026 0.27606 0.58548 0.0
H1803 H 0.72275 0.27312 0.486 0.0
H1804 H 0.71488 0.2551 0.54323 0.0
H1805 H 0.67496 0.3271 0.53922 0.0
H1806 H 0.6562 0.32171 0.48112 0.0
H1807 H 0.6777 0.32459 0.4396 0.0
loop_
_geom_bond_atom_site_label_1
_geom_bond_atom_site_label_2
_geom_bond_distance
_geom_bond_site_symmetry_2
_ccdc_geom_bond_type
C0 C1 1.351 . S
C0 N3 1.368 . S
C0 H5 0.931 . S
C1 C0 1.351 . S
C1 N2 1.373 . S
C1 H29 0.930 . S
N2 C1 1.373 . S
N2 C4 1.340 . S
N3 C0 1.368 . S
N3 C4 1.321 . S
N3 Co6 2.135 . S
C4 N2 1.340 . S
C4 N3 1.321 . S
C4 H28 0.930 . S
H5 C0 0.931 . S
Co6 N3 2.135 . S
Co6 N9 2.121 1_554 S
Co6 O14 2.055 . S
Co6 O17 2.039 . S
Co6 N20 2.140 . S
C7 O8 1.227 . S
C7 O17 1.265 . S
O8 C7 1.227 . S
N9 Co6 2.121 1_556 S
N9 C11 1.375 . S
N9 C12 1.313 . S
C10 C11 1.338 . S
C10 N13 1.377 . S
C10 H30 0.930 . S
C11 N9 1.375 . S
C11 C10 1.338 . S
C11 H15 0.931 . S
C12 N9 1.313 . S
C12 N13 1.344 . S
C12 H16 0.930 . S
N13 C10 1.377 . S
N13 C12 1.344 . S
O14 Co6 2.055 . S
O14 C18 1.253 . S
H15 C11 0.931 . S
H16 C12 0.930 . S
O17 Co6 2.039 . S
O17 C7 1.265 . S
C18 O14 1.253 . S
C18 O19 1.227 . S
O19 C18 1.227 . S
N20 Co6 2.140 . S
N20 C23 1.346 . S
N20 C24 1.345 . S
C21 C22 1.387 . S
C21 C25 1.391 . S
C22 C21 1.387 . S
C22 C23 1.369 . S
C22 H31 0.929 . S
C23 N20 1.346 . S
C23 C22 1.369 . S
C23 H26 0.928 . S
C24 N20 1.345 . S
C24 C25 1.371 . S
C24 H27 0.931 1_554 S
C25 C21 1.391 . S
C25 C24 1.371 . S
C25 H32 0.930 1_554 S
H26 C23 0.928 . S
H27 C24 0.931 1_556 S
H28 C4 0.930 . S
H29 C1 0.930 . S
H30 C10 0.930 . S
H31 C22 0.929 . S
H32 C25 0.930 1_556 S
C33 C34 1.351 . S
C33 N36 1.368 . S
C33 H38 0.931 . S
C34 C33 1.351 . S
C34 N35 1.373 . S
C34 H62 0.930 . S
N35 C34 1.373 . S
N35 C37 1.340 . S
N36 C33 1.368 . S
N36 C37 1.321 . S
N36 Co39 2.135 . S
C37 N35 1.340 . S
C37 N36 1.321 . S
C37 H61 0.930 . S
H38 C33 0.931 . S
Co39 N36 2.135 . S
Co39 N42 2.121 1_554 S
Co39 O47 2.055 . S
Co39 O50 2.039 . S
Co39 N53 2.140 . S
C40 O41 1.227 . S
C40 O50 1.265 . S
O41 C40 1.227 . S
N42 Co39 2.121 1_556 S
N42 C44 1.375 . S
N42 C45 1.313 . S
C43 C44 1.338 . S
C43 N46 1.377 . S
C43 H63 0.930 . S
C44 N42 1.375 . S
C44 C43 1.338 . S
C44 H48 0.931 . S
C45 N42 1.313 . S
C45 N46 1.344 . S
C45 H49 0.930 . S
N46 C43 1.377 . S
N46 C45 1.344 . S
O47 Co39 2.055 . S
O47 C51 1.253 . S
H48 C44 0.931 . S
H49 C45 0.930 . S
O50 Co39 2.039 . S
O50 C40 1.265 . S
C51 O47 1.253 . S
C51 O52 1.227 . S
O52 C51 1.227 . S
N53 Co39 2.140 . S
N53 C56 1.346 . S
N53 C57 1.345 . S
C54 C55 1.387 . S
C54 C58 1.391 . S
C55 C54 1.387 . S
C55 C56 1.369 . S
C55 H64 0.929 . S
C56 N53 1.346 . S
C56 C55 1.369 . S
C56 H59 0.928 . S
C57 N53 1.345 . S
C57 C58 1.371 . S
C57 H60 0.931 1_554 S
C58 C54 1.391 . S
C58 C57 1.371 . S
C58 H65 0.930 1_554 S
H59 C56 0.928 . S
H60 C57 0.931 1_556 S
H61 C37 0.930 . S
H62 C34 0.930 . S
H63 C43 0.930 . S
H64 C55 0.929 . S
H65 C58 0.930 1_556 S
C66 C67 1.351 . S
C66 N69 1.368 . S
C66 H71 0.931 . S
C67 C66 1.351 . S
C67 N68 1.373 . S
C67 H95 0.930 . S
N68 C67 1.373 . S
N68 C70 1.340 . S
N69 C66 1.368 . S
N69 C70 1.321 . S
N69 Co72 2.135 . S
C70 N68 1.340 . S
C70 N69 1.321 . S
C70 H94 0.930 . S
H71 C66 0.931 . S
Co72 N69 2.135 . S
Co72 N75 2.121 1_554 S
Co72 O80 2.055 . S
Co72 O83 2.039 . S
Co72 N86 2.140 . S
C73 O74 1.227 . S
C73 O83 1.265 . S
O74 C73 1.227 . S
N75 Co72 2.121 1_556 S
N75 C77 1.375 . S
N75 C78 1.313 . S
C76 C77 1.338 . S
C76 N79 1.377 . S
C76 H96 0.930 . S
C77 N75 1.375 . S
C77 C76 1.338 . S
C77 H81 0.931 . S
C78 N75 1.313 . S
C78 N79 1.344 . S
C78 H82 0.930 . S
N79 C76 1.377 . S
N79 C78 1.344 . S
O80 Co72 2.055 . S
O80 C84 1.253 . S
H81 C77 0.931 . S
H82 C78 0.930 . S
O83 Co72 2.039 . S
O83 C73 1.265 . S
C84 O80 1.253 . S
C84 O85 1.227 . S
O85 C84 1.227 . S
N86 Co72 2.140 . S
N86 C89 1.346 . S
N86 C90 1.345 . S
C87 C88 1.387 . S
C87 C91 1.391 . S
C88 C87 1.387 . S
C88 C89 1.369 . S
C88 H97 0.929 . S
C89 N86 1.346 . S
C89 C88 1.369 . S
C89 H92 0.928 . S
C90 N86 1.345 . S
C90 C91 1.371 . S
C90 H93 0.931 1_554 S
C91 C87 1.391 . S
C91 C90 1.371 . S
C91 H98 0.930 1_554 S
H92 C89 0.928 . S
H93 C90 0.931 1_556 S
H94 C70 0.930 . S
H95 C67 0.930 . S
H96 C76 0.930 . S
H97 C88 0.929 . S
H98 C91 0.930 1_556 S
C99 C100 1.351 . S
C99 N102 1.368 . S
C99 H104 0.931 . S
C100 C99 1.351 . S
C100 N101 1.373 . S
C100 H128 0.930 . S
N101 C100 1.373 . S
N101 C103 1.340 . S
N102 C99 1.368 . S
N102 C103 1.321 . S
N102 Co105 2.135 . S
C103 N101 1.340 . S
C103 N102 1.321 . S
C103 H127 0.930 . S
H104 C99 0.931 . S
Co105 N102 2.135 . S
Co105 N108 2.121 1_554 S
Co105 O113 2.055 . S
Co105 O116 2.039 . S
Co105 N119 2.140 . S
C106 O107 1.227 . S
C106 O116 1.265 . S
O107 C106 1.227 . S
N108 Co105 2.121 1_556 S
N108 C110 1.375 . S
N108 C111 1.313 . S
C109 C110 1.338 . S
C109 N112 1.377 . S
C109 H129 0.930 . S
C110 N108 1.375 . S
C110 C109 1.338 . S
C110 H114 0.931 . S
C111 N108 1.313 . S
C111 N112 1.344 . S
C111 H115 0.930 . S
N112 C109 1.377 . S
N112 C111 1.344 . S
O113 Co105 2.055 . S
O113 C117 1.253 . S
H114 C110 0.931 . S
H115 C111 0.930 . S
O116 Co105 2.039 . S
O116 C106 1.265 . S
C117 O113 1.253 . S
C117 O118 1.227 . S
O118 C117 1.227 . S
N119 Co105 2.140 . S
N119 C122 1.346 . S
N119 C123 1.345 . S
C120 C121 1.387 . S
C120 C124 1.391 . S
C121 C120 1.387 . S
C121 C122 1.369 . S
C121 H130 0.929 . S
C122 N119 1.346 . S
C122 C121 1.369 . S
C122 H125 0.928 . S
C123 N119 1.345 . S
C123 C124 1.371 . S
C123 H126 0.931 1_554 S
C124 C120 1.391 . S
C124 C123 1.371 . S
C124 H131 0.930 1_554 S
H125 C122 0.928 . S
H126 C123 0.931 1_556 S
H127 C103 0.930 . S
H128 C100 0.930 . S
H129 C109 0.930 . S
H130 C121 0.929 . S
H131 C124 0.930 1_556 S
C132 C133 1.351 . S
C132 N135 1.368 . S
C132 H137 0.931 . S
C133 C132 1.351 . S
C133 N134 1.373 . S
C133 H161 0.930 . S
N134 C133 1.373 . S
N134 C136 1.340 . S
N135 C132 1.368 . S
N135 C136 1.321 . S
N135 Co138 2.135 . S
C136 N134 1.340 . S
C136 N135 1.321 . S
C136 H160 0.930 . S
H137 C132 0.931 . S
Co138 N135 2.135 . S
Co138 N141 2.121 1_556 S
Co138 O146 2.055 . S
Co138 O149 2.039 . S
Co138 N152 2.140 . S
C139 O140 1.227 . S
C139 O149 1.265 . S
O140 C139 1.227 . S
N141 Co138 2.121 1_554 S
N141 C143 1.375 . S
N141 C144 1.313 . S
C142 C143 1.338 . S
C142 N145 1.377 . S
C142 H162 0.930 . S
C143 N141 1.375 . S
C143 C142 1.338 . S
C143 H147 0.931 . S
C144 N141 1.313 . S
C144 N145 1.344 . S
C144 H148 0.930 . S
N145 C142 1.377 . S
N145 C144 1.344 . S
O146 Co138 2.055 . S
O146 C150 1.253 . S
H147 C143 0.931 . S
H148 C144 0.930 . S
O149 Co138 2.039 . S
O149 C139 1.265 . S
C150 O146 1.253 . S
C150 O151 1.227 . S
O151 C150 1.227 . S
N152 Co138 2.140 . S
N152 C155 1.346 . S
N152 C156 1.345 . S
C153 C154 1.387 . S
C153 C157 1.391 . S
C154 C153 1.387 . S
C154 C155 1.369 . S
C154 H163 0.929 . S
C155 N152 1.346 . S
C155 C154 1.369 . S
C155 H158 0.928 . S
C156 N152 1.345 . S
C156 C157 1.371 . S
C156 H159 0.931 1_556 S
C157 C153 1.391 . S
C157 C156 1.371 . S
C157 H164 0.930 1_556 S
H158 C155 0.928 . S
H159 C156 0.931 1_554 S
H160 C136 0.930 . S
H161 C133 0.930 . S
H162 C142 0.930 . S
H163 C154 0.929 . S
H164 C157 0.930 1_554 S
C165 C166 1.351 . S
C165 N168 1.368 . S
C165 H170 0.931 . S
C166 C165 1.351 . S
C166 N167 1.373 . S
C166 H194 0.930 . S
N167 C166 1.373 . S
N167 C169 1.340 . S
N168 C165 1.368 . S
N168 C169 1.321 . S
N168 Co171 2.135 . S
C169 N167 1.340 . S
C169 N168 1.321 . S
C169 H193 0.930 . S
H170 C165 0.931 . S
Co171 N168 2.135 . S
Co171 N174 2.121 1_556 S
Co171 O179 2.055 . S
Co171 O182 2.039 . S
Co171 N185 2.140 . S
C172 O173 1.227 . S
C172 O182 1.265 . S
O173 C172 1.227 . S
N174 Co171 2.121 1_554 S
N174 C176 1.375 . S
N174 C177 1.313 . S
C175 C176 1.338 . S
C175 N178 1.377 . S
C175 H195 0.930 . S
C176 N174 1.375 . S
C176 C175 1.338 . S
C176 H180 0.931 . S
C177 N174 1.313 . S
C177 N178 1.344 . S
C177 H181 0.930 . S
N178 C175 1.377 . S
N178 C177 1.344 . S
O179 Co171 2.055 . S
O179 C183 1.253 . S
H180 C176 0.931 . S
H181 C177 0.930 . S
O182 Co171 2.039 . S
O182 C172 1.265 . S
C183 O179 1.253 . S
C183 O184 1.227 . S
O184 C183 1.227 . S
N185 Co171 2.140 . S
N185 C188 1.346 . S
N185 C189 1.345 . S
C186 C187 1.387 . S
C186 C190 1.391 . S
C187 C186 1.387 . S
C187 C188 1.369 . S
C187 H196 0.929 . S
C188 N185 1.346 . S
C188 C187 1.369 . S
C188 H191 0.928 . S
C189 N185 1.345 . S
C189 C190 1.371 . S
C189 H192 0.931 1_556 S
C190 C186 1.391 . S
C190 C189 1.371 . S
C190 H197 0.930 1_556 S
H191 C188 0.928 . S
H192 C189 0.931 1_554 S
H193 C169 0.930 . S
H194 C166 0.930 . S
H195 C175 0.930 . S
H196 C187 0.929 . S
H197 C190 0.930 1_554 S
C198 C199 1.351 . S
C198 N201 1.368 . S
C198 H203 0.931 . S
C199 C198 1.351 . S
C199 N200 1.373 . S
C199 H227 0.930 . S
N200 C199 1.373 . S
N200 C202 1.340 . S
N201 C198 1.368 . S
N201 C202 1.321 . S
N201 Co204 2.135 . S
C202 N200 1.340 . S
C202 N201 1.321 . S
C202 H226 0.930 . S
H203 C198 0.931 . S
Co204 N201 2.135 . S
Co204 N207 2.121 1_556 S
Co204 O212 2.055 . S
Co204 O215 2.039 . S
Co204 N218 2.140 . S
C205 O206 1.227 . S
C205 O215 1.265 . S
O206 C205 1.227 . S
N207 Co204 2.121 1_554 S
N207 C209 1.375 . S
N207 C210 1.313 . S
C208 C209 1.338 . S
C208 N211 1.377 . S
C208 H228 0.930 . S
C209 N207 1.375 . S
C209 C208 1.338 . S
C209 H213 0.931 . S
C210 N207 1.313 . S
C210 N211 1.344 . S
C210 H214 0.930 . S
N211 C208 1.377 . S
N211 C210 1.344 . S
O212 Co204 2.055 . S
O212 C216 1.253 . S
H213 C209 0.931 . S
H214 C210 0.930 . S
O215 Co204 2.039 . S
O215 C205 1.265 . S
C216 O212 1.253 . S
C216 O217 1.227 . S
O217 C216 1.227 . S
N218 Co204 2.140 . S
N218 C221 1.346 . S
N218 C222 1.345 . S
C219 C220 1.387 . S
C219 C223 1.391 . S
C220 C219 1.387 . S
C220 C221 1.369 . S
C220 H229 0.929 . S
C221 N218 1.346 . S
C221 C220 1.369 . S
C221 H224 0.928 . S
C222 N218 1.345 . S
C222 C223 1.371 . S
C222 H225 0.931 1_556 S
C223 C219 1.391 . S
C223 C222 1.371 . S
C223 H230 0.930 1_556 S
H224 C221 0.928 . S
H225 C222 0.931 1_554 S
H226 C202 0.930 . S
H227 C199 0.930 . S
H228 C208 0.930 . S
H229 C220 0.929 . S
H230 C223 0.930 1_554 S
C231 C232 1.351 . S
C231 N234 1.368 . S
C231 H236 0.931 . S
C232 C231 1.351 . S
C232 N233 1.373 . S
C232 H260 0.930 . S
N233 C232 1.373 . S
N233 C235 1.340 . S
N234 C231 1.368 . S
N234 C235 1.321 . S
N234 Co237 2.135 . S
C235 N233 1.340 . S
C235 N234 1.321 . S
C235 H259 0.930 . S
H236 C231 0.931 . S
Co237 N234 2.135 . S
Co237 N240 2.121 1_556 S
Co237 O245 2.055 . S
Co237 O248 2.039 . S
Co237 N251 2.140 . S
C238 O239 1.227 . S
C238 O248 1.265 . S
O239 C238 1.227 . S
N240 Co237 2.121 1_554 S
N240 C242 1.375 . S
N240 C243 1.313 . S
C241 C242 1.338 . S
C241 N244 1.377 . S
C241 H261 0.930 . S
C242 N240 1.375 . S
C242 C241 1.338 . S
C242 H246 0.931 . S
C243 N240 1.313 . S
C243 N244 1.344 . S
C243 H247 0.930 . S
N244 C241 1.377 . S
N244 C243 1.344 . S
O245 Co237 2.055 . S
O245 C249 1.253 . S
H246 C242 0.931 . S
H247 C243 0.930 . S
O248 Co237 2.039 . S
O248 C238 1.265 . S
C249 O245 1.253 . S
C249 O250 1.227 . S
O250 C249 1.227 . S
N251 Co237 2.140 . S
N251 C254 1.346 . S
N251 C255 1.345 . S
C252 C253 1.387 . S
C252 C256 1.391 . S
C253 C252 1.387 . S
C253 C254 1.369 . S
C253 H262 0.929 . S
C254 N251 1.346 . S
C254 C253 1.369 . S
C254 H257 0.928 . S
C255 N251 1.345 . S
C255 C256 1.371 . S
C255 H258 0.931 1_556 S
C256 C252 1.391 . S
C256 C255 1.371 . S
C256 H263 0.930 1_556 S
H257 C254 0.928 . S
H258 C255 0.931 1_554 S
H259 C235 0.930 . S
H260 C232 0.930 . S
H261 C241 0.930 . S
H262 C253 0.929 . S
H263 C256 0.930 1_554 S
C264 C265 1.351 . S
C264 N267 1.368 . S
C264 H269 0.931 . S
C265 C264 1.351 . S
C265 N266 1.373 . S
C265 H293 0.930 . S
N266 C265 1.373 . S
N266 C268 1.340 . S
N267 C264 1.368 . S
N267 C268 1.321 . S
N267 Co270 2.135 . S
C268 N266 1.340 . S
C268 N267 1.321 . S
C268 H292 0.930 . S
H269 C264 0.931 . S
Co270 N267 2.135 . S
Co270 N273 2.121 . S
Co270 O278 2.055 . S
Co270 O281 2.039 . S
Co270 N284 2.140 . S
C271 O272 1.227 . S
C271 O281 1.265 . S
O272 C271 1.227 . S
N273 Co270 2.121 . S
N273 C275 1.375 . S
N273 C276 1.313 . S
C274 C275 1.338 . S
C274 N277 1.377 . S
C274 H294 0.930 . S
C275 N273 1.375 . S
C275 C274 1.338 . S
C275 H279 0.931 . S
C276 N273 1.313 . S
C276 N277 1.344 . S
C276 H280 0.930 . S
N277 C274 1.377 . S
N277 C276 1.344 . S
O278 Co270 2.055 . S
O278 C282 1.253 . S
H279 C275 0.931 . S
H280 C276 0.930 . S
O281 Co270 2.039 . S
O281 C271 1.265 . S
C282 O278 1.253 . S
C282 O283 1.227 . S
O283 C282 1.227 . S
N284 Co270 2.140 . S
N284 C287 1.346 . S
N284 C288 1.345 . S
C285 C286 1.387 . S
C285 C289 1.391 . S
C286 C285 1.387 . S
C286 C287 1.369 . S
C286 H295 0.929 . S
C287 N284 1.346 . S
C287 C286 1.369 . S
C287 H290 0.928 . S
C288 N284 1.345 . S
C288 C289 1.371 . S
C288 H291 0.931 . S
C289 C285 1.391 . S
C289 C288 1.371 . S
C289 H296 0.930 . S
H290 C287 0.928 . S
H291 C288 0.931 . S
H292 C268 0.930 . S
H293 C265 0.930 . S
H294 C274 0.930 . S
H295 C286 0.929 . S
H296 C289 0.930 . S
C297 C298 1.351 . S
C297 N300 1.368 . S
C297 H302 0.931 . S
C298 C297 1.351 . S
C298 N299 1.373 . S
C298 H326 0.930 . S
N299 C298 1.373 . S
N299 C301 1.340 . S
N300 C297 1.368 . S
N300 C301 1.321 . S
N300 Co303 2.135 . S
C301 N299 1.340 . S
C301 N300 1.321 . S
C301 H325 0.930 . S
H302 C297 0.931 . S
Co303 N300 2.135 . S
Co303 N306 2.121 . S
Co303 O311 2.055 . S
Co303 O314 2.039 . S
Co303 N317 2.140 . S
C304 O305 1.227 . S
C304 O314 1.265 . S
O305 C304 1.227 . S
N306 Co303 2.121 . S
N306 C308 1.375 . S
N306 C309 1.313 . S
C307 C308 1.338 . S
C307 N310 1.377 . S
C307 H327 0.930 . S
C308 N306 1.375 . S
C308 C307 1.338 . S
C308 H312 0.931 . S
C309 N306 1.313 . S
C309 N310 1.344 . S
C309 H313 0.930 . S
N310 C307 1.377 . S
N310 C309 1.344 . S
O311 Co303 2.055 . S
O311 C315 1.253 . S
H312 C308 0.931 . S
H313 C309 0.930 . S
O314 Co303 2.039 . S
O314 C304 1.265 . S
C315 O311 1.253 . S
C315 O316 1.227 . S
O316 C315 1.227 . S
N317 Co303 2.140 . S
N317 C320 1.346 . S
N317 C321 1.345 . S
C318 C319 1.387 . S
C318 C322 1.391 . S
C319 C318 1.387 . S
C319 C320 1.369 . S
C319 H328 0.929 . S
C320 N317 1.346 . S
C320 C319 1.369 . S
C320 H323 0.928 . S
C321 N317 1.345 . S
C321 C322 1.371 . S
C321 H324 0.931 . S
C322 C318 1.391 . S
C322 C321 1.371 . S
C322 H329 0.930 . S
H323 C320 0.928 . S
H324 C321 0.931 . S
H325 C301 0.930 . S
H326 C298 0.930 . S
H327 C307 0.930 . S
H328 C319 0.929 . S
H329 C322 0.930 . S
C330 C331 1.351 . S
C330 N333 1.368 . S
C330 H335 0.931 . S
C331 C330 1.351 . S
C331 N332 1.373 . S
C331 H359 0.930 . S
N332 C331 1.373 . S
N332 C334 1.340 . S
N333 C330 1.368 . S
N333 C334 1.321 . S
N333 Co336 2.135 . S
C334 N332 1.340 . S
C334 N333 1.321 . S
C334 H358 0.930 . S
H335 C330 0.931 . S
Co336 N333 2.135 . S
Co336 N339 2.121 . S
Co336 O344 2.055 . S
Co336 O347 2.039 . S
Co336 N350 2.140 . S
C337 O338 1.227 . S
C337 O347 1.265 . S
O338 C337 1.227 . S
N339 Co336 2.121 . S
N339 C341 1.375 . S
N339 C342 1.313 . S
C340 C341 1.338 . S
C340 N343 1.377 . S
C340 H360 0.930 . S
C341 N339 1.375 . S
C341 C340 1.338 . S
C341 H345 0.931 . S
C342 N339 1.313 . S
C342 N343 1.344 . S
C342 H346 0.930 . S
N343 C340 1.377 . S
N343 C342 1.344 . S
O344 Co336 2.055 . S
O344 C348 1.253 . S
H345 C341 0.931 . S
H346 C342 0.930 . S
O347 Co336 2.039 . S
O347 C337 1.265 . S
C348 O344 1.253 . S
C348 O349 1.227 . S
O349 C348 1.227 . S
N350 Co336 2.140 . S
N350 C353 1.346 . S
N350 C354 1.345 . S
C351 C352 1.387 . S
C351 C355 1.391 . S
C352 C351 1.387 . S
C352 C353 1.369 . S
C352 H361 0.929 . S
C353 N350 1.346 . S
C353 C352 1.369 . S
C353 H356 0.928 . S
C354 N350 1.345 . S
C354 C355 1.371 . S
C354 H357 0.931 . S
C355 C351 1.391 . S
C355 C354 1.371 . S
C355 H362 0.930 . S
H356 C353 0.928 . S
H357 C354 0.931 . S
H358 C334 0.930 . S
H359 C331 0.930 . S
H360 C340 0.930 . S
H361 C352 0.929 . S
H362 C355 0.930 . S
C363 C364 1.351 . S
C363 N366 1.368 . S
C363 H368 0.931 . S
C364 C363 1.351 . S
C364 N365 1.373 . S
C364 H392 0.930 . S
N365 C364 1.373 . S
N365 C367 1.340 . S
N366 C363 1.368 . S
N366 C367 1.321 . S
N366 Co369 2.135 . S
C367 N365 1.340 . S
C367 N366 1.321 . S
C367 H391 0.930 . S
H368 C363 0.931 . S
Co369 N366 2.135 . S
Co369 N372 2.121 . S
Co369 O377 2.055 . S
Co369 O380 2.039 . S
Co369 N383 2.140 . S
C370 O371 1.227 . S
C370 O380 1.265 . S
O371 C370 1.227 . S
N372 Co369 2.121 . S
N372 C374 1.375 . S
N372 C375 1.313 . S
C373 C374 1.338 . S
C373 N376 1.377 . S
C373 H393 0.930 . S
C374 N372 1.375 . S
C374 C373 1.338 . S
C374 H378 0.931 . S
C375 N372 1.313 . S
C375 N376 1.344 . S
C375 H379 0.930 . S
N376 C373 1.377 . S
N376 C375 1.344 . S
O377 Co369 2.055 . S
O377 C381 1.253 . S
H378 C374 0.931 . S
H379 C375 0.930 . S
O380 Co369 2.039 . S
O380 C370 1.265 . S
C381 O377 1.253 . S
C381 O382 1.227 . S
O382 C381 1.227 . S
N383 Co369 2.140 . S
N383 C386 1.346 . S
N383 C387 1.345 . S
C384 C385 1.387 . S
C384 C388 1.391 . S
C385 C384 1.387 . S
C385 C386 1.369 . S
C385 H394 0.929 . S
C386 N383 1.346 . S
C386 C385 1.369 . S
C386 H389 0.928 . S
C387 N383 1.345 . S
C387 C388 1.371 . S
C387 H390 0.931 . S
C388 C384 1.391 . S
C388 C387 1.371 . S
C388 H395 0.930 . S
H389 C386 0.928 . S
H390 C387 0.931 . S
H391 C367 0.930 . S
H392 C364 0.930 . S
H393 C373 0.930 . S
H394 C385 0.929 . S
H395 C388 0.930 . S
C396 C397 1.351 . S
C396 N399 1.368 . S
C396 H401 0.931 . S
C397 C396 1.351 . S
C397 N398 1.373 . S
C397 H425 0.930 . S
N398 C397 1.373 . S
N398 C400 1.340 . S
N399 C396 1.368 . S
N399 C400 1.321 . S
N399 Co402 2.135 . S
C400 N398 1.340 . S
C400 N399 1.321 . S
C400 H424 0.930 . S
H401 C396 0.931 . S
Co402 N399 2.135 . S
Co402 N405 2.121 . S
Co402 O410 2.055 . S
Co402 O413 2.039 . S
Co402 N416 2.140 . S
C403 O404 1.227 . S
C403 O413 1.265 . S
O404 C403 1.227 . S
N405 Co402 2.121 . S
N405 C407 1.375 . S
N405 C408 1.313 . S
C406 C407 1.338 . S
C406 N409 1.377 . S
C406 H426 0.930 . S
C407 N405 1.375 . S
C407 C406 1.338 . S
C407 H411 0.931 . S
C408 N405 1.313 . S
C408 N409 1.344 . S
C408 H412 0.930 . S
N409 C406 1.377 . S
N409 C408 1.344 . S
O410 Co402 2.055 . S
O410 C414 1.253 . S
H411 C407 0.931 . S
H412 C408 0.930 . S
O413 Co402 2.039 . S
O413 C403 1.265 . S
C414 O410 1.253 . S
C414 O415 1.227 . S
O415 C414 1.227 . S
N416 Co402 2.140 . S
N416 C419 1.346 . S
N416 C420 1.345 . S
C417 C418 1.387 . S
C417 C421 1.391 . S
C418 C417 1.387 . S
C418 C419 1.369 . S
C418 H427 0.929 . S
C419 N416 1.346 . S
C419 C418 1.369 . S
C419 H422 0.928 . S
C420 N416 1.345 . S
C420 C421 1.371 . S
C420 H423 0.931 . S
C421 C417 1.391 . S
C421 C420 1.371 . S
C421 H428 0.930 . S
H422 C419 0.928 . S
H423 C420 0.931 . S
H424 C400 0.930 . S
H425 C397 0.930 . S
H426 C406 0.930 . S
H427 C418 0.929 . S
H428 C421 0.930 . S
C429 C430 1.351 . S
C429 N432 1.368 . S
C429 H434 0.931 . S
C430 C429 1.351 . S
C430 N431 1.373 . S
C430 H458 0.930 . S
N431 C430 1.373 . S
N431 C433 1.340 . S
N432 C429 1.368 . S
N432 C433 1.321 . S
N432 Co435 2.135 . S
C433 N431 1.340 . S
C433 N432 1.321 . S
C433 H457 0.930 . S
H434 C429 0.931 . S
Co435 N432 2.135 . S
Co435 N438 2.121 . S
Co435 O443 2.055 . S
Co435 O446 2.039 . S
Co435 N449 2.140 . S
C436 O437 1.227 . S
C436 O446 1.265 . S
O437 C436 1.227 . S
N438 Co435 2.121 . S
N438 C440 1.375 . S
N438 C441 1.313 . S
C439 C440 1.338 . S
C439 N442 1.377 . S
C439 H459 0.930 . S
C440 N438 1.375 . S
C440 C439 1.338 . S
C440 H444 0.931 . S
C441 N438 1.313 . S
C441 N442 1.344 . S
C441 H445 0.930 . S
N442 C439 1.377 . S
N442 C441 1.344 . S
O443 Co435 2.055 . S
O443 C447 1.253 . S
H444 C440 0.931 . S
H445 C441 0.930 . S
O446 Co435 2.039 . S
O446 C436 1.265 . S
C447 O443 1.253 . S
C447 O448 1.227 . S
O448 C447 1.227 . S
N449 Co435 2.140 . S
N449 C452 1.346 . S
N449 C453 1.345 . S
C450 C451 1.387 . S
C450 C454 1.391 . S
C451 C450 1.387 . S
C451 C452 1.369 . S
C451 H460 0.929 . S
C452 N449 1.346 . S
C452 C451 1.369 . S
C452 H455 0.928 . S
C453 N449 1.345 . S
C453 C454 1.371 . S
C453 H456 0.931 . S
C454 C450 1.391 . S
C454 C453 1.371 . S
C454 H461 0.930 . S
H455 C452 0.928 . S
H456 C453 0.931 . S
H457 C433 0.930 . S
H458 C430 0.930 . S
H459 C439 0.930 . S
H460 C451 0.929 . S
H461 C454 0.930 . S
C462 C463 1.351 . S
C462 N465 1.368 . S
C462 H467 0.931 . S
C463 C462 1.351 . S
C463 N464 1.373 . S
C463 H491 0.930 . S
N464 C463 1.373 . S
N464 C466 1.340 . S
N465 C462 1.368 . S
N465 C466 1.321 . S
N465 Co468 2.135 . S
C466 N464 1.340 . S
C466 N465 1.321 . S
C466 H490 0.930 . S
H467 C462 0.931 . S
Co468 N465 2.135 . S
Co468 N471 2.121 . S
Co468 O476 2.055 . S
Co468 O479 2.039 . S
Co468 N482 2.140 . S
C469 O470 1.227 . S
C469 O479 1.265 . S
O470 C469 1.227 . S
N471 Co468 2.121 . S
N471 C473 1.375 . S
N471 C474 1.313 . S
C472 C473 1.338 . S
C472 N475 1.377 . S
C472 H492 0.930 . S
C473 N471 1.375 . S
C473 C472 1.338 . S
C473 H477 0.931 . S
C474 N471 1.313 . S
C474 N475 1.344 . S
C474 H478 0.930 . S
N475 C472 1.377 . S
N475 C474 1.344 . S
O476 Co468 2.055 . S
O476 C480 1.253 . S
H477 C473 0.931 . S
H478 C474 0.930 . S
O479 Co468 2.039 . S
O479 C469 1.265 . S
C480 O476 1.253 . S
C480 O481 1.227 . S
O481 C480 1.227 . S
N482 Co468 2.140 . S
N482 C485 1.346 . S
N482 C486 1.345 . S
C483 C484 1.387 . S
C483 C487 1.391 . S
C484 C483 1.387 . S
C484 C485 1.369 . S
C484 H493 0.929 . S
C485 N482 1.346 . S
C485 C484 1.369 . S
C485 H488 0.928 . S
C486 N482 1.345 . S
C486 C487 1.371 . S
C486 H489 0.931 . S
C487 C483 1.391 . S
C487 C486 1.371 . S
C487 H494 0.930 . S
H488 C485 0.928 . S
H489 C486 0.931 . S
H490 C466 0.930 . S
H491 C463 0.930 . S
H492 C472 0.930 . S
H493 C484 0.929 . S
H494 C487 0.930 . S
C495 C496 1.351 . S
C495 N498 1.368 . S
C495 H500 0.931 . S
C496 C495 1.351 . S
C496 N497 1.373 . S
C496 H524 0.930 . S
N497 C496 1.373 . S
N497 C499 1.340 . S
N498 C495 1.368 . S
N498 C499 1.321 . S
N498 Co501 2.135 . S
C499 N497 1.340 . S
C499 N498 1.321 . S
C499 H523 0.930 . S
H500 C495 0.931 . S
Co501 N498 2.135 . S
Co501 N504 2.121 . S
Co501 O509 2.055 . S
Co501 O512 2.039 . S
Co501 N515 2.140 . S
C502 O503 1.227 . S
C502 O512 1.265 . S
O503 C502 1.227 . S
N504 Co501 2.121 . S
N504 C506 1.375 . S
N504 C507 1.313 . S
C505 C506 1.338 . S
C505 N508 1.377 . S
C505 H525 0.930 . S
C506 N504 1.375 . S
C506 C505 1.338 . S
C506 H510 0.931 . S
C507 N504 1.313 . S
C507 N508 1.344 . S
C507 H511 0.930 . S
N508 C505 1.377 . S
N508 C507 1.344 . S
O509 Co501 2.055 . S
O509 C513 1.253 . S
H510 C506 0.931 . S
H511 C507 0.930 . S
O512 Co501 2.039 . S
O512 C502 1.265 . S
C513 O509 1.253 . S
C513 O514 1.227 . S
O514 C513 1.227 . S
N515 Co501 2.140 . S
N515 C518 1.346 . S
N515 C519 1.345 . S
C516 C517 1.387 . S
C516 C520 1.391 . S
C517 C516 1.387 . S
C517 C518 1.369 . S
C517 H526 0.929 . S
C518 N515 1.346 . S
C518 C517 1.369 . S
C518 H521 0.928 . S
C519 N515 1.345 . S
C519 C520 1.371 . S
C519 H522 0.931 . S
C520 C516 1.391 . S
C520 C519 1.371 . S
C520 H527 0.930 . S
H521 C518 0.928 . S
H522 C519 0.931 . S
H523 C499 0.930 . S
H524 C496 0.930 . S
H525 C505 0.930 . S
H526 C517 0.929 . S
H527 C520 0.930 . S
C528 C529 1.391 . S
C528 C530 1.394 . S
C528 H544 0.931 . S
C529 C528 1.391 . S
C529 C533 1.376 . S
C530 C528 1.394 . S
C530 C531 1.369 . S
C530 C534 1.531 . S
C531 C530 1.369 . S
C531 C532 1.410 . S
C531 C539 1.503 . S
C532 C531 1.410 . S
C532 C533 1.392 . S
C532 C535 1.511 . S
C533 C529 1.376 . S
C533 C532 1.392 . S
C533 H545 0.929 . S
C534 C530 1.531 . S
C534 H546 0.960 . S
C534 H547 0.962 . S
C534 H548 0.960 . S
C535 C532 1.511 . S
C535 H549 0.961 . S
C535 H550 0.961 . S
C535 H551 0.961 . S
C536 C537 1.370 . S
C536 C538 1.363 . S
C536 H552 0.931 . S
C537 C536 1.370 . S
C537 C541 1.408 . S
C538 C536 1.363 . S
C538 C539 1.370 . S
C538 C542 1.524 . S
C539 C531 1.503 . S
C539 C538 1.370 . S
C539 C540 1.403 . S
C540 C539 1.403 . S
C540 C541 1.404 . S
C540 C543 1.539 . S
C541 C537 1.408 . S
C541 C540 1.404 . S
C541 H553 0.930 . S
C542 C538 1.524 . S
C542 H554 0.956 . S
C542 H555 0.961 . S
C542 H556 0.961 . S
C543 C540 1.539 . S
C543 H557 0.958 . S
C543 H558 0.961 . S
C543 H559 0.960 . S
H544 C528 0.931 . S
H545 C533 0.929 . S
H546 C534 0.960 . S
H547 C534 0.962 . S
H548 C534 0.960 . S
H549 C535 0.961 . S
H550 C535 0.961 . S
H551 C535 0.961 . S
H552 C536 0.931 . S
H553 C541 0.930 . S
H554 C542 0.956 . S
H555 C542 0.961 . S
H556 C542 0.961 . S
H557 C543 0.958 . S
H558 C543 0.961 . S
H559 C543 0.960 . S
C560 C561 1.391 . S
C560 C562 1.394 . S
C560 H576 0.931 . S
C561 C560 1.391 . S
C561 C565 1.376 . S
C562 C560 1.394 . S
C562 C563 1.369 . S
C562 C566 1.531 . S
C563 C562 1.369 . S
C563 C564 1.410 . S
C563 C571 1.503 . S
C564 C563 1.410 . S
C564 C565 1.392 . S
C564 C567 1.511 . S
C565 C561 1.376 . S
C565 C564 1.392 . S
C565 H577 0.929 . S
C566 C562 1.531 . S
C566 H578 0.960 . S
C566 H579 0.962 . S
C566 H580 0.960 . S
C567 C564 1.511 . S
C567 H581 0.961 . S
C567 H582 0.961 . S
C567 H583 0.961 . S
C568 C569 1.370 . S
C568 C570 1.363 . S
C568 H584 0.931 . S
C569 C568 1.370 . S
C569 C573 1.408 . S
C570 C568 1.363 . S
C570 C571 1.370 . S
C570 C574 1.524 . S
C571 C563 1.503 . S
C571 C570 1.370 . S
C571 C572 1.403 . S
C572 C571 1.403 . S
C572 C573 1.404 . S
C572 C575 1.539 . S
C573 C569 1.408 . S
C573 C572 1.404 . S
C573 H585 0.930 . S
C574 C570 1.524 . S
C574 H586 0.956 . S
C574 H587 0.961 . S
C574 H588 0.961 . S
C575 C572 1.539 . S
C575 H589 0.958 . S
C575 H590 0.961 . S
C575 H591 0.960 . S
H576 C560 0.931 . S
H577 C565 0.929 . S
H578 C566 0.960 . S
H579 C566 0.962 . S
H580 C566 0.960 . S
H581 C567 0.961 . S
H582 C567 0.961 . S
H583 C567 0.961 . S
H584 C568 0.931 . S
H585 C573 0.930 . S
H586 C574 0.956 . S
H587 C574 0.961 . S
H588 C574 0.961 . S
H589 C575 0.958 . S
H590 C575 0.961 . S
H591 C575 0.960 . S
C592 C593 1.391 . S
C592 C594 1.394 . S
C592 H608 0.931 . S
C593 C592 1.391 . S
C593 C597 1.376 . S
C594 C592 1.394 . S
C594 C595 1.369 . S
C594 C598 1.531 . S
C595 C594 1.369 . S
C595 C596 1.410 . S
C595 C603 1.503 . S
C596 C595 1.410 . S
C596 C597 1.392 . S
C596 C599 1.511 . S
C597 C593 1.376 . S
C597 C596 1.392 . S
C597 H609 0.929 . S
C598 C594 1.531 . S
C598 H610 0.960 . S
C598 H611 0.962 . S
C598 H612 0.960 . S
C599 C596 1.511 . S
C599 H613 0.961 . S
C599 H614 0.961 . S
C599 H615 0.961 . S
C600 C601 1.370 . S
C600 C602 1.363 . S
C600 H616 0.931 . S
C601 C600 1.370 . S
C601 C605 1.408 . S
C602 C600 1.363 . S
C602 C603 1.370 . S
C602 C606 1.524 . S
C603 C595 1.503 . S
C603 C602 1.370 . S
C603 C604 1.403 . S
C604 C603 1.403 . S
C604 C605 1.404 . S
C604 C607 1.539 . S
C605 C601 1.408 . S
C605 C604 1.404 . S
C605 H617 0.930 . S
C606 C602 1.524 . S
C606 H618 0.956 . S
C606 H619 0.961 . S
C606 H620 0.961 . S
C607 C604 1.539 . S
C607 H621 0.958 . S
C607 H622 0.961 . S
C607 H623 0.960 . S
H608 C592 0.931 . S
H609 C597 0.929 . S
H610 C598 0.960 . S
H611 C598 0.962 . S
H612 C598 0.960 . S
H613 C599 0.961 . S
H614 C599 0.961 . S
H615 C599 0.961 . S
H616 C600 0.931 . S
H617 C605 0.930 . S
H618 C606 0.956 . S
H619 C606 0.961 . S
H620 C606 0.961 . S
H621 C607 0.958 . S
H622 C607 0.961 . S
H623 C607 0.960 . S
C624 C625 1.391 . S
C624 C626 1.394 . S
C624 H640 0.931 . S
C625 C624 1.391 . S
C625 C629 1.376 . S
C626 C624 1.394 . S
C626 C627 1.369 . S
C626 C630 1.531 . S
C627 C626 1.369 . S
C627 C628 1.410 . S
C627 C635 1.503 . S
C628 C627 1.410 . S
C628 C629 1.392 . S
C628 C631 1.511 . S
C629 C625 1.376 . S
C629 C628 1.392 . S
C629 H641 0.929 . S
C630 C626 1.531 . S
C630 H642 0.960 . S
C630 H643 0.962 . S
C630 H644 0.960 . S
C631 C628 1.511 . S
C631 H645 0.961 . S
C631 H646 0.961 . S
C631 H647 0.961 . S
C632 C633 1.370 . S
C632 C634 1.363 . S
C632 H648 0.931 . S
C633 C632 1.370 . S
C633 C637 1.408 . S
C634 C632 1.363 . S
C634 C635 1.370 . S
C634 C638 1.524 . S
C635 C627 1.503 . S
C635 C634 1.370 . S
C635 C636 1.403 . S
C636 C635 1.403 . S
C636 C637 1.404 . S
C636 C639 1.539 . S
C637 C633 1.408 . S
C637 C636 1.404 . S
C637 H649 0.930 . S
C638 C634 1.524 . S
C638 H650 0.956 . S
C638 H651 0.961 . S
C638 H652 0.961 . S
C639 C636 1.539 . S
C639 H653 0.958 . S
C639 H654 0.961 . S
C639 H655 0.960 . S
H640 C624 0.931 . S
H641 C629 0.929 . S
H642 C630 0.960 . S
H643 C630 0.962 . S
H644 C630 0.960 . S
H645 C631 0.961 . S
H646 C631 0.961 . S
H647 C631 0.961 . S
H648 C632 0.931 . S
H649 C637 0.930 . S
H650 C638 0.956 . S
H651 C638 0.961 . S
H652 C638 0.961 . S
H653 C639 0.958 . S
H654 C639 0.961 . S
H655 C639 0.960 . S
C656 C657 1.391 . S
C656 C658 1.394 . S
C656 H672 0.931 . S
C657 C656 1.391 . S
C657 C661 1.376 . S
C658 C656 1.394 . S
C658 C659 1.369 . S
C658 C662 1.531 . S
C659 C658 1.369 . S
C659 C660 1.410 . S
C659 C667 1.503 . S
C660 C659 1.410 . S
C660 C661 1.392 . S
C660 C663 1.511 . S
C661 C657 1.376 . S
C661 C660 1.392 . S
C661 H673 0.929 . S
C662 C658 1.531 . S
C662 H674 0.960 . S
C662 H675 0.962 . S
C662 H676 0.960 . S
C663 C660 1.511 . S
C663 H677 0.961 . S
C663 H678 0.961 . S
C663 H679 0.961 . S
C664 C665 1.370 . S
C664 C666 1.363 . S
C664 H680 0.931 . S
C665 C664 1.370 . S
C665 C669 1.408 . S
C666 C664 1.363 . S
C666 C667 1.370 . S
C666 C670 1.524 . S
C667 C659 1.503 . S
C667 C666 1.370 . S
C667 C668 1.403 . S
C668 C667 1.403 . S
C668 C669 1.404 . S
C668 C671 1.539 . S
C669 C665 1.408 . S
C669 C668 1.404 . S
C669 H681 0.930 . S
C670 C666 1.524 . S
C670 H682 0.956 . S
C670 H683 0.961 . S
C670 H684 0.961 . S
C671 C668 1.539 . S
C671 H685 0.958 . S
C671 H686 0.961 . S
C671 H687 0.960 . S
H672 C656 0.931 . S
H673 C661 0.929 . S
H674 C662 0.960 . S
H675 C662 0.962 . S
H676 C662 0.960 . S
H677 C663 0.961 . S
H678 C663 0.961 . S
H679 C663 0.961 . S
H680 C664 0.931 . S
H681 C669 0.930 . S
H682 C670 0.956 . S
H683 C670 0.961 . S
H684 C670 0.961 . S
H685 C671 0.958 . S
H686 C671 0.961 . S
H687 C671 0.960 . S
C688 C689 1.391 . S
C688 C690 1.394 . S
C688 H704 0.931 . S
C689 C688 1.391 . S
C689 C693 1.376 . S
C690 C688 1.394 . S
C690 C691 1.369 . S
C690 C694 1.531 . S
C691 C690 1.369 . S
C691 C692 1.410 . S
C691 C699 1.503 . S
C692 C691 1.410 . S
C692 C693 1.392 . S
C692 C695 1.511 . S
C693 C689 1.376 . S
C693 C692 1.392 . S
C693 H705 0.929 . S
C694 C690 1.531 . S
C694 H706 0.960 . S
C694 H707 0.962 . S
C694 H708 0.960 . S
C695 C692 1.511 . S
C695 H709 0.961 . S
C695 H710 0.961 . S
C695 H711 0.961 . S
C696 C697 1.370 . S
C696 C698 1.363 . S
C696 H712 0.931 . S
C697 C696 1.370 . S
C697 C701 1.408 . S
C698 C696 1.363 . S
C698 C699 1.370 . S
C698 C702 1.524 . S
C699 C691 1.503 . S
C699 C698 1.370 . S
C699 C700 1.403 . S
C700 C699 1.403 . S
C700 C701 1.404 . S
C700 C703 1.539 . S
C701 C697 1.408 . S
C701 C700 1.404 . S
C701 H713 0.930 . S
C702 C698 1.524 . S
C702 H714 0.956 . S
C702 H715 0.961 . S
C702 H716 0.961 . S
C703 C700 1.539 . S
C703 H717 0.958 . S
C703 H718 0.961 . S
C703 H719 0.960 . S
H704 C688 0.931 . S
H705 C693 0.929 . S
H706 C694 0.960 . S
H707 C694 0.962 . S
H708 C694 0.960 . S
H709 C695 0.961 . S
H710 C695 0.961 . S
H711 C695 0.961 . S
H712 C696 0.931 . S
H713 C701 0.930 . S
H714 C702 0.956 . S
H715 C702 0.961 . S
H716 C702 0.961 . S
H717 C703 0.958 . S
H718 C703 0.961 . S
H719 C703 0.960 . S
C720 C721 1.391 . S
C720 C722 1.394 . S
C720 H736 0.931 . S
C721 C720 1.391 . S
C721 C725 1.376 . S
C722 C720 1.394 . S
C722 C723 1.369 . S
C722 C726 1.531 . S
C723 C722 1.369 . S
C723 C724 1.410 . S
C723 C731 1.503 . S
C724 C723 1.410 . S
C724 C725 1.392 . S
C724 C727 1.511 . S
C725 C721 1.376 . S
C725 C724 1.392 . S
C725 H737 0.929 . S
C726 C722 1.531 . S
C726 H738 0.960 . S
C726 H739 0.962 . S
C726 H740 0.960 . S
C727 C724 1.511 . S
C727 H741 0.961 . S
C727 H742 0.961 . S
C727 H743 0.961 . S
C728 C729 1.370 . S
C728 C730 1.363 . S
C728 H744 0.931 . S
C729 C728 1.370 . S
C729 C733 1.408 . S
C730 C728 1.363 . S
C730 C731 1.370 . S
C730 C734 1.524 . S
C731 C723 1.503 . S
C731 C730 1.370 . S
C731 C732 1.403 . S
C732 C731 1.403 . S
C732 C733 1.404 . S
C732 C735 1.539 . S
C733 C729 1.408 . S
C733 C732 1.404 . S
C733 H745 0.930 . S
C734 C730 1.524 . S
C734 H746 0.956 . S
C734 H747 0.961 . S
C734 H748 0.961 . S
C735 C732 1.539 . S
C735 H749 0.958 . S
C735 H750 0.961 . S
C735 H751 0.960 . S
H736 C720 0.931 . S
H737 C725 0.929 . S
H738 C726 0.960 . S
H739 C726 0.962 . S
H740 C726 0.960 . S
H741 C727 0.961 . S
H742 C727 0.961 . S
H743 C727 0.961 . S
H744 C728 0.931 . S
H745 C733 0.930 . S
H746 C734 0.956 . S
H747 C734 0.961 . S
H748 C734 0.961 . S
H749 C735 0.958 . S
H750 C735 0.961 . S
H751 C735 0.960 . S
C752 C753 1.391 . S
C752 C754 1.394 . S
C752 H768 0.931 . S
C753 C752 1.391 . S
C753 C757 1.376 . S
C754 C752 1.394 . S
C754 C755 1.369 . S
C754 C758 1.531 . S
C755 C754 1.369 . S
C755 C756 1.410 . S
C755 C763 1.503 . S
C756 C755 1.410 . S
C756 C757 1.392 . S
C756 C759 1.511 . S
C757 C753 1.376 . S
C757 C756 1.392 . S
C757 H769 0.929 . S
C758 C754 1.531 . S
C758 H770 0.960 . S
C758 H771 0.962 . S
C758 H772 0.960 . S
C759 C756 1.511 . S
C759 H773 0.961 . S
C759 H774 0.961 . S
C759 H775 0.961 . S
C760 C761 1.370 . S
C760 C762 1.363 . S
C760 H776 0.931 . S
C761 C760 1.370 . S
C761 C765 1.408 . S
C762 C760 1.363 . S
C762 C763 1.370 . S
C762 C766 1.524 . S
C763 C755 1.503 . S
C763 C762 1.370 . S
C763 C764 1.403 . S
C764 C763 1.403 . S
C764 C765 1.404 . S
C764 C767 1.539 . S
C765 C761 1.408 . S
C765 C764 1.404 . S
C765 H777 0.930 . S
C766 C762 1.524 . S
C766 H778 0.956 . S
C766 H779 0.961 . S
C766 H780 0.961 . S
C767 C764 1.539 . S
C767 H781 0.958 . S
C767 H782 0.961 . S
C767 H783 0.960 . S
H768 C752 0.931 . S
H769 C757 0.929 . S
H770 C758 0.960 . S
H771 C758 0.962 . S
H772 C758 0.960 . S
H773 C759 0.961 . S
H774 C759 0.961 . S
H775 C759 0.961 . S
H776 C760 0.931 . S
H777 C765 0.930 . S
H778 C766 0.956 . S
H779 C766 0.961 . S
H780 C766 0.961 . S
H781 C767 0.958 . S
H782 C767 0.961 . S
H783 C767 0.960 . S
C784 C785 1.391 . S
C784 C786 1.394 . S
C784 H800 0.931 . S
C785 C784 1.391 . S
C785 C789 1.376 . S
C786 C784 1.394 . S
C786 C787 1.369 . S
C786 C790 1.531 . S
C787 C786 1.369 . S
C787 C788 1.410 . S
C787 C795 1.503 . S
C788 C787 1.410 . S
C788 C789 1.392 . S
C788 C791 1.511 . S
C789 C785 1.376 . S
C789 C788 1.392 . S
C789 H801 0.929 . S
C790 C786 1.531 . S
C790 H802 0.960 . S
C790 H803 0.962 . S
C790 H804 0.960 . S
C791 C788 1.511 . S
C791 H805 0.961 . S
C791 H806 0.961 . S
C791 H807 0.961 . S
C792 C793 1.370 . S
C792 C794 1.363 1_556 S
C792 H808 0.931 . S
C793 C792 1.370 . S
C793 C797 1.408 . S
C794 C792 1.363 1_554 S
C794 C795 1.370 . S
C794 C798 1.524 . S
C795 C787 1.503 . S
C795 C794 1.370 . S
C795 C796 1.403 . S
C796 C795 1.403 . S
C796 C797 1.404 1_554 S
C796 C799 1.539 . S
C797 C793 1.408 . S
C797 C796 1.404 1_556 S
C797 H809 0.930 . S
C798 C794 1.524 . S
C798 H810 0.956 . S
C798 H811 0.961 . S
C798 H812 0.961 . S
C799 C796 1.539 . S
C799 H813 0.958 . S
C799 H814 0.961 1_554 S
C799 H815 0.960 . S
H800 C784 0.931 . S
H801 C789 0.929 . S
H802 C790 0.960 . S
H803 C790 0.962 . S
H804 C790 0.960 . S
H805 C791 0.961 . S
H806 C791 0.961 . S
H807 C791 0.961 . S
H808 C792 0.931 . S
H809 C797 0.930 . S
H810 C798 0.956 . S
H811 C798 0.961 . S
H812 C798 0.961 . S
H813 C799 0.958 . S
H814 C799 0.961 1_556 S
H815 C799 0.960 . S
C816 C817 1.391 . S
C816 C818 1.394 . S
C816 H832 0.931 . S
C817 C816 1.391 . S
C817 C821 1.376 . S
C818 C816 1.394 . S
C818 C819 1.369 . S
C818 C822 1.531 . S
C819 C818 1.369 . S
C819 C820 1.410 . S
C819 C827 1.503 . S
C820 C819 1.410 . S
C820 C821 1.392 . S
C820 C823 1.511 . S
C821 C817 1.376 . S
C821 C820 1.392 . S
C821 H833 0.929 . S
C822 C818 1.531 . S
C822 H834 0.960 . S
C822 H835 0.962 . S
C822 H836 0.960 . S
C823 C820 1.511 . S
C823 H837 0.961 . S
C823 H838 0.961 . S
C823 H839 0.961 . S
C824 C825 1.370 . S
C824 C826 1.363 1_556 S
C824 H840 0.931 . S
C825 C824 1.370 . S
C825 C829 1.408 . S
C826 C824 1.363 1_554 S
C826 C827 1.370 . S
C826 C830 1.524 . S
C827 C819 1.503 . S
C827 C826 1.370 . S
C827 C828 1.403 1_554 S
C828 C827 1.403 1_556 S
C828 C829 1.404 . S
C828 C831 1.539 1_556 S
C829 C825 1.408 . S
C829 C828 1.404 . S
C829 H841 0.930 . S
C830 C826 1.524 . S
C830 H842 0.956 . S
C830 H843 0.961 . S
C830 H844 0.961 . S
C831 C828 1.539 1_554 S
C831 H845 0.958 . S
C831 H846 0.961 1_554 S
C831 H847 0.960 . S
H832 C816 0.931 . S
H833 C821 0.929 . S
H834 C822 0.960 . S
H835 C822 0.962 . S
H836 C822 0.960 . S
H837 C823 0.961 . S
H838 C823 0.961 . S
H839 C823 0.961 . S
H840 C824 0.931 . S
H841 C829 0.930 . S
H842 C830 0.956 . S
H843 C830 0.961 . S
H844 C830 0.961 . S
H845 C831 0.958 . S
H846 C831 0.961 1_556 S
H847 C831 0.960 . S
C848 C849 1.391 . S
C848 C850 1.394 . S
C848 H864 0.931 . S
C849 C848 1.391 . S
C849 C853 1.376 . S
C850 C848 1.394 . S
C850 C851 1.369 . S
C850 C854 1.531 . S
C851 C850 1.369 . S
C851 C852 1.410 . S
C851 C859 1.503 . S
C852 C851 1.410 . S
C852 C853 1.392 . S
C852 C855 1.511 . S
C853 C849 1.376 . S
C853 C852 1.392 . S
C853 H865 0.929 . S
C854 C850 1.531 . S
C854 H866 0.960 . S
C854 H867 0.962 . S
C854 H868 0.960 . S
C855 C852 1.511 . S
C855 H869 0.961 . S
C855 H870 0.961 . S
C855 H871 0.961 . S
C856 C857 1.370 . S
C856 C858 1.363 1_556 S
C856 H872 0.931 . S
C857 C856 1.370 . S
C857 C861 1.408 . S
C858 C856 1.363 1_554 S
C858 C859 1.370 . S
C858 C862 1.524 . S
C859 C851 1.503 . S
C859 C858 1.370 . S
C859 C860 1.403 1_554 S
C860 C859 1.403 1_556 S
C860 C861 1.404 . S
C860 C863 1.539 1_556 S
C861 C857 1.408 . S
C861 C860 1.404 . S
C861 H873 0.930 . S
C862 C858 1.524 . S
C862 H874 0.956 . S
C862 H875 0.961 . S
C862 H876 0.961 . S
C863 C860 1.539 1_554 S
C863 H877 0.958 . S
C863 H878 0.961 1_554 S
C863 H879 0.960 . S
H864 C848 0.931 . S
H865 C853 0.929 . S
H866 C854 0.960 . S
H867 C854 0.962 . S
H868 C854 0.960 . S
H869 C855 0.961 . S
H870 C855 0.961 . S
H871 C855 0.961 . S
H872 C856 0.931 . S
H873 C861 0.930 . S
H874 C862 0.956 . S
H875 C862 0.961 . S
H876 C862 0.961 . S
H877 C863 0.958 . S
H878 C863 0.961 1_556 S
H879 C863 0.960 . S
C880 C881 1.391 . S
C880 C882 1.394 . S
C880 H896 0.931 . S
C881 C880 1.391 . S
C881 C885 1.376 . S
C882 C880 1.394 . S
C882 C883 1.369 . S
C882 C886 1.531 . S
C883 C882 1.369 . S
C883 C884 1.410 . S
C883 C891 1.503 . S
C884 C883 1.410 . S
C884 C885 1.392 . S
C884 C887 1.511 . S
C885 C881 1.376 . S
C885 C884 1.392 . S
C885 H897 0.929 . S
C886 C882 1.531 . S
C886 H898 0.960 . S
C886 H899 0.962 . S
C886 H900 0.960 . S
C887 C884 1.511 . S
C887 H901 0.961 . S
C887 H902 0.961 . S
C887 H903 0.961 . S
C888 C889 1.370 . S
C888 C890 1.363 1_556 S
C888 H904 0.931 . S
C889 C888 1.370 . S
C889 C893 1.408 . S
C890 C888 1.363 1_554 S
C890 C891 1.370 . S
C890 C894 1.524 . S
C891 C883 1.503 . S
C891 C890 1.370 . S
C891 C892 1.403 1_554 S
C892 C891 1.403 1_556 S
C892 C893 1.404 . S
C892 C895 1.539 1_556 S
C893 C889 1.408 . S
C893 C892 1.404 . S
C893 H905 0.930 . S
C894 C890 1.524 . S
C894 H906 0.956 . S
C894 H907 0.961 . S
C894 H908 0.961 . S
C895 C892 1.539 1_554 S
C895 H909 0.958 . S
C895 H910 0.961 1_554 S
C895 H911 0.960 . S
H896 C880 0.931 . S
H897 C885 0.929 . S
H898 C886 0.960 . S
H899 C886 0.962 . S
H900 C886 0.960 . S
H901 C887 0.961 . S
H902 C887 0.961 . S
H903 C887 0.961 . S
H904 C888 0.931 . S
H905 C893 0.930 . S
H906 C894 0.956 . S
H907 C894 0.961 . S
H908 C894 0.961 . S
H909 C895 0.958 . S
H910 C895 0.961 1_556 S
H911 C895 0.960 . S
C912 C913 1.391 . S
C912 C914 1.394 1_554 S
C912 H928 0.931 . S
C913 C912 1.391 . S
C913 C917 1.376 . S
C914 C912 1.394 1_556 S
C914 C915 1.369 . S
C914 C918 1.531 . S
C915 C914 1.369 . S
C915 C916 1.410 . S
C915 C923 1.503 . S
C916 C915 1.410 . S
C916 C917 1.392 1_556 S
C916 C919 1.511 . S
C917 C913 1.376 . S
C917 C916 1.392 1_554 S
C917 H929 0.929 . S
C918 C914 1.531 . S
C918 H930 0.960 . S
C918 H931 0.962 . S
C918 H932 0.960 . S
C919 C916 1.511 . S
C919 H933 0.961 . S
C919 H934 0.961 . S
C919 H935 0.961 . S
C920 C921 1.370 . S
C920 C922 1.363 . S
C920 H936 0.931 . S
C921 C920 1.370 . S
C921 C925 1.408 . S
C922 C920 1.363 . S
C922 C923 1.370 . S
C922 C926 1.524 . S
C923 C915 1.503 . S
C923 C922 1.370 . S
C923 C924 1.403 . S
C924 C923 1.403 . S
C924 C925 1.404 . S
C924 C927 1.539 . S
C925 C921 1.408 . S
C925 C924 1.404 . S
C925 H937 0.930 . S
C926 C922 1.524 . S
C926 H938 0.956 . S
C926 H939 0.961 . S
C926 H940 0.961 . S
C927 C924 1.539 . S
C927 H941 0.958 . S
C927 H942 0.961 . S
C927 H943 0.960 . S
H928 C912 0.931 . S
H929 C917 0.929 . S
H930 C918 0.960 . S
H931 C918 0.962 . S
H932 C918 0.960 . S
H933 C919 0.961 . S
H934 C919 0.961 . S
H935 C919 0.961 . S
H936 C920 0.931 . S
H937 C925 0.930 . S
H938 C926 0.956 . S
H939 C926 0.961 . S
H940 C926 0.961 . S
H941 C927 0.958 . S
H942 C927 0.961 . S
H943 C927 0.960 . S
C944 C945 1.391 . S
C944 C946 1.394 1_554 S
C944 H960 0.931 . S
C945 C944 1.391 . S
C945 C949 1.376 . S
C946 C944 1.394 1_556 S
C946 C947 1.369 . S
C946 C950 1.531 . S
C947 C946 1.369 . S
C947 C948 1.410 . S
C947 C955 1.503 . S
C948 C947 1.410 . S
C948 C949 1.392 1_556 S
C948 C951 1.511 . S
C949 C945 1.376 . S
C949 C948 1.392 1_554 S
C949 H961 0.929 . S
C950 C946 1.531 . S
C950 H962 0.960 . S
C950 H963 0.962 . S
C950 H964 0.960 . S
C951 C948 1.511 . S
C951 H965 0.961 . S
C951 H966 0.961 . S
C951 H967 0.961 . S
C952 C953 1.370 . S
C952 C954 1.363 . S
C952 H968 0.931 . S
C953 C952 1.370 . S
C953 C957 1.408 . S
C954 C952 1.363 . S
C954 C955 1.370 . S
C954 C958 1.524 . S
C955 C947 1.503 . S
C955 C954 1.370 . S
C955 C956 1.403 . S
C956 C955 1.403 . S
C956 C957 1.404 . S
C956 C959 1.539 . S
C957 C953 1.408 . S
C957 C956 1.404 . S
C957 H969 0.930 . S
C958 C954 1.524 . S
C958 H970 0.956 . S
C958 H971 0.961 . S
C958 H972 0.961 . S
C959 C956 1.539 . S
C959 H973 0.958 . S
C959 H974 0.961 . S
C959 H975 0.960 . S
H960 C944 0.931 . S
H961 C949 0.929 . S
H962 C950 0.960 . S
H963 C950 0.962 . S
H964 C950 0.960 . S
H965 C951 0.961 . S
H966 C951 0.961 . S
H967 C951 0.961 . S
H968 C952 0.931 . S
H969 C957 0.930 . S
H970 C958 0.956 . S
H971 C958 0.961 . S
H972 C958 0.961 . S
H973 C959 0.958 . S
H974 C959 0.961 . S
H975 C959 0.960 . S
C976 C977 1.391 . S
C976 C978 1.380 1_554 S
C976 H992 0.931 . S
C977 C976 1.391 . S
C977 C981 1.376 . S
C978 C976 1.380 1_556 S
C978 C979 1.377 . S
C978 C982 1.535 . S
C979 C978 1.377 . S
C979 C980 1.410 . S
C979 C987 1.503 . S
C980 C979 1.410 . S
C980 C981 1.392 1_556 S
C980 C983 1.511 . S
C981 C977 1.376 . S
C981 C980 1.392 1_554 S
C981 H993 0.929 . S
C982 C978 1.535 . S
C982 H994 0.960 . S
C982 H995 0.962 . S
C982 H996 0.960 1_556 S
C983 C980 1.511 . S
C983 H997 0.961 . S
C983 H998 0.961 . S
C983 H999 0.961 . S
C984 C985 1.370 . S
C984 C986 1.363 . S
C984 H1000 0.931 . S
C985 C984 1.370 . S
C985 C989 1.408 . S
C986 C984 1.363 . S
C986 C987 1.370 . S
C986 C990 1.524 . S
C987 C979 1.503 . S
C987 C986 1.370 . S
C987 C988 1.403 . S
C988 C987 1.403 . S
C988 C989 1.404 . S
C988 C991 1.539 . S
C989 C985 1.408 . S
C989 C988 1.404 . S
C989 H1001 0.930 . S
C990 C986 1.524 . S
C990 H1002 0.956 . S
C990 H1003 0.961 . S
C990 H1004 0.961 . S
C991 C988 1.539 . S
C991 H1005 0.958 . S
C991 H1006 0.961 . S
C991 H1007 0.960 . S
H992 C976 0.931 . S
H993 C981 0.929 . S
H994 C982 0.960 . S
H995 C982 0.962 . S
H996 C982 0.960 1_554 S
H997 C983 0.961 . S
H998 C983 0.961 . S
H999 C983 0.961 . S
H1000 C984 0.931 . S
H1001 C989 0.930 . S
H1002 C990 0.956 . S
H1003 C990 0.961 . S
H1004 C990 0.961 . S
H1005 C991 0.958 . S
H1006 C991 0.961 . S
H1007 C991 0.960 . S
C1008 C1009 1.391 . S
C1008 C1010 1.394 1_554 S
C1008 H1024 0.931 . S
C1009 C1008 1.391 . S
C1009 C1013 1.376 . S
C1010 C1008 1.394 1_556 S
C1010 C1011 1.369 . S
C1010 C1014 1.531 . S
C1011 C1010 1.369 . S
C1011 C1012 1.410 . S
C1011 C1019 1.503 . S
C1012 C1011 1.410 . S
C1012 C1013 1.392 1_556 S
C1012 C1015 1.511 . S
C1013 C1009 1.376 . S
C1013 C1012 1.392 1_554 S
C1013 H1025 0.929 . S
C1014 C1010 1.531 . S
C1014 H1026 0.960 . S
C1014 H1027 0.962 . S
C1014 H1028 0.960 . S
C1015 C1012 1.511 . S
C1015 H1029 0.961 . S
C1015 H1030 0.961 . S
C1015 H1031 0.961 . S
C1016 C1017 1.370 . S
C1016 C1018 1.363 . S
C1016 H1032 0.931 . S
C1017 C1016 1.370 . S
C1017 C1021 1.408 . S
C1018 C1016 1.363 . S
C1018 C1019 1.370 . S
C1018 C1022 1.524 . S
C1019 C1011 1.503 . S
C1019 C1018 1.370 . S
C1019 C1020 1.403 . S
C1020 C1019 1.403 . S
C1020 C1021 1.404 . S
C1020 C1023 1.539 . S
C1021 C1017 1.408 . S
C1021 C1020 1.404 . S
C1021 H1033 0.930 . S
C1022 C1018 1.524 . S
C1022 H1034 0.956 . S
C1022 H1035 0.961 . S
C1022 H1036 0.961 . S
C1023 C1020 1.539 . S
C1023 H1037 0.958 . S
C1023 H1038 0.961 . S
C1023 H1039 0.960 . S
H1024 C1008 0.931 . S
H1025 C1013 0.929 . S
H1026 C1014 0.960 . S
H1027 C1014 0.962 . S
H1028 C1014 0.960 . S
H1029 C1015 0.961 . S
H1030 C1015 0.961 . S
H1031 C1015 0.961 . S
H1032 C1016 0.931 . S
H1033 C1021 0.930 . S
H1034 C1022 0.956 . S
H1035 C1022 0.961 . S
H1036 C1022 0.961 . S
H1037 C1023 0.958 . S
H1038 C1023 0.961 . S
H1039 C1023 0.960 . S
C1040 C1041 1.391 . S
C1040 C1042 1.394 . S
C1040 H1056 0.931 . S
C1041 C1040 1.391 . S
C1041 C1045 1.376 . S
C1042 C1040 1.394 . S
C1042 C1043 1.369 . S
C1042 C1046 1.531 . S
C1043 C1042 1.369 . S
C1043 C1044 1.410 . S
C1043 C1051 1.503 . S
C1044 C1043 1.410 . S
C1044 C1045 1.392 . S
C1044 C1047 1.511 . S
C1045 C1041 1.376 . S
C1045 C1044 1.392 . S
C1045 H1057 0.929 . S
C1046 C1042 1.531 . S
C1046 H1058 0.960 . S
C1046 H1059 0.962 . S
C1046 H1060 0.960 . S
C1047 C1044 1.511 . S
C1047 H1061 0.961 . S
C1047 H1062 0.961 . S
C1047 H1063 0.961 . S
C1048 C1049 1.370 . S
C1048 C1050 1.363 . S
C1048 H1064 0.931 . S
C1049 C1048 1.370 . S
C1049 C1053 1.408 . S
C1050 C1048 1.363 . S
C1050 C1051 1.370 . S
C1050 C1054 1.524 . S
C1051 C1043 1.503 . S
C1051 C1050 1.370 . S
C1051 C1052 1.403 . S
C1052 C1051 1.403 . S
C1052 C1053 1.404 . S
C1052 C1055 1.539 . S
C1053 C1049 1.408 . S
C1053 C1052 1.404 . S
C1053 H1065 0.930 . S
C1054 C1050 1.524 . S
C1054 H1066 0.956 . S
C1054 H1067 0.961 . S
C1054 H1068 0.961 . S
C1055 C1052 1.539 . S
C1055 H1069 0.958 . S
C1055 H1070 0.961 . S
C1055 H1071 0.960 . S
H1056 C1040 0.931 . S
H1057 C1045 0.929 . S
H1058 C1046 0.960 . S
H1059 C1046 0.962 . S
H1060 C1046 0.960 . S
H1061 C1047 0.961 . S
H1062 C1047 0.961 . S
H1063 C1047 0.961 . S
H1064 C1048 0.931 . S
H1065 C1053 0.930 . S
H1066 C1054 0.956 . S
H1067 C1054 0.961 . S
H1068 C1054 0.961 . S
H1069 C1055 0.958 . S
H1070 C1055 0.961 . S
H1071 C1055 0.960 . S
C1072 C1073 1.391 . S
C1072 C1074 1.394 . S
C1072 H1088 0.931 . S
C1073 C1072 1.391 . S
C1073 C1077 1.376 . S
C1074 C1072 1.394 . S
C1074 C1075 1.369 . S
C1074 C1078 1.531 . S
C1075 C1074 1.369 . S
C1075 C1076 1.410 . S
C1075 C1083 1.503 . S
C1076 C1075 1.410 . S
C1076 C1077 1.392 . S
C1076 C1079 1.511 . S
C1077 C1073 1.376 . S
C1077 C1076 1.392 . S
C1077 H1089 0.929 . S
C1078 C1074 1.531 . S
C1078 H1090 0.960 . S
C1078 H1091 0.962 . S
C1078 H1092 0.960 . S
C1079 C1076 1.511 . S
C1079 H1093 0.961 . S
C1079 H1094 0.961 . S
C1079 H1095 0.961 . S
C1080 C1081 1.370 . S
C1080 C1082 1.363 . S
C1080 H1096 0.931 . S
C1081 C1080 1.370 . S
C1081 C1085 1.408 . S
C1082 C1080 1.363 . S
C1082 C1083 1.370 . S
C1082 C1086 1.524 . S
C1083 C1075 1.503 . S
C1083 C1082 1.370 . S
C1083 C1084 1.403 . S
C1084 C1083 1.403 . S
C1084 C1085 1.404 . S
C1084 C1087 1.539 . S
C1085 C1081 1.408 . S
C1085 C1084 1.404 . S
C1085 H1097 0.930 . S
C1086 C1082 1.524 . S
C1086 H1098 0.956 . S
C1086 H1099 0.961 . S
C1086 H1100 0.961 . S
C1087 C1084 1.539 . S
C1087 H1101 0.958 . S
C1087 H1102 0.961 . S
C1087 H1103 0.960 . S
H1088 C1072 0.931 . S
H1089 C1077 0.929 . S
H1090 C1078 0.960 . S
H1091 C1078 0.962 . S
H1092 C1078 0.960 . S
H1093 C1079 0.961 . S
H1094 C1079 0.961 . S
H1095 C1079 0.961 . S
H1096 C1080 0.931 . S
H1097 C1085 0.930 . S
H1098 C1086 0.956 . S
H1099 C1086 0.961 . S
H1100 C1086 0.961 . S
H1101 C1087 0.958 . S
H1102 C1087 0.961 . S
H1103 C1087 0.960 . S
C1104 C1105 1.391 . S
C1104 C1106 1.394 . S
C1104 H1120 0.931 . S
C1105 C1104 1.391 . S
C1105 C1109 1.376 . S
C1106 C1104 1.394 . S
C1106 C1107 1.369 . S
C1106 C1110 1.531 . S
C1107 C1106 1.369 . S
C1107 C1108 1.410 . S
C1107 C1115 1.503 . S
C1108 C1107 1.410 . S
C1108 C1109 1.392 . S
C1108 C1111 1.511 . S
C1109 C1105 1.376 . S
C1109 C1108 1.392 . S
C1109 H1121 0.929 . S
C1110 C1106 1.531 . S
C1110 H1122 0.960 . S
C1110 H1123 0.962 . S
C1110 H1124 0.960 . S
C1111 C1108 1.511 . S
C1111 H1125 0.961 . S
C1111 H1126 0.961 . S
C1111 H1127 0.961 . S
C1112 C1113 1.370 . S
C1112 C1114 1.363 . S
C1112 H1128 0.931 . S
C1113 C1112 1.370 . S
C1113 C1117 1.408 . S
C1114 C1112 1.363 . S
C1114 C1115 1.370 . S
C1114 C1118 1.524 . S
C1115 C1107 1.503 . S
C1115 C1114 1.370 . S
C1115 C1116 1.403 . S
C1116 C1115 1.403 . S
C1116 C1117 1.404 . S
C1116 C1119 1.539 . S
C1117 C1113 1.408 . S
C1117 C1116 1.404 . S
C1117 H1129 0.930 . S
C1118 C1114 1.524 . S
C1118 H1130 0.956 . S
C1118 H1131 0.961 . S
C1118 H1132 0.961 . S
C1119 C1116 1.539 . S
C1119 H1133 0.958 . S
C1119 H1134 0.961 . S
C1119 H1135 0.960 . S
H1120 C1104 0.931 . S
H1121 C1109 0.929 . S
H1122 C1110 0.960 . S
H1123 C1110 0.962 . S
H1124 C1110 0.960 . S
H1125 C1111 0.961 . S
H1126 C1111 0.961 . S
H1127 C1111 0.961 . S
H1128 C1112 0.931 . S
H1129 C1117 0.930 . S
H1130 C1118 0.956 . S
H1131 C1118 0.961 . S
H1132 C1118 0.961 . S
H1133 C1119 0.958 . S
H1134 C1119 0.961 . S
H1135 C1119 0.960 . S
C1136 C1137 1.391 . S
C1136 C1138 1.394 . S
C1136 H1152 0.931 . S
C1137 C1136 1.391 . S
C1137 C1141 1.376 . S
C1138 C1136 1.394 . S
C1138 C1139 1.369 . S
C1138 C1142 1.531 . S
C1139 C1138 1.369 . S
C1139 C1140 1.410 . S
C1139 C1147 1.503 . S
C1140 C1139 1.410 . S
C1140 C1141 1.392 . S
C1140 C1143 1.511 . S
C1141 C1137 1.376 . S
C1141 C1140 1.392 . S
C1141 H1153 0.929 . S
C1142 C1138 1.531 . S
C1142 H1154 0.960 . S
C1142 H1155 0.962 . S
C1142 H1156 0.960 . S
C1143 C1140 1.511 . S
C1143 H1157 0.961 . S
C1143 H1158 0.961 . S
C1143 H1159 0.961 . S
C1144 C1145 1.370 . S
C1144 C1146 1.363 . S
C1144 H1160 0.931 . S
C1145 C1144 1.370 . S
C1145 C1149 1.408 . S
C1146 C1144 1.363 . S
C1146 C1147 1.370 . S
C1146 C1150 1.524 . S
C1147 C1139 1.503 . S
C1147 C1146 1.370 . S
C1147 C1148 1.403 . S
C1148 C1147 1.403 . S
C1148 C1149 1.404 . S
C1148 C1151 1.539 . S
C1149 C1145 1.408 . S
C1149 C1148 1.404 . S
C1149 H1161 0.930 . S
C1150 C1146 1.524 . S
C1150 H1162 0.956 . S
C1150 H1163 0.961 . S
C1150 H1164 0.961 . S
C1151 C1148 1.539 . S
C1151 H1165 0.958 . S
C1151 H1166 0.961 . S
C1151 H1167 0.960 . S
H1152 C1136 0.931 . S
H1153 C1141 0.929 . S
H1154 C1142 0.960 . S
H1155 C1142 0.962 . S
H1156 C1142 0.960 . S
H1157 C1143 0.961 . S
H1158 C1143 0.961 . S
H1159 C1143 0.961 . S
H1160 C1144 0.931 . S
H1161 C1149 0.930 . S
H1162 C1150 0.956 . S
H1163 C1150 0.961 . S
H1164 C1150 0.961 . S
H1165 C1151 0.958 . S
H1166 C1151 0.961 . S
H1167 C1151 0.960 . S
C1168 C1169 1.391 . S
C1168 C1170 1.394 . S
C1168 H1184 0.931 . S
C1169 C1168 1.391 . S
C1169 C1173 1.376 . S
C1170 C1168 1.394 . S
C1170 C1171 1.369 . S
C1170 C1174 1.531 . S
C1171 C1170 1.369 . S
C1171 C1172 1.410 . S
C1171 C1179 1.503 . S
C1172 C1171 1.410 . S
C1172 C1173 1.392 . S
C1172 C1175 1.511 . S
C1173 C1169 1.376 . S
C1173 C1172 1.392 . S
C1173 H1185 0.929 . S
C1174 C1170 1.531 . S
C1174 H1186 0.960 . S
C1174 H1187 0.962 . S
C1174 H1188 0.960 . S
C1175 C1172 1.511 . S
C1175 H1189 0.961 . S
C1175 H1190 0.961 . S
C1175 H1191 0.961 . S
C1176 C1177 1.370 . S
C1176 C1178 1.363 . S
C1176 H1192 0.931 . S
C1177 C1176 1.370 . S
C1177 C1181 1.408 . S
C1178 C1176 1.363 . S
C1178 C1179 1.370 . S
C1178 C1182 1.524 . S
C1179 C1171 1.503 . S
C1179 C1178 1.370 . S
C1179 C1180 1.403 . S
C1180 C1179 1.403 . S
C1180 C1181 1.404 . S
C1180 C1183 1.539 . S
C1181 C1177 1.408 . S
C1181 C1180 1.404 . S
C1181 H1193 0.930 . S
C1182 C1178 1.524 . S
C1182 H1194 0.956 . S
C1182 H1195 0.961 . S
C1182 H1196 0.961 . S
C1183 C1180 1.539 . S
C1183 H1197 0.958 . S
C1183 H1198 0.961 . S
C1183 H1199 0.960 . S
H1184 C1168 0.931 . S
H1185 C1173 0.929 . S
H1186 C1174 0.960 . S
H1187 C1174 0.962 . S
H1188 C1174 0.960 . S
H1189 C1175 0.961 . S
H1190 C1175 0.961 . S
H1191 C1175 0.961 . S
H1192 C1176 0.931 . S
H1193 C1181 0.930 . S
H1194 C1182 0.956 . S
H1195 C1182 0.961 . S
H1196 C1182 0.961 . S
H1197 C1183 0.958 . S
H1198 C1183 0.961 . S
H1199 C1183 0.960 . S
C1200 C1201 1.391 . S
C1200 C1202 1.394 . S
C1200 H1216 0.931 . S
C1201 C1200 1.391 . S
C1201 C1205 1.376 . S
C1202 C1200 1.394 . S
C1202 C1203 1.369 . S
C1202 C1206 1.531 . S
C1203 C1202 1.369 . S
C1203 C1204 1.410 . S
C1203 C1211 1.503 . S
C1204 C1203 1.410 . S
C1204 C1205 1.392 . S
C1204 C1207 1.511 . S
C1205 C1201 1.376 . S
C1205 C1204 1.392 . S
C1205 H1217 0.929 . S
C1206 C1202 1.531 . S
C1206 H1218 0.960 . S
C1206 H1219 0.962 . S
C1206 H1220 0.960 . S
C1207 C1204 1.511 . S
C1207 H1221 0.961 . S
C1207 H1222 0.961 . S
C1207 H1223 0.961 . S
C1208 C1209 1.370 . S
C1208 C1210 1.363 . S
C1208 H1224 0.931 . S
C1209 C1208 1.370 . S
C1209 C1213 1.408 . S
C1210 C1208 1.363 . S
C1210 C1211 1.370 . S
C1210 C1214 1.524 . S
C1211 C1203 1.503 . S
C1211 C1210 1.370 . S
C1211 C1212 1.403 . S
C1212 C1211 1.403 . S
C1212 C1213 1.404 . S
C1212 C1215 1.539 . S
C1213 C1209 1.408 . S
C1213 C1212 1.404 . S
C1213 H1225 0.930 . S
C1214 C1210 1.524 . S
C1214 H1226 0.956 . S
C1214 H1227 0.961 . S
C1214 H1228 0.961 . S
C1215 C1212 1.539 . S
C1215 H1229 0.958 . S
C1215 H1230 0.961 . S
C1215 H1231 0.960 . S
H1216 C1200 0.931 . S
H1217 C1205 0.929 . S
H1218 C1206 0.960 . S
H1219 C1206 0.962 . S
H1220 C1206 0.960 . S
H1221 C1207 0.961 . S
H1222 C1207 0.961 . S
H1223 C1207 0.961 . S
H1224 C1208 0.931 . S
H1225 C1213 0.930 . S
H1226 C1214 0.956 . S
H1227 C1214 0.961 . S
H1228 C1214 0.961 . S
H1229 C1215 0.958 . S
H1230 C1215 0.961 . S
H1231 C1215 0.960 . S
C1232 C1233 1.391 . S
C1232 C1234 1.394 . S
C1232 H1248 0.931 . S
C1233 C1232 1.391 . S
C1233 C1237 1.376 . S
C1234 C1232 1.394 . S
C1234 C1235 1.369 . S
C1234 C1238 1.531 . S
C1235 C1234 1.369 . S
C1235 C1236 1.410 . S
C1235 C1243 1.503 . S
C1236 C1235 1.410 . S
C1236 C1237 1.392 . S
C1236 C1239 1.511 . S
C1237 C1233 1.376 . S
C1237 C1236 1.392 . S
C1237 H1249 0.929 . S
C1238 C1234 1.531 . S
C1238 H1250 0.960 . S
C1238 H1251 0.962 . S
C1238 H1252 0.960 . S
C1239 C1236 1.511 . S
C1239 H1253 0.961 . S
C1239 H1254 0.961 . S
C1239 H1255 0.961 . S
C1240 C1241 1.370 . S
C1240 C1242 1.363 . S
C1240 H1256 0.931 . S
C1241 C1240 1.370 . S
C1241 C1245 1.408 . S
C1242 C1240 1.363 . S
C1242 C1243 1.370 . S
C1242 C1246 1.524 . S
C1243 C1235 1.503 . S
C1243 C1242 1.370 . S
C1243 C1244 1.403 . S
C1244 C1243 1.403 . S
C1244 C1245 1.404 . S
C1244 C1247 1.539 . S
C1245 C1241 1.408 . S
C1245 C1244 1.404 . S
C1245 H1257 0.930 . S
C1246 C1242 1.524 . S
C1246 H1258 0.956 . S
C1246 H1259 0.961 . S
C1246 H1260 0.961 . S
C1247 C1244 1.539 . S
C1247 H1261 0.958 . S
C1247 H1262 0.961 . S
C1247 H1263 0.960 . S
H1248 C1232 0.931 . S
H1249 C1237 0.929 . S
H1250 C1238 0.960 . S
H1251 C1238 0.962 . S
H1252 C1238 0.960 . S
H1253 C1239 0.961 . S
H1254 C1239 0.961 . S
H1255 C1239 0.961 . S
H1256 C1240 0.931 . S
H1257 C1245 0.930 . S
H1258 C1246 0.956 . S
H1259 C1246 0.961 . S
H1260 C1246 0.961 . S
H1261 C1247 0.958 . S
H1262 C1247 0.961 . S
H1263 C1247 0.960 . S
C1264 C1265 1.391 . S
C1264 C1266 1.394 . S
C1264 H1280 0.931 . S
C1265 C1264 1.391 . S
C1265 C1269 1.376 . S
C1266 C1264 1.394 . S
C1266 C1267 1.369 . S
C1266 C1270 1.531 . S
C1267 C1266 1.369 . S
C1267 C1268 1.410 . S
C1267 C1275 1.503 . S
C1268 C1267 1.410 . S
C1268 C1269 1.392 . S
C1268 C1271 1.511 . S
C1269 C1265 1.376 . S
C1269 C1268 1.392 . S
C1269 H1281 0.929 . S
C1270 C1266 1.531 . S
C1270 H1282 0.960 . S
C1270 H1283 0.962 . S
C1270 H1284 0.960 . S
C1271 C1268 1.511 . S
C1271 H1285 0.961 . S
C1271 H1286 0.961 . S
C1271 H1287 0.961 . S
C1272 C1273 1.370 . S
C1272 C1274 1.363 . S
C1272 H1288 0.931 . S
C1273 C1272 1.370 . S
C1273 C1277 1.408 . S
C1274 C1272 1.363 . S
C1274 C1275 1.370 . S
C1274 C1278 1.524 . S
C1275 C1267 1.503 . S
C1275 C1274 1.370 . S
C1275 C1276 1.403 . S
C1276 C1275 1.403 . S
C1276 C1277 1.404 . S
C1276 C1279 1.539 . S
C1277 C1273 1.408 . S
C1277 C1276 1.404 . S
C1277 H1289 0.930 . S
C1278 C1274 1.524 . S
C1278 H1290 0.956 . S
C1278 H1291 0.961 . S
C1278 H1292 0.961 . S
C1279 C1276 1.539 . S
C1279 H1293 0.958 . S
C1279 H1294 0.961 . S
C1279 H1295 0.960 . S
H1280 C1264 0.931 . S
H1281 C1269 0.929 . S
H1282 C1270 0.960 . S
H1283 C1270 0.962 . S
H1284 C1270 0.960 . S
H1285 C1271 0.961 . S
H1286 C1271 0.961 . S
H1287 C1271 0.961 . S
H1288 C1272 0.931 . S
H1289 C1277 0.930 . S
H1290 C1278 0.956 . S
H1291 C1278 0.961 . S
H1292 C1278 0.961 . S
H1293 C1279 0.958 . S
H1294 C1279 0.961 . S
H1295 C1279 0.960 . S
C1296 C1297 1.391 . S
C1296 C1298 1.394 . S
C1296 H1312 0.931 . S
C1297 C1296 1.391 . S
C1297 C1301 1.376 . S
C1298 C1296 1.394 . S
C1298 C1299 1.369 . S
C1298 C1302 1.531 . S
C1299 C1298 1.369 . S
C1299 C1300 1.410 1_554 S
C1299 C1307 1.503 1_544 S
C1300 C1299 1.410 1_556 S
C1300 C1301 1.392 1_556 S
C1300 C1303 1.511 . S
C1301 C1297 1.376 . S
C1301 C1300 1.392 1_554 S
C1301 H1313 0.929 1_554 S
C1302 C1298 1.531 . S
C1302 H1314 0.960 1_545 S
C1302 H1315 0.962 . S
C1302 H1316 0.960 . S
C1303 C1300 1.511 . S
C1303 H1317 0.961 . S
C1303 H1318 0.961 . S
C1303 H1319 0.961 . S
C1304 C1305 1.370 . S
C1304 C1306 1.363 . S
C1304 H1320 0.931 . S
C1305 C1304 1.370 . S
C1305 C1309 1.408 1_556 S
C1306 C1304 1.363 . S
C1306 C1307 1.371 . S
C1306 C1310 1.524 . S
C1307 C1299 1.503 1_566 S
C1307 C1306 1.371 . S
C1307 C1308 1.402 1_556 S
C1308 C1307 1.402 1_554 S
C1308 C1309 1.404 . S
C1308 C1311 1.539 . S
C1309 C1305 1.408 1_554 S
C1309 C1308 1.404 . S
C1309 H1321 0.930 . S
C1310 C1306 1.524 . S
C1310 H1322 0.956 1_565 S
C1310 H1323 0.961 1_565 S
C1310 H1324 0.961 . S
C1311 C1308 1.539 . S
C1311 H1325 0.958 . S
C1311 H1326 0.961 . S
C1311 H1327 0.960 . S
H1312 C1296 0.931 . S
H1313 C1301 0.929 1_556 S
H1314 C1302 0.960 1_565 S
H1315 C1302 0.962 . S
H1316 C1302 0.960 . S
H1317 C1303 0.961 . S
H1318 C1303 0.961 . S
H1319 C1303 0.961 . S
H1320 C1304 0.931 . S
H1321 C1309 0.930 . S
H1322 C1310 0.956 1_545 S
H1323 C1310 0.961 1_545 S
H1324 C1310 0.961 . S
H1325 C1311 0.958 . S
H1326 C1311 0.961 . S
H1327 C1311 0.960 . S
C1328 C1329 1.391 1_554 S
C1328 C1330 1.394 . S
C1328 H1344 0.931 . S
C1329 C1328 1.391 1_556 S
C1329 C1333 1.376 . S
C1330 C1328 1.394 . S
C1330 C1331 1.369 1_554 S
C1330 C1334 1.531 . S
C1331 C1330 1.369 1_556 S
C1331 C1332 1.410 . S
C1331 C1339 1.503 1_456 S
C1332 C1331 1.410 . S
C1332 C1333 1.392 . S
C1332 C1335 1.511 . S
C1333 C1329 1.376 . S
C1333 C1332 1.392 . S
C1333 H1345 0.929 . S
C1334 C1330 1.531 . S
C1334 H1346 0.960 . S
C1334 H1347 0.962 . S
C1334 H1348 0.960 . S
C1335 C1332 1.511 . S
C1335 H1349 0.961 . S
C1335 H1350 0.961 1_455 S
C1335 H1351 0.961 1_455 S
C1336 C1337 1.370 . S
C1336 C1338 1.363 . S
C1336 H1352 0.931 . S
C1337 C1336 1.370 . S
C1337 C1341 1.408 . S
C1338 C1336 1.363 . S
C1338 C1339 1.370 . S
C1338 C1342 1.524 . S
C1339 C1331 1.503 1_654 S
C1339 C1338 1.370 . S
C1339 C1340 1.403 . S
C1340 C1339 1.403 . S
C1340 C1341 1.404 . S
C1340 C1343 1.539 1_554 S
C1341 C1337 1.408 . S
C1341 C1340 1.404 . S
C1341 H1353 0.930 . S
C1342 C1338 1.524 . S
C1342 H1354 0.956 1_655 S
C1342 H1355 0.962 1_654 S
C1342 H1356 0.961 . S
C1343 C1340 1.539 1_556 S
C1343 H1357 0.958 1_556 S
C1343 H1358 0.961 . S
C1343 H1359 0.960 . S
H1344 C1328 0.931 . S
H1345 C1333 0.929 . S
H1346 C1334 0.960 . S
H1347 C1334 0.962 . S
H1348 C1334 0.960 . S
H1349 C1335 0.961 . S
H1350 C1335 0.961 1_655 S
H1351 C1335 0.961 1_655 S
H1352 C1336 0.931 . S
H1353 C1341 0.930 . S
H1354 C1342 0.956 1_455 S
H1355 C1342 0.962 1_456 S
H1356 C1342 0.961 . S
H1357 C1343 0.958 1_554 S
H1358 C1343 0.961 . S
H1359 C1343 0.960 . S
C1360 C1361 1.391 . S
C1360 C1362 1.394 . S
C1360 H1376 0.931 . S
C1361 C1360 1.391 . S
C1361 C1365 1.376 1_554 S
C1362 C1360 1.394 . S
C1362 C1363 1.373 . S
C1362 C1366 1.531 . S
C1363 C1362 1.373 . S
C1363 C1364 1.406 1_554 S
C1363 C1371 1.502 1_564 S
C1364 C1363 1.406 1_556 S
C1364 C1365 1.392 . S
C1364 C1367 1.511 . S
C1365 C1361 1.376 1_556 S
C1365 C1364 1.392 . S
C1365 H1377 0.929 . S
C1366 C1362 1.531 . S
C1366 H1378 0.960 1_565 S
C1366 H1379 0.962 1_565 S
C1366 H1380 0.960 . S
C1367 C1364 1.511 . S
C1367 H1381 0.961 . S
C1367 H1382 0.961 . S
C1367 H1383 0.961 . S
C1368 C1369 1.367 1_554 S
C1368 C1370 1.364 . S
C1368 H1384 0.933 . S
C1369 C1368 1.367 1_556 S
C1369 C1373 1.408 . S
C1370 C1368 1.364 . S
C1370 C1371 1.370 1_554 S
C1370 C1374 1.524 . S
C1371 C1363 1.502 1_546 S
C1371 C1370 1.370 1_556 S
C1371 C1372 1.403 . S
C1372 C1371 1.403 . S
C1372 C1373 1.404 . S
C1372 C1375 1.539 . S
C1373 C1369 1.408 . S
C1373 C1372 1.404 . S
C1373 H1385 0.930 . S
C1374 C1370 1.524 . S
C1374 H1386 0.956 . S
C1374 H1387 0.961 . S
C1374 H1388 0.961 . S
C1375 C1372 1.539 . S
C1375 H1389 0.958 . S
C1375 H1390 0.961 . S
C1375 H1391 0.960 1_545 S
H1376 C1360 0.931 . S
H1377 C1365 0.929 . S
H1378 C1366 0.960 1_545 S
H1379 C1366 0.962 1_545 S
H1380 C1366 0.960 . S
H1381 C1367 0.961 . S
H1382 C1367 0.961 . S
H1383 C1367 0.961 . S
H1384 C1368 0.933 . S
H1385 C1373 0.930 . S
H1386 C1374 0.956 . S
H1387 C1374 0.961 . S
H1388 C1374 0.961 . S
H1389 C1375 0.958 . S
H1390 C1375 0.961 . S
H1391 C1375 0.960 1_565 S
C1392 C1393 1.391 . S
C1392 C1394 1.394 . S
C1392 H1408 0.931 . S
C1393 C1392 1.391 . S
C1393 C1397 1.376 1_556 S
C1394 C1392 1.394 . S
C1394 C1395 1.369 . S
C1394 C1398 1.531 . S
C1395 C1394 1.369 . S
C1395 C1396 1.410 1_556 S
C1395 C1403 1.503 1_656 S
C1396 C1395 1.410 1_554 S
C1396 C1397 1.392 . S
C1396 C1399 1.511 . S
C1397 C1393 1.376 1_554 S
C1397 C1396 1.392 . S
C1397 H1409 0.929 . S
C1398 C1394 1.531 . S
C1398 H1410 0.960 1_655 S
C1398 H1411 0.962 1_655 S
C1398 H1412 0.960 . S
C1399 C1396 1.511 . S
C1399 H1413 0.961 . S
C1399 H1414 0.961 . S
C1399 H1415 0.961 . S
C1400 C1401 1.370 . S
C1400 C1402 1.363 . S
C1400 H1416 0.931 . S
C1401 C1400 1.370 . S
C1401 C1405 1.408 . S
C1402 C1400 1.363 . S
C1402 C1403 1.370 . S
C1402 C1406 1.524 . S
C1403 C1395 1.503 1_454 S
C1403 C1402 1.370 . S
C1403 C1404 1.403 1_554 S
C1404 C1403 1.403 1_556 S
C1404 C1405 1.404 1_556 S
C1404 C1407 1.539 . S
C1405 C1401 1.408 . S
C1405 C1404 1.404 1_554 S
C1405 H1417 0.930 . S
C1406 C1402 1.524 . S
C1406 H1418 0.977 1_554 S
C1406 H1419 0.961 1_455 S
C1406 H1420 0.961 . S
C1407 C1404 1.539 . S
C1407 H1421 0.958 . S
C1407 H1422 0.961 . S
C1407 H1423 0.960 . S
H1408 C1392 0.931 . S
H1409 C1397 0.929 . S
H1410 C1398 0.960 1_455 S
H1411 C1398 0.962 1_455 S
H1412 C1398 0.960 . S
H1413 C1399 0.961 . S
H1414 C1399 0.961 . S
H1415 C1399 0.961 . S
H1416 C1400 0.931 . S
H1417 C1405 0.930 . S
H1418 C1406 0.977 1_556 S
H1419 C1406 0.961 1_655 S
H1420 C1406 0.961 . S
H1421 C1407 0.958 . S
H1422 C1407 0.961 . S
H1423 C1407 0.960 . S
C1424 C1425 1.391 . S
C1424 C1426 1.394 . S
C1424 H1440 0.931 . S
C1425 C1424 1.391 . S
C1425 C1429 1.376 . S
C1426 C1424 1.394 . S
C1426 C1427 1.369 . S
C1426 C1430 1.531 . S
C1427 C1426 1.369 . S
C1427 C1428 1.410 . S
C1427 C1435 1.503 . S
C1428 C1427 1.410 . S
C1428 C1429 1.392 . S
C1428 C1431 1.511 . S
C1429 C1425 1.376 . S
C1429 C1428 1.392 . S
C1429 H1441 0.929 . S
C1430 C1426 1.531 . S
C1430 H1442 0.960 . S
C1430 H1443 0.962 . S
C1430 H1444 0.960 . S
C1431 C1428 1.511 . S
C1431 H1445 0.961 . S
C1431 H1446 0.961 . S
C1431 H1447 0.961 . S
C1432 C1433 1.370 . S
C1432 C1434 1.363 . S
C1432 H1448 0.931 . S
C1433 C1432 1.370 . S
C1433 C1437 1.408 . S
C1434 C1432 1.363 . S
C1434 C1435 1.370 . S
C1434 C1438 1.524 . S
C1435 C1427 1.503 . S
C1435 C1434 1.370 . S
C1435 C1436 1.403 . S
C1436 C1435 1.403 . S
C1436 C1437 1.404 . S
C1436 C1439 1.539 . S
C1437 C1433 1.408 . S
C1437 C1436 1.404 . S
C1437 H1449 0.930 . S
C1438 C1434 1.524 . S
C1438 H1450 0.956 . S
C1438 H1451 0.961 . S
C1438 H1452 0.961 . S
C1439 C1436 1.539 . S
C1439 H1453 0.958 . S
C1439 H1454 0.961 . S
C1439 H1455 0.960 . S
H1440 C1424 0.931 . S
H1441 C1429 0.929 . S
H1442 C1430 0.960 . S
H1443 C1430 0.962 . S
H1444 C1430 0.960 . S
H1445 C1431 0.961 . S
H1446 C1431 0.961 . S
H1447 C1431 0.961 . S
H1448 C1432 0.931 . S
H1449 C1437 0.930 . S
H1450 C1438 0.956 . S
H1451 C1438 0.961 . S
H1452 C1438 0.961 . S
H1453 C1439 0.958 . S
H1454 C1439 0.961 . S
H1455 C1439 0.960 . S
C1456 C1457 1.391 . S
C1456 C1458 1.394 . S
C1456 H1472 0.931 . S
C1457 C1456 1.391 . S
C1457 C1461 1.376 . S
C1458 C1456 1.394 . S
C1458 C1459 1.369 . S
C1458 C1462 1.531 . S
C1459 C1458 1.369 . S
C1459 C1460 1.410 . S
C1459 C1467 1.503 . S
C1460 C1459 1.410 . S
C1460 C1461 1.392 . S
C1460 C1463 1.511 . S
C1461 C1457 1.376 . S
C1461 C1460 1.392 . S
C1461 H1473 0.929 . S
C1462 C1458 1.531 . S
C1462 H1474 0.960 . S
C1462 H1475 0.962 . S
C1462 H1476 0.960 . S
C1463 C1460 1.511 . S
C1463 H1477 0.961 . S
C1463 H1478 0.961 . S
C1463 H1479 0.961 . S
C1464 C1465 1.370 . S
C1464 C1466 1.363 . S
C1464 H1480 0.931 . S
C1465 C1464 1.370 . S
C1465 C1469 1.408 . S
C1466 C1464 1.363 . S
C1466 C1467 1.370 . S
C1466 C1470 1.524 . S
C1467 C1459 1.503 . S
C1467 C1466 1.370 . S
C1467 C1468 1.403 . S
C1468 C1467 1.403 . S
C1468 C1469 1.404 . S
C1468 C1471 1.539 . S
C1469 C1465 1.408 . S
C1469 C1468 1.404 . S
C1469 H1481 0.930 . S
C1470 C1466 1.524 . S
C1470 H1482 0.956 . S
C1470 H1483 0.961 . S
C1470 H1484 0.961 . S
C1471 C1468 1.539 . S
C1471 H1485 0.958 . S
C1471 H1486 0.961 . S
C1471 H1487 0.960 . S
H1472 C1456 0.931 . S
H1473 C1461 0.929 . S
H1474 C1462 0.960 . S
H1475 C1462 0.962 . S
H1476 C1462 0.960 . S
H1477 C1463 0.961 . S
H1478 C1463 0.961 . S
H1479 C1463 0.961 . S
H1480 C1464 0.931 . S
H1481 C1469 0.930 . S
H1482 C1470 0.956 . S
H1483 C1470 0.961 . S
H1484 C1470 0.961 . S
H1485 C1471 0.958 . S
H1486 C1471 0.961 . S
H1487 C1471 0.960 . S
C1488 C1489 1.391 . S
C1488 C1490 1.394 . S
C1488 H1504 0.931 . S
C1489 C1488 1.391 . S
C1489 C1493 1.376 . S
C1490 C1488 1.394 . S
C1490 C1491 1.369 . S
C1490 C1494 1.531 . S
C1491 C1490 1.369 . S
C1491 C1492 1.410 . S
C1491 C1499 1.503 . S
C1492 C1491 1.410 . S
C1492 C1493 1.392 . S
C1492 C1495 1.511 . S
C1493 C1489 1.376 . S
C1493 C1492 1.392 . S
C1493 H1505 0.929 . S
C1494 C1490 1.531 . S
C1494 H1506 0.960 . S
C1494 H1507 0.962 . S
C1494 H1508 0.960 . S
C1495 C1492 1.511 . S
C1495 H1509 0.961 . S
C1495 H1510 0.961 . S
C1495 H1511 0.961 . S
C1496 C1497 1.370 . S
C1496 C1498 1.363 . S
C1496 H1512 0.931 . S
C1497 C1496 1.370 . S
C1497 C1501 1.408 . S
C1498 C1496 1.363 . S
C1498 C1499 1.370 . S
C1498 C1502 1.524 . S
C1499 C1491 1.503 . S
C1499 C1498 1.370 . S
C1499 C1500 1.403 . S
C1500 C1499 1.403 . S
C1500 C1501 1.404 . S
C1500 C1503 1.539 . S
C1501 C1497 1.408 . S
C1501 C1500 1.404 . S
C1501 H1513 0.930 . S
C1502 C1498 1.524 . S
C1502 H1514 0.956 . S
C1502 H1515 0.961 . S
C1502 H1516 0.961 . S
C1503 C1500 1.539 . S
C1503 H1517 0.958 . S
C1503 H1518 0.961 . S
C1503 H1519 0.960 . S
H1504 C1488 0.931 . S
H1505 C1493 0.929 . S
H1506 C1494 0.960 . S
H1507 C1494 0.962 . S
H1508 C1494 0.960 . S
H1509 C1495 0.961 . S
H1510 C1495 0.961 . S
H1511 C1495 0.961 . S
H1512 C1496 0.931 . S
H1513 C1501 0.930 . S
H1514 C1502 0.956 . S
H1515 C1502 0.961 . S
H1516 C1502 0.961 . S
H1517 C1503 0.958 . S
H1518 C1503 0.961 . S
H1519 C1503 0.960 . S
C1520 C1521 1.391 . S
C1520 C1522 1.394 . S
C1520 H1536 0.931 . S
C1521 C1520 1.391 . S
C1521 C1525 1.376 . S
C1522 C1520 1.394 . S
C1522 C1523 1.369 . S
C1522 C1526 1.531 . S
C1523 C1522 1.369 . S
C1523 C1524 1.410 . S
C1523 C1531 1.503 . S
C1524 C1523 1.410 . S
C1524 C1525 1.392 . S
C1524 C1527 1.511 . S
C1525 C1521 1.376 . S
C1525 C1524 1.392 . S
C1525 H1537 0.929 . S
C1526 C1522 1.531 . S
C1526 H1538 0.960 . S
C1526 H1539 0.962 . S
C1526 H1540 0.960 . S
C1527 C1524 1.511 . S
C1527 H1541 0.961 . S
C1527 H1542 0.961 . S
C1527 H1543 0.961 . S
C1528 C1529 1.370 . S
C1528 C1530 1.363 . S
C1528 H1544 0.931 . S
C1529 C1528 1.370 . S
C1529 C1533 1.408 . S
C1530 C1528 1.363 . S
C1530 C1531 1.370 . S
C1530 C1534 1.524 . S
C1531 C1523 1.503 . S
C1531 C1530 1.370 . S
C1531 C1532 1.403 . S
C1532 C1531 1.403 . S
C1532 C1533 1.404 . S
C1532 C1535 1.539 . S
C1533 C1529 1.408 . S
C1533 C1532 1.404 . S
C1533 H1545 0.930 . S
C1534 C1530 1.524 . S
C1534 H1546 0.956 . S
C1534 H1547 0.961 . S
C1534 H1548 0.961 . S
C1535 C1532 1.539 . S
C1535 H1549 0.958 . S
C1535 H1550 0.961 . S
C1535 H1551 0.960 . S
H1536 C1520 0.931 . S
H1537 C1525 0.929 . S
H1538 C1526 0.960 . S
H1539 C1526 0.962 . S
H1540 C1526 0.960 . S
H1541 C1527 0.961 . S
H1542 C1527 0.961 . S
H1543 C1527 0.961 . S
H1544 C1528 0.931 . S
H1545 C1533 0.930 . S
H1546 C1534 0.956 . S
H1547 C1534 0.961 . S
H1548 C1534 0.961 . S
H1549 C1535 0.958 . S
H1550 C1535 0.961 . S
H1551 C1535 0.960 . S
C1552 C1553 1.391 1_556 S
C1552 C1554 1.394 . S
C1552 H1568 0.931 . S
C1553 C1552 1.391 1_554 S
C1553 C1557 1.376 . S
C1554 C1552 1.394 . S
C1554 C1555 1.369 . S
C1554 C1558 1.531 . S
C1555 C1554 1.369 . S
C1555 C1556 1.410 1_556 S
C1555 C1563 1.503 . S
C1556 C1555 1.410 1_554 S
C1556 C1557 1.392 . S
C1556 C1559 1.511 . S
C1557 C1553 1.376 . S
C1557 C1556 1.392 . S
C1557 H1569 0.929 . S
C1558 C1554 1.531 . S
C1558 H1570 0.960 . S
C1558 H1571 0.962 . S
C1558 H1572 0.960 . S
C1559 C1556 1.511 . S
C1559 H1573 0.961 . S
C1559 H1574 0.961 . S
C1559 H1575 0.961 . S
C1560 C1561 1.368 1_554 S
C1560 C1562 1.364 . S
C1560 H1576 0.932 . S
C1561 C1560 1.368 1_556 S
C1561 C1565 1.408 . S
C1562 C1560 1.364 . S
C1562 C1563 1.370 1_554 S
C1562 C1566 1.524 . S
C1563 C1555 1.503 . S
C1563 C1562 1.370 1_556 S
C1563 C1564 1.403 . S
C1564 C1563 1.403 . S
C1564 C1565 1.404 . S
C1564 C1567 1.539 . S
C1565 C1561 1.408 . S
C1565 C1564 1.404 . S
C1565 H1577 0.930 . S
C1566 C1562 1.524 . S
C1566 H1578 0.956 . S
C1566 H1579 0.961 . S
C1566 H1580 0.961 . S
C1567 C1564 1.539 . S
C1567 H1581 0.958 . S
C1567 H1582 0.961 . S
C1567 H1583 0.960 . S
H1568 C1552 0.931 . S
H1569 C1557 0.929 . S
H1570 C1558 0.960 . S
H1571 C1558 0.962 . S
H1572 C1558 0.960 . S
H1573 C1559 0.961 . S
H1574 C1559 0.961 . S
H1575 C1559 0.961 . S
H1576 C1560 0.932 . S
H1577 C1565 0.930 . S
H1578 C1566 0.956 . S
H1579 C1566 0.961 . S
H1580 C1566 0.961 . S
H1581 C1567 0.958 . S
H1582 C1567 0.961 . S
H1583 C1567 0.960 . S
C1584 C1585 1.391 . S
C1584 C1586 1.394 . S
C1584 H1600 0.931 . S
C1585 C1584 1.391 . S
C1585 C1589 1.376 1_554 S
C1586 C1584 1.394 . S
C1586 C1587 1.369 . S
C1586 C1590 1.531 . S
C1587 C1586 1.369 . S
C1587 C1588 1.410 1_554 S
C1587 C1595 1.503 1_554 S
C1588 C1587 1.410 1_556 S
C1588 C1589 1.392 . S
C1588 C1591 1.511 . S
C1589 C1585 1.376 1_556 S
C1589 C1588 1.392 . S
C1589 H1601 0.929 . S
C1590 C1586 1.531 . S
C1590 H1602 0.960 . S
C1590 H1603 0.962 . S
C1590 H1604 0.960 . S
C1591 C1588 1.511 . S
C1591 H1605 0.961 . S
C1591 H1606 0.961 . S
C1591 H1607 0.961 . S
C1592 C1593 1.370 . S
C1592 C1594 1.363 . S
C1592 H1608 0.931 . S
C1593 C1592 1.370 . S
C1593 C1597 1.408 . S
C1594 C1592 1.363 . S
C1594 C1595 1.370 . S
C1594 C1598 1.524 1_556 S
C1595 C1587 1.503 1_556 S
C1595 C1594 1.370 . S
C1595 C1596 1.403 . S
C1596 C1595 1.403 . S
C1596 C1597 1.404 . S
C1596 C1599 1.539 . S
C1597 C1593 1.408 . S
C1597 C1596 1.404 . S
C1597 H1609 0.930 . S
C1598 C1594 1.524 1_554 S
C1598 H1610 0.956 . S
C1598 H1611 0.961 1_554 S
C1598 H1612 0.961 . S
C1599 C1596 1.539 . S
C1599 H1613 0.958 . S
C1599 H1614 0.961 . S
C1599 H1615 0.960 . S
H1600 C1584 0.931 . S
H1601 C1589 0.929 . S
H1602 C1590 0.960 . S
H1603 C1590 0.962 . S
H1604 C1590 0.960 . S
H1605 C1591 0.961 . S
H1606 C1591 0.961 . S
H1607 C1591 0.961 . S
H1608 C1592 0.931 . S
H1609 C1597 0.930 . S
H1610 C1598 0.956 . S
H1611 C1598 0.961 1_556 S
H1612 C1598 0.961 . S
H1613 C1599 0.958 . S
H1614 C1599 0.961 . S
H1615 C1599 0.960 . S
C1616 C1617 1.391 . S
C1616 C1618 1.394 . S
C1616 H1632 0.931 . S
C1617 C1616 1.391 . S
C1617 C1621 1.376 . S
C1618 C1616 1.394 . S
C1618 C1619 1.369 1_556 S
C1618 C1622 1.531 1_556 S
C1619 C1618 1.369 1_554 S
C1619 C1620 1.410 1_554 S
C1619 C1627 1.503 . S
C1620 C1619 1.410 1_556 S
C1620 C1621 1.392 . S
C1620 C1623 1.511 1_556 S
C1621 C1617 1.376 . S
C1621 C1620 1.392 . S
C1621 H1633 0.929 . S
C1622 C1618 1.531 1_554 S
C1622 H1634 0.960 . S
C1622 H1635 0.962 1_554 S
C1622 H1636 0.960 . S
C1623 C1620 1.511 1_554 S
C1623 H1637 0.961 1_554 S
C1623 H1638 0.961 1_554 S
C1623 H1639 0.961 . S
C1624 C1625 1.370 1_556 S
C1624 C1626 1.363 . S
C1624 H1640 0.931 . S
C1625 C1624 1.370 1_554 S
C1625 C1629 1.408 . S
C1626 C1624 1.363 . S
C1626 C1627 1.370 1_556 S
C1626 C1630 1.524 . S
C1627 C1619 1.503 . S
C1627 C1626 1.370 1_554 S
C1627 C1628 1.403 . S
C1628 C1627 1.403 . S
C1628 C1629 1.404 . S
C1628 C1631 1.539 . S
C1629 C1625 1.408 . S
C1629 C1628 1.404 . S
C1629 H1641 0.930 . S
C1630 C1626 1.524 . S
C1630 H1642 0.956 . S
C1630 H1643 0.961 . S
C1630 H1644 0.961 . S
C1631 C1628 1.539 . S
C1631 H1645 0.958 . S
C1631 H1646 0.961 . S
C1631 H1647 0.960 . S
H1632 C1616 0.931 . S
H1633 C1621 0.929 . S
H1634 C1622 0.960 . S
H1635 C1622 0.962 1_556 S
H1636 C1622 0.960 . S
H1637 C1623 0.961 1_556 S
H1638 C1623 0.961 1_556 S
H1639 C1623 0.961 . S
H1640 C1624 0.931 . S
H1641 C1629 0.930 . S
H1642 C1630 0.956 . S
H1643 C1630 0.961 . S
H1644 C1630 0.961 . S
H1645 C1631 0.958 . S
H1646 C1631 0.961 . S
H1647 C1631 0.960 . S
C1648 C1649 1.391 . S
C1648 C1650 1.394 1_554 S
C1648 H1664 0.931 . S
C1649 C1648 1.391 . S
C1649 C1653 1.376 . S
C1650 C1648 1.394 1_556 S
C1650 C1651 1.369 . S
C1650 C1654 1.531 . S
C1651 C1650 1.369 . S
C1651 C1652 1.410 1_556 S
C1651 C1659 1.503 . S
C1652 C1651 1.410 1_554 S
C1652 C1653 1.392 . S
C1652 C1655 1.511 . S
C1653 C1649 1.376 . S
C1653 C1652 1.392 . S
C1653 H1665 0.929 . S
C1654 C1650 1.531 . S
C1654 H1666 0.960 . S
C1654 H1667 0.962 1_556 S
C1654 H1668 0.960 . S
C1655 C1652 1.511 . S
C1655 H1669 0.961 . S
C1655 H1670 0.961 . S
C1655 H1671 0.961 1_554 S
C1656 C1657 1.370 1_554 S
C1656 C1658 1.363 . S
C1656 H1672 0.931 . S
C1657 C1656 1.370 1_556 S
C1657 C1661 1.408 . S
C1658 C1656 1.363 . S
C1658 C1659 1.370 1_554 S
C1658 C1662 1.524 . S
C1659 C1651 1.503 . S
C1659 C1658 1.370 1_556 S
C1659 C1660 1.403 . S
C1660 C1659 1.403 . S
C1660 C1661 1.404 . S
C1660 C1663 1.539 . S
C1661 C1657 1.408 . S
C1661 C1660 1.404 . S
C1661 H1673 0.930 . S
C1662 C1658 1.524 . S
C1662 H1674 0.956 . S
C1662 H1675 0.961 . S
C1662 H1676 0.961 . S
C1663 C1660 1.539 . S
C1663 H1677 0.958 . S
C1663 H1678 0.961 . S
C1663 H1679 0.960 . S
H1664 C1648 0.931 . S
H1665 C1653 0.929 . S
H1666 C1654 0.960 . S
H1667 C1654 0.962 1_554 S
H1668 C1654 0.960 . S
H1669 C1655 0.961 . S
H1670 C1655 0.961 . S
H1671 C1655 0.961 1_556 S
H1672 C1656 0.931 . S
H1673 C1661 0.930 . S
H1674 C1662 0.956 . S
H1675 C1662 0.961 . S
H1676 C1662 0.961 . S
H1677 C1663 0.958 . S
H1678 C1663 0.961 . S
H1679 C1663 0.960 . S
C1680 C1681 1.391 . S
C1680 C1682 1.394 . S
C1680 H1696 0.931 . S
C1681 C1680 1.391 . S
C1681 C1685 1.376 . S
C1682 C1680 1.394 . S
C1682 C1683 1.369 . S
C1682 C1686 1.531 . S
C1683 C1682 1.369 . S
C1683 C1684 1.410 . S
C1683 C1691 1.503 . S
C1684 C1683 1.410 . S
C1684 C1685 1.392 . S
C1684 C1687 1.511 . S
C1685 C1681 1.376 . S
C1685 C1684 1.392 . S
C1685 H1697 0.929 . S
C1686 C1682 1.531 . S
C1686 H1698 0.960 . S
C1686 H1699 0.962 . S
C1686 H1700 0.960 . S
C1687 C1684 1.511 . S
C1687 H1701 0.961 . S
C1687 H1702 0.961 . S
C1687 H1703 0.961 . S
C1688 C1689 1.370 . S
C1688 C1690 1.363 . S
C1688 H1704 0.931 . S
C1689 C1688 1.370 . S
C1689 C1693 1.408 . S
C1690 C1688 1.363 . S
C1690 C1691 1.370 . S
C1690 C1694 1.524 . S
C1691 C1683 1.503 . S
C1691 C1690 1.370 . S
C1691 C1692 1.403 . S
C1692 C1691 1.403 . S
C1692 C1693 1.404 . S
C1692 C1695 1.539 . S
C1693 C1689 1.408 . S
C1693 C1692 1.404 . S
C1693 H1705 0.930 . S
C1694 C1690 1.524 . S
C1694 H1706 0.956 . S
C1694 H1707 0.961 . S
C1694 H1708 0.961 . S
C1695 C1692 1.539 . S
C1695 H1709 0.958 . S
C1695 H1710 0.961 . S
C1695 H1711 0.960 . S
H1696 C1680 0.931 . S
H1697 C1685 0.929 . S
H1698 C1686 0.960 . S
H1699 C1686 0.962 . S
H1700 C1686 0.960 . S
H1701 C1687 0.961 . S
H1702 C1687 0.961 . S
H1703 C1687 0.961 . S
H1704 C1688 0.931 . S
H1705 C1693 0.930 . S
H1706 C1694 0.956 . S
H1707 C1694 0.961 . S
H1708 C1694 0.961 . S
H1709 C1695 0.958 . S
H1710 C1695 0.961 . S
H1711 C1695 0.960 . S
C1712 C1713 1.391 . S
C1712 C1714 1.394 . S
C1712 H1728 0.931 . S
C1713 C1712 1.391 . S
C1713 C1717 1.376 . S
C1714 C1712 1.394 . S
C1714 C1715 1.369 . S
C1714 C1718 1.531 . S
C1715 C1714 1.369 . S
C1715 C1716 1.410 . S
C1715 C1723 1.503 . S
C1716 C1715 1.410 . S
C1716 C1717 1.392 . S
C1716 C1719 1.511 . S
C1717 C1713 1.376 . S
C1717 C1716 1.392 . S
C1717 H1729 0.929 . S
C1718 C1714 1.531 . S
C1718 H1730 0.960 . S
C1718 H1731 0.962 . S
C1718 H1732 0.960 . S
C1719 C1716 1.511 . S
C1719 H1733 0.961 . S
C1719 H1734 0.961 . S
C1719 H1735 0.961 . S
C1720 C1721 1.370 . S
C1720 C1722 1.363 . S
C1720 H1736 0.931 . S
C1721 C1720 1.370 . S
C1721 C1725 1.408 . S
C1722 C1720 1.363 . S
C1722 C1723 1.370 . S
C1722 C1726 1.524 . S
C1723 C1715 1.503 . S
C1723 C1722 1.370 . S
C1723 C1724 1.403 . S
C1724 C1723 1.403 . S
C1724 C1725 1.404 . S
C1724 C1727 1.539 . S
C1725 C1721 1.408 . S
C1725 C1724 1.404 . S
C1725 H1737 0.930 . S
C1726 C1722 1.524 . S
C1726 H1738 0.956 . S
C1726 H1739 0.961 . S
C1726 H1740 0.961 . S
C1727 C1724 1.539 . S
C1727 H1741 0.958 . S
C1727 H1742 0.961 . S
C1727 H1743 0.960 . S
H1728 C1712 0.931 . S
H1729 C1717 0.929 . S
H1730 C1718 0.960 . S
H1731 C1718 0.962 . S
H1732 C1718 0.960 . S
H1733 C1719 0.961 . S
H1734 C1719 0.961 . S
H1735 C1719 0.961 . S
H1736 C1720 0.931 . S
H1737 C1725 0.930 . S
H1738 C1726 0.956 . S
H1739 C1726 0.961 . S
H1740 C1726 0.961 . S
H1741 C1727 0.958 . S
H1742 C1727 0.961 . S
H1743 C1727 0.960 . S
C1744 C1745 1.391 . S
C1744 C1746 1.394 . S
C1744 H1760 0.931 . S
C1745 C1744 1.391 . S
C1745 C1749 1.376 . S
C1746 C1744 1.394 . S
C1746 C1747 1.369 . S
C1746 C1750 1.531 . S
C1747 C1746 1.369 . S
C1747 C1748 1.410 . S
C1747 C1755 1.503 . S
C1748 C1747 1.410 . S
C1748 C1749 1.392 . S
C1748 C1751 1.511 . S
C1749 C1745 1.376 . S
C1749 C1748 1.392 . S
C1749 H1761 0.929 . S
C1750 C1746 1.531 . S
C1750 H1762 0.960 . S
C1750 H1763 0.962 . S
C1750 H1764 0.960 . S
C1751 C1748 1.511 . S
C1751 H1765 0.961 . S
C1751 H1766 0.961 . S
C1751 H1767 0.961 . S
C1752 C1753 1.370 . S
C1752 C1754 1.363 . S
C1752 H1768 0.931 . S
C1753 C1752 1.370 . S
C1753 C1757 1.408 . S
C1754 C1752 1.363 . S
C1754 C1755 1.370 . S
C1754 C1758 1.524 . S
C1755 C1747 1.503 . S
C1755 C1754 1.370 . S
C1755 C1756 1.403 . S
C1756 C1755 1.403 . S
C1756 C1757 1.404 . S
C1756 C1759 1.539 . S
C1757 C1753 1.408 . S
C1757 C1756 1.404 . S
C1757 H1769 0.930 . S
C1758 C1754 1.524 . S
C1758 H1770 0.956 . S
C1758 H1771 0.961 . S
C1758 H1772 0.961 . S
C1759 C1756 1.539 . S
C1759 H1773 0.958 . S
C1759 H1774 0.961 . S
C1759 H1775 0.960 . S
H1760 C1744 0.931 . S
H1761 C1749 0.929 . S
H1762 C1750 0.960 . S
H1763 C1750 0.962 . S
H1764 C1750 0.960 . S
H1765 C1751 0.961 . S
H1766 C1751 0.961 . S
H1767 C1751 0.961 . S
H1768 C1752 0.931 . S
H1769 C1757 0.930 . S
H1770 C1758 0.956 . S
H1771 C1758 0.961 . S
H1772 C1758 0.961 . S
H1773 C1759 0.958 . S
H1774 C1759 0.961 . S
H1775 C1759 0.960 . S
C1776 C1777 1.391 . S
C1776 C1778 1.394 . S
C1776 H1792 0.931 . S
C1777 C1776 1.391 . S
C1777 C1781 1.376 . S
C1778 C1776 1.394 . S
C1778 C1779 1.369 . S
C1778 C1782 1.531 . S
C1779 C1778 1.369 . S
C1779 C1780 1.410 . S
C1779 C1787 1.503 . S
C1780 C1779 1.410 . S
C1780 C1781 1.392 . S
C1780 C1783 1.511 . S
C1781 C1777 1.376 . S
C1781 C1780 1.392 . S
C1781 H1793 0.929 . S
C1782 C1778 1.531 . S
C1782 H1794 0.960 . S
C1782 H1795 0.962 . S
C1782 H1796 0.960 . S
C1783 C1780 1.511 . S
C1783 H1797 0.961 . S
C1783 H1798 0.961 . S
C1783 H1799 0.961 . S
C1784 C1785 1.370 . S
C1784 C1786 1.363 . S
C1784 H1800 0.931 . S
C1785 C1784 1.370 . S
C1785 C1789 1.408 . S
C1786 C1784 1.363 . S
C1786 C1787 1.370 . S
C1786 C1790 1.524 . S
C1787 C1779 1.503 . S
C1787 C1786 1.370 . S
C1787 C1788 1.403 . S
C1788 C1787 1.403 . S
C1788 C1789 1.404 . S
C1788 C1791 1.539 . S
C1789 C1785 1.408 . S
C1789 C1788 1.404 . S
C1789 H1801 0.930 . S
C1790 C1786 1.524 . S
C1790 H1802 0.956 . S
C1790 H1803 0.961 . S
C1790 H1804 0.961 . S
C1791 C1788 1.539 . S
C1791 H1805 0.958 . S
C1791 H1806 0.961 . S
C1791 H1807 0.960 . S
H1792 C1776 0.931 . S
H1793 C1781 0.929 . S
H1794 C1782 0.960 . S
H1795 C1782 0.962 . S
H1796 C1782 0.960 . S
H1797 C1783 0.961 . S
H1798 C1783 0.961 . S
H1799 C1783 0.961 . S
H1800 C1784 0.931 . S
H1801 C1789 0.930 . S
H1802 C1790 0.956 . S
H1803 C1790 0.961 . S
H1804 C1790 0.961 . S
H1805 C1791 0.958 . S
H1806 C1791 0.961 . S
H1807 C1791 0.960 . S
C529 N13 1.288 . S
C537 N2 1.275 . S
C561 N46 1.254 . S
C569 N35 1.292 . S
C593 N68 1.305 . S
C601 N79 1.272 . S
C625 N101 1.277 . S
C633 N112 1.281 . S
C657 N145 1.302 . S
C665 N134 1.272 . S
C689 N167 1.273 . S
C697 N178 1.286 . S
C721 N200 1.304 . S
C729 N211 1.272 . S
C753 N233 1.269 . S
C761 N244 1.287 . S
C785 N277 1.261 . S
C793 N266 1.287 . S
C817 N310 1.290 . S
C825 N299 1.275 . S
C849 N343 1.271 . S
C857 N332 1.282 . S
C881 N376 1.277 . S
C889 N365 1.280 . S
C913 N398 1.261 . S
C921 N409 1.288 . S
C945 N431 1.272 . S
C953 N442 1.286 . S
C977 N464 1.303 . S
C985 N475 1.272 . S
C1009 N497 1.269 . S
C1017 N508 1.284 . S
C1041 C7 1.391 . S
C1049 C502 1.422 . S
C1073 C403 1.388 . S
C1081 C40 1.402 . S
C1105 C436 1.397 . S
C1113 C73 1.399 . S
C1137 C469 1.376 . S
C1145 C106 1.413 . S
C1169 C304 1.425 . S
C1177 C139 1.398 . S
C1201 C172 1.421 . S
C1209 C337 1.398 . S
C1233 C205 1.420 . S
C1241 C370 1.419 . S
C1265 C271 1.395 . S
C1273 C238 1.400 . S
C1297 C18 1.158 . S
C1305 C150 1.152 . S
C1329 C183 1.152 . S
C1337 C51 1.152 . S
C1361 C84 1.147 . S
C1369 C216 1.156 . S
C1393 C249 1.154 . S
C1401 C117 1.153 . S
C1425 C414 1.158 . S
C1433 C282 1.151 . S
C1457 C315 1.148 . S
C1465 C447 1.156 . S
C1489 C348 1.159 . S
C1497 C480 1.150 . S
C1521 C381 1.153 . S
C1529 C513 1.151 . S
C1553 C21 1.524 . S
C1561 C186 1.537 . S
C1585 C54 1.512 . S
C1593 C219 1.527 . S
C1617 C252 1.514 . S
C1625 C87 1.536 . S
C1649 C120 1.517 . S
C1657 C153 1.536 . S
C1681 C450 1.520 . S
C1689 C285 1.524 . S
C1713 C318 1.540 . S
C1721 C483 1.532 . S
C1745 C516 1.542 . S
C1753 C351 1.528 . S
C1777 C417 1.535 . S
C1785 C384 1.535 . S
