# Generated by pormake.
# Topology srs-g, (5)-cn, num edge types: 1
# Building blocks:
#     Node 0, Type 0, BuildingBlock: XOMCOT_clean_sbu_1, # of connection points: 5
#     Node 1, Type 0, BuildingBlock: XOMCOT_clean_sbu_1, # of connection points: 5
#     Node 2, Type 0, BuildingBlock: XOMCOT_clean_sbu_1, # of connection points: 5
#     Node 3, Type 0, BuildingBlock: XOMCOT_clean_sbu_1, # of connection points: 5
#     Node 4, Type 0, BuildingBlock: XOMCOT_clean_sbu_1, # of connection points: 5
#     Node 5, Type 0, BuildingBlock: XOMCOT_clean_sbu_1, # of connection points: 5
#     Node 6, Type 0, BuildingBlock: XOMCOT_clean_sbu_1, # of connection points: 5
#     Node 7, Type 0, BuildingBlock: XOMCOT_clean_sbu_1, # of connection points: 5
#     Node 8, Type 0, BuildingBlock: XOMCOT_clean_sbu_1, # of connection points: 5
#     Node 9, Type 0, BuildingBlock: XOMCOT_clean_sbu_1, # of connection points: 5
#     Node 10, Type 0, BuildingBlock: XOMCOT_clean_sbu_1, # of connection points: 5
#     Node 11, Type 0, BuildingBlock: XOMCOT_clean_sbu_1, # of connection points: 5
#     Node 12, Type 0, BuildingBlock: XOMCOT_clean_sbu_1, # of connection points: 5
#     Node 13, Type 0, BuildingBlock: XOMCOT_clean_sbu_1, # of connection points: 5
#     Node 14, Type 0, BuildingBlock: XOMCOT_clean_sbu_1, # of connection points: 5
#     Node 15, Type 0, BuildingBlock: XOMCOT_clean_sbu_1, # of connection points: 5
#     Node 16, Type 0, BuildingBlock: XOMCOT_clean_sbu_1, # of connection points: 5
#     Node 17, Type 0, BuildingBlock: XOMCOT_clean_sbu_1, # of connection points: 5
#     Node 18, Type 0, BuildingBlock: XOMCOT_clean_sbu_1, # of connection points: 5
#     Node 19, Type 0, BuildingBlock: XOMCOT_clean_sbu_1, # of connection points: 5
#     Node 20, Type 0, BuildingBlock: XOMCOT_clean_sbu_1, # of connection points: 5
#     Node 21, Type 0, BuildingBlock: XOMCOT_clean_sbu_1, # of connection points: 5
#     Node 22, Type 0, BuildingBlock: XOMCOT_clean_sbu_1, # of connection points: 5
#     Node 23, Type 0, BuildingBlock: XOMCOT_clean_sbu_1, # of connection points: 5
#     Node 24, Type 0, BuildingBlock: XOMCOT_clean_sbu_1, # of connection points: 5
#     Node 25, Type 0, BuildingBlock: XOMCOT_clean_sbu_1, # of connection points: 5
#     Node 26, Type 0, BuildingBlock: XOMCOT_clean_sbu_1, # of connection points: 5
#     Node 27, Type 0, BuildingBlock: XOMCOT_clean_sbu_1, # of connection points: 5
#     Node 28, Type 0, BuildingBlock: XOMCOT_clean_sbu_1, # of connection points: 5
#     Node 29, Type 0, BuildingBlock: XOMCOT_clean_sbu_1, # of connection points: 5
#     Node 30, Type 0, BuildingBlock: XOMCOT_clean_sbu_1, # of connection points: 5
#     Node 31, Type 0, BuildingBlock: XOMCOT_clean_sbu_1, # of connection points: 5
#     Node 32, Type 0, BuildingBlock: XOMCOT_clean_sbu_1, # of connection points: 5
#     Node 33, Type 0, BuildingBlock: XOMCOT_clean_sbu_1, # of connection points: 5
#     Node 34, Type 0, BuildingBlock: XOMCOT_clean_sbu_1, # of connection points: 5
#     Node 35, Type 0, BuildingBlock: XOMCOT_clean_sbu_1, # of connection points: 5
#     Node 36, Type 0, BuildingBlock: XOMCOT_clean_sbu_1, # of connection points: 5
#     Node 37, Type 0, BuildingBlock: XOMCOT_clean_sbu_1, # of connection points: 5
#     Node 38, Type 0, BuildingBlock: XOMCOT_clean_sbu_1, # of connection points: 5
#     Node 39, Type 0, BuildingBlock: XOMCOT_clean_sbu_1, # of connection points: 5
#     Node 40, Type 0, BuildingBlock: XOMCOT_clean_sbu_1, # of connection points: 5
#     Node 41, Type 0, BuildingBlock: XOMCOT_clean_sbu_1, # of connection points: 5
#     Node 42, Type 0, BuildingBlock: XOMCOT_clean_sbu_1, # of connection points: 5
#     Node 43, Type 0, BuildingBlock: XOMCOT_clean_sbu_1, # of connection points: 5
#     Node 44, Type 0, BuildingBlock: XOMCOT_clean_sbu_1, # of connection points: 5
#     Node 45, Type 0, BuildingBlock: XOMCOT_clean_sbu_1, # of connection points: 5
#     Node 46, Type 0, BuildingBlock: XOMCOT_clean_sbu_1, # of connection points: 5
#     Node 47, Type 0, BuildingBlock: XOMCOT_clean_sbu_1, # of connection points: 5
#     Edge 48, Type (0, 0), BuildingBlock: XIVTED_clean_linker_0, # of connection points: 2
#     Edge 49, Type (0, 0), BuildingBlock: XIVTED_clean_linker_0, # of connection points: 2
#     Edge 50, Type (0, 0), BuildingBlock: XIVTED_clean_linker_0, # of connection points: 2
#     Edge 51, Type (0, 0), BuildingBlock: XIVTED_clean_linker_0, # of connection points: 2
#     Edge 52, Type (0, 0), BuildingBlock: XIVTED_clean_linker_0, # of connection points: 2
#     Edge 53, Type (0, 0), BuildingBlock: XIVTED_clean_linker_0, # of connection points: 2
#     Edge 54, Type (0, 0), BuildingBlock: XIVTED_clean_linker_0, # of connection points: 2
#     Edge 55, Type (0, 0), BuildingBlock: XIVTED_clean_linker_0, # of connection points: 2
#     Edge 56, Type (0, 0), BuildingBlock: XIVTED_clean_linker_0, # of connection points: 2
#     Edge 57, Type (0, 0), BuildingBlock: XIVTED_clean_linker_0, # of connection points: 2
#     Edge 58, Type (0, 0), BuildingBlock: XIVTED_clean_linker_0, # of connection points: 2
#     Edge 59, Type (0, 0), BuildingBlock: XIVTED_clean_linker_0, # of connection points: 2
#     Edge 60, Type (0, 0), BuildingBlock: XIVTED_clean_linker_0, # of connection points: 2
#     Edge 61, Type (0, 0), BuildingBlock: XIVTED_clean_linker_0, # of connection points: 2
#     Edge 62, Type (0, 0), BuildingBlock: XIVTED_clean_linker_0, # of connection points: 2
#     Edge 63, Type (0, 0), BuildingBlock: XIVTED_clean_linker_0, # of connection points: 2
#     Edge 64, Type (0, 0), BuildingBlock: XIVTED_clean_linker_0, # of connection points: 2
#     Edge 65, Type (0, 0), BuildingBlock: XIVTED_clean_linker_0, # of connection points: 2
#     Edge 66, Type (0, 0), BuildingBlock: XIVTED_clean_linker_0, # of connection points: 2
#     Edge 67, Type (0, 0), BuildingBlock: XIVTED_clean_linker_0, # of connection points: 2
#     Edge 68, Type (0, 0), BuildingBlock: XIVTED_clean_linker_0, # of connection points: 2
#     Edge 69, Type (0, 0), BuildingBlock: XIVTED_clean_linker_0, # of connection points: 2
#     Edge 70, Type (0, 0), BuildingBlock: XIVTED_clean_linker_0, # of connection points: 2
#     Edge 71, Type (0, 0), BuildingBlock: XIVTED_clean_linker_0, # of connection points: 2
#     Edge 72, Type (0, 0), BuildingBlock: XIVTED_clean_linker_0, # of connection points: 2
#     Edge 73, Type (0, 0), BuildingBlock: XIVTED_clean_linker_0, # of connection points: 2
#     Edge 74, Type (0, 0), BuildingBlock: XIVTED_clean_linker_0, # of connection points: 2
#     Edge 75, Type (0, 0), BuildingBlock: XIVTED_clean_linker_0, # of connection points: 2
#     Edge 76, Type (0, 0), BuildingBlock: XIVTED_clean_linker_0, # of connection points: 2
#     Edge 77, Type (0, 0), BuildingBlock: XIVTED_clean_linker_0, # of connection points: 2
#     Edge 78, Type (0, 0), BuildingBlock: XIVTED_clean_linker_0, # of connection points: 2
#     Edge 79, Type (0, 0), BuildingBlock: XIVTED_clean_linker_0, # of connection points: 2
#     Edge 80, Type (0, 0), BuildingBlock: XIVTED_clean_linker_0, # of connection points: 2
#     Edge 81, Type (0, 0), BuildingBlock: XIVTED_clean_linker_0, # of connection points: 2
#     Edge 82, Type (0, 0), BuildingBlock: XIVTED_clean_linker_0, # of connection points: 2
#     Edge 83, Type (0, 0), BuildingBlock: XIVTED_clean_linker_0, # of connection points: 2
#     Edge 84, Type (0, 0), BuildingBlock: XIVTED_clean_linker_0, # of connection points: 2
#     Edge 85, Type (0, 0), BuildingBlock: XIVTED_clean_linker_0, # of connection points: 2
#     Edge 86, Type (0, 0), BuildingBlock: XIVTED_clean_linker_0, # of connection points: 2
#     Edge 87, Type (0, 0), BuildingBlock: XIVTED_clean_linker_0, # of connection points: 2
#     Edge 88, Type (0, 0), BuildingBlock: XIVTED_clean_linker_0, # of connection points: 2
#     Edge 89, Type (0, 0), BuildingBlock: XIVTED_clean_linker_0, # of connection points: 2
#     Edge 90, Type (0, 0), BuildingBlock: XIVTED_clean_linker_0, # of connection points: 2
#     Edge 91, Type (0, 0), BuildingBlock: XIVTED_clean_linker_0, # of connection points: 2
#     Edge 92, Type (0, 0), BuildingBlock: XIVTED_clean_linker_0, # of connection points: 2
#     Edge 93, Type (0, 0), BuildingBlock: XIVTED_clean_linker_0, # of connection points: 2
#     Edge 94, Type (0, 0), BuildingBlock: XIVTED_clean_linker_0, # of connection points: 2
#     Edge 95, Type (0, 0), BuildingBlock: XIVTED_clean_linker_0, # of connection points: 2
#     Edge 96, Type (0, 0), BuildingBlock: XIVTED_clean_linker_0, # of connection points: 2
#     Edge 97, Type (0, 0), BuildingBlock: XIVTED_clean_linker_0, # of connection points: 2
#     Edge 98, Type (0, 0), BuildingBlock: XIVTED_clean_linker_0, # of connection points: 2
#     Edge 99, Type (0, 0), BuildingBlock: XIVTED_clean_linker_0, # of connection points: 2
#     Edge 100, Type (0, 0), BuildingBlock: XIVTED_clean_linker_0, # of connection points: 2
#     Edge 101, Type (0, 0), BuildingBlock: XIVTED_clean_linker_0, # of connection points: 2
#     Edge 102, Type (0, 0), BuildingBlock: XIVTED_clean_linker_0, # of connection points: 2
#     Edge 103, Type (0, 0), BuildingBlock: XIVTED_clean_linker_0, # of connection points: 2
#     Edge 104, Type (0, 0), BuildingBlock: XIVTED_clean_linker_0, # of connection points: 2
#     Edge 105, Type (0, 0), BuildingBlock: XIVTED_clean_linker_0, # of connection points: 2
#     Edge 106, Type (0, 0), BuildingBlock: XIVTED_clean_linker_0, # of connection points: 2
#     Edge 107, Type (0, 0), BuildingBlock: XIVTED_clean_linker_0, # of connection points: 2
#     Edge 108, Type (0, 0), BuildingBlock: XIVTED_clean_linker_0, # of connection points: 2
#     Edge 109, Type (0, 0), BuildingBlock: XIVTED_clean_linker_0, # of connection points: 2
#     Edge 110, Type (0, 0), BuildingBlock: XIVTED_clean_linker_0, # of connection points: 2
#     Edge 111, Type (0, 0), BuildingBlock: XIVTED_clean_linker_0, # of connection points: 2
#     Edge 112, Type (0, 0), BuildingBlock: XIVTED_clean_linker_0, # of connection points: 2
#     Edge 113, Type (0, 0), BuildingBlock: XIVTED_clean_linker_0, # of connection points: 2
#     Edge 114, Type (0, 0), BuildingBlock: XIVTED_clean_linker_0, # of connection points: 2
#     Edge 115, Type (0, 0), BuildingBlock: XIVTED_clean_linker_0, # of connection points: 2
#     Edge 116, Type (0, 0), BuildingBlock: XIVTED_clean_linker_0, # of connection points: 2
#     Edge 117, Type (0, 0), BuildingBlock: XIVTED_clean_linker_0, # of connection points: 2
#     Edge 118, Type (0, 0), BuildingBlock: XIVTED_clean_linker_0, # of connection points: 2
#     Edge 119, Type (0, 0), BuildingBlock: XIVTED_clean_linker_0, # of connection points: 2
#     Edge 120, Type (0, 0), BuildingBlock: XIVTED_clean_linker_0, # of connection points: 2
#     Edge 121, Type (0, 0), BuildingBlock: XIVTED_clean_linker_0, # of connection points: 2
#     Edge 122, Type (0, 0), BuildingBlock: XIVTED_clean_linker_0, # of connection points: 2
#     Edge 123, Type (0, 0), BuildingBlock: XIVTED_clean_linker_0, # of connection points: 2
#     Edge 124, Type (0, 0), BuildingBlock: XIVTED_clean_linker_0, # of connection points: 2
#     Edge 125, Type (0, 0), BuildingBlock: XIVTED_clean_linker_0, # of connection points: 2
#     Edge 126, Type (0, 0), BuildingBlock: XIVTED_clean_linker_0, # of connection points: 2
#     Edge 127, Type (0, 0), BuildingBlock: XIVTED_clean_linker_0, # of connection points: 2
#     Edge 128, Type (0, 0), BuildingBlock: XIVTED_clean_linker_0, # of connection points: 2
#     Edge 129, Type (0, 0), BuildingBlock: XIVTED_clean_linker_0, # of connection points: 2
#     Edge 130, Type (0, 0), BuildingBlock: XIVTED_clean_linker_0, # of connection points: 2
#     Edge 131, Type (0, 0), BuildingBlock: XIVTED_clean_linker_0, # of connection points: 2
#     Edge 132, Type (0, 0), BuildingBlock: XIVTED_clean_linker_0, # of connection points: 2
#     Edge 133, Type (0, 0), BuildingBlock: XIVTED_clean_linker_0, # of connection points: 2
#     Edge 134, Type (0, 0), BuildingBlock: XIVTED_clean_linker_0, # of connection points: 2
#     Edge 135, Type (0, 0), BuildingBlock: XIVTED_clean_linker_0, # of connection points: 2
#     Edge 136, Type (0, 0), BuildingBlock: XIVTED_clean_linker_0, # of connection points: 2
#     Edge 137, Type (0, 0), BuildingBlock: XIVTED_clean_linker_0, # of connection points: 2
#     Edge 138, Type (0, 0), BuildingBlock: XIVTED_clean_linker_0, # of connection points: 2
#     Edge 139, Type (0, 0), BuildingBlock: XIVTED_clean_linker_0, # of connection points: 2
#     Edge 140, Type (0, 0), BuildingBlock: XIVTED_clean_linker_0, # of connection points: 2
#     Edge 141, Type (0, 0), BuildingBlock: XIVTED_clean_linker_0, # of connection points: 2
#     Edge 142, Type (0, 0), BuildingBlock: XIVTED_clean_linker_0, # of connection points: 2
#     Edge 143, Type (0, 0), BuildingBlock: XIVTED_clean_linker_0, # of connection points: 2
#     Edge 144, Type (0, 0), BuildingBlock: XIVTED_clean_linker_0, # of connection points: 2
#     Edge 145, Type (0, 0), BuildingBlock: XIVTED_clean_linker_0, # of connection points: 2
#     Edge 146, Type (0, 0), BuildingBlock: XIVTED_clean_linker_0, # of connection points: 2
#     Edge 147, Type (0, 0), BuildingBlock: XIVTED_clean_linker_0, # of connection points: 2
#     Edge 148, Type (0, 0), BuildingBlock: XIVTED_clean_linker_0, # of connection points: 2
#     Edge 149, Type (0, 0), BuildingBlock: XIVTED_clean_linker_0, # of connection points: 2
#     Edge 150, Type (0, 0), BuildingBlock: XIVTED_clean_linker_0, # of connection points: 2
#     Edge 151, Type (0, 0), BuildingBlock: XIVTED_clean_linker_0, # of connection points: 2
#     Edge 152, Type (0, 0), BuildingBlock: XIVTED_clean_linker_0, # of connection points: 2
#     Edge 153, Type (0, 0), BuildingBlock: XIVTED_clean_linker_0, # of connection points: 2
#     Edge 154, Type (0, 0), BuildingBlock: XIVTED_clean_linker_0, # of connection points: 2
#     Edge 155, Type (0, 0), BuildingBlock: XIVTED_clean_linker_0, # of connection points: 2
#     Edge 156, Type (0, 0), BuildingBlock: XIVTED_clean_linker_0, # of connection points: 2
#     Edge 157, Type (0, 0), BuildingBlock: XIVTED_clean_linker_0, # of connection points: 2
#     Edge 158, Type (0, 0), BuildingBlock: XIVTED_clean_linker_0, # of connection points: 2
#     Edge 159, Type (0, 0), BuildingBlock: XIVTED_clean_linker_0, # of connection points: 2
#     Edge 160, Type (0, 0), BuildingBlock: XIVTED_clean_linker_0, # of connection points: 2
#     Edge 161, Type (0, 0), BuildingBlock: XIVTED_clean_linker_0, # of connection points: 2
#     Edge 162, Type (0, 0), BuildingBlock: XIVTED_clean_linker_0, # of connection points: 2
#     Edge 163, Type (0, 0), BuildingBlock: XIVTED_clean_linker_0, # of connection points: 2
#     Edge 164, Type (0, 0), BuildingBlock: XIVTED_clean_linker_0, # of connection points: 2
#     Edge 165, Type (0, 0), BuildingBlock: XIVTED_clean_linker_0, # of connection points: 2
#     Edge 166, Type (0, 0), BuildingBlock: XIVTED_clean_linker_0, # of connection points: 2
#     Edge 167, Type (0, 0), BuildingBlock: XIVTED_clean_linker_0, # of connection points: 2
# Relax obj value: 0.909
# Max RMSD: 0.244
# Mean RMSD: 0.244
data_MOF--net-srs-g--node1-XOMCOT_clean_sbu_1--edge1-XIVTED_clean_linker_0
_symmetry_space_group_name_H-M    P1
_symmetry_Int_Tables_number       1
_symmetry_cell_setting            triclinic
loop_
_symmetry_equiv_pos_as_xyz
'x, y, z'
_cell_length_a     86.220452
_cell_length_b     86.211412
_cell_length_c     86.209653
_cell_angle_alpha  90.035509
_cell_angle_beta   90.01198
_cell_angle_gamma 90.014433
loop_
_atom_site_label
_atom_site_type_symbol
_atom_site_fract_x
_atom_site_fract_y
_atom_site_fract_z
_atom_type_partial_charge
C0 C 0.04397 0.02299 0.19242 0.0
C1 C 0.0579 0.02059 0.19998 0.0
N2 N 0.06791 0.03167 0.19538 0.0
N3 N 0.04523 0.03565 0.1833 0.0
C4 C 0.0599 0.04065 0.18542 0.0
H5 H 0.03378 0.01571 0.19315 0.0
Co6 Co 0.03154 0.04414 0.16887 0.0
C7 C 0.02856 0.07682 0.17866 0.0
O8 O 0.01346 0.07583 0.17684 0.0
N9 N 0.01833 0.05299 0.15379 0.0
C10 C 0.00049 0.06 0.1364 0.0
C11 C 0.00374 0.05025 0.14864 0.0
C12 C 0.02359 0.06435 0.14437 0.0
N13 N 0.01309 0.0688 0.13372 0.0
O14 O 0.04789 0.04456 0.1542 0.0
H15 H 0.99584 0.04165 0.15306 0.0
H16 H 0.03501 0.06942 0.14545 0.0
O17 O 0.03712 0.06499 0.1761 0.0
C18 C 0.04961 0.03163 0.14733 0.0
O19 O 0.04034 0.02009 0.15098 0.0
N20 N 0.01539 0.04209 0.18316 0.0
C21 C 0.99383 0.03144 0.20484 0.0
C22 C 0.00431 0.04339 0.20862 0.0
C23 C 0.01511 0.04844 0.19766 0.0
C24 C 0.0055 0.03038 0.17941 0.0
C25 C 0.99421 0.02536 0.18976 0.0
H26 H 0.02399 0.05649 0.2013 0.0
H27 H 0.00698 0.02423 0.16857 0.0
H28 H 0.06476 0.05054 0.1794 0.0
H29 H 0.06067 0.01105 0.20766 0.0
H30 H 0.98984 0.06029 0.12977 0.0
H31 H 0.00508 0.04798 0.22028 0.0
H32 H 0.98652 0.01609 0.18621 0.0
C33 C 0.22987 0.79259 0.42832 0.0
C34 C 0.23379 0.80594 0.43625 0.0
N35 N 0.22061 0.81349 0.43988 0.0
N36 N 0.21432 0.79189 0.42688 0.0
C37 C 0.20902 0.80476 0.43408 0.0
H38 H 0.23784 0.7844 0.42315 0.0
Co39 Co 0.20337 0.77841 0.41414 0.0
C40 C 0.17203 0.7771 0.42758 0.0
O41 O 0.17242 0.76188 0.4269 0.0
N42 N 0.19208 0.76521 0.4007 0.0
C43 C 0.18244 0.74694 0.38511 0.0
C44 C 0.19319 0.75012 0.39649 0.0
C45 C 0.18045 0.77077 0.39177 0.0
N46 N 0.17445 0.76001 0.38217 0.0
O47 O 0.20206 0.79453 0.39933 0.0
H48 H 0.20134 0.74178 0.40097 0.0
H49 H 0.17675 0.78275 0.39197 0.0
O50 O 0.18376 0.78506 0.42329 0.0
C51 C 0.21294 0.79381 0.3894 0.0
O52 O 0.22255 0.78199 0.38994 0.0
N53 N 0.20652 0.76264 0.42861 0.0
C54 C 0.22064 0.74273 0.44988 0.0
C55 C 0.20913 0.75325 0.45467 0.0
C56 C 0.20233 0.76326 0.44387 0.0
C57 C 0.21759 0.75246 0.42381 0.0
C58 C 0.22426 0.74195 0.43405 0.0
H59 H 0.19483 0.77237 0.44806 0.0
H60 H 0.22206 0.75321 0.41212 0.0
H61 H 0.19699 0.80834 0.43405 0.0
H62 H 0.24541 0.81007 0.43864 0.0
H63 H 0.1808 0.73592 0.37932 0.0
H64 H 0.20637 0.75478 0.46683 0.0
H65 H 0.23308 0.73413 0.42973 0.0
C66 C 0.45218 0.97746 0.69218 0.0
C67 C 0.43795 0.97943 0.69929 0.0
N68 N 0.42848 0.96797 0.69447 0.0
N69 N 0.45165 0.96469 0.68314 0.0
C70 C 0.43711 0.95919 0.68483 0.0
H71 H 0.46209 0.98509 0.69319 0.0
Co72 Co 0.46621 0.95664 0.66931 0.0
C73 C 0.46935 0.92392 0.6792 0.0
O74 O 0.48451 0.92523 0.67867 0.0
N75 N 0.48066 0.94812 0.65484 0.0
C76 C 0.50096 0.93717 0.64292 0.0
C77 C 0.49625 0.9459 0.65543 0.0
C78 C 0.47639 0.94072 0.64166 0.0
N79 N 0.4884 0.93413 0.63428 0.0
O80 O 0.45044 0.95609 0.65398 0.0
H81 H 0.50379 0.94921 0.66485 0.0
H82 H 0.46453 0.9391 0.63791 0.0
O83 O 0.46078 0.93558 0.67598 0.0
C84 C 0.4488 0.96917 0.64736 0.0
O85 O 0.45782 0.98071 0.65164 0.0
N86 N 0.48156 0.95912 0.68431 0.0
C87 C 0.50223 0.97021 0.70656 0.0
C88 C 0.4918 0.95817 0.71011 0.0
C89 C 0.48139 0.95291 0.69886 0.0
C90 C 0.49141 0.97094 0.68076 0.0
C91 C 0.50219 0.9763 0.6915 0.0
H92 H 0.47256 0.94467 0.70218 0.0
H93 H 0.49069 0.97642 0.66949 0.0
H94 H 0.43279 0.9491 0.67873 0.0
H95 H 0.43463 0.98892 0.70681 0.0
H96 H 0.51253 0.93284 0.64067 0.0
H97 H 0.49087 0.95359 0.72177 0.0
H98 H 0.50993 0.98561 0.68819 0.0
C99 C 0.26647 0.20251 0.92829 0.0
C100 C 0.26253 0.18882 0.93556 0.0
N101 N 0.27567 0.18081 0.93827 0.0
N102 N 0.28197 0.203 0.92635 0.0
C103 C 0.28725 0.18963 0.93257 0.0
H104 H 0.25849 0.2111 0.92382 0.0
Co105 Co 0.29256 0.2168 0.91375 0.0
C106 C 0.32491 0.21755 0.92527 0.0
O107 O 0.32512 0.23265 0.92323 0.0
N108 N 0.30327 0.23041 0.90034 0.0
C109 C 0.31257 0.24924 0.88525 0.0
C110 C 0.3018 0.24556 0.89649 0.0
C111 C 0.31486 0.22525 0.89117 0.0
N112 N 0.32071 0.23636 0.88192 0.0
O113 O 0.2934 0.20111 0.89831 0.0
H114 H 0.29345 0.25356 0.90122 0.0
H115 H 0.31916 0.21347 0.89153 0.0
O116 O 0.31255 0.20983 0.92238 0.0
C117 C 0.28395 0.20317 0.88716 0.0
O118 O 0.27551 0.21586 0.88688 0.0
N119 N 0.29004 0.23214 0.92879 0.0
C120 C 0.27858 0.25235 0.95133 0.0
C121 C 0.29034 0.24164 0.95492 0.0
C122 C 0.29577 0.23147 0.94353 0.0
C123 C 0.27859 0.24238 0.92514 0.0
C124 C 0.27304 0.25291 0.93606 0.0
H125 H 0.30361 0.22236 0.94697 0.0
H126 H 0.27315 0.24182 0.91385 0.0
H127 H 0.29916 0.18577 0.93181 0.0
H128 H 0.25092 0.18475 0.93807 0.0
H129 H 0.31406 0.26044 0.87978 0.0
H130 H 0.2945 0.24022 0.96668 0.0
H131 H 0.26388 0.26082 0.93273 0.0
C132 C 0.04922 0.98066 0.31251 0.0
C133 C 0.06348 0.98229 0.30538 0.0
N134 N 0.07164 0.96911 0.30757 0.0
N135 N 0.04838 0.96647 0.31901 0.0
C136 C 0.06211 0.95975 0.31573 0.0
H137 H 0.04032 0.98946 0.31345 0.0
Co138 Co 0.0336 0.95808 0.3323 0.0
C139 C 0.02848 0.92639 0.32017 0.0
O140 O 0.01343 0.92842 0.3215 0.0
N141 N 0.01917 0.94921 0.34623 0.0
C142 C -0.00016 0.94182 0.36176 0.0
C143 C 0.0045 0.95247 0.35078 0.0
C144 C 0.02309 0.9367 0.3548 0.0
N145 N 0.01159 0.93186 0.36418 0.0
O146 O 0.04933 0.95548 0.34744 0.0
H147 H 0.99741 0.96188 0.34665 0.0
H148 H 0.03438 0.93126 0.35421 0.0
O149 O 0.0378 0.93734 0.32383 0.0
C150 C 0.05097 0.96781 0.35536 0.0
O151 O 0.04199 0.97973 0.35226 0.0
N152 N 0.01822 0.96236 0.31771 0.0
C153 C 0.99714 0.97507 0.29671 0.0
C154 C 0.00706 0.96289 0.29226 0.0
C155 C 0.01769 0.95685 0.30287 0.0
C156 C 0.00915 0.97454 0.322 0.0
C157 C 0.99813 0.98067 0.31194 0.0
H158 H 0.02607 0.94846 0.29886 0.0
H159 H 0.01088 0.97992 0.3332 0.0
H160 H 0.0652 0.9483 0.3198 0.0
H161 H 0.06775 0.99265 0.29972 0.0
H162 H 0.98863 0.94142 0.3674 0.0
H163 H 0.00736 0.95872 0.28041 0.0
H164 H 0.99096 0.99017 0.31592 0.0
C165 C 0.272 0.8001 0.55503 0.0
C166 C 0.26988 0.81354 0.54666 0.0
N167 N 0.28315 0.82174 0.54719 0.0
N168 N 0.2865 0.79996 0.56088 0.0
C169 C 0.29303 0.81327 0.55585 0.0
H170 H 0.26321 0.79152 0.55759 0.0
Co171 Co 0.29375 0.78667 0.57613 0.0
C172 C 0.32758 0.78364 0.5706 0.0
O173 O 0.3267 0.76871 0.57355 0.0
N174 N 0.30086 0.77366 0.59203 0.0
C175 C 0.30613 0.75523 0.60935 0.0
C176 C 0.29745 0.759 0.59642 0.0
C177 C 0.31132 0.77855 0.6026 0.0
N178 N 0.31493 0.76758 0.61308 0.0
O179 O 0.29309 0.80331 0.59047 0.0
H180 H 0.28927 0.75142 0.59073 0.0
H181 H 0.31627 0.79008 0.60254 0.0
O182 O 0.31531 0.792 0.57085 0.0
C183 C 0.27993 0.80502 0.59691 0.0
O184 O 0.26854 0.7957 0.59294 0.0
N185 N 0.29286 0.77028 0.56193 0.0
C186 C 0.28414 0.74892 0.53907 0.0
C187 C 0.29835 0.75692 0.53817 0.0
C188 C 0.3021 0.76808 0.54927 0.0
C189 C 0.27945 0.76211 0.56347 0.0
C190 C 0.27484 0.75145 0.55223 0.0
H191 H 0.31189 0.77548 0.54699 0.0
H192 H 0.27173 0.7647 0.57302 0.0
H193 H 0.30432 0.81735 0.55956 0.0
H194 H 0.25921 0.81735 0.54124 0.0
H195 H 0.30612 0.74421 0.61536 0.0
H196 H 0.30618 0.75539 0.5285 0.0
H197 H 0.26354 0.74617 0.55347 0.0
C198 C 0.45172 0.01836 0.8104 0.0
C199 C 0.43811 0.0172 0.802 0.0
N200 N 0.42841 0.02844 0.80688 0.0
N201 N 0.4506 0.03043 0.82032 0.0
C202 C 0.4363 0.03627 0.81787 0.0
H203 H 0.46169 0.0108 0.80945 0.0
Co204 Co 0.46423 0.03807 0.83527 0.0
C205 C 0.46785 0.07129 0.82706 0.0
O206 O 0.48271 0.07061 0.8304 0.0
N207 N 0.47742 0.0461 0.85083 0.0
C208 C 0.4956 0.05256 0.8681 0.0
C209 C 0.49199 0.04297 0.85582 0.0
C210 C 0.47249 0.05744 0.86046 0.0
N211 N 0.48329 0.06172 0.87089 0.0
O212 O 0.44763 0.03863 0.84972 0.0
H213 H 0.49971 0.03437 0.85109 0.0
H214 H 0.46104 0.06251 0.8598 0.0
O215 O 0.4594 0.05918 0.82835 0.0
C216 C 0.44542 0.02571 0.85646 0.0
O217 O 0.45413 0.01381 0.85255 0.0
N218 N 0.48059 0.03598 0.82128 0.0
C219 C 0.50232 0.02537 0.79975 0.0
C220 C 0.49263 0.03805 0.79631 0.0
C221 C 0.48175 0.04312 0.8072 0.0
C222 C 0.4898 0.02364 0.82474 0.0
C223 C 0.50116 0.01859 0.81448 0.0
H224 H 0.47348 0.05186 0.80375 0.0
H225 H 0.48777 0.01716 0.83528 0.0
H226 H 0.4317 0.04611 0.82417 0.0
H227 H 0.43538 0.00851 0.79335 0.0
H228 H 0.50649 0.05288 0.87433 0.0
H229 H 0.49252 0.04328 0.7849 0.0
H230 H 0.5083 0.00881 0.81779 0.0
C231 C 0.23008 0.20211 0.05832 0.0
C232 C 0.23192 0.18822 0.05051 0.0
N233 N 0.22065 0.17846 0.05522 0.0
N234 N 0.21757 0.20109 0.06768 0.0
C235 C 0.21213 0.18659 0.0655 0.0
H236 H 0.23756 0.21215 0.05746 0.0
Co237 Co 0.20941 0.21498 0.0821 0.0
C238 C 0.17679 0.21845 0.07255 0.0
O239 O 0.17801 0.23357 0.0741 0.0
N240 N 0.20082 0.22838 0.09723 0.0
C241 C 0.19467 0.24617 0.11497 0.0
C242 C 0.20417 0.24276 0.10258 0.0
C243 C 0.18934 0.22342 0.10667 0.0
N244 N 0.18539 0.23389 0.11756 0.0
O245 O 0.20875 0.19868 0.09673 0.0
H246 H 0.21312 0.25034 0.09827 0.0
H247 H 0.18394 0.21215 0.10551 0.0
O248 O 0.1885 0.20973 0.0751 0.0
C249 C 0.22077 0.19803 0.10522 0.0
O250 O 0.23159 0.20862 0.10346 0.0
N251 N 0.21163 0.23105 0.0677 0.0
C252 C 0.22273 0.25184 0.04546 0.0
C253 C 0.2105 0.24161 0.04199 0.0
C254 C 0.20523 0.23118 0.0532 0.0
C255 C 0.22356 0.24078 0.0712 0.0
C256 C 0.22885 0.25167 0.06054 0.0
H257 H 0.197 0.2224 0.04976 0.0
H258 H 0.22975 0.23937 0.082 0.0
H259 H 0.20217 0.18196 0.07158 0.0
H260 H 0.24113 0.18532 0.04249 0.0
H261 H 0.19496 0.25669 0.12183 0.0
H262 H 0.20584 0.2407 0.03036 0.0
H263 H 0.23834 0.25919 0.06384 0.0
C264 C 0.18619 0.04753 0.01857 0.0
C265 C 0.19489 0.06092 0.01704 0.0
N266 N 0.19337 0.0693 0.03017 0.0
N267 N 0.17929 0.04754 0.0326 0.0
C268 C 0.18381 0.06093 0.03929 0.0
H269 H 0.18477 0.03854 0.00993 0.0
Co270 Co 0.16513 0.03373 0.04118 0.0
C271 C 0.17693 0.02868 0.07296 0.0
O272 O 0.17503 0.01366 0.07111 0.0
N273 N 0.15033 0.0203 0.05027 0.0
C274 C 0.13275 0.0026 0.05712 0.0
C275 C 0.14466 0.00601 0.04704 0.0
C276 C 0.14161 0.02518 0.06233 0.0
N277 N 0.13081 0.01479 0.06667 0.0
O278 O 0.15078 0.05036 0.0431 0.0
H279 H 0.14839 0.99845 0.03782 0.0
H280 H 0.14319 0.03634 0.06784 0.0
O281 O 0.17363 0.03797 0.0619 0.0
C282 C 0.14168 0.05046 0.03147 0.0
O283 O 0.14329 0.0396 0.02088 0.0
N284 N 0.17889 0.01747 0.03736 0.0
C285 C 0.19898 0.99624 0.02339 0.0
C286 C 0.20407 0.00574 0.03567 0.0
C287 C 0.19386 0.01641 0.04243 0.0
C288 C 0.17391 0.00851 0.02537 0.0
C289 C 0.18342 0.99732 0.01879 0.0
H290 H 0.19836 0.0246 0.05078 0.0
H291 H 0.16269 0.0107 0.02022 0.0
H292 H 0.17958 0.06479 0.05046 0.0
H293 H 0.20168 0.06423 0.00702 0.0
H294 H 0.12572 0.99219 0.05703 0.0
H295 H 0.21611 0.00587 0.03923 0.0
H296 H 0.17884 0.99034 0.0094 0.0
C297 C 0.20529 0.94013 0.27362 0.0
C298 C 0.19119 0.94763 0.27202 0.0
N299 N 0.18228 0.94406 0.28438 0.0
N300 N 0.20524 0.93205 0.28701 0.0
C301 C 0.19119 0.93478 0.29328 0.0
H302 H 0.21463 0.94 0.26526 0.0
Co303 Co 0.21906 0.91738 0.29481 0.0
C304 C 0.22276 0.92654 0.32766 0.0
O305 O 0.23789 0.92513 0.32641 0.0
N306 N 0.23238 0.90204 0.30308 0.0
C307 C 0.25006 0.88416 0.3092 0.0
C308 C 0.24681 0.89673 0.29987 0.0
C309 C 0.22726 0.89246 0.31436 0.0
N310 N 0.23768 0.88156 0.31832 0.0
O311 O 0.20262 0.90285 0.29517 0.0
H312 H 0.25459 0.90121 0.2912 0.0
H313 H 0.21575 0.8932 0.3193 0.0
O314 O 0.21407 0.92408 0.31591 0.0
C315 C 0.2012 0.89642 0.28197 0.0
O316 O 0.21098 0.90023 0.2709 0.0
N317 N 0.23521 0.93153 0.29261 0.0
C318 C 0.25655 0.95297 0.28109 0.0
C319 C 0.24656 0.95689 0.29342 0.0
C320 C 0.23587 0.94602 0.29894 0.0
C321 C 0.24462 0.92766 0.28056 0.0
C322 C 0.25587 0.93784 0.27517 0.0
H323 H 0.22735 0.94969 0.30736 0.0
H324 H 0.24277 0.91687 0.27445 0.0
H325 H 0.18736 0.92948 0.30398 0.0
H326 H 0.18751 0.95446 0.26215 0.0
H327 H 0.26062 0.87739 0.30913 0.0
H328 H 0.24606 0.96858 0.29798 0.0
H329 H 0.26322 0.93413 0.26571 0.0
C330 C 0.315 0.95402 0.51632 0.0
C331 C 0.30711 0.9405 0.51302 0.0
N332 N 0.30604 0.93219 0.52619 0.0
N333 N 0.31897 0.95406 0.53144 0.0
C334 C 0.31329 0.94064 0.53716 0.0
H335 H 0.31849 0.96278 0.50805 0.0
Co336 Co 0.33294 0.96742 0.54085 0.0
C337 C 0.3224 0.97014 0.57327 0.0
O338 O 0.32433 0.98523 0.57228 0.0
N339 N 0.34771 0.98046 0.55037 0.0
C340 C 0.36519 0.99809 0.55759 0.0
C341 C 0.35297 0.99501 0.54774 0.0
C342 C 0.35699 0.97506 0.56177 0.0
N343 N 0.36773 0.98542 0.56633 0.0
O344 O 0.34756 0.95102 0.54139 0.0
H345 H 0.34872 0.00292 0.53907 0.0
H346 H 0.35583 0.96357 0.56666 0.0
O347 O 0.32517 0.96152 0.5615 0.0
C348 C 0.35527 0.94997 0.52886 0.0
O349 O 0.35242 0.95987 0.51764 0.0
N350 N 0.31856 0.98351 0.53868 0.0
C351 C 0.29624 0.00436 0.52792 0.0
C352 C 0.29271 0.99369 0.53972 0.0
C353 C 0.30393 0.98319 0.54473 0.0
C354 C 0.32214 0.99367 0.52713 0.0
C355 C 0.31136 0.00454 0.52195 0.0
H356 H 0.3004 0.97404 0.5525 0.0
H357 H 0.3331 0.99265 0.52114 0.0
H358 H 0.31554 0.9365 0.54879 0.0
H359 H 0.3031 0.93674 0.50172 0.0
H360 H 0.37198 0.00865 0.55788 0.0
H361 H 0.28102 0.99249 0.54415 0.0
H362 H 0.3146 0.01232 0.51264 0.0
C363 C 0.29985 0.06727 0.76575 0.0
C364 C 0.31354 0.05905 0.76437 0.0
N365 N 0.3218 0.06106 0.7775 0.0
N366 N 0.29955 0.07436 0.77968 0.0
C367 C 0.3131 0.0705 0.78645 0.0
H368 H 0.29064 0.06789 0.75724 0.0
Co369 Co 0.28428 0.08678 0.78857 0.0
C370 C 0.29377 0.08629 0.82111 0.0
O371 O 0.29473 0.10148 0.82067 0.0
N372 N 0.26895 0.09928 0.79801 0.0
C373 C 0.25112 0.10577 0.81551 0.0
C374 C 0.25689 0.09397 0.80654 0.0
C375 C 0.26989 0.1145 0.80172 0.0
N376 N 0.25953 0.1186 0.81269 0.0
O377 O 0.29918 0.10293 0.79032 0.0
H378 H 0.25358 0.08194 0.80765 0.0
H379 H 0.27934 0.12195 0.79822 0.0
O380 O 0.28964 0.07877 0.80903 0.0
C381 C 0.30143 0.11035 0.77776 0.0
O382 O 0.29335 0.10648 0.76542 0.0
N383 N 0.26983 0.07117 0.78534 0.0
C384 C 0.24921 0.04857 0.77511 0.0
C385 C 0.26055 0.04506 0.78632 0.0
C386 C 0.27082 0.05657 0.79128 0.0
C387 C 0.2587 0.07492 0.77479 0.0
C388 C 0.24808 0.06387 0.76972 0.0
H389 H 0.28003 0.05353 0.79922 0.0
H390 H 0.25833 0.08652 0.77002 0.0
H391 H 0.31664 0.07476 0.79771 0.0
H392 H 0.31699 0.05195 0.7546 0.0
H393 H 0.24261 0.10457 0.82466 0.0
H394 H 0.26215 0.03334 0.79052 0.0
H395 H 0.23947 0.06716 0.7612 0.0
C396 C 0.1859 0.9414 0.484 0.0
C397 C 0.19419 0.92787 0.48597 0.0
N398 N 0.19492 0.92054 0.47219 0.0
N399 N 0.18137 0.94247 0.46907 0.0
C400 C 0.18707 0.92962 0.46217 0.0
H401 H 0.1827 0.94954 0.493 0.0
Co402 Co 0.16735 0.95659 0.4609 0.0
C403 C 0.17804 0.96201 0.42886 0.0
O404 O 0.17602 0.97697 0.43101 0.0
N405 N 0.15256 0.97041 0.45253 0.0
C406 C 0.13481 0.98839 0.44707 0.0
C407 C 0.147 0.98451 0.45664 0.0
C408 C 0.14343 0.96606 0.44055 0.0
N409 N 0.13255 0.97667 0.43702 0.0
O410 O 0.1526 0.94037 0.45896 0.0
H411 H 0.15095 0.99152 0.46619 0.0
H412 H 0.14475 0.95512 0.43456 0.0
O413 O 0.17518 0.95249 0.43987 0.0
C414 C 0.14463 0.93896 0.47129 0.0
O415 O 0.14792 0.94792 0.48319 0.0
N416 N 0.18168 0.97249 0.46445 0.0
C417 C 0.20266 0.9946 0.47546 0.0
C418 C 0.20682 0.98434 0.46347 0.0
C419 C 0.19625 0.97321 0.4583 0.0
C420 C 0.17775 0.9818 0.47658 0.0
C421 C 0.18776 0.99332 0.48185 0.0
H422 H 0.20013 0.96466 0.45001 0.0
H423 H 0.16695 0.97985 0.48265 0.0
H424 H 0.18459 0.92639 0.45029 0.0
H425 H 0.19887 0.92349 0.49677 0.0
H426 H 0.1278 0.99877 0.44788 0.0
H427 H 0.21845 0.9842 0.45875 0.0
H428 H 0.184 0.0007 0.49129 0.0
C429 C 0.29459 0.94052 0.72687 0.0
C430 C 0.30821 0.94877 0.7287 0.0
N431 N 0.31733 0.94603 0.71628 0.0
N432 N 0.29517 0.93268 0.71334 0.0
C433 C 0.30913 0.93622 0.70725 0.0
H434 H 0.28505 0.94001 0.73499 0.0
Co435 Co 0.28138 0.91841 0.70493 0.0
C436 C 0.27843 0.92794 0.67215 0.0
O437 O 0.2633 0.92642 0.67323 0.0
N438 N 0.26799 0.90343 0.69614 0.0
C439 C 0.24992 0.88629 0.68908 0.0
C440 C 0.25332 0.89852 0.69883 0.0
C441 C 0.27315 0.89389 0.68483 0.0
N442 N 0.26251 0.88338 0.68035 0.0
O443 O 0.2976 0.9036 0.70475 0.0
H444 H 0.24545 0.90315 0.70735 0.0
H445 H 0.28461 0.89481 0.67982 0.0
O446 O 0.287 0.92534 0.68397 0.0
C447 C 0.29733 0.89522 0.71688 0.0
O448 O 0.28618 0.89742 0.72704 0.0
N449 N 0.26545 0.93294 0.70687 0.0
C450 C 0.24508 0.95545 0.71811 0.0
C451 C 0.25532 0.95881 0.70586 0.0
C452 C 0.26556 0.94745 0.70055 0.0
C453 C 0.25561 0.92951 0.71873 0.0
C454 C 0.24494 0.94035 0.72411 0.0
H455 H 0.27443 0.95079 0.69236 0.0
H456 H 0.2568 0.91862 0.72483 0.0
H457 H 0.31348 0.93106 0.69667 0.0
H458 H 0.31119 0.95607 0.73847 0.0
H459 H 0.23915 0.87985 0.68873 0.0
H460 H 0.2564 0.97046 0.70131 0.0
H461 H 0.23741 0.93717 0.73364 0.0
C462 C 0.30256 0.04908 0.97589 0.0
C463 C 0.29411 0.06258 0.97733 0.0
N464 N 0.2955 0.07061 0.96401 0.0
N465 N 0.30929 0.04871 0.96178 0.0
C466 C 0.30473 0.06198 0.95482 0.0
H467 H 0.30453 0.04065 0.98495 0.0
Co468 Co 0.32504 0.03538 0.9555 0.0
C469 C 0.3224 0.03358 0.9209 0.0
O470 O 0.32652 0.01891 0.92075 0.0
N471 N 0.34136 0.02238 0.94946 0.0
C472 C 0.35855 0.00355 0.9454 0.0
C473 C 0.34496 0.00751 0.95287 0.0
C474 C 0.35306 0.02721 0.94025 0.0
N475 N 0.3636 0.01604 0.9375 0.0
O476 O 0.33923 0.05204 0.95698 0.0
H477 H 0.33826 -7e-05 0.96022 0.0
H478 H 0.35347 0.03865 0.93512 0.0
O479 O 0.32106 0.0408 0.9338 0.0
C480 C 0.34494 0.05408 0.97042 0.0
O481 O 0.34024 0.04517 0.98186 0.0
N482 N 0.31101 0.01891 0.95546 0.0
C483 C 0.28856 0.99657 0.96246 0.0
C484 C 0.28909 0.00365 0.94775 0.0
C485 C 0.3 0.01523 0.94471 0.0
C486 C 0.31128 0.01158 0.96942 0.0
C487 C 0.30021 0.00048 0.9732 0.0
H488 H 0.29886 0.02164 0.93408 0.0
H489 H 0.31975 0.01503 0.97802 0.0
H490 H 0.30919 0.06595 0.94379 0.0
H491 H 0.28804 0.06654 0.98758 0.0
H492 H 0.36426 0.99238 0.94581 0.0
H493 H 0.28065 0.001 0.93886 0.0
H494 H 0.30031 0.99591 0.98487 0.0
C495 C 0.20161 0.05797 0.22842 0.0
C496 C 0.18782 0.04998 0.23012 0.0
N497 N 0.17923 0.05218 0.21723 0.0
N498 N 0.20166 0.0651 0.21451 0.0
C499 C 0.18791 0.06142 0.20805 0.0
H500 H 0.21081 0.0588 0.2369 0.0
Co501 Co 0.21598 0.07882 0.20606 0.0
C502 C 0.21996 0.06774 0.17376 0.0
O503 O 0.23509 0.069 0.17515 0.0
N504 N 0.23003 0.09314 0.19719 0.0
C505 C 0.24904 0.10931 0.19041 0.0
C506 C 0.24478 0.09755 0.20032 0.0
C507 C 0.22571 0.10248 0.18538 0.0
N508 N 0.23698 0.11236 0.18102 0.0
O509 O 0.19996 0.09378 0.20443 0.0
H510 H 0.25217 0.09292 0.20925 0.0
H511 H 0.21425 0.10224 0.18029 0.0
O512 O 0.21116 0.07097 0.18525 0.0
C513 C 0.19993 0.10248 0.21634 0.0
O514 O 0.21067 0.10035 0.22695 0.0
N515 N 0.23164 0.06438 0.20951 0.0
C516 C 0.25294 0.04354 0.22212 0.0
C517 C 0.24326 0.03913 0.20971 0.0
C518 C 0.23254 0.0497 0.20366 0.0
C519 C 0.24057 0.06862 0.22181 0.0
C520 C 0.25175 0.05872 0.2278 0.0
H521 H 0.22432 0.04572 0.19509 0.0
H522 H 0.23858 0.07968 0.2274 0.0
H523 H 0.18404 0.06608 0.19706 0.0
H524 H 0.18436 0.04325 0.24012 0.0
H525 H 0.26014 0.11518 0.19023 0.0
H526 H 0.24314 0.02734 0.20539 0.0
H527 H 0.25883 0.06277 0.23735 0.0
C528 C 0.02528 0.19796 0.0481 0.0
C529 C 0.02402 0.20575 0.06206 0.0
N530 N 0.0346 0.19982 0.07191 0.0
N531 N 0.03673 0.18735 0.04919 0.0
C532 C 0.0422 0.18886 0.06376 0.0
H533 H 0.01788 0.19952 0.0381 0.0
Co534 Co 0.0429 0.17173 0.03559 0.0
C535 C 0.07674 0.17638 0.03182 0.0
O536 O 0.0754 0.17351 0.0169 0.0
N537 N 0.04928 0.15553 0.02248 0.0
C538 C 0.05482 0.13822 0.00407 0.0
C539 C 0.04605 0.15114 0.00777 0.0
C540 C 0.05966 0.14494 0.02746 0.0
N541 N 0.0635 0.13453 0.01652 0.0
O542 O 0.04196 0.15733 0.05218 0.0
H543 H 0.0381 0.15695 4e-05 0.0
H544 H 0.06463 0.14509 0.03899 0.0
O545 O 0.0647 0.17632 0.04051 0.0
C546 C 0.02852 0.15176 0.05457 0.0
O547 O 0.01692 0.1566 0.04594 0.0
N548 N 0.04228 0.18593 0.01917 0.0
C549 C 0.03381 0.20924 0.99824 0.0
C550 C 0.04806 0.20982 0.0062 0.0
C551 C 0.05167 0.19851 0.01717 0.0
C552 C 0.02891 0.18461 0.01089 0.0
C553 C 0.02441 0.1961 0.00045 0.0
H554 H 0.06146 0.20059 0.02464 0.0
H555 H 0.02107 0.17512 0.01332 0.0
H556 H 0.05129 0.18162 0.0685 0.0
H557 H 0.01546 0.21446 0.06499 0.0
H558 H 0.05511 0.13232 0.99299 0.0
H559 H 0.05601 0.21942 0.00485 0.0
H560 H 0.0131 0.19506 0.99514 0.0
C561 C 0.5161 0.31387 0.95315 0.0
C562 C 0.51292 0.30723 0.93893 0.0
N563 N 0.52469 0.31061 0.92922 0.0
N564 N 0.52992 0.32118 0.95242 0.0
C565 C 0.53482 0.319 0.93771 0.0
H566 H 0.50866 0.31365 0.96325 0.0
Co567 Co 0.53995 0.33325 0.96725 0.0
C568 C 0.57122 0.31964 0.96996 0.0
O569 O 0.56979 0.32033 0.98513 0.0
N570 N 0.55038 0.34593 0.98181 0.0
C571 C 0.55922 0.36038 0.00138 0.0
C572 C 0.54797 0.34998 0.9968 0.0
C573 C 0.56304 0.35416 0.97766 0.0
N574 N 0.56872 0.3629 0.98927 0.0
O575 O 0.54233 0.34902 0.95204 0.0
H576 H 0.53864 0.346 0.00409 0.0
H577 H 0.56784 0.35394 0.96607 0.0
O578 O 0.56004 0.32408 0.96126 0.0
C579 C 0.53331 0.36059 0.95366 0.0
O580 O 0.52434 0.36131 0.96596 0.0
N581 N 0.53593 0.31802 0.98215 0.0
C582 C 0.52323 0.29608 0.00224 0.0
C583 C 0.53483 0.2919 0.99158 0.0
C584 C 0.54082 0.30298 0.98142 0.0
C585 C 0.52439 0.32215 0.9921 0.0
C586 C 0.51821 0.31153 0.00257 0.0
H587 H 0.54858 0.29919 0.97236 0.0
H588 H 0.51938 0.33362 0.99138 0.0
H589 H 0.54556 0.32372 0.93325 0.0
H590 H 0.50252 0.30093 0.93582 0.0
H591 H 0.56026 0.36568 0.01272 0.0
H592 H 0.53849 0.27995 0.9903 0.0
H593 H 0.50907 0.31526 0.01034 0.0
C594 C 0.94375 0.27097 0.19815 0.0
C595 C 0.95278 0.27065 0.18492 0.0
N596 N 0.94906 0.28305 0.17615 0.0
N597 N 0.93445 0.28353 0.19767 0.0
C598 C 0.93791 0.29056 0.18415 0.0
H599 H 0.94369 0.26238 0.20728 0.0
Co600 Co 0.91859 0.28947 0.21097 0.0
C601 C 0.92239 0.32362 0.21427 0.0
O602 O 0.9193 0.32281 0.22918 0.0
N603 N 0.90214 0.2956 0.22389 0.0
C604 C 0.88487 0.30077 0.24242 0.0
C605 C 0.89792 0.29226 0.23862 0.0
C606 C 0.89131 0.30576 0.21898 0.0
N607 N 0.8809 0.30938 0.23001 0.0
O608 O 0.90458 0.28832 0.19411 0.0
H609 H 0.90395 0.28444 0.2463 0.0
H610 H 0.89131 0.31074 0.20747 0.0
O611 O 0.92275 0.31128 0.20605 0.0
C612 C 0.89727 0.27556 0.19307 0.0
O613 O 0.89987 0.26471 0.20345 0.0
N614 N 0.93258 0.28918 0.22757 0.0
C615 C 0.95564 0.28168 0.24917 0.0
C616 C 0.95581 0.29596 0.24127 0.0
C617 C 0.94466 0.29911 0.22999 0.0
C618 C 0.93169 0.27567 0.23568 0.0
C619 C 0.94306 0.27165 0.24645 0.0
H620 H 0.94651 0.30904 0.22266 0.0
H621 H 0.9226 0.26745 0.23297 0.0
H622 H 0.93176 0.30063 0.17988 0.0
H623 H 0.96124 0.26187 0.18192 0.0
H624 H 0.8791 0.30096 0.25356 0.0
H625 H 0.96497 0.30435 0.24297 0.0
H626 H 0.9424 0.26028 0.25167 0.0
C627 C 0.97823 0.68114 0.45729 0.0
C628 C 0.98225 0.68866 0.44376 0.0
N629 N 0.96937 0.69029 0.43509 0.0
N630 N 0.96292 0.67795 0.45699 0.0
C631 C 0.95784 0.68373 0.44335 0.0
H632 H 0.9861 0.67733 0.46628 0.0
Co633 Co 0.95249 0.66449 0.47014 0.0
C634 C 0.92064 0.6766 0.47193 0.0
O635 O 0.92128 0.67518 0.4871 0.0
N636 N 0.94181 0.65028 0.48298 0.0
C637 C 0.93265 0.63387 0.50076 0.0
C638 C 0.94316 0.64557 0.4979 0.0
C639 C 0.93037 0.64127 0.47718 0.0
N640 N 0.92462 0.63122 0.48765 0.0
O641 O 0.9518 0.64988 0.45372 0.0
H642 H 0.95126 0.64996 0.50634 0.0
H643 H 0.92657 0.64183 0.46524 0.0
O644 O 0.93245 0.67313 0.46366 0.0
C645 C 0.9641 0.64175 0.45333 0.0
O646 O 0.97468 0.64399 0.46409 0.0
N647 N 0.95501 0.67875 0.48627 0.0
C648 C 0.96809 0.70026 0.50667 0.0
C649 C 0.95648 0.70475 0.49612 0.0
C650 C 0.95021 0.69384 0.48587 0.0
C651 C 0.96615 0.67424 0.4965 0.0
C652 C 0.97231 0.68457 0.50724 0.0
H653 H 0.94264 0.69789 0.47675 0.0
H654 H 0.97113 0.66277 0.49557 0.0
H655 H 0.94621 0.68201 0.43894 0.0
H656 H 0.99382 0.69205 0.44025 0.0
H657 H 0.93114 0.62776 0.51161 0.0
H658 H 0.95327 0.71681 0.49473 0.0
H659 H 0.98123 0.6805 0.51507 0.0
C660 C 0.06337 0.23077 0.20565 0.0
C661 C 0.05512 0.2332 0.19213 0.0
N662 N 0.05664 0.22051 0.1831 0.0
N663 N 0.06998 0.21661 0.20509 0.0
C664 C 0.06572 0.21072 0.19125 0.0
H665 H 0.06478 0.23893 0.21508 0.0
Co666 Co 0.08385 0.20735 0.21872 0.0
C667 C 0.07219 0.17537 0.22213 0.0
O668 O 0.07384 0.17659 0.23724 0.0
N669 N 0.09836 0.19768 0.23201 0.0
C670 C 0.11493 0.18958 0.25014 0.0
C671 C 0.10323 0.19992 0.24677 0.0
C672 C 0.10732 0.18593 0.2268 0.0
N673 N 0.11743 0.18077 0.23751 0.0
O674 O 0.09846 0.20602 0.20226 0.0
H675 H 0.09893 0.2085 0.25477 0.0
H676 H 0.10662 0.1814 0.21512 0.0
O677 O 0.07551 0.18686 0.21337 0.0
C678 C 0.10611 0.21854 0.20069 0.0
O679 O 0.10324 0.2301 0.21021 0.0
N680 N 0.06964 0.21039 0.23484 0.0
C681 C 0.04815 0.22357 0.25519 0.0
C682 C 0.04379 0.2115 0.24509 0.0
C683 C 0.05468 0.20518 0.23487 0.0
C684 C 0.07402 0.22203 0.24456 0.0
C685 C 0.06372 0.22827 0.25529 0.0
H686 H 0.05069 0.19717 0.22611 0.0
H687 H 0.08532 0.2273 0.24326 0.0
H688 H 0.06991 0.19971 0.1869 0.0
H689 H 0.04873 0.24357 0.18912 0.0
H690 H 0.1211 0.18866 0.26103 0.0
H691 H 0.03182 0.20789 0.24404 0.0
H692 H 0.06772 0.23753 0.26277 0.0
C693 C 0.4821 0.81264 0.54796 0.0
C694 C 0.48344 0.80515 0.56209 0.0
N695 N 0.47078 0.8085 0.57065 0.0
N696 N 0.46858 0.82049 0.54765 0.0
C697 C 0.462 0.8177 0.56154 0.0
H698 H 0.4906 0.81273 0.53874 0.0
Co699 Co 0.46051 0.83432 0.53323 0.0
C700 C 0.42806 0.82418 0.52914 0.0
O701 O 0.42974 0.82542 0.51403 0.0
N702 N 0.45193 0.84888 0.51919 0.0
C703 C 0.4458 0.86625 0.50103 0.0
C704 C 0.45543 0.85404 0.50478 0.0
C705 C 0.44023 0.8582 0.52381 0.0
N706 N 0.43633 0.86889 0.51315 0.0
O707 O 0.45946 0.84946 0.54924 0.0
H708 H 0.46461 0.84977 0.49746 0.0
H709 H 0.43469 0.85717 0.53502 0.0
O710 O 0.43945 0.82715 0.53816 0.0
C711 C 0.46939 0.86032 0.54815 0.0
O712 O 0.47859 0.86081 0.53601 0.0
N713 N 0.46319 0.81949 0.51764 0.0
C714 C 0.47381 0.7972 0.49668 0.0
C715 C 0.46186 0.79373 0.50723 0.0
C716 C 0.45689 0.80496 0.51778 0.0
C717 C 0.47505 0.8229 0.5078 0.0
C718 C 0.48013 0.81218 0.49685 0.0
H719 H 0.44878 0.80159 0.5267 0.0
H720 H 0.4812 0.83375 0.50902 0.0
H721 H 0.45103 0.82267 0.56501 0.0
H722 H 0.49322 0.7983 0.56594 0.0
H723 H 0.44616 0.87301 0.49046 0.0
H724 H 0.45716 0.78213 0.50816 0.0
H725 H 0.48953 0.8154 0.48916 0.0
C726 C 0.94505 0.7285 0.30298 0.0
C727 C 0.95301 0.72998 0.31675 0.0
N728 N 0.95158 0.7166 0.32466 0.0
N729 N 0.93858 0.71428 0.3023 0.0
C730 C 0.94282 0.70727 0.31565 0.0
H731 H 0.94315 0.7376 0.29456 0.0
Co732 Co 0.92327 0.70804 0.28852 0.0
C733 C 0.92814 0.67422 0.28381 0.0
O734 O 0.92496 0.67571 0.26897 0.0
N735 N 0.90731 0.70194 0.27501 0.0
C736 C 0.8906 0.69766 0.25578 0.0
C737 C 0.9034 0.70607 0.26039 0.0
C738 C 0.8965 0.69139 0.27907 0.0
N739 N 0.88641 0.68831 0.26756 0.0
O740 O 0.90889 0.70791 0.30508 0.0
H741 H 0.90943 0.71446 0.25334 0.0
H742 H 0.89625 0.68582 0.2903 0.0
O743 O 0.92825 0.68616 0.29264 0.0
C744 C 0.90267 0.72102 0.30767 0.0
O745 O 0.90694 0.73298 0.29926 0.0
N746 N 0.93745 0.70964 0.2722 0.0
C747 C 0.95884 0.71806 0.24927 0.0
C748 C 0.9598 0.70361 0.25682 0.0
C749 C 0.94949 0.69997 0.26874 0.0
C750 C 0.9361 0.72354 0.26488 0.0
C751 C 0.94661 0.72801 0.25347 0.0
H752 H 0.95174 0.68971 0.27547 0.0
H753 H 0.92706 0.7315 0.2684 0.0
H754 H 0.93841 0.69612 0.31936 0.0
H755 H 0.9587 0.74034 0.32101 0.0
H756 H 0.88511 0.69809 0.24449 0.0
H757 H 0.96882 0.69532 0.25415 0.0
H758 H 0.94548 0.73955 0.24872 0.0
C759 C 0.5465 0.27367 0.79567 0.0
C760 C 0.53772 0.27378 0.80909 0.0
N761 N 0.54229 0.28591 0.81786 0.0
N762 N 0.55651 0.28569 0.79603 0.0
C763 C 0.55365 0.29285 0.80966 0.0
H764 H 0.54599 0.26506 0.78656 0.0
Co765 Co 0.57293 0.29096 0.78301 0.0
C766 C 0.56907 0.32524 0.77868 0.0
O767 O 0.57318 0.32473 0.76401 0.0
N768 N 0.58988 0.29648 0.77048 0.0
C769 C 0.60861 0.29945 0.75293 0.0
C770 C 0.59499 0.29179 0.75641 0.0
C771 C 0.6007 0.30671 0.77532 0.0
N772 N 0.61216 0.3088 0.76494 0.0
O773 O 0.58634 0.29084 0.8004 0.0
H774 H 0.58942 0.28332 0.74908 0.0
H775 H 0.59993 0.31286 0.78623 0.0
O776 O 0.56833 0.31277 0.78663 0.0
C777 C 0.59143 0.27741 0.80368 0.0
O778 O 0.58669 0.26553 0.79537 0.0
N779 N 0.55988 0.28949 0.76586 0.0
C780 C 0.53997 0.27972 0.74223 0.0
C781 C 0.53828 0.29448 0.74905 0.0
C782 C 0.54814 0.29901 0.76116 0.0
C783 C 0.56182 0.27532 0.75924 0.0
C784 C 0.55216 0.27025 0.7474 0.0
H785 H 0.54574 0.30972 0.76714 0.0
H786 H 0.57063 0.26758 0.76373 0.0
H787 H 0.56051 0.30244 0.81391 0.0
H788 H 0.52894 0.2654 0.81225 0.0
H789 H 0.61542 0.29809 0.74248 0.0
H790 H 0.52899 0.30219 0.74563 0.0
H791 H 0.55371 0.25853 0.74318 0.0
C792 C 0.54808 0.51745 0.68574 0.0
C793 C 0.56171 0.5146 0.69361 0.0
N794 N 0.56974 0.52798 0.69447 0.0
N795 N 0.54762 0.53253 0.68165 0.0
C796 C 0.56095 0.53864 0.68715 0.0
H797 H 0.53945 0.50894 0.6825 0.0
Co798 Co 0.53363 0.54162 0.66811 0.0
C799 C 0.52945 0.57356 0.67949 0.0
O800 O 0.51439 0.57179 0.67791 0.0
N801 N 0.51986 0.55091 0.65382 0.0
C802 C 0.50122 0.55811 0.63739 0.0
C803 C 0.50517 0.54798 0.64909 0.0
C804 C 0.52446 0.56282 0.64473 0.0
N805 N 0.51343 0.56745 0.63472 0.0
O806 O 0.54982 0.54332 0.65335 0.0
H807 H 0.49766 0.539 0.65346 0.0
H808 H 0.53597 0.56778 0.64524 0.0
O809 O 0.5386 0.56231 0.67634 0.0
C810 C 0.54995 0.53185 0.64406 0.0
O811 O 0.5391 0.52123 0.64539 0.0
N812 N 0.51784 0.5382 0.68255 0.0
C813 C 0.497 0.52595 0.70406 0.0
C814 C 0.50709 0.53808 0.70819 0.0
C815 C 0.51762 0.54387 0.69733 0.0
C816 C 0.50841 0.52621 0.67849 0.0
C817 C 0.49752 0.5203 0.68882 0.0
H818 H 0.52626 0.55207 0.70119 0.0
H819 H 0.5099 0.52062 0.66735 0.0
H820 H 0.5647 0.5504 0.68484 0.0
H821 H 0.56565 0.50347 0.69787 0.0
H822 H 0.49026 0.55847 0.6313 0.0
H823 H 0.50773 0.54229 0.72001 0.0
H824 H 0.49019 0.51081 0.68511 0.0
C825 C 0.72822 0.29317 0.9303 0.0
C826 C 0.73221 0.30686 0.93754 0.0
N827 N 0.71919 0.31524 0.93959 0.0
N828 N 0.71279 0.29305 0.92773 0.0
C829 C 0.70761 0.30662 0.93358 0.0
H830 H 0.73615 0.28435 0.92622 0.0
Co831 Co 0.7024 0.27946 0.91476 0.0
C832 C 0.67067 0.27714 0.92731 0.0
O833 O 0.67154 0.26199 0.92578 0.0
N834 N 0.69187 0.2661 0.90097 0.0
C835 C 0.68324 0.24782 0.88483 0.0
C836 C 0.69395 0.25129 0.89619 0.0
C837 C 0.67992 0.27127 0.89227 0.0
N838 N 0.67449 0.2605 0.88236 0.0
O839 O 0.70093 0.29559 0.89996 0.0
H840 H 0.70276 0.24341 0.90022 0.0
H841 H 0.67522 0.28286 0.89329 0.0
O842 O 0.68232 0.28561 0.92373 0.0
C843 C 0.71214 0.29525 0.89039 0.0
O844 O 0.72231 0.28394 0.89144 0.0
N845 N 0.70557 0.26365 0.92919 0.0
C846 C 0.71792 0.24286 0.95067 0.0
C847 C 0.70623 0.25337 0.955 0.0
C848 C 0.70042 0.26388 0.94416 0.0
C849 C 0.71704 0.25369 0.92487 0.0
C850 C 0.72301 0.24286 0.93524 0.0
H851 H 0.69271 0.27289 0.94815 0.0
H852 H 0.72225 0.25477 0.91352 0.0
H853 H 0.69582 0.31075 0.93225 0.0
H854 H 0.74382 0.31069 0.9404 0.0
H855 H 0.68231 0.23697 0.87858 0.0
H856 H 0.70249 0.25439 0.96695 0.0
H857 H 0.73219 0.2352 0.93141 0.0
C858 C 0.95207 0.47406 0.19629 0.0
C859 C 0.93895 0.47441 0.20545 0.0
N860 N 0.92989 0.46227 0.20153 0.0
N861 N 0.95126 0.46172 0.18669 0.0
C862 C 0.93765 0.45484 0.19016 0.0
H863 H 0.96129 0.48256 0.19624 0.0
Co864 Co 0.96403 0.45617 0.17023 0.0
C865 C 0.96736 0.42192 0.17307 0.0
O866 O 0.98216 0.42269 0.16947 0.0
N867 N 0.97637 0.45047 0.15324 0.0
C868 C 0.99427 0.44587 0.13517 0.0
C869 C 0.99095 0.45394 0.14863 0.0
C870 C 0.97107 0.44064 0.14226 0.0
N871 N 0.98172 0.43739 0.13134 0.0
O872 O 0.94674 0.45748 0.15681 0.0
H873 H 0.99883 0.46158 0.15465 0.0
H874 H 0.95956 0.43567 0.14248 0.0
O875 O 0.95928 0.4343 0.17409 0.0
C876 C 0.94368 0.47101 0.15183 0.0
O877 O 0.95226 0.48271 0.15651 0.0
N878 N 0.9811 0.45629 0.18363 0.0
C879 C 0.00286 0.46406 0.20647 0.0
C880 C 0.99559 0.44943 0.20634 0.0
C881 C 0.98421 0.44611 0.19533 0.0
C882 C 0.98882 0.47003 0.18282 0.0
C883 C -0.00038 0.4742 0.1941 0.0
H884 H 0.97732 0.43585 0.19704 0.0
H885 H 0.98564 0.47835 0.17398 0.0
H886 H 0.93309 0.44505 0.18376 0.0
H887 H 0.93616 0.48312 0.21406 0.0
H888 H 0.00519 0.44591 0.12898 0.0
H889 H 0.99777 0.44088 0.21524 0.0
H890 H 0.00437 0.48579 0.19357 0.0
C891 C 0.7647 0.69773 0.43202 0.0
C892 C 0.76179 0.68398 0.43966 0.0
N893 N 0.7753 0.67627 0.44111 0.0
N894 N 0.77993 0.69855 0.42863 0.0
C895 C 0.78608 0.68534 0.43434 0.0
H896 H 0.75615 0.70617 0.42841 0.0
Co897 Co 0.78923 0.71278 0.4155 0.0
C898 C 0.82107 0.71658 0.42736 0.0
O899 O 0.81939 0.73167 0.42591 0.0
N900 N 0.79873 0.72678 0.40158 0.0
C901 C 0.80628 0.74555 0.38547 0.0
C902 C 0.79584 0.74148 0.39687 0.0
C903 C 0.81082 0.72226 0.39273 0.0
N904 N 0.81564 0.73335 0.38286 0.0
O905 O 0.79091 0.69694 0.40029 0.0
H906 H 0.78669 0.74889 0.40103 0.0
H907 H 0.81613 0.71094 0.39366 0.0
O908 O 0.80984 0.70751 0.42386 0.0
C909 C 0.77949 0.69739 0.39095 0.0
O910 O 0.76899 0.70829 0.3928 0.0
N911 N 0.78584 0.72827 0.4303 0.0
C912 C 0.77422 0.7492 0.45211 0.0
C913 C 0.78598 0.73864 0.45611 0.0
C914 C 0.79142 0.72807 0.44512 0.0
C915 C 0.7741 0.73807 0.42639 0.0
C916 C 0.7685 0.74899 0.43689 0.0
H917 H 0.79936 0.71913 0.44885 0.0
H918 H 0.7685 0.7369 0.41523 0.0
H919 H 0.798 0.68184 0.43254 0.0
H920 H 0.75057 0.67971 0.44332 0.0
H921 H 0.80666 0.75649 0.37933 0.0
H922 H 0.79018 0.73775 0.46791 0.0
H923 H 0.75924 0.75665 0.43329 0.0
C924 C 0.54825 0.48265 0.81962 0.0
C925 C 0.56185 0.48588 0.81181 0.0
N926 N 0.56932 0.4724 0.80933 0.0
N927 N 0.54736 0.46724 0.82219 0.0
C928 C 0.56034 0.46133 0.81574 0.0
H929 H 0.53983 0.49102 0.82368 0.0
Co930 Co 0.53273 0.45691 0.83421 0.0
C931 C 0.54421 0.42509 0.83323 0.0
O932 O 0.54532 0.42554 0.84842 0.0
N933 N 0.51805 0.44618 0.84639 0.0
C934 C 0.50159 0.42731 0.85261 0.0
C935 C 0.50689 0.43662 0.84086 0.0
C936 C 0.51892 0.4427 0.86166 0.0
N937 N 0.50938 0.43096 0.86562 0.0
O938 O 0.54766 0.45584 0.85037 0.0
H939 H 0.50396 0.43522 0.82875 0.0
H940 H 0.5278 0.44711 0.86933 0.0
O941 O 0.53941 0.43698 0.82583 0.0
C942 C 0.54886 0.46814 0.85844 0.0
O943 O 0.53969 0.47991 0.85532 0.0
N944 N 0.5182 0.45948 0.81861 0.0
C945 C 0.49721 0.46872 0.79596 0.0
C946 C 0.5093 0.45837 0.79238 0.0
C947 C 0.51975 0.45392 0.8039 0.0
C948 C 0.50631 0.46914 0.82245 0.0
C949 C 0.49552 0.47372 0.81134 0.0
H950 H 0.52952 0.44671 0.8008 0.0
H951 H 0.50548 0.47364 0.83413 0.0
H952 H 0.56366 0.44926 0.81641 0.0
H953 H 0.56605 0.49723 0.80847 0.0
H954 H 0.49381 0.41753 0.85132 0.0
H955 H 0.51133 0.45454 0.78059 0.0
H956 H 0.48634 0.48163 0.81466 0.0
C957 C 0.76948 0.2986 0.05661 0.0
C958 C 0.76777 0.31248 0.0488 0.0
N959 N 0.78042 0.32128 0.05153 0.0
N960 N 0.78317 0.29868 0.06417 0.0
C961 C 0.78948 0.31261 0.0609 0.0
H962 H 0.76117 0.28921 0.05701 0.0
Co963 Co 0.79153 0.28423 0.07781 0.0
C964 C 0.82387 0.28035 0.06717 0.0
O965 O 0.82224 0.26524 0.06834 0.0
N966 N 0.8003 0.27008 0.09212 0.0
C967 C 0.80745 0.25094 0.10798 0.0
C968 C 0.79722 0.25532 0.09652 0.0
C969 C 0.81228 0.27434 0.10127 0.0
N970 N 0.81697 0.26296 0.11087 0.0
O971 O 0.79276 0.30002 0.09306 0.0
H972 H 0.7882 0.24797 0.09198 0.0
H973 H 0.81742 0.28578 0.10096 0.0
O974 O 0.81246 0.2893 0.07034 0.0
C975 C 0.78079 0.29986 0.10168 0.0
O976 O 0.77025 0.28909 0.09934 0.0
N977 N 0.78855 0.26874 0.06297 0.0
C978 C 0.77713 0.24763 0.04121 0.0
C979 C 0.78918 0.25794 0.03734 0.0
C980 C 0.79461 0.26855 0.04834 0.0
C981 C 0.77653 0.25922 0.0667 0.0
C982 C 0.77112 0.24815 0.05631 0.0
H983 H 0.80288 0.27724 0.04475 0.0
H984 H 0.77064 0.26069 0.07767 0.0
H985 H 0.80028 0.31658 0.06593 0.0
H986 H 0.75791 0.31583 0.04179 0.0
H987 H 0.80789 0.23975 0.11363 0.0
H988 H 0.79369 0.2586 0.02564 0.0
H989 H 0.76175 0.24061 0.05991 0.0
C990 C 0.9539 0.51874 0.30992 0.0
C991 C 0.94021 0.51652 0.30185 0.0
N992 N 0.93036 0.52802 0.30571 0.0
N993 N 0.95267 0.53172 0.3186 0.0
C994 C 0.93823 0.53705 0.31577 0.0
H995 H 0.96396 0.51126 0.30966 0.0
Co996 Co 0.96629 0.5408 0.33273 0.0
C997 C 0.96992 0.57274 0.32126 0.0
O998 O 0.98503 0.57143 0.32286 0.0
N999 N 0.97944 0.55039 0.34751 0.0
C1000 C 0.99635 0.55719 0.36586 0.0
C1001 C 0.99354 0.54726 0.35365 0.0
C1002 C 0.9741 0.56229 0.35619 0.0
N1003 N 0.98398 0.56655 0.36751 0.0
O1004 O 0.94964 0.54207 0.34715 0.0
H1005 H 0.00122 0.53803 0.35019 0.0
H1006 H 0.96285 0.56752 0.35439 0.0
O1007 O 0.96107 0.56129 0.32447 0.0
C1008 C 0.95025 0.53226 0.35815 0.0
O1009 O 0.96238 0.52309 0.35922 0.0
N1010 N 0.98262 0.53784 0.31872 0.0
C1011 C 0.00365 0.5249 0.29773 0.0
C1012 C 0.99355 0.53687 0.29313 0.0
C1013 C 0.983 0.54309 0.30378 0.0
C1014 C 0.99233 0.52628 0.32331 0.0
C1015 C 0.00338 0.52018 0.31328 0.0
H1016 H 0.9743 0.55106 0.29961 0.0
H1017 H 0.99069 0.52087 0.33449 0.0
H1018 H 0.9335 0.54735 0.32116 0.0
H1019 H 0.93754 0.50694 0.29419 0.0
H1020 H 0.00639 0.55696 0.37339 0.0
H1021 H 0.99281 0.5405 0.28114 0.0
H1022 H 0.01083 0.51098 0.31746 0.0
C1023 C 0.73235 0.70105 0.56628 0.0
C1024 C 0.73535 0.68742 0.55846 0.0
N1025 N 0.72188 0.67966 0.55689 0.0
N1026 N 0.71711 0.70173 0.56968 0.0
C1027 C 0.71103 0.68856 0.56377 0.0
H1028 H 0.74086 0.70945 0.57009 0.0
Co1029 Co 0.70792 0.71556 0.58328 0.0
C1030 C 0.67558 0.71883 0.5726 0.0
O1031 O 0.67689 0.73394 0.57422 0.0
N1032 N 0.6986 0.72915 0.59766 0.0
C1033 C 0.69125 0.74766 0.61415 0.0
C1034 C 0.70147 0.74381 0.60247 0.0
C1035 C 0.68675 0.72441 0.60672 0.0
N1036 N 0.68196 0.73539 0.61671 0.0
O1037 O 0.70681 0.69942 0.59813 0.0
H1038 H 0.71045 0.75134 0.59813 0.0
H1039 H 0.68187 0.71286 0.60617 0.0
O1040 O 0.68718 0.71003 0.57547 0.0
C1041 C 0.71838 0.69936 0.60727 0.0
O1042 O 0.72892 0.71029 0.60584 0.0
N1043 N 0.71061 0.73133 0.56865 0.0
C1044 C 0.72136 0.75228 0.54648 0.0
C1045 C 0.70926 0.74195 0.543 0.0
C1046 C 0.70432 0.73131 0.55412 0.0
C1047 C 0.72256 0.74108 0.57212 0.0
C1048 C 0.72786 0.75191 0.56137 0.0
H1049 H 0.69623 0.72242 0.55061 0.0
H1050 H 0.72861 0.73984 0.58303 0.0
H1051 H 0.69915 0.68493 0.56556 0.0
H1052 H 0.7466 0.68322 0.5548 0.0
H1053 H 0.69074 0.75862 0.62027 0.0
H1054 H 0.70449 0.74123 0.53139 0.0
H1055 H 0.73752 0.75934 0.56442 0.0
C1056 C 0.68922 0.54893 0.52056 0.0
C1057 C 0.69744 0.56243 0.51819 0.0
N1058 N 0.69832 0.57005 0.5318 0.0
N1059 N 0.6849 0.54815 0.53557 0.0
C1060 C 0.69065 0.56116 0.54213 0.0
H1061 H 0.6857 0.54076 0.51171 0.0
Co1062 Co 0.67027 0.53471 0.54373 0.0
C1063 C 0.67869 0.53081 0.57682 0.0
O1064 O 0.67595 0.51584 0.57578 0.0
N1065 N 0.65496 0.52152 0.5519 0.0
C1066 C 0.63775 0.50313 0.55764 0.0
C1067 C 0.65019 0.50701 0.54834 0.0
C1068 C 0.64516 0.52618 0.56318 0.0
N1069 N 0.63471 0.51525 0.56701 0.0
O1070 O 0.65602 0.55143 0.54452 0.0
H1071 H 0.65515 0.49967 0.53951 0.0
H1072 H 0.6456 0.5376 0.56836 0.0
O1073 O 0.67731 0.53947 0.56486 0.0
C1074 C 0.64763 0.55168 0.53238 0.0
O1075 O 0.64965 0.54081 0.52188 0.0
N1076 N 0.68416 0.5183 0.54116 0.0
C1077 C 0.70524 0.49669 0.52918 0.0
C1078 C 0.70797 0.50411 0.5435 0.0
C1079 C 0.69762 0.51535 0.54895 0.0
C1080 C 0.68104 0.51089 0.5276 0.0
C1081 C 0.69131 0.50012 0.52141 0.0
H1082 H 0.70098 0.52217 0.55887 0.0
H1083 H 0.67085 0.51411 0.52103 0.0
H1084 H 0.68811 0.56477 0.55388 0.0
H1085 H 0.70177 0.56668 0.5072 0.0
H1086 H 0.6315 0.49225 0.5575 0.0
H1087 H 0.7184 0.50199 0.55013 0.0
H1088 H 0.68866 0.49546 0.51008 0.0
C1089 C 0.69518 0.43151 0.765 0.0
C1090 C 0.68191 0.44017 0.76276 0.0
N1091 N 0.67473 0.4417 0.77655 0.0
N1092 N 0.69619 0.42753 0.78009 0.0
C1093 C 0.68358 0.43393 0.78682 0.0
H1094 H 0.7032 0.42775 0.75612 0.0
Co1095 Co 0.71022 0.41365 0.78865 0.0
C1096 C 0.71378 0.42372 0.82121 0.0
O1097 O 0.7289 0.42242 0.81981 0.0
N1098 N 0.724 0.39908 0.7974 0.0
C1099 C 0.74257 0.38233 0.80402 0.0
C1100 C 0.73861 0.39429 0.79419 0.0
C1101 C 0.71942 0.38972 0.80909 0.0
N1102 N 0.73043 0.37955 0.81341 0.0
O1103 O 0.6942 0.3986 0.7896 0.0
H1104 H 0.74603 0.39878 0.78521 0.0
H1105 H 0.70795 0.39015 0.81414 0.0
O1106 O 0.70496 0.42084 0.80963 0.0
C1107 C 0.69314 0.39055 0.77728 0.0
O1108 O 0.70269 0.39349 0.76576 0.0
N1109 N 0.72589 0.42842 0.78615 0.0
C1110 C 0.74735 0.45055 0.77623 0.0
C1111 C 0.73666 0.45399 0.78805 0.0
C1112 C 0.72585 0.44286 0.79265 0.0
C1113 C 0.73576 0.4251 0.77429 0.0
C1114 C 0.74695 0.43573 0.76953 0.0
H1115 H 0.71688 0.44624 0.80071 0.0
H1116 H 0.73448 0.41434 0.76797 0.0
H1117 H 0.68037 0.43212 0.79882 0.0
H1118 H 0.67765 0.44461 0.75182 0.0
H1119 H 0.75349 0.37615 0.80416 0.0
H1120 H 0.73588 0.46552 0.79299 0.0
H1121 H 0.7547 0.43256 0.76018 0.0
C1122 C 0.80616 0.45659 0.02303 0.0
C1123 C 0.799 0.44246 0.02043 0.0
N1124 N 0.80333 0.43265 0.03179 0.0
N1125 N 0.81474 0.45564 0.03609 0.0
C1126 C 0.81271 0.44097 0.04112 0.0
H1127 H 0.80552 0.4667 0.01564 0.0
Co1128 Co 0.82854 0.4696 0.04524 0.0
C1129 C 0.81697 0.47244 0.0773 0.0
O1130 O 0.8181 0.4876 0.07628 0.0
N1131 N 0.84295 0.4831 0.0549 0.0
C1132 C 0.85949 0.50131 0.063 0.0
C1133 C 0.84774 0.49792 0.05273 0.0
C1134 C 0.85204 0.47791 0.06655 0.0
N1135 N 0.86221 0.48861 0.07163 0.0
O1136 O 0.84347 0.45346 0.04627 0.0
H1137 H 0.8434 0.50595 0.04421 0.0
H1138 H 0.85108 0.46636 0.07135 0.0
O1139 O 0.82045 0.46394 0.06567 0.0
C1140 C 0.85065 0.45234 0.03343 0.0
O1141 O 0.8472 0.46214 0.02228 0.0
N1142 N 0.81422 0.48554 0.04232 0.0
C1143 C 0.79339 0.50625 0.02867 0.0
C1144 C 0.78857 0.4962 0.04064 0.0
C1145 C 0.79919 0.48586 0.0473 0.0
C1146 C 0.81897 0.49514 0.03076 0.0
C1147 C 0.80909 0.50616 0.02447 0.0
H1148 H 0.79499 0.47724 0.05536 0.0
H1149 H 0.83032 0.49359 0.02567 0.0
H1150 H 0.8184 0.43632 0.0513 0.0
H1151 H 0.79179 0.43944 0.0106 0.0
H1152 H 0.8658 0.51213 0.06374 0.0
H1153 H 0.7765 0.49534 0.04396 0.0
H1154 H 0.81357 0.5137 0.0155 0.0
C1155 C 0.80073 0.56052 0.26257 0.0
C1156 C 0.81417 0.55177 0.26204 0.0
N1157 N 0.82248 0.55472 0.27497 0.0
N1158 N 0.80065 0.56889 0.27579 0.0
C1159 C 0.81405 0.56519 0.28296 0.0
H1160 H 0.79171 0.56086 0.25386 0.0
Co1161 Co 0.78661 0.58349 0.28323 0.0
C1162 C 0.78225 0.57473 0.31624 0.0
O1163 O 0.7672 0.57686 0.31499 0.0
N1164 N 0.77301 0.59876 0.29118 0.0
C1165 C 0.75462 0.61573 0.29778 0.0
C1166 C 0.75853 0.6038 0.28783 0.0
C1167 C 0.77761 0.60801 0.30297 0.0
N1168 N 0.76667 0.61822 0.30737 0.0
O1169 O 0.80301 0.59807 0.28432 0.0
H1170 H 0.75108 0.59934 0.27884 0.0
H1171 H 0.78895 0.60725 0.30827 0.0
O1172 O 0.79101 0.57674 0.30444 0.0
C1173 C 0.80392 0.60727 0.27284 0.0
O1174 O 0.79372 0.60603 0.26158 0.0
N1175 N 0.77055 0.56914 0.28077 0.0
C1176 C 0.74887 0.54716 0.27094 0.0
C1177 C 0.7591 0.54392 0.28322 0.0
C1178 C 0.77 0.55497 0.28781 0.0
C1179 C 0.76099 0.57234 0.26862 0.0
C1180 C 0.74972 0.56179 0.26387 0.0
H1181 H 0.77863 0.55166 0.29624 0.0
H1182 H 0.76262 0.58291 0.26208 0.0
H1183 H 0.81781 0.57056 0.29366 0.0
H1184 H 0.81752 0.54386 0.25288 0.0
H1185 H 0.74369 0.6219 0.29805 0.0
H1186 H 0.7595 0.53255 0.28853 0.0
H1187 H 0.74228 0.56482 0.25422 0.0
C1188 C 0.69325 0.44733 0.97659 0.0
C1189 C 0.7017 0.43386 0.97814 0.0
N1190 N 0.70034 0.4257 0.96489 0.0
N1191 N 0.68656 0.44757 0.96245 0.0
C1192 C 0.69115 0.43426 0.95557 0.0
H1193 H 0.69113 0.45577 0.98562 0.0
Co1194 Co 0.67052 0.46052 0.95638 0.0
C1195 C 0.67426 0.4646 0.92237 0.0
O1196 O 0.67054 0.47933 0.92364 0.0
N1197 N 0.6538 0.47317 0.95053 0.0
C1198 C 0.63538 0.49104 0.94774 0.0
C1199 C 0.64907 0.48738 0.95515 0.0
C1200 C 0.64267 0.46839 0.94061 0.0
N1201 N 0.63139 0.47899 0.93863 0.0
O1202 O 0.65692 0.44334 0.95719 0.0
H1203 H 0.65491 0.49468 0.96347 0.0
H1204 H 0.64307 0.45734 0.93467 0.0
O1205 O 0.67501 0.45606 0.93448 0.0
C1206 C 0.6503 0.44224 0.97032 0.0
O1207 O 0.65343 0.45266 0.981 0.0
N1208 N 0.68402 0.47744 0.95721 0.0
C1209 C 0.70543 0.50032 0.96563 0.0
C1210 C 0.70623 0.49298 0.95105 0.0
C1211 C 0.69584 0.48111 0.94736 0.0
C1212 C 0.6827 0.48477 0.97112 0.0
C1213 C 0.69319 0.49619 0.97557 0.0
H1214 H 0.69801 0.47444 0.93703 0.0
H1215 H 0.67386 0.48107 0.97922 0.0
H1216 H 0.68665 0.43019 0.94458 0.0
H1217 H 0.70762 0.42993 0.98849 0.0
H1218 H 0.62879 0.50162 0.94917 0.0
H1219 H 0.7153 0.49567 0.94282 0.0
H1220 H 0.6922 0.50086 0.98717 0.0
C1221 C 0.79521 0.4351 0.23049 0.0
C1222 C 0.80942 0.44199 0.23318 0.0
N1223 N 0.81917 0.43762 0.22177 0.0
N1224 N 0.79603 0.42665 0.21734 0.0
C1225 C 0.81073 0.42845 0.21233 0.0
H1226 H 0.78509 0.43586 0.23786 0.0
Co1227 Co 0.78161 0.41343 0.20828 0.0
C1228 C 0.77868 0.42456 0.17605 0.0
O1229 O 0.76355 0.42315 0.17739 0.0
N1230 N 0.76756 0.39949 0.19892 0.0
C1231 C 0.74886 0.38325 0.19143 0.0
C1232 C 0.75288 0.39475 0.20181 0.0
C1233 C 0.77213 0.39055 0.18689 0.0
N1234 N 0.76104 0.38073 0.18201 0.0
O1235 O 0.79719 0.39786 0.20721 0.0
H1236 H 0.74547 0.39896 0.21095 0.0
H1237 H 0.78367 0.39103 0.18199 0.0
O1238 O 0.78747 0.42122 0.18754 0.0
C1239 C 0.79703 0.38844 0.21856 0.0
O1240 O 0.78624 0.38998 0.22922 0.0
N1241 N 0.76628 0.42864 0.21088 0.0
C1242 C 0.74567 0.45147 0.22098 0.0
C1243 C 0.75666 0.45468 0.2094 0.0
C1244 C 0.76707 0.44322 0.20475 0.0
C1245 C 0.75596 0.42544 0.22241 0.0
C1246 C 0.74526 0.43652 0.22733 0.0
H1247 H 0.77638 0.44645 0.19705 0.0
H1248 H 0.75662 0.41449 0.22847 0.0
H1249 H 0.81526 0.42282 0.20206 0.0
H1250 H 0.81251 0.44909 0.24306 0.0
H1251 H 0.73788 0.37719 0.19092 0.0
H1252 H 0.75804 0.46628 0.20477 0.0
H1253 H 0.73728 0.4336 0.23658 0.0
C1254 C 0.81083 0.54539 0.47511 0.0
C1255 C 0.80337 0.55912 0.47854 0.0
N1256 N 0.80182 0.56722 0.46529 0.0
N1257 N 0.81407 0.54499 0.45981 0.0
C1258 C 0.80838 0.55844 0.45415 0.0
H1259 H 0.8144 0.53663 0.48335 0.0
Co1260 Co 0.82683 0.53076 0.44989 0.0
C1261 C 0.828 0.54321 0.41851 0.0
O1262 O 0.84311 0.54433 0.42007 0.0
N1263 N 0.83984 0.51637 0.43967 0.0
C1264 C 0.84749 0.49969 0.42149 0.0
C1265 C 0.83515 0.50482 0.43012 0.0
C1266 C 0.85524 0.5176 0.43693 0.0
N1267 N 0.86007 0.50791 0.42564 0.0
O1268 O 0.84282 0.54587 0.45043 0.0
H1269 H 0.82326 0.50136 0.42825 0.0
H1270 H 0.86247 0.52675 0.44152 0.0
O1271 O 0.81978 0.53801 0.42969 0.0
C1272 C 0.85034 0.54596 0.46312 0.0
O1273 O 0.84726 0.53528 0.47354 0.0
N1274 N 0.81125 0.51607 0.45115 0.0
C1275 C 0.78821 0.49523 0.46007 0.0
C1276 C 0.78643 0.50445 0.44668 0.0
C1277 C 0.798 0.51508 0.44257 0.0
C1278 C 0.81367 0.50657 0.46346 0.0
C1279 C 0.80232 0.49616 0.46819 0.0
H1280 H 0.79606 0.52274 0.43286 0.0
H1281 H 0.8242 0.50776 0.47019 0.0
H1282 H 0.80996 0.56229 0.44231 0.0
H1283 H 0.79981 0.56306 0.48992 0.0
H1284 H 0.84694 0.49165 0.41185 0.0
H1285 H 0.77595 0.50401 0.43979 0.0
H1286 H 0.80434 0.48976 0.47878 0.0
C1287 C 0.69842 0.5648 0.73408 0.0
C1288 C 0.6848 0.5567 0.7363 0.0
N1289 N 0.67787 0.55493 0.72242 0.0
N1290 N 0.69992 0.56818 0.71889 0.0
C1291 C 0.68724 0.56198 0.71209 0.0
H1292 H 0.70628 0.56874 0.74304 0.0
Co1293 Co 0.71412 0.58186 0.71034 0.0
C1294 C 0.71843 0.57139 0.67808 0.0
O1295 O 0.7335 0.57283 0.67988 0.0
N1296 N 0.72806 0.59633 0.70159 0.0
C1297 C 0.74681 0.61289 0.695 0.0
C1298 C 0.74268 0.60102 0.70488 0.0
C1299 C 0.72366 0.60563 0.68978 0.0
N1300 N 0.73477 0.6157 0.68549 0.0
O1301 O 0.69809 0.59677 0.70893 0.0
H1302 H 0.75001 0.59651 0.71393 0.0
H1303 H 0.71223 0.60521 0.68462 0.0
O1304 O 0.70928 0.57433 0.68938 0.0
C1305 C 0.69791 0.60574 0.72064 0.0
O1306 O 0.70868 0.60408 0.7313 0.0
N1307 N 0.72975 0.56717 0.71339 0.0
C1308 C 0.75053 0.54497 0.72448 0.0
C1309 C 0.74026 0.54146 0.71231 0.0
C1310 C 0.72975 0.55261 0.70714 0.0
C1311 C 0.73929 0.57062 0.72549 0.0
C1312 C 0.75013 0.55992 0.73087 0.0
H1313 H 0.72099 0.54916 0.6989 0.0
H1314 H 0.73796 0.58152 0.73154 0.0
H1315 H 0.6843 0.56359 0.69999 0.0
H1316 H 0.68009 0.55289 0.7473 0.0
H1317 H 0.75778 0.61898 0.6949 0.0
H1318 H 0.73949 0.52984 0.70758 0.0
H1319 H 0.75755 0.56311 0.74049 0.0
C1320 C 0.51805 0.68536 0.54863 0.0
C1321 C 0.51509 0.69339 0.56215 0.0
N1322 N 0.52857 0.69509 0.56986 0.0
N1323 N 0.53329 0.68196 0.54796 0.0
C1324 C 0.5394 0.68808 0.56102 0.0
H1325 H 0.50953 0.68143 0.5403 0.0
Co1326 Co 0.54258 0.66821 0.53429 0.0
C1327 C 0.57474 0.67921 0.5308 0.0
O1328 O 0.57335 0.67755 0.5157 0.0
N1329 N 0.55208 0.65368 0.52091 0.0
C1330 C 0.55979 0.63712 0.5026 0.0
C1331 C 0.54947 0.64878 0.50622 0.0
C1332 C 0.56392 0.64471 0.52587 0.0
N1333 N 0.5689 0.63465 0.51502 0.0
O1334 O 0.54377 0.65362 0.55064 0.0
H1335 H 0.54064 0.65304 0.49849 0.0
H1336 H 0.56866 0.64539 0.53747 0.0
O1337 O 0.56323 0.67625 0.53968 0.0
C1338 C 0.53211 0.64459 0.55065 0.0
O1339 O 0.52172 0.64603 0.53959 0.0
N1340 N 0.53971 0.68254 0.51831 0.0
C1341 C 0.5285 0.7041 0.49694 0.0
C1342 C 0.54036 0.7081 0.5074 0.0
C1343 C 0.54559 0.69724 0.51819 0.0
C1344 C 0.52795 0.67861 0.50853 0.0
C1345 C 0.52253 0.68898 0.49741 0.0
H1346 H 0.55356 0.70104 0.52708 0.0
H1347 H 0.52216 0.66757 0.5099 0.0
H1348 H 0.55129 0.68636 0.56464 0.0
H1349 H 0.50385 0.69712 0.56631 0.0
H1350 H 0.56049 0.63097 0.49167 0.0
H1351 H 0.54475 0.71984 0.50809 0.0
H1352 H 0.51318 0.68542 0.48982 0.0
C1353 C 0.02102 0.80054 0.44711 0.0
C1354 C 0.02067 0.79181 0.4337 0.0
N1355 N 0.03281 0.79601 0.42478 0.0
N1356 N 0.03336 0.81013 0.44664 0.0
C1357 C 0.04028 0.8071 0.43294 0.0
H1358 H 0.01247 0.80033 0.45628 0.0
Co1359 Co 0.03856 0.82622 0.46 0.0
C1360 C 0.07248 0.82303 0.46511 0.0
O1361 O 0.07063 0.82664 0.47981 0.0
N1362 N 0.04377 0.84294 0.473 0.0
C1363 C 0.04723 0.86068 0.49147 0.0
C1364 C 0.03945 0.84728 0.48743 0.0
C1365 C 0.05379 0.85409 0.46845 0.0
N1366 N 0.05625 0.8649 0.47944 0.0
O1367 O 0.03793 0.8401 0.44297 0.0
H1368 H 0.03135 0.84116 0.49475 0.0
H1369 H 0.0598 0.8538 0.45744 0.0
O1370 O 0.06069 0.82223 0.45612 0.0
C1371 C 0.02503 0.84713 0.44163 0.0
O1372 O 0.01395 0.8441 0.45164 0.0
N1373 N 0.03771 0.81243 0.47675 0.0
C1374 C 0.02977 0.79005 0.49889 0.0
C1375 C 0.04429 0.78976 0.49144 0.0
C1376 C 0.0477 0.80057 0.47991 0.0
C1377 C 0.02387 0.81334 0.48428 0.0
C1378 C 0.01964 0.80232 0.49531 0.0
H1379 H 0.05794 0.79867 0.47303 0.0
H1380 H 0.01563 0.82219 0.48095 0.0
H1381 H 0.05008 0.81364 0.42864 0.0
H1382 H 0.01194 0.78333 0.43063 0.0
H1383 H 0.04639 0.86674 0.50244 0.0
H1384 H 0.05272 0.78078 0.49375 0.0
H1385 H 0.00808 0.803 0.5001 0.0
C1386 C 0.43556 0.77033 0.70157 0.0
C1387 C 0.44322 0.76884 0.68755 0.0
N1388 N 0.44031 0.7816 0.67897 0.0
N1389 N 0.42803 0.78403 0.70181 0.0
C1390 C 0.43119 0.79058 0.68798 0.0
H1391 H 0.43512 0.7618 0.71075 0.0
Co1392 Co 0.41419 0.7923 0.71612 0.0
C1393 C 0.42476 0.82473 0.72013 0.0
O1394 O 0.42335 0.82324 0.73524 0.0
N1395 N 0.39968 0.80101 0.73003 0.0
C1396 C 0.38285 0.80785 0.74847 0.0
C1397 C 0.39456 0.7977 0.74451 0.0
C1398 C 0.39076 0.81306 0.72554 0.0
N1399 N 0.38059 0.81755 0.73647 0.0
O1400 O 0.39919 0.7936 0.7001 0.0
H1401 H 0.39866 0.78845 0.75184 0.0
H1402 H 0.39151 0.81828 0.71415 0.0
O1403 O 0.42172 0.81326 0.71123 0.0
C1404 C 0.3901 0.78198 0.69989 0.0
O1405 O 0.39166 0.77127 0.71063 0.0
N1406 N 0.42882 0.78936 0.73181 0.0
C1407 C 0.45061 0.77822 0.75299 0.0
C1408 C 0.45439 0.79027 0.74267 0.0
C1409 C 0.4434 0.79553 0.73201 0.0
C1410 C 0.42511 0.77743 0.74144 0.0
C1411 C 0.43556 0.77208 0.75251 0.0
H1412 H 0.447 0.80373 0.72327 0.0
H1413 H 0.41419 0.77144 0.73998 0.0
H1414 H 0.42651 0.80167 0.68448 0.0
H1415 H 0.44987 0.75889 0.68377 0.0
H1416 H 0.37648 0.80802 0.75928 0.0
H1417 H 0.46607 0.79485 0.742 0.0
H1418 H 0.43209 0.76264 0.76001 0.0
C1419 C 0.47738 0.18746 0.95743 0.0
C1420 C 0.48056 0.19444 0.94336 0.0
N1421 N 0.46986 0.18966 0.93301 0.0
N1422 N 0.46461 0.17853 0.95593 0.0
C1423 C 0.46031 0.18019 0.94098 0.0
H1424 H 0.48425 0.1884 0.96789 0.0
Co1425 Co 0.45549 0.16461 0.96967 0.0
C1426 C 0.42226 0.1734 0.97051 0.0
O1427 O 0.42195 0.17076 0.98552 0.0
N1428 N 0.44615 0.14995 0.98302 0.0
C1429 C 0.43813 0.13372 0.00151 0.0
C1430 C 0.44797 0.14584 0.99807 0.0
C1431 C 0.4353 0.13999 0.97767 0.0
N1432 N 0.43022 0.13007 0.98857 0.0
O1433 O 0.45574 0.14945 0.95374 0.0
H1434 H 0.45588 0.15104 0.00624 0.0
H1435 H 0.43087 0.14035 0.96594 0.0
O1436 O 0.43491 0.17171 0.96294 0.0
C1437 C 0.46761 0.14072 0.95398 0.0
O1438 O 0.47791 0.14263 0.96506 0.0
N1439 N 0.45675 0.17944 0.98539 0.0
C1440 C 0.46687 0.20243 0.00584 0.0
C1441 C 0.45485 0.20539 0.9952 0.0
C1442 C 0.45001 0.19376 0.985 0.0
C1443 C 0.46832 0.17637 0.99566 0.0
C1444 C 0.47309 0.18741 0.00641 0.0
H1445 H 0.44191 0.19678 0.97594 0.0
H1446 H 0.47457 0.16552 0.99489 0.0
H1447 H 0.45054 0.17415 0.9359 0.0
H1448 H 0.49039 0.2018 0.94077 0.0
H1449 H 0.43705 0.12795 0.0126 0.0
H1450 H 0.45006 0.2169 0.99379 0.0
H1451 H 0.48232 0.18443 0.01437 0.0
C1452 C 0.56222 0.73216 0.70029 0.0
C1453 C 0.55441 0.73485 0.68659 0.0
N1454 N 0.55292 0.72123 0.67907 0.0
N1455 N 0.56569 0.71695 0.70126 0.0
C1456 C 0.55984 0.71059 0.68819 0.0
H1457 H 0.56593 0.74083 0.70856 0.0
Co1458 Co 0.5792 0.70796 0.71535 0.0
C1459 C 0.56834 0.67573 0.71898 0.0
O1460 O 0.56968 0.67727 0.73409 0.0
N1461 N 0.59348 0.69878 0.7292 0.0
C1462 C 0.60981 0.69168 0.74796 0.0
C1463 C 0.59807 0.70173 0.74393 0.0
C1464 C 0.60272 0.68698 0.72464 0.0
N1465 N 0.61267 0.68239 0.73575 0.0
O1466 O 0.59419 0.7067 0.69936 0.0
H1467 H 0.59357 0.71065 0.75143 0.0
H1468 H 0.60237 0.68204 0.7131 0.0
O1469 O 0.57142 0.68717 0.71006 0.0
C1470 C 0.60317 0.71841 0.69964 0.0
O1471 O 0.60133 0.72878 0.71066 0.0
N1472 N 0.56454 0.71096 0.73098 0.0
C1473 C 0.54282 0.7223 0.75212 0.0
C1474 C 0.53893 0.7103 0.74176 0.0
C1475 C 0.54988 0.70497 0.73109 0.0
C1476 C 0.56832 0.72291 0.74058 0.0
C1477 C 0.5579 0.72835 0.75163 0.0
H1478 H 0.54623 0.69681 0.72232 0.0
H1479 H 0.57932 0.72876 0.73918 0.0
H1480 H 0.56167 0.69865 0.6848 0.0
H1481 H 0.55067 0.746 0.6822 0.0
H1482 H 0.61581 0.69132 0.75898 0.0
H1483 H 0.52722 0.70581 0.74108 0.0
H1484 H 0.56143 0.73776 0.75916 0.0
C1485 C 0.97866 0.31456 0.04254 0.0
C1486 C 0.9816 0.30726 0.05651 0.0
N1487 N 0.97015 0.31101 0.06645 0.0
N1488 N 0.9653 0.32263 0.04372 0.0
C1489 C 0.96044 0.3202 0.05837 0.0
H1490 H 0.98599 0.31432 0.03236 0.0
Co1491 Co 0.95562 0.33611 0.02993 0.0
C1492 C 0.92391 0.32372 0.02697 0.0
O1493 O 0.92506 0.32524 0.01184 0.0
N1494 N 0.94551 0.35029 0.01662 0.0
C1495 C 0.93775 0.36782 -0.00074 0.0
C1496 C 0.94808 0.35598 0.00222 0.0
C1497 C 0.93356 0.35887 0.022 0.0
N1498 N 0.92871 0.36968 0.01184 0.0
O1499 O 0.95423 0.35098 0.0462 0.0
H1500 H 0.95712 0.3524 0.99437 0.0
H1501 H 0.92862 0.35729 0.03341 0.0
O1502 O 0.93536 0.32737 0.03568 0.0
C1503 C 0.96542 0.3606 0.04609 0.0
O1504 O 0.97584 0.35957 0.03501 0.0
N1505 N 0.95871 0.32176 0.01393 0.0
C1506 C 0.97225 0.30036 0.9937 0.0
C1507 C 0.96041 0.29581 0.00396 0.0
C1508 C 0.95389 0.30666 0.01411 0.0
C1509 C 0.97006 0.32634 0.00396 0.0
C1510 C 0.97645 0.31606 0.9933 0.0
H1511 H 0.9461 0.30257 0.02301 0.0
H1512 H 0.97512 0.33774 0.00513 0.0
H1513 H 0.95006 0.3254 0.06315 0.0
H1514 H 0.99167 0.30031 0.05932 0.0
H1515 H 0.93743 0.37493 0.98893 0.0
H1516 H 0.95716 0.28374 0.0052 0.0
H1517 H 0.98554 0.3202 0.98569 0.0
C1518 C 0.4515 0.22372 0.79842 0.0
C1519 C 0.46027 0.22414 0.81181 0.0
N1520 N 0.45616 0.212 0.82077 0.0
N1521 N 0.44194 0.21134 0.79895 0.0
C1522 C 0.44509 0.20448 0.81265 0.0
H1523 H 0.45157 0.23234 0.78933 0.0
Co1524 Co 0.42535 0.20591 0.78618 0.0
C1525 C 0.42818 0.17128 0.78277 0.0
O1526 O 0.42199 0.17113 0.76884 0.0
N1527 N 0.40823 0.2005 0.77385 0.0
C1528 C 0.38966 0.19818 0.75605 0.0
C1529 C 0.40358 0.20519 0.75963 0.0
C1530 C 0.3968 0.19095 0.77871 0.0
N1531 N 0.38543 0.18923 0.76813 0.0
O1532 O 0.41215 0.20616 0.80371 0.0
H1533 H 0.40967 0.21325 0.75226 0.0
H1534 H 0.3971 0.18497 0.78973 0.0
O1535 O 0.43015 0.1841 0.78994 0.0
C1536 C 0.40716 0.21964 0.80702 0.0
O1537 O 0.41209 0.23151 0.79883 0.0
N1538 N 0.43815 0.2072 0.76883 0.0
C1539 C 0.4573 0.21624 0.74432 0.0
C1540 C 0.45822 0.20116 0.75053 0.0
C1541 C 0.44871 0.19694 0.76302 0.0
C1542 C 0.43688 0.22168 0.76276 0.0
C1543 C 0.44623 0.22643 0.75057 0.0
H1544 H 0.45041 0.18574 0.76828 0.0
H1545 H 0.42879 0.22981 0.76787 0.0
H1546 H 0.43853 0.19475 0.81709 0.0
H1547 H 0.46863 0.23298 0.81491 0.0
H1548 H 0.38311 0.19972 0.74545 0.0
H1549 H 0.46658 0.19286 0.74621 0.0
H1550 H 0.44531 0.23837 0.74681 0.0
C1551 C 0.05899 0.77223 0.2888 0.0
C1552 C 0.05198 0.76882 0.30282 0.0
N1553 N 0.05584 0.78001 0.31304 0.0
N1554 N 0.06701 0.7856 0.29025 0.0
C1555 C 0.06475 0.79005 0.30507 0.0
H1556 H 0.05879 0.7651 0.27848 0.0
Co1557 Co 0.08092 0.79538 0.27697 0.0
C1558 C 0.0692 0.82741 0.2749 0.0
O1559 O 0.07084 0.82684 0.25976 0.0
N1560 N 0.09554 0.80557 0.26419 0.0
C1561 C 0.11339 0.81348 0.24724 0.0
C1562 C 0.10127 0.80338 0.24973 0.0
C1563 C 0.10438 0.81709 0.27006 0.0
N1564 N 0.11538 0.82201 0.26015 0.0
O1565 O 0.09545 0.79597 0.29354 0.0
H1566 H 0.09754 0.79477 0.24149 0.0
H1567 H 0.10284 0.82167 0.28164 0.0
O1568 O 0.07253 0.81557 0.28317 0.0
C1569 C 0.10404 0.78399 0.29357 0.0
O1570 O 0.10251 0.7739 0.28223 0.0
N1571 N 0.06687 0.79302 0.26063 0.0
C1572 C 0.04598 0.78061 0.23919 0.0
C1573 C 0.04125 0.79208 0.24984 0.0
C1574 C 0.05187 0.79808 0.26054 0.0
C1575 C 0.07159 0.78197 0.25041 0.0
C1576 C 0.06165 0.77629 0.23907 0.0
H1577 H 0.04764 0.80563 0.2696 0.0
H1578 H 0.08285 0.77666 0.25177 0.0
H1579 H 0.0701 0.80023 0.31011 0.0
H1580 H 0.04531 0.75853 0.30552 0.0
H1581 H 0.1206 0.81397 0.23697 0.0
H1582 H 0.02919 0.79541 0.2509 0.0
H1583 H 0.06601 0.76758 0.23115 0.0
H1584 H 0.00091 0.13951 0.0641 0.0
H1585 H 0.04033 0.07799 0.12092 0.0
H1586 H 0.05029 0.13659 0.07199 0.0
H1587 H 0.99093 0.08599 0.1193 0.0
H1588 H 0.04405 0.09842 0.10186 0.0
H1589 H 0.99691 0.11902 0.08323 0.0
C1590 C 0.01092 0.13457 0.06988 0.0
C1591 C 0.02597 0.13974 0.06645 0.0
C1592 C 0.03239 0.09575 0.10568 0.0
C1593 C 0.02145 0.11626 0.08828 0.0
C1594 C 0.03024 0.08411 0.11665 0.0
C1595 C 0.01528 0.08037 0.12189 0.0
C1596 C 0.01949 0.10369 0.09979 0.0
C1597 C 0.00264 0.08843 0.11555 0.0
C1598 C 0.00861 0.12289 0.0808 0.0
C1599 C 0.03849 0.13297 0.0743 0.0
N1600 N 0.00504 0.09975 0.10484 0.0
N1601 N 0.03595 0.12153 0.08482 0.0
H1602 H 0.15163 0.7817 0.38195 0.0
H1603 H 0.12504 0.76051 0.29565 0.0
H1604 H 0.17152 0.74457 0.35487 0.0
H1605 H 0.10695 0.79962 0.32118 0.0
H1606 H 0.1415 0.75405 0.31766 0.0
H1607 H 0.1343 0.78776 0.36039 0.0
C1608 C 0.15235 0.77481 0.37147 0.0
C1609 C 0.16316 0.76269 0.37017 0.0
C1610 C 0.13397 0.76407 0.31847 0.0
C1611 C 0.14328 0.76952 0.34548 0.0
C1612 C 0.12458 0.76779 0.30588 0.0
C1613 C 0.11463 0.78065 0.30657 0.0
C1614 C 0.13341 0.77323 0.33191 0.0
C1615 C 0.11452 0.78965 0.32013 0.0
C1616 C 0.14242 0.77826 0.35918 0.0
C1617 C 0.16333 0.75394 0.35645 0.0
N1618 N 0.12376 0.78575 0.3323 0.0
N1619 N 0.1536 0.75758 0.34461 0.0
H1620 H 0.49749 0.90429 0.63311 0.0
H1621 H 0.47688 0.89074 0.54514 0.0
H1622 H 0.47586 0.94059 0.60654 0.0
H1623 H 0.46667 0.85565 0.57929 0.0
H1624 H 0.48207 0.90928 0.56615 0.0
H1625 H 0.4923 0.88596 0.61177 0.0
C1626 C 0.49193 0.90838 0.62262 0.0
C1627 C 0.48718 0.92385 0.62133 0.0
C1628 C 0.47862 0.89753 0.56898 0.0
C1629 C 0.48128 0.90327 0.5972 0.0
C1630 C 0.47568 0.887 0.55708 0.0
C1631 C 0.47128 0.87176 0.56059 0.0
C1632 C 0.47764 0.89257 0.58443 0.0
C1633 C 0.46989 0.86739 0.57618 0.0
C1634 C 0.48883 0.89798 0.61061 0.0
C1635 C 0.47973 0.92871 0.60775 0.0
N1636 N 0.47328 0.87773 0.5876 0.0
N1637 N 0.4771 0.91845 0.59609 0.0
H1638 H 0.34048 0.2585 0.87125 0.0
H1639 H 0.39033 0.19744 0.8222 0.0
H1640 H 0.32924 0.20985 0.86729 0.0
H1641 H 0.39657 0.24702 0.81882 0.0
H1642 H 0.36927 0.20168 0.84066 0.0
H1643 H 0.36216 0.25455 0.85335 0.0
C1644 C 0.3425 0.24703 0.86657 0.0
C1645 C 0.3331 0.23448 0.8709 0.0
C1646 C 0.37527 0.21164 0.83591 0.0
C1647 C 0.35796 0.22982 0.85063 0.0
C1648 C 0.38735 0.20921 0.82544 0.0
C1649 C 0.39517 0.2219 0.81896 0.0
C1650 C 0.37105 0.22685 0.83997 0.0
C1651 C 0.39078 0.23691 0.82351 0.0
C1652 C 0.35493 0.24476 0.85643 0.0
C1653 C 0.33636 0.21981 0.86458 0.0
N1654 N 0.379 0.23898 0.83373 0.0
N1655 N 0.34853 0.21789 0.85481 0.0
H1656 H 0.99451 0.92753 0.39037 0.0
H1657 H 0.0439 0.854 0.41703 0.0
H1658 H 0.03006 0.90643 0.36208 0.0
H1659 H 0.00077 0.86724 0.43877 0.0
H1660 H 0.03982 0.87414 0.39747 0.0
H1661 H 0.9971 0.90619 0.40887 0.0
C1662 C 0.00276 0.91839 0.38797 0.0
C1663 C 0.01222 0.91892 0.37473 0.0
C1664 C 0.03122 0.87258 0.40649 0.0
C1665 C 0.0154 0.89462 0.39594 0.0
C1666 C 0.03357 0.86112 0.41767 0.0
C1667 C 0.02266 0.85897 0.42953 0.0
C1668 C 0.01796 0.88202 0.40729 0.0
C1669 C 0.00946 0.8685 0.4298 0.0
C1670 C 0.00429 0.90624 0.39856 0.0
C1671 C 0.02281 0.90677 0.3723 0.0
N1672 N 0.00752 0.87968 0.41889 0.0
N1673 N 0.02418 0.89519 0.38285 0.0
H1674 H 0.34026 0.78618 0.61344 0.0
H1675 H 0.36731 0.76008 0.698 0.0
H1676 H 0.31539 0.75237 0.64072 0.0
H1677 H 0.38661 0.79922 0.67346 0.0
H1678 H 0.34898 0.75612 0.67678 0.0
H1679 H 0.35824 0.78994 0.63482 0.0
C1680 C 0.33849 0.7796 0.62398 0.0
C1681 C 0.32612 0.76909 0.62537 0.0
C1682 C 0.35718 0.7656 0.67606 0.0
C1683 C 0.34692 0.7732 0.64989 0.0
C1684 C 0.36766 0.76788 0.68817 0.0
C1685 C 0.37851 0.78 0.68748 0.0
C1686 C 0.35763 0.77545 0.66313 0.0
C1687 C 0.37842 0.78976 0.67448 0.0
C1688 C 0.34884 0.78172 0.63618 0.0
C1689 C 0.32477 0.76055 0.63914 0.0
N1690 N 0.36817 0.78723 0.66278 0.0
N1691 N 0.33503 0.76283 0.65092 0.0
H1692 H 0.46472 0.08706 0.86959 0.0
H1693 H 0.49005 0.11841 0.953 0.0
H1694 H 0.49824 0.06378 0.89858 0.0
H1695 H 0.45099 0.13632 0.92728 0.0
H1696 H 0.49446 0.09936 0.93251 0.0
H1697 H 0.4609 0.10633 0.88987 0.0
C1698 C 0.47122 0.08593 0.88027 0.0
C1699 C 0.48167 0.07364 0.88247 0.0
C1700 C 0.48491 0.10743 0.93136 0.0
C1701 C 0.4775 0.09586 0.90569 0.0
C1702 C 0.48238 0.11832 0.94305 0.0
C1703 C 0.47011 0.12894 0.94184 0.0
C1704 C 0.47516 0.10723 0.91834 0.0
C1705 C 0.46055 0.1283 0.92871 0.0
C1706 C 0.46907 0.097 0.89182 0.0
C1707 C 0.49011 0.07308 0.89637 0.0
N1708 N 0.4633 0.11764 0.91744 0.0
N1709 N 0.4878 0.08402 0.90749 0.0
H1710 H 0.11764 0.19637 0.18094 0.0
H1711 H 0.17043 0.25646 0.13381 0.0
H1712 H 0.12106 0.24506 0.1922 0.0
H1713 H 0.17432 0.20671 0.12924 0.0
H1714 H 0.15105 0.25269 0.15413 0.0
H1715 H 0.13706 0.2001 0.16053 0.0
C1716 C 0.12246 0.20783 0.17911 0.0
C1717 C 0.11776 0.22041 0.18829 0.0
C1718 C 0.15617 0.24261 0.14864 0.0
C1719 C 0.13988 0.22478 0.165 0.0
C1720 C 0.16729 0.24476 0.13708 0.0
C1721 C 0.17402 0.23191 0.12968 0.0
C1722 C 0.15168 0.22751 0.15282 0.0
C1723 C 0.1693 0.217 0.13433 0.0
C1724 C 0.13356 0.20995 0.1675 0.0
C1725 C 0.12438 0.23501 0.18544 0.0
N1726 N 0.15841 0.21522 0.14556 0.0
N1727 N 0.13507 0.2368 0.17403 0.0
H1728 H 0.11532 0.99238 0.08254 0.0
H1729 H 0.0688 0.05353 0.13465 0.0
H1730 H 0.11945 0.04206 0.07763 0.0
H1731 H 0.05832 0.00456 0.13348 0.0
H1732 H 0.08889 0.04934 0.11508 0.0
H1733 H 0.09555 0.99639 0.10248 0.0
C1734 C 0.11206 0.00411 0.0856 0.0
C1735 C 0.11915 0.01688 0.07844 0.0
C1736 C 0.08218 0.03951 0.1191 0.0
C1737 C 0.09669 0.02156 0.10133 0.0
C1738 C 0.07075 0.0419 0.13029 0.0
C1739 C 0.06187 0.02938 0.13565 0.0
C1740 C 0.08479 0.02449 0.11333 0.0
C1741 C 0.06486 0.01456 0.12962 0.0
C1742 C 0.10083 0.0064 0.09703 0.0
C1743 C 0.11458 0.03185 0.08302 0.0
N1744 N 0.07609 0.01252 0.11878 0.0
N1745 N 0.10366 0.03376 0.09417 0.0
H1746 H 0.25075 0.85289 0.3178 0.0
H1747 H 0.19842 0.82206 0.38804 0.0
H1748 H 0.2188 0.88167 0.34344 0.0
H1749 H 0.23418 0.79477 0.36601 0.0
H1750 H 0.2049 0.84372 0.37093 0.0
H1751 H 0.24457 0.83125 0.33504 0.0
C1752 C 0.24257 0.85471 0.32714 0.0
C1753 C 0.23519 0.86907 0.3291 0.0
C1754 C 0.2113 0.83298 0.36982 0.0
C1755 C 0.22786 0.84433 0.34869 0.0
C1756 C 0.20755 0.82059 0.37953 0.0
C1757 C 0.21579 0.80662 0.37845 0.0
C1758 C 0.22334 0.83134 0.35896 0.0
C1759 C 0.22755 0.80536 0.36726 0.0
C1760 C 0.23894 0.84232 0.33691 0.0
C1761 C 0.22453 0.87071 0.34131 0.0
N1762 N 0.23099 0.81757 0.35796 0.0
N1763 N 0.22114 0.85848 0.35059 0.0
H1764 H 0.37991 0.95785 0.5756 0.0
H1765 H 0.44039 0.99653 0.63397 0.0
H1766 H 0.38319 0.00729 0.58303 0.0
H1767 H 0.43021 0.94749 0.63333 0.0
H1768 H 0.42078 0.00061 0.61401 0.0
H1769 H 0.39955 0.95382 0.59543 0.0
C1770 C 0.38463 0.96789 0.58147 0.0
C1771 C 0.37971 0.98297 0.57772 0.0
C1772 C 0.42281 0.98896 0.61824 0.0
C1773 C 0.40251 0.97836 0.60031 0.0
C1774 C 0.43403 0.9866 0.62962 0.0
C1775 C 0.43693 0.97164 0.63531 0.0
C1776 C 0.41448 0.97625 0.61243 0.0
C1777 C 0.42832 0.95923 0.62928 0.0
C1778 C 0.39594 0.96555 0.59276 0.0
C1779 C 0.38666 0.99549 0.58546 0.0
N1780 N 0.41749 0.96181 0.61811 0.0
N1781 N 0.39771 0.9929 0.5964 0.0
H1782 H 0.26006 0.11705 0.84393 0.0
H1783 H 0.27247 0.20696 0.85797 0.0
H1784 H 0.26473 0.14869 0.80552 0.0
H1785 H 0.28959 0.17211 0.88954 0.0
H1786 H 0.26619 0.1865 0.83923 0.0
H1787 H 0.26676 0.13801 0.86178 0.0
C1788 C 0.26216 0.12853 0.8393 0.0
C1789 C 0.26161 0.13128 0.82327 0.0
C1790 C 0.27144 0.18339 0.85021 0.0
C1791 C 0.26956 0.15518 0.84357 0.0
C1792 C 0.275 0.195 0.86089 0.0
C1793 C 0.28154 0.19116 0.87529 0.0
C1794 C 0.27413 0.16785 0.85413 0.0
C1795 C 0.28463 0.17554 0.87852 0.0
C1796 C 0.26621 0.1404 0.84945 0.0
C1797 C 0.26492 0.14623 0.81783 0.0
N1798 N 0.28072 0.1644 0.86808 0.0
N1799 N 0.26868 0.15771 0.82799 0.0
H1800 H 0.12073 0.94999 0.42499 0.0
H1801 H 0.05923 0.99368 0.37152 0.0
H1802 H 0.11677 -0.00013 0.42267 0.0
H1803 H 0.06985 0.94495 0.36693 0.0
H1804 H 0.079 0.99588 0.39159 0.0
H1805 H 0.10096 0.94771 0.40499 0.0
C1806 C 0.11584 0.96049 0.4202 0.0
C1807 C 0.12059 0.97519 0.42545 0.0
C1808 C 0.07703 0.98471 0.38619 0.0
C1809 C 0.09764 0.97258 0.40269 0.0
C1810 C 0.06572 0.98342 0.37475 0.0
C1811 C 0.0629 0.96909 0.36755 0.0
C1812 C 0.08555 0.97156 0.39056 0.0
C1813 C 0.07168 0.95621 0.37218 0.0
C1814 C 0.10445 0.95915 0.40882 0.0
C1815 C 0.11342 0.98833 0.41907 0.0
N1816 N 0.08261 0.95775 0.38344 0.0
N1817 N 0.10231 0.98671 0.40802 0.0
H1818 H 0.30174 0.82308 0.6113 0.0
H1819 H 0.24015 0.86908 0.66325 0.0
H1820 H 0.25254 0.81383 0.61008 0.0
H1821 H 0.28964 0.87054 0.67081 0.0
H1822 H 0.24423 0.84986 0.64275 0.0
H1823 H 0.29734 0.84207 0.6319 0.0
C1824 C 0.29001 0.8251 0.61532 0.0
C1825 C 0.27749 0.81687 0.609 0.0
C1826 C 0.25417 0.85442 0.64893 0.0
C1827 C 0.27236 0.83852 0.63254 0.0
C1828 C 0.25184 0.86532 0.66068 0.0
C1829 C 0.26456 0.87158 0.66869 0.0
C1830 C 0.26933 0.84979 0.64513 0.0
C1831 C 0.27949 0.86636 0.66474 0.0
C1832 C 0.28751 0.83588 0.62712 0.0
C1833 C 0.26253 0.81989 0.61468 0.0
N1834 N 0.28145 0.85583 0.65322 0.0
N1835 N 0.26038 0.8305 0.62612 0.0
H1836 H 0.43538 0.99895 0.87004 0.0
H1837 H 0.37949 0.04211 0.92994 0.0
H1838 H 0.42883 0.04859 0.87097 0.0
H1839 H 0.37776 0.99277 0.92156 0.0
H1840 H 0.39981 0.04447 0.91046 0.0
H1841 H 0.4163 0.99631 0.8908 0.0
C1842 C 0.42992 0.0093 0.87461 0.0
C1843 C 0.43366 0.02402 0.86875 0.0
C1844 C 0.395 0.03312 0.9129 0.0
C1845 C 0.41191 0.02106 0.89257 0.0
C1846 C 0.38336 0.03176 0.92399 0.0
C1847 C 0.37671 0.01724 0.92723 0.0
C1848 C 0.40016 0.01986 0.90502 0.0
C1849 C 0.38255 0.00417 0.91948 0.0
C1850 C 0.41903 0.00777 0.88645 0.0
C1851 C 0.42622 0.03702 0.8751 0.0
N1852 N 0.3939 0.0058 0.90866 0.0
N1853 N 0.41572 0.03524 0.88671 0.0
H1854 H 0.25312 0.13939 0.17961 0.0
H1855 H 0.20311 0.17188 0.10868 0.0
H1856 H 0.21793 0.1127 0.15596 0.0
H1857 H 0.24356 0.19512 0.12695 0.0
H1858 H 0.20762 0.15053 0.12676 0.0
H1859 H 0.24945 0.16025 0.16083 0.0
C1860 C 0.24474 0.13784 0.1704 0.0
C1861 C 0.23573 0.12432 0.16946 0.0
C1862 C 0.21551 0.1603 0.1268 0.0
C1863 C 0.23129 0.14824 0.14808 0.0
C1864 C 0.2129 0.17252 0.11654 0.0
C1865 C 0.22297 0.18528 0.11635 0.0
C1866 C 0.22823 0.16092 0.13697 0.0
C1867 C 0.23552 0.18548 0.12671 0.0
C1868 C 0.24257 0.1498 0.15973 0.0
C1869 C 0.2249 0.12304 0.15735 0.0
N1870 N 0.23778 0.17348 0.13663 0.0
N1871 N 0.22293 0.13488 0.14719 0.0
H1872 H 0.1189 0.05152 0.00958 0.0
H1873 H 0.08899 0.13533 0.03488 0.0
H1874 H 0.13741 0.07701 0.04853 0.0
H1875 H 0.06492 0.10677 0.00152 0.0
H1876 H 0.10774 0.11468 0.0388 0.0
H1877 H 0.09989 0.07206 0.00546 0.0
C1878 C 0.11895 0.06144 0.0173 0.0
C1879 C 0.12978 0.06258 0.02942 0.0
C1880 C 0.09834 0.11287 0.03065 0.0
C1881 C 0.10807 0.08617 0.02468 0.0
C1882 C 0.08755 0.12465 0.02845 0.0
C1883 C 0.07516 0.12268 0.01804 0.0
C1884 C 0.09688 0.09899 0.02231 0.0
C1885 C 0.07427 0.10877 0.00964 0.0
C1886 C 0.10807 0.07314 0.01493 0.0
C1887 C 0.12926 0.07565 0.03907 0.0
N1888 N 0.08497 0.09741 0.012 0.0
N1889 N 0.11861 0.08698 0.03645 0.0
H1890 H 0.64356 0.41681 0.9525 0.0
H1891 H 0.57376 0.38894 0.00634 0.0
H1892 H 0.63156 0.43932 0.99561 0.0
H1893 H 0.59336 0.36079 0.96984 0.0
H1894 H 0.59462 0.40777 0.00254 0.0
H1895 H 0.62458 0.39651 0.95821 0.0
C1896 C 0.63695 0.41746 0.96316 0.0
C1897 C 0.63909 0.42977 0.97357 0.0
C1898 C 0.59438 0.39742 0.99543 0.0
C1899 C 0.6174 0.40667 0.98016 0.0
C1900 C 0.58252 0.38663 0.99766 0.0
C1901 C 0.58166 0.37338 0.98825 0.0
C1902 C 0.60538 0.39496 0.98366 0.0
C1903 C 0.5933 0.37104 0.97709 0.0
C1904 C 0.62617 0.40586 0.96645 0.0
C1905 C 0.63027 0.43004 0.98725 0.0
N1906 N 0.6046 0.38178 0.97502 0.0
N1907 N 0.61974 0.4187 0.99011 0.0
H1908 H 0.79821 0.36505 0.2399 0.0
H1909 H 0.881 0.33482 0.21156 0.0
H1910 H 0.82319 0.38433 0.20103 0.0
H1911 H 0.85355 0.31068 0.24575 0.0
H1912 H 0.86035 0.3537 0.20855 0.0
H1913 H 0.81864 0.34566 0.24307 0.0
C1914 C 0.80798 0.36518 0.232 0.0
C1915 C 0.80901 0.37633 0.22017 0.0
C1916 C 0.85877 0.34426 0.21668 0.0
C1917 C 0.83244 0.35423 0.22381 0.0
C1918 C 0.87055 0.33338 0.21835 0.0
C1919 C 0.86891 0.32095 0.22876 0.0
C1920 C 0.84521 0.34285 0.22554 0.0
C1921 C 0.8553 0.32007 0.23762 0.0
C1922 C 0.81962 0.3541 0.23382 0.0
C1923 C 0.8219 0.37594 0.21027 0.0
N1924 N 0.84392 0.33086 0.23578 0.0
N1925 N 0.83314 0.36509 0.21235 0.0
H1926 H 0.87013 0.54751 0.48775 0.0
H1927 H 0.90176 0.63179 0.46602 0.0
H1928 H 0.85644 0.57234 0.44648 0.0
H1929 H 0.92125 0.60366 0.50255 0.0
H1930 H 0.88386 0.61083 0.45975 0.0
H1931 H 0.88795 0.56852 0.4942 0.0
C1932 C 0.87092 0.55736 0.48 0.0
C1933 C 0.86179 0.55819 0.46656 0.0
C1934 C 0.89205 0.60924 0.46914 0.0
C1935 C 0.88207 0.58235 0.47395 0.0
C1936 C 0.90232 0.62119 0.47271 0.0
C1937 C 0.91316 0.61943 0.48474 0.0
C1938 C 0.89254 0.59542 0.47771 0.0
C1939 C 0.91304 0.60557 0.49326 0.0
C1940 C 0.88109 0.56936 0.48371 0.0
C1941 C 0.8633 0.57122 0.45694 0.0
N1942 N 0.90293 0.59407 0.48954 0.0
N1943 N 0.87321 0.58283 0.46087 0.0
H1944 H 0.14493 0.17787 0.25262 0.0
H1945 H 0.17345 0.10734 0.19935 0.0
H1946 H 0.11654 0.15671 0.21719 0.0
H1947 H 0.19871 0.12426 0.23917 0.0
H1948 H 0.15295 0.12624 0.2048 0.0
H1949 H 0.16513 0.15874 0.24737 0.0
C1950 C 0.14287 0.16913 0.24384 0.0
C1951 C 0.12905 0.16899 0.23526 0.0
C1952 C 0.163 0.1258 0.21232 0.0
C1953 C 0.15222 0.1472 0.22901 0.0
C1954 C 0.17472 0.11508 0.20917 0.0
C1955 C 0.18777 0.11422 0.21883 0.0
C1956 C 0.16443 0.13576 0.22517 0.0
C1957 C 0.18882 0.12448 0.23144 0.0
C1958 C 0.15445 0.15827 0.24077 0.0
C1959 C 0.12712 0.15748 0.22388 0.0
N1960 N 0.1773 0.13482 0.23424 0.0
N1961 N 0.1386 0.14708 0.22104 0.0
H1962 H 0.42069 0.88423 0.49044 0.0
H1963 H 0.3677 0.93067 0.55082 0.0
H1964 H 0.42601 0.88138 0.54017 0.0
H1965 H 0.36988 0.94179 0.50204 0.0
H1966 H 0.38767 0.91092 0.54684 0.0
H1967 H 0.40081 0.90417 0.49413 0.0
C1968 C 0.41774 0.88781 0.5021 0.0
C1969 C 0.42493 0.88096 0.51499 0.0
C1970 C 0.38378 0.9177 0.53701 0.0
C1971 C 0.40212 0.90359 0.51932 0.0
C1972 C 0.37235 0.92892 0.53928 0.0
C1973 C 0.36716 0.93788 0.52675 0.0
C1974 C 0.38994 0.91535 0.5221 0.0
C1975 C 0.37361 0.93518 0.51204 0.0
C1976 C 0.40636 0.89914 0.50421 0.0
C1977 C 0.42055 0.886 0.52987 0.0
N1978 N 0.38464 0.92412 0.51011 0.0
N1979 N 0.4094 0.89694 0.53161 0.0
H1980 H 0.82838 0.61131 0.29263 0.0
H1981 H 0.86004 0.68752 0.25021 0.0
H1982 H 0.80712 0.63054 0.25156 0.0
H1983 H 0.88541 0.66234 0.28528 0.0
H1984 H 0.83968 0.66772 0.25128 0.0
H1985 H 0.84849 0.63119 0.29115 0.0
C1986 C 0.82794 0.61973 0.28331 0.0
C1987 C 0.81609 0.61926 0.27218 0.0
C1988 C 0.84972 0.66658 0.25874 0.0
C1989 C 0.83904 0.64204 0.27042 0.0
C1990 C 0.86136 0.67784 0.25809 0.0
C1991 C 0.87439 0.67671 0.26778 0.0
C1992 C 0.85114 0.65414 0.26918 0.0
C1993 C 0.87544 0.66395 0.27786 0.0
C1994 C 0.83944 0.63105 0.28244 0.0
C1995 C 0.81608 0.63045 0.26035 0.0
N1996 N 0.86396 0.65322 0.27831 0.0
N1997 N 0.82738 0.64142 0.25979 0.0
H1998 H 0.62874 0.32235 0.74176 0.0
H1999 H 0.67445 0.37832 0.79989 0.0
H2000 H 0.62505 0.31951 0.79162 0.0
H2001 H 0.68551 0.37431 0.75121 0.0
H2002 H 0.65541 0.35748 0.7969 0.0
H2003 H 0.64915 0.34183 0.74477 0.0
C2004 C 0.6323 0.32569 0.75332 0.0
C2005 C 0.62501 0.3194 0.76643 0.0
C2006 C 0.66204 0.36114 0.78689 0.0
C2007 C 0.64817 0.34184 0.76997 0.0
C2008 C 0.67285 0.37307 0.78858 0.0
C2009 C 0.68154 0.37806 0.77578 0.0
C2010 C 0.65982 0.35426 0.77227 0.0
C2011 C 0.67907 0.37081 0.7614 0.0
C2012 C 0.64389 0.33688 0.75504 0.0
C2013 C 0.63003 0.3243 0.78116 0.0
N2014 N 0.66839 0.35932 0.76002 0.0
N2015 N 0.64122 0.33528 0.78252 0.0
H2016 H 0.49803 0.56937 0.60728 0.0
H2017 H 0.54895 0.64094 0.57738 0.0
H2018 H 0.53262 0.59239 0.63526 0.0
H2019 H 0.50968 0.6224 0.5524 0.0
H2020 H 0.54388 0.62248 0.59833 0.0
H2021 H 0.50243 0.58839 0.58678 0.0
C2022 C 0.50644 0.57849 0.60919 0.0
C2023 C 0.51506 0.57918 0.62297 0.0
C2024 C 0.53638 0.62247 0.58826 0.0
C2025 C 0.52035 0.60085 0.59947 0.0
C2026 C 0.53931 0.63295 0.57628 0.0
C2027 C 0.52972 0.63319 0.56315 0.0
C2028 C 0.52382 0.61214 0.58703 0.0
C2029 C 0.51736 0.62263 0.56233 0.0
C2030 C 0.50903 0.5893 0.59744 0.0
C2031 C 0.52594 0.5912 0.62471 0.0
N2032 N 0.51477 0.61252 0.5741 0.0
N2033 N 0.52832 0.6015 0.61307 0.0
H2034 H 0.60687 0.29963 0.82032 0.0
H2035 H 0.65617 0.23825 0.86955 0.0
H2036 H 0.60241 0.25001 0.81506 0.0
H2037 H 0.66499 0.28756 0.86938 0.0
H2038 H 0.63534 0.24228 0.85071 0.0
H2039 H 0.62692 0.29543 0.8399 0.0
C2040 C 0.61004 0.28786 0.82335 0.0
C2041 C 0.603 0.27515 0.81604 0.0
C2042 C 0.64184 0.25221 0.85484 0.0
C2043 C 0.62594 0.27025 0.83835 0.0
C2044 C 0.65378 0.2499 0.86553 0.0
C2045 C 0.6623 0.26258 0.87115 0.0
C2046 C 0.63841 0.2673 0.84976 0.0
C2047 C 0.65857 0.27745 0.86565 0.0
C2048 C 0.62153 0.28546 0.83448 0.0
C2049 C 0.60759 0.26014 0.82037 0.0
N2050 N 0.6469 0.2794 0.85529 0.0
N2051 N 0.61879 0.25811 0.83124 0.0
H2052 H 0.9485 0.36367 0.07282 0.0
H2053 H 0.99653 0.43721 0.10346 0.0
H2054 H 0.98657 0.38412 0.04753 0.0
H2055 H 0.96298 0.41214 0.13087 0.0
H2056 H 0.99244 0.41867 0.08226 0.0
H2057 H 0.95261 0.38254 0.09359 0.0
C2058 C 0.95766 0.37218 0.0716 0.0
C2059 C 0.96722 0.37231 0.05845 0.0
C2060 C 0.98597 0.41728 0.09293 0.0
C2061 C 0.97205 0.3939 0.08217 0.0
C2062 C 0.98836 0.42781 0.10504 0.0
C2063 C 0.97995 0.42637 0.11889 0.0
C2064 C 0.9751 0.40524 0.09472 0.0
C2065 C 0.96944 0.41398 0.12029 0.0
C2066 C 0.96006 0.38292 0.08348 0.0
C2067 C 0.97896 0.38357 0.0575 0.0
N2068 N 0.96729 0.40396 0.10836 0.0
N2069 N 0.98105 0.39391 0.0692 0.0
H2070 H 0.83292 0.75666 0.3705 0.0
H2071 H 0.88805 0.69814 0.3241 0.0
H2072 H 0.82676 0.70696 0.3698 0.0
H2073 H 0.88913 0.74781 0.31774 0.0
H2074 H 0.8668 0.70131 0.34257 0.0
H2075 H 0.85454 0.75385 0.35233 0.0
C2076 C 0.83604 0.74518 0.36649 0.0
C2077 C 0.82808 0.73203 0.3718 0.0
C2078 C 0.8717 0.71152 0.33714 0.0
C2079 C 0.85288 0.7287 0.35121 0.0
C2080 C 0.88387 0.70972 0.32665 0.0
C2081 C 0.89032 0.72273 0.31936 0.0
C2082 C 0.86601 0.72644 0.34041 0.0
C2083 C 0.88444 0.73746 0.32306 0.0
C2084 C 0.84844 0.74357 0.35618 0.0
C2085 C 0.83275 0.71741 0.36632 0.0
N2086 N 0.8726 0.73892 0.33334 0.0
N2087 N 0.84485 0.71615 0.35637 0.0
H2088 H 0.51134 0.39973 0.86528 0.0
H2089 H 0.5219 0.38998 0.95602 0.0
H2090 H 0.51359 0.4395 0.89552 0.0
H2091 H 0.54004 0.35708 0.92292 0.0
H2092 H 0.51596 0.40776 0.93466 0.0
H2093 H 0.51823 0.38302 0.88707 0.0
C2094 C 0.51297 0.40489 0.87662 0.0
C2095 C 0.51167 0.42097 0.87873 0.0
C2096 C 0.52138 0.39671 0.93212 0.0
C2097 C 0.51985 0.40198 0.90359 0.0
C2098 C 0.52476 0.38658 0.94426 0.0
C2099 C 0.53145 0.37207 0.94118 0.0
C2100 C 0.5244 0.39212 0.91682 0.0
C2101 C 0.53496 0.36821 0.92578 0.0
C2102 C 0.51713 0.39539 0.88897 0.0
C2103 C 0.51438 0.42713 0.89354 0.0
N2104 N 0.5312 0.37811 0.91413 0.0
N2105 N 0.51827 0.4176 0.90549 0.0
H2106 H 0.87703 0.25138 0.18998 0.0
H2107 H 0.84218 0.28179 0.1098 0.0
H2108 H 0.89152 0.29388 0.16782 0.0
H2109 H 0.82032 0.24614 0.13734 0.0
H2110 H 0.86216 0.28448 0.12956 0.0
H2111 H 0.85795 0.24746 0.1694 0.0
C2112 C 0.87622 0.25987 0.18076 0.0
C2113 C 0.88584 0.273 0.18062 0.0
C2114 C 0.85299 0.27606 0.13128 0.0
C2115 C 0.8641 0.26854 0.15704 0.0
C2116 C 0.84151 0.27456 0.12003 0.0
C2117 C 0.82938 0.26387 0.122 0.0
C2118 C 0.85244 0.26673 0.14459 0.0
C2119 C 0.82945 0.25449 0.13531 0.0
C2120 C 0.86531 0.25763 0.16905 0.0
C2121 C 0.88429 0.28363 0.16841 0.0
N2122 N 0.84078 0.25618 0.14613 0.0
N2123 N 0.87362 0.28115 0.15709 0.0
H2124 H 0.99111 0.62666 0.44693 0.0
H2125 H 0.95589 0.57713 0.37742 0.0
H2126 H 0.94391 0.63159 0.43093 0.0
H2127 H 0.00513 0.58129 0.38577 0.0
H2128 H 0.95106 0.59573 0.39797 0.0
H2129 H 0.99612 0.60854 0.42579 0.0
C2130 C 0.98177 0.62389 0.43899 0.0
C2131 C 0.96704 0.63061 0.44069 0.0
C2132 C 0.96293 0.59264 0.39525 0.0
C2133 C 0.97275 0.60987 0.41648 0.0
C2134 C 0.96575 0.58205 0.38339 0.0
C2135 C 0.98101 0.57767 0.37966 0.0
C2136 C 0.97542 0.59883 0.40362 0.0
C2137 C 0.9932 0.5842 0.38827 0.0
C2138 C 0.98468 0.6136 0.42688 0.0
C2139 C 0.95542 0.62667 0.43002 0.0
N2140 N 0.99013 0.59444 0.39988 0.0
N2141 N 0.95851 0.6165 0.41837 0.0
H2142 H 0.62551 0.74075 0.69887 0.0
H2143 H 0.65686 0.71651 0.61516 0.0
H2144 H 0.60767 0.70182 0.67285 0.0
H2145 H 0.67941 0.75043 0.64431 0.0
H2146 H 0.63764 0.71221 0.63541 0.0
H2147 H 0.64438 0.74549 0.67836 0.0
C2148 C 0.62559 0.73316 0.68885 0.0
C2149 C 0.61501 0.72086 0.68755 0.0
C2150 C 0.64679 0.7206 0.63739 0.0
C2151 C 0.63653 0.72631 0.66399 0.0
C2152 C 0.65781 0.72303 0.62585 0.0
C2153 C 0.6699 0.73372 0.62812 0.0
C2154 C 0.64778 0.72897 0.65131 0.0
C2155 C 0.67027 0.74214 0.64204 0.0
C2156 C 0.63637 0.73589 0.67714 0.0
C2157 C 0.61565 0.7114 0.67433 0.0
N2158 N 0.6594 0.73953 0.65315 0.0
N2159 N 0.62622 0.71436 0.66302 0.0
H2160 H 0.57648 0.54906 0.64065 0.0
H2161 H 0.607 0.50018 0.56781 0.0
H2162 H 0.55172 0.51013 0.62113 0.0
H2163 H 0.63478 0.53382 0.59242 0.0
H2164 H 0.58612 0.50424 0.58659 0.0
H2165 H 0.59738 0.54467 0.62197 0.0
C2166 C 0.57541 0.53965 0.63239 0.0
C2167 C 0.56237 0.52993 0.63245 0.0
C2168 C 0.59681 0.51071 0.58787 0.0
C2169 C 0.5862 0.5248 0.61112 0.0
C2170 C 0.60876 0.50832 0.5772 0.0
C2171 C 0.62261 0.51677 0.57843 0.0
C2172 C 0.59873 0.52165 0.59981 0.0
C2173 C 0.62419 0.5273 0.59079 0.0
C2174 C 0.58736 0.5371 0.62178 0.0
C2175 C 0.56159 0.51788 0.62153 0.0
N2176 N 0.61238 0.52947 0.60095 0.0
N2177 N 0.57334 0.51566 0.61129 0.0
H2178 H 0.69577 0.32232 0.88735 0.0
H2179 H 0.74546 0.35188 0.81474 0.0
H2180 H 0.7338 0.29654 0.86741 0.0
H2181 H 0.71174 0.3801 0.83869 0.0
H2182 H 0.7411 0.33123 0.83365 0.0
H2183 H 0.70073 0.34326 0.86887 0.0
C2184 C 0.7051 0.32104 0.87904 0.0
C2185 C 0.71439 0.30769 0.87891 0.0
C2186 C 0.73468 0.34196 0.83478 0.0
C2187 C 0.72018 0.33157 0.85783 0.0
C2188 C 0.73725 0.35379 0.82404 0.0
C2189 C 0.72885 0.36768 0.82504 0.0
C2190 C 0.72362 0.34405 0.84657 0.0
C2191 C 0.71823 0.36946 0.83727 0.0
C2192 C 0.70798 0.33301 0.86855 0.0
C2193 C 0.72637 0.30665 0.86794 0.0
N2194 N 0.71587 0.35776 0.8475 0.0
N2195 N 0.72892 0.31843 0.85783 0.0
H2196 H 0.87598 0.51083 0.08931 0.0
H2197 H 0.92596 0.44909 0.13728 0.0
H2198 H 0.87523 0.46146 0.08081 0.0
H2199 H 0.9328 0.4986 0.1407 0.0
H2200 H 0.90576 0.45351 0.11793 0.0
H2201 H 0.89563 0.50672 0.10936 0.0
C2202 C 0.87996 0.49915 0.09161 0.0
C2203 C 0.87385 0.48648 0.08341 0.0
C2204 C 0.91167 0.46342 0.12292 0.0
C2205 C 0.89617 0.48167 0.10641 0.0
C2206 C 0.92316 0.4609 0.134 0.0
C2207 C 0.93108 0.4735 0.14056 0.0
C2208 C 0.90803 0.47865 0.11842 0.0
C2209 C 0.92701 0.48855 0.13588 0.0
C2210 C 0.89112 0.4968 0.1031 0.0
C2211 C 0.87933 0.47157 0.08701 0.0
N2212 N 0.91576 0.49071 0.12508 0.0
N2213 N 0.89015 0.46959 0.09824 0.0
H2214 H 0.78463 0.6158 0.3331 0.0
H2215 H 0.75798 0.69738 0.36779 0.0
H2216 H 0.7516 0.64577 0.31038 0.0
H2217 H 0.79671 0.67114 0.38563 0.0
H2218 H 0.75441 0.67794 0.34756 0.0
H2219 H 0.78798 0.63517 0.35335 0.0
C2220 C 0.77814 0.62651 0.33229 0.0
C2221 C 0.76797 0.62925 0.31985 0.0
C2222 C 0.76371 0.67644 0.35587 0.0
C2223 C 0.77159 0.65143 0.34325 0.0
C2224 C 0.76576 0.68753 0.36744 0.0
C2225 C 0.77767 0.68586 0.37843 0.0
C2226 C 0.77357 0.66351 0.35531 0.0
C2227 C 0.78741 0.67289 0.37738 0.0
C2228 C 0.78002 0.63755 0.34393 0.0
C2229 C 0.75952 0.64315 0.31974 0.0
N2230 N 0.7851 0.66217 0.36604 0.0
N2231 N 0.76156 0.65376 0.33125 0.0
H2232 H 0.61482 0.50239 0.92549 0.0
H2233 H 0.56687 0.44507 0.87077 0.0
H2234 H 0.61777 0.45248 0.92838 0.0
H2235 H 0.55686 0.49397 0.87488 0.0
H2236 H 0.58615 0.44764 0.89143 0.0
H2237 H 0.59376 0.49969 0.90672 0.0
C2238 C 0.61097 0.49088 0.92231 0.0
C2239 C 0.61823 0.47766 0.92841 0.0
C2240 C 0.57968 0.45779 0.88785 0.0
C2241 C 0.5943 0.47447 0.90676 0.0
C2242 C 0.56872 0.45633 0.87603 0.0
C2243 C 0.5603 0.46933 0.87108 0.0
C2244 C 0.58231 0.47237 0.89466 0.0
C2245 C 0.5631 0.48364 0.87834 0.0
C2246 C 0.59899 0.48934 0.91153 0.0
C2247 C 0.61281 0.46301 0.92373 0.0
N2248 N 0.57393 0.4848 0.88971 0.0
N2249 N 0.60125 0.46182 0.91312 0.0
H2250 H 0.74592 0.35319 0.17919 0.0
H2251 H 0.79755 0.3264 0.10685 0.0
H2252 H 0.77987 0.38247 0.15691 0.0
H2253 H 0.75802 0.3006 0.12357 0.0
H2254 H 0.79212 0.34653 0.12612 0.0
H2255 H 0.75057 0.33336 0.15941 0.0
C2256 C 0.75423 0.35551 0.17008 0.0
C2257 C 0.76264 0.36943 0.16982 0.0
C2258 C 0.78464 0.33645 0.12556 0.0
C2259 C 0.7682 0.34676 0.14732 0.0
C2260 C 0.78778 0.32494 0.11462 0.0
C2261 C 0.77821 0.31183 0.11362 0.0
C2262 C 0.7719 0.33478 0.1356 0.0
C2263 C 0.76568 0.31055 0.12392 0.0
C2264 C 0.75696 0.34416 0.15884 0.0
C2265 C 0.77339 0.37177 0.15779 0.0
N2266 N 0.76289 0.32187 0.1345 0.0
N2267 N 0.77592 0.36052 0.14709 0.0
H2268 H 0.88943 0.51195 0.43581 0.0
H2269 H 0.91989 0.53984 0.35329 0.0
H2270 H 0.86136 0.5102 0.39449 0.0
H2271 H 0.95079 0.51967 0.38712 0.0
H2272 H 0.89789 0.53369 0.37022 0.0
H2273 H 0.91204 0.51881 0.41974 0.0
C2274 C 0.88814 0.51282 0.42334 0.0
C2275 C 0.87369 0.51025 0.41638 0.0
C2276 C 0.90952 0.5307 0.37394 0.0
C2277 C 0.89907 0.51854 0.39814 0.0
C2278 C 0.92205 0.53431 0.36437 0.0
C2279 C 0.93712 0.53018 0.36883 0.0
C2280 C 0.91215 0.52316 0.38814 0.0
C2281 C 0.9393 0.52294 0.38325 0.0
C2282 C 0.90094 0.51677 0.41423 0.0
C2283 C 0.87241 0.51174 0.40022 0.0
N2284 N 0.92693 0.51968 0.39244 0.0
N2285 N 0.88492 0.51593 0.39165 0.0
H2286 H 0.70113 0.67292 0.61103 0.0
H2287 H 0.75031 0.6431 0.68385 0.0
H2288 H 0.74047 0.69757 0.62984 0.0
H2289 H 0.71606 0.61526 0.66018 0.0
H2290 H 0.74645 0.66356 0.66464 0.0
H2291 H 0.70558 0.65216 0.62984 0.0
C2292 C 0.71066 0.67399 0.61915 0.0
C2293 C 0.72045 0.68697 0.61887 0.0
C2294 C 0.73981 0.65295 0.66364 0.0
C2295 C 0.72564 0.6633 0.64035 0.0
C2296 C 0.74209 0.64122 0.67456 0.0
C2297 C 0.7334 0.62748 0.67373 0.0
C2298 C 0.72875 0.65093 0.65184 0.0
C2299 C 0.72277 0.62577 0.6615 0.0
C2300 C 0.71324 0.66212 0.62984 0.0
C2301 C 0.73265 0.68775 0.62962 0.0
N2302 N 0.7207 0.63738 0.65108 0.0
N2303 N 0.73489 0.67608 0.63994 0.0
H2304 H 0.62622 0.55319 0.50921 0.0
H2305 H 0.5935 0.636 0.53464 0.0
H2306 H 0.64262 0.57808 0.54949 0.0
H2307 H 0.57199 0.60726 0.4997 0.0
H2308 H 0.61278 0.61582 0.53901 0.0
H2309 H 0.60741 0.57372 0.50447 0.0
C2310 C 0.62586 0.56299 0.51708 0.0
C2311 C 0.636 0.56394 0.52978 0.0
C2312 C 0.60384 0.61392 0.53039 0.0
C2313 C 0.61451 0.58754 0.52434 0.0
C2314 C 0.59277 0.62542 0.52792 0.0
C2315 C 0.58096 0.62326 0.51689 0.0
C2316 C 0.60319 0.60017 0.52173 0.0
C2317 C 0.5809 0.60948 0.50824 0.0
C2318 C 0.61509 0.5747 0.51436 0.0
C2319 C 0.63498 0.57688 0.53959 0.0
N2320 N 0.59182 0.59843 0.51088 0.0
N2321 N 0.62443 0.58821 0.53664 0.0
H2322 H 0.1303 0.92331 0.44757 0.0
H2323 H 0.07146 0.87855 0.50349 0.0
H2324 H 0.12875 0.93023 0.49715 0.0
H2325 H 0.06701 0.87929 0.45362 0.0
H2326 H 0.0927 0.89723 0.50154 0.0
H2327 H 0.10771 0.90621 0.4496 0.0
C2328 C 0.12526 0.92116 0.45888 0.0
C2329 C 0.13142 0.92815 0.47221 0.0
C2330 C 0.08701 0.89335 0.49103 0.0
C2331 C 0.10559 0.90872 0.47462 0.0
C2332 C 0.0748 0.88277 0.49216 0.0
C2333 C 0.06755 0.87718 0.4787 0.0
C2334 C 0.09204 0.89832 0.47634 0.0
C2335 C 0.07249 0.88298 0.46429 0.0
C2336 C 0.11232 0.91149 0.46003 0.0
C2337 C 0.12436 0.92509 0.48656 0.0
N2338 N 0.0845 0.89313 0.46348 0.0
N2339 N 0.11186 0.91557 0.4874 0.0
H2340 H 0.38274 0.84327 0.71857 0.0
H2341 H 0.29796 0.8736 0.73993 0.0
H2342 H 0.35251 0.8196 0.75068 0.0
H2343 H 0.32451 0.89067 0.70106 0.0
H2344 H 0.31864 0.85514 0.74563 0.0
H2345 H 0.36246 0.86235 0.71389 0.0
C2346 C 0.37181 0.84205 0.72462 0.0
C2347 C 0.36923 0.82966 0.73486 0.0
C2348 C 0.31993 0.8629 0.73584 0.0
C2349 C 0.34601 0.85162 0.72967 0.0
C2350 C 0.30814 0.87345 0.73257 0.0
C2351 C 0.30953 0.88367 0.71999 0.0
C2352 C 0.33326 0.86266 0.72654 0.0
C2353 C 0.32295 0.88296 0.71084 0.0
C2354 C 0.36026 0.85299 0.72196 0.0
C2355 C 0.35501 0.82896 0.74273 0.0
N2356 N 0.33434 0.87265 0.71433 0.0
N2357 N 0.34388 0.83976 0.7399 0.0
H2358 H 0.36133 0.0703 0.94866 0.0
H2359 H 0.41138 0.11774 0.01067 0.0
H2360 H 0.35671 0.06394 0.99813 0.0
H2361 H 0.42214 0.11563 0.96181 0.0
H2362 H 0.39042 0.09905 0.00646 0.0
H2363 H 0.38248 0.08856 0.95332 0.0
C2364 C 0.36471 0.07282 0.96051 0.0
C2365 C 0.35727 0.06561 0.97303 0.0
C2366 C 0.39742 0.10269 0.99669 0.0
C2367 C 0.38148 0.08641 0.97845 0.0
C2368 C 0.40943 0.11328 0.9991 0.0
C2369 C 0.41844 0.1184 0.98656 0.0
C2370 C 0.39439 0.09725 0.98162 0.0
C2371 C 0.41529 0.11232 0.97177 0.0
C2372 C 0.37684 0.08317 0.96316 0.0
C2373 C 0.36217 0.06922 0.98814 0.0
N2374 N 0.40349 0.10214 0.96971 0.0
N2375 N 0.37397 0.0794 0.99043 0.0
H2376 H 0.69602 0.62802 0.743 0.0
H2377 H 0.61223 0.65736 0.71667 0.0
H2378 H 0.67153 0.60967 0.70332 0.0
H2379 H 0.63999 0.68052 0.75134 0.0
H2380 H 0.63308 0.63869 0.71279 0.0
H2381 H 0.67495 0.64639 0.74721 0.0
C2382 C 0.68622 0.62788 0.73513 0.0
C2383 C 0.68552 0.6173 0.72278 0.0
C2384 C 0.63462 0.64785 0.72125 0.0
C2385 C 0.66131 0.63825 0.72762 0.0
C2386 C 0.62273 0.65856 0.72344 0.0
C2387 C 0.62443 0.67065 0.73424 0.0
C2388 C 0.64829 0.64916 0.72996 0.0
C2389 C 0.63814 0.67136 0.74297 0.0
C2390 C 0.67419 0.63838 0.73756 0.0
C2391 C 0.67256 0.61766 0.71296 0.0
N2392 N 0.64957 0.66079 0.7406 0.0
N2393 N 0.66092 0.62794 0.71563 0.0
H2394 H 0.91227 0.38599 0.99043 0.0
H2395 H 0.86287 0.43173 0.05435 0.0
H2396 H 0.91895 0.38062 0.03979 0.0
H2397 H 0.86428 0.44469 0.00599 0.0
H2398 H 0.88175 0.41119 0.049 0.0
H2399 H 0.89297 0.40611 0.99566 0.0
C2400 C 0.90972 0.38902 0.00234 0.0
C2401 C 0.91721 0.38148 0.01465 0.0
C2402 C 0.87793 0.41856 0.03958 0.0
C2403 C 0.89505 0.40436 0.02074 0.0
C2404 C 0.86715 0.43025 0.04263 0.0
C2405 C 0.86206 0.43994 0.03061 0.0
C2406 C 0.88352 0.41651 0.02439 0.0
C2407 C 0.86795 0.43752 0.01562 0.0
C2408 C 0.89867 0.40047 0.00533 0.0
C2409 C 0.9133 0.38581 0.02989 0.0
N2410 N 0.87835 0.42603 0.01293 0.0
N2411 N 0.90249 0.39693 0.03249 0.0
H2412 H 0.36867 0.17653 0.74462 0.0
H2413 H 0.3185 0.12314 0.80138 0.0
H2414 H 0.37159 0.17903 0.79456 0.0
H2415 H 0.31066 0.12619 0.75201 0.0
H2416 H 0.33812 0.14354 0.79919 0.0
H2417 H 0.34723 0.15822 0.74711 0.0
C2418 C 0.36473 0.17337 0.7561 0.0
C2419 C 0.37209 0.17924 0.76938 0.0
C2420 C 0.33205 0.13979 0.78885 0.0
C2421 C 0.34767 0.15808 0.77233 0.0
C2422 C 0.32089 0.12812 0.79009 0.0
C2423 C 0.31299 0.12292 0.77685 0.0
C2424 C 0.3354 0.14621 0.77424 0.0
C2425 C 0.31648 0.12983 0.76253 0.0
C2426 C 0.35253 0.16283 0.75752 0.0
C2427 C 0.36654 0.17456 0.78398 0.0
N2428 N 0.32748 0.14105 0.76159 0.0
N2429 N 0.35474 0.16419 0.78506 0.0
H2430 H 0.19322 0.88403 0.25402 0.0
H2431 H 0.12642 0.83045 0.2885 0.0
H2432 H 0.18029 0.88398 0.30241 0.0
H2433 H 0.13242 0.83858 0.23942 0.0
H2434 H 0.14699 0.8489 0.29386 0.0
H2435 H 0.17205 0.8661 0.24857 0.0
C2436 C 0.18594 0.88022 0.26352 0.0
C2437 C 0.18852 0.88547 0.27871 0.0
C2438 C 0.14376 0.84671 0.28192 0.0
C2439 C 0.16428 0.86495 0.27252 0.0
C2440 C 0.1319 0.83622 0.27881 0.0
C2441 C 0.12752 0.833 0.26344 0.0
C2442 C 0.15145 0.85398 0.26959 0.0
C2443 C 0.13546 0.84058 0.25142 0.0
C2444 C 0.17382 0.87003 0.26037 0.0
C2445 C 0.17869 0.8802 0.29054 0.0
N2446 N 0.14706 0.85071 0.25476 0.0
N2447 N 0.16701 0.87017 0.28719 0.0
H2448 H 0.16581 0.04813 0.18906 0.0
H2449 H 0.08237 0.02482 0.22256 0.0
H2450 H 0.15687 0.04408 0.23815 0.0
H2451 H 0.09066 0.04114 0.17603 0.0
H2452 H 0.11019 0.02804 0.22826 0.0
H2453 H 0.13885 0.04166 0.18385 0.0
C2454 C 0.15819 0.04592 0.19878 0.0
C2455 C 0.16363 0.04694 0.21409 0.0
C2456 C 0.10587 0.03088 0.21681 0.0
C2457 C 0.1326 0.03928 0.20816 0.0
C2458 C 0.09006 0.02899 0.21355 0.0
C2459 C 0.08421 0.0329 0.19887 0.0
C2460 C 0.11586 0.03649 0.20521 0.0
C2461 C 0.09462 0.03828 0.18759 0.0
C2462 C 0.14277 0.04215 0.19578 0.0
C2463 C 0.15323 0.04344 0.22617 0.0
N2464 N 0.1099 0.0399 0.19099 0.0
N2465 N 0.13817 0.03986 0.22295 0.0
H2466 H 0.23795 0.83876 0.43312 0.0
H2467 H 0.19235 0.89522 0.49055 0.0
H2468 H 0.19948 0.82309 0.46085 0.0
H2469 H 0.21039 0.91094 0.44669 0.0
H2470 H 0.20029 0.86864 0.48396 0.0
H2471 H 0.2333 0.86541 0.44223 0.0
C2472 C 0.22872 0.84093 0.44134 0.0
C2473 C 0.21906 0.82881 0.44628 0.0
C2474 C 0.20263 0.87796 0.47587 0.0
C2475 C 0.21377 0.85902 0.45677 0.0
C2476 C 0.19822 0.89309 0.47965 0.0
C2477 C 0.20072 0.90521 0.46911 0.0
C2478 C 0.2099 0.87504 0.46159 0.0
C2479 C 0.20819 0.90184 0.45505 0.0
C2480 C 0.226 0.85609 0.44643 0.0
C2481 C 0.2071 0.83219 0.45677 0.0
N2482 N 0.21258 0.88706 0.4517 0.0
N2483 N 0.20481 0.84699 0.46172 0.0
H2484 H 0.33877 0.95561 0.73757 0.0
H2485 H 0.40665 0.9572 0.67472 0.0
H2486 H 0.33177 0.94875 0.68846 0.0
H2487 H 0.41301 0.97481 0.72111 0.0
H2488 H 0.37921 0.95334 0.68013 0.0
H2489 H 0.36586 0.96251 0.73237 0.0
C2490 C 0.34284 0.95569 0.7257 0.0
C2491 C 0.33296 0.95136 0.71346 0.0
C2492 C 0.38655 0.9581 0.68916 0.0
C2493 C 0.36399 0.95905 0.70748 0.0
C2494 C 0.40226 0.96018 0.6861 0.0
C2495 C 0.41215 0.96618 0.69754 0.0
C2496 C 0.38059 0.96189 0.70384 0.0
C2497 C 0.40575 0.97018 0.71198 0.0
C2498 C 0.35833 0.95957 0.72276 0.0
C2499 C 0.33898 0.9516 0.69832 0.0
N2500 N 0.39037 0.96784 0.71478 0.0
N2501 N 0.35407 0.95525 0.6958 0.0
H2502 H 0.28318 0.08195 0.93758 0.0
H2503 H 0.29667 0.16958 0.95852 0.0
H2504 H 0.29735 0.09498 0.98369 0.0
H2505 H 0.25814 0.15627 0.92963 0.0
H2506 H 0.30014 0.14224 0.96598 0.0
H2507 H 0.27672 0.10923 0.93218 0.0
C2508 C 0.2848 0.09058 0.94657 0.0
C2509 C 0.29067 0.0863 0.96111 0.0
C2510 C 0.29083 0.14536 0.95813 0.0
C2511 C 0.28375 0.11735 0.95497 0.0
C2512 C 0.2889 0.16087 0.95387 0.0
C2513 C 0.27705 0.16508 0.94357 0.0
C2514 C 0.28115 0.13398 0.95165 0.0
C2515 C 0.26728 0.15344 0.93776 0.0
C2516 C 0.28109 0.10606 0.94353 0.0
C2517 C 0.29266 0.09785 0.97241 0.0
N2518 N 0.26968 0.13835 0.94169 0.0
N2519 N 0.28942 0.11292 0.96903 0.0
H2520 H 0.08921 0.98325 0.28525 0.0
H2521 H 0.16144 0.92739 0.30107 0.0
H2522 H 0.09103 0.94805 0.32084 0.0
H2523 H 0.16587 0.96882 0.27331 0.0
H2524 H 0.13465 0.93392 0.30624 0.0
H2525 H 0.11639 0.97753 0.27884 0.0
C2526 C 0.09525 0.97436 0.29173 0.0
C2527 C 0.08763 0.96604 0.30352 0.0
C2528 C 0.14145 0.94167 0.29906 0.0
C2529 C 0.11864 0.95936 0.29612 0.0
C2530 C 0.15687 0.938 0.29617 0.0
C2531 C 0.16613 0.94773 0.28696 0.0
C2532 C 0.13499 0.95516 0.29266 0.0
C2533 C 0.1592 0.961 0.28049 0.0
C2534 C 0.11074 0.97109 0.28802 0.0
C2535 C 0.0961 0.95458 0.31142 0.0
N2536 N 0.14403 0.96437 0.2835 0.0
N2537 N 0.11104 0.95159 0.30755 0.0
H2538 H 0.3083 0.83343 0.53273 0.0
H2539 H 0.28796 0.9206 0.54887 0.0
H2540 H 0.26344 0.8458 0.55088 0.0
H2541 H 0.31297 0.90801 0.5075 0.0
H2542 H 0.28104 0.89316 0.55268 0.0
H2543 H 0.31279 0.86082 0.52599 0.0
C2544 C 0.29939 0.84195 0.53516 0.0
C2545 C 0.28547 0.83747 0.54223 0.0
C2546 C 0.28789 0.89646 0.54268 0.0
C2547 C 0.2906 0.86859 0.53499 0.0
C2548 C 0.29184 0.91201 0.54055 0.0
C2549 C 0.3009 0.91644 0.52782 0.0
C2550 C 0.29348 0.88526 0.53226 0.0
C2551 C 0.30579 0.90499 0.51735 0.0
C2552 C 0.3019 0.85747 0.53129 0.0
C2553 C 0.27423 0.84884 0.54526 0.0
N2554 N 0.30222 0.88984 0.51992 0.0
N2555 N 0.27713 0.86396 0.54183 0.0
H2556 H 0.33273 0.05525 0.8064 0.0
H2557 H 0.41579 0.02464 0.77819 0.0
H2558 H 0.34482 0.05152 0.75796 0.0
H2559 H 0.40499 0.03862 0.82498 0.0
H2560 H 0.38904 0.03108 0.77048 0.0
H2561 H 0.35836 0.04583 0.81331 0.0
C2562 C 0.3408 0.05254 0.79718 0.0
C2563 C 0.33666 0.05448 0.78156 0.0
C2564 C 0.39256 0.03268 0.78243 0.0
C2565 C 0.36616 0.04338 0.78945 0.0
C2566 C 0.40776 0.02894 0.78683 0.0
C2567 C 0.41263 0.03126 0.8022 0.0
C2568 C 0.38218 0.03858 0.79354 0.0
C2569 C 0.40181 0.03692 0.81296 0.0
C2570 C 0.35545 0.04705 0.80115 0.0
C2571 C 0.34751 0.05023 0.77015 0.0
N2572 N 0.38715 0.04038 0.80843 0.0
N2573 N 0.36182 0.04496 0.77432 0.0
H2574 H 0.22614 0.16461 0.0274 0.0
H2575 H 0.19896 0.08145 0.05864 0.0
H2576 H 0.21065 0.15554 0.07407 0.0
H2577 H 0.20232 0.09184 0.00979 0.0
H2578 H 0.20718 0.10777 0.06459 0.0
H2579 H 0.22129 0.13721 0.02084 0.0
C2580 C 0.22183 0.15683 0.03626 0.0
C2581 C 0.21862 0.16236 0.05124 0.0
C2582 C 0.20616 0.10431 0.05255 0.0
C2583 C 0.21316 0.13117 0.04392 0.0
C2584 C 0.20139 0.08926 0.04913 0.0
C2585 C 0.19965 0.08444 0.03367 0.0
C2586 C 0.20932 0.11473 0.04045 0.0
C2587 C 0.20348 0.09503 0.02187 0.0
C2588 C 0.219 0.14126 0.03252 0.0
C2589 C 0.213 0.15184 0.06231 0.0
N2590 N 0.20804 0.10973 0.0255 0.0
N2591 N 0.21047 0.1368 0.05843 0.0
H2592 H 0.04966 0.24246 0.16141 0.0
H2593 H 0.04185 0.17919 0.09431 0.0
H2594 H 0.05081 0.19301 0.16905 0.0
H2595 H 0.03088 0.22739 0.08679 0.0
H2596 H 0.0455 0.1845 0.12179 0.0
H2597 H 0.04257 0.23772 0.13426 0.0
C2598 C 0.04825 0.23063 0.15746 0.0
C2599 C 0.05106 0.21811 0.16751 0.0
C2600 C 0.04225 0.19396 0.1142 0.0
C2601 C 0.04316 0.21263 0.13645 0.0
C2602 C 0.0403 0.19094 0.09846 0.0
C2603 C 0.03625 0.20292 0.08823 0.0
C2604 C 0.04029 0.20911 0.11984 0.0
C2605 C 0.034 0.21786 0.09432 0.0
C2606 C 0.04428 0.22794 0.14194 0.0
C2607 C 0.04915 0.20302 0.16168 0.0
N2608 N 0.03619 0.22058 0.10974 0.0
N2609 N 0.04545 0.20072 0.14656 0.0
H2610 H 0.51351 0.28517 0.9143 0.0
H2611 H 0.54396 0.31421 0.83152 0.0
H2612 H 0.53833 0.32796 0.90688 0.0
H2613 H 0.52966 0.26697 0.83988 0.0
H2614 H 0.53854 0.3204 0.85853 0.0
H2615 H 0.51609 0.27923 0.88654 0.0
C2616 C 0.51942 0.29333 0.90682 0.0
C2617 C 0.52583 0.30701 0.91292 0.0
C2618 C 0.53654 0.30867 0.85447 0.0
C2619 C 0.52875 0.30036 0.88124 0.0
C2620 C 0.53968 0.30511 0.83902 0.0
C2621 C 0.53752 0.28996 0.83341 0.0
C2622 C 0.53109 0.29706 0.86448 0.0
C2623 C 0.5315 0.27879 0.84365 0.0
C2624 C 0.52095 0.28991 0.89102 0.0
C2625 C 0.53346 0.31716 0.90274 0.0
N2626 N 0.52858 0.28254 0.85873 0.0
N2627 N 0.53468 0.31364 0.88743 0.0
H2628 H 0.9589 0.32939 0.08917 0.0
H2629 H 0.96117 0.26366 0.15424 0.0
H2630 H 0.97885 0.28431 0.08081 0.0
H2631 H 0.94978 0.31161 0.16305 0.0
H2632 H 0.96827 0.2706 0.12759 0.0
H2633 H 0.95561 0.32271 0.1164 0.0
C2634 C 0.96254 0.31803 0.09309 0.0
C2635 C 0.96898 0.30731 0.08269 0.0
C2636 C 0.96431 0.2796 0.13542 0.0
C2637 C 0.96533 0.29955 0.11399 0.0
C2638 C 0.96032 0.27566 0.15066 0.0
C2639 C 0.95465 0.28703 0.16088 0.0
C2640 C 0.96257 0.29499 0.13038 0.0
C2641 C 0.95372 0.30238 0.15552 0.0
C2642 C 0.96077 0.31425 0.10868 0.0
C2643 C 0.97385 0.29289 0.08848 0.0
N2644 N 0.95751 0.30586 0.14066 0.0
N2645 N 0.97178 0.28935 0.10375 0.0
H2646 H 0.94782 0.73623 0.34879 0.0
H2647 H 0.98835 0.68231 0.41147 0.0
H2648 H 0.96437 0.69067 0.3367 0.0
H2649 H 0.94792 0.70938 0.42273 0.0
H2650 H 0.98512 0.6894 0.38399 0.0
H2651 H 0.95324 0.73065 0.37623 0.0
C2652 C 0.95282 0.72515 0.35193 0.0
C2653 C 0.95572 0.71387 0.34057 0.0
C2654 C 0.97706 0.69387 0.39253 0.0
C2655 C 0.96205 0.70752 0.37169 0.0
C2656 C 0.97896 0.68995 0.40814 0.0
C2657 C 0.96839 0.69535 0.41926 0.0
C2658 C 0.96474 0.70357 0.38815 0.0
C2659 C 0.95626 0.70502 0.41442 0.0
C2660 C 0.95579 0.72195 0.36753 0.0
C2661 C 0.96198 0.6996 0.34519 0.0
N2662 N 0.95481 0.70893 0.39921 0.0
N2663 N 0.96506 0.69684 0.36042 0.0
H2664 H 0.48187 0.7836 0.58687 0.0
H2665 H 0.42595 0.80076 0.6585 0.0
H2666 H 0.4523 0.82381 0.59104 0.0
H2667 H 0.46487 0.76954 0.6629 0.0
H2668 H 0.43417 0.80703 0.63244 0.0
H2669 H 0.47497 0.77633 0.6136 0.0
C2670 C 0.474 0.79092 0.59336 0.0
C2671 C 0.46747 0.80422 0.58652 0.0
C2672 C 0.441 0.79885 0.63909 0.0
C2673 C 0.45943 0.79587 0.61692 0.0
C2674 C 0.43635 0.7953 0.65411 0.0
C2675 C 0.44488 0.78479 0.66316 0.0
C2676 C 0.45424 0.79178 0.63282 0.0
C2677 C 0.45794 0.77771 0.65639 0.0
C2678 C 0.47004 0.78673 0.60858 0.0
C2679 C 0.45731 0.81323 0.59551 0.0
N2680 N 0.46225 0.78135 0.6416 0.0
N2681 N 0.45357 0.80884 0.61013 0.0
H2682 H 0.59375 0.50793 0.69156 0.0
H2683 H 0.6691 0.53738 0.69803 0.0
H2684 H 0.58139 0.55291 0.70953 0.0
H2685 H 0.6519 0.5593 0.73951 0.0
H2686 H 0.64262 0.52888 0.69184 0.0
H2687 H 0.62079 0.51265 0.69914 0.0
C2688 C 0.59672 0.51872 0.69726 0.0
C2689 C 0.58539 0.5301 0.69988 0.0
C2690 C 0.64469 0.53531 0.70244 0.0
C2691 C 0.61617 0.53561 0.70843 0.0
C2692 C 0.65973 0.54023 0.70589 0.0
C2693 C 0.66262 0.54891 0.71934 0.0
C2694 C 0.63243 0.53939 0.71236 0.0
C2695 C 0.65012 0.55243 0.72915 0.0
C2696 C 0.61214 0.52147 0.70141 0.0
C2697 C 0.58985 0.54395 0.70719 0.0
N2698 N 0.6355 0.54787 0.72534 0.0
N2699 N 0.6049 0.5463 0.71129 0.0
H2700 H 0.6973 0.40183 0.98492 0.0
H2701 H 0.73763 0.33903 0.93089 0.0
H2702 H 0.71306 0.41353 0.93899 0.0
H2703 H 0.69801 0.32755 0.95904 0.0
H2704 H 0.73423 0.36653 0.93779 0.0
H2705 H 0.70303 0.3744 0.97961 0.0
C2706 C 0.70221 0.3986 0.97382 0.0
C2707 C 0.70479 0.40985 0.96236 0.0
C2708 C 0.72639 0.35794 0.94254 0.0
C2709 C 0.71144 0.37874 0.9563 0.0
C2710 C 0.72838 0.34232 0.93872 0.0
C2711 C 0.71809 0.33113 0.94448 0.0
C2712 C 0.71425 0.36227 0.95248 0.0
C2713 C 0.70613 0.33592 0.95439 0.0
C2714 C 0.70535 0.38301 0.97077 0.0
C2715 C 0.71093 0.40512 0.94806 0.0
N2716 N 0.70458 0.35115 0.95818 0.0
N2717 N 0.71416 0.3899 0.94544 0.0
H2718 H 0.84126 0.41864 0.21016 0.0
H2719 H 0.90859 0.4821 0.21397 0.0
H2720 H 0.83442 0.46382 0.23054 0.0
H2721 H 0.9158 0.43417 0.20144 0.0
H2722 H 0.88167 0.47593 0.22067 0.0
H2723 H 0.8687 0.42445 0.20697 0.0
C2724 C 0.84555 0.42984 0.2139 0.0
C2725 C 0.83551 0.44084 0.22046 0.0
C2726 C 0.8892 0.46676 0.21655 0.0
C2727 C 0.86707 0.44758 0.21695 0.0
C2728 C 0.9046 0.47025 0.2128 0.0
C2729 C 0.91446 0.45867 0.20693 0.0
C2730 C 0.88362 0.4516 0.21438 0.0
C2731 C 0.90857 0.44355 0.20556 0.0
C2732 C 0.86126 0.43312 0.21219 0.0
C2733 C 0.84179 0.45502 0.22545 0.0
N2734 N 0.89355 0.4405 0.20913 0.0
N2735 N 0.85717 0.45806 0.22347 0.0
H2736 H 0.80766 0.59163 0.48414 0.0
H2737 H 0.75668 0.65159 0.43571 0.0
H2738 H 0.78388 0.5784 0.44222 0.0
H2739 H 0.79914 0.66532 0.45822 0.0
H2740 H 0.76192 0.62452 0.44294 0.0
H2741 H 0.80001 0.61875 0.4796 0.0
C2742 C 0.80062 0.59445 0.47413 0.0
C2743 C 0.79636 0.58287 0.46352 0.0
C2744 C 0.76999 0.6335 0.4464 0.0
C2745 C 0.78751 0.6136 0.45836 0.0
C2746 C 0.76696 0.6489 0.4424 0.0
C2747 C 0.77752 0.66062 0.4464 0.0
C2748 C 0.78349 0.62989 0.45475 0.0
C2749 C 0.7908 0.65655 0.45488 0.0
C2750 C 0.79637 0.60986 0.47149 0.0
C2751 C 0.78741 0.58707 0.4506 0.0
N2752 N 0.7934 0.64151 0.45884 0.0
N2753 N 0.7832 0.6021 0.4484 0.0
H2754 H 0.64908 0.43928 0.75863 0.0
H2755 H 0.59509 0.48955 0.81452 0.0
H2756 H 0.66617 0.45881 0.80135 0.0
H2757 H 0.57795 0.44986 0.78945 0.0
H2758 H 0.62143 0.48374 0.80511 0.0
H2759 H 0.62292 0.44854 0.7652 0.0
C2760 C 0.64734 0.44575 0.76926 0.0
C2761 C 0.6597 0.44829 0.77951 0.0
C2762 C 0.61184 0.47643 0.80156 0.0
C2763 C 0.63004 0.45896 0.78699 0.0
C2764 C 0.59688 0.47979 0.80681 0.0
C2765 C 0.58445 0.47012 0.80273 0.0
C2766 C 0.61425 0.46353 0.7919 0.0
C2767 C 0.58731 0.45749 0.79288 0.0
C2768 C 0.63245 0.45092 0.77303 0.0
C2769 C 0.65686 0.45657 0.79323 0.0
N2770 N 0.60192 0.45457 0.78774 0.0
N2771 N 0.64231 0.46167 0.79658 0.0
H2772 H 0.75937 0.34317 0.04247 0.0
H2773 H 0.82286 0.41045 0.04206 0.0
H2774 H 0.80841 0.33551 0.04906 0.0
H2775 H 0.77667 0.41751 0.02428 0.0
H2776 H 0.8172 0.38297 0.04535 0.0
H2777 H 0.76486 0.3703 0.03598 0.0
C2778 C 0.77128 0.3471 0.04242 0.0
C2779 C 0.78342 0.33701 0.04655 0.0
C2780 C 0.80827 0.39046 0.04067 0.0
C2781 C 0.78973 0.3681 0.03931 0.0
C2782 C 0.81147 0.40619 0.0389 0.0
C2783 C 0.80015 0.41629 0.03305 0.0
C2784 C 0.79356 0.38471 0.03671 0.0
C2785 C 0.7857 0.41008 0.02882 0.0
C2786 C 0.7744 0.36262 0.03876 0.0
C2787 C 0.79862 0.34286 0.04636 0.0
N2788 N 0.78274 0.39468 0.03087 0.0
N2789 N 0.80131 0.35799 0.04293 0.0
H2790 H 0.83378 0.55168 0.30413 0.0
H2791 H 0.91741 0.52091 0.2778 0.0
H2792 H 0.84541 0.54367 0.25611 0.0
H2793 H 0.90692 0.53954 0.32302 0.0
H2794 H 0.89037 0.52568 0.26995 0.0
H2795 H 0.85977 0.54367 0.31155 0.0
C2796 C 0.84181 0.54828 0.29511 0.0
C2797 C 0.83744 0.54864 0.27942 0.0
C2798 C 0.89402 0.52868 0.28159 0.0
C2799 C 0.86737 0.53921 0.28792 0.0
C2800 C 0.90939 0.52589 0.28608 0.0
C2801 C 0.91444 0.52999 0.30102 0.0
C2802 C 0.88362 0.5354 0.29221 0.0
C2803 C 0.90362 0.53647 0.31131 0.0
C2804 C 0.85668 0.54363 0.29937 0.0
C2805 C 0.84827 0.5436 0.26832 0.0
N2806 N 0.88877 0.53896 0.30671 0.0
N2807 N 0.86279 0.53918 0.27277 0.0
H2808 H 0.69856 0.66889 0.53903 0.0
H2809 H 0.71456 0.58077 0.55632 0.0
H2810 H 0.74013 0.65488 0.56292 0.0
H2811 H 0.69362 0.59485 0.5132 0.0
H2812 H 0.72181 0.60793 0.56134 0.0
H2813 H 0.69403 0.64172 0.53154 0.0
C2814 C 0.70676 0.66006 0.54257 0.0
C2815 C 0.71976 0.66403 0.55149 0.0
C2816 C 0.71577 0.60501 0.55071 0.0
C2817 C 0.71454 0.63311 0.54336 0.0
C2818 C 0.71162 0.58961 0.54789 0.0
C2819 C 0.7036 0.58566 0.53431 0.0
C2820 C 0.71145 0.61656 0.54007 0.0
C2821 C 0.69996 0.59746 0.52371 0.0
C2822 C 0.70423 0.64465 0.53829 0.0
C2823 C 0.73008 0.65225 0.55588 0.0
N2824 N 0.70372 0.61244 0.52692 0.0
N2825 N 0.72714 0.63725 0.55196 0.0
H2826 H 0.53558 0.69732 0.6687 0.0
H2827 H 0.55218 0.71279 0.58031 0.0
H2828 H 0.5583 0.7393 0.65399 0.0
H2829 H 0.51018 0.68992 0.59475 0.0
H2830 H 0.55685 0.72069 0.60732 0.0
H2831 H 0.5281 0.69219 0.64165 0.0
C2832 C 0.53887 0.70548 0.65975 0.0
C2833 C 0.54747 0.71876 0.6635 0.0
C2834 C 0.54653 0.71409 0.60453 0.0
C2835 C 0.53933 0.71287 0.63268 0.0
C2836 C 0.54391 0.70956 0.58919 0.0
C2837 C 0.53076 0.70079 0.58538 0.0
C2838 C 0.53614 0.70942 0.61616 0.0
C2839 C 0.52035 0.69683 0.59725 0.0
C2840 C 0.53458 0.70261 0.64439 0.0
C2841 C 0.55151 0.72903 0.65154 0.0
N2842 N 0.52338 0.70098 0.61217 0.0
N2843 N 0.5476 0.72576 0.6366 0.0
H2844 H 0.0128 0.78412 0.40331 0.0
H2845 H 0.07532 0.79023 0.33535 0.0
H2846 H 0.06071 0.79686 0.41027 0.0
H2847 H 0.0299 0.77053 0.32827 0.0
H2848 H 0.06997 0.79227 0.36299 0.0
H2849 H 0.01863 0.77824 0.37615 0.0
C2850 C 0.02458 0.78551 0.39922 0.0
C2851 C 0.03624 0.79118 0.40911 0.0
C2852 C 0.06114 0.78744 0.35546 0.0
C2853 C 0.04293 0.78466 0.37796 0.0
C2854 C 0.06416 0.78639 0.33964 0.0
C2855 C 0.05293 0.78041 0.32949 0.0
C2856 C 0.04672 0.78261 0.36127 0.0
C2857 C 0.03883 0.77522 0.33574 0.0
C2858 C 0.02787 0.78222 0.38367 0.0
C2859 C 0.05126 0.79286 0.40305 0.0
N2860 N 0.03605 0.77658 0.35125 0.0
N2861 N 0.05413 0.78973 0.38789 0.0
H2862 H 0.46713 0.23235 0.84241 0.0
H2863 H 0.46014 0.17003 0.91053 0.0
H2864 H 0.45565 0.18414 0.8353 0.0
H2865 H 0.47887 0.21583 0.91788 0.0
H2866 H 0.45861 0.17528 0.88284 0.0
H2867 H 0.4722 0.22677 0.8698 0.0
C2868 C 0.46587 0.22056 0.84653 0.0
C2869 C 0.46077 0.20872 0.83653 0.0
C2870 C 0.46311 0.18421 0.89045 0.0
C2871 C 0.46634 0.20233 0.86792 0.0
C2872 C 0.46386 0.18125 0.90631 0.0
C2873 C 0.46946 0.1926 0.91656 0.0
C2874 C 0.46789 0.19867 0.88469 0.0
C2875 C 0.47449 0.20679 0.91036 0.0
C2876 C 0.46868 0.21741 0.8622 0.0
C2877 C 0.45922 0.1937 0.8426 0.0
N2878 N 0.47347 0.20949 0.89482 0.0
N2879 N 0.46188 0.19097 0.85788 0.0
H2880 H 0.05206 0.15529 0.23577 0.0
H2881 H 0.05777 0.08832 0.17356 0.0
H2882 H 0.07778 0.16268 0.1935 0.0
H2883 H 0.01489 0.09828 0.19733 0.0
H2884 H 0.06861 0.11277 0.18367 0.0
H2885 H 0.0415 0.13128 0.22481 0.0
C2886 C 0.05552 0.15181 0.2242 0.0
C2887 C 0.06576 0.16096 0.21549 0.0
C2888 C 0.05682 0.10955 0.18659 0.0
C2889 C 0.05398 0.13344 0.20306 0.0
C2890 C 0.05068 0.09562 0.18093 0.0
C2891 C 0.03541 0.09134 0.18461 0.0
C2892 C 0.04776 0.11894 0.19633 0.0
C2893 C 0.02667 0.10121 0.19415 0.0
C2894 C 0.04946 0.13818 0.21796 0.0
C2895 C 0.06983 0.15596 0.20053 0.0
N2896 N 0.03303 0.11447 0.19983 0.0
N2897 N 0.06405 0.14241 0.19481 0.0
H2898 H 0.15983 0.80472 0.41791 0.0
H2899 H 0.09507 0.80949 0.48245 0.0
H2900 H 0.15226 0.76713 0.45002 0.0
H2901 H 0.08446 0.82365 0.43563 0.0
H2902 H 0.11981 0.79893 0.47336 0.0
H2903 H 0.13556 0.81683 0.42691 0.0
C2904 C 0.15313 0.79912 0.42695 0.0
C2905 C 0.15796 0.78493 0.43326 0.0
C2906 C 0.11208 0.80445 0.46513 0.0
C2907 C 0.13061 0.79875 0.44367 0.0
C2908 C 0.09803 0.81054 0.47029 0.0
C2909 C 0.08773 0.81743 0.45975 0.0
C2910 C 0.11603 0.8056 0.44941 0.0
C2911 C 0.09209 0.81836 0.44409 0.0
C2912 C 0.1393 0.80596 0.43196 0.0
C2913 C 0.14885 0.77804 0.44483 0.0
N2914 N 0.10602 0.8126 0.43937 0.0
N2915 N 0.13567 0.7851 0.44979 0.0
H2916 H 0.48241 0.90323 0.69905 0.0
H2917 H 0.4196 0.83702 0.69123 0.0
H2918 H 0.44069 0.91155 0.67268 0.0
H2919 H 0.44357 0.84576 0.73429 0.0
H2920 H 0.42987 0.86164 0.68097 0.0
H2921 H 0.47109 0.87914 0.70886 0.0
C2922 C 0.47088 0.89994 0.69526 0.0
C2923 C 0.46245 0.90938 0.68505 0.0
C2924 C 0.43279 0.85812 0.69267 0.0
C2925 C 0.44958 0.88175 0.69606 0.0
C2926 C 0.42704 0.84409 0.69849 0.0
C2927 C 0.43074 0.8394 0.71363 0.0
C2928 C 0.44263 0.86721 0.70194 0.0
C2929 C 0.44037 0.849 0.72259 0.0
C2930 C 0.46443 0.88625 0.70092 0.0
C2931 C 0.44752 0.9046 0.6806 0.0
N2932 N 0.44612 0.86235 0.71655 0.0
N2933 N 0.44158 0.89099 0.68602 0.0
H2934 H 0.32719 0.19035 0.94168 0.0
H2935 H 0.41984 0.18978 0.94338 0.0
H2936 H 0.35481 0.22695 0.92166 0.0
H2937 H 0.39229 0.16912 0.97968 0.0
H2938 H 0.39597 0.19957 0.93132 0.0
H2939 H 0.35103 0.17845 0.95186 0.0
C2940 C 0.33827 0.19579 0.93933 0.0
C2941 C 0.33905 0.2097 0.93093 0.0
C2942 C 0.39519 0.19283 0.9419 0.0
C2943 C 0.36623 0.19611 0.9423 0.0
C2944 C 0.40877 0.1872 0.94873 0.0
C2945 C 0.40802 0.17875 0.96261 0.0
C2946 C 0.38077 0.18969 0.94882 0.0
C2947 C 0.39338 0.17575 0.96907 0.0
C2948 C 0.35182 0.18905 0.94518 0.0
C2949 C 0.35369 0.21631 0.92823 0.0
N2950 N 0.38032 0.18117 0.9621 0.0
N2951 N 0.3667 0.20943 0.93385 0.0
H2952 H 0.01387 0.90684 0.30014 0.0
H2953 H 0.07496 0.83843 0.30417 0.0
H2954 H 0.05659 0.91254 0.32557 0.0
H2955 H 0.04984 0.84885 0.26217 0.0
H2956 H 0.06527 0.86277 0.31558 0.0
H2957 H 0.02383 0.8825 0.28938 0.0
C2958 C 0.02532 0.90292 0.30351 0.0
C2959 C 0.03446 0.9117 0.31371 0.0
C2960 C 0.06192 0.85966 0.30388 0.0
C2961 C 0.04575 0.88381 0.30167 0.0
C2962 C 0.06734 0.84579 0.29741 0.0
C2963 C 0.0632 0.84169 0.28221 0.0
C2964 C 0.05199 0.8692 0.2952 0.0
C2965 C 0.05338 0.85164 0.27389 0.0
C2966 C 0.031 0.88909 0.29732 0.0
C2967 C 0.04924 0.90613 0.31765 0.0
N2968 N 0.04798 0.86487 0.28055 0.0
N2969 N 0.05441 0.89243 0.31172 0.0
H2970 H 0.40802 0.80397 0.5156 0.0
H2971 H 0.33851 0.81333 0.57404 0.0
H2972 H 0.41451 0.83135 0.557 0.0
H2973 H 0.35019 0.76877 0.55449 0.0
H2974 H 0.36343 0.82363 0.56446 0.0
H2975 H 0.38347 0.79432 0.52616 0.0
C2976 C 0.40422 0.80801 0.52688 0.0
C2977 C 0.41327 0.81842 0.53549 0.0
C2978 C 0.36047 0.8116 0.56236 0.0
C2979 C 0.38516 0.80769 0.54741 0.0
C2980 C 0.3463 0.80576 0.56772 0.0
C2981 C 0.34238 0.79019 0.56508 0.0
C2982 C 0.37044 0.80189 0.55392 0.0
C2983 C 0.35284 0.78081 0.55687 0.0
C2984 C 0.39029 0.80246 0.53289 0.0
C2985 C 0.40787 0.82324 0.55008 0.0
N2986 N 0.36632 0.78686 0.55141 0.0
N2987 N 0.39403 0.81795 0.55556 0.0
H2988 H 0.44075 0.0754 0.8109 0.0
H2989 H 0.4483 0.16769 0.80707 0.0
H2990 H 0.47975 0.10051 0.82977 0.0
H2991 H 0.42036 0.14153 0.77476 0.0
H2992 H 0.45738 0.14336 0.81844 0.0
H2993 H 0.43053 0.09981 0.80046 0.0
C2994 C 0.44711 0.08605 0.81292 0.0
C2995 C 0.46116 0.08593 0.82115 0.0
C2996 C 0.44926 0.14295 0.80887 0.0
C2997 C 0.44949 0.11383 0.80937 0.0
C2998 C 0.44402 0.15683 0.8024 0.0
C2999 C 0.43359 0.15664 0.7899 0.0
C3000 C 0.44388 0.12876 0.80294 0.0
C3001 C 0.42848 0.14221 0.78431 0.0
C3002 C 0.44131 0.09995 0.80691 0.0
C3003 C 0.46894 0.10006 0.82339 0.0
N3004 N 0.43363 0.12884 0.79091 0.0
N3005 N 0.46298 0.11344 0.81758 0.0
H3006 H 0.16448 0.19005 0.07956 0.0
H3007 H 0.09875 0.19269 0.01633 0.0
H3008 H 0.15586 0.23151 0.05293 0.0
H3009 H 0.08863 0.17279 0.06111 0.0
H3010 H 0.12325 0.20272 0.02662 0.0
H3011 H 0.13976 0.17925 0.07007 0.0
C3012 C 0.1574 0.19682 0.07169 0.0
C3013 C 0.16212 0.21168 0.06701 0.0
C3014 C 0.11566 0.1961 0.03415 0.0
C3015 C 0.13429 0.19936 0.056 0.0
C3016 C 0.10177 0.19031 0.02829 0.0
C3017 C 0.0917 0.18193 0.03792 0.0
C3018 C 0.11971 0.19313 0.04961 0.0
C3019 C 0.09609 0.17928 0.05337 0.0
C3020 C 0.14334 0.19071 0.06638 0.0
C3021 C 0.15256 0.22006 0.05687 0.0
N3022 N 0.1099 0.18476 0.05874 0.0
N3023 N 0.13917 0.2137 0.05154 0.0
H3024 H 0.19127 0.07412 0.16166 0.0
H3025 H 0.19645 0.01377 0.0928 0.0
H3026 H 0.23339 0.04881 0.15229 0.0
H3027 H 0.17204 0.057 0.08663 0.0
H3028 H 0.20692 0.02352 0.11738 0.0
H3029 H 0.1807 0.06505 0.13672 0.0
C3030 C 0.19824 0.06661 0.15439 0.0
C3031 C 0.21323 0.06221 0.15899 0.0
C3032 C 0.19928 0.03085 0.11062 0.0
C3033 C 0.20116 0.05168 0.13076 0.0
C3034 C 0.19326 0.0253 0.09666 0.0
C3035 C 0.1834 0.03462 0.08769 0.0
C3036 C 0.19508 0.04567 0.11586 0.0
C3037 C 0.17969 0.0495 0.09319 0.0
C3038 C 0.19225 0.06154 0.14018 0.0
C3039 C 0.22182 0.05253 0.14913 0.0
N3040 N 0.18541 0.05453 0.10704 0.0
N3041 N 0.21561 0.04745 0.13555 0.0
H3042 H 0.19767 0.97758 0.40973 0.0
H3043 H 0.19397 0.91954 0.33906 0.0
H3044 H 0.17354 0.93399 0.41442 0.0
H3045 H 0.23596 0.94441 0.35016 0.0
H3046 H 0.18299 0.9276 0.36416 0.0
H3047 H 0.20863 0.96854 0.38513 0.0
C3048 C 0.19463 0.96612 0.40554 0.0
C3049 C 0.1847 0.95649 0.41409 0.0
C3050 C 0.19461 0.93122 0.36105 0.0
C3051 C 0.19698 0.94625 0.3859 0.0
C3052 C 0.20083 0.92673 0.34676 0.0
C3053 C 0.21589 0.93132 0.34259 0.0
C3054 C 0.20336 0.94071 0.37098 0.0
C3055 C 0.22434 0.94056 0.35299 0.0
C3056 C 0.20095 0.96097 0.39157 0.0
C3057 C 0.18122 0.94172 0.40818 0.0
N3058 N 0.2179 0.94511 0.36664 0.0
N3059 N 0.18723 0.93708 0.39432 0.0
H3060 H 0.30239 0.98393 0.59329 0.0
H3061 H 0.30762 0.92247 0.66072 0.0
H3062 H 0.32762 0.94137 0.58589 0.0
H3063 H 0.26484 0.94624 0.65034 0.0
H3064 H 0.31849 0.93207 0.63609 0.0
H3065 H 0.29174 0.97315 0.6173 0.0
C3066 C 0.30573 0.97233 0.59677 0.0
C3067 C 0.31587 0.96349 0.58762 0.0
C3068 C 0.30672 0.93509 0.63926 0.0
C3069 C 0.30396 0.95127 0.61516 0.0
C3070 C 0.30056 0.92972 0.65328 0.0
C3071 C 0.28531 0.93356 0.65751 0.0
C3072 C 0.2977 0.9447 0.6297 0.0
C3073 C 0.27661 0.94295 0.64747 0.0
C3074 C 0.2996 0.96619 0.6104 0.0
C3075 C 0.31975 0.94849 0.59261 0.0
N3076 N 0.28299 0.94835 0.63412 0.0
N3077 N 0.31392 0.94287 0.60618 0.0
H3078 H 0.31563 0.06429 0.91638 0.0
H3079 H 0.29769 0.05498 0.82564 0.0
H3080 H 0.31964 0.02076 0.89192 0.0
H3081 H 0.29875 0.0989 0.84971 0.0
H3082 H 0.30461 0.04193 0.84992 0.0
H3083 H 0.30837 0.07691 0.89214 0.0
C3084 C 0.31495 0.05736 0.90593 0.0
C3085 C 0.3182 0.04142 0.90622 0.0
C3086 C 0.30332 0.05442 0.84986 0.0
C3087 C 0.30992 0.05584 0.87833 0.0
C3088 C 0.29932 0.06187 0.83603 0.0
C3089 C 0.29765 0.07806 0.83564 0.0
C3090 C 0.30559 0.06323 0.86341 0.0
C3091 C 0.29998 0.08641 0.84943 0.0
C3092 C 0.31084 0.06459 0.89206 0.0
C3093 C 0.31724 0.03308 0.89225 0.0
N3094 N 0.3038 0.0789 0.86273 0.0
N3095 N 0.31316 0.04038 0.87888 0.0
H3096 H 0.65911 0.30642 0.92231 0.0
H3097 H 0.5905 0.2984 0.98292 0.0
H3098 H 0.64947 0.26358 0.9463 0.0
H3099 H 0.58484 0.32658 0.94198 0.0
H3100 H 0.61486 0.28841 0.97238 0.0
H3101 H 0.63446 0.31703 0.93215 0.0
C3102 C 0.65187 0.29931 0.92971 0.0
C3103 C 0.65629 0.28411 0.9335 0.0
C3104 C 0.60827 0.29675 0.96569 0.0
C3105 C 0.62839 0.29616 0.94484 0.0
C3106 C 0.59441 0.30249 0.9717 0.0
C3107 C 0.58564 0.31327 0.96326 0.0
C3108 C 0.61362 0.3021 0.95129 0.0
C3109 C 0.59122 0.31816 0.94876 0.0
C3110 C 0.6378 0.30531 0.93521 0.0
C3111 C 0.64646 0.27533 0.94304 0.0
N3112 N 0.60499 0.31264 0.94327 0.0
N3113 N 0.63305 0.28153 0.94849 0.0
H3114 H 0.918 0.33478 0.18491 0.0
H3115 H 0.9819 0.39888 0.18888 0.0
H3116 H 0.93991 0.34552 0.22861 0.0
H3117 H 0.9377 0.41145 0.1691 0.0
H3118 H 0.9703 0.37482 0.19873 0.0
H3119 H 0.92855 0.35909 0.1741 0.0
C3120 C 0.92499 0.34228 0.19219 0.0
C3121 C 0.92803 0.3383 0.20767 0.0
C3122 C 0.96322 0.38284 0.19214 0.0
C3123 C 0.94037 0.3655 0.19535 0.0
C3124 C 0.96981 0.39646 0.18646 0.0
C3125 C 0.96069 0.40708 0.17821 0.0
C3126 C 0.94757 0.37966 0.18913 0.0
C3127 C 0.94504 0.40351 0.17549 0.0
C3128 C 0.93093 0.35606 0.18606 0.0
C3129 C 0.93717 0.3483 0.21667 0.0
N3130 N 0.93896 0.38996 0.18082 0.0
N3131 N 0.94323 0.36136 0.2103 0.0
H3132 H 0.90924 0.67021 0.4429 0.0
H3133 H 0.84072 0.73111 0.44725 0.0
H3134 H 0.89935 0.69611 0.48457 0.0
H3135 H 0.83463 0.6882 0.4222 0.0
H3136 H 0.86513 0.72122 0.45778 0.0
H3137 H 0.8846 0.67946 0.43174 0.0
C3138 C 0.90194 0.67792 0.44963 0.0
C3139 C 0.90628 0.68242 0.46467 0.0
C3140 C 0.85844 0.71398 0.44998 0.0
C3141 C 0.87842 0.6931 0.45198 0.0
C3142 C 0.84456 0.71961 0.44393 0.0
C3143 C 0.83565 0.71042 0.43388 0.0
C3144 C 0.86368 0.6992 0.44567 0.0
C3145 C 0.84114 0.69558 0.43001 0.0
C3146 C 0.88789 0.68307 0.44332 0.0
C3147 C 0.89639 0.69232 0.47297 0.0
N3148 N 0.85492 0.69045 0.4358 0.0
N3149 N 0.88299 0.69744 0.46646 0.0
H3150 H 0.98282 0.59272 0.30059 0.0
H3151 H 0.92533 0.66241 0.31319 0.0
H3152 H 0.94222 0.58612 0.32906 0.0
H3153 H 0.94345 0.65183 0.26776 0.0
H3154 H 0.93487 0.63709 0.32245 0.0
H3155 H 0.97206 0.61741 0.29147 0.0
C3156 C 0.97165 0.59651 0.30493 0.0
C3157 C 0.96334 0.58741 0.31552 0.0
C3158 C 0.93665 0.64037 0.31046 0.0
C3159 C 0.95121 0.61566 0.30545 0.0
C3160 C 0.93131 0.65477 0.30521 0.0
C3161 C 0.93358 0.65912 0.2897 0.0
C3162 C 0.94469 0.63059 0.30022 0.0
C3163 C 0.94137 0.64884 0.27978 0.0
C3164 C 0.96553 0.61052 0.2997 0.0
C3165 C 0.9489 0.5928 0.32078 0.0
N3166 N 0.94682 0.63512 0.28525 0.0
N3167 N 0.94334 0.60671 0.31582 0.0
H3168 H 0.55038 0.39682 0.84591 0.0
H3169 H 0.56669 0.35403 0.76517 0.0
H3170 H 0.54664 0.42015 0.80176 0.0
H3171 H 0.56281 0.33065 0.80927 0.0
H3172 H 0.56063 0.37863 0.7781 0.0
H3173 H 0.55637 0.37278 0.83243 0.0
C3174 C 0.55086 0.39691 0.83336 0.0
C3175 C 0.548 0.41055 0.82496 0.0
C3176 C 0.56107 0.36809 0.78491 0.0
C3177 C 0.55486 0.38291 0.80938 0.0
C3178 C 0.56455 0.35405 0.77754 0.0
C3179 C 0.56524 0.34023 0.78613 0.0
C3180 C 0.55838 0.3683 0.80098 0.0
C3181 C 0.56236 0.34096 0.80214 0.0
C3182 C 0.55423 0.38313 0.82565 0.0
C3183 C 0.54872 0.4099 0.80869 0.0
N3184 N 0.55911 0.35473 0.80902 0.0
N3185 N 0.55211 0.39629 0.80142 0.0
H3186 H 0.51497 0.59373 0.69889 0.0
H3187 H 0.57458 0.66299 0.69047 0.0
H3188 H 0.55756 0.58726 0.67346 0.0
H3189 H 0.54954 0.65464 0.73297 0.0
H3190 H 0.56563 0.63766 0.68066 0.0
H3191 H 0.52465 0.61872 0.70826 0.0
C3192 C 0.52636 0.5976 0.69527 0.0
C3193 C 0.53552 0.58843 0.68544 0.0
C3194 C 0.56215 0.64144 0.69213 0.0
C3195 C 0.5465 0.61709 0.69586 0.0
C3196 C 0.56714 0.65587 0.69767 0.0
C3197 C 0.56278 0.66086 0.71255 0.0
C3198 C 0.55244 0.63221 0.70139 0.0
C3199 C 0.55322 0.65119 0.72147 0.0
C3200 C 0.53188 0.61181 0.70065 0.0
C3201 C 0.55021 0.59396 0.68112 0.0
N3202 N 0.54825 0.6374 0.7157 0.0
N3203 N 0.55522 0.60806 0.68624 0.0
H3204 H 0.9113 0.32939 0.05565 0.0
H3205 H 0.84491 0.2663 0.04833 0.0
H3206 H 0.90376 0.30359 0.01343 0.0
H3207 H 0.83656 0.30894 0.07319 0.0
H3208 H 0.86952 0.27691 0.03895 0.0
H3209 H 0.88667 0.31911 0.06588 0.0
C3210 C 0.90452 0.3215 0.0486 0.0
C3211 C 0.90951 0.31734 0.03367 0.0
C3212 C 0.86229 0.28393 0.04647 0.0
C3213 C 0.88167 0.30546 0.04532 0.0
C3214 C 0.8483 0.27788 0.05186 0.0
C3215 C 0.83869 0.2868 0.06149 0.0
C3216 C 0.86691 0.29884 0.05104 0.0
C3217 C 0.84362 0.30175 0.06568 0.0
C3218 C 0.89048 0.31575 0.05439 0.0
C3219 C 0.90027 0.30715 0.02496 0.0
N3220 N 0.85749 0.30729 0.06053 0.0
N3221 N 0.88687 0.30145 0.03096 0.0
H3222 H 0.59539 0.69844 0.51681 0.0
H3223 H 0.66299 0.69013 0.57821 0.0
H3224 H 0.58763 0.67312 0.55925 0.0
H3225 H 0.65484 0.73285 0.55349 0.0
H3226 H 0.63799 0.68019 0.5685 0.0
H3227 H 0.6201 0.70778 0.52721 0.0
C3228 C 0.59892 0.69483 0.52832 0.0
C3229 C 0.58947 0.68507 0.53724 0.0
C3230 C 0.64175 0.69173 0.56527 0.0
C3231 C 0.6178 0.69544 0.54903 0.0
C3232 C 0.65599 0.69735 0.57069 0.0
C3233 C 0.66092 0.71232 0.56665 0.0
C3234 C 0.63269 0.70102 0.55543 0.0
C3235 C 0.65141 0.72128 0.55695 0.0
C3236 C 0.61297 0.70019 0.53424 0.0
C3237 C 0.59456 0.68075 0.55209 0.0
N3238 N 0.63782 0.71543 0.55154 0.0
N3239 N 0.60851 0.68586 0.5575 0.0
H3240 H 0.67436 0.56015 0.58827 0.0
H3241 H 0.73248 0.55126 0.65833 0.0
H3242 H 0.69567 0.51617 0.59899 0.0
H3243 H 0.69063 0.57805 0.66415 0.0
H3244 H 0.72249 0.54153 0.63356 0.0
H3245 H 0.68353 0.5703 0.61338 0.0
C3246 C 0.68102 0.55269 0.59587 0.0
C3247 C 0.68427 0.53731 0.59162 0.0
C3248 C 0.71551 0.54954 0.64028 0.0
C3249 C 0.6949 0.54885 0.61997 0.0
C3250 C 0.7212 0.55513 0.65434 0.0
C3251 C 0.71232 0.56542 0.66326 0.0
C3252 C 0.70103 0.5546 0.6349 0.0
C3253 C 0.69776 0.57003 0.65762 0.0
C3254 C 0.68613 0.55844 0.61017 0.0
C3255 C 0.69286 0.52807 0.60188 0.0
N3256 N 0.6926 0.5647 0.64367 0.0
N3257 N 0.69803 0.53403 0.61552 0.0
H3258 H 0.68855 0.48058 0.89926 0.0
H3259 H 0.68617 0.41581 0.83478 0.0
H3260 H 0.67186 0.43492 0.91114 0.0
H3261 H 0.72652 0.44475 0.84091 0.0
H3262 H 0.67597 0.42542 0.85974 0.0
H3263 H 0.6978 0.4704 0.87438 0.0
C3264 C 0.68672 0.46844 0.89656 0.0
C3265 C 0.67947 0.45854 0.90723 0.0
C3266 C 0.68704 0.42961 0.85554 0.0
C3267 C 0.68974 0.44698 0.87878 0.0
C3268 C 0.6928 0.42423 0.84134 0.0
C3269 C 0.7072 0.42949 0.83589 0.0
C3270 C 0.69555 0.44065 0.86397 0.0
C3271 C 0.71542 0.44034 0.8448 0.0
C3272 C 0.69205 0.46266 0.88244 0.0
C3273 C 0.67748 0.44288 0.90322 0.0
N3274 N 0.70939 0.44571 0.85833 0.0
N3275 N 0.68247 0.43757 0.88919 0.0
H3276 H 0.79809 0.48529 0.09912 0.0
H3277 H 0.8073 0.41969 0.16285 0.0
H3278 H 0.82364 0.44353 0.08877 0.0
H3279 H 0.76462 0.44507 0.15675 0.0
H3280 H 0.8171 0.43111 0.13851 0.0
H3281 H 0.78924 0.47351 0.12341 0.0
C3282 C 0.80188 0.47366 0.102 0.0
C3283 C 0.81154 0.46532 0.09191 0.0
C3284 C 0.8056 0.43412 0.14257 0.0
C3285 C 0.80171 0.45195 0.11976 0.0
C3286 C 0.80006 0.4277 0.15643 0.0
C3287 C 0.78512 0.43141 0.16173 0.0
C3288 C 0.79628 0.44461 0.13429 0.0
C3289 C 0.77615 0.44181 0.153 0.0
C3290 C 0.79679 0.46695 0.11581 0.0
C3291 C 0.81608 0.45027 0.09619 0.0
N3292 N 0.78192 0.44815 0.13979 0.0
N3293 N 0.81123 0.44408 0.10989 0.0
H3294 H 0.81285 0.56986 0.32318 0.0
H3295 H 0.79697 0.54542 0.41144 0.0
H3296 H 0.76708 0.56852 0.34348 0.0
H3297 H 0.8426 0.55121 0.39163 0.0
H3298 H 0.78559 0.55291 0.38649 0.0
H3299 H 0.82379 0.56202 0.34804 0.0
C3300 C 0.80508 0.5679 0.33285 0.0
C3301 C 0.78901 0.56986 0.33122 0.0
C3302 C 0.79809 0.55254 0.38763 0.0
C3303 C 0.80149 0.56088 0.3598 0.0
C3304 C 0.80459 0.54824 0.40186 0.0
C3305 C 0.82076 0.5477 0.40363 0.0
C3306 C 0.80785 0.55624 0.3751 0.0
C3307 C 0.83008 0.55152 0.39084 0.0
C3308 C 0.81135 0.56344 0.34708 0.0
C3309 C 0.77954 0.56716 0.3442 0.0
N3310 N 0.82349 0.5556 0.37714 0.0
N3311 N 0.78592 0.5628 0.35794 0.0
H3312 H 0.99094 0.00631 0.29496 0.0
H3313 H 0.98642 0.00044 0.20708 0.0
H3314 H 0.9818 0.96303 0.27134 0.0
H3315 H 0.98067 0.04402 0.23125 0.0
H3316 H 0.97814 0.98685 0.23003 0.0
H3317 H 0.98088 0.02026 0.27283 0.0
C3318 C 0.9864 -0.00036 0.28534 0.0
C3319 C 0.98769 0.98338 0.28491 0.0
C3320 C 0.9783 -0.00059 0.23026 0.0
C3321 C 0.97664 -0.00049 0.25912 0.0
C3322 C 0.98297 0.0073 0.217 0.0
C3323 C 0.98481 0.02351 0.21725 0.0
C3324 C 0.9759 0.00769 0.24405 0.0
C3325 C 0.98013 0.03149 0.23068 0.0
C3326 C 0.98069 0.0077 0.27259 0.0
C3327 C 0.98164 0.97556 0.27197 0.0
N3328 N 0.97634 0.02348 0.24369 0.0
N3329 N 0.97676 0.98371 0.25941 0.0
H3330 H 0.26214 0.72522 0.53825 0.0
H3331 H 0.25198 0.73779 0.44784 0.0
H3332 H 0.29149 0.75265 0.50809 0.0
H3333 H 0.21308 0.73066 0.47867 0.0
H3334 H 0.26947 0.73142 0.46879 0.0
H3335 H 0.24745 0.71687 0.51546 0.0
C3336 C 0.26573 0.72937 0.52697 0.0
C3337 C 0.27786 0.74025 0.52541 0.0
C3338 C 0.25708 0.73088 0.47087 0.0
C3339 C 0.26154 0.72994 0.49929 0.0
C3340 C 0.24698 0.73439 0.45883 0.0
C3341 C 0.2309 0.73512 0.46149 0.0
C3342 C 0.25118 0.72832 0.48578 0.0
C3343 C 0.22538 0.73074 0.4762 0.0
C3344 C 0.2574 0.7244 0.51397 0.0
C3345 C 0.28234 0.7444 0.51027 0.0
N3346 N 0.23554 0.72786 0.48794 0.0
N3347 N 0.27407 0.73939 0.4979 0.0
H3348 H 0.51703 0.03854 0.77446 0.0
H3349 H 0.51631 0.957 0.73203 0.0
H3350 H 0.50819 0.9942 0.79618 0.0
H3351 H 0.50851 0.00126 0.70985 0.0
H3352 H 0.52479 0.9707 0.75539 0.0
H3353 H 0.52524 0.02484 0.75101 0.0
C3354 C 0.51709 0.02598 0.77448 0.0
C3355 C 0.51136 0.01761 0.78724 0.0
C3356 C 0.52162 0.97735 0.74521 0.0
C3357 C 0.52109 0.00194 0.7606 0.0
C3358 C 0.51667 0.96956 0.73193 0.0
C3359 C 0.5112 0.97795 0.71909 0.0
C3360 C 0.52107 0.99362 0.74564 0.0
C3361 C 0.51247 0.99421 0.71944 0.0
C3362 C 0.52191 0.01819 0.76113 0.0
C3363 C 0.51235 0.00131 0.78674 0.0
N3364 N 0.51697 0.00151 0.73262 0.0
N3365 N 0.5168 0.99405 0.77354 0.0
H3366 H 0.24746 0.25871 0.95382 0.0
H3367 H 0.2539 0.25819 0.04273 0.0
H3368 H 0.29094 0.26517 0.97789 0.0
H3369 H 0.21022 0.26497 0.01903 0.0
H3370 H 0.26744 0.26656 0.01972 0.0
H3371 H 0.23372 0.26676 0.97695 0.0
C3372 C 0.25421 0.26227 0.96379 0.0
C3373 C 0.27046 0.26084 0.96396 0.0
C3374 C 0.25488 0.26657 0.01961 0.0
C3375 C 0.25459 0.26958 0.99082 0.0
C3376 C 0.24703 0.26187 0.03289 0.0
C3377 C 0.23077 0.26044 0.03282 0.0
C3378 C 0.24652 0.26948 0.00597 0.0
C3379 C 0.22276 0.26529 0.01948 0.0
C3380 C 0.24628 0.26679 0.97711 0.0
C3381 C 0.27841 0.26554 0.97738 0.0
N3382 N 0.23072 0.2692 0.00646 0.0
N3383 N 0.27038 0.26934 0.99039 0.0
H3384 H 0.25858 0.99792 0.95109 0.0
H3385 H 0.22604 0.98127 0.03213 0.0
H3386 H 0.28618 0.97425 0.98572 0.0
H3387 H 0.19802 0.99178 0.99188 0.0
H3388 H 0.24705 0.9733 0.0148 0.0
H3389 H 0.23553 0.98942 0.96402 0.0
C3390 C 0.26001 0.99063 0.96118 0.0
C3391 C 0.27467 0.98754 0.96761 0.0
C3392 C 0.23609 0.97689 0.00983 0.0
C3393 C 0.24774 0.97841 0.98315 0.0
C3394 C 0.22413 0.98161 0.01972 0.0
C3395 C 0.2103 0.98765 0.01357 0.0
C3396 C 0.2342 0.97837 0.99371 0.0
C3397 C 0.20837 0.98731 0.99737 0.0
C3398 C 0.24661 0.98585 0.96873 0.0
C3399 C 0.27523 0.97785 0.98078 0.0
N3400 N 0.22026 0.98307 0.98806 0.0
N3401 N 0.26197 0.97412 0.98845 0.0
H3402 H 0.25913 0.04228 0.25343 0.0
H3403 H 0.26308 0.95452 0.24983 0.0
H3404 H 0.26805 0.01773 0.2106 0.0
H3405 H 0.27004 0.97972 0.29268 0.0
H3406 H 0.27127 0.977 0.2355 0.0
H3407 H 0.26924 0.02054 0.26778 0.0
C3408 C 0.26362 0.03255 0.2469 0.0
C3409 C 0.26228 0.03179 0.23065 0.0
C3410 C 0.27139 0.97756 0.24805 0.0
C3411 C 0.27335 0.00636 0.24735 0.0
C3412 C 0.26678 0.96456 0.25638 0.0
C3413 C 0.26533 0.96522 0.27264 0.0
C3414 C 0.27412 0.99152 0.25591 0.0
C3415 C 0.27026 0.97881 0.28016 0.0
C3416 C 0.26937 0.02 0.25523 0.0
C3417 C 0.26824 0.01864 0.22312 0.0
N3418 N 0.274 0.99158 0.27172 0.0
N3419 N 0.27313 0.00626 0.23154 0.0
H3420 H 0.2931 0.01038 0.49677 0.0
H3421 H 0.20557 0.00267 0.50623 0.0
H3422 H 0.27004 0.01752 0.54069 0.0
H3423 H 0.22707 0.00993 0.46152 0.0
H3424 H 0.22783 0.01436 0.5186 0.0
H3425 H 0.26927 0.01685 0.48346 0.0
C3426 C 0.2832 0.01381 0.5037 0.0
C3427 C 0.2835 0.01284 0.51997 0.0
C3428 C 0.22757 0.01375 0.50605 0.0
C3429 C 0.25586 0.0197 0.50462 0.0
C3430 C 0.21472 0.0071 0.49889 0.0
C3431 C 0.21452 0.00483 0.48273 0.0
C3432 C 0.24054 0.01778 0.49709 0.0
C3433 C 0.22695 0.01081 0.47405 0.0
C3434 C 0.26947 0.01742 0.496 0.0
C3435 C 0.27019 0.01746 0.52814 0.0
N3436 N 0.23964 0.01663 0.48136 0.0
N3437 N 0.25677 0.02024 0.52038 0.0
H3438 H 0.23675 0.02232 0.78841 0.0
H3439 H 0.23182 0.98192 0.70594 0.0
H3440 H 0.24133 0.04589 0.74444 0.0
H3441 H 0.24003 0.95836 0.74941 0.0
H3442 H 0.22515 0.00538 0.72044 0.0
H3443 H 0.22781 -0.0008 0.77461 0.0
C3444 C 0.23562 0.02275 0.7759 0.0
C3445 C 0.24024 0.03595 0.76756 0.0
C3446 C 0.22803 0.99491 0.72676 0.0
C3447 C 0.22991 0.00963 0.75177 0.0
C3448 C 0.23192 0.98154 0.71849 0.0
C3449 C 0.23696 0.96822 0.72639 0.0
C3450 C 0.22918 0.99492 0.74301 0.0
C3451 C 0.23633 0.96828 0.7427 0.0
C3452 C 0.23042 0.00959 0.76805 0.0
C3453 C 0.23802 0.036 0.75141 0.0
N3454 N 0.23284 0.98151 0.75044 0.0
N3455 N 0.23331 0.02294 0.74402 0.0
H3456 H 0.01148 0.211 0.97486 0.0
H3457 H 0.00369 0.30146 0.989 0.0
H3458 H 0.04168 0.24003 0.00265 0.0
H3459 H 0.96389 0.27192 0.98121 0.0
H3460 H 0.02055 0.2801 0.98242 0.0
H3461 H 0.9972 0.23425 0.96713 0.0
C3462 C 0.01534 0.22211 0.97922 0.0
C3463 C 0.02762 0.22321 0.98999 0.0
C3464 C 0.00811 0.27839 0.9818 0.0
C3465 C 0.01175 0.24988 0.98038 0.0
C3466 C 0.99836 0.29068 0.98542 0.0
C3467 C 0.9822 0.28851 0.98602 0.0
C3468 C 0.00178 0.2637 0.97899 0.0
C3469 C 0.97627 0.27402 0.98141 0.0
C3470 C 0.00723 0.23538 0.97461 0.0
C3471 C 0.03242 0.23818 0.99444 0.0
N3472 N 0.98608 0.26202 0.97843 0.0
N3473 N 0.02438 0.25081 0.98975 0.0
H3474 H 0.49204 0.29427 0.00836 0.0
H3475 H 0.49784 0.20533 0.01312 0.0
H3476 H 0.53517 0.27002 0.01621 0.0
H3477 H 0.45416 0.22966 0.01718 0.0
H3478 H 0.5113 0.22867 0.02051 0.0
H3479 H 0.47794 0.27171 0.01751 0.0
C3480 C 0.49862 0.28439 0.01244 0.0
C3481 C 0.51486 0.28393 0.01112 0.0
C3482 C 0.49874 0.22888 0.02013 0.0
C3483 C 0.49864 0.25779 0.0212 0.0
C3484 C 0.49092 0.21539 0.016 0.0
C3485 C 0.47472 0.21548 0.01405 0.0
C3486 C 0.49042 0.24273 0.0219 0.0
C3487 C 0.46668 0.22914 0.01788 0.0
C3488 C 0.4905 0.27142 0.01761 0.0
C3489 C 0.52263 0.2707 0.01652 0.0
N3490 N 0.47464 0.24233 0.02121 0.0
N3491 N 0.51444 0.25802 0.02099 0.0
H3492 H 0.95761 0.25948 0.27263 0.0
H3493 H 0.04839 0.25505 0.26 0.0
H3494 H 0.98615 0.29101 0.24588 0.0
H3495 H 0.02013 0.21438 0.26801 0.0
H3496 H 0.02654 0.27125 0.26659 0.0
H3497 H 0.9812 0.24624 0.28113 0.0
C3498 C 0.96868 0.26385 0.26866 0.0
C3499 C 0.96958 0.27617 0.25793 0.0
C3500 C 0.02522 0.25877 0.26726 0.0
C3501 C 0.99659 0.26148 0.2684 0.0
C3502 C 0.0378 0.24939 0.26362 0.0
C3503 C 0.03611 0.23317 0.26304 0.0
C3504 C 0.01072 0.252 0.27004 0.0
C3505 C 0.02185 0.22681 0.26775 0.0
C3506 C 0.98213 0.25634 0.27372 0.0
C3507 C 0.98445 0.28166 0.25401 0.0
N3508 N 0.00955 0.23625 0.27069 0.0
N3509 N 0.99727 0.27417 0.2591 0.0
H3510 H 0.03956 0.75951 0.49736 0.0
H3511 H 0.95945 0.72868 0.5189 0.0
H3512 H 0.00695 0.78892 0.52177 0.0
H3513 H -0.00055 0.69931 0.5118 0.0
H3514 H 0.97693 0.75036 0.52445 0.0
H3515 H 0.02654 0.73715 0.50741 0.0
C3516 C 0.02993 0.7615 0.50512 0.0
C3517 C 0.02416 0.77646 0.50813 0.0
C3518 C 0.98181 0.73901 0.52217 0.0
C3519 C 0.00849 0.75028 0.51915 0.0
C3520 C 0.97184 0.72665 0.51887 0.0
C3521 C 0.9779 0.71218 0.51441 0.0
C3522 C 0.99791 0.73687 0.52083 0.0
C3523 C 0.99407 0.71016 0.51505 0.0
C3524 C 0.02234 0.74849 0.51082 0.0
C3525 C 0.01143 0.77772 0.51833 0.0
N3526 N 0.00347 0.72243 0.51783 0.0
N3527 N 0.00369 0.7648 0.52304 0.0
H3528 H 0.54159 0.72922 0.48219 0.0
H3529 H 0.46021 0.77167 0.48295 0.0
H3530 H 0.49743 0.70713 0.49071 0.0
H3531 H 0.50473 0.79369 0.48982 0.0
H3532 H 0.47363 0.74812 0.47459 0.0
H3533 H 0.52783 0.7525 0.47365 0.0
C3534 C 0.52903 0.72911 0.48195 0.0
C3535 C 0.52069 0.71635 0.48768 0.0
C3536 C 0.48039 0.7583 0.47752 0.0
C3537 C 0.50494 0.74282 0.47779 0.0
C3538 C 0.47275 0.77171 0.48241 0.0
C3539 C 0.48131 0.78458 0.48762 0.0
C3540 C 0.49666 0.7578 0.47781 0.0
C3541 C 0.49754 0.78412 0.48608 0.0
C3542 C 0.5212 0.74237 0.47699 0.0
C3543 C 0.50443 0.71668 0.48658 0.0
N3544 N 0.50468 0.77084 0.48162 0.0
N3545 N 0.49709 0.72984 0.48207 0.0
H3546 H 0.98948 0.70838 0.24833 0.0
H3547 H 0.01728 0.78917 0.22738 0.0
H3548 H 0.9581 0.74088 0.22635 0.0
H3549 H 0.04765 0.74952 0.23219 0.0
H3550 H 0.99589 0.77143 0.22167 0.0
H3551 H 0.0109 0.72165 0.23677 0.0
C3552 C 0.98684 0.71805 0.24083 0.0
C3553 C 0.97166 0.72376 0.23904 0.0
C3554 C 0.0074 0.76672 0.22346 0.0
C3555 C 0.99682 0.73976 0.22628 0.0
C3556 C 0.0196 0.77684 0.22689 0.0
C3557 C 0.03427 0.77093 0.23091 0.0
C3558 C 0.00991 0.75064 0.22416 0.0
C3559 C 0.03665 0.75485 0.22941 0.0
C3560 C -0.00069 0.7258 0.23424 0.0
C3561 C 0.96955 0.73651 0.22899 0.0
N3562 N 0.02454 0.7453 0.22651 0.0
N3563 N 0.98201 0.74442 0.22346 0.0
H3564 H 0.48804 0.20778 0.74159 0.0
H3565 H 0.54325 0.25795 0.71881 0.0
H3566 H 0.45412 0.23903 0.72193 0.0
H3567 H 0.50856 0.28575 0.74202 0.0
H3568 H 0.52272 0.24043 0.71001 0.0
H3569 H 0.50848 0.22365 0.73067 0.0
C3570 C 0.48474 0.2176 0.73453 0.0
C3571 C 0.4692 0.22239 0.73336 0.0
C3572 C 0.51968 0.25071 0.71657 0.0
C3573 C 0.49278 0.24088 0.7212 0.0
C3574 C 0.53135 0.26065 0.72176 0.0
C3575 C 0.5278 0.27292 0.73197 0.0
C3576 C 0.50436 0.25338 0.72123 0.0
C3577 C 0.51206 0.2763 0.73455 0.0
C3578 C 0.49653 0.22671 0.72825 0.0
C3579 C 0.46594 0.23533 0.72394 0.0
N3580 N 0.50095 0.26637 0.72949 0.0
N3581 N 0.47764 0.24456 0.71885 0.0
H3582 H 0.48581 0.45525 0.76933 0.0
H3583 H 0.48222 0.53788 0.72979 0.0
H3584 H 0.48798 0.49902 0.79364 0.0
H3585 H 0.49169 0.49464 0.70625 0.0
H3586 H 0.47395 0.52317 0.75258 0.0
H3587 H 0.47742 0.46904 0.74603 0.0
C3588 C 0.48422 0.4677 0.76988 0.0
C3589 C 0.48809 0.47603 0.78332 0.0
C3590 C 0.47746 0.51695 0.74225 0.0
C3591 C 0.47847 0.49182 0.75679 0.0
C3592 C 0.48227 0.52533 0.72927 0.0
C3593 C 0.48813 0.51754 0.71621 0.0
C3594 C 0.47855 0.5007 0.74214 0.0
C3595 C 0.48741 0.50125 0.71601 0.0
C3596 C 0.47935 0.47555 0.7566 0.0
C3597 C 0.4853 0.49209 0.78352 0.0
N3598 N 0.48303 0.49339 0.7289 0.0
N3599 N 0.481 0.4995 0.77034 0.0
H3600 H 0.78988 0.23364 0.01534 0.0
H3601 H 0.70657 0.2287 0.97694 0.0
H3602 H 0.74614 0.24042 0.03893 0.0
H3603 H 0.74924 0.23748 0.95219 0.0
H3604 H 0.72178 0.2216 -0.0002 0.0
H3605 H 0.77564 0.22409 0.99271 0.0
C3606 C 0.77736 0.23288 0.01593 0.0
C3607 C 0.76925 0.23832 0.02898 0.0
C3608 C 0.72777 0.22467 0.98919 0.0
C3609 C 0.75299 0.22708 0.00329 0.0
C3610 C 0.71911 0.2288 0.97617 0.0
C3611 C 0.72659 0.2342 0.96277 0.0
C3612 C 0.744 0.22602 0.98877 0.0
C3613 C 0.74288 0.23357 0.96227 0.0
C3614 C 0.76927 0.22729 0.00306 0.0
C3615 C 0.75304 0.23647 0.02923 0.0
N3616 N 0.75104 0.22992 0.97521 0.0
N3617 N 0.74546 0.23127 0.01649 0.0
H3618 H 0.00063 0.45345 0.23675 0.0
H3619 H 0.01722 0.53426 0.27013 0.0
H3620 H 0.02458 0.48798 0.2092 0.0
H3621 H 0.00871 0.4935 0.29806 0.0
H3622 H 0.0244 0.51733 0.24848 0.0
H3623 H 0.0087 0.46659 0.25977 0.0
C3624 C 0.00788 0.46355 0.23529 0.0
C3625 C 0.01126 0.46979 0.22058 0.0
C3626 C 0.02143 0.51217 0.25954 0.0
C3627 C 0.01994 0.4856 0.2476 0.0
C3628 C 0.01717 0.52183 0.27187 0.0
C3629 C 0.01193 0.51539 0.28591 0.0
C3630 C 0.02028 0.49601 0.26126 0.0
C3631 C 0.01259 0.49918 0.28758 0.0
C3632 C 0.01242 0.47123 0.2487 0.0
C3633 C 0.02078 0.4831 0.2201 0.0
N3634 N 0.01636 0.4901 0.27533 0.0
N3635 N 0.02433 0.49087 0.23338 0.0
H3636 H 0.74319 0.7556 0.45472 0.0
H3637 H 0.70764 0.76852 0.52272 0.0
H3638 H 0.78701 0.76352 0.47769 0.0
H3639 H 0.7524 0.75592 0.54126 0.0
H3640 H 0.72026 0.77651 0.49862 0.0
H3641 H 0.72981 0.76491 0.47739 0.0
C3642 C 0.75009 0.75985 0.46431 0.0
C3643 C 0.76632 0.75842 0.46434 0.0
C3644 C 0.72734 0.77209 0.50799 0.0
C3645 C 0.75087 0.76906 0.49077 0.0
C3646 C 0.72014 0.76765 0.52179 0.0
C3647 C 0.72892 0.76108 0.53381 0.0
C3648 C 0.74335 0.76959 0.50616 0.0
C3649 C 0.74512 0.76072 0.53224 0.0
C3650 C 0.74235 0.76525 0.47741 0.0
C3651 C 0.77447 0.76394 0.47732 0.0
N3652 N 0.75177 0.76457 0.51852 0.0
N3653 N 0.76664 0.76863 0.49016 0.0
H3654 H 0.73712 0.49826 0.53333 0.0
H3655 H 0.78846 0.46911 0.47894 0.0
H3656 H 0.70235 0.47422 0.50611 0.0
H3657 H 0.75698 0.50185 0.45758 0.0
H3658 H 0.76789 0.46195 0.49712 0.0
H3659 H 0.75674 0.48911 0.51556 0.0
C3660 C 0.73345 0.49072 0.52401 0.0
C3661 C 0.71767 0.48764 0.52107 0.0
C3662 C 0.76548 0.47025 0.488 0.0
C3663 C 0.74043 0.4776 0.50033 0.0
C3664 C 0.77723 0.47458 0.47775 0.0
C3665 C 0.77483 0.48677 0.46711 0.0
C3666 C 0.75111 0.47769 0.48715 0.0
C3667 C 0.75967 0.49263 0.46563 0.0
C3668 C 0.74482 0.48551 0.5138 0.0
C3669 C 0.71413 0.47777 0.50848 0.0
N3670 N 0.74848 0.48824 0.47576 0.0
N3671 N 0.72533 0.47371 0.49815 0.0
H3672 H 0.76154 0.47519 0.79089 0.0
H3673 H 0.7652 0.52004 0.71093 0.0
H3674 H 0.75494 0.45476 0.74557 0.0
H3675 H 0.7561 0.54094 0.75557 0.0
H3676 H 0.77295 0.49618 0.72414 0.0
H3677 H 0.77091 0.49886 0.77839 0.0
C3678 C 0.76235 0.47552 0.77836 0.0
C3679 C 0.75692 0.4631 0.7693 0.0
C3680 C 0.76967 0.50617 0.73101 0.0
C3681 C 0.76787 0.49 0.75501 0.0
C3682 C 0.76515 0.51976 0.72349 0.0
C3683 C 0.75946 0.53237 0.7321 0.0
C3684 C 0.76847 0.50523 0.74722 0.0
C3685 C 0.76021 0.53153 0.74837 0.0
C3686 C 0.76781 0.48899 0.77126 0.0
C3687 C 0.75882 0.464 0.75312 0.0
N3688 N 0.76428 0.51806 0.75539 0.0
N3689 N 0.76384 0.47735 0.7465 0.0
H3690 H 0.79546 0.5123 0.99739 0.0
H3691 H 0.70514 0.5234 0.98824 0.0
H3692 H 0.76464 0.51851 0.03653 0.0
H3693 H 0.73623 0.49946 0.95689 0.0
H3694 H 0.72767 0.53235 0.00297 0.0
H3695 H 0.77482 0.51976 0.9802 0.0
C3696 C 0.78456 0.51568 0.00258 0.0
C3697 C 0.78185 0.51434 0.01863 0.0
C3698 C 0.72942 0.52548 0.99259 0.0
C3699 C 0.75775 0.52226 0.99849 0.0
C3700 C 0.71658 0.52018 0.98422 0.0
C3701 C 0.71856 0.50994 0.97161 0.0
C3702 C 0.74431 0.52091 0.988 0.0
C3703 C 0.73379 0.50707 0.96654 0.0
C3704 C 0.77265 0.51983 0.99258 0.0
C3705 C 0.76718 0.51876 0.02424 0.0
N3706 N 0.746 0.51231 0.97489 0.0
N3707 N 0.75552 0.52214 0.01414 0.0
H3708 H 0.734 0.52297 0.28569 0.0
H3709 H 0.73202 0.47642 0.20655 0.0
H3710 H 0.74215 0.54228 0.24016 0.0
H3711 H 0.73919 0.45614 0.25178 0.0
H3712 H 0.72438 0.5007 0.21908 0.0
H3713 H 0.72481 0.49909 0.27343 0.0
C3714 C 0.73358 0.52236 0.27315 0.0
C3715 C 0.73937 0.53453 0.264 0.0
C3716 C 0.72722 0.49077 0.22623 0.0
C3717 C 0.72861 0.50738 0.24996 0.0
C3718 C 0.73165 0.47694 0.2191 0.0
C3719 C 0.73675 0.46437 0.2281 0.0
C3720 C 0.72795 0.49201 0.24245 0.0
C3721 C 0.73553 0.46553 0.24431 0.0
C3722 C 0.72822 0.50876 0.26618 0.0
C3723 C 0.73797 0.53326 0.2478 0.0
N3724 N 0.73159 0.47924 0.25097 0.0
N3725 N 0.73302 0.51981 0.24132 0.0
H3726 H 0.51748 0.70927 0.76663 0.0
H3727 H 0.47613 0.79121 0.76729 0.0
H3728 H 0.53996 0.75336 0.75864 0.0
H3729 H 0.45354 0.74714 0.75939 0.0
H3730 H 0.4994 0.77728 0.7756 0.0
H3731 H 0.49437 0.72315 0.77545 0.0
C3732 C 0.51771 0.72182 0.76702 0.0
C3733 C 0.53055 0.73011 0.76137 0.0
C3734 C 0.48915 0.77073 0.77246 0.0
C3735 C 0.50429 0.74599 0.77165 0.0
C3736 C 0.4759 0.77865 0.7676 0.0
C3737 C 0.46298 0.77038 0.7621 0.0
C3738 C 0.48942 0.75446 0.77182 0.0
C3739 C 0.46318 0.75412 0.76335 0.0
C3740 C 0.50456 0.72972 0.77216 0.0
C3741 C 0.53037 0.74637 0.76271 0.0
N3742 N 0.47631 0.7467 0.76778 0.0
N3743 N 0.51733 0.75377 0.76741 0.0
loop_
_geom_bond_atom_site_label_1
_geom_bond_atom_site_label_2
_geom_bond_distance
_geom_bond_site_symmetry_2
_ccdc_geom_bond_type
C0 C1 1.351 . S
C0 N3 1.368 . S
C0 H5 0.931 . S
C1 C0 1.351 . S
C1 N2 1.373 . S
C1 H29 0.930 . S
N2 C1 1.373 . S
N2 C4 1.340 . S
N3 C0 1.368 . S
N3 C4 1.321 . S
N3 Co6 2.135 . S
C4 N2 1.340 . S
C4 N3 1.321 . S
C4 H28 0.930 . S
H5 C0 0.931 . S
Co6 N3 2.135 . S
Co6 N9 2.121 . S
Co6 O14 2.055 . S
Co6 O17 2.039 . S
Co6 N20 2.140 . S
C7 O8 1.227 . S
C7 O17 1.265 . S
O8 C7 1.227 . S
N9 Co6 2.121 . S
N9 C11 1.375 . S
N9 C12 1.313 . S
C10 C11 1.338 . S
C10 N13 1.377 . S
C10 H30 0.930 1_455 S
C11 N9 1.375 . S
C11 C10 1.338 . S
C11 H15 0.931 . S
C12 N9 1.313 . S
C12 N13 1.344 . S
C12 H16 0.930 . S
N13 C10 1.377 . S
N13 C12 1.344 . S
O14 Co6 2.055 . S
O14 C18 1.253 . S
H15 C11 0.931 . S
H16 C12 0.930 . S
O17 Co6 2.039 . S
O17 C7 1.265 . S
C18 O14 1.253 . S
C18 O19 1.227 . S
O19 C18 1.227 . S
N20 Co6 2.140 . S
N20 C23 1.346 . S
N20 C24 1.345 . S
C21 C22 1.387 . S
C21 C25 1.391 . S
C22 C21 1.387 . S
C22 C23 1.369 . S
C22 H31 0.929 . S
C23 N20 1.346 . S
C23 C22 1.369 . S
C23 H26 0.928 . S
C24 N20 1.345 . S
C24 C25 1.371 . S
C24 H27 0.931 . S
C25 C21 1.391 . S
C25 C24 1.371 . S
C25 H32 0.930 . S
H26 C23 0.928 . S
H27 C24 0.931 . S
H28 C4 0.930 . S
H29 C1 0.930 . S
H30 C10 0.930 1_655 S
H31 C22 0.929 . S
H32 C25 0.930 . S
C33 C34 1.351 . S
C33 N36 1.368 . S
C33 H38 0.931 . S
C34 C33 1.351 . S
C34 N35 1.373 . S
C34 H62 0.930 . S
N35 C34 1.373 . S
N35 C37 1.340 . S
N36 C33 1.368 . S
N36 C37 1.321 . S
N36 Co39 2.135 . S
C37 N35 1.340 . S
C37 N36 1.321 . S
C37 H61 0.930 . S
H38 C33 0.931 . S
Co39 N36 2.135 . S
Co39 N42 2.121 . S
Co39 O47 2.055 . S
Co39 O50 2.039 . S
Co39 N53 2.140 . S
C40 O41 1.227 . S
C40 O50 1.265 . S
O41 C40 1.227 . S
N42 Co39 2.121 . S
N42 C44 1.375 . S
N42 C45 1.313 . S
C43 C44 1.338 . S
C43 N46 1.377 . S
C43 H63 0.930 . S
C44 N42 1.375 . S
C44 C43 1.338 . S
C44 H48 0.931 . S
C45 N42 1.313 . S
C45 N46 1.344 . S
C45 H49 0.930 . S
N46 C43 1.377 . S
N46 C45 1.344 . S
O47 Co39 2.055 . S
O47 C51 1.253 . S
H48 C44 0.931 . S
H49 C45 0.930 . S
O50 Co39 2.039 . S
O50 C40 1.265 . S
C51 O47 1.253 . S
C51 O52 1.227 . S
O52 C51 1.227 . S
N53 Co39 2.140 . S
N53 C56 1.346 . S
N53 C57 1.345 . S
C54 C55 1.387 . S
C54 C58 1.391 . S
C55 C54 1.387 . S
C55 C56 1.369 . S
C55 H64 0.929 . S
C56 N53 1.346 . S
C56 C55 1.369 . S
C56 H59 0.928 . S
C57 N53 1.345 . S
C57 C58 1.371 . S
C57 H60 0.931 . S
C58 C54 1.391 . S
C58 C57 1.371 . S
C58 H65 0.930 . S
H59 C56 0.928 . S
H60 C57 0.931 . S
H61 C37 0.930 . S
H62 C34 0.930 . S
H63 C43 0.930 . S
H64 C55 0.929 . S
H65 C58 0.930 . S
C66 C67 1.351 . S
C66 N69 1.368 . S
C66 H71 0.931 . S
C67 C66 1.351 . S
C67 N68 1.373 . S
C67 H95 0.930 . S
N68 C67 1.373 . S
N68 C70 1.340 . S
N69 C66 1.368 . S
N69 C70 1.321 . S
N69 Co72 2.135 . S
C70 N68 1.340 . S
C70 N69 1.321 . S
C70 H94 0.930 . S
H71 C66 0.931 . S
Co72 N69 2.135 . S
Co72 N75 2.121 . S
Co72 O80 2.055 . S
Co72 O83 2.039 . S
Co72 N86 2.140 . S
C73 O74 1.227 . S
C73 O83 1.265 . S
O74 C73 1.227 . S
N75 Co72 2.121 . S
N75 C77 1.375 . S
N75 C78 1.313 . S
C76 C77 1.338 . S
C76 N79 1.377 . S
C76 H96 0.930 . S
C77 N75 1.375 . S
C77 C76 1.338 . S
C77 H81 0.931 . S
C78 N75 1.313 . S
C78 N79 1.344 . S
C78 H82 0.930 . S
N79 C76 1.377 . S
N79 C78 1.344 . S
O80 Co72 2.055 . S
O80 C84 1.253 . S
H81 C77 0.931 . S
H82 C78 0.930 . S
O83 Co72 2.039 . S
O83 C73 1.265 . S
C84 O80 1.253 . S
C84 O85 1.227 . S
O85 C84 1.227 . S
N86 Co72 2.140 . S
N86 C89 1.346 . S
N86 C90 1.345 . S
C87 C88 1.387 . S
C87 C91 1.391 . S
C88 C87 1.387 . S
C88 C89 1.369 . S
C88 H97 0.929 . S
C89 N86 1.346 . S
C89 C88 1.369 . S
C89 H92 0.928 . S
C90 N86 1.345 . S
C90 C91 1.371 . S
C90 H93 0.931 . S
C91 C87 1.391 . S
C91 C90 1.371 . S
C91 H98 0.930 . S
H92 C89 0.928 . S
H93 C90 0.931 . S
H94 C70 0.930 . S
H95 C67 0.930 . S
H96 C76 0.930 . S
H97 C88 0.929 . S
H98 C91 0.930 . S
C99 C100 1.351 . S
C99 N102 1.368 . S
C99 H104 0.931 . S
C100 C99 1.351 . S
C100 N101 1.373 . S
C100 H128 0.930 . S
N101 C100 1.373 . S
N101 C103 1.340 . S
N102 C99 1.368 . S
N102 C103 1.321 . S
N102 Co105 2.135 . S
C103 N101 1.340 . S
C103 N102 1.321 . S
C103 H127 0.930 . S
H104 C99 0.931 . S
Co105 N102 2.135 . S
Co105 N108 2.121 . S
Co105 O113 2.055 . S
Co105 O116 2.039 . S
Co105 N119 2.140 . S
C106 O107 1.227 . S
C106 O116 1.265 . S
O107 C106 1.227 . S
N108 Co105 2.121 . S
N108 C110 1.375 . S
N108 C111 1.313 . S
C109 C110 1.338 . S
C109 N112 1.377 . S
C109 H129 0.930 . S
C110 N108 1.375 . S
C110 C109 1.338 . S
C110 H114 0.931 . S
C111 N108 1.313 . S
C111 N112 1.344 . S
C111 H115 0.930 . S
N112 C109 1.377 . S
N112 C111 1.344 . S
O113 Co105 2.055 . S
O113 C117 1.253 . S
H114 C110 0.931 . S
H115 C111 0.930 . S
O116 Co105 2.039 . S
O116 C106 1.265 . S
C117 O113 1.253 . S
C117 O118 1.227 . S
O118 C117 1.227 . S
N119 Co105 2.140 . S
N119 C122 1.346 . S
N119 C123 1.345 . S
C120 C121 1.387 . S
C120 C124 1.391 . S
C121 C120 1.387 . S
C121 C122 1.369 . S
C121 H130 0.929 . S
C122 N119 1.346 . S
C122 C121 1.369 . S
C122 H125 0.928 . S
C123 N119 1.345 . S
C123 C124 1.371 . S
C123 H126 0.931 . S
C124 C120 1.391 . S
C124 C123 1.371 . S
C124 H131 0.930 . S
H125 C122 0.928 . S
H126 C123 0.931 . S
H127 C103 0.930 . S
H128 C100 0.930 . S
H129 C109 0.930 . S
H130 C121 0.929 . S
H131 C124 0.930 . S
C132 C133 1.351 . S
C132 N135 1.368 . S
C132 H137 0.931 . S
C133 C132 1.351 . S
C133 N134 1.373 . S
C133 H161 0.930 . S
N134 C133 1.373 . S
N134 C136 1.340 . S
N135 C132 1.368 . S
N135 C136 1.321 . S
N135 Co138 2.135 . S
C136 N134 1.340 . S
C136 N135 1.321 . S
C136 H160 0.930 . S
H137 C132 0.931 . S
Co138 N135 2.135 . S
Co138 N141 2.121 . S
Co138 O146 2.055 . S
Co138 O149 2.039 . S
Co138 N152 2.140 . S
C139 O140 1.227 . S
C139 O149 1.265 . S
O140 C139 1.227 . S
N141 Co138 2.121 . S
N141 C143 1.375 . S
N141 C144 1.313 . S
C142 C143 1.338 . S
C142 N145 1.377 . S
C142 H162 0.930 1_455 S
C143 N141 1.375 . S
C143 C142 1.338 . S
C143 H147 0.931 . S
C144 N141 1.313 . S
C144 N145 1.344 . S
C144 H148 0.930 . S
N145 C142 1.377 . S
N145 C144 1.344 . S
O146 Co138 2.055 . S
O146 C150 1.253 . S
H147 C143 0.931 . S
H148 C144 0.930 . S
O149 Co138 2.039 . S
O149 C139 1.265 . S
C150 O146 1.253 . S
C150 O151 1.227 . S
O151 C150 1.227 . S
N152 Co138 2.140 . S
N152 C155 1.346 . S
N152 C156 1.345 . S
C153 C154 1.387 . S
C153 C157 1.391 . S
C154 C153 1.387 . S
C154 C155 1.369 . S
C154 H163 0.929 . S
C155 N152 1.346 . S
C155 C154 1.369 . S
C155 H158 0.928 . S
C156 N152 1.345 . S
C156 C157 1.371 . S
C156 H159 0.931 . S
C157 C153 1.391 . S
C157 C156 1.371 . S
C157 H164 0.930 . S
H158 C155 0.928 . S
H159 C156 0.931 . S
H160 C136 0.930 . S
H161 C133 0.930 . S
H162 C142 0.930 1_655 S
H163 C154 0.929 . S
H164 C157 0.930 . S
C165 C166 1.351 . S
C165 N168 1.368 . S
C165 H170 0.931 . S
C166 C165 1.351 . S
C166 N167 1.373 . S
C166 H194 0.930 . S
N167 C166 1.373 . S
N167 C169 1.340 . S
N168 C165 1.368 . S
N168 C169 1.321 . S
N168 Co171 2.135 . S
C169 N167 1.340 . S
C169 N168 1.321 . S
C169 H193 0.930 . S
H170 C165 0.931 . S
Co171 N168 2.135 . S
Co171 N174 2.121 . S
Co171 O179 2.055 . S
Co171 O182 2.039 . S
Co171 N185 2.140 . S
C172 O173 1.227 . S
C172 O182 1.265 . S
O173 C172 1.227 . S
N174 Co171 2.121 . S
N174 C176 1.375 . S
N174 C177 1.313 . S
C175 C176 1.338 . S
C175 N178 1.377 . S
C175 H195 0.930 . S
C176 N174 1.375 . S
C176 C175 1.338 . S
C176 H180 0.931 . S
C177 N174 1.313 . S
C177 N178 1.344 . S
C177 H181 0.930 . S
N178 C175 1.377 . S
N178 C177 1.344 . S
O179 Co171 2.055 . S
O179 C183 1.253 . S
H180 C176 0.931 . S
H181 C177 0.930 . S
O182 Co171 2.039 . S
O182 C172 1.265 . S
C183 O179 1.253 . S
C183 O184 1.227 . S
O184 C183 1.227 . S
N185 Co171 2.140 . S
N185 C188 1.346 . S
N185 C189 1.345 . S
C186 C187 1.387 . S
C186 C190 1.391 . S
C187 C186 1.387 . S
C187 C188 1.369 . S
C187 H196 0.929 . S
C188 N185 1.346 . S
C188 C187 1.369 . S
C188 H191 0.928 . S
C189 N185 1.345 . S
C189 C190 1.371 . S
C189 H192 0.931 . S
C190 C186 1.391 . S
C190 C189 1.371 . S
C190 H197 0.930 . S
H191 C188 0.928 . S
H192 C189 0.931 . S
H193 C169 0.930 . S
H194 C166 0.930 . S
H195 C175 0.930 . S
H196 C187 0.929 . S
H197 C190 0.930 . S
C198 C199 1.351 . S
C198 N201 1.368 . S
C198 H203 0.931 . S
C199 C198 1.351 . S
C199 N200 1.373 . S
C199 H227 0.930 . S
N200 C199 1.373 . S
N200 C202 1.340 . S
N201 C198 1.368 . S
N201 C202 1.321 . S
N201 Co204 2.135 . S
C202 N200 1.340 . S
C202 N201 1.321 . S
C202 H226 0.930 . S
H203 C198 0.931 . S
Co204 N201 2.135 . S
Co204 N207 2.121 . S
Co204 O212 2.055 . S
Co204 O215 2.039 . S
Co204 N218 2.140 . S
C205 O206 1.227 . S
C205 O215 1.265 . S
O206 C205 1.227 . S
N207 Co204 2.121 . S
N207 C209 1.375 . S
N207 C210 1.313 . S
C208 C209 1.338 . S
C208 N211 1.377 . S
C208 H228 0.930 . S
C209 N207 1.375 . S
C209 C208 1.338 . S
C209 H213 0.931 . S
C210 N207 1.313 . S
C210 N211 1.344 . S
C210 H214 0.930 . S
N211 C208 1.377 . S
N211 C210 1.344 . S
O212 Co204 2.055 . S
O212 C216 1.253 . S
H213 C209 0.931 . S
H214 C210 0.930 . S
O215 Co204 2.039 . S
O215 C205 1.265 . S
C216 O212 1.253 . S
C216 O217 1.227 . S
O217 C216 1.227 . S
N218 Co204 2.140 . S
N218 C221 1.346 . S
N218 C222 1.345 . S
C219 C220 1.387 . S
C219 C223 1.391 . S
C220 C219 1.387 . S
C220 C221 1.369 . S
C220 H229 0.929 . S
C221 N218 1.346 . S
C221 C220 1.369 . S
C221 H224 0.928 . S
C222 N218 1.345 . S
C222 C223 1.371 . S
C222 H225 0.931 . S
C223 C219 1.391 . S
C223 C222 1.371 . S
C223 H230 0.930 . S
H224 C221 0.928 . S
H225 C222 0.931 . S
H226 C202 0.930 . S
H227 C199 0.930 . S
H228 C208 0.930 . S
H229 C220 0.929 . S
H230 C223 0.930 . S
C231 C232 1.351 . S
C231 N234 1.368 . S
C231 H236 0.931 . S
C232 C231 1.351 . S
C232 N233 1.373 . S
C232 H260 0.930 . S
N233 C232 1.373 . S
N233 C235 1.340 . S
N234 C231 1.368 . S
N234 C235 1.321 . S
N234 Co237 2.135 . S
C235 N233 1.340 . S
C235 N234 1.321 . S
C235 H259 0.930 . S
H236 C231 0.931 . S
Co237 N234 2.135 . S
Co237 N240 2.121 . S
Co237 O245 2.055 . S
Co237 O248 2.039 . S
Co237 N251 2.140 . S
C238 O239 1.227 . S
C238 O248 1.265 . S
O239 C238 1.227 . S
N240 Co237 2.121 . S
N240 C242 1.375 . S
N240 C243 1.313 . S
C241 C242 1.338 . S
C241 N244 1.377 . S
C241 H261 0.930 . S
C242 N240 1.375 . S
C242 C241 1.338 . S
C242 H246 0.931 . S
C243 N240 1.313 . S
C243 N244 1.344 . S
C243 H247 0.930 . S
N244 C241 1.377 . S
N244 C243 1.344 . S
O245 Co237 2.055 . S
O245 C249 1.253 . S
H246 C242 0.931 . S
H247 C243 0.930 . S
O248 Co237 2.039 . S
O248 C238 1.265 . S
C249 O245 1.253 . S
C249 O250 1.227 . S
O250 C249 1.227 . S
N251 Co237 2.140 . S
N251 C254 1.346 . S
N251 C255 1.345 . S
C252 C253 1.387 . S
C252 C256 1.391 . S
C253 C252 1.387 . S
C253 C254 1.369 . S
C253 H262 0.929 . S
C254 N251 1.346 . S
C254 C253 1.369 . S
C254 H257 0.928 . S
C255 N251 1.345 . S
C255 C256 1.371 . S
C255 H258 0.931 . S
C256 C252 1.391 . S
C256 C255 1.371 . S
C256 H263 0.930 . S
H257 C254 0.928 . S
H258 C255 0.931 . S
H259 C235 0.930 . S
H260 C232 0.930 . S
H261 C241 0.930 . S
H262 C253 0.929 . S
H263 C256 0.930 . S
C264 C265 1.351 . S
C264 N267 1.368 . S
C264 H269 0.931 . S
C265 C264 1.351 . S
C265 N266 1.373 . S
C265 H293 0.930 . S
N266 C265 1.373 . S
N266 C268 1.340 . S
N267 C264 1.368 . S
N267 C268 1.321 . S
N267 Co270 2.135 . S
C268 N266 1.340 . S
C268 N267 1.321 . S
C268 H292 0.930 . S
H269 C264 0.931 . S
Co270 N267 2.135 . S
Co270 N273 2.121 . S
Co270 O278 2.055 . S
Co270 O281 2.039 . S
Co270 N284 2.140 . S
C271 O272 1.227 . S
C271 O281 1.265 . S
O272 C271 1.227 . S
N273 Co270 2.121 . S
N273 C275 1.375 . S
N273 C276 1.313 . S
C274 C275 1.338 . S
C274 N277 1.377 . S
C274 H294 0.930 1_545 S
C275 N273 1.375 . S
C275 C274 1.338 . S
C275 H279 0.931 . S
C276 N273 1.313 . S
C276 N277 1.344 . S
C276 H280 0.930 . S
N277 C274 1.377 . S
N277 C276 1.344 . S
O278 Co270 2.055 . S
O278 C282 1.253 . S
H279 C275 0.931 . S
H280 C276 0.930 . S
O281 Co270 2.039 . S
O281 C271 1.265 . S
C282 O278 1.253 . S
C282 O283 1.227 . S
O283 C282 1.227 . S
N284 Co270 2.140 . S
N284 C287 1.346 . S
N284 C288 1.345 . S
C285 C286 1.387 . S
C285 C289 1.391 . S
C286 C285 1.387 . S
C286 C287 1.369 . S
C286 H295 0.929 . S
C287 N284 1.346 . S
C287 C286 1.369 . S
C287 H290 0.928 . S
C288 N284 1.345 . S
C288 C289 1.371 . S
C288 H291 0.931 . S
C289 C285 1.391 . S
C289 C288 1.371 . S
C289 H296 0.930 . S
H290 C287 0.928 . S
H291 C288 0.931 . S
H292 C268 0.930 . S
H293 C265 0.930 . S
H294 C274 0.930 1_565 S
H295 C286 0.929 . S
H296 C289 0.930 . S
C297 C298 1.351 . S
C297 N300 1.368 . S
C297 H302 0.931 . S
C298 C297 1.351 . S
C298 N299 1.373 . S
C298 H326 0.930 . S
N299 C298 1.373 . S
N299 C301 1.340 . S
N300 C297 1.368 . S
N300 C301 1.321 . S
N300 Co303 2.135 . S
C301 N299 1.340 . S
C301 N300 1.321 . S
C301 H325 0.930 . S
H302 C297 0.931 . S
Co303 N300 2.135 . S
Co303 N306 2.121 . S
Co303 O311 2.055 . S
Co303 O314 2.039 . S
Co303 N317 2.140 . S
C304 O305 1.227 . S
C304 O314 1.265 . S
O305 C304 1.227 . S
N306 Co303 2.121 . S
N306 C308 1.375 . S
N306 C309 1.313 . S
C307 C308 1.338 . S
C307 N310 1.377 . S
C307 H327 0.930 . S
C308 N306 1.375 . S
C308 C307 1.338 . S
C308 H312 0.931 . S
C309 N306 1.313 . S
C309 N310 1.344 . S
C309 H313 0.930 . S
N310 C307 1.377 . S
N310 C309 1.344 . S
O311 Co303 2.055 . S
O311 C315 1.253 . S
H312 C308 0.931 . S
H313 C309 0.930 . S
O314 Co303 2.039 . S
O314 C304 1.265 . S
C315 O311 1.253 . S
C315 O316 1.227 . S
O316 C315 1.227 . S
N317 Co303 2.140 . S
N317 C320 1.346 . S
N317 C321 1.345 . S
C318 C319 1.387 . S
C318 C322 1.391 . S
C319 C318 1.387 . S
C319 C320 1.369 . S
C319 H328 0.929 . S
C320 N317 1.346 . S
C320 C319 1.369 . S
C320 H323 0.928 . S
C321 N317 1.345 . S
C321 C322 1.371 . S
C321 H324 0.931 . S
C322 C318 1.391 . S
C322 C321 1.371 . S
C322 H329 0.930 . S
H323 C320 0.928 . S
H324 C321 0.931 . S
H325 C301 0.930 . S
H326 C298 0.930 . S
H327 C307 0.930 . S
H328 C319 0.929 . S
H329 C322 0.930 . S
C330 C331 1.351 . S
C330 N333 1.368 . S
C330 H335 0.931 . S
C331 C330 1.351 . S
C331 N332 1.373 . S
C331 H359 0.930 . S
N332 C331 1.373 . S
N332 C334 1.340 . S
N333 C330 1.368 . S
N333 C334 1.321 . S
N333 Co336 2.135 . S
C334 N332 1.340 . S
C334 N333 1.321 . S
C334 H358 0.930 . S
H335 C330 0.931 . S
Co336 N333 2.135 . S
Co336 N339 2.121 . S
Co336 O344 2.055 . S
Co336 O347 2.039 . S
Co336 N350 2.140 . S
C337 O338 1.227 . S
C337 O347 1.265 . S
O338 C337 1.227 . S
N339 Co336 2.121 . S
N339 C341 1.375 . S
N339 C342 1.313 . S
C340 C341 1.338 . S
C340 N343 1.377 . S
C340 H360 0.930 1_565 S
C341 N339 1.375 . S
C341 C340 1.338 . S
C341 H345 0.931 . S
C342 N339 1.313 . S
C342 N343 1.344 . S
C342 H346 0.930 . S
N343 C340 1.377 . S
N343 C342 1.344 . S
O344 Co336 2.055 . S
O344 C348 1.253 . S
H345 C341 0.931 . S
H346 C342 0.930 . S
O347 Co336 2.039 . S
O347 C337 1.265 . S
C348 O344 1.253 . S
C348 O349 1.227 . S
O349 C348 1.227 . S
N350 Co336 2.140 . S
N350 C353 1.346 . S
N350 C354 1.345 . S
C351 C352 1.387 . S
C351 C355 1.391 . S
C352 C351 1.387 . S
C352 C353 1.369 . S
C352 H361 0.929 . S
C353 N350 1.346 . S
C353 C352 1.369 . S
C353 H356 0.928 . S
C354 N350 1.345 . S
C354 C355 1.371 . S
C354 H357 0.931 . S
C355 C351 1.391 . S
C355 C354 1.371 . S
C355 H362 0.930 . S
H356 C353 0.928 . S
H357 C354 0.931 . S
H358 C334 0.930 . S
H359 C331 0.930 . S
H360 C340 0.930 1_545 S
H361 C352 0.929 . S
H362 C355 0.930 . S
C363 C364 1.351 . S
C363 N366 1.368 . S
C363 H368 0.931 . S
C364 C363 1.351 . S
C364 N365 1.373 . S
C364 H392 0.930 . S
N365 C364 1.373 . S
N365 C367 1.340 . S
N366 C363 1.368 . S
N366 C367 1.321 . S
N366 Co369 2.135 . S
C367 N365 1.340 . S
C367 N366 1.321 . S
C367 H391 0.930 . S
H368 C363 0.931 . S
Co369 N366 2.135 . S
Co369 N372 2.121 . S
Co369 O377 2.055 . S
Co369 O380 2.039 . S
Co369 N383 2.140 . S
C370 O371 1.227 . S
C370 O380 1.265 . S
O371 C370 1.227 . S
N372 Co369 2.121 . S
N372 C374 1.375 . S
N372 C375 1.313 . S
C373 C374 1.338 . S
C373 N376 1.377 . S
C373 H393 0.930 . S
C374 N372 1.375 . S
C374 C373 1.338 . S
C374 H378 0.931 . S
C375 N372 1.313 . S
C375 N376 1.344 . S
C375 H379 0.930 . S
N376 C373 1.377 . S
N376 C375 1.344 . S
O377 Co369 2.055 . S
O377 C381 1.253 . S
H378 C374 0.931 . S
H379 C375 0.930 . S
O380 Co369 2.039 . S
O380 C370 1.265 . S
C381 O377 1.253 . S
C381 O382 1.227 . S
O382 C381 1.227 . S
N383 Co369 2.140 . S
N383 C386 1.346 . S
N383 C387 1.345 . S
C384 C385 1.387 . S
C384 C388 1.391 . S
C385 C384 1.387 . S
C385 C386 1.369 . S
C385 H394 0.929 . S
C386 N383 1.346 . S
C386 C385 1.369 . S
C386 H389 0.928 . S
C387 N383 1.345 . S
C387 C388 1.371 . S
C387 H390 0.931 . S
C388 C384 1.391 . S
C388 C387 1.371 . S
C388 H395 0.930 . S
H389 C386 0.928 . S
H390 C387 0.931 . S
H391 C367 0.930 . S
H392 C364 0.930 . S
H393 C373 0.930 . S
H394 C385 0.929 . S
H395 C388 0.930 . S
C396 C397 1.351 . S
C396 N399 1.368 . S
C396 H401 0.931 . S
C397 C396 1.351 . S
C397 N398 1.373 . S
C397 H425 0.930 . S
N398 C397 1.373 . S
N398 C400 1.340 . S
N399 C396 1.368 . S
N399 C400 1.321 . S
N399 Co402 2.135 . S
C400 N398 1.340 . S
C400 N399 1.321 . S
C400 H424 0.930 . S
H401 C396 0.931 . S
Co402 N399 2.135 . S
Co402 N405 2.121 . S
Co402 O410 2.055 . S
Co402 O413 2.039 . S
Co402 N416 2.140 . S
C403 O404 1.227 . S
C403 O413 1.265 . S
O404 C403 1.227 . S
N405 Co402 2.121 . S
N405 C407 1.375 . S
N405 C408 1.313 . S
C406 C407 1.338 . S
C406 N409 1.377 . S
C406 H426 0.930 1_565 S
C407 N405 1.375 . S
C407 C406 1.338 . S
C407 H411 0.931 . S
C408 N405 1.313 . S
C408 N409 1.344 . S
C408 H412 0.930 . S
N409 C406 1.377 . S
N409 C408 1.344 . S
O410 Co402 2.055 . S
O410 C414 1.253 . S
H411 C407 0.931 . S
H412 C408 0.930 . S
O413 Co402 2.039 . S
O413 C403 1.265 . S
C414 O410 1.253 . S
C414 O415 1.227 . S
O415 C414 1.227 . S
N416 Co402 2.140 . S
N416 C419 1.346 . S
N416 C420 1.345 . S
C417 C418 1.387 . S
C417 C421 1.391 . S
C418 C417 1.387 . S
C418 C419 1.369 . S
C418 H427 0.929 . S
C419 N416 1.346 . S
C419 C418 1.369 . S
C419 H422 0.928 . S
C420 N416 1.345 . S
C420 C421 1.371 . S
C420 H423 0.931 . S
C421 C417 1.391 . S
C421 C420 1.371 . S
C421 H428 0.930 . S
H422 C419 0.928 . S
H423 C420 0.931 . S
H424 C400 0.930 . S
H425 C397 0.930 . S
H426 C406 0.930 1_545 S
H427 C418 0.929 . S
H428 C421 0.930 . S
C429 C430 1.351 . S
C429 N432 1.368 . S
C429 H434 0.931 . S
C430 C429 1.351 . S
C430 N431 1.373 . S
C430 H458 0.930 . S
N431 C430 1.373 . S
N431 C433 1.340 . S
N432 C429 1.368 . S
N432 C433 1.321 . S
N432 Co435 2.135 . S
C433 N431 1.340 . S
C433 N432 1.321 . S
C433 H457 0.930 . S
H434 C429 0.931 . S
Co435 N432 2.135 . S
Co435 N438 2.121 . S
Co435 O443 2.055 . S
Co435 O446 2.039 . S
Co435 N449 2.140 . S
C436 O437 1.227 . S
C436 O446 1.265 . S
O437 C436 1.227 . S
N438 Co435 2.121 . S
N438 C440 1.375 . S
N438 C441 1.313 . S
C439 C440 1.338 . S
C439 N442 1.377 . S
C439 H459 0.930 . S
C440 N438 1.375 . S
C440 C439 1.338 . S
C440 H444 0.931 . S
C441 N438 1.313 . S
C441 N442 1.344 . S
C441 H445 0.930 . S
N442 C439 1.377 . S
N442 C441 1.344 . S
O443 Co435 2.055 . S
O443 C447 1.253 . S
H444 C440 0.931 . S
H445 C441 0.930 . S
O446 Co435 2.039 . S
O446 C436 1.265 . S
C447 O443 1.253 . S
C447 O448 1.227 . S
O448 C447 1.227 . S
N449 Co435 2.140 . S
N449 C452 1.346 . S
N449 C453 1.345 . S
C450 C451 1.387 . S
C450 C454 1.391 . S
C451 C450 1.387 . S
C451 C452 1.369 . S
C451 H460 0.929 . S
C452 N449 1.346 . S
C452 C451 1.369 . S
C452 H455 0.928 . S
C453 N449 1.345 . S
C453 C454 1.371 . S
C453 H456 0.931 . S
C454 C450 1.391 . S
C454 C453 1.371 . S
C454 H461 0.930 . S
H455 C452 0.928 . S
H456 C453 0.931 . S
H457 C433 0.930 . S
H458 C430 0.930 . S
H459 C439 0.930 . S
H460 C451 0.929 . S
H461 C454 0.930 . S
C462 C463 1.351 . S
C462 N465 1.368 . S
C462 H467 0.931 . S
C463 C462 1.351 . S
C463 N464 1.373 . S
C463 H491 0.930 . S
N464 C463 1.373 . S
N464 C466 1.340 . S
N465 C462 1.368 . S
N465 C466 1.321 . S
N465 Co468 2.135 . S
C466 N464 1.340 . S
C466 N465 1.321 . S
C466 H490 0.930 . S
H467 C462 0.931 . S
Co468 N465 2.135 . S
Co468 N471 2.121 . S
Co468 O476 2.055 . S
Co468 O479 2.039 . S
Co468 N482 2.140 . S
C469 O470 1.227 . S
C469 O479 1.265 . S
O470 C469 1.227 . S
N471 Co468 2.121 . S
N471 C473 1.375 . S
N471 C474 1.313 . S
C472 C473 1.338 . S
C472 N475 1.377 . S
C472 H492 0.930 1_545 S
C473 N471 1.375 . S
C473 C472 1.338 . S
C473 H477 0.931 . S
C474 N471 1.313 . S
C474 N475 1.344 . S
C474 H478 0.930 . S
N475 C472 1.377 . S
N475 C474 1.344 . S
O476 Co468 2.055 . S
O476 C480 1.253 . S
H477 C473 0.931 . S
H478 C474 0.930 . S
O479 Co468 2.039 . S
O479 C469 1.265 . S
C480 O476 1.253 . S
C480 O481 1.227 . S
O481 C480 1.227 . S
N482 Co468 2.140 . S
N482 C485 1.346 . S
N482 C486 1.345 . S
C483 C484 1.387 . S
C483 C487 1.391 . S
C484 C483 1.387 . S
C484 C485 1.369 . S
C484 H493 0.929 . S
C485 N482 1.346 . S
C485 C484 1.369 . S
C485 H488 0.928 . S
C486 N482 1.345 . S
C486 C487 1.371 . S
C486 H489 0.931 . S
C487 C483 1.391 . S
C487 C486 1.371 . S
C487 H494 0.930 . S
H488 C485 0.928 . S
H489 C486 0.931 . S
H490 C466 0.930 . S
H491 C463 0.930 . S
H492 C472 0.930 1_565 S
H493 C484 0.929 . S
H494 C487 0.930 . S
C495 C496 1.351 . S
C495 N498 1.368 . S
C495 H500 0.931 . S
C496 C495 1.351 . S
C496 N497 1.373 . S
C496 H524 0.930 . S
N497 C496 1.373 . S
N497 C499 1.340 . S
N498 C495 1.368 . S
N498 C499 1.321 . S
N498 Co501 2.135 . S
C499 N497 1.340 . S
C499 N498 1.321 . S
C499 H523 0.930 . S
H500 C495 0.931 . S
Co501 N498 2.135 . S
Co501 N504 2.121 . S
Co501 O509 2.055 . S
Co501 O512 2.039 . S
Co501 N515 2.140 . S
C502 O503 1.227 . S
C502 O512 1.265 . S
O503 C502 1.227 . S
N504 Co501 2.121 . S
N504 C506 1.375 . S
N504 C507 1.313 . S
C505 C506 1.338 . S
C505 N508 1.377 . S
C505 H525 0.930 . S
C506 N504 1.375 . S
C506 C505 1.338 . S
C506 H510 0.931 . S
C507 N504 1.313 . S
C507 N508 1.344 . S
C507 H511 0.930 . S
N508 C505 1.377 . S
N508 C507 1.344 . S
O509 Co501 2.055 . S
O509 C513 1.253 . S
H510 C506 0.931 . S
H511 C507 0.930 . S
O512 Co501 2.039 . S
O512 C502 1.265 . S
C513 O509 1.253 . S
C513 O514 1.227 . S
O514 C513 1.227 . S
N515 Co501 2.140 . S
N515 C518 1.346 . S
N515 C519 1.345 . S
C516 C517 1.387 . S
C516 C520 1.391 . S
C517 C516 1.387 . S
C517 C518 1.369 . S
C517 H526 0.929 . S
C518 N515 1.346 . S
C518 C517 1.369 . S
C518 H521 0.928 . S
C519 N515 1.345 . S
C519 C520 1.371 . S
C519 H522 0.931 . S
C520 C516 1.391 . S
C520 C519 1.371 . S
C520 H527 0.930 . S
H521 C518 0.928 . S
H522 C519 0.931 . S
H523 C499 0.930 . S
H524 C496 0.930 . S
H525 C505 0.930 . S
H526 C517 0.929 . S
H527 C520 0.930 . S
C528 C529 1.351 . S
C528 N531 1.368 . S
C528 H533 0.931 . S
C529 C528 1.351 . S
C529 N530 1.373 . S
C529 H557 0.930 . S
N530 C529 1.373 . S
N530 C532 1.340 . S
N531 C528 1.368 . S
N531 C532 1.321 . S
N531 Co534 2.135 . S
C532 N530 1.340 . S
C532 N531 1.321 . S
C532 H556 0.930 . S
H533 C528 0.931 . S
Co534 N531 2.135 . S
Co534 N537 2.121 . S
Co534 O542 2.055 . S
Co534 O545 2.039 . S
Co534 N548 2.140 . S
C535 O536 1.227 . S
C535 O545 1.265 . S
O536 C535 1.227 . S
N537 Co534 2.121 . S
N537 C539 1.375 . S
N537 C540 1.313 . S
C538 C539 1.338 . S
C538 N541 1.377 . S
C538 H558 0.930 1_554 S
C539 N537 1.375 . S
C539 C538 1.338 . S
C539 H543 0.931 . S
C540 N537 1.313 . S
C540 N541 1.344 . S
C540 H544 0.930 . S
N541 C538 1.377 . S
N541 C540 1.344 . S
O542 Co534 2.055 . S
O542 C546 1.253 . S
H543 C539 0.931 . S
H544 C540 0.930 . S
O545 Co534 2.039 . S
O545 C535 1.265 . S
C546 O542 1.253 . S
C546 O547 1.227 . S
O547 C546 1.227 . S
N548 Co534 2.140 . S
N548 C551 1.346 . S
N548 C552 1.345 . S
C549 C550 1.387 . S
C549 C553 1.391 . S
C550 C549 1.387 . S
C550 C551 1.369 . S
C550 H559 0.929 . S
C551 N548 1.346 . S
C551 C550 1.369 . S
C551 H554 0.928 . S
C552 N548 1.345 . S
C552 C553 1.371 . S
C552 H555 0.931 . S
C553 C549 1.391 . S
C553 C552 1.371 . S
C553 H560 0.930 . S
H554 C551 0.928 . S
H555 C552 0.931 . S
H556 C532 0.930 . S
H557 C529 0.930 . S
H558 C538 0.930 1_556 S
H559 C550 0.929 . S
H560 C553 0.930 . S
C561 C562 1.351 . S
C561 N564 1.368 . S
C561 H566 0.931 . S
C562 C561 1.351 . S
C562 N563 1.373 . S
C562 H590 0.930 . S
N563 C562 1.373 . S
N563 C565 1.340 . S
N564 C561 1.368 . S
N564 C565 1.321 . S
N564 Co567 2.135 . S
C565 N563 1.340 . S
C565 N564 1.321 . S
C565 H589 0.930 . S
H566 C561 0.931 . S
Co567 N564 2.135 . S
Co567 N570 2.121 . S
Co567 O575 2.055 . S
Co567 O578 2.039 . S
Co567 N581 2.140 . S
C568 O569 1.227 . S
C568 O578 1.265 . S
O569 C568 1.227 . S
N570 Co567 2.121 . S
N570 C572 1.375 . S
N570 C573 1.313 . S
C571 C572 1.338 . S
C571 N574 1.377 . S
C571 H591 0.930 1_556 S
C572 N570 1.375 . S
C572 C571 1.338 . S
C572 H576 0.931 . S
C573 N570 1.313 . S
C573 N574 1.344 . S
C573 H577 0.930 . S
N574 C571 1.377 . S
N574 C573 1.344 . S
O575 Co567 2.055 . S
O575 C579 1.253 . S
H576 C572 0.931 . S
H577 C573 0.930 . S
O578 Co567 2.039 . S
O578 C568 1.265 . S
C579 O575 1.253 . S
C579 O580 1.227 . S
O580 C579 1.227 . S
N581 Co567 2.140 . S
N581 C584 1.346 . S
N581 C585 1.345 . S
C582 C583 1.387 . S
C582 C586 1.391 . S
C583 C582 1.387 . S
C583 C584 1.369 . S
C583 H592 0.929 . S
C584 N581 1.346 . S
C584 C583 1.369 . S
C584 H587 0.928 . S
C585 N581 1.345 . S
C585 C586 1.371 . S
C585 H588 0.931 . S
C586 C582 1.391 . S
C586 C585 1.371 . S
C586 H593 0.930 . S
H587 C584 0.928 . S
H588 C585 0.931 . S
H589 C565 0.930 . S
H590 C562 0.930 . S
H591 C571 0.930 1_554 S
H592 C583 0.929 . S
H593 C586 0.930 . S
C594 C595 1.351 . S
C594 N597 1.368 . S
C594 H599 0.931 . S
C595 C594 1.351 . S
C595 N596 1.373 . S
C595 H623 0.930 . S
N596 C595 1.373 . S
N596 C598 1.340 . S
N597 C594 1.368 . S
N597 C598 1.321 . S
N597 Co600 2.135 . S
C598 N596 1.340 . S
C598 N597 1.321 . S
C598 H622 0.930 . S
H599 C594 0.931 . S
Co600 N597 2.135 . S
Co600 N603 2.121 . S
Co600 O608 2.055 . S
Co600 O611 2.039 . S
Co600 N614 2.140 . S
C601 O602 1.227 . S
C601 O611 1.265 . S
O602 C601 1.227 . S
N603 Co600 2.121 . S
N603 C605 1.375 . S
N603 C606 1.313 . S
C604 C605 1.338 . S
C604 N607 1.377 . S
C604 H624 0.930 . S
C605 N603 1.375 . S
C605 C604 1.338 . S
C605 H609 0.931 . S
C606 N603 1.313 . S
C606 N607 1.344 . S
C606 H610 0.930 . S
N607 C604 1.377 . S
N607 C606 1.344 . S
O608 Co600 2.055 . S
O608 C612 1.253 . S
H609 C605 0.931 . S
H610 C606 0.930 . S
O611 Co600 2.039 . S
O611 C601 1.265 . S
C612 O608 1.253 . S
C612 O613 1.227 . S
O613 C612 1.227 . S
N614 Co600 2.140 . S
N614 C617 1.346 . S
N614 C618 1.345 . S
C615 C616 1.387 . S
C615 C619 1.391 . S
C616 C615 1.387 . S
C616 C617 1.369 . S
C616 H625 0.929 . S
C617 N614 1.346 . S
C617 C616 1.369 . S
C617 H620 0.928 . S
C618 N614 1.345 . S
C618 C619 1.371 . S
C618 H621 0.931 . S
C619 C615 1.391 . S
C619 C618 1.371 . S
C619 H626 0.930 . S
H620 C617 0.928 . S
H621 C618 0.931 . S
H622 C598 0.930 . S
H623 C595 0.930 . S
H624 C604 0.930 . S
H625 C616 0.929 . S
H626 C619 0.930 . S
C627 C628 1.351 . S
C627 N630 1.368 . S
C627 H632 0.931 . S
C628 C627 1.351 . S
C628 N629 1.373 . S
C628 H656 0.930 . S
N629 C628 1.373 . S
N629 C631 1.340 . S
N630 C627 1.368 . S
N630 C631 1.321 . S
N630 Co633 2.135 . S
C631 N629 1.340 . S
C631 N630 1.321 . S
C631 H655 0.930 . S
H632 C627 0.931 . S
Co633 N630 2.135 . S
Co633 N636 2.121 . S
Co633 O641 2.055 . S
Co633 O644 2.039 . S
Co633 N647 2.140 . S
C634 O635 1.227 . S
C634 O644 1.265 . S
O635 C634 1.227 . S
N636 Co633 2.121 . S
N636 C638 1.375 . S
N636 C639 1.313 . S
C637 C638 1.338 . S
C637 N640 1.377 . S
C637 H657 0.930 . S
C638 N636 1.375 . S
C638 C637 1.338 . S
C638 H642 0.931 . S
C639 N636 1.313 . S
C639 N640 1.344 . S
C639 H643 0.930 . S
N640 C637 1.377 . S
N640 C639 1.344 . S
O641 Co633 2.055 . S
O641 C645 1.253 . S
H642 C638 0.931 . S
H643 C639 0.930 . S
O644 Co633 2.039 . S
O644 C634 1.265 . S
C645 O641 1.253 . S
C645 O646 1.227 . S
O646 C645 1.227 . S
N647 Co633 2.140 . S
N647 C650 1.346 . S
N647 C651 1.345 . S
C648 C649 1.387 . S
C648 C652 1.391 . S
C649 C648 1.387 . S
C649 C650 1.369 . S
C649 H658 0.929 . S
C650 N647 1.346 . S
C650 C649 1.369 . S
C650 H653 0.928 . S
C651 N647 1.345 . S
C651 C652 1.371 . S
C651 H654 0.931 . S
C652 C648 1.391 . S
C652 C651 1.371 . S
C652 H659 0.930 . S
H653 C650 0.928 . S
H654 C651 0.931 . S
H655 C631 0.930 . S
H656 C628 0.930 . S
H657 C637 0.930 . S
H658 C649 0.929 . S
H659 C652 0.930 . S
C660 C661 1.351 . S
C660 N663 1.368 . S
C660 H665 0.931 . S
C661 C660 1.351 . S
C661 N662 1.373 . S
C661 H689 0.930 . S
N662 C661 1.373 . S
N662 C664 1.340 . S
N663 C660 1.368 . S
N663 C664 1.321 . S
N663 Co666 2.135 . S
C664 N662 1.340 . S
C664 N663 1.321 . S
C664 H688 0.930 . S
H665 C660 0.931 . S
Co666 N663 2.135 . S
Co666 N669 2.121 . S
Co666 O674 2.055 . S
Co666 O677 2.039 . S
Co666 N680 2.140 . S
C667 O668 1.227 . S
C667 O677 1.265 . S
O668 C667 1.227 . S
N669 Co666 2.121 . S
N669 C671 1.375 . S
N669 C672 1.313 . S
C670 C671 1.338 . S
C670 N673 1.377 . S
C670 H690 0.930 . S
C671 N669 1.375 . S
C671 C670 1.338 . S
C671 H675 0.931 . S
C672 N669 1.313 . S
C672 N673 1.344 . S
C672 H676 0.930 . S
N673 C670 1.377 . S
N673 C672 1.344 . S
O674 Co666 2.055 . S
O674 C678 1.253 . S
H675 C671 0.931 . S
H676 C672 0.930 . S
O677 Co666 2.039 . S
O677 C667 1.265 . S
C678 O674 1.253 . S
C678 O679 1.227 . S
O679 C678 1.227 . S
N680 Co666 2.140 . S
N680 C683 1.346 . S
N680 C684 1.345 . S
C681 C682 1.387 . S
C681 C685 1.391 . S
C682 C681 1.387 . S
C682 C683 1.369 . S
C682 H691 0.929 . S
C683 N680 1.346 . S
C683 C682 1.369 . S
C683 H686 0.928 . S
C684 N680 1.345 . S
C684 C685 1.371 . S
C684 H687 0.931 . S
C685 C681 1.391 . S
C685 C684 1.371 . S
C685 H692 0.930 . S
H686 C683 0.928 . S
H687 C684 0.931 . S
H688 C664 0.930 . S
H689 C661 0.930 . S
H690 C670 0.930 . S
H691 C682 0.929 . S
H692 C685 0.930 . S
C693 C694 1.351 . S
C693 N696 1.368 . S
C693 H698 0.931 . S
C694 C693 1.351 . S
C694 N695 1.373 . S
C694 H722 0.930 . S
N695 C694 1.373 . S
N695 C697 1.340 . S
N696 C693 1.368 . S
N696 C697 1.321 . S
N696 Co699 2.135 . S
C697 N695 1.340 . S
C697 N696 1.321 . S
C697 H721 0.930 . S
H698 C693 0.931 . S
Co699 N696 2.135 . S
Co699 N702 2.121 . S
Co699 O707 2.055 . S
Co699 O710 2.039 . S
Co699 N713 2.140 . S
C700 O701 1.227 . S
C700 O710 1.265 . S
O701 C700 1.227 . S
N702 Co699 2.121 . S
N702 C704 1.375 . S
N702 C705 1.313 . S
C703 C704 1.338 . S
C703 N706 1.377 . S
C703 H723 0.930 . S
C704 N702 1.375 . S
C704 C703 1.338 . S
C704 H708 0.931 . S
C705 N702 1.313 . S
C705 N706 1.344 . S
C705 H709 0.930 . S
N706 C703 1.377 . S
N706 C705 1.344 . S
O707 Co699 2.055 . S
O707 C711 1.253 . S
H708 C704 0.931 . S
H709 C705 0.930 . S
O710 Co699 2.039 . S
O710 C700 1.265 . S
C711 O707 1.253 . S
C711 O712 1.227 . S
O712 C711 1.227 . S
N713 Co699 2.140 . S
N713 C716 1.346 . S
N713 C717 1.345 . S
C714 C715 1.387 . S
C714 C718 1.391 . S
C715 C714 1.387 . S
C715 C716 1.369 . S
C715 H724 0.929 . S
C716 N713 1.346 . S
C716 C715 1.369 . S
C716 H719 0.928 . S
C717 N713 1.345 . S
C717 C718 1.371 . S
C717 H720 0.931 . S
C718 C714 1.391 . S
C718 C717 1.371 . S
C718 H725 0.930 . S
H719 C716 0.928 . S
H720 C717 0.931 . S
H721 C697 0.930 . S
H722 C694 0.930 . S
H723 C703 0.930 . S
H724 C715 0.929 . S
H725 C718 0.930 . S
C726 C727 1.351 . S
C726 N729 1.368 . S
C726 H731 0.931 . S
C727 C726 1.351 . S
C727 N728 1.373 . S
C727 H755 0.930 . S
N728 C727 1.373 . S
N728 C730 1.340 . S
N729 C726 1.368 . S
N729 C730 1.321 . S
N729 Co732 2.135 . S
C730 N728 1.340 . S
C730 N729 1.321 . S
C730 H754 0.930 . S
H731 C726 0.931 . S
Co732 N729 2.135 . S
Co732 N735 2.121 . S
Co732 O740 2.055 . S
Co732 O743 2.039 . S
Co732 N746 2.140 . S
C733 O734 1.227 . S
C733 O743 1.265 . S
O734 C733 1.227 . S
N735 Co732 2.121 . S
N735 C737 1.375 . S
N735 C738 1.313 . S
C736 C737 1.338 . S
C736 N739 1.377 . S
C736 H756 0.930 . S
C737 N735 1.375 . S
C737 C736 1.338 . S
C737 H741 0.931 . S
C738 N735 1.313 . S
C738 N739 1.344 . S
C738 H742 0.930 . S
N739 C736 1.377 . S
N739 C738 1.344 . S
O740 Co732 2.055 . S
O740 C744 1.253 . S
H741 C737 0.931 . S
H742 C738 0.930 . S
O743 Co732 2.039 . S
O743 C733 1.265 . S
C744 O740 1.253 . S
C744 O745 1.227 . S
O745 C744 1.227 . S
N746 Co732 2.140 . S
N746 C749 1.346 . S
N746 C750 1.345 . S
C747 C748 1.387 . S
C747 C751 1.391 . S
C748 C747 1.387 . S
C748 C749 1.369 . S
C748 H757 0.929 . S
C749 N746 1.346 . S
C749 C748 1.369 . S
C749 H752 0.928 . S
C750 N746 1.345 . S
C750 C751 1.371 . S
C750 H753 0.931 . S
C751 C747 1.391 . S
C751 C750 1.371 . S
C751 H758 0.930 . S
H752 C749 0.928 . S
H753 C750 0.931 . S
H754 C730 0.930 . S
H755 C727 0.930 . S
H756 C736 0.930 . S
H757 C748 0.929 . S
H758 C751 0.930 . S
C759 C760 1.351 . S
C759 N762 1.368 . S
C759 H764 0.931 . S
C760 C759 1.351 . S
C760 N761 1.373 . S
C760 H788 0.930 . S
N761 C760 1.373 . S
N761 C763 1.340 . S
N762 C759 1.368 . S
N762 C763 1.321 . S
N762 Co765 2.135 . S
C763 N761 1.340 . S
C763 N762 1.321 . S
C763 H787 0.930 . S
H764 C759 0.931 . S
Co765 N762 2.135 . S
Co765 N768 2.121 . S
Co765 O773 2.055 . S
Co765 O776 2.039 . S
Co765 N779 2.140 . S
C766 O767 1.227 . S
C766 O776 1.265 . S
O767 C766 1.227 . S
N768 Co765 2.121 . S
N768 C770 1.375 . S
N768 C771 1.313 . S
C769 C770 1.338 . S
C769 N772 1.377 . S
C769 H789 0.930 . S
C770 N768 1.375 . S
C770 C769 1.338 . S
C770 H774 0.931 . S
C771 N768 1.313 . S
C771 N772 1.344 . S
C771 H775 0.930 . S
N772 C769 1.377 . S
N772 C771 1.344 . S
O773 Co765 2.055 . S
O773 C777 1.253 . S
H774 C770 0.931 . S
H775 C771 0.930 . S
O776 Co765 2.039 . S
O776 C766 1.265 . S
C777 O773 1.253 . S
C777 O778 1.227 . S
O778 C777 1.227 . S
N779 Co765 2.140 . S
N779 C782 1.346 . S
N779 C783 1.345 . S
C780 C781 1.387 . S
C780 C784 1.391 . S
C781 C780 1.387 . S
C781 C782 1.369 . S
C781 H790 0.929 . S
C782 N779 1.346 . S
C782 C781 1.369 . S
C782 H785 0.928 . S
C783 N779 1.345 . S
C783 C784 1.371 . S
C783 H786 0.931 . S
C784 C780 1.391 . S
C784 C783 1.371 . S
C784 H791 0.930 . S
H785 C782 0.928 . S
H786 C783 0.931 . S
H787 C763 0.930 . S
H788 C760 0.930 . S
H789 C769 0.930 . S
H790 C781 0.929 . S
H791 C784 0.930 . S
C792 C793 1.351 . S
C792 N795 1.368 . S
C792 H797 0.931 . S
C793 C792 1.351 . S
C793 N794 1.373 . S
C793 H821 0.930 . S
N794 C793 1.373 . S
N794 C796 1.340 . S
N795 C792 1.368 . S
N795 C796 1.321 . S
N795 Co798 2.135 . S
C796 N794 1.340 . S
C796 N795 1.321 . S
C796 H820 0.930 . S
H797 C792 0.931 . S
Co798 N795 2.135 . S
Co798 N801 2.121 . S
Co798 O806 2.055 . S
Co798 O809 2.039 . S
Co798 N812 2.140 . S
C799 O800 1.227 . S
C799 O809 1.265 . S
O800 C799 1.227 . S
N801 Co798 2.121 . S
N801 C803 1.375 . S
N801 C804 1.313 . S
C802 C803 1.338 . S
C802 N805 1.377 . S
C802 H822 0.930 . S
C803 N801 1.375 . S
C803 C802 1.338 . S
C803 H807 0.931 . S
C804 N801 1.313 . S
C804 N805 1.344 . S
C804 H808 0.930 . S
N805 C802 1.377 . S
N805 C804 1.344 . S
O806 Co798 2.055 . S
O806 C810 1.253 . S
H807 C803 0.931 . S
H808 C804 0.930 . S
O809 Co798 2.039 . S
O809 C799 1.265 . S
C810 O806 1.253 . S
C810 O811 1.227 . S
O811 C810 1.227 . S
N812 Co798 2.140 . S
N812 C815 1.346 . S
N812 C816 1.345 . S
C813 C814 1.387 . S
C813 C817 1.391 . S
C814 C813 1.387 . S
C814 C815 1.369 . S
C814 H823 0.929 . S
C815 N812 1.346 . S
C815 C814 1.369 . S
C815 H818 0.928 . S
C816 N812 1.345 . S
C816 C817 1.371 . S
C816 H819 0.931 . S
C817 C813 1.391 . S
C817 C816 1.371 . S
C817 H824 0.930 . S
H818 C815 0.928 . S
H819 C816 0.931 . S
H820 C796 0.930 . S
H821 C793 0.930 . S
H822 C802 0.930 . S
H823 C814 0.929 . S
H824 C817 0.930 . S
C825 C826 1.351 . S
C825 N828 1.368 . S
C825 H830 0.931 . S
C826 C825 1.351 . S
C826 N827 1.373 . S
C826 H854 0.930 . S
N827 C826 1.373 . S
N827 C829 1.340 . S
N828 C825 1.368 . S
N828 C829 1.321 . S
N828 Co831 2.135 . S
C829 N827 1.340 . S
C829 N828 1.321 . S
C829 H853 0.930 . S
H830 C825 0.931 . S
Co831 N828 2.135 . S
Co831 N834 2.121 . S
Co831 O839 2.055 . S
Co831 O842 2.039 . S
Co831 N845 2.140 . S
C832 O833 1.227 . S
C832 O842 1.265 . S
O833 C832 1.227 . S
N834 Co831 2.121 . S
N834 C836 1.375 . S
N834 C837 1.313 . S
C835 C836 1.338 . S
C835 N838 1.377 . S
C835 H855 0.930 . S
C836 N834 1.375 . S
C836 C835 1.338 . S
C836 H840 0.931 . S
C837 N834 1.313 . S
C837 N838 1.344 . S
C837 H841 0.930 . S
N838 C835 1.377 . S
N838 C837 1.344 . S
O839 Co831 2.055 . S
O839 C843 1.253 . S
H840 C836 0.931 . S
H841 C837 0.930 . S
O842 Co831 2.039 . S
O842 C832 1.265 . S
C843 O839 1.253 . S
C843 O844 1.227 . S
O844 C843 1.227 . S
N845 Co831 2.140 . S
N845 C848 1.346 . S
N845 C849 1.345 . S
C846 C847 1.387 . S
C846 C850 1.391 . S
C847 C846 1.387 . S
C847 C848 1.369 . S
C847 H856 0.929 . S
C848 N845 1.346 . S
C848 C847 1.369 . S
C848 H851 0.928 . S
C849 N845 1.345 . S
C849 C850 1.371 . S
C849 H852 0.931 . S
C850 C846 1.391 . S
C850 C849 1.371 . S
C850 H857 0.930 . S
H851 C848 0.928 . S
H852 C849 0.931 . S
H853 C829 0.930 . S
H854 C826 0.930 . S
H855 C835 0.930 . S
H856 C847 0.929 . S
H857 C850 0.930 . S
C858 C859 1.351 . S
C858 N861 1.368 . S
C858 H863 0.931 . S
C859 C858 1.351 . S
C859 N860 1.373 . S
C859 H887 0.930 . S
N860 C859 1.373 . S
N860 C862 1.340 . S
N861 C858 1.368 . S
N861 C862 1.321 . S
N861 Co864 2.135 . S
C862 N860 1.340 . S
C862 N861 1.321 . S
C862 H886 0.930 . S
H863 C858 0.931 . S
Co864 N861 2.135 . S
Co864 N867 2.121 . S
Co864 O872 2.055 . S
Co864 O875 2.039 . S
Co864 N878 2.140 . S
C865 O866 1.227 . S
C865 O875 1.265 . S
O866 C865 1.227 . S
N867 Co864 2.121 . S
N867 C869 1.375 . S
N867 C870 1.313 . S
C868 C869 1.338 . S
C868 N871 1.377 . S
C868 H888 0.930 1_655 S
C869 N867 1.375 . S
C869 C868 1.338 . S
C869 H873 0.931 . S
C870 N867 1.313 . S
C870 N871 1.344 . S
C870 H874 0.930 . S
N871 C868 1.377 . S
N871 C870 1.344 . S
O872 Co864 2.055 . S
O872 C876 1.253 . S
H873 C869 0.931 . S
H874 C870 0.930 . S
O875 Co864 2.039 . S
O875 C865 1.265 . S
C876 O872 1.253 . S
C876 O877 1.227 . S
O877 C876 1.227 . S
N878 Co864 2.140 . S
N878 C881 1.346 . S
N878 C882 1.345 . S
C879 C880 1.387 . S
C879 C883 1.391 . S
C880 C879 1.387 . S
C880 C881 1.369 . S
C880 H889 0.929 . S
C881 N878 1.346 . S
C881 C880 1.369 . S
C881 H884 0.928 . S
C882 N878 1.345 . S
C882 C883 1.371 . S
C882 H885 0.931 . S
C883 C879 1.391 . S
C883 C882 1.371 . S
C883 H890 0.930 . S
H884 C881 0.928 . S
H885 C882 0.931 . S
H886 C862 0.930 . S
H887 C859 0.930 . S
H888 C868 0.930 1_455 S
H889 C880 0.929 . S
H890 C883 0.930 . S
C891 C892 1.351 . S
C891 N894 1.368 . S
C891 H896 0.931 . S
C892 C891 1.351 . S
C892 N893 1.373 . S
C892 H920 0.930 . S
N893 C892 1.373 . S
N893 C895 1.340 . S
N894 C891 1.368 . S
N894 C895 1.321 . S
N894 Co897 2.135 . S
C895 N893 1.340 . S
C895 N894 1.321 . S
C895 H919 0.930 . S
H896 C891 0.931 . S
Co897 N894 2.135 . S
Co897 N900 2.121 . S
Co897 O905 2.055 . S
Co897 O908 2.039 . S
Co897 N911 2.140 . S
C898 O899 1.227 . S
C898 O908 1.265 . S
O899 C898 1.227 . S
N900 Co897 2.121 . S
N900 C902 1.375 . S
N900 C903 1.313 . S
C901 C902 1.338 . S
C901 N904 1.377 . S
C901 H921 0.930 . S
C902 N900 1.375 . S
C902 C901 1.338 . S
C902 H906 0.931 . S
C903 N900 1.313 . S
C903 N904 1.344 . S
C903 H907 0.930 . S
N904 C901 1.377 . S
N904 C903 1.344 . S
O905 Co897 2.055 . S
O905 C909 1.253 . S
H906 C902 0.931 . S
H907 C903 0.930 . S
O908 Co897 2.039 . S
O908 C898 1.265 . S
C909 O905 1.253 . S
C909 O910 1.227 . S
O910 C909 1.227 . S
N911 Co897 2.140 . S
N911 C914 1.346 . S
N911 C915 1.345 . S
C912 C913 1.387 . S
C912 C916 1.391 . S
C913 C912 1.387 . S
C913 C914 1.369 . S
C913 H922 0.929 . S
C914 N911 1.346 . S
C914 C913 1.369 . S
C914 H917 0.928 . S
C915 N911 1.345 . S
C915 C916 1.371 . S
C915 H918 0.931 . S
C916 C912 1.391 . S
C916 C915 1.371 . S
C916 H923 0.930 . S
H917 C914 0.928 . S
H918 C915 0.931 . S
H919 C895 0.930 . S
H920 C892 0.930 . S
H921 C901 0.930 . S
H922 C913 0.929 . S
H923 C916 0.930 . S
C924 C925 1.351 . S
C924 N927 1.368 . S
C924 H929 0.931 . S
C925 C924 1.351 . S
C925 N926 1.373 . S
C925 H953 0.930 . S
N926 C925 1.373 . S
N926 C928 1.340 . S
N927 C924 1.368 . S
N927 C928 1.321 . S
N927 Co930 2.135 . S
C928 N926 1.340 . S
C928 N927 1.321 . S
C928 H952 0.930 . S
H929 C924 0.931 . S
Co930 N927 2.135 . S
Co930 N933 2.121 . S
Co930 O938 2.055 . S
Co930 O941 2.039 . S
Co930 N944 2.140 . S
C931 O932 1.227 . S
C931 O941 1.265 . S
O932 C931 1.227 . S
N933 Co930 2.121 . S
N933 C935 1.375 . S
N933 C936 1.313 . S
C934 C935 1.338 . S
C934 N937 1.377 . S
C934 H954 0.930 . S
C935 N933 1.375 . S
C935 C934 1.338 . S
C935 H939 0.931 . S
C936 N933 1.313 . S
C936 N937 1.344 . S
C936 H940 0.930 . S
N937 C934 1.377 . S
N937 C936 1.344 . S
O938 Co930 2.055 . S
O938 C942 1.253 . S
H939 C935 0.931 . S
H940 C936 0.930 . S
O941 Co930 2.039 . S
O941 C931 1.265 . S
C942 O938 1.253 . S
C942 O943 1.227 . S
O943 C942 1.227 . S
N944 Co930 2.140 . S
N944 C947 1.346 . S
N944 C948 1.345 . S
C945 C946 1.387 . S
C945 C949 1.391 . S
C946 C945 1.387 . S
C946 C947 1.369 . S
C946 H955 0.929 . S
C947 N944 1.346 . S
C947 C946 1.369 . S
C947 H950 0.928 . S
C948 N944 1.345 . S
C948 C949 1.371 . S
C948 H951 0.931 . S
C949 C945 1.391 . S
C949 C948 1.371 . S
C949 H956 0.930 . S
H950 C947 0.928 . S
H951 C948 0.931 . S
H952 C928 0.930 . S
H953 C925 0.930 . S
H954 C934 0.930 . S
H955 C946 0.929 . S
H956 C949 0.930 . S
C957 C958 1.351 . S
C957 N960 1.368 . S
C957 H962 0.931 . S
C958 C957 1.351 . S
C958 N959 1.373 . S
C958 H986 0.930 . S
N959 C958 1.373 . S
N959 C961 1.340 . S
N960 C957 1.368 . S
N960 C961 1.321 . S
N960 Co963 2.135 . S
C961 N959 1.340 . S
C961 N960 1.321 . S
C961 H985 0.930 . S
H962 C957 0.931 . S
Co963 N960 2.135 . S
Co963 N966 2.121 . S
Co963 O971 2.055 . S
Co963 O974 2.039 . S
Co963 N977 2.140 . S
C964 O965 1.227 . S
C964 O974 1.265 . S
O965 C964 1.227 . S
N966 Co963 2.121 . S
N966 C968 1.375 . S
N966 C969 1.313 . S
C967 C968 1.338 . S
C967 N970 1.377 . S
C967 H987 0.930 . S
C968 N966 1.375 . S
C968 C967 1.338 . S
C968 H972 0.931 . S
C969 N966 1.313 . S
C969 N970 1.344 . S
C969 H973 0.930 . S
N970 C967 1.377 . S
N970 C969 1.344 . S
O971 Co963 2.055 . S
O971 C975 1.253 . S
H972 C968 0.931 . S
H973 C969 0.930 . S
O974 Co963 2.039 . S
O974 C964 1.265 . S
C975 O971 1.253 . S
C975 O976 1.227 . S
O976 C975 1.227 . S
N977 Co963 2.140 . S
N977 C980 1.346 . S
N977 C981 1.345 . S
C978 C979 1.387 . S
C978 C982 1.391 . S
C979 C978 1.387 . S
C979 C980 1.369 . S
C979 H988 0.929 . S
C980 N977 1.346 . S
C980 C979 1.369 . S
C980 H983 0.928 . S
C981 N977 1.345 . S
C981 C982 1.371 . S
C981 H984 0.931 . S
C982 C978 1.391 . S
C982 C981 1.371 . S
C982 H989 0.930 . S
H983 C980 0.928 . S
H984 C981 0.931 . S
H985 C961 0.930 . S
H986 C958 0.930 . S
H987 C967 0.930 . S
H988 C979 0.929 . S
H989 C982 0.930 . S
C990 C991 1.351 . S
C990 N993 1.368 . S
C990 H995 0.931 . S
C991 C990 1.351 . S
C991 N992 1.373 . S
C991 H1019 0.930 . S
N992 C991 1.373 . S
N992 C994 1.340 . S
N993 C990 1.368 . S
N993 C994 1.321 . S
N993 Co996 2.135 . S
C994 N992 1.340 . S
C994 N993 1.321 . S
C994 H1018 0.930 . S
H995 C990 0.931 . S
Co996 N993 2.135 . S
Co996 N999 2.121 . S
Co996 O1004 2.055 . S
Co996 O1007 2.039 . S
Co996 N1010 2.140 . S
C997 O998 1.227 . S
C997 O1007 1.265 . S
O998 C997 1.227 . S
N999 Co996 2.121 . S
N999 C1001 1.375 . S
N999 C1002 1.313 . S
C1000 C1001 1.338 . S
C1000 N1003 1.377 . S
C1000 H1020 0.930 1_655 S
C1001 N999 1.375 . S
C1001 C1000 1.338 . S
C1001 H1005 0.931 . S
C1002 N999 1.313 . S
C1002 N1003 1.344 . S
C1002 H1006 0.930 . S
N1003 C1000 1.377 . S
N1003 C1002 1.344 . S
O1004 Co996 2.055 . S
O1004 C1008 1.253 . S
H1005 C1001 0.931 . S
H1006 C1002 0.930 . S
O1007 Co996 2.039 . S
O1007 C997 1.265 . S
C1008 O1004 1.253 . S
C1008 O1009 1.227 . S
O1009 C1008 1.227 . S
N1010 Co996 2.140 . S
N1010 C1013 1.346 . S
N1010 C1014 1.345 . S
C1011 C1012 1.387 . S
C1011 C1015 1.391 . S
C1012 C1011 1.387 . S
C1012 C1013 1.369 . S
C1012 H1021 0.929 . S
C1013 N1010 1.346 . S
C1013 C1012 1.369 . S
C1013 H1016 0.928 . S
C1014 N1010 1.345 . S
C1014 C1015 1.371 . S
C1014 H1017 0.931 . S
C1015 C1011 1.391 . S
C1015 C1014 1.371 . S
C1015 H1022 0.930 . S
H1016 C1013 0.928 . S
H1017 C1014 0.931 . S
H1018 C994 0.930 . S
H1019 C991 0.930 . S
H1020 C1000 0.930 1_455 S
H1021 C1012 0.929 . S
H1022 C1015 0.930 . S
C1023 C1024 1.351 . S
C1023 N1026 1.368 . S
C1023 H1028 0.931 . S
C1024 C1023 1.351 . S
C1024 N1025 1.373 . S
C1024 H1052 0.930 . S
N1025 C1024 1.373 . S
N1025 C1027 1.340 . S
N1026 C1023 1.368 . S
N1026 C1027 1.321 . S
N1026 Co1029 2.135 . S
C1027 N1025 1.340 . S
C1027 N1026 1.321 . S
C1027 H1051 0.930 . S
H1028 C1023 0.931 . S
Co1029 N1026 2.135 . S
Co1029 N1032 2.121 . S
Co1029 O1037 2.055 . S
Co1029 O1040 2.039 . S
Co1029 N1043 2.140 . S
C1030 O1031 1.227 . S
C1030 O1040 1.265 . S
O1031 C1030 1.227 . S
N1032 Co1029 2.121 . S
N1032 C1034 1.375 . S
N1032 C1035 1.313 . S
C1033 C1034 1.338 . S
C1033 N1036 1.377 . S
C1033 H1053 0.930 . S
C1034 N1032 1.375 . S
C1034 C1033 1.338 . S
C1034 H1038 0.931 . S
C1035 N1032 1.313 . S
C1035 N1036 1.344 . S
C1035 H1039 0.930 . S
N1036 C1033 1.377 . S
N1036 C1035 1.344 . S
O1037 Co1029 2.055 . S
O1037 C1041 1.253 . S
H1038 C1034 0.931 . S
H1039 C1035 0.930 . S
O1040 Co1029 2.039 . S
O1040 C1030 1.265 . S
C1041 O1037 1.253 . S
C1041 O1042 1.227 . S
O1042 C1041 1.227 . S
N1043 Co1029 2.140 . S
N1043 C1046 1.346 . S
N1043 C1047 1.345 . S
C1044 C1045 1.387 . S
C1044 C1048 1.391 . S
C1045 C1044 1.387 . S
C1045 C1046 1.369 . S
C1045 H1054 0.929 . S
C1046 N1043 1.346 . S
C1046 C1045 1.369 . S
C1046 H1049 0.928 . S
C1047 N1043 1.345 . S
C1047 C1048 1.371 . S
C1047 H1050 0.931 . S
C1048 C1044 1.391 . S
C1048 C1047 1.371 . S
C1048 H1055 0.930 . S
H1049 C1046 0.928 . S
H1050 C1047 0.931 . S
H1051 C1027 0.930 . S
H1052 C1024 0.930 . S
H1053 C1033 0.930 . S
H1054 C1045 0.929 . S
H1055 C1048 0.930 . S
C1056 C1057 1.351 . S
C1056 N1059 1.368 . S
C1056 H1061 0.931 . S
C1057 C1056 1.351 . S
C1057 N1058 1.373 . S
C1057 H1085 0.930 . S
N1058 C1057 1.373 . S
N1058 C1060 1.340 . S
N1059 C1056 1.368 . S
N1059 C1060 1.321 . S
N1059 Co1062 2.135 . S
C1060 N1058 1.340 . S
C1060 N1059 1.321 . S
C1060 H1084 0.930 . S
H1061 C1056 0.931 . S
Co1062 N1059 2.135 . S
Co1062 N1065 2.121 . S
Co1062 O1070 2.055 . S
Co1062 O1073 2.039 . S
Co1062 N1076 2.140 . S
C1063 O1064 1.227 . S
C1063 O1073 1.265 . S
O1064 C1063 1.227 . S
N1065 Co1062 2.121 . S
N1065 C1067 1.375 . S
N1065 C1068 1.313 . S
C1066 C1067 1.338 . S
C1066 N1069 1.377 . S
C1066 H1086 0.930 . S
C1067 N1065 1.375 . S
C1067 C1066 1.338 . S
C1067 H1071 0.931 . S
C1068 N1065 1.313 . S
C1068 N1069 1.344 . S
C1068 H1072 0.930 . S
N1069 C1066 1.377 . S
N1069 C1068 1.344 . S
O1070 Co1062 2.055 . S
O1070 C1074 1.253 . S
H1071 C1067 0.931 . S
H1072 C1068 0.930 . S
O1073 Co1062 2.039 . S
O1073 C1063 1.265 . S
C1074 O1070 1.253 . S
C1074 O1075 1.227 . S
O1075 C1074 1.227 . S
N1076 Co1062 2.140 . S
N1076 C1079 1.346 . S
N1076 C1080 1.345 . S
C1077 C1078 1.387 . S
C1077 C1081 1.391 . S
C1078 C1077 1.387 . S
C1078 C1079 1.369 . S
C1078 H1087 0.929 . S
C1079 N1076 1.346 . S
C1079 C1078 1.369 . S
C1079 H1082 0.928 . S
C1080 N1076 1.345 . S
C1080 C1081 1.371 . S
C1080 H1083 0.931 . S
C1081 C1077 1.391 . S
C1081 C1080 1.371 . S
C1081 H1088 0.930 . S
H1082 C1079 0.928 . S
H1083 C1080 0.931 . S
H1084 C1060 0.930 . S
H1085 C1057 0.930 . S
H1086 C1066 0.930 . S
H1087 C1078 0.929 . S
H1088 C1081 0.930 . S
C1089 C1090 1.351 . S
C1089 N1092 1.368 . S
C1089 H1094 0.931 . S
C1090 C1089 1.351 . S
C1090 N1091 1.373 . S
C1090 H1118 0.930 . S
N1091 C1090 1.373 . S
N1091 C1093 1.340 . S
N1092 C1089 1.368 . S
N1092 C1093 1.321 . S
N1092 Co1095 2.135 . S
C1093 N1091 1.340 . S
C1093 N1092 1.321 . S
C1093 H1117 0.930 . S
H1094 C1089 0.931 . S
Co1095 N1092 2.135 . S
Co1095 N1098 2.121 . S
Co1095 O1103 2.055 . S
Co1095 O1106 2.039 . S
Co1095 N1109 2.140 . S
C1096 O1097 1.227 . S
C1096 O1106 1.265 . S
O1097 C1096 1.227 . S
N1098 Co1095 2.121 . S
N1098 C1100 1.375 . S
N1098 C1101 1.313 . S
C1099 C1100 1.338 . S
C1099 N1102 1.377 . S
C1099 H1119 0.930 . S
C1100 N1098 1.375 . S
C1100 C1099 1.338 . S
C1100 H1104 0.931 . S
C1101 N1098 1.313 . S
C1101 N1102 1.344 . S
C1101 H1105 0.930 . S
N1102 C1099 1.377 . S
N1102 C1101 1.344 . S
O1103 Co1095 2.055 . S
O1103 C1107 1.253 . S
H1104 C1100 0.931 . S
H1105 C1101 0.930 . S
O1106 Co1095 2.039 . S
O1106 C1096 1.265 . S
C1107 O1103 1.253 . S
C1107 O1108 1.227 . S
O1108 C1107 1.227 . S
N1109 Co1095 2.140 . S
N1109 C1112 1.346 . S
N1109 C1113 1.345 . S
C1110 C1111 1.387 . S
C1110 C1114 1.391 . S
C1111 C1110 1.387 . S
C1111 C1112 1.369 . S
C1111 H1120 0.929 . S
C1112 N1109 1.346 . S
C1112 C1111 1.369 . S
C1112 H1115 0.928 . S
C1113 N1109 1.345 . S
C1113 C1114 1.371 . S
C1113 H1116 0.931 . S
C1114 C1110 1.391 . S
C1114 C1113 1.371 . S
C1114 H1121 0.930 . S
H1115 C1112 0.928 . S
H1116 C1113 0.931 . S
H1117 C1093 0.930 . S
H1118 C1090 0.930 . S
H1119 C1099 0.930 . S
H1120 C1111 0.929 . S
H1121 C1114 0.930 . S
C1122 C1123 1.351 . S
C1122 N1125 1.368 . S
C1122 H1127 0.931 . S
C1123 C1122 1.351 . S
C1123 N1124 1.373 . S
C1123 H1151 0.930 . S
N1124 C1123 1.373 . S
N1124 C1126 1.340 . S
N1125 C1122 1.368 . S
N1125 C1126 1.321 . S
N1125 Co1128 2.135 . S
C1126 N1124 1.340 . S
C1126 N1125 1.321 . S
C1126 H1150 0.930 . S
H1127 C1122 0.931 . S
Co1128 N1125 2.135 . S
Co1128 N1131 2.121 . S
Co1128 O1136 2.055 . S
Co1128 O1139 2.039 . S
Co1128 N1142 2.140 . S
C1129 O1130 1.227 . S
C1129 O1139 1.265 . S
O1130 C1129 1.227 . S
N1131 Co1128 2.121 . S
N1131 C1133 1.375 . S
N1131 C1134 1.313 . S
C1132 C1133 1.338 . S
C1132 N1135 1.377 . S
C1132 H1152 0.930 . S
C1133 N1131 1.375 . S
C1133 C1132 1.338 . S
C1133 H1137 0.931 . S
C1134 N1131 1.313 . S
C1134 N1135 1.344 . S
C1134 H1138 0.930 . S
N1135 C1132 1.377 . S
N1135 C1134 1.344 . S
O1136 Co1128 2.055 . S
O1136 C1140 1.253 . S
H1137 C1133 0.931 . S
H1138 C1134 0.930 . S
O1139 Co1128 2.039 . S
O1139 C1129 1.265 . S
C1140 O1136 1.253 . S
C1140 O1141 1.227 . S
O1141 C1140 1.227 . S
N1142 Co1128 2.140 . S
N1142 C1145 1.346 . S
N1142 C1146 1.345 . S
C1143 C1144 1.387 . S
C1143 C1147 1.391 . S
C1144 C1143 1.387 . S
C1144 C1145 1.369 . S
C1144 H1153 0.929 . S
C1145 N1142 1.346 . S
C1145 C1144 1.369 . S
C1145 H1148 0.928 . S
C1146 N1142 1.345 . S
C1146 C1147 1.371 . S
C1146 H1149 0.931 . S
C1147 C1143 1.391 . S
C1147 C1146 1.371 . S
C1147 H1154 0.930 . S
H1148 C1145 0.928 . S
H1149 C1146 0.931 . S
H1150 C1126 0.930 . S
H1151 C1123 0.930 . S
H1152 C1132 0.930 . S
H1153 C1144 0.929 . S
H1154 C1147 0.930 . S
C1155 C1156 1.351 . S
C1155 N1158 1.368 . S
C1155 H1160 0.931 . S
C1156 C1155 1.351 . S
C1156 N1157 1.373 . S
C1156 H1184 0.930 . S
N1157 C1156 1.373 . S
N1157 C1159 1.340 . S
N1158 C1155 1.368 . S
N1158 C1159 1.321 . S
N1158 Co1161 2.135 . S
C1159 N1157 1.340 . S
C1159 N1158 1.321 . S
C1159 H1183 0.930 . S
H1160 C1155 0.931 . S
Co1161 N1158 2.135 . S
Co1161 N1164 2.121 . S
Co1161 O1169 2.055 . S
Co1161 O1172 2.039 . S
Co1161 N1175 2.140 . S
C1162 O1163 1.227 . S
C1162 O1172 1.265 . S
O1163 C1162 1.227 . S
N1164 Co1161 2.121 . S
N1164 C1166 1.375 . S
N1164 C1167 1.313 . S
C1165 C1166 1.338 . S
C1165 N1168 1.377 . S
C1165 H1185 0.930 . S
C1166 N1164 1.375 . S
C1166 C1165 1.338 . S
C1166 H1170 0.931 . S
C1167 N1164 1.313 . S
C1167 N1168 1.344 . S
C1167 H1171 0.930 . S
N1168 C1165 1.377 . S
N1168 C1167 1.344 . S
O1169 Co1161 2.055 . S
O1169 C1173 1.253 . S
H1170 C1166 0.931 . S
H1171 C1167 0.930 . S
O1172 Co1161 2.039 . S
O1172 C1162 1.265 . S
C1173 O1169 1.253 . S
C1173 O1174 1.227 . S
O1174 C1173 1.227 . S
N1175 Co1161 2.140 . S
N1175 C1178 1.346 . S
N1175 C1179 1.345 . S
C1176 C1177 1.387 . S
C1176 C1180 1.391 . S
C1177 C1176 1.387 . S
C1177 C1178 1.369 . S
C1177 H1186 0.929 . S
C1178 N1175 1.346 . S
C1178 C1177 1.369 . S
C1178 H1181 0.928 . S
C1179 N1175 1.345 . S
C1179 C1180 1.371 . S
C1179 H1182 0.931 . S
C1180 C1176 1.391 . S
C1180 C1179 1.371 . S
C1180 H1187 0.930 . S
H1181 C1178 0.928 . S
H1182 C1179 0.931 . S
H1183 C1159 0.930 . S
H1184 C1156 0.930 . S
H1185 C1165 0.930 . S
H1186 C1177 0.929 . S
H1187 C1180 0.930 . S
C1188 C1189 1.351 . S
C1188 N1191 1.368 . S
C1188 H1193 0.931 . S
C1189 C1188 1.351 . S
C1189 N1190 1.373 . S
C1189 H1217 0.930 . S
N1190 C1189 1.373 . S
N1190 C1192 1.340 . S
N1191 C1188 1.368 . S
N1191 C1192 1.321 . S
N1191 Co1194 2.135 . S
C1192 N1190 1.340 . S
C1192 N1191 1.321 . S
C1192 H1216 0.930 . S
H1193 C1188 0.931 . S
Co1194 N1191 2.135 . S
Co1194 N1197 2.121 . S
Co1194 O1202 2.055 . S
Co1194 O1205 2.039 . S
Co1194 N1208 2.140 . S
C1195 O1196 1.227 . S
C1195 O1205 1.265 . S
O1196 C1195 1.227 . S
N1197 Co1194 2.121 . S
N1197 C1199 1.375 . S
N1197 C1200 1.313 . S
C1198 C1199 1.338 . S
C1198 N1201 1.377 . S
C1198 H1218 0.930 . S
C1199 N1197 1.375 . S
C1199 C1198 1.338 . S
C1199 H1203 0.931 . S
C1200 N1197 1.313 . S
C1200 N1201 1.344 . S
C1200 H1204 0.930 . S
N1201 C1198 1.377 . S
N1201 C1200 1.344 . S
O1202 Co1194 2.055 . S
O1202 C1206 1.253 . S
H1203 C1199 0.931 . S
H1204 C1200 0.930 . S
O1205 Co1194 2.039 . S
O1205 C1195 1.265 . S
C1206 O1202 1.253 . S
C1206 O1207 1.227 . S
O1207 C1206 1.227 . S
N1208 Co1194 2.140 . S
N1208 C1211 1.346 . S
N1208 C1212 1.345 . S
C1209 C1210 1.387 . S
C1209 C1213 1.391 . S
C1210 C1209 1.387 . S
C1210 C1211 1.369 . S
C1210 H1219 0.929 . S
C1211 N1208 1.346 . S
C1211 C1210 1.369 . S
C1211 H1214 0.928 . S
C1212 N1208 1.345 . S
C1212 C1213 1.371 . S
C1212 H1215 0.931 . S
C1213 C1209 1.391 . S
C1213 C1212 1.371 . S
C1213 H1220 0.930 . S
H1214 C1211 0.928 . S
H1215 C1212 0.931 . S
H1216 C1192 0.930 . S
H1217 C1189 0.930 . S
H1218 C1198 0.930 . S
H1219 C1210 0.929 . S
H1220 C1213 0.930 . S
C1221 C1222 1.351 . S
C1221 N1224 1.368 . S
C1221 H1226 0.931 . S
C1222 C1221 1.351 . S
C1222 N1223 1.373 . S
C1222 H1250 0.930 . S
N1223 C1222 1.373 . S
N1223 C1225 1.340 . S
N1224 C1221 1.368 . S
N1224 C1225 1.321 . S
N1224 Co1227 2.135 . S
C1225 N1223 1.340 . S
C1225 N1224 1.321 . S
C1225 H1249 0.930 . S
H1226 C1221 0.931 . S
Co1227 N1224 2.135 . S
Co1227 N1230 2.121 . S
Co1227 O1235 2.055 . S
Co1227 O1238 2.039 . S
Co1227 N1241 2.140 . S
C1228 O1229 1.227 . S
C1228 O1238 1.265 . S
O1229 C1228 1.227 . S
N1230 Co1227 2.121 . S
N1230 C1232 1.375 . S
N1230 C1233 1.313 . S
C1231 C1232 1.338 . S
C1231 N1234 1.377 . S
C1231 H1251 0.930 . S
C1232 N1230 1.375 . S
C1232 C1231 1.338 . S
C1232 H1236 0.931 . S
C1233 N1230 1.313 . S
C1233 N1234 1.344 . S
C1233 H1237 0.930 . S
N1234 C1231 1.377 . S
N1234 C1233 1.344 . S
O1235 Co1227 2.055 . S
O1235 C1239 1.253 . S
H1236 C1232 0.931 . S
H1237 C1233 0.930 . S
O1238 Co1227 2.039 . S
O1238 C1228 1.265 . S
C1239 O1235 1.253 . S
C1239 O1240 1.227 . S
O1240 C1239 1.227 . S
N1241 Co1227 2.140 . S
N1241 C1244 1.346 . S
N1241 C1245 1.345 . S
C1242 C1243 1.387 . S
C1242 C1246 1.391 . S
C1243 C1242 1.387 . S
C1243 C1244 1.369 . S
C1243 H1252 0.929 . S
C1244 N1241 1.346 . S
C1244 C1243 1.369 . S
C1244 H1247 0.928 . S
C1245 N1241 1.345 . S
C1245 C1246 1.371 . S
C1245 H1248 0.931 . S
C1246 C1242 1.391 . S
C1246 C1245 1.371 . S
C1246 H1253 0.930 . S
H1247 C1244 0.928 . S
H1248 C1245 0.931 . S
H1249 C1225 0.930 . S
H1250 C1222 0.930 . S
H1251 C1231 0.930 . S
H1252 C1243 0.929 . S
H1253 C1246 0.930 . S
C1254 C1255 1.351 . S
C1254 N1257 1.368 . S
C1254 H1259 0.931 . S
C1255 C1254 1.351 . S
C1255 N1256 1.373 . S
C1255 H1283 0.930 . S
N1256 C1255 1.373 . S
N1256 C1258 1.340 . S
N1257 C1254 1.368 . S
N1257 C1258 1.321 . S
N1257 Co1260 2.135 . S
C1258 N1256 1.340 . S
C1258 N1257 1.321 . S
C1258 H1282 0.930 . S
H1259 C1254 0.931 . S
Co1260 N1257 2.135 . S
Co1260 N1263 2.121 . S
Co1260 O1268 2.055 . S
Co1260 O1271 2.039 . S
Co1260 N1274 2.140 . S
C1261 O1262 1.227 . S
C1261 O1271 1.265 . S
O1262 C1261 1.227 . S
N1263 Co1260 2.121 . S
N1263 C1265 1.375 . S
N1263 C1266 1.313 . S
C1264 C1265 1.338 . S
C1264 N1267 1.377 . S
C1264 H1284 0.930 . S
C1265 N1263 1.375 . S
C1265 C1264 1.338 . S
C1265 H1269 0.931 . S
C1266 N1263 1.313 . S
C1266 N1267 1.344 . S
C1266 H1270 0.930 . S
N1267 C1264 1.377 . S
N1267 C1266 1.344 . S
O1268 Co1260 2.055 . S
O1268 C1272 1.253 . S
H1269 C1265 0.931 . S
H1270 C1266 0.930 . S
O1271 Co1260 2.039 . S
O1271 C1261 1.265 . S
C1272 O1268 1.253 . S
C1272 O1273 1.227 . S
O1273 C1272 1.227 . S
N1274 Co1260 2.140 . S
N1274 C1277 1.346 . S
N1274 C1278 1.345 . S
C1275 C1276 1.387 . S
C1275 C1279 1.391 . S
C1276 C1275 1.387 . S
C1276 C1277 1.369 . S
C1276 H1285 0.929 . S
C1277 N1274 1.346 . S
C1277 C1276 1.369 . S
C1277 H1280 0.928 . S
C1278 N1274 1.345 . S
C1278 C1279 1.371 . S
C1278 H1281 0.931 . S
C1279 C1275 1.391 . S
C1279 C1278 1.371 . S
C1279 H1286 0.930 . S
H1280 C1277 0.928 . S
H1281 C1278 0.931 . S
H1282 C1258 0.930 . S
H1283 C1255 0.930 . S
H1284 C1264 0.930 . S
H1285 C1276 0.929 . S
H1286 C1279 0.930 . S
C1287 C1288 1.351 . S
C1287 N1290 1.368 . S
C1287 H1292 0.931 . S
C1288 C1287 1.351 . S
C1288 N1289 1.373 . S
C1288 H1316 0.930 . S
N1289 C1288 1.373 . S
N1289 C1291 1.340 . S
N1290 C1287 1.368 . S
N1290 C1291 1.321 . S
N1290 Co1293 2.135 . S
C1291 N1289 1.340 . S
C1291 N1290 1.321 . S
C1291 H1315 0.930 . S
H1292 C1287 0.931 . S
Co1293 N1290 2.135 . S
Co1293 N1296 2.121 . S
Co1293 O1301 2.055 . S
Co1293 O1304 2.039 . S
Co1293 N1307 2.140 . S
C1294 O1295 1.227 . S
C1294 O1304 1.265 . S
O1295 C1294 1.227 . S
N1296 Co1293 2.121 . S
N1296 C1298 1.375 . S
N1296 C1299 1.313 . S
C1297 C1298 1.338 . S
C1297 N1300 1.377 . S
C1297 H1317 0.930 . S
C1298 N1296 1.375 . S
C1298 C1297 1.338 . S
C1298 H1302 0.931 . S
C1299 N1296 1.313 . S
C1299 N1300 1.344 . S
C1299 H1303 0.930 . S
N1300 C1297 1.377 . S
N1300 C1299 1.344 . S
O1301 Co1293 2.055 . S
O1301 C1305 1.253 . S
H1302 C1298 0.931 . S
H1303 C1299 0.930 . S
O1304 Co1293 2.039 . S
O1304 C1294 1.265 . S
C1305 O1301 1.253 . S
C1305 O1306 1.227 . S
O1306 C1305 1.227 . S
N1307 Co1293 2.140 . S
N1307 C1310 1.346 . S
N1307 C1311 1.345 . S
C1308 C1309 1.387 . S
C1308 C1312 1.391 . S
C1309 C1308 1.387 . S
C1309 C1310 1.369 . S
C1309 H1318 0.929 . S
C1310 N1307 1.346 . S
C1310 C1309 1.369 . S
C1310 H1313 0.928 . S
C1311 N1307 1.345 . S
C1311 C1312 1.371 . S
C1311 H1314 0.931 . S
C1312 C1308 1.391 . S
C1312 C1311 1.371 . S
C1312 H1319 0.930 . S
H1313 C1310 0.928 . S
H1314 C1311 0.931 . S
H1315 C1291 0.930 . S
H1316 C1288 0.930 . S
H1317 C1297 0.930 . S
H1318 C1309 0.929 . S
H1319 C1312 0.930 . S
C1320 C1321 1.351 . S
C1320 N1323 1.368 . S
C1320 H1325 0.931 . S
C1321 C1320 1.351 . S
C1321 N1322 1.373 . S
C1321 H1349 0.930 . S
N1322 C1321 1.373 . S
N1322 C1324 1.340 . S
N1323 C1320 1.368 . S
N1323 C1324 1.321 . S
N1323 Co1326 2.135 . S
C1324 N1322 1.340 . S
C1324 N1323 1.321 . S
C1324 H1348 0.930 . S
H1325 C1320 0.931 . S
Co1326 N1323 2.135 . S
Co1326 N1329 2.121 . S
Co1326 O1334 2.055 . S
Co1326 O1337 2.039 . S
Co1326 N1340 2.140 . S
C1327 O1328 1.227 . S
C1327 O1337 1.265 . S
O1328 C1327 1.227 . S
N1329 Co1326 2.121 . S
N1329 C1331 1.375 . S
N1329 C1332 1.313 . S
C1330 C1331 1.338 . S
C1330 N1333 1.377 . S
C1330 H1350 0.930 . S
C1331 N1329 1.375 . S
C1331 C1330 1.338 . S
C1331 H1335 0.931 . S
C1332 N1329 1.313 . S
C1332 N1333 1.344 . S
C1332 H1336 0.930 . S
N1333 C1330 1.377 . S
N1333 C1332 1.344 . S
O1334 Co1326 2.055 . S
O1334 C1338 1.253 . S
H1335 C1331 0.931 . S
H1336 C1332 0.930 . S
O1337 Co1326 2.039 . S
O1337 C1327 1.265 . S
C1338 O1334 1.253 . S
C1338 O1339 1.227 . S
O1339 C1338 1.227 . S
N1340 Co1326 2.140 . S
N1340 C1343 1.346 . S
N1340 C1344 1.345 . S
C1341 C1342 1.387 . S
C1341 C1345 1.391 . S
C1342 C1341 1.387 . S
C1342 C1343 1.369 . S
C1342 H1351 0.929 . S
C1343 N1340 1.346 . S
C1343 C1342 1.369 . S
C1343 H1346 0.928 . S
C1344 N1340 1.345 . S
C1344 C1345 1.371 . S
C1344 H1347 0.931 . S
C1345 C1341 1.391 . S
C1345 C1344 1.371 . S
C1345 H1352 0.930 . S
H1346 C1343 0.928 . S
H1347 C1344 0.931 . S
H1348 C1324 0.930 . S
H1349 C1321 0.930 . S
H1350 C1330 0.930 . S
H1351 C1342 0.929 . S
H1352 C1345 0.930 . S
C1353 C1354 1.351 . S
C1353 N1356 1.368 . S
C1353 H1358 0.931 . S
C1354 C1353 1.351 . S
C1354 N1355 1.373 . S
C1354 H1382 0.930 . S
N1355 C1354 1.373 . S
N1355 C1357 1.340 . S
N1356 C1353 1.368 . S
N1356 C1357 1.321 . S
N1356 Co1359 2.135 . S
C1357 N1355 1.340 . S
C1357 N1356 1.321 . S
C1357 H1381 0.930 . S
H1358 C1353 0.931 . S
Co1359 N1356 2.135 . S
Co1359 N1362 2.121 . S
Co1359 O1367 2.055 . S
Co1359 O1370 2.039 . S
Co1359 N1373 2.140 . S
C1360 O1361 1.227 . S
C1360 O1370 1.265 . S
O1361 C1360 1.227 . S
N1362 Co1359 2.121 . S
N1362 C1364 1.375 . S
N1362 C1365 1.313 . S
C1363 C1364 1.338 . S
C1363 N1366 1.377 . S
C1363 H1383 0.930 . S
C1364 N1362 1.375 . S
C1364 C1363 1.338 . S
C1364 H1368 0.931 . S
C1365 N1362 1.313 . S
C1365 N1366 1.344 . S
C1365 H1369 0.930 . S
N1366 C1363 1.377 . S
N1366 C1365 1.344 . S
O1367 Co1359 2.055 . S
O1367 C1371 1.253 . S
H1368 C1364 0.931 . S
H1369 C1365 0.930 . S
O1370 Co1359 2.039 . S
O1370 C1360 1.265 . S
C1371 O1367 1.253 . S
C1371 O1372 1.227 . S
O1372 C1371 1.227 . S
N1373 Co1359 2.140 . S
N1373 C1376 1.346 . S
N1373 C1377 1.345 . S
C1374 C1375 1.387 . S
C1374 C1378 1.391 . S
C1375 C1374 1.387 . S
C1375 C1376 1.369 . S
C1375 H1384 0.929 . S
C1376 N1373 1.346 . S
C1376 C1375 1.369 . S
C1376 H1379 0.928 . S
C1377 N1373 1.345 . S
C1377 C1378 1.371 . S
C1377 H1380 0.931 . S
C1378 C1374 1.391 . S
C1378 C1377 1.371 . S
C1378 H1385 0.930 . S
H1379 C1376 0.928 . S
H1380 C1377 0.931 . S
H1381 C1357 0.930 . S
H1382 C1354 0.930 . S
H1383 C1363 0.930 . S
H1384 C1375 0.929 . S
H1385 C1378 0.930 . S
C1386 C1387 1.351 . S
C1386 N1389 1.368 . S
C1386 H1391 0.931 . S
C1387 C1386 1.351 . S
C1387 N1388 1.373 . S
C1387 H1415 0.930 . S
N1388 C1387 1.373 . S
N1388 C1390 1.340 . S
N1389 C1386 1.368 . S
N1389 C1390 1.321 . S
N1389 Co1392 2.135 . S
C1390 N1388 1.340 . S
C1390 N1389 1.321 . S
C1390 H1414 0.930 . S
H1391 C1386 0.931 . S
Co1392 N1389 2.135 . S
Co1392 N1395 2.121 . S
Co1392 O1400 2.055 . S
Co1392 O1403 2.039 . S
Co1392 N1406 2.140 . S
C1393 O1394 1.227 . S
C1393 O1403 1.265 . S
O1394 C1393 1.227 . S
N1395 Co1392 2.121 . S
N1395 C1397 1.375 . S
N1395 C1398 1.313 . S
C1396 C1397 1.338 . S
C1396 N1399 1.377 . S
C1396 H1416 0.930 . S
C1397 N1395 1.375 . S
C1397 C1396 1.338 . S
C1397 H1401 0.931 . S
C1398 N1395 1.313 . S
C1398 N1399 1.344 . S
C1398 H1402 0.930 . S
N1399 C1396 1.377 . S
N1399 C1398 1.344 . S
O1400 Co1392 2.055 . S
O1400 C1404 1.253 . S
H1401 C1397 0.931 . S
H1402 C1398 0.930 . S
O1403 Co1392 2.039 . S
O1403 C1393 1.265 . S
C1404 O1400 1.253 . S
C1404 O1405 1.227 . S
O1405 C1404 1.227 . S
N1406 Co1392 2.140 . S
N1406 C1409 1.346 . S
N1406 C1410 1.345 . S
C1407 C1408 1.387 . S
C1407 C1411 1.391 . S
C1408 C1407 1.387 . S
C1408 C1409 1.369 . S
C1408 H1417 0.929 . S
C1409 N1406 1.346 . S
C1409 C1408 1.369 . S
C1409 H1412 0.928 . S
C1410 N1406 1.345 . S
C1410 C1411 1.371 . S
C1410 H1413 0.931 . S
C1411 C1407 1.391 . S
C1411 C1410 1.371 . S
C1411 H1418 0.930 . S
H1412 C1409 0.928 . S
H1413 C1410 0.931 . S
H1414 C1390 0.930 . S
H1415 C1387 0.930 . S
H1416 C1396 0.930 . S
H1417 C1408 0.929 . S
H1418 C1411 0.930 . S
C1419 C1420 1.351 . S
C1419 N1422 1.368 . S
C1419 H1424 0.931 . S
C1420 C1419 1.351 . S
C1420 N1421 1.373 . S
C1420 H1448 0.930 . S
N1421 C1420 1.373 . S
N1421 C1423 1.340 . S
N1422 C1419 1.368 . S
N1422 C1423 1.321 . S
N1422 Co1425 2.135 . S
C1423 N1421 1.340 . S
C1423 N1422 1.321 . S
C1423 H1447 0.930 . S
H1424 C1419 0.931 . S
Co1425 N1422 2.135 . S
Co1425 N1428 2.121 . S
Co1425 O1433 2.055 . S
Co1425 O1436 2.039 . S
Co1425 N1439 2.140 . S
C1426 O1427 1.227 . S
C1426 O1436 1.265 . S
O1427 C1426 1.227 . S
N1428 Co1425 2.121 . S
N1428 C1430 1.375 . S
N1428 C1431 1.313 . S
C1429 C1430 1.338 . S
C1429 N1432 1.377 . S
C1429 H1449 0.930 1_556 S
C1430 N1428 1.375 . S
C1430 C1429 1.338 . S
C1430 H1434 0.931 . S
C1431 N1428 1.313 . S
C1431 N1432 1.344 . S
C1431 H1435 0.930 . S
N1432 C1429 1.377 . S
N1432 C1431 1.344 . S
O1433 Co1425 2.055 . S
O1433 C1437 1.253 . S
H1434 C1430 0.931 . S
H1435 C1431 0.930 . S
O1436 Co1425 2.039 . S
O1436 C1426 1.265 . S
C1437 O1433 1.253 . S
C1437 O1438 1.227 . S
O1438 C1437 1.227 . S
N1439 Co1425 2.140 . S
N1439 C1442 1.346 . S
N1439 C1443 1.345 . S
C1440 C1441 1.387 . S
C1440 C1444 1.391 . S
C1441 C1440 1.387 . S
C1441 C1442 1.369 . S
C1441 H1450 0.929 . S
C1442 N1439 1.346 . S
C1442 C1441 1.369 . S
C1442 H1445 0.928 . S
C1443 N1439 1.345 . S
C1443 C1444 1.371 . S
C1443 H1446 0.931 . S
C1444 C1440 1.391 . S
C1444 C1443 1.371 . S
C1444 H1451 0.930 . S
H1445 C1442 0.928 . S
H1446 C1443 0.931 . S
H1447 C1423 0.930 . S
H1448 C1420 0.930 . S
H1449 C1429 0.930 1_554 S
H1450 C1441 0.929 . S
H1451 C1444 0.930 . S
C1452 C1453 1.351 . S
C1452 N1455 1.368 . S
C1452 H1457 0.931 . S
C1453 C1452 1.351 . S
C1453 N1454 1.373 . S
C1453 H1481 0.930 . S
N1454 C1453 1.373 . S
N1454 C1456 1.340 . S
N1455 C1452 1.368 . S
N1455 C1456 1.321 . S
N1455 Co1458 2.135 . S
C1456 N1454 1.340 . S
C1456 N1455 1.321 . S
C1456 H1480 0.930 . S
H1457 C1452 0.931 . S
Co1458 N1455 2.135 . S
Co1458 N1461 2.121 . S
Co1458 O1466 2.055 . S
Co1458 O1469 2.039 . S
Co1458 N1472 2.140 . S
C1459 O1460 1.227 . S
C1459 O1469 1.265 . S
O1460 C1459 1.227 . S
N1461 Co1458 2.121 . S
N1461 C1463 1.375 . S
N1461 C1464 1.313 . S
C1462 C1463 1.338 . S
C1462 N1465 1.377 . S
C1462 H1482 0.930 . S
C1463 N1461 1.375 . S
C1463 C1462 1.338 . S
C1463 H1467 0.931 . S
C1464 N1461 1.313 . S
C1464 N1465 1.344 . S
C1464 H1468 0.930 . S
N1465 C1462 1.377 . S
N1465 C1464 1.344 . S
O1466 Co1458 2.055 . S
O1466 C1470 1.253 . S
H1467 C1463 0.931 . S
H1468 C1464 0.930 . S
O1469 Co1458 2.039 . S
O1469 C1459 1.265 . S
C1470 O1466 1.253 . S
C1470 O1471 1.227 . S
O1471 C1470 1.227 . S
N1472 Co1458 2.140 . S
N1472 C1475 1.346 . S
N1472 C1476 1.345 . S
C1473 C1474 1.387 . S
C1473 C1477 1.391 . S
C1474 C1473 1.387 . S
C1474 C1475 1.369 . S
C1474 H1483 0.929 . S
C1475 N1472 1.346 . S
C1475 C1474 1.369 . S
C1475 H1478 0.928 . S
C1476 N1472 1.345 . S
C1476 C1477 1.371 . S
C1476 H1479 0.931 . S
C1477 C1473 1.391 . S
C1477 C1476 1.371 . S
C1477 H1484 0.930 . S
H1478 C1475 0.928 . S
H1479 C1476 0.931 . S
H1480 C1456 0.930 . S
H1481 C1453 0.930 . S
H1482 C1462 0.930 . S
H1483 C1474 0.929 . S
H1484 C1477 0.930 . S
C1485 C1486 1.351 . S
C1485 N1488 1.368 . S
C1485 H1490 0.931 . S
C1486 C1485 1.351 . S
C1486 N1487 1.373 . S
C1486 H1514 0.930 . S
N1487 C1486 1.373 . S
N1487 C1489 1.340 . S
N1488 C1485 1.368 . S
N1488 C1489 1.321 . S
N1488 Co1491 2.135 . S
C1489 N1487 1.340 . S
C1489 N1488 1.321 . S
C1489 H1513 0.930 . S
H1490 C1485 0.931 . S
Co1491 N1488 2.135 . S
Co1491 N1494 2.121 . S
Co1491 O1499 2.055 . S
Co1491 O1502 2.039 . S
Co1491 N1505 2.140 . S
C1492 O1493 1.227 . S
C1492 O1502 1.265 . S
O1493 C1492 1.227 . S
N1494 Co1491 2.121 . S
N1494 C1496 1.375 . S
N1494 C1497 1.313 . S
C1495 C1496 1.338 . S
C1495 N1498 1.377 . S
C1495 H1515 0.930 1_554 S
C1496 N1494 1.375 . S
C1496 C1495 1.338 . S
C1496 H1500 0.931 . S
C1497 N1494 1.313 . S
C1497 N1498 1.344 . S
C1497 H1501 0.930 . S
N1498 C1495 1.377 . S
N1498 C1497 1.344 . S
O1499 Co1491 2.055 . S
O1499 C1503 1.253 . S
H1500 C1496 0.931 . S
H1501 C1497 0.930 . S
O1502 Co1491 2.039 . S
O1502 C1492 1.265 . S
C1503 O1499 1.253 . S
C1503 O1504 1.227 . S
O1504 C1503 1.227 . S
N1505 Co1491 2.140 . S
N1505 C1508 1.346 . S
N1505 C1509 1.345 . S
C1506 C1507 1.387 . S
C1506 C1510 1.391 . S
C1507 C1506 1.387 . S
C1507 C1508 1.369 . S
C1507 H1516 0.929 . S
C1508 N1505 1.346 . S
C1508 C1507 1.369 . S
C1508 H1511 0.928 . S
C1509 N1505 1.345 . S
C1509 C1510 1.371 . S
C1509 H1512 0.931 . S
C1510 C1506 1.391 . S
C1510 C1509 1.371 . S
C1510 H1517 0.930 . S
H1511 C1508 0.928 . S
H1512 C1509 0.931 . S
H1513 C1489 0.930 . S
H1514 C1486 0.930 . S
H1515 C1495 0.930 1_556 S
H1516 C1507 0.929 . S
H1517 C1510 0.930 . S
C1518 C1519 1.351 . S
C1518 N1521 1.368 . S
C1518 H1523 0.931 . S
C1519 C1518 1.351 . S
C1519 N1520 1.373 . S
C1519 H1547 0.930 . S
N1520 C1519 1.373 . S
N1520 C1522 1.340 . S
N1521 C1518 1.368 . S
N1521 C1522 1.321 . S
N1521 Co1524 2.135 . S
C1522 N1520 1.340 . S
C1522 N1521 1.321 . S
C1522 H1546 0.930 . S
H1523 C1518 0.931 . S
Co1524 N1521 2.135 . S
Co1524 N1527 2.121 . S
Co1524 O1532 2.055 . S
Co1524 O1535 2.039 . S
Co1524 N1538 2.140 . S
C1525 O1526 1.227 . S
C1525 O1535 1.265 . S
O1526 C1525 1.227 . S
N1527 Co1524 2.121 . S
N1527 C1529 1.375 . S
N1527 C1530 1.313 . S
C1528 C1529 1.338 . S
C1528 N1531 1.377 . S
C1528 H1548 0.930 . S
C1529 N1527 1.375 . S
C1529 C1528 1.338 . S
C1529 H1533 0.931 . S
C1530 N1527 1.313 . S
C1530 N1531 1.344 . S
C1530 H1534 0.930 . S
N1531 C1528 1.377 . S
N1531 C1530 1.344 . S
O1532 Co1524 2.055 . S
O1532 C1536 1.253 . S
H1533 C1529 0.931 . S
H1534 C1530 0.930 . S
O1535 Co1524 2.039 . S
O1535 C1525 1.265 . S
C1536 O1532 1.253 . S
C1536 O1537 1.227 . S
O1537 C1536 1.227 . S
N1538 Co1524 2.140 . S
N1538 C1541 1.346 . S
N1538 C1542 1.345 . S
C1539 C1540 1.387 . S
C1539 C1543 1.391 . S
C1540 C1539 1.387 . S
C1540 C1541 1.369 . S
C1540 H1549 0.929 . S
C1541 N1538 1.346 . S
C1541 C1540 1.369 . S
C1541 H1544 0.928 . S
C1542 N1538 1.345 . S
C1542 C1543 1.371 . S
C1542 H1545 0.931 . S
C1543 C1539 1.391 . S
C1543 C1542 1.371 . S
C1543 H1550 0.930 . S
H1544 C1541 0.928 . S
H1545 C1542 0.931 . S
H1546 C1522 0.930 . S
H1547 C1519 0.930 . S
H1548 C1528 0.930 . S
H1549 C1540 0.929 . S
H1550 C1543 0.930 . S
C1551 C1552 1.351 . S
C1551 N1554 1.368 . S
C1551 H1556 0.931 . S
C1552 C1551 1.351 . S
C1552 N1553 1.373 . S
C1552 H1580 0.930 . S
N1553 C1552 1.373 . S
N1553 C1555 1.340 . S
N1554 C1551 1.368 . S
N1554 C1555 1.321 . S
N1554 Co1557 2.135 . S
C1555 N1553 1.340 . S
C1555 N1554 1.321 . S
C1555 H1579 0.930 . S
H1556 C1551 0.931 . S
Co1557 N1554 2.135 . S
Co1557 N1560 2.121 . S
Co1557 O1565 2.055 . S
Co1557 O1568 2.039 . S
Co1557 N1571 2.140 . S
C1558 O1559 1.227 . S
C1558 O1568 1.265 . S
O1559 C1558 1.227 . S
N1560 Co1557 2.121 . S
N1560 C1562 1.375 . S
N1560 C1563 1.313 . S
C1561 C1562 1.338 . S
C1561 N1564 1.377 . S
C1561 H1581 0.930 . S
C1562 N1560 1.375 . S
C1562 C1561 1.338 . S
C1562 H1566 0.931 . S
C1563 N1560 1.313 . S
C1563 N1564 1.344 . S
C1563 H1567 0.930 . S
N1564 C1561 1.377 . S
N1564 C1563 1.344 . S
O1565 Co1557 2.055 . S
O1565 C1569 1.253 . S
H1566 C1562 0.931 . S
H1567 C1563 0.930 . S
O1568 Co1557 2.039 . S
O1568 C1558 1.265 . S
C1569 O1565 1.253 . S
C1569 O1570 1.227 . S
O1570 C1569 1.227 . S
N1571 Co1557 2.140 . S
N1571 C1574 1.346 . S
N1571 C1575 1.345 . S
C1572 C1573 1.387 . S
C1572 C1576 1.391 . S
C1573 C1572 1.387 . S
C1573 C1574 1.369 . S
C1573 H1582 0.929 . S
C1574 N1571 1.346 . S
C1574 C1573 1.369 . S
C1574 H1577 0.928 . S
C1575 N1571 1.345 . S
C1575 C1576 1.371 . S
C1575 H1578 0.931 . S
C1576 C1572 1.391 . S
C1576 C1575 1.371 . S
C1576 H1583 0.930 . S
H1577 C1574 0.928 . S
H1578 C1575 0.931 . S
H1579 C1555 0.930 . S
H1580 C1552 0.930 . S
H1581 C1561 0.930 . S
H1582 C1573 0.929 . S
H1583 C1576 0.930 . S
H1584 C1590 0.930 . S
H1585 C1594 0.930 . S
H1586 C1599 0.929 . S
H1587 C1597 0.929 . S
H1588 C1592 0.929 . S
H1589 C1598 0.929 1_655 S
C1590 H1584 0.930 . S
C1590 C1591 1.367 . S
C1590 C1598 1.378 . S
C1591 C1590 1.367 . S
C1591 C1599 1.433 . S
C1592 H1588 0.929 . S
C1592 C1594 1.378 . S
C1592 C1596 1.350 . S
C1593 C1596 1.463 . S
C1593 C1598 1.350 . S
C1593 N1601 1.427 . S
C1594 H1585 0.930 . S
C1594 C1592 1.378 . S
C1594 C1595 1.367 . S
C1595 C1594 1.367 . S
C1595 C1597 1.433 1_455 S
C1596 C1592 1.350 . S
C1596 C1593 1.463 . S
C1596 N1600 1.427 1_455 S
C1597 H1587 0.929 . S
C1597 C1595 1.433 1_655 S
C1597 N1600 1.384 . S
C1598 H1589 0.929 1_455 S
C1598 C1590 1.378 . S
C1598 C1593 1.350 . S
C1599 H1586 0.929 . S
C1599 C1591 1.433 . S
C1599 N1601 1.384 . S
N1600 C1596 1.427 1_655 S
N1600 C1597 1.384 . S
N1601 C1593 1.427 . S
N1601 C1599 1.384 . S
H1602 C1608 0.930 . S
H1603 C1612 0.930 . S
H1604 C1617 0.929 . S
H1605 C1615 0.929 . S
H1606 C1610 0.929 . S
H1607 C1616 0.929 . S
C1608 H1602 0.930 . S
C1608 C1609 1.367 . S
C1608 C1616 1.378 . S
C1609 C1608 1.367 . S
C1609 C1617 1.433 . S
C1610 H1606 0.929 . S
C1610 C1612 1.378 . S
C1610 C1614 1.350 . S
C1611 C1614 1.463 . S
C1611 C1616 1.350 . S
C1611 N1619 1.427 . S
C1612 H1603 0.930 . S
C1612 C1610 1.378 . S
C1612 C1613 1.367 . S
C1613 C1612 1.367 . S
C1613 C1615 1.433 . S
C1614 C1610 1.350 . S
C1614 C1611 1.463 . S
C1614 N1618 1.427 . S
C1615 H1605 0.929 . S
C1615 C1613 1.433 . S
C1615 N1618 1.384 . S
C1616 H1607 0.929 . S
C1616 C1608 1.378 . S
C1616 C1611 1.350 . S
C1617 H1604 0.929 . S
C1617 C1609 1.433 . S
C1617 N1619 1.384 . S
N1618 C1614 1.427 . S
N1618 C1615 1.384 . S
N1619 C1611 1.427 . S
N1619 C1617 1.384 . S
H1620 C1626 0.930 . S
H1621 C1630 0.930 . S
H1622 C1635 0.929 . S
H1623 C1633 0.929 . S
H1624 C1628 0.929 . S
H1625 C1634 0.929 . S
C1626 H1620 0.930 . S
C1626 C1627 1.367 . S
C1626 C1634 1.378 . S
C1627 C1626 1.367 . S
C1627 C1635 1.433 . S
C1628 H1624 0.929 . S
C1628 C1630 1.378 . S
C1628 C1632 1.350 . S
C1629 C1632 1.463 . S
C1629 C1634 1.350 . S
C1629 N1637 1.427 . S
C1630 H1621 0.930 . S
C1630 C1628 1.378 . S
C1630 C1631 1.367 . S
C1631 C1630 1.367 . S
C1631 C1633 1.433 . S
C1632 C1628 1.350 . S
C1632 C1629 1.463 . S
C1632 N1636 1.427 . S
C1633 H1623 0.929 . S
C1633 C1631 1.433 . S
C1633 N1636 1.384 . S
C1634 H1625 0.929 . S
C1634 C1626 1.378 . S
C1634 C1629 1.350 . S
C1635 H1622 0.929 . S
C1635 C1627 1.433 . S
C1635 N1637 1.384 . S
N1636 C1632 1.427 . S
N1636 C1633 1.384 . S
N1637 C1629 1.427 . S
N1637 C1635 1.384 . S
H1638 C1644 0.930 . S
H1639 C1648 0.930 . S
H1640 C1653 0.929 . S
H1641 C1651 0.929 . S
H1642 C1646 0.929 . S
H1643 C1652 0.929 . S
C1644 H1638 0.930 . S
C1644 C1645 1.367 . S
C1644 C1652 1.378 . S
C1645 C1644 1.367 . S
C1645 C1653 1.433 . S
C1646 H1642 0.929 . S
C1646 C1648 1.378 . S
C1646 C1650 1.350 . S
C1647 C1650 1.463 . S
C1647 C1652 1.350 . S
C1647 N1655 1.427 . S
C1648 H1639 0.930 . S
C1648 C1646 1.378 . S
C1648 C1649 1.367 . S
C1649 C1648 1.367 . S
C1649 C1651 1.433 . S
C1650 C1646 1.350 . S
C1650 C1647 1.463 . S
C1650 N1654 1.427 . S
C1651 H1641 0.929 . S
C1651 C1649 1.433 . S
C1651 N1654 1.384 . S
C1652 H1643 0.929 . S
C1652 C1644 1.378 . S
C1652 C1647 1.350 . S
C1653 H1640 0.929 . S
C1653 C1645 1.433 . S
C1653 N1655 1.384 . S
N1654 C1650 1.427 . S
N1654 C1651 1.384 . S
N1655 C1647 1.427 . S
N1655 C1653 1.384 . S
H1656 C1662 0.929 . S
H1657 C1666 0.930 . S
H1658 C1671 0.929 . S
H1659 C1669 0.929 . S
H1660 C1664 0.929 . S
H1661 C1670 0.929 . S
C1662 H1656 0.929 . S
C1662 C1663 1.367 . S
C1662 C1670 1.378 . S
C1663 C1662 1.367 . S
C1663 C1671 1.433 . S
C1664 H1660 0.929 . S
C1664 C1666 1.378 . S
C1664 C1668 1.350 . S
C1665 C1668 1.463 . S
C1665 C1670 1.350 . S
C1665 N1673 1.427 . S
C1666 H1657 0.930 . S
C1666 C1664 1.378 . S
C1666 C1667 1.367 . S
C1667 C1666 1.367 . S
C1667 C1669 1.433 . S
C1668 C1664 1.350 . S
C1668 C1665 1.463 . S
C1668 N1672 1.427 . S
C1669 H1659 0.929 . S
C1669 C1667 1.433 . S
C1669 N1672 1.384 . S
C1670 H1661 0.929 . S
C1670 C1662 1.378 . S
C1670 C1665 1.350 . S
C1671 H1658 0.929 . S
C1671 C1663 1.433 . S
C1671 N1673 1.384 . S
N1672 C1668 1.427 . S
N1672 C1669 1.384 . S
N1673 C1665 1.427 . S
N1673 C1671 1.384 . S
H1674 C1680 0.930 . S
H1675 C1684 0.930 . S
H1676 C1689 0.929 . S
H1677 C1687 0.929 . S
H1678 C1682 0.929 . S
H1679 C1688 0.929 . S
C1680 H1674 0.930 . S
C1680 C1681 1.367 . S
C1680 C1688 1.378 . S
C1681 C1680 1.367 . S
C1681 C1689 1.433 . S
C1682 H1678 0.929 . S
C1682 C1684 1.378 . S
C1682 C1686 1.350 . S
C1683 C1686 1.463 . S
C1683 C1688 1.350 . S
C1683 N1691 1.427 . S
C1684 H1675 0.930 . S
C1684 C1682 1.378 . S
C1684 C1685 1.367 . S
C1685 C1684 1.367 . S
C1685 C1687 1.433 . S
C1686 C1682 1.350 . S
C1686 C1683 1.463 . S
C1686 N1690 1.427 . S
C1687 H1677 0.929 . S
C1687 C1685 1.433 . S
C1687 N1690 1.384 . S
C1688 H1679 0.929 . S
C1688 C1680 1.378 . S
C1688 C1683 1.350 . S
C1689 H1676 0.929 . S
C1689 C1681 1.433 . S
C1689 N1691 1.384 . S
N1690 C1686 1.427 . S
N1690 C1687 1.384 . S
N1691 C1683 1.427 . S
N1691 C1689 1.384 . S
H1692 C1698 0.930 . S
H1693 C1702 0.930 . S
H1694 C1707 0.929 . S
H1695 C1705 0.929 . S
H1696 C1700 0.929 . S
H1697 C1706 0.929 . S
C1698 H1692 0.930 . S
C1698 C1699 1.367 . S
C1698 C1706 1.378 . S
C1699 C1698 1.367 . S
C1699 C1707 1.433 . S
C1700 H1696 0.929 . S
C1700 C1702 1.378 . S
C1700 C1704 1.350 . S
C1701 C1704 1.463 . S
C1701 C1706 1.350 . S
C1701 N1709 1.427 . S
C1702 H1693 0.930 . S
C1702 C1700 1.378 . S
C1702 C1703 1.367 . S
C1703 C1702 1.367 . S
C1703 C1705 1.433 . S
C1704 C1700 1.350 . S
C1704 C1701 1.463 . S
C1704 N1708 1.427 . S
C1705 H1695 0.929 . S
C1705 C1703 1.433 . S
C1705 N1708 1.384 . S
C1706 H1697 0.929 . S
C1706 C1698 1.378 . S
C1706 C1701 1.350 . S
C1707 H1694 0.929 . S
C1707 C1699 1.433 . S
C1707 N1709 1.384 . S
N1708 C1704 1.427 . S
N1708 C1705 1.384 . S
N1709 C1701 1.427 . S
N1709 C1707 1.384 . S
H1710 C1716 0.930 . S
H1711 C1720 0.930 . S
H1712 C1725 0.929 . S
H1713 C1723 0.929 . S
H1714 C1718 0.929 . S
H1715 C1724 0.929 . S
C1716 H1710 0.930 . S
C1716 C1717 1.367 . S
C1716 C1724 1.378 . S
C1717 C1716 1.367 . S
C1717 C1725 1.433 . S
C1718 H1714 0.929 . S
C1718 C1720 1.378 . S
C1718 C1722 1.350 . S
C1719 C1722 1.463 . S
C1719 C1724 1.350 . S
C1719 N1727 1.427 . S
C1720 H1711 0.930 . S
C1720 C1718 1.378 . S
C1720 C1721 1.367 . S
C1721 C1720 1.367 . S
C1721 C1723 1.433 . S
C1722 C1718 1.350 . S
C1722 C1719 1.463 . S
C1722 N1726 1.427 . S
C1723 H1713 0.929 . S
C1723 C1721 1.433 . S
C1723 N1726 1.384 . S
C1724 H1715 0.929 . S
C1724 C1716 1.378 . S
C1724 C1719 1.350 . S
C1725 H1712 0.929 . S
C1725 C1717 1.433 . S
C1725 N1727 1.384 . S
N1726 C1722 1.427 . S
N1726 C1723 1.384 . S
N1727 C1719 1.427 . S
N1727 C1725 1.384 . S
H1728 C1734 0.930 . S
H1729 C1738 0.930 . S
H1730 C1743 0.929 . S
H1731 C1741 0.929 . S
H1732 C1736 0.929 . S
H1733 C1742 0.929 . S
C1734 H1728 0.930 . S
C1734 C1735 1.367 1_565 S
C1734 C1742 1.378 . S
C1735 C1734 1.367 1_545 S
C1735 C1743 1.433 . S
C1736 H1732 0.929 . S
C1736 C1738 1.378 . S
C1736 C1740 1.350 . S
C1737 C1740 1.463 . S
C1737 C1742 1.350 1_545 S
C1737 N1745 1.427 . S
C1738 H1729 0.930 . S
C1738 C1736 1.378 . S
C1738 C1739 1.367 . S
C1739 C1738 1.367 . S
C1739 C1741 1.433 . S
C1740 C1736 1.350 . S
C1740 C1737 1.463 . S
C1740 N1744 1.427 . S
C1741 H1731 0.929 . S
C1741 C1739 1.433 . S
C1741 N1744 1.384 . S
C1742 H1733 0.929 . S
C1742 C1734 1.378 . S
C1742 C1737 1.350 1_565 S
C1743 H1730 0.929 . S
C1743 C1735 1.433 . S
C1743 N1745 1.384 . S
N1744 C1740 1.427 . S
N1744 C1741 1.384 . S
N1745 C1737 1.427 . S
N1745 C1743 1.384 . S
H1746 C1752 0.930 . S
H1747 C1756 0.930 . S
H1748 C1761 0.929 . S
H1749 C1759 0.929 . S
H1750 C1754 0.929 . S
H1751 C1760 0.929 . S
C1752 H1746 0.930 . S
C1752 C1753 1.367 . S
C1752 C1760 1.378 . S
C1753 C1752 1.367 . S
C1753 C1761 1.433 . S
C1754 H1750 0.929 . S
C1754 C1756 1.378 . S
C1754 C1758 1.350 . S
C1755 C1758 1.463 . S
C1755 C1760 1.350 . S
C1755 N1763 1.427 . S
C1756 H1747 0.930 . S
C1756 C1754 1.378 . S
C1756 C1757 1.367 . S
C1757 C1756 1.367 . S
C1757 C1759 1.433 . S
C1758 C1754 1.350 . S
C1758 C1755 1.463 . S
C1758 N1762 1.427 . S
C1759 H1749 0.929 . S
C1759 C1757 1.433 . S
C1759 N1762 1.384 . S
C1760 H1751 0.929 . S
C1760 C1752 1.378 . S
C1760 C1755 1.350 . S
C1761 H1748 0.929 . S
C1761 C1753 1.433 . S
C1761 N1763 1.384 . S
N1762 C1758 1.427 . S
N1762 C1759 1.384 . S
N1763 C1755 1.427 . S
N1763 C1761 1.384 . S
H1764 C1770 0.930 . S
H1765 C1774 0.930 . S
H1766 C1779 0.929 . S
H1767 C1777 0.929 . S
H1768 C1772 0.929 . S
H1769 C1778 0.929 . S
C1770 H1764 0.930 . S
C1770 C1771 1.367 . S
C1770 C1778 1.378 . S
C1771 C1770 1.367 . S
C1771 C1779 1.433 1_565 S
C1772 H1768 0.929 . S
C1772 C1774 1.378 . S
C1772 C1776 1.350 . S
C1773 C1776 1.463 . S
C1773 C1778 1.350 . S
C1773 N1781 1.427 . S
C1774 H1765 0.930 . S
C1774 C1772 1.378 . S
C1774 C1775 1.367 . S
C1775 C1774 1.367 . S
C1775 C1777 1.433 . S
C1776 C1772 1.350 . S
C1776 C1773 1.463 . S
C1776 N1780 1.427 . S
C1777 H1767 0.929 . S
C1777 C1775 1.433 . S
C1777 N1780 1.384 . S
C1778 H1769 0.929 . S
C1778 C1770 1.378 . S
C1778 C1773 1.350 . S
C1779 H1766 0.929 . S
C1779 C1771 1.433 1_545 S
C1779 N1781 1.384 1_545 S
N1780 C1776 1.427 . S
N1780 C1777 1.384 . S
N1781 C1773 1.427 . S
N1781 C1779 1.384 1_565 S
H1782 C1788 0.930 . S
H1783 C1792 0.930 . S
H1784 C1797 0.929 . S
H1785 C1795 0.929 . S
H1786 C1790 0.929 . S
H1787 C1796 0.929 . S
C1788 H1782 0.930 . S
C1788 C1789 1.367 . S
C1788 C1796 1.378 . S
C1789 C1788 1.367 . S
C1789 C1797 1.433 . S
C1790 H1786 0.929 . S
C1790 C1792 1.378 . S
C1790 C1794 1.350 . S
C1791 C1794 1.463 . S
C1791 C1796 1.350 . S
C1791 N1799 1.427 . S
C1792 H1783 0.930 . S
C1792 C1790 1.378 . S
C1792 C1793 1.367 . S
C1793 C1792 1.367 . S
C1793 C1795 1.433 . S
C1794 C1790 1.350 . S
C1794 C1791 1.463 . S
C1794 N1798 1.427 . S
C1795 H1785 0.929 . S
C1795 C1793 1.433 . S
C1795 N1798 1.384 . S
C1796 H1787 0.929 . S
C1796 C1788 1.378 . S
C1796 C1791 1.350 . S
C1797 H1784 0.929 . S
C1797 C1789 1.433 . S
C1797 N1799 1.384 . S
N1798 C1794 1.427 . S
N1798 C1795 1.384 . S
N1799 C1791 1.427 . S
N1799 C1797 1.384 . S
H1800 C1806 0.930 . S
H1801 C1810 0.930 . S
H1802 C1815 0.929 . S
H1803 C1813 0.929 . S
H1804 C1808 0.929 1_545 S
H1805 C1814 0.929 . S
C1806 H1800 0.930 . S
C1806 C1807 1.367 . S
C1806 C1814 1.378 . S
C1807 C1806 1.367 . S
C1807 C1815 1.433 1_565 S
C1808 H1804 0.929 1_565 S
C1808 C1810 1.378 . S
C1808 C1812 1.350 . S
C1809 C1812 1.463 . S
C1809 C1814 1.350 . S
C1809 N1817 1.427 1_565 S
C1810 H1801 0.930 . S
C1810 C1808 1.378 . S
C1810 C1811 1.367 . S
C1811 C1810 1.367 . S
C1811 C1813 1.433 . S
C1812 C1808 1.350 . S
C1812 C1809 1.463 . S
C1812 N1816 1.427 . S
C1813 H1803 0.929 . S
C1813 C1811 1.433 . S
C1813 N1816 1.384 . S
C1814 H1805 0.929 . S
C1814 C1806 1.378 . S
C1814 C1809 1.350 . S
C1815 H1802 0.929 . S
C1815 C1807 1.433 1_545 S
C1815 N1817 1.384 . S
N1816 C1812 1.427 . S
N1816 C1813 1.384 . S
N1817 C1809 1.427 1_545 S
N1817 C1815 1.384 . S
H1818 C1824 0.930 . S
H1819 C1828 0.930 . S
H1820 C1833 0.929 . S
H1821 C1831 0.929 . S
H1822 C1826 0.929 . S
H1823 C1832 0.929 . S
C1824 H1818 0.930 . S
C1824 C1825 1.367 . S
C1824 C1832 1.378 . S
C1825 C1824 1.367 . S
C1825 C1833 1.433 . S
C1826 H1822 0.929 . S
C1826 C1828 1.378 . S
C1826 C1830 1.350 . S
C1827 C1830 1.463 . S
C1827 C1832 1.350 . S
C1827 N1835 1.427 . S
C1828 H1819 0.930 . S
C1828 C1826 1.378 . S
C1828 C1829 1.367 . S
C1829 C1828 1.367 . S
C1829 C1831 1.433 . S
C1830 C1826 1.350 . S
C1830 C1827 1.463 . S
C1830 N1834 1.427 . S
C1831 H1821 0.929 . S
C1831 C1829 1.433 . S
C1831 N1834 1.384 . S
C1832 H1823 0.929 . S
C1832 C1824 1.378 . S
C1832 C1827 1.350 . S
C1833 H1820 0.929 . S
C1833 C1825 1.433 . S
C1833 N1835 1.384 . S
N1834 C1830 1.427 . S
N1834 C1831 1.384 . S
N1835 C1827 1.427 . S
N1835 C1833 1.384 . S
H1836 C1842 0.930 . S
H1837 C1846 0.930 . S
H1838 C1851 0.929 . S
H1839 C1849 0.929 . S
H1840 C1844 0.929 . S
H1841 C1850 0.929 . S
C1842 H1836 0.930 . S
C1842 C1843 1.367 . S
C1842 C1850 1.378 . S
C1843 C1842 1.367 . S
C1843 C1851 1.433 . S
C1844 H1840 0.929 . S
C1844 C1846 1.378 . S
C1844 C1848 1.350 . S
C1845 C1848 1.463 . S
C1845 C1850 1.350 . S
C1845 N1853 1.427 . S
C1846 H1837 0.930 . S
C1846 C1844 1.378 . S
C1846 C1847 1.367 . S
C1847 C1846 1.367 . S
C1847 C1849 1.433 1_545 S
C1848 C1844 1.350 . S
C1848 C1845 1.463 . S
C1848 N1852 1.427 . S
C1849 H1839 0.929 . S
C1849 C1847 1.433 1_565 S
C1849 N1852 1.384 1_565 S
C1850 H1841 0.929 . S
C1850 C1842 1.378 . S
C1850 C1845 1.350 . S
C1851 H1838 0.929 . S
C1851 C1843 1.433 . S
C1851 N1853 1.384 . S
N1852 C1848 1.427 . S
N1852 C1849 1.384 1_545 S
N1853 C1845 1.427 . S
N1853 C1851 1.384 . S
H1854 C1860 0.930 . S
H1855 C1864 0.930 . S
H1856 C1869 0.929 . S
H1857 C1867 0.929 . S
H1858 C1862 0.929 . S
H1859 C1868 0.929 . S
C1860 H1854 0.930 . S
C1860 C1861 1.367 . S
C1860 C1868 1.378 . S
C1861 C1860 1.367 . S
C1861 C1869 1.433 . S
C1862 H1858 0.929 . S
C1862 C1864 1.378 . S
C1862 C1866 1.350 . S
C1863 C1866 1.463 . S
C1863 C1868 1.350 . S
C1863 N1871 1.427 . S
C1864 H1855 0.930 . S
C1864 C1862 1.378 . S
C1864 C1865 1.367 . S
C1865 C1864 1.367 . S
C1865 C1867 1.433 . S
C1866 C1862 1.350 . S
C1866 C1863 1.463 . S
C1866 N1870 1.427 . S
C1867 H1857 0.929 . S
C1867 C1865 1.433 . S
C1867 N1870 1.384 . S
C1868 H1859 0.929 . S
C1868 C1860 1.378 . S
C1868 C1863 1.350 . S
C1869 H1856 0.929 . S
C1869 C1861 1.433 . S
C1869 N1871 1.384 . S
N1870 C1866 1.427 . S
N1870 C1867 1.384 . S
N1871 C1863 1.427 . S
N1871 C1869 1.384 . S
H1872 C1878 0.930 . S
H1873 C1882 0.930 . S
H1874 C1887 0.929 . S
H1875 C1885 0.906 1_556 S
H1876 C1880 0.929 . S
H1877 C1886 0.929 . S
C1878 H1872 0.930 . S
C1878 C1879 1.367 . S
C1878 C1886 1.378 . S
C1879 C1878 1.367 . S
C1879 C1887 1.433 . S
C1880 H1876 0.929 . S
C1880 C1882 1.378 . S
C1880 C1884 1.350 . S
C1881 C1884 1.463 . S
C1881 C1886 1.350 . S
C1881 N1889 1.427 . S
C1882 H1873 0.930 . S
C1882 C1880 1.378 . S
C1882 C1883 1.367 . S
C1883 C1882 1.367 . S
C1883 C1885 1.447 . S
C1884 C1880 1.350 . S
C1884 C1881 1.463 . S
C1884 N1888 1.427 . S
C1885 H1875 0.906 1_554 S
C1885 C1883 1.447 . S
C1885 N1888 1.397 . S
C1886 H1877 0.929 . S
C1886 C1878 1.378 . S
C1886 C1881 1.350 . S
C1887 H1874 0.929 . S
C1887 C1879 1.433 . S
C1887 N1889 1.384 . S
N1888 C1884 1.427 . S
N1888 C1885 1.397 . S
N1889 C1881 1.427 . S
N1889 C1887 1.384 . S
H1890 C1896 0.930 . S
H1891 C1900 0.930 . S
H1892 C1905 0.929 . S
H1893 C1903 0.929 1_554 S
H1894 C1898 0.929 . S
H1895 C1904 0.929 . S
C1896 H1890 0.930 . S
C1896 C1897 1.367 . S
C1896 C1904 1.378 . S
C1897 C1896 1.367 . S
C1897 C1905 1.433 . S
C1898 H1894 0.929 . S
C1898 C1900 1.378 . S
C1898 C1902 1.350 . S
C1899 C1902 1.463 . S
C1899 C1904 1.350 . S
C1899 N1907 1.427 . S
C1900 H1891 0.930 . S
C1900 C1898 1.378 . S
C1900 C1901 1.367 . S
C1901 C1900 1.367 . S
C1901 C1903 1.433 . S
C1902 C1898 1.350 . S
C1902 C1899 1.463 . S
C1902 N1906 1.427 . S
C1903 H1893 0.929 1_556 S
C1903 C1901 1.433 . S
C1903 N1906 1.384 . S
C1904 H1895 0.929 . S
C1904 C1896 1.378 . S
C1904 C1899 1.350 . S
C1905 H1892 0.929 . S
C1905 C1897 1.433 . S
C1905 N1907 1.384 . S
N1906 C1902 1.427 . S
N1906 C1903 1.384 . S
N1907 C1899 1.427 . S
N1907 C1905 1.384 . S
H1908 C1914 0.930 . S
H1909 C1918 0.930 . S
H1910 C1923 0.929 . S
H1911 C1921 0.929 . S
H1912 C1916 0.929 . S
H1913 C1922 0.929 . S
C1914 H1908 0.930 . S
C1914 C1915 1.367 . S
C1914 C1922 1.378 . S
C1915 C1914 1.367 . S
C1915 C1923 1.433 . S
C1916 H1912 0.929 . S
C1916 C1918 1.378 . S
C1916 C1920 1.350 . S
C1917 C1920 1.463 . S
C1917 C1922 1.350 . S
C1917 N1925 1.427 . S
C1918 H1909 0.930 . S
C1918 C1916 1.378 . S
C1918 C1919 1.367 . S
C1919 C1918 1.367 . S
C1919 C1921 1.433 . S
C1920 C1916 1.350 . S
C1920 C1917 1.463 . S
C1920 N1924 1.427 . S
C1921 H1911 0.929 . S
C1921 C1919 1.433 . S
C1921 N1924 1.384 . S
C1922 H1913 0.929 . S
C1922 C1914 1.378 . S
C1922 C1917 1.350 . S
C1923 H1910 0.929 . S
C1923 C1915 1.433 . S
C1923 N1925 1.384 . S
N1924 C1920 1.427 . S
N1924 C1921 1.384 . S
N1925 C1917 1.427 . S
N1925 C1923 1.384 . S
H1926 C1932 0.930 . S
H1927 C1936 0.930 . S
H1928 C1941 0.929 . S
H1929 C1939 0.929 . S
H1930 C1934 0.929 . S
H1931 C1940 0.929 . S
C1932 H1926 0.930 . S
C1932 C1933 1.367 . S
C1932 C1940 1.378 . S
C1933 C1932 1.367 . S
C1933 C1941 1.433 . S
C1934 H1930 0.929 . S
C1934 C1936 1.378 . S
C1934 C1938 1.350 . S
C1935 C1938 1.463 . S
C1935 C1940 1.350 . S
C1935 N1943 1.427 . S
C1936 H1927 0.930 . S
C1936 C1934 1.378 . S
C1936 C1937 1.367 . S
C1937 C1936 1.367 . S
C1937 C1939 1.433 . S
C1938 C1934 1.350 . S
C1938 C1935 1.463 . S
C1938 N1942 1.427 . S
C1939 H1929 0.929 . S
C1939 C1937 1.433 . S
C1939 N1942 1.384 . S
C1940 H1931 0.929 . S
C1940 C1932 1.378 . S
C1940 C1935 1.350 . S
C1941 H1928 0.929 . S
C1941 C1933 1.433 . S
C1941 N1943 1.384 . S
N1942 C1938 1.427 . S
N1942 C1939 1.384 . S
N1943 C1935 1.427 . S
N1943 C1941 1.384 . S
H1944 C1950 0.930 . S
H1945 C1954 0.930 . S
H1946 C1959 0.929 . S
H1947 C1957 0.929 . S
H1948 C1952 0.929 . S
H1949 C1958 0.929 . S
C1950 H1944 0.930 . S
C1950 C1951 1.367 . S
C1950 C1958 1.378 . S
C1951 C1950 1.367 . S
C1951 C1959 1.433 . S
C1952 H1948 0.929 . S
C1952 C1954 1.378 . S
C1952 C1956 1.350 . S
C1953 C1956 1.463 . S
C1953 C1958 1.350 . S
C1953 N1961 1.427 . S
C1954 H1945 0.930 . S
C1954 C1952 1.378 . S
C1954 C1955 1.367 . S
C1955 C1954 1.367 . S
C1955 C1957 1.433 . S
C1956 C1952 1.350 . S
C1956 C1953 1.463 . S
C1956 N1960 1.427 . S
C1957 H1947 0.929 . S
C1957 C1955 1.433 . S
C1957 N1960 1.384 . S
C1958 H1949 0.929 . S
C1958 C1950 1.378 . S
C1958 C1953 1.350 . S
C1959 H1946 0.929 . S
C1959 C1951 1.433 . S
C1959 N1961 1.384 . S
N1960 C1956 1.427 . S
N1960 C1957 1.384 . S
N1961 C1953 1.427 . S
N1961 C1959 1.384 . S
H1962 C1968 0.930 . S
H1963 C1972 0.930 . S
H1964 C1977 0.929 . S
H1965 C1975 0.929 . S
H1966 C1970 0.929 . S
H1967 C1976 0.929 . S
C1968 H1962 0.930 . S
C1968 C1969 1.367 . S
C1968 C1976 1.378 . S
C1969 C1968 1.367 . S
C1969 C1977 1.433 . S
C1970 H1966 0.929 . S
C1970 C1972 1.378 . S
C1970 C1974 1.350 . S
C1971 C1974 1.463 . S
C1971 C1976 1.350 . S
C1971 N1979 1.427 . S
C1972 H1963 0.930 . S
C1972 C1970 1.378 . S
C1972 C1973 1.367 . S
C1973 C1972 1.367 . S
C1973 C1975 1.433 . S
C1974 C1970 1.350 . S
C1974 C1971 1.463 . S
C1974 N1978 1.427 . S
C1975 H1965 0.929 . S
C1975 C1973 1.433 . S
C1975 N1978 1.384 . S
C1976 H1967 0.929 . S
C1976 C1968 1.378 . S
C1976 C1971 1.350 . S
C1977 H1964 0.929 . S
C1977 C1969 1.433 . S
C1977 N1979 1.384 . S
N1978 C1974 1.427 . S
N1978 C1975 1.384 . S
N1979 C1971 1.427 . S
N1979 C1977 1.384 . S
H1980 C1986 0.930 . S
H1981 C1990 0.930 . S
H1982 C1995 0.929 . S
H1983 C1993 0.929 . S
H1984 C1988 0.929 . S
H1985 C1994 0.929 . S
C1986 H1980 0.930 . S
C1986 C1987 1.367 . S
C1986 C1994 1.378 . S
C1987 C1986 1.367 . S
C1987 C1995 1.433 . S
C1988 H1984 0.929 . S
C1988 C1990 1.378 . S
C1988 C1992 1.350 . S
C1989 C1992 1.463 . S
C1989 C1994 1.350 . S
C1989 N1997 1.427 . S
C1990 H1981 0.930 . S
C1990 C1988 1.378 . S
C1990 C1991 1.367 . S
C1991 C1990 1.367 . S
C1991 C1993 1.433 . S
C1992 C1988 1.350 . S
C1992 C1989 1.463 . S
C1992 N1996 1.427 . S
C1993 H1983 0.929 . S
C1993 C1991 1.433 . S
C1993 N1996 1.384 . S
C1994 H1985 0.929 . S
C1994 C1986 1.378 . S
C1994 C1989 1.350 . S
C1995 H1982 0.929 . S
C1995 C1987 1.433 . S
C1995 N1997 1.384 . S
N1996 C1992 1.427 . S
N1996 C1993 1.384 . S
N1997 C1989 1.427 . S
N1997 C1995 1.384 . S
H1998 C2004 0.930 . S
H1999 C2008 0.930 . S
H2000 C2013 0.929 . S
H2001 C2011 0.929 . S
H2002 C2006 0.929 . S
H2003 C2012 0.929 . S
C2004 H1998 0.930 . S
C2004 C2005 1.367 . S
C2004 C2012 1.378 . S
C2005 C2004 1.367 . S
C2005 C2013 1.433 . S
C2006 H2002 0.929 . S
C2006 C2008 1.378 . S
C2006 C2010 1.350 . S
C2007 C2010 1.463 . S
C2007 C2012 1.350 . S
C2007 N2015 1.427 . S
C2008 H1999 0.930 . S
C2008 C2006 1.378 . S
C2008 C2009 1.367 . S
C2009 C2008 1.367 . S
C2009 C2011 1.433 . S
C2010 C2006 1.350 . S
C2010 C2007 1.463 . S
C2010 N2014 1.427 . S
C2011 H2001 0.929 . S
C2011 C2009 1.433 . S
C2011 N2014 1.384 . S
C2012 H2003 0.929 . S
C2012 C2004 1.378 . S
C2012 C2007 1.350 . S
C2013 H2000 0.929 . S
C2013 C2005 1.433 . S
C2013 N2015 1.384 . S
N2014 C2010 1.427 . S
N2014 C2011 1.384 . S
N2015 C2007 1.427 . S
N2015 C2013 1.384 . S
H2016 C2022 0.930 . S
H2017 C2026 0.930 . S
H2018 C2031 0.929 . S
H2019 C2029 0.929 . S
H2020 C2024 0.929 . S
H2021 C2030 0.929 . S
C2022 H2016 0.930 . S
C2022 C2023 1.367 . S
C2022 C2030 1.378 . S
C2023 C2022 1.367 . S
C2023 C2031 1.433 . S
C2024 H2020 0.929 . S
C2024 C2026 1.378 . S
C2024 C2028 1.350 . S
C2025 C2028 1.463 . S
C2025 C2030 1.350 . S
C2025 N2033 1.427 . S
C2026 H2017 0.930 . S
C2026 C2024 1.378 . S
C2026 C2027 1.367 . S
C2027 C2026 1.367 . S
C2027 C2029 1.433 . S
C2028 C2024 1.350 . S
C2028 C2025 1.463 . S
C2028 N2032 1.427 . S
C2029 H2019 0.929 . S
C2029 C2027 1.433 . S
C2029 N2032 1.384 . S
C2030 H2021 0.929 . S
C2030 C2022 1.378 . S
C2030 C2025 1.350 . S
C2031 H2018 0.929 . S
C2031 C2023 1.433 . S
C2031 N2033 1.384 . S
N2032 C2028 1.427 . S
N2032 C2029 1.384 . S
N2033 C2025 1.427 . S
N2033 C2031 1.384 . S
H2034 C2040 0.930 . S
H2035 C2044 0.930 . S
H2036 C2049 0.929 . S
H2037 C2047 0.929 . S
H2038 C2042 0.929 . S
H2039 C2048 0.929 . S
C2040 H2034 0.930 . S
C2040 C2041 1.367 . S
C2040 C2048 1.378 . S
C2041 C2040 1.367 . S
C2041 C2049 1.433 . S
C2042 H2038 0.929 . S
C2042 C2044 1.378 . S
C2042 C2046 1.350 . S
C2043 C2046 1.463 . S
C2043 C2048 1.350 . S
C2043 N2051 1.427 . S
C2044 H2035 0.930 . S
C2044 C2042 1.378 . S
C2044 C2045 1.367 . S
C2045 C2044 1.367 . S
C2045 C2047 1.433 . S
C2046 C2042 1.350 . S
C2046 C2043 1.463 . S
C2046 N2050 1.427 . S
C2047 H2037 0.929 . S
C2047 C2045 1.433 . S
C2047 N2050 1.384 . S
C2048 H2039 0.929 . S
C2048 C2040 1.378 . S
C2048 C2043 1.350 . S
C2049 H2036 0.929 . S
C2049 C2041 1.433 . S
C2049 N2051 1.384 . S
N2050 C2046 1.427 . S
N2050 C2047 1.384 . S
N2051 C2043 1.427 . S
N2051 C2049 1.384 . S
H2052 C2058 0.930 . S
H2053 C2062 0.930 . S
H2054 C2067 0.929 . S
H2055 C2065 0.929 1_455 S
H2056 C2060 0.929 . S
H2057 C2066 0.929 . S
C2058 H2052 0.930 . S
C2058 C2059 1.367 . S
C2058 C2066 1.378 . S
C2059 C2058 1.367 . S
C2059 C2067 1.433 . S
C2060 H2056 0.929 . S
C2060 C2062 1.378 . S
C2060 C2064 1.350 . S
C2061 C2064 1.463 . S
C2061 C2066 1.350 . S
C2061 N2069 1.427 . S
C2062 H2053 0.930 . S
C2062 C2060 1.378 . S
C2062 C2063 1.367 . S
C2063 C2062 1.367 . S
C2063 C2065 1.433 . S
C2064 C2060 1.350 . S
C2064 C2061 1.463 . S
C2064 N2068 1.427 . S
C2065 H2055 0.929 1_655 S
C2065 C2063 1.433 . S
C2065 N2068 1.384 . S
C2066 H2057 0.929 . S
C2066 C2058 1.378 . S
C2066 C2061 1.350 . S
C2067 H2054 0.929 . S
C2067 C2059 1.433 . S
C2067 N2069 1.384 . S
N2068 C2064 1.427 . S
N2068 C2065 1.384 . S
N2069 C2061 1.427 . S
N2069 C2067 1.384 . S
H2070 C2076 0.930 . S
H2071 C2080 0.930 . S
H2072 C2085 0.929 . S
H2073 C2083 0.929 . S
H2074 C2078 0.929 . S
H2075 C2084 0.929 . S
C2076 H2070 0.930 . S
C2076 C2077 1.367 . S
C2076 C2084 1.378 . S
C2077 C2076 1.367 . S
C2077 C2085 1.433 . S
C2078 H2074 0.929 . S
C2078 C2080 1.378 . S
C2078 C2082 1.350 . S
C2079 C2082 1.463 . S
C2079 C2084 1.350 . S
C2079 N2087 1.427 . S
C2080 H2071 0.930 . S
C2080 C2078 1.378 . S
C2080 C2081 1.367 . S
C2081 C2080 1.367 . S
C2081 C2083 1.433 . S
C2082 C2078 1.350 . S
C2082 C2079 1.463 . S
C2082 N2086 1.427 . S
C2083 H2073 0.929 . S
C2083 C2081 1.433 . S
C2083 N2086 1.384 . S
C2084 H2075 0.929 . S
C2084 C2076 1.378 . S
C2084 C2079 1.350 . S
C2085 H2072 0.929 . S
C2085 C2077 1.433 . S
C2085 N2087 1.384 . S
N2086 C2082 1.427 . S
N2086 C2083 1.384 . S
N2087 C2079 1.427 . S
N2087 C2085 1.384 . S
H2088 C2094 0.930 . S
H2089 C2098 0.930 . S
H2090 C2103 0.929 . S
H2091 C2101 0.929 . S
H2092 C2096 0.929 . S
H2093 C2102 0.929 . S
C2094 H2088 0.930 . S
C2094 C2095 1.367 . S
C2094 C2102 1.378 . S
C2095 C2094 1.367 . S
C2095 C2103 1.433 . S
C2096 H2092 0.929 . S
C2096 C2098 1.378 . S
C2096 C2100 1.350 . S
C2097 C2100 1.463 . S
C2097 C2102 1.350 . S
C2097 N2105 1.427 . S
C2098 H2089 0.930 . S
C2098 C2096 1.378 . S
C2098 C2099 1.367 . S
C2099 C2098 1.367 . S
C2099 C2101 1.433 . S
C2100 C2096 1.350 . S
C2100 C2097 1.463 . S
C2100 N2104 1.427 . S
C2101 H2091 0.929 . S
C2101 C2099 1.433 . S
C2101 N2104 1.384 . S
C2102 H2093 0.929 . S
C2102 C2094 1.378 . S
C2102 C2097 1.350 . S
C2103 H2090 0.929 . S
C2103 C2095 1.433 . S
C2103 N2105 1.384 . S
N2104 C2100 1.427 . S
N2104 C2101 1.384 . S
N2105 C2097 1.427 . S
N2105 C2103 1.384 . S
H2106 C2112 0.930 . S
H2107 C2116 0.930 . S
H2108 C2121 0.929 . S
H2109 C2119 0.929 . S
H2110 C2114 0.929 . S
H2111 C2120 0.929 . S
C2112 H2106 0.930 . S
C2112 C2113 1.367 . S
C2112 C2120 1.378 . S
C2113 C2112 1.367 . S
C2113 C2121 1.433 . S
C2114 H2110 0.929 . S
C2114 C2116 1.378 . S
C2114 C2118 1.350 . S
C2115 C2118 1.463 . S
C2115 C2120 1.350 . S
C2115 N2123 1.427 . S
C2116 H2107 0.930 . S
C2116 C2114 1.378 . S
C2116 C2117 1.367 . S
C2117 C2116 1.367 . S
C2117 C2119 1.433 . S
C2118 C2114 1.350 . S
C2118 C2115 1.463 . S
C2118 N2122 1.427 . S
C2119 H2109 0.929 . S
C2119 C2117 1.433 . S
C2119 N2122 1.384 . S
C2120 H2111 0.929 . S
C2120 C2112 1.378 . S
C2120 C2115 1.350 . S
C2121 H2108 0.929 . S
C2121 C2113 1.433 . S
C2121 N2123 1.384 . S
N2122 C2118 1.427 . S
N2122 C2119 1.384 . S
N2123 C2115 1.427 . S
N2123 C2121 1.384 . S
H2124 C2130 0.930 . S
H2125 C2134 0.930 . S
H2126 C2139 0.929 . S
H2127 C2137 0.929 . S
H2128 C2132 0.929 . S
H2129 C2138 0.929 1_455 S
C2130 H2124 0.930 . S
C2130 C2131 1.367 . S
C2130 C2138 1.378 . S
C2131 C2130 1.367 . S
C2131 C2139 1.433 . S
C2132 H2128 0.929 . S
C2132 C2134 1.378 . S
C2132 C2136 1.350 . S
C2133 C2136 1.463 . S
C2133 C2138 1.350 . S
C2133 N2141 1.427 . S
C2134 H2125 0.930 . S
C2134 C2132 1.378 . S
C2134 C2135 1.367 . S
C2135 C2134 1.367 . S
C2135 C2137 1.433 1_655 S
C2136 C2132 1.350 . S
C2136 C2133 1.463 . S
C2136 N2140 1.380 1_655 S
C2137 H2127 0.929 . S
C2137 C2135 1.433 1_455 S
C2137 N2140 1.399 . S
C2138 H2129 0.929 1_655 S
C2138 C2130 1.378 . S
C2138 C2133 1.350 . S
C2139 H2126 0.929 . S
C2139 C2131 1.433 . S
C2139 N2141 1.384 . S
N2140 C2136 1.380 1_455 S
N2140 C2137 1.399 . S
N2141 C2133 1.427 . S
N2141 C2139 1.384 . S
H2142 C2148 0.930 . S
H2143 C2152 0.930 . S
H2144 C2157 0.929 . S
H2145 C2155 0.929 . S
H2146 C2150 0.929 . S
H2147 C2156 0.929 . S
C2148 H2142 0.930 . S
C2148 C2149 1.367 . S
C2148 C2156 1.378 . S
C2149 C2148 1.367 . S
C2149 C2157 1.433 . S
C2150 H2146 0.929 . S
C2150 C2152 1.378 . S
C2150 C2154 1.350 . S
C2151 C2154 1.463 . S
C2151 C2156 1.350 . S
C2151 N2159 1.427 . S
C2152 H2143 0.930 . S
C2152 C2150 1.378 . S
C2152 C2153 1.367 . S
C2153 C2152 1.367 . S
C2153 C2155 1.433 . S
C2154 C2150 1.350 . S
C2154 C2151 1.463 . S
C2154 N2158 1.427 . S
C2155 H2145 0.929 . S
C2155 C2153 1.433 . S
C2155 N2158 1.384 . S
C2156 H2147 0.929 . S
C2156 C2148 1.378 . S
C2156 C2151 1.350 . S
C2157 H2144 0.929 . S
C2157 C2149 1.433 . S
C2157 N2159 1.384 . S
N2158 C2154 1.427 . S
N2158 C2155 1.384 . S
N2159 C2151 1.427 . S
N2159 C2157 1.384 . S
H2160 C2166 0.930 . S
H2161 C2170 0.930 . S
H2162 C2175 0.929 . S
H2163 C2173 0.929 . S
H2164 C2168 0.929 . S
H2165 C2174 0.929 . S
C2166 H2160 0.930 . S
C2166 C2167 1.367 . S
C2166 C2174 1.378 . S
C2167 C2166 1.367 . S
C2167 C2175 1.433 . S
C2168 H2164 0.929 . S
C2168 C2170 1.378 . S
C2168 C2172 1.350 . S
C2169 C2172 1.463 . S
C2169 C2174 1.350 . S
C2169 N2177 1.427 . S
C2170 H2161 0.930 . S
C2170 C2168 1.378 . S
C2170 C2171 1.367 . S
C2171 C2170 1.367 . S
C2171 C2173 1.433 . S
C2172 C2168 1.350 . S
C2172 C2169 1.463 . S
C2172 N2176 1.427 . S
C2173 H2163 0.929 . S
C2173 C2171 1.433 . S
C2173 N2176 1.384 . S
C2174 H2165 0.929 . S
C2174 C2166 1.378 . S
C2174 C2169 1.350 . S
C2175 H2162 0.929 . S
C2175 C2167 1.433 . S
C2175 N2177 1.384 . S
N2176 C2172 1.427 . S
N2176 C2173 1.384 . S
N2177 C2169 1.427 . S
N2177 C2175 1.384 . S
H2178 C2184 0.930 . S
H2179 C2188 0.930 . S
H2180 C2193 0.929 . S
H2181 C2191 0.929 . S
H2182 C2186 0.929 . S
H2183 C2192 0.929 . S
C2184 H2178 0.930 . S
C2184 C2185 1.367 . S
C2184 C2192 1.378 . S
C2185 C2184 1.367 . S
C2185 C2193 1.433 . S
C2186 H2182 0.929 . S
C2186 C2188 1.378 . S
C2186 C2190 1.350 . S
C2187 C2190 1.463 . S
C2187 C2192 1.350 . S
C2187 N2195 1.427 . S
C2188 H2179 0.930 . S
C2188 C2186 1.378 . S
C2188 C2189 1.367 . S
C2189 C2188 1.367 . S
C2189 C2191 1.433 . S
C2190 C2186 1.350 . S
C2190 C2187 1.463 . S
C2190 N2194 1.427 . S
C2191 H2181 0.929 . S
C2191 C2189 1.433 . S
C2191 N2194 1.384 . S
C2192 H2183 0.929 . S
C2192 C2184 1.378 . S
C2192 C2187 1.350 . S
C2193 H2180 0.929 . S
C2193 C2185 1.433 . S
C2193 N2195 1.384 . S
N2194 C2190 1.427 . S
N2194 C2191 1.384 . S
N2195 C2187 1.427 . S
N2195 C2193 1.384 . S
H2196 C2202 0.930 . S
H2197 C2206 0.930 . S
H2198 C2211 0.929 . S
H2199 C2209 0.929 . S
H2200 C2204 0.929 . S
H2201 C2210 0.929 . S
C2202 H2196 0.930 . S
C2202 C2203 1.367 . S
C2202 C2210 1.378 . S
C2203 C2202 1.367 . S
C2203 C2211 1.433 . S
C2204 H2200 0.929 . S
C2204 C2206 1.378 . S
C2204 C2208 1.350 . S
C2205 C2208 1.463 . S
C2205 C2210 1.350 . S
C2205 N2213 1.427 . S
C2206 H2197 0.930 . S
C2206 C2204 1.378 . S
C2206 C2207 1.367 . S
C2207 C2206 1.367 . S
C2207 C2209 1.433 . S
C2208 C2204 1.350 . S
C2208 C2205 1.463 . S
C2208 N2212 1.427 . S
C2209 H2199 0.929 . S
C2209 C2207 1.433 . S
C2209 N2212 1.384 . S
C2210 H2201 0.929 . S
C2210 C2202 1.378 . S
C2210 C2205 1.350 . S
C2211 H2198 0.929 . S
C2211 C2203 1.433 . S
C2211 N2213 1.384 . S
N2212 C2208 1.427 . S
N2212 C2209 1.384 . S
N2213 C2205 1.427 . S
N2213 C2211 1.384 . S
H2214 C2220 0.930 . S
H2215 C2224 0.930 . S
H2216 C2229 0.929 . S
H2217 C2227 0.929 . S
H2218 C2222 0.929 . S
H2219 C2228 0.929 . S
C2220 H2214 0.930 . S
C2220 C2221 1.367 . S
C2220 C2228 1.378 . S
C2221 C2220 1.367 . S
C2221 C2229 1.433 . S
C2222 H2218 0.929 . S
C2222 C2224 1.378 . S
C2222 C2226 1.350 . S
C2223 C2226 1.463 . S
C2223 C2228 1.350 . S
C2223 N2231 1.427 . S
C2224 H2215 0.930 . S
C2224 C2222 1.378 . S
C2224 C2225 1.367 . S
C2225 C2224 1.367 . S
C2225 C2227 1.433 . S
C2226 C2222 1.350 . S
C2226 C2223 1.463 . S
C2226 N2230 1.427 . S
C2227 H2217 0.929 . S
C2227 C2225 1.433 . S
C2227 N2230 1.384 . S
C2228 H2219 0.929 . S
C2228 C2220 1.378 . S
C2228 C2223 1.350 . S
C2229 H2216 0.929 . S
C2229 C2221 1.433 . S
C2229 N2231 1.384 . S
N2230 C2226 1.427 . S
N2230 C2227 1.384 . S
N2231 C2223 1.427 . S
N2231 C2229 1.384 . S
H2232 C2238 0.930 . S
H2233 C2242 0.930 . S
H2234 C2247 0.929 . S
H2235 C2245 0.929 . S
H2236 C2240 0.929 . S
H2237 C2246 0.929 . S
C2238 H2232 0.930 . S
C2238 C2239 1.367 . S
C2238 C2246 1.378 . S
C2239 C2238 1.367 . S
C2239 C2247 1.433 . S
C2240 H2236 0.929 . S
C2240 C2242 1.378 . S
C2240 C2244 1.350 . S
C2241 C2244 1.463 . S
C2241 C2246 1.350 . S
C2241 N2249 1.427 . S
C2242 H2233 0.930 . S
C2242 C2240 1.378 . S
C2242 C2243 1.367 . S
C2243 C2242 1.367 . S
C2243 C2245 1.433 . S
C2244 C2240 1.350 . S
C2244 C2241 1.463 . S
C2244 N2248 1.427 . S
C2245 H2235 0.929 . S
C2245 C2243 1.433 . S
C2245 N2248 1.384 . S
C2246 H2237 0.929 . S
C2246 C2238 1.378 . S
C2246 C2241 1.350 . S
C2247 H2234 0.929 . S
C2247 C2239 1.433 . S
C2247 N2249 1.384 . S
N2248 C2244 1.427 . S
N2248 C2245 1.384 . S
N2249 C2241 1.427 . S
N2249 C2247 1.384 . S
H2250 C2256 0.930 . S
H2251 C2260 0.930 . S
H2252 C2265 0.929 . S
H2253 C2263 0.929 . S
H2254 C2258 0.929 . S
H2255 C2264 0.929 . S
C2256 H2250 0.930 . S
C2256 C2257 1.367 . S
C2256 C2264 1.378 . S
C2257 C2256 1.367 . S
C2257 C2265 1.433 . S
C2258 H2254 0.929 . S
C2258 C2260 1.378 . S
C2258 C2262 1.350 . S
C2259 C2262 1.463 . S
C2259 C2264 1.350 . S
C2259 N2267 1.427 . S
C2260 H2251 0.930 . S
C2260 C2258 1.378 . S
C2260 C2261 1.367 . S
C2261 C2260 1.367 . S
C2261 C2263 1.433 . S
C2262 C2258 1.350 . S
C2262 C2259 1.463 . S
C2262 N2266 1.427 . S
C2263 H2253 0.929 . S
C2263 C2261 1.433 . S
C2263 N2266 1.384 . S
C2264 H2255 0.929 . S
C2264 C2256 1.378 . S
C2264 C2259 1.350 . S
C2265 H2252 0.929 . S
C2265 C2257 1.433 . S
C2265 N2267 1.384 . S
N2266 C2262 1.427 . S
N2266 C2263 1.384 . S
N2267 C2259 1.427 . S
N2267 C2265 1.384 . S
H2268 C2274 0.930 . S
H2269 C2278 0.930 . S
H2270 C2283 0.929 . S
H2271 C2281 0.929 . S
H2272 C2276 0.929 . S
H2273 C2282 0.929 . S
C2274 H2268 0.930 . S
C2274 C2275 1.367 . S
C2274 C2282 1.378 . S
C2275 C2274 1.367 . S
C2275 C2283 1.433 . S
C2276 H2272 0.929 . S
C2276 C2278 1.378 . S
C2276 C2280 1.350 . S
C2277 C2280 1.463 . S
C2277 C2282 1.350 . S
C2277 N2285 1.427 . S
C2278 H2269 0.930 . S
C2278 C2276 1.378 . S
C2278 C2279 1.367 . S
C2279 C2278 1.367 . S
C2279 C2281 1.433 . S
C2280 C2276 1.350 . S
C2280 C2277 1.463 . S
C2280 N2284 1.427 . S
C2281 H2271 0.929 . S
C2281 C2279 1.433 . S
C2281 N2284 1.384 . S
C2282 H2273 0.929 . S
C2282 C2274 1.378 . S
C2282 C2277 1.350 . S
C2283 H2270 0.929 . S
C2283 C2275 1.433 . S
C2283 N2285 1.384 . S
N2284 C2280 1.427 . S
N2284 C2281 1.384 . S
N2285 C2277 1.427 . S
N2285 C2283 1.384 . S
H2286 C2292 0.930 . S
H2287 C2296 0.930 . S
H2288 C2301 0.929 . S
H2289 C2299 0.929 . S
H2290 C2294 0.929 . S
H2291 C2300 0.929 . S
C2292 H2286 0.930 . S
C2292 C2293 1.367 . S
C2292 C2300 1.378 . S
C2293 C2292 1.367 . S
C2293 C2301 1.433 . S
C2294 H2290 0.929 . S
C2294 C2296 1.378 . S
C2294 C2298 1.350 . S
C2295 C2298 1.463 . S
C2295 C2300 1.350 . S
C2295 N2303 1.427 . S
C2296 H2287 0.930 . S
C2296 C2294 1.378 . S
C2296 C2297 1.367 . S
C2297 C2296 1.367 . S
C2297 C2299 1.433 . S
C2298 C2294 1.350 . S
C2298 C2295 1.463 . S
C2298 N2302 1.427 . S
C2299 H2289 0.929 . S
C2299 C2297 1.433 . S
C2299 N2302 1.384 . S
C2300 H2291 0.929 . S
C2300 C2292 1.378 . S
C2300 C2295 1.350 . S
C2301 H2288 0.929 . S
C2301 C2293 1.433 . S
C2301 N2303 1.384 . S
N2302 C2298 1.427 . S
N2302 C2299 1.384 . S
N2303 C2295 1.427 . S
N2303 C2301 1.384 . S
H2304 C2310 0.930 . S
H2305 C2314 0.930 . S
H2306 C2319 0.929 . S
H2307 C2317 0.929 . S
H2308 C2312 0.929 . S
H2309 C2318 0.929 . S
C2310 H2304 0.930 . S
C2310 C2311 1.367 . S
C2310 C2318 1.378 . S
C2311 C2310 1.367 . S
C2311 C2319 1.433 . S
C2312 H2308 0.929 . S
C2312 C2314 1.378 . S
C2312 C2316 1.350 . S
C2313 C2316 1.463 . S
C2313 C2318 1.350 . S
C2313 N2321 1.427 . S
C2314 H2305 0.930 . S
C2314 C2312 1.378 . S
C2314 C2315 1.367 . S
C2315 C2314 1.367 . S
C2315 C2317 1.433 . S
C2316 C2312 1.350 . S
C2316 C2313 1.463 . S
C2316 N2320 1.427 . S
C2317 H2307 0.929 . S
C2317 C2315 1.433 . S
C2317 N2320 1.384 . S
C2318 H2309 0.929 . S
C2318 C2310 1.378 . S
C2318 C2313 1.350 . S
C2319 H2306 0.929 . S
C2319 C2311 1.433 . S
C2319 N2321 1.384 . S
N2320 C2316 1.427 . S
N2320 C2317 1.384 . S
N2321 C2313 1.427 . S
N2321 C2319 1.384 . S
H2322 C2328 0.930 . S
H2323 C2332 0.930 . S
H2324 C2337 0.929 . S
H2325 C2335 0.929 . S
H2326 C2330 0.929 . S
H2327 C2336 0.929 . S
C2328 H2322 0.930 . S
C2328 C2329 1.367 . S
C2328 C2336 1.378 . S
C2329 C2328 1.367 . S
C2329 C2337 1.433 . S
C2330 H2326 0.929 . S
C2330 C2332 1.378 . S
C2330 C2334 1.350 . S
C2331 C2334 1.463 . S
C2331 C2336 1.350 . S
C2331 N2339 1.427 . S
C2332 H2323 0.930 . S
C2332 C2330 1.378 . S
C2332 C2333 1.367 . S
C2333 C2332 1.367 . S
C2333 C2335 1.433 . S
C2334 C2330 1.350 . S
C2334 C2331 1.463 . S
C2334 N2338 1.427 . S
C2335 H2325 0.929 . S
C2335 C2333 1.433 . S
C2335 N2338 1.384 . S
C2336 H2327 0.929 . S
C2336 C2328 1.378 . S
C2336 C2331 1.350 . S
C2337 H2324 0.929 . S
C2337 C2329 1.433 . S
C2337 N2339 1.384 . S
N2338 C2334 1.427 . S
N2338 C2335 1.384 . S
N2339 C2331 1.427 . S
N2339 C2337 1.384 . S
H2340 C2346 0.930 . S
H2341 C2350 0.930 . S
H2342 C2355 0.929 . S
H2343 C2353 0.929 . S
H2344 C2348 0.929 . S
H2345 C2354 0.929 . S
C2346 H2340 0.930 . S
C2346 C2347 1.367 . S
C2346 C2354 1.378 . S
C2347 C2346 1.367 . S
C2347 C2355 1.433 . S
C2348 H2344 0.929 . S
C2348 C2350 1.378 . S
C2348 C2352 1.350 . S
C2349 C2352 1.463 . S
C2349 C2354 1.350 . S
C2349 N2357 1.427 . S
C2350 H2341 0.930 . S
C2350 C2348 1.378 . S
C2350 C2351 1.367 . S
C2351 C2350 1.367 . S
C2351 C2353 1.433 . S
C2352 C2348 1.350 . S
C2352 C2349 1.463 . S
C2352 N2356 1.427 . S
C2353 H2343 0.929 . S
C2353 C2351 1.433 . S
C2353 N2356 1.384 . S
C2354 H2345 0.929 . S
C2354 C2346 1.378 . S
C2354 C2349 1.350 . S
C2355 H2342 0.929 . S
C2355 C2347 1.433 . S
C2355 N2357 1.384 . S
N2356 C2352 1.427 . S
N2356 C2353 1.384 . S
N2357 C2349 1.427 . S
N2357 C2355 1.384 . S
H2358 C2364 0.930 . S
H2359 C2368 0.930 . S
H2360 C2373 0.929 . S
H2361 C2371 0.929 . S
H2362 C2366 0.929 . S
H2363 C2372 0.929 . S
C2364 H2358 0.930 . S
C2364 C2365 1.367 . S
C2364 C2372 1.378 . S
C2365 C2364 1.367 . S
C2365 C2373 1.433 . S
C2366 H2362 0.929 . S
C2366 C2368 1.378 . S
C2366 C2370 1.350 1_554 S
C2367 C2370 1.463 . S
C2367 C2372 1.350 . S
C2367 N2375 1.427 . S
C2368 H2359 0.930 . S
C2368 C2366 1.378 . S
C2368 C2369 1.367 1_554 S
C2369 C2368 1.367 1_556 S
C2369 C2371 1.433 . S
C2370 C2366 1.350 1_556 S
C2370 C2367 1.463 . S
C2370 N2374 1.427 . S
C2371 H2361 0.929 . S
C2371 C2369 1.433 . S
C2371 N2374 1.384 . S
C2372 H2363 0.929 . S
C2372 C2364 1.378 . S
C2372 C2367 1.350 . S
C2373 H2360 0.929 . S
C2373 C2365 1.433 . S
C2373 N2375 1.384 . S
N2374 C2370 1.427 . S
N2374 C2371 1.384 . S
N2375 C2367 1.427 . S
N2375 C2373 1.384 . S
H2376 C2382 0.930 . S
H2377 C2386 0.930 . S
H2378 C2391 0.929 . S
H2379 C2389 0.929 . S
H2380 C2384 0.929 . S
H2381 C2390 0.929 . S
C2382 H2376 0.930 . S
C2382 C2383 1.367 . S
C2382 C2390 1.378 . S
C2383 C2382 1.367 . S
C2383 C2391 1.433 . S
C2384 H2380 0.929 . S
C2384 C2386 1.378 . S
C2384 C2388 1.350 . S
C2385 C2388 1.463 . S
C2385 C2390 1.350 . S
C2385 N2393 1.427 . S
C2386 H2377 0.930 . S
C2386 C2384 1.378 . S
C2386 C2387 1.367 . S
C2387 C2386 1.367 . S
C2387 C2389 1.433 . S
C2388 C2384 1.350 . S
C2388 C2385 1.463 . S
C2388 N2392 1.427 . S
C2389 H2379 0.929 . S
C2389 C2387 1.433 . S
C2389 N2392 1.384 . S
C2390 H2381 0.929 . S
C2390 C2382 1.378 . S
C2390 C2385 1.350 . S
C2391 H2378 0.929 . S
C2391 C2383 1.433 . S
C2391 N2393 1.384 . S
N2392 C2388 1.427 . S
N2392 C2389 1.384 . S
N2393 C2385 1.427 . S
N2393 C2391 1.384 . S
H2394 C2400 0.930 . S
H2395 C2404 0.930 . S
H2396 C2409 0.929 . S
H2397 C2407 0.929 . S
H2398 C2402 0.929 . S
H2399 C2408 0.929 . S
C2400 H2394 0.930 . S
C2400 C2401 1.367 1_556 S
C2400 C2408 1.378 . S
C2401 C2400 1.367 1_554 S
C2401 C2409 1.433 . S
C2402 H2398 0.929 . S
C2402 C2404 1.378 . S
C2402 C2406 1.350 . S
C2403 C2406 1.463 . S
C2403 C2408 1.350 1_554 S
C2403 N2411 1.427 . S
C2404 H2395 0.930 . S
C2404 C2402 1.378 . S
C2404 C2405 1.367 . S
C2405 C2404 1.367 . S
C2405 C2407 1.433 . S
C2406 C2402 1.350 . S
C2406 C2403 1.463 . S
C2406 N2410 1.427 . S
C2407 H2397 0.929 . S
C2407 C2405 1.433 . S
C2407 N2410 1.384 . S
C2408 H2399 0.929 . S
C2408 C2400 1.378 . S
C2408 C2403 1.350 1_556 S
C2409 H2396 0.929 . S
C2409 C2401 1.433 . S
C2409 N2411 1.384 . S
N2410 C2406 1.427 . S
N2410 C2407 1.384 . S
N2411 C2403 1.427 . S
N2411 C2409 1.384 . S
H2412 C2418 0.930 . S
H2413 C2422 0.930 . S
H2414 C2427 0.929 . S
H2415 C2425 0.929 . S
H2416 C2420 0.929 . S
H2417 C2426 0.929 . S
C2418 H2412 0.930 . S
C2418 C2419 1.367 . S
C2418 C2426 1.378 . S
C2419 C2418 1.367 . S
C2419 C2427 1.433 . S
C2420 H2416 0.929 . S
C2420 C2422 1.378 . S
C2420 C2424 1.350 . S
C2421 C2424 1.463 . S
C2421 C2426 1.350 . S
C2421 N2429 1.427 . S
C2422 H2413 0.930 . S
C2422 C2420 1.378 . S
C2422 C2423 1.367 . S
C2423 C2422 1.367 . S
C2423 C2425 1.433 . S
C2424 C2420 1.350 . S
C2424 C2421 1.463 . S
C2424 N2428 1.427 . S
C2425 H2415 0.929 . S
C2425 C2423 1.433 . S
C2425 N2428 1.384 . S
C2426 H2417 0.929 . S
C2426 C2418 1.378 . S
C2426 C2421 1.350 . S
C2427 H2414 0.929 . S
C2427 C2419 1.433 . S
C2427 N2429 1.384 . S
N2428 C2424 1.427 . S
N2428 C2425 1.384 . S
N2429 C2421 1.427 . S
N2429 C2427 1.384 . S
H2430 C2436 0.930 . S
H2431 C2440 0.930 . S
H2432 C2445 0.929 . S
H2433 C2443 0.929 . S
H2434 C2438 0.929 . S
H2435 C2444 0.929 . S
C2436 H2430 0.930 . S
C2436 C2437 1.367 . S
C2436 C2444 1.378 . S
C2437 C2436 1.367 . S
C2437 C2445 1.433 . S
C2438 H2434 0.929 . S
C2438 C2440 1.378 . S
C2438 C2442 1.350 . S
C2439 C2442 1.463 . S
C2439 C2444 1.350 . S
C2439 N2447 1.427 . S
C2440 H2431 0.930 . S
C2440 C2438 1.378 . S
C2440 C2441 1.367 . S
C2441 C2440 1.367 . S
C2441 C2443 1.433 . S
C2442 C2438 1.350 . S
C2442 C2439 1.463 . S
C2442 N2446 1.427 . S
C2443 H2433 0.929 . S
C2443 C2441 1.433 . S
C2443 N2446 1.384 . S
C2444 H2435 0.929 . S
C2444 C2436 1.378 . S
C2444 C2439 1.350 . S
C2445 H2432 0.929 . S
C2445 C2437 1.433 . S
C2445 N2447 1.384 . S
N2446 C2442 1.427 . S
N2446 C2443 1.384 . S
N2447 C2439 1.427 . S
N2447 C2445 1.384 . S
H2448 C2454 0.930 . S
H2449 C2458 0.930 . S
H2450 C2463 0.929 . S
H2451 C2461 0.929 . S
H2452 C2456 0.929 . S
H2453 C2462 0.929 . S
C2454 H2448 0.930 . S
C2454 C2455 1.367 . S
C2454 C2462 1.378 . S
C2455 C2454 1.367 . S
C2455 C2463 1.433 . S
C2456 H2452 0.929 . S
C2456 C2458 1.378 . S
C2456 C2460 1.350 . S
C2457 C2460 1.463 . S
C2457 C2462 1.350 . S
C2457 N2465 1.427 . S
C2458 H2449 0.930 . S
C2458 C2456 1.378 . S
C2458 C2459 1.367 . S
C2459 C2458 1.367 . S
C2459 C2461 1.433 . S
C2460 C2456 1.350 . S
C2460 C2457 1.463 . S
C2460 N2464 1.427 . S
C2461 H2451 0.929 . S
C2461 C2459 1.433 . S
C2461 N2464 1.384 . S
C2462 H2453 0.929 . S
C2462 C2454 1.378 . S
C2462 C2457 1.350 . S
C2463 H2450 0.929 . S
C2463 C2455 1.433 . S
C2463 N2465 1.384 . S
N2464 C2460 1.427 . S
N2464 C2461 1.384 . S
N2465 C2457 1.427 . S
N2465 C2463 1.384 . S
H2466 C2472 0.930 . S
H2467 C2476 0.930 . S
H2468 C2481 0.929 . S
H2469 C2479 0.929 . S
H2470 C2474 0.929 . S
H2471 C2480 0.929 . S
C2472 H2466 0.930 . S
C2472 C2473 1.367 . S
C2472 C2480 1.378 . S
C2473 C2472 1.367 . S
C2473 C2481 1.433 . S
C2474 H2470 0.929 . S
C2474 C2476 1.378 . S
C2474 C2478 1.350 . S
C2475 C2478 1.463 . S
C2475 C2480 1.350 . S
C2475 N2483 1.427 . S
C2476 H2467 0.930 . S
C2476 C2474 1.378 . S
C2476 C2477 1.367 . S
C2477 C2476 1.367 . S
C2477 C2479 1.433 . S
C2478 C2474 1.350 . S
C2478 C2475 1.463 . S
C2478 N2482 1.427 . S
C2479 H2469 0.929 . S
C2479 C2477 1.433 . S
C2479 N2482 1.384 . S
C2480 H2471 0.929 . S
C2480 C2472 1.378 . S
C2480 C2475 1.350 . S
C2481 H2468 0.929 . S
C2481 C2473 1.433 . S
C2481 N2483 1.384 . S
N2482 C2478 1.427 . S
N2482 C2479 1.384 . S
N2483 C2475 1.427 . S
N2483 C2481 1.384 . S
H2484 C2490 0.930 . S
H2485 C2494 0.930 . S
H2486 C2499 0.929 . S
H2487 C2497 0.929 . S
H2488 C2492 0.929 . S
H2489 C2498 0.929 . S
C2490 H2484 0.930 . S
C2490 C2491 1.367 . S
C2490 C2498 1.378 . S
C2491 C2490 1.367 . S
C2491 C2499 1.433 . S
C2492 H2488 0.929 . S
C2492 C2494 1.378 . S
C2492 C2496 1.350 . S
C2493 C2496 1.463 . S
C2493 C2498 1.350 . S
C2493 N2501 1.427 . S
C2494 H2485 0.930 . S
C2494 C2492 1.378 . S
C2494 C2495 1.367 . S
C2495 C2494 1.367 . S
C2495 C2497 1.433 . S
C2496 C2492 1.350 . S
C2496 C2493 1.463 . S
C2496 N2500 1.427 . S
C2497 H2487 0.929 . S
C2497 C2495 1.433 . S
C2497 N2500 1.384 . S
C2498 H2489 0.929 . S
C2498 C2490 1.378 . S
C2498 C2493 1.350 . S
C2499 H2486 0.929 . S
C2499 C2491 1.433 . S
C2499 N2501 1.384 . S
N2500 C2496 1.427 . S
N2500 C2497 1.384 . S
N2501 C2493 1.427 . S
N2501 C2499 1.384 . S
H2502 C2508 0.930 . S
H2503 C2512 0.930 . S
H2504 C2517 0.929 . S
H2505 C2515 0.929 . S
H2506 C2510 0.929 . S
H2507 C2516 0.929 . S
C2508 H2502 0.930 . S
C2508 C2509 1.367 . S
C2508 C2516 1.378 . S
C2509 C2508 1.367 . S
C2509 C2517 1.433 . S
C2510 H2506 0.929 . S
C2510 C2512 1.378 . S
C2510 C2514 1.350 . S
C2511 C2514 1.463 . S
C2511 C2516 1.350 . S
C2511 N2519 1.427 . S
C2512 H2503 0.930 . S
C2512 C2510 1.378 . S
C2512 C2513 1.367 . S
C2513 C2512 1.367 . S
C2513 C2515 1.433 . S
C2514 C2510 1.350 . S
C2514 C2511 1.463 . S
C2514 N2518 1.427 . S
C2515 H2505 0.929 . S
C2515 C2513 1.433 . S
C2515 N2518 1.384 . S
C2516 H2507 0.929 . S
C2516 C2508 1.378 . S
C2516 C2511 1.350 . S
C2517 H2504 0.929 . S
C2517 C2509 1.433 . S
C2517 N2519 1.384 . S
N2518 C2514 1.427 . S
N2518 C2515 1.384 . S
N2519 C2511 1.427 . S
N2519 C2517 1.384 . S
H2520 C2526 0.930 . S
H2521 C2530 0.930 . S
H2522 C2535 0.929 . S
H2523 C2533 0.929 . S
H2524 C2528 0.929 . S
H2525 C2534 0.929 . S
C2526 H2520 0.930 . S
C2526 C2527 1.367 . S
C2526 C2534 1.378 . S
C2527 C2526 1.367 . S
C2527 C2535 1.433 . S
C2528 H2524 0.929 . S
C2528 C2530 1.378 . S
C2528 C2532 1.350 . S
C2529 C2532 1.463 . S
C2529 C2534 1.350 . S
C2529 N2537 1.427 . S
C2530 H2521 0.930 . S
C2530 C2528 1.378 . S
C2530 C2531 1.367 . S
C2531 C2530 1.367 . S
C2531 C2533 1.433 . S
C2532 C2528 1.350 . S
C2532 C2529 1.463 . S
C2532 N2536 1.427 . S
C2533 H2523 0.929 . S
C2533 C2531 1.433 . S
C2533 N2536 1.384 . S
C2534 H2525 0.929 . S
C2534 C2526 1.378 . S
C2534 C2529 1.350 . S
C2535 H2522 0.929 . S
C2535 C2527 1.433 . S
C2535 N2537 1.384 . S
N2536 C2532 1.427 . S
N2536 C2533 1.384 . S
N2537 C2529 1.427 . S
N2537 C2535 1.384 . S
H2538 C2544 0.930 . S
H2539 C2548 0.930 . S
H2540 C2553 0.929 . S
H2541 C2551 0.929 . S
H2542 C2546 0.929 . S
H2543 C2552 0.929 . S
C2544 H2538 0.930 . S
C2544 C2545 1.367 . S
C2544 C2552 1.378 . S
C2545 C2544 1.367 . S
C2545 C2553 1.433 . S
C2546 H2542 0.929 . S
C2546 C2548 1.378 . S
C2546 C2550 1.350 . S
C2547 C2550 1.463 . S
C2547 C2552 1.350 . S
C2547 N2555 1.427 . S
C2548 H2539 0.930 . S
C2548 C2546 1.378 . S
C2548 C2549 1.367 . S
C2549 C2548 1.367 . S
C2549 C2551 1.433 . S
C2550 C2546 1.350 . S
C2550 C2547 1.463 . S
C2550 N2554 1.427 . S
C2551 H2541 0.929 . S
C2551 C2549 1.433 . S
C2551 N2554 1.384 . S
C2552 H2543 0.929 . S
C2552 C2544 1.378 . S
C2552 C2547 1.350 . S
C2553 H2540 0.929 . S
C2553 C2545 1.433 . S
C2553 N2555 1.384 . S
N2554 C2550 1.427 . S
N2554 C2551 1.384 . S
N2555 C2547 1.427 . S
N2555 C2553 1.384 . S
H2556 C2562 0.930 . S
H2557 C2566 0.930 . S
H2558 C2571 0.929 . S
H2559 C2569 0.929 . S
H2560 C2564 0.929 . S
H2561 C2570 0.929 . S
C2562 H2556 0.930 . S
C2562 C2563 1.367 . S
C2562 C2570 1.378 . S
C2563 C2562 1.367 . S
C2563 C2571 1.433 . S
C2564 H2560 0.929 . S
C2564 C2566 1.378 . S
C2564 C2568 1.350 . S
C2565 C2568 1.463 . S
C2565 C2570 1.350 . S
C2565 N2573 1.427 . S
C2566 H2557 0.930 . S
C2566 C2564 1.378 . S
C2566 C2567 1.367 . S
C2567 C2566 1.367 . S
C2567 C2569 1.433 . S
C2568 C2564 1.350 . S
C2568 C2565 1.463 . S
C2568 N2572 1.427 . S
C2569 H2559 0.929 . S
C2569 C2567 1.433 . S
C2569 N2572 1.384 . S
C2570 H2561 0.929 . S
C2570 C2562 1.378 . S
C2570 C2565 1.350 . S
C2571 H2558 0.929 . S
C2571 C2563 1.433 . S
C2571 N2573 1.384 . S
N2572 C2568 1.427 . S
N2572 C2569 1.384 . S
N2573 C2565 1.427 . S
N2573 C2571 1.384 . S
H2574 C2580 0.930 . S
H2575 C2584 0.930 . S
H2576 C2589 0.929 . S
H2577 C2587 0.929 . S
H2578 C2582 0.929 . S
H2579 C2588 0.929 . S
C2580 H2574 0.930 . S
C2580 C2581 1.367 . S
C2580 C2588 1.378 . S
C2581 C2580 1.367 . S
C2581 C2589 1.433 . S
C2582 H2578 0.929 . S
C2582 C2584 1.378 . S
C2582 C2586 1.350 . S
C2583 C2586 1.463 . S
C2583 C2588 1.350 . S
C2583 N2591 1.427 . S
C2584 H2575 0.930 . S
C2584 C2582 1.378 . S
C2584 C2585 1.367 . S
C2585 C2584 1.367 . S
C2585 C2587 1.433 . S
C2586 C2582 1.350 . S
C2586 C2583 1.463 . S
C2586 N2590 1.427 . S
C2587 H2577 0.929 . S
C2587 C2585 1.433 . S
C2587 N2590 1.384 . S
C2588 H2579 0.929 . S
C2588 C2580 1.378 . S
C2588 C2583 1.350 . S
C2589 H2576 0.929 . S
C2589 C2581 1.433 . S
C2589 N2591 1.384 . S
N2590 C2586 1.427 . S
N2590 C2587 1.384 . S
N2591 C2583 1.427 . S
N2591 C2589 1.384 . S
H2592 C2598 0.930 . S
H2593 C2602 0.930 . S
H2594 C2607 0.929 . S
H2595 C2605 0.929 . S
H2596 C2600 0.929 . S
H2597 C2606 0.929 . S
C2598 H2592 0.930 . S
C2598 C2599 1.367 . S
C2598 C2606 1.378 . S
C2599 C2598 1.367 . S
C2599 C2607 1.433 . S
C2600 H2596 0.929 . S
C2600 C2602 1.378 . S
C2600 C2604 1.350 . S
C2601 C2604 1.463 . S
C2601 C2606 1.350 . S
C2601 N2609 1.427 . S
C2602 H2593 0.930 . S
C2602 C2600 1.378 . S
C2602 C2603 1.367 . S
C2603 C2602 1.367 . S
C2603 C2605 1.433 . S
C2604 C2600 1.350 . S
C2604 C2601 1.463 . S
C2604 N2608 1.427 . S
C2605 H2595 0.929 . S
C2605 C2603 1.433 . S
C2605 N2608 1.384 . S
C2606 H2597 0.929 . S
C2606 C2598 1.378 . S
C2606 C2601 1.350 . S
C2607 H2594 0.929 . S
C2607 C2599 1.433 . S
C2607 N2609 1.384 . S
N2608 C2604 1.427 . S
N2608 C2605 1.384 . S
N2609 C2601 1.427 . S
N2609 C2607 1.384 . S
H2610 C2616 0.930 . S
H2611 C2620 0.930 . S
H2612 C2625 0.929 . S
H2613 C2623 0.929 . S
H2614 C2618 0.929 . S
H2615 C2624 0.929 . S
C2616 H2610 0.930 . S
C2616 C2617 1.367 . S
C2616 C2624 1.378 . S
C2617 C2616 1.367 . S
C2617 C2625 1.433 . S
C2618 H2614 0.929 . S
C2618 C2620 1.378 . S
C2618 C2622 1.350 . S
C2619 C2622 1.463 . S
C2619 C2624 1.350 . S
C2619 N2627 1.427 . S
C2620 H2611 0.930 . S
C2620 C2618 1.378 . S
C2620 C2621 1.367 . S
C2621 C2620 1.367 . S
C2621 C2623 1.433 . S
C2622 C2618 1.350 . S
C2622 C2619 1.463 . S
C2622 N2626 1.427 . S
C2623 H2613 0.929 . S
C2623 C2621 1.433 . S
C2623 N2626 1.384 . S
C2624 H2615 0.929 . S
C2624 C2616 1.378 . S
C2624 C2619 1.350 . S
C2625 H2612 0.929 . S
C2625 C2617 1.433 . S
C2625 N2627 1.384 . S
N2626 C2622 1.427 . S
N2626 C2623 1.384 . S
N2627 C2619 1.427 . S
N2627 C2625 1.384 . S
H2628 C2634 0.930 . S
H2629 C2638 0.930 . S
H2630 C2643 0.929 . S
H2631 C2641 0.929 . S
H2632 C2636 0.929 . S
H2633 C2642 0.929 . S
C2634 H2628 0.930 . S
C2634 C2635 1.367 . S
C2634 C2642 1.378 . S
C2635 C2634 1.367 . S
C2635 C2643 1.433 . S
C2636 H2632 0.929 . S
C2636 C2638 1.378 . S
C2636 C2640 1.350 . S
C2637 C2640 1.463 . S
C2637 C2642 1.350 . S
C2637 N2645 1.427 . S
C2638 H2629 0.930 . S
C2638 C2636 1.378 . S
C2638 C2639 1.367 . S
C2639 C2638 1.367 . S
C2639 C2641 1.433 . S
C2640 C2636 1.350 . S
C2640 C2637 1.463 . S
C2640 N2644 1.427 . S
C2641 H2631 0.929 . S
C2641 C2639 1.433 . S
C2641 N2644 1.384 . S
C2642 H2633 0.929 . S
C2642 C2634 1.378 . S
C2642 C2637 1.350 . S
C2643 H2630 0.929 . S
C2643 C2635 1.433 . S
C2643 N2645 1.384 . S
N2644 C2640 1.427 . S
N2644 C2641 1.384 . S
N2645 C2637 1.427 . S
N2645 C2643 1.384 . S
H2646 C2652 0.930 . S
H2647 C2656 0.930 . S
H2648 C2661 0.929 . S
H2649 C2659 0.929 . S
H2650 C2654 0.929 . S
H2651 C2660 0.929 . S
C2652 H2646 0.930 . S
C2652 C2653 1.367 . S
C2652 C2660 1.378 . S
C2653 C2652 1.367 . S
C2653 C2661 1.433 . S
C2654 H2650 0.929 . S
C2654 C2656 1.378 . S
C2654 C2658 1.350 . S
C2655 C2658 1.463 . S
C2655 C2660 1.350 . S
C2655 N2663 1.427 . S
C2656 H2647 0.930 . S
C2656 C2654 1.378 . S
C2656 C2657 1.367 . S
C2657 C2656 1.367 . S
C2657 C2659 1.433 . S
C2658 C2654 1.350 . S
C2658 C2655 1.463 . S
C2658 N2662 1.427 . S
C2659 H2649 0.929 . S
C2659 C2657 1.433 . S
C2659 N2662 1.384 . S
C2660 H2651 0.929 . S
C2660 C2652 1.378 . S
C2660 C2655 1.350 . S
C2661 H2648 0.929 . S
C2661 C2653 1.433 . S
C2661 N2663 1.384 . S
N2662 C2658 1.427 . S
N2662 C2659 1.384 . S
N2663 C2655 1.427 . S
N2663 C2661 1.384 . S
H2664 C2670 0.930 . S
H2665 C2674 0.930 . S
H2666 C2679 0.929 . S
H2667 C2677 0.929 . S
H2668 C2672 0.929 . S
H2669 C2678 0.929 . S
C2670 H2664 0.930 . S
C2670 C2671 1.367 . S
C2670 C2678 1.378 . S
C2671 C2670 1.367 . S
C2671 C2679 1.433 . S
C2672 H2668 0.929 . S
C2672 C2674 1.378 . S
C2672 C2676 1.350 . S
C2673 C2676 1.463 . S
C2673 C2678 1.350 . S
C2673 N2681 1.427 . S
C2674 H2665 0.930 . S
C2674 C2672 1.378 . S
C2674 C2675 1.367 . S
C2675 C2674 1.367 . S
C2675 C2677 1.433 . S
C2676 C2672 1.350 . S
C2676 C2673 1.463 . S
C2676 N2680 1.427 . S
C2677 H2667 0.929 . S
C2677 C2675 1.433 . S
C2677 N2680 1.384 . S
C2678 H2669 0.929 . S
C2678 C2670 1.378 . S
C2678 C2673 1.350 . S
C2679 H2666 0.929 . S
C2679 C2671 1.433 . S
C2679 N2681 1.384 . S
N2680 C2676 1.427 . S
N2680 C2677 1.384 . S
N2681 C2673 1.427 . S
N2681 C2679 1.384 . S
H2682 C2688 0.930 . S
H2683 C2692 0.930 . S
H2684 C2697 0.929 . S
H2685 C2695 0.929 . S
H2686 C2690 0.929 . S
H2687 C2696 0.929 . S
C2688 H2682 0.930 . S
C2688 C2689 1.367 . S
C2688 C2696 1.378 . S
C2689 C2688 1.367 . S
C2689 C2697 1.433 . S
C2690 H2686 0.929 . S
C2690 C2692 1.378 . S
C2690 C2694 1.350 . S
C2691 C2694 1.463 . S
C2691 C2696 1.350 . S
C2691 N2699 1.427 . S
C2692 H2683 0.930 . S
C2692 C2690 1.378 . S
C2692 C2693 1.367 . S
C2693 C2692 1.367 . S
C2693 C2695 1.433 . S
C2694 C2690 1.350 . S
C2694 C2691 1.463 . S
C2694 N2698 1.427 . S
C2695 H2685 0.929 . S
C2695 C2693 1.433 . S
C2695 N2698 1.384 . S
C2696 H2687 0.929 . S
C2696 C2688 1.378 . S
C2696 C2691 1.350 . S
C2697 H2684 0.929 . S
C2697 C2689 1.433 . S
C2697 N2699 1.384 . S
N2698 C2694 1.427 . S
N2698 C2695 1.384 . S
N2699 C2691 1.427 . S
N2699 C2697 1.384 . S
H2700 C2706 0.930 . S
H2701 C2710 0.930 . S
H2702 C2715 0.929 . S
H2703 C2713 0.929 . S
H2704 C2708 0.929 . S
H2705 C2714 0.929 . S
C2706 H2700 0.930 . S
C2706 C2707 1.367 . S
C2706 C2714 1.378 . S
C2707 C2706 1.367 . S
C2707 C2715 1.433 . S
C2708 H2704 0.929 . S
C2708 C2710 1.378 . S
C2708 C2712 1.350 . S
C2709 C2712 1.463 . S
C2709 C2714 1.350 . S
C2709 N2717 1.427 . S
C2710 H2701 0.930 . S
C2710 C2708 1.378 . S
C2710 C2711 1.367 . S
C2711 C2710 1.367 . S
C2711 C2713 1.433 . S
C2712 C2708 1.350 . S
C2712 C2709 1.463 . S
C2712 N2716 1.427 . S
C2713 H2703 0.929 . S
C2713 C2711 1.433 . S
C2713 N2716 1.384 . S
C2714 H2705 0.929 . S
C2714 C2706 1.378 . S
C2714 C2709 1.350 . S
C2715 H2702 0.929 . S
C2715 C2707 1.433 . S
C2715 N2717 1.384 . S
N2716 C2712 1.427 . S
N2716 C2713 1.384 . S
N2717 C2709 1.427 . S
N2717 C2715 1.384 . S
H2718 C2724 0.930 . S
H2719 C2728 0.930 . S
H2720 C2733 0.929 . S
H2721 C2731 0.929 . S
H2722 C2726 0.929 . S
H2723 C2732 0.929 . S
C2724 H2718 0.930 . S
C2724 C2725 1.367 . S
C2724 C2732 1.378 . S
C2725 C2724 1.367 . S
C2725 C2733 1.433 . S
C2726 H2722 0.929 . S
C2726 C2728 1.378 . S
C2726 C2730 1.350 . S
C2727 C2730 1.463 . S
C2727 C2732 1.350 . S
C2727 N2735 1.427 . S
C2728 H2719 0.930 . S
C2728 C2726 1.378 . S
C2728 C2729 1.367 . S
C2729 C2728 1.367 . S
C2729 C2731 1.433 . S
C2730 C2726 1.350 . S
C2730 C2727 1.463 . S
C2730 N2734 1.427 . S
C2731 H2721 0.929 . S
C2731 C2729 1.433 . S
C2731 N2734 1.384 . S
C2732 H2723 0.929 . S
C2732 C2724 1.378 . S
C2732 C2727 1.350 . S
C2733 H2720 0.929 . S
C2733 C2725 1.433 . S
C2733 N2735 1.384 . S
N2734 C2730 1.427 . S
N2734 C2731 1.384 . S
N2735 C2727 1.427 . S
N2735 C2733 1.384 . S
H2736 C2742 0.930 . S
H2737 C2746 0.930 . S
H2738 C2751 0.929 . S
H2739 C2749 0.929 . S
H2740 C2744 0.929 . S
H2741 C2750 0.929 . S
C2742 H2736 0.930 . S
C2742 C2743 1.367 . S
C2742 C2750 1.378 . S
C2743 C2742 1.367 . S
C2743 C2751 1.433 . S
C2744 H2740 0.929 . S
C2744 C2746 1.378 . S
C2744 C2748 1.350 . S
C2745 C2748 1.463 . S
C2745 C2750 1.350 . S
C2745 N2753 1.427 . S
C2746 H2737 0.930 . S
C2746 C2744 1.378 . S
C2746 C2747 1.367 . S
C2747 C2746 1.367 . S
C2747 C2749 1.433 . S
C2748 C2744 1.350 . S
C2748 C2745 1.463 . S
C2748 N2752 1.427 . S
C2749 H2739 0.929 . S
C2749 C2747 1.433 . S
C2749 N2752 1.384 . S
C2750 H2741 0.929 . S
C2750 C2742 1.378 . S
C2750 C2745 1.350 . S
C2751 H2738 0.929 . S
C2751 C2743 1.433 . S
C2751 N2753 1.384 . S
N2752 C2748 1.427 . S
N2752 C2749 1.384 . S
N2753 C2745 1.427 . S
N2753 C2751 1.384 . S
H2754 C2760 0.930 . S
H2755 C2764 0.930 . S
H2756 C2769 0.929 . S
H2757 C2767 0.929 . S
H2758 C2762 0.929 . S
H2759 C2768 0.929 . S
C2760 H2754 0.930 . S
C2760 C2761 1.367 . S
C2760 C2768 1.378 . S
C2761 C2760 1.367 . S
C2761 C2769 1.433 . S
C2762 H2758 0.929 . S
C2762 C2764 1.378 . S
C2762 C2766 1.350 . S
C2763 C2766 1.463 . S
C2763 C2768 1.350 . S
C2763 N2771 1.427 . S
C2764 H2755 0.930 . S
C2764 C2762 1.378 . S
C2764 C2765 1.367 . S
C2765 C2764 1.367 . S
C2765 C2767 1.433 . S
C2766 C2762 1.350 . S
C2766 C2763 1.463 . S
C2766 N2770 1.427 . S
C2767 H2757 0.929 . S
C2767 C2765 1.433 . S
C2767 N2770 1.384 . S
C2768 H2759 0.929 . S
C2768 C2760 1.378 . S
C2768 C2763 1.350 . S
C2769 H2756 0.929 . S
C2769 C2761 1.433 . S
C2769 N2771 1.384 . S
N2770 C2766 1.427 . S
N2770 C2767 1.384 . S
N2771 C2763 1.427 . S
N2771 C2769 1.384 . S
H2772 C2778 0.930 . S
H2773 C2782 0.930 . S
H2774 C2787 0.929 . S
H2775 C2785 0.929 . S
H2776 C2780 0.929 . S
H2777 C2786 0.929 . S
C2778 H2772 0.930 . S
C2778 C2779 1.367 . S
C2778 C2786 1.378 . S
C2779 C2778 1.367 . S
C2779 C2787 1.433 . S
C2780 H2776 0.929 . S
C2780 C2782 1.378 . S
C2780 C2784 1.350 . S
C2781 C2784 1.463 . S
C2781 C2786 1.350 . S
C2781 N2789 1.427 . S
C2782 H2773 0.930 . S
C2782 C2780 1.378 . S
C2782 C2783 1.367 . S
C2783 C2782 1.367 . S
C2783 C2785 1.433 . S
C2784 C2780 1.350 . S
C2784 C2781 1.463 . S
C2784 N2788 1.427 . S
C2785 H2775 0.929 . S
C2785 C2783 1.433 . S
C2785 N2788 1.384 . S
C2786 H2777 0.929 . S
C2786 C2778 1.378 . S
C2786 C2781 1.350 . S
C2787 H2774 0.929 . S
C2787 C2779 1.433 . S
C2787 N2789 1.384 . S
N2788 C2784 1.427 . S
N2788 C2785 1.384 . S
N2789 C2781 1.427 . S
N2789 C2787 1.384 . S
H2790 C2796 0.930 . S
H2791 C2800 0.930 . S
H2792 C2805 0.929 . S
H2793 C2803 0.929 . S
H2794 C2798 0.929 . S
H2795 C2804 0.929 . S
C2796 H2790 0.930 . S
C2796 C2797 1.367 . S
C2796 C2804 1.378 . S
C2797 C2796 1.367 . S
C2797 C2805 1.433 . S
C2798 H2794 0.929 . S
C2798 C2800 1.378 . S
C2798 C2802 1.350 . S
C2799 C2802 1.463 . S
C2799 C2804 1.350 . S
C2799 N2807 1.427 . S
C2800 H2791 0.930 . S
C2800 C2798 1.378 . S
C2800 C2801 1.367 . S
C2801 C2800 1.367 . S
C2801 C2803 1.433 . S
C2802 C2798 1.350 . S
C2802 C2799 1.463 . S
C2802 N2806 1.427 . S
C2803 H2793 0.929 . S
C2803 C2801 1.433 . S
C2803 N2806 1.384 . S
C2804 H2795 0.929 . S
C2804 C2796 1.378 . S
C2804 C2799 1.350 . S
C2805 H2792 0.929 . S
C2805 C2797 1.433 . S
C2805 N2807 1.384 . S
N2806 C2802 1.427 . S
N2806 C2803 1.384 . S
N2807 C2799 1.427 . S
N2807 C2805 1.384 . S
H2808 C2814 0.930 . S
H2809 C2818 0.930 . S
H2810 C2823 0.929 . S
H2811 C2821 0.929 . S
H2812 C2816 0.929 . S
H2813 C2822 0.929 . S
C2814 H2808 0.930 . S
C2814 C2815 1.367 . S
C2814 C2822 1.378 . S
C2815 C2814 1.367 . S
C2815 C2823 1.433 . S
C2816 H2812 0.929 . S
C2816 C2818 1.378 . S
C2816 C2820 1.350 . S
C2817 C2820 1.463 . S
C2817 C2822 1.350 . S
C2817 N2825 1.427 . S
C2818 H2809 0.930 . S
C2818 C2816 1.378 . S
C2818 C2819 1.367 . S
C2819 C2818 1.367 . S
C2819 C2821 1.433 . S
C2820 C2816 1.350 . S
C2820 C2817 1.463 . S
C2820 N2824 1.427 . S
C2821 H2811 0.929 . S
C2821 C2819 1.433 . S
C2821 N2824 1.384 . S
C2822 H2813 0.929 . S
C2822 C2814 1.378 . S
C2822 C2817 1.350 . S
C2823 H2810 0.929 . S
C2823 C2815 1.433 . S
C2823 N2825 1.384 . S
N2824 C2820 1.427 . S
N2824 C2821 1.384 . S
N2825 C2817 1.427 . S
N2825 C2823 1.384 . S
H2826 C2832 0.930 . S
H2827 C2836 0.930 . S
H2828 C2841 0.929 . S
H2829 C2839 0.929 . S
H2830 C2834 0.929 . S
H2831 C2840 0.929 . S
C2832 H2826 0.930 . S
C2832 C2833 1.367 . S
C2832 C2840 1.378 . S
C2833 C2832 1.367 . S
C2833 C2841 1.433 . S
C2834 H2830 0.929 . S
C2834 C2836 1.378 . S
C2834 C2838 1.350 . S
C2835 C2838 1.463 . S
C2835 C2840 1.350 . S
C2835 N2843 1.427 . S
C2836 H2827 0.930 . S
C2836 C2834 1.378 . S
C2836 C2837 1.367 . S
C2837 C2836 1.367 . S
C2837 C2839 1.433 . S
C2838 C2834 1.350 . S
C2838 C2835 1.463 . S
C2838 N2842 1.427 . S
C2839 H2829 0.929 . S
C2839 C2837 1.433 . S
C2839 N2842 1.384 . S
C2840 H2831 0.929 . S
C2840 C2832 1.378 . S
C2840 C2835 1.350 . S
C2841 H2828 0.929 . S
C2841 C2833 1.433 . S
C2841 N2843 1.384 . S
N2842 C2838 1.427 . S
N2842 C2839 1.384 . S
N2843 C2835 1.427 . S
N2843 C2841 1.384 . S
H2844 C2850 0.930 . S
H2845 C2854 0.930 . S
H2846 C2859 0.929 . S
H2847 C2857 0.929 . S
H2848 C2852 0.929 . S
H2849 C2858 0.929 . S
C2850 H2844 0.930 . S
C2850 C2851 1.367 . S
C2850 C2858 1.378 . S
C2851 C2850 1.367 . S
C2851 C2859 1.433 . S
C2852 H2848 0.929 . S
C2852 C2854 1.378 . S
C2852 C2856 1.350 . S
C2853 C2856 1.463 . S
C2853 C2858 1.350 . S
C2853 N2861 1.427 . S
C2854 H2845 0.930 . S
C2854 C2852 1.378 . S
C2854 C2855 1.367 . S
C2855 C2854 1.367 . S
C2855 C2857 1.433 . S
C2856 C2852 1.350 . S
C2856 C2853 1.463 . S
C2856 N2860 1.427 . S
C2857 H2847 0.929 . S
C2857 C2855 1.433 . S
C2857 N2860 1.384 . S
C2858 H2849 0.929 . S
C2858 C2850 1.378 . S
C2858 C2853 1.350 . S
C2859 H2846 0.929 . S
C2859 C2851 1.433 . S
C2859 N2861 1.384 . S
N2860 C2856 1.427 . S
N2860 C2857 1.384 . S
N2861 C2853 1.427 . S
N2861 C2859 1.384 . S
H2862 C2868 0.930 . S
H2863 C2872 0.930 . S
H2864 C2877 0.929 . S
H2865 C2875 0.929 . S
H2866 C2870 0.929 . S
H2867 C2876 0.929 . S
C2868 H2862 0.930 . S
C2868 C2869 1.367 . S
C2868 C2876 1.378 . S
C2869 C2868 1.367 . S
C2869 C2877 1.433 . S
C2870 H2866 0.929 . S
C2870 C2872 1.378 . S
C2870 C2874 1.350 . S
C2871 C2874 1.463 . S
C2871 C2876 1.350 . S
C2871 N2879 1.427 . S
C2872 H2863 0.930 . S
C2872 C2870 1.378 . S
C2872 C2873 1.367 . S
C2873 C2872 1.367 . S
C2873 C2875 1.433 . S
C2874 C2870 1.350 . S
C2874 C2871 1.463 . S
C2874 N2878 1.427 . S
C2875 H2865 0.929 . S
C2875 C2873 1.433 . S
C2875 N2878 1.384 . S
C2876 H2867 0.929 . S
C2876 C2868 1.378 . S
C2876 C2871 1.350 . S
C2877 H2864 0.929 . S
C2877 C2869 1.433 . S
C2877 N2879 1.384 . S
N2878 C2874 1.427 . S
N2878 C2875 1.384 . S
N2879 C2871 1.427 . S
N2879 C2877 1.384 . S
H2880 C2886 0.930 . S
H2881 C2890 0.930 . S
H2882 C2895 0.929 . S
H2883 C2893 0.929 . S
H2884 C2888 0.929 . S
H2885 C2894 0.929 . S
C2886 H2880 0.930 . S
C2886 C2887 1.367 . S
C2886 C2894 1.378 . S
C2887 C2886 1.367 . S
C2887 C2895 1.433 . S
C2888 H2884 0.929 . S
C2888 C2890 1.378 . S
C2888 C2892 1.350 . S
C2889 C2892 1.463 . S
C2889 C2894 1.350 . S
C2889 N2897 1.427 . S
C2890 H2881 0.930 . S
C2890 C2888 1.378 . S
C2890 C2891 1.367 . S
C2891 C2890 1.367 . S
C2891 C2893 1.433 . S
C2892 C2888 1.350 . S
C2892 C2889 1.463 . S
C2892 N2896 1.427 . S
C2893 H2883 0.929 . S
C2893 C2891 1.433 . S
C2893 N2896 1.384 . S
C2894 H2885 0.929 . S
C2894 C2886 1.378 . S
C2894 C2889 1.350 . S
C2895 H2882 0.929 . S
C2895 C2887 1.433 . S
C2895 N2897 1.384 . S
N2896 C2892 1.427 . S
N2896 C2893 1.384 . S
N2897 C2889 1.427 . S
N2897 C2895 1.384 . S
H2898 C2904 0.930 . S
H2899 C2908 0.930 . S
H2900 C2913 0.929 . S
H2901 C2911 0.929 . S
H2902 C2906 0.929 . S
H2903 C2912 0.929 . S
C2904 H2898 0.930 . S
C2904 C2905 1.367 . S
C2904 C2912 1.378 . S
C2905 C2904 1.367 . S
C2905 C2913 1.433 . S
C2906 H2902 0.929 . S
C2906 C2908 1.378 . S
C2906 C2910 1.350 . S
C2907 C2910 1.463 . S
C2907 C2912 1.350 . S
C2907 N2915 1.427 . S
C2908 H2899 0.930 . S
C2908 C2906 1.378 . S
C2908 C2909 1.367 . S
C2909 C2908 1.367 . S
C2909 C2911 1.433 . S
C2910 C2906 1.350 . S
C2910 C2907 1.463 . S
C2910 N2914 1.427 . S
C2911 H2901 0.929 . S
C2911 C2909 1.433 . S
C2911 N2914 1.384 . S
C2912 H2903 0.929 . S
C2912 C2904 1.378 . S
C2912 C2907 1.350 . S
C2913 H2900 0.929 . S
C2913 C2905 1.433 . S
C2913 N2915 1.384 . S
N2914 C2910 1.427 . S
N2914 C2911 1.384 . S
N2915 C2907 1.427 . S
N2915 C2913 1.384 . S
H2916 C2922 0.930 . S
H2917 C2926 0.930 . S
H2918 C2931 0.929 . S
H2919 C2929 0.929 . S
H2920 C2924 0.929 . S
H2921 C2930 0.929 . S
C2922 H2916 0.930 . S
C2922 C2923 1.367 . S
C2922 C2930 1.378 . S
C2923 C2922 1.367 . S
C2923 C2931 1.433 . S
C2924 H2920 0.929 . S
C2924 C2926 1.378 . S
C2924 C2928 1.350 . S
C2925 C2928 1.463 . S
C2925 C2930 1.350 . S
C2925 N2933 1.427 . S
C2926 H2917 0.930 . S
C2926 C2924 1.378 . S
C2926 C2927 1.367 . S
C2927 C2926 1.367 . S
C2927 C2929 1.433 . S
C2928 C2924 1.350 . S
C2928 C2925 1.463 . S
C2928 N2932 1.427 . S
C2929 H2919 0.929 . S
C2929 C2927 1.433 . S
C2929 N2932 1.384 . S
C2930 H2921 0.929 . S
C2930 C2922 1.378 . S
C2930 C2925 1.350 . S
C2931 H2918 0.929 . S
C2931 C2923 1.433 . S
C2931 N2933 1.384 . S
N2932 C2928 1.427 . S
N2932 C2929 1.384 . S
N2933 C2925 1.427 . S
N2933 C2931 1.384 . S
H2934 C2940 0.930 . S
H2935 C2944 0.930 . S
H2936 C2949 0.929 . S
H2937 C2947 0.929 . S
H2938 C2942 0.929 . S
H2939 C2948 0.929 . S
C2940 H2934 0.930 . S
C2940 C2941 1.367 . S
C2940 C2948 1.378 . S
C2941 C2940 1.367 . S
C2941 C2949 1.433 . S
C2942 H2938 0.929 . S
C2942 C2944 1.378 . S
C2942 C2946 1.350 . S
C2943 C2946 1.463 . S
C2943 C2948 1.350 . S
C2943 N2951 1.427 . S
C2944 H2935 0.930 . S
C2944 C2942 1.378 . S
C2944 C2945 1.367 . S
C2945 C2944 1.367 . S
C2945 C2947 1.433 . S
C2946 C2942 1.350 . S
C2946 C2943 1.463 . S
C2946 N2950 1.427 . S
C2947 H2937 0.929 . S
C2947 C2945 1.433 . S
C2947 N2950 1.384 . S
C2948 H2939 0.929 . S
C2948 C2940 1.378 . S
C2948 C2943 1.350 . S
C2949 H2936 0.929 . S
C2949 C2941 1.433 . S
C2949 N2951 1.384 . S
N2950 C2946 1.427 . S
N2950 C2947 1.384 . S
N2951 C2943 1.427 . S
N2951 C2949 1.384 . S
H2952 C2958 0.930 . S
H2953 C2962 0.930 . S
H2954 C2967 0.929 . S
H2955 C2965 0.929 . S
H2956 C2960 0.929 . S
H2957 C2966 0.929 . S
C2958 H2952 0.930 . S
C2958 C2959 1.367 . S
C2958 C2966 1.378 . S
C2959 C2958 1.367 . S
C2959 C2967 1.433 . S
C2960 H2956 0.929 . S
C2960 C2962 1.378 . S
C2960 C2964 1.350 . S
C2961 C2964 1.463 . S
C2961 C2966 1.350 . S
C2961 N2969 1.427 . S
C2962 H2953 0.930 . S
C2962 C2960 1.378 . S
C2962 C2963 1.367 . S
C2963 C2962 1.367 . S
C2963 C2965 1.433 . S
C2964 C2960 1.350 . S
C2964 C2961 1.463 . S
C2964 N2968 1.427 . S
C2965 H2955 0.929 . S
C2965 C2963 1.433 . S
C2965 N2968 1.384 . S
C2966 H2957 0.929 . S
C2966 C2958 1.378 . S
C2966 C2961 1.350 . S
C2967 H2954 0.929 . S
C2967 C2959 1.433 . S
C2967 N2969 1.384 . S
N2968 C2964 1.427 . S
N2968 C2965 1.384 . S
N2969 C2961 1.427 . S
N2969 C2967 1.384 . S
H2970 C2976 0.930 . S
H2971 C2980 0.930 . S
H2972 C2985 0.929 . S
H2973 C2983 0.929 . S
H2974 C2978 0.929 . S
H2975 C2984 0.929 . S
C2976 H2970 0.930 . S
C2976 C2977 1.367 . S
C2976 C2984 1.378 . S
C2977 C2976 1.367 . S
C2977 C2985 1.433 . S
C2978 H2974 0.929 . S
C2978 C2980 1.378 . S
C2978 C2982 1.350 . S
C2979 C2982 1.463 . S
C2979 C2984 1.350 . S
C2979 N2987 1.427 . S
C2980 H2971 0.930 . S
C2980 C2978 1.378 . S
C2980 C2981 1.367 . S
C2981 C2980 1.367 . S
C2981 C2983 1.433 . S
C2982 C2978 1.350 . S
C2982 C2979 1.463 . S
C2982 N2986 1.427 . S
C2983 H2973 0.929 . S
C2983 C2981 1.433 . S
C2983 N2986 1.384 . S
C2984 H2975 0.929 . S
C2984 C2976 1.378 . S
C2984 C2979 1.350 . S
C2985 H2972 0.929 . S
C2985 C2977 1.433 . S
C2985 N2987 1.384 . S
N2986 C2982 1.427 . S
N2986 C2983 1.384 . S
N2987 C2979 1.427 . S
N2987 C2985 1.384 . S
H2988 C2994 0.930 . S
H2989 C2998 0.930 . S
H2990 C3003 0.929 . S
H2991 C3001 0.929 . S
H2992 C2996 0.929 . S
H2993 C3002 0.929 . S
C2994 H2988 0.930 . S
C2994 C2995 1.367 . S
C2994 C3002 1.378 . S
C2995 C2994 1.367 . S
C2995 C3003 1.433 . S
C2996 H2992 0.929 . S
C2996 C2998 1.378 . S
C2996 C3000 1.350 . S
C2997 C3000 1.463 . S
C2997 C3002 1.350 . S
C2997 N3005 1.427 . S
C2998 H2989 0.930 . S
C2998 C2996 1.378 . S
C2998 C2999 1.367 . S
C2999 C2998 1.367 . S
C2999 C3001 1.433 . S
C3000 C2996 1.350 . S
C3000 C2997 1.463 . S
C3000 N3004 1.427 . S
C3001 H2991 0.929 . S
C3001 C2999 1.433 . S
C3001 N3004 1.384 . S
C3002 H2993 0.929 . S
C3002 C2994 1.378 . S
C3002 C2997 1.350 . S
C3003 H2990 0.929 . S
C3003 C2995 1.433 . S
C3003 N3005 1.384 . S
N3004 C3000 1.427 . S
N3004 C3001 1.384 . S
N3005 C2997 1.427 . S
N3005 C3003 1.384 . S
H3006 C3012 0.930 . S
H3007 C3016 0.930 . S
H3008 C3021 0.929 . S
H3009 C3019 0.929 . S
H3010 C3014 0.929 . S
H3011 C3020 0.929 . S
C3012 H3006 0.930 . S
C3012 C3013 1.367 . S
C3012 C3020 1.378 . S
C3013 C3012 1.367 . S
C3013 C3021 1.433 . S
C3014 H3010 0.929 . S
C3014 C3016 1.378 . S
C3014 C3018 1.350 . S
C3015 C3018 1.463 . S
C3015 C3020 1.350 . S
C3015 N3023 1.427 . S
C3016 H3007 0.930 . S
C3016 C3014 1.378 . S
C3016 C3017 1.367 . S
C3017 C3016 1.367 . S
C3017 C3019 1.433 . S
C3018 C3014 1.350 . S
C3018 C3015 1.463 . S
C3018 N3022 1.427 . S
C3019 H3009 0.929 . S
C3019 C3017 1.433 . S
C3019 N3022 1.384 . S
C3020 H3011 0.929 . S
C3020 C3012 1.378 . S
C3020 C3015 1.350 . S
C3021 H3008 0.929 . S
C3021 C3013 1.433 . S
C3021 N3023 1.384 . S
N3022 C3018 1.427 . S
N3022 C3019 1.384 . S
N3023 C3015 1.427 . S
N3023 C3021 1.384 . S
H3024 C3030 0.930 . S
H3025 C3034 0.930 . S
H3026 C3039 0.929 . S
H3027 C3037 0.929 . S
H3028 C3032 0.929 . S
H3029 C3038 0.929 . S
C3030 H3024 0.930 . S
C3030 C3031 1.367 . S
C3030 C3038 1.378 . S
C3031 C3030 1.367 . S
C3031 C3039 1.433 . S
C3032 H3028 0.929 . S
C3032 C3034 1.378 . S
C3032 C3036 1.350 . S
C3033 C3036 1.463 . S
C3033 C3038 1.350 . S
C3033 N3041 1.427 . S
C3034 H3025 0.930 . S
C3034 C3032 1.378 . S
C3034 C3035 1.367 . S
C3035 C3034 1.367 . S
C3035 C3037 1.433 . S
C3036 C3032 1.350 . S
C3036 C3033 1.463 . S
C3036 N3040 1.427 . S
C3037 H3027 0.929 . S
C3037 C3035 1.433 . S
C3037 N3040 1.384 . S
C3038 H3029 0.929 . S
C3038 C3030 1.378 . S
C3038 C3033 1.350 . S
C3039 H3026 0.929 . S
C3039 C3031 1.433 . S
C3039 N3041 1.384 . S
N3040 C3036 1.427 . S
N3040 C3037 1.384 . S
N3041 C3033 1.427 . S
N3041 C3039 1.384 . S
H3042 C3048 0.930 . S
H3043 C3052 0.930 . S
H3044 C3057 0.929 . S
H3045 C3055 0.929 . S
H3046 C3050 0.929 . S
H3047 C3056 0.929 . S
C3048 H3042 0.930 . S
C3048 C3049 1.367 . S
C3048 C3056 1.378 . S
C3049 C3048 1.367 . S
C3049 C3057 1.433 . S
C3050 H3046 0.929 . S
C3050 C3052 1.378 . S
C3050 C3054 1.350 . S
C3051 C3054 1.463 . S
C3051 C3056 1.350 . S
C3051 N3059 1.427 . S
C3052 H3043 0.930 . S
C3052 C3050 1.378 . S
C3052 C3053 1.367 . S
C3053 C3052 1.367 . S
C3053 C3055 1.433 . S
C3054 C3050 1.350 . S
C3054 C3051 1.463 . S
C3054 N3058 1.427 . S
C3055 H3045 0.929 . S
C3055 C3053 1.433 . S
C3055 N3058 1.384 . S
C3056 H3047 0.929 . S
C3056 C3048 1.378 . S
C3056 C3051 1.350 . S
C3057 H3044 0.929 . S
C3057 C3049 1.433 . S
C3057 N3059 1.384 . S
N3058 C3054 1.427 . S
N3058 C3055 1.384 . S
N3059 C3051 1.427 . S
N3059 C3057 1.384 . S
H3060 C3066 0.930 . S
H3061 C3070 0.930 . S
H3062 C3075 0.929 . S
H3063 C3073 0.929 . S
H3064 C3068 0.929 . S
H3065 C3074 0.929 . S
C3066 H3060 0.930 . S
C3066 C3067 1.367 . S
C3066 C3074 1.378 . S
C3067 C3066 1.367 . S
C3067 C3075 1.433 . S
C3068 H3064 0.929 . S
C3068 C3070 1.378 . S
C3068 C3072 1.350 . S
C3069 C3072 1.463 . S
C3069 C3074 1.350 . S
C3069 N3077 1.427 . S
C3070 H3061 0.930 . S
C3070 C3068 1.378 . S
C3070 C3071 1.367 . S
C3071 C3070 1.367 . S
C3071 C3073 1.433 . S
C3072 C3068 1.350 . S
C3072 C3069 1.463 . S
C3072 N3076 1.427 . S
C3073 H3063 0.929 . S
C3073 C3071 1.433 . S
C3073 N3076 1.384 . S
C3074 H3065 0.929 . S
C3074 C3066 1.378 . S
C3074 C3069 1.350 . S
C3075 H3062 0.929 . S
C3075 C3067 1.433 . S
C3075 N3077 1.384 . S
N3076 C3072 1.427 . S
N3076 C3073 1.384 . S
N3077 C3069 1.427 . S
N3077 C3075 1.384 . S
H3078 C3084 0.930 . S
H3079 C3088 0.930 . S
H3080 C3093 0.929 . S
H3081 C3091 0.929 . S
H3082 C3086 0.929 . S
H3083 C3092 0.929 . S
C3084 H3078 0.930 . S
C3084 C3085 1.367 . S
C3084 C3092 1.378 . S
C3085 C3084 1.367 . S
C3085 C3093 1.433 . S
C3086 H3082 0.929 . S
C3086 C3088 1.378 . S
C3086 C3090 1.350 . S
C3087 C3090 1.463 . S
C3087 C3092 1.350 . S
C3087 N3095 1.427 . S
C3088 H3079 0.930 . S
C3088 C3086 1.378 . S
C3088 C3089 1.367 . S
C3089 C3088 1.367 . S
C3089 C3091 1.433 . S
C3090 C3086 1.350 . S
C3090 C3087 1.463 . S
C3090 N3094 1.427 . S
C3091 H3081 0.929 . S
C3091 C3089 1.433 . S
C3091 N3094 1.384 . S
C3092 H3083 0.929 . S
C3092 C3084 1.378 . S
C3092 C3087 1.350 . S
C3093 H3080 0.929 . S
C3093 C3085 1.433 . S
C3093 N3095 1.384 . S
N3094 C3090 1.427 . S
N3094 C3091 1.384 . S
N3095 C3087 1.427 . S
N3095 C3093 1.384 . S
H3096 C3102 0.930 . S
H3097 C3106 0.930 . S
H3098 C3111 0.929 . S
H3099 C3109 0.929 . S
H3100 C3104 0.929 . S
H3101 C3110 0.929 . S
C3102 H3096 0.930 . S
C3102 C3103 1.367 . S
C3102 C3110 1.378 . S
C3103 C3102 1.367 . S
C3103 C3111 1.433 . S
C3104 H3100 0.929 . S
C3104 C3106 1.378 . S
C3104 C3108 1.350 . S
C3105 C3108 1.463 . S
C3105 C3110 1.350 . S
C3105 N3113 1.427 . S
C3106 H3097 0.930 . S
C3106 C3104 1.378 . S
C3106 C3107 1.367 . S
C3107 C3106 1.367 . S
C3107 C3109 1.433 . S
C3108 C3104 1.350 . S
C3108 C3105 1.463 . S
C3108 N3112 1.427 . S
C3109 H3099 0.929 . S
C3109 C3107 1.433 . S
C3109 N3112 1.384 . S
C3110 H3101 0.929 . S
C3110 C3102 1.378 . S
C3110 C3105 1.350 . S
C3111 H3098 0.929 . S
C3111 C3103 1.433 . S
C3111 N3113 1.384 . S
N3112 C3108 1.427 . S
N3112 C3109 1.384 . S
N3113 C3105 1.427 . S
N3113 C3111 1.384 . S
H3114 C3120 0.930 . S
H3115 C3124 0.930 . S
H3116 C3129 0.929 . S
H3117 C3127 0.929 . S
H3118 C3122 0.929 . S
H3119 C3128 0.929 . S
C3120 H3114 0.930 . S
C3120 C3121 1.367 . S
C3120 C3128 1.378 . S
C3121 C3120 1.367 . S
C3121 C3129 1.433 . S
C3122 H3118 0.929 . S
C3122 C3124 1.378 . S
C3122 C3126 1.350 . S
C3123 C3126 1.463 . S
C3123 C3128 1.350 . S
C3123 N3131 1.427 . S
C3124 H3115 0.930 . S
C3124 C3122 1.378 . S
C3124 C3125 1.367 . S
C3125 C3124 1.367 . S
C3125 C3127 1.433 . S
C3126 C3122 1.350 . S
C3126 C3123 1.463 . S
C3126 N3130 1.427 . S
C3127 H3117 0.929 . S
C3127 C3125 1.433 . S
C3127 N3130 1.384 . S
C3128 H3119 0.929 . S
C3128 C3120 1.378 . S
C3128 C3123 1.350 . S
C3129 H3116 0.929 . S
C3129 C3121 1.433 . S
C3129 N3131 1.384 . S
N3130 C3126 1.427 . S
N3130 C3127 1.384 . S
N3131 C3123 1.427 . S
N3131 C3129 1.384 . S
H3132 C3138 0.930 . S
H3133 C3142 0.930 . S
H3134 C3147 0.929 . S
H3135 C3145 0.929 . S
H3136 C3140 0.929 . S
H3137 C3146 0.929 . S
C3138 H3132 0.930 . S
C3138 C3139 1.367 . S
C3138 C3146 1.378 . S
C3139 C3138 1.367 . S
C3139 C3147 1.433 . S
C3140 H3136 0.929 . S
C3140 C3142 1.378 . S
C3140 C3144 1.350 . S
C3141 C3144 1.463 . S
C3141 C3146 1.350 . S
C3141 N3149 1.427 . S
C3142 H3133 0.930 . S
C3142 C3140 1.378 . S
C3142 C3143 1.367 . S
C3143 C3142 1.367 . S
C3143 C3145 1.433 . S
C3144 C3140 1.350 . S
C3144 C3141 1.463 . S
C3144 N3148 1.427 . S
C3145 H3135 0.929 . S
C3145 C3143 1.433 . S
C3145 N3148 1.384 . S
C3146 H3137 0.929 . S
C3146 C3138 1.378 . S
C3146 C3141 1.350 . S
C3147 H3134 0.929 . S
C3147 C3139 1.433 . S
C3147 N3149 1.384 . S
N3148 C3144 1.427 . S
N3148 C3145 1.384 . S
N3149 C3141 1.427 . S
N3149 C3147 1.384 . S
H3150 C3156 0.930 . S
H3151 C3160 0.930 . S
H3152 C3165 0.929 . S
H3153 C3163 0.929 . S
H3154 C3158 0.929 . S
H3155 C3164 0.929 . S
C3156 H3150 0.930 . S
C3156 C3157 1.367 . S
C3156 C3164 1.378 . S
C3157 C3156 1.367 . S
C3157 C3165 1.433 . S
C3158 H3154 0.929 . S
C3158 C3160 1.378 . S
C3158 C3162 1.350 . S
C3159 C3162 1.463 . S
C3159 C3164 1.350 . S
C3159 N3167 1.427 . S
C3160 H3151 0.930 . S
C3160 C3158 1.378 . S
C3160 C3161 1.367 . S
C3161 C3160 1.367 . S
C3161 C3163 1.433 . S
C3162 C3158 1.350 . S
C3162 C3159 1.463 . S
C3162 N3166 1.427 . S
C3163 H3153 0.929 . S
C3163 C3161 1.433 . S
C3163 N3166 1.384 . S
C3164 H3155 0.929 . S
C3164 C3156 1.378 . S
C3164 C3159 1.350 . S
C3165 H3152 0.929 . S
C3165 C3157 1.433 . S
C3165 N3167 1.384 . S
N3166 C3162 1.427 . S
N3166 C3163 1.384 . S
N3167 C3159 1.427 . S
N3167 C3165 1.384 . S
H3168 C3174 0.930 . S
H3169 C3178 0.930 . S
H3170 C3183 0.929 . S
H3171 C3181 0.929 . S
H3172 C3176 0.929 . S
H3173 C3182 0.929 . S
C3174 H3168 0.930 . S
C3174 C3175 1.367 . S
C3174 C3182 1.378 . S
C3175 C3174 1.367 . S
C3175 C3183 1.433 . S
C3176 H3172 0.929 . S
C3176 C3178 1.378 . S
C3176 C3180 1.350 . S
C3177 C3180 1.463 . S
C3177 C3182 1.350 . S
C3177 N3185 1.427 . S
C3178 H3169 0.930 . S
C3178 C3176 1.378 . S
C3178 C3179 1.367 . S
C3179 C3178 1.367 . S
C3179 C3181 1.433 . S
C3180 C3176 1.350 . S
C3180 C3177 1.463 . S
C3180 N3184 1.427 . S
C3181 H3171 0.929 . S
C3181 C3179 1.433 . S
C3181 N3184 1.384 . S
C3182 H3173 0.929 . S
C3182 C3174 1.378 . S
C3182 C3177 1.350 . S
C3183 H3170 0.929 . S
C3183 C3175 1.433 . S
C3183 N3185 1.384 . S
N3184 C3180 1.427 . S
N3184 C3181 1.384 . S
N3185 C3177 1.427 . S
N3185 C3183 1.384 . S
H3186 C3192 0.930 . S
H3187 C3196 0.930 . S
H3188 C3201 0.929 . S
H3189 C3199 0.929 . S
H3190 C3194 0.929 . S
H3191 C3200 0.929 . S
C3192 H3186 0.930 . S
C3192 C3193 1.367 . S
C3192 C3200 1.378 . S
C3193 C3192 1.367 . S
C3193 C3201 1.433 . S
C3194 H3190 0.929 . S
C3194 C3196 1.378 . S
C3194 C3198 1.350 . S
C3195 C3198 1.463 . S
C3195 C3200 1.350 . S
C3195 N3203 1.427 . S
C3196 H3187 0.930 . S
C3196 C3194 1.378 . S
C3196 C3197 1.367 . S
C3197 C3196 1.367 . S
C3197 C3199 1.433 . S
C3198 C3194 1.350 . S
C3198 C3195 1.463 . S
C3198 N3202 1.427 . S
C3199 H3189 0.929 . S
C3199 C3197 1.433 . S
C3199 N3202 1.384 . S
C3200 H3191 0.929 . S
C3200 C3192 1.378 . S
C3200 C3195 1.350 . S
C3201 H3188 0.929 . S
C3201 C3193 1.433 . S
C3201 N3203 1.384 . S
N3202 C3198 1.427 . S
N3202 C3199 1.384 . S
N3203 C3195 1.427 . S
N3203 C3201 1.384 . S
H3204 C3210 0.930 . S
H3205 C3214 0.930 . S
H3206 C3219 0.929 . S
H3207 C3217 0.929 . S
H3208 C3212 0.929 . S
H3209 C3218 0.929 . S
C3210 H3204 0.930 . S
C3210 C3211 1.367 . S
C3210 C3218 1.378 . S
C3211 C3210 1.367 . S
C3211 C3219 1.433 . S
C3212 H3208 0.929 . S
C3212 C3214 1.378 . S
C3212 C3216 1.350 . S
C3213 C3216 1.463 . S
C3213 C3218 1.350 . S
C3213 N3221 1.427 . S
C3214 H3205 0.930 . S
C3214 C3212 1.378 . S
C3214 C3215 1.367 . S
C3215 C3214 1.367 . S
C3215 C3217 1.433 . S
C3216 C3212 1.350 . S
C3216 C3213 1.463 . S
C3216 N3220 1.427 . S
C3217 H3207 0.929 . S
C3217 C3215 1.433 . S
C3217 N3220 1.384 . S
C3218 H3209 0.929 . S
C3218 C3210 1.378 . S
C3218 C3213 1.350 . S
C3219 H3206 0.929 . S
C3219 C3211 1.433 . S
C3219 N3221 1.384 . S
N3220 C3216 1.427 . S
N3220 C3217 1.384 . S
N3221 C3213 1.427 . S
N3221 C3219 1.384 . S
H3222 C3228 0.930 . S
H3223 C3232 0.930 . S
H3224 C3237 0.929 . S
H3225 C3235 0.929 . S
H3226 C3230 0.929 . S
H3227 C3236 0.929 . S
C3228 H3222 0.930 . S
C3228 C3229 1.367 . S
C3228 C3236 1.378 . S
C3229 C3228 1.367 . S
C3229 C3237 1.433 . S
C3230 H3226 0.929 . S
C3230 C3232 1.378 . S
C3230 C3234 1.350 . S
C3231 C3234 1.463 . S
C3231 C3236 1.350 . S
C3231 N3239 1.427 . S
C3232 H3223 0.930 . S
C3232 C3230 1.378 . S
C3232 C3233 1.367 . S
C3233 C3232 1.367 . S
C3233 C3235 1.433 . S
C3234 C3230 1.350 . S
C3234 C3231 1.463 . S
C3234 N3238 1.427 . S
C3235 H3225 0.929 . S
C3235 C3233 1.433 . S
C3235 N3238 1.384 . S
C3236 H3227 0.929 . S
C3236 C3228 1.378 . S
C3236 C3231 1.350 . S
C3237 H3224 0.929 . S
C3237 C3229 1.433 . S
C3237 N3239 1.384 . S
N3238 C3234 1.427 . S
N3238 C3235 1.384 . S
N3239 C3231 1.427 . S
N3239 C3237 1.384 . S
H3240 C3246 0.930 . S
H3241 C3250 0.930 . S
H3242 C3255 0.929 . S
H3243 C3253 0.929 . S
H3244 C3248 0.929 . S
H3245 C3254 0.929 . S
C3246 H3240 0.930 . S
C3246 C3247 1.367 . S
C3246 C3254 1.378 . S
C3247 C3246 1.367 . S
C3247 C3255 1.433 . S
C3248 H3244 0.929 . S
C3248 C3250 1.378 . S
C3248 C3252 1.350 . S
C3249 C3252 1.463 . S
C3249 C3254 1.350 . S
C3249 N3257 1.427 . S
C3250 H3241 0.930 . S
C3250 C3248 1.378 . S
C3250 C3251 1.367 . S
C3251 C3250 1.367 . S
C3251 C3253 1.433 . S
C3252 C3248 1.350 . S
C3252 C3249 1.463 . S
C3252 N3256 1.427 . S
C3253 H3243 0.929 . S
C3253 C3251 1.433 . S
C3253 N3256 1.384 . S
C3254 H3245 0.929 . S
C3254 C3246 1.378 . S
C3254 C3249 1.350 . S
C3255 H3242 0.929 . S
C3255 C3247 1.433 . S
C3255 N3257 1.384 . S
N3256 C3252 1.427 . S
N3256 C3253 1.384 . S
N3257 C3249 1.427 . S
N3257 C3255 1.384 . S
H3258 C3264 0.930 . S
H3259 C3268 0.930 . S
H3260 C3273 0.929 . S
H3261 C3271 0.929 . S
H3262 C3266 0.929 . S
H3263 C3272 0.929 . S
C3264 H3258 0.930 . S
C3264 C3265 1.367 . S
C3264 C3272 1.378 . S
C3265 C3264 1.367 . S
C3265 C3273 1.433 . S
C3266 H3262 0.929 . S
C3266 C3268 1.378 . S
C3266 C3270 1.350 . S
C3267 C3270 1.463 . S
C3267 C3272 1.350 . S
C3267 N3275 1.427 . S
C3268 H3259 0.930 . S
C3268 C3266 1.378 . S
C3268 C3269 1.367 . S
C3269 C3268 1.367 . S
C3269 C3271 1.433 . S
C3270 C3266 1.350 . S
C3270 C3267 1.463 . S
C3270 N3274 1.427 . S
C3271 H3261 0.929 . S
C3271 C3269 1.433 . S
C3271 N3274 1.384 . S
C3272 H3263 0.929 . S
C3272 C3264 1.378 . S
C3272 C3267 1.350 . S
C3273 H3260 0.929 . S
C3273 C3265 1.433 . S
C3273 N3275 1.384 . S
N3274 C3270 1.427 . S
N3274 C3271 1.384 . S
N3275 C3267 1.427 . S
N3275 C3273 1.384 . S
H3276 C3282 0.930 . S
H3277 C3286 0.930 . S
H3278 C3291 0.929 . S
H3279 C3289 0.929 . S
H3280 C3284 0.929 . S
H3281 C3290 0.929 . S
C3282 H3276 0.930 . S
C3282 C3283 1.367 . S
C3282 C3290 1.378 . S
C3283 C3282 1.367 . S
C3283 C3291 1.433 . S
C3284 H3280 0.929 . S
C3284 C3286 1.378 . S
C3284 C3288 1.350 . S
C3285 C3288 1.463 . S
C3285 C3290 1.350 . S
C3285 N3293 1.427 . S
C3286 H3277 0.930 . S
C3286 C3284 1.378 . S
C3286 C3287 1.367 . S
C3287 C3286 1.367 . S
C3287 C3289 1.433 . S
C3288 C3284 1.350 . S
C3288 C3285 1.463 . S
C3288 N3292 1.427 . S
C3289 H3279 0.929 . S
C3289 C3287 1.433 . S
C3289 N3292 1.384 . S
C3290 H3281 0.929 . S
C3290 C3282 1.378 . S
C3290 C3285 1.350 . S
C3291 H3278 0.929 . S
C3291 C3283 1.433 . S
C3291 N3293 1.384 . S
N3292 C3288 1.427 . S
N3292 C3289 1.384 . S
N3293 C3285 1.427 . S
N3293 C3291 1.384 . S
H3294 C3300 0.930 . S
H3295 C3304 0.930 . S
H3296 C3309 0.929 . S
H3297 C3307 0.929 . S
H3298 C3302 0.929 . S
H3299 C3308 0.929 . S
C3300 H3294 0.930 . S
C3300 C3301 1.367 . S
C3300 C3308 1.378 . S
C3301 C3300 1.367 . S
C3301 C3309 1.433 . S
C3302 H3298 0.929 . S
C3302 C3304 1.378 . S
C3302 C3306 1.350 . S
C3303 C3306 1.463 . S
C3303 C3308 1.350 . S
C3303 N3311 1.427 . S
C3304 H3295 0.930 . S
C3304 C3302 1.378 . S
C3304 C3305 1.367 . S
C3305 C3304 1.367 . S
C3305 C3307 1.433 . S
C3306 C3302 1.350 . S
C3306 C3303 1.463 . S
C3306 N3310 1.427 . S
C3307 H3297 0.929 . S
C3307 C3305 1.433 . S
C3307 N3310 1.384 . S
C3308 H3299 0.929 . S
C3308 C3300 1.378 . S
C3308 C3303 1.350 . S
C3309 H3296 0.929 . S
C3309 C3301 1.433 . S
C3309 N3311 1.384 . S
N3310 C3306 1.427 . S
N3310 C3307 1.384 . S
N3311 C3303 1.427 . S
N3311 C3309 1.384 . S
H3312 C3318 0.930 . S
H3313 C3322 0.930 . S
H3314 C3327 0.929 . S
H3315 C3325 0.929 . S
H3316 C3320 0.929 . S
H3317 C3326 0.929 . S
C3318 H3312 0.930 . S
C3318 C3319 1.367 1_545 S
C3318 C3326 1.378 . S
C3319 C3318 1.367 1_565 S
C3319 C3327 1.433 . S
C3320 H3316 0.929 . S
C3320 C3322 1.378 . S
C3320 C3324 1.353 1_565 S
C3321 C3324 1.463 1_565 S
C3321 C3326 1.347 1_565 S
C3321 N3329 1.431 . S
C3322 H3313 0.930 . S
C3322 C3320 1.378 . S
C3322 C3323 1.367 1_565 S
C3323 C3322 1.367 1_545 S
C3323 C3325 1.433 . S
C3324 C3320 1.353 1_545 S
C3324 C3321 1.463 1_545 S
C3324 N3328 1.423 . S
C3325 H3315 0.929 . S
C3325 C3323 1.433 . S
C3325 N3328 1.384 . S
C3326 H3317 0.929 . S
C3326 C3318 1.378 . S
C3326 C3321 1.347 1_545 S
C3327 H3314 0.929 . S
C3327 C3319 1.433 . S
C3327 N3329 1.384 . S
N3328 C3324 1.423 . S
N3328 C3325 1.384 . S
N3329 C3321 1.431 . S
N3329 C3327 1.384 . S
H3330 C3336 0.930 . S
H3331 C3340 0.930 . S
H3332 C3345 0.929 . S
H3333 C3343 0.929 . S
H3334 C3338 0.929 . S
H3335 C3344 0.929 . S
C3336 H3330 0.930 . S
C3336 C3337 1.367 . S
C3336 C3344 1.378 . S
C3337 C3336 1.367 . S
C3337 C3345 1.433 . S
C3338 H3334 0.929 . S
C3338 C3340 1.378 . S
C3338 C3342 1.350 . S
C3339 C3342 1.463 . S
C3339 C3344 1.350 . S
C3339 N3347 1.427 . S
C3340 H3331 0.930 . S
C3340 C3338 1.378 . S
C3340 C3341 1.367 . S
C3341 C3340 1.367 . S
C3341 C3343 1.433 . S
C3342 C3338 1.350 . S
C3342 C3339 1.463 . S
C3342 N3346 1.427 . S
C3343 H3333 0.929 . S
C3343 C3341 1.433 . S
C3343 N3346 1.384 . S
C3344 H3335 0.929 . S
C3344 C3336 1.378 . S
C3344 C3339 1.350 . S
C3345 H3332 0.929 . S
C3345 C3337 1.433 . S
C3345 N3347 1.384 . S
N3346 C3342 1.427 . S
N3346 C3343 1.384 . S
N3347 C3339 1.427 . S
N3347 C3345 1.384 . S
H3348 C3354 0.930 . S
H3349 C3358 0.930 . S
H3350 C3363 0.929 . S
H3351 C3361 0.929 . S
H3352 C3356 0.929 . S
H3353 C3362 0.929 . S
C3354 H3348 0.930 . S
C3354 C3355 1.367 . S
C3354 C3362 1.378 . S
C3355 C3354 1.367 . S
C3355 C3363 1.433 1_545 S
C3356 H3352 0.929 . S
C3356 C3358 1.378 . S
C3356 C3360 1.411 . S
C3357 C3360 1.456 1_545 S
C3357 C3362 1.350 . S
C3357 N3365 1.427 1_545 S
C3358 H3349 0.930 . S
C3358 C3356 1.378 . S
C3358 C3359 1.367 . S
C3359 C3358 1.367 . S
C3359 C3361 1.433 1_565 S
C3360 C3356 1.411 . S
C3360 C3357 1.456 1_565 S
C3360 N3364 1.370 1_565 S
C3361 H3351 0.929 . S
C3361 C3359 1.433 1_545 S
C3361 N3364 1.384 . S
C3362 H3353 0.929 . S
C3362 C3354 1.378 . S
C3362 C3357 1.350 . S
C3363 H3350 0.929 . S
C3363 C3355 1.433 1_565 S
C3363 N3365 1.384 . S
N3364 C3360 1.370 1_545 S
N3364 C3361 1.384 . S
N3365 C3357 1.427 1_565 S
N3365 C3363 1.384 . S
H3366 C3372 0.930 . S
H3367 C3376 0.930 . S
H3368 C3381 0.929 . S
H3369 C3379 0.929 . S
H3370 C3374 0.929 . S
H3371 C3380 0.929 . S
C3372 H3366 0.930 . S
C3372 C3373 1.367 . S
C3372 C3380 1.378 . S
C3373 C3372 1.367 . S
C3373 C3381 1.433 . S
C3374 H3370 0.929 . S
C3374 C3376 1.378 . S
C3374 C3378 1.350 . S
C3375 C3378 1.463 1_556 S
C3375 C3380 1.350 . S
C3375 N3383 1.427 . S
C3376 H3367 0.930 . S
C3376 C3374 1.378 . S
C3376 C3377 1.367 . S
C3377 C3376 1.367 . S
C3377 C3379 1.433 . S
C3378 C3374 1.350 . S
C3378 C3375 1.463 1_554 S
C3378 N3382 1.427 . S
C3379 H3369 0.929 . S
C3379 C3377 1.433 . S
C3379 N3382 1.384 . S
C3380 H3371 0.929 . S
C3380 C3372 1.378 . S
C3380 C3375 1.350 . S
C3381 H3368 0.929 . S
C3381 C3373 1.433 . S
C3381 N3383 1.384 . S
N3382 C3378 1.427 . S
N3382 C3379 1.384 . S
N3383 C3375 1.427 . S
N3383 C3381 1.384 . S
H3384 C3390 0.930 . S
H3385 C3394 0.930 1_565 S
H3386 C3399 0.929 1_565 S
H3387 C3397 0.929 . S
H3388 C3392 0.929 1_565 S
H3389 C3398 0.929 . S
C3390 H3384 0.930 . S
C3390 C3391 1.367 . S
C3390 C3398 1.378 . S
C3391 C3390 1.367 . S
C3391 C3399 1.433 1_556 S
C3392 H3388 0.929 1_545 S
C3392 C3394 1.378 . S
C3392 C3396 1.376 . S
C3393 C3396 1.457 1_556 S
C3393 C3398 1.381 . S
C3393 N3401 1.401 1_556 S
C3394 H3385 0.930 1_545 S
C3394 C3392 1.378 . S
C3394 C3395 1.367 . S
C3395 C3394 1.367 . S
C3395 C3397 1.433 1_554 S
C3396 C3392 1.376 . S
C3396 C3393 1.457 1_554 S
C3396 N3400 1.405 1_554 S
C3397 H3387 0.929 . S
C3397 C3395 1.433 1_556 S
C3397 N3400 1.384 . S
C3398 H3389 0.929 . S
C3398 C3390 1.378 . S
C3398 C3393 1.381 . S
C3399 H3386 0.929 1_545 S
C3399 C3391 1.433 1_554 S
C3399 N3401 1.384 . S
N3400 C3396 1.405 1_556 S
N3400 C3397 1.384 . S
N3401 C3393 1.401 1_554 S
N3401 C3399 1.384 . S
H3402 C3408 0.930 . S
H3403 C3412 0.930 . S
H3404 C3417 0.929 . S
H3405 C3415 0.929 . S
H3406 C3410 0.929 . S
H3407 C3416 0.929 . S
C3408 H3402 0.930 . S
C3408 C3409 1.367 . S
C3408 C3416 1.378 . S
C3409 C3408 1.367 . S
C3409 C3417 1.433 . S
C3410 H3406 0.929 . S
C3410 C3412 1.378 . S
C3410 C3414 1.350 . S
C3411 C3414 1.463 1_545 S
C3411 C3416 1.350 . S
C3411 N3419 1.427 . S
C3412 H3403 0.930 . S
C3412 C3410 1.378 . S
C3412 C3413 1.367 . S
C3413 C3412 1.367 . S
C3413 C3415 1.433 . S
C3414 C3410 1.350 . S
C3414 C3411 1.463 1_565 S
C3414 N3418 1.427 . S
C3415 H3405 0.929 . S
C3415 C3413 1.433 . S
C3415 N3418 1.384 . S
C3416 H3407 0.929 . S
C3416 C3408 1.378 . S
C3416 C3411 1.350 . S
C3417 H3404 0.929 . S
C3417 C3409 1.433 . S
C3417 N3419 1.384 . S
N3418 C3414 1.427 . S
N3418 C3415 1.384 . S
N3419 C3411 1.427 . S
N3419 C3417 1.384 . S
H3420 C3426 0.930 . S
H3421 C3430 0.930 . S
H3422 C3435 0.929 . S
H3423 C3433 0.969 . S
H3424 C3428 0.929 . S
H3425 C3434 0.929 . S
C3426 H3420 0.930 . S
C3426 C3427 1.367 . S
C3426 C3434 1.378 . S
C3427 C3426 1.367 . S
C3427 C3435 1.433 . S
C3428 H3424 0.929 . S
C3428 C3430 1.378 . S
C3428 C3432 1.350 . S
C3429 C3432 1.463 . S
C3429 C3434 1.350 . S
C3429 N3437 1.427 . S
C3430 H3421 0.930 . S
C3430 C3428 1.378 . S
C3430 C3431 1.367 . S
C3431 C3430 1.367 . S
C3431 C3433 1.433 . S
C3432 C3428 1.350 . S
C3432 C3429 1.463 . S
C3432 N3436 1.427 . S
C3433 H3423 0.969 . S
C3433 C3431 1.433 . S
C3433 N3436 1.384 . S
C3434 H3425 0.929 . S
C3434 C3426 1.378 . S
C3434 C3429 1.350 . S
C3435 H3422 0.929 . S
C3435 C3427 1.433 . S
C3435 N3437 1.384 . S
N3436 C3432 1.427 . S
N3436 C3433 1.384 . S
N3437 C3429 1.427 . S
N3437 C3435 1.384 . S
H3438 C3444 0.930 . S
H3439 C3448 0.930 . S
H3440 C3453 0.929 . S
H3441 C3451 0.929 . S
H3442 C3446 0.929 . S
H3443 C3452 0.929 . S
C3444 H3438 0.930 . S
C3444 C3445 1.367 . S
C3444 C3452 1.378 . S
C3445 C3444 1.367 . S
C3445 C3453 1.433 . S
C3446 H3442 0.929 . S
C3446 C3448 1.378 . S
C3446 C3450 1.350 . S
C3447 C3450 1.463 1_545 S
C3447 C3452 1.350 . S
C3447 N3455 1.427 . S
C3448 H3439 0.930 . S
C3448 C3446 1.378 . S
C3448 C3449 1.367 . S
C3449 C3448 1.367 . S
C3449 C3451 1.433 . S
C3450 C3446 1.350 . S
C3450 C3447 1.463 1_565 S
C3450 N3454 1.427 . S
C3451 H3441 0.929 . S
C3451 C3449 1.433 . S
C3451 N3454 1.384 . S
C3452 H3443 0.929 . S
C3452 C3444 1.378 . S
C3452 C3447 1.350 . S
C3453 H3440 0.929 . S
C3453 C3445 1.433 . S
C3453 N3455 1.384 . S
N3454 C3450 1.427 . S
N3454 C3451 1.384 . S
N3455 C3447 1.427 . S
N3455 C3453 1.384 . S
H3456 C3462 0.930 1_556 S
H3457 C3466 0.930 . S
H3458 C3471 0.929 . S
H3459 C3469 0.929 1_556 S
H3460 C3464 0.929 . S
H3461 C3470 0.929 1_556 S
C3462 H3456 0.930 1_554 S
C3462 C3463 1.367 1_655 S
C3462 C3470 1.378 . S
C3463 C3462 1.367 1_455 S
C3463 C3471 1.433 . S
C3464 H3460 0.929 . S
C3464 C3466 1.378 . S
C3464 C3468 1.343 1_455 S
C3465 C3468 1.462 1_455 S
C3465 C3470 1.347 1_455 S
C3465 N3473 1.431 . S
C3466 H3457 0.930 . S
C3466 C3464 1.378 . S
C3466 C3467 1.367 1_455 S
C3467 C3466 1.367 1_655 S
C3467 C3469 1.433 . S
C3468 C3464 1.343 1_655 S
C3468 C3465 1.462 1_655 S
C3468 N3472 1.436 . S
C3469 H3459 0.929 1_554 S
C3469 C3467 1.433 . S
C3469 N3472 1.384 . S
C3470 H3461 0.929 1_554 S
C3470 C3462 1.378 . S
C3470 C3465 1.347 1_655 S
C3471 H3458 0.929 . S
C3471 C3463 1.433 . S
C3471 N3473 1.384 . S
N3472 C3468 1.436 . S
N3472 C3469 1.384 . S
N3473 C3465 1.431 . S
N3473 C3471 1.384 . S
H3474 C3480 0.930 . S
H3475 C3484 0.930 . S
H3476 C3489 0.929 . S
H3477 C3487 0.929 . S
H3478 C3482 0.929 . S
H3479 C3488 0.929 . S
C3480 H3474 0.930 . S
C3480 C3481 1.367 . S
C3480 C3488 1.378 . S
C3481 C3480 1.367 . S
C3481 C3489 1.433 . S
C3482 H3478 0.929 . S
C3482 C3484 1.378 . S
C3482 C3486 1.350 . S
C3483 C3486 1.463 . S
C3483 C3488 1.350 . S
C3483 N3491 1.427 . S
C3484 H3475 0.930 . S
C3484 C3482 1.378 . S
C3484 C3485 1.367 . S
C3485 C3484 1.367 . S
C3485 C3487 1.433 . S
C3486 C3482 1.350 . S
C3486 C3483 1.463 . S
C3486 N3490 1.427 . S
C3487 H3477 0.929 . S
C3487 C3485 1.433 . S
C3487 N3490 1.384 . S
C3488 H3479 0.929 . S
C3488 C3480 1.378 . S
C3488 C3483 1.350 . S
C3489 H3476 0.929 . S
C3489 C3481 1.433 . S
C3489 N3491 1.384 . S
N3490 C3486 1.427 . S
N3490 C3487 1.384 . S
N3491 C3483 1.427 . S
N3491 C3489 1.384 . S
H3492 C3498 0.930 . S
H3493 C3502 0.930 . S
H3494 C3507 0.929 . S
H3495 C3505 0.929 . S
H3496 C3500 0.929 . S
H3497 C3506 0.929 . S
C3498 H3492 0.930 . S
C3498 C3499 1.367 . S
C3498 C3506 1.378 . S
C3499 C3498 1.367 . S
C3499 C3507 1.433 . S
C3500 H3496 0.929 . S
C3500 C3502 1.378 . S
C3500 C3504 1.350 . S
C3501 C3504 1.463 1_655 S
C3501 C3506 1.350 . S
C3501 N3509 1.427 . S
C3502 H3493 0.930 . S
C3502 C3500 1.378 . S
C3502 C3503 1.367 . S
C3503 C3502 1.367 . S
C3503 C3505 1.433 . S
C3504 C3500 1.350 . S
C3504 C3501 1.463 1_455 S
C3504 N3508 1.427 . S
C3505 H3495 0.929 . S
C3505 C3503 1.433 . S
C3505 N3508 1.384 . S
C3506 H3497 0.929 . S
C3506 C3498 1.378 . S
C3506 C3501 1.350 . S
C3507 H3494 0.929 . S
C3507 C3499 1.433 . S
C3507 N3509 1.384 . S
N3508 C3504 1.427 . S
N3508 C3505 1.384 . S
N3509 C3501 1.427 . S
N3509 C3507 1.384 . S
H3510 C3516 0.930 . S
H3511 C3520 0.930 . S
H3512 C3525 0.929 . S
H3513 C3523 0.929 . S
H3514 C3518 0.929 . S
H3515 C3524 0.929 . S
C3516 H3510 0.930 . S
C3516 C3517 1.367 . S
C3516 C3524 1.378 . S
C3517 C3516 1.367 . S
C3517 C3525 1.433 1_455 S
C3518 H3514 0.929 . S
C3518 C3520 1.378 . S
C3518 C3522 1.377 . S
C3519 C3522 1.457 1_455 S
C3519 C3524 1.384 . S
C3519 N3527 1.399 1_455 S
C3520 H3511 0.930 . S
C3520 C3518 1.378 . S
C3520 C3521 1.367 . S
C3521 C3520 1.367 . S
C3521 C3523 1.433 1_655 S
C3522 C3518 1.377 . S
C3522 C3519 1.457 1_655 S
C3522 N3526 1.404 1_655 S
C3523 H3513 0.929 . S
C3523 C3521 1.433 1_455 S
C3523 N3526 1.384 . S
C3524 H3515 0.929 . S
C3524 C3516 1.378 . S
C3524 C3519 1.384 . S
C3525 H3512 0.929 . S
C3525 C3517 1.433 1_655 S
C3525 N3527 1.384 . S
N3526 C3522 1.404 1_455 S
N3526 C3523 1.384 . S
N3527 C3519 1.399 1_655 S
N3527 C3525 1.384 . S
H3528 C3534 0.930 . S
H3529 C3538 0.930 . S
H3530 C3543 0.929 . S
H3531 C3541 0.929 . S
H3532 C3536 0.929 . S
H3533 C3542 0.929 . S
C3534 H3528 0.930 . S
C3534 C3535 1.367 . S
C3534 C3542 1.378 . S
C3535 C3534 1.367 . S
C3535 C3543 1.433 . S
C3536 H3532 0.929 . S
C3536 C3538 1.378 . S
C3536 C3540 1.350 . S
C3537 C3540 1.463 . S
C3537 C3542 1.350 . S
C3537 N3545 1.427 . S
C3538 H3529 0.930 . S
C3538 C3536 1.378 . S
C3538 C3539 1.367 . S
C3539 C3538 1.367 . S
C3539 C3541 1.433 . S
C3540 C3536 1.350 . S
C3540 C3537 1.463 . S
C3540 N3544 1.427 . S
C3541 H3531 0.929 . S
C3541 C3539 1.433 . S
C3541 N3544 1.384 . S
C3542 H3533 0.929 . S
C3542 C3534 1.378 . S
C3542 C3537 1.350 . S
C3543 H3530 0.929 . S
C3543 C3535 1.433 . S
C3543 N3545 1.384 . S
N3544 C3540 1.427 . S
N3544 C3541 1.384 . S
N3545 C3537 1.427 . S
N3545 C3543 1.384 . S
H3546 C3552 0.930 . S
H3547 C3556 0.930 . S
H3548 C3561 0.929 . S
H3549 C3559 0.929 . S
H3550 C3554 0.929 . S
H3551 C3560 0.929 . S
C3552 H3546 0.930 . S
C3552 C3553 1.367 . S
C3552 C3560 1.378 . S
C3553 C3552 1.367 . S
C3553 C3561 1.433 . S
C3554 H3550 0.929 . S
C3554 C3556 1.378 . S
C3554 C3558 1.350 . S
C3555 C3558 1.463 1_655 S
C3555 C3560 1.350 . S
C3555 N3563 1.427 . S
C3556 H3547 0.930 . S
C3556 C3554 1.378 . S
C3556 C3557 1.367 . S
C3557 C3556 1.367 . S
C3557 C3559 1.433 . S
C3558 C3554 1.350 . S
C3558 C3555 1.463 1_455 S
C3558 N3562 1.427 . S
C3559 H3549 0.929 . S
C3559 C3557 1.433 . S
C3559 N3562 1.384 . S
C3560 H3551 0.929 . S
C3560 C3552 1.378 . S
C3560 C3555 1.350 . S
C3561 H3548 0.929 . S
C3561 C3553 1.433 . S
C3561 N3563 1.384 . S
N3562 C3558 1.427 . S
N3562 C3559 1.384 . S
N3563 C3555 1.427 . S
N3563 C3561 1.384 . S
H3564 C3570 0.930 . S
H3565 C3574 0.930 . S
H3566 C3579 0.929 . S
H3567 C3577 0.929 . S
H3568 C3572 0.929 . S
H3569 C3578 0.929 . S
C3570 H3564 0.930 . S
C3570 C3571 1.367 . S
C3570 C3578 1.378 . S
C3571 C3570 1.367 . S
C3571 C3579 1.433 . S
C3572 H3568 0.929 . S
C3572 C3574 1.378 . S
C3572 C3576 1.350 . S
C3573 C3576 1.463 . S
C3573 C3578 1.350 . S
C3573 N3581 1.427 . S
C3574 H3565 0.930 . S
C3574 C3572 1.378 . S
C3574 C3575 1.367 . S
C3575 C3574 1.367 . S
C3575 C3577 1.433 . S
C3576 C3572 1.350 . S
C3576 C3573 1.463 . S
C3576 N3580 1.427 . S
C3577 H3567 0.929 . S
C3577 C3575 1.433 . S
C3577 N3580 1.384 . S
C3578 H3569 0.929 . S
C3578 C3570 1.378 . S
C3578 C3573 1.350 . S
C3579 H3566 0.929 . S
C3579 C3571 1.433 . S
C3579 N3581 1.384 . S
N3580 C3576 1.427 . S
N3580 C3577 1.384 . S
N3581 C3573 1.427 . S
N3581 C3579 1.384 . S
H3582 C3588 0.930 . S
H3583 C3592 0.930 . S
H3584 C3597 0.929 . S
H3585 C3595 0.929 . S
H3586 C3590 0.929 . S
H3587 C3596 0.929 . S
C3588 H3582 0.930 . S
C3588 C3589 1.367 . S
C3588 C3596 1.378 . S
C3589 C3588 1.367 . S
C3589 C3597 1.433 . S
C3590 H3586 0.929 . S
C3590 C3592 1.378 . S
C3590 C3594 1.350 . S
C3591 C3594 1.463 . S
C3591 C3596 1.350 . S
C3591 N3599 1.427 . S
C3592 H3583 0.930 . S
C3592 C3590 1.378 . S
C3592 C3593 1.367 . S
C3593 C3592 1.367 . S
C3593 C3595 1.433 . S
C3594 C3590 1.350 . S
C3594 C3591 1.463 . S
C3594 N3598 1.427 . S
C3595 H3585 0.929 . S
C3595 C3593 1.433 . S
C3595 N3598 1.384 . S
C3596 H3587 0.929 . S
C3596 C3588 1.378 . S
C3596 C3591 1.350 . S
C3597 H3584 0.929 . S
C3597 C3589 1.433 . S
C3597 N3599 1.384 . S
N3598 C3594 1.427 . S
N3598 C3595 1.384 . S
N3599 C3591 1.427 . S
N3599 C3597 1.384 . S
H3600 C3606 0.930 . S
H3601 C3610 0.930 . S
H3602 C3615 0.929 . S
H3603 C3613 0.929 . S
H3604 C3608 0.929 . S
H3605 C3614 0.929 . S
C3606 H3600 0.930 . S
C3606 C3607 1.367 . S
C3606 C3614 1.378 . S
C3607 C3606 1.367 . S
C3607 C3615 1.433 . S
C3608 H3604 0.929 . S
C3608 C3610 1.378 . S
C3608 C3612 1.350 . S
C3609 C3612 1.463 1_554 S
C3609 C3614 1.350 . S
C3609 N3617 1.427 . S
C3610 H3601 0.930 . S
C3610 C3608 1.378 . S
C3610 C3611 1.367 . S
C3611 C3610 1.367 . S
C3611 C3613 1.433 . S
C3612 C3608 1.350 . S
C3612 C3609 1.463 1_556 S
C3612 N3616 1.427 . S
C3613 H3603 0.929 . S
C3613 C3611 1.433 . S
C3613 N3616 1.384 . S
C3614 H3605 0.929 . S
C3614 C3606 1.378 . S
C3614 C3609 1.350 . S
C3615 H3602 0.929 . S
C3615 C3607 1.433 . S
C3615 N3617 1.384 . S
N3616 C3612 1.427 . S
N3616 C3613 1.384 . S
N3617 C3609 1.427 . S
N3617 C3615 1.384 . S
H3618 C3624 0.930 . S
H3619 C3628 0.930 1_455 S
H3620 C3633 0.929 1_455 S
H3621 C3631 0.929 . S
H3622 C3626 0.929 1_455 S
H3623 C3632 0.929 . S
C3624 H3618 0.930 . S
C3624 C3625 1.367 . S
C3624 C3632 1.378 . S
C3625 C3624 1.367 . S
C3625 C3633 1.433 . S
C3626 H3622 0.929 1_655 S
C3626 C3628 1.378 . S
C3626 C3630 1.350 . S
C3627 C3630 1.463 . S
C3627 C3632 1.350 . S
C3627 N3635 1.427 . S
C3628 H3619 0.930 1_655 S
C3628 C3626 1.378 . S
C3628 C3629 1.367 . S
C3629 C3628 1.367 . S
C3629 C3631 1.433 . S
C3630 C3626 1.350 . S
C3630 C3627 1.463 . S
C3630 N3634 1.427 . S
C3631 H3621 0.929 . S
C3631 C3629 1.433 . S
C3631 N3634 1.384 . S
C3632 H3623 0.929 . S
C3632 C3624 1.378 . S
C3632 C3627 1.350 . S
C3633 H3620 0.929 1_655 S
C3633 C3625 1.433 . S
C3633 N3635 1.384 . S
N3634 C3630 1.427 . S
N3634 C3631 1.384 . S
N3635 C3627 1.427 . S
N3635 C3633 1.384 . S
H3636 C3642 0.930 . S
H3637 C3646 0.930 . S
H3638 C3651 0.929 . S
H3639 C3649 0.929 . S
H3640 C3644 0.929 . S
H3641 C3650 0.929 . S
C3642 H3636 0.930 . S
C3642 C3643 1.367 . S
C3642 C3650 1.378 . S
C3643 C3642 1.367 . S
C3643 C3651 1.433 . S
C3644 H3640 0.929 . S
C3644 C3646 1.378 . S
C3644 C3648 1.350 . S
C3645 C3648 1.463 . S
C3645 C3650 1.350 . S
C3645 N3653 1.427 . S
C3646 H3637 0.930 . S
C3646 C3644 1.378 . S
C3646 C3647 1.367 . S
C3647 C3646 1.367 . S
C3647 C3649 1.433 . S
C3648 C3644 1.350 . S
C3648 C3645 1.463 . S
C3648 N3652 1.427 . S
C3649 H3639 0.929 . S
C3649 C3647 1.433 . S
C3649 N3652 1.384 . S
C3650 H3641 0.929 . S
C3650 C3642 1.378 . S
C3650 C3645 1.350 . S
C3651 H3638 0.929 . S
C3651 C3643 1.433 . S
C3651 N3653 1.384 . S
N3652 C3648 1.427 . S
N3652 C3649 1.384 . S
N3653 C3645 1.427 . S
N3653 C3651 1.384 . S
H3654 C3660 0.930 . S
H3655 C3664 0.930 . S
H3656 C3669 0.929 . S
H3657 C3667 0.929 . S
H3658 C3662 0.929 . S
H3659 C3668 0.929 . S
C3660 H3654 0.930 . S
C3660 C3661 1.367 . S
C3660 C3668 1.378 . S
C3661 C3660 1.367 . S
C3661 C3669 1.433 . S
C3662 H3658 0.929 . S
C3662 C3664 1.378 . S
C3662 C3666 1.350 . S
C3663 C3666 1.463 . S
C3663 C3668 1.350 . S
C3663 N3671 1.427 . S
C3664 H3655 0.930 . S
C3664 C3662 1.378 . S
C3664 C3665 1.367 . S
C3665 C3664 1.367 . S
C3665 C3667 1.433 . S
C3666 C3662 1.350 . S
C3666 C3663 1.463 . S
C3666 N3670 1.427 . S
C3667 H3657 0.929 . S
C3667 C3665 1.433 . S
C3667 N3670 1.384 . S
C3668 H3659 0.929 . S
C3668 C3660 1.378 . S
C3668 C3663 1.350 . S
C3669 H3656 0.929 . S
C3669 C3661 1.433 . S
C3669 N3671 1.384 . S
N3670 C3666 1.427 . S
N3670 C3667 1.384 . S
N3671 C3663 1.427 . S
N3671 C3669 1.384 . S
H3672 C3678 0.930 . S
H3673 C3682 0.930 . S
H3674 C3687 0.929 . S
H3675 C3685 0.929 . S
H3676 C3680 0.929 . S
H3677 C3686 0.929 . S
C3678 H3672 0.930 . S
C3678 C3679 1.367 . S
C3678 C3686 1.378 . S
C3679 C3678 1.367 . S
C3679 C3687 1.433 . S
C3680 H3676 0.929 . S
C3680 C3682 1.378 . S
C3680 C3684 1.350 . S
C3681 C3684 1.463 . S
C3681 C3686 1.350 . S
C3681 N3689 1.427 . S
C3682 H3673 0.930 . S
C3682 C3680 1.378 . S
C3682 C3683 1.367 . S
C3683 C3682 1.367 . S
C3683 C3685 1.433 . S
C3684 C3680 1.350 . S
C3684 C3681 1.463 . S
C3684 N3688 1.427 . S
C3685 H3675 0.929 . S
C3685 C3683 1.433 . S
C3685 N3688 1.384 . S
C3686 H3677 0.929 . S
C3686 C3678 1.378 . S
C3686 C3681 1.350 . S
C3687 H3674 0.929 . S
C3687 C3679 1.433 . S
C3687 N3689 1.384 . S
N3688 C3684 1.427 . S
N3688 C3685 1.384 . S
N3689 C3681 1.427 . S
N3689 C3687 1.384 . S
H3690 C3696 0.930 . S
H3691 C3700 0.930 . S
H3692 C3705 0.929 . S
H3693 C3703 0.929 . S
H3694 C3698 0.929 . S
H3695 C3704 0.929 . S
C3696 H3690 0.930 . S
C3696 C3697 1.367 1_556 S
C3696 C3704 1.378 . S
C3697 C3696 1.367 1_554 S
C3697 C3705 1.433 . S
C3698 H3694 0.929 . S
C3698 C3700 1.378 . S
C3698 C3702 1.346 1_554 S
C3699 C3702 1.461 1_554 S
C3699 C3704 1.343 1_554 S
C3699 N3707 1.436 . S
C3700 H3691 0.930 . S
C3700 C3698 1.378 . S
C3700 C3701 1.367 1_554 S
C3701 C3700 1.367 1_556 S
C3701 C3703 1.433 . S
C3702 C3698 1.346 1_556 S
C3702 C3699 1.461 1_556 S
C3702 N3706 1.432 . S
C3703 H3693 0.929 . S
C3703 C3701 1.433 . S
C3703 N3706 1.384 . S
C3704 H3695 0.929 . S
C3704 C3696 1.378 . S
C3704 C3699 1.343 1_556 S
C3705 H3692 0.929 . S
C3705 C3697 1.433 . S
C3705 N3707 1.384 . S
N3706 C3702 1.432 . S
N3706 C3703 1.384 . S
N3707 C3699 1.436 . S
N3707 C3705 1.384 . S
H3708 C3714 0.930 . S
H3709 C3718 0.930 . S
H3710 C3723 0.929 . S
H3711 C3721 0.929 . S
H3712 C3716 0.929 . S
H3713 C3722 0.929 . S
C3714 H3708 0.930 . S
C3714 C3715 1.367 . S
C3714 C3722 1.378 . S
C3715 C3714 1.367 . S
C3715 C3723 1.433 . S
C3716 H3712 0.929 . S
C3716 C3718 1.378 . S
C3716 C3720 1.350 . S
C3717 C3720 1.463 . S
C3717 C3722 1.350 . S
C3717 N3725 1.427 . S
C3718 H3709 0.930 . S
C3718 C3716 1.378 . S
C3718 C3719 1.367 . S
C3719 C3718 1.367 . S
C3719 C3721 1.433 . S
C3720 C3716 1.350 . S
C3720 C3717 1.463 . S
C3720 N3724 1.427 . S
C3721 H3711 0.929 . S
C3721 C3719 1.433 . S
C3721 N3724 1.384 . S
C3722 H3713 0.929 . S
C3722 C3714 1.378 . S
C3722 C3717 1.350 . S
C3723 H3710 0.929 . S
C3723 C3715 1.433 . S
C3723 N3725 1.384 . S
N3724 C3720 1.427 . S
N3724 C3721 1.384 . S
N3725 C3717 1.427 . S
N3725 C3723 1.384 . S
H3726 C3732 0.930 . S
H3727 C3736 0.930 . S
H3728 C3741 0.929 . S
H3729 C3739 0.929 . S
H3730 C3734 0.929 . S
H3731 C3740 0.929 . S
C3732 H3726 0.930 . S
C3732 C3733 1.367 . S
C3732 C3740 1.378 . S
C3733 C3732 1.367 . S
C3733 C3741 1.433 . S
C3734 H3730 0.929 . S
C3734 C3736 1.378 . S
C3734 C3738 1.350 . S
C3735 C3738 1.463 . S
C3735 C3740 1.350 . S
C3735 N3743 1.427 . S
C3736 H3727 0.930 . S
C3736 C3734 1.378 . S
C3736 C3737 1.367 . S
C3737 C3736 1.367 . S
C3737 C3739 1.433 . S
C3738 C3734 1.350 . S
C3738 C3735 1.463 . S
C3738 N3742 1.427 . S
C3739 H3729 0.929 . S
C3739 C3737 1.433 . S
C3739 N3742 1.384 . S
C3740 H3731 0.929 . S
C3740 C3732 1.378 . S
C3740 C3735 1.350 . S
C3741 H3728 0.929 . S
C3741 C3733 1.433 . S
C3741 N3743 1.384 . S
N3742 C3738 1.427 . S
N3742 C3739 1.384 . S
N3743 C3735 1.427 . S
N3743 C3741 1.384 . S
C1591 C546 1.591 . S
C1595 N13 1.254 . S
C1609 N46 1.241 . S
C1613 C1569 1.593 . S
C1627 N79 1.250 . S
C1631 C711 1.594 . S
C1645 N112 1.265 . S
C1649 C1536 1.591 . S
C1663 N145 1.272 . S
C1667 C1371 1.588 . S
C1681 N178 1.251 . S
C1685 C1404 1.594 . S
C1699 N211 1.242 . S
C1703 C1437 1.592 . S
C1717 C678 1.592 . S
C1721 N244 1.261 . S
C1735 N277 1.261 . S
C1739 C18 1.592 . S
C1753 N310 1.274 . S
C1757 C51 1.588 . S
C1771 N343 1.262 . S
C1775 C84 1.589 . S
C1789 N376 1.242 . S
C1793 C117 1.595 . S
C1807 N409 1.253 . S
C1811 C150 1.591 . S
C1825 C183 1.590 . S
C1829 N442 1.269 . S
C1843 C216 1.589 . S
C1847 N475 1.260 . S
C1861 N508 1.272 . S
C1865 C249 1.590 . S
C1879 C282 1.594 . S
C1883 N541 1.242 . S
C1897 C1206 1.589 . S
C1901 N574 1.266 . S
C1915 C1239 1.593 . S
C1919 N607 1.242 . S
C1933 C1272 1.594 . S
C1937 N640 1.242 . S
C1951 N673 1.273 . S
C1955 C513 1.589 . S
C1969 N706 1.255 . S
C1973 C348 1.593 . S
C1987 C1173 1.588 . S
C1991 N739 1.267 . S
C2005 N772 1.266 . S
C2009 C1107 1.592 . S
C2023 N805 1.273 . S
C2027 C1338 1.589 . S
C2041 C777 1.590 . S
C2045 N838 1.270 . S
C2059 C1503 1.589 . S
C2063 N871 1.266 . S
C2077 N904 1.268 . S
C2081 C744 1.590 . S
C2095 N937 1.242 . S
C2099 C579 1.593 . S
C2113 C612 1.594 . S
C2117 N970 1.243 . S
C2131 C645 1.590 . S
C2135 N1003 1.255 . S
C2149 C1470 1.594 . S
C2153 N1036 1.242 . S
C2167 C810 1.590 . S
C2171 N1069 1.272 . S
C2185 C843 1.588 . S
C2189 N1102 1.269 . S
C2203 N1135 1.269 . S
C2207 C876 1.590 . S
C2221 N1168 1.243 . S
C2225 C909 1.595 . S
C2239 N1201 1.257 . S
C2243 C942 1.593 . S
C2257 N1234 1.272 . S
C2261 C975 1.589 . S
C2275 N1267 1.266 . S
C2279 C1008 1.589 . S
C2293 C1041 1.589 . S
C2297 N1300 1.268 . S
C2311 C1074 1.594 . S
C2315 N1333 1.244 . S
C2329 C414 1.592 . S
C2333 N1366 1.254 . S
C2347 N1399 1.249 . S
C2351 C447 1.593 . S
C2365 C480 1.591 . S
C2369 N1432 1.271 . S
C2383 C1305 1.594 . S
C2387 N1465 1.242 . S
C2401 N1498 1.263 . S
C2405 C1140 1.591 . S
C2419 N1531 1.265 . S
C2423 C381 1.591 . S
C2437 C315 1.593 . S
C2441 N1564 1.247 . S
C2455 N497 0.465 . S
C2459 N2 0.495 . S
C2473 N35 0.442 . S
C2477 N398 0.455 . S
C2491 N431 0.475 . S
C2495 N68 0.439 . S
C2509 N464 0.478 . S
C2513 N101 0.492 . S
C2527 N134 0.488 . S
C2531 N299 0.447 . S
C2545 N167 0.494 . S
C2549 N332 0.475 . S
C2563 N365 0.449 . S
C2567 N200 0.490 . S
C2581 N233 0.493 . S
C2585 N266 0.456 . S
C2599 N662 0.478 . S
C2603 N530 0.440 . S
C2617 N563 0.491 . S
C2621 N761 0.451 . S
C2635 N1487 0.441 . S
C2639 N596 0.481 . S
C2653 N728 0.462 . S
C2657 N629 0.440 . S
C2671 N695 0.490 . S
C2675 N1388 0.449 . S
C2689 N794 0.487 . S
C2693 N1289 0.446 . S
C2707 N1190 0.450 . S
C2711 N827 0.447 . S
C2725 N1223 0.443 . S
C2729 N860 0.484 . S
C2743 N1256 0.452 . S
C2747 N893 0.445 . S
C2761 N1091 0.456 . S
C2765 N926 0.442 . S
C2779 N959 0.488 . S
C2783 N1124 0.447 . S
C2797 N1157 0.453 . S
C2801 N992 0.492 . S
C2815 N1025 0.495 . S
C2819 N1058 0.471 . S
C2833 N1454 0.475 . S
C2837 N1322 0.494 . S
C2851 N1355 0.466 . S
C2855 N1553 0.439 . S
C2869 N1520 0.462 . S
C2873 N1421 0.440 . S
C2887 C667 1.438 . S
C2891 C7 1.434 . S
C2905 C40 1.442 . S
C2909 C1360 1.444 . S
C2923 C73 1.442 . S
C2927 C1393 1.438 . S
C2941 C106 1.434 . S
C2945 C1426 1.434 . S
C2959 C139 1.437 . S
C2963 C1558 1.434 . S
C2977 C700 1.437 . S
C2981 C172 1.434 . S
C2995 C205 1.437 . S
C2999 C1525 1.434 . S
C3013 C238 1.436 . S
C3017 C535 1.440 . S
C3031 C502 1.435 . S
C3035 C271 1.440 . S
C3049 C403 1.440 . S
C3053 C304 1.436 . S
C3067 C337 1.444 . S
C3071 C436 1.441 . S
C3085 C469 1.434 . S
C3089 C370 1.435 . S
C3103 C832 1.438 . S
C3107 C568 1.442 . S
C3121 C601 1.436 . S
C3125 C865 1.440 . S
C3139 C634 1.439 . S
C3143 C898 1.443 . S
C3157 C997 1.439 . S
C3161 C733 1.435 . S
C3175 C931 1.442 . S
C3179 C766 1.444 . S
C3193 C799 1.443 . S
C3197 C1459 1.440 . S
C3211 C1492 1.436 . S
C3215 C964 1.440 . S
C3229 C1327 1.443 . S
C3233 C1030 1.439 . S
C3247 C1063 1.435 . S
C3251 C1294 1.439 . S
C3265 C1195 1.443 . S
C3269 C1096 1.440 . S
C3283 C1129 1.441 . S
C3287 C1228 1.437 . S
C3301 C1162 1.434 . S
C3305 C1261 1.436 . S
C3319 C153 1.695 . S
C3323 C21 1.701 . S
C3337 C186 1.699 . S
C3341 C54 1.688 . S
C3355 C219 1.684 . S
C3359 C87 1.683 . S
C3373 C120 1.701 . S
C3377 C252 1.698 . S
C3391 C483 1.682 . S
C3395 C285 1.693 . S
C3409 C516 1.696 . S
C3413 C318 1.702 . S
C3427 C351 1.701 . S
C3431 C417 1.693 . S
C3445 C384 1.681 . S
C3449 C450 1.689 . S
C3463 C549 1.701 . S
C3467 C1506 1.691 . S
C3481 C582 1.701 . S
C3485 C1440 1.693 . S
C3499 C615 1.701 . S
C3503 C681 1.689 . S
C3517 C1374 1.682 . S
C3521 C648 1.692 . S
C3535 C1341 1.682 . S
C3539 C714 1.687 . S
C3553 C747 1.683 . S
C3557 C1572 1.694 . S
C3571 C1539 1.685 . S
C3575 C780 1.697 . S
C3589 C945 1.686 . S
C3593 C813 1.683 . S
C3607 C978 1.681 . S
C3611 C846 1.691 . S
C3625 C879 1.684 . S
C3629 C1011 1.696 . S
C3643 C912 1.684 . S
C3647 C1044 1.695 . S
C3661 C1077 1.685 . S
C3665 C1275 1.697 . S
C3679 C1110 1.691 . S
C3683 C1308 1.682 . S
C3697 C1143 1.688 . S
C3701 C1209 1.699 . S
C3715 C1176 1.688 . S
C3719 C1242 1.681 . S
C3733 C1473 1.682 . S
C3737 C1407 1.691 . S
